# Generated by pormake.
# Topology tsx, (6,3)-cn, num edge types: 1
# Building blocks:
#     Node 0, Type 0, BuildingBlock: FUNLAD_clean_sbu_0, # of connection points: 6
#     Node 1, Type 0, BuildingBlock: FUNLAD_clean_sbu_0, # of connection points: 6
#     Node 2, Type 1, BuildingBlock: MIDCAF_clean_linker_0, # of connection points: 3
#     Node 3, Type 1, BuildingBlock: MIDCAF_clean_linker_0, # of connection points: 3
#     Node 4, Type 1, BuildingBlock: MIDCAF_clean_linker_0, # of connection points: 3
#     Node 5, Type 1, BuildingBlock: MIDCAF_clean_linker_0, # of connection points: 3
#     Edge 6, Type (0, 1), BuildingBlock: CIFDUS_clean_linker_0, # of connection points: 2
#     Edge 7, Type (0, 1), BuildingBlock: CIFDUS_clean_linker_0, # of connection points: 2
#     Edge 8, Type (0, 1), BuildingBlock: CIFDUS_clean_linker_0, # of connection points: 2
#     Edge 9, Type (0, 1), BuildingBlock: CIFDUS_clean_linker_0, # of connection points: 2
#     Edge 10, Type (0, 1), BuildingBlock: CIFDUS_clean_linker_0, # of connection points: 2
#     Edge 11, Type (0, 1), BuildingBlock: CIFDUS_clean_linker_0, # of connection points: 2
#     Edge 12, Type (0, 1), BuildingBlock: CIFDUS_clean_linker_0, # of connection points: 2
#     Edge 13, Type (0, 1), BuildingBlock: CIFDUS_clean_linker_0, # of connection points: 2
#     Edge 14, Type (0, 1), BuildingBlock: CIFDUS_clean_linker_0, # of connection points: 2
#     Edge 15, Type (0, 1), BuildingBlock: CIFDUS_clean_linker_0, # of connection points: 2
#     Edge 16, Type (0, 1), BuildingBlock: CIFDUS_clean_linker_0, # of connection points: 2
#     Edge 17, Type (0, 1), BuildingBlock: CIFDUS_clean_linker_0, # of connection points: 2
# Relax obj value: 0.165
# Max RMSD: 0.155
# Mean RMSD: 0.086
data_MOF--net-tsx--node1-FUNLAD_clean_sbu_0--node2-MIDCAF_clean_linker_0--edge1-CIFDUS_clean_linker_0
_symmetry_space_group_name_H-M    P1
_symmetry_Int_Tables_number       1
_symmetry_cell_setting            triclinic
loop_
_symmetry_equiv_pos_as_xyz
'x, y, z'
_cell_length_a     20.728246
_cell_length_b     22.974997
_cell_length_c     45.695544
_cell_angle_alpha  90.993362
_cell_angle_beta   92.035891
_cell_angle_gamma 90.062126
loop_
_atom_site_label
_atom_site_type_symbol
_atom_site_fract_x
_atom_site_fract_y
_atom_site_fract_z
_atom_type_partial_charge
C0 C 0.96273 0.92668 0.00684 0.0
N1 N 0.05456 0.00739 0.07908 0.0
C2 C -0.00319 0.00072 0.09188 0.0
C3 C 0.99398 -0.00258 0.12221 0.0
C4 C 0.05102 0.00178 0.13954 0.0
C5 C 0.10992 0.00941 0.12587 0.0
C6 C 0.11065 0.01173 0.09537 0.0
Zn7 Zn 0.05545 0.01076 0.03463 0.0
C8 C 0.14884 0.92772 0.00944 0.0
N9 N 0.05444 0.01919 0.94162 0.0
C10 C 0.99629 0.01783 0.92687 0.0
C11 C 0.11048 0.02331 0.92717 0.0
C12 C 0.10928 0.02647 0.89664 0.0
C13 C 0.04984 0.02484 0.8808 0.0
C14 C 0.9929 0.0202 0.8964 0.0
Zn15 Zn 0.05553 0.01553 0.98621 0.0
O16 O 0.98749 0.94333 0.03135 0.0
C17 C 0.96148 0.09779 0.0112 0.0
O18 O 0.98066 0.95056 0.98359 0.0
H19 H 0.15618 0.0244 0.93935 0.0
H20 H 0.95275 -0.00208 0.07853 0.0
H21 H 0.95227 0.01477 0.93875 0.0
O22 O 0.97968 0.07389 0.03496 0.0
O23 O 0.98628 0.08189 0.98736 0.0
H24 H 0.15601 0.01682 0.08471 0.0
O25 O 0.12928 0.08081 0.98955 0.0
O26 O 0.1239 0.07826 0.03735 0.0
O27 O 0.12528 0.94871 0.9858 0.0
O28 O 0.13014 0.94749 0.03387 0.0
C29 C 0.14764 0.10008 0.01475 0.0
H30 H 0.94759 0.99215 0.13205 0.0
H31 H 0.15492 0.01254 0.1386 0.0
H32 H 0.1544 0.03078 0.88564 0.0
H33 H 0.94602 0.01766 0.88523 0.0
C34 C 0.39047 0.40232 0.49897 0.0
N35 N 0.50071 0.48365 0.56591 0.0
C36 C 0.44545 0.47865 0.58084 0.0
C37 C 0.44773 0.47526 0.61124 0.0
C38 C 0.50739 0.47856 0.62677 0.0
C39 C 0.56381 0.48434 0.61079 0.0
C40 C 0.55936 0.48638 0.58021 0.0
Zn41 Zn 0.49194 0.48724 0.52131 0.0
C42 C 0.57805 0.40654 0.49097 0.0
N43 N 0.46393 0.49409 0.42859 0.0
C44 C 0.40547 0.48974 0.41418 0.0
C45 C 0.51899 0.50164 0.41379 0.0
C46 C 0.51673 0.50537 0.38339 0.0
C47 C 0.45729 0.5006 0.36778 0.0
C48 C 0.40103 0.49279 0.3836 0.0
Zn49 Zn 0.47306 0.4898 0.47322 0.0
O50 O 0.41926 0.42445 0.52145 0.0
C51 C 0.3873 0.57031 0.50347 0.0
O52 O 0.40506 0.41924 0.47369 0.0
H53 H 0.56501 0.50495 0.42559 0.0
H54 H 0.39918 0.4771 0.56918 0.0
H55 H 0.36228 0.48373 0.4264 0.0
O56 O 0.4219 0.55421 0.52534 0.0
O57 O 0.39698 0.54903 0.47817 0.0
H58 H 0.60274 0.49045 0.56792 0.0
O59 O 0.54145 0.5612 0.47369 0.0
O60 O 0.5642 0.54945 0.5205 0.0
O61 O 0.54901 0.42973 0.46917 0.0
O62 O 0.56236 0.42098 0.51674 0.0
C63 C 0.57446 0.57513 0.49678 0.0
H64 H 0.40295 0.46944 0.62232 0.0
H65 H 0.61087 0.48787 0.62172 0.0
H66 H 0.56127 0.51262 0.37231 0.0
H67 H 0.35421 0.48837 0.3725 0.0
C68 C 0.91101 0.19016 0.46544 0.0
C69 C 0.86528 0.17586 0.48611 0.0
C70 C 0.86546 0.11953 0.49763 0.0
C71 C 0.90733 0.07705 0.4869 0.0
H72 H 0.06736 0.92945 0.50377 0.0
H73 H 0.11198 0.83883 0.52333 0.0
H74 H 0.07615 0.75485 0.43882 0.0
H75 H 0.02921 0.84372 0.42022 0.0
H76 H 0.07184 0.92574 0.36724 0.0
H77 H 0.08824 0.93517 0.31516 0.0
H78 H 0.03651 0.1169 0.32046 0.0
H79 H 0.02013 0.10795 0.3729 0.0
H80 H 0.98531 0.15982 0.43786 0.0
H81 H 0.91293 0.23363 0.45668 0.0
H82 H 0.8307 0.10736 0.51359 0.0
H83 H 0.90416 0.03313 0.49499 0.0
N84 N -0.00115 0.99258 0.46227 0.0
N85 N 0.04297 0.95773 0.41877 0.0
N86 N 0.00112 0.05193 0.4209 0.0
C87 C 0.02808 0.94933 0.44703 0.0
C88 C 0.02994 0.00884 0.40554 0.0
C89 C 0.98528 0.04417 0.4492 0.0
C90 C 0.04507 0.89346 0.46056 0.0
C91 C 0.06704 0.89084 0.4899 0.0
C92 C 0.09321 0.83915 0.50091 0.0
C93 C 0.09822 0.78951 0.48261 0.0
C94 C 0.0724 0.79165 0.45377 0.0
C95 C 0.04615 0.84295 0.44292 0.0
C96 C 0.04409 0.01601 0.37429 0.0
C97 C 0.06436 0.96795 0.3575 0.0
C98 C 0.07354 0.97318 0.3276 0.0
C99 C 0.06313 0.0266 0.31381 0.0
C100 C 0.04511 0.07526 0.33064 0.0
C101 C 0.0354 0.06997 0.36061 0.0
C102 C 0.94939 0.0904 0.46448 0.0
C103 C 0.95244 0.14788 0.45467 0.0
C104 C 0.85279 0.81936 0.56971 0.0
C105 C 0.84625 0.80635 0.53965 0.0
C106 C 0.87844 0.84115 0.5198 0.0
C107 C 0.9196 0.8861 0.53015 0.0
H108 H 0.03318 0.04909 0.51268 0.0
H109 H 0.09535 0.12122 0.48603 0.0
H110 H 0.2502 0.10862 0.55121 0.0
H111 H 0.18898 0.03688 0.57735 0.0
H112 H 0.1464 0.01228 0.64444 0.0
H113 H 0.16255 0.0197 0.69771 0.0
H114 H 0.96743 0.96007 0.70841 0.0
H115 H 0.95118 0.95199 0.65538 0.0
H116 H 0.89845 0.871 0.60344 0.0
H117 H 0.8272 0.7942 0.58546 0.0
H118 H 0.87365 0.83228 0.49647 0.0
H119 H 0.94504 0.91145 0.51449 0.0
N120 N 0.01652 0.96891 0.55439 0.0
N121 N 0.07537 0.0064 0.59547 0.0
N122 N 0.98921 0.94286 0.6018 0.0
C123 C 0.06519 0.00296 0.56594 0.0
C124 C 0.03722 0.97683 0.61354 0.0
C125 C 0.97863 0.9382 0.57235 0.0
C126 C 0.10598 0.03796 0.54709 0.0
C127 C 0.08136 0.06042 0.52057 0.0
C128 C 0.11676 0.10152 0.50542 0.0
C129 C 0.17712 0.1204 0.5168 0.0
C130 C 0.20353 0.09476 0.54215 0.0
C131 C 0.16833 0.05402 0.55717 0.0
C132 C 0.0475 0.98154 0.64569 0.0
C133 C 0.10694 0.00082 0.65815 0.0
C134 C 0.11635 0.00481 0.68858 0.0
C135 C 0.06615 0.99063 0.70703 0.0
C136 C 0.00671 0.97171 0.6946 0.0
C137 C -0.00239 0.96679 0.66426 0.0
C138 C 0.92915 0.8966 0.56047 0.0
C139 C 0.89359 0.86377 0.57998 0.0
C140 C 0.30792 0.58424 0.96321 0.0
C141 C 0.33781 0.63249 0.9773 0.0
C142 C 0.40414 0.62999 0.98476 0.0
C143 C 0.44107 0.58268 0.97528 0.0
H144 H 0.58206 0.42282 0.99273 0.0
H145 H 0.67727 0.36828 0.01046 0.0
H146 H 0.7114 0.31083 0.92191 0.0
H147 H 0.61842 0.36427 0.90428 0.0
H148 H 0.51242 0.38178 0.8533 0.0
H149 H 0.5053 0.38873 0.8002 0.0
H150 H 0.41495 0.55757 0.80848 0.0
H151 H 0.41917 0.54908 0.86144 0.0
H152 H 0.32125 0.50278 0.94087 0.0
H153 H 0.25666 0.5847 0.95767 0.0
H154 H 0.42827 0.66663 0.99566 0.0
H155 H 0.49295 0.58374 0.97888 0.0
N156 N 0.50093 0.46713 0.9527 0.0
N157 N 0.52403 0.43104 0.90583 0.0
N158 N 0.43894 0.49618 0.91133 0.0
C159 C 0.53721 0.4326 0.93517 0.0
C160 C 0.47545 0.46282 0.89373 0.0
C161 C 0.45099 0.4982 0.94072 0.0
C162 C 0.59269 0.39854 0.94703 0.0
C163 C 0.60996 0.39847 0.97712 0.0
C164 C 0.66425 0.36724 0.98729 0.0
C165 C 0.70226 0.33625 0.96747 0.0
C166 C 0.68396 0.33544 0.93763 0.0
C167 C 0.63011 0.36601 0.92757 0.0
C168 C 0.46639 0.46488 0.86155 0.0
C169 C 0.49043 0.42008 0.84372 0.0
C170 C 0.48686 0.42436 0.81326 0.0
C171 C 0.46021 0.47403 0.79992 0.0
C172 C 0.43499 0.51829 0.81785 0.0
C173 C 0.43756 0.51353 0.84829 0.0
C174 C 0.41186 0.53764 0.95842 0.0
C175 C 0.34471 0.53739 0.9537 0.0
C176 C 0.302 0.44002 0.03046 0.0
C177 C 0.33722 0.40047 0.01365 0.0
C178 C 0.40142 0.41335 0.00737 0.0
C179 C 0.43156 0.46292 0.01994 0.0
H180 H 0.57893 0.60413 0.01486 0.0
H181 H 0.67676 0.65707 0.00208 0.0
H182 H 0.68121 0.74268 0.08694 0.0
H183 H 0.58468 0.69127 0.09962 0.0
H184 H 0.52801 0.62031 0.15096 0.0
H185 H 0.5123 0.60924 0.20311 0.0
H186 H 0.32434 0.53395 0.18436 0.0
H187 H 0.34001 0.54405 0.13176 0.0
H188 H 0.30452 0.51731 0.05717 0.0
H189 H 0.25235 0.43082 0.03549 0.0
H190 H 0.42946 0.3831 0.99457 0.0
H191 H 0.48241 0.47002 0.01662 0.0
N192 N 0.48361 0.57321 0.04857 0.0
N193 N 0.49953 0.61348 0.09584 0.0
N194 N 0.41496 0.54801 0.0863 0.0
C195 C 0.51699 0.60957 0.0675 0.0
C196 C 0.44883 0.58291 0.10547 0.0
C197 C 0.43187 0.54295 0.0579 0.0
C198 C 0.57394 0.643 0.05834 0.0
C199 C 0.60044 0.63471 0.03062 0.0
C200 C 0.6564 0.66488 0.0233 0.0
C201 C 0.68696 0.7032 0.04372 0.0
C202 C 0.65943 0.71249 0.071 0.0
C203 C 0.60377 0.68296 0.07819 0.0
C204 C 0.43543 0.58266 0.13711 0.0
C205 C 0.48287 0.60208 0.1578 0.0
C206 C 0.47413 0.59553 0.18769 0.0
C207 C 0.4174 0.57036 0.1976 0.0
C208 C 0.36848 0.55354 0.17715 0.0
C209 C 0.37762 0.55918 0.14711 0.0
C210 C 0.39758 0.49987 0.03877 0.0
C211 C 0.33188 0.48929 0.04289 0.0
H212 H 0.19499 0.16888 0.97192 0.0
H213 H 0.20024 0.1446 0.06556 0.0
H214 H 0.26256 0.2336 0.07285 0.0
H215 H 0.30837 0.32206 0.05338 0.0
H216 H 0.30531 0.34899 0.96036 0.0
H217 H 0.24975 0.25501 0.95193 0.0
C218 C 0.21053 0.18271 0.99386 0.0
C219 C 0.19227 0.15031 0.01817 0.0
C220 C 0.24629 0.23456 -0.00198 0.0
C221 C 0.21301 0.1688 0.04646 0.0
C222 C 0.24865 0.21981 0.05071 0.0
C223 C 0.29588 0.30694 0.03125 0.0
C224 C 0.30987 0.34206 0.00751 0.0
C225 C 0.26427 0.25356 0.02676 0.0
C226 C 0.29454 0.32231 0.97889 0.0
C227 C 0.26273 0.26886 0.97415 0.0
H228 H 0.17156 0.85935 0.96235 0.0
H229 H 0.22331 0.88141 0.05416 0.0
H230 H 0.28856 0.79257 0.05246 0.0
H231 H 0.32737 0.70592 0.02491 0.0
H232 H 0.2695 0.6841 0.93373 0.0
H233 H 0.20998 0.77525 0.93523 0.0
C234 C 0.19762 0.84521 0.98197 0.0
C235 C 0.19278 0.87708 0.00829 0.0
C236 C 0.23343 0.79361 0.98102 0.0
C237 C 0.22633 0.85764 0.03357 0.0
C238 C 0.26348 0.80678 0.03264 0.0
C239 C 0.3017 0.72141 0.00547 0.0
C240 C 0.30199 0.68803 0.97938 0.0
C241 C 0.26677 0.77394 0.00653 0.0
C242 C 0.26882 0.70847 0.95424 0.0
C243 C 0.23515 0.76077 0.95499 0.0
H244 H 0.94503 0.84567 0.04755 0.0
H245 H 0.8681 0.90513 0.96443 0.0
H246 H 0.77792 0.83626 0.96689 0.0
H247 H 0.71567 0.76582 0.99546 0.0
H248 H 0.79526 0.70798 0.07848 0.0
H249 H 0.89004 0.76916 0.07316 0.0
C250 C 0.9088 0.84328 0.02983 0.0
C251 C 0.91255 0.88093 0.00608 0.0
C252 C 0.85747 0.804 0.03146 0.0
C253 C 0.86601 0.87665 0.98302 0.0
C254 C 0.81439 0.83746 0.98448 0.0
C255 C 0.75445 0.7659 0.01203 0.0
C256 C 0.74814 0.73326 0.03755 0.0
C257 C 0.80883 0.80181 0.00896 0.0
C258 C 0.79863 0.7336 0.05891 0.0
C259 C 0.8528 0.76852 0.05589 0.0
H260 H 0.9561 0.18926 0.97557 0.0
H261 H 0.85749 0.10989 0.04614 0.0
H262 H 0.76998 0.1814 0.04105 0.0
H263 H 0.71698 0.26054 0.01277 0.0
H264 H 0.8195 0.34012 0.94325 0.0
H265 H 0.91055 0.27501 0.95195 0.0
C266 C 0.91564 0.18796 0.98999 0.0
C267 C 0.91237 0.14406 0.01082 0.0
C268 C 0.86629 0.22917 0.98707 0.0
C269 C 0.86061 0.14334 0.02982 0.0
C270 C 0.81062 0.18405 0.02685 0.0
C271 C 0.7599 0.26437 4e-05 0.0
C272 C 0.7611 0.30422 0.97702 0.0
C273 C 0.81227 0.22642 0.00508 0.0
C274 C 0.81701 0.30891 0.96068 0.0
C275 C 0.86907 0.27173 0.96562 0.0
H276 H 0.68401 0.57663 0.52948 0.0
H277 H 0.57857 0.67367 0.46367 0.0
H278 H 0.65781 0.75321 0.46893 0.0
H279 H 0.75147 0.7986 0.49635 0.0
H280 H 0.85561 0.69808 0.56141 0.0
H281 H 0.78287 0.61609 0.55214 0.0
C282 C 0.67867 0.61504 0.5161 0.0
C283 C 0.62525 0.62001 0.49662 0.0
C284 C 0.72405 0.65995 0.51923 0.0
C285 C 0.61939 0.66923 0.47894 0.0
C286 C 0.66448 0.71468 0.48204 0.0
C287 C 0.75873 0.7583 0.50801 0.0
C288 C 0.80786 0.7547 0.52997 0.0
C289 C 0.71625 0.71109 0.50267 0.0
C290 C 0.81717 0.70222 0.54488 0.0
C291 C 0.77572 0.65531 0.53958 0.0
H292 H 0.64762 0.34422 0.5317 0.0
H293 H 0.62633 0.37398 0.43872 0.0
H294 H 0.71337 0.30609 0.42951 0.0
H295 H 0.79488 0.23817 0.44734 0.0
H296 H 0.81795 0.20591 0.53978 0.0
H297 H 0.73034 0.27453 0.54972 0.0
C298 C 0.66204 0.33576 0.50944 0.0
C299 C 0.63039 0.36424 0.48596 0.0
C300 C 0.71234 0.2963 0.50418 0.0
C301 C 0.64962 0.3527 0.45723 0.0
C302 C 0.69952 0.3139 0.45189 0.0
C303 C 0.78137 0.24671 0.46973 0.0
C304 C 0.81333 0.21775 0.49284 0.0
C305 C 0.73121 0.28565 0.47516 0.0
C306 C 0.79403 0.22789 0.52165 0.0
C307 C 0.74411 0.26713 0.5273 0.0
H308 H 0.34829 0.31438 0.46129 0.0
H309 H 0.31992 0.39133 0.5468 0.0
H310 H 0.24654 0.31341 0.55834 0.0
H311 H 0.19846 0.21933 0.54647 0.0
H312 H 0.22611 0.13773 0.46238 0.0
H313 H 0.29093 0.22162 0.44765 0.0
C314 C 0.32518 0.3143 0.48221 0.0
C315 C 0.34026 0.35806 0.50332 0.0
C316 C 0.28335 0.2684 0.48903 0.0
C317 C 0.30999 0.35764 0.53036 0.0
C318 C 0.26787 0.31316 0.53701 0.0
C319 C 0.21828 0.2203 0.52481 0.0
C320 C 0.20871 0.17266 0.50563 0.0
C321 C 0.25564 0.26769 0.51688 0.0
C322 C 0.23342 0.17422 0.47746 0.0
C323 C 0.27058 0.22194 0.46917 0.0
H324 H 0.26396 0.56194 0.48371 0.0
H325 H 0.39722 0.6747 0.53194 0.0
H326 H 0.31543 0.75171 0.53314 0.0
H327 H 0.21109 0.78981 0.51507 0.0
H328 H 0.07493 0.67415 0.46994 0.0
H329 H 0.15266 0.59479 0.47334 0.0
C330 C 0.27452 0.60325 0.49475 0.0
C331 C 0.33628 0.6136 0.50724 0.0
C332 C 0.22704 0.64652 0.49584 0.0
C333 C 0.34975 0.66642 0.52204 0.0
C334 C 0.30315 0.71028 0.52268 0.0
C335 C 0.19736 0.74686 0.50682 0.0
C336 C 0.13775 0.73847 0.49158 0.0
C337 C 0.24215 0.70125 0.509 0.0
C338 C 0.1212 0.68232 0.48102 0.0
C339 C 0.16558 0.63685 0.48295 0.0
H340 H 0.10712 0.07475 0.18031 0.0
H341 H 0.98929 0.92029 0.17063 0.0
H342 H 0.98328 0.91422 0.22379 0.0
H343 H 0.01044 0.95334 0.27283 0.0
H344 H 0.12604 0.10898 0.28303 0.0
H345 H 0.13387 0.11445 0.22976 0.0
C346 C 0.0806 0.0396 0.18994 0.0
C347 C 0.04878 -0.00204 0.17173 0.0
C348 C 0.07677 0.03679 0.22049 0.0
C349 C 0.01375 0.95302 0.18431 0.0
C350 C 0.01046 0.94945 0.21464 0.0
C351 C 0.03782 0.98814 0.26336 0.0
C352 C 0.06805 0.03044 0.2817 0.0
C353 C 0.04163 0.99115 0.2329 0.0
C354 C 0.10223 0.07606 0.26924 0.0
C355 C 0.10689 0.07905 0.23886 0.0
H356 H 0.1326 0.97532 0.84235 0.0
H357 H 0.96025 0.08043 0.84584 0.0
H358 H 0.95045 0.0791 0.79257 0.0
H359 H 0.98905 0.0462 0.74492 0.0
H360 H 0.16393 0.94549 0.74102 0.0
H361 H 0.17553 0.94833 0.79456 0.0
C362 C 0.09348 -0.00119 0.83153 0.0
C363 C 0.04682 0.02729 0.84825 0.0
C364 C 0.08863 -0.00123 0.80079 0.0
C365 C 0.99605 0.05689 0.83366 0.0
C366 C 0.99059 0.05657 0.80315 0.0
C367 C 0.02968 0.02497 0.75587 0.0
C368 C 0.07531 0.99532 0.73923 0.0
C369 C 0.03616 0.02712 0.78652 0.0
C370 C 0.12836 0.96871 0.75349 0.0
C371 C 0.13481 0.97013 0.78405 0.0
H372 H 0.42055 0.52223 0.66492 0.0
H373 H 0.60064 0.42801 0.66227 0.0
H374 H 0.60314 0.42079 0.71544 0.0
H375 H 0.55301 0.43899 0.76251 0.0
H376 H 0.36703 0.52353 0.76426 0.0
H377 H 0.36801 0.53611 0.71147 0.0
C378 C 0.45998 0.49922 0.67578 0.0
C379 C 0.51016 0.47553 0.65934 0.0
C380 C 0.46007 0.49336 0.70626 0.0
C381 C 0.56172 0.44752 0.67418 0.0
C382 C 0.56293 0.44282 0.70464 0.0
C383 C 0.5121 0.45935 0.75138 0.0
C384 C 0.46007 0.48029 0.76754 0.0
C385 C 0.51206 0.46513 0.72086 0.0
C386 C 0.40831 0.5078 0.75261 0.0
C387 C 0.40856 0.5147 0.72234 0.0
H388 H 0.36605 0.55369 0.33255 0.0
H389 H 0.54299 0.45487 0.32963 0.0
H390 H 0.54565 0.46775 0.27695 0.0
H391 H 0.50039 0.50995 0.23191 0.0
H392 H 0.32107 0.60432 0.2335 0.0
H393 H 0.31583 0.58931 0.28644 0.0
C394 C 0.40463 0.53414 0.32036 0.0
C395 C 0.45485 0.50422 0.33525 0.0
C396 C 0.40551 0.54101 0.28984 0.0
C397 C 0.50461 0.47948 0.31897 0.0
C398 C 0.50602 0.48647 0.28877 0.0
C399 C 0.46018 0.52712 0.24392 0.0
C400 C 0.4116 0.55875 0.22912 0.0
C401 C 0.45734 0.51786 0.27408 0.0
C402 C 0.35903 0.57995 0.24462 0.0
C403 C 0.35619 0.57149 0.27482 0.0
loop_
_geom_bond_atom_site_label_1
_geom_bond_atom_site_label_2
_geom_bond_distance
_geom_bond_site_symmetry_2
_ccdc_geom_bond_type
C0 O16 1.251 . S
C0 O18 1.254 1_554 S
N1 C2 1.333 1_445 S
N1 C6 1.307 . S
N1 Zn7 2.020 . S
C2 N1 1.333 1_665 S
C2 C3 1.379 . S
C2 H20 0.952 . S
C3 C2 1.379 . S
C3 C4 1.390 1_665 S
C3 H30 0.949 . S
C4 C3 1.390 1_445 S
C4 C5 1.357 . S
C5 C4 1.357 . S
C5 C6 1.370 . S
C5 H31 0.950 . S
C6 N1 1.307 . S
C6 C5 1.370 . S
C6 H24 0.948 . S
Zn7 N1 2.020 . S
Zn7 O16 2.039 1_445 S
Zn7 O22 2.034 1_455 S
Zn7 O26 2.025 . S
Zn7 O28 2.024 1_545 S
C8 O27 1.246 1_554 S
C8 O28 1.249 . S
N9 C10 1.307 1_445 S
N9 C11 1.333 . S
N9 Zn15 2.020 . S
C10 N9 1.307 1_665 S
C10 C14 1.370 . S
C10 H21 0.948 . S
C11 N9 1.333 . S
C11 C12 1.379 . S
C11 H19 0.952 . S
C12 C11 1.379 . S
C12 C13 1.390 . S
C12 H32 0.949 . S
C13 C12 1.390 . S
C13 C14 1.357 1_445 S
C14 C10 1.370 . S
C14 C13 1.357 1_665 S
C14 H33 0.950 . S
Zn15 N9 2.020 . S
Zn15 O18 2.025 1_445 S
Zn15 O23 2.024 1_455 S
Zn15 O25 2.039 . S
Zn15 O27 2.034 1_545 S
O16 C0 1.251 . S
O16 Zn7 2.039 1_665 S
C17 O22 1.246 . S
C17 O23 1.249 1_554 S
O18 C0 1.254 1_556 S
O18 Zn15 2.025 1_665 S
H19 C11 0.952 . S
H20 C2 0.952 . S
H21 C10 0.948 . S
O22 Zn7 2.034 1_655 S
O22 C17 1.246 . S
O23 Zn15 2.024 1_655 S
O23 C17 1.249 1_556 S
H24 C6 0.948 . S
O25 Zn15 2.039 . S
O25 C29 1.251 1_556 S
O26 Zn7 2.025 . S
O26 C29 1.254 . S
O27 C8 1.246 1_556 S
O27 Zn15 2.034 1_565 S
O28 Zn7 2.024 1_565 S
O28 C8 1.249 . S
C29 O25 1.251 1_554 S
C29 O26 1.254 . S
H30 C3 0.949 . S
H31 C5 0.950 . S
H32 C12 0.949 . S
H33 C14 0.950 . S
C34 O50 1.251 . S
C34 O52 1.254 . S
N35 C36 1.333 . S
N35 C40 1.307 . S
N35 Zn41 2.020 . S
C36 N35 1.333 . S
C36 C37 1.379 . S
C36 H54 0.952 . S
C37 C36 1.379 . S
C37 C38 1.390 . S
C37 H64 0.949 . S
C38 C37 1.390 . S
C38 C39 1.357 . S
C39 C38 1.357 . S
C39 C40 1.370 . S
C39 H65 0.950 . S
C40 N35 1.307 . S
C40 C39 1.370 . S
C40 H58 0.948 . S
Zn41 N35 2.020 . S
Zn41 O50 2.039 . S
Zn41 O56 2.034 . S
Zn41 O60 2.025 . S
Zn41 O62 2.024 . S
C42 O61 1.246 . S
C42 O62 1.249 . S
N43 C44 1.307 . S
N43 C45 1.333 . S
N43 Zn49 2.020 . S
C44 N43 1.307 . S
C44 C48 1.370 . S
C44 H55 0.948 . S
C45 N43 1.333 . S
C45 C46 1.379 . S
C45 H53 0.952 . S
C46 C45 1.379 . S
C46 C47 1.390 . S
C46 H66 0.949 . S
C47 C46 1.390 . S
C47 C48 1.357 . S
C48 C44 1.370 . S
C48 C47 1.357 . S
C48 H67 0.950 . S
Zn49 N43 2.020 . S
Zn49 O52 2.025 . S
Zn49 O57 2.024 . S
Zn49 O59 2.039 . S
Zn49 O61 2.034 . S
O50 C34 1.251 . S
O50 Zn41 2.039 . S
C51 O56 1.246 . S
C51 O57 1.249 . S
O52 C34 1.254 . S
O52 Zn49 2.025 . S
H53 C45 0.952 . S
H54 C36 0.952 . S
H55 C44 0.948 . S
O56 Zn41 2.034 . S
O56 C51 1.246 . S
O57 Zn49 2.024 . S
O57 C51 1.249 . S
H58 C40 0.948 . S
O59 Zn49 2.039 . S
O59 C63 1.251 . S
O60 Zn41 2.025 . S
O60 C63 1.254 . S
O61 C42 1.246 . S
O61 Zn49 2.034 . S
O62 Zn41 2.024 . S
O62 C42 1.249 . S
C63 O59 1.251 . S
C63 O60 1.254 . S
H64 C37 0.949 . S
H65 C39 0.950 . S
H66 C46 0.949 . S
H67 C48 0.950 . S
C68 C69 1.384 . S
C68 H81 0.947 . S
C68 C103 1.382 . S
C69 C68 1.384 . S
C69 C70 1.378 . S
C70 C69 1.378 . S
C70 C71 1.378 . S
C70 H82 0.952 . S
C71 C70 1.378 . S
C71 H83 0.950 . S
C71 C102 1.383 . S
H72 C91 0.947 . S
H73 C92 0.946 . S
H74 C94 0.953 . S
H75 C95 0.945 . S
H76 C97 0.952 . S
H77 C98 0.949 . S
H78 C100 0.950 . S
H79 C101 0.948 . S
H80 C103 0.951 . S
H81 C68 0.947 . S
H82 C70 0.952 . S
H83 C71 0.950 . S
N84 C87 1.382 1_545 S
N84 C89 1.363 1_455 S
N85 C87 1.371 . S
N85 C88 1.372 1_565 S
N86 C88 1.361 1_655 S
N86 C89 1.377 . S
C87 N84 1.382 1_565 S
C87 N85 1.371 . S
C87 C90 1.480 . S
C88 N85 1.372 1_545 S
C88 N86 1.361 1_455 S
C88 C96 1.457 . S
C89 N84 1.363 1_655 S
C89 N86 1.377 . S
C89 C102 1.479 . S
C90 C87 1.480 . S
C90 C91 1.383 . S
C90 C95 1.385 . S
C91 H72 0.947 . S
C91 C90 1.383 . S
C91 C92 1.388 . S
C92 H73 0.946 . S
C92 C91 1.388 . S
C92 C93 1.384 . S
C93 C92 1.384 . S
C93 C94 1.377 . S
C94 H74 0.953 . S
C94 C93 1.377 . S
C94 C95 1.369 . S
C95 H75 0.945 . S
C95 C90 1.385 . S
C95 C94 1.369 . S
C96 C88 1.457 . S
C96 C97 1.372 1_545 S
C96 C101 1.364 1_455 S
C97 H76 0.952 . S
C97 C96 1.372 1_565 S
C97 C98 1.389 . S
C98 H77 0.949 . S
C98 C97 1.389 . S
C98 C99 1.387 1_565 S
C99 C98 1.387 1_545 S
C99 C100 1.372 1_455 S
C100 H78 0.950 . S
C100 C99 1.372 1_655 S
C100 C101 1.379 . S
C101 H79 0.948 . S
C101 C96 1.364 1_655 S
C101 C100 1.379 . S
C102 C71 1.383 . S
C102 C89 1.479 . S
C102 C103 1.398 . S
C103 C68 1.382 . S
C103 H80 0.951 . S
C103 C102 1.398 . S
C104 C105 1.384 . S
C104 H117 0.947 . S
C104 C139 1.382 . S
C105 C104 1.384 . S
C105 C106 1.378 . S
C106 C105 1.378 . S
C106 C107 1.378 . S
C106 H118 0.952 . S
C107 C106 1.378 . S
C107 H119 0.950 . S
C107 C138 1.383 . S
H108 C127 0.947 . S
H109 C128 0.946 . S
H110 C130 0.953 . S
H111 C131 0.945 . S
H112 C133 0.952 . S
H113 C134 0.949 . S
H114 C136 0.950 . S
H115 C137 0.948 . S
H116 C139 0.951 . S
H117 C104 0.947 . S
H118 C106 0.952 . S
H119 C107 0.950 . S
N120 C123 1.382 1_565 S
N120 C125 1.363 1_455 S
N121 C123 1.371 . S
N121 C124 1.365 1_545 S
N122 C124 1.366 1_655 S
N122 C125 1.377 . S
C123 N120 1.382 1_545 S
C123 N121 1.371 . S
C123 C126 1.480 . S
C124 N121 1.365 1_565 S
C124 N122 1.366 1_455 S
C124 C132 1.457 . S
C125 N120 1.363 1_655 S
C125 N122 1.377 . S
C125 C138 1.479 . S
C126 C123 1.480 . S
C126 C127 1.383 . S
C126 C131 1.385 . S
C127 H108 0.947 . S
C127 C126 1.383 . S
C127 C128 1.388 . S
C128 H109 0.946 . S
C128 C127 1.388 . S
C128 C129 1.384 . S
C129 C128 1.384 . S
C129 C130 1.377 . S
C130 H110 0.953 . S
C130 C129 1.377 . S
C130 C131 1.369 . S
C131 H111 0.945 . S
C131 C126 1.385 . S
C131 C130 1.369 . S
C132 C124 1.457 . S
C132 C133 1.361 1_565 S
C132 C137 1.374 1_455 S
C133 H112 0.952 . S
C133 C132 1.361 1_545 S
C133 C134 1.389 . S
C134 H113 0.949 . S
C134 C133 1.389 . S
C134 C135 1.387 . S
C135 C134 1.387 . S
C135 C136 1.372 1_445 S
C136 H114 0.950 . S
C136 C135 1.372 1_665 S
C136 C137 1.379 . S
C137 H115 0.948 . S
C137 C132 1.374 1_655 S
C137 C136 1.379 . S
C138 C107 1.383 . S
C138 C125 1.479 . S
C138 C139 1.398 . S
C139 C104 1.382 . S
C139 H116 0.951 . S
C139 C138 1.398 . S
C140 C141 1.384 1_556 S
C140 H153 0.947 . S
C140 C175 1.382 . S
C141 C140 1.384 1_554 S
C141 C142 1.378 . S
C142 C141 1.378 . S
C142 C143 1.378 . S
C142 H154 0.952 . S
C143 C142 1.378 . S
C143 H155 0.950 . S
C143 C174 1.383 1_554 S
H144 C163 0.947 . S
H145 C164 0.946 . S
H146 C166 0.953 . S
H147 C167 0.945 . S
H148 C169 0.952 . S
H149 C170 0.949 . S
H150 C172 0.950 . S
H151 C173 0.948 . S
H152 C175 0.951 . S
H153 C140 0.947 . S
H154 C142 0.952 . S
H155 C143 0.950 . S
N156 C159 1.382 . S
N156 C161 1.363 . S
N157 C159 1.371 . S
N157 C160 1.372 . S
N158 C160 1.361 . S
N158 C161 1.377 . S
C159 N156 1.382 . S
C159 N157 1.371 . S
C159 C162 1.480 . S
C160 N157 1.372 . S
C160 N158 1.361 . S
C160 C168 1.457 . S
C161 N156 1.363 . S
C161 N158 1.377 . S
C161 C174 1.479 . S
C162 C159 1.480 . S
C162 C163 1.383 1_556 S
C162 C167 1.385 . S
C163 H144 0.947 . S
C163 C162 1.383 1_554 S
C163 C164 1.388 . S
C164 H145 0.946 . S
C164 C163 1.388 . S
C164 C165 1.384 . S
C165 C164 1.384 . S
C165 C166 1.377 1_554 S
C166 H146 0.953 . S
C166 C165 1.377 1_556 S
C166 C167 1.369 . S
C167 H147 0.945 . S
C167 C162 1.385 . S
C167 C166 1.369 . S
C168 C160 1.457 . S
C168 C169 1.372 . S
C168 C173 1.364 . S
C169 H148 0.952 . S
C169 C168 1.372 . S
C169 C170 1.389 . S
C170 H149 0.949 . S
C170 C169 1.389 . S
C170 C171 1.387 . S
C171 C170 1.387 . S
C171 C172 1.372 . S
C172 H150 0.950 . S
C172 C171 1.372 . S
C172 C173 1.379 . S
C173 H151 0.948 . S
C173 C168 1.364 . S
C173 C172 1.379 . S
C174 C143 1.383 1_556 S
C174 C161 1.479 . S
C174 C175 1.398 . S
C175 C140 1.382 . S
C175 H152 0.951 . S
C175 C174 1.398 . S
C176 C177 1.384 . S
C176 H189 0.947 . S
C176 C211 1.382 . S
C177 C176 1.384 . S
C177 C178 1.378 1_554 S
C178 C177 1.378 1_556 S
C178 C179 1.378 1_556 S
C178 H190 0.952 . S
C179 C178 1.378 1_554 S
C179 H191 0.932 1_554 S
C179 C210 1.383 . S
H180 C199 0.947 . S
H181 C200 0.985 . S
H182 C202 0.953 . S
H183 C203 0.945 . S
H184 C205 0.952 . S
H185 C206 0.949 . S
H186 C208 0.950 . S
H187 C209 0.948 . S
H188 C211 0.951 . S
H189 C176 0.947 . S
H190 C178 0.952 . S
H191 C179 0.932 1_556 S
N192 C195 1.382 . S
N192 C197 1.363 . S
N193 C195 1.371 . S
N193 C196 1.372 . S
N194 C196 1.361 . S
N194 C197 1.377 . S
C195 N192 1.382 . S
C195 N193 1.371 . S
C195 C198 1.480 . S
C196 N193 1.372 . S
C196 N194 1.361 . S
C196 C204 1.457 . S
C197 N192 1.363 . S
C197 N194 1.377 . S
C197 C210 1.479 . S
C198 C195 1.480 . S
C198 C199 1.383 . S
C198 C203 1.385 . S
C199 H180 0.947 . S
C199 C198 1.383 . S
C199 C200 1.369 1_554 S
C200 H181 0.985 . S
C200 C199 1.369 1_556 S
C200 C201 1.366 1_556 S
C201 C200 1.366 1_554 S
C201 C202 1.377 . S
C202 H182 0.953 . S
C202 C201 1.377 . S
C202 C203 1.369 . S
C203 H183 0.945 . S
C203 C198 1.385 . S
C203 C202 1.369 . S
C204 C196 1.457 . S
C204 C205 1.372 . S
C204 C209 1.364 . S
C205 H184 0.952 . S
C205 C204 1.372 . S
C205 C206 1.389 . S
C206 H185 0.949 . S
C206 C205 1.389 . S
C206 C207 1.387 . S
C207 C206 1.387 . S
C207 C208 1.372 . S
C208 H186 0.950 . S
C208 C207 1.372 . S
C208 C209 1.379 . S
C209 H187 0.948 . S
C209 C204 1.364 . S
C209 C208 1.379 . S
C210 C179 1.383 . S
C210 C197 1.479 . S
C210 C211 1.398 . S
C211 C176 1.382 . S
C211 H188 0.951 . S
C211 C210 1.398 . S
H212 C218 0.930 . S
H213 C221 0.930 . S
H214 C222 0.930 . S
H215 C223 0.935 . S
H216 C226 0.930 . S
H217 C227 0.930 . S
C218 H212 0.930 . S
C218 C219 1.355 . S
C218 C220 1.415 . S
C219 C218 1.355 . S
C219 C221 1.419 1_554 S
C220 C218 1.415 . S
C220 C225 1.432 . S
C220 C227 1.409 . S
C221 H213 0.930 . S
C221 C219 1.419 1_556 S
C221 C222 1.362 . S
C222 H214 0.930 . S
C222 C221 1.362 . S
C222 C225 1.405 1_556 S
C223 H215 0.935 . S
C223 C224 1.352 1_556 S
C223 C225 1.411 1_556 S
C224 C223 1.352 1_554 S
C224 C226 1.419 . S
C225 C220 1.432 . S
C225 C222 1.405 1_554 S
C225 C223 1.411 1_554 S
C226 H216 0.930 . S
C226 C224 1.419 . S
C226 C227 1.362 . S
C227 H217 0.930 . S
C227 C220 1.409 . S
C227 C226 1.362 . S
H228 C234 0.930 . S
H229 C237 0.930 . S
H230 C238 0.930 . S
H231 C239 0.930 . S
H232 C242 0.930 . S
H233 C243 0.930 . S
C234 H228 0.930 . S
C234 C235 1.355 1_556 S
C234 C236 1.415 . S
C235 C234 1.355 1_554 S
C235 C237 1.419 . S
C236 C234 1.415 . S
C236 C241 1.425 1_556 S
C236 C243 1.409 . S
C237 H229 0.930 . S
C237 C235 1.419 . S
C237 C238 1.362 . S
C238 H230 0.930 . S
C238 C237 1.362 . S
C238 C241 1.409 . S
C239 H231 0.930 . S
C239 C240 1.355 . S
C239 C241 1.415 . S
C240 C239 1.355 . S
C240 C242 1.419 1_554 S
C241 C236 1.425 1_554 S
C241 C238 1.409 . S
C241 C239 1.415 . S
C242 H232 0.930 . S
C242 C240 1.419 1_556 S
C242 C243 1.362 . S
C243 H233 0.930 . S
C243 C236 1.409 . S
C243 C242 1.362 . S
H244 C250 0.930 . S
H245 C253 0.930 . S
H246 C254 0.930 . S
H247 C255 0.930 1_556 S
H248 C258 0.930 . S
H249 C259 0.930 . S
C250 H244 0.930 . S
C250 C251 1.355 . S
C250 C252 1.415 . S
C251 C250 1.355 . S
C251 C253 1.419 1_554 S
C252 C250 1.415 . S
C252 C257 1.425 . S
C252 C259 1.409 . S
C253 H245 0.930 . S
C253 C251 1.419 1_556 S
C253 C254 1.362 . S
C254 H246 0.930 . S
C254 C253 1.362 . S
C254 C257 1.409 1_556 S
C255 H247 0.930 1_554 S
C255 C256 1.355 . S
C255 C257 1.415 . S
C256 C255 1.355 . S
C256 C258 1.419 . S
C257 C252 1.425 . S
C257 C254 1.409 1_554 S
C257 C255 1.415 . S
C258 H248 0.930 . S
C258 C256 1.419 . S
C258 C259 1.362 . S
C259 H249 0.930 . S
C259 C252 1.409 . S
C259 C258 1.362 . S
H260 C266 0.930 . S
H261 C269 0.930 . S
H262 C270 0.930 . S
H263 C271 0.930 . S
H264 C274 0.930 . S
H265 C275 0.930 . S
C266 H260 0.930 . S
C266 C267 1.355 1_556 S
C266 C268 1.415 . S
C267 C266 1.355 1_554 S
C267 C269 1.419 . S
C268 C266 1.415 . S
C268 C273 1.425 1_556 S
C268 C275 1.409 . S
C269 H261 0.930 . S
C269 C267 1.419 . S
C269 C270 1.362 . S
C270 H262 0.930 . S
C270 C269 1.362 . S
C270 C273 1.409 . S
C271 H263 0.930 . S
C271 C272 1.355 . S
C271 C273 1.415 . S
C272 C271 1.355 . S
C272 C274 1.419 1_554 S
C273 C268 1.425 1_554 S
C273 C270 1.409 . S
C273 C271 1.415 . S
C274 H264 0.930 . S
C274 C272 1.419 1_556 S
C274 C275 1.362 . S
C275 H265 0.930 . S
C275 C268 1.409 . S
C275 C274 1.362 . S
H276 C282 0.930 . S
H277 C285 0.930 . S
H278 C286 0.930 . S
H279 C287 0.930 . S
H280 C290 0.930 . S
H281 C291 0.930 . S
C282 H276 0.930 . S
C282 C283 1.355 . S
C282 C284 1.415 . S
C283 C282 1.355 . S
C283 C285 1.419 . S
C284 C282 1.415 . S
C284 C289 1.425 . S
C284 C291 1.409 . S
C285 H277 0.930 . S
C285 C283 1.419 . S
C285 C286 1.362 . S
C286 H278 0.930 . S
C286 C285 1.362 . S
C286 C289 1.409 . S
C287 H279 0.930 . S
C287 C288 1.355 . S
C287 C289 1.415 . S
C288 C287 1.355 . S
C288 C290 1.419 . S
C289 C284 1.425 . S
C289 C286 1.409 . S
C289 C287 1.415 . S
C290 H280 0.930 . S
C290 C288 1.419 . S
C290 C291 1.362 . S
C291 H281 0.930 . S
C291 C284 1.409 . S
C291 C290 1.362 . S
H292 C298 0.930 . S
H293 C301 0.930 . S
H294 C302 0.930 . S
H295 C303 0.930 . S
H296 C306 0.930 . S
H297 C307 0.930 . S
C298 H292 0.930 . S
C298 C299 1.355 . S
C298 C300 1.415 . S
C299 C298 1.355 . S
C299 C301 1.419 . S
C300 C298 1.415 . S
C300 C305 1.425 . S
C300 C307 1.409 . S
C301 H293 0.930 . S
C301 C299 1.419 . S
C301 C302 1.362 . S
C302 H294 0.930 . S
C302 C301 1.362 . S
C302 C305 1.409 . S
C303 H295 0.930 . S
C303 C304 1.355 . S
C303 C305 1.415 . S
C304 C303 1.355 . S
C304 C306 1.419 . S
C305 C300 1.425 . S
C305 C302 1.409 . S
C305 C303 1.415 . S
C306 H296 0.930 . S
C306 C304 1.419 . S
C306 C307 1.362 . S
C307 H297 0.930 . S
C307 C300 1.409 . S
C307 C306 1.362 . S
H308 C314 0.930 . S
H309 C317 0.930 . S
H310 C318 0.930 . S
H311 C319 0.930 . S
H312 C322 0.930 . S
H313 C323 0.930 . S
C314 H308 0.930 . S
C314 C315 1.355 . S
C314 C316 1.415 . S
C315 C314 1.355 . S
C315 C317 1.419 . S
C316 C314 1.415 . S
C316 C321 1.425 . S
C316 C323 1.409 . S
C317 H309 0.930 . S
C317 C315 1.419 . S
C317 C318 1.362 . S
C318 H310 0.930 . S
C318 C317 1.362 . S
C318 C321 1.409 . S
C319 H311 0.930 . S
C319 C320 1.355 . S
C319 C321 1.415 . S
C320 C319 1.355 . S
C320 C322 1.419 . S
C321 C316 1.425 . S
C321 C318 1.409 . S
C321 C319 1.415 . S
C322 H312 0.930 . S
C322 C320 1.419 . S
C322 C323 1.362 . S
C323 H313 0.930 . S
C323 C316 1.409 . S
C323 C322 1.362 . S
H324 C330 0.930 . S
H325 C333 0.930 . S
H326 C334 0.930 . S
H327 C335 0.930 . S
H328 C338 0.930 . S
H329 C339 0.930 . S
C330 H324 0.930 . S
C330 C331 1.355 . S
C330 C332 1.415 . S
C331 C330 1.355 . S
C331 C333 1.419 . S
C332 C330 1.415 . S
C332 C337 1.425 . S
C332 C339 1.409 . S
C333 H325 0.930 . S
C333 C331 1.419 . S
C333 C334 1.362 . S
C334 H326 0.930 . S
C334 C333 1.362 . S
C334 C337 1.409 . S
C335 H327 0.930 . S
C335 C336 1.355 . S
C335 C337 1.415 . S
C336 C335 1.355 . S
C336 C338 1.419 . S
C337 C332 1.425 . S
C337 C334 1.409 . S
C337 C335 1.415 . S
C338 H328 0.930 . S
C338 C336 1.419 . S
C338 C339 1.362 . S
C339 H329 0.930 . S
C339 C332 1.409 . S
C339 C338 1.362 . S
H340 C346 0.930 . S
H341 C349 0.930 . S
H342 C350 0.930 . S
H343 C351 0.930 . S
H344 C354 0.930 . S
H345 C355 0.930 . S
C346 H340 0.930 . S
C346 C347 1.347 1_545 S
C346 C348 1.415 . S
C347 C346 1.347 1_565 S
C347 C349 1.429 1_455 S
C348 C346 1.415 . S
C348 C353 1.425 1_445 S
C348 C355 1.409 . S
C349 H341 0.930 . S
C349 C347 1.429 1_655 S
C349 C350 1.362 . S
C350 H342 0.930 . S
C350 C349 1.362 . S
C350 C353 1.409 . S
C351 H343 0.930 . S
C351 C352 1.348 1_665 S
C351 C353 1.415 . S
C352 C351 1.348 1_445 S
C352 C354 1.429 . S
C353 C348 1.425 1_665 S
C353 C350 1.409 . S
C353 C351 1.415 . S
C354 H344 0.930 . S
C354 C352 1.429 . S
C354 C355 1.362 . S
C355 H345 0.930 . S
C355 C348 1.409 . S
C355 C354 1.362 . S
H356 C362 0.930 . S
H357 C365 0.930 . S
H358 C366 0.930 . S
H359 C367 0.928 1_565 S
H360 C370 0.930 . S
H361 C371 0.930 . S
C362 H356 0.930 . S
C362 C363 1.355 . S
C362 C364 1.415 . S
C363 C362 1.355 . S
C363 C365 1.419 1_455 S
C364 C362 1.415 . S
C364 C369 1.425 1_455 S
C364 C371 1.409 . S
C365 H357 0.930 . S
C365 C363 1.419 1_655 S
C365 C366 1.362 . S
C366 H358 0.930 . S
C366 C365 1.362 . S
C366 C369 1.409 . S
C367 H359 0.928 1_545 S
C367 C368 1.355 1_655 S
C367 C369 1.415 . S
C368 C367 1.355 1_455 S
C368 C370 1.419 . S
C369 C364 1.425 1_655 S
C369 C366 1.409 . S
C369 C367 1.415 . S
C370 H360 0.930 . S
C370 C368 1.419 . S
C370 C371 1.362 . S
C371 H361 0.930 . S
C371 C364 1.409 . S
C371 C370 1.362 . S
H372 C378 0.930 . S
H373 C381 0.930 . S
H374 C382 0.930 . S
H375 C383 0.930 . S
H376 C386 0.930 . S
H377 C387 0.930 . S
C378 H372 0.930 . S
C378 C379 1.355 . S
C378 C380 1.415 . S
C379 C378 1.355 . S
C379 C381 1.419 . S
C380 C378 1.415 . S
C380 C385 1.425 . S
C380 C387 1.409 . S
C381 H373 0.930 . S
C381 C379 1.419 . S
C381 C382 1.362 . S
C382 H374 0.930 . S
C382 C381 1.362 . S
C382 C385 1.409 . S
C383 H375 0.930 . S
C383 C384 1.355 . S
C383 C385 1.415 . S
C384 C383 1.355 . S
C384 C386 1.419 . S
C385 C380 1.425 . S
C385 C382 1.409 . S
C385 C383 1.415 . S
C386 H376 0.930 . S
C386 C384 1.419 . S
C386 C387 1.362 . S
C387 H377 0.930 . S
C387 C380 1.409 . S
C387 C386 1.362 . S
H388 C394 0.930 . S
H389 C397 0.930 . S
H390 C398 0.930 . S
H391 C399 0.930 . S
H392 C402 0.930 . S
H393 C403 0.930 . S
C394 H388 0.930 . S
C394 C395 1.355 . S
C394 C396 1.415 . S
C395 C394 1.355 . S
C395 C397 1.419 . S
C396 C394 1.415 . S
C396 C401 1.425 . S
C396 C403 1.409 . S
C397 H389 0.930 . S
C397 C395 1.419 . S
C397 C398 1.362 . S
C398 H390 0.930 . S
C398 C397 1.362 . S
C398 C401 1.409 . S
C399 H391 0.930 . S
C399 C400 1.355 . S
C399 C401 1.415 . S
C400 C399 1.355 . S
C400 C402 1.419 . S
C401 C396 1.425 . S
C401 C398 1.409 . S
C401 C399 1.415 . S
C402 H392 0.930 . S
C402 C400 1.419 . S
C402 C403 1.362 . S
C403 H393 0.930 . S
C403 C396 1.409 . S
C403 C402 1.362 . S
C224 C177 1.482 . S
C219 C29 1.541 . S
C235 C8 1.520 . S
C240 C141 1.447 . S
C251 C0 1.509 . S
C256 C201 1.414 . S
C267 C17 1.531 . S
C272 C165 1.412 . S
C283 C63 1.545 . S
C288 C105 1.472 . S
C299 C42 1.527 . S
C304 C69 1.501 . S
C320 C129 1.441 . S
C315 C34 1.511 . S
C336 C93 1.450 . S
C331 C51 1.542 . S
C347 C4 1.486 1_565 S
C352 C99 1.467 . S
C363 C13 1.478 . S
C368 C135 1.474 . S
C384 C171 1.486 . S
C379 C38 1.477 . S
C395 C47 1.484 . S
C400 C207 1.483 . S
