# Generated by pormake.
# Topology rtl, (3,6)-cn, num edge types: 1
# Building blocks:
#     Node 0, Type 0, BuildingBlock: BETDAH_clean_linker_0, # of connection points: 3
#     Node 1, Type 0, BuildingBlock: BETDAH_clean_linker_0, # of connection points: 3
#     Node 2, Type 0, BuildingBlock: BETDAH_clean_linker_0, # of connection points: 3
#     Node 3, Type 0, BuildingBlock: BETDAH_clean_linker_0, # of connection points: 3
#     Node 4, Type 1, BuildingBlock: VOLQOD_clean_sbu_1, # of connection points: 6
#     Node 5, Type 1, BuildingBlock: VOLQOD_clean_sbu_1, # of connection points: 6
#     Edge 6, Type (0, 1), BuildingBlock: ZUJKAS_clean_linker_0, # of connection points: 2
#     Edge 7, Type (0, 1), BuildingBlock: ZUJKAS_clean_linker_0, # of connection points: 2
#     Edge 8, Type (0, 1), BuildingBlock: ZUJKAS_clean_linker_0, # of connection points: 2
#     Edge 9, Type (0, 1), BuildingBlock: ZUJKAS_clean_linker_0, # of connection points: 2
#     Edge 10, Type (0, 1), BuildingBlock: ZUJKAS_clean_linker_0, # of connection points: 2
#     Edge 11, Type (0, 1), BuildingBlock: ZUJKAS_clean_linker_0, # of connection points: 2
#     Edge 12, Type (0, 1), BuildingBlock: ZUJKAS_clean_linker_0, # of connection points: 2
#     Edge 13, Type (0, 1), BuildingBlock: ZUJKAS_clean_linker_0, # of connection points: 2
#     Edge 14, Type (0, 1), BuildingBlock: ZUJKAS_clean_linker_0, # of connection points: 2
#     Edge 15, Type (0, 1), BuildingBlock: ZUJKAS_clean_linker_0, # of connection points: 2
#     Edge 16, Type (0, 1), BuildingBlock: ZUJKAS_clean_linker_0, # of connection points: 2
#     Edge 17, Type (0, 1), BuildingBlock: ZUJKAS_clean_linker_0, # of connection points: 2
# Relax obj value: 0.041
# Max RMSD: 0.143
# Mean RMSD: 0.096
data_MOF--net-rtl--node1-VOLQOD_clean_sbu_1--node2-BETDAH_clean_linker_0--edge1-ZUJKAS_clean_linker_0
_symmetry_space_group_name_H-M    P1
_symmetry_Int_Tables_number       1
_symmetry_cell_setting            triclinic
loop_
_symmetry_equiv_pos_as_xyz
'x, y, z'
_cell_length_a     48.448393
_cell_length_b     48.529277
_cell_length_c     28.270873
_cell_angle_alpha  91.134781
_cell_angle_beta   91.598848
_cell_angle_gamma 90.051774
loop_
_atom_site_label
_atom_site_type_symbol
_atom_site_fract_x
_atom_site_fract_y
_atom_site_fract_z
_atom_type_partial_charge
H0 H 0.15769 0.83808 0.00605 0.0
H1 H 0.17405 0.7709 0.09943 0.0
H2 H 0.19259 0.76261 0.95207 0.0
C3 C 0.16566 0.81753 0.01198 0.0
C4 C 0.17527 0.80179 0.97358 0.0
C5 C 0.16513 0.80672 0.05754 0.0
C6 C 0.17486 0.77989 0.0647 0.0
C7 C 0.18532 0.76416 0.02727 0.0
C8 C 0.18543 0.77506 0.98148 0.0
N9 N 0.19407 0.73692 0.03672 0.0
C10 C 0.21425 0.72295 0.01198 0.0
H11 H 0.63074 0.68075 0.49074 0.0
H12 H 0.66846 0.75353 0.43662 0.0
H13 H 0.65882 0.74553 0.58642 0.0
C14 C 0.64047 0.70068 0.49699 0.0
C15 C 0.64425 0.71092 0.54342 0.0
C16 C 0.64897 0.71589 0.4583 0.0
C17 C 0.66232 0.74134 0.46628 0.0
C18 C 0.6658 0.75195 0.51268 0.0
C19 C 0.65665 0.73681 0.55091 0.0
N20 N 0.67559 0.77907 0.52132 0.0
C21 C 0.7019 0.78745 0.50983 0.0
H22 H 0.85988 0.16845 0.01449 0.0
H23 H 0.85067 0.24269 0.09827 0.0
H24 H 0.83009 0.24252 0.94946 0.0
C25 C 0.85379 0.18989 0.01753 0.0
C26 C 0.8448 0.20375 0.97683 0.0
C27 C 0.85609 0.20364 0.06159 0.0
C28 C 0.84854 0.23151 0.0648 0.0
C29 C 0.83844 0.24531 0.02491 0.0
C30 C 0.83677 0.23151 0.98072 0.0
N31 N 0.83174 0.27358 0.0297 0.0
C32 C 0.80725 0.28455 0.0118 0.0
H33 H 0.35059 0.34488 0.51077 0.0
H34 H 0.28242 0.29707 0.55941 0.0
H35 H 0.28361 0.32268 0.41481 0.0
C36 C 0.3311 0.33442 0.50381 0.0
C37 C 0.31906 0.33504 0.45816 0.0
C38 C 0.31809 0.32095 0.54076 0.0
C39 C 0.29274 0.30745 0.53128 0.0
C40 C 0.28046 0.30799 0.48557 0.0
C41 C 0.29353 0.32199 0.44961 0.0
N42 N 0.25454 0.2955 0.47465 0.0
C43 C 0.24394 0.27321 0.49831 0.0
O44 O 0.9412 0.97428 0.51683 0.0
Zn45 Zn 0.965 0.00815 0.52477 0.0
O46 O 0.00421 0.99895 0.52923 0.0
Zn47 Zn 0.02008 0.01224 0.59027 0.0
Zn48 Zn 0.00798 0.95893 0.52376 0.0
Zn49 Zn 0.02349 0.01621 0.47748 0.0
O50 O 0.05 0.04057 0.58065 0.0
O51 O 0.0534 0.04176 0.50258 0.0
O52 O 0.95325 0.02856 0.58315 0.0
O53 O 0.99086 0.03088 0.62979 0.0
O54 O 0.03766 0.98074 0.62647 0.0
O55 O 0.02867 0.94414 0.58011 0.0
O56 O 0.02957 0.9482 0.4668 0.0
O57 O 0.95664 0.03256 0.46962 0.0
O58 O 0.04075 0.98783 0.43446 0.0
O59 O 0.99739 0.03889 0.43757 0.0
C60 C 0.94636 0.94857 0.51449 0.0
C61 C 0.06124 0.04981 0.54395 0.0
C62 C 0.03944 0.95491 0.6177 0.0
C63 C 0.96538 0.03611 0.62178 0.0
C64 C 0.04135 0.9616 0.43478 0.0
C65 C 0.9715 0.04331 0.43845 0.0
O66 O 0.97106 0.93968 0.51716 0.0
O67 O 0.56944 0.47571 -0.00296 0.0
Zn68 Zn 0.5454 0.50947 0.99626 0.0
O69 O 0.50634 0.49949 -0.00239 0.0
Zn70 Zn 0.48804 0.51021 0.93821 0.0
Zn71 Zn 0.50286 0.45955 0.00509 0.0
Zn72 Zn 0.48923 0.51891 0.05057 0.0
O73 O 0.45725 0.53714 0.94998 0.0
O74 O 0.45839 0.54372 0.02789 0.0
O75 O 0.55373 0.53027 0.93756 0.0
O76 O 0.51431 0.52926 0.89573 0.0
O77 O 0.47137 0.47732 0.90358 0.0
O78 O 0.47915 0.44262 0.95224 0.0
O79 O 0.48428 0.45084 0.06598 0.0
O80 O 0.55653 0.53435 0.05137 0.0
O81 O 0.47289 0.49195 0.09531 0.0
O82 O 0.51713 0.5424 0.08738 0.0
C83 C 0.56472 0.44999 0.00015 0.0
C84 C 0.44798 0.54872 0.98708 0.0
C85 C 0.46871 0.45206 0.91402 0.0
C86 C 0.53956 0.53631 0.90063 0.0
C87 C 0.47284 0.46575 0.09742 0.0
C88 C 0.54302 0.54624 0.08393 0.0
O89 O 0.54021 0.44084 0.00392 0.0
H90 H 0.21889 0.26711 0.58201 0.0
H91 H 0.19222 0.22665 0.60578 0.0
H92 H 0.21185 0.18514 0.47452 0.0
H93 H 0.23879 0.22511 0.45157 0.0
H94 H 0.14684 0.20639 0.56053 0.0
H95 H 0.22562 0.12433 0.56657 0.0
H96 H 0.23465 0.16043 0.56588 0.0
H97 H 0.22617 0.14194 0.51148 0.0
C98 C 0.21793 0.24899 0.55901 0.0
C99 C 0.23094 0.2488 0.51536 0.0
C100 C 0.20272 0.226 0.57244 0.0
C101 C 0.20046 0.20262 0.54234 0.0
C102 C 0.21395 0.20251 0.499 0.0
H103 H 0.09457 0.06887 0.47534 0.0
H104 H 0.12928 0.10536 0.48273 0.0
C105 C 0.22918 0.22538 0.48574 0.0
C106 C 0.18187 0.17945 0.55349 0.0
H107 H 0.17823 0.10914 0.55366 0.0
C108 C 0.15381 0.18515 0.56015 0.0
C109 C 0.19097 0.15173 0.55308 0.0
C110 C 0.22107 0.14428 0.54938 0.0
C111 C 0.13439 0.16384 0.56346 0.0
C112 C 0.14331 0.13618 0.5602 0.0
C113 C 0.17148 0.13043 0.55578 0.0
C114 C 0.12337 0.11309 0.55733 0.0
C115 C 0.10424 0.17093 0.56793 0.0
C116 C 0.10889 0.10516 0.59711 0.0
C117 C 0.08905 0.08418 0.59312 0.0
C118 C 0.08331 0.07094 0.54916 0.0
C119 C 0.09833 0.07869 0.50966 0.0
C120 C 0.11824 0.09948 0.51379 0.0
H121 H 0.1004 0.19343 0.56557 0.0
H122 H 0.09177 0.16008 0.53973 0.0
H123 H 0.09695 0.16387 0.60254 0.0
H124 H 0.11272 0.11539 0.63106 0.0
H125 H 0.07788 0.07872 0.62424 0.0
H126 H 0.25911 0.74025 0.96599 0.0
H127 H 0.29979 0.71223 0.94684 0.0
H128 H 0.26016 0.6407 0.00305 0.0
H129 H 0.21953 0.66851 0.02102 0.0
H130 H 0.33253 0.68701 0.0102 0.0
H131 H 0.29086 0.60843 0.88349 0.0
H132 H 0.27225 0.63957 0.89788 0.0
H133 H 0.2708 0.61022 0.93579 0.0
C134 C 0.25897 0.71836 0.97289 0.0
C135 C 0.23635 0.70624 0.99427 0.0
C136 C 0.28214 0.70243 0.96219 0.0
C137 C 0.28287 0.67424 0.9728 0.0
C138 C 0.25982 0.66216 0.99325 0.0
H139 H 0.41893 0.5731 0.05824 0.0
H140 H 0.38022 0.60502 0.05071 0.0
C141 C 0.23669 0.67804 0.00372 0.0
C142 C 0.30858 0.65801 0.96736 0.0
H143 H 0.33292 0.59633 0.92614 0.0
C144 C 0.33273 0.66739 0.99115 0.0
C145 C 0.30901 0.63259 0.94199 0.0
C146 C 0.28439 0.62227 0.91293 0.0
C147 C 0.35687 0.65142 0.99222 0.0
C148 C 0.35664 0.62508 0.96984 0.0
C149 C 0.33295 0.61632 0.94399 0.0
C150 C 0.38039 0.60593 0.97419 0.0
C151 C 0.38232 0.66292 0.01752 0.0
C152 C 0.39283 0.59513 0.93362 0.0
C153 C 0.41479 0.57657 0.93776 0.0
C154 C 0.42469 0.56839 0.98262 0.0
C155 C 0.41202 0.57912 0.02317 0.0
C156 C 0.38999 0.59755 0.01895 0.0
H157 H 0.38198 0.68582 0.01899 0.0
H158 H 0.38307 0.65559 0.05446 0.0
H159 H 0.40143 0.6561 -5e-05 0.0
H160 H 0.38562 0.60117 0.89871 0.0
H161 H 0.42403 0.56871 0.90578 0.0
H162 H 0.73418 0.78469 0.43287 0.0
H163 H 0.78004 0.80612 0.42581 0.0
H164 H 0.77551 0.83775 0.56917 0.0
H165 H 0.73024 0.81607 0.57629 0.0
H166 H 0.79336 0.86077 0.43332 0.0
H167 H 0.85171 0.80363 0.57032 0.0
H168 H 0.8185 0.79218 0.54686 0.0
H169 H 0.82068 0.81813 0.59327 0.0
C170 C 0.74332 0.79597 0.46284 0.0
C171 C 0.72913 0.79875 0.50519 0.0
C172 C 0.76937 0.80817 0.45886 0.0
C173 C 0.78143 0.82307 0.49731 0.0
C174 C 0.767 0.82573 0.53953 0.0
H175 H 0.89104 0.95966 0.51505 0.0
H176 H 0.85283 0.92715 0.50538 0.0
C177 C 0.74111 0.81355 0.54348 0.0
C178 C 0.80822 0.83747 0.49289 0.0
H179 H 0.87053 0.8478 0.5498 0.0
C180 C 0.81044 0.85762 0.45826 0.0
C181 C 0.8307 0.83303 0.52484 0.0
C182 C 0.83041 0.81034 0.56056 0.0
C183 C 0.83388 0.87456 0.45658 0.0
C184 C 0.85536 0.87163 0.49108 0.0
C185 C 0.85386 0.85036 0.52385 0.0
C186 C 0.87878 0.89132 0.49552 0.0
C187 C 0.83525 0.8956 0.41813 0.0
C188 C 0.90615 0.8819 0.4947 0.0
C189 C 0.92815 0.90045 0.50087 0.0
C190 C 0.92316 0.92877 0.50814 0.0
C191 C 0.89568 0.93805 0.50918 0.0
C192 C 0.87376 0.9195 0.50323 0.0
H193 H 0.82253 0.88918 0.38649 0.0
H194 H 0.82696 0.91551 0.43148 0.0
H195 H 0.85681 0.89894 0.40721 0.0
H196 H 0.91049 0.86019 0.48924 0.0
H197 H 0.94904 0.89257 0.49987 0.0
H198 H 0.80005 0.33775 0.99053 0.0
H199 H 0.7558 0.362 0.98182 0.0
H200 H 0.71232 0.28535 -0.00093 0.0
H201 H 0.75671 0.26118 0.00845 0.0
H202 H 0.70993 0.35476 0.91897 0.0
H203 H 0.68308 0.33522 0.10546 0.0
H204 H 0.71733 0.32958 0.08376 0.0
H205 H 0.6903 0.30512 0.06993 0.0
C206 C 0.78098 0.32612 0.99164 0.0
C207 C 0.78146 0.29777 -4e-05 0.0
C208 C 0.75579 0.33991 0.98678 0.0
C209 C 0.7308 0.32553 0.99055 0.0
C210 C 0.73137 0.29689 0.99686 0.0
H211 H 0.56356 0.3936 0.00698 0.0
H212 H 0.60253 0.36165 0.00161 0.0
C213 C 0.75661 0.28309 0.00179 0.0
C214 C 0.70437 0.3409 0.98995 0.0
H215 H 0.65094 0.36027 0.05954 0.0
C216 C 0.69693 0.35584 0.94958 0.0
C217 C 0.68745 0.34224 0.02996 0.0
C218 C 0.69495 0.32739 0.07493 0.0
C219 C 0.67314 0.37233 0.94829 0.0
C220 C 0.65665 0.37426 0.98874 0.0
C221 C 0.66364 0.35872 0.02862 0.0
C222 C 0.63296 0.39347 0.99136 0.0
C223 C 0.66586 0.38758 0.90366 0.0
C224 C 0.63727 0.42194 0.98825 0.0
C225 C 0.61515 0.44024 0.99145 0.0
C226 C 0.5882 0.43044 -0.00195 0.0
C227 C 0.584 0.40187 0.00177 0.0
C228 C 0.60622 0.38356 -0.00133 0.0
H229 H 0.67562 0.37798 0.87229 0.0
H230 H 0.64316 0.38817 0.89719 0.0
H231 H 0.67347 0.40911 0.90737 0.0
H232 H 0.65784 0.43006 0.9837 0.0
H233 H 0.61923 0.46208 0.98863 0.0
H234 H 0.11871 0.83871 0.05519 0.0
H235 H 0.09968 0.86631 0.11953 0.0
H236 H 0.16458 0.83819 0.21426 0.0
H237 H 0.18455 0.81142 0.14939 0.0
H238 H 0.08002 0.84904 0.2027 0.0
H239 H 0.16762 0.92127 0.23568 0.0
H240 H 0.16475 0.89935 0.18344 0.0
H241 H 0.17713 0.88559 0.23868 0.0
C242 C 0.12927 0.83877 0.08947 0.0
C243 C 0.15335 0.8231 0.09703 0.0
C244 C 0.11822 0.85439 0.12629 0.0
C245 C 0.13097 0.85465 0.17144 0.0
C246 C 0.15477 0.83875 0.17941 0.0
H247 H 0.0516 0.90627 0.42937 0.0
H248 H 0.07388 0.88066 0.3659 0.0
C249 C 0.16594 0.82319 0.14247 0.0
C250 C 0.11866 0.87086 0.2104 0.0
H251 H 0.13175 0.92266 0.29142 0.0
C252 C 0.0913 0.86518 0.22204 0.0
C253 C 0.13331 0.89216 0.23507 0.0
C254 C 0.16224 0.90019 0.22237 0.0
C255 C 0.07825 0.88002 0.25809 0.0
C256 C 0.09321 0.90066 0.28388 0.0
C257 C 0.12045 0.90661 0.27186 0.0
C258 C 0.0808 0.91641 0.32325 0.0
C259 C 0.04839 0.8738 0.26756 0.0
C260 C 0.0782 0.94515 0.32105 0.0
C261 C 0.06569 0.95996 0.35754 0.0
C262 C 0.05559 0.94623 0.39688 0.0
C263 C 0.05885 0.91748 0.39938 0.0
C264 C 0.07148 0.90276 0.36303 0.0
H265 H 0.03795 0.86318 0.2368 0.0
H266 H 0.04735 0.86002 0.29832 0.0
H267 H 0.03684 0.89295 0.27596 0.0
H268 H 0.08543 0.95607 0.2907 0.0
H269 H 0.06359 0.98208 0.35455 0.0
H270 H 0.67135 0.70118 0.62768 0.0
H271 H 0.65567 0.67256 0.69236 0.0
H272 H 0.57972 0.65542 0.61409 0.0
H273 H 0.59495 0.68431 0.54991 0.0
H274 H 0.57374 0.6705 0.71227 0.0
H275 H 0.65056 0.58685 0.6847 0.0
H276 H 0.664 0.62132 0.69119 0.0
H277 H 0.6427 0.61215 0.64033 0.0
C278 C 0.65122 0.69149 0.62454 0.0
C279 C 0.63447 0.69476 0.58362 0.0
C280 C 0.64242 0.67499 0.66123 0.0
C281 C 0.61675 0.6616 0.65752 0.0
C282 C 0.5997 0.66543 0.61734 0.0
H283 H 0.51618 0.5526 0.81651 0.0
H284 H 0.53597 0.58317 0.75881 0.0
C285 C 0.60849 0.6818 0.58066 0.0
C286 C 0.60743 0.6435 0.69536 0.0
H287 H 0.61991 0.58167 0.74725 0.0
C288 C 0.58385 0.65111 0.72009 0.0
C289 C 0.6208 0.61832 0.70542 0.0
C290 C 0.64582 0.60894 0.6789 0.0
C291 C 0.57315 0.6341 0.75467 0.0
C292 C 0.58607 0.60856 0.76389 0.0
C293 C 0.61001 0.60122 0.73986 0.0
C294 C 0.5747 0.58899 0.79775 0.0
C295 C 0.54825 0.64374 0.78129 0.0
C296 C 0.59037 0.58128 0.83776 0.0
C297 C 0.57922 0.5636 0.87067 0.0
C298 C 0.55221 0.55325 0.86399 0.0
C299 C 0.53694 0.56034 0.82298 0.0
C300 C 0.54814 0.57796 0.7901 0.0
H301 H 0.54564 0.66645 0.77963 0.0
H302 H 0.52943 0.63396 0.76519 0.0
H303 H 0.54986 0.63783 0.81902 0.0
H304 H 0.61101 0.58941 0.84403 0.0
H305 H 0.5916 0.55851 0.90178 0.0
H306 H 0.89955 0.16779 0.06562 0.0
H307 H 0.9165 0.14188 0.13364 0.0
H308 H 0.85584 0.18095 0.22111 0.0
H309 H 0.83808 0.20653 0.15274 0.0
H310 H 0.91531 0.17857 0.25822 0.0
H311 H 0.87019 0.07826 0.19658 0.0
H312 H 0.88869 0.09714 0.15339 0.0
H313 H 0.85727 0.11098 0.17613 0.0
C314 C 0.88955 0.17069 0.09914 0.0
C315 C 0.86721 0.18898 0.10361 0.0
C316 C 0.89938 0.15597 0.13797 0.0
C317 C 0.88718 0.15935 0.18203 0.0
C318 C 0.86541 0.17808 0.18718 0.0
H319 H 0.91635 0.05283 0.42274 0.0
H320 H 0.89487 0.08235 0.36306 0.0
C321 C 0.85541 0.19274 0.14821 0.0
C322 C 0.89724 0.14307 0.22251 0.0
H323 H 0.90191 0.07722 0.26195 0.0
C324 C 0.91224 0.15645 0.25936 0.0
C325 C 0.89293 0.1143 0.2238 0.0
C326 C 0.87622 0.09923 0.1856 0.0
C327 C 0.92386 0.14154 0.297 0.0
C328 C 0.9204 0.11262 0.29738 0.0
C329 C 0.90464 0.09939 0.26128 0.0
C330 C 0.93351 0.09555 0.33439 0.0
C331 C 0.93977 0.15676 0.336 0.0
C332 C 0.96233 0.09306 0.33755 0.0
C333 C 0.9747 0.0761 0.37137 0.0
C334 C 0.95843 0.06134 0.40265 0.0
C335 C 0.92951 0.06396 0.39932 0.0
C336 C 0.91717 0.0808 0.36529 0.0
H337 H 0.93522 0.1792 0.3362 0.0
H338 H 0.93491 0.14841 0.3711 0.0
H339 H 0.96222 0.15403 0.33071 0.0
H340 H 0.97523 0.10398 0.31344 0.0
H341 H 0.99701 0.07456 0.37292 0.0
H342 H 0.29186 0.33104 0.62422 0.0
H343 H 0.31358 0.34464 0.70039 0.0
H344 H 0.394 0.33136 0.64231 0.0
H345 H 0.37249 0.31599 0.5675 0.0
H346 H 0.39501 0.31949 0.73344 0.0
H347 H 0.34445 0.42122 0.70831 0.0
H348 H 0.32104 0.39295 0.71437 0.0
H349 H 0.34264 0.39425 0.66369 0.0
C350 C 0.31413 0.33011 0.6282 0.0
C351 C 0.33048 0.32313 0.58941 0.0
C352 C 0.32654 0.33828 0.67157 0.0
C353 C 0.35544 0.34006 0.67649 0.0
C354 C 0.37167 0.33058 0.63922 0.0
H355 H 0.45597 0.45975 0.82071 0.0
H356 H 0.42788 0.43025 0.76764 0.0
C357 C 0.35933 0.32202 0.59627 0.0
C358 C 0.36905 0.35432 0.71789 0.0
H359 H 0.3752 0.41735 0.77301 0.0
C360 C 0.39053 0.34082 0.74248 0.0
C361 C 0.36343 0.3823 0.72915 0.0
C362 C 0.34183 0.39866 0.70231 0.0
C363 C 0.40719 0.35476 0.77673 0.0
C364 C 0.40162 0.38277 0.78771 0.0
C365 C 0.37943 0.39589 0.76453 0.0
C366 C 0.41968 0.39966 0.82023 0.0
C367 C 0.43141 0.33977 0.79889 0.0
C368 C 0.4246 0.39225 0.86748 0.0
C369 C 0.44112 0.40891 0.89776 0.0
C370 C 0.45249 0.43357 0.88157 0.0
C371 C 0.44745 0.44094 0.83432 0.0
C372 C 0.43135 0.4241 0.80396 0.0
H373 H 0.4369 0.32101 0.77805 0.0
H374 H 0.44986 0.35334 0.80215 0.0
H375 H 0.42601 0.33324 0.83487 0.0
H376 H 0.41528 0.37388 0.88122 0.0
H377 H 0.44437 0.40283 0.93415 0.0
H378 H 0.68361 0.70434 0.38546 0.0
H379 H 0.67118 0.68055 0.30993 0.0
H380 H 0.58572 0.67975 0.34887 0.0
H381 H 0.59799 0.7033 0.42359 0.0
H382 H 0.64546 0.62782 0.30564 0.0
H383 H 0.58149 0.70459 0.21107 0.0
H384 H 0.6054 0.71398 0.25892 0.0
H385 H 0.57168 0.7008 0.27133 0.0
C386 C 0.66214 0.69962 0.3771 0.0
C387 C 0.64171 0.70554 0.41005 0.0
C388 C 0.65508 0.68601 0.33423 0.0
C389 C 0.62748 0.67871 0.32363 0.0
C390 C 0.60703 0.68566 0.35587 0.0
H391 H 0.52125 0.57544 0.15783 0.0
H392 H 0.54499 0.60807 0.21186 0.0
C393 C 0.61407 0.69895 0.39863 0.0
C394 C 0.61994 0.66131 0.28162 0.0
H395 H 0.5736 0.65693 0.18864 0.0
C396 C 0.63023 0.63431 0.27931 0.0
C397 C 0.6 0.66986 0.24755 0.0
C398 C 0.5892 0.69899 0.24699 0.0
C399 C 0.61976 0.61506 0.24565 0.0
C400 C 0.59878 0.62325 0.2131 0.0
C401 C 0.58952 0.65065 0.21391 0.0
C402 C 0.58484 0.60332 0.18002 0.0
C403 C 0.63007 0.58574 0.24691 0.0
C404 C 0.59939 0.58989 0.14412 0.0
C405 C 0.58591 0.57111 0.11322 0.0
C406 C 0.55756 0.56553 0.11752 0.0
C407 C 0.54308 0.57914 0.15352 0.0
C408 C 0.55659 0.59788 0.18436 0.0
H409 H 0.64238 0.58159 0.27974 0.0
H410 H 0.61253 0.57099 0.24428 0.0
H411 H 0.64341 0.58179 0.21624 0.0
H412 H 0.62111 0.59412 0.13974 0.0
H413 H 0.59768 0.56115 0.08573 0.0
H414 H 0.873 0.22087 0.90097 0.0
H415 H 0.88711 0.1923 0.83362 0.0
H416 H 0.83682 0.12551 0.88153 0.0
H417 H 0.82326 0.15387 0.94959 0.0
H418 H 0.88883 0.10983 0.87176 0.0
H419 H 0.85471 0.16358 0.70962 0.0
H420 H 0.87387 0.18581 0.74995 0.0
H421 H 0.84121 0.17197 0.76703 0.0
C422 C 0.86415 0.20047 0.89604 0.0
C423 C 0.84706 0.18953 0.93033 0.0
C424 C 0.87222 0.18413 0.85753 0.0
C425 C 0.86294 0.15676 0.85234 0.0
C426 C 0.84424 0.14655 0.88481 0.0
H427 H 0.91002 0.04726 0.61979 0.0
H428 H 0.88428 0.07532 0.67598 0.0
C429 C 0.83642 0.16276 0.92352 0.0
C430 C 0.87556 0.13776 0.81731 0.0
H431 H 0.89061 0.12986 0.70057 0.0
C432 C 0.8889 0.11407 0.83423 0.0
C433 C 0.87555 0.14315 0.76833 0.0
C434 C 0.86032 0.16737 0.74758 0.0
C435 C 0.9028 0.09601 0.80378 0.0
C436 C 0.90399 0.10214 0.75521 0.0
C437 C 0.89 0.12539 0.73797 0.0
C438 C 0.9197 0.0847 0.72176 0.0
C439 C 0.91589 0.07042 0.82396 0.0
C440 C 0.94822 0.08072 0.72876 0.0
C441 C 0.96302 0.06449 0.69688 0.0
C442 C 0.94962 0.05221 0.65703 0.0
C443 C 0.92103 0.05635 0.65011 0.0
C444 C 0.90626 0.07246 0.68212 0.0
H445 H 0.90641 0.06466 0.85772 0.0
H446 H 0.91393 0.05269 0.79863 0.0
H447 H 0.93817 0.07435 0.83137 0.0
H448 H 0.95913 0.09046 0.7586 0.0
H449 H 0.98503 0.06197 0.70307 0.0
H450 H 0.32403 0.31785 0.36587 0.0
H451 H 0.34982 0.34018 0.30388 0.0
H452 H 0.37274 0.40617 0.40149 0.0
H453 H 0.34644 0.38449 0.4633 0.0
H454 H 0.34416 0.39819 0.26987 0.0
H455 H 0.44712 0.37262 0.34941 0.0
H456 H 0.41605 0.35427 0.3636 0.0
H457 H 0.42257 0.38802 0.38854 0.0
C458 C 0.3342 0.33732 0.37397 0.0
C459 C 0.33336 0.34926 0.41968 0.0
C460 C 0.34904 0.34994 0.33862 0.0
C461 C 0.36343 0.37455 0.34847 0.0
C462 C 0.36209 0.38692 0.39355 0.0
H463 H 0.43986 0.49017 0.16317 0.0
H464 H 0.41334 0.46763 0.2238 0.0
C465 C 0.34715 0.37443 0.42882 0.0
C466 C 0.38011 0.38725 0.31176 0.0
H467 H 0.44651 0.40156 0.28297 0.0
C468 C 0.36652 0.39892 0.27259 0.0
C469 C 0.40927 0.38789 0.31544 0.0
C470 C 0.42476 0.37488 0.35628 0.0
C471 C 0.38141 0.41172 0.23722 0.0
C472 C 0.41054 0.41288 0.24142 0.0
C473 C 0.42415 0.40076 0.28016 0.0
C474 C 0.42723 0.42652 0.20571 0.0
C475 C 0.36597 0.42374 0.19541 0.0
C476 C 0.44426 0.41085 0.1763 0.0
C477 C 0.45943 0.42361 0.14153 0.0
C478 C 0.45802 0.45234 0.13594 0.0
C479 C 0.44143 0.46802 0.16643 0.0
C480 C 0.42614 0.4552 0.20094 0.0
H481 H 0.34418 0.41658 0.19289 0.0
H482 H 0.36598 0.44655 0.19906 0.0
H483 H 0.37626 0.41817 0.16193 0.0
H484 H 0.44543 0.38868 0.17974 0.0
H485 H 0.47205 0.41093 0.11881 0.0
H486 H 0.15229 0.77575 0.89552 0.0
H487 H 0.13519 0.79765 0.82312 0.0
H488 H 0.17051 0.87507 0.87212 0.0
H489 H 0.18844 0.85309 0.94341 0.0
H490 H 0.09708 0.83729 0.82834 0.0
H491 H 0.18605 0.87826 0.73377 0.0
H492 H 0.1899 0.85246 0.77864 0.0
H493 H 0.1875 0.88842 0.79509 0.0
C494 C 0.15744 0.79713 0.88982 0.0
C495 C 0.17152 0.81278 0.92522 0.0
C496 C 0.14747 0.80969 0.84863 0.0
C497 C 0.1516 0.83801 0.84206 0.0
C498 C 0.16747 0.85312 0.87581 0.0
H499 H 0.07132 0.9705 0.69549 0.0
H500 H 0.09882 0.9407 0.74747 0.0
C501 C 0.17751 0.84058 0.9168 0.0
C502 C 0.13593 0.85266 0.80437 0.0
H503 H 0.1421 0.9004 0.71807 0.0
C504 C 0.10698 0.85068 0.80362 0.0
C505 C 0.14881 0.87033 0.77239 0.0
C506 C 0.17979 0.87228 0.76967 0.0
C507 C 0.09056 0.86664 0.77311 0.0
C508 C 0.10342 0.88493 0.74231 0.0
C509 C 0.13234 0.88649 0.74211 0.0
C510 C 0.08705 0.90287 0.7105 0.0
C511 C 0.05953 0.8646 0.7752 0.0
C512 C 0.07143 0.89138 0.67258 0.0
C513 C 0.0557 0.90828 0.64289 0.0
C514 C 0.0553 0.93704 0.65056 0.0
C515 C 0.07101 0.94846 0.68872 0.0
C516 C 0.08685 0.9315 0.71829 0.0
H517 H 0.05287 0.85331 0.80674 0.0
H518 H 0.0501 0.88545 0.77584 0.0
H519 H 0.05141 0.85345 0.7431 0.0
H520 H 0.07151 0.86933 0.66583 0.0
H521 H 0.04395 0.89875 0.61378 0.0
loop_
_geom_bond_atom_site_label_1
_geom_bond_atom_site_label_2
_geom_bond_distance
_geom_bond_site_symmetry_2
_ccdc_geom_bond_type
H0 C3 0.929 . S
H1 C6 0.929 . S
H2 C8 0.930 . S
C3 H0 0.929 . S
C3 C4 1.398 1_554 S
C3 C5 1.396 . S
C4 C3 1.398 1_556 S
C4 C8 1.407 . S
C5 C3 1.396 . S
C5 C6 1.394 . S
C6 H1 0.929 . S
C6 C5 1.394 . S
C6 C7 1.382 1_554 S
C7 C6 1.382 1_556 S
C7 C8 1.392 . S
C7 N9 1.420 . S
C8 H2 0.930 . S
C8 C4 1.407 . S
C8 C7 1.392 . S
N9 C7 1.420 . S
N9 C10 1.244 1_556 S
C10 N9 1.244 1_554 S
H11 C14 0.929 . S
H12 C17 0.929 . S
H13 C19 0.930 . S
C14 H11 0.929 . S
C14 C15 1.398 . S
C14 C16 1.396 . S
C15 C14 1.398 . S
C15 C19 1.407 . S
C16 C14 1.396 . S
C16 C17 1.394 . S
C17 H12 0.929 . S
C17 C16 1.394 . S
C17 C18 1.382 . S
C18 C17 1.382 . S
C18 C19 1.392 . S
C18 N20 1.420 . S
C19 H13 0.930 . S
C19 C15 1.407 . S
C19 C18 1.392 . S
N20 C18 1.420 . S
N20 C21 1.244 . S
C21 N20 1.244 . S
H22 C25 0.929 . S
H23 C28 0.929 . S
H24 C30 0.930 . S
C25 H22 0.929 . S
C25 C26 1.398 1_554 S
C25 C27 1.396 . S
C26 C25 1.398 1_556 S
C26 C30 1.407 . S
C27 C25 1.396 . S
C27 C28 1.394 . S
C28 H23 0.929 . S
C28 C27 1.394 . S
C28 C29 1.382 1_554 S
C29 C28 1.382 1_556 S
C29 C30 1.392 . S
C29 N31 1.420 . S
C30 H24 0.930 . S
C30 C26 1.407 . S
C30 C29 1.392 . S
N31 C29 1.420 . S
N31 C32 1.244 1_556 S
C32 N31 1.244 1_554 S
H33 C36 0.929 . S
H34 C39 0.929 . S
H35 C41 0.930 . S
C36 H33 0.929 . S
C36 C37 1.398 . S
C36 C38 1.396 . S
C37 C36 1.398 . S
C37 C41 1.407 . S
C38 C36 1.396 . S
C38 C39 1.394 . S
C39 H34 0.929 . S
C39 C38 1.394 . S
C39 C40 1.382 . S
C40 C39 1.382 . S
C40 C41 1.392 . S
C40 N42 1.420 . S
C41 H35 0.930 . S
C41 C37 1.407 . S
C41 C40 1.392 . S
N42 C40 1.420 . S
N42 C43 1.244 . S
C43 N42 1.244 . S
O44 Zn45 1.953 1_565 S
O44 C60 1.225 . S
Zn45 O44 1.953 1_545 S
Zn45 O46 1.949 1_655 S
Zn45 O52 1.919 . S
Zn45 O57 1.924 . S
O46 Zn45 1.949 1_455 S
O46 Zn47 1.923 . S
O46 Zn48 1.950 1_545 S
O46 Zn49 1.945 . S
Zn47 O46 1.923 . S
Zn47 O50 1.933 . S
Zn47 O53 1.918 1_455 S
Zn47 O54 1.965 1_545 S
Zn48 O46 1.950 1_565 S
Zn48 O55 1.938 . S
Zn48 O56 1.906 . S
Zn48 O66 1.953 1_455 S
Zn49 O46 1.945 . S
Zn49 O51 1.932 . S
Zn49 O58 1.977 1_545 S
Zn49 O59 1.910 1_455 S
O50 Zn47 1.933 . S
O50 C61 1.226 . S
O51 Zn49 1.932 . S
O51 C61 1.307 . S
O52 Zn45 1.919 . S
O52 C63 1.253 . S
O53 Zn47 1.918 1_655 S
O53 C63 1.317 . S
O54 Zn47 1.965 1_565 S
O54 C62 1.303 . S
O55 Zn48 1.938 . S
O55 C62 1.247 . S
O56 Zn48 1.906 . S
O56 C64 1.304 . S
O57 Zn45 1.924 . S
O57 C65 1.311 . S
O58 Zn49 1.977 1_565 S
O58 C64 1.272 . S
O59 Zn49 1.910 1_655 S
O59 C65 1.231 . S
C60 O44 1.225 . S
C60 O66 1.298 . S
C61 O50 1.226 . S
C61 O51 1.307 . S
C62 O54 1.303 . S
C62 O55 1.247 . S
C63 O52 1.253 . S
C63 O53 1.317 . S
C64 O56 1.304 . S
C64 O58 1.272 . S
C65 O57 1.311 . S
C65 O59 1.231 . S
O66 Zn48 1.953 1_655 S
O66 C60 1.298 . S
O67 Zn68 1.953 . S
O67 C83 1.225 . S
Zn68 O67 1.953 . S
Zn68 O69 1.949 . S
Zn68 O75 1.919 1_554 S
Zn68 O80 1.924 . S
O69 Zn68 1.949 . S
O69 Zn70 1.923 1_554 S
O69 Zn71 1.950 . S
O69 Zn72 1.945 . S
Zn70 O69 1.923 1_556 S
Zn70 O73 1.933 . S
Zn70 O76 1.941 . S
Zn70 O77 1.965 . S
Zn71 O69 1.950 . S
Zn71 O78 1.938 1_554 S
Zn71 O79 1.906 . S
Zn71 O89 1.953 . S
Zn72 O69 1.945 . S
Zn72 O74 1.932 . S
Zn72 O81 1.977 . S
Zn72 O82 1.910 . S
O73 Zn70 1.933 . S
O73 C84 1.226 1_556 S
O74 Zn72 1.932 . S
O74 C84 1.307 . S
O75 Zn68 1.919 1_556 S
O75 C86 1.253 . S
O76 Zn70 1.941 . S
O76 C86 1.283 . S
O77 Zn70 1.965 . S
O77 C85 1.303 . S
O78 Zn71 1.938 1_556 S
O78 C85 1.247 . S
O79 Zn71 1.906 . S
O79 C87 1.304 . S
O80 Zn68 1.924 . S
O80 C88 1.311 . S
O81 Zn72 1.977 . S
O81 C87 1.272 . S
O82 Zn72 1.910 . S
O82 C88 1.231 . S
C83 O67 1.225 . S
C83 O89 1.298 . S
C84 O73 1.226 1_554 S
C84 O74 1.307 . S
C85 O77 1.303 . S
C85 O78 1.247 . S
C86 O75 1.253 . S
C86 O76 1.283 . S
C87 O79 1.304 . S
C87 O81 1.272 . S
C88 O80 1.311 . S
C88 O82 1.231 . S
O89 Zn71 1.953 . S
O89 C83 1.298 . S
H90 C98 0.929 . S
H91 C100 0.930 . S
H92 C102 0.930 . S
H93 C105 0.929 . S
H94 C108 0.930 . S
H95 C110 0.960 . S
H96 C110 0.960 . S
H97 C110 0.960 . S
C98 H90 0.929 . S
C98 C99 1.377 . S
C98 C100 1.384 . S
C99 C98 1.377 . S
C99 C105 1.390 . S
C100 H91 0.930 . S
C100 C98 1.384 . S
C100 C101 1.372 . S
C101 C100 1.372 . S
C101 C102 1.400 . S
C101 C106 1.490 . S
C102 H92 0.930 . S
C102 C101 1.400 . S
C102 C105 1.386 . S
H103 C119 0.930 . S
H104 C120 0.931 . S
C105 H93 0.929 . S
C105 C99 1.390 . S
C105 C102 1.386 . S
C106 C101 1.490 . S
C106 C108 1.395 . S
C106 C109 1.403 . S
H107 C113 0.930 . S
C108 H94 0.930 . S
C108 C106 1.395 . S
C108 C111 1.403 . S
C109 C106 1.403 . S
C109 C110 1.524 . S
C109 C113 1.400 . S
C110 H95 0.960 . S
C110 H96 0.960 . S
C110 H97 0.960 . S
C110 C109 1.524 . S
C111 C108 1.403 . S
C111 C112 1.392 . S
C111 C115 1.495 . S
C112 C111 1.392 . S
C112 C113 1.385 . S
C112 C114 1.478 . S
C113 H107 0.930 . S
C113 C109 1.400 . S
C113 C112 1.385 . S
C114 C112 1.478 . S
C114 C116 1.381 . S
C114 C120 1.383 . S
C115 C111 1.495 . S
C115 H121 0.959 . S
C115 H122 0.961 . S
C115 H123 0.960 . S
C116 C114 1.381 . S
C116 C117 1.394 . S
C116 H124 0.930 . S
C117 C116 1.394 . S
C117 C118 1.383 . S
C117 H125 0.929 . S
C118 C117 1.383 . S
C118 C119 1.377 . S
C119 H103 0.930 . S
C119 C118 1.377 . S
C119 C120 1.379 . S
C120 H104 0.931 . S
C120 C114 1.383 . S
C120 C119 1.379 . S
H121 C115 0.959 . S
H122 C115 0.961 . S
H123 C115 0.960 . S
H124 C116 0.930 . S
H125 C117 0.929 . S
H126 C134 0.929 . S
H127 C136 0.930 . S
H128 C138 0.930 . S
H129 C141 0.929 . S
H130 C144 0.930 . S
H131 C146 0.960 . S
H132 C146 0.960 . S
H133 C146 0.960 1_554 S
C134 H126 0.929 . S
C134 C135 1.377 1_556 S
C134 C136 1.384 . S
C135 C134 1.377 1_554 S
C135 C141 1.390 . S
C136 H127 0.930 . S
C136 C134 1.384 . S
C136 C137 1.372 1_556 S
C137 C136 1.372 1_554 S
C137 C138 1.400 . S
C137 C142 1.490 . S
C138 H128 0.930 . S
C138 C137 1.400 . S
C138 C141 1.386 . S
H139 C155 0.930 . S
H140 C156 0.931 . S
C141 H129 0.929 . S
C141 C135 1.390 . S
C141 C138 1.386 . S
C142 C137 1.490 . S
C142 C144 1.395 . S
C142 C145 1.403 . S
H143 C149 0.930 . S
C144 H130 0.930 . S
C144 C142 1.395 . S
C144 C147 1.403 . S
C145 C142 1.403 . S
C145 C146 1.524 1_554 S
C145 C149 1.400 . S
C146 H131 0.960 . S
C146 H132 0.960 . S
C146 H133 0.960 1_556 S
C146 C145 1.524 1_556 S
C147 C144 1.403 . S
C147 C148 1.392 . S
C147 C151 1.495 . S
C148 C147 1.392 . S
C148 C149 1.385 . S
C148 C150 1.478 . S
C149 H143 0.930 . S
C149 C145 1.400 . S
C149 C148 1.385 . S
C150 C148 1.478 . S
C150 C152 1.381 1_554 S
C150 C156 1.383 . S
C151 C147 1.495 . S
C151 H157 0.959 . S
C151 H158 0.961 . S
C151 H159 0.960 . S
C152 C150 1.381 1_556 S
C152 C153 1.394 . S
C152 H160 0.930 . S
C153 C152 1.394 . S
C153 C154 1.383 1_556 S
C153 H161 0.929 . S
C154 C153 1.383 1_554 S
C154 C155 1.377 . S
C155 H139 0.930 . S
C155 C154 1.377 . S
C155 C156 1.379 . S
C156 H140 0.931 . S
C156 C150 1.383 . S
C156 C155 1.379 . S
H157 C151 0.959 . S
H158 C151 0.961 . S
H159 C151 0.960 . S
H160 C152 0.930 . S
H161 C153 0.929 . S
H162 C170 0.929 . S
H163 C172 0.930 . S
H164 C174 0.930 . S
H165 C177 0.929 . S
H166 C180 0.930 . S
H167 C182 0.960 . S
H168 C182 0.960 . S
H169 C182 0.960 . S
C170 H162 0.929 . S
C170 C171 1.377 . S
C170 C172 1.384 . S
C171 C170 1.377 . S
C171 C177 1.390 . S
C172 H163 0.930 . S
C172 C170 1.384 . S
C172 C173 1.372 . S
C173 C172 1.372 . S
C173 C174 1.400 . S
C173 C178 1.490 . S
C174 H164 0.930 . S
C174 C173 1.400 . S
C174 C177 1.386 . S
H175 C191 0.930 . S
H176 C192 0.931 . S
C177 H165 0.929 . S
C177 C171 1.390 . S
C177 C174 1.386 . S
C178 C173 1.490 . S
C178 C180 1.395 . S
C178 C181 1.403 . S
H179 C185 0.930 . S
C180 H166 0.930 . S
C180 C178 1.395 . S
C180 C183 1.403 . S
C181 C178 1.403 . S
C181 C182 1.524 . S
C181 C185 1.400 . S
C182 H167 0.960 . S
C182 H168 0.960 . S
C182 H169 0.960 . S
C182 C181 1.524 . S
C183 C180 1.403 . S
C183 C184 1.392 . S
C183 C187 1.495 . S
C184 C183 1.392 . S
C184 C185 1.385 . S
C184 C186 1.478 . S
C185 H179 0.930 . S
C185 C181 1.400 . S
C185 C184 1.385 . S
C186 C184 1.478 . S
C186 C188 1.381 . S
C186 C192 1.383 . S
C187 C183 1.495 . S
C187 H193 0.959 . S
C187 H194 0.961 . S
C187 H195 0.960 . S
C188 C186 1.381 . S
C188 C189 1.394 . S
C188 H196 0.930 . S
C189 C188 1.394 . S
C189 C190 1.383 . S
C189 H197 0.929 . S
C190 C189 1.383 . S
C190 C191 1.377 . S
C191 H175 0.930 . S
C191 C190 1.377 . S
C191 C192 1.379 . S
C192 H176 0.931 . S
C192 C186 1.383 . S
C192 C191 1.379 . S
H193 C187 0.959 . S
H194 C187 0.961 . S
H195 C187 0.960 . S
H196 C188 0.930 . S
H197 C189 0.929 . S
H198 C206 0.929 . S
H199 C208 0.930 . S
H200 C210 0.930 . S
H201 C213 0.929 . S
H202 C216 0.930 . S
H203 C218 0.960 . S
H204 C218 0.960 . S
H205 C218 0.960 . S
C206 H198 0.929 . S
C206 C207 1.377 . S
C206 C208 1.384 . S
C207 C206 1.377 . S
C207 C213 1.390 1_554 S
C208 H199 0.930 . S
C208 C206 1.384 . S
C208 C209 1.372 . S
C209 C208 1.372 . S
C209 C210 1.400 1_554 S
C209 C214 1.490 . S
C210 H200 0.930 . S
C210 C209 1.400 1_556 S
C210 C213 1.386 . S
H211 C227 0.930 . S
H212 C228 0.931 . S
C213 H201 0.929 . S
C213 C207 1.390 1_556 S
C213 C210 1.386 . S
C214 C209 1.490 . S
C214 C216 1.395 1_554 S
C214 C217 1.403 . S
H215 C221 0.930 . S
C216 H202 0.930 . S
C216 C214 1.395 1_556 S
C216 C219 1.403 . S
C217 C214 1.403 . S
C217 C218 1.524 . S
C217 C221 1.400 . S
C218 H203 0.960 . S
C218 H204 0.960 . S
C218 H205 0.960 . S
C218 C217 1.524 . S
C219 C216 1.403 . S
C219 C220 1.392 1_556 S
C219 C223 1.495 . S
C220 C219 1.392 1_554 S
C220 C221 1.385 . S
C220 C222 1.478 . S
C221 H215 0.930 . S
C221 C217 1.400 . S
C221 C220 1.385 . S
C222 C220 1.478 . S
C222 C224 1.381 . S
C222 C228 1.383 1_554 S
C223 C219 1.495 . S
C223 H229 0.959 . S
C223 H230 0.961 . S
C223 H231 0.960 . S
C224 C222 1.381 . S
C224 C225 1.394 . S
C224 H232 0.930 . S
C225 C224 1.394 . S
C225 C226 1.383 . S
C225 H233 0.929 . S
C226 C225 1.383 . S
C226 C227 1.377 1_554 S
C227 H211 0.930 . S
C227 C226 1.377 1_556 S
C227 C228 1.379 . S
C228 H212 0.931 . S
C228 C222 1.383 1_556 S
C228 C227 1.379 . S
H229 C223 0.959 . S
H230 C223 0.961 . S
H231 C223 0.960 . S
H232 C224 0.930 . S
H233 C225 0.929 . S
H234 C242 0.929 . S
H235 C244 0.930 . S
H236 C246 0.930 . S
H237 C249 0.929 . S
H238 C252 0.930 . S
H239 C254 0.960 . S
H240 C254 0.960 . S
H241 C254 0.960 . S
C242 H234 0.929 . S
C242 C243 1.377 . S
C242 C244 1.384 . S
C243 C242 1.377 . S
C243 C249 1.390 . S
C244 H235 0.930 . S
C244 C242 1.384 . S
C244 C245 1.372 . S
C245 C244 1.372 . S
C245 C246 1.400 . S
C245 C250 1.490 . S
C246 H236 0.930 . S
C246 C245 1.400 . S
C246 C249 1.386 . S
H247 C263 0.930 . S
H248 C264 0.931 . S
C249 H237 0.929 . S
C249 C243 1.390 . S
C249 C246 1.386 . S
C250 C245 1.490 . S
C250 C252 1.395 . S
C250 C253 1.403 . S
H251 C257 0.930 . S
C252 H238 0.930 . S
C252 C250 1.395 . S
C252 C255 1.403 . S
C253 C250 1.403 . S
C253 C254 1.524 . S
C253 C257 1.400 . S
C254 H239 0.960 . S
C254 H240 0.960 . S
C254 H241 0.960 . S
C254 C253 1.524 . S
C255 C252 1.403 . S
C255 C256 1.392 . S
C255 C259 1.495 . S
C256 C255 1.392 . S
C256 C257 1.385 . S
C256 C258 1.478 . S
C257 H251 0.930 . S
C257 C253 1.400 . S
C257 C256 1.385 . S
C258 C256 1.478 . S
C258 C260 1.381 . S
C258 C264 1.383 . S
C259 C255 1.495 . S
C259 H265 0.959 . S
C259 H266 0.961 . S
C259 H267 0.960 . S
C260 C258 1.381 . S
C260 C261 1.394 . S
C260 H268 0.930 . S
C261 C260 1.394 . S
C261 C262 1.383 . S
C261 H269 0.929 . S
C262 C261 1.383 . S
C262 C263 1.377 . S
C263 H247 0.930 . S
C263 C262 1.377 . S
C263 C264 1.379 . S
C264 H248 0.931 . S
C264 C258 1.383 . S
C264 C263 1.379 . S
H265 C259 0.959 . S
H266 C259 0.961 . S
H267 C259 0.960 . S
H268 C260 0.930 . S
H269 C261 0.929 . S
H270 C278 0.929 . S
H271 C280 0.930 . S
H272 C282 0.930 . S
H273 C285 0.929 . S
H274 C288 0.930 . S
H275 C290 0.960 . S
H276 C290 0.960 . S
H277 C290 0.960 . S
C278 H270 0.929 . S
C278 C279 1.377 . S
C278 C280 1.384 . S
C279 C278 1.377 . S
C279 C285 1.390 . S
C280 H271 0.930 . S
C280 C278 1.384 . S
C280 C281 1.372 . S
C281 C280 1.372 . S
C281 C282 1.400 . S
C281 C286 1.490 . S
C282 H272 0.930 . S
C282 C281 1.400 . S
C282 C285 1.386 . S
H283 C299 0.930 . S
H284 C300 0.931 . S
C285 H273 0.929 . S
C285 C279 1.390 . S
C285 C282 1.386 . S
C286 C281 1.490 . S
C286 C288 1.395 . S
C286 C289 1.403 . S
H287 C293 0.930 . S
C288 H274 0.930 . S
C288 C286 1.395 . S
C288 C291 1.403 . S
C289 C286 1.403 . S
C289 C290 1.524 . S
C289 C293 1.400 . S
C290 H275 0.960 . S
C290 H276 0.960 . S
C290 H277 0.960 . S
C290 C289 1.524 . S
C291 C288 1.403 . S
C291 C292 1.392 . S
C291 C295 1.495 . S
C292 C291 1.392 . S
C292 C293 1.385 . S
C292 C294 1.478 . S
C293 H287 0.930 . S
C293 C289 1.400 . S
C293 C292 1.385 . S
C294 C292 1.478 . S
C294 C296 1.381 . S
C294 C300 1.383 . S
C295 C291 1.495 . S
C295 H301 0.959 . S
C295 H302 0.961 . S
C295 H303 0.960 . S
C296 C294 1.381 . S
C296 C297 1.394 . S
C296 H304 0.930 . S
C297 C296 1.394 . S
C297 C298 1.383 . S
C297 H305 0.929 . S
C298 C297 1.383 . S
C298 C299 1.377 . S
C299 H283 0.930 . S
C299 C298 1.377 . S
C299 C300 1.379 . S
C300 H284 0.931 . S
C300 C294 1.383 . S
C300 C299 1.379 . S
H301 C295 0.959 . S
H302 C295 0.961 . S
H303 C295 0.960 . S
H304 C296 0.930 . S
H305 C297 0.929 . S
H306 C314 0.929 . S
H307 C316 0.930 . S
H308 C318 0.930 . S
H309 C321 0.929 . S
H310 C324 0.930 . S
H311 C326 0.960 . S
H312 C326 0.960 . S
H313 C326 0.960 . S
C314 H306 0.929 . S
C314 C315 1.377 . S
C314 C316 1.384 . S
C315 C314 1.377 . S
C315 C321 1.390 . S
C316 H307 0.930 . S
C316 C314 1.384 . S
C316 C317 1.372 . S
C317 C316 1.372 . S
C317 C318 1.400 . S
C317 C322 1.490 . S
C318 H308 0.930 . S
C318 C317 1.400 . S
C318 C321 1.386 . S
H319 C335 0.930 . S
H320 C336 0.931 . S
C321 H309 0.929 . S
C321 C315 1.390 . S
C321 C318 1.386 . S
C322 C317 1.490 . S
C322 C324 1.395 . S
C322 C325 1.403 . S
H323 C329 0.930 . S
C324 H310 0.930 . S
C324 C322 1.395 . S
C324 C327 1.403 . S
C325 C322 1.403 . S
C325 C326 1.524 . S
C325 C329 1.400 . S
C326 H311 0.960 . S
C326 H312 0.960 . S
C326 H313 0.960 . S
C326 C325 1.524 . S
C327 C324 1.403 . S
C327 C328 1.392 . S
C327 C331 1.495 . S
C328 C327 1.392 . S
C328 C329 1.385 . S
C328 C330 1.478 . S
C329 H323 0.930 . S
C329 C325 1.400 . S
C329 C328 1.385 . S
C330 C328 1.478 . S
C330 C332 1.381 . S
C330 C336 1.383 . S
C331 C327 1.495 . S
C331 H337 0.959 . S
C331 H338 0.961 . S
C331 H339 0.960 . S
C332 C330 1.381 . S
C332 C333 1.394 . S
C332 H340 0.930 . S
C333 C332 1.394 . S
C333 C334 1.383 . S
C333 H341 0.929 . S
C334 C333 1.383 . S
C334 C335 1.377 . S
C335 H319 0.930 . S
C335 C334 1.377 . S
C335 C336 1.379 . S
C336 H320 0.931 . S
C336 C330 1.383 . S
C336 C335 1.379 . S
H337 C331 0.959 . S
H338 C331 0.961 . S
H339 C331 0.960 . S
H340 C332 0.930 . S
H341 C333 0.929 . S
H342 C350 0.929 . S
H343 C352 0.930 . S
H344 C354 0.930 . S
H345 C357 0.929 . S
H346 C360 0.930 . S
H347 C362 0.960 . S
H348 C362 0.960 . S
H349 C362 0.960 . S
C350 H342 0.929 . S
C350 C351 1.377 . S
C350 C352 1.384 . S
C351 C350 1.377 . S
C351 C357 1.390 . S
C352 H343 0.930 . S
C352 C350 1.384 . S
C352 C353 1.372 . S
C353 C352 1.372 . S
C353 C354 1.400 . S
C353 C358 1.490 . S
C354 H344 0.930 . S
C354 C353 1.400 . S
C354 C357 1.386 . S
H355 C371 0.930 . S
H356 C372 0.931 . S
C357 H345 0.929 . S
C357 C351 1.390 . S
C357 C354 1.386 . S
C358 C353 1.490 . S
C358 C360 1.395 . S
C358 C361 1.403 . S
H359 C365 0.930 . S
C360 H346 0.930 . S
C360 C358 1.395 . S
C360 C363 1.403 . S
C361 C358 1.403 . S
C361 C362 1.524 . S
C361 C365 1.400 . S
C362 H347 0.960 . S
C362 H348 0.960 . S
C362 H349 0.960 . S
C362 C361 1.524 . S
C363 C360 1.403 . S
C363 C364 1.392 . S
C363 C367 1.495 . S
C364 C363 1.392 . S
C364 C365 1.385 . S
C364 C366 1.478 . S
C365 H359 0.930 . S
C365 C361 1.400 . S
C365 C364 1.385 . S
C366 C364 1.478 . S
C366 C368 1.381 . S
C366 C372 1.383 . S
C367 C363 1.495 . S
C367 H373 0.959 . S
C367 H374 0.961 . S
C367 H375 0.960 . S
C368 C366 1.381 . S
C368 C369 1.394 . S
C368 H376 0.930 . S
C369 C368 1.394 . S
C369 C370 1.383 . S
C369 H377 0.929 . S
C370 C369 1.383 . S
C370 C371 1.377 . S
C371 H355 0.930 . S
C371 C370 1.377 . S
C371 C372 1.379 . S
C372 H356 0.931 . S
C372 C366 1.383 . S
C372 C371 1.379 . S
H373 C367 0.959 . S
H374 C367 0.961 . S
H375 C367 0.960 . S
H376 C368 0.930 . S
H377 C369 0.929 . S
H378 C386 0.929 . S
H379 C388 0.930 . S
H380 C390 0.930 . S
H381 C393 0.929 . S
H382 C396 0.930 . S
H383 C398 0.960 . S
H384 C398 0.960 . S
H385 C398 0.960 . S
C386 H378 0.929 . S
C386 C387 1.377 . S
C386 C388 1.384 . S
C387 C386 1.377 . S
C387 C393 1.390 . S
C388 H379 0.930 . S
C388 C386 1.384 . S
C388 C389 1.372 . S
C389 C388 1.372 . S
C389 C390 1.400 . S
C389 C394 1.490 . S
C390 H380 0.930 . S
C390 C389 1.400 . S
C390 C393 1.386 . S
H391 C407 0.930 . S
H392 C408 0.931 . S
C393 H381 0.929 . S
C393 C387 1.390 . S
C393 C390 1.386 . S
C394 C389 1.490 . S
C394 C396 1.395 . S
C394 C397 1.403 . S
H395 C401 0.930 . S
C396 H382 0.930 . S
C396 C394 1.395 . S
C396 C399 1.403 . S
C397 C394 1.403 . S
C397 C398 1.524 . S
C397 C401 1.400 . S
C398 H383 0.960 . S
C398 H384 0.960 . S
C398 H385 0.960 . S
C398 C397 1.524 . S
C399 C396 1.403 . S
C399 C400 1.392 . S
C399 C403 1.495 . S
C400 C399 1.392 . S
C400 C401 1.385 . S
C400 C402 1.478 . S
C401 H395 0.930 . S
C401 C397 1.400 . S
C401 C400 1.385 . S
C402 C400 1.478 . S
C402 C404 1.381 . S
C402 C408 1.383 . S
C403 C399 1.495 . S
C403 H409 0.959 . S
C403 H410 0.961 . S
C403 H411 0.960 . S
C404 C402 1.381 . S
C404 C405 1.394 . S
C404 H412 0.930 . S
C405 C404 1.394 . S
C405 C406 1.383 . S
C405 H413 0.929 . S
C406 C405 1.383 . S
C406 C407 1.377 . S
C407 H391 0.930 . S
C407 C406 1.377 . S
C407 C408 1.379 . S
C408 H392 0.931 . S
C408 C402 1.383 . S
C408 C407 1.379 . S
H409 C403 0.959 . S
H410 C403 0.961 . S
H411 C403 0.960 . S
H412 C404 0.930 . S
H413 C405 0.929 . S
H414 C422 0.929 . S
H415 C424 0.930 . S
H416 C426 0.930 . S
H417 C429 0.929 . S
H418 C432 0.930 . S
H419 C434 0.960 . S
H420 C434 0.960 . S
H421 C434 0.960 . S
C422 H414 0.929 . S
C422 C423 1.377 . S
C422 C424 1.384 . S
C423 C422 1.377 . S
C423 C429 1.390 . S
C424 H415 0.930 . S
C424 C422 1.384 . S
C424 C425 1.372 . S
C425 C424 1.372 . S
C425 C426 1.400 . S
C425 C430 1.490 . S
C426 H416 0.930 . S
C426 C425 1.400 . S
C426 C429 1.386 . S
H427 C443 0.930 . S
H428 C444 0.931 . S
C429 H417 0.929 . S
C429 C423 1.390 . S
C429 C426 1.386 . S
C430 C425 1.490 . S
C430 C432 1.395 . S
C430 C433 1.403 . S
H431 C437 0.930 . S
C432 H418 0.930 . S
C432 C430 1.395 . S
C432 C435 1.403 . S
C433 C430 1.403 . S
C433 C434 1.524 . S
C433 C437 1.400 . S
C434 H419 0.960 . S
C434 H420 0.960 . S
C434 H421 0.960 . S
C434 C433 1.524 . S
C435 C432 1.403 . S
C435 C436 1.392 . S
C435 C439 1.495 . S
C436 C435 1.392 . S
C436 C437 1.385 . S
C436 C438 1.478 . S
C437 H431 0.930 . S
C437 C433 1.400 . S
C437 C436 1.385 . S
C438 C436 1.478 . S
C438 C440 1.381 . S
C438 C444 1.383 . S
C439 C435 1.495 . S
C439 H445 0.959 . S
C439 H446 0.961 . S
C439 H447 0.960 . S
C440 C438 1.381 . S
C440 C441 1.394 . S
C440 H448 0.930 . S
C441 C440 1.394 . S
C441 C442 1.383 . S
C441 H449 0.956 . S
C442 C441 1.383 . S
C442 C443 1.377 . S
C443 H427 0.930 . S
C443 C442 1.377 . S
C443 C444 1.379 . S
C444 H428 0.931 . S
C444 C438 1.383 . S
C444 C443 1.379 . S
H445 C439 0.959 . S
H446 C439 0.961 . S
H447 C439 0.960 . S
H448 C440 0.930 . S
H449 C441 0.956 . S
H450 C458 0.929 . S
H451 C460 0.930 . S
H452 C462 0.930 . S
H453 C465 0.929 . S
H454 C468 0.930 . S
H455 C470 0.960 . S
H456 C470 0.960 . S
H457 C470 0.960 . S
C458 H450 0.929 . S
C458 C459 1.377 . S
C458 C460 1.384 . S
C459 C458 1.377 . S
C459 C465 1.390 . S
C460 H451 0.930 . S
C460 C458 1.384 . S
C460 C461 1.372 . S
C461 C460 1.372 . S
C461 C462 1.400 . S
C461 C466 1.490 . S
C462 H452 0.930 . S
C462 C461 1.400 . S
C462 C465 1.386 . S
H463 C479 0.930 . S
H464 C480 0.931 . S
C465 H453 0.929 . S
C465 C459 1.390 . S
C465 C462 1.386 . S
C466 C461 1.490 . S
C466 C468 1.395 . S
C466 C469 1.403 . S
H467 C473 0.930 . S
C468 H454 0.930 . S
C468 C466 1.395 . S
C468 C471 1.403 . S
C469 C466 1.403 . S
C469 C470 1.524 . S
C469 C473 1.400 . S
C470 H455 0.960 . S
C470 H456 0.960 . S
C470 H457 0.960 . S
C470 C469 1.524 . S
C471 C468 1.403 . S
C471 C472 1.392 . S
C471 C475 1.495 . S
C472 C471 1.392 . S
C472 C473 1.385 . S
C472 C474 1.478 . S
C473 H467 0.930 . S
C473 C469 1.400 . S
C473 C472 1.385 . S
C474 C472 1.478 . S
C474 C476 1.381 . S
C474 C480 1.383 . S
C475 C471 1.495 . S
C475 H481 0.959 . S
C475 H482 0.961 . S
C475 H483 0.960 . S
C476 C474 1.381 . S
C476 C477 1.394 . S
C476 H484 0.930 . S
C477 C476 1.394 . S
C477 C478 1.383 . S
C477 H485 0.929 . S
C478 C477 1.383 . S
C478 C479 1.377 . S
C479 H463 0.930 . S
C479 C478 1.377 . S
C479 C480 1.379 . S
C480 H464 0.931 . S
C480 C474 1.383 . S
C480 C479 1.379 . S
H481 C475 0.959 . S
H482 C475 0.961 . S
H483 C475 0.960 . S
H484 C476 0.930 . S
H485 C477 0.929 . S
H486 C494 0.929 . S
H487 C496 0.930 . S
H488 C498 0.930 . S
H489 C501 0.929 . S
H490 C504 0.930 . S
H491 C506 0.960 . S
H492 C506 0.960 . S
H493 C506 0.960 . S
C494 H486 0.929 . S
C494 C495 1.377 . S
C494 C496 1.384 . S
C495 C494 1.377 . S
C495 C501 1.390 . S
C496 H487 0.930 . S
C496 C494 1.384 . S
C496 C497 1.372 . S
C497 C496 1.372 . S
C497 C498 1.400 . S
C497 C502 1.490 . S
C498 H488 0.930 . S
C498 C497 1.400 . S
C498 C501 1.386 . S
H499 C515 0.930 . S
H500 C516 0.931 . S
C501 H489 0.929 . S
C501 C495 1.390 . S
C501 C498 1.386 . S
C502 C497 1.490 . S
C502 C504 1.395 . S
C502 C505 1.403 . S
H503 C509 0.930 . S
C504 H490 0.930 . S
C504 C502 1.395 . S
C504 C507 1.403 . S
C505 C502 1.403 . S
C505 C506 1.524 . S
C505 C509 1.400 . S
C506 H491 0.960 . S
C506 H492 0.960 . S
C506 H493 0.960 . S
C506 C505 1.524 . S
C507 C504 1.403 . S
C507 C508 1.392 . S
C507 C511 1.495 . S
C508 C507 1.392 . S
C508 C509 1.385 . S
C508 C510 1.478 . S
C509 H503 0.930 . S
C509 C505 1.400 . S
C509 C508 1.385 . S
C510 C508 1.478 . S
C510 C512 1.381 . S
C510 C516 1.383 . S
C511 C507 1.495 . S
C511 H517 0.959 . S
C511 H518 0.961 . S
C511 H519 0.960 . S
C512 C510 1.381 . S
C512 C513 1.394 . S
C512 H520 0.930 . S
C513 C512 1.394 . S
C513 C514 1.383 . S
C513 H521 0.929 . S
C514 C513 1.383 . S
C514 C515 1.377 . S
C515 H499 0.930 . S
C515 C514 1.377 . S
C515 C516 1.379 . S
C516 H500 0.931 . S
C516 C510 1.383 . S
C516 C515 1.379 . S
H517 C511 0.959 . S
H518 C511 0.961 . S
H519 C511 0.960 . S
H520 C512 0.930 . S
H521 C513 0.929 . S
C118 C61 1.480 . S
C99 C43 1.479 . S
C135 C10 1.483 . S
C154 C84 1.484 . S
C171 C21 1.518 . S
C190 C60 1.520 . S
C207 C32 1.518 . S
C226 C83 1.516 . S
C262 C64 1.441 . S
C243 C5 1.477 . S
C298 C86 1.514 . S
C279 C15 1.540 . S
C315 C27 1.497 . S
C334 C65 1.447 . S
C351 C38 1.514 . S
C370 C85 1.480 . S
C406 C88 1.406 . S
C387 C16 1.414 . S
C442 C63 1.394 . S
C423 C26 1.456 . S
C478 C87 1.402 . S
C459 C37 1.414 . S
C495 C4 1.439 . S
C514 C62 1.414 . S
