# Generated by pormake.
# Topology dag, (6,3)-cn, num edge types: 1
# Building blocks:
#     Node 0, Type 0, BuildingBlock: OJICUG_clean_sbu_0, # of connection points: 6
#     Node 1, Type 0, BuildingBlock: OJICUG_clean_sbu_0, # of connection points: 6
#     Node 2, Type 0, BuildingBlock: OJICUG_clean_sbu_0, # of connection points: 6
#     Node 3, Type 0, BuildingBlock: OJICUG_clean_sbu_0, # of connection points: 6
#     Node 4, Type 1, BuildingBlock: PAMTOO_clean_linker_0, # of connection points: 3
#     Node 5, Type 1, BuildingBlock: PAMTOO_clean_linker_0, # of connection points: 3
#     Node 6, Type 1, BuildingBlock: PAMTOO_clean_linker_0, # of connection points: 3
#     Node 7, Type 1, BuildingBlock: PAMTOO_clean_linker_0, # of connection points: 3
#     Node 8, Type 1, BuildingBlock: PAMTOO_clean_linker_0, # of connection points: 3
#     Node 9, Type 1, BuildingBlock: PAMTOO_clean_linker_0, # of connection points: 3
#     Node 10, Type 1, BuildingBlock: PAMTOO_clean_linker_0, # of connection points: 3
#     Node 11, Type 1, BuildingBlock: PAMTOO_clean_linker_0, # of connection points: 3
#     Edge 12, Type (0, 1), BuildingBlock: AJUNOK_clean_linker_0, # of connection points: 2
#     Edge 13, Type (0, 1), BuildingBlock: AJUNOK_clean_linker_0, # of connection points: 2
#     Edge 14, Type (0, 1), BuildingBlock: AJUNOK_clean_linker_0, # of connection points: 2
#     Edge 15, Type (0, 1), BuildingBlock: AJUNOK_clean_linker_0, # of connection points: 2
#     Edge 16, Type (0, 1), BuildingBlock: AJUNOK_clean_linker_0, # of connection points: 2
#     Edge 17, Type (0, 1), BuildingBlock: AJUNOK_clean_linker_0, # of connection points: 2
#     Edge 18, Type (0, 1), BuildingBlock: AJUNOK_clean_linker_0, # of connection points: 2
#     Edge 19, Type (0, 1), BuildingBlock: AJUNOK_clean_linker_0, # of connection points: 2
#     Edge 20, Type (0, 1), BuildingBlock: AJUNOK_clean_linker_0, # of connection points: 2
#     Edge 21, Type (0, 1), BuildingBlock: AJUNOK_clean_linker_0, # of connection points: 2
#     Edge 22, Type (0, 1), BuildingBlock: AJUNOK_clean_linker_0, # of connection points: 2
#     Edge 23, Type (0, 1), BuildingBlock: AJUNOK_clean_linker_0, # of connection points: 2
#     Edge 24, Type (0, 1), BuildingBlock: AJUNOK_clean_linker_0, # of connection points: 2
#     Edge 25, Type (0, 1), BuildingBlock: AJUNOK_clean_linker_0, # of connection points: 2
#     Edge 26, Type (0, 1), BuildingBlock: AJUNOK_clean_linker_0, # of connection points: 2
#     Edge 27, Type (0, 1), BuildingBlock: AJUNOK_clean_linker_0, # of connection points: 2
#     Edge 28, Type (0, 1), BuildingBlock: AJUNOK_clean_linker_0, # of connection points: 2
#     Edge 29, Type (0, 1), BuildingBlock: AJUNOK_clean_linker_0, # of connection points: 2
#     Edge 30, Type (0, 1), BuildingBlock: AJUNOK_clean_linker_0, # of connection points: 2
#     Edge 31, Type (0, 1), BuildingBlock: AJUNOK_clean_linker_0, # of connection points: 2
#     Edge 32, Type (0, 1), BuildingBlock: AJUNOK_clean_linker_0, # of connection points: 2
#     Edge 33, Type (0, 1), BuildingBlock: AJUNOK_clean_linker_0, # of connection points: 2
#     Edge 34, Type (0, 1), BuildingBlock: AJUNOK_clean_linker_0, # of connection points: 2
#     Edge 35, Type (0, 1), BuildingBlock: AJUNOK_clean_linker_0, # of connection points: 2
# Relax obj value: 0.094
# Max RMSD: 0.122
# Mean RMSD: 0.099
data_MOF--net-dag--node1-OJICUG_clean_sbu_0--node2-PAMTOO_clean_linker_0--edge1-AJUNOK_clean_linker_0
_symmetry_space_group_name_H-M    P1
_symmetry_Int_Tables_number       1
_symmetry_cell_setting            triclinic
loop_
_symmetry_equiv_pos_as_xyz
'x, y, z'
_cell_length_a     27.688789
_cell_length_b     28.606851
_cell_length_c     29.228689
_cell_angle_alpha  89.975868
_cell_angle_beta   94.84111
_cell_angle_gamma 89.932578
loop_
_atom_site_label
_atom_site_type_symbol
_atom_site_fract_x
_atom_site_fract_y
_atom_site_fract_z
_atom_type_partial_charge
Sc0 Sc 0.10739 0.89782 -0.00077 0.0
Sc1 Sc 0.12634 0.7803 0.97193 0.0
Sc2 Sc 0.22606 0.85331 0.0102 0.0
O3 O 0.1534 0.8437 0.99373 0.0
C4 C 0.1971 0.94878 0.95918 0.0
C5 C 0.06236 0.85019 0.90671 0.0
C6 C 0.22387 0.78784 0.92122 0.0
C7 C 0.04661 0.81364 0.0367 0.0
C8 C 0.18013 0.91134 0.08884 0.0
C9 C 0.20829 0.75138 0.0508 0.0
O10 O 0.15267 0.94537 0.96613 0.0
O11 O 0.07915 0.80954 0.916 0.0
O12 O 0.24429 0.81747 0.949 0.0
O13 O 0.05685 0.85658 0.03321 0.0
O14 O 0.21595 0.89036 0.07352 0.0
O15 O 0.16973 0.74358 0.02512 0.0
O16 O 0.13943 0.91612 0.06591 0.0
O17 O 0.06804 0.78125 0.01665 0.0
O18 O 0.23202 0.78932 0.04926 0.0
O19 O 0.07039 0.88498 0.93318 0.0
O20 O 0.22892 0.91883 0.97316 0.0
O21 O 0.18154 0.77199 0.92513 0.0
Sc22 Sc 0.71445 0.64846 0.50707 0.0
Sc23 Sc 0.61919 0.72594 0.46888 0.0
Sc24 Sc 0.59384 0.6126 0.50443 0.0
O25 O 0.64263 0.66249 0.49331 0.0
C26 C 0.67939 0.55092 0.46851 0.0
C27 C 0.71193 0.70784 0.41382 0.0
C28 C 0.55168 0.65311 0.40915 0.0
C29 C 0.70485 0.75209 0.5454 0.0
C30 C 0.66607 0.60317 0.59286 0.0
C31 C 0.53715 0.70426 0.53289 0.0
O32 O 0.71113 0.58295 0.47038 0.0
O33 O 0.67043 0.72546 0.41803 0.0
O34 O 0.562 0.61858 0.43559 0.0
O35 O 0.72483 0.71206 0.54538 0.0
O36 O 0.62312 0.60455 0.57383 0.0
O37 O 0.56503 0.73394 0.51681 0.0
O38 O 0.70319 0.61349 0.57177 0.0
O39 O 0.66821 0.76284 0.51808 0.0
O40 O 0.54191 0.66051 0.52822 0.0
O41 O 0.7332 0.68114 0.44406 0.0
O42 O 0.63767 0.55615 0.48258 0.0
O43 O 0.56626 0.69473 0.41815 0.0
Sc44 Sc 0.87177 0.22222 0.06266 0.0
Sc45 Sc 0.77197 0.14763 0.02813 0.0
Sc46 Sc 0.89075 0.10374 0.03978 0.0
O47 O 0.84468 0.15795 0.04373 0.0
C48 C 0.95089 0.18618 -0.00159 0.0
C49 C 0.79002 0.2473 0.98246 0.0
C50 C 0.81746 0.08732 0.95112 0.0
C51 C 0.77483 0.21642 0.11457 0.0
C52 C 0.93689 0.1553 0.12965 0.0
C53 C 0.8021 0.05427 0.08286 0.0
O54 O 0.92996 0.21936 0.01783 0.0
O55 O 0.76581 0.20992 0.98621 0.0
O56 O 0.85813 0.08295 0.97414 0.0
O57 O 0.81674 0.23268 0.10932 0.0
O58 O 0.92878 0.11942 0.10467 0.0
O59 O 0.7698 0.08335 0.06771 0.0
O60 O 0.91943 0.19544 0.11926 0.0
O61 O 0.75429 0.18566 0.08819 0.0
O62 O 0.84637 0.0577 0.07543 0.0
O63 O 0.82841 0.25622 0.00793 0.0
O64 O 0.94025 0.14352 0.00347 0.0
O65 O 0.78165 0.10873 0.96589 0.0
Sc66 Sc 0.40149 0.38124 0.52774 0.0
Sc67 Sc 0.28079 0.34868 0.53728 0.0
Sc68 Sc 0.37735 0.26901 0.56642 0.0
O69 O 0.35301 0.33286 0.54377 0.0
C70 C 0.44675 0.29119 0.48698 0.0
C71 C 0.31534 0.40042 0.45013 0.0
C72 C 0.28462 0.24365 0.49876 0.0
C73 C 0.32869 0.44149 0.58196 0.0
C74 C 0.45785 0.33295 0.61552 0.0
C75 C 0.29131 0.28938 0.63006 0.0
O76 O 0.43535 0.3341 0.48379 0.0
O77 O 0.28207 0.3797 0.46962 0.0
O78 O 0.32647 0.23445 0.51813 0.0
O79 O 0.371 0.43206 0.57077 0.0
O80 O 0.43052 0.29752 0.61715 0.0
O81 O 0.27085 0.32068 0.60428 0.0
O82 O 0.45267 0.36365 0.58418 0.0
O83 O 0.29167 0.41657 0.56985 0.0
O84 O 0.32813 0.26674 0.6193 0.0
O85 O 0.3582 0.40475 0.46842 0.0
O86 O 0.43151 0.26396 0.51705 0.0
O87 O 0.26315 0.28249 0.50404 0.0
H88 H 0.09426 0.04599 0.19261 0.0
H89 H 0.12055 0.14917 0.29846 0.0
H90 H 0.22497 0.03979 0.28315 0.0
H91 H 0.21518 0.06551 0.38304 0.0
C92 C 0.19715 0.09983 0.37599 0.0
O93 O 0.20338 0.11324 0.33154 0.0
H94 H 0.15796 0.09546 0.38101 0.0
C95 C 0.11678 0.05951 0.22182 0.0
C96 C 0.16113 0.03778 0.23519 0.0
C97 C 0.10186 0.09957 0.24424 0.0
C98 C 0.13163 0.11813 0.28085 0.0
C99 C 0.17558 0.09602 0.29533 0.0
C100 C 0.19067 0.05624 0.27217 0.0
H101 H 0.37365 0.63236 0.59484 0.0
H102 H 0.2864 0.63402 0.7095 0.0
H103 H 0.36646 0.75667 0.67668 0.0
H104 H 0.3693 0.74092 0.77252 0.0
C105 C 0.33625 0.71924 0.77483 0.0
O106 O 0.30859 0.72047 0.73334 0.0
H107 H 0.34806 0.68279 0.78331 0.0
C108 C 0.35813 0.65156 0.6221 0.0
C109 C 0.37274 0.69767 0.63152 0.0
C110 C 0.32716 0.62839 0.64992 0.0
C111 C 0.30922 0.65205 0.68686 0.0
C112 C 0.32306 0.69856 0.69604 0.0
C113 C 0.35461 0.72137 0.66833 0.0
H114 H 0.86472 0.87606 0.09755 0.0
H115 H 0.77819 0.8594 0.21206 0.0
H116 H 0.89045 0.76002 0.18989 0.0
H117 H 0.81201 0.71222 0.22674 0.0
C118 C 0.7913 0.74286 0.23802 0.0
O119 O 0.82098 0.78154 0.24135 0.0
H120 H 0.7603 0.7486 0.21173 0.0
C121 C 0.85442 0.85566 0.12648 0.0
C122 C 0.88108 0.81558 0.13991 0.0
C123 C 0.81766 0.87211 0.15252 0.0
C124 C 0.80605 0.8468 0.19124 0.0
C125 C 0.83168 0.80579 0.20395 0.0
C126 C 0.86967 0.79073 0.17882 0.0
H127 H 0.60034 0.45988 0.68725 0.0
H128 H 0.63059 0.35542 0.79138 0.0
H129 H 0.71422 0.48252 0.79419 0.0
H130 H 0.77468 0.40319 0.82984 0.0
C131 C 0.74444 0.3778 0.83107 0.0
O132 O 0.7019 0.402 0.83513 0.0
H133 H 0.74267 0.35733 0.79853 0.0
C134 C 0.62056 0.44849 0.71875 0.0
C135 C 0.65744 0.47688 0.73909 0.0
C136 C 0.61106 0.40453 0.73689 0.0
C137 C 0.63742 0.38954 0.7772 0.0
C138 C 0.67451 0.41781 0.79794 0.0
C139 C 0.68474 0.4614 0.77875 0.0
H140 H 0.6195 0.35621 0.44566 0.0
H141 H 0.62138 0.24871 0.34342 0.0
H142 H 0.72188 0.36298 0.34278 0.0
H143 H 0.67044 0.3386 0.25496 0.0
C144 C 0.66933 0.29985 0.25849 0.0
O145 O 0.69086 0.28667 0.30076 0.0
H146 H 0.63055 0.28919 0.2552 0.0
C147 C 0.63643 0.34064 0.41717 0.0
C148 C 0.67359 0.36464 0.39726 0.0
C149 C 0.61768 0.29882 0.39815 0.0
C150 C 0.63687 0.28007 0.35942 0.0
C151 C 0.67466 0.30316 0.33984 0.0
C152 C 0.69332 0.34506 0.3589 0.0
H153 H 0.13515 0.12641 0.94406 0.0
H154 H 0.11699 0.24592 0.85525 0.0
H155 H 0.23137 0.14734 0.83778 0.0
H156 H 0.25102 0.25609 0.83763 0.0
C157 C 0.22064 0.26253 0.81089 0.0
O158 O 0.18949 0.22502 0.80729 0.0
H159 H 0.20077 0.29408 0.82128 0.0
C160 C 0.14815 0.14806 0.91717 0.0
C161 C 0.18738 0.13281 0.89377 0.0
C162 C 0.12261 0.18863 0.90342 0.0
C163 C 0.13744 0.21524 0.86704 0.0
C164 C 0.17732 0.20085 0.84413 0.0
C165 C 0.20207 0.15943 0.85713 0.0
H166 H 0.39337 0.53674 0.34801 0.0
H167 H 0.36348 0.64596 0.24849 0.0
H168 H 0.25696 0.53933 0.26613 0.0
H169 H 0.25385 0.56898 0.16859 0.0
C170 C 0.27756 0.60016 0.17427 0.0
O171 O 0.27744 0.61416 0.21942 0.0
H172 H 0.31469 0.58981 0.16612 0.0
C173 C 0.36966 0.55246 0.32077 0.0
C174 C 0.324 0.53269 0.30909 0.0
C175 C 0.38445 0.59314 0.29916 0.0
C176 C 0.35274 0.6144 0.26541 0.0
C177 C 0.30711 0.59454 0.2531 0.0
C178 C 0.29242 0.55416 0.27545 0.0
H179 H 0.9075 0.96091 0.84174 0.0
H180 H 0.88408 0.86196 0.73142 0.0
H181 H 0.77714 0.9679 0.75114 0.0
H182 H 0.73097 0.88393 0.71839 0.0
C183 C 0.76283 0.86505 0.70674 0.0
O184 O 0.79944 0.8965 0.70073 0.0
H185 H 0.7746 0.83921 0.73401 0.0
C186 C 0.88571 0.94829 0.81167 0.0
C187 C 0.84088 0.96937 0.79907 0.0
C188 C 0.9018 0.90969 0.78768 0.0
C189 C 0.87248 0.8921 0.75011 0.0
C190 C 0.8278 0.91354 0.7367 0.0
C191 C 0.81199 0.95206 0.76122 0.0
C192 C 0.14715 0.92957 0.16284 0.0
C193 C 0.18524 0.93394 0.13427 0.0
C194 C 0.14271 0.96046 0.19928 0.0
C195 C 0.17584 0.99725 0.20804 0.0
H196 H 0.11868 0.90415 0.15494 0.0
H197 H 0.11092 0.95792 0.21839 0.0
S198 S 0.28511 0.02019 0.14658 0.0
N199 N 0.25959 0.97434 0.12006 0.0
N200 N 0.25073 0.03334 0.18832 0.0
C201 C 0.21653 0.99938 0.18242 0.0
C202 C 0.22133 0.96746 0.14545 0.0
C203 C 0.44941 0.71708 0.5338 0.0
C204 C 0.49585 0.72 0.55682 0.0
C205 C 0.40821 0.71572 0.55836 0.0
C206 C 0.41246 0.71685 0.60662 0.0
H207 H 0.44519 0.71178 0.49696 0.0
H208 H 0.37327 0.70946 0.53979 0.0
S209 S 0.52609 0.72994 0.68209 0.0
N210 N 0.5439 0.72877 0.62956 0.0
N211 N 0.46636 0.72592 0.67615 0.0
C212 C 0.45846 0.72423 0.62966 0.0
C213 C 0.50037 0.72568 0.60456 0.0
C214 C 0.76839 0.97421 0.08201 0.0
C215 C 0.78884 0.01202 0.10745 0.0
C216 C 0.77314 0.92837 0.09904 0.0
C217 C 0.79778 0.91927 0.14222 0.0
H218 H 0.75319 0.97947 0.04699 0.0
H219 H 0.76113 0.89962 0.07681 0.0
S220 S 0.8526 0.00708 0.22389 0.0
N221 N 0.83067 0.03807 0.17914 0.0
N222 N 0.83852 0.95212 0.21166 0.0
C223 C 0.81409 0.95728 0.16965 0.0
C224 C 0.80991 0.00372 0.15206 0.0
C225 C 0.49243 0.34708 0.69608 0.0
C226 C 0.49936 0.3388 0.64967 0.0
C227 C 0.53044 0.36471 0.72617 0.0
C228 C 0.57607 0.37403 0.71041 0.0
H229 H 0.45673 0.34335 0.70821 0.0
H230 H 0.52313 0.37428 0.76077 0.0
S231 S 0.61374 0.35176 0.59371 0.0
N232 N 0.55604 0.33657 0.59072 0.0
N233 N 0.62745 0.36867 0.64725 0.0
C234 C 0.58423 0.36199 0.66517 0.0
C235 C 0.54576 0.34466 0.63471 0.0
C236 C 0.69509 0.46633 0.47901 0.0
C237 C 0.69032 0.50505 0.44949 0.0
C238 C 0.69379 0.42073 0.46157 0.0
C239 C 0.68681 0.41234 0.41399 0.0
H240 H 0.69731 0.47132 0.51589 0.0
H241 H 0.69549 0.39178 0.48557 0.0
S242 S 0.67403 0.50277 0.3226 0.0
N243 N 0.68079 0.53287 0.37092 0.0
N244 N 0.67702 0.44711 0.3377 0.0
C245 C 0.68453 0.45107 0.38408 0.0
C246 C 0.68641 0.49752 0.40198 0.0
C247 C 0.99416 0.16916 0.92969 0.0
C248 C 0.99056 0.19616 0.96944 0.0
C249 C 0.03612 0.16992 0.90638 0.0
C250 C 0.07591 0.19751 0.92219 0.0
H251 H 0.96521 0.14552 0.9178 0.0
H252 H 0.03859 0.14673 0.87734 0.0
S253 S 0.08377 0.27679 0.02253 0.0
N254 N 0.02908 0.25356 0.02189 0.0
N255 N 0.10867 0.25443 0.97795 0.0
C256 C 0.07196 0.22671 0.96019 0.0
C257 C 0.02892 0.22628 0.98384 0.0
C258 C 0.27158 0.46041 0.40056 0.0
C259 C 0.30505 0.42335 0.40529 0.0
C260 C 0.27416 0.49378 0.36547 0.0
C261 C 0.31017 0.49067 0.33437 0.0
H262 H 0.24668 0.4663 0.42665 0.0
H263 H 0.25101 0.52434 0.36539 0.0
S264 S 0.39982 0.39531 0.32733 0.0
N265 N 0.37022 0.38175 0.37226 0.0
N266 N 0.37478 0.44407 0.30633 0.0
C267 C 0.34004 0.45096 0.33585 0.0
C268 C 0.33754 0.41732 0.37139 0.0
C269 C 0.02877 0.90117 0.84302 0.0
C270 C 0.02829 0.85782 0.86568 0.0
C271 C 0.98945 0.91562 0.81315 0.0
C272 C 0.94804 0.88741 0.80516 0.0
H273 H 0.05829 0.9255 0.85089 0.0
H274 H 0.98975 0.9507 0.79916 0.0
S275 S 0.93143 0.7684 0.8513 0.0
N276 N 0.98551 0.78456 0.874 0.0
N277 N 0.91101 0.8122 0.8182 0.0
C278 C 0.949 0.84222 0.82407 0.0
C279 C 0.98935 0.82728 0.85434 0.0
C280 C 0.85041 0.07404 0.87632 0.0
C281 C 0.8132 0.06601 0.90519 0.0
C282 C 0.85586 0.04542 0.83838 0.0
C283 C 0.82462 0.00744 0.82835 0.0
H284 H 0.87744 0.10071 0.88491 0.0
H285 H 0.88703 0.0507 0.81891 0.0
S286 S 0.71843 0.97483 0.89061 0.0
N287 N 0.74179 0.02065 0.91888 0.0
N288 N 0.75253 0.96594 0.84766 0.0
C289 C 0.78478 0.0015 0.85459 0.0
C290 C 0.77897 0.03106 0.89315 0.0
C291 C 0.48556 0.29122 0.41371 0.0
C292 C 0.48592 0.27591 0.45946 0.0
C293 C 0.52843 0.29302 0.39161 0.0
C294 C 0.5729 0.28027 0.41492 0.0
H295 H 0.45275 0.30563 0.39632 0.0
H296 H 0.52749 0.3088 0.35782 0.0
S297 S 0.59222 0.23192 0.53246 0.0
N298 N 0.53334 0.24223 0.52517 0.0
N299 N 0.61433 0.24712 0.48384 0.0
C300 C 0.5731 0.26092 0.45899 0.0
C301 C 0.52931 0.2582 0.48122 0.0
C302 C 0.23108 0.02869 0.96382 0.0
C303 C 0.21137 0.99181 0.93659 0.0
C304 C 0.22822 0.07492 0.9477 0.0
C305 C 0.20626 0.08529 0.90371 0.0
H306 H 0.2443 0.0224 -0.00075 0.0
H307 H 0.23946 0.10299 0.97108 0.0
S308 S 0.15438 0.00019 0.8177 0.0
N309 N 0.17309 0.96791 0.86263 0.0
N310 N 0.16881 0.05464 0.83182 0.0
C311 C 0.19071 0.04817 0.87475 0.0
C312 C 0.19293 0.00133 0.89139 0.0
C313 C 0.47575 0.67399 0.36118 0.0
C314 C 0.516 0.6442 0.36967 0.0
C315 C 0.43421 0.65898 0.33421 0.0
C316 C 0.43199 0.6139 0.31489 0.0
H317 H 0.47456 0.70724 0.37878 0.0
H318 H 0.40235 0.68115 0.33175 0.0
S319 S 0.53169 0.52703 0.31873 0.0
N320 N 0.55392 0.57086 0.35065 0.0
N321 N 0.47625 0.54298 0.2997 0.0
C322 C 0.47395 0.58606 0.31903 0.0
C323 C 0.51592 0.60115 0.34652 0.0
C324 C 0.28277 0.51475 0.5965 0.0
C325 C 0.32271 0.48519 0.60783 0.0
C326 C 0.28199 0.56066 0.61359 0.0
C327 C 0.32058 0.57771 0.64317 0.0
H328 H 0.25378 0.50363 0.5717 0.0
H329 H 0.25271 0.5838 0.60131 0.0
S330 S 0.42988 0.5123 0.68831 0.0
N331 N 0.39913 0.47477 0.65425 0.0
N332 N 0.39715 0.56068 0.68652 0.0
C333 C 0.35863 0.54734 0.65756 0.0
C334 C 0.3598 0.50107 0.63988 0.0
C335 C 0.96069 0.79277 0.04356 0.0
C336 C 0.00701 0.8021 0.06489 0.0
C337 C 0.91982 0.794 0.06882 0.0
C338 C 0.92441 0.80391 0.11611 0.0
H339 H 0.95566 0.78777 0.00671 0.0
H340 H 0.88424 0.78959 0.05092 0.0
S341 S 0.03844 0.8278 0.18789 0.0
N342 N 0.05568 0.8194 0.13576 0.0
N343 N 0.97902 0.82069 0.18357 0.0
C344 C 0.97093 0.81041 0.13818 0.0
C345 C 0.01229 0.80984 0.11239 0.0
C346 C 0.71084 0.55165 0.65123 0.0
C347 C 0.67226 0.58267 0.63947 0.0
C348 C 0.70906 0.52061 0.68832 0.0
C349 C 0.66891 0.52011 0.71473 0.0
H350 H 0.74012 0.54807 0.62913 0.0
H351 H 0.73673 0.49386 0.6934 0.0
S352 S 0.56418 0.60107 0.70425 0.0
N353 N 0.59713 0.61637 0.66215 0.0
N354 N 0.59388 0.55776 0.73138 0.0
C355 C 0.6332 0.55458 0.70666 0.0
C356 C 0.63487 0.58601 0.66908 0.0
C357 C 0.97246 0.10852 0.19548 0.0
C358 C 0.97278 0.14983 0.16946 0.0
C359 C 0.01319 0.09481 0.22387 0.0
C360 C 0.0557 0.12182 0.22697 0.0
H361 H 0.94176 0.08497 0.19132 0.0
H362 H 0.01278 0.06109 0.24074 0.0
S363 S 0.07355 0.23496 0.16915 0.0
N364 N 0.0175 0.21965 0.15161 0.0
N365 N 0.09451 0.19347 0.20487 0.0
C366 C 0.05514 0.1651 0.20426 0.0
C367 C 0.01345 0.17925 0.17546 0.0
C368 C 0.19713 0.67501 0.09071 0.0
C369 C 0.22649 0.71413 0.08341 0.0
C370 C 0.21357 0.63864 0.12017 0.0
C371 C 0.26017 0.63972 0.14316 0.0
H372 H 0.16101 0.67227 0.07356 0.0
H373 H 0.18975 0.6093 0.12472 0.0
S374 S 0.35121 0.73385 0.1376 0.0
N375 N 0.30457 0.75169 0.10304 0.0
N376 N 0.33507 0.68297 0.15813 0.0
C377 C 0.28969 0.67863 0.13694 0.0
C378 C 0.27301 0.71586 0.10712 0.0
C379 C 0.76314 0.77346 0.61231 0.0
C380 C 0.72239 0.7854 0.58225 0.0
C381 C 0.77652 0.80004 0.65153 0.0
C382 C 0.74962 0.83946 0.66249 0.0
H383 H 0.78421 0.74245 0.60643 0.0
H384 H 0.80736 0.7889 0.67423 0.0
S385 S 0.64398 0.88975 0.59302 0.0
N386 N 0.65802 0.84249 0.56453 0.0
N387 N 0.68373 0.89235 0.63835 0.0
C388 C 0.71078 0.85368 0.63161 0.0
C389 C 0.69699 0.82664 0.59153 0.0
C390 C 0.76073 0.28029 0.17017 0.0
C391 C 0.74813 0.23588 0.15206 0.0
C392 C 0.73509 0.3006 0.20432 0.0
C393 C 0.69582 0.27739 0.22151 0.0
H394 H 0.79019 0.29997 0.15742 0.0
H395 H 0.74584 0.33489 0.21719 0.0
S396 S 0.65103 0.15885 0.18951 0.0
N397 N 0.69556 0.16808 0.15641 0.0
N398 N 0.64761 0.20653 0.22092 0.0
C399 C 0.68375 0.23247 0.20503 0.0
C400 C 0.70969 0.21174 0.17008 0.0
C401 C 0.23431 0.3076 0.68994 0.0
C402 C 0.27315 0.2808 0.67577 0.0
C403 C 0.21803 0.30205 0.73371 0.0
C404 C 0.24027 0.26991 0.76513 0.0
H405 H 0.21634 0.33333 0.66724 0.0
H406 H 0.18781 0.32306 0.74304 0.0
S407 S 0.34107 0.18927 0.74523 0.0
N408 N 0.33206 0.21928 0.69701 0.0
N409 N 0.301 0.20933 0.77909 0.0
C410 C 0.27828 0.24224 0.75143 0.0
C411 C 0.29491 0.24765 0.70688 0.0
C412 C 0.71059 0.74673 0.33701 0.0
C413 C 0.73484 0.71763 0.37057 0.0
C414 C 0.72916 0.75469 0.29468 0.0
C415 C 0.77249 0.73359 0.2839 0.0
H416 H 0.67654 0.76334 0.34309 0.0
H417 H 0.7092 0.77719 0.26994 0.0
S418 S 0.85247 0.65753 0.35994 0.0
N419 N 0.80644 0.66967 0.39039 0.0
N420 N 0.84115 0.68506 0.31052 0.0
C421 C 0.79813 0.70576 0.31729 0.0
C422 C 0.77929 0.69755 0.3606 0.0
C423 C 0.79887 0.32448 0.94347 0.0
C424 C 0.77472 0.2812 0.94538 0.0
C425 C 0.78836 0.35571 0.90708 0.0
C426 C 0.75358 0.34481 0.87096 0.0
H427 H 0.82674 0.33425 0.96996 0.0
H428 H 0.80824 0.38829 0.90681 0.0
S429 S 0.67746 0.23833 0.86023 0.0
N430 N 0.71219 0.2306 0.90841 0.0
N431 N 0.69293 0.28961 0.84007 0.0
C432 C 0.7279 0.3027 0.87296 0.0
C433 C 0.73838 0.27081 0.91009 0.0
C434 C 0.28318 0.16362 0.46368 0.0
C435 C 0.26057 0.20745 0.46814 0.0
C436 C 0.26246 0.12907 0.43433 0.0
C437 C 0.2181 0.13673 0.40851 0.0
H438 H 0.31747 0.15579 0.48277 0.0
H439 H 0.28141 0.09615 0.43172 0.0
S440 S 0.14401 0.24473 0.40623 0.0
N441 N 0.191 0.25628 0.44307 0.0
N442 N 0.15232 0.19087 0.3882 0.0
C443 C 0.19499 0.18005 0.41233 0.0
C444 C 0.21604 0.21544 0.44212 0.0
C445 C 0.29227 0.79467 0.87071 0.0
C446 C 0.25113 0.77031 0.88312 0.0
C447 C 0.31939 0.77833 0.83565 0.0
C448 C 0.30662 0.73684 0.81198 0.0
H449 H 0.30365 0.82674 0.88809 0.0
H450 H 0.35072 0.79818 0.82718 0.0
S451 S 0.20288 0.6596 0.83067 0.0
N452 N 0.19918 0.70219 0.86832 0.0
N453 N 0.25068 0.67175 0.80269 0.0
C454 C 0.2657 0.7122 0.82369 0.0
C455 C 0.23782 0.72886 0.85915 0.0
loop_
_geom_bond_atom_site_label_1
_geom_bond_atom_site_label_2
_geom_bond_distance
_geom_bond_site_symmetry_2
_ccdc_geom_bond_type
Sc0 O3 2.025 . S
Sc0 O10 2.105 1_554 S
Sc0 O13 2.105 . S
Sc0 O16 2.105 . S
Sc0 O19 2.105 1_554 S
Sc1 O3 2.025 1_556 S
Sc1 O11 2.105 . S
Sc1 O15 2.105 1_556 S
Sc1 O17 2.105 1_556 S
Sc1 O21 2.105 . S
Sc2 O3 2.025 . S
Sc2 O12 2.105 1_554 S
Sc2 O14 2.105 . S
Sc2 O18 2.105 . S
Sc2 O20 2.105 1_554 S
O3 Sc0 2.025 . S
O3 Sc1 2.025 1_554 S
O3 Sc2 2.025 . S
C4 O10 1.268 . S
C4 O20 1.268 . S
C5 O11 1.268 . S
C5 O19 1.268 . S
C6 O12 1.268 . S
C6 O21 1.268 . S
C7 O13 1.268 . S
C7 O17 1.268 . S
C8 O14 1.268 . S
C8 O16 1.268 . S
C9 O15 1.268 . S
C9 O18 1.268 . S
O10 Sc0 2.105 1_556 S
O10 C4 1.268 . S
O11 Sc1 2.105 . S
O11 C5 1.268 . S
O12 Sc2 2.105 1_556 S
O12 C6 1.268 . S
O13 Sc0 2.105 . S
O13 C7 1.268 . S
O14 Sc2 2.105 . S
O14 C8 1.268 . S
O15 Sc1 2.105 1_554 S
O15 C9 1.268 . S
O16 Sc0 2.105 . S
O16 C8 1.268 . S
O17 Sc1 2.105 1_554 S
O17 C7 1.268 . S
O18 Sc2 2.105 . S
O18 C9 1.268 . S
O19 Sc0 2.105 1_556 S
O19 C5 1.268 . S
O20 Sc2 2.105 1_556 S
O20 C4 1.268 . S
O21 Sc1 2.105 . S
O21 C6 1.268 . S
Sc22 O25 2.025 . S
Sc22 O32 2.105 . S
Sc22 O35 2.105 . S
Sc22 O38 2.105 . S
Sc22 O41 2.105 . S
Sc23 O25 2.025 . S
Sc23 O33 2.105 . S
Sc23 O37 2.105 . S
Sc23 O39 2.105 . S
Sc23 O43 2.105 . S
Sc24 O25 2.025 . S
Sc24 O34 2.105 . S
Sc24 O36 2.105 . S
Sc24 O40 2.105 . S
Sc24 O42 2.105 . S
O25 Sc22 2.025 . S
O25 Sc23 2.025 . S
O25 Sc24 2.025 . S
C26 O32 1.268 . S
C26 O42 1.268 . S
C27 O33 1.268 . S
C27 O41 1.268 . S
C28 O34 1.268 . S
C28 O43 1.268 . S
C29 O35 1.268 . S
C29 O39 1.268 . S
C30 O36 1.268 . S
C30 O38 1.268 . S
C31 O37 1.268 . S
C31 O40 1.268 . S
O32 Sc22 2.105 . S
O32 C26 1.268 . S
O33 Sc23 2.105 . S
O33 C27 1.268 . S
O34 Sc24 2.105 . S
O34 C28 1.268 . S
O35 Sc22 2.105 . S
O35 C29 1.268 . S
O36 Sc24 2.105 . S
O36 C30 1.268 . S
O37 Sc23 2.105 . S
O37 C31 1.268 . S
O38 Sc22 2.105 . S
O38 C30 1.268 . S
O39 Sc23 2.105 . S
O39 C29 1.268 . S
O40 Sc24 2.105 . S
O40 C31 1.268 . S
O41 Sc22 2.105 . S
O41 C27 1.268 . S
O42 Sc24 2.105 . S
O42 C26 1.268 . S
O43 Sc23 2.105 . S
O43 C28 1.268 . S
Sc44 O47 2.025 . S
Sc44 O54 2.105 . S
Sc44 O57 2.105 . S
Sc44 O60 2.105 . S
Sc44 O63 2.105 . S
Sc45 O47 2.025 . S
Sc45 O55 2.105 1_554 S
Sc45 O59 2.105 . S
Sc45 O61 2.105 . S
Sc45 O65 2.105 1_554 S
Sc46 O47 2.025 . S
Sc46 O56 2.105 1_554 S
Sc46 O58 2.105 . S
Sc46 O62 2.105 . S
Sc46 O64 2.105 1_554 S
O47 Sc44 2.025 . S
O47 Sc45 2.025 . S
O47 Sc46 2.025 . S
C48 O54 1.268 1_556 S
C48 O64 1.268 . S
C49 O55 1.268 . S
C49 O63 1.268 1_556 S
C50 O56 1.268 . S
C50 O65 1.268 . S
C51 O57 1.268 . S
C51 O61 1.268 . S
C52 O58 1.268 . S
C52 O60 1.268 . S
C53 O59 1.268 . S
C53 O62 1.268 . S
O54 Sc44 2.105 . S
O54 C48 1.268 1_554 S
O55 Sc45 2.105 1_556 S
O55 C49 1.268 . S
O56 Sc46 2.105 1_556 S
O56 C50 1.268 . S
O57 Sc44 2.105 . S
O57 C51 1.268 . S
O58 Sc46 2.105 . S
O58 C52 1.268 . S
O59 Sc45 2.105 . S
O59 C53 1.268 . S
O60 Sc44 2.105 . S
O60 C52 1.268 . S
O61 Sc45 2.105 . S
O61 C51 1.268 . S
O62 Sc46 2.105 . S
O62 C53 1.268 . S
O63 Sc44 2.105 . S
O63 C49 1.268 1_554 S
O64 Sc46 2.105 1_556 S
O64 C48 1.268 . S
O65 Sc45 2.105 1_556 S
O65 C50 1.268 . S
Sc66 O69 2.025 . S
Sc66 O76 2.105 . S
Sc66 O79 2.105 . S
Sc66 O82 2.105 . S
Sc66 O85 2.105 . S
Sc67 O69 2.025 . S
Sc67 O77 2.105 . S
Sc67 O81 2.105 . S
Sc67 O83 2.105 . S
Sc67 O87 2.105 . S
Sc68 O69 2.025 . S
Sc68 O78 2.105 . S
Sc68 O80 2.105 . S
Sc68 O84 2.105 . S
Sc68 O86 2.105 . S
O69 Sc66 2.025 . S
O69 Sc67 2.025 . S
O69 Sc68 2.025 . S
C70 O76 1.268 . S
C70 O86 1.268 . S
C71 O77 1.268 . S
C71 O85 1.268 . S
C72 O78 1.268 . S
C72 O87 1.268 . S
C73 O79 1.268 . S
C73 O83 1.268 . S
C74 O80 1.268 . S
C74 O82 1.268 . S
C75 O81 1.268 . S
C75 O84 1.268 . S
O76 Sc66 2.105 . S
O76 C70 1.268 . S
O77 Sc67 2.105 . S
O77 C71 1.268 . S
O78 Sc68 2.105 . S
O78 C72 1.268 . S
O79 Sc66 2.105 . S
O79 C73 1.268 . S
O80 Sc68 2.105 . S
O80 C74 1.268 . S
O81 Sc67 2.105 . S
O81 C75 1.268 . S
O82 Sc66 2.105 . S
O82 C74 1.268 . S
O83 Sc67 2.105 . S
O83 C73 1.268 . S
O84 Sc68 2.105 . S
O84 C75 1.268 . S
O85 Sc66 2.105 . S
O85 C71 1.268 . S
O86 Sc68 2.105 . S
O86 C70 1.268 . S
O87 Sc67 2.105 . S
O87 C72 1.268 . S
H88 C95 0.929 . S
H89 C98 0.930 . S
H90 C100 0.929 . S
H91 C92 0.969 . S
C92 H91 0.969 . S
C92 O93 1.550 . S
C92 H94 0.973 . S
O93 C92 1.550 . S
O93 C99 1.412 . S
H94 C92 0.973 . S
C95 H88 0.929 . S
C95 C96 1.400 . S
C95 C97 1.364 . S
C96 C95 1.400 . S
C96 C100 1.377 . S
C97 C95 1.364 . S
C97 C98 1.374 . S
C98 H89 0.930 . S
C98 C97 1.374 . S
C98 C99 1.383 . S
C99 O93 1.412 . S
C99 C98 1.383 . S
C99 C100 1.394 . S
C100 H90 0.929 . S
C100 C96 1.377 . S
C100 C99 1.394 . S
H101 C108 0.929 . S
H102 C111 0.930 . S
H103 C113 0.929 . S
H104 C105 0.969 . S
C105 H104 0.969 . S
C105 O106 1.550 . S
C105 H107 0.973 . S
O106 C105 1.550 . S
O106 C112 1.412 . S
H107 C105 0.973 . S
C108 H101 0.929 . S
C108 C109 1.400 . S
C108 C110 1.364 . S
C109 C108 1.400 . S
C109 C113 1.377 . S
C110 C108 1.364 . S
C110 C111 1.374 . S
C111 H102 0.930 . S
C111 C110 1.374 . S
C111 C112 1.383 . S
C112 O106 1.412 . S
C112 C111 1.383 . S
C112 C113 1.394 . S
C113 H103 0.929 . S
C113 C109 1.377 . S
C113 C112 1.394 . S
H114 C121 0.929 . S
H115 C124 0.930 . S
H116 C126 0.929 . S
H117 C118 0.969 . S
C118 H117 0.969 . S
C118 O119 1.550 . S
C118 H120 0.973 . S
O119 C118 1.550 . S
O119 C125 1.412 . S
H120 C118 0.973 . S
C121 H114 0.929 . S
C121 C122 1.400 . S
C121 C123 1.364 . S
C122 C121 1.400 . S
C122 C126 1.377 . S
C123 C121 1.364 . S
C123 C124 1.374 . S
C124 H115 0.930 . S
C124 C123 1.374 . S
C124 C125 1.383 . S
C125 O119 1.412 . S
C125 C124 1.383 . S
C125 C126 1.394 . S
C126 H116 0.929 . S
C126 C122 1.377 . S
C126 C125 1.394 . S
H127 C134 0.929 . S
H128 C137 0.930 . S
H129 C139 0.929 . S
H130 C131 0.969 . S
C131 H130 0.969 . S
C131 O132 1.550 . S
C131 H133 0.973 . S
O132 C131 1.550 . S
O132 C138 1.412 . S
H133 C131 0.973 . S
C134 H127 0.929 . S
C134 C135 1.400 . S
C134 C136 1.364 . S
C135 C134 1.400 . S
C135 C139 1.377 . S
C136 C134 1.364 . S
C136 C137 1.374 . S
C137 H128 0.930 . S
C137 C136 1.374 . S
C137 C138 1.383 . S
C138 O132 1.412 . S
C138 C137 1.383 . S
C138 C139 1.394 . S
C139 H129 0.929 . S
C139 C135 1.377 . S
C139 C138 1.394 . S
H140 C147 0.929 . S
H141 C150 0.930 . S
H142 C152 0.929 . S
H143 C144 0.969 . S
C144 H143 0.969 . S
C144 O145 1.550 . S
C144 H146 0.973 . S
O145 C144 1.550 . S
O145 C151 1.412 . S
H146 C144 0.973 . S
C147 H140 0.929 . S
C147 C148 1.400 . S
C147 C149 1.364 . S
C148 C147 1.400 . S
C148 C152 1.377 . S
C149 C147 1.364 . S
C149 C150 1.374 . S
C150 H141 0.930 . S
C150 C149 1.374 . S
C150 C151 1.383 . S
C151 O145 1.412 . S
C151 C150 1.383 . S
C151 C152 1.394 . S
C152 H142 0.929 . S
C152 C148 1.377 . S
C152 C151 1.394 . S
H153 C160 0.929 . S
H154 C163 0.930 . S
H155 C165 0.929 . S
H156 C157 0.969 . S
C157 H156 0.969 . S
C157 O158 1.550 . S
C157 H159 0.973 . S
O158 C157 1.550 . S
O158 C164 1.412 . S
H159 C157 0.973 . S
C160 H153 0.929 . S
C160 C161 1.400 . S
C160 C162 1.364 . S
C161 C160 1.400 . S
C161 C165 1.377 . S
C162 C160 1.364 . S
C162 C163 1.374 . S
C163 H154 0.930 . S
C163 C162 1.374 . S
C163 C164 1.383 . S
C164 O158 1.412 . S
C164 C163 1.383 . S
C164 C165 1.394 . S
C165 H155 0.929 . S
C165 C161 1.377 . S
C165 C164 1.394 . S
H166 C173 0.929 . S
H167 C176 0.930 . S
H168 C178 0.929 . S
H169 C170 0.969 . S
C170 H169 0.969 . S
C170 O171 1.550 . S
C170 H172 0.973 . S
O171 C170 1.550 . S
O171 C177 1.412 . S
H172 C170 0.973 . S
C173 H166 0.929 . S
C173 C174 1.400 . S
C173 C175 1.364 . S
C174 C173 1.400 . S
C174 C178 1.377 . S
C175 C173 1.364 . S
C175 C176 1.374 . S
C176 H167 0.930 . S
C176 C175 1.374 . S
C176 C177 1.383 . S
C177 O171 1.412 . S
C177 C176 1.383 . S
C177 C178 1.394 . S
C178 H168 0.929 . S
C178 C174 1.377 . S
C178 C177 1.394 . S
H179 C186 0.929 . S
H180 C189 0.930 . S
H181 C191 0.929 . S
H182 C183 0.969 . S
C183 H182 0.969 . S
C183 O184 1.550 . S
C183 H185 0.973 . S
O184 C183 1.550 . S
O184 C190 1.412 . S
H185 C183 0.973 . S
C186 H179 0.929 . S
C186 C187 1.400 . S
C186 C188 1.364 . S
C187 C186 1.400 . S
C187 C191 1.377 . S
C188 C186 1.364 . S
C188 C189 1.374 . S
C189 H180 0.930 . S
C189 C188 1.374 . S
C189 C190 1.383 . S
C190 O184 1.412 . S
C190 C189 1.383 . S
C190 C191 1.394 . S
C191 H181 0.929 . S
C191 C187 1.377 . S
C191 C190 1.394 . S
C192 C193 1.369 . S
C192 C194 1.419 . S
C192 H196 0.930 . S
C193 C192 1.369 . S
C193 C202 1.429 . S
C194 C192 1.419 . S
C194 C195 1.363 . S
C194 H197 0.927 1_565 S
C195 C194 1.363 . S
C195 C201 1.428 . S
H196 C192 0.930 . S
H197 C194 0.927 1_545 S
S198 N199 1.613 . S
S198 N200 1.610 . S
N199 S198 1.613 . S
N199 C202 1.350 . S
N200 S198 1.610 . S
N200 C201 1.351 . S
C201 C195 1.428 . S
C201 N200 1.351 . S
C201 C202 1.434 . S
C202 C193 1.429 . S
C202 N199 1.350 . S
C202 C201 1.434 . S
C203 C204 1.369 . S
C203 C205 1.419 . S
C203 H207 0.930 . S
C204 C203 1.369 . S
C204 C213 1.429 . S
C205 C203 1.419 . S
C205 C206 1.363 . S
C205 H208 0.929 . S
C206 C205 1.363 . S
C206 C212 1.428 . S
H207 C203 0.930 . S
H208 C205 0.929 . S
S209 N210 1.613 . S
S209 N211 1.610 . S
N210 S209 1.613 . S
N210 C213 1.350 . S
N211 S209 1.610 . S
N211 C212 1.351 . S
C212 C206 1.428 . S
C212 N211 1.351 . S
C212 C213 1.434 . S
C213 C204 1.429 . S
C213 N210 1.350 . S
C213 C212 1.434 . S
C214 C215 1.369 . S
C214 C216 1.419 . S
C214 H218 0.930 . S
C215 C214 1.369 . S
C215 C224 1.429 . S
C216 C214 1.419 . S
C216 C217 1.363 . S
C216 H219 0.929 . S
C217 C216 1.363 . S
C217 C223 1.428 . S
H218 C214 0.930 . S
H219 C216 0.929 . S
S220 N221 1.613 1_565 S
S220 N222 1.610 . S
N221 S220 1.613 1_545 S
N221 C224 1.350 1_545 S
N222 S220 1.610 . S
N222 C223 1.351 . S
C223 C217 1.428 . S
C223 N222 1.351 . S
C223 C224 1.434 . S
C224 C215 1.429 . S
C224 N221 1.350 1_565 S
C224 C223 1.434 . S
C225 C226 1.369 . S
C225 C227 1.419 . S
C225 H229 0.930 . S
C226 C225 1.369 . S
C226 C235 1.429 . S
C227 C225 1.419 . S
C227 C228 1.363 . S
C227 H230 0.929 . S
C228 C227 1.363 . S
C228 C234 1.428 . S
H229 C225 0.930 . S
H230 C227 0.929 . S
S231 N232 1.613 . S
S231 N233 1.610 . S
N232 S231 1.613 . S
N232 C235 1.350 . S
N233 S231 1.610 . S
N233 C234 1.351 . S
C234 C228 1.428 . S
C234 N233 1.351 . S
C234 C235 1.434 . S
C235 C226 1.429 . S
C235 N232 1.350 . S
C235 C234 1.434 . S
C236 C237 1.369 . S
C236 C238 1.419 . S
C236 H240 0.930 . S
C237 C236 1.369 . S
C237 C246 1.429 . S
C238 C236 1.419 . S
C238 C239 1.363 . S
C238 H241 0.929 . S
C239 C238 1.363 . S
C239 C245 1.428 . S
H240 C236 0.930 . S
H241 C238 0.929 . S
S242 N243 1.613 . S
S242 N244 1.610 . S
N243 S242 1.613 . S
N243 C246 1.350 . S
N244 S242 1.610 . S
N244 C245 1.351 . S
C245 C239 1.428 . S
C245 N244 1.351 . S
C245 C246 1.434 . S
C246 C237 1.429 . S
C246 N243 1.350 . S
C246 C245 1.434 . S
C247 C248 1.369 . S
C247 C249 1.419 . S
C247 H251 0.930 . S
C248 C247 1.369 . S
C248 C257 1.429 . S
C249 C247 1.419 . S
C249 C250 1.363 . S
C249 H252 0.929 . S
C250 C249 1.363 . S
C250 C256 1.428 . S
H251 C247 0.930 . S
H252 C249 0.929 . S
S253 N254 1.613 . S
S253 N255 1.610 . S
N254 S253 1.613 . S
N254 C257 1.350 . S
N255 S253 1.610 . S
N255 C256 1.351 . S
C256 C250 1.428 . S
C256 N255 1.351 . S
C256 C257 1.434 . S
C257 C248 1.429 . S
C257 N254 1.350 . S
C257 C256 1.434 . S
C258 C259 1.369 . S
C258 C260 1.419 . S
C258 H262 0.930 . S
C259 C258 1.369 . S
C259 C268 1.429 . S
C260 C258 1.419 . S
C260 C261 1.363 . S
C260 H263 0.929 . S
C261 C260 1.363 . S
C261 C267 1.428 . S
H262 C258 0.930 . S
H263 C260 0.929 . S
S264 N265 1.613 . S
S264 N266 1.610 . S
N265 S264 1.613 . S
N265 C268 1.350 . S
N266 S264 1.610 . S
N266 C267 1.351 . S
C267 C261 1.428 . S
C267 N266 1.351 . S
C267 C268 1.434 . S
C268 C259 1.429 . S
C268 N265 1.350 . S
C268 C267 1.434 . S
C269 C270 1.369 . S
C269 C271 1.419 1_455 S
C269 H273 0.930 . S
C270 C269 1.369 . S
C270 C279 1.429 1_455 S
C271 C269 1.419 1_655 S
C271 C272 1.363 . S
C271 H274 0.929 . S
C272 C271 1.363 . S
C272 C278 1.428 . S
H273 C269 0.930 . S
H274 C271 0.929 . S
S275 N276 1.613 . S
S275 N277 1.610 . S
N276 S275 1.613 . S
N276 C279 1.350 . S
N277 S275 1.610 . S
N277 C278 1.351 . S
C278 C272 1.428 . S
C278 N277 1.351 . S
C278 C279 1.434 . S
C279 C270 1.429 1_655 S
C279 N276 1.350 . S
C279 C278 1.434 . S
C280 C281 1.369 . S
C280 C282 1.419 . S
C280 H284 0.930 . S
C281 C280 1.369 . S
C281 C290 1.429 . S
C282 C280 1.419 . S
C282 C283 1.343 1_545 S
C282 H285 0.929 . S
C283 C282 1.343 1_565 S
C283 C289 1.437 . S
H284 C280 0.930 . S
H285 C282 0.929 . S
S286 N287 1.613 . S
S286 N288 1.610 . S
N287 S286 1.613 . S
N287 C290 1.350 1_565 S
N288 S286 1.610 . S
N288 C289 1.351 . S
C289 C283 1.437 . S
C289 N288 1.351 . S
C289 C290 1.434 1_565 S
C290 C281 1.429 . S
C290 N287 1.350 1_545 S
C290 C289 1.434 1_545 S
C291 C292 1.369 . S
C291 C293 1.419 . S
C291 H295 0.930 . S
C292 C291 1.369 . S
C292 C301 1.429 . S
C293 C291 1.419 . S
C293 C294 1.363 . S
C293 H296 0.929 . S
C294 C293 1.363 . S
C294 C300 1.428 . S
H295 C291 0.930 . S
H296 C293 0.929 . S
S297 N298 1.613 . S
S297 N299 1.610 . S
N298 S297 1.613 . S
N298 C301 1.350 . S
N299 S297 1.610 . S
N299 C300 1.351 . S
C300 C294 1.428 . S
C300 N299 1.351 . S
C300 C301 1.434 . S
C301 C292 1.429 . S
C301 N298 1.350 . S
C301 C300 1.434 . S
C302 C303 1.369 1_545 S
C302 C304 1.419 . S
C302 H306 0.930 . S
C303 C302 1.369 1_565 S
C303 C312 1.429 1_565 S
C304 C302 1.419 . S
C304 C305 1.363 . S
C304 H307 0.929 . S
C305 C304 1.363 . S
C305 C311 1.428 . S
H306 C302 0.930 . S
H307 C304 0.929 . S
S308 N309 1.614 1_545 S
S308 N310 1.610 . S
N309 S308 1.614 1_565 S
N309 C312 1.350 1_565 S
N310 S308 1.610 . S
N310 C311 1.351 . S
C311 C305 1.428 . S
C311 N310 1.351 . S
C311 C312 1.434 . S
C312 C303 1.429 1_545 S
C312 N309 1.350 1_545 S
C312 C311 1.434 . S
C313 C314 1.369 . S
C313 C315 1.419 . S
C313 H317 0.930 . S
C314 C313 1.369 . S
C314 C323 1.429 . S
C315 C313 1.419 . S
C315 C316 1.363 . S
C315 H318 0.929 . S
C316 C315 1.363 . S
C316 C322 1.428 . S
H317 C313 0.930 . S
H318 C315 0.929 . S
S319 N320 1.613 . S
S319 N321 1.610 . S
N320 S319 1.613 . S
N320 C323 1.350 . S
N321 S319 1.610 . S
N321 C322 1.351 . S
C322 C316 1.428 . S
C322 N321 1.351 . S
C322 C323 1.434 . S
C323 C314 1.429 . S
C323 N320 1.350 . S
C323 C322 1.434 . S
C324 C325 1.369 . S
C324 C326 1.419 . S
C324 H328 0.930 . S
C325 C324 1.369 . S
C325 C334 1.429 . S
C326 C324 1.419 . S
C326 C327 1.363 . S
C326 H329 0.929 . S
C327 C326 1.363 . S
C327 C333 1.428 . S
H328 C324 0.930 . S
H329 C326 0.929 . S
S330 N331 1.613 . S
S330 N332 1.610 . S
N331 S330 1.613 . S
N331 C334 1.350 . S
N332 S330 1.610 . S
N332 C333 1.351 . S
C333 C327 1.428 . S
C333 N332 1.351 . S
C333 C334 1.434 . S
C334 C325 1.429 . S
C334 N331 1.350 . S
C334 C333 1.434 . S
C335 C336 1.369 1_655 S
C335 C337 1.419 . S
C335 H339 0.930 . S
C336 C335 1.369 1_455 S
C336 C345 1.429 . S
C337 C335 1.419 . S
C337 C338 1.363 . S
C337 H340 0.929 . S
C338 C337 1.363 . S
C338 C344 1.428 . S
H339 C335 0.930 . S
H340 C337 0.929 . S
S341 N342 1.613 . S
S341 N343 1.610 1_455 S
N342 S341 1.613 . S
N342 C345 1.350 . S
N343 S341 1.610 1_655 S
N343 C344 1.351 . S
C344 C338 1.428 . S
C344 N343 1.351 . S
C344 C345 1.434 1_655 S
C345 C336 1.429 . S
C345 N342 1.350 . S
C345 C344 1.434 1_455 S
C346 C347 1.369 . S
C346 C348 1.419 . S
C346 H350 0.930 . S
C347 C346 1.369 . S
C347 C356 1.429 . S
C348 C346 1.419 . S
C348 C349 1.363 . S
C348 H351 0.929 . S
C349 C348 1.363 . S
C349 C355 1.428 . S
H350 C346 0.930 . S
H351 C348 0.929 . S
S352 N353 1.613 . S
S352 N354 1.610 . S
N353 S352 1.613 . S
N353 C356 1.350 . S
N354 S352 1.610 . S
N354 C355 1.351 . S
C355 C349 1.428 . S
C355 N354 1.351 . S
C355 C356 1.434 . S
C356 C347 1.429 . S
C356 N353 1.350 . S
C356 C355 1.434 . S
C357 C358 1.369 . S
C357 C359 1.419 1_655 S
C357 H361 0.930 . S
C358 C357 1.369 . S
C358 C367 1.429 1_655 S
C359 C357 1.419 1_455 S
C359 C360 1.363 . S
C359 H362 0.929 . S
C360 C359 1.363 . S
C360 C366 1.428 . S
H361 C357 0.930 . S
H362 C359 0.929 . S
S363 N364 1.613 . S
S363 N365 1.610 . S
N364 S363 1.613 . S
N364 C367 1.350 . S
N365 S363 1.610 . S
N365 C366 1.351 . S
C366 C360 1.428 . S
C366 N365 1.351 . S
C366 C367 1.434 . S
C367 C358 1.429 1_455 S
C367 N364 1.350 . S
C367 C366 1.434 . S
C368 C369 1.369 . S
C368 C370 1.419 . S
C368 H372 0.930 . S
C369 C368 1.369 . S
C369 C378 1.429 . S
C370 C368 1.419 . S
C370 C371 1.363 . S
C370 H373 0.929 . S
C371 C370 1.363 . S
C371 C377 1.428 . S
H372 C368 0.930 . S
H373 C370 0.929 . S
S374 N375 1.613 . S
S374 N376 1.610 . S
N375 S374 1.613 . S
N375 C378 1.350 . S
N376 S374 1.610 . S
N376 C377 1.351 . S
C377 C371 1.428 . S
C377 N376 1.351 . S
C377 C378 1.434 . S
C378 C369 1.429 . S
C378 N375 1.350 . S
C378 C377 1.434 . S
C379 C380 1.369 . S
C379 C381 1.419 . S
C379 H383 0.930 . S
C380 C379 1.369 . S
C380 C389 1.429 . S
C381 C379 1.419 . S
C381 C382 1.363 . S
C381 H384 0.929 . S
C382 C381 1.363 . S
C382 C388 1.428 . S
H383 C379 0.930 . S
H384 C381 0.929 . S
S385 N386 1.613 . S
S385 N387 1.610 . S
N386 S385 1.613 . S
N386 C389 1.350 . S
N387 S385 1.610 . S
N387 C388 1.351 . S
C388 C382 1.428 . S
C388 N387 1.351 . S
C388 C389 1.434 . S
C389 C380 1.429 . S
C389 N386 1.350 . S
C389 C388 1.434 . S
C390 C391 1.369 . S
C390 C392 1.419 . S
C390 H394 0.930 . S
C391 C390 1.369 . S
C391 C400 1.429 . S
C392 C390 1.419 . S
C392 C393 1.363 . S
C392 H395 0.929 . S
C393 C392 1.363 . S
C393 C399 1.428 . S
H394 C390 0.930 . S
H395 C392 0.929 . S
S396 N397 1.613 . S
S396 N398 1.610 . S
N397 S396 1.613 . S
N397 C400 1.350 . S
N398 S396 1.610 . S
N398 C399 1.351 . S
C399 C393 1.428 . S
C399 N398 1.351 . S
C399 C400 1.434 . S
C400 C391 1.429 . S
C400 N397 1.350 . S
C400 C399 1.434 . S
C401 C402 1.369 . S
C401 C403 1.419 . S
C401 H405 0.930 . S
C402 C401 1.369 . S
C402 C411 1.429 . S
C403 C401 1.419 . S
C403 C404 1.363 . S
C403 H406 0.929 . S
C404 C403 1.363 . S
C404 C410 1.428 . S
H405 C401 0.930 . S
H406 C403 0.929 . S
S407 N408 1.613 . S
S407 N409 1.610 . S
N408 S407 1.613 . S
N408 C411 1.350 . S
N409 S407 1.610 . S
N409 C410 1.351 . S
C410 C404 1.428 . S
C410 N409 1.351 . S
C410 C411 1.434 . S
C411 C402 1.429 . S
C411 N408 1.350 . S
C411 C410 1.434 . S
C412 C413 1.369 . S
C412 C414 1.419 . S
C412 H416 0.930 . S
C413 C412 1.369 . S
C413 C422 1.429 . S
C414 C412 1.419 . S
C414 C415 1.363 . S
C414 H417 0.929 . S
C415 C414 1.363 . S
C415 C421 1.428 . S
H416 C412 0.930 . S
H417 C414 0.929 . S
S418 N419 1.613 . S
S418 N420 1.610 . S
N419 S418 1.613 . S
N419 C422 1.350 . S
N420 S418 1.610 . S
N420 C421 1.351 . S
C421 C415 1.428 . S
C421 N420 1.351 . S
C421 C422 1.434 . S
C422 C413 1.429 . S
C422 N419 1.350 . S
C422 C421 1.434 . S
C423 C424 1.369 . S
C423 C425 1.419 . S
C423 H427 0.930 . S
C424 C423 1.369 . S
C424 C433 1.429 . S
C425 C423 1.419 . S
C425 C426 1.363 . S
C425 H428 0.929 . S
C426 C425 1.363 . S
C426 C432 1.428 . S
H427 C423 0.930 . S
H428 C425 0.929 . S
S429 N430 1.613 . S
S429 N431 1.610 . S
N430 S429 1.613 . S
N430 C433 1.350 . S
N431 S429 1.610 . S
N431 C432 1.351 . S
C432 C426 1.428 . S
C432 N431 1.351 . S
C432 C433 1.434 . S
C433 C424 1.429 . S
C433 N430 1.350 . S
C433 C432 1.434 . S
C434 C435 1.369 . S
C434 C436 1.419 . S
C434 H438 0.930 . S
C435 C434 1.369 . S
C435 C444 1.429 . S
C436 C434 1.419 . S
C436 C437 1.363 . S
C436 H439 0.929 . S
C437 C436 1.363 . S
C437 C443 1.428 . S
H438 C434 0.930 . S
H439 C436 0.929 . S
S440 N441 1.613 . S
S440 N442 1.610 . S
N441 S440 1.613 . S
N441 C444 1.350 . S
N442 S440 1.610 . S
N442 C443 1.351 . S
C443 C437 1.428 . S
C443 N442 1.351 . S
C443 C444 1.434 . S
C444 C435 1.429 . S
C444 N441 1.350 . S
C444 C443 1.434 . S
C445 C446 1.369 . S
C445 C447 1.419 . S
C445 H449 0.930 . S
C446 C445 1.369 . S
C446 C455 1.429 . S
C447 C445 1.419 . S
C447 C448 1.363 . S
C447 H450 0.929 . S
C448 C447 1.363 . S
C448 C454 1.428 . S
H449 C445 0.930 . S
H450 C447 0.929 . S
S451 N452 1.613 . S
S451 N453 1.610 . S
N452 S451 1.613 . S
N452 C455 1.350 . S
N453 S451 1.610 . S
N453 C454 1.351 . S
C454 C448 1.428 . S
C454 N453 1.351 . S
C454 C455 1.434 . S
C455 C446 1.429 . S
C455 N452 1.350 . S
C455 C454 1.434 . S
C193 C8 1.404 . S
C195 C96 1.354 1_565 S
C204 C31 1.286 . S
C206 C109 1.264 . S
C215 C53 1.469 1_565 S
C217 C123 1.450 . S
C228 C136 1.392 . S
C226 C74 1.426 . S
C239 C148 1.326 . S
C237 C26 1.314 . S
C248 C48 1.482 1_455 S
C250 C162 1.418 . S
C259 C71 1.368 . S
C261 C174 1.318 . S
C270 C5 1.429 . S
C272 C188 1.398 . S
C281 C50 1.364 . S
C283 C187 1.319 . S
C294 C149 1.409 . S
C292 C70 1.478 . S
C305 C161 1.332 . S
C303 C4 1.315 . S
C314 C28 1.433 . S
C316 C175 1.406 . S
C327 C110 1.448 . S
C325 C73 1.469 . S
C336 C7 1.287 . S
C338 C122 1.269 . S
C349 C135 1.344 . S
C347 C30 1.403 . S
C360 C97 1.396 . S
C358 C52 1.427 . S
C371 C170 1.355 . S
C369 C9 1.393 . S
C382 C183 1.309 . S
C380 C29 1.393 . S
C391 C51 1.474 . S
C393 C144 1.406 . S
C404 C157 1.463 . S
C402 C75 1.474 . S
C415 C118 1.380 . S
C413 C27 1.416 . S
C424 C49 1.434 . S
C426 C131 1.337 . S
C437 C92 1.392 . S
C435 C72 1.438 . S
C448 C105 1.317 . S
C446 C6 1.416 . S
