# Generated by pormake.
# Topology pyr, (3,6)-cn, num edge types: 1
# Building blocks:
#     Node 0, Type 0, BuildingBlock: BELTOD_clean_linker_0, # of connection points: 3
#     Node 1, Type 0, BuildingBlock: BELTOD_clean_linker_0, # of connection points: 3
#     Node 2, Type 0, BuildingBlock: BELTOD_clean_linker_0, # of connection points: 3
#     Node 3, Type 0, BuildingBlock: BELTOD_clean_linker_0, # of connection points: 3
#     Node 4, Type 0, BuildingBlock: BELTOD_clean_linker_0, # of connection points: 3
#     Node 5, Type 0, BuildingBlock: BELTOD_clean_linker_0, # of connection points: 3
#     Node 6, Type 0, BuildingBlock: BELTOD_clean_linker_0, # of connection points: 3
#     Node 7, Type 0, BuildingBlock: BELTOD_clean_linker_0, # of connection points: 3
#     Node 8, Type 1, BuildingBlock: JUFBIX_clean_sbu_0, # of connection points: 6
#     Node 9, Type 1, BuildingBlock: JUFBIX_clean_sbu_0, # of connection points: 6
#     Node 10, Type 1, BuildingBlock: JUFBIX_clean_sbu_0, # of connection points: 6
#     Node 11, Type 1, BuildingBlock: JUFBIX_clean_sbu_0, # of connection points: 6
#     Edge 12, Type (0, 1), BuildingBlock: OJICUG_clean_linker_0, # of connection points: 2
#     Edge 13, Type (0, 1), BuildingBlock: OJICUG_clean_linker_0, # of connection points: 2
#     Edge 14, Type (0, 1), BuildingBlock: OJICUG_clean_linker_0, # of connection points: 2
#     Edge 15, Type (0, 1), BuildingBlock: OJICUG_clean_linker_0, # of connection points: 2
#     Edge 16, Type (0, 1), BuildingBlock: OJICUG_clean_linker_0, # of connection points: 2
#     Edge 17, Type (0, 1), BuildingBlock: OJICUG_clean_linker_0, # of connection points: 2
#     Edge 18, Type (0, 1), BuildingBlock: OJICUG_clean_linker_0, # of connection points: 2
#     Edge 19, Type (0, 1), BuildingBlock: OJICUG_clean_linker_0, # of connection points: 2
#     Edge 20, Type (0, 1), BuildingBlock: OJICUG_clean_linker_0, # of connection points: 2
#     Edge 21, Type (0, 1), BuildingBlock: OJICUG_clean_linker_0, # of connection points: 2
#     Edge 22, Type (0, 1), BuildingBlock: OJICUG_clean_linker_0, # of connection points: 2
#     Edge 23, Type (0, 1), BuildingBlock: OJICUG_clean_linker_0, # of connection points: 2
#     Edge 24, Type (0, 1), BuildingBlock: OJICUG_clean_linker_0, # of connection points: 2
#     Edge 25, Type (0, 1), BuildingBlock: OJICUG_clean_linker_0, # of connection points: 2
#     Edge 26, Type (0, 1), BuildingBlock: OJICUG_clean_linker_0, # of connection points: 2
#     Edge 27, Type (0, 1), BuildingBlock: OJICUG_clean_linker_0, # of connection points: 2
#     Edge 28, Type (0, 1), BuildingBlock: OJICUG_clean_linker_0, # of connection points: 2
#     Edge 29, Type (0, 1), BuildingBlock: OJICUG_clean_linker_0, # of connection points: 2
#     Edge 30, Type (0, 1), BuildingBlock: OJICUG_clean_linker_0, # of connection points: 2
#     Edge 31, Type (0, 1), BuildingBlock: OJICUG_clean_linker_0, # of connection points: 2
#     Edge 32, Type (0, 1), BuildingBlock: OJICUG_clean_linker_0, # of connection points: 2
#     Edge 33, Type (0, 1), BuildingBlock: OJICUG_clean_linker_0, # of connection points: 2
#     Edge 34, Type (0, 1), BuildingBlock: OJICUG_clean_linker_0, # of connection points: 2
#     Edge 35, Type (0, 1), BuildingBlock: OJICUG_clean_linker_0, # of connection points: 2
# Relax obj value: 0.078
# Max RMSD: 0.102
# Mean RMSD: 0.044
data_MOF--net-pry--node1-JUFBIX_clean_sbu_0--node2-BELTOD_clean_linker_0--edge1-OJICUG_clean_linker_0
_symmetry_space_group_name_H-M    P1
_symmetry_Int_Tables_number       1
_symmetry_cell_setting            triclinic
loop_
_symmetry_equiv_pos_as_xyz
'x, y, z'
_cell_length_a     32.841311
_cell_length_b     31.254461
_cell_length_c     32.560983
_cell_angle_alpha  81.490588
_cell_angle_beta   90.016618
_cell_angle_gamma 90.71129
loop_
_atom_site_label
_atom_site_type_symbol
_atom_site_fract_x
_atom_site_fract_y
_atom_site_fract_z
_atom_type_partial_charge
P0 P 0.22144 0.18257 0.20175 0.0
H1 H 0.2573 0.20495 0.11879 0.0
H2 H 0.30826 0.16945 0.08118 0.0
H3 H 0.30527 0.0591 0.17803 0.0
H4 H 0.25371 0.09442 0.21515 0.0
H5 H 0.18331 0.25802 0.22531 0.0
H6 H 0.13902 0.31339 0.18948 0.0
H7 H 0.13598 0.24626 0.08268 0.0
H8 H 0.18034 0.19025 0.11926 0.0
H9 H 0.23553 0.16825 0.29146 0.0
H10 H 0.14917 0.12492 0.20634 0.0
O11 O 0.25617 0.21259 0.22226 0.0
H12 H 0.1978 0.12977 0.34983 0.0
H13 H 0.11149 0.0845 0.26513 0.0
C14 C 0.25041 0.15181 0.16917 0.0
C15 C 0.26623 0.17235 0.13112 0.0
C16 C 0.29569 0.15214 0.10972 0.0
C17 C 0.31089 0.11145 0.12659 0.0
C18 C 0.29429 0.0905 0.16425 0.0
C19 C 0.26442 0.11051 0.18531 0.0
C20 C 0.18595 0.22055 0.17467 0.0
C21 C 0.17301 0.25501 0.19425 0.0
C22 C 0.14745 0.28658 0.17376 0.0
C23 C 0.13407 0.28444 0.13307 0.0
C24 C 0.14622 0.24916 0.11378 0.0
C25 C 0.17158 0.21714 0.13465 0.0
C26 C 0.19518 0.14964 0.24438 0.0
C27 C 0.20866 0.1499 0.2852 0.0
C28 C 0.18705 0.12743 0.31881 0.0
C29 C 0.15142 0.10368 0.31256 0.0
C30 C 0.13842 0.10279 0.27136 0.0
C31 C 0.16012 0.12557 0.23762 0.0
P32 P 0.47197 0.92911 0.5799 0.0
H33 H 0.49359 0.00665 0.6154 0.0
H34 H 0.49384 0.02125 0.68723 0.0
H35 H 0.47443 0.88506 0.73044 0.0
H36 H 0.47344 0.8709 0.65887 0.0
H37 H 0.42645 0.86609 0.53877 0.0
H38 H 0.43835 0.79047 0.53263 0.0
H39 H 0.55402 0.79681 0.59475 0.0
H40 H 0.54173 0.87283 0.60123 0.0
H41 H 0.42304 0.99723 0.53162 0.0
H42 H 0.40288 0.88319 0.62174 0.0
O43 O 0.49769 0.96401 0.54535 0.0
H44 H 0.35017 0.01332 0.53287 0.0
H45 H 0.33036 0.89884 0.623 0.0
C46 C 0.48443 0.9376 0.63182 0.0
C47 C 0.49081 0.97979 0.64044 0.0
C48 C 0.49081 0.98811 0.68148 0.0
C49 C 0.48382 0.95433 0.71441 0.0
C50 C 0.47944 0.91181 0.70566 0.0
C51 C 0.47946 0.90358 0.66473 0.0
C52 C 0.48266 0.87466 0.57167 0.0
C53 C 0.45428 0.85131 0.55135 0.0
C54 C 0.46108 0.80803 0.54785 0.0
C55 C 0.49677 0.7876 0.56387 0.0
C56 C 0.52618 0.81174 0.58227 0.0
C57 C 0.51915 0.85504 0.58608 0.0
C58 C 0.41818 0.93884 0.57633 0.0
C59 C 0.40287 0.97535 0.55117 0.0
C60 C 0.36128 0.98447 0.55191 0.0
C61 C 0.33466 0.95745 0.57824 0.0
C62 C 0.3502 0.92057 0.60285 0.0
C63 C 0.39158 0.91143 0.60193 0.0
P64 P 0.72035 0.33405 0.84743 0.0
H65 H 0.75669 0.30778 0.92953 0.0
H66 H 0.80872 0.34174 0.96841 0.0
H67 H 0.8069 0.45569 0.87565 0.0
H68 H 0.75465 0.4219 0.83726 0.0
H69 H 0.6854 0.25595 0.82357 0.0
H70 H 0.64063 0.19918 0.85836 0.0
H71 H 0.63173 0.26796 0.96372 0.0
H72 H 0.67704 0.32499 0.92839 0.0
H73 H 0.73678 0.366 0.76005 0.0
H74 H 0.64405 0.38216 0.84992 0.0
O75 O 0.75357 0.30709 0.8225 0.0
H76 H 0.69856 0.41062 0.70626 0.0
H77 H 0.60576 0.4284 0.79619 0.0
C78 C 0.75073 0.36272 0.88106 0.0
C79 C 0.76634 0.34068 0.91834 0.0
C80 C 0.7963 0.36004 0.94046 0.0
C81 C 0.81201 0.40136 0.92505 0.0
C82 C 0.79557 0.42374 0.88822 0.0
C83 C 0.76532 0.40458 0.86645 0.0
C84 C 0.68544 0.29408 0.87383 0.0
C85 C 0.67385 0.25889 0.85418 0.0
C86 C 0.6479 0.22657 0.874 0.0
C87 C 0.63265 0.22883 0.91397 0.0
C88 C 0.64342 0.2649 0.93321 0.0
C89 C 0.6693 0.29752 0.91308 0.0
C90 C 0.69297 0.37018 0.80888 0.0
C91 C 0.70825 0.37949 0.76833 0.0
C92 C 0.68643 0.40551 0.73755 0.0
C93 C 0.64889 0.42328 0.74666 0.0
C94 C 0.63421 0.41482 0.7878 0.0
C95 C 0.65614 0.38857 0.81864 0.0
P96 P 0.93584 0.67366 0.43092 0.0
H97 H 1.01195 0.71612 0.40315 0.0
H98 H 0.05064 0.76777 0.43703 0.0
H99 H 0.9931 0.71792 0.55375 0.0
H100 H 0.95418 0.66647 0.51967 0.0
H101 H 0.89698 0.6869 0.35036 0.0
H102 H 0.90544 0.65264 0.28853 0.0
H103 H 1.00761 0.58112 0.34569 0.0
H104 H 0.99909 0.61609 0.4079 0.0
H105 H 0.87473 0.68378 0.49302 0.0
H106 H 0.92176 0.5797 0.4341 0.0
O107 O 0.91008 0.71947 0.41863 0.0
H108 H 0.81529 0.63945 0.5165 0.0
H109 H 0.86216 0.53535 0.45726 0.0
C110 C 0.97967 0.68808 0.45874 0.0
C111 C 1.00958 0.7143 0.43655 0.0
C112 C 0.03183 0.74388 0.45603 0.0
C113 C 0.02387 0.74756 0.49771 0.0
C114 C 0.99929 0.716 0.52139 0.0
C115 C 0.97697 0.68654 0.50186 0.0
C116 C 0.94791 0.65453 0.38326 0.0
C117 C 0.92195 0.6648 0.34922 0.0
C118 C 0.92674 0.64515 0.31391 0.0
C119 C 0.95718 0.61432 0.31241 0.0
C120 C 0.98383 0.60473 0.34624 0.0
C121 C 0.97927 0.62489 0.38149 0.0
C122 C 0.90189 0.63559 0.46067 0.0
C123 C 0.87299 0.65084 0.4864 0.0
C124 C 0.83912 0.62531 0.50006 0.0
C125 C 0.83378 0.58427 0.48793 0.0
C126 C 0.86532 0.56715 0.46646 0.0
C127 C 0.89935 0.59263 0.45308 0.0
P128 P 0.85428 0.87862 0.88691 0.0
H129 H 0.81135 0.85234 0.96443 0.0
H130 H 0.74411 0.86775 0.98948 0.0
H131 H 0.71351 0.93319 0.86721 0.0
H132 H 0.78012 0.9152 0.84181 0.0
H133 H 0.91039 0.85109 0.95577 0.0
H134 H 0.9382 0.78099 0.98481 0.0
H135 H 0.86753 0.7197 0.89755 0.0
H136 H 0.83878 0.79019 0.86909 0.0
H137 H 0.84045 0.95494 0.82438 0.0
H138 H 0.90174 0.83296 0.82966 0.0
O139 O 0.87891 0.91582 0.90963 0.0
H140 H 0.86718 0.97742 0.75423 0.0
H141 H 0.92876 0.85554 0.76035 0.0
C142 C 0.80121 0.88264 0.9012 0.0
C143 C 0.78986 0.86905 0.94265 0.0
C144 C 0.75141 0.87852 0.95715 0.0
C145 C 0.72334 0.90266 0.93073 0.0
C146 C 0.73409 0.91451 0.88861 0.0
C147 C 0.77259 0.90455 0.87401 0.0
C148 C 0.87304 0.82609 0.90963 0.0
C149 C 0.9006 0.82268 0.94289 0.0
C150 C 0.91641 0.7825 0.95967 0.0
C151 C 0.90532 0.74492 0.94325 0.0
C152 C 0.87697 0.74821 0.91053 0.0
C153 C 0.86048 0.78838 0.89432 0.0
C154 C 0.86726 0.89133 0.83213 0.0
C155 C 0.85818 0.93221 0.81002 0.0
C156 C 0.87386 0.94528 0.76997 0.0
C157 C 0.90005 0.91823 0.75165 0.0
C158 C 0.90871 0.87717 0.77358 0.0
C159 C 0.89264 0.86395 0.81331 0.0
P160 P 0.6365 0.22303 0.37259 0.0
H161 H 0.66559 0.26526 0.44035 0.0
H162 H 0.63188 0.31021 0.48438 0.0
H163 H 0.51508 0.27605 0.43609 0.0
H164 H 0.54962 0.232 0.39088 0.0
H165 H 0.7143 0.21093 0.33408 0.0
H166 H 0.77181 0.16431 0.35533 0.0
H167 H 0.71237 0.12038 0.47273 0.0
H168 H 0.65527 0.1683 0.45151 0.0
H169 H 0.59378 0.235 0.29317 0.0
H170 H 0.61251 0.13178 0.3947 0.0
O171 O 0.65151 0.26498 0.33787 0.0
H172 H 0.56765 0.18295 0.25059 0.0
H173 H 0.58652 0.07932 0.35205 0.0
C174 C 0.61009 0.24492 0.41281 0.0
C175 C 0.63263 0.2663 0.44023 0.0
C176 C 0.61316 0.29195 0.46559 0.0
C177 C 0.57062 0.29694 0.46382 0.0
C178 C 0.54789 0.27332 0.43793 0.0
C179 C 0.56755 0.24778 0.41234 0.0
C180 C 0.68102 0.19369 0.39157 0.0
C181 C 0.71405 0.192 0.36475 0.0
C182 C 0.74666 0.16485 0.37674 0.0
C183 C 0.74652 0.13832 0.41559 0.0
C184 C 0.71361 0.14074 0.44279 0.0
C185 C 0.68101 0.16813 0.43076 0.0
C186 C 0.60612 0.18706 0.34662 0.0
C187 C 0.59129 0.20127 0.30669 0.0
C188 C 0.57612 0.17144 0.28243 0.0
C189 C 0.57567 0.12695 0.29781 0.0
C190 C 0.58714 0.11334 0.33922 0.0
C191 C 0.60197 0.14331 0.36359 0.0
P192 P 0.35467 0.63219 0.17556 0.0
H193 H 0.30905 0.66847 0.10223 0.0
H194 H 0.24182 0.65287 0.07624 0.0
H195 H 0.21677 0.56675 0.19015 0.0
H196 H 0.28362 0.58396 0.21664 0.0
H197 H 0.42215 0.65859 0.11788 0.0
H198 H 0.4512 0.72912 0.08935 0.0
H199 H 0.36218 0.79206 0.1565 0.0
H200 H 0.33206 0.72111 0.18404 0.0
H201 H 0.34893 0.55315 0.23624 0.0
H202 H 0.39029 0.68488 0.23561 0.0
O203 O 0.37847 0.59476 0.1532 0.0
H204 H 0.37532 0.53404 0.30689 0.0
H205 H 0.41712 0.66568 0.30529 0.0
C206 C 0.3015 0.62794 0.16172 0.0
C207 C 0.28873 0.64722 0.12224 0.0
C208 C 0.25032 0.63773 0.10708 0.0
C209 C 0.22386 0.60802 0.13077 0.0
C210 C 0.23609 0.59003 0.17107 0.0
C211 C 0.27457 0.59977 0.1863 0.0
C212 C 0.37494 0.68456 0.15321 0.0
C213 C 0.40851 0.68744 0.12626 0.0
C214 C 0.42516 0.72776 0.10994 0.0
C215 C 0.40903 0.7659 0.12092 0.0
C216 C 0.37532 0.76305 0.14782 0.0
C217 C 0.35805 0.72268 0.16339 0.0
C218 C 0.36671 0.62068 0.23044 0.0
C219 C 0.36249 0.5783 0.25156 0.0
C220 C 0.37782 0.56729 0.29189 0.0
C221 C 0.3985 0.59832 0.31151 0.0
C222 C 0.4016 0.641 0.29083 0.0
C223 C 0.38582 0.65207 0.25083 0.0
P224 P 0.11831 0.30923 0.65772 0.0
H225 H 0.12227 0.29718 0.57076 0.0
H226 H 0.0774 0.25483 0.5328 0.0
H227 H 0.98541 0.25434 0.62757 0.0
H228 H 0.03057 0.29711 0.66557 0.0
H229 H 0.2044 0.29282 0.67229 0.0
H230 H 0.26555 0.33403 0.64821 0.0
H231 H 0.19223 0.42534 0.56858 0.0
H232 H 0.13087 0.38287 0.59163 0.0
H233 H 0.09883 0.28825 0.74594 0.0
H234 H 0.09818 0.40108 0.65183 0.0
O235 O 0.13103 0.26057 0.68239 0.0
H236 H 0.08358 0.33351 0.79885 0.0
H237 H 0.08378 0.4466 0.70488 0.0
C238 C 0.0798 0.30008 0.62107 0.0
C239 C 0.09156 0.29036 0.58219 0.0
C240 C 0.06569 0.26619 0.56031 0.0
C241 C 0.02825 0.25065 0.57772 0.0
C242 C 1.01425 0.26579 0.61367 0.0
C243 C 0.04009 0.29021 0.63541 0.0
C244 C 0.16319 0.33487 0.63373 0.0
C245 C 0.20148 0.32095 0.64876 0.0
C246 C 0.2364 0.34446 0.63497 0.0
C247 C 0.23336 0.38274 0.60666 0.0
C248 C 0.19514 0.3959 0.59051 0.0
C249 C 0.16023 0.37179 0.60371 0.0
C250 C 0.10055 0.34146 0.69511 0.0
C251 C 0.09506 0.32267 0.73655 0.0
C252 C 0.08622 0.3485 0.76675 0.0
C253 C 0.08306 0.39352 0.75587 0.0
C254 C 0.08673 0.41201 0.71404 0.0
C255 C 0.09498 0.38603 0.68377 0.0
Co256 Co 0.99254 0.00592 0.51051 0.0
C257 C 0.03043 0.92538 0.51986 0.0
Co258 Co 0.0504 0.00189 0.54492 0.0
C259 C 0.91178 0.03173 0.48404 0.0
C260 C 0.9351 0.98367 0.4502 0.0
N261 N 0.94427 0.00635 0.48119 0.0
N262 N 0.88286 0.02634 0.45571 0.0
C263 C 0.8974 0.99584 0.43452 0.0
H264 H 0.91024 0.05519 0.50529 0.0
H265 H 0.95504 0.96072 0.43887 0.0
C266 C 1.0119 0.08172 0.5375 0.0
N267 N 0.09857 0.00169 0.57408 0.0
C268 C 0.13556 0.99025 0.56177 0.0
C269 C 0.10476 0.01406 0.61156 0.0
N270 N 0.16469 0.99504 0.59 0.0
C271 C 0.14539 0.00988 0.6215 0.0
C272 C 0.06026 0.0287 0.45988 0.0
O273 O 0.98651 0.06512 0.51503 0.0
O274 O 0.04142 0.05949 0.55377 0.0
O275 O 0.07874 0.02245 0.49452 0.0
O276 O 0.02194 0.02216 0.45933 0.0
O277 O 0.05908 0.94414 0.53657 0.0
H278 H 0.0813 0.02583 0.6302 0.0
H279 H 0.1409 0.97833 0.5327 0.0
O280 O 0.99902 0.9465 0.50679 0.0
O281 O 0.96338 0.98993 0.56188 0.0
O282 O 0.02157 0.98127 0.59489 0.0
C283 C 0.98286 0.97923 0.5956 0.0
H284 H 0.88237 0.9837 0.40893 0.0
H285 H 0.15971 0.01797 0.64934 0.0
Co286 Co 0.4968 0.00292 0.99477 0.0
C287 C 0.48319 0.93087 0.05519 0.0
Co288 Co 0.52931 0.00557 0.05375 0.0
C289 C 0.4849 0.99859 0.90775 0.0
C290 C 0.42899 0.99106 0.94198 0.0
N291 N 0.46915 0.99894 0.94598 0.0
N292 N 0.4563 0.9901 0.88019 0.0
C293 C 0.42101 0.98563 0.90161 0.0
H294 H 0.51708 0.00224 0.90077 0.0
H295 H 0.40716 0.98777 0.96714 0.0
C296 C 0.54312 0.0776 0.99298 0.0
N297 N 0.55727 0.00952 0.10298 0.0
C298 C 0.54215 0.02008 0.13871 0.0
C299 C 0.59792 0.00763 0.10909 0.0
N300 N 0.57161 0.02553 0.16639 0.0
C301 C 0.60676 0.0173 0.14796 0.0
C302 C 0.57472 0.96742 0.99671 0.0
O303 O 0.51866 0.05785 0.97172 0.0
O304 O 0.55173 0.06048 0.02986 0.0
O305 O 0.57468 0.97742 0.03313 0.0
O306 O 0.54322 0.97532 0.97432 0.0
O307 O 0.50667 0.95086 0.07723 0.0
H308 H 0.62015 0.00214 0.08604 0.0
H309 H 0.51026 0.02539 0.14396 0.0
O310 O 0.47537 0.94782 0.01813 0.0
O311 O 0.4505 0.03063 0.01564 0.0
O312 O 0.48352 0.03342 0.07347 0.0
C313 C 0.45142 0.04085 0.05202 0.0
H314 H 0.39164 0.97793 0.88931 0.0
H315 H 0.63694 0.02115 0.1604 0.0
Co316 Co 0.54925 0.53687 0.52098 0.0
C317 C 0.48169 0.54912 0.46842 0.0
Co318 Co 0.4906 0.52081 0.55273 0.0
C319 C 0.63612 0.53633 0.50659 0.0
C320 C 0.60445 0.57206 0.45545 0.0
N321 N 0.59846 0.54861 0.49331 0.0
N322 N 0.66504 0.55104 0.47854 0.0
C323 C 0.64528 0.57342 0.44625 0.0
H324 H 0.64252 0.51734 0.53638 0.0
H325 H 0.58095 0.58825 0.436 0.0
C326 C 0.55757 0.50737 0.60542 0.0
N327 N 0.44177 0.50969 0.57983 0.0
C328 C 0.41099 0.48467 0.56924 0.0
C329 C 0.42821 0.52615 0.61326 0.0
N330 N 0.37866 0.48503 0.59456 0.0
C331 C 0.38921 0.51112 0.62231 0.0
C332 C 0.52416 0.45129 0.52351 0.0
O333 O 0.57699 0.52181 0.57244 0.0
O334 O 0.51895 0.50472 0.60399 0.0
O335 O 0.49317 0.46244 0.54246 0.0
O336 O 0.552 0.47882 0.51154 0.0
O337 O 0.46206 0.53625 0.50163 0.0
H338 H 0.4455 0.54779 0.62984 0.0
H339 H 0.41202 0.46708 0.54301 0.0
O340 O 0.52028 0.55157 0.46998 0.0
O341 O 0.54674 0.59494 0.53037 0.0
O342 O 0.48857 0.57948 0.56236 0.0
C343 C 0.51633 0.60694 0.54961 0.0
H344 H 0.65956 0.59123 0.41886 0.0
H345 H 0.37038 0.51813 0.64772 0.0
Co346 Co 0.03023 0.50957 1.00142 0.0
C347 C 0.95209 0.47246 1.002 0.0
Co348 Co 0.99782 0.50726 0.06056 0.0
C349 C 0.0543 0.48091 0.92626 0.0
C350 C 0.07478 0.54582 0.92818 0.0
N351 N 0.05538 0.51201 0.95073 0.0
N352 N 0.07159 0.494 0.88888 0.0
C353 C 0.08483 0.53483 0.89007 0.0
H354 H 0.04033 0.44947 0.93568 0.0
H355 H 0.07993 0.57691 0.93824 0.0
C356 C 0.07627 0.54439 0.05965 0.0
N357 N 0.97265 0.50472 0.11117 0.0
C358 C 0.97445 0.53529 0.13619 0.0
C359 C 0.95275 0.47094 0.1333 0.0
N360 N 0.95708 0.52184 0.17337 0.0
C361 C 0.94324 0.48135 0.17177 0.0
C362 C 0.04532 0.43454 0.05606 0.0
O363 O 0.0763 0.537 0.02231 0.0
O364 O 0.04481 0.53411 0.08184 0.0
O365 O 0.02075 0.45212 0.07842 0.0
O366 O 0.05409 0.45413 0.02 0.0
O367 O 0.95118 0.48032 0.0392 0.0
H368 H 0.94692 0.44023 0.1227 0.0
H369 H 0.99014 0.56604 0.12802 0.0
O370 O 0.98403 0.48225 0.98053 0.0
O371 O 1.00631 0.56458 0.98312 0.0
O372 O 0.97482 0.56279 0.04261 0.0
C373 C 0.98246 0.58216 1.00624 0.0
H374 H 0.09931 0.55591 0.86477 0.0
H375 H 0.92805 0.46055 0.19681 0.0
C376 C 0.1479 0.06266 0.38548 0.0
C377 C 0.12772 0.08127 0.3491 0.0
H378 H 0.14272 0.03174 0.44852 0.0
C379 C 0.0848 0.08005 0.34889 0.0
H380 H 0.18083 0.06192 0.38675 0.0
C381 C 0.06282 0.06194 0.38438 0.0
C382 C 0.08317 0.04491 0.4211 0.0
H383 H 0.06804 0.09436 0.32177 0.0
H384 H 0.02986 0.06246 0.38339 0.0
C385 C 0.12598 0.04503 0.42098 0.0
C386 C 0.50268 0.99304 0.77432 0.0
C387 C 0.47735 0.96369 0.75725 0.0
H388 H 0.51564 0.0247 0.827 0.0
C389 C 0.44465 0.94394 0.78097 0.0
H390 H 0.5281 0.00874 0.75673 0.0
C391 C 0.43754 0.95304 0.82096 0.0
C392 C 0.46299 0.98205 0.83831 0.0
H393 H 0.42416 0.92174 0.76842 0.0
H394 H 0.41244 0.9367 0.83853 0.0
C395 C 0.49568 0.00198 0.81457 0.0
C396 C 0.6444 0.4762 0.68035 0.0
C397 C 0.62474 0.44887 0.71282 0.0
H398 H 0.63877 0.51618 0.62133 0.0
C399 C 0.58209 0.44418 0.7112 0.0
H400 H 0.67703 0.48146 0.68088 0.0
C401 C 0.56 0.46472 0.6772 0.0
C402 C 0.58002 0.49026 0.64386 0.0
H403 H 0.56586 0.42314 0.73533 0.0
H404 H 0.52741 0.45916 0.67632 0.0
C405 C 0.62238 0.49643 0.64626 0.0
C406 C 0.95642 0.6129 0.23598 0.0
C407 C 0.95916 0.59056 0.27656 0.0
H408 H 0.95309 0.60823 0.17122 0.0
C409 C 0.96115 0.54522 0.28278 0.0
H410 H 0.95488 0.64788 0.23041 0.0
C411 C 0.95991 0.52254 0.24895 0.0
C412 C 0.95705 0.54489 0.20836 0.0
H413 H 0.96275 0.52725 0.31384 0.0
H414 H 0.96169 0.48761 0.2545 0.0
C415 C 0.95553 0.59027 0.20219 0.0
C416 C 0.37955 0.07668 0.13142 0.0
C417 C 0.34626 0.09269 0.10696 0.0
H418 H 0.43861 0.04855 0.13337 0.0
C419 C 0.34788 0.09191 0.06386 0.0
H420 H 0.37959 0.07738 0.16458 0.0
C421 C 0.38185 0.075 0.04581 0.0
C422 C 0.41526 0.05929 0.07037 0.0
H423 H 0.3227 0.10399 0.04418 0.0
H424 H 0.38205 0.07449 1.01262 0.0
C425 C 0.41362 0.06048 0.11338 0.0
C426 C 0.2681 0.9812 0.54505 0.0
C427 C 0.29099 0.96804 0.58104 0.0
H428 H 0.20983 1.00027 0.51971 0.0
C429 C 0.2718 0.96459 0.61999 0.0
H430 H 0.28206 0.98396 0.51462 0.0
C431 C 0.23052 0.97374 0.62291 0.0
C432 C 0.20743 0.98633 0.58694 0.0
H433 H 0.2888 0.95501 0.64831 0.0
H434 H 0.21652 0.97026 0.65333 0.0
C435 C 0.22668 0.99009 0.54796 0.0
C436 C 0.84896 0.41902 0.98862 0.0
C437 C 0.84751 0.41971 0.94534 0.0
H438 H 0.88291 0.43556 0.04059 0.0
C439 C 0.88085 0.43728 0.92123 0.0
H440 H 0.82371 0.4057 1.008 0.0
C441 C 0.9148 0.4538 0.9398 0.0
C442 C 0.91617 0.45368 0.983 0.0
H443 H 0.88097 0.43769 0.8879 0.0
H444 H 0.9399 0.46701 0.92013 0.0
C445 C 0.88281 0.43618 1.00724 0.0
C446 C 0.76764 0.56397 0.52464 0.0
C447 C 0.79255 0.56456 0.48948 0.0
H448 H 0.70675 0.5585 0.54869 0.0
C449 C 0.77544 0.55389 0.45268 0.0
H450 H 0.78013 0.57207 0.55335 0.0
C451 C 0.73366 0.54671 0.44993 0.0
C452 C 0.70833 0.54949 0.48402 0.0
H453 H 0.79375 0.55458 0.42491 0.0
H454 H 0.72077 0.54121 0.42052 0.0
C455 C 0.72579 0.55612 0.522 0.0
C456 C 0.07676 0.33697 0.13241 0.0
C457 C 0.10838 0.31969 0.11112 0.0
H458 H 0.03198 0.38608 0.13173 0.0
C459 C 0.11695 0.33846 0.06997 0.0
H460 H 0.0689 0.3229 0.16388 0.0
C461 C 0.09566 0.37497 0.05135 0.0
C462 C 0.06521 0.39329 0.07343 0.0
H463 H 0.14127 0.32607 0.05279 0.0
H464 H 0.1039 0.38957 0.02015 0.0
C465 C 0.05546 0.37319 0.11385 0.0
C466 C 0.5771 0.17267 0.91353 0.0
C467 C 0.6068 0.1928 0.93557 0.0
H468 H 0.53362 0.12097 0.91427 0.0
C469 C 0.61331 0.1764 0.97763 0.0
H470 H 0.57083 0.18483 0.88128 0.0
C471 C 0.59183 0.13974 0.99667 0.0
C472 C 0.56321 0.11871 0.97412 0.0
H473 H 0.63615 0.19087 0.99545 0.0
H474 H 0.59845 0.12725 0.02876 0.0
C475 C 0.55559 0.13613 0.93254 0.0
C476 C 0.99418 0.8109 0.52316 0.0
C477 C 0.02913 0.79036 0.51119 0.0
H478 H 0.96738 0.86994 0.53436 0.0
C479 C 0.06587 0.81401 0.50496 0.0
H480 H 0.9652 0.79385 0.52727 0.0
C481 C 0.06713 0.85792 0.5095 0.0
C482 C 0.03135 0.87868 0.51886 0.0
H483 H 0.09303 0.79896 0.49516 0.0
H484 H 0.09538 0.87606 0.50368 0.0
C485 C 0.9952 0.85465 0.52654 0.0
C486 C 0.47077 0.71123 0.57303 0.0
C487 C 0.50269 0.74104 0.5619 0.0
H488 H 0.45022 0.64545 0.5784 0.0
C489 C 0.53979 0.72616 0.54833 0.0
H490 H 0.44202 0.72176 0.58413 0.0
C491 C 0.54449 0.68243 0.54488 0.0
C492 C 0.51231 0.65272 0.55539 0.0
H493 H 0.56482 0.7485 0.53941 0.0
H494 H 0.5732 0.67201 0.53358 0.0
C495 C 0.47558 0.6675 0.56999 0.0
C496 C 0.96284 0.92827 0.70714 0.0
C497 C 0.92069 0.93378 0.71128 0.0
H498 H 0.01536 0.93857 0.66789 0.0
C499 C 0.89896 0.95468 0.67696 0.0
H500 H 0.98058 0.91284 0.73312 0.0
C501 C 0.91891 0.9692 0.63921 0.0
C502 C 0.96116 0.96382 0.63524 0.0
H503 H 0.86645 0.95933 0.67916 0.0
H504 H 0.90131 0.98493 0.61327 0.0
C505 C 0.98283 0.9433 0.66976 0.0
C506 C 0.53859 0.10138 0.23843 0.0
C507 C 0.56912 0.09513 0.26885 0.0
H508 H 0.51528 0.08388 0.18187 0.0
C509 C 0.59715 0.06166 0.26786 0.0
H510 H 0.51645 0.12677 0.23861 0.0
C511 C 0.5965 0.03708 0.23539 0.0
C512 C 0.56771 0.04529 0.20341 0.0
H513 H 0.62127 0.05628 0.29067 0.0
H514 H 0.61959 0.01284 0.23433 0.0
C515 C 0.53778 0.07658 0.20609 0.0
C516 C 0.45999 0.5984 0.35711 0.0
C517 C 0.41927 0.58581 0.35206 0.0
H518 H 0.51162 0.59636 0.39743 0.0
C519 C 0.39913 0.56082 0.38562 0.0
H520 H 0.47647 0.61722 0.33167 0.0
C521 C 0.41919 0.54918 0.4236 0.0
C522 C 0.46005 0.56158 0.42849 0.0
H523 H 0.36773 0.55073 0.38263 0.0
H524 H 0.40283 0.53011 0.44899 0.0
C525 C 0.48021 0.58619 0.39474 0.0
C526 C 0.04897 0.41072 0.8198 0.0
C527 C 0.07826 0.42113 0.78853 0.0
H528 H 0.02298 0.4264 0.87549 0.0
C529 C 0.10451 0.45669 0.78984 0.0
H530 H 0.02811 0.3837 0.81915 0.0
C531 C 0.10219 0.4808 0.82257 0.0
C532 C 0.07334 0.47 0.85442 0.0
H533 H 0.1277 0.465 0.76625 0.0
H534 H 0.12367 0.50718 0.82336 0.0
C535 C 0.04633 0.43506 0.85225 0.0
C536 C 0.68348 0.92958 0.98782 0.0
C537 C 0.68438 0.91752 0.94782 0.0
H538 H 0.64869 0.95416 0.03448 0.0
C539 C 0.64821 0.92108 0.92431 0.0
H540 H 0.71071 0.92836 1.00668 0.0
C541 C 0.61242 0.93662 0.94025 0.0
C542 C 0.61182 0.94886 0.98016 0.0
H543 H 0.64743 0.91174 0.8936 0.0
H544 H 0.58528 0.9393 0.92116 0.0
C545 C 0.64778 0.94479 1.00377 0.0
C546 C 0.7966 0.08445 0.39707 0.0
C547 C 0.78014 0.10753 0.42693 0.0
H548 H 0.84211 0.04099 0.38255 0.0
C549 C 0.7965 0.10143 0.46722 0.0
H550 H 0.78418 0.08773 0.36597 0.0
C551 C 0.82943 0.07388 0.47701 0.0
C552 C 0.84678 0.05188 0.44671 0.0
H553 H 0.78453 0.11877 0.49092 0.0
H554 H 0.84147 0.07015 0.50824 0.0
C555 C 0.82953 0.05706 0.4068 0.0
C556 C 0.18393 0.58718 0.07049 0.0
C557 C 0.18512 0.59378 0.11234 0.0
H558 H 0.14905 0.56678 0.02119 0.0
C559 C 0.14953 0.5852 0.13641 0.0
H560 H 0.21082 0.5926 0.0511 0.0
C561 C 0.11396 0.56997 0.1192 0.0
C562 C 0.1131 0.56286 0.0775 0.0
H563 H 0.1491 0.59028 0.16858 0.0
H564 H 0.08725 0.56333 0.13873 0.0
C565 C 0.14846 0.57202 0.05333 0.0
C566 C 0.30621 0.39379 0.58574 0.0
C567 C 0.26954 0.41083 0.59784 0.0
H568 H 0.37004 0.40462 0.57494 0.0
C569 C 0.26869 0.45362 0.60611 0.0
H570 H 0.30745 0.36078 0.57935 0.0
C571 C 0.30445 0.47836 0.60423 0.0
C572 C 0.3414 0.46088 0.59342 0.0
H573 H 0.24076 0.46722 0.61592 0.0
H574 H 0.30343 0.51091 0.61181 0.0
C575 C 0.34183 0.4188 0.58316 0.0
C576 C 0.94181 0.67741 0.93215 0.0
C577 C 0.92426 0.70278 0.9595 0.0
H578 H 0.97456 0.61996 0.92547 0.0
C579 C 0.92608 0.68825 1.00245 0.0
H580 H 0.94121 0.688 0.89894 0.0
C581 C 0.94477 0.64901 0.0177 0.0
C582 C 0.96279 0.62389 0.99035 0.0
H583 H 0.9127 0.70709 0.02424 0.0
H584 H 0.94544 0.63856 0.05093 0.0
C585 C 0.96117 0.63863 0.94741 0.0
C586 C 0.43274 0.82039 0.06131 0.0
C587 C 0.42758 0.80843 0.10429 0.0
H588 H 0.45391 0.8687 1.01212 0.0
C589 C 0.44104 0.83688 0.13121 0.0
H590 H 0.42254 0.79903 0.03995 0.0
C591 C 0.4598 0.8764 0.11539 0.0
C592 C 0.46458 0.88857 0.07231 0.0
H593 H 0.4376 0.82822 0.1645 0.0
H594 H 0.47004 0.89767 0.13682 0.0
C595 C 0.45063 0.86025 0.04545 0.0
C596 C 1.0094 0.1738 0.59836 0.0
C597 C 1.01189 0.20963 0.56675 0.0
H598 H 1.00826 0.10485 0.61329 0.0
C599 C 1.00814 0.20311 0.52509 0.0
H600 H 1.01295 0.17766 0.6307 0.0
C601 C 1.0049 0.16109 0.51524 0.0
C602 C 1.00648 0.12551 0.54695 0.0
H603 H 1.01036 0.23022 0.50024 0.0
H604 H 1.00428 0.15632 0.48296 0.0
C605 C 1.00727 0.13209 0.58849 0.0
C606 C 0.56649 0.34081 0.5225 0.0
C607 C 0.55142 0.33108 0.4844 0.0
H608 H 0.56939 0.38731 0.56481 0.0
C609 C 0.52197 0.35835 0.46316 0.0
H610 H 0.58862 0.32017 0.54004 0.0
C611 C 0.5104 0.39614 0.47797 0.0
C612 C 0.52811 0.40725 0.51409 0.0
H613 H 0.51008 0.35234 0.4335 0.0
H614 H 0.48979 0.41813 0.4597 0.0
C615 C 0.55528 0.37891 0.53694 0.0
loop_
_geom_bond_atom_site_label_1
_geom_bond_atom_site_label_2
_geom_bond_distance
_geom_bond_site_symmetry_2
_ccdc_geom_bond_type
P0 O11 1.490 . S
P0 C14 1.812 . S
P0 C20 1.803 . S
P0 C26 1.819 . S
H1 C15 0.941 . S
H2 C16 0.939 . S
H3 C18 0.940 . S
H4 C19 0.940 . S
H5 C21 0.939 . S
H6 C22 0.942 . S
H7 C24 0.940 . S
H8 C25 0.939 . S
H9 C27 0.941 . S
H10 C31 0.939 . S
O11 P0 1.490 . S
H12 C28 0.939 . S
H13 C30 0.940 . S
C14 P0 1.812 . S
C14 C15 1.389 . S
C14 C19 1.391 . S
C15 H1 0.941 . S
C15 C14 1.389 . S
C15 C16 1.397 . S
C16 H2 0.939 . S
C16 C15 1.397 . S
C16 C17 1.378 . S
C17 C16 1.378 . S
C17 C18 1.378 . S
C18 H3 0.940 . S
C18 C17 1.378 . S
C18 C19 1.396 . S
C19 H4 0.940 . S
C19 C14 1.391 . S
C19 C18 1.396 . S
C20 P0 1.803 . S
C20 C21 1.378 . S
C20 C25 1.400 . S
C21 H5 0.939 . S
C21 C20 1.378 . S
C21 C22 1.361 . S
C22 H6 0.942 . S
C22 C21 1.361 . S
C22 C23 1.369 . S
C23 C22 1.369 . S
C23 C24 1.404 . S
C24 H7 0.940 . S
C24 C23 1.404 . S
C24 C25 1.389 . S
C25 H8 0.939 . S
C25 C20 1.400 . S
C25 C24 1.389 . S
C26 P0 1.819 . S
C26 C27 1.391 . S
C26 C31 1.391 . S
C27 H9 0.941 . S
C27 C26 1.391 . S
C27 C28 1.396 . S
C28 H12 0.939 . S
C28 C27 1.396 . S
C28 C29 1.397 . S
C29 C28 1.397 . S
C29 C30 1.385 . S
C30 H13 0.940 . S
C30 C29 1.385 . S
C30 C31 1.388 . S
C31 H10 0.939 . S
C31 C26 1.391 . S
C31 C30 1.388 . S
P32 O43 1.490 . S
P32 C46 1.812 . S
P32 C52 1.803 . S
P32 C58 1.819 . S
H33 C47 0.941 . S
H34 C48 0.939 . S
H35 C50 0.940 . S
H36 C51 0.940 . S
H37 C53 0.939 . S
H38 C54 0.942 . S
H39 C56 0.940 . S
H40 C57 0.939 . S
H41 C59 0.941 . S
H42 C63 0.939 . S
O43 P32 1.490 . S
H44 C60 0.939 . S
H45 C62 0.940 . S
C46 P32 1.812 . S
C46 C47 1.389 . S
C46 C51 1.391 . S
C47 H33 0.941 . S
C47 C46 1.389 . S
C47 C48 1.397 . S
C48 H34 0.939 . S
C48 C47 1.397 . S
C48 C49 1.378 . S
C49 C48 1.378 . S
C49 C50 1.378 . S
C50 H35 0.940 . S
C50 C49 1.378 . S
C50 C51 1.396 . S
C51 H36 0.940 . S
C51 C46 1.391 . S
C51 C50 1.396 . S
C52 P32 1.803 . S
C52 C53 1.378 . S
C52 C57 1.400 . S
C53 H37 0.939 . S
C53 C52 1.378 . S
C53 C54 1.361 . S
C54 H38 0.942 . S
C54 C53 1.361 . S
C54 C55 1.369 . S
C55 C54 1.369 . S
C55 C56 1.404 . S
C56 H39 0.940 . S
C56 C55 1.404 . S
C56 C57 1.389 . S
C57 H40 0.939 . S
C57 C52 1.400 . S
C57 C56 1.389 . S
C58 P32 1.819 . S
C58 C59 1.391 . S
C58 C63 1.391 . S
C59 H41 0.941 . S
C59 C58 1.391 . S
C59 C60 1.396 . S
C60 H44 0.939 . S
C60 C59 1.396 . S
C60 C61 1.397 . S
C61 C60 1.397 . S
C61 C62 1.385 . S
C62 H45 0.940 . S
C62 C61 1.385 . S
C62 C63 1.388 . S
C63 H42 0.939 . S
C63 C58 1.391 . S
C63 C62 1.388 . S
P64 O75 1.490 . S
P64 C78 1.812 . S
P64 C84 1.803 . S
P64 C90 1.819 . S
H65 C79 0.941 . S
H66 C80 0.939 . S
H67 C82 0.940 . S
H68 C83 0.940 . S
H69 C85 0.939 . S
H70 C86 0.942 . S
H71 C88 0.940 . S
H72 C89 0.939 . S
H73 C91 0.941 . S
H74 C95 0.939 . S
O75 P64 1.490 . S
H76 C92 0.939 . S
H77 C94 0.940 . S
C78 P64 1.812 . S
C78 C79 1.389 . S
C78 C83 1.391 . S
C79 H65 0.941 . S
C79 C78 1.389 . S
C79 C80 1.397 . S
C80 H66 0.939 . S
C80 C79 1.397 . S
C80 C81 1.378 . S
C81 C80 1.378 . S
C81 C82 1.378 . S
C82 H67 0.940 . S
C82 C81 1.378 . S
C82 C83 1.396 . S
C83 H68 0.940 . S
C83 C78 1.391 . S
C83 C82 1.396 . S
C84 P64 1.803 . S
C84 C85 1.378 . S
C84 C89 1.400 . S
C85 H69 0.939 . S
C85 C84 1.378 . S
C85 C86 1.361 . S
C86 H70 0.942 . S
C86 C85 1.361 . S
C86 C87 1.369 . S
C87 C86 1.369 . S
C87 C88 1.404 . S
C88 H71 0.940 . S
C88 C87 1.404 . S
C88 C89 1.389 . S
C89 H72 0.939 . S
C89 C84 1.400 . S
C89 C88 1.389 . S
C90 P64 1.819 . S
C90 C91 1.391 . S
C90 C95 1.391 . S
C91 H73 0.941 . S
C91 C90 1.391 . S
C91 C92 1.396 . S
C92 H76 0.939 . S
C92 C91 1.396 . S
C92 C93 1.397 . S
C93 C92 1.397 . S
C93 C94 1.385 . S
C94 H77 0.940 . S
C94 C93 1.385 . S
C94 C95 1.388 . S
C95 H74 0.939 . S
C95 C90 1.391 . S
C95 C94 1.388 . S
P96 O107 1.490 . S
P96 C110 1.812 . S
P96 C116 1.803 . S
P96 C122 1.819 . S
H97 C111 0.941 . S
H98 C112 0.939 . S
H99 C114 0.940 . S
H100 C115 0.940 . S
H101 C117 0.939 . S
H102 C118 0.942 . S
H103 C120 0.940 . S
H104 C121 0.939 . S
H105 C123 0.941 . S
H106 C127 0.939 . S
O107 P96 1.490 . S
H108 C124 0.939 . S
H109 C126 0.940 . S
C110 P96 1.812 . S
C110 C111 1.389 . S
C110 C115 1.391 . S
C111 H97 0.941 . S
C111 C110 1.389 . S
C111 C112 1.397 . S
C112 H98 0.939 . S
C112 C111 1.397 . S
C112 C113 1.378 . S
C113 C112 1.378 . S
C113 C114 1.378 . S
C114 H99 0.940 . S
C114 C113 1.378 . S
C114 C115 1.396 . S
C115 H100 0.940 . S
C115 C110 1.391 . S
C115 C114 1.396 . S
C116 P96 1.803 . S
C116 C117 1.378 . S
C116 C121 1.400 . S
C117 H101 0.939 . S
C117 C116 1.378 . S
C117 C118 1.361 . S
C118 H102 0.942 . S
C118 C117 1.361 . S
C118 C119 1.369 . S
C119 C118 1.369 . S
C119 C120 1.404 . S
C120 H103 0.940 . S
C120 C119 1.404 . S
C120 C121 1.389 . S
C121 H104 0.939 . S
C121 C116 1.400 . S
C121 C120 1.389 . S
C122 P96 1.819 . S
C122 C123 1.391 . S
C122 C127 1.391 . S
C123 H105 0.941 . S
C123 C122 1.391 . S
C123 C124 1.396 . S
C124 H108 0.939 . S
C124 C123 1.396 . S
C124 C125 1.397 . S
C125 C124 1.397 . S
C125 C126 1.385 . S
C126 H109 0.940 . S
C126 C125 1.385 . S
C126 C127 1.388 . S
C127 H106 0.939 . S
C127 C122 1.391 . S
C127 C126 1.388 . S
P128 O139 1.490 . S
P128 C142 1.812 . S
P128 C148 1.803 . S
P128 C154 1.819 . S
H129 C143 0.941 . S
H130 C144 0.933 1_554 S
H131 C146 0.940 . S
H132 C147 0.940 . S
H133 C149 0.939 . S
H134 C150 0.942 . S
H135 C152 0.940 . S
H136 C153 0.939 . S
H137 C155 0.941 . S
H138 C159 0.939 . S
O139 P128 1.490 . S
H140 C156 0.939 1_545 S
H141 C158 0.940 . S
C142 P128 1.812 . S
C142 C143 1.389 . S
C142 C147 1.391 . S
C143 H129 0.941 . S
C143 C142 1.389 . S
C143 C144 1.397 . S
C144 H130 0.933 1_556 S
C144 C143 1.397 . S
C144 C145 1.378 . S
C145 C144 1.378 . S
C145 C146 1.378 . S
C146 H131 0.940 . S
C146 C145 1.378 . S
C146 C147 1.396 . S
C147 H132 0.940 . S
C147 C142 1.391 . S
C147 C146 1.396 . S
C148 P128 1.803 . S
C148 C149 1.378 . S
C148 C153 1.400 . S
C149 H133 0.939 . S
C149 C148 1.378 . S
C149 C150 1.361 . S
C150 H134 0.942 . S
C150 C149 1.361 . S
C150 C151 1.369 . S
C151 C150 1.369 . S
C151 C152 1.404 . S
C152 H135 0.940 . S
C152 C151 1.404 . S
C152 C153 1.389 . S
C153 H136 0.939 . S
C153 C148 1.400 . S
C153 C152 1.389 . S
C154 P128 1.819 . S
C154 C155 1.391 . S
C154 C159 1.391 . S
C155 H137 0.941 . S
C155 C154 1.391 . S
C155 C156 1.396 . S
C156 H140 0.939 1_565 S
C156 C155 1.396 . S
C156 C157 1.397 . S
C157 C156 1.397 . S
C157 C158 1.385 . S
C158 H141 0.940 . S
C158 C157 1.385 . S
C158 C159 1.388 . S
C159 H138 0.939 . S
C159 C154 1.391 . S
C159 C158 1.388 . S
P160 O171 1.490 . S
P160 C174 1.812 . S
P160 C180 1.803 . S
P160 C186 1.819 . S
H161 C175 0.941 . S
H162 C176 0.939 . S
H163 C178 0.940 . S
H164 C179 0.940 . S
H165 C181 0.939 . S
H166 C182 0.942 . S
H167 C184 0.940 . S
H168 C185 0.939 . S
H169 C187 0.941 . S
H170 C191 0.939 . S
O171 P160 1.490 . S
H172 C188 0.939 . S
H173 C190 0.940 . S
C174 P160 1.812 . S
C174 C175 1.389 . S
C174 C179 1.391 . S
C175 H161 0.941 . S
C175 C174 1.389 . S
C175 C176 1.397 . S
C176 H162 0.939 . S
C176 C175 1.397 . S
C176 C177 1.378 . S
C177 C176 1.378 . S
C177 C178 1.378 . S
C178 H163 0.940 . S
C178 C177 1.378 . S
C178 C179 1.396 . S
C179 H164 0.940 . S
C179 C174 1.391 . S
C179 C178 1.396 . S
C180 P160 1.803 . S
C180 C181 1.378 . S
C180 C185 1.400 . S
C181 H165 0.939 . S
C181 C180 1.378 . S
C181 C182 1.361 . S
C182 H166 0.942 . S
C182 C181 1.361 . S
C182 C183 1.369 . S
C183 C182 1.369 . S
C183 C184 1.404 . S
C184 H167 0.940 . S
C184 C183 1.404 . S
C184 C185 1.389 . S
C185 H168 0.939 . S
C185 C180 1.400 . S
C185 C184 1.389 . S
C186 P160 1.819 . S
C186 C187 1.391 . S
C186 C191 1.391 . S
C187 H169 0.941 . S
C187 C186 1.391 . S
C187 C188 1.396 . S
C188 H172 0.939 . S
C188 C187 1.396 . S
C188 C189 1.397 . S
C189 C188 1.397 . S
C189 C190 1.385 . S
C190 H173 0.940 . S
C190 C189 1.385 . S
C190 C191 1.388 . S
C191 H170 0.939 . S
C191 C186 1.391 . S
C191 C190 1.388 . S
P192 O203 1.490 . S
P192 C206 1.812 . S
P192 C212 1.803 . S
P192 C218 1.819 . S
H193 C207 0.941 . S
H194 C208 0.939 . S
H195 C210 0.940 . S
H196 C211 0.940 . S
H197 C213 0.939 . S
H198 C214 0.942 . S
H199 C216 0.940 . S
H200 C217 0.939 . S
H201 C219 0.941 . S
H202 C223 0.939 . S
O203 P192 1.490 . S
H204 C220 0.939 . S
H205 C222 0.940 . S
C206 P192 1.812 . S
C206 C207 1.389 . S
C206 C211 1.391 . S
C207 H193 0.941 . S
C207 C206 1.389 . S
C207 C208 1.397 . S
C208 H194 0.939 . S
C208 C207 1.397 . S
C208 C209 1.378 . S
C209 C208 1.378 . S
C209 C210 1.378 . S
C210 H195 0.940 . S
C210 C209 1.378 . S
C210 C211 1.396 . S
C211 H196 0.940 . S
C211 C206 1.391 . S
C211 C210 1.396 . S
C212 P192 1.803 . S
C212 C213 1.378 . S
C212 C217 1.400 . S
C213 H197 0.939 . S
C213 C212 1.378 . S
C213 C214 1.361 . S
C214 H198 0.942 . S
C214 C213 1.361 . S
C214 C215 1.369 . S
C215 C214 1.369 . S
C215 C216 1.404 . S
C216 H199 0.940 . S
C216 C215 1.404 . S
C216 C217 1.389 . S
C217 H200 0.939 . S
C217 C212 1.400 . S
C217 C216 1.389 . S
C218 P192 1.819 . S
C218 C219 1.391 . S
C218 C223 1.391 . S
C219 H201 0.941 . S
C219 C218 1.391 . S
C219 C220 1.396 . S
C220 H204 0.939 . S
C220 C219 1.396 . S
C220 C221 1.397 . S
C221 C220 1.397 . S
C221 C222 1.385 . S
C222 H205 0.940 . S
C222 C221 1.385 . S
C222 C223 1.388 . S
C223 H202 0.939 . S
C223 C218 1.391 . S
C223 C222 1.388 . S
P224 O235 1.490 . S
P224 C238 1.812 . S
P224 C244 1.803 . S
P224 C250 1.819 . S
H225 C239 0.941 . S
H226 C240 0.939 . S
H227 C242 0.940 . S
H228 C243 0.940 . S
H229 C245 0.939 . S
H230 C246 0.942 . S
H231 C248 0.940 . S
H232 C249 0.939 . S
H233 C251 0.941 . S
H234 C255 0.939 . S
O235 P224 1.490 . S
H236 C252 0.939 . S
H237 C254 0.940 . S
C238 P224 1.812 . S
C238 C239 1.389 . S
C238 C243 1.391 . S
C239 H225 0.941 . S
C239 C238 1.389 . S
C239 C240 1.397 . S
C240 H226 0.939 . S
C240 C239 1.397 . S
C240 C241 1.378 . S
C241 C240 1.378 . S
C241 C242 1.378 . S
C242 H227 0.940 . S
C242 C241 1.378 . S
C242 C243 1.396 . S
C243 H228 0.940 . S
C243 C238 1.391 . S
C243 C242 1.396 . S
C244 P224 1.803 . S
C244 C245 1.378 . S
C244 C249 1.400 . S
C245 H229 0.939 . S
C245 C244 1.378 . S
C245 C246 1.361 . S
C246 H230 0.942 . S
C246 C245 1.361 . S
C246 C247 1.369 . S
C247 C246 1.369 . S
C247 C248 1.404 . S
C248 H231 0.940 . S
C248 C247 1.404 . S
C248 C249 1.389 . S
C249 H232 0.939 . S
C249 C244 1.400 . S
C249 C248 1.389 . S
C250 P224 1.819 . S
C250 C251 1.391 . S
C250 C255 1.391 . S
C251 H233 0.941 . S
C251 C250 1.391 . S
C251 C252 1.396 . S
C252 H236 0.939 . S
C252 C251 1.396 . S
C252 C253 1.397 . S
C253 C252 1.397 . S
C253 C254 1.385 . S
C254 H237 0.940 . S
C254 C253 1.385 . S
C254 C255 1.388 . S
C255 H234 0.939 . S
C255 C250 1.391 . S
C255 C254 1.388 . S
Co256 N261 2.057 . S
Co256 O273 2.021 . S
Co256 O276 2.062 . S
Co256 O280 2.117 1_545 S
Co256 O281 2.020 . S
C257 O277 1.259 1_655 S
C257 O280 1.258 . S
Co258 N267 2.057 . S
Co258 O274 2.117 1_565 S
Co258 O275 2.020 1_565 S
Co258 O277 2.021 . S
Co258 O282 2.062 . S
C259 N261 1.316 . S
C259 N262 1.347 . S
C259 H264 0.931 . S
C260 N261 1.375 . S
C260 C263 1.350 . S
C260 H265 0.930 1_545 S
N261 Co256 2.057 . S
N261 C259 1.316 . S
N261 C260 1.375 . S
N262 C259 1.347 . S
N262 C263 1.373 . S
C263 C260 1.350 . S
C263 N262 1.373 . S
C263 H284 0.931 . S
H264 C259 0.931 . S
H265 C260 0.930 1_565 S
C266 O273 1.259 1_455 S
C266 O274 1.258 . S
N267 Co258 2.057 . S
N267 C268 1.316 . S
N267 C269 1.375 1_565 S
C268 N267 1.316 . S
C268 N270 1.347 . S
C268 H279 0.931 . S
C269 N267 1.375 1_545 S
C269 C271 1.350 1_545 S
C269 H278 0.930 . S
N270 C268 1.347 . S
N270 C271 1.373 . S
C271 C269 1.350 1_565 S
C271 N270 1.373 . S
C271 H285 0.931 1_565 S
C272 O275 1.256 . S
C272 O276 1.255 1_455 S
O273 Co256 2.021 . S
O273 C266 1.259 1_655 S
O274 Co258 2.117 1_545 S
O274 C266 1.258 . S
O275 Co258 2.020 1_545 S
O275 C272 1.256 . S
O276 Co256 2.062 . S
O276 C272 1.255 1_655 S
O277 C257 1.259 1_455 S
O277 Co258 2.021 . S
H278 C269 0.930 . S
H279 C268 0.931 . S
O280 Co256 2.117 1_565 S
O280 C257 1.258 . S
O281 Co256 2.020 . S
O281 C283 1.256 1_545 S
O282 Co258 2.062 . S
O282 C283 1.255 1_455 S
C283 O281 1.256 1_565 S
C283 O282 1.255 1_655 S
H284 C263 0.931 . S
H285 C271 0.931 1_545 S
Co286 N291 2.057 1_545 S
Co286 O303 2.021 . S
Co286 O306 2.062 1_545 S
Co286 O310 2.117 1_546 S
Co286 O311 2.020 . S
C287 O307 1.259 . S
C287 O310 1.258 . S
Co288 N297 2.057 . S
Co288 O304 2.117 . S
Co288 O305 2.020 1_545 S
Co288 O307 2.021 1_545 S
Co288 O312 2.062 . S
C289 N291 1.316 . S
C289 N292 1.347 . S
C289 H294 0.931 1_565 S
C290 N291 1.375 . S
C290 C293 1.350 . S
C290 H295 0.930 . S
N291 Co286 2.057 1_565 S
N291 C289 1.316 . S
N291 C290 1.375 . S
N292 C289 1.347 . S
N292 C293 1.373 . S
C293 C290 1.350 . S
C293 N292 1.373 . S
C293 H314 0.931 . S
H294 C289 0.931 1_545 S
H295 C290 0.930 . S
C296 O303 1.259 . S
C296 O304 1.258 1_556 S
N297 Co288 2.057 . S
N297 C298 1.316 . S
N297 C299 1.375 . S
C298 N297 1.316 . S
C298 N300 1.347 . S
C298 H309 0.931 . S
C299 N297 1.375 . S
C299 C301 1.350 . S
C299 H308 0.930 . S
N300 C298 1.347 . S
N300 C301 1.373 . S
C301 C299 1.350 . S
C301 N300 1.373 . S
C301 H315 0.931 . S
C302 O305 1.256 1_556 S
C302 O306 1.255 . S
O303 Co286 2.021 . S
O303 C296 1.259 . S
O304 Co288 2.117 . S
O304 C296 1.258 1_554 S
O305 Co288 2.020 1_565 S
O305 C302 1.256 1_554 S
O306 Co286 2.062 1_565 S
O306 C302 1.255 . S
O307 C287 1.259 . S
O307 Co288 2.021 1_565 S
H308 C299 0.930 . S
H309 C298 0.931 . S
O310 Co286 2.117 1_564 S
O310 C287 1.258 . S
O311 Co286 2.020 . S
O311 C313 1.256 1_556 S
O312 Co288 2.062 . S
O312 C313 1.255 . S
C313 O311 1.256 1_554 S
C313 O312 1.255 . S
H314 C293 0.931 . S
H315 C301 0.931 . S
Co316 N321 2.057 . S
Co316 O333 2.021 . S
Co316 O336 2.062 . S
Co316 O340 2.117 . S
Co316 O341 2.020 . S
C317 O337 1.259 . S
C317 O340 1.258 . S
Co318 N327 2.057 . S
Co318 O334 2.117 . S
Co318 O335 2.020 . S
Co318 O337 2.021 . S
Co318 O342 2.062 . S
C319 N321 1.316 . S
C319 N322 1.347 . S
C319 H324 0.931 . S
C320 N321 1.375 . S
C320 C323 1.350 . S
C320 H325 0.930 . S
N321 Co316 2.057 . S
N321 C319 1.316 . S
N321 C320 1.375 . S
N322 C319 1.347 . S
N322 C323 1.373 . S
C323 C320 1.350 . S
C323 N322 1.373 . S
C323 H344 0.931 . S
H324 C319 0.931 . S
H325 C320 0.930 . S
C326 O333 1.259 . S
C326 O334 1.258 . S
N327 Co318 2.057 . S
N327 C328 1.316 . S
N327 C329 1.375 . S
C328 N327 1.316 . S
C328 N330 1.347 . S
C328 H339 0.931 . S
C329 N327 1.375 . S
C329 C331 1.350 . S
C329 H338 0.930 . S
N330 C328 1.347 . S
N330 C331 1.373 . S
C331 C329 1.350 . S
C331 N330 1.373 . S
C331 H345 0.931 . S
C332 O335 1.256 . S
C332 O336 1.255 . S
O333 Co316 2.021 . S
O333 C326 1.259 . S
O334 Co318 2.117 . S
O334 C326 1.258 . S
O335 Co318 2.020 . S
O335 C332 1.256 . S
O336 Co316 2.062 . S
O336 C332 1.255 . S
O337 C317 1.259 . S
O337 Co318 2.021 . S
H338 C329 0.930 . S
H339 C328 0.931 . S
O340 Co316 2.117 . S
O340 C317 1.258 . S
O341 Co316 2.020 . S
O341 C343 1.256 . S
O342 Co318 2.062 . S
O342 C343 1.255 . S
C343 O341 1.256 . S
C343 O342 1.255 . S
H344 C323 0.931 . S
H345 C331 0.931 . S
Co346 N351 2.057 . S
Co346 O363 2.021 . S
Co346 O366 2.062 . S
Co346 O370 2.117 1_455 S
Co346 O371 2.015 1_455 S
C347 O367 1.259 1_556 S
C347 O370 1.258 . S
Co348 N357 2.057 . S
Co348 O364 2.117 1_655 S
Co348 O365 2.020 1_655 S
Co348 O367 2.021 . S
Co348 O372 2.062 . S
C349 N351 1.316 . S
C349 N352 1.347 . S
C349 H354 0.931 . S
C350 N351 1.375 1_655 S
C350 C353 1.350 1_655 S
C350 H355 0.930 . S
N351 Co346 2.057 . S
N351 C349 1.316 . S
N351 C350 1.375 1_455 S
N352 C349 1.347 . S
N352 C353 1.373 . S
C353 C350 1.350 1_455 S
C353 N352 1.373 . S
C353 H374 0.931 1_455 S
H354 C349 0.931 . S
H355 C350 0.930 . S
C356 O363 1.259 1_554 S
C356 O364 1.258 . S
N357 Co348 2.057 . S
N357 C358 1.316 . S
N357 C359 1.375 1_655 S
C358 N357 1.316 . S
C358 N360 1.347 . S
C358 H369 0.931 . S
C359 N357 1.375 1_455 S
C359 C361 1.350 1_455 S
C359 H368 0.930 . S
N360 C358 1.347 . S
N360 C361 1.373 . S
C361 C359 1.350 1_655 S
C361 N360 1.373 . S
C361 H375 0.931 1_655 S
C362 O365 1.256 . S
C362 O366 1.255 1_554 S
O363 Co346 2.021 . S
O363 C356 1.259 1_556 S
O364 Co348 2.117 1_455 S
O364 C356 1.258 . S
O365 Co348 2.020 1_455 S
O365 C362 1.256 . S
O366 Co346 2.062 . S
O366 C362 1.255 1_556 S
O367 C347 1.259 1_554 S
O367 Co348 2.021 . S
H368 C359 0.930 . S
H369 C358 0.931 . S
O370 Co346 2.117 1_655 S
O370 C347 1.258 . S
O371 Co346 2.015 1_655 S
O371 C373 1.262 . S
O372 Co348 2.062 . S
O372 C373 1.255 1_554 S
C373 O371 1.262 . S
C373 O372 1.255 1_556 S
H374 C353 0.931 1_655 S
H375 C361 0.931 1_455 S
C376 C377 1.387 . S
C376 H380 0.950 1_545 S
C376 C385 1.390 . S
C377 C376 1.387 . S
C377 C379 1.387 . S
H378 C385 0.950 1_565 S
C379 C377 1.387 . S
C379 C381 1.390 . S
C379 H383 0.950 . S
H380 C376 0.950 1_565 S
C381 C379 1.390 . S
C381 C382 1.387 . S
C381 H384 0.950 . S
C382 C381 1.387 . S
C382 C385 1.387 . S
H383 C379 0.950 . S
H384 C381 0.950 . S
C385 C376 1.390 . S
C385 H378 0.950 1_545 S
C385 C382 1.387 . S
C386 C387 1.387 . S
C386 H390 0.950 . S
C386 C395 1.390 . S
C387 C386 1.387 . S
C387 C389 1.387 . S
H388 C395 0.950 . S
C389 C387 1.387 . S
C389 C391 1.390 . S
C389 H393 0.950 . S
H390 C386 0.950 . S
C391 C389 1.390 . S
C391 C392 1.387 . S
C391 H394 0.950 . S
C392 C391 1.387 . S
C392 C395 1.387 . S
H393 C389 0.950 . S
H394 C391 0.950 . S
C395 C386 1.390 . S
C395 H388 0.950 . S
C395 C392 1.387 . S
C396 C397 1.387 . S
C396 H400 0.950 . S
C396 C405 1.390 . S
C397 C396 1.387 . S
C397 C399 1.387 . S
H398 C405 0.950 . S
C399 C397 1.387 . S
C399 C401 1.390 . S
C399 H403 0.950 . S
H400 C396 0.950 . S
C401 C399 1.390 . S
C401 C402 1.387 . S
C401 H404 0.950 . S
C402 C401 1.387 . S
C402 C405 1.387 . S
H403 C399 0.950 . S
H404 C401 0.950 . S
C405 C396 1.390 . S
C405 H398 0.950 . S
C405 C402 1.387 . S
C406 C407 1.387 . S
C406 H410 0.950 . S
C406 C415 1.390 . S
C407 C406 1.387 . S
C407 C409 1.387 . S
H408 C415 0.950 . S
C409 C407 1.387 . S
C409 C411 1.390 . S
C409 H413 0.950 . S
H410 C406 0.950 . S
C411 C409 1.390 . S
C411 C412 1.387 . S
C411 H414 0.950 . S
C412 C411 1.387 . S
C412 C415 1.387 . S
H413 C409 0.950 . S
H414 C411 0.950 . S
C415 C406 1.390 . S
C415 H408 0.950 . S
C415 C412 1.387 . S
C416 C417 1.387 . S
C416 H420 0.950 . S
C416 C425 1.390 . S
C417 C416 1.387 . S
C417 C419 1.387 . S
H418 C425 0.950 1_565 S
C419 C417 1.387 . S
C419 C421 1.390 . S
C419 H423 0.950 . S
H420 C416 0.950 . S
C421 C419 1.390 . S
C421 C422 1.387 . S
C421 H424 0.950 . S
C422 C421 1.387 . S
C422 C425 1.387 . S
H423 C419 0.950 . S
H424 C421 0.950 . S
C425 C416 1.390 . S
C425 H418 0.950 1_545 S
C425 C422 1.387 . S
C426 C427 1.387 . S
C426 H430 0.950 . S
C426 C435 1.390 . S
C427 C426 1.387 . S
C427 C429 1.387 . S
H428 C435 0.950 . S
C429 C427 1.387 . S
C429 C431 1.390 . S
C429 H433 0.950 . S
H430 C426 0.950 . S
C431 C429 1.390 . S
C431 C432 1.387 . S
C431 H434 0.950 . S
C432 C431 1.387 . S
C432 C435 1.387 . S
H433 C429 0.950 . S
H434 C431 0.950 . S
C435 C426 1.390 . S
C435 H428 0.950 . S
C435 C432 1.387 . S
C436 C437 1.387 . S
C436 H440 0.950 . S
C436 C445 1.390 . S
C437 C436 1.387 . S
C437 C439 1.387 . S
H438 C445 0.950 . S
C439 C437 1.387 . S
C439 C441 1.390 . S
C439 H443 0.950 . S
H440 C436 0.950 . S
C441 C439 1.390 . S
C441 C442 1.387 . S
C441 H444 0.950 . S
C442 C441 1.387 . S
C442 C445 1.387 . S
H443 C439 0.950 . S
H444 C441 0.950 . S
C445 C436 1.390 . S
C445 H438 0.950 . S
C445 C442 1.387 . S
C446 C447 1.387 . S
C446 H450 0.950 . S
C446 C455 1.390 . S
C447 C446 1.387 . S
C447 C449 1.387 . S
H448 C455 0.950 . S
C449 C447 1.387 . S
C449 C451 1.390 . S
C449 H453 0.950 . S
H450 C446 0.950 . S
C451 C449 1.390 . S
C451 C452 1.387 . S
C451 H454 0.950 . S
C452 C451 1.387 . S
C452 C455 1.387 . S
H453 C449 0.950 . S
H454 C451 0.950 . S
C455 C446 1.390 . S
C455 H448 0.950 . S
C455 C452 1.387 . S
C456 C457 1.387 . S
C456 H460 0.950 . S
C456 C465 1.390 . S
C457 C456 1.387 . S
C457 C459 1.387 . S
H458 C465 0.950 . S
C459 C457 1.387 . S
C459 C461 1.390 . S
C459 H463 0.950 . S
H460 C456 0.950 . S
C461 C459 1.390 . S
C461 C462 1.387 . S
C461 H464 0.950 1_554 S
C462 C461 1.387 . S
C462 C465 1.387 . S
H463 C459 0.950 . S
H464 C461 0.950 1_556 S
C465 C456 1.390 . S
C465 H458 0.950 . S
C465 C462 1.387 . S
C466 C467 1.387 . S
C466 H470 0.950 . S
C466 C475 1.390 . S
C467 C466 1.387 . S
C467 C469 1.387 . S
H468 C475 0.950 . S
C469 C467 1.387 . S
C469 C471 1.392 . S
C469 H473 0.950 1_556 S
H470 C466 0.950 . S
C471 C469 1.392 . S
C471 C472 1.396 . S
C471 H474 0.939 1_556 S
C472 C471 1.396 . S
C472 C475 1.387 . S
H473 C469 0.950 1_554 S
H474 C471 0.939 1_554 S
C475 C466 1.390 . S
C475 H468 0.950 . S
C475 C472 1.387 . S
C476 C477 1.387 . S
C476 H480 0.950 . S
C476 C485 1.390 . S
C477 C476 1.387 . S
C477 C479 1.387 1_655 S
H478 C485 0.950 . S
C479 C477 1.387 1_455 S
C479 C481 1.390 . S
C479 H483 0.950 . S
H480 C476 0.950 . S
C481 C479 1.390 . S
C481 C482 1.387 1_455 S
C481 H484 0.950 . S
C482 C481 1.387 1_655 S
C482 C485 1.387 . S
H483 C479 0.950 . S
H484 C481 0.950 . S
C485 C476 1.390 . S
C485 H478 0.950 . S
C485 C482 1.387 . S
C486 C487 1.387 . S
C486 H490 0.950 . S
C486 C495 1.390 . S
C487 C486 1.387 . S
C487 C489 1.387 . S
H488 C495 0.950 . S
C489 C487 1.387 . S
C489 C491 1.390 . S
C489 H493 0.950 . S
H490 C486 0.950 . S
C491 C489 1.390 . S
C491 C492 1.387 . S
C491 H494 0.950 . S
C492 C491 1.387 . S
C492 C495 1.387 . S
H493 C489 0.950 . S
H494 C491 0.950 . S
C495 C486 1.390 . S
C495 H488 0.950 . S
C495 C492 1.387 . S
C496 C497 1.387 . S
C496 H500 0.950 . S
C496 C505 1.390 . S
C497 C496 1.387 . S
C497 C499 1.390 1_565 S
H498 C505 0.950 . S
C499 C497 1.390 1_545 S
C499 C501 1.390 . S
C499 H503 0.947 . S
H500 C496 0.950 . S
C501 C499 1.390 . S
C501 C502 1.387 1_545 S
C501 H504 0.950 . S
C502 C501 1.387 1_565 S
C502 C505 1.387 . S
H503 C499 0.947 . S
H504 C501 0.950 . S
C505 C496 1.390 . S
C505 H498 0.950 . S
C505 C502 1.387 . S
C506 C507 1.387 . S
C506 H510 0.950 . S
C506 C515 1.390 . S
C507 C506 1.387 . S
C507 C509 1.387 . S
H508 C515 0.950 . S
C509 C507 1.387 . S
C509 C511 1.390 . S
C509 H513 0.950 . S
H510 C506 0.950 . S
C511 C509 1.390 . S
C511 C512 1.387 . S
C511 H514 0.950 . S
C512 C511 1.387 . S
C512 C515 1.387 . S
H513 C509 0.950 . S
H514 C511 0.950 . S
C515 C506 1.390 . S
C515 H508 0.950 . S
C515 C512 1.387 . S
C516 C517 1.387 . S
C516 H520 0.950 . S
C516 C525 1.390 . S
C517 C516 1.387 . S
C517 C519 1.387 . S
H518 C525 0.950 . S
C519 C517 1.387 . S
C519 C521 1.390 . S
C519 H523 0.950 . S
H520 C516 0.950 . S
C521 C519 1.390 . S
C521 C522 1.387 . S
C521 H524 0.950 . S
C522 C521 1.387 . S
C522 C525 1.387 . S
H523 C519 0.950 . S
H524 C521 0.950 . S
C525 C516 1.390 . S
C525 H518 0.950 . S
C525 C522 1.387 . S
C526 C527 1.387 . S
C526 H530 0.950 1_455 S
C526 C535 1.390 . S
C527 C526 1.387 . S
C527 C529 1.387 . S
H528 C535 0.950 . S
C529 C527 1.387 . S
C529 C531 1.390 . S
C529 H533 0.950 . S
H530 C526 0.950 1_655 S
C531 C529 1.390 . S
C531 C532 1.387 . S
C531 H534 0.950 . S
C532 C531 1.387 . S
C532 C535 1.387 . S
H533 C529 0.950 . S
H534 C531 0.950 . S
C535 C526 1.390 . S
C535 H528 0.950 . S
C535 C532 1.387 . S
C536 C537 1.387 . S
C536 H540 0.950 . S
C536 C545 1.390 . S
C537 C536 1.387 . S
C537 C539 1.387 . S
H538 C545 0.950 1_554 S
C539 C537 1.387 . S
C539 C541 1.390 1_565 S
C539 H543 0.950 1_565 S
H540 C536 0.950 . S
C541 C539 1.390 1_545 S
C541 C542 1.387 1_545 S
C541 H544 0.950 . S
C542 C541 1.387 1_565 S
C542 C545 1.387 . S
H543 C539 0.950 1_545 S
H544 C541 0.950 . S
C545 C536 1.390 . S
C545 H538 0.950 1_556 S
C545 C542 1.387 . S
C546 C547 1.387 . S
C546 H550 0.950 . S
C546 C555 1.390 . S
C547 C546 1.387 . S
C547 C549 1.387 . S
H548 C555 0.950 . S
C549 C547 1.387 . S
C549 C551 1.390 . S
C549 H553 0.950 . S
H550 C546 0.950 . S
C551 C549 1.390 . S
C551 C552 1.387 . S
C551 H554 0.950 . S
C552 C551 1.387 . S
C552 C555 1.387 . S
H553 C549 0.950 . S
H554 C551 0.950 . S
C555 C546 1.390 . S
C555 H548 0.950 . S
C555 C552 1.387 . S
C556 C557 1.387 . S
C556 H560 0.950 . S
C556 C565 1.390 . S
C557 C556 1.387 . S
C557 C559 1.387 . S
H558 C565 0.950 . S
C559 C557 1.387 . S
C559 C561 1.390 . S
C559 H563 0.950 . S
H560 C556 0.950 . S
C561 C559 1.390 . S
C561 C562 1.387 . S
C561 H564 0.950 . S
C562 C561 1.387 . S
C562 C565 1.387 . S
H563 C559 0.950 . S
H564 C561 0.950 . S
C565 C556 1.390 . S
C565 H558 0.950 . S
C565 C562 1.387 . S
C566 C567 1.387 . S
C566 H570 0.950 . S
C566 C575 1.390 . S
C567 C566 1.387 . S
C567 C569 1.387 . S
H568 C575 0.950 . S
C569 C567 1.387 . S
C569 C571 1.390 . S
C569 H573 0.950 . S
H570 C566 0.950 . S
C571 C569 1.390 . S
C571 C572 1.387 . S
C571 H574 0.950 . S
C572 C571 1.387 . S
C572 C575 1.387 . S
H573 C569 0.950 . S
H574 C571 0.950 . S
C575 C566 1.390 . S
C575 H568 0.950 . S
C575 C572 1.387 . S
C576 C577 1.387 . S
C576 H580 0.950 . S
C576 C585 1.390 . S
C577 C576 1.387 . S
C577 C579 1.387 1_556 S
H578 C585 0.950 . S
C579 C577 1.387 1_554 S
C579 C581 1.390 . S
C579 H583 0.950 . S
H580 C576 0.950 . S
C581 C579 1.390 . S
C581 C582 1.387 1_554 S
C581 H584 0.950 . S
C582 C581 1.387 1_556 S
C582 C585 1.387 . S
H583 C579 0.950 . S
H584 C581 0.950 . S
C585 C576 1.390 . S
C585 H578 0.950 . S
C585 C582 1.387 . S
C586 C587 1.387 . S
C586 H590 0.950 . S
C586 C595 1.390 . S
C587 C586 1.387 . S
C587 C589 1.387 . S
H588 C595 0.966 . S
C589 C587 1.387 . S
C589 C591 1.390 . S
C589 H593 0.950 . S
H590 C586 0.950 . S
C591 C589 1.390 . S
C591 C592 1.387 . S
C591 H594 0.950 . S
C592 C591 1.387 . S
C592 C595 1.387 . S
H593 C589 0.950 . S
H594 C591 0.950 . S
C595 C586 1.390 . S
C595 H588 0.966 . S
C595 C592 1.387 . S
C596 C597 1.387 . S
C596 H600 0.950 1_455 S
C596 C605 1.390 . S
C597 C596 1.387 . S
C597 C599 1.387 . S
H598 C605 0.950 1_655 S
C599 C597 1.387 . S
C599 C601 1.390 . S
C599 H603 0.950 . S
H600 C596 0.950 1_655 S
C601 C599 1.390 . S
C601 C602 1.387 . S
C601 H604 0.950 . S
C602 C601 1.387 . S
C602 C605 1.387 . S
H603 C599 0.950 . S
H604 C601 0.950 . S
C605 C596 1.390 . S
C605 H598 0.950 1_455 S
C605 C602 1.387 . S
C606 C607 1.387 . S
C606 H610 0.950 . S
C606 C615 1.390 . S
C607 C606 1.387 . S
C607 C609 1.387 . S
H608 C615 0.950 . S
C609 C607 1.387 . S
C609 C611 1.390 . S
C609 H613 0.950 . S
H610 C606 0.950 . S
C611 C609 1.390 . S
C611 C612 1.387 . S
C611 H614 0.950 . S
C612 C611 1.387 . S
C612 C615 1.387 . S
H613 C609 0.950 . S
H614 C611 0.950 . S
C615 C606 1.390 . S
C615 H608 0.950 . S
C615 C612 1.387 . S
C377 C29 2.063 . S
C382 C272 2.195 . S
C387 C49 1.148 . S
C392 N292 1.132 . S
C402 C326 2.039 . S
C397 C93 1.920 . S
C407 C119 1.237 . S
C412 N360 1.237 . S
C422 C313 2.283 . S
C417 C17 2.172 . S
C432 N270 1.211 . S
C427 C61 1.312 . S
C442 C347 2.036 . S
C437 C81 1.931 . S
C452 N322 1.137 . S
C447 C125 1.029 . S
C457 C23 1.693 . S
C462 C362 1.800 . S
C472 C296 1.716 . S
C467 C87 1.609 . S
C477 C113 1.374 . S
C482 C257 1.498 . S
C487 C55 1.457 . S
C492 C343 1.443 . S
C502 C283 2.139 . S
C497 C157 2.131 . S
C507 C189 1.114 . S
C512 N300 1.177 . S
C517 C221 2.015 . S
C522 C317 2.011 . S
C527 C253 1.260 . S
C532 N352 1.291 . S
C537 C145 2.324 . S
C542 C302 2.320 . S
C552 N262 1.154 . S
C547 C183 1.125 . S
C562 C356 2.058 . S
C557 C209 2.046 . S
C572 N330 1.089 . S
C567 C247 1.002 . S
C577 C151 1.818 . S
C582 C373 1.815 . S
C592 C287 1.724 . S
C587 C215 1.733 . S
C602 C266 1.498 . S
C597 C241 1.366 . S
C607 C177 1.369 . S
C612 C332 1.480 . S
