# Generated by pormake.
# Topology ctn, (3,4)-cn, num edge types: 1
# Building blocks:
#     Node 0, Type 0, BuildingBlock: BELTOD_clean_linker_0, # of connection points: 3
#     Node 1, Type 0, BuildingBlock: BELTOD_clean_linker_0, # of connection points: 3
#     Node 2, Type 0, BuildingBlock: BELTOD_clean_linker_0, # of connection points: 3
#     Node 3, Type 0, BuildingBlock: BELTOD_clean_linker_0, # of connection points: 3
#     Node 4, Type 0, BuildingBlock: BELTOD_clean_linker_0, # of connection points: 3
#     Node 5, Type 0, BuildingBlock: BELTOD_clean_linker_0, # of connection points: 3
#     Node 6, Type 0, BuildingBlock: BELTOD_clean_linker_0, # of connection points: 3
#     Node 7, Type 0, BuildingBlock: BELTOD_clean_linker_0, # of connection points: 3
#     Node 8, Type 0, BuildingBlock: BELTOD_clean_linker_0, # of connection points: 3
#     Node 9, Type 0, BuildingBlock: BELTOD_clean_linker_0, # of connection points: 3
#     Node 10, Type 0, BuildingBlock: BELTOD_clean_linker_0, # of connection points: 3
#     Node 11, Type 0, BuildingBlock: BELTOD_clean_linker_0, # of connection points: 3
#     Node 12, Type 0, BuildingBlock: BELTOD_clean_linker_0, # of connection points: 3
#     Node 13, Type 0, BuildingBlock: BELTOD_clean_linker_0, # of connection points: 3
#     Node 14, Type 0, BuildingBlock: BELTOD_clean_linker_0, # of connection points: 3
#     Node 15, Type 0, BuildingBlock: BELTOD_clean_linker_0, # of connection points: 3
#     Node 16, Type 1, BuildingBlock: QUQFOY_clean_sbu_1, # of connection points: 4
#     Node 17, Type 1, BuildingBlock: QUQFOY_clean_sbu_1, # of connection points: 4
#     Node 18, Type 1, BuildingBlock: QUQFOY_clean_sbu_1, # of connection points: 4
#     Node 19, Type 1, BuildingBlock: QUQFOY_clean_sbu_1, # of connection points: 4
#     Node 20, Type 1, BuildingBlock: QUQFOY_clean_sbu_1, # of connection points: 4
#     Node 21, Type 1, BuildingBlock: QUQFOY_clean_sbu_1, # of connection points: 4
#     Node 22, Type 1, BuildingBlock: QUQFOY_clean_sbu_1, # of connection points: 4
#     Node 23, Type 1, BuildingBlock: QUQFOY_clean_sbu_1, # of connection points: 4
#     Node 24, Type 1, BuildingBlock: QUQFOY_clean_sbu_1, # of connection points: 4
#     Node 25, Type 1, BuildingBlock: QUQFOY_clean_sbu_1, # of connection points: 4
#     Node 26, Type 1, BuildingBlock: QUQFOY_clean_sbu_1, # of connection points: 4
#     Node 27, Type 1, BuildingBlock: QUQFOY_clean_sbu_1, # of connection points: 4
#     Edge 28, Type (0, 1), BuildingBlock: XUDNAN_clean_linker_2, # of connection points: 2
#     Edge 29, Type (0, 1), BuildingBlock: XUDNAN_clean_linker_2, # of connection points: 2
#     Edge 30, Type (0, 1), BuildingBlock: XUDNAN_clean_linker_2, # of connection points: 2
#     Edge 31, Type (0, 1), BuildingBlock: XUDNAN_clean_linker_2, # of connection points: 2
#     Edge 32, Type (0, 1), BuildingBlock: XUDNAN_clean_linker_2, # of connection points: 2
#     Edge 33, Type (0, 1), BuildingBlock: XUDNAN_clean_linker_2, # of connection points: 2
#     Edge 34, Type (0, 1), BuildingBlock: XUDNAN_clean_linker_2, # of connection points: 2
#     Edge 35, Type (0, 1), BuildingBlock: XUDNAN_clean_linker_2, # of connection points: 2
#     Edge 36, Type (0, 1), BuildingBlock: XUDNAN_clean_linker_2, # of connection points: 2
#     Edge 37, Type (0, 1), BuildingBlock: XUDNAN_clean_linker_2, # of connection points: 2
#     Edge 38, Type (0, 1), BuildingBlock: XUDNAN_clean_linker_2, # of connection points: 2
#     Edge 39, Type (0, 1), BuildingBlock: XUDNAN_clean_linker_2, # of connection points: 2
#     Edge 40, Type (0, 1), BuildingBlock: XUDNAN_clean_linker_2, # of connection points: 2
#     Edge 41, Type (0, 1), BuildingBlock: XUDNAN_clean_linker_2, # of connection points: 2
#     Edge 42, Type (0, 1), BuildingBlock: XUDNAN_clean_linker_2, # of connection points: 2
#     Edge 43, Type (0, 1), BuildingBlock: XUDNAN_clean_linker_2, # of connection points: 2
#     Edge 44, Type (0, 1), BuildingBlock: XUDNAN_clean_linker_2, # of connection points: 2
#     Edge 45, Type (0, 1), BuildingBlock: XUDNAN_clean_linker_2, # of connection points: 2
#     Edge 46, Type (0, 1), BuildingBlock: XUDNAN_clean_linker_2, # of connection points: 2
#     Edge 47, Type (0, 1), BuildingBlock: XUDNAN_clean_linker_2, # of connection points: 2
#     Edge 48, Type (0, 1), BuildingBlock: XUDNAN_clean_linker_2, # of connection points: 2
#     Edge 49, Type (0, 1), BuildingBlock: XUDNAN_clean_linker_2, # of connection points: 2
#     Edge 50, Type (0, 1), BuildingBlock: XUDNAN_clean_linker_2, # of connection points: 2
#     Edge 51, Type (0, 1), BuildingBlock: XUDNAN_clean_linker_2, # of connection points: 2
#     Edge 52, Type (0, 1), BuildingBlock: XUDNAN_clean_linker_2, # of connection points: 2
#     Edge 53, Type (0, 1), BuildingBlock: XUDNAN_clean_linker_2, # of connection points: 2
#     Edge 54, Type (0, 1), BuildingBlock: XUDNAN_clean_linker_2, # of connection points: 2
#     Edge 55, Type (0, 1), BuildingBlock: XUDNAN_clean_linker_2, # of connection points: 2
#     Edge 56, Type (0, 1), BuildingBlock: XUDNAN_clean_linker_2, # of connection points: 2
#     Edge 57, Type (0, 1), BuildingBlock: XUDNAN_clean_linker_2, # of connection points: 2
#     Edge 58, Type (0, 1), BuildingBlock: XUDNAN_clean_linker_2, # of connection points: 2
#     Edge 59, Type (0, 1), BuildingBlock: XUDNAN_clean_linker_2, # of connection points: 2
#     Edge 60, Type (0, 1), BuildingBlock: XUDNAN_clean_linker_2, # of connection points: 2
#     Edge 61, Type (0, 1), BuildingBlock: XUDNAN_clean_linker_2, # of connection points: 2
#     Edge 62, Type (0, 1), BuildingBlock: XUDNAN_clean_linker_2, # of connection points: 2
#     Edge 63, Type (0, 1), BuildingBlock: XUDNAN_clean_linker_2, # of connection points: 2
#     Edge 64, Type (0, 1), BuildingBlock: XUDNAN_clean_linker_2, # of connection points: 2
#     Edge 65, Type (0, 1), BuildingBlock: XUDNAN_clean_linker_2, # of connection points: 2
#     Edge 66, Type (0, 1), BuildingBlock: XUDNAN_clean_linker_2, # of connection points: 2
#     Edge 67, Type (0, 1), BuildingBlock: XUDNAN_clean_linker_2, # of connection points: 2
#     Edge 68, Type (0, 1), BuildingBlock: XUDNAN_clean_linker_2, # of connection points: 2
#     Edge 69, Type (0, 1), BuildingBlock: XUDNAN_clean_linker_2, # of connection points: 2
#     Edge 70, Type (0, 1), BuildingBlock: XUDNAN_clean_linker_2, # of connection points: 2
#     Edge 71, Type (0, 1), BuildingBlock: XUDNAN_clean_linker_2, # of connection points: 2
#     Edge 72, Type (0, 1), BuildingBlock: XUDNAN_clean_linker_2, # of connection points: 2
#     Edge 73, Type (0, 1), BuildingBlock: XUDNAN_clean_linker_2, # of connection points: 2
#     Edge 74, Type (0, 1), BuildingBlock: XUDNAN_clean_linker_2, # of connection points: 2
#     Edge 75, Type (0, 1), BuildingBlock: XUDNAN_clean_linker_2, # of connection points: 2
# Relax obj value: 0.037
# Max RMSD: 0.151
# Mean RMSD: 0.067
data_MOF--net-ctn--node1-QUQFOY_clean_sbu_1--node2-BELTOD_clean_linker_0--edge1-XUDNAN_clean_linker_2
_symmetry_space_group_name_H-M    P1
_symmetry_Int_Tables_number       1
_symmetry_cell_setting            triclinic
loop_
_symmetry_equiv_pos_as_xyz
'x, y, z'
_cell_length_a     62.149172
_cell_length_b     62.580419
_cell_length_c     62.141732
_cell_angle_alpha  92.156927
_cell_angle_beta   90.126265
_cell_angle_gamma 95.496365
loop_
_atom_site_label
_atom_site_type_symbol
_atom_site_fract_x
_atom_site_fract_y
_atom_site_fract_z
_atom_type_partial_charge
P0 P 0.07633 0.10271 0.10097 0.0
H1 H 0.06477 0.12631 0.13994 0.0
H2 H 0.03472 0.12091 0.165 0.0
H3 H 0.01278 0.06133 0.13083 0.0
H4 H 0.04325 0.06665 0.10614 0.0
H5 H 0.11322 0.08137 0.11581 0.0
H6 H 0.13157 0.05131 0.10064 0.0
H7 H 0.0831 0.04129 0.05041 0.0
H8 H 0.06488 0.07128 0.06563 0.0
H9 H 0.03228 0.11474 0.09313 0.0
H10 H 0.09333 0.11775 0.05987 0.0
O11 O 0.096 0.12023 0.11115 0.0
H12 H 0.01565 0.12983 0.06254 0.0
H13 H 0.0765 0.13275 0.02877 0.0
C14 C 0.0565 0.09665 0.12148 0.0
C15 C 0.0538 0.11183 0.13817 0.0
C16 C 0.03642 0.10886 0.15231 0.0
C17 C 0.02124 0.09074 0.14987 0.0
C18 C 0.02431 0.07531 0.13337 0.0
C19 C 0.04175 0.0783 0.11925 0.0
C20 C 0.08806 0.0789 0.09149 0.0
C21 C 0.10645 0.07255 0.10165 0.0
C22 C 0.11683 0.05529 0.09306 0.0
C23 C 0.10893 0.04415 0.07416 0.0
C24 C 0.08978 0.04984 0.06476 0.0
C25 C 0.07936 0.06698 0.07344 0.0
C26 C 0.06408 0.11489 0.07875 0.0
C27 C 0.04218 0.11856 0.07925 0.0
C28 C 0.03259 0.12714 0.06163 0.0
C29 C 0.04468 0.13224 0.0431 0.0
C30 C 0.06678 0.12905 0.04284 0.0
C31 C 0.07638 0.12042 0.06054 0.0
P32 P 0.31003 0.69832 0.20966 0.0
H33 H 0.32412 0.72534 0.17438 0.0
H34 H 0.30689 0.75214 0.15468 0.0
H35 H 0.25146 0.74429 0.19655 0.0
H36 H 0.26921 0.71787 0.21663 0.0
H37 H 0.35534 0.69417 0.21995 0.0
H38 H 0.37735 0.70471 0.25183 0.0
H39 H 0.32474 0.73683 0.27931 0.0
H40 H 0.30269 0.72609 0.24723 0.0
H41 H 0.27009 0.67662 0.19127 0.0
H42 H 0.30662 0.67568 0.25033 0.0
O43 O 0.32455 0.68573 0.19147 0.0
H44 H 0.24385 0.64844 0.20438 0.0
H45 H 0.28031 0.64819 0.26366 0.0
C46 C 0.29768 0.71922 0.19654 0.0
C47 C 0.30829 0.72943 0.17936 0.0
C48 C 0.29835 0.74466 0.16804 0.0
C49 C 0.27758 0.75003 0.17375 0.0
C50 C 0.26743 0.74049 0.1917 0.0
C51 C 0.27747 0.72527 0.20309 0.0
C52 C 0.32747 0.70955 0.23117 0.0
C53 C 0.34868 0.70388 0.23259 0.0
C54 C 0.36127 0.70993 0.25085 0.0
C55 C 0.35275 0.72154 0.26811 0.0
C56 C 0.33166 0.72772 0.26634 0.0
C57 C 0.31914 0.72181 0.24796 0.0
C58 C 0.29005 0.67863 0.21997 0.0
C59 C 0.27227 0.67062 0.20718 0.0
C60 C 0.25726 0.65457 0.21471 0.0
C61 C 0.25996 0.64611 0.2351 0.0
C62 C 0.27785 0.65421 0.24782 0.0
C63 C 0.29283 0.67017 0.24026 0.0
P64 P 0.9754 0.49665 0.02651 0.0
H65 H 0.96176 0.47853 0.9844 0.0
H66 H 0.95492 0.4416 0.9699 0.0
H67 H 0.96757 0.418 0.03273 0.0
H68 H 0.97384 0.45483 0.04715 0.0
H69 H 0.97427 0.54273 0.03068 0.0
H70 H 0.94493 0.5661 0.02978 0.0
H71 H 0.89915 0.51065 0.01693 0.0
H72 H 0.92858 0.48733 0.018 0.0
H73 H 0.01762 0.49804 0.04774 0.0
H74 H 0.95078 0.49721 0.06648 0.0
O75 O 0.99606 0.50695 0.01185 0.0
H76 H 0.02872 0.50245 0.08559 0.0
H77 H 0.96172 0.50146 0.10434 0.0
C78 C 0.96831 0.46943 0.0168 0.0
C79 C 0.96279 0.46536 0.99507 0.0
C80 C 0.95902 0.44426 0.9868 0.0
C81 C 0.96084 0.42683 0.00014 0.0
C82 C 0.96579 0.43102 0.02208 0.0
C83 C 0.96952 0.45215 0.03033 0.0
C84 C 0.95365 0.5134 0.02397 0.0
C85 C 0.95794 0.53564 0.02745 0.0
C86 C 0.94115 0.54894 0.02713 0.0
C87 C 0.91976 0.54018 0.02328 0.0
C88 C 0.91553 0.51785 0.01969 0.0
C89 C 0.93234 0.50452 0.02024 0.0
C90 C 0.98344 0.49788 0.05435 0.0
C91 C 0.00534 0.49869 0.06002 0.0
C92 C 0.01164 0.50103 0.08165 0.0
C93 C 0.99608 0.50254 0.0979 0.0
C94 C 0.97408 0.50074 0.09214 0.0
C95 C 0.96781 0.4983 0.07053 0.0
P96 P 0.6889 0.83026 0.20127 0.0
H97 H 0.7252 0.85695 0.18344 0.0
H98 H 0.74742 0.88871 0.19789 0.0
H99 H 0.71617 0.88102 0.25955 0.0
H100 H 0.69362 0.85011 0.24489 0.0
H101 H 0.66969 0.79904 0.17 0.0
H102 H 0.68425 0.77243 0.14597 0.0
H103 H 0.74827 0.79074 0.17186 0.0
H104 H 0.73328 0.81697 0.19657 0.0
H105 H 0.64221 0.82387 0.20758 0.0
H106 H 0.69959 0.80614 0.23874 0.0
O107 O 0.67287 0.84294 0.18551 0.0
H108 H 0.62001 0.80782 0.23601 0.0
H109 H 0.67744 0.7907 0.26799 0.0
C110 C 0.70812 0.85074 0.21318 0.0
C111 C 0.72352 0.86185 0.20021 0.0
C112 C 0.7362 0.88001 0.20849 0.0
C113 C 0.73349 0.88749 0.22986 0.0
C114 C 0.71847 0.8759 0.24294 0.0
C115 C 0.70575 0.8579 0.23462 0.0
C116 C 0.70049 0.81033 0.1846 0.0
C117 C 0.68687 0.79733 0.17052 0.0
C118 C 0.69525 0.78219 0.15671 0.0
C119 C 0.71751 0.77977 0.15666 0.0
C120 C 0.73106 0.79226 0.17147 0.0
C121 C 0.72256 0.80739 0.18545 0.0
C122 C 0.67257 0.81661 0.22134 0.0
C123 C 0.65006 0.81654 0.2206 0.0
C124 C 0.63737 0.80745 0.23698 0.0
C125 C 0.64697 0.79838 0.25457 0.0
C126 C 0.66952 0.79752 0.2547 0.0
C127 C 0.6822 0.80644 0.23809 0.0
P128 P 0.06644 0.94836 0.43543 0.0
H129 H 0.11277 0.94504 0.43674 0.0
H130 H 0.14401 0.97179 0.44043 0.0
H131 H 0.10124 0.02242 0.44166 0.0
H132 H 0.07015 0.99554 0.43881 0.0
H133 H 0.03999 0.91018 0.44811 0.0
H134 H 0.03355 0.89339 0.48272 0.0
H135 H 0.07468 0.94486 0.51423 0.0
H136 H 0.08107 0.96155 0.47959 0.0
H137 H 0.0572 0.96407 0.3935 0.0
H138 H 0.02513 0.95867 0.45478 0.0
O139 O 0.07241 0.92874 0.41817 0.0
H140 H 0.02665 0.98073 0.37893 0.0
H141 H 0.99409 0.97458 0.44013 0.0
C142 C 0.08923 0.96833 0.43705 0.0
C143 C 0.11019 0.96192 0.43764 0.0
C144 C 0.12802 0.97725 0.43966 0.0
C145 C 0.12516 0.99929 0.44116 0.0
C146 C 0.10403 0.0056 0.44071 0.0
C147 C 0.08622 0.99023 0.43884 0.0
C148 C 0.06122 0.93689 0.46123 0.0
C149 C 0.04756 0.91785 0.46249 0.0
C150 C 0.0438 0.90837 0.48229 0.0
C151 C 0.05368 0.91779 0.50119 0.0
C152 C 0.06708 0.9371 0.4999 0.0
C153 C 0.0707 0.94666 0.48009 0.0
C154 C 0.04327 0.95983 0.42506 0.0
C155 C 0.04342 0.96623 0.40372 0.0
C156 C 0.02588 0.97567 0.3954 0.0
C157 C 0.00778 0.97883 0.40829 0.0
C158 C 0.00781 0.97254 0.4298 0.0
C159 C 0.02548 0.96322 0.43815 0.0
P160 P 0.24028 0.75727 0.78654 0.0
H161 H 0.26118 0.76388 0.82881 0.0
H162 H 0.25223 0.78399 0.86154 0.0
H163 H 0.19376 0.80039 0.83097 0.0
H164 H 0.20328 0.78114 0.79818 0.0
H165 H 0.2794 0.73969 0.77025 0.0
H166 H 0.29631 0.70714 0.77768 0.0
H167 H 0.24416 0.68831 0.82113 0.0
H168 H 0.22833 0.72162 0.81472 0.0
H169 H 0.22846 0.77064 0.74358 0.0
H170 H 0.19978 0.73062 0.79292 0.0
O171 O 0.25804 0.77418 0.77402 0.0
H172 H 0.19506 0.76449 0.7224 0.0
H173 H 0.16641 0.72461 0.77209 0.0
C174 C 0.23269 0.77057 0.8112 0.0
C175 C 0.24633 0.77163 0.82927 0.0
C176 C 0.24112 0.78306 0.84802 0.0
C177 C 0.2222 0.79377 0.84897 0.0
C178 C 0.20856 0.79255 0.83078 0.0
C179 C 0.21388 0.78127 0.81203 0.0
C180 C 0.25262 0.73311 0.79197 0.0
C181 C 0.27172 0.72861 0.78151 0.0
C182 C 0.28127 0.70982 0.78563 0.0
C183 C 0.27168 0.69492 0.80004 0.0
C184 C 0.25233 0.69948 0.81026 0.0
C185 C 0.24302 0.71845 0.80638 0.0
C186 C 0.21672 0.75086 0.76973 0.0
C187 C 0.2151 0.76032 0.74976 0.0
C188 C 0.19593 0.75693 0.73774 0.0
C189 C 0.17807 0.74403 0.74553 0.0
C190 C 0.17997 0.7343 0.7654 0.0
C191 C 0.1991 0.73771 0.77736 0.0
P192 P 0.9848 0.53985 0.51649 0.0
H193 H 0.01405 0.56252 0.48666 0.0
H194 H 0.02517 0.55362 0.44995 0.0
H195 H 0.97829 0.49795 0.44785 0.0
H196 H 0.96735 0.50682 0.4845 0.0
H197 H 0.00329 0.56647 0.55261 0.0
H198 H 0.00163 0.60401 0.56339 0.0
H199 H 0.96272 0.61244 0.50706 0.0
H200 H 0.96567 0.57494 0.49573 0.0
H201 H 0.97426 0.49575 0.52879 0.0
H202 H 0.94019 0.55189 0.52104 0.0
O203 O 0.00501 0.53042 0.52981 0.0
H204 H 0.94044 0.47515 0.53797 0.0
H205 H 0.90653 0.53173 0.53108 0.0
C206 C 0.98973 0.5355 0.48826 0.0
C207 C 0.00581 0.5487 0.4781 0.0
C208 C 0.01212 0.54362 0.45711 0.0
C209 C 0.00263 0.52504 0.44607 0.0
C210 C 0.98601 0.51225 0.45605 0.0
C211 C 0.97966 0.51741 0.477 0.0
C212 C 0.98469 0.568 0.52334 0.0
C213 C 0.99467 0.57646 0.54241 0.0
C214 C 0.99345 0.59793 0.54869 0.0
C215 C 0.98173 0.61126 0.53628 0.0
C216 C 0.97203 0.60275 0.51692 0.0
C217 C 0.9736 0.5813 0.51047 0.0
C218 C 0.95985 0.52543 0.52454 0.0
C219 C 0.95956 0.50374 0.52944 0.0
C220 C 0.9402 0.49201 0.5348 0.0
C221 C 0.92073 0.50181 0.53545 0.0
C222 C 0.92115 0.52361 0.53055 0.0
C223 C 0.94051 0.53525 0.52498 0.0
P224 P 0.81119 0.86157 0.82559 0.0
H225 H 0.84884 0.88111 0.80284 0.0
H226 H 0.87355 0.86614 0.7769 0.0
H227 H 0.83208 0.80669 0.77309 0.0
H228 H 0.8074 0.82168 0.79866 0.0
H229 H 0.79217 0.89902 0.84312 0.0
H230 H 0.76015 0.91617 0.83392 0.0
H231 H 0.74616 0.86908 0.78178 0.0
H232 H 0.7792 0.85265 0.7905 0.0
H233 H 0.8299 0.84482 0.86395 0.0
H234 H 0.77465 0.82809 0.82239 0.0
O235 O 0.8274 0.87914 0.84049 0.0
H236 H 0.82119 0.81181 0.88344 0.0
H237 H 0.76642 0.79478 0.84139 0.0
C238 C 0.8266 0.8523 0.80319 0.0
C239 C 0.84486 0.86499 0.79613 0.0
C240 C 0.85892 0.85648 0.78125 0.0
C241 C 0.85488 0.83514 0.77333 0.0
C242 C 0.83575 0.82306 0.77927 0.0
C243 C 0.82164 0.83164 0.79394 0.0
C244 C 0.78818 0.8747 0.81738 0.0
C245 C 0.78241 0.89252 0.82952 0.0
C246 C 0.76384 0.90215 0.8244 0.0
C247 C 0.75029 0.89385 0.80728 0.0
C248 C 0.75626 0.87602 0.79496 0.0
C249 C 0.7751 0.86655 0.79996 0.0
C250 C 0.8028 0.83906 0.84185 0.0
C251 C 0.8157 0.83428 0.85924 0.0
C252 C 0.81078 0.81543 0.87033 0.0
C253 C 0.79321 0.80084 0.8638 0.0
C254 C 0.78008 0.80581 0.84664 0.0
C255 C 0.78472 0.82489 0.83588 0.0
P256 P 0.30767 0.36292 0.33948 0.0
H257 H 0.3387 0.39197 0.31694 0.0
H258 H 0.3657 0.38593 0.28931 0.0
H259 H 0.34823 0.31752 0.29105 0.0
H260 H 0.32128 0.32367 0.31863 0.0
H261 H 0.26323 0.36059 0.35504 0.0
H262 H 0.22914 0.36767 0.33815 0.0
H263 H 0.26242 0.37929 0.27818 0.0
H264 H 0.29635 0.37204 0.295 0.0
H265 H 0.33235 0.35603 0.37796 0.0
H266 H 0.27986 0.32225 0.34125 0.0
O267 O 0.31472 0.38601 0.35314 0.0
H268 H 0.33145 0.3264 0.40265 0.0
H269 H 0.27876 0.29264 0.36598 0.0
C270 C 0.32833 0.35825 0.32012 0.0
C271 C 0.34087 0.37567 0.31155 0.0
C272 C 0.35616 0.37221 0.29566 0.0
C273 C 0.35914 0.35124 0.28812 0.0
C274 C 0.34654 0.33382 0.29681 0.0
C275 C 0.33111 0.33732 0.31255 0.0
C276 C 0.28228 0.36537 0.32621 0.0
C277 C 0.26309 0.36413 0.33812 0.0
C278 C 0.24362 0.36812 0.32844 0.0
C279 C 0.24314 0.37388 0.30682 0.0
C280 C 0.26234 0.37484 0.29486 0.0
C281 C 0.28175 0.37063 0.30449 0.0
C282 C 0.30579 0.34158 0.35817 0.0
C283 C 0.32045 0.34236 0.3754 0.0
C284 C 0.32002 0.32538 0.38938 0.0
C285 C 0.30494 0.3073 0.3863 0.0
C286 C 0.2903 0.30655 0.36895 0.0
C287 C 0.29089 0.32347 0.35485 0.0
P288 P 0.48656 0.00451 0.55088 0.0
H289 H 0.48358 0.99826 0.50447 0.0
H290 H 0.48556 0.96687 0.48024 0.0
H291 H 0.49013 0.92709 0.53515 0.0
H292 H 0.48744 0.95842 0.55924 0.0
H293 H 0.47399 0.04188 0.57471 0.0
H294 H 0.44138 0.06083 0.57479 0.0
H295 H 0.412 0.01418 0.52789 0.0
H296 H 0.44464 0.99522 0.52795 0.0
H297 H 0.52742 0.00905 0.57476 0.0
H298 H 0.46065 0.98768 0.58675 0.0
O299 O 0.50575 0.02216 0.54147 0.0
H300 H 0.53586 0.00622 0.61287 0.0
H301 H 0.46902 0.98439 0.62493 0.0
C302 C 0.48552 0.98071 0.5336 0.0
C303 C 0.48473 0.98271 0.51126 0.0
C304 C 0.48602 0.96478 0.49745 0.0
C305 C 0.4883 0.94451 0.50575 0.0
C306 C 0.48824 0.94243 0.52822 0.0
C307 C 0.48684 0.9604 0.54204 0.0
C308 C 0.46178 0.01722 0.55128 0.0
C309 C 0.46045 0.03564 0.56456 0.0
C310 C 0.44177 0.04638 0.5647 0.0
C311 C 0.42414 0.03899 0.55134 0.0
C312 C 0.42543 0.02034 0.5382 0.0
C313 C 0.44409 0.00949 0.53823 0.0
C314 C 0.49333 0.99911 0.57814 0.0
C315 C 0.51464 0.00344 0.58557 0.0
C316 C 0.51948 0.0016 0.60734 0.0
C317 C 0.50305 0.99528 0.62197 0.0
C318 C 0.48194 0.98964 0.61412 0.0
C319 C 0.47714 0.99149 0.59234 0.0
P320 P 0.17521 0.33278 0.68959 0.0
H321 H 0.19795 0.36438 0.66241 0.0
H322 H 0.22993 0.38987 0.66837 0.0
H323 H 0.23993 0.3631 0.73027 0.0
H324 H 0.20792 0.33752 0.72413 0.0
H325 H 0.1496 0.30619 0.65783 0.0
H326 H 0.15551 0.27319 0.6377 0.0
H327 H 0.21592 0.27048 0.67169 0.0
H328 H 0.21 0.30404 0.69156 0.0
H329 H 0.17114 0.36139 0.72706 0.0
H330 H 0.1481 0.29642 0.7072 0.0
O331 O 0.15904 0.34577 0.67429 0.0
H332 H 0.14941 0.35835 0.75955 0.0
H333 H 0.12547 0.29357 0.73927 0.0
C334 C 0.20027 0.34951 0.69309 0.0
C335 C 0.20712 0.36389 0.67719 0.0
C336 C 0.22546 0.37837 0.68056 0.0
C337 C 0.23725 0.37865 0.69992 0.0
C338 C 0.23091 0.36349 0.71538 0.0
C339 C 0.21268 0.34886 0.71188 0.0
C340 C 0.17955 0.30775 0.67586 0.0
C341 C 0.16413 0.29853 0.66097 0.0
C342 C 0.16744 0.27949 0.64962 0.0
C343 C 0.1862 0.26913 0.65308 0.0
C344 C 0.20143 0.27819 0.66846 0.0
C345 C 0.19805 0.29732 0.67986 0.0
C346 C 0.16166 0.32898 0.71493 0.0
C347 C 0.16172 0.34629 0.7299 0.0
C348 C 0.14905 0.34462 0.74837 0.0
C349 C 0.13556 0.32576 0.75199 0.0
C350 C 0.13591 0.30821 0.73718 0.0
C351 C 0.1488 0.30985 0.71875 0.0
P352 P 0.81207 0.18065 0.68604 0.0
H353 H 0.84003 0.21031 0.66135 0.0
H354 H 0.83254 0.23774 0.63605 0.0
H355 H 0.76448 0.22733 0.65055 0.0
H356 H 0.77208 0.20006 0.67589 0.0
H357 H 0.84243 0.15388 0.70439 0.0
H358 H 0.86847 0.15997 0.73396 0.0
H359 H 0.85483 0.22637 0.73986 0.0
H360 H 0.82906 0.22019 0.70988 0.0
H361 H 0.77934 0.1441 0.67941 0.0
H362 H 0.79377 0.19603 0.7264 0.0
O363 O 0.81844 0.16123 0.66874 0.0
H364 H 0.74995 0.12904 0.70203 0.0
H365 H 0.76443 0.18104 0.7491 0.0
C366 C 0.80668 0.2033 0.67061 0.0
C367 C 0.82356 0.21426 0.65939 0.0
C368 C 0.81923 0.2298 0.64484 0.0
C369 C 0.79789 0.23456 0.64122 0.0
C370 C 0.78109 0.22414 0.65315 0.0
C371 C 0.78544 0.20851 0.66763 0.0
C372 C 0.83414 0.18667 0.70472 0.0
C373 C 0.84547 0.16989 0.71167 0.0
C374 C 0.86017 0.17334 0.72874 0.0
C375 C 0.8636 0.19362 0.73937 0.0
C376 C 0.85274 0.21063 0.73185 0.0
C377 C 0.83803 0.20714 0.71471 0.0
C378 C 0.78902 0.17089 0.70149 0.0
C379 C 0.77609 0.15234 0.69452 0.0
C380 C 0.75921 0.14383 0.70739 0.0
C381 C 0.75505 0.15377 0.72742 0.0
C382 C 0.7675 0.17287 0.7339 0.0
C383 C 0.78425 0.18144 0.72094 0.0
P384 P 0.58598 0.61332 0.60868 0.0
H385 H 0.56257 0.64245 0.63548 0.0
H386 H 0.53137 0.63697 0.65897 0.0
H387 H 0.53048 0.56824 0.64712 0.0
H388 H 0.56017 0.57415 0.62217 0.0
H389 H 0.61735 0.59127 0.6322 0.0
H390 H 0.63373 0.55764 0.62512 0.0
H391 H 0.59647 0.54677 0.56633 0.0
H392 H 0.57981 0.58018 0.57372 0.0
H393 H 0.54855 0.63635 0.59695 0.0
H394 H 0.60653 0.61757 0.56658 0.0
O395 O 0.6046 0.63071 0.62079 0.0
H396 H 0.54005 0.65536 0.5654 0.0
H397 H 0.59717 0.63512 0.53394 0.0
C398 C 0.56364 0.60877 0.62695 0.0
C399 C 0.55547 0.62622 0.63786 0.0
C400 C 0.5377 0.62299 0.65152 0.0
C401 C 0.52811 0.60211 0.6551 0.0
C402 C 0.53683 0.58462 0.64445 0.0
C403 C 0.55416 0.58795 0.63029 0.0
C404 C 0.59794 0.58857 0.60312 0.0
C405 C 0.61278 0.58168 0.61775 0.0
C406 C 0.62198 0.5624 0.61379 0.0
C407 C 0.61651 0.54971 0.59508 0.0
C408 C 0.60123 0.55642 0.5807 0.0
C409 C 0.59179 0.57555 0.58486 0.0
C410 C 0.57806 0.62516 0.58416 0.0
C411 C 0.5593 0.63587 0.58336 0.0
C412 C 0.55428 0.64665 0.565 0.0
C413 C 0.56777 0.64676 0.54682 0.0
C414 C 0.58648 0.63573 0.54762 0.0
C415 C 0.59172 0.62537 0.56622 0.0
P416 P 0.565 0.4425 0.93857 0.0
H417 H 0.60243 0.45177 0.96687 0.0
H418 H 0.62502 0.48498 0.97677 0.0
H419 H 0.5871 0.52009 0.9346 0.0
H420 H 0.56488 0.48696 0.92448 0.0
H421 H 0.56191 0.39695 0.94878 0.0
H422 H 0.54858 0.37772 0.98053 0.0
H423 H 0.53767 0.4381 0.01258 0.0
H424 H 0.55157 0.45727 0.98115 0.0
H425 H 0.54574 0.42947 0.89626 0.0
H426 H 0.53021 0.46817 0.95193 0.0
O427 O 0.57902 0.42719 0.92235 0.0
H428 H 0.51277 0.43812 0.87829 0.0
H429 H 0.49756 0.47719 0.93403 0.0
C430 C 0.58166 0.46696 0.94537 0.0
C431 C 0.59898 0.46663 0.95979 0.0
C432 C 0.6119 0.48556 0.96537 0.0
C433 C 0.60762 0.50511 0.95662 0.0
C434 C 0.59048 0.5053 0.94188 0.0
C435 C 0.57775 0.48633 0.93612 0.0
C436 C 0.55776 0.42852 0.96266 0.0
C437 C 0.55706 0.40607 0.9628 0.0
C438 C 0.5495 0.39511 0.98092 0.0
C439 C 0.5421 0.40648 0.99891 0.0
C440 C 0.54322 0.42899 0.99885 0.0
C441 C 0.55111 0.43993 0.9809 0.0
C442 C 0.5404 0.44813 0.92546 0.0
C443 C 0.53523 0.43978 0.90464 0.0
C444 C 0.51643 0.44484 0.89435 0.0
C445 C 0.5025 0.45834 0.90473 0.0
C446 C 0.5077 0.46646 0.9257 0.0
C447 C 0.52643 0.46135 0.93596 0.0
P448 P 0.74456 0.28105 0.27832 0.0
H449 H 0.76366 0.28196 0.32163 0.0
H450 H 0.75745 0.30275 0.35465 0.0
H451 H 0.70726 0.33293 0.32229 0.0
H452 H 0.71466 0.31321 0.28913 0.0
H453 H 0.78619 0.26422 0.26948 0.0
H454 H 0.80095 0.23089 0.2785 0.0
H455 H 0.74032 0.20899 0.30808 0.0
H456 H 0.72587 0.24267 0.29943 0.0
H457 H 0.73677 0.28236 0.23195 0.0
H458 H 0.69914 0.26922 0.28895 0.0
O459 O 0.76304 0.29639 0.26494 0.0
H460 H 0.70368 0.28009 0.21039 0.0
H461 H 0.66594 0.26806 0.26786 0.0
C462 C 0.73915 0.29549 0.30308 0.0
C463 C 0.75122 0.29294 0.32172 0.0
C464 C 0.74753 0.3048 0.34067 0.0
C465 C 0.73166 0.31946 0.34134 0.0
C466 C 0.71976 0.32202 0.32247 0.0
C467 C 0.72374 0.31045 0.30348 0.0
C468 C 0.75489 0.25586 0.28371 0.0
C469 C 0.77602 0.2522 0.27778 0.0
C470 C 0.78442 0.23306 0.28286 0.0
C471 C 0.77185 0.21724 0.29403 0.0
C472 C 0.75055 0.22093 0.29971 0.0
C473 C 0.74219 0.24009 0.29462 0.0
C474 C 0.72036 0.2765 0.26212 0.0
C475 C 0.72136 0.27897 0.23983 0.0
C476 C 0.70238 0.27784 0.22754 0.0
C477 C 0.68201 0.27432 0.23738 0.0
C478 C 0.68124 0.27067 0.25961 0.0
C479 C 0.70025 0.2715 0.27179 0.0
P480 P 0.47987 0.03008 0.04325 0.0
H481 H 0.52358 0.03196 0.02562 0.0
H482 H 0.5376 0.03686 0.98928 0.0
H483 H 0.47265 0.04121 0.96583 0.0
H484 H 0.45892 0.03705 0.00242 0.0
H485 H 0.50705 0.0634 0.067 0.0
H486 H 0.50023 0.09871 0.08254 0.0
H487 H 0.43476 0.08965 0.0583 0.0
H488 H 0.44191 0.05476 0.04184 0.0
H489 H 0.46693 0.99232 0.01546 0.0
H490 H 0.44133 0.02504 0.07069 0.0
O491 O 0.49836 0.02014 0.05851 0.0
H492 H 0.43466 0.96668 0.0141 0.0
H493 H 0.4088 0.99965 0.06909 0.0
C494 C 0.49019 0.03369 0.01654 0.0
C495 C 0.51238 0.03392 0.01263 0.0
C496 C 0.52035 0.03663 0.99182 0.0
C497 C 0.50623 0.03921 0.97457 0.0
C498 C 0.484 0.03943 0.97873 0.0
C499 C 0.47609 0.03686 -0.00041 0.0
C500 C 0.4747 0.05611 0.05409 0.0
C501 C 0.49124 0.069 0.06499 0.0
C502 C 0.48741 0.08917 0.07371 0.0
C503 C 0.46693 0.0966 0.07173 0.0
C504 C 0.45059 0.08403 0.06017 0.0
C505 C 0.45462 0.06408 0.05098 0.0
C506 C 0.4561 0.01118 0.04257 0.0
C507 C 0.45426 0.99418 0.02712 0.0
C508 C 0.4359 0.97944 0.02645 0.0
C509 C 0.41915 0.98142 0.0413 0.0
C510 C 0.42131 0.99807 0.05718 0.0
C511 C 0.43984 0.01262 0.05803 0.0
O512 O 0.22513 0.85671 0.00448 0.0
Cd513 Cd 0.23875 0.86692 0.03372 0.0
Cd514 Cd 0.22786 0.90822 0.02021 0.0
O515 O 0.21952 0.88876 0.99319 0.0
O516 O 0.24577 0.83959 0.04611 0.0
O517 O 0.2248 0.86142 0.06268 0.0
C518 C 0.23458 0.84413 0.06277 0.0
C519 C 0.20446 0.93486 0.02739 0.0
C520 C 0.21914 0.86855 0.98988 0.0
C521 C 0.27439 0.90347 0.03087 0.0
O522 O 0.26038 0.91628 0.02672 0.0
O523 O 0.26882 0.88365 0.03322 0.0
O524 O 0.21754 0.93575 0.01137 0.0
O525 O 0.20484 0.9189 0.03992 0.0
O526 O 0.13953 0.52231 0.27789 0.0
Cd527 Cd 0.11668 0.49653 0.28184 0.0
Cd528 Cd 0.09162 0.52972 0.26807 0.0
O529 O 0.12086 0.5478 0.26615 0.0
O530 O 0.13618 0.47651 0.29362 0.0
O531 O 0.11834 0.46954 0.26294 0.0
C532 C 0.13184 0.46401 0.27702 0.0
C533 C 0.06928 0.52621 0.23796 0.0
C534 C 0.13878 0.54121 0.27134 0.0
C535 C 0.07994 0.5101 0.31006 0.0
O536 O 0.07737 0.52529 0.29762 0.0
O537 O 0.0938 0.4969 0.30584 0.0
O538 O 0.07049 0.54327 0.25039 0.0
O539 O 0.08103 0.51101 0.24258 0.0
O540 O 0.75598 0.68431 0.9736 0.0
Cd541 Cd 0.74437 0.66649 0.99909 0.0
Cd542 Cd 0.76702 0.63649 0.97846 0.0
O543 O 0.77199 0.65936 0.95549 0.0
O544 O 0.73147 0.68826 0.01777 0.0
O545 O 0.75878 0.67098 0.02834 0.0
C546 C 0.74533 0.68508 0.03247 0.0
C547 C 0.79673 0.62195 0.99274 0.0
C548 C 0.7664 0.67834 0.95724 0.0
C549 C 0.71999 0.62402 0.98553 0.0
O550 O 0.73782 0.61814 0.9787 0.0
O551 O 0.71909 0.64278 0.99386 0.0
O552 O 0.78917 0.61595 0.9739 0.0
O553 O 0.78742 0.63652 0.00353 0.0
O554 O 0.89658 0.02392 0.30045 0.0
Cd555 Cd 0.8801 0.03067 0.27323 0.0
Cd556 Cd 0.85462 0.04968 0.30321 0.0
O557 O 0.87886 0.04265 0.32404 0.0
O558 O 0.90092 0.02689 0.24944 0.0
O559 O 0.88897 0.05817 0.25851 0.0
C560 C 0.90136 0.04724 0.24663 0.0
C561 C 0.8407 0.08304 0.30745 0.0
C562 C 0.89407 0.03102 0.3196 0.0
C563 C 0.83454 0.01155 0.27585 0.0
O564 O 0.83274 0.02493 0.29152 0.0
O565 O 0.85214 0.01157 0.26547 0.0
O566 O 0.83656 0.06811 0.32098 0.0
O567 O 0.85328 0.07924 0.29152 0.0
O568 O 0.25595 0.18269 0.48521 0.0
Cd569 Cd 0.24186 0.16008 0.50563 0.0
Cd570 Cd 0.27853 0.13956 0.49517 0.0
O571 O 0.28699 0.16854 0.48139 0.0
O572 O 0.2181 0.17355 0.52067 0.0
O573 O 0.24734 0.16494 0.53753 0.0
C574 C 0.22893 0.1729 0.53829 0.0
C575 C 0.30554 0.12345 0.51292 0.0
C576 C 0.27514 0.18354 0.47801 0.0
C577 C 0.23525 0.11707 0.48219 0.0
O578 O 0.25564 0.11798 0.48027 0.0
O579 O 0.22659 0.13173 0.49274 0.0
O580 O 0.30496 0.12422 0.49226 0.0
O581 O 0.29093 0.13242 0.5238 0.0
O582 O 0.39999 0.50916 0.79038 0.0
Cd583 Cd 0.38538 0.52069 0.76388 0.0
Cd584 Cd 0.35317 0.52601 0.79231 0.0
O585 O 0.37491 0.51598 0.81401 0.0
O586 O 0.40855 0.52351 0.74186 0.0
O587 O 0.39383 0.55144 0.7564 0.0
C588 C 0.40772 0.544 0.74339 0.0
C589 C 0.33858 0.55851 0.79915 0.0
C590 C 0.39307 0.50918 0.80961 0.0
C591 C 0.34226 0.49523 0.75526 0.0
O592 O 0.33587 0.50273 0.77318 0.0
O593 O 0.36101 0.50123 0.74833 0.0
O594 O 0.3323 0.54164 0.80961 0.0
O595 O 0.3533 0.55698 0.78465 0.0
O596 O 0.73762 0.37387 0.4991 0.0
Cd597 Cd 0.74982 0.37798 0.53022 0.0
Cd598 Cd 0.73117 0.41995 0.52251 0.0
O599 O 0.72428 0.40464 0.4931 0.0
O600 O 0.7669 0.35267 0.52986 0.0
O601 O 0.7411 0.35672 0.55345 0.0
C602 C 0.75614 0.34562 0.54615 0.0
C603 C 0.70459 0.43823 0.53971 0.0
C604 C 0.72836 0.38593 0.48672 0.0
C605 C 0.77763 0.42152 0.5356 0.0
O606 O 0.76262 0.43193 0.52876 0.0
O607 O 0.77473 0.40134 0.53765 0.0
O608 O 0.71451 0.4456 0.52296 0.0
O609 O 0.70948 0.42005 0.54658 0.0
O610 O 0.64169 0.04984 0.8089 0.0
Cd611 Cd 0.62163 0.02248 0.81471 0.0
Cd612 Cd 0.59435 0.0416 0.78964 0.0
O613 O 0.6216 0.06187 0.78357 0.0
O614 O 0.64096 0.00177 0.82555 0.0
O615 O 0.62357 0.99692 0.79435 0.0
C616 C 0.63699 0.9904 0.80801 0.0
C617 C 0.57196 0.02936 0.76091 0.0
C618 C 0.63908 0.06314 0.79439 0.0
C619 C 0.58207 0.03552 0.83606 0.0
O620 O 0.57874 0.04474 0.81868 0.0
O621 O 0.59789 0.02423 0.83758 0.0
O622 O 0.57195 0.0486 0.76901 0.0
O623 O 0.58522 0.01696 0.76876 0.0
O624 O 0.96888 0.27104 0.92491 0.0
Cd625 Cd 0.97644 0.24341 0.90856 0.0
Cd626 Cd 0.99271 0.27563 0.8771 0.0
O627 O 0.98362 0.29479 0.90254 0.0
O628 O 0.96767 0.22035 0.92884 0.0
O629 O 0.00163 0.22841 0.91932 0.0
C630 C 0.98766 0.21678 0.9303 0.0
C631 C 0.02231 0.29052 0.85764 0.0
C632 C 0.97385 0.29041 0.92 0.0
C633 C 0.9581 0.24052 0.86284 0.0
O634 O 0.96947 0.25777 0.85854 0.0
O635 O 0.95927 0.23243 0.88121 0.0
O636 O 0.00382 0.29811 0.85712 0.0
O637 O 0.02423 0.27418 0.86933 0.0
O638 O 0.48796 0.79144 0.43563 0.0
Cd639 Cd 0.48607 0.7601 0.4238 0.0
Cd640 Cd 0.50685 0.77597 0.38856 0.0
O641 O 0.50684 0.80353 0.40789 0.0
O642 O 0.48705 0.73992 0.44768 0.0
O643 O 0.51334 0.74556 0.42384 0.0
C644 C 0.50592 0.73599 0.44076 0.0
C645 C 0.53745 0.77459 0.36678 0.0
C646 C 0.49806 0.80688 0.426 0.0
C647 C 0.46168 0.75328 0.38259 0.0
O648 O 0.47823 0.76318 0.37425 0.0
O649 O 0.46128 0.7499 0.40262 0.0
O650 O 0.52306 0.78753 0.36337 0.0
O651 O 0.53456 0.76206 0.38275 0.0
O652 O 0.98204 0.77513 0.68078 0.0
Cd653 Cd 0.00536 0.7646 0.66067 0.0
Cd654 Cd 0.98833 0.79402 0.63361 0.0
O655 O 0.96882 0.79867 0.66001 0.0
O656 O 0.02013 0.74474 0.67866 0.0
O657 O 0.03716 0.77397 0.66555 0.0
C658 C 0.03784 0.75687 0.67643 0.0
C659 C 0.00554 0.82352 0.61682 0.0
C660 C 0.96879 0.78897 0.67763 0.0
C661 C 0.98632 0.74814 0.61755 0.0
O662 O 0.98193 0.76701 0.61363 0.0
O663 O 0.99544 0.74433 0.63509 0.0
O664 O 0.98509 0.81821 0.61449 0.0
O665 O 0.01624 0.81243 0.6295 0.0
O666 O 0.47583 0.28651 0.19432 0.0
Cd667 Cd 0.49611 0.26844 0.17717 0.0
Cd668 Cd 0.48175 0.28702 0.14091 0.0
O669 O 0.46361 0.30031 0.16507 0.0
O670 O 0.5204 0.26159 0.19574 0.0
O671 O 0.5247 0.28195 0.16731 0.0
C672 C 0.53315 0.27293 0.18326 0.0
C673 C 0.49098 0.31105 0.11378 0.0
C674 C 0.46346 0.29858 0.1854 0.0
C675 C 0.47623 0.23856 0.14281 0.0
O676 O 0.47578 0.25487 0.1313 0.0
O677 O 0.48276 0.2405 0.16221 0.0
O678 O 0.47154 0.30236 0.11598 0.0
O679 O 0.50568 0.30565 0.12666 0.0
H680 H 0.22814 0.78482 0.89157 0.0
H681 H 0.20533 0.83273 0.85057 0.0
H682 H 0.19821 0.8552 0.88267 0.0
H683 H 0.19086 0.79212 0.93645 0.0
H684 H 0.21108 0.78879 0.95657 0.0
H685 H 0.21224 0.7753 0.93051 0.0
H686 H 0.25132 0.79281 0.92543 0.0
H687 H 0.25031 0.80623 0.95147 0.0
H688 H 0.25665 0.82162 0.92798 0.0
H689 H 0.19645 0.8739 0.9188 0.0
H690 H 0.20112 0.88788 0.95633 0.0
H691 H 0.22556 0.82815 0.97393 0.0
C692 C 0.22155 0.79998 0.88931 0.0
C693 C 0.21713 0.80687 0.86847 0.0
C694 C 0.20843 0.82683 0.86632 0.0
C695 C 0.20439 0.83978 0.88448 0.0
C696 C 0.20909 0.83257 0.90473 0.0
C697 C 0.21747 0.81315 0.90727 0.0
C698 C 0.2224 0.8098 0.93072 0.0
C699 C 0.2083 0.79035 0.93905 0.0
C700 C 0.2466 0.80749 0.93409 0.0
C701 C 0.21602 0.83063 0.94089 0.0
C702 C 0.20814 0.84343 0.92564 0.0
C703 C 0.20235 0.86393 0.93094 0.0
C704 C 0.20509 0.87174 0.95231 0.0
C705 C 0.21361 0.8591 0.96813 0.0
C706 C 0.2187 0.83811 0.96232 0.0
H707 H 0.01371 0.54969 0.41134 0.0
H708 H 0.01199 0.4847 0.43376 0.0
H709 H 0.02957 0.47334 0.40026 0.0
H710 H 0.00417 0.53457 0.35394 0.0
H711 H 0.0223 0.55665 0.34499 0.0
H712 H 0.00791 0.55929 0.36995 0.0
H713 H 0.04422 0.5694 0.39011 0.0
H714 H 0.05871 0.56669 0.36526 0.0
H715 H 0.06523 0.55147 0.38805 0.0
H716 H 0.05052 0.46984 0.36637 0.0
H717 H 0.07158 0.47388 0.33292 0.0
H718 H 0.05895 0.54087 0.33179 0.0
C719 C 0.01682 0.53302 0.40905 0.0
C720 C 0.01137 0.51803 0.42507 0.0
C721 C 0.01569 0.49636 0.42154 0.0
C722 C 0.02577 0.48978 0.40262 0.0
C723 C 0.03125 0.50502 0.38732 0.0
C724 C 0.02673 0.52614 0.39017 0.0
C725 C 0.03501 0.53943 0.37151 0.0
C726 C 0.01622 0.54798 0.35938 0.0
C727 C 0.05179 0.55783 0.3792 0.0
C728 C 0.04535 0.5226 0.35801 0.0
C729 C 0.04297 0.50286 0.36743 0.0
C730 C 0.05223 0.48512 0.35866 0.0
C731 C 0.06424 0.4876 0.33972 0.0
C732 C 0.06677 0.50764 0.3297 0.0
C733 C 0.05702 0.52528 0.33892 0.0
H734 H 0.78635 0.79378 0.90648 0.0
H735 H 0.79133 0.76111 0.84421 0.0
H736 H 0.78601 0.72594 0.86143 0.0
H737 H 0.81331 0.75713 0.93779 0.0
H738 H 0.79543 0.7587 0.96048 0.0
H739 H 0.8002 0.78121 0.94331 0.0
H740 H 0.75899 0.7808 0.93652 0.0
H741 H 0.7541 0.75836 0.95373 0.0
H742 H 0.74392 0.7564 0.92648 0.0
H743 H 0.78148 0.69451 0.88572 0.0
H744 H 0.77445 0.66888 0.91483 0.0
H745 H 0.7701 0.72221 0.96081 0.0
C746 C 0.78633 0.77917 0.89656 0.0
C747 C 0.7893 0.77998 0.8741 0.0
C748 C 0.78898 0.76067 0.86146 0.0
C749 C 0.78608 0.7407 0.8711 0.0
C750 C 0.78326 0.74041 0.89333 0.0
C751 C 0.78306 0.75912 0.90586 0.0
C752 C 0.77886 0.75436 0.92926 0.0
C753 C 0.7981 0.76339 0.94355 0.0
C754 C 0.75771 0.76299 0.93694 0.0
C755 C 0.77683 0.73005 0.92794 0.0
C756 C 0.77968 0.72231 0.90714 0.0
C757 C 0.77906 0.70037 0.90206 0.0
C758 C 0.77515 0.68595 0.91868 0.0
C759 C 0.7716 0.69357 0.94 0.0
C760 C 0.77254 0.71592 0.94462 0.0
H761 H 0.99014 0.97192 0.36783 0.0
H762 H 0.98294 0.00792 0.42806 0.0
H763 H 0.95223 0.02451 0.41245 0.0
H764 H 0.97986 0.01423 0.33345 0.0
H765 H 0.9656 0.99656 0.3135 0.0
H766 H 0.98621 0.98682 0.32988 0.0
H767 H 0.95878 0.95594 0.34229 0.0
H768 H 0.93806 0.9656 0.32596 0.0
H769 H 0.93368 0.96225 0.35435 0.0
H770 H 0.9226 0.03777 0.38966 0.0
H771 H 0.89703 0.04678 0.36157 0.0
H772 H 0.92502 0.00284 0.31629 0.0
C773 C 0.98225 0.98339 0.37776 0.0
C774 C 0.989 0.98859 0.3992 0.0
C775 C 0.9779 0.00343 0.41169 0.0
C776 C 0.96051 0.01303 0.40293 0.0
C777 C 0.95444 0.00765 0.38166 0.0
C778 C 0.96501 0.99318 0.36926 0.0
C779 C 0.95573 0.99043 0.34671 0.0
C780 C 0.97287 0.99743 0.3299 0.0
C781 C 0.94598 0.96718 0.34207 0.0
C782 C 0.93836 0.00574 0.34826 0.0
C783 C 0.93773 0.01545 0.36855 0.0
C784 C 0.92295 0.03024 0.37371 0.0
C785 C 0.90849 0.03525 0.35766 0.0
C786 C 0.90903 0.02558 0.3367 0.0
C787 C 0.92419 0.01061 0.33209 0.0
H788 H 0.22425 0.2586 0.63475 0.0
H789 H 0.15658 0.23541 0.64135 0.0
H790 H 0.16146 0.20553 0.61541 0.0
H791 H 0.22805 0.24913 0.58028 0.0
H792 H 0.25479 0.24024 0.58032 0.0
H793 H 0.24692 0.25814 0.60155 0.0
H794 H 0.25651 0.23135 0.63003 0.0
H795 H 0.26459 0.21337 0.60885 0.0
H796 H 0.24452 0.20395 0.62807 0.0
H797 H 0.17189 0.18221 0.58475 0.0
H798 H 0.18817 0.16497 0.55311 0.0
H799 H 0.24981 0.2009 0.56801 0.0
C800 C 0.21063 0.24683 0.6313 0.0
C801 C 0.18999 0.24945 0.64001 0.0
C802 C 0.17247 0.23395 0.63465 0.0
C803 C 0.17511 0.21681 0.62007 0.0
C804 C 0.19548 0.21511 0.61124 0.0
C805 C 0.21305 0.22946 0.61689 0.0
C806 C 0.23283 0.2248 0.60391 0.0
C807 C 0.24111 0.24423 0.59074 0.0
C808 C 0.25067 0.21795 0.6186 0.0
C809 C 0.22337 0.20617 0.58947 0.0
C810 C 0.2018 0.2008 0.59406 0.0
C811 C 0.1889 0.18579 0.58139 0.0
C812 C 0.19823 0.17616 0.56345 0.0
C813 C 0.22026 0.18133 0.55855 0.0
C814 C 0.23309 0.19621 0.57193 0.0
H815 H 0.49476 0.56952 0.65267 0.0
H816 H 0.51846 0.62621 0.69149 0.0
H817 H 0.48755 0.61983 0.71584 0.0
H818 H 0.43734 0.57243 0.66018 0.0
H819 H 0.43181 0.54381 0.66249 0.0
H820 H 0.45412 0.55443 0.64637 0.0
H821 H 0.48041 0.53385 0.66838 0.0
H822 H 0.45819 0.52305 0.68442 0.0
H823 H 0.48143 0.53767 0.69728 0.0
H824 H 0.45443 0.60638 0.73698 0.0
H825 H 0.42479 0.58472 0.75512 0.0
H826 H 0.42577 0.53509 0.70464 0.0
C827 C 0.49371 0.58064 0.66629 0.0
C828 C 0.5092 0.59854 0.66983 0.0
C829 C 0.50666 0.6127 0.68787 0.0
C830 C 0.48915 0.60915 0.70195 0.0
C831 C 0.47439 0.59124 0.69802 0.0
C832 C 0.47669 0.57707 0.68077 0.0
C833 C 0.45989 0.55793 0.68117 0.0
C834 C 0.44491 0.55712 0.66138 0.0
C835 C 0.47062 0.53689 0.68293 0.0
C836 C 0.448 0.56334 0.70157 0.0
C837 C 0.45623 0.58286 0.7108 0.0
C838 C 0.44786 0.59108 0.72988 0.0
C839 C 0.43099 0.57875 0.74001 0.0
C840 C 0.42312 0.55828 0.73127 0.0
C841 C 0.43155 0.55069 0.71167 0.0
H842 H 0.77058 0.26685 0.6426 0.0
H843 H 0.81411 0.23479 0.60055 0.0
H844 H 0.80617 0.25834 0.57124 0.0
H845 H 0.73043 0.27495 0.60152 0.0
H846 H 0.7253 0.30112 0.61229 0.0
H847 H 0.73369 0.28125 0.62996 0.0
H848 H 0.7659 0.30777 0.64341 0.0
H849 H 0.75755 0.32774 0.62588 0.0
H850 H 0.7846 0.31971 0.62413 0.0
H851 H 0.79454 0.28545 0.54693 0.0
H852 H 0.7812 0.3161 0.52915 0.0
H853 H 0.74483 0.33115 0.58645 0.0
C854 C 0.77829 0.26472 0.62716 0.0
C855 C 0.79306 0.24906 0.62387 0.0
C856 C 0.80301 0.24689 0.60352 0.0
C857 C 0.79845 0.26004 0.58672 0.0
C858 C 0.78388 0.27531 0.59048 0.0
C859 C 0.77399 0.27783 0.61017 0.0
C860 C 0.75962 0.29612 0.61007 0.0
C861 C 0.73585 0.28786 0.61367 0.0
C862 C 0.76739 0.31389 0.62686 0.0
C863 C 0.7632 0.30359 0.5873 0.0
C864 C 0.77712 0.29118 0.5763 0.0
C865 C 0.78354 0.29524 0.55531 0.0
C866 C 0.77587 0.31271 0.54536 0.0
C867 C 0.76193 0.32599 0.55639 0.0
C868 C 0.75525 0.32113 0.57753 0.0
H869 H 0.53848 0.9833 0.6436 0.0
H870 H 0.47815 0.01195 0.65324 0.0
H871 H 0.4876 0.01965 0.6914 0.0
H872 H 0.54118 0.96058 0.69855 0.0
H873 H 0.57009 0.96666 0.70008 0.0
H874 H 0.55712 0.96022 0.67436 0.0
H875 H 0.57466 0.99605 0.65989 0.0
H876 H 0.58753 0.00268 0.68554 0.0
H877 H 0.5704 0.02097 0.67401 0.0
H878 H 0.50589 0.02991 0.72607 0.0
H879 H 0.53095 0.03959 0.7565 0.0
H880 H 0.57913 0.00328 0.72568 0.0
C881 C 0.52707 0.99076 0.65388 0.0
C882 C 0.50749 0.99687 0.64547 0.0
C883 C 0.49302 0.00671 0.65939 0.0
C884 C 0.49829 0.01125 0.68109 0.0
C885 C 0.51797 0.00562 0.68871 0.0
C886 C 0.53203 0.99529 0.67566 0.0
C887 C 0.55286 0.99248 0.68752 0.0
C888 C 0.55546 0.96856 0.6903 0.0
C889 C 0.57251 0.00372 0.67606 0.0
C890 C 0.54869 0.00372 0.70892 0.0
C891 C 0.52839 0.01104 0.70925 0.0
C892 C 0.52159 0.0238 0.72627 0.0
C893 C 0.53595 0.02932 0.74339 0.0
C894 C 0.55675 0.02191 0.74345 0.0
C895 C 0.56307 0.00865 0.72619 0.0
H896 H 0.89318 0.22775 0.7511 0.0
H897 H 0.86445 0.16625 0.77253 0.0
H898 H 0.8861 0.17121 0.80593 0.0
H899 H 0.9468 0.22386 0.77283 0.0
H900 H 0.95102 0.25198 0.7807 0.0
H901 H 0.93375 0.24332 0.75808 0.0
H902 H 0.90243 0.26199 0.77581 0.0
H903 H 0.91959 0.27067 0.79848 0.0
H904 H 0.89403 0.25524 0.80267 0.0
H905 H 0.90973 0.18327 0.83751 0.0
H906 H 0.93455 0.20136 0.86497 0.0
H907 H 0.94803 0.25509 0.82317 0.0
C908 C 0.89146 0.21533 0.76283 0.0
C909 C 0.87723 0.19653 0.75911 0.0
C910 C 0.87552 0.18061 0.77482 0.0
C911 C 0.88765 0.18333 0.79391 0.0
C912 C 0.90145 0.20205 0.79709 0.0
C913 C 0.9035 0.21776 0.78198 0.0
C914 C 0.91935 0.23646 0.78952 0.0
C915 C 0.93889 0.23905 0.77438 0.0
C916 C 0.90817 0.25732 0.79176 0.0
C917 C 0.92572 0.22887 0.81129 0.0
C918 C 0.9152 0.20898 0.81533 0.0
C919 C 0.91815 0.19882 0.83452 0.0
C920 C 0.93226 0.20926 0.85003 0.0
C921 C 0.94329 0.22965 0.84626 0.0
C922 C 0.93994 0.23948 0.82655 0.0
H923 H 0.47169 0.90217 0.50852 0.0
H924 H 0.51367 0.94482 0.46988 0.0
H925 H 0.52051 0.91428 0.44555 0.0
H926 H 0.50392 0.85724 0.5044 0.0
H927 H 0.48097 0.83731 0.50286 0.0
H928 H 0.47887 0.8626 0.51715 0.0
H929 H 0.44593 0.86923 0.49352 0.0
H930 H 0.4479 0.84395 0.47918 0.0
H931 H 0.44844 0.86836 0.46461 0.0
H932 H 0.52314 0.87953 0.42559 0.0
H933 H 0.52118 0.84238 0.41077 0.0
H934 H 0.47813 0.82164 0.46257 0.0
C935 C 0.48239 0.90506 0.495 0.0
C936 C 0.49199 0.92596 0.49103 0.0
C937 C 0.50577 0.92907 0.47304 0.0
C938 C 0.5099 0.91179 0.4592 0.0
C939 C 0.50022 0.89146 0.46358 0.0
C940 C 0.48675 0.88796 0.481 0.0
C941 C 0.47847 0.86442 0.48201 0.0
C942 C 0.48602 0.85483 0.50284 0.0
C943 C 0.45372 0.86132 0.47969 0.0
C944 C 0.48944 0.85529 0.46242 0.0
C945 C 0.50189 0.87121 0.45207 0.0
C946 C 0.51346 0.86689 0.43354 0.0
C947 C 0.51222 0.8457 0.42525 0.0
C948 C 0.4995 0.82904 0.43549 0.0
C949 C 0.48805 0.83397 0.4544 0.0
H950 H 0.12321 0.29205 0.77826 0.0
H951 H 0.11171 0.35792 0.76606 0.0
H952 H 0.08414 0.35682 0.79437 0.0
H953 H 0.0686 0.27318 0.78544 0.0
H954 H 0.07346 0.25526 0.80658 0.0
H955 H 0.09409 0.26176 0.78697 0.0
H956 H 0.12113 0.27482 0.81756 0.0
H957 H 0.10055 0.26835 0.8373 0.0
H958 H 0.11414 0.29511 0.83698 0.0
H959 H 0.05558 0.3479 0.82095 0.0
H960 H 0.02767 0.33163 0.845 0.0
H961 H 0.05713 0.27148 0.84088 0.0
C962 C 0.11503 0.3063 0.78169 0.0
C963 C 0.11989 0.32517 0.77006 0.0
C964 C 0.10873 0.34345 0.77504 0.0
C965 C 0.09293 0.34296 0.79105 0.0
C966 C 0.08843 0.32411 0.80204 0.0
C967 C 0.09915 0.30611 0.7977 0.0
C968 C 0.09024 0.28755 0.81112 0.0
C969 C 0.08105 0.26831 0.79666 0.0
C970 C 0.10755 0.28108 0.82666 0.0
C971 C 0.07245 0.2978 0.8232 0.0
C972 C 0.07185 0.31896 0.81776 0.0
C973 C 0.05605 0.33146 0.82561 0.0
C974 C 0.04023 0.32206 0.83919 0.0
C975 C 0.04037 0.30038 0.8449 0.0
C976 C 0.05691 0.28821 0.83708 0.0
H977 H 0.5276 0.65344 0.53069 0.0
H978 H 0.59629 0.66836 0.51927 0.0
H979 H 0.58774 0.68988 0.48858 0.0
H980 H 0.50906 0.65218 0.47506 0.0
H981 H 0.48524 0.66532 0.48175 0.0
H982 H 0.49667 0.64878 0.50107 0.0
H983 H 0.49955 0.68066 0.52912 0.0
H984 H 0.48811 0.69726 0.50994 0.0
H985 H 0.51392 0.70587 0.52227 0.0
H986 H 0.5717 0.71148 0.46011 0.0
H987 H 0.54954 0.73319 0.43802 0.0
H988 H 0.49176 0.70659 0.47031 0.0
C989 C 0.54095 0.66119 0.52185 0.0
C990 C 0.56267 0.65892 0.5275 0.0
C991 C 0.57949 0.66926 0.51511 0.0
C992 C 0.57481 0.68169 0.49766 0.0
C993 C 0.55325 0.68382 0.49284 0.0
C994 C 0.5366 0.67397 0.50468 0.0
C995 C 0.51487 0.68016 0.49737 0.0
C996 C 0.50062 0.66043 0.48827 0.0
C997 C 0.50345 0.69167 0.51577 0.0
C998 C 0.52191 0.69537 0.4798 0.0
C999 C 0.54407 0.69697 0.47714 0.0
C1000 C 0.55433 0.7103 0.46202 0.0
C1001 C 0.54161 0.72253 0.44952 0.0
C1002 C 0.51896 0.72161 0.4525 0.0
C1003 C 0.50905 0.70766 0.4677 0.0
H1004 H 0.87697 0.84997 0.73763 0.0
H1005 H 0.87047 0.79711 0.7811 0.0
H1006 H 0.89922 0.78 0.76161 0.0
H1007 H 0.88611 0.81743 0.6896 0.0
H1008 H 0.90537 0.83731 0.67837 0.0
H1009 H 0.88436 0.84558 0.69584 0.0
H1010 H 0.91325 0.86647 0.72074 0.0
H1011 H 0.93436 0.85818 0.7034 0.0
H1012 H 0.93468 0.85258 0.73164 0.0
H1013 H 0.92928 0.76928 0.73862 0.0
H1014 H 0.95723 0.76393 0.71146 0.0
H1015 H 0.94362 0.82286 0.68157 0.0
C1016 C 0.88163 0.83479 0.74296 0.0
C1017 C 0.87149 0.82477 0.76078 0.0
C1018 C 0.87788 0.80487 0.7673 0.0
C1019 C 0.89427 0.79511 0.75644 0.0
C1020 C 0.90399 0.80538 0.73898 0.0
C1021 C 0.89782 0.82464 0.73209 0.0
C1022 C 0.91066 0.83196 0.71253 0.0
C1023 C 0.89573 0.83313 0.69292 0.0
C1024 C 0.92403 0.85358 0.71738 0.0
C1025 C 0.92506 0.81384 0.70963 0.0
C1026 C 0.92104 0.79882 0.72521 0.0
C1027 C 0.93252 0.78086 0.72624 0.0
C1028 C 0.94843 0.77801 0.71078 0.0
C1029 C 0.95258 0.79294 0.69434 0.0
C1030 C 0.94073 0.81111 0.69385 0.0
H1031 H 0.01565 0.89962 0.5175 0.0
H1032 H 0.08422 0.91157 0.53165 0.0
H1033 H 0.07897 0.89139 0.565 0.0
H1034 H 0.99687 0.90275 0.57354 0.0
H1035 H 0.9755 0.8815 0.56879 0.0
H1036 H 0.98445 0.89866 0.54727 0.0
H1037 H 0.99189 0.86524 0.52351 0.0
H1038 H 0.98297 0.84802 0.54491 0.0
H1039 H 0.00947 0.84653 0.53354 0.0
H1040 H 0.06663 0.86669 0.59488 0.0
H1041 H 0.04809 0.84029 0.61899 0.0
H1042 H 0.98769 0.8453 0.5852 0.0
C1043 C 0.02953 0.89815 0.52772 0.0
C1044 C 0.05034 0.90716 0.52202 0.0
C1045 C 0.06809 0.90501 0.53586 0.0
C1046 C 0.06527 0.89353 0.55479 0.0
C1047 C 0.04457 0.88453 0.55975 0.0
C1048 C 0.02699 0.88689 0.54667 0.0
C1049 C 0.00663 0.87481 0.55495 0.0
C1050 C 0.98988 0.89036 0.56153 0.0
C1051 C 0.9972 0.85763 0.53823 0.0
C1052 C 0.01559 0.86476 0.57438 0.0
C1053 C 0.03746 0.87064 0.57703 0.0
C1054 C 0.04943 0.86223 0.59316 0.0
C1055 C 0.03879 0.84724 0.60676 0.0
C1056 C 0.01643 0.84085 0.60408 0.0
C1057 C 0.00473 0.85005 0.58788 0.0
H1058 H 0.15797 0.77465 0.72447 0.0
H1059 H 0.15087 0.70717 0.73962 0.0
H1060 H 0.11484 0.70309 0.72243 0.0
H1061 H 0.1042 0.78492 0.73442 0.0
H1062 H 0.10223 0.80268 0.71248 0.0
H1063 H 0.12808 0.80019 0.72477 0.0
H1064 H 0.14375 0.78988 0.68763 0.0
H1065 H 0.11797 0.79249 0.67517 0.0
H1066 H 0.13043 0.76775 0.67174 0.0
H1067 H 0.07885 0.7068 0.70622 0.0
H1068 H 0.04547 0.71755 0.69015 0.0
H1069 H 0.07605 0.78236 0.68396 0.0
C1070 C 0.14905 0.7589 0.72376 0.0
C1071 C 0.15724 0.74123 0.73348 0.0
C1072 C 0.14483 0.721 0.73256 0.0
C1073 C 0.1244 0.71849 0.72272 0.0
C1074 C 0.11666 0.73631 0.71369 0.0
C1075 C 0.12864 0.75608 0.71391 0.0
C1076 C 0.1162 0.77277 0.70358 0.0
C1077 C 0.11245 0.79122 0.71979 0.0
C1078 C 0.12778 0.78121 0.68332 0.0
C1079 C 0.09522 0.75934 0.69787 0.0
C1080 C 0.0959 0.73836 0.70387 0.0
C1081 C 0.07819 0.72311 0.70122 0.0
C1082 C 0.05927 0.72941 0.69217 0.0
C1083 C 0.05819 0.75077 0.68574 0.0
C1084 C 0.07649 0.76588 0.68852 0.0
H1085 H 0.97692 0.62607 0.57786 0.0
H1086 H 0.98124 0.64741 0.51218 0.0
H1087 H 0.97881 0.68478 0.5256 0.0
H1088 H 0.94119 0.66457 0.59895 0.0
H1089 H 0.95527 0.66797 0.62442 0.0
H1090 H 0.9545 0.64273 0.60936 0.0
H1091 H 0.99639 0.64507 0.61001 0.0
H1092 H 0.99728 0.67022 0.62511 0.0
H1093 H 0.0117 0.66855 0.60006 0.0
H1094 H 0.97822 0.72035 0.54678 0.0
H1095 H 0.98195 0.75071 0.57374 0.0
H1096 H 0.98059 0.70547 0.62504 0.0
C1097 C 0.9774 0.63852 0.5662 0.0
C1098 C 0.97931 0.63371 0.54393 0.0
C1099 C 0.97947 0.65058 0.5293 0.0
C1100 C 0.97816 0.67189 0.53677 0.0
C1101 C 0.97672 0.67604 0.5589 0.0
C1102 C 0.97643 0.65978 0.57336 0.0
C1103 C 0.97655 0.66845 0.59638 0.0
C1104 C 0.95563 0.66045 0.60795 0.0
C1105 C 0.99668 0.66274 0.6086 0.0
C1106 C 0.97749 0.69222 0.59268 0.0
C1107 C 0.97714 0.69635 0.57099 0.0
C1108 C 0.97838 0.71728 0.5638 0.0
C1109 C 0.98044 0.7344 0.5792 0.0
C1110 C 0.98163 0.73038 0.60142 0.0
C1111 C 0.97979 0.70902 0.60814 0.0
H1112 H 0.77606 0.9026 0.22316 0.0
H1113 H 0.71746 0.91888 0.25523 0.0
H1114 H 0.73676 0.95255 0.26975 0.0
H1115 H 0.81306 0.92329 0.26452 0.0
H1116 H 0.83364 0.93366 0.24624 0.0
H1117 H 0.81518 0.91085 0.23806 0.0
H1118 H 0.80403 0.93086 0.20465 0.0
H1119 H 0.82247 0.95375 0.21273 0.0
H1120 H 0.79432 0.95699 0.20825 0.0
H1121 H 0.7624 0.98389 0.28163 0.0
H1122 H 0.79284 0.01123 0.28986 0.0
H1123 H 0.83465 0.97546 0.24917 0.0
C1124 C 0.76724 0.91333 0.23307 0.0
C1125 C 0.74528 0.90794 0.23822 0.0
C1126 C 0.73439 0.92239 0.25142 0.0
C1127 C 0.74516 0.94167 0.2596 0.0
C1128 C 0.76679 0.9464 0.25434 0.0
C1129 C 0.77773 0.93273 0.24133 0.0
C1130 C 0.80104 0.94163 0.23837 0.0
C1131 C 0.81664 0.92645 0.24734 0.0
C1132 C 0.80573 0.94607 0.21459 0.0
C1133 C 0.8015 0.96233 0.2519 0.0
C1134 C 0.78156 0.96475 0.26094 0.0
C1135 C 0.77808 0.98226 0.27455 0.0
C1136 C 0.79549 0.99768 0.27915 0.0
C1137 C 0.81613 0.99555 0.27011 0.0
C1138 C 0.81904 0.97767 0.25618 0.0
H1139 H 0.79808 0.1925 0.27 0.0
H1140 H 0.76667 0.19677 0.33215 0.0
H1141 H 0.78181 0.16361 0.34257 0.0
H1142 H 0.79022 0.13544 0.26274 0.0
H1143 H 0.81612 0.133 0.25038 0.0
H1144 H 0.80308 0.15728 0.24787 0.0
H1145 H 0.83706 0.17956 0.26386 0.0
H1146 H 0.8502 0.15534 0.26646 0.0
H1147 H 0.84741 0.17299 0.28967 0.0
H1148 H 0.79964 0.12978 0.34605 0.0
H1149 H 0.81864 0.09706 0.34227 0.0
H1150 H 0.83942 0.11497 0.2782 0.0
C1151 C 0.79456 0.1866 0.28588 0.0
C1152 C 0.78109 0.19724 0.30022 0.0
C1153 C 0.77664 0.18876 0.32075 0.0
C1154 C 0.78531 0.17002 0.32689 0.0
C1155 C 0.79849 0.15996 0.31237 0.0
C1156 C 0.80312 0.16791 0.2923 0.0
C1157 C 0.81746 0.15375 0.27963 0.0
C1158 C 0.80603 0.14431 0.25894 0.0
C1159 C 0.83933 0.16615 0.27462 0.0
C1160 C 0.82004 0.13651 0.29568 0.0
C1161 C 0.80899 0.14046 0.31447 0.0
C1162 C 0.80844 0.12656 0.33147 0.0
C1163 C 0.81929 0.108 0.32914 0.0
C1164 C 0.83059 0.10347 0.30998 0.0
C1165 C 0.83111 0.11808 0.29313 0.0
H1166 H 0.37701 0.99073 0.04165 0.0
H1167 H 0.4171 0.93766 0.03824 0.0
H1168 H 0.3843 0.91196 0.03574 0.0
H1169 H 0.33395 0.965 0.07344 0.0
H1170 H 0.31285 0.97651 0.05916 0.0
H1171 H 0.33945 0.99067 0.06134 0.0
H1172 H 0.34132 0.99241 0.01978 0.0
H1173 H 0.31476 0.97823 0.01746 0.0
H1174 H 0.33717 0.96792 0.00346 0.0
H1175 H 0.34745 0.89221 0.03389 0.0
H1176 H 0.30877 0.87941 0.03125 0.0
H1177 H 0.29244 0.94541 0.03463 0.0
C1178 C 0.37882 0.97368 0.04059 0.0
C1179 C 0.3995 0.96608 0.04023 0.0
C1180 C 0.40134 0.94372 0.03844 0.0
C1181 C 0.38285 0.92905 0.0371 0.0
C1182 C 0.36269 0.93705 0.0374 0.0
C1183 C 0.36053 0.95882 0.03898 0.0
C1184 C 0.33698 0.96318 0.03827 0.0
C1185 C 0.33043 0.97451 0.05931 0.0
C1186 C 0.33229 0.9762 0.01857 0.0
C1187 C 0.32623 0.94044 0.03607 0.0
C1188 C 0.34137 0.92564 0.03576 0.0
C1189 C 0.33543 0.90363 0.03408 0.0
C1190 C 0.3134 0.89654 0.03263 0.0
C1191 C 0.29755 0.9114 0.03269 0.0
C1192 C 0.30414 0.93365 0.03442 0.0
H1193 H 0.23955 0.41037 0.28533 0.0
H1194 H 0.20175 0.35419 0.30851 0.0
H1195 H 0.16818 0.36882 0.2967 0.0
H1196 H 0.20658 0.44665 0.30482 0.0
H1197 H 0.2101 0.46472 0.28291 0.0
H1198 H 0.23092 0.44784 0.28899 0.0
H1199 H 0.22919 0.43216 0.24973 0.0
H1200 H 0.20824 0.44904 0.24353 0.0
H1201 H 0.20375 0.42038 0.23869 0.0
H1202 H 0.13873 0.39189 0.28689 0.0
H1203 H 0.1164 0.42232 0.28265 0.0
H1204 H 0.17374 0.46344 0.26704 0.0
C1205 C 0.22426 0.40077 0.28716 0.0
C1206 C 0.2232 0.38102 0.29748 0.0
C1207 C 0.20285 0.36931 0.30047 0.0
C1208 C 0.18375 0.37742 0.29368 0.0
C1209 C 0.18533 0.39724 0.28394 0.0
C1210 C 0.20513 0.40875 0.28072 0.0
C1211 C 0.20249 0.43087 0.27271 0.0
C1212 C 0.21314 0.44854 0.28829 0.0
C1213 C 0.21145 0.43324 0.2498 0.0
C1214 C 0.17813 0.43042 0.2728 0.0
C1215 C 0.16843 0.41071 0.27875 0.0
C1216 C 0.14611 0.4072 0.28173 0.0
C1217 C 0.13354 0.42447 0.2792 0.0
C1218 C 0.14345 0.44486 0.27403 0.0
C1219 C 0.16585 0.44772 0.27035 0.0
H1220 H 0.12877 0.03628 0.46672 0.0
H1221 H 0.16451 0.9992 0.42114 0.0
H1222 H 0.19637 0.02567 0.42614 0.0
H1223 H 0.15093 0.08883 0.44969 0.0
H1224 H 0.15153 0.10055 0.47666 0.0
H1225 H 0.13147 0.07879 0.46924 0.0
H1226 H 0.14402 0.05698 0.50081 0.0
H1227 H 0.16414 0.07863 0.50829 0.0
H1228 H 0.17205 0.05201 0.50277 0.0
H1229 H 0.22471 0.05546 0.43712 0.0
H1230 H 0.24726 0.08692 0.45266 0.0
H1231 H 0.19239 0.10523 0.48985 0.0
C1232 C 0.14315 0.03385 0.45751 0.0
C1233 C 0.14412 0.01559 0.44357 0.0
C1234 C 0.16346 0.01287 0.43216 0.0
C1235 C 0.1816 0.0279 0.43477 0.0
C1236 C 0.18009 0.04563 0.44872 0.0
C1237 C 0.16134 0.04874 0.4598 0.0
C1238 C 0.16401 0.06901 0.47402 0.0
C1239 C 0.14857 0.08525 0.46697 0.0
C1240 C 0.16088 0.06384 0.49788 0.0
C1241 C 0.18729 0.07672 0.46935 0.0
C1242 C 0.19629 0.063 0.45473 0.0
C1243 C 0.21781 0.06641 0.44846 0.0
C1244 C 0.23049 0.08429 0.45741 0.0
C1245 C 0.22157 0.09859 0.4724 0.0
C1246 C 0.19964 0.09473 0.47828 0.0
H1247 H 0.714 0.13614 0.71717 0.0
H1248 H 0.75936 0.1478 0.77045 0.0
H1249 H 0.73329 0.12817 0.7943 0.0
H1250 H 0.66461 0.14058 0.74908 0.0
H1251 H 0.64939 0.11943 0.73344 0.0
H1252 H 0.67089 0.13598 0.72107 0.0
H1253 H 0.68915 0.10192 0.70926 0.0
H1254 H 0.66777 0.0853 0.72161 0.0
H1255 H 0.69548 0.0833 0.72924 0.0
H1256 H 0.70409 0.1041 0.81121 0.0
H1257 H 0.67286 0.07873 0.82054 0.0
H1258 H 0.64598 0.08373 0.75661 0.0
C1259 C 0.71832 0.13474 0.73392 0.0
C1260 C 0.73864 0.14355 0.74202 0.0
C1261 C 0.74374 0.14144 0.76402 0.0
C1262 C 0.72909 0.13026 0.77765 0.0
C1263 C 0.70932 0.12149 0.76909 0.0
C1264 C 0.70381 0.12379 0.74779 0.0
C1265 C 0.68189 0.11211 0.7424 0.0
C1266 C 0.66574 0.12798 0.73613 0.0
C1267 C 0.68369 0.09462 0.72458 0.0
C1268 C 0.67619 0.10242 0.76384 0.0
C1269 C 0.6922 0.10805 0.77903 0.0
C1270 C 0.69126 0.09986 0.79958 0.0
C1271 C 0.67352 0.08542 0.8047 0.0
C1272 C 0.65692 0.07947 0.78937 0.0
C1273 C 0.65821 0.08833 0.76879 0.0
H1274 H 0.40286 0.04977 0.51541 0.0
H1275 H 0.40246 0.05643 0.58514 0.0
H1276 H 0.37169 0.07868 0.58324 0.0
H1277 H 0.39156 0.10293 0.50542 0.0
H1278 H 0.3747 0.0954 0.48221 0.0
H1279 H 0.39595 0.07926 0.4892 0.0
H1280 H 0.36822 0.04563 0.49054 0.0
H1281 H 0.3469 0.06165 0.48338 0.0
H1282 H 0.34476 0.04642 0.50746 0.0
H1283 H 0.34108 0.10078 0.57336 0.0
H1284 H 0.31351 0.12086 0.55631 0.0
H1285 H 0.33496 0.09976 0.49325 0.0
C1286 C 0.39608 0.05561 0.5303 0.0
C1287 C 0.40494 0.0513 0.55042 0.0
C1288 C 0.39593 0.05964 0.56954 0.0
C1289 C 0.37844 0.07222 0.56862 0.0
C1290 C 0.37022 0.07634 0.54847 0.0
C1291 C 0.37876 0.06825 0.52967 0.0
C1292 C 0.3675 0.07548 0.51002 0.0
C1293 C 0.38337 0.08908 0.49589 0.0
C1294 C 0.35617 0.05614 0.49709 0.0
C1295 C 0.35132 0.08897 0.52066 0.0
C1296 C 0.35301 0.08924 0.54283 0.0
C1297 C 0.33961 0.10067 0.556 0.0
C1298 C 0.32404 0.11204 0.54619 0.0
C1299 C 0.32214 0.11195 0.52347 0.0
C1300 C 0.33604 0.10027 0.51067 0.0
H1301 H 0.63524 0.53792 0.55732 0.0
H1302 H 0.6223 0.51714 0.62218 0.0
H1303 H 0.64147 0.48481 0.61443 0.0
H1304 H 0.63015 0.4848 0.53033 0.0
H1305 H 0.65204 0.49165 0.5121 0.0
H1306 H 0.63589 0.51215 0.52236 0.0
H1307 H 0.67051 0.53461 0.53676 0.0
H1308 H 0.68673 0.51421 0.52656 0.0
H1309 H 0.68839 0.52261 0.55463 0.0
H1310 H 0.66309 0.45518 0.59962 0.0
H1311 H 0.68714 0.43204 0.57984 0.0
H1312 H 0.68662 0.4732 0.52521 0.0
C1313 C 0.63613 0.52636 0.56975 0.0
C1314 C 0.62716 0.52987 0.59028 0.0
C1315 C 0.6291 0.5147 0.60635 0.0
C1316 C 0.63984 0.49627 0.60205 0.0
C1317 C 0.64865 0.49335 0.58165 0.0
C1318 C 0.64698 0.50805 0.56581 0.0
C1319 C 0.65896 0.50194 0.54568 0.0
C1320 C 0.64332 0.49736 0.52649 0.0
C1321 C 0.67723 0.51938 0.54062 0.0
C1322 C 0.66784 0.48161 0.5527 0.0
C1323 C 0.66152 0.47673 0.57339 0.0
C1324 C 0.66808 0.45882 0.58338 0.0
C1325 C 0.68169 0.44575 0.57202 0.0
C1326 C 0.68878 0.45083 0.55101 0.0
C1327 C 0.68151 0.46888 0.54125 0.0
H1328 H 0.73408 0.30731 0.38351 0.0
H1329 H 0.72113 0.36119 0.3449 0.0
H1330 H 0.71518 0.38264 0.37797 0.0
H1331 H 0.6965 0.31657 0.42692 0.0
H1332 H 0.71467 0.30946 0.44754 0.0
H1333 H 0.71575 0.29744 0.42081 0.0
H1334 H 0.75648 0.3106 0.41852 0.0
H1335 H 0.75556 0.32252 0.44527 0.0
H1336 H 0.76508 0.33873 0.42323 0.0
H1337 H 0.71226 0.39894 0.41521 0.0
H1338 H 0.71526 0.4097 0.45378 0.0
H1339 H 0.7322 0.34597 0.46807 0.0
C1340 C 0.73003 0.32362 0.3819 0.0
C1341 C 0.72785 0.33236 0.36142 0.0
C1342 C 0.72237 0.3538 0.36027 0.0
C1343 C 0.71905 0.36621 0.379 0.0
C1344 C 0.7214 0.35708 0.39885 0.0
C1345 C 0.72693 0.33633 0.40044 0.0
C1346 C 0.72992 0.33085 0.42373 0.0
C1347 C 0.71321 0.31249 0.43012 0.0
C1348 C 0.75314 0.32536 0.42793 0.0
C1349 C 0.7256 0.3519 0.43495 0.0
C1350 C 0.72038 0.3667 0.42034 0.0
C1351 C 0.71625 0.38746 0.42682 0.0
C1352 C 0.71795 0.3934 0.44879 0.0
C1353 C 0.72398 0.37871 0.464 0.0
C1354 C 0.72749 0.35758 0.45691 0.0
H1355 H 0.53799 0.01782 0.95512 0.0
H1356 H 0.49359 0.06578 0.94368 0.0
H1357 H 0.50738 0.0692 0.90663 0.0
H1358 H 0.58259 0.04354 0.9262 0.0
H1359 H 0.5916 0.01864 0.91585 0.0
H1360 H 0.57766 0.01946 0.94119 0.0
H1361 H 0.54938 0.98903 0.92698 0.0
H1362 H 0.56319 0.98817 0.90156 0.0
H1363 H 0.5349 0.99236 0.90234 0.0
H1364 H 0.52622 0.0676 0.87097 0.0
H1365 H 0.54942 0.06186 0.83953 0.0
H1366 H 0.58232 0.01583 0.87482 0.0
C1367 C 0.53127 0.0292 0.94492 0.0
C1368 C 0.51464 0.04149 0.95233 0.0
C1369 C 0.50609 0.05594 0.93829 0.0
C1370 C 0.5139 0.05808 0.91726 0.0
C1371 C 0.53029 0.04572 0.91052 0.0
C1372 C 0.53893 0.03162 0.92395 0.0
C1373 C 0.55669 0.02047 0.91291 0.0
C1374 C 0.57842 0.02586 0.92474 0.0
C1375 C 0.55067 0.99606 0.91083 0.0
C1376 C 0.55678 0.0306 0.89118 0.0
C1377 C 0.54135 0.04502 0.89009 0.0
C1378 C 0.53837 0.05635 0.87163 0.0
C1379 C 0.55162 0.05295 0.85385 0.0
C1380 C 0.56773 0.03841 0.8547 0.0
C1381 C 0.57021 0.02707 0.87365 0.0
H1382 H 0.26995 0.28539 0.40505 0.0
H1383 H 0.33978 0.28798 0.40013 0.0
H1384 H 0.33979 0.25713 0.4238 0.0
H1385 H 0.26678 0.27137 0.46106 0.0
H1386 H 0.24226 0.25376 0.45734 0.0
H1387 H 0.24777 0.27625 0.44028 0.0
H1388 H 0.24354 0.25059 0.4065 0.0
H1389 H 0.238 0.22803 0.42345 0.0
H1390 H 0.25966 0.22815 0.40421 0.0
H1391 H 0.33211 0.22522 0.44661 0.0
H1392 H 0.31742 0.195 0.46824 0.0
H1393 H 0.25257 0.21365 0.45912 0.0
C1394 C 0.28522 0.27941 0.40894 0.0
C1395 C 0.30488 0.28904 0.4008 0.0
C1396 C 0.32457 0.28095 0.4064 0.0
C1397 C 0.32473 0.26341 0.41974 0.0
C1398 C 0.30507 0.25425 0.42746 0.0
C1399 C 0.28569 0.26203 0.42239 0.0
C1400 C 0.26684 0.24926 0.43283 0.0
C1401 C 0.25524 0.26352 0.44883 0.0
C1402 C 0.25109 0.23836 0.41572 0.0
C1403 C 0.27865 0.23293 0.44437 0.0
C1404 C 0.30068 0.23608 0.44101 0.0
C1405 C 0.3149 0.22266 0.44948 0.0
C1406 C 0.30638 0.20551 0.4617 0.0
C1407 C 0.28385 0.202 0.46544 0.0
C1408 C 0.26988 0.21602 0.45672 0.0
H1409 H 0.49832 0.46863 0.8624 0.0
H1410 H 0.46234 0.46202 0.92198 0.0
H1411 H 0.43038 0.47409 0.9041 0.0
H1412 H 0.47659 0.51566 0.84559 0.0
H1413 H 0.47549 0.50761 0.81742 0.0
H1414 H 0.49541 0.49792 0.83472 0.0
H1415 H 0.48171 0.45863 0.82359 0.0
H1416 H 0.46183 0.46819 0.80615 0.0
H1417 H 0.4535 0.44957 0.82665 0.0
H1418 H 0.40276 0.48809 0.88009 0.0
H1419 H 0.38102 0.50182 0.85129 0.0
H1420 H 0.43477 0.49824 0.80715 0.0
C1421 C 0.48363 0.46937 0.87162 0.0
C1422 C 0.48289 0.46442 0.89364 0.0
C1423 C 0.46342 0.466 0.90519 0.0
C1424 C 0.44514 0.47273 0.89515 0.0
C1425 C 0.44653 0.47771 0.87351 0.0
C1426 C 0.46522 0.47598 0.86184 0.0
C1427 C 0.46255 0.48256 0.83886 0.0
C1428 C 0.47845 0.5021 0.83387 0.0
C1429 C 0.46504 0.4636 0.82287 0.0
C1430 C 0.43947 0.48839 0.83947 0.0
C1431 C 0.43052 0.48551 0.85961 0.0
C1432 C 0.40954 0.49028 0.86421 0.0
C1433 C 0.39735 0.49813 0.84775 0.0
C1434 C 0.40614 0.50106 0.82692 0.0
C1435 C 0.4275 0.49607 0.82283 0.0
H1436 H 0.70613 0.77346 0.1143 0.0
H1437 H 0.74882 0.75207 0.1627 0.0
H1438 H 0.76196 0.72606 0.13589 0.0
H1439 H 0.69021 0.72204 0.09059 0.0
H1440 H 0.68907 0.73157 0.06363 0.0
H1441 H 0.68432 0.74922 0.0863 0.0
H1442 H 0.7148 0.77697 0.07341 0.0
H1443 H 0.71963 0.75941 0.05067 0.0
H1444 H 0.74148 0.76874 0.06882 0.0
H1445 H 0.76918 0.70121 0.10344 0.0
H1446 H 0.76979 0.68029 0.06876 0.0
H1447 H 0.72134 0.71805 0.04303 0.0
C1448 C 0.71818 0.76327 0.11937 0.0
C1449 C 0.72635 0.76471 0.14065 0.0
C1450 C 0.74245 0.75136 0.14643 0.0
C1451 C 0.74992 0.73649 0.13135 0.0
C1452 C 0.74119 0.73527 0.11058 0.0
C1453 C 0.7257 0.74839 0.10465 0.0
C1454 C 0.71835 0.74373 0.08163 0.0
C1455 C 0.69405 0.73618 0.08048 0.0
C1456 C 0.7239 0.76338 0.06782 0.0
C1457 C 0.73193 0.72572 0.07549 0.0
C1458 C 0.74513 0.72107 0.09227 0.0
C1459 C 0.75894 0.70479 0.0902 0.0
C1460 C 0.75917 0.69299 0.07047 0.0
C1461 C 0.74558 0.6975 0.05322 0.0
C1462 C 0.7319 0.71413 0.05589 0.0
H1463 H 0.00245 0.05398 0.16773 0.0
H1464 H 0.99609 0.1222 0.16375 0.0
H1465 H 0.96403 0.11844 0.18716 0.0
H1466 H 0.94511 0.03675 0.1664 0.0
H1467 H 0.94739 0.01576 0.18512 0.0
H1468 H 0.96976 0.02383 0.1679 0.0
H1469 H 0.99475 0.03136 0.20133 0.0
H1470 H 0.97249 0.02326 0.21863 0.0
H1471 H 0.98715 0.04938 0.22269 0.0
H1472 H 0.93291 0.10728 0.21168 0.0
H1473 H 0.90562 0.08958 0.23579 0.0
H1474 H 0.93195 0.02864 0.22274 0.0
C1475 C 0.99421 0.0681 0.17159 0.0
C1476 C 0.00189 0.0884 0.16395 0.0
C1477 C 0.99076 0.10653 0.16967 0.0
C1478 C 0.97241 0.10453 0.18282 0.0
C1479 C 0.9653 0.08429 0.19007 0.0
C1480 C 0.97586 0.0664 0.18465 0.0
C1481 C 0.96516 0.04653 0.19483 0.0
C1482 C 0.95633 0.02973 0.17753 0.0
C1483 C 0.98082 0.03709 0.21029 0.0
C1484 C 0.94702 0.05607 0.20693 0.0
C1485 C 0.94732 0.07786 0.20396 0.0
C1486 C 0.93244 0.0902 0.21403 0.0
C1487 C 0.917 0.08001 0.22767 0.0
C1488 C 0.91657 0.05772 0.23108 0.0
C1489 C 0.9317 0.04566 0.22035 0.0
H1490 H 0.27711 0.75166 0.12988 0.0
H1491 H 0.25296 0.78224 0.18757 0.0
H1492 H 0.23581 0.80779 0.16509 0.0
H1493 H 0.2916 0.79911 0.10295 0.0
H1494 H 0.28413 0.78769 0.07662 0.0
H1495 H 0.29243 0.77075 0.09722 0.0
H1496 H 0.25648 0.74631 0.0924 0.0
H1497 H 0.24801 0.76329 0.07183 0.0
H1498 H 0.23112 0.75794 0.09493 0.0
H1499 H 0.22365 0.83179 0.13596 0.0
H1500 H 0.21869 0.85236 0.10328 0.0
H1501 H 0.25149 0.80577 0.06545 0.0
C1502 C 0.26822 0.76371 0.13785 0.0
C1503 C 0.26645 0.76498 0.1605 0.0
C1504 C 0.25436 0.78081 0.17022 0.0
C1505 C 0.2446 0.79541 0.15759 0.0
C1506 C 0.24695 0.79385 0.13528 0.0
C1507 C 0.25846 0.77833 0.12555 0.0
C1508 C 0.25973 0.78065 0.10146 0.0
C1509 C 0.28337 0.7848 0.09415 0.0
C1510 C 0.24814 0.76087 0.08945 0.0
C1511 C 0.24759 0.80023 0.09912 0.0
C1512 C 0.24008 0.80754 0.11871 0.0
C1513 C 0.22927 0.82606 0.12051 0.0
C1514 C 0.22648 0.83761 0.10188 0.0
C1515 C 0.23465 0.83064 0.08181 0.0
C1516 C 0.24493 0.81148 0.08049 0.0
H1517 H 0.02737 0.48465 0.12076 0.0
H1518 H 0.98041 0.53162 0.1261 0.0
H1519 H 0.99291 0.54142 0.16317 0.0
H1520 H 0.02343 0.46784 0.17655 0.0
H1521 H 0.05192 0.46493 0.1787 0.0
H1522 H 0.03841 0.46066 0.15299 0.0
H1523 H 0.06602 0.4891 0.13654 0.0
H1524 H 0.07957 0.4935 0.16218 0.0
H1525 H 0.06981 0.51577 0.1488 0.0
H1526 H 0.01216 0.54811 0.19829 0.0
H1527 H 0.03595 0.55016 0.23025 0.0
H1528 H 0.07008 0.49834 0.20275 0.0
C1529 C 0.01965 0.4969 0.1298 0.0
C1530 C 0.00284 0.50731 0.12061 0.0
C1531 C 0.99307 0.5232 0.13295 0.0
C1532 C 0.00013 0.52895 0.15397 0.0
C1533 C 0.01687 0.51855 0.16247 0.0
C1534 C 0.0264 0.50274 0.15088 0.0
C1535 C 0.04445 0.49446 0.16368 0.0
C1536 C 0.03923 0.47055 0.16825 0.0
C1537 C 0.06625 0.49846 0.15211 0.0
C1538 C 0.04382 0.5084 0.18409 0.0
C1539 C 0.02777 0.52216 0.18302 0.0
C1540 C 0.02463 0.53726 0.19945 0.0
C1541 C 0.03828 0.53835 0.21749 0.0
C1542 C 0.05477 0.52434 0.21901 0.0
C1543 C 0.05744 0.50907 0.20213 0.0
H1544 H 0.39564 0.73619 0.27216 0.0
H1545 H 0.33867 0.7168 0.30953 0.0
H1546 H 0.36033 0.72235 0.34303 0.0
H1547 H 0.43333 0.71081 0.30375 0.0
H1548 H 0.45482 0.73204 0.30125 0.0
H1549 H 0.43472 0.72698 0.2803 0.0
H1550 H 0.42581 0.76659 0.28385 0.0
H1551 H 0.44599 0.7718 0.30471 0.0
H1552 H 0.41855 0.77755 0.30978 0.0
H1553 H 0.38869 0.72883 0.37238 0.0
H1554 H 0.42097 0.73807 0.39544 0.0
H1555 H 0.45908 0.75341 0.33861 0.0
C1556 C 0.38773 0.73312 0.2874 0.0
C1557 C 0.36547 0.7261 0.28826 0.0
C1558 C 0.35564 0.72245 0.30852 0.0
C1559 C 0.36784 0.7254 0.32761 0.0
C1560 C 0.38981 0.73208 0.32616 0.0
C1561 C 0.39962 0.73607 0.30658 0.0
C1562 C 0.42343 0.74327 0.30939 0.0
C1563 C 0.43739 0.72732 0.298 0.0
C1564 C 0.42875 0.76616 0.30147 0.0
C1565 C 0.42551 0.74268 0.33362 0.0
C1566 C 0.406 0.73607 0.34301 0.0
C1567 C 0.40404 0.73411 0.36521 0.0
C1568 C 0.42248 0.73932 0.37816 0.0
C1569 C 0.44255 0.74652 0.36886 0.0
C1570 C 0.44398 0.74804 0.34626 0.0
H1571 H 0.97684 0.41242 0.96182 0.0
H1572 H 0.9407 0.39056 0.01784 0.0
H1573 H 0.9393 0.35314 0.00321 0.0
H1574 H 0.9483 0.37516 0.92277 0.0
H1575 H 0.97237 0.37166 0.90742 0.0
H1576 H 0.96977 0.39664 0.92211 0.0
H1577 H 0.0058 0.39292 0.9421 0.0
H1578 H 0.00846 0.36789 0.92758 0.0
H1579 H 0.00887 0.36897 0.95661 0.0
H1580 H 0.94309 0.31783 0.98275 0.0
H1581 H 0.95134 0.28781 0.95806 0.0
H1582 H 0.98437 0.33348 0.91546 0.0
C1583 C 0.96825 0.39985 0.97086 0.0
C1584 C 0.9588 0.40445 0.99095 0.0
C1585 C 0.9482 0.38741 0.00249 0.0
C1586 C 0.94724 0.36612 0.99426 0.0
C1587 C 0.95689 0.36218 0.97446 0.0
C1588 C 0.96711 0.3786 0.9629 0.0
C1589 C 0.97671 0.37014 0.9423 0.0
C1590 C 0.96615 0.37892 0.92248 0.0
C1591 C 0.00142 0.37528 0.94216 0.0
C1592 C 0.97044 0.34634 0.94413 0.0
C1593 C 0.95899 0.34201 0.96275 0.0
C1594 C 0.95194 0.32106 0.96806 0.0
C1595 C 0.95673 0.30411 0.95395 0.0
C1596 C 0.96846 0.30824 0.93477 0.0
C1597 C 0.97529 0.3297 0.9299 0.0
H1598 H 0.61333 0.81766 0.27243 0.0
H1599 H 0.65016 0.7627 0.27887 0.0
H1600 H 0.62711 0.75094 0.30954 0.0
H1601 H 0.60418 0.82805 0.32857 0.0
H1602 H 0.57717 0.83533 0.3243 0.0
H1603 H 0.59723 0.83964 0.30366 0.0
H1604 H 0.57208 0.81709 0.27622 0.0
H1605 H 0.55192 0.81277 0.29674 0.0
H1606 H 0.56178 0.79012 0.28243 0.0
H1607 H 0.59886 0.74506 0.33942 0.0
H1608 H 0.56796 0.74531 0.36465 0.0
H1609 H 0.54987 0.80358 0.3367 0.0
C1610 C 0.6165 0.80301 0.28008 0.0
C1611 C 0.63349 0.79103 0.27311 0.0
C1612 C 0.63734 0.77224 0.28401 0.0
C1613 C 0.62428 0.7654 0.30139 0.0
C1614 C 0.60751 0.77755 0.30765 0.0
C1615 C 0.60365 0.79594 0.29724 0.0
C1616 C 0.58441 0.806 0.30652 0.0
C1617 C 0.59116 0.82859 0.31635 0.0
C1618 C 0.56649 0.80651 0.28946 0.0
C1619 C 0.57783 0.79032 0.32372 0.0
C1620 C 0.59136 0.77407 0.32434 0.0
C1621 C 0.5882 0.75773 0.33904 0.0
C1622 C 0.57065 0.75801 0.35331 0.0
C1623 C 0.55648 0.7744 0.35257 0.0
C1624 C 0.56032 0.79075 0.33763 0.0
H1625 H 0.05987 0.16533 0.01739 0.0
H1626 H 0.0052 0.11787 0.02603 0.0
H1627 H 0.98595 0.13293 0.9963 0.0
H1628 H 0.02989 0.20852 0.0067 0.0
H1629 H 0.04784 0.2199 0.98649 0.0
H1630 H 0.05821 0.20442 0.00732 0.0
H1631 H 0.0735 0.17914 0.97843 0.0
H1632 H 0.06321 0.19459 0.95747 0.0
H1633 H 0.05571 0.16607 0.95797 0.0
H1634 H 0.97132 0.15473 0.96829 0.0
H1635 H 0.9624 0.18162 0.94255 0.0
H1636 H 0.02685 0.2144 0.95044 0.0
C1637 C 0.04404 0.15785 0.01272 0.0
C1638 C 0.03398 0.14049 0.02413 0.0
C1639 C 0.01309 0.13137 0.01775 0.0
C1640 C 0.00209 0.1397 0.00078 0.0
C1641 C 0.01226 0.15703 0.99015 0.0
C1642 C 0.03281 0.16594 0.99571 0.0
C1643 C 0.03956 0.18516 0.98224 0.0
C1644 C 0.04413 0.20571 0.99654 0.0
C1645 C 0.05916 0.18098 0.96819 0.0
C1646 C 0.01937 0.18592 0.96862 0.0
C1647 C 0.0039 0.16945 0.97344 0.0
C1648 C 0.9834 0.1675 0.96411 0.0
C1649 C 0.97847 0.1829 0.94958 0.0
C1650 C 0.994 0.19995 0.9444 0.0
C1651 C 0.01483 0.20128 0.95382 0.0
H1652 H 0.38856 0.32123 0.28627 0.0
H1653 H 0.36503 0.3728 0.25082 0.0
H1654 H 0.39031 0.3659 0.22129 0.0
H1655 H 0.44485 0.33084 0.27024 0.0
H1656 H 0.44878 0.30266 0.26835 0.0
H1657 H 0.42941 0.3122 0.28703 0.0
H1658 H 0.3994 0.28526 0.26983 0.0
H1659 H 0.41866 0.27564 0.2511 0.0
H1660 H 0.39431 0.28551 0.24127 0.0
H1661 H 0.41641 0.35198 0.1948 0.0
H1662 H 0.44266 0.33289 0.17359 0.0
H1663 H 0.4499 0.29092 0.22667 0.0
C1664 C 0.38877 0.33108 0.2723 0.0
C1665 C 0.37488 0.34757 0.27081 0.0
C1666 C 0.37572 0.36025 0.25237 0.0
C1667 C 0.38995 0.3564 0.2355 0.0
C1668 C 0.40333 0.33993 0.23742 0.0
C1669 C 0.40299 0.32757 0.2554 0.0
C1670 C 0.41884 0.31069 0.25331 0.0
C1671 C 0.43652 0.31432 0.27077 0.0
C1672 C 0.4071 0.28793 0.25391 0.0
C1673 C 0.42792 0.31527 0.23119 0.0
C1674 C 0.41874 0.3322 0.22231 0.0
C1675 C 0.42388 0.33885 0.20165 0.0
C1676 C 0.43875 0.32786 0.18972 0.0
C1677 C 0.44841 0.3105 0.19852 0.0
C1678 C 0.443 0.30429 0.21961 0.0
H1679 H 0.55814 0.37543 0.02286 0.0
H1680 H 0.50241 0.4113 0.01537 0.0
H1681 H 0.48376 0.39118 0.04447 0.0
H1682 H 0.52938 0.32487 0.03373 0.0
H1683 H 0.5482 0.31781 0.05378 0.0
H1684 H 0.55743 0.33519 0.03256 0.0
H1685 H 0.57272 0.36416 0.06089 0.0
H1686 H 0.56357 0.34684 0.08222 0.0
H1687 H 0.55516 0.37358 0.0815 0.0
H1688 H 0.47025 0.36581 0.07216 0.0
H1689 H 0.4635 0.33844 0.09947 0.0
H1690 H 0.52875 0.32031 0.09135 0.0
C1691 C 0.54205 0.37903 0.02747 0.0
C1692 C 0.53164 0.39487 0.01698 0.0
C1693 C 0.51066 0.39933 0.0234 0.0
C1694 C 0.49994 0.38795 0.03982 0.0
C1695 C 0.51056 0.37238 0.04982 0.0
C1696 C 0.53124 0.36806 0.04414 0.0
C1697 C 0.53897 0.35063 0.05774 0.0
C1698 C 0.54377 0.33096 0.0436 0.0
C1699 C 0.55878 0.35933 0.0714 0.0
C1700 C 0.51928 0.34564 0.07169 0.0
C1701 C 0.50305 0.35829 0.06666 0.0
C1702 C 0.4829 0.35599 0.07646 0.0
C1703 C 0.4792 0.34034 0.09186 0.0
C1704 C 0.49565 0.32743 0.09757 0.0
C1705 C 0.51602 0.33022 0.08746 0.0
H1706 H 0.64252 0.2507 0.24191 0.0
H1707 H 0.67521 0.30147 0.20479 0.0
H1708 H 0.64121 0.30524 0.18548 0.0
H1709 H 0.60587 0.22735 0.19985 0.0
H1710 H 0.58365 0.22232 0.21814 0.0
H1711 H 0.61104 0.22224 0.22766 0.0
H1712 H 0.60411 0.25105 0.25725 0.0
H1713 H 0.57674 0.25125 0.2478 0.0
H1714 H 0.59431 0.27591 0.24964 0.0
H1715 H 0.60311 0.30469 0.17127 0.0
H1716 H 0.56379 0.30014 0.16385 0.0
H1717 H 0.55585 0.25125 0.2117 0.0
C1718 C 0.64262 0.26262 0.22973 0.0
C1719 C 0.66173 0.27565 0.22483 0.0
C1720 C 0.66101 0.2909 0.20857 0.0
C1721 C 0.6417 0.2933 0.19758 0.0
C1722 C 0.62316 0.28042 0.20307 0.0
C1723 C 0.62346 0.2654 0.21877 0.0
C1724 C 0.6011 0.2543 0.22239 0.0
C1725 C 0.60038 0.23012 0.21666 0.0
C1726 C 0.59363 0.25838 0.24565 0.0
C1727 C 0.58813 0.26564 0.20646 0.0
C1728 C 0.60116 0.2805 0.19531 0.0
C1729 C 0.59275 0.29305 0.17986 0.0
C1730 C 0.57041 0.29037 0.17577 0.0
C1731 C 0.55675 0.27541 0.18724 0.0
C1732 C 0.56584 0.26288 0.20271 0.0
H1733 H 0.48544 0.13691 0.0641 0.0
H1734 H 0.43887 0.10162 0.10446 0.0
H1735 H 0.43418 0.13501 0.12592 0.0
H1736 H 0.51112 0.17055 0.10418 0.0
H1737 H 0.51454 0.19421 0.0884 0.0
H1738 H 0.51296 0.16799 0.07526 0.0
H1739 H 0.48102 0.17755 0.05173 0.0
H1740 H 0.48258 0.2039 0.06472 0.0
H1741 H 0.45747 0.18689 0.06452 0.0
H1742 H 0.43863 0.17077 0.14578 0.0
H1743 H 0.44863 0.20779 0.16034 0.0
H1744 H 0.48952 0.22078 0.10506 0.0
C1745 C 0.47398 0.13642 0.07722 0.0
C1746 C 0.46244 0.11691 0.08275 0.0
C1747 C 0.44766 0.11658 0.10001 0.0
C1748 C 0.44495 0.1354 0.11225 0.0
C1749 C 0.45683 0.15439 0.10666 0.0
C1750 C 0.47072 0.15515 0.08928 0.0
C1751 C 0.48188 0.17753 0.08696 0.0
C1752 C 0.50658 0.17756 0.08882 0.0
C1753 C 0.47534 0.18703 0.06572 0.0
C1754 C 0.47267 0.18907 0.10617 0.0
C1755 C 0.45834 0.17539 0.11739 0.0
C1756 C 0.44937 0.18179 0.13685 0.0
C1757 C 0.45518 0.20273 0.14504 0.0
C1758 C 0.46946 0.21704 0.13355 0.0
C1759 C 0.4781 0.21022 0.11378 0.0
H1760 H 0.2451 0.40328 0.73691 0.0
H1761 H 0.27007 0.3921 0.67274 0.0
H1762 H 0.29933 0.42125 0.67964 0.0
H1763 H 0.25523 0.46053 0.73815 0.0
H1764 H 0.26275 0.46274 0.76624 0.0
H1765 H 0.24409 0.44072 0.75643 0.0
H1766 H 0.26869 0.41355 0.77152 0.0
H1767 H 0.28734 0.4355 0.78153 0.0
H1768 H 0.29671 0.41496 0.76376 0.0
H1769 H 0.32592 0.45142 0.69371 0.0
H1770 H 0.34804 0.48041 0.71385 0.0
H1771 H 0.30512 0.47226 0.76861 0.0
C1772 C 0.2569 0.40678 0.72442 0.0
C1773 C 0.25542 0.39539 0.70433 0.0
C1774 C 0.27088 0.40072 0.68821 0.0
C1775 C 0.28755 0.4172 0.692 0.0
C1776 C 0.28843 0.42824 0.71193 0.0
C1777 C 0.27351 0.42326 0.72787 0.0
C1778 C 0.27787 0.43775 0.74777 0.0
C1779 C 0.25885 0.45123 0.75241 0.0
C1780 C 0.28296 0.42466 0.7673 0.0
C1781 C 0.29764 0.45162 0.74058 0.0
C1782 C 0.30349 0.44586 0.71988 0.0
C1783 C 0.32147 0.45612 0.70991 0.0
C1784 C 0.33392 0.47257 0.72149 0.0
C1785 C 0.32828 0.47868 0.74279 0.0
C1786 C 0.30977 0.46812 0.75231 0.0
H1787 H 0.29406 0.66995 0.77188 0.0
H1788 H 0.27241 0.67411 0.83825 0.0
H1789 H 0.28754 0.64008 0.84516 0.0
H1790 H 0.28439 0.61363 0.76364 0.0
H1791 H 0.3084 0.61083 0.74798 0.0
H1792 H 0.29587 0.63561 0.74809 0.0
H1793 H 0.33199 0.65663 0.76048 0.0
H1794 H 0.34467 0.63191 0.76033 0.0
H1795 H 0.34528 0.64895 0.78442 0.0
H1796 H 0.30314 0.60463 0.84442 0.0
H1797 H 0.32032 0.57122 0.83668 0.0
H1798 H 0.33473 0.5915 0.77185 0.0
C1799 C 0.29276 0.66398 0.78799 0.0
C1800 C 0.28174 0.67478 0.80443 0.0
C1801 C 0.28023 0.66602 0.82517 0.0
C1802 C 0.28897 0.64675 0.82935 0.0
C1803 C 0.29952 0.63652 0.81275 0.0
C1804 C 0.3017 0.64493 0.79256 0.0
C1805 C 0.31392 0.63075 0.77758 0.0
C1806 C 0.29979 0.6222 0.75818 0.0
C1807 C 0.33523 0.64278 0.77028 0.0
C1808 C 0.31801 0.61291 0.79245 0.0
C1809 C 0.30944 0.61651 0.81262 0.0
C1810 C 0.31016 0.60176 0.82878 0.0
C1811 C 0.31988 0.58282 0.82421 0.0
C1812 C 0.32901 0.5789 0.80375 0.0
C1813 C 0.32819 0.59425 0.78774 0.0
H1814 H 0.88067 0.50414 0.51725 0.0
H1815 H 0.91397 0.47063 0.5653 0.0
H1816 H 0.88026 0.44783 0.57204 0.0
H1817 H 0.82894 0.50352 0.54633 0.0
H1818 H 0.81321 0.49977 0.52184 0.0
H1819 H 0.8397 0.51426 0.52163 0.0
H1820 H 0.85129 0.48828 0.49128 0.0
H1821 H 0.82491 0.47368 0.49146 0.0
H1822 H 0.84864 0.45978 0.49533 0.0
H1823 H 0.84408 0.42665 0.57121 0.0
H1824 H 0.80718 0.40952 0.56409 0.0
H1825 H 0.79668 0.4583 0.51839 0.0
C1826 C 0.88081 0.49237 0.52956 0.0
C1827 C 0.90006 0.48914 0.54066 0.0
C1828 C 0.89956 0.47319 0.5563 0.0
C1829 C 0.88044 0.46027 0.5604 0.0
C1830 C 0.86188 0.4637 0.54894 0.0
C1831 C 0.86183 0.4795 0.53402 0.0
C1832 C 0.83985 0.47938 0.52339 0.0
C1833 C 0.82984 0.50049 0.52862 0.0
C1834 C 0.84127 0.47501 0.49892 0.0
C1835 C 0.8277 0.4607 0.53432 0.0
C1836 C 0.84072 0.4519 0.54902 0.0
C1837 C 0.83361 0.4336 0.56003 0.0
C1838 C 0.81268 0.42395 0.55581 0.0
C1839 C 0.79906 0.43273 0.54085 0.0
C1840 C 0.80661 0.45151 0.53022 0.0
H1841 H 0.72268 0.91052 0.83636 0.0
H1842 H 0.73217 0.90021 0.7677 0.0
H1843 H 0.70027 0.91961 0.7604 0.0
H1844 H 0.66321 0.90845 0.83583 0.0
H1845 H 0.66321 0.92977 0.85616 0.0
H1846 H 0.68435 0.91196 0.85592 0.0
H1847 H 0.71323 0.94465 0.85455 0.0
H1848 H 0.69224 0.96251 0.85487 0.0
H1849 H 0.7118 0.96349 0.83347 0.0
H1850 H 0.66939 0.94352 0.76072 0.0
H1851 H 0.64436 0.97129 0.76857 0.0
H1852 H 0.65719 0.96737 0.83686 0.0
C1853 C 0.71805 0.91217 0.81975 0.0
C1854 C 0.73004 0.90382 0.80262 0.0
C1855 C 0.72312 0.90616 0.78114 0.0
C1856 C 0.70502 0.91721 0.77683 0.0
C1857 C 0.69397 0.92575 0.79416 0.0
C1858 C 0.7003 0.92333 0.81519 0.0
C1859 C 0.68729 0.9358 0.83092 0.0
C1860 C 0.67371 0.92058 0.84557 0.0
C1861 C 0.70202 0.95261 0.84422 0.0
C1862 C 0.67314 0.94629 0.81546 0.0
C1863 C 0.6768 0.93994 0.79433 0.0
C1864 C 0.66624 0.9484 0.77722 0.0
C1865 C 0.65201 0.96411 0.78182 0.0
C1866 C 0.64887 0.97144 0.80331 0.0
C1867 C 0.65923 0.96202 0.82027 0.0
H1868 H 0.65176 0.51178 0.958 0.0
H1869 H 0.59368 0.54388 0.96874 0.0
H1870 H 0.61608 0.57774 0.97841 0.0
H1871 H 0.68389 0.53928 0.00119 0.0
H1872 H 0.70853 0.5408 0.98583 0.0
H1873 H 0.68787 0.519 0.98058 0.0
H1874 H 0.68682 0.52871 0.94042 0.0
H1875 H 0.70746 0.55053 0.94556 0.0
H1876 H 0.68209 0.55562 0.93359 0.0
H1877 H 0.64494 0.60804 0.98681 0.0
H1878 H 0.67803 0.63299 0.99167 0.0
H1879 H 0.71708 0.58105 0.97446 0.0
C1880 C 0.64379 0.52589 0.96262 0.0
C1881 C 0.62103 0.52527 0.96274 0.0
C1882 C 0.61113 0.54412 0.96847 0.0
C1883 C 0.6237 0.56335 0.97407 0.0
C1884 C 0.64612 0.56344 0.97373 0.0
C1885 C 0.65608 0.54524 0.96805 0.0
C1886 C 0.68043 0.5498 0.96818 0.0
C1887 C 0.69078 0.53643 0.98495 0.0
C1888 C 0.68974 0.54594 0.94559 0.0
C1889 C 0.68263 0.57343 0.97477 0.0
C1890 C 0.66268 0.58097 0.97807 0.0
C1891 C 0.66066 0.60232 0.98426 0.0
C1892 C 0.67954 0.61636 0.98702 0.0
C1893 C 0.70015 0.60901 0.98339 0.0
C1894 C 0.70159 0.58721 0.97728 0.0
H1895 H 0.21559 0.6416 0.23138 0.0
H1896 H 0.26962 0.61063 0.25622 0.0
H1897 H 0.24429 0.58138 0.26947 0.0
H1898 H 0.17832 0.62784 0.27429 0.0
H1899 H 0.15514 0.62308 0.25667 0.0
H1900 H 0.17743 0.64204 0.24964 0.0
H1901 H 0.18117 0.62145 0.21308 0.0
H1902 H 0.15884 0.60248 0.21996 0.0
H1903 H 0.1845 0.59313 0.21273 0.0
H1904 H 0.21352 0.55516 0.27921 0.0
H1905 H 0.1791 0.53311 0.28443 0.0
H1906 H 0.1448 0.58071 0.25294 0.0
C1907 C 0.2221 0.62862 0.23952 0.0
C1908 C 0.24459 0.6285 0.2429 0.0
C1909 C 0.25244 0.61129 0.25378 0.0
C1910 C 0.2382 0.59454 0.26128 0.0
C1911 C 0.21615 0.5952 0.25775 0.0
C1912 C 0.20811 0.61174 0.2471 0.0
C1913 C 0.1837 0.60831 0.24509 0.0
C1914 C 0.17302 0.62639 0.25715 0.0
C1915 C 0.17664 0.60621 0.2213 0.0
C1916 C 0.17934 0.58718 0.25613 0.0
C1917 C 0.1983 0.57997 0.26336 0.0
C1918 C 0.19854 0.56065 0.27369 0.0
C1919 C 0.17887 0.54824 0.27657 0.0
C1920 C 0.1592 0.55517 0.26913 0.0
C1921 C 0.15951 0.57502 0.25893 0.0
H1922 H 0.88698 0.53972 0.99371 0.0
H1923 H 0.91258 0.57276 0.05224 0.0
H1924 H 0.88345 0.59703 0.05136 0.0
H1925 H 0.87271 0.58626 0.96793 0.0
H1926 H 0.84844 0.57303 0.95567 0.0
H1927 H 0.87079 0.55781 0.96145 0.0
H1928 H 0.84562 0.53189 0.98392 0.0
H1929 H 0.82317 0.547 0.97815 0.0
H1930 H 0.83026 0.54262 0.00567 0.0
H1931 H 0.85149 0.61783 0.04382 0.0
H1932 H 0.81985 0.63412 0.02964 0.0
H1933 H 0.81591 0.58766 0.97576 0.0
C1934 C 0.8863 0.5519 0.00647 0.0
C1935 C 0.90198 0.55436 0.02307 0.0
C1936 C 0.90079 0.57073 0.03929 0.0
C1937 C 0.88426 0.5845 0.03898 0.0
C1938 C 0.86912 0.58173 0.0223 0.0
C1939 C 0.87003 0.56586 0.00632 0.0
C1940 C 0.85221 0.56664 0.98983 0.0
C1941 C 0.86161 0.57121 0.9674 0.0
C1942 C 0.83691 0.5458 0.98938 0.0
C1943 C 0.84117 0.58547 0.99898 0.0
C1944 C 0.85105 0.59389 0.01778 0.0
C1945 C 0.84363 0.61137 0.02911 0.0
C1946 C 0.82566 0.62051 0.02094 0.0
C1947 C 0.81546 0.61221 0.00157 0.0
C1948 C 0.82338 0.59445 0.99056 0.0
H1949 H 0.12834 0.01112 0.09224 0.0
H1950 H 0.1184 0.04091 0.0315 0.0
H1951 H 0.14078 0.01547 0.0131 0.0
H1952 H 0.18341 0.00168 0.08359 0.0
H1953 H 0.18134 0.97598 0.09598 0.0
H1954 H 0.16382 0.99597 0.10446 0.0
H1955 H 0.13031 0.96895 0.0963 0.0
H1956 H 0.14774 0.94884 0.08783 0.0
H1957 H 0.12703 0.95609 0.06989 0.0
H1958 H 0.16592 0.98885 0.00165 0.0
H1959 H 0.19085 0.96073 0.99715 0.0
H1960 H 0.18388 0.94662 0.06479 0.0
C1961 C 0.13082 0.01217 0.07505 0.0
C1962 C 0.12151 0.02791 0.06326 0.0
C1963 C 0.12507 0.02878 0.04079 0.0
C1964 C 0.13786 0.01448 0.03021 0.0
C1965 C 0.14688 0.99927 0.04228 0.0
C1966 C 0.1434 0.99782 0.06415 0.0
C1967 C 0.15518 0.97996 0.07323 0.0
C1968 C 0.17193 0.98894 0.09032 0.0
C1969 C 0.1391 0.96242 0.08235 0.0
C1970 C 0.16604 0.97184 0.05308 0.0
C1971 C 0.16105 0.98334 0.03548 0.0
C1972 C 0.16979 0.97958 0.01525 0.0
C1973 C 0.184 0.96363 0.01289 0.0
C1974 C 0.18922 0.95143 0.03059 0.0
C1975 C 0.17998 0.95553 0.05093 0.0
loop_
_geom_bond_atom_site_label_1
_geom_bond_atom_site_label_2
_geom_bond_distance
_geom_bond_site_symmetry_2
_ccdc_geom_bond_type
P0 O11 1.490 . S
P0 C14 1.812 . S
P0 C20 1.803 . S
P0 C26 1.819 . S
H1 C15 0.941 . S
H2 C16 0.939 . S
H3 C18 0.940 . S
H4 C19 0.940 . S
H5 C21 0.939 . S
H6 C22 0.942 . S
H7 C24 0.940 . S
H8 C25 0.939 . S
H9 C27 0.941 . S
H10 C31 0.939 . S
O11 P0 1.490 . S
H12 C28 0.939 . S
H13 C30 0.940 . S
C14 P0 1.812 . S
C14 C15 1.389 . S
C14 C19 1.391 . S
C15 H1 0.941 . S
C15 C14 1.389 . S
C15 C16 1.397 . S
C16 H2 0.939 . S
C16 C15 1.397 . S
C16 C17 1.378 . S
C17 C16 1.378 . S
C17 C18 1.378 . S
C18 H3 0.940 . S
C18 C17 1.378 . S
C18 C19 1.396 . S
C19 H4 0.940 . S
C19 C14 1.391 . S
C19 C18 1.396 . S
C20 P0 1.803 . S
C20 C21 1.378 . S
C20 C25 1.400 . S
C21 H5 0.939 . S
C21 C20 1.378 . S
C21 C22 1.361 . S
C22 H6 0.942 . S
C22 C21 1.361 . S
C22 C23 1.369 . S
C23 C22 1.369 . S
C23 C24 1.404 . S
C24 H7 0.940 . S
C24 C23 1.404 . S
C24 C25 1.389 . S
C25 H8 0.939 . S
C25 C20 1.400 . S
C25 C24 1.389 . S
C26 P0 1.819 . S
C26 C27 1.391 . S
C26 C31 1.391 . S
C27 H9 0.941 . S
C27 C26 1.391 . S
C27 C28 1.396 . S
C28 H12 0.939 . S
C28 C27 1.396 . S
C28 C29 1.397 . S
C29 C28 1.397 . S
C29 C30 1.385 . S
C30 H13 0.940 . S
C30 C29 1.385 . S
C30 C31 1.388 . S
C31 H10 0.939 . S
C31 C26 1.391 . S
C31 C30 1.388 . S
P32 O43 1.490 . S
P32 C46 1.812 . S
P32 C52 1.803 . S
P32 C58 1.819 . S
H33 C47 0.941 . S
H34 C48 0.939 . S
H35 C50 0.940 . S
H36 C51 0.940 . S
H37 C53 0.939 . S
H38 C54 0.942 . S
H39 C56 0.940 . S
H40 C57 0.939 . S
H41 C59 0.941 . S
H42 C63 0.939 . S
O43 P32 1.490 . S
H44 C60 0.939 . S
H45 C62 0.940 . S
C46 P32 1.812 . S
C46 C47 1.389 . S
C46 C51 1.391 . S
C47 H33 0.941 . S
C47 C46 1.389 . S
C47 C48 1.397 . S
C48 H34 0.939 . S
C48 C47 1.397 . S
C48 C49 1.378 . S
C49 C48 1.378 . S
C49 C50 1.378 . S
C50 H35 0.940 . S
C50 C49 1.378 . S
C50 C51 1.396 . S
C51 H36 0.940 . S
C51 C46 1.391 . S
C51 C50 1.396 . S
C52 P32 1.803 . S
C52 C53 1.378 . S
C52 C57 1.400 . S
C53 H37 0.939 . S
C53 C52 1.378 . S
C53 C54 1.361 . S
C54 H38 0.942 . S
C54 C53 1.361 . S
C54 C55 1.369 . S
C55 C54 1.369 . S
C55 C56 1.404 . S
C56 H39 0.940 . S
C56 C55 1.404 . S
C56 C57 1.389 . S
C57 H40 0.939 . S
C57 C52 1.400 . S
C57 C56 1.389 . S
C58 P32 1.819 . S
C58 C59 1.391 . S
C58 C63 1.391 . S
C59 H41 0.941 . S
C59 C58 1.391 . S
C59 C60 1.396 . S
C60 H44 0.939 . S
C60 C59 1.396 . S
C60 C61 1.397 . S
C61 C60 1.397 . S
C61 C62 1.385 . S
C62 H45 0.940 . S
C62 C61 1.385 . S
C62 C63 1.388 . S
C63 H42 0.939 . S
C63 C58 1.391 . S
C63 C62 1.388 . S
P64 O75 1.490 . S
P64 C78 1.812 . S
P64 C84 1.803 . S
P64 C90 1.819 . S
H65 C79 0.941 . S
H66 C80 0.939 . S
H67 C82 0.940 . S
H68 C83 0.940 . S
H69 C85 0.939 . S
H70 C86 0.942 . S
H71 C88 0.940 . S
H72 C89 0.939 . S
H73 C91 0.941 . S
H74 C95 0.939 . S
O75 P64 1.490 . S
H76 C92 0.939 . S
H77 C94 0.940 . S
C78 P64 1.812 . S
C78 C79 1.389 . S
C78 C83 1.391 . S
C79 H65 0.941 . S
C79 C78 1.389 . S
C79 C80 1.397 . S
C80 H66 0.939 . S
C80 C79 1.397 . S
C80 C81 1.378 . S
C81 C80 1.378 . S
C81 C82 1.378 . S
C82 H67 0.940 . S
C82 C81 1.378 . S
C82 C83 1.396 . S
C83 H68 0.940 . S
C83 C78 1.391 . S
C83 C82 1.396 . S
C84 P64 1.803 . S
C84 C85 1.378 . S
C84 C89 1.400 . S
C85 H69 0.939 . S
C85 C84 1.378 . S
C85 C86 1.361 . S
C86 H70 0.942 . S
C86 C85 1.361 . S
C86 C87 1.369 . S
C87 C86 1.369 . S
C87 C88 1.404 . S
C88 H71 0.940 . S
C88 C87 1.404 . S
C88 C89 1.389 . S
C89 H72 0.939 . S
C89 C84 1.400 . S
C89 C88 1.389 . S
C90 P64 1.819 . S
C90 C91 1.391 . S
C90 C95 1.391 . S
C91 H73 0.941 . S
C91 C90 1.391 . S
C91 C92 1.396 . S
C92 H76 0.939 . S
C92 C91 1.396 . S
C92 C93 1.397 . S
C93 C92 1.397 . S
C93 C94 1.385 . S
C94 H77 0.940 . S
C94 C93 1.385 . S
C94 C95 1.388 . S
C95 H74 0.939 . S
C95 C90 1.391 . S
C95 C94 1.388 . S
P96 O107 1.490 . S
P96 C110 1.812 . S
P96 C116 1.803 . S
P96 C122 1.819 . S
H97 C111 0.941 . S
H98 C112 0.939 . S
H99 C114 0.940 . S
H100 C115 0.940 . S
H101 C117 0.939 . S
H102 C118 0.942 . S
H103 C120 0.940 . S
H104 C121 0.939 . S
H105 C123 0.941 . S
H106 C127 0.939 . S
O107 P96 1.490 . S
H108 C124 0.939 . S
H109 C126 0.940 . S
C110 P96 1.812 . S
C110 C111 1.389 . S
C110 C115 1.391 . S
C111 H97 0.941 . S
C111 C110 1.389 . S
C111 C112 1.397 . S
C112 H98 0.939 . S
C112 C111 1.397 . S
C112 C113 1.378 . S
C113 C112 1.378 . S
C113 C114 1.378 . S
C114 H99 0.940 . S
C114 C113 1.378 . S
C114 C115 1.396 . S
C115 H100 0.940 . S
C115 C110 1.391 . S
C115 C114 1.396 . S
C116 P96 1.803 . S
C116 C117 1.378 . S
C116 C121 1.400 . S
C117 H101 0.939 . S
C117 C116 1.378 . S
C117 C118 1.361 . S
C118 H102 0.942 . S
C118 C117 1.361 . S
C118 C119 1.369 . S
C119 C118 1.369 . S
C119 C120 1.404 . S
C120 H103 0.940 . S
C120 C119 1.404 . S
C120 C121 1.389 . S
C121 H104 0.939 . S
C121 C116 1.400 . S
C121 C120 1.389 . S
C122 P96 1.819 . S
C122 C123 1.391 . S
C122 C127 1.391 . S
C123 H105 0.941 . S
C123 C122 1.391 . S
C123 C124 1.396 . S
C124 H108 0.939 . S
C124 C123 1.396 . S
C124 C125 1.397 . S
C125 C124 1.397 . S
C125 C126 1.385 . S
C126 H109 0.940 . S
C126 C125 1.385 . S
C126 C127 1.388 . S
C127 H106 0.939 . S
C127 C122 1.391 . S
C127 C126 1.388 . S
P128 O139 1.490 . S
P128 C142 1.812 . S
P128 C148 1.803 . S
P128 C154 1.819 . S
H129 C143 0.941 . S
H130 C144 0.939 . S
H131 C146 0.940 1_545 S
H132 C147 0.940 . S
H133 C149 0.939 . S
H134 C150 0.942 . S
H135 C152 0.940 . S
H136 C153 0.939 . S
H137 C155 0.941 . S
H138 C159 0.939 . S
O139 P128 1.490 . S
H140 C156 0.939 . S
H141 C158 0.940 . S
C142 P128 1.812 . S
C142 C143 1.389 . S
C142 C147 1.391 . S
C143 H129 0.941 . S
C143 C142 1.389 . S
C143 C144 1.397 . S
C144 H130 0.939 . S
C144 C143 1.397 . S
C144 C145 1.378 . S
C145 C144 1.378 . S
C145 C146 1.378 . S
C146 H131 0.940 1_565 S
C146 C145 1.378 . S
C146 C147 1.396 . S
C147 H132 0.940 . S
C147 C142 1.391 . S
C147 C146 1.396 . S
C148 P128 1.803 . S
C148 C149 1.378 . S
C148 C153 1.400 . S
C149 H133 0.939 . S
C149 C148 1.378 . S
C149 C150 1.361 . S
C150 H134 0.942 . S
C150 C149 1.361 . S
C150 C151 1.369 . S
C151 C150 1.369 . S
C151 C152 1.404 . S
C152 H135 0.940 . S
C152 C151 1.404 . S
C152 C153 1.389 . S
C153 H136 0.939 . S
C153 C148 1.400 . S
C153 C152 1.389 . S
C154 P128 1.819 . S
C154 C155 1.391 . S
C154 C159 1.391 . S
C155 H137 0.941 . S
C155 C154 1.391 . S
C155 C156 1.396 . S
C156 H140 0.939 . S
C156 C155 1.396 . S
C156 C157 1.397 . S
C157 C156 1.397 . S
C157 C158 1.385 . S
C158 H141 0.940 . S
C158 C157 1.385 . S
C158 C159 1.388 . S
C159 H138 0.939 . S
C159 C154 1.391 . S
C159 C158 1.388 . S
P160 O171 1.490 . S
P160 C174 1.812 . S
P160 C180 1.803 . S
P160 C186 1.819 . S
H161 C175 0.941 . S
H162 C176 0.939 . S
H163 C178 0.940 . S
H164 C179 0.940 . S
H165 C181 0.939 . S
H166 C182 0.942 . S
H167 C184 0.940 . S
H168 C185 0.939 . S
H169 C187 0.941 . S
H170 C191 0.939 . S
O171 P160 1.490 . S
H172 C188 0.939 . S
H173 C190 0.940 . S
C174 P160 1.812 . S
C174 C175 1.389 . S
C174 C179 1.391 . S
C175 H161 0.941 . S
C175 C174 1.389 . S
C175 C176 1.397 . S
C176 H162 0.939 . S
C176 C175 1.397 . S
C176 C177 1.378 . S
C177 C176 1.378 . S
C177 C178 1.378 . S
C178 H163 0.940 . S
C178 C177 1.378 . S
C178 C179 1.396 . S
C179 H164 0.940 . S
C179 C174 1.391 . S
C179 C178 1.396 . S
C180 P160 1.803 . S
C180 C181 1.378 . S
C180 C185 1.400 . S
C181 H165 0.939 . S
C181 C180 1.378 . S
C181 C182 1.361 . S
C182 H166 0.942 . S
C182 C181 1.361 . S
C182 C183 1.369 . S
C183 C182 1.369 . S
C183 C184 1.404 . S
C184 H167 0.940 . S
C184 C183 1.404 . S
C184 C185 1.389 . S
C185 H168 0.939 . S
C185 C180 1.400 . S
C185 C184 1.389 . S
C186 P160 1.819 . S
C186 C187 1.391 . S
C186 C191 1.391 . S
C187 H169 0.941 . S
C187 C186 1.391 . S
C187 C188 1.396 . S
C188 H172 0.939 . S
C188 C187 1.396 . S
C188 C189 1.397 . S
C189 C188 1.397 . S
C189 C190 1.385 . S
C190 H173 0.940 . S
C190 C189 1.385 . S
C190 C191 1.388 . S
C191 H170 0.939 . S
C191 C186 1.391 . S
C191 C190 1.388 . S
P192 O203 1.490 . S
P192 C206 1.812 . S
P192 C212 1.803 . S
P192 C218 1.819 . S
H193 C207 0.941 . S
H194 C208 0.939 . S
H195 C210 0.940 . S
H196 C211 0.940 . S
H197 C213 0.939 . S
H198 C214 0.942 . S
H199 C216 0.940 . S
H200 C217 0.939 . S
H201 C219 0.941 . S
H202 C223 0.939 . S
O203 P192 1.490 . S
H204 C220 0.939 . S
H205 C222 0.940 . S
C206 P192 1.812 . S
C206 C207 1.389 . S
C206 C211 1.391 . S
C207 H193 0.941 . S
C207 C206 1.389 . S
C207 C208 1.397 . S
C208 H194 0.939 . S
C208 C207 1.397 . S
C208 C209 1.378 . S
C209 C208 1.378 . S
C209 C210 1.378 . S
C210 H195 0.940 . S
C210 C209 1.378 . S
C210 C211 1.396 . S
C211 H196 0.940 . S
C211 C206 1.391 . S
C211 C210 1.396 . S
C212 P192 1.803 . S
C212 C213 1.378 . S
C212 C217 1.400 . S
C213 H197 0.939 . S
C213 C212 1.378 . S
C213 C214 1.361 . S
C214 H198 0.942 . S
C214 C213 1.361 . S
C214 C215 1.369 . S
C215 C214 1.369 . S
C215 C216 1.404 . S
C216 H199 0.940 . S
C216 C215 1.404 . S
C216 C217 1.389 . S
C217 H200 0.939 . S
C217 C212 1.400 . S
C217 C216 1.389 . S
C218 P192 1.819 . S
C218 C219 1.391 . S
C218 C223 1.391 . S
C219 H201 0.941 . S
C219 C218 1.391 . S
C219 C220 1.396 . S
C220 H204 0.939 . S
C220 C219 1.396 . S
C220 C221 1.397 . S
C221 C220 1.397 . S
C221 C222 1.385 . S
C222 H205 0.940 . S
C222 C221 1.385 . S
C222 C223 1.388 . S
C223 H202 0.939 . S
C223 C218 1.391 . S
C223 C222 1.388 . S
P224 O235 1.490 . S
P224 C238 1.812 . S
P224 C244 1.803 . S
P224 C250 1.819 . S
H225 C239 0.941 . S
H226 C240 0.939 . S
H227 C242 0.940 . S
H228 C243 0.940 . S
H229 C245 0.939 . S
H230 C246 0.942 . S
H231 C248 0.940 . S
H232 C249 0.939 . S
H233 C251 0.941 . S
H234 C255 0.939 . S
O235 P224 1.490 . S
H236 C252 0.939 . S
H237 C254 0.940 . S
C238 P224 1.812 . S
C238 C239 1.389 . S
C238 C243 1.391 . S
C239 H225 0.941 . S
C239 C238 1.389 . S
C239 C240 1.397 . S
C240 H226 0.939 . S
C240 C239 1.397 . S
C240 C241 1.378 . S
C241 C240 1.378 . S
C241 C242 1.378 . S
C242 H227 0.940 . S
C242 C241 1.378 . S
C242 C243 1.396 . S
C243 H228 0.940 . S
C243 C238 1.391 . S
C243 C242 1.396 . S
C244 P224 1.803 . S
C244 C245 1.378 . S
C244 C249 1.400 . S
C245 H229 0.939 . S
C245 C244 1.378 . S
C245 C246 1.361 . S
C246 H230 0.942 . S
C246 C245 1.361 . S
C246 C247 1.369 . S
C247 C246 1.369 . S
C247 C248 1.404 . S
C248 H231 0.940 . S
C248 C247 1.404 . S
C248 C249 1.389 . S
C249 H232 0.939 . S
C249 C244 1.400 . S
C249 C248 1.389 . S
C250 P224 1.819 . S
C250 C251 1.391 . S
C250 C255 1.391 . S
C251 H233 0.941 . S
C251 C250 1.391 . S
C251 C252 1.396 . S
C252 H236 0.939 . S
C252 C251 1.396 . S
C252 C253 1.397 . S
C253 C252 1.397 . S
C253 C254 1.385 . S
C254 H237 0.940 . S
C254 C253 1.385 . S
C254 C255 1.388 . S
C255 H234 0.939 . S
C255 C250 1.391 . S
C255 C254 1.388 . S
P256 O267 1.490 . S
P256 C270 1.812 . S
P256 C276 1.803 . S
P256 C282 1.819 . S
H257 C271 0.941 . S
H258 C272 0.939 . S
H259 C274 0.940 . S
H260 C275 0.940 . S
H261 C277 0.939 . S
H262 C278 0.942 . S
H263 C280 0.940 . S
H264 C281 0.939 . S
H265 C283 0.941 . S
H266 C287 0.939 . S
O267 P256 1.490 . S
H268 C284 0.939 . S
H269 C286 0.940 . S
C270 P256 1.812 . S
C270 C271 1.389 . S
C270 C275 1.391 . S
C271 H257 0.941 . S
C271 C270 1.389 . S
C271 C272 1.397 . S
C272 H258 0.939 . S
C272 C271 1.397 . S
C272 C273 1.378 . S
C273 C272 1.378 . S
C273 C274 1.378 . S
C274 H259 0.940 . S
C274 C273 1.378 . S
C274 C275 1.396 . S
C275 H260 0.940 . S
C275 C270 1.391 . S
C275 C274 1.396 . S
C276 P256 1.803 . S
C276 C277 1.378 . S
C276 C281 1.400 . S
C277 H261 0.939 . S
C277 C276 1.378 . S
C277 C278 1.361 . S
C278 H262 0.942 . S
C278 C277 1.361 . S
C278 C279 1.369 . S
C279 C278 1.369 . S
C279 C280 1.404 . S
C280 H263 0.940 . S
C280 C279 1.404 . S
C280 C281 1.389 . S
C281 H264 0.939 . S
C281 C276 1.400 . S
C281 C280 1.389 . S
C282 P256 1.819 . S
C282 C283 1.391 . S
C282 C287 1.391 . S
C283 H265 0.941 . S
C283 C282 1.391 . S
C283 C284 1.396 . S
C284 H268 0.939 . S
C284 C283 1.396 . S
C284 C285 1.397 . S
C285 C284 1.397 . S
C285 C286 1.385 . S
C286 H269 0.940 . S
C286 C285 1.385 . S
C286 C287 1.388 . S
C287 H266 0.939 . S
C287 C282 1.391 . S
C287 C286 1.388 . S
P288 O299 1.490 . S
P288 C302 1.812 . S
P288 C308 1.803 . S
P288 C314 1.819 . S
H289 C303 0.941 . S
H290 C304 0.939 . S
H291 C306 0.940 . S
H292 C307 0.940 . S
H293 C309 0.939 . S
H294 C310 0.942 . S
H295 C312 0.940 . S
H296 C313 0.939 . S
H297 C315 0.941 . S
H298 C319 0.939 . S
O299 P288 1.490 . S
H300 C316 0.939 . S
H301 C318 0.940 . S
C302 P288 1.812 . S
C302 C303 1.389 . S
C302 C307 1.391 . S
C303 H289 0.941 . S
C303 C302 1.389 . S
C303 C304 1.397 . S
C304 H290 0.939 . S
C304 C303 1.397 . S
C304 C305 1.378 . S
C305 C304 1.378 . S
C305 C306 1.378 . S
C306 H291 0.940 . S
C306 C305 1.378 . S
C306 C307 1.396 . S
C307 H292 0.940 . S
C307 C302 1.391 . S
C307 C306 1.396 . S
C308 P288 1.803 . S
C308 C309 1.378 . S
C308 C313 1.400 . S
C309 H293 0.939 . S
C309 C308 1.378 . S
C309 C310 1.361 . S
C310 H294 0.942 . S
C310 C309 1.361 . S
C310 C311 1.369 . S
C311 C310 1.369 . S
C311 C312 1.404 . S
C312 H295 0.940 . S
C312 C311 1.404 . S
C312 C313 1.389 . S
C313 H296 0.939 . S
C313 C308 1.400 . S
C313 C312 1.389 . S
C314 P288 1.819 . S
C314 C315 1.391 . S
C314 C319 1.391 . S
C315 H297 0.941 . S
C315 C314 1.391 . S
C315 C316 1.396 . S
C316 H300 0.939 . S
C316 C315 1.396 . S
C316 C317 1.397 . S
C317 C316 1.397 . S
C317 C318 1.385 . S
C318 H301 0.940 . S
C318 C317 1.385 . S
C318 C319 1.388 . S
C319 H298 0.939 . S
C319 C314 1.391 . S
C319 C318 1.388 . S
P320 O331 1.490 . S
P320 C334 1.812 . S
P320 C340 1.803 . S
P320 C346 1.819 . S
H321 C335 0.941 . S
H322 C336 0.939 . S
H323 C338 0.940 . S
H324 C339 0.940 . S
H325 C341 0.939 . S
H326 C342 0.942 . S
H327 C344 0.940 . S
H328 C345 0.939 . S
H329 C347 0.941 . S
H330 C351 0.939 . S
O331 P320 1.490 . S
H332 C348 0.939 . S
H333 C350 0.940 . S
C334 P320 1.812 . S
C334 C335 1.389 . S
C334 C339 1.391 . S
C335 H321 0.941 . S
C335 C334 1.389 . S
C335 C336 1.397 . S
C336 H322 0.939 . S
C336 C335 1.397 . S
C336 C337 1.378 . S
C337 C336 1.378 . S
C337 C338 1.378 . S
C338 H323 0.940 . S
C338 C337 1.378 . S
C338 C339 1.396 . S
C339 H324 0.940 . S
C339 C334 1.391 . S
C339 C338 1.396 . S
C340 P320 1.803 . S
C340 C341 1.378 . S
C340 C345 1.400 . S
C341 H325 0.939 . S
C341 C340 1.378 . S
C341 C342 1.361 . S
C342 H326 0.942 . S
C342 C341 1.361 . S
C342 C343 1.369 . S
C343 C342 1.369 . S
C343 C344 1.404 . S
C344 H327 0.940 . S
C344 C343 1.404 . S
C344 C345 1.389 . S
C345 H328 0.939 . S
C345 C340 1.400 . S
C345 C344 1.389 . S
C346 P320 1.819 . S
C346 C347 1.391 . S
C346 C351 1.391 . S
C347 H329 0.941 . S
C347 C346 1.391 . S
C347 C348 1.396 . S
C348 H332 0.939 . S
C348 C347 1.396 . S
C348 C349 1.397 . S
C349 C348 1.397 . S
C349 C350 1.385 . S
C350 H333 0.940 . S
C350 C349 1.385 . S
C350 C351 1.388 . S
C351 H330 0.939 . S
C351 C346 1.391 . S
C351 C350 1.388 . S
P352 O363 1.490 . S
P352 C366 1.812 . S
P352 C372 1.803 . S
P352 C378 1.819 . S
H353 C367 0.941 . S
H354 C368 0.939 . S
H355 C370 0.940 . S
H356 C371 0.940 . S
H357 C373 0.939 . S
H358 C374 0.942 . S
H359 C376 0.940 . S
H360 C377 0.939 . S
H361 C379 0.941 . S
H362 C383 0.939 . S
O363 P352 1.490 . S
H364 C380 0.939 . S
H365 C382 0.940 . S
C366 P352 1.812 . S
C366 C367 1.389 . S
C366 C371 1.391 . S
C367 H353 0.941 . S
C367 C366 1.389 . S
C367 C368 1.397 . S
C368 H354 0.939 . S
C368 C367 1.397 . S
C368 C369 1.378 . S
C369 C368 1.378 . S
C369 C370 1.378 . S
C370 H355 0.940 . S
C370 C369 1.378 . S
C370 C371 1.396 . S
C371 H356 0.940 . S
C371 C366 1.391 . S
C371 C370 1.396 . S
C372 P352 1.803 . S
C372 C373 1.378 . S
C372 C377 1.400 . S
C373 H357 0.939 . S
C373 C372 1.378 . S
C373 C374 1.361 . S
C374 H358 0.942 . S
C374 C373 1.361 . S
C374 C375 1.369 . S
C375 C374 1.369 . S
C375 C376 1.404 . S
C376 H359 0.940 . S
C376 C375 1.404 . S
C376 C377 1.389 . S
C377 H360 0.939 . S
C377 C372 1.400 . S
C377 C376 1.389 . S
C378 P352 1.819 . S
C378 C379 1.391 . S
C378 C383 1.391 . S
C379 H361 0.941 . S
C379 C378 1.391 . S
C379 C380 1.396 . S
C380 H364 0.939 . S
C380 C379 1.396 . S
C380 C381 1.397 . S
C381 C380 1.397 . S
C381 C382 1.385 . S
C382 H365 0.940 . S
C382 C381 1.385 . S
C382 C383 1.388 . S
C383 H362 0.939 . S
C383 C378 1.391 . S
C383 C382 1.388 . S
P384 O395 1.490 . S
P384 C398 1.812 . S
P384 C404 1.803 . S
P384 C410 1.819 . S
H385 C399 0.941 . S
H386 C400 0.939 . S
H387 C402 0.940 . S
H388 C403 0.940 . S
H389 C405 0.939 . S
H390 C406 0.942 . S
H391 C408 0.940 . S
H392 C409 0.939 . S
H393 C411 0.941 . S
H394 C415 0.939 . S
O395 P384 1.490 . S
H396 C412 0.939 . S
H397 C414 0.940 . S
C398 P384 1.812 . S
C398 C399 1.389 . S
C398 C403 1.391 . S
C399 H385 0.941 . S
C399 C398 1.389 . S
C399 C400 1.397 . S
C400 H386 0.939 . S
C400 C399 1.397 . S
C400 C401 1.378 . S
C401 C400 1.378 . S
C401 C402 1.378 . S
C402 H387 0.940 . S
C402 C401 1.378 . S
C402 C403 1.396 . S
C403 H388 0.940 . S
C403 C398 1.391 . S
C403 C402 1.396 . S
C404 P384 1.803 . S
C404 C405 1.378 . S
C404 C409 1.400 . S
C405 H389 0.939 . S
C405 C404 1.378 . S
C405 C406 1.361 . S
C406 H390 0.942 . S
C406 C405 1.361 . S
C406 C407 1.369 . S
C407 C406 1.369 . S
C407 C408 1.404 . S
C408 H391 0.940 . S
C408 C407 1.404 . S
C408 C409 1.389 . S
C409 H392 0.939 . S
C409 C404 1.400 . S
C409 C408 1.389 . S
C410 P384 1.819 . S
C410 C411 1.391 . S
C410 C415 1.391 . S
C411 H393 0.941 . S
C411 C410 1.391 . S
C411 C412 1.396 . S
C412 H396 0.939 . S
C412 C411 1.396 . S
C412 C413 1.397 . S
C413 C412 1.397 . S
C413 C414 1.385 . S
C414 H397 0.940 . S
C414 C413 1.385 . S
C414 C415 1.388 . S
C415 H394 0.939 . S
C415 C410 1.391 . S
C415 C414 1.388 . S
P416 O427 1.490 . S
P416 C430 1.812 . S
P416 C436 1.803 . S
P416 C442 1.819 . S
H417 C431 0.941 . S
H418 C432 0.939 . S
H419 C434 0.940 . S
H420 C435 0.940 . S
H421 C437 0.939 . S
H422 C438 0.942 . S
H423 C440 0.940 . S
H424 C441 0.939 . S
H425 C443 0.941 . S
H426 C447 0.939 . S
O427 P416 1.490 . S
H428 C444 0.939 . S
H429 C446 0.940 . S
C430 P416 1.812 . S
C430 C431 1.389 . S
C430 C435 1.391 . S
C431 H417 0.941 . S
C431 C430 1.389 . S
C431 C432 1.397 . S
C432 H418 0.939 . S
C432 C431 1.397 . S
C432 C433 1.378 . S
C433 C432 1.378 . S
C433 C434 1.378 . S
C434 H419 0.940 . S
C434 C433 1.378 . S
C434 C435 1.396 . S
C435 H420 0.940 . S
C435 C430 1.391 . S
C435 C434 1.396 . S
C436 P416 1.803 . S
C436 C437 1.378 . S
C436 C441 1.400 . S
C437 H421 0.939 . S
C437 C436 1.378 . S
C437 C438 1.361 . S
C438 H422 0.942 . S
C438 C437 1.361 . S
C438 C439 1.369 . S
C439 C438 1.369 . S
C439 C440 1.404 . S
C440 H423 0.940 . S
C440 C439 1.404 . S
C440 C441 1.389 . S
C441 H424 0.939 . S
C441 C436 1.400 . S
C441 C440 1.389 . S
C442 P416 1.819 . S
C442 C443 1.391 . S
C442 C447 1.391 . S
C443 H425 0.941 . S
C443 C442 1.391 . S
C443 C444 1.396 . S
C444 H428 0.939 . S
C444 C443 1.396 . S
C444 C445 1.397 . S
C445 C444 1.397 . S
C445 C446 1.385 . S
C446 H429 0.940 . S
C446 C445 1.385 . S
C446 C447 1.388 . S
C447 H426 0.939 . S
C447 C442 1.391 . S
C447 C446 1.388 . S
P448 O459 1.490 . S
P448 C462 1.812 . S
P448 C468 1.803 . S
P448 C474 1.819 . S
H449 C463 0.941 . S
H450 C464 0.939 . S
H451 C466 0.940 . S
H452 C467 0.940 . S
H453 C469 0.939 . S
H454 C470 0.942 . S
H455 C472 0.940 . S
H456 C473 0.939 . S
H457 C475 0.941 . S
H458 C479 0.939 . S
O459 P448 1.490 . S
H460 C476 0.939 . S
H461 C478 0.940 . S
C462 P448 1.812 . S
C462 C463 1.389 . S
C462 C467 1.391 . S
C463 H449 0.941 . S
C463 C462 1.389 . S
C463 C464 1.397 . S
C464 H450 0.939 . S
C464 C463 1.397 . S
C464 C465 1.378 . S
C465 C464 1.378 . S
C465 C466 1.378 . S
C466 H451 0.940 . S
C466 C465 1.378 . S
C466 C467 1.396 . S
C467 H452 0.940 . S
C467 C462 1.391 . S
C467 C466 1.396 . S
C468 P448 1.803 . S
C468 C469 1.378 . S
C468 C473 1.400 . S
C469 H453 0.939 . S
C469 C468 1.378 . S
C469 C470 1.361 . S
C470 H454 0.942 . S
C470 C469 1.361 . S
C470 C471 1.369 . S
C471 C470 1.369 . S
C471 C472 1.404 . S
C472 H455 0.940 . S
C472 C471 1.404 . S
C472 C473 1.389 . S
C473 H456 0.939 . S
C473 C468 1.400 . S
C473 C472 1.389 . S
C474 P448 1.819 . S
C474 C475 1.391 . S
C474 C479 1.391 . S
C475 H457 0.941 . S
C475 C474 1.391 . S
C475 C476 1.396 . S
C476 H460 0.939 . S
C476 C475 1.396 . S
C476 C477 1.397 . S
C477 C476 1.397 . S
C477 C478 1.385 . S
C478 H461 0.940 . S
C478 C477 1.385 . S
C478 C479 1.388 . S
C479 H458 0.939 . S
C479 C474 1.391 . S
C479 C478 1.388 . S
P480 O491 1.490 . S
P480 C494 1.812 . S
P480 C500 1.803 . S
P480 C506 1.819 . S
H481 C495 0.941 . S
H482 C496 0.939 . S
H483 C498 0.940 . S
H484 C499 0.940 . S
H485 C501 0.905 1_554 S
H486 C502 0.942 1_554 S
H487 C504 0.940 . S
H488 C505 0.939 . S
H489 C507 0.941 . S
H490 C511 0.939 . S
O491 P480 1.490 . S
H492 C508 0.939 . S
H493 C510 0.940 . S
C494 P480 1.812 . S
C494 C495 1.389 . S
C494 C499 1.391 . S
C495 H481 0.941 . S
C495 C494 1.389 . S
C495 C496 1.397 . S
C496 H482 0.939 . S
C496 C495 1.397 . S
C496 C497 1.378 . S
C497 C496 1.378 . S
C497 C498 1.378 . S
C498 H483 0.940 . S
C498 C497 1.378 . S
C498 C499 1.396 . S
C499 H484 0.940 . S
C499 C494 1.391 . S
C499 C498 1.396 . S
C500 P480 1.803 . S
C500 C501 1.378 . S
C500 C505 1.400 . S
C501 H485 0.905 1_556 S
C501 C500 1.378 . S
C501 C502 1.361 . S
C502 H486 0.942 1_556 S
C502 C501 1.361 . S
C502 C503 1.369 . S
C503 C502 1.369 . S
C503 C504 1.404 . S
C504 H487 0.940 . S
C504 C503 1.404 . S
C504 C505 1.389 . S
C505 H488 0.939 . S
C505 C500 1.400 . S
C505 C504 1.389 . S
C506 P480 1.819 . S
C506 C507 1.391 . S
C506 C511 1.391 . S
C507 H489 0.941 . S
C507 C506 1.391 . S
C507 C508 1.396 . S
C508 H492 0.939 . S
C508 C507 1.396 . S
C508 C509 1.397 . S
C509 C508 1.397 . S
C509 C510 1.385 . S
C510 H493 0.940 . S
C510 C509 1.385 . S
C510 C511 1.388 . S
C511 H490 0.939 . S
C511 C506 1.391 . S
C511 C510 1.388 . S
O512 Cd513 2.223 . S
O512 C520 1.315 . S
Cd513 O512 2.223 . S
Cd513 O516 2.297 . S
Cd513 O517 2.439 . S
Cd513 O523 2.240 . S
Cd514 O515 2.240 . S
Cd514 O522 2.223 . S
Cd514 O524 2.297 . S
Cd514 O525 2.439 . S
O515 Cd514 2.240 . S
O515 C520 1.279 . S
O516 Cd513 2.297 . S
O516 C518 1.247 . S
O517 Cd513 2.439 . S
O517 C518 1.208 . S
C518 O516 1.247 . S
C518 O517 1.208 . S
C519 O524 1.247 . S
C519 O525 1.208 . S
C520 O512 1.315 . S
C520 O515 1.279 . S
C521 O522 1.315 . S
C521 O523 1.279 . S
O522 Cd514 2.223 . S
O522 C521 1.315 . S
O523 Cd513 2.240 . S
O523 C521 1.279 . S
O524 Cd514 2.297 . S
O524 C519 1.247 . S
O525 Cd514 2.439 . S
O525 C519 1.208 . S
O526 Cd527 2.223 . S
O526 C534 1.315 . S
Cd527 O526 2.223 . S
Cd527 O530 2.297 . S
Cd527 O531 2.439 . S
Cd527 O537 2.240 . S
Cd528 O529 2.240 . S
Cd528 O536 2.223 . S
Cd528 O538 2.297 . S
Cd528 O539 2.439 . S
O529 Cd528 2.240 . S
O529 C534 1.279 . S
O530 Cd527 2.297 . S
O530 C532 1.247 . S
O531 Cd527 2.439 . S
O531 C532 1.208 . S
C532 O530 1.247 . S
C532 O531 1.208 . S
C533 O538 1.247 . S
C533 O539 1.208 . S
C534 O526 1.315 . S
C534 O529 1.279 . S
C535 O536 1.315 . S
C535 O537 1.279 . S
O536 Cd528 2.223 . S
O536 C535 1.315 . S
O537 Cd527 2.240 . S
O537 C535 1.279 . S
O538 Cd528 2.297 . S
O538 C533 1.247 . S
O539 Cd528 2.439 . S
O539 C533 1.208 . S
O540 Cd541 2.223 1_556 S
O540 C548 1.315 . S
Cd541 O540 2.223 1_554 S
Cd541 O544 2.297 . S
Cd541 O545 2.439 . S
Cd541 O551 2.240 . S
Cd542 O543 2.240 . S
Cd542 O550 2.223 . S
Cd542 O552 2.297 1_556 S
Cd542 O553 2.439 1_556 S
O543 Cd542 2.240 . S
O543 C548 1.279 . S
O544 Cd541 2.297 . S
O544 C546 1.247 . S
O545 Cd541 2.439 . S
O545 C546 1.208 . S
C546 O544 1.247 . S
C546 O545 1.208 . S
C547 O552 1.247 . S
C547 O553 1.208 . S
C548 O540 1.315 . S
C548 O543 1.279 . S
C549 O550 1.315 . S
C549 O551 1.279 1_556 S
O550 Cd542 2.223 . S
O550 C549 1.315 . S
O551 Cd541 2.240 . S
O551 C549 1.279 1_554 S
O552 Cd542 2.297 1_554 S
O552 C547 1.247 . S
O553 Cd542 2.439 1_554 S
O553 C547 1.208 . S
O554 Cd555 2.223 . S
O554 C562 1.315 . S
Cd555 O554 2.223 . S
Cd555 O558 2.297 . S
Cd555 O559 2.439 . S
Cd555 O565 2.240 . S
Cd556 O557 2.240 . S
Cd556 O564 2.223 . S
Cd556 O566 2.297 . S
Cd556 O567 2.439 . S
O557 Cd556 2.240 . S
O557 C562 1.279 . S
O558 Cd555 2.297 . S
O558 C560 1.247 . S
O559 Cd555 2.439 . S
O559 C560 1.208 . S
C560 O558 1.247 . S
C560 O559 1.208 . S
C561 O566 1.247 . S
C561 O567 1.208 . S
C562 O554 1.315 . S
C562 O557 1.279 . S
C563 O564 1.315 . S
C563 O565 1.279 . S
O564 Cd556 2.223 . S
O564 C563 1.315 . S
O565 Cd555 2.240 . S
O565 C563 1.279 . S
O566 Cd556 2.297 . S
O566 C561 1.247 . S
O567 Cd556 2.439 . S
O567 C561 1.208 . S
O568 Cd569 2.223 . S
O568 C576 1.315 . S
Cd569 O568 2.223 . S
Cd569 O572 2.297 . S
Cd569 O573 2.439 . S
Cd569 O579 2.240 . S
Cd570 O571 2.240 . S
Cd570 O578 2.223 . S
Cd570 O580 2.297 . S
Cd570 O581 2.439 . S
O571 Cd570 2.240 . S
O571 C576 1.279 . S
O572 Cd569 2.297 . S
O572 C574 1.247 . S
O573 Cd569 2.439 . S
O573 C574 1.208 . S
C574 O572 1.247 . S
C574 O573 1.208 . S
C575 O580 1.247 . S
C575 O581 1.208 . S
C576 O568 1.315 . S
C576 O571 1.279 . S
C577 O578 1.315 . S
C577 O579 1.279 . S
O578 Cd570 2.223 . S
O578 C577 1.315 . S
O579 Cd569 2.240 . S
O579 C577 1.279 . S
O580 Cd570 2.297 . S
O580 C575 1.247 . S
O581 Cd570 2.439 . S
O581 C575 1.208 . S
O582 Cd583 2.223 . S
O582 C590 1.315 . S
Cd583 O582 2.223 . S
Cd583 O586 2.297 . S
Cd583 O587 2.439 . S
Cd583 O593 2.240 . S
Cd584 O585 2.240 . S
Cd584 O592 2.223 . S
Cd584 O594 2.297 . S
Cd584 O595 2.439 . S
O585 Cd584 2.240 . S
O585 C590 1.279 . S
O586 Cd583 2.297 . S
O586 C588 1.247 . S
O587 Cd583 2.439 . S
O587 C588 1.208 . S
C588 O586 1.247 . S
C588 O587 1.208 . S
C589 O594 1.247 . S
C589 O595 1.208 . S
C590 O582 1.315 . S
C590 O585 1.279 . S
C591 O592 1.315 . S
C591 O593 1.279 . S
O592 Cd584 2.223 . S
O592 C591 1.315 . S
O593 Cd583 2.240 . S
O593 C591 1.279 . S
O594 Cd584 2.297 . S
O594 C589 1.247 . S
O595 Cd584 2.439 . S
O595 C589 1.208 . S
O596 Cd597 2.223 . S
O596 C604 1.315 . S
Cd597 O596 2.223 . S
Cd597 O600 2.297 . S
Cd597 O601 2.439 . S
Cd597 O607 2.240 . S
Cd598 O599 2.240 . S
Cd598 O606 2.223 . S
Cd598 O608 2.297 . S
Cd598 O609 2.439 . S
O599 Cd598 2.240 . S
O599 C604 1.279 . S
O600 Cd597 2.297 . S
O600 C602 1.247 . S
O601 Cd597 2.439 . S
O601 C602 1.208 . S
C602 O600 1.247 . S
C602 O601 1.208 . S
C603 O608 1.247 . S
C603 O609 1.208 . S
C604 O596 1.315 . S
C604 O599 1.279 . S
C605 O606 1.315 . S
C605 O607 1.279 . S
O606 Cd598 2.223 . S
O606 C605 1.315 . S
O607 Cd597 2.240 . S
O607 C605 1.279 . S
O608 Cd598 2.297 . S
O608 C603 1.247 . S
O609 Cd598 2.439 . S
O609 C603 1.208 . S
O610 Cd611 2.223 1_545 S
O610 C618 1.315 . S
Cd611 O610 2.223 1_565 S
Cd611 O614 2.297 . S
Cd611 O615 2.439 . S
Cd611 O621 2.240 1_565 S
Cd612 O613 2.240 . S
Cd612 O620 2.223 . S
Cd612 O622 2.297 . S
Cd612 O623 2.439 1_545 S
O613 Cd612 2.240 . S
O613 C618 1.279 . S
O614 Cd611 2.297 . S
O614 C616 1.247 . S
O615 Cd611 2.439 . S
O615 C616 1.208 . S
C616 O614 1.247 . S
C616 O615 1.208 . S
C617 O622 1.247 1_565 S
C617 O623 1.208 . S
C618 O610 1.315 . S
C618 O613 1.279 . S
C619 O620 1.315 . S
C619 O621 1.279 . S
O620 Cd612 2.223 . S
O620 C619 1.315 . S
O621 Cd611 2.240 1_545 S
O621 C619 1.279 . S
O622 Cd612 2.297 . S
O622 C617 1.247 1_545 S
O623 Cd612 2.439 1_565 S
O623 C617 1.208 . S
O624 Cd625 2.223 . S
O624 C632 1.315 . S
Cd625 O624 2.223 . S
Cd625 O628 2.297 1_655 S
Cd625 O629 2.439 1_655 S
Cd625 O635 2.240 . S
Cd626 O627 2.240 . S
Cd626 O634 2.223 1_455 S
Cd626 O636 2.297 . S
Cd626 O637 2.439 . S
O627 Cd626 2.240 . S
O627 C632 1.279 1_455 S
O628 Cd625 2.297 1_455 S
O628 C630 1.247 . S
O629 Cd625 2.439 1_455 S
O629 C630 1.208 . S
C630 O628 1.247 . S
C630 O629 1.208 . S
C631 O636 1.247 . S
C631 O637 1.208 . S
C632 O624 1.315 . S
C632 O627 1.279 1_655 S
C633 O634 1.315 . S
C633 O635 1.279 . S
O634 Cd626 2.223 1_655 S
O634 C633 1.315 . S
O635 Cd625 2.240 . S
O635 C633 1.279 . S
O636 Cd626 2.297 . S
O636 C631 1.247 . S
O637 Cd626 2.439 . S
O637 C631 1.208 . S
O638 Cd639 2.223 . S
O638 C646 1.315 . S
Cd639 O638 2.223 . S
Cd639 O642 2.297 . S
Cd639 O643 2.439 . S
Cd639 O649 2.240 . S
Cd640 O641 2.240 . S
Cd640 O648 2.223 . S
Cd640 O650 2.297 . S
Cd640 O651 2.439 . S
O641 Cd640 2.240 . S
O641 C646 1.279 . S
O642 Cd639 2.297 . S
O642 C644 1.247 . S
O643 Cd639 2.439 . S
O643 C644 1.208 . S
C644 O642 1.247 . S
C644 O643 1.208 . S
C645 O650 1.247 . S
C645 O651 1.208 . S
C646 O638 1.315 . S
C646 O641 1.279 . S
C647 O648 1.315 . S
C647 O649 1.279 . S
O648 Cd640 2.223 . S
O648 C647 1.315 . S
O649 Cd639 2.240 . S
O649 C647 1.279 . S
O650 Cd640 2.297 . S
O650 C645 1.247 . S
O651 Cd640 2.439 . S
O651 C645 1.208 . S
O652 Cd653 2.223 1_655 S
O652 C660 1.315 . S
Cd653 O652 2.223 1_455 S
Cd653 O656 2.297 . S
Cd653 O657 2.439 . S
Cd653 O663 2.240 . S
Cd654 O655 2.240 . S
Cd654 O662 2.223 . S
Cd654 O664 2.297 1_655 S
Cd654 O665 2.439 1_655 S
O655 Cd654 2.240 . S
O655 C660 1.279 . S
O656 Cd653 2.297 . S
O656 C658 1.247 . S
O657 Cd653 2.439 . S
O657 C658 1.208 . S
C658 O656 1.247 . S
C658 O657 1.208 . S
C659 O664 1.247 . S
C659 O665 1.208 . S
C660 O652 1.315 . S
C660 O655 1.279 . S
C661 O662 1.315 . S
C661 O663 1.279 1_655 S
O662 Cd654 2.223 . S
O662 C661 1.315 . S
O663 Cd653 2.240 . S
O663 C661 1.279 1_455 S
O664 Cd654 2.297 1_455 S
O664 C659 1.247 . S
O665 Cd654 2.439 1_455 S
O665 C659 1.208 . S
O666 Cd667 2.223 . S
O666 C674 1.315 . S
Cd667 O666 2.223 . S
Cd667 O670 2.297 . S
Cd667 O671 2.439 . S
Cd667 O677 2.240 . S
Cd668 O669 2.240 . S
Cd668 O676 2.223 . S
Cd668 O678 2.297 . S
Cd668 O679 2.439 . S
O669 Cd668 2.240 . S
O669 C674 1.279 . S
O670 Cd667 2.297 . S
O670 C672 1.247 . S
O671 Cd667 2.439 . S
O671 C672 1.208 . S
C672 O670 1.247 . S
C672 O671 1.208 . S
C673 O678 1.247 . S
C673 O679 1.208 . S
C674 O666 1.315 . S
C674 O669 1.279 . S
C675 O676 1.315 . S
C675 O677 1.279 . S
O676 Cd668 2.223 . S
O676 C675 1.315 . S
O677 Cd667 2.240 . S
O677 C675 1.279 . S
O678 Cd668 2.297 . S
O678 C673 1.247 . S
O679 Cd668 2.439 . S
O679 C673 1.208 . S
H680 C692 0.930 . S
H681 C694 0.930 . S
H682 C695 0.930 . S
H683 C699 0.959 . S
H684 C699 0.959 . S
H685 C699 0.961 . S
H686 C700 0.960 . S
H687 C700 0.961 . S
H688 C700 0.959 . S
H689 C703 0.929 . S
H690 C704 0.931 . S
H691 C706 0.918 1_554 S
C692 H680 0.930 . S
C692 C693 1.399 . S
C692 C697 1.399 . S
C693 C692 1.399 . S
C693 C694 1.376 . S
C694 H681 0.930 . S
C694 C693 1.376 . S
C694 C695 1.388 . S
C695 H682 0.930 . S
C695 C694 1.388 . S
C695 C696 1.390 . S
C696 C695 1.390 . S
C696 C697 1.394 . S
C696 C702 1.465 . S
C697 C692 1.399 . S
C697 C696 1.394 . S
C697 C698 1.516 . S
C698 C697 1.516 . S
C698 C699 1.502 . S
C698 C700 1.561 . S
C698 C701 1.526 . S
C699 H683 0.959 . S
C699 H684 0.959 . S
C699 H685 0.961 . S
C699 C698 1.502 . S
C700 H686 0.960 . S
C700 H687 0.961 . S
C700 H688 0.959 . S
C700 C698 1.561 . S
C701 C698 1.526 . S
C701 C702 1.396 . S
C701 C706 1.390 . S
C702 C696 1.465 . S
C702 C701 1.396 . S
C702 C703 1.399 . S
C703 H689 0.929 . S
C703 C702 1.399 . S
C703 C704 1.385 . S
C704 H690 0.931 . S
C704 C703 1.385 . S
C704 C705 1.389 . S
C705 C704 1.389 . S
C705 C706 1.387 . S
C706 H691 0.918 1_556 S
C706 C701 1.390 . S
C706 C705 1.387 . S
H707 C719 0.922 1_455 S
H708 C721 0.930 . S
H709 C722 0.930 . S
H710 C726 0.959 . S
H711 C726 0.959 . S
H712 C726 0.961 . S
H713 C727 0.960 . S
H714 C727 0.961 . S
H715 C727 0.959 . S
H716 C730 0.929 . S
H717 C731 0.931 . S
H718 C733 0.930 . S
C719 H707 0.922 1_655 S
C719 C720 1.425 . S
C719 C724 1.381 1_655 S
C720 C719 1.425 . S
C720 C721 1.376 . S
C721 H708 0.930 . S
C721 C720 1.376 . S
C721 C722 1.388 . S
C722 H709 0.930 . S
C722 C721 1.388 . S
C722 C723 1.390 1_655 S
C723 C722 1.390 1_455 S
C723 C724 1.394 . S
C723 C729 1.465 . S
C724 C719 1.381 1_455 S
C724 C723 1.394 . S
C724 C725 1.516 . S
C725 C724 1.516 . S
C725 C726 1.502 . S
C725 C727 1.561 . S
C725 C728 1.526 . S
C726 H710 0.959 . S
C726 H711 0.959 . S
C726 H712 0.961 . S
C726 C725 1.502 . S
C727 H713 0.960 . S
C727 H714 0.961 . S
C727 H715 0.959 . S
C727 C725 1.561 . S
C728 C725 1.526 . S
C728 C729 1.396 . S
C728 C733 1.390 . S
C729 C723 1.465 . S
C729 C728 1.396 . S
C729 C730 1.399 . S
C730 H716 0.929 . S
C730 C729 1.399 . S
C730 C731 1.385 . S
C731 H717 0.931 . S
C731 C730 1.385 . S
C731 C732 1.389 . S
C732 C731 1.389 . S
C732 C733 1.387 . S
C733 H718 0.930 . S
C733 C728 1.390 . S
C733 C732 1.387 . S
H734 C746 0.930 . S
H735 C748 0.930 . S
H736 C749 0.930 . S
H737 C753 0.959 . S
H738 C753 0.959 . S
H739 C753 0.961 . S
H740 C754 0.960 . S
H741 C754 0.961 . S
H742 C754 0.959 . S
H743 C757 0.929 . S
H744 C758 0.931 . S
H745 C760 0.930 . S
C746 H734 0.930 . S
C746 C747 1.399 . S
C746 C751 1.399 . S
C747 C746 1.399 . S
C747 C748 1.376 . S
C748 H735 0.930 . S
C748 C747 1.376 . S
C748 C749 1.388 . S
C749 H736 0.930 . S
C749 C748 1.388 . S
C749 C750 1.390 . S
C750 C749 1.390 . S
C750 C751 1.394 . S
C750 C756 1.465 . S
C751 C746 1.399 . S
C751 C750 1.394 . S
C751 C752 1.516 . S
C752 C751 1.516 . S
C752 C753 1.502 . S
C752 C754 1.561 . S
C752 C755 1.526 . S
C753 H737 0.959 . S
C753 H738 0.959 . S
C753 H739 0.961 . S
C753 C752 1.502 . S
C754 H740 0.960 . S
C754 H741 0.961 . S
C754 H742 0.959 . S
C754 C752 1.561 . S
C755 C752 1.526 . S
C755 C756 1.396 . S
C755 C760 1.390 . S
C756 C750 1.465 . S
C756 C755 1.396 . S
C756 C757 1.399 . S
C757 H743 0.929 . S
C757 C756 1.399 . S
C757 C758 1.385 . S
C758 H744 0.931 . S
C758 C757 1.385 . S
C758 C759 1.389 . S
C759 C758 1.389 . S
C759 C760 1.387 . S
C760 H745 0.930 . S
C760 C755 1.390 . S
C760 C759 1.387 . S
H761 C773 0.930 . S
H762 C775 0.930 . S
H763 C776 0.930 . S
H764 C780 0.957 1_455 S
H765 C780 0.959 . S
H766 C780 0.961 1_465 S
H767 C781 0.960 . S
H768 C781 0.961 . S
H769 C781 0.959 . S
H770 C784 0.929 . S
H771 C785 0.931 . S
H772 C787 0.930 . S
C773 H761 0.930 . S
C773 C774 1.399 . S
C773 C778 1.399 1_455 S
C774 C773 1.399 . S
C774 C775 1.376 . S
C775 H762 0.930 . S
C775 C774 1.376 . S
C775 C776 1.388 1_455 S
C776 H763 0.930 . S
C776 C775 1.388 1_655 S
C776 C777 1.390 . S
C777 C776 1.390 . S
C777 C778 1.394 . S
C777 C783 1.452 1_565 S
C778 C773 1.399 1_655 S
C778 C777 1.394 . S
C778 C779 1.516 . S
C779 C778 1.516 . S
C779 C780 1.502 1_565 S
C779 C781 1.561 . S
C779 C782 1.500 1_565 S
C780 H764 0.957 1_655 S
C780 H765 0.959 . S
C780 H766 0.961 1_645 S
C780 C779 1.502 1_545 S
C781 H767 0.960 . S
C781 H768 0.961 . S
C781 H769 0.959 . S
C781 C779 1.561 . S
C782 C779 1.500 1_545 S
C782 C783 1.395 . S
C782 C787 1.416 . S
C783 C777 1.452 1_545 S
C783 C782 1.395 . S
C783 C784 1.410 . S
C784 H770 0.929 . S
C784 C783 1.410 . S
C784 C785 1.385 . S
C785 H771 0.931 . S
C785 C784 1.385 . S
C785 C786 1.389 . S
C786 C785 1.389 . S
C786 C787 1.387 . S
C787 H772 0.930 . S
C787 C782 1.416 . S
C787 C786 1.387 . S
H788 C800 0.930 . S
H789 C802 0.930 . S
H790 C803 0.930 . S
H791 C807 0.959 . S
H792 C807 0.959 . S
H793 C807 0.961 . S
H794 C808 0.960 . S
H795 C808 0.961 . S
H796 C808 0.959 . S
H797 C811 0.929 . S
H798 C812 0.931 . S
H799 C814 0.930 . S
C800 H788 0.930 . S
C800 C801 1.399 . S
C800 C805 1.399 . S
C801 C800 1.399 . S
C801 C802 1.376 . S
C802 H789 0.930 . S
C802 C801 1.376 . S
C802 C803 1.388 . S
C803 H790 0.930 . S
C803 C802 1.388 . S
C803 C804 1.390 . S
C804 C803 1.390 . S
C804 C805 1.394 . S
C804 C810 1.465 . S
C805 C800 1.399 . S
C805 C804 1.394 . S
C805 C806 1.516 . S
C806 C805 1.516 . S
C806 C807 1.502 . S
C806 C808 1.561 . S
C806 C809 1.526 . S
C807 H791 0.959 . S
C807 H792 0.959 . S
C807 H793 0.961 . S
C807 C806 1.502 . S
C808 H794 0.960 . S
C808 H795 0.961 . S
C808 H796 0.959 . S
C808 C806 1.561 . S
C809 C806 1.526 . S
C809 C810 1.396 . S
C809 C814 1.390 . S
C810 C804 1.465 . S
C810 C809 1.396 . S
C810 C811 1.399 . S
C811 H797 0.929 . S
C811 C810 1.399 . S
C811 C812 1.385 . S
C812 H798 0.931 . S
C812 C811 1.385 . S
C812 C813 1.389 . S
C813 C812 1.389 . S
C813 C814 1.387 . S
C814 H799 0.930 . S
C814 C809 1.390 . S
C814 C813 1.387 . S
H815 C827 0.930 . S
H816 C829 0.930 . S
H817 C830 0.930 . S
H818 C834 0.959 . S
H819 C834 0.959 . S
H820 C834 0.961 . S
H821 C835 0.960 . S
H822 C835 0.961 . S
H823 C835 0.959 . S
H824 C838 0.929 . S
H825 C839 0.931 . S
H826 C841 0.930 . S
C827 H815 0.930 . S
C827 C828 1.399 . S
C827 C832 1.399 . S
C828 C827 1.399 . S
C828 C829 1.376 . S
C829 H816 0.930 . S
C829 C828 1.376 . S
C829 C830 1.388 . S
C830 H817 0.930 . S
C830 C829 1.388 . S
C830 C831 1.390 . S
C831 C830 1.390 . S
C831 C832 1.394 . S
C831 C837 1.465 . S
C832 C827 1.399 . S
C832 C831 1.394 . S
C832 C833 1.516 . S
C833 C832 1.516 . S
C833 C834 1.502 . S
C833 C835 1.561 . S
C833 C836 1.526 . S
C834 H818 0.959 . S
C834 H819 0.959 . S
C834 H820 0.961 . S
C834 C833 1.502 . S
C835 H821 0.960 . S
C835 H822 0.961 . S
C835 H823 0.959 . S
C835 C833 1.561 . S
C836 C833 1.526 . S
C836 C837 1.396 . S
C836 C841 1.390 . S
C837 C831 1.465 . S
C837 C836 1.396 . S
C837 C838 1.399 . S
C838 H824 0.929 . S
C838 C837 1.399 . S
C838 C839 1.385 . S
C839 H825 0.931 . S
C839 C838 1.385 . S
C839 C840 1.389 . S
C840 C839 1.389 . S
C840 C841 1.387 . S
C841 H826 0.930 . S
C841 C836 1.390 . S
C841 C840 1.387 . S
H842 C854 0.930 . S
H843 C856 0.930 . S
H844 C857 0.930 . S
H845 C861 0.959 . S
H846 C861 0.959 . S
H847 C861 0.961 . S
H848 C862 0.960 . S
H849 C862 0.961 . S
H850 C862 0.959 . S
H851 C865 0.929 . S
H852 C866 0.931 . S
H853 C868 0.930 . S
C854 H842 0.930 . S
C854 C855 1.399 . S
C854 C859 1.399 . S
C855 C854 1.399 . S
C855 C856 1.376 . S
C856 H843 0.930 . S
C856 C855 1.376 . S
C856 C857 1.388 . S
C857 H844 0.930 . S
C857 C856 1.388 . S
C857 C858 1.390 . S
C858 C857 1.390 . S
C858 C859 1.394 . S
C858 C864 1.465 . S
C859 C854 1.399 . S
C859 C858 1.394 . S
C859 C860 1.516 . S
C860 C859 1.516 . S
C860 C861 1.502 . S
C860 C862 1.561 . S
C860 C863 1.526 . S
C861 H845 0.959 . S
C861 H846 0.959 . S
C861 H847 0.961 . S
C861 C860 1.502 . S
C862 H848 0.960 . S
C862 H849 0.961 . S
C862 H850 0.959 . S
C862 C860 1.561 . S
C863 C860 1.526 . S
C863 C864 1.396 . S
C863 C868 1.390 . S
C864 C858 1.465 . S
C864 C863 1.396 . S
C864 C865 1.399 . S
C865 H851 0.929 . S
C865 C864 1.399 . S
C865 C866 1.385 . S
C866 H852 0.931 . S
C866 C865 1.385 . S
C866 C867 1.389 . S
C867 C866 1.389 . S
C867 C868 1.387 . S
C868 H853 0.930 . S
C868 C863 1.390 . S
C868 C867 1.387 . S
H869 C881 0.930 . S
H870 C883 0.930 . S
H871 C884 0.930 . S
H872 C888 0.959 . S
H873 C888 0.959 . S
H874 C888 0.961 . S
H875 C889 0.960 . S
H876 C889 0.961 . S
H877 C889 0.959 . S
H878 C892 0.929 . S
H879 C893 0.931 . S
H880 C895 0.930 . S
C881 H869 0.930 . S
C881 C882 1.399 . S
C881 C886 1.399 . S
C882 C881 1.399 . S
C882 C883 1.376 . S
C883 H870 0.930 . S
C883 C882 1.376 . S
C883 C884 1.388 . S
C884 H871 0.930 . S
C884 C883 1.388 . S
C884 C885 1.390 . S
C885 C884 1.390 . S
C885 C886 1.394 . S
C885 C891 1.465 . S
C886 C881 1.399 . S
C886 C885 1.394 . S
C886 C887 1.516 . S
C887 C886 1.516 . S
C887 C888 1.502 . S
C887 C889 1.561 . S
C887 C890 1.526 . S
C888 H872 0.959 . S
C888 H873 0.959 . S
C888 H874 0.961 . S
C888 C887 1.502 . S
C889 H875 0.960 . S
C889 H876 0.961 . S
C889 H877 0.959 . S
C889 C887 1.561 . S
C890 C887 1.526 . S
C890 C891 1.396 . S
C890 C895 1.390 . S
C891 C885 1.465 . S
C891 C890 1.396 . S
C891 C892 1.399 . S
C892 H878 0.929 . S
C892 C891 1.399 . S
C892 C893 1.385 . S
C893 H879 0.931 . S
C893 C892 1.385 . S
C893 C894 1.389 . S
C894 C893 1.389 . S
C894 C895 1.387 . S
C895 H880 0.930 . S
C895 C890 1.390 . S
C895 C894 1.387 . S
H896 C908 0.930 . S
H897 C910 0.930 . S
H898 C911 0.930 . S
H899 C915 0.959 . S
H900 C915 0.959 . S
H901 C915 0.961 . S
H902 C916 0.960 . S
H903 C916 0.961 . S
H904 C916 0.959 . S
H905 C919 0.929 . S
H906 C920 0.931 . S
H907 C922 0.930 . S
C908 H896 0.930 . S
C908 C909 1.399 . S
C908 C913 1.399 . S
C909 C908 1.399 . S
C909 C910 1.376 . S
C910 H897 0.930 . S
C910 C909 1.376 . S
C910 C911 1.388 . S
C911 H898 0.930 . S
C911 C910 1.388 . S
C911 C912 1.390 . S
C912 C911 1.390 . S
C912 C913 1.394 . S
C912 C918 1.465 . S
C913 C908 1.399 . S
C913 C912 1.394 . S
C913 C914 1.516 . S
C914 C913 1.516 . S
C914 C915 1.502 . S
C914 C916 1.561 . S
C914 C917 1.526 . S
C915 H899 0.959 . S
C915 H900 0.959 . S
C915 H901 0.961 . S
C915 C914 1.502 . S
C916 H902 0.960 . S
C916 H903 0.961 . S
C916 H904 0.959 . S
C916 C914 1.561 . S
C917 C914 1.526 . S
C917 C918 1.396 . S
C917 C922 1.390 . S
C918 C912 1.465 . S
C918 C917 1.396 . S
C918 C919 1.399 . S
C919 H905 0.929 . S
C919 C918 1.399 . S
C919 C920 1.385 . S
C920 H906 0.931 . S
C920 C919 1.385 . S
C920 C921 1.389 . S
C921 C920 1.389 . S
C921 C922 1.387 . S
C922 H907 0.930 . S
C922 C917 1.390 . S
C922 C921 1.387 . S
H923 C935 0.930 . S
H924 C937 0.930 . S
H925 C938 0.930 . S
H926 C942 0.959 . S
H927 C942 0.959 . S
H928 C942 0.961 . S
H929 C943 0.960 . S
H930 C943 0.961 . S
H931 C943 0.959 . S
H932 C946 0.929 . S
H933 C947 0.931 . S
H934 C949 0.930 . S
C935 H923 0.930 . S
C935 C936 1.399 . S
C935 C940 1.399 . S
C936 C935 1.399 . S
C936 C937 1.376 . S
C937 H924 0.930 . S
C937 C936 1.376 . S
C937 C938 1.388 . S
C938 H925 0.930 . S
C938 C937 1.388 . S
C938 C939 1.390 . S
C939 C938 1.390 . S
C939 C940 1.394 . S
C939 C945 1.465 . S
C940 C935 1.399 . S
C940 C939 1.394 . S
C940 C941 1.516 . S
C941 C940 1.516 . S
C941 C942 1.502 . S
C941 C943 1.561 . S
C941 C944 1.526 . S
C942 H926 0.959 . S
C942 H927 0.959 . S
C942 H928 0.961 . S
C942 C941 1.502 . S
C943 H929 0.960 . S
C943 H930 0.961 . S
C943 H931 0.959 . S
C943 C941 1.561 . S
C944 C941 1.526 . S
C944 C945 1.396 . S
C944 C949 1.390 . S
C945 C939 1.465 . S
C945 C944 1.396 . S
C945 C946 1.399 . S
C946 H932 0.929 . S
C946 C945 1.399 . S
C946 C947 1.385 . S
C947 H933 0.931 . S
C947 C946 1.385 . S
C947 C948 1.389 . S
C948 C947 1.389 . S
C948 C949 1.387 . S
C949 H934 0.930 . S
C949 C944 1.390 . S
C949 C948 1.387 . S
H950 C962 0.930 . S
H951 C964 0.930 . S
H952 C965 0.930 . S
H953 C969 0.959 . S
H954 C969 0.959 . S
H955 C969 0.961 . S
H956 C970 0.960 . S
H957 C970 0.961 . S
H958 C970 0.959 . S
H959 C973 0.929 . S
H960 C974 0.931 . S
H961 C976 0.930 . S
C962 H950 0.930 . S
C962 C963 1.399 . S
C962 C967 1.399 . S
C963 C962 1.399 . S
C963 C964 1.376 . S
C964 H951 0.930 . S
C964 C963 1.376 . S
C964 C965 1.388 . S
C965 H952 0.930 . S
C965 C964 1.388 . S
C965 C966 1.390 . S
C966 C965 1.390 . S
C966 C967 1.394 . S
C966 C972 1.465 . S
C967 C962 1.399 . S
C967 C966 1.394 . S
C967 C968 1.516 . S
C968 C967 1.516 . S
C968 C969 1.502 . S
C968 C970 1.561 . S
C968 C971 1.526 . S
C969 H953 0.959 . S
C969 H954 0.959 . S
C969 H955 0.961 . S
C969 C968 1.502 . S
C970 H956 0.960 . S
C970 H957 0.961 . S
C970 H958 0.959 . S
C970 C968 1.561 . S
C971 C968 1.526 . S
C971 C972 1.396 . S
C971 C976 1.390 . S
C972 C966 1.465 . S
C972 C971 1.396 . S
C972 C973 1.399 . S
C973 H959 0.929 . S
C973 C972 1.399 . S
C973 C974 1.385 . S
C974 H960 0.931 . S
C974 C973 1.385 . S
C974 C975 1.389 . S
C975 C974 1.389 . S
C975 C976 1.387 . S
C976 H961 0.930 . S
C976 C971 1.390 . S
C976 C975 1.387 . S
H977 C989 0.930 . S
H978 C991 0.930 . S
H979 C992 0.930 . S
H980 C996 0.959 . S
H981 C996 0.959 . S
H982 C996 0.961 . S
H983 C997 0.960 . S
H984 C997 0.961 . S
H985 C997 0.959 . S
H986 C1000 0.929 . S
H987 C1001 0.931 . S
H988 C1003 0.930 . S
C989 H977 0.930 . S
C989 C990 1.399 . S
C989 C994 1.399 . S
C990 C989 1.399 . S
C990 C991 1.376 . S
C991 H978 0.930 . S
C991 C990 1.376 . S
C991 C992 1.388 . S
C992 H979 0.930 . S
C992 C991 1.388 . S
C992 C993 1.390 . S
C993 C992 1.390 . S
C993 C994 1.394 . S
C993 C999 1.465 . S
C994 C989 1.399 . S
C994 C993 1.394 . S
C994 C995 1.516 . S
C995 C994 1.516 . S
C995 C996 1.502 . S
C995 C997 1.561 . S
C995 C998 1.526 . S
C996 H980 0.959 . S
C996 H981 0.959 . S
C996 H982 0.961 . S
C996 C995 1.502 . S
C997 H983 0.960 . S
C997 H984 0.961 . S
C997 H985 0.959 . S
C997 C995 1.561 . S
C998 C995 1.526 . S
C998 C999 1.396 . S
C998 C1003 1.390 . S
C999 C993 1.465 . S
C999 C998 1.396 . S
C999 C1000 1.399 . S
C1000 H986 0.929 . S
C1000 C999 1.399 . S
C1000 C1001 1.385 . S
C1001 H987 0.931 . S
C1001 C1000 1.385 . S
C1001 C1002 1.389 . S
C1002 C1001 1.389 . S
C1002 C1003 1.387 . S
C1003 H988 0.930 . S
C1003 C998 1.390 . S
C1003 C1002 1.387 . S
H1004 C1016 0.930 . S
H1005 C1018 0.930 . S
H1006 C1019 0.930 . S
H1007 C1023 0.959 . S
H1008 C1023 0.959 . S
H1009 C1023 0.961 . S
H1010 C1024 0.960 . S
H1011 C1024 0.961 . S
H1012 C1024 0.959 . S
H1013 C1027 0.929 . S
H1014 C1028 0.931 . S
H1015 C1030 0.930 . S
C1016 H1004 0.930 . S
C1016 C1017 1.399 . S
C1016 C1021 1.399 . S
C1017 C1016 1.399 . S
C1017 C1018 1.376 . S
C1018 H1005 0.930 . S
C1018 C1017 1.376 . S
C1018 C1019 1.388 . S
C1019 H1006 0.930 . S
C1019 C1018 1.388 . S
C1019 C1020 1.390 . S
C1020 C1019 1.390 . S
C1020 C1021 1.394 . S
C1020 C1026 1.465 . S
C1021 C1016 1.399 . S
C1021 C1020 1.394 . S
C1021 C1022 1.516 . S
C1022 C1021 1.516 . S
C1022 C1023 1.502 . S
C1022 C1024 1.561 . S
C1022 C1025 1.526 . S
C1023 H1007 0.959 . S
C1023 H1008 0.959 . S
C1023 H1009 0.961 . S
C1023 C1022 1.502 . S
C1024 H1010 0.960 . S
C1024 H1011 0.961 . S
C1024 H1012 0.959 . S
C1024 C1022 1.561 . S
C1025 C1022 1.526 . S
C1025 C1026 1.396 . S
C1025 C1030 1.390 . S
C1026 C1020 1.465 . S
C1026 C1025 1.396 . S
C1026 C1027 1.399 . S
C1027 H1013 0.929 . S
C1027 C1026 1.399 . S
C1027 C1028 1.385 . S
C1028 H1014 0.931 . S
C1028 C1027 1.385 . S
C1028 C1029 1.389 . S
C1029 C1028 1.389 . S
C1029 C1030 1.387 . S
C1030 H1015 0.930 . S
C1030 C1025 1.390 . S
C1030 C1029 1.387 . S
H1031 C1043 0.930 . S
H1032 C1045 0.930 . S
H1033 C1046 0.930 . S
H1034 C1050 0.958 . S
H1035 C1050 0.929 1_655 S
H1036 C1050 0.947 1_655 S
H1037 C1051 0.960 . S
H1038 C1051 0.961 . S
H1039 C1051 0.959 . S
H1040 C1054 0.929 . S
H1041 C1055 0.931 . S
H1042 C1057 0.930 . S
C1043 H1031 0.930 . S
C1043 C1044 1.399 . S
C1043 C1048 1.399 . S
C1044 C1043 1.399 . S
C1044 C1045 1.376 . S
C1045 H1032 0.930 . S
C1045 C1044 1.376 . S
C1045 C1046 1.388 . S
C1046 H1033 0.930 . S
C1046 C1045 1.388 . S
C1046 C1047 1.390 . S
C1047 C1046 1.390 . S
C1047 C1048 1.394 . S
C1047 C1053 1.465 . S
C1048 C1043 1.399 . S
C1048 C1047 1.394 . S
C1048 C1049 1.516 . S
C1049 C1048 1.516 . S
C1049 C1050 1.554 . S
C1049 C1051 1.561 . S
C1049 C1052 1.526 . S
C1050 H1034 0.958 . S
C1050 H1035 0.929 1_455 S
C1050 H1036 0.947 1_455 S
C1050 C1049 1.554 . S
C1051 H1037 0.960 . S
C1051 H1038 0.961 . S
C1051 H1039 0.959 . S
C1051 C1049 1.561 . S
C1052 C1049 1.526 . S
C1052 C1053 1.396 . S
C1052 C1057 1.390 . S
C1053 C1047 1.465 . S
C1053 C1052 1.396 . S
C1053 C1054 1.399 . S
C1054 H1040 0.929 . S
C1054 C1053 1.399 . S
C1054 C1055 1.385 . S
C1055 H1041 0.931 . S
C1055 C1054 1.385 . S
C1055 C1056 1.389 . S
C1056 C1055 1.389 . S
C1056 C1057 1.387 . S
C1057 H1042 0.930 . S
C1057 C1052 1.390 . S
C1057 C1056 1.387 . S
H1058 C1070 0.930 . S
H1059 C1072 0.930 . S
H1060 C1073 0.930 . S
H1061 C1077 0.959 . S
H1062 C1077 0.959 . S
H1063 C1077 0.961 . S
H1064 C1078 0.960 . S
H1065 C1078 0.961 . S
H1066 C1078 0.959 . S
H1067 C1081 0.929 . S
H1068 C1082 0.931 . S
H1069 C1084 0.930 . S
C1070 H1058 0.930 . S
C1070 C1071 1.399 . S
C1070 C1075 1.399 . S
C1071 C1070 1.399 . S
C1071 C1072 1.376 . S
C1072 H1059 0.930 . S
C1072 C1071 1.376 . S
C1072 C1073 1.388 . S
C1073 H1060 0.930 . S
C1073 C1072 1.388 . S
C1073 C1074 1.390 . S
C1074 C1073 1.390 . S
C1074 C1075 1.394 . S
C1074 C1080 1.465 . S
C1075 C1070 1.399 . S
C1075 C1074 1.394 . S
C1075 C1076 1.516 . S
C1076 C1075 1.516 . S
C1076 C1077 1.502 . S
C1076 C1078 1.561 . S
C1076 C1079 1.526 . S
C1077 H1061 0.959 . S
C1077 H1062 0.959 . S
C1077 H1063 0.961 . S
C1077 C1076 1.502 . S
C1078 H1064 0.960 . S
C1078 H1065 0.961 . S
C1078 H1066 0.959 . S
C1078 C1076 1.561 . S
C1079 C1076 1.526 . S
C1079 C1080 1.396 . S
C1079 C1084 1.390 . S
C1080 C1074 1.465 . S
C1080 C1079 1.396 . S
C1080 C1081 1.399 . S
C1081 H1067 0.929 . S
C1081 C1080 1.399 . S
C1081 C1082 1.385 . S
C1082 H1068 0.931 . S
C1082 C1081 1.385 . S
C1082 C1083 1.389 . S
C1083 C1082 1.389 . S
C1083 C1084 1.387 . S
C1084 H1069 0.930 . S
C1084 C1079 1.390 . S
C1084 C1083 1.387 . S
H1085 C1097 0.930 . S
H1086 C1099 0.930 . S
H1087 C1100 0.930 . S
H1088 C1104 0.959 . S
H1089 C1104 0.959 . S
H1090 C1104 0.961 . S
H1091 C1105 0.960 . S
H1092 C1105 0.961 . S
H1093 C1105 0.959 . S
H1094 C1108 0.929 . S
H1095 C1109 0.931 . S
H1096 C1111 0.930 . S
C1097 H1085 0.930 . S
C1097 C1098 1.399 . S
C1097 C1102 1.399 . S
C1098 C1097 1.399 . S
C1098 C1099 1.376 . S
C1099 H1086 0.930 . S
C1099 C1098 1.376 . S
C1099 C1100 1.388 . S
C1100 H1087 0.930 . S
C1100 C1099 1.388 . S
C1100 C1101 1.390 . S
C1101 C1100 1.390 . S
C1101 C1102 1.394 . S
C1101 C1107 1.465 . S
C1102 C1097 1.399 . S
C1102 C1101 1.394 . S
C1102 C1103 1.516 . S
C1103 C1102 1.516 . S
C1103 C1104 1.502 . S
C1103 C1105 1.561 . S
C1103 C1106 1.526 . S
C1104 H1088 0.959 . S
C1104 H1089 0.959 . S
C1104 H1090 0.961 . S
C1104 C1103 1.502 . S
C1105 H1091 0.960 . S
C1105 H1092 0.961 . S
C1105 H1093 0.959 . S
C1105 C1103 1.561 . S
C1106 C1103 1.526 . S
C1106 C1107 1.396 . S
C1106 C1111 1.390 . S
C1107 C1101 1.465 . S
C1107 C1106 1.396 . S
C1107 C1108 1.399 . S
C1108 H1094 0.929 . S
C1108 C1107 1.399 . S
C1108 C1109 1.385 . S
C1109 H1095 0.931 . S
C1109 C1108 1.385 . S
C1109 C1110 1.389 . S
C1110 C1109 1.389 . S
C1110 C1111 1.387 . S
C1111 H1096 0.930 . S
C1111 C1106 1.390 . S
C1111 C1110 1.387 . S
H1112 C1124 0.930 . S
H1113 C1126 0.930 . S
H1114 C1127 0.930 . S
H1115 C1131 0.959 . S
H1116 C1131 0.959 . S
H1117 C1131 0.961 . S
H1118 C1132 0.960 . S
H1119 C1132 0.961 . S
H1120 C1132 0.959 . S
H1121 C1135 0.929 . S
H1122 C1136 0.912 1_545 S
H1123 C1138 0.930 . S
C1124 H1112 0.930 . S
C1124 C1125 1.399 . S
C1124 C1129 1.399 . S
C1125 C1124 1.399 . S
C1125 C1126 1.376 . S
C1126 H1113 0.930 . S
C1126 C1125 1.376 . S
C1126 C1127 1.388 . S
C1127 H1114 0.930 . S
C1127 C1126 1.388 . S
C1127 C1128 1.390 . S
C1128 C1127 1.390 . S
C1128 C1129 1.394 . S
C1128 C1134 1.465 . S
C1129 C1124 1.399 . S
C1129 C1128 1.394 . S
C1129 C1130 1.516 . S
C1130 C1129 1.516 . S
C1130 C1131 1.502 . S
C1130 C1132 1.561 . S
C1130 C1133 1.526 . S
C1131 H1115 0.959 . S
C1131 H1116 0.959 . S
C1131 H1117 0.961 . S
C1131 C1130 1.502 . S
C1132 H1118 0.960 . S
C1132 H1119 0.961 . S
C1132 H1120 0.959 . S
C1132 C1130 1.561 . S
C1133 C1130 1.526 . S
C1133 C1134 1.396 . S
C1133 C1138 1.390 . S
C1134 C1128 1.465 . S
C1134 C1133 1.396 . S
C1134 C1135 1.399 . S
C1135 H1121 0.929 . S
C1135 C1134 1.399 . S
C1135 C1136 1.401 . S
C1136 H1122 0.912 1_565 S
C1136 C1135 1.401 . S
C1136 C1137 1.392 . S
C1137 C1136 1.392 . S
C1137 C1138 1.387 . S
C1138 H1123 0.930 . S
C1138 C1133 1.390 . S
C1138 C1137 1.387 . S
H1139 C1151 0.930 . S
H1140 C1153 0.930 . S
H1141 C1154 0.930 . S
H1142 C1158 0.959 . S
H1143 C1158 0.959 . S
H1144 C1158 0.961 . S
H1145 C1159 0.960 . S
H1146 C1159 0.961 . S
H1147 C1159 0.959 . S
H1148 C1162 0.929 . S
H1149 C1163 0.931 . S
H1150 C1165 0.930 . S
C1151 H1139 0.930 . S
C1151 C1152 1.399 . S
C1151 C1156 1.399 . S
C1152 C1151 1.399 . S
C1152 C1153 1.376 . S
C1153 H1140 0.930 . S
C1153 C1152 1.376 . S
C1153 C1154 1.388 . S
C1154 H1141 0.930 . S
C1154 C1153 1.388 . S
C1154 C1155 1.390 . S
C1155 C1154 1.390 . S
C1155 C1156 1.394 . S
C1155 C1161 1.465 . S
C1156 C1151 1.399 . S
C1156 C1155 1.394 . S
C1156 C1157 1.516 . S
C1157 C1156 1.516 . S
C1157 C1158 1.502 . S
C1157 C1159 1.561 . S
C1157 C1160 1.526 . S
C1158 H1142 0.959 . S
C1158 H1143 0.959 . S
C1158 H1144 0.961 . S
C1158 C1157 1.502 . S
C1159 H1145 0.960 . S
C1159 H1146 0.961 . S
C1159 H1147 0.959 . S
C1159 C1157 1.561 . S
C1160 C1157 1.526 . S
C1160 C1161 1.396 . S
C1160 C1165 1.390 . S
C1161 C1155 1.465 . S
C1161 C1160 1.396 . S
C1161 C1162 1.399 . S
C1162 H1148 0.929 . S
C1162 C1161 1.399 . S
C1162 C1163 1.385 . S
C1163 H1149 0.931 . S
C1163 C1162 1.385 . S
C1163 C1164 1.389 . S
C1164 C1163 1.389 . S
C1164 C1165 1.387 . S
C1165 H1150 0.930 . S
C1165 C1160 1.390 . S
C1165 C1164 1.387 . S
H1166 C1178 0.930 . S
H1167 C1180 0.930 . S
H1168 C1181 0.930 . S
H1169 C1185 0.959 . S
H1170 C1185 0.959 . S
H1171 C1185 0.980 . S
H1172 C1186 0.960 . S
H1173 C1186 0.961 . S
H1174 C1186 0.959 1_565 S
H1175 C1189 0.929 . S
H1176 C1190 0.931 . S
H1177 C1192 0.930 . S
C1178 H1166 0.930 . S
C1178 C1179 1.399 . S
C1178 C1183 1.399 . S
C1179 C1178 1.399 . S
C1179 C1180 1.376 . S
C1180 H1167 0.930 . S
C1180 C1179 1.376 . S
C1180 C1181 1.388 1_545 S
C1181 H1168 0.930 . S
C1181 C1180 1.388 1_565 S
C1181 C1182 1.390 . S
C1182 C1181 1.390 . S
C1182 C1183 1.394 1_565 S
C1182 C1188 1.465 . S
C1183 C1178 1.399 . S
C1183 C1182 1.394 1_545 S
C1183 C1184 1.516 . S
C1184 C1183 1.516 . S
C1184 C1185 1.502 1_556 S
C1184 C1186 1.561 . S
C1184 C1187 1.526 1_545 S
C1185 H1169 0.959 . S
C1185 H1170 0.959 . S
C1185 H1171 0.980 . S
C1185 C1184 1.502 1_554 S
C1186 H1172 0.960 . S
C1186 H1173 0.961 . S
C1186 H1174 0.959 1_545 S
C1186 C1184 1.561 . S
C1187 C1184 1.526 1_565 S
C1187 C1188 1.396 . S
C1187 C1192 1.390 1_556 S
C1188 C1182 1.465 . S
C1188 C1187 1.396 . S
C1188 C1189 1.399 . S
C1189 H1175 0.929 . S
C1189 C1188 1.399 . S
C1189 C1190 1.385 1_556 S
C1190 H1176 0.931 . S
C1190 C1189 1.385 1_554 S
C1190 C1191 1.389 . S
C1191 C1190 1.389 . S
C1191 C1192 1.387 . S
C1192 H1177 0.930 . S
C1192 C1187 1.390 1_554 S
C1192 C1191 1.387 . S
H1193 C1205 0.930 . S
H1194 C1207 0.930 . S
H1195 C1208 0.930 . S
H1196 C1212 0.959 . S
H1197 C1212 0.959 . S
H1198 C1212 0.961 . S
H1199 C1213 0.960 . S
H1200 C1213 0.961 . S
H1201 C1213 0.959 . S
H1202 C1216 0.929 . S
H1203 C1217 0.931 . S
H1204 C1219 0.930 . S
C1205 H1193 0.930 . S
C1205 C1206 1.399 . S
C1205 C1210 1.399 . S
C1206 C1205 1.399 . S
C1206 C1207 1.376 . S
C1207 H1194 0.930 . S
C1207 C1206 1.376 . S
C1207 C1208 1.388 . S
C1208 H1195 0.930 . S
C1208 C1207 1.388 . S
C1208 C1209 1.390 . S
C1209 C1208 1.390 . S
C1209 C1210 1.394 . S
C1209 C1215 1.465 . S
C1210 C1205 1.399 . S
C1210 C1209 1.394 . S
C1210 C1211 1.516 . S
C1211 C1210 1.516 . S
C1211 C1212 1.502 . S
C1211 C1213 1.561 . S
C1211 C1214 1.526 . S
C1212 H1196 0.959 . S
C1212 H1197 0.959 . S
C1212 H1198 0.961 . S
C1212 C1211 1.502 . S
C1213 H1199 0.960 . S
C1213 H1200 0.961 . S
C1213 H1201 0.959 . S
C1213 C1211 1.561 . S
C1214 C1211 1.526 . S
C1214 C1215 1.396 . S
C1214 C1219 1.390 . S
C1215 C1209 1.465 . S
C1215 C1214 1.396 . S
C1215 C1216 1.399 . S
C1216 H1202 0.929 . S
C1216 C1215 1.399 . S
C1216 C1217 1.385 . S
C1217 H1203 0.931 . S
C1217 C1216 1.385 . S
C1217 C1218 1.389 . S
C1218 C1217 1.389 . S
C1218 C1219 1.387 . S
C1219 H1204 0.930 . S
C1219 C1214 1.390 . S
C1219 C1218 1.387 . S
H1220 C1232 0.930 . S
H1221 C1234 0.930 . S
H1222 C1235 0.930 . S
H1223 C1239 0.959 . S
H1224 C1239 0.959 . S
H1225 C1239 0.961 . S
H1226 C1240 0.960 . S
H1227 C1240 0.961 . S
H1228 C1240 0.959 . S
H1229 C1243 0.929 . S
H1230 C1244 0.931 . S
H1231 C1246 0.930 . S
C1232 H1220 0.930 . S
C1232 C1233 1.399 . S
C1232 C1237 1.399 . S
C1233 C1232 1.399 . S
C1233 C1234 1.376 . S
C1234 H1221 0.930 . S
C1234 C1233 1.376 . S
C1234 C1235 1.388 . S
C1235 H1222 0.930 . S
C1235 C1234 1.388 . S
C1235 C1236 1.390 . S
C1236 C1235 1.390 . S
C1236 C1237 1.394 . S
C1236 C1242 1.465 . S
C1237 C1232 1.399 . S
C1237 C1236 1.394 . S
C1237 C1238 1.516 . S
C1238 C1237 1.516 . S
C1238 C1239 1.502 . S
C1238 C1240 1.561 . S
C1238 C1241 1.526 . S
C1239 H1223 0.959 . S
C1239 H1224 0.959 . S
C1239 H1225 0.961 . S
C1239 C1238 1.502 . S
C1240 H1226 0.960 . S
C1240 H1227 0.961 . S
C1240 H1228 0.959 . S
C1240 C1238 1.561 . S
C1241 C1238 1.526 . S
C1241 C1242 1.396 . S
C1241 C1246 1.390 . S
C1242 C1236 1.465 . S
C1242 C1241 1.396 . S
C1242 C1243 1.399 . S
C1243 H1229 0.929 . S
C1243 C1242 1.399 . S
C1243 C1244 1.385 . S
C1244 H1230 0.931 . S
C1244 C1243 1.385 . S
C1244 C1245 1.389 . S
C1245 C1244 1.389 . S
C1245 C1246 1.387 . S
C1246 H1231 0.930 . S
C1246 C1241 1.390 . S
C1246 C1245 1.387 . S
H1247 C1259 0.930 . S
H1248 C1261 0.930 . S
H1249 C1262 0.930 . S
H1250 C1266 0.959 . S
H1251 C1266 0.959 . S
H1252 C1266 0.961 . S
H1253 C1267 0.960 . S
H1254 C1267 0.961 . S
H1255 C1267 0.959 . S
H1256 C1270 0.929 . S
H1257 C1271 0.931 . S
H1258 C1273 0.930 . S
C1259 H1247 0.930 . S
C1259 C1260 1.399 . S
C1259 C1264 1.399 . S
C1260 C1259 1.399 . S
C1260 C1261 1.376 . S
C1261 H1248 0.930 . S
C1261 C1260 1.376 . S
C1261 C1262 1.388 . S
C1262 H1249 0.930 . S
C1262 C1261 1.388 . S
C1262 C1263 1.390 . S
C1263 C1262 1.390 . S
C1263 C1264 1.394 . S
C1263 C1269 1.465 . S
C1264 C1259 1.399 . S
C1264 C1263 1.394 . S
C1264 C1265 1.516 . S
C1265 C1264 1.516 . S
C1265 C1266 1.502 . S
C1265 C1267 1.561 . S
C1265 C1268 1.526 . S
C1266 H1250 0.959 . S
C1266 H1251 0.959 . S
C1266 H1252 0.961 . S
C1266 C1265 1.502 . S
C1267 H1253 0.960 . S
C1267 H1254 0.961 . S
C1267 H1255 0.959 . S
C1267 C1265 1.561 . S
C1268 C1265 1.526 . S
C1268 C1269 1.396 . S
C1268 C1273 1.390 . S
C1269 C1263 1.465 . S
C1269 C1268 1.396 . S
C1269 C1270 1.399 . S
C1270 H1256 0.929 . S
C1270 C1269 1.399 . S
C1270 C1271 1.385 . S
C1271 H1257 0.931 . S
C1271 C1270 1.385 . S
C1271 C1272 1.389 . S
C1272 C1271 1.389 . S
C1272 C1273 1.387 . S
C1273 H1258 0.930 . S
C1273 C1268 1.390 . S
C1273 C1272 1.387 . S
H1274 C1286 0.930 . S
H1275 C1288 0.930 . S
H1276 C1289 0.930 . S
H1277 C1293 0.959 . S
H1278 C1293 0.959 . S
H1279 C1293 0.961 . S
H1280 C1294 0.960 . S
H1281 C1294 0.961 . S
H1282 C1294 0.959 . S
H1283 C1297 0.929 . S
H1284 C1298 0.931 . S
H1285 C1300 0.930 . S
C1286 H1274 0.930 . S
C1286 C1287 1.399 . S
C1286 C1291 1.399 1_565 S
C1287 C1286 1.399 . S
C1287 C1288 1.376 . S
C1288 H1275 0.930 . S
C1288 C1287 1.376 . S
C1288 C1289 1.388 1_565 S
C1289 H1276 0.930 . S
C1289 C1288 1.388 1_545 S
C1289 C1290 1.390 . S
C1290 C1289 1.390 . S
C1290 C1291 1.394 . S
C1290 C1296 1.465 . S
C1291 C1286 1.399 1_545 S
C1291 C1290 1.394 . S
C1291 C1292 1.516 . S
C1292 C1291 1.516 . S
C1292 C1293 1.502 . S
C1292 C1294 1.561 . S
C1292 C1295 1.526 . S
C1293 H1277 0.959 . S
C1293 H1278 0.959 . S
C1293 H1279 0.961 . S
C1293 C1292 1.502 . S
C1294 H1280 0.960 . S
C1294 H1281 0.961 . S
C1294 H1282 0.959 . S
C1294 C1292 1.561 . S
C1295 C1292 1.526 . S
C1295 C1296 1.396 . S
C1295 C1300 1.390 . S
C1296 C1290 1.465 . S
C1296 C1295 1.396 . S
C1296 C1297 1.399 . S
C1297 H1283 0.929 . S
C1297 C1296 1.399 . S
C1297 C1298 1.385 . S
C1298 H1284 0.931 . S
C1298 C1297 1.385 . S
C1298 C1299 1.389 . S
C1299 C1298 1.389 . S
C1299 C1300 1.387 . S
C1300 H1285 0.930 . S
C1300 C1295 1.390 . S
C1300 C1299 1.387 . S
H1301 C1313 0.930 . S
H1302 C1315 0.930 . S
H1303 C1316 0.930 . S
H1304 C1320 0.959 . S
H1305 C1320 0.959 . S
H1306 C1320 0.961 . S
H1307 C1321 0.960 . S
H1308 C1321 0.961 . S
H1309 C1321 0.959 . S
H1310 C1324 0.929 . S
H1311 C1325 0.931 . S
H1312 C1327 0.930 . S
C1313 H1301 0.930 . S
C1313 C1314 1.399 . S
C1313 C1318 1.399 . S
C1314 C1313 1.399 . S
C1314 C1315 1.376 . S
C1315 H1302 0.930 . S
C1315 C1314 1.376 . S
C1315 C1316 1.388 . S
C1316 H1303 0.930 . S
C1316 C1315 1.388 . S
C1316 C1317 1.390 . S
C1317 C1316 1.390 . S
C1317 C1318 1.394 . S
C1317 C1323 1.465 . S
C1318 C1313 1.399 . S
C1318 C1317 1.394 . S
C1318 C1319 1.516 . S
C1319 C1318 1.516 . S
C1319 C1320 1.502 . S
C1319 C1321 1.561 . S
C1319 C1322 1.526 . S
C1320 H1304 0.959 . S
C1320 H1305 0.959 . S
C1320 H1306 0.961 . S
C1320 C1319 1.502 . S
C1321 H1307 0.960 . S
C1321 H1308 0.961 . S
C1321 H1309 0.959 . S
C1321 C1319 1.561 . S
C1322 C1319 1.526 . S
C1322 C1323 1.396 . S
C1322 C1327 1.390 . S
C1323 C1317 1.465 . S
C1323 C1322 1.396 . S
C1323 C1324 1.399 . S
C1324 H1310 0.929 . S
C1324 C1323 1.399 . S
C1324 C1325 1.385 . S
C1325 H1311 0.931 . S
C1325 C1324 1.385 . S
C1325 C1326 1.389 . S
C1326 C1325 1.389 . S
C1326 C1327 1.387 . S
C1327 H1312 0.930 . S
C1327 C1322 1.390 . S
C1327 C1326 1.387 . S
H1328 C1340 0.930 . S
H1329 C1342 0.930 . S
H1330 C1343 0.930 . S
H1331 C1347 0.959 . S
H1332 C1347 0.959 . S
H1333 C1347 0.961 . S
H1334 C1348 0.960 . S
H1335 C1348 0.961 . S
H1336 C1348 0.959 . S
H1337 C1351 0.929 . S
H1338 C1352 0.931 . S
H1339 C1354 0.930 . S
C1340 H1328 0.930 . S
C1340 C1341 1.399 . S
C1340 C1345 1.399 . S
C1341 C1340 1.399 . S
C1341 C1342 1.376 . S
C1342 H1329 0.930 . S
C1342 C1341 1.376 . S
C1342 C1343 1.388 . S
C1343 H1330 0.930 . S
C1343 C1342 1.388 . S
C1343 C1344 1.390 . S
C1344 C1343 1.390 . S
C1344 C1345 1.394 . S
C1344 C1350 1.465 . S
C1345 C1340 1.399 . S
C1345 C1344 1.394 . S
C1345 C1346 1.516 . S
C1346 C1345 1.516 . S
C1346 C1347 1.502 . S
C1346 C1348 1.561 . S
C1346 C1349 1.526 . S
C1347 H1331 0.959 . S
C1347 H1332 0.959 . S
C1347 H1333 0.961 . S
C1347 C1346 1.502 . S
C1348 H1334 0.960 . S
C1348 H1335 0.961 . S
C1348 H1336 0.959 . S
C1348 C1346 1.561 . S
C1349 C1346 1.526 . S
C1349 C1350 1.396 . S
C1349 C1354 1.390 . S
C1350 C1344 1.465 . S
C1350 C1349 1.396 . S
C1350 C1351 1.399 . S
C1351 H1337 0.929 . S
C1351 C1350 1.399 . S
C1351 C1352 1.385 . S
C1352 H1338 0.931 . S
C1352 C1351 1.385 . S
C1352 C1353 1.389 . S
C1353 C1352 1.389 . S
C1353 C1354 1.387 . S
C1354 H1339 0.930 . S
C1354 C1349 1.390 . S
C1354 C1353 1.387 . S
H1355 C1367 0.930 . S
H1356 C1369 0.930 . S
H1357 C1370 0.930 . S
H1358 C1374 0.959 . S
H1359 C1374 0.959 . S
H1360 C1374 0.961 . S
H1361 C1375 0.960 . S
H1362 C1375 0.961 1_565 S
H1363 C1375 0.959 . S
H1364 C1378 0.929 . S
H1365 C1379 0.931 . S
H1366 C1381 0.930 . S
C1367 H1355 0.930 . S
C1367 C1368 1.399 . S
C1367 C1372 1.399 . S
C1368 C1367 1.399 . S
C1368 C1369 1.376 . S
C1369 H1356 0.930 . S
C1369 C1368 1.376 . S
C1369 C1370 1.388 . S
C1370 H1357 0.930 . S
C1370 C1369 1.388 . S
C1370 C1371 1.390 . S
C1371 C1370 1.390 . S
C1371 C1372 1.394 . S
C1371 C1377 1.465 . S
C1372 C1367 1.399 . S
C1372 C1371 1.394 . S
C1372 C1373 1.516 . S
C1373 C1372 1.516 . S
C1373 C1374 1.502 . S
C1373 C1375 1.561 . S
C1373 C1376 1.526 . S
C1374 H1358 0.959 . S
C1374 H1359 0.959 . S
C1374 H1360 0.961 . S
C1374 C1373 1.502 . S
C1375 H1361 0.960 . S
C1375 H1362 0.961 1_545 S
C1375 H1363 0.959 . S
C1375 C1373 1.561 . S
C1376 C1373 1.526 . S
C1376 C1377 1.396 . S
C1376 C1381 1.390 . S
C1377 C1371 1.465 . S
C1377 C1376 1.396 . S
C1377 C1378 1.399 . S
C1378 H1364 0.929 . S
C1378 C1377 1.399 . S
C1378 C1379 1.385 . S
C1379 H1365 0.931 . S
C1379 C1378 1.385 . S
C1379 C1380 1.389 . S
C1380 C1379 1.389 . S
C1380 C1381 1.387 . S
C1381 H1366 0.930 . S
C1381 C1376 1.390 . S
C1381 C1380 1.387 . S
H1382 C1394 0.930 . S
H1383 C1396 0.930 . S
H1384 C1397 0.930 . S
H1385 C1401 0.959 . S
H1386 C1401 0.959 . S
H1387 C1401 0.961 . S
H1388 C1402 0.960 . S
H1389 C1402 0.961 . S
H1390 C1402 0.959 . S
H1391 C1405 0.929 . S
H1392 C1406 0.931 . S
H1393 C1408 0.930 . S
C1394 H1382 0.930 . S
C1394 C1395 1.399 . S
C1394 C1399 1.399 . S
C1395 C1394 1.399 . S
C1395 C1396 1.376 . S
C1396 H1383 0.930 . S
C1396 C1395 1.376 . S
C1396 C1397 1.388 . S
C1397 H1384 0.930 . S
C1397 C1396 1.388 . S
C1397 C1398 1.390 . S
C1398 C1397 1.390 . S
C1398 C1399 1.394 . S
C1398 C1404 1.465 . S
C1399 C1394 1.399 . S
C1399 C1398 1.394 . S
C1399 C1400 1.516 . S
C1400 C1399 1.516 . S
C1400 C1401 1.502 . S
C1400 C1402 1.561 . S
C1400 C1403 1.526 . S
C1401 H1385 0.959 . S
C1401 H1386 0.959 . S
C1401 H1387 0.961 . S
C1401 C1400 1.502 . S
C1402 H1388 0.960 . S
C1402 H1389 0.961 . S
C1402 H1390 0.959 . S
C1402 C1400 1.561 . S
C1403 C1400 1.526 . S
C1403 C1404 1.396 . S
C1403 C1408 1.390 . S
C1404 C1398 1.465 . S
C1404 C1403 1.396 . S
C1404 C1405 1.399 . S
C1405 H1391 0.929 . S
C1405 C1404 1.399 . S
C1405 C1406 1.385 . S
C1406 H1392 0.931 . S
C1406 C1405 1.385 . S
C1406 C1407 1.389 . S
C1407 C1406 1.389 . S
C1407 C1408 1.387 . S
C1408 H1393 0.930 . S
C1408 C1403 1.390 . S
C1408 C1407 1.387 . S
H1409 C1421 0.930 . S
H1410 C1423 0.930 . S
H1411 C1424 0.930 . S
H1412 C1428 0.959 . S
H1413 C1428 0.959 . S
H1414 C1428 0.961 . S
H1415 C1429 0.960 . S
H1416 C1429 0.961 . S
H1417 C1429 0.959 . S
H1418 C1432 0.929 . S
H1419 C1433 0.931 . S
H1420 C1435 0.930 . S
C1421 H1409 0.930 . S
C1421 C1422 1.399 . S
C1421 C1426 1.399 . S
C1422 C1421 1.399 . S
C1422 C1423 1.376 . S
C1423 H1410 0.930 . S
C1423 C1422 1.376 . S
C1423 C1424 1.388 . S
C1424 H1411 0.930 . S
C1424 C1423 1.388 . S
C1424 C1425 1.390 . S
C1425 C1424 1.390 . S
C1425 C1426 1.394 . S
C1425 C1431 1.465 . S
C1426 C1421 1.399 . S
C1426 C1425 1.394 . S
C1426 C1427 1.516 . S
C1427 C1426 1.516 . S
C1427 C1428 1.502 . S
C1427 C1429 1.561 . S
C1427 C1430 1.526 . S
C1428 H1412 0.959 . S
C1428 H1413 0.959 . S
C1428 H1414 0.961 . S
C1428 C1427 1.502 . S
C1429 H1415 0.960 . S
C1429 H1416 0.961 . S
C1429 H1417 0.959 . S
C1429 C1427 1.561 . S
C1430 C1427 1.526 . S
C1430 C1431 1.396 . S
C1430 C1435 1.390 . S
C1431 C1425 1.465 . S
C1431 C1430 1.396 . S
C1431 C1432 1.399 . S
C1432 H1418 0.929 . S
C1432 C1431 1.399 . S
C1432 C1433 1.385 . S
C1433 H1419 0.931 . S
C1433 C1432 1.385 . S
C1433 C1434 1.389 . S
C1434 C1433 1.389 . S
C1434 C1435 1.387 . S
C1435 H1420 0.930 . S
C1435 C1430 1.390 . S
C1435 C1434 1.387 . S
H1436 C1448 0.930 . S
H1437 C1450 0.930 . S
H1438 C1451 0.930 . S
H1439 C1455 0.959 . S
H1440 C1455 0.959 . S
H1441 C1455 0.961 . S
H1442 C1456 0.960 . S
H1443 C1456 0.961 . S
H1444 C1456 0.959 . S
H1445 C1459 0.929 . S
H1446 C1460 0.931 . S
H1447 C1462 0.930 . S
C1448 H1436 0.930 . S
C1448 C1449 1.399 . S
C1448 C1453 1.399 . S
C1449 C1448 1.399 . S
C1449 C1450 1.376 . S
C1450 H1437 0.930 . S
C1450 C1449 1.376 . S
C1450 C1451 1.388 . S
C1451 H1438 0.930 . S
C1451 C1450 1.388 . S
C1451 C1452 1.390 . S
C1452 C1451 1.390 . S
C1452 C1453 1.394 . S
C1452 C1458 1.465 . S
C1453 C1448 1.399 . S
C1453 C1452 1.394 . S
C1453 C1454 1.516 . S
C1454 C1453 1.516 . S
C1454 C1455 1.502 . S
C1454 C1456 1.561 . S
C1454 C1457 1.526 . S
C1455 H1439 0.959 . S
C1455 H1440 0.959 . S
C1455 H1441 0.961 . S
C1455 C1454 1.502 . S
C1456 H1442 0.960 . S
C1456 H1443 0.961 . S
C1456 H1444 0.959 . S
C1456 C1454 1.561 . S
C1457 C1454 1.526 . S
C1457 C1458 1.396 . S
C1457 C1462 1.390 . S
C1458 C1452 1.465 . S
C1458 C1457 1.396 . S
C1458 C1459 1.399 . S
C1459 H1445 0.929 . S
C1459 C1458 1.399 . S
C1459 C1460 1.385 . S
C1460 H1446 0.931 . S
C1460 C1459 1.385 . S
C1460 C1461 1.389 . S
C1461 C1460 1.389 . S
C1461 C1462 1.387 . S
C1462 H1447 0.930 . S
C1462 C1457 1.390 . S
C1462 C1461 1.387 . S
H1463 C1475 0.930 . S
H1464 C1477 0.930 . S
H1465 C1478 0.930 . S
H1466 C1482 0.959 . S
H1467 C1482 0.959 . S
H1468 C1482 0.961 1_455 S
H1469 C1483 0.960 . S
H1470 C1483 0.961 . S
H1471 C1483 0.959 . S
H1472 C1486 0.929 . S
H1473 C1487 0.931 . S
H1474 C1489 0.930 . S
C1475 H1463 0.930 . S
C1475 C1476 1.399 . S
C1475 C1480 1.399 . S
C1476 C1475 1.399 . S
C1476 C1477 1.376 . S
C1477 H1464 0.930 . S
C1477 C1476 1.376 . S
C1477 C1478 1.388 . S
C1478 H1465 0.930 . S
C1478 C1477 1.388 . S
C1478 C1479 1.390 . S
C1479 C1478 1.390 . S
C1479 C1480 1.394 . S
C1479 C1485 1.465 1_455 S
C1480 C1475 1.399 . S
C1480 C1479 1.394 . S
C1480 C1481 1.516 . S
C1481 C1480 1.516 . S
C1481 C1482 1.502 1_455 S
C1481 C1483 1.561 . S
C1481 C1484 1.526 1_455 S
C1482 H1466 0.959 . S
C1482 H1467 0.959 . S
C1482 H1468 0.961 1_655 S
C1482 C1481 1.502 1_655 S
C1483 H1469 0.960 . S
C1483 H1470 0.961 . S
C1483 H1471 0.959 . S
C1483 C1481 1.561 . S
C1484 C1481 1.526 1_655 S
C1484 C1485 1.396 . S
C1484 C1489 1.390 . S
C1485 C1479 1.465 1_655 S
C1485 C1484 1.396 . S
C1485 C1486 1.399 . S
C1486 H1472 0.929 . S
C1486 C1485 1.399 . S
C1486 C1487 1.385 . S
C1487 H1473 0.931 . S
C1487 C1486 1.385 . S
C1487 C1488 1.389 . S
C1488 C1487 1.389 . S
C1488 C1489 1.387 . S
C1489 H1474 0.930 . S
C1489 C1484 1.390 . S
C1489 C1488 1.387 . S
H1490 C1502 0.930 . S
H1491 C1504 0.930 . S
H1492 C1505 0.930 . S
H1493 C1509 0.959 . S
H1494 C1509 0.959 . S
H1495 C1509 0.961 . S
H1496 C1510 0.960 . S
H1497 C1510 0.961 . S
H1498 C1510 0.959 . S
H1499 C1513 0.929 . S
H1500 C1514 0.931 . S
H1501 C1516 0.930 . S
C1502 H1490 0.930 . S
C1502 C1503 1.399 . S
C1502 C1507 1.399 . S
C1503 C1502 1.399 . S
C1503 C1504 1.376 . S
C1504 H1491 0.930 . S
C1504 C1503 1.376 . S
C1504 C1505 1.388 . S
C1505 H1492 0.930 . S
C1505 C1504 1.388 . S
C1505 C1506 1.390 . S
C1506 C1505 1.390 . S
C1506 C1507 1.394 . S
C1506 C1512 1.465 . S
C1507 C1502 1.399 . S
C1507 C1506 1.394 . S
C1507 C1508 1.516 . S
C1508 C1507 1.516 . S
C1508 C1509 1.502 . S
C1508 C1510 1.561 . S
C1508 C1511 1.526 . S
C1509 H1493 0.959 . S
C1509 H1494 0.959 . S
C1509 H1495 0.961 . S
C1509 C1508 1.502 . S
C1510 H1496 0.960 . S
C1510 H1497 0.961 . S
C1510 H1498 0.959 . S
C1510 C1508 1.561 . S
C1511 C1508 1.526 . S
C1511 C1512 1.396 . S
C1511 C1516 1.390 . S
C1512 C1506 1.465 . S
C1512 C1511 1.396 . S
C1512 C1513 1.399 . S
C1513 H1499 0.929 . S
C1513 C1512 1.399 . S
C1513 C1514 1.385 . S
C1514 H1500 0.931 . S
C1514 C1513 1.385 . S
C1514 C1515 1.389 . S
C1515 C1514 1.389 . S
C1515 C1516 1.387 . S
C1516 H1501 0.930 . S
C1516 C1511 1.390 . S
C1516 C1515 1.387 . S
H1517 C1529 0.930 . S
H1518 C1531 0.930 . S
H1519 C1532 0.930 . S
H1520 C1536 0.959 . S
H1521 C1536 0.959 . S
H1522 C1536 0.961 . S
H1523 C1537 0.950 1_655 S
H1524 C1537 0.961 . S
H1525 C1537 0.959 . S
H1526 C1540 0.929 . S
H1527 C1541 0.931 . S
H1528 C1543 0.930 . S
C1529 H1517 0.930 . S
C1529 C1530 1.399 . S
C1529 C1534 1.399 . S
C1530 C1529 1.399 . S
C1530 C1531 1.376 . S
C1531 H1518 0.930 . S
C1531 C1530 1.376 . S
C1531 C1532 1.388 . S
C1532 H1519 0.930 . S
C1532 C1531 1.388 . S
C1532 C1533 1.390 . S
C1533 C1532 1.390 . S
C1533 C1534 1.394 . S
C1533 C1539 1.465 1_655 S
C1534 C1529 1.399 . S
C1534 C1533 1.394 . S
C1534 C1535 1.544 . S
C1535 C1534 1.544 . S
C1535 C1536 1.527 . S
C1535 C1537 1.536 1_655 S
C1535 C1538 1.497 1_655 S
C1536 H1520 0.959 . S
C1536 H1521 0.959 . S
C1536 H1522 0.961 . S
C1536 C1535 1.527 . S
C1537 H1523 0.950 1_455 S
C1537 H1524 0.961 . S
C1537 H1525 0.959 . S
C1537 C1535 1.536 1_455 S
C1538 C1535 1.497 1_455 S
C1538 C1539 1.396 . S
C1538 C1543 1.390 . S
C1539 C1533 1.465 1_455 S
C1539 C1538 1.396 . S
C1539 C1540 1.399 . S
C1540 H1526 0.929 . S
C1540 C1539 1.399 . S
C1540 C1541 1.385 . S
C1541 H1527 0.931 . S
C1541 C1540 1.385 . S
C1541 C1542 1.389 . S
C1542 C1541 1.389 . S
C1542 C1543 1.387 . S
C1543 H1528 0.930 . S
C1543 C1538 1.390 . S
C1543 C1542 1.387 . S
H1544 C1556 0.930 . S
H1545 C1558 0.930 . S
H1546 C1559 0.930 . S
H1547 C1563 0.959 . S
H1548 C1563 0.959 . S
H1549 C1563 0.961 . S
H1550 C1564 0.960 . S
H1551 C1564 0.961 . S
H1552 C1564 0.959 . S
H1553 C1567 0.929 . S
H1554 C1568 0.931 . S
H1555 C1570 0.930 . S
C1556 H1544 0.930 . S
C1556 C1557 1.399 . S
C1556 C1561 1.399 . S
C1557 C1556 1.399 . S
C1557 C1558 1.376 . S
C1558 H1545 0.930 . S
C1558 C1557 1.376 . S
C1558 C1559 1.388 . S
C1559 H1546 0.930 . S
C1559 C1558 1.388 . S
C1559 C1560 1.390 . S
C1560 C1559 1.390 . S
C1560 C1561 1.394 . S
C1560 C1566 1.465 . S
C1561 C1556 1.399 . S
C1561 C1560 1.394 . S
C1561 C1562 1.516 . S
C1562 C1561 1.516 . S
C1562 C1563 1.502 . S
C1562 C1564 1.561 . S
C1562 C1565 1.526 . S
C1563 H1547 0.959 . S
C1563 H1548 0.959 . S
C1563 H1549 0.961 . S
C1563 C1562 1.502 . S
C1564 H1550 0.960 . S
C1564 H1551 0.961 . S
C1564 H1552 0.959 . S
C1564 C1562 1.561 . S
C1565 C1562 1.526 . S
C1565 C1566 1.396 . S
C1565 C1570 1.390 . S
C1566 C1560 1.465 . S
C1566 C1565 1.396 . S
C1566 C1567 1.399 . S
C1567 H1553 0.929 . S
C1567 C1566 1.399 . S
C1567 C1568 1.385 . S
C1568 H1554 0.931 . S
C1568 C1567 1.385 . S
C1568 C1569 1.389 . S
C1569 C1568 1.389 . S
C1569 C1570 1.387 . S
C1570 H1555 0.930 . S
C1570 C1565 1.390 . S
C1570 C1569 1.387 . S
H1571 C1583 0.930 . S
H1572 C1585 0.930 . S
H1573 C1586 0.930 . S
H1574 C1590 0.959 . S
H1575 C1590 0.959 . S
H1576 C1590 0.961 . S
H1577 C1591 0.960 . S
H1578 C1591 0.961 . S
H1579 C1591 0.959 . S
H1580 C1594 0.929 . S
H1581 C1595 0.931 . S
H1582 C1597 0.930 . S
C1583 H1571 0.930 . S
C1583 C1584 1.399 . S
C1583 C1588 1.399 1_554 S
C1584 C1583 1.399 . S
C1584 C1585 1.376 . S
C1585 H1572 0.930 . S
C1585 C1584 1.376 . S
C1585 C1586 1.388 . S
C1586 H1573 0.930 . S
C1586 C1585 1.388 . S
C1586 C1587 1.390 . S
C1587 C1586 1.390 . S
C1587 C1588 1.394 1_554 S
C1587 C1593 1.465 1_554 S
C1588 C1583 1.399 1_556 S
C1588 C1587 1.394 1_556 S
C1588 C1589 1.516 . S
C1589 C1588 1.516 . S
C1589 C1590 1.502 . S
C1589 C1591 1.561 . S
C1589 C1592 1.526 . S
C1590 H1574 0.959 . S
C1590 H1575 0.959 . S
C1590 H1576 0.961 . S
C1590 C1589 1.502 . S
C1591 H1577 0.960 . S
C1591 H1578 0.961 . S
C1591 H1579 0.959 . S
C1591 C1589 1.561 . S
C1592 C1589 1.526 . S
C1592 C1593 1.396 . S
C1592 C1597 1.390 . S
C1593 C1587 1.465 1_556 S
C1593 C1592 1.396 . S
C1593 C1594 1.399 . S
C1594 H1580 0.929 . S
C1594 C1593 1.399 . S
C1594 C1595 1.385 . S
C1595 H1581 0.931 . S
C1595 C1594 1.385 . S
C1595 C1596 1.389 . S
C1596 C1595 1.389 . S
C1596 C1597 1.387 . S
C1597 H1582 0.930 . S
C1597 C1592 1.390 . S
C1597 C1596 1.387 . S
H1598 C1610 0.930 . S
H1599 C1612 0.930 . S
H1600 C1613 0.930 . S
H1601 C1617 0.959 . S
H1602 C1617 0.959 . S
H1603 C1617 0.961 . S
H1604 C1618 0.960 . S
H1605 C1618 0.961 . S
H1606 C1618 0.959 . S
H1607 C1621 0.929 . S
H1608 C1622 0.931 . S
H1609 C1624 0.930 . S
C1610 H1598 0.930 . S
C1610 C1611 1.399 . S
C1610 C1615 1.399 . S
C1611 C1610 1.399 . S
C1611 C1612 1.376 . S
C1612 H1599 0.930 . S
C1612 C1611 1.376 . S
C1612 C1613 1.388 . S
C1613 H1600 0.930 . S
C1613 C1612 1.388 . S
C1613 C1614 1.390 . S
C1614 C1613 1.390 . S
C1614 C1615 1.394 . S
C1614 C1620 1.465 . S
C1615 C1610 1.399 . S
C1615 C1614 1.394 . S
C1615 C1616 1.516 . S
C1616 C1615 1.516 . S
C1616 C1617 1.502 . S
C1616 C1618 1.561 . S
C1616 C1619 1.526 . S
C1617 H1601 0.959 . S
C1617 H1602 0.959 . S
C1617 H1603 0.961 . S
C1617 C1616 1.502 . S
C1618 H1604 0.960 . S
C1618 H1605 0.961 . S
C1618 H1606 0.959 . S
C1618 C1616 1.561 . S
C1619 C1616 1.526 . S
C1619 C1620 1.396 . S
C1619 C1624 1.390 . S
C1620 C1614 1.465 . S
C1620 C1619 1.396 . S
C1620 C1621 1.399 . S
C1621 H1607 0.929 . S
C1621 C1620 1.399 . S
C1621 C1622 1.385 . S
C1622 H1608 0.931 . S
C1622 C1621 1.385 . S
C1622 C1623 1.389 . S
C1623 C1622 1.389 . S
C1623 C1624 1.387 . S
C1624 H1609 0.930 . S
C1624 C1619 1.390 . S
C1624 C1623 1.387 . S
H1625 C1637 0.930 . S
H1626 C1639 0.930 . S
H1627 C1640 0.930 . S
H1628 C1644 0.959 . S
H1629 C1644 0.959 . S
H1630 C1644 0.961 . S
H1631 C1645 0.962 . S
H1632 C1645 0.961 . S
H1633 C1645 0.978 . S
H1634 C1648 0.929 . S
H1635 C1649 0.931 . S
H1636 C1651 0.930 . S
C1637 H1625 0.930 . S
C1637 C1638 1.399 . S
C1637 C1642 1.399 . S
C1638 C1637 1.399 . S
C1638 C1639 1.376 . S
C1639 H1626 0.930 . S
C1639 C1638 1.376 . S
C1639 C1640 1.388 . S
C1640 H1627 0.930 . S
C1640 C1639 1.388 . S
C1640 C1641 1.390 . S
C1641 C1640 1.390 . S
C1641 C1642 1.394 . S
C1641 C1647 1.465 . S
C1642 C1637 1.399 . S
C1642 C1641 1.394 . S
C1642 C1643 1.516 1_554 S
C1643 C1642 1.516 1_556 S
C1643 C1644 1.502 . S
C1643 C1645 1.561 . S
C1643 C1646 1.526 . S
C1644 H1628 0.959 . S
C1644 H1629 0.959 . S
C1644 H1630 0.961 . S
C1644 C1643 1.502 . S
C1645 H1631 0.962 . S
C1645 H1632 0.961 . S
C1645 H1633 0.978 . S
C1645 C1643 1.561 . S
C1646 C1643 1.526 . S
C1646 C1647 1.396 1_556 S
C1646 C1651 1.390 . S
C1647 C1641 1.465 . S
C1647 C1646 1.396 1_554 S
C1647 C1648 1.399 . S
C1648 H1634 0.929 . S
C1648 C1647 1.399 . S
C1648 C1649 1.385 1_554 S
C1649 H1635 0.931 . S
C1649 C1648 1.385 1_556 S
C1649 C1650 1.389 . S
C1650 C1649 1.389 . S
C1650 C1651 1.387 . S
C1651 H1636 0.930 . S
C1651 C1646 1.390 . S
C1651 C1650 1.387 . S
H1652 C1664 0.930 . S
H1653 C1666 0.930 . S
H1654 C1667 0.930 . S
H1655 C1671 0.959 . S
H1656 C1671 0.959 . S
H1657 C1671 0.961 . S
H1658 C1672 0.960 . S
H1659 C1672 0.961 . S
H1660 C1672 0.959 . S
H1661 C1675 0.929 . S
H1662 C1676 0.931 . S
H1663 C1678 0.930 . S
C1664 H1652 0.930 . S
C1664 C1665 1.399 . S
C1664 C1669 1.399 . S
C1665 C1664 1.399 . S
C1665 C1666 1.376 . S
C1666 H1653 0.930 . S
C1666 C1665 1.376 . S
C1666 C1667 1.388 . S
C1667 H1654 0.930 . S
C1667 C1666 1.388 . S
C1667 C1668 1.390 . S
C1668 C1667 1.390 . S
C1668 C1669 1.394 . S
C1668 C1674 1.465 . S
C1669 C1664 1.399 . S
C1669 C1668 1.394 . S
C1669 C1670 1.516 . S
C1670 C1669 1.516 . S
C1670 C1671 1.502 . S
C1670 C1672 1.561 . S
C1670 C1673 1.526 . S
C1671 H1655 0.959 . S
C1671 H1656 0.959 . S
C1671 H1657 0.961 . S
C1671 C1670 1.502 . S
C1672 H1658 0.960 . S
C1672 H1659 0.961 . S
C1672 H1660 0.959 . S
C1672 C1670 1.561 . S
C1673 C1670 1.526 . S
C1673 C1674 1.396 . S
C1673 C1678 1.390 . S
C1674 C1668 1.465 . S
C1674 C1673 1.396 . S
C1674 C1675 1.399 . S
C1675 H1661 0.929 . S
C1675 C1674 1.399 . S
C1675 C1676 1.385 . S
C1676 H1662 0.931 . S
C1676 C1675 1.385 . S
C1676 C1677 1.389 . S
C1677 C1676 1.389 . S
C1677 C1678 1.387 . S
C1678 H1663 0.930 . S
C1678 C1673 1.390 . S
C1678 C1677 1.387 . S
H1679 C1691 0.930 . S
H1680 C1693 0.930 . S
H1681 C1694 0.930 . S
H1682 C1698 0.959 . S
H1683 C1698 0.959 . S
H1684 C1698 0.961 1_556 S
H1685 C1699 0.960 . S
H1686 C1699 0.961 . S
H1687 C1699 0.959 . S
H1688 C1702 0.929 . S
H1689 C1703 0.931 . S
H1690 C1705 0.930 . S
C1691 H1679 0.930 . S
C1691 C1692 1.399 . S
C1691 C1696 1.399 1_556 S
C1692 C1691 1.399 . S
C1692 C1693 1.376 . S
C1693 H1680 0.930 . S
C1693 C1692 1.376 . S
C1693 C1694 1.388 1_556 S
C1694 H1681 0.930 . S
C1694 C1693 1.388 1_554 S
C1694 C1695 1.390 . S
C1695 C1694 1.390 . S
C1695 C1696 1.394 . S
C1695 C1701 1.465 . S
C1696 C1691 1.399 1_554 S
C1696 C1695 1.394 . S
C1696 C1697 1.516 . S
C1697 C1696 1.516 . S
C1697 C1698 1.502 . S
C1697 C1699 1.561 . S
C1697 C1700 1.526 . S
C1698 H1682 0.959 . S
C1698 H1683 0.959 . S
C1698 H1684 0.961 1_554 S
C1698 C1697 1.502 . S
C1699 H1685 0.960 . S
C1699 H1686 0.961 . S
C1699 H1687 0.959 . S
C1699 C1697 1.561 . S
C1700 C1697 1.526 . S
C1700 C1701 1.396 . S
C1700 C1705 1.390 . S
C1701 C1695 1.465 . S
C1701 C1700 1.396 . S
C1701 C1702 1.399 . S
C1702 H1688 0.929 . S
C1702 C1701 1.399 . S
C1702 C1703 1.385 . S
C1703 H1689 0.931 . S
C1703 C1702 1.385 . S
C1703 C1704 1.389 . S
C1704 C1703 1.389 . S
C1704 C1705 1.387 . S
C1705 H1690 0.930 . S
C1705 C1700 1.390 . S
C1705 C1704 1.387 . S
H1706 C1718 0.930 . S
H1707 C1720 0.930 . S
H1708 C1721 0.930 . S
H1709 C1725 0.959 . S
H1710 C1725 0.959 . S
H1711 C1725 0.961 . S
H1712 C1726 0.960 . S
H1713 C1726 0.961 . S
H1714 C1726 0.959 . S
H1715 C1729 0.929 . S
H1716 C1730 0.931 . S
H1717 C1732 0.930 . S
C1718 H1706 0.930 . S
C1718 C1719 1.399 . S
C1718 C1723 1.399 . S
C1719 C1718 1.399 . S
C1719 C1720 1.376 . S
C1720 H1707 0.930 . S
C1720 C1719 1.376 . S
C1720 C1721 1.388 . S
C1721 H1708 0.930 . S
C1721 C1720 1.388 . S
C1721 C1722 1.390 . S
C1722 C1721 1.390 . S
C1722 C1723 1.394 . S
C1722 C1728 1.465 . S
C1723 C1718 1.399 . S
C1723 C1722 1.394 . S
C1723 C1724 1.516 . S
C1724 C1723 1.516 . S
C1724 C1725 1.502 . S
C1724 C1726 1.561 . S
C1724 C1727 1.526 . S
C1725 H1709 0.959 . S
C1725 H1710 0.959 . S
C1725 H1711 0.961 . S
C1725 C1724 1.502 . S
C1726 H1712 0.960 . S
C1726 H1713 0.961 . S
C1726 H1714 0.959 . S
C1726 C1724 1.561 . S
C1727 C1724 1.526 . S
C1727 C1728 1.396 . S
C1727 C1732 1.390 . S
C1728 C1722 1.465 . S
C1728 C1727 1.396 . S
C1728 C1729 1.399 . S
C1729 H1715 0.929 . S
C1729 C1728 1.399 . S
C1729 C1730 1.385 . S
C1730 H1716 0.931 . S
C1730 C1729 1.385 . S
C1730 C1731 1.389 . S
C1731 C1730 1.389 . S
C1731 C1732 1.387 . S
C1732 H1717 0.930 . S
C1732 C1727 1.390 . S
C1732 C1731 1.387 . S
H1733 C1745 0.930 1_556 S
H1734 C1747 0.930 . S
H1735 C1748 0.930 . S
H1736 C1752 0.959 . S
H1737 C1752 0.959 . S
H1738 C1752 0.961 . S
H1739 C1753 0.960 . S
H1740 C1753 0.961 . S
H1741 C1753 0.959 . S
H1742 C1756 0.929 . S
H1743 C1757 0.931 . S
H1744 C1759 0.930 . S
C1745 H1733 0.930 1_554 S
C1745 C1746 1.399 . S
C1745 C1750 1.399 . S
C1746 C1745 1.399 . S
C1746 C1747 1.376 . S
C1747 H1734 0.930 . S
C1747 C1746 1.376 . S
C1747 C1748 1.388 . S
C1748 H1735 0.930 . S
C1748 C1747 1.388 . S
C1748 C1749 1.390 . S
C1749 C1748 1.390 . S
C1749 C1750 1.394 . S
C1749 C1755 1.465 . S
C1750 C1745 1.399 . S
C1750 C1749 1.394 . S
C1750 C1751 1.516 . S
C1751 C1750 1.516 . S
C1751 C1752 1.502 . S
C1751 C1753 1.561 . S
C1751 C1754 1.526 . S
C1752 H1736 0.959 . S
C1752 H1737 0.959 . S
C1752 H1738 0.961 . S
C1752 C1751 1.502 . S
C1753 H1739 0.960 . S
C1753 H1740 0.961 . S
C1753 H1741 0.959 . S
C1753 C1751 1.561 . S
C1754 C1751 1.526 . S
C1754 C1755 1.396 . S
C1754 C1759 1.390 . S
C1755 C1749 1.465 . S
C1755 C1754 1.396 . S
C1755 C1756 1.399 . S
C1756 H1742 0.929 . S
C1756 C1755 1.399 . S
C1756 C1757 1.385 . S
C1757 H1743 0.931 . S
C1757 C1756 1.385 . S
C1757 C1758 1.389 . S
C1758 C1757 1.389 . S
C1758 C1759 1.387 . S
C1759 H1744 0.930 . S
C1759 C1754 1.390 . S
C1759 C1758 1.387 . S
H1760 C1772 0.930 . S
H1761 C1774 0.930 . S
H1762 C1775 0.930 . S
H1763 C1779 0.959 . S
H1764 C1779 0.959 . S
H1765 C1779 0.961 . S
H1766 C1780 0.960 . S
H1767 C1780 0.961 . S
H1768 C1780 0.959 . S
H1769 C1783 0.929 . S
H1770 C1784 0.931 . S
H1771 C1786 0.930 . S
C1772 H1760 0.930 . S
C1772 C1773 1.399 . S
C1772 C1777 1.399 . S
C1773 C1772 1.399 . S
C1773 C1774 1.376 . S
C1774 H1761 0.930 . S
C1774 C1773 1.376 . S
C1774 C1775 1.388 . S
C1775 H1762 0.930 . S
C1775 C1774 1.388 . S
C1775 C1776 1.390 . S
C1776 C1775 1.390 . S
C1776 C1777 1.394 . S
C1776 C1782 1.465 . S
C1777 C1772 1.399 . S
C1777 C1776 1.394 . S
C1777 C1778 1.516 . S
C1778 C1777 1.516 . S
C1778 C1779 1.502 . S
C1778 C1780 1.561 . S
C1778 C1781 1.526 . S
C1779 H1763 0.959 . S
C1779 H1764 0.959 . S
C1779 H1765 0.961 . S
C1779 C1778 1.502 . S
C1780 H1766 0.960 . S
C1780 H1767 0.961 . S
C1780 H1768 0.959 . S
C1780 C1778 1.561 . S
C1781 C1778 1.526 . S
C1781 C1782 1.396 . S
C1781 C1786 1.390 . S
C1782 C1776 1.465 . S
C1782 C1781 1.396 . S
C1782 C1783 1.399 . S
C1783 H1769 0.929 . S
C1783 C1782 1.399 . S
C1783 C1784 1.385 . S
C1784 H1770 0.931 . S
C1784 C1783 1.385 . S
C1784 C1785 1.389 . S
C1785 C1784 1.389 . S
C1785 C1786 1.387 . S
C1786 H1771 0.930 . S
C1786 C1781 1.390 . S
C1786 C1785 1.387 . S
H1787 C1799 0.930 . S
H1788 C1801 0.930 . S
H1789 C1802 0.930 . S
H1790 C1806 0.959 . S
H1791 C1806 0.959 . S
H1792 C1806 0.961 . S
H1793 C1807 0.960 . S
H1794 C1807 0.961 . S
H1795 C1807 0.959 . S
H1796 C1810 0.929 . S
H1797 C1811 0.931 . S
H1798 C1813 0.930 . S
C1799 H1787 0.930 . S
C1799 C1800 1.399 . S
C1799 C1804 1.399 . S
C1800 C1799 1.399 . S
C1800 C1801 1.376 . S
C1801 H1788 0.930 . S
C1801 C1800 1.376 . S
C1801 C1802 1.388 . S
C1802 H1789 0.930 . S
C1802 C1801 1.388 . S
C1802 C1803 1.390 . S
C1803 C1802 1.390 . S
C1803 C1804 1.394 . S
C1803 C1809 1.465 . S
C1804 C1799 1.399 . S
C1804 C1803 1.394 . S
C1804 C1805 1.516 . S
C1805 C1804 1.516 . S
C1805 C1806 1.502 . S
C1805 C1807 1.561 . S
C1805 C1808 1.526 . S
C1806 H1790 0.959 . S
C1806 H1791 0.959 . S
C1806 H1792 0.961 . S
C1806 C1805 1.502 . S
C1807 H1793 0.960 . S
C1807 H1794 0.961 . S
C1807 H1795 0.959 . S
C1807 C1805 1.561 . S
C1808 C1805 1.526 . S
C1808 C1809 1.396 . S
C1808 C1813 1.390 . S
C1809 C1803 1.465 . S
C1809 C1808 1.396 . S
C1809 C1810 1.399 . S
C1810 H1796 0.929 . S
C1810 C1809 1.399 . S
C1810 C1811 1.385 . S
C1811 H1797 0.931 . S
C1811 C1810 1.385 . S
C1811 C1812 1.389 . S
C1812 C1811 1.389 . S
C1812 C1813 1.387 . S
C1813 H1798 0.930 . S
C1813 C1808 1.390 . S
C1813 C1812 1.387 . S
H1814 C1826 0.930 . S
H1815 C1828 0.930 . S
H1816 C1829 0.930 . S
H1817 C1833 0.959 . S
H1818 C1833 0.959 . S
H1819 C1833 0.961 . S
H1820 C1834 0.960 . S
H1821 C1834 0.961 . S
H1822 C1834 0.959 . S
H1823 C1837 0.929 . S
H1824 C1838 0.931 . S
H1825 C1840 0.930 . S
C1826 H1814 0.930 . S
C1826 C1827 1.399 . S
C1826 C1831 1.399 . S
C1827 C1826 1.399 . S
C1827 C1828 1.376 . S
C1828 H1815 0.930 . S
C1828 C1827 1.376 . S
C1828 C1829 1.388 . S
C1829 H1816 0.930 . S
C1829 C1828 1.388 . S
C1829 C1830 1.390 . S
C1830 C1829 1.390 . S
C1830 C1831 1.394 . S
C1830 C1836 1.465 . S
C1831 C1826 1.399 . S
C1831 C1830 1.394 . S
C1831 C1832 1.516 . S
C1832 C1831 1.516 . S
C1832 C1833 1.502 . S
C1832 C1834 1.561 . S
C1832 C1835 1.526 . S
C1833 H1817 0.959 . S
C1833 H1818 0.959 . S
C1833 H1819 0.961 . S
C1833 C1832 1.502 . S
C1834 H1820 0.960 . S
C1834 H1821 0.961 . S
C1834 H1822 0.959 . S
C1834 C1832 1.561 . S
C1835 C1832 1.526 . S
C1835 C1836 1.396 . S
C1835 C1840 1.390 . S
C1836 C1830 1.465 . S
C1836 C1835 1.396 . S
C1836 C1837 1.399 . S
C1837 H1823 0.929 . S
C1837 C1836 1.399 . S
C1837 C1838 1.385 . S
C1838 H1824 0.931 . S
C1838 C1837 1.385 . S
C1838 C1839 1.389 . S
C1839 C1838 1.389 . S
C1839 C1840 1.387 . S
C1840 H1825 0.930 . S
C1840 C1835 1.390 . S
C1840 C1839 1.387 . S
H1841 C1853 0.930 . S
H1842 C1855 0.930 . S
H1843 C1856 0.930 . S
H1844 C1860 0.959 . S
H1845 C1860 0.959 . S
H1846 C1860 0.961 . S
H1847 C1861 0.960 . S
H1848 C1861 0.961 . S
H1849 C1861 0.959 . S
H1850 C1864 0.929 . S
H1851 C1865 0.931 . S
H1852 C1867 0.930 . S
C1853 H1841 0.930 . S
C1853 C1854 1.399 . S
C1853 C1858 1.399 . S
C1854 C1853 1.399 . S
C1854 C1855 1.376 . S
C1855 H1842 0.930 . S
C1855 C1854 1.376 . S
C1855 C1856 1.388 . S
C1856 H1843 0.930 . S
C1856 C1855 1.388 . S
C1856 C1857 1.390 . S
C1857 C1856 1.390 . S
C1857 C1858 1.394 . S
C1857 C1863 1.465 . S
C1858 C1853 1.399 . S
C1858 C1857 1.394 . S
C1858 C1859 1.516 . S
C1859 C1858 1.516 . S
C1859 C1860 1.502 . S
C1859 C1861 1.561 . S
C1859 C1862 1.526 . S
C1860 H1844 0.959 . S
C1860 H1845 0.959 . S
C1860 H1846 0.961 . S
C1860 C1859 1.502 . S
C1861 H1847 0.960 . S
C1861 H1848 0.961 . S
C1861 H1849 0.959 . S
C1861 C1859 1.561 . S
C1862 C1859 1.526 . S
C1862 C1863 1.396 . S
C1862 C1867 1.390 . S
C1863 C1857 1.465 . S
C1863 C1862 1.396 . S
C1863 C1864 1.399 . S
C1864 H1850 0.929 . S
C1864 C1863 1.399 . S
C1864 C1865 1.385 . S
C1865 H1851 0.931 . S
C1865 C1864 1.385 . S
C1865 C1866 1.389 . S
C1866 C1865 1.389 . S
C1866 C1867 1.387 . S
C1867 H1852 0.930 . S
C1867 C1862 1.390 . S
C1867 C1866 1.387 . S
H1868 C1880 0.930 . S
H1869 C1882 0.930 . S
H1870 C1883 0.930 . S
H1871 C1887 0.959 . S
H1872 C1887 0.959 . S
H1873 C1887 0.961 . S
H1874 C1888 0.960 . S
H1875 C1888 0.961 . S
H1876 C1888 0.959 . S
H1877 C1891 0.929 1_554 S
H1878 C1892 0.931 1_554 S
H1879 C1894 0.930 . S
C1880 H1868 0.930 . S
C1880 C1881 1.399 . S
C1880 C1885 1.399 . S
C1881 C1880 1.399 . S
C1881 C1882 1.376 . S
C1882 H1869 0.930 . S
C1882 C1881 1.376 . S
C1882 C1883 1.388 . S
C1883 H1870 0.930 . S
C1883 C1882 1.388 . S
C1883 C1884 1.390 . S
C1884 C1883 1.390 . S
C1884 C1885 1.394 . S
C1884 C1890 1.465 . S
C1885 C1880 1.399 . S
C1885 C1884 1.394 . S
C1885 C1886 1.516 . S
C1886 C1885 1.516 . S
C1886 C1887 1.502 . S
C1886 C1888 1.561 . S
C1886 C1889 1.526 . S
C1887 H1871 0.959 . S
C1887 H1872 0.959 . S
C1887 H1873 0.961 . S
C1887 C1886 1.502 . S
C1888 H1874 0.960 . S
C1888 H1875 0.961 . S
C1888 H1876 0.959 . S
C1888 C1886 1.561 . S
C1889 C1886 1.526 . S
C1889 C1890 1.396 . S
C1889 C1894 1.390 . S
C1890 C1884 1.465 . S
C1890 C1889 1.396 . S
C1890 C1891 1.399 . S
C1891 H1877 0.929 1_556 S
C1891 C1890 1.399 . S
C1891 C1892 1.385 . S
C1892 H1878 0.931 1_556 S
C1892 C1891 1.385 . S
C1892 C1893 1.389 . S
C1893 C1892 1.389 . S
C1893 C1894 1.387 . S
C1894 H1879 0.930 . S
C1894 C1889 1.390 . S
C1894 C1893 1.387 . S
H1895 C1907 0.930 . S
H1896 C1909 0.930 . S
H1897 C1910 0.930 . S
H1898 C1914 0.959 . S
H1899 C1914 0.959 . S
H1900 C1914 0.961 . S
H1901 C1915 0.960 . S
H1902 C1915 0.961 . S
H1903 C1915 0.959 . S
H1904 C1918 0.929 . S
H1905 C1919 0.931 . S
H1906 C1921 0.930 . S
C1907 H1895 0.930 . S
C1907 C1908 1.399 . S
C1907 C1912 1.399 . S
C1908 C1907 1.399 . S
C1908 C1909 1.376 . S
C1909 H1896 0.930 . S
C1909 C1908 1.376 . S
C1909 C1910 1.388 . S
C1910 H1897 0.930 . S
C1910 C1909 1.388 . S
C1910 C1911 1.390 . S
C1911 C1910 1.390 . S
C1911 C1912 1.394 . S
C1911 C1917 1.465 . S
C1912 C1907 1.399 . S
C1912 C1911 1.394 . S
C1912 C1913 1.516 . S
C1913 C1912 1.516 . S
C1913 C1914 1.502 . S
C1913 C1915 1.561 . S
C1913 C1916 1.526 . S
C1914 H1898 0.959 . S
C1914 H1899 0.959 . S
C1914 H1900 0.961 . S
C1914 C1913 1.502 . S
C1915 H1901 0.960 . S
C1915 H1902 0.961 . S
C1915 H1903 0.959 . S
C1915 C1913 1.561 . S
C1916 C1913 1.526 . S
C1916 C1917 1.396 . S
C1916 C1921 1.390 . S
C1917 C1911 1.465 . S
C1917 C1916 1.396 . S
C1917 C1918 1.399 . S
C1918 H1904 0.929 . S
C1918 C1917 1.399 . S
C1918 C1919 1.385 . S
C1919 H1905 0.931 . S
C1919 C1918 1.385 . S
C1919 C1920 1.389 . S
C1920 C1919 1.389 . S
C1920 C1921 1.387 . S
C1921 H1906 0.930 . S
C1921 C1916 1.390 . S
C1921 C1920 1.387 . S
H1922 C1934 0.930 . S
H1923 C1936 0.930 . S
H1924 C1937 0.930 . S
H1925 C1941 0.959 . S
H1926 C1941 0.959 . S
H1927 C1941 0.961 . S
H1928 C1942 0.960 . S
H1929 C1942 0.961 . S
H1930 C1942 0.959 . S
H1931 C1945 0.929 . S
H1932 C1946 0.931 . S
H1933 C1948 0.930 . S
C1934 H1922 0.930 . S
C1934 C1935 1.399 . S
C1934 C1939 1.399 . S
C1935 C1934 1.399 . S
C1935 C1936 1.376 . S
C1936 H1923 0.930 . S
C1936 C1935 1.376 . S
C1936 C1937 1.388 . S
C1937 H1924 0.930 . S
C1937 C1936 1.388 . S
C1937 C1938 1.390 . S
C1938 C1937 1.390 . S
C1938 C1939 1.394 . S
C1938 C1944 1.465 . S
C1939 C1934 1.399 . S
C1939 C1938 1.394 . S
C1939 C1940 1.516 . S
C1940 C1939 1.516 . S
C1940 C1941 1.502 . S
C1940 C1942 1.561 . S
C1940 C1943 1.526 . S
C1941 H1925 0.959 . S
C1941 H1926 0.959 . S
C1941 H1927 0.961 . S
C1941 C1940 1.502 . S
C1942 H1928 0.960 . S
C1942 H1929 0.961 . S
C1942 H1930 0.959 . S
C1942 C1940 1.561 . S
C1943 C1940 1.526 . S
C1943 C1944 1.396 . S
C1943 C1948 1.390 . S
C1944 C1938 1.465 . S
C1944 C1943 1.396 . S
C1944 C1945 1.399 . S
C1945 H1931 0.929 . S
C1945 C1944 1.399 . S
C1945 C1946 1.385 . S
C1946 H1932 0.931 . S
C1946 C1945 1.385 . S
C1946 C1947 1.389 . S
C1947 C1946 1.389 . S
C1947 C1948 1.387 . S
C1948 H1933 0.930 . S
C1948 C1943 1.390 . S
C1948 C1947 1.387 . S
H1949 C1961 0.930 . S
H1950 C1963 0.930 . S
H1951 C1964 0.930 . S
H1952 C1968 0.959 . S
H1953 C1968 0.959 . S
H1954 C1968 0.961 . S
H1955 C1969 0.960 . S
H1956 C1969 0.961 1_565 S
H1957 C1969 0.975 . S
H1958 C1972 0.952 . S
H1959 C1973 0.931 . S
H1960 C1975 0.930 . S
C1961 H1949 0.930 . S
C1961 C1962 1.399 . S
C1961 C1966 1.399 . S
C1962 C1961 1.399 . S
C1962 C1963 1.376 . S
C1963 H1950 0.930 . S
C1963 C1962 1.376 . S
C1963 C1964 1.388 . S
C1964 H1951 0.930 . S
C1964 C1963 1.388 . S
C1964 C1965 1.390 . S
C1965 C1964 1.390 . S
C1965 C1966 1.394 . S
C1965 C1971 1.465 . S
C1966 C1961 1.399 . S
C1966 C1965 1.394 . S
C1966 C1967 1.516 . S
C1967 C1966 1.516 . S
C1967 C1968 1.502 . S
C1967 C1969 1.561 . S
C1967 C1970 1.526 . S
C1968 H1952 0.959 . S
C1968 H1953 0.959 . S
C1968 H1954 0.961 . S
C1968 C1967 1.502 . S
C1969 H1955 0.960 . S
C1969 H1956 0.961 1_545 S
C1969 H1957 0.975 . S
C1969 C1967 1.561 . S
C1970 C1967 1.526 . S
C1970 C1971 1.396 . S
C1970 C1975 1.390 1_545 S
C1971 C1965 1.465 . S
C1971 C1970 1.396 . S
C1971 C1972 1.423 . S
C1972 H1958 0.952 . S
C1972 C1971 1.423 . S
C1972 C1973 1.340 1_545 S
C1973 H1959 0.931 . S
C1973 C1972 1.340 1_565 S
C1973 C1974 1.389 . S
C1974 C1973 1.389 . S
C1974 C1975 1.387 . S
C1975 H1960 0.930 . S
C1975 C1970 1.390 1_565 S
C1975 C1974 1.387 . S
C705 C520 1.569 1_556 S
C693 C177 1.507 . S
C732 C535 1.697 . S
C720 C209 1.678 . S
C747 C253 1.626 . S
C759 C548 1.646 . S
C786 C562 1.583 . S
C774 C157 1.609 . S
C813 C574 1.594 . S
C801 C343 1.678 . S
C840 C588 1.320 . S
C828 C401 1.348 . S
C855 C369 1.692 . S
C867 C602 1.713 . S
C894 C617 1.445 . S
C882 C317 1.382 . S
C909 C375 1.636 . S
C921 C633 1.668 . S
C948 C646 1.579 . S
C936 C305 1.442 . S
C963 C349 1.555 . S
C975 C631 1.560 . S
C1002 C644 1.542 . S
C990 C413 1.535 . S
C1017 C241 1.769 . S
C1029 C660 1.789 . S
C1044 C151 1.557 . S
C1056 C659 1.569 . S
C1071 C189 1.692 . S
C1083 C658 1.646 . S
C1098 C215 1.570 . S
C1110 C661 1.565 . S
C1125 C113 1.662 . S
C1137 C563 1.656 1_565 S
C1152 C471 1.451 . S
C1164 C561 1.434 . S
C1191 C521 1.570 . S
C1179 C509 1.458 . S
C1218 C532 1.693 . S
C1206 C279 1.684 . S
C1233 C145 1.597 1_545 S
C1245 C577 1.545 . S
C1272 C618 1.878 . S
C1260 C381 1.828 . S
C1299 C575 1.537 . S
C1287 C311 1.477 . S
C1326 C603 1.539 . S
C1314 C407 1.539 . S
C1353 C604 1.579 . S
C1341 C465 1.517 . S
C1368 C497 1.710 . S
C1380 C619 1.693 . S
C1395 C285 1.629 . S
C1407 C576 1.650 . S
C1434 C590 1.532 . S
C1422 C445 1.612 . S
C1449 C119 1.693 . S
C1461 C546 1.639 . S
C1488 C560 1.358 . S
C1476 C17 1.361 . S
C1515 C518 1.712 . S
C1503 C49 1.737 . S
C1542 C533 1.436 . S
C1530 C93 1.317 . S
C1557 C55 1.634 . S
C1569 C647 1.646 . S
C1584 C81 1.518 . S
C1596 C632 1.516 . S
C1611 C125 1.564 . S
C1623 C645 1.589 . S
C1638 C29 1.544 . S
C1650 C630 1.502 . S
C1677 C674 1.812 . S
C1665 C273 1.777 . S
C1704 C673 1.537 . S
C1692 C439 1.563 . S
C1731 C672 1.708 . S
C1719 C477 1.693 . S
C1746 C503 1.534 1_554 S
C1758 C675 1.624 . S
C1773 C337 1.664 . S
C1785 C591 1.672 . S
C1812 C589 1.433 . S
C1800 C183 1.470 . S
C1839 C605 1.570 . S
C1827 C221 1.435 . S
C1866 C616 1.739 . S
C1854 C247 1.672 . S
C1881 C433 1.586 . S
C1893 C549 1.556 . S
C1920 C534 1.879 . S
C1908 C61 1.832 . S
C1935 C87 1.421 . S
C1947 C547 1.540 . S
C1974 C519 1.488 . S
C1962 C23 1.539 . S
