# Generated by pormake.
# Topology zzz, (3,6)-cn, num edge types: 1
# Building blocks:
#     Node 0, Type 0, BuildingBlock: CUQRIR_clean_linker_1, # of connection points: 3
#     Node 1, Type 0, BuildingBlock: CUQRIR_clean_linker_1, # of connection points: 3
#     Node 2, Type 0, BuildingBlock: CUQRIR_clean_linker_1, # of connection points: 3
#     Node 3, Type 0, BuildingBlock: CUQRIR_clean_linker_1, # of connection points: 3
#     Node 4, Type 0, BuildingBlock: CUQRIR_clean_linker_1, # of connection points: 3
#     Node 5, Type 0, BuildingBlock: CUQRIR_clean_linker_1, # of connection points: 3
#     Node 6, Type 0, BuildingBlock: CUQRIR_clean_linker_1, # of connection points: 3
#     Node 7, Type 0, BuildingBlock: CUQRIR_clean_linker_1, # of connection points: 3
#     Node 8, Type 1, BuildingBlock: PAMTOO_clean_sbu_0, # of connection points: 6
#     Node 9, Type 1, BuildingBlock: PAMTOO_clean_sbu_0, # of connection points: 6
#     Node 10, Type 1, BuildingBlock: PAMTOO_clean_sbu_0, # of connection points: 6
#     Node 11, Type 1, BuildingBlock: PAMTOO_clean_sbu_0, # of connection points: 6
#     Edge 12, Type (0, 1), BuildingBlock: UVAHIK_clean_linker_0, # of connection points: 2
#     Edge 13, Type (0, 1), BuildingBlock: UVAHIK_clean_linker_0, # of connection points: 2
#     Edge 14, Type (0, 1), BuildingBlock: UVAHIK_clean_linker_0, # of connection points: 2
#     Edge 15, Type (0, 1), BuildingBlock: UVAHIK_clean_linker_0, # of connection points: 2
#     Edge 16, Type (0, 1), BuildingBlock: UVAHIK_clean_linker_0, # of connection points: 2
#     Edge 17, Type (0, 1), BuildingBlock: UVAHIK_clean_linker_0, # of connection points: 2
#     Edge 18, Type (0, 1), BuildingBlock: UVAHIK_clean_linker_0, # of connection points: 2
#     Edge 19, Type (0, 1), BuildingBlock: UVAHIK_clean_linker_0, # of connection points: 2
#     Edge 20, Type (0, 1), BuildingBlock: UVAHIK_clean_linker_0, # of connection points: 2
#     Edge 21, Type (0, 1), BuildingBlock: UVAHIK_clean_linker_0, # of connection points: 2
#     Edge 22, Type (0, 1), BuildingBlock: UVAHIK_clean_linker_0, # of connection points: 2
#     Edge 23, Type (0, 1), BuildingBlock: UVAHIK_clean_linker_0, # of connection points: 2
#     Edge 24, Type (0, 1), BuildingBlock: UVAHIK_clean_linker_0, # of connection points: 2
#     Edge 25, Type (0, 1), BuildingBlock: UVAHIK_clean_linker_0, # of connection points: 2
#     Edge 26, Type (0, 1), BuildingBlock: UVAHIK_clean_linker_0, # of connection points: 2
#     Edge 27, Type (0, 1), BuildingBlock: UVAHIK_clean_linker_0, # of connection points: 2
#     Edge 28, Type (0, 1), BuildingBlock: UVAHIK_clean_linker_0, # of connection points: 2
#     Edge 29, Type (0, 1), BuildingBlock: UVAHIK_clean_linker_0, # of connection points: 2
#     Edge 30, Type (0, 1), BuildingBlock: UVAHIK_clean_linker_0, # of connection points: 2
#     Edge 31, Type (0, 1), BuildingBlock: UVAHIK_clean_linker_0, # of connection points: 2
#     Edge 32, Type (0, 1), BuildingBlock: UVAHIK_clean_linker_0, # of connection points: 2
#     Edge 33, Type (0, 1), BuildingBlock: UVAHIK_clean_linker_0, # of connection points: 2
#     Edge 34, Type (0, 1), BuildingBlock: UVAHIK_clean_linker_0, # of connection points: 2
#     Edge 35, Type (0, 1), BuildingBlock: UVAHIK_clean_linker_0, # of connection points: 2
# Relax obj value: 0.212
# Max RMSD: 0.245
# Mean RMSD: 0.124
data_MOF--net-zzz--node1-PAMTOO_clean_sbu_0--node2-CUQRIR_clean_linker_1--edge1-UVAHIK_clean_linker_0
_symmetry_space_group_name_H-M    P1
_symmetry_Int_Tables_number       1
_symmetry_cell_setting            triclinic
loop_
_symmetry_equiv_pos_as_xyz
'x, y, z'
_cell_length_a     69.148898
_cell_length_b     61.256592
_cell_length_c     18.548708
_cell_angle_alpha  91.477333
_cell_angle_beta   81.430089
_cell_angle_gamma 86.21248
loop_
_atom_site_label
_atom_site_type_symbol
_atom_site_fract_x
_atom_site_fract_y
_atom_site_fract_z
_atom_type_partial_charge
C0 C 0.7802 0.51248 0.46904 0.0
N1 N 0.79833 0.51926 0.47224 0.0
N2 N 0.77342 0.51987 0.40841 0.0
C3 C 0.77011 0.49681 0.52026 0.0
C4 C 0.78815 0.53121 0.37491 0.0
N5 N 0.80323 0.53092 0.41371 0.0
C6 C 0.78796 0.54213 0.30336 0.0
H7 H 0.77322 0.47997 0.49595 0.0
H8 H 0.75401 0.50059 0.52835 0.0
H9 H 0.77551 0.49739 0.57365 0.0
H10 H 0.77285 0.5484 0.29777 0.0
H11 H 0.79316 0.52996 0.25816 0.0
H12 H 0.7978 0.55579 0.29857 0.0
C13 C 1.00029 0.71995 0.44943 0.0
N14 N 0.99649 0.74191 0.45924 0.0
N15 N 0.99727 0.71335 0.38171 0.0
C16 C 1.00827 0.7053 0.50313 0.0
C17 C 0.9916 0.7321 0.35107 0.0
N18 N 0.9911 0.74933 0.39812 0.0
C19 C 0.9879 0.73379 0.2735 0.0
H20 H 0.02436 0.70242 0.48683 0.0
H21 H 1.00179 0.68922 0.50267 0.0
H22 H 1.00532 0.71291 0.55899 0.0
H23 H 0.98243 0.71841 0.254 0.0
H24 H 1.00186 0.73671 0.23831 0.0
H25 H 0.97714 0.74769 0.26831 0.0
C26 C 0.78138 0.99653 0.32613 0.0
N27 N 0.7618 0.99569 0.32485 0.0
N28 N 0.79181 0.99228 0.25811 0.0
C29 C 0.79022 0.0023 0.39245 0.0
C30 C 0.7778 0.98903 0.21584 0.0
N31 N 0.75979 0.99097 0.25621 0.0
C32 C 0.78182 0.98466 0.1346 0.0
H33 H 0.79082 0.02034 0.39663 0.0
H34 H 0.80539 0.99468 0.38816 0.0
H35 H 0.78112 0.99701 0.44249 0.0
H36 H 0.78897 0.96793 0.12307 0.0
H37 H 0.79213 0.99637 0.10903 0.0
H38 H 0.76823 0.98582 0.10948 0.0
C39 C 0.53207 0.76183 0.26954 0.0
N40 N 0.52918 0.74014 0.26881 0.0
N41 N 0.5275 0.77093 0.20754 0.0
C42 C 0.53823 0.77429 0.33202 0.0
C43 C 0.5219 0.75391 0.16926 0.0
N44 N 0.5228 0.7354 0.20666 0.0
C45 C 0.51656 0.75506 0.09364 0.0
H46 H 0.53214 0.79156 0.33464 0.0
H47 H 0.55446 0.77415 0.32368 0.0
H48 H 0.53342 0.76652 0.38446 0.0
H49 H 0.52411 0.76816 0.06291 0.0
H50 H 0.50049 0.75871 0.09783 0.0
H51 H 0.52043 0.7392 0.06297 0.0
C52 C 0.2568 0.49024 0.06828 0.0
N53 N 0.23964 0.48231 0.05695 0.0
N54 N 0.26523 0.47799 0.11674 0.0
C55 C 0.26469 0.51057 0.03554 0.0
C56 C 0.25234 0.46261 0.13528 0.0
N57 N 0.2368 0.46523 0.09903 0.0
C58 C 0.25411 0.44642 0.19398 0.0
H59 H 0.26057 0.51265 0.98042 0.0
H60 H 0.28088 0.51 0.03232 0.0
H61 H 0.2582 0.52494 0.07064 0.0
H62 H 0.25277 0.45538 0.24745 0.0
H63 H 0.26874 0.43739 0.18396 0.0
H64 H 0.2427 0.43444 0.19634 0.0
C65 C 0.03903 0.27552 0.0914 0.0
N66 N 0.04454 0.2541 0.07613 0.0
N67 N 0.05009 0.28408 0.13835 0.0
C68 C 0.02218 0.28763 0.06395 0.0
C69 C 0.06237 0.26692 0.15138 0.0
N70 N 0.059 0.24872 0.11357 0.0
C71 C 0.07649 0.2676 0.20571 0.0
H72 H 0.02386 0.30553 0.06484 0.0
H73 H 1.00837 0.28441 0.09963 0.0
H74 H 0.02107 0.28175 0.00773 0.0
H75 H 0.06822 0.27179 0.26086 0.0
H76 H 0.08674 0.28054 0.19179 0.0
H77 H 0.08527 0.25184 0.20672 0.0
C78 C 0.26493 0.00044 0.18762 0.0
N79 N 0.28421 0.99365 0.18573 0.0
N80 N 0.25366 0.99286 0.24745 0.0
C81 C 0.25705 0.01351 0.12988 0.0
C82 C 0.26689 0.98154 0.28185 0.0
N83 N 0.28515 0.98185 0.2443 0.0
C84 C 0.26225 0.97161 0.35536 0.0
H85 H 0.2572 0.03118 0.14436 0.0
H86 H 0.24171 0.00982 0.12638 0.0
H87 H 0.26633 0.01013 0.07609 0.0
H88 H 0.25908 0.95426 0.34739 0.0
H89 H 0.24927 0.98042 0.38858 0.0
H90 H 0.27487 0.97196 0.38585 0.0
C91 C 0.52327 0.25497 0.23365 0.0
N92 N 0.5282 0.27601 0.23358 0.0
N93 N 0.53007 0.24425 0.28891 0.0
C94 C 0.51113 0.24521 0.18211 0.0
C95 C 0.5392 0.25958 0.32259 0.0
N96 N 0.538 0.27888 0.28908 0.0
C97 C 0.54841 0.25599 0.39034 0.0
H98 H 0.51394 0.22715 0.17723 0.0
H99 H 0.51425 0.25229 0.1275 0.0
H100 H 0.4954 0.24914 0.20355 0.0
H101 H 0.55551 0.23925 0.39009 0.0
H102 H 0.53678 0.25797 0.43865 0.0
H103 H 0.55951 0.26796 0.39584 0.0
Dy104 Dy 1.01132 0.0056 0.67726 0.0
Dy105 Dy 0.0327 0.99331 0.81701 0.0
C106 C 0.05821 0.00016 0.66144 0.0
O107 O 0.01876 0.9694 0.66849 0.0
O108 O 0.01964 0.96239 0.78833 0.0
O109 O 1.00699 0.99722 0.5673 0.0
O110 O 0.99282 0.02696 0.62105 0.0
O111 O 1.0008 0.00065 0.86296 0.0
O112 O 0.98641 0.99602 0.76017 0.0
O113 O 0.03779 0.02829 0.79447 0.0
O114 O 1.00998 0.03645 0.74596 0.0
O115 O 0.03979 0.0038 0.92111 0.0
O116 O 0.05075 0.97177 0.87434 0.0
C117 C 0.01832 0.95562 0.72165 0.0
O118 O 0.0431 0.01217 0.64504 0.0
O119 O 0.05631 0.98804 0.71929 0.0
C120 C 1.0056 0.02807 0.49675 0.0
C121 C 0.02264 0.05058 0.37563 0.0
C122 C 0.03148 0.04944 0.43907 0.0
C123 C 0.02303 0.03832 0.49898 0.0
C124 C 0.9967 0.02898 0.43368 0.0
C125 C 1.00512 0.04028 0.37349 0.0
C126 C 0.99737 0.01577 0.55946 0.0
C127 C 0.98514 0.99805 0.83173 0.0
C128 C 0.02423 0.04268 0.77933 0.0
C129 C 0.04096 0.97462 0.00156 0.0
C130 C 0.02559 0.95167 0.12453 0.0
C131 C 0.01521 0.97041 0.10379 0.0
C132 C 0.02276 0.9817 0.04264 0.0
C133 C 0.05177 0.9566 0.02413 0.0
C134 C 0.04414 0.94517 0.08479 0.0
C135 C 0.04815 0.98474 0.93241 0.0
H136 H 0.04473 0.0576 0.44318 0.0
H137 H 0.03008 0.03782 0.54731 0.0
H138 H 0.9833 0.02098 0.431 0.0
H139 H 0.998 0.0409 0.32531 0.0
H140 H 1.00102 0.97605 0.13369 0.0
H141 H 0.01406 0.99557 0.02648 0.0
H142 H 0.0658 0.95084 0.9931 0.0
H143 H 0.05243 0.93061 0.09824 0.0
Dy144 Dy 0.51734 0.99144 0.67413 0.0
Dy145 Dy 0.52483 0.02173 0.81335 0.0
C146 C 0.51724 0.04326 0.66577 0.0
O147 O 0.55029 0.9905 0.66243 0.0
O148 O 0.55468 0.01805 0.74406 0.0
O149 O 0.50718 0.98786 0.5707 0.0
O150 O 0.52012 0.9596 0.61866 0.0
O151 O 0.53546 0.98755 0.83429 0.0
O152 O 0.51388 0.97112 0.77309 0.0
O153 O 0.49354 0.01302 0.83996 0.0
O154 O 0.48665 0.00284 0.72724 0.0
O155 O 0.51755 0.02956 0.92835 0.0
O156 O 0.53792 0.04867 0.86104 0.0
C157 C 0.56168 0.0038 0.69047 0.0
O158 O 0.52349 0.02448 0.63202 0.0
O159 O 0.51261 0.04466 0.73702 0.0
C160 C 0.49437 0.95423 0.55156 0.0
C161 C 0.46142 0.9357 0.50963 0.0
C162 C 0.45967 0.94868 0.57436 0.0
C163 C 0.47602 0.95779 0.59525 0.0
C164 C 0.49651 0.94028 0.48951 0.0
C165 C 0.48016 0.93096 0.46884 0.0
C166 C 0.51077 0.96665 0.56676 0.0
C167 C 0.52557 0.97062 0.82265 0.0
C168 C 0.48085 0.00821 0.79676 0.0
C169 C 0.54406 0.04142 0.9794 0.0
C170 C 0.5715 0.03572 0.07581 0.0
C171 C 0.56716 0.01793 0.03316 0.0
C172 C 0.55361 0.02077 0.98515 0.0
C173 C 0.54801 0.05916 0.02268 0.0
C174 C 0.56172 0.05636 0.07056 0.0
C175 C 0.53026 0.04436 0.92726 0.0
H176 H 0.4455 0.95298 0.60672 0.0
H177 H 0.47417 0.9685 0.64354 0.0
H178 H 0.51065 0.93729 0.45552 0.0
H179 H 0.48208 0.92074 0.41944 0.0
H180 H 0.57477 0.00195 0.03488 0.0
H181 H 0.55081 0.00692 0.95169 0.0
H182 H 0.54071 0.0752 0.01873 0.0
H183 H 0.56484 0.07032 0.10286 0.0
Dy184 Dy 0.54857 0.50657 0.7649 0.0
Dy185 Dy 0.50438 0.50333 0.70893 0.0
C186 C 0.52002 0.46825 0.81703 0.0
O187 O 0.55462 0.49305 0.65013 0.0
O188 O 0.52541 0.47716 0.65281 0.0
O189 O 0.57722 0.49231 0.77933 0.0
O190 O 0.56805 0.52564 0.81745 0.0
O191 O 0.51816 0.53033 0.64583 0.0
O192 O 0.54473 0.53708 0.70324 0.0
O193 O 0.50241 0.53213 0.78592 0.0
O194 O 0.52459 0.51792 0.85513 0.0
O195 O 0.49012 0.49841 0.61555 0.0
O196 O 0.4722 0.5036 0.72366 0.0
C197 C 0.54363 0.47913 0.62353 0.0
O198 O 0.53802 0.47422 0.79958 0.0
O199 O 0.5046 0.47943 0.79888 0.0
C200 C 0.592 0.50668 0.87841 0.0
C201 C 0.6168 0.50333 0.98742 0.0
C202 C 0.61496 0.48522 0.94119 0.0
C203 C 0.60278 0.4869 0.88725 0.0
C204 C 0.59334 0.52456 0.92615 0.0
C205 C 0.60551 0.52289 0.98005 0.0
C206 C 0.58162 0.50965 0.81418 0.0
C207 C 0.53259 0.54233 0.65719 0.0
C208 C 0.51032 0.53232 0.84597 0.0
C209 C 0.45507 0.49787 0.61691 0.0
C210 C 0.42228 0.49489 0.54234 0.0
C211 C 0.44141 0.48908 0.50673 0.0
C212 C 0.45754 0.49056 0.54341 0.0
C213 C 0.43599 0.50355 0.6531 0.0
C214 C 0.41976 0.50215 0.61611 0.0
C215 C 0.47259 0.50019 0.65342 0.0
H216 H 0.62321 0.4698 0.94582 0.0
H217 H 0.6023 0.47286 0.85101 0.0
H218 H 0.58554 0.54018 0.92019 0.0
H219 H 0.6067 0.53728 0.01381 0.0
H220 H 0.444 0.48375 0.44977 0.0
H221 H 0.47202 0.48611 0.51367 0.0
H222 H 0.43363 0.50929 0.70965 0.0
H223 H 0.40523 0.5066 0.6454 0.0
Dy224 Dy 0.02415 0.51724 0.69663 0.0
Dy225 Dy 0.01435 0.4814 0.82149 0.0
C226 C 0.02808 0.4656 0.65571 0.0
O227 O 0.99162 0.51897 0.73232 0.0
O228 O 0.99016 0.48279 0.75347 0.0
O229 O 0.01349 0.53715 0.61437 0.0
O230 O 0.0439 0.53698 0.629 0.0
O231 O 1.00502 0.51427 0.87758 0.0
O232 O 0.02257 0.53703 0.79988 0.0
O233 O 0.04252 0.49447 0.84014 0.0
O234 O 0.05333 0.50412 0.72372 0.0
O235 O 0.02343 0.45645 0.89244 0.0
O236 O 0.99259 0.46586 0.89424 0.0
C237 C 0.9818 0.50134 0.73608 0.0
O238 O 0.02294 0.48539 0.63682 0.0
O239 O 0.02927 0.46123 0.724 0.0
C240 C 0.03734 0.53495 0.5086 0.0
C241 C 0.0551 0.51457 0.37484 0.0
C242 C 0.03712 0.50799 0.41007 0.0
C243 C 0.02836 0.51801 0.47646 0.0
C244 C 0.05437 0.5428 0.47046 0.0
C245 C 0.06319 0.53271 0.4042 0.0
C246 C 0.03108 0.54172 0.5859 0.0
C247 C 0.01255 0.53322 0.86374 0.0
C248 C 0.05676 0.49933 0.7896 0.0
C249 C 1.00297 0.46086 0.00652 0.0
C250 C 0.98876 0.48029 0.145 0.0
C251 C 0.98076 0.46135 0.12064 0.0
C252 C 0.98781 0.45175 0.05188 0.0
C253 C 1.01238 0.47827 0.0336 0.0
C254 C 1.00544 0.48778 0.10261 0.0
C255 C 1.00568 0.45578 0.92774 0.0
H256 H 0.03036 0.4943 0.38843 0.0
H257 H 0.0152 0.51156 0.50459 0.0
H258 H 0.06159 0.55574 0.49437 0.0
H259 H 0.07715 0.53808 0.37909 0.0
H260 H 0.96779 0.45518 0.15122 0.0
H261 H 0.98027 0.43846 0.03162 0.0
H262 H 0.02406 0.48568 0.99922 0.0
H263 H 1.01215 0.50208 0.12019 0.0
C264 C 0.22252 0.97623 0.28979 0.0
C265 C 0.23256 0.99498 0.27067 0.0
C266 C 0.20324 0.97798 0.32681 0.0
C267 C 0.15705 0.01161 0.36944 0.0
H268 H 0.15113 0.98199 0.55267 0.0
C269 C 0.08224 0.01761 0.56702 0.0
C270 C 0.07781 0.00041 0.61432 0.0
C271 C 0.10079 0.01791 0.5238 0.0
C272 C 0.15217 0.99002 0.50114 0.0
H273 H 0.22961 0.03034 0.27135 0.0
H274 H 0.19532 0.03347 0.3335 0.0
H275 H 0.18296 0.98061 0.47641 0.0
H276 H 0.08944 0.96966 0.65092 0.0
H277 H 0.12105 0.96946 0.57377 0.0
H278 H 0.12615 0.02025 0.39193 0.0
C279 C 0.20267 0.01737 0.32082 0.0
C280 C 0.17065 0.98938 0.45755 0.0
C281 C 0.22223 0.0156 0.28479 0.0
C282 C 0.09234 0.98334 0.61603 0.0
C283 C 0.1107 0.98338 0.57177 0.0
C284 C 0.13838 0.01185 0.41231 0.0
C285 C 0.19317 0.99856 0.34443 0.0
C286 C 0.17338 8e-05 0.39103 0.0
C287 C 0.11546 0.00078 0.52521 0.0
C288 C 0.13552 0.00096 0.47907 0.0
H289 H 0.22999 0.96013 0.2789 0.0
H290 H 0.19631 0.96316 0.34316 0.0
H291 H 0.15861 0.01993 0.3183 0.0
H292 H 0.07147 0.03111 0.56428 0.0
H293 H 0.10363 0.03186 0.49021 0.0
C294 C 0.54278 0.20699 0.3117 0.0
C295 C 0.52684 0.22237 0.3121 0.0
C296 C 0.54012 0.18671 0.34324 0.0
C297 C 0.50571 0.15982 0.48014 0.0
H298 H 0.53862 0.10781 0.40852 0.0
C299 C 0.51332 0.08418 0.65713 0.0
C300 C 0.51606 0.06327 0.6226 0.0
C301 C 0.51315 0.10303 0.61599 0.0
C302 C 0.52909 0.12205 0.42898 0.0
H303 H 0.49553 0.2285 0.34185 0.0
H304 H 0.49056 0.1927 0.39535 0.0
H305 H 0.54047 0.14082 0.33861 0.0
H306 H 0.52017 0.04583 0.51755 0.0
H307 H 0.51938 0.07856 0.44612 0.0
H308 H 0.49403 0.1409 0.56975 0.0
C309 C 0.50526 0.19643 0.37247 0.0
C310 C 0.53035 0.14115 0.38921 0.0
C311 C 0.508 0.21679 0.34119 0.0
C312 C 0.5182 0.06167 0.54601 0.0
C313 C 0.51786 0.08049 0.50492 0.0
C314 C 0.50435 0.14067 0.51969 0.0
C315 C 0.52136 0.18127 0.37535 0.0
C316 C 0.51888 0.16041 0.41469 0.0
C317 C 0.51555 0.10147 0.53923 0.0
C318 C 0.5162 0.12158 0.49518 0.0
H319 H 0.55741 0.21105 0.28916 0.0
H320 H 0.55292 0.17567 0.34493 0.0
H321 H 0.49677 0.17434 0.50209 0.0
H322 H 0.51172 0.08604 0.71599 0.0
H323 H 0.51163 0.11884 0.64449 0.0
C324 C 0.29797 0.46632 0.14481 0.0
C325 C 0.28212 0.48208 0.15089 0.0
C326 C 0.3132 0.46868 0.18571 0.0
C327 C 0.336 0.50849 0.29674 0.0
H328 H 0.35512 0.45584 0.38289 0.0
C329 C 0.38994 0.51009 0.50957 0.0
C330 C 0.40525 0.49348 0.50175 0.0
C331 C 0.37458 0.50922 0.46809 0.0
C332 C 0.35012 0.47069 0.35873 0.0
H333 H 0.26984 0.51293 0.20255 0.0
H334 H 0.29648 0.51726 0.27456 0.0
H335 H 0.32973 0.45385 0.30566 0.0
H336 H 0.41598 0.46258 0.44547 0.0
H337 H 0.38952 0.46121 0.37287 0.0
H338 H 0.35646 0.5253 0.35017 0.0
C339 C 0.29732 0.50312 0.23771 0.0
C340 C 0.33555 0.46954 0.31417 0.0
C341 C 0.28208 0.50071 0.19656 0.0
C342 C 0.40458 0.4758 0.45242 0.0
C343 C 0.38925 0.4749 0.41123 0.0
C344 C 0.35061 0.50964 0.34144 0.0
C345 C 0.3129 0.48688 0.23399 0.0
C346 C 0.32837 0.48838 0.28204 0.0
C347 C 0.37408 0.49164 0.41809 0.0
C348 C 0.35798 0.49071 0.37266 0.0
H349 H 0.29828 0.4519 0.10953 0.0
H350 H 0.32513 0.45608 0.18009 0.0
H351 H 0.33096 0.52331 0.27253 0.0
H352 H 0.39003 0.52403 0.54658 0.0
H353 H 0.36306 0.52228 0.47544 0.0
C354 C 0.06264 0.31845 0.1782 0.0
C355 C 0.04707 0.30488 0.17796 0.0
C356 C 0.06071 0.33699 0.22506 0.0
C357 C 0.02492 0.37604 0.33736 0.0
H358 H 0.06659 0.38234 0.45361 0.0
C359 C 0.02765 0.45185 0.52736 0.0
C360 C 0.03149 0.44775 0.59842 0.0
C361 C 0.02996 0.43503 0.47374 0.0
C362 C 0.05483 0.38077 0.42166 0.0
H363 H 0.01707 0.30038 0.22408 0.0
H364 H 0.01339 0.3332 0.30491 0.0
H365 H 0.0694 0.35244 0.36191 0.0
H366 H 0.04124 0.42267 0.66799 0.0
H367 H 0.04543 0.39328 0.57391 0.0
H368 H 1.01032 0.40434 0.39735 0.0
C369 C 0.02714 0.32947 0.26909 0.0
C370 C 0.05651 0.36378 0.36868 0.0
C371 C 0.02918 0.31077 0.22274 0.0
C372 C 0.03811 0.42643 0.61399 0.0
C373 C 0.04059 0.40961 0.56 0.0
C374 C 0.02335 0.39321 0.38971 0.0
C375 C 0.04305 0.3425 0.27203 0.0
C376 C 0.04152 0.36113 0.32621 0.0
C377 C 0.03634 0.41368 0.4895 0.0
C378 C 0.03823 0.39568 0.43281 0.0
H379 H 0.07646 0.31435 0.14326 0.0
H380 H 0.07312 0.34689 0.22517 0.0
H381 H 0.01317 0.37449 0.30531 0.0
H382 H 0.02257 0.46805 0.5131 0.0
H383 H 0.02682 0.43876 0.41972 0.0
C384 C 0.82292 0.97315 0.19886 0.0
C385 C 0.81268 0.9922 0.23245 0.0
C386 C 0.84202 0.9737 0.16084 0.0
C387 C 0.88551 0.0078 0.12739 0.0
H388 H 0.8973 0.97211 0.94861 0.0
C389 C 0.96387 -0.00094 0.95572 0.0
C390 C 0.96554 0.99751 0.87902 0.0
C391 C 0.94555 0.99861 0.00023 0.0
C392 C 0.89431 0.98236 0.99797 0.0
H393 H 0.81461 0.02672 0.2539 0.0
H394 H 0.84807 0.02789 0.18776 0.0
H395 H 0.86547 0.97122 0.02418 0.0
H396 H 0.94883 0.99432 0.78975 0.0
H397 H 0.91704 0.99373 0.86683 0.0
H398 H 0.91425 0.01932 0.10002 0.0
C399 C 0.84148 0.01234 0.19135 0.0
C400 C 0.87602 0.98161 0.04223 0.0
C401 C 0.82231 0.01172 0.22964 0.0
C402 C 0.94826 0.99548 0.8484 0.0
C403 C 0.92994 0.99501 0.89292 0.0
C404 C 0.90386 0.00853 0.08309 0.0
C405 C 0.85149 0.99342 0.15469 0.0
C406 C 0.87126 0.99427 0.10787 0.0
C407 C 0.92824 0.99655 0.9697 0.0
C408 C 0.90859 0.99583 0.01747 0.0
H409 H 0.81581 0.95791 0.20004 0.0
H410 H 0.84923 0.95865 0.13518 0.0
H411 H 0.8826 0.01772 0.17749 0.0
H412 H 0.97676 0.00055 0.98175 0.0
H413 H 0.94506 -0.00049 0.05885 0.0
C414 C 0.54468 0.80467 0.18035 0.0
C415 C 0.52748 0.79344 0.18672 0.0
C416 C 0.54532 0.82518 0.14819 0.0
C417 C 0.52368 0.85435 0.00908 0.0
H418 H 0.54133 0.90772 0.08609 0.0
C419 C 0.51268 0.93555 0.86859 0.0
C420 C 0.52681 0.95103 0.86771 0.0
C421 C 0.5136 0.91702 0.91061 0.0
C422 C 0.53665 0.89288 0.06314 0.0
H423 H 0.49716 0.79533 0.16996 0.0
H424 H 0.4983 0.83082 0.11262 0.0
H425 H 0.54164 0.87444 0.15669 0.0
H426 H 0.55298 0.95922 0.91088 0.0
H427 H 0.55502 0.92639 0.98242 0.0
H428 H 0.5192 0.87212 0.91492 0.0
C429 C 0.51133 0.82381 0.13174 0.0
C430 C 0.53676 0.87387 0.10387 0.0
C431 C 0.51065 0.80357 0.16452 0.0
C432 C 0.54186 0.94759 0.91035 0.0
C433 C 0.54294 0.92881 0.95179 0.0
C434 C 0.52386 0.87313 0.96801 0.0
C435 C 0.5288 0.83456 0.12139 0.0
C436 C 0.52992 0.85455 0.0777 0.0
C437 C 0.52886 0.91318 0.95218 0.0
C438 C 0.52996 0.89284 0.9949 0.0
H439 H 0.55785 0.79708 0.19681 0.0
H440 H 0.55897 0.83314 0.14082 0.0
H441 H 0.51869 0.83955 0.98693 0.0
H442 H 0.50071 0.93782 0.8373 0.0
H443 H 0.50213 0.9058 0.91086 0.0
C444 C 0.7581 0.50196 0.31314 0.0
C445 C 0.75617 0.51427 0.37893 0.0
C446 C 0.74172 0.49874 0.27905 0.0
C447 C 0.69242 0.524 0.26637 0.0
H448 H 0.6869 0.46978 0.16133 0.0
C449 C 0.62694 0.51302 0.10918 0.0
C450 C 0.63125 0.50228 0.04004 0.0
C451 C 0.64098 0.51308 0.15648 0.0
C452 C 0.68828 0.48511 0.18986 0.0
H453 H 0.7358 0.53258 0.46167 0.0
H454 H 0.70687 0.52685 0.40267 0.0
H455 H 0.71334 0.47206 0.23417 0.0
H456 H 0.65393 0.4832 0.96695 0.0
H457 H 0.67828 0.48329 0.04902 0.0
H458 H 0.66761 0.5372 0.221 0.0
C459 C 0.72107 0.51975 0.377 0.0
C460 C 0.70346 0.4864 0.2318 0.0
C461 C 0.73751 0.52286 0.41125 0.0
C462 C 0.6499 0.49131 0.02014 0.0
C463 C 0.66392 0.49138 0.06738 0.0
C464 C 0.67726 0.52272 0.22432 0.0
C465 C 0.723 0.5079 0.30982 0.0
C466 C 0.7059 0.50595 0.2699 0.0
C467 C 0.65974 0.50242 0.13601 0.0
C468 C 0.67512 0.50334 0.18468 0.0
H469 H 0.77243 0.49533 0.28723 0.0
H470 H 0.74388 0.48977 0.22707 0.0
H471 H 0.69398 0.53942 0.29406 0.0
H472 H 0.61266 0.52139 0.12689 0.0
H473 H 0.63709 0.52147 0.20929 0.0
C474 C 0.01613 0.68968 0.28353 0.0
C475 C 1.0016 0.6922 0.34509 0.0
C476 C 0.01774 0.67094 0.23791 0.0
C477 C 1.00405 0.61409 0.21894 0.0
H478 H 1.00612 0.62814 0.01542 0.0
C479 C 0.99862 0.54837 0.99028 0.0
C480 C 1.01032 0.55066 0.92232 0.0
C481 C 0.99708 0.56484 0.04535 0.0
C482 C 1.00584 0.62379 0.07175 0.0
H483 H 0.978 0.67686 0.40977 0.0
H484 H 0.98098 0.64358 0.33039 0.0
H485 H 1.00563 0.65734 0.10678 0.0
H486 H 0.02996 0.57191 0.86017 0.0
H487 H 0.02769 0.60003 0.95572 0.0
H488 H 1.0046 0.5804 0.18343 0.0
C489 C 0.99114 0.65613 0.31743 0.0
C490 C 1.00551 0.6406 0.12426 0.0
C491 C 0.98946 0.67505 0.36296 0.0
C492 C 0.02057 0.56965 0.91124 0.0
C493 C 0.01918 0.58593 0.96623 0.0
C494 C 1.00459 0.59714 0.16604 0.0
C495 C 1.00486 0.65424 0.253 0.0
C496 C 1.00483 0.63599 0.19836 0.0
C497 C 1.00731 0.5839 0.03394 0.0
C498 C 1.00572 0.60176 0.09152 0.0
H499 H 0.02559 0.70278 0.26892 0.0
H500 H 0.02867 0.66983 0.18938 0.0
H501 H 1.0035 0.61004 0.27566 0.0
H502 H 0.9906 0.53391 0.00094 0.0
H503 H 0.98766 0.56277 0.09644 0.0
C504 C 0.06105 0.21783 0.19421 0.0
C505 C 0.06556 0.22647 0.12499 0.0
C506 C 0.06287 0.1953 0.2028 0.0
C507 C 0.05475 0.14609 0.11088 0.0
H508 H 0.07583 0.1185 0.27109 0.0
C509 C 0.05165 0.06334 0.29431 0.0
C510 C 0.0312 0.0638 0.3146 0.0
C511 C 0.05999 0.07898 0.24835 0.0
C512 C 0.07022 0.1257 0.22495 0.0
H513 H 0.07646 0.21872 0.01124 0.0
H514 H 0.07877 0.17888 0.02555 0.0
H515 H 0.08482 0.15503 0.23701 0.0
H516 H 1.00342 0.07975 0.29733 0.0
H517 H 0.01798 0.10708 0.21709 0.0
H518 H 0.03904 0.11732 0.10219 0.0
C519 C 0.0742 0.18964 0.07317 0.0
C520 C 0.0753 0.14665 0.20584 0.0
C521 C 0.07292 0.21229 0.06504 0.0
C522 C 0.01921 0.07893 0.28256 0.0
C523 C 0.02757 0.09457 0.2364 0.0
C524 C 0.04945 0.12517 0.13062 0.0
C525 C 0.06879 0.181 0.14198 0.0
C526 C 0.06709 0.15729 0.1504 0.0
C527 C 0.04805 0.09535 0.2216 0.0
C528 C 0.05664 0.1151 0.18951 0.0
H529 H 0.05488 0.22843 0.24071 0.0
H530 H 0.05834 0.18898 0.25626 0.0
H531 H 0.04812 0.1541 0.06822 0.0
H532 H 0.06124 0.05153 0.31691 0.0
H533 H 0.07582 0.079 0.23688 0.0
C534 C 0.31659 0.98674 0.28646 0.0
C535 C 0.30282 0.97281 0.26713 0.0
C536 C 0.33319 0.97812 0.31319 0.0
C537 C 0.36669 0.93036 0.31256 0.0
H538 H 0.37714 0.95552 0.49578 0.0
C539 C 0.44236 0.93174 0.40584 0.0
C540 C 0.4435 0.92975 0.48054 0.0
C541 C 0.42443 0.93087 0.38037 0.0
C542 C 0.37426 0.94806 0.44521 0.0
H543 H 0.29539 0.93926 0.25791 0.0
H544 H 0.32491 0.92387 0.30337 0.0
H545 H 0.3472 0.96745 0.44868 0.0
H546 H 0.42701 0.92293 0.58556 0.0
H547 H 0.39554 0.92208 0.54111 0.0
H548 H 0.39428 0.9117 0.30759 0.0
C549 C 0.32277 0.94142 0.29849 0.0
C550 C 0.35727 0.95506 0.41798 0.0
C551 C 0.30599 0.95012 0.27286 0.0
C552 C 0.42657 0.92506 0.52804 0.0
C553 C 0.40858 0.92445 0.50265 0.0
C554 C 0.38391 0.92359 0.33928 0.0
C555 C 0.33632 0.95541 0.31992 0.0
C556 C 0.35352 0.94656 0.35091 0.0
C557 C 0.40725 0.9282 0.42914 0.0
C558 C 0.38795 0.93263 0.40538 0.0
H559 H 0.31422 0.00428 0.28232 0.0
H560 H 0.34356 0.98918 0.3288 0.0
H561 H 0.36405 0.92362 0.26063 0.0
H562 H 0.455 0.93561 0.36768 0.0
H563 H 0.42378 0.93398 0.32352 0.0
C564 C 0.5381 0.3081 0.38248 0.0
C565 C 0.5446 0.29939 0.31178 0.0
C566 C 0.54427 0.32808 0.40461 0.0
C567 C 0.56013 0.37983 0.33564 0.0
H568 H 0.5728 0.38796 0.53093 0.0
C569 C 0.54013 0.45741 0.51269 0.0
C570 C 0.55199 0.46344 0.56394 0.0
C571 C 0.54566 0.43916 0.46603 0.0
C572 C 0.56978 0.38595 0.47559 0.0
H573 H 0.5625 0.30447 0.20853 0.0
H574 H 0.57295 0.34003 0.24646 0.0
H575 H 0.56991 0.35111 0.48266 0.0
H576 H 0.57947 0.45621 0.60395 0.0
H577 H 0.58908 0.42375 0.52272 0.0
H578 H 0.55899 0.41479 0.33012 0.0
C579 C 0.56325 0.33124 0.28494 0.0
C580 C 0.56789 0.36487 0.44834 0.0
C581 C 0.55725 0.31105 0.26317 0.0
C582 C 0.57018 0.4519 0.56439 0.0
C583 C 0.57559 0.43331 0.51835 0.0
C584 C 0.56187 0.40096 0.36313 0.0
C585 C 0.55687 0.3399 0.35605 0.0
C586 C 0.56234 0.36168 0.37922 0.0
C587 C 0.56301 0.42635 0.47056 0.0
C588 C 0.56601 0.40426 0.43442 0.0
H589 H 0.52803 0.29952 0.42019 0.0
H590 H 0.53877 0.33458 0.45922 0.0
H591 H 0.55582 0.37783 0.28217 0.0
H592 H 0.52603 0.46612 0.51145 0.0
H593 H 0.53555 0.43414 0.43049 0.0
C594 C 0.20725 0.46147 0.18732 0.0
C595 C 0.218 0.45646 0.11812 0.0
C596 C 0.18741 0.45776 0.20144 0.0
C597 C 0.14565 0.46023 0.10718 0.0
H598 H 0.1192 0.44703 0.29859 0.0
C599 C 0.07927 0.51007 0.25912 0.0
C600 C 0.06699 0.50064 0.31534 0.0
C601 C 0.09414 0.49723 0.21513 0.0
C602 C 0.12613 0.45028 0.24401 0.0
H603 H 0.21712 0.44224 0.01097 0.0
H604 H 0.18195 0.43634 0.03466 0.0
H605 H 0.15374 0.43579 0.26405 0.0
H606 H 0.05928 0.46985 0.36374 0.0
H607 H 0.08488 0.44752 0.286 0.0
H608 H 0.11826 0.47596 0.0889 0.0
C609 C 0.18893 0.44299 0.0781 0.0
C610 C 0.146 0.44397 0.22456 0.0
C611 C 0.20894 0.44636 0.06452 0.0
C612 C 0.06847 0.47774 0.32108 0.0
C613 C 0.08328 0.4649 0.27691 0.0
C614 C 0.12573 0.46669 0.12679 0.0
C615 C 0.17787 0.44924 0.14617 0.0
C616 C 0.15618 0.44993 0.15761 0.0
C617 C 0.09698 0.4747 0.22643 0.0
C618 C 0.11603 0.46275 0.19691 0.0
H619 H 0.21392 0.46966 0.22881 0.0
H620 H 0.17924 0.4631 0.25406 0.0
H621 H 0.15312 0.4649 0.05496 0.0
H622 H 0.07823 0.5276 0.2523 0.0
H623 H 0.10441 0.50535 0.17675 0.0
C624 C 0.9721 0.78336 0.37651 0.0
C625 C 0.99014 0.77201 0.38071 0.0
C626 C 0.97118 0.80597 0.36687 0.0
C627 C 0.99787 0.85504 0.38977 0.0
H628 H 0.97727 0.87567 0.21873 0.0
C629 C 0.02793 0.92623 0.22735 0.0
C630 C 0.01642 0.93762 0.1823 0.0
C631 C 0.02018 0.9098 0.27125 0.0
C632 C 0.98258 0.87052 0.26807 0.0
H633 H 0.0212 0.77466 0.37787 0.0
H634 H 0.01971 0.81422 0.36206 0.0
H635 H 0.97185 0.83877 0.25803 0.0
H636 H 0.98713 0.94202 0.15344 0.0
H637 H 0.97343 0.91411 0.23242 0.0
H638 H 1.00905 0.88656 0.39903 0.0
C639 C 1.00627 0.80587 0.36663 0.0
C640 C 0.97952 0.84928 0.2903 0.0
C641 C 1.0072 0.78333 0.37486 0.0
C642 C 0.99647 0.93361 0.18735 0.0
C643 C 0.98865 0.91737 0.23201 0.0
C644 C 1.00071 0.87641 0.36822 0.0
C645 C 0.98826 0.81742 0.36275 0.0
C646 C 0.98785 0.84108 0.34939 0.0
C647 C 1.00065 0.90457 0.27184 0.0
C648 C 0.99385 0.88407 0.30511 0.0
H649 H 0.95881 0.77476 0.38193 0.0
H650 H 0.95715 0.81456 0.36362 0.0
H651 H 1.00424 0.84911 0.43614 0.0
H652 H 0.04322 0.92928 0.22613 0.0
H653 H 0.02994 0.90029 0.30087 0.0
C654 C 0.7276 0.97649 0.25633 0.0
C655 C 0.74125 0.99146 0.23044 0.0
C656 C 0.70792 0.98033 0.24846 0.0
C657 C 0.67246 0.02603 0.23332 0.0
H658 H 0.64105 0.98272 0.16065 0.0
C659 C 0.60227 0.04773 0.11449 0.0
C660 C 0.58753 0.03291 0.12002 0.0
C661 C 0.61934 0.04297 0.14431 0.0
C662 C 0.64947 0.99487 0.18272 0.0
H663 H 0.74567 0.02151 0.17393 0.0
H664 H 0.71125 0.02811 0.1581 0.0
H665 H 0.67498 0.97257 0.17425 0.0
H666 H 0.57818 0.00256 0.16669 0.0
H667 H 0.60803 0.9943 0.21955 0.0
H668 H 0.64711 0.04843 0.24089 0.0
C669 C 0.71566 0.01355 0.18517 0.0
C670 C 0.66892 0.98906 0.18995 0.0
C671 C 0.73531 0.00962 0.19281 0.0
C672 C 0.5895 0.01407 0.16067 0.0
C673 C 0.60656 0.00934 0.19073 0.0
C674 C 0.65299 0.0318 0.22652 0.0
C675 C 0.70172 -0.0007 0.21492 0.0
C676 C 0.68071 0.00477 0.21331 0.0
C677 C 0.62196 0.02334 0.18044 0.0
C678 C 0.64145 0.01644 0.19928 0.0
H679 H 0.73202 0.96262 0.28661 0.0
H680 H 0.69743 0.96915 0.27198 0.0
H681 H 0.68117 0.03827 0.25325 0.0
H682 H 0.60121 0.06227 0.08288 0.0
H683 H 0.631 0.05399 0.13476 0.0
C684 C 0.49946 0.70907 0.17833 0.0
C685 C 0.51874 0.71397 0.18265 0.0
C686 C 0.49552 0.68814 0.15544 0.0
C687 C 0.4919 0.64784 0.0629 0.0
H688 H 0.52707 0.5976 0.08736 0.0
C689 C 0.49831 0.5712 0.87519 0.0
C690 C 0.50535 0.551 0.89869 0.0
C691 C 0.49664 0.58991 0.92073 0.0
C692 C 0.51676 0.61125 0.08112 0.0
H693 H 0.54902 0.70156 0.16729 0.0
H694 H 0.54257 0.6653 0.12277 0.0
H695 H 0.53037 0.632 0.14972 0.0
H696 H 0.51483 0.53415 0.98992 0.0
H697 H 0.51086 0.56658 0.07128 0.0
H698 H 0.4777 0.62683 0.9971 0.0
C699 C 0.53024 0.67707 0.13958 0.0
C700 C 0.51895 0.63123 0.11586 0.0
C701 C 0.53406 0.69785 0.16409 0.0
C702 C 0.50952 0.54958 0.97026 0.0
C703 C 0.50742 0.56824 0.01656 0.0
C704 C 0.48941 0.62773 0.02961 0.0
C705 C 0.51089 0.67189 0.13479 0.0
C706 C 0.50698 0.65 0.1053 0.0
C707 C 0.50157 0.58882 0.99159 0.0
C708 C 0.50222 0.60931 0.03618 0.0
H709 H 0.4875 0.72143 0.19348 0.0
H710 H 0.48041 0.68475 0.15413 0.0
H711 H 0.48241 0.66184 0.05284 0.0
H712 H 0.49518 0.57285 0.81999 0.0
H713 H 0.49245 0.60539 0.89858 0.0
C714 C 0.83362 0.52711 0.3259 0.0
C715 C 0.82278 0.5371 0.38937 0.0
C716 C 0.85372 0.52936 0.30979 0.0
C717 C 0.89508 0.54471 0.27684 0.0
H718 H 0.92338 0.51979 0.42438 0.0
C719 C 0.97436 0.51709 0.19479 0.0
C720 C 0.97719 0.49445 0.20467 0.0
C721 C 0.95876 0.52946 0.2363 0.0
C722 C 0.91573 0.52714 0.38315 0.0
H723 H 0.82387 0.55841 0.48315 0.0
H724 H 0.85949 0.56149 0.45698 0.0
H725 H 0.888 0.52897 0.45314 0.0
H726 H 0.96784 0.46794 0.2738 0.0
H727 H 0.94024 0.48934 0.34469 0.0
H728 H 0.92227 0.54159 0.20507 0.0
C729 C 0.85236 0.55214 0.4195 0.0
C730 C 0.89555 0.53252 0.39977 0.0
C731 C 0.83212 0.55034 0.4345 0.0
C732 C 0.96573 0.4852 0.26357 0.0
C733 C 0.95001 0.49756 0.3048 0.0
C734 C 0.91521 0.53955 0.26041 0.0
C735 C 0.86335 0.54131 0.35766 0.0
C736 C 0.88498 0.54051 0.34575 0.0
C737 C 0.94561 0.51943 0.28809 0.0
C738 C 0.92563 0.52987 0.31241 0.0
H739 H 0.82675 0.51651 0.29123 0.0
H740 H 0.86194 0.52063 0.26221 0.0
H741 H 0.8872 0.55088 0.23442 0.0
H742 H 0.98288 0.52488 0.15021 0.0
H743 H 0.95598 0.54642 0.22334 0.0
C744 C 0.04128 0.23471 0.96162 0.0
C745 C 0.03507 0.23846 0.03658 0.0
C746 C 0.03748 0.21519 0.92703 0.0
C747 C 1.00895 0.1658 0.94638 0.0
H748 H 0.05584 0.13673 0.83427 0.0
C749 C 1.00912 0.08138 0.79531 0.0
C750 C 0.02476 0.06606 0.80225 0.0
C751 C 1.0093 0.1032 0.81985 0.0
C752 C 0.04261 0.14459 0.86548 0.0
H753 H 0.01906 0.22574 0.13346 0.0
H754 H 1.01194 0.19177 0.07318 0.0
H755 H 0.05668 0.17396 0.88301 0.0
H756 H 0.05296 0.06186 0.83998 0.0
H757 H 0.05328 0.09981 0.88236 0.0
H758 H 0.99502 0.13617 0.93017 0.0
C759 C 0.01969 0.20382 0.04072 0.0
C760 C 0.04302 0.16605 0.89265 0.0
C761 C 0.02359 0.22329 0.07521 0.0
C762 C 0.04068 0.07318 0.83352 0.0
C763 C 0.04091 0.095 0.85756 0.0
C764 C 1.00849 0.14436 0.91862 0.0
C765 C 0.02728 0.19914 0.96687 0.0
C766 C 0.02624 0.17689 0.93381 0.0
C767 C 0.02519 0.11027 0.85138 0.0
C768 C 0.02537 0.13341 0.87838 0.0
H769 H 0.05046 0.24606 0.93139 0.0
H770 H 0.04332 0.2122 0.86988 0.0
H771 H 0.99577 0.17368 0.97789 0.0
H772 H 0.9966 0.0765 0.7716 0.0
H773 H 0.99704 0.11458 0.81362 0.0
C774 C 0.31289 0.9785 0.09859 0.0
C775 C 0.30105 0.99677 0.13068 0.0
C776 C 0.33111 0.98092 0.05575 0.0
C777 C 0.37038 0.02035 0.02244 0.0
H778 H 0.39177 0.97877 0.86513 0.0
C779 C 0.45344 0.01373 0.90379 0.0
C780 C 0.45953 0.00824 0.82918 0.0
C781 C 0.43372 0.01333 0.9357 0.0
C782 C 0.38607 0.99073 0.90833 0.0
H783 H 0.29894 0.03205 0.14137 0.0
H784 H 0.33056 0.03655 0.06477 0.0
H785 H 0.35815 0.97683 0.92528 0.0
H786 H 0.44907 0.99806 0.72997 0.0
H787 H 0.41466 0.99761 0.7852 0.0
H788 H 0.39818 0.03447 0.00482 0.0
C789 C 0.32591 0.02017 0.07351 0.0
C790 C 0.36671 0.98944 0.94376 0.0
C791 C 0.3076 0.01769 0.11653 0.0
C792 C 0.44508 0.00241 0.78747 0.0
C793 C 0.42527 0.00201 0.81952 0.0
C794 C 0.38973 0.02165 0.98701 0.0
C795 C 0.33819 0.00178 0.04335 0.0
C796 C 0.35853 0.00408 0.00207 0.0
C797 C 0.41921 0.00745 0.89436 0.0
C798 C 0.39806 0.00671 0.92978 0.0
H799 H 0.30831 0.96217 0.1091 0.0
H800 H 0.34 0.96626 0.03491 0.0
H801 H 0.3649 0.03185 0.06727 0.0
H802 H 0.46399 0.0182 0.93828 0.0
H803 H 0.42996 0.01724 0.99354 0.0
C804 C 0.53329 0.29418 0.11626 0.0
C805 C 0.52286 0.293 0.18657 0.0
C806 C 0.53018 0.31238 0.07424 0.0
C807 C 0.50966 0.37068 0.09375 0.0
H808 H 0.51937 0.3663 0.88239 0.0
C809 C 0.50024 0.44451 0.9049 0.0
C810 C 0.51745 0.44766 0.85662 0.0
C811 C 0.49857 0.42527 0.94429 0.0
C812 C 0.51654 0.36773 0.94142 0.0
H813 H 0.50074 0.30921 0.26816 0.0
H814 H 0.49432 0.34059 0.19383 0.0
H815 H 0.51994 0.33309 0.95194 0.0
H816 H 0.54609 0.43283 0.80997 0.0
H817 H 0.54288 0.39915 0.87679 0.0
H818 H 0.50593 0.40544 0.08228 0.0
C819 C 0.50538 0.32792 0.17124 0.0
C820 C 0.51703 0.34871 0.98152 0.0
C821 C 0.50878 0.30986 0.21359 0.0
C822 C 0.53269 0.43098 0.8471 0.0
C823 C 0.53083 0.41163 0.88499 0.0
C824 C 0.50879 0.38967 0.0535 0.0
C825 C 0.51632 0.32971 0.10136 0.0
C826 C 0.51402 0.34988 0.05841 0.0
C827 C 0.51386 0.40864 0.9345 0.0
C828 C 0.51261 0.38841 0.97699 0.0
H829 H 0.54448 0.28145 0.09534 0.0
H830 H 0.53924 0.31317 0.02164 0.0
H831 H 0.50758 0.37247 0.15265 0.0
H832 H 0.48829 0.4571 0.91348 0.0
H833 H 0.48532 0.42333 0.98214 0.0
C834 C 0.22319 0.48304 0.94837 0.0
C835 C 0.22508 0.49198 0.01701 0.0
C836 C 0.20604 0.48757 0.91801 0.0
C837 C 0.1534 0.50602 0.97789 0.0
H838 H 0.15112 0.50022 0.77084 0.0
C839 C 0.08094 0.49063 0.8746 0.0
C840 C 0.07684 0.49984 0.80937 0.0
C841 C 0.09939 0.49172 0.89618 0.0
C842 C 0.15142 0.50216 0.82883 0.0
H843 H 0.21133 0.51362 0.10612 0.0
H844 H 0.18185 0.5229 0.05167 0.0
H845 H 0.18279 0.50081 0.81291 0.0
H846 H 0.08917 0.51735 0.71533 0.0
H847 H 0.12137 0.51971 0.75373 0.0
H848 H 0.12209 0.508 0.99383 0.0
C849 C 0.19317 0.51169 0.02182 0.0
C850 C 0.16969 0.50219 0.85321 0.0
C851 C 0.21021 0.50682 0.05256 0.0
C852 C 0.09184 0.50999 0.76572 0.0
C853 C 0.11034 0.51127 0.78775 0.0
C854 C 0.13519 0.50618 0.95353 0.0
C855 C 0.19045 0.50145 0.95535 0.0
C856 C 0.171 0.50369 0.9283 0.0
C857 C 0.11434 0.5023 0.85372 0.0
C858 C 0.13388 0.50379 0.87874 0.0
H859 H 0.23437 0.47118 0.92098 0.0
H860 H 0.20461 0.47905 0.86745 0.0
H861 H 0.15355 0.50698 0.03614 0.0
H862 H 0.06986 0.48247 0.90939 0.0
H863 H 0.10192 0.48406 0.94622 0.0
C864 C 0.01746 0.76214 0.52963 0.0
C865 C 0.99873 0.75614 0.52008 0.0
C866 C 0.01966 0.78199 0.56615 0.0
C867 C 0.99341 0.83627 0.59329 0.0
H868 H 0.03287 0.85018 0.71204 0.0
C869 C 0.01383 0.9249 0.63466 0.0
C870 C 0.01647 0.93199 0.70509 0.0
C871 C 1.0119 0.9028 0.61846 0.0
C872 C 0.02168 0.84654 0.67934 0.0
H873 H 0.96771 0.76486 0.54643 0.0
H874 H 0.97134 0.79899 0.61257 0.0
H875 H 0.02881 0.81184 0.67968 0.0
H876 H 0.01937 0.92108 0.81355 0.0
H877 H 0.01593 0.88241 0.78518 0.0
H878 H 0.98632 0.87075 0.59204 0.0
C879 C 0.98439 0.78878 0.5907 0.0
C880 C 0.01945 0.82459 0.66042 0.0
C881 C 0.98225 0.76905 0.55422 0.0
C882 C 0.01732 0.91626 0.75876 0.0
C883 C 0.01547 0.89405 0.74239 0.0
C884 C 0.99573 0.85812 0.61161 0.0
C885 C 1.00313 0.79608 0.59371 0.0
C886 C 1.00525 0.81919 0.61722 0.0
C887 C 0.01258 0.88706 0.67212 0.0
C888 C 1.00994 0.8636 0.65461 0.0
H889 H 0.03036 0.75267 0.50221 0.0
H890 H 0.0343 0.78712 0.56733 0.0
H891 H 0.98259 0.8328 0.55871 0.0
H892 H 0.01318 0.93646 0.59171 0.0
H893 H 1.01 0.898 0.56347 0.0
C894 C 0.73928 0.98418 0.43195 0.0
C895 C 0.74522 0.00037 0.38262 0.0
C896 C 0.72019 0.9855 0.47205 0.0
C897 C 0.66997 0.00779 0.4568 0.0
H898 H 0.65685 0.9942 0.66048 0.0
C899 C 0.59005 0.99299 0.58993 0.0
C900 C 0.58311 0.00305 0.659 0.0
C901 C 0.60993 0.99297 0.55892 0.0
C902 C 0.66022 0.9981 0.60358 0.0
H903 H 0.73597 0.03099 0.33896 0.0
H904 H 0.70275 0.03333 0.40795 0.0
H905 H 0.69135 0.99416 0.60476 0.0
H906 H 0.59215 0.02069 0.7497 0.0
H907 H 0.62682 0.0202 0.69643 0.0
H908 H 0.63893 0.01139 0.45502 0.0
C909 C 0.71279 0.0196 0.41616 0.0
C910 C 0.68005 0.99795 0.57147 0.0
C911 C 0.73194 0.01847 0.37741 0.0
C912 C 0.59683 0.01279 0.69649 0.0
C913 C 0.6168 0.01242 0.66598 0.0
C914 C 0.65017 0.00756 0.4885 0.0
C915 C 0.70641 0.00285 0.46269 0.0
C916 C 0.68525 0.00294 0.49766 0.0
C917 C 0.62367 0.00268 0.59636 0.0
C918 C 0.64493 0.0028 0.56253 0.0
H919 H 0.74897 0.96975 0.43559 0.0
H920 H 0.71585 0.97224 0.50702 0.0
H921 H 0.67331 0.01146 0.39966 0.0
H922 H 0.58005 0.98537 0.55901 0.0
H923 H 0.61459 0.98513 0.5056 0.0
C924 C 0.51392 0.71404 0.35383 0.0
C925 C 0.53053 0.72478 0.32572 0.0
C926 C 0.51552 0.69618 0.39831 0.0
C927 C 0.55182 0.65292 0.44039 0.0
H928 H 0.50842 0.63915 0.58589 0.0
C929 C 0.55126 0.5751 0.61773 0.0
C930 C 0.53432 0.56345 0.61975 0.0
C931 C 0.55222 0.59562 0.58596 0.0
C932 C 0.52065 0.64276 0.54532 0.0
H933 H 0.56171 0.72606 0.32391 0.0
H934 H 0.56463 0.6951 0.40439 0.0
H935 H 0.50767 0.67453 0.52899 0.0
H936 H 0.50513 0.56433 0.58953 0.0
H937 H 0.50676 0.60007 0.53536 0.0
H938 H 0.56478 0.621 0.45776 0.0
C939 C 0.55035 0.70018 0.39087 0.0
C940 C 0.52022 0.66303 0.51243 0.0
C941 C 0.5487 0.71808 0.34579 0.0
C942 C 0.51846 0.57273 0.58875 0.0
C943 C 0.5193 0.59332 0.55817 0.0
C944 C 0.55236 0.6327 0.47414 0.0
C945 C 0.53381 0.68868 0.41647 0.0
C946 C 0.53555 0.66822 0.45809 0.0
C947 C 0.53612 0.60508 0.55683 0.0
C948 C 0.53656 0.62722 0.52569 0.0
H949 H 0.4998 0.71894 0.33853 0.0
H950 H 0.50248 0.68767 0.41559 0.0
H951 H 0.56381 0.65614 0.39831 0.0
H952 H 0.56374 0.56845 0.64109 0.0
H953 H 0.56535 0.60434 0.58576 0.0
C954 C 0.81425 0.52571 0.58003 0.0
C955 C 0.81194 0.5122 0.52017 0.0
C956 C 0.83123 0.52316 0.61275 0.0
C957 C 0.87607 0.52463 0.61049 0.0
H958 H 0.89719 0.47094 0.68412 0.0
C959 C 0.94975 0.52183 0.72451 0.0
C960 C 0.96157 0.50213 0.71777 0.0
C961 C 0.93073 0.52254 0.70648 0.0
C962 C 0.89179 0.48602 0.66256 0.0
H963 H 0.82475 0.48471 0.45011 0.0
H964 H 0.85406 0.47934 0.50986 0.0
H965 H 0.86517 0.4721 0.64349 0.0
H966 H 0.96285 0.46779 0.68541 0.0
H967 H 0.93032 0.46914 0.65023 0.0
H968 H 0.90291 0.53833 0.6245 0.0
C969 C 0.84288 0.49206 0.53099 0.0
C970 C 0.87328 0.48668 0.64002 0.0
C971 C 0.82609 0.49495 0.49733 0.0
C972 C 0.95401 0.48319 0.69205 0.0
C973 C 0.93519 0.48398 0.67234 0.0
C974 C 0.89478 0.52384 0.63114 0.0
C975 C 0.84597 0.50668 0.58717 0.0
C976 C 0.86521 0.50601 0.61402 0.0
C977 C 0.92315 0.50366 0.67939 0.0
C978 C 0.90299 0.50453 0.65778 0.0
H979 H 0.80368 0.53937 0.59729 0.0
H980 H 0.83323 0.53461 0.65605 0.0
H981 H 0.87034 0.53966 0.58944 0.0
H982 H 0.9551 0.53669 0.74471 0.0
H983 H 0.92196 0.53794 0.71459 0.0
loop_
_geom_bond_atom_site_label_1
_geom_bond_atom_site_label_2
_geom_bond_distance
_geom_bond_site_symmetry_2
_ccdc_geom_bond_type
C0 N1 1.317 . S
C0 N2 1.348 . S
C0 C3 1.485 . S
N1 C0 1.317 . S
N1 N5 1.370 . S
N2 C0 1.348 . S
N2 C4 1.346 . S
C3 C0 1.485 . S
C3 H7 0.960 . S
C3 H8 0.961 . S
C3 H9 0.960 . S
C4 N2 1.346 . S
C4 N5 1.307 . S
C4 C6 1.486 . S
N5 N1 1.370 . S
N5 C4 1.307 . S
C6 C4 1.486 . S
C6 H10 0.960 . S
C6 H11 0.960 . S
C6 H12 0.959 . S
H7 C3 0.960 . S
H8 C3 0.961 . S
H9 C3 0.960 . S
H10 C6 0.960 . S
H11 C6 0.960 . S
H12 C6 0.959 . S
C13 N14 1.317 . S
C13 N15 1.348 . S
C13 C16 1.485 . S
N14 C13 1.317 . S
N14 N18 1.370 . S
N15 C13 1.348 . S
N15 C17 1.346 . S
C16 C13 1.485 . S
C16 H20 0.960 1_655 S
C16 H21 0.961 . S
C16 H22 0.960 . S
C17 N15 1.346 . S
C17 N18 1.307 . S
C17 C19 1.486 . S
N18 N14 1.370 . S
N18 C17 1.307 . S
C19 C17 1.486 . S
C19 H23 0.960 . S
C19 H24 0.960 1_655 S
C19 H25 0.954 1_655 S
H20 C16 0.960 1_455 S
H21 C16 0.961 . S
H22 C16 0.960 . S
H23 C19 0.960 . S
H24 C19 0.960 1_455 S
H25 C19 0.954 1_455 S
C26 N27 1.317 . S
C26 N28 1.348 . S
C26 C29 1.485 . S
N27 C26 1.317 . S
N27 N31 1.370 . S
N28 C26 1.348 . S
N28 C30 1.347 . S
C29 C26 1.485 . S
C29 H33 0.960 1_565 S
C29 H34 0.961 . S
C29 H35 0.960 . S
C30 N28 1.347 . S
C30 N31 1.311 . S
C30 C32 1.484 . S
N31 N27 1.370 . S
N31 C30 1.311 . S
C32 C30 1.484 . S
C32 H36 0.956 . S
C32 H37 0.964 1_565 S
C32 H38 0.959 1_565 S
H33 C29 0.960 1_545 S
H34 C29 0.961 . S
H35 C29 0.960 . S
H36 C32 0.956 . S
H37 C32 0.964 1_545 S
H38 C32 0.959 1_545 S
C39 N40 1.317 . S
C39 N41 1.348 . S
C39 C42 1.485 . S
N40 C39 1.317 . S
N40 N44 1.370 . S
N41 C39 1.348 . S
N41 C43 1.346 . S
C42 C39 1.485 . S
C42 H46 0.960 . S
C42 H47 0.961 . S
C42 H48 0.960 . S
C43 N41 1.346 . S
C43 N44 1.307 . S
C43 C45 1.486 . S
N44 N40 1.370 . S
N44 C43 1.307 . S
C45 C43 1.486 . S
C45 H49 0.960 1_554 S
C45 H50 0.960 1_554 S
C45 H51 0.959 1_554 S
H46 C42 0.960 . S
H47 C42 0.961 . S
H48 C42 0.960 . S
H49 C45 0.960 1_556 S
H50 C45 0.960 1_556 S
H51 C45 0.959 1_556 S
C52 N53 1.317 . S
C52 N54 1.348 1_556 S
C52 C55 1.485 . S
N53 C52 1.317 . S
N53 N57 1.370 1_556 S
N54 C52 1.348 1_554 S
N54 C56 1.346 . S
C55 C52 1.485 . S
C55 H59 0.960 . S
C55 H60 0.961 . S
C55 H61 0.960 . S
C56 N54 1.346 . S
C56 N57 1.307 . S
C56 C58 1.486 . S
N57 N53 1.370 1_554 S
N57 C56 1.307 . S
C58 C56 1.486 . S
C58 H62 0.960 . S
C58 H63 0.960 . S
C58 H64 0.959 . S
H59 C55 0.960 . S
H60 C55 0.961 . S
H61 C55 0.960 . S
H62 C58 0.960 . S
H63 C58 0.960 . S
H64 C58 0.959 . S
C65 N66 1.317 . S
C65 N67 1.348 . S
C65 C68 1.485 . S
N66 C65 1.317 . S
N66 N70 1.370 . S
N67 C65 1.348 . S
N67 C69 1.346 . S
C68 C65 1.485 . S
C68 H72 0.960 1_554 S
C68 H73 0.961 . S
C68 H74 0.960 1_554 S
C69 N67 1.346 . S
C69 N70 1.307 . S
C69 C71 1.486 . S
N70 N66 1.370 . S
N70 C69 1.307 . S
C71 C69 1.486 . S
C71 H75 0.960 . S
C71 H76 0.960 . S
C71 H77 0.959 . S
H72 C68 0.960 1_556 S
H73 C68 0.961 . S
H74 C68 0.960 1_556 S
H75 C71 0.960 . S
H76 C71 0.960 . S
H77 C71 0.959 . S
C78 N79 1.317 . S
C78 N80 1.348 . S
C78 C81 1.484 . S
N79 C78 1.317 . S
N79 N83 1.370 . S
N80 C78 1.348 . S
N80 C82 1.346 . S
C81 C78 1.484 . S
C81 H85 0.957 . S
C81 H86 0.964 1_545 S
C81 H87 0.961 1_545 S
C82 N80 1.346 . S
C82 N83 1.307 . S
C82 C84 1.486 . S
N83 N79 1.370 . S
N83 C82 1.307 . S
C84 C82 1.486 . S
C84 H88 0.960 1_545 S
C84 H89 0.960 . S
C84 H90 0.959 . S
H85 C81 0.957 . S
H86 C81 0.964 1_565 S
H87 C81 0.961 1_565 S
H88 C84 0.960 1_565 S
H89 C84 0.960 . S
H90 C84 0.959 . S
C91 N92 1.317 . S
C91 N93 1.348 . S
C91 C94 1.485 . S
N92 C91 1.317 . S
N92 N96 1.370 . S
N93 C91 1.348 . S
N93 C95 1.346 . S
C94 C91 1.485 . S
C94 H98 0.960 . S
C94 H99 0.961 . S
C94 H100 0.960 . S
C95 N93 1.346 . S
C95 N96 1.307 . S
C95 C97 1.486 . S
N96 N92 1.370 . S
N96 C95 1.307 . S
C97 C95 1.486 . S
C97 H101 0.960 . S
C97 H102 0.960 . S
C97 H103 0.959 . S
H98 C94 0.960 . S
H99 C94 0.961 . S
H100 C94 0.960 . S
H101 C97 0.960 . S
H102 C97 0.960 . S
H103 C97 0.959 . S
Dy104 O107 2.308 1_545 S
Dy104 O109 2.392 1_655 S
Dy104 O110 2.381 . S
Dy104 O112 2.343 . S
Dy104 O114 2.296 1_655 S
Dy104 O118 2.270 1_655 S
Dy104 C126 2.738 . S
Dy105 O108 2.298 . S
Dy105 O111 2.275 1_455 S
Dy105 O113 2.307 1_565 S
Dy105 O115 2.395 . S
Dy105 O116 2.379 . S
Dy105 O119 2.339 . S
Dy105 C135 2.738 . S
C106 O118 1.254 1_565 S
C106 O119 1.257 . S
O107 Dy104 2.308 1_565 S
O107 C117 1.266 1_655 S
O108 Dy105 2.298 . S
O108 C117 1.236 . S
O109 Dy104 2.392 1_455 S
O109 C126 1.253 1_455 S
O110 Dy104 2.381 . S
O110 C126 1.252 . S
O111 Dy105 2.275 1_655 S
O111 C127 1.254 1_565 S
O112 Dy104 2.343 . S
O112 C127 1.257 . S
O113 Dy105 2.307 1_545 S
O113 C128 1.266 . S
O114 Dy104 2.296 1_455 S
O114 C128 1.236 . S
O115 Dy105 2.395 . S
O115 C135 1.255 . S
O116 Dy105 2.379 . S
O116 C135 1.249 . S
C117 O107 1.266 1_455 S
C117 O108 1.236 . S
O118 Dy104 2.270 1_455 S
O118 C106 1.254 1_545 S
O119 Dy105 2.339 . S
O119 C106 1.257 . S
C120 C123 1.350 1_655 S
C120 C124 1.322 . S
C120 C126 1.516 . S
C121 C122 1.353 . S
C121 C125 1.275 1_455 S
C122 C121 1.353 . S
C122 C123 1.371 . S
C122 H136 0.930 . S
C123 C120 1.350 1_455 S
C123 C122 1.371 . S
C123 H137 0.931 . S
C124 C120 1.322 . S
C124 C125 1.433 . S
C124 H138 0.931 . S
C125 C121 1.275 1_655 S
C125 C124 1.433 . S
C125 H139 0.933 . S
C126 Dy104 2.738 . S
C126 O109 1.253 1_655 S
C126 O110 1.252 . S
C126 C120 1.516 . S
C127 O111 1.254 1_545 S
C127 O112 1.257 . S
C128 O113 1.266 . S
C128 O114 1.236 . S
C129 C132 1.344 . S
C129 C133 1.328 . S
C129 C135 1.516 . S
C130 C131 1.304 . S
C130 C134 1.323 . S
C131 C130 1.304 . S
C131 C132 1.371 1_554 S
C131 H140 0.930 1_455 S
C132 C129 1.344 . S
C132 C131 1.371 1_556 S
C132 H141 0.931 1_455 S
C133 C129 1.328 . S
C133 C134 1.433 1_556 S
C133 H142 0.931 . S
C134 C130 1.323 . S
C134 C133 1.433 1_554 S
C134 H143 0.933 . S
C135 Dy105 2.738 . S
C135 O115 1.255 . S
C135 O116 1.249 . S
C135 C129 1.516 . S
H136 C122 0.930 . S
H137 C123 0.931 . S
H138 C124 0.931 . S
H139 C125 0.933 . S
H140 C131 0.930 1_655 S
H141 C132 0.931 1_655 S
H142 C133 0.931 . S
H143 C134 0.933 . S
Dy144 O147 2.307 . S
Dy144 O149 2.395 1_565 S
Dy144 O150 2.379 . S
Dy144 O152 2.339 . S
Dy144 O154 2.298 . S
Dy144 O158 2.275 1_565 S
Dy144 C166 2.738 . S
Dy145 O148 2.298 . S
Dy145 O151 2.275 1_545 S
Dy145 O153 2.307 . S
Dy145 O155 2.395 1_545 S
Dy145 O156 2.379 . S
Dy145 O159 2.339 . S
Dy145 C175 2.738 . S
C146 O158 1.254 . S
C146 O159 1.257 . S
O147 Dy144 2.307 . S
O147 C157 1.266 . S
O148 Dy145 2.298 . S
O148 C157 1.236 1_545 S
O149 Dy144 2.395 1_545 S
O149 C166 1.255 1_545 S
O150 Dy144 2.379 . S
O150 C166 1.249 . S
O151 Dy145 2.275 1_565 S
O151 C167 1.254 . S
O152 Dy144 2.339 . S
O152 C167 1.257 . S
O153 Dy145 2.307 . S
O153 C168 1.266 . S
O154 Dy144 2.298 . S
O154 C168 1.236 1_565 S
O155 Dy145 2.395 1_565 S
O155 C175 1.255 1_565 S
O156 Dy145 2.379 . S
O156 C175 1.249 . S
C157 O147 1.266 . S
C157 O148 1.236 1_565 S
O158 Dy144 2.275 1_545 S
O158 C146 1.254 . S
O159 Dy145 2.339 . S
O159 C146 1.257 . S
C160 C163 1.344 1_565 S
C160 C164 1.328 . S
C160 C166 1.516 . S
C161 C162 1.304 1_565 S
C161 C165 1.323 . S
C162 C161 1.304 1_545 S
C162 C163 1.371 . S
C162 H176 0.930 . S
C163 C160 1.344 1_545 S
C163 C162 1.371 . S
C163 H177 0.931 . S
C164 C160 1.328 . S
C164 C165 1.433 . S
C164 H178 0.931 . S
C165 C161 1.323 . S
C165 C164 1.433 . S
C165 H179 0.933 . S
C166 Dy144 2.738 . S
C166 O149 1.255 1_565 S
C166 O150 1.249 . S
C166 C160 1.516 . S
C167 O151 1.254 . S
C167 O152 1.257 . S
C168 O153 1.266 . S
C168 O154 1.236 1_545 S
C169 C172 1.344 1_545 S
C169 C173 1.328 . S
C169 C175 1.516 . S
C170 C171 1.304 1_545 S
C170 C174 1.323 . S
C171 C170 1.304 1_565 S
C171 C172 1.371 . S
C171 H180 0.930 . S
C172 C169 1.344 1_565 S
C172 C171 1.371 . S
C172 H181 0.931 . S
C173 C169 1.328 . S
C173 C174 1.433 . S
C173 H182 0.931 . S
C174 C170 1.323 . S
C174 C173 1.433 . S
C174 H183 0.933 1_556 S
C175 Dy145 2.738 . S
C175 O155 1.255 1_545 S
C175 O156 1.249 . S
C175 C169 1.516 . S
H176 C162 0.930 . S
H177 C163 0.931 . S
H178 C164 0.931 . S
H179 C165 0.933 . S
H180 C171 0.930 . S
H181 C172 0.931 . S
H182 C173 0.931 . S
H183 C174 0.933 1_554 S
Dy184 O187 2.307 . S
Dy184 O189 2.395 . S
Dy184 O190 2.379 . S
Dy184 O192 2.339 . S
Dy184 O194 2.298 . S
Dy184 O198 2.275 . S
Dy184 C206 2.738 . S
Dy185 O188 2.298 . S
Dy185 O191 2.275 . S
Dy185 O193 2.307 . S
Dy185 O195 2.395 . S
Dy185 O196 2.379 . S
Dy185 O199 2.339 . S
Dy185 C215 2.738 . S
C186 O198 1.254 . S
C186 O199 1.257 . S
O187 Dy184 2.307 . S
O187 C197 1.266 . S
O188 Dy185 2.298 . S
O188 C197 1.236 . S
O189 Dy184 2.395 . S
O189 C206 1.255 . S
O190 Dy184 2.379 . S
O190 C206 1.249 . S
O191 Dy185 2.275 . S
O191 C207 1.254 . S
O192 Dy184 2.339 . S
O192 C207 1.257 . S
O193 Dy185 2.307 . S
O193 C208 1.266 . S
O194 Dy184 2.298 . S
O194 C208 1.236 . S
O195 Dy185 2.395 . S
O195 C215 1.255 . S
O196 Dy185 2.379 . S
O196 C215 1.249 . S
C197 O187 1.266 . S
C197 O188 1.236 . S
O198 Dy184 2.275 . S
O198 C186 1.254 . S
O199 Dy185 2.339 . S
O199 C186 1.257 . S
C200 C203 1.344 . S
C200 C204 1.328 . S
C200 C206 1.516 . S
C201 C202 1.304 . S
C201 C205 1.323 . S
C202 C201 1.304 . S
C202 C203 1.371 . S
C202 H216 0.930 1_556 S
C203 C200 1.344 . S
C203 C202 1.371 . S
C203 H217 0.931 . S
C204 C200 1.328 . S
C204 C205 1.433 . S
C204 H218 0.931 . S
C205 C201 1.323 . S
C205 C204 1.433 . S
C205 H219 0.933 . S
C206 Dy184 2.738 . S
C206 O189 1.255 . S
C206 O190 1.249 . S
C206 C200 1.516 . S
C207 O191 1.254 . S
C207 O192 1.257 . S
C208 O193 1.266 . S
C208 O194 1.236 . S
C209 C212 1.344 . S
C209 C213 1.328 . S
C209 C215 1.516 . S
C210 C211 1.304 . S
C210 C214 1.323 . S
C211 C210 1.304 . S
C211 C212 1.371 . S
C211 H220 0.930 . S
C212 C209 1.344 . S
C212 C211 1.371 . S
C212 H221 0.931 . S
C213 C209 1.328 . S
C213 C214 1.433 . S
C213 H222 0.931 . S
C214 C210 1.323 . S
C214 C213 1.433 . S
C214 H223 0.933 . S
C215 Dy185 2.738 . S
C215 O195 1.255 . S
C215 O196 1.249 . S
C215 C209 1.516 . S
H216 C202 0.930 1_554 S
H217 C203 0.931 . S
H218 C204 0.931 . S
H219 C205 0.933 . S
H220 C211 0.930 . S
H221 C212 0.931 . S
H222 C213 0.931 . S
H223 C214 0.933 . S
Dy224 O227 2.307 1_455 S
Dy224 O229 2.395 . S
Dy224 O230 2.379 . S
Dy224 O232 2.339 . S
Dy224 O234 2.298 . S
Dy224 O238 2.275 . S
Dy224 C246 2.738 . S
Dy225 O228 2.298 . S
Dy225 O231 2.275 1_655 S
Dy225 O233 2.307 1_655 S
Dy225 O235 2.395 . S
Dy225 O236 2.379 . S
Dy225 O239 2.339 1_655 S
Dy225 C255 2.738 . S
C226 O238 1.254 . S
C226 O239 1.262 . S
O227 Dy224 2.307 1_655 S
O227 C237 1.266 . S
O228 Dy225 2.298 . S
O228 C237 1.236 . S
O229 Dy224 2.395 . S
O229 C246 1.255 . S
O230 Dy224 2.379 . S
O230 C246 1.249 . S
O231 Dy225 2.275 1_455 S
O231 C247 1.254 . S
O232 Dy224 2.339 . S
O232 C247 1.257 . S
O233 Dy225 2.307 1_455 S
O233 C248 1.266 . S
O234 Dy224 2.298 . S
O234 C248 1.236 . S
O235 Dy225 2.395 . S
O235 C255 1.255 . S
O236 Dy225 2.379 . S
O236 C255 1.249 . S
C237 O227 1.266 . S
C237 O228 1.236 . S
O238 Dy224 2.275 . S
O238 C226 1.254 . S
O239 Dy225 2.339 1_455 S
O239 C226 1.262 . S
C240 C243 1.344 . S
C240 C244 1.328 . S
C240 C246 1.516 . S
C241 C242 1.304 . S
C241 C245 1.323 . S
C242 C241 1.304 . S
C242 C243 1.371 . S
C242 H256 0.930 . S
C243 C240 1.344 . S
C243 C242 1.371 . S
C243 H257 0.931 . S
C244 C240 1.328 . S
C244 C245 1.433 . S
C244 H258 0.931 . S
C245 C241 1.323 . S
C245 C244 1.433 . S
C245 H259 0.933 . S
C246 Dy224 2.738 . S
C246 O229 1.255 . S
C246 O230 1.249 . S
C246 C240 1.516 . S
C247 O231 1.254 . S
C247 O232 1.257 . S
C248 O233 1.266 . S
C248 O234 1.236 . S
C249 C252 1.344 1_556 S
C249 C253 1.328 . S
C249 C255 1.516 . S
C250 C251 1.304 . S
C250 C254 1.323 . S
C251 C250 1.304 . S
C251 C252 1.371 . S
C251 H260 0.930 . S
C252 C249 1.344 1_554 S
C252 C251 1.371 . S
C252 H261 0.931 1_554 S
C253 C249 1.328 . S
C253 C254 1.433 1_556 S
C253 H262 0.931 . S
C254 C250 1.323 . S
C254 C253 1.433 1_554 S
C254 H263 0.933 . S
C255 Dy225 2.738 . S
C255 O235 1.255 . S
C255 O236 1.249 . S
C255 C249 1.516 . S
H256 C242 0.930 . S
H257 C243 0.931 . S
H258 C244 0.931 . S
H259 C245 0.933 . S
H260 C251 0.930 . S
H261 C252 0.931 1_556 S
H262 C253 0.931 . S
H263 C254 0.933 . S
C264 C265 1.349 1_565 S
C264 C266 1.327 . S
C264 H289 0.950 . S
C265 C264 1.349 1_545 S
C265 C281 1.349 . S
C266 C264 1.327 . S
C266 C285 1.429 1_565 S
C266 H290 0.950 . S
C267 C284 1.574 . S
C267 C286 1.368 . S
C267 H291 0.949 . S
H268 C272 0.949 . S
C269 C270 1.349 . S
C269 C271 1.327 . S
C269 H292 0.950 . S
C270 C269 1.349 . S
C270 C282 1.349 1_545 S
C271 C269 1.327 . S
C271 C287 1.429 . S
C271 H293 0.950 . S
C272 H268 0.949 . S
C272 C280 1.574 . S
C272 C288 1.368 1_565 S
H273 C281 0.950 . S
H274 C279 0.950 . S
H275 C280 0.949 . S
H276 C282 0.950 . S
H277 C283 0.950 . S
H278 C284 0.949 . S
C279 H274 0.950 . S
C279 C281 1.327 . S
C279 C285 1.429 . S
C280 C272 1.574 . S
C280 H275 0.949 . S
C280 C286 1.368 1_565 S
C281 C265 1.349 . S
C281 H273 0.950 . S
C281 C279 1.327 . S
C282 C270 1.349 1_565 S
C282 H276 0.950 . S
C282 C283 1.327 . S
C283 H277 0.950 . S
C283 C282 1.327 . S
C283 C287 1.429 1_565 S
C284 C267 1.574 . S
C284 H278 0.949 . S
C284 C288 1.368 . S
C285 C266 1.429 1_545 S
C285 C279 1.429 . S
C285 C286 1.523 . S
C286 C267 1.368 . S
C286 C280 1.368 1_545 S
C286 C285 1.523 . S
C287 C271 1.429 . S
C287 C283 1.429 1_545 S
C287 C288 1.523 . S
C288 C272 1.368 1_545 S
C288 C284 1.368 . S
C288 C287 1.523 . S
H289 C264 0.950 . S
H290 C266 0.950 . S
H291 C267 0.949 . S
H292 C269 0.950 . S
H293 C271 0.950 . S
C294 C295 1.349 . S
C294 C296 1.327 . S
C294 H319 0.950 . S
C295 C294 1.349 . S
C295 C311 1.349 . S
C296 C294 1.327 . S
C296 C315 1.429 . S
C296 H320 0.950 . S
C297 C314 1.574 . S
C297 C316 1.368 . S
C297 H321 0.949 . S
H298 C302 0.949 . S
C299 C300 1.349 . S
C299 C301 1.327 . S
C299 H322 0.950 . S
C300 C299 1.349 . S
C300 C312 1.349 . S
C301 C299 1.327 . S
C301 C317 1.429 . S
C301 H323 0.950 . S
C302 H298 0.949 . S
C302 C310 1.574 . S
C302 C318 1.368 . S
H303 C311 0.950 . S
H304 C309 0.950 . S
H305 C310 0.949 . S
H306 C312 0.950 . S
H307 C313 0.950 . S
H308 C314 0.949 . S
C309 H304 0.950 . S
C309 C311 1.327 . S
C309 C315 1.429 . S
C310 C302 1.574 . S
C310 H305 0.949 . S
C310 C316 1.368 . S
C311 C295 1.349 . S
C311 H303 0.950 . S
C311 C309 1.327 . S
C312 C300 1.349 . S
C312 H306 0.950 . S
C312 C313 1.327 . S
C313 H307 0.950 . S
C313 C312 1.327 . S
C313 C317 1.429 . S
C314 C297 1.574 . S
C314 H308 0.949 . S
C314 C318 1.368 . S
C315 C296 1.429 . S
C315 C309 1.429 . S
C315 C316 1.523 . S
C316 C297 1.368 . S
C316 C310 1.368 . S
C316 C315 1.523 . S
C317 C301 1.429 . S
C317 C313 1.429 . S
C317 C318 1.523 . S
C318 C302 1.368 . S
C318 C314 1.368 . S
C318 C317 1.523 . S
H319 C294 0.950 . S
H320 C296 0.950 . S
H321 C297 0.949 . S
H322 C299 0.950 . S
H323 C301 0.950 . S
C324 C325 1.349 . S
C324 C326 1.327 . S
C324 H349 0.950 . S
C325 C324 1.349 . S
C325 C341 1.349 . S
C326 C324 1.327 . S
C326 C345 1.429 . S
C326 H350 0.950 . S
C327 C344 1.574 . S
C327 C346 1.368 . S
C327 H351 0.949 . S
H328 C332 0.949 . S
C329 C330 1.349 . S
C329 C331 1.327 . S
C329 H352 0.950 . S
C330 C329 1.349 . S
C330 C342 1.349 . S
C331 C329 1.327 . S
C331 C347 1.429 . S
C331 H353 0.950 . S
C332 H328 0.949 . S
C332 C340 1.574 . S
C332 C348 1.368 . S
H333 C341 0.950 . S
H334 C339 0.950 . S
H335 C340 0.949 . S
H336 C342 0.950 . S
H337 C343 0.950 . S
H338 C344 0.949 . S
C339 H334 0.950 . S
C339 C341 1.327 . S
C339 C345 1.429 . S
C340 C332 1.574 . S
C340 H335 0.949 . S
C340 C346 1.368 . S
C341 C325 1.349 . S
C341 H333 0.950 . S
C341 C339 1.327 . S
C342 C330 1.349 . S
C342 H336 0.950 . S
C342 C343 1.327 . S
C343 H337 0.950 . S
C343 C342 1.327 . S
C343 C347 1.429 . S
C344 C327 1.574 . S
C344 H338 0.949 . S
C344 C348 1.368 . S
C345 C326 1.429 . S
C345 C339 1.429 . S
C345 C346 1.523 . S
C346 C327 1.368 . S
C346 C340 1.368 . S
C346 C345 1.523 . S
C347 C331 1.429 . S
C347 C343 1.429 . S
C347 C348 1.523 . S
C348 C332 1.368 . S
C348 C344 1.368 . S
C348 C347 1.523 . S
H349 C324 0.950 . S
H350 C326 0.950 . S
H351 C327 0.949 . S
H352 C329 0.950 . S
H353 C331 0.950 . S
C354 C355 1.349 . S
C354 C356 1.327 . S
C354 H379 0.950 . S
C355 C354 1.349 . S
C355 C371 1.349 . S
C356 C354 1.327 . S
C356 C375 1.429 . S
C356 H380 0.950 . S
C357 C374 1.574 . S
C357 C376 1.368 . S
C357 H381 0.939 1_455 S
H358 C362 0.949 . S
C359 C360 1.349 . S
C359 C361 1.327 . S
C359 H382 0.950 1_455 S
C360 C359 1.349 . S
C360 C372 1.349 . S
C361 C359 1.327 . S
C361 C377 1.429 . S
C361 H383 0.950 1_455 S
C362 H358 0.949 . S
C362 C370 1.574 . S
C362 C378 1.368 . S
H363 C371 0.950 . S
H364 C369 0.950 . S
H365 C370 0.949 . S
H366 C372 0.950 . S
H367 C373 0.950 . S
H368 C374 0.949 1_655 S
C369 H364 0.950 . S
C369 C371 1.327 . S
C369 C375 1.429 . S
C370 C362 1.574 . S
C370 H365 0.949 . S
C370 C376 1.368 . S
C371 C355 1.349 . S
C371 H363 0.950 . S
C371 C369 1.327 . S
C372 C360 1.349 . S
C372 H366 0.950 . S
C372 C373 1.327 . S
C373 H367 0.950 . S
C373 C372 1.327 . S
C373 C377 1.429 . S
C374 C357 1.574 . S
C374 H368 0.949 1_455 S
C374 C378 1.368 . S
C375 C356 1.429 . S
C375 C369 1.429 . S
C375 C376 1.523 . S
C376 C357 1.368 . S
C376 C370 1.368 . S
C376 C375 1.523 . S
C377 C361 1.429 . S
C377 C373 1.429 . S
C377 C378 1.523 . S
C378 C362 1.368 . S
C378 C374 1.368 . S
C378 C377 1.523 . S
H379 C354 0.950 . S
H380 C356 0.950 . S
H381 C357 0.939 1_655 S
H382 C359 0.950 1_655 S
H383 C361 0.950 1_655 S
C384 C385 1.378 . S
C384 C386 1.327 . S
C384 H409 0.950 . S
C385 C384 1.378 . S
C385 C401 1.317 1_565 S
C386 C384 1.327 . S
C386 C405 1.452 . S
C386 H410 0.950 . S
C387 C404 1.574 . S
C387 C406 1.348 1_545 S
C387 H411 0.949 . S
H388 C392 0.949 . S
C389 C390 1.348 1_545 S
C389 C391 1.327 . S
C389 H412 0.950 . S
C390 C389 1.348 1_565 S
C390 C402 1.349 . S
C391 C389 1.327 . S
C391 C407 1.421 1_545 S
C391 H413 0.950 1_556 S
C392 H388 0.949 . S
C392 C400 1.574 1_556 S
C392 C408 1.381 1_556 S
H393 C401 0.950 . S
H394 C399 0.950 . S
H395 C400 0.949 . S
H396 C402 0.950 . S
H397 C403 0.950 . S
H398 C404 0.949 . S
C399 H394 0.950 . S
C399 C401 1.327 . S
C399 C405 1.408 1_545 S
C400 C392 1.574 1_554 S
C400 H395 0.949 . S
C400 C406 1.388 . S
C401 C385 1.317 1_545 S
C401 H393 0.950 . S
C401 C399 1.327 . S
C402 C390 1.349 . S
C402 H396 0.950 . S
C402 C403 1.327 . S
C403 H397 0.950 . S
C403 C402 1.327 . S
C403 C407 1.436 . S
C404 C387 1.574 . S
C404 H398 0.949 . S
C404 C408 1.356 1_545 S
C405 C386 1.452 . S
C405 C399 1.408 1_565 S
C405 C406 1.522 . S
C406 C387 1.348 1_565 S
C406 C400 1.388 . S
C406 C405 1.522 . S
C407 C391 1.421 1_565 S
C407 C403 1.436 . S
C407 C408 1.522 1_556 S
C408 C392 1.381 1_554 S
C408 C404 1.356 1_565 S
C408 C407 1.522 1_554 S
H409 C384 0.950 . S
H410 C386 0.950 . S
H411 C387 0.949 . S
H412 C389 0.950 . S
H413 C391 0.950 1_554 S
C414 C415 1.349 . S
C414 C416 1.327 . S
C414 H439 0.950 . S
C415 C414 1.349 . S
C415 C431 1.349 . S
C416 C414 1.327 . S
C416 C435 1.429 . S
C416 H440 0.950 . S
C417 C434 1.574 . S
C417 C436 1.368 . S
C417 H441 0.949 . S
H418 C422 0.949 . S
C419 C420 1.349 . S
C419 C421 1.327 . S
C419 H442 0.950 . S
C420 C419 1.349 . S
C420 C432 1.349 . S
C421 C419 1.327 . S
C421 C437 1.429 . S
C421 H443 0.950 . S
C422 H418 0.949 . S
C422 C430 1.574 1_556 S
C422 C438 1.368 . S
H423 C431 0.950 . S
H424 C429 0.950 1_556 S
H425 C430 0.949 . S
H426 C432 0.950 . S
H427 C433 0.950 . S
H428 C434 0.949 . S
C429 H424 0.950 1_554 S
C429 C431 1.327 . S
C429 C435 1.429 . S
C430 C422 1.574 1_554 S
C430 H425 0.949 . S
C430 C436 1.368 1_554 S
C431 C415 1.349 . S
C431 H423 0.950 . S
C431 C429 1.327 . S
C432 C420 1.349 . S
C432 H426 0.950 . S
C432 C433 1.327 . S
C433 H427 0.950 . S
C433 C432 1.327 . S
C433 C437 1.429 . S
C434 C417 1.574 . S
C434 H428 0.949 . S
C434 C438 1.368 . S
C435 C416 1.429 . S
C435 C429 1.429 . S
C435 C436 1.523 1_554 S
C436 C417 1.368 . S
C436 C430 1.368 1_556 S
C436 C435 1.523 1_556 S
C437 C421 1.429 . S
C437 C433 1.429 . S
C437 C438 1.523 . S
C438 C422 1.368 . S
C438 C434 1.368 . S
C438 C437 1.523 . S
H439 C414 0.950 . S
H440 C416 0.950 . S
H441 C417 0.949 . S
H442 C419 0.950 . S
H443 C421 0.950 . S
C444 C445 1.349 . S
C444 C446 1.327 . S
C444 H469 0.950 . S
C445 C444 1.349 . S
C445 C461 1.349 . S
C446 C444 1.327 . S
C446 C465 1.429 . S
C446 H470 0.950 . S
C447 C464 1.574 . S
C447 C466 1.368 . S
C447 H471 0.949 . S
H448 C452 0.949 . S
C449 C450 1.349 . S
C449 C451 1.327 . S
C449 H472 0.950 1_554 S
C450 C449 1.349 . S
C450 C462 1.349 . S
C451 C449 1.327 . S
C451 C467 1.429 . S
C451 H473 0.950 . S
C452 H448 0.949 . S
C452 C460 1.574 . S
C452 C468 1.368 . S
H453 C461 0.950 . S
H454 C459 0.950 . S
H455 C460 0.949 . S
H456 C462 0.950 . S
H457 C463 0.950 . S
H458 C464 0.949 . S
C459 H454 0.950 . S
C459 C461 1.327 . S
C459 C465 1.429 . S
C460 C452 1.574 . S
C460 H455 0.949 . S
C460 C466 1.368 . S
C461 C445 1.349 . S
C461 H453 0.950 . S
C461 C459 1.327 . S
C462 C450 1.349 . S
C462 H456 0.950 . S
C462 C463 1.327 . S
C463 H457 0.950 . S
C463 C462 1.327 . S
C463 C467 1.429 . S
C464 C447 1.574 . S
C464 H458 0.949 . S
C464 C468 1.368 . S
C465 C446 1.429 . S
C465 C459 1.429 . S
C465 C466 1.523 . S
C466 C447 1.368 . S
C466 C460 1.368 . S
C466 C465 1.523 . S
C467 C451 1.429 . S
C467 C463 1.429 . S
C467 C468 1.523 . S
C468 C452 1.368 . S
C468 C464 1.368 . S
C468 C467 1.523 . S
H469 C444 0.950 . S
H470 C446 0.950 . S
H471 C447 0.949 . S
H472 C449 0.950 1_556 S
H473 C451 0.950 . S
C474 C475 1.349 1_455 S
C474 C476 1.327 . S
C474 H499 0.950 . S
C475 C474 1.349 1_655 S
C475 C491 1.349 . S
C476 C474 1.327 . S
C476 C495 1.421 1_455 S
C476 H500 0.950 . S
C477 C494 1.574 . S
C477 C496 1.329 1_655 S
C477 H501 0.949 . S
H478 C482 0.949 1_556 S
C479 C480 1.349 1_655 S
C479 C481 1.327 . S
C479 H502 0.950 . S
C480 C479 1.349 1_455 S
C480 C492 1.349 . S
C481 C479 1.327 . S
C481 C497 1.429 1_655 S
C481 H503 0.950 1_556 S
C482 H478 0.949 1_554 S
C482 C490 1.574 . S
C482 C498 1.368 . S
H483 C491 0.950 . S
H484 C489 0.950 . S
H485 C490 0.949 . S
H486 C492 0.950 . S
H487 C493 0.950 . S
H488 C494 0.949 . S
C489 H484 0.950 . S
C489 C491 1.327 . S
C489 C495 1.435 . S
C490 C482 1.574 . S
C490 H485 0.949 . S
C490 C496 1.404 . S
C491 C475 1.349 . S
C491 H483 0.950 . S
C491 C489 1.327 . S
C492 C480 1.349 . S
C492 H486 0.950 . S
C492 C493 1.327 . S
C493 H487 0.950 . S
C493 C492 1.327 . S
C493 C497 1.429 . S
C494 C477 1.574 . S
C494 H488 0.949 . S
C494 C498 1.368 1_655 S
C495 C476 1.421 1_655 S
C495 C489 1.435 . S
C495 C496 1.532 1_655 S
C496 C477 1.329 1_455 S
C496 C490 1.404 . S
C496 C495 1.532 1_455 S
C497 C481 1.429 1_455 S
C497 C493 1.429 . S
C497 C498 1.523 1_556 S
C498 C482 1.368 . S
C498 C494 1.368 1_455 S
C498 C497 1.523 1_554 S
H499 C474 0.950 . S
H500 C476 0.950 . S
H501 C477 0.949 . S
H502 C479 0.950 . S
H503 C481 0.950 1_554 S
C504 C505 1.349 . S
C504 C506 1.327 . S
C504 H529 0.950 . S
C505 C504 1.349 . S
C505 C521 1.349 . S
C506 C504 1.327 . S
C506 C525 1.429 . S
C506 H530 0.922 1_455 S
C507 C524 1.574 . S
C507 C526 1.368 . S
C507 H531 0.949 . S
H508 C512 0.949 . S
C509 C510 1.349 1_455 S
C509 C511 1.327 . S
C509 H532 0.950 . S
C510 C509 1.349 1_655 S
C510 C522 1.349 . S
C511 C509 1.327 . S
C511 C527 1.429 . S
C511 H533 0.950 . S
C512 H508 0.949 . S
C512 C520 1.568 1_655 S
C512 C528 1.368 1_655 S
H513 C521 0.950 . S
H514 C519 0.950 . S
H515 C520 0.932 1_655 S
H516 C522 0.950 . S
H517 C523 0.950 . S
H518 C524 0.949 . S
C519 H514 0.950 . S
C519 C521 1.327 . S
C519 C525 1.429 . S
C520 C512 1.568 1_455 S
C520 H515 0.932 1_455 S
C520 C526 1.396 . S
C521 C505 1.349 . S
C521 H513 0.950 . S
C521 C519 1.327 . S
C522 C510 1.349 . S
C522 H516 0.950 . S
C522 C523 1.327 . S
C523 H517 0.950 . S
C523 C522 1.327 . S
C523 C527 1.429 1_655 S
C524 C507 1.574 . S
C524 H518 0.949 . S
C524 C528 1.368 . S
C525 C506 1.429 . S
C525 C519 1.429 . S
C525 C526 1.523 . S
C526 C507 1.368 . S
C526 C520 1.396 . S
C526 C525 1.523 . S
C527 C511 1.429 . S
C527 C523 1.429 1_455 S
C527 C528 1.523 . S
C528 C512 1.368 1_455 S
C528 C524 1.368 . S
C528 C527 1.523 . S
H529 C504 0.950 . S
H530 C506 0.922 1_655 S
H531 C507 0.949 . S
H532 C509 0.950 . S
H533 C511 0.950 . S
C534 C535 1.349 . S
C534 C536 1.327 . S
C534 H559 0.950 . S
C535 C534 1.349 . S
C535 C551 1.349 1_545 S
C536 C534 1.327 . S
C536 C555 1.429 1_545 S
C536 H560 0.950 . S
C537 C554 1.574 . S
C537 C556 1.368 . S
C537 H561 0.949 . S
H538 C542 0.949 . S
C539 C540 1.349 . S
C539 C541 1.327 . S
C539 H562 0.950 . S
C540 C539 1.349 . S
C540 C552 1.349 . S
C541 C539 1.327 . S
C541 C557 1.429 . S
C541 H563 0.950 . S
C542 H538 0.949 . S
C542 C550 1.574 . S
C542 C558 1.368 1_545 S
H543 C551 0.950 . S
H544 C549 0.950 . S
H545 C550 0.949 . S
H546 C552 0.950 1_545 S
H547 C553 0.950 . S
H548 C554 0.949 . S
C549 H544 0.950 . S
C549 C551 1.327 . S
C549 C555 1.429 . S
C550 C542 1.574 . S
C550 H545 0.949 . S
C550 C556 1.368 1_545 S
C551 C535 1.349 1_565 S
C551 H543 0.950 . S
C551 C549 1.327 . S
C552 C540 1.349 . S
C552 H546 0.950 1_565 S
C552 C553 1.327 1_565 S
C553 H547 0.950 . S
C553 C552 1.327 1_545 S
C553 C557 1.429 1_545 S
C554 C537 1.574 . S
C554 H548 0.949 . S
C554 C558 1.368 . S
C555 C536 1.429 1_565 S
C555 C549 1.429 . S
C555 C556 1.523 . S
C556 C537 1.368 . S
C556 C550 1.368 1_565 S
C556 C555 1.523 . S
C557 C541 1.429 . S
C557 C553 1.429 1_565 S
C557 C558 1.523 . S
C558 C542 1.368 1_565 S
C558 C554 1.368 . S
C558 C557 1.523 . S
H559 C534 0.950 . S
H560 C536 0.950 . S
H561 C537 0.949 . S
H562 C539 0.950 . S
H563 C541 0.950 . S
C564 C565 1.349 . S
C564 C566 1.327 . S
C564 H589 0.950 . S
C565 C564 1.349 . S
C565 C581 1.349 . S
C566 C564 1.327 . S
C566 C585 1.429 . S
C566 H590 0.950 . S
C567 C584 1.574 . S
C567 C586 1.368 . S
C567 H591 0.949 . S
H568 C572 0.949 . S
C569 C570 1.349 . S
C569 C571 1.327 . S
C569 H592 0.950 . S
C570 C569 1.349 . S
C570 C582 1.349 . S
C571 C569 1.327 . S
C571 C587 1.429 . S
C571 H593 0.950 . S
C572 H568 0.949 . S
C572 C580 1.574 . S
C572 C588 1.368 . S
H573 C581 0.950 . S
H574 C579 0.950 . S
H575 C580 0.949 . S
H576 C582 0.950 . S
H577 C583 0.950 . S
H578 C584 0.949 . S
C579 H574 0.950 . S
C579 C581 1.327 . S
C579 C585 1.429 . S
C580 C572 1.574 . S
C580 H575 0.949 . S
C580 C586 1.368 . S
C581 C565 1.349 . S
C581 H573 0.950 . S
C581 C579 1.327 . S
C582 C570 1.349 . S
C582 H576 0.950 . S
C582 C583 1.327 . S
C583 H577 0.950 . S
C583 C582 1.327 . S
C583 C587 1.429 . S
C584 C567 1.574 . S
C584 H578 0.949 . S
C584 C588 1.368 . S
C585 C566 1.429 . S
C585 C579 1.429 . S
C585 C586 1.523 . S
C586 C567 1.368 . S
C586 C580 1.368 . S
C586 C585 1.523 . S
C587 C571 1.429 . S
C587 C583 1.429 . S
C587 C588 1.523 . S
C588 C572 1.368 . S
C588 C584 1.368 . S
C588 C587 1.523 . S
H589 C564 0.950 . S
H590 C566 0.950 . S
H591 C567 0.949 . S
H592 C569 0.950 . S
H593 C571 0.950 . S
C594 C595 1.349 . S
C594 C596 1.327 . S
C594 H619 0.950 . S
C595 C594 1.349 . S
C595 C611 1.349 . S
C596 C594 1.327 . S
C596 C615 1.429 . S
C596 H620 0.950 . S
C597 C614 1.574 . S
C597 C616 1.368 . S
C597 H621 0.949 . S
H598 C602 0.949 . S
C599 C600 1.349 . S
C599 C601 1.327 . S
C599 H622 0.950 . S
C600 C599 1.349 . S
C600 C612 1.349 . S
C601 C599 1.327 . S
C601 C617 1.429 . S
C601 H623 0.950 . S
C602 H598 0.949 . S
C602 C610 1.574 . S
C602 C618 1.368 . S
H603 C611 0.950 . S
H604 C609 0.950 . S
H605 C610 0.949 . S
H606 C612 0.950 . S
H607 C613 0.950 . S
H608 C614 0.949 . S
C609 H604 0.950 . S
C609 C611 1.327 . S
C609 C615 1.429 . S
C610 C602 1.574 . S
C610 H605 0.949 . S
C610 C616 1.368 . S
C611 C595 1.349 . S
C611 H603 0.950 . S
C611 C609 1.327 . S
C612 C600 1.349 . S
C612 H606 0.950 . S
C612 C613 1.327 . S
C613 H607 0.950 . S
C613 C612 1.327 . S
C613 C617 1.429 . S
C614 C597 1.574 . S
C614 H608 0.949 . S
C614 C618 1.368 . S
C615 C596 1.429 . S
C615 C609 1.429 . S
C615 C616 1.523 . S
C616 C597 1.368 . S
C616 C610 1.368 . S
C616 C615 1.523 . S
C617 C601 1.429 . S
C617 C613 1.429 . S
C617 C618 1.523 . S
C618 C602 1.368 . S
C618 C614 1.368 . S
C618 C617 1.523 . S
H619 C594 0.950 . S
H620 C596 0.950 . S
H621 C597 0.949 . S
H622 C599 0.950 . S
H623 C601 0.950 . S
C624 C625 1.349 . S
C624 C626 1.327 . S
C624 H649 0.950 . S
C625 C624 1.349 . S
C625 C641 1.349 1_655 S
C626 C624 1.327 . S
C626 C645 1.429 1_655 S
C626 H650 0.950 . S
C627 C644 1.574 . S
C627 C646 1.368 . S
C627 H651 0.949 . S
H628 C632 0.949 . S
C629 C630 1.349 . S
C629 C631 1.327 . S
C629 H652 0.950 . S
C630 C629 1.349 . S
C630 C642 1.349 . S
C631 C629 1.327 . S
C631 C647 1.429 . S
C631 H653 0.950 . S
C632 H628 0.949 . S
C632 C640 1.582 . S
C632 C648 1.368 . S
H633 C641 0.950 . S
H634 C639 0.950 . S
H635 C640 0.923 1_655 S
H636 C642 0.950 1_556 S
H637 C643 0.950 . S
H638 C644 0.949 . S
C639 H634 0.950 . S
C639 C641 1.327 . S
C639 C645 1.429 . S
C640 C632 1.582 . S
C640 H635 0.923 1_455 S
C640 C646 1.392 . S
C641 C625 1.349 1_455 S
C641 H633 0.950 . S
C641 C639 1.327 . S
C642 C630 1.349 . S
C642 H636 0.950 1_554 S
C642 C643 1.327 . S
C643 H637 0.950 . S
C643 C642 1.327 . S
C643 C647 1.429 . S
C644 C627 1.574 . S
C644 H638 0.949 . S
C644 C648 1.368 . S
C645 C626 1.429 1_455 S
C645 C639 1.429 . S
C645 C646 1.523 . S
C646 C627 1.368 . S
C646 C640 1.392 . S
C646 C645 1.523 . S
C647 C631 1.429 . S
C647 C643 1.429 . S
C647 C648 1.523 . S
C648 C632 1.368 . S
C648 C644 1.368 . S
C648 C647 1.523 . S
H649 C624 0.950 . S
H650 C626 0.950 . S
H651 C627 0.949 . S
H652 C629 0.950 . S
H653 C631 0.950 . S
C654 C655 1.349 . S
C654 C656 1.327 . S
C654 H679 0.950 . S
C655 C654 1.349 . S
C655 C671 1.349 1_565 S
C656 C654 1.327 . S
C656 C675 1.429 1_565 S
C656 H680 0.950 . S
C657 C674 1.574 . S
C657 C676 1.368 . S
C657 H681 0.949 . S
H658 C662 0.949 . S
C659 C660 1.349 . S
C659 C661 1.327 . S
C659 H682 0.950 . S
C660 C659 1.349 . S
C660 C672 1.312 1_545 S
C661 C659 1.327 . S
C661 C677 1.429 . S
C661 H683 0.950 . S
C662 H658 0.949 . S
C662 C670 1.574 . S
C662 C678 1.368 1_565 S
H663 C671 0.950 . S
H664 C669 0.950 . S
H665 C670 0.949 . S
H666 C672 0.984 . S
H667 C673 0.950 . S
H668 C674 0.949 . S
C669 H664 0.950 . S
C669 C671 1.327 . S
C669 C675 1.429 . S
C670 C662 1.574 . S
C670 H665 0.949 . S
C670 C676 1.368 1_565 S
C671 C655 1.349 1_545 S
C671 H663 0.950 . S
C671 C669 1.327 . S
C672 C660 1.312 1_565 S
C672 H666 0.984 . S
C672 C673 1.331 . S
C673 H667 0.950 . S
C673 C672 1.331 . S
C673 C677 1.429 1_565 S
C674 C657 1.574 . S
C674 H668 0.949 . S
C674 C678 1.368 . S
C675 C656 1.429 1_545 S
C675 C669 1.429 . S
C675 C676 1.523 . S
C676 C657 1.368 . S
C676 C670 1.368 1_545 S
C676 C675 1.523 . S
C677 C661 1.429 . S
C677 C673 1.429 1_545 S
C677 C678 1.523 . S
C678 C662 1.368 1_545 S
C678 C674 1.368 . S
C678 C677 1.523 . S
H679 C654 0.950 . S
H680 C656 0.950 . S
H681 C657 0.949 . S
H682 C659 0.950 . S
H683 C661 0.950 . S
C684 C685 1.349 . S
C684 C686 1.327 . S
C684 H709 0.950 . S
C685 C684 1.349 . S
C685 C701 1.349 . S
C686 C684 1.327 . S
C686 C705 1.429 . S
C686 H710 0.950 . S
C687 C704 1.574 . S
C687 C706 1.368 1_556 S
C687 H711 0.949 . S
H688 C692 0.949 . S
C689 C690 1.349 . S
C689 C691 1.327 . S
C689 H712 0.950 . S
C690 C689 1.349 . S
C690 C702 1.349 . S
C691 C689 1.327 . S
C691 C707 1.429 . S
C691 H713 0.950 . S
C692 H688 0.949 . S
C692 C700 1.574 . S
C692 C708 1.368 1_554 S
H693 C701 0.950 . S
H694 C699 0.950 1_556 S
H695 C700 0.949 . S
H696 C702 0.950 . S
H697 C703 0.950 1_554 S
H698 C704 0.949 . S
C699 H694 0.950 1_554 S
C699 C701 1.327 . S
C699 C705 1.429 . S
C700 C692 1.574 . S
C700 H695 0.949 . S
C700 C706 1.368 . S
C701 C685 1.349 . S
C701 H693 0.950 . S
C701 C699 1.327 . S
C702 C690 1.349 . S
C702 H696 0.950 . S
C702 C703 1.327 . S
C703 H697 0.950 1_556 S
C703 C702 1.327 . S
C703 C707 1.429 . S
C704 C687 1.574 . S
C704 H698 0.949 . S
C704 C708 1.368 . S
C705 C686 1.429 . S
C705 C699 1.429 . S
C705 C706 1.523 . S
C706 C687 1.368 1_554 S
C706 C700 1.368 . S
C706 C705 1.523 . S
C707 C691 1.429 . S
C707 C703 1.429 . S
C707 C708 1.523 . S
C708 C692 1.368 1_556 S
C708 C704 1.368 . S
C708 C707 1.523 . S
H709 C684 0.950 . S
H710 C686 0.950 . S
H711 C687 0.949 . S
H712 C689 0.950 . S
H713 C691 0.950 . S
C714 C715 1.349 . S
C714 C716 1.327 . S
C714 H739 0.950 . S
C715 C714 1.349 . S
C715 C731 1.349 . S
C716 C714 1.327 . S
C716 C735 1.429 . S
C716 H740 0.950 . S
C717 C734 1.574 . S
C717 C736 1.368 . S
C717 H741 0.949 . S
H718 C722 0.949 . S
C719 C720 1.349 . S
C719 C721 1.327 . S
C719 H742 0.950 . S
C720 C719 1.349 . S
C720 C732 1.349 . S
C721 C719 1.327 . S
C721 C737 1.429 . S
C721 H743 0.950 . S
C722 H718 0.949 . S
C722 C730 1.574 . S
C722 C738 1.368 . S
H723 C731 0.950 . S
H724 C729 0.950 . S
H725 C730 0.949 . S
H726 C732 0.950 . S
H727 C733 0.950 . S
H728 C734 0.949 . S
C729 H724 0.950 . S
C729 C731 1.327 . S
C729 C735 1.429 . S
C730 C722 1.574 . S
C730 H725 0.949 . S
C730 C736 1.368 . S
C731 C715 1.349 . S
C731 H723 0.950 . S
C731 C729 1.327 . S
C732 C720 1.349 . S
C732 H726 0.950 . S
C732 C733 1.327 . S
C733 H727 0.950 . S
C733 C732 1.327 . S
C733 C737 1.429 . S
C734 C717 1.574 . S
C734 H728 0.949 . S
C734 C738 1.368 . S
C735 C716 1.429 . S
C735 C729 1.429 . S
C735 C736 1.523 . S
C736 C717 1.368 . S
C736 C730 1.368 . S
C736 C735 1.523 . S
C737 C721 1.429 . S
C737 C733 1.429 . S
C737 C738 1.523 . S
C738 C722 1.368 . S
C738 C734 1.368 . S
C738 C737 1.523 . S
H739 C714 0.950 . S
H740 C716 0.950 . S
H741 C717 0.949 . S
H742 C719 0.950 . S
H743 C721 0.950 . S
C744 C745 1.349 . S
C744 C746 1.327 1_554 S
C744 H769 0.950 . S
C745 C744 1.349 . S
C745 C761 1.349 . S
C746 C744 1.327 1_556 S
C746 C765 1.429 . S
C746 H770 0.950 . S
C747 C764 1.574 . S
C747 C766 1.368 . S
C747 H771 0.949 1_455 S
H748 C752 0.949 . S
C749 C750 1.349 . S
C749 C751 1.327 . S
C749 H772 0.950 1_455 S
C750 C749 1.349 . S
C750 C762 1.349 . S
C751 C749 1.327 . S
C751 C767 1.429 . S
C751 H773 0.950 1_455 S
C752 H748 0.949 . S
C752 C760 1.574 . S
C752 C768 1.368 . S
H753 C761 0.950 1_655 S
H754 C759 0.949 1_656 S
H755 C760 0.949 . S
H756 C762 0.950 . S
H757 C763 0.950 . S
H758 C764 0.949 1_655 S
C759 H754 0.949 1_454 S
C759 C761 1.328 . S
C759 C765 1.428 1_554 S
C760 C752 1.574 . S
C760 H755 0.949 . S
C760 C766 1.368 . S
C761 C745 1.349 . S
C761 H753 0.950 1_455 S
C761 C759 1.328 . S
C762 C750 1.349 . S
C762 H756 0.950 . S
C762 C763 1.327 . S
C763 H757 0.950 . S
C763 C762 1.327 . S
C763 C767 1.429 . S
C764 C747 1.574 . S
C764 H758 0.949 1_455 S
C764 C768 1.368 . S
C765 C746 1.429 . S
C765 C759 1.428 1_556 S
C765 C766 1.523 . S
C766 C747 1.368 . S
C766 C760 1.368 . S
C766 C765 1.523 . S
C767 C751 1.429 . S
C767 C763 1.429 . S
C767 C768 1.523 . S
C768 C752 1.368 . S
C768 C764 1.368 . S
C768 C767 1.523 . S
H769 C744 0.950 . S
H770 C746 0.950 . S
H771 C747 0.949 1_655 S
H772 C749 0.950 1_655 S
H773 C751 0.950 1_655 S
C774 C775 1.349 1_565 S
C774 C776 1.327 . S
C774 H799 0.950 . S
C775 C774 1.349 1_545 S
C775 C791 1.349 . S
C776 C774 1.327 . S
C776 C795 1.429 1_565 S
C776 H800 0.950 1_554 S
C777 C794 1.574 . S
C777 C796 1.368 . S
C777 H801 0.949 . S
H778 C782 0.949 . S
C779 C780 1.349 . S
C779 C781 1.327 . S
C779 H802 0.950 . S
C780 C779 1.349 . S
C780 C792 1.349 1_545 S
C781 C779 1.327 . S
C781 C797 1.429 . S
C781 H803 0.950 . S
C782 H778 0.949 . S
C782 C790 1.574 . S
C782 C798 1.368 1_565 S
H783 C791 0.950 . S
H784 C789 0.950 . S
H785 C790 0.949 . S
H786 C792 0.950 . S
H787 C793 0.950 . S
H788 C794 0.949 . S
C789 H784 0.950 . S
C789 C791 1.327 . S
C789 C795 1.429 . S
C790 C782 1.574 . S
C790 H785 0.949 . S
C790 C796 1.368 1_566 S
C791 C775 1.349 . S
C791 H783 0.950 . S
C791 C789 1.327 . S
C792 C780 1.349 1_565 S
C792 H786 0.950 . S
C792 C793 1.327 . S
C793 H787 0.950 . S
C793 C792 1.327 . S
C793 C797 1.429 1_565 S
C794 C777 1.574 . S
C794 H788 0.949 . S
C794 C798 1.368 1_554 S
C795 C776 1.429 1_545 S
C795 C789 1.429 . S
C795 C796 1.523 . S
C796 C777 1.368 . S
C796 C790 1.368 1_544 S
C796 C795 1.523 . S
C797 C781 1.429 . S
C797 C793 1.429 1_545 S
C797 C798 1.523 . S
C798 C782 1.368 1_545 S
C798 C794 1.368 1_556 S
C798 C797 1.523 . S
H799 C774 0.950 . S
H800 C776 0.950 1_556 S
H801 C777 0.949 . S
H802 C779 0.950 . S
H803 C781 0.950 . S
C804 C805 1.349 . S
C804 C806 1.327 . S
C804 H829 0.950 . S
C805 C804 1.349 . S
C805 C821 1.349 . S
C806 C804 1.327 . S
C806 C825 1.429 . S
C806 H830 0.950 . S
C807 C824 1.574 . S
C807 C826 1.368 . S
C807 H831 0.949 . S
H808 C812 0.949 1_556 S
C809 C810 1.349 . S
C809 C811 1.327 1_556 S
C809 H832 0.950 1_556 S
C810 C809 1.349 . S
C810 C822 1.349 . S
C811 C809 1.327 1_554 S
C811 C827 1.429 . S
C811 H833 0.950 . S
C812 H808 0.949 1_554 S
C812 C820 1.574 . S
C812 C828 1.368 . S
H813 C821 0.950 . S
H814 C819 0.950 . S
H815 C820 0.949 . S
H816 C822 0.950 . S
H817 C823 0.950 . S
H818 C824 0.949 . S
C819 H814 0.950 . S
C819 C821 1.327 . S
C819 C825 1.429 . S
C820 C812 1.574 . S
C820 H815 0.949 . S
C820 C826 1.368 . S
C821 C805 1.349 . S
C821 H813 0.950 . S
C821 C819 1.327 . S
C822 C810 1.349 . S
C822 H816 0.950 . S
C822 C823 1.327 . S
C823 H817 0.950 . S
C823 C822 1.327 . S
C823 C827 1.429 1_556 S
C824 C807 1.574 . S
C824 H818 0.949 . S
C824 C828 1.368 . S
C825 C806 1.429 . S
C825 C819 1.429 . S
C825 C826 1.523 . S
C826 C807 1.368 . S
C826 C820 1.368 . S
C826 C825 1.523 . S
C827 C811 1.429 . S
C827 C823 1.429 1_554 S
C827 C828 1.523 . S
C828 C812 1.368 . S
C828 C824 1.368 . S
C828 C827 1.523 . S
H829 C804 0.950 . S
H830 C806 0.950 . S
H831 C807 0.949 . S
H832 C809 0.950 1_554 S
H833 C811 0.950 . S
C834 C835 1.349 . S
C834 C836 1.327 . S
C834 H859 0.950 . S
C835 C834 1.349 . S
C835 C851 1.349 . S
C836 C834 1.327 . S
C836 C855 1.429 . S
C836 H860 0.950 . S
C837 C854 1.574 . S
C837 C856 1.368 . S
C837 H861 0.949 . S
H838 C842 0.949 . S
C839 C840 1.349 . S
C839 C841 1.327 . S
C839 H862 0.950 . S
C840 C839 1.349 . S
C840 C852 1.349 . S
C841 C839 1.327 . S
C841 C857 1.429 . S
C841 H863 0.950 . S
C842 H838 0.949 . S
C842 C850 1.574 . S
C842 C858 1.368 . S
H843 C851 0.950 1_554 S
H844 C849 0.957 . S
H845 C850 0.949 . S
H846 C852 0.950 . S
H847 C853 0.950 . S
H848 C854 0.949 . S
C849 H844 0.957 . S
C849 C851 1.327 . S
C849 C855 1.429 . S
C850 C842 1.574 . S
C850 H845 0.949 . S
C850 C856 1.368 . S
C851 C835 1.349 . S
C851 H843 0.950 1_556 S
C851 C849 1.327 . S
C852 C840 1.349 . S
C852 H846 0.950 . S
C852 C853 1.327 . S
C853 H847 0.950 . S
C853 C852 1.327 . S
C853 C857 1.429 . S
C854 C837 1.574 . S
C854 H848 0.949 . S
C854 C858 1.368 . S
C855 C836 1.429 . S
C855 C849 1.429 . S
C855 C856 1.523 . S
C856 C837 1.368 . S
C856 C850 1.368 . S
C856 C855 1.523 . S
C857 C841 1.429 . S
C857 C853 1.429 . S
C857 C858 1.523 . S
C858 C842 1.368 . S
C858 C854 1.368 . S
C858 C857 1.523 . S
H859 C834 0.950 . S
H860 C836 0.950 . S
H861 C837 0.949 . S
H862 C839 0.950 . S
H863 C841 0.950 . S
C864 C865 1.349 1_455 S
C864 C866 1.327 . S
C864 H889 0.950 . S
C865 C864 1.349 1_655 S
C865 C881 1.349 . S
C866 C864 1.327 . S
C866 C885 1.429 1_455 S
C866 H890 0.950 . S
C867 C884 1.574 . S
C867 C886 1.419 . S
C867 H891 0.949 . S
H868 C872 0.949 . S
C869 C870 1.349 1_655 S
C869 C871 1.327 . S
C869 H892 0.950 . S
C870 C869 1.349 1_455 S
C870 C882 1.349 . S
C871 C869 1.327 . S
C871 C887 1.411 1_655 S
C871 H893 0.950 . S
C872 H868 0.949 . S
C872 C880 1.574 . S
C872 C888 1.370 1_455 S
H873 C881 0.950 . S
H874 C879 0.950 . S
H875 C880 0.949 . S
H876 C882 0.950 . S
H877 C883 0.950 . S
H878 C884 0.949 . S
C879 H874 0.950 . S
C879 C881 1.327 . S
C879 C885 1.429 . S
C880 C872 1.574 . S
C880 H875 0.949 . S
C880 C886 1.311 1_455 S
C881 C865 1.349 . S
C881 H873 0.950 . S
C881 C879 1.327 . S
C882 C870 1.349 . S
C882 H876 0.950 . S
C882 C883 1.327 . S
C883 H877 0.950 . S
C883 C882 1.327 . S
C883 C887 1.450 . S
C884 C867 1.574 . S
C884 H878 0.949 . S
C884 C888 1.366 . S
C885 C866 1.429 1_655 S
C885 C879 1.429 . S
C885 C886 1.532 . S
C886 C867 1.419 . S
C886 C880 1.311 1_655 S
C886 C885 1.532 . S
C887 C871 1.411 1_455 S
C887 C883 1.450 . S
C887 C888 1.520 1_455 S
C888 C872 1.370 1_655 S
C888 C884 1.366 . S
C888 C887 1.520 1_655 S
H889 C864 0.950 . S
H890 C866 0.950 . S
H891 C867 0.949 . S
H892 C869 0.950 . S
H893 C871 0.950 . S
C894 C895 1.349 . S
C894 C896 1.327 . S
C894 H919 0.950 . S
C895 C894 1.349 . S
C895 C911 1.349 1_565 S
C896 C894 1.327 . S
C896 C915 1.429 . S
C896 H920 0.950 . S
C897 C914 1.571 1_545 S
C897 C916 1.364 1_545 S
C897 H921 0.956 . S
H898 C902 0.949 . S
C899 C900 1.349 . S
C899 C901 1.327 . S
C899 H922 0.949 1_565 S
C900 C899 1.349 . S
C900 C912 1.349 . S
C901 C899 1.327 . S
C901 C917 1.429 . S
C901 H923 0.950 1_565 S
C902 H898 0.949 . S
C902 C910 1.574 . S
C902 C918 1.368 . S
H903 C911 0.950 . S
H904 C909 0.950 . S
H905 C910 0.949 . S
H906 C912 0.950 . S
H907 C913 0.950 . S
H908 C914 0.949 1_545 S
C909 H904 0.950 . S
C909 C911 1.327 . S
C909 C915 1.429 1_545 S
C910 C902 1.574 . S
C910 H905 0.949 . S
C910 C916 1.368 . S
C911 C895 1.349 1_545 S
C911 H903 0.950 . S
C911 C909 1.327 . S
C912 C900 1.349 . S
C912 H906 0.950 . S
C912 C913 1.327 . S
C913 H907 0.950 . S
C913 C912 1.327 . S
C913 C917 1.429 . S
C914 C897 1.571 1_565 S
C914 H908 0.949 1_565 S
C914 C918 1.369 . S
C915 C896 1.429 . S
C915 C909 1.429 1_565 S
C915 C916 1.523 . S
C916 C897 1.364 1_565 S
C916 C910 1.368 . S
C916 C915 1.523 . S
C917 C901 1.429 . S
C917 C913 1.429 . S
C917 C918 1.523 . S
C918 C902 1.368 . S
C918 C914 1.369 . S
C918 C917 1.523 . S
H919 C894 0.950 . S
H920 C896 0.950 . S
H921 C897 0.956 . S
H922 C899 0.949 1_545 S
H923 C901 0.950 1_545 S
C924 C925 1.349 . S
C924 C926 1.327 . S
C924 H949 0.950 . S
C925 C924 1.349 . S
C925 C941 1.349 . S
C926 C924 1.327 . S
C926 C945 1.429 . S
C926 H950 0.950 . S
C927 C944 1.574 . S
C927 C946 1.368 . S
C927 H951 0.949 . S
H928 C932 0.949 . S
C929 C930 1.349 . S
C929 C931 1.327 . S
C929 H952 0.950 . S
C930 C929 1.349 . S
C930 C942 1.349 . S
C931 C929 1.327 . S
C931 C947 1.429 . S
C931 H953 0.950 . S
C932 H928 0.949 . S
C932 C940 1.574 . S
C932 C948 1.368 . S
H933 C941 0.950 . S
H934 C939 0.950 . S
H935 C940 0.949 . S
H936 C942 0.950 . S
H937 C943 0.950 . S
H938 C944 0.949 . S
C939 H934 0.950 . S
C939 C941 1.327 . S
C939 C945 1.429 . S
C940 C932 1.574 . S
C940 H935 0.949 . S
C940 C946 1.368 . S
C941 C925 1.349 . S
C941 H933 0.950 . S
C941 C939 1.327 . S
C942 C930 1.349 . S
C942 H936 0.950 . S
C942 C943 1.327 . S
C943 H937 0.950 . S
C943 C942 1.327 . S
C943 C947 1.429 . S
C944 C927 1.574 . S
C944 H938 0.949 . S
C944 C948 1.368 . S
C945 C926 1.429 . S
C945 C939 1.429 . S
C945 C946 1.523 . S
C946 C927 1.368 . S
C946 C940 1.368 . S
C946 C945 1.523 . S
C947 C931 1.429 . S
C947 C943 1.429 . S
C947 C948 1.523 . S
C948 C932 1.368 . S
C948 C944 1.368 . S
C948 C947 1.523 . S
H949 C924 0.950 . S
H950 C926 0.950 . S
H951 C927 0.949 . S
H952 C929 0.950 . S
H953 C931 0.950 . S
C954 C955 1.349 . S
C954 C956 1.327 . S
C954 H979 0.950 . S
C955 C954 1.349 . S
C955 C971 1.349 . S
C956 C954 1.327 . S
C956 C975 1.429 . S
C956 H980 0.950 . S
C957 C974 1.574 . S
C957 C976 1.368 . S
C957 H981 0.949 . S
H958 C962 0.949 . S
C959 C960 1.349 . S
C959 C961 1.327 . S
C959 H982 0.950 . S
C960 C959 1.349 . S
C960 C972 1.349 . S
C961 C959 1.327 . S
C961 C977 1.429 . S
C961 H983 0.950 . S
C962 H958 0.949 . S
C962 C970 1.574 . S
C962 C978 1.368 . S
H963 C971 0.950 . S
H964 C969 0.950 . S
H965 C970 0.949 . S
H966 C972 0.950 . S
H967 C973 0.950 . S
H968 C974 0.949 . S
C969 H964 0.950 . S
C969 C971 1.327 . S
C969 C975 1.429 . S
C970 C962 1.574 . S
C970 H965 0.949 . S
C970 C976 1.368 . S
C971 C955 1.349 . S
C971 H963 0.950 . S
C971 C969 1.327 . S
C972 C960 1.349 . S
C972 H966 0.950 . S
C972 C973 1.327 . S
C973 H967 0.950 . S
C973 C972 1.327 . S
C973 C977 1.429 . S
C974 C957 1.574 . S
C974 H968 0.949 . S
C974 C978 1.368 . S
C975 C956 1.429 . S
C975 C969 1.429 . S
C975 C976 1.523 . S
C976 C957 1.368 . S
C976 C970 1.368 . S
C976 C975 1.523 . S
C977 C961 1.429 . S
C977 C973 1.429 . S
C977 C978 1.523 . S
C978 C962 1.368 . S
C978 C974 1.368 . S
C978 C977 1.523 . S
H979 C954 0.950 . S
H980 C956 0.950 . S
H981 C957 0.949 . S
H982 C959 0.950 . S
H983 C961 0.950 . S
C265 N80 1.973 . S
C270 C106 1.983 1_545 S
C300 C146 2.089 . S
C295 N93 2.091 . S
C330 C210 1.785 . S
C325 N54 1.742 . S
C360 C226 1.442 . S
C355 N67 1.387 . S
C390 C127 1.983 1_565 S
C385 N28 1.979 . S
C415 N41 2.098 . S
C420 C167 2.089 . S
C445 N2 1.747 . S
C450 C201 1.784 1_554 S
C475 N15 1.389 . S
C480 C247 1.442 . S
C510 C121 0.230 1_655 S
C505 N70 0.217 . S
C540 C161 0.536 . S
C535 N83 0.519 . S
C570 C197 0.450 . S
C565 N96 0.379 . S
C595 N57 0.364 . S
C600 C241 0.415 . S
C625 N18 0.206 . S
C630 C130 0.278 . S
C660 C170 0.536 1_554 S
C655 N31 0.518 . S
C690 C208 0.450 . S
C685 N44 0.373 . S
C715 N5 0.353 . S
C720 C250 0.415 . S
C745 N66 1.848 . S
C750 C128 1.903 . S
C775 N79 1.886 . S
C780 C168 1.919 . S
C810 C186 1.511 . S
C805 N92 1.541 . S
C840 C248 2.266 . S
C835 N53 2.197 . S
C865 N14 1.850 . S
C870 C117 1.903 . S
C900 C157 1.919 . S
C895 N27 1.884 . S
C930 C207 1.510 . S
C925 N40 1.551 . S
C955 N1 2.205 . S
C960 C237 2.266 . S
