# Generated by pormake.
# Topology dag, (6,3)-cn, num edge types: 1
# Building blocks:
#     Node 0, Type 0, BuildingBlock: OJICUG_clean_sbu_0, # of connection points: 6
#     Node 1, Type 0, BuildingBlock: OJICUG_clean_sbu_0, # of connection points: 6
#     Node 2, Type 0, BuildingBlock: OJICUG_clean_sbu_0, # of connection points: 6
#     Node 3, Type 0, BuildingBlock: OJICUG_clean_sbu_0, # of connection points: 6
#     Node 4, Type 1, BuildingBlock: QEWDON_clean_linker_0, # of connection points: 3
#     Node 5, Type 1, BuildingBlock: QEWDON_clean_linker_0, # of connection points: 3
#     Node 6, Type 1, BuildingBlock: QEWDON_clean_linker_0, # of connection points: 3
#     Node 7, Type 1, BuildingBlock: QEWDON_clean_linker_0, # of connection points: 3
#     Node 8, Type 1, BuildingBlock: QEWDON_clean_linker_0, # of connection points: 3
#     Node 9, Type 1, BuildingBlock: QEWDON_clean_linker_0, # of connection points: 3
#     Node 10, Type 1, BuildingBlock: QEWDON_clean_linker_0, # of connection points: 3
#     Node 11, Type 1, BuildingBlock: QEWDON_clean_linker_0, # of connection points: 3
#     Edge 12, Type (0, 1), BuildingBlock: TEMPAE_clean_linker_10, # of connection points: 2
#     Edge 13, Type (0, 1), BuildingBlock: TEMPAE_clean_linker_10, # of connection points: 2
#     Edge 14, Type (0, 1), BuildingBlock: TEMPAE_clean_linker_10, # of connection points: 2
#     Edge 15, Type (0, 1), BuildingBlock: TEMPAE_clean_linker_10, # of connection points: 2
#     Edge 16, Type (0, 1), BuildingBlock: TEMPAE_clean_linker_10, # of connection points: 2
#     Edge 17, Type (0, 1), BuildingBlock: TEMPAE_clean_linker_10, # of connection points: 2
#     Edge 18, Type (0, 1), BuildingBlock: TEMPAE_clean_linker_10, # of connection points: 2
#     Edge 19, Type (0, 1), BuildingBlock: TEMPAE_clean_linker_10, # of connection points: 2
#     Edge 20, Type (0, 1), BuildingBlock: TEMPAE_clean_linker_10, # of connection points: 2
#     Edge 21, Type (0, 1), BuildingBlock: TEMPAE_clean_linker_10, # of connection points: 2
#     Edge 22, Type (0, 1), BuildingBlock: TEMPAE_clean_linker_10, # of connection points: 2
#     Edge 23, Type (0, 1), BuildingBlock: TEMPAE_clean_linker_10, # of connection points: 2
#     Edge 24, Type (0, 1), BuildingBlock: TEMPAE_clean_linker_10, # of connection points: 2
#     Edge 25, Type (0, 1), BuildingBlock: TEMPAE_clean_linker_10, # of connection points: 2
#     Edge 26, Type (0, 1), BuildingBlock: TEMPAE_clean_linker_10, # of connection points: 2
#     Edge 27, Type (0, 1), BuildingBlock: TEMPAE_clean_linker_10, # of connection points: 2
#     Edge 28, Type (0, 1), BuildingBlock: TEMPAE_clean_linker_10, # of connection points: 2
#     Edge 29, Type (0, 1), BuildingBlock: TEMPAE_clean_linker_10, # of connection points: 2
#     Edge 30, Type (0, 1), BuildingBlock: TEMPAE_clean_linker_10, # of connection points: 2
#     Edge 31, Type (0, 1), BuildingBlock: TEMPAE_clean_linker_10, # of connection points: 2
#     Edge 32, Type (0, 1), BuildingBlock: TEMPAE_clean_linker_10, # of connection points: 2
#     Edge 33, Type (0, 1), BuildingBlock: TEMPAE_clean_linker_10, # of connection points: 2
#     Edge 34, Type (0, 1), BuildingBlock: TEMPAE_clean_linker_10, # of connection points: 2
#     Edge 35, Type (0, 1), BuildingBlock: TEMPAE_clean_linker_10, # of connection points: 2
# Relax obj value: 0.045
# Max RMSD: 0.070
# Mean RMSD: 0.064
data_MOF--net-dag--node1-OJICUG_clean_sbu_0--node2-QEWDON_clean_linker_0--edge1-TEMPAE_clean_linker_10
_symmetry_space_group_name_H-M    P1
_symmetry_Int_Tables_number       1
_symmetry_cell_setting            triclinic
loop_
_symmetry_equiv_pos_as_xyz
'x, y, z'
_cell_length_a     40.226662
_cell_length_b     40.249328
_cell_length_c     42.332372
_cell_angle_alpha  90.014826
_cell_angle_beta   90.007914
_cell_angle_gamma 89.96959
loop_
_atom_site_label
_atom_site_type_symbol
_atom_site_fract_x
_atom_site_fract_y
_atom_site_fract_z
_atom_type_partial_charge
Sc0 Sc 0.11273 0.89825 0.99619 0.0
Sc1 Sc 0.13492 0.81398 0.99747 0.0
Sc2 Sc 0.19725 0.87605 0.00203 0.0
O3 O 0.14838 0.86273 0.99845 0.0
C4 C 0.17037 0.93028 0.95382 0.0
C5 C 0.08694 0.84554 0.94533 0.0
C6 C 0.20163 0.81299 0.9564 0.0
C7 C 0.07625 0.84431 0.03906 0.0
C8 C 0.16171 0.92891 0.04759 0.0
C9 C 0.19131 0.81547 0.05062 0.0
O10 O 0.14066 0.92784 0.96365 0.0
O11 O 0.10217 0.82082 0.95734 0.0
O12 O 0.21322 0.84004 0.96733 0.0
O13 O 0.08003 0.8736 0.02862 0.0
O14 O 0.18735 0.91369 0.03749 0.0
O15 O 0.16587 0.8028 0.03746 0.0
O16 O 0.13306 0.92498 0.0355 0.0
O17 O 0.09439 0.82018 0.03032 0.0
O18 O 0.20562 0.84151 0.0403 0.0
O19 O 0.08887 0.87475 0.95669 0.0
O20 O 0.19395 0.91231 0.9643 0.0
O21 O 0.17389 0.80102 0.96509 0.0
Sc22 Sc 0.67961 0.63655 0.49558 0.0
Sc23 Sc 0.61603 0.69772 0.49471 0.0
Sc24 Sc 0.59573 0.61296 0.4988 0.0
O25 O 0.63051 0.64917 0.4965 0.0
C26 C 0.64694 0.58182 0.45032 0.0
C27 C 0.67409 0.69396 0.4436 0.0
C28 C 0.55897 0.66436 0.45329 0.0
C29 C 0.68122 0.70212 0.53787 0.0
C30 C 0.65246 0.58348 0.54418 0.0
C31 C 0.56796 0.66703 0.54737 0.0
O32 O 0.67207 0.59654 0.46205 0.0
O33 O 0.64775 0.70696 0.45475 0.0
O34 O 0.56307 0.63587 0.46538 0.0
O35 O 0.69318 0.67447 0.52893 0.0
O36 O 0.62338 0.58413 0.5325 0.0
O37 O 0.58233 0.69178 0.5344 0.0
O38 O 0.67559 0.60254 0.53476 0.0
O39 O 0.65396 0.7137 0.52742 0.0
O40 O 0.57113 0.63736 0.53733 0.0
O41 O 0.6887 0.66918 0.45611 0.0
O42 O 0.6174 0.58635 0.46 0.0
O43 O 0.57653 0.68925 0.46103 0.0
Sc44 Sc 0.85701 0.17809 0.00251 0.0
Sc45 Sc 0.79628 0.11483 0.99684 0.0
Sc46 Sc 0.88057 0.09423 0.00386 0.0
O47 O 0.84459 0.12914 0.00121 0.0
C48 C 0.91607 0.14924 0.9611 0.0
C49 C 0.80165 0.17441 0.94817 0.0
C50 C 0.8335 0.06158 0.95292 0.0
C51 C 0.79023 0.17844 0.04212 0.0
C52 C 0.90577 0.14669 0.05446 0.0
C53 C 0.82243 0.06238 0.04611 0.0
O54 O 0.89612 0.17264 0.96796 0.0
O55 O 0.79013 0.14626 0.95628 0.0
O56 O 0.86235 0.06823 0.96331 0.0
O57 O 0.81943 0.18914 0.03698 0.0
O58 O 0.90239 0.11709 0.04451 0.0
O59 O 0.79921 0.0816 0.03695 0.0
O60 O 0.89188 0.17149 0.04117 0.0
O61 O 0.77814 0.15323 0.02812 0.0
O62 O 0.85169 0.06346 0.03482 0.0
O63 O 0.82388 0.18983 0.96381 0.0
O64 O 0.91396 0.12046 0.9732 0.0
O65 O 0.80733 0.07471 0.9643 0.0
Sc66 Sc 0.40892 0.37069 0.49734 0.0
Sc67 Sc 0.32443 0.3505 0.5023 0.0
Sc68 Sc 0.38528 0.28683 0.5053 0.0
O69 O 0.37286 0.3359 0.50152 0.0
C70 C 0.4361 0.31292 0.45267 0.0
C71 C 0.35331 0.3993 0.45046 0.0
C72 C 0.3204 0.28326 0.46207 0.0
C73 C 0.35911 0.40719 0.54395 0.0
C74 C 0.44249 0.32039 0.5463 0.0
C75 C 0.32691 0.29506 0.55608 0.0
O76 O 0.43312 0.34325 0.46062 0.0
O77 O 0.32943 0.38196 0.4612 0.0
O78 O 0.34812 0.27163 0.4714 0.0
O79 O 0.3883 0.4013 0.53394 0.0
O80 O 0.42384 0.2958 0.53993 0.0
O81 O 0.31483 0.32107 0.54349 0.0
O82 O 0.44 0.34817 0.53236 0.0
O83 O 0.33369 0.39178 0.53376 0.0
O84 O 0.35154 0.27936 0.54445 0.0
O85 O 0.3825 0.39814 0.46186 0.0
O86 O 0.42087 0.28947 0.4668 0.0
O87 O 0.30891 0.31092 0.47159 0.0
H88 H 0.16187 0.09746 0.2506 0.0
C89 C 0.14283 0.11111 0.23794 0.0
C90 C 0.13881 0.10629 0.20531 0.0
C91 C 0.12123 0.13238 0.25448 0.0
H92 H 0.10913 0.1182 0.16458 0.0
C93 C 0.11342 0.12337 0.1894 0.0
C94 C 0.09153 0.14452 0.20558 0.0
C95 C 0.09566 0.14896 0.2382 0.0
C96 C 0.12381 0.13584 0.28912 0.0
H97 H 0.07875 0.16501 0.25105 0.0
C98 C 0.15344 0.1469 0.30321 0.0
C99 C 0.1551 0.15222 0.33608 0.0
C100 C 0.09604 0.12911 0.30813 0.0
H101 H 0.07302 0.12045 0.2977 0.0
C102 C 0.09774 0.13351 0.34074 0.0
H103 H 0.17484 0.15204 0.28845 0.0
C104 C 0.12691 0.14519 0.35466 0.0
H105 H 0.12701 0.1496 0.37989 0.0
H106 H 0.07618 0.1284 0.35524 0.0
H107 H 0.39519 0.66877 0.74644 0.0
C108 C 0.38412 0.64935 0.73215 0.0
C109 C 0.39124 0.64765 0.69973 0.0
C110 C 0.36399 0.62501 0.7464 0.0
H111 H 0.38472 0.61929 0.65704 0.0
C112 C 0.3777 0.62172 0.68167 0.0
C113 C 0.35789 0.5971 0.69555 0.0
C114 C 0.351 0.59899 0.72796 0.0
C115 C 0.35795 0.62545 0.78085 0.0
H116 H 0.33579 0.58 0.73895 0.0
C117 C 0.34538 0.65404 0.79574 0.0
C118 C 0.33785 0.65374 0.82825 0.0
C119 C 0.36389 0.59674 0.79883 0.0
H120 H 0.3738 0.57451 0.78788 0.0
C121 C 0.35715 0.59646 0.83112 0.0
H122 H 0.34087 0.6762 0.78185 0.0
C123 C 0.34402 0.62461 0.84573 0.0
H124 H 0.33791 0.62321 0.87061 0.0
H125 H 0.36165 0.57418 0.84478 0.0
H126 H 0.85799 0.77333 0.17311 0.0
C127 C 0.84905 0.7987 0.17455 0.0
C128 C 0.87058 0.82517 0.16782 0.0
C129 C 0.81581 0.80496 0.18262 0.0
H130 H 0.87455 0.87808 0.16169 0.0
C131 C 0.85845 0.85783 0.16889 0.0
C132 C 0.82488 0.86426 0.17556 0.0
C133 C 0.80377 0.83769 0.18306 0.0
C134 C 0.79287 0.77726 0.18861 0.0
H135 H 0.77768 0.84231 0.18779 0.0
C136 C 0.78043 0.77199 0.21911 0.0
C137 C 0.75715 0.7466 0.22497 0.0
C138 C 0.78251 0.7568 0.16372 0.0
H139 H 0.79193 0.76067 0.14003 0.0
C140 C 0.7593 0.73171 0.16918 0.0
H141 H 0.78947 0.78745 0.23822 0.0
C142 C 0.74649 0.72673 0.19948 0.0
H143 H 0.728 0.70751 0.20279 0.0
H144 H 0.75098 0.71624 0.14981 0.0
H145 H 0.73164 0.37028 0.68206 0.0
C146 C 0.70638 0.36088 0.68205 0.0
C147 C 0.67987 0.38221 0.67485 0.0
C148 C 0.70035 0.32726 0.68865 0.0
H149 H 0.62726 0.38558 0.66629 0.0
C150 C 0.64742 0.36953 0.67388 0.0
C151 C 0.64129 0.33563 0.67899 0.0
C152 C 0.66786 0.31469 0.68704 0.0
C153 C 0.72821 0.30456 0.69506 0.0
H154 H 0.6635 0.28837 0.69062 0.0
C155 C 0.73223 0.2909 0.72526 0.0
C156 C 0.75797 0.26805 0.73142 0.0
C157 C 0.75019 0.29579 0.67079 0.0
H158 H 0.7473 0.30615 0.64733 0.0
C159 C 0.77559 0.27297 0.67652 0.0
H160 H 0.71557 0.29869 0.74397 0.0
C161 C 0.7794 0.259 0.70651 0.0
H162 H 0.79895 0.24088 0.71003 0.0
H163 H 0.79225 0.26588 0.6576 0.0
H164 H 0.64631 0.40847 0.26102 0.0
C165 C 0.63728 0.3863 0.2727 0.0
C166 C 0.63355 0.38577 0.30573 0.0
C167 C 0.62807 0.35868 0.25435 0.0
H168 H 0.61761 0.35622 0.34536 0.0
C169 C 0.6209 0.35688 0.31998 0.0
C170 C 0.60961 0.32996 0.30181 0.0
C171 C 0.61406 0.33068 0.26898 0.0
C172 C 0.6303 0.3601 0.21957 0.0
H173 H 0.60503 0.31025 0.25465 0.0
C174 C 0.64818 0.33577 0.20294 0.0
C175 C 0.64964 0.33636 0.16968 0.0
C176 C 0.6139 0.38536 0.20289 0.0
H177 H 0.59987 0.40425 0.21533 0.0
C178 C 0.61482 0.38592 0.16996 0.0
H179 H 0.66154 0.31693 0.2161 0.0
C180 C 0.63236 0.36156 0.15341 0.0
H181 H 0.63213 0.36239 0.12785 0.0
H182 H 0.60172 0.4052 0.1572 0.0
H183 H 0.21579 0.1534 0.81383 0.0
C184 C 0.18955 0.15736 0.81836 0.0
C185 C 0.16932 0.13038 0.82673 0.0
C186 C 0.17626 0.18964 0.8173 0.0
H187 H 0.12022 0.11524 0.8411 0.0
C188 C 0.13555 0.13582 0.83325 0.0
C189 C 0.1222 0.16799 0.833 0.0
C190 C 0.14269 0.19485 0.82503 0.0
C191 C 0.19759 0.21819 0.8091 0.0
H192 H 0.13254 0.21982 0.82497 0.0
C193 C 0.2151 0.21846 0.78043 0.0
C194 C 0.23374 0.24647 0.77142 0.0
C195 C 0.19952 0.24576 0.82932 0.0
H196 H 0.18623 0.24597 0.85158 0.0
C197 C 0.2187 0.27325 0.82096 0.0
H198 H 0.21352 0.19713 0.76486 0.0
C199 C 0.23556 0.27377 0.79215 0.0
H200 H 0.24927 0.29592 0.78575 0.0
H201 H 0.22005 0.29447 0.83662 0.0
H202 H 0.34036 0.69338 0.30339 0.0
C203 C 0.33693 0.66685 0.30636 0.0
C204 C 0.36397 0.64686 0.31532 0.0
C205 C 0.30507 0.65293 0.30314 0.0
H206 H 0.37946 0.59737 0.32819 0.0
C207 C 0.35905 0.61266 0.31983 0.0
C208 C 0.32728 0.59868 0.31733 0.0
C209 C 0.30033 0.61892 0.30903 0.0
C210 C 0.2762 0.6742 0.29572 0.0
H211 H 0.2756 0.6083 0.3077 0.0
C212 C 0.27565 0.69323 0.26794 0.0
C213 C 0.24734 0.71203 0.25993 0.0
C214 C 0.24863 0.67469 0.31603 0.0
H215 H 0.24866 0.66024 0.33763 0.0
C216 C 0.22084 0.6939 0.30866 0.0
H217 H 0.29698 0.69278 0.2523 0.0
C218 C 0.22004 0.71231 0.28075 0.0
H219 H 0.19767 0.72604 0.27508 0.0
H220 H 0.19963 0.69412 0.32439 0.0
H221 H 0.91786 0.82984 0.74374 0.0
C222 C 0.90072 0.84442 0.75784 0.0
C223 C 0.90516 0.84679 0.79066 0.0
C224 C 0.87462 0.86163 0.74305 0.0
H225 H 0.88802 0.87036 0.83331 0.0
C226 C 0.88334 0.86671 0.80831 0.0
C227 C 0.85774 0.88473 0.79371 0.0
C228 C 0.85323 0.88174 0.76098 0.0
C229 C 0.8715 0.86134 0.70844 0.0
H230 H 0.83395 0.89601 0.74928 0.0
C231 C 0.84729 0.84163 0.69368 0.0
C232 C 0.84319 0.8426 0.66061 0.0
C233 C 0.89198 0.88193 0.69022 0.0
H234 H 0.91066 0.89736 0.70139 0.0
C235 C 0.888 0.88323 0.65753 0.0
H236 H 0.83206 0.82535 0.70803 0.0
C237 C 0.8637 0.86392 0.64279 0.0
H238 H 0.86077 0.86605 0.61745 0.0
H239 H 0.9036 0.89948 0.64358 0.0
C240 C 0.13714 0.97079 0.08439 0.0
C241 C 0.16508 0.95292 0.07408 0.0
C242 C 0.13961 0.99461 0.10836 0.0
C243 C 0.17081 0.0008 0.12268 0.0
C244 C 0.19905 0.98243 0.11302 0.0
C245 C 0.19589 0.95874 0.08873 0.0
C246 C 0.10878 0.01366 0.1179 0.0
C247 C 0.23264 0.98824 0.1279 0.0
C248 C 0.16944 0.08683 0.15752 0.0
C249 C 0.15735 0.0802 0.18793 0.0
C250 C 0.17748 0.0609 0.13677 0.0
C251 C 0.17334 0.0276 0.14678 0.0
C252 C 0.16496 0.02088 0.17865 0.0
C253 C 0.15699 0.04736 0.19891 0.0
C254 C 0.18668 0.06925 0.10313 0.0
C255 C 0.16078 0.98575 0.19042 0.0
H256 H 0.11317 0.96654 0.07343 0.0
H257 H 0.21763 0.94502 0.08106 0.0
H258 H 0.10414 0.0106 0.14357 0.0
H259 H 0.11242 0.04057 0.11338 0.0
H260 H 0.0863 0.00536 0.10486 0.0
H261 H 0.25141 0.96981 0.11989 0.0
H262 H 0.24162 0.01347 0.12174 0.0
H263 H 0.23074 0.98706 0.15402 0.0
H264 H 0.17012 0.11229 0.14914 0.0
H265 H 0.14762 0.0421 0.2224 0.0
H266 H 0.16478 0.0652 0.08765 0.0
H267 H 0.20693 0.05287 0.09454 0.0
H268 H 0.19466 0.09554 0.10066 0.0
H269 H 0.13657 0.97586 0.18209 0.0
H270 H 0.16116 0.98454 0.21663 0.0
H271 H 0.18061 0.96936 0.18098 0.0
C272 C 0.527 0.6458 0.5867 0.0
C273 C 0.54515 0.67263 0.57446 0.0
C274 C 0.50336 0.65035 0.61051 0.0
C275 C 0.49781 0.68257 0.62291 0.0
C276 C 0.51693 0.70965 0.61173 0.0
C277 C 0.54023 0.70442 0.58739 0.0
C278 C 0.48354 0.62063 0.62166 0.0
C279 C 0.51212 0.74428 0.6246 0.0
C280 C 0.41096 0.68194 0.65451 0.0
C281 C 0.41668 0.66915 0.68482 0.0
C282 C 0.43755 0.69096 0.63494 0.0
C283 C 0.47049 0.68719 0.64617 0.0
C284 C 0.476 0.67931 0.67835 0.0
C285 C 0.44891 0.67016 0.69738 0.0
C286 C 0.43047 0.69995 0.601 0.0
C287 C 0.51069 0.67627 0.69154 0.0
H288 H 0.53058 0.62108 0.57712 0.0
H289 H 0.55421 0.72533 0.57825 0.0
H290 H 0.48652 0.61739 0.64752 0.0
H291 H 0.45671 0.62465 0.61689 0.0
H292 H 0.49128 0.59721 0.60984 0.0
H293 H 0.53398 0.76032 0.61969 0.0
H294 H 0.49007 0.75574 0.61323 0.0
H295 H 0.50762 0.74384 0.65046 0.0
H296 H 0.38591 0.68174 0.64501 0.0
H297 H 0.45344 0.66052 0.7209 0.0
H298 H 0.4352 0.67798 0.58579 0.0
H299 H 0.44706 0.72022 0.59294 0.0
H300 H 0.40422 0.7078 0.5976 0.0
H301 H 0.52131 0.65188 0.68463 0.0
H302 H 0.51073 0.67782 0.71775 0.0
H303 H 0.52712 0.69596 0.68192 0.0
C304 C 0.83488 0.0074 0.06964 0.0
C305 C 0.81551 0.03634 0.06984 0.0
C306 C 0.82984 0.9822 0.09179 0.0
C307 C 0.80502 0.98611 0.11522 0.0
C308 C 0.78518 0.01521 0.11563 0.0
C309 C 0.79049 0.03999 0.09268 0.0
C310 C 0.85128 0.95135 0.09001 0.0
C311 C 0.75901 0.0205 0.14065 0.0
C312 C 0.78611 0.90094 0.14602 0.0
C313 C 0.81138 0.89769 0.1686 0.0
C314 C 0.78051 0.9314 0.13085 0.0
C315 C 0.80053 0.9591 0.13876 0.0
C316 C 0.82265 0.95701 0.16471 0.0
C317 C 0.82809 0.92612 0.17917 0.0
C318 C 0.75653 0.93252 0.10345 0.0
C319 C 0.84368 0.98624 0.17458 0.0
H320 H 0.85398 0.00422 0.05182 0.0
H321 H 0.77562 0.06246 0.09302 0.0
H322 H 0.86611 0.94877 0.11197 0.0
H323 H 0.83541 0.92892 0.0879 0.0
H324 H 0.86867 0.95184 0.06964 0.0
H325 H 0.74299 0.0423 0.13542 0.0
H326 H 0.74306 0.99816 0.14307 0.0
H327 H 0.77128 0.02459 0.1638 0.0
H328 H 0.77312 0.87898 0.13778 0.0
H329 H 0.84732 0.92368 0.19698 0.0
H330 H 0.77064 0.93007 0.08104 0.0
H331 H 0.74301 0.95652 0.10272 0.0
H332 H 0.73815 0.91197 0.10463 0.0
H333 H 0.86514 0.98856 0.15825 0.0
H334 H 0.85347 0.98311 0.19895 0.0
H335 H 0.82926 0.0097 0.17336 0.0
C336 C 0.49642 0.33839 0.56931 0.0
C337 C 0.46912 0.31677 0.57021 0.0
C338 C 0.52216 0.33596 0.59138 0.0
C339 C 0.52048 0.31154 0.61539 0.0
C340 C 0.49293 0.28967 0.61669 0.0
C341 C 0.46763 0.29235 0.59384 0.0
C342 C 0.55129 0.35956 0.58881 0.0
C343 C 0.4901 0.26377 0.6423 0.0
C344 C 0.60673 0.29709 0.64689 0.0
C345 C 0.60845 0.32189 0.67007 0.0
C346 C 0.57688 0.29067 0.6309 0.0
C347 C 0.54815 0.30934 0.63858 0.0
C348 C 0.54888 0.33145 0.66461 0.0
C349 C 0.57918 0.33771 0.6799 0.0
C350 C 0.57728 0.26696 0.60327 0.0
C351 C 0.51862 0.35125 0.67407 0.0
H352 H 0.49795 0.35713 0.55098 0.0
H353 H 0.44647 0.27571 0.59475 0.0
H354 H 0.55323 0.37478 0.61058 0.0
H355 H 0.57479 0.34533 0.58643 0.0
H356 H 0.54907 0.3766 0.56828 0.0
H357 H 0.46714 0.24862 0.63997 0.0
H358 H 0.51193 0.24695 0.64164 0.0
H359 H 0.49004 0.27598 0.6658 0.0
H360 H 0.62935 0.28491 0.63912 0.0
H361 H 0.58046 0.35665 0.69808 0.0
H362 H 0.57873 0.2814 0.58098 0.0
H363 H 0.55419 0.25196 0.60244 0.0
H364 H 0.59898 0.2499 0.60423 0.0
H365 H 0.5154 0.37236 0.65749 0.0
H366 H 0.52109 0.36147 0.69835 0.0
H367 H 0.49584 0.33579 0.67285 0.0
C368 C 0.67425 0.53076 0.42974 0.0
C369 C 0.65203 0.55709 0.42522 0.0
C370 C 0.67513 0.50398 0.40848 0.0
C371 C 0.65401 0.50427 0.38167 0.0
C372 C 0.63346 0.53219 0.37584 0.0
C373 C 0.63221 0.55798 0.39807 0.0
C374 C 0.69663 0.47429 0.41608 0.0
C375 C 0.61138 0.53399 0.34705 0.0
C376 C 0.66545 0.43838 0.31792 0.0
C377 C 0.63968 0.41611 0.32522 0.0
C378 C 0.67044 0.46737 0.3359 0.0
C379 C 0.64981 0.47372 0.36232 0.0
C380 C 0.62413 0.45116 0.37006 0.0
C381 C 0.61893 0.42319 0.35108 0.0
C382 C 0.69741 0.49143 0.3264 0.0
C383 C 0.60183 0.45665 0.39834 0.0
H384 H 0.68934 0.53008 0.45097 0.0
H385 H 0.61519 0.57857 0.3946 0.0
H386 H 0.68053 0.45315 0.4231 0.0
H387 H 0.71095 0.46635 0.39502 0.0
H388 H 0.71428 0.47946 0.43566 0.0
H389 H 0.60123 0.55937 0.34334 0.0
H390 H 0.62529 0.5264 0.32559 0.0
H391 H 0.59021 0.51659 0.34985 0.0
H392 H 0.68178 0.4332 0.29817 0.0
H393 H 0.5981 0.40711 0.35642 0.0
H394 H 0.7154 0.49463 0.34602 0.0
H395 H 0.68637 0.51618 0.32155 0.0
H396 H 0.71113 0.48305 0.30505 0.0
H397 H 0.61703 0.4606 0.4199 0.0
H398 H 0.58482 0.43537 0.40256 0.0
H399 H 0.58658 0.4793 0.39475 0.0
C400 C 0.97255 0.13606 0.94062 0.0
C401 C 0.94382 0.15572 0.93901 0.0
C402 C -0.00043 0.14183 0.92056 0.0
C403 C 0.99767 0.16755 0.89782 0.0
C404 C 0.96858 0.18725 0.89567 0.0
C405 C 0.94205 0.18133 0.91658 0.0
C406 C 0.03034 0.12054 0.92396 0.0
C407 C 0.96546 0.2144 0.87127 0.0
C408 C 0.08294 0.19475 0.87071 0.0
C409 C 0.08811 0.17339 0.84505 0.0
C410 C 0.05251 0.19495 0.88689 0.0
C411 C 0.02662 0.1736 0.8768 0.0
C412 C 0.03083 0.15415 0.84921 0.0
C413 C 0.06171 0.154 0.83383 0.0
C414 C 0.04921 0.21576 0.91641 0.0
C415 C 0.00361 0.13159 0.83731 0.0
H416 H 0.97422 0.11642 0.95808 0.0
H417 H 0.91979 0.19644 0.91511 0.0
H418 H 0.03528 0.10706 0.90159 0.0
H419 H 0.05228 0.13645 0.92884 0.0
H420 H 0.02803 0.10202 0.9433 0.0
H421 H 0.94079 0.22679 0.87203 0.0
H422 H 0.98502 0.23339 0.87509 0.0
H423 H 0.96932 0.20395 0.84729 0.0
H424 H 0.10346 0.20954 0.87955 0.0
H425 H 0.06571 0.13766 0.81382 0.0
H426 H 0.0499 0.19929 0.93743 0.0
H427 H 0.02506 0.22905 0.91674 0.0
H428 H 0.06957 0.23426 0.91858 0.0
H429 H 0.00161 0.10961 0.85301 0.0
H430 H 0.00858 0.12272 0.8129 0.0
H431 H 0.97925 0.14453 0.83769 0.0
C432 C 0.36651 0.45273 0.42393 0.0
C433 C 0.34662 0.42419 0.42555 0.0
C434 C 0.35952 0.47819 0.40246 0.0
C435 C 0.33239 0.47474 0.3814 0.0
C436 C 0.31291 0.44544 0.38199 0.0
C437 C 0.31994 0.42064 0.40446 0.0
C438 C 0.38061 0.50928 0.40307 0.0
C439 C 0.28446 0.44054 0.35923 0.0
C440 C 0.30184 0.55888 0.355 0.0
C441 C 0.32201 0.56435 0.32856 0.0
C442 C 0.30282 0.52849 0.37114 0.0
C443 C 0.32401 0.50287 0.3601 0.0
C444 C 0.3418 0.50721 0.33153 0.0
C445 C 0.34102 0.53819 0.31633 0.0
C446 C 0.28392 0.5252 0.40179 0.0
C447 C 0.36386 0.48017 0.31847 0.0
H448 H 0.38698 0.4558 0.44033 0.0
H449 H 0.30463 0.39851 0.40551 0.0
H450 H 0.39233 0.51329 0.37968 0.0
H451 H 0.36477 0.53124 0.40809 0.0
H452 H 0.40056 0.5081 0.42119 0.0
H453 H 0.27401 0.41503 0.36053 0.0
H454 H 0.26435 0.45855 0.36455 0.0
H455 H 0.29282 0.44536 0.33467 0.0
H456 H 0.28739 0.57929 0.36457 0.0
H457 H 0.35651 0.54249 0.29577 0.0
H458 H 0.30166 0.52646 0.42185 0.0
H459 H 0.27111 0.50087 0.40313 0.0
H460 H 0.2652 0.54527 0.40478 0.0
H461 H 0.38732 0.47922 0.33222 0.0
H462 H 0.37023 0.48466 0.29329 0.0
H463 H 0.35168 0.45554 0.32056 0.0
C464 C 0.04293 0.86573 0.90843 0.0
C465 C 0.06445 0.84017 0.91797 0.0
C466 C 0.01956 0.86078 0.88441 0.0
C467 C 0.01778 0.82956 0.86907 0.0
C468 C 0.04023 0.80399 0.87759 0.0
C469 C 0.06317 0.80949 0.90216 0.0
C470 C 0.99596 0.88875 0.87622 0.0
C471 C 0.03943 0.77059 0.8614 0.0
C472 C 0.93141 0.81823 0.83666 0.0
C473 C 0.93478 0.83265 0.80668 0.0
C474 C 0.95906 0.81385 0.85636 0.0
C475 C 0.99086 0.8238 0.84561 0.0
C476 C 0.99491 0.8345 0.81398 0.0
C477 C 0.96671 0.83897 0.79485 0.0
C478 C 0.95357 0.80215 0.88984 0.0
C479 C 0.0285 0.84455 0.80136 0.0
H480 H 0.04362 0.88954 0.92037 0.0
H481 H 0.07981 0.78964 0.90918 0.0
H482 H 0.99777 0.89475 0.85071 0.0
H483 H 0.96998 0.88097 0.88097 0.0
H484 H 0.0011 0.9117 0.88995 0.0
H485 H 0.0615 0.75523 0.86738 0.0
H486 H 0.0168 0.75688 0.86872 0.0
H487 H 0.03824 0.7737 0.83538 0.0
H488 H 0.90677 0.81275 0.84563 0.0
H489 H 0.96951 0.85007 0.77167 0.0
H490 H 0.95525 0.82372 0.90611 0.0
H491 H 0.97298 0.78407 0.89694 0.0
H492 H 0.92878 0.79043 0.8929 0.0
H493 H 0.03483 0.8697 0.81026 0.0
H494 H 0.02874 0.84528 0.77512 0.0
H495 H 0.04813 0.82722 0.80959 0.0
C496 C 0.85891 0.02002 0.91633 0.0
C497 C 0.83052 0.0369 0.927 0.0
C498 C 0.85684 0.99584 0.89266 0.0
C499 C 0.82559 0.98831 0.87903 0.0
C500 C 0.79684 0.00555 0.88919 0.0
C501 C 0.79961 0.02961 0.91316 0.0
C502 C 0.88818 0.97799 0.88255 0.0
C503 C 0.76319 0.99828 0.87502 0.0
C504 C 0.83881 0.94318 0.80196 0.0
C505 C 0.83971 0.91015 0.81244 0.0
C506 C 0.83077 0.9691 0.8228 0.0
C507 C 0.82362 0.96167 0.85478 0.0
C508 C 0.82092 0.92812 0.86449 0.0
C509 C 0.82896 0.90273 0.84314 0.0
C510 C 0.83346 0.00451 0.81138 0.0
C511 C 0.81308 0.91906 0.89828 0.0
H512 H 0.88293 0.02537 0.92675 0.0
H513 H 0.77753 0.04258 0.92112 0.0
H514 H 0.88563 0.95095 0.88702 0.0
H515 H 0.89222 0.98132 0.85683 0.0
H516 H 0.91056 0.98709 0.89526 0.0
H517 H 0.7436 0.01518 0.8842 0.0
H518 H 0.76423 0.00067 0.84894 0.0
H519 H 0.75594 0.9723 0.88037 0.0
H520 H 0.84716 0.9491 0.77827 0.0
H521 H 0.82916 0.87714 0.85115 0.0
H522 H 0.85745 0.01517 0.81942 0.0
H523 H 0.81325 0.02006 0.82135 0.0
H524 H 0.83253 0.00606 0.78519 0.0
H525 H 0.83527 0.92377 0.9132 0.0
H526 H 0.80617 0.89246 0.90068 0.0
H527 H 0.7925 0.93457 0.90759 0.0
C528 C 0.47837 0.33082 0.41316 0.0
C529 C 0.45985 0.30504 0.42685 0.0
C530 C 0.50259 0.32443 0.39032 0.0
C531 C 0.5085 0.2913 0.38045 0.0
C532 C 0.48955 0.26507 0.39357 0.0
C533 C 0.46535 0.27226 0.41665 0.0
C534 C 0.52231 0.35334 0.37719 0.0
C535 C 0.49462 0.22956 0.38319 0.0
C536 C 0.5549 0.30137 0.30491 0.0
C537 C 0.58711 0.30548 0.317 0.0
C538 C 0.52883 0.2911 0.32462 0.0
C539 C 0.53533 0.28521 0.35699 0.0
C540 C 0.56865 0.28354 0.36766 0.0
C541 C 0.59429 0.29364 0.34739 0.0
C542 C 0.4938 0.29173 0.31196 0.0
C543 C 0.57684 0.27631 0.40175 0.0
H544 H 0.47441 0.35626 0.42068 0.0
H545 H 0.45104 0.25217 0.4269 0.0
H546 H 0.54919 0.34974 0.382 0.0
H547 H 0.5191 0.35477 0.3512 0.0
H548 H 0.51463 0.37752 0.38753 0.0
H549 H 0.48284 0.21167 0.39974 0.0
H550 H 0.48335 0.22605 0.35951 0.0
H551 H 0.52145 0.22355 0.38116 0.0
H552 H 0.54916 0.31003 0.28128 0.0
H553 H 0.61938 0.2959 0.35652 0.0
H554 H 0.48221 0.31602 0.3177 0.0
H555 H 0.47848 0.27195 0.32293 0.0
H556 H 0.49338 0.28857 0.28588 0.0
H557 H 0.57289 0.29916 0.41596 0.0
H558 H 0.60315 0.26847 0.4046 0.0
H559 H 0.56042 0.25665 0.41139 0.0
C560 C 0.15666 0.98471 0.92964 0.0
C561 C 0.17747 0.95678 0.93056 0.0
C562 C 0.16228 0.01058 0.90833 0.0
C563 C 0.18916 0.00839 0.88682 0.0
C564 C 0.21032 0.98024 0.88742 0.0
C565 C 0.20441 0.95479 0.90958 0.0
C566 C 0.13933 0.04038 0.90898 0.0
C567 C 0.23871 0.97677 0.86437 0.0
C568 C 0.16892 0.06864 0.82217 0.0
C569 C 0.18367 0.0975 0.8342 0.0
C570 C 0.17439 0.03776 0.83662 0.0
C571 C 0.19434 0.03611 0.86415 0.0
C572 C 0.21244 0.06449 0.87392 0.0
C573 C 0.20701 0.09493 0.85863 0.0
C574 C 0.15544 0.0079 0.82482 0.0
C575 C 0.23392 0.06394 0.90314 0.0
H576 H 0.13605 0.98664 0.94604 0.0
H577 H 0.22044 0.93315 0.91012 0.0
H578 H 0.15389 0.06347 0.91263 0.0
H579 H 0.12622 0.04274 0.88603 0.0
H580 H 0.12036 0.03865 0.92799 0.0
H581 H 0.25431 0.95462 0.86941 0.0
H582 H 0.2287 0.97456 0.84004 0.0
H583 H 0.25467 0.99922 0.86492 0.0
H584 H 0.15106 0.07066 0.80307 0.0
H585 H 0.21836 0.1173 0.86799 0.0
H586 H 0.13271 0.00456 0.83933 0.0
H587 H 0.17058 0.98497 0.82696 0.0
H588 H 0.14772 0.01102 0.79979 0.0
H589 H 0.21778 0.06554 0.92435 0.0
H590 H 0.2515 0.08521 0.90364 0.0
H591 H 0.24828 0.04048 0.90477 0.0
C592 C 0.50556 0.64585 0.42951 0.0
C593 C 0.53217 0.66831 0.42961 0.0
C594 C 0.48005 0.64825 0.40717 0.0
C595 C 0.48132 0.67349 0.3839 0.0
C596 C 0.50809 0.69633 0.38376 0.0
C597 C 0.53314 0.69365 0.40685 0.0
C598 C 0.45174 0.62357 0.40849 0.0
C599 C 0.51051 0.72316 0.35898 0.0
C600 C 0.42606 0.64727 0.3166 0.0
C601 C 0.39584 0.66168 0.32576 0.0
C602 C 0.45545 0.65401 0.33326 0.0
C603 C 0.45431 0.67521 0.35995 0.0
C604 C 0.42459 0.69253 0.36711 0.0
C605 C 0.39567 0.68565 0.34977 0.0
C606 C 0.48678 0.63562 0.32437 0.0
C607 C 0.42221 0.71528 0.39537 0.0
H608 H 0.50447 0.62639 0.44718 0.0
H609 H 0.55382 0.71092 0.40669 0.0
H610 H 0.42768 0.63687 0.41058 0.0
H611 H 0.45095 0.60886 0.38633 0.0
H612 H 0.45404 0.60609 0.42868 0.0
H613 H 0.53254 0.73937 0.36251 0.0
H614 H 0.5121 0.71171 0.33519 0.0
H615 H 0.4878 0.73881 0.35931 0.0
H616 H 0.42623 0.62892 0.29784 0.0
H617 H 0.37229 0.69669 0.35703 0.0
H618 H 0.49027 0.61428 0.34064 0.0
H619 H 0.50887 0.65193 0.32662 0.0
H620 H 0.48557 0.62588 0.29983 0.0
H621 H 0.42054 0.70005 0.41718 0.0
H622 H 0.39989 0.7315 0.39416 0.0
H623 H 0.44464 0.73113 0.39742 0.0
C624 C 0.32376 0.43843 0.58292 0.0
C625 C 0.35465 0.4335 0.56815 0.0
C626 C 0.31937 0.46372 0.60545 0.0
C627 C 0.34642 0.48466 0.61318 0.0
C628 C 0.37766 0.47966 0.59854 0.0
C629 C 0.38141 0.45413 0.57633 0.0
C630 C 0.28578 0.4682 0.62078 0.0
C631 C 0.40713 0.50157 0.60605 0.0
C632 C 0.33713 0.57184 0.64527 0.0
C633 C 0.34801 0.56774 0.6765 0.0
C634 C 0.33428 0.54457 0.62484 0.0
C635 C 0.34234 0.51242 0.63601 0.0
C636 C 0.35072 0.50779 0.66819 0.0
C637 C 0.35354 0.53556 0.68808 0.0
C638 C 0.32509 0.55056 0.59072 0.0
C639 C 0.3592 0.47385 0.68106 0.0
H640 H 0.30296 0.42253 0.57692 0.0
H641 H 0.40536 0.45065 0.56508 0.0
H642 H 0.28824 0.46697 0.64686 0.0
H643 H 0.27569 0.4931 0.61492 0.0
H644 H 0.26762 0.44907 0.61304 0.0
H645 H 0.4298 0.49416 0.59283 0.0
H646 H 0.40122 0.52778 0.60016 0.0
H647 H 0.41269 0.50056 0.6317 0.0
H648 H 0.33233 0.59665 0.63638 0.0
H649 H 0.36215 0.53221 0.71213 0.0
H650 H 0.30599 0.53251 0.58285 0.0
H651 H 0.34736 0.54689 0.57564 0.0
H652 H 0.31553 0.57612 0.58678 0.0
H653 H 0.34074 0.45516 0.67314 0.0
H654 H 0.36021 0.47369 0.70729 0.0
H655 H 0.38384 0.46603 0.67189 0.0
C656 C 0.02105 0.85934 0.06158 0.0
C657 C 0.04862 0.83803 0.06133 0.0
C658 C 0.99395 0.85343 0.08154 0.0
C659 C 0.99466 0.82586 0.1023 0.0
C660 C 0.02269 0.80458 0.1027 0.0
C661 C 0.04925 0.8107 0.08191 0.0
C662 C 0.9643 0.87647 0.08002 0.0
C663 C 0.02458 0.77542 0.12504 0.0
C664 C 0.93157 0.83653 0.16768 0.0
C665 C 0.90436 0.81918 0.15528 0.0
C666 C 0.9623 0.83653 0.15202 0.0
C667 C 0.9655 0.8194 0.12295 0.0
C668 C 0.93869 0.80003 0.11149 0.0
C669 C 0.90844 0.79996 0.12798 0.0
C670 C 0.99052 0.85685 0.16539 0.0
C671 C 0.9409 0.78179 0.0804 0.0
H672 H 0.02028 0.88035 0.04557 0.0
H673 H 0.07064 0.7943 0.08198 0.0
H674 H 0.94158 0.86215 0.07406 0.0
H675 H 0.96011 0.88818 0.1034 0.0
H676 H 0.96751 0.89646 0.06218 0.0
H677 H 0.04873 0.76212 0.12338 0.0
H678 H 0.02105 0.78401 0.14972 0.0
H679 H 0.00429 0.75761 0.1198 0.0
H680 H 0.92836 0.85129 0.1889 0.0
H681 H 0.88726 0.78683 0.11824 0.0
H682 H 0.99335 0.88 0.15142 0.0
H683 H 0.01431 0.84299 0.16379 0.0
H684 H 0.98608 0.86379 0.19044 0.0
H685 H 0.94103 0.80007 0.06077 0.0
H686 H 0.91964 0.76458 0.07684 0.0
H687 H 0.96436 0.76739 0.07889 0.0
C688 C 0.68733 0.56066 0.58849 0.0
C689 C 0.65993 0.55775 0.56814 0.0
C690 C 0.69502 0.5353 0.61018 0.0
C691 C 0.67532 0.50616 0.61087 0.0
C692 C 0.64752 0.5033 0.59054 0.0
C693 C 0.64001 0.52922 0.56972 0.0
C694 C 0.72433 0.5395 0.63207 0.0
C695 C 0.62609 0.47244 0.59017 0.0
C696 C 0.70514 0.4214 0.63642 0.0
C697 C 0.68581 0.4164 0.6635 0.0
C698 C 0.70421 0.45181 0.62026 0.0
C699 C 0.68386 0.47783 0.63187 0.0
C700 C 0.667 0.4739 0.661 0.0
C701 C 0.66781 0.44299 0.67628 0.0
C702 C 0.72221 0.45476 0.5891 0.0
C703 C 0.64574 0.5013 0.67459 0.0
H704 H 0.7027 0.58275 0.58751 0.0
H705 H 0.61895 0.52662 0.55392 0.0
H706 H 0.71656 0.53519 0.65689 0.0
H707 H 0.74366 0.52077 0.62641 0.0
H708 H 0.73556 0.56464 0.63027 0.0
H709 H 0.60558 0.47407 0.57266 0.0
H710 H 0.64151 0.45038 0.58445 0.0
H711 H 0.61508 0.46826 0.61385 0.0
H712 H 0.71881 0.40069 0.62641 0.0
H713 H 0.65297 0.43904 0.69733 0.0
H714 H 0.73518 0.47897 0.58729 0.0
H715 H 0.70387 0.45353 0.56954 0.0
H716 H 0.74065 0.4345 0.58573 0.0
H717 H 0.65829 0.52572 0.67225 0.0
H718 H 0.63991 0.49689 0.6999 0.0
H719 H 0.62198 0.50268 0.66135 0.0
C720 C 0.94836 0.12583 0.09243 0.0
C721 C 0.92886 0.15229 0.08131 0.0
C722 C 0.97276 0.13073 0.11548 0.0
C723 C 0.97762 0.16286 0.12827 0.0
C724 C 0.95707 0.18946 0.11836 0.0
C725 C 0.93306 0.18393 0.09475 0.0
C726 C 0.99422 0.10162 0.12525 0.0
C727 C 0.96112 0.22389 0.13193 0.0
C728 C 0.03032 0.15536 0.20158 0.0
C729 C 0.06228 0.15829 0.1886 0.0
C730 C 0.00194 0.16048 0.18289 0.0
C731 C 0.00574 0.16823 0.15048 0.0
C732 C 0.03783 0.17461 0.13819 0.0
C733 C 0.06572 0.16978 0.1575 0.0
C734 C 0.96809 0.15434 0.19709 0.0
C735 C 0.04305 0.18306 0.1038 0.0
H736 H 0.94538 0.10125 0.08237 0.0
H737 H 0.918 0.20451 0.08649 0.0
H738 H 0.02059 0.10675 0.11928 0.0
H739 H 0.99279 0.09793 0.15117 0.0
H740 H 0.98675 0.07812 0.11346 0.0
H741 H 0.93986 0.2403 0.12578 0.0
H742 H 0.96354 0.22284 0.15802 0.0
H743 H 0.9842 0.23526 0.12254 0.0
H744 H 0.02738 0.14656 0.22562 0.0
H745 H 0.09038 0.17287 0.14759 0.0
H746 H 0.95937 0.1292 0.19023 0.0
H747 H 0.94969 0.17259 0.18813 0.0
H748 H 0.96872 0.15569 0.2233 0.0
H749 H 0.03874 0.16053 0.08923 0.0
H750 H 0.06866 0.19212 0.09913 0.0
H751 H 0.02509 0.20226 0.09596 0.0
C752 C 0.18399 0.77649 0.09602 0.0
C753 C 0.2036 0.80006 0.08023 0.0
C754 C 0.19402 0.76305 0.12501 0.0
C755 C 0.22459 0.7731 0.13848 0.0
C756 C 0.24492 0.79629 0.12242 0.0
C757 C 0.23409 0.80966 0.09353 0.0
C758 C 0.17149 0.73856 0.14154 0.0
C759 C 0.27786 0.80726 0.13594 0.0
C760 C 0.22973 0.76082 0.22708 0.0
C761 C 0.24527 0.72968 0.22914 0.0
C762 C 0.22412 0.77597 0.19772 0.0
C763 C 0.2346 0.75974 0.16978 0.0
C764 C 0.25189 0.72919 0.17178 0.0
C765 C 0.25686 0.71443 0.20143 0.0
C766 C 0.20555 0.80857 0.19655 0.0
C767 C 0.26369 0.71127 0.14251 0.0
H768 H 0.1603 0.76901 0.0861 0.0
H769 H 0.24947 0.82776 0.08147 0.0
H770 H 0.18493 0.71491 0.14581 0.0
H771 H 0.164 0.74856 0.16491 0.0
H772 H 0.14866 0.73308 0.12771 0.0
H773 H 0.2914 0.82435 0.11986 0.0
H774 H 0.27384 0.82007 0.15883 0.0
H775 H 0.2938 0.78531 0.1407 0.0
H776 H 0.22128 0.77306 0.24843 0.0
H777 H 0.26859 0.69022 0.20271 0.0
H778 H 0.18103 0.80478 0.18509 0.0
H779 H 0.2194 0.82692 0.18211 0.0
H780 H 0.20139 0.81921 0.22044 0.0
H781 H 0.24194 0.70191 0.12909 0.0
H782 H 0.28008 0.68988 0.14824 0.0
H783 H 0.27741 0.72854 0.12679 0.0
C784 C 0.69913 0.7573 0.55887 0.0
C785 C 0.7011 0.72254 0.55993 0.0
C786 C 0.72066 0.77708 0.57696 0.0
C787 C 0.74417 0.76167 0.5971 0.0
C788 C 0.74504 0.72661 0.59953 0.0
C789 C 0.72377 0.70744 0.58061 0.0
C790 C 0.71936 0.81437 0.57329 0.0
C791 C 0.76918 0.70929 0.62133 0.0
C792 C 0.82435 0.80755 0.61491 0.0
C793 C 0.81775 0.8215 0.64466 0.0
C794 C 0.80049 0.78834 0.59914 0.0
C795 C 0.76948 0.78211 0.61376 0.0
C796 C 0.76278 0.79549 0.64401 0.0
C797 C 0.78682 0.81533 0.65894 0.0
C798 C 0.80846 0.77481 0.56671 0.0
C799 C 0.73019 0.78889 0.66055 0.0
H800 H 0.68179 0.76909 0.54277 0.0
H801 H 0.72514 0.68056 0.58174 0.0
H802 H 0.71697 0.82651 0.5967 0.0
H803 H 0.74291 0.82327 0.56258 0.0
H804 H 0.69835 0.82254 0.55813 0.0
H805 H 0.76439 0.68216 0.62288 0.0
H806 H 0.79495 0.71306 0.61272 0.0
H807 H 0.76772 0.72009 0.64541 0.0
H808 H 0.84834 0.81144 0.60391 0.0
H809 H 0.78116 0.82634 0.68167 0.0
H810 H 0.78945 0.78323 0.54948 0.0
H811 H 0.80779 0.74727 0.5671 0.0
H812 H 0.83332 0.78283 0.55821 0.0
H813 H 0.70936 0.79923 0.64649 0.0
H814 H 0.72938 0.79996 0.68458 0.0
H815 H 0.726 0.76172 0.66256 0.0
C816 C 0.78289 0.21644 0.08827 0.0
C817 C 0.76878 0.19754 0.0639 0.0
C818 C 0.76312 0.23698 0.10736 0.0
C819 C 0.72857 0.23928 0.10137 0.0
C820 C 0.71406 0.21963 0.0773 0.0
C821 C 0.73432 0.19867 0.05908 0.0
C822 C 0.77936 0.25692 0.13334 0.0
C823 C 0.67743 0.2219 0.06979 0.0
C824 C 0.67156 0.27816 0.16271 0.0
C825 C 0.66951 0.31116 0.15204 0.0
C826 C 0.69094 0.25453 0.14668 0.0
C827 C 0.70803 0.26387 0.11886 0.0
C828 C 0.70571 0.29692 0.10768 0.0
C829 C 0.68688 0.32021 0.12459 0.0
C830 C 0.69329 0.21964 0.15959 0.0
C831 C 0.72324 0.30774 0.07784 0.0
H832 H 0.8095 0.2154 0.09224 0.0
H833 H 0.72335 0.18428 0.0401 0.0
H834 H 0.77815 0.28377 0.12753 0.0
H835 H 0.76586 0.25331 0.15593 0.0
H836 H 0.80584 0.24997 0.13685 0.0
H837 H 0.66972 0.20369 0.05148 0.0
H838 H 0.66243 0.21762 0.09138 0.0
H839 H 0.6715 0.24727 0.06119 0.0
H840 H 0.65785 0.27064 0.18354 0.0
H841 H 0.68615 0.34571 0.11643 0.0
H842 H 0.7197 0.21312 0.16398 0.0
H843 H 0.68357 0.20166 0.14203 0.0
H844 H 0.67919 0.21659 0.18197 0.0
H845 H 0.75051 0.30503 0.08075 0.0
H846 H 0.71771 0.33397 0.07157 0.0
H847 H 0.7157 0.29161 0.05782 0.0
C848 C 0.29057 0.30465 0.60303 0.0
C849 C 0.31276 0.28395 0.58664 0.0
C850 C 0.27854 0.29591 0.63291 0.0
C851 C 0.28862 0.26554 0.64672 0.0
C852 C 0.31038 0.24411 0.63012 0.0
C853 C 0.32236 0.25365 0.6003 0.0
C854 C 0.25552 0.31957 0.64997 0.0
C855 C 0.3213 0.21135 0.64404 0.0
C856 C 0.28082 0.26302 0.73589 0.0
C857 C 0.24956 0.24812 0.73974 0.0
C858 C 0.29451 0.26763 0.70574 0.0
C859 C 0.27663 0.2568 0.67883 0.0
C860 C 0.24583 0.24035 0.68262 0.0
C861 C 0.23257 0.23638 0.71301 0.0
C862 C 0.32741 0.28538 0.70261 0.0
C863 C 0.22614 0.2283 0.65449 0.0
H864 H 0.2831 0.32821 0.59285 0.0
H865 H 0.33941 0.23745 0.58781 0.0
H866 H 0.23179 0.30692 0.65575 0.0
H867 H 0.26695 0.32747 0.67262 0.0
H868 H 0.24986 0.34211 0.6358 0.0
H869 H 0.33725 0.19692 0.62758 0.0
H870 H 0.33537 0.21575 0.66619 0.0
H871 H 0.29927 0.19612 0.65024 0.0
H872 H 0.29435 0.27162 0.75646 0.0
H873 H 0.20822 0.22521 0.71567 0.0
H874 H 0.32358 0.3096 0.69061 0.0
H875 H 0.34474 0.27066 0.68779 0.0
H876 H 0.33929 0.29003 0.72588 0.0
H877 H 0.21677 0.24994 0.6409 0.0
H878 H 0.20456 0.21278 0.66158 0.0
H879 H 0.24221 0.21359 0.63841 0.0
C880 C 0.72077 0.70542 0.40636 0.0
C881 C 0.6867 0.70628 0.4131 0.0
C882 C 0.73264 0.71432 0.37638 0.0
C883 C 0.70974 0.72319 0.35241 0.0
C884 C 0.67533 0.72457 0.35928 0.0
C885 C 0.66426 0.71655 0.38973 0.0
C886 C 0.7696 0.71352 0.37016 0.0
C887 C 0.65007 0.73304 0.33413 0.0
C888 C 0.73965 0.76739 0.27854 0.0
C889 C 0.74437 0.74074 0.25755 0.0
C890 C 0.72891 0.76203 0.30965 0.0
C891 C 0.7216 0.72936 0.31974 0.0
C892 C 0.72555 0.70242 0.29859 0.0
C893 C 0.73737 0.70837 0.26796 0.0
C894 C 0.72561 0.79129 0.33178 0.0
C895 C 0.71733 0.66726 0.30833 0.0
H896 H 0.73812 0.69761 0.42451 0.0
H897 H 0.63784 0.7168 0.39483 0.0
H898 H 0.77544 0.69358 0.35295 0.0
H899 H 0.77779 0.73738 0.35958 0.0
H900 H 0.78419 0.709 0.39203 0.0
H901 H 0.62433 0.73401 0.3436 0.0
H902 H 0.65599 0.75738 0.32325 0.0
H903 H 0.65102 0.71414 0.31506 0.0
H904 H 0.74423 0.7926 0.27071 0.0
H905 H 0.7415 0.68747 0.25232 0.0
H906 H 0.74089 0.7871 0.35324 0.0
H907 H 0.69943 0.79391 0.3396 0.0
H908 H 0.73353 0.81498 0.32061 0.0
H909 H 0.73381 0.6594 0.32796 0.0
H910 H 0.72019 0.64932 0.28856 0.0
H911 H 0.69138 0.66596 0.31713 0.0
C912 C 0.78279 0.16734 0.89257 0.0
C913 C 0.79084 0.18856 0.9177 0.0
C914 C 0.77603 0.18004 0.86241 0.0
C915 C 0.77648 0.21482 0.85754 0.0
C916 C 0.78317 0.23643 0.88317 0.0
C917 C 0.79078 0.223 0.91289 0.0
C918 C 0.76984 0.15616 0.83551 0.0
C919 C 0.78295 0.27369 0.87904 0.0
C920 C 0.79465 0.24759 0.77537 0.0
C921 C 0.7626 0.25403 0.76372 0.0
C922 C 0.79944 0.23445 0.8057 0.0
C923 C 0.77159 0.22848 0.82529 0.0
C924 C 0.73921 0.23526 0.81398 0.0
C925 C 0.73507 0.24746 0.78318 0.0
C926 C 0.83436 0.22689 0.81675 0.0
C927 C 0.70896 0.22974 0.83444 0.0
H928 H 0.78321 0.14067 0.89613 0.0
H929 H 0.79684 0.23942 0.93236 0.0
H930 H 0.74587 0.16194 0.82379 0.0
H931 H 0.78968 0.15894 0.81749 0.0
H932 H 0.76934 0.12987 0.84347 0.0
H933 H 0.78586 0.28702 0.90185 0.0
H934 H 0.80351 0.28122 0.86313 0.0
H935 H 0.75936 0.28175 0.86781 0.0
H936 H 0.81617 0.25315 0.76094 0.0
H937 H 0.71015 0.25163 0.77434 0.0
H938 H 0.83622 0.20048 0.82407 0.0
H939 H 0.84047 0.24229 0.83768 0.0
H940 H 0.85322 0.23169 0.79814 0.0
H941 H 0.70683 0.20307 0.84066 0.0
H942 H 0.68562 0.23763 0.82258 0.0
H943 H 0.71153 0.24377 0.85688 0.0
C944 C 0.31317 0.23645 0.42334 0.0
C945 C 0.29962 0.26315 0.44037 0.0
C946 C 0.29307 0.21659 0.4038 0.0
C947 C 0.25858 0.22328 0.40173 0.0
C948 C 0.24487 0.25039 0.4186 0.0
C949 C 0.26557 0.2701 0.43747 0.0
C950 C 0.30861 0.18828 0.38565 0.0
C951 C 0.20813 0.25815 0.41732 0.0
C952 C 0.20215 0.19322 0.33601 0.0
C953 C 0.18515 0.16712 0.35094 0.0
C954 C 0.22778 0.21036 0.35151 0.0
C955 C 0.23624 0.20156 0.38286 0.0
C956 C 0.22044 0.17414 0.39743 0.0
C957 C 0.1953 0.15709 0.38119 0.0
C958 C 0.24444 0.23912 0.33499 0.0
C959 C 0.22864 0.16405 0.4309 0.0
H960 H 0.33949 0.23104 0.42528 0.0
H961 H 0.25479 0.29053 0.45065 0.0
H962 H 0.29825 0.1643 0.394 0.0
H963 H 0.30251 0.19046 0.36017 0.0
H964 H 0.33607 0.18756 0.38835 0.0
H965 H 0.20147 0.28028 0.43169 0.0
H966 H 0.20035 0.26269 0.39256 0.0
H967 H 0.19368 0.23657 0.42611 0.0
H968 H 0.1944 0.2014 0.31276 0.0
H969 H 0.18287 0.13646 0.39262 0.0
H970 H 0.2718 0.23785 0.33803 0.0
H971 H 0.2359 0.26282 0.34565 0.0
H972 H 0.23864 0.23968 0.30934 0.0
H973 H 0.25586 0.16109 0.43386 0.0
H974 H 0.21628 0.14046 0.43779 0.0
H975 H 0.22048 0.18388 0.44741 0.0
C976 C 0.21468 0.75969 0.92889 0.0
C977 C 0.22202 0.79335 0.93396 0.0
C978 C 0.2349 0.73983 0.90969 0.0
C979 C 0.26295 0.75402 0.89472 0.0
C980 C 0.26994 0.78823 0.89879 0.0
C981 C 0.24953 0.80747 0.9186 0.0
C982 C 0.22677 0.70335 0.90623 0.0
C983 C 0.29926 0.80431 0.88266 0.0
C984 C 0.33001 0.69134 0.87493 0.0
C985 C 0.32182 0.68283 0.84373 0.0
C986 C 0.31203 0.71568 0.89136 0.0
C987 C 0.28556 0.73237 0.87607 0.0
C988 C 0.27859 0.72552 0.84395 0.0
C989 C 0.29661 0.70064 0.82823 0.0
C990 C 0.32014 0.72213 0.92566 0.0
C991 C 0.25089 0.74317 0.82669 0.0
H992 H 0.19359 0.74847 0.94071 0.0
H993 H 0.25524 0.83351 0.9222 0.0
H994 H 0.22372 0.6969 0.88093 0.0
H995 H 0.2476 0.68813 0.91555 0.0
H996 H 0.20369 0.69633 0.91899 0.0
H997 H 0.29982 0.83164 0.88629 0.0
H998 H 0.32272 0.79361 0.89195 0.0
H999 H 0.29859 0.79914 0.85692 0.0
H1000 H 0.34995 0.67829 0.88686 0.0
H1001 H 0.28985 0.69414 0.80423 0.0
H1002 H 0.29919 0.71362 0.94067 0.0
H1003 H 0.32334 0.74912 0.92991 0.0
H1004 H 0.34308 0.70904 0.93333 0.0
H1005 H 0.22655 0.73436 0.83572 0.0
H1006 H 0.25178 0.7386 0.80082 0.0
H1007 H 0.25214 0.77034 0.83096 0.0
loop_
_geom_bond_atom_site_label_1
_geom_bond_atom_site_label_2
_geom_bond_distance
_geom_bond_site_symmetry_2
_ccdc_geom_bond_type
Sc0 O3 2.025 . S
Sc0 O10 2.105 1_554 S
Sc0 O13 2.105 . S
Sc0 O16 2.105 . S
Sc0 O19 2.105 1_554 S
Sc1 O3 2.025 . S
Sc1 O11 2.105 1_554 S
Sc1 O15 2.105 . S
Sc1 O17 2.105 . S
Sc1 O21 2.105 1_554 S
Sc2 O3 2.025 . S
Sc2 O12 2.105 1_554 S
Sc2 O14 2.105 . S
Sc2 O18 2.105 . S
Sc2 O20 2.105 1_554 S
O3 Sc0 2.025 . S
O3 Sc1 2.025 . S
O3 Sc2 2.025 . S
C4 O10 1.268 . S
C4 O20 1.268 . S
C5 O11 1.268 . S
C5 O19 1.268 . S
C6 O12 1.268 . S
C6 O21 1.268 . S
C7 O13 1.268 . S
C7 O17 1.268 . S
C8 O14 1.268 . S
C8 O16 1.268 . S
C9 O15 1.268 . S
C9 O18 1.268 . S
O10 Sc0 2.105 1_556 S
O10 C4 1.268 . S
O11 Sc1 2.105 1_556 S
O11 C5 1.268 . S
O12 Sc2 2.105 1_556 S
O12 C6 1.268 . S
O13 Sc0 2.105 . S
O13 C7 1.268 . S
O14 Sc2 2.105 . S
O14 C8 1.268 . S
O15 Sc1 2.105 . S
O15 C9 1.268 . S
O16 Sc0 2.105 . S
O16 C8 1.268 . S
O17 Sc1 2.105 . S
O17 C7 1.268 . S
O18 Sc2 2.105 . S
O18 C9 1.268 . S
O19 Sc0 2.105 1_556 S
O19 C5 1.268 . S
O20 Sc2 2.105 1_556 S
O20 C4 1.268 . S
O21 Sc1 2.105 1_556 S
O21 C6 1.268 . S
Sc22 O25 2.025 . S
Sc22 O32 2.105 . S
Sc22 O35 2.105 . S
Sc22 O38 2.105 . S
Sc22 O41 2.105 . S
Sc23 O25 2.025 . S
Sc23 O33 2.105 . S
Sc23 O37 2.105 . S
Sc23 O39 2.105 . S
Sc23 O43 2.105 . S
Sc24 O25 2.025 . S
Sc24 O34 2.105 . S
Sc24 O36 2.105 . S
Sc24 O40 2.105 . S
Sc24 O42 2.105 . S
O25 Sc22 2.025 . S
O25 Sc23 2.025 . S
O25 Sc24 2.025 . S
C26 O32 1.268 . S
C26 O42 1.268 . S
C27 O33 1.268 . S
C27 O41 1.268 . S
C28 O34 1.268 . S
C28 O43 1.268 . S
C29 O35 1.268 . S
C29 O39 1.268 . S
C30 O36 1.268 . S
C30 O38 1.268 . S
C31 O37 1.268 . S
C31 O40 1.268 . S
O32 Sc22 2.105 . S
O32 C26 1.268 . S
O33 Sc23 2.105 . S
O33 C27 1.268 . S
O34 Sc24 2.105 . S
O34 C28 1.268 . S
O35 Sc22 2.105 . S
O35 C29 1.268 . S
O36 Sc24 2.105 . S
O36 C30 1.268 . S
O37 Sc23 2.105 . S
O37 C31 1.268 . S
O38 Sc22 2.105 . S
O38 C30 1.268 . S
O39 Sc23 2.105 . S
O39 C29 1.268 . S
O40 Sc24 2.105 . S
O40 C31 1.268 . S
O41 Sc22 2.105 . S
O41 C27 1.268 . S
O42 Sc24 2.105 . S
O42 C26 1.268 . S
O43 Sc23 2.105 . S
O43 C28 1.268 . S
Sc44 O47 2.025 . S
Sc44 O54 2.105 1_554 S
Sc44 O57 2.105 . S
Sc44 O60 2.105 . S
Sc44 O63 2.105 1_554 S
Sc45 O47 2.025 . S
Sc45 O55 2.105 1_554 S
Sc45 O59 2.105 . S
Sc45 O61 2.105 . S
Sc45 O65 2.105 1_554 S
Sc46 O47 2.025 . S
Sc46 O56 2.105 1_554 S
Sc46 O58 2.105 . S
Sc46 O62 2.105 . S
Sc46 O64 2.105 1_554 S
O47 Sc44 2.025 . S
O47 Sc45 2.025 . S
O47 Sc46 2.025 . S
C48 O54 1.268 . S
C48 O64 1.268 . S
C49 O55 1.268 . S
C49 O63 1.268 . S
C50 O56 1.268 . S
C50 O65 1.268 . S
C51 O57 1.268 . S
C51 O61 1.268 . S
C52 O58 1.268 . S
C52 O60 1.268 . S
C53 O59 1.268 . S
C53 O62 1.268 . S
O54 Sc44 2.105 1_556 S
O54 C48 1.268 . S
O55 Sc45 2.105 1_556 S
O55 C49 1.268 . S
O56 Sc46 2.105 1_556 S
O56 C50 1.268 . S
O57 Sc44 2.105 . S
O57 C51 1.268 . S
O58 Sc46 2.105 . S
O58 C52 1.268 . S
O59 Sc45 2.105 . S
O59 C53 1.268 . S
O60 Sc44 2.105 . S
O60 C52 1.268 . S
O61 Sc45 2.105 . S
O61 C51 1.268 . S
O62 Sc46 2.105 . S
O62 C53 1.268 . S
O63 Sc44 2.105 1_556 S
O63 C49 1.268 . S
O64 Sc46 2.105 1_556 S
O64 C48 1.268 . S
O65 Sc45 2.105 1_556 S
O65 C50 1.268 . S
Sc66 O69 2.025 . S
Sc66 O76 2.105 . S
Sc66 O79 2.105 . S
Sc66 O82 2.105 . S
Sc66 O85 2.105 . S
Sc67 O69 2.025 . S
Sc67 O77 2.105 . S
Sc67 O81 2.105 . S
Sc67 O83 2.105 . S
Sc67 O87 2.105 . S
Sc68 O69 2.025 . S
Sc68 O78 2.105 . S
Sc68 O80 2.105 . S
Sc68 O84 2.105 . S
Sc68 O86 2.105 . S
O69 Sc66 2.025 . S
O69 Sc67 2.025 . S
O69 Sc68 2.025 . S
C70 O76 1.268 . S
C70 O86 1.268 . S
C71 O77 1.268 . S
C71 O85 1.268 . S
C72 O78 1.268 . S
C72 O87 1.268 . S
C73 O79 1.268 . S
C73 O83 1.268 . S
C74 O80 1.268 . S
C74 O82 1.268 . S
C75 O81 1.268 . S
C75 O84 1.268 . S
O76 Sc66 2.105 . S
O76 C70 1.268 . S
O77 Sc67 2.105 . S
O77 C71 1.268 . S
O78 Sc68 2.105 . S
O78 C72 1.268 . S
O79 Sc66 2.105 . S
O79 C73 1.268 . S
O80 Sc68 2.105 . S
O80 C74 1.268 . S
O81 Sc67 2.105 . S
O81 C75 1.268 . S
O82 Sc66 2.105 . S
O82 C74 1.268 . S
O83 Sc67 2.105 . S
O83 C73 1.268 . S
O84 Sc68 2.105 . S
O84 C75 1.268 . S
O85 Sc66 2.105 . S
O85 C71 1.268 . S
O86 Sc68 2.105 . S
O86 C70 1.268 . S
O87 Sc67 2.105 . S
O87 C72 1.268 . S
H88 C89 0.949 . S
C89 H88 0.949 . S
C89 C90 1.395 . S
C89 C91 1.391 . S
C90 C89 1.395 . S
C90 C93 1.390 . S
C91 C89 1.391 . S
C91 C95 1.387 . S
C91 C96 1.491 . S
H92 C93 0.950 . S
C93 C90 1.390 . S
C93 H92 0.950 . S
C93 C94 1.378 . S
C94 C93 1.378 . S
C94 C95 1.409 . S
C95 C91 1.387 . S
C95 C94 1.409 . S
C95 H97 0.951 . S
C96 C91 1.491 . S
C96 C98 1.382 . S
C96 C100 1.404 . S
H97 C95 0.951 . S
C98 C96 1.382 . S
C98 C99 1.390 . S
C98 H103 0.949 . S
C99 C98 1.390 . S
C99 C104 1.399 . S
C100 C96 1.404 . S
C100 H101 0.950 . S
C100 C102 1.375 . S
H101 C100 0.950 . S
C102 C100 1.375 . S
C102 C104 1.382 . S
C102 H106 0.950 . S
H103 C98 0.949 . S
C104 C99 1.399 . S
C104 C102 1.382 . S
C104 H105 0.952 . S
H105 C104 0.952 . S
H106 C102 0.950 . S
H107 C108 0.949 . S
C108 H107 0.949 . S
C108 C109 1.395 . S
C108 C110 1.391 . S
C109 C108 1.395 . S
C109 C112 1.390 . S
C110 C108 1.391 . S
C110 C114 1.387 . S
C110 C115 1.491 . S
H111 C112 0.950 . S
C112 C109 1.390 . S
C112 H111 0.950 . S
C112 C113 1.378 . S
C113 C112 1.378 . S
C113 C114 1.409 . S
C114 C110 1.387 . S
C114 C113 1.409 . S
C114 H116 0.951 . S
C115 C110 1.491 . S
C115 C117 1.382 . S
C115 C119 1.404 . S
H116 C114 0.951 . S
C117 C115 1.382 . S
C117 C118 1.390 . S
C117 H122 0.949 . S
C118 C117 1.390 . S
C118 C123 1.399 . S
C119 C115 1.404 . S
C119 H120 0.950 . S
C119 C121 1.375 . S
H120 C119 0.950 . S
C121 C119 1.375 . S
C121 C123 1.382 . S
C121 H125 0.950 . S
H122 C117 0.949 . S
C123 C118 1.399 . S
C123 C121 1.382 . S
C123 H124 0.952 . S
H124 C123 0.952 . S
H125 C121 0.950 . S
H126 C127 0.949 . S
C127 H126 0.949 . S
C127 C128 1.395 . S
C127 C129 1.391 . S
C128 C127 1.395 . S
C128 C131 1.390 . S
C129 C127 1.391 . S
C129 C133 1.387 . S
C129 C134 1.491 . S
H130 C131 0.950 . S
C131 C128 1.390 . S
C131 H130 0.950 . S
C131 C132 1.378 . S
C132 C131 1.378 . S
C132 C133 1.409 . S
C133 C129 1.387 . S
C133 C132 1.409 . S
C133 H135 0.951 . S
C134 C129 1.491 . S
C134 C136 1.382 . S
C134 C138 1.404 . S
H135 C133 0.951 . S
C136 C134 1.382 . S
C136 C137 1.390 . S
C136 H141 0.949 . S
C137 C136 1.390 . S
C137 C142 1.399 . S
C138 C134 1.404 . S
C138 H139 0.950 . S
C138 C140 1.375 . S
H139 C138 0.950 . S
C140 C138 1.375 . S
C140 C142 1.382 . S
C140 H144 0.950 . S
H141 C136 0.949 . S
C142 C137 1.399 . S
C142 C140 1.382 . S
C142 H143 0.952 . S
H143 C142 0.952 . S
H144 C140 0.950 . S
H145 C146 0.949 . S
C146 H145 0.949 . S
C146 C147 1.395 . S
C146 C148 1.391 . S
C147 C146 1.395 . S
C147 C150 1.390 . S
C148 C146 1.391 . S
C148 C152 1.387 . S
C148 C153 1.491 . S
H149 C150 0.950 . S
C150 C147 1.390 . S
C150 H149 0.950 . S
C150 C151 1.378 . S
C151 C150 1.378 . S
C151 C152 1.409 . S
C152 C148 1.387 . S
C152 C151 1.409 . S
C152 H154 0.951 . S
C153 C148 1.491 . S
C153 C155 1.382 . S
C153 C157 1.404 . S
H154 C152 0.951 . S
C155 C153 1.382 . S
C155 C156 1.390 . S
C155 H160 0.949 . S
C156 C155 1.390 . S
C156 C161 1.399 . S
C157 C153 1.404 . S
C157 H158 0.950 . S
C157 C159 1.375 . S
H158 C157 0.950 . S
C159 C157 1.375 . S
C159 C161 1.382 . S
C159 H163 0.950 . S
H160 C155 0.949 . S
C161 C156 1.399 . S
C161 C159 1.382 . S
C161 H162 0.952 . S
H162 C161 0.952 . S
H163 C159 0.950 . S
H164 C165 0.949 . S
C165 H164 0.949 . S
C165 C166 1.395 . S
C165 C167 1.391 . S
C166 C165 1.395 . S
C166 C169 1.390 . S
C167 C165 1.391 . S
C167 C171 1.387 . S
C167 C172 1.491 . S
H168 C169 0.950 . S
C169 C166 1.390 . S
C169 H168 0.950 . S
C169 C170 1.378 . S
C170 C169 1.378 . S
C170 C171 1.409 . S
C171 C167 1.387 . S
C171 C170 1.409 . S
C171 H173 0.951 . S
C172 C167 1.491 . S
C172 C174 1.382 . S
C172 C176 1.404 . S
H173 C171 0.951 . S
C174 C172 1.382 . S
C174 C175 1.390 . S
C174 H179 0.949 . S
C175 C174 1.390 . S
C175 C180 1.399 . S
C176 C172 1.404 . S
C176 H177 0.950 . S
C176 C178 1.375 . S
H177 C176 0.950 . S
C178 C176 1.375 . S
C178 C180 1.382 . S
C178 H182 0.950 . S
H179 C174 0.949 . S
C180 C175 1.399 . S
C180 C178 1.382 . S
C180 H181 0.952 . S
H181 C180 0.952 . S
H182 C178 0.950 . S
H183 C184 0.949 . S
C184 H183 0.949 . S
C184 C185 1.395 . S
C184 C186 1.391 . S
C185 C184 1.395 . S
C185 C188 1.390 . S
C186 C184 1.391 . S
C186 C190 1.387 . S
C186 C191 1.491 . S
H187 C188 0.950 . S
C188 C185 1.390 . S
C188 H187 0.950 . S
C188 C189 1.378 . S
C189 C188 1.378 . S
C189 C190 1.409 . S
C190 C186 1.387 . S
C190 C189 1.409 . S
C190 H192 0.951 . S
C191 C186 1.491 . S
C191 C193 1.382 . S
C191 C195 1.404 . S
H192 C190 0.951 . S
C193 C191 1.382 . S
C193 C194 1.390 . S
C193 H198 0.949 . S
C194 C193 1.390 . S
C194 C199 1.399 . S
C195 C191 1.404 . S
C195 H196 0.950 . S
C195 C197 1.375 . S
H196 C195 0.950 . S
C197 C195 1.375 . S
C197 C199 1.382 . S
C197 H201 0.950 . S
H198 C193 0.949 . S
C199 C194 1.399 . S
C199 C197 1.382 . S
C199 H200 0.952 . S
H200 C199 0.952 . S
H201 C197 0.950 . S
H202 C203 0.949 . S
C203 H202 0.949 . S
C203 C204 1.395 . S
C203 C205 1.391 . S
C204 C203 1.395 . S
C204 C207 1.390 . S
C205 C203 1.391 . S
C205 C209 1.387 . S
C205 C210 1.491 . S
H206 C207 0.950 . S
C207 C204 1.390 . S
C207 H206 0.950 . S
C207 C208 1.378 . S
C208 C207 1.378 . S
C208 C209 1.409 . S
C209 C205 1.387 . S
C209 C208 1.409 . S
C209 H211 0.951 . S
C210 C205 1.491 . S
C210 C212 1.382 . S
C210 C214 1.404 . S
H211 C209 0.951 . S
C212 C210 1.382 . S
C212 C213 1.390 . S
C212 H217 0.949 . S
C213 C212 1.390 . S
C213 C218 1.399 . S
C214 C210 1.404 . S
C214 H215 0.950 . S
C214 C216 1.375 . S
H215 C214 0.950 . S
C216 C214 1.375 . S
C216 C218 1.382 . S
C216 H220 0.950 . S
H217 C212 0.949 . S
C218 C213 1.399 . S
C218 C216 1.382 . S
C218 H219 0.952 . S
H219 C218 0.952 . S
H220 C216 0.950 . S
H221 C222 0.949 . S
C222 H221 0.949 . S
C222 C223 1.395 . S
C222 C224 1.391 . S
C223 C222 1.395 . S
C223 C226 1.390 . S
C224 C222 1.391 . S
C224 C228 1.387 . S
C224 C229 1.491 . S
H225 C226 0.950 . S
C226 C223 1.390 . S
C226 H225 0.950 . S
C226 C227 1.378 . S
C227 C226 1.378 . S
C227 C228 1.409 . S
C228 C224 1.387 . S
C228 C227 1.409 . S
C228 H230 0.951 . S
C229 C224 1.491 . S
C229 C231 1.382 . S
C229 C233 1.404 . S
H230 C228 0.951 . S
C231 C229 1.382 . S
C231 C232 1.390 . S
C231 H236 0.949 . S
C232 C231 1.390 . S
C232 C237 1.399 . S
C233 C229 1.404 . S
C233 H234 0.950 . S
C233 C235 1.375 . S
H234 C233 0.950 . S
C235 C233 1.375 . S
C235 C237 1.382 . S
C235 H239 0.950 . S
H236 C231 0.949 . S
C237 C232 1.399 . S
C237 C235 1.382 . S
C237 H238 0.952 . S
H238 C237 0.952 . S
H239 C235 0.950 . S
C240 C241 1.391 . S
C240 C242 1.394 . S
C240 H256 0.931 . S
C241 C240 1.391 . S
C241 C245 1.376 . S
C242 C240 1.394 . S
C242 C243 1.369 1_565 S
C242 C246 1.531 . S
C243 C242 1.369 1_545 S
C243 C244 1.410 1_545 S
C243 C251 1.503 . S
C244 C243 1.410 1_565 S
C244 C245 1.392 . S
C244 C247 1.511 1_565 S
C245 C241 1.376 . S
C245 C244 1.392 . S
C245 H257 0.929 . S
C246 C242 1.531 . S
C246 H258 0.960 1_565 S
C246 H259 0.962 1_565 S
C246 H260 0.960 . S
C247 C244 1.511 1_545 S
C247 H261 0.961 . S
C247 H262 0.961 . S
C247 H263 0.961 . S
C248 C249 1.370 . S
C248 C250 1.363 . S
C248 H264 0.931 . S
C249 C248 1.370 . S
C249 C253 1.408 . S
C250 C248 1.363 . S
C250 C251 1.370 . S
C250 C254 1.524 . S
C251 C243 1.503 . S
C251 C250 1.370 . S
C251 C252 1.403 . S
C252 C251 1.403 . S
C252 C253 1.404 . S
C252 C255 1.539 1_545 S
C253 C249 1.408 . S
C253 C252 1.404 . S
C253 H265 0.930 . S
C254 C250 1.524 . S
C254 H266 0.956 . S
C254 H267 0.961 . S
C254 H268 0.961 . S
C255 C252 1.539 1_565 S
C255 H269 0.958 . S
C255 H270 0.964 . S
C255 H271 0.960 . S
H256 C240 0.931 . S
H257 C245 0.929 . S
H258 C246 0.960 1_545 S
H259 C246 0.962 1_545 S
H260 C246 0.960 . S
H261 C247 0.961 . S
H262 C247 0.961 . S
H263 C247 0.961 . S
H264 C248 0.931 . S
H265 C253 0.930 . S
H266 C254 0.956 . S
H267 C254 0.961 . S
H268 C254 0.961 . S
H269 C255 0.958 . S
H270 C255 0.964 . S
H271 C255 0.960 . S
C272 C273 1.391 . S
C272 C274 1.394 . S
C272 H288 0.931 . S
C273 C272 1.391 . S
C273 C277 1.376 . S
C274 C272 1.394 . S
C274 C275 1.369 . S
C274 C278 1.531 . S
C275 C274 1.369 . S
C275 C276 1.410 . S
C275 C283 1.503 . S
C276 C275 1.410 . S
C276 C277 1.392 . S
C276 C279 1.511 . S
C277 C273 1.376 . S
C277 C276 1.392 . S
C277 H289 0.929 . S
C278 C274 1.531 . S
C278 H290 0.960 . S
C278 H291 0.962 . S
C278 H292 0.960 . S
C279 C276 1.511 . S
C279 H293 0.961 . S
C279 H294 0.961 . S
C279 H295 0.961 . S
C280 C281 1.370 . S
C280 C282 1.363 . S
C280 H296 0.931 . S
C281 C280 1.370 . S
C281 C285 1.408 . S
C282 C280 1.363 . S
C282 C283 1.370 . S
C282 C286 1.524 . S
C283 C275 1.503 . S
C283 C282 1.370 . S
C283 C284 1.403 . S
C284 C283 1.403 . S
C284 C285 1.404 . S
C284 C287 1.539 . S
C285 C281 1.408 . S
C285 C284 1.404 . S
C285 H297 0.930 . S
C286 C282 1.524 . S
C286 H298 0.956 . S
C286 H299 0.961 . S
C286 H300 0.961 . S
C287 C284 1.539 . S
C287 H301 0.958 . S
C287 H302 0.961 . S
C287 H303 0.960 . S
H288 C272 0.931 . S
H289 C277 0.929 . S
H290 C278 0.960 . S
H291 C278 0.962 . S
H292 C278 0.960 . S
H293 C279 0.961 . S
H294 C279 0.961 . S
H295 C279 0.961 . S
H296 C280 0.931 . S
H297 C285 0.930 . S
H298 C286 0.956 . S
H299 C286 0.961 . S
H300 C286 0.961 . S
H301 C287 0.958 . S
H302 C287 0.961 . S
H303 C287 0.960 . S
C304 C305 1.391 . S
C304 C306 1.394 1_545 S
C304 H320 0.931 . S
C305 C304 1.391 . S
C305 C309 1.376 . S
C306 C304 1.394 1_565 S
C306 C307 1.369 . S
C306 C310 1.531 . S
C307 C306 1.369 . S
C307 C308 1.410 1_565 S
C307 C315 1.503 . S
C308 C307 1.410 1_545 S
C308 C309 1.392 . S
C308 C311 1.511 . S
C309 C305 1.376 . S
C309 C308 1.392 . S
C309 H321 0.929 . S
C310 C306 1.531 . S
C310 H322 0.960 . S
C310 H323 0.962 . S
C310 H324 0.960 . S
C311 C308 1.511 . S
C311 H325 0.961 . S
C311 H326 0.961 . S
C311 H327 0.961 . S
C312 C313 1.370 . S
C312 C314 1.363 . S
C312 H328 0.931 . S
C313 C312 1.370 . S
C313 C317 1.408 . S
C314 C312 1.363 . S
C314 C315 1.370 . S
C314 C318 1.524 . S
C315 C307 1.503 . S
C315 C314 1.370 . S
C315 C316 1.403 . S
C316 C315 1.403 . S
C316 C317 1.404 . S
C316 C319 1.539 . S
C317 C313 1.408 . S
C317 C316 1.404 . S
C317 H329 0.930 . S
C318 C314 1.524 . S
C318 H330 0.956 . S
C318 H331 0.961 . S
C318 H332 0.961 . S
C319 C316 1.539 . S
C319 H333 0.958 . S
C319 H334 0.961 . S
C319 H335 0.960 . S
H320 C304 0.931 . S
H321 C309 0.929 . S
H322 C310 0.960 . S
H323 C310 0.962 . S
H324 C310 0.960 . S
H325 C311 0.961 . S
H326 C311 0.961 . S
H327 C311 0.961 . S
H328 C312 0.931 . S
H329 C317 0.930 . S
H330 C318 0.956 . S
H331 C318 0.961 . S
H332 C318 0.961 . S
H333 C319 0.958 . S
H334 C319 0.961 . S
H335 C319 0.960 . S
C336 C337 1.391 . S
C336 C338 1.394 . S
C336 H352 0.931 . S
C337 C336 1.391 . S
C337 C341 1.376 . S
C338 C336 1.394 . S
C338 C339 1.369 . S
C338 C342 1.531 . S
C339 C338 1.369 . S
C339 C340 1.410 . S
C339 C347 1.503 . S
C340 C339 1.410 . S
C340 C341 1.392 . S
C340 C343 1.511 . S
C341 C337 1.376 . S
C341 C340 1.392 . S
C341 H353 0.929 . S
C342 C338 1.531 . S
C342 H354 0.960 . S
C342 H355 0.962 . S
C342 H356 0.960 . S
C343 C340 1.511 . S
C343 H357 0.961 . S
C343 H358 0.961 . S
C343 H359 0.961 . S
C344 C345 1.370 . S
C344 C346 1.363 . S
C344 H360 0.931 . S
C345 C344 1.370 . S
C345 C349 1.408 . S
C346 C344 1.363 . S
C346 C347 1.370 . S
C346 C350 1.524 . S
C347 C339 1.503 . S
C347 C346 1.370 . S
C347 C348 1.403 . S
C348 C347 1.403 . S
C348 C349 1.404 . S
C348 C351 1.539 . S
C349 C345 1.408 . S
C349 C348 1.404 . S
C349 H361 0.930 . S
C350 C346 1.524 . S
C350 H362 0.956 . S
C350 H363 0.961 . S
C350 H364 0.961 . S
C351 C348 1.539 . S
C351 H365 0.958 . S
C351 H366 0.961 . S
C351 H367 0.960 . S
H352 C336 0.931 . S
H353 C341 0.929 . S
H354 C342 0.960 . S
H355 C342 0.962 . S
H356 C342 0.960 . S
H357 C343 0.961 . S
H358 C343 0.961 . S
H359 C343 0.961 . S
H360 C344 0.931 . S
H361 C349 0.930 . S
H362 C350 0.956 . S
H363 C350 0.961 . S
H364 C350 0.961 . S
H365 C351 0.958 . S
H366 C351 0.961 . S
H367 C351 0.960 . S
C368 C369 1.391 . S
C368 C370 1.394 . S
C368 H384 0.931 . S
C369 C368 1.391 . S
C369 C373 1.376 . S
C370 C368 1.394 . S
C370 C371 1.369 . S
C370 C374 1.531 . S
C371 C370 1.369 . S
C371 C372 1.410 . S
C371 C379 1.503 . S
C372 C371 1.410 . S
C372 C373 1.392 . S
C372 C375 1.511 . S
C373 C369 1.376 . S
C373 C372 1.392 . S
C373 H385 0.929 . S
C374 C370 1.531 . S
C374 H386 0.960 . S
C374 H387 0.962 . S
C374 H388 0.960 . S
C375 C372 1.511 . S
C375 H389 0.961 . S
C375 H390 0.961 . S
C375 H391 0.961 . S
C376 C377 1.370 . S
C376 C378 1.363 . S
C376 H392 0.931 . S
C377 C376 1.370 . S
C377 C381 1.408 . S
C378 C376 1.363 . S
C378 C379 1.370 . S
C378 C382 1.524 . S
C379 C371 1.503 . S
C379 C378 1.370 . S
C379 C380 1.403 . S
C380 C379 1.403 . S
C380 C381 1.404 . S
C380 C383 1.539 . S
C381 C377 1.408 . S
C381 C380 1.404 . S
C381 H393 0.930 . S
C382 C378 1.524 . S
C382 H394 0.956 . S
C382 H395 0.961 . S
C382 H396 0.961 . S
C383 C380 1.539 . S
C383 H397 0.958 . S
C383 H398 0.961 . S
C383 H399 0.960 . S
H384 C368 0.931 . S
H385 C373 0.929 . S
H386 C374 0.960 . S
H387 C374 0.962 . S
H388 C374 0.960 . S
H389 C375 0.961 . S
H390 C375 0.961 . S
H391 C375 0.961 . S
H392 C376 0.931 . S
H393 C381 0.930 . S
H394 C382 0.956 . S
H395 C382 0.961 . S
H396 C382 0.961 . S
H397 C383 0.958 . S
H398 C383 0.961 . S
H399 C383 0.960 . S
C400 C401 1.391 . S
C400 C402 1.394 1_655 S
C400 H416 0.931 . S
C401 C400 1.391 . S
C401 C405 1.376 . S
C402 C400 1.394 1_455 S
C402 C403 1.369 . S
C402 C406 1.531 . S
C403 C402 1.369 . S
C403 C404 1.410 1_455 S
C403 C411 1.503 . S
C404 C403 1.410 1_655 S
C404 C405 1.392 . S
C404 C407 1.511 . S
C405 C401 1.376 . S
C405 C404 1.392 . S
C405 H417 0.929 . S
C406 C402 1.531 . S
C406 H418 0.960 . S
C406 H419 0.962 . S
C406 H420 0.960 . S
C407 C404 1.511 . S
C407 H421 0.961 . S
C407 H422 0.961 . S
C407 H423 0.961 . S
C408 C409 1.370 . S
C408 C410 1.363 . S
C408 H424 0.931 . S
C409 C408 1.370 . S
C409 C413 1.408 . S
C410 C408 1.363 . S
C410 C411 1.370 . S
C410 C414 1.524 . S
C411 C403 1.503 . S
C411 C410 1.370 . S
C411 C412 1.403 . S
C412 C411 1.403 . S
C412 C413 1.404 . S
C412 C415 1.539 . S
C413 C409 1.408 . S
C413 C412 1.404 . S
C413 H425 0.930 . S
C414 C410 1.524 . S
C414 H426 0.956 . S
C414 H427 0.961 . S
C414 H428 0.961 . S
C415 C412 1.539 . S
C415 H429 0.958 . S
C415 H430 0.961 . S
C415 H431 0.960 1_455 S
H416 C400 0.931 . S
H417 C405 0.929 . S
H418 C406 0.960 . S
H419 C406 0.962 . S
H420 C406 0.960 . S
H421 C407 0.961 . S
H422 C407 0.961 . S
H423 C407 0.961 . S
H424 C408 0.931 . S
H425 C413 0.930 . S
H426 C414 0.956 . S
H427 C414 0.961 . S
H428 C414 0.961 . S
H429 C415 0.958 . S
H430 C415 0.961 . S
H431 C415 0.960 1_655 S
C432 C433 1.391 . S
C432 C434 1.394 . S
C432 H448 0.931 . S
C433 C432 1.391 . S
C433 C437 1.376 . S
C434 C432 1.394 . S
C434 C435 1.369 . S
C434 C438 1.531 . S
C435 C434 1.369 . S
C435 C436 1.410 . S
C435 C443 1.503 . S
C436 C435 1.410 . S
C436 C437 1.392 . S
C436 C439 1.511 . S
C437 C433 1.376 . S
C437 C436 1.392 . S
C437 H449 0.929 . S
C438 C434 1.531 . S
C438 H450 0.960 . S
C438 H451 0.962 . S
C438 H452 0.960 . S
C439 C436 1.511 . S
C439 H453 0.961 . S
C439 H454 0.961 . S
C439 H455 0.961 . S
C440 C441 1.370 . S
C440 C442 1.363 . S
C440 H456 0.931 . S
C441 C440 1.370 . S
C441 C445 1.408 . S
C442 C440 1.363 . S
C442 C443 1.370 . S
C442 C446 1.524 . S
C443 C435 1.503 . S
C443 C442 1.370 . S
C443 C444 1.403 . S
C444 C443 1.403 . S
C444 C445 1.404 . S
C444 C447 1.539 . S
C445 C441 1.408 . S
C445 C444 1.404 . S
C445 H457 0.930 . S
C446 C442 1.524 . S
C446 H458 0.956 . S
C446 H459 0.961 . S
C446 H460 0.961 . S
C447 C444 1.539 . S
C447 H461 0.958 . S
C447 H462 0.961 . S
C447 H463 0.960 . S
H448 C432 0.931 . S
H449 C437 0.929 . S
H450 C438 0.960 . S
H451 C438 0.962 . S
H452 C438 0.960 . S
H453 C439 0.961 . S
H454 C439 0.961 . S
H455 C439 0.961 . S
H456 C440 0.931 . S
H457 C445 0.930 . S
H458 C446 0.956 . S
H459 C446 0.961 . S
H460 C446 0.961 . S
H461 C447 0.958 . S
H462 C447 0.961 . S
H463 C447 0.960 . S
C464 C465 1.391 . S
C464 C466 1.394 1_455 S
C464 H480 0.931 . S
C465 C464 1.391 . S
C465 C469 1.376 . S
C466 C464 1.394 1_655 S
C466 C467 1.369 . S
C466 C470 1.531 . S
C467 C466 1.369 . S
C467 C468 1.410 1_655 S
C467 C475 1.503 . S
C468 C467 1.410 1_455 S
C468 C469 1.392 . S
C468 C471 1.511 . S
C469 C465 1.376 . S
C469 C468 1.392 . S
C469 H481 0.929 . S
C470 C466 1.531 . S
C470 H482 0.960 . S
C470 H483 0.962 . S
C470 H484 0.960 . S
C471 C468 1.511 . S
C471 H485 0.961 . S
C471 H486 0.961 . S
C471 H487 0.961 . S
C472 C473 1.370 . S
C472 C474 1.363 . S
C472 H488 0.931 . S
C473 C472 1.370 . S
C473 C477 1.408 . S
C474 C472 1.363 . S
C474 C475 1.370 . S
C474 C478 1.524 . S
C475 C467 1.503 . S
C475 C474 1.370 . S
C475 C476 1.403 . S
C476 C475 1.403 . S
C476 C477 1.404 . S
C476 C479 1.539 . S
C477 C473 1.408 . S
C477 C476 1.404 . S
C477 H489 0.930 . S
C478 C474 1.524 . S
C478 H490 0.956 . S
C478 H491 0.961 . S
C478 H492 0.961 . S
C479 C476 1.539 . S
C479 H493 0.958 . S
C479 H494 0.961 . S
C479 H495 0.960 . S
H480 C464 0.931 . S
H481 C469 0.929 . S
H482 C470 0.960 . S
H483 C470 0.962 . S
H484 C470 0.960 . S
H485 C471 0.961 . S
H486 C471 0.961 . S
H487 C471 0.961 . S
H488 C472 0.931 . S
H489 C477 0.930 . S
H490 C478 0.956 . S
H491 C478 0.961 . S
H492 C478 0.961 . S
H493 C479 0.958 . S
H494 C479 0.961 . S
H495 C479 0.960 . S
C496 C497 1.391 . S
C496 C498 1.394 1_545 S
C496 H512 0.931 . S
C497 C496 1.391 . S
C497 C501 1.376 . S
C498 C496 1.394 1_565 S
C498 C499 1.369 . S
C498 C502 1.531 . S
C499 C498 1.369 . S
C499 C500 1.410 1_565 S
C499 C507 1.503 . S
C500 C499 1.410 1_545 S
C500 C501 1.392 . S
C500 C503 1.511 . S
C501 C497 1.376 . S
C501 C500 1.392 . S
C501 H513 0.929 . S
C502 C498 1.531 . S
C502 H514 0.960 . S
C502 H515 0.962 . S
C502 H516 0.960 . S
C503 C500 1.511 . S
C503 H517 0.961 . S
C503 H518 0.961 1_545 S
C503 H519 0.961 1_545 S
C504 C505 1.370 . S
C504 C506 1.363 . S
C504 H520 0.931 . S
C505 C504 1.370 . S
C505 C509 1.408 . S
C506 C504 1.363 . S
C506 C507 1.370 . S
C506 C510 1.524 . S
C507 C499 1.503 . S
C507 C506 1.370 . S
C507 C508 1.403 . S
C508 C507 1.403 . S
C508 C509 1.404 . S
C508 C511 1.539 . S
C509 C505 1.408 . S
C509 C508 1.404 . S
C509 H521 0.930 . S
C510 C506 1.524 . S
C510 H522 0.956 . S
C510 H523 0.961 1_565 S
C510 H524 0.961 . S
C511 C508 1.539 . S
C511 H525 0.958 . S
C511 H526 0.961 . S
C511 H527 0.960 . S
H512 C496 0.931 . S
H513 C501 0.929 . S
H514 C502 0.960 . S
H515 C502 0.962 . S
H516 C502 0.960 . S
H517 C503 0.961 . S
H518 C503 0.961 1_565 S
H519 C503 0.961 1_565 S
H520 C504 0.931 . S
H521 C509 0.930 . S
H522 C510 0.956 . S
H523 C510 0.961 1_545 S
H524 C510 0.961 . S
H525 C511 0.958 . S
H526 C511 0.961 . S
H527 C511 0.960 . S
C528 C529 1.391 . S
C528 C530 1.394 . S
C528 H544 0.931 . S
C529 C528 1.391 . S
C529 C533 1.376 . S
C530 C528 1.394 . S
C530 C531 1.369 . S
C530 C534 1.531 . S
C531 C530 1.369 . S
C531 C532 1.410 . S
C531 C539 1.503 . S
C532 C531 1.410 . S
C532 C533 1.392 . S
C532 C535 1.511 . S
C533 C529 1.376 . S
C533 C532 1.392 . S
C533 H545 0.929 . S
C534 C530 1.531 . S
C534 H546 0.960 . S
C534 H547 0.962 . S
C534 H548 0.960 . S
C535 C532 1.511 . S
C535 H549 0.961 . S
C535 H550 0.961 . S
C535 H551 0.961 . S
C536 C537 1.370 . S
C536 C538 1.363 . S
C536 H552 0.931 . S
C537 C536 1.370 . S
C537 C541 1.408 . S
C538 C536 1.363 . S
C538 C539 1.370 . S
C538 C542 1.524 . S
C539 C531 1.503 . S
C539 C538 1.370 . S
C539 C540 1.403 . S
C540 C539 1.403 . S
C540 C541 1.404 . S
C540 C543 1.539 . S
C541 C537 1.408 . S
C541 C540 1.404 . S
C541 H553 0.930 . S
C542 C538 1.524 . S
C542 H554 0.956 . S
C542 H555 0.961 . S
C542 H556 0.961 . S
C543 C540 1.539 . S
C543 H557 0.958 . S
C543 H558 0.961 . S
C543 H559 0.960 . S
H544 C528 0.931 . S
H545 C533 0.929 . S
H546 C534 0.960 . S
H547 C534 0.962 . S
H548 C534 0.960 . S
H549 C535 0.961 . S
H550 C535 0.961 . S
H551 C535 0.961 . S
H552 C536 0.931 . S
H553 C541 0.930 . S
H554 C542 0.956 . S
H555 C542 0.961 . S
H556 C542 0.961 . S
H557 C543 0.958 . S
H558 C543 0.961 . S
H559 C543 0.960 . S
C560 C561 1.391 . S
C560 C562 1.394 . S
C560 H576 0.931 . S
C561 C560 1.391 . S
C561 C565 1.376 . S
C562 C560 1.394 . S
C562 C563 1.369 1_565 S
C562 C566 1.531 1_565 S
C563 C562 1.369 1_545 S
C563 C564 1.410 . S
C563 C571 1.503 . S
C564 C563 1.410 . S
C564 C565 1.392 1_545 S
C564 C567 1.511 . S
C565 C561 1.376 . S
C565 C564 1.392 1_565 S
C565 H577 0.929 . S
C566 C562 1.531 1_545 S
C566 H578 0.960 . S
C566 H579 0.962 1_545 S
C566 H580 0.960 . S
C567 C564 1.511 . S
C567 H581 0.961 . S
C567 H582 0.961 . S
C567 H583 0.961 . S
C568 C569 1.370 . S
C568 C570 1.363 . S
C568 H584 0.931 . S
C569 C568 1.370 . S
C569 C573 1.408 . S
C570 C568 1.363 . S
C570 C571 1.370 . S
C570 C574 1.524 1_545 S
C571 C563 1.503 . S
C571 C570 1.370 . S
C571 C572 1.403 . S
C572 C571 1.403 . S
C572 C573 1.404 . S
C572 C575 1.539 . S
C573 C569 1.408 . S
C573 C572 1.404 . S
C573 H585 0.930 . S
C574 C570 1.524 1_565 S
C574 H586 0.956 . S
C574 H587 0.961 . S
C574 H588 0.961 . S
C575 C572 1.539 . S
C575 H589 0.958 . S
C575 H590 0.961 . S
C575 H591 0.960 . S
H576 C560 0.931 . S
H577 C565 0.929 . S
H578 C566 0.960 . S
H579 C566 0.962 1_565 S
H580 C566 0.960 . S
H581 C567 0.961 . S
H582 C567 0.961 . S
H583 C567 0.961 . S
H584 C568 0.931 . S
H585 C573 0.930 . S
H586 C574 0.956 . S
H587 C574 0.961 . S
H588 C574 0.961 . S
H589 C575 0.958 . S
H590 C575 0.961 . S
H591 C575 0.960 . S
C592 C593 1.391 . S
C592 C594 1.394 . S
C592 H608 0.931 . S
C593 C592 1.391 . S
C593 C597 1.376 . S
C594 C592 1.394 . S
C594 C595 1.369 . S
C594 C598 1.531 . S
C595 C594 1.369 . S
C595 C596 1.410 . S
C595 C603 1.503 . S
C596 C595 1.410 . S
C596 C597 1.392 . S
C596 C599 1.511 . S
C597 C593 1.376 . S
C597 C596 1.392 . S
C597 H609 0.929 . S
C598 C594 1.531 . S
C598 H610 0.960 . S
C598 H611 0.962 . S
C598 H612 0.960 . S
C599 C596 1.511 . S
C599 H613 0.961 . S
C599 H614 0.961 . S
C599 H615 0.961 . S
C600 C601 1.370 . S
C600 C602 1.363 . S
C600 H616 0.931 . S
C601 C600 1.370 . S
C601 C605 1.408 . S
C602 C600 1.363 . S
C602 C603 1.370 . S
C602 C606 1.524 . S
C603 C595 1.503 . S
C603 C602 1.370 . S
C603 C604 1.403 . S
C604 C603 1.403 . S
C604 C605 1.404 . S
C604 C607 1.539 . S
C605 C601 1.408 . S
C605 C604 1.404 . S
C605 H617 0.930 . S
C606 C602 1.524 . S
C606 H618 0.956 . S
C606 H619 0.961 . S
C606 H620 0.961 . S
C607 C604 1.539 . S
C607 H621 0.958 . S
C607 H622 0.961 . S
C607 H623 0.960 . S
H608 C592 0.931 . S
H609 C597 0.929 . S
H610 C598 0.960 . S
H611 C598 0.962 . S
H612 C598 0.960 . S
H613 C599 0.961 . S
H614 C599 0.961 . S
H615 C599 0.961 . S
H616 C600 0.931 . S
H617 C605 0.930 . S
H618 C606 0.956 . S
H619 C606 0.961 . S
H620 C606 0.961 . S
H621 C607 0.958 . S
H622 C607 0.961 . S
H623 C607 0.960 . S
C624 C625 1.391 . S
C624 C626 1.394 . S
C624 H640 0.931 . S
C625 C624 1.391 . S
C625 C629 1.376 . S
C626 C624 1.394 . S
C626 C627 1.369 . S
C626 C630 1.531 . S
C627 C626 1.369 . S
C627 C628 1.410 . S
C627 C635 1.503 . S
C628 C627 1.410 . S
C628 C629 1.392 . S
C628 C631 1.511 . S
C629 C625 1.376 . S
C629 C628 1.392 . S
C629 H641 0.929 . S
C630 C626 1.531 . S
C630 H642 0.960 . S
C630 H643 0.962 . S
C630 H644 0.960 . S
C631 C628 1.511 . S
C631 H645 0.961 . S
C631 H646 0.961 . S
C631 H647 0.961 . S
C632 C633 1.370 . S
C632 C634 1.363 . S
C632 H648 0.931 . S
C633 C632 1.370 . S
C633 C637 1.408 . S
C634 C632 1.363 . S
C634 C635 1.370 . S
C634 C638 1.524 . S
C635 C627 1.503 . S
C635 C634 1.370 . S
C635 C636 1.403 . S
C636 C635 1.403 . S
C636 C637 1.404 . S
C636 C639 1.539 . S
C637 C633 1.408 . S
C637 C636 1.404 . S
C637 H649 0.930 . S
C638 C634 1.524 . S
C638 H650 0.956 . S
C638 H651 0.961 . S
C638 H652 0.961 . S
C639 C636 1.539 . S
C639 H653 0.958 . S
C639 H654 0.961 . S
C639 H655 0.960 . S
H640 C624 0.931 . S
H641 C629 0.929 . S
H642 C630 0.960 . S
H643 C630 0.962 . S
H644 C630 0.960 . S
H645 C631 0.961 . S
H646 C631 0.961 . S
H647 C631 0.961 . S
H648 C632 0.931 . S
H649 C637 0.930 . S
H650 C638 0.956 . S
H651 C638 0.961 . S
H652 C638 0.961 . S
H653 C639 0.958 . S
H654 C639 0.961 . S
H655 C639 0.960 . S
C656 C657 1.391 . S
C656 C658 1.394 1_455 S
C656 H672 0.931 . S
C657 C656 1.391 . S
C657 C661 1.376 . S
C658 C656 1.394 1_655 S
C658 C659 1.369 . S
C658 C662 1.531 . S
C659 C658 1.369 . S
C659 C660 1.410 1_655 S
C659 C667 1.503 . S
C660 C659 1.410 1_455 S
C660 C661 1.392 . S
C660 C663 1.511 . S
C661 C657 1.376 . S
C661 C660 1.392 . S
C661 H673 0.929 . S
C662 C658 1.531 . S
C662 H674 0.960 . S
C662 H675 0.962 . S
C662 H676 0.960 . S
C663 C660 1.511 . S
C663 H677 0.961 . S
C663 H678 0.961 . S
C663 H679 0.961 . S
C664 C665 1.370 . S
C664 C666 1.363 . S
C664 H680 0.931 . S
C665 C664 1.370 . S
C665 C669 1.408 . S
C666 C664 1.363 . S
C666 C667 1.370 . S
C666 C670 1.524 . S
C667 C659 1.503 . S
C667 C666 1.370 . S
C667 C668 1.403 . S
C668 C667 1.403 . S
C668 C669 1.404 . S
C668 C671 1.539 . S
C669 C665 1.408 . S
C669 C668 1.404 . S
C669 H681 0.930 . S
C670 C666 1.524 . S
C670 H682 0.956 . S
C670 H683 0.961 . S
C670 H684 0.961 . S
C671 C668 1.539 . S
C671 H685 0.958 . S
C671 H686 0.961 . S
C671 H687 0.960 . S
H672 C656 0.931 . S
H673 C661 0.929 . S
H674 C662 0.960 . S
H675 C662 0.962 . S
H676 C662 0.960 . S
H677 C663 0.961 . S
H678 C663 0.961 . S
H679 C663 0.961 . S
H680 C664 0.931 . S
H681 C669 0.930 . S
H682 C670 0.956 . S
H683 C670 0.961 . S
H684 C670 0.961 . S
H685 C671 0.958 . S
H686 C671 0.961 . S
H687 C671 0.960 . S
C688 C689 1.391 . S
C688 C690 1.394 . S
C688 H704 0.931 . S
C689 C688 1.391 . S
C689 C693 1.376 . S
C690 C688 1.394 . S
C690 C691 1.369 . S
C690 C694 1.531 . S
C691 C690 1.369 . S
C691 C692 1.410 . S
C691 C699 1.503 . S
C692 C691 1.410 . S
C692 C693 1.392 . S
C692 C695 1.511 . S
C693 C689 1.376 . S
C693 C692 1.392 . S
C693 H705 0.929 . S
C694 C690 1.531 . S
C694 H706 0.960 . S
C694 H707 0.962 . S
C694 H708 0.960 . S
C695 C692 1.511 . S
C695 H709 0.961 . S
C695 H710 0.961 . S
C695 H711 0.961 . S
C696 C697 1.370 . S
C696 C698 1.363 . S
C696 H712 0.931 . S
C697 C696 1.370 . S
C697 C701 1.408 . S
C698 C696 1.363 . S
C698 C699 1.370 . S
C698 C702 1.524 . S
C699 C691 1.503 . S
C699 C698 1.370 . S
C699 C700 1.403 . S
C700 C699 1.403 . S
C700 C701 1.404 . S
C700 C703 1.539 . S
C701 C697 1.408 . S
C701 C700 1.404 . S
C701 H713 0.930 . S
C702 C698 1.524 . S
C702 H714 0.956 . S
C702 H715 0.961 . S
C702 H716 0.961 . S
C703 C700 1.539 . S
C703 H717 0.958 . S
C703 H718 0.961 . S
C703 H719 0.960 . S
H704 C688 0.931 . S
H705 C693 0.929 . S
H706 C694 0.960 . S
H707 C694 0.962 . S
H708 C694 0.960 . S
H709 C695 0.961 . S
H710 C695 0.961 . S
H711 C695 0.961 . S
H712 C696 0.931 . S
H713 C701 0.930 . S
H714 C702 0.956 . S
H715 C702 0.961 . S
H716 C702 0.961 . S
H717 C703 0.958 . S
H718 C703 0.961 . S
H719 C703 0.960 . S
C720 C721 1.391 . S
C720 C722 1.394 1_655 S
C720 H736 0.931 . S
C721 C720 1.391 . S
C721 C725 1.376 . S
C722 C720 1.394 1_455 S
C722 C723 1.369 . S
C722 C726 1.531 . S
C723 C722 1.369 . S
C723 C724 1.410 1_455 S
C723 C731 1.503 . S
C724 C723 1.410 1_655 S
C724 C725 1.392 . S
C724 C727 1.511 . S
C725 C721 1.376 . S
C725 C724 1.392 . S
C725 H737 0.929 . S
C726 C722 1.531 . S
C726 H738 0.960 . S
C726 H739 0.962 . S
C726 H740 0.960 . S
C727 C724 1.511 . S
C727 H741 0.961 . S
C727 H742 0.961 . S
C727 H743 0.961 . S
C728 C729 1.370 . S
C728 C730 1.363 . S
C728 H744 0.931 . S
C729 C728 1.370 . S
C729 C733 1.408 . S
C730 C728 1.363 . S
C730 C731 1.370 . S
C730 C734 1.524 . S
C731 C723 1.503 . S
C731 C730 1.370 . S
C731 C732 1.403 . S
C732 C731 1.403 . S
C732 C733 1.404 . S
C732 C735 1.539 . S
C733 C729 1.408 . S
C733 C732 1.404 . S
C733 H745 0.930 . S
C734 C730 1.524 . S
C734 H746 0.956 . S
C734 H747 0.961 . S
C734 H748 0.961 . S
C735 C732 1.539 . S
C735 H749 0.958 . S
C735 H750 0.961 . S
C735 H751 0.960 . S
H736 C720 0.931 . S
H737 C725 0.929 . S
H738 C726 0.960 . S
H739 C726 0.962 . S
H740 C726 0.960 . S
H741 C727 0.961 . S
H742 C727 0.961 . S
H743 C727 0.961 . S
H744 C728 0.931 . S
H745 C733 0.930 . S
H746 C734 0.956 . S
H747 C734 0.961 . S
H748 C734 0.961 . S
H749 C735 0.958 . S
H750 C735 0.961 . S
H751 C735 0.960 . S
C752 C753 1.391 . S
C752 C754 1.394 . S
C752 H768 0.931 . S
C753 C752 1.391 . S
C753 C757 1.376 . S
C754 C752 1.394 . S
C754 C755 1.369 . S
C754 C758 1.531 . S
C755 C754 1.369 . S
C755 C756 1.410 . S
C755 C763 1.503 . S
C756 C755 1.410 . S
C756 C757 1.392 . S
C756 C759 1.511 . S
C757 C753 1.376 . S
C757 C756 1.392 . S
C757 H769 0.929 . S
C758 C754 1.531 . S
C758 H770 0.960 . S
C758 H771 0.962 . S
C758 H772 0.960 . S
C759 C756 1.511 . S
C759 H773 0.961 . S
C759 H774 0.961 . S
C759 H775 0.961 . S
C760 C761 1.370 . S
C760 C762 1.363 . S
C760 H776 0.931 . S
C761 C760 1.370 . S
C761 C765 1.408 . S
C762 C760 1.363 . S
C762 C763 1.370 . S
C762 C766 1.524 . S
C763 C755 1.503 . S
C763 C762 1.370 . S
C763 C764 1.403 . S
C764 C763 1.403 . S
C764 C765 1.404 . S
C764 C767 1.539 . S
C765 C761 1.408 . S
C765 C764 1.404 . S
C765 H777 0.930 . S
C766 C762 1.524 . S
C766 H778 0.956 . S
C766 H779 0.961 . S
C766 H780 0.961 . S
C767 C764 1.539 . S
C767 H781 0.958 . S
C767 H782 0.961 . S
C767 H783 0.960 . S
H768 C752 0.931 . S
H769 C757 0.929 . S
H770 C758 0.960 . S
H771 C758 0.962 . S
H772 C758 0.960 . S
H773 C759 0.961 . S
H774 C759 0.961 . S
H775 C759 0.961 . S
H776 C760 0.931 . S
H777 C765 0.930 . S
H778 C766 0.956 . S
H779 C766 0.961 . S
H780 C766 0.961 . S
H781 C767 0.958 . S
H782 C767 0.961 . S
H783 C767 0.960 . S
C784 C785 1.391 . S
C784 C786 1.394 . S
C784 H800 0.931 . S
C785 C784 1.391 . S
C785 C789 1.376 . S
C786 C784 1.394 . S
C786 C787 1.369 . S
C786 C790 1.531 . S
C787 C786 1.369 . S
C787 C788 1.410 . S
C787 C795 1.503 . S
C788 C787 1.410 . S
C788 C789 1.392 . S
C788 C791 1.511 . S
C789 C785 1.376 . S
C789 C788 1.392 . S
C789 H801 0.929 . S
C790 C786 1.531 . S
C790 H802 0.960 . S
C790 H803 0.962 . S
C790 H804 0.960 . S
C791 C788 1.511 . S
C791 H805 0.961 . S
C791 H806 0.961 . S
C791 H807 0.961 . S
C792 C793 1.370 . S
C792 C794 1.363 . S
C792 H808 0.931 . S
C793 C792 1.370 . S
C793 C797 1.408 . S
C794 C792 1.363 . S
C794 C795 1.370 . S
C794 C798 1.524 . S
C795 C787 1.503 . S
C795 C794 1.370 . S
C795 C796 1.403 . S
C796 C795 1.403 . S
C796 C797 1.404 . S
C796 C799 1.539 . S
C797 C793 1.408 . S
C797 C796 1.404 . S
C797 H809 0.930 . S
C798 C794 1.524 . S
C798 H810 0.956 . S
C798 H811 0.961 . S
C798 H812 0.961 . S
C799 C796 1.539 . S
C799 H813 0.958 . S
C799 H814 0.961 . S
C799 H815 0.960 . S
H800 C784 0.931 . S
H801 C789 0.929 . S
H802 C790 0.960 . S
H803 C790 0.962 . S
H804 C790 0.960 . S
H805 C791 0.961 . S
H806 C791 0.961 . S
H807 C791 0.961 . S
H808 C792 0.931 . S
H809 C797 0.930 . S
H810 C798 0.956 . S
H811 C798 0.961 . S
H812 C798 0.961 . S
H813 C799 0.958 . S
H814 C799 0.961 . S
H815 C799 0.960 . S
C816 C817 1.391 . S
C816 C818 1.394 . S
C816 H832 0.931 . S
C817 C816 1.391 . S
C817 C821 1.376 . S
C818 C816 1.394 . S
C818 C819 1.369 . S
C818 C822 1.531 . S
C819 C818 1.369 . S
C819 C820 1.410 . S
C819 C827 1.503 . S
C820 C819 1.410 . S
C820 C821 1.392 . S
C820 C823 1.511 . S
C821 C817 1.376 . S
C821 C820 1.392 . S
C821 H833 0.929 . S
C822 C818 1.531 . S
C822 H834 0.960 . S
C822 H835 0.962 . S
C822 H836 0.960 . S
C823 C820 1.511 . S
C823 H837 0.961 . S
C823 H838 0.961 . S
C823 H839 0.961 . S
C824 C825 1.370 . S
C824 C826 1.363 . S
C824 H840 0.931 . S
C825 C824 1.370 . S
C825 C829 1.408 . S
C826 C824 1.363 . S
C826 C827 1.370 . S
C826 C830 1.524 . S
C827 C819 1.503 . S
C827 C826 1.370 . S
C827 C828 1.403 . S
C828 C827 1.403 . S
C828 C829 1.404 . S
C828 C831 1.539 . S
C829 C825 1.408 . S
C829 C828 1.404 . S
C829 H841 0.930 . S
C830 C826 1.524 . S
C830 H842 0.956 . S
C830 H843 0.961 . S
C830 H844 0.961 . S
C831 C828 1.539 . S
C831 H845 0.958 . S
C831 H846 0.961 . S
C831 H847 0.960 . S
H832 C816 0.931 . S
H833 C821 0.929 . S
H834 C822 0.960 . S
H835 C822 0.962 . S
H836 C822 0.960 . S
H837 C823 0.961 . S
H838 C823 0.961 . S
H839 C823 0.961 . S
H840 C824 0.931 . S
H841 C829 0.930 . S
H842 C830 0.956 . S
H843 C830 0.961 . S
H844 C830 0.961 . S
H845 C831 0.958 . S
H846 C831 0.961 . S
H847 C831 0.960 . S
C848 C849 1.391 . S
C848 C850 1.394 . S
C848 H864 0.931 . S
C849 C848 1.391 . S
C849 C853 1.376 . S
C850 C848 1.394 . S
C850 C851 1.369 . S
C850 C854 1.531 . S
C851 C850 1.369 . S
C851 C852 1.410 . S
C851 C859 1.503 . S
C852 C851 1.410 . S
C852 C853 1.392 . S
C852 C855 1.511 . S
C853 C849 1.376 . S
C853 C852 1.392 . S
C853 H865 0.929 . S
C854 C850 1.531 . S
C854 H866 0.960 . S
C854 H867 0.962 . S
C854 H868 0.960 . S
C855 C852 1.511 . S
C855 H869 0.961 . S
C855 H870 0.961 . S
C855 H871 0.961 . S
C856 C857 1.370 . S
C856 C858 1.363 . S
C856 H872 0.931 . S
C857 C856 1.370 . S
C857 C861 1.408 . S
C858 C856 1.363 . S
C858 C859 1.370 . S
C858 C862 1.524 . S
C859 C851 1.503 . S
C859 C858 1.370 . S
C859 C860 1.403 . S
C860 C859 1.403 . S
C860 C861 1.404 . S
C860 C863 1.539 . S
C861 C857 1.408 . S
C861 C860 1.404 . S
C861 H873 0.930 . S
C862 C858 1.524 . S
C862 H874 0.956 . S
C862 H875 0.961 . S
C862 H876 0.961 . S
C863 C860 1.539 . S
C863 H877 0.958 . S
C863 H878 0.961 . S
C863 H879 0.960 . S
H864 C848 0.931 . S
H865 C853 0.929 . S
H866 C854 0.960 . S
H867 C854 0.962 . S
H868 C854 0.960 . S
H869 C855 0.961 . S
H870 C855 0.961 . S
H871 C855 0.961 . S
H872 C856 0.931 . S
H873 C861 0.930 . S
H874 C862 0.956 . S
H875 C862 0.961 . S
H876 C862 0.961 . S
H877 C863 0.958 . S
H878 C863 0.961 . S
H879 C863 0.960 . S
C880 C881 1.391 . S
C880 C882 1.394 . S
C880 H896 0.931 . S
C881 C880 1.391 . S
C881 C885 1.376 . S
C882 C880 1.394 . S
C882 C883 1.369 . S
C882 C886 1.531 . S
C883 C882 1.369 . S
C883 C884 1.410 . S
C883 C891 1.503 . S
C884 C883 1.410 . S
C884 C885 1.392 . S
C884 C887 1.511 . S
C885 C881 1.376 . S
C885 C884 1.392 . S
C885 H897 0.929 . S
C886 C882 1.531 . S
C886 H898 0.960 . S
C886 H899 0.962 . S
C886 H900 0.960 . S
C887 C884 1.511 . S
C887 H901 0.961 . S
C887 H902 0.961 . S
C887 H903 0.961 . S
C888 C889 1.370 . S
C888 C890 1.363 . S
C888 H904 0.931 . S
C889 C888 1.370 . S
C889 C893 1.408 . S
C890 C888 1.363 . S
C890 C891 1.370 . S
C890 C894 1.524 . S
C891 C883 1.503 . S
C891 C890 1.370 . S
C891 C892 1.403 . S
C892 C891 1.403 . S
C892 C893 1.404 . S
C892 C895 1.539 . S
C893 C889 1.408 . S
C893 C892 1.404 . S
C893 H905 0.930 . S
C894 C890 1.524 . S
C894 H906 0.956 . S
C894 H907 0.961 . S
C894 H908 0.961 . S
C895 C892 1.539 . S
C895 H909 0.958 . S
C895 H910 0.961 . S
C895 H911 0.960 . S
H896 C880 0.931 . S
H897 C885 0.929 . S
H898 C886 0.960 . S
H899 C886 0.962 . S
H900 C886 0.960 . S
H901 C887 0.961 . S
H902 C887 0.961 . S
H903 C887 0.961 . S
H904 C888 0.931 . S
H905 C893 0.930 . S
H906 C894 0.956 . S
H907 C894 0.961 . S
H908 C894 0.961 . S
H909 C895 0.958 . S
H910 C895 0.961 . S
H911 C895 0.960 . S
C912 C913 1.391 . S
C912 C914 1.394 . S
C912 H928 0.931 . S
C913 C912 1.391 . S
C913 C917 1.376 . S
C914 C912 1.394 . S
C914 C915 1.369 . S
C914 C918 1.531 . S
C915 C914 1.369 . S
C915 C916 1.410 . S
C915 C923 1.503 . S
C916 C915 1.410 . S
C916 C917 1.392 . S
C916 C919 1.511 . S
C917 C913 1.376 . S
C917 C916 1.392 . S
C917 H929 0.929 . S
C918 C914 1.531 . S
C918 H930 0.960 . S
C918 H931 0.962 . S
C918 H932 0.960 . S
C919 C916 1.511 . S
C919 H933 0.961 . S
C919 H934 0.961 . S
C919 H935 0.961 . S
C920 C921 1.370 . S
C920 C922 1.363 . S
C920 H936 0.931 . S
C921 C920 1.370 . S
C921 C925 1.408 . S
C922 C920 1.363 . S
C922 C923 1.370 . S
C922 C926 1.524 . S
C923 C915 1.503 . S
C923 C922 1.370 . S
C923 C924 1.403 . S
C924 C923 1.403 . S
C924 C925 1.404 . S
C924 C927 1.539 . S
C925 C921 1.408 . S
C925 C924 1.404 . S
C925 H937 0.930 . S
C926 C922 1.524 . S
C926 H938 0.956 . S
C926 H939 0.961 . S
C926 H940 0.961 . S
C927 C924 1.539 . S
C927 H941 0.958 . S
C927 H942 0.961 . S
C927 H943 0.960 . S
H928 C912 0.931 . S
H929 C917 0.929 . S
H930 C918 0.960 . S
H931 C918 0.962 . S
H932 C918 0.960 . S
H933 C919 0.961 . S
H934 C919 0.961 . S
H935 C919 0.961 . S
H936 C920 0.931 . S
H937 C925 0.930 . S
H938 C926 0.956 . S
H939 C926 0.961 . S
H940 C926 0.961 . S
H941 C927 0.958 . S
H942 C927 0.961 . S
H943 C927 0.960 . S
C944 C945 1.391 . S
C944 C946 1.394 . S
C944 H960 0.931 . S
C945 C944 1.391 . S
C945 C949 1.376 . S
C946 C944 1.394 . S
C946 C947 1.369 . S
C946 C950 1.531 . S
C947 C946 1.369 . S
C947 C948 1.410 . S
C947 C955 1.503 . S
C948 C947 1.410 . S
C948 C949 1.392 . S
C948 C951 1.511 . S
C949 C945 1.376 . S
C949 C948 1.392 . S
C949 H961 0.929 . S
C950 C946 1.531 . S
C950 H962 0.960 . S
C950 H963 0.962 . S
C950 H964 0.960 . S
C951 C948 1.511 . S
C951 H965 0.961 . S
C951 H966 0.961 . S
C951 H967 0.961 . S
C952 C953 1.370 . S
C952 C954 1.363 . S
C952 H968 0.931 . S
C953 C952 1.370 . S
C953 C957 1.408 . S
C954 C952 1.363 . S
C954 C955 1.370 . S
C954 C958 1.524 . S
C955 C947 1.503 . S
C955 C954 1.370 . S
C955 C956 1.403 . S
C956 C955 1.403 . S
C956 C957 1.404 . S
C956 C959 1.539 . S
C957 C953 1.408 . S
C957 C956 1.404 . S
C957 H969 0.930 . S
C958 C954 1.524 . S
C958 H970 0.956 . S
C958 H971 0.961 . S
C958 H972 0.961 . S
C959 C956 1.539 . S
C959 H973 0.958 . S
C959 H974 0.961 . S
C959 H975 0.960 . S
H960 C944 0.931 . S
H961 C949 0.929 . S
H962 C950 0.960 . S
H963 C950 0.962 . S
H964 C950 0.960 . S
H965 C951 0.961 . S
H966 C951 0.961 . S
H967 C951 0.961 . S
H968 C952 0.931 . S
H969 C957 0.930 . S
H970 C958 0.956 . S
H971 C958 0.961 . S
H972 C958 0.961 . S
H973 C959 0.958 . S
H974 C959 0.961 . S
H975 C959 0.960 . S
C976 C977 1.391 . S
C976 C978 1.394 . S
C976 H992 0.931 . S
C977 C976 1.391 . S
C977 C981 1.376 . S
C978 C976 1.394 . S
C978 C979 1.369 . S
C978 C982 1.531 . S
C979 C978 1.369 . S
C979 C980 1.410 . S
C979 C987 1.503 . S
C980 C979 1.410 . S
C980 C981 1.392 . S
C980 C983 1.511 . S
C981 C977 1.376 . S
C981 C980 1.392 . S
C981 H993 0.929 . S
C982 C978 1.531 . S
C982 H994 0.960 . S
C982 H995 0.962 . S
C982 H996 0.960 . S
C983 C980 1.511 . S
C983 H997 0.961 . S
C983 H998 0.961 . S
C983 H999 0.961 . S
C984 C985 1.370 . S
C984 C986 1.363 . S
C984 H1000 0.931 . S
C985 C984 1.370 . S
C985 C989 1.408 . S
C986 C984 1.363 . S
C986 C987 1.370 . S
C986 C990 1.524 . S
C987 C979 1.503 . S
C987 C986 1.370 . S
C987 C988 1.403 . S
C988 C987 1.403 . S
C988 C989 1.404 . S
C988 C991 1.539 . S
C989 C985 1.408 . S
C989 C988 1.404 . S
C989 H1001 0.930 . S
C990 C986 1.524 . S
C990 H1002 0.956 . S
C990 H1003 0.961 . S
C990 H1004 0.961 . S
C991 C988 1.539 . S
C991 H1005 0.958 . S
C991 H1006 0.961 . S
C991 H1007 0.960 . S
H992 C976 0.931 . S
H993 C981 0.929 . S
H994 C982 0.960 . S
H995 C982 0.962 . S
H996 C982 0.960 . S
H997 C983 0.961 . S
H998 C983 0.961 . S
H999 C983 0.961 . S
H1000 C984 0.931 . S
H1001 C989 0.930 . S
H1002 C990 0.956 . S
H1003 C990 0.961 . S
H1004 C990 0.961 . S
H1005 C991 0.958 . S
H1006 C991 0.961 . S
H1007 C991 0.960 . S
C241 C8 1.432 . S
C249 C90 1.358 . S
C273 C31 1.491 . S
C281 C109 1.409 . S
C305 C53 1.220 . S
C313 C132 1.214 . S
C345 C151 1.165 . S
C337 C74 1.178 . S
C377 C166 1.325 . S
C369 C26 1.400 . S
C401 C48 1.184 . S
C409 C189 1.170 . S
C433 C71 1.223 . S
C441 C208 1.217 . S
C465 C5 1.476 . S
C473 C223 1.390 . S
C497 C50 1.206 . S
C505 C227 1.229 . S
C537 C170 1.176 . S
C529 C70 1.160 . S
C569 C185 1.331 . S
C561 C4 1.394 . S
C593 C28 1.459 . S
C601 C204 1.379 . S
C633 C113 1.222 . S
C625 C73 1.244 . S
C657 C7 1.474 . S
C665 C128 1.412 . S
C697 C147 1.346 . S
C689 C30 1.433 . S
C729 C94 1.178 . S
C721 C52 1.163 . S
C761 C213 1.314 . S
C753 C9 1.382 . S
C793 C232 1.288 . S
C785 C29 1.402 . S
C817 C51 1.290 . S
C825 C175 1.195 . S
C857 C194 1.223 . S
C849 C75 1.291 . S
C889 C137 1.271 . S
C881 C27 1.414 . S
C913 C49 1.299 . S
C921 C156 1.212 . S
C953 C99 1.200 . S
C945 C72 1.290 . S
C985 C118 1.319 . S
C977 C6 1.419 . S
