# Generated by pormake.
# Topology zzz, (3,6)-cn, num edge types: 1
# Building blocks:
#     Node 0, Type 0, BuildingBlock: PAMTOO_clean_linker_0, # of connection points: 3
#     Node 1, Type 0, BuildingBlock: PAMTOO_clean_linker_0, # of connection points: 3
#     Node 2, Type 0, BuildingBlock: PAMTOO_clean_linker_0, # of connection points: 3
#     Node 3, Type 0, BuildingBlock: PAMTOO_clean_linker_0, # of connection points: 3
#     Node 4, Type 0, BuildingBlock: PAMTOO_clean_linker_0, # of connection points: 3
#     Node 5, Type 0, BuildingBlock: PAMTOO_clean_linker_0, # of connection points: 3
#     Node 6, Type 0, BuildingBlock: PAMTOO_clean_linker_0, # of connection points: 3
#     Node 7, Type 0, BuildingBlock: PAMTOO_clean_linker_0, # of connection points: 3
#     Node 8, Type 1, BuildingBlock: BETDAH_clean_sbu_0, # of connection points: 6
#     Node 9, Type 1, BuildingBlock: BETDAH_clean_sbu_0, # of connection points: 6
#     Node 10, Type 1, BuildingBlock: BETDAH_clean_sbu_0, # of connection points: 6
#     Node 11, Type 1, BuildingBlock: BETDAH_clean_sbu_0, # of connection points: 6
#     Edge 12, Type (0, 1), BuildingBlock: ZUJKAS_clean_linker_0, # of connection points: 2
#     Edge 13, Type (0, 1), BuildingBlock: ZUJKAS_clean_linker_0, # of connection points: 2
#     Edge 14, Type (0, 1), BuildingBlock: ZUJKAS_clean_linker_0, # of connection points: 2
#     Edge 15, Type (0, 1), BuildingBlock: ZUJKAS_clean_linker_0, # of connection points: 2
#     Edge 16, Type (0, 1), BuildingBlock: ZUJKAS_clean_linker_0, # of connection points: 2
#     Edge 17, Type (0, 1), BuildingBlock: ZUJKAS_clean_linker_0, # of connection points: 2
#     Edge 18, Type (0, 1), BuildingBlock: ZUJKAS_clean_linker_0, # of connection points: 2
#     Edge 19, Type (0, 1), BuildingBlock: ZUJKAS_clean_linker_0, # of connection points: 2
#     Edge 20, Type (0, 1), BuildingBlock: ZUJKAS_clean_linker_0, # of connection points: 2
#     Edge 21, Type (0, 1), BuildingBlock: ZUJKAS_clean_linker_0, # of connection points: 2
#     Edge 22, Type (0, 1), BuildingBlock: ZUJKAS_clean_linker_0, # of connection points: 2
#     Edge 23, Type (0, 1), BuildingBlock: ZUJKAS_clean_linker_0, # of connection points: 2
#     Edge 24, Type (0, 1), BuildingBlock: ZUJKAS_clean_linker_0, # of connection points: 2
#     Edge 25, Type (0, 1), BuildingBlock: ZUJKAS_clean_linker_0, # of connection points: 2
#     Edge 26, Type (0, 1), BuildingBlock: ZUJKAS_clean_linker_0, # of connection points: 2
#     Edge 27, Type (0, 1), BuildingBlock: ZUJKAS_clean_linker_0, # of connection points: 2
#     Edge 28, Type (0, 1), BuildingBlock: ZUJKAS_clean_linker_0, # of connection points: 2
#     Edge 29, Type (0, 1), BuildingBlock: ZUJKAS_clean_linker_0, # of connection points: 2
#     Edge 30, Type (0, 1), BuildingBlock: ZUJKAS_clean_linker_0, # of connection points: 2
#     Edge 31, Type (0, 1), BuildingBlock: ZUJKAS_clean_linker_0, # of connection points: 2
#     Edge 32, Type (0, 1), BuildingBlock: ZUJKAS_clean_linker_0, # of connection points: 2
#     Edge 33, Type (0, 1), BuildingBlock: ZUJKAS_clean_linker_0, # of connection points: 2
#     Edge 34, Type (0, 1), BuildingBlock: ZUJKAS_clean_linker_0, # of connection points: 2
#     Edge 35, Type (0, 1), BuildingBlock: ZUJKAS_clean_linker_0, # of connection points: 2
# Relax obj value: 0.225
# Max RMSD: 0.175
# Mean RMSD: 0.160
data_MOF--net-zzz--node1-BETDAH_clean_sbu_0--node2-PAMTOO_clean_linker_0--edge1-ZUJKAS_clean_linker_0
_symmetry_space_group_name_H-M    P1
_symmetry_Int_Tables_number       1
_symmetry_cell_setting            triclinic
loop_
_symmetry_equiv_pos_as_xyz
'x, y, z'
_cell_length_a     68.014458
_cell_length_b     67.939051
_cell_length_c     17.032497
_cell_angle_alpha  90.056356
_cell_angle_beta   90.151074
_cell_angle_gamma 90.022197
loop_
_atom_site_label
_atom_site_type_symbol
_atom_site_fract_x
_atom_site_fract_y
_atom_site_fract_z
_atom_type_partial_charge
H0 H 0.80229 0.54288 0.22362 0.0
H1 H 0.74085 0.54177 0.16252 0.0
H2 H 0.75983 0.52193 0.39029 0.0
H3 H 0.7157 0.50156 0.32614 0.0
C4 C 0.71985 0.50983 0.27242 0.0
O5 O 0.72903 0.52718 0.29493 0.0
H6 H 0.73007 0.50011 0.23914 0.0
C7 C 0.78708 0.5402 0.23937 0.0
C8 C 0.78294 0.53269 0.31406 0.0
C9 C 0.77209 0.54328 0.18374 0.0
C10 C 0.75258 0.53923 0.20437 0.0
C11 C 0.74808 0.53136 0.27803 0.0
C12 C 0.7633 0.528 0.33321 0.0
H13 H 0.02083 0.79946 0.20904 0.0
H14 H 0.01367 0.74099 0.1165 0.0
H15 H 1.00419 0.75209 0.36269 0.0
H16 H 0.0171 0.70517 0.32423 0.0
C17 C 0.01846 0.71046 0.26277 0.0
O18 O 1.00431 0.72479 0.2499 0.0
H19 H 0.03357 0.71665 0.25706 0.0
C20 C 0.01723 0.78405 0.21787 0.0
C21 C 0.01243 0.77752 0.29334 0.0
C22 C 0.01766 0.77106 0.15386 0.0
C23 C 0.01342 0.75112 0.16564 0.0
C24 C 1.00865 0.74416 0.24066 0.0
C25 C 1.00799 0.75742 0.30478 0.0
H26 H 0.73168 0.03541 0.2334 0.0
H27 H 0.78896 0.02208 0.14064 0.0
H28 H 0.76983 0.99559 0.35674 0.0
H29 H 0.81977 0.99689 0.33724 0.0
C30 C 0.81591 1.00552 0.28402 0.0
O31 O 0.79874 0.99793 0.25227 0.0
H32 H 0.81384 0.02102 0.30392 0.0
C33 C 0.74588 0.02831 0.23914 0.0
C34 C 0.74913 0.01584 0.30339 0.0
C35 C 0.76002 0.03075 0.1799 0.0
C36 C 0.77788 0.02053 0.18581 0.0
C37 C 0.78156 1.00806 0.24965 0.0
C38 C 0.76709 1.00552 0.30822 0.0
H39 H 0.48931 0.7273 0.26484 0.0
H40 H 0.49398 0.7854 0.16719 0.0
H41 H 0.5326 0.76757 0.35495 0.0
H42 H 0.52513 0.81633 0.34339 0.0
C43 C 0.51681 0.81376 0.28808 0.0
O44 O 0.52347 0.79638 0.25469 0.0
H45 H 0.50096 0.81263 0.30373 0.0
C46 C 0.49581 0.74189 0.26533 0.0
C47 C 0.51136 0.74568 0.31716 0.0
C48 C 0.48925 0.7561 0.21153 0.0
C49 C 0.49857 0.77449 0.20968 0.0
C50 C 0.51398 0.77886 0.26173 0.0
C51 C 0.52033 0.76445 0.31624 0.0
H52 H 0.23235 0.53702 0.15111 0.0
H53 H 0.2931 0.53647 0.2227 0.0
H54 H 0.27323 0.49855 0.03573 0.0
H55 H 0.31317 0.48099 0.12643 0.0
C56 C 0.31044 0.49349 0.16708 0.0
O57 O 0.3039 0.50943 0.12352 0.0
H58 H 0.29893 0.48837 0.20888 0.0
C59 C 0.24727 0.53171 0.14375 0.0
C60 C 0.25087 0.51724 0.08706 0.0
C61 C 0.26232 0.53896 0.19252 0.0
C62 C 0.28135 0.53129 0.18487 0.0
C63 C 0.28535 0.51671 0.1288 0.0
C64 C 0.27014 0.50983 0.07891 0.0
H65 H 0.02428 0.22012 0.18408 0.0
H66 H 0.02174 0.28066 0.25909 0.0
H67 H 0.02623 0.2666 0.01353 0.0
H68 H 0.04254 0.31324 0.06138 0.0
C69 C 0.03956 0.30777 0.12165 0.0
O70 O 0.02336 0.29543 0.11896 0.0
H71 H 0.05302 0.29965 0.14047 0.0
C72 C 0.02483 0.23572 0.1709 0.0
C73 C 0.026 0.24153 0.09212 0.0
C74 C 0.02324 0.2496 0.23197 0.0
C75 C 0.02298 0.26969 0.21318 0.0
C76 C 0.02425 0.27588 0.13495 0.0
C77 C 0.02558 0.26179 0.07408 0.0
H78 H 0.30453 1.00551 0.18483 0.0
H79 H 0.24404 1.00575 0.25773 0.0
H80 H 0.2588 0.01704 0.01614 0.0
H81 H 0.2154 0.0374 0.076 0.0
C82 C 0.2189 0.03051 0.13351 0.0
O83 O 0.2296 0.01349 0.11949 0.0
H84 H 0.2277 0.04134 0.16802 0.0
C85 C 0.28907 1.00759 0.17132 0.0
C86 C 0.28352 1.01163 0.09382 0.0
C87 C 0.27499 1.00552 0.23088 0.0
C88 C 0.25502 1.00743 0.2123 0.0
C89 C 0.2491 1.01187 0.13549 0.0
C90 C 0.26338 0.01396 0.07583 0.0
H91 H 0.51732 0.29622 0.20981 0.0
H92 H 0.51521 0.23402 0.25226 0.0
H93 H 0.51394 0.25583 0.01485 0.0
H94 H 0.49553 0.20619 0.04466 0.0
C95 C 0.498 0.21172 0.10529 0.0
O96 O 0.51443 0.22378 0.10518 0.0
H97 H 0.48452 0.22011 0.12142 0.0
C98 C 0.51676 0.28132 0.18696 0.0
C99 C 0.51598 0.27825 0.10546 0.0
C100 C 0.51632 0.26554 0.23988 0.0
C101 C 0.51523 0.24628 0.21159 0.0
C102 C 0.51432 0.2427 0.13076 0.0
C103 C 0.5144 0.25869 0.07739 0.0
Ho104 Ho 0.02636 1.00272 0.76601 0.0
Ho105 Ho 1.00518 0.01587 0.62782 0.0
C106 C 0.01256 0.96908 0.64913 0.0
C107 C 0.04238 0.99153 0.89524 0.0
C108 C 0.05344 0.97312 0.90761 0.0
C109 C 0.04686 0.95956 0.96365 0.0
C110 C 0.0535 0.94011 0.96183 0.0
C111 C 0.06687 0.93391 0.90387 0.0
C112 C 0.07462 0.94789 0.85184 0.0
C113 C 0.06797 0.96731 0.85365 0.0
C114 C 0.04915 1.00407 0.63517 0.0
C115 C 0.01899 0.04945 0.74378 0.0
C116 C 0.98992 0.02819 0.49921 0.0
C117 C 0.9817 0.04809 0.48836 0.0
C118 C 0.99079 0.06104 0.43572 0.0
C119 C 0.98766 0.08129 0.44188 0.0
C120 C 0.97529 0.08894 0.50064 0.0
C121 C 0.96493 0.07584 0.5489 0.0
C122 C 0.96807 0.05562 0.54279 0.0
C123 C 0.98251 0.0149 0.75882 0.0
O124 O 0.01715 0.97291 0.72283 0.0
O125 O 1.00937 0.98355 0.59875 0.0
O126 O 0.05049 1.0045 0.84882 0.0
O127 O 0.02367 0.98906 0.88024 0.0
O128 O 0.04957 0.99019 0.68685 0.0
O129 O 0.03675 0.01691 0.65566 0.0
O130 O 0.01535 0.04546 0.66949 0.0
O131 O 0.02122 0.035 0.79515 0.0
O132 O 0.98046 0.01662 0.54743 0.0
O133 O 1.00893 0.02784 0.51115 0.0
O134 O 0.98225 0.02876 0.70702 0.0
O135 O 0.99473 1.00183 0.73862 0.0
H136 H 0.03553 0.96364 0.00523 0.0
H137 H 0.04711 0.92967 1.00241 0.0
H138 H 0.08516 0.94362 0.80741 0.0
H139 H 0.07337 0.9774 0.80951 0.0
H140 H 1.00151 0.05564 0.39395 0.0
H141 H 0.99597 0.09099 0.404 0.0
H142 H 0.95501 0.08128 0.59359 0.0
H143 H 0.96079 0.04606 0.58442 0.0
Ho144 Ho 0.52162 0.0238 0.76356 0.0
Ho145 Ho 0.50864 1.00136 0.61436 0.0
C146 C 0.55466 1.01017 0.63219 0.0
C147 C 0.54109 0.03801 0.88026 0.0
C148 C 0.55994 0.04849 0.87662 0.0
C149 C 0.57271 0.04864 0.94113 0.0
C150 C 0.59171 0.05625 0.93334 0.0
C151 C 0.59823 0.06367 0.86067 0.0
C152 C 0.58508 0.06415 0.79706 0.0
C153 C 0.56611 0.05664 0.80499 0.0
C154 C 0.5094 0.04659 0.64207 0.0
C155 C 0.47691 1.0114 0.75276 0.0
C156 C 0.49052 0.9935 0.48614 0.0
C157 C 0.47212 0.98234 0.47815 0.0
C158 C 0.45747 0.98896 0.42671 0.0
C159 C 0.43834 0.98162 0.43265 0.0
C160 C 0.43358 0.96763 0.49058 0.0
C161 C 0.44855 0.96021 0.53892 0.0
C162 C 0.46764 0.9675 0.53274 0.0
C163 C 0.51286 0.97493 0.73422 0.0
O164 O 0.55068 0.01774 0.70229 0.0
O165 O 0.54064 1.00379 0.58445 0.0
O166 O 0.52623 0.04715 0.84793 0.0
O167 O 0.54193 0.01945 0.86008 0.0
O168 O 0.50558 0.05006 0.71522 0.0
O169 O 0.51992 0.03132 0.63702 0.0
O170 O 0.48017 1.00896 0.67662 0.0
O171 O 0.49153 0.01455 0.80275 0.0
O172 O 0.50596 0.9835 0.50969 0.0
O173 O 0.48846 1.01029 0.52318 0.0
O174 O 0.50824 0.97031 0.66287 0.0
O175 O 0.5155 0.99327 0.73625 0.0
H176 H 0.56825 0.04221 0.99649 0.0
H177 H 0.60162 0.0554 0.98312 0.0
H178 H 0.58964 0.06984 0.74057 0.0
H179 H 0.55647 0.05655 0.75422 0.0
H180 H 0.46053 1.00065 0.38527 0.0
H181 H 0.42704 0.98778 0.39511 0.0
H182 H 0.44535 0.94931 0.58344 0.0
H183 H 0.47861 0.96225 0.57371 0.0
Ho184 Ho 0.506 0.52078 0.79907 0.0
Ho185 Ho 0.52563 0.50684 0.6426 0.0
C186 C 0.51686 0.5526 0.65935 0.0
C187 C 0.49937 0.53781 0.93087 0.0
C188 C 0.48653 0.55477 0.94666 0.0
C189 C 0.49252 0.56937 0.99966 0.0
C190 C 0.48233 0.58722 0.0036 0.0
C191 C 0.46612 0.59076 0.95401 0.0
C192 C 0.4596 0.57573 0.90385 0.0
C193 C 0.46969 0.55789 0.90027 0.0
C194 C 0.47773 0.51548 0.68596 0.0
C195 C 0.51294 0.4745 0.77683 0.0
C196 C 0.53417 0.48616 0.52144 0.0
C197 C 0.52998 0.465 0.51021 0.0
C198 C 0.51051 0.45798 0.51075 0.0
C199 C 0.5067 0.4379 0.51933 0.0
C200 C 0.52223 0.42445 0.52807 0.0
C201 C 0.54169 0.43139 0.52303 0.0
C202 C 0.5455 0.45143 0.51367 0.0
C203 C 0.55053 0.51949 0.75671 0.0
O204 O 0.51342 0.54921 0.73499 0.0
O205 O 0.51999 0.53815 0.60858 0.0
O206 O 0.49049 0.52149 0.90957 0.0
O207 O 0.51474 0.54189 0.88742 0.0
O208 O 0.47418 0.52079 0.75741 0.0
O209 O 0.49601 0.5131 0.68097 0.0
O210 O 0.51678 0.47832 0.70206 0.0
O211 O 0.51013 0.48875 0.82878 0.0
O212 O 0.54694 0.49001 0.57698 0.0
O213 O 0.51897 0.49801 0.52334 0.0
O214 O 0.55309 0.52254 0.68207 0.0
O215 O 0.53518 0.50928 0.76651 0.0
H216 H 0.50561 0.56735 0.03513 0.0
H217 H 0.48783 0.59865 0.04223 0.0
H218 H 0.44706 0.57799 0.86556 0.0
H219 H 0.46478 0.54692 0.85866 0.0
H220 H 0.49816 0.46801 0.5084 0.0
H221 H 0.49155 0.433 0.52107 0.0
H222 H 0.55403 0.42148 0.53011 0.0
H223 H 0.56063 0.45645 0.51403 0.0
Ho224 Ho 1.01101 0.50079 0.75717 0.0
Ho225 Ho 0.02674 0.51929 0.60043 0.0
C226 C 0.98032 0.51599 0.61986 0.0
C227 C 0.98916 0.49305 0.87563 0.0
C228 C 0.96859 0.49931 0.8875 0.0
C229 C 0.96367 0.51942 0.88946 0.0
C230 C 0.94412 0.52537 0.88217 0.0
C231 C 0.92914 0.51136 0.8722 0.0
C232 C 0.93392 0.49125 0.87458 0.0
C233 C 0.95347 0.48529 0.88259 0.0
C234 C 0.02342 0.47509 0.64633 0.0
C235 C 0.05706 0.50852 0.74599 0.0
C236 C 0.04624 0.52372 0.47351 0.0
C237 C 0.06584 0.53305 0.46591 0.0
C238 C 0.08273 0.52298 0.49172 0.0
C239 C 0.10055 0.53285 0.50046 0.0
C240 C 0.10203 0.55297 0.48278 0.0
C241 C 0.08555 0.56281 0.45216 0.0
C242 C 0.06757 0.55295 0.44405 0.0
C243 C 0.02199 0.54799 0.71172 0.0
O244 O 0.9837 0.51244 0.69539 0.0
O245 O 0.99477 0.51717 0.56805 0.0
O246 O 0.99165 0.48071 0.81747 0.0
O247 O 1.00258 0.50691 0.87718 0.0
O248 O 0.02593 0.47265 0.72134 0.0
O249 O 0.01386 0.49076 0.63418 0.0
O250 O 0.05433 0.51167 0.66971 0.0
O251 O 0.0422 0.50576 0.79501 0.0
O252 O 0.03175 0.53552 0.49298 0.0
O253 O 0.04586 0.50703 0.51234 0.0
O254 O 0.02791 0.55128 0.64073 0.0
O255 O 0.01885 0.52981 0.71685 0.0
H256 H 0.97494 0.53066 0.89254 0.0
H257 H 0.94087 0.54097 0.88041 0.0
H258 H 0.92259 0.48014 0.8687 0.0
H259 H 0.95686 0.46971 0.88073 0.0
H260 H 0.08209 0.50762 0.50852 0.0
H261 H 0.11318 0.52475 0.52198 0.0
H262 H 0.08639 0.57828 0.43716 0.0
H263 H 0.05485 0.5611 0.4238 0.0
H264 H 0.20934 0.99921 0.23282 0.0
H265 H 0.17949 0.99498 0.31109 0.0
H266 H 0.15647 0.04937 0.21871 0.0
H267 H 0.18618 0.0535 0.13942 0.0
H268 H 0.16498 0.01857 0.42641 0.0
H269 H 0.10983 0.01327 0.18709 0.0
H270 H 0.13591 1.01119 0.16949 0.0
H271 H 0.12477 0.035 0.18194 0.0
C272 C 0.19782 1.01011 0.22805 0.0
C273 C 0.19997 0.02649 0.17815 0.0
C274 C 0.18074 1.00771 0.27315 0.0
C275 C 0.16545 0.02163 0.26982 0.0
C276 C 0.1677 0.03809 0.22078 0.0
H277 H 0.05552 0.03559 0.53643 0.0
H278 H 0.08346 0.0404 0.44663 0.0
C279 C 0.18474 0.04048 0.1756 0.0
C280 C 0.14765 0.01945 0.32055 0.0
H281 H 0.09736 0.01663 0.31677 0.0
C282 C 0.15022 0.01805 0.40224 0.0
C283 C 0.1283 0.01891 0.28941 0.0
C284 C 0.12448 0.01948 0.20215 0.0
C285 C 0.1341 0.01629 0.4534 0.0
C286 C 0.11477 0.01562 0.42227 0.0
C287 C 0.11214 0.01721 0.34071 0.0
C288 C 0.09727 1.0125 0.47353 0.0
C289 C 0.13788 0.01545 0.54067 0.0
C290 C 0.09543 0.99504 0.51689 0.0
C291 C 0.07954 0.99227 0.56772 0.0
C292 C 0.06504 1.00686 0.57644 0.0
C293 C 0.0665 0.02411 0.53122 0.0
C294 C 0.08245 0.02687 0.47996 0.0
H295 H 0.15264 0.02133 0.5561 0.0
H296 H 0.12659 0.02391 0.57344 0.0
H297 H 0.13721 0.9999 0.56041 0.0
H298 H 0.1064 0.98357 0.51185 0.0
H299 H 0.07879 0.97873 0.60116 0.0
H300 H 0.48432 0.20729 0.25624 0.0
H301 H 0.48714 0.17847 0.34249 0.0
H302 H 0.52076 0.14832 0.16496 0.0
H303 H 0.51809 0.17723 0.07903 0.0
H304 H 0.47348 0.14055 0.31326 0.0
H305 H 0.55423 0.13943 0.36072 0.0
H306 H 0.54157 0.16058 0.32116 0.0
H307 H 0.54684 0.13978 0.25944 0.0
C308 C 0.49245 0.19456 0.23601 0.0
C309 C 0.50085 0.19443 0.16066 0.0
C310 C 0.49403 0.17808 0.28524 0.0
C311 C 0.50428 0.16118 0.26073 0.0
C312 C 0.51305 0.16122 0.186 0.0
H313 H 0.52464 0.04676 0.4922 0.0
H314 H 0.52287 0.07358 0.39529 0.0
C315 C 0.51144 0.1777 0.13671 0.0
C316 C 0.505 0.1433 0.31198 0.0
H317 H 0.53625 0.11219 0.40939 0.0
C318 C 0.48722 0.1344 0.33434 0.0
C319 C 0.52291 0.13507 0.33916 0.0
C320 C 0.54248 0.14427 0.31958 0.0
C321 C 0.48684 0.11757 0.38262 0.0
C322 C 0.50472 0.10954 0.411 0.0
C323 C 0.52253 0.11825 0.38768 0.0
C324 C 0.50519 0.09278 0.46802 0.0
C325 C 0.46723 0.1084 0.40185 0.0
C326 C 0.49592 0.09455 0.54128 0.0
C327 C 0.49687 0.07929 0.59634 0.0
C328 C 0.50726 0.06186 0.57998 0.0
C329 C 0.51642 0.05995 0.50641 0.0
C330 C 0.51549 0.07531 0.45115 0.0
H331 H 0.4559 0.11223 0.35732 0.0
H332 H 0.46835 0.09212 0.40553 0.0
H333 H 0.46213 0.11404 0.45947 0.0
H334 H 0.48825 0.10797 0.55672 0.0
H335 H 0.48975 0.08131 0.65258 0.0
H336 H 0.314 0.5086 0.31615 0.0
H337 H 0.34405 0.51296 0.39463 0.0
H338 H 0.37893 0.4934 0.19846 0.0
H339 H 0.34889 0.48918 0.11985 0.0
H340 H 0.37046 0.48289 0.43323 0.0
H341 H 0.40897 0.5424 0.27152 0.0
H342 H 0.38314 0.53722 0.25769 0.0
H343 H 0.40136 0.52181 0.21253 0.0
C344 C 0.32812 0.50552 0.28955 0.0
C345 C 0.3291 0.49838 0.21217 0.0
C346 C 0.34529 0.50796 0.33442 0.0
C347 C 0.36386 0.5036 0.3026 0.0
C348 C 0.36489 0.49716 0.22422 0.0
H349 H 0.4814 0.50368 0.53037 0.0
H350 H 0.4547 0.4997 0.43329 0.0
C351 C 0.3477 0.49467 0.17938 0.0
C352 C 0.38187 0.50453 0.35318 0.0
H353 H 0.42653 0.52724 0.37545 0.0
C354 C 0.38269 0.49262 0.42047 0.0
C355 C 0.39803 0.517 0.33627 0.0
C356 C 0.39787 0.53047 0.26597 0.0
C357 C 0.39904 0.4929 0.47132 0.0
C358 C 0.41496 0.50577 0.45582 0.0
C359 C 0.41439 0.51736 0.3875 0.0
C360 C 0.43151 0.50836 0.51299 0.0
C361 C 0.39913 0.47924 0.54114 0.0
C362 C 0.42751 0.51487 0.58949 0.0
C363 C 0.44264 0.51706 0.64451 0.0
C364 C 0.46228 0.51297 0.62466 0.0
C365 C 0.46645 0.50681 0.54762 0.0
C366 C 0.45119 0.50459 0.49213 0.0
H367 H 0.38935 0.46635 0.53144 0.0
H368 H 0.4142 0.47383 0.55411 0.0
H369 H 0.39366 0.48728 0.59342 0.0
H370 H 0.41259 0.51834 0.60681 0.0
H371 H 0.43887 0.52202 0.70303 0.0
H372 H 0.04894 0.31099 0.27828 0.0
H373 H 0.0454 0.33978 0.36451 0.0
H374 H 0.01878 0.37218 0.17441 0.0
H375 H 0.02215 0.34333 0.0885 0.0
H376 H 0.06211 0.37679 0.34348 0.0
H377 H 0.98082 0.38291 0.35428 0.0
H378 H 0.99316 0.36105 0.31966 0.0
H379 H 0.99077 0.38215 0.25678 0.0
C380 C 0.04216 0.32421 0.25529 0.0
C381 C 0.03599 0.325 0.17651 0.0
C382 C 0.04018 0.34067 0.30448 0.0
C383 C 0.03171 0.35819 0.27636 0.0
C384 C 0.02507 0.35881 0.1981 0.0
H385 H 0.01238 0.47438 0.49089 0.0
H386 H 0.01513 0.44671 0.39836 0.0
C387 C 0.02708 0.34235 0.14888 0.0
C388 C 0.03071 0.37604 0.32773 0.0
H389 H 0.99901 0.40928 0.40991 0.0
C390 C 0.04829 0.38384 0.35819 0.0
C391 C 0.01272 0.3854 0.34664 0.0
C392 C 0.99326 0.37739 0.3183 0.0
C393 C 0.04841 0.40074 0.40619 0.0
C394 C 0.03041 0.40997 0.42589 0.0
C395 C 0.01283 0.40229 0.39483 0.0
C396 C 0.02944 0.42714 0.48084 0.0
C397 C 0.06791 0.40874 0.43418 0.0
C398 C 0.03652 0.42545 0.55813 0.0
C399 C 0.03502 0.44123 0.61081 0.0
C400 C 0.02625 0.45907 0.58782 0.0
C401 C 0.01929 0.46087 0.5103 0.0
C402 C 0.02079 0.44503 0.45748 0.0
H403 H 0.08017 0.40389 0.39576 0.0
H404 H 0.06778 0.42508 0.43618 0.0
H405 H 0.07091 0.40318 0.49426 0.0
H406 H 0.04287 0.41175 0.57838 0.0
H407 H 0.04041 0.4393 0.6702 0.0
H408 H 0.82758 0.03375 0.17855 0.0
H409 H 0.85616 0.03324 0.09068 0.0
H410 H 0.8704 0.97466 0.16968 0.0
H411 H 0.84172 0.97512 0.25706 0.0
H412 H 0.89548 0.02905 0.13634 0.0
H413 H 0.87411 0.96918 0.93097 0.0
H414 H 0.85664 0.98112 0.99489 0.0
H415 H 0.87306 0.96275 0.03315 0.0
C416 C 0.83672 0.02071 0.17645 0.0
C417 C 0.83258 1.00456 0.22519 0.0
C418 C 0.85306 0.02043 0.12638 0.0
C419 C 0.86545 1.00388 0.12305 0.0
C420 C 0.86097 0.98749 0.17014 0.0
H421 H 0.97452 0.98307 0.85434 0.0
H422 H 0.94706 0.97965 0.94752 0.0
C423 C 0.84464 0.98779 0.22036 0.0
C424 C 0.88355 1.00425 0.07352 0.0
H425 H 0.90639 0.98185 0.9184 0.0
C426 C 0.89783 0.01873 0.08865 0.0
C427 C 0.8868 0.99066 0.01172 0.0
C428 C 0.8718 0.97513 0.99103 0.0
C429 C 0.91514 0.02004 0.04388 0.0
C430 C 0.9182 1.00676 0.98089 0.0
C431 C 0.90412 0.99201 0.96666 0.0
C432 C 0.93526 1.00876 0.92632 0.0
C433 C 0.93012 0.03556 0.0651 0.0
C434 C 0.93775 0.02615 0.88302 0.0
C435 C 0.95334 0.02811 0.83025 0.0
C436 C 0.96682 0.01268 0.81876 0.0
C437 C 0.96444 0.99524 0.86218 0.0
C438 C 0.94872 0.99326 0.91518 0.0
H439 H 0.92872 0.04019 0.12742 0.0
H440 H 0.94533 0.0302 0.05518 0.0
H441 H 0.92771 0.04874 0.02787 0.0
H442 H 0.9274 0.03816 0.88907 0.0
H443 H 0.95468 0.04171 0.79752 0.0
H444 H 0.50412 0.81721 0.13471 0.0
H445 H 0.50526 0.84614 0.0492 0.0
H446 H 0.53462 0.87894 0.23191 0.0
H447 H 0.53378 0.84988 0.31708 0.0
H448 H 0.48825 0.882 0.07351 0.0
H449 H 0.56893 0.89177 0.04434 0.0
H450 H 0.55812 0.86948 0.08237 0.0
H451 H 0.56033 0.89089 0.14384 0.0
C452 C 0.51118 0.83044 0.15611 0.0
C453 C 0.51922 0.83105 0.23221 0.0
C454 C 0.51173 0.84705 0.10728 0.0
C455 C 0.52031 0.86475 0.13331 0.0
C456 C 0.52837 0.8654 0.20938 0.0
H457 H 0.52472 0.98051 0.88893 0.0
H458 H 0.52673 0.95516 0.99279 0.0
C459 C 0.52783 0.84876 0.2582 0.0
C460 C 0.51983 0.88268 0.08222 0.0
H461 H 0.54882 0.91664 0.98898 0.0
C462 C 0.50152 0.88955 0.05529 0.0
C463 C 0.5371 0.89276 0.05865 0.0
C464 C 0.55726 0.8858 0.08312 0.0
C465 C 0.50003 0.90593 0.00512 0.0
C466 C 0.51729 0.91572 0.9801 0.0
C467 C 0.53558 0.90924 0.00853 0.0
C468 C 0.51662 0.93133 0.91847 0.0
C469 C 0.47992 0.91261 0.9787 0.0
C470 C 0.51058 0.92635 0.84226 0.0
C471 C 0.50955 0.94063 0.78347 0.0
C472 C 0.51453 0.96036 0.79903 0.0
C473 C 0.52077 0.96545 0.87522 0.0
C474 C 0.52193 0.95098 0.93442 0.0
H475 H 0.46819 0.90718 0.01848 0.0
H476 H 0.47912 0.92892 0.97588 0.0
H477 H 0.47694 0.90672 0.91904 0.0
H478 H 0.50665 0.9113 0.82809 0.0
H479 H 0.50472 0.93616 0.72547 0.0
H480 H 0.71783 0.51702 0.11371 0.0
H481 H 0.68852 0.52142 0.03141 0.0
H482 H 0.65171 0.5148 0.23559 0.0
H483 H 0.68106 0.51127 0.31819 0.0
H484 H 0.65999 0.49626 1.00133 0.0
H485 H 0.62609 0.56173 0.13929 0.0
H486 H 0.65084 0.554 0.16185 0.0
H487 H 0.63018 0.54223 0.20825 0.0
C488 C 0.70349 0.51696 0.14116 0.0
C489 C 0.70176 0.5139 0.22247 0.0
C490 C 0.6867 0.51933 0.09402 0.0
C491 C 0.66775 0.51873 0.12698 0.0
C492 C 0.66606 0.51588 0.20853 0.0
H493 H 0.55037 0.50912 0.91284 0.0
H494 H 0.57837 0.50947 0.00479 0.0
C495 C 0.68286 0.5137 0.25579 0.0
C496 C 0.64987 0.51988 0.07539 0.0
H497 H 0.60605 0.54392 0.04839 0.0
C498 C 0.6483 0.5068 0.01157 0.0
C499 C 0.63444 0.53356 0.0883 0.0
C500 C 0.63552 0.5488 0.15265 0.0
C501 C 0.63183 0.50688 0.96133 0.0
C502 C 0.6164 0.52043 0.97466 0.0
C503 C 0.61782 0.53345 0.03848 0.0
C504 C 0.599 0.52154 0.9212 0.0
C505 C 0.6309 0.49231 0.89451 0.0
C506 C 0.60114 0.52864 0.84434 0.0
C507 C 0.58519 0.5286 0.7921 0.0
C508 C 0.56671 0.52134 0.81532 0.0
C509 C 0.56441 0.51478 0.89312 0.0
C510 C 0.58039 0.51496 0.94568 0.0
H511 H 0.64212 0.48052 0.90054 0.0
H512 H 0.61611 0.48543 0.89113 0.0
H513 H 0.63354 0.50014 0.83834 0.0
H514 H 0.61528 0.53396 0.82431 0.0
H515 H 0.58748 0.53382 0.73275 0.0
H516 H 1.00181 0.67401 0.28808 0.0
H517 H 1.0011 0.64552 0.1992 0.0
H518 H 0.0287 0.68034 0.01886 0.0
H519 H 0.02998 0.70859 0.1085 0.0
H520 H 0.98472 0.63814 0.05632 0.0
H521 H 0.06575 0.63417 0.03094 0.0
H522 H 0.05372 0.64958 0.10247 0.0
H523 H 0.0562 0.6577 1.00238 0.0
C524 C 1.00765 0.67556 0.22933 0.0
C525 C 0.01616 0.69347 0.20551 0.0
C526 C 1.00723 0.65928 0.17851 0.0
C527 C 0.01529 0.66054 0.10271 0.0
C528 C 0.0229 0.67874 0.07765 0.0
H529 H 0.03001 0.58677 0.69653 0.0
H530 H 0.02752 0.61278 0.79488 0.0
C531 C 0.02343 0.69497 0.12858 0.0
C532 C 0.016 0.64282 0.05038 0.0
H533 H 0.04733 0.6145 0.94124 0.0
C534 C 0.99844 0.63288 0.03171 0.0
C535 C 0.0339 0.63572 0.01867 0.0
C536 C 0.05348 0.64471 0.04023 0.0
C537 C 0.99823 0.61662 0.98004 0.0
C538 C 0.01606 0.60996 0.94655 0.0
C539 C 0.03363 0.61963 0.96654 0.0
C540 C 0.01679 0.59378 0.88709 0.0
C541 C 0.97885 0.60709 0.95952 0.0
C542 C 1.01166 0.57426 0.90589 0.0
C543 C 0.01317 0.55921 0.84932 0.0
C544 C 0.01979 0.56343 0.77306 0.0
C545 C 0.02481 0.58298 0.75465 0.0
C546 C 0.02341 0.59791 0.81093 0.0
H547 H 0.96613 0.61611 0.97883 0.0
H548 H 0.97771 0.60462 0.8952 0.0
H549 H 0.97791 0.59254 0.98882 0.0
H550 H 1.00681 0.57061 0.96459 0.0
H551 H 1.00934 0.54432 0.86539 0.0
H552 H 0.04082 0.21838 0.3048 0.0
H553 H 0.02866 0.20115 0.41915 0.0
H554 H 0.98841 0.2488 0.46634 0.0
H555 H 0.9991 0.26522 0.34621 0.0
H556 H 0.02196 0.20262 0.56979 0.0
H557 H 0.94904 0.20821 0.41924 0.0
H558 H 0.9707 0.21796 0.3733 0.0
H559 H 0.96013 0.2302 0.45706 0.0
C560 C 0.02939 0.22527 0.33945 0.0
C561 C 0.02022 0.24265 0.31389 0.0
C562 C 0.02264 0.21554 0.40596 0.0
C563 C 1.00691 0.22321 0.44964 0.0
C564 C 0.9999 0.24212 0.43151 0.0
H565 H 0.97547 0.10823 0.64245 0.0
H566 H 0.97787 0.14378 0.66489 0.0
C567 C 1.00626 0.25164 0.36321 0.0
C568 C 0.99607 0.20957 0.50235 0.0
H569 H 0.95528 0.18045 0.49234 0.0
C570 C 1.00713 0.19803 0.5549 0.0
C571 C 0.97643 0.20394 0.48508 0.0
C572 C 0.96333 0.21563 0.43062 0.0
C573 C 1.00054 0.17936 0.57852 0.0
C574 C 0.98213 0.17254 0.55075 0.0
C575 C 0.96963 0.18563 0.51131 0.0
C576 C 0.97803 0.15125 0.54135 0.0
C577 C 0.01423 0.1663 0.62503 0.0
C578 C 0.9764 0.14371 0.46473 0.0
C579 C 0.97458 0.12357 0.4518 0.0
C580 C 0.97453 0.11044 0.5152 0.0
C581 C 0.97532 0.11801 0.59228 0.0
C582 C 0.97696 0.1383 0.60529 0.0
H583 H 0.0285 0.17359 0.63806 0.0
H584 H 1.00725 0.16232 0.68164 0.0
H585 H 0.01718 0.15248 0.59232 0.0
H586 H 0.9772 0.1534 0.41433 0.0
H587 H 0.97368 0.11826 0.39192 0.0
H588 H 0.26073 0.97668 0.3277 0.0
H589 H 0.2768 0.96378 0.44596 0.0
H590 H 0.32066 1.00959 0.42908 0.0
H591 H 0.30424 0.02281 0.31448 0.0
H592 H 0.3098 0.94746 0.43665 0.0
H593 H 0.32177 1.00383 0.65776 0.0
H594 H 0.3023 1.00635 0.58596 0.0
H595 H 0.32659 0.01618 0.5673 0.0
C596 C 0.2733 0.98444 0.35164 0.0
C597 C 0.28151 1.00051 0.31137 0.0
C598 C 0.28248 0.97707 0.41917 0.0
C599 C 0.29992 0.98572 0.44729 0.0
C600 C 0.30697 1.00285 0.41066 0.0
H601 H 0.40545 0.95887 0.38193 0.0
H602 H 0.37029 0.95594 0.40367 0.0
C603 C 0.29779 1.01024 0.34386 0.0
C604 C 0.3134 0.97479 0.50031 0.0
H605 H 0.35337 0.98634 0.61138 0.0
C606 C 0.31885 0.95565 0.47777 0.0
C607 C 0.32484 0.98468 0.55751 0.0
C608 C 0.31831 1.0038 0.59397 0.0
C609 C 0.33728 0.94802 0.49849 0.0
C610 C 0.35059 0.9601 0.54034 0.0
C611 C 0.34357 0.97739 0.57587 0.0
C612 C 0.37213 0.95788 0.5307 0.0
C613 C 0.34295 0.92788 0.46909 0.0
C614 C 0.38501 0.96014 0.59457 0.0
C615 C 0.40521 0.96224 0.58184 0.0
C616 C 0.4128 0.96226 0.50498 0.0
C617 C 0.4 0.95902 0.44164 0.0
C618 C 0.37989 0.95698 0.45432 0.0
H619 H 0.33033 0.91759 0.47444 0.0
H620 H 0.34675 0.92877 0.40585 0.0
H621 H 0.35568 0.92177 0.50197 0.0
H622 H 0.37936 0.9612 0.65383 0.0
H623 H 0.41471 0.96499 0.63181 0.0
H624 H 0.54435 0.28513 0.3207 0.0
H625 H 0.54028 0.30101 0.44721 0.0
H626 H 0.48425 0.27202 0.47655 0.0
H627 H 0.48838 0.25616 0.34802 0.0
H628 H 0.47959 0.30975 0.47043 0.0
H629 H 0.53928 0.29906 0.68011 0.0
H630 H 0.55067 0.30042 0.58575 0.0
H631 H 0.53356 0.28072 0.60638 0.0
C632 C 0.5316 0.28148 0.35584 0.0
C633 C 0.51656 0.26972 0.32476 0.0
C634 C 0.52935 0.29035 0.42891 0.0
C635 C 0.51197 0.28766 0.47215 0.0
C636 C 0.49785 0.27418 0.44467 0.0
H637 H 0.49363 0.40876 0.62315 0.0
H638 H 0.48709 0.37388 0.64897 0.0
C639 C 0.50017 0.26517 0.37131 0.0
C640 C 0.50669 0.30295 0.53057 0.0
H641 H 0.53188 0.33511 0.64655 0.0
C642 C 0.49047 0.31492 0.5123 0.0
C643 C 0.52045 0.30956 0.58705 0.0
C644 C 0.53681 0.29655 0.61638 0.0
C645 C 0.48987 0.33463 0.53643 0.0
C646 C 0.50577 0.34225 0.58051 0.0
C647 C 0.51999 0.32933 0.61074 0.0
C648 C 0.51076 0.36336 0.57557 0.0
C649 C 0.47374 0.34778 0.50544 0.0
C650 C 0.52635 0.36891 0.52663 0.0
C651 C 0.53005 0.38869 0.51133 0.0
C652 C 0.51823 0.40339 0.54484 0.0
C653 C 0.50278 0.39779 0.59515 0.0
C654 C 0.49914 0.3779 0.61078 0.0
H655 H 0.46238 0.33942 0.47234 0.0
H656 H 0.46648 0.35548 0.55495 0.0
H657 H 0.48008 0.35912 0.46601 0.0
H658 H 0.53529 0.35785 0.49788 0.0
H659 H 0.54185 0.39241 0.47145 0.0
H660 H 0.27433 0.53904 0.34697 0.0
H661 H 0.25682 0.55493 0.45521 0.0
H662 H 0.21996 0.58532 0.28815 0.0
H663 H 0.23857 0.57113 0.18086 0.0
H664 H 0.21892 0.60423 0.42276 0.0
H665 H 0.20811 0.52403 0.4828 0.0
H666 H 0.23216 0.53398 0.49901 0.0
H667 H 0.22248 0.53212 0.40065 0.0
C668 C 0.26316 0.54988 0.33347 0.0
C669 C 0.25713 0.55314 0.2555 0.0
C670 C 0.25297 0.55877 0.39546 0.0
C671 C 0.23627 0.57033 0.37981 0.0
C672 C 0.23245 0.57606 0.3021 0.0
H673 H 0.12124 0.57717 0.38082 0.0
H674 H 0.15546 0.58771 0.38946 0.0
C675 C 0.24296 0.56771 0.2405 0.0
C676 C 0.22028 0.57276 0.43825 0.0
H677 H 0.18376 0.54527 0.52025 0.0
C678 C 0.2115 0.5914 0.44629 0.0
C679 C 0.21059 0.55605 0.47004 0.0
C680 C 0.21869 0.53541 0.46265 0.0
C681 C 0.1924 0.59344 0.47648 0.0
C682 C 0.18199 0.57644 0.49973 0.0
C683 C 0.19174 0.55828 0.50164 0.0
C684 C 0.16028 0.57596 0.50621 0.0
C685 C 0.18311 0.61356 0.47858 0.0
C686 C 0.15138 0.56631 0.56968 0.0
C687 C 0.1319 0.55998 0.56415 0.0
C688 C 0.12099 0.56324 0.4951 0.0
C689 C 0.12929 0.57452 0.43472 0.0
C690 C 0.14883 0.58074 0.44006 0.0
H691 H 0.19434 0.62507 0.49038 0.0
H692 H 0.17644 0.61677 0.42045 0.0
H693 H 0.17146 0.61448 0.52399 0.0
H694 H 0.15995 0.56235 0.62101 0.0
H695 H 0.12569 0.55159 0.61215 0.0
H696 H 1.00184 0.80234 0.07865 0.0
H697 H 0.0163 0.82046 0.97077 0.0
H698 H 0.06061 0.77543 0.94418 0.0
H699 H 0.04628 0.75743 0.05517 0.0
H700 H 0.07771 0.80819 0.96733 0.0
H701 H 0.02329 0.82441 0.74195 0.0
H702 H 1.01076 0.82863 0.83251 0.0
H703 H 0.01975 0.80423 0.80954 0.0
C704 C 0.01427 0.79599 0.04809 0.0
C705 C 0.02316 0.77871 0.07577 0.0
C706 C 0.02241 0.80621 0.98537 0.0
C707 C 0.03951 0.79928 0.94834 0.0
C708 C 0.04736 0.78102 0.97138 0.0
H709 H 0.06832 0.91348 0.76545 0.0
H710 H 0.06932 0.87778 0.74838 0.0
C711 C 0.03917 0.77074 0.03463 0.0
C712 C 0.05115 0.81332 0.90048 0.0
H713 H 0.04226 0.85442 0.79224 0.0
C714 C 0.07025 0.81787 0.92635 0.0
C715 C 0.04209 0.82562 0.84406 0.0
C716 C 0.02292 0.82022 0.80497 0.0
C717 C 0.07892 0.83601 0.9081 0.0
C718 C 0.06792 0.85003 0.86525 0.0
C719 C 0.05043 0.84406 0.82811 0.0
C720 C 0.07187 0.87143 0.87249 0.0
C721 C 0.09915 0.84048 0.93991 0.0
C722 C 0.07341 0.87983 0.94777 0.0
C723 C 0.0731 0.90019 0.95764 0.0
C724 C 0.0709 0.91264 0.89256 0.0
C725 C 0.07033 0.9043 0.81681 0.0
C726 C 0.07079 0.88388 0.8069 0.0
H727 H 0.10865 0.82722 0.93607 0.0
H728 H 0.10629 0.85273 0.90764 0.0
H729 H 0.09803 0.84448 0.00294 0.0
H730 H 0.07361 0.87065 0.99969 0.0
H731 H 0.07369 0.90616 0.0166 0.0
H732 H 0.74022 0.06569 0.17356 0.0
H733 H 0.72194 0.07802 0.06136 0.0
H734 H 0.75118 0.03616 0.91101 0.0
H735 H 0.76816 0.02239 0.02508 0.0
H736 H 0.72322 0.09207 0.91739 0.0
H737 H 0.69738 0.01402 0.90345 0.0
H738 H 0.71387 0.0222 0.97936 0.0
H739 H 0.7227 0.01846 0.88084 0.0
C740 C 0.74294 0.05921 0.11648 0.0
C741 C 0.75484 0.0424 0.10898 0.0
C742 C 0.73266 0.06647 0.05193 0.0
C743 C 0.73446 0.05737 0.97827 0.0
C744 C 0.74889 0.04281 0.96803 0.0
H745 H 0.62206 0.05373 0.73822 0.0
H746 H 0.65785 0.05658 0.73281 0.0
C747 C 0.75881 0.03511 0.03328 0.0
C748 C 0.71866 0.06066 0.9194 0.0
H749 H 0.67754 0.03778 0.84918 0.0
C750 C 0.71348 0.08014 0.90049 0.0
C751 C 0.70595 0.04507 0.89642 0.0
C752 C 0.71011 0.02378 0.91621 0.0
C753 C 0.6951 0.08457 0.86719 0.0
C754 C 0.68173 0.06913 0.85191 0.0
C755 C 0.68784 0.04959 0.86155 0.0
C756 C 0.66038 0.07255 0.84231 0.0
C757 C 0.68967 0.10578 0.8532 0.0
C758 C 0.64988 0.08107 0.90459 0.0
C759 C 0.62946 0.07931 0.9082 0.0
C760 C 0.61918 0.06899 0.84959 0.0
C761 C 0.62956 0.06184 0.78413 0.0
C762 C 0.65002 0.0635 0.78077 0.0
H763 H 0.70289 0.1147 0.83917 0.0
H764 H 0.67884 0.10722 0.80462 0.0
H765 H 0.68305 0.11193 0.90742 0.0
H766 H 0.65757 0.08772 0.95365 0.0
H767 H 0.62181 0.08515 0.95883 0.0
H768 H 0.48931 0.76353 0.05318 0.0
H769 H 0.47101 0.74505 0.95412 0.0
H770 H 0.43854 0.7159 0.13808 0.0
H771 H 0.45547 0.73545 0.23564 0.0
H772 H 0.47924 0.71 0.94654 0.0
H773 H 0.39965 0.70823 0.97428 0.0
H774 H 0.41368 0.72841 0.01497 0.0
H775 H 0.40837 0.70675 0.07309 0.0
C776 C 0.47745 0.75402 0.07208 0.0
C777 C 0.47424 0.75043 0.15229 0.0
C778 C 0.46701 0.74337 0.01528 0.0
C779 C 0.4535 0.72876 0.03801 0.0
C780 C 0.44856 0.72717 0.11784 0.0
H781 H 0.4558 0.61494 0.0752 0.0
H782 H 0.44699 0.64978 0.06681 0.0
C783 C 0.45861 0.73812 0.17423 0.0
C784 C 0.44905 0.71191 0.98498 0.0
H785 H 0.41609 0.67416 0.97145 0.0
C786 C 0.46512 0.70262 0.94867 0.0
C787 C 0.43064 0.70216 0.98574 0.0
C788 C 0.41213 0.71214 0.0135 0.0
C789 C 0.46407 0.68294 0.92468 0.0
C790 C 0.44651 0.67233 0.93745 0.0
C791 C 0.42969 0.68226 0.96367 0.0
C792 C 0.44692 0.65063 0.9398 0.0
C793 C 0.48239 0.67301 0.89412 0.0
C794 C 0.44915 0.63953 0.87106 0.0
C795 C 0.4543 0.61965 0.87575 0.0
C796 C 0.45734 0.61068 0.94931 0.0
C797 C 0.45377 0.62155 0.01789 0.0
C798 C 0.44854 0.64136 0.01311 0.0
H799 H 0.49498 0.68335 0.88903 0.0
H800 H 0.48671 0.66078 0.93382 0.0
H801 H 0.47942 0.66662 0.83529 0.0
H802 H 0.44807 0.64651 0.81405 0.0
H803 H 0.4571 0.61165 0.82187 0.0
H804 H 0.79894 0.57046 0.13454 0.0
H805 H 0.8156 0.57017 0.00904 0.0
H806 H 0.7736 0.52795 0.92012 0.0
H807 H 0.75752 0.52735 0.04792 0.0
H808 H 0.80717 0.51227 0.92295 0.0
H809 H 0.81972 0.58349 0.78494 0.0
H810 H 0.8236 0.58739 0.88763 0.0
H811 H 0.79962 0.57983 0.85267 0.0
C812 C 0.79286 0.56159 0.08747 0.0
C813 C 0.77738 0.54843 0.10188 0.0
C814 C 0.80219 0.56172 0.01475 0.0
C815 C 0.79597 0.54893 0.95465 0.0
C816 C 0.77871 0.5379 0.96554 0.0
H817 H 0.9032 0.49697 0.76323 0.0
H818 H 0.86879 0.5066 0.74427 0.0
C819 C 0.76951 0.53758 0.03881 0.0
C820 C 0.81047 0.54301 0.89409 0.0
H821 H 0.85049 0.56245 0.80263 0.0
C822 C 0.81619 0.52313 0.89342 0.0
C823 C 0.8221 0.55696 0.85386 0.0
C824 C 0.81571 0.57805 0.84428 0.0
C825 C 0.83472 0.51746 0.86595 0.0
C826 C 0.84765 0.53207 0.8372 0.0
C827 C 0.84073 0.55136 0.82661 0.0
C828 C 0.8691 0.5286 0.83607 0.0
C829 C 0.84114 0.49635 0.87694 0.0
C830 C 0.88083 0.53835 0.89178 0.0
C831 C 0.90043 0.53301 0.90241 0.0
C832 C 0.90864 0.51772 0.85779 0.0
C833 C 0.8971 0.5085 0.79973 0.0
C834 C 0.87752 0.51407 0.78832 0.0
H835 H 0.82974 0.48726 0.90631 0.0
H836 H 0.84425 0.48964 0.81887 0.0
H837 H 0.85481 0.4957 0.91264 0.0
H838 H 0.87456 0.54949 0.92976 0.0
H839 H 0.90894 0.54032 0.94772 0.0
H840 H 0.05457 0.21405 0.07211 0.0
H841 H 0.05278 0.18382 0.99388 0.0
H842 H 0.99654 0.20195 0.90186 0.0
H843 H 0.99845 0.23244 0.97996 0.0
H844 H 0.99699 0.16357 0.97225 0.0
H845 H 0.05712 0.17145 0.75555 0.0
H846 H 0.06406 0.17755 0.85454 0.0
H847 H 0.04603 0.19228 0.80447 0.0
C848 C 0.04215 0.2119 0.03307 0.0
C849 C 0.02681 0.22577 0.03112 0.0
C850 C 0.04111 0.19458 0.98844 0.0
C851 C 0.0246 0.19058 0.94129 0.0
C852 C 1.00951 0.20473 0.93723 0.0
H853 H 0.01467 0.08283 0.65399 0.0
H854 H 0.01496 0.11721 0.69736 0.0
C855 C 1.01068 0.22224 0.98125 0.0
C856 C 0.02239 0.17086 0.90301 0.0
H857 H 0.04472 0.13895 0.7756 0.0
C858 C 1.00731 0.15828 0.92865 0.0
C859 C 0.03569 0.16392 0.84545 0.0
C860 C 0.05155 0.17703 0.81266 0.0
C861 C 1.0057 0.13878 0.90089 0.0
C862 C 0.01966 0.13149 0.84659 0.0
C863 C 0.0342 0.14435 0.81819 0.0
C864 C 0.01964 0.11047 0.82005 0.0
C865 C 0.98903 0.12613 0.9301 0.0
C866 C 0.02244 0.0951 0.87422 0.0
C867 C 0.0224 0.07537 0.8496 0.0
C868 C 0.01959 0.07047 0.77002 0.0
C869 C 0.01694 0.08594 0.71574 0.0
C870 C 0.01708 0.10567 0.74042 0.0
H871 H 0.97683 0.13517 0.95407 0.0
H872 H 0.98315 0.11664 0.88236 0.0
H873 H 0.9945 0.11645 0.97782 0.0
H874 H 0.02477 0.09838 0.93578 0.0
H875 H 0.02451 0.06395 0.89311 0.0
H876 H 0.29898 0.98116 0.01113 0.0
H877 H 0.33048 0.98077 0.94084 0.0
H878 H 0.33654 0.04322 0.97878 0.0
H879 H 0.30496 0.04359 0.04881 0.0
H880 H 0.34972 0.03006 0.82624 0.0
H881 H 0.38186 0.98622 0.06986 0.0
H882 H 0.36036 0.97572 0.02481 0.0
H883 H 0.35842 0.99849 0.07794 0.0
C884 C 0.30672 0.9949 1.00188 0.0
C885 C 0.29935 1.01248 0.03388 0.0
C886 C 0.32485 0.99464 0.96269 0.0
C887 C 0.33609 1.01191 0.95543 0.0
C888 C 0.32819 0.0297 0.98352 0.0
H889 H 0.46296 0.02149 0.89888 0.0
H890 H 0.42883 0.02162 0.94424 0.0
C891 C 0.31006 0.02995 0.02293 0.0
C892 C 0.3566 1.01122 0.92388 0.0
H893 H 0.40244 0.9926 0.96148 0.0
C894 C 0.36125 0.02184 0.85565 0.0
C895 C 0.37176 1.00073 0.96278 0.0
C896 C 0.36799 0.98976 0.03828 0.0
C897 C 0.38052 0.02213 0.82508 0.0
C898 C 0.39563 1.01132 0.86323 0.0
C899 C 0.39095 1.0008 0.93174 0.0
C900 C 0.41648 1.01113 0.83466 0.0
C901 C 0.38458 0.03446 0.75331 0.0
C902 C 0.42115 1.00487 0.75822 0.0
C903 C 0.4407 1.0049 0.73191 0.0
C904 C 0.45617 1.01096 0.78168 0.0
C905 C 0.45151 0.01677 0.85877 0.0
C906 C 0.43193 0.01685 0.88484 0.0
H907 H 0.37314 0.04593 0.74459 0.0
H908 H 0.39915 0.04176 0.75751 0.0
H909 H 0.38455 0.02483 0.70063 0.0
H910 H 0.40968 0.99981 0.71885 0.0
H911 H 0.44367 1.00007 0.67248 0.0
H912 H 0.54177 0.30889 0.11452 0.0
H913 H 0.54047 0.34035 0.04594 0.0
H914 H 0.4916 0.31946 0.90722 0.0
H915 H 0.4925 0.28788 0.97809 0.0
H916 H 0.54412 0.35206 0.89618 0.0
H917 H 0.46881 0.3694 1.00057 0.0
H918 H 0.48279 0.34895 0.03851 0.0
H919 H 0.47083 0.34709 0.94455 0.0
C920 C 0.53078 0.3109 0.06908 0.0
C921 C 0.51706 0.29589 0.0527 0.0
C922 C 0.53008 0.32895 0.02963 0.0
C923 C 0.51564 0.33263 0.97245 0.0
C924 C 0.50259 0.31727 0.95246 0.0
H925 H 0.52204 0.44152 0.69096 0.0
H926 H 0.52254 0.40727 0.73395 0.0
C927 C 0.50328 0.29908 0.99222 0.0
C928 C 0.51418 0.35276 0.93651 0.0
H929 H 0.4841 0.39299 0.91985 0.0
C930 C 0.53094 0.36094 0.90096 0.0
C931 C 0.49711 0.3646 0.9436 0.0
C932 C 0.4789 0.3572 0.98443 0.0
C933 C 0.53121 0.38052 0.87343 0.0
C934 C 0.51407 0.39233 0.87982 0.0
C935 C 0.49724 0.38406 0.91455 0.0
C936 C 0.51344 0.41339 0.85296 0.0
C937 C 0.55019 0.38853 0.84059 0.0
C938 C 0.50778 0.4285 0.90479 0.0
C939 C 0.50746 0.44827 0.8803 0.0
C940 C 0.51261 0.45344 0.80297 0.0
C941 C 0.51794 0.43823 0.75087 0.0
C942 C 0.51834 0.41853 0.77554 0.0
H943 H 0.5631 0.37996 0.8614 0.0
H944 H 0.54978 0.38749 0.77558 0.0
H945 H 0.55236 0.40419 0.8572 0.0
H946 H 0.50388 0.42505 0.96483 0.0
H947 H 0.50326 0.45949 0.9222 0.0
H948 H 0.21847 0.49849 0.1413 0.0
H949 H 0.18681 0.4946 0.07451 0.0
H950 H 0.21197 0.51794 0.86198 0.0
H951 H 0.24387 0.52166 0.92908 0.0
H952 H 0.16613 0.52635 0.01597 0.0
H953 H 0.17897 0.47183 0.77851 0.0
H954 H 0.19546 0.47455 0.86113 0.0
H955 H 0.19611 0.49196 0.78191 0.0
C956 C 0.21743 0.50212 0.07949 0.0
C957 C 0.23374 0.51011 0.0401 0.0
C958 C 0.19926 0.50006 0.04148 0.0
C959 C 0.19688 0.50591 0.96295 0.0
C960 C 0.21343 0.51297 0.92209 0.0
H961 H 0.0913 0.51766 0.66849 0.0
H962 H 0.12495 0.51733 0.71962 0.0
C963 C 0.23171 0.51502 0.96031 0.0
C964 C 0.1767 0.5064 0.92741 0.0
H965 H 0.14812 0.48806 0.77849 0.0
C966 C 0.16221 0.5179 0.96417 0.0
C967 C 0.17153 0.4956 0.85925 0.0
C968 C 0.18625 0.48265 0.81803 0.0
C969 C 0.14285 0.51896 0.93492 0.0
C970 C 0.13751 0.50781 0.86777 0.0
C971 C 0.15208 0.49653 0.83016 0.0
C972 C 0.1169 0.50764 0.83618 0.0
C973 C 0.12843 0.53243 0.97545 0.0
C974 C 0.10099 0.50206 0.88392 0.0
C975 C 0.08164 0.50236 0.85494 0.0
C976 C 0.07768 0.50802 0.77697 0.0
C977 C 0.09368 0.51322 0.72878 0.0
C978 C 0.11302 0.51301 0.75797 0.0
H979 H 0.13608 0.54414 0.00939 0.0
H980 H 0.11836 0.53952 0.93258 0.0
H981 H 0.11948 0.52373 0.0173 0.0
H982 H 0.10352 0.49737 0.94383 0.0
H983 H 0.0698 0.49807 0.89371 0.0
H984 H 0.04404 0.79547 0.35925 0.0
H985 H 0.04419 0.82589 0.4366 0.0
H986 H 0.9808 0.82531 0.44081 0.0
H987 H 0.98074 0.79457 0.36474 0.0
H988 H 0.02992 0.85976 0.38435 0.0
H989 H 0.99252 0.84224 0.66387 0.0
H990 H 1.00177 0.82341 0.59882 0.0
H991 H 0.9785 0.83502 0.57916 0.0
C992 C 0.03018 0.80141 0.37963 0.0
C993 C 0.01239 0.79241 0.35756 0.0
C994 C 0.03025 0.81894 0.42317 0.0
C995 C 0.01252 0.828 0.44536 0.0
C996 C 0.99471 0.8185 0.42632 0.0
H997 H 0.99912 0.95478 0.50794 0.0
H998 H 0.99896 0.9207 0.46167 0.0
C999 C 0.99466 0.80086 0.38299 0.0
C1000 C 0.01275 0.84831 0.48006 0.0
H1001 H 0.99605 0.87641 0.6331 0.0
C1002 C 0.0226 0.86331 0.43905 0.0
C1003 C 1.00344 0.85308 0.55196 0.0
C1004 C 0.99363 0.83756 0.60149 0.0
C1005 C 0.02308 0.88284 0.46674 0.0
C1006 C 0.01299 0.88784 0.53669 0.0
C1007 C 1.00355 0.87276 0.57888 0.0
C1008 C 0.0122 0.90857 0.56676 0.0
C1009 C 0.03477 0.89786 0.42119 0.0
C1010 C 0.01899 0.91323 0.6426 0.0
C1011 C 0.01885 0.93277 0.66972 0.0
C1012 C 1.0119 0.94818 0.62166 0.0
C1013 C 1.00475 0.94341 0.54639 0.0
C1014 C 1.00476 0.92386 0.51959 0.0
H1015 H 0.04621 0.89076 0.38435 0.0
H1016 H 0.02474 0.90604 0.38147 0.0
H1017 H 0.04204 0.90858 0.46104 0.0
H1018 H 0.02476 0.90178 0.68043 0.0
H1019 H 0.02453 0.93582 0.72796 0.0
H1020 H 0.73013 0.0447 0.38363 0.0
H1021 H 0.69875 0.04225 0.45258 0.0
H1022 H 0.69878 0.97938 0.41767 0.0
H1023 H 0.73046 0.98182 0.34901 0.0
H1024 H 0.66521 0.02952 0.38134 0.0
H1025 H 0.68005 0.98403 0.64517 0.0
H1026 H 0.69939 0.99574 0.58973 0.0
H1027 H 0.68837 0.97335 0.5546 0.0
C1028 C 0.72374 0.03027 0.39275 0.0
C1029 C 0.73284 0.01343 0.36122 0.0
C1030 C 0.70572 0.0289 0.43181 0.0
C1031 C 0.69628 1.01064 0.44063 0.0
C1032 C 0.70584 0.99362 0.41293 0.0
H1033 H 0.56908 0.99725 0.49059 0.0
H1034 H 0.60323 0.99682 0.44608 0.0
C1035 C 0.72401 0.99499 0.37387 0.0
C1036 C 0.6757 1.00992 0.47143 0.0
H1037 H 0.64645 0.99036 0.61497 0.0
C1038 C 0.66116 0.02097 0.43255 0.0
C1039 C 0.67033 0.99894 0.5387 0.0
C1040 C 0.68535 0.98747 0.58507 0.0
C1041 C 0.64152 0.02121 0.45832 0.0
C1042 C 0.63601 1.0098 0.52424 0.0
C1043 C 0.65057 0.99895 0.56396 0.0
C1044 C 0.61525 1.00921 0.55298 0.0
C1045 C 0.62691 0.03403 0.41546 0.0
C1046 C 0.61055 0.01581 0.62885 0.0
C1047 C 0.59096 0.01607 0.65468 0.0
C1048 C 0.57558 1.00954 0.60544 0.0
C1049 C 0.58042 1.00252 0.5301 0.0
C1050 C 0.6 1.00233 0.50432 0.0
H1051 H 0.63432 0.0456 0.38021 0.0
H1052 H 0.61811 0.02478 0.37473 0.0
H1053 H 0.61667 0.04126 0.45719 0.0
H1054 H 0.62203 0.02107 0.66773 0.0
H1055 H 0.5879 0.02149 0.71319 0.0
H1056 H 0.52861 0.7121 0.26673 0.0
H1057 H 0.53194 0.68111 0.33845 0.0
H1058 H 0.51202 0.70976 0.54981 0.0
H1059 H 0.5083 0.74086 0.477 0.0
H1060 H 0.55205 0.66774 0.46569 0.0
H1061 H 0.47189 0.66607 0.52725 0.0
H1062 H 0.48274 0.68371 0.46119 0.0
H1063 H 0.48459 0.68717 0.56563 0.0
C1064 C 0.52549 0.71192 0.32908 0.0
C1065 C 0.51838 0.72896 0.36643 0.0
C1066 C 0.52726 0.69413 0.37002 0.0
C1067 C 0.5218 0.69284 0.44934 0.0
C1068 C 0.5159 0.71018 0.48824 0.0
H1069 H 0.50869 0.58654 0.74172 0.0
H1070 H 0.51062 0.62064 0.69571 0.0
C1071 C 0.51411 0.72806 0.44704 0.0
C1072 C 0.52142 0.67311 0.4889 0.0
H1073 H 0.49064 0.63939 0.57399 0.0
C1074 C 0.53862 0.66162 0.48969 0.0
C1075 C 0.50391 0.66493 0.52022 0.0
C1076 C 0.48468 0.67598 0.51812 0.0
C1077 C 0.53879 0.64234 0.52034 0.0
C1078 C 0.5212 0.63404 0.55012 0.0
C1079 C 0.50412 0.64567 0.55115 0.0
C1080 C 0.5201 0.61317 0.57827 0.0
C1081 C 0.5579 0.63107 0.52103 0.0
C1082 C 0.52442 0.59743 0.52746 0.0
C1083 C 0.52328 0.57786 0.55351 0.0
C1084 C 0.51772 0.57346 0.63117 0.0
C1085 C 0.51314 0.58926 0.68169 0.0
C1086 C 0.51422 0.60883 0.65542 0.0
H1087 H 0.57078 0.64109 0.51784 0.0
H1088 H 0.55924 0.6219 0.57471 0.0
H1089 H 0.55838 0.62118 0.46918 0.0
H1090 H 0.52855 0.60027 0.46716 0.0
H1091 H 0.52682 0.56619 0.51261 0.0
H1092 H 0.80331 0.49873 0.34049 0.0
H1093 H 0.83577 0.49561 0.40261 0.0
H1094 H 0.834 0.557 0.46673 0.0
H1095 H 0.80179 0.56016 0.40265 0.0
H1096 H 0.86761 0.54838 0.39409 0.0
H1097 H 0.85592 0.49191 0.62422 0.0
H1098 H 0.84717 0.48486 0.52898 0.0
H1099 H 0.83586 0.5052 0.5792 0.0
C1100 C 0.80955 0.51133 0.37055 0.0
C1101 C 0.79979 0.52955 0.36867 0.0
C1102 C 0.82817 0.50957 0.40602 0.0
C1103 C 0.8374 0.52599 0.44075 0.0
C1104 C 0.82726 0.54405 0.44104 0.0
H1105 H 0.94758 0.52287 0.7097 0.0
H1106 H 0.9134 0.52624 0.66639 0.0
C1107 C 0.80874 0.54582 0.40519 0.0
C1108 C 0.85822 0.52489 0.47005 0.0
H1109 H 0.88908 0.50008 0.59472 0.0
C1110 C 0.87223 0.53785 0.43825 0.0
C1111 C 0.86441 0.51132 0.52828 0.0
C1112 C 0.85005 0.49765 0.56784 0.0
C1113 C 0.89212 0.53743 0.46174 0.0
C1114 C 0.89848 0.52338 0.51779 0.0
C1115 C 0.8844 0.51069 0.55098 0.0
C1116 C 0.91956 0.52178 0.54333 0.0
C1117 C 0.90605 0.55238 0.42722 0.0
C1118 C 0.93468 0.51835 0.48866 0.0
C1119 C 0.95438 0.51683 0.51308 0.0
C1120 C 0.95947 0.51832 0.59307 0.0
C1121 C 0.94429 0.52157 0.64772 0.0
C1122 C 0.92465 0.52338 0.6231 0.0
H1123 H 0.89806 0.56543 0.4042 0.0
H1124 H 0.91697 0.55743 0.47145 0.0
H1125 H 0.9141 0.54557 0.37755 0.0
H1126 H 0.93123 0.51662 0.42695 0.0
H1127 H 0.96558 0.51412 0.46932 0.0
loop_
_geom_bond_atom_site_label_1
_geom_bond_atom_site_label_2
_geom_bond_distance
_geom_bond_site_symmetry_2
_ccdc_geom_bond_type
H0 C7 0.929 . S
H1 C10 0.930 . S
H2 C12 0.929 . S
H3 C4 0.969 . S
C4 H3 0.969 . S
C4 O5 1.550 . S
C4 H6 0.973 . S
O5 C4 1.550 . S
O5 C11 1.412 . S
H6 C4 0.973 . S
C7 H0 0.929 . S
C7 C8 1.400 . S
C7 C9 1.364 . S
C8 C7 1.400 . S
C8 C12 1.377 . S
C9 C7 1.364 . S
C9 C10 1.374 . S
C10 H1 0.930 . S
C10 C9 1.374 . S
C10 C11 1.383 . S
C11 O5 1.412 . S
C11 C10 1.383 . S
C11 C12 1.394 . S
C12 H2 0.929 . S
C12 C8 1.377 . S
C12 C11 1.394 . S
H13 C20 0.928 . S
H14 C23 0.932 . S
H15 C25 0.928 . S
H16 C17 0.969 . S
C17 H16 0.969 . S
C17 O18 1.550 1_455 S
C17 H19 0.973 1_455 S
O18 C17 1.550 1_655 S
O18 C24 1.411 1_655 S
H19 C17 0.973 1_655 S
C20 H13 0.928 . S
C20 C21 1.400 . S
C20 C22 1.364 . S
C21 C20 1.400 . S
C21 C25 1.377 . S
C22 C20 1.364 . S
C22 C23 1.374 . S
C23 H14 0.932 . S
C23 C22 1.374 . S
C23 C24 1.382 1_655 S
C24 O18 1.411 1_455 S
C24 C23 1.382 1_455 S
C24 C25 1.394 1_455 S
C25 H15 0.928 . S
C25 C21 1.377 . S
C25 C24 1.394 1_655 S
H26 C33 0.928 . S
H27 C36 0.933 . S
H28 C38 0.928 . S
H29 C30 0.969 . S
C30 H29 0.969 . S
C30 O31 1.550 1_545 S
C30 H32 0.973 1_545 S
O31 C30 1.550 1_565 S
O31 C37 1.413 1_565 S
H32 C30 0.973 1_565 S
C33 H26 0.928 . S
C33 C34 1.400 . S
C33 C35 1.364 . S
C34 C33 1.400 . S
C34 C38 1.377 . S
C35 C33 1.364 . S
C35 C36 1.374 . S
C36 H27 0.933 . S
C36 C35 1.374 . S
C36 C37 1.382 1_565 S
C37 O31 1.413 1_545 S
C37 C36 1.382 1_545 S
C37 C38 1.394 1_545 S
C38 H28 0.928 . S
C38 C34 1.377 . S
C38 C37 1.394 1_565 S
H39 C46 0.929 . S
H40 C49 0.930 . S
H41 C51 0.929 . S
H42 C43 0.969 . S
C43 H42 0.969 . S
C43 O44 1.550 . S
C43 H45 0.973 . S
O44 C43 1.550 . S
O44 C50 1.412 . S
H45 C43 0.973 . S
C46 H39 0.929 . S
C46 C47 1.400 . S
C46 C48 1.364 . S
C47 C46 1.400 . S
C47 C51 1.377 . S
C48 C46 1.364 . S
C48 C49 1.374 . S
C49 H40 0.930 . S
C49 C48 1.374 . S
C49 C50 1.383 . S
C50 O44 1.412 . S
C50 C49 1.383 . S
C50 C51 1.394 . S
C51 H41 0.929 . S
C51 C47 1.377 . S
C51 C50 1.394 . S
H52 C59 0.929 . S
H53 C62 0.930 . S
H54 C64 0.929 . S
H55 C56 0.969 . S
C56 H55 0.969 . S
C56 O57 1.550 . S
C56 H58 0.973 . S
O57 C56 1.550 . S
O57 C63 1.412 . S
H58 C56 0.973 . S
C59 H52 0.929 . S
C59 C60 1.400 1_554 S
C59 C61 1.364 . S
C60 C59 1.400 1_556 S
C60 C64 1.377 . S
C61 C59 1.364 . S
C61 C62 1.374 . S
C62 H53 0.930 . S
C62 C61 1.374 . S
C62 C63 1.383 . S
C63 O57 1.412 . S
C63 C62 1.383 . S
C63 C64 1.394 1_554 S
C64 H54 0.929 . S
C64 C60 1.377 . S
C64 C63 1.394 1_556 S
H65 C72 0.929 . S
H66 C75 0.930 . S
H67 C77 0.929 . S
H68 C69 0.969 . S
C69 H68 0.969 . S
C69 O70 1.546 1_455 S
C69 H71 0.973 . S
O70 C69 1.546 1_655 S
O70 C76 1.409 1_655 S
H71 C69 0.973 . S
C72 H65 0.929 . S
C72 C73 1.400 1_554 S
C72 C74 1.364 . S
C73 C72 1.400 1_556 S
C73 C77 1.377 . S
C74 C72 1.364 . S
C74 C75 1.374 . S
C75 H66 0.930 . S
C75 C74 1.374 . S
C75 C76 1.383 . S
C76 O70 1.409 1_455 S
C76 C75 1.383 . S
C76 C77 1.394 1_554 S
C77 H67 0.929 . S
C77 C73 1.377 . S
C77 C76 1.394 1_556 S
H78 C85 0.929 . S
H79 C88 0.930 . S
H80 C90 0.929 . S
H81 C82 0.969 . S
C82 H81 0.969 . S
C82 O83 1.546 1_545 S
C82 H84 0.973 . S
O83 C82 1.546 1_565 S
O83 C89 1.409 1_565 S
H84 C82 0.973 . S
C85 H78 0.929 . S
C85 C86 1.400 1_554 S
C85 C87 1.364 . S
C86 C85 1.400 1_556 S
C86 C90 1.377 . S
C87 C85 1.364 . S
C87 C88 1.374 . S
C88 H79 0.930 . S
C88 C87 1.374 . S
C88 C89 1.383 . S
C89 O83 1.409 1_545 S
C89 C88 1.383 . S
C89 C90 1.394 1_554 S
C90 H80 0.929 . S
C90 C86 1.377 . S
C90 C89 1.394 1_556 S
H91 C98 0.929 . S
H92 C101 0.930 . S
H93 C103 0.929 . S
H94 C95 0.969 . S
C95 H94 0.969 . S
C95 O96 1.550 . S
C95 H97 0.973 . S
O96 C95 1.550 . S
O96 C102 1.412 . S
H97 C95 0.973 . S
C98 H91 0.929 . S
C98 C99 1.400 1_554 S
C98 C100 1.364 . S
C99 C98 1.400 1_556 S
C99 C103 1.377 . S
C100 C98 1.364 . S
C100 C101 1.374 . S
C101 H92 0.930 . S
C101 C100 1.374 . S
C101 C102 1.383 . S
C102 O96 1.412 . S
C102 C101 1.383 . S
C102 C103 1.394 1_554 S
C103 H93 0.929 . S
C103 C99 1.377 . S
C103 C102 1.394 1_556 S
Ho104 C107 2.811 . S
Ho104 O124 2.322 . S
Ho104 O126 2.378 . S
Ho104 O127 2.545 . S
Ho104 O128 2.381 . S
Ho104 O129 2.669 1_565 S
Ho104 O131 2.346 1_565 S
Ho104 O135 2.305 1_455 S
Ho105 C116 2.811 . S
Ho105 O125 2.346 1_545 S
Ho105 O129 2.305 1_655 S
Ho105 O130 2.322 . S
Ho105 O132 2.378 . S
Ho105 O133 2.524 1_655 S
Ho105 O134 2.381 . S
Ho105 O135 2.669 1_545 S
C106 O124 1.259 1_655 S
C106 O125 1.268 . S
C107 Ho104 2.811 . S
C107 C108 1.488 . S
C107 O126 1.215 . S
C107 O127 1.335 . S
C108 C107 1.488 . S
C108 C109 1.348 . S
C108 C113 1.413 . S
C109 C108 1.348 . S
C109 C110 1.442 . S
C109 H136 0.930 1_455 S
C110 C109 1.442 . S
C110 C111 1.381 . S
C110 H137 0.931 1_455 S
C111 C110 1.381 . S
C111 C112 1.321 . S
C112 C111 1.321 . S
C112 C113 1.403 . S
C112 H138 0.934 . S
C113 C108 1.413 . S
C113 C112 1.403 . S
C113 H139 0.930 . S
C114 O128 1.275 1_545 S
C114 O129 1.256 . S
C115 O130 1.259 1_455 S
C115 O131 1.268 . S
C116 Ho105 2.811 . S
C116 C117 1.488 . S
C116 O132 1.215 . S
C116 O133 1.289 1_655 S
C117 C116 1.488 . S
C117 C118 1.327 1_655 S
C117 C122 1.413 . S
C118 C117 1.327 1_455 S
C118 C119 1.439 1_455 S
C118 H140 0.954 . S
C119 C118 1.439 1_655 S
C119 C120 1.381 . S
C119 H141 0.931 1_655 S
C120 C119 1.381 . S
C120 C121 1.321 . S
C121 C120 1.321 . S
C121 C122 1.403 . S
C121 H142 0.934 . S
C122 C117 1.413 . S
C122 C121 1.403 . S
C122 H143 0.930 . S
C123 O134 1.275 . S
C123 O135 1.256 1_545 S
O124 Ho104 2.322 . S
O124 C106 1.259 1_455 S
O125 Ho105 2.346 1_565 S
O125 C106 1.268 . S
O126 Ho104 2.378 . S
O126 C107 1.215 . S
O127 Ho104 2.545 . S
O127 C107 1.335 . S
O128 Ho104 2.381 . S
O128 C114 1.275 1_565 S
O129 Ho104 2.669 1_545 S
O129 Ho105 2.305 1_455 S
O129 C114 1.256 . S
O130 Ho105 2.322 . S
O130 C115 1.259 1_655 S
O131 Ho104 2.346 1_545 S
O131 C115 1.268 . S
O132 Ho105 2.378 . S
O132 C116 1.215 . S
O133 Ho105 2.524 1_455 S
O133 C116 1.289 1_455 S
O134 Ho105 2.381 . S
O134 C123 1.275 . S
O135 Ho104 2.305 1_655 S
O135 Ho105 2.669 1_565 S
O135 C123 1.256 1_565 S
H136 C109 0.930 1_655 S
H137 C110 0.931 1_655 S
H138 C112 0.934 . S
H139 C113 0.930 . S
H140 C118 0.954 . S
H141 C119 0.931 1_455 S
H142 C121 0.934 . S
H143 C122 0.930 . S
Ho144 C147 2.811 . S
Ho144 O164 2.322 . S
Ho144 O166 2.378 . S
Ho144 O167 2.544 . S
Ho144 O168 2.381 . S
Ho144 O169 2.669 . S
Ho144 O171 2.346 . S
Ho144 O175 2.305 1_545 S
Ho145 C156 2.811 . S
Ho145 O165 2.346 . S
Ho145 O169 2.305 1_565 S
Ho145 O170 2.322 . S
Ho145 O172 2.378 . S
Ho145 O173 2.524 1_565 S
Ho145 O174 2.381 . S
Ho145 O175 2.669 . S
C146 O164 1.259 1_565 S
C146 O165 1.268 . S
C147 Ho144 2.811 . S
C147 C148 1.488 . S
C147 O166 1.215 . S
C147 O167 1.332 . S
C148 C147 1.488 . S
C148 C149 1.348 . S
C148 C153 1.413 . S
C149 C148 1.348 . S
C149 C150 1.442 . S
C149 H176 0.930 1_545 S
C150 C149 1.442 . S
C150 C151 1.381 . S
C150 H177 0.931 1_545 S
C151 C150 1.381 . S
C151 C152 1.321 . S
C152 C151 1.321 . S
C152 C153 1.403 . S
C152 H178 0.934 . S
C153 C148 1.413 . S
C153 C152 1.403 . S
C153 H179 0.930 . S
C154 O168 1.275 . S
C154 O169 1.256 . S
C155 O170 1.259 1_545 S
C155 O171 1.268 . S
C156 Ho145 2.811 . S
C156 C157 1.488 . S
C156 O172 1.215 . S
C156 O173 1.289 1_565 S
C157 C156 1.488 . S
C157 C158 1.328 1_565 S
C157 C162 1.413 . S
C158 C157 1.328 1_545 S
C158 C159 1.439 1_545 S
C158 H180 0.953 . S
C159 C158 1.439 1_565 S
C159 C160 1.381 . S
C159 H181 0.931 1_565 S
C160 C159 1.381 . S
C160 C161 1.321 . S
C161 C160 1.321 . S
C161 C162 1.403 . S
C161 H182 0.934 . S
C162 C157 1.413 . S
C162 C161 1.403 . S
C162 H183 0.930 . S
C163 O174 1.275 . S
C163 O175 1.256 . S
O164 Ho144 2.322 . S
O164 C146 1.259 1_545 S
O165 Ho145 2.346 . S
O165 C146 1.268 . S
O166 Ho144 2.378 . S
O166 C147 1.215 . S
O167 Ho144 2.544 . S
O167 C147 1.332 . S
O168 Ho144 2.381 . S
O168 C154 1.275 . S
O169 Ho144 2.669 . S
O169 Ho145 2.305 1_545 S
O169 C154 1.256 . S
O170 Ho145 2.322 . S
O170 C155 1.259 1_565 S
O171 Ho144 2.346 . S
O171 C155 1.268 . S
O172 Ho145 2.378 . S
O172 C156 1.215 . S
O173 Ho145 2.524 1_545 S
O173 C156 1.289 1_545 S
O174 Ho145 2.381 . S
O174 C163 1.275 . S
O175 Ho144 2.305 1_565 S
O175 Ho145 2.669 . S
O175 C163 1.256 . S
H176 C149 0.930 1_565 S
H177 C150 0.931 1_565 S
H178 C152 0.934 . S
H179 C153 0.930 . S
H180 C158 0.953 . S
H181 C159 0.931 1_545 S
H182 C161 0.934 . S
H183 C162 0.930 . S
Ho184 C187 2.811 . S
Ho184 O204 2.322 . S
Ho184 O206 2.378 . S
Ho184 O207 2.524 . S
Ho184 O208 2.381 . S
Ho184 O209 2.669 . S
Ho184 O211 2.346 . S
Ho184 O215 2.305 . S
Ho185 C196 2.811 . S
Ho185 O205 2.346 . S
Ho185 O209 2.305 . S
Ho185 O210 2.322 . S
Ho185 O212 2.378 . S
Ho185 O213 2.524 . S
Ho185 O214 2.381 . S
Ho185 O215 2.669 . S
C186 O204 1.259 . S
C186 O205 1.268 . S
C187 Ho184 2.811 . S
C187 C188 1.488 . S
C187 O206 1.215 . S
C187 O207 1.289 . S
C188 C187 1.488 . S
C188 C189 1.348 . S
C188 C193 1.413 . S
C189 C188 1.348 . S
C189 C190 1.442 . S
C189 H216 0.930 . S
C190 C189 1.442 . S
C190 C191 1.381 . S
C190 H217 0.931 . S
C191 C190 1.381 . S
C191 C192 1.321 . S
C192 C191 1.321 . S
C192 C193 1.403 . S
C192 H218 0.934 . S
C193 C188 1.413 . S
C193 C192 1.403 . S
C193 H219 0.930 . S
C194 O208 1.275 . S
C194 O209 1.256 . S
C195 O210 1.259 . S
C195 O211 1.268 . S
C196 Ho185 2.811 . S
C196 C197 1.488 . S
C196 O212 1.215 . S
C196 O213 1.289 . S
C197 C196 1.488 . S
C197 C198 1.348 . S
C197 C202 1.413 . S
C198 C197 1.348 . S
C198 C199 1.442 . S
C198 H220 0.930 . S
C199 C198 1.442 . S
C199 C200 1.381 . S
C199 H221 0.931 . S
C200 C199 1.381 . S
C200 C201 1.321 . S
C201 C200 1.321 . S
C201 C202 1.403 . S
C201 H222 0.934 . S
C202 C197 1.413 . S
C202 C201 1.403 . S
C202 H223 0.930 . S
C203 O214 1.275 . S
C203 O215 1.256 . S
O204 Ho184 2.322 . S
O204 C186 1.259 . S
O205 Ho185 2.346 . S
O205 C186 1.268 . S
O206 Ho184 2.378 . S
O206 C187 1.215 . S
O207 Ho184 2.524 . S
O207 C187 1.289 . S
O208 Ho184 2.381 . S
O208 C194 1.275 . S
O209 Ho184 2.669 . S
O209 Ho185 2.305 . S
O209 C194 1.256 . S
O210 Ho185 2.322 . S
O210 C195 1.259 . S
O211 Ho184 2.346 . S
O211 C195 1.268 . S
O212 Ho185 2.378 . S
O212 C196 1.215 . S
O213 Ho185 2.524 . S
O213 C196 1.289 . S
O214 Ho185 2.381 . S
O214 C203 1.275 . S
O215 Ho184 2.305 . S
O215 Ho185 2.669 . S
O215 C203 1.256 . S
H216 C189 0.930 . S
H217 C190 0.931 . S
H218 C192 0.934 . S
H219 C193 0.930 . S
H220 C198 0.930 . S
H221 C199 0.931 . S
H222 C201 0.934 . S
H223 C202 0.930 . S
Ho224 C227 2.811 . S
Ho224 O244 2.322 . S
Ho224 O246 2.378 . S
Ho224 O247 2.524 . S
Ho224 O248 2.381 . S
Ho224 O249 2.669 1_655 S
Ho224 O251 2.346 1_655 S
Ho224 O255 2.305 . S
Ho225 C236 2.811 . S
Ho225 O245 2.346 1_455 S
Ho225 O249 2.305 . S
Ho225 O250 2.322 . S
Ho225 O252 2.378 . S
Ho225 O253 2.524 . S
Ho225 O254 2.381 . S
Ho225 O255 2.669 1_455 S
C226 O244 1.259 . S
C226 O245 1.268 . S
C227 Ho224 2.811 . S
C227 C228 1.488 . S
C227 O246 1.215 . S
C227 O247 1.289 . S
C228 C227 1.488 . S
C228 C229 1.348 . S
C228 C233 1.413 . S
C229 C228 1.348 . S
C229 C230 1.442 . S
C229 H256 0.930 . S
C230 C229 1.442 . S
C230 C231 1.381 . S
C230 H257 0.931 . S
C231 C230 1.381 . S
C231 C232 1.321 . S
C232 C231 1.321 . S
C232 C233 1.403 . S
C232 H258 0.934 . S
C233 C228 1.413 . S
C233 C232 1.403 . S
C233 H259 0.930 . S
C234 O248 1.275 1_455 S
C234 O249 1.256 . S
C235 O250 1.259 . S
C235 O251 1.268 . S
C236 Ho225 2.811 . S
C236 C237 1.488 . S
C236 O252 1.215 . S
C236 O253 1.289 . S
C237 C236 1.488 . S
C237 C238 1.348 . S
C237 C242 1.413 . S
C238 C237 1.348 . S
C238 C239 1.442 . S
C238 H260 0.930 . S
C239 C238 1.442 . S
C239 C240 1.381 . S
C239 H261 0.931 . S
C240 C239 1.381 . S
C240 C241 1.321 . S
C241 C240 1.321 . S
C241 C242 1.403 . S
C241 H262 0.934 . S
C242 C237 1.413 . S
C242 C241 1.403 . S
C242 H263 0.930 . S
C243 O254 1.275 . S
C243 O255 1.256 1_455 S
O244 Ho224 2.322 . S
O244 C226 1.259 . S
O245 Ho225 2.346 1_655 S
O245 C226 1.268 . S
O246 Ho224 2.378 . S
O246 C227 1.215 . S
O247 Ho224 2.524 . S
O247 C227 1.289 . S
O248 Ho224 2.381 . S
O248 C234 1.275 1_655 S
O249 Ho224 2.669 1_455 S
O249 Ho225 2.305 . S
O249 C234 1.256 . S
O250 Ho225 2.322 . S
O250 C235 1.259 . S
O251 Ho224 2.346 1_455 S
O251 C235 1.268 . S
O252 Ho225 2.378 . S
O252 C236 1.215 . S
O253 Ho225 2.524 . S
O253 C236 1.289 . S
O254 Ho225 2.381 . S
O254 C243 1.275 . S
O255 Ho224 2.305 . S
O255 Ho225 2.669 1_655 S
O255 C243 1.256 1_655 S
H256 C229 0.930 . S
H257 C230 0.931 . S
H258 C232 0.934 . S
H259 C233 0.930 . S
H260 C238 0.930 . S
H261 C239 0.931 . S
H262 C241 0.934 . S
H263 C242 0.930 . S
H264 C272 0.929 . S
H265 C274 0.930 . S
H266 C276 0.930 . S
H267 C279 0.929 . S
H268 C282 0.930 . S
H269 C284 0.960 . S
H270 C284 0.960 . S
H271 C284 0.960 . S
C272 H264 0.929 . S
C272 C273 1.377 1_565 S
C272 C274 1.384 . S
C273 C272 1.377 1_545 S
C273 C279 1.390 . S
C274 H265 0.930 . S
C274 C272 1.384 . S
C274 C275 1.372 1_565 S
C275 C274 1.372 1_545 S
C275 C276 1.400 . S
C275 C280 1.490 . S
C276 H266 0.930 . S
C276 C275 1.400 . S
C276 C279 1.386 . S
H277 C293 0.930 . S
H278 C294 0.931 . S
C279 H267 0.929 . S
C279 C273 1.390 . S
C279 C276 1.386 . S
C280 C275 1.490 . S
C280 C282 1.395 1_545 S
C280 C283 1.403 . S
H281 C287 0.930 . S
C282 H268 0.930 . S
C282 C280 1.395 1_565 S
C282 C285 1.403 . S
C283 C280 1.403 . S
C283 C284 1.524 . S
C283 C287 1.400 . S
C284 H269 0.960 . S
C284 H270 0.960 . S
C284 H271 0.960 . S
C284 C283 1.524 . S
C285 C282 1.403 . S
C285 C286 1.392 1_565 S
C285 C289 1.495 . S
C286 C285 1.392 1_545 S
C286 C287 1.385 . S
C286 C288 1.478 . S
C287 H281 0.930 . S
C287 C283 1.400 . S
C287 C286 1.385 . S
C288 C286 1.478 . S
C288 C290 1.381 1_545 S
C288 C294 1.383 . S
C289 C285 1.495 . S
C289 H295 0.959 . S
C289 H296 0.930 1_565 S
C289 H297 0.960 . S
C290 C288 1.381 1_565 S
C290 C291 1.394 . S
C290 H298 0.930 . S
C291 C290 1.394 . S
C291 C292 1.383 1_565 S
C291 H299 0.929 . S
C292 C291 1.383 1_545 S
C292 C293 1.377 . S
C293 H277 0.930 . S
C293 C292 1.377 . S
C293 C294 1.379 . S
C294 H278 0.931 . S
C294 C288 1.383 . S
C294 C293 1.379 . S
H295 C289 0.959 . S
H296 C289 0.930 1_545 S
H297 C289 0.960 . S
H298 C290 0.930 . S
H299 C291 0.929 . S
H300 C308 0.929 . S
H301 C310 0.930 . S
H302 C312 0.930 . S
H303 C315 0.929 . S
H304 C318 0.930 . S
H305 C320 0.960 . S
H306 C320 0.960 . S
H307 C320 0.960 . S
C308 H300 0.929 . S
C308 C309 1.377 . S
C308 C310 1.384 . S
C309 C308 1.377 . S
C309 C315 1.390 . S
C310 H301 0.930 . S
C310 C308 1.384 . S
C310 C311 1.372 . S
C311 C310 1.372 . S
C311 C312 1.400 . S
C311 C316 1.490 . S
C312 H302 0.930 . S
C312 C311 1.400 . S
C312 C315 1.386 . S
H313 C329 0.930 . S
H314 C330 0.931 . S
C315 H303 0.929 . S
C315 C309 1.390 . S
C315 C312 1.386 . S
C316 C311 1.490 . S
C316 C318 1.395 . S
C316 C319 1.403 . S
H317 C323 0.930 . S
C318 H304 0.930 . S
C318 C316 1.395 . S
C318 C321 1.403 . S
C319 C316 1.403 . S
C319 C320 1.524 . S
C319 C323 1.400 . S
C320 H305 0.960 . S
C320 H306 0.960 . S
C320 H307 0.960 . S
C320 C319 1.524 . S
C321 C318 1.403 . S
C321 C322 1.392 . S
C321 C325 1.495 . S
C322 C321 1.392 . S
C322 C323 1.385 . S
C322 C324 1.478 . S
C323 H317 0.930 . S
C323 C319 1.400 . S
C323 C322 1.385 . S
C324 C322 1.478 . S
C324 C326 1.381 . S
C324 C330 1.383 . S
C325 C321 1.495 . S
C325 H331 0.959 . S
C325 H332 0.961 . S
C325 H333 0.960 . S
C326 C324 1.381 . S
C326 C327 1.394 . S
C326 H334 0.930 . S
C327 C326 1.394 . S
C327 C328 1.383 . S
C327 H335 0.929 . S
C328 C327 1.383 . S
C328 C329 1.377 . S
C329 H313 0.930 . S
C329 C328 1.377 . S
C329 C330 1.379 . S
C330 H314 0.931 . S
C330 C324 1.383 . S
C330 C329 1.379 . S
H331 C325 0.959 . S
H332 C325 0.961 . S
H333 C325 0.960 . S
H334 C326 0.930 . S
H335 C327 0.929 . S
H336 C344 0.929 . S
H337 C346 0.930 . S
H338 C348 0.930 . S
H339 C351 0.929 . S
H340 C354 0.930 . S
H341 C356 0.960 . S
H342 C356 0.960 . S
H343 C356 0.960 . S
C344 H336 0.929 . S
C344 C345 1.377 . S
C344 C346 1.384 . S
C345 C344 1.377 . S
C345 C351 1.390 . S
C346 H337 0.930 . S
C346 C344 1.384 . S
C346 C347 1.372 . S
C347 C346 1.372 . S
C347 C348 1.400 . S
C347 C352 1.490 . S
C348 H338 0.930 . S
C348 C347 1.400 . S
C348 C351 1.386 . S
H349 C365 0.930 . S
H350 C366 0.931 . S
C351 H339 0.929 . S
C351 C345 1.390 . S
C351 C348 1.386 . S
C352 C347 1.490 . S
C352 C354 1.395 . S
C352 C355 1.403 . S
H353 C359 0.930 . S
C354 H340 0.930 . S
C354 C352 1.395 . S
C354 C357 1.403 . S
C355 C352 1.403 . S
C355 C356 1.524 . S
C355 C359 1.400 . S
C356 H341 0.960 . S
C356 H342 0.960 . S
C356 H343 0.960 . S
C356 C355 1.524 . S
C357 C354 1.403 . S
C357 C358 1.392 . S
C357 C361 1.495 . S
C358 C357 1.392 . S
C358 C359 1.385 . S
C358 C360 1.478 . S
C359 H353 0.930 . S
C359 C355 1.400 . S
C359 C358 1.385 . S
C360 C358 1.478 . S
C360 C362 1.381 . S
C360 C366 1.383 . S
C361 C357 1.495 . S
C361 H367 0.959 . S
C361 H368 0.961 . S
C361 H369 0.960 . S
C362 C360 1.381 . S
C362 C363 1.394 . S
C362 H370 0.930 . S
C363 C362 1.394 . S
C363 C364 1.383 . S
C363 H371 0.929 . S
C364 C363 1.383 . S
C364 C365 1.377 . S
C365 H349 0.930 . S
C365 C364 1.377 . S
C365 C366 1.379 . S
C366 H350 0.931 . S
C366 C360 1.383 . S
C366 C365 1.379 . S
H367 C361 0.959 . S
H368 C361 0.961 . S
H369 C361 0.960 . S
H370 C362 0.930 . S
H371 C363 0.929 . S
H372 C380 0.929 . S
H373 C382 0.930 . S
H374 C384 0.930 . S
H375 C387 0.929 . S
H376 C390 0.930 . S
H377 C392 0.960 . S
H378 C392 0.960 . S
H379 C392 0.960 . S
C380 H372 0.929 . S
C380 C381 1.377 1_655 S
C380 C382 1.384 . S
C381 C380 1.377 1_455 S
C381 C387 1.390 . S
C382 H373 0.930 . S
C382 C380 1.384 . S
C382 C383 1.372 1_655 S
C383 C382 1.372 1_455 S
C383 C384 1.400 . S
C383 C388 1.490 . S
C384 H374 0.930 . S
C384 C383 1.400 . S
C384 C387 1.386 . S
H385 C401 0.930 . S
H386 C402 0.931 . S
C387 H375 0.929 . S
C387 C381 1.390 . S
C387 C384 1.386 . S
C388 C383 1.490 . S
C388 C390 1.395 . S
C388 C391 1.403 1_455 S
H389 C395 0.930 . S
C390 H376 0.930 . S
C390 C388 1.395 . S
C390 C393 1.403 . S
C391 C388 1.403 1_655 S
C391 C392 1.524 . S
C391 C395 1.400 . S
C392 H377 0.960 . S
C392 H378 0.960 . S
C392 H379 0.960 . S
C392 C391 1.524 . S
C393 C390 1.403 . S
C393 C394 1.392 . S
C393 C397 1.495 . S
C394 C393 1.392 . S
C394 C395 1.385 1_455 S
C394 C396 1.478 . S
C395 H389 0.930 . S
C395 C391 1.400 . S
C395 C394 1.385 1_655 S
C396 C394 1.478 . S
C396 C398 1.381 1_455 S
C396 C402 1.383 . S
C397 C393 1.495 . S
C397 H403 0.959 . S
C397 H404 0.961 . S
C397 H405 0.960 . S
C398 C396 1.381 1_655 S
C398 C399 1.394 . S
C398 H406 0.930 . S
C399 C398 1.394 . S
C399 C400 1.383 1_655 S
C399 H407 0.929 . S
C400 C399 1.383 1_455 S
C400 C401 1.377 . S
C401 H385 0.930 . S
C401 C400 1.377 . S
C401 C402 1.379 . S
C402 H386 0.931 . S
C402 C396 1.383 . S
C402 C401 1.379 . S
H403 C397 0.959 . S
H404 C397 0.961 . S
H405 C397 0.960 . S
H406 C398 0.930 . S
H407 C399 0.929 . S
H408 C416 0.929 . S
H409 C418 0.930 . S
H410 C420 0.930 . S
H411 C423 0.929 . S
H412 C426 0.930 . S
H413 C428 0.960 . S
H414 C428 0.960 . S
H415 C428 0.960 1_554 S
C416 H408 0.929 . S
C416 C417 1.372 1_545 S
C416 C418 1.384 . S
C417 C416 1.372 1_565 S
C417 C423 1.395 . S
C418 H409 0.930 . S
C418 C416 1.384 . S
C418 C419 1.420 . S
C419 C418 1.420 . S
C419 C420 1.350 1_545 S
C419 C424 1.492 . S
C420 H410 0.930 . S
C420 C419 1.350 1_565 S
C420 C423 1.386 . S
H421 C437 0.930 . S
H422 C438 0.931 . S
C423 H411 0.929 . S
C423 C417 1.395 . S
C423 C420 1.386 . S
C424 C419 1.492 . S
C424 C426 1.395 . S
C424 C427 1.403 1_545 S
H425 C431 0.930 . S
C426 H412 0.930 . S
C426 C424 1.395 . S
C426 C429 1.403 . S
C427 C424 1.403 1_565 S
C427 C428 1.524 1_554 S
C427 C431 1.400 1_554 S
C428 H413 0.960 . S
C428 H414 0.960 . S
C428 H415 0.960 1_556 S
C428 C427 1.524 1_556 S
C429 C426 1.403 . S
C429 C430 1.394 . S
C429 C433 1.495 . S
C430 C429 1.394 . S
C430 C431 1.385 1_544 S
C430 C432 1.476 1_554 S
C431 H425 0.930 . S
C431 C427 1.400 1_556 S
C431 C430 1.385 1_566 S
C432 C430 1.476 1_556 S
C432 C434 1.381 . S
C432 C438 1.383 1_545 S
C433 C429 1.495 . S
C433 H439 0.959 . S
C433 H440 0.961 . S
C433 H441 0.960 . S
C434 C432 1.381 . S
C434 C435 1.394 . S
C434 H442 0.930 . S
C435 C434 1.394 . S
C435 C436 1.383 . S
C435 H443 0.929 . S
C436 C435 1.383 . S
C436 C437 1.377 1_545 S
C437 H421 0.930 . S
C437 C436 1.377 1_565 S
C437 C438 1.379 . S
C438 H422 0.931 . S
C438 C432 1.383 1_565 S
C438 C437 1.379 . S
H439 C433 0.959 . S
H440 C433 0.961 . S
H441 C433 0.960 . S
H442 C434 0.930 . S
H443 C435 0.929 . S
H444 C452 0.929 . S
H445 C454 0.930 . S
H446 C456 0.930 . S
H447 C459 0.929 . S
H448 C462 0.930 . S
H449 C464 0.960 . S
H450 C464 0.960 . S
H451 C464 0.960 1_554 S
C452 H444 0.929 . S
C452 C453 1.377 . S
C452 C454 1.384 . S
C453 C452 1.377 . S
C453 C459 1.390 . S
C454 H445 0.930 . S
C454 C452 1.384 . S
C454 C455 1.372 . S
C455 C454 1.372 . S
C455 C456 1.400 . S
C455 C460 1.490 . S
C456 H446 0.930 . S
C456 C455 1.400 . S
C456 C459 1.386 . S
H457 C473 0.930 . S
H458 C474 0.931 . S
C459 H447 0.929 . S
C459 C453 1.390 . S
C459 C456 1.386 . S
C460 C455 1.490 . S
C460 C462 1.395 . S
C460 C463 1.403 . S
H461 C467 0.930 . S
C462 H448 0.930 . S
C462 C460 1.395 . S
C462 C465 1.403 . S
C463 C460 1.403 . S
C463 C464 1.524 1_554 S
C463 C467 1.400 1_554 S
C464 H449 0.960 . S
C464 H450 0.960 . S
C464 H451 0.960 1_556 S
C464 C463 1.524 1_556 S
C465 C462 1.403 . S
C465 C466 1.393 . S
C465 C469 1.495 . S
C466 C465 1.393 . S
C466 C467 1.385 1_554 S
C466 C468 1.477 1_554 S
C467 H461 0.930 . S
C467 C463 1.400 1_556 S
C467 C466 1.385 1_556 S
C468 C466 1.477 1_556 S
C468 C470 1.381 . S
C468 C474 1.383 . S
C469 C465 1.495 . S
C469 H475 0.959 . S
C469 H476 0.961 . S
C469 H477 0.960 . S
C470 C468 1.381 . S
C470 C471 1.394 . S
C470 H478 0.930 . S
C471 C470 1.394 . S
C471 C472 1.383 . S
C471 H479 0.929 . S
C472 C471 1.383 . S
C472 C473 1.377 . S
C473 H457 0.930 . S
C473 C472 1.377 . S
C473 C474 1.379 . S
C474 H458 0.931 . S
C474 C468 1.383 . S
C474 C473 1.379 . S
H475 C469 0.959 . S
H476 C469 0.961 . S
H477 C469 0.960 . S
H478 C470 0.930 . S
H479 C471 0.929 . S
H480 C488 0.929 . S
H481 C490 0.930 . S
H482 C492 0.930 . S
H483 C495 0.929 . S
H484 C498 0.930 . S
H485 C500 0.960 . S
H486 C500 0.960 . S
H487 C500 0.960 . S
C488 H480 0.929 . S
C488 C489 1.377 . S
C488 C490 1.384 . S
C489 C488 1.377 . S
C489 C495 1.390 . S
C490 H481 0.930 . S
C490 C488 1.384 . S
C490 C491 1.372 . S
C491 C490 1.372 . S
C491 C492 1.400 . S
C491 C496 1.490 . S
C492 H482 0.930 . S
C492 C491 1.400 . S
C492 C495 1.386 . S
H493 C509 0.930 . S
H494 C510 0.931 . S
C495 H483 0.929 . S
C495 C489 1.390 . S
C495 C492 1.386 . S
C496 C491 1.490 . S
C496 C498 1.395 . S
C496 C499 1.403 . S
H497 C503 0.930 . S
C498 H484 0.930 . S
C498 C496 1.395 . S
C498 C501 1.403 1_554 S
C499 C496 1.403 . S
C499 C500 1.524 . S
C499 C503 1.400 . S
C500 H485 0.960 . S
C500 H486 0.960 . S
C500 H487 0.960 . S
C500 C499 1.524 . S
C501 C498 1.403 1_556 S
C501 C502 1.392 . S
C501 C505 1.495 . S
C502 C501 1.392 . S
C502 C503 1.385 1_556 S
C502 C504 1.478 . S
C503 H497 0.930 . S
C503 C499 1.400 . S
C503 C502 1.385 1_554 S
C504 C502 1.478 . S
C504 C506 1.381 . S
C504 C510 1.383 . S
C505 C501 1.495 . S
C505 H511 0.959 . S
C505 H512 0.961 . S
C505 H513 0.960 . S
C506 C504 1.381 . S
C506 C507 1.394 . S
C506 H514 0.930 . S
C507 C506 1.394 . S
C507 C508 1.383 . S
C507 H515 0.929 . S
C508 C507 1.383 . S
C508 C509 1.377 . S
C509 H493 0.930 . S
C509 C508 1.377 . S
C509 C510 1.379 . S
C510 H494 0.931 . S
C510 C504 1.383 . S
C510 C509 1.379 . S
H511 C505 0.959 . S
H512 C505 0.961 . S
H513 C505 0.960 . S
H514 C506 0.930 . S
H515 C507 0.929 . S
H516 C524 0.929 . S
H517 C526 0.930 . S
H518 C528 0.930 . S
H519 C531 0.929 . S
H520 C534 0.930 . S
H521 C536 0.960 . S
H522 C536 0.960 . S
H523 C536 0.960 . S
C524 H516 0.929 . S
C524 C525 1.382 . S
C524 C526 1.384 . S
C525 C524 1.382 . S
C525 C531 1.385 1_655 S
C526 H517 0.930 . S
C526 C524 1.384 . S
C526 C527 1.388 . S
C527 C526 1.388 . S
C527 C528 1.383 1_655 S
C527 C532 1.491 . S
C528 H518 0.930 . S
C528 C527 1.383 1_455 S
C528 C531 1.386 . S
H529 C545 0.930 . S
H530 C546 0.931 . S
C531 H519 0.929 . S
C531 C525 1.385 1_455 S
C531 C528 1.386 . S
C532 C527 1.491 . S
C532 C534 1.395 . S
C532 C535 1.403 1_655 S
H533 C539 0.930 . S
C534 H520 0.930 . S
C534 C532 1.395 . S
C534 C537 1.403 . S
C535 C532 1.403 1_455 S
C535 C536 1.524 . S
C535 C539 1.400 . S
C536 H521 0.960 . S
C536 H522 0.960 . S
C536 H523 0.960 . S
C536 C535 1.524 . S
C537 C534 1.403 . S
C537 C538 1.392 1_554 S
C537 C541 1.495 1_554 S
C538 C537 1.392 1_556 S
C538 C539 1.385 1_656 S
C538 C540 1.478 . S
C539 H533 0.930 . S
C539 C535 1.400 . S
C539 C538 1.385 1_454 S
C540 C538 1.478 . S
C540 C542 1.381 . S
C540 C546 1.383 1_655 S
C541 C537 1.495 1_556 S
C541 H547 0.959 1_556 S
C541 H548 0.961 . S
C541 H549 0.960 . S
C542 C540 1.381 . S
C542 C543 1.394 . S
C542 H550 0.930 . S
C543 C542 1.394 . S
C543 C544 1.406 . S
C543 H551 0.929 . S
C544 C543 1.406 . S
C544 C545 1.358 1_655 S
C545 H529 0.930 . S
C545 C544 1.358 1_455 S
C545 C546 1.379 . S
C546 H530 0.931 . S
C546 C540 1.383 1_455 S
C546 C545 1.379 . S
H547 C541 0.959 1_554 S
H548 C541 0.961 . S
H549 C541 0.960 . S
H550 C542 0.930 . S
H551 C543 0.929 . S
H552 C560 0.929 . S
H553 C562 0.930 . S
H554 C564 0.930 . S
H555 C567 0.929 . S
H556 C570 0.930 . S
H557 C572 0.960 . S
H558 C572 0.960 . S
H559 C572 0.960 . S
C560 H552 0.929 . S
C560 C561 1.377 . S
C560 C562 1.384 . S
C561 C560 1.377 . S
C561 C567 1.390 1_455 S
C562 H553 0.930 . S
C562 C560 1.384 . S
C562 C563 1.356 1_455 S
C563 C562 1.356 1_655 S
C563 C564 1.412 . S
C563 C568 1.494 . S
C564 H554 0.930 . S
C564 C563 1.412 . S
C564 C567 1.386 . S
H565 C581 0.930 . S
H566 C582 0.931 . S
C567 H555 0.929 . S
C567 C561 1.390 1_655 S
C567 C564 1.386 . S
C568 C563 1.494 . S
C568 C570 1.395 1_655 S
C568 C571 1.403 . S
H569 C575 0.930 . S
C570 H556 0.930 . S
C570 C568 1.395 1_455 S
C570 C573 1.403 . S
C571 C568 1.403 . S
C571 C572 1.524 . S
C571 C575 1.400 . S
C572 H557 0.960 . S
C572 H558 0.960 . S
C572 H559 0.960 . S
C572 C571 1.524 . S
C573 C570 1.403 . S
C573 C574 1.392 1_455 S
C573 C577 1.495 . S
C574 C573 1.392 1_655 S
C574 C575 1.385 . S
C574 C576 1.478 . S
C575 H569 0.930 . S
C575 C571 1.400 . S
C575 C574 1.385 . S
C576 C574 1.478 . S
C576 C578 1.381 . S
C576 C582 1.383 . S
C577 C573 1.495 . S
C577 H583 0.959 . S
C577 H584 0.961 . S
C577 H585 0.960 . S
C578 C576 1.381 . S
C578 C579 1.394 . S
C578 H586 0.930 1_655 S
C579 C578 1.394 . S
C579 C580 1.383 . S
C579 H587 0.929 . S
C580 C579 1.383 . S
C580 C581 1.377 . S
C581 H565 0.930 . S
C581 C580 1.377 . S
C581 C582 1.379 . S
C582 H566 0.931 . S
C582 C576 1.383 . S
C582 C581 1.379 . S
H583 C577 0.959 . S
H584 C577 0.961 . S
H585 C577 0.960 . S
H586 C578 0.930 1_455 S
H587 C579 0.929 . S
H588 C596 0.929 . S
H589 C598 0.930 . S
H590 C600 0.930 . S
H591 C603 0.929 . S
H592 C606 0.930 . S
H593 C608 0.960 . S
H594 C608 0.960 . S
H595 C608 0.960 . S
C596 H588 0.929 . S
C596 C597 1.377 1_565 S
C596 C598 1.384 . S
C597 C596 1.377 1_545 S
C597 C603 1.390 . S
C598 H589 0.930 . S
C598 C596 1.384 . S
C598 C599 1.372 . S
C599 C598 1.372 . S
C599 C600 1.400 1_565 S
C599 C604 1.490 . S
C600 H590 0.930 . S
C600 C599 1.400 1_545 S
C600 C603 1.386 . S
H601 C617 0.930 . S
H602 C618 0.931 . S
C603 H591 0.929 . S
C603 C597 1.390 . S
C603 C600 1.386 . S
C604 C599 1.490 . S
C604 C606 1.395 . S
C604 C607 1.403 1_565 S
H605 C611 0.930 . S
C606 H592 0.930 . S
C606 C604 1.395 . S
C606 C609 1.403 . S
C607 C604 1.403 1_545 S
C607 C608 1.524 . S
C607 C611 1.400 . S
C608 H593 0.960 . S
C608 H594 0.960 . S
C608 H595 0.960 . S
C608 C607 1.524 . S
C609 C606 1.403 . S
C609 C610 1.392 . S
C609 C613 1.495 . S
C610 C609 1.392 . S
C610 C611 1.385 1_565 S
C610 C612 1.478 . S
C611 H605 0.930 . S
C611 C607 1.400 . S
C611 C610 1.385 1_545 S
C612 C610 1.478 . S
C612 C614 1.381 . S
C612 C618 1.383 . S
C613 C609 1.495 . S
C613 H619 0.959 . S
C613 H620 0.961 . S
C613 H621 0.960 . S
C614 C612 1.381 . S
C614 C615 1.394 . S
C614 H622 0.930 . S
C615 C614 1.394 . S
C615 C616 1.383 . S
C615 H623 0.929 . S
C616 C615 1.383 . S
C616 C617 1.377 . S
C617 H601 0.930 . S
C617 C616 1.377 . S
C617 C618 1.379 . S
C618 H602 0.931 . S
C618 C612 1.383 . S
C618 C617 1.379 . S
H619 C613 0.959 . S
H620 C613 0.961 . S
H621 C613 0.960 . S
H622 C614 0.930 . S
H623 C615 0.929 . S
H624 C632 0.929 . S
H625 C634 0.930 . S
H626 C636 0.930 . S
H627 C639 0.929 . S
H628 C642 0.930 . S
H629 C644 0.960 . S
H630 C644 0.960 . S
H631 C644 0.960 . S
C632 H624 0.929 . S
C632 C633 1.377 . S
C632 C634 1.384 . S
C633 C632 1.377 . S
C633 C639 1.390 . S
C634 H625 0.930 . S
C634 C632 1.384 . S
C634 C635 1.372 . S
C635 C634 1.372 . S
C635 C636 1.400 . S
C635 C640 1.490 . S
C636 H626 0.930 . S
C636 C635 1.400 . S
C636 C639 1.386 . S
H637 C653 0.930 . S
H638 C654 0.931 . S
C639 H627 0.929 . S
C639 C633 1.390 . S
C639 C636 1.386 . S
C640 C635 1.490 . S
C640 C642 1.395 . S
C640 C643 1.403 . S
H641 C647 0.930 . S
C642 H628 0.930 . S
C642 C640 1.395 . S
C642 C645 1.403 . S
C643 C640 1.403 . S
C643 C644 1.524 . S
C643 C647 1.400 . S
C644 H629 0.960 . S
C644 H630 0.960 . S
C644 H631 0.960 . S
C644 C643 1.524 . S
C645 C642 1.403 . S
C645 C646 1.392 . S
C645 C649 1.495 . S
C646 C645 1.392 . S
C646 C647 1.385 . S
C646 C648 1.478 . S
C647 H641 0.930 . S
C647 C643 1.400 . S
C647 C646 1.385 . S
C648 C646 1.478 . S
C648 C650 1.381 . S
C648 C654 1.383 . S
C649 C645 1.495 . S
C649 H655 0.959 . S
C649 H656 0.961 . S
C649 H657 0.960 . S
C650 C648 1.381 . S
C650 C651 1.394 . S
C650 H658 0.930 . S
C651 C650 1.394 . S
C651 C652 1.383 . S
C651 H659 0.929 . S
C652 C651 1.383 . S
C652 C653 1.377 . S
C653 H637 0.930 . S
C653 C652 1.377 . S
C653 C654 1.379 . S
C654 H638 0.931 . S
C654 C648 1.383 . S
C654 C653 1.379 . S
H655 C649 0.959 . S
H656 C649 0.961 . S
H657 C649 0.960 . S
H658 C650 0.930 . S
H659 C651 0.929 . S
H660 C668 0.929 . S
H661 C670 0.930 . S
H662 C672 0.930 . S
H663 C675 0.929 . S
H664 C678 0.930 . S
H665 C680 0.960 . S
H666 C680 0.960 . S
H667 C680 0.960 . S
C668 H660 0.929 . S
C668 C669 1.377 . S
C668 C670 1.384 . S
C669 C668 1.377 . S
C669 C675 1.390 . S
C670 H661 0.930 . S
C670 C668 1.384 . S
C670 C671 1.372 . S
C671 C670 1.372 . S
C671 C672 1.400 . S
C671 C676 1.490 . S
C672 H662 0.930 . S
C672 C671 1.400 . S
C672 C675 1.386 . S
H673 C689 0.930 . S
H674 C690 0.931 . S
C675 H663 0.929 . S
C675 C669 1.390 . S
C675 C672 1.386 . S
C676 C671 1.490 . S
C676 C678 1.395 . S
C676 C679 1.403 . S
H677 C683 0.930 . S
C678 H664 0.930 . S
C678 C676 1.395 . S
C678 C681 1.403 . S
C679 C676 1.403 . S
C679 C680 1.524 . S
C679 C683 1.400 . S
C680 H665 0.960 . S
C680 H666 0.960 . S
C680 H667 0.960 . S
C680 C679 1.524 . S
C681 C678 1.403 . S
C681 C682 1.392 . S
C681 C685 1.495 . S
C682 C681 1.392 . S
C682 C683 1.385 . S
C682 C684 1.478 . S
C683 H677 0.930 . S
C683 C679 1.400 . S
C683 C682 1.385 . S
C684 C682 1.478 . S
C684 C686 1.381 . S
C684 C690 1.383 . S
C685 C681 1.495 . S
C685 H691 0.959 . S
C685 H692 0.961 . S
C685 H693 0.960 . S
C686 C684 1.381 . S
C686 C687 1.394 . S
C686 H694 0.930 . S
C687 C686 1.394 . S
C687 C688 1.383 . S
C687 H695 0.929 . S
C688 C687 1.383 . S
C688 C689 1.377 . S
C689 H673 0.930 . S
C689 C688 1.377 . S
C689 C690 1.379 . S
C690 H674 0.931 . S
C690 C684 1.383 . S
C690 C689 1.379 . S
H691 C685 0.959 . S
H692 C685 0.961 . S
H693 C685 0.960 . S
H694 C686 0.930 . S
H695 C687 0.929 . S
H696 C704 0.929 . S
H697 C706 0.930 . S
H698 C708 0.930 . S
H699 C711 0.929 . S
H700 C714 0.930 . S
H701 C716 0.960 . S
H702 C716 0.960 . S
H703 C716 0.960 . S
C704 H696 0.929 . S
C704 C705 1.377 . S
C704 C706 1.384 . S
C705 C704 1.377 . S
C705 C711 1.390 1_655 S
C706 H697 0.930 . S
C706 C704 1.384 . S
C706 C707 1.372 1_655 S
C707 C706 1.372 1_455 S
C707 C708 1.400 . S
C707 C712 1.490 . S
C708 H698 0.930 . S
C708 C707 1.400 . S
C708 C711 1.386 . S
H709 C725 0.930 . S
H710 C726 0.931 . S
C711 H699 0.929 . S
C711 C705 1.390 1_455 S
C711 C708 1.386 . S
C712 C707 1.490 . S
C712 C714 1.395 . S
C712 C715 1.408 . S
H713 C719 0.930 1_655 S
C714 H700 0.930 . S
C714 C712 1.395 . S
C714 C717 1.403 . S
C715 C712 1.408 . S
C715 C716 1.515 1_455 S
C715 C719 1.403 . S
C716 H701 0.960 . S
C716 H702 0.960 . S
C716 H703 0.960 . S
C716 C715 1.515 1_655 S
C717 C714 1.403 . S
C717 C718 1.392 . S
C717 C721 1.495 . S
C718 C717 1.392 . S
C718 C719 1.385 . S
C718 C720 1.478 . S
C719 H713 0.930 1_455 S
C719 C715 1.403 . S
C719 C718 1.385 . S
C720 C718 1.478 . S
C720 C722 1.381 . S
C720 C726 1.383 1_554 S
C721 C717 1.495 . S
C721 H727 0.959 . S
C721 H728 0.961 . S
C721 H729 0.960 . S
C722 C720 1.381 . S
C722 C723 1.394 . S
C722 H730 0.930 . S
C723 C722 1.394 . S
C723 C724 1.383 1_554 S
C723 H731 0.929 . S
C724 C723 1.383 1_556 S
C724 C725 1.377 . S
C725 H709 0.930 . S
C725 C724 1.377 . S
C725 C726 1.379 . S
C726 H710 0.931 . S
C726 C720 1.383 1_556 S
C726 C725 1.379 . S
H727 C721 0.959 . S
H728 C721 0.961 . S
H729 C721 0.960 . S
H730 C722 0.930 . S
H731 C723 0.929 . S
H732 C740 0.929 . S
H733 C742 0.930 . S
H734 C744 0.930 . S
H735 C747 0.929 . S
H736 C750 0.930 . S
H737 C752 0.960 . S
H738 C752 0.960 . S
H739 C752 0.960 . S
C740 H732 0.929 . S
C740 C741 1.377 1_545 S
C740 C742 1.384 . S
C741 C740 1.377 1_565 S
C741 C747 1.390 . S
C742 H733 0.930 . S
C742 C740 1.384 . S
C742 C743 1.372 . S
C743 C742 1.372 . S
C743 C744 1.400 1_545 S
C743 C748 1.490 . S
C744 H734 0.930 . S
C744 C743 1.400 1_565 S
C744 C747 1.386 . S
H745 C761 0.930 . S
H746 C762 0.931 . S
C747 H735 0.929 . S
C747 C741 1.390 . S
C747 C744 1.386 . S
C748 C743 1.490 . S
C748 C750 1.395 . S
C748 C751 1.403 1_545 S
H749 C755 0.930 1_565 S
C750 H736 0.930 . S
C750 C748 1.395 . S
C750 C753 1.403 . S
C751 C748 1.403 1_565 S
C751 C752 1.524 . S
C751 C755 1.400 1_565 S
C752 H737 0.960 . S
C752 H738 0.960 . S
C752 H739 0.960 . S
C752 C751 1.524 . S
C753 C750 1.403 . S
C753 C754 1.392 . S
C753 C757 1.495 . S
C754 C753 1.392 . S
C754 C755 1.385 . S
C754 C756 1.478 . S
C755 H749 0.930 1_545 S
C755 C751 1.400 1_545 S
C755 C754 1.385 . S
C756 C754 1.478 . S
C756 C758 1.381 . S
C756 C762 1.383 1_554 S
C757 C753 1.495 . S
C757 H763 0.959 . S
C757 H764 0.961 . S
C757 H765 0.960 . S
C758 C756 1.381 . S
C758 C759 1.394 . S
C758 H766 0.930 . S
C759 C758 1.394 . S
C759 C760 1.383 1_554 S
C759 H767 0.929 . S
C760 C759 1.383 1_556 S
C760 C761 1.377 . S
C761 H745 0.930 . S
C761 C760 1.377 . S
C761 C762 1.379 . S
C762 H746 0.931 . S
C762 C756 1.383 1_556 S
C762 C761 1.379 . S
H763 C757 0.959 . S
H764 C757 0.961 . S
H765 C757 0.960 . S
H766 C758 0.930 . S
H767 C759 0.929 . S
H768 C776 0.929 . S
H769 C778 0.930 . S
H770 C780 0.930 . S
H771 C783 0.929 . S
H772 C786 0.930 . S
H773 C788 0.960 . S
H774 C788 0.960 . S
H775 C788 0.960 . S
C776 H768 0.929 . S
C776 C777 1.377 . S
C776 C778 1.384 . S
C777 C776 1.377 . S
C777 C783 1.390 . S
C778 H769 0.930 . S
C778 C776 1.384 . S
C778 C779 1.372 . S
C779 C778 1.372 . S
C779 C780 1.400 . S
C779 C784 1.490 . S
C780 H770 0.930 . S
C780 C779 1.400 . S
C780 C783 1.386 . S
H781 C797 0.930 . S
H782 C798 0.931 . S
C783 H771 0.929 . S
C783 C777 1.390 . S
C783 C780 1.386 . S
C784 C779 1.490 . S
C784 C786 1.395 . S
C784 C787 1.403 . S
H785 C791 0.930 . S
C786 H772 0.930 . S
C786 C784 1.395 . S
C786 C789 1.403 . S
C787 C784 1.403 . S
C787 C788 1.524 . S
C787 C791 1.400 . S
C788 H773 0.960 . S
C788 H774 0.960 . S
C788 H775 0.960 . S
C788 C787 1.524 . S
C789 C786 1.403 . S
C789 C790 1.392 . S
C789 C793 1.495 . S
C790 C789 1.392 . S
C790 C791 1.385 . S
C790 C792 1.478 . S
C791 H785 0.930 . S
C791 C787 1.400 . S
C791 C790 1.385 . S
C792 C790 1.478 . S
C792 C794 1.381 1_554 S
C792 C798 1.383 . S
C793 C789 1.495 . S
C793 H799 0.959 . S
C793 H800 0.961 . S
C793 H801 0.960 . S
C794 C792 1.381 1_556 S
C794 C795 1.394 . S
C794 H802 0.930 . S
C795 C794 1.394 . S
C795 C796 1.383 . S
C795 H803 0.929 . S
C796 C795 1.383 . S
C796 C797 1.377 1_556 S
C797 H781 0.930 . S
C797 C796 1.377 1_554 S
C797 C798 1.379 . S
C798 H782 0.931 . S
C798 C792 1.383 . S
C798 C797 1.379 . S
H799 C793 0.959 . S
H800 C793 0.961 . S
H801 C793 0.960 . S
H802 C794 0.930 . S
H803 C795 0.929 . S
H804 C812 0.929 . S
H805 C814 0.930 . S
H806 C816 0.930 . S
H807 C819 0.929 . S
H808 C822 0.930 . S
H809 C824 0.960 1_556 S
H810 C824 0.960 . S
H811 C824 0.960 . S
C812 H804 0.929 . S
C812 C813 1.377 . S
C812 C814 1.384 . S
C813 C812 1.377 . S
C813 C819 1.390 . S
C814 H805 0.930 . S
C814 C812 1.384 . S
C814 C815 1.372 . S
C815 C814 1.372 . S
C815 C816 1.400 . S
C815 C820 1.490 . S
C816 H806 0.930 . S
C816 C815 1.400 . S
C816 C819 1.386 . S
H817 C833 0.930 . S
H818 C834 0.931 . S
C819 H807 0.929 . S
C819 C813 1.390 . S
C819 C816 1.386 . S
C820 C815 1.490 . S
C820 C822 1.395 . S
C820 C823 1.403 . S
H821 C827 0.930 . S
C822 H808 0.930 . S
C822 C820 1.395 . S
C822 C825 1.403 . S
C823 C820 1.403 . S
C823 C824 1.524 . S
C823 C827 1.400 . S
C824 H809 0.960 1_554 S
C824 H810 0.960 . S
C824 H811 0.960 . S
C824 C823 1.524 . S
C825 C822 1.403 . S
C825 C826 1.392 . S
C825 C829 1.495 . S
C826 C825 1.392 . S
C826 C827 1.385 . S
C826 C828 1.478 . S
C827 H821 0.930 . S
C827 C823 1.400 . S
C827 C826 1.385 . S
C828 C826 1.478 . S
C828 C830 1.381 . S
C828 C834 1.383 . S
C829 C825 1.495 . S
C829 H835 0.959 . S
C829 H836 0.961 . S
C829 H837 0.960 . S
C830 C828 1.381 . S
C830 C831 1.394 . S
C830 H838 0.930 . S
C831 C830 1.394 . S
C831 C832 1.383 1_554 S
C831 H839 0.929 . S
C832 C831 1.383 1_556 S
C832 C833 1.377 . S
C833 H817 0.930 . S
C833 C832 1.377 . S
C833 C834 1.379 1_556 S
C834 H818 0.931 . S
C834 C828 1.383 . S
C834 C833 1.379 1_554 S
H835 C829 0.959 . S
H836 C829 0.961 . S
H837 C829 0.960 . S
H838 C830 0.930 . S
H839 C831 0.929 . S
H840 C848 0.929 . S
H841 C850 0.930 . S
H842 C852 0.930 . S
H843 C855 0.929 . S
H844 C858 0.930 . S
H845 C860 0.960 . S
H846 C860 0.925 1_455 S
H847 C860 0.960 . S
C848 H840 0.929 . S
C848 C849 1.377 . S
C848 C850 1.384 . S
C849 C848 1.377 . S
C849 C855 1.390 1_455 S
C850 H841 0.930 . S
C850 C848 1.384 . S
C850 C851 1.372 . S
C851 C850 1.372 . S
C851 C852 1.400 1_455 S
C851 C856 1.490 . S
C852 H842 0.930 . S
C852 C851 1.400 1_655 S
C852 C855 1.386 . S
H853 C869 0.930 . S
H854 C870 0.931 . S
C855 H843 0.929 . S
C855 C849 1.390 1_655 S
C855 C852 1.386 . S
C856 C851 1.490 . S
C856 C858 1.395 . S
C856 C859 1.403 . S
H857 C863 0.930 1_655 S
C858 H844 0.930 . S
C858 C856 1.395 . S
C858 C861 1.403 . S
C859 C856 1.403 . S
C859 C860 1.524 1_455 S
C859 C863 1.400 . S
C860 H845 0.960 . S
C860 H846 0.925 1_655 S
C860 H847 0.960 . S
C860 C859 1.524 1_655 S
C861 C858 1.403 . S
C861 C862 1.392 . S
C861 C865 1.495 . S
C862 C861 1.392 . S
C862 C863 1.385 . S
C862 C864 1.478 . S
C863 H857 0.930 1_455 S
C863 C859 1.400 . S
C863 C862 1.385 . S
C864 C862 1.478 . S
C864 C866 1.381 . S
C864 C870 1.383 1_455 S
C865 C861 1.495 . S
C865 H871 0.959 . S
C865 H872 0.961 . S
C865 H873 0.960 . S
C866 C864 1.381 . S
C866 C867 1.394 . S
C866 H874 0.930 . S
C867 C866 1.394 . S
C867 C868 1.383 . S
C867 H875 0.929 . S
C868 C867 1.383 . S
C868 C869 1.377 1_455 S
C869 H853 0.930 . S
C869 C868 1.377 1_655 S
C869 C870 1.379 . S
C870 H854 0.931 . S
C870 C864 1.383 1_655 S
C870 C869 1.379 . S
H871 C865 0.959 . S
H872 C865 0.961 . S
H873 C865 0.960 . S
H874 C866 0.930 . S
H875 C867 0.929 . S
H876 C884 0.929 . S
H877 C886 0.930 . S
H878 C888 0.930 . S
H879 C891 0.929 . S
H880 C894 0.930 . S
H881 C896 0.960 1_554 S
H882 C896 0.960 1_565 S
H883 C896 0.960 . S
C884 H876 0.929 . S
C884 C885 1.377 1_565 S
C884 C886 1.384 . S
C885 C884 1.377 1_545 S
C885 C891 1.390 . S
C886 H877 0.930 . S
C886 C884 1.384 . S
C886 C887 1.372 1_565 S
C887 C886 1.372 1_545 S
C887 C888 1.400 . S
C887 C892 1.490 . S
C888 H878 0.930 . S
C888 C887 1.400 . S
C888 C891 1.386 . S
H889 C905 0.930 . S
H890 C906 0.931 . S
C891 H879 0.929 . S
C891 C885 1.390 . S
C891 C888 1.386 . S
C892 C887 1.490 . S
C892 C894 1.395 . S
C892 C895 1.403 . S
H893 C899 0.930 . S
C894 H880 0.930 . S
C894 C892 1.395 . S
C894 C897 1.403 . S
C895 C892 1.403 . S
C895 C896 1.524 . S
C895 C899 1.400 . S
C896 H881 0.960 1_556 S
C896 H882 0.960 1_545 S
C896 H883 0.960 . S
C896 C895 1.524 . S
C897 C894 1.403 . S
C897 C898 1.392 . S
C897 C901 1.495 . S
C898 C897 1.392 . S
C898 C899 1.385 . S
C898 C900 1.478 . S
C899 H893 0.930 . S
C899 C895 1.400 . S
C899 C898 1.385 . S
C900 C898 1.478 . S
C900 C902 1.381 1_545 S
C900 C906 1.383 . S
C901 C897 1.495 . S
C901 H907 0.959 . S
C901 H908 0.961 . S
C901 H909 0.960 1_545 S
C902 C900 1.381 1_565 S
C902 C903 1.394 . S
C902 H910 0.930 . S
C903 C902 1.394 . S
C903 C904 1.383 1_565 S
C903 H911 0.929 . S
C904 C903 1.383 1_545 S
C904 C905 1.377 . S
C905 H889 0.930 . S
C905 C904 1.377 . S
C905 C906 1.379 . S
C906 H890 0.931 . S
C906 C900 1.383 . S
C906 C905 1.379 . S
H907 C901 0.959 . S
H908 C901 0.961 . S
H909 C901 0.960 1_565 S
H910 C902 0.930 . S
H911 C903 0.929 . S
H912 C920 0.929 . S
H913 C922 0.930 . S
H914 C924 0.930 . S
H915 C927 0.929 . S
H916 C930 0.930 . S
H917 C932 0.960 . S
H918 C932 0.960 . S
H919 C932 0.960 . S
C920 H912 0.929 . S
C920 C921 1.377 . S
C920 C922 1.384 . S
C921 C920 1.377 . S
C921 C927 1.390 . S
C922 H913 0.930 . S
C922 C920 1.384 . S
C922 C923 1.372 . S
C923 C922 1.372 . S
C923 C924 1.400 . S
C923 C928 1.490 . S
C924 H914 0.930 . S
C924 C923 1.400 . S
C924 C927 1.386 . S
H925 C941 0.930 . S
H926 C942 0.931 . S
C927 H915 0.929 . S
C927 C921 1.390 . S
C927 C924 1.386 . S
C928 C923 1.490 . S
C928 C930 1.395 . S
C928 C931 1.403 . S
H929 C935 0.930 . S
C930 H916 0.930 . S
C930 C928 1.395 . S
C930 C933 1.403 . S
C931 C928 1.403 . S
C931 C932 1.524 . S
C931 C935 1.400 . S
C932 H917 0.960 . S
C932 H918 0.960 . S
C932 H919 0.960 . S
C932 C931 1.524 . S
C933 C930 1.403 . S
C933 C934 1.392 . S
C933 C937 1.495 . S
C934 C933 1.392 . S
C934 C935 1.385 . S
C934 C936 1.478 . S
C935 H929 0.930 . S
C935 C931 1.400 . S
C935 C934 1.385 . S
C936 C934 1.478 . S
C936 C938 1.381 . S
C936 C942 1.383 . S
C937 C933 1.495 . S
C937 H943 0.959 . S
C937 H944 0.961 . S
C937 H945 0.960 . S
C938 C936 1.381 . S
C938 C939 1.394 . S
C938 H946 0.930 . S
C939 C938 1.394 . S
C939 C940 1.383 . S
C939 H947 0.929 . S
C940 C939 1.383 . S
C940 C941 1.377 . S
C941 H925 0.930 . S
C941 C940 1.377 . S
C941 C942 1.379 . S
C942 H926 0.931 . S
C942 C936 1.383 . S
C942 C941 1.379 . S
H943 C937 0.959 . S
H944 C937 0.961 . S
H945 C937 0.960 . S
H946 C938 0.930 . S
H947 C939 0.929 . S
H948 C956 0.929 . S
H949 C958 0.930 . S
H950 C960 0.930 . S
H951 C963 0.929 . S
H952 C966 0.930 . S
H953 C968 0.960 . S
H954 C968 0.960 . S
H955 C968 0.960 . S
C956 H948 0.929 . S
C956 C957 1.377 . S
C956 C958 1.384 . S
C957 C956 1.377 . S
C957 C963 1.390 . S
C958 H949 0.930 . S
C958 C956 1.384 . S
C958 C959 1.372 . S
C959 C958 1.372 . S
C959 C960 1.400 . S
C959 C964 1.490 . S
C960 H950 0.930 . S
C960 C959 1.400 . S
C960 C963 1.386 . S
H961 C977 0.930 . S
H962 C978 0.931 . S
C963 H951 0.929 . S
C963 C957 1.390 . S
C963 C960 1.386 . S
C964 C959 1.490 . S
C964 C966 1.395 . S
C964 C967 1.403 . S
H965 C971 0.930 . S
C966 H952 0.930 . S
C966 C964 1.395 . S
C966 C969 1.403 . S
C967 C964 1.403 . S
C967 C968 1.524 . S
C967 C971 1.400 . S
C968 H953 0.960 . S
C968 H954 0.960 . S
C968 H955 0.960 . S
C968 C967 1.524 . S
C969 C966 1.403 . S
C969 C970 1.392 . S
C969 C973 1.495 . S
C970 C969 1.392 . S
C970 C971 1.385 . S
C970 C972 1.478 . S
C971 H965 0.930 . S
C971 C967 1.400 . S
C971 C970 1.385 . S
C972 C970 1.478 . S
C972 C974 1.381 . S
C972 C978 1.383 . S
C973 C969 1.495 . S
C973 H979 0.959 1_556 S
C973 H980 0.961 . S
C973 H981 0.960 . S
C974 C972 1.381 . S
C974 C975 1.394 . S
C974 H982 0.930 . S
C975 C974 1.394 . S
C975 C976 1.383 . S
C975 H983 0.929 . S
C976 C975 1.383 . S
C976 C977 1.377 . S
C977 H961 0.930 . S
C977 C976 1.377 . S
C977 C978 1.379 . S
C978 H962 0.931 . S
C978 C972 1.383 . S
C978 C977 1.379 . S
H979 C973 0.959 1_554 S
H980 C973 0.961 . S
H981 C973 0.960 . S
H982 C974 0.930 . S
H983 C975 0.929 . S
H984 C992 0.929 . S
H985 C994 0.930 . S
H986 C996 0.930 . S
H987 C999 0.929 . S
H988 C1002 0.930 . S
H989 C1004 0.960 . S
H990 C1004 0.960 . S
H991 C1004 0.960 . S
C992 H984 0.929 . S
C992 C993 1.332 1_455 S
C992 C994 1.384 . S
C993 C992 1.332 1_655 S
C993 C999 1.437 . S
C994 H985 0.930 . S
C994 C992 1.384 . S
C994 C995 1.372 1_455 S
C995 C994 1.372 1_655 S
C995 C996 1.400 . S
C995 C1000 1.490 . S
C996 H986 0.930 . S
C996 C995 1.400 . S
C996 C999 1.386 . S
H997 C1013 0.930 . S
H998 C1014 0.931 . S
C999 H987 0.929 . S
C999 C993 1.437 . S
C999 C996 1.386 . S
C1000 C995 1.490 . S
C1000 C1002 1.395 1_655 S
C1000 C1003 1.403 . S
H1001 C1007 0.930 . S
C1002 H988 0.930 . S
C1002 C1000 1.395 1_455 S
C1002 C1005 1.403 . S
C1003 C1000 1.403 . S
C1003 C1004 1.524 . S
C1003 C1007 1.400 . S
C1004 H989 0.960 . S
C1004 H990 0.960 . S
C1004 H991 0.960 . S
C1004 C1003 1.524 . S
C1005 C1002 1.403 . S
C1005 C1006 1.392 1_455 S
C1005 C1009 1.495 . S
C1006 C1005 1.392 1_655 S
C1006 C1007 1.385 . S
C1006 C1008 1.478 . S
C1007 H1001 0.930 . S
C1007 C1003 1.400 . S
C1007 C1006 1.385 . S
C1008 C1006 1.478 . S
C1008 C1010 1.381 1_655 S
C1008 C1014 1.383 . S
C1009 C1005 1.495 . S
C1009 H1015 0.959 . S
C1009 H1016 0.961 . S
C1009 H1017 0.960 . S
C1010 C1008 1.381 1_455 S
C1010 C1011 1.394 . S
C1010 H1018 0.930 . S
C1011 C1010 1.394 . S
C1011 C1012 1.383 1_455 S
C1011 H1019 0.929 . S
C1012 C1011 1.383 1_655 S
C1012 C1013 1.377 . S
C1013 H997 0.930 . S
C1013 C1012 1.377 . S
C1013 C1014 1.379 . S
C1014 H998 0.931 . S
C1014 C1008 1.383 . S
C1014 C1013 1.379 . S
H1015 C1009 0.959 . S
H1016 C1009 0.961 . S
H1017 C1009 0.960 . S
H1018 C1010 0.930 . S
H1019 C1011 0.929 . S
H1020 C1028 0.929 . S
H1021 C1030 0.930 . S
H1022 C1032 0.930 . S
H1023 C1035 0.929 . S
H1024 C1038 0.930 . S
H1025 C1040 0.960 . S
H1026 C1040 0.960 . S
H1027 C1040 0.960 . S
C1028 H1020 0.929 . S
C1028 C1029 1.332 1_545 S
C1028 C1030 1.384 . S
C1029 C1028 1.332 1_565 S
C1029 C1035 1.437 . S
C1030 H1021 0.930 . S
C1030 C1028 1.384 . S
C1030 C1031 1.372 1_545 S
C1031 C1030 1.372 1_565 S
C1031 C1032 1.400 . S
C1031 C1036 1.490 . S
C1032 H1022 0.930 . S
C1032 C1031 1.400 . S
C1032 C1035 1.386 . S
H1033 C1049 0.930 . S
H1034 C1050 0.931 . S
C1035 H1023 0.929 . S
C1035 C1029 1.437 . S
C1035 C1032 1.386 . S
C1036 C1031 1.490 . S
C1036 C1038 1.395 1_565 S
C1036 C1039 1.403 . S
H1037 C1043 0.930 . S
C1038 H1024 0.930 . S
C1038 C1036 1.395 1_545 S
C1038 C1041 1.403 . S
C1039 C1036 1.403 . S
C1039 C1040 1.524 . S
C1039 C1043 1.400 . S
C1040 H1025 0.960 . S
C1040 H1026 0.960 . S
C1040 H1027 0.960 . S
C1040 C1039 1.524 . S
C1041 C1038 1.403 . S
C1041 C1042 1.392 1_545 S
C1041 C1045 1.495 . S
C1042 C1041 1.392 1_565 S
C1042 C1043 1.385 . S
C1042 C1044 1.478 . S
C1043 H1037 0.930 . S
C1043 C1039 1.400 . S
C1043 C1042 1.385 . S
C1044 C1042 1.478 . S
C1044 C1046 1.381 1_565 S
C1044 C1050 1.383 . S
C1045 C1041 1.495 . S
C1045 H1051 0.959 . S
C1045 H1052 0.961 1_545 S
C1045 H1053 0.960 . S
C1046 C1044 1.381 1_545 S
C1046 C1047 1.394 . S
C1046 H1054 0.930 . S
C1047 C1046 1.394 . S
C1047 C1048 1.383 1_545 S
C1047 H1055 0.929 . S
C1048 C1047 1.383 1_565 S
C1048 C1049 1.377 . S
C1049 H1033 0.930 . S
C1049 C1048 1.377 . S
C1049 C1050 1.379 . S
C1050 H1034 0.931 . S
C1050 C1044 1.383 . S
C1050 C1049 1.379 . S
H1051 C1045 0.959 . S
H1052 C1045 0.961 1_565 S
H1053 C1045 0.960 . S
H1054 C1046 0.930 . S
H1055 C1047 0.929 . S
H1056 C1064 0.929 . S
H1057 C1066 0.930 . S
H1058 C1068 0.930 . S
H1059 C1071 0.929 . S
H1060 C1074 0.930 . S
H1061 C1076 0.960 . S
H1062 C1076 0.960 . S
H1063 C1076 0.960 . S
C1064 H1056 0.929 . S
C1064 C1065 1.377 . S
C1064 C1066 1.384 . S
C1065 C1064 1.377 . S
C1065 C1071 1.390 . S
C1066 H1057 0.930 . S
C1066 C1064 1.384 . S
C1066 C1067 1.372 . S
C1067 C1066 1.372 . S
C1067 C1068 1.400 . S
C1067 C1072 1.490 . S
C1068 H1058 0.930 . S
C1068 C1067 1.400 . S
C1068 C1071 1.386 . S
H1069 C1085 0.930 . S
H1070 C1086 0.931 . S
C1071 H1059 0.929 . S
C1071 C1065 1.390 . S
C1071 C1068 1.386 . S
C1072 C1067 1.490 . S
C1072 C1074 1.395 . S
C1072 C1075 1.403 . S
H1073 C1079 0.930 . S
C1074 H1060 0.930 . S
C1074 C1072 1.395 . S
C1074 C1077 1.403 . S
C1075 C1072 1.403 . S
C1075 C1076 1.524 . S
C1075 C1079 1.400 . S
C1076 H1061 0.960 . S
C1076 H1062 0.960 . S
C1076 H1063 0.960 . S
C1076 C1075 1.524 . S
C1077 C1074 1.403 . S
C1077 C1078 1.392 . S
C1077 C1081 1.495 . S
C1078 C1077 1.392 . S
C1078 C1079 1.385 . S
C1078 C1080 1.478 . S
C1079 H1073 0.930 . S
C1079 C1075 1.400 . S
C1079 C1078 1.385 . S
C1080 C1078 1.478 . S
C1080 C1082 1.381 . S
C1080 C1086 1.383 . S
C1081 C1077 1.495 . S
C1081 H1087 0.959 . S
C1081 H1088 0.961 . S
C1081 H1089 0.960 . S
C1082 C1080 1.381 . S
C1082 C1083 1.394 . S
C1082 H1090 0.930 . S
C1083 C1082 1.394 . S
C1083 C1084 1.383 . S
C1083 H1091 0.929 . S
C1084 C1083 1.383 . S
C1084 C1085 1.377 . S
C1085 H1069 0.930 . S
C1085 C1084 1.377 . S
C1085 C1086 1.379 . S
C1086 H1070 0.931 . S
C1086 C1080 1.383 . S
C1086 C1085 1.379 . S
H1087 C1081 0.959 . S
H1088 C1081 0.961 . S
H1089 C1081 0.960 . S
H1090 C1082 0.930 . S
H1091 C1083 0.929 . S
H1092 C1100 0.929 . S
H1093 C1102 0.930 . S
H1094 C1104 0.930 . S
H1095 C1107 0.929 . S
H1096 C1110 0.930 . S
H1097 C1112 0.960 . S
H1098 C1112 0.960 . S
H1099 C1112 0.960 . S
C1100 H1092 0.929 . S
C1100 C1101 1.377 . S
C1100 C1102 1.384 . S
C1101 C1100 1.377 . S
C1101 C1107 1.390 . S
C1102 H1093 0.930 . S
C1102 C1100 1.384 . S
C1102 C1103 1.372 . S
C1103 C1102 1.372 . S
C1103 C1104 1.400 . S
C1103 C1108 1.490 . S
C1104 H1094 0.930 . S
C1104 C1103 1.400 . S
C1104 C1107 1.386 . S
H1105 C1121 0.930 . S
H1106 C1122 0.931 . S
C1107 H1095 0.929 . S
C1107 C1101 1.390 . S
C1107 C1104 1.386 . S
C1108 C1103 1.490 . S
C1108 C1110 1.395 . S
C1108 C1111 1.403 . S
H1109 C1115 0.930 . S
C1110 H1096 0.930 . S
C1110 C1108 1.395 . S
C1110 C1113 1.403 . S
C1111 C1108 1.403 . S
C1111 C1112 1.524 . S
C1111 C1115 1.400 . S
C1112 H1097 0.960 . S
C1112 H1098 0.960 . S
C1112 H1099 0.960 . S
C1112 C1111 1.524 . S
C1113 C1110 1.403 . S
C1113 C1114 1.392 . S
C1113 C1117 1.495 . S
C1114 C1113 1.392 . S
C1114 C1115 1.385 . S
C1114 C1116 1.478 . S
C1115 H1109 0.930 . S
C1115 C1111 1.400 . S
C1115 C1114 1.385 . S
C1116 C1114 1.478 . S
C1116 C1118 1.381 . S
C1116 C1122 1.383 . S
C1117 C1113 1.495 . S
C1117 H1123 0.959 . S
C1117 H1124 0.961 . S
C1117 H1125 0.960 . S
C1118 C1116 1.381 . S
C1118 C1119 1.394 . S
C1118 H1126 0.930 . S
C1119 C1118 1.394 . S
C1119 C1120 1.383 . S
C1119 H1127 0.929 . S
C1120 C1119 1.383 . S
C1120 C1121 1.377 . S
C1121 H1105 0.930 . S
C1121 C1120 1.377 . S
C1121 C1122 1.379 . S
C1122 H1106 0.931 . S
C1122 C1116 1.383 . S
C1122 C1121 1.379 . S
H1123 C1117 0.959 . S
H1124 C1117 0.961 . S
H1125 C1117 0.960 . S
H1126 C1118 0.930 . S
H1127 C1119 0.929 . S
C273 C82 1.610 . S
C292 C114 1.797 . S
C328 C154 1.805 . S
C309 C95 1.605 . S
C364 C194 1.798 . S
C345 C56 1.610 . S
C400 C234 1.805 . S
C381 C69 1.604 . S
C436 C123 1.807 . S
C417 C30 1.593 1_565 S
C453 C43 1.593 . S
C472 C163 1.807 . S
C489 C4 1.608 . S
C508 C203 1.801 . S
C525 C17 1.607 1_655 S
C544 C243 1.806 1_655 S
C580 C120 0.275 . S
C561 C74 0.374 . S
C616 C160 0.403 . S
C597 C87 0.409 . S
C652 C200 0.333 . S
C633 C100 0.391 . S
C669 C61 0.406 . S
C688 C240 0.399 . S
C705 C22 0.401 . S
C724 C111 0.390 . S
C760 C151 0.402 . S
C741 C35 0.385 . S
C796 C191 0.289 . S
C777 C48 0.414 . S
C813 C9 0.410 . S
C832 C231 0.348 . S
C849 C73 1.871 . S
C868 C115 2.049 . S
C885 C86 1.863 . S
C904 C155 2.048 . S
C940 C195 2.032 . S
C921 C99 1.859 . S
C976 C235 2.036 . S
C957 C60 1.865 . S
C993 C21 1.871 . S
C1012 C106 2.038 . S
C1048 C146 2.040 . S
C1029 C34 1.870 . S
C1084 C186 2.057 . S
C1065 C47 1.859 . S
C1101 C8 1.863 . S
C1120 C226 2.055 . S
