# Generated by pormake.
# Topology zzz, (3,6)-cn, num edge types: 1
# Building blocks:
#     Node 0, Type 0, BuildingBlock: KAKCAD_clean_linker_0, # of connection points: 3
#     Node 1, Type 0, BuildingBlock: KAKCAD_clean_linker_0, # of connection points: 3
#     Node 2, Type 0, BuildingBlock: KAKCAD_clean_linker_0, # of connection points: 3
#     Node 3, Type 0, BuildingBlock: KAKCAD_clean_linker_0, # of connection points: 3
#     Node 4, Type 0, BuildingBlock: KAKCAD_clean_linker_0, # of connection points: 3
#     Node 5, Type 0, BuildingBlock: KAKCAD_clean_linker_0, # of connection points: 3
#     Node 6, Type 0, BuildingBlock: KAKCAD_clean_linker_0, # of connection points: 3
#     Node 7, Type 0, BuildingBlock: KAKCAD_clean_linker_0, # of connection points: 3
#     Node 8, Type 1, BuildingBlock: KUMBUR_clean_sbu_0, # of connection points: 6
#     Node 9, Type 1, BuildingBlock: KUMBUR_clean_sbu_0, # of connection points: 6
#     Node 10, Type 1, BuildingBlock: KUMBUR_clean_sbu_0, # of connection points: 6
#     Node 11, Type 1, BuildingBlock: KUMBUR_clean_sbu_0, # of connection points: 6
#     Edge 12, Type (0, 1), BuildingBlock: KIFKEQ_clean_linker_1, # of connection points: 2
#     Edge 13, Type (0, 1), BuildingBlock: KIFKEQ_clean_linker_1, # of connection points: 2
#     Edge 14, Type (0, 1), BuildingBlock: KIFKEQ_clean_linker_1, # of connection points: 2
#     Edge 15, Type (0, 1), BuildingBlock: KIFKEQ_clean_linker_1, # of connection points: 2
#     Edge 16, Type (0, 1), BuildingBlock: KIFKEQ_clean_linker_1, # of connection points: 2
#     Edge 17, Type (0, 1), BuildingBlock: KIFKEQ_clean_linker_1, # of connection points: 2
#     Edge 18, Type (0, 1), BuildingBlock: KIFKEQ_clean_linker_1, # of connection points: 2
#     Edge 19, Type (0, 1), BuildingBlock: KIFKEQ_clean_linker_1, # of connection points: 2
#     Edge 20, Type (0, 1), BuildingBlock: KIFKEQ_clean_linker_1, # of connection points: 2
#     Edge 21, Type (0, 1), BuildingBlock: KIFKEQ_clean_linker_1, # of connection points: 2
#     Edge 22, Type (0, 1), BuildingBlock: KIFKEQ_clean_linker_1, # of connection points: 2
#     Edge 23, Type (0, 1), BuildingBlock: KIFKEQ_clean_linker_1, # of connection points: 2
#     Edge 24, Type (0, 1), BuildingBlock: KIFKEQ_clean_linker_1, # of connection points: 2
#     Edge 25, Type (0, 1), BuildingBlock: KIFKEQ_clean_linker_1, # of connection points: 2
#     Edge 26, Type (0, 1), BuildingBlock: KIFKEQ_clean_linker_1, # of connection points: 2
#     Edge 27, Type (0, 1), BuildingBlock: KIFKEQ_clean_linker_1, # of connection points: 2
#     Edge 28, Type (0, 1), BuildingBlock: KIFKEQ_clean_linker_1, # of connection points: 2
#     Edge 29, Type (0, 1), BuildingBlock: KIFKEQ_clean_linker_1, # of connection points: 2
#     Edge 30, Type (0, 1), BuildingBlock: KIFKEQ_clean_linker_1, # of connection points: 2
#     Edge 31, Type (0, 1), BuildingBlock: KIFKEQ_clean_linker_1, # of connection points: 2
#     Edge 32, Type (0, 1), BuildingBlock: KIFKEQ_clean_linker_1, # of connection points: 2
#     Edge 33, Type (0, 1), BuildingBlock: KIFKEQ_clean_linker_1, # of connection points: 2
#     Edge 34, Type (0, 1), BuildingBlock: KIFKEQ_clean_linker_1, # of connection points: 2
#     Edge 35, Type (0, 1), BuildingBlock: KIFKEQ_clean_linker_1, # of connection points: 2
# Relax obj value: 0.294
# Max RMSD: 0.225
# Mean RMSD: 0.211
data_MOF--net-zzz--node1-KUMBUR_clean_sbu_0--node2-KAKCAD_clean_linker_0--edge1-KIFKEQ_clean_linker_1
_symmetry_space_group_name_H-M    P1
_symmetry_Int_Tables_number       1
_symmetry_cell_setting            triclinic
loop_
_symmetry_equiv_pos_as_xyz
'x, y, z'
_cell_length_a     58.210902
_cell_length_b     58.13273
_cell_length_c     20.189184
_cell_angle_alpha  90.768298
_cell_angle_beta   90.158873
_cell_angle_gamma 90.024176
loop_
_atom_site_label
_atom_site_type_symbol
_atom_site_fract_x
_atom_site_fract_y
_atom_site_fract_z
_atom_type_partial_charge
C0 C 0.79682 0.61116 0.93751 0.0
C1 C 0.82026 0.60576 0.93981 0.0
C2 C 0.78177 0.60197 0.98448 0.0
C3 C 0.78985 0.5866 0.03294 0.0
C4 C 0.81351 0.58161 0.03476 0.0
C5 C 0.82849 0.5913 0.98946 0.0
C6 C 0.77387 0.57463 0.07904 0.0
C7 C 0.75157 0.5685 0.05904 0.0
C8 C 0.7369 0.55568 0.10001 0.0
C9 C 0.74574 0.54739 0.16101 0.0
C10 C 0.76822 0.55363 0.18204 0.0
C11 C 0.78151 0.56782 0.14172 0.0
C12 C 0.77959 0.54509 0.24351 0.0
C13 C 0.78707 0.56106 0.29197 0.0
C14 C 0.78884 0.52277 0.24465 0.0
C15 C 0.80623 0.51706 0.29021 0.0
C16 C 0.81489 0.53354 0.33587 0.0
C17 C 0.7127 0.55146 0.07617 0.0
C18 C 0.70073 0.56927 0.04432 0.0
C19 C 0.70223 0.52966 0.07818 0.0
C20 C 0.68095 0.52562 0.04628 0.0
C21 C 0.66955 0.54326 1.01136 0.0
C22 C 0.67976 0.56523 0.01209 0.0
C23 C 0.80435 0.55537 0.33763 0.0
H24 H 0.79014 0.62203 0.89882 0.0
H25 H 0.76378 0.60659 0.98189 0.0
H26 H 0.82054 0.56936 0.06922 0.0
H27 H 0.84646 0.58644 0.99087 0.0
H28 H 0.74568 0.57313 1.01007 0.0
H29 H 0.79842 0.57295 0.15897 0.0
H30 H 0.73516 0.53677 0.19231 0.0
H31 H 0.78074 0.57858 0.2913 0.0
H32 H 0.78388 0.51025 0.20704 0.0
H33 H 0.81355 0.49995 0.28777 0.0
H34 H 0.70798 0.58641 0.04242 0.0
H35 H 0.71087 0.51552 0.10211 0.0
H36 H 0.81052 0.56867 0.37122 0.0
H37 H 0.67208 0.57934 0.9856 0.0
H38 H 0.6736 0.50855 0.04846 0.0
C39 C 0.91516 0.79432 0.94636 0.0
C40 C 0.91802 0.81828 0.9457 0.0
C41 C 0.9247 0.78136 0.99759 0.0
C42 C 0.938 0.79208 0.04779 0.0
C43 C 0.93936 0.81628 0.04887 0.0
C44 C 0.92925 0.82916 0.99909 0.0
C45 C 0.95267 0.77842 0.09382 0.0
C46 C 0.96257 0.75758 0.07263 0.0
C47 C 0.97903 0.7461 0.11104 0.0
C48 C 0.98641 0.75642 0.17182 0.0
C49 C 0.97645 0.77749 0.19422 0.0
C50 C 0.95906 0.78752 0.15592 0.0
C51 C 0.98454 0.7912 0.2535 0.0
C52 C 0.96847 0.79852 0.30142 0.0
C53 C 1.00617 0.80201 0.25335 0.0
C54 C 0.01104 0.82054 0.29712 0.0
C55 C 0.99436 0.82889 0.3422 0.0
C56 C 0.98814 0.72378 0.08337 0.0
C57 C 0.98282 0.70266 0.11294 0.0
C58 C 0.9976 0.72321 0.01922 0.0
C59 C 1.00051 0.70237 0.98424 0.0
C60 C 0.99397 0.68124 0.01198 0.0
C61 C 0.98575 0.68168 0.07784 0.0
C62 C 0.9733 0.81697 0.34503 0.0
H63 H 0.9066 0.78553 0.90555 0.0
H64 H 0.92257 0.76287 0.99587 0.0
H65 H 0.94972 0.82544 0.08512 0.0
H66 H 0.93218 0.84758 0.99925 0.0
H67 H 0.95802 0.75037 0.02462 0.0
H68 H 0.95124 0.80333 0.17363 0.0
H69 H 0.99981 0.74837 0.20071 0.0
H70 H 0.95152 0.79083 0.30241 0.0
H71 H 0.01873 0.79728 0.21609 0.0
H72 H 0.02743 0.82918 0.29275 0.0
H73 H 0.97502 0.70246 0.16157 0.0
H74 H 1.0017 0.73915 0.99463 0.0
H75 H 0.96013 0.82234 0.37971 0.0
H76 H 0.98042 0.6659 0.1012 0.0
H77 H 1.00742 0.70292 0.93456 0.0
C78 C 0.72237 0.91574 0.95701 0.0
C79 C 0.69864 0.92003 0.95773 0.0
C80 C 0.73649 0.92451 1.00774 0.0
C81 C 0.72722 0.93839 0.05893 0.0
C82 C 0.7032 0.94132 0.06107 0.0
C83 C 0.68914 0.932 0.01182 0.0
C84 C 0.74223 0.9519 0.10557 0.0
C85 C 0.76376 0.96018 0.08535 0.0
C86 C 0.77634 0.97579 0.12485 0.0
C87 C 0.76664 0.9842 0.18478 0.0
C88 C 0.74521 0.97559 0.20652 0.0
C89 C 0.73389 0.95885 0.16788 0.0
C90 C 0.73257 0.98464 0.26567 0.0
C91 C 0.72544 0.96929 0.31483 0.0
C92 C 0.72238 1.00654 0.26415 0.0
C93 C 0.7044 0.01234 0.3078 0.0
C94 C 0.69611 0.99634 0.35404 0.0
C95 C 0.79939 0.98287 0.10026 0.0
C96 C 0.81813 0.96787 0.1072 0.0
C97 C 0.80159 1.00158 0.05736 0.0
C98 C 0.82184 1.00477 0.02064 0.0
C99 C 0.84033 0.98916 0.0253 0.0
C100 C 0.83834 0.97101 0.07058 0.0
C101 C 0.70758 0.97507 0.35851 0.0
H102 H 0.73011 0.90662 0.91558 0.0
H103 H 0.75476 0.92123 1.005 0.0
H104 H 0.6951 0.95226 0.0979 0.0
H105 H 0.67099 0.93609 0.01303 0.0
H106 H 0.77064 0.95521 0.03746 0.0
H107 H 0.71773 0.95207 0.18555 0.0
H108 H 0.77568 0.99705 0.2142 0.0
H109 H 0.73271 0.95216 0.31663 0.0
H110 H 0.72705 0.01852 0.2258 0.0
H111 H 0.69604 0.02884 0.30225 0.0
H112 H 0.81671 0.953 0.13875 0.0
H113 H 0.78718 0.01301 0.04952 0.0
H114 H 0.70219 0.96245 0.39424 0.0
H115 H 0.85223 0.95883 0.07665 0.0
H116 H 0.82249 0.01881 0.986 0.0
C117 C 0.5224 0.71474 0.29299 0.0
C118 C 0.53915 0.70474 0.33442 0.0
C119 C 0.52839 0.73179 0.24715 0.0
C120 C 0.55126 0.73928 0.24165 0.0
C121 C 0.56772 0.73014 0.28504 0.0
C122 C 0.56177 0.71324 0.33086 0.0
C123 C 0.55919 0.75199 0.18212 0.0
C124 C 0.55469 0.77561 0.17131 0.0
C125 C 0.56413 0.78665 0.11531 0.0
C126 C 0.57747 0.77363 0.07049 0.0
C127 C 0.58103 0.74999 0.07857 0.0
C128 C 0.57192 0.73948 0.13499 0.0
C129 C 0.59259 0.7359 0.02578 0.0
C130 C 0.59038 0.74166 0.95849 0.0
C131 C 0.60416 0.71541 0.04137 0.0
C132 C 0.61052 0.69981 0.9915 0.0
C133 C 0.60614 0.70458 0.92439 0.0
C134 C 0.55994 0.81141 0.09916 0.0
C135 C 0.5376 0.82048 0.09556 0.0
C136 C 0.57819 0.82488 0.07549 0.0
C137 C 0.57413 0.84574 0.04374 0.0
C138 C 0.55166 0.85429 0.03581 0.0
C139 C 0.53352 0.84169 0.06462 0.0
C140 C 0.59755 0.72646 0.90862 0.0
H141 H 0.50474 0.70894 0.29462 0.0
H142 H 0.51543 0.73813 0.21341 0.0
H143 H 0.58558 0.73518 0.28088 0.0
H144 H 0.5753 0.70592 0.36085 0.0
H145 H 0.54449 0.78533 0.20665 0.0
H146 H 0.57402 0.72115 0.14191 0.0
H147 H 0.58468 0.78201 0.02776 0.0
H148 H 0.58172 0.75721 0.94348 0.0
H149 H 0.60725 0.71073 0.09233 0.0
H150 H 0.61721 0.68332 1.00649 0.0
H151 H 0.52313 0.81058 0.11314 0.0
H152 H 0.59568 0.81857 0.07798 0.0
H153 H 0.59478 0.73128 0.85763 0.0
H154 H 0.516 0.8478 0.06174 0.0
H155 H 0.58873 0.85439 0.02233 0.0
C156 C 0.23163 0.43146 0.35014 0.0
C157 C 0.21023 0.4217 0.33338 0.0
C158 C 0.2466 0.43883 0.30078 0.0
C159 C 0.24086 0.43592 0.2334 0.0
C160 C 0.22119 0.42294 0.21711 0.0
C161 C 0.2059 0.41616 0.26639 0.0
C162 C 0.25322 0.4492 0.18161 0.0
C163 C 0.27665 0.45444 0.18826 0.0
C164 C 0.28739 0.47028 0.14654 0.0
C165 C 0.27453 0.48034 0.09452 0.0
C166 C 0.25104 0.47455 0.08551 0.0
C167 C 0.24079 0.45916 0.12959 0.0
C168 C 0.23593 0.48478 0.03336 0.0
C169 C 0.21524 0.49548 0.05235 0.0
C170 C 0.2395 0.4802 0.96559 0.0
C171 C 0.22226 0.48517 0.91854 0.0
C172 C 0.20102 0.49488 0.93807 0.0
C173 C 0.3114 0.47715 0.16392 0.0
C174 C 0.31555 0.49801 0.19777 0.0
C175 C 0.32909 0.46072 0.16145 0.0
C176 C 0.35012 0.46467 0.19397 0.0
C177 C 0.35396 0.48501 0.2313 0.0
C178 C 0.33649 0.50189 0.2311 0.0
C179 C 0.19812 0.50041 1.00572 0.0
H180 H 0.23602 0.4352 0.40132 0.0
H181 H 0.26165 0.4485 0.31591 0.0
H182 H 0.21667 0.41945 0.16589 0.0
H183 H 0.18979 0.40846 0.25096 0.0
H184 H 0.2865 0.44689 0.22807 0.0
H185 H 0.22258 0.45566 0.12448 0.0
H186 H 0.28254 0.4928 0.06255 0.0
H187 H 0.21181 0.49899 0.10423 0.0
H188 H 0.25507 0.47167 0.94941 0.0
H189 H 0.22544 0.48093 0.86701 0.0
H190 H 0.30201 0.51071 0.20226 0.0
H191 H 0.32623 0.44429 0.13679 0.0
H192 H 0.18209 0.50755 0.02363 0.0
H193 H 0.3384 0.51767 0.25962 0.0
H194 H 0.36314 0.45141 0.19111 0.0
C195 C 0.091 0.22478 0.33773 0.0
C196 C 0.10855 0.20985 0.31561 0.0
C197 C 0.08113 0.24067 0.2952 0.0
C198 C 0.08836 0.242 0.2292 0.0
C199 C 0.10741 0.22891 0.20868 0.0
C200 C 0.1176 0.21319 0.25175 0.0
C201 C 0.07379 0.2543 0.18077 0.0
C202 C 0.06434 0.27576 0.19712 0.0
C203 C 0.04715 0.28573 0.15802 0.0
C204 C 0.03937 0.27369 0.10025 0.0
C205 C 0.04925 0.25207 0.08229 0.0
C206 C 0.06654 0.24292 0.12281 0.0
C207 C 0.04138 0.23728 0.02499 0.0
C208 C 0.01991 0.22619 0.0261 0.0
C209 C 0.05746 0.22988 0.97727 0.0
C210 C 0.05268 0.21134 0.93397 0.0
C211 C 0.03171 0.19924 0.93728 0.0
C212 C 0.03739 0.30811 0.1828 0.0
C213 C 0.02667 0.30889 0.24522 0.0
C214 C 0.04348 0.32908 0.15365 0.0
C215 C 0.03988 0.35019 0.18749 0.0
C216 C 0.03027 0.35088 0.25173 0.0
C217 C 0.0231 0.32987 0.27897 0.0
C218 C 0.01513 0.20747 0.98291 0.0
H219 H 0.08314 0.22292 0.38584 0.0
H220 H 0.06642 0.25042 0.31252 0.0
H221 H 0.11362 0.22996 0.15828 0.0
H222 H 0.13157 0.20264 0.23332 0.0
H223 H 0.07002 0.28455 0.24201 0.0
H224 H 0.07333 0.22595 0.1113 0.0
H225 H 0.02572 0.28085 0.07038 0.0
H226 H 1.00737 0.23098 0.06334 0.0
H227 H 0.0743 0.2378 0.97564 0.0
H228 H 0.06578 0.20614 0.89889 0.0
H229 H 0.02212 0.29304 0.26961 0.0
H230 H 0.05235 0.32907 0.10655 0.0
H231 H 0.99884 0.1987 0.98792 0.0
H232 H 0.01519 0.32952 0.32742 0.0
H233 H 0.04578 0.36585 0.16467 0.0
C234 C 0.30324 0.10076 0.32045 0.0
C235 C 0.32153 0.11461 0.29917 0.0
C236 C 0.2868 0.0927 0.27543 0.0
C237 C 0.28818 0.09844 0.20815 0.0
C238 C 0.30473 0.11464 0.18868 0.0
C239 C 0.32129 0.12262 0.23376 0.0
C240 C 0.27522 0.08457 0.15799 0.0
C241 C 0.25294 0.0767 0.17113 0.0
C242 C 0.24242 0.05993 0.13064 0.0
C243 C 0.25443 0.05107 0.07483 0.0
C244 C 0.27659 0.0596 0.05943 0.0
C245 C 0.28658 0.07631 0.10127 0.0
C246 C 0.29099 0.05064 1.00359 0.0
C247 C 0.30056 0.02848 1.00583 0.0
C248 C 0.29947 0.06604 0.95629 0.0
C249 C 0.31772 0.05986 0.91438 0.0
C250 C 0.32831 0.03817 0.91911 0.0
C251 C 0.21964 0.05112 0.1524 0.0
C252 C 0.21865 0.03527 0.20419 0.0
C253 C 0.1993 0.06231 0.13356 0.0
C254 C 0.17855 0.05824 0.16714 0.0
C255 C 0.17766 0.04303 0.22103 0.0
C256 C 0.198 0.03123 0.23788 0.0
C257 C 0.31902 0.02233 0.96425 0.0
H258 H 0.30291 0.09406 0.37025 0.0
H259 H 0.27441 0.08021 0.29241 0.0
H260 H 0.30587 0.1199 0.13752 0.0
H261 H 0.33495 0.1336 0.21616 0.0
H262 H 0.24397 0.08304 0.2147 0.0
H263 H 0.30407 0.08172 0.09169 0.0
H264 H 0.24674 0.03768 0.04422 0.0
H265 H 0.29477 0.01641 0.04262 0.0
H266 H 0.29277 0.0834 0.9543 0.0
H267 H 0.32439 0.07263 0.88094 0.0
H268 H 0.2342 0.02696 0.22119 0.0
H269 H 0.19969 0.07508 0.09498 0.0
H270 H 0.32648 1.00536 0.96887 0.0
H271 H 0.19837 0.01972 0.27956 0.0
H272 H 0.16334 0.06746 0.15178 0.0
C273 C 0.47925 0.29753 0.87527 0.0
C274 C 0.49359 0.31642 0.8918 0.0
C275 C 0.47239 0.28173 0.92363 0.0
C276 C 0.48019 0.28401 0.98924 0.0
C277 C 0.49588 0.30165 1.00462 0.0
C278 C 0.50237 0.31766 0.95698 0.0
C279 C 0.46727 0.27352 0.04467 0.0
C280 C 0.47296 0.25212 0.07293 0.0
C281 C 0.46264 0.24535 0.13327 0.0
C282 C 0.44713 0.26064 0.16474 0.0
C283 C 0.442 0.28221 0.138 0.0
C284 C 0.45109 0.28769 0.07603 0.0
C285 C 0.43079 0.30051 0.17929 0.0
C286 C 0.41406 0.29542 0.22733 0.0
C287 C 0.43903 0.32322 0.17597 0.0
C288 C 0.43183 0.33994 0.22103 0.0
C289 C 0.41637 0.33458 0.27187 0.0
C290 C 0.46858 0.22321 0.167 0.0
C291 C 0.47092 0.2023 0.1315 0.0
C292 C 0.47027 0.22264 0.2367 0.0
C293 C 0.4725 0.20183 0.27001 0.0
C294 C 0.47378 0.1809 0.23487 0.0
C295 C 0.47364 0.18136 0.16513 0.0
C296 C 0.40704 0.31226 0.2735 0.0
H297 H 0.47248 0.2954 0.82561 0.0
H298 H 0.45986 0.26862 0.91072 0.0
H299 H 0.50161 0.30425 0.05529 0.0
H300 H 0.51304 0.3319 0.97318 0.0
H301 H 0.48593 0.24138 0.04976 0.0
H302 H 0.4469 0.30406 0.05386 0.0
H303 H 0.43979 0.25614 0.21199 0.0
H304 H 0.40703 0.27824 0.23089 0.0
H305 H 0.45239 0.32793 0.14154 0.0
H306 H 0.43997 0.35667 0.21892 0.0
H307 H 0.46976 0.202 0.07796 0.0
H308 H 0.46946 0.23834 0.26606 0.0
H309 H 0.39504 0.30759 0.31194 0.0
H310 H 0.47474 0.16546 0.13676 0.0
H311 H 0.47308 0.20209 0.32367 0.0
Tb312 Tb 0.03333 0.00966 0.69568 0.0
C313 C 0.94648 0.9895 0.53839 0.0
C314 C 0.95758 0.96357 0.44949 0.0
C315 C 0.91909 0.96144 0.4953 0.0
C316 C 0.96293 0.98145 0.49497 0.0
C317 C 0.92419 0.98 0.53813 0.0
C318 C 0.93578 0.95324 0.45103 0.0
C319 C 0.91307 0.00929 0.61777 0.0
N320 N 0.95206 1.00744 0.57886 0.0
C321 C 0.93538 0.01819 0.61586 0.0
C322 C 0.90753 0.98987 0.57949 0.0
Tb323 Tb 0.98931 0.02038 0.5739 0.0
N324 N 0.98383 0.99185 0.49527 0.0
C325 C 0.99952 0.98629 0.44718 0.0
C326 C 0.9741 0.957 0.40284 0.0
C327 C 0.99502 0.96866 0.40108 0.0
H328 H 0.93959 0.0331 0.6461 0.0
H329 H 1.00779 0.96399 0.36444 0.0
H330 H 0.93147 0.93928 0.41709 0.0
H331 H 0.9002 0.01737 0.64885 0.0
H332 H 0.01589 0.99484 0.4446 0.0
H333 H 0.01057 0.05803 0.91924 0.0
H334 H 0.97072 0.9433 0.36723 0.0
H335 H 0.08675 0.99687 0.65247 0.0
H336 H 1.00755 0.02633 0.83969 0.0
H337 H 0.12491 0.01551 0.65466 0.0
H338 H 0.90214 0.95373 0.49482 0.0
H339 H 0.04344 0.0849 0.91475 0.0
H340 H 0.08196 0.09435 0.86565 0.0
H341 H 0.89022 0.98305 0.58086 0.0
H342 H 0.1137 0.08266 0.79203 0.0
N343 N 0.03654 0.03646 0.78186 0.0
C344 C 0.02121 0.03847 0.83309 0.0
C345 C 0.0418 0.07129 0.87782 0.0
C346 C 0.05886 0.06755 0.83044 0.0
C347 C 0.02322 0.05622 0.88033 0.0
C348 C 0.05573 0.04964 0.78333 0.0
H349 H 0.13021 0.05266 0.71421 0.0
N350 N 0.07017 0.02403 0.70536 0.0
C351 C 0.11048 0.02372 0.67903 0.0
C352 C 0.07332 0.04321 0.74267 0.0
C353 C 0.08881 0.01326 0.67769 0.0
C354 C 0.11338 0.04472 0.71236 0.0
C355 C 0.09484 0.05431 0.7469 0.0
O356 O 0.05492 0.9833 0.73013 0.0
O357 O 0.01095 0.9951 0.61994 0.0
O358 O 0.97474 0.99909 0.6521 0.0
O359 O 0.99805 0.01167 0.73803 0.0
O360 O 0.04372 0.98286 0.62385 0.0
O361 O 0.02106 0.98727 0.76882 0.0
O362 O 0.96834 0.04871 0.5523 0.0
O363 O 0.01352 0.03541 0.6449 0.0
O364 O 0.051 0.02454 0.60928 0.0
O365 O 0.02324 0.02331 0.52502 0.0
O366 O 0.98123 0.04903 0.64248 0.0
O367 O 0.99184 0.03474 0.47941 0.0
C368 C 0.02432 0.98034 0.59416 0.0
C369 C 0.03314 0.94941 0.74151 0.0
C370 C 1.0051 0.91874 0.72036 0.0
C371 C 0.01051 0.94095 0.74427 0.0
C372 C 0.02264 0.90525 0.69181 0.0
C373 C 0.05039 0.9354 0.71386 0.0
C374 C 0.04508 0.91359 0.68859 0.0
C375 C 0.97826 1.00314 0.71581 0.0
C376 C 0.0384 0.97342 0.76185 0.0
C377 C 0.09746 0.0736 0.7889 0.0
C378 C 0.07942 0.08023 0.83083 0.0
C379 C 1.00109 0.05121 0.66942 0.0
C380 C 0.98498 0.0748 0.47949 0.0
C381 C 0.00827 0.08109 0.48216 0.0
C382 C 0.01507 0.10293 0.46157 0.0
C383 C 0.99838 0.11903 0.44276 0.0
C384 C 0.96844 0.09103 0.46098 0.0
C385 C 0.97513 0.11318 0.44349 0.0
C386 C 0.04475 0.02604 0.54598 0.0
C387 C 0.97759 0.05134 0.49435 0.0
H388 H 0.99701 0.95175 0.76451 0.0
H389 H 0.01925 0.88795 0.67384 0.0
H390 H 0.06794 0.94147 0.71054 0.0
H391 H 0.05845 0.903 0.66692 0.0
H392 H 0.0211 0.06888 0.49786 0.0
H393 H 1.00341 0.13596 0.42633 0.0
H394 H 0.95039 0.08649 0.45949 0.0
H395 H 0.96234 0.12563 0.42882 0.0
Tb396 Tb 0.51474 0.03998 0.68866 0.0
C397 C 0.54067 0.95034 0.54616 0.0
C398 C 0.56588 0.96052 0.45627 0.0
C399 C 0.57004 0.92343 0.50907 0.0
C400 C 0.54781 0.96603 0.50014 0.0
C401 C 0.55135 0.92865 0.5505 0.0
C402 C 0.57728 0.93935 0.46195 0.0
C403 C 0.52306 0.91827 0.63216 0.0
N404 N 0.52254 0.95604 0.58496 0.0
C405 C 0.51293 0.93993 0.62548 0.0
C406 C 0.54255 0.9127 0.59512 0.0
Tb407 Tb 0.50775 0.9924 0.5731 0.0
N408 N 0.53647 0.98638 0.49677 0.0
C409 C 0.54135 1.00129 0.44681 0.0
C410 C 0.57164 0.97627 0.40728 0.0
C411 C 0.55911 0.9966 0.40204 0.0
H412 H 0.49796 0.94416 0.65472 0.0
H413 H 0.5632 0.00879 0.36375 0.0
H414 H 0.59139 0.93493 0.42928 0.0
H415 H 0.51584 0.90591 0.66588 0.0
H416 H 0.53212 0.01719 0.44179 0.0
H417 H 0.4627 0.02284 0.90576 0.0
H418 H 0.58543 0.97273 0.37271 0.0
H419 H 0.52446 0.08936 0.61328 0.0
H420 H 0.49328 0.0154 0.82645 0.0
H421 H 0.50727 0.12804 0.60858 0.0
H422 H 0.57864 0.90695 0.51203 0.0
H423 H 0.43966 0.05842 0.89926 0.0
H424 H 0.43304 0.09659 0.84562 0.0
H425 H 0.55032 0.89587 0.60012 0.0
H426 H 0.44526 0.12543 0.76467 0.0
N427 N 0.48743 0.0458 0.77015 0.0
C428 C 0.48345 0.03085 0.8208 0.0
C429 C 0.4531 0.05518 0.86332 0.0
C430 C 0.45822 0.0712 0.81458 0.0
C431 C 0.46606 0.0351 0.86709 0.0
C432 C 0.47582 0.06603 0.76874 0.0
H433 H 0.47329 0.13751 0.67704 0.0
N434 N 0.50033 0.07674 0.68331 0.0
C435 C 0.50006 0.11526 0.64101 0.0
C436 C 0.48252 0.0821 0.72353 0.0
C437 C 0.50981 0.09331 0.64409 0.0
C438 C 0.48083 0.1205 0.67948 0.0
C439 C 0.47206 0.10397 0.7223 0.0
O440 O 0.54093 0.06325 0.71463 0.0
O441 O 0.53094 0.01679 0.61812 0.0
O442 O 0.52967 0.98139 0.65535 0.0
O443 O 0.51599 1.006 0.73769 0.0
O444 O 0.54146 0.05007 0.61747 0.0
O445 O 0.53469 0.03336 0.77358 0.0
O446 O 0.48148 0.96911 0.54823 0.0
O447 O 0.49148 0.01611 0.64175 0.0
O448 O 0.4933 0.05178 0.60615 0.0
O449 O 0.50412 0.02599 0.52248 0.0
O450 O 0.47923 0.98339 0.64005 0.0
O451 O 0.49226 0.99511 0.47936 0.0
C452 C 0.54511 0.03019 0.59147 0.0
C453 C 0.57347 0.04291 0.74877 0.0
C454 C 0.6029 0.01323 0.73484 0.0
C455 C 0.58044 0.01977 0.75231 0.0
C456 C 0.61832 0.03015 0.71304 0.0
C457 C 0.58933 0.05953 0.72802 0.0
C458 C 0.61154 0.05312 0.70989 0.0
C459 C 0.52568 0.98634 0.7184 0.0
C460 C 0.54923 0.0496 0.75913 0.0
C461 C 0.45373 0.10883 0.76534 0.0
C462 C 0.44679 0.09244 0.81142 0.0
C463 C 0.47628 1.00338 0.66624 0.0
C464 C 0.45272 0.98551 0.48337 0.0
C465 C 0.44522 1.00845 0.4885 0.0
C466 C 0.42183 0.01387 0.48175 0.0
C467 C 0.40596 0.9959 0.47089 0.0
C468 C 0.43665 0.96791 0.47246 0.0
C469 C 0.41337 0.9731 0.46648 0.0
C470 C 0.49547 0.0461 0.5426 0.0
C471 C 0.47697 0.97942 0.49291 0.0
H472 H 0.56835 1.00675 0.7677 0.0
H473 H 0.63585 0.02578 0.70024 0.0
H474 H 0.58435 0.07742 0.7243 0.0
H475 H 0.62359 0.06602 0.69346 0.0
H476 H 0.45747 0.02206 0.49797 0.0
H477 H 0.38786 0.99947 0.46405 0.0
H478 H 0.44212 0.95011 0.46908 0.0
H479 H 0.40103 0.95944 0.45786 0.0
Tb480 Tb 0.53964 0.50608 0.57583 0.0
C481 C 0.44032 0.48868 0.66861 0.0
C482 C 0.41459 0.5039 0.58593 0.0
C483 C 0.40227 0.47205 0.65398 0.0
C484 C 0.43611 0.50387 0.61839 0.0
C485 C 0.4233 0.47292 0.68822 0.0
C486 C 0.39792 0.48755 0.6029 0.0
C487 C 0.44817 0.46174 0.7781 0.0
N488 N 0.46073 0.49022 0.70069 0.0
C489 C 0.46446 0.47769 0.75682 0.0
C490 C 0.42763 0.45907 0.743 0.0
Tb491 Tb 0.48637 0.51707 0.66298 0.0
N492 N 0.45274 0.5193 0.60332 0.0
C493 C 0.44809 0.53645 0.55947 0.0
C494 C 0.41031 0.52069 0.53855 0.0
C495 C 0.42704 0.53721 0.52593 0.0
H496 H 0.48037 0.47948 0.78404 0.0
H497 H 0.42379 0.55052 0.49011 0.0
H498 H 0.38142 0.48712 0.57794 0.0
H499 H 0.45152 0.45145 0.82136 0.0
H500 H 0.46059 0.54943 0.54865 0.0
H501 H 0.60526 0.48261 0.7533 0.0
H502 H 0.39405 0.52128 0.51235 0.0
H503 H 0.54269 0.54 0.44376 0.0
H504 H 0.56797 0.47927 0.6962 0.0
H505 H 0.56907 0.56892 0.39945 0.0
H506 H 0.38905 0.45991 0.66781 0.0
H507 H 0.63237 0.51353 0.72356 0.0
H508 H 0.64206 0.54652 0.64943 0.0
H509 H 0.415 0.44673 0.75963 0.0
H510 H 0.63224 0.57 0.55281 0.0
N511 N 0.57351 0.50826 0.63459 0.0
C512 C 0.57961 0.49283 0.68226 0.0
C513 C 0.61604 0.51208 0.69793 0.0
C514 C 0.6103 0.52705 0.64683 0.0
C515 C 0.6008 0.4946 0.71478 0.0
C516 C 0.58883 0.52436 0.61499 0.0
H517 H 0.60522 0.57822 0.45863 0.0
N518 N 0.56326 0.53304 0.5289 0.0
C519 C 0.57333 0.56017 0.44484 0.0
C520 C 0.58352 0.53724 0.56023 0.0
C521 C 0.55841 0.54362 0.47019 0.0
C522 C 0.59368 0.56543 0.47849 0.0
C523 C 0.59919 0.55365 0.53636 0.0
O524 O 0.54407 0.48992 0.48254 0.0
O525 O 0.50249 0.50448 0.57442 0.0
O526 O 0.48988 0.47975 0.64609 0.0
O527 O 0.52969 0.47702 0.63992 0.0
O528 O 0.51813 0.51083 0.48672 0.0
O529 O 0.5596 0.47617 0.57033 0.0
O530 O 0.475 0.52647 0.75782 0.0
O531 O 0.52349 0.51822 0.66581 0.0
O532 O 0.5366 0.54337 0.58939 0.0
O533 O 0.49679 0.54647 0.59933 0.0
O534 O 0.50749 0.51071 0.75189 0.0
O535 O 0.47558 0.55123 0.67907 0.0
C536 C 0.49846 0.50802 0.51398 0.0
C537 C 0.54786 0.44956 0.49051 0.0
C538 C 0.51817 0.41996 0.48667 0.0
C539 C 0.52478 0.44298 0.49771 0.0
C540 C 0.53504 0.40379 0.46768 0.0
C541 C 0.56434 0.43321 0.47189 0.0
C542 C 0.55791 0.41042 0.4604 0.0
C543 C 0.50919 0.46769 0.65053 0.0
C544 C 0.55549 0.47287 0.5078 0.0
C545 C 0.62005 0.55733 0.57002 0.0
C546 C 0.62563 0.544 0.62509 0.0
C547 C 0.52725 0.51404 0.72605 0.0
C548 C 0.48414 0.56401 0.78789 0.0
C549 C 0.50688 0.57101 0.77677 0.0
C550 C 0.51848 0.58447 0.82439 0.0
C551 C 0.50697 0.59094 0.88303 0.0
C552 C 0.47294 0.57061 0.84642 0.0
C553 C 0.48434 0.58406 0.89376 0.0
C554 C 0.51732 0.55539 0.58522 0.0
C555 C 0.47266 0.54796 0.74232 0.0
H556 H 0.51214 0.45567 0.51272 0.0
H557 H 0.53052 0.38606 0.45689 0.0
H558 H 0.58223 0.43803 0.46699 0.0
H559 H 0.57069 0.39784 0.44574 0.0
H560 H 0.51562 0.56568 0.73182 0.0
H561 H 0.51529 0.60174 0.92005 0.0
H562 H 0.4555 0.56504 0.8559 0.0
H563 H 0.47563 0.58916 0.93894 0.0
Tb564 Tb 0.01759 0.54187 0.5802 0.0
C565 C 0.02979 0.44428 0.68737 0.0
C566 C 0.01404 0.41815 0.60503 0.0
C567 C 0.04508 0.40549 0.67645 0.0
C568 C 0.01471 0.44005 0.63608 0.0
C569 C 0.04477 0.4269 0.70946 0.0
C570 C 0.02973 0.40112 0.62423 0.0
C571 C 0.05633 0.45232 0.79904 0.0
N572 N 0.02887 0.4651 0.71812 0.0
C573 C 0.04123 0.469 0.77516 0.0
C574 C 0.05841 0.4313 0.76539 0.0
Tb575 Tb 1.00373 0.4916 0.67539 0.0
N576 N 0.99982 0.45698 0.61911 0.0
C577 C 0.98245 0.45218 0.57501 0.0
C578 C 0.9972 0.41377 0.55708 0.0
C579 C 0.98113 0.43075 0.54282 0.0
H580 H 0.04 0.48531 0.80115 0.0
H581 H 0.9677 0.42739 0.50679 0.0
H582 H 0.02968 0.38432 0.60031 0.0
H583 H 0.06647 0.45576 0.84309 0.0
H584 H 0.96964 0.46472 0.56255 0.0
H585 H 0.05592 0.60412 0.75057 0.0
H586 H 0.99612 0.3972 0.53202 0.0
H587 H 0.98404 0.55287 0.4508 0.0
H588 H 0.05348 0.56796 0.68872 0.0
H589 H 0.9558 0.58222 0.41754 0.0
H590 H 0.05664 0.392 0.69213 0.0
H591 H 0.02627 0.63404 0.7358 0.0
H592 H 0.99106 0.64743 0.67532 0.0
H593 H 0.07012 0.4184 0.78394 0.0
H594 H 0.96319 0.64121 0.58482 0.0
N595 N 0.02202 0.5759 0.63974 0.0
C596 C 0.04019 0.58033 0.68122 0.0
C597 C 0.02503 0.61796 0.70825 0.0
C598 C 1.00735 0.61413 0.66253 0.0
C599 C 0.04178 0.60114 0.71662 0.0
C600 C 1.00657 0.59284 0.62801 0.0
H601 H 0.95014 0.61705 0.48741 0.0
N602 N 0.99283 0.56976 0.54163 0.0
C603 C 0.96542 0.58441 0.46315 0.0
C604 C 0.99115 0.58949 0.57744 0.0
C605 C 0.98132 0.56773 0.48238 0.0
C606 C 0.96223 0.60399 0.50276 0.0
C607 C 0.97572 0.60709 0.55961 0.0
O608 O 0.0273 0.55255 0.48547 0.0
O609 O 0.01702 0.50464 0.58394 0.0
O610 O 0.04118 0.49235 0.66113 0.0
O611 O 0.04641 0.53158 0.64664 0.0
O612 O 0.00965 0.51888 0.49513 0.0
O613 O 0.05276 0.54712 0.56073 0.0
O614 O 0.99429 0.48293 0.77192 0.0
O615 O 1.00348 0.52909 0.67141 0.0
O616 O 0.97991 0.53864 0.58103 0.0
O617 O 0.97429 0.5004 0.61085 0.0
O618 O 0.0122 0.51476 0.75925 0.0
O619 O 0.96912 0.48328 0.69342 0.0
C620 C 0.0123 0.49962 0.52439 0.0
C621 C 0.06147 0.5358 0.45031 0.0
C622 C 0.08005 0.49954 0.41968 0.0
C623 C 0.06959 0.51386 0.46755 0.0
C624 C 0.08182 0.50739 0.35412 0.0
C625 C 0.06352 0.54322 0.38486 0.0
C626 C 0.07355 0.52902 0.33699 0.0
C627 C 0.05432 0.51097 0.66375 0.0
C628 C 0.04901 0.55041 0.49798 0.0
C629 C 0.97514 0.62762 0.59705 0.0
C630 C 0.99101 0.63116 0.64846 0.0
C631 C 0.0088 0.53399 0.7307 0.0
C632 C 0.95764 0.495 0.80102 0.0
C633 C 0.95109 0.51765 0.78599 0.0
C634 C 0.93865 0.53085 0.83236 0.0
C635 C 0.93277 0.52103 0.89346 0.0
C636 C 0.95158 0.48557 0.86201 0.0
C637 C 0.93917 0.49856 0.90798 0.0
C638 C 0.96702 0.51991 0.58472 0.0
C639 C 0.97263 0.48163 0.75699 0.0
H640 H 0.06767 0.50791 0.51785 0.0
H641 H 0.09028 0.49716 0.31622 0.0
H642 H 0.05704 0.55993 0.37061 0.0
H643 H 0.07511 0.53487 0.28653 0.0
H644 H 0.95595 0.52506 0.73907 0.0
H645 H 0.92272 0.53056 0.92961 0.0
H646 H 0.95677 0.46825 0.87444 0.0
H647 H 0.93451 0.49119 0.95503 0.0
H648 H 0.16134 1.00414 0.28212 0.0
H649 H 0.14491 0.07582 0.2539 0.0
H650 H 0.12877 1.00058 0.35657 0.0
H651 H 0.11187 0.07197 0.32745 0.0
H652 H 0.04228 0.04756 0.42404 0.0
H653 H 0.07302 0.05238 0.34259 0.0
H654 H 0.11922 0.01464 0.46831 0.0
H655 H 0.08876 0.00981 0.54805 0.0
C656 C 0.15087 0.0192 0.29162 0.0
C657 C 0.15619 0.04035 0.26196 0.0
C658 C 0.13205 0.01712 0.33441 0.0
C659 C 0.11772 0.03604 0.34878 0.0
C660 C 0.12239 0.05698 0.3173 0.0
C661 C 0.14139 0.05914 0.27479 0.0
C662 C 0.0591 0.04073 0.43507 0.0
C663 C 0.06321 0.0293 0.49513 0.0
C664 C 0.07675 0.04341 0.38803 0.0
C665 C 0.09876 0.034 0.39876 0.0
C666 C 0.10259 0.02216 0.458 0.0
C667 C 0.08515 0.01984 0.50503 0.0
H668 H 0.44331 0.16564 0.32639 0.0
H669 H 0.50621 0.14667 0.22794 0.0
H670 H 0.44564 0.13134 0.39407 0.0
H671 H 0.50956 0.11292 0.2983 0.0
H672 H 0.5052 0.04613 0.40903 0.0
H673 H 0.49777 0.0765 0.32985 0.0
H674 H 0.46435 0.11654 0.48374 0.0
H675 H 0.47024 0.08547 0.56074 0.0
C676 C 0.45771 0.15407 0.31943 0.0
C677 C 0.47462 0.15889 0.27203 0.0
C678 C 0.45922 0.13443 0.35877 0.0
C679 C 0.47802 0.11924 0.35307 0.0
C680 C 0.49464 0.12385 0.30412 0.0
C681 C 0.49284 0.14331 0.26377 0.0
C682 C 0.49606 0.06131 0.4258 0.0
C683 C 0.489 0.06356 0.49218 0.0
C684 C 0.49197 0.07895 0.38033 0.0
C685 C 0.4808 0.09945 0.39992 0.0
C686 C 0.47292 0.10117 0.46582 0.0
C687 C 0.47669 0.08341 0.51079 0.0
H688 H 0.37752 0.52517 0.26228 0.0
H689 H 0.37955 0.45194 0.29586 0.0
H690 H 0.41117 0.53022 0.33234 0.0
H691 H 0.4142 0.45683 0.36188 0.0
H692 H 0.46477 0.47519 0.53003 0.0
H693 H 0.43006 0.46948 0.46295 0.0
H694 H 0.45083 0.52539 0.33736 0.0
H695 H 0.48476 0.53152 0.40641 0.0
C696 C 0.38509 0.51006 0.28421 0.0
C697 C 0.3755 0.4881 0.2725 0.0
C698 C 0.40477 0.51294 0.32393 0.0
C699 C 0.41582 0.49395 0.35295 0.0
C700 C 0.40626 0.47199 0.34131 0.0
C701 C 0.38644 0.46913 0.30208 0.0
C702 C 0.46161 0.48646 0.48873 0.0
C703 C 0.47699 0.5044 0.4751 0.0
C704 C 0.44189 0.48296 0.44931 0.0
C705 C 0.4372 0.49712 0.39455 0.0
C706 C 0.45323 0.51451 0.37991 0.0
C707 C 0.47284 0.51798 0.41931 0.0
H708 H 0.01967 0.39464 0.20853 0.0
H709 H 0.03735 0.35787 0.38585 0.0
H710 H 0.01696 0.4303 0.2733 0.0
H711 H 0.03394 0.39336 0.45084 0.0
H712 H 0.04532 0.46595 0.54179 0.0
H713 H 0.05091 0.43073 0.47515 0.0
H714 H 0.99292 0.44918 0.35298 0.0
H715 H 0.98773 0.48427 0.41898 0.0
C716 C 0.02303 0.39407 0.26125 0.0
C717 C 0.02857 0.37307 0.29147 0.0
C718 C 0.02125 0.4146 0.29878 0.0
C719 C 0.02509 0.41493 0.36787 0.0
C720 C 0.03099 0.39401 0.39792 0.0
C721 C 0.03265 0.37347 0.36048 0.0
C722 C 0.03362 0.46224 0.50125 0.0
C723 C 0.01556 0.4775 0.48712 0.0
C724 C 0.03684 0.44208 0.46271 0.0
C725 C 0.02228 0.43679 0.40844 0.0
C726 C 1.00465 0.45253 0.39367 0.0
C727 C 1.00151 0.47262 0.43197 0.0
H728 H 0.86278 0.02831 0.98393 0.0
H729 H 0.8649 0.95429 0.96464 0.0
H730 H 0.89558 0.03121 0.90951 0.0
H731 H 0.89818 0.95716 0.89226 0.0
H732 H 0.94304 0.97175 0.7089 0.0
H733 H 0.90997 0.96834 0.78283 0.0
H734 H 0.93612 0.0247 0.90256 0.0
H735 H 0.96848 0.02855 0.82739 0.0
C736 C 0.87021 0.01262 0.96402 0.0
C737 C 0.86103 0.99106 0.98098 0.0
C738 C 0.88927 0.01427 0.92168 0.0
C739 C 0.89977 0.99442 0.89456 0.0
C740 C 0.89056 0.97287 0.91139 0.0
C741 C 0.87156 0.97122 0.95389 0.0
C742 C 0.94175 0.98332 0.75126 0.0
C743 C 0.95873 1.00015 0.76279 0.0
C744 C 0.92282 0.98131 0.79399 0.0
C745 C 0.92021 0.99621 0.84924 0.0
C746 C 0.93728 0.013 0.86053 0.0
C747 C 0.9562 0.01494 0.81798 0.0
H748 H 0.51324 0.86493 0.96071 0.0
H749 H 0.58019 0.89185 0.0144 0.0
H750 H 0.50734 0.89757 0.88816 0.0
H751 H 0.57466 0.92341 0.93786 0.0
H752 H 0.56213 0.95667 0.72441 0.0
H753 H 0.56857 0.92585 0.80457 0.0
H754 H 0.50505 0.94358 0.90221 0.0
H755 H 0.49897 0.97469 0.82346 0.0
C756 C 0.52666 0.87775 0.95806 0.0
C757 C 0.5473 0.87528 0.99418 0.0
C758 C 0.52329 0.89642 0.91566 0.0
C759 C 0.54061 0.91295 0.90681 0.0
C760 C 0.56111 0.91077 0.94295 0.0
C761 C 0.56429 0.89245 0.98666 0.0
C762 C 0.54972 0.95413 0.76356 0.0
C763 C 0.53024 0.96835 0.76836 0.0
C764 C 0.5534 0.93652 0.80941 0.0
C765 C 0.5373 0.93229 0.85974 0.0
C766 C 0.51775 0.94642 0.86405 0.0
C767 C 0.5144 0.96439 0.81937 0.0
H768 H 0.63359 0.57329 0.98598 0.0
H769 H 0.65535 0.50331 0.94659 0.0
H770 H 0.5999 0.56706 0.91629 0.0
H771 H 0.62087 0.49702 0.87967 0.0
H772 H 0.54277 0.48936 0.82927 0.0
H773 H 0.5765 0.49655 0.89943 0.0
H774 H 0.59117 0.55807 0.79003 0.0
H775 H 0.55762 0.55044 0.7185 0.0
C776 C 0.63143 0.55659 0.96248 0.0
C777 C 0.64771 0.53889 0.97231 0.0
C778 C 0.61191 0.55306 0.9225 0.0
C779 C 0.60767 0.5316 0.89209 0.0
C780 C 0.62352 0.51373 0.90278 0.0
C781 C 0.64328 0.51735 0.94181 0.0
C782 C 0.55331 0.50434 0.81998 0.0
C783 C 0.548 0.51891 0.76708 0.0
C784 C 0.57263 0.50844 0.86011 0.0
C785 C 0.58671 0.52774 0.85003 0.0
C786 C 0.58073 0.54301 0.79906 0.0
C787 C 0.56165 0.53857 0.75775 0.0
H788 H 1.00559 0.63733 0.05186 0.0
H789 H 0.9842 0.6747 0.87902 0.0
H790 H 1.00729 0.60196 0.9855 0.0
H791 H 0.98659 0.6395 0.81232 0.0
H792 H 0.97491 0.56724 0.71924 0.0
H793 H 0.96977 0.60195 0.78866 0.0
H794 H 0.03003 0.58377 0.90174 0.0
H795 H 0.0347 0.5492 0.83335 0.0
C796 C 1.00118 0.6381 0.99981 0.0
C797 C 0.99494 0.65919 0.97129 0.0
C798 C 1.00237 0.61773 0.96132 0.0
C799 C 0.99721 0.61764 0.89292 0.0
C800 C 0.99056 0.63865 0.86466 0.0
C801 C 0.9895 0.65903 0.90304 0.0
C802 C 0.98716 0.5709 0.75848 0.0
C803 C 1.00571 0.5559 0.76924 0.0
C804 C 0.9842 0.59076 0.7986 0.0
C805 C 0.99957 0.596 0.85107 0.0
C806 C 0.01767 0.58046 0.86259 0.0
C807 C 0.02053 0.56068 0.82282 0.0
H808 H 0.12112 0.16699 0.26649 0.0
H809 H 0.10733 0.20285 0.45114 0.0
H810 H 0.11123 0.13103 0.3172 0.0
H811 H 0.09437 0.16732 0.49881 0.0
H812 H 0.04805 0.11312 0.55458 0.0
H813 H 0.08559 0.13065 0.53269 0.0
H814 H 0.07299 0.12248 0.32197 0.0
H815 H 0.03655 0.10464 0.34486 0.0
C816 C 0.1166 0.16737 0.31842 0.0
C817 C 0.11325 0.1883 0.35305 0.0
C818 C 0.11053 0.14656 0.34739 0.0
C819 C 0.1 0.14646 0.41005 0.0
C820 C 0.10141 0.16662 0.44929 0.0
C821 C 0.10847 0.18729 0.42128 0.0
C822 C 0.05393 0.11453 0.50391 0.0
C823 C 0.03946 0.10823 0.45111 0.0
C824 C 0.07533 0.12461 0.49117 0.0
C825 C 0.0823 0.1287 0.42546 0.0
C826 C 0.06864 0.11976 0.37332 0.0
C827 C 0.04746 0.10973 0.38613 0.0
H828 H 0.36531 0.10828 0.25622 0.0
H829 H 0.32616 0.12198 0.43374 0.0
H830 H 0.39639 0.09352 0.32163 0.0
H831 H 0.3579 0.10754 0.50056 0.0
H832 H 0.38329 0.03213 0.53864 0.0
H833 H 0.36517 0.06819 0.51119 0.0
H834 H 0.42527 0.08776 0.39956 0.0
H835 H 0.44268 0.05073 0.4234 0.0
C836 C 0.36379 0.10933 0.30963 0.0
C837 C 0.34289 0.11553 0.33961 0.0
C838 C 0.38181 0.10078 0.34765 0.0
C839 C 0.37934 0.09833 0.41654 0.0
C840 C 0.36001 0.10829 0.44736 0.0
C841 C 0.34184 0.11668 0.40914 0.0
C842 C 0.39276 0.04427 0.50897 0.0
C843 C 0.41397 0.03817 0.48098 0.0
C844 C 0.38255 0.06527 0.49411 0.0
C845 C 0.39344 0.08078 0.4513 0.0
C846 C 0.41607 0.07597 0.43099 0.0
C847 C 0.42617 0.05477 0.44517 0.0
H848 H 0.41154 0.38142 0.26686 0.0
H849 H 0.41539 0.32567 0.40528 0.0
H850 H 0.427 0.40739 0.34879 0.0
H851 H 0.42836 0.35223 0.49098 0.0
H852 H 0.50071 0.38 0.53578 0.0
H853 H 0.46389 0.36349 0.51006 0.0
H854 H 0.44175 0.4285 0.42883 0.0
H855 H 0.47999 0.44377 0.44688 0.0
C856 C 0.41477 0.37492 0.31608 0.0
C857 C 0.41383 0.35121 0.32808 0.0
C858 C 0.42358 0.38999 0.36411 0.0
C859 C 0.431 0.38169 0.42597 0.0
C860 C 0.42475 0.35901 0.44242 0.0
C861 C 0.41671 0.34373 0.39345 0.0
C862 C 0.48793 0.39076 0.51239 0.0
C863 C 0.49368 0.41279 0.4903 0.0
C864 C 0.46635 0.38141 0.49855 0.0
C865 C 0.44971 0.3941 0.46344 0.0
C866 C 0.45433 0.41755 0.45208 0.0
C867 C 0.47624 0.42662 0.46385 0.0
H868 H 0.17333 0.39173 0.34402 0.0
H869 H 0.20264 0.4533 0.43233 0.0
H870 H 0.13651 0.40102 0.39534 0.0
H871 H 0.16667 0.46221 0.48315 0.0
H872 H 0.10418 0.49016 0.53331 0.0
H873 H 0.13283 0.46014 0.5453 0.0
H874 H 0.1111 0.42997 0.35849 0.0
H875 H 0.08142 0.4589 0.34924 0.0
C876 C 0.1722 0.40685 0.37573 0.0
C877 C 0.19089 0.42214 0.38183 0.0
C878 C 0.15108 0.41213 0.4054 0.0
C879 C 0.1483 0.43275 0.44182 0.0
C880 C 0.1679 0.44614 0.45565 0.0
C881 C 0.18886 0.44096 0.42598 0.0
C882 C 0.10477 0.47652 0.4963 0.0
C883 C 0.09139 0.47763 0.43834 0.0
C884 C 0.12138 0.45934 0.50296 0.0
C885 C 0.12519 0.44335 0.45116 0.0
C886 C 0.10914 0.44222 0.39893 0.0
C887 C 0.09229 0.45913 0.39287 0.0
H888 H 0.93424 0.80792 0.82353 0.0
H889 H 0.89536 0.85921 0.9312 0.0
H890 H 0.94558 0.83642 0.74395 0.0
H891 H 0.90593 0.8879 0.84958 0.0
H892 H 0.97689 0.92525 0.82674 0.0
H893 H 0.94361 0.90314 0.85567 0.0
H894 H 0.94669 0.86707 0.6672 0.0
H895 H 0.9805 0.88952 0.63787 0.0
C896 C 0.9269 0.825 0.82781 0.0
C897 C 0.91456 0.83158 0.88456 0.0
C898 C 0.93344 0.8415 0.78193 0.0
C899 C 0.92752 0.86476 0.79204 0.0
C900 C 0.9115 0.87029 0.84186 0.0
C901 C 0.90524 0.85384 0.88831 0.0
C902 C 0.97008 0.9133 0.79006 0.0
C903 C 0.9818 0.90885 0.73053 0.0
C904 C 0.95072 0.90056 0.80664 0.0
C905 C 0.94257 0.88294 0.76425 0.0
C906 C 0.95279 0.88018 0.7016 0.0
C907 C 0.97226 0.89297 0.68496 0.0
H908 H 0.70877 0.93488 0.83494 0.0
H909 H 0.65593 0.90044 0.94541 0.0
H910 H 0.68049 0.9479 0.75654 0.0
H911 H 0.62728 0.9126 0.86468 0.0
H912 H 0.59318 0.98481 0.83741 0.0
H913 H 0.61308 0.95004 0.86662 0.0
H914 H 0.65046 0.95175 0.68177 0.0
H915 H 0.63098 0.9874 0.65392 0.0
C916 C 0.69125 0.92886 0.84013 0.0
C917 C 0.68439 0.91732 0.89732 0.0
C918 C 0.67483 0.93639 0.79489 0.0
C919 C 0.6513 0.93225 0.80587 0.0
C920 C 0.64513 0.91695 0.8563 0.0
C921 C 0.66155 0.90973 0.90219 0.0
C922 C 0.60511 0.97744 0.80193 0.0
C923 C 0.6109 0.98923 0.74409 0.0
C924 C 0.61651 0.95722 0.81846 0.0
C925 C 0.63397 0.94824 0.77739 0.0
C926 C 0.63766 0.95852 0.7156 0.0
C927 C 0.62645 0.97896 0.69951 0.0
H928 H 0.63386 0.66573 0.91654 0.0
H929 H 0.57749 0.69951 0.81694 0.0
H930 H 0.6227 0.62944 0.86356 0.0
H931 H 0.56733 0.66412 0.76307 0.0
H932 H 0.53534 0.60305 0.71049 0.0
H933 H 0.56907 0.62779 0.70258 0.0
H934 H 0.58781 0.61064 0.90328 0.0
H935 H 0.55472 0.58549 0.91006 0.0
C936 C 0.61961 0.66573 0.88198 0.0
C937 C 0.60593 0.6855 0.87402 0.0
C938 C 0.61342 0.64494 0.85098 0.0
C939 C 0.59367 0.6437 0.81084 0.0
C940 C 0.58259 0.66427 0.79392 0.0
C941 C 0.58851 0.68487 0.82545 0.0
C942 C 0.54725 0.60382 0.75179 0.0
C943 C 0.54195 0.59323 0.81202 0.0
C944 C 0.56658 0.61798 0.74724 0.0
C945 C 0.5807 0.62183 0.80303 0.0
C946 C 0.57726 0.60831 0.85943 0.0
C947 C 0.55801 0.59418 0.8639 0.0
H948 H 0.82185 0.5863 0.81842 0.0
H949 H 0.85531 0.63689 0.94295 0.0
H950 H 0.85729 0.57955 0.75976 0.0
H951 H 0.89087 0.63161 0.88097 0.0
H952 H 0.94011 0.56924 0.91103 0.0
H953 H 0.91391 0.60118 0.90499 0.0
H954 H 0.89248 0.5784 0.70928 0.0
H955 H 0.91799 0.5454 0.7181 0.0
C956 C 0.8365 0.59716 0.83006 0.0
C957 C 0.83615 0.61162 0.88603 0.0
C958 C 0.85707 0.59331 0.79633 0.0
C959 C 0.87754 0.60406 0.81807 0.0
C960 C 0.87578 0.62211 0.86513 0.0
C961 C 0.85532 0.62547 0.9001 0.0
C962 C 0.93018 0.57138 0.86606 0.0
C963 C 0.93008 0.55418 0.81673 0.0
C964 C 0.91523 0.59002 0.86187 0.0
C965 C 0.8999 0.59184 0.80795 0.0
C966 C 0.90314 0.57696 0.75306 0.0
C967 C 0.91795 0.55809 0.75774 0.0
H968 H 0.06311 0.1659 0.89839 0.0
H969 H 0.99115 0.18294 0.88144 0.0
H970 H 0.05664 0.13081 0.8336 0.0
H971 H 0.98471 0.1477 0.81727 0.0
H972 H 0.97559 0.07136 0.76545 0.0
H973 H 0.98306 0.10685 0.82775 0.0
H974 H 0.04748 0.11459 0.72475 0.0
H975 H 0.03992 0.07857 0.66306 0.0
C976 C 0.04591 0.16245 0.88028 0.0
C977 C 0.0277 0.17767 0.8957 0.0
C978 C 0.04221 0.14212 0.84295 0.0
C979 C 0.02012 0.1361 0.81986 0.0
C980 C 1.00194 0.15135 0.83486 0.0
C981 C 1.00565 0.17172 0.87198 0.0
C982 C 0.99149 0.08051 0.75671 0.0
C983 C 1.00751 0.07169 0.71097 0.0
C984 C 0.99569 0.10108 0.79196 0.0
C985 C 0.01591 0.11389 0.78178 0.0
C986 C 0.03186 0.10519 0.735 0.0
C987 C 0.02763 0.08445 0.69974 0.0
H988 H 0.33873 0.04895 0.78967 0.0
H989 H 0.36712 0.01573 0.9613 0.0
H990 H 0.37424 0.04138 0.72899 0.0
H991 H 0.40268 1.00854 0.90141 0.0
H992 H 0.45491 0.97785 0.75824 0.0
H993 H 0.41918 0.98592 0.81675 0.0
H994 H 0.41383 0.05097 0.71666 0.0
H995 H 0.44943 0.04229 0.65659 0.0
C996 C 0.35256 0.0401 0.81468 0.0
C997 C 0.3498 0.03279 0.8805 0.0
C998 C 0.37307 0.03584 0.77985 0.0
C999 C 0.39157 0.02423 0.80978 0.0
C1000 C 0.3888 0.01706 0.87574 0.0
C1001 C 0.36827 0.02118 0.91034 0.0
C1002 C 0.44617 0.99397 0.74927 0.0
C1003 C 0.4554 0.00978 0.70459 0.0
C1004 C 0.42567 0.9987 0.78309 0.0
C1005 C 0.41349 0.01929 0.77258 0.0
C1006 C 0.42251 0.03489 0.72624 0.0
C1007 C 0.44315 0.03013 0.69246 0.0
H1008 H 0.53112 0.3457 0.88405 0.0
H1009 H 0.46571 0.33177 0.78981 0.0
H1010 H 0.53496 0.38025 0.82036 0.0
H1011 H 0.4709 0.36485 0.72018 0.0
H1012 H 0.47086 0.44056 0.66393 0.0
H1013 H 0.46809 0.40331 0.71542 0.0
H1014 H 0.54226 0.4002 0.7281 0.0
H1015 H 0.54464 0.43865 0.68295 0.0
C1016 C 0.51756 0.34973 0.84935 0.0
C1017 C 0.49781 0.33577 0.84405 0.0
C1018 C 0.52003 0.36958 0.81122 0.0
C1019 C 0.50317 0.37598 0.76467 0.0
C1020 C 0.48408 0.36123 0.75645 0.0
C1021 C 0.48131 0.34169 0.79588 0.0
C1022 C 0.48657 0.43214 0.67901 0.0
C1023 C 0.50788 0.44323 0.67219 0.0
C1024 C 0.48505 0.41032 0.70751 0.0
C1025 C 0.50492 0.39842 0.72801 0.0
C1026 C 0.5264 0.40888 0.71597 0.0
C1027 C 0.52783 0.43098 0.68907 0.0
H1028 H 0.16849 0.52943 0.93647 0.0
H1029 H 0.18867 0.46796 0.82931 0.0
H1030 H 0.13488 0.53288 0.86624 0.0
H1031 H 0.15567 0.47226 0.75585 0.0
H1032 H 0.07992 0.47179 0.68487 0.0
H1033 H 0.11572 0.46821 0.74684 0.0
H1034 H 0.11997 0.54225 0.76358 0.0
H1035 H 0.0837 0.54558 0.70549 0.0
C1036 C 0.16593 0.51666 0.89766 0.0
C1037 C 0.1815 0.49827 0.88964 0.0
C1038 C 0.14664 0.51885 0.85629 0.0
C1039 C 0.1422 0.50288 0.80459 0.0
C1040 C 0.15809 0.48479 0.79538 0.0
C1041 C 0.17736 0.48251 0.83718 0.0
C1042 C 0.08832 0.48732 0.70257 0.0
C1043 C 0.07811 0.50896 0.69235 0.0
C1044 C 0.10919 0.48529 0.73747 0.0
C1045 C 0.12084 0.50491 0.7622 0.0
C1046 C 0.11134 0.5266 0.74786 0.0
C1047 C 0.0904 0.52857 0.71365 0.0
H1048 H 0.03439 0.8444 0.40243 0.0
H1049 H 0.9633 0.86316 0.37502 0.0
H1050 H 0.04083 0.87998 0.46511 0.0
H1051 H 0.96977 0.8988 0.43728 0.0
H1052 H 0.98482 0.95367 0.60024 0.0
H1053 H 0.97727 0.91694 0.54275 0.0
H1054 H 0.04439 0.92014 0.45263 0.0
H1055 H 0.05167 0.9566 0.50992 0.0
C1056 C 0.0201 0.85609 0.40934 0.0
C1057 C 0.99829 0.85057 0.38317 0.0
C1058 C 0.02381 0.87668 0.44546 0.0
C1059 C 1.00588 0.89263 0.45656 0.0
C1060 C 0.984 0.88698 0.43107 0.0
C1061 C 0.98028 0.86637 0.3951 0.0
C1062 C 0.99776 0.94663 0.5673 0.0
C1063 C 0.01855 0.95847 0.55793 0.0
C1064 C 0.99354 0.92543 0.53454 0.0
C1065 C 0.0102 0.91523 0.4926 0.0
C1066 C 0.03116 0.92702 0.48482 0.0
C1067 C 0.0353 0.94814 0.51726 0.0
H1068 H 0.68156 0.03732 0.411 0.0
H1069 H 0.66158 0.96615 0.38695 0.0
H1070 H 0.64595 0.04509 0.47071 0.0
H1071 H 0.62609 0.9739 0.44667 0.0
H1072 H 0.57237 0.99174 0.6068 0.0
H1073 H 0.60904 0.98331 0.55232 0.0
H1074 H 0.60545 0.0484 0.45214 0.0
H1075 H 0.5687 0.05641 0.50558 0.0
C1076 C 0.66962 0.0233 0.41819 0.0
C1077 C 0.67472 1.00107 0.39387 0.0
C1078 C 0.64908 0.02777 0.45253 0.0
C1079 C 0.63291 0.01017 0.46364 0.0
C1080 C 0.63815 0.98788 0.44019 0.0
C1081 C 0.65866 0.98341 0.40583 0.0
C1082 C 0.5793 1.00404 0.57236 0.0
C1083 C 0.56725 0.02437 0.5586 0.0
C1084 C 0.60047 0.99934 0.54152 0.0
C1085 C 0.61046 0.01518 0.49772 0.0
C1086 C 0.59859 0.03584 0.48591 0.0
C1087 C 0.57739 0.04039 0.51616 0.0
H1088 H 0.556 0.69484 0.45895 0.0
H1089 H 0.51005 0.66827 0.3081 0.0
H1090 H 0.54967 0.66046 0.52434 0.0
H1091 H 0.50367 0.63397 0.37356 0.0
H1092 H 0.48328 0.58121 0.52682 0.0
H1093 H 0.48705 0.61813 0.47191 0.0
H1094 H 0.55898 0.62025 0.52451 0.0
H1095 H 0.55499 0.58367 0.58091 0.0
C1096 C 0.54453 0.68171 0.43952 0.0
C1097 C 0.53364 0.68453 0.37768 0.0
C1098 C 0.54091 0.66188 0.47719 0.0
C1099 C 0.52622 0.64417 0.45447 0.0
C1100 C 0.51486 0.64725 0.39348 0.0
C1101 C 0.5185 0.66707 0.35575 0.0
C1102 C 0.49982 0.58965 0.52757 0.0
C1103 C 0.51886 0.57917 0.55788 0.0
C1104 C 0.50207 0.61082 0.49531 0.0
C1105 C 0.5234 0.62228 0.49278 0.0
C1106 C 0.54222 0.61218 0.52545 0.0
C1107 C 0.53997 0.59101 0.55749 0.0
H1108 H 0.8535 0.50896 0.30068 0.0
H1109 H 0.82486 0.54783 0.46435 0.0
H1110 H 0.88894 0.50382 0.36286 0.0
H1111 H 0.86078 0.54331 0.5259 0.0
H1112 H 0.92415 0.51481 0.63977 0.0
H1113 H 0.88667 0.5167 0.58327 0.0
H1114 H 0.92141 0.52623 0.39684 0.0
H1115 H 0.95832 0.52368 0.45326 0.0
C1116 C 0.85456 0.5162 0.35027 0.0
C1117 C 0.83604 0.52885 0.37701 0.0
C1118 C 0.87515 0.51352 0.3858 0.0
C1119 C 0.87804 0.52334 0.4495 0.0
C1120 C 0.8593 0.53538 0.47724 0.0
C1121 C 0.83868 0.53816 0.4415 0.0
C1122 C 0.92361 0.51752 0.58686 0.0
C1123 C 0.94416 0.52013 0.55135 0.0
C1124 C 0.90216 0.51863 0.55433 0.0
C1125 C 0.90079 0.52183 0.48518 0.0
C1126 C 0.92154 0.5237 0.44988 0.0
C1127 C 0.94283 0.52276 0.48244 0.0
loop_
_geom_bond_atom_site_label_1
_geom_bond_atom_site_label_2
_geom_bond_distance
_geom_bond_site_symmetry_2
_ccdc_geom_bond_type
C0 C1 1.386 . S
C0 C2 1.401 . S
C0 H24 0.926 1_554 S
C1 C0 1.386 . S
C1 C5 1.397 . S
C2 C0 1.401 . S
C2 C3 1.384 . S
C2 H25 0.930 . S
C3 C2 1.384 . S
C3 C4 1.377 . S
C3 C6 1.481 . S
C4 C3 1.377 . S
C4 C5 1.389 . S
C4 H26 0.929 . S
C5 C1 1.397 . S
C5 C4 1.389 . S
C5 H27 0.931 . S
C6 C3 1.481 . S
C6 C7 1.387 . S
C6 C11 1.390 . S
C7 C6 1.387 . S
C7 C8 1.401 . S
C7 H28 0.930 . S
C8 C7 1.401 . S
C8 C9 1.376 . S
C8 C17 1.511 . S
C9 C8 1.376 . S
C9 C10 1.392 . S
C9 H30 0.931 . S
C10 C9 1.392 . S
C10 C11 1.361 . S
C10 C12 1.500 . S
C11 C6 1.390 . S
C11 C10 1.361 . S
C11 H29 0.931 . S
C12 C10 1.500 . S
C12 C13 1.371 . S
C12 C14 1.365 . S
C13 C12 1.371 . S
C13 C23 1.386 . S
C13 H31 0.931 . S
C14 C12 1.365 . S
C14 C15 1.409 . S
C14 H32 0.929 . S
C15 C14 1.409 . S
C15 C16 1.380 . S
C15 H33 0.930 . S
C16 C15 1.380 . S
C16 C23 1.357 . S
C17 C8 1.511 . S
C17 C18 1.341 . S
C17 C19 1.371 . S
C18 C17 1.341 . S
C18 C22 1.394 . S
C18 H34 0.930 . S
C19 C17 1.371 . S
C19 C20 1.392 . S
C19 H35 0.931 . S
C20 C19 1.392 . S
C20 C21 1.331 . S
C20 H38 0.932 . S
C21 C20 1.331 . S
C21 C22 1.336 . S
C22 C18 1.394 . S
C22 C21 1.336 . S
C22 H37 0.929 . S
C23 C13 1.386 . S
C23 C16 1.357 . S
C23 H36 0.928 . S
H24 C0 0.926 1_556 S
H25 C2 0.930 . S
H26 C4 0.929 . S
H27 C5 0.931 . S
H28 C7 0.930 . S
H29 C11 0.931 . S
H30 C9 0.931 . S
H31 C13 0.931 . S
H32 C14 0.929 . S
H33 C15 0.930 . S
H34 C18 0.930 . S
H35 C19 0.931 . S
H36 C23 0.928 . S
H37 C22 0.929 . S
H38 C20 0.932 . S
C39 C40 1.386 . S
C39 C41 1.397 . S
C39 H63 0.931 1_554 S
C40 C39 1.386 . S
C40 C44 1.397 . S
C41 C39 1.397 . S
C41 C42 1.384 . S
C41 H64 0.930 . S
C42 C41 1.384 . S
C42 C43 1.377 . S
C42 C45 1.481 . S
C43 C42 1.377 . S
C43 C44 1.389 . S
C43 H65 0.929 . S
C44 C40 1.397 . S
C44 C43 1.389 . S
C44 H66 0.931 . S
C45 C42 1.481 . S
C45 C46 1.387 . S
C45 C50 1.390 . S
C46 C45 1.387 . S
C46 C47 1.401 . S
C46 H67 0.930 . S
C47 C46 1.401 . S
C47 C48 1.376 . S
C47 C56 1.511 . S
C48 C47 1.376 . S
C48 C49 1.392 . S
C48 H69 0.931 . S
C49 C48 1.392 . S
C49 C50 1.361 . S
C49 C51 1.500 . S
C50 C45 1.390 . S
C50 C49 1.361 . S
C50 H68 0.931 . S
C51 C49 1.500 . S
C51 C52 1.371 . S
C51 C53 1.365 . S
C52 C51 1.371 . S
C52 C62 1.386 . S
C52 H70 0.931 . S
C53 C51 1.365 . S
C53 C54 1.409 . S
C53 H71 0.929 . S
C54 C53 1.409 . S
C54 C55 1.380 . S
C54 H72 0.930 . S
C55 C54 1.380 . S
C55 C62 1.357 . S
C56 C47 1.511 . S
C56 C57 1.341 . S
C56 C58 1.371 . S
C57 C56 1.341 . S
C57 C61 1.394 . S
C57 H73 0.930 . S
C58 C56 1.371 . S
C58 C59 1.392 . S
C58 H74 0.931 . S
C59 C58 1.392 . S
C59 C60 1.331 . S
C59 H77 0.932 . S
C60 C59 1.331 . S
C60 C61 1.336 . S
C61 C57 1.394 . S
C61 C60 1.336 . S
C61 H76 0.929 . S
C62 C52 1.386 . S
C62 C55 1.357 . S
C62 H75 0.928 . S
H63 C39 0.931 1_556 S
H64 C41 0.930 . S
H65 C43 0.929 . S
H66 C44 0.931 . S
H67 C46 0.930 . S
H68 C50 0.931 . S
H69 C48 0.931 . S
H70 C52 0.931 . S
H71 C53 0.929 . S
H72 C54 0.930 . S
H73 C57 0.930 . S
H74 C58 0.931 . S
H75 C62 0.928 . S
H76 C61 0.929 . S
H77 C59 0.932 . S
C78 C79 1.386 . S
C78 C80 1.397 . S
C78 H102 0.931 1_554 S
C79 C78 1.386 . S
C79 C83 1.397 . S
C80 C78 1.397 . S
C80 C81 1.384 . S
C80 H103 0.930 . S
C81 C80 1.384 . S
C81 C82 1.377 . S
C81 C84 1.481 . S
C82 C81 1.377 . S
C82 C83 1.389 . S
C82 H104 0.929 . S
C83 C79 1.397 . S
C83 C82 1.389 . S
C83 H105 0.931 . S
C84 C81 1.481 . S
C84 C85 1.387 . S
C84 C89 1.390 . S
C85 C84 1.387 . S
C85 C86 1.401 . S
C85 H106 0.930 . S
C86 C85 1.401 . S
C86 C87 1.376 . S
C86 C95 1.511 . S
C87 C86 1.376 . S
C87 C88 1.392 . S
C87 H108 0.931 . S
C88 C87 1.392 . S
C88 C89 1.361 . S
C88 C90 1.500 . S
C89 C84 1.390 . S
C89 C88 1.361 . S
C89 H107 0.931 . S
C90 C88 1.500 . S
C90 C91 1.371 . S
C90 C92 1.365 . S
C91 C90 1.371 . S
C91 C101 1.386 . S
C91 H109 0.931 . S
C92 C90 1.365 . S
C92 C93 1.409 . S
C92 H110 0.929 . S
C93 C92 1.409 . S
C93 C94 1.380 . S
C93 H111 0.930 . S
C94 C93 1.380 . S
C94 C101 1.357 . S
C95 C86 1.511 . S
C95 C96 1.341 . S
C95 C97 1.371 . S
C96 C95 1.341 . S
C96 C100 1.394 . S
C96 H112 0.930 . S
C97 C95 1.371 . S
C97 C98 1.392 . S
C97 H113 0.931 . S
C98 C97 1.392 . S
C98 C99 1.331 . S
C98 H116 0.932 . S
C99 C98 1.331 . S
C99 C100 1.336 . S
C100 C96 1.394 . S
C100 C99 1.336 . S
C100 H115 0.929 . S
C101 C91 1.386 . S
C101 C94 1.357 . S
C101 H114 0.928 . S
H102 C78 0.931 1_556 S
H103 C80 0.930 . S
H104 C82 0.929 . S
H105 C83 0.931 . S
H106 C85 0.930 . S
H107 C89 0.931 . S
H108 C87 0.931 . S
H109 C91 0.931 . S
H110 C92 0.929 . S
H111 C93 0.930 . S
H112 C96 0.930 . S
H113 C97 0.931 . S
H114 C101 0.928 . S
H115 C100 0.929 . S
H116 C98 0.932 . S
C117 C118 1.386 . S
C117 C119 1.397 . S
C117 H141 0.931 . S
C118 C117 1.386 . S
C118 C122 1.397 . S
C119 C117 1.397 . S
C119 C120 1.384 . S
C119 H142 0.930 . S
C120 C119 1.384 . S
C120 C121 1.377 . S
C120 C123 1.481 . S
C121 C120 1.377 . S
C121 C122 1.389 . S
C121 H143 0.929 . S
C122 C118 1.397 . S
C122 C121 1.389 . S
C122 H144 0.931 . S
C123 C120 1.481 . S
C123 C124 1.387 . S
C123 C128 1.390 . S
C124 C123 1.387 . S
C124 C125 1.401 . S
C124 H145 0.930 . S
C125 C124 1.401 . S
C125 C126 1.376 . S
C125 C134 1.511 . S
C126 C125 1.376 . S
C126 C127 1.392 . S
C126 H147 0.931 . S
C127 C126 1.392 . S
C127 C128 1.361 . S
C127 C129 1.500 . S
C128 C123 1.390 . S
C128 C127 1.361 . S
C128 H146 0.931 . S
C129 C127 1.500 . S
C129 C130 1.371 . S
C129 C131 1.365 . S
C130 C129 1.371 . S
C130 C140 1.386 1_554 S
C130 H148 0.931 . S
C131 C129 1.365 . S
C131 C132 1.409 . S
C131 H149 0.929 . S
C132 C131 1.409 . S
C132 C133 1.380 . S
C132 H150 0.930 . S
C133 C132 1.380 . S
C133 C140 1.357 1_554 S
C134 C125 1.511 . S
C134 C135 1.341 . S
C134 C136 1.371 . S
C135 C134 1.341 . S
C135 C139 1.394 . S
C135 H151 0.930 . S
C136 C134 1.371 . S
C136 C137 1.392 . S
C136 H152 0.931 . S
C137 C136 1.392 . S
C137 C138 1.331 . S
C137 H155 0.932 . S
C138 C137 1.331 . S
C138 C139 1.336 . S
C139 C135 1.394 . S
C139 C138 1.336 . S
C139 H154 0.929 . S
C140 C130 1.386 1_556 S
C140 C133 1.357 1_556 S
C140 H153 0.928 . S
H141 C117 0.931 . S
H142 C119 0.930 . S
H143 C121 0.929 . S
H144 C122 0.931 . S
H145 C124 0.930 . S
H146 C128 0.931 . S
H147 C126 0.931 . S
H148 C130 0.931 . S
H149 C131 0.929 . S
H150 C132 0.930 . S
H151 C135 0.930 . S
H152 C136 0.931 . S
H153 C140 0.928 . S
H154 C139 0.929 . S
H155 C137 0.932 . S
C156 C157 1.386 . S
C156 C158 1.397 . S
C156 H180 0.931 . S
C157 C156 1.386 . S
C157 C161 1.397 . S
C158 C156 1.397 . S
C158 C159 1.384 . S
C158 H181 0.930 . S
C159 C158 1.384 . S
C159 C160 1.377 . S
C159 C162 1.481 . S
C160 C159 1.377 . S
C160 C161 1.389 . S
C160 H182 0.929 . S
C161 C157 1.397 . S
C161 C160 1.389 . S
C161 H183 0.931 . S
C162 C159 1.481 . S
C162 C163 1.387 . S
C162 C167 1.390 . S
C163 C162 1.387 . S
C163 C164 1.401 . S
C163 H184 0.930 . S
C164 C163 1.401 . S
C164 C165 1.376 1_554 S
C164 C173 1.511 . S
C165 C164 1.376 1_556 S
C165 C166 1.392 . S
C165 H186 0.931 . S
C166 C165 1.392 . S
C166 C167 1.361 1_556 S
C166 C168 1.500 . S
C167 C162 1.390 . S
C167 C166 1.361 1_554 S
C167 H185 0.928 1_554 S
C168 C166 1.500 . S
C168 C169 1.371 . S
C168 C170 1.365 . S
C169 C168 1.371 . S
C169 C179 1.386 . S
C169 H187 0.931 . S
C170 C168 1.365 . S
C170 C171 1.409 . S
C170 H188 0.929 . S
C171 C170 1.409 . S
C171 C172 1.380 . S
C171 H189 0.930 . S
C172 C171 1.380 . S
C172 C179 1.357 . S
C173 C164 1.511 . S
C173 C174 1.341 . S
C173 C175 1.371 . S
C174 C173 1.341 . S
C174 C178 1.394 . S
C174 H190 0.930 . S
C175 C173 1.371 . S
C175 C176 1.392 . S
C175 H191 0.931 1_554 S
C176 C175 1.392 . S
C176 C177 1.331 . S
C176 H194 0.932 1_554 S
C177 C176 1.331 . S
C177 C178 1.336 . S
C178 C174 1.394 . S
C178 C177 1.336 . S
C178 H193 0.929 . S
C179 C169 1.386 . S
C179 C172 1.357 . S
C179 H192 0.928 . S
H180 C156 0.931 . S
H181 C158 0.930 . S
H182 C160 0.929 . S
H183 C161 0.931 . S
H184 C163 0.930 . S
H185 C167 0.928 1_556 S
H186 C165 0.931 . S
H187 C169 0.931 . S
H188 C170 0.929 . S
H189 C171 0.930 . S
H190 C174 0.930 . S
H191 C175 0.931 1_556 S
H192 C179 0.928 . S
H193 C178 0.929 . S
H194 C176 0.932 1_556 S
C195 C196 1.386 . S
C195 C197 1.397 . S
C195 H219 0.931 . S
C196 C195 1.386 . S
C196 C200 1.397 . S
C197 C195 1.397 . S
C197 C198 1.384 . S
C197 H220 0.930 . S
C198 C197 1.384 . S
C198 C199 1.377 . S
C198 C201 1.481 . S
C199 C198 1.377 . S
C199 C200 1.389 . S
C199 H221 0.929 . S
C200 C196 1.397 . S
C200 C199 1.389 . S
C200 H222 0.931 . S
C201 C198 1.481 . S
C201 C202 1.387 . S
C201 C206 1.390 . S
C202 C201 1.387 . S
C202 C203 1.401 . S
C202 H223 0.930 . S
C203 C202 1.401 . S
C203 C204 1.376 1_554 S
C203 C212 1.511 . S
C204 C203 1.376 1_556 S
C204 C205 1.392 . S
C204 H225 0.931 . S
C205 C204 1.392 . S
C205 C206 1.361 1_556 S
C205 C207 1.500 . S
C206 C201 1.390 . S
C206 C205 1.361 1_554 S
C206 H224 0.931 1_554 S
C207 C205 1.500 . S
C207 C208 1.371 . S
C207 C209 1.365 . S
C208 C207 1.371 . S
C208 C218 1.386 . S
C208 H226 0.931 . S
C209 C207 1.365 . S
C209 C210 1.409 . S
C209 H227 0.929 . S
C210 C209 1.409 . S
C210 C211 1.380 . S
C210 H228 0.930 . S
C211 C210 1.380 . S
C211 C218 1.357 . S
C212 C203 1.511 . S
C212 C213 1.341 . S
C212 C214 1.371 . S
C213 C212 1.341 . S
C213 C217 1.394 . S
C213 H229 0.930 . S
C214 C212 1.371 . S
C214 C215 1.392 . S
C214 H230 0.931 1_554 S
C215 C214 1.392 . S
C215 C216 1.331 . S
C215 H233 0.932 1_554 S
C216 C215 1.331 . S
C216 C217 1.336 . S
C217 C213 1.394 . S
C217 C216 1.336 . S
C217 H232 0.929 . S
C218 C208 1.386 . S
C218 C211 1.357 . S
C218 H231 0.928 . S
H219 C195 0.931 . S
H220 C197 0.930 . S
H221 C199 0.929 . S
H222 C200 0.931 . S
H223 C202 0.930 . S
H224 C206 0.931 1_556 S
H225 C204 0.931 . S
H226 C208 0.931 . S
H227 C209 0.929 . S
H228 C210 0.930 . S
H229 C213 0.930 . S
H230 C214 0.931 1_556 S
H231 C218 0.928 . S
H232 C217 0.929 . S
H233 C215 0.932 1_556 S
C234 C235 1.386 . S
C234 C236 1.397 . S
C234 H258 0.931 . S
C235 C234 1.386 . S
C235 C239 1.397 . S
C236 C234 1.397 . S
C236 C237 1.384 . S
C236 H259 0.930 . S
C237 C236 1.384 . S
C237 C238 1.377 . S
C237 C240 1.481 . S
C238 C237 1.377 . S
C238 C239 1.389 . S
C238 H260 0.929 . S
C239 C235 1.397 . S
C239 C238 1.389 . S
C239 H261 0.931 . S
C240 C237 1.481 . S
C240 C241 1.387 . S
C240 C245 1.401 . S
C241 C240 1.387 . S
C241 C242 1.401 . S
C241 H262 0.930 . S
C242 C241 1.401 . S
C242 C243 1.376 1_554 S
C242 C251 1.511 . S
C243 C242 1.376 1_556 S
C243 C244 1.392 . S
C243 H264 0.931 . S
C244 C243 1.392 . S
C244 C245 1.353 1_556 S
C244 C246 1.500 . S
C245 C240 1.401 . S
C245 C244 1.353 1_554 S
C245 H263 0.929 1_554 S
C246 C244 1.500 . S
C246 C247 1.371 . S
C246 C248 1.365 . S
C247 C246 1.371 . S
C247 C257 1.386 . S
C247 H265 0.931 . S
C248 C246 1.365 . S
C248 C249 1.409 . S
C248 H266 0.929 . S
C249 C248 1.409 . S
C249 C250 1.380 . S
C249 H267 0.930 . S
C250 C249 1.380 . S
C250 C257 1.357 . S
C251 C242 1.511 . S
C251 C252 1.341 . S
C251 C253 1.371 . S
C252 C251 1.341 . S
C252 C256 1.394 . S
C252 H268 0.930 . S
C253 C251 1.371 . S
C253 C254 1.392 . S
C253 H269 0.931 1_554 S
C254 C253 1.392 . S
C254 C255 1.331 . S
C254 H272 0.932 1_554 S
C255 C254 1.331 . S
C255 C256 1.336 . S
C256 C252 1.394 . S
C256 C255 1.336 . S
C256 H271 0.929 . S
C257 C247 1.386 . S
C257 C250 1.357 . S
C257 H270 0.928 . S
H258 C234 0.931 . S
H259 C236 0.930 . S
H260 C238 0.929 . S
H261 C239 0.931 . S
H262 C241 0.930 . S
H263 C245 0.929 1_556 S
H264 C243 0.931 . S
H265 C247 0.931 . S
H266 C248 0.929 . S
H267 C249 0.930 . S
H268 C252 0.930 . S
H269 C253 0.931 1_556 S
H270 C257 0.928 . S
H271 C256 0.929 . S
H272 C254 0.932 1_556 S
C273 C274 1.386 . S
C273 C275 1.397 . S
C273 H297 0.931 . S
C274 C273 1.386 . S
C274 C278 1.397 . S
C275 C273 1.397 . S
C275 C276 1.384 . S
C275 H298 0.930 . S
C276 C275 1.384 . S
C276 C277 1.377 . S
C276 C279 1.481 . S
C277 C276 1.377 . S
C277 C278 1.389 . S
C277 H299 0.929 . S
C278 C274 1.397 . S
C278 C277 1.389 . S
C278 H300 0.931 . S
C279 C276 1.481 . S
C279 C280 1.387 . S
C279 C284 1.390 1_556 S
C280 C279 1.387 . S
C280 C281 1.401 1_556 S
C280 H301 0.930 . S
C281 C280 1.401 1_554 S
C281 C282 1.376 . S
C281 C290 1.511 . S
C282 C281 1.376 . S
C282 C283 1.392 . S
C282 H303 0.931 . S
C283 C282 1.392 . S
C283 C284 1.361 . S
C283 C285 1.500 . S
C284 C279 1.390 1_554 S
C284 C283 1.361 . S
C284 H302 0.928 1_554 S
C285 C283 1.500 . S
C285 C286 1.371 . S
C285 C287 1.365 . S
C286 C285 1.371 . S
C286 C296 1.386 . S
C286 H304 0.931 . S
C287 C285 1.365 . S
C287 C288 1.409 . S
C287 H305 0.929 . S
C288 C287 1.409 . S
C288 C289 1.380 . S
C288 H306 0.930 . S
C289 C288 1.380 . S
C289 C296 1.357 . S
C290 C281 1.511 . S
C290 C291 1.341 . S
C290 C292 1.371 . S
C291 C290 1.341 . S
C291 C295 1.394 . S
C291 H307 0.930 1_554 S
C292 C290 1.371 . S
C292 C293 1.392 . S
C292 H308 0.931 . S
C293 C292 1.392 . S
C293 C294 1.331 . S
C293 H311 0.932 . S
C294 C293 1.331 . S
C294 C295 1.336 . S
C295 C291 1.394 . S
C295 C294 1.336 . S
C295 H310 0.929 1_554 S
C296 C286 1.386 . S
C296 C289 1.357 . S
C296 H309 0.928 . S
H297 C273 0.931 . S
H298 C275 0.930 . S
H299 C277 0.929 . S
H300 C278 0.931 . S
H301 C280 0.930 . S
H302 C284 0.928 1_556 S
H303 C282 0.931 . S
H304 C286 0.931 . S
H305 C287 0.929 . S
H306 C288 0.930 . S
H307 C291 0.930 1_556 S
H308 C292 0.931 . S
H309 C296 0.928 . S
H310 C295 0.929 1_556 S
H311 C293 0.932 . S
Tb312 N343 2.660 1_565 S
Tb312 N350 2.600 . S
Tb312 O356 2.546 . S
Tb312 O357 2.610 1_455 S
Tb312 O359 2.320 1_455 S
Tb312 O360 2.552 . S
Tb312 O361 2.413 . S
Tb312 O363 2.362 1_565 S
Tb312 O364 2.421 . S
Tb312 C376 2.833 . S
C313 C316 1.432 1_545 S
C313 C317 1.414 . S
C313 N320 1.359 . S
C314 C316 1.417 . S
C314 C318 1.432 . S
C314 C326 1.410 . S
C315 C317 1.444 1_565 S
C315 C318 1.317 . S
C315 H338 0.929 . S
C316 C313 1.432 1_565 S
C316 C314 1.417 . S
C316 N324 1.359 1_565 S
C317 C313 1.414 . S
C317 C315 1.444 1_545 S
C317 C322 1.385 . S
C318 C314 1.432 . S
C318 C315 1.317 . S
C318 H330 0.930 . S
C319 C321 1.392 . S
C319 C322 1.370 . S
C319 H331 0.931 . S
N320 C313 1.359 . S
N320 C321 1.327 . S
N320 Tb323 2.600 . S
C321 C319 1.392 . S
C321 N320 1.327 . S
C321 H328 0.930 . S
C322 C317 1.385 . S
C322 C319 1.370 . S
C322 H341 0.930 . S
Tb323 N320 2.600 . S
Tb323 N324 2.663 . S
Tb323 O357 2.362 1_545 S
Tb323 O358 2.421 . S
Tb323 O362 2.546 . S
Tb323 O363 2.610 1_655 S
Tb323 O365 2.320 1_655 S
Tb323 O366 2.552 1_655 S
Tb323 O367 2.413 . S
Tb323 C387 2.833 . S
N324 C316 1.359 1_545 S
N324 Tb323 2.663 . S
N324 C325 1.302 1_645 S
C325 N324 1.302 1_465 S
C325 C327 1.408 . S
C325 H332 0.930 . S
C326 C314 1.410 . S
C326 C327 1.329 1_655 S
C326 H334 0.930 . S
C327 C325 1.408 . S
C327 C326 1.329 1_455 S
C327 H329 0.945 . S
H328 C321 0.930 . S
H329 C327 0.945 . S
H330 C318 0.930 . S
H331 C319 0.931 . S
H332 C325 0.930 . S
H333 C347 0.930 1_655 S
H334 C326 0.930 . S
H335 C353 0.930 . S
H336 C344 0.930 1_655 S
H337 C351 0.931 . S
H338 C315 0.929 . S
H339 C345 0.930 . S
H340 C378 0.930 . S
H341 C322 0.930 . S
H342 C377 0.929 . S
N343 Tb312 2.660 1_545 S
N343 C344 1.305 . S
N343 C348 1.360 . S
C344 H336 0.930 1_455 S
C344 N343 1.305 . S
C344 C347 1.407 . S
C345 H339 0.930 . S
C345 C346 1.410 . S
C345 C347 1.345 . S
C346 C345 1.410 . S
C346 C348 1.417 . S
C346 C378 1.432 . S
C347 H333 0.930 1_455 S
C347 C344 1.407 . S
C347 C345 1.345 . S
C348 N343 1.360 . S
C348 C346 1.417 . S
C348 C352 1.432 . S
H349 C354 0.927 1_545 S
N350 Tb312 2.600 . S
N350 C352 1.359 1_565 S
N350 C353 1.327 . S
C351 H337 0.931 . S
C351 C353 1.392 . S
C351 C354 1.383 . S
C352 C348 1.432 . S
C352 N350 1.359 1_545 S
C352 C355 1.414 . S
C353 H335 0.930 . S
C353 N350 1.327 . S
C353 C351 1.392 . S
C354 H349 0.927 1_565 S
C354 C351 1.383 . S
C354 C355 1.374 1_565 S
C355 C352 1.414 . S
C355 C354 1.374 1_545 S
C355 C377 1.444 . S
O356 Tb312 2.546 . S
O356 C376 1.251 . S
O357 Tb312 2.610 1_655 S
O357 Tb323 2.362 1_565 S
O357 C368 1.283 . S
O358 Tb323 2.421 . S
O358 C375 1.262 . S
O359 Tb312 2.320 1_655 S
O359 C375 1.260 1_565 S
O360 Tb312 2.552 . S
O360 C368 1.243 1_455 S
O361 Tb312 2.413 . S
O361 C376 1.256 . S
O362 Tb323 2.546 . S
O362 C387 1.251 . S
O363 Tb312 2.362 1_545 S
O363 Tb323 2.610 1_455 S
O363 C379 1.283 . S
O364 Tb312 2.421 . S
O364 C386 1.262 1_565 S
O365 Tb323 2.320 1_455 S
O365 C386 1.260 . S
O366 Tb323 2.552 1_455 S
O366 C379 1.243 . S
O367 Tb323 2.413 . S
O367 C387 1.256 . S
C368 O357 1.283 . S
C368 O360 1.243 1_655 S
C369 C371 1.382 . S
C369 C373 1.393 . S
C369 C376 1.500 . S
C370 C371 1.400 . S
C370 C372 1.384 . S
C371 C369 1.382 . S
C371 C370 1.400 . S
C371 H388 0.908 1_455 S
C372 C370 1.384 . S
C372 C374 1.392 . S
C372 H389 0.931 . S
C373 C369 1.393 . S
C373 C374 1.401 . S
C373 H390 0.930 . S
C374 C372 1.392 . S
C374 C373 1.401 . S
C374 H391 0.930 . S
C375 O358 1.262 . S
C375 O359 1.260 1_545 S
C376 Tb312 2.833 . S
C376 O356 1.251 . S
C376 O361 1.256 . S
C376 C369 1.500 . S
C377 H342 0.929 . S
C377 C355 1.444 . S
C377 C378 1.317 . S
C378 H340 0.930 . S
C378 C346 1.432 . S
C378 C377 1.317 . S
C379 O363 1.283 . S
C379 O366 1.243 . S
C380 C381 1.382 . S
C380 C384 1.393 . S
C380 C387 1.500 . S
C381 C380 1.382 . S
C381 C382 1.400 . S
C381 H392 0.930 1_655 S
C382 C381 1.400 . S
C382 C383 1.384 . S
C383 C382 1.384 . S
C383 C385 1.392 . S
C383 H393 0.931 . S
C384 C380 1.393 . S
C384 C385 1.401 . S
C384 H394 0.930 . S
C385 C383 1.392 . S
C385 C384 1.401 . S
C385 H395 0.930 . S
C386 O364 1.262 1_545 S
C386 O365 1.260 . S
C387 Tb323 2.833 . S
C387 O362 1.251 . S
C387 O367 1.256 . S
C387 C380 1.500 . S
H388 C371 0.908 1_655 S
H389 C372 0.931 . S
H390 C373 0.930 . S
H391 C374 0.930 . S
H392 C381 0.930 1_455 S
H393 C383 0.931 . S
H394 C384 0.930 . S
H395 C385 0.930 . S
Tb396 N427 2.660 . S
Tb396 N434 2.600 . S
Tb396 O440 2.546 . S
Tb396 O441 2.610 1_545 S
Tb396 O443 2.320 1_545 S
Tb396 O444 2.552 . S
Tb396 O445 2.413 . S
Tb396 O447 2.362 . S
Tb396 O448 2.421 . S
Tb396 C460 2.833 . S
C397 C400 1.432 . S
C397 C401 1.414 . S
C397 N404 1.359 . S
C398 C400 1.417 . S
C398 C402 1.432 . S
C398 C410 1.410 . S
C399 C401 1.444 . S
C399 C402 1.317 . S
C399 H422 0.929 . S
C400 C397 1.432 . S
C400 C398 1.417 . S
C400 N408 1.360 . S
C401 C397 1.414 . S
C401 C399 1.444 . S
C401 C406 1.385 . S
C402 C398 1.432 . S
C402 C399 1.317 . S
C402 H414 0.930 . S
C403 C405 1.392 . S
C403 C406 1.370 . S
C403 H415 0.931 . S
N404 C397 1.359 . S
N404 C405 1.327 . S
N404 Tb407 2.600 . S
C405 C403 1.392 . S
C405 N404 1.327 . S
C405 H412 0.930 . S
C406 C401 1.385 . S
C406 C403 1.370 . S
C406 H425 0.930 . S
Tb407 N404 2.600 . S
Tb407 N408 2.660 . S
Tb407 O441 2.362 . S
Tb407 O442 2.421 . S
Tb407 O446 2.546 . S
Tb407 O447 2.610 1_565 S
Tb407 O449 2.320 1_565 S
Tb407 O450 2.552 1_565 S
Tb407 O451 2.413 . S
Tb407 C471 2.833 . S
N408 C400 1.360 . S
N408 Tb407 2.660 . S
N408 C409 1.305 1_565 S
C409 N408 1.305 1_545 S
C409 C411 1.407 . S
C409 H416 0.930 . S
C410 C398 1.410 . S
C410 C411 1.345 1_565 S
C410 H418 0.930 . S
C411 C409 1.407 . S
C411 C410 1.345 1_545 S
C411 H413 0.930 . S
H412 C405 0.930 . S
H413 C411 0.930 . S
H414 C402 0.930 . S
H415 C403 0.931 . S
H416 C409 0.930 . S
H417 C431 0.930 1_565 S
H418 C410 0.930 . S
H419 C437 0.930 . S
H420 C428 0.930 1_565 S
H421 C435 0.931 . S
H422 C399 0.929 . S
H423 C429 0.930 . S
H424 C462 0.930 . S
H425 C406 0.930 . S
H426 C461 0.929 . S
N427 Tb396 2.660 . S
N427 C428 1.305 . S
N427 C432 1.360 . S
C428 H420 0.930 1_545 S
C428 N427 1.305 . S
C428 C431 1.407 . S
C429 H423 0.930 . S
C429 C430 1.410 . S
C429 C431 1.345 . S
C430 C429 1.410 . S
C430 C432 1.417 . S
C430 C462 1.432 . S
C431 H417 0.930 1_545 S
C431 C428 1.407 . S
C431 C429 1.345 . S
C432 N427 1.360 . S
C432 C430 1.417 . S
C432 C436 1.432 . S
H433 C438 0.930 . S
N434 Tb396 2.600 . S
N434 C436 1.359 . S
N434 C437 1.327 . S
C435 H421 0.931 . S
C435 C437 1.392 . S
C435 C438 1.370 . S
C436 C432 1.432 . S
C436 N434 1.359 . S
C436 C439 1.414 . S
C437 H419 0.930 . S
C437 N434 1.327 . S
C437 C435 1.392 . S
C438 H433 0.930 . S
C438 C435 1.370 . S
C438 C439 1.385 . S
C439 C436 1.414 . S
C439 C438 1.385 . S
C439 C461 1.444 . S
O440 Tb396 2.546 . S
O440 C460 1.251 . S
O441 Tb396 2.610 1_565 S
O441 Tb407 2.362 . S
O441 C452 1.283 . S
O442 Tb407 2.421 . S
O442 C459 1.262 . S
O443 Tb396 2.320 1_565 S
O443 C459 1.260 . S
O444 Tb396 2.552 . S
O444 C452 1.243 1_545 S
O445 Tb396 2.413 . S
O445 C460 1.256 . S
O446 Tb407 2.546 . S
O446 C471 1.251 . S
O447 Tb396 2.362 . S
O447 Tb407 2.610 1_545 S
O447 C463 1.283 . S
O448 Tb396 2.421 . S
O448 C470 1.262 . S
O449 Tb407 2.320 1_545 S
O449 C470 1.260 . S
O450 Tb407 2.552 1_545 S
O450 C463 1.243 . S
O451 Tb407 2.413 . S
O451 C471 1.256 . S
C452 O441 1.283 . S
C452 O444 1.243 1_565 S
C453 C455 1.382 . S
C453 C457 1.393 . S
C453 C460 1.500 . S
C454 C455 1.400 . S
C454 C456 1.384 . S
C455 C453 1.382 . S
C455 C454 1.400 . S
C455 H472 0.930 . S
C456 C454 1.384 . S
C456 C458 1.392 . S
C456 H473 0.931 . S
C457 C453 1.393 . S
C457 C458 1.401 . S
C457 H474 0.930 . S
C458 C456 1.392 . S
C458 C457 1.401 . S
C458 H475 0.930 . S
C459 O442 1.262 . S
C459 O443 1.260 . S
C460 Tb396 2.833 . S
C460 O440 1.251 . S
C460 O445 1.256 . S
C460 C453 1.500 . S
C461 H426 0.929 . S
C461 C439 1.444 . S
C461 C462 1.317 . S
C462 H424 0.930 . S
C462 C430 1.432 . S
C462 C461 1.317 . S
C463 O447 1.283 . S
C463 O450 1.243 . S
C464 C465 1.382 . S
C464 C468 1.393 . S
C464 C471 1.500 . S
C465 C464 1.382 . S
C465 C466 1.400 . S
C465 H476 0.930 1_565 S
C466 C465 1.400 . S
C466 C467 1.384 . S
C467 C466 1.384 . S
C467 C469 1.392 . S
C467 H477 0.931 . S
C468 C464 1.393 . S
C468 C469 1.401 . S
C468 H478 0.930 . S
C469 C467 1.392 . S
C469 C468 1.401 . S
C469 H479 0.930 . S
C470 O448 1.262 . S
C470 O449 1.260 . S
C471 Tb407 2.833 . S
C471 O446 1.251 . S
C471 O451 1.256 . S
C471 C464 1.500 . S
H472 C455 0.930 . S
H473 C456 0.931 . S
H474 C457 0.930 . S
H475 C458 0.930 . S
H476 C465 0.930 1_545 S
H477 C467 0.931 . S
H478 C468 0.930 . S
H479 C469 0.930 . S
Tb480 N511 2.660 . S
Tb480 N518 2.600 . S
Tb480 O524 2.546 . S
Tb480 O525 2.610 . S
Tb480 O527 2.320 . S
Tb480 O528 2.552 . S
Tb480 O529 2.413 . S
Tb480 O531 2.362 . S
Tb480 O532 2.421 . S
Tb480 C544 2.833 . S
C481 C484 1.432 . S
C481 C485 1.414 . S
C481 N488 1.359 . S
C482 C484 1.417 . S
C482 C486 1.432 . S
C482 C494 1.410 . S
C483 C485 1.444 . S
C483 C486 1.317 . S
C483 H506 0.929 . S
C484 C481 1.432 . S
C484 C482 1.417 . S
C484 N492 1.360 . S
C485 C481 1.414 . S
C485 C483 1.444 . S
C485 C490 1.385 . S
C486 C482 1.432 . S
C486 C483 1.317 . S
C486 H498 0.930 . S
C487 C489 1.392 . S
C487 C490 1.370 . S
C487 H499 0.931 . S
N488 C481 1.359 . S
N488 C489 1.327 . S
N488 Tb491 2.600 . S
C489 C487 1.392 . S
C489 N488 1.327 . S
C489 H496 0.930 . S
C490 C485 1.385 . S
C490 C487 1.370 . S
C490 H509 0.930 . S
Tb491 N488 2.600 . S
Tb491 N492 2.660 . S
Tb491 O525 2.362 . S
Tb491 O526 2.421 . S
Tb491 O530 2.546 . S
Tb491 O531 2.610 . S
Tb491 O533 2.320 . S
Tb491 O534 2.552 . S
Tb491 O535 2.413 . S
Tb491 C555 2.833 . S
N492 C484 1.360 . S
N492 Tb491 2.660 . S
N492 C493 1.305 . S
C493 N492 1.305 . S
C493 C495 1.407 . S
C493 H500 0.930 . S
C494 C482 1.410 . S
C494 C495 1.345 . S
C494 H502 0.930 . S
C495 C493 1.407 . S
C495 C494 1.345 . S
C495 H497 0.930 . S
H496 C489 0.930 . S
H497 C495 0.930 . S
H498 C486 0.930 . S
H499 C487 0.931 . S
H500 C493 0.930 . S
H501 C515 0.930 . S
H502 C494 0.930 . S
H503 C521 0.930 . S
H504 C512 0.930 . S
H505 C519 0.931 . S
H506 C483 0.929 . S
H507 C513 0.930 . S
H508 C546 0.930 . S
H509 C490 0.930 . S
H510 C545 0.929 . S
N511 Tb480 2.660 . S
N511 C512 1.305 . S
N511 C516 1.360 . S
C512 H504 0.930 . S
C512 N511 1.305 . S
C512 C515 1.407 . S
C513 H507 0.930 . S
C513 C514 1.410 . S
C513 C515 1.345 . S
C514 C513 1.410 . S
C514 C516 1.417 . S
C514 C546 1.432 . S
C515 H501 0.930 . S
C515 C512 1.407 . S
C515 C513 1.345 . S
C516 N511 1.360 . S
C516 C514 1.417 . S
C516 C520 1.432 . S
H517 C522 0.930 . S
N518 Tb480 2.600 . S
N518 C520 1.359 . S
N518 C521 1.327 . S
C519 H505 0.931 . S
C519 C521 1.392 . S
C519 C522 1.370 . S
C520 C516 1.432 . S
C520 N518 1.359 . S
C520 C523 1.414 . S
C521 H503 0.930 . S
C521 N518 1.327 . S
C521 C519 1.392 . S
C522 H517 0.930 . S
C522 C519 1.370 . S
C522 C523 1.385 . S
C523 C520 1.414 . S
C523 C522 1.385 . S
C523 C545 1.444 . S
O524 Tb480 2.546 . S
O524 C544 1.251 . S
O525 Tb480 2.610 . S
O525 Tb491 2.362 . S
O525 C536 1.283 . S
O526 Tb491 2.421 . S
O526 C543 1.262 . S
O527 Tb480 2.320 . S
O527 C543 1.260 . S
O528 Tb480 2.552 . S
O528 C536 1.243 . S
O529 Tb480 2.413 . S
O529 C544 1.256 . S
O530 Tb491 2.546 . S
O530 C555 1.251 . S
O531 Tb480 2.362 . S
O531 Tb491 2.610 . S
O531 C547 1.283 . S
O532 Tb480 2.421 . S
O532 C554 1.262 . S
O533 Tb491 2.320 . S
O533 C554 1.260 . S
O534 Tb491 2.552 . S
O534 C547 1.243 . S
O535 Tb491 2.413 . S
O535 C555 1.256 . S
C536 O525 1.283 . S
C536 O528 1.243 . S
C537 C539 1.382 . S
C537 C541 1.393 . S
C537 C544 1.500 . S
C538 C539 1.400 . S
C538 C540 1.384 . S
C539 C537 1.382 . S
C539 C538 1.400 . S
C539 H556 0.930 . S
C540 C538 1.384 . S
C540 C542 1.392 . S
C540 H557 0.931 . S
C541 C537 1.393 . S
C541 C542 1.401 . S
C541 H558 0.930 . S
C542 C540 1.392 . S
C542 C541 1.401 . S
C542 H559 0.930 . S
C543 O526 1.262 . S
C543 O527 1.260 . S
C544 Tb480 2.833 . S
C544 O524 1.251 . S
C544 O529 1.256 . S
C544 C537 1.500 . S
C545 H510 0.929 . S
C545 C523 1.444 . S
C545 C546 1.317 . S
C546 H508 0.930 . S
C546 C514 1.432 . S
C546 C545 1.317 . S
C547 O531 1.283 . S
C547 O534 1.243 . S
C548 C549 1.382 . S
C548 C552 1.393 . S
C548 C555 1.500 . S
C549 C548 1.382 . S
C549 C550 1.400 . S
C549 H560 0.930 . S
C550 C549 1.400 . S
C550 C551 1.384 . S
C551 C550 1.384 . S
C551 C553 1.392 . S
C551 H561 0.931 . S
C552 C548 1.393 . S
C552 C553 1.401 . S
C552 H562 0.930 . S
C553 C551 1.392 . S
C553 C552 1.401 . S
C553 H563 0.930 . S
C554 O532 1.262 . S
C554 O533 1.260 . S
C555 Tb491 2.833 . S
C555 O530 1.251 . S
C555 O535 1.256 . S
C555 C548 1.500 . S
H556 C539 0.930 . S
H557 C540 0.931 . S
H558 C541 0.930 . S
H559 C542 0.930 . S
H560 C549 0.930 . S
H561 C551 0.931 . S
H562 C552 0.930 . S
H563 C553 0.930 . S
Tb564 N595 2.660 . S
Tb564 N602 2.600 . S
Tb564 O608 2.546 . S
Tb564 O609 2.610 . S
Tb564 O611 2.320 . S
Tb564 O612 2.552 . S
Tb564 O613 2.413 . S
Tb564 O615 2.376 . S
Tb564 O616 2.421 1_455 S
Tb564 C628 2.833 . S
C565 C568 1.432 . S
C565 C569 1.414 . S
C565 N572 1.359 . S
C566 C568 1.417 . S
C566 C570 1.432 . S
C566 C578 1.410 . S
C567 C569 1.444 . S
C567 C570 1.317 . S
C567 H590 0.929 . S
C568 C565 1.432 . S
C568 C566 1.417 . S
C568 N576 1.360 . S
C569 C565 1.414 . S
C569 C567 1.444 . S
C569 C574 1.385 . S
C570 C566 1.432 . S
C570 C567 1.317 . S
C570 H582 0.930 . S
C571 C573 1.392 . S
C571 C574 1.370 1_455 S
C571 H583 0.931 . S
N572 C565 1.359 . S
N572 C573 1.327 1_655 S
N572 Tb575 2.600 . S
C573 C571 1.392 . S
C573 N572 1.327 1_455 S
C573 H580 0.930 . S
C574 C569 1.385 . S
C574 C571 1.370 1_655 S
C574 H593 0.930 . S
Tb575 N572 2.600 . S
Tb575 N576 2.660 . S
Tb575 O609 2.362 1_655 S
Tb575 O610 2.421 1_655 S
Tb575 O614 2.546 . S
Tb575 O615 2.601 1_655 S
Tb575 O617 2.320 . S
Tb575 O618 2.552 . S
Tb575 O619 2.413 . S
Tb575 C639 2.833 . S
N576 C568 1.360 . S
N576 Tb575 2.660 . S
N576 C577 1.305 . S
C577 N576 1.305 . S
C577 C579 1.407 . S
C577 H584 0.930 . S
C578 C566 1.410 . S
C578 C579 1.345 . S
C578 H586 0.930 . S
C579 C577 1.407 . S
C579 C578 1.345 . S
C579 H581 0.930 . S
H580 C573 0.930 . S
H581 C579 0.930 . S
H582 C570 0.930 . S
H583 C571 0.931 . S
H584 C577 0.930 . S
H585 C599 0.930 . S
H586 C578 0.930 . S
H587 C605 0.930 1_655 S
H588 C596 0.930 . S
H589 C603 0.916 1_655 S
H590 C567 0.929 . S
H591 C597 0.930 . S
H592 C630 0.930 . S
H593 C574 0.930 . S
H594 C629 0.929 . S
N595 Tb564 2.660 . S
N595 C596 1.305 . S
N595 C600 1.360 . S
C596 H588 0.930 . S
C596 N595 1.305 . S
C596 C599 1.407 . S
C597 H591 0.930 . S
C597 C598 1.410 . S
C597 C599 1.345 . S
C598 C597 1.410 . S
C598 C600 1.417 . S
C598 C630 1.432 . S
C599 H585 0.930 . S
C599 C596 1.407 . S
C599 C597 1.345 . S
C600 N595 1.360 . S
C600 C598 1.417 . S
C600 C604 1.432 . S
H601 C606 0.930 . S
N602 Tb564 2.600 . S
N602 C604 1.359 . S
N602 C605 1.327 . S
C603 H589 0.916 1_455 S
C603 C605 1.395 . S
C603 C606 1.383 . S
C604 C600 1.432 . S
C604 N602 1.359 . S
C604 C607 1.414 . S
C605 H587 0.930 1_455 S
C605 N602 1.327 . S
C605 C603 1.395 . S
C606 H601 0.930 . S
C606 C603 1.383 . S
C606 C607 1.385 . S
C607 C604 1.414 . S
C607 C606 1.385 . S
C607 C629 1.444 . S
O608 Tb564 2.546 . S
O608 C628 1.251 . S
O609 Tb564 2.610 . S
O609 Tb575 2.362 1_455 S
O609 C620 1.283 . S
O610 Tb575 2.421 1_455 S
O610 C627 1.262 . S
O611 Tb564 2.320 . S
O611 C627 1.260 . S
O612 Tb564 2.552 . S
O612 C620 1.243 . S
O613 Tb564 2.413 . S
O613 C628 1.256 . S
O614 Tb575 2.546 . S
O614 C639 1.251 . S
O615 Tb564 2.376 . S
O615 Tb575 2.601 1_455 S
O615 C631 1.272 1_455 S
O616 Tb564 2.421 1_655 S
O616 C638 1.262 . S
O617 Tb575 2.320 . S
O617 C638 1.260 . S
O618 Tb575 2.552 . S
O618 C631 1.243 . S
O619 Tb575 2.413 . S
O619 C639 1.256 . S
C620 O609 1.283 . S
C620 O612 1.243 . S
C621 C623 1.382 . S
C621 C625 1.393 . S
C621 C628 1.500 . S
C622 C623 1.400 . S
C622 C624 1.384 . S
C623 C621 1.382 . S
C623 C622 1.400 . S
C623 H640 0.930 . S
C624 C622 1.384 . S
C624 C626 1.392 . S
C624 H641 0.931 . S
C625 C621 1.393 . S
C625 C626 1.401 . S
C625 H642 0.930 . S
C626 C624 1.392 . S
C626 C625 1.401 . S
C626 H643 0.930 . S
C627 O610 1.262 . S
C627 O611 1.260 . S
C628 Tb564 2.833 . S
C628 O608 1.251 . S
C628 O613 1.256 . S
C628 C621 1.500 . S
C629 H594 0.929 . S
C629 C607 1.444 . S
C629 C630 1.317 . S
C630 H592 0.930 . S
C630 C598 1.432 . S
C630 C629 1.317 . S
C631 O615 1.272 1_655 S
C631 O618 1.243 . S
C632 C633 1.382 . S
C632 C636 1.393 . S
C632 C639 1.500 . S
C633 C632 1.382 . S
C633 C634 1.400 . S
C633 H644 0.930 . S
C634 C633 1.400 . S
C634 C635 1.384 . S
C635 C634 1.384 . S
C635 C637 1.392 . S
C635 H645 0.931 . S
C636 C632 1.393 . S
C636 C637 1.401 . S
C636 H646 0.930 . S
C637 C635 1.392 . S
C637 C636 1.401 . S
C637 H647 0.930 . S
C638 O616 1.262 . S
C638 O617 1.260 . S
C639 Tb575 2.833 . S
C639 O614 1.251 . S
C639 O619 1.256 . S
C639 C632 1.500 . S
H640 C623 0.930 . S
H641 C624 0.931 . S
H642 C625 0.930 . S
H643 C626 0.930 . S
H644 C633 0.930 . S
H645 C635 0.931 . S
H646 C636 0.930 . S
H647 C637 0.930 . S
H648 C656 0.950 . S
H649 C661 0.950 . S
H650 C658 0.950 . S
H651 C660 0.950 . S
H652 C662 0.950 . S
H653 C664 0.950 . S
H654 C666 0.950 . S
H655 C667 0.950 1_565 S
C656 H648 0.950 . S
C656 C657 1.386 . S
C656 C658 1.391 . S
C657 C656 1.386 . S
C657 C661 1.393 . S
C658 H650 0.950 . S
C658 C656 1.391 . S
C658 C659 1.400 . S
C659 C658 1.400 . S
C659 C660 1.398 . S
C659 C665 1.491 . S
C660 H651 0.950 . S
C660 C659 1.398 . S
C660 C661 1.391 . S
C661 H649 0.950 . S
C661 C657 1.393 . S
C661 C660 1.391 . S
C662 H652 0.950 . S
C662 C663 1.386 . S
C662 C664 1.391 . S
C663 C662 1.386 . S
C663 C667 1.393 . S
C664 H653 0.950 . S
C664 C662 1.391 . S
C664 C665 1.400 . S
C665 C659 1.491 . S
C665 C664 1.400 . S
C665 C666 1.398 . S
C666 H654 0.950 . S
C666 C665 1.398 . S
C666 C667 1.391 . S
C667 H655 0.950 1_545 S
C667 C663 1.393 . S
C667 C666 1.391 . S
H668 C676 0.950 . S
H669 C681 0.950 . S
H670 C678 0.950 . S
H671 C680 0.950 . S
H672 C682 0.950 . S
H673 C684 0.950 . S
H674 C686 0.950 . S
H675 C687 0.950 . S
C676 H668 0.950 . S
C676 C677 1.386 . S
C676 C678 1.391 . S
C677 C676 1.386 . S
C677 C681 1.393 . S
C678 H670 0.950 . S
C678 C676 1.391 . S
C678 C679 1.400 . S
C679 C678 1.400 . S
C679 C680 1.398 . S
C679 C685 1.491 . S
C680 H671 0.950 . S
C680 C679 1.398 . S
C680 C681 1.391 . S
C681 H669 0.950 . S
C681 C677 1.393 . S
C681 C680 1.391 . S
C682 H672 0.950 . S
C682 C683 1.386 . S
C682 C684 1.391 . S
C683 C682 1.386 . S
C683 C687 1.393 . S
C684 H673 0.950 . S
C684 C682 1.391 . S
C684 C685 1.400 . S
C685 C679 1.491 . S
C685 C684 1.400 . S
C685 C686 1.398 . S
C686 H674 0.950 . S
C686 C685 1.398 . S
C686 C687 1.391 . S
C687 H675 0.950 . S
C687 C683 1.393 . S
C687 C686 1.391 . S
H688 C696 0.950 . S
H689 C701 0.950 . S
H690 C698 0.950 . S
H691 C700 0.950 . S
H692 C702 0.950 . S
H693 C704 0.950 . S
H694 C706 0.950 . S
H695 C707 0.950 . S
C696 H688 0.950 . S
C696 C697 1.386 . S
C696 C698 1.391 . S
C697 C696 1.386 . S
C697 C701 1.393 . S
C698 H690 0.950 . S
C698 C696 1.391 . S
C698 C699 1.400 . S
C699 C698 1.400 . S
C699 C700 1.398 . S
C699 C705 1.491 . S
C700 H691 0.950 . S
C700 C699 1.398 . S
C700 C701 1.391 . S
C701 H689 0.950 . S
C701 C697 1.393 . S
C701 C700 1.391 . S
C702 H692 0.950 . S
C702 C703 1.386 . S
C702 C704 1.391 . S
C703 C702 1.386 . S
C703 C707 1.393 . S
C704 H693 0.950 . S
C704 C702 1.391 . S
C704 C705 1.400 . S
C705 C699 1.491 . S
C705 C704 1.400 . S
C705 C706 1.398 . S
C706 H694 0.950 . S
C706 C705 1.398 . S
C706 C707 1.391 . S
C707 H695 0.950 . S
C707 C703 1.393 . S
C707 C706 1.391 . S
H708 C716 0.950 . S
H709 C721 0.950 . S
H710 C718 0.950 . S
H711 C720 0.950 . S
H712 C722 0.950 . S
H713 C724 0.950 . S
H714 C726 0.950 . S
H715 C727 0.950 . S
C716 H708 0.950 . S
C716 C717 1.386 . S
C716 C718 1.391 . S
C717 C716 1.386 . S
C717 C721 1.393 . S
C718 H710 0.950 . S
C718 C716 1.391 . S
C718 C719 1.400 . S
C719 C718 1.400 . S
C719 C720 1.398 . S
C719 C725 1.491 . S
C720 H711 0.950 . S
C720 C719 1.398 . S
C720 C721 1.391 . S
C721 H709 0.950 . S
C721 C717 1.393 . S
C721 C720 1.391 . S
C722 H712 0.950 . S
C722 C723 1.386 . S
C722 C724 1.391 . S
C723 C722 1.386 . S
C723 C727 1.393 . S
C724 H713 0.950 . S
C724 C722 1.391 . S
C724 C725 1.400 . S
C725 C719 1.491 . S
C725 C724 1.400 . S
C725 C726 1.398 . S
C726 H714 0.950 . S
C726 C725 1.398 . S
C726 C727 1.391 . S
C727 H715 0.950 . S
C727 C723 1.393 . S
C727 C726 1.391 . S
H728 C736 0.950 . S
H729 C741 0.950 . S
H730 C738 0.950 . S
H731 C740 0.950 . S
H732 C742 0.950 . S
H733 C744 0.950 . S
H734 C746 0.950 . S
H735 C747 0.928 1_545 S
C736 H728 0.950 . S
C736 C737 1.386 . S
C736 C738 1.391 . S
C737 C736 1.386 . S
C737 C741 1.393 . S
C738 H730 0.950 . S
C738 C736 1.391 . S
C738 C739 1.400 1_554 S
C739 C738 1.400 1_556 S
C739 C740 1.398 . S
C739 C745 1.491 . S
C740 H731 0.950 . S
C740 C739 1.398 . S
C740 C741 1.391 1_556 S
C741 H729 0.950 . S
C741 C737 1.393 . S
C741 C740 1.391 1_554 S
C742 H732 0.950 . S
C742 C743 1.386 . S
C742 C744 1.391 . S
C743 C742 1.386 . S
C743 C747 1.393 . S
C744 H733 0.950 . S
C744 C742 1.391 . S
C744 C745 1.400 . S
C745 C739 1.491 . S
C745 C744 1.400 . S
C745 C746 1.398 . S
C746 H734 0.950 . S
C746 C745 1.398 . S
C746 C747 1.391 . S
C747 H735 0.928 1_565 S
C747 C743 1.393 . S
C747 C746 1.391 . S
H748 C756 0.950 . S
H749 C761 0.950 . S
H750 C758 0.950 . S
H751 C760 0.949 1_556 S
H752 C762 0.950 . S
H753 C764 0.950 . S
H754 C766 0.950 . S
H755 C767 0.950 . S
C756 H748 0.950 . S
C756 C757 1.386 . S
C756 C758 1.391 1_554 S
C757 C756 1.386 . S
C757 C761 1.393 . S
C758 H750 0.950 . S
C758 C756 1.391 1_556 S
C758 C759 1.400 . S
C759 C758 1.400 . S
C759 C760 1.390 1_556 S
C759 C765 1.491 . S
C760 H751 0.949 1_554 S
C760 C759 1.390 1_554 S
C760 C761 1.399 . S
C761 H749 0.950 . S
C761 C757 1.393 . S
C761 C760 1.399 . S
C762 H752 0.950 . S
C762 C763 1.386 . S
C762 C764 1.391 . S
C763 C762 1.386 . S
C763 C767 1.393 . S
C764 H753 0.950 . S
C764 C762 1.391 . S
C764 C765 1.400 . S
C765 C759 1.491 . S
C765 C764 1.400 . S
C765 C766 1.398 . S
C766 H754 0.950 . S
C766 C765 1.398 . S
C766 C767 1.391 . S
C767 H755 0.950 . S
C767 C763 1.393 . S
C767 C766 1.391 . S
H768 C776 0.950 . S
H769 C781 0.950 . S
H770 C778 0.950 . S
H771 C780 0.950 . S
H772 C782 0.950 . S
H773 C784 0.950 . S
H774 C786 0.950 . S
H775 C787 0.950 . S
C776 H768 0.950 . S
C776 C777 1.386 . S
C776 C778 1.391 1_554 S
C777 C776 1.386 . S
C777 C781 1.393 . S
C778 H770 0.950 . S
C778 C776 1.391 1_556 S
C778 C779 1.400 . S
C779 C778 1.400 . S
C779 C780 1.398 . S
C779 C785 1.491 . S
C780 H771 0.950 . S
C780 C779 1.398 . S
C780 C781 1.391 1_556 S
C781 H769 0.950 . S
C781 C777 1.393 . S
C781 C780 1.391 1_554 S
C782 H772 0.950 . S
C782 C783 1.386 . S
C782 C784 1.391 . S
C783 C782 1.386 . S
C783 C787 1.393 . S
C784 H773 0.950 . S
C784 C782 1.391 . S
C784 C785 1.400 . S
C785 C779 1.491 . S
C785 C784 1.400 . S
C785 C786 1.398 . S
C786 H774 0.950 . S
C786 C785 1.398 . S
C786 C787 1.391 . S
C787 H775 0.950 . S
C787 C783 1.393 . S
C787 C786 1.391 . S
H788 C796 0.950 . S
H789 C801 0.950 . S
H790 C798 0.950 . S
H791 C800 0.950 . S
H792 C802 0.950 1_455 S
H793 C804 0.950 . S
H794 C806 0.950 . S
H795 C807 0.950 . S
C796 H788 0.950 . S
C796 C797 1.386 . S
C796 C798 1.391 1_554 S
C797 C796 1.386 . S
C797 C801 1.393 . S
C798 H790 0.950 . S
C798 C796 1.391 1_556 S
C798 C799 1.400 . S
C799 C798 1.400 . S
C799 C800 1.398 . S
C799 C805 1.491 . S
C800 H791 0.950 . S
C800 C799 1.398 . S
C800 C801 1.391 1_556 S
C801 H789 0.950 . S
C801 C797 1.393 . S
C801 C800 1.391 1_554 S
C802 H792 0.950 1_655 S
C802 C803 1.386 . S
C802 C804 1.391 . S
C803 C802 1.386 . S
C803 C807 1.393 . S
C804 H793 0.950 . S
C804 C802 1.391 . S
C804 C805 1.400 . S
C805 C799 1.491 . S
C805 C804 1.400 . S
C805 C806 1.398 . S
C806 H794 0.950 . S
C806 C805 1.398 . S
C806 C807 1.391 . S
C807 H795 0.950 . S
C807 C803 1.393 . S
C807 C806 1.391 . S
H808 C816 0.950 . S
H809 C821 0.950 . S
H810 C818 0.950 . S
H811 C820 0.950 . S
H812 C822 0.950 . S
H813 C824 0.950 . S
H814 C826 0.950 . S
H815 C827 0.950 . S
C816 H808 0.950 . S
C816 C817 1.386 . S
C816 C818 1.391 . S
C817 C816 1.386 . S
C817 C821 1.393 . S
C818 H810 0.950 . S
C818 C816 1.391 . S
C818 C819 1.400 . S
C819 C818 1.400 . S
C819 C820 1.398 . S
C819 C825 1.491 . S
C820 H811 0.950 . S
C820 C819 1.398 . S
C820 C821 1.391 . S
C821 H809 0.950 . S
C821 C817 1.393 . S
C821 C820 1.391 . S
C822 H812 0.950 . S
C822 C823 1.386 . S
C822 C824 1.391 . S
C823 C822 1.386 . S
C823 C827 1.393 1_455 S
C824 H813 0.950 . S
C824 C822 1.391 . S
C824 C825 1.400 . S
C825 C819 1.491 . S
C825 C824 1.400 . S
C825 C826 1.398 . S
C826 H814 0.950 . S
C826 C825 1.398 . S
C826 C827 1.391 1_455 S
C827 H815 0.950 . S
C827 C823 1.393 1_655 S
C827 C826 1.391 1_655 S
H828 C836 0.950 . S
H829 C841 0.950 . S
H830 C838 0.950 . S
H831 C840 0.950 . S
H832 C842 0.950 . S
H833 C844 0.950 . S
H834 C846 0.950 . S
H835 C847 0.950 . S
C836 H828 0.950 . S
C836 C837 1.386 . S
C836 C838 1.391 . S
C837 C836 1.386 . S
C837 C841 1.393 . S
C838 H830 0.950 . S
C838 C836 1.391 . S
C838 C839 1.400 . S
C839 C838 1.400 . S
C839 C840 1.398 . S
C839 C845 1.491 . S
C840 H831 0.950 . S
C840 C839 1.398 . S
C840 C841 1.391 . S
C841 H829 0.950 . S
C841 C837 1.393 . S
C841 C840 1.391 . S
C842 H832 0.950 . S
C842 C843 1.386 1_565 S
C842 C844 1.391 1_565 S
C843 C842 1.386 1_545 S
C843 C847 1.393 . S
C844 H833 0.950 . S
C844 C842 1.391 1_545 S
C844 C845 1.400 . S
C845 C839 1.491 . S
C845 C844 1.400 . S
C845 C846 1.398 . S
C846 H834 0.950 . S
C846 C845 1.398 . S
C846 C847 1.391 . S
C847 H835 0.950 . S
C847 C843 1.393 . S
C847 C846 1.391 . S
H848 C856 0.950 . S
H849 C861 0.950 . S
H850 C858 0.950 . S
H851 C860 0.950 . S
H852 C862 0.950 . S
H853 C864 0.950 . S
H854 C866 0.950 . S
H855 C867 0.950 . S
C856 H848 0.950 . S
C856 C857 1.386 . S
C856 C858 1.391 . S
C857 C856 1.386 . S
C857 C861 1.393 . S
C858 H850 0.950 . S
C858 C856 1.391 . S
C858 C859 1.400 . S
C859 C858 1.400 . S
C859 C860 1.398 . S
C859 C865 1.491 . S
C860 H851 0.950 . S
C860 C859 1.398 . S
C860 C861 1.391 . S
C861 H849 0.950 . S
C861 C857 1.393 . S
C861 C860 1.391 . S
C862 H852 0.950 . S
C862 C863 1.386 . S
C862 C864 1.391 . S
C863 C862 1.386 . S
C863 C867 1.393 . S
C864 H853 0.950 . S
C864 C862 1.391 . S
C864 C865 1.400 . S
C865 C859 1.491 . S
C865 C864 1.400 . S
C865 C866 1.398 . S
C866 H854 0.950 . S
C866 C865 1.398 . S
C866 C867 1.391 . S
C867 H855 0.950 . S
C867 C863 1.393 . S
C867 C866 1.391 . S
H868 C876 0.950 . S
H869 C881 0.950 . S
H870 C878 0.950 . S
H871 C880 0.950 . S
H872 C882 0.950 . S
H873 C884 0.950 . S
H874 C886 0.950 . S
H875 C887 0.950 . S
C876 H868 0.950 . S
C876 C877 1.386 . S
C876 C878 1.391 . S
C877 C876 1.386 . S
C877 C881 1.393 . S
C878 H870 0.950 . S
C878 C876 1.391 . S
C878 C879 1.400 . S
C879 C878 1.400 . S
C879 C880 1.398 . S
C879 C885 1.491 . S
C880 H871 0.950 . S
C880 C879 1.398 . S
C880 C881 1.391 . S
C881 H869 0.950 . S
C881 C877 1.393 . S
C881 C880 1.391 . S
C882 H872 0.950 . S
C882 C883 1.386 . S
C882 C884 1.391 . S
C883 C882 1.386 . S
C883 C887 1.393 . S
C884 H873 0.950 . S
C884 C882 1.391 . S
C884 C885 1.400 . S
C885 C879 1.491 . S
C885 C884 1.400 . S
C885 C886 1.398 . S
C886 H874 0.950 . S
C886 C885 1.398 . S
C886 C887 1.391 . S
C887 H875 0.950 . S
C887 C883 1.393 . S
C887 C886 1.391 . S
H888 C896 0.950 . S
H889 C901 0.950 1_554 S
H890 C898 0.950 . S
H891 C900 0.950 . S
H892 C902 0.950 . S
H893 C904 0.950 . S
H894 C906 0.950 1_455 S
H895 C907 0.950 . S
C896 H888 0.950 . S
C896 C897 1.386 . S
C896 C898 1.391 . S
C897 C896 1.386 . S
C897 C901 1.393 . S
C898 H890 0.950 . S
C898 C896 1.391 . S
C898 C899 1.400 . S
C899 C898 1.400 . S
C899 C900 1.398 . S
C899 C905 1.491 . S
C900 H891 0.950 . S
C900 C899 1.398 . S
C900 C901 1.391 . S
C901 H889 0.950 1_556 S
C901 C897 1.393 . S
C901 C900 1.391 . S
C902 H892 0.950 . S
C902 C903 1.386 1_655 S
C902 C904 1.391 . S
C903 C902 1.386 1_455 S
C903 C907 1.393 . S
C904 H893 0.950 . S
C904 C902 1.391 . S
C904 C905 1.400 . S
C905 C899 1.491 . S
C905 C904 1.400 . S
C905 C906 1.398 . S
C906 H894 0.950 1_655 S
C906 C905 1.398 . S
C906 C907 1.391 1_655 S
C907 H895 0.950 . S
C907 C903 1.393 . S
C907 C906 1.391 1_455 S
H908 C916 0.950 . S
H909 C921 0.950 . S
H910 C918 0.950 . S
H911 C920 0.950 1_554 S
H912 C922 0.950 . S
H913 C924 0.950 . S
H914 C926 0.950 . S
H915 C927 0.950 . S
C916 H908 0.950 . S
C916 C917 1.386 . S
C916 C918 1.391 . S
C917 C916 1.386 . S
C917 C921 1.393 1_556 S
C918 H910 0.950 . S
C918 C916 1.391 . S
C918 C919 1.400 . S
C919 C918 1.400 . S
C919 C920 1.398 . S
C919 C925 1.491 . S
C920 H911 0.950 1_556 S
C920 C919 1.398 . S
C920 C921 1.391 1_556 S
C921 H909 0.950 . S
C921 C917 1.393 1_554 S
C921 C920 1.391 1_554 S
C922 H912 0.950 . S
C922 C923 1.386 1_565 S
C922 C924 1.391 . S
C923 C922 1.386 1_545 S
C923 C927 1.393 . S
C924 H913 0.950 . S
C924 C922 1.391 . S
C924 C925 1.400 . S
C925 C919 1.491 . S
C925 C924 1.400 . S
C925 C926 1.398 . S
C926 H914 0.950 . S
C926 C925 1.398 . S
C926 C927 1.391 1_565 S
C927 H915 0.950 . S
C927 C923 1.393 . S
C927 C926 1.391 1_545 S
H928 C936 0.950 . S
H929 C941 0.950 . S
H930 C938 0.950 . S
H931 C940 0.950 . S
H932 C942 0.950 . S
H933 C944 0.950 . S
H934 C946 0.950 . S
H935 C947 0.950 . S
C936 H928 0.950 . S
C936 C937 1.386 . S
C936 C938 1.391 . S
C937 C936 1.386 . S
C937 C941 1.393 . S
C938 H930 0.950 . S
C938 C936 1.391 . S
C938 C939 1.400 . S
C939 C938 1.400 . S
C939 C940 1.398 . S
C939 C945 1.491 . S
C940 H931 0.950 . S
C940 C939 1.398 . S
C940 C941 1.391 . S
C941 H929 0.950 . S
C941 C937 1.393 . S
C941 C940 1.391 . S
C942 H932 0.950 . S
C942 C943 1.386 . S
C942 C944 1.391 . S
C943 C942 1.386 . S
C943 C947 1.393 . S
C944 H933 0.950 . S
C944 C942 1.391 . S
C944 C945 1.400 . S
C945 C939 1.491 . S
C945 C944 1.400 . S
C945 C946 1.398 . S
C946 H934 0.950 . S
C946 C945 1.398 . S
C946 C947 1.391 . S
C947 H935 0.950 . S
C947 C943 1.393 . S
C947 C946 1.391 . S
H948 C956 0.950 . S
H949 C961 0.950 . S
H950 C958 0.950 . S
H951 C960 0.943 1_554 S
H952 C962 0.950 . S
H953 C964 0.950 . S
H954 C966 0.950 . S
H955 C967 0.950 . S
C956 H948 0.950 . S
C956 C957 1.386 . S
C956 C958 1.391 . S
C957 C956 1.386 . S
C957 C961 1.393 1_556 S
C958 H950 0.950 . S
C958 C956 1.391 . S
C958 C959 1.400 . S
C959 C958 1.400 . S
C959 C960 1.398 . S
C959 C965 1.491 . S
C960 H951 0.943 1_556 S
C960 C959 1.398 . S
C960 C961 1.391 1_556 S
C961 H949 0.950 . S
C961 C957 1.393 1_554 S
C961 C960 1.391 1_554 S
C962 H952 0.950 . S
C962 C963 1.386 . S
C962 C964 1.391 . S
C963 C962 1.386 . S
C963 C967 1.393 . S
C964 H953 0.950 . S
C964 C962 1.391 . S
C964 C965 1.400 . S
C965 C959 1.491 . S
C965 C964 1.400 . S
C965 C966 1.398 . S
C966 H954 0.950 . S
C966 C965 1.398 . S
C966 C967 1.391 . S
C967 H955 0.950 . S
C967 C963 1.393 . S
C967 C966 1.391 . S
H968 C976 0.950 . S
H969 C981 0.950 . S
H970 C978 0.950 . S
H971 C980 0.950 . S
H972 C982 0.950 . S
H973 C984 0.950 . S
H974 C986 0.950 . S
H975 C987 0.950 . S
C976 H968 0.950 . S
C976 C977 1.386 . S
C976 C978 1.391 . S
C977 C976 1.386 . S
C977 C981 1.393 . S
C978 H970 0.950 . S
C978 C976 1.391 . S
C978 C979 1.400 . S
C979 C978 1.400 . S
C979 C980 1.398 . S
C979 C985 1.491 . S
C980 H971 0.950 . S
C980 C979 1.398 . S
C980 C981 1.391 . S
C981 H969 0.950 . S
C981 C977 1.393 . S
C981 C980 1.391 . S
C982 H972 0.950 . S
C982 C983 1.386 . S
C982 C984 1.391 . S
C983 C982 1.386 . S
C983 C987 1.393 . S
C984 H973 0.950 . S
C984 C982 1.391 . S
C984 C985 1.400 . S
C985 C979 1.491 . S
C985 C984 1.400 . S
C985 C986 1.398 . S
C986 H974 0.950 . S
C986 C985 1.398 . S
C986 C987 1.391 . S
C987 H975 0.950 . S
C987 C983 1.393 . S
C987 C986 1.391 . S
H988 C996 0.950 . S
H989 C1001 0.950 . S
H990 C998 0.950 . S
H991 C1000 0.950 . S
H992 C1002 0.950 . S
H993 C1004 0.950 . S
H994 C1006 0.950 . S
H995 C1007 0.950 . S
C996 H988 0.950 . S
C996 C997 1.386 . S
C996 C998 1.391 . S
C997 C996 1.386 . S
C997 C1001 1.393 . S
C998 H990 0.950 . S
C998 C996 1.391 . S
C998 C999 1.400 . S
C999 C998 1.400 . S
C999 C1000 1.398 . S
C999 C1005 1.491 . S
C1000 H991 0.950 . S
C1000 C999 1.398 . S
C1000 C1001 1.391 . S
C1001 H989 0.950 . S
C1001 C997 1.393 . S
C1001 C1000 1.391 . S
C1002 H992 0.950 . S
C1002 C1003 1.386 . S
C1002 C1004 1.391 . S
C1003 C1002 1.386 . S
C1003 C1007 1.393 . S
C1004 H993 0.950 . S
C1004 C1002 1.391 . S
C1004 C1005 1.400 . S
C1005 C999 1.491 . S
C1005 C1004 1.400 . S
C1005 C1006 1.398 . S
C1006 H994 0.950 . S
C1006 C1005 1.398 . S
C1006 C1007 1.391 . S
C1007 H995 0.950 . S
C1007 C1003 1.393 . S
C1007 C1006 1.391 . S
H1008 C1016 0.950 . S
H1009 C1021 0.950 . S
H1010 C1018 0.950 . S
H1011 C1020 0.950 . S
H1012 C1022 0.950 . S
H1013 C1024 0.950 . S
H1014 C1026 0.950 . S
H1015 C1027 0.950 . S
C1016 H1008 0.950 . S
C1016 C1017 1.386 . S
C1016 C1018 1.391 . S
C1017 C1016 1.386 . S
C1017 C1021 1.393 . S
C1018 H1010 0.950 . S
C1018 C1016 1.391 . S
C1018 C1019 1.400 . S
C1019 C1018 1.400 . S
C1019 C1020 1.398 . S
C1019 C1025 1.491 . S
C1020 H1011 0.950 . S
C1020 C1019 1.398 . S
C1020 C1021 1.391 . S
C1021 H1009 0.950 . S
C1021 C1017 1.393 . S
C1021 C1020 1.391 . S
C1022 H1012 0.950 . S
C1022 C1023 1.386 . S
C1022 C1024 1.391 . S
C1023 C1022 1.386 . S
C1023 C1027 1.393 . S
C1024 H1013 0.950 . S
C1024 C1022 1.391 . S
C1024 C1025 1.400 . S
C1025 C1019 1.491 . S
C1025 C1024 1.400 . S
C1025 C1026 1.398 . S
C1026 H1014 0.950 . S
C1026 C1025 1.398 . S
C1026 C1027 1.391 . S
C1027 H1015 0.950 . S
C1027 C1023 1.393 . S
C1027 C1026 1.391 . S
H1028 C1036 0.950 . S
H1029 C1041 0.950 . S
H1030 C1038 0.950 . S
H1031 C1040 0.950 . S
H1032 C1042 0.950 . S
H1033 C1044 0.950 . S
H1034 C1046 0.950 . S
H1035 C1047 0.950 . S
C1036 H1028 0.950 . S
C1036 C1037 1.386 . S
C1036 C1038 1.391 . S
C1037 C1036 1.386 . S
C1037 C1041 1.393 . S
C1038 H1030 0.950 . S
C1038 C1036 1.391 . S
C1038 C1039 1.400 . S
C1039 C1038 1.400 . S
C1039 C1040 1.398 . S
C1039 C1045 1.491 . S
C1040 H1031 0.950 . S
C1040 C1039 1.398 . S
C1040 C1041 1.391 . S
C1041 H1029 0.950 . S
C1041 C1037 1.393 . S
C1041 C1040 1.391 . S
C1042 H1032 0.950 . S
C1042 C1043 1.386 . S
C1042 C1044 1.391 . S
C1043 C1042 1.386 . S
C1043 C1047 1.393 . S
C1044 H1033 0.950 . S
C1044 C1042 1.391 . S
C1044 C1045 1.400 . S
C1045 C1039 1.491 . S
C1045 C1044 1.400 . S
C1045 C1046 1.398 . S
C1046 H1034 0.950 . S
C1046 C1045 1.398 . S
C1046 C1047 1.391 . S
C1047 H1035 0.950 . S
C1047 C1043 1.393 . S
C1047 C1046 1.391 . S
H1048 C1056 0.950 . S
H1049 C1061 0.950 . S
H1050 C1058 0.950 . S
H1051 C1060 0.950 . S
H1052 C1062 0.950 . S
H1053 C1064 0.950 . S
H1054 C1066 0.950 . S
H1055 C1067 0.950 . S
C1056 H1048 0.950 . S
C1056 C1057 1.386 . S
C1056 C1058 1.391 . S
C1057 C1056 1.386 . S
C1057 C1061 1.393 . S
C1058 H1050 0.950 . S
C1058 C1056 1.391 . S
C1058 C1059 1.400 . S
C1059 C1058 1.400 . S
C1059 C1060 1.398 . S
C1059 C1065 1.491 . S
C1060 H1051 0.950 . S
C1060 C1059 1.398 . S
C1060 C1061 1.391 . S
C1061 H1049 0.950 . S
C1061 C1057 1.393 . S
C1061 C1060 1.391 . S
C1062 H1052 0.950 . S
C1062 C1063 1.386 . S
C1062 C1064 1.391 . S
C1063 C1062 1.386 . S
C1063 C1067 1.393 . S
C1064 H1053 0.950 . S
C1064 C1062 1.391 . S
C1064 C1065 1.400 . S
C1065 C1059 1.491 . S
C1065 C1064 1.400 . S
C1065 C1066 1.398 . S
C1066 H1054 0.950 . S
C1066 C1065 1.398 . S
C1066 C1067 1.391 . S
C1067 H1055 0.950 . S
C1067 C1063 1.393 . S
C1067 C1066 1.391 . S
H1068 C1076 0.950 . S
H1069 C1081 0.950 . S
H1070 C1078 0.950 . S
H1071 C1080 0.950 . S
H1072 C1082 0.950 . S
H1073 C1084 0.950 . S
H1074 C1086 0.950 . S
H1075 C1087 0.978 . S
C1076 H1068 0.950 . S
C1076 C1077 1.386 . S
C1076 C1078 1.391 . S
C1077 C1076 1.386 . S
C1077 C1081 1.393 . S
C1078 H1070 0.950 . S
C1078 C1076 1.391 . S
C1078 C1079 1.400 . S
C1079 C1078 1.400 . S
C1079 C1080 1.398 . S
C1079 C1085 1.491 . S
C1080 H1071 0.950 . S
C1080 C1079 1.398 . S
C1080 C1081 1.391 . S
C1081 H1069 0.950 . S
C1081 C1077 1.393 . S
C1081 C1080 1.391 . S
C1082 H1072 0.950 . S
C1082 C1083 1.386 . S
C1082 C1084 1.391 . S
C1083 C1082 1.386 . S
C1083 C1087 1.393 . S
C1084 H1073 0.950 . S
C1084 C1082 1.391 . S
C1084 C1085 1.400 . S
C1085 C1079 1.491 . S
C1085 C1084 1.400 . S
C1085 C1086 1.398 . S
C1086 H1074 0.950 . S
C1086 C1085 1.398 . S
C1086 C1087 1.391 . S
C1087 H1075 0.978 . S
C1087 C1083 1.393 . S
C1087 C1086 1.391 . S
H1088 C1096 0.950 . S
H1089 C1101 0.950 . S
H1090 C1098 0.950 . S
H1091 C1100 0.950 . S
H1092 C1102 0.950 . S
H1093 C1104 0.950 . S
H1094 C1106 0.950 . S
H1095 C1107 0.950 . S
C1096 H1088 0.950 . S
C1096 C1097 1.386 . S
C1096 C1098 1.391 . S
C1097 C1096 1.386 . S
C1097 C1101 1.393 . S
C1098 H1090 0.950 . S
C1098 C1096 1.391 . S
C1098 C1099 1.400 . S
C1099 C1098 1.400 . S
C1099 C1100 1.398 . S
C1099 C1105 1.491 . S
C1100 H1091 0.950 . S
C1100 C1099 1.398 . S
C1100 C1101 1.391 . S
C1101 H1089 0.950 . S
C1101 C1097 1.393 . S
C1101 C1100 1.391 . S
C1102 H1092 0.950 . S
C1102 C1103 1.386 . S
C1102 C1104 1.391 . S
C1103 C1102 1.386 . S
C1103 C1107 1.393 . S
C1104 H1093 0.950 . S
C1104 C1102 1.391 . S
C1104 C1105 1.400 . S
C1105 C1099 1.491 . S
C1105 C1104 1.400 . S
C1105 C1106 1.398 . S
C1106 H1094 0.950 . S
C1106 C1105 1.398 . S
C1106 C1107 1.391 . S
C1107 H1095 0.950 . S
C1107 C1103 1.393 . S
C1107 C1106 1.391 . S
H1108 C1116 0.950 . S
H1109 C1121 0.950 . S
H1110 C1118 0.950 . S
H1111 C1120 0.950 . S
H1112 C1122 0.950 . S
H1113 C1124 0.950 . S
H1114 C1126 0.950 . S
H1115 C1127 0.950 . S
C1116 H1108 0.950 . S
C1116 C1117 1.386 . S
C1116 C1118 1.391 . S
C1117 C1116 1.386 . S
C1117 C1121 1.393 . S
C1118 H1110 0.950 . S
C1118 C1116 1.391 . S
C1118 C1119 1.400 . S
C1119 C1118 1.400 . S
C1119 C1120 1.398 . S
C1119 C1125 1.491 . S
C1120 H1111 0.950 . S
C1120 C1119 1.398 . S
C1120 C1121 1.391 . S
C1121 H1109 0.950 . S
C1121 C1117 1.393 . S
C1121 C1120 1.391 . S
C1122 H1112 0.950 . S
C1122 C1123 1.386 . S
C1122 C1124 1.391 . S
C1123 C1122 1.386 . S
C1123 C1127 1.393 . S
C1124 H1113 0.950 . S
C1124 C1122 1.391 . S
C1124 C1125 1.400 . S
C1125 C1119 1.491 . S
C1125 C1124 1.400 . S
C1125 C1126 1.398 . S
C1126 H1114 0.950 . S
C1126 C1125 1.398 . S
C1126 C1127 1.391 . S
C1127 H1115 0.950 . S
C1127 C1123 1.393 . S
C1127 C1126 1.391 . S
C657 C255 2.246 . S
C663 C386 2.328 . S
C683 C470 2.367 . S
C677 C294 2.278 . S
C703 C536 2.257 . S
C697 C177 2.376 . S
C723 C620 2.250 . S
C717 C216 2.369 . S
C743 C375 2.336 1_565 S
C737 C99 2.276 . S
C757 C138 2.255 . S
C763 C459 2.374 . S
C777 C21 2.390 . S
C783 C547 2.257 . S
C797 C60 2.385 . S
C803 C631 2.250 . S
C823 C382 0.618 1_455 S
C817 C196 0.675 . S
C843 C466 0.563 1_545 S
C837 C235 0.640 . S
C863 C538 0.536 . S
C857 C289 0.586 . S
C877 C157 0.652 . S
C883 C622 0.581 . S
C897 C40 0.688 1_556 S
C903 C370 0.617 . S
C923 C454 0.552 . S
C917 C79 0.642 1_556 S
C943 C550 0.585 . S
C937 C133 0.554 1_556 S
C957 C1 0.669 1_556 S
C963 C634 0.592 . S
C977 C211 2.748 . S
C983 C379 2.902 . S
C997 C250 2.710 . S
C1003 C463 2.856 . S
C1023 C543 2.932 . S
C1017 C274 2.619 . S
C1043 C627 2.963 . S
C1037 C172 2.641 . S
C1057 C55 2.745 . S
C1063 C368 2.910 . S
C1083 C452 2.864 . S
C1077 C94 2.701 . S
C1103 C554 2.939 . S
C1097 C118 2.616 . S
C1117 C16 2.631 . S
C1123 C638 2.961 . S
