# Generated by pormake.
# Topology zzz, (3,6)-cn, num edge types: 1
# Building blocks:
#     Node 0, Type 0, BuildingBlock: QEWDON_clean_linker_0, # of connection points: 3
#     Node 1, Type 0, BuildingBlock: QEWDON_clean_linker_0, # of connection points: 3
#     Node 2, Type 0, BuildingBlock: QEWDON_clean_linker_0, # of connection points: 3
#     Node 3, Type 0, BuildingBlock: QEWDON_clean_linker_0, # of connection points: 3
#     Node 4, Type 0, BuildingBlock: QEWDON_clean_linker_0, # of connection points: 3
#     Node 5, Type 0, BuildingBlock: QEWDON_clean_linker_0, # of connection points: 3
#     Node 6, Type 0, BuildingBlock: QEWDON_clean_linker_0, # of connection points: 3
#     Node 7, Type 0, BuildingBlock: QEWDON_clean_linker_0, # of connection points: 3
#     Node 8, Type 1, BuildingBlock: KUMJIN_clean_sbu_0, # of connection points: 6
#     Node 9, Type 1, BuildingBlock: KUMJIN_clean_sbu_0, # of connection points: 6
#     Node 10, Type 1, BuildingBlock: KUMJIN_clean_sbu_0, # of connection points: 6
#     Node 11, Type 1, BuildingBlock: KUMJIN_clean_sbu_0, # of connection points: 6
#     Edge 12, Type (0, 1), BuildingBlock: MIFKUJ_clean_linker_0, # of connection points: 2
#     Edge 13, Type (0, 1), BuildingBlock: MIFKUJ_clean_linker_0, # of connection points: 2
#     Edge 14, Type (0, 1), BuildingBlock: MIFKUJ_clean_linker_0, # of connection points: 2
#     Edge 15, Type (0, 1), BuildingBlock: MIFKUJ_clean_linker_0, # of connection points: 2
#     Edge 16, Type (0, 1), BuildingBlock: MIFKUJ_clean_linker_0, # of connection points: 2
#     Edge 17, Type (0, 1), BuildingBlock: MIFKUJ_clean_linker_0, # of connection points: 2
#     Edge 18, Type (0, 1), BuildingBlock: MIFKUJ_clean_linker_0, # of connection points: 2
#     Edge 19, Type (0, 1), BuildingBlock: MIFKUJ_clean_linker_0, # of connection points: 2
#     Edge 20, Type (0, 1), BuildingBlock: MIFKUJ_clean_linker_0, # of connection points: 2
#     Edge 21, Type (0, 1), BuildingBlock: MIFKUJ_clean_linker_0, # of connection points: 2
#     Edge 22, Type (0, 1), BuildingBlock: MIFKUJ_clean_linker_0, # of connection points: 2
#     Edge 23, Type (0, 1), BuildingBlock: MIFKUJ_clean_linker_0, # of connection points: 2
#     Edge 24, Type (0, 1), BuildingBlock: MIFKUJ_clean_linker_0, # of connection points: 2
#     Edge 25, Type (0, 1), BuildingBlock: MIFKUJ_clean_linker_0, # of connection points: 2
#     Edge 26, Type (0, 1), BuildingBlock: MIFKUJ_clean_linker_0, # of connection points: 2
#     Edge 27, Type (0, 1), BuildingBlock: MIFKUJ_clean_linker_0, # of connection points: 2
#     Edge 28, Type (0, 1), BuildingBlock: MIFKUJ_clean_linker_0, # of connection points: 2
#     Edge 29, Type (0, 1), BuildingBlock: MIFKUJ_clean_linker_0, # of connection points: 2
#     Edge 30, Type (0, 1), BuildingBlock: MIFKUJ_clean_linker_0, # of connection points: 2
#     Edge 31, Type (0, 1), BuildingBlock: MIFKUJ_clean_linker_0, # of connection points: 2
#     Edge 32, Type (0, 1), BuildingBlock: MIFKUJ_clean_linker_0, # of connection points: 2
#     Edge 33, Type (0, 1), BuildingBlock: MIFKUJ_clean_linker_0, # of connection points: 2
#     Edge 34, Type (0, 1), BuildingBlock: MIFKUJ_clean_linker_0, # of connection points: 2
#     Edge 35, Type (0, 1), BuildingBlock: MIFKUJ_clean_linker_0, # of connection points: 2
# Relax obj value: 0.092
# Max RMSD: 0.141
# Mean RMSD: 0.071
data_MOF--net-zzz--node1-KUMJIN_clean_sbu_0--node2-QEWDON_clean_linker_0--edge1-MIFKUJ_clean_linker_0
_symmetry_space_group_name_H-M    P1
_symmetry_Int_Tables_number       1
_symmetry_cell_setting            triclinic
loop_
_symmetry_equiv_pos_as_xyz
'x, y, z'
_cell_length_a     70.073766
_cell_length_b     70.026458
_cell_length_c     18.494675
_cell_angle_alpha  90.708198
_cell_angle_beta   89.945117
_cell_angle_gamma 89.924326
loop_
_atom_site_label
_atom_site_type_symbol
_atom_site_fract_x
_atom_site_fract_y
_atom_site_fract_z
_atom_type_partial_charge
H0 H 0.76352 0.54305 0.05032 0.0
C1 C 0.77323 0.53866 0.09242 0.0
C2 C 0.7929 0.53974 0.07886 0.0
C3 C 0.76622 0.53304 0.16044 0.0
H4 H 0.82106 0.53587 0.12289 0.0
C5 C 0.80587 0.53505 0.13362 0.0
C6 C 0.79966 0.52961 0.20231 0.0
C7 C 0.7798 0.52851 0.21539 0.0
C8 C 0.74492 0.53322 0.17482 0.0
H9 H 0.77512 0.52388 0.26807 0.0
C10 C 0.73104 0.53118 0.11847 0.0
C11 C 0.71123 0.53325 0.13304 0.0
C12 C 0.73823 0.53668 0.24566 0.0
H13 H 0.74795 0.53902 0.29022 0.0
C14 C 0.71877 0.5379 0.26047 0.0
H15 H 0.73546 0.5284 0.0633 0.0
C16 C 0.70544 0.53628 0.20504 0.0
H17 H 0.69044 0.53753 0.21865 0.0
H18 H 0.71399 0.54051 0.31539 0.0
H19 H 0.99227 0.76416 0.08799 0.0
C20 C 0.9954 0.77468 0.12956 0.0
C21 C 0.99248 0.7939 0.11311 0.0
C22 C 1.00197 0.76906 0.19801 0.0
H23 H 0.99316 0.82285 0.15349 0.0
C24 C 0.99505 0.80793 0.16685 0.0
C25 C 1.00087 0.80328 0.23678 0.0
C26 C 1.0049 0.78379 0.25177 0.0
C27 C 1.00488 0.74788 0.2123 0.0
H28 H 1.0101 0.78032 0.30502 0.0
C29 C 1.00775 0.73401 0.15534 0.0
C30 C 1.00913 0.71414 0.16968 0.0
C31 C 1.00377 0.7411 0.28348 0.0
H32 H 1.00104 0.75065 0.32868 0.0
C33 C 1.0055 0.72167 0.29795 0.0
H34 H 1.00926 0.73844 0.09986 0.0
C35 C 1.00806 0.70837 0.24205 0.0
H36 H 1.0088 0.69338 0.25564 0.0
H37 H 1.00448 0.71681 0.35317 0.0
H38 H 0.7744 0.98724 0.10741 0.0
C39 C 0.76341 0.99069 0.14635 0.0
C40 C 0.74465 0.98549 0.12891 0.0
C41 C 0.76776 1.00033 0.21182 0.0
H42 H 0.71549 0.98502 0.1656 0.0
C43 C 0.7301 0.98854 0.17968 0.0
C44 C 0.73363 0.99745 0.24627 0.0
C45 C 0.75236 1.00395 0.26123 0.0
C46 C 0.78821 1.00633 0.22779 0.0
H47 H 0.75463 1.01176 0.3112 0.0
C48 C 0.80252 1.00772 0.17264 0.0
C49 C 0.82177 0.01236 0.18936 0.0
C50 C 0.79387 1.01017 0.2996 0.0
H51 H 0.78412 1.0087 0.34444 0.0
C52 C 0.81248 0.01567 0.31588 0.0
H53 H 0.79898 1.00502 0.11673 0.0
C54 C 0.82623 0.01684 0.26175 0.0
H55 H 0.84045 0.0213 0.27715 0.0
H56 H 0.81637 0.01882 0.37139 0.0
H57 H 0.54863 0.77909 0.10674 0.0
C58 C 0.54369 0.77066 0.15169 0.0
C59 C 0.54304 0.75077 0.14339 0.0
C60 C 0.53838 0.77944 0.21804 0.0
H61 H 0.53739 0.724 0.19444 0.0
C62 C 0.53757 0.73941 0.20125 0.0
C63 C 0.53308 0.74741 0.2684 0.0
C64 C 0.53315 0.76744 0.27671 0.0
C65 C 0.53899 0.80089 0.2265 0.0
H66 H 0.52908 0.77346 0.32862 0.0
C67 C 0.53629 0.81329 0.16688 0.0
C68 C 0.53692 0.83336 0.17625 0.0
C69 C 0.54264 0.80922 0.29485 0.0
H70 H 0.54558 0.80055 0.34152 0.0
C71 C 0.54301 0.82901 0.30422 0.0
H72 H 0.5333 0.80753 0.11352 0.0
C73 C 0.54009 0.84099 0.24569 0.0
H74 H 0.54071 0.8563 0.25442 0.0
H75 H 0.54579 0.83511 0.35723 0.0
H76 H 0.28349 0.49008 0.10801 0.0
C77 C 0.27361 0.49368 0.06544 0.0
C78 C 0.25436 0.48922 0.07539 0.0
C79 C 0.27989 0.50237 1.00104 0.0
H80 H 0.22619 0.48965 0.03021 0.0
C81 C 0.24112 0.49294 0.02112 0.0
C82 C 0.24645 0.50174 0.95716 0.0
C83 C 0.26583 0.50682 0.94746 0.0
C84 C 0.30102 0.50581 0.98904 0.0
H85 H 0.26973 0.5141 0.89839 0.0
C86 C 0.3144 0.50747 0.04725 0.0
C87 C 0.33433 0.50875 0.0341 0.0
C88 C 0.30826 0.50619 0.91798 0.0
H89 H 0.29904 0.50437 0.87158 0.0
C90 C 0.32772 0.50828 0.9049 0.0
H91 H 0.30954 0.50742 0.10273 0.0
C92 C 0.34061 0.50948 0.962 0.0
H93 H 0.35563 0.51098 0.94946 0.0
H94 H 0.33292 0.50861 0.84978 0.0
H95 H 0.04378 0.27864 0.15054 0.0
C96 C 0.03945 0.26792 0.11132 0.0
C97 C 0.04183 0.24866 0.12901 0.0
C98 C 0.03158 0.27341 0.04484 0.0
H99 H 0.03909 0.2195 0.0907 0.0
C100 C 0.0376 0.23445 0.07714 0.0
C101 C 0.03058 0.23907 0.00874 0.0
C102 C 0.02723 0.25862 0.99305 0.0
C103 C 0.02845 0.29453 0.03077 0.0
H104 H 0.02103 0.26207 0.94131 0.0
C105 C 0.02594 0.30839 0.08798 0.0
C106 C 0.02396 0.3282 0.07348 0.0
C107 C 0.02875 0.30122 0.95938 0.0
H108 H 0.03115 0.2916 0.91409 0.0
C109 C 0.02655 0.32059 0.94486 0.0
H110 H 0.02514 0.30394 0.14368 0.0
C111 C 0.02423 0.3339 1.00089 0.0
H112 H 0.02302 0.34885 0.98718 0.0
H113 H 0.02694 0.3254 0.88946 0.0
H114 H 0.26418 0.05448 0.12209 0.0
C115 C 0.27444 0.0499 0.08163 0.0
C116 C 0.29375 0.05424 0.09272 0.0
C117 C 0.26838 0.04039 0.01807 0.0
H118 H 0.32227 0.05209 0.04947 0.0
C119 C 0.30729 0.04902 0.04022 0.0
C120 C 0.30198 0.03937 0.9769 0.0
C121 C 0.2825 0.03499 0.96584 0.0
C122 C 0.24734 0.03717 0.00515 0.0
H123 H 0.27851 0.02723 0.91721 0.0
C124 C 0.234 0.03467 0.06278 0.0
C125 C 0.21413 0.03285 0.04903 0.0
C126 C 0.24025 0.03769 0.93406 0.0
H127 H 0.24961 0.04015 0.8886 0.0
C128 C 0.22081 0.03579 0.92027 0.0
H129 H 0.239 0.03388 0.118 0.0
C130 C 0.2079 0.0335 0.97679 0.0
H131 H 0.19287 0.03266 0.96364 0.0
H132 H 0.21564 0.03644 0.8652 0.0
H133 H 0.49825 0.26572 0.12573 0.0
C134 C 0.49826 0.27538 0.0805 0.0
C135 C 0.49055 0.29371 0.09058 0.0
C136 C 0.50688 0.26988 0.01457 0.0
H137 H 0.48631 0.32126 0.04244 0.0
C138 C 0.49131 0.30676 0.03361 0.0
C139 C 0.49996 0.30201 0.96746 0.0
C140 C 0.50764 0.28349 0.95801 0.0
C141 C 0.51643 0.25063 0.00809 0.0
H142 H 0.51416 0.27981 0.90661 0.0
C143 C 0.51012 0.23463 0.04845 0.0
C144 C 0.52026 0.2171 0.04682 0.0
C145 C 0.53286 0.24844 0.9649 0.0
H146 H 0.53864 0.26027 0.9349 0.0
C147 C 0.54265 0.23112 0.96185 0.0
H148 H 0.49729 0.23567 0.08086 0.0
C149 C 0.53656 0.21567 1.00259 0.0
H150 H 0.54499 0.20271 1.00073 0.0
H151 H 0.55537 0.22979 0.92888 0.0
Eu152 Eu 0.03282 0.01691 0.69153 0.0
C153 C 0.9647 1.00693 0.48078 0.0
C154 C 0.97423 0.98101 0.40025 0.0
C155 C 0.94062 0.9866 0.42448 0.0
C156 C 0.97905 0.99627 0.44748 0.0
C157 C 0.94534 1.00259 0.46726 0.0
C158 C 0.95503 0.97582 0.39109 0.0
C159 C 0.93665 0.03177 0.53007 0.0
N160 N 0.96958 0.02252 0.52103 0.0
C161 C 0.95599 0.03549 0.54216 0.0
C162 C 0.93127 0.01501 0.49404 0.0
Eu163 Eu 1.00261 0.02745 0.53962 0.0
N164 N 0.99758 1.00164 0.4569 0.0
C165 C 1.0116 0.9935 0.41513 0.0
C166 C 0.98876 0.97186 0.3612 0.0
C167 C 1.00746 0.97837 0.3677 0.0
H168 H 0.95993 0.04857 0.56958 0.0
H169 H 0.01876 0.97165 0.33656 0.0
H170 H 0.95115 0.96395 0.356 0.0
H171 H 0.92592 0.04182 0.54865 0.0
H172 H 0.02619 0.998 0.41915 0.0
H173 H 1.01042 0.06611 0.91077 0.0
H174 H 0.98563 0.9601 0.32449 0.0
H175 H 0.07803 1.00354 0.65444 0.0
H176 H 1.00688 0.03897 0.82825 0.0
H177 H 0.11065 0.0165 0.66872 0.0
H178 H 0.92583 0.9829 0.41449 0.0
H179 H 0.04048 0.08447 0.91382 0.0
H180 H 0.07437 0.08766 0.87342 0.0
H181 H 0.91628 0.0122 0.48454 0.0
H182 H 0.10182 0.07407 0.80781 0.0
N183 N 0.03449 0.04191 0.7801 0.0
C184 C 0.02012 0.04664 0.82731 0.0
C185 C 0.03905 0.07246 0.87674 0.0
C186 C 0.0543 0.06656 0.8331 0.0
C187 C 0.02208 0.06211 0.87527 0.0
C188 C 0.05169 0.05083 0.78551 0.0
H189 H 0.11559 0.04723 0.73333 0.0
N190 N 0.06472 0.02708 0.70819 0.0
C191 C 0.09857 0.02424 0.69086 0.0
C192 C 0.06723 0.04322 0.7484 0.0
C193 C 0.08012 0.01693 0.68304 0.0
C194 C 0.10127 0.04163 0.72709 0.0
C195 C 0.0856 0.0511 0.75801 0.0
O196 O 0.04863 1.00305 0.778 0.0
O197 O 0.01617 1.00331 0.60061 0.0
O198 O 0.98249 0.01705 0.62795 0.0
O199 O 1.00179 0.01904 0.73068 0.0
O200 O 0.04356 0.99314 0.61735 0.0
O201 O 0.02143 0.99166 0.74508 0.0
O202 O 0.01351 0.05428 0.49662 0.0
O203 O 0.01907 0.04063 0.63162 0.0
O204 O 0.05152 0.02854 0.60044 0.0
O205 O 0.03306 0.02284 0.49848 0.0
O206 O 0.99208 0.05149 0.61421 0.0
O207 O 0.99263 0.03824 0.43609 0.0
C208 C 0.02808 0.99051 0.58066 0.0
C209 C 0.04608 0.96938 0.76798 0.0
C210 C 0.0429 0.93531 0.73903 0.0
C211 C 0.03462 0.95336 0.7525 0.0
C212 C 0.06292 0.93363 0.74007 0.0
C213 C 0.06603 0.96723 0.76916 0.0
C214 C 0.07434 0.94949 0.75481 0.0
C215 C 0.9849 0.0166 0.69913 0.0
C216 C 0.03726 0.9884 0.77954 0.0
C217 C 0.08788 0.06763 0.80083 0.0
C218 C 0.07225 0.07536 0.83823 0.0
C219 C 1.00718 0.05314 0.65367 0.0
C220 C 0.98967 0.07193 0.43594 0.0
C221 C 0.99708 0.08971 0.45765 0.0
C222 C 0.98643 0.10658 0.44914 0.0
C223 C 0.96789 0.10529 0.42026 0.0
C224 C 0.97113 0.07103 0.40708 0.0
C225 C 0.9603 0.08761 0.39991 0.0
C226 C 0.04962 0.02695 0.52942 0.0
C227 C 1.00136 0.0545 0.44354 0.0
H228 H 0.01925 0.95497 0.7507 0.0
H229 H 0.06982 0.91994 0.73178 0.0
H230 H 0.07529 0.97926 0.78068 0.0
H231 H 0.08971 0.94798 0.75596 0.0
H232 H 1.01124 0.09037 0.48105 0.0
H233 H 0.95938 0.11795 0.41133 0.0
H234 H 0.96497 0.05754 0.38993 0.0
H235 H 0.94607 0.08681 0.37737 0.0
Eu236 Eu 0.5201 0.03691 0.66926 0.0
C237 C 0.53441 0.96883 0.45066 0.0
C238 C 0.55676 0.9808 0.36224 0.0
C239 C 0.55574 0.94686 0.38706 0.0
C240 C 0.54212 0.98406 0.41366 0.0
C241 C 0.54087 0.95002 0.43663 0.0
C242 C 0.56369 0.96222 0.35003 0.0
C243 C 0.51658 0.93857 0.51787 0.0
N244 N 0.52011 0.97225 0.49845 0.0
C245 C 0.5107 0.95741 0.53014 0.0
C246 C 0.53191 0.93487 0.47166 0.0
Eu247 Eu 0.51082 1.00446 0.51787 0.0
N248 N 0.53528 1.00197 0.4273 0.0
C249 C 0.54208 0.01702 0.38823 0.0
C250 C 0.564 0.99629 0.32411 0.0
C251 C 0.55653 0.01443 0.33687 0.0
H252 H 0.49885 0.96015 0.56618 0.0
H253 H 0.56204 0.02654 0.30765 0.0
H254 H 0.57501 0.95954 0.31124 0.0
H255 H 0.50932 0.92693 0.54429 0.0
H256 H 0.53727 0.03136 0.3975 0.0
H257 H 0.4685 0.01775 0.88069 0.0
H258 H 0.57527 0.99438 0.28453 0.0
H259 H 0.53493 0.08142 0.63115 0.0
H260 H 0.49637 0.01288 0.80306 0.0
H261 H 0.5229 0.11454 0.64195 0.0
H262 H 0.56099 0.93255 0.37611 0.0
H263 H 0.45069 0.04819 0.87772 0.0
H264 H 0.44878 0.0819 0.83481 0.0
H265 H 0.53646 0.92025 0.46224 0.0
H266 H 0.4638 0.10848 0.77056 0.0
N267 N 0.49431 0.04005 0.75242 0.0
C268 C 0.48894 0.02627 0.80007 0.0
C269 C 0.46301 0.04616 0.84297 0.0
C270 C 0.46964 0.0609 0.79931 0.0
C271 C 0.47306 0.02899 0.84495 0.0
C272 C 0.48573 0.05749 0.75485 0.0
H273 H 0.49178 0.12091 0.70068 0.0
N274 N 0.51058 0.06922 0.68162 0.0
C275 C 0.5146 0.10285 0.66317 0.0
C276 C 0.49414 0.07253 0.71851 0.0
C277 C 0.52138 0.08411 0.65729 0.0
C278 C 0.49698 0.10637 0.69607 0.0
C279 C 0.48673 0.09121 0.72578 0.0
O280 O 0.53383 0.05289 0.7571 0.0
O281 O 0.5336 0.0198 0.58 0.0
O282 O 0.52485 0.98768 0.60887 0.0
O283 O 0.51799 1.00636 0.71074 0.0
O284 O 0.5439 0.04718 0.59583 0.0
O285 O 0.54488 0.02533 0.72573 0.0
O286 O 0.49193 0.98692 0.45077 0.0
O287 O 0.49733 0.02137 0.60823 0.0
O288 O 0.50855 0.0547 0.57633 0.0
O289 O 0.51235 0.03487 0.47517 0.0
O290 O 0.48776 0.99374 0.59417 0.0
O291 O 0.48883 0.01753 0.45082 0.0
C292 C 0.54617 0.03152 0.55917 0.0
C293 C 0.56752 0.04904 0.75583 0.0
C294 C 0.60204 0.044 0.74741 0.0
C295 C 0.5834 0.03673 0.75378 0.0
C296 C 0.60452 0.0639 0.7422 0.0
C297 C 0.57042 0.06884 0.75047 0.0
C298 C 0.5888 0.07615 0.7434 0.0
C299 C 0.52341 0.98999 0.68 0.0
C300 C 0.54807 0.04104 0.76174 0.0
C301 C 0.46988 0.09429 0.76536 0.0
C302 C 0.46132 0.07915 0.80193 0.0
C303 C 0.48534 1.00931 0.63073 0.0
C304 C 0.46043 0.99897 0.44788 0.0
C305 C 0.44904 0.0146 0.4701 0.0
C306 C 0.42923 0.01246 0.48097 0.0
C307 C 0.4212 0.99413 0.4718 0.0
C308 C 0.45195 0.98095 0.43909 0.0
C309 C 0.43252 0.97856 0.45169 0.0
C310 C 0.50882 0.05179 0.50543 0.0
C311 C 0.48108 1.00122 0.43357 0.0
H312 H 0.58116 0.02145 0.75677 0.0
H313 H 0.61862 0.07012 0.73905 0.0
H314 H 0.55851 0.07871 0.75158 0.0
H315 H 0.59091 0.09141 0.73961 0.0
H316 H 0.45559 0.02846 0.47783 0.0
H317 H 0.40602 0.9918 0.4772 0.0
H318 H 0.46035 0.96869 0.42211 0.0
H319 H 0.42609 0.96463 0.44421 0.0
Eu320 Eu 0.53817 0.51954 0.53838 0.0
C321 C 0.46089 0.50544 0.69481 0.0
C322 C 0.43645 0.52119 0.62448 0.0
C323 C 0.42845 0.49306 0.6937 0.0
C324 C 0.45563 0.51971 0.64722 0.0
C325 C 0.44722 0.49229 0.71991 0.0
C326 C 0.42307 0.5075 0.64622 0.0
C327 C 0.47099 0.47992 0.80156 0.0
N328 N 0.47904 0.50519 0.72041 0.0
C329 C 0.484 0.4933 0.77559 0.0
C330 C 0.45261 0.47919 0.77274 0.0
Eu331 Eu 0.50024 0.52786 0.67065 0.0
N332 N 0.46887 0.5328 0.62667 0.0
C333 C 0.46338 0.5486 0.58946 0.0
C334 C 0.43107 0.53681 0.58284 0.0
C335 C 0.44454 0.55075 0.56662 0.0
H336 H 0.49821 0.49371 0.79807 0.0
H337 H 0.44045 0.56329 0.5371 0.0
H338 H 0.40836 0.50831 0.62839 0.0
H339 H 0.47516 0.47016 0.84366 0.0
H340 H 0.4733 0.55969 0.57653 0.0
H341 H 0.59556 0.48184 0.67939 0.0
H342 H 0.41645 0.53857 0.56511 0.0
H343 H 0.54222 0.55497 0.41961 0.0
H344 H 0.56315 0.48683 0.63443 0.0
H345 H 0.56627 0.57825 0.37904 0.0
H346 H 0.41782 0.48294 0.71175 0.0
H347 H 0.62084 0.50536 0.65359 0.0
H348 H 0.63066 0.53565 0.59297 0.0
H349 H 0.44251 0.46886 0.79322 0.0
H350 H 0.62266 0.56205 0.51172 0.0
N351 N 0.56933 0.51339 0.58434 0.0
C352 C 0.5738 0.49733 0.62218 0.0
C353 C 0.6065 0.50773 0.63374 0.0
C354 C 0.60214 0.5237 0.59222 0.0
C355 C 0.5923 0.49439 0.64811 0.0
C356 C 0.58324 0.52603 0.56722 0.0
H357 H 0.59877 0.57789 0.43078 0.0
N358 N 0.5608 0.54188 0.4953 0.0
C359 C 0.56997 0.56787 0.41935 0.0
C360 C 0.57879 0.54082 0.52163 0.0
C361 C 0.55642 0.55463 0.44234 0.0
C362 C 0.58828 0.56765 0.44894 0.0
C363 C 0.59301 0.55378 0.49972 0.0
O364 O 0.54071 0.51508 0.42201 0.0
O365 O 0.50632 0.51927 0.55625 0.0
O366 O 0.50087 0.49604 0.64509 0.0
O367 O 0.53147 0.49186 0.59896 0.0
O368 O 0.51573 0.531 0.46103 0.0
O369 O 0.54472 0.49126 0.49404 0.0
O370 O 0.48562 0.53617 0.77034 0.0
O371 O 0.53175 0.52709 0.65313 0.0
O372 O 0.53712 0.5512 0.56828 0.0
O373 O 0.50523 0.55443 0.60111 0.0
O374 O 0.52235 0.51565 0.74852 0.0
O375 O 0.50636 0.55517 0.72411 0.0
C376 C 0.50077 0.52654 0.49748 0.0
C377 C 0.52809 0.48543 0.38391 0.0
C378 C 0.50761 0.45745 0.36734 0.0
C379 C 0.52066 0.46809 0.40923 0.0
C380 C 0.50165 0.46477 0.3004 0.0
C381 C 0.522 0.49231 0.31673 0.0
C382 C 0.50873 0.48211 0.27571 0.0
C383 C 0.51551 0.48502 0.62729 0.0
C384 C 0.54189 0.49659 0.42747 0.0
C385 C 0.61159 0.55211 0.52732 0.0
C386 C 0.61615 0.53707 0.57348 0.0
C387 C 0.53733 0.51952 0.71105 0.0
C388 C 0.50471 0.5542 0.85169 0.0
C389 C 0.51639 0.57014 0.86376 0.0
C390 C 0.52448 0.57366 0.93197 0.0
C391 C 0.52053 0.56112 0.98879 0.0
C392 C 0.50134 0.54149 0.90861 0.0
C393 C 0.50925 0.54498 0.97674 0.0
C394 C 0.52157 0.56176 0.57746 0.0
C395 C 0.49582 0.55145 0.78013 0.0
H396 H 0.52509 0.46282 0.46142 0.0
H397 H 0.49199 0.45683 0.2657 0.0
H398 H 0.52748 0.50562 0.29591 0.0
H399 H 0.50415 0.4875 0.22393 0.0
H400 H 0.51872 0.58016 0.82037 0.0
H401 H 0.5262 0.56376 0.04242 0.0
H402 H 0.49244 0.52899 0.90089 0.0
H403 H 0.50646 0.53527 0.02057 0.0
Eu404 Eu 0.02498 0.53856 0.56075 0.0
C405 C 0.03166 0.46166 0.71441 0.0
C406 C 0.01642 0.43853 0.63504 0.0
C407 C 0.0426 0.42867 0.71211 0.0
C408 C 0.01825 0.45742 0.66179 0.0
C409 C 0.04362 0.44721 0.74164 0.0
C410 C 0.02902 0.42434 0.65889 0.0
C411 C 0.05512 0.46988 0.83097 0.0
N412 N 0.03213 0.47963 0.74246 0.0
C413 C 0.04293 0.48368 0.80237 0.0
C414 C 0.05572 0.45164 0.79964 0.0
Eu415 Eu 1.01134 0.50239 0.69031 0.0
N416 N 1.00625 0.47145 0.63992 0.0
C417 C 0.99108 0.46714 0.59626 0.0
C418 C 1.00158 0.43434 0.58691 0.0
C419 C 0.98868 0.44864 0.56837 0.0
H420 H 0.0426 0.49784 0.82635 0.0
H421 H 0.97692 0.44547 0.53228 0.0
H422 H 0.02799 0.40983 0.63812 0.0
H423 H 0.06407 0.47333 0.87695 0.0
H424 H 0.98097 0.47796 0.581 0.0
H425 H 0.05554 0.59765 0.72226 0.0
H426 H 0.99967 0.42002 0.56521 0.0
H427 H 1.00074 0.54328 0.4051 0.0
H428 H 0.05369 0.56513 0.67466 0.0
H429 H 0.98093 0.56733 0.34391 0.0
H430 H 0.05183 0.41744 0.73171 0.0
H431 H 0.03242 0.62201 0.68282 0.0
H432 H 1.00557 0.63101 0.60095 0.0
H433 H 0.06511 0.44094 0.82206 0.0
H434 H 0.98499 0.62269 0.49783 0.0
N435 N 0.02889 0.56998 0.6103 0.0
C436 C 0.04326 0.57519 0.65656 0.0
C437 C 0.03142 0.60757 0.66151 0.0
C438 C 0.01775 0.60266 0.60958 0.0
C439 C 0.04451 0.59387 0.68379 0.0
C440 C 0.01704 0.5836 0.58357 0.0
H441 H 0.97618 0.5992 0.40018 0.0
N442 N 1.00664 0.56112 0.49632 0.0
C443 C 0.98759 0.57075 0.39522 0.0
C444 C 1.00547 0.57898 0.52523 0.0
C445 C 0.99885 0.55717 0.43001 0.0
C446 C 0.98487 0.58868 0.42734 0.0
C447 C 0.9943 0.59319 0.492 0.0
O448 O 0.04023 0.55353 0.47536 0.0
O449 O 0.02251 0.50706 0.5786 0.0
O450 O 0.04369 0.50202 0.67621 0.0
O451 O 0.04845 0.53359 0.64542 0.0
O452 O 0.01433 0.5167 0.47798 0.0
O453 O 0.0523 0.52788 0.51939 0.0
O454 O 1.00397 0.50086 0.8047 0.0
O455 O 1.01166 0.5342 0.66978 0.0
O456 O 0.99249 0.53612 0.55048 0.0
O457 O 0.98502 0.51005 0.62279 0.0
O458 O 0.02021 0.52547 0.77108 0.0
O459 O 0.98295 0.49323 0.72328 0.0
C460 C 0.01634 0.50167 0.51704 0.0
C461 C 0.05859 0.53378 0.39667 0.0
C462 C 0.08173 0.51795 0.31766 0.0
C463 C 0.0761 0.52444 0.38658 0.0
C464 C 0.06962 0.52107 0.25841 0.0
C465 C 0.04647 0.53646 0.33718 0.0
C466 C 0.05201 0.53011 0.2684 0.0
C467 C 0.05482 0.51723 0.67185 0.0
C468 C 0.05359 0.54072 0.46963 0.0
C469 C 0.99374 0.6117 0.52187 0.0
C470 C 1.00547 0.61643 0.58055 0.0
C471 C 0.01697 0.54016 0.73174 0.0
C472 C 0.97176 0.50665 0.83425 0.0
C473 C 0.95723 0.51727 0.80091 0.0
C474 C 0.94266 0.52587 0.84264 0.0
C475 C 0.94338 0.52417 0.91855 0.0
C476 C 0.97219 0.50535 0.90977 0.0
C477 C 0.95815 0.5142 0.95162 0.0
C478 C 0.98018 0.52347 0.57612 0.0
C479 C 0.98629 0.49624 0.79192 0.0
H480 H 0.08553 0.52258 0.43246 0.0
H481 H 0.07361 0.51623 0.20464 0.0
H482 H 0.03282 0.54353 0.34357 0.0
H483 H 0.04265 0.53223 0.22266 0.0
H484 H 0.95719 0.51864 0.74269 0.0
H485 H 0.93223 0.53003 0.95279 0.0
H486 H 0.9833 0.49727 0.93635 0.0
H487 H 0.95845 0.51296 0.0099 0.0
H488 H 0.2125 0.05076 0.18369 0.0
H489 H 0.18613 0.05016 0.27155 0.0
H490 H 0.15582 1.01017 0.13519 0.0
H491 H 0.1821 1.01027 0.04882 0.0
H492 H 0.13314 0.04042 0.17511 0.0
H493 H 0.17562 0.99623 0.29273 0.0
H494 H 0.20593 0.98626 0.34854 0.0
H495 H 0.2008 0.03135 0.50685 0.0
H496 H 0.17058 0.04176 0.45133 0.0
H497 H 0.05527 0.01282 0.39164 0.0
H498 H 0.08403 0.01408 0.31779 0.0
H499 H 0.11257 0.04623 0.48605 0.0
H500 H 0.08384 0.04445 0.56134 0.0
H501 H 0.13703 0.02249 0.43318 0.0
H502 H 0.09493 0.06668 0.32184 0.0
H503 H 0.06515 0.07835 0.26673 0.0
H504 H 0.07016 0.03618 0.09724 0.0
H505 H 0.09982 0.02405 0.15195 0.0
C506 C 0.20042 0.04152 0.1731 0.0
C507 C 0.19947 0.03077 0.10822 0.0
C508 C 0.18525 0.04127 0.22335 0.0
C509 C 0.16877 0.03024 0.21001 0.0
C510 C 0.16817 0.019 0.14668 0.0
C511 C 0.18329 0.01912 0.09702 0.0
C512 C 0.15176 0.03085 0.2597 0.0
C513 C 0.13398 0.03629 0.23137 0.0
C514 C 0.15281 0.02617 0.33394 0.0
C515 C 0.17095 0.01991 0.36736 0.0
C516 C 0.18104 1.00413 0.33904 0.0
C517 C 0.19819 0.99838 0.37071 0.0
C518 C 0.20532 1.00821 0.43107 0.0
C519 C 0.19528 0.02378 0.46001 0.0
C520 C 0.17814 0.0296 0.4285 0.0
C521 C 0.06759 0.02022 0.41316 0.0
C522 C 0.06711 0.02845 0.48299 0.0
C523 C 0.08413 0.02104 0.3704 0.0
C524 C 0.10063 0.03055 0.39516 0.0
C525 C 0.10019 0.03877 0.46507 0.0
C526 C 0.08368 0.03773 0.50831 0.0
C527 C 0.11823 0.03177 0.3483 0.0
C528 C 0.13614 0.02672 0.37707 0.0
C529 C 0.11737 0.03711 0.27451 0.0
C530 C 0.09952 0.04435 0.24141 0.0
C531 C 0.08961 0.0598 0.27312 0.0
C532 C 0.07275 0.06651 0.24192 0.0
C533 C 0.06575 0.05799 0.17863 0.0
C534 C 0.07559 0.04275 0.14633 0.0
C535 C 0.09244 0.03596 0.17739 0.0
H536 H 0.0527 0.06321 0.15452 0.0
H537 H 0.21859 1.00373 0.45552 0.0
H538 H 0.52154 0.17884 0.01164 0.0
H539 H 0.51646 0.1517 0.09022 0.0
H540 H 0.5005 0.18991 0.26473 0.0
H541 H 0.5066 0.21735 0.18703 0.0
H542 H 0.52347 0.16412 0.31524 0.0
H543 H 0.46733 0.16027 0.16918 0.0
H544 H 0.44852 0.15902 0.0566 0.0
H545 H 0.47729 0.10738 0.99194 0.0
H546 H 0.49646 0.10845 0.10373 0.0
H547 H 0.49498 0.08747 0.54093 0.0
H548 H 0.49364 0.11577 0.46505 0.0
H549 H 0.51422 0.0825 0.28341 0.0
H550 H 0.51561 0.05421 0.35895 0.0
H551 H 0.48676 0.10663 0.2411 0.0
H552 H 0.54414 0.11177 0.38307 0.0
H553 H 0.56239 0.11239 0.49703 0.0
H554 H 0.53063 0.16147 0.56978 0.0
H555 H 0.51197 0.16095 0.45664 0.0
C556 C 0.51696 0.18158 0.06674 0.0
C557 C 0.51464 0.20045 0.09275 0.0
C558 C 0.51381 0.16592 0.11163 0.0
C559 C 0.50786 0.16856 0.18369 0.0
C560 C 0.50505 0.18737 0.20945 0.0
C561 C 0.50834 0.2031 0.16457 0.0
C562 C 0.50549 0.15175 0.23262 0.0
C563 C 0.51512 0.15174 0.29938 0.0
C564 C 0.49497 0.13524 0.21194 0.0
C565 C 0.48345 0.13454 0.14464 0.0
C566 C 0.46975 0.14872 0.13073 0.0
C567 C 0.459 0.14803 0.06709 0.0
C568 C 0.46174 0.13315 0.01709 0.0
C569 C 0.4752 0.1189 0.03071 0.0
C570 C 0.48599 0.11954 0.09425 0.0
C571 C 0.49952 0.0862 0.48522 0.0
C572 C 0.5062 0.06862 0.45732 0.0
C573 C 0.4986 0.10242 0.44155 0.0
C574 C 0.50427 0.10149 0.36861 0.0
C575 C 0.50995 0.08373 0.33959 0.0
C576 C 0.51086 0.06751 0.38326 0.0
C577 C 0.50482 0.11904 0.32305 0.0
C578 C 0.49493 0.11914 0.257 0.0
C579 C 0.51506 0.13562 0.34433 0.0
C580 C 0.52655 0.13622 0.41166 0.0
C581 C 0.54099 0.12264 0.42352 0.0
C582 C 0.55141 0.12297 0.48794 0.0
C583 C 0.54766 0.13696 0.54061 0.0
C584 C 0.53351 0.15066 0.5289 0.0
C585 C 0.52301 0.15035 0.46463 0.0
H586 H 0.55572 0.13718 0.59051 0.0
H587 H 0.45341 0.13264 0.96785 0.0
H588 H 0.36841 0.48954 0.0382 0.0
H589 H 0.39397 0.4922 0.12684 0.0
H590 H 0.35941 0.53056 0.25583 0.0
H591 H 0.33381 0.52844 0.16522 0.0
H592 H 0.39389 0.54443 0.24742 0.0
H593 H 0.36978 0.48319 0.30742 0.0
H594 H 0.35914 0.45003 0.28676 0.0
H595 H 0.41495 0.43476 0.20916 0.0
H596 H 0.42586 0.46791 0.22828 0.0
H597 H 0.47112 0.50126 0.52308 0.0
H598 H 0.44043 0.49921 0.45969 0.0
H599 H 0.45857 0.54417 0.31763 0.0
H600 H 0.48781 0.54773 0.38665 0.0
H601 H 0.42916 0.48895 0.34432 0.0
H602 H 0.43 0.56253 0.22034 0.0
H603 H 0.43718 0.59633 0.24867 0.0
H604 H 0.42212 0.58752 0.47078 0.0
H605 H 0.41509 0.55355 0.44355 0.0
C606 C 0.36614 0.49857 0.0854 0.0
C607 C 0.34897 0.50893 0.09377 0.0
C608 C 0.3808 0.4999 0.13679 0.0
C609 C 0.37877 0.51146 0.19899 0.0
C610 C 0.36146 0.5215 0.20856 0.0
C611 C 0.34671 0.52017 0.15689 0.0
C612 C 0.39509 0.51378 0.25145 0.0
C613 C 0.40147 0.53225 0.26906 0.0
C614 C 0.40511 0.49804 0.28075 0.0
C615 C 0.39859 0.4781 0.26871 0.0
C616 C 0.37974 0.47281 0.28536 0.0
C617 C 0.37367 0.454 0.27401 0.0
C618 C 0.38634 0.44031 0.2465 0.0
C619 C 0.40513 0.44539 0.23038 0.0
C620 C 0.41128 0.46418 0.24151 0.0
C621 C 0.46808 0.51128 0.48048 0.0
C622 C 0.48154 0.52532 0.46257 0.0
C623 C 0.4506 0.5099 0.44295 0.0
C624 C 0.44638 0.52201 0.38435 0.0
C625 C 0.4604 0.5354 0.36476 0.0
C626 C 0.47748 0.53721 0.4038 0.0
C627 C 0.42815 0.51972 0.3408 0.0
C628 C 0.42147 0.5012 0.32399 0.0
C629 C 0.4176 0.53543 0.31322 0.0
C630 C 0.42246 0.55551 0.33046 0.0
C631 C 0.42839 0.56781 0.27533 0.0
C632 C 0.43246 0.58694 0.29115 0.0
C633 C 0.4303 0.594 0.36169 0.0
C634 C 0.42405 0.58194 0.41644 0.0
C635 C 0.42017 0.56272 0.401 0.0
H636 H 0.43335 0.60885 0.37382 0.0
H637 H 0.38162 0.42575 0.23782 0.0
H638 H 0.04455 0.33295 0.20072 0.0
H639 H 0.04407 0.36049 0.28464 0.0
H640 H 0.9984 0.38563 0.16193 0.0
H641 H 0.99905 0.35846 0.07817 0.0
H642 H 0.02338 0.41174 0.18528 0.0
H643 H 0.99371 0.36566 0.34041 0.0
H644 H 0.9913 0.33557 0.40765 0.0
H645 H 0.04175 0.35011 0.52776 0.0
H646 H 0.04462 0.38018 0.4605 0.0
H647 H 0.99348 0.48757 0.41155 0.0
H648 H 0.99559 0.45706 0.34622 0.0
H649 H 0.04433 0.44135 0.47459 0.0
H650 H 0.04213 0.47214 0.54069 0.0
H651 H 0.02066 0.41022 0.45305 0.0
H652 H 0.05106 0.45504 0.29945 0.0
H653 H 0.05484 0.48494 0.23265 0.0
H654 H 1.004 0.4727 0.1113 0.0
H655 H 0.99998 0.44254 0.17736 0.0
C656 C 0.03415 0.34417 0.1925 0.0
C657 C 0.02191 0.34338 0.132 0.0
C658 C 0.03388 0.36003 0.24069 0.0
C659 C 0.02119 0.37546 0.23039 0.0
C660 C 1.00851 0.37422 0.17151 0.0
C661 C 1.00886 0.35853 0.12339 0.0
C662 C 0.02159 0.39335 0.27755 0.0
C663 C 0.02249 0.41125 0.24378 0.0
C664 C 0.02119 0.39314 0.35447 0.0
C665 C 0.01951 0.37505 0.39475 0.0
C666 C 1.00439 0.36236 0.38068 0.0
C667 C 1.00292 0.34532 0.41889 0.0
C668 C 0.0164 0.3409 0.47175 0.0
C669 C 0.03134 0.35353 0.48667 0.0
C670 C 0.03289 0.37057 0.44854 0.0
C671 C 1.00458 0.47756 0.42637 0.0
C672 C 0.01735 0.48219 0.48256 0.0
C673 C 1.00584 0.46008 0.3886 0.0
C674 C 0.02022 0.4467 0.40448 0.0
C675 C 0.03304 0.45124 0.46097 0.0
C676 C 0.03174 0.46885 0.49908 0.0
C677 C 0.02194 0.42842 0.36034 0.0
C678 C 0.02152 0.41057 0.39454 0.0
C679 C 0.02286 0.42857 0.28371 0.0
C680 C 0.02513 0.44664 0.24378 0.0
C681 C 0.04062 0.45878 0.25885 0.0
C682 C 0.04281 0.47578 0.22105 0.0
C683 C 0.02959 0.48084 0.1681 0.0
C684 C 0.01421 0.4688 0.15246 0.0
C685 C 0.012 0.45171 0.18987 0.0
H686 H 0.03132 0.49405 0.13902 0.0
H687 H 0.01523 0.3277 0.5013 0.0
H688 H 0.8203 0.02183 0.04321 0.0
H689 H 0.84665 0.02223 0.95555 0.0
H690 H 0.88557 1.00362 0.1204 0.0
H691 H 0.85948 1.00212 0.20678 0.0
H692 H 0.89904 0.03583 0.03945 0.0
H693 H 0.87202 0.97267 0.99983 0.0
H694 H 0.84591 0.95038 0.96972 0.0
H695 H 0.83872 0.97719 0.76394 0.0
H696 H 0.86463 0.99982 0.79331 0.0
H697 H 0.98328 0.01381 0.84764 0.0
H698 H 0.95514 0.01258 0.92502 0.0
H699 H 0.91886 0.01413 0.73693 0.0
H700 H 0.94701 0.01394 0.65939 0.0
H701 H 0.90252 0.99268 0.82516 0.0
H702 H 0.92863 0.05483 0.85472 0.0
H703 H 0.95386 0.07863 0.87808 0.0
H704 H 0.9608 0.05755 0.09352 0.0
H705 H 0.93586 0.03336 0.07098 0.0
C706 C 0.83437 0.01754 0.06086 0.0
C707 C 0.83753 0.0122 0.13325 0.0
C708 C 0.84951 0.01792 0.01053 0.0
C709 C 0.86824 0.01313 0.03133 0.0
C710 C 0.87138 1.00765 0.103 0.0
C711 C 0.8563 1.00695 0.15274 0.0
C712 C 0.88466 0.01368 0.97916 0.0
C713 C 0.89987 0.0263 0.99288 0.0
C714 C 0.88558 1.00174 0.91687 0.0
C715 C 0.87011 0.98806 0.8991 0.0
C716 C 0.86476 0.97391 0.94843 0.0
C717 C 0.85002 0.9612 0.93145 0.0
C718 C 0.84062 0.9624 0.86505 0.0
C719 C 0.84599 0.97629 0.8154 0.0
C720 C 0.86071 0.98906 0.83217 0.0
C721 C 0.96936 0.01393 0.82242 0.0
C722 C 0.9676 0.01471 0.74661 0.0
C723 C 0.95314 0.01335 0.86709 0.0
C724 C 0.9346 0.01397 0.83764 0.0
C725 C 0.93284 0.01394 0.76185 0.0
C726 C 0.94907 0.01411 0.71714 0.0
C727 C 0.91718 0.01472 0.88564 0.0
C728 C 0.90174 1.00238 0.87126 0.0
C729 C 0.91582 0.0273 0.94637 0.0
C730 C 0.93047 0.04217 0.96094 0.0
C731 C 0.93559 0.05521 0.90699 0.0
C732 C 0.94985 0.06877 0.92005 0.0
C733 C 0.95895 0.06957 0.98719 0.0
C734 C 0.95375 0.05688 0.0415 0.0
C735 C 0.93954 0.04325 0.02863 0.0
H736 H 0.97002 0.08005 0.99716 0.0
H737 H 0.82921 0.95254 0.852 0.0
H738 H 0.51134 0.86251 0.16341 0.0
H739 H 0.51023 0.88713 0.07031 0.0
H740 H 0.55728 0.85999 0.95923 0.0
H741 H 0.55815 0.83501 0.05184 0.0
H742 H 0.56158 0.90108 0.98442 0.0
H743 H 0.5168 0.85615 0.88331 0.0
H744 H 0.4887 0.83501 0.88461 0.0
H745 H 0.45248 0.88298 0.93323 0.0
H746 H 0.48042 0.90438 0.93331 0.0
H747 H 0.53699 0.95441 0.64081 0.0
H748 H 0.54004 0.92613 0.71626 0.0
H749 H 0.52291 0.95922 0.90311 0.0
H750 H 0.51881 0.98738 0.82753 0.0
H751 H 0.50516 0.91336 0.82971 0.0
H752 H 0.56325 0.94051 0.01721 0.0
H753 H 0.59104 0.96216 0.01653 0.0
H754 H 0.60067 0.94916 0.79206 0.0
H755 H 0.57301 0.92735 0.79149 0.0
C756 C 0.52123 0.86162 0.11845 0.0
C757 C 0.53473 0.84675 0.1146 0.0
C758 C 0.52063 0.87573 0.06539 0.0
C759 C 0.53371 0.87549 0.00778 0.0
C760 C 0.54707 0.86051 0.00321 0.0
C761 C 0.54744 0.84615 0.05569 0.0
C762 C 0.5336 0.89117 0.95364 0.0
C763 C 0.5493 0.90362 0.95018 0.0
C764 C 0.51757 0.89467 0.90906 0.0
C765 C 0.50074 0.88184 0.90896 0.0
C766 C 0.50287 0.86217 0.89493 0.0
C767 C 0.48696 0.85014 0.89529 0.0
C768 C 0.46882 0.85764 0.90917 0.0
C769 C 0.46654 0.87719 0.92257 0.0
C770 C 0.48241 0.88928 0.92235 0.0
C771 C 0.53346 0.95567 0.69755 0.0
C772 C 0.52699 0.97316 0.72716 0.0
C773 C 0.53544 0.93948 0.74084 0.0
C774 C 0.53161 0.94053 0.81524 0.0
C775 C 0.52588 0.95807 0.84573 0.0
C776 C 0.52353 0.97419 0.80222 0.0
C777 C 0.53305 0.92321 0.86091 0.0
C778 C 0.5175 0.91063 0.8634 0.0
C779 C 0.5492 0.91958 0.90443 0.0
C780 C 0.56594 0.93249 0.90418 0.0
C781 C 0.57131 0.94227 0.96774 0.0
C782 C 0.58702 0.95458 0.96752 0.0
C783 C 0.59754 0.95711 0.90411 0.0
C784 C 0.5924 0.94729 0.84087 0.0
C785 C 0.57668 0.93501 0.84076 0.0
H786 H 0.6097 0.96663 0.90402 0.0
H787 H 0.45652 0.8483 0.90939 0.0
H788 H 0.70588 0.50744 0.01943 0.0
H789 H 0.67824 0.50535 0.93729 0.0
H790 H 0.65483 0.55653 0.03454 0.0
H791 H 0.6821 0.5586 0.11579 0.0
H792 H 0.62846 0.53045 0.03111 0.0
H793 H 0.67367 0.55468 0.86029 0.0
H794 H 0.70328 0.55497 0.7882 0.0
H795 H 0.68752 0.50179 0.68694 0.0
H796 H 0.65793 0.50103 0.75926 0.0
H797 H 0.56518 0.54688 0.6913 0.0
H798 H 0.59616 0.54952 0.7536 0.0
H799 H 0.58333 0.49869 0.87337 0.0
H800 H 0.55261 0.49598 0.81101 0.0
H801 H 0.62813 0.52493 0.76362 0.0
H802 H 0.59431 0.50211 0.02391 0.0
H803 H 0.56554 0.50704 0.09947 0.0
H804 H 0.56071 0.56449 0.02264 0.0
H805 H 0.58873 0.5595 0.94428 0.0
C806 C 0.695 0.51842 0.02221 0.0
C807 C 0.69618 0.53306 0.07501 0.0
C808 C 0.67914 0.51721 0.97524 0.0
C809 C 0.66418 0.5307 0.97965 0.0
C810 C 0.6659 0.54576 0.03016 0.0
C811 C 0.6816 0.54694 0.07679 0.0
C812 C 0.64615 0.52879 0.9358 0.0
C813 C 0.62858 0.52907 0.97261 0.0
C814 C 0.64589 0.52728 0.85913 0.0
C815 C 0.66371 0.52767 0.81596 0.0
C816 C 0.67661 0.54294 0.82324 0.0
C817 C 0.69337 0.54321 0.7822 0.0
C818 C 0.69731 0.52837 0.73322 0.0
C819 C 0.68447 0.51325 0.72504 0.0
C820 C 0.6677 0.51289 0.76603 0.0
C821 C 0.56914 0.53613 0.73015 0.0
C822 C 0.55663 0.52095 0.7449 0.0
C823 C 0.58683 0.53769 0.76605 0.0
C824 C 0.59221 0.52434 0.81867 0.0
C825 C 0.57959 0.50928 0.83362 0.0
C826 C 0.56202 0.50769 0.79765 0.0
C827 C 0.6107 0.52624 0.8594 0.0
C828 C 0.62822 0.52597 0.82212 0.0
C829 C 0.61108 0.528 0.93562 0.0
C830 C 0.59339 0.53038 0.97806 0.0
C831 C 0.58686 0.51566 0.02252 0.0
C832 C 0.57062 0.51843 0.06544 0.0
C833 C 0.56111 0.53599 0.06525 0.0
C834 C 0.56774 0.55075 0.02166 0.0
C835 C 0.58369 0.54791 0.97752 0.0
H836 H 0.54872 0.5382 0.09928 0.0
H837 H 0.71029 0.52861 0.70146 0.0
H838 H 0.03268 0.68272 0.16776 0.0
H839 H 0.03328 0.65595 0.08215 0.0
H840 H 0.99078 0.68378 0.95203 0.0
H841 H 0.98988 0.71067 0.0391 0.0
H842 H 0.98174 0.64688 0.96463 0.0
H843 H 0.03808 0.67941 0.89545 0.0
H844 H 0.06904 0.69562 0.91103 0.0
H845 H 0.09334 0.64431 0.9965 0.0
H846 H 0.06245 0.62785 0.98242 0.0
H847 H 0.99171 0.56977 0.7006 0.0
H848 H 0.98971 0.60134 0.76055 0.0
H849 H 0.0356 0.58543 0.90319 0.0
H850 H 0.03806 0.55455 0.84152 0.0
H851 H 0.04196 0.61944 0.86822 0.0
H852 H 0.98338 0.58818 0.94691 0.0
H853 H 0.952 0.57298 0.92864 0.0
H854 H 0.93179 0.62293 0.81991 0.0
H855 H 0.96315 0.63831 0.83675 0.0
C856 C 0.02351 0.68331 0.12072 0.0
C857 C 1.0112 0.69903 0.11093 0.0
C858 C 0.02396 0.66792 0.07119 0.0
C859 C 0.01217 0.66763 0.00957 0.0
C860 C 1.00007 0.68347 0.99876 0.0
C861 C 0.9997 0.69901 0.04836 0.0
C862 C 0.01218 0.65052 0.95858 0.0
C863 C 0.99492 0.64108 0.94276 0.0
C864 C 0.02927 0.6426 0.9297 0.0
C865 C 0.04788 0.65244 0.93843 0.0
C866 C 0.04998 0.67162 0.91812 0.0
C867 C 0.06753 0.68085 0.92659 0.0
C868 C 0.08314 0.67102 0.95489 0.0
C869 C 0.08124 0.65192 0.97465 0.0
C870 C 0.06371 0.64262 0.96637 0.0
C871 C 1.0015 0.57318 0.74413 0.0
C872 C 0.01542 0.55978 0.76478 0.0
C873 C 1.00017 0.59118 0.77946 0.0
C874 C 0.01244 0.59609 0.83753 0.0
C875 C 0.02603 0.58242 0.85853 0.0
C876 C 0.02741 0.56461 0.82319 0.0
C877 C 1.01159 0.61527 0.87666 0.0
C878 C 0.02875 0.62521 0.88997 0.0
C879 C 0.99439 0.62366 0.90287 0.0
C880 C 0.97564 0.61431 0.89249 0.0
C881 C 0.97228 0.59585 0.91866 0.0
C882 C 0.95448 0.58722 0.90858 0.0
C883 C 0.93991 0.59699 0.87303 0.0
C884 C 0.9431 0.61538 0.84736 0.0
C885 C 0.96087 0.62406 0.85716 0.0
H886 H 0.92609 0.59041 0.86555 0.0
H887 H 0.09671 0.67818 0.96137 0.0
H888 H 0.06425 0.21903 0.17635 0.0
H889 H 0.0611 0.20378 0.29359 0.0
H890 H 0.02699 0.25099 0.37122 0.0
H891 H 0.02914 0.26587 0.25376 0.0
H892 H 0.05832 0.20864 0.45736 0.0
H893 H 0.98703 0.23482 0.37916 0.0
H894 H 0.97014 0.2487 0.27481 0.0
H895 H 1.00142 0.21179 0.1301 0.0
H896 H 0.01844 0.19783 0.23346 0.0
H897 H 0.96886 0.13917 0.50181 0.0
H898 H 0.98249 0.17101 0.51266 0.0
H899 H 0.03694 0.14909 0.44074 0.0
H900 H 0.0237 0.11733 0.43119 0.0
H901 H 0.99272 0.18726 0.39604 0.0
H902 H 0.07323 0.177 0.47755 0.0
H903 H 0.0913 0.16058 0.57262 0.0
H904 H 0.04199 0.16156 0.71037 0.0
H905 H 0.02366 0.17824 0.61693 0.0
C906 C 0.0566 0.22648 0.21909 0.0
C907 C 0.04625 0.24323 0.20463 0.0
C908 C 0.05517 0.21794 0.28667 0.0
C909 C 0.04346 0.2261 0.34028 0.0
C910 C 0.03604 0.24447 0.33024 0.0
C911 C 0.03722 0.25291 0.26249 0.0
C912 C 0.03369 0.21312 0.39038 0.0
C913 C 0.04388 0.20405 0.44542 0.0
C914 C 0.01471 0.20753 0.37539 0.0
C915 C 1.00397 0.21538 0.31367 0.0
C916 C 0.99017 0.22965 0.325 0.0
C917 C 0.98065 0.23757 0.26605 0.0
C918 C 0.98474 0.23118 0.19578 0.0
C919 C 0.99828 0.21679 0.18437 0.0
C920 C 1.00786 0.20887 0.24306 0.0
C921 C 0.98388 0.14096 0.49029 0.0
C922 C 0.99513 0.12551 0.46574 0.0
C923 C 0.99169 0.1592 0.49722 0.0
C924 C 1.01079 0.16247 0.47828 0.0
C925 C 0.02232 0.14692 0.45784 0.0
C926 C 0.01461 0.12866 0.45182 0.0
C927 C 0.01743 0.18204 0.46265 0.0
C928 C 1.0067 0.19235 0.41248 0.0
C929 C 0.03586 0.18855 0.48253 0.0
C930 C 0.04703 0.17891 0.53989 0.0
C931 C 0.06626 0.17392 0.52838 0.0
C932 C 0.07655 0.16449 0.582 0.0
C933 C 0.06779 0.16 0.6475 0.0
C934 C 0.04874 0.16499 0.65964 0.0
C935 C 0.03839 0.17442 0.60628 0.0
H936 H 0.07577 0.15264 0.68877 0.0
H937 H 0.97741 0.23736 0.15019 0.0
H938 H 0.31669 0.08527 0.10924 0.0
H939 H 0.33664 0.09212 0.21451 0.0
H940 H 0.30663 0.04928 0.33531 0.0
H941 H 0.28658 0.04235 0.22985 0.0
H942 H 0.32542 0.07945 0.42521 0.0
H943 H 0.33712 0.03157 0.24439 0.0
H944 H 0.34098 0.01691 0.12349 0.0
H945 H 0.38561 0.05675 0.07505 0.0
H946 H 0.38149 0.0721 0.19484 0.0
H947 H 0.39474 0.01496 0.55431 0.0
H948 H 0.36968 0.03768 0.5293 0.0
H949 H 0.40947 0.07228 0.41106 0.0
H950 H 0.43437 0.04908 0.43119 0.0
H951 H 0.38574 0.05288 0.32566 0.0
H952 H 0.37736 0.09385 0.53327 0.0
H953 H 0.37331 0.10222 0.66215 0.0
H954 H 0.32301 0.06739 0.67203 0.0
H955 H 0.32667 0.05891 0.5429 0.0
C956 C 0.31378 0.07795 0.15932 0.0
C957 C 0.30048 0.06297 0.16121 0.0
C958 C 0.32507 0.08197 0.21956 0.0
C959 C 0.3233 0.07095 0.28204 0.0
C960 C 0.30816 0.05795 0.28756 0.0
C961 C 0.29678 0.05394 0.22715 0.0
C962 C 0.33998 0.06899 0.33011 0.0
C963 C 0.33871 0.07375 0.40391 0.0
C964 C 0.35719 0.0614 0.30211 0.0
C965 C 0.3587 0.05325 0.2279 0.0
C966 C 0.3474 0.03753 0.20724 0.0
C967 C 0.3497 0.02903 0.13906 0.0
C968 C 0.36346 0.03594 0.09151 0.0
C969 C 0.37482 0.05151 0.11168 0.0
C970 C 0.37246 0.06017 0.1796 0.0
C971 C 0.39847 0.0276 0.52466 0.0
C972 C 0.4165 0.02945 0.49155 0.0
C973 C 0.38405 0.04091 0.51177 0.0
C974 C 0.38755 0.05644 0.46658 0.0
C975 C 0.40641 0.06024 0.44546 0.0
C976 C 0.42073 0.04675 0.45698 0.0
C977 C 0.37169 0.06372 0.42161 0.0
C978 C 0.37289 0.05946 0.34746 0.0
C979 C 0.35439 0.07099 0.45046 0.0
C980 C 0.35233 0.07571 0.52843 0.0
C981 C 0.36551 0.08787 0.56302 0.0
C982 C 0.36322 0.0927 0.63607 0.0
C983 C 0.34792 0.08532 0.67532 0.0
C984 C 0.33484 0.07313 0.64153 0.0
C985 C 0.33695 0.06839 0.5683 0.0
H986 H 0.34616 0.08908 0.73188 0.0
H987 H 0.36547 0.02905 0.03945 0.0
H988 H 0.45971 0.31615 0.12504 0.0
H989 H 0.45746 0.33693 0.23152 0.0
H990 H 0.50482 0.30739 0.32822 0.0
H991 H 0.50778 0.28719 0.22078 0.0
H992 H 0.45888 0.3415 0.38643 0.0
H993 H 0.53872 0.33861 0.34281 0.0
H994 H 0.56216 0.32657 0.25327 0.0
H995 H 0.5225 0.33726 0.08147 0.0
H996 H 0.49897 0.34955 0.16997 0.0
H997 H 0.52867 0.43055 0.4391 0.0
H998 H 0.52116 0.39693 0.45263 0.0
H999 H 0.46604 0.40614 0.35518 0.0
H1000 H 0.47282 0.4401 0.3465 0.0
H1001 H 0.51824 0.37741 0.33447 0.0
H1002 H 0.43581 0.36792 0.38283 0.0
H1003 H 0.41087 0.38252 0.4594 0.0
H1004 H 0.45338 0.40175 0.61041 0.0
H1005 H 0.47852 0.38642 0.5367 0.0
C1006 C 0.4692 0.31362 0.17012 0.0
C1007 C 0.48439 0.30057 0.16331 0.0
C1008 C 0.4677 0.32533 0.23151 0.0
C1009 C 0.48133 0.32401 0.28672 0.0
C1010 C 0.4943 0.30872 0.28567 0.0
C1011 C 0.49599 0.29717 0.22389 0.0
C1012 C 0.48569 0.34141 0.32978 0.0
C1013 C 0.47188 0.3494 0.37614 0.0
C1014 C 0.50279 0.35151 0.31659 0.0
C1015 C 0.51709 0.34477 0.26295 0.0
C1016 C 0.53508 0.33845 0.28589 0.0
C1017 C 0.54835 0.33158 0.23536 0.0
C1018 C 0.54379 0.33108 0.16177 0.0
C1019 C 0.526 0.3376 0.13848 0.0
C1020 C 0.51271 0.34452 0.18876 0.0
C1021 C 0.51459 0.4257 0.42349 0.0
C1022 C 0.50154 0.43804 0.38983 0.0
C1023 C 0.51036 0.40636 0.43103 0.0
C1024 C 0.49314 0.39892 0.40427 0.0
C1025 C 0.47939 0.41149 0.37681 0.0
C1026 C 0.48346 0.43091 0.37047 0.0
C1027 C 0.49123 0.37809 0.39069 0.0
C1028 C 0.50553 0.36941 0.34852 0.0
C1029 C 0.47439 0.36775 0.40691 0.0
C1030 C 0.45915 0.37609 0.45373 0.0
C1031 C 0.43987 0.37497 0.43292 0.0
C1032 C 0.42566 0.38338 0.47592 0.0
C1033 C 0.43053 0.39305 0.53974 0.0
C1034 C 0.44961 0.39424 0.56096 0.0
C1035 C 0.46384 0.38562 0.51873 0.0
H1036 H 0.41953 0.39964 0.57274 0.0
H1037 H 0.55406 0.32569 0.12279 0.0
H1038 H 0.24411 0.45323 0.11463 0.0
H1039 H 0.21775 0.44689 0.19804 0.0
H1040 H 0.21852 0.50614 0.26605 0.0
H1041 H 0.2457 0.51182 0.18824 0.0
H1042 H 0.20155 0.48884 0.36225 0.0
H1043 H 0.19418 0.48538 0.08945 0.0
H1044 H 0.19898 0.46938 0.97122 0.0
H1045 H 0.1792 0.41651 0.05875 0.0
H1046 H 0.17403 0.43231 0.17738 0.0
H1047 H 0.10803 0.52407 0.21145 0.0
H1048 H 0.13991 0.51006 0.20054 0.0
H1049 H 0.12999 0.4768 0.39111 0.0
H1050 H 0.09773 0.4904 0.40174 0.0
H1051 H 0.15028 0.47048 0.19049 0.0
H1052 H 0.1812 0.48158 0.47941 0.0
H1053 H 0.17848 0.5026 0.58668 0.0
H1054 H 0.15124 0.54552 0.45895 0.0
H1055 H 0.15485 0.52529 0.35007 0.0
C1056 C 0.23944 0.46446 0.15141 0.0
C1057 C 0.24672 0.48303 0.14518 0.0
C1058 C 0.2241 0.46097 0.19791 0.0
C1059 C 0.21541 0.47626 0.23543 0.0
C1060 C 0.22468 0.49407 0.23715 0.0
C1061 C 0.24037 0.49736 0.19282 0.0
C1062 C 0.1952 0.47538 0.25987 0.0
C1063 C 0.19028 0.4844 0.32556 0.0
C1064 C 0.18038 0.46947 0.21242 0.0
C1065 C 0.18397 0.45993 0.14206 0.0
C1066 C 0.1909 0.47035 0.08331 0.0
C1067 C 0.19368 0.46133 0.01632 0.0
C1068 C 0.18954 0.44193 0.00749 0.0
C1069 C 0.18249 0.43152 0.06568 0.0
C1070 C 0.17959 0.4405 0.13274 0.0
C1071 C 0.1125 0.51357 0.25051 0.0
C1072 C 0.1005 0.50849 0.30797 0.0
C1073 C 0.13073 0.50567 0.24447 0.0
C1074 C 0.1373 0.49269 0.29608 0.0
C1075 C 0.12521 0.48713 0.35214 0.0
C1076 C 0.10689 0.49492 0.35798 0.0
C1077 C 0.1569 0.48511 0.29023 0.0
C1078 C 0.16147 0.47425 0.22866 0.0
C1079 C 0.17136 0.48972 0.34092 0.0
C1080 C 0.16781 0.50161 0.40669 0.0
C1081 C 0.17455 0.49547 0.47417 0.0
C1082 C 0.17308 0.50736 0.53515 0.0
C1083 C 0.16459 0.52534 0.52975 0.0
C1084 C 0.15769 0.53152 0.46317 0.0
C1085 C 0.15948 0.51984 0.40167 0.0
H1086 H 0.16333 0.53446 0.5772 0.0
H1087 H 0.19172 0.43499 0.95552 0.0
H1088 H 1.00916 0.78009 0.98967 0.0
H1089 H 1.01048 0.79627 0.87385 0.0
H1090 H 0.96966 0.83788 0.95168 0.0
H1091 H 0.96753 0.82122 0.06638 0.0
H1092 H 0.96883 0.83551 0.80541 0.0
H1093 H 0.01519 0.84375 0.9961 0.0
H1094 H 0.03884 0.83229 0.08427 0.0
H1095 H 0.07304 0.80919 0.91122 0.0
H1096 H 0.04935 0.82024 0.82206 0.0
H1097 H 1.00928 0.92717 0.80774 0.0
H1098 H 0.99327 0.8965 0.81287 0.0
H1099 H 0.0335 0.8728 0.65982 0.0
H1100 H 0.04916 0.90389 0.65105 0.0
H1101 H 0.03536 0.85963 0.80624 0.0
H1102 H 0.98629 0.85707 0.61441 0.0
H1103 H 0.95862 0.86713 0.5412 0.0
H1104 H 0.92882 0.88457 0.7337 0.0
H1105 H 0.95593 0.87389 0.80823 0.0
C1106 C 0.99973 0.7921 0.98094 0.0
C1107 C 0.9887 0.7998 0.03783 0.0
C1108 C 1.00055 0.80137 0.91469 0.0
C1109 C 0.99064 0.81858 0.90526 0.0
C1110 C 0.97759 0.82472 0.9582 0.0
C1111 C 0.97658 0.81534 0.02409 0.0
C1112 C 0.99697 0.8323 0.85018 0.0
C1113 C 0.98343 0.84065 0.8047 0.0
C1114 C 0.01602 0.839 0.84943 0.0
C1115 C 0.03041 0.83256 0.90259 0.0
C1116 C 0.0277 0.83611 0.97694 0.0
C1117 C 0.0411 0.82971 0.02706 0.0
C1118 C 0.05741 0.81998 0.00336 0.0
C1119 C 0.06037 0.81668 0.92947 0.0
C1120 C 0.04695 0.82299 0.87912 0.0
C1121 C 0.01427 0.91578 0.77241 0.0
C1122 C 0.03082 0.91796 0.73015 0.0
C1123 C 1.00497 0.8982 0.77516 0.0
C1124 C 0.01213 0.88241 0.73643 0.0
C1125 C 0.02765 0.88488 0.68956 0.0
C1126 C 0.03681 0.90257 0.68581 0.0
C1127 C 1.00715 0.86316 0.76189 0.0
C1128 C 0.02099 0.85388 0.80349 0.0
C1129 C 0.98826 0.8562 0.76117 0.0
C1130 C 0.97314 0.86486 0.71664 0.0
C1131 C 0.97392 0.86328 0.64096 0.0
C1132 C 0.95827 0.86886 0.59935 0.0
C1133 C 0.94201 0.87645 0.63277 0.0
C1134 C 0.94139 0.87861 0.70791 0.0
C1135 C 0.95682 0.87269 0.74987 0.0
H1136 H 0.92993 0.88075 0.60039 0.0
H1137 H 0.06779 0.81503 0.04223 0.0
H1138 H 0.75771 1.00082 0.0033 0.0
H1139 H 0.73929 1.0023 0.89213 0.0
H1140 H 0.70007 0.96048 0.97481 0.0
H1141 H 0.71908 0.95806 0.08464 0.0
H1142 H 0.69736 0.96262 0.8277 0.0
H1143 H 0.69512 1.00461 0.03505 0.0
H1144 H 0.70906 0.02593 0.12804 0.0
H1145 H 0.72845 0.06388 0.96286 0.0
H1146 H 0.71488 0.04257 0.86874 0.0
H1147 H 0.60651 1.01158 0.82787 0.0
H1148 H 0.63564 0.99332 0.84625 0.0
H1149 H 0.66551 0.02934 0.69682 0.0
H1150 H 0.63612 0.04714 0.67446 0.0
H1151 H 0.67593 0.02991 0.85521 0.0
H1152 H 0.6755 0.98407 0.64729 0.0
H1153 H 0.66232 0.95894 0.56705 0.0
H1154 H 0.64285 0.92788 0.75179 0.0
H1155 H 0.65656 0.95252 0.83306 0.0
C1156 C 0.74589 0.99101 0.99619 0.0
C1157 C 0.73931 0.97993 0.05396 0.0
C1158 C 0.73529 0.99197 0.93253 0.0
C1159 C 0.71788 0.98217 0.92696 0.0
C1160 C 0.71328 0.96846 0.97872 0.0
C1161 C 0.72407 0.96723 0.04184 0.0
C1162 C 0.70255 0.98971 0.88039 0.0
C1163 C 0.69278 0.97738 0.8331 0.0
C1164 C 0.69632 1.00888 0.88853 0.0
C1165 C 0.70423 0.0219 0.94487 0.0
C1166 C 0.70248 0.01744 0.01856 0.0
C1167 C 0.71031 0.02951 0.07145 0.0
C1168 C 0.71969 0.04621 0.05135 0.0
C1169 C 0.72121 0.05091 0.97831 0.0
C1170 C 0.71347 0.03884 0.92516 0.0
C1171 C 0.61899 0.01523 0.79648 0.0
C1172 C 0.61895 0.0311 0.75044 0.0
C1173 C 0.63566 1.00467 0.80694 0.0
C1174 C 0.65264 1.00992 0.77248 0.0
C1175 C 0.65246 0.02498 0.72332 0.0
C1176 C 0.63572 0.03537 0.71183 0.0
C1177 C 0.67093 1.00294 0.80136 0.0
C1178 C 0.681 0.01538 0.84728 0.0
C1179 C 0.67688 0.98376 0.79403 0.0
C1180 C 0.66694 0.97009 0.74592 0.0
C1181 C 0.66825 0.97195 0.67061 0.0
C1182 C 0.66089 0.95771 0.62505 0.0
C1183 C 0.65185 0.94178 0.65433 0.0
C1184 C 0.64998 0.94015 0.72922 0.0
C1185 C 0.65765 0.95418 0.77503 0.0
H1186 H 0.64619 0.93074 0.61896 0.0
H1187 H 0.72573 0.05555 0.09237 0.0
H1188 H 0.52008 0.735 0.04227 0.0
H1189 H 0.52842 0.70663 0.97131 0.0
H1190 H 0.58766 0.71422 0.02818 0.0
H1191 H 0.57914 0.74251 0.10065 0.0
H1192 H 0.55053 0.6899 0.87038 0.0
H1193 H 0.60301 0.67632 0.09611 0.0
H1194 H 0.61019 0.68578 0.22247 0.0
H1195 H 0.5506 0.69592 0.26165 0.0
H1196 H 0.54321 0.68692 0.13569 0.0
H1197 H 0.55268 0.58811 0.84608 0.0
H1198 H 0.56747 0.61975 0.85632 0.0
H1199 H 0.53636 0.63029 0.05446 0.0
H1200 H 0.52171 0.59886 0.04463 0.0
H1201 H 0.57067 0.64545 0.06302 0.0
H1202 H 0.51847 0.64352 0.88845 0.0
H1203 H 0.50354 0.63053 0.77758 0.0
H1204 H 0.55144 0.64921 0.65208 0.0
H1205 H 0.56681 0.66208 0.7627 0.0
C1206 C 0.53501 0.73126 0.03591 0.0
C1207 C 0.54899 0.74082 0.07659 0.0
C1208 C 0.5398 0.71498 0.9956 0.0
C1209 C 0.55861 0.70804 0.99592 0.0
C1210 C 0.57302 0.71921 0.02802 0.0
C1211 C 0.5682 0.73548 0.06871 0.0
C1212 C 0.56191 0.68758 0.97817 0.0
C1213 C 0.55548 0.68018 0.91159 0.0
C1214 C 0.56803 0.67481 0.0323 0.0
C1215 C 0.57263 0.68125 0.10661 0.0
C1216 C 0.59152 0.68078 0.13174 0.0
C1217 C 0.59561 0.68608 0.20324 0.0
C1218 C 0.58088 0.69161 0.25008 0.0
C1219 C 0.56204 0.69187 0.22542 0.0
C1220 C 0.5579 0.68677 0.15393 0.0
C1221 C 0.54925 0.59714 0.89229 0.0
C1222 C 0.53584 0.5912 0.94406 0.0
C1223 C 0.55773 0.61514 0.89812 0.0
C1224 C 0.55279 0.62747 0.9555 0.0
C1225 C 0.54042 0.62099 0.00974 0.0
C1226 C 0.53203 0.60301 0.00415 0.0
C1227 C 0.55866 0.64777 0.95649 0.0
C1228 C 0.56684 0.65513 0.01993 0.0
C1229 C 0.5534 0.66041 0.90064 0.0
C1230 C 0.54387 0.65353 0.83379 0.0
C1231 C 0.52582 0.64483 0.83721 0.0
C1232 C 0.51731 0.63747 0.77453 0.0
C1233 C 0.5266 0.63895 0.708 0.0
C1234 C 0.54432 0.64801 0.7038 0.0
C1235 C 0.55294 0.65533 0.76647 0.0
H1236 H 0.52006 0.63304 0.65983 0.0
H1237 H 0.58403 0.69559 0.30553 0.0
H1238 H 0.82079 0.56575 0.05405 0.0
H1239 H 0.83761 0.57116 0.94176 0.0
H1240 H 0.79831 0.53388 0.82879 0.0
H1241 H 0.78184 0.52772 0.94335 0.0
H1242 H 0.83111 0.52232 0.79977 0.0
H1243 H 0.80611 0.58231 0.76968 0.0
H1244 H 0.7929 0.61417 0.79771 0.0
H1245 H 0.84736 0.63246 0.87875 0.0
H1246 H 0.86086 0.60066 0.85253 0.0
H1247 H 0.92536 0.51685 0.71275 0.0
H1248 H 0.89505 0.52866 0.66761 0.0
H1249 H 0.89061 0.56634 0.85348 0.0
H1250 H 0.92176 0.55633 0.89354 0.0
H1251 H 0.86927 0.58037 0.75233 0.0
H1252 H 0.87378 0.50756 0.84359 0.0
H1253 H 0.88635 0.47572 0.80911 0.0
H1254 H 0.86842 0.48422 0.58977 0.0
H1255 H 0.85572 0.51606 0.62321 0.0
C1256 C 0.81551 0.55896 0.00508 0.0
C1257 C 0.80028 0.54599 0.00772 0.0
C1258 C 0.82493 0.56236 0.94021 0.0
C1259 C 0.81919 0.55311 0.87591 0.0
C1260 C 0.803 0.54126 0.8774 0.0
C1261 C 0.79357 0.53776 0.94283 0.0
C1262 C 0.83248 0.55298 0.81301 0.0
C1263 C 0.83898 0.53518 0.78723 0.0
C1264 C 0.84242 0.56968 0.79255 0.0
C1265 C 0.83455 0.58902 0.8085 0.0
C1266 C 0.81528 0.59309 0.79367 0.0
C1267 C 0.80773 0.61116 0.80931 0.0
C1268 C 0.8193 0.62534 0.83982 0.0
C1269 C 0.83844 0.62148 0.8548 0.0
C1270 C 0.84607 0.60343 0.83928 0.0
C1271 C 0.91844 0.52835 0.74205 0.0
C1272 C 0.92599 0.53531 0.80783 0.0
C1273 C 0.90079 0.53485 0.71681 0.0
C1274 C 0.88995 0.54777 0.75862 0.0
C1275 C 0.89842 0.55618 0.82006 0.0
C1276 C 0.91624 0.55014 0.84397 0.0
C1277 C 0.86888 0.54967 0.75019 0.0
C1278 C 0.86064 0.56777 0.76131 0.0
C1279 C 0.85699 0.53339 0.75504 0.0
C1280 C 0.86384 0.51404 0.73586 0.0
C1281 C 0.8724 0.50251 0.78824 0.0
C1282 C 0.87959 0.48453 0.76881 0.0
C1283 C 0.87817 0.47796 0.6973 0.0
C1284 C 0.86947 0.48931 0.64511 0.0
C1285 C 0.86224 0.50729 0.66429 0.0
H1286 H 0.88382 0.46407 0.68232 0.0
H1287 H 0.81342 0.63932 0.85195 0.0
H1288 H 0.99842 0.21692 0.99916 0.0
H1289 H 0.99491 0.18589 0.93733 0.0
H1290 H 0.0507 0.19249 0.84246 0.0
H1291 H 0.05437 0.22324 0.90642 0.0
H1292 H 0.99341 0.17131 0.80826 0.0
H1293 H 0.07313 0.14884 0.82239 0.0
H1294 H 0.10148 0.15519 0.89787 0.0
H1295 H 0.0654 0.17024 0.07758 0.0
H1296 H 0.03686 0.1637 0.00353 0.0
H1297 H 0.03922 0.07627 0.65057 0.0
H1298 H 0.04308 0.10812 0.70678 0.0
H1299 H 0.98801 0.10246 0.80861 0.0
H1300 H 0.98363 0.07151 0.74818 0.0
H1301 H 0.04504 0.12349 0.83657 0.0
H1302 H 0.9665 0.14724 0.83671 0.0
H1303 H 0.93627 0.13744 0.77959 0.0
H1304 H 0.96684 0.1159 0.59492 0.0
H1305 H 0.9972 0.1272 0.64756 0.0
C1306 C 1.00975 0.21194 0.9638 0.0
C1307 C 0.02655 0.2228 0.95697 0.0
C1308 C 1.00779 0.19407 0.92847 0.0
C1309 C 0.02265 0.18633 0.88566 0.0
C1310 C 0.03909 0.19767 0.87603 0.0
C1311 C 0.04108 0.21551 0.91173 0.0
C1312 C 0.02118 0.16627 0.85367 0.0
C1313 C 1.00469 0.16088 0.81503 0.0
C1314 C 0.03579 0.15232 0.86167 0.0
C1315 C 0.05286 0.15606 0.90695 0.0
C1316 C 0.07125 0.15348 0.878 0.0
C1317 C 0.08735 0.1571 0.92058 0.0
C1318 C 0.08524 0.1632 0.99238 0.0
C1319 C 0.06702 0.16559 0.02188 0.0
C1320 C 0.05088 0.16195 0.97959 0.0
C1321 C 0.02801 0.08183 0.68527 0.0
C1322 C 1.01116 0.07125 0.69516 0.0
C1323 C 0.0302 0.10011 0.71756 0.0
C1324 C 0.01565 0.10828 0.76101 0.0
C1325 C 0.99926 0.09712 0.77367 0.0
C1326 C 0.99681 0.07923 0.73951 0.0
C1327 C 0.0173 0.12854 0.79087 0.0
C1328 C 0.03383 0.13398 0.82917 0.0
C1329 C 1.00247 0.14238 0.7841 0.0
C1330 C 0.98422 0.13784 0.74678 0.0
C1331 C 0.96678 0.1409 0.78299 0.0
C1332 C 0.9496 0.1352 0.75111 0.0
C1333 C 0.94965 0.12622 0.6833 0.0
C1334 C 0.96684 0.12324 0.64667 0.0
C1335 C 0.98403 0.12949 0.67717 0.0
H1336 H 0.93637 0.12147 0.65929 0.0
H1337 H 0.09773 0.16601 0.02521 0.0
H1338 H 0.32663 1.0096 0.98842 0.0
H1339 H 0.3566 1.00461 0.92258 0.0
H1340 H 0.34355 0.05256 0.78711 0.0
H1341 H 0.31353 0.05763 0.85395 0.0
H1342 H 0.3678 0.99662 0.79159 0.0
H1343 H 0.38962 0.07604 0.74542 0.0
H1344 H 0.38317 0.10808 0.79671 0.0
H1345 H 0.36574 0.08312 0.99698 0.0
H1346 H 0.37265 0.05104 0.94742 0.0
H1347 H 0.46707 0.98711 0.72739 0.0
H1348 H 0.43578 0.99209 0.7828 0.0
H1349 H 0.42912 0.04418 0.66261 0.0
H1350 H 0.46151 0.04019 0.61404 0.0
H1351 H 0.41366 0.05026 0.77961 0.0
H1352 H 0.39233 0.97183 0.83217 0.0
H1353 H 0.3996 0.93924 0.78865 0.0
H1354 H 0.41732 0.96127 0.58391 0.0
H1355 H 0.41012 0.99398 0.62605 0.0
C1356 C 0.32988 0.01869 0.94308 0.0
C1357 C 0.31751 0.03374 0.92541 0.0
C1358 C 0.34712 0.01593 0.90559 0.0
C1359 C 0.35268 0.02835 0.85012 0.0
C1360 C 0.33987 0.0429 0.83016 0.0
C1361 C 0.32254 0.04564 0.8677 0.0
C1362 C 0.37216 0.02636 0.816 0.0
C1363 C 0.37786 1.00835 0.78929 0.0
C1364 C 0.38535 0.04172 0.81155 0.0
C1365 C 0.38115 0.06102 0.84203 0.0
C1366 C 0.38438 0.07737 0.80038 0.0
C1367 C 0.38074 0.09557 0.82921 0.0
C1368 C 0.3739 0.09763 0.89983 0.0
C1369 C 0.3709 0.08151 0.94205 0.0
C1370 C 0.37468 0.06332 0.91359 0.0
C1371 C 0.45898 0.99977 0.71375 0.0
C1372 C 0.46684 0.01339 0.66725 0.0
C1373 C 0.44087 1.00248 0.74453 0.0
C1374 C 0.42941 0.01818 0.72539 0.0
C1375 C 0.43739 0.03187 0.6787 0.0
C1376 C 0.45595 0.02961 0.6507 0.0
C1377 C 0.40935 0.02049 0.75434 0.0
C1378 C 0.40354 0.03856 0.78049 0.0
C1379 C 0.3961 1.00513 0.75877 0.0
C1380 C 0.40056 0.98547 0.73219 0.0
C1381 C 0.39764 0.96975 0.7776 0.0
C1382 C 0.40181 0.95123 0.75327 0.0
C1383 C 0.40889 0.94819 0.68347 0.0
C1384 C 0.41179 0.96366 0.63786 0.0
C1385 C 0.4076 0.98221 0.66188 0.0
H1386 H 0.41216 0.93385 0.66476 0.0
H1387 H 0.37102 0.11173 0.92198 0.0
H1388 H 0.47211 0.32546 0.91556 0.0
H1389 H 0.47595 0.35415 0.84316 0.0
H1390 H 0.53624 0.3428 0.82402 0.0
H1391 H 0.53241 0.31398 0.89747 0.0
H1392 H 0.52996 0.37953 0.86491 0.0
H1393 H 0.50749 0.34065 0.66434 0.0
H1394 H 0.48622 0.31788 0.60105 0.0
H1395 H 0.43804 0.35394 0.64795 0.0
H1396 H 0.45905 0.37683 0.71186 0.0
H1397 H 0.54463 0.45855 0.63432 0.0
H1398 H 0.54287 0.42568 0.67686 0.0
H1399 H 0.48198 0.43133 0.70324 0.0
H1400 H 0.48358 0.464 0.65878 0.0
H1401 H 0.49024 0.39656 0.65342 0.0
H1402 H 0.51298 0.43635 0.84697 0.0
H1403 H 0.53439 0.4602 0.90295 0.0
H1404 H 0.58214 0.42253 0.87104 0.0
H1405 H 0.56105 0.39857 0.81358 0.0
C1406 C 0.48613 0.32883 0.89462 0.0
C1407 C 0.50193 0.31731 0.91198 0.0
C1408 C 0.48832 0.34527 0.85291 0.0
C1409 C 0.50639 0.35074 0.82731 0.0
C1410 C 0.52213 0.33894 0.84275 0.0
C1411 C 0.51991 0.32234 0.88415 0.0
C1412 C 0.50884 0.36939 0.78912 0.0
C1413 C 0.52157 0.38305 0.81765 0.0
C1414 C 0.49756 0.37441 0.72871 0.0
C1415 C 0.4848 0.36041 0.69273 0.0
C1416 C 0.49233 0.34363 0.6615 0.0
C1417 C 0.48034 0.33073 0.62542 0.0
C1418 C 0.46079 0.33446 0.62045 0.0
C1419 C 0.45318 0.35105 0.65186 0.0
C1420 C 0.46513 0.36401 0.68784 0.0
C1421 C 0.53083 0.45282 0.64862 0.0
C1422 C 0.51433 0.46427 0.64509 0.0
C1423 C 0.52985 0.43396 0.67335 0.0
C1424 C 0.51235 0.42604 0.69532 0.0
C1425 C 0.49571 0.43706 0.68769 0.0
C1426 C 0.49668 0.45589 0.66284 0.0
C1427 C 0.51144 0.40662 0.72868 0.0
C1428 C 0.49887 0.3929 0.69983 0.0
C1429 C 0.52285 0.4016 0.78893 0.0
C1430 C 0.53547 0.41574 0.82531 0.0
C1431 C 0.52806 0.43319 0.85155 0.0
C1432 C 0.54014 0.44673 0.88352 0.0
C1433 C 0.55962 0.44291 0.89037 0.0
C1434 C 0.56705 0.42548 0.86557 0.0
C1435 C 0.55504 0.41191 0.8333 0.0
H1436 H 0.56896 0.45343 0.91502 0.0
H1437 H 0.45154 0.3245 0.59228 0.0
H1438 H 0.22892 0.53574 0.92529 0.0
H1439 H 0.19741 0.53959 0.86914 0.0
H1440 H 0.19571 0.47906 0.82298 0.0
H1441 H 0.22743 0.47553 0.87572 0.0
H1442 H 0.17735 0.49351 0.72472 0.0
H1443 H 0.17241 0.50246 0.97951 0.0
H1444 H 0.17862 0.51618 0.10092 0.0
H1445 H 0.16083 0.57137 0.02814 0.0
H1446 H 0.15449 0.55801 0.9064 0.0
H1447 H 0.07569 0.48513 0.70523 0.0
H1448 H 0.10836 0.48325 0.7512 0.0
H1449 H 0.11302 0.54454 0.74271 0.0
H1450 H 0.08017 0.54656 0.69919 0.0
H1451 H 0.12948 0.53008 0.86751 0.0
H1452 H 0.12871 0.51398 0.61231 0.0
H1453 H 0.11824 0.49444 0.50892 0.0
H1454 H 0.14492 0.44503 0.60004 0.0
H1455 H 0.15497 0.46419 0.70593 0.0
C1456 C 0.22214 0.52345 0.90023 0.0
C1457 C 0.23085 0.50538 0.90387 0.0
C1458 C 0.20385 0.52553 0.86957 0.0
C1459 C 0.19359 0.50952 0.84344 0.0
C1460 C 0.20299 0.49173 0.84256 0.0
C1461 C 0.2213 0.48971 0.87231 0.0
C1462 C 0.17295 0.51097 0.82008 0.0
C1463 C 0.16694 0.5014 0.75662 0.0
C1464 C 0.15897 0.5211 0.8611 0.0
C1465 C 0.16322 0.52929 0.93363 0.0
C1466 C 0.17 0.51756 0.98925 0.0
C1467 C 0.17349 0.52524 0.05812 0.0
C1468 C 0.17023 0.54463 0.07203 0.0
C1469 C 0.1634 0.55636 0.0172 0.0
C1470 C 0.15981 0.54874 0.94832 0.0
C1471 C 0.08349 0.49827 0.71426 0.0
C1472 C 0.07499 0.51603 0.69894 0.0
C1473 C 0.10232 0.49716 0.74018 0.0
C1474 C 0.11339 0.51375 0.75026 0.0
C1475 C 0.10489 0.5315 0.73577 0.0
C1476 C 0.08603 0.53262 0.7102 0.0
C1477 C 0.13403 0.51265 0.77256 0.0
C1478 C 0.13999 0.5223 0.83568 0.0
C1479 C 0.14775 0.50182 0.73308 0.0
C1480 C 0.14241 0.49052 0.66771 0.0
C1481 C 0.13218 0.49891 0.61089 0.0
C1482 C 0.12632 0.48787 0.55165 0.0
C1483 C 0.13085 0.46845 0.54784 0.0
C1484 C 0.14138 0.46007 0.60311 0.0
C1485 C 0.14714 0.47102 0.66286 0.0
H1486 H 0.12618 0.45985 0.50221 0.0
H1487 H 0.17293 0.55054 0.12539 0.0
H1488 H 0.97347 0.82922 0.27421 0.0
H1489 H 0.97724 0.85973 0.33788 0.0
H1490 H 0.03589 0.84569 0.38372 0.0
H1491 H 0.03217 0.81512 0.31784 0.0
H1492 H 0.98433 0.87381 0.46242 0.0
H1493 H 0.06349 0.88572 0.38314 0.0
H1494 H 0.08578 0.87617 0.28571 0.0
H1495 H 0.0387 0.86772 0.14037 0.0
H1496 H 0.01618 0.87744 0.23659 0.0
H1497 H 0.05339 0.96267 0.54243 0.0
H1498 H 0.04741 0.93051 0.49703 0.0
H1499 H 0.98696 0.9428 0.49343 0.0
H1500 H 0.99295 0.97323 0.55418 0.0
H1501 H 0.03808 0.91512 0.38952 0.0
H1502 H 0.96021 0.90655 0.44764 0.0
H1503 H 0.93537 0.91951 0.52936 0.0
H1504 H 0.9762 0.92348 0.70173 0.0
H1505 H 1.00131 0.91084 0.62011 0.0
C1506 C 0.98711 0.83242 0.29913 0.0
C1507 C 1.0025 0.81955 0.2908 0.0
C1508 C 0.98927 0.85001 0.33566 0.0
C1509 C 1.00697 0.85553 0.36502 0.0
C1510 C 0.02213 0.84219 0.36058 0.0
C1511 C 0.01994 0.82448 0.32377 0.0
C1512 C 1.00956 0.87547 0.39678 0.0
C1513 C 0.99616 0.88278 0.44676 0.0
C1514 C 0.0247 0.88766 0.37586 0.0
C1515 C 0.03816 0.88208 0.31737 0.0
C1516 C 0.05792 0.88188 0.33033 0.0
C1517 C 0.07058 0.87642 0.27532 0.0
C1518 C 0.06365 0.87125 0.207 0.0
C1519 C 0.04405 0.87163 0.1934 0.0
C1520 C 0.03133 0.8771 0.24817 0.0
C1521 C 0.03874 0.95835 0.53323 0.0
C1522 C 0.02368 0.97106 0.54926 0.0
C1523 C 0.03527 0.93981 0.50621 0.0
C1524 C 0.01659 0.93334 0.49134 0.0
C1525 C 1.00153 0.94629 0.50684 0.0
C1526 C 1.00497 0.96434 0.53903 0.0
C1527 C 0.0134 0.91335 0.45918 0.0
C1528 C 0.02655 0.90606 0.40768 0.0
C1529 C 0.99776 0.90133 0.47767 0.0
C1530 C 0.9826 0.90765 0.52832 0.0
C1531 C 0.96383 0.91002 0.5032 0.0
C1532 C 0.94975 0.91749 0.54916 0.0
C1533 C 0.95423 0.92235 0.62067 0.0
C1534 C 0.97277 0.91968 0.6464 0.0
C1535 C 0.98691 0.91236 0.60042 0.0
H1536 H 0.94331 0.9281 0.65623 0.0
H1537 H 0.07347 0.867 0.16454 0.0
H1538 H 0.7083 0.97057 0.29094 0.0
H1539 H 0.6773 0.97553 0.3486 0.0
H1540 H 0.68954 0.03564 0.37192 0.0
H1541 H 0.72052 0.03071 0.31177 0.0
H1542 H 0.66202 0.9865 0.46791 0.0
H1543 H 0.65036 0.06184 0.34719 0.0
H1544 H 0.6603 0.08002 0.23996 0.0
H1545 H 0.66896 0.02765 0.12114 0.0
H1546 H 0.65911 1.00921 0.2275 0.0
H1547 H 0.57364 0.05625 0.51617 0.0
H1548 H 0.60565 0.04923 0.47155 0.0
H1549 H 0.59263 0.98896 0.47432 0.0
H1550 H 0.56226 0.99605 0.53311 0.0
H1551 H 0.62071 0.03653 0.36284 0.0
H1552 H 0.62797 0.96197 0.45334 0.0
H1553 H 0.61237 0.94025 0.53922 0.0
H1554 H 0.60867 0.98564 0.69657 0.0
H1555 H 0.62399 1.00774 0.61078 0.0
C1556 C 0.70455 0.98483 0.30952 0.0
C1557 C 0.71694 1.00026 0.29638 0.0
C1558 C 0.68674 0.98765 0.34268 0.0
C1559 C 0.68067 1.00603 0.3637 0.0
C1560 C 0.69357 0.02133 0.35502 0.0
C1561 C 0.71146 0.0185 0.32152 0.0
C1562 C 0.66054 1.00919 0.39032 0.0
C1563 C 0.65306 0.99753 0.445 0.0
C1564 C 0.64838 0.02314 0.35981 0.0
C1565 C 0.65421 0.03417 0.29555 0.0
C1566 C 0.65439 0.05423 0.29814 0.0
C1567 C 0.66005 0.06457 0.23756 0.0
C1568 C 0.6654 0.05499 0.17393 0.0
C1569 C 0.665 0.03506 0.17061 0.0
C1570 C 0.65941 0.02466 0.23106 0.0
C1571 C 0.57777 0.04146 0.50836 0.0
C1572 C 0.56506 0.0267 0.52614 0.0
C1573 C 0.59615 0.03741 0.48207 0.0
C1574 C 0.60229 0.01845 0.4705 0.0
C1575 C 0.58919 1.00372 0.4859 0.0
C1576 C 0.5713 1.00777 0.51699 0.0
C1577 C 0.62233 0.0145 0.44312 0.0
C1578 C 0.62978 0.02586 0.38738 0.0
C1579 C 0.63425 0.99988 0.47117 0.0
C1580 C 0.62725 0.98642 0.52619 0.0
C1581 C 0.62411 0.96722 0.50672 0.0
C1582 C 0.6151 0.95493 0.55493 0.0
C1583 C 0.60954 0.9616 0.62328 0.0
C1584 C 0.6131 0.98053 0.64377 0.0
C1585 C 0.62192 0.99295 0.59543 0.0
H1586 H 0.6025 0.95207 0.66032 0.0
H1587 H 0.66978 0.06301 0.12711 0.0
H1588 H 0.50011 0.72892 0.30264 0.0
H1589 H 0.49755 0.69947 0.37293 0.0
H1590 H 0.55687 0.70422 0.43147 0.0
H1591 H 0.5593 0.73385 0.36246 0.0
H1592 H 0.5455 0.66936 0.3539 0.0
H1593 H 0.52759 0.70723 0.56191 0.0
H1594 H 0.50845 0.73111 0.62909 0.0
H1595 H 0.4578 0.69806 0.5909 0.0
H1596 H 0.4766 0.6741 0.52258 0.0
H1597 H 0.5532 0.58422 0.55665 0.0
H1598 H 0.5545 0.61717 0.51476 0.0
H1599 H 0.49302 0.61931 0.51038 0.0
H1600 H 0.49166 0.58637 0.55193 0.0
H1601 H 0.50528 0.6515 0.5629 0.0
H1602 H 0.51977 0.61538 0.35294 0.0
H1603 H 0.53514 0.59299 0.26699 0.0
H1604 H 0.58834 0.62268 0.29212 0.0
H1605 H 0.57333 0.64517 0.37876 0.0
C1606 C 0.5123 0.72418 0.3336 0.0
C1607 C 0.52976 0.73395 0.32872 0.0
C1608 C 0.5109 0.70724 0.37319 0.0
C1609 C 0.52702 0.69957 0.40753 0.0
C1610 C 0.5442 0.7099 0.40598 0.0
C1611 C 0.54553 0.72696 0.36725 0.0
C1612 C 0.52657 0.67978 0.43691 0.0
C1613 C 0.53708 0.66551 0.40074 0.0
C1614 C 0.51483 0.67456 0.49566 0.0
C1615 C 0.50348 0.68898 0.53645 0.0
C1616 C 0.51234 0.70515 0.56718 0.0
C1617 C 0.50156 0.71868 0.60564 0.0
C1618 C 0.48191 0.71613 0.61408 0.0
C1619 C 0.47302 0.70003 0.58423 0.0
C1620 C 0.48373 0.68646 0.5457 0.0
C1621 C 0.53993 0.5916 0.5462 0.0
C1622 C 0.52231 0.58236 0.55667 0.0
C1623 C 0.54069 0.61053 0.52208 0.0
C1624 C 0.52386 0.6208 0.50783 0.0
C1625 C 0.50625 0.6118 0.52044 0.0
C1626 C 0.50549 0.59286 0.54445 0.0
C1627 C 0.52464 0.64094 0.48091 0.0
C1628 C 0.51404 0.65529 0.51694 0.0
C1629 C 0.53599 0.64619 0.42075 0.0
C1630 C 0.54547 0.6318 0.37323 0.0
C1631 C 0.53482 0.61695 0.34112 0.0
C1632 C 0.54343 0.60434 0.29178 0.0
C1633 C 0.56269 0.60645 0.27393 0.0
C1634 C 0.57342 0.62108 0.3059 0.0
C1635 C 0.56487 0.63376 0.35515 0.0
H1636 H 0.56931 0.5967 0.23558 0.0
H1637 H 0.47359 0.72662 0.6439 0.0
H1638 H 0.83016 0.50532 0.19358 0.0
H1639 H 0.8576 0.50336 0.2747 0.0
H1640 H 0.8311 0.54423 0.41937 0.0
H1641 H 0.80346 0.54621 0.33755 0.0
H1642 H 0.86698 0.55428 0.39808 0.0
H1643 H 0.83755 0.49788 0.47287 0.0
H1644 H 0.8211 0.46684 0.46431 0.0
H1645 H 0.86978 0.4423 0.35663 0.0
H1646 H 0.88644 0.47329 0.36367 0.0
H1647 H 0.94921 0.50252 0.62323 0.0
H1648 H 0.91626 0.50336 0.57961 0.0
H1649 H 0.93257 0.54418 0.41819 0.0
H1650 H 0.96474 0.54454 0.46565 0.0
H1651 H 0.8981 0.49396 0.47205 0.0
H1652 H 0.89863 0.57116 0.35741 0.0
H1653 H 0.91313 0.60236 0.38728 0.0
H1654 H 0.91773 0.58635 0.61 0.0
H1655 H 0.90309 0.55518 0.58148 0.0
C1656 C 0.82996 0.51359 0.24349 0.0
C1657 C 0.81449 0.52583 0.25913 0.0
C1658 C 0.84572 0.51245 0.2901 0.0
C1659 C 0.84661 0.5236 0.35383 0.0
C1660 C 0.83089 0.53545 0.37077 0.0
C1661 C 0.81496 0.53643 0.32431 0.0
C1662 C 0.86446 0.52366 0.3994 0.0
C1663 C 0.87372 0.54107 0.41443 0.0
C1664 C 0.87315 0.50659 0.42364 0.0
C1665 C 0.86316 0.48797 0.41811 0.0
C1666 C 0.84467 0.48592 0.44663 0.0
C1667 C 0.83533 0.46832 0.44226 0.0
C1668 C 0.84437 0.45262 0.40976 0.0
C1669 C 0.86279 0.45449 0.3817 0.0
C1670 C 0.8722 0.47206 0.38595 0.0
C1671 C 0.94573 0.51199 0.57933 0.0
C1672 C 0.95989 0.52378 0.54912 0.0
C1673 C 0.92677 0.51234 0.55379 0.0
C1674 C 0.92141 0.52423 0.49627 0.0
C1675 C 0.93575 0.53545 0.46452 0.0
C1676 C 0.95448 0.53548 0.49134 0.0
C1677 C 0.90116 0.52455 0.46781 0.0
C1678 C 0.8914 0.50722 0.45615 0.0
C1679 C 0.89165 0.54178 0.44932 0.0
C1680 C 0.89987 0.56077 0.46722 0.0
C1681 C 0.9026 0.57436 0.41284 0.0
C1682 C 0.91089 0.59202 0.42948 0.0
C1683 C 0.9164 0.59632 0.50044 0.0
C1684 C 0.91352 0.583 0.55501 0.0
C1685 C 0.90524 0.56532 0.53863 0.0
H1686 H 0.92287 0.60998 0.51316 0.0
H1687 H 0.83712 0.439 0.40647 0.0
loop_
_geom_bond_atom_site_label_1
_geom_bond_atom_site_label_2
_geom_bond_distance
_geom_bond_site_symmetry_2
_ccdc_geom_bond_type
H0 C1 0.949 . S
C1 H0 0.949 . S
C1 C2 1.395 . S
C1 C3 1.391 . S
C2 C1 1.395 . S
C2 C5 1.390 . S
C3 C1 1.391 . S
C3 C7 1.387 . S
C3 C8 1.491 . S
H4 C5 0.950 . S
C5 C2 1.390 . S
C5 H4 0.950 . S
C5 C6 1.378 . S
C6 C5 1.378 . S
C6 C7 1.409 . S
C7 C3 1.387 . S
C7 C6 1.409 . S
C7 H9 0.951 . S
C8 C3 1.491 . S
C8 C10 1.382 . S
C8 C12 1.404 . S
H9 C7 0.951 . S
C10 C8 1.382 . S
C10 C11 1.390 . S
C10 H15 0.949 . S
C11 C10 1.390 . S
C11 C16 1.399 . S
C12 C8 1.404 . S
C12 H13 0.950 . S
C12 C14 1.375 . S
H13 C12 0.950 . S
C14 C12 1.375 . S
C14 C16 1.382 . S
C14 H18 0.950 . S
H15 C10 0.949 . S
C16 C11 1.399 . S
C16 C14 1.382 . S
C16 H17 0.952 . S
H17 C16 0.952 . S
H18 C14 0.950 . S
H19 C20 0.949 . S
C20 H19 0.949 . S
C20 C21 1.395 . S
C20 C22 1.391 . S
C21 C20 1.395 . S
C21 C24 1.390 . S
C22 C20 1.391 . S
C22 C26 1.387 . S
C22 C27 1.491 . S
H23 C24 0.950 . S
C24 C21 1.390 . S
C24 H23 0.950 . S
C24 C25 1.378 . S
C25 C24 1.378 . S
C25 C26 1.409 . S
C26 C22 1.387 . S
C26 C25 1.409 . S
C26 H28 0.951 . S
C27 C22 1.491 . S
C27 C29 1.382 . S
C27 C31 1.404 . S
H28 C26 0.951 . S
C29 C27 1.382 . S
C29 C30 1.390 . S
C29 H34 0.949 . S
C30 C29 1.390 . S
C30 C35 1.399 . S
C31 C27 1.404 . S
C31 H32 0.950 . S
C31 C33 1.375 . S
H32 C31 0.950 . S
C33 C31 1.375 . S
C33 C35 1.382 . S
C33 H37 0.950 . S
H34 C29 0.949 . S
C35 C30 1.399 . S
C35 C33 1.382 . S
C35 H36 0.952 . S
H36 C35 0.952 . S
H37 C33 0.950 . S
H38 C39 0.949 . S
C39 H38 0.949 . S
C39 C40 1.395 . S
C39 C41 1.391 . S
C40 C39 1.395 . S
C40 C43 1.390 . S
C41 C39 1.391 . S
C41 C45 1.387 . S
C41 C46 1.491 . S
H42 C43 0.950 . S
C43 C40 1.390 . S
C43 H42 0.950 . S
C43 C44 1.378 . S
C44 C43 1.378 . S
C44 C45 1.409 . S
C45 C41 1.387 . S
C45 C44 1.409 . S
C45 H47 0.951 . S
C46 C41 1.491 . S
C46 C48 1.382 . S
C46 C50 1.404 . S
H47 C45 0.951 . S
C48 C46 1.382 . S
C48 C49 1.390 . S
C48 H53 0.949 . S
C49 C48 1.390 . S
C49 C54 1.399 . S
C50 C46 1.404 . S
C50 H51 0.950 . S
C50 C52 1.375 . S
H51 C50 0.950 . S
C52 C50 1.375 . S
C52 C54 1.382 . S
C52 H56 0.950 . S
H53 C48 0.949 . S
C54 C49 1.399 . S
C54 C52 1.382 . S
C54 H55 0.952 . S
H55 C54 0.952 . S
H56 C52 0.950 . S
H57 C58 0.949 . S
C58 H57 0.949 . S
C58 C59 1.395 . S
C58 C60 1.391 . S
C59 C58 1.395 . S
C59 C62 1.390 . S
C60 C58 1.391 . S
C60 C64 1.387 . S
C60 C65 1.491 . S
H61 C62 0.950 . S
C62 C59 1.390 . S
C62 H61 0.950 . S
C62 C63 1.378 . S
C63 C62 1.378 . S
C63 C64 1.409 . S
C64 C60 1.387 . S
C64 C63 1.409 . S
C64 H66 0.951 . S
C65 C60 1.491 . S
C65 C67 1.382 . S
C65 C69 1.404 . S
H66 C64 0.951 . S
C67 C65 1.382 . S
C67 C68 1.390 . S
C67 H72 0.949 . S
C68 C67 1.390 . S
C68 C73 1.399 . S
C69 C65 1.404 . S
C69 H70 0.950 . S
C69 C71 1.375 . S
H70 C69 0.950 . S
C71 C69 1.375 . S
C71 C73 1.382 . S
C71 H75 0.950 . S
H72 C67 0.949 . S
C73 C68 1.399 . S
C73 C71 1.382 . S
C73 H74 0.952 . S
H74 C73 0.952 . S
H75 C71 0.950 . S
H76 C77 0.949 . S
C77 H76 0.949 . S
C77 C78 1.395 . S
C77 C79 1.391 1_554 S
C78 C77 1.395 . S
C78 C81 1.390 1_554 S
C79 C77 1.391 1_556 S
C79 C83 1.387 . S
C79 C84 1.491 . S
H80 C81 0.950 . S
C81 C78 1.390 1_556 S
C81 H80 0.950 . S
C81 C82 1.378 . S
C82 C81 1.378 . S
C82 C83 1.409 . S
C83 C79 1.387 . S
C83 C82 1.409 . S
C83 H85 0.951 . S
C84 C79 1.491 . S
C84 C86 1.382 1_556 S
C84 C88 1.404 . S
H85 C83 0.951 . S
C86 C84 1.382 1_554 S
C86 C87 1.390 . S
C86 H91 0.949 . S
C87 C86 1.390 . S
C87 C92 1.399 1_554 S
C88 C84 1.404 . S
C88 H89 0.950 . S
C88 C90 1.375 . S
H89 C88 0.950 . S
C90 C88 1.375 . S
C90 C92 1.382 . S
C90 H94 0.950 . S
H91 C86 0.949 . S
C92 C87 1.399 1_556 S
C92 C90 1.382 . S
C92 H93 0.952 1_556 S
H93 C92 0.952 1_554 S
H94 C90 0.950 . S
H95 C96 0.949 . S
C96 H95 0.949 . S
C96 C97 1.395 . S
C96 C98 1.391 1_554 S
C97 C96 1.395 . S
C97 C100 1.390 1_554 S
C98 C96 1.391 1_556 S
C98 C102 1.387 . S
C98 C103 1.491 . S
H99 C100 0.950 . S
C100 C97 1.390 1_556 S
C100 H99 0.950 . S
C100 C101 1.378 . S
C101 C100 1.378 . S
C101 C102 1.409 . S
C102 C98 1.387 . S
C102 C101 1.409 . S
C102 H104 0.951 . S
C103 C98 1.491 . S
C103 C105 1.382 1_556 S
C103 C107 1.404 . S
H104 C102 0.951 . S
C105 C103 1.382 1_554 S
C105 C106 1.390 . S
C105 H110 0.949 . S
C106 C105 1.390 . S
C106 C111 1.399 1_554 S
C107 C103 1.404 . S
C107 H108 0.950 . S
C107 C109 1.375 . S
H108 C107 0.950 . S
C109 C107 1.375 . S
C109 C111 1.382 . S
C109 H113 0.950 . S
H110 C105 0.949 . S
C111 C106 1.399 1_556 S
C111 C109 1.382 . S
C111 H112 0.952 . S
H112 C111 0.952 . S
H113 C109 0.950 . S
H114 C115 0.949 . S
C115 H114 0.949 . S
C115 C116 1.395 . S
C115 C117 1.391 1_554 S
C116 C115 1.395 . S
C116 C119 1.390 1_554 S
C117 C115 1.391 1_556 S
C117 C121 1.387 . S
C117 C122 1.491 . S
H118 C119 0.950 . S
C119 C116 1.390 1_556 S
C119 H118 0.950 . S
C119 C120 1.378 . S
C120 C119 1.378 . S
C120 C121 1.409 . S
C121 C117 1.387 . S
C121 C120 1.409 . S
C121 H123 0.951 . S
C122 C117 1.491 . S
C122 C124 1.382 1_556 S
C122 C126 1.404 . S
H123 C121 0.951 . S
C124 C122 1.382 1_554 S
C124 C125 1.390 . S
C124 H129 0.949 . S
C125 C124 1.390 . S
C125 C130 1.399 1_554 S
C126 C122 1.404 . S
C126 H127 0.950 . S
C126 C128 1.375 . S
H127 C126 0.950 . S
C128 C126 1.375 . S
C128 C130 1.382 . S
C128 H132 0.950 . S
H129 C124 0.949 . S
C130 C125 1.399 1_556 S
C130 C128 1.382 . S
C130 H131 0.952 . S
H131 C130 0.952 . S
H132 C128 0.950 . S
H133 C134 0.949 . S
C134 H133 0.949 . S
C134 C135 1.395 . S
C134 C136 1.391 1_554 S
C135 C134 1.395 . S
C135 C138 1.390 1_554 S
C136 C134 1.391 1_556 S
C136 C140 1.387 . S
C136 C141 1.491 . S
H137 C138 0.950 . S
C138 C135 1.390 1_556 S
C138 H137 0.950 . S
C138 C139 1.378 . S
C139 C138 1.378 . S
C139 C140 1.409 . S
C140 C136 1.387 . S
C140 C139 1.409 . S
C140 H142 0.951 . S
C141 C136 1.491 . S
C141 C143 1.382 1_556 S
C141 C145 1.404 . S
H142 C140 0.951 . S
C143 C141 1.382 1_554 S
C143 C144 1.390 . S
C143 H148 0.949 . S
C144 C143 1.390 . S
C144 C149 1.398 1_554 S
C145 C141 1.404 . S
C145 H146 0.950 . S
C145 C147 1.375 . S
H146 C145 0.950 . S
C147 C145 1.375 . S
C147 C149 1.384 . S
C147 H151 0.950 . S
H148 C143 0.949 . S
C149 C144 1.398 1_556 S
C149 C147 1.384 . S
C149 H150 0.951 1_556 S
H150 C149 0.951 1_554 S
H151 C147 0.950 . S
Eu152 N183 2.657 1_565 S
Eu152 N190 2.609 1_565 S
Eu152 O196 2.558 . S
Eu152 O197 2.612 1_455 S
Eu152 O199 2.337 1_465 S
Eu152 O200 2.563 . S
Eu152 O201 2.419 . S
Eu152 O203 2.380 1_565 S
Eu152 O204 2.432 . S
Eu152 C216 2.848 . S
C153 C156 1.429 . S
C153 C157 1.411 . S
C153 N160 1.377 . S
C154 C156 1.419 1_565 S
C154 C158 1.423 . S
C154 C166 1.392 . S
C155 C157 1.420 1_565 S
C155 C158 1.351 . S
C155 H178 0.931 . S
C156 C153 1.429 . S
C156 C154 1.419 1_545 S
C156 N164 1.362 . S
C157 C153 1.411 . S
C157 C155 1.420 1_545 S
C157 C162 1.395 . S
C158 C154 1.423 . S
C158 C155 1.351 . S
C158 H170 0.930 . S
C159 C161 1.400 . S
C159 C162 1.386 . S
C159 H171 0.930 . S
N160 C153 1.377 . S
N160 C161 1.321 . S
N160 Eu163 2.609 . S
C161 C159 1.400 . S
C161 N160 1.321 . S
C161 H168 0.930 . S
C162 C157 1.395 . S
C162 C159 1.386 . S
C162 H181 0.930 . S
Eu163 N160 2.609 . S
Eu163 N164 2.657 . S
Eu163 O197 2.380 1_545 S
Eu163 O198 2.432 . S
Eu163 O202 2.558 . S
Eu163 O203 2.612 1_655 S
Eu163 O205 2.339 1_655 S
Eu163 O206 2.563 1_655 S
Eu163 O207 2.419 1_655 S
Eu163 C227 2.848 . S
N164 C156 1.362 . S
N164 Eu163 2.657 . S
N164 C165 1.334 1_645 S
C165 N164 1.334 1_465 S
C165 C167 1.413 . S
C165 H172 0.940 . S
C166 C154 1.392 . S
C166 C167 1.367 1_655 S
C166 H174 0.930 . S
C167 C165 1.413 . S
C167 C166 1.367 1_455 S
C167 H169 0.930 . S
H168 C161 0.930 . S
H169 C167 0.930 . S
H170 C158 0.930 . S
H171 C159 0.930 . S
H172 C165 0.940 . S
H173 C187 0.882 1_655 S
H174 C166 0.930 . S
H175 C193 0.930 . S
H176 C184 0.929 1_655 S
H177 C191 0.930 . S
H178 C155 0.931 . S
H179 C185 0.930 . S
H180 C218 0.930 . S
H181 C162 0.930 . S
H182 C217 0.931 . S
N183 Eu152 2.657 1_545 S
N183 C184 1.334 . S
N183 C188 1.362 . S
C184 H176 0.929 1_455 S
C184 N183 1.334 . S
C184 C187 1.416 . S
C185 H179 0.930 . S
C185 C186 1.392 . S
C185 C187 1.416 . S
C186 C185 1.392 . S
C186 C188 1.420 . S
C186 C218 1.423 . S
C187 H173 0.882 1_455 S
C187 C184 1.416 . S
C187 C185 1.416 . S
C188 N183 1.362 . S
C188 C186 1.420 . S
C188 C192 1.429 . S
H189 C194 0.930 . S
N190 Eu152 2.609 1_545 S
N190 C192 1.377 . S
N190 C193 1.321 1_545 S
C191 H177 0.930 . S
C191 C193 1.400 . S
C191 C194 1.386 1_565 S
C192 C188 1.429 . S
C192 N190 1.377 . S
C192 C195 1.411 . S
C193 H175 0.930 . S
C193 N190 1.321 1_565 S
C193 C191 1.400 . S
C194 H189 0.930 . S
C194 C191 1.386 1_545 S
C194 C195 1.395 . S
C195 C192 1.411 . S
C195 C194 1.395 . S
C195 C217 1.420 . S
O196 Eu152 2.558 . S
O196 C216 1.257 . S
O197 Eu152 2.612 1_655 S
O197 Eu163 2.380 1_565 S
O197 C208 1.276 . S
O198 Eu163 2.432 . S
O198 C215 1.264 . S
O199 Eu152 2.337 1_645 S
O199 C215 1.257 . S
O200 Eu152 2.563 . S
O200 C208 1.235 1_455 S
O201 Eu152 2.419 . S
O201 C216 1.249 . S
O202 Eu163 2.558 . S
O202 C227 1.257 . S
O203 Eu152 2.380 1_545 S
O203 Eu163 2.612 1_455 S
O203 C219 1.276 . S
O204 Eu152 2.432 . S
O204 C226 1.265 1_565 S
O205 Eu163 2.339 1_455 S
O205 C226 1.254 . S
O206 Eu163 2.563 1_455 S
O206 C219 1.235 . S
O207 Eu163 2.419 1_455 S
O207 C227 1.249 1_455 S
C208 O197 1.276 . S
C208 O200 1.235 1_655 S
C209 C211 1.393 . S
C209 C213 1.395 . S
C209 C216 1.492 . S
C210 C211 1.392 . S
C210 C212 1.386 . S
C211 C209 1.393 . S
C211 C210 1.392 . S
C211 H228 0.930 1_455 S
C212 C210 1.386 . S
C212 C214 1.395 . S
C212 H229 0.930 . S
C213 C209 1.395 . S
C213 C214 1.379 . S
C213 H230 0.930 . S
C214 C212 1.395 . S
C214 C213 1.379 . S
C214 H231 0.930 . S
C215 O198 1.264 . S
C215 O199 1.257 . S
C216 Eu152 2.848 . S
C216 O196 1.257 . S
C216 O201 1.249 . S
C216 C209 1.492 . S
C217 H182 0.931 . S
C217 C195 1.420 . S
C217 C218 1.351 . S
C218 H180 0.930 . S
C218 C186 1.423 . S
C218 C217 1.351 . S
C219 O203 1.276 . S
C219 O206 1.235 . S
C220 C221 1.393 1_655 S
C220 C224 1.395 . S
C220 C227 1.492 . S
C221 C220 1.393 1_455 S
C221 C222 1.392 . S
C221 H232 0.930 . S
C222 C221 1.392 . S
C222 C223 1.386 1_455 S
C223 C222 1.386 1_655 S
C223 C225 1.395 . S
C223 H233 0.930 . S
C224 C220 1.395 . S
C224 C225 1.379 . S
C224 H234 0.930 . S
C225 C223 1.395 . S
C225 C224 1.379 . S
C225 H235 0.930 . S
C226 O204 1.265 1_545 S
C226 O205 1.254 . S
C227 Eu163 2.848 . S
C227 O202 1.257 . S
C227 O207 1.249 1_655 S
C227 C220 1.492 . S
H228 C211 0.930 1_655 S
H229 C212 0.930 . S
H230 C213 0.930 . S
H231 C214 0.930 . S
H232 C221 0.930 . S
H233 C223 0.930 . S
H234 C224 0.930 . S
H235 C225 0.930 . S
Eu236 N267 2.657 . S
Eu236 N274 2.609 . S
Eu236 O280 2.558 . S
Eu236 O281 2.612 . S
Eu236 O283 2.339 1_545 S
Eu236 O284 2.563 . S
Eu236 O285 2.419 . S
Eu236 O287 2.380 . S
Eu236 O288 2.432 . S
Eu236 C300 2.848 . S
C237 C240 1.429 . S
C237 C241 1.411 . S
C237 N244 1.377 . S
C238 C240 1.420 . S
C238 C242 1.423 . S
C238 C250 1.441 . S
C239 C241 1.420 . S
C239 C242 1.351 . S
C239 H262 0.931 . S
C240 C237 1.429 . S
C240 C238 1.420 . S
C240 N248 1.362 . S
C241 C237 1.411 . S
C241 C239 1.420 . S
C241 C246 1.395 . S
C242 C238 1.423 . S
C242 C239 1.351 . S
C242 H254 0.930 . S
C243 C245 1.400 . S
C243 C246 1.386 . S
C243 H255 0.930 . S
N244 C237 1.377 . S
N244 C245 1.321 . S
N244 Eu247 2.609 . S
C245 C243 1.400 . S
C245 N244 1.321 . S
C245 H252 0.930 . S
C246 C241 1.395 . S
C246 C243 1.386 . S
C246 H265 0.930 . S
Eu247 N244 2.609 . S
Eu247 N248 2.657 . S
Eu247 O281 2.380 1_565 S
Eu247 O282 2.432 . S
Eu247 O286 2.558 . S
Eu247 O287 2.612 1_565 S
Eu247 O289 2.339 1_565 S
Eu247 O290 2.563 1_565 S
Eu247 O291 2.419 1_565 S
Eu247 C311 2.848 . S
N248 C240 1.362 . S
N248 Eu247 2.657 . S
N248 C249 1.334 1_565 S
C249 N248 1.334 1_545 S
C249 C251 1.413 . S
C249 H256 0.929 . S
C250 C238 1.441 . S
C250 C251 1.320 1_565 S
C250 H258 0.930 . S
C251 C249 1.413 . S
C251 C250 1.320 1_545 S
C251 H253 0.930 . S
H252 C245 0.930 . S
H253 C251 0.930 . S
H254 C242 0.930 . S
H255 C243 0.930 . S
H256 C249 0.929 . S
H257 C271 0.930 1_565 S
H258 C250 0.930 . S
H259 C277 0.930 . S
H260 C268 0.929 1_565 S
H261 C275 0.930 . S
H262 C239 0.931 . S
H263 C269 0.930 . S
H264 C302 0.930 . S
H265 C246 0.930 . S
H266 C301 0.931 . S
N267 Eu236 2.657 . S
N267 C268 1.334 . S
N267 C272 1.362 . S
C268 H260 0.929 1_545 S
C268 N267 1.334 . S
C268 C271 1.413 . S
C269 H263 0.930 . S
C269 C270 1.392 . S
C269 C271 1.367 . S
C270 C269 1.392 . S
C270 C272 1.420 . S
C270 C302 1.423 . S
C271 H257 0.930 1_545 S
C271 C268 1.413 . S
C271 C269 1.367 . S
C272 N267 1.362 . S
C272 C270 1.420 . S
C272 C276 1.429 . S
H273 C278 0.930 . S
N274 Eu236 2.609 . S
N274 C276 1.377 . S
N274 C277 1.321 . S
C275 H261 0.930 . S
C275 C277 1.400 . S
C275 C278 1.386 . S
C276 C272 1.429 . S
C276 N274 1.377 . S
C276 C279 1.411 . S
C277 H259 0.930 . S
C277 N274 1.321 . S
C277 C275 1.400 . S
C278 H273 0.930 . S
C278 C275 1.386 . S
C278 C279 1.395 . S
C279 C276 1.411 . S
C279 C278 1.395 . S
C279 C301 1.420 . S
O280 Eu236 2.558 . S
O280 C300 1.257 . S
O281 Eu236 2.612 . S
O281 Eu247 2.380 1_545 S
O281 C292 1.276 . S
O282 Eu247 2.432 . S
O282 C299 1.264 . S
O283 Eu236 2.339 1_565 S
O283 C299 1.254 . S
O284 Eu236 2.563 . S
O284 C292 1.235 . S
O285 Eu236 2.419 . S
O285 C300 1.249 . S
O286 Eu247 2.558 . S
O286 C311 1.257 . S
O287 Eu236 2.380 . S
O287 Eu247 2.612 1_545 S
O287 C303 1.276 . S
O288 Eu236 2.432 . S
O288 C310 1.264 . S
O289 Eu247 2.339 1_545 S
O289 C310 1.254 . S
O290 Eu247 2.563 1_545 S
O290 C303 1.235 . S
O291 Eu247 2.419 1_545 S
O291 C311 1.249 1_545 S
C292 O281 1.276 . S
C292 O284 1.235 . S
C293 C295 1.393 . S
C293 C297 1.395 . S
C293 C300 1.492 . S
C294 C295 1.392 . S
C294 C296 1.386 . S
C295 C293 1.393 . S
C295 C294 1.392 . S
C295 H312 0.930 . S
C296 C294 1.386 . S
C296 C298 1.395 . S
C296 H313 0.930 . S
C297 C293 1.395 . S
C297 C298 1.379 . S
C297 H314 0.930 . S
C298 C296 1.395 . S
C298 C297 1.379 . S
C298 H315 0.930 . S
C299 O282 1.264 . S
C299 O283 1.254 . S
C300 Eu236 2.848 . S
C300 O280 1.257 . S
C300 O285 1.249 . S
C300 C293 1.492 . S
C301 H266 0.931 . S
C301 C279 1.420 . S
C301 C302 1.351 . S
C302 H264 0.930 . S
C302 C270 1.423 . S
C302 C301 1.351 . S
C303 O287 1.276 . S
C303 O290 1.235 . S
C304 C305 1.393 1_565 S
C304 C308 1.395 . S
C304 C311 1.492 . S
C305 C304 1.393 1_545 S
C305 C306 1.392 . S
C305 H316 0.930 . S
C306 C305 1.392 . S
C306 C307 1.386 1_545 S
C307 C306 1.386 1_565 S
C307 C309 1.395 . S
C307 H317 0.930 . S
C308 C304 1.395 . S
C308 C309 1.379 . S
C308 H318 0.930 . S
C309 C307 1.395 . S
C309 C308 1.379 . S
C309 H319 0.930 . S
C310 O288 1.264 . S
C310 O289 1.254 . S
C311 Eu247 2.848 . S
C311 O286 1.257 . S
C311 O291 1.249 1_565 S
C311 C304 1.492 . S
H312 C295 0.930 . S
H313 C296 0.930 . S
H314 C297 0.930 . S
H315 C298 0.930 . S
H316 C305 0.930 . S
H317 C307 0.930 . S
H318 C308 0.930 . S
H319 C309 0.930 . S
Eu320 N351 2.657 . S
Eu320 N358 2.609 . S
Eu320 O364 2.558 . S
Eu320 O365 2.612 . S
Eu320 O367 2.339 . S
Eu320 O368 2.563 . S
Eu320 O369 2.419 . S
Eu320 O371 2.380 . S
Eu320 O372 2.432 . S
Eu320 C384 2.848 . S
C321 C324 1.429 . S
C321 C325 1.411 . S
C321 N328 1.377 . S
C322 C324 1.420 . S
C322 C326 1.423 . S
C322 C334 1.392 . S
C323 C325 1.420 . S
C323 C326 1.351 . S
C323 H346 0.931 . S
C324 C321 1.429 . S
C324 C322 1.420 . S
C324 N332 1.362 . S
C325 C321 1.411 . S
C325 C323 1.420 . S
C325 C330 1.395 . S
C326 C322 1.423 . S
C326 C323 1.351 . S
C326 H338 0.930 . S
C327 C329 1.400 . S
C327 C330 1.386 . S
C327 H339 0.930 . S
N328 C321 1.377 . S
N328 C329 1.321 . S
N328 Eu331 2.609 . S
C329 C327 1.400 . S
C329 N328 1.321 . S
C329 H336 0.930 . S
C330 C325 1.395 . S
C330 C327 1.386 . S
C330 H349 0.930 . S
Eu331 N328 2.609 . S
Eu331 N332 2.657 . S
Eu331 O365 2.380 . S
Eu331 O366 2.432 . S
Eu331 O370 2.558 . S
Eu331 O371 2.612 . S
Eu331 O373 2.339 . S
Eu331 O374 2.563 . S
Eu331 O375 2.419 . S
Eu331 C395 2.848 . S
N332 C324 1.362 . S
N332 Eu331 2.657 . S
N332 C333 1.334 . S
C333 N332 1.334 . S
C333 C335 1.413 . S
C333 H340 0.929 . S
C334 C322 1.392 . S
C334 C335 1.367 . S
C334 H342 0.930 . S
C335 C333 1.413 . S
C335 C334 1.367 . S
C335 H337 0.930 . S
H336 C329 0.930 . S
H337 C335 0.930 . S
H338 C326 0.930 . S
H339 C327 0.930 . S
H340 C333 0.929 . S
H341 C355 0.930 . S
H342 C334 0.930 . S
H343 C361 0.930 . S
H344 C352 0.929 . S
H345 C359 0.930 . S
H346 C323 0.931 . S
H347 C353 0.930 . S
H348 C386 0.930 . S
H349 C330 0.930 . S
H350 C385 0.931 . S
N351 Eu320 2.657 . S
N351 C352 1.334 . S
N351 C356 1.362 . S
C352 H344 0.929 . S
C352 N351 1.334 . S
C352 C355 1.413 . S
C353 H347 0.930 . S
C353 C354 1.392 . S
C353 C355 1.367 . S
C354 C353 1.392 . S
C354 C356 1.420 . S
C354 C386 1.423 . S
C355 H341 0.930 . S
C355 C352 1.413 . S
C355 C353 1.367 . S
C356 N351 1.362 . S
C356 C354 1.420 . S
C356 C360 1.429 . S
H357 C362 0.930 . S
N358 Eu320 2.609 . S
N358 C360 1.377 . S
N358 C361 1.321 . S
C359 H345 0.930 . S
C359 C361 1.400 . S
C359 C362 1.386 . S
C360 C356 1.429 . S
C360 N358 1.377 . S
C360 C363 1.411 . S
C361 H343 0.930 . S
C361 N358 1.321 . S
C361 C359 1.400 . S
C362 H357 0.930 . S
C362 C359 1.386 . S
C362 C363 1.395 . S
C363 C360 1.411 . S
C363 C362 1.395 . S
C363 C385 1.420 . S
O364 Eu320 2.558 . S
O364 C384 1.257 . S
O365 Eu320 2.612 . S
O365 Eu331 2.380 . S
O365 C376 1.276 . S
O366 Eu331 2.432 . S
O366 C383 1.264 . S
O367 Eu320 2.339 . S
O367 C383 1.254 . S
O368 Eu320 2.563 . S
O368 C376 1.235 . S
O369 Eu320 2.419 . S
O369 C384 1.249 . S
O370 Eu331 2.558 . S
O370 C395 1.257 . S
O371 Eu320 2.380 . S
O371 Eu331 2.612 . S
O371 C387 1.276 . S
O372 Eu320 2.432 . S
O372 C394 1.264 . S
O373 Eu331 2.339 . S
O373 C394 1.254 . S
O374 Eu331 2.563 . S
O374 C387 1.235 . S
O375 Eu331 2.419 . S
O375 C395 1.249 . S
C376 O365 1.276 . S
C376 O368 1.235 . S
C377 C379 1.393 . S
C377 C381 1.395 . S
C377 C384 1.492 . S
C378 C379 1.392 . S
C378 C380 1.386 . S
C379 C377 1.393 . S
C379 C378 1.392 . S
C379 H396 0.930 . S
C380 C378 1.386 . S
C380 C382 1.395 . S
C380 H397 0.930 . S
C381 C377 1.395 . S
C381 C382 1.379 . S
C381 H398 0.930 . S
C382 C380 1.395 . S
C382 C381 1.379 . S
C382 H399 0.930 . S
C383 O366 1.264 . S
C383 O367 1.254 . S
C384 Eu320 2.848 . S
C384 O364 1.257 . S
C384 O369 1.249 . S
C384 C377 1.492 . S
C385 H350 0.931 . S
C385 C363 1.420 . S
C385 C386 1.351 . S
C386 H348 0.930 . S
C386 C354 1.423 . S
C386 C385 1.351 . S
C387 O371 1.276 . S
C387 O374 1.235 . S
C388 C389 1.393 . S
C388 C392 1.395 . S
C388 C395 1.492 . S
C389 C388 1.393 . S
C389 C390 1.392 . S
C389 H400 0.930 . S
C390 C389 1.392 . S
C390 C391 1.386 . S
C391 C390 1.386 . S
C391 C393 1.395 . S
C391 H401 0.930 . S
C392 C388 1.395 . S
C392 C393 1.379 . S
C392 H402 0.930 . S
C393 C391 1.395 . S
C393 C392 1.379 . S
C393 H403 0.930 1_556 S
C394 O372 1.264 . S
C394 O373 1.254 . S
C395 Eu331 2.848 . S
C395 O370 1.257 . S
C395 O375 1.249 . S
C395 C388 1.492 . S
H396 C379 0.930 . S
H397 C380 0.930 . S
H398 C381 0.930 . S
H399 C382 0.930 . S
H400 C389 0.930 . S
H401 C391 0.930 . S
H402 C392 0.930 . S
H403 C393 0.930 1_554 S
Eu404 N435 2.657 . S
Eu404 N442 2.609 . S
Eu404 O448 2.558 . S
Eu404 O449 2.612 . S
Eu404 O451 2.339 . S
Eu404 O452 2.563 . S
Eu404 O453 2.419 . S
Eu404 O455 2.380 . S
Eu404 O456 2.432 1_455 S
Eu404 C468 2.848 . S
C405 C408 1.429 . S
C405 C409 1.411 . S
C405 N412 1.377 . S
C406 C408 1.420 . S
C406 C410 1.423 . S
C406 C418 1.392 . S
C407 C409 1.420 . S
C407 C410 1.351 . S
C407 H430 0.931 . S
C408 C405 1.429 . S
C408 C406 1.420 . S
C408 N416 1.362 . S
C409 C405 1.411 . S
C409 C407 1.420 . S
C409 C414 1.395 1_655 S
C410 C406 1.423 . S
C410 C407 1.351 . S
C410 H422 0.930 . S
C411 C413 1.400 . S
C411 C414 1.386 . S
C411 H423 0.930 . S
N412 C405 1.377 . S
N412 C413 1.321 1_655 S
N412 Eu415 2.609 . S
C413 C411 1.400 . S
C413 N412 1.321 1_455 S
C413 H420 0.930 . S
C414 C409 1.395 1_455 S
C414 C411 1.386 . S
C414 H433 0.930 . S
Eu415 N412 2.609 . S
Eu415 N416 2.657 . S
Eu415 O449 2.380 1_655 S
Eu415 O450 2.432 1_655 S
Eu415 O454 2.558 . S
Eu415 O455 2.612 1_655 S
Eu415 O457 2.339 . S
Eu415 O458 2.563 . S
Eu415 O459 2.419 . S
Eu415 C479 2.848 . S
N416 C408 1.362 . S
N416 Eu415 2.657 . S
N416 C417 1.334 . S
C417 N416 1.334 . S
C417 C419 1.413 . S
C417 H424 0.929 . S
C418 C406 1.392 . S
C418 C419 1.367 . S
C418 H426 0.930 . S
C419 C417 1.413 . S
C419 C418 1.367 . S
C419 H421 0.930 . S
H420 C413 0.930 . S
H421 C419 0.930 . S
H422 C410 0.930 . S
H423 C411 0.930 . S
H424 C417 0.929 . S
H425 C439 0.930 . S
H426 C418 0.930 . S
H427 C445 0.930 1_655 S
H428 C436 0.929 . S
H429 C443 0.930 1_655 S
H430 C407 0.931 . S
H431 C437 0.930 . S
H432 C470 0.930 . S
H433 C414 0.930 . S
H434 C469 0.931 . S
N435 Eu404 2.657 . S
N435 C436 1.334 . S
N435 C440 1.362 . S
C436 H428 0.929 . S
C436 N435 1.334 . S
C436 C439 1.413 . S
C437 H431 0.930 . S
C437 C438 1.392 . S
C437 C439 1.367 . S
C438 C437 1.392 . S
C438 C440 1.420 . S
C438 C470 1.423 . S
C439 H425 0.930 . S
C439 C436 1.413 . S
C439 C437 1.367 . S
C440 N435 1.362 . S
C440 C438 1.420 . S
C440 C444 1.429 . S
H441 C446 0.930 . S
N442 Eu404 2.609 . S
N442 C444 1.377 . S
N442 C445 1.321 . S
C443 H429 0.930 1_455 S
C443 C445 1.400 . S
C443 C446 1.386 . S
C444 C440 1.429 . S
C444 N442 1.377 . S
C444 C447 1.411 . S
C445 H427 0.930 1_455 S
C445 N442 1.321 . S
C445 C443 1.400 . S
C446 H441 0.930 . S
C446 C443 1.386 . S
C446 C447 1.395 . S
C447 C444 1.411 . S
C447 C446 1.395 . S
C447 C469 1.420 . S
O448 Eu404 2.558 . S
O448 C468 1.257 . S
O449 Eu404 2.612 . S
O449 Eu415 2.380 1_455 S
O449 C460 1.276 . S
O450 Eu415 2.432 1_455 S
O450 C467 1.264 . S
O451 Eu404 2.339 . S
O451 C467 1.254 . S
O452 Eu404 2.563 . S
O452 C460 1.235 . S
O453 Eu404 2.419 . S
O453 C468 1.249 . S
O454 Eu415 2.558 . S
O454 C479 1.257 . S
O455 Eu404 2.380 . S
O455 Eu415 2.612 1_455 S
O455 C471 1.276 1_455 S
O456 Eu404 2.432 1_655 S
O456 C478 1.264 . S
O457 Eu415 2.339 . S
O457 C478 1.254 . S
O458 Eu415 2.563 . S
O458 C471 1.235 . S
O459 Eu415 2.419 . S
O459 C479 1.249 . S
C460 O449 1.276 . S
C460 O452 1.235 . S
C461 C463 1.393 . S
C461 C465 1.395 . S
C461 C468 1.492 . S
C462 C463 1.392 . S
C462 C464 1.386 . S
C463 C461 1.393 . S
C463 C462 1.392 . S
C463 H480 0.930 . S
C464 C462 1.386 . S
C464 C466 1.395 . S
C464 H481 0.930 . S
C465 C461 1.395 . S
C465 C466 1.379 . S
C465 H482 0.930 . S
C466 C464 1.395 . S
C466 C465 1.379 . S
C466 H483 0.930 . S
C467 O450 1.264 . S
C467 O451 1.254 . S
C468 Eu404 2.848 . S
C468 O448 1.257 . S
C468 O453 1.249 . S
C468 C461 1.492 . S
C469 H434 0.931 . S
C469 C447 1.420 . S
C469 C470 1.351 . S
C470 H432 0.930 . S
C470 C438 1.423 . S
C470 C469 1.351 . S
C471 O455 1.276 1_655 S
C471 O458 1.235 . S
C472 C473 1.393 . S
C472 C476 1.395 . S
C472 C479 1.492 . S
C473 C472 1.393 . S
C473 C474 1.392 . S
C473 H484 0.930 . S
C474 C473 1.392 . S
C474 C475 1.386 . S
C475 C474 1.386 . S
C475 C477 1.395 . S
C475 H485 0.930 . S
C476 C472 1.395 . S
C476 C477 1.379 . S
C476 H486 0.930 . S
C477 C475 1.395 . S
C477 C476 1.379 . S
C477 H487 0.930 1_556 S
C478 O456 1.264 . S
C478 O457 1.254 . S
C479 Eu415 2.848 . S
C479 O454 1.257 . S
C479 O459 1.249 . S
C479 C472 1.492 . S
H480 C463 0.930 . S
H481 C464 0.930 . S
H482 C465 0.930 . S
H483 C466 0.930 . S
H484 C473 0.930 . S
H485 C475 0.930 . S
H486 C476 0.930 . S
H487 C477 0.930 1_554 S
H488 C506 0.951 . S
H489 C508 0.951 . S
H490 C510 0.950 . S
H491 C511 0.950 . S
H492 C513 0.950 . S
H493 C516 0.950 . S
H494 C517 0.950 . S
H495 C519 0.950 . S
H496 C520 0.950 . S
H497 C521 0.951 . S
H498 C523 0.951 . S
H499 C525 0.950 . S
H500 C526 0.950 . S
H501 C528 0.950 . S
H502 C531 0.950 . S
H503 C532 0.950 . S
H504 C534 0.950 . S
H505 C535 0.950 . S
C506 H488 0.951 . S
C506 C507 1.366 . S
C506 C508 1.388 . S
C507 C506 1.366 . S
C507 C511 1.385 . S
C508 H489 0.951 . S
C508 C506 1.388 . S
C508 C509 1.366 . S
C509 C508 1.366 . S
C509 C510 1.414 . S
C509 C512 1.499 . S
C510 H490 0.950 . S
C510 C509 1.414 . S
C510 C511 1.374 . S
C511 H491 0.950 . S
C511 C507 1.385 . S
C511 C510 1.374 . S
C512 C509 1.499 . S
C512 C513 1.373 . S
C512 C514 1.389 . S
C513 H492 0.950 . S
C513 C512 1.373 . S
C513 C529 1.377 . S
C514 C512 1.389 . S
C514 C515 1.524 . S
C514 C528 1.377 . S
C515 C514 1.524 . S
C515 C516 1.397 . S
C515 C520 1.363 . S
C516 H493 0.950 . S
C516 C515 1.397 . S
C516 C517 1.334 . S
C517 H494 0.950 . S
C517 C516 1.334 . S
C517 C518 1.287 . S
C518 C517 1.287 . S
C518 C519 1.524 . S
C518 H537 0.913 . S
C519 H495 0.950 . S
C519 C518 1.524 . S
C519 C520 1.415 . S
C520 H496 0.950 . S
C520 C515 1.363 . S
C520 C519 1.415 . S
C521 H497 0.951 . S
C521 C522 1.366 . S
C521 C523 1.388 . S
C522 C521 1.366 . S
C522 C526 1.385 . S
C523 H498 0.951 . S
C523 C521 1.388 . S
C523 C524 1.366 . S
C524 C523 1.366 . S
C524 C525 1.414 . S
C524 C527 1.499 . S
C525 H499 0.950 . S
C525 C524 1.414 . S
C525 C526 1.374 . S
C526 H500 0.950 . S
C526 C522 1.385 . S
C526 C525 1.374 . S
C527 C524 1.499 . S
C527 C528 1.373 . S
C527 C529 1.389 . S
C528 H501 0.950 . S
C528 C514 1.377 . S
C528 C527 1.373 . S
C529 C513 1.377 . S
C529 C527 1.389 . S
C529 C530 1.524 . S
C530 C529 1.524 . S
C530 C531 1.397 . S
C530 C535 1.363 . S
C531 H502 0.950 . S
C531 C530 1.397 . S
C531 C532 1.334 . S
C532 H503 0.950 . S
C532 C531 1.334 . S
C532 C533 1.287 . S
C533 C532 1.287 . S
C533 C534 1.524 . S
C533 H536 0.999 . S
C534 H504 0.950 . S
C534 C533 1.524 . S
C534 C535 1.415 . S
C535 H505 0.950 . S
C535 C530 1.363 . S
C535 C534 1.415 . S
H536 C533 0.999 . S
H537 C518 0.913 . S
H538 C556 0.951 . S
H539 C558 0.951 . S
H540 C560 0.950 . S
H541 C561 0.950 . S
H542 C563 0.950 . S
H543 C566 0.950 . S
H544 C567 0.950 . S
H545 C569 0.950 . S
H546 C570 0.950 . S
H547 C571 0.951 . S
H548 C573 0.951 . S
H549 C575 0.950 . S
H550 C576 0.950 . S
H551 C578 0.950 . S
H552 C581 0.950 . S
H553 C582 0.950 . S
H554 C584 0.950 . S
H555 C585 0.950 . S
C556 H538 0.951 . S
C556 C557 1.366 . S
C556 C558 1.388 . S
C557 C556 1.366 . S
C557 C561 1.385 . S
C558 H539 0.951 . S
C558 C556 1.388 . S
C558 C559 1.366 . S
C559 C558 1.366 . S
C559 C560 1.414 . S
C559 C562 1.499 . S
C560 H540 0.950 . S
C560 C559 1.414 . S
C560 C561 1.374 . S
C561 H541 0.950 . S
C561 C557 1.385 . S
C561 C560 1.374 . S
C562 C559 1.499 . S
C562 C563 1.373 . S
C562 C564 1.389 . S
C563 H542 0.950 . S
C563 C562 1.373 . S
C563 C579 1.377 . S
C564 C562 1.389 . S
C564 C565 1.524 . S
C564 C578 1.377 . S
C565 C564 1.524 . S
C565 C566 1.397 . S
C565 C570 1.363 . S
C566 H543 0.950 . S
C566 C565 1.397 . S
C566 C567 1.334 . S
C567 H544 0.950 . S
C567 C566 1.334 . S
C567 C568 1.287 . S
C568 C567 1.287 . S
C568 C569 1.524 . S
C568 H587 0.913 . S
C569 H545 0.950 . S
C569 C568 1.524 . S
C569 C570 1.415 . S
C570 H546 0.950 . S
C570 C565 1.363 . S
C570 C569 1.415 . S
C571 H547 0.951 . S
C571 C572 1.366 . S
C571 C573 1.388 . S
C572 C571 1.366 . S
C572 C576 1.385 . S
C573 H548 0.951 . S
C573 C571 1.388 . S
C573 C574 1.366 . S
C574 C573 1.366 . S
C574 C575 1.414 . S
C574 C577 1.499 . S
C575 H549 0.950 . S
C575 C574 1.414 . S
C575 C576 1.374 . S
C576 H550 0.950 . S
C576 C572 1.385 . S
C576 C575 1.374 . S
C577 C574 1.499 . S
C577 C578 1.373 . S
C577 C579 1.389 . S
C578 H551 0.950 . S
C578 C564 1.377 . S
C578 C577 1.373 . S
C579 C563 1.377 . S
C579 C577 1.389 . S
C579 C580 1.524 . S
C580 C579 1.524 . S
C580 C581 1.397 . S
C580 C585 1.363 . S
C581 H552 0.950 . S
C581 C580 1.397 . S
C581 C582 1.334 . S
C582 H553 0.950 . S
C582 C581 1.334 . S
C582 C583 1.287 . S
C583 C582 1.287 . S
C583 C584 1.524 . S
C583 H586 0.999 . S
C584 H554 0.950 . S
C584 C583 1.524 . S
C584 C585 1.415 . S
C585 H555 0.950 . S
C585 C580 1.363 . S
C585 C584 1.415 . S
H586 C583 0.999 . S
H587 C568 0.913 . S
H588 C606 0.951 . S
H589 C608 0.951 . S
H590 C610 0.950 . S
H591 C611 0.950 . S
H592 C613 0.950 . S
H593 C616 0.950 . S
H594 C617 0.950 . S
H595 C619 0.950 . S
H596 C620 0.950 . S
H597 C621 0.951 . S
H598 C623 0.951 . S
H599 C625 0.950 . S
H600 C626 0.950 . S
H601 C628 0.950 . S
H602 C631 0.950 . S
H603 C632 0.950 . S
H604 C634 0.950 . S
H605 C635 0.950 . S
C606 H588 0.951 . S
C606 C607 1.366 . S
C606 C608 1.388 . S
C607 C606 1.366 . S
C607 C611 1.385 . S
C608 H589 0.951 . S
C608 C606 1.388 . S
C608 C609 1.366 . S
C609 C608 1.366 . S
C609 C610 1.414 . S
C609 C612 1.499 . S
C610 H590 0.950 . S
C610 C609 1.414 . S
C610 C611 1.374 . S
C611 H591 0.950 . S
C611 C607 1.385 . S
C611 C610 1.374 . S
C612 C609 1.499 . S
C612 C613 1.373 . S
C612 C614 1.389 . S
C613 H592 0.950 . S
C613 C612 1.373 . S
C613 C629 1.377 . S
C614 C612 1.389 . S
C614 C615 1.524 . S
C614 C628 1.377 . S
C615 C614 1.524 . S
C615 C616 1.397 . S
C615 C620 1.363 . S
C616 H593 0.950 . S
C616 C615 1.397 . S
C616 C617 1.334 . S
C617 H594 0.950 . S
C617 C616 1.334 . S
C617 C618 1.287 . S
C618 C617 1.287 . S
C618 C619 1.524 . S
C618 H637 0.913 . S
C619 H595 0.950 . S
C619 C618 1.524 . S
C619 C620 1.415 . S
C620 H596 0.950 . S
C620 C615 1.363 . S
C620 C619 1.415 . S
C621 H597 0.951 . S
C621 C622 1.366 . S
C621 C623 1.388 . S
C622 C621 1.366 . S
C622 C626 1.385 . S
C623 H598 0.951 . S
C623 C621 1.388 . S
C623 C624 1.366 . S
C624 C623 1.366 . S
C624 C625 1.414 . S
C624 C627 1.499 . S
C625 H599 0.950 . S
C625 C624 1.414 . S
C625 C626 1.374 . S
C626 H600 0.950 . S
C626 C622 1.385 . S
C626 C625 1.374 . S
C627 C624 1.499 . S
C627 C628 1.373 . S
C627 C629 1.389 . S
C628 H601 0.950 . S
C628 C614 1.377 . S
C628 C627 1.373 . S
C629 C613 1.377 . S
C629 C627 1.389 . S
C629 C630 1.524 . S
C630 C629 1.524 . S
C630 C631 1.397 . S
C630 C635 1.363 . S
C631 H602 0.950 . S
C631 C630 1.397 . S
C631 C632 1.334 . S
C632 H603 0.950 . S
C632 C631 1.334 . S
C632 C633 1.287 . S
C633 C632 1.287 . S
C633 C634 1.524 . S
C633 H636 0.999 . S
C634 H604 0.950 . S
C634 C633 1.524 . S
C634 C635 1.415 . S
C635 H605 0.950 . S
C635 C630 1.363 . S
C635 C634 1.415 . S
H636 C633 0.999 . S
H637 C618 0.913 . S
H638 C656 0.951 . S
H639 C658 0.951 . S
H640 C660 0.950 . S
H641 C661 0.950 . S
H642 C663 0.950 . S
H643 C666 0.950 . S
H644 C667 0.950 . S
H645 C669 0.950 . S
H646 C670 0.950 . S
H647 C671 0.913 1_655 S
H648 C673 0.951 . S
H649 C675 0.950 . S
H650 C676 0.950 . S
H651 C678 0.950 . S
H652 C681 0.950 . S
H653 C682 0.950 . S
H654 C684 0.950 . S
H655 C685 0.950 . S
C656 H638 0.951 . S
C656 C657 1.366 . S
C656 C658 1.388 . S
C657 C656 1.366 . S
C657 C661 1.385 . S
C658 H639 0.951 . S
C658 C656 1.388 . S
C658 C659 1.366 . S
C659 C658 1.366 . S
C659 C660 1.414 . S
C659 C662 1.499 . S
C660 H640 0.950 . S
C660 C659 1.414 . S
C660 C661 1.374 . S
C661 H641 0.950 . S
C661 C657 1.385 . S
C661 C660 1.374 . S
C662 C659 1.499 . S
C662 C663 1.373 . S
C662 C664 1.389 . S
C663 H642 0.950 . S
C663 C662 1.373 . S
C663 C679 1.377 . S
C664 C662 1.389 . S
C664 C665 1.524 . S
C664 C678 1.377 . S
C665 C664 1.524 . S
C665 C666 1.397 . S
C665 C670 1.363 . S
C666 H643 0.950 . S
C666 C665 1.397 . S
C666 C667 1.334 . S
C667 H644 0.950 . S
C667 C666 1.334 . S
C667 C668 1.287 . S
C668 C667 1.287 . S
C668 C669 1.524 . S
C668 H687 0.913 . S
C669 H645 0.950 . S
C669 C668 1.524 . S
C669 C670 1.415 . S
C670 H646 0.950 . S
C670 C665 1.363 . S
C670 C669 1.415 . S
C671 H647 0.913 1_455 S
C671 C672 1.366 . S
C671 C673 1.388 . S
C672 C671 1.366 . S
C672 C676 1.385 . S
C673 H648 0.951 . S
C673 C671 1.388 . S
C673 C674 1.366 . S
C674 C673 1.366 . S
C674 C675 1.414 . S
C674 C677 1.499 . S
C675 H649 0.950 . S
C675 C674 1.414 . S
C675 C676 1.374 . S
C676 H650 0.950 . S
C676 C672 1.385 . S
C676 C675 1.374 . S
C677 C674 1.499 . S
C677 C678 1.373 . S
C677 C679 1.389 . S
C678 H651 0.950 . S
C678 C664 1.377 . S
C678 C677 1.373 . S
C679 C663 1.377 . S
C679 C677 1.389 . S
C679 C680 1.524 . S
C680 C679 1.524 . S
C680 C681 1.397 . S
C680 C685 1.363 . S
C681 H652 0.950 . S
C681 C680 1.397 . S
C681 C682 1.334 . S
C682 H653 0.950 . S
C682 C681 1.334 . S
C682 C683 1.287 . S
C683 C682 1.287 . S
C683 C684 1.524 . S
C683 H686 0.999 . S
C684 H654 0.950 . S
C684 C683 1.524 . S
C684 C685 1.415 . S
C685 H655 0.950 . S
C685 C680 1.363 . S
C685 C684 1.415 . S
H686 C683 0.999 . S
H687 C668 0.913 . S
H688 C706 0.951 . S
H689 C708 0.951 1_556 S
H690 C710 0.950 . S
H691 C711 0.950 . S
H692 C713 0.950 1_554 S
H693 C716 0.950 . S
H694 C717 0.950 . S
H695 C719 0.950 . S
H696 C720 0.950 . S
H697 C721 0.951 . S
H698 C723 0.951 . S
H699 C725 0.950 . S
H700 C726 0.950 . S
H701 C728 0.950 . S
H702 C731 0.950 . S
H703 C732 0.950 . S
H704 C734 0.950 . S
H705 C735 0.950 . S
C706 H688 0.951 . S
C706 C707 1.366 . S
C706 C708 1.388 . S
C707 C706 1.366 . S
C707 C711 1.385 . S
C708 H689 0.951 1_554 S
C708 C706 1.388 . S
C708 C709 1.366 . S
C709 C708 1.366 . S
C709 C710 1.414 . S
C709 C712 1.499 1_554 S
C710 H690 0.950 . S
C710 C709 1.414 . S
C710 C711 1.374 . S
C711 H691 0.950 . S
C711 C707 1.385 . S
C711 C710 1.374 . S
C712 C709 1.499 1_556 S
C712 C713 1.373 . S
C712 C714 1.389 . S
C713 H692 0.950 1_556 S
C713 C712 1.373 . S
C713 C729 1.377 . S
C714 C712 1.389 . S
C714 C715 1.524 . S
C714 C728 1.377 . S
C715 C714 1.524 . S
C715 C716 1.397 . S
C715 C720 1.363 . S
C716 H693 0.950 . S
C716 C715 1.397 . S
C716 C717 1.334 . S
C717 H694 0.950 . S
C717 C716 1.334 . S
C717 C718 1.287 . S
C718 C717 1.287 . S
C718 C719 1.524 . S
C718 H737 0.913 . S
C719 H695 0.950 . S
C719 C718 1.524 . S
C719 C720 1.415 . S
C720 H696 0.950 . S
C720 C715 1.363 . S
C720 C719 1.415 . S
C721 H697 0.951 . S
C721 C722 1.366 . S
C721 C723 1.388 . S
C722 C721 1.366 . S
C722 C726 1.385 1_565 S
C723 H698 0.951 . S
C723 C721 1.388 . S
C723 C724 1.366 . S
C724 C723 1.366 . S
C724 C725 1.414 1_565 S
C724 C727 1.499 . S
C725 H699 0.950 . S
C725 C724 1.414 1_545 S
C725 C726 1.374 . S
C726 H700 0.950 . S
C726 C722 1.385 1_545 S
C726 C725 1.374 . S
C727 C724 1.499 . S
C727 C728 1.373 . S
C727 C729 1.389 . S
C728 H701 0.950 . S
C728 C714 1.377 . S
C728 C727 1.373 . S
C729 C713 1.377 . S
C729 C727 1.389 . S
C729 C730 1.524 . S
C730 C729 1.524 . S
C730 C731 1.397 1_565 S
C730 C735 1.363 1_556 S
C731 H702 0.950 . S
C731 C730 1.397 1_545 S
C731 C732 1.334 . S
C732 H703 0.950 . S
C732 C731 1.334 . S
C732 C733 1.287 1_556 S
C733 C732 1.287 1_554 S
C733 C734 1.524 1_545 S
C733 H736 0.999 . S
C734 H704 0.950 . S
C734 C733 1.524 1_565 S
C734 C735 1.415 . S
C735 H705 0.950 . S
C735 C730 1.363 1_554 S
C735 C734 1.415 . S
H736 C733 0.999 . S
H737 C718 0.913 . S
H738 C756 0.951 . S
H739 C758 0.951 . S
H740 C760 0.950 . S
H741 C761 0.950 . S
H742 C763 0.950 . S
H743 C766 0.950 . S
H744 C767 0.950 . S
H745 C769 0.950 . S
H746 C770 0.950 1_554 S
H747 C771 0.951 . S
H748 C773 0.951 . S
H749 C775 0.950 . S
H750 C776 0.950 . S
H751 C778 0.950 . S
H752 C781 0.950 . S
H753 C782 0.950 . S
H754 C784 0.950 . S
H755 C785 0.950 . S
C756 H738 0.951 . S
C756 C757 1.366 . S
C756 C758 1.388 . S
C757 C756 1.366 . S
C757 C761 1.385 . S
C758 H739 0.951 . S
C758 C756 1.388 . S
C758 C759 1.366 . S
C759 C758 1.366 . S
C759 C760 1.414 1_554 S
C759 C762 1.499 1_554 S
C760 H740 0.950 . S
C760 C759 1.414 1_556 S
C760 C761 1.374 1_556 S
C761 H741 0.950 . S
C761 C757 1.385 . S
C761 C760 1.374 1_554 S
C762 C759 1.499 1_556 S
C762 C763 1.373 . S
C762 C764 1.389 . S
C763 H742 0.950 . S
C763 C762 1.373 . S
C763 C779 1.377 . S
C764 C762 1.389 . S
C764 C765 1.524 . S
C764 C778 1.377 . S
C765 C764 1.524 . S
C765 C766 1.397 . S
C765 C770 1.363 . S
C766 H743 0.950 . S
C766 C765 1.397 . S
C766 C767 1.334 . S
C767 H744 0.950 . S
C767 C766 1.334 . S
C767 C768 1.287 . S
C768 C767 1.287 . S
C768 C769 1.524 1_556 S
C768 H787 0.913 1_556 S
C769 H745 0.950 . S
C769 C768 1.524 1_554 S
C769 C770 1.415 1_554 S
C770 H746 0.950 1_556 S
C770 C765 1.363 . S
C770 C769 1.415 1_556 S
C771 H747 0.951 . S
C771 C772 1.366 . S
C771 C773 1.388 . S
C772 C771 1.366 . S
C772 C776 1.385 . S
C773 H748 0.951 . S
C773 C771 1.388 . S
C773 C774 1.366 . S
C774 C773 1.366 . S
C774 C775 1.414 . S
C774 C777 1.499 . S
C775 H749 0.950 . S
C775 C774 1.414 . S
C775 C776 1.374 . S
C776 H750 0.950 . S
C776 C772 1.385 . S
C776 C775 1.374 . S
C777 C774 1.499 . S
C777 C778 1.373 . S
C777 C779 1.389 . S
C778 H751 0.950 . S
C778 C764 1.377 . S
C778 C777 1.373 . S
C779 C763 1.377 . S
C779 C777 1.389 . S
C779 C780 1.524 . S
C780 C779 1.524 . S
C780 C781 1.397 . S
C780 C785 1.363 . S
C781 H752 0.950 . S
C781 C780 1.397 . S
C781 C782 1.334 . S
C782 H753 0.950 . S
C782 C781 1.334 . S
C782 C783 1.287 . S
C783 C782 1.287 . S
C783 C784 1.524 . S
C783 H786 0.999 . S
C784 H754 0.950 . S
C784 C783 1.524 . S
C784 C785 1.415 . S
C785 H755 0.950 . S
C785 C780 1.363 . S
C785 C784 1.415 . S
H786 C783 0.999 . S
H787 C768 0.913 1_554 S
H788 C806 0.951 . S
H789 C808 0.951 1_556 S
H790 C810 0.950 . S
H791 C811 0.950 . S
H792 C813 0.950 1_554 S
H793 C816 0.950 . S
H794 C817 0.950 . S
H795 C819 0.950 . S
H796 C820 0.950 . S
H797 C821 0.951 . S
H798 C823 0.951 . S
H799 C825 0.950 . S
H800 C826 0.950 . S
H801 C828 0.950 . S
H802 C831 0.950 . S
H803 C832 0.950 . S
H804 C834 0.950 . S
H805 C835 0.950 . S
C806 H788 0.951 . S
C806 C807 1.366 . S
C806 C808 1.388 . S
C807 C806 1.366 . S
C807 C811 1.385 . S
C808 H789 0.951 1_554 S
C808 C806 1.388 . S
C808 C809 1.364 1_554 S
C809 C808 1.364 1_556 S
C809 C810 1.409 1_556 S
C809 C812 1.505 . S
C810 H790 0.950 . S
C810 C809 1.409 1_554 S
C810 C811 1.374 . S
C811 H791 0.950 . S
C811 C807 1.385 . S
C811 C810 1.374 . S
C812 C809 1.505 . S
C812 C813 1.373 . S
C812 C814 1.389 . S
C813 H792 0.950 1_556 S
C813 C812 1.373 . S
C813 C829 1.377 . S
C814 C812 1.389 . S
C814 C815 1.524 . S
C814 C828 1.377 . S
C815 C814 1.524 . S
C815 C816 1.397 . S
C815 C820 1.363 . S
C816 H793 0.950 . S
C816 C815 1.397 . S
C816 C817 1.334 . S
C817 H794 0.950 . S
C817 C816 1.334 . S
C817 C818 1.287 . S
C818 C817 1.287 . S
C818 C819 1.524 . S
C818 H837 0.913 . S
C819 H795 0.950 . S
C819 C818 1.524 . S
C819 C820 1.415 . S
C820 H796 0.950 . S
C820 C815 1.363 . S
C820 C819 1.415 . S
C821 H797 0.951 . S
C821 C822 1.366 . S
C821 C823 1.388 . S
C822 C821 1.366 . S
C822 C826 1.385 . S
C823 H798 0.951 . S
C823 C821 1.388 . S
C823 C824 1.366 . S
C824 C823 1.366 . S
C824 C825 1.414 . S
C824 C827 1.499 . S
C825 H799 0.950 . S
C825 C824 1.414 . S
C825 C826 1.374 . S
C826 H800 0.950 . S
C826 C822 1.385 . S
C826 C825 1.374 . S
C827 C824 1.499 . S
C827 C828 1.373 . S
C827 C829 1.389 . S
C828 H801 0.950 . S
C828 C814 1.377 . S
C828 C827 1.373 . S
C829 C813 1.377 . S
C829 C827 1.389 . S
C829 C830 1.524 . S
C830 C829 1.524 . S
C830 C831 1.397 . S
C830 C835 1.363 1_556 S
C831 H802 0.950 . S
C831 C830 1.397 . S
C831 C832 1.334 1_556 S
C832 H803 0.950 . S
C832 C831 1.334 1_554 S
C832 C833 1.287 . S
C833 C832 1.287 . S
C833 C834 1.524 . S
C833 H836 0.999 . S
C834 H804 0.950 . S
C834 C833 1.524 . S
C834 C835 1.415 . S
C835 H805 0.950 . S
C835 C830 1.363 1_554 S
C835 C834 1.415 . S
H836 C833 0.999 . S
H837 C818 0.913 . S
H838 C856 0.951 . S
H839 C858 0.951 . S
H840 C860 0.950 . S
H841 C861 0.950 . S
H842 C863 0.950 . S
H843 C866 0.950 . S
H844 C867 0.950 . S
H845 C869 0.950 . S
H846 C870 0.950 . S
H847 C871 0.951 . S
H848 C873 0.951 . S
H849 C875 0.950 . S
H850 C876 0.925 1_455 S
H851 C878 0.950 1_455 S
H852 C881 0.950 . S
H853 C882 0.950 . S
H854 C884 0.950 . S
H855 C885 0.950 . S
C856 H838 0.951 . S
C856 C857 1.366 . S
C856 C858 1.388 . S
C857 C856 1.366 . S
C857 C861 1.385 . S
C858 H839 0.951 . S
C858 C856 1.388 . S
C858 C859 1.366 . S
C859 C858 1.366 . S
C859 C860 1.414 1_554 S
C859 C862 1.499 1_554 S
C860 H840 0.950 . S
C860 C859 1.414 1_556 S
C860 C861 1.374 1_556 S
C861 H841 0.950 . S
C861 C857 1.385 . S
C861 C860 1.374 1_554 S
C862 C859 1.499 1_556 S
C862 C863 1.373 . S
C862 C864 1.389 . S
C863 H842 0.950 . S
C863 C862 1.373 . S
C863 C879 1.377 . S
C864 C862 1.389 . S
C864 C865 1.524 1_656 S
C864 C878 1.377 . S
C865 C864 1.524 1_454 S
C865 C866 1.397 1_554 S
C865 C870 1.363 . S
C866 H843 0.950 . S
C866 C865 1.397 1_556 S
C866 C867 1.334 1_556 S
C867 H844 0.950 . S
C867 C866 1.334 1_554 S
C867 C868 1.287 . S
C868 C867 1.287 . S
C868 C869 1.524 . S
C868 H887 0.913 . S
C869 H845 0.950 . S
C869 C868 1.524 . S
C869 C870 1.415 . S
C870 H846 0.950 . S
C870 C865 1.363 . S
C870 C869 1.415 . S
C871 H847 0.951 . S
C871 C872 1.366 . S
C871 C873 1.388 . S
C872 C871 1.366 . S
C872 C876 1.385 . S
C873 H848 0.951 . S
C873 C871 1.388 . S
C873 C874 1.366 . S
C874 C873 1.366 . S
C874 C875 1.414 . S
C874 C877 1.499 . S
C875 H849 0.950 . S
C875 C874 1.414 . S
C875 C876 1.374 . S
C876 H850 0.925 1_655 S
C876 C872 1.385 . S
C876 C875 1.374 . S
C877 C874 1.499 . S
C877 C878 1.373 . S
C877 C879 1.389 . S
C878 H851 0.950 1_655 S
C878 C864 1.377 . S
C878 C877 1.373 . S
C879 C863 1.377 . S
C879 C877 1.389 . S
C879 C880 1.524 . S
C880 C879 1.524 . S
C880 C881 1.397 . S
C880 C885 1.363 . S
C881 H852 0.950 . S
C881 C880 1.397 . S
C881 C882 1.334 . S
C882 H853 0.950 . S
C882 C881 1.334 . S
C882 C883 1.287 . S
C883 C882 1.287 . S
C883 C884 1.524 . S
C883 H886 0.999 . S
C884 H854 0.950 . S
C884 C883 1.524 . S
C884 C885 1.415 . S
C885 H855 0.950 . S
C885 C880 1.363 . S
C885 C884 1.415 . S
H886 C883 0.999 . S
H887 C868 0.913 . S
H888 C906 0.951 . S
H889 C908 0.951 . S
H890 C910 0.950 . S
H891 C911 0.950 . S
H892 C913 0.950 . S
H893 C916 0.950 . S
H894 C917 0.950 . S
H895 C919 0.950 . S
H896 C920 0.950 . S
H897 C921 0.951 1_655 S
H898 C923 0.951 . S
H899 C925 0.950 . S
H900 C926 0.950 . S
H901 C928 0.950 . S
H902 C931 0.950 . S
H903 C932 0.950 . S
H904 C934 0.950 . S
H905 C935 0.950 . S
C906 H888 0.951 . S
C906 C907 1.366 . S
C906 C908 1.388 . S
C907 C906 1.366 . S
C907 C911 1.385 . S
C908 H889 0.951 . S
C908 C906 1.388 . S
C908 C909 1.366 . S
C909 C908 1.366 . S
C909 C910 1.414 . S
C909 C912 1.499 . S
C910 H890 0.950 . S
C910 C909 1.414 . S
C910 C911 1.374 . S
C911 H891 0.950 . S
C911 C907 1.385 . S
C911 C910 1.374 . S
C912 C909 1.499 . S
C912 C913 1.373 . S
C912 C914 1.389 . S
C913 H892 0.950 . S
C913 C912 1.373 . S
C913 C929 1.377 . S
C914 C912 1.389 . S
C914 C915 1.524 . S
C914 C928 1.377 . S
C915 C914 1.524 . S
C915 C916 1.397 . S
C915 C920 1.363 . S
C916 H893 0.950 . S
C916 C915 1.397 . S
C916 C917 1.334 1_554 S
C917 H894 0.950 . S
C917 C916 1.334 1_556 S
C917 C918 1.287 . S
C918 C917 1.287 . S
C918 C919 1.524 . S
C918 H937 0.913 . S
C919 H895 0.950 . S
C919 C918 1.524 . S
C919 C920 1.415 1_556 S
C920 H896 0.950 . S
C920 C915 1.363 . S
C920 C919 1.415 1_554 S
C921 H897 0.951 1_455 S
C921 C922 1.366 . S
C921 C923 1.388 . S
C922 C921 1.366 . S
C922 C926 1.385 . S
C923 H898 0.951 . S
C923 C921 1.388 . S
C923 C924 1.366 . S
C924 C923 1.366 . S
C924 C925 1.414 . S
C924 C927 1.499 . S
C925 H899 0.950 . S
C925 C924 1.414 . S
C925 C926 1.374 . S
C926 H900 0.950 . S
C926 C922 1.385 . S
C926 C925 1.374 . S
C927 C924 1.499 . S
C927 C928 1.373 . S
C927 C929 1.389 . S
C928 H901 0.950 . S
C928 C914 1.377 . S
C928 C927 1.373 . S
C929 C913 1.377 . S
C929 C927 1.389 . S
C929 C930 1.524 . S
C930 C929 1.524 . S
C930 C931 1.397 . S
C930 C935 1.363 . S
C931 H902 0.950 . S
C931 C930 1.397 . S
C931 C932 1.334 . S
C932 H903 0.950 . S
C932 C931 1.334 . S
C932 C933 1.287 . S
C933 C932 1.287 . S
C933 C934 1.524 . S
C933 H936 0.999 . S
C934 H904 0.950 . S
C934 C933 1.524 . S
C934 C935 1.415 . S
C935 H905 0.950 . S
C935 C930 1.363 . S
C935 C934 1.415 . S
H936 C933 0.999 . S
H937 C918 0.913 . S
H938 C956 0.951 . S
H939 C958 0.951 . S
H940 C960 0.950 . S
H941 C961 0.950 . S
H942 C963 0.950 . S
H943 C966 0.950 . S
H944 C967 0.950 . S
H945 C969 0.950 . S
H946 C970 0.950 . S
H947 C971 0.951 1_565 S
H948 C973 0.951 . S
H949 C975 0.950 . S
H950 C976 0.950 . S
H951 C978 0.950 . S
H952 C981 0.950 . S
H953 C982 0.950 . S
H954 C984 0.950 . S
H955 C985 0.950 . S
C956 H938 0.951 . S
C956 C957 1.366 . S
C956 C958 1.388 . S
C957 C956 1.366 . S
C957 C961 1.385 . S
C958 H939 0.951 . S
C958 C956 1.388 . S
C958 C959 1.366 . S
C959 C958 1.366 . S
C959 C960 1.414 . S
C959 C962 1.499 . S
C960 H940 0.950 . S
C960 C959 1.414 . S
C960 C961 1.374 . S
C961 H941 0.950 . S
C961 C957 1.385 . S
C961 C960 1.374 . S
C962 C959 1.499 . S
C962 C963 1.373 . S
C962 C964 1.389 . S
C963 H942 0.950 . S
C963 C962 1.373 . S
C963 C979 1.377 . S
C964 C962 1.389 . S
C964 C965 1.524 . S
C964 C978 1.377 . S
C965 C964 1.524 . S
C965 C966 1.397 . S
C965 C970 1.363 . S
C966 H943 0.950 . S
C966 C965 1.397 . S
C966 C967 1.334 1_554 S
C967 H944 0.950 . S
C967 C966 1.334 1_556 S
C967 C968 1.287 . S
C968 C967 1.287 . S
C968 C969 1.524 . S
C968 H987 0.913 . S
C969 H945 0.950 . S
C969 C968 1.524 . S
C969 C970 1.415 1_556 S
C970 H946 0.950 . S
C970 C965 1.363 . S
C970 C969 1.415 1_554 S
C971 H947 0.951 1_545 S
C971 C972 1.366 . S
C971 C973 1.388 . S
C972 C971 1.366 . S
C972 C976 1.385 . S
C973 H948 0.951 . S
C973 C971 1.388 . S
C973 C974 1.366 . S
C974 C973 1.366 . S
C974 C975 1.414 . S
C974 C977 1.499 . S
C975 H949 0.950 . S
C975 C974 1.414 . S
C975 C976 1.374 . S
C976 H950 0.950 . S
C976 C972 1.385 . S
C976 C975 1.374 . S
C977 C974 1.499 . S
C977 C978 1.373 . S
C977 C979 1.389 . S
C978 H951 0.950 . S
C978 C964 1.377 . S
C978 C977 1.373 . S
C979 C963 1.377 . S
C979 C977 1.389 . S
C979 C980 1.524 . S
C980 C979 1.524 . S
C980 C981 1.397 . S
C980 C985 1.363 . S
C981 H952 0.950 . S
C981 C980 1.397 . S
C981 C982 1.334 . S
C982 H953 0.950 . S
C982 C981 1.334 . S
C982 C983 1.287 . S
C983 C982 1.287 . S
C983 C984 1.524 . S
C983 H986 0.999 . S
C984 H954 0.950 . S
C984 C983 1.524 . S
C984 C985 1.415 . S
C985 H955 0.950 . S
C985 C980 1.363 . S
C985 C984 1.415 . S
H986 C983 0.999 . S
H987 C968 0.913 . S
H988 C1006 0.951 1_556 S
H989 C1008 0.951 . S
H990 C1010 0.950 . S
H991 C1011 0.950 . S
H992 C1013 0.950 . S
H993 C1016 0.950 . S
H994 C1017 0.950 . S
H995 C1019 0.950 . S
H996 C1020 0.950 . S
H997 C1021 0.951 . S
H998 C1023 0.951 . S
H999 C1025 0.950 . S
H1000 C1026 0.950 . S
H1001 C1028 0.950 . S
H1002 C1031 0.950 . S
H1003 C1032 0.950 . S
H1004 C1034 0.950 . S
H1005 C1035 0.950 . S
C1006 H988 0.951 1_554 S
C1006 C1007 1.366 . S
C1006 C1008 1.388 . S
C1007 C1006 1.366 . S
C1007 C1011 1.385 . S
C1008 H989 0.951 . S
C1008 C1006 1.388 . S
C1008 C1009 1.366 . S
C1009 C1008 1.366 . S
C1009 C1010 1.414 . S
C1009 C1012 1.499 . S
C1010 H990 0.950 . S
C1010 C1009 1.414 . S
C1010 C1011 1.374 . S
C1011 H991 0.950 . S
C1011 C1007 1.385 . S
C1011 C1010 1.374 . S
C1012 C1009 1.499 . S
C1012 C1013 1.373 . S
C1012 C1014 1.389 . S
C1013 H992 0.950 . S
C1013 C1012 1.373 . S
C1013 C1029 1.377 . S
C1014 C1012 1.389 . S
C1014 C1015 1.524 . S
C1014 C1028 1.377 . S
C1015 C1014 1.524 . S
C1015 C1016 1.397 . S
C1015 C1020 1.363 . S
C1016 H993 0.950 . S
C1016 C1015 1.397 . S
C1016 C1017 1.334 . S
C1017 H994 0.950 . S
C1017 C1016 1.334 . S
C1017 C1018 1.287 . S
C1018 C1017 1.287 . S
C1018 C1019 1.524 1_554 S
C1018 H1037 0.913 1_554 S
C1019 H995 0.950 . S
C1019 C1018 1.524 1_556 S
C1019 C1020 1.415 1_556 S
C1020 H996 0.950 . S
C1020 C1015 1.363 . S
C1020 C1019 1.415 1_554 S
C1021 H997 0.951 . S
C1021 C1022 1.366 . S
C1021 C1023 1.388 . S
C1022 C1021 1.366 . S
C1022 C1026 1.385 . S
C1023 H998 0.951 . S
C1023 C1021 1.388 . S
C1023 C1024 1.366 . S
C1024 C1023 1.366 . S
C1024 C1025 1.414 . S
C1024 C1027 1.499 . S
C1025 H999 0.950 . S
C1025 C1024 1.414 . S
C1025 C1026 1.374 . S
C1026 H1000 0.950 . S
C1026 C1022 1.385 . S
C1026 C1025 1.374 . S
C1027 C1024 1.499 . S
C1027 C1028 1.373 . S
C1027 C1029 1.389 . S
C1028 H1001 0.950 . S
C1028 C1014 1.377 . S
C1028 C1027 1.373 . S
C1029 C1013 1.377 . S
C1029 C1027 1.389 . S
C1029 C1030 1.524 . S
C1030 C1029 1.524 . S
C1030 C1031 1.397 . S
C1030 C1035 1.363 . S
C1031 H1002 0.950 . S
C1031 C1030 1.397 . S
C1031 C1032 1.334 . S
C1032 H1003 0.950 . S
C1032 C1031 1.334 . S
C1032 C1033 1.287 . S
C1033 C1032 1.287 . S
C1033 C1034 1.524 . S
C1033 H1036 0.999 . S
C1034 H1004 0.950 . S
C1034 C1033 1.524 . S
C1034 C1035 1.415 . S
C1035 H1005 0.950 . S
C1035 C1030 1.363 . S
C1035 C1034 1.415 . S
H1036 C1033 0.999 . S
H1037 C1018 0.913 1_556 S
H1038 C1056 0.951 . S
H1039 C1058 0.951 . S
H1040 C1060 0.950 . S
H1041 C1061 0.950 . S
H1042 C1063 0.950 . S
H1043 C1066 0.950 . S
H1044 C1067 0.950 . S
H1045 C1069 0.950 . S
H1046 C1070 0.950 . S
H1047 C1071 0.951 . S
H1048 C1073 0.951 . S
H1049 C1075 0.950 . S
H1050 C1076 0.950 . S
H1051 C1078 0.950 . S
H1052 C1081 0.950 . S
H1053 C1082 0.950 . S
H1054 C1084 0.950 . S
H1055 C1085 0.950 . S
C1056 H1038 0.951 . S
C1056 C1057 1.366 . S
C1056 C1058 1.388 . S
C1057 C1056 1.366 . S
C1057 C1061 1.385 . S
C1058 H1039 0.951 . S
C1058 C1056 1.388 . S
C1058 C1059 1.366 . S
C1059 C1058 1.366 . S
C1059 C1060 1.414 . S
C1059 C1062 1.499 . S
C1060 H1040 0.950 . S
C1060 C1059 1.414 . S
C1060 C1061 1.374 . S
C1061 H1041 0.950 . S
C1061 C1057 1.385 . S
C1061 C1060 1.374 . S
C1062 C1059 1.499 . S
C1062 C1063 1.373 . S
C1062 C1064 1.389 . S
C1063 H1042 0.950 . S
C1063 C1062 1.373 . S
C1063 C1079 1.377 . S
C1064 C1062 1.389 . S
C1064 C1065 1.524 . S
C1064 C1078 1.377 . S
C1065 C1064 1.524 . S
C1065 C1066 1.397 . S
C1065 C1070 1.363 . S
C1066 H1043 0.950 . S
C1066 C1065 1.397 . S
C1066 C1067 1.334 1_554 S
C1067 H1044 0.950 . S
C1067 C1066 1.334 1_556 S
C1067 C1068 1.287 . S
C1068 C1067 1.287 . S
C1068 C1069 1.524 1_556 S
C1068 H1087 0.913 . S
C1069 H1045 0.950 . S
C1069 C1068 1.524 1_554 S
C1069 C1070 1.415 . S
C1070 H1046 0.950 . S
C1070 C1065 1.363 . S
C1070 C1069 1.415 . S
C1071 H1047 0.951 . S
C1071 C1072 1.366 . S
C1071 C1073 1.388 . S
C1072 C1071 1.366 . S
C1072 C1076 1.385 . S
C1073 H1048 0.951 . S
C1073 C1071 1.388 . S
C1073 C1074 1.366 . S
C1074 C1073 1.366 . S
C1074 C1075 1.414 . S
C1074 C1077 1.499 . S
C1075 H1049 0.950 . S
C1075 C1074 1.414 . S
C1075 C1076 1.374 . S
C1076 H1050 0.950 . S
C1076 C1072 1.385 . S
C1076 C1075 1.374 . S
C1077 C1074 1.499 . S
C1077 C1078 1.373 . S
C1077 C1079 1.389 . S
C1078 H1051 0.950 . S
C1078 C1064 1.377 . S
C1078 C1077 1.373 . S
C1079 C1063 1.377 . S
C1079 C1077 1.389 . S
C1079 C1080 1.524 . S
C1080 C1079 1.524 . S
C1080 C1081 1.397 . S
C1080 C1085 1.363 . S
C1081 H1052 0.950 . S
C1081 C1080 1.397 . S
C1081 C1082 1.334 . S
C1082 H1053 0.950 . S
C1082 C1081 1.334 . S
C1082 C1083 1.287 . S
C1083 C1082 1.287 . S
C1083 C1084 1.524 . S
C1083 H1086 0.999 . S
C1084 H1054 0.950 . S
C1084 C1083 1.524 . S
C1084 C1085 1.415 . S
C1085 H1055 0.950 . S
C1085 C1080 1.363 . S
C1085 C1084 1.415 . S
H1086 C1083 0.999 . S
H1087 C1068 0.913 . S
H1088 C1106 0.951 . S
H1089 C1108 0.951 1_556 S
H1090 C1110 0.950 . S
H1091 C1111 0.950 . S
H1092 C1113 0.950 . S
H1093 C1116 0.950 . S
H1094 C1117 0.950 . S
H1095 C1119 0.950 . S
H1096 C1120 0.950 . S
H1097 C1121 0.951 . S
H1098 C1123 0.951 1_554 S
H1099 C1125 0.950 . S
H1100 C1126 0.950 . S
H1101 C1128 0.950 1_455 S
H1102 C1131 0.950 . S
H1103 C1132 0.950 . S
H1104 C1134 0.950 . S
H1105 C1135 0.950 . S
C1106 H1088 0.951 . S
C1106 C1107 1.366 . S
C1106 C1108 1.388 . S
C1107 C1106 1.366 . S
C1107 C1111 1.385 . S
C1108 H1089 0.951 1_554 S
C1108 C1106 1.388 . S
C1108 C1109 1.366 . S
C1109 C1108 1.366 . S
C1109 C1110 1.414 . S
C1109 C1112 1.499 . S
C1110 H1090 0.950 . S
C1110 C1109 1.414 . S
C1110 C1111 1.374 . S
C1111 H1091 0.950 . S
C1111 C1107 1.385 . S
C1111 C1110 1.374 . S
C1112 C1109 1.499 . S
C1112 C1113 1.373 . S
C1112 C1114 1.389 . S
C1113 H1092 0.950 . S
C1113 C1112 1.373 . S
C1113 C1129 1.377 . S
C1114 C1112 1.389 . S
C1114 C1115 1.524 1_655 S
C1114 C1128 1.377 1_554 S
C1115 C1114 1.524 1_455 S
C1115 C1116 1.397 . S
C1115 C1120 1.363 1_554 S
C1116 H1093 0.950 . S
C1116 C1115 1.397 . S
C1116 C1117 1.334 . S
C1117 H1094 0.950 . S
C1117 C1116 1.334 . S
C1117 C1118 1.287 . S
C1118 C1117 1.287 . S
C1118 C1119 1.524 1_554 S
C1118 H1137 0.913 . S
C1119 H1095 0.950 . S
C1119 C1118 1.524 1_556 S
C1119 C1120 1.415 . S
C1120 H1096 0.950 . S
C1120 C1115 1.363 1_556 S
C1120 C1119 1.415 . S
C1121 H1097 0.951 . S
C1121 C1122 1.366 1_655 S
C1121 C1123 1.388 . S
C1122 C1121 1.366 1_455 S
C1122 C1126 1.385 . S
C1123 H1098 0.951 1_556 S
C1123 C1121 1.388 . S
C1123 C1124 1.366 . S
C1124 C1123 1.366 . S
C1124 C1125 1.414 . S
C1124 C1127 1.499 . S
C1125 H1099 0.950 . S
C1125 C1124 1.414 . S
C1125 C1126 1.374 1_655 S
C1126 H1100 0.950 . S
C1126 C1122 1.385 . S
C1126 C1125 1.374 1_455 S
C1127 C1124 1.499 . S
C1127 C1128 1.373 . S
C1127 C1129 1.389 1_556 S
C1128 H1101 0.950 1_655 S
C1128 C1114 1.377 1_556 S
C1128 C1127 1.373 . S
C1129 C1113 1.377 . S
C1129 C1127 1.389 1_554 S
C1129 C1130 1.524 1_554 S
C1130 C1129 1.524 1_556 S
C1130 C1131 1.403 . S
C1130 C1135 1.357 1_556 S
C1131 H1102 0.950 . S
C1131 C1130 1.403 . S
C1131 C1132 1.334 . S
C1132 H1103 0.950 . S
C1132 C1131 1.334 . S
C1132 C1133 1.287 . S
C1133 C1132 1.287 . S
C1133 C1134 1.524 1_556 S
C1133 H1136 0.999 . S
C1134 H1104 0.950 . S
C1134 C1133 1.524 1_554 S
C1134 C1135 1.415 . S
C1135 H1105 0.950 . S
C1135 C1130 1.357 1_554 S
C1135 C1134 1.415 . S
H1136 C1133 0.999 . S
H1137 C1118 0.913 . S
H1138 C1156 0.951 . S
H1139 C1158 0.951 . S
H1140 C1160 0.950 . S
H1141 C1161 0.950 . S
H1142 C1163 0.950 . S
H1143 C1166 0.950 . S
H1144 C1167 0.950 . S
H1145 C1169 0.950 . S
H1146 C1170 0.950 . S
H1147 C1171 0.951 . S
H1148 C1173 0.951 1_554 S
H1149 C1175 0.950 . S
H1150 C1176 0.950 . S
H1151 C1178 0.935 1_545 S
H1152 C1181 0.950 . S
H1153 C1182 0.950 . S
H1154 C1184 0.950 . S
H1155 C1185 0.950 . S
C1156 H1138 0.951 . S
C1156 C1157 1.366 . S
C1156 C1158 1.388 . S
C1157 C1156 1.366 . S
C1157 C1161 1.385 . S
C1158 H1139 0.951 . S
C1158 C1156 1.388 . S
C1158 C1159 1.366 . S
C1159 C1158 1.366 . S
C1159 C1160 1.414 . S
C1159 C1162 1.499 . S
C1160 H1140 0.950 . S
C1160 C1159 1.414 . S
C1160 C1161 1.374 . S
C1161 H1141 0.950 . S
C1161 C1157 1.385 . S
C1161 C1160 1.374 . S
C1162 C1159 1.499 . S
C1162 C1163 1.373 . S
C1162 C1164 1.389 . S
C1163 H1142 0.950 . S
C1163 C1162 1.373 . S
C1163 C1179 1.377 1_554 S
C1164 C1162 1.389 . S
C1164 C1165 1.524 1_565 S
C1164 C1178 1.381 1_554 S
C1165 C1164 1.524 1_545 S
C1165 C1166 1.397 . S
C1165 C1170 1.363 1_554 S
C1166 H1143 0.950 . S
C1166 C1165 1.397 . S
C1166 C1167 1.334 . S
C1167 H1144 0.950 . S
C1167 C1166 1.334 . S
C1167 C1168 1.287 . S
C1168 C1167 1.287 . S
C1168 C1169 1.524 1_554 S
C1168 H1187 0.913 . S
C1169 H1145 0.950 . S
C1169 C1168 1.524 1_556 S
C1169 C1170 1.415 . S
C1170 H1146 0.950 . S
C1170 C1165 1.363 1_556 S
C1170 C1169 1.415 . S
C1171 H1147 0.951 . S
C1171 C1172 1.366 1_565 S
C1171 C1173 1.388 . S
C1172 C1171 1.366 1_545 S
C1172 C1176 1.385 . S
C1173 H1148 0.951 1_556 S
C1173 C1171 1.388 . S
C1173 C1174 1.366 . S
C1174 C1173 1.366 . S
C1174 C1175 1.414 1_565 S
C1174 C1177 1.499 . S
C1175 H1149 0.950 . S
C1175 C1174 1.414 1_545 S
C1175 C1176 1.374 . S
C1176 H1150 0.950 . S
C1176 C1172 1.385 . S
C1176 C1175 1.374 . S
C1177 C1174 1.499 . S
C1177 C1178 1.384 . S
C1177 C1179 1.389 . S
C1178 H1151 0.935 1_565 S
C1178 C1164 1.381 1_556 S
C1178 C1177 1.384 . S
C1179 C1163 1.377 1_556 S
C1179 C1177 1.389 . S
C1179 C1180 1.524 . S
C1180 C1179 1.524 . S
C1180 C1181 1.397 . S
C1180 C1185 1.363 1_556 S
C1181 H1152 0.950 . S
C1181 C1180 1.397 . S
C1181 C1182 1.334 . S
C1182 H1153 0.950 . S
C1182 C1181 1.334 . S
C1182 C1183 1.287 . S
C1183 C1182 1.287 . S
C1183 C1184 1.524 1_556 S
C1183 H1186 0.999 . S
C1184 H1154 0.950 . S
C1184 C1183 1.524 1_554 S
C1184 C1185 1.415 . S
C1185 H1155 0.950 . S
C1185 C1180 1.363 1_554 S
C1185 C1184 1.415 . S
H1186 C1183 0.999 . S
H1187 C1168 0.913 . S
H1188 C1206 0.951 . S
H1189 C1208 0.951 . S
H1190 C1210 0.950 1_556 S
H1191 C1211 0.950 . S
H1192 C1213 0.950 . S
H1193 C1216 0.950 . S
H1194 C1217 0.950 . S
H1195 C1219 0.950 . S
H1196 C1220 0.950 . S
H1197 C1221 0.951 . S
H1198 C1223 0.951 . S
H1199 C1225 0.950 1_554 S
H1200 C1226 0.950 . S
H1201 C1228 0.950 . S
H1202 C1231 0.950 . S
H1203 C1232 0.950 . S
H1204 C1234 0.950 . S
H1205 C1235 0.950 . S
C1206 H1188 0.951 . S
C1206 C1207 1.366 . S
C1206 C1208 1.388 . S
C1207 C1206 1.366 . S
C1207 C1211 1.385 . S
C1208 H1189 0.951 . S
C1208 C1206 1.388 . S
C1208 C1209 1.366 . S
C1209 C1208 1.366 . S
C1209 C1210 1.414 . S
C1209 C1212 1.499 . S
C1210 H1190 0.950 1_554 S
C1210 C1209 1.414 . S
C1210 C1211 1.374 . S
C1211 H1191 0.950 . S
C1211 C1207 1.385 . S
C1211 C1210 1.374 . S
C1212 C1209 1.499 . S
C1212 C1213 1.373 1_554 S
C1212 C1214 1.389 . S
C1213 H1192 0.950 . S
C1213 C1212 1.373 1_556 S
C1213 C1229 1.377 . S
C1214 C1212 1.389 . S
C1214 C1215 1.524 . S
C1214 C1228 1.377 . S
C1215 C1214 1.524 . S
C1215 C1216 1.397 . S
C1215 C1220 1.363 . S
C1216 H1193 0.950 . S
C1216 C1215 1.397 . S
C1216 C1217 1.334 . S
C1217 H1194 0.950 . S
C1217 C1216 1.334 . S
C1217 C1218 1.287 . S
C1218 C1217 1.287 . S
C1218 C1219 1.524 . S
C1218 H1237 0.913 . S
C1219 H1195 0.950 . S
C1219 C1218 1.524 . S
C1219 C1220 1.415 . S
C1220 H1196 0.950 . S
C1220 C1215 1.363 . S
C1220 C1219 1.415 . S
C1221 H1197 0.951 . S
C1221 C1222 1.366 . S
C1221 C1223 1.388 . S
C1222 C1221 1.366 . S
C1222 C1226 1.385 . S
C1223 H1198 0.951 . S
C1223 C1221 1.388 . S
C1223 C1224 1.366 . S
C1224 C1223 1.366 . S
C1224 C1225 1.414 . S
C1224 C1227 1.499 . S
C1225 H1199 0.950 1_556 S
C1225 C1224 1.414 . S
C1225 C1226 1.374 . S
C1226 H1200 0.950 . S
C1226 C1222 1.385 . S
C1226 C1225 1.374 . S
C1227 C1224 1.499 . S
C1227 C1228 1.373 1_556 S
C1227 C1229 1.389 . S
C1228 H1201 0.950 . S
C1228 C1214 1.377 . S
C1228 C1227 1.373 1_554 S
C1229 C1213 1.377 . S
C1229 C1227 1.389 . S
C1229 C1230 1.524 . S
C1230 C1229 1.524 . S
C1230 C1231 1.397 . S
C1230 C1235 1.363 . S
C1231 H1202 0.950 . S
C1231 C1230 1.397 . S
C1231 C1232 1.334 . S
C1232 H1203 0.950 . S
C1232 C1231 1.334 . S
C1232 C1233 1.287 . S
C1233 C1232 1.287 . S
C1233 C1234 1.524 . S
C1233 H1236 0.999 . S
C1234 H1204 0.950 . S
C1234 C1233 1.524 . S
C1234 C1235 1.415 . S
C1235 H1205 0.950 . S
C1235 C1230 1.363 . S
C1235 C1234 1.415 . S
H1236 C1233 0.999 . S
H1237 C1218 0.913 . S
H1238 C1256 0.951 . S
H1239 C1258 0.951 . S
H1240 C1260 0.950 . S
H1241 C1261 0.950 . S
H1242 C1263 0.950 . S
H1243 C1266 0.950 . S
H1244 C1267 0.950 . S
H1245 C1269 0.950 . S
H1246 C1270 0.950 . S
H1247 C1271 0.951 . S
H1248 C1273 0.951 . S
H1249 C1275 0.950 . S
H1250 C1276 0.950 . S
H1251 C1278 0.950 . S
H1252 C1281 0.950 . S
H1253 C1282 0.950 . S
H1254 C1284 0.950 . S
H1255 C1285 0.950 . S
C1256 H1238 0.951 . S
C1256 C1257 1.366 . S
C1256 C1258 1.388 . S
C1257 C1256 1.366 . S
C1257 C1261 1.385 . S
C1258 H1239 0.951 . S
C1258 C1256 1.388 . S
C1258 C1259 1.366 . S
C1259 C1258 1.366 . S
C1259 C1260 1.414 . S
C1259 C1262 1.499 . S
C1260 H1240 0.950 . S
C1260 C1259 1.414 . S
C1260 C1261 1.374 . S
C1261 H1241 0.950 . S
C1261 C1257 1.385 . S
C1261 C1260 1.374 . S
C1262 C1259 1.499 . S
C1262 C1263 1.373 . S
C1262 C1264 1.389 1_554 S
C1263 H1242 0.950 . S
C1263 C1262 1.373 . S
C1263 C1279 1.377 . S
C1264 C1262 1.389 1_556 S
C1264 C1265 1.524 . S
C1264 C1278 1.377 . S
C1265 C1264 1.524 . S
C1265 C1266 1.397 . S
C1265 C1270 1.363 . S
C1266 H1243 0.950 . S
C1266 C1265 1.397 . S
C1266 C1267 1.334 . S
C1267 H1244 0.950 . S
C1267 C1266 1.334 . S
C1267 C1268 1.287 . S
C1268 C1267 1.287 . S
C1268 C1269 1.524 . S
C1268 H1287 0.913 . S
C1269 H1245 0.950 . S
C1269 C1268 1.524 . S
C1269 C1270 1.415 . S
C1270 H1246 0.950 . S
C1270 C1265 1.363 . S
C1270 C1269 1.415 . S
C1271 H1247 0.951 . S
C1271 C1272 1.366 . S
C1271 C1273 1.388 . S
C1272 C1271 1.366 . S
C1272 C1276 1.385 . S
C1273 H1248 0.951 . S
C1273 C1271 1.388 . S
C1273 C1274 1.366 . S
C1274 C1273 1.366 . S
C1274 C1275 1.414 . S
C1274 C1277 1.499 . S
C1275 H1249 0.950 . S
C1275 C1274 1.414 . S
C1275 C1276 1.374 . S
C1276 H1250 0.950 . S
C1276 C1272 1.385 . S
C1276 C1275 1.374 . S
C1277 C1274 1.499 . S
C1277 C1278 1.373 . S
C1277 C1279 1.389 1_556 S
C1278 H1251 0.950 . S
C1278 C1264 1.377 . S
C1278 C1277 1.373 . S
C1279 C1263 1.377 . S
C1279 C1277 1.389 1_554 S
C1279 C1280 1.524 . S
C1280 C1279 1.524 . S
C1280 C1281 1.397 . S
C1280 C1285 1.363 . S
C1281 H1252 0.950 . S
C1281 C1280 1.397 . S
C1281 C1282 1.334 . S
C1282 H1253 0.950 . S
C1282 C1281 1.334 . S
C1282 C1283 1.287 . S
C1283 C1282 1.287 . S
C1283 C1284 1.524 . S
C1283 H1286 0.999 . S
C1284 H1254 0.950 . S
C1284 C1283 1.524 . S
C1284 C1285 1.415 . S
C1285 H1255 0.950 . S
C1285 C1280 1.363 . S
C1285 C1284 1.415 . S
H1286 C1283 0.999 . S
H1287 C1268 0.913 . S
H1288 C1306 0.951 . S
H1289 C1308 0.951 . S
H1290 C1310 0.950 . S
H1291 C1311 0.950 . S
H1292 C1313 0.950 . S
H1293 C1316 0.950 . S
H1294 C1317 0.950 . S
H1295 C1319 0.950 . S
H1296 C1320 0.950 . S
H1297 C1321 0.951 . S
H1298 C1323 0.951 . S
H1299 C1325 0.950 . S
H1300 C1326 0.950 . S
H1301 C1328 0.950 . S
H1302 C1331 0.950 . S
H1303 C1332 0.927 1_655 S
H1304 C1334 0.950 . S
H1305 C1335 0.950 . S
C1306 H1288 0.951 . S
C1306 C1307 1.366 . S
C1306 C1308 1.388 . S
C1307 C1306 1.366 . S
C1307 C1311 1.385 . S
C1308 H1289 0.951 . S
C1308 C1306 1.388 . S
C1308 C1309 1.366 . S
C1309 C1308 1.366 . S
C1309 C1310 1.414 . S
C1309 C1312 1.499 . S
C1310 H1290 0.950 . S
C1310 C1309 1.414 . S
C1310 C1311 1.374 . S
C1311 H1291 0.950 . S
C1311 C1307 1.385 . S
C1311 C1310 1.374 . S
C1312 C1309 1.499 . S
C1312 C1313 1.373 . S
C1312 C1314 1.389 . S
C1313 H1292 0.950 . S
C1313 C1312 1.373 . S
C1313 C1329 1.377 . S
C1314 C1312 1.389 . S
C1314 C1315 1.524 . S
C1314 C1328 1.377 . S
C1315 C1314 1.524 . S
C1315 C1316 1.397 . S
C1315 C1320 1.363 . S
C1316 H1293 0.950 . S
C1316 C1315 1.397 . S
C1316 C1317 1.334 1_556 S
C1317 H1294 0.950 . S
C1317 C1316 1.334 1_554 S
C1317 C1318 1.287 . S
C1318 C1317 1.287 . S
C1318 C1319 1.524 . S
C1318 H1337 0.913 . S
C1319 H1295 0.950 . S
C1319 C1318 1.524 . S
C1319 C1320 1.415 1_554 S
C1320 H1296 0.950 . S
C1320 C1315 1.363 . S
C1320 C1319 1.415 1_556 S
C1321 H1297 0.951 . S
C1321 C1322 1.366 . S
C1321 C1323 1.388 . S
C1322 C1321 1.366 . S
C1322 C1326 1.385 . S
C1323 H1298 0.951 . S
C1323 C1321 1.388 . S
C1323 C1324 1.366 . S
C1324 C1323 1.366 . S
C1324 C1325 1.414 . S
C1324 C1327 1.499 . S
C1325 H1299 0.950 . S
C1325 C1324 1.414 . S
C1325 C1326 1.374 . S
C1326 H1300 0.950 . S
C1326 C1322 1.385 . S
C1326 C1325 1.374 . S
C1327 C1324 1.499 . S
C1327 C1328 1.373 . S
C1327 C1329 1.389 . S
C1328 H1301 0.950 . S
C1328 C1314 1.377 . S
C1328 C1327 1.373 . S
C1329 C1313 1.377 . S
C1329 C1327 1.389 . S
C1329 C1330 1.524 . S
C1330 C1329 1.524 . S
C1330 C1331 1.397 . S
C1330 C1335 1.363 . S
C1331 H1302 0.950 . S
C1331 C1330 1.397 . S
C1331 C1332 1.334 . S
C1332 H1303 0.927 1_455 S
C1332 C1331 1.334 . S
C1332 C1333 1.287 . S
C1333 C1332 1.287 . S
C1333 C1334 1.524 . S
C1333 H1336 0.999 . S
C1334 H1304 0.950 . S
C1334 C1333 1.524 . S
C1334 C1335 1.415 . S
C1335 H1305 0.950 . S
C1335 C1330 1.363 . S
C1335 C1334 1.415 . S
H1336 C1333 0.999 . S
H1337 C1318 0.913 . S
H1338 C1356 0.951 . S
H1339 C1358 0.951 . S
H1340 C1360 0.950 . S
H1341 C1361 0.950 . S
H1342 C1363 0.950 . S
H1343 C1366 0.950 . S
H1344 C1367 0.950 . S
H1345 C1369 0.950 . S
H1346 C1370 0.950 . S
H1347 C1371 0.951 . S
H1348 C1373 0.951 . S
H1349 C1375 0.950 . S
H1350 C1376 0.950 . S
H1351 C1378 0.950 . S
H1352 C1381 0.950 . S
H1353 C1382 0.950 . S
H1354 C1384 0.950 . S
H1355 C1385 0.950 . S
C1356 H1338 0.951 . S
C1356 C1357 1.366 . S
C1356 C1358 1.388 . S
C1357 C1356 1.366 . S
C1357 C1361 1.385 . S
C1358 H1339 0.951 . S
C1358 C1356 1.388 . S
C1358 C1359 1.366 . S
C1359 C1358 1.366 . S
C1359 C1360 1.414 . S
C1359 C1362 1.499 . S
C1360 H1340 0.950 . S
C1360 C1359 1.414 . S
C1360 C1361 1.374 . S
C1361 H1341 0.950 . S
C1361 C1357 1.385 . S
C1361 C1360 1.374 . S
C1362 C1359 1.499 . S
C1362 C1363 1.373 . S
C1362 C1364 1.389 . S
C1363 H1342 0.950 . S
C1363 C1362 1.373 . S
C1363 C1379 1.377 . S
C1364 C1362 1.389 . S
C1364 C1365 1.524 . S
C1364 C1378 1.377 . S
C1365 C1364 1.524 . S
C1365 C1366 1.397 . S
C1365 C1370 1.363 . S
C1366 H1343 0.950 . S
C1366 C1365 1.397 . S
C1366 C1367 1.334 . S
C1367 H1344 0.950 . S
C1367 C1366 1.334 . S
C1367 C1368 1.287 . S
C1368 C1367 1.287 . S
C1368 C1369 1.524 . S
C1368 H1387 0.913 . S
C1369 H1345 0.950 . S
C1369 C1368 1.524 . S
C1369 C1370 1.415 . S
C1370 H1346 0.950 . S
C1370 C1365 1.363 . S
C1370 C1369 1.415 . S
C1371 H1347 0.951 . S
C1371 C1372 1.366 . S
C1371 C1373 1.388 . S
C1372 C1371 1.366 . S
C1372 C1376 1.385 . S
C1373 H1348 0.951 . S
C1373 C1371 1.388 . S
C1373 C1374 1.366 . S
C1374 C1373 1.366 . S
C1374 C1375 1.414 . S
C1374 C1377 1.499 . S
C1375 H1349 0.950 . S
C1375 C1374 1.414 . S
C1375 C1376 1.374 . S
C1376 H1350 0.950 . S
C1376 C1372 1.385 . S
C1376 C1375 1.374 . S
C1377 C1374 1.499 . S
C1377 C1378 1.373 . S
C1377 C1379 1.389 . S
C1378 H1351 0.950 . S
C1378 C1364 1.377 . S
C1378 C1377 1.373 . S
C1379 C1363 1.377 . S
C1379 C1377 1.389 . S
C1379 C1380 1.524 . S
C1380 C1379 1.524 . S
C1380 C1381 1.397 1_545 S
C1380 C1385 1.363 . S
C1381 H1352 0.950 . S
C1381 C1380 1.397 1_565 S
C1381 C1382 1.334 . S
C1382 H1353 0.950 . S
C1382 C1381 1.334 . S
C1382 C1383 1.287 . S
C1383 C1382 1.287 . S
C1383 C1384 1.524 . S
C1383 H1386 0.999 . S
C1384 H1354 0.950 . S
C1384 C1383 1.524 . S
C1384 C1385 1.415 1_565 S
C1385 H1355 0.950 . S
C1385 C1380 1.363 . S
C1385 C1384 1.415 1_545 S
H1386 C1383 0.999 . S
H1387 C1368 0.913 . S
H1388 C1406 0.951 . S
H1389 C1408 0.951 . S
H1390 C1410 0.950 . S
H1391 C1411 0.950 . S
H1392 C1413 0.950 . S
H1393 C1416 0.950 . S
H1394 C1417 0.950 . S
H1395 C1419 0.950 . S
H1396 C1420 0.950 . S
H1397 C1421 0.951 . S
H1398 C1423 0.951 . S
H1399 C1425 0.950 . S
H1400 C1426 0.950 . S
H1401 C1428 0.950 . S
H1402 C1431 0.950 . S
H1403 C1432 0.950 . S
H1404 C1434 0.950 . S
H1405 C1435 0.950 . S
C1406 H1388 0.951 . S
C1406 C1407 1.366 . S
C1406 C1408 1.388 . S
C1407 C1406 1.366 . S
C1407 C1411 1.385 . S
C1408 H1389 0.951 . S
C1408 C1406 1.388 . S
C1408 C1409 1.366 . S
C1409 C1408 1.366 . S
C1409 C1410 1.414 . S
C1409 C1412 1.499 . S
C1410 H1390 0.950 . S
C1410 C1409 1.414 . S
C1410 C1411 1.374 . S
C1411 H1391 0.950 . S
C1411 C1407 1.385 . S
C1411 C1410 1.374 . S
C1412 C1409 1.499 . S
C1412 C1413 1.373 . S
C1412 C1414 1.389 . S
C1413 H1392 0.950 . S
C1413 C1412 1.373 . S
C1413 C1429 1.377 . S
C1414 C1412 1.389 . S
C1414 C1415 1.524 . S
C1414 C1428 1.377 . S
C1415 C1414 1.524 . S
C1415 C1416 1.397 . S
C1415 C1420 1.363 . S
C1416 H1393 0.950 . S
C1416 C1415 1.397 . S
C1416 C1417 1.334 . S
C1417 H1394 0.950 . S
C1417 C1416 1.334 . S
C1417 C1418 1.287 . S
C1418 C1417 1.287 . S
C1418 C1419 1.524 . S
C1418 H1437 0.913 . S
C1419 H1395 0.950 . S
C1419 C1418 1.524 . S
C1419 C1420 1.415 . S
C1420 H1396 0.950 . S
C1420 C1415 1.363 . S
C1420 C1419 1.415 . S
C1421 H1397 0.951 . S
C1421 C1422 1.366 . S
C1421 C1423 1.388 . S
C1422 C1421 1.366 . S
C1422 C1426 1.385 . S
C1423 H1398 0.951 . S
C1423 C1421 1.388 . S
C1423 C1424 1.366 . S
C1424 C1423 1.366 . S
C1424 C1425 1.414 . S
C1424 C1427 1.499 . S
C1425 H1399 0.950 . S
C1425 C1424 1.414 . S
C1425 C1426 1.374 . S
C1426 H1400 0.950 . S
C1426 C1422 1.385 . S
C1426 C1425 1.374 . S
C1427 C1424 1.499 . S
C1427 C1428 1.373 . S
C1427 C1429 1.389 . S
C1428 H1401 0.950 . S
C1428 C1414 1.377 . S
C1428 C1427 1.373 . S
C1429 C1413 1.377 . S
C1429 C1427 1.389 . S
C1429 C1430 1.524 . S
C1430 C1429 1.524 . S
C1430 C1431 1.397 . S
C1430 C1435 1.363 . S
C1431 H1402 0.950 . S
C1431 C1430 1.397 . S
C1431 C1432 1.334 . S
C1432 H1403 0.950 . S
C1432 C1431 1.334 . S
C1432 C1433 1.287 . S
C1433 C1432 1.287 . S
C1433 C1434 1.524 . S
C1433 H1436 0.999 . S
C1434 H1404 0.950 . S
C1434 C1433 1.524 . S
C1434 C1435 1.415 . S
C1435 H1405 0.950 . S
C1435 C1430 1.363 . S
C1435 C1434 1.415 . S
H1436 C1433 0.999 . S
H1437 C1418 0.913 . S
H1438 C1456 0.951 . S
H1439 C1458 0.951 . S
H1440 C1460 0.950 . S
H1441 C1461 0.950 . S
H1442 C1463 0.950 . S
H1443 C1466 0.950 . S
H1444 C1467 0.950 . S
H1445 C1469 0.950 . S
H1446 C1470 0.950 . S
H1447 C1471 0.951 . S
H1448 C1473 0.951 . S
H1449 C1475 0.950 . S
H1450 C1476 0.950 . S
H1451 C1478 0.950 . S
H1452 C1481 0.950 . S
H1453 C1482 0.950 . S
H1454 C1484 0.950 . S
H1455 C1485 0.950 . S
C1456 H1438 0.951 . S
C1456 C1457 1.366 . S
C1456 C1458 1.388 . S
C1457 C1456 1.366 . S
C1457 C1461 1.385 . S
C1458 H1439 0.951 . S
C1458 C1456 1.388 . S
C1458 C1459 1.366 . S
C1459 C1458 1.366 . S
C1459 C1460 1.414 . S
C1459 C1462 1.499 . S
C1460 H1440 0.950 . S
C1460 C1459 1.414 . S
C1460 C1461 1.374 . S
C1461 H1441 0.950 . S
C1461 C1457 1.385 . S
C1461 C1460 1.374 . S
C1462 C1459 1.499 . S
C1462 C1463 1.373 . S
C1462 C1464 1.389 . S
C1463 H1442 0.950 . S
C1463 C1462 1.373 . S
C1463 C1479 1.377 . S
C1464 C1462 1.389 . S
C1464 C1465 1.524 . S
C1464 C1478 1.377 . S
C1465 C1464 1.524 . S
C1465 C1466 1.397 . S
C1465 C1470 1.363 . S
C1466 H1443 0.950 . S
C1466 C1465 1.397 . S
C1466 C1467 1.334 1_556 S
C1467 H1444 0.950 . S
C1467 C1466 1.334 1_554 S
C1467 C1468 1.287 . S
C1468 C1467 1.287 . S
C1468 C1469 1.524 . S
C1468 H1487 0.913 . S
C1469 H1445 0.950 . S
C1469 C1468 1.524 . S
C1469 C1470 1.415 1_554 S
C1470 H1446 0.950 . S
C1470 C1465 1.363 . S
C1470 C1469 1.415 1_556 S
C1471 H1447 0.951 . S
C1471 C1472 1.366 . S
C1471 C1473 1.388 . S
C1472 C1471 1.366 . S
C1472 C1476 1.385 . S
C1473 H1448 0.951 . S
C1473 C1471 1.388 . S
C1473 C1474 1.366 . S
C1474 C1473 1.366 . S
C1474 C1475 1.414 . S
C1474 C1477 1.499 . S
C1475 H1449 0.950 . S
C1475 C1474 1.414 . S
C1475 C1476 1.374 . S
C1476 H1450 0.950 . S
C1476 C1472 1.385 . S
C1476 C1475 1.374 . S
C1477 C1474 1.499 . S
C1477 C1478 1.373 . S
C1477 C1479 1.389 . S
C1478 H1451 0.950 . S
C1478 C1464 1.377 . S
C1478 C1477 1.373 . S
C1479 C1463 1.377 . S
C1479 C1477 1.389 . S
C1479 C1480 1.524 . S
C1480 C1479 1.524 . S
C1480 C1481 1.397 . S
C1480 C1485 1.363 . S
C1481 H1452 0.950 . S
C1481 C1480 1.397 . S
C1481 C1482 1.334 . S
C1482 H1453 0.950 . S
C1482 C1481 1.334 . S
C1482 C1483 1.287 . S
C1483 C1482 1.287 . S
C1483 C1484 1.524 . S
C1483 H1486 0.999 . S
C1484 H1454 0.950 . S
C1484 C1483 1.524 . S
C1484 C1485 1.415 . S
C1485 H1455 0.950 . S
C1485 C1480 1.363 . S
C1485 C1484 1.415 . S
H1486 C1483 0.999 . S
H1487 C1468 0.913 . S
H1488 C1506 0.951 . S
H1489 C1508 0.951 . S
H1490 C1510 0.950 . S
H1491 C1511 0.950 . S
H1492 C1513 0.950 . S
H1493 C1516 0.949 . S
H1494 C1517 0.950 . S
H1495 C1519 0.950 . S
H1496 C1520 0.950 . S
H1497 C1521 0.951 . S
H1498 C1523 0.951 . S
H1499 C1525 0.950 . S
H1500 C1526 0.950 . S
H1501 C1528 0.950 . S
H1502 C1531 0.950 . S
H1503 C1532 0.950 . S
H1504 C1534 0.950 . S
H1505 C1535 0.950 . S
C1506 H1488 0.951 . S
C1506 C1507 1.366 . S
C1506 C1508 1.388 . S
C1507 C1506 1.366 . S
C1507 C1511 1.385 . S
C1508 H1489 0.951 . S
C1508 C1506 1.388 . S
C1508 C1509 1.366 . S
C1509 C1508 1.366 . S
C1509 C1510 1.414 . S
C1509 C1512 1.499 . S
C1510 H1490 0.950 . S
C1510 C1509 1.414 . S
C1510 C1511 1.374 . S
C1511 H1491 0.950 . S
C1511 C1507 1.385 . S
C1511 C1510 1.374 . S
C1512 C1509 1.499 . S
C1512 C1513 1.373 . S
C1512 C1514 1.389 . S
C1513 H1492 0.950 . S
C1513 C1512 1.373 . S
C1513 C1529 1.377 . S
C1514 C1512 1.389 . S
C1514 C1515 1.524 . S
C1514 C1528 1.377 . S
C1515 C1514 1.524 . S
C1515 C1516 1.397 . S
C1515 C1520 1.363 . S
C1516 H1493 0.949 . S
C1516 C1515 1.397 . S
C1516 C1517 1.334 1_655 S
C1517 H1494 0.950 . S
C1517 C1516 1.334 1_455 S
C1517 C1518 1.293 . S
C1518 C1517 1.293 . S
C1518 C1519 1.506 1_455 S
C1518 H1537 0.924 . S
C1519 H1495 0.950 . S
C1519 C1518 1.506 1_655 S
C1519 C1520 1.415 . S
C1520 H1496 0.950 . S
C1520 C1515 1.363 . S
C1520 C1519 1.415 . S
C1521 H1497 0.951 . S
C1521 C1522 1.366 . S
C1521 C1523 1.388 . S
C1522 C1521 1.366 . S
C1522 C1526 1.385 . S
C1523 H1498 0.951 . S
C1523 C1521 1.388 . S
C1523 C1524 1.366 . S
C1524 C1523 1.366 . S
C1524 C1525 1.414 . S
C1524 C1527 1.499 . S
C1525 H1499 0.950 . S
C1525 C1524 1.414 . S
C1525 C1526 1.374 . S
C1526 H1500 0.950 . S
C1526 C1522 1.385 . S
C1526 C1525 1.374 . S
C1527 C1524 1.499 . S
C1527 C1528 1.373 . S
C1527 C1529 1.389 . S
C1528 H1501 0.950 . S
C1528 C1514 1.377 . S
C1528 C1527 1.373 . S
C1529 C1513 1.377 . S
C1529 C1527 1.389 . S
C1529 C1530 1.524 . S
C1530 C1529 1.524 . S
C1530 C1531 1.397 . S
C1530 C1535 1.363 . S
C1531 H1502 0.950 . S
C1531 C1530 1.397 . S
C1531 C1532 1.334 . S
C1532 H1503 0.950 . S
C1532 C1531 1.334 . S
C1532 C1533 1.287 . S
C1533 C1532 1.287 . S
C1533 C1534 1.524 . S
C1533 H1536 0.999 . S
C1534 H1504 0.950 . S
C1534 C1533 1.524 . S
C1534 C1535 1.415 . S
C1535 H1505 0.950 . S
C1535 C1530 1.363 . S
C1535 C1534 1.415 . S
H1536 C1533 0.999 . S
H1537 C1518 0.924 . S
H1538 C1556 0.951 . S
H1539 C1558 0.951 . S
H1540 C1560 0.950 . S
H1541 C1561 0.950 . S
H1542 C1563 0.950 . S
H1543 C1566 0.950 1_545 S
H1544 C1567 0.950 . S
H1545 C1569 0.950 . S
H1546 C1570 0.950 . S
H1547 C1571 0.925 1_545 S
H1548 C1573 0.942 1_545 S
H1549 C1575 0.950 . S
H1550 C1576 0.950 . S
H1551 C1578 0.950 . S
H1552 C1581 0.950 . S
H1553 C1582 0.950 . S
H1554 C1584 0.950 . S
H1555 C1585 0.950 . S
C1556 H1538 0.951 . S
C1556 C1557 1.366 . S
C1556 C1558 1.388 . S
C1557 C1556 1.366 . S
C1557 C1561 1.385 . S
C1558 H1539 0.951 . S
C1558 C1556 1.388 . S
C1558 C1559 1.366 . S
C1559 C1558 1.366 . S
C1559 C1560 1.414 . S
C1559 C1562 1.499 . S
C1560 H1540 0.950 . S
C1560 C1559 1.414 . S
C1560 C1561 1.374 . S
C1561 H1541 0.950 . S
C1561 C1557 1.385 . S
C1561 C1560 1.374 . S
C1562 C1559 1.499 . S
C1562 C1563 1.373 . S
C1562 C1564 1.389 . S
C1563 H1542 0.950 . S
C1563 C1562 1.373 . S
C1563 C1579 1.377 . S
C1564 C1562 1.389 . S
C1564 C1565 1.524 . S
C1564 C1578 1.377 . S
C1565 C1564 1.524 . S
C1565 C1566 1.397 . S
C1565 C1570 1.363 . S
C1566 H1543 0.950 1_565 S
C1566 C1565 1.397 . S
C1566 C1567 1.334 1_565 S
C1567 H1544 0.950 . S
C1567 C1566 1.334 1_545 S
C1567 C1568 1.287 1_545 S
C1568 C1567 1.287 1_565 S
C1568 C1569 1.524 . S
C1568 H1587 0.913 1_565 S
C1569 H1545 0.950 . S
C1569 C1568 1.524 . S
C1569 C1570 1.415 . S
C1570 H1546 0.950 . S
C1570 C1565 1.363 . S
C1570 C1569 1.415 . S
C1571 H1547 0.925 1_565 S
C1571 C1572 1.383 . S
C1571 C1573 1.398 . S
C1572 C1571 1.383 . S
C1572 C1576 1.385 . S
C1573 H1548 0.942 1_565 S
C1573 C1571 1.398 . S
C1573 C1574 1.366 . S
C1574 C1573 1.366 . S
C1574 C1575 1.414 . S
C1574 C1577 1.499 . S
C1575 H1549 0.950 . S
C1575 C1574 1.414 . S
C1575 C1576 1.374 . S
C1576 H1550 0.950 . S
C1576 C1572 1.385 . S
C1576 C1575 1.374 . S
C1577 C1574 1.499 . S
C1577 C1578 1.373 . S
C1577 C1579 1.389 . S
C1578 H1551 0.950 . S
C1578 C1564 1.377 . S
C1578 C1577 1.373 . S
C1579 C1563 1.377 . S
C1579 C1577 1.389 . S
C1579 C1580 1.524 . S
C1580 C1579 1.524 . S
C1580 C1581 1.397 . S
C1580 C1585 1.363 . S
C1581 H1552 0.950 . S
C1581 C1580 1.397 . S
C1581 C1582 1.334 . S
C1582 H1553 0.950 . S
C1582 C1581 1.334 . S
C1582 C1583 1.287 . S
C1583 C1582 1.287 . S
C1583 C1584 1.524 . S
C1583 H1586 0.999 . S
C1584 H1554 0.950 . S
C1584 C1583 1.524 . S
C1584 C1585 1.415 . S
C1585 H1555 0.950 . S
C1585 C1580 1.363 . S
C1585 C1584 1.415 . S
H1586 C1583 0.999 . S
H1587 C1568 0.913 1_545 S
H1588 C1606 0.951 . S
H1589 C1608 0.951 . S
H1590 C1610 0.950 . S
H1591 C1611 0.950 . S
H1592 C1613 0.950 . S
H1593 C1616 0.950 . S
H1594 C1617 0.950 . S
H1595 C1619 0.950 . S
H1596 C1620 0.950 . S
H1597 C1621 0.951 . S
H1598 C1623 0.951 . S
H1599 C1625 0.950 . S
H1600 C1626 0.950 . S
H1601 C1628 0.950 . S
H1602 C1631 0.950 . S
H1603 C1632 0.950 . S
H1604 C1634 0.950 . S
H1605 C1635 0.950 . S
C1606 H1588 0.951 . S
C1606 C1607 1.366 . S
C1606 C1608 1.388 . S
C1607 C1606 1.366 . S
C1607 C1611 1.385 . S
C1608 H1589 0.951 . S
C1608 C1606 1.388 . S
C1608 C1609 1.366 . S
C1609 C1608 1.366 . S
C1609 C1610 1.414 . S
C1609 C1612 1.499 . S
C1610 H1590 0.950 . S
C1610 C1609 1.414 . S
C1610 C1611 1.374 . S
C1611 H1591 0.950 . S
C1611 C1607 1.385 . S
C1611 C1610 1.374 . S
C1612 C1609 1.499 . S
C1612 C1613 1.373 . S
C1612 C1614 1.389 . S
C1613 H1592 0.950 . S
C1613 C1612 1.373 . S
C1613 C1629 1.377 . S
C1614 C1612 1.389 . S
C1614 C1615 1.524 . S
C1614 C1628 1.377 . S
C1615 C1614 1.524 . S
C1615 C1616 1.397 . S
C1615 C1620 1.363 . S
C1616 H1593 0.950 . S
C1616 C1615 1.397 . S
C1616 C1617 1.334 . S
C1617 H1594 0.950 . S
C1617 C1616 1.334 . S
C1617 C1618 1.287 . S
C1618 C1617 1.287 . S
C1618 C1619 1.524 . S
C1618 H1637 0.913 . S
C1619 H1595 0.950 . S
C1619 C1618 1.524 . S
C1619 C1620 1.415 . S
C1620 H1596 0.950 . S
C1620 C1615 1.363 . S
C1620 C1619 1.415 . S
C1621 H1597 0.951 . S
C1621 C1622 1.366 . S
C1621 C1623 1.388 . S
C1622 C1621 1.366 . S
C1622 C1626 1.385 . S
C1623 H1598 0.951 . S
C1623 C1621 1.388 . S
C1623 C1624 1.366 . S
C1624 C1623 1.366 . S
C1624 C1625 1.414 . S
C1624 C1627 1.499 . S
C1625 H1599 0.950 . S
C1625 C1624 1.414 . S
C1625 C1626 1.374 . S
C1626 H1600 0.950 . S
C1626 C1622 1.385 . S
C1626 C1625 1.374 . S
C1627 C1624 1.499 . S
C1627 C1628 1.373 . S
C1627 C1629 1.389 . S
C1628 H1601 0.950 . S
C1628 C1614 1.377 . S
C1628 C1627 1.373 . S
C1629 C1613 1.377 . S
C1629 C1627 1.389 . S
C1629 C1630 1.524 . S
C1630 C1629 1.524 . S
C1630 C1631 1.397 . S
C1630 C1635 1.363 . S
C1631 H1602 0.950 . S
C1631 C1630 1.397 . S
C1631 C1632 1.334 . S
C1632 H1603 0.950 . S
C1632 C1631 1.334 . S
C1632 C1633 1.287 . S
C1633 C1632 1.287 . S
C1633 C1634 1.524 . S
C1633 H1636 0.999 . S
C1634 H1604 0.950 . S
C1634 C1633 1.524 . S
C1634 C1635 1.415 . S
C1635 H1605 0.950 . S
C1635 C1630 1.363 . S
C1635 C1634 1.415 . S
H1636 C1633 0.999 . S
H1637 C1618 0.913 . S
H1638 C1656 0.951 . S
H1639 C1658 0.951 . S
H1640 C1660 0.950 . S
H1641 C1661 0.950 . S
H1642 C1663 0.950 . S
H1643 C1666 0.950 . S
H1644 C1667 0.950 . S
H1645 C1669 0.950 . S
H1646 C1670 0.950 . S
H1647 C1671 0.951 . S
H1648 C1673 0.951 . S
H1649 C1675 0.950 . S
H1650 C1676 0.950 . S
H1651 C1678 0.950 . S
H1652 C1681 0.950 . S
H1653 C1682 0.950 . S
H1654 C1684 0.950 . S
H1655 C1685 0.950 . S
C1656 H1638 0.951 . S
C1656 C1657 1.366 . S
C1656 C1658 1.388 . S
C1657 C1656 1.366 . S
C1657 C1661 1.385 . S
C1658 H1639 0.951 . S
C1658 C1656 1.388 . S
C1658 C1659 1.366 . S
C1659 C1658 1.366 . S
C1659 C1660 1.414 . S
C1659 C1662 1.499 . S
C1660 H1640 0.950 . S
C1660 C1659 1.414 . S
C1660 C1661 1.374 . S
C1661 H1641 0.950 . S
C1661 C1657 1.385 . S
C1661 C1660 1.374 . S
C1662 C1659 1.499 . S
C1662 C1663 1.373 . S
C1662 C1664 1.389 . S
C1663 H1642 0.950 . S
C1663 C1662 1.373 . S
C1663 C1679 1.377 . S
C1664 C1662 1.389 . S
C1664 C1665 1.524 . S
C1664 C1678 1.377 . S
C1665 C1664 1.524 . S
C1665 C1666 1.397 . S
C1665 C1670 1.363 . S
C1666 H1643 0.950 . S
C1666 C1665 1.397 . S
C1666 C1667 1.334 . S
C1667 H1644 0.950 . S
C1667 C1666 1.334 . S
C1667 C1668 1.287 . S
C1668 C1667 1.287 . S
C1668 C1669 1.524 . S
C1668 H1687 0.913 . S
C1669 H1645 0.950 . S
C1669 C1668 1.524 . S
C1669 C1670 1.415 . S
C1670 H1646 0.950 . S
C1670 C1665 1.363 . S
C1670 C1669 1.415 . S
C1671 H1647 0.951 . S
C1671 C1672 1.366 . S
C1671 C1673 1.388 . S
C1672 C1671 1.366 . S
C1672 C1676 1.385 . S
C1673 H1648 0.951 . S
C1673 C1671 1.388 . S
C1673 C1674 1.366 . S
C1674 C1673 1.366 . S
C1674 C1675 1.414 . S
C1674 C1677 1.499 . S
C1675 H1649 0.950 . S
C1675 C1674 1.414 . S
C1675 C1676 1.374 . S
C1676 H1650 0.950 . S
C1676 C1672 1.385 . S
C1676 C1675 1.374 . S
C1677 C1674 1.499 . S
C1677 C1678 1.373 . S
C1677 C1679 1.389 . S
C1678 H1651 0.950 . S
C1678 C1664 1.377 . S
C1678 C1677 1.373 . S
C1679 C1663 1.377 . S
C1679 C1677 1.389 . S
C1679 C1680 1.524 . S
C1680 C1679 1.524 . S
C1680 C1681 1.397 . S
C1680 C1685 1.363 . S
C1681 H1652 0.950 . S
C1681 C1680 1.397 . S
C1681 C1682 1.334 . S
C1682 H1653 0.950 . S
C1682 C1681 1.334 . S
C1682 C1683 1.287 . S
C1683 C1682 1.287 . S
C1683 C1684 1.524 . S
C1683 H1686 0.999 . S
C1684 H1654 0.950 . S
C1684 C1683 1.524 . S
C1684 C1685 1.415 . S
C1685 H1655 0.950 . S
C1685 C1680 1.363 . S
C1685 C1684 1.415 . S
H1686 C1683 0.999 . S
H1687 C1668 0.913 . S
C507 C125 1.821 . S
C522 C226 1.877 . S
C572 C310 1.911 . S
C557 C144 1.843 . S
C622 C376 1.941 . S
C607 C87 1.958 . S
C672 C460 1.911 . S
C657 C106 1.938 . S
C722 C215 1.878 1_565 S
C707 C49 1.915 . S
C757 C68 1.948 . S
C772 C299 1.911 . S
C807 C11 2.071 . S
C822 C387 1.941 . S
C857 C30 2.042 . S
C872 C471 1.911 . S
C922 C222 0.578 . S
C907 C97 0.568 . S
C972 C306 0.558 . S
C957 C116 0.539 . S
C1022 C378 0.533 . S
C1007 C135 0.524 . S
C1057 C78 0.550 . S
C1072 C462 0.554 . S
C1107 C21 0.566 . S
C1122 C210 0.578 . S
C1172 C294 0.557 . S
C1157 C40 0.536 . S
C1222 C390 0.534 . S
C1207 C59 0.521 . S
C1257 C2 0.545 . S
C1272 C474 0.557 . S
C1307 C101 1.989 . S
C1322 C219 2.018 . S
C1357 C120 1.948 . S
C1372 C303 1.976 . S
C1422 C383 1.972 . S
C1407 C139 1.846 . S
C1472 C467 2.009 . S
C1457 C82 1.882 . S
C1507 C25 1.994 . S
C1522 C208 2.016 . S
C1572 C292 1.976 1_565 S
C1557 C44 1.954 . S
C1622 C394 1.971 . S
C1607 C63 1.851 . S
C1657 C6 1.887 . S
C1672 C478 2.009 . S
