# Generated by pormake.
# Topology anh, (6,3)-cn, num edge types: 1
# Building blocks:
#     Node 0, Type 0, BuildingBlock: GEDQOX_clean_sbu_0, # of connection points: 6
#     Node 1, Type 0, BuildingBlock: GEDQOX_clean_sbu_0, # of connection points: 6
#     Node 2, Type 0, BuildingBlock: GEDQOX_clean_sbu_0, # of connection points: 6
#     Node 3, Type 1, BuildingBlock: CUQRIR_clean_linker_1, # of connection points: 3
#     Node 4, Type 1, BuildingBlock: CUQRIR_clean_linker_1, # of connection points: 3
#     Node 5, Type 1, BuildingBlock: CUQRIR_clean_linker_1, # of connection points: 3
#     Node 6, Type 1, BuildingBlock: CUQRIR_clean_linker_1, # of connection points: 3
#     Node 7, Type 1, BuildingBlock: CUQRIR_clean_linker_1, # of connection points: 3
#     Node 8, Type 1, BuildingBlock: CUQRIR_clean_linker_1, # of connection points: 3
#     Edge 9, Type (0, 1), BuildingBlock: EZIPEK_clean_linker_0, # of connection points: 2
#     Edge 10, Type (0, 1), BuildingBlock: EZIPEK_clean_linker_0, # of connection points: 2
#     Edge 11, Type (0, 1), BuildingBlock: EZIPEK_clean_linker_0, # of connection points: 2
#     Edge 12, Type (0, 1), BuildingBlock: EZIPEK_clean_linker_0, # of connection points: 2
#     Edge 13, Type (0, 1), BuildingBlock: EZIPEK_clean_linker_0, # of connection points: 2
#     Edge 14, Type (0, 1), BuildingBlock: EZIPEK_clean_linker_0, # of connection points: 2
#     Edge 15, Type (0, 1), BuildingBlock: EZIPEK_clean_linker_0, # of connection points: 2
#     Edge 16, Type (0, 1), BuildingBlock: EZIPEK_clean_linker_0, # of connection points: 2
#     Edge 17, Type (0, 1), BuildingBlock: EZIPEK_clean_linker_0, # of connection points: 2
#     Edge 18, Type (0, 1), BuildingBlock: EZIPEK_clean_linker_0, # of connection points: 2
#     Edge 19, Type (0, 1), BuildingBlock: EZIPEK_clean_linker_0, # of connection points: 2
#     Edge 20, Type (0, 1), BuildingBlock: EZIPEK_clean_linker_0, # of connection points: 2
#     Edge 21, Type (0, 1), BuildingBlock: EZIPEK_clean_linker_0, # of connection points: 2
#     Edge 22, Type (0, 1), BuildingBlock: EZIPEK_clean_linker_0, # of connection points: 2
#     Edge 23, Type (0, 1), BuildingBlock: EZIPEK_clean_linker_0, # of connection points: 2
#     Edge 24, Type (0, 1), BuildingBlock: EZIPEK_clean_linker_0, # of connection points: 2
#     Edge 25, Type (0, 1), BuildingBlock: EZIPEK_clean_linker_0, # of connection points: 2
#     Edge 26, Type (0, 1), BuildingBlock: EZIPEK_clean_linker_0, # of connection points: 2
# Relax obj value: 0.274
# Max RMSD: 0.226
# Mean RMSD: 0.177
data_MOF--net-anh--node1-GEDQOX_clean_sbu_0--node2-CUQRIR_clean_linker_1--edge1-EZIPEK_clean_linker_0
_symmetry_space_group_name_H-M    P1
_symmetry_Int_Tables_number       1
_symmetry_cell_setting            triclinic
loop_
_symmetry_equiv_pos_as_xyz
'x, y, z'
_cell_length_a     19.720799
_cell_length_b     19.318893
_cell_length_c     33.241632
_cell_angle_alpha  85.097641
_cell_angle_beta   90.531076
_cell_angle_gamma 94.049773
loop_
_atom_site_label
_atom_site_type_symbol
_atom_site_fract_x
_atom_site_fract_y
_atom_site_fract_z
_atom_type_partial_charge
Nd0 Nd 1.09378 0.56306 0.12768 0.0
Nd1 Nd 1.0789 0.41744 0.15354 0.0
C2 C 1.13498 0.69239 0.10153 0.0
C3 C 0.19579 0.73646 0.11282 0.0
C4 C 0.2621 0.71789 0.10546 0.0
C5 C 0.31861 0.75432 0.1215 0.0
C6 C 0.30986 0.80941 0.14553 0.0
C7 C 0.24399 0.82948 0.15175 0.0
C8 C 0.18759 0.79364 0.13538 0.0
C9 C 1.07094 0.54008 0.20975 0.0
C10 C 0.23667 0.48513 0.13851 0.0
C11 C 1.06446 0.28874 0.18915 0.0
C12 C 1.00357 0.24482 0.20388 0.0
C13 C 0.95331 0.27221 0.2265 0.0
C14 C 0.89347 0.23219 0.23753 0.0
C15 C 0.88205 0.16446 0.22553 0.0
C16 C 0.93258 0.13643 0.2036 0.0
C17 C 0.99295 0.17623 0.19298 0.0
C18 C 1.05954 0.44073 0.07168 0.0
C19 C 0.93992 0.4975 0.13254 0.0
O20 O 1.14455 0.63892 0.08123 0.0
O21 O 1.09016 0.67716 0.13001 0.0
O22 O 1.03697 0.58063 0.18557 0.0
O23 O 1.11145 0.50815 0.18996 0.0
O24 O 0.20839 0.54529 0.13599 0.0
O25 O 0.19746 0.42615 0.14372 0.0
O26 O 1.08149 0.34339 0.20829 0.0
O27 O 1.06935 0.30222 0.15019 0.0
O28 O 1.02088 0.39876 0.09525 0.0
O29 O 1.10592 0.47052 0.09179 0.0
O30 O 0.96756 0.45242 0.15932 0.0
O31 O 0.98094 0.54083 0.10934 0.0
H32 H 0.2704 0.67385 0.08848 0.0
H33 H 0.36903 0.73802 0.11635 0.0
H34 H 0.23615 0.87184 0.17017 0.0
H35 H 1.13722 0.80895 0.14168 0.0
H36 H 0.95921 0.32516 0.23484 0.0
H37 H 0.85499 0.25486 0.25426 0.0
H38 H 0.92456 0.08434 0.19391 0.0
H39 H 1.0306 0.1541 0.17534 0.0
Nd40 Nd 0.59646 1.02871 0.53302 0.0
Nd41 Nd 0.73947 0.04306 0.51281 0.0
C42 C 0.47168 0.98945 0.55787 0.0
C43 C 0.42219 0.93948 0.54117 0.0
C44 C 0.3672 0.9088 0.56427 0.0
C45 C 0.3231 0.85774 0.54858 0.0
C46 C 0.33411 0.83723 0.50979 0.0
C47 C 0.38888 0.86827 0.48673 0.0
C48 C 0.43266 0.91906 0.5023 0.0
C49 C 0.61981 0.03076 0.45089 0.0
C50 C 0.67968 0.88768 0.53667 0.0
C51 C 0.8517 0.08216 0.4718 0.0
C52 C 0.89028 0.14911 0.46201 0.0
C53 C 0.93246 0.15793 0.42797 0.0
C54 C 0.96609 0.22278 0.41685 0.0
C55 C 0.9574 0.27948 0.43955 0.0
C56 C 0.91465 0.27089 0.47335 0.0
C57 C 0.88123 0.20602 0.48454 0.0
C58 C 0.72201 0.03611 0.59485 0.0
C59 C 0.65914 0.1861 0.52614 0.0
O60 O 0.52549 0.9625 0.57387 0.0
O61 O 0.48672 0.04612 0.53452 0.0
O62 O 0.57283 0.06312 0.46641 0.0
O63 O 0.65144 0.99774 0.47839 0.0
O64 O 0.63097 0.91926 0.55289 0.0
O65 O 0.7264 0.92388 0.51398 0.0
O66 O 0.79143 0.0771 0.45518 0.0
O67 O 0.85204 0.05667 0.50962 0.0
O68 O 0.76881 1.00524 0.57726 0.0
O69 O 0.68617 0.06977 0.5692 0.0
O70 O 0.71318 0.15924 0.51205 0.0
O71 O 0.60701 0.1447 0.53941 0.0
H72 H 0.35901 0.92359 0.59446 0.0
H73 H 0.28104 0.83373 0.56671 0.0
H74 H 0.39811 0.85255 0.45685 0.0
H75 H 0.47547 0.94161 0.48427 0.0
H76 H 0.93914 0.11476 0.40995 0.0
H77 H 0.99937 0.22867 0.39086 0.0
H78 H 0.90792 0.31413 0.4913 0.0
H79 H 0.84825 0.20034 0.51065 0.0
Nd80 Nd 0.67483 0.65879 0.84142 0.0
Nd81 Nd 0.81343 0.66828 0.83632 0.0
C82 C 0.54268 0.63175 0.84477 0.0
C83 C 0.50234 0.58764 0.87472 0.0
C84 C 0.53253 0.55893 0.91034 0.0
C85 C 0.49331 0.51621 0.93876 0.0
C86 C 0.42374 0.50225 0.9317 0.0
C87 C 0.39469 0.5307 0.89551 0.0
C88 C 0.43355 0.573 0.8674 0.0
C89 C 0.73247 0.66229 0.91838 0.0
C90 C 0.73896 0.81129 0.82498 0.0
C91 C 0.94595 0.68254 0.83426 0.0
C92 C 0.98552 0.63843 0.81062 0.0
C93 C 0.96554 0.56732 0.8105 0.0
C94 C 0.99532 0.52605 0.78438 0.0
C95 C 1.04917 0.55351 0.75889 0.0
C96 C 1.06577 0.62615 0.75707 0.0
C97 C 1.03423 0.66807 0.78266 0.0
C98 C 0.75993 0.64052 0.76211 0.0
C99 C 0.74451 0.51148 0.8357 0.0
O100 O 0.57295 0.68775 0.85789 0.0
O101 O 0.5819 0.59881 0.82266 0.0
O102 O 0.68832 0.70355 0.90321 0.0
O103 O 0.75049 0.62632 0.89094 0.0
O104 O 0.68836 0.77071 0.81253 0.0
O105 O 0.78971 0.78226 0.84434 0.0
O106 O 0.91326 0.65116 0.86565 0.0
O107 O 0.90849 0.72416 0.81222 0.0
O108 O 0.815 0.61854 0.77784 0.0
O109 O 0.73615 0.68326 0.78436 0.0
O110 O 0.8027 0.5484 0.83886 0.0
O111 O 0.68736 0.54243 0.83612 0.0
H112 H 0.58629 0.56956 0.91607 0.0
H113 H 0.51715 0.49441 0.96596 0.0
H114 H 0.34141 0.52062 0.88879 0.0
H115 H 0.40982 0.59425 0.83995 0.0
H116 H 0.92689 0.54285 0.83084 0.0
H117 H 0.97855 0.47136 0.78652 0.0
H118 H 1.10503 0.65048 0.73709 0.0
H119 H 1.04806 0.72353 0.78072 0.0
C120 C 0.59093 0.97532 0.21847 0.0
N121 N 0.62563 1.00321 0.24938 0.0
N122 N 0.52919 0.94676 0.23087 0.0
C123 C 0.61727 0.9756 0.17619 0.0
C124 C 0.52769 0.95732 0.27055 0.0
N125 N 0.58661 0.99059 0.28215 0.0
C126 C 0.46862 0.93469 0.29799 0.0
H127 H 0.6005 1.02213 0.15793 0.0
H128 H 0.59648 0.92863 0.16198 0.0
H129 H 0.67365 0.97782 0.17599 0.0
H130 H 0.47387 0.88025 0.31056 0.0
H131 H 0.41999 0.93622 0.28097 0.0
H132 H 0.46739 0.96824 0.32342 0.0
C133 C 0.66769 0.5378 0.54142 0.0
N134 N 0.6777 0.58846 0.56724 0.0
N135 N 0.67092 0.47378 0.56138 0.0
C136 C 0.65715 0.55112 0.49667 0.0
C137 C 0.68247 0.4873 0.6003 0.0
N138 N 0.68759 0.55689 0.60384 0.0
C139 C 0.69259 0.43242 0.63468 0.0
H140 H 0.61679 0.58767 0.49032 0.0
H141 H 0.6433 0.50221 0.48241 0.0
H142 H 0.70475 0.57625 0.48292 0.0
H143 H 0.745 0.41536 0.63332 0.0
H144 H 0.6574 0.38574 0.63275 0.0
H145 H 0.68488 0.45251 0.66445 0.0
C146 C 0.21133 0.37962 0.86772 0.0
N147 N 0.20056 0.38479 0.90752 0.0
N148 N 0.1531 0.386 0.84637 0.0
C149 C 0.27986 0.37462 0.84882 0.0
C150 C 1.10515 0.38704 0.87534 0.0
N151 N 1.13407 0.38937 0.91232 0.0
C152 C 1.02985 0.38263 0.86745 0.0
H153 H 0.3174 0.4144 0.85947 0.0
H154 H 0.27714 0.3804 0.81537 0.0
H155 H 0.29852 0.32283 0.85806 0.0
H156 H 1.01629 0.33956 0.84832 0.0
H157 H 1.0154 0.4314 0.85086 0.0
H158 H 1.00032 0.37345 0.89586 0.0
C159 C 1.13587 0.57729 0.44161 0.0
N160 N 1.11095 0.54232 0.41047 0.0
N161 N 0.17923 0.63106 0.42806 0.0
C162 C 1.11911 0.55838 0.48536 0.0
C163 C 0.17976 0.62843 0.38762 0.0
N164 N 1.137 0.5752 0.37653 0.0
C165 C 0.22285 0.67769 0.35932 0.0
H166 H 1.06958 0.52748 0.48876 0.0
H167 H 1.11774 0.60605 0.50166 0.0
H168 H 0.15947 0.52695 0.49933 0.0
H169 H 0.27365 0.68862 0.37295 0.0
H170 H 0.19861 0.72786 0.3545 0.0
H171 H 0.22897 0.65615 0.32978 0.0
C172 C 0.7395 0.16177 0.81457 0.0
N173 N 0.73913 0.11061 0.78884 0.0
N174 N 0.74341 0.22583 0.79388 0.0
C175 C 0.73418 0.14897 0.8597 0.0
C176 C 0.74582 0.21166 0.75467 0.0
N177 N 0.74363 0.14204 0.75154 0.0
C178 C 0.7467 0.26599 0.71927 0.0
H179 H 0.67992 0.13838 0.86808 0.0
H180 H 0.75441 0.19486 0.875 0.0
H181 H 0.76165 0.10276 0.8706 0.0
H182 H 0.77759 0.25119 0.69414 0.0
H183 H 0.76704 0.31759 0.72805 0.0
H184 H 0.69398 0.27055 0.70792 0.0
C185 C 0.58956 0.49636 0.12682 0.0
N186 N 0.64624 0.51713 0.10404 0.0
N187 N 0.53104 0.51293 0.10685 0.0
C188 C 0.59092 0.45919 0.16827 0.0
C189 C 0.55459 0.5453 0.07135 0.0
N190 N 0.62371 0.54839 0.0696 0.0
C191 C 0.50909 0.57428 0.03856 0.0
H192 H 0.57653 0.40308 0.16605 0.0
H193 H 0.55303 0.47947 0.18787 0.0
H194 H 0.64221 0.46481 0.18209 0.0
H195 H 0.47734 0.61266 0.05087 0.0
H196 H 0.47422 0.53146 0.02873 0.0
H197 H 0.53782 0.59931 0.01208 0.0
C198 C 0.34352 0.4482 0.10374 0.0
C199 C 0.31401 0.48567 0.13364 0.0
C200 C 0.4294 0.54108 0.1462 0.0
C201 C 0.45916 0.49951 0.11884 0.0
N202 N 0.44549 0.40464 0.07684 0.0
N203 N 0.3334 0.55787 0.18891 0.0
C204 C 0.41627 0.45009 0.09948 0.0
C205 C 0.35845 0.52928 0.15643 0.0
N206 N 0.30223 0.41462 0.0773 0.0
N207 N 0.46845 0.59415 0.1612 0.0
H208 H 0.28285 0.54913 0.19805 0.0
H209 H 0.36411 0.5841 0.20917 0.0
H210 H 0.51999 0.60372 0.15441 0.0
H211 H 0.44872 0.63167 0.17757 0.0
H212 H 0.32025 0.39284 0.05223 0.0
H213 H 0.24946 0.41448 0.07798 0.0
H214 H 0.41846 0.36296 0.06475 0.0
H215 H 0.49807 0.40533 0.07319 0.0
C216 C 1.0654 0.35415 0.44397 0.0
C217 C 0.99745 0.34654 0.42992 0.0
C218 C 1.00389 0.46917 0.4032 0.0
C219 C 1.07318 0.47528 0.41457 0.0
N220 N 0.17339 0.42205 0.44042 0.0
N221 N 0.90394 0.39256 0.39157 0.0
C222 C 1.10489 0.41713 0.43341 0.0
C223 C 0.96725 0.40283 0.40801 0.0
N224 N 1.0914 0.30201 0.46861 0.0
N225 N 0.9725 0.52759 0.38984 0.0
H226 H 0.87534 0.34491 0.39524 0.0
H227 H 0.88185 0.42948 0.37193 0.0
H228 H 0.99815 0.57683 0.38718 0.0
H229 H 0.92042 0.52829 0.38464 0.0
H230 H 1.13758 0.30761 0.48382 0.0
H231 H 1.06455 0.25441 0.47654 0.0
H232 H 0.20106 0.37977 0.45009 0.0
H233 H 0.20401 0.46735 0.4328 0.0
C234 C 0.79625 0.92733 0.79808 0.0
C235 C 0.73911 0.88887 0.81672 0.0
C236 C 0.67995 0.99742 0.8155 0.0
C237 C 0.73904 0.03592 0.79954 0.0
N238 N 0.85912 0.03972 0.78826 0.0
N239 N 0.63181 0.8903 0.85091 0.0
C240 C 0.79885 1.0014 0.79443 0.0
C241 C 0.68216 0.92473 0.82745 0.0
N242 N 0.84686 0.89345 0.78217 0.0
N243 N 0.62156 1.03025 0.81906 0.0
H244 H 0.63279 0.83807 0.86162 0.0
H245 H 0.59248 0.91498 0.8631 0.0
H246 H 0.6194 0.08383 0.81292 0.0
H247 H 0.57456 1.00397 0.82572 0.0
H248 H 0.88632 0.91926 0.76496 0.0
H249 H 0.84556 0.83941 0.78237 0.0
H250 H 0.90574 1.01763 0.7875 0.0
H251 H 0.86291 0.09365 0.7892 0.0
C252 C 0.83176 0.56477 0.13151 0.0
C253 C 0.86258 0.50051 0.12866 0.0
C254 C 0.74778 0.44506 0.11407 0.0
C255 C 0.71839 0.51009 0.11462 0.0
N256 N 0.72809 0.62626 0.1345 0.0
N257 N 0.84897 0.37967 0.11469 0.0
C258 C 0.75954 0.5685 0.126 0.0
C259 C 0.81997 0.44048 0.11987 0.0
N260 N 0.87167 0.62271 0.13963 0.0
N261 N 0.70591 0.38696 0.10922 0.0
H262 H 0.9003 0.37298 0.11952 0.0
H263 H 0.82341 0.33652 0.10338 0.0
H264 H 0.65386 0.38896 0.10405 0.0
H265 H 0.72105 0.33633 0.11309 0.0
H266 H 0.85538 0.67294 0.13671 0.0
H267 H 0.92253 0.62117 0.14815 0.0
H268 H 0.75249 0.66966 0.14619 0.0
H269 H 0.67536 0.62778 0.13355 0.0
C270 C 0.22741 0.79824 0.47416 0.0
C271 C 0.28973 0.78177 0.49305 0.0
C272 C 0.27851 0.66526 0.46907 0.0
C273 C 0.21549 0.68103 0.45131 0.0
N274 N 1.12326 0.75542 0.44223 0.0
N275 N 0.36873 0.69679 0.51555 0.0
C276 C 0.18784 0.7455 0.45557 0.0
C277 C 0.31346 0.71419 0.49273 0.0
N278 N 0.20757 0.86482 0.47266 0.0
N279 N 0.30566 0.60437 0.46199 0.0
H280 H 0.39516 0.73157 0.53341 0.0
H281 H 0.385 0.64656 0.51953 0.0
H282 H 0.2805 0.56763 0.44488 0.0
H283 H 0.35468 0.59239 0.47047 0.0
H284 H 0.16665 0.88202 0.45552 0.0
H285 H 0.23463 0.90445 0.48671 0.0
H286 H 1.09711 0.79859 0.44772 0.0
H287 H 1.09371 0.71743 0.42822 0.0
C288 C 0.79192 0.39102 0.84481 0.0
C289 C 0.74293 0.4358 0.82743 0.0
C290 C 0.68625 0.33509 0.79711 0.0
C291 C 0.74072 0.29411 0.80883 0.0
N292 N 0.85252 0.28765 0.83757 0.0
N293 N 0.65624 0.45095 0.77549 0.0
C294 C 0.7957 0.32339 0.83095 0.0
C295 C 0.69307 0.40801 0.8006 0.0
N296 N 0.83314 0.41139 0.87549 0.0
N297 N 0.62821 0.30439 0.78195 0.0
H298 H 0.66505 0.50489 0.77253 0.0
H299 H 0.62374 0.43249 0.75328 0.0
H300 H 0.62183 0.25079 0.77956 0.0
H301 H 0.58465 0.33111 0.77581 0.0
H302 H 0.86548 0.37826 0.89127 0.0
H303 H 0.82942 0.45823 0.88834 0.0
H304 H 0.89662 0.30898 0.85046 0.0
H305 H 0.85721 0.23883 0.82711 0.0
C306 C 0.61869 0.76783 0.53727 0.0
C307 C 0.67964 0.81013 0.54327 0.0
C308 C 0.74059 0.70418 0.55763 0.0
C309 C 0.67854 0.66301 0.55722 0.0
N310 N 0.55706 0.65486 0.54908 0.0
N311 N 0.79623 0.81733 0.5667 0.0
C312 C 0.61717 0.69469 0.54763 0.0
C313 C 0.74011 0.77798 0.5554 0.0
N314 N 0.56296 0.79669 0.51996 0.0
N315 N 0.80024 0.6725 0.5583 0.0
H316 H 0.79746 0.87123 0.56723 0.0
H317 H 0.83916 0.79574 0.57955 0.0
H318 H 0.80128 0.61895 0.55676 0.0
H319 H 0.84769 0.69972 0.55528 0.0
H320 H 0.52044 0.76747 0.51031 0.0
H321 H 0.561 0.84962 0.51171 0.0
H322 H 0.50974 0.67563 0.54772 0.0
H323 H 0.55435 0.60083 0.55487 0.0
C324 C 0.1642 0.51952 0.75704 0.0
C325 C 1.0978 0.50521 0.7436 0.0
C326 C 1.10242 0.38885 0.77768 0.0
C327 C 0.14774 0.4191 0.80586 0.0
N328 N 0.22314 0.52119 0.81998 0.0
N329 N 1.02464 0.41267 0.72102 0.0
C330 C 0.1816 0.48595 0.79451 0.0
C331 C 1.07619 0.43366 0.74564 0.0
N332 N 0.20594 0.56954 0.73694 0.0
N333 N 1.08364 0.31949 0.78269 0.0
H334 H 1.00494 0.44806 0.69918 0.0
H335 H 1.00168 0.36233 0.72261 0.0
H336 H 1.10369 0.28753 0.80614 0.0
H337 H 1.05168 0.2937 0.76289 0.0
H338 H 0.25604 0.5806 0.74606 0.0
H339 H 0.19104 0.5942 0.70939 0.0
H340 H 0.24384 0.57165 0.81202 0.0
H341 H 0.23104 0.50459 0.85001 0.0
C342 C 0.38852 0.91559 0.15525 0.0
C343 C 0.36915 0.84417 0.1659 0.0
C344 C 0.4632 0.83903 0.2147 0.0
C345 C 0.47698 0.91185 0.20758 0.0
N346 N 0.44671 1.0218 0.17584 0.0
N347 N 0.38049 0.74103 0.21132 0.0
C348 C 0.43806 0.95083 0.17902 0.0
C349 C 0.40462 0.80652 0.19708 0.0
N350 N 0.36088 0.94921 0.12185 0.0
N351 N 0.50714 0.80087 0.23773 0.0
H352 H 0.33665 0.71595 0.20009 0.0
H353 H 0.40035 0.7141 0.23672 0.0
H354 H 0.55097 0.82359 0.25038 0.0
H355 H 0.50364 0.74662 0.24096 0.0
H356 H 0.37781 0.99923 0.11038 0.0
H357 H 0.32522 0.92474 0.10342 0.0
H358 H 0.41524 0.05377 0.15853 0.0
H359 H 0.48188 0.04879 0.19338 0.0
C360 C 0.61737 0.28638 0.56167 0.0
C361 C 0.65967 0.26259 0.53178 0.0
C362 C 0.71137 0.38224 0.52047 0.0
C363 C 0.66255 0.40565 0.54623 0.0
N364 N 0.55491 0.38244 0.57949 0.0
N365 N 0.73223 0.2971 0.47369 0.0
C366 C 0.60982 0.35848 0.5619 0.0
C367 C 0.70245 0.31317 0.50828 0.0
N368 N 0.59073 0.24246 0.59285 0.0
N369 N 0.76718 0.42458 0.50876 0.0
H370 H 0.7214 0.25005 0.46105 0.0
H371 H 0.76045 0.33405 0.4548 0.0
H372 H 0.77592 0.47462 0.5181 0.0
H373 H 0.80723 0.40739 0.49287 0.0
H374 H 0.56284 0.26001 0.61599 0.0
H375 H 0.60592 0.19226 0.59972 0.0
H376 H 0.51322 0.34947 0.58959 0.0
H377 H 0.54908 0.43563 0.58031 0.0
C378 C 0.37189 0.3869 0.95478 0.0
C379 C 0.37885 0.45839 0.96082 0.0
C380 C 0.2603 0.47009 0.95067 0.0
C381 C 0.25351 0.40261 0.93607 0.0
N382 N 0.29552 0.28839 0.93861 0.0
N383 N 0.32661 0.55163 0.98829 0.0
C384 C 0.30665 0.35736 0.94403 0.0
C385 C 0.32043 0.49056 0.97059 0.0
N386 N 0.42872 0.35077 0.95473 0.0
N387 N 0.21883 0.52111 0.93891 0.0
H388 H 0.37354 0.57125 0.99879 0.0
H389 H 0.28459 0.5797 0.99339 0.0
H390 H 0.18204 0.5166 0.91649 0.0
H391 H 0.18204 0.5166 0.91649 0.0
H392 H 0.42919 0.3001 0.94639 0.0
H393 H 0.47593 0.37335 0.96297 0.0
H394 H 0.33102 0.25186 0.94579 0.0
H395 H 0.24865 0.26766 0.92873 0.0
C396 C 0.81115 0.06351 0.26056 0.0
C397 C 0.81526 0.12465 0.23355 0.0
C398 C 0.69206 0.11066 0.22222 0.0
C399 C 0.68929 0.04575 0.24591 0.0
N400 N 0.74915 0.95291 0.27898 0.0
N401 N 0.76154 0.19984 0.18288 0.0
C402 C 0.74963 1.02026 0.26298 0.0
C403 C 0.75612 0.14669 0.21289 0.0
N404 N 0.86567 0.04718 0.28426 0.0
N405 N 0.6332 0.13801 0.20873 0.0
H406 H 0.80758 0.22683 0.17448 0.0
H407 H 0.72152 0.21314 0.16376 0.0
H408 H 0.58551 0.11229 0.21404 0.0
H409 H 0.63112 0.18851 0.19526 0.0
H410 H 0.86327 1.00695 0.30727 0.0
H411 H 0.91146 0.07782 0.28336 0.0
H412 H 0.7928 0.92909 0.28884 0.0
H413 H 0.70612 0.91879 0.27778 0.0
C414 C 1.04261 0.46376 0.99716 0.0
C415 C 1.07079 0.42377 0.02998 0.0
C416 C 1.11538 0.34772 0.98315 0.0
C417 C 1.10164 0.39634 0.9506 0.0
N418 N 1.05112 0.50356 0.92644 0.0
N419 N 1.13814 0.32882 0.05442 0.0
C420 C 1.0636 0.45461 0.95726 0.0
C421 C 1.10804 0.36569 0.0231 0.0
N422 N 0.99577 0.51018 0.00412 0.0
N423 N 1.13399 0.28351 0.97545 0.0
H424 H 1.13453 0.34032 0.08431 0.0
H425 H 0.17176 0.29079 0.05026 0.0
H426 H 1.13509 0.26839 0.94607 0.0
H427 H 1.14001 0.24334 0.9979 0.0
H428 H 0.96773 0.53528 0.98127 0.0
H429 H 0.98019 0.51855 0.03308 0.0
H430 H 1.03005 0.55031 0.93069 0.0
H431 H 1.06812 0.5017 0.89711 0.0
C432 C 0.62418 0.0784 0.37827 0.0
C433 C 0.62186 1.01956 0.40705 0.0
C434 C 0.61298 0.94294 0.3516 0.0
C435 C 0.60575 1.00153 0.32351 0.0
N436 N 0.59147 0.12387 0.3113 0.0
N437 N 0.60378 0.89457 0.4209 0.0
C438 C 0.60861 0.06914 0.33708 0.0
C439 C 0.61459 0.95135 0.3937 0.0
N440 N 0.64191 0.14319 0.39023 0.0
N441 N 0.6169 0.87866 0.33795 0.0
H442 H 0.60278 0.89763 0.45187 0.0
H443 H 0.58954 0.84475 0.41272 0.0
H444 H 0.61165 0.86975 0.30759 0.0
H445 H 0.63057 0.83531 0.35622 0.0
H446 H 0.65068 0.18708 0.36999 0.0
H447 H 0.65446 0.15179 0.42005 0.0
H448 H 0.58618 0.17356 0.32027 0.0
H449 H 0.57547 0.11746 0.28188 0.0
C450 C 0.68389 0.6544 0.6981 0.0
C451 C 0.73832 0.62376 0.72026 0.0
C452 C 0.76935 0.57136 0.65911 0.0
C453 C 0.7083 0.58952 0.64008 0.0
N454 N 0.59812 0.63291 0.64725 0.0
N455 N 0.80931 0.52455 0.72285 0.0
C456 C 0.66291 0.62737 0.66096 0.0
C457 C 0.77524 0.57456 0.70113 0.0
N458 N 0.65174 0.70822 0.71151 0.0
N459 N 0.81888 0.54453 0.63807 0.0
H460 H 0.80286 0.51249 0.75374 0.0
H461 H 0.8336 0.48636 0.70926 0.0
H462 H 0.8142 0.53722 0.60745 0.0
H463 H 0.86615 0.53456 0.65082 0.0
H464 H 0.61584 0.73436 0.69399 0.0
H465 H 0.66498 0.73177 0.73761 0.0
H466 H 0.56115 0.65509 0.66322 0.0
H467 H 0.57973 0.60735 0.62267 0.0
C468 C 0.67553 0.04456 0.66419 0.0
C469 C 0.73057 0.05689 0.6368 0.0
C470 C 0.79825 0.11378 0.68868 0.0
C471 C 0.74055 0.10857 0.71411 0.0
N472 N 0.61993 0.085 0.72148 0.0
N473 N 0.83969 0.11762 0.62025 0.0
C474 C 0.67799 0.07779 0.70077 0.0
C475 C 0.79119 0.09469 0.64837 0.0
N476 N 0.62113 1.00066 0.65545 0.0
N477 N 0.85942 0.13945 0.70266 0.0
H478 H 0.83514 0.10927 0.58978 0.0
H479 H 0.88132 0.15151 0.62617 0.0
H480 H 0.86485 0.15999 0.73057 0.0
H481 H 0.90509 0.13672 0.68756 0.0
H482 H 0.58221 0.98503 0.67594 0.0
H483 H 0.61867 0.97444 0.62929 0.0
H484 H 0.57167 0.06896 0.71135 0.0
H485 H 0.61967 0.11456 0.74623 0.0
C486 C 0.73135 0.56457 0.97498 0.0
C487 C 0.7275 0.63628 0.96245 0.0
C488 C 0.67222 0.65215 0.02696 0.0
C489 C 0.66525 0.57868 0.03572 0.0
N490 N 0.67948 0.46453 0.015 0.0
N491 N 0.71783 0.75141 0.98263 0.0
C492 C 0.69346 0.5348 0.00922 0.0
C493 C 0.70519 0.68113 0.99055 0.0
N494 N 0.77354 0.52564 0.95548 0.0
N495 N 0.6433 0.69358 0.05232 0.0
H496 H 0.74536 0.77276 0.95732 0.0
H497 H 0.70712 0.78811 0.00236 0.0
H498 H 0.61835 0.67351 0.07872 0.0
H499 H 0.64045 0.74702 0.04653 0.0
H500 H 0.78158 0.47406 0.965 0.0
H501 H 0.80825 0.54806 0.93387 0.0
H502 H 0.69262 0.43012 0.99436 0.0
H503 H 0.64849 0.44164 0.03838 0.0
C504 C 1.08909 0.49107 0.28114 0.0
C505 C 1.07986 0.54974 0.25371 0.0
C506 C 1.08837 0.62103 0.31118 0.0
C507 C 1.11432 0.56504 0.33568 0.0
N508 N 0.15511 0.4501 0.33834 0.0
N509 N 1.08603 0.67634 0.24356 0.0
C510 C 1.11916 0.50068 0.31916 0.0
C511 C 1.08318 0.61669 0.26884 0.0
N512 N 1.06433 0.42684 0.27227 0.0
N513 N 1.06805 0.67788 0.32819 0.0
H514 H 1.08952 0.6771 0.21234 0.0
H515 H 1.0938 0.7256 0.25412 0.0
H516 H 1.06812 0.68112 0.35933 0.0
H517 H 1.04421 0.71763 0.31163 0.0
H518 H 1.06705 0.38267 0.29246 0.0
H519 H 1.03151 0.42172 0.24781 0.0
H520 H 0.16197 0.40329 0.32591 0.0
H521 H 0.1848 0.45954 0.36358 0.0
loop_
_geom_bond_atom_site_label_1
_geom_bond_atom_site_label_2
_geom_bond_distance
_geom_bond_site_symmetry_2
_ccdc_geom_bond_type
Nd0 C2 2.836 . S
Nd0 O20 2.500 . S
Nd0 O21 2.492 . S
Nd0 O22 2.487 . S
Nd0 O23 2.682 1_455 S
Nd0 O24 2.410 . S
Nd0 O29 2.414 . S
Nd0 O31 2.424 1_455 S
Nd1 C11 2.836 . S
Nd1 O23 2.414 . S
Nd1 O25 2.424 1_655 S
Nd1 O26 2.500 . S
Nd1 O27 2.492 . S
Nd1 O28 2.487 . S
Nd1 O29 2.682 1_655 S
Nd1 O30 2.410 . S
C2 Nd0 2.836 . S
C2 C3 1.498 . S
C2 O20 1.258 . S
C2 O21 1.239 . S
C3 C2 1.498 . S
C3 C4 1.366 . S
C3 C8 1.407 . S
C4 C3 1.366 . S
C4 C5 1.392 . S
C4 H32 0.930 . S
C5 C4 1.392 . S
C5 C6 1.398 . S
C5 H33 0.929 . S
C6 C5 1.398 . S
C6 C7 1.352 . S
C7 C6 1.352 . S
C7 C8 1.384 . S
C7 H34 0.930 . S
C8 C3 1.407 . S
C8 C7 1.384 . S
C8 H35 0.929 . S
C9 O22 1.241 1_655 S
C9 O23 1.273 . S
C10 O24 1.251 . S
C10 O25 1.268 . S
C11 Nd1 2.836 . S
C11 C12 1.498 . S
C11 O26 1.258 . S
C11 O27 1.239 . S
C12 C11 1.498 . S
C12 C13 1.366 . S
C12 C17 1.407 . S
C13 C12 1.366 . S
C13 C14 1.392 . S
C13 H36 0.930 . S
C14 C13 1.392 . S
C14 C15 1.398 . S
C14 H37 0.929 . S
C15 C14 1.398 . S
C15 C16 1.352 . S
C16 C15 1.352 . S
C16 C17 1.384 . S
C16 H38 0.930 . S
C17 C12 1.407 . S
C17 C16 1.384 . S
C17 H39 0.929 . S
C18 O28 1.241 1_455 S
C18 O29 1.273 . S
C19 O30 1.251 . S
C19 O31 1.268 . S
O20 Nd0 2.500 . S
O20 C2 1.258 . S
O21 Nd0 2.492 . S
O21 C2 1.239 . S
O22 Nd0 2.487 . S
O22 C9 1.241 1_455 S
O23 Nd0 2.682 1_655 S
O23 Nd1 2.414 . S
O23 C9 1.273 . S
O24 Nd0 2.410 . S
O24 C10 1.251 . S
O25 Nd1 2.424 1_455 S
O25 C10 1.268 . S
O26 Nd1 2.500 . S
O26 C11 1.258 . S
O27 Nd1 2.492 . S
O27 C11 1.239 . S
O28 Nd1 2.487 . S
O28 C18 1.241 1_655 S
O29 Nd0 2.414 . S
O29 Nd1 2.682 1_455 S
O29 C18 1.273 . S
O30 Nd1 2.410 . S
O30 C19 1.251 . S
O31 Nd0 2.424 1_655 S
O31 C19 1.268 . S
H32 C4 0.930 . S
H33 C5 0.929 . S
H34 C7 0.930 . S
H35 C8 0.929 . S
H36 C13 0.930 . S
H37 C14 0.929 . S
H38 C16 0.930 . S
H39 C17 0.929 . S
Nd40 C42 2.836 . S
Nd40 O60 2.500 . S
Nd40 O61 2.492 . S
Nd40 O62 2.487 . S
Nd40 O63 2.682 1_565 S
Nd40 O64 2.410 . S
Nd40 O69 2.414 . S
Nd40 O71 2.424 1_565 S
Nd41 C51 2.836 . S
Nd41 O63 2.414 . S
Nd41 O65 2.424 1_545 S
Nd41 O66 2.500 . S
Nd41 O67 2.492 . S
Nd41 O68 2.487 . S
Nd41 O69 2.682 1_545 S
Nd41 O70 2.410 . S
C42 Nd40 2.836 . S
C42 C43 1.498 . S
C42 O60 1.258 . S
C42 O61 1.239 . S
C43 C42 1.498 . S
C43 C44 1.366 . S
C43 C48 1.407 . S
C44 C43 1.366 . S
C44 C45 1.392 . S
C44 H72 0.930 . S
C45 C44 1.392 . S
C45 C46 1.398 . S
C45 H73 0.929 . S
C46 C45 1.398 . S
C46 C47 1.352 . S
C47 C46 1.352 . S
C47 C48 1.384 . S
C47 H74 0.930 . S
C48 C43 1.407 . S
C48 C47 1.384 . S
C48 H75 0.929 . S
C49 O62 1.241 1_545 S
C49 O63 1.273 . S
C50 O64 1.251 . S
C50 O65 1.268 . S
C51 Nd41 2.836 . S
C51 C52 1.498 . S
C51 O66 1.258 . S
C51 O67 1.239 . S
C52 C51 1.498 . S
C52 C53 1.366 . S
C52 C57 1.407 . S
C53 C52 1.366 . S
C53 C54 1.392 . S
C53 H76 0.930 . S
C54 C53 1.392 . S
C54 C55 1.398 . S
C54 H77 0.929 . S
C55 C54 1.398 . S
C55 C56 1.352 . S
C56 C55 1.352 . S
C56 C57 1.384 . S
C56 H78 0.930 . S
C57 C52 1.407 . S
C57 C56 1.384 . S
C57 H79 0.929 . S
C58 O68 1.241 . S
C58 O69 1.273 1_545 S
C59 O70 1.251 . S
C59 O71 1.268 . S
O60 Nd40 2.500 . S
O60 C42 1.258 . S
O61 Nd40 2.492 . S
O61 C42 1.239 . S
O62 Nd40 2.487 . S
O62 C49 1.241 1_565 S
O63 Nd40 2.682 1_545 S
O63 Nd41 2.414 . S
O63 C49 1.273 . S
O64 Nd40 2.410 . S
O64 C50 1.251 . S
O65 Nd41 2.424 1_565 S
O65 C50 1.268 . S
O66 Nd41 2.500 . S
O66 C51 1.258 . S
O67 Nd41 2.492 . S
O67 C51 1.239 . S
O68 Nd41 2.487 . S
O68 C58 1.241 . S
O69 Nd40 2.414 . S
O69 Nd41 2.682 1_565 S
O69 C58 1.273 1_565 S
O70 Nd41 2.410 . S
O70 C59 1.251 . S
O71 Nd40 2.424 1_545 S
O71 C59 1.268 . S
H72 C44 0.930 . S
H73 C45 0.929 . S
H74 C47 0.930 . S
H75 C48 0.929 . S
H76 C53 0.930 . S
H77 C54 0.929 . S
H78 C56 0.930 . S
H79 C57 0.929 . S
Nd80 C82 2.836 . S
Nd80 O100 2.500 . S
Nd80 O101 2.492 . S
Nd80 O102 2.487 . S
Nd80 O103 2.682 . S
Nd80 O104 2.410 . S
Nd80 O109 2.414 . S
Nd80 O111 2.424 . S
Nd81 C91 2.836 . S
Nd81 O103 2.414 . S
Nd81 O105 2.424 . S
Nd81 O106 2.500 . S
Nd81 O107 2.492 . S
Nd81 O108 2.487 . S
Nd81 O109 2.682 . S
Nd81 O110 2.410 . S
C82 Nd80 2.836 . S
C82 C83 1.498 . S
C82 O100 1.258 . S
C82 O101 1.239 . S
C83 C82 1.498 . S
C83 C84 1.366 . S
C83 C88 1.407 . S
C84 C83 1.366 . S
C84 C85 1.392 . S
C84 H112 0.930 . S
C85 C84 1.392 . S
C85 C86 1.398 . S
C85 H113 0.929 . S
C86 C85 1.398 . S
C86 C87 1.352 . S
C87 C86 1.352 . S
C87 C88 1.384 . S
C87 H114 0.930 . S
C88 C83 1.407 . S
C88 C87 1.384 . S
C88 H115 0.929 . S
C89 O102 1.241 . S
C89 O103 1.273 . S
C90 O104 1.251 . S
C90 O105 1.268 . S
C91 Nd81 2.836 . S
C91 C92 1.498 . S
C91 O106 1.258 . S
C91 O107 1.239 . S
C92 C91 1.498 . S
C92 C93 1.366 . S
C92 C97 1.407 . S
C93 C92 1.366 . S
C93 C94 1.392 . S
C93 H116 0.930 . S
C94 C93 1.392 . S
C94 C95 1.398 . S
C94 H117 0.929 . S
C95 C94 1.398 . S
C95 C96 1.352 . S
C96 C95 1.352 . S
C96 C97 1.384 . S
C96 H118 0.930 . S
C97 C92 1.407 . S
C97 C96 1.384 . S
C97 H119 0.929 . S
C98 O108 1.241 . S
C98 O109 1.273 . S
C99 O110 1.251 . S
C99 O111 1.268 . S
O100 Nd80 2.500 . S
O100 C82 1.258 . S
O101 Nd80 2.492 . S
O101 C82 1.239 . S
O102 Nd80 2.487 . S
O102 C89 1.241 . S
O103 Nd80 2.682 . S
O103 Nd81 2.414 . S
O103 C89 1.273 . S
O104 Nd80 2.410 . S
O104 C90 1.251 . S
O105 Nd81 2.424 . S
O105 C90 1.268 . S
O106 Nd81 2.500 . S
O106 C91 1.258 . S
O107 Nd81 2.492 . S
O107 C91 1.239 . S
O108 Nd81 2.487 . S
O108 C98 1.241 . S
O109 Nd80 2.414 . S
O109 Nd81 2.682 . S
O109 C98 1.273 . S
O110 Nd81 2.410 . S
O110 C99 1.251 . S
O111 Nd80 2.424 . S
O111 C99 1.268 . S
H112 C84 0.930 . S
H113 C85 0.929 . S
H114 C87 0.930 . S
H115 C88 0.929 . S
H116 C93 0.930 . S
H117 C94 0.929 . S
H118 C96 0.930 . S
H119 C97 0.929 . S
C120 N121 1.317 1_565 S
C120 N122 1.348 . S
C120 C123 1.485 . S
N121 C120 1.317 1_545 S
N121 N125 1.370 . S
N122 C120 1.348 . S
N122 C124 1.346 . S
C123 C120 1.485 . S
C123 H127 0.952 1_565 S
C123 H128 0.971 . S
C123 H129 0.958 1_565 S
C124 N122 1.346 . S
C124 N125 1.307 1_565 S
C124 C126 1.486 . S
N125 N121 1.370 . S
N125 C124 1.307 1_545 S
C126 C124 1.486 . S
C126 H130 0.960 . S
C126 H131 0.960 . S
C126 H132 0.959 . S
H127 C123 0.952 1_545 S
H128 C123 0.971 . S
H129 C123 0.958 1_545 S
H130 C126 0.960 . S
H131 C126 0.960 . S
H132 C126 0.959 . S
C133 N134 1.317 . S
C133 N135 1.348 . S
C133 C136 1.485 . S
N134 C133 1.317 . S
N134 N138 1.370 . S
N135 C133 1.348 . S
N135 C137 1.346 . S
C136 C133 1.485 . S
C136 H140 0.960 . S
C136 H141 0.961 . S
C136 H142 0.960 . S
C137 N135 1.346 . S
C137 N138 1.307 . S
C137 C139 1.486 . S
N138 N134 1.370 . S
N138 C137 1.307 . S
C139 C137 1.486 . S
C139 H143 0.960 . S
C139 H144 0.960 . S
C139 H145 0.959 . S
H140 C136 0.960 . S
H141 C136 0.961 . S
H142 C136 0.960 . S
H143 C139 0.960 . S
H144 C139 0.960 . S
H145 C139 0.959 . S
C146 N147 1.317 . S
C146 N148 1.348 1_455 S
C146 C149 1.485 . S
N147 C146 1.317 . S
N147 N151 1.370 . S
N148 C146 1.348 1_655 S
N148 C150 1.346 . S
C149 C146 1.485 . S
C149 H153 0.960 . S
C149 H154 0.961 1_455 S
C149 H155 0.960 . S
C150 N148 1.346 . S
C150 N151 1.307 1_655 S
C150 C152 1.486 . S
N151 N147 1.370 . S
N151 C150 1.307 1_455 S
C152 C150 1.486 . S
C152 H156 0.960 . S
C152 H157 0.960 . S
C152 H158 0.959 . S
H153 C149 0.960 . S
H154 C149 0.961 1_655 S
H155 C149 0.960 . S
H156 C152 0.960 . S
H157 C152 0.960 . S
H158 C152 0.959 . S
C159 N160 1.317 1_455 S
C159 N161 1.348 . S
C159 C162 1.485 . S
N160 C159 1.317 1_655 S
N160 N164 1.370 1_655 S
N161 C159 1.348 . S
N161 C163 1.346 . S
C162 C159 1.485 . S
C162 H166 0.960 1_455 S
C162 H167 0.961 . S
C162 H168 0.960 1_455 S
C163 N161 1.346 . S
C163 N164 1.307 . S
C163 C165 1.486 . S
N164 N160 1.370 1_455 S
N164 C163 1.307 . S
C165 C163 1.486 . S
C165 H169 0.960 . S
C165 H170 0.960 . S
C165 H171 0.959 . S
H166 C162 0.960 1_655 S
H167 C162 0.961 . S
H168 C162 0.960 1_655 S
H169 C165 0.960 . S
H170 C165 0.960 . S
H171 C165 0.959 . S
C172 N173 1.317 1_545 S
C172 N174 1.348 . S
C172 C175 1.485 . S
N173 C172 1.317 1_565 S
N173 N177 1.370 1_565 S
N174 C172 1.348 . S
N174 C176 1.346 . S
C175 C172 1.485 . S
C175 H179 0.960 . S
C175 H180 0.961 . S
C175 H181 0.960 1_545 S
C176 N174 1.346 . S
C176 N177 1.307 . S
C176 C178 1.486 . S
N177 N173 1.370 1_545 S
N177 C176 1.307 . S
C178 C176 1.486 . S
C178 H182 0.960 . S
C178 H183 0.960 . S
C178 H184 0.959 . S
H179 C175 0.960 . S
H180 C175 0.961 . S
H181 C175 0.960 1_565 S
H182 C178 0.960 . S
H183 C178 0.960 . S
H184 C178 0.959 . S
C185 N186 1.317 . S
C185 N187 1.348 . S
C185 C188 1.485 . S
N186 C185 1.317 . S
N186 N190 1.370 . S
N187 C185 1.348 . S
N187 C189 1.346 . S
C188 C185 1.485 . S
C188 H192 0.960 . S
C188 H193 0.961 . S
C188 H194 0.960 . S
C189 N187 1.346 . S
C189 N190 1.307 . S
C189 C191 1.486 . S
N190 N186 1.370 . S
N190 C189 1.307 . S
C191 C189 1.486 . S
C191 H195 0.960 . S
C191 H196 0.960 . S
C191 H197 0.959 . S
H192 C188 0.960 . S
H193 C188 0.961 . S
H194 C188 0.960 . S
H195 C191 0.960 . S
H196 C191 0.960 . S
H197 C191 0.959 . S
C198 C199 1.363 . S
C198 C204 1.379 . S
C198 N206 1.356 . S
C199 C198 1.363 . S
C199 C205 1.363 . S
C200 C201 1.363 . S
C200 C205 1.379 . S
C200 N207 1.356 . S
C201 C200 1.363 . S
C201 C204 1.363 . S
N202 C204 1.356 . S
N202 H214 0.984 . S
N202 H215 0.985 . S
N203 C205 1.356 . S
N203 H208 0.984 . S
N203 H209 0.985 . S
C204 C198 1.379 . S
C204 C201 1.363 . S
C204 N202 1.356 . S
C205 C199 1.363 . S
C205 C200 1.379 . S
C205 N203 1.356 . S
N206 C198 1.356 . S
N206 H212 0.984 . S
N206 H213 0.984 . S
N207 C200 1.356 . S
N207 H210 0.984 . S
N207 H211 0.985 . S
H208 N203 0.984 . S
H209 N203 0.985 . S
H210 N207 0.984 . S
H211 N207 0.985 . S
H212 N206 0.984 . S
H213 N206 0.984 . S
H214 N202 0.984 . S
H215 N202 0.985 . S
C216 C217 1.363 . S
C216 C222 1.379 . S
C216 N224 1.356 . S
C217 C216 1.363 . S
C217 C223 1.363 . S
C218 C219 1.363 . S
C218 C223 1.379 . S
C218 N225 1.356 . S
C219 C218 1.363 . S
C219 C222 1.363 . S
N220 C222 1.356 . S
N220 H232 0.983 1_655 S
N220 H233 0.985 1_655 S
N221 C223 1.356 . S
N221 H226 0.984 . S
N221 H227 0.985 . S
C222 C216 1.379 . S
C222 C219 1.363 . S
C222 N220 1.356 . S
C223 C217 1.363 . S
C223 C218 1.379 . S
C223 N221 1.356 . S
N224 C216 1.356 . S
N224 H230 0.984 . S
N224 H231 0.984 . S
N225 C218 1.356 . S
N225 H228 0.984 . S
N225 H229 0.985 . S
H226 N221 0.984 . S
H227 N221 0.985 . S
H228 N225 0.984 . S
H229 N225 0.985 . S
H230 N224 0.984 . S
H231 N224 0.984 . S
H232 N220 0.983 1_455 S
H233 N220 0.985 1_455 S
C234 C235 1.363 . S
C234 C240 1.379 . S
C234 N242 1.356 . S
C235 C234 1.363 . S
C235 C241 1.363 . S
C236 C237 1.363 . S
C236 C241 1.379 . S
C236 N243 1.356 . S
C237 C236 1.363 . S
C237 C240 1.363 . S
N238 C240 1.356 . S
N238 H250 0.984 . S
N238 H251 0.985 . S
N239 C241 1.356 . S
N239 H244 0.984 . S
N239 H245 0.985 . S
C240 C234 1.379 . S
C240 C237 1.363 . S
C240 N238 1.356 . S
C241 C235 1.363 . S
C241 C236 1.379 . S
C241 N239 1.356 . S
N242 C234 1.356 . S
N242 H248 0.984 . S
N242 H249 0.984 . S
N243 C236 1.356 . S
N243 H246 0.984 . S
N243 H247 0.985 . S
H244 N239 0.984 . S
H245 N239 0.985 . S
H246 N243 0.984 . S
H247 N243 0.985 . S
H248 N242 0.984 . S
H249 N242 0.984 . S
H250 N238 0.984 . S
H251 N238 0.985 . S
C252 C253 1.363 . S
C252 C258 1.379 . S
C252 N260 1.356 . S
C253 C252 1.363 . S
C253 C259 1.363 . S
C254 C255 1.363 . S
C254 C259 1.379 . S
C254 N261 1.356 . S
C255 C254 1.363 . S
C255 C258 1.363 . S
N256 C258 1.356 . S
N256 H268 0.984 . S
N256 H269 0.985 . S
N257 C259 1.356 . S
N257 H262 0.984 . S
N257 H263 0.985 . S
C258 C252 1.379 . S
C258 C255 1.363 . S
C258 N256 1.356 . S
C259 C253 1.363 . S
C259 C254 1.379 . S
C259 N257 1.356 . S
N260 C252 1.356 . S
N260 H266 0.984 . S
N260 H267 0.984 . S
N261 C254 1.356 . S
N261 H264 0.984 . S
N261 H265 0.985 . S
H262 N257 0.984 . S
H263 N257 0.985 . S
H264 N261 0.984 . S
H265 N261 0.985 . S
H266 N260 0.984 . S
H267 N260 0.984 . S
H268 N256 0.984 . S
H269 N256 0.985 . S
C270 C271 1.363 . S
C270 C276 1.379 . S
C270 N278 1.356 . S
C271 C270 1.363 . S
C271 C277 1.363 . S
C272 C273 1.363 . S
C272 C277 1.379 . S
C272 N279 1.356 . S
C273 C272 1.363 . S
C273 C276 1.363 . S
N274 C276 1.356 . S
N274 H286 0.984 . S
N274 H287 0.985 . S
N275 C277 1.356 . S
N275 H280 0.984 . S
N275 H281 0.985 . S
C276 C270 1.379 . S
C276 C273 1.363 . S
C276 N274 1.356 . S
C277 C271 1.363 . S
C277 C272 1.379 . S
C277 N275 1.356 . S
N278 C270 1.356 . S
N278 H284 0.984 . S
N278 H285 0.984 . S
N279 C272 1.356 . S
N279 H282 0.984 . S
N279 H283 0.985 . S
H280 N275 0.984 . S
H281 N275 0.985 . S
H282 N279 0.984 . S
H283 N279 0.985 . S
H284 N278 0.984 . S
H285 N278 0.984 . S
H286 N274 0.984 . S
H287 N274 0.985 . S
C288 C289 1.363 . S
C288 C294 1.379 . S
C288 N296 1.356 . S
C289 C288 1.363 . S
C289 C295 1.363 . S
C290 C291 1.363 . S
C290 C295 1.379 . S
C290 N297 1.356 . S
C291 C290 1.363 . S
C291 C294 1.363 . S
N292 C294 1.356 . S
N292 H304 0.984 . S
N292 H305 0.985 . S
N293 C295 1.356 . S
N293 H298 0.984 . S
N293 H299 0.985 . S
C294 C288 1.379 . S
C294 C291 1.363 . S
C294 N292 1.356 . S
C295 C289 1.363 . S
C295 C290 1.379 . S
C295 N293 1.356 . S
N296 C288 1.356 . S
N296 H302 0.984 . S
N296 H303 0.984 . S
N297 C290 1.356 . S
N297 H300 0.984 . S
N297 H301 0.985 . S
H298 N293 0.984 . S
H299 N293 0.985 . S
H300 N297 0.984 . S
H301 N297 0.985 . S
H302 N296 0.984 . S
H303 N296 0.984 . S
H304 N292 0.984 . S
H305 N292 0.985 . S
C306 C307 1.363 . S
C306 C312 1.379 . S
C306 N314 1.356 . S
C307 C306 1.363 . S
C307 C313 1.363 . S
C308 C309 1.363 . S
C308 C313 1.379 . S
C308 N315 1.356 . S
C309 C308 1.363 . S
C309 C312 1.363 . S
N310 C312 1.356 . S
N310 H322 0.984 . S
N310 H323 0.985 . S
N311 C313 1.356 . S
N311 H316 0.984 . S
N311 H317 0.985 . S
C312 C306 1.379 . S
C312 C309 1.363 . S
C312 N310 1.356 . S
C313 C307 1.363 . S
C313 C308 1.379 . S
C313 N311 1.356 . S
N314 C306 1.356 . S
N314 H320 0.984 . S
N314 H321 0.984 . S
N315 C308 1.356 . S
N315 H318 0.984 . S
N315 H319 0.985 . S
H316 N311 0.984 . S
H317 N311 0.985 . S
H318 N315 0.984 . S
H319 N315 0.985 . S
H320 N314 0.984 . S
H321 N314 0.984 . S
H322 N310 0.984 . S
H323 N310 0.985 . S
C324 C325 1.363 . S
C324 C330 1.379 . S
C324 N332 1.356 . S
C325 C324 1.363 . S
C325 C331 1.363 . S
C326 C327 1.363 . S
C326 C331 1.379 . S
C326 N333 1.356 . S
C327 C326 1.363 . S
C327 C330 1.363 . S
N328 C330 1.356 . S
N328 H340 0.984 . S
N328 H341 0.985 . S
N329 C331 1.356 . S
N329 H334 0.984 . S
N329 H335 0.985 . S
C330 C324 1.379 . S
C330 C327 1.363 . S
C330 N328 1.356 . S
C331 C325 1.363 . S
C331 C326 1.379 . S
C331 N329 1.356 . S
N332 C324 1.356 . S
N332 H338 0.984 . S
N332 H339 0.984 . S
N333 C326 1.356 . S
N333 H336 0.984 . S
N333 H337 0.985 . S
H334 N329 0.984 . S
H335 N329 0.985 . S
H336 N333 0.984 . S
H337 N333 0.985 . S
H338 N332 0.984 . S
H339 N332 0.984 . S
H340 N328 0.984 . S
H341 N328 0.985 . S
C342 C343 1.363 . S
C342 C348 1.379 . S
C342 N350 1.356 . S
C343 C342 1.363 . S
C343 C349 1.363 . S
C344 C345 1.363 . S
C344 C349 1.379 . S
C344 N351 1.356 . S
C345 C344 1.363 . S
C345 C348 1.363 . S
N346 C348 1.356 . S
N346 H358 0.984 . S
N346 H359 0.985 . S
N347 C349 1.356 . S
N347 H352 0.984 . S
N347 H353 0.985 . S
C348 C342 1.379 . S
C348 C345 1.363 . S
C348 N346 1.356 . S
C349 C343 1.363 . S
C349 C344 1.379 . S
C349 N347 1.356 . S
N350 C342 1.356 . S
N350 H356 0.984 . S
N350 H357 0.984 . S
N351 C344 1.356 . S
N351 H354 0.984 . S
N351 H355 0.985 . S
H352 N347 0.984 . S
H353 N347 0.985 . S
H354 N351 0.984 . S
H355 N351 0.985 . S
H356 N350 0.984 . S
H357 N350 0.984 . S
H358 N346 0.984 . S
H359 N346 0.985 . S
C360 C361 1.363 . S
C360 C366 1.379 . S
C360 N368 1.356 . S
C361 C360 1.363 . S
C361 C367 1.363 . S
C362 C363 1.363 . S
C362 C367 1.379 . S
C362 N369 1.356 . S
C363 C362 1.363 . S
C363 C366 1.363 . S
N364 C366 1.356 . S
N364 H376 0.984 . S
N364 H377 0.985 . S
N365 C367 1.356 . S
N365 H370 0.984 . S
N365 H371 0.985 . S
C366 C360 1.379 . S
C366 C363 1.363 . S
C366 N364 1.356 . S
C367 C361 1.363 . S
C367 C362 1.379 . S
C367 N365 1.356 . S
N368 C360 1.356 . S
N368 H374 0.984 . S
N368 H375 0.984 . S
N369 C362 1.356 . S
N369 H372 0.984 . S
N369 H373 0.985 . S
H370 N365 0.984 . S
H371 N365 0.985 . S
H372 N369 0.984 . S
H373 N369 0.985 . S
H374 N368 0.984 . S
H375 N368 0.984 . S
H376 N364 0.984 . S
H377 N364 0.985 . S
C378 C379 1.363 . S
C378 C384 1.379 . S
C378 N386 1.356 . S
C379 C378 1.363 . S
C379 C385 1.363 . S
C380 C381 1.363 . S
C380 C385 1.379 . S
C380 N387 1.356 . S
C381 C380 1.363 . S
C381 C384 1.363 . S
N382 C384 1.356 . S
N382 H394 0.984 . S
N382 H395 0.985 . S
N383 C385 1.356 . S
N383 H388 0.984 . S
N383 H389 0.985 . S
C384 C378 1.379 . S
C384 C381 1.363 . S
C384 N382 1.356 . S
C385 C379 1.363 . S
C385 C380 1.379 . S
C385 N383 1.356 . S
N386 C378 1.356 . S
N386 H392 0.984 . S
N386 H393 0.984 . S
N387 C380 1.356 . S
N387 H390 0.984 1_455 S
N387 H391 0.985 1_455 S
H388 N383 0.984 . S
H389 N383 0.985 . S
H390 N387 0.984 1_655 S
H391 N387 0.985 1_655 S
H392 N386 0.984 . S
H393 N386 0.984 . S
H394 N382 0.984 . S
H395 N382 0.985 . S
C396 C397 1.363 . S
C396 C402 1.379 . S
C396 N404 1.356 . S
C397 C396 1.363 . S
C397 C403 1.363 . S
C398 C399 1.363 . S
C398 C403 1.379 . S
C398 N405 1.356 . S
C399 C398 1.363 . S
C399 C402 1.363 . S
N400 C402 1.356 . S
N400 H412 0.984 . S
N400 H413 0.985 . S
N401 C403 1.356 . S
N401 H406 0.984 . S
N401 H407 0.985 . S
C402 C396 1.379 . S
C402 C399 1.363 . S
C402 N400 1.356 . S
C403 C397 1.363 . S
C403 C398 1.379 . S
C403 N401 1.356 . S
N404 C396 1.356 . S
N404 H410 0.984 . S
N404 H411 0.984 . S
N405 C398 1.356 . S
N405 H408 0.984 . S
N405 H409 0.985 . S
H406 N401 0.984 . S
H407 N401 0.985 . S
H408 N405 0.984 . S
H409 N405 0.985 . S
H410 N404 0.984 . S
H411 N404 0.984 . S
H412 N400 0.984 . S
H413 N400 0.985 . S
C414 C415 1.363 . S
C414 C420 1.379 1_554 S
C414 N422 1.356 1_455 S
C415 C414 1.363 . S
C415 C421 1.363 . S
C416 C417 1.363 . S
C416 C421 1.379 1_556 S
C416 N423 1.356 . S
C417 C416 1.363 . S
C417 C420 1.363 . S
N418 C420 1.356 1_655 S
N418 H430 0.984 . S
N418 H431 0.985 1_655 S
N419 C421 1.356 . S
N419 H424 0.984 . S
N419 H425 0.985 . S
C420 C414 1.379 1_556 S
C420 C417 1.363 . S
C420 N418 1.356 1_455 S
C421 C415 1.363 . S
C421 C416 1.379 1_554 S
C421 N419 1.356 . S
N422 C414 1.356 1_655 S
N422 H428 0.984 . S
N422 H429 0.984 . S
N423 C416 1.356 . S
N423 H426 0.984 . S
N423 H427 0.985 . S
H424 N419 0.984 . S
H425 N419 0.985 . S
H426 N423 0.984 . S
H427 N423 0.985 . S
H428 N422 0.984 . S
H429 N422 0.984 . S
H430 N418 0.984 . S
H431 N418 0.985 1_455 S
C432 C433 1.363 . S
C432 C438 1.379 . S
C432 N440 1.356 . S
C433 C432 1.363 . S
C433 C439 1.363 1_545 S
C434 C435 1.363 1_565 S
C434 C439 1.379 . S
C434 N441 1.356 . S
C435 C434 1.363 1_545 S
C435 C438 1.363 . S
N436 C438 1.356 . S
N436 H448 0.984 . S
N436 H449 0.985 . S
N437 C439 1.356 . S
N437 H442 0.984 . S
N437 H443 0.985 . S
C438 C432 1.379 . S
C438 C435 1.363 . S
C438 N436 1.356 . S
C439 C433 1.363 1_565 S
C439 C434 1.379 . S
C439 N437 1.356 . S
N440 C432 1.356 . S
N440 H446 0.984 . S
N440 H447 0.984 . S
N441 C434 1.356 . S
N441 H444 0.984 . S
N441 H445 0.985 . S
H442 N437 0.984 . S
H443 N437 0.985 . S
H444 N441 0.984 . S
H445 N441 0.985 . S
H446 N440 0.984 . S
H447 N440 0.984 . S
H448 N436 0.984 . S
H449 N436 0.985 . S
C450 C451 1.363 . S
C450 C456 1.379 . S
C450 N458 1.356 . S
C451 C450 1.363 . S
C451 C457 1.363 . S
C452 C453 1.363 . S
C452 C457 1.379 . S
C452 N459 1.356 . S
C453 C452 1.363 . S
C453 C456 1.363 . S
N454 C456 1.356 . S
N454 H466 0.984 . S
N454 H467 0.985 . S
N455 C457 1.356 . S
N455 H460 0.984 . S
N455 H461 0.985 . S
C456 C450 1.379 . S
C456 C453 1.363 . S
C456 N454 1.356 . S
C457 C451 1.363 . S
C457 C452 1.379 . S
C457 N455 1.356 . S
N458 C450 1.356 . S
N458 H464 0.984 . S
N458 H465 0.984 . S
N459 C452 1.356 . S
N459 H462 0.984 . S
N459 H463 0.985 . S
H460 N455 0.984 . S
H461 N455 0.985 . S
H462 N459 0.984 . S
H463 N459 0.985 . S
H464 N458 0.984 . S
H465 N458 0.984 . S
H466 N454 0.984 . S
H467 N454 0.985 . S
C468 C469 1.363 . S
C468 C474 1.379 . S
C468 N476 1.356 . S
C469 C468 1.363 . S
C469 C475 1.363 1_565 S
C470 C471 1.363 . S
C470 C475 1.379 . S
C470 N477 1.356 . S
C471 C470 1.363 . S
C471 C474 1.363 1_545 S
N472 C474 1.356 . S
N472 H484 0.984 . S
N472 H485 0.985 . S
N473 C475 1.356 . S
N473 H478 0.984 . S
N473 H479 0.985 . S
C474 C468 1.379 . S
C474 C471 1.363 1_565 S
C474 N472 1.356 . S
C475 C469 1.363 1_545 S
C475 C470 1.379 . S
C475 N473 1.356 . S
N476 C468 1.356 . S
N476 H482 0.984 . S
N476 H483 0.984 . S
N477 C470 1.356 . S
N477 H480 0.984 . S
N477 H481 0.985 . S
H478 N473 0.984 . S
H479 N473 0.985 . S
H480 N477 0.984 . S
H481 N477 0.985 . S
H482 N476 0.984 . S
H483 N476 0.984 . S
H484 N472 0.984 . S
H485 N472 0.985 . S
C486 C487 1.363 . S
C486 C492 1.379 1_556 S
C486 N494 1.356 . S
C487 C486 1.363 . S
C487 C493 1.363 . S
C488 C489 1.363 . S
C488 C493 1.379 1_554 S
C488 N495 1.356 . S
C489 C488 1.363 . S
C489 C492 1.363 . S
N490 C492 1.356 . S
N490 H502 0.984 . S
N490 H503 0.985 . S
N491 C493 1.356 . S
N491 H496 0.984 . S
N491 H497 0.985 . S
C492 C486 1.379 1_554 S
C492 C489 1.363 . S
C492 N490 1.356 . S
C493 C487 1.363 . S
C493 C488 1.379 1_556 S
C493 N491 1.356 . S
N494 C486 1.356 . S
N494 H500 0.984 . S
N494 H501 0.984 . S
N495 C488 1.356 . S
N495 H498 0.984 . S
N495 H499 0.985 . S
H496 N491 0.984 . S
H497 N491 0.985 . S
H498 N495 0.984 . S
H499 N495 0.985 . S
H500 N494 0.984 . S
H501 N494 0.984 . S
H502 N490 0.984 . S
H503 N490 0.985 . S
C504 C505 1.363 . S
C504 C510 1.379 . S
C504 N512 1.356 . S
C505 C504 1.363 . S
C505 C511 1.363 1_655 S
C506 C507 1.363 1_455 S
C506 C511 1.379 . S
C506 N513 1.356 . S
C507 C506 1.363 1_655 S
C507 C510 1.363 . S
N508 C510 1.356 . S
N508 H520 0.984 . S
N508 H521 0.985 . S
N509 C511 1.356 . S
N509 H514 0.984 . S
N509 H515 0.985 . S
C510 C504 1.379 . S
C510 C507 1.363 . S
C510 N508 1.356 . S
C511 C505 1.363 1_455 S
C511 C506 1.379 . S
C511 N509 1.356 . S
N512 C504 1.356 . S
N512 H518 0.984 . S
N512 H519 0.984 . S
N513 C506 1.356 . S
N513 H516 0.984 . S
N513 H517 0.985 . S
H514 N509 0.984 . S
H515 N509 0.985 . S
H516 N513 0.984 . S
H517 N513 0.985 . S
H518 N512 0.984 . S
H519 N512 0.984 . S
H520 N508 0.984 . S
H521 N508 0.985 . S
C199 C10 2.945 . S
C201 N187 2.895 . S
C217 C55 1.194 . S
C219 N160 1.197 . S
C235 C90 1.868 . S
C237 N173 1.906 . S
C253 C19 3.237 . S
C255 N186 3.282 . S
C273 N161 1.558 . S
C271 C46 1.470 . S
C291 N174 2.045 . S
C289 C99 2.029 . S
C307 C50 1.861 . S
C309 N134 1.862 . S
C325 C95 0.790 . S
C327 N148 0.814 . S
C343 C6 1.413 . S
C345 N122 1.474 . S
C363 N135 1.995 . S
C361 C59 2.001 . S
C381 N147 1.164 . S
C379 C86 1.031 . S
C397 C15 1.411 . S
C399 N121 1.406 . S
C417 N151 1.189 . S
C415 C18 1.208 . S
C433 C49 1.446 . S
C435 N125 1.526 . S
C451 C98 1.401 . S
C453 N138 1.437 . S
C471 N177 1.460 . S
C469 C58 1.448 1_565 S
C489 N190 1.762 . S
C487 C89 1.771 . S
C505 C9 1.475 . S
C507 N164 1.588 1_655 S
