# Generated by pormake.
# Topology cml, (3,6)-cn, num edge types: 1
# Building blocks:
#     Node 0, Type 0, BuildingBlock: KAKCAD_clean_linker_0, # of connection points: 3
#     Node 1, Type 0, BuildingBlock: KAKCAD_clean_linker_0, # of connection points: 3
#     Node 2, Type 0, BuildingBlock: KAKCAD_clean_linker_0, # of connection points: 3
#     Node 3, Type 0, BuildingBlock: KAKCAD_clean_linker_0, # of connection points: 3
#     Node 4, Type 0, BuildingBlock: KAKCAD_clean_linker_0, # of connection points: 3
#     Node 5, Type 0, BuildingBlock: KAKCAD_clean_linker_0, # of connection points: 3
#     Node 6, Type 0, BuildingBlock: KAKCAD_clean_linker_0, # of connection points: 3
#     Node 7, Type 0, BuildingBlock: KAKCAD_clean_linker_0, # of connection points: 3
#     Node 8, Type 1, BuildingBlock: IZENUY_clean_sbu_0, # of connection points: 6
#     Node 9, Type 1, BuildingBlock: IZENUY_clean_sbu_0, # of connection points: 6
#     Node 10, Type 1, BuildingBlock: IZENUY_clean_sbu_0, # of connection points: 6
#     Node 11, Type 1, BuildingBlock: IZENUY_clean_sbu_0, # of connection points: 6
#     Edge 12, Type (0, 1), None
#     Edge 13, Type (0, 1), None
#     Edge 14, Type (0, 1), None
#     Edge 15, Type (0, 1), None
#     Edge 16, Type (0, 1), None
#     Edge 17, Type (0, 1), None
#     Edge 18, Type (0, 1), None
#     Edge 19, Type (0, 1), None
#     Edge 20, Type (0, 1), None
#     Edge 21, Type (0, 1), None
#     Edge 22, Type (0, 1), None
#     Edge 23, Type (0, 1), None
#     Edge 24, Type (0, 1), None
#     Edge 25, Type (0, 1), None
#     Edge 26, Type (0, 1), None
#     Edge 27, Type (0, 1), None
#     Edge 28, Type (0, 1), None
#     Edge 29, Type (0, 1), None
#     Edge 30, Type (0, 1), None
#     Edge 31, Type (0, 1), None
#     Edge 32, Type (0, 1), None
#     Edge 33, Type (0, 1), None
#     Edge 34, Type (0, 1), None
#     Edge 35, Type (0, 1), None
# Relax obj value: 0.054
# Max RMSD: 0.072
# Mean RMSD: 0.068
data_MOF--net-cml--node1-IZENUY_clean_sbu_0--node2-KAKCAD_clean_linker_0--edge1-none
_symmetry_space_group_name_H-M    P1
_symmetry_Int_Tables_number       1
_symmetry_cell_setting            triclinic
loop_
_symmetry_equiv_pos_as_xyz
'x, y, z'
_cell_length_a     23.843216
_cell_length_b     27.661965
_cell_length_c     25.742199
_cell_angle_alpha  89.899256
_cell_angle_beta   90.057776
_cell_angle_gamma 90.684574
loop_
_atom_site_label
_atom_site_type_symbol
_atom_site_fract_x
_atom_site_fract_y
_atom_site_fract_z
_atom_type_partial_charge
C0 C 0.36795 0.55271 0.96805 0.0
C1 C 0.3893 0.54703 0.9176 0.0
C2 C 0.33699 0.51536 0.9915 0.0
C3 C 0.32635 0.47185 0.9648 0.0
C4 C 0.34417 0.46764 0.91309 0.0
C5 C 0.37542 0.50478 0.88978 0.0
C6 C 0.30365 0.42892 0.99275 0.0
C7 C 0.2629 0.39847 0.97026 0.0
C8 C 0.24522 0.35555 0.99544 0.0
C9 C 0.27006 0.3431 0.04344 0.0
C10 C 0.31226 0.37253 0.06526 0.0
C11 C 0.32752 0.41582 0.04032 0.0
C12 C 0.34433 0.35756 0.1119 0.0
C13 C 0.31762 0.34434 0.15865 0.0
C14 C 0.40312 0.36095 0.11068 0.0
C15 C 0.43434 0.35536 0.15585 0.0
C16 C 0.40768 0.34548 0.20326 0.0
C17 C 0.20267 0.32308 0.97036 0.0
C18 C 0.15815 0.34243 0.94127 0.0
C19 C 0.20668 0.27247 0.97436 0.0
C20 C 0.16698 0.24217 0.95052 0.0
C21 C 0.12275 0.26166 0.92139 0.0
C22 C 0.11901 0.31211 0.91673 0.0
C23 C 0.34929 0.33821 0.20427 0.0
H24 H 0.37755 0.58488 0.99043 0.0
H25 H 0.32325 0.5197 0.0313 0.0
H26 H 0.33695 0.43447 0.89166 0.0
H27 H 0.3907 0.49948 0.85061 0.0
H28 H 0.24593 0.40785 0.93257 0.0
H29 H 0.36021 0.43854 0.05706 0.0
H30 H 0.25777 0.31007 0.06327 0.0
H31 H 0.27233 0.34138 0.16049 0.0
H32 H 0.42493 0.36999 0.07497 0.0
H33 H 0.47945 0.36051 0.1541 0.0
H34 H 0.15294 0.38114 0.93795 0.0
H35 H 0.24092 0.25604 0.99535 0.0
H36 H 0.32803 0.33066 0.24061 0.0
H37 H 0.08504 0.32829 0.8951 0.0
H38 H 0.17117 0.20339 0.95462 0.0
C39 C 0.64993 0.46056 0.46601 0.0
C40 C 0.62907 0.46581 0.41527 0.0
C41 C 0.67974 0.49845 0.48967 0.0
C42 C 0.68974 0.54213 0.46294 0.0
C43 C 0.6725 0.54597 0.41097 0.0
C44 C 0.64236 0.50828 0.38744 0.0
C45 C 0.71127 0.58544 0.491 0.0
C46 C 0.75192 0.61638 0.46903 0.0
C47 C 0.76902 0.65926 0.49457 0.0
C48 C 0.74339 0.6713 0.54226 0.0
C49 C 0.70121 0.64142 0.56356 0.0
C50 C 0.68675 0.59811 0.53833 0.0
C51 C 0.66888 0.65565 0.61031 0.0
C52 C 0.69541 0.67059 0.65658 0.0
C53 C 0.61023 0.65022 0.60967 0.0
C54 C 0.57924 0.65552 0.65496 0.0
C55 C 0.60587 0.66726 0.70192 0.0
C56 C 0.81227 0.69182 0.47045 0.0
C57 C 0.85708 0.67244 0.44195 0.0
C58 C 0.80883 0.74246 0.47485 0.0
C59 C 0.8492 0.77272 0.45171 0.0
C60 C 0.8935 0.75316 0.42289 0.0
C61 C 0.89681 0.70269 0.41812 0.0
C62 C 0.66393 0.67651 0.70228 0.0
H63 H 0.64068 0.42829 0.48847 0.0
H64 H 0.69306 0.49435 0.52967 0.0
H65 H 0.67925 0.57923 0.38947 0.0
H66 H 0.62736 0.51333 0.34809 0.0
H67 H 0.76946 0.60727 0.43156 0.0
H68 H 0.65435 0.57488 0.55475 0.0
H69 H 0.75524 0.70424 0.56234 0.0
H70 H 0.74056 0.67517 0.65805 0.0
H71 H 0.5884 0.64001 0.57435 0.0
H72 H 0.53434 0.64892 0.65362 0.0
H73 H 0.86204 0.63373 0.43846 0.0
H74 H 0.7745 0.75894 0.49551 0.0
H75 H 0.6852 0.68557 0.73823 0.0
H76 H 0.93081 0.68638 0.39676 0.0
H77 H 0.84535 0.8115 0.4559 0.0
C78 C 0.63129 0.5025 0.87602 0.0
C79 C 0.61856 0.54442 0.90425 0.0
C80 C 0.66195 0.46534 0.89933 0.0
C81 C 0.68061 0.46979 0.951 0.0
C82 C 0.67184 0.51351 0.97733 0.0
C83 C 0.64088 0.55023 0.95437 0.0
C84 C 0.70341 0.42762 0.97959 0.0
C85 C 0.74246 0.39651 0.95681 0.0
C86 C 0.76217 0.35583 0.98412 0.0
C87 C 0.74146 0.34631 0.03448 0.0
C88 C 0.70317 0.37757 0.05784 0.0
C89 C 0.68428 0.4178 0.0301 0.0
C90 C 0.68145 0.36861 0.11094 0.0
C91 C 0.65626 0.32413 0.12412 0.0
C92 C 0.68112 0.40643 0.14723 0.0
C93 C 0.65331 0.40093 0.19457 0.0
C94 C 0.62462 0.3576 0.20649 0.0
C95 C 0.80532 0.32401 0.96077 0.0
C96 C 0.80446 0.31292 0.90742 0.0
C97 C 0.84829 0.30487 0.99179 0.0
C98 C 0.88907 0.27523 0.97022 0.0
C99 C 0.88842 0.26438 0.9169 0.0
C100 C 0.84569 0.2836 0.88568 0.0
C101 C 0.62787 0.3187 0.17143 0.0
H102 H 0.61457 0.4971 0.8373 0.0
H103 H 0.66802 0.43206 0.87807 0.0
H104 H 0.68692 0.51855 0.01669 0.0
H105 H 0.63253 0.58253 0.9767 0.0
H106 H 0.75849 0.40477 0.91841 0.0
H107 H 0.65304 0.44084 0.04756 0.0
H108 H 0.7553 0.3148 0.05578 0.0
H109 H 0.65589 0.29446 0.0967 0.0
H110 H 0.70085 0.44091 0.13819 0.0
H111 H 0.65219 0.43154 0.22071 0.0
H112 H 0.77158 0.32646 0.88246 0.0
H113 H 0.85106 0.31335 0.03277 0.0
H114 H 0.60646 0.28476 0.17946 0.0
H115 H 0.84378 0.27564 0.84453 0.0
H116 H 0.92159 0.26134 0.99537 0.0
C117 C 0.35979 0.61116 0.69791 0.0
C118 C 0.38751 0.65487 0.71009 0.0
C119 C 0.33114 0.60594 0.65091 0.0
C120 C 0.32899 0.64442 0.61536 0.0
C121 C 0.35267 0.68929 0.62917 0.0
C122 C 0.38186 0.69445 0.67609 0.0
C123 C 0.30953 0.63557 0.56153 0.0
C124 C 0.27027 0.66546 0.53739 0.0
C125 C 0.25372 0.65717 0.48546 0.0
C126 C 0.27936 0.61969 0.45725 0.0
C127 C 0.32034 0.59069 0.48064 0.0
C128 C 0.33358 0.59808 0.53318 0.0
C129 C 0.3517 0.55377 0.45082 0.0
C130 C 0.3248 0.52217 0.41558 0.0
C131 C 0.40945 0.54852 0.45992 0.0
C132 C 0.43873 0.51076 0.43759 0.0
C133 C 0.4115 0.47792 0.40444 0.0
C134 C 0.2099 0.68782 0.46107 0.0
C135 C 0.16404 0.7036 0.4906 0.0
C136 C 0.21342 0.70183 0.40853 0.0
C137 C 0.17224 0.73105 0.38628 0.0
C138 C 0.12707 0.74737 0.41626 0.0
C139 C 0.12346 0.73326 0.46862 0.0
C140 C 0.35474 0.48456 0.39218 0.0
H141 H 0.36273 0.58003 0.72331 0.0
H142 H 0.31281 0.57107 0.64121 0.0
H143 H 0.35177 0.71942 0.60226 0.0
H144 H 0.40233 0.72873 0.68443 0.0
H145 H 0.25276 0.69515 0.5592 0.0
H146 H 0.36423 0.57527 0.552 0.0
H147 H 0.26796 0.61335 0.41709 0.0
H148 H 0.28038 0.52536 0.40766 0.0
H149 H 0.43203 0.57316 0.48532 0.0
H150 H 0.48288 0.50692 0.44668 0.0
H151 H 0.15908 0.69273 0.53078 0.0
H152 H 0.24849 0.69099 0.38473 0.0
H153 H 0.33314 0.45961 0.36643 0.0
H154 H 0.08886 0.74476 0.4927 0.0
H155 H 0.17632 0.74156 0.34589 0.0
C156 C 0.86795 0.05271 0.96805 0.0
C157 C 0.8893 0.04703 0.9176 0.0
C158 C 0.83699 0.01536 0.9915 0.0
C159 C 0.82635 0.97185 0.9648 0.0
C160 C 0.84417 0.96764 0.91309 0.0
C161 C 0.87542 1.00478 0.88978 0.0
C162 C 0.80365 0.92892 0.99275 0.0
C163 C 0.7629 0.89847 0.97026 0.0
C164 C 0.74522 0.85555 0.99543 0.0
C165 C 0.77006 0.8431 0.04344 0.0
C166 C 0.81226 0.87253 0.06526 0.0
C167 C 0.82752 0.91582 0.04032 0.0
C168 C 0.84433 0.85756 0.1119 0.0
C169 C 0.81762 0.84434 0.15865 0.0
C170 C 0.90312 0.86095 0.11068 0.0
C171 C 0.93434 0.85536 0.15585 0.0
C172 C 0.90768 0.84548 0.20326 0.0
C173 C 0.70267 0.82308 0.97036 0.0
C174 C 0.65816 0.84243 0.94127 0.0
C175 C 0.70668 0.77247 0.97436 0.0
C176 C 0.66698 0.74217 0.95052 0.0
C177 C 0.62275 0.76166 0.92139 0.0
C178 C 0.61901 0.81211 0.91673 0.0
C179 C 0.84929 0.83821 0.20427 0.0
H180 H 0.87755 0.08488 0.99043 0.0
H181 H 0.82325 0.0197 0.0313 0.0
H182 H 0.83696 0.93447 0.89166 0.0
H183 H 0.8907 0.99948 0.85061 0.0
H184 H 0.74593 0.90785 0.93257 0.0
H185 H 0.86021 0.93854 0.05706 0.0
H186 H 0.75777 0.81007 0.06327 0.0
H187 H 0.77233 0.84138 0.16049 0.0
H188 H 0.92493 0.86999 0.07497 0.0
H189 H 0.97945 0.86051 0.1541 0.0
H190 H 0.65294 0.88114 0.93795 0.0
H191 H 0.74092 0.75604 0.99535 0.0
H192 H 0.82803 0.83066 0.24061 0.0
H193 H 0.58504 0.82829 0.8951 0.0
H194 H 0.67117 0.70339 0.95462 0.0
C195 C 0.14993 0.96056 0.46601 0.0
C196 C 0.12907 0.96581 0.41527 0.0
C197 C 0.17974 0.99845 0.48967 0.0
C198 C 0.18974 0.04213 0.46294 0.0
C199 C 0.1725 0.04597 0.41097 0.0
C200 C 0.14236 0.00828 0.38744 0.0
C201 C 0.21127 0.08544 0.491 0.0
C202 C 0.25192 0.11638 0.46903 0.0
C203 C 0.26902 0.15926 0.49457 0.0
C204 C 0.24339 0.1713 0.54226 0.0
C205 C 0.20121 0.14142 0.56356 0.0
C206 C 0.18675 0.09811 0.53833 0.0
C207 C 0.16888 0.15565 0.61031 0.0
C208 C 0.19541 0.17059 0.65658 0.0
C209 C 0.11023 0.15023 0.60967 0.0
C210 C 0.07924 0.15552 0.65496 0.0
C211 C 0.10587 0.16726 0.70192 0.0
C212 C 0.31227 0.19182 0.47045 0.0
C213 C 0.35708 0.17244 0.44195 0.0
C214 C 0.30883 0.24246 0.47485 0.0
C215 C 0.3492 0.27272 0.45171 0.0
C216 C 0.3935 0.25316 0.42289 0.0
C217 C 0.39681 0.20269 0.41812 0.0
C218 C 0.16393 0.17651 0.70228 0.0
H219 H 0.14068 0.92829 0.48847 0.0
H220 H 0.19306 0.99435 0.52967 0.0
H221 H 0.17925 0.07923 0.38947 0.0
H222 H 0.12736 0.01333 0.34809 0.0
H223 H 0.26946 0.10727 0.43156 0.0
H224 H 0.15435 0.07488 0.55475 0.0
H225 H 0.25524 0.20424 0.56234 0.0
H226 H 0.24056 0.17517 0.65805 0.0
H227 H 0.08839 0.14001 0.57435 0.0
H228 H 0.03434 0.14892 0.65362 0.0
H229 H 0.36204 0.13373 0.43846 0.0
H230 H 0.2745 0.25894 0.49551 0.0
H231 H 0.1852 0.18557 0.73823 0.0
H232 H 0.43081 0.18638 0.39676 0.0
H233 H 0.34535 0.3115 0.4559 0.0
C234 C 0.13129 1.00251 0.87602 0.0
C235 C 0.11856 0.04442 0.90425 0.0
C236 C 0.16195 0.96534 0.89933 0.0
C237 C 0.18061 0.96979 0.951 0.0
C238 C 0.17184 0.01351 0.97733 0.0
C239 C 0.14088 0.05023 0.95437 0.0
C240 C 0.20341 0.92762 0.97959 0.0
C241 C 0.24246 0.89651 0.95681 0.0
C242 C 0.26217 0.85583 0.98412 0.0
C243 C 0.24146 0.84631 0.03448 0.0
C244 C 0.20317 0.87757 0.05784 0.0
C245 C 0.18428 0.9178 0.0301 0.0
C246 C 0.18145 0.86861 0.11094 0.0
C247 C 0.15626 0.82413 0.12412 0.0
C248 C 0.18112 0.90643 0.14723 0.0
C249 C 0.15331 0.90093 0.19457 0.0
C250 C 0.12461 0.8576 0.20649 0.0
C251 C 0.30532 0.82401 0.96077 0.0
C252 C 0.30446 0.81292 0.90742 0.0
C253 C 0.34829 0.80487 0.99179 0.0
C254 C 0.38907 0.77523 0.97022 0.0
C255 C 0.38842 0.76438 0.9169 0.0
C256 C 0.34569 0.7836 0.88568 0.0
C257 C 0.12787 0.8187 0.17143 0.0
H258 H 0.11457 0.9971 0.8373 0.0
H259 H 0.16802 0.93206 0.87807 0.0
H260 H 0.18692 0.01855 0.01669 0.0
H261 H 0.13253 0.08253 0.9767 0.0
H262 H 0.25849 0.90478 0.91841 0.0
H263 H 0.15304 0.94084 0.04756 0.0
H264 H 0.2553 0.8148 0.05578 0.0
H265 H 0.15589 0.79446 0.0967 0.0
H266 H 0.20085 0.94091 0.13819 0.0
H267 H 0.15219 0.93154 0.22071 0.0
H268 H 0.27158 0.82646 0.88246 0.0
H269 H 0.35106 0.81335 0.03277 0.0
H270 H 0.10646 0.78476 0.17946 0.0
H271 H 0.34378 0.77564 0.84453 0.0
H272 H 0.42159 0.76134 0.99537 0.0
C273 C 0.85979 0.11116 0.69791 0.0
C274 C 0.88751 0.15487 0.71009 0.0
C275 C 0.83114 0.10594 0.65091 0.0
C276 C 0.82899 0.14442 0.61536 0.0
C277 C 0.85267 0.18929 0.62917 0.0
C278 C 0.88186 0.19445 0.67609 0.0
C279 C 0.80953 0.13557 0.56153 0.0
C280 C 0.77026 0.16546 0.53739 0.0
C281 C 0.75372 0.15717 0.48546 0.0
C282 C 0.77936 0.11969 0.45725 0.0
C283 C 0.82034 0.09069 0.48064 0.0
C284 C 0.83358 0.09808 0.53318 0.0
C285 C 0.8517 0.05377 0.45082 0.0
C286 C 0.8248 0.02217 0.41558 0.0
C287 C 0.90945 0.04852 0.45992 0.0
C288 C 0.93873 0.01076 0.43759 0.0
C289 C 0.9115 0.97792 0.40444 0.0
C290 C 0.7099 0.18782 0.46107 0.0
C291 C 0.66404 0.2036 0.4906 0.0
C292 C 0.71342 0.20183 0.40853 0.0
C293 C 0.67224 0.23105 0.38628 0.0
C294 C 0.62707 0.24737 0.41626 0.0
C295 C 0.62346 0.23326 0.46862 0.0
C296 C 0.85473 0.98456 0.39218 0.0
H297 H 0.86273 0.08003 0.72331 0.0
H298 H 0.81281 0.07107 0.64121 0.0
H299 H 0.85177 0.21942 0.60226 0.0
H300 H 0.90233 0.22873 0.68443 0.0
H301 H 0.75276 0.19515 0.5592 0.0
H302 H 0.86423 0.07527 0.552 0.0
H303 H 0.76796 0.11335 0.41709 0.0
H304 H 0.78038 0.02536 0.40766 0.0
H305 H 0.93203 0.07316 0.48532 0.0
H306 H 0.98288 1.00692 0.44668 0.0
H307 H 0.65908 0.19273 0.53078 0.0
H308 H 0.74849 0.19099 0.38473 0.0
H309 H 0.83314 0.95961 0.36643 0.0
H310 H 0.58886 0.24476 0.4927 0.0
H311 H 0.67632 0.24156 0.34589 0.0
Fe312 Fe 0.01176 0.79855 0.31403 0.0
Fe313 Fe 0.01287 0.85808 0.41465 0.0
O314 O 0.01305 0.85534 0.34596 0.0
Fe315 Fe 0.01494 0.90945 0.30936 0.0
O316 O 0.97413 0.88498 0.25511 0.0
O317 O 0.94667 0.81242 0.28011 0.0
O318 O 0.96881 0.76812 0.36419 0.0
C319 C 0.93698 0.78493 0.39912 0.0
C320 C 0.0868 0.85517 0.25218 0.0
O321 O 0.94582 0.82647 0.41782 0.0
C322 C 0.08869 0.93015 0.39326 0.0
O323 O 0.07681 0.78082 0.3452 0.0
O324 O 0.05165 0.80181 0.42396 0.0
O325 O 0.0803 0.89281 0.27897 0.0
O326 O 0.05446 0.81884 0.2582 0.0
C327 C 0.94321 0.93621 0.38564 0.0
O328 O 0.07992 0.89024 0.41601 0.0
O329 O 0.05691 0.94369 0.35672 0.0
C330 C 0.08395 0.77928 0.39373 0.0
O331 O 0.97443 0.91489 0.41793 0.0
O332 O 0.94939 0.93004 0.33748 0.0
C333 C 0.94145 0.84884 0.25098 0.0
Fe334 Fe 1.00528 0.15547 0.91516 0.0
Fe335 Fe 1.00102 0.10347 0.81028 0.0
O336 O 1.0035 0.15782 0.84646 0.0
Fe337 Fe 1.00361 0.21445 0.81391 0.0
O338 O 0.04722 0.24578 0.86293 0.0
O339 O 0.07142 0.18819 0.91714 0.0
O340 O 0.04611 0.0999 0.91811 0.0
C341 C 0.07703 0.07939 0.88502 0.0
C342 C 0.93223 0.23323 0.89439 0.0
O343 O 0.06743 0.0834 0.83697 0.0
C344 C 0.92702 0.15723 0.75458 0.0
O345 O 0.93912 0.12216 0.91815 0.0
O346 O 0.96117 0.06891 0.85874 0.0
O347 O 0.93915 0.232 0.84585 0.0
O348 O 0.96498 0.21089 0.92456 0.0
C349 C 0.07263 0.16419 0.74999 0.0
O350 O 0.93454 0.11964 0.78139 0.0
O351 O 0.95977 0.19346 0.75919 0.0
C352 C 0.93008 0.08232 0.89564 0.0
O353 O 0.03999 0.12809 0.75488 0.0
O354 O 0.0681 0.20062 0.77909 0.0
C355 C 0.07949 0.2296 0.89792 0.0
Fe356 Fe 0.51176 0.29855 0.31403 0.0
Fe357 Fe 0.51287 0.35808 0.41465 0.0
O358 O 0.51305 0.35534 0.34596 0.0
Fe359 Fe 0.51494 0.40945 0.30936 0.0
O360 O 0.47413 0.38498 0.25511 0.0
O361 O 0.44667 0.31242 0.28011 0.0
O362 O 0.46881 0.26812 0.36419 0.0
C363 C 0.43698 0.28493 0.39912 0.0
C364 C 0.5868 0.35517 0.25218 0.0
O365 O 0.44582 0.32647 0.41782 0.0
C366 C 0.58869 0.43015 0.39326 0.0
O367 O 0.57681 0.28082 0.3452 0.0
O368 O 0.55165 0.30181 0.42396 0.0
O369 O 0.5803 0.39281 0.27897 0.0
O370 O 0.55446 0.31884 0.2582 0.0
C371 C 0.44321 0.43621 0.38564 0.0
O372 O 0.57992 0.39024 0.41601 0.0
O373 O 0.55691 0.44369 0.35672 0.0
C374 C 0.58395 0.27928 0.39373 0.0
O375 O 0.47443 0.41489 0.41793 0.0
O376 O 0.44939 0.43004 0.33748 0.0
C377 C 0.44145 0.34884 0.25098 0.0
Fe378 Fe 0.50528 0.65547 0.91516 0.0
Fe379 Fe 0.50102 0.60347 0.81028 0.0
O380 O 0.5035 0.65782 0.84646 0.0
Fe381 Fe 0.50361 0.71445 0.81391 0.0
O382 O 0.54722 0.74578 0.86293 0.0
O383 O 0.57142 0.68819 0.91714 0.0
O384 O 0.54611 0.5999 0.91811 0.0
C385 C 0.57703 0.57939 0.88502 0.0
C386 C 0.43223 0.73323 0.89439 0.0
O387 O 0.56743 0.5834 0.83697 0.0
C388 C 0.42702 0.65723 0.75458 0.0
O389 O 0.43912 0.62216 0.91815 0.0
O390 O 0.46117 0.56891 0.85874 0.0
O391 O 0.43915 0.732 0.84585 0.0
O392 O 0.46498 0.71089 0.92456 0.0
C393 C 0.57263 0.66419 0.74999 0.0
O394 O 0.43454 0.61964 0.78139 0.0
O395 O 0.45977 0.69346 0.75919 0.0
C396 C 0.43008 0.58232 0.89564 0.0
O397 O 0.53999 0.62809 0.75488 0.0
O398 O 0.5681 0.70062 0.77909 0.0
C399 C 0.57949 0.7296 0.89792 0.0
loop_
_geom_bond_atom_site_label_1
_geom_bond_atom_site_label_2
_geom_bond_distance
_geom_bond_site_symmetry_2
_ccdc_geom_bond_type
C0 C1 1.386 . S
C0 C2 1.397 . S
C0 H24 0.931 . S
C1 C0 1.386 . S
C1 C5 1.397 . S
C2 C0 1.397 . S
C2 C3 1.384 . S
C2 H25 0.930 . S
C3 C2 1.384 . S
C3 C4 1.377 . S
C3 C6 1.481 . S
C4 C3 1.377 . S
C4 C5 1.389 . S
C4 H26 0.929 . S
C5 C1 1.397 . S
C5 C4 1.389 . S
C5 H27 0.931 . S
C6 C3 1.481 . S
C6 C7 1.387 . S
C6 C11 1.390 1_556 S
C7 C6 1.387 . S
C7 C8 1.401 . S
C7 H28 0.930 . S
C8 C7 1.401 . S
C8 C9 1.376 1_556 S
C8 C17 1.511 . S
C9 C8 1.376 1_554 S
C9 C10 1.392 . S
C9 H30 0.931 . S
C10 C9 1.392 . S
C10 C11 1.361 . S
C10 C12 1.500 . S
C11 C6 1.390 1_554 S
C11 C10 1.361 . S
C11 H29 0.931 . S
C12 C10 1.500 . S
C12 C13 1.371 . S
C12 C14 1.365 . S
C13 C12 1.371 . S
C13 C23 1.386 . S
C13 H31 0.931 . S
C14 C12 1.365 . S
C14 C15 1.409 . S
C14 H32 0.929 . S
C15 C14 1.409 . S
C15 C16 1.380 . S
C15 H33 0.930 . S
C16 C15 1.380 . S
C16 C23 1.357 . S
C17 C8 1.511 . S
C17 C18 1.341 . S
C17 C19 1.371 . S
C18 C17 1.341 . S
C18 C22 1.394 . S
C18 H34 0.930 . S
C19 C17 1.371 . S
C19 C20 1.392 . S
C19 H35 0.931 1_556 S
C20 C19 1.392 . S
C20 C21 1.331 . S
C20 H38 0.932 . S
C21 C20 1.331 . S
C21 C22 1.336 . S
C22 C18 1.394 . S
C22 C21 1.336 . S
C22 H37 0.929 . S
C23 C13 1.386 . S
C23 C16 1.357 . S
C23 H36 0.928 . S
H24 C0 0.931 . S
H25 C2 0.930 . S
H26 C4 0.929 . S
H27 C5 0.931 . S
H28 C7 0.930 . S
H29 C11 0.931 . S
H30 C9 0.931 . S
H31 C13 0.931 . S
H32 C14 0.929 . S
H33 C15 0.930 . S
H34 C18 0.930 . S
H35 C19 0.931 1_554 S
H36 C23 0.928 . S
H37 C22 0.929 . S
H38 C20 0.932 . S
C39 C40 1.386 . S
C39 C41 1.397 . S
C39 H63 0.931 . S
C40 C39 1.386 . S
C40 C44 1.397 . S
C41 C39 1.397 . S
C41 C42 1.384 . S
C41 H64 0.930 . S
C42 C41 1.384 . S
C42 C43 1.377 . S
C42 C45 1.481 . S
C43 C42 1.377 . S
C43 C44 1.389 . S
C43 H65 0.929 . S
C44 C40 1.397 . S
C44 C43 1.389 . S
C44 H66 0.931 . S
C45 C42 1.481 . S
C45 C46 1.387 . S
C45 C50 1.390 . S
C46 C45 1.387 . S
C46 C47 1.401 . S
C46 H67 0.930 . S
C47 C46 1.401 . S
C47 C48 1.376 . S
C47 C56 1.511 . S
C48 C47 1.376 . S
C48 C49 1.392 . S
C48 H69 0.931 . S
C49 C48 1.392 . S
C49 C50 1.361 . S
C49 C51 1.500 . S
C50 C45 1.390 . S
C50 C49 1.361 . S
C50 H68 0.931 . S
C51 C49 1.500 . S
C51 C52 1.371 . S
C51 C53 1.365 . S
C52 C51 1.371 . S
C52 C62 1.386 . S
C52 H70 0.931 . S
C53 C51 1.365 . S
C53 C54 1.409 . S
C53 H71 0.929 . S
C54 C53 1.409 . S
C54 C55 1.380 . S
C54 H72 0.930 . S
C55 C54 1.380 . S
C55 C62 1.357 . S
C56 C47 1.511 . S
C56 C57 1.341 . S
C56 C58 1.371 . S
C57 C56 1.341 . S
C57 C61 1.394 . S
C57 H73 0.930 . S
C58 C56 1.371 . S
C58 C59 1.392 . S
C58 H74 0.931 . S
C59 C58 1.392 . S
C59 C60 1.331 . S
C59 H77 0.932 . S
C60 C59 1.331 . S
C60 C61 1.336 . S
C61 C57 1.394 . S
C61 C60 1.336 . S
C61 H76 0.929 . S
C62 C52 1.386 . S
C62 C55 1.357 . S
C62 H75 0.928 . S
H63 C39 0.931 . S
H64 C41 0.930 . S
H65 C43 0.929 . S
H66 C44 0.931 . S
H67 C46 0.930 . S
H68 C50 0.931 . S
H69 C48 0.931 . S
H70 C52 0.931 . S
H71 C53 0.929 . S
H72 C54 0.930 . S
H73 C57 0.930 . S
H74 C58 0.931 . S
H75 C62 0.928 . S
H76 C61 0.929 . S
H77 C59 0.932 . S
C78 C79 1.386 . S
C78 C80 1.397 . S
C78 H102 0.931 . S
C79 C78 1.386 . S
C79 C83 1.397 . S
C80 C78 1.397 . S
C80 C81 1.384 . S
C80 H103 0.930 . S
C81 C80 1.384 . S
C81 C82 1.377 . S
C81 C84 1.481 . S
C82 C81 1.377 . S
C82 C83 1.389 . S
C82 H104 0.929 1_556 S
C83 C79 1.397 . S
C83 C82 1.389 . S
C83 H105 0.931 . S
C84 C81 1.481 . S
C84 C85 1.387 . S
C84 C89 1.390 1_556 S
C85 C84 1.387 . S
C85 C86 1.401 . S
C85 H106 0.930 . S
C86 C85 1.401 . S
C86 C87 1.376 1_556 S
C86 C95 1.511 . S
C87 C86 1.376 1_554 S
C87 C88 1.392 . S
C87 H108 0.931 . S
C88 C87 1.392 . S
C88 C89 1.361 . S
C88 C90 1.500 . S
C89 C84 1.390 1_554 S
C89 C88 1.361 . S
C89 H107 0.931 . S
C90 C88 1.500 . S
C90 C91 1.371 . S
C90 C92 1.365 . S
C91 C90 1.371 . S
C91 C101 1.386 . S
C91 H109 0.931 . S
C92 C90 1.365 . S
C92 C93 1.409 . S
C92 H110 0.929 . S
C93 C92 1.409 . S
C93 C94 1.380 . S
C93 H111 0.930 . S
C94 C93 1.380 . S
C94 C101 1.357 . S
C95 C86 1.511 . S
C95 C96 1.341 . S
C95 C97 1.371 . S
C96 C95 1.341 . S
C96 C100 1.394 . S
C96 H112 0.930 . S
C97 C95 1.371 . S
C97 C98 1.392 . S
C97 H113 0.931 1_556 S
C98 C97 1.392 . S
C98 C99 1.331 . S
C98 H116 0.932 . S
C99 C98 1.331 . S
C99 C100 1.336 . S
C100 C96 1.394 . S
C100 C99 1.336 . S
C100 H115 0.929 . S
C101 C91 1.386 . S
C101 C94 1.357 . S
C101 H114 0.928 . S
H102 C78 0.931 . S
H103 C80 0.930 . S
H104 C82 0.929 1_554 S
H105 C83 0.931 . S
H106 C85 0.930 . S
H107 C89 0.931 . S
H108 C87 0.931 . S
H109 C91 0.931 . S
H110 C92 0.929 . S
H111 C93 0.930 . S
H112 C96 0.930 . S
H113 C97 0.931 1_554 S
H114 C101 0.928 . S
H115 C100 0.929 . S
H116 C98 0.932 . S
C117 C118 1.386 . S
C117 C119 1.397 . S
C117 H141 0.931 . S
C118 C117 1.386 . S
C118 C122 1.397 . S
C119 C117 1.397 . S
C119 C120 1.384 . S
C119 H142 0.930 . S
C120 C119 1.384 . S
C120 C121 1.377 . S
C120 C123 1.481 . S
C121 C120 1.377 . S
C121 C122 1.389 . S
C121 H143 0.929 . S
C122 C118 1.397 . S
C122 C121 1.389 . S
C122 H144 0.931 . S
C123 C120 1.481 . S
C123 C124 1.387 . S
C123 C128 1.390 . S
C124 C123 1.387 . S
C124 C125 1.401 . S
C124 H145 0.930 . S
C125 C124 1.401 . S
C125 C126 1.376 . S
C125 C134 1.511 . S
C126 C125 1.376 . S
C126 C127 1.392 . S
C126 H147 0.931 . S
C127 C126 1.392 . S
C127 C128 1.361 . S
C127 C129 1.500 . S
C128 C123 1.390 . S
C128 C127 1.361 . S
C128 H146 0.931 . S
C129 C127 1.500 . S
C129 C130 1.371 . S
C129 C131 1.365 . S
C130 C129 1.371 . S
C130 C140 1.386 . S
C130 H148 0.931 . S
C131 C129 1.365 . S
C131 C132 1.409 . S
C131 H149 0.929 . S
C132 C131 1.409 . S
C132 C133 1.380 . S
C132 H150 0.930 . S
C133 C132 1.380 . S
C133 C140 1.357 . S
C134 C125 1.511 . S
C134 C135 1.341 . S
C134 C136 1.371 . S
C135 C134 1.341 . S
C135 C139 1.394 . S
C135 H151 0.930 . S
C136 C134 1.371 . S
C136 C137 1.392 . S
C136 H152 0.931 . S
C137 C136 1.392 . S
C137 C138 1.331 . S
C137 H155 0.932 . S
C138 C137 1.331 . S
C138 C139 1.336 . S
C139 C135 1.394 . S
C139 C138 1.336 . S
C139 H154 0.929 . S
C140 C130 1.386 . S
C140 C133 1.357 . S
C140 H153 0.928 . S
H141 C117 0.931 . S
H142 C119 0.930 . S
H143 C121 0.929 . S
H144 C122 0.931 . S
H145 C124 0.930 . S
H146 C128 0.931 . S
H147 C126 0.931 . S
H148 C130 0.931 . S
H149 C131 0.929 . S
H150 C132 0.930 . S
H151 C135 0.930 . S
H152 C136 0.931 . S
H153 C140 0.928 . S
H154 C139 0.929 . S
H155 C137 0.932 . S
C156 C157 1.386 . S
C156 C158 1.397 . S
C156 H180 0.931 . S
C157 C156 1.386 . S
C157 C161 1.397 . S
C158 C156 1.397 . S
C158 C159 1.384 1_545 S
C158 H181 0.932 . S
C159 C158 1.384 1_565 S
C159 C160 1.377 . S
C159 C162 1.481 . S
C160 C159 1.377 . S
C160 C161 1.389 1_565 S
C160 H182 0.929 . S
C161 C157 1.397 . S
C161 C160 1.389 1_545 S
C161 H183 0.931 . S
C162 C159 1.481 . S
C162 C163 1.387 . S
C162 C167 1.390 1_556 S
C163 C162 1.387 . S
C163 C164 1.401 . S
C163 H184 0.930 . S
C164 C163 1.401 . S
C164 C165 1.376 1_556 S
C164 C173 1.511 . S
C165 C164 1.376 1_554 S
C165 C166 1.392 . S
C165 H186 0.931 . S
C166 C165 1.392 . S
C166 C167 1.361 . S
C166 C168 1.500 . S
C167 C162 1.390 1_554 S
C167 C166 1.361 . S
C167 H185 0.931 . S
C168 C166 1.500 . S
C168 C169 1.371 . S
C168 C170 1.365 . S
C169 C168 1.371 . S
C169 C179 1.386 . S
C169 H187 0.931 . S
C170 C168 1.365 . S
C170 C171 1.409 . S
C170 H188 0.929 . S
C171 C170 1.409 . S
C171 C172 1.380 . S
C171 H189 0.930 . S
C172 C171 1.380 . S
C172 C179 1.357 . S
C173 C164 1.511 . S
C173 C174 1.341 . S
C173 C175 1.371 . S
C174 C173 1.341 . S
C174 C178 1.394 . S
C174 H190 0.930 . S
C175 C173 1.371 . S
C175 C176 1.392 . S
C175 H191 0.931 1_556 S
C176 C175 1.392 . S
C176 C177 1.331 . S
C176 H194 0.932 . S
C177 C176 1.331 . S
C177 C178 1.336 . S
C178 C174 1.394 . S
C178 C177 1.336 . S
C178 H193 0.929 . S
C179 C169 1.386 . S
C179 C172 1.357 . S
C179 H192 0.928 . S
H180 C156 0.931 . S
H181 C158 0.932 . S
H182 C160 0.929 . S
H183 C161 0.931 . S
H184 C163 0.930 . S
H185 C167 0.931 . S
H186 C165 0.931 . S
H187 C169 0.931 . S
H188 C170 0.929 . S
H189 C171 0.930 . S
H190 C174 0.930 . S
H191 C175 0.931 1_554 S
H192 C179 0.928 . S
H193 C178 0.929 . S
H194 C176 0.932 . S
C195 C196 1.386 . S
C195 C197 1.397 . S
C195 H219 0.931 . S
C196 C195 1.386 . S
C196 C200 1.397 . S
C197 C195 1.397 . S
C197 C198 1.384 1_565 S
C197 H220 0.932 . S
C198 C197 1.384 1_545 S
C198 C199 1.377 . S
C198 C201 1.481 . S
C199 C198 1.377 . S
C199 C200 1.389 1_545 S
C199 H221 0.929 . S
C200 C196 1.397 . S
C200 C199 1.389 1_565 S
C200 H222 0.931 . S
C201 C198 1.481 . S
C201 C202 1.387 . S
C201 C206 1.390 . S
C202 C201 1.387 . S
C202 C203 1.401 . S
C202 H223 0.930 . S
C203 C202 1.401 . S
C203 C204 1.376 . S
C203 C212 1.511 . S
C204 C203 1.376 . S
C204 C205 1.392 . S
C204 H225 0.931 . S
C205 C204 1.392 . S
C205 C206 1.361 . S
C205 C207 1.500 . S
C206 C201 1.390 . S
C206 C205 1.361 . S
C206 H224 0.931 . S
C207 C205 1.500 . S
C207 C208 1.371 . S
C207 C209 1.365 . S
C208 C207 1.371 . S
C208 C218 1.386 . S
C208 H226 0.931 . S
C209 C207 1.365 . S
C209 C210 1.409 . S
C209 H227 0.929 . S
C210 C209 1.409 . S
C210 C211 1.380 . S
C210 H228 0.930 . S
C211 C210 1.380 . S
C211 C218 1.357 . S
C212 C203 1.511 . S
C212 C213 1.341 . S
C212 C214 1.371 . S
C213 C212 1.341 . S
C213 C217 1.394 . S
C213 H229 0.930 . S
C214 C212 1.371 . S
C214 C215 1.392 . S
C214 H230 0.931 . S
C215 C214 1.392 . S
C215 C216 1.331 . S
C215 H233 0.932 . S
C216 C215 1.331 . S
C216 C217 1.336 . S
C217 C213 1.394 . S
C217 C216 1.336 . S
C217 H232 0.929 . S
C218 C208 1.386 . S
C218 C211 1.357 . S
C218 H231 0.928 . S
H219 C195 0.931 . S
H220 C197 0.932 . S
H221 C199 0.929 . S
H222 C200 0.931 . S
H223 C202 0.930 . S
H224 C206 0.931 . S
H225 C204 0.931 . S
H226 C208 0.931 . S
H227 C209 0.929 . S
H228 C210 0.930 . S
H229 C213 0.930 . S
H230 C214 0.931 . S
H231 C218 0.928 . S
H232 C217 0.929 . S
H233 C215 0.932 . S
C234 C235 1.386 . S
C234 C236 1.397 1_545 S
C234 H258 0.931 . S
C235 C234 1.386 . S
C235 C239 1.397 . S
C236 C234 1.397 1_565 S
C236 C237 1.384 . S
C236 H259 0.930 . S
C237 C236 1.384 . S
C237 C238 1.377 1_565 S
C237 C240 1.481 . S
C238 C237 1.377 1_545 S
C238 C239 1.389 . S
C238 H260 0.929 1_556 S
C239 C235 1.397 . S
C239 C238 1.389 . S
C239 H261 0.931 . S
C240 C237 1.481 . S
C240 C241 1.387 . S
C240 C245 1.390 1_556 S
C241 C240 1.387 . S
C241 C242 1.401 . S
C241 H262 0.930 . S
C242 C241 1.401 . S
C242 C243 1.376 1_556 S
C242 C251 1.511 . S
C243 C242 1.376 1_554 S
C243 C244 1.392 . S
C243 H264 0.931 . S
C244 C243 1.392 . S
C244 C245 1.361 . S
C244 C246 1.500 . S
C245 C240 1.390 1_554 S
C245 C244 1.361 . S
C245 H263 0.931 . S
C246 C244 1.500 . S
C246 C247 1.371 . S
C246 C248 1.365 . S
C247 C246 1.371 . S
C247 C257 1.386 . S
C247 H265 0.931 . S
C248 C246 1.365 . S
C248 C249 1.409 . S
C248 H266 0.929 . S
C249 C248 1.409 . S
C249 C250 1.380 . S
C249 H267 0.930 . S
C250 C249 1.380 . S
C250 C257 1.357 . S
C251 C242 1.511 . S
C251 C252 1.341 . S
C251 C253 1.371 . S
C252 C251 1.341 . S
C252 C256 1.394 . S
C252 H268 0.930 . S
C253 C251 1.371 . S
C253 C254 1.392 . S
C253 H269 0.931 1_556 S
C254 C253 1.392 . S
C254 C255 1.331 . S
C254 H272 0.932 . S
C255 C254 1.331 . S
C255 C256 1.336 . S
C256 C252 1.394 . S
C256 C255 1.336 . S
C256 H271 0.929 . S
C257 C247 1.386 . S
C257 C250 1.357 . S
C257 H270 0.928 . S
H258 C234 0.931 . S
H259 C236 0.930 . S
H260 C238 0.929 1_554 S
H261 C239 0.931 . S
H262 C241 0.930 . S
H263 C245 0.931 . S
H264 C243 0.931 . S
H265 C247 0.931 . S
H266 C248 0.929 . S
H267 C249 0.930 . S
H268 C252 0.930 . S
H269 C253 0.931 1_554 S
H270 C257 0.928 . S
H271 C256 0.929 . S
H272 C254 0.932 . S
C273 C274 1.386 . S
C273 C275 1.397 . S
C273 H297 0.931 . S
C274 C273 1.386 . S
C274 C278 1.397 . S
C275 C273 1.397 . S
C275 C276 1.384 . S
C275 H298 0.930 . S
C276 C275 1.384 . S
C276 C277 1.377 . S
C276 C279 1.481 . S
C277 C276 1.377 . S
C277 C278 1.389 . S
C277 H299 0.929 . S
C278 C274 1.397 . S
C278 C277 1.389 . S
C278 H300 0.931 . S
C279 C276 1.481 . S
C279 C280 1.387 . S
C279 C284 1.390 . S
C280 C279 1.387 . S
C280 C281 1.401 . S
C280 H301 0.930 . S
C281 C280 1.401 . S
C281 C282 1.376 . S
C281 C290 1.511 . S
C282 C281 1.376 . S
C282 C283 1.392 . S
C282 H303 0.931 . S
C283 C282 1.392 . S
C283 C284 1.361 . S
C283 C285 1.500 . S
C284 C279 1.390 . S
C284 C283 1.361 . S
C284 H302 0.931 . S
C285 C283 1.500 . S
C285 C286 1.371 1_545 S
C285 C287 1.365 . S
C286 C285 1.371 1_565 S
C286 C296 1.386 . S
C286 H304 0.931 1_565 S
C287 C285 1.365 . S
C287 C288 1.409 1_545 S
C287 H305 0.929 . S
C288 C287 1.409 1_565 S
C288 C289 1.380 . S
C288 H306 0.930 . S
C289 C288 1.380 . S
C289 C296 1.357 . S
C290 C281 1.511 . S
C290 C291 1.341 . S
C290 C292 1.371 . S
C291 C290 1.341 . S
C291 C295 1.394 . S
C291 H307 0.930 . S
C292 C290 1.371 . S
C292 C293 1.392 . S
C292 H308 0.931 . S
C293 C292 1.392 . S
C293 C294 1.331 . S
C293 H311 0.932 . S
C294 C293 1.331 . S
C294 C295 1.336 . S
C295 C291 1.394 . S
C295 C294 1.336 . S
C295 H310 0.929 . S
C296 C286 1.386 . S
C296 C289 1.357 . S
C296 H309 0.928 . S
H297 C273 0.931 . S
H298 C275 0.930 . S
H299 C277 0.929 . S
H300 C278 0.931 . S
H301 C280 0.930 . S
H302 C284 0.931 . S
H303 C282 0.931 . S
H304 C286 0.931 1_545 S
H305 C287 0.929 . S
H306 C288 0.930 . S
H307 C291 0.930 . S
H308 C292 0.931 . S
H309 C296 0.928 . S
H310 C295 0.929 . S
H311 C293 0.932 . S
Fe312 O314 1.918 . S
Fe312 O317 1.997 1_455 S
Fe312 O318 2.002 1_455 S
Fe312 O323 1.976 . S
Fe312 O326 1.996 . S
Fe313 O314 1.918 . S
Fe313 O321 1.997 1_455 S
Fe313 O324 1.996 . S
Fe313 O328 1.976 . S
Fe313 O331 2.002 1_455 S
O314 Fe312 1.918 . S
O314 Fe313 1.918 . S
O314 Fe315 1.918 . S
Fe315 O314 1.918 . S
Fe315 O316 2.002 1_455 S
Fe315 O325 1.976 . S
Fe315 O329 1.996 . S
Fe315 O332 1.997 1_455 S
O316 Fe315 2.002 1_655 S
O316 C333 1.295 . S
O317 Fe312 1.997 1_655 S
O317 C333 1.235 . S
O318 Fe312 2.002 1_655 S
O318 C319 1.295 . S
C319 O318 1.295 . S
C319 O321 1.235 . S
C320 O325 1.287 . S
C320 O326 1.255 . S
O321 Fe313 1.997 1_655 S
O321 C319 1.235 . S
C322 O328 1.287 . S
C322 O329 1.255 . S
O323 Fe312 1.976 . S
O323 C330 1.287 . S
O324 Fe313 1.996 . S
O324 C330 1.255 . S
O325 Fe315 1.976 . S
O325 C320 1.287 . S
O326 Fe312 1.996 . S
O326 C320 1.255 . S
C327 O331 1.295 . S
C327 O332 1.235 . S
O328 Fe313 1.976 . S
O328 C322 1.287 . S
O329 Fe315 1.996 . S
O329 C322 1.255 . S
C330 O323 1.287 . S
C330 O324 1.255 . S
O331 Fe313 2.002 1_655 S
O331 C327 1.295 . S
O332 Fe315 1.997 1_655 S
O332 C327 1.235 . S
C333 O316 1.295 . S
C333 O317 1.235 . S
Fe334 O336 1.918 . S
Fe334 O339 1.997 1_655 S
Fe334 O340 2.002 1_655 S
Fe334 O345 1.976 . S
Fe334 O348 1.996 . S
Fe335 O336 1.918 . S
Fe335 O343 1.997 1_655 S
Fe335 O346 1.996 . S
Fe335 O350 1.976 . S
Fe335 O353 2.002 1_655 S
O336 Fe334 1.918 . S
O336 Fe335 1.918 . S
O336 Fe337 1.918 . S
Fe337 O336 1.918 . S
Fe337 O338 2.002 1_655 S
Fe337 O347 1.976 . S
Fe337 O351 1.996 . S
Fe337 O354 1.997 1_655 S
O338 Fe337 2.002 1_455 S
O338 C355 1.295 . S
O339 Fe334 1.997 1_455 S
O339 C355 1.235 . S
O340 Fe334 2.002 1_455 S
O340 C341 1.295 . S
C341 O340 1.295 . S
C341 O343 1.235 . S
C342 O347 1.287 . S
C342 O348 1.255 . S
O343 Fe335 1.997 1_455 S
O343 C341 1.235 . S
C344 O350 1.287 . S
C344 O351 1.255 . S
O345 Fe334 1.976 . S
O345 C352 1.287 . S
O346 Fe335 1.996 . S
O346 C352 1.255 . S
O347 Fe337 1.976 . S
O347 C342 1.287 . S
O348 Fe334 1.996 . S
O348 C342 1.255 . S
C349 O353 1.295 . S
C349 O354 1.235 . S
O350 Fe335 1.976 . S
O350 C344 1.287 . S
O351 Fe337 1.996 . S
O351 C344 1.255 . S
C352 O345 1.287 . S
C352 O346 1.255 . S
O353 Fe335 2.002 1_455 S
O353 C349 1.295 . S
O354 Fe337 1.997 1_455 S
O354 C349 1.235 . S
C355 O338 1.295 . S
C355 O339 1.235 . S
Fe356 O358 1.918 . S
Fe356 O361 1.997 . S
Fe356 O362 2.002 . S
Fe356 O367 1.976 . S
Fe356 O370 1.996 . S
Fe357 O358 1.918 . S
Fe357 O365 1.997 . S
Fe357 O368 1.996 . S
Fe357 O372 1.976 . S
Fe357 O375 2.002 . S
O358 Fe356 1.918 . S
O358 Fe357 1.918 . S
O358 Fe359 1.918 . S
Fe359 O358 1.918 . S
Fe359 O360 2.002 . S
Fe359 O369 1.976 . S
Fe359 O373 1.996 . S
Fe359 O376 1.997 . S
O360 Fe359 2.002 . S
O360 C377 1.295 . S
O361 Fe356 1.997 . S
O361 C377 1.235 . S
O362 Fe356 2.002 . S
O362 C363 1.295 . S
C363 O362 1.295 . S
C363 O365 1.235 . S
C364 O369 1.287 . S
C364 O370 1.255 . S
O365 Fe357 1.997 . S
O365 C363 1.235 . S
C366 O372 1.287 . S
C366 O373 1.255 . S
O367 Fe356 1.976 . S
O367 C374 1.287 . S
O368 Fe357 1.996 . S
O368 C374 1.255 . S
O369 Fe359 1.976 . S
O369 C364 1.287 . S
O370 Fe356 1.996 . S
O370 C364 1.255 . S
C371 O375 1.295 . S
C371 O376 1.235 . S
O372 Fe357 1.976 . S
O372 C366 1.287 . S
O373 Fe359 1.996 . S
O373 C366 1.255 . S
C374 O367 1.287 . S
C374 O368 1.255 . S
O375 Fe357 2.002 . S
O375 C371 1.295 . S
O376 Fe359 1.997 . S
O376 C371 1.235 . S
C377 O360 1.295 . S
C377 O361 1.235 . S
Fe378 O380 1.918 . S
Fe378 O383 1.997 . S
Fe378 O384 2.002 . S
Fe378 O389 1.976 . S
Fe378 O392 1.996 . S
Fe379 O380 1.918 . S
Fe379 O387 1.997 . S
Fe379 O390 1.996 . S
Fe379 O394 1.976 . S
Fe379 O397 2.002 . S
O380 Fe378 1.918 . S
O380 Fe379 1.918 . S
O380 Fe381 1.918 . S
Fe381 O380 1.918 . S
Fe381 O382 2.002 . S
Fe381 O391 1.976 . S
Fe381 O395 1.996 . S
Fe381 O398 1.997 . S
O382 Fe381 2.002 . S
O382 C399 1.295 . S
O383 Fe378 1.997 . S
O383 C399 1.235 . S
O384 Fe378 2.002 . S
O384 C385 1.295 . S
C385 O384 1.295 . S
C385 O387 1.235 . S
C386 O391 1.287 . S
C386 O392 1.255 . S
O387 Fe379 1.997 . S
O387 C385 1.235 . S
C388 O394 1.287 . S
C388 O395 1.255 . S
O389 Fe378 1.976 . S
O389 C396 1.287 . S
O390 Fe379 1.996 . S
O390 C396 1.255 . S
O391 Fe381 1.976 . S
O391 C386 1.287 . S
O392 Fe378 1.996 . S
O392 C386 1.255 . S
C393 O397 1.295 . S
C393 O398 1.235 . S
O394 Fe379 1.976 . S
O394 C388 1.287 . S
O395 Fe381 1.996 . S
O395 C388 1.255 . S
C396 O389 1.287 . S
C396 O390 1.255 . S
O397 Fe379 2.002 . S
O397 C393 1.295 . S
O398 Fe381 1.997 . S
O398 C393 1.235 . S
C399 O382 1.295 . S
C399 O383 1.235 . S
C21 C355 1.766 . S
C319 C60 1.764 . S
C342 C99 1.728 . S
C330 C138 1.748 . S
C399 C177 1.765 . S
C363 C216 1.764 . S
C255 C386 1.728 . S
C374 C294 1.749 . S
C1 C396 1.880 . S
C366 C40 1.878 . S
C79 C385 1.960 . S
C133 C371 1.940 . S
C352 C157 1.880 . S
C196 C322 1.877 . S
C341 C235 1.960 . S
C327 C289 1.940 . S
C377 C16 1.915 . S
C393 C55 1.917 . S
C94 C364 1.894 . S
C388 C118 1.906 . S
C333 C172 1.914 . S
C211 C349 1.917 . S
C250 C320 1.895 . S
C274 C344 1.906 . S
