# Generated by pormake.
# Topology ptr, (4,4)-cn, num edge types: 1
# Building blocks:
#     Node 0, Type 0, BuildingBlock: CEKHIL_clean_sbu_0, # of connection points: 4
#     Node 1, Type 0, BuildingBlock: CEKHIL_clean_sbu_0, # of connection points: 4
#     Node 2, Type 0, BuildingBlock: CEKHIL_clean_sbu_0, # of connection points: 4
#     Node 3, Type 0, BuildingBlock: CEKHIL_clean_sbu_0, # of connection points: 4
#     Node 4, Type 0, BuildingBlock: CEKHIL_clean_sbu_0, # of connection points: 4
#     Node 5, Type 0, BuildingBlock: CEKHIL_clean_sbu_0, # of connection points: 4
#     Node 6, Type 0, BuildingBlock: CEKHIL_clean_sbu_0, # of connection points: 4
#     Node 7, Type 0, BuildingBlock: CEKHIL_clean_sbu_0, # of connection points: 4
#     Node 8, Type 0, BuildingBlock: CEKHIL_clean_sbu_0, # of connection points: 4
#     Node 9, Type 0, BuildingBlock: CEKHIL_clean_sbu_0, # of connection points: 4
#     Node 10, Type 0, BuildingBlock: CEKHIL_clean_sbu_0, # of connection points: 4
#     Node 11, Type 0, BuildingBlock: CEKHIL_clean_sbu_0, # of connection points: 4
#     Node 12, Type 0, BuildingBlock: CEKHIL_clean_sbu_0, # of connection points: 4
#     Node 13, Type 0, BuildingBlock: CEKHIL_clean_sbu_0, # of connection points: 4
#     Node 14, Type 0, BuildingBlock: CEKHIL_clean_sbu_0, # of connection points: 4
#     Node 15, Type 0, BuildingBlock: CEKHIL_clean_sbu_0, # of connection points: 4
#     Node 16, Type 0, BuildingBlock: CEKHIL_clean_sbu_0, # of connection points: 4
#     Node 17, Type 0, BuildingBlock: CEKHIL_clean_sbu_0, # of connection points: 4
#     Node 18, Type 1, BuildingBlock: AZAVOO_clean_linker_0, # of connection points: 4
#     Node 19, Type 1, BuildingBlock: AZAVOO_clean_linker_0, # of connection points: 4
#     Node 20, Type 1, BuildingBlock: AZAVOO_clean_linker_0, # of connection points: 4
#     Node 21, Type 1, BuildingBlock: AZAVOO_clean_linker_0, # of connection points: 4
#     Node 22, Type 1, BuildingBlock: AZAVOO_clean_linker_0, # of connection points: 4
#     Node 23, Type 1, BuildingBlock: AZAVOO_clean_linker_0, # of connection points: 4
#     Node 24, Type 1, BuildingBlock: AZAVOO_clean_linker_0, # of connection points: 4
#     Node 25, Type 1, BuildingBlock: AZAVOO_clean_linker_0, # of connection points: 4
#     Node 26, Type 1, BuildingBlock: AZAVOO_clean_linker_0, # of connection points: 4
#     Node 27, Type 1, BuildingBlock: AZAVOO_clean_linker_0, # of connection points: 4
#     Node 28, Type 1, BuildingBlock: AZAVOO_clean_linker_0, # of connection points: 4
#     Node 29, Type 1, BuildingBlock: AZAVOO_clean_linker_0, # of connection points: 4
#     Node 30, Type 1, BuildingBlock: AZAVOO_clean_linker_0, # of connection points: 4
#     Node 31, Type 1, BuildingBlock: AZAVOO_clean_linker_0, # of connection points: 4
#     Node 32, Type 1, BuildingBlock: AZAVOO_clean_linker_0, # of connection points: 4
#     Node 33, Type 1, BuildingBlock: AZAVOO_clean_linker_0, # of connection points: 4
#     Node 34, Type 1, BuildingBlock: AZAVOO_clean_linker_0, # of connection points: 4
#     Node 35, Type 1, BuildingBlock: AZAVOO_clean_linker_0, # of connection points: 4
#     Edge 36, Type (0, 1), BuildingBlock: TEMPAE_clean_linker_10, # of connection points: 2
#     Edge 37, Type (0, 1), BuildingBlock: TEMPAE_clean_linker_10, # of connection points: 2
#     Edge 38, Type (0, 1), BuildingBlock: TEMPAE_clean_linker_10, # of connection points: 2
#     Edge 39, Type (0, 1), BuildingBlock: TEMPAE_clean_linker_10, # of connection points: 2
#     Edge 40, Type (0, 1), BuildingBlock: TEMPAE_clean_linker_10, # of connection points: 2
#     Edge 41, Type (0, 1), BuildingBlock: TEMPAE_clean_linker_10, # of connection points: 2
#     Edge 42, Type (0, 1), BuildingBlock: TEMPAE_clean_linker_10, # of connection points: 2
#     Edge 43, Type (0, 1), BuildingBlock: TEMPAE_clean_linker_10, # of connection points: 2
#     Edge 44, Type (0, 1), BuildingBlock: TEMPAE_clean_linker_10, # of connection points: 2
#     Edge 45, Type (0, 1), BuildingBlock: TEMPAE_clean_linker_10, # of connection points: 2
#     Edge 46, Type (0, 1), BuildingBlock: TEMPAE_clean_linker_10, # of connection points: 2
#     Edge 47, Type (0, 1), BuildingBlock: TEMPAE_clean_linker_10, # of connection points: 2
#     Edge 48, Type (0, 1), BuildingBlock: TEMPAE_clean_linker_10, # of connection points: 2
#     Edge 49, Type (0, 1), BuildingBlock: TEMPAE_clean_linker_10, # of connection points: 2
#     Edge 50, Type (0, 1), BuildingBlock: TEMPAE_clean_linker_10, # of connection points: 2
#     Edge 51, Type (0, 1), BuildingBlock: TEMPAE_clean_linker_10, # of connection points: 2
#     Edge 52, Type (0, 1), BuildingBlock: TEMPAE_clean_linker_10, # of connection points: 2
#     Edge 53, Type (0, 1), BuildingBlock: TEMPAE_clean_linker_10, # of connection points: 2
#     Edge 54, Type (0, 1), BuildingBlock: TEMPAE_clean_linker_10, # of connection points: 2
#     Edge 55, Type (0, 1), BuildingBlock: TEMPAE_clean_linker_10, # of connection points: 2
#     Edge 56, Type (0, 1), BuildingBlock: TEMPAE_clean_linker_10, # of connection points: 2
#     Edge 57, Type (0, 1), BuildingBlock: TEMPAE_clean_linker_10, # of connection points: 2
#     Edge 58, Type (0, 1), BuildingBlock: TEMPAE_clean_linker_10, # of connection points: 2
#     Edge 59, Type (0, 1), BuildingBlock: TEMPAE_clean_linker_10, # of connection points: 2
#     Edge 60, Type (0, 1), BuildingBlock: TEMPAE_clean_linker_10, # of connection points: 2
#     Edge 61, Type (0, 1), BuildingBlock: TEMPAE_clean_linker_10, # of connection points: 2
#     Edge 62, Type (0, 1), BuildingBlock: TEMPAE_clean_linker_10, # of connection points: 2
#     Edge 63, Type (0, 1), BuildingBlock: TEMPAE_clean_linker_10, # of connection points: 2
#     Edge 64, Type (0, 1), BuildingBlock: TEMPAE_clean_linker_10, # of connection points: 2
#     Edge 65, Type (0, 1), BuildingBlock: TEMPAE_clean_linker_10, # of connection points: 2
#     Edge 66, Type (0, 1), BuildingBlock: TEMPAE_clean_linker_10, # of connection points: 2
#     Edge 67, Type (0, 1), BuildingBlock: TEMPAE_clean_linker_10, # of connection points: 2
#     Edge 68, Type (0, 1), BuildingBlock: TEMPAE_clean_linker_10, # of connection points: 2
#     Edge 69, Type (0, 1), BuildingBlock: TEMPAE_clean_linker_10, # of connection points: 2
#     Edge 70, Type (0, 1), BuildingBlock: TEMPAE_clean_linker_10, # of connection points: 2
#     Edge 71, Type (0, 1), BuildingBlock: TEMPAE_clean_linker_10, # of connection points: 2
#     Edge 72, Type (0, 1), BuildingBlock: TEMPAE_clean_linker_10, # of connection points: 2
#     Edge 73, Type (0, 1), BuildingBlock: TEMPAE_clean_linker_10, # of connection points: 2
#     Edge 74, Type (0, 1), BuildingBlock: TEMPAE_clean_linker_10, # of connection points: 2
#     Edge 75, Type (0, 1), BuildingBlock: TEMPAE_clean_linker_10, # of connection points: 2
#     Edge 76, Type (0, 1), BuildingBlock: TEMPAE_clean_linker_10, # of connection points: 2
#     Edge 77, Type (0, 1), BuildingBlock: TEMPAE_clean_linker_10, # of connection points: 2
#     Edge 78, Type (0, 1), BuildingBlock: TEMPAE_clean_linker_10, # of connection points: 2
#     Edge 79, Type (0, 1), BuildingBlock: TEMPAE_clean_linker_10, # of connection points: 2
#     Edge 80, Type (0, 1), BuildingBlock: TEMPAE_clean_linker_10, # of connection points: 2
#     Edge 81, Type (0, 1), BuildingBlock: TEMPAE_clean_linker_10, # of connection points: 2
#     Edge 82, Type (0, 1), BuildingBlock: TEMPAE_clean_linker_10, # of connection points: 2
#     Edge 83, Type (0, 1), BuildingBlock: TEMPAE_clean_linker_10, # of connection points: 2
#     Edge 84, Type (0, 1), BuildingBlock: TEMPAE_clean_linker_10, # of connection points: 2
#     Edge 85, Type (0, 1), BuildingBlock: TEMPAE_clean_linker_10, # of connection points: 2
#     Edge 86, Type (0, 1), BuildingBlock: TEMPAE_clean_linker_10, # of connection points: 2
#     Edge 87, Type (0, 1), BuildingBlock: TEMPAE_clean_linker_10, # of connection points: 2
#     Edge 88, Type (0, 1), BuildingBlock: TEMPAE_clean_linker_10, # of connection points: 2
#     Edge 89, Type (0, 1), BuildingBlock: TEMPAE_clean_linker_10, # of connection points: 2
#     Edge 90, Type (0, 1), BuildingBlock: TEMPAE_clean_linker_10, # of connection points: 2
#     Edge 91, Type (0, 1), BuildingBlock: TEMPAE_clean_linker_10, # of connection points: 2
#     Edge 92, Type (0, 1), BuildingBlock: TEMPAE_clean_linker_10, # of connection points: 2
#     Edge 93, Type (0, 1), BuildingBlock: TEMPAE_clean_linker_10, # of connection points: 2
#     Edge 94, Type (0, 1), BuildingBlock: TEMPAE_clean_linker_10, # of connection points: 2
#     Edge 95, Type (0, 1), BuildingBlock: TEMPAE_clean_linker_10, # of connection points: 2
#     Edge 96, Type (0, 1), BuildingBlock: TEMPAE_clean_linker_10, # of connection points: 2
#     Edge 97, Type (0, 1), BuildingBlock: TEMPAE_clean_linker_10, # of connection points: 2
#     Edge 98, Type (0, 1), BuildingBlock: TEMPAE_clean_linker_10, # of connection points: 2
#     Edge 99, Type (0, 1), BuildingBlock: TEMPAE_clean_linker_10, # of connection points: 2
#     Edge 100, Type (0, 1), BuildingBlock: TEMPAE_clean_linker_10, # of connection points: 2
#     Edge 101, Type (0, 1), BuildingBlock: TEMPAE_clean_linker_10, # of connection points: 2
#     Edge 102, Type (0, 1), BuildingBlock: TEMPAE_clean_linker_10, # of connection points: 2
#     Edge 103, Type (0, 1), BuildingBlock: TEMPAE_clean_linker_10, # of connection points: 2
#     Edge 104, Type (0, 1), BuildingBlock: TEMPAE_clean_linker_10, # of connection points: 2
#     Edge 105, Type (0, 1), BuildingBlock: TEMPAE_clean_linker_10, # of connection points: 2
#     Edge 106, Type (0, 1), BuildingBlock: TEMPAE_clean_linker_10, # of connection points: 2
#     Edge 107, Type (0, 1), BuildingBlock: TEMPAE_clean_linker_10, # of connection points: 2
# Relax obj value: 0.051
# Max RMSD: 0.177
# Mean RMSD: 0.117
data_MOF--net-ptr--node1-CEKHIL_clean_sbu_0--node2-AZAVOO_clean_linker_0--edge1-TEMPAE_clean_linker_10
_symmetry_space_group_name_H-M    P1
_symmetry_Int_Tables_number       1
_symmetry_cell_setting            triclinic
loop_
_symmetry_equiv_pos_as_xyz
'x, y, z'
_cell_length_a     83.147538
_cell_length_b     80.660213
_cell_length_c     70.03727
_cell_angle_alpha  93.601342
_cell_angle_beta   91.823476
_cell_angle_gamma 121.20562
loop_
_atom_site_label
_atom_site_type_symbol
_atom_site_fract_x
_atom_site_fract_y
_atom_site_fract_z
_atom_type_partial_charge
Co0 Co 0.00778 0.35122 0.01614 0.0
O1 O 0.0108 0.3377 0.03615 0.0
O2 O 0.03368 0.36561 0.0272 0.0
C3 C 0.99178 0.32488 0.99483 0.0
O4 O 0.00953 0.36891 0.99557 0.0
Co5 Co 0.967 0.33997 0.00254 0.0
O6 O 0.9801 0.35786 0.98276 0.0
C7 C 0.98518 0.36491 0.03858 0.0
C8 C 0.02836 0.35155 0.0383 0.0
C9 C 0.9979 0.36955 0.98343 0.0
O10 O 0.00064 0.3656 0.03526 0.0
O11 O 0.96982 0.35443 0.02798 0.0
O12 O 0.01007 0.33416 0.99681 0.0
O13 O 0.98388 0.33065 0.00689 0.0
Co14 Co 0.64482 0.63489 0.06457 0.0
O15 O 0.66299 0.65062 0.0474 0.0
O16 O 0.65683 0.62148 0.05419 0.0
C17 C 0.65417 0.6595 0.08757 0.0
O18 O 0.62771 0.61511 0.08244 0.0
Co19 Co 0.61433 0.64377 0.07657 0.0
O20 O 0.61168 0.62698 0.09725 0.0
C21 C 0.61051 0.62439 0.03815 0.0
C22 C 0.66674 0.63694 0.04521 0.0
C23 C 0.61711 0.61483 0.09557 0.0
O24 O 0.62449 0.62246 0.04292 0.0
O25 O 0.60522 0.63382 0.04895 0.0
O26 O 0.66295 0.65009 0.08636 0.0
O27 O 0.641 0.65458 0.07423 0.0
Co28 Co 0.36853 -0.00018 0.01997 0.0
O29 O 0.35495 0.00567 0.00172 0.0
O30 O 0.38218 0.02759 0.01737 0.0
C31 C 0.34358 0.9808 0.03624 0.0
O32 O 0.38608 0.99903 0.04055 0.0
Co33 Co 0.35906 0.95757 0.02139 0.0
O34 O 0.37324 0.96784 0.04685 0.0
C35 C 0.38177 0.98039 0.99091 0.0
C36 C 0.36827 0.02376 0.00518 0.0
C37 C 0.38508 0.98594 0.05097 0.0
O38 O 0.38201 0.99541 0.99867 0.0
O39 O 0.37264 0.96359 0.99722 0.0
O40 O 0.35282 -0.00043 0.03995 0.0
O41 O 0.34855 0.97415 0.02176 0.0
Co42 Co 0.99593 0.64986 0.04669 0.0
O43 O 0.99245 0.66244 0.02605 0.0
O44 O 0.96971 0.63539 0.03658 0.0
C45 C 0.01299 0.67728 0.0665 0.0
O46 O 0.99457 0.63328 0.06821 0.0
Co47 Co 0.03651 0.66072 0.06012 0.0
O48 O 0.02384 0.64632 0.08226 0.0
C49 C 0.01748 0.63471 0.02469 0.0
C50 C 0.97479 0.64883 0.02477 0.0
C51 C 0.0061 0.6343 0.08166 0.0
O52 O 0.00215 0.63425 0.02812 0.0
O53 O 0.03302 0.64545 0.03497 0.0
O54 O 0.99469 0.66813 0.06539 0.0
O55 O 0.02019 0.67048 0.05463 0.0
Co56 Co 0.35745 0.36676 0.00306 0.0
O57 O 0.33802 0.3506 0.01896 0.0
O58 O 0.34465 0.37985 0.01196 0.0
C59 C 0.34983 0.34254 0.98019 0.0
O60 O 0.37579 0.38701 0.98622 0.0
Co61 Co 0.38902 0.35839 0.99415 0.0
O62 O 0.39664 0.37897 0.9765 0.0
C63 C 0.39087 0.3784 0.03146 0.0
C64 C 0.33419 0.36426 0.02056 0.0
C65 C 0.38967 0.38978 0.97641 0.0
O66 O 0.37628 0.37904 0.02609 0.0
O67 O 0.39754 0.36994 0.02134 0.0
O68 O 0.34095 0.35186 0.98018 0.0
O69 O 0.36206 0.34726 0.99448 0.0
Co70 Co 0.63375 0.00182 0.04472 0.0
O71 O 0.64948 0.99776 0.06188 0.0
O72 O 0.62224 0.97421 0.0476 0.0
C73 C 0.65703 0.02204 0.02722 0.0
O74 O 0.61437 0.00082 0.0253 0.0
Co75 Co 0.64003 0.04297 0.04487 0.0
O76 O 0.62097 0.03139 0.02267 0.0
C77 C 0.62152 0.01963 0.0765 0.0
C78 C 0.63712 0.97931 0.05894 0.0
C79 C 0.61142 0.01317 0.01756 0.0
O80 O 0.62038 0.00484 0.067 0.0
O81 O 0.63054 0.03681 0.07104 0.0
O82 O 0.64888 0.00332 0.02365 0.0
O83 O 0.65224 0.02803 0.04233 0.0
Co84 Co 0.67172 0.6876 0.34926 0.0
O85 O 0.67292 0.67289 0.36922 0.0
O86 O 0.69672 0.7013 0.36233 0.0
C87 C 0.65718 0.66227 0.32659 0.0
O88 O 0.67585 0.70662 0.32931 0.0
Co89 Co 0.63274 0.67806 0.33142 0.0
O90 O 0.64804 0.6973 0.31347 0.0
C91 C 0.64693 0.69947 0.36976 0.0
C92 C 0.69044 0.68663 0.37273 0.0
C93 C 0.66588 0.70851 0.31612 0.0
O94 O 0.66297 0.70097 0.36777 0.0
O95 O 0.63269 0.68963 0.35756 0.0
O96 O 0.67534 0.67132 0.33014 0.0
O97 O 0.64841 0.66771 0.3378 0.0
Co98 Co 0.31002 0.96493 0.39831 0.0
O99 O 0.32665 0.97735 0.37858 0.0
O100 O 0.32036 0.94946 0.38922 0.0
C101 C 0.32165 0.99213 0.41851 0.0
O102 O 0.29421 0.94808 0.41887 0.0
Co103 Co 0.28159 0.97696 0.41038 0.0
O104 O 0.27682 0.95963 0.43101 0.0
C105 C 0.27435 0.95326 0.3737 0.0
C106 C 0.32945 0.96293 0.37775 0.0
C107 C 0.2827 0.94785 0.43088 0.0
O108 O 0.28807 0.95084 0.37833 0.0
O109 O 0.27054 0.96439 0.38384 0.0
O110 O 0.32995 0.9822 0.4181 0.0
O111 O 0.30761 0.98609 0.40596 0.0
Co112 Co 0.04246 0.33431 0.35572 0.0
O113 O 0.02921 0.34101 0.33795 0.0
O114 O 0.05768 0.36176 0.35202 0.0
C115 C 0.01758 0.31721 0.37293 0.0
O116 O 0.05999 0.33292 0.37567 0.0
Co117 Co 0.03035 0.29143 0.35892 0.0
O118 O 0.04657 0.3021 0.38332 0.0
C119 C 0.05073 0.31122 0.32592 0.0
C120 C 0.04352 0.3587 0.34065 0.0
C121 C 0.05911 0.32013 0.3864 0.0
O122 O 0.05403 0.32755 0.33404 0.0
O123 O 0.0402 0.29488 0.33272 0.0
O124 O 0.02802 0.336 0.37631 0.0
O125 O 0.02165 0.30954 0.35858 0.0
Co126 Co 0.66087 0.97559 0.38024 0.0
O127 O 0.65761 0.9874 0.35861 0.0
O128 O 0.63503 0.96042 0.36942 0.0
C129 C 0.67715 0.00357 0.39949 0.0
O130 O 0.65862 0.95942 0.40239 0.0
Co131 Co 0.70068 0.98695 0.39712 0.0
O132 O 0.68691 0.97166 0.41836 0.0
C133 C 0.68427 0.96143 0.36084 0.0
C134 C 0.64006 0.97341 0.35715 0.0
C135 C 0.66913 0.95982 0.41656 0.0
O136 O 0.66832 0.96013 0.36294 0.0
O137 O 0.69905 0.97249 0.37209 0.0
O138 O 0.65882 0.99418 0.39784 0.0
O139 O 0.68481 0.99645 0.38873 0.0
Co140 Co 0.02565 0.70479 0.34047 0.0
O141 O 0.00789 0.69047 0.35872 0.0
O142 O 0.01191 0.71736 0.3474 0.0
C143 C 0.01852 0.67884 0.32005 0.0
O144 O 0.04222 0.72309 0.32121 0.0
Co145 Co 0.05838 0.69759 0.33285 0.0
O146 O 0.06335 0.71513 0.31236 0.0
C147 C 0.05944 0.71911 0.36881 0.0
C148 C 0.00303 0.70335 0.35836 0.0
C149 C 0.05566 0.72522 0.31096 0.0
O150 O 0.04555 0.72037 0.36216 0.0
O151 O 0.06548 0.70917 0.36018 0.0
O152 O 0.00828 0.68668 0.31934 0.0
O153 O 0.03147 0.68578 0.33398 0.0
Co154 Co 0.29678 0.33301 0.37818 0.0
O155 O 0.31101 0.32833 0.39688 0.0
O156 O 0.28314 0.30578 0.38263 0.0
C157 C 0.32119 0.35049 0.3605 0.0
O158 O 0.27844 0.33211 0.35747 0.0
Co159 Co 0.30584 0.37461 0.37289 0.0
O160 O 0.28993 0.36226 0.34855 0.0
C161 C 0.28551 0.35512 0.4061 0.0
C162 C 0.29751 0.31024 0.39438 0.0
C163 C 0.27832 0.34395 0.34604 0.0
O164 O 0.28427 0.33929 0.39922 0.0
O165 O 0.29453 0.37117 0.39835 0.0
O166 O 0.31183 0.3316 0.35828 0.0
O167 O 0.31649 0.35822 0.37429 0.0
Co168 Co 0.34149 0.02388 0.68334 0.0
O169 O 0.3449 0.01234 0.70512 0.0
O170 O 0.36733 0.03933 0.69415 0.0
C171 C 0.32545 0.99583 0.66417 0.0
O172 O 0.3435 0.03986 0.66106 0.0
Co173 Co 0.30133 0.01189 0.66679 0.0
O174 O 0.31482 0.02841 0.6462 0.0
C175 C 0.31799 0.03812 0.7025 0.0
C176 C 0.36238 0.0265 0.70658 0.0
C177 C 0.33265 0.03998 0.64758 0.0
O178 O 0.33386 0.03922 0.70054 0.0
O179 O 0.30314 0.02706 0.69136 0.0
O180 O 0.34378 0.00539 0.66588 0.0
O181 O 0.31763 0.00279 0.67491 0.0
Co182 Co 0.97556 0.29567 0.72658 0.0
O183 O 0.99256 0.3111 0.70827 0.0
O184 O 0.98868 0.2833 0.71668 0.0
C185 C 0.98387 0.32053 0.74892 0.0
O186 O 0.95977 0.27626 0.74551 0.0
Co187 Co 0.9437 0.30297 0.73825 0.0
O188 O 0.93982 0.28458 0.7575 0.0
C189 C 0.94022 0.2825 0.70056 0.0
C190 C 0.9973 0.29812 0.70655 0.0
C191 C 0.94711 0.27403 0.757 0.0
O192 O 0.95471 0.28144 0.70544 0.0
O193 O 0.93464 0.29188 0.711 0.0
O194 O 0.994 0.31258 0.74766 0.0
O195 O 0.97037 0.31449 0.73572 0.0
Co196 Co 0.70458 0.66646 0.68601 0.0
O197 O 0.69112 0.67021 0.66566 0.0
O198 O 0.71848 0.69332 0.68021 0.0
C199 C 0.67951 0.64996 0.70317 0.0
O200 O 0.72214 0.66818 0.70809 0.0
Co201 Co 0.69472 0.62496 0.6938 0.0
O202 O 0.71001 0.63838 0.71831 0.0
C203 C 0.71543 0.64268 0.66018 0.0
C204 C 0.70451 0.68839 0.66764 0.0
C205 C 0.7217 0.6567 0.72031 0.0
O206 O 0.7178 0.65914 0.66668 0.0
O207 O 0.70526 0.62687 0.668 0.0
O208 O 0.68873 0.66884 0.70442 0.0
O209 O 0.68467 0.64163 0.69049 0.0
Co210 Co 0.33091 0.31128 0.71492 0.0
O211 O 0.32953 0.32547 0.69452 0.0
O212 O 0.3053 0.29849 0.70349 0.0
C213 C 0.34811 0.33771 0.73601 0.0
O214 O 0.32673 0.29306 0.73575 0.0
Co215 Co 0.36933 0.3184 0.73136 0.0
O216 O 0.35442 0.30303 0.752 0.0
C217 C 0.35174 0.29431 0.69466 0.0
C218 C 0.31163 0.31255 0.69232 0.0
C219 C 0.33653 0.29209 0.74979 0.0
O220 O 0.33703 0.29556 0.69635 0.0
O221 O 0.36636 0.30298 0.70649 0.0
O222 O 0.32991 0.32955 0.73379 0.0
O223 O 0.35533 0.33054 0.72461 0.0
Co224 Co 0.69221 0.03579 0.66979 0.0
O225 O 0.67472 0.02497 0.68917 0.0
O226 O 0.68266 0.05257 0.67659 0.0
C227 C 0.68022 0.00787 0.65082 0.0
O228 O 0.70928 0.05112 0.64928 0.0
Co229 Co 0.71955 0.02133 0.66135 0.0
O230 O 0.72679 0.03855 0.64019 0.0
C231 C 0.72521 0.04534 0.6972 0.0
C232 C 0.67281 0.03989 0.68848 0.0
C233 C 0.72135 0.05059 0.63859 0.0
O234 O 0.71356 0.04986 0.6904 0.0
O235 O 0.72794 0.03257 0.68872 0.0
O236 O 0.67275 0.01852 0.64965 0.0
O237 O 0.69356 0.01361 0.66415 0.0
Co238 Co 0.95963 0.66758 0.70935 0.0
O239 O 0.97324 0.66233 0.72822 0.0
O240 O 0.94552 0.64025 0.71356 0.0
C241 C 0.98454 0.68529 0.69243 0.0
O242 O 0.94178 0.66721 0.68846 0.0
Co243 Co 0.9692 0.70933 0.70457 0.0
O244 O 0.95303 0.69756 0.68028 0.0
C245 C 0.9484 0.68958 0.7374 0.0
C246 C 0.95951 0.64431 0.72573 0.0
C247 C 0.94152 0.67925 0.67742 0.0
O248 O 0.94688 0.67371 0.73023 0.0
O249 O 0.95785 0.70578 0.73 0.0
O250 O 0.97497 0.66642 0.68955 0.0
O251 O 0.9797 0.69282 0.70624 0.0
H252 H 0.15136 0.34312 0.03668 0.0
H253 H 0.25941 0.29178 0.18959 0.0
H254 H 0.15503 0.35105 0.15029 0.0
H255 H 0.13279 0.35784 0.13433 0.0
H256 H 0.097 0.29678 0.11488 0.0
H257 H 0.11948 0.29017 0.13094 0.0
H258 H 0.17311 0.35072 0.11848 0.0
H259 H 0.16607 0.3534 0.08502 0.0
H260 H 0.14591 0.29235 0.07158 0.0
H261 H 0.15282 0.28985 0.10515 0.0
H262 H 0.2059 0.35232 0.12845 0.0
H263 H 0.23135 0.36156 0.10697 0.0
H264 H 0.21916 0.30247 0.10192 0.0
H265 H 0.193 0.29302 0.12268 0.0
H266 H 0.21806 0.34284 0.1763 0.0
H267 H 0.24538 0.34155 0.18819 0.0
H268 H 0.21622 0.28028 0.16855 0.0
H269 H 0.18901 0.2818 0.15685 0.0
H270 H 0.18342 0.33845 0.20316 0.0
H271 H 0.19506 0.33727 0.23525 0.0
H272 H 0.18116 0.27839 0.21974 0.0
H273 H 0.16902 0.27951 0.18773 0.0
H274 H 0.15284 0.34286 0.18338 0.0
H275 H 0.13233 0.34116 0.20847 0.0
H276 H 0.11135 0.27987 0.20994 0.0
H277 H 0.13137 0.28147 0.18421 0.0
O278 O 0.15417 0.34178 0.0498 0.0
O279 O 0.14428 0.31043 0.04358 0.0
O280 O 0.2633 0.32429 0.19468 0.0
O281 O 0.24891 0.29278 0.18482 0.0
C282 C 0.15405 0.31694 0.14819 0.0
C283 C 0.16677 0.31811 0.13466 0.0
C284 C 0.18249 0.31687 0.14038 0.0
C285 C 0.18481 0.31309 0.15934 0.0
C286 C 0.17177 0.31127 0.17279 0.0
C287 C 0.15652 0.31349 0.16729 0.0
C288 C 0.13867 0.32007 0.14209 0.0
C289 C 0.14204 0.33904 0.14321 0.0
C290 C 0.12937 0.3429 0.13396 0.0
C291 C 0.11319 0.32786 0.12326 0.0
C292 C 0.10945 0.3087 0.12286 0.0
C293 C 0.12212 0.30484 0.1322 0.0
C294 C 0.16331 0.32006 0.11423 0.0
C295 C 0.16711 0.33794 0.10829 0.0
C296 C 0.16312 0.33943 0.08916 0.0
C297 C 0.15536 0.32307 0.07563 0.0
C298 C 0.15183 0.30522 0.08163 0.0
C299 C 0.1558 0.30376 0.10077 0.0
C300 C 0.19767 0.32202 0.12718 0.0
C301 C 0.20857 0.34131 0.12253 0.0
C302 C 0.22307 0.34657 0.11033 0.0
C303 C 0.22715 0.33271 0.10294 0.0
C304 C 0.21629 0.3134 0.10761 0.0
C305 C 0.20146 0.30803 0.11948 0.0
C306 C 0.20168 0.31246 0.1656 0.0
C307 C 0.21769 0.32921 0.17447 0.0
C308 C 0.23323 0.3284 0.18128 0.0
C309 C 0.23299 0.31079 0.17932 0.0
C310 C 0.2169 0.29407 0.17028 0.0
C311 C 0.20138 0.2949 0.16351 0.0
C312 C 0.17548 0.30911 0.1931 0.0
C313 C 0.18233 0.32509 0.20688 0.0
C314 C 0.18899 0.32439 0.22518 0.0
C315 C 0.18911 0.30777 0.22991 0.0
C316 C 0.18134 0.29141 0.2164 0.0
C317 C 0.17441 0.29203 0.19817 0.0
C318 C 0.14326 0.31219 0.18164 0.0
C319 C 0.14338 0.32894 0.18865 0.0
C320 C 0.1318 0.32799 0.20306 0.0
C321 C 0.12025 0.31037 0.21102 0.0
C322 C 0.12015 0.29361 0.20401 0.0
C323 C 0.13149 0.29449 0.18933 0.0
C324 C 0.15092 0.32463 0.05537 0.0
C325 C 0.24935 0.30978 0.18675 0.0
H326 H 0.67224 0.8137 0.0497 0.0
H327 H 0.7111 0.97351 0.20742 0.0
H328 H 0.67029 0.80915 0.15479 0.0
H329 H 0.66729 0.77751 0.14797 0.0
H330 H 0.7273 0.80417 0.16024 0.0
H331 H 0.7302 0.83597 0.1675 0.0
H332 H 0.66608 0.83401 0.12966 0.0
H333 H 0.66296 0.82319 0.09559 0.0
H334 H 0.72311 0.84691 0.09714 0.0
H335 H 0.72603 0.85781 0.13117 0.0
H336 H 0.66049 0.85983 0.15428 0.0
H337 H 0.64738 0.8741 0.13389 0.0
H338 H 0.70258 0.91161 0.11402 0.0
H339 H 0.71544 0.89666 0.13415 0.0
H340 H 0.67113 0.87695 0.1964 0.0
H341 H 0.66997 0.90555 0.20801 0.0
H342 H 0.72429 0.94286 0.18623 0.0
H343 H 0.72536 0.91413 0.17493 0.0
H344 H 0.67612 0.84819 0.21759 0.0
H345 H 0.67389 0.86225 0.24862 0.0
H346 H 0.72941 0.91263 0.24469 0.0
H347 H 0.73146 0.89846 0.21357 0.0
H348 H 0.67519 0.81409 0.19493 0.0
H349 H 0.67633 0.79238 0.21698 0.0
H350 H 0.73425 0.83587 0.23498 0.0
H351 H 0.73323 0.85746 0.21217 0.0
O352 O 0.6738 0.81816 0.06314 0.0
O353 O 0.70477 0.83053 0.06473 0.0
O354 O 0.68328 0.94214 0.21388 0.0
O355 O 0.71108 0.96196 0.20276 0.0
C356 C 0.70158 0.84331 0.16735 0.0
C357 C 0.69828 0.85338 0.15346 0.0
C358 C 0.69657 0.86939 0.15935 0.0
C359 C 0.69963 0.87625 0.17893 0.0
C360 C 0.70308 0.86626 0.19283 0.0
C361 C 0.70355 0.84947 0.1871 0.0
C362 C 0.70047 0.82479 0.16146 0.0
C363 C 0.68281 0.8082 0.15583 0.0
C364 C 0.68109 0.79018 0.15221 0.0
C365 C 0.69704 0.78851 0.15389 0.0
C366 C 0.71484 0.8052 0.15902 0.0
C367 C 0.71651 0.82326 0.16301 0.0
C368 C 0.69631 0.84689 0.13278 0.0
C369 C 0.67858 0.83702 0.12256 0.0
C370 C 0.67683 0.83078 0.10313 0.0
C371 C 0.6928 0.83423 0.09362 0.0
C372 C 0.71054 0.84405 0.104 0.0
C373 C 0.71225 0.8503 0.12342 0.0
C374 C 0.68888 0.87725 0.14564 0.0
C375 C 0.66968 0.87095 0.14531 0.0
C376 C 0.66226 0.87921 0.13377 0.0
C377 C 0.67396 0.89412 0.12246 0.0
C378 C 0.69315 0.90002 0.12242 0.0
C379 C 0.70056 0.8916 0.13393 0.0
C380 C 0.69839 0.89352 0.18496 0.0
C381 C 0.68275 0.89132 0.19416 0.0
C382 C 0.68212 0.90767 0.20076 0.0
C383 C 0.69709 0.92651 0.19812 0.0
C384 C 0.71256 0.92858 0.18855 0.0
C385 C 0.71319 0.91221 0.18202 0.0
C386 C 0.70394 0.87234 0.21339 0.0
C387 C 0.68807 0.86193 0.22378 0.0
C388 C 0.68679 0.87001 0.24144 0.0
C389 C 0.70136 0.88865 0.2489 0.0
C390 C 0.71785 0.89837 0.23911 0.0
C391 C 0.71914 0.89024 0.22147 0.0
C392 C 0.70423 0.83718 0.20168 0.0
C393 C 0.6882 0.81889 0.20346 0.0
C394 C 0.68888 0.80651 0.21602 0.0
C395 C 0.70548 0.81237 0.2274 0.0
C396 C 0.72135 0.83101 0.22622 0.0
C397 C 0.72077 0.84332 0.2133 0.0
C398 C 0.6909 0.82757 0.07298 0.0
C399 C 0.69665 0.94394 0.2054 0.0
H400 H 0.14001 0.83648 0.04246 0.0
H401 H 0.28682 0.96886 0.22 0.0
H402 H 0.12245 0.84963 0.15627 0.0
H403 H 0.0931 0.81902 0.1449 0.0
H404 H 0.12466 0.79048 0.13761 0.0
H405 H 0.15383 0.82103 0.14855 0.0
H406 H 0.14666 0.86726 0.12207 0.0
H407 H 0.13989 0.85582 0.08792 0.0
H408 H 0.18104 0.83845 0.09209 0.0
H409 H 0.18752 0.84977 0.12628 0.0
H410 H 0.1898 0.90173 0.123 0.0
H411 H 0.21448 0.91557 0.1006 0.0
H412 H 0.24811 0.90024 0.13521 0.0
H413 H 0.22262 0.88479 0.15621 0.0
H414 H 0.20425 0.92631 0.16807 0.0
H415 H 0.23373 0.9559 0.18036 0.0
H416 H 0.25093 0.92096 0.20897 0.0
H417 H 0.22156 0.8915 0.19635 0.0
H418 H 0.18338 0.90961 0.20872 0.0
H419 H 0.19657 0.92049 0.24207 0.0
H420 H 0.19944 0.86874 0.24537 0.0
H421 H 0.18625 0.85801 0.21213 0.0
H422 H 0.14027 0.86963 0.20306 0.0
H423 H 0.1172 0.84829 0.22487 0.0
H424 H 0.12979 0.80381 0.20914 0.0
H425 H 0.15303 0.82524 0.18798 0.0
O426 O 0.14288 0.84088 0.05598 0.0
O427 O 0.16423 0.83227 0.05887 0.0
O428 O 0.26581 0.97469 0.19954 0.0
O429 O 0.27514 0.9574 0.21481 0.0
C430 C 0.15786 0.85564 0.16026 0.0
C431 C 0.17152 0.86623 0.14736 0.0
C432 C 0.18905 0.88272 0.15437 0.0
C433 C 0.19257 0.88894 0.1742 0.0
C434 C 0.179 0.87801 0.18713 0.0
C435 C 0.1617 0.8613 0.18016 0.0
C436 C 0.14017 0.83746 0.1531 0.0
C437 C 0.12295 0.83674 0.15214 0.0
C438 C 0.10629 0.81935 0.14574 0.0
C439 C 0.10672 0.80247 0.14063 0.0
C440 C 0.12399 0.80327 0.14174 0.0
C441 C 0.14062 0.82068 0.14779 0.0
C442 C 0.16764 0.85944 0.12659 0.0
C443 C 0.15417 0.86096 0.11557 0.0
C444 C 0.15036 0.85444 0.09607 0.0
C445 C 0.15995 0.84626 0.08726 0.0
C446 C 0.17343 0.84471 0.09841 0.0
C447 C 0.17719 0.85121 0.11792 0.0
C448 C 0.20443 0.89232 0.1413 0.0
C449 C 0.20246 0.90125 0.12559 0.0
C450 C 0.2167 0.90933 0.11291 0.0
C451 C 0.2334 0.90906 0.11599 0.0
C452 C 0.23536 0.90038 0.13201 0.0
C453 C 0.22092 0.89185 0.14431 0.0
C454 C 0.21069 0.90679 0.18147 0.0
C455 C 0.21443 0.92509 0.17695 0.0
C456 C 0.23126 0.94196 0.18401 0.0
C457 C 0.24466 0.9408 0.19573 0.0
C458 C 0.2409 0.92239 0.20006 0.0
C459 C 0.2241 0.90554 0.19293 0.0
C460 C 0.18387 0.88304 0.20806 0.0
C461 C 0.18651 0.90047 0.21682 0.0
C462 C 0.19415 0.90671 0.23576 0.0
C463 C 0.19918 0.89553 0.24624 0.0
C464 C 0.19555 0.87757 0.23772 0.0
C465 C 0.18799 0.8714 0.21877 0.0
C466 C 0.14808 0.84884 0.19373 0.0
C467 C 0.13803 0.85529 0.20441 0.0
C468 C 0.12489 0.84313 0.21677 0.0
C469 C 0.12152 0.82432 0.21838 0.0
C470 C 0.13181 0.81807 0.20783 0.0
C471 C 0.14508 0.83028 0.19577 0.0
C472 C 0.15588 0.83936 0.06653 0.0
C473 C 0.26247 0.95869 0.20342 0.0
H474 H 0.3155 0.18681 0.01427 0.0
H475 H 0.32806 0.04576 0.87275 0.0
H476 H 0.28594 0.17006 0.9171 0.0
H477 H 0.29065 0.20217 0.92501 0.0
H478 H 0.33531 0.22627 0.88621 0.0
H479 H 0.33226 0.19476 0.88077 0.0
H480 H 0.28969 0.13892 0.94084 0.0
H481 H 0.29577 0.1545 0.97354 0.0
H482 H 0.3477 0.20354 0.95756 0.0
H483 H 0.34154 0.1877 0.92496 0.0
H484 H 0.29158 0.10189 0.92445 0.0
H485 H 0.30418 0.08754 0.94559 0.0
H486 H 0.35975 0.13892 0.94578 0.0
H487 H 0.34709 0.15298 0.92439 0.0
H488 H 0.2788 0.08979 0.87858 0.0
H489 H 0.27965 0.06009 0.87218 0.0
H490 H 0.34028 0.09351 0.88358 0.0
H491 H 0.33923 0.12313 0.88966 0.0
H492 H 0.27432 0.11145 0.84754 0.0
H493 H 0.27462 0.09665 0.81579 0.0
H494 H 0.33539 0.12636 0.82299 0.0
H495 H 0.33494 0.14076 0.85458 0.0
H496 H 0.2741 0.15631 0.86834 0.0
H497 H 0.27127 0.17552 0.84404 0.0
H498 H 0.32456 0.18779 0.82374 0.0
H499 H 0.32742 0.16905 0.84808 0.0
O500 O 0.31344 0.18088 0.00129 0.0
O501 O 0.33996 0.20578 0.99234 0.0
O502 O 0.29617 0.04081 0.86914 0.0
O503 O 0.32732 0.05727 0.87514 0.0
C504 C 0.30734 0.1609 0.89513 0.0
C505 C 0.31118 0.1527 0.91067 0.0
C506 C 0.31177 0.13559 0.90728 0.0
C507 C 0.30824 0.12651 0.88846 0.0
C508 C 0.30477 0.13486 0.87295 0.0
C509 C 0.30397 0.15184 0.87622 0.0
C510 C 0.30874 0.18001 0.89838 0.0
C511 C 0.29681 0.18235 0.91045 0.0
C512 C 0.29935 0.20075 0.91467 0.0
C513 C 0.31347 0.21708 0.90634 0.0
C514 C 0.32466 0.21432 0.89339 0.0
C515 C 0.32267 0.19614 0.8899 0.0
C516 C 0.3151 0.16223 0.93052 0.0
C517 C 0.30239 0.153 0.94446 0.0
C518 C 0.30589 0.16195 0.96311 0.0
C519 C 0.32219 0.1803 0.96816 0.0
C520 C 0.33498 0.18944 0.95415 0.0
C521 C 0.33148 0.18045 0.93551 0.0
C522 C 0.31842 0.12845 0.92289 0.0
C523 C 0.30637 0.1102 0.92943 0.0
C524 C 0.3136 0.10207 0.94153 0.0
C525 C 0.33299 0.11207 0.94721 0.0
C526 C 0.3448 0.13081 0.94145 0.0
C527 C 0.33756 0.13893 0.92941 0.0
C528 C 0.30892 0.10855 0.88473 0.0
C529 C 0.29224 0.09064 0.87967 0.0
C530 C 0.29277 0.07371 0.87604 0.0
C531 C 0.31004 0.07441 0.87743 0.0
C532 C 0.32675 0.09244 0.88244 0.0
C533 C 0.32619 0.10937 0.88599 0.0
C534 C 0.30461 0.12717 0.8532 0.0
C535 C 0.28765 0.11489 0.84208 0.0
C536 C 0.28785 0.10645 0.82409 0.0
C537 C 0.30504 0.11051 0.817 0.0
C538 C 0.32199 0.12324 0.82803 0.0
C539 C 0.32175 0.13138 0.84604 0.0
C540 C 0.3008 0.16096 0.8598 0.0
C541 C 0.28494 0.16282 0.85835 0.0
C542 C 0.2834 0.17387 0.84456 0.0
C543 C 0.29763 0.18306 0.8319 0.0
C544 C 0.31314 0.18055 0.83298 0.0
C545 C 0.31476 0.16971 0.84684 0.0
C546 C 0.3258 0.18981 0.98796 0.0
C547 C 0.31068 0.05645 0.87364 0.0
H548 H 0.84094 0.16466 0.0251 0.0
H549 H 0.72668 0.01292 0.85833 0.0
H550 H 0.84975 0.17564 0.9259 0.0
H551 H 0.87872 0.20561 0.93852 0.0
H552 H 0.91173 0.18178 0.91832 0.0
H553 H 0.88252 0.15123 0.90639 0.0
H554 H 0.81633 0.14717 0.94336 0.0
H555 H 0.8228 0.15619 0.97797 0.0
H556 H 0.86383 0.13853 0.97861 0.0
H557 H 0.85706 0.12935 0.94402 0.0
H558 H 0.78223 0.11639 0.91035 0.0
H559 H 0.75616 0.10177 0.93072 0.0
H560 H 0.78635 0.08216 0.96491 0.0
H561 H 0.81159 0.09519 0.94304 0.0
H562 H 0.78231 0.10962 0.87163 0.0
H563 H 0.75304 0.08076 0.85779 0.0
H564 H 0.77031 0.04407 0.8825 0.0
H565 H 0.79972 0.07309 0.89596 0.0
H566 H 0.81585 0.14276 0.85815 0.0
H567 H 0.80153 0.13333 0.82508 0.0
H568 H 0.80894 0.08413 0.82219 0.0
H569 H 0.82285 0.09331 0.85552 0.0
H570 H 0.85379 0.17572 0.88184 0.0
H571 H 0.8772 0.19687 0.86063 0.0
H572 H 0.88609 0.15031 0.84205 0.0
H573 H 0.86274 0.12923 0.86366 0.0
O574 O 0.83854 0.16092 0.01144 0.0
O575 O 0.85956 0.15173 0.01097 0.0
O576 O 0.73002 0.04408 0.85105 0.0
O577 O 0.73814 0.02457 0.86363 0.0
C578 C 0.8463 0.14321 0.90771 0.0
C579 C 0.8323 0.13207 0.92016 0.0
C580 C 0.81462 0.1162 0.91251 0.0
C581 C 0.81135 0.11091 0.89252 0.0
C582 C 0.82523 0.12227 0.88009 0.0
C583 C 0.84268 0.13841 0.88764 0.0
C584 C 0.86401 0.16113 0.91555 0.0
C585 C 0.86317 0.17669 0.92451 0.0
C586 C 0.87965 0.19379 0.93154 0.0
C587 C 0.89723 0.19576 0.92933 0.0
C588 C 0.89821 0.1804 0.92011 0.0
C589 C 0.88163 0.16306 0.91338 0.0
C590 C 0.8361 0.13744 0.94122 0.0
C591 C 0.8266 0.14512 0.95103 0.0
C592 C 0.83037 0.15033 0.97079 0.0
C593 C 0.84381 0.14805 0.98107 0.0
C594 C 0.85338 0.14044 0.97114 0.0
C595 C 0.84955 0.13519 0.95139 0.0
C596 C 0.79873 0.10667 0.92502 0.0
C597 C 0.78301 0.10852 0.92197 0.0
C598 C 0.76826 0.10049 0.93394 0.0
C599 C 0.76912 0.09093 0.94972 0.0
C600 C 0.78498 0.08914 0.95279 0.0
C601 C 0.79954 0.09673 0.94041 0.0
C602 C 0.79325 0.09344 0.88458 0.0
C603 C 0.77983 0.09534 0.87389 0.0
C604 C 0.76307 0.07883 0.86609 0.0
C605 C 0.75936 0.06009 0.86899 0.0
C606 C 0.77275 0.05827 0.87995 0.0
C607 C 0.78954 0.07481 0.88768 0.0
C608 C 0.82034 0.11868 0.85914 0.0
C609 C 0.81484 0.13025 0.8502 0.0
C610 C 0.80664 0.12485 0.83145 0.0
C611 C 0.80423 0.10807 0.82131 0.0
C612 C 0.81085 0.09721 0.82981 0.0
C613 C 0.81877 0.10242 0.84872 0.0
C614 C 0.85671 0.15102 0.87443 0.0
C615 C 0.86093 0.17015 0.87336 0.0
C616 C 0.87435 0.18221 0.86131 0.0
C617 C 0.88363 0.17529 0.84987 0.0
C618 C 0.87918 0.15601 0.85074 0.0
C619 C 0.86586 0.14398 0.86301 0.0
C620 C 0.84783 0.15365 0.00205 0.0
C621 C 0.74161 0.0425 0.86066 0.0
H622 H 0.86603 0.6953 0.0366 0.0
H623 H 0.72033 0.6707 0.88069 0.0
H624 H 0.88033 0.70855 0.93774 0.0
H625 H 0.9029 0.70173 0.95306 0.0
H626 H 0.87138 0.64289 0.92579 0.0
H627 H 0.84921 0.65005 0.91021 0.0
H628 H 0.84664 0.70979 0.96095 0.0
H629 H 0.85569 0.70911 0.99436 0.0
H630 H 0.84313 0.65026 0.9814 0.0
H631 H 0.83383 0.65103 0.94814 0.0
H632 H 0.80641 0.70533 0.94088 0.0
H633 H 0.7804 0.69643 0.96169 0.0
H634 H 0.77335 0.63979 0.9648 0.0
H635 H 0.79865 0.64833 0.94333 0.0
H636 H 0.81356 0.71581 0.89924 0.0
H637 H 0.78568 0.71714 0.88989 0.0
H638 H 0.75053 0.65514 0.89383 0.0
H639 H 0.77859 0.65399 0.90294 0.0
H640 H 0.83896 0.71733 0.87373 0.0
H641 H 0.82701 0.71846 0.8415 0.0
H642 H 0.79213 0.65571 0.83553 0.0
H643 H 0.8037 0.65475 0.86775 0.0
H644 H 0.87818 0.71336 0.89156 0.0
H645 H 0.89725 0.71411 0.8652 0.0
H646 H 0.85408 0.6551 0.84499 0.0
H647 H 0.83522 0.65446 0.87139 0.0
O648 O 0.8621 0.69515 0.02339 0.0
O649 O 0.85562 0.66498 0.01594 0.0
O650 O 0.75035 0.70235 0.88217 0.0
O651 O 0.73161 0.67056 0.88427 0.0
C652 C 0.84722 0.68229 0.9175 0.0
C653 C 0.83513 0.6815 0.93168 0.0
C654 C 0.81875 0.68179 0.92647 0.0
C655 C 0.81508 0.68415 0.90732 0.0
C656 C 0.82726 0.68519 0.89322 0.0
C657 C 0.84315 0.68392 0.89824 0.0
C658 C 0.86317 0.67979 0.9229 0.0
C659 C 0.87868 0.69439 0.93464 0.0
C660 C 0.89137 0.69037 0.94356 0.0
C661 C 0.88872 0.67164 0.94094 0.0
C662 C 0.8739 0.65747 0.92806 0.0
C663 C 0.86125 0.66155 0.91908 0.0
C664 C 0.83974 0.68053 0.95211 0.0
C665 C 0.84574 0.69673 0.96541 0.0
C666 C 0.85096 0.69631 0.98445 0.0
C667 C 0.85024 0.67966 0.99053 0.0
C668 C 0.84393 0.66334 0.97719 0.0
C669 C 0.83865 0.66376 0.95817 0.0
C670 C 0.80442 0.67748 0.94058 0.0
C671 C 0.79926 0.69102 0.94607 0.0
C672 C 0.78447 0.68595 0.9579 0.0
C673 C 0.77497 0.66745 0.96474 0.0
C674 C 0.78058 0.65417 0.95978 0.0
C675 C 0.79505 0.65908 0.94762 0.0
C676 C 0.79806 0.68481 0.90174 0.0
C677 C 0.79983 0.70253 0.89799 0.0
C678 C 0.78388 0.70325 0.8927 0.0
C679 C 0.76586 0.68624 0.89112 0.0
C680 C 0.76418 0.6685 0.89491 0.0
C681 C 0.78016 0.6678 0.90014 0.0
C682 C 0.82227 0.68595 0.87293 0.0
C683 C 0.82899 0.70386 0.86527 0.0
C684 C 0.82212 0.70449 0.84698 0.0
C685 C 0.80875 0.68717 0.83605 0.0
C686 C 0.80263 0.66925 0.84355 0.0
C687 C 0.80921 0.66867 0.8619 0.0
C688 C 0.85527 0.68394 0.88319 0.0
C689 C 0.87297 0.70057 0.88152 0.0
C690 C 0.88383 0.70095 0.86652 0.0
C691 C 0.87705 0.68471 0.85296 0.0
C692 C 0.8595 0.66791 0.85504 0.0
C693 C 0.84875 0.66751 0.87009 0.0
C694 C 0.85611 0.67941 0.01069 0.0
C695 C 0.74886 0.68695 0.88558 0.0
H696 H 0.83039 0.69414 0.37212 0.0
H697 H 0.92155 0.62253 0.51109 0.0
H698 H 0.81947 0.68641 0.47753 0.0
H699 H 0.79582 0.69213 0.46297 0.0
H700 H 0.7567 0.63006 0.45362 0.0
H701 H 0.78046 0.62446 0.46849 0.0
H702 H 0.85073 0.68944 0.45151 0.0
H703 H 0.84655 0.6971 0.41912 0.0
H704 H 0.80047 0.63772 0.40551 0.0
H705 H 0.80496 0.63022 0.43784 0.0
H706 H 0.88237 0.68378 0.47825 0.0
H707 H 0.90816 0.69301 0.45773 0.0
H708 H 0.8702 0.64601 0.4153 0.0
H709 H 0.84495 0.63571 0.43701 0.0
H710 H 0.87777 0.67229 0.51705 0.0
H711 H 0.9038 0.66829 0.5276 0.0
H712 H 0.88148 0.61687 0.48767 0.0
H713 H 0.85533 0.62084 0.47749 0.0
H714 H 0.84234 0.67028 0.53598 0.0
H715 H 0.85406 0.66883 0.56789 0.0
H716 H 0.84753 0.61347 0.54931 0.0
H717 H 0.83513 0.61466 0.51747 0.0
H718 H 0.81174 0.67461 0.51357 0.0
H719 H 0.79127 0.67154 0.5392 0.0
H720 H 0.77622 0.61202 0.54276 0.0
H721 H 0.79604 0.61483 0.51643 0.0
O722 O 0.83185 0.69079 0.38482 0.0
O723 O 0.80814 0.66015 0.37864 0.0
O724 O 0.92218 0.65087 0.5276 0.0
O725 O 0.91149 0.62455 0.50706 0.0
C726 C 0.81705 0.65187 0.47994 0.0
C727 C 0.83053 0.65465 0.46668 0.0
C728 C 0.84633 0.65343 0.47227 0.0
C729 C 0.8482 0.64857 0.49091 0.0
C730 C 0.83462 0.64559 0.50418 0.0
C731 C 0.81903 0.6473 0.4987 0.0
C732 C 0.8016 0.65503 0.47417 0.0
C733 C 0.80561 0.67407 0.4728 0.0
C734 C 0.79212 0.67731 0.46449 0.0
C735 C 0.77447 0.66154 0.45713 0.0
C736 C 0.77024 0.64246 0.45911 0.0
C737 C 0.78369 0.63923 0.46771 0.0
C738 C 0.82818 0.65928 0.44697 0.0
C739 C 0.83981 0.67811 0.44146 0.0
C740 C 0.83735 0.68244 0.42298 0.0
C741 C 0.82317 0.66802 0.40972 0.0
C742 C 0.81153 0.64916 0.41535 0.0
C743 C 0.81404 0.64484 0.4338 0.0
C744 C 0.86179 0.65896 0.45925 0.0
C745 C 0.87971 0.67527 0.46465 0.0
C746 C 0.89439 0.68075 0.45267 0.0
C747 C 0.89137 0.67043 0.43464 0.0
C748 C 0.87325 0.65419 0.42915 0.0
C749 C 0.85868 0.64837 0.44145 0.0
C750 C 0.86458 0.64676 0.49662 0.0
C751 C 0.87851 0.66015 0.51063 0.0
C752 C 0.89338 0.65785 0.5166 0.0
C753 C 0.89468 0.64221 0.50852 0.0
C754 C 0.88088 0.62904 0.49422 0.0
C755 C 0.86596 0.6313 0.48833 0.0
C756 C 0.83797 0.64263 0.52435 0.0
C757 C 0.84276 0.65749 0.53897 0.0
C758 C 0.8495 0.65666 0.55717 0.0
C759 C 0.85182 0.6411 0.56097 0.0
C760 C 0.84597 0.62567 0.54667 0.0
C761 C 0.83887 0.62632 0.52855 0.0
C762 C 0.80521 0.64487 0.51291 0.0
C763 C 0.80356 0.66071 0.5194 0.0
C764 C 0.79199 0.659 0.53412 0.0
C765 C 0.78224 0.64156 0.54288 0.0
C766 C 0.78366 0.62562 0.53621 0.0
C767 C 0.79491 0.6272 0.5212 0.0
C768 C 0.82054 0.67267 0.39012 0.0
C769 C 0.91031 0.63955 0.51501 0.0
H770 H 0.33558 0.14886 0.38178 0.0
H771 H 0.36991 0.30373 0.53852 0.0
H772 H 0.33445 0.14147 0.48599 0.0
H773 H 0.3322 0.11036 0.47775 0.0
H774 H 0.39222 0.13778 0.49059 0.0
H775 H 0.39437 0.16901 0.49928 0.0
H776 H 0.32982 0.16797 0.46225 0.0
H777 H 0.32657 0.15783 0.42797 0.0
H778 H 0.38643 0.17998 0.4294 0.0
H779 H 0.3895 0.19021 0.46364 0.0
H780 H 0.32475 0.19486 0.48883 0.0
H781 H 0.31293 0.21099 0.46944 0.0
H782 H 0.36759 0.24429 0.44693 0.0
H783 H 0.37938 0.22813 0.46673 0.0
H784 H 0.33492 0.20793 0.53165 0.0
H785 H 0.33246 0.23585 0.54277 0.0
H786 H 0.38477 0.27426 0.51803 0.0
H787 H 0.38719 0.24623 0.50725 0.0
H788 H 0.34167 0.17822 0.55206 0.0
H789 H 0.34013 0.19105 0.58399 0.0
H790 H 0.39191 0.24506 0.57696 0.0
H791 H 0.39401 0.23149 0.54575 0.0
H792 H 0.33931 0.14519 0.52602 0.0
H793 H 0.34075 0.12301 0.54721 0.0
H794 H 0.39794 0.16723 0.56693 0.0
H795 H 0.39672 0.18929 0.54487 0.0
O796 O 0.3372 0.15305 0.39531 0.0
O797 O 0.36804 0.16464 0.39683 0.0
O798 O 0.34379 0.2721 0.54692 0.0
O799 O 0.37053 0.29244 0.53429 0.0
C800 C 0.3653 0.17566 0.49965 0.0
C801 C 0.36194 0.18604 0.48616 0.0
C802 C 0.36009 0.20183 0.49258 0.0
C803 C 0.36298 0.20817 0.5123 0.0
C804 C 0.36662 0.19797 0.52583 0.0
C805 C 0.3672 0.18133 0.51953 0.0
C806 C 0.36458 0.15745 0.49311 0.0
C807 C 0.34714 0.14081 0.48688 0.0
C808 C 0.34584 0.12308 0.48241 0.0
C809 C 0.36201 0.12177 0.4838 0.0
C810 C 0.37959 0.13853 0.48954 0.0
C811 C 0.38083 0.15627 0.49438 0.0
C812 C 0.35993 0.18 0.46535 0.0
C813 C 0.34223 0.17077 0.45508 0.0
C814 C 0.34041 0.16492 0.43553 0.0
C815 C 0.35625 0.16813 0.42593 0.0
C816 C 0.37395 0.17732 0.43633 0.0
C817 C 0.37575 0.18318 0.45588 0.0
C818 C 0.35289 0.21037 0.47914 0.0
C819 C 0.33409 0.20547 0.47951 0.0
C820 C 0.32735 0.21462 0.46837 0.0
C821 C 0.33933 0.22891 0.45667 0.0
C822 C 0.35809 0.23345 0.45595 0.0
C823 C 0.36481 0.22418 0.4671 0.0
C824 C 0.36131 0.2251 0.51879 0.0
C825 C 0.34587 0.2224 0.52874 0.0
C826 C 0.34448 0.23836 0.53502 0.0
C827 C 0.35845 0.25731 0.53132 0.0
C828 C 0.37379 0.25989 0.52116 0.0
C829 C 0.3752 0.24392 0.51495 0.0
C830 C 0.36796 0.20392 0.54658 0.0
C831 C 0.35308 0.1925 0.55778 0.0
C832 C 0.35205 0.20003 0.57589 0.0
C833 C 0.36567 0.21928 0.58294 0.0
C834 C 0.38123 0.23015 0.57216 0.0
C835 C 0.38245 0.22245 0.55424 0.0
C836 C 0.36803 0.16871 0.53362 0.0
C837 C 0.35225 0.15005 0.5347 0.0
C838 C 0.35309 0.13741 0.54678 0.0
C839 C 0.36956 0.14336 0.55841 0.0
C840 C 0.38516 0.16231 0.55793 0.0
C841 C 0.38445 0.17489 0.54546 0.0
C842 C 0.35426 0.16187 0.40516 0.0
C843 C 0.35707 0.27433 0.53801 0.0
H844 H 0.80755 0.1671 0.36855 0.0
H845 H 0.95241 0.29825 0.54704 0.0
H846 H 0.78988 0.1782 0.48417 0.0
H847 H 0.75973 0.14809 0.47374 0.0
H848 H 0.78948 0.1181 0.46293 0.0
H849 H 0.81951 0.14823 0.47283 0.0
H850 H 0.81373 0.19564 0.44892 0.0
H851 H 0.80716 0.18515 0.41455 0.0
H852 H 0.84838 0.16782 0.4176 0.0
H853 H 0.85468 0.1782 0.452 0.0
H854 H 0.85754 0.23041 0.45013 0.0
H855 H 0.88375 0.24682 0.42977 0.0
H856 H 0.91634 0.23046 0.4647 0.0
H857 H 0.8895 0.21251 0.48342 0.0
H858 H 0.8696 0.25345 0.49535 0.0
H859 H 0.8985 0.28358 0.50779 0.0
H860 H 0.91771 0.24991 0.53569 0.0
H861 H 0.88892 0.21992 0.52289 0.0
H862 H 0.84863 0.23532 0.53589 0.0
H863 H 0.86235 0.24647 0.56903 0.0
H864 H 0.86859 0.19662 0.57107 0.0
H865 H 0.85472 0.18553 0.53807 0.0
H866 H 0.80756 0.19482 0.53131 0.0
H867 H 0.78575 0.17245 0.55334 0.0
H868 H 0.79878 0.12924 0.53353 0.0
H869 H 0.82088 0.15174 0.51217 0.0
O870 O 0.81035 0.17112 0.38215 0.0
O871 O 0.83173 0.16251 0.38447 0.0
O872 O 0.93058 0.30319 0.5269 0.0
O873 O 0.94093 0.28657 0.54181 0.0
C874 C 0.82483 0.18302 0.48652 0.0
C875 C 0.83852 0.19399 0.47377 0.0
C876 C 0.856 0.2104 0.48105 0.0
C877 C 0.85931 0.21633 0.50093 0.0
C878 C 0.84588 0.20487 0.5137 0.0
C879 C 0.82877 0.18804 0.50653 0.0
C880 C 0.8068 0.16533 0.47913 0.0
C881 C 0.78984 0.16515 0.47936 0.0
C882 C 0.77272 0.14804 0.47351 0.0
C883 C 0.77242 0.13088 0.46782 0.0
C884 C 0.78943 0.13115 0.46752 0.0
C885 C 0.80652 0.14831 0.47297 0.0
C886 C 0.83474 0.18776 0.4529 0.0
C887 C 0.8213 0.18956 0.44212 0.0
C888 C 0.8176 0.18357 0.4225 0.0
C889 C 0.82727 0.17568 0.41331 0.0
C890 C 0.84071 0.17387 0.42421 0.0
C891 C 0.84437 0.17983 0.44384 0.0
C892 C 0.87164 0.22036 0.46834 0.0
C893 C 0.87026 0.23014 0.45311 0.0
C894 C 0.8854 0.23974 0.44165 0.0
C895 C 0.90234 0.24012 0.44554 0.0
C896 C 0.90351 0.23023 0.46087 0.0
C897 C 0.88824 0.22019 0.47187 0.0
C898 C 0.87706 0.23452 0.50839 0.0
C899 C 0.88009 0.25263 0.50412 0.0
C900 C 0.8966 0.2698 0.51126 0.0
C901 C 0.91039 0.26916 0.52282 0.0
C902 C 0.90736 0.25095 0.52691 0.0
C903 C 0.89088 0.23378 0.51969 0.0
C904 C 0.85072 0.20966 0.53464 0.0
C905 C 0.85257 0.22661 0.54369 0.0
C906 C 0.86055 0.23302 0.56251 0.0
C907 C 0.86676 0.22254 0.57253 0.0
C908 C 0.86383 0.20493 0.56377 0.0
C909 C 0.85588 0.19855 0.54495 0.0
C910 C 0.81557 0.17478 0.51995 0.0
C911 C 0.80569 0.18053 0.53179 0.0
C912 C 0.79328 0.16779 0.5443 0.0
C913 C 0.79044 0.14907 0.54489 0.0
C914 C 0.80044 0.14345 0.53307 0.0
C915 C 0.81303 0.15626 0.52087 0.0
C916 C 0.82331 0.16935 0.39246 0.0
C917 C 0.92787 0.28736 0.53058 0.0
H918 H 0.99892 0.51733 0.34796 0.0
H919 H 0.03295 0.40368 0.19033 0.0
H920 H 0.97131 0.50843 0.24562 0.0
H921 H 0.97029 0.53733 0.25649 0.0
H922 H 0.02502 0.57392 0.2352 0.0
H923 H 0.02556 0.54495 0.2239 0.0
H924 H 0.98008 0.47911 0.26985 0.0
H925 H 0.98317 0.49021 0.30384 0.0
H926 H 0.03514 0.54326 0.29501 0.0
H927 H 0.03198 0.53188 0.2611 0.0
H928 H 0.98469 0.44486 0.24626 0.0
H929 H 0.99519 0.42759 0.26585 0.0
H930 H 0.04882 0.48078 0.27969 0.0
H931 H 0.0386 0.49791 0.25934 0.0
H932 H 0.97644 0.43865 0.20336 0.0
H933 H 0.98058 0.41168 0.19283 0.0
H934 H 0.0406 0.4486 0.20736 0.0
H935 H 0.03629 0.47557 0.21747 0.0
H936 H 0.96644 0.46184 0.18151 0.0
H937 H 0.96227 0.44339 0.15063 0.0
H938 H 0.02274 0.47265 0.14876 0.0
H939 H 0.02678 0.49089 0.17967 0.0
H940 H 0.96546 0.50175 0.20121 0.0
H941 H 0.9606 0.5208 0.17823 0.0
H942 H 0.01706 0.54274 0.16078 0.0
H943 H 0.02162 0.52352 0.1835 0.0
O944 O 0.99801 0.51319 0.3345 0.0
O945 O 0.02462 0.54023 0.32918 0.0
O946 O 1.00005 0.39592 0.18658 0.0
O947 O 0.03092 0.41412 0.19432 0.0
C948 C 0.99962 0.50737 0.22831 0.0
C949 C 0.00369 0.49796 0.24239 0.0
C950 C 0.00577 0.48209 0.23679 0.0
C951 C 0.00354 0.47552 0.21715 0.0
C952 C 0.99931 0.48485 0.20316 0.0
C953 C 0.99737 0.50079 0.20868 0.0
C954 C 0.99852 0.52469 0.23407 0.0
C955 C 0.98295 0.52272 0.24318 0.0
C956 C 0.98245 0.53922 0.24942 0.0
C957 C 0.9976 0.55794 0.24675 0.0
C958 C 0.01298 0.55974 0.2372 0.0
C959 C 0.0134 0.54324 0.23086 0.0
C960 C 0.00575 0.50472 0.26303 0.0
C961 C 0.99214 0.49309 0.27531 0.0
C962 C 0.99393 0.49949 0.29471 0.0
C963 C 0.00938 0.51765 0.30214 0.0
C964 C 0.02305 0.52922 0.28975 0.0
C965 C 0.02125 0.52279 0.27037 0.0
C966 C 0.01093 0.4726 0.25126 0.0
C967 C 0.99863 0.45285 0.25366 0.0
C968 C 0.00462 0.44302 0.26478 0.0
C969 C 0.02281 0.45292 0.27405 0.0
C970 C 0.03473 0.47294 0.27263 0.0
C971 C 0.02887 0.4827 0.26114 0.0
C972 C 0.00608 0.45906 0.21109 0.0
C973 C 0.99048 0.4409 0.20414 0.0
C974 C 0.99288 0.42551 0.1982 0.0
C975 C 0.01094 0.42799 0.19925 0.0
C976 C 0.02652 0.4462 0.20635 0.0
C977 C 0.0241 0.46162 0.21217 0.0
C978 C 0.99689 0.47761 0.18273 0.0
C979 C 0.97874 0.46469 0.1741 0.0
C980 C 0.9764 0.45409 0.15662 0.0
C981 C 0.9922 0.45653 0.14749 0.0
C982 C 0.01036 0.47061 0.15548 0.0
C983 C 0.01269 0.48103 0.17305 0.0
C984 C 0.99384 0.51118 0.19391 0.0
C985 C 0.97666 0.51054 0.19224 0.0
C986 C 0.97396 0.52149 0.17921 0.0
C987 C 0.98841 0.53324 0.16761 0.0
C988 C 0.0055 0.53357 0.1692 0.0
C989 C 0.00817 0.52265 0.18221 0.0
C990 C 0.0112 0.52444 0.32273 0.0
C991 C 0.01356 0.41167 0.19298 0.0
H992 H 0.51283 0.5038 0.36101 0.0
H993 H 0.38481 0.3539 0.20074 0.0
H994 H 0.51586 0.51351 0.26072 0.0
H995 H 0.54532 0.54347 0.27225 0.0
H996 H 0.5771 0.51889 0.2502 0.0
H997 H 0.54743 0.48835 0.23941 0.0
H998 H 0.48426 0.48626 0.2804 0.0
H999 H 0.49254 0.49547 0.31483 0.0
H1000 H 0.53191 0.47569 0.31238 0.0
H1001 H 0.52331 0.46631 0.27797 0.0
H1002 H 0.45133 0.46037 0.25258 0.0
H1003 H 0.42495 0.44456 0.27276 0.0
H1004 H 0.44816 0.41179 0.29481 0.0
H1005 H 0.47486 0.42818 0.2748 0.0
H1006 H 0.44757 0.44948 0.20932 0.0
H1007 H 0.41643 0.42199 0.19751 0.0
H1008 H 0.4301 0.38257 0.22221 0.0
H1009 H 0.46128 0.41017 0.2337 0.0
H1010 H 0.48378 0.47954 0.19 0.0
H1011 H 0.47064 0.46871 0.15689 0.0
H1012 H 0.46677 0.4137 0.163 0.0
H1013 H 0.48161 0.4255 0.19549 0.0
H1014 H 0.51351 0.5103 0.21427 0.0
H1015 H 0.53426 0.53107 0.19087 0.0
H1016 H 0.55058 0.48919 0.17686 0.0
H1017 H 0.52934 0.46811 0.20012 0.0
O1018 O 0.50969 0.49994 0.34741 0.0
O1019 O 0.52981 0.48966 0.34537 0.0
O1020 O 0.39072 0.3859 0.19273 0.0
O1021 O 0.39702 0.36503 0.20525 0.0
C1022 C 0.51147 0.4806 0.24259 0.0
C1023 C 0.49813 0.46994 0.25579 0.0
C1024 C 0.48007 0.45431 0.24899 0.0
C1025 C 0.47573 0.44845 0.22917 0.0
C1026 C 0.48917 0.45885 0.21597 0.0
C1027 C 0.50689 0.47518 0.22267 0.0
C1028 C 0.52949 0.49864 0.24951 0.0
C1029 C 0.52913 0.51441 0.25864 0.0
C1030 C 0.5459 0.53151 0.26508 0.0
C1031 C 0.56328 0.53327 0.26207 0.0
C1032 C 0.56376 0.51771 0.2526 0.0
C1033 C 0.54691 0.50037 0.24649 0.0
C1034 C 0.50302 0.4754 0.27674 0.0
C1035 C 0.49451 0.48373 0.28737 0.0
C1036 C 0.49935 0.48907 0.30701 0.0
C1037 C 0.51286 0.48628 0.31637 0.0
C1038 C 0.52142 0.478 0.30563 0.0
C1039 C 0.51654 0.47263 0.28599 0.0
C1040 C 0.46489 0.44533 0.26223 0.0
C1041 C 0.45075 0.44987 0.26189 0.0
C1042 C 0.43566 0.44074 0.27332 0.0
C1043 C 0.43437 0.42679 0.28524 0.0
C1044 C 0.44885 0.4226 0.28589 0.0
C1045 C 0.46404 0.43185 0.27446 0.0
C1046 C 0.4567 0.43178 0.22223 0.0
C1047 C 0.44383 0.43489 0.21207 0.0
C1048 C 0.42604 0.41917 0.2054 0.0
C1049 C 0.42078 0.40006 0.20889 0.0
C1050 C 0.43369 0.39707 0.21924 0.0
C1051 C 0.4515 0.4128 0.22585 0.0
C1052 C 0.48384 0.45339 0.1951 0.0
C1053 C 0.48081 0.46547 0.18391 0.0
C1054 C 0.47289 0.45905 0.16509 0.0
C1055 C 0.4673 0.44017 0.15728 0.0
C1056 C 0.47108 0.42841 0.16835 0.0
C1057 C 0.47947 0.43507 0.187 0.0
C1058 C 0.51993 0.48773 0.2088 0.0
C1059 C 0.52156 0.50561 0.20616 0.0
C1060 C 0.53333 0.51738 0.19281 0.0
C1061 C 0.54387 0.5116 0.1821 0.0
C1062 C 0.54255 0.49388 0.18501 0.0
C1063 C 0.53046 0.48189 0.19818 0.0
C1064 C 0.51801 0.49203 0.33724 0.0
C1065 C 0.40193 0.3833 0.20178 0.0
H1066 H 0.5123 0.98497 0.36381 0.0
H1067 H 0.38081 0.98169 0.19513 0.0
H1068 H 0.53657 0.01853 0.26106 0.0
H1069 H 0.56157 0.01556 0.27693 0.0
H1070 H 0.52874 0.9533 0.26254 0.0
H1071 H 0.50387 0.95645 0.24672 0.0
H1072 H 0.50604 0.01284 0.29044 0.0
H1073 H 0.51129 0.00689 0.32326 0.0
H1074 H 0.48267 0.94516 0.30588 0.0
H1075 H 0.47746 0.95136 0.27313 0.0
H1076 H 0.47016 0.01375 0.27806 0.0
H1077 H 0.44541 0.00702 0.29984 0.0
H1078 H 0.41881 0.94543 0.28276 0.0
H1079 H 0.44337 0.95245 0.26062 0.0
H1080 H 0.46552 0.0225 0.24252 0.0
H1081 H 0.4383 0.02448 0.23178 0.0
H1082 H 0.41162 0.96588 0.20419 0.0
H1083 H 0.43892 0.96411 0.2151 0.0
H1084 H 0.48895 0.02904 0.21078 0.0
H1085 H 0.47832 0.03384 0.17971 0.0
H1086 H 0.46156 0.97512 0.15875 0.0
H1087 H 0.47246 0.97062 0.18975 0.0
H1088 H 0.52368 0.02704 0.21154 0.0
H1089 H 0.54576 0.03166 0.18706 0.0
H1090 H 0.53024 0.97169 0.18781 0.0
H1091 H 0.50764 0.96692 0.21171 0.0
O1092 O 0.50996 0.98698 0.35078 0.0
O1093 O 0.49529 0.9554 0.34109 0.0
O1094 O 0.406 0.01132 0.21411 0.0
O1095 O 0.39165 0.98122 0.19974 0.0
C1096 C 0.50214 0.98912 0.24629 0.0
C1097 C 0.48872 0.98635 0.25959 0.0
C1098 C 0.47304 0.9877 0.25415 0.0
C1099 C 0.4709 0.99226 0.23552 0.0
C1100 C 0.48443 0.99536 0.22222 0.0
C1101 C 0.50003 0.99364 0.22753 0.0
C1102 C 0.51855 0.98774 0.25258 0.0
C1103 C 0.53504 0.00434 0.26092 0.0
C1104 C 0.54917 0.00258 0.27013 0.0
C1105 C 0.54704 0.98417 0.27106 0.0
C1106 C 0.53086 0.96768 0.26188 0.0
C1107 C 0.51668 0.96945 0.25282 0.0
C1108 C 0.4914 0.98252 0.27951 0.0
C1109 C 0.50087 0.99805 0.29381 0.0
C1110 C 0.50387 0.9946 0.31251 0.0
C1111 C 0.49743 0.97554 0.31719 0.0
C1112 C 0.48783 0.96 0.30276 0.0
C1113 C 0.48481 0.96348 0.28407 0.0
C1114 C 0.45843 0.98359 0.26776 0.0
C1115 C 0.45896 0.99883 0.27907 0.0
C1116 C 0.44491 0.99492 0.29158 0.0
C1117 C 0.43013 0.97567 0.29304 0.0
C1118 C 0.42984 0.96042 0.28179 0.0
C1119 C 0.44388 0.96437 0.26924 0.0
C1120 C 0.45408 0.99313 0.22965 0.0
C1121 C 0.4537 0.01007 0.2343 0.0
C1122 C 0.43817 0.01118 0.22808 0.0
C1123 C 0.42277 0.99533 0.21711 0.0
C1124 C 0.42322 0.97834 0.21261 0.0
C1125 C 0.43876 0.97726 0.21884 0.0
C1126 C 0.48143 0.99948 0.20248 0.0
C1127 C 0.48338 0.01741 0.19929 0.0
C1128 C 0.47718 0.02006 0.18161 0.0
C1129 C 0.46893 0.00481 0.16681 0.0
C1130 C 0.46803 0.98724 0.16975 0.0
C1131 C 0.47423 0.98461 0.18745 0.0
C1132 C 0.51412 0.99667 0.21349 0.0
C1133 C 0.52504 0.0149 0.20641 0.0
C1134 C 0.53761 0.01752 0.19247 0.0
C1135 C 0.53969 0.00203 0.18565 0.0
C1136 C 0.52902 0.9839 0.19302 0.0
C1137 C 0.51619 0.98119 0.20669 0.0
C1138 C 0.50078 0.97195 0.33704 0.0
C1139 C 0.40634 0.99652 0.21028 0.0
H1140 H 0.51121 0.05385 0.71176 0.0
H1141 H 0.60058 0.97634 0.84496 0.0
H1142 H 0.49944 0.04374 0.81478 0.0
H1143 H 0.47478 0.04751 0.7994 0.0
H1144 H 0.43694 0.98509 0.79451 0.0
H1145 H 0.46177 0.98147 0.8098 0.0
H1146 H 0.53249 0.04729 0.79011 0.0
H1147 H 0.52809 0.05563 0.75813 0.0
H1148 H 0.48015 0.99723 0.74475 0.0
H1149 H 0.48489 0.98902 0.77664 0.0
H1150 H 0.56398 0.03973 0.81432 0.0
H1151 H 0.58837 0.04657 0.79243 0.0
H1152 H 0.54686 -0.00048 0.7521 0.0
H1153 H 0.52303 0.99161 0.77509 0.0
H1154 H 0.56024 0.02936 0.85331 0.0
H1155 H 0.58597 0.02438 0.86242 0.0
H1156 H 0.55983 0.97144 0.82418 0.0
H1157 H 0.534 0.97643 0.81544 0.0
H1158 H 0.52963 0.02967 0.87345 0.0
H1159 H 0.5417 0.02679 0.90463 0.0
H1160 H 0.52336 0.96698 0.88701 0.0
H1161 H 0.51139 0.97 0.85564 0.0
H1162 H 0.4994 0.03389 0.85862 0.0
H1163 H 0.47814 0.03007 0.88379 0.0
H1164 H 0.4506 0.96756 0.87348 0.0
H1165 H 0.47206 0.97153 0.84847 0.0
O1166 O 0.51275 0.05023 0.72429 0.0
O1167 O 0.48806 0.0201 0.71824 0.0
O1168 O 0.60334 0.0059 0.86119 0.0
O1169 O 0.59057 0.97867 0.8416 0.0
C1170 C 0.49836 0.00993 0.81879 0.0
C1171 C 0.51152 0.0126 0.80518 0.0
C1172 C 0.52711 0.0108 0.8102 0.0
C1173 C 0.52924 0.00585 0.82874 0.0
C1174 C 0.51614 0.00331 0.84238 0.0
C1175 C 0.5007 0.00535 0.83739 0.0
C1176 C 0.48235 0.01234 0.81337 0.0
C1177 C 0.48565 0.03094 0.81085 0.0
C1178 C 0.47157 0.03306 0.80207 0.0
C1179 C 0.45401 0.01658 0.79558 0.0
C1180 C 0.45042 0.99802 0.79916 0.0
C1181 C 0.46448 0.99594 0.80805 0.0
C1182 C 0.50901 0.01757 0.78567 0.0
C1183 C 0.52112 0.03631 0.7802 0.0
C1184 C 0.51854 0.04104 0.76195 0.0
C1185 C 0.50375 0.0271 0.74888 0.0
C1186 C 0.49166 0.00831 0.75445 0.0
C1187 C 0.49431 0.00359 0.77267 0.0
C1188 C 0.54174 0.01506 0.79641 0.0
C1189 C 0.56024 0.03071 0.80087 0.0
C1190 C 0.57412 0.03482 0.78812 0.0
C1191 C 0.5697 0.02371 0.7703 0.0
C1192 C 0.55098 0.00822 0.76576 0.0
C1193 C 0.53723 0.00379 0.7788 0.0
C1194 C 0.54518 0.00316 0.83385 0.0
C1195 C 0.56004 0.01663 0.84701 0.0
C1196 C 0.57475 0.01379 0.85214 0.0
C1197 C 0.57493 0.99748 0.84405 0.0
C1198 C 0.56011 0.98413 0.8307 0.0
C1199 C 0.54536 0.98696 0.82565 0.0
C1200 C 0.51963 5e-05 0.86232 0.0
C1201 C 0.52772 0.01578 0.8765 0.0
C1202 C 0.53475 0.01418 0.8942 0.0
C1203 C 0.53359 0.99672 0.89807 0.0
C1204 C 0.52434 0.98055 0.88434 0.0
C1205 C 0.51749 0.98224 0.86651 0.0
C1206 C 0.4872 0.00298 0.85179 0.0
C1207 C 0.48869 0.0194 0.86175 0.0
C1208 C 0.47664 0.01719 0.87613 0.0
C1209 C 0.46277 0.99852 0.88055 0.0
C1210 C 0.46107 0.9821 0.87023 0.0
C1211 C 0.4733 0.98433 0.85603 0.0
C1212 C 0.50099 0.03219 0.72955 0.0
C1213 C 0.5905 0.99434 0.84951 0.0
H1214 H 0.96747 0.46638 0.71777 0.0
H1215 H 0.0186 0.62359 0.88661 0.0
H1216 H 0.97608 0.46038 0.81765 0.0
H1217 H 0.97632 0.43114 0.80626 0.0
H1218 H 0.03547 0.45991 0.82445 0.0
H1219 H 0.03547 0.48957 0.83513 0.0
H1220 H 0.96739 0.48742 0.79919 0.0
H1221 H 0.96182 0.47677 0.76488 0.0
H1222 H 0.02092 0.49646 0.76229 0.0
H1223 H 0.02633 0.50726 0.79657 0.0
H1224 H 0.96455 0.51589 0.82518 0.0
H1225 H 0.95392 0.53282 0.80535 0.0
H1226 H 0.00893 0.56374 0.783 0.0
H1227 H 0.01914 0.54619 0.80247 0.0
H1228 H 0.97605 0.52727 0.86797 0.0
H1229 H 0.97617 0.55554 0.88307 0.0
H1230 H 0.02908 0.59367 0.85918 0.0
H1231 H 0.02885 0.56523 0.84433 0.0
H1232 H 0.98562 0.50322 0.88963 0.0
H1233 H 0.98866 0.52134 0.92032 0.0
H1234 H 0.04394 0.56725 0.90762 0.0
H1235 H 0.04071 0.54911 0.87697 0.0
H1236 H 0.98447 0.46435 0.86248 0.0
H1237 H 0.9902 0.44451 0.88337 0.0
H1238 H 0.04725 0.49245 0.89756 0.0
H1239 H 0.04153 0.51222 0.87617 0.0
O1240 O 0.97001 0.47081 0.73128 0.0
O1241 O 0.0005 0.48112 0.73073 0.0
O1242 O 0.99063 0.59196 0.89211 0.0
O1243 O 0.01789 0.6122 0.88028 0.0
C1244 C 0.00547 0.49468 0.83412 0.0
C1245 C 0.00064 0.50452 0.8212 0.0
C1246 C 0.99914 0.52042 0.82819 0.0
C1247 C 0.00341 0.5271 0.84781 0.0
C1248 C 0.00865 0.51756 0.86063 0.0
C1249 C 0.00921 0.50104 0.85395 0.0
C1250 C 0.0058 0.47716 0.82701 0.0
C1251 C 0.98916 0.4605 0.81894 0.0
C1252 C 0.98925 0.44383 0.81261 0.0
C1253 C 0.00589 0.44349 0.81464 0.0
C1254 C 0.02251 0.45999 0.8229 0.0
C1255 C 0.0225 0.47683 0.82892 0.0
C1256 C 0.99728 0.49824 0.80032 0.0
C1257 C 0.97914 0.48958 0.79114 0.0
C1258 C 0.97599 0.48343 0.77156 0.0
C1259 C 0.99093 0.48577 0.76083 0.0
C1260 C 0.0091 0.49445 0.77012 0.0
C1261 C 0.01223 0.50063 0.78969 0.0
C1262 C 0.99258 0.52986 0.8152 0.0
C1263 C 0.97419 0.52618 0.81582 0.0
C1264 C 0.96821 0.53595 0.80458 0.0
C1265 C 0.9806 0.54972 0.79265 0.0
C1266 C 0.99894 0.55304 0.79182 0.0
C1267 C 0.00486 0.54314 0.80298 0.0
C1268 C 0.00246 0.54424 0.85512 0.0
C1269 C 0.98755 0.54175 0.86589 0.0
C1270 C 0.98769 0.55792 0.87452 0.0
C1271 C 0.00271 0.57688 0.87243 0.0
C1272 C 0.01734 0.57928 0.86114 0.0
C1273 C 0.0172 0.56309 0.85255 0.0
C1274 C 0.01292 0.52495 0.88114 0.0
C1275 C 0.99869 0.51679 0.89389 0.0
C1276 C 0.00041 0.5272 0.91132 0.0
C1277 C 0.01638 0.54585 0.9161 0.0
C1278 C 0.03135 0.55305 0.90409 0.0
C1279 C 0.02964 0.54264 0.88674 0.0
C1280 C 0.0126 0.4897 0.86773 0.0
C1281 C 0.99823 0.47058 0.87004 0.0
C1282 C 0.00156 0.45923 0.88187 0.0
C1283 C 0.01925 0.46688 0.89187 0.0
C1284 C 0.03351 0.48622 0.88997 0.0
C1285 C 0.03024 0.49751 0.87787 0.0
C1286 C 0.98751 0.47913 0.74005 0.0
C1287 C 0.00328 0.59407 0.88219 0.0
H1288 H 0.47326 0.51137 0.70666 0.0
H1289 H 0.63129 0.63087 0.85914 0.0
H1290 H 0.46127 0.51447 0.80869 0.0
H1291 H 0.4321 0.48374 0.79771 0.0
H1292 H 0.45624 0.45179 0.8196 0.0
H1293 H 0.48518 0.48241 0.83042 0.0
H1294 H 0.49711 0.54793 0.78537 0.0
H1295 H 0.48678 0.53736 0.75137 0.0
H1296 H 0.48917 0.48569 0.75782 0.0
H1297 H 0.49972 0.49655 0.79171 0.0
H1298 H 0.53878 0.58359 0.80818 0.0
H1299 H 0.56465 0.60105 0.78744 0.0
H1300 H 0.5635 0.54789 0.77151 0.0
H1301 H 0.5384 0.53069 0.79301 0.0
H1302 H 0.53747 0.58697 0.85416 0.0
H1303 H 0.56855 0.61566 0.86384 0.0
H1304 H 0.59487 0.58498 0.8415 0.0
H1305 H 0.56371 0.55629 0.83218 0.0
H1306 H 0.50451 0.55552 0.87926 0.0
H1307 H 0.51848 0.56785 0.91235 0.0
H1308 H 0.56074 0.55339 0.90116 0.0
H1309 H 0.54634 0.54039 0.86847 0.0
H1310 H 0.46751 0.52336 0.85662 0.0
H1311 H 0.44571 0.502 0.87925 0.0
H1312 H 0.48185 0.47929 0.88955 0.0
H1313 H 0.50369 0.50085 0.86724 0.0
O1314 O 0.47737 0.51529 0.72012 0.0
O1315 O 0.47867 0.48888 0.72424 0.0
O1316 O 0.6046 0.63471 0.86714 0.0
O1317 O 0.61883 0.61971 0.85554 0.0
C1318 C 0.49342 0.51902 0.82595 0.0
C1319 C 0.50532 0.52947 0.81164 0.0
C1320 C 0.52338 0.54599 0.81698 0.0
C1321 C 0.52938 0.55219 0.83663 0.0
C1322 C 0.51748 0.54163 0.8509 0.0
C1323 C 0.49945 0.52519 0.84555 0.0
C1324 C 0.47526 0.50063 0.82042 0.0
C1325 C 0.46012 0.5008 0.81125 0.0
C1326 C 0.44353 0.48328 0.80499 0.0
C1327 C 0.44186 0.46536 0.80788 0.0
C1328 C 0.45695 0.46533 0.81748 0.0
C1329 C 0.47351 0.4828 0.82362 0.0
C1330 C 0.49902 0.52294 0.79102 0.0
C1331 C 0.49541 0.53435 0.77939 0.0
C1332 C 0.48949 0.52826 0.75999 0.0
C1333 C 0.4871 0.51065 0.75188 0.0
C1334 C 0.49082 0.49929 0.76361 0.0
C1335 C 0.49677 0.50542 0.78299 0.0
C1336 C 0.53672 0.55587 0.80214 0.0
C1337 C 0.54398 0.57567 0.80007 0.0
C1338 C 0.55869 0.5856 0.78829 0.0
C1339 C 0.56593 0.57571 0.77802 0.0
C1340 C 0.55799 0.5557 0.77926 0.0
C1341 C 0.54362 0.54589 0.7914 0.0
C1342 C 0.54834 0.5696 0.84237 0.0
C1343 C 0.54997 0.58647 0.85141 0.0
C1344 C 0.56773 0.60284 0.8569 0.0
C1345 C 0.5842 0.60263 0.8534 0.0
C1346 C 0.58249 0.58566 0.84437 0.0
C1347 C 0.56471 0.56927 0.83897 0.0
C1348 C 0.52453 0.54724 0.87143 0.0
C1349 C 0.51653 0.55465 0.8841 0.0
C1350 C 0.52451 0.5617 0.90289 0.0
C1351 C 0.54073 0.56169 0.90908 0.0
C1352 C 0.54833 0.55369 0.89658 0.0
C1353 C 0.54014 0.5463 0.87798 0.0
C1354 C 0.48716 0.51364 0.86039 0.0
C1355 C 0.47081 0.51396 0.86399 0.0
C1356 C 0.45842 0.50181 0.87685 0.0
C1357 C 0.46212 0.48898 0.88595 0.0
C1358 C 0.47867 0.48897 0.88255 0.0
C1359 C 0.49117 0.50131 0.86997 0.0
C1360 C 0.4808 0.50422 0.73127 0.0
C1361 C 0.60311 0.62001 0.85914 0.0
H1362 H 0.64942 0.84832 0.68252 0.0
H1363 H 0.66102 0.71179 0.53336 0.0
H1364 H 0.61911 0.83413 0.58499 0.0
H1365 H 0.62309 0.86559 0.59501 0.0
H1366 H 0.66941 0.89327 0.55856 0.0
H1367 H 0.66676 0.86216 0.5507 0.0
H1368 H 0.62365 0.80307 0.60765 0.0
H1369 H 0.62972 0.81745 0.64085 0.0
H1370 H 0.68178 0.86717 0.62609 0.0
H1371 H 0.67564 0.85252 0.59298 0.0
H1372 H 0.62526 0.76709 0.59037 0.0
H1373 H 0.63791 0.75147 0.60965 0.0
H1374 H 0.69401 0.80173 0.60852 0.0
H1375 H 0.68128 0.81712 0.58911 0.0
H1376 H 0.61214 0.75565 0.54608 0.0
H1377 H 0.61271 0.72594 0.53836 0.0
H1378 H 0.67367 0.75956 0.54499 0.0
H1379 H 0.67287 0.78918 0.55244 0.0
H1380 H 0.60738 0.77595 0.51624 0.0
H1381 H 0.60646 0.75916 0.48526 0.0
H1382 H 0.66731 0.7928 0.48762 0.0
H1383 H 0.66812 0.80909 0.51859 0.0
H1384 H 0.60898 0.82362 0.53505 0.0
H1385 H 0.6072 0.84388 0.51129 0.0
H1386 H 0.66177 0.85771 0.49351 0.0
H1387 H 0.66348 0.83778 0.51723 0.0
O1388 O 0.64737 0.84286 0.66936 0.0
O1389 O 0.67399 0.86811 0.66104 0.0
O1390 O 0.62905 0.70673 0.53278 0.0
O1391 O 0.66039 0.7233 0.53632 0.0
C1392 C 0.64162 0.82698 0.56275 0.0
C1393 C 0.64521 0.81803 0.57774 0.0
C1394 C 0.64562 0.80093 0.57349 0.0
C1395 C 0.64196 0.79247 0.55441 0.0
C1396 C 0.63878 0.80155 0.53943 0.0
C1397 C 0.63852 0.81876 0.54351 0.0
C1398 C 0.64262 0.84579 0.56709 0.0
C1399 C 0.63014 0.84704 0.57924 0.0
C1400 C 0.63229 0.86508 0.58472 0.0
C1401 C 0.64666 0.88219 0.57769 0.0
C1402 C 0.65849 0.88062 0.56471 0.0
C1403 C 0.65677 0.86272 0.55985 0.0
C1404 C 0.64914 0.82681 0.5979 0.0
C1405 C 0.63638 0.81704 0.61164 0.0
C1406 C 0.63987 0.8253 0.63058 0.0
C1407 C 0.65621 0.84349 0.63611 0.0
C1408 C 0.66904 0.85317 0.6223 0.0
C1409 C 0.66555 0.84486 0.60338 0.0
C1410 C 0.65237 0.79321 0.58838 0.0
C1411 C 0.6402 0.7749 0.59474 0.0
C1412 C 0.64744 0.76604 0.60573 0.0
C1413 C 0.66697 0.77535 0.61041 0.0
C1414 C 0.67895 0.79416 0.60492 0.0
C1415 C 0.67168 0.80303 0.59403 0.0
C1416 C 0.64245 0.77449 0.54988 0.0
C1417 C 0.62559 0.75654 0.54583 0.0
C1418 C 0.62596 0.73961 0.54144 0.0
C1419 C 0.64325 0.74037 0.54108 0.0
C1420 C 0.66012 0.75845 0.54516 0.0
C1421 C 0.65972 0.77538 0.54946 0.0
C1422 C 0.6378 0.7939 0.51941 0.0
C1423 C 0.62044 0.77997 0.50978 0.0
C1424 C 0.61995 0.77034 0.49226 0.0
C1425 C 0.63682 0.77479 0.48411 0.0
C1426 C 0.65412 0.78932 0.49347 0.0
C1427 C 0.6546 0.79866 0.51108 0.0
C1428 C 0.6362 0.8289 0.52762 0.0
C1429 C 0.62035 0.83074 0.52573 0.0
C1430 C 0.61941 0.8424 0.51227 0.0
C1431 C 0.63429 0.85228 0.50043 0.0
C1432 C 0.64988 0.84994 0.50208 0.0
C1433 C 0.65085 0.83845 0.51557 0.0
C1434 C 0.6598 0.85228 0.65622 0.0
C1435 C 0.64372 0.72242 0.53647 0.0
H1436 H 0.17263 0.83906 0.69644 0.0
H1437 H 0.05758 0.68506 0.53321 0.0
H1438 H 0.18467 0.84906 0.59423 0.0
H1439 H 0.2147 0.87917 0.60407 0.0
H1440 H 0.24445 0.8492 0.59323 0.0
H1441 H 0.21426 0.81904 0.58284 0.0
H1442 H 0.14962 0.82018 0.61436 0.0
H1443 H 0.15558 0.83001 0.64885 0.0
H1444 H 0.19526 0.81066 0.65214 0.0
H1445 H 0.18902 0.80072 0.61765 0.0
H1446 H 0.11469 0.7874 0.58253 0.0
H1447 H 0.08764 0.77045 0.60123 0.0
H1448 H 0.11843 0.75197 0.63615 0.0
H1449 H 0.14467 0.7672 0.61568 0.0
H1450 H 0.11596 0.78151 0.54298 0.0
H1451 H 0.08618 0.75288 0.52979 0.0
H1452 H 0.10153 0.7158 0.55692 0.0
H1453 H 0.13143 0.74454 0.56977 0.0
H1454 H 0.15264 0.816 0.52916 0.0
H1455 H 0.13927 0.80725 0.49592 0.0
H1456 H 0.13819 0.75309 0.49604 0.0
H1457 H 0.15227 0.76235 0.52909 0.0
H1458 H 0.1861 0.84689 0.55472 0.0
H1459 H 0.20953 0.86874 0.53395 0.0
H1460 H 0.21911 0.82302 0.51408 0.0
H1461 H 0.19602 0.80128 0.53564 0.0
O1462 O 0.17046 0.83504 0.68283 0.0
O1463 O 0.19079 0.82496 0.68373 0.0
O1464 O 0.06214 0.71633 0.52439 0.0
O1465 O 0.06928 0.69663 0.5382 0.0
C1466 C 0.17932 0.81443 0.58017 0.0
C1467 C 0.16519 0.80369 0.59261 0.0
C1468 C 0.14746 0.7879 0.58498 0.0
C1469 C 0.14423 0.78243 0.565 0.0
C1470 C 0.15817 0.79364 0.55252 0.0
C1471 C 0.17566 0.80973 0.5601 0.0
C1472 C 0.19735 0.83192 0.58792 0.0
C1473 C 0.19764 0.84894 0.59415 0.0
C1474 C 0.21473 0.86609 0.59956 0.0
C1475 C 0.23172 0.86637 0.59915 0.0
C1476 C 0.23143 0.84921 0.59352 0.0
C1477 C 0.2143 0.83208 0.58771 0.0
C1478 C 0.16879 0.80962 0.61356 0.0
C1479 C 0.15951 0.81799 0.62258 0.0
C1480 C 0.16299 0.82363 0.64228 0.0
C1481 C 0.17588 0.8211 0.65327 0.0
C1482 C 0.18523 0.8128 0.64411 0.0
C1483 C 0.18171 0.80712 0.62442 0.0
C1484 C 0.13156 0.77829 0.5975 0.0
C1485 C 0.11546 0.77939 0.59401 0.0
C1486 C 0.10009 0.76996 0.60504 0.0
C1487 C 0.1007 0.75982 0.62042 0.0
C1488 C 0.11716 0.75924 0.62424 0.0
C1489 C 0.13234 0.76817 0.61271 0.0
C1490 C 0.12596 0.76509 0.55714 0.0
C1491 C 0.11295 0.76718 0.54591 0.0
C1492 C 0.0959 0.75081 0.53847 0.0
C1493 C 0.09149 0.73203 0.54226 0.0
C1494 C 0.1045 0.73003 0.55368 0.0
C1495 C 0.12158 0.74642 0.56106 0.0
C1496 C 0.15341 0.7898 0.5315 0.0
C1497 C 0.15007 0.80254 0.5218 0.0
C1498 C 0.14221 0.7974 0.50291 0.0
C1499 C 0.13743 0.77937 0.49347 0.0
C1500 C 0.14183 0.76714 0.50288 0.0
C1501 C 0.14983 0.77236 0.52175 0.0
C1502 C 0.18964 0.82263 0.54699 0.0
C1503 C 0.19351 0.84168 0.5462 0.0
C1504 C 0.20687 0.85412 0.53433 0.0
C1505 C 0.21628 0.84761 0.52266 0.0
C1506 C 0.2121 0.82837 0.52307 0.0
C1507 C 0.19894 0.81599 0.53529 0.0
C1508 C 0.17955 0.82712 0.67418 0.0
C1509 C 0.07341 0.71458 0.53438 0.0
H1510 H 0.19571 0.35414 0.7057 0.0
H1511 H 0.05998 0.33681 0.53809 0.0
H1512 H 0.2159 0.3735 0.60694 0.0
H1513 H 0.23957 0.36805 0.62196 0.0
H1514 H 0.20965 0.30904 0.59507 0.0
H1515 H 0.18632 0.3148 0.57988 0.0
H1516 H 0.18191 0.37299 0.62996 0.0
H1517 H 0.18881 0.37052 0.66353 0.0
H1518 H 0.17458 0.31131 0.64893 0.0
H1519 H 0.16749 0.31391 0.61545 0.0
H1520 H 0.14662 0.37087 0.6143 0.0
H1521 H 0.11997 0.36172 0.63427 0.0
H1522 H 0.10266 0.30119 0.62332 0.0
H1523 H 0.12912 0.31046 0.6033 0.0
H1524 H 0.14871 0.38093 0.57623 0.0
H1525 H 0.12136 0.38273 0.56555 0.0
H1526 H 0.09011 0.32067 0.54938 0.0
H1527 H 0.1176 0.31914 0.56013 0.0
H1528 H 0.16973 0.38171 0.54394 0.0
H1529 H 0.15746 0.38191 0.5116 0.0
H1530 H 0.13597 0.32037 0.50096 0.0
H1531 H 0.14779 0.3202 0.5333 0.0
H1532 H 0.21233 0.38005 0.55723 0.0
H1533 H 0.23188 0.38119 0.53115 0.0
H1534 H 0.19519 0.31912 0.51767 0.0
H1535 H 0.17592 0.3181 0.54386 0.0
O1536 O 0.19268 0.35472 0.69239 0.0
O1537 O 0.18528 0.32436 0.68414 0.0
O1538 O 0.08766 0.36837 0.55102 0.0
O1539 O 0.07095 0.3365 0.54254 0.0
C1540 C 0.1834 0.34663 0.5862 0.0
C1541 C 0.17082 0.34561 0.59988 0.0
C1542 C 0.15479 0.3463 0.59413 0.0
C1543 C 0.15183 0.34905 0.57496 0.0
C1544 C 0.16432 0.35003 0.56126 0.0
C1545 C 0.17999 0.34857 0.56683 0.0
C1546 C 0.19949 0.34459 0.59225 0.0
C1547 C 0.21477 0.35958 0.60393 0.0
C1548 C 0.22813 0.35635 0.61265 0.0
C1549 C 0.22638 0.33802 0.6099 0.0
C1550 C 0.21154 0.32337 0.59736 0.0
C1551 C 0.19822 0.32664 0.58861 0.0
C1552 C 0.17432 0.34368 0.6203 0.0
C1553 C 0.1802 0.35947 0.63408 0.0
C1554 C 0.18418 0.35803 0.65323 0.0
C1555 C 0.18233 0.34074 0.65891 0.0
C1556 C 0.17621 0.32485 0.64504 0.0
C1557 C 0.17218 0.3263 0.62591 0.0
C1558 C 0.13972 0.3413 0.60739 0.0
C1559 C 0.13712 0.35568 0.61638 0.0
C1560 C 0.12198 0.35043 0.62779 0.0
C1561 C 0.10919 0.33072 0.63025 0.0
C1562 C 0.11213 0.31645 0.62149 0.0
C1563 C 0.12728 0.32171 0.61018 0.0
C1564 C 0.13504 0.34991 0.56896 0.0
C1565 C 0.1359 0.36775 0.57045 0.0
C1566 C 0.12028 0.36873 0.56431 0.0
C1567 C 0.10354 0.35183 0.55659 0.0
C1568 C 0.10277 0.33395 0.55524 0.0
C1569 C 0.11841 0.33301 0.56138 0.0
C1570 C 0.15987 0.351 0.54083 0.0
C1571 C 0.16272 0.3684 0.53443 0.0
C1572 C 0.15565 0.36847 0.51606 0.0
C1573 C 0.14585 0.35117 0.50378 0.0
C1574 C 0.14375 0.33397 0.50999 0.0
C1575 C 0.15054 0.33385 0.52842 0.0
C1576 C 0.1927 0.34902 0.55228 0.0
C1577 C 0.20871 0.3667 0.54877 0.0
C1578 C 0.21983 0.36731 0.53394 0.0
C1579 C 0.21493 0.35026 0.52233 0.0
C1580 C 0.19913 0.3325 0.52626 0.0
C1581 C 0.18818 0.33189 0.5412 0.0
C1582 C 0.18682 0.33937 0.67921 0.0
C1583 C 0.08696 0.35281 0.54991 0.0
C1584 C 0.97171 0.38281 0.05518 0.0
C1585 C 0.98538 0.37756 0.05492 0.0
C1586 C 0.97228 0.39568 0.06997 0.0
C1587 C 0.98669 0.40323 0.08502 0.0
C1588 C 0.00032 0.39771 0.08507 0.0
C1589 C 0.99959 0.38506 0.06992 0.0
C1590 C 0.95765 0.40143 0.06934 0.0
C1591 C 0.01571 0.40524 0.10108 0.0
C1592 C 0.99966 0.45013 0.11454 0.0
C1593 C 0.98986 0.44304 0.13089 0.0
C1594 C 0.99851 0.43731 0.09933 0.0
C1595 C 0.98754 0.41697 0.10071 0.0
C1596 C 0.97755 0.40976 0.11717 0.0
C1597 C 0.97876 0.4229 0.13204 0.0
C1598 C 0.00916 0.4455 0.08187 0.0
C1599 C 0.96594 0.38819 0.11927 0.0
H1600 H 0.96078 0.37722 0.04354 0.0
H1601 H 0.01013 0.38098 0.06985 0.0
H1602 H 0.9498 0.39754 0.08246 0.0
H1603 H 0.96467 0.41744 0.06907 0.0
H1604 H 0.94739 0.39427 0.0566 0.0
H1605 H 0.02487 0.39909 0.09926 0.0
H1606 H 0.02462 0.42134 0.10169 0.0
H1607 H 0.00941 0.40159 0.11508 0.0
H1608 H 0.00825 0.46572 0.11371 0.0
H1609 H 0.97147 0.41745 0.14487 0.0
H1610 H 0.99934 0.43937 0.06876 0.0
H1611 H 0.01979 0.44122 0.08021 0.0
H1612 H 0.01649 0.46163 0.08276 0.0
H1613 H 0.95501 0.38068 0.10713 0.0
H1614 H 0.95887 0.38499 0.13291 0.0
H1615 H 0.97509 0.38195 0.11881 0.0
C1616 C 0.60619 0.58061 0.10236 0.0
C1617 C 0.60985 0.59919 0.1086 0.0
C1618 C 0.59696 0.56506 0.11382 0.0
C1619 C 0.59165 0.56834 0.13203 0.0
C1620 C 0.59643 0.58736 0.13885 0.0
C1621 C 0.60529 0.60251 0.12697 0.0
C1622 C 0.59192 0.54494 0.10599 0.0
C1623 C 0.59138 0.59157 0.15835 0.0
C1624 C 0.54814 0.52967 0.15341 0.0
C1625 C 0.55599 0.52416 0.16782 0.0
C1626 C 0.55957 0.54324 0.14093 0.0
C1627 C 0.57938 0.55176 0.14319 0.0
C1628 C 0.58732 0.54565 0.15726 0.0
C1629 C 0.57546 0.53176 0.16937 0.0
C1630 C 0.55051 0.54911 0.1259 0.0
C1631 C 0.60837 0.55456 0.16024 0.0
H1632 H 0.60967 0.578 0.08814 0.0
H1633 H 0.60834 0.61693 0.13193 0.0
H1634 H 0.59588 0.53796 0.1168 0.0
H1635 H 0.57643 0.53571 0.10272 0.0
H1636 H 0.59893 0.5452 0.09268 0.0
H1637 H 0.59786 0.60742 0.16232 0.0
H1638 H 0.57584 0.58449 0.1584 0.0
H1639 H 0.59601 0.58544 0.16952 0.0
H1640 H 0.53303 0.52362 0.15218 0.0
H1641 H 0.58148 0.52751 0.18063 0.0
H1642 H 0.55568 0.54834 0.11166 0.0
H1643 H 0.55444 0.56441 0.12954 0.0
H1644 H 0.53488 0.53974 0.12479 0.0
H1645 H 0.61447 0.55466 0.14636 0.0
H1646 H 0.61212 0.54666 0.17017 0.0
H1647 H 0.61503 0.56992 0.16633 0.0
C1648 C 0.41559 0.00958 0.07024 0.0
C1649 C 0.39839 0.99171 0.06815 0.0
C1650 C 0.42867 0.0143 0.08596 0.0
C1651 C 0.42431 0.00092 0.09997 0.0
C1652 C 0.40671 0.98316 0.0982 0.0
C1653 C 0.39404 0.97876 0.08232 0.0
C1654 C 0.4473 0.03337 0.08738 0.0
C1655 C 0.40136 0.96859 0.11294 0.0
C1656 C 0.46113 0.99867 0.13116 0.0
C1657 C 0.45973 0.00646 0.14907 0.0
C1658 C 0.4505 0.99785 0.11476 0.0
C1659 C 0.43815 0.00498 0.11629 0.0
C1660 C 0.43747 0.01384 0.13409 0.0
C1661 C 0.44823 0.01444 0.15027 0.0
C1662 C 0.4517 0.98836 0.09602 0.0
C1663 C 0.42449 0.0216 0.13636 0.0
H1664 H 0.41905 0.01965 0.05934 0.0
H1665 H 0.38068 0.96502 0.08098 0.0
H1666 H 0.44957 0.04158 0.10152 0.0
H1667 H 0.45897 0.03053 0.08634 0.0
H1668 H 0.44816 0.04262 0.07589 0.0
H1669 H 0.38687 0.95576 0.10979 0.0
H1670 H 0.4114 0.96343 0.11343 0.0
H1671 H 0.40226 0.97557 0.12742 0.0
H1672 H 0.4702 0.99275 0.13008 0.0
H1673 H 0.44687 0.02028 0.16408 0.0
H1674 H 0.45373 0.99769 0.08423 0.0
H1675 H 0.43827 0.97431 0.09233 0.0
H1676 H 0.4634 0.9855 0.09669 0.0
H1677 H 0.4258 0.03077 0.12464 0.0
H1678 H 0.42746 0.03034 0.15034 0.0
H1679 H 0.40966 0.00926 0.13542 0.0
C1680 C 0.39958 0.97025 0.96999 0.0
C1681 C 0.39292 0.98278 0.97413 0.0
C1682 C 0.41078 0.97279 0.95457 0.0
C1683 C 0.41507 0.98798 0.94275 0.0
C1684 C 0.40806 0.00043 0.94662 0.0
C1685 C 0.39724 0.99782 0.96239 0.0
C1686 C 0.41829 0.95945 0.95112 0.0
C1687 C 0.41205 0.01654 0.93412 0.0
C1688 C 0.45837 0.0064 0.91432 0.0
C1689 C 0.45046 0.99617 0.89628 0.0
C1690 C 0.447 0.00388 0.92957 0.0
C1691 C 0.42723 0.99105 0.9266 0.0
C1692 C 0.41914 0.98091 0.9083 0.0
C1693 C 0.43089 0.98347 0.89339 0.0
C1694 C 0.45618 0.01471 0.94894 0.0
C1695 C 0.3981 0.96735 0.90451 0.0
H1696 H 0.39642 0.9587 0.9791 0.0
H1697 H 0.392 0.00746 0.96544 0.0
H1698 H 0.41348 0.95182 0.93648 0.0
H1699 H 0.43393 0.96811 0.95203 0.0
H1700 H 0.41369 0.94837 0.96165 0.0
H1701 H 0.40493 0.02446 0.93861 0.0
H1702 H 0.42745 0.02713 0.93468 0.0
H1703 H 0.40728 0.01047 0.91896 0.0
H1704 H 0.47353 0.01606 0.91661 0.0
H1705 H 0.42477 0.97568 0.87938 0.0
H1706 H 0.45292 0.00418 0.95982 0.0
H1707 H 0.45043 0.02391 0.95354 0.0
H1708 H 0.47174 0.02415 0.94886 0.0
H1709 H 0.39302 0.95523 0.91383 0.0
H1710 H 0.394 0.96109 0.88932 0.0
H1711 H 0.39076 0.97523 0.9081 0.0
C1712 C 0.99275 0.39139 0.96413 0.0
C1713 C 0.00489 0.38529 0.97042 0.0
C1714 C 0.99842 0.40595 0.9516 0.0
C1715 C 0.01666 0.41456 0.94487 0.0
C1716 C 0.02918 0.40873 0.95133 0.0
C1717 C 0.02318 0.39423 0.96422 0.0
C1718 C 0.98469 0.41191 0.94538 0.0
C1719 C 0.04866 0.41748 0.94429 0.0
C1720 C 0.01646 0.43539 0.8982 0.0
C1721 C 0.02235 0.45464 0.90463 0.0
C1722 C 0.01629 0.42255 0.91091 0.0
C1723 C 0.02196 0.4291 0.93056 0.0
C1724 C 0.02937 0.44896 0.9368 0.0
C1725 C 0.02952 0.46154 0.92371 0.0
C1726 C 0.00853 0.40159 0.90357 0.0
C1727 C 0.03554 0.45654 0.95761 0.0
H1728 H 0.9787 0.38482 0.96912 0.0
H1729 H 0.03261 0.38957 0.96906 0.0
H1730 H 0.99115 0.42784 0.94859 0.0
H1731 H 0.98125 0.40857 0.92965 0.0
H1732 H 0.97133 0.40435 0.9526 0.0
H1733 H 0.05715 0.41245 0.95172 0.0
H1734 H 0.04754 0.41342 0.92866 0.0
H1735 H 0.05627 0.4336 0.94643 0.0
H1736 H 0.01125 0.43014 0.88333 0.0
H1737 H 0.0341 0.47643 0.92871 0.0
H1738 H 0.99411 0.39242 0.90831 0.0
H1739 H 0.01734 0.39623 0.90955 0.0
H1740 H 0.00774 0.3996 0.88766 0.0
H1741 H 0.0229 0.45146 0.9659 0.0
H1742 H 0.04399 0.4727 0.95953 0.0
H1743 H 0.04399 0.45085 0.9638 0.0
C1744 C 0.60021 0.59927 0.01026 0.0
C1745 C 0.59988 0.61507 0.01937 0.0
C1746 C 0.59002 0.59015 0.99256 0.0
C1747 C 0.57957 0.59725 0.9836 0.0
C1748 C 0.57925 0.61325 0.99267 0.0
C1749 C 0.58927 0.62185 0.01055 0.0
C1750 C 0.59043 0.5729 0.98346 0.0
C1751 C 0.56858 0.62148 0.98335 0.0
C1752 C 0.56936 0.58594 0.92969 0.0
C1753 C 0.5504 0.57089 0.92818 0.0
C1754 C 0.57893 0.59487 0.94765 0.0
C1755 C 0.56938 0.58826 0.96448 0.0
C1756 C 0.5502 0.573 0.96301 0.0
C1757 C 0.54084 0.56463 0.9448 0.0
C1758 C 0.59925 0.61137 0.94861 0.0
C1759 C 0.53967 0.56535 0.98066 0.0
H1760 H 0.60825 0.59385 0.01708 0.0
H1761 H 0.58905 0.63413 0.01746 0.0
H1762 H 0.57584 0.56022 0.98055 0.0
H1763 H 0.59679 0.57634 0.96948 0.0
H1764 H 0.5986 0.56868 0.99267 0.0
H1765 H 0.56976 0.63398 0.99231 0.0
H1766 H 0.57406 0.62638 0.96924 0.0
H1767 H 0.55345 0.61005 0.98065 0.0
H1768 H 0.57663 0.59086 0.91674 0.0
H1769 H 0.52619 0.55291 0.94354 0.0
H1770 H 0.60837 0.60733 0.95639 0.0
H1771 H 0.60087 0.62448 0.95672 0.0
H1772 H 0.60439 0.6152 0.93414 0.0
H1773 H 0.54693 0.55997 0.98966 0.0
H1774 H 0.52486 0.55331 0.97703 0.0
H1775 H 0.53961 0.57723 0.98945 0.0
C1776 C 0.00058 0.61005 0.99637 0.0
C1777 C 0.01707 0.62176 0.00844 0.0
C1778 C 0.99994 0.59736 0.98129 0.0
C1779 C 0.01616 0.59635 0.97824 0.0
C1780 C 0.03285 0.60814 0.99028 0.0
C1781 C 0.03312 0.62071 0.00521 0.0
C1782 C 0.98191 0.58503 0.96863 0.0
C1783 C 0.05045 0.60747 0.98741 0.0
C1784 C 0.01099 0.55179 0.95019 0.0
C1785 C 0.01651 0.55867 0.93224 0.0
C1786 C 0.01065 0.56386 0.96531 0.0
C1787 C 0.01584 0.58317 0.96226 0.0
C1788 C 0.02118 0.59007 0.94406 0.0
C1789 C 0.02146 0.57773 0.92927 0.0
C1790 C 0.00487 0.55603 0.98455 0.0
C1791 C 0.02663 0.61049 0.9402 0.0
H1792 H 0.9881 0.61073 0.9987 0.0
H1793 H 0.04594 0.62963 0.01444 0.0
H1794 H 0.98455 0.58824 0.95349 0.0
H1795 H 0.97688 0.56939 0.96925 0.0
H1796 H 0.97054 0.58756 0.97291 0.0
H1797 H 0.06224 0.61747 0.99815 0.0
H1798 H 0.0474 0.59245 0.98844 0.0
H1799 H 0.05511 0.61148 0.97286 0.0
H1800 H 0.00711 0.53703 0.95245 0.0
H1801 H 0.02528 0.58292 0.91524 0.0
H1802 H 0.99274 0.5572 0.98881 0.0
H1803 H 0.01664 0.56486 0.99567 0.0
H1804 H 0.00088 0.54058 0.98444 0.0
H1805 H 0.01494 0.61289 0.94326 0.0
H1806 H 0.03007 0.61345 0.92512 0.0
H1807 H 0.03906 0.62122 0.94987 0.0
C1808 C 0.38752 0.41019 0.95224 0.0
C1809 C 0.39848 0.40646 0.96479 0.0
C1810 C 0.3961 0.42454 0.93936 0.0
C1811 C 0.41604 0.43562 0.93953 0.0
C1812 C 0.42709 0.43264 0.95308 0.0
C1813 C 0.41816 0.41789 0.96534 0.0
C1814 C 0.38387 0.42706 0.92489 0.0
C1815 C 0.44838 0.44447 0.95408 0.0
C1816 C 0.44194 0.4553 0.89521 0.0
C1817 C 0.44858 0.47518 0.89861 0.0
C1818 C 0.43032 0.44208 0.90786 0.0
C1819 C 0.42553 0.449 0.9245 0.0
C1820 C 0.43159 0.46899 0.9276 0.0
C1821 C 0.44297 0.48186 0.91448 0.0
C1822 C 0.42386 0.42083 0.90384 0.0
C1823 C 0.42696 0.47694 0.94526 0.0
H1824 H 0.37227 0.40122 0.9518 0.0
H1825 H 0.42659 0.41507 0.97523 0.0
H1826 H 0.38866 0.44267 0.92455 0.0
H1827 H 0.38511 0.42168 0.91036 0.0
H1828 H 0.36878 0.41893 0.92801 0.0
H1829 H 0.45483 0.44178 0.96674 0.0
H1830 H 0.45339 0.44074 0.94094 0.0
H1831 H 0.45352 0.46024 0.95475 0.0
H1832 H 0.4461 0.45014 0.88275 0.0
H1833 H 0.44816 0.49728 0.91706 0.0
H1834 H 0.40847 0.41157 0.90518 0.0
H1835 H 0.43104 0.41677 0.91456 0.0
H1836 H 0.42702 0.41751 0.88929 0.0
H1837 H 0.41171 0.46794 0.94743 0.0
H1838 H 0.43081 0.49226 0.94443 0.0
H1839 H 0.43478 0.47633 0.95807 0.0
C1840 C 0.59472 0.99256 0.98697 0.0
C1841 C 0.59677 0.00635 0.00159 0.0
C1842 C 0.58297 0.98841 0.97023 0.0
C1843 C 0.57276 0.99794 0.96839 0.0
C1844 C 0.57382 0.01082 0.98376 0.0
C1845 C 0.58602 0.01508 5e-05 0.0
C1846 C 0.5825 0.97487 0.95405 0.0
C1847 C 0.56284 0.02093 0.98259 0.0
C1848 C 0.56269 0.01013 0.91977 0.0
C1849 C 0.54354 0.99611 0.91567 0.0
C1850 C 0.57248 0.01036 0.93653 0.0
C1851 C 0.5628 0.99639 0.9497 0.0
C1852 C 0.54352 0.98192 0.94545 0.0
C1853 C 0.53412 0.98184 0.92834 0.0
C1854 C 0.59312 0.02584 0.94032 0.0
C1855 C 0.53268 0.96696 0.95925 0.0
H1856 H 0.60314 0.98592 0.98812 0.0
H1857 H 0.58749 0.02562 0.01145 0.0
H1858 H 0.56777 0.96413 0.9485 0.0
H1859 H 0.58994 0.98341 0.94202 0.0
H1860 H 0.58939 0.9669 0.95853 0.0
H1861 H 0.56334 0.0285 0.99661 0.0
H1862 H 0.56876 0.03184 0.97194 0.0
H1863 H 0.54788 0.0103 0.97768 0.0
H1864 H 0.57003 0.02096 0.90978 0.0
H1865 H 0.51931 0.97099 0.92511 0.0
H1866 H 0.60148 0.01905 0.94346 0.0
H1867 H 0.59508 0.03573 0.9531 0.0
H1868 H 0.59886 0.03468 0.92798 0.0
H1869 H 0.54013 0.95937 0.963 0.0
H1870 H 0.51814 0.95595 0.95328 0.0
H1871 H 0.53182 0.97432 0.97276 0.0
C1872 C 0.59469 0.99835 0.09571 0.0
C1873 C 0.61093 0.01647 0.09384 0.0
C1874 C 0.5835 0.99563 0.11118 0.0
C1875 C 0.58892 0.01128 0.12534 0.0
C1876 C 0.60573 0.02936 0.12396 0.0
C1877 C 0.61642 0.03181 0.1081 0.0
C1878 C 0.56548 0.97624 0.11195 0.0
C1879 C 0.61221 0.04625 0.13901 0.0
C1880 C 0.55098 0.0121 0.15339 0.0
C1881 C 0.55251 0.00462 0.17041 0.0
C1882 C 0.56267 0.0142 0.13857 0.0
C1883 C 0.57647 0.00906 0.141 0.0
C1884 C 0.57823 0.00173 0.15829 0.0
C1885 C 0.56607 0.99939 0.17273 0.0
C1886 C 0.5601 0.02172 0.12021 0.0
C1887 C 0.593 0.99645 0.16156 0.0
H1888 H 0.59031 0.98647 0.08468 0.0
H1889 H 0.62906 0.0458 0.10681 0.0
H1890 H 0.56531 0.97036 0.12589 0.0
H1891 H 0.55323 0.97818 0.11085 0.0
H1892 H 0.56363 0.96533 0.10021 0.0
H1893 H 0.62637 0.05877 0.13667 0.0
H1894 H 0.60202 0.05121 0.13884 0.0
H1895 H 0.61269 0.04162 0.1535 0.0
H1896 H 0.54035 0.01594 0.15154 0.0
H1897 H 0.5673 0.99372 0.18597 0.0
H1898 H 0.55702 0.01093 0.10786 0.0
H1899 H 0.57331 0.03534 0.11771 0.0
H1900 H 0.54848 0.0247 0.12047 0.0
H1901 H 0.5907 0.98476 0.15057 0.0
H1902 H 0.59284 0.99141 0.17599 0.0
H1903 H 0.60722 0.00924 0.16001 0.0
C1904 C 0.01107 0.62269 0.11221 0.0
C1905 C 0.99916 0.61982 0.09608 0.0
C1906 C 0.00644 0.60792 0.12433 0.0
C1907 C 0.98938 0.58979 0.12034 0.0
C1908 C 0.97662 0.58724 0.10493 0.0
C1909 C 0.98167 0.60231 0.09293 0.0
C1910 C 0.02043 0.61133 0.14068 0.0
C1911 C 0.95814 0.56824 0.10044 0.0
C1912 C 0.99334 0.54798 0.13629 0.0
C1913 C 0.98615 0.54577 0.15441 0.0
C1914 C 0.99351 0.56155 0.1246 0.0
C1915 C 0.98614 0.5731 0.13109 0.0
C1916 C 0.97777 0.57008 0.14882 0.0
C1917 C 0.97795 0.55651 0.16033 0.0
C1918 C 0.00257 0.56428 0.10578 0.0
C1919 C 0.96955 0.58192 0.15613 0.0
H1920 H 0.02449 0.63627 0.11498 0.0
H1921 H 0.97232 0.59998 0.08056 0.0
H1922 H 0.01336 0.6074 0.15425 0.0
H1923 H 0.02628 0.60187 0.13776 0.0
H1924 H 0.03232 0.6267 0.14278 0.0
H1925 H 0.94858 0.56959 0.09007 0.0
H1926 H 0.96087 0.55704 0.09417 0.0
H1927 H 0.95088 0.56297 0.11373 0.0
H1928 H 0.99931 0.53942 0.13143 0.0
H1929 H 0.97244 0.55498 0.17435 0.0
H1930 H 0.01562 0.57889 0.10657 0.0
H1931 H 0.99297 0.56358 0.09397 0.0
H1932 H 0.0063 0.55314 0.10212 0.0
H1933 H 0.98113 0.59698 0.16086 0.0
H1934 H 0.96089 0.57569 0.16845 0.0
H1935 H 0.96068 0.58283 0.14456 0.0
C1936 C 0.39398 0.38074 0.067 0.0
C1937 C 0.40111 0.38867 0.04985 0.0
C1938 C 0.40465 0.38954 0.08454 0.0
C1939 C 0.4226 0.40681 0.08478 0.0
C1940 C 0.42949 0.41518 0.06745 0.0
C1941 C 0.41872 0.40581 0.0501 0.0
C1942 C 0.39703 0.38001 0.1027 0.0
C1943 C 0.44832 0.43384 0.06719 0.0
C1944 C 0.4433 0.43725 0.13246 0.0
C1945 C 0.45651 0.43231 0.13822 0.0
C1946 C 0.43245 0.42939 0.11491 0.0
C1947 C 0.43444 0.4158 0.10308 0.0
C1948 C 0.44768 0.4107 0.10874 0.0
C1949 C 0.45875 0.41922 0.1261 0.0
C1950 C 0.41875 0.4355 0.10913 0.0
C1951 C 0.44999 0.39602 0.09658 0.0
H1952 H 0.38037 0.36735 0.06658 0.0
H1953 H 0.4241 0.41179 0.03668 0.0
H1954 H 0.40662 0.37582 0.10919 0.0
H1955 H 0.39644 0.39041 0.11337 0.0
H1956 H 0.38269 0.36681 0.10008 0.0
H1957 H 0.45101 0.4391 0.05267 0.0
H1958 H 0.44899 0.44538 0.0773 0.0
H1959 H 0.4598 0.43156 0.07205 0.0
H1960 H 0.44109 0.44699 0.14182 0.0
H1961 H 0.46911 0.41554 0.1302 0.0
H1962 H 0.40412 0.42277 0.10817 0.0
H1963 H 0.4215 0.44094 0.09471 0.0
H1964 H 0.41968 0.44705 0.11945 0.0
H1965 H 0.43629 0.38203 0.09419 0.0
H1966 H 0.46057 0.39325 0.10329 0.0
H1967 H 0.45444 0.40125 0.0823 0.0
C1968 C 0.62983 0.71329 0.38663 0.0
C1969 C 0.64484 0.71 0.38666 0.0
C1970 C 0.62781 0.72362 0.40226 0.0
C1971 C 0.64099 0.73063 0.41842 0.0
C1972 C 0.65603 0.72716 0.41869 0.0
C1973 C 0.65786 0.71699 0.40273 0.0
C1974 C 0.61172 0.72725 0.40138 0.0
C1975 C 0.67021 0.73424 0.4358 0.0
C1976 C 0.64737 0.773 0.4515 0.0
C1977 C 0.63667 0.76344 0.46663 0.0
C1978 C 0.64865 0.76245 0.43555 0.0
C1979 C 0.6392 0.74191 0.43491 0.0
C1980 C 0.62818 0.73218 0.45007 0.0
C1981 C 0.62695 0.74309 0.46573 0.0
C1982 C 0.6603 0.7733 0.41951 0.0
C1983 C 0.61808 0.71031 0.44997 0.0
H1984 H 0.61977 0.70807 0.37422 0.0
H1985 H 0.66942 0.7144 0.40291 0.0
H1986 H 0.60286 0.72112 0.41356 0.0
H1987 H 0.61735 0.74314 0.40274 0.0
H1988 H 0.60263 0.72072 0.38778 0.0
H1989 H 0.68075 0.72983 0.43398 0.0
H1990 H 0.67779 0.75035 0.43817 0.0
H1991 H 0.66287 0.72839 0.44892 0.0
H1992 H 0.65483 0.78876 0.45223 0.0
H1993 H 0.61891 0.73575 0.4776 0.0
H1994 H 0.65156 0.76777 0.40567 0.0
H1995 H 0.67212 0.77077 0.41812 0.0
H1996 H 0.66621 0.78923 0.42192 0.0
H1997 H 0.60832 0.70326 0.43689 0.0
H1998 H 0.60989 0.70498 0.46275 0.0
H1999 H 0.62846 0.70559 0.44961 0.0
C2000 C 0.25819 0.92783 0.45279 0.0
C2001 C 0.27509 0.9327 0.44456 0.0
C2002 C 0.2503 0.91323 0.46537 0.0
C2003 C 0.25967 0.9034 0.47014 0.0
C2004 C 0.27682 0.90831 0.46206 0.0
C2005 C 0.28426 0.92281 0.44919 0.0
C2006 C 0.23184 0.90826 0.47347 0.0
C2007 C 0.28732 0.89834 0.46709 0.0
C2008 C 0.24381 0.8798 0.51639 0.0
C2009 C 0.22972 0.86081 0.5095 0.0
C2010 C 0.25477 0.89349 0.50375 0.0
C2011 C 0.2513 0.8881 0.48373 0.0
C2012 C 0.23786 0.8686 0.47679 0.0
C2013 C 0.22729 0.85512 0.4898 0.0
C2014 C 0.26919 0.91403 0.51176 0.0
C2015 C 0.23361 0.86231 0.45556 0.0
H2016 H 0.25089 0.93523 0.44916 0.0
H2017 H 0.29735 0.92654 0.44293 0.0
H2018 H 0.22121 0.89259 0.46984 0.0
H2019 H 0.23379 0.91091 0.48934 0.0
H2020 H 0.22613 0.91694 0.46792 0.0
H2021 H 0.30052 0.90388 0.45963 0.0
H2022 H 0.29093 0.90055 0.4828 0.0
H2023 H 0.27823 0.88243 0.46323 0.0
H2024 H 0.24582 0.88411 0.53168 0.0
H2025 H 0.21632 0.84045 0.48448 0.0
H2026 H 0.26393 0.92381 0.50871 0.0
H2027 H 0.28261 0.9194 0.5048 0.0
H2028 H 0.27211 0.91513 0.52753 0.0
H2029 H 0.22612 0.86893 0.44913 0.0
H2030 H 0.22464 0.84624 0.4526 0.0
H2031 H 0.24684 0.86749 0.44829 0.0
C2032 C 0.06942 0.31466 0.41807 0.0
C2033 C 0.07321 0.3265 0.40297 0.0
C2034 C 0.08244 0.3204 0.43396 0.0
C2035 C 0.09985 0.33831 0.43469 0.0
C2036 C 0.10385 0.35033 0.41947 0.0
C2037 C 0.0904 0.34436 0.40385 0.0
C2038 C 0.07752 0.30729 0.45004 0.0
C2039 C 0.12236 0.3694 0.41964 0.0
C2040 C 0.12442 0.35799 0.48459 0.0
C2041 C 0.13628 0.35046 0.48525 0.0
C2042 C 0.11308 0.35493 0.46789 0.0
C2043 C 0.11378 0.34424 0.45144 0.0
C2044 C 0.12655 0.33759 0.45171 0.0
C2045 C 0.13756 0.34066 0.46867 0.0
C2046 C 0.09955 0.36212 0.46825 0.0
C2047 C 0.12793 0.3264 0.43438 0.0
H2048 H 0.0561 0.30093 0.4176 0.0
H2049 H 0.09346 0.35356 0.3922 0.0
H2050 H 0.08794 0.30271 0.45174 0.0
H2051 H 0.07817 0.31532 0.46378 0.0
H2052 H 0.06322 0.29404 0.44746 0.0
H2053 H 0.12333 0.37702 0.40666 0.0
H2054 H 0.1242 0.37912 0.43252 0.0
H2055 H 0.13422 0.3668 0.4205 0.0
H2056 H 0.12325 0.36538 0.49746 0.0
H2057 H 0.14686 0.33499 0.46913 0.0
H2058 H 0.08486 0.34949 0.46754 0.0
H2059 H 0.10078 0.37017 0.45558 0.0
H2060 H 0.10202 0.37177 0.48145 0.0
H2061 H 0.11476 0.31192 0.43185 0.0
H2062 H 0.14 0.3242 0.4362 0.0
H2063 H 0.12948 0.33414 0.42138 0.0
C2064 C 0.05187 0.29475 0.295 0.0
C2065 C 0.06 0.31129 0.30823 0.0
C2066 C 0.06085 0.29434 0.2785 0.0
C2067 C 0.0786 0.31071 0.27543 0.0
C2068 C 0.08683 0.3275 0.28868 0.0
C2069 C 0.07731 0.32768 0.30481 0.0
C2070 C 0.05144 0.27635 0.26447 0.0
C2071 C 0.1059 0.34509 0.28607 0.0
C2072 C 0.1107 0.30237 0.24419 0.0
C2073 C 0.10898 0.30975 0.22717 0.0
C2074 C 0.10089 0.30261 0.26002 0.0
C2075 C 0.08881 0.31007 0.25863 0.0
C2076 C 0.08673 0.31716 0.2413 0.0
C2077 C 0.09702 0.3171 0.22582 0.0
C2078 C 0.10372 0.29524 0.27836 0.0
C2079 C 0.0737 0.32485 0.23915 0.0
H2080 H 0.03841 0.28211 0.2975 0.0
H2081 H 0.08371 0.34045 0.31507 0.0
H2082 H 0.05019 0.2803 0.24983 0.0
H2083 H 0.06019 0.26964 0.26387 0.0
H2084 H 0.03716 0.26531 0.2684 0.0
H2085 H 0.11028 0.35704 0.29761 0.0
H2086 H 0.11669 0.34091 0.28598 0.0
H2087 H 0.10571 0.35067 0.27205 0.0
H2088 H 0.12013 0.29689 0.24527 0.0
H2089 H 0.09564 0.32269 0.21258 0.0
H2090 H 0.09004 0.28314 0.28237 0.0
H2091 H 0.10927 0.30703 0.29025 0.0
H2092 H 0.11368 0.29 0.2771 0.0
H2093 H 0.05924 0.31365 0.24241 0.0
H2094 H 0.0731 0.32908 0.22447 0.0
H2095 H 0.07847 0.33774 0.24956 0.0
C2096 C 0.66441 0.73208 0.29598 0.0
C2097 C 0.67507 0.72497 0.30404 0.0
C2098 C 0.67239 0.74745 0.2843 0.0
C2099 C 0.6915 0.75582 0.28023 0.0
C2100 C 0.70248 0.74892 0.28846 0.0
C2101 C 0.69416 0.73365 0.30045 0.0
C2102 C 0.66023 0.75456 0.2761 0.0
C2103 C 0.72282 0.75734 0.28423 0.0
C2104 C 0.69934 0.77964 0.23393 0.0
C2105 C 0.70571 0.79893 0.2407 0.0
C2106 C 0.69627 0.76572 0.24667 0.0
C2107 C 0.69939 0.7712 0.26667 0.0
C2108 C 0.70715 0.79099 0.27349 0.0
C2109 C 0.71032 0.80468 0.26036 0.0
C2110 C 0.68828 0.74487 0.23876 0.0
C2111 C 0.71059 0.79742 0.29469 0.0
H2112 H 0.64973 0.72567 0.29892 0.0
H2113 H 0.70246 0.72821 0.30665 0.0
H2114 H 0.667 0.77046 0.27983 0.0
H2115 H 0.65874 0.752 0.26022 0.0
H2116 H 0.64592 0.74714 0.28146 0.0
H2117 H 0.72975 0.75122 0.29266 0.0
H2118 H 0.72362 0.75426 0.26874 0.0
H2119 H 0.73084 0.77339 0.28741 0.0
H2120 H 0.69601 0.77527 0.21866 0.0
H2121 H 0.71523 0.81961 0.26558 0.0
H2122 H 0.67316 0.73608 0.24156 0.0
H2123 H 0.69564 0.73851 0.24597 0.0
H2124 H 0.68943 0.74357 0.22304 0.0
H2125 H 0.69687 0.79242 0.30092 0.0
H2126 H 0.71944 0.81351 0.29754 0.0
H2127 H 0.71755 0.79083 0.30221 0.0
C2128 C 0.26786 0.93353 0.34214 0.0
C2129 C 0.26249 0.94301 0.35566 0.0
C2130 C 0.25721 0.92479 0.32456 0.0
C2131 C 0.24079 0.92548 0.32048 0.0
C2132 C 0.23501 0.93452 0.33425 0.0
C2133 C 0.24593 0.9432 0.35165 0.0
C2134 C 0.26379 0.91526 0.31017 0.0
C2135 C 0.21753 0.93547 0.33043 0.0
C2136 C 0.22446 0.92255 0.26857 0.0
C2137 C 0.20942 0.9032 0.26546 0.0
C2138 C 0.23487 0.92992 0.28638 0.0
C2139 C 0.23012 0.91762 0.30143 0.0
C2140 C 0.21496 0.89806 0.2984 0.0
C2141 C 0.20478 0.89107 0.28041 0.0
C2142 C 0.25099 0.95086 0.28906 0.0
C2143 C 0.20946 0.88457 0.31416 0.0
H2144 H 0.28062 0.93331 0.34509 0.0
H2145 H 0.24154 0.95032 0.36203 0.0
H2146 H 0.25229 0.90007 0.30577 0.0
H2147 H 0.26747 0.92318 0.29707 0.0
H2148 H 0.27631 0.9151 0.31592 0.0
H2149 H 0.21444 0.94216 0.34304 0.0
H2150 H 0.21932 0.94414 0.31812 0.0
H2151 H 0.20515 0.92064 0.32649 0.0
H2152 H 0.22833 0.93187 0.25694 0.0
H2153 H 0.1931 0.87612 0.27806 0.0
H2154 H 0.26428 0.95153 0.29337 0.0
H2155 H 0.24837 0.95891 0.30076 0.0
H2156 H 0.253 0.9584 0.27582 0.0
H2157 H 0.22167 0.88357 0.31928 0.0
H2158 H 0.19751 0.86967 0.30937 0.0
H2159 H 0.2054 0.89047 0.32658 0.0
C2160 C 0.67092 0.93878 0.33062 0.0
C2161 C 0.68583 0.94962 0.34474 0.0
C2162 C 0.67263 0.92801 0.31512 0.0
C2163 C 0.68961 0.92807 0.31377 0.0
C2164 C 0.70457 0.93869 0.32812 0.0
C2165 C 0.70251 0.94933 0.34339 0.0
C2166 C 0.6564 0.91684 0.30003 0.0
C2167 C 0.72289 0.93908 0.32717 0.0
C2168 C 0.6907 0.88886 0.28194 0.0
C2169 C 0.69861 0.89869 0.26576 0.0
C2170 C 0.68742 0.89815 0.29761 0.0
C2171 C 0.69214 0.91768 0.29701 0.0
C2172 C 0.69998 0.92759 0.28064 0.0
C2173 C 0.70311 0.91797 0.2652 0.0
C2174 C 0.67908 0.88716 0.31488 0.0
C2175 C 0.70515 0.94841 0.27944 0.0
H2176 H 0.65799 0.93889 0.33153 0.0
H2177 H 0.71409 0.95753 0.35426 0.0
H2178 H 0.66085 0.92266 0.28595 0.0
H2179 H 0.6522 0.90131 0.29841 0.0
H2180 H 0.6439 0.91771 0.30354 0.0
H2181 H 0.7329 0.94751 0.33985 0.0
H2182 H 0.72013 0.92403 0.32621 0.0
H2183 H 0.72975 0.94567 0.31406 0.0
H2184 H 0.68723 0.87396 0.28238 0.0
H2185 H 0.7088 0.92545 0.25252 0.0
H2186 H 0.66603 0.88709 0.31791 0.0
H2187 H 0.68914 0.89456 0.3277 0.0
H2188 H 0.67565 0.87187 0.31283 0.0
H2189 H 0.69265 0.94968 0.28155 0.0
H2190 H 0.71062 0.95383 0.26545 0.0
H2191 H 0.71607 0.958 0.29106 0.0
C2192 C 0.08106 0.74701 0.29074 0.0
C2193 C 0.06322 0.74055 0.29746 0.0
C2194 C 0.08874 0.76155 0.27809 0.0
C2195 C 0.07826 0.76973 0.27175 0.0
C2196 C 0.06026 0.76338 0.27848 0.0
C2197 C 0.05298 0.74892 0.29139 0.0
C2198 C 0.1081 0.76806 0.27143 0.0
C2199 C 0.04863 0.77166 0.27184 0.0
C2200 C 0.10906 0.81764 0.25081 0.0
C2201 C 0.10786 0.81124 0.23147 0.0
C2202 C 0.09839 0.80446 0.26402 0.0
C2203 C 0.0862 0.78451 0.25762 0.0
C2204 C 0.08386 0.77832 0.23783 0.0
C2205 C 0.09482 0.79176 0.225 0.0
C2206 C 0.10132 0.81162 0.28501 0.0
C2207 C 0.07083 0.75725 0.23037 0.0
H2208 H 0.0892 0.74083 0.29551 0.0
H2209 H 0.03918 0.74398 0.29651 0.0
H2210 H 0.10713 0.76494 0.25564 0.0
H2211 H 0.11756 0.78402 0.27477 0.0
H2212 H 0.11466 0.7607 0.27825 0.0
H2213 H 0.03518 0.76566 0.27892 0.0
H2214 H 0.05675 0.78773 0.27482 0.0
H2215 H 0.04532 0.76838 0.25609 0.0
H2216 H 0.11918 0.8327 0.25582 0.0
H2217 H 0.0937 0.78689 0.20996 0.0
H2218 H 0.1097 0.80663 0.29271 0.0
H2219 H 0.08762 0.8055 0.29155 0.0
H2220 H 0.10894 0.82776 0.28726 0.0
H2221 H 0.077 0.74861 0.23478 0.0
H2222 H 0.06854 0.75535 0.21447 0.0
H2223 H 0.05697 0.75119 0.23657 0.0
C2224 C 0.26593 0.34821 0.31492 0.0
C2225 C 0.26402 0.33624 0.32946 0.0
C2226 C 0.25256 0.34144 0.29921 0.0
C2227 C 0.23672 0.32224 0.29801 0.0
C2228 C 0.23468 0.30999 0.31255 0.0
C2229 C 0.24842 0.3171 0.32807 0.0
C2230 C 0.25537 0.35492 0.2839 0.0
C2231 C 0.21792 0.28947 0.31177 0.0
C2232 C 0.19626 0.31587 0.26543 0.0
C2233 C 0.19909 0.30841 0.24811 0.0
C2234 C 0.20763 0.31923 0.28219 0.0
C2235 C 0.22235 0.31528 0.2815 0.0
C2236 C 0.22463 0.30679 0.26427 0.0
C2237 C 0.21291 0.30339 0.24779 0.0
C2238 C 0.20458 0.32803 0.30035 0.0
C2239 C 0.24023 0.30252 0.26288 0.0
H2240 H 0.27799 0.36295 0.31574 0.0
H2241 H 0.24679 0.30775 0.33924 0.0
H2242 H 0.25567 0.34819 0.26971 0.0
H2243 H 0.24339 0.35731 0.28294 0.0
H2244 H 0.26866 0.36929 0.28678 0.0
H2245 H 0.2185 0.28173 0.3241 0.0
H2246 H 0.20471 0.28974 0.31175 0.0
H2247 H 0.21719 0.28106 0.29828 0.0
H2248 H 0.18547 0.3196 0.26573 0.0
H2249 H 0.21527 0.29781 0.23435 0.0
H2250 H 0.2164 0.34332 0.30347 0.0
H2251 H 0.20443 0.32002 0.31272 0.0
H2252 H 0.19117 0.32792 0.29919 0.0
H2253 H 0.25403 0.31642 0.26375 0.0
H2254 H 0.23874 0.2939 0.24921 0.0
H2255 H 0.24049 0.29445 0.27502 0.0
C2256 C 0.27253 0.36971 0.42884 0.0
C2257 C 0.27587 0.35471 0.42367 0.0
C2258 C 0.26302 0.36929 0.44517 0.0
C2259 C 0.2569 0.35364 0.45676 0.0
C2260 C 0.26051 0.33863 0.45184 0.0
C2261 C 0.26984 0.33928 0.43529 0.0
C2262 C 0.25924 0.38545 0.44983 0.0
C2263 C 0.25439 0.32181 0.46399 0.0
C2264 C 0.24552 0.36089 0.50764 0.0
C2265 C 0.22579 0.35104 0.50568 0.0
C2266 C 0.25586 0.3617 0.49188 0.0
C2267 C 0.24621 0.35266 0.47372 0.0
C2268 C 0.22628 0.3428 0.47166 0.0
C2269 C 0.21631 0.34202 0.48769 0.0
C2270 C 0.27709 0.37215 0.49467 0.0
C2271 C 0.21548 0.33324 0.45247 0.0
H2272 H 0.27705 0.38165 0.41992 0.0
H2273 H 0.27249 0.32771 0.43152 0.0
H2274 H 0.24381 0.37934 0.44968 0.0
H2275 H 0.2654 0.39254 0.46447 0.0
H2276 H 0.26516 0.39673 0.4395 0.0
H2277 H 0.25896 0.31175 0.45864 0.0
H2278 H 0.26029 0.32734 0.47904 0.0
H2279 H 0.23881 0.31345 0.46417 0.0
H2280 H 0.25285 0.36776 0.52158 0.0
H2281 H 0.20105 0.33462 0.4861 0.0
H2282 H 0.28354 0.3843 0.48536 0.0
H2283 H 0.2819 0.36204 0.49033 0.0
H2284 H 0.28242 0.37812 0.50978 0.0
H2285 H 0.2201 0.34421 0.44186 0.0
H2286 H 0.2 0.32626 0.45329 0.0
H2287 H 0.21851 0.322 0.447 0.0
C2288 C 0.64186 0.9293 0.42736 0.0
C2289 C 0.66068 0.94479 0.43038 0.0
C2290 C 0.6346 0.9137 0.43893 0.0
C2291 C 0.64647 0.91356 0.45379 0.0
C2292 C 0.66512 0.92962 0.45756 0.0
C2293 C 0.67197 0.94503 0.44587 0.0
C2294 C 0.61455 0.89695 0.43467 0.0
C2295 C 0.67823 0.9301 0.47332 0.0
C2296 C 0.62959 0.87971 0.49357 0.0
C2297 C 0.63439 0.86607 0.48726 0.0
C2298 C 0.63235 0.89466 0.48229 0.0
C2299 C 0.64018 0.89602 0.46438 0.0
C2300 C 0.64398 0.8816 0.45748 0.0
C2301 C 0.64099 0.86679 0.46898 0.0
C2302 C 0.62793 0.90962 0.49005 0.0
C2303 C 0.65227 0.88246 0.43843 0.0
H2304 H 0.63296 0.92899 0.41552 0.0
H2305 H 0.68645 0.95698 0.4485 0.0
H2306 H 0.61457 0.88397 0.42844 0.0
H2307 H 0.60716 0.89301 0.44807 0.0
H2308 H 0.60646 0.90037 0.42438 0.0
H2309 H 0.69188 0.94421 0.47522 0.0
H2310 H 0.67152 0.92745 0.48714 0.0
H2311 H 0.68114 0.91831 0.46992 0.0
H2312 H 0.6246 0.87932 0.50774 0.0
H2313 H 0.64439 0.85607 0.4639 0.0
H2314 H 0.62027 0.91258 0.47881 0.0
H2315 H 0.64128 0.92352 0.49452 0.0
H2316 H 0.61932 0.90491 0.50264 0.0
H2317 H 0.64386 0.88408 0.4269 0.0
H2318 H 0.6529 0.86927 0.43441 0.0
H2319 H 0.66679 0.89538 0.43914 0.0
C2320 C 0.08398 0.74906 0.38808 0.0
C2321 C 0.06919 0.72967 0.38728 0.0
C2322 C 0.09517 0.75854 0.40522 0.0
C2323 C 0.09133 0.74827 0.4218 0.0
C2324 C 0.07591 0.72884 0.42112 0.0
C2325 C 0.06507 0.71971 0.40376 0.0
C2326 C 0.11151 0.77924 0.40542 0.0
C2327 C 0.07128 0.71749 0.43854 0.0
C2328 C 0.13064 0.76272 0.46022 0.0
C2329 C 0.12654 0.77264 0.47452 0.0
C2330 C 0.11952 0.75507 0.4428 0.0
C2331 C 0.10395 0.75745 0.43963 0.0
C2332 C 0.1 0.76785 0.45381 0.0
C2333 C 0.11131 0.77528 0.47111 0.0
C2334 C 0.12417 0.74408 0.42797 0.0
C2335 C 0.0835 0.77064 0.45094 0.0
H2336 H 0.08717 0.75656 0.37513 0.0
H2337 H 0.05366 0.70461 0.4029 0.0
H2338 H 0.11072 0.78854 0.41726 0.0
H2339 H 0.12497 0.77971 0.40806 0.0
H2340 H 0.11185 0.78555 0.39168 0.0
H2341 H 0.05813 0.70297 0.43591 0.0
H2342 H 0.08304 0.71538 0.44275 0.0
H2343 H 0.06967 0.72571 0.45086 0.0
H2344 H 0.1425 0.76082 0.46272 0.0
H2345 H 0.10786 0.78264 0.48223 0.0
H2346 H 0.12607 0.75054 0.41408 0.0
H2347 H 0.1123 0.72875 0.42553 0.0
H2348 H 0.13717 0.74417 0.43236 0.0
H2349 H 0.0842 0.77721 0.4373 0.0
H2350 H 0.08303 0.78008 0.46288 0.0
H2351 H 0.07013 0.7563 0.44984 0.0
C2352 C 0.30289 0.05523 0.71697 0.0
C2353 C 0.3166 0.05009 0.71842 0.0
C2354 C 0.30077 0.06589 0.73219 0.0
C2355 C 0.3124 0.07121 0.74937 0.0
C2356 C 0.32643 0.06629 0.75085 0.0
C2357 C 0.32849 0.05593 0.73525 0.0
C2358 C 0.28592 0.07124 0.72998 0.0
C2359 C 0.33894 0.07155 0.76907 0.0
C2360 C 0.31797 0.11137 0.78519 0.0
C2361 C 0.3055 0.10063 0.79875 0.0
C2362 C 0.32002 0.102 0.76875 0.0
C2363 C 0.30952 0.08142 0.76602 0.0
C2364 C 0.29657 0.07053 0.77946 0.0
C2365 C 0.29462 0.0803 0.79564 0.0
C2366 C 0.33371 0.11409 0.75454 0.0
C2367 C 0.28524 0.04855 0.77708 0.0
H2368 H 0.29381 0.05094 0.70389 0.0
H2369 H 0.33904 0.0519 0.73643 0.0
H2370 H 0.27515 0.06402 0.74041 0.0
H2371 H 0.29239 0.08718 0.73317 0.0
H2372 H 0.27874 0.06691 0.71531 0.0
H2373 H 0.34935 0.0669 0.76778 0.0
H2374 H 0.34668 0.08751 0.77288 0.0
H2375 H 0.33017 0.06457 0.7811 0.0
H2376 H 0.3263 0.12712 0.78761 0.0
H2377 H 0.28516 0.07202 0.80628 0.0
H2378 H 0.32652 0.11005 0.7399 0.0
H2379 H 0.34532 0.11112 0.75412 0.0
H2380 H 0.33992 0.12994 0.7582 0.0
H2381 H 0.2769 0.0433 0.76302 0.0
H2382 H 0.27546 0.04229 0.78859 0.0
H2383 H 0.29491 0.04291 0.77724 0.0
C2384 C 0.95049 0.24992 0.77523 0.0
C2385 C 0.93993 0.25815 0.76985 0.0
C2386 C 0.94372 0.23536 0.78807 0.0
C2387 C 0.92591 0.22882 0.79542 0.0
C2388 C 0.91502 0.23672 0.78958 0.0
C2389 C 0.92219 0.25131 0.777 0.0
C2390 C 0.95573 0.22732 0.7941 0.0
C2391 C 0.89584 0.22999 0.79686 0.0
C2392 C 0.89561 0.18138 0.81716 0.0
C2393 C 0.8972 0.18807 0.8365 0.0
C2394 C 0.90618 0.19426 0.8037 0.0
C2395 C 0.91861 0.21424 0.80978 0.0
C2396 C 0.92141 0.22069 0.82955 0.0
C2397 C 0.91061 0.20753 0.84267 0.0
C2398 C 0.9028 0.18678 0.78277 0.0
C2399 C 0.93469 0.24181 0.83668 0.0
H2400 H 0.96421 0.25514 0.76976 0.0
H2401 H 0.91379 0.25736 0.7727 0.0
H2402 H 0.96012 0.23139 0.80964 0.0
H2403 H 0.94751 0.21119 0.79191 0.0
H2404 H 0.96858 0.23289 0.78604 0.0
H2405 H 0.88889 0.23711 0.79032 0.0
H2406 H 0.88651 0.214 0.7937 0.0
H2407 H 0.89724 0.23324 0.81266 0.0
H2408 H 0.88523 0.16634 0.81234 0.0
H2409 H 0.91213 0.21263 0.85769 0.0
H2410 H 0.91629 0.19301 0.77581 0.0
H2411 H 0.89397 0.19136 0.77527 0.0
H2412 H 0.89542 0.17065 0.78078 0.0
H2413 H 0.9483 0.24774 0.83001 0.0
H2414 H 0.93747 0.24389 0.85254 0.0
H2415 H 0.92841 0.25044 0.83256 0.0
C2416 C 0.75368 0.68116 0.73614 0.0
C2417 C 0.73564 0.66474 0.73711 0.0
C2418 C 0.76747 0.68766 0.75154 0.0
C2419 C 0.76292 0.67772 0.76836 0.0
C2420 C 0.74445 0.6617 0.76969 0.0
C2421 C 0.73111 0.6553 0.75399 0.0
C2422 C 0.78707 0.70464 0.74952 0.0
C2423 C 0.73888 0.65095 0.78752 0.0
C2424 C 0.79827 0.67525 0.80155 0.0
C2425 C 0.79993 0.68754 0.81751 0.0
C2426 C 0.78731 0.67302 0.78485 0.0
C2427 C 0.77756 0.6831 0.78425 0.0
C2428 C 0.7801 0.69642 0.79993 0.0
C2429 C 0.79136 0.69855 0.81638 0.0
C2430 C 0.78525 0.65893 0.76832 0.0
C2431 C 0.76987 0.70735 0.79991 0.0
H2432 H 0.75724 0.68845 0.72308 0.0
H2433 H 0.7171 0.64276 0.75489 0.0
H2434 H 0.79169 0.71564 0.76204 0.0
H2435 H 0.79714 0.69952 0.74924 0.0
H2436 H 0.78792 0.71177 0.73621 0.0
H2437 H 0.72361 0.63969 0.78675 0.0
H2438 H 0.74703 0.64374 0.78959 0.0
H2439 H 0.74228 0.66132 0.80035 0.0
H2440 H 0.80506 0.66687 0.80239 0.0
H2441 H 0.79253 0.70796 0.82879 0.0
H2442 H 0.78714 0.66563 0.75457 0.0
H2443 H 0.77083 0.64584 0.76735 0.0
H2444 H 0.79557 0.65421 0.77003 0.0
H2445 H 0.77106 0.71385 0.78615 0.0
H2446 H 0.77537 0.71908 0.81188 0.0
H2447 H 0.75465 0.69706 0.80141 0.0
C2448 C 0.74101 0.6589 0.63788 0.0
C2449 C 0.72493 0.64201 0.64287 0.0
C2450 C 0.75021 0.65846 0.62156 0.0
C2451 C 0.74292 0.64082 0.60974 0.0
C2452 C 0.72658 0.62377 0.61459 0.0
C2453 C 0.7179 0.62453 0.63121 0.0
C2454 C 0.76782 0.67686 0.61707 0.0
C2455 C 0.71819 0.60478 0.60213 0.0
C2456 C 0.75758 0.64527 0.55858 0.0
C2457 C 0.77148 0.64043 0.55966 0.0
C2458 C 0.74782 0.64499 0.57467 0.0
C2459 C 0.75245 0.64022 0.59232 0.0
C2460 C 0.7665 0.6353 0.59343 0.0
C2461 C 0.77572 0.63527 0.57701 0.0
C2462 C 0.73266 0.64992 0.57282 0.0
C2463 C 0.77211 0.63052 0.61207 0.0
H2464 H 0.7466 0.67243 0.64689 0.0
H2465 H 0.70538 0.61146 0.6349 0.0
H2466 H 0.77972 0.67435 0.61634 0.0
H2467 H 0.76564 0.68096 0.60282 0.0
H2468 H 0.7719 0.68927 0.62795 0.0
H2469 H 0.70519 0.59295 0.60768 0.0
H2470 H 0.71472 0.60675 0.58732 0.0
H2471 H 0.7286 0.60015 0.6012 0.0
H2472 H 0.7543 0.64919 0.5451 0.0
H2473 H 0.78665 0.63175 0.57784 0.0
H2474 H 0.73674 0.66327 0.58227 0.0
H2475 H 0.71926 0.638 0.57758 0.0
H2476 H 0.73011 0.65233 0.55787 0.0
H2477 H 0.77738 0.64309 0.62305 0.0
H2478 H 0.78325 0.62693 0.61049 0.0
H2479 H 0.75967 0.618 0.61756 0.0
C2480 C 0.36003 0.06484 0.63071 0.0
C2481 C 0.3408 0.05516 0.63396 0.0
C2482 C 0.36772 0.07974 0.61828 0.0
C2483 C 0.35596 0.08532 0.60929 0.0
C2484 C 0.33658 0.07563 0.61261 0.0
C2485 C 0.32923 0.06058 0.62471 0.0
C2486 C 0.38835 0.08948 0.61473 0.0
C2487 C 0.32359 0.08131 0.60355 0.0
C2488 C 0.37322 0.13468 0.59118 0.0
C2489 C 0.36987 0.12972 0.57133 0.0
C2490 C 0.37001 0.1206 0.60383 0.0
C2491 C 0.36359 0.10126 0.59635 0.0
C2492 C 0.36172 0.09666 0.57625 0.0
C2493 C 0.3647 0.11091 0.56397 0.0
C2494 C 0.37198 0.12607 0.62515 0.0
C2495 C 0.35526 0.07633 0.56768 0.0
H2496 H 0.36903 0.06069 0.63779 0.0
H2497 H 0.31441 0.05337 0.6273 0.0
H2498 H 0.38995 0.08806 0.59915 0.0
H2499 H 0.39563 0.10526 0.61938 0.0
H2500 H 0.39549 0.08315 0.62246 0.0
H2501 H 0.30897 0.07263 0.608 0.0
H2502 H 0.32901 0.09695 0.60758 0.0
H2503 H 0.32312 0.07926 0.58769 0.0
H2504 H 0.37714 0.14922 0.59683 0.0
H2505 H 0.3623 0.10717 0.54857 0.0
H2506 H 0.37964 0.1203 0.63284 0.0
H2507 H 0.35775 0.11948 0.63062 0.0
H2508 H 0.37951 0.14209 0.62868 0.0
H2509 H 0.36287 0.0704 0.57519 0.0
H2510 H 0.35744 0.07592 0.55213 0.0
H2511 H 0.34001 0.06661 0.56947 0.0
C2512 C 0.93614 0.26445 0.66849 0.0
C2513 C 0.92933 0.27245 0.68201 0.0
C2514 C 0.9261 0.25551 0.65066 0.0
C2515 C 0.90885 0.2545 0.64633 0.0
C2516 C 0.90174 0.26221 0.66002 0.0
C2517 C 0.91206 0.2711 0.67766 0.0
C2518 C 0.9341 0.24744 0.63634 0.0
C2519 C 0.88337 0.26137 0.65593 0.0
C2520 C 0.89159 0.25034 0.59454 0.0
C2521 C 0.87742 0.2306 0.59152 0.0
C2522 C 0.90214 0.25822 0.61222 0.0
C2523 C 0.89848 0.24604 0.62722 0.0
C2524 C 0.88435 0.22605 0.62422 0.0
C2525 C 0.87396 0.21855 0.60637 0.0
C2526 C 0.91712 0.27962 0.61488 0.0
C2527 C 0.88005 0.21265 0.63992 0.0
H2528 H 0.94946 0.26542 0.6717 0.0
H2529 H 0.90657 0.27709 0.68802 0.0
H2530 H 0.92364 0.23188 0.63192 0.0
H2531 H 0.93708 0.25532 0.62324 0.0
H2532 H 0.94732 0.24873 0.64219 0.0
H2533 H 0.87948 0.26746 0.66837 0.0
H2534 H 0.88444 0.26967 0.64349 0.0
H2535 H 0.8718 0.24609 0.65205 0.0
H2536 H 0.89459 0.25961 0.58295 0.0
H2537 H 0.86297 0.2033 0.60411 0.0
H2538 H 0.93094 0.28155 0.6194 0.0
H2539 H 0.9136 0.28701 0.62643 0.0
H2540 H 0.91859 0.28695 0.60158 0.0
H2541 H 0.89305 0.2132 0.64522 0.0
H2542 H 0.86916 0.19731 0.63502 0.0
H2543 H 0.87499 0.21754 0.65225 0.0
C2544 C 0.35165 0.26499 0.68172 0.0
C2545 C 0.35182 0.282 0.67843 0.0
C2546 C 0.3529 0.25361 0.66654 0.0
C2547 C 0.355 0.25984 0.64784 0.0
C2548 C 0.35508 0.27703 0.6445 0.0
C2549 C 0.35322 0.28781 0.65987 0.0
C2550 C 0.35219 0.23507 0.67055 0.0
C2551 C 0.35771 0.28435 0.62484 0.0
C2552 C 0.37828 0.24243 0.61288 0.0
C2553 C 0.36284 0.22858 0.6005 0.0
C2554 C 0.37592 0.25268 0.62837 0.0
C2555 C 0.35762 0.24866 0.63186 0.0
C2556 C 0.34189 0.23424 0.61987 0.0
C2557 C 0.34471 0.22456 0.60421 0.0
C2558 C 0.39307 0.26815 0.64072 0.0
C2559 C 0.32211 0.2293 0.62335 0.0
H2560 H 0.35054 0.26063 0.69618 0.0
H2561 H 0.35351 0.30112 0.65752 0.0
H2562 H 0.34108 0.22267 0.66086 0.0
H2563 H 0.36581 0.23637 0.66765 0.0
H2564 H 0.34928 0.23166 0.68564 0.0
H2565 H 0.35732 0.2979 0.62464 0.0
H2566 H 0.37145 0.28728 0.62 0.0
H2567 H 0.34655 0.2731 0.61429 0.0
H2568 H 0.3923 0.24544 0.61035 0.0
H2569 H 0.33269 0.21423 0.59456 0.0
H2570 H 0.39172 0.26469 0.65588 0.0
H2571 H 0.39415 0.28242 0.64027 0.0
H2572 H 0.40634 0.26959 0.63602 0.0
H2573 H 0.3191 0.22581 0.63839 0.0
H2574 H 0.31129 0.21676 0.61356 0.0
H2575 H 0.32075 0.24206 0.62128 0.0
C2576 C 0.72115 0.07483 0.61796 0.0
C2577 C 0.72992 0.06507 0.62436 0.0
C2578 C 0.72943 0.08882 0.60471 0.0
C2579 C 0.74702 0.09337 0.598 0.0
C2580 C 0.75595 0.08363 0.60448 0.0
C2581 C 0.74723 0.0695 0.61744 0.0
C2582 C 0.71935 0.09868 0.59784 0.0
C2583 C 0.77485 0.08826 0.59786 0.0
C2584 C 0.76432 0.11612 0.55149 0.0
C2585 C 0.77759 0.13547 0.55819 0.0
C2586 C 0.75349 0.10246 0.56422 0.0
C2587 C 0.75623 0.10826 0.58414 0.0
C2588 C 0.76907 0.12798 0.59089 0.0
C2589 C 0.77953 0.14141 0.57779 0.0
C2590 C 0.73972 0.08165 0.55642 0.0
C2591 C 0.77253 0.13469 0.61203 0.0
H2592 H 0.70773 0.07141 0.62318 0.0
H2593 H 0.75419 0.06216 0.62243 0.0
H2594 H 0.7283 0.11463 0.60154 0.0
H2595 H 0.71679 0.09619 0.58199 0.0
H2596 H 0.70563 0.0933 0.60423 0.0
H2597 H 0.78008 0.07964 0.60457 0.0
H2598 H 0.7738 0.08526 0.58205 0.0
H2599 H 0.78544 0.10396 0.6014 0.0
H2600 H 0.76269 0.1116 0.53629 0.0
H2601 H 0.78989 0.15635 0.58297 0.0
H2602 H 0.7258 0.07633 0.56229 0.0
H2603 H 0.7449 0.07219 0.56098 0.0
H2604 H 0.73779 0.07999 0.5405 0.0
H2605 H 0.75898 0.13001 0.61852 0.0
H2606 H 0.78175 0.15076 0.61479 0.0
H2607 H 0.77934 0.12788 0.61944 0.0
C2608 C 0.91309 0.65184 0.65797 0.0
C2609 C 0.92718 0.67167 0.66085 0.0
C2610 C 0.89951 0.64465 0.64231 0.0
C2611 C 0.9001 0.65755 0.62916 0.0
C2612 C 0.91428 0.67754 0.63196 0.0
C2613 C 0.92759 0.68435 0.64776 0.0
C2614 C 0.88454 0.62326 0.63981 0.0
C2615 C 0.91547 0.69177 0.6182 0.0
C2616 C 0.87814 0.64034 0.57811 0.0
C2617 C 0.86236 0.64227 0.57896 0.0
C2618 C 0.89011 0.6444 0.59456 0.0
C2619 C 0.88608 0.65034 0.61231 0.0
C2620 C 0.86954 0.65121 0.61344 0.0
C2621 C 0.85796 0.64733 0.5967 0.0
C2622 C 0.90769 0.64349 0.59269 0.0
C2623 C 0.8646 0.6572 0.63215 0.0
H2624 H 0.9126 0.64191 0.66799 0.0
H2625 H 0.93841 0.69967 0.64976 0.0
H2626 H 0.87034 0.62138 0.63959 0.0
H2627 H 0.88548 0.61663 0.62585 0.0
H2628 H 0.88586 0.61518 0.65144 0.0
H2629 H 0.92742 0.70682 0.62236 0.0
H2630 H 0.91716 0.68715 0.60352 0.0
H2631 H 0.9022 0.69192 0.6176 0.0
H2632 H 0.8817 0.63668 0.56435 0.0
H2633 H 0.8457 0.64873 0.59736 0.0
H2634 H 0.90889 0.6349 0.60379 0.0
H2635 H 0.9203 0.65841 0.595 0.0
H2636 H 0.90789 0.63693 0.57833 0.0
H2637 H 0.86543 0.64883 0.64372 0.0
H2638 H 0.85024 0.65497 0.63107 0.0
H2639 H 0.87491 0.67283 0.63644 0.0
C2640 C 0.93038 0.67249 0.76509 0.0
C2641 C 0.93856 0.68905 0.75486 0.0
C2642 C 0.92081 0.67171 0.78148 0.0
C2643 C 0.91925 0.68783 0.78771 0.0
C2644 C 0.92757 0.70464 0.77756 0.0
C2645 C 0.93717 0.70507 0.76131 0.0
C2646 C 0.91221 0.65359 0.79202 0.0
C2647 C 0.92609 0.72206 0.78371 0.0
C2648 C 0.87884 0.6788 0.81787 0.0
C2649 C 0.88794 0.68544 0.83635 0.0
C2650 C 0.88887 0.6795 0.80192 0.0
C2651 C 0.90847 0.68692 0.80454 0.0
C2652 C 0.91774 0.69359 0.82318 0.0
C2653 C 0.90736 0.69284 0.83888 0.0
C2654 C 0.87853 0.67244 0.78225 0.0
C2655 C 0.93859 0.70146 0.82654 0.0
H2656 H 0.93146 0.66007 0.76033 0.0
H2657 H 0.94339 0.71793 0.75351 0.0
H2658 H 0.91772 0.65738 0.80731 0.0
H2659 H 0.8967 0.64693 0.79172 0.0
H2660 H 0.91521 0.64258 0.7857 0.0
H2661 H 0.93362 0.73413 0.77445 0.0
H2662 H 0.91105 0.71775 0.78322 0.0
H2663 H 0.93202 0.72753 0.79875 0.0
H2664 H 0.86387 0.67333 0.81584 0.0
H2665 H 0.91439 0.69783 0.85318 0.0
H2666 H 0.88006 0.66049 0.7757 0.0
H2667 H 0.88478 0.68441 0.77272 0.0
H2668 H 0.86326 0.66708 0.78268 0.0
H2669 H 0.94179 0.69029 0.82129 0.0
H2670 H 0.94363 0.70588 0.84194 0.0
H2671 H 0.94667 0.71426 0.8183 0.0
C2672 C 0.30795 0.2621 0.75982 0.0
C2673 C 0.32714 0.27657 0.76299 0.0
C2674 C 0.29972 0.24612 0.77093 0.0
C2675 C 0.311 0.24454 0.78542 0.0
C2676 C 0.33012 0.25955 0.78928 0.0
C2677 C 0.33789 0.27538 0.77812 0.0
C2678 C 0.27921 0.23056 0.76664 0.0
C2679 C 0.34267 0.25848 0.80462 0.0
C2680 C 0.29349 0.21086 0.82521 0.0
C2681 C 0.29737 0.19659 0.81861 0.0
C2682 C 0.29647 0.22586 0.81391 0.0
C2683 C 0.30357 0.22663 0.79567 0.0
C2684 C 0.30615 0.21144 0.7884 0.0
C2685 C 0.303 0.1966 0.79996 0.0
C2686 C 0.29332 0.24163 0.82209 0.0
C2687 C 0.31362 0.21162 0.76899 0.0
H2688 H 0.29946 0.2629 0.74826 0.0
H2689 H 0.35267 0.28652 0.78089 0.0
H2690 H 0.27808 0.21716 0.75984 0.0
H2691 H 0.2719 0.22674 0.7801 0.0
H2692 H 0.27179 0.23516 0.75683 0.0
H2693 H 0.35695 0.27183 0.80647 0.0
H2694 H 0.33623 0.2563 0.81858 0.0
H2695 H 0.34419 0.24582 0.80082 0.0
H2696 H 0.28922 0.21099 0.83965 0.0
H2697 H 0.30568 0.1854 0.79468 0.0
H2698 H 0.28621 0.24548 0.81108 0.0
H2699 H 0.30713 0.25494 0.82669 0.0
H2700 H 0.28472 0.23721 0.8347 0.0
H2701 H 0.30563 0.21432 0.7579 0.0
H2702 H 0.31281 0.19773 0.76456 0.0
H2703 H 0.32858 0.22363 0.76945 0.0
C2704 C 0.74071 0.04525 0.72808 0.0
C2705 C 0.7362 0.05536 0.71556 0.0
C2706 C 0.75161 0.05454 0.74536 0.0
C2707 C 0.75862 0.07458 0.74994 0.0
C2708 C 0.75413 0.0849 0.73733 0.0
C2709 C 0.74269 0.07506 0.72037 0.0
C2710 C 0.75563 0.0429 0.75871 0.0
C2711 C 0.76171 0.10638 0.74157 0.0
C2712 C 0.77368 0.09383 0.8022 0.0
C2713 C 0.79299 0.10075 0.80278 0.0
C2714 C 0.76233 0.08556 0.78499 0.0
C2715 C 0.77066 0.08462 0.76796 0.0
C2716 C 0.79034 0.09219 0.76843 0.0
C2717 C 0.80127 0.09995 0.78596 0.0
C2718 C 0.74135 0.07721 0.78518 0.0
C2719 C 0.79976 0.09176 0.75049 0.0
H2720 H 0.73553 0.02995 0.72443 0.0
H2721 H 0.73931 0.08291 0.71059 0.0
H2722 H 0.77102 0.04881 0.76042 0.0
H2723 H 0.75099 0.04412 0.77314 0.0
H2724 H 0.74842 0.02724 0.7534 0.0
H2725 H 0.757 0.1123 0.73022 0.0
H2726 H 0.75708 0.10911 0.75547 0.0
H2727 H 0.77736 0.11451 0.7429 0.0
H2728 H 0.76738 0.09436 0.81538 0.0
H2729 H 0.81626 0.10538 0.78658 0.0
H2730 H 0.73368 0.0613 0.78097 0.0
H2731 H 0.73668 0.08377 0.77455 0.0
H2732 H 0.73721 0.07967 0.79952 0.0
H2733 H 0.79464 0.07647 0.74515 0.0
H2734 H 0.81536 0.0997 0.753 0.0
H2735 H 0.79603 0.09833 0.739 0.0
C2736 C 0.03429 0.33585 0.06487 0.0
C2737 C 0.04149 0.35052 0.05226 0.0
C2738 C 0.04628 0.33326 0.07714 0.0
C2739 C 0.06603 0.34562 0.07682 0.0
C2740 C 0.07344 0.36089 0.06458 0.0
C2741 C 0.06105 0.36319 0.05243 0.0
C2742 C 0.0378 0.31686 0.09001 0.0
C2743 C 0.09444 0.37438 0.0639 0.0
C2744 C 0.09602 0.34556 0.11892 0.0
C2745 C 0.10102 0.33241 0.1115 0.0
C2746 C 0.08496 0.35034 0.10768 0.0
C2747 C 0.07879 0.34178 0.08857 0.0
C2748 C 0.08394 0.32865 0.08095 0.0
C2749 C 0.09499 0.32413 0.0925 0.0
C2750 C 0.07966 0.36432 0.11633 0.0
C2751 C 0.07765 0.31921 0.06063 0.0
H2752 H 0.01918 0.32607 0.06493 0.0
H2753 H 0.0667 0.37454 0.04272 0.0
H2754 H 0.04181 0.30607 0.08574 0.0
H2755 H 0.04339 0.3225 0.10511 0.0
H2756 H 0.02216 0.30924 0.08933 0.0
H2757 H 0.09793 0.38629 0.05459 0.0
H2758 H 0.10111 0.3809 0.07855 0.0
H2759 H 0.10076 0.366 0.05835 0.0
H2760 H 0.10058 0.35194 0.13362 0.0
H2761 H 0.09914 0.31428 0.08655 0.0
H2762 H 0.06413 0.35677 0.11684 0.0
H2763 H 0.08395 0.37652 0.10724 0.0
H2764 H 0.08631 0.3704 0.13109 0.0
H2765 H 0.06203 0.31014 0.0589 0.0
H2766 H 0.08342 0.30986 0.05668 0.0
H2767 H 0.08217 0.33053 0.05042 0.0
C2768 C 0.67513 0.68207 0.11565 0.0
C2769 C 0.6605 0.67657 0.1015 0.0
C2770 C 0.68264 0.69959 0.12742 0.0
C2771 C 0.6755 0.7119 0.12468 0.0
C2772 C 0.66024 0.706 0.11092 0.0
C2773 C 0.65283 0.68833 0.09962 0.0
C2774 C 0.6986 0.70523 0.14227 0.0
C2775 C 0.65224 0.71875 0.10751 0.0
C2776 C 0.68175 0.75333 0.15856 0.0
C2777 C 0.69486 0.76934 0.14936 0.0
C2778 C 0.6766 0.73438 0.15178 0.0
C2779 C 0.68447 0.73151 0.1352 0.0
C2780 C 0.69883 0.74779 0.12683 0.0
C2781 C 0.70396 0.7666 0.13414 0.0
C2782 C 0.66163 0.71744 0.16141 0.0
C2783 C 0.70751 0.74533 0.10908 0.0
H2784 H 0.68101 0.67293 0.11722 0.0
H2785 H 0.64147 0.68411 0.08875 0.0
H2786 H 0.71186 0.71749 0.13767 0.0
H2787 H 0.69589 0.71029 0.15622 0.0
H2788 H 0.70075 0.69296 0.14442 0.0
H2789 H 0.64009 0.71179 0.09655 0.0
H2790 H 0.64756 0.72217 0.12105 0.0
H2791 H 0.66333 0.73275 0.10263 0.0
H2792 H 0.6749 0.7556 0.1705 0.0
H2793 H 0.71406 0.77906 0.12706 0.0
H2794 H 0.66515 0.70599 0.16238 0.0
H2795 H 0.64796 0.71087 0.15276 0.0
H2796 H 0.6598 0.72205 0.17606 0.0
H2797 H 0.71169 0.73445 0.1107 0.0
H2798 H 0.72007 0.75925 0.10587 0.0
H2799 H 0.69693 0.73984 0.09661 0.0
C2800 C 0.32887 0.97287 0.0672 0.0
C2801 C 0.32787 0.96812 0.04747 0.0
C2802 C 0.31345 0.96195 0.07797 0.0
C2803 C 0.29644 0.94641 0.06857 0.0
C2804 C 0.29547 0.9414 0.04864 0.0
C2805 C 0.31138 0.95215 0.03835 0.0
C2806 C 0.31526 0.96731 0.09931 0.0
C2807 C 0.2774 0.92531 0.03804 0.0
C2808 C 0.26011 0.90994 0.09921 0.0
C2809 C 0.24884 0.91794 0.10278 0.0
C2810 C 0.27557 0.91896 0.088 0.0
C2811 C 0.2795 0.93601 0.07955 0.0
C2812 C 0.26774 0.9437 0.08233 0.0
C2813 C 0.25276 0.93477 0.09414 0.0
C2814 C 0.28804 0.91057 0.08569 0.0
C2815 C 0.27125 0.96164 0.07316 0.0
H2816 H 0.34175 0.98518 0.0742 0.0
H2817 H 0.31063 0.94867 0.02302 0.0
H2818 H 0.3059 0.9729 0.10277 0.0
H2819 H 0.31072 0.95424 0.10719 0.0
H2820 H 0.32993 0.97861 0.10464 0.0
H2821 H 0.27921 0.92274 0.0227 0.0
H2822 H 0.27216 0.91155 0.04486 0.0
H2823 H 0.26638 0.92913 0.03883 0.0
H2824 H 0.25698 0.89667 0.10533 0.0
H2825 H 0.24441 0.9413 0.09694 0.0
H2826 H 0.30258 0.92145 0.09173 0.0
H2827 H 0.28887 0.90728 0.07027 0.0
H2828 H 0.28289 0.89706 0.093 0.0
H2829 H 0.28471 0.97447 0.07947 0.0
H2830 H 0.25977 0.96464 0.07522 0.0
H2831 H 0.27259 0.95994 0.05755 0.0
C2832 C 0.354 0.03381 0.98021 0.0
C2833 C 0.36667 0.03904 0.99632 0.0
C2834 C 0.35036 0.04733 0.97272 0.0
C2835 C 0.35948 0.06656 0.98167 0.0
C2836 C 0.3728 0.07215 0.99756 0.0
C2837 C 0.37633 0.05831 0.00466 0.0
C2838 C 0.33628 0.04083 0.95557 0.0
C2839 C 0.38273 0.09251 0.00748 0.0
C2840 C 0.35716 0.10274 0.95142 0.0
C2841 C 0.34108 0.10229 0.95766 0.0
C2842 C 0.3639 0.09191 0.95975 0.0
C2843 C 0.35435 0.08038 0.9747 0.0
C2844 C 0.33861 0.08055 0.98164 0.0
C2845 C 0.33211 0.09144 0.97297 0.0
C2846 C 0.38062 0.09197 0.95183 0.0
C2847 C 0.32811 0.06854 0.99764 0.0
H2848 H 0.3466 0.01896 0.97362 0.0
H2849 H 0.38606 0.06236 0.01718 0.0
H2850 H 0.32391 0.04162 0.95973 0.0
H2851 H 0.34265 0.05066 0.94407 0.0
H2852 H 0.33124 0.02569 0.94963 0.0
H2853 H 0.39361 0.09493 0.01878 0.0
H2854 H 0.38955 0.10338 0.99692 0.0
H2855 H 0.37229 0.0952 0.0142 0.0
H2856 H 0.36401 0.11089 0.93942 0.0
H2857 H 0.31979 0.09122 0.97795 0.0
H2858 H 0.37587 0.07754 0.94417 0.0
H2859 H 0.39108 0.09453 0.96363 0.0
H2860 H 0.38769 0.10326 0.94167 0.0
H2861 H 0.32093 0.05284 0.99263 0.0
H2862 H 0.31734 0.07171 0.0026 0.0
H2863 H 0.33809 0.07128 0.01003 0.0
C2864 C 0.96214 0.30186 0.97503 0.0
C2865 C 0.98059 0.30752 0.98122 0.0
C2866 C 0.95037 0.28405 0.96415 0.0
C2867 C 0.95711 0.27143 0.95985 0.0
C2868 C 0.97605 0.27751 0.96527 0.0
C2869 C 0.98768 0.29566 0.97574 0.0
C2870 C 0.93039 0.27829 0.9582 0.0
C2871 C 0.98364 0.26433 0.9612 0.0
C2872 C 0.91807 0.21856 0.95672 0.0
C2873 C 0.91437 0.21397 0.93689 0.0
C2874 C 0.93274 0.23695 0.96436 0.0
C2875 C 0.94363 0.25112 0.95178 0.0
C2876 C 0.94038 0.24623 0.93168 0.0
C2877 C 0.92575 0.22756 0.92443 0.0
C2878 C 0.93594 0.24149 0.98589 0.0
C2879 C 0.95156 0.26102 0.91785 0.0
H2880 H 0.95674 0.31117 0.9791 0.0
H2881 H 0.00196 0.30004 0.9806 0.0
H2882 H 0.92684 0.27271 0.94282 0.0
H2883 H 0.92045 0.26641 0.96662 0.0
H2884 H 0.92812 0.29066 0.96054 0.0
H2885 H 0.99919 0.27209 0.96416 0.0
H2886 H 0.97704 0.25204 0.97033 0.0
H2887 H 0.98 0.25801 0.94604 0.0
H2888 H 0.9091 0.20791 0.96622 0.0
H2889 H 0.92262 0.22389 0.90907 0.0
H2890 H 0.93195 0.25226 0.99029 0.0
H2891 H 0.95108 0.24807 0.99049 0.0
H2892 H 0.92754 0.22832 0.99359 0.0
H2893 H 0.94775 0.27234 0.9184 0.0
H2894 H 0.94879 0.2543 0.90285 0.0
H2895 H 0.96689 0.26845 0.92198 0.0
C2896 C 0.69819 0.65863 0.03377 0.0
C2897 C 0.68247 0.6398 0.03394 0.0
C2898 C 0.71331 0.66221 0.0229 0.0
C2899 C 0.71242 0.64664 0.01145 0.0
C2900 C 0.69658 0.62752 0.01159 0.0
C2901 C 0.68185 0.62426 0.02313 0.0
C2902 C 0.73017 0.6827 0.02358 0.0
C2903 C 0.69499 0.61068 0.99916 0.0
C2904 C 0.74338 0.66268 0.96968 0.0
C2905 C 0.75883 0.6617 0.97655 0.0
C2906 C 0.72779 0.65702 0.98059 0.0
C2907 C 0.72793 0.65068 0.99896 0.0
C2908 C 0.7435 0.64958 0.00592 0.0
C2909 C 0.75871 0.65491 0.99449 0.0
C2910 C 0.71131 0.65808 0.97256 0.0
C2911 C 0.74437 0.64339 0.02563 0.0
H2912 H 0.69874 0.67062 0.04233 0.0
H2913 H 0.66962 0.60972 0.02323 0.0
H2914 H 0.7433 0.68283 0.02733 0.0
H2915 H 0.73145 0.6882 0.00924 0.0
H2916 H 0.72914 0.6929 0.03418 0.0
H2917 H 0.6819 0.59668 0.00113 0.0
H2918 H 0.69508 0.61349 0.98384 0.0
H2919 H 0.7073 0.60922 0.00248 0.0
H2920 H 0.74344 0.6677 0.95566 0.0
H2921 H 0.77074 0.65422 -0.00025 0.0
H2922 H 0.71014 0.6693 0.98131 0.0
H2923 H 0.69797 0.64396 0.97327 0.0
H2924 H 0.71274 0.66175 0.95744 0.0
H2925 H 0.74436 0.65387 0.03668 0.0
H2926 H 0.75716 0.64262 0.0286 0.0
H2927 H 0.73173 0.62893 0.02719 0.0
C2928 C 0.96797 0.66485 0.99917 0.0
C2929 C 0.96131 0.64955 0.01103 0.0
C2930 C 0.95558 0.66705 0.98711 0.0
C2931 C 0.93598 0.65353 0.98674 0.0
C2932 C 0.92914 0.63763 0.99815 0.0
C2933 C 0.94191 0.63584 0.01024 0.0
C2934 C 0.96346 0.68427 0.97525 0.0
C2935 C 0.90832 0.62283 0.99798 0.0
C2936 C 0.90512 0.67317 0.97218 0.0
C2937 C 0.90051 0.66652 0.95264 0.0
C2938 C 0.91622 0.66859 0.98354 0.0
C2939 C 0.92273 0.65688 0.97524 0.0
C2940 C 0.91773 0.64968 0.95566 0.0
C2941 C 0.90672 0.65464 0.94456 0.0
C2942 C 0.92132 0.67665 0.00435 0.0
C2943 C 0.92434 0.63709 0.94633 0.0
H2944 H 0.98295 0.67549 -0.00039 0.0
H2945 H 0.93668 0.62396 0.01933 0.0
H2946 H 0.95857 0.67927 0.95991 0.0
H2947 H 0.95824 0.69392 0.97995 0.0
H2948 H 0.97913 0.69295 0.97651 0.0
H2949 H 0.9054 0.61051 0.00648 0.0
H2950 H 0.90094 0.62992 0.004 0.0
H2951 H 0.90224 0.61698 0.98303 0.0
H2952 H 0.89996 0.68192 0.97867 0.0
H2953 H 0.90326 0.64949 0.92947 0.0
H2954 H 0.93682 0.68659 0.0068 0.0
H2955 H 0.91716 0.66467 0.01371 0.0
H2956 H 0.91442 0.68479 0.00882 0.0
H2957 H 0.93991 0.64566 0.94599 0.0
H2958 H 0.91799 0.63138 0.93141 0.0
H2959 H 0.92077 0.62462 0.95483 0.0
C2960 C 0.34415 0.30945 0.97359 0.0
C2961 C 0.34408 0.32535 0.96681 0.0
C2962 C 0.3379 0.2924 0.96161 0.0
C2963 C 0.33211 0.29154 0.94217 0.0
C2964 C 0.33226 0.3077 0.93513 0.0
C2965 C 0.33793 0.32438 0.94771 0.0
C2966 C 0.33746 0.27529 0.96983 0.0
C2967 C 0.32684 0.30752 0.91431 0.0
C2968 C 0.33622 0.25304 0.91352 0.0
C2969 C 0.31759 0.23705 0.91242 0.0
C2970 C 0.3408 0.27145 0.92147 0.0
C2971 C 0.3266 0.27382 0.92932 0.0
C2972 C 0.30764 0.25816 0.92737 0.0
C2973 C 0.30331 0.24006 0.91859 0.0
C2974 C 0.36112 0.28798 0.92276 0.0
C2975 C 0.29214 0.26003 0.93591 0.0
H2976 H 0.34867 0.31015 0.98848 0.0
H2977 H 0.33794 0.33678 0.94255 0.0
H2978 H 0.32323 0.26203 0.9669 0.0
H2979 H 0.3476 0.27229 0.96286 0.0
H2980 H 0.3411 0.27788 0.98556 0.0
H2981 H 0.3274 0.32114 0.91122 0.0
H2982 H 0.33653 0.30565 0.90513 0.0
H2983 H 0.3124 0.295 0.91018 0.0
H2984 H 0.34756 0.2511 0.90914 0.0
H2985 H 0.28879 0.22809 0.91727 0.0
H2986 H 0.36743 0.29036 0.93762 0.0
H2987 H 0.36211 0.30171 0.91932 0.0
H2988 H 0.36964 0.28489 0.91289 0.0
H2989 H 0.2939 0.26088 0.95179 0.0
H2990 H 0.2779 0.24744 0.93102 0.0
H2991 H 0.29294 0.27358 0.93219 0.0
C2992 C 0.67184 0.0311 0.99644 0.0
C2993 C 0.67275 0.03524 0.01628 0.0
C2994 C 0.68759 0.04185 0.98603 0.0
C2995 C 0.70482 0.05652 0.99587 0.0
C2996 C 0.70564 0.06106 0.01589 0.0
C2997 C 0.68943 0.05054 0.02583 0.0
C2998 C 0.68596 0.03704 0.9646 0.0
C2999 C 0.72388 0.07619 0.02696 0.0
C3000 C 0.7481 0.06544 0.97101 0.0
C3001 C 0.75342 0.0828 0.96271 0.0
C3002 C 0.7328 0.05721 0.98253 0.0
C3003 C 0.72215 0.06618 0.98533 0.0
C3004 C 0.72754 0.0838 0.97727 0.0
C3005 C 0.74329 0.09208 0.96637 0.0
C3006 C 0.72775 0.03862 0.99131 0.0
C3007 C 0.71629 0.09359 0.97962 0.0
H3008 H 0.65885 0.01925 0.98913 0.0
H3009 H 0.69012 0.05348 0.04125 0.0
H3010 H 0.6917 0.05051 0.95713 0.0
H3011 H 0.6944 0.03036 0.96106 0.0
H3012 H 0.67113 0.02676 0.9589 0.0
H3013 H 0.72185 0.07896 0.04218 0.0
H3014 H 0.73405 0.07118 0.02663 0.0
H3015 H 0.73036 0.09011 0.02023 0.0
H3016 H 0.75557 0.05795 0.96816 0.0
H3017 H 0.74753 0.10577 0.96055 0.0
H3018 H 0.71402 0.02652 0.98462 0.0
H3019 H 0.72619 0.04017 0.00688 0.0
H3020 H 0.73853 0.03457 0.98935 0.0
H3021 H 0.70171 0.0837 0.9731 0.0
H3022 H 0.7226 0.10748 0.97279 0.0
H3023 H 0.71525 0.09661 0.99505 0.0
C3024 C 0.62839 0.945 0.06351 0.0
C3025 C 0.64059 0.96513 0.06771 0.0
C3026 C 0.63239 0.93178 0.07139 0.0
C3027 C 0.64892 0.93893 0.08371 0.0
C3028 C 0.66118 0.95922 0.08805 0.0
C3029 C 0.65686 0.97202 0.08003 0.0
C3030 C 0.61899 0.91021 0.06652 0.0
C3031 C 0.67894 0.96745 0.10117 0.0
C3032 C 0.65411 0.90904 0.12028 0.0
C3033 C 0.66634 0.90418 0.1117 0.0
C3034 C 0.64755 0.9195 0.11089 0.0
C3035 C 0.65347 0.92539 0.0925 0.0
C3036 C 0.66536 0.92006 0.08349 0.0
C3037 C 0.67166 0.90951 0.09321 0.0
C3038 C 0.63499 0.925 0.12104 0.0
C3039 C 0.672 0.92613 0.0639 0.0
H3040 H 0.61584 0.9396 0.05395 0.0
H3041 H 0.66639 0.98756 0.08338 0.0
H3042 H 0.62653 0.90368 0.05967 0.0
H3043 H 0.61365 0.90301 0.07983 0.0
H3044 H 0.60677 0.907 0.05669 0.0
H3045 H 0.68703 0.98362 0.10298 0.0
H3046 H 0.67533 0.96201 0.11552 0.0
H3047 H 0.68819 0.96253 0.09536 0.0
H3048 H 0.65015 0.90526 0.13468 0.0
H3049 H 0.6809 0.90558 0.08639 0.0
H3050 H 0.62244 0.92119 0.11146 0.0
H3051 H 0.64278 0.94098 0.1248 0.0
H3052 H 0.63017 0.91767 0.1344 0.0
H3053 H 0.65983 0.92211 0.05363 0.0
H3054 H 0.67979 0.91936 0.05816 0.0
H3055 H 0.68144 0.94219 0.06474 0.0
C3056 C 0.01699 0.70147 0.09328 0.0
C3057 C 0.02495 0.69482 0.07978 0.0
C3058 C 0.02836 0.71873 0.10524 0.0
C3059 C 0.04804 0.72958 0.10343 0.0
C3060 C 0.05614 0.72273 0.08999 0.0
C3061 C 0.0445 0.70538 0.07842 0.0
C3062 C 0.01934 0.7255 0.11963 0.0
C3063 C 0.07708 0.73393 0.08756 0.0
C3064 C 0.07883 0.78374 0.11709 0.0
C3065 C 0.08944 0.78415 0.13323 0.0
C3066 C 0.06438 0.76598 0.10785 0.0
C3067 C 0.06038 0.74835 0.11515 0.0
C3068 C 0.07012 0.74882 0.13231 0.0
C3069 C 0.0847 0.76676 0.14107 0.0
C3070 C 0.05442 0.76607 0.08948 0.0
C3071 C 0.06601 0.73035 0.14073 0.0
H3072 H 0.00187 0.69329 0.0944 0.0
H3073 H 0.05073 0.70029 0.068 0.0
H3074 H 0.02626 0.72794 0.13419 0.0
H3075 H 0.02131 0.73961 0.11604 0.0
H3076 H 0.004 0.71485 0.11998 0.0
H3077 H 0.0811 0.72656 0.07647 0.0
H3078 H 0.08153 0.74869 0.08341 0.0
H3079 H 0.08504 0.73581 0.10134 0.0
H3080 H 0.08262 0.79724 0.11102 0.0
H3081 H 0.09285 0.76718 0.15369 0.0
H3082 H 0.03894 0.75629 0.08971 0.0
H3083 H 0.05896 0.76051 0.07719 0.0
H3084 H 0.05757 0.78089 0.08697 0.0
H3085 H 0.05058 0.72019 0.14097 0.0
H3086 H 0.07264 0.73329 0.15555 0.0
H3087 H 0.07153 0.72291 0.13166 0.0
C3088 C 0.31942 0.37654 0.04346 0.0
C3089 C 0.31815 0.36145 0.03122 0.0
C3090 C 0.30472 0.37302 0.05516 0.0
C3091 C 0.28828 0.35417 0.05401 0.0
C3092 C 0.28667 0.33919 0.04094 0.0
C3093 C 0.30177 0.34294 0.02995 0.0
C3094 C 0.30711 0.38919 0.0693 0.0
C3095 C 0.26916 0.31907 0.03885 0.0
C3096 C 0.25772 0.33586 0.0959 0.0
C3097 C 0.24291 0.33852 0.09057 0.0
C3098 C 0.27295 0.34159 0.08445 0.0
C3099 C 0.27306 0.34969 0.06704 0.0
C3100 C 0.25807 0.35237 0.06162 0.0
C3101 C 0.24325 0.34696 0.07361 0.0
C3102 C 0.28884 0.33881 0.09089 0.0
C3103 C 0.25742 0.36044 0.04292 0.0
H3104 H 0.3322 0.39079 0.04451 0.0
H3105 H 0.3008 0.33133 0.02033 0.0
H3106 H 0.29508 0.39137 0.06725 0.0
H3107 H 0.30717 0.38511 0.08413 0.0
H3108 H 0.32041 0.40318 0.0679 0.0
H3109 H 0.26953 0.30961 0.02685 0.0
H3110 H 0.26768 0.31201 0.05231 0.0
H3111 H 0.25643 0.32002 0.03632 0.0
H3112 H 0.25746 0.3295 0.10916 0.0
H3113 H 0.23169 0.34893 0.06954 0.0
H3114 H 0.30257 0.35269 0.09092 0.0
H3115 H 0.28927 0.32797 0.08069 0.0
H3116 H 0.2873 0.3337 0.10546 0.0
H3117 H 0.27041 0.37484 0.04215 0.0
H3118 H 0.24501 0.36208 0.04106 0.0
H3119 H 0.25686 0.35062 0.03074 0.0
C3120 C 0.72241 0.69647 0.38732 0.0
C3121 C 0.70273 0.68483 0.38713 0.0
C3122 C 0.73409 0.69334 0.39959 0.0
C3123 C 0.72587 0.67837 0.4121 0.0
C3124 C 0.70603 0.66713 0.41252 0.0
C3125 C 0.6947 0.67042 0.39995 0.0
C3126 C 0.7552 0.70553 0.39865 0.0
C3127 C 0.69672 0.65122 0.42583 0.0
C3128 C 0.75353 0.65545 0.42787 0.0
C3129 C 0.76117 0.6651 0.44618 0.0
C3130 C 0.74206 0.65968 0.41664 0.0
C3131 C 0.73795 0.67373 0.42399 0.0
C3132 C 0.74533 0.68325 0.44263 0.0
C3133 C 0.75699 0.67892 0.45346 0.0
C3134 C 0.73461 0.64934 0.39676 0.0
C3135 C 0.741 0.69807 0.45108 0.0
H3136 H 0.72868 0.70758 0.37739 0.0
H3137 H 0.67949 0.66145 0.39997 0.0
H3138 H 0.76218 0.71229 0.41315 0.0
H3139 H 0.76056 0.69611 0.39352 0.0
H3140 H 0.75941 0.71722 0.38888 0.0
H3141 H 0.68123 0.64483 0.42545 0.0
H3142 H 0.69945 0.63944 0.42171 0.0
H3143 H 0.7028 0.65697 0.44079 0.0
H3144 H 0.757 0.64498 0.42211 0.0
H3145 H 0.76285 0.68634 0.46765 0.0
H3146 H 0.73956 0.66014 0.38596 0.0
H3147 H 0.71897 0.64133 0.39555 0.0
H3148 H 0.73918 0.63887 0.39315 0.0
H3149 H 0.7463 0.71045 0.44207 0.0
H3150 H 0.74746 0.7038 0.46596 0.0
H3151 H 0.72552 0.69146 0.4512 0.0
C3152 C 0.32064 0.02158 0.42877 0.0
C3153 C 0.32859 0.01014 0.43127 0.0
C3154 C 0.32785 0.03954 0.43948 0.0
C3155 C 0.34325 0.04614 0.45325 0.0
C3156 C 0.35097 0.03439 0.45633 0.0
C3157 C 0.34361 0.01652 0.44517 0.0
C3158 C 0.31925 0.05167 0.43568 0.0
C3159 C 0.36716 0.04084 0.47115 0.0
C3160 C 0.36976 0.10087 0.46335 0.0
C3161 C 0.36028 0.10288 0.47862 0.0
C3162 C 0.36536 0.08236 0.45575 0.0
C3163 C 0.35135 0.06564 0.46387 0.0
C3164 C 0.343 0.0678 0.48039 0.0
C3165 C 0.34742 0.08644 0.48746 0.0
C3166 C 0.37448 0.08066 0.43804 0.0
C3167 C 0.32832 0.05038 0.48971 0.0
H3168 H 0.30902 0.01673 0.41805 0.0
H3169 H 0.34974 0.00766 0.44718 0.0
H3170 H 0.31407 0.05475 0.44905 0.0
H3171 H 0.3301 0.06587 0.43095 0.0
H3172 H 0.3073 0.04437 0.42449 0.0
H3173 H 0.37057 0.02937 0.47283 0.0
H3174 H 0.37989 0.05402 0.46695 0.0
H3175 H 0.36377 0.04483 0.48525 0.0
H3176 H 0.37966 0.11365 0.45653 0.0
H3177 H 0.34027 0.08813 0.49942 0.0
H3178 H 0.364 0.07503 0.42547 0.0
H3179 H 0.37919 0.07019 0.43953 0.0
H3180 H 0.38677 0.0949 0.43508 0.0
H3181 H 0.3148 0.04322 0.48071 0.0
H3182 H 0.32584 0.05457 0.50424 0.0
H3183 H 0.3326 0.03952 0.49089 0.0
C3184 C 0.9846 0.28987 0.37394 0.0
C3185 C 0.00099 0.30552 0.3836 0.0
C3186 C 0.96821 0.27924 0.38354 0.0
C3187 C 0.96852 0.28395 0.40341 0.0
C3188 C 0.98524 0.29946 0.41333 0.0
C3189 C 0.00121 0.31035 0.40318 0.0
C3190 C 0.95047 0.26325 0.37234 0.0
C3191 C 0.98629 0.30445 0.43466 0.0
C3192 C 0.92272 0.26839 0.42661 0.0
C3193 C 0.9189 0.25102 0.434 0.0
C3194 C 0.9386 0.27904 0.41627 0.0
C3195 C 0.95135 0.27256 0.41382 0.0
C3196 C 0.94769 0.25513 0.42126 0.0
C3197 C 0.93134 0.24438 0.43087 0.0
C3198 C 0.94177 0.29729 0.40804 0.0
C3199 C 0.96117 0.24796 0.41929 0.0
H3200 H 0.98443 0.28633 0.35871 0.0
H3201 H 0.01398 0.32243 0.4106 0.0
H3202 H 0.94588 0.2491 0.37813 0.0
H3203 H 0.9389 0.26618 0.37388 0.0
H3204 H 0.95245 0.26187 0.35683 0.0
H3205 H 0.0006 0.31636 0.44034 0.0
H3206 H 0.97607 0.30897 0.4379 0.0
H3207 H 0.98237 0.29141 0.44237 0.0
H3208 H 0.91348 0.27392 0.42914 0.0
H3209 H 0.92837 0.23075 0.43599 0.0
H3210 H 0.94359 0.29644 0.39245 0.0
H3211 H 0.9549 0.31013 0.41492 0.0
H3212 H 0.92991 0.29967 0.41015 0.0
H3213 H 0.96226 0.24476 0.40392 0.0
H3214 H 0.95671 0.23461 0.42669 0.0
H3215 H 0.97549 0.25945 0.42536 0.0
C3216 C 0.02534 0.37232 0.32725 0.0
C3217 C 0.0429 0.37453 0.33189 0.0
C3218 C 0.02399 0.38682 0.31872 0.0
C3219 C 0.04061 0.40378 0.31425 0.0
C3220 C 0.05845 0.40619 0.319 0.0
C3221 C 0.0594 0.39159 0.32804 0.0
C3222 C 0.00471 0.38384 0.31427 0.0
C3223 C 0.07643 0.42389 0.31406 0.0
C3224 C 0.03069 0.42716 0.27406 0.0
C3225 C 0.02955 0.44197 0.28424 0.0
C3226 C 0.03559 0.41546 0.28357 0.0
C3227 C 0.03897 0.41837 0.3038 0.0
C3228 C 0.0385 0.43382 0.31406 0.0
C3229 C 0.03396 0.4456 0.30408 0.0
C3230 C 0.03626 0.39938 0.27206 0.0
C3231 C 0.04168 0.43715 0.33565 0.0
H3232 H 0.01255 0.35925 0.33046 0.0
H3233 H 0.07298 0.39326 0.3316 0.0
H3234 H 0.00418 0.3965 0.3206 0.0
H3235 H 0.00183 0.38276 0.29853 0.0
H3236 H 0.9933 0.37045 0.31985 0.0
H3237 H 0.08918 0.42395 0.31939 0.0
H3238 H 0.07645 0.42434 0.29825 0.0
H3239 H 0.07728 0.43736 0.32022 0.0
H3240 H 0.02743 0.42457 0.25864 0.0
H3241 H 0.03303 0.4571 0.31186 0.0
H3242 H 0.02415 0.38507 0.27504 0.0
H3243 H 0.04934 0.39957 0.27628 0.0
H3244 H 0.03566 0.40063 0.25638 0.0
H3245 H 0.02977 0.42488 0.34207 0.0
H3246 H 0.04275 0.45091 0.34125 0.0
H3247 H 0.05472 0.43757 0.34048 0.0
C3248 C 0.62848 0.63955 0.30541 0.0
C3249 C 0.64676 0.64527 0.31237 0.0
C3250 C 0.61704 0.62171 0.29448 0.0
C3251 C 0.62395 0.60914 0.29081 0.0
C3252 C 0.64284 0.6154 0.29675 0.0
C3253 C 0.65413 0.63356 0.30736 0.0
C3254 C 0.59711 0.61576 0.28803 0.0
C3255 C 0.65066 0.60236 0.2932 0.0
C3256 C 0.58467 0.55651 0.28896 0.0
C3257 C 0.58073 0.55141 0.2692 0.0
C3258 C 0.5996 0.57492 0.29617 0.0
C3259 C 0.61055 0.58863 0.28323 0.0
C3260 C 0.60714 0.58318 0.26322 0.0
C3261 C 0.59224 0.56448 0.2564 0.0
C3262 C 0.60294 0.58005 0.31762 0.0
C3263 C 0.6184 0.59743 0.24901 0.0
H3264 H 0.62287 0.64874 0.30908 0.0
H3265 H 0.66828 0.63798 0.31277 0.0
H3266 H 0.59378 0.60985 0.27274 0.0
H3267 H 0.58707 0.60408 0.29658 0.0
H3268 H 0.59476 0.62812 0.28982 0.0
H3269 H 0.66625 0.61043 0.29595 0.0
H3270 H 0.64441 0.59049 0.30284 0.0
H3271 H 0.64686 0.59548 0.27823 0.0
H3272 H 0.57566 0.54625 0.29874 0.0
H3273 H 0.58896 0.56043 0.24109 0.0
H3274 H 0.59902 0.59096 0.32163 0.0
H3275 H 0.61809 0.58666 0.32221 0.0
H3276 H 0.59455 0.56714 0.32567 0.0
H3277 H 0.61433 0.60852 0.24864 0.0
H3278 H 0.61591 0.59016 0.23429 0.0
H3279 H 0.6337 0.60523 0.25339 0.0
C3280 C 0.35006 0.97574 0.35074 0.0
C3281 C 0.34287 0.96246 0.3647 0.0
C3282 C 0.36368 0.97652 0.33894 0.0
C3283 C 0.37041 0.9638 0.34123 0.0
C3284 C 0.36294 0.95006 0.35502 0.0
C3285 C 0.34916 0.94949 0.36657 0.0
C3286 C 0.37116 0.99127 0.32428 0.0
C3287 C 0.36983 0.93631 0.35789 0.0
C3288 C 0.39598 0.95808 0.29974 0.0
C3289 C 0.41489 0.9716 0.30593 0.0
C3290 C 0.38136 0.95486 0.31137 0.0
C3291 C 0.38575 0.96548 0.32958 0.0
C3292 C 0.40483 0.97876 0.33612 0.0
C3293 C 0.41916 0.98164 0.32423 0.0
C3294 C 0.36119 0.94061 0.30388 0.0
C3295 C 0.41008 0.99034 0.35548 0.0
H3296 H 0.34516 0.98572 0.34912 0.0
H3297 H 0.34367 0.93922 0.37736 0.0
H3298 H 0.38646 0.00176 0.32772 0.0
H3299 H 0.3695 0.9839 0.3098 0.0
H3300 H 0.36386 -0.00047 0.32375 0.0
H3301 H 0.36199 0.9259 0.36859 0.0
H3302 H 0.36839 0.92794 0.34409 0.0
H3303 H 0.38503 0.94474 0.36282 0.0
H3304 H 0.39254 0.95041 0.28554 0.0
H3305 H 0.43375 0.99186 0.32924 0.0
H3306 H 0.35375 0.94854 0.30165 0.0
H3307 H 0.35365 0.93005 0.31452 0.0
H3308 H 0.36021 0.93244 0.29009 0.0
H3309 H 0.40453 0.00024 0.35576 0.0
H3310 H 0.42559 0.99921 0.3589 0.0
H3311 H 0.40358 0.98045 0.3669 0.0
C3312 C 0.60705 0.95938 0.34279 0.0
C3313 C 0.62639 0.97308 0.34282 0.0
C3314 C 0.59391 0.96012 0.3303 0.0
C3315 C 0.6003 0.97488 0.31753 0.0
C3316 C 0.61986 0.98831 0.31705 0.0
C3317 C 0.63265 0.98727 0.3297 0.0
C3318 C 0.57316 0.94552 0.33121 0.0
C3319 C 0.62725 0.00422 0.3036 0.0
C3320 C 0.5674 0.96997 0.2756 0.0
C3321 C 0.56098 0.98201 0.28267 0.0
C3322 C 0.58018 0.96744 0.28679 0.0
C3323 C 0.58654 0.97707 0.30552 0.0
C3324 C 0.58002 0.98917 0.31273 0.0
C3325 C 0.56737 0.99152 0.30121 0.0
C3326 C 0.58694 0.95455 0.27855 0.0
C3327 C 0.58636 -0.00041 0.33267 0.0
H3328 H 0.60212 0.94837 0.35287 0.0
H3329 H 0.64759 0.99786 0.32956 0.0
H3330 H 0.56594 0.95313 0.33628 0.0
H3331 H 0.56663 0.93825 0.31671 0.0
H3332 H 0.57056 0.93421 0.34101 0.0
H3333 H 0.6429 0.01269 0.30409 0.0
H3334 H 0.62161 0.99791 0.28865 0.0
H3335 H 0.62238 0.01437 0.30748 0.0
H3336 H 0.56255 0.96266 0.26124 0.0
H3337 H 0.56217 0.00055 0.30686 0.0
H3338 H 0.58351 0.9427 0.28789 0.0
H3339 H 0.6025 0.96312 0.27812 0.0
H3340 H 0.58051 0.94796 0.26382 0.0
H3341 H 0.58276 0.98889 0.34343 0.0
H3342 H 0.57978 0.00826 0.33622 0.0
H3343 H 0.60191 0.00949 0.33403 0.0
C3344 C 0.02838 0.65665 0.30608 0.0
C3345 C 0.0152 0.66251 0.30641 0.0
C3346 C 0.02481 0.64015 0.29449 0.0
C3347 C 0.00753 0.62912 0.28312 0.0
C3348 C 0.99444 0.63535 0.28285 0.0
C3349 C 0.99849 0.65209 0.29447 0.0
C3350 C 0.03924 0.63411 0.29496 0.0
C3351 C 0.97584 0.62388 0.27098 0.0
C3352 C 0.00555 0.59236 0.24514 0.0
C3353 C 0.99805 0.57559 0.25503 0.0
C3354 C 0.00804 0.60978 0.25379 0.0
C3355 C 0.00274 0.61035 0.2727 0.0
C3356 C 0.99428 0.59323 0.28238 0.0
C3357 C 0.99214 0.5761 0.27348 0.0
C3358 C 0.01714 0.62777 0.24305 0.0
C3359 C 0.98832 0.59324 0.30254 0.0
H3360 H 0.04139 0.66477 0.31518 0.0
H3361 H 0.98827 0.6566 0.2947 0.0
H3362 H 0.03339 0.62006 0.30139 0.0
H3363 H 0.0426 0.63186 0.28017 0.0
H3364 H 0.05254 0.64507 0.30342 0.0
H3365 H 0.96799 0.6316 0.27099 0.0
H3366 H 0.9781 0.62088 0.25594 0.0
H3367 H 0.96695 0.60961 0.27676 0.0
H3368 H 0.00984 0.59198 0.23074 0.0
H3369 H 0.98657 0.5633 0.28134 0.0
H3370 H 0.0313 0.63846 0.2501 0.0
H3371 H 0.00869 0.63482 0.24343 0.0
H3372 H 0.01877 0.62447 0.22784 0.0
H3373 H 0.00097 0.6023 0.31262 0.0
H3374 H 0.98036 0.57835 0.30734 0.0
H3375 H 0.97939 0.59972 0.30347 0.0
C3376 C 0.34604 0.38252 0.35027 0.0
C3377 C 0.33715 0.36219 0.34894 0.0
C3378 C 0.36178 0.39372 0.33992 0.0
C3379 C 0.36883 0.38433 0.32819 0.0
C3380 C 0.35979 0.3638 0.32669 0.0
C3381 C 0.34399 0.35298 0.337 0.0
C3382 C 0.37093 0.41558 0.34163 0.0
C3383 C 0.36699 0.35328 0.31442 0.0
C3384 C 0.39957 0.40981 0.28815 0.0
C3385 C 0.41767 0.41628 0.29648 0.0
C3386 C 0.38358 0.39975 0.29845 0.0
C3387 C 0.38573 0.39591 0.31749 0.0
C3388 C 0.40394 0.40245 0.32604 0.0
C3389 C 0.41972 0.41261 0.31543 0.0
C3390 C 0.36438 0.39299 0.28886 0.0
C3391 C 0.40673 0.3985 0.34629 0.0
H3392 H 0.34074 0.38967 0.35944 0.0
H3393 H 0.3372 0.33726 0.33597 0.0
H3394 H 0.38577 0.42257 0.34758 0.0
H3395 H 0.37123 0.42068 0.32722 0.0
H3396 H 0.36344 0.42058 0.35099 0.0
H3397 H 0.35829 0.33724 0.31477 0.0
H3398 H 0.36709 0.35673 0.29932 0.0
H3399 H 0.38173 0.3583 0.31944 0.0
H3400 H 0.39785 0.41231 0.2734 0.0
H3401 H 0.43368 0.41778 0.32202 0.0
H3402 H 0.35696 0.39846 0.29772 0.0
H3403 H 0.35565 0.37686 0.28761 0.0
H3404 H 0.36523 0.39799 0.2743 0.0
H3405 H 0.40063 0.40456 0.35637 0.0
H3406 H 0.42186 0.4049 0.35096 0.0
H3407 H 0.3992 0.38257 0.34739 0.0
C3408 C 0.29633 0.29099 0.42121 0.0
C3409 C 0.30007 0.29533 0.40227 0.0
C3410 C 0.30148 0.2789 0.42965 0.0
C3411 C 0.3109 0.27144 0.41891 0.0
C3412 C 0.31425 0.27549 0.39957 0.0
C3413 C 0.30871 0.28738 0.39146 0.0
C3414 C 0.29749 0.27471 0.45023 0.0
C3415 C 0.32446 0.26804 0.38773 0.0
C3416 C 0.34348 0.25997 0.44644 0.0
C3417 C 0.33242 0.23965 0.44609 0.0
C3418 C 0.33664 0.27048 0.4376 0.0
C3419 C 0.31829 0.2604 0.4282 0.0
C3420 C 0.30715 0.23987 0.42757 0.0
C3421 C 0.31435 0.22973 0.43652 0.0
C3422 C 0.34898 0.29238 0.43853 0.0
C3423 C 0.28756 0.22865 0.41759 0.0
H3424 H 0.28985 0.29747 0.42954 0.0
H3425 H 0.31183 0.29113 0.37687 0.0
H3426 H 0.29012 0.25881 0.45146 0.0
H3427 H 0.31098 0.28159 0.45926 0.0
H3428 H 0.28873 0.28028 0.45606 0.0
H3429 H 0.3249 0.2715 0.37258 0.0
H3430 H 0.33915 0.27465 0.39401 0.0
H3431 H 0.31755 0.25204 0.38794 0.0
H3432 H 0.35733 0.26773 0.45407 0.0
H3433 H 0.30582 0.214 0.43605 0.0
H3434 H 0.34195 0.29917 0.44601 0.0
H3435 H 0.3511 0.29714 0.42381 0.0
H3436 H 0.36301 0.29796 0.44615 0.0
H3437 H 0.2786 0.23356 0.42417 0.0
H3438 H 0.28072 0.2127 0.41839 0.0
H3439 H 0.28816 0.23155 0.40228 0.0
C3440 C 0.68079 0.02887 0.42496 0.0
C3441 C 0.68884 0.02171 0.41211 0.0
C3442 C 0.69212 0.04661 0.43632 0.0
C3443 C 0.71182 0.05742 0.43448 0.0
C3444 C 0.71996 0.0501 0.42163 0.0
C3445 C 0.7084 0.03231 0.41074 0.0
C3446 C 0.68307 0.05386 0.45014 0.0
C3447 C 0.74089 0.06122 0.41912 0.0
C3448 C 0.74353 0.11181 0.44561 0.0
C3449 C 0.75454 0.11268 0.46161 0.0
C3450 C 0.72845 0.09387 0.43738 0.0
C3451 C 0.72422 0.07657 0.4456 0.0
C3452 C 0.73432 0.07766 0.46277 0.0
C3453 C 0.74956 0.09573 0.47045 0.0
C3454 C 0.71818 0.09331 0.41896 0.0
C3455 C 0.73 0.05962 0.4722 0.0
H3456 H 0.66568 0.02067 0.4261 0.0
H3457 H 0.71472 0.02687 0.40081 0.0
H3458 H 0.69001 0.05686 0.46479 0.0
H3459 H 0.68501 0.06777 0.4459 0.0
H3460 H 0.66774 0.04325 0.45061 0.0
H3461 H 0.74491 0.05356 0.40835 0.0
H3462 H 0.74532 0.07581 0.4145 0.0
H3463 H 0.74889 0.06347 0.43299 0.0
H3464 H 0.7475 0.12499 0.43881 0.0
H3465 H 0.75804 0.09655 0.48298 0.0
H3466 H 0.70273 0.08357 0.41947 0.0
H3467 H 0.72257 0.08739 0.40684 0.0
H3468 H 0.72127 0.10801 0.41596 0.0
H3469 H 0.71456 0.04962 0.47252 0.0
H3470 H 0.73661 0.06319 0.4871 0.0
H3471 H 0.73548 0.05172 0.46379 0.0
C3472 C 0.98605 0.69553 0.38805 0.0
C3473 C 0.98757 0.70144 0.3695 0.0
C3474 C 0.97052 0.69184 0.39835 0.0
C3475 C 0.95581 0.69333 0.38953 0.0
C3476 C 0.95738 0.69948 0.37081 0.0
C3477 C 0.97347 0.70382 0.36112 0.0
C3478 C 0.9697 0.68598 0.41853 0.0
C3479 C 0.94171 0.70058 0.36069 0.0
C3480 C 0.90856 0.6625 0.41018 0.0
C3481 C 0.9072 0.67646 0.42189 0.0
C3482 C 0.92387 0.66794 0.39887 0.0
C3483 C 0.93854 0.68772 0.39974 0.0
C3484 C 0.93718 0.70192 0.41124 0.0
C3485 C 0.92138 0.69618 0.42187 0.0
C3486 C 0.92459 0.6524 0.38637 0.0
C3487 C 0.95272 0.72311 0.41288 0.0
H3488 H 0.99704 0.69375 0.39449 0.0
H3489 H 0.9746 0.70813 0.34663 0.0
H3490 H 0.96679 0.69524 0.42844 0.0
H3491 H 0.95802 0.6707 0.41899 0.0
H3492 H 0.98304 0.6872 0.42388 0.0
H3493 H 0.94545 0.70638 0.34647 0.0
H3494 H 0.92882 0.68584 0.35858 0.0
H3495 H 0.93815 0.70995 0.36957 0.0
H3496 H 0.89794 0.64721 0.41018 0.0
H3497 H 0.92031 0.70721 0.43036 0.0
H3498 H 0.93611 0.65058 0.39211 0.0
H3499 H 0.92768 0.65679 0.37159 0.0
H3500 H 0.91115 0.63811 0.38565 0.0
H3501 H 0.96598 0.7247 0.419 0.0
H3502 H 0.94932 0.73242 0.42212 0.0
H3503 H 0.95546 0.72858 0.39848 0.0
C3504 C 0.39548 0.03919 0.71981 0.0
C3505 C 0.37601 0.02727 0.72126 0.0
C3506 C 0.40842 0.03854 0.73268 0.0
C3507 C 0.4017 0.02585 0.74745 0.0
C3508 C 0.38209 0.01441 0.74945 0.0
C3509 C 0.36948 0.01518 0.73627 0.0
C3510 C 0.42923 0.05086 0.73001 0.0
C3511 C 0.37437 0.00088 0.76514 0.0
C3512 C 0.43172 0.00678 0.76654 0.0
C3513 C 0.44013 0.01865 0.78375 0.0
C3514 C 0.41929 0.00907 0.75459 0.0
C3515 C 0.41505 0.02352 0.76002 0.0
C3516 C 0.42338 0.03547 0.77745 0.0
C3517 C 0.43592 0.03296 0.78907 0.0
C3518 C 0.41081 0.99613 0.73605 0.0
C3519 C 0.41905 0.05088 0.7838 0.0
H3520 H 0.40059 0.04854 0.70822 0.0
H3521 H 0.35445 0.00604 0.73756 0.0
H3522 H 0.43705 0.05964 0.74361 0.0
H3523 H 0.43477 0.04129 0.72613 0.0
H3524 H 0.43223 0.06084 0.71859 0.0
H3525 H 0.35889 0.99418 0.76569 0.0
H3526 H 0.3774 0.98907 0.76277 0.0
H3527 H 0.38136 0.00885 0.7793 0.0
H3528 H 0.43522 0.99595 0.76219 0.0
H3529 H 0.44235 0.04211 0.8024 0.0
H3530 H 0.41456 0.00515 0.72374 0.0
H3531 H 0.39521 0.98771 0.73596 0.0
H3532 H 0.41572 0.98574 0.73383 0.0
H3533 H 0.42304 0.06149 0.77288 0.0
H3534 H 0.42661 0.05889 0.7978 0.0
H3535 H 0.40367 0.0441 0.78508 0.0
C3536 C 0.97386 0.3394 0.76917 0.0
C3537 C 0.9883 0.33662 0.76333 0.0
C3538 C 0.978 0.35629 0.78043 0.0
C3539 C 0.99707 0.37094 0.78544 0.0
C3540 C 0.01165 0.36766 0.78054 0.0
C3541 C 0.00705 0.35034 0.76969 0.0
C3542 C 0.96201 0.35901 0.78582 0.0
C3543 C 0.03214 0.38304 0.78542 0.0
C3544 C 0.00455 0.42139 0.78774 0.0
C3545 C 0.00582 0.42596 0.8075 0.0
C3546 C 0.00265 0.40387 0.78044 0.0
C3547 C 0.00162 0.39052 0.79329 0.0
C3548 C 0.00344 0.39538 0.81335 0.0
C3549 C 0.00564 0.41321 0.82025 0.0
C3550 C 0.00099 0.39933 0.75895 0.0
C3551 C 0.00215 0.3814 0.82744 0.0
H3552 H 0.95934 0.32863 0.76443 0.0
H3553 H 0.0182 0.34815 0.76509 0.0
H3554 H 0.96402 0.36455 0.80114 0.0
H3555 H 0.96181 0.36995 0.77715 0.0
H3556 H 0.9481 0.34524 0.78329 0.0
H3557 H 0.04154 0.37724 0.78308 0.0
H3558 H 0.03624 0.39516 0.77624 0.0
H3559 H 0.03449 0.38922 0.80056 0.0
H3560 H 0.0047 0.43141 0.77801 0.0
H3561 H 0.00651 0.41689 0.83557 0.0
H3562 H 0.98659 0.38699 0.75427 0.0
H3563 H 0.01107 0.39486 0.75484 0.0
H3564 H 0.00373 0.41197 0.75106 0.0
H3565 H 0.98758 0.36855 0.82637 0.0
H3566 H 0.00575 0.38817 0.84247 0.0
H3567 H 0.01169 0.37604 0.82399 0.0
C3568 C 0.65161 0.64619 0.71879 0.0
C3569 C 0.6632 0.63885 0.71442 0.0
C3570 C 0.63557 0.63562 0.72889 0.0
C3571 C 0.63148 0.61765 0.73536 0.0
C3572 C 0.64342 0.61039 0.73133 0.0
C3573 C 0.65899 0.62094 0.72054 0.0
C3574 C 0.62287 0.64356 0.73239 0.0
C3575 C 0.63985 0.59161 0.73857 0.0
C3576 C 0.59975 0.60085 0.77653 0.0
C3577 C 0.58256 0.58646 0.76701 0.0
C3578 C 0.61594 0.61079 0.76646 0.0
C3579 C 0.61468 0.60653 0.74635 0.0
C3580 C 0.59724 0.59206 0.73668 0.0
C3581 C 0.5814 0.58198 0.74721 0.0
C3582 C 0.63437 0.62577 0.77734 0.0
C3583 C 0.59526 0.58747 0.71519 0.0
H3584 H 0.65482 0.65998 0.71386 0.0
H3585 H 0.66807 0.61538 0.71721 0.0
H3586 H 0.60828 0.63273 0.72645 0.0
H3587 H 0.62232 0.64619 0.74802 0.0
H3588 H 0.62769 0.65739 0.72578 0.0
H3589 H 0.6509 0.58839 0.73484 0.0
H3590 H 0.63933 0.59239 0.75439 0.0
H3591 H 0.62598 0.57932 0.7324 0.0
H3592 H 0.60056 0.60405 0.79193 0.0
H3593 H 0.56802 0.57079 0.73997 0.0
H3594 H 0.63927 0.64035 0.77242 0.0
H3595 H 0.64537 0.62226 0.77441 0.0
H3596 H 0.63315 0.62659 0.79308 0.0
H3597 H 0.59924 0.60079 0.70796 0.0
H3598 H 0.58067 0.57596 0.70986 0.0
H3599 H 0.605 0.58259 0.71094 0.0
C3600 C 0.68901 0.69659 0.64208 0.0
C3601 C 0.70262 0.70287 0.65752 0.0
C3602 C 0.68484 0.70954 0.63407 0.0
C3603 C 0.69438 0.72921 0.64182 0.0
C3604 C 0.70872 0.73585 0.65686 0.0
C3605 C 0.71277 0.72259 0.66448 0.0
C3606 C 0.66965 0.70195 0.61784 0.0
C3607 C 0.71914 0.75672 0.66551 0.0
C3608 C 0.69014 0.76449 0.61178 0.0
C3609 C 0.67495 0.76483 0.61954 0.0
C3610 C 0.69699 0.75338 0.61922 0.0
C3611 C 0.68849 0.74244 0.63485 0.0
C3612 C 0.6735 0.74317 0.6431 0.0
C3613 C 0.66684 0.75429 0.63527 0.0
C3614 C 0.71282 0.75277 0.6099 0.0
C3615 C 0.66417 0.7318 0.65988 0.0
H3616 H 0.68121 0.68137 0.63658 0.0
H3617 H 0.72323 0.72748 0.67648 0.0
H3618 H 0.65743 0.7026 0.62279 0.0
H3619 H 0.67493 0.71118 0.60573 0.0
H3620 H 0.66465 0.68667 0.61246 0.0
H3621 H 0.73089 0.75993 0.67605 0.0
H3622 H 0.72493 0.7668 0.65411 0.0
H3623 H 0.70921 0.75977 0.67287 0.0
H3624 H 0.69626 0.77239 0.59942 0.0
H3625 H 0.65518 0.75465 0.64135 0.0
H3626 H 0.70758 0.73787 0.60315 0.0
H3627 H 0.72433 0.75623 0.62084 0.0
H3628 H 0.71875 0.76314 0.59872 0.0
H3629 H 0.65707 0.71598 0.65549 0.0
H3630 H 0.65353 0.73492 0.66539 0.0
H3631 H 0.67492 0.73527 0.67174 0.0
C3632 C 0.32236 0.96981 0.64002 0.0
C3633 C 0.31398 0.97749 0.65176 0.0
C3634 C 0.3113 0.9517 0.6292 0.0
C3635 C 0.29151 0.94108 0.6304 0.0
C3636 C 0.28301 0.94899 0.64198 0.0
C3637 C 0.29433 0.96713 0.6524 0.0
C3638 C 0.32075 0.94381 0.61674 0.0
C3639 C 0.26195 0.93811 0.64373 0.0
C3640 C 0.25485 0.90101 0.59493 0.0
C3641 C 0.24957 0.88468 0.60497 0.0
C3642 C 0.26987 0.91941 0.60217 0.0
C3643 C 0.27941 0.92145 0.62008 0.0
C3644 C 0.27491 0.90471 0.62957 0.0
C3645 C 0.26006 0.88643 0.62178 0.0
C3646 C 0.27448 0.93681 0.59142 0.0
C3647 C 0.28461 0.9063 0.64878 0.0
H3648 H 0.33755 0.97782 0.63946 0.0
H3649 H 0.28775 0.97299 0.66143 0.0
H3650 H 0.31888 0.93036 0.62224 0.0
H3651 H 0.31407 0.93981 0.60188 0.0
H3652 H 0.33608 0.95444 0.61633 0.0
H3653 H 0.25761 0.94634 0.65337 0.0
H3654 H 0.25441 0.93509 0.6294 0.0
H3655 H 0.2573 0.92389 0.6494 0.0
H3656 H 0.2467 0.89949 0.58182 0.0
H3657 H 0.25582 0.8737 0.62949 0.0
H3658 H 0.28997 0.94681 0.5915 0.0
H3659 H 0.26866 0.94502 0.59858 0.0
H3660 H 0.2684 0.93244 0.5763 0.0
H3661 H 0.30011 0.91593 0.64861 0.0
H3662 H 0.28135 0.89187 0.65294 0.0
H3663 H 0.27989 0.9129 0.65994 0.0
C3664 C 0.02181 0.29072 0.69673 0.0
C3665 C 0.0125 0.30087 0.6943 0.0
C3666 C 0.03742 0.29472 0.68632 0.0
C3667 C 0.04363 0.30898 0.67301 0.0
C3668 C 0.03386 0.31878 0.67007 0.0
C3669 C 0.0185 0.31469 0.68084 0.0
C3670 C 0.04759 0.28409 0.68992 0.0
C3671 C 0.03984 0.33386 0.65581 0.0
C3672 C 0.09433 0.33482 0.65933 0.0
C3673 C 0.09251 0.32493 0.64146 0.0
C3674 C 0.07858 0.3295 0.66995 0.0
C3675 C 0.06058 0.31404 0.66241 0.0
C3676 C 0.05868 0.30396 0.6444 0.0
C3677 C 0.07468 0.3095 0.63417 0.0
C3678 C 0.08118 0.34052 0.68916 0.0
C3679 C 0.0397 0.28759 0.63576 0.0
H3680 H 0.01727 0.2801 0.7072 0.0
H3681 H 0.01128 0.3225 0.67882 0.0
H3682 H 0.04823 0.27676 0.67627 0.0
H3683 H 0.06233 0.29466 0.6956 0.0
H3684 H 0.04066 0.27301 0.70031 0.0
H3685 H 0.03019 0.33948 0.65458 0.0
H3686 H 0.05427 0.3463 0.66021 0.0
H3687 H 0.04031 0.32758 0.64144 0.0
H3688 H 0.10812 0.34663 0.66509 0.0
H3689 H 0.07318 0.30198 0.62023 0.0
H3690 H 0.07562 0.33027 0.70044 0.0
H3691 H 0.07305 0.3479 0.68873 0.0
H3692 H 0.09621 0.35165 0.69333 0.0
H3693 H 0.03311 0.27614 0.64581 0.0
H3694 H 0.04071 0.28087 0.62187 0.0
H3695 H 0.03013 0.29315 0.63337 0.0
C3696 C 0.30658 0.33061 0.6675 0.0
C3697 C 0.29906 0.31459 0.67847 0.0
C3698 C 0.29486 0.33383 0.65544 0.0
C3699 C 0.27512 0.32066 0.65424 0.0
C3700 C 0.26748 0.3041 0.66479 0.0
C3701 C 0.27955 0.30127 0.67682 0.0
C3702 C 0.30356 0.35168 0.64447 0.0
C3703 C 0.24651 0.28967 0.66378 0.0
C3704 C 0.24411 0.34045 0.64056 0.0
C3705 C 0.23918 0.3338 0.62104 0.0
C3706 C 0.25571 0.33618 0.65151 0.0
C3707 C 0.26247 0.32486 0.64279 0.0
C3708 C 0.25748 0.31802 0.62313 0.0
C3709 C 0.24592 0.3226 0.61247 0.0
C3710 C 0.26074 0.3438 0.67244 0.0
C3711 C 0.26442 0.30591 0.61334 0.0
H3712 H 0.32165 0.34097 0.66864 0.0
H3713 H 0.27366 0.28885 0.68522 0.0
H3714 H 0.29899 0.3475 0.62898 0.0
H3715 H 0.29864 0.36149 0.6496 0.0
H3716 H 0.31921 0.35991 0.64616 0.0
H3717 H 0.24292 0.27691 0.67185 0.0
H3718 H 0.23924 0.29689 0.66979 0.0
H3719 H 0.24089 0.28444 0.64863 0.0
H3720 H 0.23864 0.34875 0.6474 0.0
H3721 H 0.24228 0.31753 0.59737 0.0
H3722 H 0.27627 0.35321 0.67516 0.0
H3723 H 0.25598 0.3315 0.68149 0.0
H3724 H 0.25428 0.35234 0.67705 0.0
H3725 H 0.28005 0.31433 0.61399 0.0
H3726 H 0.2589 0.30132 0.59807 0.0
H3727 H 0.26009 0.29272 0.62093 0.0
C3728 C 0.67296 0.97399 0.6463 0.0
C3729 C 0.67343 0.98976 0.6385 0.0
C3730 C 0.66697 0.95661 0.63494 0.0
C3731 C 0.66201 0.95529 0.61514 0.0
C3732 C 0.66239 0.97119 0.60718 0.0
C3733 C 0.66779 0.98821 0.6191 0.0
C3734 C 0.66625 0.93979 0.64411 0.0
C3735 C 0.65782 0.97051 0.58601 0.0
C3736 C 0.66869 0.91785 0.58749 0.0
C3737 C 0.65018 0.90167 0.58496 0.0
C3738 C 0.67252 0.93584 0.59596 0.0
C3739 C 0.6576 0.93759 0.60279 0.0
C3740 C 0.63883 0.92164 0.59973 0.0
C3741 C 0.63531 0.90396 0.59055 0.0
C3742 C 0.69271 0.95267 0.59855 0.0
C3743 C 0.62258 0.92284 0.60716 0.0
H3744 H 0.67715 0.9752 0.66139 0.0
H3745 H 0.6683 0.00054 0.61313 0.0
H3746 H 0.65226 0.92634 0.64059 0.0
H3747 H 0.677 0.93703 0.63835 0.0
H3748 H 0.6689 0.94261 0.65996 0.0
H3749 H 0.65771 0.98365 0.58229 0.0
H3750 H 0.66845 0.9694 0.57776 0.0
H3751 H 0.64388 0.95743 0.58134 0.0
H3752 H 0.68042 0.91637 0.58364 0.0
H3753 H 0.6209 0.89181 0.58825 0.0
H3754 H 0.69789 0.95523 0.61388 0.0
H3755 H 0.69371 0.96622 0.59442 0.0
H3756 H 0.70218 0.94989 0.58991 0.0
H3757 H 0.6238 0.92409 0.62308 0.0
H3758 H 0.60869 0.90984 0.60201 0.0
H3759 H 0.623 0.93602 0.60273 0.0
C3760 C 0.01748 0.71285 0.69173 0.0
C3761 C 0.00119 0.69721 0.68193 0.0
C3762 C 0.03405 0.72335 0.68234 0.0
C3763 C 0.034 0.71854 0.66254 0.0
C3764 C 0.01731 0.70315 0.65245 0.0
C3765 C 0.00118 0.69237 0.6624 0.0
C3766 C 0.05174 0.73917 0.69373 0.0
C3767 C 0.01651 0.69808 0.63118 0.0
C3768 C 0.0722 0.75705 0.63499 0.0
C3769 C 0.08408 0.74968 0.63208 0.0
C3770 C 0.05575 0.74695 0.64463 0.0
C3771 C 0.05145 0.72947 0.65239 0.0
C3772 C 0.0637 0.72231 0.65028 0.0
C3773 C 0.07965 0.73227 0.63985 0.0
C3774 C 0.04277 0.7548 0.64618 0.0
C3775 C 0.05988 0.70401 0.6589 0.0
H3776 H 0.01747 0.71636 0.70693 0.0
H3777 H 0.98848 0.68028 0.65488 0.0
H3778 H 0.06303 0.73575 0.69282 0.0
H3779 H 0.05692 0.75328 0.68763 0.0
H3780 H 0.04946 0.74091 0.70909 0.0
H3781 H 0.00211 0.68658 0.62527 0.0
H3782 H 0.02113 0.71122 0.62339 0.0
H3783 H 0.02631 0.69292 0.62828 0.0
H3784 H 0.07564 0.77074 0.62963 0.0
H3785 H 0.08842 0.72615 0.63752 0.0
H3786 H 0.0415 0.75811 0.66147 0.0
H3787 H 0.02843 0.74363 0.63988 0.0
H3788 H 0.04781 0.76822 0.63874 0.0
H3789 H 0.05771 0.70504 0.67438 0.0
H3790 H 0.07159 0.70128 0.65732 0.0
H3791 H 0.04676 0.69129 0.65183 0.0
C3792 C 0.97602 0.63457 0.74855 0.0
C3793 C 0.96041 0.62921 0.7358 0.0
C3794 C 0.9779 0.62055 0.75749 0.0
C3795 C 0.96377 0.60064 0.75364 0.0
C3796 C 0.94777 0.59511 0.74107 0.0
C3797 C 0.94628 0.6095 0.73225 0.0
C3798 C 0.99517 0.62704 0.77083 0.0
C3799 C 0.93239 0.57402 0.73675 0.0
C3800 C 0.98025 0.56583 0.76325 0.0
C3801 C 0.97475 0.56127 0.78186 0.0
C3802 C 0.9761 0.57803 0.75356 0.0
C3803 C 0.9661 0.58574 0.76265 0.0
C3804 C 0.95982 0.58056 0.7811 0.0
C3805 C 0.96431 0.56847 0.79052 0.0
C3806 C 0.98307 0.58328 0.7339 0.0
C3807 C 0.94908 0.58845 0.79124 0.0
H3808 H 0.987 0.64977 0.7514 0.0
H3809 H 0.93418 0.60528 0.7224 0.0
H3810 H 0.99093 0.62194 0.7852 0.0
H3811 H 0.00317 0.62048 0.76526 0.0
H3812 H 0.00472 0.64312 0.77252 0.0
H3813 H 0.92056 0.57219 0.72718 0.0
H3814 H 0.93825 0.56575 0.72977 0.0
H3815 H 0.92677 0.56746 0.75027 0.0
H3816 H 0.98803 0.56005 0.75633 0.0
H3817 H 0.9602 0.56525 0.80499 0.0
H3818 H 0.99383 0.59905 0.73457 0.0
H3819 H 0.97132 0.58048 0.72362 0.0
H3820 H 0.98945 0.57497 0.72825 0.0
H3821 H 0.95848 0.60435 0.79496 0.0
H3822 H 0.94354 0.58145 0.80462 0.0
H3823 H 0.9371 0.58623 0.78167 0.0
C3824 C 0.37961 0.36293 0.75148 0.0
C3825 C 0.36009 0.35507 0.74955 0.0
C3826 C 0.39155 0.3805 0.76267 0.0
C3827 C 0.38377 0.39046 0.77217 0.0
C3828 C 0.364 0.38221 0.77093 0.0
C3829 C 0.35235 0.36455 0.75961 0.0
C3830 C 0.41257 0.38876 0.76373 0.0
C3831 C 0.35522 0.39238 0.78094 0.0
C3832 C 0.41723 0.43035 0.81022 0.0
C3833 C 0.42511 0.44671 0.79972 0.0
C3834 C 0.40301 0.41203 0.80174 0.0
C3835 C 0.39659 0.41007 0.78231 0.0
C3836 C 0.40381 0.42672 0.77195 0.0
C3837 C 0.41799 0.44485 0.78078 0.0
C3838 C 0.39555 0.39464 0.81329 0.0
C3839 C 0.39731 0.42522 0.75118 0.0
H3840 H 0.38566 0.3556 0.74384 0.0
H3841 H 0.33725 0.3585 0.75818 0.0
H3842 H 0.41967 0.40267 0.75694 0.0
H3843 H 0.41831 0.39201 0.77892 0.0
H3844 H 0.41625 0.37868 0.7564 0.0
H3845 H 0.33958 0.38321 0.78002 0.0
H3846 H 0.36051 0.39644 0.79627 0.0
H3847 H 0.35933 0.40605 0.77433 0.0
H3848 H 0.42252 0.4318 0.82496 0.0
H3849 H 0.42416 0.45739 0.77253 0.0
H3850 H 0.40041 0.38493 0.80768 0.0
H3851 H 0.37991 0.38608 0.81188 0.0
H3852 H 0.40039 0.39894 0.82875 0.0
H3853 H 0.40196 0.41684 0.74224 0.0
H3854 H 0.40305 0.43973 0.74571 0.0
H3855 H 0.3817 0.41726 0.74934 0.0
C3856 C 0.64639 0.04566 0.69243 0.0
C3857 C 0.65953 0.0417 0.70046 0.0
C3858 C 0.63172 0.04423 0.70304 0.0
C3859 C 0.63069 0.03937 0.72225 0.0
C3860 C 0.6447 0.03657 0.73071 0.0
C3861 C 0.65874 0.03738 0.71957 0.0
C3862 C 0.61673 0.04672 0.69335 0.0
C3863 C 0.64448 0.03202 0.75132 0.0
C3864 C 0.59972 0.04717 0.75578 0.0
C3865 C 0.58467 0.02799 0.75683 0.0
C3866 C 0.61467 0.05118 0.74435 0.0
C3867 C 0.61429 0.03576 0.73316 0.0
C3868 C 0.59875 0.01653 0.73338 0.0
C3869 C 0.58432 0.01284 0.74542 0.0
C3870 C 0.63119 0.07182 0.7448 0.0
C3871 C 0.59763 -0.00029 0.72131 0.0
H3872 H 0.64694 0.04874 0.67754 0.0
H3873 H 0.66901 0.03439 0.72572 0.0
H3874 H 0.60318 0.03253 0.69169 0.0
H3875 H 0.61442 0.05705 0.70226 0.0
H3876 H 0.62042 0.05205 0.67894 0.0
H3877 H 0.65753 0.03246 0.75631 0.0
H3878 H 0.6429 0.04253 0.76085 0.0
H3879 H 0.63223 0.01728 0.75288 0.0
H3880 H 0.59999 0.05911 0.76409 0.0
H3881 H 0.57302 0.99793 0.74623 0.0
H3882 H 0.63378 0.07642 0.73006 0.0
H3883 H 0.64412 0.07261 0.75077 0.0
H3884 H 0.62898 0.0823 0.75364 0.0
H3885 H 0.60023 0.00322 0.70623 0.0
H3886 H 0.5837 0.98606 0.72149 0.0
H3887 H 0.6087 0.99706 0.72676 0.0
loop_
_geom_bond_atom_site_label_1
_geom_bond_atom_site_label_2
_geom_bond_distance
_geom_bond_site_symmetry_2
_ccdc_geom_bond_type
Co0 O1 2.216 . S
Co0 O2 2.091 . S
Co0 O4 2.004 . S
Co0 O10 2.021 . S
Co0 O12 2.137 1_455 S
Co0 O13 2.244 1_455 S
O1 Co0 2.216 . S
O1 C8 1.247 . S
O2 Co0 2.091 . S
O2 C8 1.261 . S
C3 O12 1.247 . S
C3 O13 1.272 . S
O4 Co0 2.004 . S
O4 C9 1.259 1_554 S
Co5 O6 2.090 . S
Co5 O11 2.052 . S
Co5 O13 2.135 . S
O6 Co5 2.090 . S
O6 C9 1.220 1_654 S
C7 O10 1.238 1_655 S
C7 O11 1.241 . S
C8 O1 1.247 . S
C8 O2 1.261 . S
C9 O4 1.259 1_556 S
C9 O6 1.220 1_456 S
O10 Co0 2.021 . S
O10 C7 1.238 1_455 S
O11 Co5 2.052 . S
O11 C7 1.241 . S
O12 Co0 2.137 1_655 S
O12 C3 1.247 . S
O13 Co0 2.244 1_655 S
O13 C3 1.272 . S
O13 Co5 2.135 . S
Co14 O15 2.216 . S
Co14 O16 2.091 . S
Co14 O18 2.004 . S
Co14 O24 2.021 . S
Co14 O26 2.137 . S
Co14 O27 2.244 . S
O15 Co14 2.216 . S
O15 C22 1.247 . S
O16 Co14 2.091 . S
O16 C22 1.261 . S
C17 O26 1.247 . S
C17 O27 1.272 . S
O18 Co14 2.004 . S
O18 C23 1.259 . S
Co19 O20 2.061 . S
Co19 O25 2.052 . S
Co19 O27 2.135 . S
O20 Co19 2.061 . S
O20 C23 1.235 . S
C21 O24 1.238 . S
C21 O25 1.241 . S
C22 O15 1.247 . S
C22 O16 1.261 . S
C23 O18 1.259 . S
C23 O20 1.235 . S
O24 Co14 2.021 . S
O24 C21 1.238 . S
O25 Co19 2.052 . S
O25 C21 1.241 . S
O26 Co14 2.137 . S
O26 C17 1.247 . S
O27 Co14 2.244 . S
O27 C17 1.272 . S
O27 Co19 2.135 . S
Co28 O29 2.216 . S
Co28 O30 2.091 . S
Co28 O32 2.004 . S
Co28 O38 2.021 . S
Co28 O40 2.139 1_545 S
Co28 O41 2.244 1_545 S
O29 Co28 2.216 . S
O29 C36 1.247 . S
O30 Co28 2.091 . S
O30 C36 1.261 . S
C31 O40 1.261 . S
C31 O41 1.272 . S
O32 Co28 2.004 . S
O32 C37 1.259 . S
Co33 O34 2.061 . S
Co33 O39 2.052 . S
Co33 O41 2.135 . S
O34 Co33 2.061 . S
O34 C37 1.235 1_565 S
C35 O38 1.235 1_566 S
C35 O39 1.239 1_556 S
C36 O29 1.247 . S
C36 O30 1.261 . S
C37 O32 1.259 . S
C37 O34 1.235 1_545 S
O38 Co28 2.021 . S
O38 C35 1.235 1_544 S
O39 Co33 2.052 . S
O39 C35 1.239 1_554 S
O40 Co28 2.139 1_565 S
O40 C31 1.261 . S
O41 Co28 2.244 1_565 S
O41 C31 1.272 . S
O41 Co33 2.135 . S
Co42 O43 2.216 . S
Co42 O44 2.091 . S
Co42 O46 2.004 . S
Co42 O52 2.021 . S
Co42 O54 2.137 1_655 S
Co42 O55 2.244 1_655 S
O43 Co42 2.216 . S
O43 C50 1.247 . S
O44 Co42 2.091 . S
O44 C50 1.261 . S
C45 O54 1.247 . S
C45 O55 1.272 . S
O46 Co42 2.004 . S
O46 C51 1.310 . S
Co47 O48 2.061 . S
Co47 O53 2.052 . S
Co47 O55 2.135 . S
O48 Co47 2.061 . S
O48 C51 1.182 1_455 S
C49 O52 1.238 1_455 S
C49 O53 1.241 . S
C50 O43 1.247 . S
C50 O44 1.261 . S
C51 O46 1.310 . S
C51 O48 1.182 1_655 S
O52 Co42 2.021 . S
O52 C49 1.238 1_655 S
O53 Co47 2.052 . S
O53 C49 1.241 . S
O54 Co42 2.137 1_455 S
O54 C45 1.247 . S
O55 Co42 2.244 1_455 S
O55 C45 1.272 . S
O55 Co47 2.135 . S
Co56 O57 2.216 . S
Co56 O58 2.091 . S
Co56 O60 2.004 1_554 S
Co56 O66 2.021 . S
Co56 O68 2.137 1_554 S
Co56 O69 2.244 1_554 S
O57 Co56 2.216 . S
O57 C64 1.247 . S
O58 Co56 2.091 . S
O58 C64 1.261 . S
C59 O68 1.247 . S
C59 O69 1.272 . S
O60 Co56 2.004 1_556 S
O60 C65 1.259 . S
Co61 O62 2.061 . S
Co61 O67 2.052 1_556 S
Co61 O69 2.135 . S
O62 Co61 2.061 . S
O62 C65 1.235 . S
C63 O66 1.238 . S
C63 O67 1.241 . S
C64 O57 1.247 . S
C64 O58 1.261 . S
C65 O60 1.259 . S
C65 O62 1.235 . S
O66 Co56 2.021 . S
O66 C63 1.238 . S
O67 Co61 2.052 1_554 S
O67 C63 1.241 . S
O68 Co56 2.137 1_556 S
O68 C59 1.247 . S
O69 Co56 2.244 1_556 S
O69 C59 1.272 . S
O69 Co61 2.135 . S
Co70 O71 2.216 . S
Co70 O72 2.091 . S
Co70 O74 2.004 . S
Co70 O80 2.021 . S
Co70 O82 2.137 1_565 S
Co70 O83 2.244 1_565 S
O71 Co70 2.216 . S
O71 C78 1.247 . S
O72 Co70 2.091 . S
O72 C78 1.261 . S
C73 O82 1.247 . S
C73 O83 1.272 . S
O74 Co70 2.004 . S
O74 C79 1.259 . S
Co75 O76 2.061 . S
Co75 O81 2.052 . S
Co75 O83 2.135 . S
O76 Co75 2.061 . S
O76 C79 1.235 1_545 S
C77 O80 1.238 1_545 S
C77 O81 1.241 . S
C78 O71 1.247 . S
C78 O72 1.261 . S
C79 O74 1.259 . S
C79 O76 1.235 1_565 S
O80 Co70 2.021 . S
O80 C77 1.238 1_565 S
O81 Co75 2.052 . S
O81 C77 1.241 . S
O82 Co70 2.137 1_545 S
O82 C73 1.247 . S
O83 Co70 2.244 1_545 S
O83 C73 1.272 . S
O83 Co75 2.135 . S
Co84 O85 2.216 . S
Co84 O86 2.091 . S
Co84 O88 2.004 . S
Co84 O94 2.021 . S
Co84 O96 2.137 . S
Co84 O97 2.244 . S
O85 Co84 2.216 . S
O85 C92 1.247 . S
O86 Co84 2.091 . S
O86 C92 1.261 . S
C87 O96 1.247 . S
C87 O97 1.272 . S
O88 Co84 2.004 . S
O88 C93 1.259 . S
Co89 O90 2.061 . S
Co89 O95 2.052 . S
Co89 O97 2.135 . S
O90 Co89 2.061 . S
O90 C93 1.235 . S
C91 O94 1.238 . S
C91 O95 1.241 . S
C92 O85 1.247 . S
C92 O86 1.261 . S
C93 O88 1.259 . S
C93 O90 1.235 . S
O94 Co84 2.021 . S
O94 C91 1.238 . S
O95 Co89 2.052 . S
O95 C91 1.241 . S
O96 Co84 2.137 . S
O96 C87 1.247 . S
O97 Co84 2.244 . S
O97 C87 1.272 . S
O97 Co89 2.135 . S
Co98 O99 2.216 . S
Co98 O100 2.091 . S
Co98 O102 2.004 . S
Co98 O108 2.021 . S
Co98 O110 2.137 . S
Co98 O111 2.244 . S
O99 Co98 2.216 . S
O99 C106 1.247 . S
O100 Co98 2.091 . S
O100 C106 1.261 . S
C101 O110 1.247 . S
C101 O111 1.272 . S
O102 Co98 2.004 . S
O102 C107 1.259 . S
Co103 O104 2.061 . S
Co103 O109 2.052 . S
Co103 O111 2.135 . S
O104 Co103 2.061 . S
O104 C107 1.235 . S
C105 O108 1.238 . S
C105 O109 1.241 . S
C106 O99 1.247 . S
C106 O100 1.261 . S
C107 O102 1.259 . S
C107 O104 1.235 . S
O108 Co98 2.021 . S
O108 C105 1.238 . S
O109 Co103 2.052 . S
O109 C105 1.241 . S
O110 Co98 2.137 . S
O110 C101 1.247 . S
O111 Co98 2.244 . S
O111 C101 1.272 . S
O111 Co103 2.135 . S
Co112 O113 2.216 . S
Co112 O114 2.091 . S
Co112 O116 2.004 . S
Co112 O122 2.021 . S
Co112 O124 2.137 . S
Co112 O125 2.244 . S
O113 Co112 2.216 . S
O113 C120 1.247 . S
O114 Co112 2.091 . S
O114 C120 1.261 . S
C115 O124 1.247 . S
C115 O125 1.272 . S
O116 Co112 2.004 . S
O116 C121 1.259 . S
Co117 O118 2.061 . S
Co117 O123 2.052 . S
Co117 O125 2.135 . S
O118 Co117 2.061 . S
O118 C121 1.235 . S
C119 O122 1.238 . S
C119 O123 1.241 . S
C120 O113 1.247 . S
C120 O114 1.261 . S
C121 O116 1.259 . S
C121 O118 1.235 . S
O122 Co112 2.021 . S
O122 C119 1.238 . S
O123 Co117 2.052 . S
O123 C119 1.241 . S
O124 Co112 2.137 . S
O124 C115 1.247 . S
O125 Co112 2.244 . S
O125 C115 1.272 . S
O125 Co117 2.135 . S
Co126 O127 2.216 . S
Co126 O128 2.091 . S
Co126 O130 2.004 . S
Co126 O136 2.021 . S
Co126 O138 2.137 . S
Co126 O139 2.244 . S
O127 Co126 2.216 . S
O127 C134 1.247 . S
O128 Co126 2.091 . S
O128 C134 1.261 . S
C129 O138 1.247 . S
C129 O139 1.272 . S
O130 Co126 2.004 . S
O130 C135 1.259 . S
Co131 O132 2.061 . S
Co131 O137 2.052 . S
Co131 O139 2.135 . S
O132 Co131 2.061 . S
O132 C135 1.235 . S
C133 O136 1.238 . S
C133 O137 1.241 . S
C134 O127 1.247 . S
C134 O128 1.261 . S
C135 O130 1.259 . S
C135 O132 1.235 . S
O136 Co126 2.021 . S
O136 C133 1.238 . S
O137 Co131 2.052 . S
O137 C133 1.241 . S
O138 Co126 2.137 . S
O138 C129 1.247 . S
O139 Co126 2.244 . S
O139 C129 1.272 . S
O139 Co131 2.135 . S
Co140 O141 2.216 . S
Co140 O142 2.091 . S
Co140 O144 2.004 . S
Co140 O150 2.021 . S
Co140 O152 2.137 . S
Co140 O153 2.244 . S
O141 Co140 2.216 . S
O141 C148 1.247 . S
O142 Co140 2.091 . S
O142 C148 1.261 . S
C143 O152 1.247 . S
C143 O153 1.272 . S
O144 Co140 2.004 . S
O144 C149 1.259 . S
Co145 O146 2.061 . S
Co145 O151 2.052 . S
Co145 O153 2.135 . S
O146 Co145 2.061 . S
O146 C149 1.235 . S
C147 O150 1.238 . S
C147 O151 1.241 . S
C148 O141 1.247 . S
C148 O142 1.261 . S
C149 O144 1.259 . S
C149 O146 1.235 . S
O150 Co140 2.021 . S
O150 C147 1.238 . S
O151 Co145 2.052 . S
O151 C147 1.241 . S
O152 Co140 2.137 . S
O152 C143 1.247 . S
O153 Co140 2.244 . S
O153 C143 1.272 . S
O153 Co145 2.135 . S
Co154 O155 2.216 . S
Co154 O156 2.091 . S
Co154 O158 2.004 . S
Co154 O164 2.021 . S
Co154 O166 2.137 . S
Co154 O167 2.244 . S
O155 Co154 2.216 . S
O155 C162 1.247 . S
O156 Co154 2.091 . S
O156 C162 1.261 . S
C157 O166 1.247 . S
C157 O167 1.272 . S
O158 Co154 2.004 . S
O158 C163 1.259 . S
Co159 O160 2.061 . S
Co159 O165 2.052 . S
Co159 O167 2.135 . S
O160 Co159 2.061 . S
O160 C163 1.235 . S
C161 O164 1.238 . S
C161 O165 1.241 . S
C162 O155 1.247 . S
C162 O156 1.261 . S
C163 O158 1.259 . S
C163 O160 1.235 . S
O164 Co154 2.021 . S
O164 C161 1.238 . S
O165 Co159 2.052 . S
O165 C161 1.241 . S
O166 Co154 2.137 . S
O166 C157 1.247 . S
O167 Co154 2.244 . S
O167 C157 1.272 . S
O167 Co159 2.135 . S
Co168 O169 2.216 . S
Co168 O170 2.091 . S
Co168 O172 2.004 . S
Co168 O178 2.021 . S
Co168 O180 2.137 . S
Co168 O181 2.244 . S
O169 Co168 2.216 . S
O169 C176 1.247 . S
O170 Co168 2.091 . S
O170 C176 1.261 . S
C171 O180 1.247 . S
C171 O181 1.272 . S
O172 Co168 2.004 . S
O172 C177 1.259 . S
Co173 O174 2.061 . S
Co173 O179 2.052 . S
Co173 O181 2.135 . S
O174 Co173 2.061 . S
O174 C177 1.235 . S
C175 O178 1.238 . S
C175 O179 1.241 . S
C176 O169 1.247 . S
C176 O170 1.261 . S
C177 O172 1.259 . S
C177 O174 1.235 . S
O178 Co168 2.021 . S
O178 C175 1.238 . S
O179 Co173 2.052 . S
O179 C175 1.241 . S
O180 Co168 2.137 . S
O180 C171 1.247 . S
O181 Co168 2.244 . S
O181 C171 1.272 . S
O181 Co173 2.135 . S
Co182 O183 2.216 . S
Co182 O184 2.091 . S
Co182 O186 2.004 . S
Co182 O192 2.021 . S
Co182 O194 2.137 . S
Co182 O195 2.244 . S
O183 Co182 2.216 . S
O183 C190 1.247 1_655 S
O184 Co182 2.091 . S
O184 C190 1.261 1_655 S
C185 O194 1.247 . S
C185 O195 1.272 . S
O186 Co182 2.004 . S
O186 C191 1.259 . S
Co187 O188 2.061 . S
Co187 O193 2.052 . S
Co187 O195 2.135 . S
O188 Co187 2.061 . S
O188 C191 1.235 . S
C189 O192 1.238 . S
C189 O193 1.241 . S
C190 O183 1.247 1_455 S
C190 O184 1.261 1_455 S
C191 O186 1.259 . S
C191 O188 1.235 . S
O192 Co182 2.021 . S
O192 C189 1.238 . S
O193 Co187 2.052 . S
O193 C189 1.241 . S
O194 Co182 2.137 . S
O194 C185 1.247 . S
O195 Co182 2.244 . S
O195 C185 1.272 . S
O195 Co187 2.135 . S
Co196 O197 2.216 . S
Co196 O198 2.091 . S
Co196 O200 2.004 . S
Co196 O206 2.021 . S
Co196 O208 2.137 . S
Co196 O209 2.244 . S
O197 Co196 2.216 . S
O197 C204 1.247 . S
O198 Co196 2.091 . S
O198 C204 1.261 . S
C199 O208 1.247 . S
C199 O209 1.272 . S
O200 Co196 2.004 . S
O200 C205 1.259 . S
Co201 O202 2.061 . S
Co201 O207 2.052 . S
Co201 O209 2.135 . S
O202 Co201 2.061 . S
O202 C205 1.235 . S
C203 O206 1.238 . S
C203 O207 1.241 . S
C204 O197 1.247 . S
C204 O198 1.261 . S
C205 O200 1.259 . S
C205 O202 1.235 . S
O206 Co196 2.021 . S
O206 C203 1.238 . S
O207 Co201 2.052 . S
O207 C203 1.241 . S
O208 Co196 2.137 . S
O208 C199 1.247 . S
O209 Co196 2.244 . S
O209 C199 1.272 . S
O209 Co201 2.135 . S
Co210 O211 2.216 . S
Co210 O212 2.091 . S
Co210 O214 2.004 . S
Co210 O220 2.021 . S
Co210 O222 2.137 . S
Co210 O223 2.244 . S
O211 Co210 2.216 . S
O211 C218 1.247 . S
O212 Co210 2.091 . S
O212 C218 1.261 . S
C213 O222 1.247 . S
C213 O223 1.272 . S
O214 Co210 2.004 . S
O214 C219 1.259 . S
Co215 O216 2.061 . S
Co215 O221 2.052 . S
Co215 O223 2.135 . S
O216 Co215 2.061 . S
O216 C219 1.235 . S
C217 O220 1.238 . S
C217 O221 1.241 . S
C218 O211 1.247 . S
C218 O212 1.261 . S
C219 O214 1.259 . S
C219 O216 1.235 . S
O220 Co210 2.021 . S
O220 C217 1.238 . S
O221 Co215 2.052 . S
O221 C217 1.241 . S
O222 Co210 2.137 . S
O222 C213 1.247 . S
O223 Co210 2.244 . S
O223 C213 1.272 . S
O223 Co215 2.135 . S
Co224 O225 2.216 . S
Co224 O226 2.091 . S
Co224 O228 2.004 . S
Co224 O234 2.021 . S
Co224 O236 2.137 . S
Co224 O237 2.244 . S
O225 Co224 2.216 . S
O225 C232 1.247 . S
O226 Co224 2.091 . S
O226 C232 1.261 . S
C227 O236 1.247 . S
C227 O237 1.272 . S
O228 Co224 2.004 . S
O228 C233 1.259 . S
Co229 O230 2.061 . S
Co229 O235 2.052 . S
Co229 O237 2.135 . S
O230 Co229 2.061 . S
O230 C233 1.235 . S
C231 O234 1.238 . S
C231 O235 1.241 . S
C232 O225 1.247 . S
C232 O226 1.261 . S
C233 O228 1.259 . S
C233 O230 1.235 . S
O234 Co224 2.021 . S
O234 C231 1.238 . S
O235 Co229 2.052 . S
O235 C231 1.241 . S
O236 Co224 2.137 . S
O236 C227 1.247 . S
O237 Co224 2.244 . S
O237 C227 1.272 . S
O237 Co229 2.135 . S
Co238 O239 2.216 . S
Co238 O240 2.091 . S
Co238 O242 2.004 . S
Co238 O248 2.021 . S
Co238 O250 2.137 . S
Co238 O251 2.244 . S
O239 Co238 2.216 . S
O239 C246 1.247 . S
O240 Co238 2.091 . S
O240 C246 1.261 . S
C241 O250 1.247 . S
C241 O251 1.272 . S
O242 Co238 2.004 . S
O242 C247 1.259 . S
Co243 O244 2.061 . S
Co243 O249 2.052 . S
Co243 O251 2.135 . S
O244 Co243 2.061 . S
O244 C247 1.235 . S
C245 O248 1.238 . S
C245 O249 1.241 . S
C246 O239 1.247 . S
C246 O240 1.261 . S
C247 O242 1.259 . S
C247 O244 1.235 . S
O248 Co238 2.021 . S
O248 C245 1.238 . S
O249 Co243 2.052 . S
O249 C245 1.241 . S
O250 Co238 2.137 . S
O250 C241 1.247 . S
O251 Co238 2.244 . S
O251 C241 1.272 . S
O251 Co243 2.135 . S
H252 O278 0.856 . S
H253 O281 0.854 . S
H254 C289 0.930 . S
H255 C290 0.930 . S
H256 C292 0.930 . S
H257 C293 0.930 . S
H258 C295 0.931 . S
H259 C296 0.930 . S
H260 C298 0.930 . S
H261 C299 0.929 . S
H262 C301 0.930 . S
H263 C302 0.931 . S
H264 C304 0.930 . S
H265 C305 0.929 . S
H266 C307 0.931 . S
H267 C308 0.930 . S
H268 C310 0.930 . S
H269 C311 0.932 . S
H270 C313 0.930 . S
H271 C314 0.929 . S
H272 C316 0.931 . S
H273 C317 0.930 . S
H274 C319 0.929 . S
H275 C320 0.931 . S
H276 C322 0.930 . S
H277 C323 0.929 . S
O278 H252 0.856 . S
O278 C324 1.300 . S
O279 C324 1.209 . S
O280 C325 1.199 . S
O281 H253 0.854 . S
O281 C325 1.297 . S
C282 C283 1.404 . S
C282 C287 1.397 . S
C282 C288 1.492 . S
C283 C282 1.404 . S
C283 C284 1.396 . S
C283 C294 1.492 . S
C284 C283 1.396 . S
C284 C285 1.397 . S
C284 C300 1.509 . S
C285 C284 1.397 . S
C285 C286 1.412 . S
C285 C306 1.485 . S
C286 C285 1.412 . S
C286 C287 1.388 . S
C286 C312 1.490 . S
C287 C282 1.397 . S
C287 C286 1.388 . S
C287 C318 1.519 . S
C288 C282 1.492 . S
C288 C289 1.363 . S
C288 C293 1.390 . S
C289 H254 0.930 . S
C289 C288 1.363 . S
C289 C290 1.372 . S
C290 H255 0.930 . S
C290 C289 1.372 . S
C290 C291 1.383 . S
C291 C290 1.383 . S
C291 C292 1.395 . S
C292 H256 0.930 . S
C292 C291 1.395 . S
C292 C293 1.362 . S
C293 H257 0.930 . S
C293 C288 1.390 . S
C293 C292 1.362 . S
C294 C283 1.492 . S
C294 C295 1.377 . S
C294 C299 1.397 . S
C295 H258 0.931 . S
C295 C294 1.377 . S
C295 C296 1.376 . S
C296 H259 0.930 . S
C296 C295 1.376 . S
C296 C297 1.376 . S
C297 C296 1.376 . S
C297 C298 1.378 . S
C297 C324 1.486 . S
C298 H260 0.930 . S
C298 C297 1.378 . S
C298 C299 1.376 . S
C299 H261 0.929 . S
C299 C294 1.397 . S
C299 C298 1.376 . S
C300 C284 1.509 . S
C300 C301 1.391 . S
C300 C305 1.386 . S
C301 H262 0.930 . S
C301 C300 1.391 . S
C301 C302 1.375 . S
C302 H263 0.931 . S
C302 C301 1.375 . S
C302 C303 1.375 . S
C303 C302 1.375 . S
C303 C304 1.361 . S
C304 H264 0.930 . S
C304 C303 1.361 . S
C304 C305 1.399 . S
C305 H265 0.929 . S
C305 C300 1.386 . S
C305 C304 1.399 . S
C306 C285 1.485 . S
C306 C307 1.394 . S
C306 C311 1.360 . S
C307 H266 0.931 . S
C307 C306 1.394 . S
C307 C308 1.372 . S
C308 H267 0.930 . S
C308 C307 1.372 . S
C308 C309 1.397 . S
C309 C308 1.397 . S
C309 C310 1.390 . S
C309 C325 1.476 . S
C310 H268 0.930 . S
C310 C309 1.390 . S
C310 C311 1.366 . S
C311 H269 0.932 . S
C311 C306 1.360 . S
C311 C310 1.366 . S
C312 C286 1.490 . S
C312 C313 1.380 . S
C312 C317 1.386 . S
C313 H270 0.930 . S
C313 C312 1.380 . S
C313 C314 1.381 . S
C314 H271 0.929 . S
C314 C313 1.381 . S
C314 C315 1.371 . S
C315 C314 1.371 . S
C315 C316 1.380 . S
C316 H272 0.931 . S
C316 C315 1.380 . S
C316 C317 1.387 . S
C317 H273 0.930 . S
C317 C312 1.386 . S
C317 C316 1.387 . S
C318 C287 1.519 . S
C318 C319 1.377 . S
C318 C323 1.361 . S
C319 H274 0.929 . S
C319 C318 1.377 . S
C319 C320 1.386 . S
C320 H275 0.931 . S
C320 C319 1.386 . S
C320 C321 1.363 . S
C321 C320 1.363 . S
C321 C322 1.385 . S
C322 H276 0.930 . S
C322 C321 1.385 . S
C322 C323 1.396 . S
C323 H277 0.929 . S
C323 C318 1.361 . S
C323 C322 1.396 . S
C324 O278 1.300 . S
C324 O279 1.209 . S
C324 C297 1.486 . S
C325 O280 1.199 . S
C325 O281 1.297 . S
C325 C309 1.476 . S
H326 O352 0.856 . S
H327 O355 0.854 . S
H328 C363 0.930 . S
H329 C364 0.930 . S
H330 C366 0.930 . S
H331 C367 0.930 . S
H332 C369 0.931 . S
H333 C370 0.930 . S
H334 C372 0.930 . S
H335 C373 0.929 . S
H336 C375 0.930 . S
H337 C376 0.931 . S
H338 C378 0.930 . S
H339 C379 0.929 . S
H340 C381 0.931 . S
H341 C382 0.930 . S
H342 C384 0.930 . S
H343 C385 0.932 . S
H344 C387 0.930 . S
H345 C388 0.929 . S
H346 C390 0.931 . S
H347 C391 0.930 . S
H348 C393 0.929 . S
H349 C394 0.931 . S
H350 C396 0.930 . S
H351 C397 0.929 . S
O352 H326 0.856 . S
O352 C398 1.300 . S
O353 C398 1.209 . S
O354 C399 1.199 . S
O355 H327 0.854 . S
O355 C399 1.297 . S
C356 C357 1.404 . S
C356 C361 1.397 . S
C356 C362 1.492 . S
C357 C356 1.404 . S
C357 C358 1.396 . S
C357 C368 1.492 . S
C358 C357 1.396 . S
C358 C359 1.397 . S
C358 C374 1.509 . S
C359 C358 1.397 . S
C359 C360 1.412 . S
C359 C380 1.485 . S
C360 C359 1.412 . S
C360 C361 1.388 . S
C360 C386 1.490 . S
C361 C356 1.397 . S
C361 C360 1.388 . S
C361 C392 1.519 . S
C362 C356 1.492 . S
C362 C363 1.363 . S
C362 C367 1.390 . S
C363 H328 0.930 . S
C363 C362 1.363 . S
C363 C364 1.372 . S
C364 H329 0.930 . S
C364 C363 1.372 . S
C364 C365 1.383 . S
C365 C364 1.383 . S
C365 C366 1.395 . S
C366 H330 0.930 . S
C366 C365 1.395 . S
C366 C367 1.362 . S
C367 H331 0.930 . S
C367 C362 1.390 . S
C367 C366 1.362 . S
C368 C357 1.492 . S
C368 C369 1.377 . S
C368 C373 1.397 . S
C369 H332 0.931 . S
C369 C368 1.377 . S
C369 C370 1.376 . S
C370 H333 0.930 . S
C370 C369 1.376 . S
C370 C371 1.376 . S
C371 C370 1.376 . S
C371 C372 1.378 . S
C371 C398 1.486 . S
C372 H334 0.930 . S
C372 C371 1.378 . S
C372 C373 1.376 . S
C373 H335 0.929 . S
C373 C368 1.397 . S
C373 C372 1.376 . S
C374 C358 1.509 . S
C374 C375 1.391 . S
C374 C379 1.386 . S
C375 H336 0.930 . S
C375 C374 1.391 . S
C375 C376 1.375 . S
C376 H337 0.931 . S
C376 C375 1.375 . S
C376 C377 1.375 . S
C377 C376 1.375 . S
C377 C378 1.361 . S
C378 H338 0.930 . S
C378 C377 1.361 . S
C378 C379 1.399 . S
C379 H339 0.929 . S
C379 C374 1.386 . S
C379 C378 1.399 . S
C380 C359 1.485 . S
C380 C381 1.394 . S
C380 C385 1.360 . S
C381 H340 0.931 . S
C381 C380 1.394 . S
C381 C382 1.372 . S
C382 H341 0.930 . S
C382 C381 1.372 . S
C382 C383 1.397 . S
C383 C382 1.397 . S
C383 C384 1.390 . S
C383 C399 1.476 . S
C384 H342 0.930 . S
C384 C383 1.390 . S
C384 C385 1.366 . S
C385 H343 0.932 . S
C385 C380 1.360 . S
C385 C384 1.366 . S
C386 C360 1.490 . S
C386 C387 1.380 . S
C386 C391 1.386 . S
C387 H344 0.930 . S
C387 C386 1.380 . S
C387 C388 1.381 . S
C388 H345 0.929 . S
C388 C387 1.381 . S
C388 C389 1.371 . S
C389 C388 1.371 . S
C389 C390 1.380 . S
C390 H346 0.931 . S
C390 C389 1.380 . S
C390 C391 1.387 . S
C391 H347 0.930 . S
C391 C386 1.386 . S
C391 C390 1.387 . S
C392 C361 1.519 . S
C392 C393 1.377 . S
C392 C397 1.361 . S
C393 H348 0.929 . S
C393 C392 1.377 . S
C393 C394 1.386 . S
C394 H349 0.931 . S
C394 C393 1.386 . S
C394 C395 1.363 . S
C395 C394 1.363 . S
C395 C396 1.385 . S
C396 H350 0.930 . S
C396 C395 1.385 . S
C396 C397 1.396 . S
C397 H351 0.929 . S
C397 C392 1.361 . S
C397 C396 1.396 . S
C398 O352 1.300 . S
C398 O353 1.209 . S
C398 C371 1.486 . S
C399 O354 1.199 . S
C399 O355 1.297 . S
C399 C383 1.476 . S
H400 O426 0.856 . S
H401 O429 0.854 . S
H402 C437 0.930 . S
H403 C438 0.930 . S
H404 C440 0.930 . S
H405 C441 0.930 . S
H406 C443 0.931 . S
H407 C444 0.930 . S
H408 C446 0.930 . S
H409 C447 0.929 . S
H410 C449 0.930 . S
H411 C450 0.931 . S
H412 C452 0.930 . S
H413 C453 0.929 . S
H414 C455 0.931 . S
H415 C456 0.930 . S
H416 C458 0.930 . S
H417 C459 0.932 . S
H418 C461 0.930 . S
H419 C462 0.929 . S
H420 C464 0.931 . S
H421 C465 0.930 . S
H422 C467 0.929 . S
H423 C468 0.931 . S
H424 C470 0.930 . S
H425 C471 0.929 . S
O426 H400 0.856 . S
O426 C472 1.300 . S
O427 C472 1.209 . S
O428 C473 1.199 . S
O429 H401 0.854 . S
O429 C473 1.297 . S
C430 C431 1.404 . S
C430 C435 1.397 . S
C430 C436 1.492 . S
C431 C430 1.404 . S
C431 C432 1.396 . S
C431 C442 1.492 . S
C432 C431 1.396 . S
C432 C433 1.397 . S
C432 C448 1.509 . S
C433 C432 1.397 . S
C433 C434 1.412 . S
C433 C454 1.485 . S
C434 C433 1.412 . S
C434 C435 1.388 . S
C434 C460 1.490 . S
C435 C430 1.397 . S
C435 C434 1.388 . S
C435 C466 1.519 . S
C436 C430 1.492 . S
C436 C437 1.363 . S
C436 C441 1.390 . S
C437 H402 0.930 . S
C437 C436 1.363 . S
C437 C438 1.372 . S
C438 H403 0.930 . S
C438 C437 1.372 . S
C438 C439 1.383 . S
C439 C438 1.383 . S
C439 C440 1.395 . S
C440 H404 0.930 . S
C440 C439 1.395 . S
C440 C441 1.362 . S
C441 H405 0.930 . S
C441 C436 1.390 . S
C441 C440 1.362 . S
C442 C431 1.492 . S
C442 C443 1.377 . S
C442 C447 1.397 . S
C443 H406 0.931 . S
C443 C442 1.377 . S
C443 C444 1.376 . S
C444 H407 0.930 . S
C444 C443 1.376 . S
C444 C445 1.376 . S
C445 C444 1.376 . S
C445 C446 1.378 . S
C445 C472 1.486 . S
C446 H408 0.930 . S
C446 C445 1.378 . S
C446 C447 1.376 . S
C447 H409 0.929 . S
C447 C442 1.397 . S
C447 C446 1.376 . S
C448 C432 1.509 . S
C448 C449 1.391 . S
C448 C453 1.386 . S
C449 H410 0.930 . S
C449 C448 1.391 . S
C449 C450 1.375 . S
C450 H411 0.931 . S
C450 C449 1.375 . S
C450 C451 1.375 . S
C451 C450 1.375 . S
C451 C452 1.361 . S
C452 H412 0.930 . S
C452 C451 1.361 . S
C452 C453 1.399 . S
C453 H413 0.929 . S
C453 C448 1.386 . S
C453 C452 1.399 . S
C454 C433 1.485 . S
C454 C455 1.394 . S
C454 C459 1.360 . S
C455 H414 0.931 . S
C455 C454 1.394 . S
C455 C456 1.372 . S
C456 H415 0.930 . S
C456 C455 1.372 . S
C456 C457 1.397 . S
C457 C456 1.397 . S
C457 C458 1.390 . S
C457 C473 1.476 . S
C458 H416 0.930 . S
C458 C457 1.390 . S
C458 C459 1.366 . S
C459 H417 0.932 . S
C459 C454 1.360 . S
C459 C458 1.366 . S
C460 C434 1.490 . S
C460 C461 1.380 . S
C460 C465 1.386 . S
C461 H418 0.930 . S
C461 C460 1.380 . S
C461 C462 1.381 . S
C462 H419 0.929 . S
C462 C461 1.381 . S
C462 C463 1.371 . S
C463 C462 1.371 . S
C463 C464 1.380 . S
C464 H420 0.931 . S
C464 C463 1.380 . S
C464 C465 1.387 . S
C465 H421 0.930 . S
C465 C460 1.386 . S
C465 C464 1.387 . S
C466 C435 1.519 . S
C466 C467 1.377 . S
C466 C471 1.361 . S
C467 H422 0.929 . S
C467 C466 1.377 . S
C467 C468 1.386 . S
C468 H423 0.931 . S
C468 C467 1.386 . S
C468 C469 1.363 . S
C469 C468 1.363 . S
C469 C470 1.385 . S
C470 H424 0.930 . S
C470 C469 1.385 . S
C470 C471 1.396 . S
C471 H425 0.929 . S
C471 C466 1.361 . S
C471 C470 1.396 . S
C472 O426 1.300 . S
C472 O427 1.209 . S
C472 C445 1.486 . S
C473 O428 1.199 . S
C473 O429 1.297 . S
C473 C457 1.476 . S
H474 O500 0.856 . S
H475 O503 0.854 . S
H476 C511 0.930 . S
H477 C512 0.930 . S
H478 C514 0.930 . S
H479 C515 0.930 . S
H480 C517 0.931 . S
H481 C518 0.930 . S
H482 C520 0.930 . S
H483 C521 0.929 . S
H484 C523 0.930 . S
H485 C524 0.931 . S
H486 C526 0.930 . S
H487 C527 0.929 . S
H488 C529 0.931 . S
H489 C530 0.930 . S
H490 C532 0.930 . S
H491 C533 0.932 . S
H492 C535 0.930 . S
H493 C536 0.929 . S
H494 C538 0.931 . S
H495 C539 0.930 . S
H496 C541 0.929 . S
H497 C542 0.931 . S
H498 C544 0.930 . S
H499 C545 0.929 . S
O500 H474 0.856 . S
O500 C546 1.300 1_554 S
O501 C546 1.209 . S
O502 C547 1.199 . S
O503 H475 0.854 . S
O503 C547 1.297 . S
C504 C505 1.404 . S
C504 C509 1.397 . S
C504 C510 1.492 . S
C505 C504 1.404 . S
C505 C506 1.396 . S
C505 C516 1.492 . S
C506 C505 1.396 . S
C506 C507 1.397 . S
C506 C522 1.509 . S
C507 C506 1.397 . S
C507 C508 1.412 . S
C507 C528 1.485 . S
C508 C507 1.412 . S
C508 C509 1.388 . S
C508 C534 1.490 . S
C509 C504 1.397 . S
C509 C508 1.388 . S
C509 C540 1.519 . S
C510 C504 1.492 . S
C510 C511 1.363 . S
C510 C515 1.390 . S
C511 H476 0.930 . S
C511 C510 1.363 . S
C511 C512 1.372 . S
C512 H477 0.930 . S
C512 C511 1.372 . S
C512 C513 1.383 . S
C513 C512 1.383 . S
C513 C514 1.395 . S
C514 H478 0.930 . S
C514 C513 1.395 . S
C514 C515 1.362 . S
C515 H479 0.930 . S
C515 C510 1.390 . S
C515 C514 1.362 . S
C516 C505 1.492 . S
C516 C517 1.377 . S
C516 C521 1.397 . S
C517 H480 0.931 . S
C517 C516 1.377 . S
C517 C518 1.376 . S
C518 H481 0.930 . S
C518 C517 1.376 . S
C518 C519 1.376 . S
C519 C518 1.376 . S
C519 C520 1.378 . S
C519 C546 1.486 . S
C520 H482 0.930 . S
C520 C519 1.378 . S
C520 C521 1.376 . S
C521 H483 0.929 . S
C521 C516 1.397 . S
C521 C520 1.376 . S
C522 C506 1.509 . S
C522 C523 1.391 . S
C522 C527 1.386 . S
C523 H484 0.930 . S
C523 C522 1.391 . S
C523 C524 1.375 . S
C524 H485 0.931 . S
C524 C523 1.375 . S
C524 C525 1.375 . S
C525 C524 1.375 . S
C525 C526 1.361 . S
C526 H486 0.930 . S
C526 C525 1.361 . S
C526 C527 1.399 . S
C527 H487 0.929 . S
C527 C522 1.386 . S
C527 C526 1.399 . S
C528 C507 1.485 . S
C528 C529 1.394 . S
C528 C533 1.360 . S
C529 H488 0.931 . S
C529 C528 1.394 . S
C529 C530 1.372 . S
C530 H489 0.930 . S
C530 C529 1.372 . S
C530 C531 1.397 . S
C531 C530 1.397 . S
C531 C532 1.390 . S
C531 C547 1.476 . S
C532 H490 0.930 . S
C532 C531 1.390 . S
C532 C533 1.366 . S
C533 H491 0.932 . S
C533 C528 1.360 . S
C533 C532 1.366 . S
C534 C508 1.490 . S
C534 C535 1.380 . S
C534 C539 1.386 . S
C535 H492 0.930 . S
C535 C534 1.380 . S
C535 C536 1.381 . S
C536 H493 0.929 . S
C536 C535 1.381 . S
C536 C537 1.371 . S
C537 C536 1.371 . S
C537 C538 1.380 . S
C538 H494 0.931 . S
C538 C537 1.380 . S
C538 C539 1.387 . S
C539 H495 0.930 . S
C539 C534 1.386 . S
C539 C538 1.387 . S
C540 C509 1.519 . S
C540 C541 1.377 . S
C540 C545 1.361 . S
C541 H496 0.929 . S
C541 C540 1.377 . S
C541 C542 1.386 . S
C542 H497 0.931 . S
C542 C541 1.386 . S
C542 C543 1.363 . S
C543 C542 1.363 . S
C543 C544 1.385 . S
C544 H498 0.930 . S
C544 C543 1.385 . S
C544 C545 1.396 . S
C545 H499 0.929 . S
C545 C540 1.361 . S
C545 C544 1.396 . S
C546 O500 1.300 1_556 S
C546 O501 1.209 . S
C546 C519 1.486 . S
C547 O502 1.199 . S
C547 O503 1.297 . S
C547 C531 1.476 . S
H548 O574 0.856 . S
H549 O577 0.854 . S
H550 C585 0.930 . S
H551 C586 0.930 . S
H552 C588 0.930 . S
H553 C589 0.930 . S
H554 C591 0.931 . S
H555 C592 0.930 . S
H556 C594 0.930 . S
H557 C595 0.929 . S
H558 C597 0.930 . S
H559 C598 0.931 . S
H560 C600 0.930 . S
H561 C601 0.929 . S
H562 C603 0.931 . S
H563 C604 0.930 . S
H564 C606 0.930 . S
H565 C607 0.932 . S
H566 C609 0.930 . S
H567 C610 0.929 . S
H568 C612 0.931 . S
H569 C613 0.930 . S
H570 C615 0.929 . S
H571 C616 0.931 . S
H572 C618 0.930 . S
H573 C619 0.929 . S
O574 H548 0.856 . S
O574 C620 1.300 . S
O575 C620 1.209 . S
O576 C621 1.199 . S
O577 H549 0.854 . S
O577 C621 1.297 . S
C578 C579 1.404 . S
C578 C583 1.397 . S
C578 C584 1.492 . S
C579 C578 1.404 . S
C579 C580 1.396 . S
C579 C590 1.492 . S
C580 C579 1.396 . S
C580 C581 1.397 . S
C580 C596 1.509 . S
C581 C580 1.397 . S
C581 C582 1.412 . S
C581 C602 1.485 . S
C582 C581 1.412 . S
C582 C583 1.388 . S
C582 C608 1.490 . S
C583 C578 1.397 . S
C583 C582 1.388 . S
C583 C614 1.519 . S
C584 C578 1.492 . S
C584 C585 1.363 . S
C584 C589 1.390 . S
C585 H550 0.930 . S
C585 C584 1.363 . S
C585 C586 1.372 . S
C586 H551 0.930 . S
C586 C585 1.372 . S
C586 C587 1.383 . S
C587 C586 1.383 . S
C587 C588 1.395 . S
C588 H552 0.930 . S
C588 C587 1.395 . S
C588 C589 1.362 . S
C589 H553 0.930 . S
C589 C584 1.390 . S
C589 C588 1.362 . S
C590 C579 1.492 . S
C590 C591 1.377 . S
C590 C595 1.397 . S
C591 H554 0.931 . S
C591 C590 1.377 . S
C591 C592 1.376 . S
C592 H555 0.930 . S
C592 C591 1.376 . S
C592 C593 1.376 . S
C593 C592 1.376 . S
C593 C594 1.378 . S
C593 C620 1.486 1_556 S
C594 H556 0.930 . S
C594 C593 1.378 . S
C594 C595 1.376 . S
C595 H557 0.929 . S
C595 C590 1.397 . S
C595 C594 1.376 . S
C596 C580 1.509 . S
C596 C597 1.391 . S
C596 C601 1.386 . S
C597 H558 0.930 . S
C597 C596 1.391 . S
C597 C598 1.375 . S
C598 H559 0.931 . S
C598 C597 1.375 . S
C598 C599 1.375 . S
C599 C598 1.375 . S
C599 C600 1.361 . S
C600 H560 0.930 . S
C600 C599 1.361 . S
C600 C601 1.399 . S
C601 H561 0.929 . S
C601 C596 1.386 . S
C601 C600 1.399 . S
C602 C581 1.485 . S
C602 C603 1.394 . S
C602 C607 1.360 . S
C603 H562 0.931 . S
C603 C602 1.394 . S
C603 C604 1.372 . S
C604 H563 0.930 . S
C604 C603 1.372 . S
C604 C605 1.397 . S
C605 C604 1.397 . S
C605 C606 1.390 . S
C605 C621 1.476 . S
C606 H564 0.930 . S
C606 C605 1.390 . S
C606 C607 1.366 . S
C607 H565 0.932 . S
C607 C602 1.360 . S
C607 C606 1.366 . S
C608 C582 1.490 . S
C608 C609 1.380 . S
C608 C613 1.386 . S
C609 H566 0.930 . S
C609 C608 1.380 . S
C609 C610 1.381 . S
C610 H567 0.929 . S
C610 C609 1.381 . S
C610 C611 1.371 . S
C611 C610 1.371 . S
C611 C612 1.380 . S
C612 H568 0.931 . S
C612 C611 1.380 . S
C612 C613 1.387 . S
C613 H569 0.930 . S
C613 C608 1.386 . S
C613 C612 1.387 . S
C614 C583 1.519 . S
C614 C615 1.377 . S
C614 C619 1.361 . S
C615 H570 0.929 . S
C615 C614 1.377 . S
C615 C616 1.386 . S
C616 H571 0.931 . S
C616 C615 1.386 . S
C616 C617 1.363 . S
C617 C616 1.363 . S
C617 C618 1.385 . S
C618 H572 0.930 . S
C618 C617 1.385 . S
C618 C619 1.396 . S
C619 H573 0.929 . S
C619 C614 1.361 . S
C619 C618 1.396 . S
C620 O574 1.300 . S
C620 O575 1.209 . S
C620 C593 1.486 1_554 S
C621 O576 1.199 . S
C621 O577 1.297 . S
C621 C605 1.476 . S
H622 O648 0.856 . S
H623 O651 0.854 . S
H624 C659 0.930 . S
H625 C660 0.930 . S
H626 C662 0.930 . S
H627 C663 0.930 . S
H628 C665 0.931 . S
H629 C666 0.930 . S
H630 C668 0.930 . S
H631 C669 0.929 . S
H632 C671 0.930 . S
H633 C672 0.931 . S
H634 C674 0.930 . S
H635 C675 0.929 . S
H636 C677 0.931 . S
H637 C678 0.930 . S
H638 C680 0.930 . S
H639 C681 0.932 . S
H640 C683 0.930 . S
H641 C684 0.929 . S
H642 C686 0.931 . S
H643 C687 0.930 . S
H644 C689 0.929 . S
H645 C690 0.931 . S
H646 C692 0.930 . S
H647 C693 0.929 . S
O648 H622 0.856 . S
O648 C694 1.300 . S
O649 C694 1.209 . S
O650 C695 1.199 . S
O651 H623 0.854 . S
O651 C695 1.297 . S
C652 C653 1.404 . S
C652 C657 1.397 . S
C652 C658 1.492 . S
C653 C652 1.404 . S
C653 C654 1.396 . S
C653 C664 1.492 . S
C654 C653 1.396 . S
C654 C655 1.397 . S
C654 C670 1.509 . S
C655 C654 1.397 . S
C655 C656 1.412 . S
C655 C676 1.485 . S
C656 C655 1.412 . S
C656 C657 1.388 . S
C656 C682 1.490 . S
C657 C652 1.397 . S
C657 C656 1.388 . S
C657 C688 1.519 . S
C658 C652 1.492 . S
C658 C659 1.363 . S
C658 C663 1.390 . S
C659 H624 0.930 . S
C659 C658 1.363 . S
C659 C660 1.372 . S
C660 H625 0.930 . S
C660 C659 1.372 . S
C660 C661 1.383 . S
C661 C660 1.383 . S
C661 C662 1.395 . S
C662 H626 0.930 . S
C662 C661 1.395 . S
C662 C663 1.362 . S
C663 H627 0.930 . S
C663 C658 1.390 . S
C663 C662 1.362 . S
C664 C653 1.492 . S
C664 C665 1.377 . S
C664 C669 1.397 . S
C665 H628 0.931 . S
C665 C664 1.377 . S
C665 C666 1.376 . S
C666 H629 0.930 . S
C666 C665 1.376 . S
C666 C667 1.376 . S
C667 C666 1.376 . S
C667 C668 1.378 . S
C667 C694 1.486 1_556 S
C668 H630 0.930 . S
C668 C667 1.378 . S
C668 C669 1.376 . S
C669 H631 0.929 . S
C669 C664 1.397 . S
C669 C668 1.376 . S
C670 C654 1.509 . S
C670 C671 1.391 . S
C670 C675 1.386 . S
C671 H632 0.930 . S
C671 C670 1.391 . S
C671 C672 1.375 . S
C672 H633 0.931 . S
C672 C671 1.375 . S
C672 C673 1.375 . S
C673 C672 1.375 . S
C673 C674 1.361 . S
C674 H634 0.930 . S
C674 C673 1.361 . S
C674 C675 1.399 . S
C675 H635 0.929 . S
C675 C670 1.386 . S
C675 C674 1.399 . S
C676 C655 1.485 . S
C676 C677 1.394 . S
C676 C681 1.360 . S
C677 H636 0.931 . S
C677 C676 1.394 . S
C677 C678 1.372 . S
C678 H637 0.930 . S
C678 C677 1.372 . S
C678 C679 1.397 . S
C679 C678 1.397 . S
C679 C680 1.390 . S
C679 C695 1.476 . S
C680 H638 0.930 . S
C680 C679 1.390 . S
C680 C681 1.366 . S
C681 H639 0.932 . S
C681 C676 1.360 . S
C681 C680 1.366 . S
C682 C656 1.490 . S
C682 C683 1.380 . S
C682 C687 1.386 . S
C683 H640 0.930 . S
C683 C682 1.380 . S
C683 C684 1.381 . S
C684 H641 0.929 . S
C684 C683 1.381 . S
C684 C685 1.371 . S
C685 C684 1.371 . S
C685 C686 1.380 . S
C686 H642 0.931 . S
C686 C685 1.380 . S
C686 C687 1.387 . S
C687 H643 0.930 . S
C687 C682 1.386 . S
C687 C686 1.387 . S
C688 C657 1.519 . S
C688 C689 1.377 . S
C688 C693 1.361 . S
C689 H644 0.929 . S
C689 C688 1.377 . S
C689 C690 1.386 . S
C690 H645 0.931 . S
C690 C689 1.386 . S
C690 C691 1.363 . S
C691 C690 1.363 . S
C691 C692 1.385 . S
C692 H646 0.930 . S
C692 C691 1.385 . S
C692 C693 1.396 . S
C693 H647 0.929 . S
C693 C688 1.361 . S
C693 C692 1.396 . S
C694 O648 1.300 . S
C694 O649 1.209 . S
C694 C667 1.486 1_554 S
C695 O650 1.199 . S
C695 O651 1.297 . S
C695 C679 1.476 . S
H696 O722 0.856 . S
H697 O725 0.854 . S
H698 C733 0.930 . S
H699 C734 0.930 . S
H700 C736 0.930 . S
H701 C737 0.930 . S
H702 C739 0.931 . S
H703 C740 0.930 . S
H704 C742 0.930 . S
H705 C743 0.929 . S
H706 C745 0.930 . S
H707 C746 0.931 . S
H708 C748 0.930 . S
H709 C749 0.929 . S
H710 C751 0.931 . S
H711 C752 0.930 . S
H712 C754 0.930 . S
H713 C755 0.932 . S
H714 C757 0.930 . S
H715 C758 0.929 . S
H716 C760 0.931 . S
H717 C761 0.930 . S
H718 C763 0.929 . S
H719 C764 0.931 . S
H720 C766 0.930 . S
H721 C767 0.929 . S
O722 H696 0.856 . S
O722 C768 1.300 . S
O723 C768 1.209 . S
O724 C769 1.199 . S
O725 H697 0.854 . S
O725 C769 1.297 . S
C726 C727 1.404 . S
C726 C731 1.397 . S
C726 C732 1.492 . S
C727 C726 1.404 . S
C727 C728 1.396 . S
C727 C738 1.492 . S
C728 C727 1.396 . S
C728 C729 1.397 . S
C728 C744 1.509 . S
C729 C728 1.397 . S
C729 C730 1.412 . S
C729 C750 1.485 . S
C730 C729 1.412 . S
C730 C731 1.388 . S
C730 C756 1.490 . S
C731 C726 1.397 . S
C731 C730 1.388 . S
C731 C762 1.519 . S
C732 C726 1.492 . S
C732 C733 1.363 . S
C732 C737 1.390 . S
C733 H698 0.930 . S
C733 C732 1.363 . S
C733 C734 1.372 . S
C734 H699 0.930 . S
C734 C733 1.372 . S
C734 C735 1.383 . S
C735 C734 1.383 . S
C735 C736 1.395 . S
C736 H700 0.930 . S
C736 C735 1.395 . S
C736 C737 1.362 . S
C737 H701 0.930 . S
C737 C732 1.390 . S
C737 C736 1.362 . S
C738 C727 1.492 . S
C738 C739 1.377 . S
C738 C743 1.397 . S
C739 H702 0.931 . S
C739 C738 1.377 . S
C739 C740 1.376 . S
C740 H703 0.930 . S
C740 C739 1.376 . S
C740 C741 1.376 . S
C741 C740 1.376 . S
C741 C742 1.378 . S
C741 C768 1.486 . S
C742 H704 0.930 . S
C742 C741 1.378 . S
C742 C743 1.376 . S
C743 H705 0.929 . S
C743 C738 1.397 . S
C743 C742 1.376 . S
C744 C728 1.509 . S
C744 C745 1.391 . S
C744 C749 1.386 . S
C745 H706 0.930 . S
C745 C744 1.391 . S
C745 C746 1.375 . S
C746 H707 0.931 . S
C746 C745 1.375 . S
C746 C747 1.375 . S
C747 C746 1.375 . S
C747 C748 1.361 . S
C748 H708 0.930 . S
C748 C747 1.361 . S
C748 C749 1.399 . S
C749 H709 0.929 . S
C749 C744 1.386 . S
C749 C748 1.399 . S
C750 C729 1.485 . S
C750 C751 1.394 . S
C750 C755 1.360 . S
C751 H710 0.931 . S
C751 C750 1.394 . S
C751 C752 1.372 . S
C752 H711 0.930 . S
C752 C751 1.372 . S
C752 C753 1.397 . S
C753 C752 1.397 . S
C753 C754 1.390 . S
C753 C769 1.476 . S
C754 H712 0.930 . S
C754 C753 1.390 . S
C754 C755 1.366 . S
C755 H713 0.932 . S
C755 C750 1.360 . S
C755 C754 1.366 . S
C756 C730 1.490 . S
C756 C757 1.380 . S
C756 C761 1.386 . S
C757 H714 0.930 . S
C757 C756 1.380 . S
C757 C758 1.381 . S
C758 H715 0.929 . S
C758 C757 1.381 . S
C758 C759 1.371 . S
C759 C758 1.371 . S
C759 C760 1.380 . S
C760 H716 0.931 . S
C760 C759 1.380 . S
C760 C761 1.387 . S
C761 H717 0.930 . S
C761 C756 1.386 . S
C761 C760 1.387 . S
C762 C731 1.519 . S
C762 C763 1.377 . S
C762 C767 1.361 . S
C763 H718 0.929 . S
C763 C762 1.377 . S
C763 C764 1.386 . S
C764 H719 0.931 . S
C764 C763 1.386 . S
C764 C765 1.363 . S
C765 C764 1.363 . S
C765 C766 1.385 . S
C766 H720 0.930 . S
C766 C765 1.385 . S
C766 C767 1.396 . S
C767 H721 0.929 . S
C767 C762 1.361 . S
C767 C766 1.396 . S
C768 O722 1.300 . S
C768 O723 1.209 . S
C768 C741 1.486 . S
C769 O724 1.199 . S
C769 O725 1.297 . S
C769 C753 1.476 . S
H770 O796 0.856 . S
H771 O799 0.854 . S
H772 C807 0.930 . S
H773 C808 0.930 . S
H774 C810 0.930 . S
H775 C811 0.930 . S
H776 C813 0.931 . S
H777 C814 0.930 . S
H778 C816 0.930 . S
H779 C817 0.929 . S
H780 C819 0.930 . S
H781 C820 0.931 . S
H782 C822 0.930 . S
H783 C823 0.929 . S
H784 C825 0.931 . S
H785 C826 0.930 . S
H786 C828 0.930 . S
H787 C829 0.932 . S
H788 C831 0.930 . S
H789 C832 0.929 . S
H790 C834 0.931 . S
H791 C835 0.930 . S
H792 C837 0.929 . S
H793 C838 0.931 . S
H794 C840 0.930 . S
H795 C841 0.929 . S
O796 H770 0.856 . S
O796 C842 1.300 . S
O797 C842 1.209 . S
O798 C843 1.199 . S
O799 H771 0.854 . S
O799 C843 1.297 . S
C800 C801 1.404 . S
C800 C805 1.397 . S
C800 C806 1.492 . S
C801 C800 1.404 . S
C801 C802 1.396 . S
C801 C812 1.492 . S
C802 C801 1.396 . S
C802 C803 1.397 . S
C802 C818 1.509 . S
C803 C802 1.397 . S
C803 C804 1.412 . S
C803 C824 1.485 . S
C804 C803 1.412 . S
C804 C805 1.388 . S
C804 C830 1.490 . S
C805 C800 1.397 . S
C805 C804 1.388 . S
C805 C836 1.519 . S
C806 C800 1.492 . S
C806 C807 1.363 . S
C806 C811 1.390 . S
C807 H772 0.930 . S
C807 C806 1.363 . S
C807 C808 1.372 . S
C808 H773 0.930 . S
C808 C807 1.372 . S
C808 C809 1.383 . S
C809 C808 1.383 . S
C809 C810 1.395 . S
C810 H774 0.930 . S
C810 C809 1.395 . S
C810 C811 1.362 . S
C811 H775 0.930 . S
C811 C806 1.390 . S
C811 C810 1.362 . S
C812 C801 1.492 . S
C812 C813 1.377 . S
C812 C817 1.397 . S
C813 H776 0.931 . S
C813 C812 1.377 . S
C813 C814 1.376 . S
C814 H777 0.930 . S
C814 C813 1.376 . S
C814 C815 1.376 . S
C815 C814 1.376 . S
C815 C816 1.378 . S
C815 C842 1.486 . S
C816 H778 0.930 . S
C816 C815 1.378 . S
C816 C817 1.376 . S
C817 H779 0.929 . S
C817 C812 1.397 . S
C817 C816 1.376 . S
C818 C802 1.509 . S
C818 C819 1.391 . S
C818 C823 1.386 . S
C819 H780 0.930 . S
C819 C818 1.391 . S
C819 C820 1.375 . S
C820 H781 0.931 . S
C820 C819 1.375 . S
C820 C821 1.375 . S
C821 C820 1.375 . S
C821 C822 1.361 . S
C822 H782 0.930 . S
C822 C821 1.361 . S
C822 C823 1.399 . S
C823 H783 0.929 . S
C823 C818 1.386 . S
C823 C822 1.399 . S
C824 C803 1.485 . S
C824 C825 1.394 . S
C824 C829 1.360 . S
C825 H784 0.931 . S
C825 C824 1.394 . S
C825 C826 1.372 . S
C826 H785 0.930 . S
C826 C825 1.372 . S
C826 C827 1.397 . S
C827 C826 1.397 . S
C827 C828 1.390 . S
C827 C843 1.476 . S
C828 H786 0.930 . S
C828 C827 1.390 . S
C828 C829 1.366 . S
C829 H787 0.932 . S
C829 C824 1.360 . S
C829 C828 1.366 . S
C830 C804 1.490 . S
C830 C831 1.380 . S
C830 C835 1.386 . S
C831 H788 0.930 . S
C831 C830 1.380 . S
C831 C832 1.381 . S
C832 H789 0.929 . S
C832 C831 1.381 . S
C832 C833 1.371 . S
C833 C832 1.371 . S
C833 C834 1.380 . S
C834 H790 0.931 . S
C834 C833 1.380 . S
C834 C835 1.387 . S
C835 H791 0.930 . S
C835 C830 1.386 . S
C835 C834 1.387 . S
C836 C805 1.519 . S
C836 C837 1.377 . S
C836 C841 1.361 . S
C837 H792 0.929 . S
C837 C836 1.377 . S
C837 C838 1.386 . S
C838 H793 0.931 . S
C838 C837 1.386 . S
C838 C839 1.363 . S
C839 C838 1.363 . S
C839 C840 1.385 . S
C840 H794 0.930 . S
C840 C839 1.385 . S
C840 C841 1.396 . S
C841 H795 0.929 . S
C841 C836 1.361 . S
C841 C840 1.396 . S
C842 O796 1.300 . S
C842 O797 1.209 . S
C842 C815 1.486 . S
C843 O798 1.199 . S
C843 O799 1.297 . S
C843 C827 1.476 . S
H844 O870 0.856 . S
H845 O873 0.854 . S
H846 C881 0.930 . S
H847 C882 0.930 . S
H848 C884 0.930 . S
H849 C885 0.930 . S
H850 C887 0.931 . S
H851 C888 0.930 . S
H852 C890 0.930 . S
H853 C891 0.929 . S
H854 C893 0.930 . S
H855 C894 0.931 . S
H856 C896 0.930 . S
H857 C897 0.929 . S
H858 C899 0.931 . S
H859 C900 0.930 . S
H860 C902 0.930 . S
H861 C903 0.932 . S
H862 C905 0.930 . S
H863 C906 0.929 . S
H864 C908 0.931 . S
H865 C909 0.930 . S
H866 C911 0.929 . S
H867 C912 0.931 . S
H868 C914 0.930 . S
H869 C915 0.929 . S
O870 H844 0.856 . S
O870 C916 1.300 . S
O871 C916 1.209 . S
O872 C917 1.199 . S
O873 H845 0.854 . S
O873 C917 1.297 . S
C874 C875 1.404 . S
C874 C879 1.397 . S
C874 C880 1.492 . S
C875 C874 1.404 . S
C875 C876 1.396 . S
C875 C886 1.492 . S
C876 C875 1.396 . S
C876 C877 1.397 . S
C876 C892 1.509 . S
C877 C876 1.397 . S
C877 C878 1.412 . S
C877 C898 1.485 . S
C878 C877 1.412 . S
C878 C879 1.388 . S
C878 C904 1.490 . S
C879 C874 1.397 . S
C879 C878 1.388 . S
C879 C910 1.519 . S
C880 C874 1.492 . S
C880 C881 1.363 . S
C880 C885 1.390 . S
C881 H846 0.930 . S
C881 C880 1.363 . S
C881 C882 1.372 . S
C882 H847 0.930 . S
C882 C881 1.372 . S
C882 C883 1.383 . S
C883 C882 1.383 . S
C883 C884 1.395 . S
C884 H848 0.930 . S
C884 C883 1.395 . S
C884 C885 1.362 . S
C885 H849 0.930 . S
C885 C880 1.390 . S
C885 C884 1.362 . S
C886 C875 1.492 . S
C886 C887 1.377 . S
C886 C891 1.397 . S
C887 H850 0.931 . S
C887 C886 1.377 . S
C887 C888 1.376 . S
C888 H851 0.930 . S
C888 C887 1.376 . S
C888 C889 1.376 . S
C889 C888 1.376 . S
C889 C890 1.378 . S
C889 C916 1.486 . S
C890 H852 0.930 . S
C890 C889 1.378 . S
C890 C891 1.376 . S
C891 H853 0.929 . S
C891 C886 1.397 . S
C891 C890 1.376 . S
C892 C876 1.509 . S
C892 C893 1.391 . S
C892 C897 1.386 . S
C893 H854 0.930 . S
C893 C892 1.391 . S
C893 C894 1.375 . S
C894 H855 0.931 . S
C894 C893 1.375 . S
C894 C895 1.375 . S
C895 C894 1.375 . S
C895 C896 1.361 . S
C896 H856 0.930 . S
C896 C895 1.361 . S
C896 C897 1.399 . S
C897 H857 0.929 . S
C897 C892 1.386 . S
C897 C896 1.399 . S
C898 C877 1.485 . S
C898 C899 1.394 . S
C898 C903 1.360 . S
C899 H858 0.931 . S
C899 C898 1.394 . S
C899 C900 1.372 . S
C900 H859 0.930 . S
C900 C899 1.372 . S
C900 C901 1.397 . S
C901 C900 1.397 . S
C901 C902 1.390 . S
C901 C917 1.476 . S
C902 H860 0.930 . S
C902 C901 1.390 . S
C902 C903 1.366 . S
C903 H861 0.932 . S
C903 C898 1.360 . S
C903 C902 1.366 . S
C904 C878 1.490 . S
C904 C905 1.380 . S
C904 C909 1.386 . S
C905 H862 0.930 . S
C905 C904 1.380 . S
C905 C906 1.381 . S
C906 H863 0.929 . S
C906 C905 1.381 . S
C906 C907 1.371 . S
C907 C906 1.371 . S
C907 C908 1.380 . S
C908 H864 0.931 . S
C908 C907 1.380 . S
C908 C909 1.387 . S
C909 H865 0.930 . S
C909 C904 1.386 . S
C909 C908 1.387 . S
C910 C879 1.519 . S
C910 C911 1.377 . S
C910 C915 1.361 . S
C911 H866 0.929 . S
C911 C910 1.377 . S
C911 C912 1.386 . S
C912 H867 0.931 . S
C912 C911 1.386 . S
C912 C913 1.363 . S
C913 C912 1.363 . S
C913 C914 1.385 . S
C914 H868 0.930 . S
C914 C913 1.385 . S
C914 C915 1.396 . S
C915 H869 0.929 . S
C915 C910 1.361 . S
C915 C914 1.396 . S
C916 O870 1.300 . S
C916 O871 1.209 . S
C916 C889 1.486 . S
C917 O872 1.199 . S
C917 O873 1.297 . S
C917 C901 1.476 . S
H918 O944 0.856 . S
H919 O947 0.854 . S
H920 C955 0.930 . S
H921 C956 0.930 . S
H922 C958 0.930 . S
H923 C959 0.930 . S
H924 C961 0.931 . S
H925 C962 0.930 1_655 S
H926 C964 0.930 . S
H927 C965 0.929 . S
H928 C967 0.930 . S
H929 C968 0.931 1_655 S
H930 C970 0.930 . S
H931 C971 0.929 . S
H932 C973 0.931 . S
H933 C974 0.930 . S
H934 C976 0.930 . S
H935 C977 0.932 . S
H936 C979 0.930 . S
H937 C980 0.929 . S
H938 C982 0.931 . S
H939 C983 0.930 . S
H940 C985 0.929 . S
H941 C986 0.931 . S
H942 C988 0.930 . S
H943 C989 0.929 . S
O944 H918 0.856 . S
O944 C990 1.300 . S
O945 C990 1.209 . S
O946 C991 1.199 1_655 S
O947 H919 0.854 . S
O947 C991 1.297 . S
C948 C949 1.404 . S
C948 C953 1.394 . S
C948 C954 1.492 . S
C949 C948 1.404 . S
C949 C950 1.396 . S
C949 C960 1.492 . S
C950 C949 1.396 . S
C950 C951 1.397 . S
C950 C966 1.509 . S
C951 C950 1.397 . S
C951 C952 1.430 . S
C951 C972 1.485 . S
C952 C951 1.430 . S
C952 C953 1.399 . S
C952 C978 1.491 1_455 S
C953 C948 1.394 . S
C953 C952 1.399 . S
C953 C984 1.483 1_455 S
C954 C948 1.492 . S
C954 C955 1.363 1_455 S
C954 C959 1.390 . S
C955 H920 0.930 . S
C955 C954 1.363 1_655 S
C955 C956 1.372 . S
C956 H921 0.930 . S
C956 C955 1.372 . S
C956 C957 1.383 . S
C957 C956 1.383 . S
C957 C958 1.395 1_655 S
C958 H922 0.930 . S
C958 C957 1.395 1_455 S
C958 C959 1.362 . S
C959 H923 0.930 . S
C959 C954 1.390 . S
C959 C958 1.362 . S
C960 C949 1.492 . S
C960 C961 1.377 1_455 S
C960 C965 1.397 . S
C961 H924 0.931 . S
C961 C960 1.377 1_655 S
C961 C962 1.376 1_655 S
C962 H925 0.930 1_455 S
C962 C961 1.376 1_455 S
C962 C963 1.376 . S
C963 C962 1.376 . S
C963 C964 1.378 . S
C963 C990 1.486 . S
C964 H926 0.930 . S
C964 C963 1.378 . S
C964 C965 1.376 . S
C965 H927 0.929 . S
C965 C960 1.397 . S
C965 C964 1.376 . S
C966 C950 1.509 . S
C966 C967 1.391 1_455 S
C966 C971 1.386 . S
C967 H928 0.930 . S
C967 C966 1.391 1_655 S
C967 C968 1.375 1_655 S
C968 H929 0.931 1_455 S
C968 C967 1.375 1_455 S
C968 C969 1.375 . S
C969 C968 1.375 . S
C969 C970 1.361 . S
C970 H930 0.930 . S
C970 C969 1.361 . S
C970 C971 1.399 . S
C971 H931 0.929 . S
C971 C966 1.386 . S
C971 C970 1.399 . S
C972 C951 1.485 . S
C972 C973 1.394 1_455 S
C972 C977 1.360 . S
C973 H932 0.931 . S
C973 C972 1.394 1_655 S
C973 C974 1.372 . S
C974 H933 0.930 . S
C974 C973 1.372 . S
C974 C975 1.397 1_655 S
C975 C974 1.397 1_455 S
C975 C976 1.390 . S
C975 C991 1.476 . S
C976 H934 0.930 . S
C976 C975 1.390 . S
C976 C977 1.366 . S
C977 H935 0.932 . S
C977 C972 1.360 . S
C977 C976 1.366 . S
C978 C952 1.491 1_655 S
C978 C979 1.380 . S
C978 C983 1.386 1_655 S
C979 H936 0.930 . S
C979 C978 1.380 . S
C979 C980 1.381 . S
C980 H937 0.929 . S
C980 C979 1.381 . S
C980 C981 1.371 . S
C981 C980 1.371 . S
C981 C982 1.380 1_655 S
C982 H938 0.931 . S
C982 C981 1.380 1_455 S
C982 C983 1.387 . S
C983 H939 0.930 . S
C983 C978 1.386 1_455 S
C983 C982 1.387 . S
C984 C953 1.483 1_655 S
C984 C985 1.417 . S
C984 C989 1.336 1_655 S
C985 H940 0.929 . S
C985 C984 1.417 . S
C985 C986 1.386 . S
C986 H941 0.931 . S
C986 C985 1.386 . S
C986 C987 1.396 . S
C987 C986 1.396 . S
C987 C988 1.334 1_655 S
C988 H942 0.930 . S
C988 C987 1.334 1_455 S
C988 C989 1.396 . S
C989 H943 0.929 . S
C989 C984 1.336 1_455 S
C989 C988 1.396 . S
C990 O944 1.300 . S
C990 O945 1.209 . S
C990 C963 1.486 . S
C991 O946 1.199 1_455 S
C991 O947 1.297 . S
C991 C975 1.476 . S
H992 O1018 0.856 . S
H993 O1021 0.854 . S
H994 C1029 0.930 . S
H995 C1030 0.930 . S
H996 C1032 0.930 . S
H997 C1033 0.930 . S
H998 C1035 0.931 . S
H999 C1036 0.930 . S
H1000 C1038 0.930 . S
H1001 C1039 0.929 . S
H1002 C1041 0.930 . S
H1003 C1042 0.931 . S
H1004 C1044 0.930 . S
H1005 C1045 0.929 . S
H1006 C1047 0.931 . S
H1007 C1048 0.930 . S
H1008 C1050 0.930 . S
H1009 C1051 0.932 . S
H1010 C1053 0.930 . S
H1011 C1054 0.929 . S
H1012 C1056 0.931 . S
H1013 C1057 0.930 . S
H1014 C1059 0.929 . S
H1015 C1060 0.931 . S
H1016 C1062 0.930 . S
H1017 C1063 0.929 . S
O1018 H992 0.856 . S
O1018 C1064 1.300 . S
O1019 C1064 1.209 . S
O1020 C1065 1.199 . S
O1021 H993 0.854 . S
O1021 C1065 1.297 . S
C1022 C1023 1.404 . S
C1022 C1027 1.397 . S
C1022 C1028 1.492 . S
C1023 C1022 1.404 . S
C1023 C1024 1.396 . S
C1023 C1034 1.492 . S
C1024 C1023 1.396 . S
C1024 C1025 1.397 . S
C1024 C1040 1.509 . S
C1025 C1024 1.397 . S
C1025 C1026 1.412 . S
C1025 C1046 1.485 . S
C1026 C1025 1.412 . S
C1026 C1027 1.388 . S
C1026 C1052 1.490 . S
C1027 C1022 1.397 . S
C1027 C1026 1.388 . S
C1027 C1058 1.519 . S
C1028 C1022 1.492 . S
C1028 C1029 1.363 . S
C1028 C1033 1.390 . S
C1029 H994 0.930 . S
C1029 C1028 1.363 . S
C1029 C1030 1.372 . S
C1030 H995 0.930 . S
C1030 C1029 1.372 . S
C1030 C1031 1.383 . S
C1031 C1030 1.383 . S
C1031 C1032 1.395 . S
C1032 H996 0.930 . S
C1032 C1031 1.395 . S
C1032 C1033 1.362 . S
C1033 H997 0.930 . S
C1033 C1028 1.390 . S
C1033 C1032 1.362 . S
C1034 C1023 1.492 . S
C1034 C1035 1.377 . S
C1034 C1039 1.397 . S
C1035 H998 0.931 . S
C1035 C1034 1.377 . S
C1035 C1036 1.376 . S
C1036 H999 0.930 . S
C1036 C1035 1.376 . S
C1036 C1037 1.376 . S
C1037 C1036 1.376 . S
C1037 C1038 1.378 . S
C1037 C1064 1.486 . S
C1038 H1000 0.930 . S
C1038 C1037 1.378 . S
C1038 C1039 1.376 . S
C1039 H1001 0.929 . S
C1039 C1034 1.397 . S
C1039 C1038 1.376 . S
C1040 C1024 1.509 . S
C1040 C1041 1.391 . S
C1040 C1045 1.386 . S
C1041 H1002 0.930 . S
C1041 C1040 1.391 . S
C1041 C1042 1.375 . S
C1042 H1003 0.931 . S
C1042 C1041 1.375 . S
C1042 C1043 1.375 . S
C1043 C1042 1.375 . S
C1043 C1044 1.361 . S
C1044 H1004 0.930 . S
C1044 C1043 1.361 . S
C1044 C1045 1.399 . S
C1045 H1005 0.929 . S
C1045 C1040 1.386 . S
C1045 C1044 1.399 . S
C1046 C1025 1.485 . S
C1046 C1047 1.394 . S
C1046 C1051 1.360 . S
C1047 H1006 0.931 . S
C1047 C1046 1.394 . S
C1047 C1048 1.372 . S
C1048 H1007 0.930 . S
C1048 C1047 1.372 . S
C1048 C1049 1.397 . S
C1049 C1048 1.397 . S
C1049 C1050 1.390 . S
C1049 C1065 1.476 . S
C1050 H1008 0.930 . S
C1050 C1049 1.390 . S
C1050 C1051 1.366 . S
C1051 H1009 0.932 . S
C1051 C1046 1.360 . S
C1051 C1050 1.366 . S
C1052 C1026 1.490 . S
C1052 C1053 1.380 . S
C1052 C1057 1.386 . S
C1053 H1010 0.930 . S
C1053 C1052 1.380 . S
C1053 C1054 1.381 . S
C1054 H1011 0.929 . S
C1054 C1053 1.381 . S
C1054 C1055 1.371 . S
C1055 C1054 1.371 . S
C1055 C1056 1.380 . S
C1056 H1012 0.931 . S
C1056 C1055 1.380 . S
C1056 C1057 1.387 . S
C1057 H1013 0.930 . S
C1057 C1052 1.386 . S
C1057 C1056 1.387 . S
C1058 C1027 1.519 . S
C1058 C1059 1.377 . S
C1058 C1063 1.361 . S
C1059 H1014 0.929 . S
C1059 C1058 1.377 . S
C1059 C1060 1.386 . S
C1060 H1015 0.931 . S
C1060 C1059 1.386 . S
C1060 C1061 1.363 . S
C1061 C1060 1.363 . S
C1061 C1062 1.385 . S
C1062 H1016 0.930 . S
C1062 C1061 1.385 . S
C1062 C1063 1.396 . S
C1063 H1017 0.929 . S
C1063 C1058 1.361 . S
C1063 C1062 1.396 . S
C1064 O1018 1.300 . S
C1064 O1019 1.209 . S
C1064 C1037 1.486 . S
C1065 O1020 1.199 . S
C1065 O1021 1.297 . S
C1065 C1049 1.476 . S
H1066 O1092 0.856 . S
H1067 O1095 0.854 . S
H1068 C1103 0.930 . S
H1069 C1104 0.930 . S
H1070 C1106 0.930 . S
H1071 C1107 0.930 . S
H1072 C1109 0.931 . S
H1073 C1110 0.951 . S
H1074 C1112 0.930 . S
H1075 C1113 0.929 . S
H1076 C1115 0.930 . S
H1077 C1116 0.931 . S
H1078 C1118 0.930 . S
H1079 C1119 0.929 . S
H1080 C1121 0.931 . S
H1081 C1122 0.930 . S
H1082 C1124 0.930 . S
H1083 C1125 0.932 . S
H1084 C1127 0.930 . S
H1085 C1128 0.929 . S
H1086 C1130 0.931 . S
H1087 C1131 0.930 . S
H1088 C1133 0.929 . S
H1089 C1134 0.931 . S
H1090 C1136 0.930 . S
H1091 C1137 0.929 . S
O1092 H1066 0.856 . S
O1092 C1138 1.300 . S
O1093 C1138 1.209 . S
O1094 C1139 1.199 1_545 S
O1095 H1067 0.854 . S
O1095 C1139 1.297 . S
C1096 C1097 1.404 . S
C1096 C1101 1.414 . S
C1096 C1102 1.492 . S
C1097 C1096 1.404 . S
C1097 C1098 1.396 . S
C1097 C1108 1.492 . S
C1098 C1097 1.396 . S
C1098 C1099 1.397 . S
C1098 C1114 1.509 . S
C1099 C1098 1.397 . S
C1099 C1100 1.412 . S
C1099 C1120 1.485 . S
C1100 C1099 1.412 . S
C1100 C1101 1.364 . S
C1100 C1126 1.489 1_565 S
C1101 C1096 1.414 . S
C1101 C1100 1.364 . S
C1101 C1132 1.532 1_565 S
C1102 C1096 1.492 . S
C1102 C1103 1.363 1_565 S
C1102 C1107 1.390 . S
C1103 H1068 0.930 . S
C1103 C1102 1.363 1_545 S
C1103 C1104 1.372 . S
C1104 H1069 0.930 . S
C1104 C1103 1.372 . S
C1104 C1105 1.383 . S
C1105 C1104 1.383 . S
C1105 C1106 1.395 1_545 S
C1106 H1070 0.930 . S
C1106 C1105 1.395 1_565 S
C1106 C1107 1.362 . S
C1107 H1071 0.930 . S
C1107 C1102 1.390 . S
C1107 C1106 1.362 . S
C1108 C1097 1.492 . S
C1108 C1109 1.377 1_565 S
C1108 C1113 1.397 . S
C1109 H1072 0.931 . S
C1109 C1108 1.377 1_545 S
C1109 C1110 1.387 . S
C1110 H1073 0.951 . S
C1110 C1109 1.387 . S
C1110 C1111 1.344 1_545 S
C1111 C1110 1.344 1_565 S
C1111 C1112 1.378 . S
C1111 C1138 1.486 . S
C1112 H1074 0.930 . S
C1112 C1111 1.378 . S
C1112 C1113 1.376 . S
C1113 H1075 0.929 . S
C1113 C1108 1.397 . S
C1113 C1112 1.376 . S
C1114 C1098 1.509 . S
C1114 C1115 1.391 1_565 S
C1114 C1119 1.386 . S
C1115 H1076 0.930 . S
C1115 C1114 1.391 1_545 S
C1115 C1116 1.375 . S
C1116 H1077 0.931 . S
C1116 C1115 1.375 . S
C1116 C1117 1.375 1_545 S
C1117 C1116 1.375 1_565 S
C1117 C1118 1.361 . S
C1118 H1078 0.930 . S
C1118 C1117 1.361 . S
C1118 C1119 1.399 . S
C1119 H1079 0.929 . S
C1119 C1114 1.386 . S
C1119 C1118 1.399 . S
C1120 C1099 1.485 . S
C1120 C1121 1.394 1_565 S
C1120 C1125 1.360 . S
C1121 H1080 0.931 . S
C1121 C1120 1.394 1_545 S
C1121 C1122 1.372 . S
C1122 H1081 0.930 . S
C1122 C1121 1.372 . S
C1122 C1123 1.397 1_545 S
C1123 C1122 1.397 1_565 S
C1123 C1124 1.390 . S
C1123 C1139 1.476 . S
C1124 H1082 0.930 . S
C1124 C1123 1.390 . S
C1124 C1125 1.366 . S
C1125 H1083 0.932 . S
C1125 C1120 1.360 . S
C1125 C1124 1.366 . S
C1126 C1100 1.489 1_545 S
C1126 C1127 1.380 . S
C1126 C1131 1.386 1_545 S
C1127 H1084 0.930 . S
C1127 C1126 1.380 . S
C1127 C1128 1.381 . S
C1128 H1085 0.929 . S
C1128 C1127 1.381 . S
C1128 C1129 1.371 . S
C1129 C1128 1.371 . S
C1129 C1130 1.380 1_545 S
C1130 H1086 0.931 . S
C1130 C1129 1.380 1_565 S
C1130 C1131 1.387 . S
C1131 H1087 0.930 . S
C1131 C1126 1.386 1_565 S
C1131 C1130 1.387 . S
C1132 C1101 1.532 1_545 S
C1132 C1133 1.375 . S
C1132 C1137 1.364 1_545 S
C1133 H1088 0.929 . S
C1133 C1132 1.375 . S
C1133 C1134 1.386 . S
C1134 H1089 0.931 . S
C1134 C1133 1.386 . S
C1134 C1135 1.363 1_545 S
C1135 C1134 1.363 1_565 S
C1135 C1136 1.385 . S
C1136 H1090 0.930 . S
C1136 C1135 1.385 . S
C1136 C1137 1.396 . S
C1137 H1091 0.929 . S
C1137 C1132 1.364 1_565 S
C1137 C1136 1.396 . S
C1138 O1092 1.300 . S
C1138 O1093 1.209 . S
C1138 C1111 1.486 . S
C1139 O1094 1.199 1_565 S
C1139 O1095 1.297 . S
C1139 C1123 1.476 . S
H1140 O1166 0.856 . S
H1141 O1169 0.854 . S
H1142 C1177 0.930 . S
H1143 C1178 0.930 . S
H1144 C1180 0.930 . S
H1145 C1181 0.930 . S
H1146 C1183 0.931 . S
H1147 C1184 0.930 . S
H1148 C1186 0.930 . S
H1149 C1187 0.929 . S
H1150 C1189 0.930 . S
H1151 C1190 0.931 . S
H1152 C1192 0.930 . S
H1153 C1193 0.929 . S
H1154 C1195 0.931 . S
H1155 C1196 0.930 . S
H1156 C1198 0.930 . S
H1157 C1199 0.932 . S
H1158 C1201 0.930 . S
H1159 C1202 0.929 . S
H1160 C1204 0.931 . S
H1161 C1205 0.930 . S
H1162 C1207 0.929 . S
H1163 C1208 0.931 . S
H1164 C1210 0.930 . S
H1165 C1211 0.929 . S
O1166 H1140 0.856 . S
O1166 C1212 1.300 . S
O1167 C1212 1.209 1_565 S
O1168 C1213 1.199 1_545 S
O1169 H1141 0.854 . S
O1169 C1213 1.297 . S
C1170 C1171 1.404 . S
C1170 C1175 1.397 1_545 S
C1170 C1176 1.492 . S
C1171 C1170 1.404 . S
C1171 C1172 1.426 . S
C1171 C1182 1.492 . S
C1172 C1171 1.426 . S
C1172 C1173 1.376 1_545 S
C1172 C1188 1.503 . S
C1173 C1172 1.376 1_565 S
C1173 C1174 1.415 . S
C1173 C1194 1.507 . S
C1174 C1173 1.415 . S
C1174 C1175 1.363 . S
C1174 C1200 1.488 . S
C1175 C1170 1.397 1_565 S
C1175 C1174 1.363 . S
C1175 C1206 1.519 . S
C1176 C1170 1.492 . S
C1176 C1177 1.363 . S
C1176 C1181 1.390 1_545 S
C1177 H1142 0.930 . S
C1177 C1176 1.363 . S
C1177 C1178 1.372 . S
C1178 H1143 0.930 . S
C1178 C1177 1.372 . S
C1178 C1179 1.383 . S
C1179 C1178 1.383 . S
C1179 C1180 1.395 1_545 S
C1180 H1144 0.930 . S
C1180 C1179 1.395 1_565 S
C1180 C1181 1.362 . S
C1181 H1145 0.930 . S
C1181 C1176 1.390 1_565 S
C1181 C1180 1.362 . S
C1182 C1171 1.492 . S
C1182 C1183 1.377 . S
C1182 C1187 1.397 1_545 S
C1183 H1146 0.931 . S
C1183 C1182 1.377 . S
C1183 C1184 1.376 . S
C1184 H1147 0.930 . S
C1184 C1183 1.376 . S
C1184 C1185 1.376 . S
C1185 C1184 1.376 . S
C1185 C1186 1.378 1_545 S
C1185 C1212 1.486 . S
C1186 H1148 0.930 . S
C1186 C1185 1.378 1_565 S
C1186 C1187 1.376 . S
C1187 H1149 0.929 . S
C1187 C1182 1.397 1_565 S
C1187 C1186 1.376 . S
C1188 C1172 1.503 . S
C1188 C1189 1.405 . S
C1188 C1193 1.363 1_545 S
C1189 H1150 0.930 . S
C1189 C1188 1.405 . S
C1189 C1190 1.375 . S
C1190 H1151 0.931 . S
C1190 C1189 1.375 . S
C1190 C1191 1.381 1_545 S
C1191 C1190 1.381 1_565 S
C1191 C1192 1.358 . S
C1192 H1152 0.930 . S
C1192 C1191 1.358 . S
C1192 C1193 1.399 . S
C1193 H1153 0.929 . S
C1193 C1188 1.363 1_565 S
C1193 C1192 1.399 . S
C1194 C1173 1.507 . S
C1194 C1195 1.394 1_565 S
C1194 C1199 1.360 . S
C1195 H1154 0.931 . S
C1195 C1194 1.394 1_545 S
C1195 C1196 1.372 . S
C1196 H1155 0.930 . S
C1196 C1195 1.372 . S
C1196 C1197 1.397 1_545 S
C1197 C1196 1.397 1_565 S
C1197 C1198 1.390 . S
C1197 C1213 1.476 . S
C1198 H1156 0.930 . S
C1198 C1197 1.390 . S
C1198 C1199 1.366 . S
C1199 H1157 0.932 . S
C1199 C1194 1.360 . S
C1199 C1198 1.366 . S
C1200 C1174 1.488 . S
C1200 C1201 1.336 1_565 S
C1200 C1205 1.443 . S
C1201 H1158 0.930 . S
C1201 C1200 1.336 1_545 S
C1201 C1202 1.381 . S
C1202 H1159 0.929 . S
C1202 C1201 1.381 . S
C1202 C1203 1.376 . S
C1203 C1202 1.376 . S
C1203 C1204 1.376 1_545 S
C1204 H1160 0.931 . S
C1204 C1203 1.376 1_565 S
C1204 C1205 1.387 . S
C1205 H1161 0.930 . S
C1205 C1200 1.443 . S
C1205 C1204 1.387 . S
C1206 C1175 1.519 . S
C1206 C1207 1.377 1_565 S
C1206 C1211 1.361 . S
C1207 H1162 0.929 . S
C1207 C1206 1.377 1_545 S
C1207 C1208 1.386 . S
C1208 H1163 0.931 . S
C1208 C1207 1.386 . S
C1208 C1209 1.363 1_545 S
C1209 C1208 1.363 1_565 S
C1209 C1210 1.385 . S
C1210 H1164 0.930 . S
C1210 C1209 1.385 . S
C1210 C1211 1.396 . S
C1211 H1165 0.929 . S
C1211 C1206 1.361 . S
C1211 C1210 1.396 . S
C1212 O1166 1.300 . S
C1212 O1167 1.209 1_545 S
C1212 C1185 1.486 . S
C1213 O1168 1.199 1_565 S
C1213 O1169 1.297 . S
C1213 C1197 1.476 . S
H1214 O1240 0.856 . S
H1215 O1243 0.854 . S
H1216 C1251 0.930 . S
H1217 C1252 0.930 . S
H1218 C1254 0.930 . S
H1219 C1255 0.930 . S
H1220 C1257 0.931 . S
H1221 C1258 0.930 . S
H1222 C1260 0.930 . S
H1223 C1261 0.929 . S
H1224 C1263 0.930 . S
H1225 C1264 0.931 . S
H1226 C1266 0.930 . S
H1227 C1267 0.929 . S
H1228 C1269 0.931 . S
H1229 C1270 0.930 . S
H1230 C1272 0.930 . S
H1231 C1273 0.932 . S
H1232 C1275 0.930 . S
H1233 C1276 0.929 . S
H1234 C1278 0.931 . S
H1235 C1279 0.930 . S
H1236 C1281 0.929 . S
H1237 C1282 0.931 . S
H1238 C1284 0.930 . S
H1239 C1285 0.929 . S
O1240 H1214 0.856 . S
O1240 C1286 1.300 . S
O1241 C1286 1.209 1_455 S
O1242 C1287 1.199 1_655 S
O1243 H1215 0.854 . S
O1243 C1287 1.297 . S
C1244 C1245 1.404 . S
C1244 C1249 1.398 . S
C1244 C1250 1.492 . S
C1245 C1244 1.404 . S
C1245 C1246 1.396 . S
C1245 C1256 1.492 . S
C1246 C1245 1.396 . S
C1246 C1247 1.395 . S
C1246 C1262 1.509 . S
C1247 C1246 1.395 . S
C1247 C1248 1.394 1_655 S
C1247 C1268 1.521 1_655 S
C1248 C1247 1.394 1_455 S
C1248 C1249 1.400 1_455 S
C1248 C1274 1.487 . S
C1249 C1244 1.398 . S
C1249 C1248 1.400 1_655 S
C1249 C1280 1.522 1_655 S
C1250 C1244 1.492 . S
C1250 C1251 1.363 . S
C1250 C1255 1.390 1_655 S
C1251 H1216 0.930 . S
C1251 C1250 1.363 . S
C1251 C1252 1.372 . S
C1252 H1217 0.930 . S
C1252 C1251 1.372 . S
C1252 C1253 1.383 . S
C1253 C1252 1.383 . S
C1253 C1254 1.395 1_655 S
C1254 H1218 0.930 . S
C1254 C1253 1.395 1_455 S
C1254 C1255 1.362 . S
C1255 H1219 0.930 . S
C1255 C1250 1.390 1_455 S
C1255 C1254 1.362 . S
C1256 C1245 1.492 . S
C1256 C1257 1.377 . S
C1256 C1261 1.397 1_655 S
C1257 H1220 0.931 . S
C1257 C1256 1.377 . S
C1257 C1258 1.376 . S
C1258 H1221 0.930 . S
C1258 C1257 1.376 . S
C1258 C1259 1.376 . S
C1259 C1258 1.376 . S
C1259 C1260 1.378 1_655 S
C1259 C1286 1.486 . S
C1260 H1222 0.930 . S
C1260 C1259 1.378 1_455 S
C1260 C1261 1.376 . S
C1261 H1223 0.929 . S
C1261 C1256 1.397 1_455 S
C1261 C1260 1.376 . S
C1262 C1246 1.509 . S
C1262 C1263 1.391 . S
C1262 C1267 1.386 1_655 S
C1263 H1224 0.930 . S
C1263 C1262 1.391 . S
C1263 C1264 1.375 . S
C1264 H1225 0.931 . S
C1264 C1263 1.375 . S
C1264 C1265 1.375 . S
C1265 C1264 1.375 . S
C1265 C1266 1.361 1_655 S
C1266 H1226 0.930 . S
C1266 C1265 1.361 1_455 S
C1266 C1267 1.399 . S
C1267 H1227 0.929 . S
C1267 C1262 1.386 1_455 S
C1267 C1266 1.399 . S
C1268 C1247 1.521 1_455 S
C1268 C1269 1.352 1_455 S
C1268 C1273 1.378 . S
C1269 H1228 0.931 . S
C1269 C1268 1.352 1_655 S
C1269 C1270 1.372 . S
C1270 H1229 0.930 . S
C1270 C1269 1.372 . S
C1270 C1271 1.397 1_655 S
C1271 C1270 1.397 1_455 S
C1271 C1272 1.390 . S
C1271 C1287 1.476 . S
C1272 H1230 0.930 . S
C1272 C1271 1.390 . S
C1272 C1273 1.366 . S
C1273 H1231 0.932 . S
C1273 C1268 1.378 . S
C1273 C1272 1.366 . S
C1274 C1248 1.487 . S
C1274 C1275 1.380 1_455 S
C1274 C1279 1.386 . S
C1275 H1232 0.930 . S
C1275 C1274 1.380 1_655 S
C1275 C1276 1.381 . S
C1276 H1233 0.929 . S
C1276 C1275 1.381 . S
C1276 C1277 1.371 1_655 S
C1277 C1276 1.371 1_455 S
C1277 C1278 1.380 . S
C1278 H1234 0.931 . S
C1278 C1277 1.380 . S
C1278 C1279 1.387 . S
C1279 H1235 0.930 . S
C1279 C1274 1.386 . S
C1279 C1278 1.387 . S
C1280 C1249 1.522 1_455 S
C1280 C1281 1.377 1_455 S
C1280 C1285 1.361 . S
C1281 H1236 0.929 . S
C1281 C1280 1.377 1_655 S
C1281 C1282 1.386 . S
C1282 H1237 0.931 . S
C1282 C1281 1.386 . S
C1282 C1283 1.363 1_655 S
C1283 C1282 1.363 1_455 S
C1283 C1284 1.385 . S
C1284 H1238 0.930 . S
C1284 C1283 1.385 . S
C1284 C1285 1.396 . S
C1285 H1239 0.929 . S
C1285 C1280 1.361 . S
C1285 C1284 1.396 . S
C1286 O1240 1.300 . S
C1286 O1241 1.209 1_655 S
C1286 C1259 1.486 . S
C1287 O1242 1.199 1_455 S
C1287 O1243 1.297 . S
C1287 C1271 1.476 . S
H1288 O1314 0.856 . S
H1289 O1317 0.854 . S
H1290 C1325 0.930 . S
H1291 C1326 0.930 . S
H1292 C1328 0.930 . S
H1293 C1329 0.930 . S
H1294 C1331 0.931 . S
H1295 C1332 0.930 . S
H1296 C1334 0.930 . S
H1297 C1335 0.929 . S
H1298 C1337 0.930 . S
H1299 C1338 0.931 . S
H1300 C1340 0.930 . S
H1301 C1341 0.929 . S
H1302 C1343 0.931 . S
H1303 C1344 0.930 . S
H1304 C1346 0.930 . S
H1305 C1347 0.932 . S
H1306 C1349 0.930 . S
H1307 C1350 0.929 . S
H1308 C1352 0.931 . S
H1309 C1353 0.930 . S
H1310 C1355 0.929 . S
H1311 C1356 0.931 . S
H1312 C1358 0.930 . S
H1313 C1359 0.929 . S
O1314 H1288 0.856 . S
O1314 C1360 1.300 . S
O1315 C1360 1.209 . S
O1316 C1361 1.199 . S
O1317 H1289 0.854 . S
O1317 C1361 1.297 . S
C1318 C1319 1.404 . S
C1318 C1323 1.397 . S
C1318 C1324 1.492 . S
C1319 C1318 1.404 . S
C1319 C1320 1.396 . S
C1319 C1330 1.492 . S
C1320 C1319 1.396 . S
C1320 C1321 1.397 . S
C1320 C1336 1.509 . S
C1321 C1320 1.397 . S
C1321 C1322 1.412 . S
C1321 C1342 1.485 . S
C1322 C1321 1.412 . S
C1322 C1323 1.388 . S
C1322 C1348 1.490 . S
C1323 C1318 1.397 . S
C1323 C1322 1.388 . S
C1323 C1354 1.519 . S
C1324 C1318 1.492 . S
C1324 C1325 1.363 . S
C1324 C1329 1.390 . S
C1325 H1290 0.930 . S
C1325 C1324 1.363 . S
C1325 C1326 1.372 . S
C1326 H1291 0.930 . S
C1326 C1325 1.372 . S
C1326 C1327 1.383 . S
C1327 C1326 1.383 . S
C1327 C1328 1.395 . S
C1328 H1292 0.930 . S
C1328 C1327 1.395 . S
C1328 C1329 1.362 . S
C1329 H1293 0.930 . S
C1329 C1324 1.390 . S
C1329 C1328 1.362 . S
C1330 C1319 1.492 . S
C1330 C1331 1.377 . S
C1330 C1335 1.397 . S
C1331 H1294 0.931 . S
C1331 C1330 1.377 . S
C1331 C1332 1.376 . S
C1332 H1295 0.930 . S
C1332 C1331 1.376 . S
C1332 C1333 1.376 . S
C1333 C1332 1.376 . S
C1333 C1334 1.378 . S
C1333 C1360 1.486 . S
C1334 H1296 0.930 . S
C1334 C1333 1.378 . S
C1334 C1335 1.376 . S
C1335 H1297 0.929 . S
C1335 C1330 1.397 . S
C1335 C1334 1.376 . S
C1336 C1320 1.509 . S
C1336 C1337 1.391 . S
C1336 C1341 1.386 . S
C1337 H1298 0.930 . S
C1337 C1336 1.391 . S
C1337 C1338 1.375 . S
C1338 H1299 0.931 . S
C1338 C1337 1.375 . S
C1338 C1339 1.375 . S
C1339 C1338 1.375 . S
C1339 C1340 1.361 . S
C1340 H1300 0.930 . S
C1340 C1339 1.361 . S
C1340 C1341 1.399 . S
C1341 H1301 0.929 . S
C1341 C1336 1.386 . S
C1341 C1340 1.399 . S
C1342 C1321 1.485 . S
C1342 C1343 1.394 . S
C1342 C1347 1.360 . S
C1343 H1302 0.931 . S
C1343 C1342 1.394 . S
C1343 C1344 1.372 . S
C1344 H1303 0.930 . S
C1344 C1343 1.372 . S
C1344 C1345 1.397 . S
C1345 C1344 1.397 . S
C1345 C1346 1.390 . S
C1345 C1361 1.476 . S
C1346 H1304 0.930 . S
C1346 C1345 1.390 . S
C1346 C1347 1.366 . S
C1347 H1305 0.932 . S
C1347 C1342 1.360 . S
C1347 C1346 1.366 . S
C1348 C1322 1.490 . S
C1348 C1349 1.380 . S
C1348 C1353 1.386 . S
C1349 H1306 0.930 . S
C1349 C1348 1.380 . S
C1349 C1350 1.381 . S
C1350 H1307 0.929 . S
C1350 C1349 1.381 . S
C1350 C1351 1.371 . S
C1351 C1350 1.371 . S
C1351 C1352 1.380 . S
C1352 H1308 0.931 . S
C1352 C1351 1.380 . S
C1352 C1353 1.387 . S
C1353 H1309 0.930 . S
C1353 C1348 1.386 . S
C1353 C1352 1.387 . S
C1354 C1323 1.519 . S
C1354 C1355 1.377 . S
C1354 C1359 1.361 . S
C1355 H1310 0.929 . S
C1355 C1354 1.377 . S
C1355 C1356 1.386 . S
C1356 H1311 0.931 . S
C1356 C1355 1.386 . S
C1356 C1357 1.363 . S
C1357 C1356 1.363 . S
C1357 C1358 1.385 . S
C1358 H1312 0.930 . S
C1358 C1357 1.385 . S
C1358 C1359 1.396 . S
C1359 H1313 0.929 . S
C1359 C1354 1.361 . S
C1359 C1358 1.396 . S
C1360 O1314 1.300 . S
C1360 O1315 1.209 . S
C1360 C1333 1.486 . S
C1361 O1316 1.199 . S
C1361 O1317 1.297 . S
C1361 C1345 1.476 . S
H1362 O1388 0.856 . S
H1363 O1391 0.854 . S
H1364 C1399 0.930 . S
H1365 C1400 0.930 . S
H1366 C1402 0.930 . S
H1367 C1403 0.930 . S
H1368 C1405 0.931 . S
H1369 C1406 0.930 . S
H1370 C1408 0.930 . S
H1371 C1409 0.929 . S
H1372 C1411 0.930 . S
H1373 C1412 0.931 . S
H1374 C1414 0.930 . S
H1375 C1415 0.929 . S
H1376 C1417 0.931 . S
H1377 C1418 0.930 . S
H1378 C1420 0.930 . S
H1379 C1421 0.932 . S
H1380 C1423 0.930 . S
H1381 C1424 0.929 . S
H1382 C1426 0.931 . S
H1383 C1427 0.930 . S
H1384 C1429 0.929 . S
H1385 C1430 0.931 . S
H1386 C1432 0.930 . S
H1387 C1433 0.929 . S
O1388 H1362 0.856 . S
O1388 C1434 1.300 . S
O1389 C1434 1.209 . S
O1390 C1435 1.199 . S
O1391 H1363 0.854 . S
O1391 C1435 1.297 . S
C1392 C1393 1.404 . S
C1392 C1397 1.397 . S
C1392 C1398 1.492 . S
C1393 C1392 1.404 . S
C1393 C1394 1.396 . S
C1393 C1404 1.492 . S
C1394 C1393 1.396 . S
C1394 C1395 1.397 . S
C1394 C1410 1.509 . S
C1395 C1394 1.397 . S
C1395 C1396 1.412 . S
C1395 C1416 1.485 . S
C1396 C1395 1.412 . S
C1396 C1397 1.388 . S
C1396 C1422 1.490 . S
C1397 C1392 1.397 . S
C1397 C1396 1.388 . S
C1397 C1428 1.519 . S
C1398 C1392 1.492 . S
C1398 C1399 1.363 . S
C1398 C1403 1.390 . S
C1399 H1364 0.930 . S
C1399 C1398 1.363 . S
C1399 C1400 1.372 . S
C1400 H1365 0.930 . S
C1400 C1399 1.372 . S
C1400 C1401 1.383 . S
C1401 C1400 1.383 . S
C1401 C1402 1.395 . S
C1402 H1366 0.930 . S
C1402 C1401 1.395 . S
C1402 C1403 1.362 . S
C1403 H1367 0.930 . S
C1403 C1398 1.390 . S
C1403 C1402 1.362 . S
C1404 C1393 1.492 . S
C1404 C1405 1.377 . S
C1404 C1409 1.397 . S
C1405 H1368 0.931 . S
C1405 C1404 1.377 . S
C1405 C1406 1.376 . S
C1406 H1369 0.930 . S
C1406 C1405 1.376 . S
C1406 C1407 1.376 . S
C1407 C1406 1.376 . S
C1407 C1408 1.378 . S
C1407 C1434 1.486 . S
C1408 H1370 0.930 . S
C1408 C1407 1.378 . S
C1408 C1409 1.376 . S
C1409 H1371 0.929 . S
C1409 C1404 1.397 . S
C1409 C1408 1.376 . S
C1410 C1394 1.509 . S
C1410 C1411 1.391 . S
C1410 C1415 1.386 . S
C1411 H1372 0.930 . S
C1411 C1410 1.391 . S
C1411 C1412 1.375 . S
C1412 H1373 0.931 . S
C1412 C1411 1.375 . S
C1412 C1413 1.375 . S
C1413 C1412 1.375 . S
C1413 C1414 1.361 . S
C1414 H1374 0.930 . S
C1414 C1413 1.361 . S
C1414 C1415 1.399 . S
C1415 H1375 0.929 . S
C1415 C1410 1.386 . S
C1415 C1414 1.399 . S
C1416 C1395 1.485 . S
C1416 C1417 1.394 . S
C1416 C1421 1.360 . S
C1417 H1376 0.931 . S
C1417 C1416 1.394 . S
C1417 C1418 1.372 . S
C1418 H1377 0.930 . S
C1418 C1417 1.372 . S
C1418 C1419 1.397 . S
C1419 C1418 1.397 . S
C1419 C1420 1.390 . S
C1419 C1435 1.476 . S
C1420 H1378 0.930 . S
C1420 C1419 1.390 . S
C1420 C1421 1.366 . S
C1421 H1379 0.932 . S
C1421 C1416 1.360 . S
C1421 C1420 1.366 . S
C1422 C1396 1.490 . S
C1422 C1423 1.380 . S
C1422 C1427 1.386 . S
C1423 H1380 0.930 . S
C1423 C1422 1.380 . S
C1423 C1424 1.381 . S
C1424 H1381 0.929 . S
C1424 C1423 1.381 . S
C1424 C1425 1.371 . S
C1425 C1424 1.371 . S
C1425 C1426 1.380 . S
C1426 H1382 0.931 . S
C1426 C1425 1.380 . S
C1426 C1427 1.387 . S
C1427 H1383 0.930 . S
C1427 C1422 1.386 . S
C1427 C1426 1.387 . S
C1428 C1397 1.519 . S
C1428 C1429 1.377 . S
C1428 C1433 1.361 . S
C1429 H1384 0.929 . S
C1429 C1428 1.377 . S
C1429 C1430 1.386 . S
C1430 H1385 0.931 . S
C1430 C1429 1.386 . S
C1430 C1431 1.363 . S
C1431 C1430 1.363 . S
C1431 C1432 1.385 . S
C1432 H1386 0.930 . S
C1432 C1431 1.385 . S
C1432 C1433 1.396 . S
C1433 H1387 0.929 . S
C1433 C1428 1.361 . S
C1433 C1432 1.396 . S
C1434 O1388 1.300 . S
C1434 O1389 1.209 . S
C1434 C1407 1.486 . S
C1435 O1390 1.199 . S
C1435 O1391 1.297 . S
C1435 C1419 1.476 . S
H1436 O1462 0.856 . S
H1437 O1465 0.854 . S
H1438 C1473 0.930 . S
H1439 C1474 0.930 . S
H1440 C1476 0.930 . S
H1441 C1477 0.930 . S
H1442 C1479 0.931 . S
H1443 C1480 0.930 . S
H1444 C1482 0.930 . S
H1445 C1483 0.929 . S
H1446 C1485 0.930 . S
H1447 C1486 0.931 . S
H1448 C1488 0.930 . S
H1449 C1489 0.929 . S
H1450 C1491 0.931 . S
H1451 C1492 0.930 . S
H1452 C1494 0.930 . S
H1453 C1495 0.932 . S
H1454 C1497 0.930 . S
H1455 C1498 0.929 . S
H1456 C1500 0.931 . S
H1457 C1501 0.930 . S
H1458 C1503 0.929 . S
H1459 C1504 0.931 . S
H1460 C1506 0.930 . S
H1461 C1507 0.929 . S
O1462 H1436 0.856 . S
O1462 C1508 1.300 . S
O1463 C1508 1.209 . S
O1464 C1509 1.199 . S
O1465 H1437 0.854 . S
O1465 C1509 1.297 . S
C1466 C1467 1.404 . S
C1466 C1471 1.397 . S
C1466 C1472 1.492 . S
C1467 C1466 1.404 . S
C1467 C1468 1.396 . S
C1467 C1478 1.492 . S
C1468 C1467 1.396 . S
C1468 C1469 1.397 . S
C1468 C1484 1.509 . S
C1469 C1468 1.397 . S
C1469 C1470 1.412 . S
C1469 C1490 1.485 . S
C1470 C1469 1.412 . S
C1470 C1471 1.388 . S
C1470 C1496 1.490 . S
C1471 C1466 1.397 . S
C1471 C1470 1.388 . S
C1471 C1502 1.519 . S
C1472 C1466 1.492 . S
C1472 C1473 1.363 . S
C1472 C1477 1.390 . S
C1473 H1438 0.930 . S
C1473 C1472 1.363 . S
C1473 C1474 1.372 . S
C1474 H1439 0.930 . S
C1474 C1473 1.372 . S
C1474 C1475 1.383 . S
C1475 C1474 1.383 . S
C1475 C1476 1.395 . S
C1476 H1440 0.930 . S
C1476 C1475 1.395 . S
C1476 C1477 1.362 . S
C1477 H1441 0.930 . S
C1477 C1472 1.390 . S
C1477 C1476 1.362 . S
C1478 C1467 1.492 . S
C1478 C1479 1.377 . S
C1478 C1483 1.397 . S
C1479 H1442 0.931 . S
C1479 C1478 1.377 . S
C1479 C1480 1.376 . S
C1480 H1443 0.930 . S
C1480 C1479 1.376 . S
C1480 C1481 1.376 . S
C1481 C1480 1.376 . S
C1481 C1482 1.378 . S
C1481 C1508 1.486 . S
C1482 H1444 0.930 . S
C1482 C1481 1.378 . S
C1482 C1483 1.376 . S
C1483 H1445 0.929 . S
C1483 C1478 1.397 . S
C1483 C1482 1.376 . S
C1484 C1468 1.509 . S
C1484 C1485 1.391 . S
C1484 C1489 1.386 . S
C1485 H1446 0.930 . S
C1485 C1484 1.391 . S
C1485 C1486 1.375 . S
C1486 H1447 0.931 . S
C1486 C1485 1.375 . S
C1486 C1487 1.375 . S
C1487 C1486 1.375 . S
C1487 C1488 1.361 . S
C1488 H1448 0.930 . S
C1488 C1487 1.361 . S
C1488 C1489 1.399 . S
C1489 H1449 0.929 . S
C1489 C1484 1.386 . S
C1489 C1488 1.399 . S
C1490 C1469 1.485 . S
C1490 C1491 1.394 . S
C1490 C1495 1.360 . S
C1491 H1450 0.931 . S
C1491 C1490 1.394 . S
C1491 C1492 1.372 . S
C1492 H1451 0.930 . S
C1492 C1491 1.372 . S
C1492 C1493 1.397 . S
C1493 C1492 1.397 . S
C1493 C1494 1.390 . S
C1493 C1509 1.476 . S
C1494 H1452 0.930 . S
C1494 C1493 1.390 . S
C1494 C1495 1.366 . S
C1495 H1453 0.932 . S
C1495 C1490 1.360 . S
C1495 C1494 1.366 . S
C1496 C1470 1.490 . S
C1496 C1497 1.380 . S
C1496 C1501 1.386 . S
C1497 H1454 0.930 . S
C1497 C1496 1.380 . S
C1497 C1498 1.381 . S
C1498 H1455 0.929 . S
C1498 C1497 1.381 . S
C1498 C1499 1.371 . S
C1499 C1498 1.371 . S
C1499 C1500 1.380 . S
C1500 H1456 0.931 . S
C1500 C1499 1.380 . S
C1500 C1501 1.387 . S
C1501 H1457 0.930 . S
C1501 C1496 1.386 . S
C1501 C1500 1.387 . S
C1502 C1471 1.519 . S
C1502 C1503 1.377 . S
C1502 C1507 1.361 . S
C1503 H1458 0.929 . S
C1503 C1502 1.377 . S
C1503 C1504 1.386 . S
C1504 H1459 0.931 . S
C1504 C1503 1.386 . S
C1504 C1505 1.363 . S
C1505 C1504 1.363 . S
C1505 C1506 1.385 . S
C1506 H1460 0.930 . S
C1506 C1505 1.385 . S
C1506 C1507 1.396 . S
C1507 H1461 0.929 . S
C1507 C1502 1.361 . S
C1507 C1506 1.396 . S
C1508 O1462 1.300 . S
C1508 O1463 1.209 . S
C1508 C1481 1.486 . S
C1509 O1464 1.199 . S
C1509 O1465 1.297 . S
C1509 C1493 1.476 . S
H1510 O1536 0.856 . S
H1511 O1539 0.854 . S
H1512 C1547 0.930 . S
H1513 C1548 0.930 . S
H1514 C1550 0.930 . S
H1515 C1551 0.930 . S
H1516 C1553 0.931 . S
H1517 C1554 0.930 . S
H1518 C1556 0.930 . S
H1519 C1557 0.929 . S
H1520 C1559 0.930 . S
H1521 C1560 0.931 . S
H1522 C1562 0.930 . S
H1523 C1563 0.929 . S
H1524 C1565 0.931 . S
H1525 C1566 0.930 . S
H1526 C1568 0.930 . S
H1527 C1569 0.932 . S
H1528 C1571 0.930 . S
H1529 C1572 0.929 . S
H1530 C1574 0.931 . S
H1531 C1575 0.930 . S
H1532 C1577 0.929 . S
H1533 C1578 0.931 . S
H1534 C1580 0.930 . S
H1535 C1581 0.929 . S
O1536 H1510 0.856 . S
O1536 C1582 1.300 . S
O1537 C1582 1.209 . S
O1538 C1583 1.199 . S
O1539 H1511 0.854 . S
O1539 C1583 1.297 . S
C1540 C1541 1.404 . S
C1540 C1545 1.397 . S
C1540 C1546 1.492 . S
C1541 C1540 1.404 . S
C1541 C1542 1.396 . S
C1541 C1552 1.492 . S
C1542 C1541 1.396 . S
C1542 C1543 1.397 . S
C1542 C1558 1.509 . S
C1543 C1542 1.397 . S
C1543 C1544 1.412 . S
C1543 C1564 1.485 . S
C1544 C1543 1.412 . S
C1544 C1545 1.388 . S
C1544 C1570 1.490 . S
C1545 C1540 1.397 . S
C1545 C1544 1.388 . S
C1545 C1576 1.519 . S
C1546 C1540 1.492 . S
C1546 C1547 1.363 . S
C1546 C1551 1.390 . S
C1547 H1512 0.930 . S
C1547 C1546 1.363 . S
C1547 C1548 1.372 . S
C1548 H1513 0.930 . S
C1548 C1547 1.372 . S
C1548 C1549 1.383 . S
C1549 C1548 1.383 . S
C1549 C1550 1.395 . S
C1550 H1514 0.930 . S
C1550 C1549 1.395 . S
C1550 C1551 1.362 . S
C1551 H1515 0.930 . S
C1551 C1546 1.390 . S
C1551 C1550 1.362 . S
C1552 C1541 1.492 . S
C1552 C1553 1.377 . S
C1552 C1557 1.397 . S
C1553 H1516 0.931 . S
C1553 C1552 1.377 . S
C1553 C1554 1.376 . S
C1554 H1517 0.930 . S
C1554 C1553 1.376 . S
C1554 C1555 1.376 . S
C1555 C1554 1.376 . S
C1555 C1556 1.378 . S
C1555 C1582 1.486 . S
C1556 H1518 0.930 . S
C1556 C1555 1.378 . S
C1556 C1557 1.376 . S
C1557 H1519 0.929 . S
C1557 C1552 1.397 . S
C1557 C1556 1.376 . S
C1558 C1542 1.509 . S
C1558 C1559 1.391 . S
C1558 C1563 1.386 . S
C1559 H1520 0.930 . S
C1559 C1558 1.391 . S
C1559 C1560 1.375 . S
C1560 H1521 0.931 . S
C1560 C1559 1.375 . S
C1560 C1561 1.375 . S
C1561 C1560 1.375 . S
C1561 C1562 1.361 . S
C1562 H1522 0.930 . S
C1562 C1561 1.361 . S
C1562 C1563 1.399 . S
C1563 H1523 0.929 . S
C1563 C1558 1.386 . S
C1563 C1562 1.399 . S
C1564 C1543 1.485 . S
C1564 C1565 1.394 . S
C1564 C1569 1.360 . S
C1565 H1524 0.931 . S
C1565 C1564 1.394 . S
C1565 C1566 1.372 . S
C1566 H1525 0.930 . S
C1566 C1565 1.372 . S
C1566 C1567 1.397 . S
C1567 C1566 1.397 . S
C1567 C1568 1.390 . S
C1567 C1583 1.476 . S
C1568 H1526 0.930 . S
C1568 C1567 1.390 . S
C1568 C1569 1.366 . S
C1569 H1527 0.932 . S
C1569 C1564 1.360 . S
C1569 C1568 1.366 . S
C1570 C1544 1.490 . S
C1570 C1571 1.380 . S
C1570 C1575 1.386 . S
C1571 H1528 0.930 . S
C1571 C1570 1.380 . S
C1571 C1572 1.381 . S
C1572 H1529 0.929 . S
C1572 C1571 1.381 . S
C1572 C1573 1.371 . S
C1573 C1572 1.371 . S
C1573 C1574 1.380 . S
C1574 H1530 0.931 . S
C1574 C1573 1.380 . S
C1574 C1575 1.387 . S
C1575 H1531 0.930 . S
C1575 C1570 1.386 . S
C1575 C1574 1.387 . S
C1576 C1545 1.519 . S
C1576 C1577 1.377 . S
C1576 C1581 1.361 . S
C1577 H1532 0.929 . S
C1577 C1576 1.377 . S
C1577 C1578 1.386 . S
C1578 H1533 0.931 . S
C1578 C1577 1.386 . S
C1578 C1579 1.363 . S
C1579 C1578 1.363 . S
C1579 C1580 1.385 . S
C1580 H1534 0.930 . S
C1580 C1579 1.385 . S
C1580 C1581 1.396 . S
C1581 H1535 0.929 . S
C1581 C1576 1.361 . S
C1581 C1580 1.396 . S
C1582 O1536 1.300 . S
C1582 O1537 1.209 . S
C1582 C1555 1.486 . S
C1583 O1538 1.199 . S
C1583 O1539 1.297 . S
C1583 C1567 1.476 . S
C1584 C1585 1.391 . S
C1584 C1586 1.394 . S
C1584 H1600 0.931 . S
C1585 C1584 1.391 . S
C1585 C1589 1.376 . S
C1586 C1584 1.394 . S
C1586 C1587 1.369 . S
C1586 C1590 1.531 . S
C1587 C1586 1.369 . S
C1587 C1588 1.410 . S
C1587 C1595 1.503 . S
C1588 C1587 1.410 . S
C1588 C1589 1.392 . S
C1588 C1591 1.511 . S
C1589 C1585 1.376 . S
C1589 C1588 1.392 . S
C1589 H1601 0.929 1_655 S
C1590 C1586 1.531 . S
C1590 H1602 0.960 . S
C1590 H1603 0.962 . S
C1590 H1604 0.960 . S
C1591 C1588 1.511 . S
C1591 H1605 0.961 1_655 S
C1591 H1606 0.970 1_655 S
C1591 H1607 0.961 . S
C1592 C1593 1.367 . S
C1592 C1594 1.365 1_655 S
C1592 H1608 0.932 1_655 S
C1593 C1592 1.367 . S
C1593 C1597 1.408 . S
C1594 C1592 1.365 1_455 S
C1594 C1595 1.370 1_455 S
C1594 C1598 1.524 . S
C1595 C1587 1.503 . S
C1595 C1594 1.370 1_655 S
C1595 C1596 1.403 . S
C1596 C1595 1.403 . S
C1596 C1597 1.404 . S
C1596 C1599 1.539 . S
C1597 C1593 1.408 . S
C1597 C1596 1.404 . S
C1597 H1609 0.930 . S
C1598 C1594 1.524 . S
C1598 H1610 0.956 . S
C1598 H1611 0.961 . S
C1598 H1612 0.961 . S
C1599 C1596 1.539 . S
C1599 H1613 0.958 . S
C1599 H1614 0.961 . S
C1599 H1615 0.960 . S
H1600 C1584 0.931 . S
H1601 C1589 0.929 1_455 S
H1602 C1590 0.960 . S
H1603 C1590 0.962 . S
H1604 C1590 0.960 . S
H1605 C1591 0.961 1_455 S
H1606 C1591 0.970 1_455 S
H1607 C1591 0.961 . S
H1608 C1592 0.932 1_455 S
H1609 C1597 0.930 . S
H1610 C1598 0.956 . S
H1611 C1598 0.961 . S
H1612 C1598 0.961 . S
H1613 C1599 0.958 . S
H1614 C1599 0.961 . S
H1615 C1599 0.960 . S
C1616 C1617 1.391 . S
C1616 C1618 1.394 . S
C1616 H1632 0.931 . S
C1617 C1616 1.391 . S
C1617 C1621 1.376 . S
C1618 C1616 1.394 . S
C1618 C1619 1.369 . S
C1618 C1622 1.531 . S
C1619 C1618 1.369 . S
C1619 C1620 1.410 . S
C1619 C1627 1.503 . S
C1620 C1619 1.410 . S
C1620 C1621 1.392 . S
C1620 C1623 1.511 . S
C1621 C1617 1.376 . S
C1621 C1620 1.392 . S
C1621 H1633 0.929 . S
C1622 C1618 1.531 . S
C1622 H1634 0.960 . S
C1622 H1635 0.962 . S
C1622 H1636 0.960 . S
C1623 C1620 1.511 . S
C1623 H1637 0.961 . S
C1623 H1638 0.961 . S
C1623 H1639 0.961 . S
C1624 C1625 1.370 . S
C1624 C1626 1.363 . S
C1624 H1640 0.931 . S
C1625 C1624 1.370 . S
C1625 C1629 1.408 . S
C1626 C1624 1.363 . S
C1626 C1627 1.370 . S
C1626 C1630 1.524 . S
C1627 C1619 1.503 . S
C1627 C1626 1.370 . S
C1627 C1628 1.403 . S
C1628 C1627 1.403 . S
C1628 C1629 1.404 . S
C1628 C1631 1.539 . S
C1629 C1625 1.408 . S
C1629 C1628 1.404 . S
C1629 H1641 0.930 . S
C1630 C1626 1.524 . S
C1630 H1642 0.956 . S
C1630 H1643 0.961 . S
C1630 H1644 0.961 . S
C1631 C1628 1.539 . S
C1631 H1645 0.958 . S
C1631 H1646 0.961 . S
C1631 H1647 0.960 . S
H1632 C1616 0.931 . S
H1633 C1621 0.929 . S
H1634 C1622 0.960 . S
H1635 C1622 0.962 . S
H1636 C1622 0.960 . S
H1637 C1623 0.961 . S
H1638 C1623 0.961 . S
H1639 C1623 0.961 . S
H1640 C1624 0.931 . S
H1641 C1629 0.930 . S
H1642 C1630 0.956 . S
H1643 C1630 0.961 . S
H1644 C1630 0.961 . S
H1645 C1631 0.958 . S
H1646 C1631 0.961 . S
H1647 C1631 0.960 . S
C1648 C1649 1.391 . S
C1648 C1650 1.394 . S
C1648 H1664 0.931 . S
C1649 C1648 1.391 . S
C1649 C1653 1.376 . S
C1650 C1648 1.394 . S
C1650 C1651 1.369 . S
C1650 C1654 1.531 . S
C1651 C1650 1.369 . S
C1651 C1652 1.410 . S
C1651 C1659 1.503 . S
C1652 C1651 1.410 . S
C1652 C1653 1.392 . S
C1652 C1655 1.525 . S
C1653 C1649 1.376 . S
C1653 C1652 1.392 . S
C1653 H1665 0.929 . S
C1654 C1650 1.531 . S
C1654 H1666 0.960 . S
C1654 H1667 0.962 . S
C1654 H1668 0.960 . S
C1655 C1652 1.525 . S
C1655 H1669 0.944 1_545 S
C1655 H1670 0.918 1_545 S
C1655 H1671 1.011 . S
C1656 C1657 1.370 . S
C1656 C1658 1.363 . S
C1656 H1672 0.931 1_545 S
C1657 C1656 1.370 . S
C1657 C1661 1.408 . S
C1658 C1656 1.363 . S
C1658 C1659 1.370 . S
C1658 C1662 1.524 1_545 S
C1659 C1651 1.503 . S
C1659 C1658 1.370 . S
C1659 C1660 1.403 . S
C1660 C1659 1.403 . S
C1660 C1661 1.404 . S
C1660 C1663 1.539 . S
C1661 C1657 1.408 . S
C1661 C1660 1.404 . S
C1661 H1673 0.930 . S
C1662 C1658 1.524 1_565 S
C1662 H1674 0.956 . S
C1662 H1675 0.961 . S
C1662 H1676 0.961 . S
C1663 C1660 1.539 . S
C1663 H1677 0.958 . S
C1663 H1678 0.961 . S
C1663 H1679 0.960 . S
H1664 C1648 0.931 . S
H1665 C1653 0.929 . S
H1666 C1654 0.960 . S
H1667 C1654 0.962 . S
H1668 C1654 0.960 . S
H1669 C1655 0.944 1_565 S
H1670 C1655 0.918 1_565 S
H1671 C1655 1.011 . S
H1672 C1656 0.931 1_565 S
H1673 C1661 0.930 . S
H1674 C1662 0.956 . S
H1675 C1662 0.961 . S
H1676 C1662 0.961 . S
H1677 C1663 0.958 . S
H1678 C1663 0.961 . S
H1679 C1663 0.960 . S
C1680 C1681 1.391 . S
C1680 C1682 1.394 . S
C1680 H1696 0.931 . S
C1681 C1680 1.391 . S
C1681 C1685 1.376 . S
C1682 C1680 1.394 . S
C1682 C1683 1.369 . S
C1682 C1686 1.531 . S
C1683 C1682 1.369 . S
C1683 C1684 1.410 . S
C1683 C1691 1.503 . S
C1684 C1683 1.410 . S
C1684 C1685 1.392 . S
C1684 C1687 1.504 1_565 S
C1685 C1681 1.376 . S
C1685 C1684 1.392 . S
C1685 H1697 0.929 1_565 S
C1686 C1682 1.531 . S
C1686 H1698 0.960 . S
C1686 H1699 0.962 . S
C1686 H1700 0.960 . S
C1687 C1684 1.504 1_545 S
C1687 H1701 0.975 . S
C1687 H1702 0.961 . S
C1687 H1703 0.954 1_545 S
C1688 C1689 1.370 1_545 S
C1688 C1690 1.363 . S
C1688 H1704 0.931 . S
C1689 C1688 1.370 1_565 S
C1689 C1693 1.408 . S
C1690 C1688 1.363 . S
C1690 C1691 1.370 1_545 S
C1690 C1694 1.524 . S
C1691 C1683 1.503 . S
C1691 C1690 1.370 1_565 S
C1691 C1692 1.403 . S
C1692 C1691 1.403 . S
C1692 C1693 1.404 . S
C1692 C1695 1.539 . S
C1693 C1689 1.408 . S
C1693 C1692 1.404 . S
C1693 H1705 0.930 . S
C1694 C1690 1.524 . S
C1694 H1706 0.956 . S
C1694 H1707 0.961 . S
C1694 H1708 0.961 . S
C1695 C1692 1.539 . S
C1695 H1709 0.958 . S
C1695 H1710 0.961 . S
C1695 H1711 0.960 . S
H1696 C1680 0.931 . S
H1697 C1685 0.929 1_545 S
H1698 C1686 0.960 . S
H1699 C1686 0.962 . S
H1700 C1686 0.960 . S
H1701 C1687 0.975 . S
H1702 C1687 0.961 . S
H1703 C1687 0.954 1_565 S
H1704 C1688 0.931 . S
H1705 C1693 0.930 . S
H1706 C1694 0.956 . S
H1707 C1694 0.961 . S
H1708 C1694 0.961 . S
H1709 C1695 0.958 . S
H1710 C1695 0.961 . S
H1711 C1695 0.960 . S
C1712 C1713 1.391 . S
C1712 C1714 1.394 . S
C1712 H1728 0.931 1_455 S
C1713 C1712 1.391 . S
C1713 C1717 1.376 . S
C1714 C1712 1.394 . S
C1714 C1715 1.369 . S
C1714 C1718 1.531 1_455 S
C1715 C1714 1.369 . S
C1715 C1716 1.410 . S
C1715 C1723 1.503 . S
C1716 C1715 1.410 . S
C1716 C1717 1.392 . S
C1716 C1719 1.511 . S
C1717 C1713 1.376 . S
C1717 C1716 1.392 . S
C1717 H1729 0.929 . S
C1718 C1714 1.531 1_655 S
C1718 H1730 0.955 1_655 S
C1718 H1731 0.962 . S
C1718 H1732 0.960 . S
C1719 C1716 1.511 . S
C1719 H1733 0.961 . S
C1719 H1734 0.961 . S
C1719 H1735 0.961 . S
C1720 C1721 1.383 . S
C1720 C1722 1.361 . S
C1720 H1736 0.904 1_455 S
C1721 C1720 1.383 . S
C1721 C1725 1.408 . S
C1722 C1720 1.361 . S
C1722 C1723 1.401 . S
C1722 C1726 1.512 1_455 S
C1723 C1715 1.503 . S
C1723 C1722 1.401 . S
C1723 C1724 1.403 . S
C1724 C1723 1.403 . S
C1724 C1725 1.404 . S
C1724 C1727 1.539 . S
C1725 C1721 1.408 . S
C1725 C1724 1.404 . S
C1725 H1737 0.930 . S
C1726 C1722 1.512 1_655 S
C1726 H1738 0.956 . S
C1726 H1739 0.961 . S
C1726 H1740 0.961 . S
C1727 C1724 1.539 . S
C1727 H1741 0.958 . S
C1727 H1742 0.961 . S
C1727 H1743 0.960 . S
H1728 C1712 0.931 1_655 S
H1729 C1717 0.929 . S
H1730 C1718 0.955 1_455 S
H1731 C1718 0.962 . S
H1732 C1718 0.960 . S
H1733 C1719 0.961 . S
H1734 C1719 0.961 . S
H1735 C1719 0.961 . S
H1736 C1720 0.904 1_655 S
H1737 C1725 0.930 . S
H1738 C1726 0.956 . S
H1739 C1726 0.961 . S
H1740 C1726 0.961 . S
H1741 C1727 0.958 . S
H1742 C1727 0.961 . S
H1743 C1727 0.960 . S
C1744 C1745 1.391 . S
C1744 C1746 1.394 1_554 S
C1744 H1760 0.931 . S
C1745 C1744 1.391 . S
C1745 C1749 1.376 . S
C1746 C1744 1.394 1_556 S
C1746 C1747 1.369 . S
C1746 C1750 1.531 . S
C1747 C1746 1.369 . S
C1747 C1748 1.410 . S
C1747 C1755 1.503 . S
C1748 C1747 1.410 . S
C1748 C1749 1.392 1_556 S
C1748 C1751 1.511 . S
C1749 C1745 1.376 . S
C1749 C1748 1.392 1_554 S
C1749 H1761 0.929 . S
C1750 C1746 1.531 . S
C1750 H1762 0.960 . S
C1750 H1763 0.962 . S
C1750 H1764 0.960 . S
C1751 C1748 1.511 . S
C1751 H1765 0.961 . S
C1751 H1766 0.961 . S
C1751 H1767 0.961 . S
C1752 C1753 1.370 . S
C1752 C1754 1.363 . S
C1752 H1768 0.931 . S
C1753 C1752 1.370 . S
C1753 C1757 1.408 . S
C1754 C1752 1.363 . S
C1754 C1755 1.370 . S
C1754 C1758 1.524 . S
C1755 C1747 1.503 . S
C1755 C1754 1.370 . S
C1755 C1756 1.403 . S
C1756 C1755 1.403 . S
C1756 C1757 1.404 . S
C1756 C1759 1.539 . S
C1757 C1753 1.408 . S
C1757 C1756 1.404 . S
C1757 H1769 0.930 . S
C1758 C1754 1.524 . S
C1758 H1770 0.956 . S
C1758 H1771 0.961 . S
C1758 H1772 0.961 . S
C1759 C1756 1.539 . S
C1759 H1773 0.958 . S
C1759 H1774 0.961 . S
C1759 H1775 0.960 . S
H1760 C1744 0.931 . S
H1761 C1749 0.929 . S
H1762 C1750 0.960 . S
H1763 C1750 0.962 . S
H1764 C1750 0.960 . S
H1765 C1751 0.961 . S
H1766 C1751 0.961 . S
H1767 C1751 0.961 . S
H1768 C1752 0.931 . S
H1769 C1757 0.930 . S
H1770 C1758 0.956 . S
H1771 C1758 0.961 . S
H1772 C1758 0.961 . S
H1773 C1759 0.958 . S
H1774 C1759 0.961 . S
H1775 C1759 0.960 . S
C1776 C1777 1.391 1_656 S
C1776 C1778 1.394 . S
C1776 H1792 0.931 . S
C1777 C1776 1.391 1_454 S
C1777 C1781 1.376 . S
C1778 C1776 1.394 . S
C1778 C1779 1.369 1_655 S
C1778 C1782 1.531 . S
C1779 C1778 1.369 1_455 S
C1779 C1780 1.410 . S
C1779 C1787 1.503 . S
C1780 C1779 1.410 . S
C1780 C1781 1.392 1_556 S
C1780 C1783 1.511 . S
C1781 C1777 1.376 . S
C1781 C1780 1.392 1_554 S
C1781 H1793 0.929 . S
C1782 C1778 1.531 . S
C1782 H1794 0.960 . S
C1782 H1795 0.962 . S
C1782 H1796 0.960 . S
C1783 C1780 1.511 . S
C1783 H1797 0.956 . S
C1783 H1798 0.961 . S
C1783 H1799 0.961 . S
C1784 C1785 1.370 1_655 S
C1784 C1786 1.363 . S
C1784 H1800 0.931 . S
C1785 C1784 1.370 1_455 S
C1785 C1789 1.408 . S
C1786 C1784 1.363 . S
C1786 C1787 1.370 1_655 S
C1786 C1790 1.524 . S
C1787 C1779 1.503 . S
C1787 C1786 1.370 1_455 S
C1787 C1788 1.403 . S
C1788 C1787 1.403 . S
C1788 C1789 1.404 . S
C1788 C1791 1.539 . S
C1789 C1785 1.408 . S
C1789 C1788 1.404 . S
C1789 H1801 0.930 . S
C1790 C1786 1.524 . S
C1790 H1802 0.956 . S
C1790 H1803 0.961 . S
C1790 H1804 0.961 . S
C1791 C1788 1.539 . S
C1791 H1805 0.958 . S
C1791 H1806 0.961 . S
C1791 H1807 0.960 . S
H1792 C1776 0.931 . S
H1793 C1781 0.929 . S
H1794 C1782 0.960 . S
H1795 C1782 0.962 . S
H1796 C1782 0.960 . S
H1797 C1783 0.956 . S
H1798 C1783 0.961 . S
H1799 C1783 0.961 . S
H1800 C1784 0.931 . S
H1801 C1789 0.930 . S
H1802 C1790 0.956 . S
H1803 C1790 0.961 . S
H1804 C1790 0.961 . S
H1805 C1791 0.958 . S
H1806 C1791 0.961 . S
H1807 C1791 0.960 . S
C1808 C1809 1.391 . S
C1808 C1810 1.394 . S
C1808 H1824 0.931 . S
C1809 C1808 1.391 . S
C1809 C1813 1.376 . S
C1810 C1808 1.394 . S
C1810 C1811 1.369 . S
C1810 C1814 1.531 . S
C1811 C1810 1.369 . S
C1811 C1812 1.410 . S
C1811 C1819 1.503 . S
C1812 C1811 1.410 . S
C1812 C1813 1.392 . S
C1812 C1815 1.511 . S
C1813 C1809 1.376 . S
C1813 C1812 1.392 . S
C1813 H1825 0.929 . S
C1814 C1810 1.531 . S
C1814 H1826 0.960 . S
C1814 H1827 0.962 . S
C1814 H1828 0.960 . S
C1815 C1812 1.511 . S
C1815 H1829 0.961 . S
C1815 H1830 0.961 . S
C1815 H1831 0.961 . S
C1816 C1817 1.370 . S
C1816 C1818 1.363 . S
C1816 H1832 0.931 . S
C1817 C1816 1.370 . S
C1817 C1821 1.408 . S
C1818 C1816 1.363 . S
C1818 C1819 1.370 . S
C1818 C1822 1.524 . S
C1819 C1811 1.503 . S
C1819 C1818 1.370 . S
C1819 C1820 1.403 . S
C1820 C1819 1.403 . S
C1820 C1821 1.404 . S
C1820 C1823 1.539 . S
C1821 C1817 1.408 . S
C1821 C1820 1.404 . S
C1821 H1833 0.930 . S
C1822 C1818 1.524 . S
C1822 H1834 0.956 . S
C1822 H1835 0.961 . S
C1822 H1836 0.961 . S
C1823 C1820 1.539 . S
C1823 H1837 0.958 . S
C1823 H1838 0.961 . S
C1823 H1839 0.960 . S
H1824 C1808 0.931 . S
H1825 C1813 0.929 . S
H1826 C1814 0.960 . S
H1827 C1814 0.962 . S
H1828 C1814 0.960 . S
H1829 C1815 0.961 . S
H1830 C1815 0.961 . S
H1831 C1815 0.961 . S
H1832 C1816 0.931 . S
H1833 C1821 0.930 . S
H1834 C1822 0.956 . S
H1835 C1822 0.961 . S
H1836 C1822 0.961 . S
H1837 C1823 0.958 . S
H1838 C1823 0.961 . S
H1839 C1823 0.960 . S
C1840 C1841 1.391 . S
C1840 C1842 1.394 . S
C1840 H1856 0.931 . S
C1841 C1840 1.391 . S
C1841 C1845 1.384 . S
C1842 C1840 1.394 . S
C1842 C1843 1.369 . S
C1842 C1846 1.532 . S
C1843 C1842 1.369 . S
C1843 C1844 1.410 . S
C1843 C1851 1.503 . S
C1844 C1843 1.410 . S
C1844 C1845 1.428 . S
C1844 C1847 1.511 . S
C1845 C1841 1.384 . S
C1845 C1844 1.428 . S
C1845 H1857 0.885 1_556 S
C1846 C1842 1.532 . S
C1846 H1858 0.962 . S
C1846 H1859 0.942 1_565 S
C1846 H1860 0.977 . S
C1847 C1844 1.511 . S
C1847 H1861 0.957 . S
C1847 H1862 0.961 . S
C1847 H1863 0.961 . S
C1848 C1849 1.362 1_545 S
C1848 C1850 1.363 . S
C1848 H1864 0.931 . S
C1849 C1848 1.362 1_565 S
C1849 C1853 1.426 . S
C1850 C1848 1.363 . S
C1850 C1851 1.370 1_545 S
C1850 C1854 1.524 . S
C1851 C1843 1.503 . S
C1851 C1850 1.370 1_565 S
C1851 C1852 1.403 . S
C1852 C1851 1.403 . S
C1852 C1853 1.404 . S
C1852 C1855 1.539 . S
C1853 C1849 1.426 . S
C1853 C1852 1.404 . S
C1853 H1865 0.930 . S
C1854 C1850 1.524 . S
C1854 H1866 0.956 . S
C1854 H1867 0.961 . S
C1854 H1868 0.961 . S
C1855 C1852 1.539 . S
C1855 H1869 0.958 . S
C1855 H1870 0.961 . S
C1855 H1871 0.960 . S
H1856 C1840 0.931 . S
H1857 C1845 0.885 1_554 S
H1858 C1846 0.962 . S
H1859 C1846 0.942 1_545 S
H1860 C1846 0.977 . S
H1861 C1847 0.957 . S
H1862 C1847 0.961 . S
H1863 C1847 0.961 . S
H1864 C1848 0.931 . S
H1865 C1853 0.930 . S
H1866 C1854 0.956 . S
H1867 C1854 0.961 . S
H1868 C1854 0.961 . S
H1869 C1855 0.958 . S
H1870 C1855 0.961 . S
H1871 C1855 0.960 . S
C1872 C1873 1.391 1_565 S
C1872 C1874 1.394 . S
C1872 H1888 0.931 . S
C1873 C1872 1.391 1_545 S
C1873 C1877 1.376 . S
C1874 C1872 1.394 . S
C1874 C1875 1.369 1_565 S
C1874 C1878 1.531 . S
C1875 C1874 1.369 1_545 S
C1875 C1876 1.410 . S
C1875 C1883 1.493 . S
C1876 C1875 1.410 . S
C1876 C1877 1.392 . S
C1876 C1879 1.511 . S
C1877 C1873 1.376 . S
C1877 C1876 1.392 . S
C1877 H1889 0.929 . S
C1878 C1874 1.531 . S
C1878 H1890 0.960 . S
C1878 H1891 0.962 . S
C1878 H1892 0.960 . S
C1879 C1876 1.511 . S
C1879 H1893 0.961 . S
C1879 H1894 0.961 . S
C1879 H1895 0.961 . S
C1880 C1881 1.338 1_545 S
C1880 C1882 1.363 . S
C1880 H1896 0.931 . S
C1881 C1880 1.338 1_565 S
C1881 C1885 1.454 . S
C1882 C1880 1.363 . S
C1882 C1883 1.413 . S
C1882 C1886 1.524 . S
C1883 C1875 1.493 . S
C1883 C1882 1.413 . S
C1883 C1884 1.371 1_545 S
C1884 C1883 1.371 1_565 S
C1884 C1885 1.404 . S
C1884 C1887 1.539 . S
C1885 C1881 1.454 . S
C1885 C1884 1.404 . S
C1885 H1897 0.930 . S
C1886 C1882 1.524 . S
C1886 H1898 0.956 . S
C1886 H1899 0.961 . S
C1886 H1900 0.961 . S
C1887 C1884 1.539 . S
C1887 H1901 0.958 . S
C1887 H1902 0.961 . S
C1887 H1903 0.960 . S
H1888 C1872 0.931 . S
H1889 C1877 0.929 . S
H1890 C1878 0.960 . S
H1891 C1878 0.962 . S
H1892 C1878 0.960 . S
H1893 C1879 0.961 . S
H1894 C1879 0.961 . S
H1895 C1879 0.961 . S
H1896 C1880 0.931 . S
H1897 C1885 0.930 . S
H1898 C1886 0.956 . S
H1899 C1886 0.961 . S
H1900 C1886 0.961 . S
H1901 C1887 0.958 . S
H1902 C1887 0.961 . S
H1903 C1887 0.960 . S
C1904 C1905 1.391 1_455 S
C1904 C1906 1.394 . S
C1904 H1920 0.931 . S
C1905 C1904 1.391 1_655 S
C1905 C1909 1.376 . S
C1906 C1904 1.394 . S
C1906 C1907 1.369 1_455 S
C1906 C1910 1.531 . S
C1907 C1906 1.369 1_655 S
C1907 C1908 1.410 . S
C1907 C1915 1.503 . S
C1908 C1907 1.410 . S
C1908 C1909 1.392 . S
C1908 C1911 1.511 . S
C1909 C1905 1.376 . S
C1909 C1908 1.392 . S
C1909 H1921 0.929 . S
C1910 C1906 1.531 . S
C1910 H1922 0.960 . S
C1910 H1923 0.962 . S
C1910 H1924 0.960 . S
C1911 C1908 1.511 . S
C1911 H1925 0.961 . S
C1911 H1926 0.961 . S
C1911 H1927 0.961 . S
C1912 C1913 1.370 1_455 S
C1912 C1914 1.363 . S
C1912 H1928 0.931 . S
C1913 C1912 1.370 1_655 S
C1913 C1917 1.408 . S
C1914 C1912 1.363 . S
C1914 C1915 1.370 1_455 S
C1914 C1918 1.524 . S
C1915 C1907 1.503 . S
C1915 C1914 1.370 1_655 S
C1915 C1916 1.403 . S
C1916 C1915 1.403 . S
C1916 C1917 1.404 . S
C1916 C1919 1.539 . S
C1917 C1913 1.408 . S
C1917 C1916 1.404 . S
C1917 H1929 0.930 . S
C1918 C1914 1.524 . S
C1918 H1930 0.956 . S
C1918 H1931 0.961 . S
C1918 H1932 0.961 . S
C1919 C1916 1.539 . S
C1919 H1933 0.958 . S
C1919 H1934 0.961 . S
C1919 H1935 0.960 . S
H1920 C1904 0.931 . S
H1921 C1909 0.929 . S
H1922 C1910 0.960 . S
H1923 C1910 0.962 . S
H1924 C1910 0.960 . S
H1925 C1911 0.961 . S
H1926 C1911 0.961 . S
H1927 C1911 0.961 . S
H1928 C1912 0.931 . S
H1929 C1917 0.930 . S
H1930 C1918 0.956 . S
H1931 C1918 0.961 . S
H1932 C1918 0.961 . S
H1933 C1919 0.958 . S
H1934 C1919 0.961 . S
H1935 C1919 0.960 . S
C1936 C1937 1.391 . S
C1936 C1938 1.394 . S
C1936 H1952 0.931 . S
C1937 C1936 1.391 . S
C1937 C1941 1.376 . S
C1938 C1936 1.394 . S
C1938 C1939 1.369 . S
C1938 C1942 1.531 . S
C1939 C1938 1.369 . S
C1939 C1940 1.410 . S
C1939 C1947 1.503 . S
C1940 C1939 1.410 . S
C1940 C1941 1.392 . S
C1940 C1943 1.511 . S
C1941 C1937 1.376 . S
C1941 C1940 1.392 . S
C1941 H1953 0.929 . S
C1942 C1938 1.531 . S
C1942 H1954 0.960 . S
C1942 H1955 0.962 . S
C1942 H1956 0.960 . S
C1943 C1940 1.511 . S
C1943 H1957 0.961 . S
C1943 H1958 0.961 . S
C1943 H1959 0.961 . S
C1944 C1945 1.370 . S
C1944 C1946 1.363 . S
C1944 H1960 0.931 . S
C1945 C1944 1.370 . S
C1945 C1949 1.408 . S
C1946 C1944 1.363 . S
C1946 C1947 1.370 . S
C1946 C1950 1.524 . S
C1947 C1939 1.503 . S
C1947 C1946 1.370 . S
C1947 C1948 1.403 . S
C1948 C1947 1.403 . S
C1948 C1949 1.404 . S
C1948 C1951 1.539 . S
C1949 C1945 1.408 . S
C1949 C1948 1.404 . S
C1949 H1961 0.930 . S
C1950 C1946 1.524 . S
C1950 H1962 0.956 . S
C1950 H1963 0.961 . S
C1950 H1964 0.961 . S
C1951 C1948 1.539 . S
C1951 H1965 0.958 . S
C1951 H1966 0.961 . S
C1951 H1967 0.960 . S
H1952 C1936 0.931 . S
H1953 C1941 0.929 . S
H1954 C1942 0.960 . S
H1955 C1942 0.962 . S
H1956 C1942 0.960 . S
H1957 C1943 0.961 . S
H1958 C1943 0.961 . S
H1959 C1943 0.961 . S
H1960 C1944 0.931 . S
H1961 C1949 0.930 . S
H1962 C1950 0.956 . S
H1963 C1950 0.961 . S
H1964 C1950 0.961 . S
H1965 C1951 0.958 . S
H1966 C1951 0.961 . S
H1967 C1951 0.960 . S
C1968 C1969 1.391 . S
C1968 C1970 1.394 . S
C1968 H1984 0.931 . S
C1969 C1968 1.391 . S
C1969 C1973 1.376 . S
C1970 C1968 1.394 . S
C1970 C1971 1.369 . S
C1970 C1974 1.531 . S
C1971 C1970 1.369 . S
C1971 C1972 1.410 . S
C1971 C1979 1.503 . S
C1972 C1971 1.410 . S
C1972 C1973 1.392 . S
C1972 C1975 1.511 . S
C1973 C1969 1.376 . S
C1973 C1972 1.392 . S
C1973 H1985 0.929 . S
C1974 C1970 1.531 . S
C1974 H1986 0.960 . S
C1974 H1987 0.962 . S
C1974 H1988 0.960 . S
C1975 C1972 1.511 . S
C1975 H1989 0.961 . S
C1975 H1990 0.961 . S
C1975 H1991 0.961 . S
C1976 C1977 1.370 . S
C1976 C1978 1.363 . S
C1976 H1992 0.931 . S
C1977 C1976 1.370 . S
C1977 C1981 1.408 . S
C1978 C1976 1.363 . S
C1978 C1979 1.370 . S
C1978 C1982 1.524 . S
C1979 C1971 1.503 . S
C1979 C1978 1.370 . S
C1979 C1980 1.403 . S
C1980 C1979 1.403 . S
C1980 C1981 1.404 . S
C1980 C1983 1.539 . S
C1981 C1977 1.408 . S
C1981 C1980 1.404 . S
C1981 H1993 0.930 . S
C1982 C1978 1.524 . S
C1982 H1994 0.956 . S
C1982 H1995 0.961 . S
C1982 H1996 0.961 . S
C1983 C1980 1.539 . S
C1983 H1997 0.958 . S
C1983 H1998 0.961 . S
C1983 H1999 0.960 . S
H1984 C1968 0.931 . S
H1985 C1973 0.929 . S
H1986 C1974 0.960 . S
H1987 C1974 0.962 . S
H1988 C1974 0.960 . S
H1989 C1975 0.961 . S
H1990 C1975 0.961 . S
H1991 C1975 0.961 . S
H1992 C1976 0.931 . S
H1993 C1981 0.930 . S
H1994 C1982 0.956 . S
H1995 C1982 0.961 . S
H1996 C1982 0.961 . S
H1997 C1983 0.958 . S
H1998 C1983 0.961 . S
H1999 C1983 0.960 . S
C2000 C2001 1.391 . S
C2000 C2002 1.394 . S
C2000 H2016 0.931 . S
C2001 C2000 1.391 . S
C2001 C2005 1.376 . S
C2002 C2000 1.394 . S
C2002 C2003 1.369 . S
C2002 C2006 1.531 . S
C2003 C2002 1.369 . S
C2003 C2004 1.410 . S
C2003 C2011 1.503 . S
C2004 C2003 1.410 . S
C2004 C2005 1.392 . S
C2004 C2007 1.511 . S
C2005 C2001 1.376 . S
C2005 C2004 1.392 . S
C2005 H2017 0.929 . S
C2006 C2002 1.531 . S
C2006 H2018 0.960 . S
C2006 H2019 0.962 . S
C2006 H2020 0.960 . S
C2007 C2004 1.511 . S
C2007 H2021 0.961 . S
C2007 H2022 0.961 . S
C2007 H2023 0.961 . S
C2008 C2009 1.370 . S
C2008 C2010 1.363 . S
C2008 H2024 0.931 . S
C2009 C2008 1.370 . S
C2009 C2013 1.408 . S
C2010 C2008 1.363 . S
C2010 C2011 1.370 . S
C2010 C2014 1.524 . S
C2011 C2003 1.503 . S
C2011 C2010 1.370 . S
C2011 C2012 1.403 . S
C2012 C2011 1.403 . S
C2012 C2013 1.404 . S
C2012 C2015 1.539 . S
C2013 C2009 1.408 . S
C2013 C2012 1.404 . S
C2013 H2025 0.930 . S
C2014 C2010 1.524 . S
C2014 H2026 0.956 . S
C2014 H2027 0.961 . S
C2014 H2028 0.961 . S
C2015 C2012 1.539 . S
C2015 H2029 0.958 . S
C2015 H2030 0.961 . S
C2015 H2031 0.960 . S
H2016 C2000 0.931 . S
H2017 C2005 0.929 . S
H2018 C2006 0.960 . S
H2019 C2006 0.962 . S
H2020 C2006 0.960 . S
H2021 C2007 0.961 . S
H2022 C2007 0.961 . S
H2023 C2007 0.961 . S
H2024 C2008 0.931 . S
H2025 C2013 0.930 . S
H2026 C2014 0.956 . S
H2027 C2014 0.961 . S
H2028 C2014 0.961 . S
H2029 C2015 0.958 . S
H2030 C2015 0.961 . S
H2031 C2015 0.960 . S
C2032 C2033 1.391 . S
C2032 C2034 1.394 . S
C2032 H2048 0.931 . S
C2033 C2032 1.391 . S
C2033 C2037 1.376 . S
C2034 C2032 1.394 . S
C2034 C2035 1.369 . S
C2034 C2038 1.531 . S
C2035 C2034 1.369 . S
C2035 C2036 1.410 . S
C2035 C2043 1.503 . S
C2036 C2035 1.410 . S
C2036 C2037 1.392 . S
C2036 C2039 1.511 . S
C2037 C2033 1.376 . S
C2037 C2036 1.392 . S
C2037 H2049 0.929 . S
C2038 C2034 1.531 . S
C2038 H2050 0.960 . S
C2038 H2051 0.962 . S
C2038 H2052 0.960 . S
C2039 C2036 1.511 . S
C2039 H2053 0.961 . S
C2039 H2054 0.961 . S
C2039 H2055 0.961 . S
C2040 C2041 1.370 . S
C2040 C2042 1.363 . S
C2040 H2056 0.931 . S
C2041 C2040 1.370 . S
C2041 C2045 1.408 . S
C2042 C2040 1.363 . S
C2042 C2043 1.370 . S
C2042 C2046 1.524 . S
C2043 C2035 1.503 . S
C2043 C2042 1.370 . S
C2043 C2044 1.403 . S
C2044 C2043 1.403 . S
C2044 C2045 1.404 . S
C2044 C2047 1.539 . S
C2045 C2041 1.408 . S
C2045 C2044 1.404 . S
C2045 H2057 0.930 . S
C2046 C2042 1.524 . S
C2046 H2058 0.956 . S
C2046 H2059 0.961 . S
C2046 H2060 0.961 . S
C2047 C2044 1.539 . S
C2047 H2061 0.958 . S
C2047 H2062 0.961 . S
C2047 H2063 0.960 . S
H2048 C2032 0.931 . S
H2049 C2037 0.929 . S
H2050 C2038 0.960 . S
H2051 C2038 0.962 . S
H2052 C2038 0.960 . S
H2053 C2039 0.961 . S
H2054 C2039 0.961 . S
H2055 C2039 0.961 . S
H2056 C2040 0.931 . S
H2057 C2045 0.930 . S
H2058 C2046 0.956 . S
H2059 C2046 0.961 . S
H2060 C2046 0.961 . S
H2061 C2047 0.958 . S
H2062 C2047 0.961 . S
H2063 C2047 0.960 . S
C2064 C2065 1.391 . S
C2064 C2066 1.394 . S
C2064 H2080 0.931 . S
C2065 C2064 1.391 . S
C2065 C2069 1.376 . S
C2066 C2064 1.394 . S
C2066 C2067 1.369 . S
C2066 C2070 1.531 . S
C2067 C2066 1.369 . S
C2067 C2068 1.410 . S
C2067 C2075 1.503 . S
C2068 C2067 1.410 . S
C2068 C2069 1.392 . S
C2068 C2071 1.511 . S
C2069 C2065 1.376 . S
C2069 C2068 1.392 . S
C2069 H2081 0.929 . S
C2070 C2066 1.531 . S
C2070 H2082 0.960 . S
C2070 H2083 0.962 . S
C2070 H2084 0.960 . S
C2071 C2068 1.511 . S
C2071 H2085 0.961 . S
C2071 H2086 0.961 . S
C2071 H2087 0.961 . S
C2072 C2073 1.370 . S
C2072 C2074 1.363 . S
C2072 H2088 0.931 . S
C2073 C2072 1.370 . S
C2073 C2077 1.408 . S
C2074 C2072 1.363 . S
C2074 C2075 1.370 . S
C2074 C2078 1.524 . S
C2075 C2067 1.503 . S
C2075 C2074 1.370 . S
C2075 C2076 1.403 . S
C2076 C2075 1.403 . S
C2076 C2077 1.404 . S
C2076 C2079 1.539 . S
C2077 C2073 1.408 . S
C2077 C2076 1.404 . S
C2077 H2089 0.930 . S
C2078 C2074 1.524 . S
C2078 H2090 0.956 . S
C2078 H2091 0.961 . S
C2078 H2092 0.961 . S
C2079 C2076 1.539 . S
C2079 H2093 0.958 . S
C2079 H2094 0.961 . S
C2079 H2095 0.960 . S
H2080 C2064 0.931 . S
H2081 C2069 0.929 . S
H2082 C2070 0.960 . S
H2083 C2070 0.962 . S
H2084 C2070 0.960 . S
H2085 C2071 0.961 . S
H2086 C2071 0.961 . S
H2087 C2071 0.961 . S
H2088 C2072 0.931 . S
H2089 C2077 0.930 . S
H2090 C2078 0.956 . S
H2091 C2078 0.961 . S
H2092 C2078 0.961 . S
H2093 C2079 0.958 . S
H2094 C2079 0.961 . S
H2095 C2079 0.960 . S
C2096 C2097 1.391 . S
C2096 C2098 1.394 . S
C2096 H2112 0.931 . S
C2097 C2096 1.391 . S
C2097 C2101 1.376 . S
C2098 C2096 1.394 . S
C2098 C2099 1.369 . S
C2098 C2102 1.531 . S
C2099 C2098 1.369 . S
C2099 C2100 1.410 . S
C2099 C2107 1.503 . S
C2100 C2099 1.410 . S
C2100 C2101 1.392 . S
C2100 C2103 1.511 . S
C2101 C2097 1.376 . S
C2101 C2100 1.392 . S
C2101 H2113 0.929 . S
C2102 C2098 1.531 . S
C2102 H2114 0.960 . S
C2102 H2115 0.962 . S
C2102 H2116 0.960 . S
C2103 C2100 1.511 . S
C2103 H2117 0.961 . S
C2103 H2118 0.961 . S
C2103 H2119 0.961 . S
C2104 C2105 1.370 . S
C2104 C2106 1.363 . S
C2104 H2120 0.931 . S
C2105 C2104 1.370 . S
C2105 C2109 1.408 . S
C2106 C2104 1.363 . S
C2106 C2107 1.370 . S
C2106 C2110 1.524 . S
C2107 C2099 1.503 . S
C2107 C2106 1.370 . S
C2107 C2108 1.403 . S
C2108 C2107 1.403 . S
C2108 C2109 1.404 . S
C2108 C2111 1.539 . S
C2109 C2105 1.408 . S
C2109 C2108 1.404 . S
C2109 H2121 0.930 . S
C2110 C2106 1.524 . S
C2110 H2122 0.956 . S
C2110 H2123 0.961 . S
C2110 H2124 0.961 . S
C2111 C2108 1.539 . S
C2111 H2125 0.958 . S
C2111 H2126 0.961 . S
C2111 H2127 0.960 . S
H2112 C2096 0.931 . S
H2113 C2101 0.929 . S
H2114 C2102 0.960 . S
H2115 C2102 0.962 . S
H2116 C2102 0.960 . S
H2117 C2103 0.961 . S
H2118 C2103 0.961 . S
H2119 C2103 0.961 . S
H2120 C2104 0.931 . S
H2121 C2109 0.930 . S
H2122 C2110 0.956 . S
H2123 C2110 0.961 . S
H2124 C2110 0.961 . S
H2125 C2111 0.958 . S
H2126 C2111 0.961 . S
H2127 C2111 0.960 . S
C2128 C2129 1.391 . S
C2128 C2130 1.394 . S
C2128 H2144 0.931 . S
C2129 C2128 1.391 . S
C2129 C2133 1.376 . S
C2130 C2128 1.394 . S
C2130 C2131 1.369 . S
C2130 C2134 1.531 . S
C2131 C2130 1.369 . S
C2131 C2132 1.410 . S
C2131 C2139 1.503 . S
C2132 C2131 1.410 . S
C2132 C2133 1.392 . S
C2132 C2135 1.511 . S
C2133 C2129 1.376 . S
C2133 C2132 1.392 . S
C2133 H2145 0.929 . S
C2134 C2130 1.531 . S
C2134 H2146 0.960 . S
C2134 H2147 0.962 . S
C2134 H2148 0.960 . S
C2135 C2132 1.511 . S
C2135 H2149 0.961 . S
C2135 H2150 0.961 . S
C2135 H2151 0.961 . S
C2136 C2137 1.370 . S
C2136 C2138 1.363 . S
C2136 H2152 0.931 . S
C2137 C2136 1.370 . S
C2137 C2141 1.408 . S
C2138 C2136 1.363 . S
C2138 C2139 1.370 . S
C2138 C2142 1.524 . S
C2139 C2131 1.503 . S
C2139 C2138 1.370 . S
C2139 C2140 1.403 . S
C2140 C2139 1.403 . S
C2140 C2141 1.404 . S
C2140 C2143 1.539 . S
C2141 C2137 1.408 . S
C2141 C2140 1.404 . S
C2141 H2153 0.930 . S
C2142 C2138 1.524 . S
C2142 H2154 0.956 . S
C2142 H2155 0.961 . S
C2142 H2156 0.961 . S
C2143 C2140 1.539 . S
C2143 H2157 0.958 . S
C2143 H2158 0.961 . S
C2143 H2159 0.960 . S
H2144 C2128 0.931 . S
H2145 C2133 0.929 . S
H2146 C2134 0.960 . S
H2147 C2134 0.962 . S
H2148 C2134 0.960 . S
H2149 C2135 0.961 . S
H2150 C2135 0.961 . S
H2151 C2135 0.961 . S
H2152 C2136 0.931 . S
H2153 C2141 0.930 . S
H2154 C2142 0.956 . S
H2155 C2142 0.961 . S
H2156 C2142 0.961 . S
H2157 C2143 0.958 . S
H2158 C2143 0.961 . S
H2159 C2143 0.960 . S
C2160 C2161 1.391 . S
C2160 C2162 1.394 . S
C2160 H2176 0.931 . S
C2161 C2160 1.391 . S
C2161 C2165 1.376 . S
C2162 C2160 1.394 . S
C2162 C2163 1.369 . S
C2162 C2166 1.531 . S
C2163 C2162 1.369 . S
C2163 C2164 1.410 . S
C2163 C2171 1.503 . S
C2164 C2163 1.410 . S
C2164 C2165 1.392 . S
C2164 C2167 1.511 . S
C2165 C2161 1.376 . S
C2165 C2164 1.392 . S
C2165 H2177 0.929 . S
C2166 C2162 1.531 . S
C2166 H2178 0.960 . S
C2166 H2179 0.962 . S
C2166 H2180 0.960 . S
C2167 C2164 1.511 . S
C2167 H2181 0.961 . S
C2167 H2182 0.961 . S
C2167 H2183 0.961 . S
C2168 C2169 1.370 . S
C2168 C2170 1.363 . S
C2168 H2184 0.931 . S
C2169 C2168 1.370 . S
C2169 C2173 1.408 . S
C2170 C2168 1.363 . S
C2170 C2171 1.370 . S
C2170 C2174 1.524 . S
C2171 C2163 1.503 . S
C2171 C2170 1.370 . S
C2171 C2172 1.403 . S
C2172 C2171 1.403 . S
C2172 C2173 1.404 . S
C2172 C2175 1.539 . S
C2173 C2169 1.408 . S
C2173 C2172 1.404 . S
C2173 H2185 0.930 . S
C2174 C2170 1.524 . S
C2174 H2186 0.956 . S
C2174 H2187 0.961 . S
C2174 H2188 0.961 . S
C2175 C2172 1.539 . S
C2175 H2189 0.958 . S
C2175 H2190 0.961 . S
C2175 H2191 0.960 . S
H2176 C2160 0.931 . S
H2177 C2165 0.929 . S
H2178 C2166 0.960 . S
H2179 C2166 0.962 . S
H2180 C2166 0.960 . S
H2181 C2167 0.961 . S
H2182 C2167 0.961 . S
H2183 C2167 0.961 . S
H2184 C2168 0.931 . S
H2185 C2173 0.930 . S
H2186 C2174 0.956 . S
H2187 C2174 0.961 . S
H2188 C2174 0.961 . S
H2189 C2175 0.958 . S
H2190 C2175 0.961 . S
H2191 C2175 0.960 . S
C2192 C2193 1.391 . S
C2192 C2194 1.394 . S
C2192 H2208 0.931 . S
C2193 C2192 1.391 . S
C2193 C2197 1.376 . S
C2194 C2192 1.394 . S
C2194 C2195 1.369 . S
C2194 C2198 1.531 . S
C2195 C2194 1.369 . S
C2195 C2196 1.410 . S
C2195 C2203 1.503 . S
C2196 C2195 1.410 . S
C2196 C2197 1.392 . S
C2196 C2199 1.511 . S
C2197 C2193 1.376 . S
C2197 C2196 1.392 . S
C2197 H2209 0.929 . S
C2198 C2194 1.531 . S
C2198 H2210 0.960 . S
C2198 H2211 0.962 . S
C2198 H2212 0.960 . S
C2199 C2196 1.511 . S
C2199 H2213 0.961 . S
C2199 H2214 0.961 . S
C2199 H2215 0.961 . S
C2200 C2201 1.370 . S
C2200 C2202 1.363 . S
C2200 H2216 0.931 . S
C2201 C2200 1.370 . S
C2201 C2205 1.408 . S
C2202 C2200 1.363 . S
C2202 C2203 1.370 . S
C2202 C2206 1.524 . S
C2203 C2195 1.503 . S
C2203 C2202 1.370 . S
C2203 C2204 1.403 . S
C2204 C2203 1.403 . S
C2204 C2205 1.404 . S
C2204 C2207 1.539 . S
C2205 C2201 1.408 . S
C2205 C2204 1.404 . S
C2205 H2217 0.930 . S
C2206 C2202 1.524 . S
C2206 H2218 0.956 . S
C2206 H2219 0.961 . S
C2206 H2220 0.961 . S
C2207 C2204 1.539 . S
C2207 H2221 0.958 . S
C2207 H2222 0.961 . S
C2207 H2223 0.960 . S
H2208 C2192 0.931 . S
H2209 C2197 0.929 . S
H2210 C2198 0.960 . S
H2211 C2198 0.962 . S
H2212 C2198 0.960 . S
H2213 C2199 0.961 . S
H2214 C2199 0.961 . S
H2215 C2199 0.961 . S
H2216 C2200 0.931 . S
H2217 C2205 0.930 . S
H2218 C2206 0.956 . S
H2219 C2206 0.961 . S
H2220 C2206 0.961 . S
H2221 C2207 0.958 . S
H2222 C2207 0.961 . S
H2223 C2207 0.960 . S
C2224 C2225 1.391 . S
C2224 C2226 1.394 . S
C2224 H2240 0.931 . S
C2225 C2224 1.391 . S
C2225 C2229 1.376 . S
C2226 C2224 1.394 . S
C2226 C2227 1.369 . S
C2226 C2230 1.531 . S
C2227 C2226 1.369 . S
C2227 C2228 1.410 . S
C2227 C2235 1.503 . S
C2228 C2227 1.410 . S
C2228 C2229 1.392 . S
C2228 C2231 1.511 . S
C2229 C2225 1.376 . S
C2229 C2228 1.392 . S
C2229 H2241 0.929 . S
C2230 C2226 1.531 . S
C2230 H2242 0.960 . S
C2230 H2243 0.962 . S
C2230 H2244 0.960 . S
C2231 C2228 1.511 . S
C2231 H2245 0.961 . S
C2231 H2246 0.961 . S
C2231 H2247 0.961 . S
C2232 C2233 1.370 . S
C2232 C2234 1.363 . S
C2232 H2248 0.931 . S
C2233 C2232 1.370 . S
C2233 C2237 1.408 . S
C2234 C2232 1.363 . S
C2234 C2235 1.370 . S
C2234 C2238 1.524 . S
C2235 C2227 1.503 . S
C2235 C2234 1.370 . S
C2235 C2236 1.403 . S
C2236 C2235 1.403 . S
C2236 C2237 1.404 . S
C2236 C2239 1.539 . S
C2237 C2233 1.408 . S
C2237 C2236 1.404 . S
C2237 H2249 0.930 . S
C2238 C2234 1.524 . S
C2238 H2250 0.956 . S
C2238 H2251 0.961 . S
C2238 H2252 0.961 . S
C2239 C2236 1.539 . S
C2239 H2253 0.958 . S
C2239 H2254 0.961 . S
C2239 H2255 0.960 . S
H2240 C2224 0.931 . S
H2241 C2229 0.929 . S
H2242 C2230 0.960 . S
H2243 C2230 0.962 . S
H2244 C2230 0.960 . S
H2245 C2231 0.961 . S
H2246 C2231 0.961 . S
H2247 C2231 0.961 . S
H2248 C2232 0.931 . S
H2249 C2237 0.930 . S
H2250 C2238 0.956 . S
H2251 C2238 0.961 . S
H2252 C2238 0.961 . S
H2253 C2239 0.958 . S
H2254 C2239 0.961 . S
H2255 C2239 0.960 . S
C2256 C2257 1.391 . S
C2256 C2258 1.394 . S
C2256 H2272 0.931 . S
C2257 C2256 1.391 . S
C2257 C2261 1.376 . S
C2258 C2256 1.394 . S
C2258 C2259 1.369 . S
C2258 C2262 1.531 . S
C2259 C2258 1.369 . S
C2259 C2260 1.410 . S
C2259 C2267 1.503 . S
C2260 C2259 1.410 . S
C2260 C2261 1.392 . S
C2260 C2263 1.511 . S
C2261 C2257 1.376 . S
C2261 C2260 1.392 . S
C2261 H2273 0.929 . S
C2262 C2258 1.531 . S
C2262 H2274 0.960 . S
C2262 H2275 0.962 . S
C2262 H2276 0.960 . S
C2263 C2260 1.511 . S
C2263 H2277 0.961 . S
C2263 H2278 0.961 . S
C2263 H2279 0.961 . S
C2264 C2265 1.370 . S
C2264 C2266 1.363 . S
C2264 H2280 0.931 . S
C2265 C2264 1.370 . S
C2265 C2269 1.408 . S
C2266 C2264 1.363 . S
C2266 C2267 1.370 . S
C2266 C2270 1.524 . S
C2267 C2259 1.503 . S
C2267 C2266 1.370 . S
C2267 C2268 1.403 . S
C2268 C2267 1.403 . S
C2268 C2269 1.404 . S
C2268 C2271 1.539 . S
C2269 C2265 1.408 . S
C2269 C2268 1.404 . S
C2269 H2281 0.930 . S
C2270 C2266 1.524 . S
C2270 H2282 0.956 . S
C2270 H2283 0.961 . S
C2270 H2284 0.961 . S
C2271 C2268 1.539 . S
C2271 H2285 0.958 . S
C2271 H2286 0.961 . S
C2271 H2287 0.960 . S
H2272 C2256 0.931 . S
H2273 C2261 0.929 . S
H2274 C2262 0.960 . S
H2275 C2262 0.962 . S
H2276 C2262 0.960 . S
H2277 C2263 0.961 . S
H2278 C2263 0.961 . S
H2279 C2263 0.961 . S
H2280 C2264 0.931 . S
H2281 C2269 0.930 . S
H2282 C2270 0.956 . S
H2283 C2270 0.961 . S
H2284 C2270 0.961 . S
H2285 C2271 0.958 . S
H2286 C2271 0.961 . S
H2287 C2271 0.960 . S
C2288 C2289 1.391 . S
C2288 C2290 1.394 . S
C2288 H2304 0.931 . S
C2289 C2288 1.391 . S
C2289 C2293 1.376 . S
C2290 C2288 1.394 . S
C2290 C2291 1.369 . S
C2290 C2294 1.531 . S
C2291 C2290 1.369 . S
C2291 C2292 1.410 . S
C2291 C2299 1.503 . S
C2292 C2291 1.410 . S
C2292 C2293 1.392 . S
C2292 C2295 1.511 . S
C2293 C2289 1.376 . S
C2293 C2292 1.392 . S
C2293 H2305 0.929 . S
C2294 C2290 1.531 . S
C2294 H2306 0.960 . S
C2294 H2307 0.962 . S
C2294 H2308 0.960 . S
C2295 C2292 1.511 . S
C2295 H2309 0.961 . S
C2295 H2310 0.961 . S
C2295 H2311 0.961 . S
C2296 C2297 1.370 . S
C2296 C2298 1.363 . S
C2296 H2312 0.931 . S
C2297 C2296 1.370 . S
C2297 C2301 1.408 . S
C2298 C2296 1.363 . S
C2298 C2299 1.370 . S
C2298 C2302 1.524 . S
C2299 C2291 1.503 . S
C2299 C2298 1.370 . S
C2299 C2300 1.403 . S
C2300 C2299 1.403 . S
C2300 C2301 1.404 . S
C2300 C2303 1.539 . S
C2301 C2297 1.408 . S
C2301 C2300 1.404 . S
C2301 H2313 0.930 . S
C2302 C2298 1.524 . S
C2302 H2314 0.956 . S
C2302 H2315 0.961 . S
C2302 H2316 0.961 . S
C2303 C2300 1.539 . S
C2303 H2317 0.958 . S
C2303 H2318 0.961 . S
C2303 H2319 0.960 . S
H2304 C2288 0.931 . S
H2305 C2293 0.929 . S
H2306 C2294 0.960 . S
H2307 C2294 0.962 . S
H2308 C2294 0.960 . S
H2309 C2295 0.961 . S
H2310 C2295 0.961 . S
H2311 C2295 0.961 . S
H2312 C2296 0.931 . S
H2313 C2301 0.930 . S
H2314 C2302 0.956 . S
H2315 C2302 0.961 . S
H2316 C2302 0.961 . S
H2317 C2303 0.958 . S
H2318 C2303 0.961 . S
H2319 C2303 0.960 . S
C2320 C2321 1.391 . S
C2320 C2322 1.394 . S
C2320 H2336 0.931 . S
C2321 C2320 1.391 . S
C2321 C2325 1.376 . S
C2322 C2320 1.394 . S
C2322 C2323 1.369 . S
C2322 C2326 1.531 . S
C2323 C2322 1.369 . S
C2323 C2324 1.410 . S
C2323 C2331 1.503 . S
C2324 C2323 1.410 . S
C2324 C2325 1.392 . S
C2324 C2327 1.511 . S
C2325 C2321 1.376 . S
C2325 C2324 1.392 . S
C2325 H2337 0.929 . S
C2326 C2322 1.531 . S
C2326 H2338 0.960 . S
C2326 H2339 0.962 . S
C2326 H2340 0.960 . S
C2327 C2324 1.511 . S
C2327 H2341 0.961 . S
C2327 H2342 0.961 . S
C2327 H2343 0.961 . S
C2328 C2329 1.370 . S
C2328 C2330 1.363 . S
C2328 H2344 0.931 . S
C2329 C2328 1.370 . S
C2329 C2333 1.408 . S
C2330 C2328 1.363 . S
C2330 C2331 1.370 . S
C2330 C2334 1.524 . S
C2331 C2323 1.503 . S
C2331 C2330 1.370 . S
C2331 C2332 1.403 . S
C2332 C2331 1.403 . S
C2332 C2333 1.404 . S
C2332 C2335 1.539 . S
C2333 C2329 1.408 . S
C2333 C2332 1.404 . S
C2333 H2345 0.930 . S
C2334 C2330 1.524 . S
C2334 H2346 0.956 . S
C2334 H2347 0.961 . S
C2334 H2348 0.961 . S
C2335 C2332 1.539 . S
C2335 H2349 0.958 . S
C2335 H2350 0.961 . S
C2335 H2351 0.960 . S
H2336 C2320 0.931 . S
H2337 C2325 0.929 . S
H2338 C2326 0.960 . S
H2339 C2326 0.962 . S
H2340 C2326 0.960 . S
H2341 C2327 0.961 . S
H2342 C2327 0.961 . S
H2343 C2327 0.961 . S
H2344 C2328 0.931 . S
H2345 C2333 0.930 . S
H2346 C2334 0.956 . S
H2347 C2334 0.961 . S
H2348 C2334 0.961 . S
H2349 C2335 0.958 . S
H2350 C2335 0.961 . S
H2351 C2335 0.960 . S
C2352 C2353 1.391 . S
C2352 C2354 1.394 . S
C2352 H2368 0.931 . S
C2353 C2352 1.391 . S
C2353 C2357 1.376 . S
C2354 C2352 1.394 . S
C2354 C2355 1.369 . S
C2354 C2358 1.531 . S
C2355 C2354 1.369 . S
C2355 C2356 1.410 . S
C2355 C2363 1.503 . S
C2356 C2355 1.410 . S
C2356 C2357 1.392 . S
C2356 C2359 1.511 . S
C2357 C2353 1.376 . S
C2357 C2356 1.392 . S
C2357 H2369 0.929 . S
C2358 C2354 1.531 . S
C2358 H2370 0.960 . S
C2358 H2371 0.962 . S
C2358 H2372 0.960 . S
C2359 C2356 1.511 . S
C2359 H2373 0.961 . S
C2359 H2374 0.961 . S
C2359 H2375 0.961 . S
C2360 C2361 1.370 . S
C2360 C2362 1.363 . S
C2360 H2376 0.931 . S
C2361 C2360 1.370 . S
C2361 C2365 1.408 . S
C2362 C2360 1.363 . S
C2362 C2363 1.370 . S
C2362 C2366 1.524 . S
C2363 C2355 1.503 . S
C2363 C2362 1.370 . S
C2363 C2364 1.403 . S
C2364 C2363 1.403 . S
C2364 C2365 1.404 . S
C2364 C2367 1.539 . S
C2365 C2361 1.408 . S
C2365 C2364 1.404 . S
C2365 H2377 0.930 . S
C2366 C2362 1.524 . S
C2366 H2378 0.956 . S
C2366 H2379 0.961 . S
C2366 H2380 0.961 . S
C2367 C2364 1.539 . S
C2367 H2381 0.958 . S
C2367 H2382 0.961 . S
C2367 H2383 0.960 . S
H2368 C2352 0.931 . S
H2369 C2357 0.929 . S
H2370 C2358 0.960 . S
H2371 C2358 0.962 . S
H2372 C2358 0.960 . S
H2373 C2359 0.961 . S
H2374 C2359 0.961 . S
H2375 C2359 0.961 . S
H2376 C2360 0.931 . S
H2377 C2365 0.930 . S
H2378 C2366 0.956 . S
H2379 C2366 0.961 . S
H2380 C2366 0.961 . S
H2381 C2367 0.958 . S
H2382 C2367 0.961 . S
H2383 C2367 0.960 . S
C2384 C2385 1.391 . S
C2384 C2386 1.394 . S
C2384 H2400 0.931 . S
C2385 C2384 1.391 . S
C2385 C2389 1.376 . S
C2386 C2384 1.394 . S
C2386 C2387 1.369 . S
C2386 C2390 1.531 . S
C2387 C2386 1.369 . S
C2387 C2388 1.410 . S
C2387 C2395 1.503 . S
C2388 C2387 1.410 . S
C2388 C2389 1.392 . S
C2388 C2391 1.511 . S
C2389 C2385 1.376 . S
C2389 C2388 1.392 . S
C2389 H2401 0.929 . S
C2390 C2386 1.531 . S
C2390 H2402 0.960 . S
C2390 H2403 0.962 . S
C2390 H2404 0.960 . S
C2391 C2388 1.511 . S
C2391 H2405 0.961 . S
C2391 H2406 0.961 . S
C2391 H2407 0.961 . S
C2392 C2393 1.370 . S
C2392 C2394 1.363 . S
C2392 H2408 0.931 . S
C2393 C2392 1.370 . S
C2393 C2397 1.408 . S
C2394 C2392 1.363 . S
C2394 C2395 1.370 . S
C2394 C2398 1.524 . S
C2395 C2387 1.503 . S
C2395 C2394 1.370 . S
C2395 C2396 1.403 . S
C2396 C2395 1.403 . S
C2396 C2397 1.404 . S
C2396 C2399 1.539 . S
C2397 C2393 1.408 . S
C2397 C2396 1.404 . S
C2397 H2409 0.930 . S
C2398 C2394 1.524 . S
C2398 H2410 0.956 . S
C2398 H2411 0.961 . S
C2398 H2412 0.961 . S
C2399 C2396 1.539 . S
C2399 H2413 0.958 . S
C2399 H2414 0.961 . S
C2399 H2415 0.960 . S
H2400 C2384 0.931 . S
H2401 C2389 0.929 . S
H2402 C2390 0.960 . S
H2403 C2390 0.962 . S
H2404 C2390 0.960 . S
H2405 C2391 0.961 . S
H2406 C2391 0.961 . S
H2407 C2391 0.961 . S
H2408 C2392 0.931 . S
H2409 C2397 0.930 . S
H2410 C2398 0.956 . S
H2411 C2398 0.961 . S
H2412 C2398 0.961 . S
H2413 C2399 0.958 . S
H2414 C2399 0.961 . S
H2415 C2399 0.960 . S
C2416 C2417 1.391 . S
C2416 C2418 1.394 . S
C2416 H2432 0.931 . S
C2417 C2416 1.391 . S
C2417 C2421 1.376 . S
C2418 C2416 1.394 . S
C2418 C2419 1.369 . S
C2418 C2422 1.531 . S
C2419 C2418 1.369 . S
C2419 C2420 1.410 . S
C2419 C2427 1.503 . S
C2420 C2419 1.410 . S
C2420 C2421 1.392 . S
C2420 C2423 1.511 . S
C2421 C2417 1.376 . S
C2421 C2420 1.392 . S
C2421 H2433 0.929 . S
C2422 C2418 1.531 . S
C2422 H2434 0.960 . S
C2422 H2435 0.962 . S
C2422 H2436 0.960 . S
C2423 C2420 1.511 . S
C2423 H2437 0.961 . S
C2423 H2438 0.961 . S
C2423 H2439 0.961 . S
C2424 C2425 1.370 . S
C2424 C2426 1.363 . S
C2424 H2440 0.931 . S
C2425 C2424 1.370 . S
C2425 C2429 1.408 . S
C2426 C2424 1.363 . S
C2426 C2427 1.370 . S
C2426 C2430 1.524 . S
C2427 C2419 1.503 . S
C2427 C2426 1.370 . S
C2427 C2428 1.403 . S
C2428 C2427 1.403 . S
C2428 C2429 1.404 . S
C2428 C2431 1.539 . S
C2429 C2425 1.408 . S
C2429 C2428 1.404 . S
C2429 H2441 0.930 . S
C2430 C2426 1.524 . S
C2430 H2442 0.956 . S
C2430 H2443 0.961 . S
C2430 H2444 0.961 . S
C2431 C2428 1.539 . S
C2431 H2445 0.958 . S
C2431 H2446 0.961 . S
C2431 H2447 0.960 . S
H2432 C2416 0.931 . S
H2433 C2421 0.929 . S
H2434 C2422 0.960 . S
H2435 C2422 0.962 . S
H2436 C2422 0.960 . S
H2437 C2423 0.961 . S
H2438 C2423 0.961 . S
H2439 C2423 0.961 . S
H2440 C2424 0.931 . S
H2441 C2429 0.930 . S
H2442 C2430 0.956 . S
H2443 C2430 0.961 . S
H2444 C2430 0.961 . S
H2445 C2431 0.958 . S
H2446 C2431 0.961 . S
H2447 C2431 0.960 . S
C2448 C2449 1.391 . S
C2448 C2450 1.394 . S
C2448 H2464 0.931 . S
C2449 C2448 1.391 . S
C2449 C2453 1.376 . S
C2450 C2448 1.394 . S
C2450 C2451 1.369 . S
C2450 C2454 1.531 . S
C2451 C2450 1.369 . S
C2451 C2452 1.410 . S
C2451 C2459 1.503 . S
C2452 C2451 1.410 . S
C2452 C2453 1.392 . S
C2452 C2455 1.511 . S
C2453 C2449 1.376 . S
C2453 C2452 1.392 . S
C2453 H2465 0.929 . S
C2454 C2450 1.531 . S
C2454 H2466 0.960 . S
C2454 H2467 0.962 . S
C2454 H2468 0.960 . S
C2455 C2452 1.511 . S
C2455 H2469 0.961 . S
C2455 H2470 0.961 . S
C2455 H2471 0.961 . S
C2456 C2457 1.370 . S
C2456 C2458 1.363 . S
C2456 H2472 0.931 . S
C2457 C2456 1.370 . S
C2457 C2461 1.408 . S
C2458 C2456 1.363 . S
C2458 C2459 1.370 . S
C2458 C2462 1.524 . S
C2459 C2451 1.503 . S
C2459 C2458 1.370 . S
C2459 C2460 1.403 . S
C2460 C2459 1.403 . S
C2460 C2461 1.404 . S
C2460 C2463 1.539 . S
C2461 C2457 1.408 . S
C2461 C2460 1.404 . S
C2461 H2473 0.930 . S
C2462 C2458 1.524 . S
C2462 H2474 0.956 . S
C2462 H2475 0.961 . S
C2462 H2476 0.961 . S
C2463 C2460 1.539 . S
C2463 H2477 0.958 . S
C2463 H2478 0.961 . S
C2463 H2479 0.960 . S
H2464 C2448 0.931 . S
H2465 C2453 0.929 . S
H2466 C2454 0.960 . S
H2467 C2454 0.962 . S
H2468 C2454 0.960 . S
H2469 C2455 0.961 . S
H2470 C2455 0.961 . S
H2471 C2455 0.961 . S
H2472 C2456 0.931 . S
H2473 C2461 0.930 . S
H2474 C2462 0.956 . S
H2475 C2462 0.961 . S
H2476 C2462 0.961 . S
H2477 C2463 0.958 . S
H2478 C2463 0.961 . S
H2479 C2463 0.960 . S
C2480 C2481 1.391 . S
C2480 C2482 1.394 . S
C2480 H2496 0.931 . S
C2481 C2480 1.391 . S
C2481 C2485 1.376 . S
C2482 C2480 1.394 . S
C2482 C2483 1.369 . S
C2482 C2486 1.531 . S
C2483 C2482 1.369 . S
C2483 C2484 1.410 . S
C2483 C2491 1.503 . S
C2484 C2483 1.410 . S
C2484 C2485 1.392 . S
C2484 C2487 1.511 . S
C2485 C2481 1.376 . S
C2485 C2484 1.392 . S
C2485 H2497 0.929 . S
C2486 C2482 1.531 . S
C2486 H2498 0.960 . S
C2486 H2499 0.962 . S
C2486 H2500 0.960 . S
C2487 C2484 1.511 . S
C2487 H2501 0.961 . S
C2487 H2502 0.961 . S
C2487 H2503 0.961 . S
C2488 C2489 1.370 . S
C2488 C2490 1.363 . S
C2488 H2504 0.931 . S
C2489 C2488 1.370 . S
C2489 C2493 1.408 . S
C2490 C2488 1.363 . S
C2490 C2491 1.370 . S
C2490 C2494 1.524 . S
C2491 C2483 1.503 . S
C2491 C2490 1.370 . S
C2491 C2492 1.403 . S
C2492 C2491 1.403 . S
C2492 C2493 1.404 . S
C2492 C2495 1.539 . S
C2493 C2489 1.408 . S
C2493 C2492 1.404 . S
C2493 H2505 0.930 . S
C2494 C2490 1.524 . S
C2494 H2506 0.956 . S
C2494 H2507 0.961 . S
C2494 H2508 0.961 . S
C2495 C2492 1.539 . S
C2495 H2509 0.958 . S
C2495 H2510 0.961 . S
C2495 H2511 0.960 . S
H2496 C2480 0.931 . S
H2497 C2485 0.929 . S
H2498 C2486 0.960 . S
H2499 C2486 0.962 . S
H2500 C2486 0.960 . S
H2501 C2487 0.961 . S
H2502 C2487 0.961 . S
H2503 C2487 0.961 . S
H2504 C2488 0.931 . S
H2505 C2493 0.930 . S
H2506 C2494 0.956 . S
H2507 C2494 0.961 . S
H2508 C2494 0.961 . S
H2509 C2495 0.958 . S
H2510 C2495 0.961 . S
H2511 C2495 0.960 . S
C2512 C2513 1.391 . S
C2512 C2514 1.394 . S
C2512 H2528 0.931 . S
C2513 C2512 1.391 . S
C2513 C2517 1.376 . S
C2514 C2512 1.394 . S
C2514 C2515 1.369 . S
C2514 C2518 1.531 . S
C2515 C2514 1.369 . S
C2515 C2516 1.410 . S
C2515 C2523 1.503 . S
C2516 C2515 1.410 . S
C2516 C2517 1.392 . S
C2516 C2519 1.511 . S
C2517 C2513 1.376 . S
C2517 C2516 1.392 . S
C2517 H2529 0.929 . S
C2518 C2514 1.531 . S
C2518 H2530 0.960 . S
C2518 H2531 0.962 . S
C2518 H2532 0.960 . S
C2519 C2516 1.511 . S
C2519 H2533 0.961 . S
C2519 H2534 0.961 . S
C2519 H2535 0.961 . S
C2520 C2521 1.370 . S
C2520 C2522 1.363 . S
C2520 H2536 0.931 . S
C2521 C2520 1.370 . S
C2521 C2525 1.408 . S
C2522 C2520 1.363 . S
C2522 C2523 1.370 . S
C2522 C2526 1.524 . S
C2523 C2515 1.503 . S
C2523 C2522 1.370 . S
C2523 C2524 1.403 . S
C2524 C2523 1.403 . S
C2524 C2525 1.404 . S
C2524 C2527 1.539 . S
C2525 C2521 1.408 . S
C2525 C2524 1.404 . S
C2525 H2537 0.930 . S
C2526 C2522 1.524 . S
C2526 H2538 0.956 . S
C2526 H2539 0.961 . S
C2526 H2540 0.961 . S
C2527 C2524 1.539 . S
C2527 H2541 0.958 . S
C2527 H2542 0.961 . S
C2527 H2543 0.960 . S
H2528 C2512 0.931 . S
H2529 C2517 0.929 . S
H2530 C2518 0.960 . S
H2531 C2518 0.962 . S
H2532 C2518 0.960 . S
H2533 C2519 0.961 . S
H2534 C2519 0.961 . S
H2535 C2519 0.961 . S
H2536 C2520 0.931 . S
H2537 C2525 0.930 . S
H2538 C2526 0.956 . S
H2539 C2526 0.961 . S
H2540 C2526 0.961 . S
H2541 C2527 0.958 . S
H2542 C2527 0.961 . S
H2543 C2527 0.960 . S
C2544 C2545 1.391 . S
C2544 C2546 1.394 . S
C2544 H2560 0.931 . S
C2545 C2544 1.391 . S
C2545 C2549 1.376 . S
C2546 C2544 1.394 . S
C2546 C2547 1.369 . S
C2546 C2550 1.531 . S
C2547 C2546 1.369 . S
C2547 C2548 1.410 . S
C2547 C2555 1.503 . S
C2548 C2547 1.410 . S
C2548 C2549 1.392 . S
C2548 C2551 1.511 . S
C2549 C2545 1.376 . S
C2549 C2548 1.392 . S
C2549 H2561 0.929 . S
C2550 C2546 1.531 . S
C2550 H2562 0.960 . S
C2550 H2563 0.962 . S
C2550 H2564 0.960 . S
C2551 C2548 1.511 . S
C2551 H2565 0.961 . S
C2551 H2566 0.961 . S
C2551 H2567 0.961 . S
C2552 C2553 1.370 . S
C2552 C2554 1.363 . S
C2552 H2568 0.931 . S
C2553 C2552 1.370 . S
C2553 C2557 1.408 . S
C2554 C2552 1.363 . S
C2554 C2555 1.370 . S
C2554 C2558 1.524 . S
C2555 C2547 1.503 . S
C2555 C2554 1.370 . S
C2555 C2556 1.403 . S
C2556 C2555 1.403 . S
C2556 C2557 1.404 . S
C2556 C2559 1.539 . S
C2557 C2553 1.408 . S
C2557 C2556 1.404 . S
C2557 H2569 0.930 . S
C2558 C2554 1.524 . S
C2558 H2570 0.956 . S
C2558 H2571 0.961 . S
C2558 H2572 0.961 . S
C2559 C2556 1.539 . S
C2559 H2573 0.958 . S
C2559 H2574 0.961 . S
C2559 H2575 0.960 . S
H2560 C2544 0.931 . S
H2561 C2549 0.929 . S
H2562 C2550 0.960 . S
H2563 C2550 0.962 . S
H2564 C2550 0.960 . S
H2565 C2551 0.961 . S
H2566 C2551 0.961 . S
H2567 C2551 0.961 . S
H2568 C2552 0.931 . S
H2569 C2557 0.930 . S
H2570 C2558 0.956 . S
H2571 C2558 0.961 . S
H2572 C2558 0.961 . S
H2573 C2559 0.958 . S
H2574 C2559 0.961 . S
H2575 C2559 0.960 . S
C2576 C2577 1.391 . S
C2576 C2578 1.394 . S
C2576 H2592 0.931 . S
C2577 C2576 1.391 . S
C2577 C2581 1.376 . S
C2578 C2576 1.394 . S
C2578 C2579 1.369 . S
C2578 C2582 1.531 . S
C2579 C2578 1.369 . S
C2579 C2580 1.410 . S
C2579 C2587 1.503 . S
C2580 C2579 1.410 . S
C2580 C2581 1.392 . S
C2580 C2583 1.511 . S
C2581 C2577 1.376 . S
C2581 C2580 1.392 . S
C2581 H2593 0.929 . S
C2582 C2578 1.531 . S
C2582 H2594 0.960 . S
C2582 H2595 0.962 . S
C2582 H2596 0.960 . S
C2583 C2580 1.511 . S
C2583 H2597 0.961 . S
C2583 H2598 0.961 . S
C2583 H2599 0.961 . S
C2584 C2585 1.370 . S
C2584 C2586 1.363 . S
C2584 H2600 0.931 . S
C2585 C2584 1.370 . S
C2585 C2589 1.408 . S
C2586 C2584 1.363 . S
C2586 C2587 1.370 . S
C2586 C2590 1.524 . S
C2587 C2579 1.503 . S
C2587 C2586 1.370 . S
C2587 C2588 1.403 . S
C2588 C2587 1.403 . S
C2588 C2589 1.404 . S
C2588 C2591 1.539 . S
C2589 C2585 1.408 . S
C2589 C2588 1.404 . S
C2589 H2601 0.930 . S
C2590 C2586 1.524 . S
C2590 H2602 0.956 . S
C2590 H2603 0.961 . S
C2590 H2604 0.961 . S
C2591 C2588 1.539 . S
C2591 H2605 0.958 . S
C2591 H2606 0.961 . S
C2591 H2607 0.960 . S
H2592 C2576 0.931 . S
H2593 C2581 0.929 . S
H2594 C2582 0.960 . S
H2595 C2582 0.962 . S
H2596 C2582 0.960 . S
H2597 C2583 0.961 . S
H2598 C2583 0.961 . S
H2599 C2583 0.961 . S
H2600 C2584 0.931 . S
H2601 C2589 0.930 . S
H2602 C2590 0.956 . S
H2603 C2590 0.961 . S
H2604 C2590 0.961 . S
H2605 C2591 0.958 . S
H2606 C2591 0.961 . S
H2607 C2591 0.960 . S
C2608 C2609 1.391 . S
C2608 C2610 1.394 . S
C2608 H2624 0.931 . S
C2609 C2608 1.391 . S
C2609 C2613 1.376 . S
C2610 C2608 1.394 . S
C2610 C2611 1.369 . S
C2610 C2614 1.531 . S
C2611 C2610 1.369 . S
C2611 C2612 1.410 . S
C2611 C2619 1.503 . S
C2612 C2611 1.410 . S
C2612 C2613 1.392 . S
C2612 C2615 1.511 . S
C2613 C2609 1.376 . S
C2613 C2612 1.392 . S
C2613 H2625 0.929 . S
C2614 C2610 1.531 . S
C2614 H2626 0.960 . S
C2614 H2627 0.962 . S
C2614 H2628 0.960 . S
C2615 C2612 1.511 . S
C2615 H2629 0.961 . S
C2615 H2630 0.961 . S
C2615 H2631 0.961 . S
C2616 C2617 1.370 . S
C2616 C2618 1.363 . S
C2616 H2632 0.931 . S
C2617 C2616 1.370 . S
C2617 C2621 1.408 . S
C2618 C2616 1.363 . S
C2618 C2619 1.370 . S
C2618 C2622 1.524 . S
C2619 C2611 1.503 . S
C2619 C2618 1.370 . S
C2619 C2620 1.403 . S
C2620 C2619 1.403 . S
C2620 C2621 1.404 . S
C2620 C2623 1.539 . S
C2621 C2617 1.408 . S
C2621 C2620 1.404 . S
C2621 H2633 0.930 . S
C2622 C2618 1.524 . S
C2622 H2634 0.956 . S
C2622 H2635 0.961 . S
C2622 H2636 0.961 . S
C2623 C2620 1.539 . S
C2623 H2637 0.958 . S
C2623 H2638 0.961 . S
C2623 H2639 0.960 . S
H2624 C2608 0.931 . S
H2625 C2613 0.929 . S
H2626 C2614 0.960 . S
H2627 C2614 0.962 . S
H2628 C2614 0.960 . S
H2629 C2615 0.961 . S
H2630 C2615 0.961 . S
H2631 C2615 0.961 . S
H2632 C2616 0.931 . S
H2633 C2621 0.930 . S
H2634 C2622 0.956 . S
H2635 C2622 0.961 . S
H2636 C2622 0.961 . S
H2637 C2623 0.958 . S
H2638 C2623 0.961 . S
H2639 C2623 0.960 . S
C2640 C2641 1.391 . S
C2640 C2642 1.394 . S
C2640 H2656 0.931 . S
C2641 C2640 1.391 . S
C2641 C2645 1.376 . S
C2642 C2640 1.394 . S
C2642 C2643 1.369 . S
C2642 C2646 1.531 . S
C2643 C2642 1.369 . S
C2643 C2644 1.410 . S
C2643 C2651 1.503 . S
C2644 C2643 1.410 . S
C2644 C2645 1.392 . S
C2644 C2647 1.511 . S
C2645 C2641 1.376 . S
C2645 C2644 1.392 . S
C2645 H2657 0.929 . S
C2646 C2642 1.531 . S
C2646 H2658 0.960 . S
C2646 H2659 0.962 . S
C2646 H2660 0.960 . S
C2647 C2644 1.511 . S
C2647 H2661 0.961 . S
C2647 H2662 0.961 . S
C2647 H2663 0.961 . S
C2648 C2649 1.370 . S
C2648 C2650 1.363 . S
C2648 H2664 0.931 . S
C2649 C2648 1.370 . S
C2649 C2653 1.408 . S
C2650 C2648 1.363 . S
C2650 C2651 1.370 . S
C2650 C2654 1.524 . S
C2651 C2643 1.503 . S
C2651 C2650 1.370 . S
C2651 C2652 1.403 . S
C2652 C2651 1.403 . S
C2652 C2653 1.404 . S
C2652 C2655 1.539 . S
C2653 C2649 1.408 . S
C2653 C2652 1.404 . S
C2653 H2665 0.930 . S
C2654 C2650 1.524 . S
C2654 H2666 0.956 . S
C2654 H2667 0.961 . S
C2654 H2668 0.961 . S
C2655 C2652 1.539 . S
C2655 H2669 0.958 . S
C2655 H2670 0.961 . S
C2655 H2671 0.960 . S
H2656 C2640 0.931 . S
H2657 C2645 0.929 . S
H2658 C2646 0.960 . S
H2659 C2646 0.962 . S
H2660 C2646 0.960 . S
H2661 C2647 0.961 . S
H2662 C2647 0.961 . S
H2663 C2647 0.961 . S
H2664 C2648 0.931 . S
H2665 C2653 0.930 . S
H2666 C2654 0.956 . S
H2667 C2654 0.961 . S
H2668 C2654 0.961 . S
H2669 C2655 0.958 . S
H2670 C2655 0.961 . S
H2671 C2655 0.960 . S
C2672 C2673 1.391 . S
C2672 C2674 1.394 . S
C2672 H2688 0.931 . S
C2673 C2672 1.391 . S
C2673 C2677 1.376 . S
C2674 C2672 1.394 . S
C2674 C2675 1.369 . S
C2674 C2678 1.531 . S
C2675 C2674 1.369 . S
C2675 C2676 1.410 . S
C2675 C2683 1.503 . S
C2676 C2675 1.410 . S
C2676 C2677 1.392 . S
C2676 C2679 1.511 . S
C2677 C2673 1.376 . S
C2677 C2676 1.392 . S
C2677 H2689 0.929 . S
C2678 C2674 1.531 . S
C2678 H2690 0.960 . S
C2678 H2691 0.962 . S
C2678 H2692 0.960 . S
C2679 C2676 1.511 . S
C2679 H2693 0.961 . S
C2679 H2694 0.961 . S
C2679 H2695 0.961 . S
C2680 C2681 1.370 . S
C2680 C2682 1.363 . S
C2680 H2696 0.931 . S
C2681 C2680 1.370 . S
C2681 C2685 1.408 . S
C2682 C2680 1.363 . S
C2682 C2683 1.370 . S
C2682 C2686 1.524 . S
C2683 C2675 1.503 . S
C2683 C2682 1.370 . S
C2683 C2684 1.403 . S
C2684 C2683 1.403 . S
C2684 C2685 1.404 . S
C2684 C2687 1.539 . S
C2685 C2681 1.408 . S
C2685 C2684 1.404 . S
C2685 H2697 0.930 . S
C2686 C2682 1.524 . S
C2686 H2698 0.956 . S
C2686 H2699 0.961 . S
C2686 H2700 0.961 . S
C2687 C2684 1.539 . S
C2687 H2701 0.958 . S
C2687 H2702 0.961 . S
C2687 H2703 0.960 . S
H2688 C2672 0.931 . S
H2689 C2677 0.929 . S
H2690 C2678 0.960 . S
H2691 C2678 0.962 . S
H2692 C2678 0.960 . S
H2693 C2679 0.961 . S
H2694 C2679 0.961 . S
H2695 C2679 0.961 . S
H2696 C2680 0.931 . S
H2697 C2685 0.930 . S
H2698 C2686 0.956 . S
H2699 C2686 0.961 . S
H2700 C2686 0.961 . S
H2701 C2687 0.958 . S
H2702 C2687 0.961 . S
H2703 C2687 0.960 . S
C2704 C2705 1.391 . S
C2704 C2706 1.394 . S
C2704 H2720 0.931 . S
C2705 C2704 1.391 . S
C2705 C2709 1.376 . S
C2706 C2704 1.394 . S
C2706 C2707 1.369 . S
C2706 C2710 1.531 . S
C2707 C2706 1.369 . S
C2707 C2708 1.410 . S
C2707 C2715 1.503 . S
C2708 C2707 1.410 . S
C2708 C2709 1.392 . S
C2708 C2711 1.511 . S
C2709 C2705 1.376 . S
C2709 C2708 1.392 . S
C2709 H2721 0.929 . S
C2710 C2706 1.531 . S
C2710 H2722 0.960 . S
C2710 H2723 0.962 . S
C2710 H2724 0.960 . S
C2711 C2708 1.511 . S
C2711 H2725 0.961 . S
C2711 H2726 0.961 . S
C2711 H2727 0.961 . S
C2712 C2713 1.370 . S
C2712 C2714 1.363 . S
C2712 H2728 0.931 . S
C2713 C2712 1.370 . S
C2713 C2717 1.408 . S
C2714 C2712 1.363 . S
C2714 C2715 1.370 . S
C2714 C2718 1.524 . S
C2715 C2707 1.503 . S
C2715 C2714 1.370 . S
C2715 C2716 1.403 . S
C2716 C2715 1.403 . S
C2716 C2717 1.404 . S
C2716 C2719 1.539 . S
C2717 C2713 1.408 . S
C2717 C2716 1.404 . S
C2717 H2729 0.930 . S
C2718 C2714 1.524 . S
C2718 H2730 0.956 . S
C2718 H2731 0.961 . S
C2718 H2732 0.961 . S
C2719 C2716 1.539 . S
C2719 H2733 0.958 . S
C2719 H2734 0.961 . S
C2719 H2735 0.960 . S
H2720 C2704 0.931 . S
H2721 C2709 0.929 . S
H2722 C2710 0.960 . S
H2723 C2710 0.962 . S
H2724 C2710 0.960 . S
H2725 C2711 0.961 . S
H2726 C2711 0.961 . S
H2727 C2711 0.961 . S
H2728 C2712 0.931 . S
H2729 C2717 0.930 . S
H2730 C2718 0.956 . S
H2731 C2718 0.961 . S
H2732 C2718 0.961 . S
H2733 C2719 0.958 . S
H2734 C2719 0.961 . S
H2735 C2719 0.960 . S
C2736 C2737 1.391 . S
C2736 C2738 1.394 . S
C2736 H2752 0.931 . S
C2737 C2736 1.391 . S
C2737 C2741 1.376 . S
C2738 C2736 1.394 . S
C2738 C2739 1.369 . S
C2738 C2742 1.531 . S
C2739 C2738 1.369 . S
C2739 C2740 1.410 . S
C2739 C2747 1.503 . S
C2740 C2739 1.410 . S
C2740 C2741 1.392 . S
C2740 C2743 1.511 . S
C2741 C2737 1.376 . S
C2741 C2740 1.392 . S
C2741 H2753 0.929 . S
C2742 C2738 1.531 . S
C2742 H2754 0.960 . S
C2742 H2755 0.962 . S
C2742 H2756 0.960 . S
C2743 C2740 1.511 . S
C2743 H2757 0.961 . S
C2743 H2758 0.961 . S
C2743 H2759 0.961 . S
C2744 C2745 1.370 . S
C2744 C2746 1.363 . S
C2744 H2760 0.931 . S
C2745 C2744 1.370 . S
C2745 C2749 1.408 . S
C2746 C2744 1.363 . S
C2746 C2747 1.370 . S
C2746 C2750 1.524 . S
C2747 C2739 1.503 . S
C2747 C2746 1.370 . S
C2747 C2748 1.403 . S
C2748 C2747 1.403 . S
C2748 C2749 1.404 . S
C2748 C2751 1.539 . S
C2749 C2745 1.408 . S
C2749 C2748 1.404 . S
C2749 H2761 0.930 . S
C2750 C2746 1.524 . S
C2750 H2762 0.956 . S
C2750 H2763 0.961 . S
C2750 H2764 0.961 . S
C2751 C2748 1.539 . S
C2751 H2765 0.958 . S
C2751 H2766 0.961 . S
C2751 H2767 0.960 . S
H2752 C2736 0.931 . S
H2753 C2741 0.929 . S
H2754 C2742 0.960 . S
H2755 C2742 0.962 . S
H2756 C2742 0.960 . S
H2757 C2743 0.961 . S
H2758 C2743 0.961 . S
H2759 C2743 0.961 . S
H2760 C2744 0.931 . S
H2761 C2749 0.930 . S
H2762 C2750 0.956 . S
H2763 C2750 0.961 . S
H2764 C2750 0.961 . S
H2765 C2751 0.958 . S
H2766 C2751 0.961 . S
H2767 C2751 0.960 . S
C2768 C2769 1.391 . S
C2768 C2770 1.394 . S
C2768 H2784 0.931 . S
C2769 C2768 1.391 . S
C2769 C2773 1.376 . S
C2770 C2768 1.394 . S
C2770 C2771 1.369 . S
C2770 C2774 1.531 . S
C2771 C2770 1.369 . S
C2771 C2772 1.410 . S
C2771 C2779 1.503 . S
C2772 C2771 1.410 . S
C2772 C2773 1.392 . S
C2772 C2775 1.511 . S
C2773 C2769 1.376 . S
C2773 C2772 1.392 . S
C2773 H2785 0.929 . S
C2774 C2770 1.531 . S
C2774 H2786 0.960 . S
C2774 H2787 0.962 . S
C2774 H2788 0.960 . S
C2775 C2772 1.511 . S
C2775 H2789 0.961 . S
C2775 H2790 0.961 . S
C2775 H2791 0.961 . S
C2776 C2777 1.370 . S
C2776 C2778 1.363 . S
C2776 H2792 0.931 . S
C2777 C2776 1.370 . S
C2777 C2781 1.408 . S
C2778 C2776 1.363 . S
C2778 C2779 1.370 . S
C2778 C2782 1.524 . S
C2779 C2771 1.503 . S
C2779 C2778 1.370 . S
C2779 C2780 1.403 . S
C2780 C2779 1.403 . S
C2780 C2781 1.404 . S
C2780 C2783 1.539 . S
C2781 C2777 1.408 . S
C2781 C2780 1.404 . S
C2781 H2793 0.930 . S
C2782 C2778 1.524 . S
C2782 H2794 0.956 . S
C2782 H2795 0.961 . S
C2782 H2796 0.961 . S
C2783 C2780 1.539 . S
C2783 H2797 0.958 . S
C2783 H2798 0.961 . S
C2783 H2799 0.960 . S
H2784 C2768 0.931 . S
H2785 C2773 0.929 . S
H2786 C2774 0.960 . S
H2787 C2774 0.962 . S
H2788 C2774 0.960 . S
H2789 C2775 0.961 . S
H2790 C2775 0.961 . S
H2791 C2775 0.961 . S
H2792 C2776 0.931 . S
H2793 C2781 0.930 . S
H2794 C2782 0.956 . S
H2795 C2782 0.961 . S
H2796 C2782 0.961 . S
H2797 C2783 0.958 . S
H2798 C2783 0.961 . S
H2799 C2783 0.960 . S
C2800 C2801 1.391 . S
C2800 C2802 1.394 . S
C2800 H2816 0.931 . S
C2801 C2800 1.391 . S
C2801 C2805 1.376 . S
C2802 C2800 1.394 . S
C2802 C2803 1.369 . S
C2802 C2806 1.531 . S
C2803 C2802 1.369 . S
C2803 C2804 1.410 . S
C2803 C2811 1.503 . S
C2804 C2803 1.410 . S
C2804 C2805 1.392 . S
C2804 C2807 1.511 . S
C2805 C2801 1.376 . S
C2805 C2804 1.392 . S
C2805 H2817 0.929 . S
C2806 C2802 1.531 . S
C2806 H2818 0.960 . S
C2806 H2819 0.962 . S
C2806 H2820 0.960 . S
C2807 C2804 1.511 . S
C2807 H2821 0.961 . S
C2807 H2822 0.961 . S
C2807 H2823 0.961 . S
C2808 C2809 1.370 . S
C2808 C2810 1.363 . S
C2808 H2824 0.931 . S
C2809 C2808 1.370 . S
C2809 C2813 1.408 . S
C2810 C2808 1.363 . S
C2810 C2811 1.370 . S
C2810 C2814 1.524 . S
C2811 C2803 1.503 . S
C2811 C2810 1.370 . S
C2811 C2812 1.403 . S
C2812 C2811 1.403 . S
C2812 C2813 1.404 . S
C2812 C2815 1.539 . S
C2813 C2809 1.408 . S
C2813 C2812 1.404 . S
C2813 H2825 0.930 . S
C2814 C2810 1.524 . S
C2814 H2826 0.956 . S
C2814 H2827 0.961 . S
C2814 H2828 0.961 . S
C2815 C2812 1.539 . S
C2815 H2829 0.958 . S
C2815 H2830 0.961 . S
C2815 H2831 0.960 . S
H2816 C2800 0.931 . S
H2817 C2805 0.929 . S
H2818 C2806 0.960 . S
H2819 C2806 0.962 . S
H2820 C2806 0.960 . S
H2821 C2807 0.961 . S
H2822 C2807 0.961 . S
H2823 C2807 0.961 . S
H2824 C2808 0.931 . S
H2825 C2813 0.930 . S
H2826 C2814 0.956 . S
H2827 C2814 0.961 . S
H2828 C2814 0.961 . S
H2829 C2815 0.958 . S
H2830 C2815 0.961 . S
H2831 C2815 0.960 . S
C2832 C2833 1.359 1_556 S
C2832 C2834 1.394 . S
C2832 H2848 0.931 . S
C2833 C2832 1.359 1_554 S
C2833 C2837 1.395 . S
C2834 C2832 1.394 . S
C2834 C2835 1.369 . S
C2834 C2838 1.531 . S
C2835 C2834 1.369 . S
C2835 C2836 1.410 1_556 S
C2835 C2843 1.503 . S
C2836 C2835 1.410 1_554 S
C2836 C2837 1.392 . S
C2836 C2839 1.511 . S
C2837 C2833 1.395 . S
C2837 C2836 1.392 . S
C2837 H2849 0.929 . S
C2838 C2834 1.531 . S
C2838 H2850 0.960 . S
C2838 H2851 0.962 . S
C2838 H2852 0.960 . S
C2839 C2836 1.511 . S
C2839 H2853 0.961 . S
C2839 H2854 0.961 . S
C2839 H2855 0.961 . S
C2840 C2841 1.370 . S
C2840 C2842 1.363 . S
C2840 H2856 0.931 . S
C2841 C2840 1.370 . S
C2841 C2845 1.408 . S
C2842 C2840 1.363 . S
C2842 C2843 1.370 . S
C2842 C2846 1.524 . S
C2843 C2835 1.503 . S
C2843 C2842 1.370 . S
C2843 C2844 1.403 . S
C2844 C2843 1.403 . S
C2844 C2845 1.404 . S
C2844 C2847 1.539 . S
C2845 C2841 1.408 . S
C2845 C2844 1.404 . S
C2845 H2857 0.930 . S
C2846 C2842 1.524 . S
C2846 H2858 0.956 . S
C2846 H2859 0.961 . S
C2846 H2860 0.961 . S
C2847 C2844 1.539 . S
C2847 H2861 0.958 . S
C2847 H2862 0.961 . S
C2847 H2863 0.993 . S
H2848 C2832 0.931 . S
H2849 C2837 0.929 . S
H2850 C2838 0.960 . S
H2851 C2838 0.962 . S
H2852 C2838 0.960 . S
H2853 C2839 0.961 . S
H2854 C2839 0.961 . S
H2855 C2839 0.961 . S
H2856 C2840 0.931 . S
H2857 C2845 0.930 . S
H2858 C2846 0.956 . S
H2859 C2846 0.961 . S
H2860 C2846 0.961 . S
H2861 C2847 0.958 . S
H2862 C2847 0.961 . S
H2863 C2847 0.993 . S
C2864 C2865 1.391 . S
C2864 C2866 1.394 . S
C2864 H2880 0.931 . S
C2865 C2864 1.391 . S
C2865 C2869 1.376 . S
C2866 C2864 1.394 . S
C2866 C2867 1.369 . S
C2866 C2870 1.531 . S
C2867 C2866 1.369 . S
C2867 C2868 1.410 . S
C2867 C2875 1.503 . S
C2868 C2867 1.410 . S
C2868 C2869 1.392 . S
C2868 C2871 1.511 . S
C2869 C2865 1.376 . S
C2869 C2868 1.392 . S
C2869 H2881 0.929 1_556 S
C2870 C2866 1.531 . S
C2870 H2882 0.960 . S
C2870 H2883 0.962 . S
C2870 H2884 0.960 . S
C2871 C2868 1.511 . S
C2871 H2885 0.961 1_556 S
C2871 H2886 0.961 . S
C2871 H2887 0.961 . S
C2872 C2873 1.370 . S
C2872 C2874 1.363 . S
C2872 H2888 0.931 . S
C2873 C2872 1.370 . S
C2873 C2877 1.408 . S
C2874 C2872 1.363 . S
C2874 C2875 1.370 . S
C2874 C2878 1.524 . S
C2875 C2867 1.503 . S
C2875 C2874 1.370 . S
C2875 C2876 1.403 . S
C2876 C2875 1.403 . S
C2876 C2877 1.404 . S
C2876 C2879 1.539 . S
C2877 C2873 1.408 . S
C2877 C2876 1.404 . S
C2877 H2889 0.930 . S
C2878 C2874 1.524 . S
C2878 H2890 0.956 . S
C2878 H2891 0.961 . S
C2878 H2892 0.961 . S
C2879 C2876 1.539 . S
C2879 H2893 0.958 . S
C2879 H2894 0.961 . S
C2879 H2895 0.960 . S
H2880 C2864 0.931 . S
H2881 C2869 0.929 1_554 S
H2882 C2870 0.960 . S
H2883 C2870 0.962 . S
H2884 C2870 0.960 . S
H2885 C2871 0.961 1_554 S
H2886 C2871 0.961 . S
H2887 C2871 0.961 . S
H2888 C2872 0.931 . S
H2889 C2877 0.930 . S
H2890 C2878 0.956 . S
H2891 C2878 0.961 . S
H2892 C2878 0.961 . S
H2893 C2879 0.958 . S
H2894 C2879 0.961 . S
H2895 C2879 0.960 . S
C2896 C2897 1.391 . S
C2896 C2898 1.394 . S
C2896 H2912 0.931 . S
C2897 C2896 1.391 . S
C2897 C2901 1.376 . S
C2898 C2896 1.394 . S
C2898 C2899 1.369 . S
C2898 C2902 1.531 . S
C2899 C2898 1.369 . S
C2899 C2900 1.410 . S
C2899 C2907 1.503 . S
C2900 C2899 1.410 . S
C2900 C2901 1.392 . S
C2900 C2903 1.511 1_554 S
C2901 C2897 1.376 . S
C2901 C2900 1.392 . S
C2901 H2913 0.929 . S
C2902 C2898 1.531 . S
C2902 H2914 0.960 . S
C2902 H2915 0.962 . S
C2902 H2916 0.960 . S
C2903 C2900 1.511 1_556 S
C2903 H2917 0.961 . S
C2903 H2918 0.961 . S
C2903 H2919 0.961 . S
C2904 C2905 1.370 . S
C2904 C2906 1.363 . S
C2904 H2920 0.931 . S
C2905 C2904 1.370 . S
C2905 C2909 1.408 . S
C2906 C2904 1.363 . S
C2906 C2907 1.370 1_556 S
C2906 C2910 1.524 . S
C2907 C2899 1.503 . S
C2907 C2906 1.370 1_554 S
C2907 C2908 1.403 . S
C2908 C2907 1.403 . S
C2908 C2909 1.404 1_554 S
C2908 C2911 1.539 . S
C2909 C2905 1.408 . S
C2909 C2908 1.404 1_556 S
C2909 H2921 0.930 . S
C2910 C2906 1.524 . S
C2910 H2922 0.956 1_556 S
C2910 H2923 0.961 . S
C2910 H2924 0.961 . S
C2911 C2908 1.539 . S
C2911 H2925 0.958 . S
C2911 H2926 0.961 . S
C2911 H2927 0.960 . S
H2912 C2896 0.931 . S
H2913 C2901 0.929 . S
H2914 C2902 0.960 . S
H2915 C2902 0.962 . S
H2916 C2902 0.960 . S
H2917 C2903 0.961 . S
H2918 C2903 0.961 . S
H2919 C2903 0.961 . S
H2920 C2904 0.931 . S
H2921 C2909 0.930 . S
H2922 C2910 0.956 1_554 S
H2923 C2910 0.961 . S
H2924 C2910 0.961 . S
H2925 C2911 0.958 . S
H2926 C2911 0.961 . S
H2927 C2911 0.960 . S
C2928 C2929 1.391 1_556 S
C2928 C2930 1.394 . S
C2928 H2944 0.931 . S
C2929 C2928 1.391 1_554 S
C2929 C2933 1.376 . S
C2930 C2928 1.394 . S
C2930 C2931 1.369 . S
C2930 C2934 1.531 . S
C2931 C2930 1.369 . S
C2931 C2932 1.410 . S
C2931 C2939 1.503 . S
C2932 C2931 1.410 . S
C2932 C2933 1.392 1_556 S
C2932 C2935 1.511 . S
C2933 C2929 1.376 . S
C2933 C2932 1.392 1_554 S
C2933 H2945 0.929 . S
C2934 C2930 1.531 . S
C2934 H2946 0.960 . S
C2934 H2947 0.962 . S
C2934 H2948 0.960 . S
C2935 C2932 1.511 . S
C2935 H2949 0.961 1_556 S
C2935 H2950 0.961 . S
C2935 H2951 0.961 . S
C2936 C2937 1.370 . S
C2936 C2938 1.363 . S
C2936 H2952 0.931 . S
C2937 C2936 1.370 . S
C2937 C2941 1.408 . S
C2938 C2936 1.363 . S
C2938 C2939 1.370 . S
C2938 C2942 1.498 1_556 S
C2939 C2931 1.503 . S
C2939 C2938 1.370 . S
C2939 C2940 1.403 . S
C2940 C2939 1.403 . S
C2940 C2941 1.404 . S
C2940 C2943 1.539 . S
C2941 C2937 1.408 . S
C2941 C2940 1.404 . S
C2941 H2953 0.930 . S
C2942 C2938 1.498 1_554 S
C2942 H2954 0.956 . S
C2942 H2955 0.980 . S
C2942 H2956 0.968 . S
C2943 C2940 1.539 . S
C2943 H2957 0.958 . S
C2943 H2958 0.961 . S
C2943 H2959 0.960 . S
H2944 C2928 0.931 . S
H2945 C2933 0.929 . S
H2946 C2934 0.960 . S
H2947 C2934 0.962 . S
H2948 C2934 0.960 . S
H2949 C2935 0.961 1_554 S
H2950 C2935 0.961 . S
H2951 C2935 0.961 . S
H2952 C2936 0.931 . S
H2953 C2941 0.930 . S
H2954 C2942 0.956 . S
H2955 C2942 0.980 . S
H2956 C2942 0.968 . S
H2957 C2943 0.958 . S
H2958 C2943 0.961 . S
H2959 C2943 0.960 . S
C2960 C2961 1.391 . S
C2960 C2962 1.394 . S
C2960 H2976 0.931 . S
C2961 C2960 1.391 . S
C2961 C2965 1.376 . S
C2962 C2960 1.394 . S
C2962 C2963 1.369 . S
C2962 C2966 1.531 . S
C2963 C2962 1.369 . S
C2963 C2964 1.410 . S
C2963 C2971 1.503 . S
C2964 C2963 1.410 . S
C2964 C2965 1.392 . S
C2964 C2967 1.511 . S
C2965 C2961 1.376 . S
C2965 C2964 1.392 . S
C2965 H2977 0.929 . S
C2966 C2962 1.531 . S
C2966 H2978 0.960 . S
C2966 H2979 0.962 . S
C2966 H2980 0.960 . S
C2967 C2964 1.511 . S
C2967 H2981 0.961 . S
C2967 H2982 0.961 . S
C2967 H2983 0.961 . S
C2968 C2969 1.370 . S
C2968 C2970 1.363 . S
C2968 H2984 0.931 . S
C2969 C2968 1.370 . S
C2969 C2973 1.408 . S
C2970 C2968 1.363 . S
C2970 C2971 1.370 . S
C2970 C2974 1.524 . S
C2971 C2963 1.503 . S
C2971 C2970 1.370 . S
C2971 C2972 1.403 . S
C2972 C2971 1.403 . S
C2972 C2973 1.404 . S
C2972 C2975 1.539 . S
C2973 C2969 1.408 . S
C2973 C2972 1.404 . S
C2973 H2985 0.930 . S
C2974 C2970 1.524 . S
C2974 H2986 0.956 . S
C2974 H2987 0.961 . S
C2974 H2988 0.961 . S
C2975 C2972 1.539 . S
C2975 H2989 0.958 . S
C2975 H2990 0.961 . S
C2975 H2991 0.960 . S
H2976 C2960 0.931 . S
H2977 C2965 0.929 . S
H2978 C2966 0.960 . S
H2979 C2966 0.962 . S
H2980 C2966 0.960 . S
H2981 C2967 0.961 . S
H2982 C2967 0.961 . S
H2983 C2967 0.961 . S
H2984 C2968 0.931 . S
H2985 C2973 0.930 . S
H2986 C2974 0.956 . S
H2987 C2974 0.961 . S
H2988 C2974 0.961 . S
H2989 C2975 0.958 . S
H2990 C2975 0.961 . S
H2991 C2975 0.960 . S
C2992 C2993 1.391 1_556 S
C2992 C2994 1.394 . S
C2992 H3008 0.931 . S
C2993 C2992 1.391 1_554 S
C2993 C2997 1.376 . S
C2994 C2992 1.394 . S
C2994 C2995 1.367 1_556 S
C2994 C2998 1.531 . S
C2995 C2994 1.367 1_554 S
C2995 C2996 1.413 . S
C2995 C3003 1.502 1_554 S
C2996 C2995 1.413 . S
C2996 C2997 1.392 . S
C2996 C2999 1.511 . S
C2997 C2993 1.376 . S
C2997 C2996 1.392 . S
C2997 H3009 0.929 . S
C2998 C2994 1.531 . S
C2998 H3010 0.960 . S
C2998 H3011 0.962 . S
C2998 H3012 0.960 . S
C2999 C2996 1.511 . S
C2999 H3013 0.961 . S
C2999 H3014 0.961 . S
C2999 H3015 0.961 . S
C3000 C3001 1.370 . S
C3000 C3002 1.363 . S
C3000 H3016 0.931 . S
C3001 C3000 1.370 . S
C3001 C3005 1.408 . S
C3002 C3000 1.363 . S
C3002 C3003 1.370 . S
C3002 C3006 1.524 . S
C3003 C2995 1.502 1_556 S
C3003 C3002 1.370 . S
C3003 C3004 1.403 . S
C3004 C3003 1.403 . S
C3004 C3005 1.404 . S
C3004 C3007 1.513 1_556 S
C3005 C3001 1.408 . S
C3005 C3004 1.404 . S
C3005 H3017 0.930 . S
C3006 C3002 1.524 . S
C3006 H3018 0.956 . S
C3006 H3019 0.961 . S
C3006 H3020 0.961 . S
C3007 C3004 1.513 1_554 S
C3007 H3021 0.922 1_554 S
C3007 H3022 0.979 . S
C3007 H3023 1.009 . S
H3008 C2992 0.931 . S
H3009 C2997 0.929 . S
H3010 C2998 0.960 . S
H3011 C2998 0.962 . S
H3012 C2998 0.960 . S
H3013 C2999 0.961 . S
H3014 C2999 0.961 . S
H3015 C2999 0.961 . S
H3016 C3000 0.931 . S
H3017 C3005 0.930 . S
H3018 C3006 0.956 . S
H3019 C3006 0.961 . S
H3020 C3006 0.961 . S
H3021 C3007 0.922 1_556 S
H3022 C3007 0.979 . S
H3023 C3007 1.009 . S
C3024 C3025 1.391 . S
C3024 C3026 1.394 . S
C3024 H3040 0.931 . S
C3025 C3024 1.391 . S
C3025 C3029 1.376 . S
C3026 C3024 1.394 . S
C3026 C3027 1.369 . S
C3026 C3030 1.531 . S
C3027 C3026 1.369 . S
C3027 C3028 1.410 . S
C3027 C3035 1.503 . S
C3028 C3027 1.410 . S
C3028 C3029 1.392 . S
C3028 C3031 1.511 . S
C3029 C3025 1.376 . S
C3029 C3028 1.392 . S
C3029 H3041 0.929 . S
C3030 C3026 1.531 . S
C3030 H3042 0.960 . S
C3030 H3043 0.962 . S
C3030 H3044 0.960 . S
C3031 C3028 1.511 . S
C3031 H3045 0.961 . S
C3031 H3046 0.961 . S
C3031 H3047 0.961 . S
C3032 C3033 1.370 . S
C3032 C3034 1.363 . S
C3032 H3048 0.931 . S
C3033 C3032 1.370 . S
C3033 C3037 1.408 . S
C3034 C3032 1.363 . S
C3034 C3035 1.370 . S
C3034 C3038 1.524 . S
C3035 C3027 1.503 . S
C3035 C3034 1.370 . S
C3035 C3036 1.403 . S
C3036 C3035 1.403 . S
C3036 C3037 1.404 . S
C3036 C3039 1.539 . S
C3037 C3033 1.408 . S
C3037 C3036 1.404 . S
C3037 H3049 0.930 . S
C3038 C3034 1.524 . S
C3038 H3050 0.956 . S
C3038 H3051 0.961 . S
C3038 H3052 0.961 . S
C3039 C3036 1.539 . S
C3039 H3053 0.958 . S
C3039 H3054 0.961 . S
C3039 H3055 0.960 . S
H3040 C3024 0.931 . S
H3041 C3029 0.929 . S
H3042 C3030 0.960 . S
H3043 C3030 0.962 . S
H3044 C3030 0.960 . S
H3045 C3031 0.961 . S
H3046 C3031 0.961 . S
H3047 C3031 0.961 . S
H3048 C3032 0.931 . S
H3049 C3037 0.930 . S
H3050 C3038 0.956 . S
H3051 C3038 0.961 . S
H3052 C3038 0.961 . S
H3053 C3039 0.958 . S
H3054 C3039 0.961 . S
H3055 C3039 0.960 . S
C3056 C3057 1.391 . S
C3056 C3058 1.394 . S
C3056 H3072 0.931 . S
C3057 C3056 1.391 . S
C3057 C3061 1.376 . S
C3058 C3056 1.394 . S
C3058 C3059 1.369 . S
C3058 C3062 1.531 . S
C3059 C3058 1.369 . S
C3059 C3060 1.410 . S
C3059 C3067 1.503 . S
C3060 C3059 1.410 . S
C3060 C3061 1.392 . S
C3060 C3063 1.511 . S
C3061 C3057 1.376 . S
C3061 C3060 1.392 . S
C3061 H3073 0.929 . S
C3062 C3058 1.531 . S
C3062 H3074 0.960 . S
C3062 H3075 0.962 . S
C3062 H3076 0.960 . S
C3063 C3060 1.511 . S
C3063 H3077 0.961 . S
C3063 H3078 0.961 . S
C3063 H3079 0.961 . S
C3064 C3065 1.370 . S
C3064 C3066 1.363 . S
C3064 H3080 0.931 . S
C3065 C3064 1.370 . S
C3065 C3069 1.408 . S
C3066 C3064 1.363 . S
C3066 C3067 1.370 . S
C3066 C3070 1.524 . S
C3067 C3059 1.503 . S
C3067 C3066 1.370 . S
C3067 C3068 1.403 . S
C3068 C3067 1.403 . S
C3068 C3069 1.404 . S
C3068 C3071 1.539 . S
C3069 C3065 1.408 . S
C3069 C3068 1.404 . S
C3069 H3081 0.930 . S
C3070 C3066 1.524 . S
C3070 H3082 0.956 . S
C3070 H3083 0.961 . S
C3070 H3084 0.961 . S
C3071 C3068 1.539 . S
C3071 H3085 0.958 . S
C3071 H3086 0.961 . S
C3071 H3087 0.960 . S
H3072 C3056 0.931 . S
H3073 C3061 0.929 . S
H3074 C3062 0.960 . S
H3075 C3062 0.962 . S
H3076 C3062 0.960 . S
H3077 C3063 0.961 . S
H3078 C3063 0.961 . S
H3079 C3063 0.961 . S
H3080 C3064 0.931 . S
H3081 C3069 0.930 . S
H3082 C3070 0.956 . S
H3083 C3070 0.961 . S
H3084 C3070 0.961 . S
H3085 C3071 0.958 . S
H3086 C3071 0.961 . S
H3087 C3071 0.960 . S
C3088 C3089 1.391 . S
C3088 C3090 1.394 . S
C3088 H3104 0.931 . S
C3089 C3088 1.391 . S
C3089 C3093 1.376 . S
C3090 C3088 1.394 . S
C3090 C3091 1.369 . S
C3090 C3094 1.531 . S
C3091 C3090 1.369 . S
C3091 C3092 1.410 . S
C3091 C3099 1.503 . S
C3092 C3091 1.410 . S
C3092 C3093 1.392 . S
C3092 C3095 1.511 . S
C3093 C3089 1.376 . S
C3093 C3092 1.392 . S
C3093 H3105 0.929 . S
C3094 C3090 1.531 . S
C3094 H3106 0.960 . S
C3094 H3107 0.962 . S
C3094 H3108 0.960 . S
C3095 C3092 1.511 . S
C3095 H3109 0.961 . S
C3095 H3110 0.961 . S
C3095 H3111 0.961 . S
C3096 C3097 1.370 . S
C3096 C3098 1.363 . S
C3096 H3112 0.931 . S
C3097 C3096 1.370 . S
C3097 C3101 1.408 . S
C3098 C3096 1.363 . S
C3098 C3099 1.370 . S
C3098 C3102 1.524 . S
C3099 C3091 1.503 . S
C3099 C3098 1.370 . S
C3099 C3100 1.403 . S
C3100 C3099 1.403 . S
C3100 C3101 1.404 . S
C3100 C3103 1.539 . S
C3101 C3097 1.408 . S
C3101 C3100 1.404 . S
C3101 H3113 0.930 . S
C3102 C3098 1.524 . S
C3102 H3114 0.956 . S
C3102 H3115 0.961 . S
C3102 H3116 0.961 . S
C3103 C3100 1.539 . S
C3103 H3117 0.958 . S
C3103 H3118 0.961 . S
C3103 H3119 0.960 . S
H3104 C3088 0.931 . S
H3105 C3093 0.929 . S
H3106 C3094 0.960 . S
H3107 C3094 0.962 . S
H3108 C3094 0.960 . S
H3109 C3095 0.961 . S
H3110 C3095 0.961 . S
H3111 C3095 0.961 . S
H3112 C3096 0.931 . S
H3113 C3101 0.930 . S
H3114 C3102 0.956 . S
H3115 C3102 0.961 . S
H3116 C3102 0.961 . S
H3117 C3103 0.958 . S
H3118 C3103 0.961 . S
H3119 C3103 0.960 . S
C3120 C3121 1.391 . S
C3120 C3122 1.394 . S
C3120 H3136 0.931 . S
C3121 C3120 1.391 . S
C3121 C3125 1.376 . S
C3122 C3120 1.394 . S
C3122 C3123 1.369 . S
C3122 C3126 1.531 . S
C3123 C3122 1.369 . S
C3123 C3124 1.410 . S
C3123 C3131 1.503 . S
C3124 C3123 1.410 . S
C3124 C3125 1.392 . S
C3124 C3127 1.511 . S
C3125 C3121 1.376 . S
C3125 C3124 1.392 . S
C3125 H3137 0.929 . S
C3126 C3122 1.531 . S
C3126 H3138 0.960 . S
C3126 H3139 0.962 . S
C3126 H3140 0.960 . S
C3127 C3124 1.511 . S
C3127 H3141 0.961 . S
C3127 H3142 0.961 . S
C3127 H3143 0.961 . S
C3128 C3129 1.370 . S
C3128 C3130 1.363 . S
C3128 H3144 0.931 . S
C3129 C3128 1.370 . S
C3129 C3133 1.408 . S
C3130 C3128 1.363 . S
C3130 C3131 1.370 . S
C3130 C3134 1.524 . S
C3131 C3123 1.503 . S
C3131 C3130 1.370 . S
C3131 C3132 1.403 . S
C3132 C3131 1.403 . S
C3132 C3133 1.404 . S
C3132 C3135 1.539 . S
C3133 C3129 1.408 . S
C3133 C3132 1.404 . S
C3133 H3145 0.930 . S
C3134 C3130 1.524 . S
C3134 H3146 0.956 . S
C3134 H3147 0.961 . S
C3134 H3148 0.961 . S
C3135 C3132 1.539 . S
C3135 H3149 0.958 . S
C3135 H3150 0.961 . S
C3135 H3151 0.960 . S
H3136 C3120 0.931 . S
H3137 C3125 0.929 . S
H3138 C3126 0.960 . S
H3139 C3126 0.962 . S
H3140 C3126 0.960 . S
H3141 C3127 0.961 . S
H3142 C3127 0.961 . S
H3143 C3127 0.961 . S
H3144 C3128 0.931 . S
H3145 C3133 0.930 . S
H3146 C3134 0.956 . S
H3147 C3134 0.961 . S
H3148 C3134 0.961 . S
H3149 C3135 0.958 . S
H3150 C3135 0.961 . S
H3151 C3135 0.960 . S
C3152 C3153 1.391 . S
C3152 C3154 1.394 . S
C3152 H3168 0.931 . S
C3153 C3152 1.391 . S
C3153 C3157 1.376 . S
C3154 C3152 1.394 . S
C3154 C3155 1.369 . S
C3154 C3158 1.531 . S
C3155 C3154 1.369 . S
C3155 C3156 1.410 . S
C3155 C3163 1.503 . S
C3156 C3155 1.410 . S
C3156 C3157 1.392 . S
C3156 C3159 1.511 . S
C3157 C3153 1.376 . S
C3157 C3156 1.392 . S
C3157 H3169 0.929 . S
C3158 C3154 1.531 . S
C3158 H3170 0.960 . S
C3158 H3171 0.962 . S
C3158 H3172 0.960 . S
C3159 C3156 1.511 . S
C3159 H3173 0.961 . S
C3159 H3174 0.961 . S
C3159 H3175 0.961 . S
C3160 C3161 1.370 . S
C3160 C3162 1.363 . S
C3160 H3176 0.931 . S
C3161 C3160 1.370 . S
C3161 C3165 1.408 . S
C3162 C3160 1.363 . S
C3162 C3163 1.370 . S
C3162 C3166 1.524 . S
C3163 C3155 1.503 . S
C3163 C3162 1.370 . S
C3163 C3164 1.403 . S
C3164 C3163 1.403 . S
C3164 C3165 1.404 . S
C3164 C3167 1.539 . S
C3165 C3161 1.408 . S
C3165 C3164 1.404 . S
C3165 H3177 0.930 . S
C3166 C3162 1.524 . S
C3166 H3178 0.956 . S
C3166 H3179 0.961 . S
C3166 H3180 0.961 . S
C3167 C3164 1.539 . S
C3167 H3181 0.958 . S
C3167 H3182 0.961 . S
C3167 H3183 0.960 . S
H3168 C3152 0.931 . S
H3169 C3157 0.929 . S
H3170 C3158 0.960 . S
H3171 C3158 0.962 . S
H3172 C3158 0.960 . S
H3173 C3159 0.961 . S
H3174 C3159 0.961 . S
H3175 C3159 0.961 . S
H3176 C3160 0.931 . S
H3177 C3165 0.930 . S
H3178 C3166 0.956 . S
H3179 C3166 0.961 . S
H3180 C3166 0.961 . S
H3181 C3167 0.958 . S
H3182 C3167 0.961 . S
H3183 C3167 0.960 . S
C3184 C3185 1.391 1_655 S
C3184 C3186 1.394 . S
C3184 H3200 0.931 . S
C3185 C3184 1.391 1_455 S
C3185 C3189 1.376 . S
C3186 C3184 1.394 . S
C3186 C3187 1.369 . S
C3186 C3190 1.531 . S
C3187 C3186 1.369 . S
C3187 C3188 1.410 . S
C3187 C3195 1.503 . S
C3188 C3187 1.410 . S
C3188 C3189 1.392 1_655 S
C3188 C3191 1.511 . S
C3189 C3185 1.376 . S
C3189 C3188 1.392 1_455 S
C3189 H3201 0.929 . S
C3190 C3186 1.531 . S
C3190 H3202 0.960 . S
C3190 H3203 0.962 . S
C3190 H3204 0.960 . S
C3191 C3188 1.511 . S
C3191 H3205 0.961 . S
C3191 H3206 0.961 . S
C3191 H3207 0.961 . S
C3192 C3193 1.370 . S
C3192 C3194 1.363 . S
C3192 H3208 0.931 . S
C3193 C3192 1.370 . S
C3193 C3197 1.408 . S
C3194 C3192 1.363 . S
C3194 C3195 1.370 . S
C3194 C3198 1.524 . S
C3195 C3187 1.503 . S
C3195 C3194 1.370 . S
C3195 C3196 1.403 . S
C3196 C3195 1.403 . S
C3196 C3197 1.404 . S
C3196 C3199 1.539 . S
C3197 C3193 1.408 . S
C3197 C3196 1.404 . S
C3197 H3209 0.930 . S
C3198 C3194 1.524 . S
C3198 H3210 0.956 . S
C3198 H3211 0.961 . S
C3198 H3212 0.961 . S
C3199 C3196 1.539 . S
C3199 H3213 0.958 . S
C3199 H3214 0.961 . S
C3199 H3215 0.960 . S
H3200 C3184 0.931 . S
H3201 C3189 0.929 . S
H3202 C3190 0.960 . S
H3203 C3190 0.962 . S
H3204 C3190 0.960 . S
H3205 C3191 0.961 . S
H3206 C3191 0.961 . S
H3207 C3191 0.961 . S
H3208 C3192 0.931 . S
H3209 C3197 0.930 . S
H3210 C3198 0.956 . S
H3211 C3198 0.961 . S
H3212 C3198 0.961 . S
H3213 C3199 0.958 . S
H3214 C3199 0.961 . S
H3215 C3199 0.960 . S
C3216 C3217 1.391 . S
C3216 C3218 1.394 . S
C3216 H3232 0.931 . S
C3217 C3216 1.391 . S
C3217 C3221 1.376 . S
C3218 C3216 1.394 . S
C3218 C3219 1.369 . S
C3218 C3222 1.531 . S
C3219 C3218 1.369 . S
C3219 C3220 1.410 . S
C3219 C3227 1.503 . S
C3220 C3219 1.410 . S
C3220 C3221 1.392 . S
C3220 C3223 1.511 . S
C3221 C3217 1.376 . S
C3221 C3220 1.392 . S
C3221 H3233 0.929 . S
C3222 C3218 1.531 . S
C3222 H3234 0.960 . S
C3222 H3235 0.962 1_455 S
C3222 H3236 0.960 1_455 S
C3223 C3220 1.511 . S
C3223 H3237 0.961 . S
C3223 H3238 0.961 . S
C3223 H3239 0.961 . S
C3224 C3225 1.370 . S
C3224 C3226 1.363 . S
C3224 H3240 0.931 . S
C3225 C3224 1.370 . S
C3225 C3229 1.408 . S
C3226 C3224 1.363 . S
C3226 C3227 1.370 . S
C3226 C3230 1.524 . S
C3227 C3219 1.503 . S
C3227 C3226 1.370 . S
C3227 C3228 1.403 . S
C3228 C3227 1.403 . S
C3228 C3229 1.404 . S
C3228 C3231 1.539 . S
C3229 C3225 1.408 . S
C3229 C3228 1.404 . S
C3229 H3241 0.930 . S
C3230 C3226 1.524 . S
C3230 H3242 0.956 . S
C3230 H3243 0.961 . S
C3230 H3244 0.961 . S
C3231 C3228 1.539 . S
C3231 H3245 0.958 . S
C3231 H3246 0.961 . S
C3231 H3247 0.960 . S
H3232 C3216 0.931 . S
H3233 C3221 0.929 . S
H3234 C3222 0.960 . S
H3235 C3222 0.962 1_655 S
H3236 C3222 0.960 1_655 S
H3237 C3223 0.961 . S
H3238 C3223 0.961 . S
H3239 C3223 0.961 . S
H3240 C3224 0.931 . S
H3241 C3229 0.930 . S
H3242 C3230 0.956 . S
H3243 C3230 0.961 . S
H3244 C3230 0.961 . S
H3245 C3231 0.958 . S
H3246 C3231 0.961 . S
H3247 C3231 0.960 . S
C3248 C3249 1.391 . S
C3248 C3250 1.394 . S
C3248 H3264 0.931 . S
C3249 C3248 1.391 . S
C3249 C3253 1.376 . S
C3250 C3248 1.394 . S
C3250 C3251 1.369 . S
C3250 C3254 1.531 . S
C3251 C3250 1.369 . S
C3251 C3252 1.410 . S
C3251 C3259 1.503 . S
C3252 C3251 1.410 . S
C3252 C3253 1.392 . S
C3252 C3255 1.511 . S
C3253 C3249 1.376 . S
C3253 C3252 1.392 . S
C3253 H3265 0.929 . S
C3254 C3250 1.531 . S
C3254 H3266 0.960 . S
C3254 H3267 0.962 . S
C3254 H3268 0.960 . S
C3255 C3252 1.511 . S
C3255 H3269 0.961 . S
C3255 H3270 0.961 . S
C3255 H3271 0.961 . S
C3256 C3257 1.370 . S
C3256 C3258 1.363 . S
C3256 H3272 0.931 . S
C3257 C3256 1.370 . S
C3257 C3261 1.408 . S
C3258 C3256 1.363 . S
C3258 C3259 1.370 . S
C3258 C3262 1.524 . S
C3259 C3251 1.503 . S
C3259 C3258 1.370 . S
C3259 C3260 1.403 . S
C3260 C3259 1.403 . S
C3260 C3261 1.404 . S
C3260 C3263 1.539 . S
C3261 C3257 1.408 . S
C3261 C3260 1.404 . S
C3261 H3273 0.930 . S
C3262 C3258 1.524 . S
C3262 H3274 0.956 . S
C3262 H3275 0.961 . S
C3262 H3276 0.961 . S
C3263 C3260 1.539 . S
C3263 H3277 0.958 . S
C3263 H3278 0.961 . S
C3263 H3279 0.960 . S
H3264 C3248 0.931 . S
H3265 C3253 0.929 . S
H3266 C3254 0.960 . S
H3267 C3254 0.962 . S
H3268 C3254 0.960 . S
H3269 C3255 0.961 . S
H3270 C3255 0.961 . S
H3271 C3255 0.961 . S
H3272 C3256 0.931 . S
H3273 C3261 0.930 . S
H3274 C3262 0.956 . S
H3275 C3262 0.961 . S
H3276 C3262 0.961 . S
H3277 C3263 0.958 . S
H3278 C3263 0.961 . S
H3279 C3263 0.960 . S
C3280 C3281 1.391 . S
C3280 C3282 1.394 . S
C3280 H3296 0.931 . S
C3281 C3280 1.391 . S
C3281 C3285 1.376 . S
C3282 C3280 1.394 . S
C3282 C3283 1.369 . S
C3282 C3286 1.531 . S
C3283 C3282 1.369 . S
C3283 C3284 1.410 . S
C3283 C3291 1.503 . S
C3284 C3283 1.410 . S
C3284 C3285 1.392 . S
C3284 C3287 1.511 . S
C3285 C3281 1.376 . S
C3285 C3284 1.392 . S
C3285 H3297 0.929 . S
C3286 C3282 1.531 . S
C3286 H3298 0.960 1_565 S
C3286 H3299 0.962 . S
C3286 H3300 0.960 1_565 S
C3287 C3284 1.511 . S
C3287 H3301 0.961 . S
C3287 H3302 0.961 . S
C3287 H3303 0.961 . S
C3288 C3289 1.370 . S
C3288 C3290 1.363 . S
C3288 H3304 0.931 . S
C3289 C3288 1.370 . S
C3289 C3293 1.408 . S
C3290 C3288 1.363 . S
C3290 C3291 1.370 . S
C3290 C3294 1.524 . S
C3291 C3283 1.503 . S
C3291 C3290 1.370 . S
C3291 C3292 1.403 . S
C3292 C3291 1.403 . S
C3292 C3293 1.404 . S
C3292 C3295 1.539 1_565 S
C3293 C3289 1.408 . S
C3293 C3292 1.404 . S
C3293 H3305 0.930 1_565 S
C3294 C3290 1.524 . S
C3294 H3306 0.956 . S
C3294 H3307 0.961 . S
C3294 H3308 0.961 . S
C3295 C3292 1.539 1_545 S
C3295 H3309 0.958 . S
C3295 H3310 0.961 . S
C3295 H3311 0.960 . S
H3296 C3280 0.931 . S
H3297 C3285 0.929 . S
H3298 C3286 0.960 1_545 S
H3299 C3286 0.962 . S
H3300 C3286 0.960 1_545 S
H3301 C3287 0.961 . S
H3302 C3287 0.961 . S
H3303 C3287 0.961 . S
H3304 C3288 0.931 . S
H3305 C3293 0.930 1_545 S
H3306 C3294 0.956 . S
H3307 C3294 0.961 . S
H3308 C3294 0.961 . S
H3309 C3295 0.958 . S
H3310 C3295 0.961 . S
H3311 C3295 0.960 . S
C3312 C3313 1.391 . S
C3312 C3314 1.394 . S
C3312 H3328 0.931 . S
C3313 C3312 1.391 . S
C3313 C3317 1.376 . S
C3314 C3312 1.394 . S
C3314 C3315 1.369 . S
C3314 C3318 1.531 . S
C3315 C3314 1.369 . S
C3315 C3316 1.410 1_565 S
C3315 C3323 1.503 . S
C3316 C3315 1.410 1_545 S
C3316 C3317 1.392 1_545 S
C3316 C3319 1.511 . S
C3317 C3313 1.376 . S
C3317 C3316 1.392 1_565 S
C3317 H3329 0.929 1_565 S
C3318 C3314 1.531 . S
C3318 H3330 0.960 . S
C3318 H3331 0.962 . S
C3318 H3332 0.960 . S
C3319 C3316 1.511 . S
C3319 H3333 0.961 . S
C3319 H3334 0.961 . S
C3319 H3335 0.961 . S
C3320 C3321 1.365 1_565 S
C3320 C3322 1.363 . S
C3320 H3336 0.931 . S
C3321 C3320 1.365 1_545 S
C3321 C3325 1.410 . S
C3322 C3320 1.363 . S
C3322 C3323 1.370 . S
C3322 C3326 1.524 . S
C3323 C3315 1.503 . S
C3323 C3322 1.370 . S
C3323 C3324 1.425 . S
C3324 C3323 1.425 . S
C3324 C3325 1.386 1_565 S
C3324 C3327 1.533 1_565 S
C3325 C3321 1.410 . S
C3325 C3324 1.386 1_545 S
C3325 H3337 0.930 . S
C3326 C3322 1.524 . S
C3326 H3338 0.956 . S
C3326 H3339 0.961 . S
C3326 H3340 0.961 . S
C3327 C3324 1.533 1_545 S
C3327 H3341 0.958 1_545 S
C3327 H3342 0.961 . S
C3327 H3343 0.960 . S
H3328 C3312 0.931 . S
H3329 C3317 0.929 1_545 S
H3330 C3318 0.960 . S
H3331 C3318 0.962 . S
H3332 C3318 0.960 . S
H3333 C3319 0.961 . S
H3334 C3319 0.961 . S
H3335 C3319 0.961 . S
H3336 C3320 0.931 . S
H3337 C3325 0.930 . S
H3338 C3326 0.956 . S
H3339 C3326 0.961 . S
H3340 C3326 0.961 . S
H3341 C3327 0.958 1_565 S
H3342 C3327 0.961 . S
H3343 C3327 0.960 . S
C3344 C3345 1.391 . S
C3344 C3346 1.394 . S
C3344 H3360 0.931 . S
C3345 C3344 1.391 . S
C3345 C3349 1.376 . S
C3346 C3344 1.394 . S
C3346 C3347 1.369 . S
C3346 C3350 1.531 . S
C3347 C3346 1.369 . S
C3347 C3348 1.410 . S
C3347 C3355 1.503 . S
C3348 C3347 1.410 . S
C3348 C3349 1.392 . S
C3348 C3351 1.511 1_455 S
C3349 C3345 1.376 . S
C3349 C3348 1.392 . S
C3349 H3361 0.929 . S
C3350 C3346 1.531 . S
C3350 H3362 0.960 . S
C3350 H3363 0.962 . S
C3350 H3364 0.960 . S
C3351 C3348 1.511 1_655 S
C3351 H3365 0.961 . S
C3351 H3366 0.961 . S
C3351 H3367 0.961 . S
C3352 C3353 1.370 1_455 S
C3352 C3354 1.363 . S
C3352 H3368 0.931 . S
C3353 C3352 1.370 1_655 S
C3353 C3357 1.408 . S
C3354 C3352 1.363 . S
C3354 C3355 1.370 . S
C3354 C3358 1.524 . S
C3355 C3347 1.503 . S
C3355 C3354 1.370 . S
C3355 C3356 1.403 1_455 S
C3356 C3355 1.403 1_655 S
C3356 C3357 1.404 . S
C3356 C3359 1.539 . S
C3357 C3353 1.408 . S
C3357 C3356 1.404 . S
C3357 H3369 0.930 . S
C3358 C3354 1.524 . S
C3358 H3370 0.956 . S
C3358 H3371 0.961 . S
C3358 H3372 0.961 . S
C3359 C3356 1.539 . S
C3359 H3373 0.958 . S
C3359 H3374 0.961 . S
C3359 H3375 0.960 . S
H3360 C3344 0.931 . S
H3361 C3349 0.929 . S
H3362 C3350 0.960 . S
H3363 C3350 0.962 . S
H3364 C3350 0.960 . S
H3365 C3351 0.961 . S
H3366 C3351 0.961 . S
H3367 C3351 0.961 . S
H3368 C3352 0.931 . S
H3369 C3357 0.930 . S
H3370 C3358 0.956 . S
H3371 C3358 0.961 . S
H3372 C3358 0.961 . S
H3373 C3359 0.958 . S
H3374 C3359 0.961 . S
H3375 C3359 0.960 . S
C3376 C3377 1.391 . S
C3376 C3378 1.394 . S
C3376 H3392 0.931 . S
C3377 C3376 1.391 . S
C3377 C3381 1.376 . S
C3378 C3376 1.394 . S
C3378 C3379 1.369 . S
C3378 C3382 1.531 . S
C3379 C3378 1.369 . S
C3379 C3380 1.410 . S
C3379 C3387 1.503 . S
C3380 C3379 1.410 . S
C3380 C3381 1.392 . S
C3380 C3383 1.511 . S
C3381 C3377 1.376 . S
C3381 C3380 1.392 . S
C3381 H3393 0.929 . S
C3382 C3378 1.531 . S
C3382 H3394 0.960 . S
C3382 H3395 0.962 . S
C3382 H3396 0.960 . S
C3383 C3380 1.511 . S
C3383 H3397 0.961 . S
C3383 H3398 0.961 . S
C3383 H3399 0.961 . S
C3384 C3385 1.370 . S
C3384 C3386 1.363 . S
C3384 H3400 0.931 . S
C3385 C3384 1.370 . S
C3385 C3389 1.408 . S
C3386 C3384 1.363 . S
C3386 C3387 1.370 . S
C3386 C3390 1.524 . S
C3387 C3379 1.503 . S
C3387 C3386 1.370 . S
C3387 C3388 1.403 . S
C3388 C3387 1.403 . S
C3388 C3389 1.404 . S
C3388 C3391 1.539 . S
C3389 C3385 1.408 . S
C3389 C3388 1.404 . S
C3389 H3401 0.930 . S
C3390 C3386 1.524 . S
C3390 H3402 0.956 . S
C3390 H3403 0.961 . S
C3390 H3404 0.961 . S
C3391 C3388 1.539 . S
C3391 H3405 0.958 . S
C3391 H3406 0.961 . S
C3391 H3407 0.960 . S
H3392 C3376 0.931 . S
H3393 C3381 0.929 . S
H3394 C3382 0.960 . S
H3395 C3382 0.962 . S
H3396 C3382 0.960 . S
H3397 C3383 0.961 . S
H3398 C3383 0.961 . S
H3399 C3383 0.961 . S
H3400 C3384 0.931 . S
H3401 C3389 0.930 . S
H3402 C3390 0.956 . S
H3403 C3390 0.961 . S
H3404 C3390 0.961 . S
H3405 C3391 0.958 . S
H3406 C3391 0.961 . S
H3407 C3391 0.960 . S
C3408 C3409 1.391 . S
C3408 C3410 1.394 . S
C3408 H3424 0.931 . S
C3409 C3408 1.391 . S
C3409 C3413 1.376 . S
C3410 C3408 1.394 . S
C3410 C3411 1.369 . S
C3410 C3414 1.531 . S
C3411 C3410 1.369 . S
C3411 C3412 1.410 . S
C3411 C3419 1.503 . S
C3412 C3411 1.410 . S
C3412 C3413 1.392 . S
C3412 C3415 1.511 . S
C3413 C3409 1.376 . S
C3413 C3412 1.392 . S
C3413 H3425 0.929 . S
C3414 C3410 1.531 . S
C3414 H3426 0.960 . S
C3414 H3427 0.962 . S
C3414 H3428 0.960 . S
C3415 C3412 1.511 . S
C3415 H3429 0.961 . S
C3415 H3430 0.961 . S
C3415 H3431 0.961 . S
C3416 C3417 1.370 . S
C3416 C3418 1.363 . S
C3416 H3432 0.931 . S
C3417 C3416 1.370 . S
C3417 C3421 1.408 . S
C3418 C3416 1.363 . S
C3418 C3419 1.370 . S
C3418 C3422 1.524 . S
C3419 C3411 1.503 . S
C3419 C3418 1.370 . S
C3419 C3420 1.403 . S
C3420 C3419 1.403 . S
C3420 C3421 1.404 . S
C3420 C3423 1.539 . S
C3421 C3417 1.408 . S
C3421 C3420 1.404 . S
C3421 H3433 0.930 . S
C3422 C3418 1.524 . S
C3422 H3434 0.956 . S
C3422 H3435 0.961 . S
C3422 H3436 0.961 . S
C3423 C3420 1.539 . S
C3423 H3437 0.958 . S
C3423 H3438 0.961 . S
C3423 H3439 0.960 . S
H3424 C3408 0.931 . S
H3425 C3413 0.929 . S
H3426 C3414 0.960 . S
H3427 C3414 0.962 . S
H3428 C3414 0.960 . S
H3429 C3415 0.961 . S
H3430 C3415 0.961 . S
H3431 C3415 0.961 . S
H3432 C3416 0.931 . S
H3433 C3421 0.930 . S
H3434 C3422 0.956 . S
H3435 C3422 0.961 . S
H3436 C3422 0.961 . S
H3437 C3423 0.958 . S
H3438 C3423 0.961 . S
H3439 C3423 0.960 . S
C3440 C3441 1.391 . S
C3440 C3442 1.394 . S
C3440 H3456 0.931 . S
C3441 C3440 1.391 . S
C3441 C3445 1.376 . S
C3442 C3440 1.394 . S
C3442 C3443 1.369 . S
C3442 C3446 1.531 . S
C3443 C3442 1.369 . S
C3443 C3444 1.410 . S
C3443 C3451 1.503 . S
C3444 C3443 1.410 . S
C3444 C3445 1.392 . S
C3444 C3447 1.511 . S
C3445 C3441 1.376 . S
C3445 C3444 1.392 . S
C3445 H3457 0.929 . S
C3446 C3442 1.531 . S
C3446 H3458 0.960 . S
C3446 H3459 0.962 . S
C3446 H3460 0.960 . S
C3447 C3444 1.511 . S
C3447 H3461 0.961 . S
C3447 H3462 0.961 . S
C3447 H3463 0.961 . S
C3448 C3449 1.370 . S
C3448 C3450 1.363 . S
C3448 H3464 0.931 . S
C3449 C3448 1.370 . S
C3449 C3453 1.408 . S
C3450 C3448 1.363 . S
C3450 C3451 1.370 . S
C3450 C3454 1.524 . S
C3451 C3443 1.503 . S
C3451 C3450 1.370 . S
C3451 C3452 1.403 . S
C3452 C3451 1.403 . S
C3452 C3453 1.404 . S
C3452 C3455 1.539 . S
C3453 C3449 1.408 . S
C3453 C3452 1.404 . S
C3453 H3465 0.930 . S
C3454 C3450 1.524 . S
C3454 H3466 0.956 . S
C3454 H3467 0.961 . S
C3454 H3468 0.961 . S
C3455 C3452 1.539 . S
C3455 H3469 0.958 . S
C3455 H3470 0.961 . S
C3455 H3471 0.960 . S
H3456 C3440 0.931 . S
H3457 C3445 0.929 . S
H3458 C3446 0.960 . S
H3459 C3446 0.962 . S
H3460 C3446 0.960 . S
H3461 C3447 0.961 . S
H3462 C3447 0.961 . S
H3463 C3447 0.961 . S
H3464 C3448 0.931 . S
H3465 C3453 0.930 . S
H3466 C3454 0.956 . S
H3467 C3454 0.961 . S
H3468 C3454 0.961 . S
H3469 C3455 0.958 . S
H3470 C3455 0.961 . S
H3471 C3455 0.960 . S
C3472 C3473 1.391 . S
C3472 C3474 1.394 . S
C3472 H3488 0.931 . S
C3473 C3472 1.391 . S
C3473 C3477 1.376 . S
C3474 C3472 1.394 . S
C3474 C3475 1.369 . S
C3474 C3478 1.531 . S
C3475 C3474 1.369 . S
C3475 C3476 1.410 . S
C3475 C3483 1.503 . S
C3476 C3475 1.410 . S
C3476 C3477 1.392 . S
C3476 C3479 1.511 . S
C3477 C3473 1.376 . S
C3477 C3476 1.392 . S
C3477 H3489 0.929 . S
C3478 C3474 1.531 . S
C3478 H3490 0.960 . S
C3478 H3491 0.962 . S
C3478 H3492 0.960 . S
C3479 C3476 1.511 . S
C3479 H3493 0.961 . S
C3479 H3494 0.961 . S
C3479 H3495 0.961 . S
C3480 C3481 1.370 . S
C3480 C3482 1.363 . S
C3480 H3496 0.931 . S
C3481 C3480 1.370 . S
C3481 C3485 1.408 . S
C3482 C3480 1.363 . S
C3482 C3483 1.370 . S
C3482 C3486 1.524 . S
C3483 C3475 1.503 . S
C3483 C3482 1.370 . S
C3483 C3484 1.403 . S
C3484 C3483 1.403 . S
C3484 C3485 1.404 . S
C3484 C3487 1.539 . S
C3485 C3481 1.408 . S
C3485 C3484 1.404 . S
C3485 H3497 0.930 . S
C3486 C3482 1.524 . S
C3486 H3498 0.956 . S
C3486 H3499 0.961 . S
C3486 H3500 0.961 . S
C3487 C3484 1.539 . S
C3487 H3501 0.958 . S
C3487 H3502 0.961 . S
C3487 H3503 0.960 . S
H3488 C3472 0.931 . S
H3489 C3477 0.929 . S
H3490 C3478 0.960 . S
H3491 C3478 0.962 . S
H3492 C3478 0.960 . S
H3493 C3479 0.961 . S
H3494 C3479 0.961 . S
H3495 C3479 0.961 . S
H3496 C3480 0.931 . S
H3497 C3485 0.930 . S
H3498 C3486 0.956 . S
H3499 C3486 0.961 . S
H3500 C3486 0.961 . S
H3501 C3487 0.958 . S
H3502 C3487 0.961 . S
H3503 C3487 0.960 . S
C3504 C3505 1.391 . S
C3504 C3506 1.394 . S
C3504 H3520 0.931 . S
C3505 C3504 1.391 . S
C3505 C3509 1.376 . S
C3506 C3504 1.394 . S
C3506 C3507 1.369 . S
C3506 C3510 1.531 . S
C3507 C3506 1.369 . S
C3507 C3508 1.410 . S
C3507 C3515 1.503 . S
C3508 C3507 1.410 . S
C3508 C3509 1.392 . S
C3508 C3511 1.511 . S
C3509 C3505 1.376 . S
C3509 C3508 1.392 . S
C3509 H3521 0.929 . S
C3510 C3506 1.531 . S
C3510 H3522 0.960 . S
C3510 H3523 0.962 . S
C3510 H3524 0.960 . S
C3511 C3508 1.511 . S
C3511 H3525 0.961 . S
C3511 H3526 0.961 . S
C3511 H3527 0.961 . S
C3512 C3513 1.355 1_565 S
C3512 C3514 1.338 1_565 S
C3512 H3528 0.973 . S
C3513 C3512 1.355 1_545 S
C3513 C3517 1.408 . S
C3514 C3512 1.338 1_545 S
C3514 C3515 1.370 . S
C3514 C3518 1.524 1_545 S
C3515 C3507 1.503 . S
C3515 C3514 1.370 . S
C3515 C3516 1.403 . S
C3516 C3515 1.403 . S
C3516 C3517 1.404 . S
C3516 C3519 1.539 . S
C3517 C3513 1.408 . S
C3517 C3516 1.404 . S
C3517 H3529 0.930 . S
C3518 C3514 1.524 1_565 S
C3518 H3530 0.956 . S
C3518 H3531 0.961 . S
C3518 H3532 0.961 . S
C3519 C3516 1.539 . S
C3519 H3533 0.958 . S
C3519 H3534 0.961 . S
C3519 H3535 0.960 . S
H3520 C3504 0.931 . S
H3521 C3509 0.929 . S
H3522 C3510 0.960 . S
H3523 C3510 0.962 . S
H3524 C3510 0.960 . S
H3525 C3511 0.961 . S
H3526 C3511 0.961 . S
H3527 C3511 0.961 . S
H3528 C3512 0.973 . S
H3529 C3517 0.930 . S
H3530 C3518 0.956 . S
H3531 C3518 0.961 . S
H3532 C3518 0.961 . S
H3533 C3519 0.958 . S
H3534 C3519 0.961 . S
H3535 C3519 0.960 . S
C3536 C3537 1.391 . S
C3536 C3538 1.394 . S
C3536 H3552 0.931 . S
C3537 C3536 1.391 . S
C3537 C3541 1.376 . S
C3538 C3536 1.394 . S
C3538 C3539 1.369 . S
C3538 C3542 1.531 . S
C3539 C3538 1.369 . S
C3539 C3540 1.410 . S
C3539 C3547 1.503 . S
C3540 C3539 1.410 . S
C3540 C3541 1.392 . S
C3540 C3543 1.511 1_655 S
C3541 C3537 1.376 . S
C3541 C3540 1.392 . S
C3541 H3553 0.929 1_655 S
C3542 C3538 1.531 . S
C3542 H3554 0.960 . S
C3542 H3555 0.962 . S
C3542 H3556 0.960 . S
C3543 C3540 1.511 1_455 S
C3543 H3557 0.961 . S
C3543 H3558 0.961 . S
C3543 H3559 0.961 . S
C3544 C3545 1.370 . S
C3544 C3546 1.363 . S
C3544 H3560 0.931 . S
C3545 C3544 1.370 . S
C3545 C3549 1.408 . S
C3546 C3544 1.363 . S
C3546 C3547 1.370 . S
C3546 C3550 1.524 . S
C3547 C3539 1.503 . S
C3547 C3546 1.370 . S
C3547 C3548 1.403 . S
C3548 C3547 1.403 . S
C3548 C3549 1.404 . S
C3548 C3551 1.539 1_655 S
C3549 C3545 1.408 . S
C3549 C3548 1.404 . S
C3549 H3561 0.923 1_655 S
C3550 C3546 1.524 . S
C3550 H3562 0.956 . S
C3550 H3563 0.961 . S
C3550 H3564 0.961 . S
C3551 C3548 1.539 1_455 S
C3551 H3565 0.958 1_455 S
C3551 H3566 0.961 . S
C3551 H3567 0.960 . S
H3552 C3536 0.931 . S
H3553 C3541 0.929 1_455 S
H3554 C3542 0.960 . S
H3555 C3542 0.962 . S
H3556 C3542 0.960 . S
H3557 C3543 0.961 . S
H3558 C3543 0.961 . S
H3559 C3543 0.961 . S
H3560 C3544 0.931 . S
H3561 C3549 0.923 1_455 S
H3562 C3550 0.956 . S
H3563 C3550 0.961 . S
H3564 C3550 0.961 . S
H3565 C3551 0.958 1_655 S
H3566 C3551 0.961 . S
H3567 C3551 0.960 . S
C3568 C3569 1.391 . S
C3568 C3570 1.394 . S
C3568 H3584 0.931 . S
C3569 C3568 1.391 . S
C3569 C3573 1.376 . S
C3570 C3568 1.394 . S
C3570 C3571 1.369 . S
C3570 C3574 1.531 . S
C3571 C3570 1.369 . S
C3571 C3572 1.410 . S
C3571 C3579 1.503 . S
C3572 C3571 1.410 . S
C3572 C3573 1.392 . S
C3572 C3575 1.511 . S
C3573 C3569 1.376 . S
C3573 C3572 1.392 . S
C3573 H3585 0.929 . S
C3574 C3570 1.531 . S
C3574 H3586 0.960 . S
C3574 H3587 0.962 . S
C3574 H3588 0.960 . S
C3575 C3572 1.511 . S
C3575 H3589 0.961 . S
C3575 H3590 0.961 . S
C3575 H3591 0.961 . S
C3576 C3577 1.370 . S
C3576 C3578 1.363 . S
C3576 H3592 0.931 . S
C3577 C3576 1.370 . S
C3577 C3581 1.408 . S
C3578 C3576 1.363 . S
C3578 C3579 1.370 . S
C3578 C3582 1.524 . S
C3579 C3571 1.503 . S
C3579 C3578 1.370 . S
C3579 C3580 1.403 . S
C3580 C3579 1.403 . S
C3580 C3581 1.404 . S
C3580 C3583 1.539 . S
C3581 C3577 1.408 . S
C3581 C3580 1.404 . S
C3581 H3593 0.930 . S
C3582 C3578 1.524 . S
C3582 H3594 0.956 . S
C3582 H3595 0.961 . S
C3582 H3596 0.961 . S
C3583 C3580 1.539 . S
C3583 H3597 0.958 . S
C3583 H3598 0.961 . S
C3583 H3599 0.960 . S
H3584 C3568 0.931 . S
H3585 C3573 0.929 . S
H3586 C3574 0.960 . S
H3587 C3574 0.962 . S
H3588 C3574 0.960 . S
H3589 C3575 0.961 . S
H3590 C3575 0.961 . S
H3591 C3575 0.961 . S
H3592 C3576 0.931 . S
H3593 C3581 0.930 . S
H3594 C3582 0.956 . S
H3595 C3582 0.961 . S
H3596 C3582 0.961 . S
H3597 C3583 0.958 . S
H3598 C3583 0.961 . S
H3599 C3583 0.960 . S
C3600 C3601 1.391 . S
C3600 C3602 1.394 . S
C3600 H3616 0.931 . S
C3601 C3600 1.391 . S
C3601 C3605 1.376 . S
C3602 C3600 1.394 . S
C3602 C3603 1.369 . S
C3602 C3606 1.531 . S
C3603 C3602 1.369 . S
C3603 C3604 1.410 . S
C3603 C3611 1.503 . S
C3604 C3603 1.410 . S
C3604 C3605 1.392 . S
C3604 C3607 1.511 . S
C3605 C3601 1.376 . S
C3605 C3604 1.392 . S
C3605 H3617 0.929 . S
C3606 C3602 1.531 . S
C3606 H3618 0.960 . S
C3606 H3619 0.962 . S
C3606 H3620 0.960 . S
C3607 C3604 1.511 . S
C3607 H3621 0.961 . S
C3607 H3622 0.961 . S
C3607 H3623 0.961 . S
C3608 C3609 1.370 . S
C3608 C3610 1.363 . S
C3608 H3624 0.931 . S
C3609 C3608 1.370 . S
C3609 C3613 1.408 . S
C3610 C3608 1.363 . S
C3610 C3611 1.370 . S
C3610 C3614 1.524 . S
C3611 C3603 1.503 . S
C3611 C3610 1.370 . S
C3611 C3612 1.403 . S
C3612 C3611 1.403 . S
C3612 C3613 1.404 . S
C3612 C3615 1.539 . S
C3613 C3609 1.408 . S
C3613 C3612 1.404 . S
C3613 H3625 0.930 . S
C3614 C3610 1.524 . S
C3614 H3626 0.956 . S
C3614 H3627 0.961 . S
C3614 H3628 0.961 . S
C3615 C3612 1.539 . S
C3615 H3629 0.958 . S
C3615 H3630 0.961 . S
C3615 H3631 0.960 . S
H3616 C3600 0.931 . S
H3617 C3605 0.929 . S
H3618 C3606 0.960 . S
H3619 C3606 0.962 . S
H3620 C3606 0.960 . S
H3621 C3607 0.961 . S
H3622 C3607 0.961 . S
H3623 C3607 0.961 . S
H3624 C3608 0.931 . S
H3625 C3613 0.930 . S
H3626 C3614 0.956 . S
H3627 C3614 0.961 . S
H3628 C3614 0.961 . S
H3629 C3615 0.958 . S
H3630 C3615 0.961 . S
H3631 C3615 0.960 . S
C3632 C3633 1.391 . S
C3632 C3634 1.394 . S
C3632 H3648 0.931 . S
C3633 C3632 1.391 . S
C3633 C3637 1.376 . S
C3634 C3632 1.394 . S
C3634 C3635 1.369 . S
C3634 C3638 1.531 . S
C3635 C3634 1.369 . S
C3635 C3636 1.410 . S
C3635 C3643 1.503 . S
C3636 C3635 1.410 . S
C3636 C3637 1.392 . S
C3636 C3639 1.511 . S
C3637 C3633 1.376 . S
C3637 C3636 1.392 . S
C3637 H3649 0.929 . S
C3638 C3634 1.531 . S
C3638 H3650 0.960 . S
C3638 H3651 0.962 . S
C3638 H3652 0.960 . S
C3639 C3636 1.511 . S
C3639 H3653 0.961 . S
C3639 H3654 0.961 . S
C3639 H3655 0.961 . S
C3640 C3641 1.370 . S
C3640 C3642 1.363 . S
C3640 H3656 0.931 . S
C3641 C3640 1.370 . S
C3641 C3645 1.408 . S
C3642 C3640 1.363 . S
C3642 C3643 1.370 . S
C3642 C3646 1.524 . S
C3643 C3635 1.503 . S
C3643 C3642 1.370 . S
C3643 C3644 1.403 . S
C3644 C3643 1.403 . S
C3644 C3645 1.404 . S
C3644 C3647 1.539 . S
C3645 C3641 1.408 . S
C3645 C3644 1.404 . S
C3645 H3657 0.930 . S
C3646 C3642 1.524 . S
C3646 H3658 0.956 . S
C3646 H3659 0.961 . S
C3646 H3660 0.961 . S
C3647 C3644 1.539 . S
C3647 H3661 0.958 . S
C3647 H3662 0.961 . S
C3647 H3663 0.960 . S
H3648 C3632 0.931 . S
H3649 C3637 0.929 . S
H3650 C3638 0.960 . S
H3651 C3638 0.962 . S
H3652 C3638 0.960 . S
H3653 C3639 0.961 . S
H3654 C3639 0.961 . S
H3655 C3639 0.961 . S
H3656 C3640 0.931 . S
H3657 C3645 0.930 . S
H3658 C3646 0.956 . S
H3659 C3646 0.961 . S
H3660 C3646 0.961 . S
H3661 C3647 0.958 . S
H3662 C3647 0.961 . S
H3663 C3647 0.960 . S
C3664 C3665 1.391 . S
C3664 C3666 1.394 . S
C3664 H3680 0.931 . S
C3665 C3664 1.391 . S
C3665 C3669 1.376 . S
C3666 C3664 1.394 . S
C3666 C3667 1.369 . S
C3666 C3670 1.531 . S
C3667 C3666 1.369 . S
C3667 C3668 1.410 . S
C3667 C3675 1.503 . S
C3668 C3667 1.410 . S
C3668 C3669 1.392 . S
C3668 C3671 1.511 . S
C3669 C3665 1.376 . S
C3669 C3668 1.392 . S
C3669 H3681 0.929 . S
C3670 C3666 1.531 . S
C3670 H3682 0.960 . S
C3670 H3683 0.962 . S
C3670 H3684 0.960 . S
C3671 C3668 1.511 . S
C3671 H3685 0.961 . S
C3671 H3686 0.961 . S
C3671 H3687 0.961 . S
C3672 C3673 1.370 . S
C3672 C3674 1.363 . S
C3672 H3688 0.931 . S
C3673 C3672 1.370 . S
C3673 C3677 1.408 . S
C3674 C3672 1.363 . S
C3674 C3675 1.370 . S
C3674 C3678 1.524 . S
C3675 C3667 1.503 . S
C3675 C3674 1.370 . S
C3675 C3676 1.403 . S
C3676 C3675 1.403 . S
C3676 C3677 1.404 . S
C3676 C3679 1.539 . S
C3677 C3673 1.408 . S
C3677 C3676 1.404 . S
C3677 H3689 0.930 . S
C3678 C3674 1.524 . S
C3678 H3690 0.956 . S
C3678 H3691 0.961 . S
C3678 H3692 0.961 . S
C3679 C3676 1.539 . S
C3679 H3693 0.958 . S
C3679 H3694 0.961 . S
C3679 H3695 0.960 . S
H3680 C3664 0.931 . S
H3681 C3669 0.929 . S
H3682 C3670 0.960 . S
H3683 C3670 0.962 . S
H3684 C3670 0.960 . S
H3685 C3671 0.961 . S
H3686 C3671 0.961 . S
H3687 C3671 0.961 . S
H3688 C3672 0.931 . S
H3689 C3677 0.930 . S
H3690 C3678 0.956 . S
H3691 C3678 0.961 . S
H3692 C3678 0.961 . S
H3693 C3679 0.958 . S
H3694 C3679 0.961 . S
H3695 C3679 0.960 . S
C3696 C3697 1.391 . S
C3696 C3698 1.394 . S
C3696 H3712 0.931 . S
C3697 C3696 1.391 . S
C3697 C3701 1.376 . S
C3698 C3696 1.394 . S
C3698 C3699 1.369 . S
C3698 C3702 1.531 . S
C3699 C3698 1.369 . S
C3699 C3700 1.410 . S
C3699 C3707 1.503 . S
C3700 C3699 1.410 . S
C3700 C3701 1.392 . S
C3700 C3703 1.511 . S
C3701 C3697 1.376 . S
C3701 C3700 1.392 . S
C3701 H3713 0.929 . S
C3702 C3698 1.531 . S
C3702 H3714 0.960 . S
C3702 H3715 0.962 . S
C3702 H3716 0.960 . S
C3703 C3700 1.511 . S
C3703 H3717 0.961 . S
C3703 H3718 0.961 . S
C3703 H3719 0.961 . S
C3704 C3705 1.370 . S
C3704 C3706 1.363 . S
C3704 H3720 0.931 . S
C3705 C3704 1.370 . S
C3705 C3709 1.408 . S
C3706 C3704 1.363 . S
C3706 C3707 1.370 . S
C3706 C3710 1.524 . S
C3707 C3699 1.503 . S
C3707 C3706 1.370 . S
C3707 C3708 1.403 . S
C3708 C3707 1.403 . S
C3708 C3709 1.404 . S
C3708 C3711 1.539 . S
C3709 C3705 1.408 . S
C3709 C3708 1.404 . S
C3709 H3721 0.930 . S
C3710 C3706 1.524 . S
C3710 H3722 0.956 . S
C3710 H3723 0.961 . S
C3710 H3724 0.961 . S
C3711 C3708 1.539 . S
C3711 H3725 0.958 . S
C3711 H3726 0.961 . S
C3711 H3727 0.960 . S
H3712 C3696 0.931 . S
H3713 C3701 0.929 . S
H3714 C3702 0.960 . S
H3715 C3702 0.962 . S
H3716 C3702 0.960 . S
H3717 C3703 0.961 . S
H3718 C3703 0.961 . S
H3719 C3703 0.961 . S
H3720 C3704 0.931 . S
H3721 C3709 0.930 . S
H3722 C3710 0.956 . S
H3723 C3710 0.961 . S
H3724 C3710 0.961 . S
H3725 C3711 0.958 . S
H3726 C3711 0.961 . S
H3727 C3711 0.960 . S
C3728 C3729 1.391 . S
C3728 C3730 1.394 . S
C3728 H3744 0.931 . S
C3729 C3728 1.391 . S
C3729 C3733 1.376 . S
C3730 C3728 1.394 . S
C3730 C3731 1.369 . S
C3730 C3734 1.531 . S
C3731 C3730 1.369 . S
C3731 C3732 1.410 . S
C3731 C3739 1.503 . S
C3732 C3731 1.410 . S
C3732 C3733 1.392 . S
C3732 C3735 1.511 . S
C3733 C3729 1.376 . S
C3733 C3732 1.392 . S
C3733 H3745 0.929 . S
C3734 C3730 1.531 . S
C3734 H3746 0.960 . S
C3734 H3747 0.962 . S
C3734 H3748 0.960 . S
C3735 C3732 1.511 . S
C3735 H3749 0.961 . S
C3735 H3750 0.961 . S
C3735 H3751 0.961 . S
C3736 C3737 1.370 . S
C3736 C3738 1.363 . S
C3736 H3752 0.931 . S
C3737 C3736 1.370 . S
C3737 C3741 1.408 . S
C3738 C3736 1.363 . S
C3738 C3739 1.370 . S
C3738 C3742 1.524 . S
C3739 C3731 1.503 . S
C3739 C3738 1.370 . S
C3739 C3740 1.403 . S
C3740 C3739 1.403 . S
C3740 C3741 1.404 . S
C3740 C3743 1.539 . S
C3741 C3737 1.408 . S
C3741 C3740 1.404 . S
C3741 H3753 0.930 . S
C3742 C3738 1.524 . S
C3742 H3754 0.956 . S
C3742 H3755 0.961 . S
C3742 H3756 0.961 . S
C3743 C3740 1.539 . S
C3743 H3757 0.958 . S
C3743 H3758 0.961 . S
C3743 H3759 0.960 . S
H3744 C3728 0.931 . S
H3745 C3733 0.929 . S
H3746 C3734 0.960 . S
H3747 C3734 0.962 . S
H3748 C3734 0.960 . S
H3749 C3735 0.961 . S
H3750 C3735 0.961 . S
H3751 C3735 0.961 . S
H3752 C3736 0.931 . S
H3753 C3741 0.930 . S
H3754 C3742 0.956 . S
H3755 C3742 0.961 . S
H3756 C3742 0.961 . S
H3757 C3743 0.958 . S
H3758 C3743 0.961 . S
H3759 C3743 0.960 . S
C3760 C3761 1.391 . S
C3760 C3762 1.394 . S
C3760 H3776 0.931 . S
C3761 C3760 1.391 . S
C3761 C3765 1.376 . S
C3762 C3760 1.394 . S
C3762 C3763 1.369 . S
C3762 C3766 1.531 . S
C3763 C3762 1.369 . S
C3763 C3764 1.410 . S
C3763 C3771 1.503 . S
C3764 C3763 1.410 . S
C3764 C3765 1.392 . S
C3764 C3767 1.511 . S
C3765 C3761 1.376 . S
C3765 C3764 1.392 . S
C3765 H3777 0.929 1_455 S
C3766 C3762 1.531 . S
C3766 H3778 0.960 . S
C3766 H3779 0.962 . S
C3766 H3780 0.960 . S
C3767 C3764 1.511 . S
C3767 H3781 0.961 . S
C3767 H3782 0.961 . S
C3767 H3783 0.961 . S
C3768 C3769 1.370 . S
C3768 C3770 1.363 . S
C3768 H3784 0.931 . S
C3769 C3768 1.370 . S
C3769 C3773 1.408 . S
C3770 C3768 1.363 . S
C3770 C3771 1.370 . S
C3770 C3774 1.524 . S
C3771 C3763 1.503 . S
C3771 C3770 1.370 . S
C3771 C3772 1.403 . S
C3772 C3771 1.403 . S
C3772 C3773 1.404 . S
C3772 C3775 1.539 . S
C3773 C3769 1.408 . S
C3773 C3772 1.404 . S
C3773 H3785 0.930 . S
C3774 C3770 1.524 . S
C3774 H3786 0.956 . S
C3774 H3787 0.961 . S
C3774 H3788 0.961 . S
C3775 C3772 1.539 . S
C3775 H3789 0.958 . S
C3775 H3790 0.961 . S
C3775 H3791 0.960 . S
H3776 C3760 0.931 . S
H3777 C3765 0.929 1_655 S
H3778 C3766 0.960 . S
H3779 C3766 0.962 . S
H3780 C3766 0.960 . S
H3781 C3767 0.961 . S
H3782 C3767 0.961 . S
H3783 C3767 0.961 . S
H3784 C3768 0.931 . S
H3785 C3773 0.930 . S
H3786 C3774 0.956 . S
H3787 C3774 0.961 . S
H3788 C3774 0.961 . S
H3789 C3775 0.958 . S
H3790 C3775 0.961 . S
H3791 C3775 0.960 . S
C3792 C3793 1.391 . S
C3792 C3794 1.394 . S
C3792 H3808 0.931 . S
C3793 C3792 1.391 . S
C3793 C3797 1.376 . S
C3794 C3792 1.394 . S
C3794 C3795 1.369 . S
C3794 C3798 1.531 . S
C3795 C3794 1.369 . S
C3795 C3796 1.410 . S
C3795 C3803 1.503 . S
C3796 C3795 1.410 . S
C3796 C3797 1.392 . S
C3796 C3799 1.511 . S
C3797 C3793 1.376 . S
C3797 C3796 1.392 . S
C3797 H3809 0.929 . S
C3798 C3794 1.531 . S
C3798 H3810 0.960 . S
C3798 H3811 0.962 1_655 S
C3798 H3812 0.960 . S
C3799 C3796 1.511 . S
C3799 H3813 0.961 . S
C3799 H3814 0.961 . S
C3799 H3815 0.961 . S
C3800 C3801 1.370 1_455 S
C3800 C3802 1.363 1_455 S
C3800 H3816 0.931 . S
C3801 C3800 1.370 1_655 S
C3801 C3805 1.408 . S
C3802 C3800 1.363 1_655 S
C3802 C3803 1.370 . S
C3802 C3806 1.524 1_655 S
C3803 C3795 1.503 . S
C3803 C3802 1.370 . S
C3803 C3804 1.403 . S
C3804 C3803 1.403 . S
C3804 C3805 1.404 . S
C3804 C3807 1.539 . S
C3805 C3801 1.408 . S
C3805 C3804 1.404 . S
C3805 H3817 0.930 . S
C3806 C3802 1.524 1_455 S
C3806 H3818 0.956 . S
C3806 H3819 0.959 1_455 S
C3806 H3820 0.961 . S
C3807 C3804 1.539 . S
C3807 H3821 0.958 . S
C3807 H3822 0.961 . S
C3807 H3823 0.960 . S
H3808 C3792 0.931 . S
H3809 C3797 0.929 . S
H3810 C3798 0.960 . S
H3811 C3798 0.962 1_455 S
H3812 C3798 0.960 . S
H3813 C3799 0.961 . S
H3814 C3799 0.961 . S
H3815 C3799 0.961 . S
H3816 C3800 0.931 . S
H3817 C3805 0.930 . S
H3818 C3806 0.956 . S
H3819 C3806 0.959 1_655 S
H3820 C3806 0.961 . S
H3821 C3807 0.958 . S
H3822 C3807 0.961 . S
H3823 C3807 0.960 . S
C3824 C3825 1.391 . S
C3824 C3826 1.394 . S
C3824 H3840 0.931 . S
C3825 C3824 1.391 . S
C3825 C3829 1.376 . S
C3826 C3824 1.394 . S
C3826 C3827 1.369 . S
C3826 C3830 1.531 . S
C3827 C3826 1.369 . S
C3827 C3828 1.410 . S
C3827 C3835 1.503 . S
C3828 C3827 1.410 . S
C3828 C3829 1.392 . S
C3828 C3831 1.511 . S
C3829 C3825 1.376 . S
C3829 C3828 1.392 . S
C3829 H3841 0.929 . S
C3830 C3826 1.531 . S
C3830 H3842 0.960 . S
C3830 H3843 0.962 . S
C3830 H3844 0.960 . S
C3831 C3828 1.511 . S
C3831 H3845 0.961 . S
C3831 H3846 0.961 . S
C3831 H3847 0.961 . S
C3832 C3833 1.370 . S
C3832 C3834 1.363 . S
C3832 H3848 0.931 . S
C3833 C3832 1.370 . S
C3833 C3837 1.408 . S
C3834 C3832 1.363 . S
C3834 C3835 1.370 . S
C3834 C3838 1.524 . S
C3835 C3827 1.503 . S
C3835 C3834 1.370 . S
C3835 C3836 1.403 . S
C3836 C3835 1.403 . S
C3836 C3837 1.404 . S
C3836 C3839 1.539 . S
C3837 C3833 1.408 . S
C3837 C3836 1.404 . S
C3837 H3849 0.930 . S
C3838 C3834 1.524 . S
C3838 H3850 0.956 . S
C3838 H3851 0.961 . S
C3838 H3852 0.961 . S
C3839 C3836 1.539 . S
C3839 H3853 0.958 . S
C3839 H3854 0.961 . S
C3839 H3855 0.960 . S
H3840 C3824 0.931 . S
H3841 C3829 0.929 . S
H3842 C3830 0.960 . S
H3843 C3830 0.962 . S
H3844 C3830 0.960 . S
H3845 C3831 0.961 . S
H3846 C3831 0.961 . S
H3847 C3831 0.961 . S
H3848 C3832 0.931 . S
H3849 C3837 0.930 . S
H3850 C3838 0.956 . S
H3851 C3838 0.961 . S
H3852 C3838 0.961 . S
H3853 C3839 0.958 . S
H3854 C3839 0.961 . S
H3855 C3839 0.960 . S
C3856 C3857 1.391 . S
C3856 C3858 1.394 . S
C3856 H3872 0.931 . S
C3857 C3856 1.391 . S
C3857 C3861 1.376 . S
C3858 C3856 1.394 . S
C3858 C3859 1.369 . S
C3858 C3862 1.531 . S
C3859 C3858 1.369 . S
C3859 C3860 1.410 . S
C3859 C3867 1.503 . S
C3860 C3859 1.410 . S
C3860 C3861 1.392 . S
C3860 C3863 1.511 . S
C3861 C3857 1.376 . S
C3861 C3860 1.392 . S
C3861 H3873 0.929 . S
C3862 C3858 1.531 . S
C3862 H3874 0.941 1_545 S
C3862 H3875 0.962 . S
C3862 H3876 0.960 . S
C3863 C3860 1.511 . S
C3863 H3877 0.961 . S
C3863 H3878 0.961 . S
C3863 H3879 0.961 . S
C3864 C3865 1.370 . S
C3864 C3866 1.363 . S
C3864 H3880 0.931 . S
C3865 C3864 1.370 . S
C3865 C3869 1.408 1_545 S
C3866 C3864 1.363 . S
C3866 C3867 1.370 . S
C3866 C3870 1.524 . S
C3867 C3859 1.503 . S
C3867 C3866 1.370 . S
C3867 C3868 1.403 1_545 S
C3868 C3867 1.403 1_565 S
C3868 C3869 1.404 . S
C3868 C3871 1.539 . S
C3869 C3865 1.408 1_565 S
C3869 C3868 1.404 . S
C3869 H3881 0.930 . S
C3870 C3866 1.524 . S
C3870 H3882 0.956 . S
C3870 H3883 0.961 . S
C3870 H3884 0.961 . S
C3871 C3868 1.539 . S
C3871 H3885 0.958 . S
C3871 H3886 0.961 . S
C3871 H3887 0.960 . S
H3872 C3856 0.931 . S
H3873 C3861 0.929 . S
H3874 C3862 0.941 1_565 S
H3875 C3862 0.962 . S
H3876 C3862 0.960 . S
H3877 C3863 0.961 . S
H3878 C3863 0.961 . S
H3879 C3863 0.961 . S
H3880 C3864 0.931 . S
H3881 C3869 0.930 . S
H3882 C3870 0.956 . S
H3883 C3870 0.961 . S
H3884 C3870 0.961 . S
H3885 C3871 0.958 . S
H3886 C3871 0.961 . S
H3887 C3871 0.960 . S
C1585 C7 1.158 . S
C1593 C981 1.155 . S
C1617 C23 1.638 . S
C1625 C1061 1.600 . S
C1657 C1129 1.328 . S
C1649 C37 1.364 . S
C1681 C35 1.725 . S
C1689 C1209 1.717 . S
C1713 C9 1.527 . S
C1721 C1283 1.529 . S
C1745 C21 1.643 . S
C1753 C1351 1.621 . S
C1777 C49 1.115 . S
C1785 C1277 1.064 . S
C1817 C1357 1.485 . S
C1809 C65 1.483 . S
C1849 C1203 1.300 1_565 S
C1841 C79 1.330 1_556 S
C1873 C77 1.686 . S
C1881 C1135 1.662 . S
C1913 C987 1.517 . S
C1905 C51 1.472 . S
C1937 C63 1.462 . S
C1945 C1055 1.486 . S
C1969 C91 1.470 . S
C1977 C1425 1.408 . S
C2001 C107 1.681 . S
C2009 C1505 1.629 . S
C2041 C1573 1.519 . S
C2033 C121 1.615 . S
C2065 C119 1.964 . S
C2073 C321 1.892 . S
C2097 C93 1.807 . S
C2105 C395 1.750 . S
C2129 C105 1.692 . S
C2137 C463 1.643 . S
C2161 C133 1.149 . S
C2169 C389 1.138 . S
C2193 C149 1.505 . S
C2201 C469 1.529 . S
C2233 C315 1.419 . S
C2225 C163 1.428 . S
C2265 C1579 1.895 . S
C2257 C161 1.904 . S
C2297 C1431 1.583 . S
C2289 C135 1.588 . S
C2329 C1499 1.528 . S
C2321 C147 1.543 . S
C2353 C175 1.327 . S
C2361 C537 1.317 . S
C2385 C191 1.675 . S
C2393 C617 1.623 . S
C2417 C205 1.657 . S
C2425 C685 1.575 . S
C2449 C203 2.042 . S
C2457 C765 2.001 . S
C2489 C839 1.707 . S
C2481 C177 1.781 . S
C2521 C907 1.665 . S
C2513 C189 1.732 . S
C2553 C833 1.262 . S
C2545 C217 1.293 . S
C2585 C913 1.509 . S
C2577 C233 1.512 . S
C2609 C247 1.397 . S
C2617 C759 1.386 . S
C2649 C691 1.794 . S
C2641 C245 1.785 . S
C2673 C219 1.625 . S
C2681 C543 1.624 . S
C2713 C611 1.515 . S
C2705 C231 1.480 . S
C2745 C291 1.943 . S
C2737 C8 1.993 . S
C2769 C17 1.449 . S
C2777 C365 1.463 . S
C2809 C451 1.561 . S
C2801 C31 1.524 . S
C2841 C525 1.300 . S
C2833 C36 1.308 . S
C2873 C587 1.646 . S
C2865 C3 1.627 1_556 S
C2905 C673 1.532 . S
C2897 C22 1.551 . S
C2929 C50 2.167 . S
C2937 C661 2.063 . S
C2961 C59 1.641 . S
C2969 C513 1.607 . S
C2993 C73 1.775 . S
C3001 C599 1.728 . S
C3025 C78 1.554 . S
C3033 C377 1.530 . S
C3065 C439 1.760 . S
C3057 C45 1.835 . S
C3089 C64 1.782 . S
C3097 C303 1.717 . S
C3129 C735 1.908 . S
C3121 C92 1.938 . S
C3153 C101 1.634 1_545 S
C3161 C809 1.617 . S
C3185 C115 1.629 . S
C3193 C895 1.608 . S
C3225 C969 1.101 . S
C3217 C120 1.079 . S
C3249 C87 1.573 . S
C3257 C1031 1.575 . S
C3281 C106 1.403 . S
C3289 C1117 1.399 . S
C3313 C134 1.839 . S
C3321 C1105 1.775 . S
C3345 C143 1.395 . S
C3353 C957 1.379 . S
C3385 C1043 1.684 . S
C3377 C157 1.719 . S
C3409 C162 1.555 . S
C3417 C821 1.484 . S
C3441 C129 1.882 1_545 S
C3449 C883 1.793 . S
C3481 C747 1.808 . S
C3473 C148 1.884 1_655 S
C3513 C1179 1.766 . S
C3505 C176 1.793 . S
C3537 C185 1.313 . S
C3545 C1253 1.315 . S
C3569 C199 1.525 . S
C3577 C1339 1.513 . S
C3609 C1413 1.282 . S
C3601 C204 1.276 . S
C3641 C1475 1.679 . S
C3633 C171 1.692 1_565 S
C3665 C190 1.658 . S
C3673 C1561 1.636 . S
C3697 C218 2.115 . S
C3705 C1549 2.006 . S
C3729 C227 1.799 1_565 S
C3737 C1401 1.753 . S
C3769 C1487 1.778 . S
C3761 C241 1.794 1_455 S
C3801 C1265 1.150 . S
C3793 C246 1.197 . S
C3833 C1327 1.710 . S
C3825 C213 1.750 . S
C3857 C232 1.480 . S
C3865 C1191 1.472 1_545 S
