# Generated by pormake.
# Topology anh, (6,3)-cn, num edge types: 1
# Building blocks:
#     Node 0, Type 0, BuildingBlock: BETGAK_clean_sbu_0, # of connection points: 6
#     Node 1, Type 0, BuildingBlock: BETGAK_clean_sbu_0, # of connection points: 6
#     Node 2, Type 0, BuildingBlock: BETGAK_clean_sbu_0, # of connection points: 6
#     Node 3, Type 1, BuildingBlock: ESEHIV_clean_linker_0, # of connection points: 3
#     Node 4, Type 1, BuildingBlock: ESEHIV_clean_linker_0, # of connection points: 3
#     Node 5, Type 1, BuildingBlock: ESEHIV_clean_linker_0, # of connection points: 3
#     Node 6, Type 1, BuildingBlock: ESEHIV_clean_linker_0, # of connection points: 3
#     Node 7, Type 1, BuildingBlock: ESEHIV_clean_linker_0, # of connection points: 3
#     Node 8, Type 1, BuildingBlock: ESEHIV_clean_linker_0, # of connection points: 3
#     Edge 9, Type (0, 1), BuildingBlock: ZUJKAS_clean_linker_0, # of connection points: 2
#     Edge 10, Type (0, 1), BuildingBlock: ZUJKAS_clean_linker_0, # of connection points: 2
#     Edge 11, Type (0, 1), BuildingBlock: ZUJKAS_clean_linker_0, # of connection points: 2
#     Edge 12, Type (0, 1), BuildingBlock: ZUJKAS_clean_linker_0, # of connection points: 2
#     Edge 13, Type (0, 1), BuildingBlock: ZUJKAS_clean_linker_0, # of connection points: 2
#     Edge 14, Type (0, 1), BuildingBlock: ZUJKAS_clean_linker_0, # of connection points: 2
#     Edge 15, Type (0, 1), BuildingBlock: ZUJKAS_clean_linker_0, # of connection points: 2
#     Edge 16, Type (0, 1), BuildingBlock: ZUJKAS_clean_linker_0, # of connection points: 2
#     Edge 17, Type (0, 1), BuildingBlock: ZUJKAS_clean_linker_0, # of connection points: 2
#     Edge 18, Type (0, 1), BuildingBlock: ZUJKAS_clean_linker_0, # of connection points: 2
#     Edge 19, Type (0, 1), BuildingBlock: ZUJKAS_clean_linker_0, # of connection points: 2
#     Edge 20, Type (0, 1), BuildingBlock: ZUJKAS_clean_linker_0, # of connection points: 2
#     Edge 21, Type (0, 1), BuildingBlock: ZUJKAS_clean_linker_0, # of connection points: 2
#     Edge 22, Type (0, 1), BuildingBlock: ZUJKAS_clean_linker_0, # of connection points: 2
#     Edge 23, Type (0, 1), BuildingBlock: ZUJKAS_clean_linker_0, # of connection points: 2
#     Edge 24, Type (0, 1), BuildingBlock: ZUJKAS_clean_linker_0, # of connection points: 2
#     Edge 25, Type (0, 1), BuildingBlock: ZUJKAS_clean_linker_0, # of connection points: 2
#     Edge 26, Type (0, 1), BuildingBlock: ZUJKAS_clean_linker_0, # of connection points: 2
# Relax obj value: 0.183
# Max RMSD: 0.206
# Mean RMSD: 0.155
data_MOF--net-anh--node1-BETGAK_clean_sbu_0--node2-ESEHIV_clean_linker_0--edge1-ZUJKAS_clean_linker_0
_symmetry_space_group_name_H-M    P1
_symmetry_Int_Tables_number       1
_symmetry_cell_setting            triclinic
loop_
_symmetry_equiv_pos_as_xyz
'x, y, z'
_cell_length_a     37.344787
_cell_length_b     43.733008
_cell_length_c     67.434772
_cell_angle_alpha  92.058071
_cell_angle_beta   89.516926
_cell_angle_gamma 128.18282
loop_
_atom_site_label
_atom_site_type_symbol
_atom_site_fract_x
_atom_site_fract_y
_atom_site_fract_z
_atom_type_partial_charge
La0 La 0.11131 0.52315 0.14472 0.0
La1 La 1.05647 0.54818 0.15801 0.0
C2 C 0.16847 0.51961 0.12763 0.0
C3 C 0.21712 0.54058 0.13246 0.0
C4 C 0.23056 0.53669 0.15099 0.0
C5 C 0.27647 0.55686 0.15568 0.0
C6 C 0.31025 0.58174 0.14205 0.0
C7 C 0.29687 0.58667 0.12374 0.0
C8 C 0.25069 0.56617 0.11898 0.0
C9 C 0.1005 0.52254 0.18332 0.0
C10 C 0.15995 0.61442 0.15391 0.0
C11 C 1.00127 0.55371 0.17606 0.0
C12 C 0.95434 0.52443 0.18248 0.0
C13 C 0.92614 0.48805 0.17239 0.0
C14 C 0.88166 0.46002 0.17849 0.0
C15 C 0.86426 0.46818 0.19454 0.0
C16 C 0.89261 0.5045 0.20479 0.0
C17 C 0.93762 0.53235 0.19891 0.0
C18 C 0.06947 0.54933 0.11944 0.0
C19 C 1.00943 0.45771 0.15047 0.0
O20 O 0.13946 0.49438 0.14046 0.0
O21 O 0.1576 0.54104 0.12149 0.0
O22 O 0.1049 0.49904 0.17361 0.0
O23 O 0.10677 0.54733 0.17181 0.0
O24 O 0.16207 0.5874 0.1459 0.0
O25 O 0.12197 0.60522 0.16167 0.0
O26 O 1.00702 0.55657 0.15685 0.0
O27 O 1.03203 0.55355 0.18503 0.0
O28 O 0.06792 0.57455 0.12922 0.0
O29 O 1.06112 0.52375 0.13094 0.0
O30 O 1.01012 0.48448 0.16073 0.0
O31 O 1.04419 0.46775 0.1393 0.0
H32 H 0.20566 0.51763 0.16189 0.0
H33 H 0.28523 0.55155 0.16972 0.0
H34 H 0.32205 0.60582 0.11296 0.0
H35 H 0.24117 0.57015 0.10473 0.0
H36 H 0.93815 0.48155 0.1595 0.0
H37 H 0.86014 0.43263 0.17003 0.0
H38 H 0.87963 0.51155 0.21706 0.0
H39 H 0.95905 0.56026 0.2069 0.0
La40 La 0.61885 0.02177 0.48127 0.0
La41 La 0.56189 0.04596 0.47164 0.0
C42 C 0.65096 0.99196 0.49734 0.0
C43 C 0.63841 0.9531 0.49999 0.0
C44 C 0.62475 0.92644 0.48392 0.0
C45 C 0.61524 0.89056 0.48689 0.0
C46 C 0.61879 0.88059 0.50597 0.0
C47 C 0.63155 0.90706 0.52204 0.0
C48 C 0.64138 0.94296 0.51904 0.0
C49 C 0.61399 0.03099 0.44333 0.0
C50 C 0.51134 0.95706 0.47302 0.0
C51 C 0.52933 0.07758 0.45843 0.0
C52 C 0.53808 0.1148 0.46333 0.0
C53 C 0.50301 0.11774 0.46123 0.0
C54 C 0.5096 0.15174 0.46763 0.0
C55 C 0.55153 0.18351 0.47622 0.0
C56 C 0.58693 0.18066 0.4778 0.0
C57 C 0.58012 0.14657 0.4716 0.0
C58 C 0.56982 0.03936 0.50987 0.0
C59 C 0.6705 0.11028 0.47698 0.0
O60 O 0.66098 1.00528 0.47942 0.0
O61 O 0.62599 0.99929 0.50663 0.0
O62 O 0.64926 0.03788 0.45199 0.0
O63 O 0.5818 0.01629 0.45538 0.0
O64 O 0.54881 0.96634 0.48171 0.0
O65 O 0.51107 0.98391 0.46476 0.0
O66 O 0.51088 0.05269 0.47257 0.0
O67 O 0.5624 0.07961 0.44996 0.0
O68 O 0.53414 0.03208 0.5016 0.0
O69 O 0.60046 0.05286 0.49719 0.0
O70 O 0.63183 0.10041 0.46944 0.0
O71 O 0.67221 0.08437 0.48546 0.0
H72 H 0.62183 0.93341 0.46906 0.0
H73 H 0.60507 0.87059 0.47427 0.0
H74 H 0.63513 0.90045 0.53687 0.0
H75 H 0.65193 0.96311 0.53163 0.0
H76 H 0.47011 0.09334 0.45513 0.0
H77 H 0.48133 0.15257 0.46643 0.0
H78 H 0.6199 0.20466 0.48401 0.0
H79 H 0.60747 0.14482 0.47366 0.0
La80 La 0.624 0.56851 0.84707 0.0
La81 La 0.55945 0.4819 0.84861 0.0
C82 C 0.66588 0.63799 0.83729 0.0
C83 C 0.65587 0.66491 0.83317 0.0
C84 C 0.68818 0.70442 0.83868 0.0
C85 C 0.68052 0.731 0.83441 0.0
C86 C 0.64036 0.71858 0.82446 0.0
C87 C 0.60769 0.67878 0.81916 0.0
C88 C 0.6153 0.65214 0.82353 0.0
C89 C 0.60872 0.54072 0.88263 0.0
C90 C 0.51517 0.52418 0.84968 0.0
C91 C 0.51884 0.41185 0.85688 0.0
C92 C 0.52582 0.38242 0.85278 0.0
C93 C 0.49228 0.34799 0.84202 0.0
C94 C 0.49867 0.32036 0.83714 0.0
C95 C 0.53874 0.32638 0.84303 0.0
C96 C 0.57206 0.36067 0.8541 0.0
C97 C 0.56567 0.38839 0.85893 0.0
C98 C 0.57514 0.50923 0.8128 0.0
C99 C 0.66912 0.52682 0.84792 0.0
O100 O 0.66142 0.62769 0.85566 0.0
O101 O 0.64978 0.60871 0.82455 0.0
O102 O 0.64774 0.57184 0.87725 0.0
O103 O 0.57979 0.52812 0.86886 0.0
O104 O 0.55601 0.55557 0.84427 0.0
O105 O 0.51003 0.49268 0.85496 0.0
O106 O 0.50863 0.42256 0.84145 0.0
O107 O 0.54804 0.44145 0.86892 0.0
O108 O 0.53652 0.4781 0.81831 0.0
O109 O 0.60399 0.52207 0.82666 0.0
O110 O 0.62708 0.49414 0.85068 0.0
O111 O 0.67592 0.55972 0.84433 0.0
H112 H 0.71971 0.71483 0.84609 0.0
H113 H 0.70661 0.76147 0.83847 0.0
H114 H 0.57619 0.66824 0.81168 0.0
H115 H 0.58972 0.62169 0.81924 0.0
H116 H 0.46126 0.34269 0.8371 0.0
H117 H 0.47257 0.29466 0.82835 0.0
H118 H 0.60306 0.36607 0.8591 0.0
H119 H 0.59205 0.41453 0.86738 0.0
H120 H 0.52991 0.98273 0.22845 0.0
H121 H 0.6597 0.09656 0.22863 0.0
H122 H 0.5931 0.03535 0.17312 0.0
C123 C 0.55769 1.0073 0.22045 0.0
C124 C 0.55674 1.00524 0.1996 0.0
C125 C 0.59477 0.03989 0.23108 0.0
C126 C 0.6313 0.07089 0.22055 0.0
C127 C 0.63101 0.06971 0.19968 0.0
C128 C 0.59356 0.03665 0.18921 0.0
H129 H 0.60951 0.58988 0.60154 0.0
H130 H 0.60708 0.49033 0.59898 0.0
H131 H 0.59602 0.53419 0.54517 0.0
C132 C 0.60734 0.56734 0.59296 0.0
C133 C 0.60247 0.56527 0.5722 0.0
C134 C 0.60911 0.54051 0.60278 0.0
C135 C 0.60605 0.51128 0.5915 0.0
C136 C 0.60132 0.50867 0.57069 0.0
C137 C 0.59968 0.53592 0.56118 0.0
H138 H 1.03615 0.53057 0.90354 0.0
H139 H 0.1504 0.52975 0.9048 0.0
H140 H 0.09208 0.52469 0.84853 0.0
C141 C 1.06117 0.53 0.89563 0.0
C142 C 1.05958 0.52767 0.8748 0.0
C143 C 0.09364 0.53082 0.9065 0.0
C144 C 0.12527 0.52899 0.89635 0.0
C145 C 0.12578 0.52694 0.8755 0.0
C146 C 0.09272 0.52664 0.86459 0.0
H147 H 1.02123 0.46817 0.39904 0.0
H148 H 0.1472 0.58427 0.39806 0.0
H149 H 0.09243 0.52972 0.45391 0.0
C150 C 1.04982 0.49404 0.40692 0.0
C151 C 1.05243 0.49485 0.42777 0.0
C152 C 0.08368 0.52617 0.39611 0.0
C153 C 0.12079 0.5594 0.40635 0.0
C154 C 0.12444 0.56104 0.42714 0.0
C155 C 0.08998 0.52864 0.43786 0.0
H156 H 0.591 0.07445 0.72696 0.0
H157 H 0.61786 0.9919 0.72392 0.0
H158 H 0.60875 0.03476 0.78055 0.0
C159 C 0.59875 0.05741 0.73418 0.0
C160 C 0.60063 0.05851 0.75503 0.0
C161 C 0.60552 0.03396 0.72265 0.0
C162 C 0.61267 1.01023 0.73248 0.0
C163 C 0.61267 1.0095 0.75333 0.0
C164 C 0.60707 0.03407 0.76449 0.0
H165 H 0.50136 0.45861 0.08893 0.0
H166 H 0.53414 0.38007 0.08305 0.0
H167 H 0.50897 0.40848 0.14062 0.0
C168 C 0.50614 0.43903 0.09545 0.0
C169 C 0.50323 0.43523 0.11605 0.0
C170 C 0.51757 0.41949 0.08337 0.0
C171 C 0.52401 0.39446 0.09211 0.0
C172 C 0.52014 0.38983 0.11275 0.0
C173 C 0.50983 0.41039 0.12461 0.0
H174 H 0.35867 0.61116 0.17739 0.0
H175 H 0.42539 0.61552 0.18566 0.0
H176 H 0.43626 0.59253 0.12405 0.0
H177 H 0.36978 0.58727 0.11583 0.0
H178 H 0.41125 0.54843 0.18028 0.0
H179 H 0.56752 0.65679 0.14095 0.0
H180 H 0.52468 0.66303 0.14603 0.0
H181 H 0.52066 0.63638 0.12394 0.0
C182 C 0.37626 0.6083 0.16552 0.0
C183 C 0.35811 0.59773 0.14603 0.0
C184 C 0.4147 0.61127 0.17026 0.0
C185 C 0.43589 0.60434 0.15552 0.0
C186 C 0.42124 0.59882 0.13568 0.0
H187 H 0.43409 0.43957 0.11423 0.0
H188 H 0.42879 0.48629 0.13215 0.0
C189 C 0.38274 0.59557 0.13097 0.0
C190 C 0.46326 0.59178 0.16085 0.0
H191 H 0.54378 0.5886 0.13936 0.0
C192 C 0.44163 0.55836 0.17212 0.0
C193 C 0.50338 0.60492 0.15063 0.0
C194 C 0.53055 0.64257 0.13991 0.0
C195 C 0.45449 0.53435 0.1706 0.0
C196 C 0.48968 0.54424 0.15762 0.0
C197 C 0.51603 0.5807 0.14899 0.0
C198 C 0.49155 0.51386 0.14899 0.0
C199 C 0.42714 0.49643 0.1811 0.0
C200 C 0.5284 0.5139 0.15275 0.0
C201 C 0.53106 0.4868 0.14272 0.0
C202 C 0.49739 0.46011 0.12857 0.0
C203 C 0.46023 0.45979 0.12514 0.0
C204 C 0.45721 0.48632 0.13537 0.0
H205 H 0.41108 0.49812 0.1946 0.0
H206 H 0.39961 0.47303 0.17096 0.0
H207 H 0.44888 0.48833 0.18534 0.0
H208 H 0.55535 0.53526 0.16308 0.0
H209 H 0.56032 0.48775 0.14536 0.0
H210 H 0.75594 0.14477 0.49289 0.0
H211 H 0.82449 0.21261 0.49019 0.0
H212 H 0.74829 0.23629 0.45547 0.0
H213 H 0.68013 0.16917 0.4581 0.0
H214 H 0.86919 0.25251 0.4563 0.0
H215 H 0.80954 0.32516 0.49694 0.0
H216 H 0.78107 0.27368 0.49831 0.0
H217 H 0.77041 0.29204 0.47758 0.0
C218 C 0.7537 0.16451 0.48482 0.0
C219 C 0.71224 0.15147 0.47592 0.0
C220 C 0.79293 0.2033 0.4833 0.0
C221 C 0.79138 0.22984 0.47298 0.0
C222 C 0.75014 0.21676 0.46398 0.0
H223 H 0.96053 0.45193 0.42243 0.0
H224 H 0.90054 0.38913 0.43626 0.0
C225 C 0.71108 0.17815 0.46547 0.0
C226 C 0.8331 0.27071 0.47061 0.0
H227 H 0.8736 0.3653 0.47573 0.0
C228 C 0.87055 0.27725 0.46087 0.0
C229 C 0.83492 0.30302 0.4766 0.0
C230 C 0.79701 0.29821 0.48812 0.0
C231 C 0.90858 0.31496 0.45597 0.0
C232 C 0.90953 0.3471 0.46124 0.0
C233 C 0.87285 0.34069 0.47166 0.0
C234 C 0.94625 0.38698 0.4545 0.0
C235 C 0.94638 0.31989 0.44428 0.0
C236 C 0.99189 0.40738 0.46064 0.0
C237 C 1.02642 0.44349 0.45273 0.0
C238 C 1.01584 0.45968 0.43851 0.0
C239 C 0.96986 0.43999 0.43317 0.0
C240 C 0.9355 0.40414 0.44111 0.0
H241 H 0.93667 0.29162 0.43832 0.0
H242 H 0.956 0.33922 0.43171 0.0
H243 H 0.97686 0.33362 0.45407 0.0
H244 H 1.00091 0.39501 0.47122 0.0
H245 H 1.0615 0.45789 0.4571 0.0
H246 H 0.65793 0.77956 0.84747 0.0
H247 H 0.65071 0.82907 0.83802 0.0
H248 H 0.60112 0.77287 0.77997 0.0
H249 H 0.608 0.72318 0.78935 0.0
H250 H 0.69407 0.88062 0.80886 0.0
H251 H 0.50767 0.7877 0.79544 0.0
H252 H 0.53448 0.77081 0.80816 0.0
H253 H 0.53405 0.77097 0.78148 0.0
C254 C 0.64531 0.77766 0.83272 0.0
C255 C 0.63343 0.74736 0.81918 0.0
C256 C 0.64107 0.80591 0.82736 0.0
C257 C 0.62477 0.80442 0.80838 0.0
C258 C 0.61267 0.7741 0.79487 0.0
H259 H 0.67019 0.99222 0.74397 0.0
H260 H 0.67338 0.9437 0.75865 0.0
C261 C 0.61668 0.74572 0.80024 0.0
C262 C 0.62268 0.83566 0.80238 0.0
H263 H 0.55178 0.85182 0.78293 0.0
C264 C 0.66286 0.87435 0.80335 0.0
C265 C 0.58184 0.82761 0.79548 0.0
C266 C 0.53697 0.78707 0.79525 0.0
C267 C 0.66361 0.90501 0.79704 0.0
C268 C 0.62331 0.89667 0.78915 0.0
C269 C 0.58281 0.85816 0.78877 0.0
C270 C 0.62257 0.92725 0.78078 0.0
C271 C 0.70754 0.94605 0.79904 0.0
C272 C 0.59236 0.93374 0.78807 0.0
C273 C 0.58994 0.96109 0.77949 0.0
C274 C 0.61751 0.98237 0.76334 0.0
C275 C 0.64814 0.97611 0.75625 0.0
C276 C 0.65043 0.9487 0.7648 0.0
H277 H 0.7304 0.94883 0.81066 0.0
H278 H 0.72571 0.954 0.78475 0.0
H279 H 0.70103 0.96716 0.80275 0.0
H280 H 0.57031 0.91734 0.8003 0.0
H281 H 0.56554 0.96477 0.78515 0.0
H282 H 0.81108 0.38993 0.2008 0.0
H283 H 0.72762 0.34367 0.19787 0.0
H284 H 0.72417 0.43975 0.19145 0.0
H285 H 0.80637 0.48548 0.19564 0.0
H286 H 0.64904 0.38229 0.20792 0.0
H287 H 0.68118 0.32054 0.14263 0.0
H288 H 0.6945 0.3144 0.16693 0.0
H289 H 0.72778 0.36205 0.15679 0.0
C290 C 0.79203 0.40094 0.19948 0.0
C291 C 0.8149 0.44111 0.1982 0.0
C292 C 0.7445 0.37455 0.1976 0.0
C293 C 0.71967 0.38807 0.19366 0.0
C294 C 0.74239 0.42841 0.19437 0.0
H295 H 0.59885 0.4004 0.10755 0.0
H296 H 0.63147 0.38 0.12929 0.0
C297 C 0.78952 0.45468 0.19677 0.0
C298 C 0.67219 0.36196 0.1857 0.0
H299 H 0.61651 0.31636 0.14174 0.0
C300 C 0.64111 0.36684 0.19369 0.0
C301 C 0.66142 0.34089 0.16734 0.0
C302 C 0.69286 0.33412 0.15781 0.0
C303 C 0.60402 0.35758 0.18236 0.0
C304 C 0.59664 0.34099 0.16293 0.0
C305 C 0.62295 0.32979 0.15648 0.0
C306 C 0.57173 0.34506 0.14759 0.0
C307 C 0.57684 0.3701 0.19041 0.0
C308 C 0.52639 0.33064 0.14991 0.0
C309 C 0.50799 0.34308 0.13763 0.0
C310 C 0.53426 0.36907 0.12253 0.0
C311 C 0.57777 0.38013 0.11897 0.0
C312 C 0.59642 0.36844 0.13145 0.0
H313 H 0.59023 0.38607 0.20501 0.0
H314 H 0.57722 0.38927 0.1799 0.0
H315 H 0.54097 0.34409 0.19237 0.0
H316 H 0.50618 0.31161 0.16184 0.0
H317 H 0.47412 0.33395 0.1405 0.0
H318 H 0.42692 0.92727 0.45832 0.0
H319 H 0.35986 0.85894 0.45448 0.0
H320 H 0.4354 0.82421 0.47918 0.0
H321 H 0.50241 0.89255 0.48348 0.0
H322 H 0.35018 0.80257 0.43197 0.0
H323 H 0.31904 0.75927 0.51024 0.0
H324 H 0.35703 0.80952 0.50343 0.0
H325 H 0.37589 0.78031 0.50259 0.0
C326 C 0.42925 0.90517 0.46311 0.0
C327 C 0.47015 0.91552 0.47124 0.0
C328 C 0.39078 0.86604 0.46091 0.0
C329 C 0.3922 0.8363 0.46681 0.0
C330 C 0.43296 0.84654 0.47498 0.0
H331 H 0.214 0.59916 0.41919 0.0
H332 H 0.27873 0.66493 0.43057 0.0
C333 C 0.47144 0.88572 0.47728 0.0
C334 C 0.35195 0.79467 0.46318 0.0
H335 H 0.27819 0.70763 0.48552 0.0
C336 C 0.33436 0.78194 0.44373 0.0
C337 C 0.33079 0.76768 0.47853 0.0
C338 C 0.34632 0.7799 0.4999 0.0
C339 C 0.29702 0.74303 0.43913 0.0
C340 C 0.2771 0.71568 0.4543 0.0
C341 C 0.29386 0.72847 0.47386 0.0
C342 C 0.23905 0.67375 0.44988 0.0
C343 C 0.27889 0.73167 0.41803 0.0
C344 C 0.19564 0.65589 0.45787 0.0
C345 C 0.15852 0.61795 0.45152 0.0
C346 C 0.16436 0.59743 0.43708 0.0
C347 C 0.20844 0.61447 0.43017 0.0
C348 C 0.2454 0.65212 0.43658 0.0
H349 H 0.2895 0.75736 0.40959 0.0
H350 H 0.29249 0.71799 0.41036 0.0
H351 H 0.24111 0.71034 0.41761 0.0
H352 H 0.19002 0.67197 0.46826 0.0
H353 H 0.1249 0.60559 0.45701 0.0
H354 H 0.4759 0.24667 0.84159 0.0
H355 H 0.4866 0.19942 0.82962 0.0
H356 H 0.62836 0.29267 0.81941 0.0
H357 H 0.61786 0.34029 0.83092 0.0
H358 H 0.51801 0.19834 0.79089 0.0
H359 H 0.6295 0.21295 0.8508 0.0
H360 H 0.59527 0.22898 0.8541 0.0
H361 H 0.64759 0.25795 0.84075 0.0
C362 C 0.50938 0.25722 0.83678 0.0
C363 C 0.54597 0.29739 0.83716 0.0
C364 C 0.51548 0.23012 0.83007 0.0
C365 C 0.55834 0.24252 0.82383 0.0
C366 C 0.59517 0.28244 0.82452 0.0
H367 H 0.63728 0.13344 0.74695 0.0
H368 H 0.62567 0.17638 0.76458 0.0
C369 C 0.58909 0.30963 0.83114 0.0
C370 C 0.5638 0.21389 0.81534 0.0
H371 H 0.62022 0.17622 0.8216 0.0
C372 C 0.54009 0.19329 0.79767 0.0
C373 C 0.59245 0.20724 0.8243 0.0
C374 C 0.61744 0.22765 0.84363 0.0
C375 C 0.54523 0.16698 0.78843 0.0
C376 C 0.57483 0.16116 0.79708 0.0
C377 C 0.59769 0.18095 0.815 0.0
C378 C 0.58346 0.13558 0.78719 0.0
C379 C 0.51929 0.14571 0.76938 0.0
C380 C 0.56409 0.09864 0.7943 0.0
C381 C 0.57016 0.0737 0.7841 0.0
C382 C 0.59592 0.08544 0.76667 0.0
C383 C 0.61642 0.12307 0.76004 0.0
C384 C 0.61011 0.14779 0.77016 0.0
H385 H 0.49228 0.14854 0.76635 0.0
H386 H 0.54327 0.15786 0.75683 0.0
H387 H 0.5034 0.11433 0.76993 0.0
H388 H 0.54338 0.08878 0.80744 0.0
H389 H 0.55365 0.04487 0.78955 0.0
H390 H 0.64981 0.84786 0.48385 0.0
H391 H 0.64206 0.7894 0.49084 0.0
H392 H 0.56364 0.77179 0.54261 0.0
H393 H 0.57066 0.82977 0.53558 0.0
H394 H 0.67358 0.77987 0.52663 0.0
H395 H 0.48827 0.66302 0.51426 0.0
H396 H 0.51814 0.71085 0.50439 0.0
H397 H 0.50204 0.70314 0.52999 0.0
C398 C 0.63012 0.83106 0.49648 0.0
C399 C 0.61086 0.84341 0.50918 0.0
C400 C 0.62593 0.79782 0.5005 0.0
C401 C 0.60188 0.77607 0.51711 0.0
C402 C 0.58171 0.7878 0.52954 0.0
H403 H 0.55612 0.59248 0.5839 0.0
H404 H 0.55656 0.6426 0.56876 0.0
C405 C 0.58613 0.82113 0.52561 0.0
C406 C 0.6008 0.74291 0.52241 0.0
H407 H 0.52871 0.64602 0.5317 0.0
C408 C 0.64201 0.75046 0.52749 0.0
C409 C 0.55952 0.7047 0.52358 0.0
C410 C 0.51447 0.69473 0.5176 0.0
C411 C 0.64293 0.72112 0.53453 0.0
C412 C 0.60153 0.68299 0.53608 0.0
C413 C 0.5604 0.67525 0.5305 0.0
C414 C 0.59996 0.65131 0.54452 0.0
C415 C 0.68799 0.73166 0.54108 0.0
C416 C 0.62351 0.63898 0.5357 0.0
C417 C 0.62383 0.61064 0.54449 0.0
C418 C 0.60028 0.59387 0.56217 0.0
C419 C 0.57542 0.60536 0.57053 0.0
C420 C 0.57528 0.63377 0.5618 0.0
H421 H 0.71456 0.76362 0.54337 0.0
H422 H 0.68446 0.7175 0.5551 0.0
H423 H 0.7 0.7214 0.52949 0.0
H424 H 0.64205 0.65158 0.52215 0.0
H425 H 0.64342 0.60256 0.53769 0.0
H426 H 0.76081 0.58728 0.84249 0.0
H427 H 0.82594 0.58667 0.84408 0.0
H428 H 0.7356 0.46522 0.85749 0.0
H429 H 0.67039 0.46548 0.85544 0.0
H430 H 0.86426 0.57506 0.87244 0.0
H431 H 0.80564 0.45888 0.81515 0.0
H432 H 0.77751 0.48037 0.81895 0.0
H433 H 0.7655 0.44274 0.83473 0.0
C434 C 0.75452 0.56024 0.84562 0.0
C435 C 0.70955 0.52635 0.84868 0.0
C436 C 0.79218 0.55994 0.84659 0.0
C437 C 0.78658 0.52572 0.85054 0.0
C438 C 0.74169 0.49195 0.85382 0.0
H439 H 0.96868 0.46583 0.87292 0.0
H440 H 0.9046 0.46631 0.86606 0.0
C441 C 0.704 0.4922 0.85281 0.0
C442 C 0.82753 0.52579 0.85178 0.0
H443 H 0.86936 0.47814 0.83511 0.0
C444 C 0.86528 0.55397 0.86408 0.0
C445 C 0.82994 0.49848 0.84104 0.0
C446 C 0.79272 0.46866 0.82658 0.0
C447 C 0.90382 0.55495 0.86634 0.0
C448 C 0.90608 0.52747 0.85571 0.0
C449 C 0.86845 0.4994 0.84334 0.0
C450 C 0.94607 0.52645 0.85782 0.0
C451 C 0.94115 0.58477 0.88078 0.0
C452 C 0.99167 0.55942 0.85472 0.0
C453 C 1.02867 0.55895 0.85842 0.0
C454 C 1.02144 0.52533 0.86507 0.0
C455 C 0.9758 0.49193 0.86727 0.0
C456 C 0.9389 0.49235 0.86354 0.0
H457 H 0.92907 0.5962 0.89162 0.0
H458 H 0.95464 0.5723 0.8891 0.0
H459 H 0.96952 0.60969 0.87246 0.0
H460 H 0.99891 0.58604 0.84989 0.0
H461 H 1.06312 0.58557 0.85707 0.0
H462 H 0.16982 0.67716 0.17076 0.0
H463 H 0.23941 0.74427 0.17458 0.0
H464 H 0.31521 0.71251 0.14464 0.0
H465 H 0.24558 0.6451 0.14062 0.0
H466 H 0.31972 0.76793 0.19498 0.0
H467 H 0.35413 0.81144 0.11638 0.0
H468 H 0.29893 0.76986 0.12439 0.0
H469 H 0.34456 0.76691 0.12168 0.0
C470 C 0.20113 0.68437 0.16481 0.0
C471 C 0.20197 0.65559 0.15538 0.0
C472 C 0.24092 0.72283 0.16701 0.0
C473 C 0.28242 0.73354 0.15971 0.0
C474 C 0.28343 0.70508 0.15008 0.0
H475 H 0.55745 0.9573 0.17257 0.0
H476 H 0.49161 0.89126 0.16127 0.0
C477 C 0.24358 0.66647 0.1479 0.0
C478 C 0.32485 0.774 0.16335 0.0
H479 H 0.40837 0.8577 0.14051 0.0
C480 C 0.33908 0.78754 0.18306 0.0
C481 C 0.35042 0.7994 0.14777 0.0
C482 C 0.33626 0.78644 0.12634 0.0
C483 C 0.37791 0.82581 0.18768 0.0
C484 C 0.40265 0.85172 0.17216 0.0
C485 C 0.38917 0.83794 0.15238 0.0
C486 C 0.44181 0.89336 0.17644 0.0
C487 C 0.39233 0.83796 0.20918 0.0
C488 C 0.43545 0.91707 0.18788 0.0
C489 C 0.4728 0.95447 0.19436 0.0
C490 C 0.51729 0.96923 0.18928 0.0
C491 C 0.52347 0.94668 0.17659 0.0
C492 C 0.48595 0.90894 0.17022 0.0
H493 H 0.37842 0.81242 0.21845 0.0
H494 H 0.43002 0.85802 0.21089 0.0
H495 H 0.37914 0.85329 0.21499 0.0
H496 H 0.40164 0.90606 0.19244 0.0
H497 H 0.4671 0.97138 0.20402 0.0
H498 H 0.51861 0.21947 0.46086 0.0
H499 H 0.52743 0.27633 0.47483 0.0
H500 H 0.60793 0.28484 0.52332 0.0
H501 H 0.59818 0.22746 0.50996 0.0
H502 H 0.50275 0.28398 0.51614 0.0
H503 H 0.68557 0.39618 0.49884 0.0
H504 H 0.64979 0.34935 0.48575 0.0
H505 H 0.67104 0.35333 0.51025 0.0
C506 C 0.53795 0.23322 0.47457 0.0
C507 C 0.55785 0.21885 0.4842 0.0
C508 C 0.54317 0.26586 0.48244 0.0
C509 C 0.56878 0.28497 0.49995 0.0
C510 C 0.5887 0.27084 0.5096 0.0
H511 H 0.64848 0.48036 0.57636 0.0
H512 H 0.6389 0.42611 0.55847 0.0
C513 C 0.58323 0.23811 0.50185 0.0
C514 C 0.57357 0.31895 0.5086 0.0
H515 H 0.65186 0.4162 0.51992 0.0
C516 C 0.53519 0.31301 0.51683 0.0
C517 C 0.61603 0.3566 0.50955 0.0
C518 C 0.65802 0.36455 0.50052 0.0
C519 C 0.53843 0.34359 0.52658 0.0
C520 C 0.58103 0.38134 0.52764 0.0
C521 C 0.61925 0.38731 0.51909 0.0
C522 C 0.58704 0.41474 0.53814 0.0
C523 C 0.4966 0.33478 0.53634 0.0
C524 C 0.56164 0.42687 0.53246 0.0
C525 C 0.56652 0.45754 0.54288 0.0
C526 C 0.59736 0.47705 0.55904 0.0
C527 C 0.62374 0.46553 0.56427 0.0
C528 C 0.6186 0.43471 0.55394 0.0
H529 H 0.47056 0.30319 0.5388 0.0
H530 H 0.50543 0.35097 0.55084 0.0
H531 H 0.48105 0.34376 0.52658 0.0
H532 H 0.53784 0.4125 0.52002 0.0
H533 H 0.54544 0.46542 0.53849 0.0
H534 H 0.51135 0.584 0.8413 0.0
H535 H 0.4462 0.58477 0.84362 0.0
H536 H 0.3614 0.46632 0.86216 0.0
H537 H 0.42632 0.4656 0.86022 0.0
H538 H 0.36335 0.5445 0.82542 0.0
H539 H 0.3326 0.51317 0.90506 0.0
H540 H 0.38317 0.52549 0.89314 0.0
H541 H 0.33058 0.47655 0.891 0.0
C542 C 0.47893 0.55806 0.84596 0.0
C543 C 0.47488 0.52483 0.85072 0.0
C544 C 0.44132 0.55851 0.84725 0.0
C545 C 0.39822 0.52589 0.8535 0.0
C546 C 0.39401 0.49246 0.85786 0.0
H547 H 0.12953 0.4666 0.87687 0.0
H548 H 0.19434 0.46691 0.87016 0.0
C549 C 0.43151 0.49199 0.85658 0.0
C550 C 0.35786 0.52658 0.85531 0.0
H551 H 0.275 0.50886 0.8872 0.0
C552 C 0.34431 0.5369 0.83901 0.0
C553 C 0.33226 0.51684 0.87295 0.0
C554 C 0.3456 0.50778 0.89159 0.0
C555 C 0.30592 0.53655 0.83965 0.0
C556 C 0.28 0.52635 0.85724 0.0
C557 C 0.29394 0.51646 0.87357 0.0
C558 C 0.23829 0.52518 0.85915 0.0
C559 C 0.2927 0.54592 0.8211 0.0
C560 C 0.23965 0.55736 0.85492 0.0
C561 C 0.20176 0.55687 0.85848 0.0
C562 C 0.16114 0.52423 0.86644 0.0
C563 C 0.15951 0.49185 0.87021 0.0
C564 C 0.19712 0.49225 0.86659 0.0
H565 H 0.30642 0.54138 0.80761 0.0
H566 H 0.25511 0.52777 0.81939 0.0
H567 H 0.30704 0.57698 0.82202 0.0
H568 H 0.2708 0.58375 0.84973 0.0
H569 H 0.20523 0.58294 0.85609 0.0
H570 H 0.93366 0.42737 0.1728 0.0
H571 H 0.86959 0.35936 0.17708 0.0
H572 H 0.93119 0.32448 0.13777 0.0
H573 H 0.99487 0.39313 0.13256 0.0
H574 H 0.83864 0.27862 0.13163 0.0
H575 H 0.87705 0.29065 0.21189 0.0
H576 H 0.86816 0.32473 0.20498 0.0
H577 H 0.91581 0.3286 0.19522 0.0
C578 C 0.93341 0.40545 0.16472 0.0
C579 C 0.96952 0.41597 0.15223 0.0
C580 C 0.89687 0.36637 0.16742 0.0
C581 C 0.89594 0.33666 0.15812 0.0
C582 C 0.93125 0.34688 0.1452 0.0
H583 H 0.72101 0.10418 0.20445 0.0
H584 H 0.78593 0.16635 0.19178 0.0
C585 C 0.96771 0.38617 0.14228 0.0
C586 C 0.85871 0.29514 0.1624 0.0
H587 H 0.80496 0.23335 0.20056 0.0
C588 C 0.83145 0.26859 0.14668 0.0
C589 C 0.84973 0.28178 0.182 0.0
C590 C 0.87953 0.30783 0.19945 0.0
C591 C 0.79477 0.22941 0.15011 0.0
C592 C 0.78444 0.2166 0.16982 0.0
C593 C 0.81244 0.24302 0.18544 0.0
C594 C 0.745 0.17613 0.17488 0.0
C595 C 0.76797 0.20207 0.13253 0.0
C596 C 0.70017 0.16015 0.16923 0.0
C597 C 0.66296 0.12414 0.17623 0.0
C598 C 0.66991 0.10389 0.18931 0.0
C599 C 0.71473 0.11922 0.19438 0.0
C600 C 0.75182 0.1548 0.18718 0.0
H601 H 0.7884 0.21258 0.11881 0.0
H602 H 0.75644 0.17231 0.13514 0.0
H603 H 0.73748 0.2004 0.12995 0.0
H604 H 0.69374 0.1763 0.16019 0.0
H605 H 0.62873 0.11324 0.17234 0.0
H606 H 0.07177 0.49696 0.09747 0.0
H607 H 0.08048 0.49492 0.06149 0.0
H608 H 0.0879 0.59678 0.05655 0.0
H609 H 0.08031 0.59946 0.09255 0.0
H610 H 1.02553 0.48574 0.03187 0.0
H611 H 0.19727 0.62703 0.02506 0.0
H612 H 0.17436 0.605 0.04865 0.0
H613 H 0.15817 0.63173 0.03752 0.0
C614 C 0.07567 0.51911 0.0887 0.0
C615 C 0.07555 0.54848 0.09779 0.0
C616 C 0.08059 0.51789 0.06815 0.0
C617 C 0.08558 0.54605 0.05631 0.0
C618 C 0.08525 0.5753 0.06539 0.0
H619 H 0.0866 0.57862 0.9305 0.0
H620 H 0.08526 0.58139 0.96683 0.0
C621 C 0.08057 0.57665 0.08595 0.0
C622 C 0.08911 0.54383 0.03438 0.0
H623 H 0.15447 0.59604 0.9949 0.0
C624 C 1.05395 0.50973 0.02382 0.0
C625 C 0.12624 0.57511 0.02384 0.0
C626 C 0.16638 0.61163 0.03436 0.0
C627 C 1.05427 0.50647 0.00302 0.0
C628 C 0.09091 0.53802 0.9925 0.0
C629 C 0.12632 0.57196 0.00302 0.0
C630 C 0.09259 0.53658 0.97051 0.0
C631 C 1.01484 0.4697 0.99237 0.0
C632 C 0.09773 0.51079 0.96055 0.0
C633 C 0.09854 0.50916 0.93979 0.0
C634 C 0.09409 0.53323 0.9286 0.0
C635 C 0.08951 0.55936 0.93867 0.0
C636 C 0.089 0.56114 0.95942 0.0
H637 H 0.98534 0.45125 0.00224 0.0
H638 H 1.00356 0.47672 0.97931 0.0
H639 H 1.02589 0.45251 0.98694 0.0
H640 H 0.10105 0.49189 0.96885 0.0
H641 H 0.10185 0.48857 0.93248 0.0
H642 H 0.53895 1.00925 0.42202 0.0
H643 H 0.53259 1.01081 0.38587 0.0
H644 H 0.67407 0.06061 0.38025 0.0
H645 H 0.68047 0.05875 0.41616 0.0
H646 H 0.5827 0.07438 0.36001 0.0
H647 H 0.60762 0.96382 0.34253 0.0
H648 H 0.594 0.97129 0.36708 0.0
H649 H 0.65144 1.00363 0.35837 0.0
C650 C 0.56862 0.02054 0.41303 0.0
C651 C 0.61007 0.03348 0.4218 0.0
C652 C 0.56498 0.02145 0.39244 0.0
C653 C 0.60264 0.03514 0.38038 0.0
C654 C 0.64435 0.04914 0.38924 0.0
H655 H 0.66636 0.06504 0.25601 0.0
H656 H 0.66677 0.065 0.29229 0.0
C657 C 0.648 0.04822 0.40976 0.0
C658 C 0.59867 0.03476 0.35851 0.0
H659 H 0.6116 0.99919 0.31547 0.0
C660 C 0.58862 0.05772 0.35024 0.0
C661 C 0.60632 0.01289 0.34583 0.0
C662 C 0.61502 0.98621 0.35386 0.0
C663 C 0.58754 0.06041 0.32957 0.0
C664 C 0.59612 0.03914 0.31692 0.0
C665 C 0.60538 0.01568 0.32521 0.0
C666 C 0.59608 0.04096 0.29501 0.0
C667 C 0.57858 0.08686 0.32146 0.0
C668 C 0.55618 0.02739 0.28452 0.0
C669 C 0.5559 0.02756 0.26379 0.0
C670 C 0.5955 0.04113 0.25315 0.0
C671 C 0.63548 0.05491 0.26375 0.0
C672 C 0.6357 0.05468 0.28447 0.0
H673 H 0.58339 0.10793 0.33301 0.0
H674 H 0.6014 0.1033 0.30891 0.0
H675 H 0.54287 0.06902 0.31585 0.0
H676 H 0.52503 0.01607 0.29235 0.0
H677 H 0.52464 0.01703 0.25609 0.0
H678 H 0.65893 0.55954 0.79611 0.0
H679 H 0.67484 0.57499 0.76087 0.0
H680 H 0.53057 0.50136 0.74782 0.0
H681 H 0.51455 0.48579 0.78281 0.0
H682 H 0.64281 0.51706 0.72885 0.0
H683 H 0.58286 0.60452 0.72008 0.0
H684 H 0.59787 0.59738 0.74394 0.0
H685 H 0.54345 0.55982 0.73251 0.0
C686 C 0.63072 0.54713 0.78572 0.0
C687 C 0.58552 0.52145 0.79211 0.0
C688 C 0.63982 0.5559 0.76565 0.0
C689 C 0.60386 0.53961 0.75182 0.0
C690 C 0.55878 0.5147 0.75831 0.0
H691 H 0.56477 0.48011 0.62814 0.0
H692 H 0.57002 0.48363 0.66435 0.0
C693 C 0.54969 0.50567 0.77827 0.0
C694 C 0.61283 0.54617 0.73035 0.0
H695 H 0.59115 0.57823 0.69023 0.0
C696 C 0.63217 0.53095 0.72042 0.0
C697 C 0.59923 0.56456 0.71945 0.0
C698 C 0.58007 0.58285 0.72953 0.0
C699 C 0.63622 0.53195 0.69969 0.0
C700 C 0.6202 0.54835 0.68868 0.0
C701 C 0.60298 0.56532 0.69871 0.0
C702 C 0.61895 0.54645 0.66669 0.0
C703 C 0.65701 0.51498 0.68969 0.0
C704 C 0.64439 0.58066 0.65603 0.0
C705 C 0.64178 0.57875 0.63529 0.0
C706 C 0.61321 0.54258 0.62483 0.0
C707 C 0.58777 0.50839 0.63564 0.0
C708 C 0.59063 0.51033 0.65635 0.0
H709 H 0.67802 0.51287 0.70024 0.0
H710 H 0.62937 0.48522 0.68369 0.0
H711 H 0.67857 0.53282 0.67713 0.0
H712 H 0.66634 0.60881 0.66377 0.0
H713 H 0.66228 0.60563 0.62745 0.0
H714 H 0.51087 0.02522 0.53877 0.0
H715 H 0.52078 0.02602 0.57454 0.0
H716 H 0.65112 0.05124 0.56537 0.0
H717 H 0.64332 0.05464 0.52974 0.0
H718 H 0.52439 0.98358 0.59661 0.0
H719 H 0.68981 0.13012 0.60733 0.0
H720 H 0.65909 0.11356 0.58399 0.0
H721 H 0.69474 0.10048 0.5904 0.0
C722 C 0.54189 0.03141 0.54443 0.0
C723 C 0.57614 0.03949 0.53146 0.0
C724 C 0.54748 0.03168 0.5649 0.0
C725 C 0.58703 0.03922 0.57286 0.0
C726 C 0.62091 0.04654 0.55981 0.0
H727 H 0.57763 0.97389 0.69536 0.0
H728 H 0.57692 0.97506 0.6594 0.0
C729 C 0.61602 0.04765 0.53935 0.0
C730 C 0.59178 0.0383 0.59473 0.0
H731 H 0.66394 0.08833 0.63453 0.0
C732 C 0.55482 1.00674 0.60489 0.0
C733 C 0.63118 0.06864 0.60572 0.0
C734 C 0.67068 0.10526 0.59631 0.0
C735 C 0.55578 1.00486 0.6256 0.0
C736 C 0.59603 0.03421 0.63647 0.0
C737 C 0.6332 0.06555 0.62628 0.0
C738 C 0.5997 0.03412 0.65847 0.0
C739 C 0.51277 0.97223 0.63553 0.0
C740 C 0.61577 0.06773 0.67011 0.0
C741 C 0.61878 0.06794 0.69075 0.0
C742 C 0.60462 0.03416 0.70045 0.0
C743 C 0.58927 1.00069 0.68868 0.0
C744 C 0.58778 1.00097 0.66797 0.0
H745 H 0.48204 0.96077 0.62629 0.0
H746 H 0.514 0.94783 0.63757 0.0
H747 H 0.50875 0.98191 0.65025 0.0
H748 H 0.62574 0.09393 0.66324 0.0
H749 H 0.63234 0.09481 0.69903 0.0
H750 H 0.52629 0.47976 0.89617 0.0
H751 H 0.50868 0.45344 0.92937 0.0
H752 H 0.65003 0.53822 0.94691 0.0
H753 H 0.66803 0.56434 0.91357 0.0
H754 H 0.6076 0.4607 0.95938 0.0
H755 H 0.50693 0.51198 0.97837 0.0
H756 H 0.48958 0.48244 0.95588 0.0
H757 H 0.54455 0.52951 0.95748 0.0
C758 C 0.55364 0.49264 0.90708 0.0
C759 C 0.59848 0.52421 0.90241 0.0
C760 C 0.5435 0.47767 0.92603 0.0
C761 C 0.57797 0.49423 0.94062 0.0
C762 C 0.62298 0.52514 0.93583 0.0
H763 H 0.56511 0.4905 0.06698 0.0
H764 H 0.57824 0.50531 0.03193 0.0
C765 C 0.63316 0.54011 0.91686 0.0
C766 C 0.56692 0.48016 0.96106 0.0
H767 H 0.50949 0.47497 0.00207 0.0
C768 C 0.586 0.46361 0.96873 0.0
C769 C 0.53901 0.48436 0.97319 0.0
C770 C 0.51906 0.50331 0.96594 0.0
C771 C 0.57802 0.45125 0.98833 0.0
C772 C 0.54998 0.45533 1.0004 0.0
C773 C 0.53067 0.47162 0.99267 0.0
C774 C 0.54276 0.44556 0.02156 0.0
C775 C 0.60069 0.43506 0.99619 0.0
C776 C 0.51845 0.40696 0.02732 0.0
C777 C 0.51054 0.39829 0.04743 0.0
C778 C 0.52657 0.42811 0.06201 0.0
C779 C 0.55143 0.46675 0.0561 0.0
C780 C 0.55925 0.47533 0.0361 0.0
H781 H 0.62748 0.44015 0.98613 0.0
H782 H 0.61626 0.44835 0.01107 0.0
H783 H 0.57472 0.4032 0.99777 0.0
H784 H 0.50497 0.38353 0.01626 0.0
H785 H 0.49111 0.36825 0.05154 0.0
H786 H 0.10954 0.57937 0.20671 0.0
H787 H 0.10259 0.58057 0.24289 0.0
H788 H 0.07412 0.46895 0.24491 0.0
H789 H 0.08041 0.46738 0.20876 0.0
H790 H 1.01497 0.47626 0.26823 0.0
H791 H 0.19834 0.59877 0.2828 0.0
H792 H 0.1699 0.6077 0.26536 0.0
H793 H 0.17747 0.57171 0.25933 0.0
C794 C 0.10152 0.55502 0.21488 0.0
C795 C 0.09557 0.5233 0.205 0.0
C796 C 0.09786 0.55585 0.23553 0.0
C797 C 0.08838 0.52505 0.24657 0.0
C798 C 0.08161 0.49305 0.23666 0.0
H799 H 1.06085 0.467 0.36999 0.0
H800 H 1.05915 0.46647 0.33371 0.0
C801 C 0.08536 0.49225 0.21605 0.0
C802 C 0.08592 0.52619 0.26849 0.0
H803 H 0.15019 0.5746 0.31045 0.0
C804 C 1.04447 0.49776 0.27749 0.0
C805 C 0.12449 0.55432 0.28048 0.0
C806 C 0.17023 0.58473 0.27159 0.0
C807 C 1.04046 0.49686 0.29823 0.0
C808 C 0.07922 0.52466 0.31025 0.0
C809 C 0.12052 0.55334 0.30121 0.0
C810 C 0.07806 0.52416 0.33223 0.0
C811 C 0.99464 0.46652 0.30707 0.0
C812 C 0.09001 0.55699 0.34345 0.0
C813 C 0.09121 0.55743 0.36417 0.0
C814 C 0.08068 0.52508 0.37409 0.0
C815 C 0.06843 0.49212 0.36281 0.0
C816 C 0.06736 0.49175 0.34207 0.0
H817 H 0.96641 0.45509 0.29618 0.0
H818 H 0.99334 0.44171 0.31159 0.0
H819 H 0.98885 0.47852 0.3204 0.0
H820 H 0.09852 0.58235 0.33616 0.0
H821 H 0.10031 0.58309 0.37245 0.0
loop_
_geom_bond_atom_site_label_1
_geom_bond_atom_site_label_2
_geom_bond_distance
_geom_bond_site_symmetry_2
_ccdc_geom_bond_type
La0 C2 2.928 . S
La0 O20 2.521 . S
La0 O21 2.628 . S
La0 O22 2.554 . S
La0 O23 2.757 . S
La0 O24 2.470 . S
La0 O29 2.482 . S
La0 O31 2.503 1_455 S
La1 C11 2.928 . S
La1 O23 2.482 1_655 S
La1 O25 2.503 1_655 S
La1 O26 2.521 . S
La1 O27 2.628 . S
La1 O28 2.554 . S
La1 O29 2.757 1_655 S
La1 O30 2.470 . S
C2 La0 2.928 . S
C2 C3 1.503 . S
C2 O20 1.261 . S
C2 O21 1.243 . S
C3 C2 1.503 . S
C3 C4 1.394 . S
C3 C8 1.373 . S
C4 C3 1.394 . S
C4 C5 1.380 . S
C4 H32 0.930 . S
C5 C4 1.380 . S
C5 C6 1.376 . S
C5 H33 0.930 . S
C6 C5 1.376 . S
C6 C7 1.370 . S
C7 C6 1.370 . S
C7 C8 1.396 . S
C7 H34 0.929 . S
C8 C3 1.373 . S
C8 C7 1.396 . S
C8 H35 0.929 . S
C9 O22 1.240 . S
C9 O23 1.289 . S
C10 O24 1.258 . S
C10 O25 1.256 . S
C11 La1 2.928 . S
C11 C12 1.503 . S
C11 O26 1.261 . S
C11 O27 1.243 . S
C12 C11 1.503 . S
C12 C13 1.394 . S
C12 C17 1.373 . S
C13 C12 1.394 . S
C13 C14 1.380 . S
C13 H36 0.930 . S
C14 C13 1.380 . S
C14 C15 1.376 . S
C14 H37 0.930 . S
C15 C14 1.376 . S
C15 C16 1.370 . S
C16 C15 1.370 . S
C16 C17 1.396 . S
C16 H38 0.929 . S
C17 C12 1.373 . S
C17 C16 1.396 . S
C17 H39 0.929 . S
C18 O28 1.240 1_455 S
C18 O29 1.289 . S
C19 O30 1.258 . S
C19 O31 1.256 . S
O20 La0 2.521 . S
O20 C2 1.261 . S
O21 La0 2.628 . S
O21 C2 1.243 . S
O22 La0 2.554 . S
O22 C9 1.240 . S
O23 La0 2.757 . S
O23 La1 2.482 1_455 S
O23 C9 1.289 . S
O24 La0 2.470 . S
O24 C10 1.258 . S
O25 La1 2.503 1_455 S
O25 C10 1.256 . S
O26 La1 2.521 . S
O26 C11 1.261 . S
O27 La1 2.628 . S
O27 C11 1.243 . S
O28 La1 2.554 . S
O28 C18 1.240 1_655 S
O29 La0 2.482 . S
O29 La1 2.757 1_455 S
O29 C18 1.289 . S
O30 La1 2.470 . S
O30 C19 1.258 . S
O31 La0 2.503 1_655 S
O31 C19 1.256 . S
H32 C4 0.930 . S
H33 C5 0.930 . S
H34 C7 0.929 . S
H35 C8 0.929 . S
H36 C13 0.930 . S
H37 C14 0.930 . S
H38 C16 0.929 . S
H39 C17 0.929 . S
La40 C42 2.928 . S
La40 O60 2.521 . S
La40 O61 2.628 . S
La40 O62 2.554 . S
La40 O63 2.757 1_565 S
La40 O64 2.470 . S
La40 O69 2.482 . S
La40 O71 2.503 1_565 S
La41 C51 2.928 . S
La41 O63 2.482 . S
La41 O65 2.503 1_545 S
La41 O66 2.521 . S
La41 O67 2.628 . S
La41 O68 2.554 . S
La41 O69 2.757 1_545 S
La41 O70 2.470 . S
C42 La40 2.928 . S
C42 C43 1.503 . S
C42 O60 1.261 . S
C42 O61 1.243 . S
C43 C42 1.503 . S
C43 C44 1.394 . S
C43 C48 1.373 . S
C44 C43 1.394 . S
C44 C45 1.380 . S
C44 H72 0.930 . S
C45 C44 1.380 . S
C45 C46 1.376 . S
C45 H73 0.930 . S
C46 C45 1.376 . S
C46 C47 1.370 . S
C47 C46 1.370 . S
C47 C48 1.396 . S
C47 H74 0.929 . S
C48 C43 1.373 . S
C48 C47 1.396 . S
C48 H75 0.929 . S
C49 O62 1.240 1_545 S
C49 O63 1.289 . S
C50 O64 1.258 . S
C50 O65 1.256 . S
C51 La41 2.928 . S
C51 C52 1.503 . S
C51 O66 1.261 . S
C51 O67 1.243 . S
C52 C51 1.503 . S
C52 C53 1.394 . S
C52 C57 1.373 . S
C53 C52 1.394 . S
C53 C54 1.380 . S
C53 H76 0.930 . S
C54 C53 1.380 . S
C54 C55 1.376 . S
C54 H77 0.930 . S
C55 C54 1.376 . S
C55 C56 1.370 . S
C56 C55 1.370 . S
C56 C57 1.396 . S
C56 H78 0.929 . S
C57 C52 1.373 . S
C57 C56 1.396 . S
C57 H79 0.929 . S
C58 O68 1.240 . S
C58 O69 1.289 1_545 S
C59 O70 1.258 . S
C59 O71 1.256 . S
O60 La40 2.521 . S
O60 C42 1.261 . S
O61 La40 2.628 . S
O61 C42 1.243 . S
O62 La40 2.554 . S
O62 C49 1.240 1_565 S
O63 La40 2.757 1_545 S
O63 La41 2.482 . S
O63 C49 1.289 . S
O64 La40 2.470 . S
O64 C50 1.258 . S
O65 La41 2.503 1_565 S
O65 C50 1.256 . S
O66 La41 2.521 . S
O66 C51 1.261 . S
O67 La41 2.628 . S
O67 C51 1.243 . S
O68 La41 2.554 . S
O68 C58 1.240 . S
O69 La40 2.482 . S
O69 La41 2.757 1_565 S
O69 C58 1.289 1_565 S
O70 La41 2.470 . S
O70 C59 1.258 . S
O71 La40 2.503 1_545 S
O71 C59 1.256 . S
H72 C44 0.930 . S
H73 C45 0.930 . S
H74 C47 0.929 . S
H75 C48 0.929 . S
H76 C53 0.930 . S
H77 C54 0.930 . S
H78 C56 0.929 . S
H79 C57 0.929 . S
La80 C82 2.928 . S
La80 O100 2.521 . S
La80 O101 2.628 . S
La80 O102 2.554 . S
La80 O103 2.757 . S
La80 O104 2.470 . S
La80 O109 2.482 . S
La80 O111 2.503 . S
La81 C91 2.928 . S
La81 O103 2.482 . S
La81 O105 2.503 . S
La81 O106 2.521 . S
La81 O107 2.628 . S
La81 O108 2.554 . S
La81 O109 2.757 . S
La81 O110 2.470 . S
C82 La80 2.928 . S
C82 C83 1.503 . S
C82 O100 1.261 . S
C82 O101 1.243 . S
C83 C82 1.503 . S
C83 C84 1.394 . S
C83 C88 1.373 . S
C84 C83 1.394 . S
C84 C85 1.380 . S
C84 H112 0.930 . S
C85 C84 1.380 . S
C85 C86 1.376 . S
C85 H113 0.930 . S
C86 C85 1.376 . S
C86 C87 1.370 . S
C87 C86 1.370 . S
C87 C88 1.396 . S
C87 H114 0.929 . S
C88 C83 1.373 . S
C88 C87 1.396 . S
C88 H115 0.929 . S
C89 O102 1.240 . S
C89 O103 1.289 . S
C90 O104 1.258 . S
C90 O105 1.256 . S
C91 La81 2.928 . S
C91 C92 1.503 . S
C91 O106 1.261 . S
C91 O107 1.243 . S
C92 C91 1.503 . S
C92 C93 1.394 . S
C92 C97 1.373 . S
C93 C92 1.394 . S
C93 C94 1.380 . S
C93 H116 0.930 . S
C94 C93 1.380 . S
C94 C95 1.376 . S
C94 H117 0.930 . S
C95 C94 1.376 . S
C95 C96 1.370 . S
C96 C95 1.370 . S
C96 C97 1.396 . S
C96 H118 0.929 . S
C97 C92 1.373 . S
C97 C96 1.396 . S
C97 H119 0.929 . S
C98 O108 1.240 . S
C98 O109 1.289 . S
C99 O110 1.258 . S
C99 O111 1.256 . S
O100 La80 2.521 . S
O100 C82 1.261 . S
O101 La80 2.628 . S
O101 C82 1.243 . S
O102 La80 2.554 . S
O102 C89 1.240 . S
O103 La80 2.757 . S
O103 La81 2.482 . S
O103 C89 1.289 . S
O104 La80 2.470 . S
O104 C90 1.258 . S
O105 La81 2.503 . S
O105 C90 1.256 . S
O106 La81 2.521 . S
O106 C91 1.261 . S
O107 La81 2.628 . S
O107 C91 1.243 . S
O108 La81 2.554 . S
O108 C98 1.240 . S
O109 La80 2.482 . S
O109 La81 2.757 . S
O109 C98 1.289 . S
O110 La81 2.470 . S
O110 C99 1.258 . S
O111 La80 2.503 . S
O111 C99 1.256 . S
H112 C84 0.930 . S
H113 C85 0.930 . S
H114 C87 0.929 . S
H115 C88 0.929 . S
H116 C93 0.930 . S
H117 C94 0.930 . S
H118 C96 0.929 . S
H119 C97 0.929 . S
H120 C123 0.931 . S
H121 C126 0.928 . S
H122 C128 0.930 . S
C123 H120 0.931 . S
C123 C124 1.413 . S
C123 C125 1.360 1_565 S
C124 C123 1.413 . S
C124 C128 1.429 1_565 S
C125 C123 1.360 1_545 S
C125 C126 1.372 . S
C126 H121 0.928 . S
C126 C125 1.372 . S
C126 C127 1.404 . S
C127 C126 1.404 . S
C127 C128 1.391 . S
C128 H122 0.930 . S
C128 C124 1.429 1_545 S
C128 C127 1.391 . S
H129 C132 0.931 . S
H130 C135 0.928 . S
H131 C137 0.930 . S
C132 H129 0.931 . S
C132 C133 1.413 . S
C132 C134 1.360 . S
C133 C132 1.413 . S
C133 C137 1.429 . S
C134 C132 1.360 . S
C134 C135 1.372 . S
C135 H130 0.928 . S
C135 C134 1.372 . S
C135 C136 1.404 . S
C136 C135 1.404 . S
C136 C137 1.391 . S
C137 H131 0.930 . S
C137 C133 1.429 . S
C137 C136 1.391 . S
H138 C141 0.931 1_655 S
H139 C144 0.928 . S
H140 C146 0.930 . S
C141 H138 0.931 1_455 S
C141 C142 1.413 . S
C141 C143 1.360 . S
C142 C141 1.413 . S
C142 C146 1.429 . S
C143 C141 1.360 . S
C143 C144 1.372 . S
C144 H139 0.928 . S
C144 C143 1.372 . S
C144 C145 1.404 . S
C145 C144 1.404 . S
C145 C146 1.391 . S
C146 H140 0.930 . S
C146 C142 1.429 . S
C146 C145 1.391 . S
H147 C150 0.931 . S
H148 C153 0.928 . S
H149 C155 0.930 . S
C150 H147 0.931 . S
C150 C151 1.413 . S
C150 C152 1.360 1_655 S
C151 C150 1.413 . S
C151 C155 1.429 1_655 S
C152 C150 1.360 1_455 S
C152 C153 1.371 . S
C153 H148 0.928 . S
C153 C152 1.371 . S
C153 C154 1.404 . S
C154 C153 1.404 . S
C154 C155 1.391 . S
C155 H149 0.930 . S
C155 C151 1.429 1_455 S
C155 C154 1.391 . S
H156 C159 0.931 . S
H157 C162 0.928 . S
H158 C164 0.930 . S
C159 H156 0.931 . S
C159 C160 1.413 . S
C159 C161 1.383 . S
C160 C159 1.413 . S
C160 C164 1.429 . S
C161 C159 1.383 . S
C161 C162 1.348 1_545 S
C162 H157 0.928 . S
C162 C161 1.348 1_565 S
C162 C163 1.404 . S
C163 C162 1.404 . S
C163 C164 1.391 1_565 S
C164 H158 0.930 . S
C164 C160 1.429 . S
C164 C163 1.391 1_545 S
H165 C168 0.931 . S
H166 C171 0.928 . S
H167 C173 0.930 . S
C168 H165 0.931 . S
C168 C169 1.413 . S
C168 C170 1.360 . S
C169 C168 1.413 . S
C169 C173 1.429 . S
C170 C168 1.360 . S
C170 C171 1.372 . S
C171 H166 0.928 . S
C171 C170 1.372 . S
C171 C172 1.404 . S
C172 C171 1.404 . S
C172 C173 1.391 . S
C173 H167 0.930 . S
C173 C169 1.429 . S
C173 C172 1.391 . S
H174 C182 0.929 . S
H175 C184 0.930 . S
H176 C186 0.930 . S
H177 C189 0.929 . S
H178 C192 0.930 . S
H179 C194 0.960 . S
H180 C194 0.960 . S
H181 C194 0.960 . S
C182 H174 0.929 . S
C182 C183 1.377 . S
C182 C184 1.384 . S
C183 C182 1.377 . S
C183 C189 1.390 . S
C184 H175 0.930 . S
C184 C182 1.384 . S
C184 C185 1.372 . S
C185 C184 1.372 . S
C185 C186 1.400 . S
C185 C190 1.490 . S
C186 H176 0.930 . S
C186 C185 1.400 . S
C186 C189 1.386 . S
H187 C203 0.930 . S
H188 C204 0.931 . S
C189 H177 0.929 . S
C189 C183 1.390 . S
C189 C186 1.386 . S
C190 C185 1.490 . S
C190 C192 1.395 . S
C190 C193 1.403 . S
H191 C197 0.930 . S
C192 H178 0.930 . S
C192 C190 1.395 . S
C192 C195 1.403 . S
C193 C190 1.403 . S
C193 C194 1.524 . S
C193 C197 1.400 . S
C194 H179 0.960 . S
C194 H180 0.960 . S
C194 H181 0.960 . S
C194 C193 1.524 . S
C195 C192 1.403 . S
C195 C196 1.392 . S
C195 C199 1.495 . S
C196 C195 1.392 . S
C196 C197 1.385 . S
C196 C198 1.478 . S
C197 H191 0.930 . S
C197 C193 1.400 . S
C197 C196 1.385 . S
C198 C196 1.478 . S
C198 C200 1.381 . S
C198 C204 1.383 . S
C199 C195 1.495 . S
C199 H205 0.959 . S
C199 H206 0.961 . S
C199 H207 0.960 . S
C200 C198 1.381 . S
C200 C201 1.394 . S
C200 H208 0.930 . S
C201 C200 1.394 . S
C201 C202 1.383 . S
C201 H209 0.929 . S
C202 C201 1.383 . S
C202 C203 1.377 . S
C203 H187 0.930 . S
C203 C202 1.377 . S
C203 C204 1.379 . S
C204 H188 0.931 . S
C204 C198 1.383 . S
C204 C203 1.379 . S
H205 C199 0.959 . S
H206 C199 0.961 . S
H207 C199 0.960 . S
H208 C200 0.930 . S
H209 C201 0.929 . S
H210 C218 0.929 . S
H211 C220 0.930 . S
H212 C222 0.930 . S
H213 C225 0.929 . S
H214 C228 0.930 . S
H215 C230 0.960 . S
H216 C230 0.960 . S
H217 C230 0.960 . S
C218 H210 0.929 . S
C218 C219 1.377 . S
C218 C220 1.384 . S
C219 C218 1.377 . S
C219 C225 1.390 . S
C220 H211 0.930 . S
C220 C218 1.384 . S
C220 C221 1.372 . S
C221 C220 1.372 . S
C221 C222 1.400 . S
C221 C226 1.490 . S
C222 H212 0.930 . S
C222 C221 1.400 . S
C222 C225 1.386 . S
H223 C239 0.930 . S
H224 C240 0.931 . S
C225 H213 0.929 . S
C225 C219 1.390 . S
C225 C222 1.386 . S
C226 C221 1.490 . S
C226 C228 1.395 . S
C226 C229 1.403 . S
H227 C233 0.930 . S
C228 H214 0.930 . S
C228 C226 1.395 . S
C228 C231 1.403 . S
C229 C226 1.403 . S
C229 C230 1.524 . S
C229 C233 1.400 . S
C230 H215 0.960 . S
C230 H216 0.960 . S
C230 H217 0.960 . S
C230 C229 1.524 . S
C231 C228 1.403 . S
C231 C232 1.392 . S
C231 C235 1.495 . S
C232 C231 1.392 . S
C232 C233 1.385 . S
C232 C234 1.478 . S
C233 H227 0.930 . S
C233 C229 1.400 . S
C233 C232 1.385 . S
C234 C232 1.478 . S
C234 C236 1.381 . S
C234 C240 1.383 . S
C235 C231 1.495 . S
C235 H241 0.959 . S
C235 H242 0.961 . S
C235 H243 0.960 . S
C236 C234 1.381 . S
C236 C237 1.394 . S
C236 H244 0.930 . S
C237 C236 1.394 . S
C237 C238 1.383 . S
C237 H245 0.929 . S
C238 C237 1.383 . S
C238 C239 1.377 . S
C239 H223 0.930 . S
C239 C238 1.377 . S
C239 C240 1.379 . S
C240 H224 0.931 . S
C240 C234 1.383 . S
C240 C239 1.379 . S
H241 C235 0.959 . S
H242 C235 0.961 . S
H243 C235 0.960 . S
H244 C236 0.930 . S
H245 C237 0.929 . S
H246 C254 0.929 . S
H247 C256 0.930 . S
H248 C258 0.930 . S
H249 C261 0.929 . S
H250 C264 0.930 . S
H251 C266 0.960 . S
H252 C266 0.960 . S
H253 C266 0.960 . S
C254 H246 0.929 . S
C254 C255 1.377 . S
C254 C256 1.384 . S
C255 C254 1.377 . S
C255 C261 1.390 . S
C256 H247 0.930 . S
C256 C254 1.384 . S
C256 C257 1.372 . S
C257 C256 1.372 . S
C257 C258 1.400 . S
C257 C262 1.490 . S
C258 H248 0.930 . S
C258 C257 1.400 . S
C258 C261 1.386 . S
H259 C275 0.930 . S
H260 C276 0.931 . S
C261 H249 0.929 . S
C261 C255 1.390 . S
C261 C258 1.386 . S
C262 C257 1.490 . S
C262 C264 1.395 . S
C262 C265 1.403 . S
H263 C269 0.930 . S
C264 H250 0.930 . S
C264 C262 1.395 . S
C264 C267 1.403 . S
C265 C262 1.403 . S
C265 C266 1.524 . S
C265 C269 1.400 . S
C266 H251 0.960 . S
C266 H252 0.960 . S
C266 H253 0.960 . S
C266 C265 1.524 . S
C267 C264 1.403 . S
C267 C268 1.392 . S
C267 C271 1.495 . S
C268 C267 1.392 . S
C268 C269 1.385 . S
C268 C270 1.478 . S
C269 H263 0.930 . S
C269 C265 1.400 . S
C269 C268 1.385 . S
C270 C268 1.478 . S
C270 C272 1.381 . S
C270 C276 1.383 . S
C271 C267 1.495 . S
C271 H277 0.959 . S
C271 H278 0.961 . S
C271 H279 0.960 . S
C272 C270 1.381 . S
C272 C273 1.394 . S
C272 H280 0.930 . S
C273 C272 1.394 . S
C273 C274 1.383 . S
C273 H281 0.929 . S
C274 C273 1.383 . S
C274 C275 1.377 . S
C275 H259 0.930 . S
C275 C274 1.377 . S
C275 C276 1.379 . S
C276 H260 0.931 . S
C276 C270 1.383 . S
C276 C275 1.379 . S
H277 C271 0.959 . S
H278 C271 0.961 . S
H279 C271 0.960 . S
H280 C272 0.930 . S
H281 C273 0.929 . S
H282 C290 0.929 . S
H283 C292 0.930 . S
H284 C294 0.930 . S
H285 C297 0.929 . S
H286 C300 0.930 . S
H287 C302 0.960 . S
H288 C302 0.960 . S
H289 C302 0.960 . S
C290 H282 0.929 . S
C290 C291 1.377 . S
C290 C292 1.384 . S
C291 C290 1.377 . S
C291 C297 1.390 . S
C292 H283 0.930 . S
C292 C290 1.384 . S
C292 C293 1.372 . S
C293 C292 1.372 . S
C293 C294 1.400 . S
C293 C298 1.490 . S
C294 H284 0.930 . S
C294 C293 1.400 . S
C294 C297 1.386 . S
H295 C311 0.930 . S
H296 C312 0.931 . S
C297 H285 0.929 . S
C297 C291 1.390 . S
C297 C294 1.386 . S
C298 C293 1.490 . S
C298 C300 1.395 . S
C298 C301 1.403 . S
H299 C305 0.930 . S
C300 H286 0.930 . S
C300 C298 1.395 . S
C300 C303 1.403 . S
C301 C298 1.403 . S
C301 C302 1.524 . S
C301 C305 1.400 . S
C302 H287 0.960 . S
C302 H288 0.960 . S
C302 H289 0.960 . S
C302 C301 1.524 . S
C303 C300 1.403 . S
C303 C304 1.392 . S
C303 C307 1.495 . S
C304 C303 1.392 . S
C304 C305 1.385 . S
C304 C306 1.478 . S
C305 H299 0.930 . S
C305 C301 1.400 . S
C305 C304 1.385 . S
C306 C304 1.478 . S
C306 C308 1.381 . S
C306 C312 1.383 . S
C307 C303 1.495 . S
C307 H313 0.959 . S
C307 H314 0.961 . S
C307 H315 0.960 . S
C308 C306 1.381 . S
C308 C309 1.394 . S
C308 H316 0.930 . S
C309 C308 1.394 . S
C309 C310 1.383 . S
C309 H317 0.929 . S
C310 C309 1.383 . S
C310 C311 1.377 . S
C311 H295 0.930 . S
C311 C310 1.377 . S
C311 C312 1.379 . S
C312 H296 0.931 . S
C312 C306 1.383 . S
C312 C311 1.379 . S
H313 C307 0.959 . S
H314 C307 0.961 . S
H315 C307 0.960 . S
H316 C308 0.930 . S
H317 C309 0.929 . S
H318 C326 0.929 . S
H319 C328 0.930 . S
H320 C330 0.930 . S
H321 C333 0.929 . S
H322 C336 0.930 . S
H323 C338 0.960 . S
H324 C338 0.960 . S
H325 C338 0.960 . S
C326 H318 0.929 . S
C326 C327 1.377 . S
C326 C328 1.384 . S
C327 C326 1.377 . S
C327 C333 1.390 . S
C328 H319 0.930 . S
C328 C326 1.384 . S
C328 C329 1.372 . S
C329 C328 1.372 . S
C329 C330 1.400 . S
C329 C334 1.490 . S
C330 H320 0.930 . S
C330 C329 1.400 . S
C330 C333 1.386 . S
H331 C347 0.930 . S
H332 C348 0.931 . S
C333 H321 0.929 . S
C333 C327 1.390 . S
C333 C330 1.386 . S
C334 C329 1.490 . S
C334 C336 1.395 . S
C334 C337 1.403 . S
H335 C341 0.930 . S
C336 H322 0.930 . S
C336 C334 1.395 . S
C336 C339 1.403 . S
C337 C334 1.403 . S
C337 C338 1.524 . S
C337 C341 1.400 . S
C338 H323 0.960 . S
C338 H324 0.960 . S
C338 H325 0.960 . S
C338 C337 1.524 . S
C339 C336 1.403 . S
C339 C340 1.392 . S
C339 C343 1.495 . S
C340 C339 1.392 . S
C340 C341 1.385 . S
C340 C342 1.478 . S
C341 H335 0.930 . S
C341 C337 1.400 . S
C341 C340 1.385 . S
C342 C340 1.478 . S
C342 C344 1.381 . S
C342 C348 1.383 . S
C343 C339 1.495 . S
C343 H349 0.959 . S
C343 H350 0.961 . S
C343 H351 0.960 . S
C344 C342 1.381 . S
C344 C345 1.394 . S
C344 H352 0.930 . S
C345 C344 1.394 . S
C345 C346 1.383 . S
C345 H353 0.929 . S
C346 C345 1.383 . S
C346 C347 1.377 . S
C347 H331 0.930 . S
C347 C346 1.377 . S
C347 C348 1.379 . S
C348 H332 0.931 . S
C348 C342 1.383 . S
C348 C347 1.379 . S
H349 C343 0.959 . S
H350 C343 0.961 . S
H351 C343 0.960 . S
H352 C344 0.930 . S
H353 C345 0.929 . S
H354 C362 0.929 . S
H355 C364 0.930 . S
H356 C366 0.930 . S
H357 C369 0.929 . S
H358 C372 0.930 . S
H359 C374 0.960 . S
H360 C374 0.960 . S
H361 C374 0.960 . S
C362 H354 0.929 . S
C362 C363 1.377 . S
C362 C364 1.384 . S
C363 C362 1.377 . S
C363 C369 1.390 . S
C364 H355 0.930 . S
C364 C362 1.384 . S
C364 C365 1.372 . S
C365 C364 1.372 . S
C365 C366 1.400 . S
C365 C370 1.490 . S
C366 H356 0.930 . S
C366 C365 1.400 . S
C366 C369 1.386 . S
H367 C383 0.930 . S
H368 C384 0.931 . S
C369 H357 0.929 . S
C369 C363 1.390 . S
C369 C366 1.386 . S
C370 C365 1.490 . S
C370 C372 1.395 . S
C370 C373 1.403 . S
H371 C377 0.930 . S
C372 H358 0.930 . S
C372 C370 1.395 . S
C372 C375 1.403 . S
C373 C370 1.403 . S
C373 C374 1.524 . S
C373 C377 1.400 . S
C374 H359 0.960 . S
C374 H360 0.960 . S
C374 H361 0.960 . S
C374 C373 1.524 . S
C375 C372 1.403 . S
C375 C376 1.392 . S
C375 C379 1.495 . S
C376 C375 1.392 . S
C376 C377 1.385 . S
C376 C378 1.478 . S
C377 H371 0.930 . S
C377 C373 1.400 . S
C377 C376 1.385 . S
C378 C376 1.478 . S
C378 C380 1.381 . S
C378 C384 1.383 . S
C379 C375 1.495 . S
C379 H385 0.959 . S
C379 H386 0.961 . S
C379 H387 0.960 . S
C380 C378 1.381 . S
C380 C381 1.394 . S
C380 H388 0.930 . S
C381 C380 1.394 . S
C381 C382 1.383 . S
C381 H389 0.929 . S
C382 C381 1.383 . S
C382 C383 1.377 . S
C383 H367 0.930 . S
C383 C382 1.377 . S
C383 C384 1.379 . S
C384 H368 0.931 . S
C384 C378 1.383 . S
C384 C383 1.379 . S
H385 C379 0.959 . S
H386 C379 0.961 . S
H387 C379 0.960 . S
H388 C380 0.930 . S
H389 C381 0.929 . S
H390 C398 0.929 . S
H391 C400 0.930 . S
H392 C402 0.930 . S
H393 C405 0.929 . S
H394 C408 0.930 . S
H395 C410 0.960 . S
H396 C410 0.960 . S
H397 C410 0.960 . S
C398 H390 0.929 . S
C398 C399 1.377 . S
C398 C400 1.384 . S
C399 C398 1.377 . S
C399 C405 1.390 . S
C400 H391 0.930 . S
C400 C398 1.384 . S
C400 C401 1.372 . S
C401 C400 1.372 . S
C401 C402 1.400 . S
C401 C406 1.490 . S
C402 H392 0.930 . S
C402 C401 1.400 . S
C402 C405 1.386 . S
H403 C419 0.930 . S
H404 C420 0.931 . S
C405 H393 0.929 . S
C405 C399 1.390 . S
C405 C402 1.386 . S
C406 C401 1.490 . S
C406 C408 1.395 . S
C406 C409 1.403 . S
H407 C413 0.930 . S
C408 H394 0.930 . S
C408 C406 1.395 . S
C408 C411 1.403 . S
C409 C406 1.403 . S
C409 C410 1.524 . S
C409 C413 1.400 . S
C410 H395 0.960 . S
C410 H396 0.960 . S
C410 H397 0.960 . S
C410 C409 1.524 . S
C411 C408 1.403 . S
C411 C412 1.392 . S
C411 C415 1.495 . S
C412 C411 1.392 . S
C412 C413 1.385 . S
C412 C414 1.478 . S
C413 H407 0.930 . S
C413 C409 1.400 . S
C413 C412 1.385 . S
C414 C412 1.478 . S
C414 C416 1.381 . S
C414 C420 1.383 . S
C415 C411 1.495 . S
C415 H421 0.959 . S
C415 H422 0.961 . S
C415 H423 0.960 . S
C416 C414 1.381 . S
C416 C417 1.394 . S
C416 H424 0.930 . S
C417 C416 1.394 . S
C417 C418 1.383 . S
C417 H425 0.929 . S
C418 C417 1.383 . S
C418 C419 1.377 . S
C419 H403 0.930 . S
C419 C418 1.377 . S
C419 C420 1.379 . S
C420 H404 0.931 . S
C420 C414 1.383 . S
C420 C419 1.379 . S
H421 C415 0.959 . S
H422 C415 0.961 . S
H423 C415 0.960 . S
H424 C416 0.930 . S
H425 C417 0.929 . S
H426 C434 0.929 . S
H427 C436 0.930 . S
H428 C438 0.930 . S
H429 C441 0.929 . S
H430 C444 0.930 . S
H431 C446 0.960 . S
H432 C446 0.960 . S
H433 C446 0.960 . S
C434 H426 0.929 . S
C434 C435 1.377 . S
C434 C436 1.384 . S
C435 C434 1.377 . S
C435 C441 1.390 . S
C436 H427 0.930 . S
C436 C434 1.384 . S
C436 C437 1.372 . S
C437 C436 1.372 . S
C437 C438 1.400 . S
C437 C442 1.490 . S
C438 H428 0.930 . S
C438 C437 1.400 . S
C438 C441 1.386 . S
H439 C455 0.930 . S
H440 C456 0.931 . S
C441 H429 0.929 . S
C441 C435 1.390 . S
C441 C438 1.386 . S
C442 C437 1.490 . S
C442 C444 1.395 . S
C442 C445 1.403 . S
H443 C449 0.930 . S
C444 H430 0.930 . S
C444 C442 1.395 . S
C444 C447 1.403 . S
C445 C442 1.403 . S
C445 C446 1.524 . S
C445 C449 1.400 . S
C446 H431 0.960 . S
C446 H432 0.960 . S
C446 H433 0.960 . S
C446 C445 1.524 . S
C447 C444 1.403 . S
C447 C448 1.392 . S
C447 C451 1.495 . S
C448 C447 1.392 . S
C448 C449 1.385 . S
C448 C450 1.478 . S
C449 H443 0.930 . S
C449 C445 1.400 . S
C449 C448 1.385 . S
C450 C448 1.478 . S
C450 C452 1.381 . S
C450 C456 1.383 . S
C451 C447 1.495 . S
C451 H457 0.959 . S
C451 H458 0.961 . S
C451 H459 0.960 . S
C452 C450 1.381 . S
C452 C453 1.394 . S
C452 H460 0.930 . S
C453 C452 1.394 . S
C453 C454 1.383 . S
C453 H461 0.929 . S
C454 C453 1.383 . S
C454 C455 1.377 . S
C455 H439 0.930 . S
C455 C454 1.377 . S
C455 C456 1.379 . S
C456 H440 0.931 . S
C456 C450 1.383 . S
C456 C455 1.379 . S
H457 C451 0.959 . S
H458 C451 0.961 . S
H459 C451 0.960 . S
H460 C452 0.930 . S
H461 C453 0.929 . S
H462 C470 0.929 . S
H463 C472 0.930 . S
H464 C474 0.930 . S
H465 C477 0.929 . S
H466 C480 0.930 . S
H467 C482 0.960 . S
H468 C482 0.960 . S
H469 C482 0.960 . S
C470 H462 0.929 . S
C470 C471 1.377 . S
C470 C472 1.384 . S
C471 C470 1.377 . S
C471 C477 1.390 . S
C472 H463 0.930 . S
C472 C470 1.384 . S
C472 C473 1.372 . S
C473 C472 1.372 . S
C473 C474 1.400 . S
C473 C478 1.490 . S
C474 H464 0.930 . S
C474 C473 1.400 . S
C474 C477 1.386 . S
H475 C491 0.930 . S
H476 C492 0.931 . S
C477 H465 0.929 . S
C477 C471 1.390 . S
C477 C474 1.386 . S
C478 C473 1.490 . S
C478 C480 1.395 . S
C478 C481 1.403 . S
H479 C485 0.930 . S
C480 H466 0.930 . S
C480 C478 1.395 . S
C480 C483 1.403 . S
C481 C478 1.403 . S
C481 C482 1.524 . S
C481 C485 1.400 . S
C482 H467 0.960 . S
C482 H468 0.960 . S
C482 H469 0.960 . S
C482 C481 1.524 . S
C483 C480 1.403 . S
C483 C484 1.392 . S
C483 C487 1.495 . S
C484 C483 1.392 . S
C484 C485 1.385 . S
C484 C486 1.478 . S
C485 H479 0.930 . S
C485 C481 1.400 . S
C485 C484 1.385 . S
C486 C484 1.478 . S
C486 C488 1.381 . S
C486 C492 1.383 . S
C487 C483 1.495 . S
C487 H493 0.959 . S
C487 H494 0.961 . S
C487 H495 0.960 . S
C488 C486 1.381 . S
C488 C489 1.394 . S
C488 H496 0.930 . S
C489 C488 1.394 . S
C489 C490 1.383 . S
C489 H497 0.929 . S
C490 C489 1.383 . S
C490 C491 1.377 . S
C491 H475 0.930 . S
C491 C490 1.377 . S
C491 C492 1.379 . S
C492 H476 0.931 . S
C492 C486 1.383 . S
C492 C491 1.379 . S
H493 C487 0.959 . S
H494 C487 0.961 . S
H495 C487 0.960 . S
H496 C488 0.930 . S
H497 C489 0.929 . S
H498 C506 0.929 . S
H499 C508 0.930 . S
H500 C510 0.930 . S
H501 C513 0.929 . S
H502 C516 0.930 . S
H503 C518 0.960 . S
H504 C518 0.960 . S
H505 C518 0.960 . S
C506 H498 0.929 . S
C506 C507 1.377 . S
C506 C508 1.384 . S
C507 C506 1.377 . S
C507 C513 1.390 . S
C508 H499 0.930 . S
C508 C506 1.384 . S
C508 C509 1.372 . S
C509 C508 1.372 . S
C509 C510 1.400 . S
C509 C514 1.490 . S
C510 H500 0.930 . S
C510 C509 1.400 . S
C510 C513 1.386 . S
H511 C527 0.930 . S
H512 C528 0.931 . S
C513 H501 0.929 . S
C513 C507 1.390 . S
C513 C510 1.386 . S
C514 C509 1.490 . S
C514 C516 1.395 . S
C514 C517 1.403 . S
H515 C521 0.930 . S
C516 H502 0.930 . S
C516 C514 1.395 . S
C516 C519 1.403 . S
C517 C514 1.403 . S
C517 C518 1.524 . S
C517 C521 1.400 . S
C518 H503 0.960 . S
C518 H504 0.960 . S
C518 H505 0.960 . S
C518 C517 1.524 . S
C519 C516 1.403 . S
C519 C520 1.392 . S
C519 C523 1.495 . S
C520 C519 1.392 . S
C520 C521 1.385 . S
C520 C522 1.478 . S
C521 H515 0.930 . S
C521 C517 1.400 . S
C521 C520 1.385 . S
C522 C520 1.478 . S
C522 C524 1.381 . S
C522 C528 1.383 . S
C523 C519 1.495 . S
C523 H529 0.959 . S
C523 H530 0.961 . S
C523 H531 0.960 . S
C524 C522 1.381 . S
C524 C525 1.394 . S
C524 H532 0.930 . S
C525 C524 1.394 . S
C525 C526 1.383 . S
C525 H533 0.929 . S
C526 C525 1.383 . S
C526 C527 1.377 . S
C527 H511 0.930 . S
C527 C526 1.377 . S
C527 C528 1.379 . S
C528 H512 0.931 . S
C528 C522 1.383 . S
C528 C527 1.379 . S
H529 C523 0.959 . S
H530 C523 0.961 . S
H531 C523 0.960 . S
H532 C524 0.930 . S
H533 C525 0.929 . S
H534 C542 0.929 . S
H535 C544 0.930 . S
H536 C546 0.930 . S
H537 C549 0.929 . S
H538 C552 0.930 . S
H539 C554 0.960 . S
H540 C554 0.960 . S
H541 C554 0.960 . S
C542 H534 0.929 . S
C542 C543 1.377 . S
C542 C544 1.384 . S
C543 C542 1.377 . S
C543 C549 1.390 . S
C544 H535 0.930 . S
C544 C542 1.384 . S
C544 C545 1.372 . S
C545 C544 1.372 . S
C545 C546 1.400 . S
C545 C550 1.490 . S
C546 H536 0.930 . S
C546 C545 1.400 . S
C546 C549 1.386 . S
H547 C563 0.930 . S
H548 C564 0.931 . S
C549 H537 0.929 . S
C549 C543 1.390 . S
C549 C546 1.386 . S
C550 C545 1.490 . S
C550 C552 1.395 . S
C550 C553 1.403 . S
H551 C557 0.930 . S
C552 H538 0.930 . S
C552 C550 1.395 . S
C552 C555 1.403 . S
C553 C550 1.403 . S
C553 C554 1.524 . S
C553 C557 1.400 . S
C554 H539 0.960 . S
C554 H540 0.960 . S
C554 H541 0.960 . S
C554 C553 1.524 . S
C555 C552 1.403 . S
C555 C556 1.392 . S
C555 C559 1.495 . S
C556 C555 1.392 . S
C556 C557 1.385 . S
C556 C558 1.478 . S
C557 H551 0.930 . S
C557 C553 1.400 . S
C557 C556 1.385 . S
C558 C556 1.478 . S
C558 C560 1.381 . S
C558 C564 1.383 . S
C559 C555 1.495 . S
C559 H565 0.959 . S
C559 H566 0.961 . S
C559 H567 0.960 . S
C560 C558 1.381 . S
C560 C561 1.394 . S
C560 H568 0.930 . S
C561 C560 1.394 . S
C561 C562 1.383 . S
C561 H569 0.929 . S
C562 C561 1.383 . S
C562 C563 1.377 . S
C563 H547 0.930 . S
C563 C562 1.377 . S
C563 C564 1.379 . S
C564 H548 0.931 . S
C564 C558 1.383 . S
C564 C563 1.379 . S
H565 C559 0.959 . S
H566 C559 0.961 . S
H567 C559 0.960 . S
H568 C560 0.930 . S
H569 C561 0.929 . S
H570 C578 0.929 . S
H571 C580 0.930 . S
H572 C582 0.930 . S
H573 C585 0.929 . S
H574 C588 0.930 . S
H575 C590 0.960 . S
H576 C590 0.960 . S
H577 C590 0.960 . S
C578 H570 0.929 . S
C578 C579 1.377 . S
C578 C580 1.384 . S
C579 C578 1.377 . S
C579 C585 1.390 . S
C580 H571 0.930 . S
C580 C578 1.384 . S
C580 C581 1.372 . S
C581 C580 1.372 . S
C581 C582 1.400 . S
C581 C586 1.490 . S
C582 H572 0.930 . S
C582 C581 1.400 . S
C582 C585 1.386 . S
H583 C599 0.930 . S
H584 C600 0.931 . S
C585 H573 0.929 . S
C585 C579 1.390 . S
C585 C582 1.386 . S
C586 C581 1.490 . S
C586 C588 1.395 . S
C586 C589 1.403 . S
H587 C593 0.930 . S
C588 H574 0.930 . S
C588 C586 1.395 . S
C588 C591 1.403 . S
C589 C586 1.403 . S
C589 C590 1.524 . S
C589 C593 1.400 . S
C590 H575 0.960 . S
C590 H576 0.960 . S
C590 H577 0.960 . S
C590 C589 1.524 . S
C591 C588 1.403 . S
C591 C592 1.392 . S
C591 C595 1.495 . S
C592 C591 1.392 . S
C592 C593 1.385 . S
C592 C594 1.478 . S
C593 H587 0.930 . S
C593 C589 1.400 . S
C593 C592 1.385 . S
C594 C592 1.478 . S
C594 C596 1.381 . S
C594 C600 1.383 . S
C595 C591 1.495 . S
C595 H601 0.959 . S
C595 H602 0.961 . S
C595 H603 0.960 . S
C596 C594 1.381 . S
C596 C597 1.394 . S
C596 H604 0.930 . S
C597 C596 1.394 . S
C597 C598 1.383 . S
C597 H605 0.929 . S
C598 C597 1.383 . S
C598 C599 1.377 . S
C599 H583 0.930 . S
C599 C598 1.377 . S
C599 C600 1.379 . S
C600 H584 0.931 . S
C600 C594 1.383 . S
C600 C599 1.379 . S
H601 C595 0.959 . S
H602 C595 0.961 . S
H603 C595 0.960 . S
H604 C596 0.930 . S
H605 C597 0.929 . S
H606 C614 0.929 . S
H607 C616 0.930 . S
H608 C618 0.930 . S
H609 C621 0.929 . S
H610 C624 0.930 1_655 S
H611 C626 0.960 . S
H612 C626 0.960 . S
H613 C626 0.960 . S
C614 H606 0.929 . S
C614 C615 1.377 . S
C614 C616 1.384 . S
C615 C614 1.377 . S
C615 C621 1.390 . S
C616 H607 0.930 . S
C616 C614 1.384 . S
C616 C617 1.372 . S
C617 C616 1.372 . S
C617 C618 1.400 . S
C617 C622 1.490 . S
C618 H608 0.930 . S
C618 C617 1.400 . S
C618 C621 1.386 . S
H619 C635 0.930 . S
H620 C636 0.931 . S
C621 H609 0.929 . S
C621 C615 1.390 . S
C621 C618 1.386 . S
C622 C617 1.490 . S
C622 C624 1.395 . S
C622 C625 1.403 . S
H623 C629 0.930 . S
C624 H610 0.930 1_455 S
C624 C622 1.395 . S
C624 C627 1.403 . S
C625 C622 1.403 . S
C625 C626 1.524 . S
C625 C629 1.400 . S
C626 H611 0.960 . S
C626 H612 0.960 . S
C626 H613 0.960 . S
C626 C625 1.524 . S
C627 C624 1.403 . S
C627 C628 1.392 1_554 S
C627 C631 1.495 1_454 S
C628 C627 1.392 1_556 S
C628 C629 1.385 1_556 S
C628 C630 1.478 . S
C629 H623 0.930 . S
C629 C625 1.400 . S
C629 C628 1.385 1_554 S
C630 C628 1.478 . S
C630 C632 1.381 . S
C630 C636 1.383 . S
C631 C627 1.495 1_656 S
C631 H637 0.959 1_556 S
C631 H638 0.961 . S
C631 H639 0.960 1_655 S
C632 C630 1.381 . S
C632 C633 1.394 . S
C632 H640 0.930 . S
C633 C632 1.394 . S
C633 C634 1.383 . S
C633 H641 0.929 . S
C634 C633 1.383 . S
C634 C635 1.377 . S
C635 H619 0.930 . S
C635 C634 1.377 . S
C635 C636 1.379 . S
C636 H620 0.931 . S
C636 C630 1.383 . S
C636 C635 1.379 . S
H637 C631 0.959 1_554 S
H638 C631 0.961 . S
H639 C631 0.960 1_455 S
H640 C632 0.930 . S
H641 C633 0.929 . S
H642 C650 0.929 . S
H643 C652 0.922 . S
H644 C654 0.930 . S
H645 C657 0.929 . S
H646 C660 0.930 . S
H647 C662 0.960 . S
H648 C662 0.960 . S
H649 C662 0.960 . S
C650 H642 0.929 . S
C650 C651 1.377 1_565 S
C650 C652 1.386 . S
C651 C650 1.377 1_545 S
C651 C657 1.390 . S
C652 H643 0.922 . S
C652 C650 1.386 . S
C652 C653 1.379 1_565 S
C653 C652 1.379 1_545 S
C653 C654 1.400 . S
C653 C658 1.490 . S
C654 H644 0.930 . S
C654 C653 1.400 . S
C654 C657 1.386 . S
H655 C671 0.930 . S
H656 C672 0.931 . S
C657 H645 0.929 . S
C657 C651 1.390 . S
C657 C654 1.386 . S
C658 C653 1.490 . S
C658 C660 1.395 . S
C658 C661 1.403 1_545 S
H659 C665 0.930 . S
C660 H646 0.930 . S
C660 C658 1.395 . S
C660 C663 1.403 . S
C661 C658 1.403 1_565 S
C661 C662 1.524 . S
C661 C665 1.400 . S
C662 H647 0.960 . S
C662 H648 0.960 . S
C662 H649 0.960 . S
C662 C661 1.524 . S
C663 C660 1.403 . S
C663 C664 1.392 . S
C663 C667 1.495 . S
C664 C663 1.392 . S
C664 C665 1.385 1_545 S
C664 C666 1.478 . S
C665 H659 0.930 . S
C665 C661 1.400 . S
C665 C664 1.385 1_565 S
C666 C664 1.478 . S
C666 C668 1.381 . S
C666 C672 1.383 . S
C667 C663 1.495 . S
C667 H673 0.959 . S
C667 H674 0.961 . S
C667 H675 0.960 . S
C668 C666 1.381 . S
C668 C669 1.394 . S
C668 H676 0.930 1_545 S
C669 C668 1.394 . S
C669 C670 1.383 . S
C669 H677 0.929 1_545 S
C670 C669 1.383 . S
C670 C671 1.377 . S
C671 H655 0.930 . S
C671 C670 1.377 . S
C671 C672 1.379 . S
C672 H656 0.931 . S
C672 C666 1.383 . S
C672 C671 1.379 . S
H673 C667 0.959 . S
H674 C667 0.961 . S
H675 C667 0.960 . S
H676 C668 0.930 1_565 S
H677 C669 0.929 1_565 S
H678 C686 0.929 . S
H679 C688 0.930 . S
H680 C690 0.930 . S
H681 C693 0.929 . S
H682 C696 0.930 . S
H683 C698 0.960 . S
H684 C698 0.960 . S
H685 C698 0.960 . S
C686 H678 0.929 . S
C686 C687 1.377 . S
C686 C688 1.384 . S
C687 C686 1.377 . S
C687 C693 1.390 . S
C688 H679 0.930 . S
C688 C686 1.384 . S
C688 C689 1.372 . S
C689 C688 1.372 . S
C689 C690 1.400 . S
C689 C694 1.490 . S
C690 H680 0.930 . S
C690 C689 1.400 . S
C690 C693 1.386 . S
H691 C707 0.930 . S
H692 C708 0.931 . S
C693 H681 0.929 . S
C693 C687 1.390 . S
C693 C690 1.386 . S
C694 C689 1.490 . S
C694 C696 1.395 . S
C694 C697 1.403 . S
H695 C701 0.930 . S
C696 H682 0.930 . S
C696 C694 1.395 . S
C696 C699 1.403 . S
C697 C694 1.403 . S
C697 C698 1.524 . S
C697 C701 1.400 . S
C698 H683 0.960 . S
C698 H684 0.960 . S
C698 H685 0.960 . S
C698 C697 1.524 . S
C699 C696 1.403 . S
C699 C700 1.392 . S
C699 C703 1.495 . S
C700 C699 1.392 . S
C700 C701 1.385 . S
C700 C702 1.478 . S
C701 H695 0.930 . S
C701 C697 1.400 . S
C701 C700 1.385 . S
C702 C700 1.478 . S
C702 C704 1.381 . S
C702 C708 1.383 . S
C703 C699 1.495 . S
C703 H709 0.959 . S
C703 H710 0.961 . S
C703 H711 0.960 . S
C704 C702 1.381 . S
C704 C705 1.394 . S
C704 H712 0.930 . S
C705 C704 1.394 . S
C705 C706 1.383 . S
C705 H713 0.929 . S
C706 C705 1.383 . S
C706 C707 1.377 . S
C707 H691 0.930 . S
C707 C706 1.377 . S
C707 C708 1.379 . S
C708 H692 0.931 . S
C708 C702 1.383 . S
C708 C707 1.379 . S
H709 C703 0.959 . S
H710 C703 0.961 . S
H711 C703 0.960 . S
H712 C704 0.930 . S
H713 C705 0.929 . S
H714 C722 0.929 . S
H715 C724 0.930 . S
H716 C726 0.930 . S
H717 C729 0.929 . S
H718 C732 0.918 . S
H719 C734 0.960 . S
H720 C734 0.960 . S
H721 C734 0.947 1_565 S
C722 H714 0.929 . S
C722 C723 1.377 . S
C722 C724 1.384 . S
C723 C722 1.377 . S
C723 C729 1.390 1_545 S
C724 H715 0.930 . S
C724 C722 1.384 . S
C724 C725 1.372 . S
C725 C724 1.372 . S
C725 C726 1.400 1_545 S
C725 C730 1.490 . S
C726 H716 0.930 . S
C726 C725 1.400 1_565 S
C726 C729 1.386 . S
H727 C743 0.930 . S
H728 C744 0.931 . S
C729 H717 0.929 . S
C729 C723 1.390 1_565 S
C729 C726 1.386 . S
C730 C725 1.490 . S
C730 C732 1.406 1_545 S
C730 C733 1.403 . S
H731 C737 0.930 . S
C732 H718 0.918 . S
C732 C730 1.406 1_565 S
C732 C735 1.404 . S
C733 C730 1.403 . S
C733 C734 1.524 . S
C733 C737 1.400 . S
C734 H719 0.960 . S
C734 H720 0.960 . S
C734 H721 0.947 1_545 S
C734 C733 1.524 . S
C735 C732 1.404 . S
C735 C736 1.392 1_565 S
C735 C739 1.495 . S
C736 C735 1.392 1_545 S
C736 C737 1.385 . S
C736 C738 1.480 . S
C737 H731 0.930 . S
C737 C733 1.400 . S
C737 C736 1.385 . S
C738 C736 1.480 . S
C738 C740 1.403 . S
C738 C744 1.358 1_545 S
C739 C735 1.495 . S
C739 H745 0.959 . S
C739 H746 0.961 . S
C739 H747 0.960 1_565 S
C740 C738 1.403 . S
C740 C741 1.394 . S
C740 H748 0.930 . S
C741 C740 1.394 . S
C741 C742 1.387 1_545 S
C741 H749 0.929 . S
C742 C741 1.387 1_565 S
C742 C743 1.374 . S
C743 H727 0.930 . S
C743 C742 1.374 . S
C743 C744 1.379 . S
C744 H728 0.931 . S
C744 C738 1.358 1_565 S
C744 C743 1.379 . S
H745 C739 0.959 . S
H746 C739 0.961 . S
H747 C739 0.960 1_545 S
H748 C740 0.930 . S
H749 C741 0.929 . S
H750 C758 0.929 . S
H751 C760 0.930 . S
H752 C762 0.930 . S
H753 C765 0.929 . S
H754 C768 0.930 . S
H755 C770 0.960 . S
H756 C770 0.960 . S
H757 C770 0.960 . S
C758 H750 0.929 . S
C758 C759 1.377 . S
C758 C760 1.384 . S
C759 C758 1.377 . S
C759 C765 1.390 . S
C760 H751 0.930 . S
C760 C758 1.384 . S
C760 C761 1.372 . S
C761 C760 1.372 . S
C761 C762 1.400 . S
C761 C766 1.490 . S
C762 H752 0.930 . S
C762 C761 1.400 . S
C762 C765 1.386 . S
H763 C779 0.930 . S
H764 C780 0.931 . S
C765 H753 0.929 . S
C765 C759 1.390 . S
C765 C762 1.386 . S
C766 C761 1.490 . S
C766 C768 1.395 . S
C766 C769 1.403 . S
H767 C773 0.930 . S
C768 H754 0.930 . S
C768 C766 1.395 . S
C768 C771 1.403 . S
C769 C766 1.403 . S
C769 C770 1.524 . S
C769 C773 1.400 . S
C770 H755 0.960 . S
C770 H756 0.960 . S
C770 H757 0.960 . S
C770 C769 1.524 . S
C771 C768 1.403 . S
C771 C772 1.392 . S
C771 C775 1.495 . S
C772 C771 1.392 . S
C772 C773 1.385 . S
C772 C774 1.478 1_556 S
C773 H767 0.930 . S
C773 C769 1.400 . S
C773 C772 1.385 . S
C774 C772 1.478 1_554 S
C774 C776 1.381 . S
C774 C780 1.383 . S
C775 C771 1.495 . S
C775 H781 0.959 . S
C775 H782 0.961 1_556 S
C775 H783 0.960 . S
C776 C774 1.381 . S
C776 C777 1.394 . S
C776 H784 0.930 . S
C777 C776 1.394 . S
C777 C778 1.383 . S
C777 H785 0.929 . S
C778 C777 1.383 . S
C778 C779 1.377 . S
C779 H763 0.930 . S
C779 C778 1.377 . S
C779 C780 1.379 . S
C780 H764 0.931 . S
C780 C774 1.383 . S
C780 C779 1.379 . S
H781 C775 0.959 . S
H782 C775 0.961 1_554 S
H783 C775 0.960 . S
H784 C776 0.930 . S
H785 C777 0.929 . S
H786 C794 0.929 . S
H787 C796 0.930 . S
H788 C798 0.930 . S
H789 C801 0.929 . S
H790 C804 0.930 . S
H791 C806 0.960 . S
H792 C806 0.960 . S
H793 C806 0.960 . S
C794 H786 0.929 . S
C794 C795 1.377 1_655 S
C794 C796 1.384 . S
C795 C794 1.377 1_455 S
C795 C801 1.390 . S
C796 H787 0.930 . S
C796 C794 1.384 . S
C796 C797 1.372 1_655 S
C797 C796 1.372 1_455 S
C797 C798 1.400 . S
C797 C802 1.490 . S
C798 H788 0.930 . S
C798 C797 1.400 . S
C798 C801 1.386 . S
H799 C815 0.930 . S
H800 C816 0.931 . S
C801 H789 0.929 . S
C801 C795 1.390 . S
C801 C798 1.386 . S
C802 C797 1.490 . S
C802 C804 1.395 1_455 S
C802 C805 1.403 . S
H803 C809 0.930 . S
C804 H790 0.930 . S
C804 C802 1.395 1_655 S
C804 C807 1.403 . S
C805 C802 1.403 . S
C805 C806 1.524 . S
C805 C809 1.400 . S
C806 H791 0.960 . S
C806 H792 0.960 . S
C806 H793 0.960 . S
C806 C805 1.524 . S
C807 C804 1.403 . S
C807 C808 1.392 . S
C807 C811 1.495 . S
C808 C807 1.392 . S
C808 C809 1.385 1_655 S
C808 C810 1.478 . S
C809 H803 0.930 . S
C809 C805 1.400 . S
C809 C808 1.385 1_455 S
C810 C808 1.478 . S
C810 C812 1.381 . S
C810 C816 1.383 1_655 S
C811 C807 1.495 . S
C811 H817 0.959 . S
C811 H818 0.961 . S
C811 H819 0.960 . S
C812 C810 1.381 . S
C812 C813 1.394 . S
C812 H820 0.930 . S
C813 C812 1.394 . S
C813 C814 1.383 . S
C813 H821 0.929 . S
C814 C813 1.383 . S
C814 C815 1.377 1_655 S
C815 H799 0.930 . S
C815 C814 1.377 1_455 S
C815 C816 1.379 . S
C816 H800 0.931 . S
C816 C810 1.383 1_455 S
C816 C815 1.379 . S
H817 C811 0.959 . S
H818 C811 0.961 . S
H819 C811 0.960 . S
H820 C812 0.930 . S
H821 C813 0.929 . S
C183 C6 0.488 . S
C202 C169 0.459 . S
C219 C59 1.762 . S
C238 C151 1.732 . S
C255 C86 1.176 . S
C274 C163 1.187 . S
C291 C15 0.427 . S
C310 C172 0.309 . S
C346 C154 1.786 . S
C327 C50 1.776 . S
C382 C160 1.268 . S
C363 C95 1.261 . S
C399 C46 1.171 . S
C418 C133 1.176 . S
C435 C99 2.959 . S
C454 C142 2.921 1_655 S
C471 C10 1.814 . S
C490 C124 1.842 . S
C526 C136 1.240 . S
C507 C55 1.230 . S
C562 C145 2.838 . S
C543 C90 2.819 . S
C579 C19 1.744 . S
C598 C127 1.739 . S
C634 C143 1.774 . S
C615 C18 1.707 . S
C651 C49 1.323 . S
C670 C125 1.372 . S
C687 C98 1.451 . S
C706 C134 1.503 . S
C742 C161 1.484 1_565 S
C723 C58 1.433 . S
C778 C170 1.076 . S
C759 C89 1.065 . S
C795 C9 1.323 . S
C814 C152 1.364 1_655 S
