# Generated by pormake.
# Topology pyr, (3,6)-cn, num edge types: 1
# Building blocks:
#     Node 0, Type 0, BuildingBlock: BETDAH_clean_linker_0, # of connection points: 3
#     Node 1, Type 0, BuildingBlock: BETDAH_clean_linker_0, # of connection points: 3
#     Node 2, Type 0, BuildingBlock: BETDAH_clean_linker_0, # of connection points: 3
#     Node 3, Type 0, BuildingBlock: BETDAH_clean_linker_0, # of connection points: 3
#     Node 4, Type 0, BuildingBlock: BETDAH_clean_linker_0, # of connection points: 3
#     Node 5, Type 0, BuildingBlock: BETDAH_clean_linker_0, # of connection points: 3
#     Node 6, Type 0, BuildingBlock: BETDAH_clean_linker_0, # of connection points: 3
#     Node 7, Type 0, BuildingBlock: BETDAH_clean_linker_0, # of connection points: 3
#     Node 8, Type 1, BuildingBlock: INOVEN_clean_sbu_0, # of connection points: 6
#     Node 9, Type 1, BuildingBlock: INOVEN_clean_sbu_0, # of connection points: 6
#     Node 10, Type 1, BuildingBlock: INOVEN_clean_sbu_0, # of connection points: 6
#     Node 11, Type 1, BuildingBlock: INOVEN_clean_sbu_0, # of connection points: 6
#     Edge 12, Type (0, 1), BuildingBlock: CIFDUS_clean_linker_0, # of connection points: 2
#     Edge 13, Type (0, 1), BuildingBlock: CIFDUS_clean_linker_0, # of connection points: 2
#     Edge 14, Type (0, 1), BuildingBlock: CIFDUS_clean_linker_0, # of connection points: 2
#     Edge 15, Type (0, 1), BuildingBlock: CIFDUS_clean_linker_0, # of connection points: 2
#     Edge 16, Type (0, 1), BuildingBlock: CIFDUS_clean_linker_0, # of connection points: 2
#     Edge 17, Type (0, 1), BuildingBlock: CIFDUS_clean_linker_0, # of connection points: 2
#     Edge 18, Type (0, 1), BuildingBlock: CIFDUS_clean_linker_0, # of connection points: 2
#     Edge 19, Type (0, 1), BuildingBlock: CIFDUS_clean_linker_0, # of connection points: 2
#     Edge 20, Type (0, 1), BuildingBlock: CIFDUS_clean_linker_0, # of connection points: 2
#     Edge 21, Type (0, 1), BuildingBlock: CIFDUS_clean_linker_0, # of connection points: 2
#     Edge 22, Type (0, 1), BuildingBlock: CIFDUS_clean_linker_0, # of connection points: 2
#     Edge 23, Type (0, 1), BuildingBlock: CIFDUS_clean_linker_0, # of connection points: 2
#     Edge 24, Type (0, 1), BuildingBlock: CIFDUS_clean_linker_0, # of connection points: 2
#     Edge 25, Type (0, 1), BuildingBlock: CIFDUS_clean_linker_0, # of connection points: 2
#     Edge 26, Type (0, 1), BuildingBlock: CIFDUS_clean_linker_0, # of connection points: 2
#     Edge 27, Type (0, 1), BuildingBlock: CIFDUS_clean_linker_0, # of connection points: 2
#     Edge 28, Type (0, 1), BuildingBlock: CIFDUS_clean_linker_0, # of connection points: 2
#     Edge 29, Type (0, 1), BuildingBlock: CIFDUS_clean_linker_0, # of connection points: 2
#     Edge 30, Type (0, 1), BuildingBlock: CIFDUS_clean_linker_0, # of connection points: 2
#     Edge 31, Type (0, 1), BuildingBlock: CIFDUS_clean_linker_0, # of connection points: 2
#     Edge 32, Type (0, 1), BuildingBlock: CIFDUS_clean_linker_0, # of connection points: 2
#     Edge 33, Type (0, 1), BuildingBlock: CIFDUS_clean_linker_0, # of connection points: 2
#     Edge 34, Type (0, 1), BuildingBlock: CIFDUS_clean_linker_0, # of connection points: 2
#     Edge 35, Type (0, 1), BuildingBlock: CIFDUS_clean_linker_0, # of connection points: 2
# Relax obj value: 0.164
# Max RMSD: 0.192
# Mean RMSD: 0.141
data_MOF--net-pyr--node1-INOVEN_clean_sbu_0--node2-BETDAH_clean_linker_0--edge1-CIFDUS_clean_linker_0
_symmetry_space_group_name_H-M    P1
_symmetry_Int_Tables_number       1
_symmetry_cell_setting            triclinic
loop_
_symmetry_equiv_pos_as_xyz
'x, y, z'
_cell_length_a     32.542195
_cell_length_b     35.656837
_cell_length_c     32.920825
_cell_angle_alpha  92.275018
_cell_angle_beta   89.941097
_cell_angle_gamma 107.41097
loop_
_atom_site_label
_atom_site_type_symbol
_atom_site_fract_x
_atom_site_fract_y
_atom_site_fract_z
_atom_type_partial_charge
H0 H 0.38841 0.25959 0.2782 0.0
H1 H 0.47036 0.35301 0.2096 0.0
H2 H 0.36086 0.3693 0.27336 0.0
C3 C 0.39693 0.28934 0.26766 0.0
C4 C 0.37058 0.31276 0.27806 0.0
C5 C 0.43251 0.30294 0.24224 0.0
C6 C 0.44363 0.34208 0.22995 0.0
C7 C 0.41805 0.36631 0.24108 0.0
C8 C 0.38161 0.35144 0.26545 0.0
N9 N 0.42741 0.40428 0.22489 0.0
C10 C 0.39555 0.42258 0.22054 0.0
H11 H 0.27596 0.82963 0.75261 0.0
H12 H 0.16478 0.86737 0.73157 0.0
H13 H 0.19421 0.78324 0.64828 0.0
C14 C 0.24708 0.82715 0.735 0.0
C15 C 0.23819 0.80303 0.69937 0.0
C16 C 0.22052 0.85001 0.74706 0.0
C17 C 0.18512 0.84941 0.72258 0.0
C18 C 0.17572 0.82532 0.68682 0.0
C19 C 0.20174 0.80169 0.67587 0.0
N20 N 0.14116 0.82534 0.66069 0.0
C21 C 0.12592 0.85765 0.65894 0.0
H22 H 0.72671 0.35353 0.97485 0.0
H23 H 0.72694 0.46086 0.91803 0.0
H24 H 0.62234 0.35562 0.89611 0.0
C25 C 0.71191 0.36974 0.9555 0.0
C26 C 0.67189 0.34946 0.93698 0.0
C27 C 0.7328 0.41017 0.94954 0.0
C28 C 0.71341 0.42958 0.92179 0.0
C29 C 0.67447 0.40969 0.90095 0.0
C30 C 0.65385 0.36991 0.90941 0.0
N31 N 0.65025 0.43188 0.88169 0.0
C32 C 0.65162 0.44286 0.84089 0.0
H33 H 0.84443 0.76747 0.49998 0.0
H34 H 0.93028 0.80532 0.40047 0.0
H35 H 0.84359 0.687 0.3984 0.0
C36 C 0.85761 0.76115 0.47117 0.0
C37 C 0.84051 0.72347 0.4522 0.0
C38 C 0.89038 0.79102 0.4535 0.0
C39 C 0.90535 0.78273 0.41497 0.0
C40 C 0.88941 0.74533 0.3949 0.0
C41 C 0.85667 0.71557 0.41369 0.0
N42 N 0.90481 0.74102 0.35461 0.0
C43 C 0.91097 0.70785 0.334 0.0
H44 H 0.76875 0.82329 0.92714 0.0
H45 H 0.64952 0.75075 0.97491 0.0
H46 H 0.65089 0.84791 0.90018 0.0
C47 C 0.73408 0.81619 0.93025 0.0
C48 C 0.71219 0.83875 0.91085 0.0
C49 C 0.71183 0.78431 0.95318 0.0
C50 C 0.6669 0.77492 0.95661 0.0
C51 C 0.64482 0.79849 0.93858 0.0
C52 C 0.6676 0.82996 0.9149 0.0
N53 N 0.60035 0.79165 0.94637 0.0
C54 C 0.58272 0.82267 0.94898 0.0
H55 H 0.87641 0.23587 0.41216 0.0
H56 H 0.95193 0.33354 0.48752 0.0
H57 H 0.85824 0.34948 0.4031 0.0
C58 C 0.88494 0.26667 0.42191 0.0
C59 C 0.86345 0.29084 0.40456 0.0
C60 C 0.91676 0.28154 0.45195 0.0
C61 C 0.92823 0.32171 0.46358 0.0
C62 C 0.90669 0.34618 0.4467 0.0
C63 C 0.87478 0.33075 0.41656 0.0
N64 N 0.91542 0.38539 0.46244 0.0
C65 C 0.88262 0.4026 0.46767 0.0
H66 H 0.34798 0.79638 0.20096 0.0
H67 H 0.36235 0.70493 0.27806 0.0
H68 H 0.46082 0.81585 0.2758 0.0
C69 C 0.36644 0.78539 0.22226 0.0
C70 C 0.40646 0.81099 0.23609 0.0
C71 C 0.34944 0.74669 0.23672 0.0
C72 C 0.37357 0.73437 0.26695 0.0
C73 C 0.41359 0.75954 0.28148 0.0
C74 C 0.42956 0.79717 0.26536 0.0
N75 N 0.44108 0.748 0.30951 0.0
C76 C 0.43154 0.71965 0.33956 0.0
H77 H 0.24722 0.39791 0.68504 0.0
H78 H 0.23876 0.48255 0.77989 0.0
H79 H 0.14148 0.36993 0.7678 0.0
C80 C 0.23075 0.40604 0.711 0.0
C81 C 0.19223 0.37915 0.72375 0.0
C82 C 0.24833 0.44334 0.73078 0.0
C83 C 0.22601 0.45405 0.76441 0.0
C84 C 0.18746 0.42709 0.77816 0.0
C85 C 0.17136 0.39008 0.75761 0.0
N86 N 0.1629 0.43465 0.81206 0.0
C87 C 0.16878 0.46778 0.83845 0.0
Gd88 Gd 0.06207 0.10085 0.55241 0.0
Gd89 Gd 1.00443 0.07351 0.62406 0.0
C90 C 0.08102 0.15842 0.63049 0.0
C91 C 0.09231 0.12395 0.48225 0.0
C92 C 0.11768 0.16036 0.4638 0.0
C93 C 0.15394 0.18613 0.48375 0.0
C94 C 0.10745 0.16778 0.42422 0.0
C95 C 0.17323 0.22262 0.4222 0.0
C96 C 0.13486 0.19879 0.40363 0.0
C97 C 0.1816 0.21699 0.46304 0.0
C98 C 0.09203 0.05943 0.60591 0.0
C99 C 0.98708 1.01429 0.54615 0.0
C100 C 0.97081 0.0536 0.69401 0.0
C101 C 0.9349 1.02381 0.71216 0.0
C102 C 0.89312 1.0131 0.69531 0.0
C103 C 0.94213 1.0077 0.74856 0.0
C104 C 0.86577 0.97255 0.75284 0.0
C105 C 0.90796 0.9822 0.76866 0.0
C106 C 0.85878 0.98765 0.71554 0.0
C107 C 0.97369 0.112 0.56895 0.0
O108 O 0.08419 0.15706 0.59049 0.0
O109 O 0.05733 0.12735 0.64976 0.0
O110 O 0.1126 0.10883 0.50831 0.0
O111 O 0.05309 0.1221 0.49319 0.0
O112 O 0.11686 0.08879 0.58678 0.0
O113 O 0.05383 0.05292 0.59408 0.0
O114 O 0.98077 1.01702 0.5858 0.0
O115 O 1.01314 0.04422 0.52692 0.0
O116 O 0.96073 0.07901 0.67151 0.0
O117 O 1.00255 0.04186 0.67941 0.0
O118 O 0.94962 0.0816 0.58712 0.0
O119 O 1.01187 0.12099 0.58187 0.0
H120 H 0.16209 0.18124 0.51459 0.0
H121 H 0.07928 0.1485 0.40857 0.0
H122 H 0.12716 0.2029 0.37243 0.0
H123 H 0.21094 0.2347 0.47815 0.0
H124 H 0.88681 1.0251 0.66707 0.0
H125 H 0.97417 1.01548 0.7619 0.0
H126 H 0.91454 0.97028 0.79684 0.0
H127 H 0.82665 0.98078 0.70264 0.0
Gd128 Gd 0.56534 0.08382 0.10205 0.0
Gd129 Gd 0.49087 0.07201 0.05394 0.0
C130 C 0.50085 0.12618 0.13585 0.0
C131 C 0.64267 0.10096 0.13162 0.0
C132 C 0.67088 0.13212 0.15806 0.0
C133 C 0.69787 0.12191 0.18578 0.0
C134 C 0.66933 0.1711 0.15801 0.0
C135 C 0.72023 0.18877 0.2146 0.0
C136 C 0.69423 0.19941 0.18596 0.0
C137 C 0.72227 0.14994 0.21388 0.0
C138 C 0.50081 1.01995 0.12678 0.0
C139 C 0.55263 1.0257 1.02221 0.0
C140 C 0.41384 0.0577 1.02389 0.0
C141 C 0.38366 1.02575 1.0001 0.0
C142 C 0.34434 1.02998 0.9873 0.0
C143 C 0.39492 0.99205 0.98796 0.0
C144 C 0.32872 0.96805 0.94796 0.0
C145 C 0.36766 0.9634 0.96206 0.0
C146 C 0.31698 1.0013 0.96145 0.0
C147 C 0.55598 0.13656 1.03124 0.0
O148 O 0.54231 0.13045 0.13389 0.0
O149 O 0.47386 0.10016 0.11149 0.0
O150 O 0.60901 0.07814 0.14926 0.0
O151 O 0.63406 0.11059 0.0954 0.0
O152 O 0.52574 0.04686 0.15077 0.0
O153 O 0.51045 1.0285 0.0902 0.0
O154 O 0.51172 1.02369 1.02394 0.0
O155 O 0.58084 0.05175 0.04576 0.0
O156 O 0.44866 0.07654 1.00493 0.0
O157 O 0.42162 0.05005 0.06106 0.0
O158 O 0.5317 0.11033 1.00626 0.0
O159 O 0.54503 0.12716 0.0672 0.0
H160 H 0.69934 0.09196 0.18629 0.0
H161 H 0.64827 0.17942 0.13704 0.0
H162 H 0.69211 0.22916 0.18611 0.0
H163 H 0.74249 0.14119 0.23542 0.0
H164 H 0.33527 0.05589 0.99655 0.0
H165 H 0.42532 0.98848 0.99756 0.0
H166 H 0.37794 0.93842 0.95181 0.0
H167 H 0.28699 1.00546 0.9515 0.0
Gd168 Gd 0.53632 0.53821 0.56304 0.0
Gd169 Gd 0.54944 0.61154 0.6042 0.0
C170 C 0.58279 0.5506 0.65195 0.0
C171 C 0.54439 0.47462 0.52756 0.0
C172 C 0.58263 0.46372 0.51499 0.0
C173 C 0.57971 0.42434 0.50589 0.0
C174 C 0.62267 0.49271 0.5133 0.0
C175 C 0.6569 0.44288 0.49349 0.0
C176 C 0.65946 0.48242 0.50249 0.0
C177 C 0.61658 0.41395 0.49521 0.0
C178 C 0.46308 0.54025 0.60449 0.0
C179 C 0.50408 0.59998 0.51562 0.0
C180 C 0.54299 0.67573 0.63961 0.0
C181 C 0.50681 0.6914 0.64739 0.0
C182 C 0.50862 0.71734 0.68086 0.0
C183 C 0.46894 0.678 0.62381 0.0
C184 C 0.43452 0.71562 0.66781 0.0
C185 C 0.43314 0.6902 0.6338 0.0
C186 C 0.47271 0.72937 0.69106 0.0
C187 C 0.622 0.60868 0.56281 0.0
O188 O 0.58112 0.53326 0.61539 0.0
O189 O 0.56755 0.58077 0.65656 0.0
O190 O 0.53995 0.47864 0.56667 0.0
O191 O 0.53713 0.50308 0.50799 0.0
O192 O 0.46406 0.52409 0.56876 0.0
O193 O 0.50165 0.5541 0.6167 0.0
O194 O 0.50359 0.61553 0.55269 0.0
O195 O 0.52134 0.57109 0.5105 0.0
O196 O 0.5542 0.67342 0.60174 0.0
O197 O 0.54145 0.64419 0.65894 0.0
O198 O 0.62199 0.6244 0.59891 0.0
O199 O 0.58355 0.59546 0.55036 0.0
H200 H 0.54904 0.40162 0.50742 0.0
H201 H 0.62547 0.52332 0.52047 0.0
H202 H 0.68984 0.50548 0.50094 0.0
H203 H 0.61362 0.38319 0.48902 0.0
H204 H 0.5375 0.72766 0.69957 0.0
H205 H 0.46665 0.65743 0.59825 0.0
H206 H 0.40398 0.67888 0.61563 0.0
H207 H 0.47473 0.74931 0.71718 0.0
Gd208 Gd 0.04245 0.54994 0.10819 0.0
Gd209 Gd 0.04256 0.62517 0.06267 0.0
C210 C 0.12461 0.63087 0.12003 0.0
C211 C 0.06322 0.48734 0.12333 0.0
C212 C 0.09976 0.4789 0.14336 0.0
C213 C 0.0934 0.44339 0.16276 0.0
C214 C 0.1417 0.5047 0.14046 0.0
C215 C 0.17099 0.45778 0.17269 0.0
C216 C 0.17693 0.49419 0.15478 0.0
C217 C 0.12864 0.43298 0.17749 0.0
C218 C 1.00786 0.59612 0.15799 0.0
C219 C 0.95841 0.54556 0.05321 0.0
C220 C 0.02364 0.68545 1.03672 0.0
C221 C 0.98443 0.69734 1.03323 0.0
C222 C 0.98768 0.73537 1.02152 0.0
C223 C 0.94394 0.67153 0.04251 0.0
C224 C 0.91019 0.72206 1.02849 0.0
C225 C 0.907 0.68373 0.03993 0.0
C226 C 0.95091 0.74767 1.01917 0.0
C227 C 0.08391 0.57838 1.02339 0.0
O228 O 0.10888 0.59243 0.12512 0.0
O229 O 0.10347 0.65041 0.09929 0.0
O230 O 0.03712 0.50021 0.14645 0.0
O231 O 0.07238 0.50592 0.08946 0.0
O232 O 1.01154 0.56228 0.16762 0.0
O233 O 1.02225 0.60257 0.12234 0.0
O234 O 0.97573 0.58378 0.04784 0.0
O235 O 0.97817 0.52523 0.07487 0.0
O236 O 0.02581 0.65587 1.01283 0.0
O237 O 0.03691 0.68355 0.07387 0.0
O238 O 0.09598 0.61656 1.02228 0.0
O239 O 0.04969 0.56753 0.04395 0.0
H240 H 0.06127 0.42318 0.16548 0.0
H241 H 0.14746 0.53237 0.12566 0.0
H242 H 0.20892 0.5139 0.15008 0.0
H243 H 0.12274 0.4051 0.19188 0.0
H244 H 1.01871 0.75564 1.01431 0.0
H245 H 0.94093 0.64213 0.05201 0.0
H246 H 0.87611 0.66348 0.04748 0.0
H247 H 0.9543 0.77716 1.00962 0.0
H248 H 0.3388 0.33923 0.34658 0.0
H249 H 0.30955 0.24611 0.25361 0.0
H250 H 0.24339 0.21219 0.28815 0.0
H251 H 0.19773 0.20591 0.34728 0.0
H252 H 0.22625 0.29707 0.44229 0.0
H253 H 0.28889 0.33501 0.40448 0.0
C254 C 0.31754 0.31176 0.33385 0.0
C255 C 0.32912 0.29478 0.29807 0.0
C256 C 0.27972 0.29205 0.35425 0.0
C257 C 0.3015 0.25925 0.28159 0.0
C258 C 0.26367 0.23994 0.30119 0.0
C259 C 0.21687 0.23457 0.35931 0.0
C260 C 0.20725 0.24872 0.39744 0.0
C261 C 0.25296 0.25565 0.3379 0.0
C262 C 0.23316 0.28547 0.41303 0.0
C263 C 0.26895 0.30712 0.39146 0.0
H264 H 0.24216 0.8306 0.8209 0.0
H265 H 0.22461 0.92753 0.75604 0.0
H266 H 0.25299 0.97227 0.81455 0.0
H267 H 0.29004 0.98477 0.88086 0.0
H268 H 0.30855 0.88782 0.94526 0.0
H269 H 0.273 0.8421 0.88985 0.0
C270 C 0.24426 0.86149 0.81979 0.0
C271 C 0.23179 0.8759 0.7842 0.0
C272 C 0.26125 0.88702 0.85315 0.0
C273 C 0.2339 0.91578 0.78322 0.0
C274 C 0.25041 0.94138 0.81652 0.0
C275 C 0.28542 0.95353 0.88324 0.0
C276 C 0.30227 0.93976 0.91697 0.0
C277 C 0.26517 0.92747 0.85122 0.0
C278 C 0.29651 0.89924 0.91929 0.0
C279 C 0.27608 0.87307 0.88772 0.0
H280 H 0.64178 0.51399 0.82728 0.0
H281 H 0.64321 0.4058 0.7655 0.0
H282 H 0.62416 0.42949 0.70102 0.0
H283 H 0.60341 0.48055 0.66227 0.0
H284 H 0.60138 0.58794 0.72643 0.0
H285 H 0.62419 0.5653 0.78876 0.0
C286 C 0.63851 0.49578 0.79957 0.0
C287 C 0.64445 0.45825 0.80132 0.0
C288 C 0.62702 0.50953 0.76262 0.0
C289 C 0.63937 0.43493 0.76512 0.0
C290 C 0.62822 0.44849 0.72817 0.0
C291 C 0.60839 0.4992 0.68974 0.0
C292 C 0.60037 0.5362 0.68895 0.0
C293 C 0.62146 0.48569 0.72646 0.0
C294 C 0.60692 0.55945 0.72543 0.0
C295 C 0.62007 0.54646 0.76147 0.0
H296 H 0.93626 0.72144 0.2562 0.0
H297 H 0.91808 0.63512 0.34772 0.0
H298 H 0.94585 0.59303 0.30118 0.0
H299 H 0.97719 0.58142 0.23487 0.0
H300 H 0.99543 0.66765 0.14314 0.0
H301 H 0.96598 0.70893 0.18891 0.0
C302 C 0.93804 0.69321 0.26578 0.0
C303 C 0.92477 0.68129 0.30541 0.0
C304 C 0.95439 0.66925 0.23874 0.0
C305 C 0.9277 0.64486 0.31745 0.0
C306 C 0.94376 0.62086 0.29079 0.0
C307 C 0.97467 0.60923 0.22476 0.0
C308 C 0.98893 0.62138 0.18534 0.0
C309 C 0.95751 0.63283 0.25143 0.0
C310 C 0.98514 0.65752 0.17308 0.0
C311 C 0.96816 0.68115 0.19938 0.0
H312 H 0.39407 0.22737 0.2175 0.0
H313 H 0.51895 0.31441 0.22705 0.0
H314 H 0.55222 0.2664 0.19743 0.0
H315 H 0.54478 0.19972 0.16685 0.0
H316 H 0.41875 0.11398 0.1601 0.0
H317 H 0.38726 0.1612 0.19246 0.0
C318 C 0.42877 0.23583 0.21423 0.0
C319 C 0.45399 0.27441 0.22511 0.0
C320 C 0.44751 0.20813 0.19798 0.0
C321 C 0.4987 0.28498 0.21885 0.0
C322 C 0.51775 0.25745 0.20218 0.0
C323 C 0.51059 0.19126 0.17321 0.0
C324 C 0.48409 0.15343 0.16098 0.0
C325 C 0.49238 0.21891 0.19146 0.0
C326 C 0.43979 0.14294 0.169 0.0
C327 C 0.42169 0.16996 0.18738 0.0
H328 H 0.17857 0.93023 0.65004 0.0
H329 H 0.04523 0.8628 0.66083 0.0
H330 H 0.02322 0.92177 0.65027 0.0
H331 H 0.04184 0.99061 0.63254 0.0
H332 H 0.1749 0.05797 0.61786 0.0
H333 H 0.19752 1.00112 0.63641 0.0
C334 C 0.14479 0.92882 0.65043 0.0
C335 C 0.11331 0.89274 0.65589 0.0
C336 C 0.13256 0.96266 0.64381 0.0
C337 C 0.06969 0.89059 0.65651 0.0
C338 C 0.05722 0.92417 0.65051 0.0
C339 C 0.07586 0.99309 0.63395 0.0
C340 C 0.10672 1.02825 0.62354 0.0
C341 C 0.08835 0.96014 0.64338 0.0
C342 C 0.15062 1.03112 0.62567 0.0
C343 C 0.16349 0.99859 0.63601 0.0
H344 H 0.79922 0.47756 0.93129 0.0
H345 H 0.75832 0.39378 1.02569 0.0
H346 H 0.82372 0.42567 0.06397 0.0
H347 H 0.89376 0.47804 0.0722 0.0
H348 H 0.93 0.56646 0.98233 0.0
H349 H 0.86555 0.53294 0.94227 0.0
C350 C 0.80392 0.46626 0.9604 0.0
C351 C 0.7732 0.43197 0.97416 0.0
C352 C 0.84135 0.486 0.98382 0.0
C353 C 0.78128 0.41865 1.01244 0.0
C354 C 0.81885 0.43738 1.0351 0.0
C355 C 0.88752 0.49003 0.04391 0.0
C356 C 0.91722 0.52486 1.03051 0.0
C357 C 0.84937 0.471 1.02113 0.0
C358 C 0.90797 0.53993 0.99381 0.0
C359 C 0.87098 0.52062 0.97062 0.0
H360 H 0.75844 0.67991 0.42605 0.0
H361 H 0.84435 0.70163 0.52972 0.0
H362 H 0.78538 0.66651 0.57266 0.0
H363 H 0.70763 0.63569 0.58296 0.0
H364 H 0.62118 0.6114 0.47965 0.0
H365 H 0.68141 0.6408 0.43488 0.0
C366 C 0.76444 0.67598 0.45774 0.0
C367 C 0.80601 0.69381 0.47453 0.0
C368 C 0.72988 0.65573 0.48274 0.0
C369 C 0.81283 0.68854 0.51591 0.0
C370 C 0.77896 0.66858 0.54066 0.0
C371 C 0.70205 0.63635 0.55056 0.0
C372 C 0.65967 0.62172 0.53497 0.0
C373 C 0.73705 0.65309 0.52479 0.0
C374 C 0.65329 0.62253 0.49272 0.0
C375 C 0.68784 0.6395 0.467 0.0
H376 H 0.31822 0.37785 0.19572 0.0
H377 H 0.38953 0.4961 0.23471 0.0
H378 H 0.325 0.51735 0.22566 0.0
H379 H 0.24871 0.50205 0.20528 0.0
H380 H 0.17895 0.38374 0.1633 0.0
H381 H 0.24202 0.36249 0.17598 0.0
C382 C 0.31941 0.40826 0.20214 0.0
C383 C 0.3581 0.43561 0.21548 0.0
C384 C 0.28242 0.42007 0.19673 0.0
C385 C 0.3598 0.47481 0.22413 0.0
C386 C 0.32299 0.48684 0.21904 0.0
C387 C 0.2473 0.47165 0.1987 0.0
C388 C 0.20887 0.44462 0.18337 0.0
C389 C 0.28416 0.45973 0.20508 0.0
C390 C 0.20763 0.40516 0.17578 0.0
C391 C 0.2439 0.39298 0.1826 0.0
H392 H 0.66574 0.31598 1.01205 0.0
H393 H 0.62427 0.2877 0.88715 0.0
H394 H 0.5862 0.22019 0.90462 0.0
H395 H 0.56402 0.16841 0.95553 0.0
H396 H 0.60454 0.19722 0.08048 0.0
H397 H 0.64388 0.26442 0.06274 0.0
C398 C 0.64881 0.29507 0.9884 0.0
C399 C 0.64838 0.30756 0.94804 0.0
C400 C 0.62671 0.25594 0.99874 0.0
C401 C 0.62519 0.27963 0.91842 0.0
C402 C 0.60347 0.24072 0.92841 0.0
C403 C 0.58163 0.18931 0.97889 0.0
C404 C 0.5813 0.17733 1.01944 0.0
C405 C 0.60389 0.22843 0.96848 0.0
C406 C 0.6042 0.20523 0.04912 0.0
C407 C 0.6267 0.24386 1.03894 0.0
H408 H 0.91715 0.86597 0.42317 0.0
H409 H 0.90597 0.80523 0.53544 0.0
H410 H 0.93179 0.8678 0.57357 0.0
H411 H 0.95836 0.94028 0.57591 0.0
H412 H 0.97389 1.00146 0.46389 0.0
H413 H 0.94611 0.93879 0.42536 0.0
C414 C 0.92069 0.86627 0.45592 0.0
C415 C 0.90873 0.83031 0.47607 0.0
C416 C 0.93634 0.90278 0.47805 0.0
C417 C 0.91363 0.83197 0.51876 0.0
C418 C 0.92876 0.86795 0.54079 0.0
C419 C 0.95528 0.94 0.54309 0.0
C420 C 0.9679 0.97588 0.52304 0.0
C421 C 0.94 0.90361 0.52089 0.0
C422 C 0.96436 0.97454 0.48034 0.0
C423 C 0.94849 0.93857 0.45818 0.0
H424 H 0.28096 0.76523 0.74591 0.0
H425 H 0.26564 0.79425 0.62187 0.0
H426 H 0.32328 0.76725 0.60072 0.0
H427 H 0.38233 0.74088 0.61853 0.0
H428 H 0.40046 0.71605 0.7433 0.0
H429 H 0.33827 0.73717 0.76335 0.0
C430 C 0.29023 0.76571 0.71423 0.0
C431 C 0.26916 0.78202 0.68562 0.0
C432 C 0.32442 0.75155 0.70255 0.0
C433 C 0.28092 0.78151 0.64452 0.0
C434 C 0.31425 0.76649 0.63245 0.0
C435 C 0.37231 0.73973 0.65001 0.0
C436 C 0.39601 0.72724 0.67947 0.0
C437 C 0.33682 0.75224 0.66135 0.0
C438 C 0.38303 0.72616 0.72022 0.0
C439 C 0.34738 0.73798 0.73164 0.0
H440 H 0.71089 0.84371 0.82925 0.0
H441 H 0.77018 0.90585 0.9392 0.0
H442 H 0.82106 0.9552 0.89939 0.0
H443 H 0.85255 0.97683 0.83381 0.0
H444 H 0.79698 0.91233 0.72347 0.0
H445 H 0.74016 0.86808 0.7627 0.0
C446 C 0.73439 0.86865 0.84421 0.0
C447 C 0.73698 0.87165 0.8868 0.0
C448 C 0.76434 0.89608 0.82111 0.0
C449 C 0.76777 0.90345 0.90632 0.0
C450 C 0.79689 0.93139 0.88362 0.0
C451 C 0.82808 0.95301 0.81833 0.0
C452 C 0.82936 0.94747 0.7759 0.0
C453 C 0.79623 0.92733 0.84108 0.0
C454 C 0.79671 0.9172 0.75614 0.0
C455 C 0.76435 0.89179 0.77856 0.0
H456 H 0.85336 0.31333 0.32799 0.0
H457 H 0.79415 0.22813 0.41639 0.0
H458 H 0.74128 0.19107 0.3658 0.0
H459 H 0.71734 0.17883 0.29502 0.0
H460 H 0.77667 0.26207 0.20511 0.0
H461 H 0.82366 0.30448 0.25766 0.0
C462 C 0.82826 0.28711 0.33617 0.0
C463 C 0.8278 0.27302 0.37548 0.0
C464 C 0.7984 0.2655 0.30664 0.0
C465 C 0.7953 0.23905 0.38602 0.0
C466 C 0.76516 0.21788 0.35718 0.0
C467 C 0.74034 0.20647 0.2871 0.0
C468 C 0.74426 0.21718 0.24643 0.0
C469 C 0.76733 0.23013 0.31715 0.0
C470 C 0.77339 0.25332 0.23637 0.0
C471 C 0.80032 0.27738 0.26632 0.0
H472 H 0.46012 0.65516 0.34252 0.0
H473 H 0.41408 0.73512 0.4179 0.0
H474 H 0.43096 0.7052 0.47915 0.0
H475 H 0.4632 0.65841 0.51201 0.0
H476 H 0.50865 0.57834 0.43555 0.0
H477 H 0.48774 0.60572 0.37509 0.0
C478 C 0.45289 0.66545 0.37234 0.0
C479 C 0.43507 0.69704 0.37538 0.0
C480 C 0.46318 0.64821 0.40769 0.0
C481 C 0.42697 0.71047 0.41445 0.0
C482 C 0.43701 0.69349 0.44962 0.0
C483 C 0.46823 0.64667 0.48217 0.0
C484 C 0.48784 0.61609 0.479 0.0
C485 C 0.45581 0.66266 0.4468 0.0
C486 C 0.49381 0.60164 0.43961 0.0
C487 C 0.48182 0.61741 0.40467 0.0
H488 H 0.11138 0.44731 0.8982 0.0
H489 H 0.20871 0.54672 0.85276 0.0
H490 H 0.19246 0.58956 0.90702 0.0
H491 H 0.14852 0.59899 0.96666 0.0
H492 H 0.04986 0.49893 1.00994 0.0
H493 H 0.06881 0.45634 0.95798 0.0
C494 C 0.12925 0.47836 0.90038 0.0
C495 C 0.16138 0.49379 0.87155 0.0
C496 C 0.11941 0.50274 0.93151 0.0
C497 C 0.18402 0.53407 0.8746 0.0
C498 C 0.1746 0.55854 0.90565 0.0
C499 C 0.13138 0.5678 0.96494 0.0
C500 C 0.09791 0.55231 0.9928 0.0
C501 C 0.14212 0.5433 0.93422 0.0
C502 C 0.07602 0.51179 0.98961 0.0
C503 C 0.08671 0.48734 0.95959 0.0
H504 H 0.63547 0.89508 0.96292 0.0
H505 H 0.50173 0.82827 0.94886 0.0
H506 H 0.48045 0.88755 0.96556 0.0
H507 H 0.5001 0.95664 0.99007 0.0
H508 H 0.63418 1.02264 1.00723 0.0
H509 H 0.65531 0.96563 0.98261 0.0
C510 C 0.60173 0.89384 0.96303 0.0
C511 C 0.57002 0.85785 0.95487 0.0
C512 C 0.58994 0.92778 0.9732 0.0
C513 C 0.52644 0.85598 0.95513 0.0
C514 C 0.51438 0.88976 0.9647 0.0
C515 C 0.53399 0.95886 0.9877 0.0
C516 C 0.56553 0.99384 1.00068 0.0
C517 C 0.54586 0.92564 0.97458 0.0
C518 C 0.60926 0.99605 0.99759 0.0
C519 C 0.62138 0.96341 0.98369 0.0
H520 H 0.87339 0.20957 0.47791 0.0
H521 H 1.00094 0.29208 0.47384 0.0
H522 H 0.0302 0.24593 0.50849 0.0
H523 H 1.019 0.18241 0.54041 0.0
H524 H 0.89119 0.10021 0.54363 0.0
H525 H 0.86255 0.14575 0.50755 0.0
C526 C 0.90773 0.2173 0.48403 0.0
C527 C 0.93505 0.25408 0.47305 0.0
C528 C 0.92419 0.19064 0.50352 0.0
C529 C 0.97925 0.26405 0.48222 0.0
C530 C 0.99598 0.2376 0.50178 0.0
C531 C 0.98492 0.17441 0.53295 0.0
C532 C 0.95709 0.13815 0.54468 0.0
C533 C 0.96869 0.20086 0.51261 0.0
C534 C 0.9131 0.12803 0.53491 0.0
C535 C 0.89674 0.15406 0.51443 0.0
H536 H 0.31162 0.74541 0.16092 0.0
H537 H 0.28911 0.68575 0.27427 0.0
H538 H 0.2205 0.64297 0.24765 0.0
H539 H 0.16411 0.62366 0.19278 0.0
H540 H 0.18432 0.68933 0.08354 0.0
H541 H 0.25532 0.7287 0.1084 0.0
C542 C 0.29175 0.72374 0.18054 0.0
C543 C 0.30669 0.71965 0.22009 0.0
C544 C 0.25112 0.69998 0.16564 0.0
C545 C 0.27987 0.68987 0.24361 0.0
C546 C 0.24 0.66535 0.22847 0.0
C547 C 0.1842 0.64645 0.17438 0.0
C548 C 0.16862 0.6533 0.13612 0.0
C549 C 0.225 0.6702 0.18957 0.0
C550 C 0.19511 0.68337 0.11305 0.0
C551 C 0.23592 0.70597 0.12727 0.0
H552 H 0.32113 0.42484 0.7095 0.0
H553 H 0.26835 0.52223 0.71441 0.0
H554 H 0.33099 0.56215 0.67761 0.0
H555 H 0.39872 0.56733 0.63846 0.0
H556 H 0.44874 0.46818 0.63345 0.0
H557 H 0.38945 0.43111 0.67515 0.0
C558 C 0.32333 0.45492 0.70279 0.0
C559 C 0.28956 0.47022 0.71455 0.0
C560 C 0.359 0.47734 0.68098 0.0
C561 C 0.29371 0.50957 0.70607 0.0
C562 C 0.32945 0.53232 0.6846 0.0
C563 C 0.39669 0.53776 0.64692 0.0
C564 C 0.42809 0.52043 0.6327 0.0
C565 C 0.36196 0.51627 0.67103 0.0
C566 C 0.42503 0.48209 0.64389 0.0
C567 C 0.39107 0.46086 0.66776 0.0
H568 H 0.77509 0.814 1.0081 0.0
H569 H 0.7061 0.70646 0.94304 0.0
H570 H 0.75998 0.67542 0.96473 0.0
H571 H 0.83218 0.68278 0.99389 0.0
H572 H 0.90141 0.79185 0.05689 0.0
H573 H 0.84206 0.81857 0.04427 0.0
C574 C 0.77142 0.78345 0.99957 0.0
C575 C 0.7371 0.76246 0.97397 0.0
C576 C 0.80298 0.76645 1.01112 0.0
C577 C 0.73228 0.72295 0.96299 0.0
C578 C 0.7633 0.70544 0.97502 0.0
C579 C 0.8338 0.71206 1.00558 0.0
C580 C 0.87145 0.73561 1.02563 0.0
C581 C 0.79963 0.72743 0.99783 0.0
C582 C 0.87318 0.77353 0.04056 0.0
C583 C 0.83921 0.78876 1.03353 0.0
H584 H 0.40602 0.83821 0.15777 0.0
H585 H 0.44662 0.8785 0.28079 0.0
H586 H 0.47752 0.94533 0.25845 0.0
H587 H 0.49487 0.99313 0.20414 0.0
H588 H 0.45605 0.95413 0.08065 0.0
H589 H 0.4226 0.88699 0.10292 0.0
C590 C 0.42133 0.86161 0.17981 0.0
C591 C 0.42402 0.85254 0.22118 0.0
C592 C 0.43953 0.90066 0.16659 0.0
C593 C 0.44445 0.88378 0.24881 0.0
C594 C 0.46206 0.92236 0.23604 0.0
C595 C 0.4789 0.97006 0.182 0.0
C596 C 0.47811 0.97913 0.14059 0.0
C597 C 0.46012 0.93123 0.19502 0.0
C598 C 0.45725 0.94841 0.11263 0.0
C599 C 0.43812 0.90982 0.12543 0.0
H600 H 0.15291 0.30595 0.75397 0.0
H601 H 0.18874 0.36439 0.64122 0.0
H602 H 0.15977 0.30199 0.60311 0.0
H603 H 0.12302 0.23068 0.60104 0.0
H604 H 0.08537 0.17198 0.71334 0.0
H605 H 0.11589 0.23421 0.75184 0.0
C606 C 0.15416 0.30516 0.72105 0.0
C607 C 0.17349 0.34027 0.7008 0.0
C608 C 0.13704 0.26887 0.69898 0.0
C609 C 0.17496 0.33811 0.658 0.0
C610 C 0.15808 0.30231 0.636 0.0
C611 C 0.12167 0.23131 0.63396 0.0
C612 C 0.10184 0.19627 0.65404 0.0
C613 C 0.13905 0.26744 0.65609 0.0
C614 C 0.10036 0.19817 0.69681 0.0
C615 C 0.1178 0.23391 0.71897 0.0
H616 H 0.80578 0.37627 0.43036 0.0
H617 H 0.87765 0.45909 0.52244 0.0
H618 H 0.81363 0.47945 0.53865 0.0
H619 H 0.73678 0.47172 0.52794 0.0
H620 H 0.66536 0.38923 0.43489 0.0
H621 H 0.7296 0.37018 0.41802 0.0
C622 C 0.80743 0.39907 0.45361 0.0
C623 C 0.84603 0.41657 0.47504 0.0
C624 C 0.77057 0.41028 0.4628 0.0
C625 C 0.84804 0.44566 0.50546 0.0
C626 C 0.81151 0.45711 0.51477 0.0
C627 C 0.73538 0.44996 0.50359 0.0
C628 C 0.69625 0.43189 0.48277 0.0
C629 C 0.77252 0.43941 0.49379 0.0
C630 C 0.69487 0.4032 0.45181 0.0
C631 C 0.73165 0.39247 0.44194 0.0
loop_
_geom_bond_atom_site_label_1
_geom_bond_atom_site_label_2
_geom_bond_distance
_geom_bond_site_symmetry_2
_ccdc_geom_bond_type
H0 C3 0.929 . S
H1 C6 0.929 . S
H2 C8 0.930 . S
C3 H0 0.929 . S
C3 C4 1.398 . S
C3 C5 1.396 . S
C4 C3 1.398 . S
C4 C8 1.407 . S
C5 C3 1.396 . S
C5 C6 1.394 . S
C6 H1 0.929 . S
C6 C5 1.394 . S
C6 C7 1.382 . S
C7 C6 1.382 . S
C7 C8 1.392 . S
C7 N9 1.420 . S
C8 H2 0.930 . S
C8 C4 1.407 . S
C8 C7 1.392 . S
N9 C7 1.420 . S
N9 C10 1.244 . S
C10 N9 1.244 . S
H11 C14 0.929 . S
H12 C17 0.929 . S
H13 C19 0.930 . S
C14 H11 0.929 . S
C14 C15 1.398 . S
C14 C16 1.396 . S
C15 C14 1.398 . S
C15 C19 1.407 . S
C16 C14 1.396 . S
C16 C17 1.394 . S
C17 H12 0.929 . S
C17 C16 1.394 . S
C17 C18 1.382 . S
C18 C17 1.382 . S
C18 C19 1.392 . S
C18 N20 1.420 . S
C19 H13 0.930 . S
C19 C15 1.407 . S
C19 C18 1.392 . S
N20 C18 1.420 . S
N20 C21 1.244 . S
C21 N20 1.244 . S
H22 C25 0.929 . S
H23 C28 0.929 . S
H24 C30 0.930 . S
C25 H22 0.929 . S
C25 C26 1.398 . S
C25 C27 1.396 . S
C26 C25 1.398 . S
C26 C30 1.407 . S
C27 C25 1.396 . S
C27 C28 1.394 . S
C28 H23 0.929 . S
C28 C27 1.394 . S
C28 C29 1.382 . S
C29 C28 1.382 . S
C29 C30 1.392 . S
C29 N31 1.420 . S
C30 H24 0.930 . S
C30 C26 1.407 . S
C30 C29 1.392 . S
N31 C29 1.420 . S
N31 C32 1.244 . S
C32 N31 1.244 . S
H33 C36 0.929 . S
H34 C39 0.929 . S
H35 C41 0.930 . S
C36 H33 0.929 . S
C36 C37 1.398 . S
C36 C38 1.396 . S
C37 C36 1.398 . S
C37 C41 1.407 . S
C38 C36 1.396 . S
C38 C39 1.394 . S
C39 H34 0.929 . S
C39 C38 1.394 . S
C39 C40 1.382 . S
C40 C39 1.382 . S
C40 C41 1.392 . S
C40 N42 1.420 . S
C41 H35 0.930 . S
C41 C37 1.407 . S
C41 C40 1.392 . S
N42 C40 1.420 . S
N42 C43 1.244 . S
C43 N42 1.244 . S
H44 C47 0.929 . S
H45 C50 0.929 . S
H46 C52 0.930 . S
C47 H44 0.929 . S
C47 C48 1.398 . S
C47 C49 1.396 . S
C48 C47 1.398 . S
C48 C52 1.407 . S
C49 C47 1.396 . S
C49 C50 1.394 . S
C50 H45 0.929 . S
C50 C49 1.394 . S
C50 C51 1.382 . S
C51 C50 1.382 . S
C51 C52 1.392 . S
C51 N53 1.420 . S
C52 H46 0.930 . S
C52 C48 1.407 . S
C52 C51 1.392 . S
N53 C51 1.420 . S
N53 C54 1.244 . S
C54 N53 1.244 . S
H55 C58 0.929 . S
H56 C61 0.929 . S
H57 C63 0.930 . S
C58 H55 0.929 . S
C58 C59 1.398 . S
C58 C60 1.396 . S
C59 C58 1.398 . S
C59 C63 1.407 . S
C60 C58 1.396 . S
C60 C61 1.394 . S
C61 H56 0.929 . S
C61 C60 1.394 . S
C61 C62 1.382 . S
C62 C61 1.382 . S
C62 C63 1.392 . S
C62 N64 1.420 . S
C63 H57 0.930 . S
C63 C59 1.407 . S
C63 C62 1.392 . S
N64 C62 1.420 . S
N64 C65 1.244 . S
C65 N64 1.244 . S
H66 C69 0.929 . S
H67 C72 0.929 . S
H68 C74 0.930 . S
C69 H66 0.929 . S
C69 C70 1.398 . S
C69 C71 1.396 . S
C70 C69 1.398 . S
C70 C74 1.407 . S
C71 C69 1.396 . S
C71 C72 1.394 . S
C72 H67 0.929 . S
C72 C71 1.394 . S
C72 C73 1.382 . S
C73 C72 1.382 . S
C73 C74 1.392 . S
C73 N75 1.420 . S
C74 H68 0.930 . S
C74 C70 1.407 . S
C74 C73 1.392 . S
N75 C73 1.420 . S
N75 C76 1.244 . S
C76 N75 1.244 . S
H77 C80 0.929 . S
H78 C83 0.929 . S
H79 C85 0.930 . S
C80 H77 0.929 . S
C80 C81 1.398 . S
C80 C82 1.396 . S
C81 C80 1.398 . S
C81 C85 1.407 . S
C82 C80 1.396 . S
C82 C83 1.394 . S
C83 H78 0.929 . S
C83 C82 1.394 . S
C83 C84 1.382 . S
C84 C83 1.382 . S
C84 C85 1.392 . S
C84 N86 1.420 . S
C85 H79 0.930 . S
C85 C81 1.407 . S
C85 C84 1.392 . S
N86 C84 1.420 . S
N86 C87 1.244 . S
C87 N86 1.244 . S
Gd88 C91 2.818 . S
Gd88 O108 2.377 . S
Gd88 O110 2.448 . S
Gd88 O111 2.506 . S
Gd88 O112 2.435 . S
Gd88 O113 2.717 . S
Gd88 O115 2.395 1_445 S
Gd88 O119 2.327 1_455 S
Gd89 C100 2.818 1_545 S
Gd89 O109 2.395 1_655 S
Gd89 O113 2.327 1_655 S
Gd89 O114 2.377 1_545 S
Gd89 O116 2.448 1_545 S
Gd89 O117 2.506 1_545 S
Gd89 O118 2.435 . S
Gd89 O119 2.717 . S
C90 O108 1.240 . S
C90 O109 1.240 . S
C91 Gd88 2.818 . S
C91 C92 1.510 . S
C91 O110 1.249 . S
C91 O111 1.252 . S
C92 C91 1.510 . S
C92 C93 1.404 . S
C92 C94 1.352 . S
C93 C92 1.404 . S
C93 C97 1.389 . S
C93 H120 0.930 . S
C94 C92 1.352 . S
C94 C96 1.374 . S
C94 H121 0.931 . S
C95 C96 1.359 . S
C95 C97 1.364 . S
C96 C94 1.374 . S
C96 C95 1.359 . S
C96 H122 0.931 . S
C97 C93 1.389 . S
C97 C95 1.364 . S
C97 H123 0.931 . S
C98 O112 1.256 1_565 S
C98 O113 1.257 1_565 S
C99 O114 1.240 . S
C99 O115 1.240 . S
C100 Gd89 2.818 1_565 S
C100 C101 1.510 . S
C100 O116 1.249 . S
C100 O117 1.252 . S
C101 C100 1.510 . S
C101 C102 1.404 . S
C101 C103 1.352 . S
C102 C101 1.404 . S
C102 C106 1.389 . S
C102 H124 0.930 . S
C103 C101 1.352 . S
C103 C105 1.374 . S
C103 H125 0.931 . S
C104 C105 1.359 . S
C104 C106 1.364 . S
C105 C103 1.374 . S
C105 C104 1.359 . S
C105 H126 0.931 . S
C106 C102 1.389 . S
C106 C104 1.364 . S
C106 H127 0.931 . S
C107 O118 1.256 . S
C107 O119 1.257 . S
O108 Gd88 2.377 . S
O108 C90 1.240 . S
O109 Gd89 2.395 1_455 S
O109 C90 1.240 . S
O110 Gd88 2.448 . S
O110 C91 1.249 . S
O111 Gd88 2.506 . S
O111 C91 1.252 . S
O112 Gd88 2.435 . S
O112 C98 1.256 1_545 S
O113 Gd88 2.717 . S
O113 Gd89 2.327 1_455 S
O113 C98 1.257 1_545 S
O114 Gd89 2.377 1_565 S
O114 C99 1.240 . S
O115 Gd88 2.395 1_665 S
O115 C99 1.240 . S
O116 Gd89 2.448 1_565 S
O116 C100 1.249 . S
O117 Gd89 2.506 1_565 S
O117 C100 1.252 . S
O118 Gd89 2.435 . S
O118 C107 1.256 . S
O119 Gd88 2.327 1_655 S
O119 Gd89 2.717 . S
O119 C107 1.257 . S
H120 C93 0.930 . S
H121 C94 0.931 . S
H122 C96 0.931 . S
H123 C97 0.931 . S
H124 C102 0.930 . S
H125 C103 0.931 . S
H126 C105 0.931 . S
H127 C106 0.931 . S
Gd128 C131 2.818 . S
Gd128 O148 2.377 . S
Gd128 O150 2.448 . S
Gd128 O151 2.506 . S
Gd128 O152 2.435 1_545 S
Gd128 O153 2.717 1_545 S
Gd128 O155 2.395 1_545 S
Gd128 O159 2.327 . S
Gd129 C140 2.818 1_544 S
Gd129 O149 2.395 . S
Gd129 O153 2.327 1_545 S
Gd129 O154 2.377 1_544 S
Gd129 O156 2.448 1_554 S
Gd129 O157 2.506 1_544 S
Gd129 O158 2.435 1_554 S
Gd129 O159 2.717 . S
C130 O148 1.240 . S
C130 O149 1.240 . S
C131 Gd128 2.818 . S
C131 C132 1.510 . S
C131 O150 1.249 . S
C131 O151 1.252 . S
C132 C131 1.510 . S
C132 C133 1.404 . S
C132 C134 1.352 . S
C133 C132 1.404 . S
C133 C137 1.389 . S
C133 H160 0.930 . S
C134 C132 1.352 . S
C134 C136 1.374 . S
C134 H161 0.931 . S
C135 C136 1.359 . S
C135 C137 1.364 . S
C136 C134 1.374 . S
C136 C135 1.359 . S
C136 H162 0.931 . S
C137 C133 1.389 . S
C137 C135 1.364 . S
C137 H163 0.931 . S
C138 O152 1.256 . S
C138 O153 1.257 . S
C139 O154 1.240 1_554 S
C139 O155 1.240 . S
C140 Gd129 2.818 1_566 S
C140 C141 1.510 . S
C140 O156 1.249 1_565 S
C140 O157 1.252 . S
C141 C140 1.510 . S
C141 C142 1.404 . S
C141 C143 1.352 . S
C142 C141 1.404 . S
C142 C146 1.389 . S
C142 H164 0.930 . S
C143 C141 1.352 . S
C143 C145 1.374 . S
C143 H165 0.931 . S
C144 C145 1.359 . S
C144 C146 1.364 . S
C145 C143 1.374 . S
C145 C144 1.359 . S
C145 H166 0.931 . S
C146 C142 1.389 . S
C146 C144 1.364 . S
C146 H167 0.931 . S
C147 O158 1.256 1_554 S
C147 O159 1.257 . S
O148 Gd128 2.377 . S
O148 C130 1.240 . S
O149 Gd129 2.395 . S
O149 C130 1.240 . S
O150 Gd128 2.448 . S
O150 C131 1.249 . S
O151 Gd128 2.506 . S
O151 C131 1.252 . S
O152 Gd128 2.435 1_565 S
O152 C138 1.256 . S
O153 Gd128 2.717 1_565 S
O153 Gd129 2.327 1_565 S
O153 C138 1.257 . S
O154 Gd129 2.377 1_566 S
O154 C139 1.240 1_556 S
O155 Gd128 2.395 1_565 S
O155 C139 1.240 . S
O156 Gd129 2.448 1_556 S
O156 C140 1.249 1_545 S
O157 Gd129 2.506 1_566 S
O157 C140 1.252 . S
O158 Gd129 2.435 1_556 S
O158 C147 1.256 1_556 S
O159 Gd128 2.327 . S
O159 Gd129 2.717 . S
O159 C147 1.257 . S
H160 C133 0.930 . S
H161 C134 0.931 . S
H162 C136 0.931 . S
H163 C137 0.931 . S
H164 C142 0.930 . S
H165 C143 0.931 . S
H166 C145 0.931 . S
H167 C146 0.931 . S
Gd168 C171 2.818 . S
Gd168 O188 2.377 . S
Gd168 O190 2.448 . S
Gd168 O191 2.506 . S
Gd168 O192 2.435 . S
Gd168 O193 2.717 . S
Gd168 O195 2.395 . S
Gd168 O199 2.327 . S
Gd169 C180 2.818 . S
Gd169 O189 2.395 . S
Gd169 O193 2.327 . S
Gd169 O194 2.377 . S
Gd169 O196 2.448 . S
Gd169 O197 2.506 . S
Gd169 O198 2.435 . S
Gd169 O199 2.717 . S
C170 O188 1.240 . S
C170 O189 1.240 . S
C171 Gd168 2.818 . S
C171 C172 1.510 . S
C171 O190 1.249 . S
C171 O191 1.252 . S
C172 C171 1.510 . S
C172 C173 1.404 . S
C172 C174 1.352 . S
C173 C172 1.404 . S
C173 C177 1.389 . S
C173 H200 0.930 . S
C174 C172 1.352 . S
C174 C176 1.374 . S
C174 H201 0.931 . S
C175 C176 1.359 . S
C175 C177 1.364 . S
C176 C174 1.374 . S
C176 C175 1.359 . S
C176 H202 0.931 . S
C177 C173 1.389 . S
C177 C175 1.364 . S
C177 H203 0.931 . S
C178 O192 1.256 . S
C178 O193 1.257 . S
C179 O194 1.240 . S
C179 O195 1.240 . S
C180 Gd169 2.818 . S
C180 C181 1.510 . S
C180 O196 1.249 . S
C180 O197 1.252 . S
C181 C180 1.510 . S
C181 C182 1.404 . S
C181 C183 1.352 . S
C182 C181 1.404 . S
C182 C186 1.389 . S
C182 H204 0.930 . S
C183 C181 1.352 . S
C183 C185 1.374 . S
C183 H205 0.931 . S
C184 C185 1.359 . S
C184 C186 1.364 . S
C185 C183 1.374 . S
C185 C184 1.359 . S
C185 H206 0.931 . S
C186 C182 1.389 . S
C186 C184 1.364 . S
C186 H207 0.931 . S
C187 O198 1.256 . S
C187 O199 1.257 . S
O188 Gd168 2.377 . S
O188 C170 1.240 . S
O189 Gd169 2.395 . S
O189 C170 1.240 . S
O190 Gd168 2.448 . S
O190 C171 1.249 . S
O191 Gd168 2.506 . S
O191 C171 1.252 . S
O192 Gd168 2.435 . S
O192 C178 1.256 . S
O193 Gd168 2.717 . S
O193 Gd169 2.327 . S
O193 C178 1.257 . S
O194 Gd169 2.377 . S
O194 C179 1.240 . S
O195 Gd168 2.395 . S
O195 C179 1.240 . S
O196 Gd169 2.448 . S
O196 C180 1.249 . S
O197 Gd169 2.506 . S
O197 C180 1.252 . S
O198 Gd169 2.435 . S
O198 C187 1.256 . S
O199 Gd168 2.327 . S
O199 Gd169 2.717 . S
O199 C187 1.257 . S
H200 C173 0.930 . S
H201 C174 0.931 . S
H202 C176 0.931 . S
H203 C177 0.931 . S
H204 C182 0.930 . S
H205 C183 0.931 . S
H206 C185 0.931 . S
H207 C186 0.931 . S
Gd208 C211 2.818 . S
Gd208 O228 2.377 . S
Gd208 O230 2.448 . S
Gd208 O231 2.506 . S
Gd208 O232 2.441 . S
Gd208 O233 2.717 . S
Gd208 O235 2.395 1_455 S
Gd208 O239 2.327 1_554 S
Gd209 C220 2.818 1_455 S
Gd209 O229 2.395 1_556 S
Gd209 O233 2.327 1_556 S
Gd209 O234 2.377 1_455 S
Gd209 O236 2.448 1_455 S
Gd209 O237 2.506 1_455 S
Gd209 O238 2.435 . S
Gd209 O239 2.717 . S
C210 O228 1.240 . S
C210 O229 1.240 . S
C211 Gd208 2.818 . S
C211 C212 1.510 . S
C211 O230 1.249 . S
C211 O231 1.252 . S
C212 C211 1.510 . S
C212 C213 1.404 . S
C212 C214 1.352 . S
C213 C212 1.404 . S
C213 C217 1.389 . S
C213 H240 0.930 . S
C214 C212 1.352 . S
C214 C216 1.374 . S
C214 H241 0.931 . S
C215 C216 1.359 . S
C215 C217 1.364 . S
C216 C214 1.374 . S
C216 C215 1.359 . S
C216 H242 0.931 . S
C217 C213 1.389 . S
C217 C215 1.364 . S
C217 H243 0.931 . S
C218 O232 1.251 1_655 S
C218 O233 1.257 1_655 S
C219 O234 1.240 . S
C219 O235 1.240 1_556 S
C220 Gd209 2.818 1_655 S
C220 C221 1.510 . S
C220 O236 1.249 . S
C220 O237 1.252 . S
C221 C220 1.510 . S
C221 C222 1.404 . S
C221 C223 1.352 . S
C222 C221 1.404 . S
C222 C226 1.389 . S
C222 H244 0.930 . S
C223 C221 1.352 . S
C223 C225 1.374 . S
C223 H245 0.931 . S
C224 C225 1.359 . S
C224 C226 1.364 . S
C225 C223 1.374 . S
C225 C224 1.359 . S
C225 H246 0.931 . S
C226 C222 1.389 . S
C226 C224 1.364 . S
C226 H247 0.931 . S
C227 O238 1.256 . S
C227 O239 1.257 . S
O228 Gd208 2.377 . S
O228 C210 1.240 . S
O229 Gd209 2.395 1_554 S
O229 C210 1.240 . S
O230 Gd208 2.448 . S
O230 C211 1.249 . S
O231 Gd208 2.506 . S
O231 C211 1.252 . S
O232 Gd208 2.441 . S
O232 C218 1.251 1_455 S
O233 Gd208 2.717 . S
O233 Gd209 2.327 1_554 S
O233 C218 1.257 1_455 S
O234 Gd209 2.377 1_655 S
O234 C219 1.240 . S
O235 Gd208 2.395 1_655 S
O235 C219 1.240 1_554 S
O236 Gd209 2.448 1_655 S
O236 C220 1.249 . S
O237 Gd209 2.506 1_655 S
O237 C220 1.252 . S
O238 Gd209 2.435 . S
O238 C227 1.256 . S
O239 Gd208 2.327 1_556 S
O239 Gd209 2.717 . S
O239 C227 1.257 . S
H240 C213 0.930 . S
H241 C214 0.931 . S
H242 C216 0.931 . S
H243 C217 0.931 . S
H244 C222 0.930 . S
H245 C223 0.931 . S
H246 C225 0.931 . S
H247 C226 0.931 . S
H248 C254 0.930 . S
H249 C257 0.930 . S
H250 C258 0.930 . S
H251 C259 0.930 . S
H252 C262 0.930 . S
H253 C263 0.930 . S
C254 H248 0.930 . S
C254 C255 1.355 . S
C254 C256 1.415 . S
C255 C254 1.355 . S
C255 C257 1.419 . S
C256 C254 1.415 . S
C256 C261 1.425 . S
C256 C263 1.409 . S
C257 H249 0.930 . S
C257 C255 1.419 . S
C257 C258 1.362 . S
C258 H250 0.930 . S
C258 C257 1.362 . S
C258 C261 1.409 . S
C259 H251 0.930 . S
C259 C260 1.355 . S
C259 C261 1.415 . S
C260 C259 1.355 . S
C260 C262 1.419 . S
C261 C256 1.425 . S
C261 C258 1.409 . S
C261 C259 1.415 . S
C262 H252 0.930 . S
C262 C260 1.419 . S
C262 C263 1.362 . S
C263 H253 0.930 . S
C263 C256 1.409 . S
C263 C262 1.362 . S
H264 C270 0.930 . S
H265 C273 0.930 . S
H266 C274 0.930 . S
H267 C275 0.930 . S
H268 C278 0.930 . S
H269 C279 0.930 . S
C270 H264 0.930 . S
C270 C271 1.355 . S
C270 C272 1.415 . S
C271 C270 1.355 . S
C271 C273 1.419 . S
C272 C270 1.415 . S
C272 C277 1.425 . S
C272 C279 1.409 . S
C273 H265 0.930 . S
C273 C271 1.419 . S
C273 C274 1.362 . S
C274 H266 0.930 . S
C274 C273 1.362 . S
C274 C277 1.409 . S
C275 H267 0.930 . S
C275 C276 1.355 . S
C275 C277 1.415 . S
C276 C275 1.355 . S
C276 C278 1.419 . S
C277 C272 1.425 . S
C277 C274 1.409 . S
C277 C275 1.415 . S
C278 H268 0.930 . S
C278 C276 1.419 . S
C278 C279 1.362 . S
C279 H269 0.930 . S
C279 C272 1.409 . S
C279 C278 1.362 . S
H280 C286 0.930 . S
H281 C289 0.930 . S
H282 C290 0.930 . S
H283 C291 0.930 . S
H284 C294 0.930 . S
H285 C295 0.930 . S
C286 H280 0.930 . S
C286 C287 1.355 . S
C286 C288 1.415 . S
C287 C286 1.355 . S
C287 C289 1.419 . S
C288 C286 1.415 . S
C288 C293 1.425 . S
C288 C295 1.409 . S
C289 H281 0.930 . S
C289 C287 1.419 . S
C289 C290 1.362 . S
C290 H282 0.930 . S
C290 C289 1.362 . S
C290 C293 1.409 . S
C291 H283 0.930 . S
C291 C292 1.355 . S
C291 C293 1.415 . S
C292 C291 1.355 . S
C292 C294 1.419 . S
C293 C288 1.425 . S
C293 C290 1.409 . S
C293 C291 1.415 . S
C294 H284 0.930 . S
C294 C292 1.419 . S
C294 C295 1.362 . S
C295 H285 0.930 . S
C295 C288 1.409 . S
C295 C294 1.362 . S
H296 C302 0.930 . S
H297 C305 0.930 . S
H298 C306 0.930 . S
H299 C307 0.930 . S
H300 C310 0.930 . S
H301 C311 0.930 . S
C302 H296 0.930 . S
C302 C303 1.355 . S
C302 C304 1.415 . S
C303 C302 1.355 . S
C303 C305 1.419 . S
C304 C302 1.415 . S
C304 C309 1.425 . S
C304 C311 1.409 . S
C305 H297 0.930 . S
C305 C303 1.419 . S
C305 C306 1.362 . S
C306 H298 0.930 . S
C306 C305 1.362 . S
C306 C309 1.409 . S
C307 H299 0.930 . S
C307 C308 1.355 . S
C307 C309 1.415 . S
C308 C307 1.355 . S
C308 C310 1.419 . S
C309 C304 1.425 . S
C309 C306 1.409 . S
C309 C307 1.415 . S
C310 H300 0.930 . S
C310 C308 1.419 . S
C310 C311 1.362 . S
C311 H301 0.930 . S
C311 C304 1.409 . S
C311 C310 1.362 . S
H312 C318 0.930 . S
H313 C321 0.930 . S
H314 C322 0.930 . S
H315 C323 0.930 . S
H316 C326 0.930 . S
H317 C327 0.930 . S
C318 H312 0.930 . S
C318 C319 1.355 . S
C318 C320 1.415 . S
C319 C318 1.355 . S
C319 C321 1.419 . S
C320 C318 1.415 . S
C320 C325 1.425 . S
C320 C327 1.409 . S
C321 H313 0.930 . S
C321 C319 1.419 . S
C321 C322 1.362 . S
C322 H314 0.930 . S
C322 C321 1.362 . S
C322 C325 1.409 . S
C323 H315 0.930 . S
C323 C324 1.355 . S
C323 C325 1.415 . S
C324 C323 1.355 . S
C324 C326 1.419 . S
C325 C320 1.425 . S
C325 C322 1.409 . S
C325 C323 1.415 . S
C326 H316 0.930 . S
C326 C324 1.419 . S
C326 C327 1.362 . S
C327 H317 0.930 . S
C327 C320 1.409 . S
C327 C326 1.362 . S
H328 C334 0.930 . S
H329 C337 0.930 . S
H330 C338 0.930 . S
H331 C339 0.930 . S
H332 C342 0.930 . S
H333 C343 0.930 . S
C334 H328 0.930 . S
C334 C335 1.355 . S
C334 C336 1.415 . S
C335 C334 1.355 . S
C335 C337 1.419 . S
C336 C334 1.415 . S
C336 C341 1.425 . S
C336 C343 1.409 . S
C337 H329 0.930 . S
C337 C335 1.419 . S
C337 C338 1.362 . S
C338 H330 0.930 . S
C338 C337 1.362 . S
C338 C341 1.409 . S
C339 H331 0.930 . S
C339 C340 1.355 . S
C339 C341 1.415 . S
C340 C339 1.355 . S
C340 C342 1.419 1_565 S
C341 C336 1.425 . S
C341 C338 1.409 . S
C341 C339 1.415 . S
C342 H332 0.930 . S
C342 C340 1.419 1_545 S
C342 C343 1.362 1_545 S
C343 H333 0.930 . S
C343 C336 1.409 . S
C343 C342 1.362 1_565 S
H344 C350 0.930 . S
H345 C353 0.930 . S
H346 C354 0.930 . S
H347 C355 0.930 1_554 S
H348 C358 0.930 . S
H349 C359 0.930 . S
C350 H344 0.930 . S
C350 C351 1.355 . S
C350 C352 1.415 . S
C351 C350 1.355 . S
C351 C353 1.419 . S
C352 C350 1.415 . S
C352 C357 1.425 . S
C352 C359 1.409 . S
C353 H345 0.930 . S
C353 C351 1.419 . S
C353 C354 1.362 . S
C354 H346 0.930 . S
C354 C353 1.362 . S
C354 C357 1.409 . S
C355 H347 0.930 1_556 S
C355 C356 1.355 . S
C355 C357 1.415 . S
C356 C355 1.355 . S
C356 C358 1.419 . S
C357 C352 1.425 . S
C357 C354 1.409 . S
C357 C355 1.415 . S
C358 H348 0.930 . S
C358 C356 1.419 . S
C358 C359 1.362 . S
C359 H349 0.930 . S
C359 C352 1.409 . S
C359 C358 1.362 . S
H360 C366 0.930 . S
H361 C369 0.930 . S
H362 C370 0.930 . S
H363 C371 0.930 . S
H364 C374 0.930 . S
H365 C375 0.930 . S
C366 H360 0.930 . S
C366 C367 1.355 . S
C366 C368 1.415 . S
C367 C366 1.355 . S
C367 C369 1.419 . S
C368 C366 1.415 . S
C368 C373 1.425 . S
C368 C375 1.409 . S
C369 H361 0.930 . S
C369 C367 1.419 . S
C369 C370 1.362 . S
C370 H362 0.930 . S
C370 C369 1.362 . S
C370 C373 1.409 . S
C371 H363 0.930 . S
C371 C372 1.355 . S
C371 C373 1.415 . S
C372 C371 1.355 . S
C372 C374 1.419 . S
C373 C368 1.425 . S
C373 C370 1.409 . S
C373 C371 1.415 . S
C374 H364 0.930 . S
C374 C372 1.419 . S
C374 C375 1.362 . S
C375 H365 0.930 . S
C375 C368 1.409 . S
C375 C374 1.362 . S
H376 C382 0.930 . S
H377 C385 0.930 . S
H378 C386 0.930 . S
H379 C387 0.930 . S
H380 C390 0.930 . S
H381 C391 0.930 . S
C382 H376 0.930 . S
C382 C383 1.355 . S
C382 C384 1.415 . S
C383 C382 1.355 . S
C383 C385 1.419 . S
C384 C382 1.415 . S
C384 C389 1.425 . S
C384 C391 1.409 . S
C385 H377 0.930 . S
C385 C383 1.419 . S
C385 C386 1.362 . S
C386 H378 0.930 . S
C386 C385 1.362 . S
C386 C389 1.409 . S
C387 H379 0.930 . S
C387 C388 1.355 . S
C387 C389 1.415 . S
C388 C387 1.355 . S
C388 C390 1.419 . S
C389 C384 1.425 . S
C389 C386 1.409 . S
C389 C387 1.415 . S
C390 H380 0.930 . S
C390 C388 1.419 . S
C390 C391 1.362 . S
C391 H381 0.930 . S
C391 C384 1.409 . S
C391 C390 1.362 . S
H392 C398 0.930 . S
H393 C401 0.930 . S
H394 C402 0.930 . S
H395 C403 0.930 1_554 S
H396 C406 0.930 . S
H397 C407 0.930 . S
C398 H392 0.930 . S
C398 C399 1.355 . S
C398 C400 1.415 . S
C399 C398 1.355 . S
C399 C401 1.419 . S
C400 C398 1.415 . S
C400 C405 1.425 . S
C400 C407 1.409 . S
C401 H393 0.930 . S
C401 C399 1.419 . S
C401 C402 1.362 . S
C402 H394 0.930 . S
C402 C401 1.362 . S
C402 C405 1.409 . S
C403 H395 0.930 1_556 S
C403 C404 1.355 . S
C403 C405 1.415 . S
C404 C403 1.355 . S
C404 C406 1.419 . S
C405 C400 1.425 . S
C405 C402 1.409 . S
C405 C403 1.415 . S
C406 H396 0.930 . S
C406 C404 1.419 . S
C406 C407 1.362 . S
C407 H397 0.930 . S
C407 C400 1.409 . S
C407 C406 1.362 . S
H408 C414 0.930 . S
H409 C417 0.930 . S
H410 C418 0.930 . S
H411 C419 0.930 . S
H412 C422 0.930 . S
H413 C423 0.930 . S
C414 H408 0.930 . S
C414 C415 1.355 . S
C414 C416 1.415 . S
C415 C414 1.355 . S
C415 C417 1.419 . S
C416 C414 1.415 . S
C416 C421 1.425 . S
C416 C423 1.409 . S
C417 H409 0.930 . S
C417 C415 1.419 . S
C417 C418 1.362 . S
C418 H410 0.930 . S
C418 C417 1.362 . S
C418 C421 1.409 . S
C419 H411 0.930 . S
C419 C420 1.355 . S
C419 C421 1.415 . S
C420 C419 1.355 . S
C420 C422 1.419 . S
C421 C416 1.425 . S
C421 C418 1.409 . S
C421 C419 1.415 . S
C422 H412 0.930 . S
C422 C420 1.419 . S
C422 C423 1.362 . S
C423 H413 0.930 . S
C423 C416 1.409 . S
C423 C422 1.362 . S
H424 C430 0.930 . S
H425 C433 0.930 . S
H426 C434 0.930 . S
H427 C435 0.930 . S
H428 C438 0.930 . S
H429 C439 0.930 . S
C430 H424 0.930 . S
C430 C431 1.355 . S
C430 C432 1.415 . S
C431 C430 1.355 . S
C431 C433 1.419 . S
C432 C430 1.415 . S
C432 C437 1.425 . S
C432 C439 1.409 . S
C433 H425 0.930 . S
C433 C431 1.419 . S
C433 C434 1.362 . S
C434 H426 0.930 . S
C434 C433 1.362 . S
C434 C437 1.409 . S
C435 H427 0.930 . S
C435 C436 1.355 . S
C435 C437 1.415 . S
C436 C435 1.355 . S
C436 C438 1.419 . S
C437 C432 1.425 . S
C437 C434 1.409 . S
C437 C435 1.415 . S
C438 H428 0.930 . S
C438 C436 1.419 . S
C438 C439 1.362 . S
C439 H429 0.930 . S
C439 C432 1.409 . S
C439 C438 1.362 . S
H440 C446 0.930 . S
H441 C449 0.930 . S
H442 C450 0.930 . S
H443 C451 0.930 . S
H444 C454 0.930 . S
H445 C455 0.930 . S
C446 H440 0.930 . S
C446 C447 1.355 . S
C446 C448 1.415 . S
C447 C446 1.355 . S
C447 C449 1.419 . S
C448 C446 1.415 . S
C448 C453 1.425 . S
C448 C455 1.409 . S
C449 H441 0.930 . S
C449 C447 1.419 . S
C449 C450 1.362 . S
C450 H442 0.930 . S
C450 C449 1.362 . S
C450 C453 1.409 . S
C451 H443 0.930 . S
C451 C452 1.355 . S
C451 C453 1.415 . S
C452 C451 1.355 . S
C452 C454 1.419 . S
C453 C448 1.425 . S
C453 C450 1.409 . S
C453 C451 1.415 . S
C454 H444 0.930 . S
C454 C452 1.419 . S
C454 C455 1.362 . S
C455 H445 0.930 . S
C455 C448 1.409 . S
C455 C454 1.362 . S
H456 C462 0.930 . S
H457 C465 0.930 . S
H458 C466 0.930 . S
H459 C467 0.930 . S
H460 C470 0.930 . S
H461 C471 0.930 . S
C462 H456 0.930 . S
C462 C463 1.355 . S
C462 C464 1.415 . S
C463 C462 1.355 . S
C463 C465 1.419 . S
C464 C462 1.415 . S
C464 C469 1.425 . S
C464 C471 1.409 . S
C465 H457 0.930 . S
C465 C463 1.419 . S
C465 C466 1.362 . S
C466 H458 0.930 . S
C466 C465 1.362 . S
C466 C469 1.409 . S
C467 H459 0.930 . S
C467 C468 1.355 . S
C467 C469 1.415 . S
C468 C467 1.355 . S
C468 C470 1.419 . S
C469 C464 1.425 . S
C469 C466 1.409 . S
C469 C467 1.415 . S
C470 H460 0.930 . S
C470 C468 1.419 . S
C470 C471 1.362 . S
C471 H461 0.930 . S
C471 C464 1.409 . S
C471 C470 1.362 . S
H472 C478 0.930 . S
H473 C481 0.930 . S
H474 C482 0.930 . S
H475 C483 0.930 . S
H476 C486 0.930 . S
H477 C487 0.930 . S
C478 H472 0.930 . S
C478 C479 1.355 . S
C478 C480 1.415 . S
C479 C478 1.355 . S
C479 C481 1.419 . S
C480 C478 1.415 . S
C480 C485 1.425 . S
C480 C487 1.409 . S
C481 H473 0.930 . S
C481 C479 1.419 . S
C481 C482 1.362 . S
C482 H474 0.930 . S
C482 C481 1.362 . S
C482 C485 1.409 . S
C483 H475 0.930 . S
C483 C484 1.355 . S
C483 C485 1.415 . S
C484 C483 1.355 . S
C484 C486 1.419 . S
C485 C480 1.425 . S
C485 C482 1.409 . S
C485 C483 1.415 . S
C486 H476 0.930 . S
C486 C484 1.419 . S
C486 C487 1.362 . S
C487 H477 0.930 . S
C487 C480 1.409 . S
C487 C486 1.362 . S
H488 C494 0.930 . S
H489 C497 0.930 . S
H490 C498 0.930 . S
H491 C499 0.930 . S
H492 C502 0.930 . S
H493 C503 0.930 . S
C494 H488 0.930 . S
C494 C495 1.355 . S
C494 C496 1.415 . S
C495 C494 1.355 . S
C495 C497 1.419 . S
C496 C494 1.415 . S
C496 C501 1.425 . S
C496 C503 1.409 . S
C497 H489 0.930 . S
C497 C495 1.419 . S
C497 C498 1.362 . S
C498 H490 0.930 . S
C498 C497 1.362 . S
C498 C501 1.409 . S
C499 H491 0.930 . S
C499 C500 1.355 . S
C499 C501 1.415 . S
C500 C499 1.355 . S
C500 C502 1.419 . S
C501 C496 1.425 . S
C501 C498 1.409 . S
C501 C499 1.415 . S
C502 H492 0.930 . S
C502 C500 1.419 . S
C502 C503 1.362 . S
C503 H493 0.930 . S
C503 C496 1.409 . S
C503 C502 1.362 . S
H504 C510 0.930 . S
H505 C513 0.930 . S
H506 C514 0.930 . S
H507 C515 0.930 . S
H508 C518 0.930 . S
H509 C519 0.930 . S
C510 H504 0.930 . S
C510 C511 1.355 . S
C510 C512 1.415 . S
C511 C510 1.355 . S
C511 C513 1.419 . S
C512 C510 1.415 . S
C512 C517 1.425 . S
C512 C519 1.409 . S
C513 H505 0.930 . S
C513 C511 1.419 . S
C513 C514 1.362 . S
C514 H506 0.930 . S
C514 C513 1.362 . S
C514 C517 1.409 . S
C515 H507 0.930 . S
C515 C516 1.355 . S
C515 C517 1.415 . S
C516 C515 1.355 . S
C516 C518 1.419 . S
C517 C512 1.425 . S
C517 C514 1.409 . S
C517 C515 1.415 . S
C518 H508 0.930 . S
C518 C516 1.419 . S
C518 C519 1.362 . S
C519 H509 0.930 . S
C519 C512 1.409 . S
C519 C518 1.362 . S
H520 C526 0.930 . S
H521 C529 0.930 . S
H522 C530 0.930 . S
H523 C531 0.930 . S
H524 C534 0.930 . S
H525 C535 0.930 . S
C526 H520 0.930 . S
C526 C527 1.355 . S
C526 C528 1.415 . S
C527 C526 1.355 . S
C527 C529 1.419 . S
C528 C526 1.415 . S
C528 C533 1.425 . S
C528 C535 1.409 . S
C529 H521 0.930 . S
C529 C527 1.419 . S
C529 C530 1.362 . S
C530 H522 0.930 . S
C530 C529 1.362 . S
C530 C533 1.409 . S
C531 H523 0.930 . S
C531 C532 1.355 . S
C531 C533 1.415 . S
C532 C531 1.355 . S
C532 C534 1.419 . S
C533 C528 1.425 . S
C533 C530 1.409 . S
C533 C531 1.415 . S
C534 H524 0.930 . S
C534 C532 1.419 . S
C534 C535 1.362 . S
C535 H525 0.930 . S
C535 C528 1.409 . S
C535 C534 1.362 . S
H536 C542 0.930 . S
H537 C545 0.930 . S
H538 C546 0.930 . S
H539 C547 0.930 . S
H540 C550 0.930 . S
H541 C551 0.930 . S
C542 H536 0.930 . S
C542 C543 1.355 . S
C542 C544 1.415 . S
C543 C542 1.355 . S
C543 C545 1.419 . S
C544 C542 1.415 . S
C544 C549 1.425 . S
C544 C551 1.409 . S
C545 H537 0.930 . S
C545 C543 1.419 . S
C545 C546 1.362 . S
C546 H538 0.930 . S
C546 C545 1.362 . S
C546 C549 1.409 . S
C547 H539 0.930 . S
C547 C548 1.355 . S
C547 C549 1.415 . S
C548 C547 1.355 . S
C548 C550 1.419 . S
C549 C544 1.425 . S
C549 C546 1.409 . S
C549 C547 1.415 . S
C550 H540 0.930 . S
C550 C548 1.419 . S
C550 C551 1.362 . S
C551 H541 0.930 . S
C551 C544 1.409 . S
C551 C550 1.362 . S
H552 C558 0.930 . S
H553 C561 0.930 . S
H554 C562 0.930 . S
H555 C563 0.930 . S
H556 C566 0.930 . S
H557 C567 0.930 . S
C558 H552 0.930 . S
C558 C559 1.355 . S
C558 C560 1.415 . S
C559 C558 1.355 . S
C559 C561 1.419 . S
C560 C558 1.415 . S
C560 C565 1.425 . S
C560 C567 1.409 . S
C561 H553 0.930 . S
C561 C559 1.419 . S
C561 C562 1.362 . S
C562 H554 0.930 . S
C562 C561 1.362 . S
C562 C565 1.409 . S
C563 H555 0.930 . S
C563 C564 1.355 . S
C563 C565 1.415 . S
C564 C563 1.355 . S
C564 C566 1.419 . S
C565 C560 1.425 . S
C565 C562 1.409 . S
C565 C563 1.415 . S
C566 H556 0.930 . S
C566 C564 1.419 . S
C566 C567 1.362 . S
C567 H557 0.930 . S
C567 C560 1.409 . S
C567 C566 1.362 . S
H568 C574 0.930 . S
H569 C577 0.930 . S
H570 C578 0.930 . S
H571 C579 0.930 . S
H572 C582 0.930 . S
H573 C583 0.930 . S
C574 H568 0.930 . S
C574 C575 1.355 . S
C574 C576 1.415 . S
C575 C574 1.355 . S
C575 C577 1.419 . S
C576 C574 1.415 . S
C576 C581 1.425 . S
C576 C583 1.409 . S
C577 H569 0.930 . S
C577 C575 1.419 . S
C577 C578 1.362 . S
C578 H570 0.930 . S
C578 C577 1.362 . S
C578 C581 1.409 . S
C579 H571 0.930 . S
C579 C580 1.355 . S
C579 C581 1.415 . S
C580 C579 1.355 . S
C580 C582 1.419 . S
C581 C576 1.425 . S
C581 C578 1.409 . S
C581 C579 1.415 . S
C582 H572 0.930 . S
C582 C580 1.419 . S
C582 C583 1.362 . S
C583 H573 0.930 . S
C583 C576 1.409 . S
C583 C582 1.362 . S
H584 C590 0.930 . S
H585 C593 0.930 . S
H586 C594 0.930 . S
H587 C595 0.930 . S
H588 C598 0.930 . S
H589 C599 0.930 . S
C590 H584 0.930 . S
C590 C591 1.355 . S
C590 C592 1.415 . S
C591 C590 1.355 . S
C591 C593 1.419 . S
C592 C590 1.415 . S
C592 C597 1.425 . S
C592 C599 1.409 . S
C593 H585 0.930 . S
C593 C591 1.419 . S
C593 C594 1.362 . S
C594 H586 0.930 . S
C594 C593 1.362 . S
C594 C597 1.409 . S
C595 H587 0.930 . S
C595 C596 1.355 . S
C595 C597 1.415 . S
C596 C595 1.355 . S
C596 C598 1.419 . S
C597 C592 1.425 . S
C597 C594 1.409 . S
C597 C595 1.415 . S
C598 H588 0.930 . S
C598 C596 1.419 . S
C598 C599 1.362 . S
C599 H589 0.930 . S
C599 C592 1.409 . S
C599 C598 1.362 . S
H600 C606 0.930 . S
H601 C609 0.930 . S
H602 C610 0.930 . S
H603 C611 0.930 . S
H604 C614 0.930 . S
H605 C615 0.930 . S
C606 H600 0.930 . S
C606 C607 1.355 . S
C606 C608 1.415 . S
C607 C606 1.355 . S
C607 C609 1.419 . S
C608 C606 1.415 . S
C608 C613 1.425 . S
C608 C615 1.409 . S
C609 H601 0.930 . S
C609 C607 1.419 . S
C609 C610 1.362 . S
C610 H602 0.930 . S
C610 C609 1.362 . S
C610 C613 1.409 . S
C611 H603 0.930 . S
C611 C612 1.355 . S
C611 C613 1.415 . S
C612 C611 1.355 . S
C612 C614 1.419 . S
C613 C608 1.425 . S
C613 C610 1.409 . S
C613 C611 1.415 . S
C614 H604 0.930 . S
C614 C612 1.419 . S
C614 C615 1.362 . S
C615 H605 0.930 . S
C615 C608 1.409 . S
C615 C614 1.362 . S
H616 C622 0.930 . S
H617 C625 0.930 . S
H618 C626 0.930 . S
H619 C627 0.930 . S
H620 C630 0.930 . S
H621 C631 0.930 . S
C622 H616 0.930 . S
C622 C623 1.355 . S
C622 C624 1.415 . S
C623 C622 1.355 . S
C623 C625 1.419 . S
C624 C622 1.415 . S
C624 C629 1.425 . S
C624 C631 1.409 . S
C625 H617 0.930 . S
C625 C623 1.419 . S
C625 C626 1.362 . S
C626 H618 0.930 . S
C626 C625 1.362 . S
C626 C629 1.409 . S
C627 H619 0.930 . S
C627 C628 1.355 . S
C627 C629 1.415 . S
C628 C627 1.355 . S
C628 C630 1.419 . S
C629 C624 1.425 . S
C629 C626 1.409 . S
C629 C627 1.415 . S
C630 H620 0.930 . S
C630 C628 1.419 . S
C630 C631 1.362 . S
C631 H621 0.930 . S
C631 C624 1.409 . S
C631 C630 1.362 . S
C255 C4 1.111 . S
C260 C95 1.153 . S
C271 C16 1.231 . S
C276 C144 1.265 . S
C292 C170 2.106 . S
C287 C32 2.116 . S
C303 C43 2.316 . S
C308 C218 2.274 . S
C324 C130 2.560 . S
C319 C5 2.458 . S
C340 C98 0.580 . S
C335 C21 0.644 . S
C356 C219 1.917 . S
C351 C27 1.941 . S
C372 C187 1.634 . S
C367 C37 1.618 . S
C383 C10 1.478 . S
C388 C215 1.485 . S
C404 C147 2.481 1_556 S
C399 C26 2.577 . S
C415 C38 2.092 . S
C420 C99 2.090 . S
C431 C15 1.151 . S
C436 C184 1.152 . S
C452 C104 1.239 . S
C447 C48 1.217 . S
C463 C59 1.119 . S
C468 C135 1.123 . S
C479 C76 2.445 . S
C484 C179 2.402 . S
C495 C87 2.142 . S
C500 C227 2.136 . S
C511 C54 1.922 . S
C516 C139 2.013 1_556 S
C532 C107 1.344 . S
C527 C60 1.395 . S
C548 C210 1.815 . S
C543 C71 1.818 . S
C564 C178 1.570 . S
C559 C82 1.658 . S
C575 C49 1.724 . S
C580 C224 1.799 . S
C596 C138 2.025 . S
C591 C70 2.069 . S
C612 C90 2.505 . S
C607 C81 2.519 . S
C623 C65 1.001 . S
C628 C175 0.975 . S
