# Generated by pormake.
# Topology cml, (3,6)-cn, num edge types: 1
# Building blocks:
#     Node 0, Type 0, BuildingBlock: BETDAH_clean_linker_0, # of connection points: 3
#     Node 1, Type 0, BuildingBlock: BETDAH_clean_linker_0, # of connection points: 3
#     Node 2, Type 0, BuildingBlock: BETDAH_clean_linker_0, # of connection points: 3
#     Node 3, Type 0, BuildingBlock: BETDAH_clean_linker_0, # of connection points: 3
#     Node 4, Type 0, BuildingBlock: BETDAH_clean_linker_0, # of connection points: 3
#     Node 5, Type 0, BuildingBlock: BETDAH_clean_linker_0, # of connection points: 3
#     Node 6, Type 0, BuildingBlock: BETDAH_clean_linker_0, # of connection points: 3
#     Node 7, Type 0, BuildingBlock: BETDAH_clean_linker_0, # of connection points: 3
#     Node 8, Type 1, BuildingBlock: IZENUY_clean_sbu_0, # of connection points: 6
#     Node 9, Type 1, BuildingBlock: IZENUY_clean_sbu_0, # of connection points: 6
#     Node 10, Type 1, BuildingBlock: IZENUY_clean_sbu_0, # of connection points: 6
#     Node 11, Type 1, BuildingBlock: IZENUY_clean_sbu_0, # of connection points: 6
#     Edge 12, Type (0, 1), BuildingBlock: XIVTED_clean_linker_0, # of connection points: 2
#     Edge 13, Type (0, 1), BuildingBlock: XIVTED_clean_linker_0, # of connection points: 2
#     Edge 14, Type (0, 1), BuildingBlock: XIVTED_clean_linker_0, # of connection points: 2
#     Edge 15, Type (0, 1), BuildingBlock: XIVTED_clean_linker_0, # of connection points: 2
#     Edge 16, Type (0, 1), BuildingBlock: XIVTED_clean_linker_0, # of connection points: 2
#     Edge 17, Type (0, 1), BuildingBlock: XIVTED_clean_linker_0, # of connection points: 2
#     Edge 18, Type (0, 1), BuildingBlock: XIVTED_clean_linker_0, # of connection points: 2
#     Edge 19, Type (0, 1), BuildingBlock: XIVTED_clean_linker_0, # of connection points: 2
#     Edge 20, Type (0, 1), BuildingBlock: XIVTED_clean_linker_0, # of connection points: 2
#     Edge 21, Type (0, 1), BuildingBlock: XIVTED_clean_linker_0, # of connection points: 2
#     Edge 22, Type (0, 1), BuildingBlock: XIVTED_clean_linker_0, # of connection points: 2
#     Edge 23, Type (0, 1), BuildingBlock: XIVTED_clean_linker_0, # of connection points: 2
#     Edge 24, Type (0, 1), BuildingBlock: XIVTED_clean_linker_0, # of connection points: 2
#     Edge 25, Type (0, 1), BuildingBlock: XIVTED_clean_linker_0, # of connection points: 2
#     Edge 26, Type (0, 1), BuildingBlock: XIVTED_clean_linker_0, # of connection points: 2
#     Edge 27, Type (0, 1), BuildingBlock: XIVTED_clean_linker_0, # of connection points: 2
#     Edge 28, Type (0, 1), BuildingBlock: XIVTED_clean_linker_0, # of connection points: 2
#     Edge 29, Type (0, 1), BuildingBlock: XIVTED_clean_linker_0, # of connection points: 2
#     Edge 30, Type (0, 1), BuildingBlock: XIVTED_clean_linker_0, # of connection points: 2
#     Edge 31, Type (0, 1), BuildingBlock: XIVTED_clean_linker_0, # of connection points: 2
#     Edge 32, Type (0, 1), BuildingBlock: XIVTED_clean_linker_0, # of connection points: 2
#     Edge 33, Type (0, 1), BuildingBlock: XIVTED_clean_linker_0, # of connection points: 2
#     Edge 34, Type (0, 1), BuildingBlock: XIVTED_clean_linker_0, # of connection points: 2
#     Edge 35, Type (0, 1), BuildingBlock: XIVTED_clean_linker_0, # of connection points: 2
# Relax obj value: 0.003
# Max RMSD: 0.065
# Mean RMSD: 0.051
data_MOF--net-cml--node1-IZENUY_clean_sbu_0--node2-BETDAH_clean_linker_0--edge1-XIVTED_clean_linker_0
_symmetry_space_group_name_H-M    P1
_symmetry_Int_Tables_number       1
_symmetry_cell_setting            triclinic
loop_
_symmetry_equiv_pos_as_xyz
'x, y, z'
_cell_length_a     37.497694
_cell_length_b     41.549609
_cell_length_c     36.51611
_cell_angle_alpha  89.379471
_cell_angle_beta   90.454175
_cell_angle_gamma 90.948868
loop_
_atom_site_label
_atom_site_type_symbol
_atom_site_fract_x
_atom_site_fract_y
_atom_site_fract_z
_atom_type_partial_charge
H0 H 0.34743 0.42155 0.03674 0.0
H1 H 0.29398 0.37932 0.94347 0.0
H2 H 0.31334 0.32233 0.03975 0.0
C3 C 0.33317 0.40157 0.02423 0.0
C4 C 0.33071 0.37211 0.04335 0.0
C5 C 0.32019 0.40465 0.98808 0.0
C6 C 0.30368 0.37777 0.97145 0.0
C7 C 0.30148 0.34819 0.99024 0.0
C8 C 0.31497 0.34548 0.02586 0.0
N9 N 0.2899 0.31992 0.97226 0.0
C10 C 0.25543 0.31558 0.95902 0.0
H11 H 0.662 0.58005 0.53622 0.0
H12 H 0.71599 0.62462 0.44446 0.0
H13 H 0.6936 0.67983 0.53979 0.0
C14 C 0.67587 0.60054 0.52404 0.0
C15 C 0.67728 0.62972 0.54308 0.0
C16 C 0.68955 0.59825 0.48835 0.0
C17 C 0.70579 0.62565 0.47209 0.0
C18 C 0.70705 0.65501 0.49081 0.0
C19 C 0.69268 0.6569 0.52592 0.0
N20 N 0.71887 0.68387 0.4735 0.0
C21 C 0.75158 0.68755 0.45627 0.0
H22 H 0.66091 0.42675 0.04339 0.0
H23 H 0.73053 0.4229 0.9507 0.0
H24 H 0.74429 0.35669 0.04086 0.0
C25 C 0.68302 0.41596 0.02933 0.0
C26 C 0.70139 0.39052 0.0463 0.0
C27 C 0.69277 0.42749 0.99454 0.0
C28 C 0.72168 0.41348 0.97696 0.0
C29 C 0.73996 0.38775 0.99307 0.0
C30 C 0.72945 0.3758 0.02767 0.0
N31 N 0.7711 0.3772 0.97536 0.0
C32 C 0.78226 0.34555 0.97312 0.0
H33 H 0.35159 0.57755 0.53902 0.0
H34 H 0.29255 0.66516 0.52607 0.0
H35 H 0.31512 0.60779 0.43242 0.0
C36 C 0.33659 0.59402 0.52189 0.0
C37 C 0.33449 0.5887 0.48403 0.0
C38 C 0.32171 0.62159 0.53746 0.0
C39 C 0.3038 0.64368 0.51461 0.0
C40 C 0.30169 0.63855 0.47666 0.0
C41 C 0.31708 0.61131 0.46173 0.0
N42 N 0.28635 0.6612 0.4522 0.0
C43 C 0.25796 0.68074 0.46051 0.0
H44 H 0.84809 0.91749 0.03407 0.0
H45 H 0.79882 0.87397 0.93932 0.0
H46 H 0.81369 0.81842 0.03779 0.0
C47 C 0.8343 0.89733 0.02138 0.0
C48 C 0.83095 0.86822 0.04099 0.0
C49 C 0.82305 0.89985 0.98463 0.0
C50 C 0.80707 0.8728 0.9678 0.0
C51 C 0.80361 0.84355 0.98721 0.0
C52 C 0.81582 0.84134 0.02345 0.0
N53 N 0.7923 0.81504 0.96941 0.0
C54 C 0.7584 0.81073 0.95456 0.0
H55 H 0.16984 0.08828 0.55324 0.0
H56 H 0.19792 0.12826 0.44792 0.0
H57 H 0.21363 0.18438 0.54468 0.0
C58 C 0.18137 0.10758 0.53679 0.0
C59 C 0.19173 0.13645 0.55383 0.0
C60 C 0.18294 0.10423 0.49854 0.0
C61 C 0.19763 0.12967 0.47752 0.0
C62 C 0.20976 0.1581 0.49426 0.0
C63 C 0.20635 0.1616 0.53228 0.0
N64 N 0.21889 0.18509 0.47207 0.0
C65 C 0.2539 0.19482 0.46531 0.0
H66 H 0.17163 0.93502 0.05538 0.0
H67 H 0.25375 0.93355 0.97386 0.0
H68 H 0.26027 0.87126 0.0683 0.0
C69 C 0.1963 0.92538 0.04516 0.0
C70 C 0.21413 0.90177 0.06579 0.0
C71 C 0.20997 0.93678 0.01172 0.0
C72 C 0.24198 0.92413 0.99887 0.0
C73 C 0.25979 0.9002 0.01887 0.0
C74 C 0.24564 0.88873 0.05214 0.0
N75 N 0.29449 0.89164 0.00815 0.0
C76 C 0.30241 0.86182 0.9938 0.0
H77 H 0.83807 0.06431 0.52988 0.0
H78 H 0.82635 0.16715 0.53149 0.0
H79 H 0.80997 0.11633 0.43145 0.0
C80 C 0.83113 0.08655 0.51611 0.0
C81 C 0.82409 0.08642 0.4782 0.0
C82 C 0.83214 0.11546 0.53588 0.0
C83 C 0.82418 0.14434 0.51747 0.0
C84 C 0.81556 0.14439 0.48016 0.0
C85 C 0.81534 0.11558 0.46064 0.0
N86 N 0.81213 0.17401 0.46129 0.0
C87 C 0.779 0.18671 0.45341 0.0
Fe88 Fe 0.0165 0.8273 0.32168 0.0
Fe89 Fe 0.00741 0.86473 0.39312 0.0
O90 O 0.01253 0.8644 0.34488 0.0
Fe91 Fe 0.01341 0.90116 0.31996 0.0
O92 O 0.97484 0.88914 0.29282 0.0
O93 O 0.99352 0.84078 0.27985 0.0
O94 O 0.97333 0.81323 0.33815 0.0
C95 C 0.96501 0.81101 0.37149 0.0
C96 C 0.06604 0.86434 0.28513 0.0
O97 O 0.9828 0.82615 0.3956 0.0
C98 C 0.05295 0.91886 0.37973 0.0
O99 O 0.0402 0.80717 0.35951 0.0
O100 O 0.04995 0.84525 0.39997 0.0
O101 O 0.04441 0.88738 0.28536 0.0
O102 O 0.0599 0.83876 0.30316 0.0
C103 C 0.95964 0.91069 0.3726 0.0
O104 O 0.03099 0.90335 0.39965 0.0
O105 O 0.05208 0.91597 0.3454 0.0
C106 C 0.05769 0.81846 0.38645 0.0
O107 O 0.96449 0.88438 0.38941 0.0
O108 O 0.98249 0.92153 0.35011 0.0
C109 C 0.97251 0.86386 0.2741 0.0
Fe110 Fe 0.99903 0.13901 0.89381 0.0
Fe111 Fe 0.00664 0.10173 0.82196 0.0
O112 O 1.00062 0.1385 0.8452 0.0
Fe113 Fe 0.99642 0.1747 0.81936 0.0
O114 O 0.03555 0.19205 0.84109 0.0
O115 O 0.02221 0.17826 0.89787 0.0
O116 O 0.04256 0.12072 0.89839 0.0
C117 C 0.05126 0.09444 0.88438 0.0
C118 C 0.94751 0.18315 0.87754 0.0
O119 O 0.03364 0.08283 0.85789 0.0
C120 C 0.95635 0.13402 0.77727 0.0
O121 O 0.97549 0.09985 0.89777 0.0
O122 O 0.96591 0.08476 0.84077 0.0
O123 O 0.96651 0.19411 0.85163 0.0
O124 O 0.95546 0.15737 0.89387 0.0
C125 C 0.05012 0.14133 0.78147 0.0
O126 O 0.98052 0.11341 0.78161 0.0
O127 O 0.95687 0.15955 0.79567 0.0
C128 C 0.95853 0.08298 0.87439 0.0
O129 O 0.04794 0.11641 0.80148 0.0
O130 O 0.02593 0.16227 0.78223 0.0
C131 C 0.0408 0.19446 0.87511 0.0
Fe132 Fe 0.52003 0.32354 0.31812 0.0
Fe133 Fe 0.52001 0.36182 0.38996 0.0
O134 O 0.52054 0.36094 0.34135 0.0
Fe135 Fe 0.5214 0.39749 0.31591 0.0
O136 O 0.47963 0.3874 0.29314 0.0
O137 O 0.49409 0.33814 0.27871 0.0
O138 O 0.47795 0.31165 0.33889 0.0
C139 C 0.47182 0.31062 0.37282 0.0
C140 C 0.56779 0.35777 0.27607 0.0
O141 O 0.49231 0.32507 0.39524 0.0
C142 C 0.56816 0.41292 0.37094 0.0
O143 O 0.54594 0.30218 0.35338 0.0
O144 O 0.561 0.33961 0.39294 0.0
O145 O 0.54769 0.38183 0.27824 0.0
O146 O 0.56206 0.33276 0.29524 0.0
C147 C 0.47482 0.41114 0.37444 0.0
O148 O 0.54763 0.39868 0.39354 0.0
O149 O 0.56316 0.41026 0.33691 0.0
C150 C 0.5663 0.31272 0.37852 0.0
O151 O 0.47893 0.38444 0.39055 0.0
O152 O 0.49545 0.42002 0.34889 0.0
C153 C 0.4742 0.36228 0.27472 0.0
Fe154 Fe 0.49174 0.64394 0.8898 0.0
Fe155 Fe 0.49052 0.60644 0.81757 0.0
O156 O 0.49064 0.64353 0.84115 0.0
Fe157 Fe 0.48982 0.68029 0.81588 0.0
O158 O 0.53213 0.69323 0.83556 0.0
O159 O 0.51901 0.68111 0.89275 0.0
O160 O 0.53317 0.62186 0.89184 0.0
C161 C 0.53807 0.59498 0.87713 0.0
C162 C 0.44498 0.69263 0.8763 0.0
O163 O 0.51779 0.58516 0.8516 0.0
C164 C 0.44205 0.64428 0.77627 0.0
O165 O 0.46473 0.60688 0.89538 0.0
O166 O 0.44956 0.59318 0.83927 0.0
O167 O 0.46449 0.70227 0.85012 0.0
O168 O 0.45041 0.66592 0.89186 0.0
C169 C 0.53564 0.64167 0.77397 0.0
O170 O 0.46295 0.62076 0.77931 0.0
O171 O 0.44749 0.66973 0.79419 0.0
C172 C 0.44465 0.5915 0.87335 0.0
O173 O 0.53161 0.61697 0.79398 0.0
O174 O 0.51501 0.66529 0.77691 0.0
C175 C 0.53878 0.69529 0.86938 0.0
H176 H 0.23007 0.31497 0.88957 0.0
H177 H 0.05968 0.20775 0.94624 0.0
H178 H 0.20263 0.29187 0.0012 0.0
H179 H 0.08603 0.23269 0.83443 0.0
H180 H 0.10864 0.24259 0.96725 0.0
H181 H 0.17391 0.28961 0.86902 0.0
C182 C 0.21175 0.30505 0.9097 0.0
C183 C 0.22046 0.30546 0.94697 0.0
C184 C 0.10353 0.24063 0.93812 0.0
C185 C 0.15696 0.27595 0.924 0.0
C186 C 0.07557 0.2207 0.9261 0.0
C187 C 0.06881 0.21707 0.88849 0.0
C188 C 0.12504 0.25697 0.91238 0.0
C189 C 0.09029 0.23458 0.86369 0.0
C190 C 0.17986 0.29046 0.89806 0.0
C191 C 0.19643 0.29206 0.97217 0.0
N192 N 0.11754 0.25357 0.87607 0.0
N193 N 0.16581 0.27757 0.96022 0.0
H194 H 0.76751 0.7001 0.38521 0.0
H195 H 0.94863 0.7913 0.4411 0.0
H196 H 0.81145 0.70029 0.49452 0.0
H197 H 0.91474 0.78002 0.32862 0.0
H198 H 0.89942 0.7563 0.46042 0.0
H199 H 0.8223 0.7268 0.36284 0.0
C200 C 0.78913 0.70518 0.40427 0.0
C201 C 0.78546 0.69792 0.44157 0.0
C202 C 0.9028 0.76126 0.43147 0.0
C203 C 0.84741 0.72899 0.41668 0.0
C204 C 0.93088 0.7814 0.42039 0.0
C205 C 0.9358 0.78879 0.38315 0.0
C206 C 0.87904 0.74855 0.40524 0.0
C207 C 0.91197 0.77501 0.35763 0.0
C208 C 0.82023 0.72054 0.39161 0.0
C209 C 0.81365 0.70536 0.46545 0.0
N210 N 0.88446 0.75575 0.36917 0.0
N211 N 0.84335 0.72074 0.45267 0.0
H212 H 0.81808 0.3018 0.0152 0.0
H213 H 0.91061 0.22927 0.84029 0.0
H214 H 0.78566 0.32423 0.90457 0.0
H215 H 0.9173 0.18227 0.94601 0.0
H216 H 0.86528 0.26473 0.8642 0.0
H217 H 0.85459 0.25775 0.99187 0.0
C218 C 0.81809 0.29689 0.98612 0.0
C219 C 0.79882 0.31623 0.96164 0.0
C220 C 0.87637 0.24648 0.88214 0.0
C221 C 0.84091 0.26698 0.93479 0.0
C222 C 0.90238 0.22629 0.86851 0.0
C223 C 0.9179 0.20285 0.8912 0.0
C224 C 0.86614 0.24372 0.91899 0.0
C225 C 0.90599 0.19998 0.92753 0.0
C226 C 0.83895 0.27194 0.9728 0.0
C227 C 0.80003 0.30954 0.92422 0.0
N228 N 0.88114 0.22047 0.94047 0.0
N229 N 0.82103 0.28571 0.91187 0.0
H230 H 0.19067 0.66004 0.45017 0.0
H231 H 0.11244 0.83776 0.43208 0.0
H232 H 0.25463 0.74525 0.46979 0.0
H233 H 0.06588 0.75363 0.381 0.0
H234 H 0.15955 0.80393 0.45828 0.0
H235 H 0.13884 0.69387 0.43838 0.0
C236 C 0.19343 0.68592 0.45283 0.0
C237 C 0.22653 0.7001 0.46102 0.0
C238 C 0.13883 0.79295 0.44153 0.0
C239 C 0.16801 0.73888 0.44689 0.0
C240 C 0.11196 0.81218 0.42663 0.0
C241 C 0.08541 0.79853 0.40404 0.0
C242 C 0.13871 0.75983 0.4342 0.0
C243 C 0.08604 0.76526 0.39788 0.0
C244 C 0.16404 0.70521 0.44583 0.0
C245 C 0.22923 0.73363 0.46373 0.0
N246 N 0.11224 0.7471 0.41284 0.0
N247 N 0.20029 0.75204 0.45638 0.0
H248 H 0.73749 0.80438 0.88387 0.0
H249 H 0.55754 0.71044 0.93994 0.0
H250 H 0.7019 0.79239 0.99509 0.0
H251 H 0.5892 0.72711 0.82779 0.0
H252 H 0.60863 0.74288 0.96033 0.0
H253 H 0.68149 0.77928 0.86225 0.0
C254 C 0.71748 0.79695 0.90361 0.0
C255 C 0.72382 0.8005 0.94115 0.0
C256 C 0.60432 0.73961 0.93124 0.0
C257 C 0.6604 0.77131 0.91701 0.0
C258 C 0.57514 0.721 0.91955 0.0
C259 C 0.56905 0.71589 0.88205 0.0
C260 C 0.62784 0.75313 0.90532 0.0
C261 C 0.59281 0.73033 0.85697 0.0
C262 C 0.68567 0.7825 0.89137 0.0
C263 C 0.69761 0.79018 0.96585 0.0
N264 N 0.62123 0.74813 0.86906 0.0
N265 N 0.66708 0.77584 0.95337 0.0
H266 H 0.30275 0.22687 0.50698 0.0
H267 H 0.42431 0.27319 0.33369 0.0
H268 H 0.2817 0.19327 0.39767 0.0
H269 H 0.44907 0.30346 0.44387 0.0
H270 H 0.37313 0.24245 0.35706 0.0
H271 H 0.35784 0.25342 0.48515 0.0
C272 C 0.31009 0.22481 0.47848 0.0
C273 C 0.2881 0.20784 0.45401 0.0
C274 C 0.38983 0.2557 0.37618 0.0
C275 C 0.35039 0.23835 0.42868 0.0
C276 C 0.41911 0.27332 0.36283 0.0
C277 C 0.44116 0.29104 0.38679 0.0
C278 C 0.38226 0.2558 0.41382 0.0
C279 C 0.43292 0.2902 0.4243 0.0
C280 C 0.34138 0.24001 0.46596 0.0
C281 C 0.29828 0.20604 0.41731 0.0
N282 N 0.40412 0.273 0.4366 0.0
N283 N 0.32862 0.22123 0.40569 0.0
H284 H 0.31847 0.80409 0.02477 0.0
H285 H 0.42008 0.74818 0.84541 0.0
H286 H 0.31789 0.85675 0.92256 0.0
H287 H 0.40932 0.68785 0.94182 0.0
H288 H 0.38011 0.78679 0.87254 0.0
H289 H 0.34881 0.75966 0.9945 0.0
C290 C 0.32425 0.80593 0.99579 0.0
C291 C 0.31574 0.83376 0.97588 0.0
C292 C 0.38623 0.76502 0.88772 0.0
C293 C 0.35077 0.78377 0.94135 0.0
C294 C 0.40917 0.74295 0.87224 0.0
C295 C 0.41839 0.71482 0.89147 0.0
C296 C 0.37255 0.75921 0.92293 0.0
C297 C 0.40308 0.70926 0.92603 0.0
C298 C 0.34161 0.78073 0.97855 0.0
C299 C 0.32399 0.83545 0.93863 0.0
N300 N 0.38121 0.73141 0.94081 0.0
N301 N 0.34131 0.8109 0.9226 0.0
H302 H 0.7301 0.1691 0.40241 0.0
H303 H 0.61319 0.32578 0.43456 0.0
H304 H 0.75379 0.23974 0.48494 0.0
H305 H 0.58715 0.25398 0.35352 0.0
H306 H 0.66327 0.29334 0.45507 0.0
H307 H 0.67587 0.19843 0.38575 0.0
C308 C 0.72355 0.1907 0.41714 0.0
C309 C 0.74596 0.20226 0.44496 0.0
C310 C 0.64652 0.28459 0.43291 0.0
C311 C 0.68472 0.23592 0.42617 0.0
C312 C 0.61788 0.30313 0.42115 0.0
C313 C 0.59591 0.29265 0.39218 0.0
C314 C 0.65343 0.25538 0.41552 0.0
C315 C 0.60336 0.26305 0.37592 0.0
C316 C 0.69276 0.20744 0.40767 0.0
C317 C 0.73685 0.23025 0.46331 0.0
N318 N 0.63157 0.24552 0.38772 0.0
N319 N 0.70692 0.24627 0.4535 0.0
H320 H 0.34071 0.4108 0.9162 0.0
H321 H 0.41875 0.58666 0.94313 0.0
H322 H 0.31857 0.46725 0.01175 0.0
H323 H 0.41077 0.54216 0.83701 0.0
H324 H 0.38034 0.54392 0.96828 0.0
H325 H 0.36358 0.45924 0.88556 0.0
C326 C 0.33985 0.43346 0.93052 0.0
C327 C 0.32807 0.43475 0.9669 0.0
C328 C 0.38662 0.54372 0.93938 0.0
C329 C 0.35529 0.49023 0.93218 0.0
C330 C 0.40867 0.56806 0.92504 0.0
C331 C 0.41834 0.56782 0.888 0.0
C332 C 0.37457 0.51865 0.91668 0.0
C333 C 0.40419 0.54325 0.86578 0.0
C334 C 0.35321 0.46112 0.91304 0.0
C335 C 0.32818 0.46488 0.98405 0.0
N336 N 0.38345 0.5194 0.88058 0.0
N337 N 0.34212 0.49129 0.96678 0.0
H338 H 0.69398 0.53558 0.51251 0.0
H339 H 0.60113 0.46239 0.33306 0.0
H340 H 0.66907 0.59233 0.41622 0.0
H341 H 0.59551 0.41798 0.44033 0.0
H342 H 0.63913 0.50528 0.35854 0.0
H343 H 0.67143 0.48757 0.48127 0.0
C344 C 0.68418 0.53792 0.48463 0.0
C345 C 0.68286 0.56822 0.46725 0.0
C346 C 0.62987 0.48592 0.37635 0.0
C347 C 0.65727 0.51322 0.43124 0.0
C348 C 0.60829 0.46137 0.36184 0.0
C349 C 0.59472 0.43675 0.38472 0.0
C350 C 0.6383 0.48564 0.41389 0.0
C351 C 0.60496 0.43669 0.42178 0.0
C352 C 0.67135 0.51048 0.46683 0.0
C353 C 0.67069 0.56956 0.43076 0.0
N354 N 0.62597 0.46084 0.43523 0.0
N355 N 0.65798 0.54252 0.41412 0.0
H356 H 0.66958 0.48331 0.02555 0.0
H357 H 0.56267 0.53996 0.84665 0.0
H358 H 0.67086 0.43273 0.92301 0.0
H359 H 0.57452 0.59887 0.94278 0.0
H360 H 0.60285 0.50085 0.87419 0.0
H361 H 0.63497 0.52596 0.9961 0.0
C362 C 0.66255 0.48115 0.99685 0.0
C363 C 0.67299 0.45429 0.97676 0.0
C364 C 0.5969 0.52241 0.88922 0.0
C365 C 0.63351 0.50313 0.94283 0.0
C366 C 0.57388 0.54479 0.87351 0.0
C367 C 0.56496 0.5727 0.89251 0.0
C368 C 0.61097 0.5277 0.92442 0.0
C369 C 0.58059 0.5777 0.92713 0.0
C370 C 0.64299 0.50562 0.97999 0.0
C371 C 0.66361 0.45307 0.9395 0.0
N372 N 0.60257 0.55527 0.94211 0.0
N373 N 0.64424 0.47699 0.92384 0.0
H374 H 0.33775 0.52634 0.51031 0.0
H375 H 0.45525 0.46768 0.3424 0.0
H376 H 0.37192 0.58698 0.42 0.0
H377 H 0.43604 0.40852 0.43843 0.0
H378 H 0.41836 0.50922 0.36799 0.0
H379 H 0.36843 0.48106 0.48265 0.0
C380 C 0.35168 0.53017 0.48472 0.0
C381 C 0.35213 0.56059 0.46745 0.0
C382 C 0.42203 0.48714 0.3835 0.0
C383 C 0.38683 0.5088 0.4355 0.0
C384 C 0.4431 0.46331 0.36885 0.0
C385 C 0.44915 0.43466 0.38847 0.0
C386 C 0.4068 0.48252 0.41818 0.0
C387 C 0.43225 0.4303 0.42242 0.0
C388 C 0.36899 0.50427 0.46888 0.0
C389 C 0.37022 0.56396 0.43407 0.0
N390 N 0.41203 0.45412 0.43637 0.0
N391 N 0.38681 0.53847 0.4193 0.0
H392 H 0.81878 0.96272 0.00628 0.0
H393 H 0.92969 0.03235 0.83592 0.0
H394 H 0.84978 0.90469 0.9149 0.0
H395 H 0.92706 0.07763 0.94171 0.0
H396 H 0.88925 0.99006 0.85885 0.0
H397 H 0.84641 0.00976 0.97659 0.0
C398 C 0.83095 0.95994 0.97972 0.0
C399 C 0.83246 0.92953 0.96338 0.0
C400 C 0.89735 0.0094 0.87691 0.0
C401 C 0.86401 0.98338 0.92919 0.0
C402 C 0.9204 0.03359 0.86387 0.0
C403 C 0.93215 0.05843 0.88708 0.0
C404 C 0.8856 0.01021 0.91328 0.0
C405 C 0.91907 0.05877 0.92299 0.0
C406 C 0.84674 0.9868 0.96284 0.0
C407 C 0.84789 0.92758 0.92855 0.0
N408 N 0.8966 0.03499 0.935 0.0
N409 N 0.86343 0.95406 0.9128 0.0
H410 H 0.12138 0.07259 0.51875 0.0
H411 H 0.10577 0.95652 0.34772 0.0
H412 H 0.20382 0.07136 0.43681 0.0
H413 H 0.05247 0.93896 0.45061 0.0
H414 H 0.13979 1.00081 0.37632 0.0
H415 H 0.09313 0.02618 0.49043 0.0
C416 C 0.134 0.06231 0.49512 0.0
C417 C 0.16565 0.07572 0.48073 0.0
C418 C 0.12081 0.98702 0.39256 0.0
C419 C 0.13227 0.02269 0.44716 0.0
C420 C 0.10135 0.9618 0.37629 0.0
C421 C 0.07599 0.94407 0.39669 0.0
C422 C 0.11447 0.99476 0.42926 0.0
C423 C 0.07154 0.95193 0.43366 0.0
C424 C 0.11757 0.03583 0.47874 0.0
C425 C 0.17951 0.06192 0.44892 0.0
N426 N 0.09029 0.97679 0.44857 0.0
N427 N 0.16268 0.03618 0.43311 0.0
H428 H 0.19587 0.94022 0.93798 0.0
H429 H 0.08458 0.10288 0.9511 0.0
H430 H 0.18135 0.99196 0.03841 0.0
H431 H 0.0824 0.04087 0.85697 0.0
H432 H 0.12717 0.06678 0.98086 0.0
H433 H 0.16143 0.98123 0.90527 0.0
C434 C 0.18573 0.96037 0.95306 0.0
C435 C 0.19117 0.9625 0.99102 0.0
C436 C 0.1175 0.06121 0.9536 0.0
C437 C 0.15168 0.00946 0.95387 0.0
C438 C 0.09329 0.08188 0.93653 0.0
C439 C 0.07958 0.07475 0.90161 0.0
C440 C 0.12829 0.03334 0.93553 0.0
C441 C 0.09192 0.04718 0.88406 0.0
C442 C 0.16592 0.98368 0.93444 0.0
C443 C 0.17725 0.98907 0.00925 0.0
N444 N 0.11542 0.02745 0.90124 0.0
N445 N 0.15808 0.01143 0.99055 0.0
H446 H 0.81183 0.02242 0.49665 0.0
H447 H 0.93562 0.9629 0.33486 0.0
H448 H 0.85509 0.08329 0.41063 0.0
H449 H 0.91584 0.90671 0.43297 0.0
H450 H 0.89302 1.0023 0.35523 0.0
H451 H 0.83709 0.97564 0.46667 0.0
C452 C 0.82613 0.02599 0.47125 0.0
C453 C 0.83179 0.05711 0.45661 0.0
C454 C 0.89768 0.98122 0.37219 0.0
C455 C 0.86025 1.00356 0.42198 0.0
C456 C 0.92207 0.95868 0.36061 0.0
C457 C 0.92992 0.93178 0.38264 0.0
C458 C 0.88102 0.97707 0.40621 0.0
C459 C 0.91091 0.92729 0.41534 0.0
C460 C 0.84044 0.99922 0.45414 0.0
C461 C 0.84973 0.05998 0.42306 0.0
N462 N 0.88767 0.95 0.42644 0.0
N463 N 0.8636 0.03366 0.40719 0.0
H464 H 0.36906 0.32144 0.07049 0.0
H465 H 0.43014 0.41133 0.25303 0.0
H466 H 0.33062 0.41493 0.10025 0.0
H467 H 0.45794 0.31372 0.22723 0.0
H468 H 0.39095 0.41241 0.19917 0.0
H469 H 0.39902 0.31735 0.12964 0.0
C470 C 0.36644 0.34095 0.08966 0.0
C471 C 0.34724 0.3686 0.08028 0.0
C472 C 0.40543 0.39069 0.2055 0.0
C473 C 0.38234 0.36436 0.14802 0.0
C474 C 0.42781 0.39004 0.23626 0.0
C475 C 0.44773 0.36252 0.24446 0.0
C476 C 0.40306 0.36368 0.18275 0.0
C477 C 0.44343 0.3356 0.22184 0.0
C478 C 0.38381 0.33868 0.12342 0.0
C479 C 0.34554 0.39336 0.10608 0.0
N480 N 0.42183 0.33697 0.19191 0.0
N481 N 0.36306 0.39075 0.13869 0.0
H482 H 0.678 0.58591 0.60016 0.0
H483 H 0.55083 0.69053 0.72563 0.0
H484 H 0.63763 0.6792 0.56947 0.0
H485 H 0.57859 0.59242 0.75182 0.0
H486 H 0.58853 0.68868 0.67178 0.0
H487 H 0.64703 0.58953 0.65872 0.0
C488 C 0.6627 0.60717 0.60571 0.0
C489 C 0.66041 0.63226 0.5797 0.0
C490 C 0.58654 0.66756 0.68934 0.0
C491 C 0.62523 0.63667 0.64687 0.0
C492 C 0.56501 0.6686 0.72021 0.0
C493 C 0.56116 0.64146 0.74318 0.0
C494 C 0.60448 0.63918 0.68116 0.0
C495 C 0.58055 0.61386 0.7348 0.0
C496 C 0.64517 0.60927 0.63922 0.0
C497 C 0.64065 0.65944 0.58874 0.0
N498 N 0.6012 0.61336 0.70432 0.0
N499 N 0.62377 0.66084 0.62143 0.0
H500 H 0.70269 0.42953 0.10503 0.0
H501 H 0.59445 0.3075 0.23615 0.0
H502 H 0.67797 0.33191 0.07394 0.0
H503 H 0.6041 0.41014 0.25077 0.0
H504 H 0.63468 0.31217 0.18319 0.0
H505 H 0.6775 0.41866 0.16531 0.0
C506 C 0.69236 0.40559 0.11123 0.0
C507 C 0.69205 0.38166 0.0845 0.0
C508 C 0.62829 0.33353 0.19837 0.0
C509 C 0.6624 0.36907 0.15335 0.0
C510 C 0.60553 0.33086 0.22864 0.0
C511 C 0.59567 0.35854 0.24759 0.0
C512 C 0.64153 0.36401 0.1875 0.0
C513 C 0.61062 0.38824 0.23666 0.0
C514 C 0.67784 0.39939 0.14559 0.0
C515 C 0.67861 0.35097 0.09392 0.0
N516 N 0.63258 0.39017 0.20737 0.0
N517 N 0.66378 0.34562 0.12751 0.0
H518 H 0.34128 0.67889 0.56934 0.0
H519 H 0.40786 0.59117 0.75009 0.0
H520 H 0.3174 0.57936 0.59544 0.0
H521 H 0.41387 0.69432 0.73607 0.0
H522 H 0.36934 0.5877 0.6962 0.0
H523 H 0.36193 0.68679 0.63239 0.0
C524 C 0.3396 0.65887 0.58852 0.0
C525 C 0.32809 0.62826 0.57691 0.0
C526 C 0.37859 0.6112 0.70507 0.0
C527 C 0.35233 0.63701 0.64891 0.0
C528 C 0.40067 0.61317 0.73584 0.0
C529 C 0.41439 0.64303 0.74727 0.0
C530 C 0.37064 0.63925 0.68504 0.0
C531 C 0.40391 0.67081 0.72807 0.0
C532 C 0.3516 0.66336 0.62449 0.0
C533 C 0.32681 0.60317 0.60295 0.0
N534 N 0.38314 0.6682 0.69744 0.0
N535 N 0.33925 0.60799 0.63751 0.0
H536 H 0.82736 0.91157 0.09696 0.0
H537 H 0.9618 0.81419 0.22643 0.0
H538 H 0.87002 0.81891 0.0704 0.0
H539 H 0.92608 0.91007 0.24975 0.0
H540 H 0.92321 0.81326 0.17242 0.0
H541 H 0.85824 0.90916 0.15613 0.0
C542 C 0.84305 0.89063 0.10366 0.0
C543 C 0.84627 0.8655 0.07854 0.0
C544 C 0.92367 0.83446 0.18941 0.0
C545 C 0.8816 0.86254 0.14629 0.0
C546 C 0.94574 0.83503 0.22031 0.0
C547 C 0.94753 0.8624 0.24252 0.0
C548 C 0.90316 0.86144 0.18052 0.0
C549 C 0.92582 0.88854 0.23329 0.0
C550 C 0.8606 0.88924 0.13748 0.0
C551 C 0.86649 0.83872 0.08896 0.0
N552 N 0.9047 0.88749 0.20287 0.0
N553 N 0.88357 0.83807 0.12189 0.0
H554 H 0.19961 0.09484 0.61232 0.0
H555 H 0.06396 0.1922 0.7352 0.0
H556 H 0.15985 0.18874 0.58381 0.0
H557 H 0.1002 0.09675 0.76254 0.0
H558 H 0.10586 0.19448 0.68447 0.0
H559 H 0.17103 0.09854 0.6721 0.0
C560 C 0.18539 0.11649 0.61888 0.0
C561 C 0.18182 0.14137 0.59279 0.0
C562 C 0.10491 0.17313 0.70171 0.0
C563 C 0.14874 0.14566 0.66114 0.0
C564 C 0.0809 0.17176 0.73074 0.0
C565 C 0.0781 0.14403 0.75297 0.0
C566 C 0.12632 0.14653 0.69458 0.0
C567 C 0.10114 0.11852 0.74599 0.0
C568 C 0.16902 0.11856 0.65301 0.0
C569 C 0.16347 0.16902 0.60302 0.0
N570 N 0.12399 0.12025 0.7172 0.0
N571 N 0.14723 0.17022 0.63614 0.0
H572 H 0.19881 0.84161 0.09478 0.0
H573 H 0.10333 0.91832 0.26736 0.0
H574 H 0.19897 0.94259 0.12061 0.0
H575 H 0.09743 0.81668 0.24496 0.0
H576 H 0.14666 0.92537 0.21866 0.0
H577 H 0.1695 0.82975 0.15374 0.0
C578 C 0.19315 0.86115 0.11313 0.0
C579 C 0.20074 0.89314 0.10273 0.0
C580 C 0.13629 0.90139 0.22444 0.0
C581 C 0.16752 0.87993 0.16974 0.0
C582 C 0.11155 0.89737 0.25234 0.0
C583 C 0.09651 0.86696 0.25986 0.0
C584 C 0.14577 0.87489 0.20325 0.0
C585 C 0.10841 0.84056 0.2399 0.0
C586 C 0.17638 0.85443 0.14662 0.0
C587 C 0.19297 0.91765 0.12735 0.0
N588 N 0.13197 0.8452 0.21199 0.0
N589 N 0.17662 0.91055 0.15946 0.0
H590 H 0.88487 0.07874 0.56646 0.0
H591 H 0.90801 0.1774 0.74889 0.0
H592 H 0.81141 0.15395 0.59305 0.0
H593 H 0.94737 0.08124 0.73467 0.0
H594 H 0.87269 0.17128 0.6923 0.0
H595 H 0.90897 0.0812 0.628 0.0
C596 C 0.87318 0.09538 0.58536 0.0
C597 C 0.8456 0.1159 0.57437 0.0
C598 C 0.88877 0.15147 0.70197 0.0
C599 C 0.87442 0.11964 0.64515 0.0
C600 C 0.90892 0.15493 0.73419 0.0
C601 C 0.9312 0.13001 0.74619 0.0
C602 C 0.89128 0.12305 0.6817 0.0
C603 C 0.93114 0.10134 0.7262 0.0
C604 C 0.88728 0.09694 0.6206 0.0
C605 C 0.83284 0.13783 0.6001 0.0
N606 N 0.91189 0.09883 0.69481 0.0
N607 N 0.84758 0.13935 0.63425 0.0
loop_
_geom_bond_atom_site_label_1
_geom_bond_atom_site_label_2
_geom_bond_distance
_geom_bond_site_symmetry_2
_ccdc_geom_bond_type
H0 C3 0.929 . S
H1 C6 0.929 . S
H2 C8 0.930 . S
C3 H0 0.929 . S
C3 C4 1.398 . S
C3 C5 1.396 1_554 S
C4 C3 1.398 . S
C4 C8 1.407 . S
C5 C3 1.396 1_556 S
C5 C6 1.394 . S
C6 H1 0.929 . S
C6 C5 1.394 . S
C6 C7 1.382 1_556 S
C7 C6 1.382 1_554 S
C7 C8 1.392 . S
C7 N9 1.420 1_554 S
C8 H2 0.930 . S
C8 C4 1.407 . S
C8 C7 1.392 . S
N9 C7 1.420 1_556 S
N9 C10 1.244 . S
C10 N9 1.244 . S
H11 C14 0.929 . S
H12 C17 0.929 . S
H13 C19 0.930 . S
C14 H11 0.929 . S
C14 C15 1.398 . S
C14 C16 1.396 . S
C15 C14 1.398 . S
C15 C19 1.407 . S
C16 C14 1.396 . S
C16 C17 1.394 . S
C17 H12 0.929 . S
C17 C16 1.394 . S
C17 C18 1.382 . S
C18 C17 1.382 . S
C18 C19 1.392 . S
C18 N20 1.420 . S
C19 H13 0.930 . S
C19 C15 1.407 . S
C19 C18 1.392 . S
N20 C18 1.420 . S
N20 C21 1.244 . S
C21 N20 1.244 . S
H22 C25 0.929 . S
H23 C28 0.929 . S
H24 C30 0.930 . S
C25 H22 0.929 . S
C25 C26 1.398 . S
C25 C27 1.396 1_554 S
C26 C25 1.398 . S
C26 C30 1.407 . S
C27 C25 1.396 1_556 S
C27 C28 1.394 . S
C28 H23 0.929 . S
C28 C27 1.394 . S
C28 C29 1.382 1_556 S
C29 C28 1.382 1_554 S
C29 C30 1.392 . S
C29 N31 1.420 . S
C30 H24 0.930 . S
C30 C26 1.407 . S
C30 C29 1.392 . S
N31 C29 1.420 . S
N31 C32 1.244 1_554 S
C32 N31 1.244 1_556 S
H33 C36 0.929 . S
H34 C39 0.929 . S
H35 C41 0.930 . S
C36 H33 0.929 . S
C36 C37 1.398 . S
C36 C38 1.396 . S
C37 C36 1.398 . S
C37 C41 1.407 . S
C38 C36 1.396 . S
C38 C39 1.394 . S
C39 H34 0.929 . S
C39 C38 1.394 . S
C39 C40 1.382 . S
C40 C39 1.382 . S
C40 C41 1.392 . S
C40 N42 1.420 . S
C41 H35 0.930 . S
C41 C37 1.407 . S
C41 C40 1.392 . S
N42 C40 1.420 . S
N42 C43 1.244 . S
C43 N42 1.244 . S
H44 C47 0.929 . S
H45 C50 0.929 . S
H46 C52 0.930 . S
C47 H44 0.929 . S
C47 C48 1.398 . S
C47 C49 1.396 1_554 S
C48 C47 1.398 . S
C48 C52 1.407 . S
C49 C47 1.396 1_556 S
C49 C50 1.394 . S
C50 H45 0.929 . S
C50 C49 1.394 . S
C50 C51 1.382 1_556 S
C51 C50 1.382 1_554 S
C51 C52 1.392 . S
C51 N53 1.420 1_554 S
C52 H46 0.930 . S
C52 C48 1.407 . S
C52 C51 1.392 . S
N53 C51 1.420 1_556 S
N53 C54 1.244 . S
C54 N53 1.244 . S
H55 C58 0.929 . S
H56 C61 0.929 . S
H57 C63 0.930 . S
C58 H55 0.929 . S
C58 C59 1.398 . S
C58 C60 1.396 . S
C59 C58 1.398 . S
C59 C63 1.407 . S
C60 C58 1.396 . S
C60 C61 1.394 . S
C61 H56 0.929 . S
C61 C60 1.394 . S
C61 C62 1.382 . S
C62 C61 1.382 . S
C62 C63 1.392 . S
C62 N64 1.420 . S
C63 H57 0.930 . S
C63 C59 1.407 . S
C63 C62 1.392 . S
N64 C62 1.420 . S
N64 C65 1.244 . S
C65 N64 1.244 . S
H66 C69 0.929 . S
H67 C72 0.929 . S
H68 C74 0.930 . S
C69 H66 0.929 . S
C69 C70 1.398 . S
C69 C71 1.396 1_554 S
C70 C69 1.398 . S
C70 C74 1.407 . S
C71 C69 1.396 1_556 S
C71 C72 1.394 . S
C72 H67 0.929 . S
C72 C71 1.394 . S
C72 C73 1.382 1_556 S
C73 C72 1.382 1_554 S
C73 C74 1.392 . S
C73 N75 1.420 . S
C74 H68 0.930 . S
C74 C70 1.407 . S
C74 C73 1.392 . S
N75 C73 1.420 . S
N75 C76 1.244 1_554 S
C76 N75 1.244 1_556 S
H77 C80 0.929 . S
H78 C83 0.929 . S
H79 C85 0.930 . S
C80 H77 0.929 . S
C80 C81 1.398 . S
C80 C82 1.396 . S
C81 C80 1.398 . S
C81 C85 1.407 . S
C82 C80 1.396 . S
C82 C83 1.394 . S
C83 H78 0.929 . S
C83 C82 1.394 . S
C83 C84 1.382 . S
C84 C83 1.382 . S
C84 C85 1.392 . S
C84 N86 1.420 . S
C85 H79 0.930 . S
C85 C81 1.407 . S
C85 C84 1.392 . S
N86 C84 1.420 . S
N86 C87 1.244 . S
C87 N86 1.244 . S
Fe88 O90 1.918 . S
Fe88 O93 1.997 1_455 S
Fe88 O94 2.002 1_455 S
Fe88 O99 1.976 . S
Fe88 O102 1.996 . S
Fe89 O90 1.918 . S
Fe89 O97 1.997 1_455 S
Fe89 O100 1.996 . S
Fe89 O104 1.976 . S
Fe89 O107 2.002 1_455 S
O90 Fe88 1.918 . S
O90 Fe89 1.918 . S
O90 Fe91 1.918 . S
Fe91 O90 1.918 . S
Fe91 O92 2.002 1_455 S
Fe91 O101 1.976 . S
Fe91 O105 1.996 . S
Fe91 O108 1.997 1_455 S
O92 Fe91 2.002 1_655 S
O92 C109 1.295 . S
O93 Fe88 1.997 1_655 S
O93 C109 1.235 . S
O94 Fe88 2.002 1_655 S
O94 C95 1.295 . S
C95 O94 1.295 . S
C95 O97 1.235 . S
C96 O101 1.287 . S
C96 O102 1.255 . S
O97 Fe89 1.997 1_655 S
O97 C95 1.235 . S
C98 O104 1.287 . S
C98 O105 1.255 . S
O99 Fe88 1.976 . S
O99 C106 1.287 . S
O100 Fe89 1.996 . S
O100 C106 1.255 . S
O101 Fe91 1.976 . S
O101 C96 1.287 . S
O102 Fe88 1.996 . S
O102 C96 1.255 . S
C103 O107 1.295 . S
C103 O108 1.235 . S
O104 Fe89 1.976 . S
O104 C98 1.287 . S
O105 Fe91 1.996 . S
O105 C98 1.255 . S
C106 O99 1.287 . S
C106 O100 1.255 . S
O107 Fe89 2.002 1_655 S
O107 C103 1.295 . S
O108 Fe91 1.997 1_655 S
O108 C103 1.235 . S
C109 O92 1.295 . S
C109 O93 1.235 . S
Fe110 O112 1.918 1_455 S
Fe110 O115 2.006 . S
Fe110 O116 2.012 . S
Fe110 O121 1.966 1_455 S
Fe110 O124 1.986 1_455 S
Fe111 O112 1.918 . S
Fe111 O119 1.997 1_655 S
Fe111 O122 1.995 . S
Fe111 O126 1.975 . S
Fe111 O129 2.003 1_655 S
O112 Fe110 1.918 1_655 S
O112 Fe111 1.918 . S
O112 Fe113 1.918 1_655 S
Fe113 O112 1.918 1_455 S
Fe113 O114 2.008 . S
Fe113 O123 1.970 1_455 S
Fe113 O127 1.990 1_455 S
Fe113 O130 2.002 . S
O114 Fe113 2.008 . S
O114 C131 1.295 . S
O115 Fe110 2.006 . S
O115 C131 1.235 . S
O116 Fe110 2.012 . S
O116 C117 1.295 . S
C117 O116 1.295 . S
C117 O119 1.235 . S
C118 O123 1.287 . S
C118 O124 1.255 . S
O119 Fe111 1.997 1_455 S
O119 C117 1.235 . S
C120 O126 1.287 . S
C120 O127 1.255 . S
O121 Fe110 1.966 1_655 S
O121 C128 1.287 . S
O122 Fe111 1.995 . S
O122 C128 1.255 . S
O123 Fe113 1.970 1_655 S
O123 C118 1.287 . S
O124 Fe110 1.986 1_655 S
O124 C118 1.255 . S
C125 O129 1.295 . S
C125 O130 1.235 . S
O126 Fe111 1.975 . S
O126 C120 1.287 . S
O127 Fe113 1.990 1_655 S
O127 C120 1.255 . S
C128 O121 1.287 . S
C128 O122 1.255 . S
O129 Fe111 2.003 1_455 S
O129 C125 1.295 . S
O130 Fe113 2.002 . S
O130 C125 1.235 . S
C131 O114 1.295 . S
C131 O115 1.235 . S
Fe132 O134 1.918 . S
Fe132 O137 1.997 . S
Fe132 O138 2.002 . S
Fe132 O143 1.976 . S
Fe132 O146 1.996 . S
Fe133 O134 1.918 . S
Fe133 O141 1.997 . S
Fe133 O144 1.996 . S
Fe133 O148 1.976 . S
Fe133 O151 2.002 . S
O134 Fe132 1.918 . S
O134 Fe133 1.918 . S
O134 Fe135 1.918 . S
Fe135 O134 1.918 . S
Fe135 O136 2.002 . S
Fe135 O145 1.976 . S
Fe135 O149 1.996 . S
Fe135 O152 1.997 . S
O136 Fe135 2.002 . S
O136 C153 1.295 . S
O137 Fe132 1.997 . S
O137 C153 1.235 . S
O138 Fe132 2.002 . S
O138 C139 1.295 . S
C139 O138 1.295 . S
C139 O141 1.235 . S
C140 O145 1.287 . S
C140 O146 1.255 . S
O141 Fe133 1.997 . S
O141 C139 1.235 . S
C142 O148 1.287 . S
C142 O149 1.255 . S
O143 Fe132 1.976 . S
O143 C150 1.287 . S
O144 Fe133 1.996 . S
O144 C150 1.255 . S
O145 Fe135 1.976 . S
O145 C140 1.287 . S
O146 Fe132 1.996 . S
O146 C140 1.255 . S
C147 O151 1.295 . S
C147 O152 1.235 . S
O148 Fe133 1.976 . S
O148 C142 1.287 . S
O149 Fe135 1.996 . S
O149 C142 1.255 . S
C150 O143 1.287 . S
C150 O144 1.255 . S
O151 Fe133 2.002 . S
O151 C147 1.295 . S
O152 Fe135 1.997 . S
O152 C147 1.235 . S
C153 O136 1.295 . S
C153 O137 1.235 . S
Fe154 O156 1.918 . S
Fe154 O159 1.997 . S
Fe154 O160 2.002 . S
Fe154 O165 1.976 . S
Fe154 O168 1.996 . S
Fe155 O156 1.918 . S
Fe155 O163 1.997 . S
Fe155 O166 1.996 . S
Fe155 O170 1.976 . S
Fe155 O173 2.002 . S
O156 Fe154 1.918 . S
O156 Fe155 1.918 . S
O156 Fe157 1.918 . S
Fe157 O156 1.918 . S
Fe157 O158 2.002 . S
Fe157 O167 1.976 . S
Fe157 O171 1.996 . S
Fe157 O174 1.997 . S
O158 Fe157 2.002 . S
O158 C175 1.295 . S
O159 Fe154 1.997 . S
O159 C175 1.235 . S
O160 Fe154 2.002 . S
O160 C161 1.295 . S
C161 O160 1.295 . S
C161 O163 1.235 . S
C162 O167 1.287 . S
C162 O168 1.255 . S
O163 Fe155 1.997 . S
O163 C161 1.235 . S
C164 O170 1.287 . S
C164 O171 1.255 . S
O165 Fe154 1.976 . S
O165 C172 1.287 . S
O166 Fe155 1.996 . S
O166 C172 1.255 . S
O167 Fe157 1.976 . S
O167 C162 1.287 . S
O168 Fe154 1.996 . S
O168 C162 1.255 . S
C169 O173 1.295 . S
C169 O174 1.235 . S
O170 Fe155 1.976 . S
O170 C164 1.287 . S
O171 Fe157 1.996 . S
O171 C164 1.255 . S
C172 O165 1.287 . S
C172 O166 1.255 . S
O173 Fe155 2.002 . S
O173 C169 1.295 . S
O174 Fe157 1.997 . S
O174 C169 1.235 . S
C175 O158 1.295 . S
C175 O159 1.235 . S
H176 C182 0.930 . S
H177 C186 0.930 . S
H178 C191 0.929 1_554 S
H179 C189 0.929 . S
H180 C184 0.929 . S
H181 C190 0.929 . S
C182 H176 0.930 . S
C182 C183 1.367 . S
C182 C190 1.378 . S
C183 C182 1.367 . S
C183 C191 1.433 . S
C184 H180 0.929 . S
C184 C186 1.378 . S
C184 C188 1.350 . S
C185 C188 1.463 . S
C185 C190 1.350 . S
C185 N193 1.427 . S
C186 H177 0.930 . S
C186 C184 1.378 . S
C186 C187 1.367 . S
C187 C186 1.367 . S
C187 C189 1.433 . S
C188 C184 1.350 . S
C188 C185 1.463 . S
C188 N192 1.427 . S
C189 H179 0.929 . S
C189 C187 1.433 . S
C189 N192 1.384 . S
C190 H181 0.929 . S
C190 C182 1.378 . S
C190 C185 1.350 . S
C191 H178 0.929 1_556 S
C191 C183 1.433 . S
C191 N193 1.384 . S
N192 C188 1.427 . S
N192 C189 1.384 . S
N193 C185 1.427 . S
N193 C191 1.384 . S
H194 C200 0.930 . S
H195 C204 0.930 . S
H196 C209 0.929 . S
H197 C207 0.929 . S
H198 C202 0.929 . S
H199 C208 0.929 . S
C200 H194 0.930 . S
C200 C201 1.367 . S
C200 C208 1.378 . S
C201 C200 1.367 . S
C201 C209 1.433 . S
C202 H198 0.929 . S
C202 C204 1.378 . S
C202 C206 1.350 . S
C203 C206 1.463 . S
C203 C208 1.350 . S
C203 N211 1.427 . S
C204 H195 0.930 . S
C204 C202 1.378 . S
C204 C205 1.367 . S
C205 C204 1.367 . S
C205 C207 1.433 . S
C206 C202 1.350 . S
C206 C203 1.463 . S
C206 N210 1.427 . S
C207 H197 0.929 . S
C207 C205 1.433 . S
C207 N210 1.384 . S
C208 H199 0.929 . S
C208 C200 1.378 . S
C208 C203 1.350 . S
C209 H196 0.929 . S
C209 C201 1.433 . S
C209 N211 1.384 . S
N210 C206 1.427 . S
N210 C207 1.384 . S
N211 C203 1.427 . S
N211 C209 1.384 . S
H212 C218 0.930 . S
H213 C222 0.930 . S
H214 C227 0.929 . S
H215 C225 0.929 . S
H216 C220 0.929 . S
H217 C226 0.929 . S
C218 H212 0.930 . S
C218 C219 1.367 . S
C218 C226 1.378 . S
C219 C218 1.367 . S
C219 C227 1.433 . S
C220 H216 0.929 . S
C220 C222 1.378 . S
C220 C224 1.350 . S
C221 C224 1.463 . S
C221 C226 1.350 . S
C221 N229 1.427 . S
C222 H213 0.930 . S
C222 C220 1.378 . S
C222 C223 1.367 . S
C223 C222 1.367 . S
C223 C225 1.433 . S
C224 C220 1.350 . S
C224 C221 1.463 . S
C224 N228 1.427 . S
C225 H215 0.929 . S
C225 C223 1.433 . S
C225 N228 1.384 . S
C226 H217 0.929 . S
C226 C218 1.378 . S
C226 C221 1.350 . S
C227 H214 0.929 . S
C227 C219 1.433 . S
C227 N229 1.384 . S
N228 C224 1.427 . S
N228 C225 1.384 . S
N229 C221 1.427 . S
N229 C227 1.384 . S
H230 C236 0.930 . S
H231 C240 0.930 . S
H232 C245 0.929 . S
H233 C243 0.929 . S
H234 C238 0.929 . S
H235 C244 0.929 . S
C236 H230 0.930 . S
C236 C237 1.367 . S
C236 C244 1.378 . S
C237 C236 1.367 . S
C237 C245 1.433 . S
C238 H234 0.929 . S
C238 C240 1.378 . S
C238 C242 1.350 . S
C239 C242 1.463 . S
C239 C244 1.350 . S
C239 N247 1.427 . S
C240 H231 0.930 . S
C240 C238 1.378 . S
C240 C241 1.367 . S
C241 C240 1.367 . S
C241 C243 1.433 . S
C242 C238 1.350 . S
C242 C239 1.463 . S
C242 N246 1.427 . S
C243 H233 0.929 . S
C243 C241 1.433 . S
C243 N246 1.384 . S
C244 H235 0.929 . S
C244 C236 1.378 . S
C244 C239 1.350 . S
C245 H232 0.929 . S
C245 C237 1.433 . S
C245 N247 1.384 . S
N246 C242 1.427 . S
N246 C243 1.384 . S
N247 C239 1.427 . S
N247 C245 1.384 . S
H248 C254 0.930 . S
H249 C258 0.930 . S
H250 C263 0.929 1_554 S
H251 C261 0.929 . S
H252 C256 0.929 . S
H253 C262 0.929 . S
C254 H248 0.930 . S
C254 C255 1.367 . S
C254 C262 1.378 . S
C255 C254 1.367 . S
C255 C263 1.433 . S
C256 H252 0.929 . S
C256 C258 1.378 . S
C256 C260 1.350 . S
C257 C260 1.463 . S
C257 C262 1.350 . S
C257 N265 1.427 . S
C258 H249 0.930 . S
C258 C256 1.378 . S
C258 C259 1.367 . S
C259 C258 1.367 . S
C259 C261 1.433 . S
C260 C256 1.350 . S
C260 C257 1.463 . S
C260 N264 1.427 . S
C261 H251 0.929 . S
C261 C259 1.433 . S
C261 N264 1.384 . S
C262 H253 0.929 . S
C262 C254 1.378 . S
C262 C257 1.350 . S
C263 H250 0.929 1_556 S
C263 C255 1.433 . S
C263 N265 1.384 . S
N264 C260 1.427 . S
N264 C261 1.384 . S
N265 C257 1.427 . S
N265 C263 1.384 . S
H266 C272 0.930 . S
H267 C276 0.930 . S
H268 C281 0.929 . S
H269 C279 0.929 . S
H270 C274 0.929 . S
H271 C280 0.929 . S
C272 H266 0.930 . S
C272 C273 1.367 . S
C272 C280 1.378 . S
C273 C272 1.367 . S
C273 C281 1.433 . S
C274 H270 0.929 . S
C274 C276 1.378 . S
C274 C278 1.350 . S
C275 C278 1.463 . S
C275 C280 1.350 . S
C275 N283 1.427 . S
C276 H267 0.930 . S
C276 C274 1.378 . S
C276 C277 1.367 . S
C277 C276 1.367 . S
C277 C279 1.433 . S
C278 C274 1.350 . S
C278 C275 1.463 . S
C278 N282 1.427 . S
C279 H269 0.929 . S
C279 C277 1.433 . S
C279 N282 1.384 . S
C280 H271 0.929 . S
C280 C272 1.378 . S
C280 C275 1.350 . S
C281 H268 0.929 . S
C281 C273 1.433 . S
C281 N283 1.384 . S
N282 C278 1.427 . S
N282 C279 1.384 . S
N283 C275 1.427 . S
N283 C281 1.384 . S
H284 C290 0.930 . S
H285 C294 0.930 . S
H286 C299 0.929 . S
H287 C297 0.929 . S
H288 C292 0.929 . S
H289 C298 0.929 . S
C290 H284 0.930 . S
C290 C291 1.367 . S
C290 C298 1.378 . S
C291 C290 1.367 . S
C291 C299 1.433 . S
C292 H288 0.929 . S
C292 C294 1.378 . S
C292 C296 1.350 . S
C293 C296 1.463 . S
C293 C298 1.350 . S
C293 N301 1.427 . S
C294 H285 0.930 . S
C294 C292 1.378 . S
C294 C295 1.367 . S
C295 C294 1.367 . S
C295 C297 1.433 . S
C296 C292 1.350 . S
C296 C293 1.463 . S
C296 N300 1.427 . S
C297 H287 0.929 . S
C297 C295 1.433 . S
C297 N300 1.384 . S
C298 H289 0.929 . S
C298 C290 1.378 . S
C298 C293 1.350 . S
C299 H286 0.929 . S
C299 C291 1.433 . S
C299 N301 1.384 . S
N300 C296 1.427 . S
N300 C297 1.384 . S
N301 C293 1.427 . S
N301 C299 1.384 . S
H302 C308 0.930 . S
H303 C312 0.930 . S
H304 C317 0.929 . S
H305 C315 0.929 . S
H306 C310 0.929 . S
H307 C316 0.929 . S
C308 H302 0.930 . S
C308 C309 1.367 . S
C308 C316 1.378 . S
C309 C308 1.367 . S
C309 C317 1.433 . S
C310 H306 0.929 . S
C310 C312 1.378 . S
C310 C314 1.350 . S
C311 C314 1.463 . S
C311 C316 1.350 . S
C311 N319 1.427 . S
C312 H303 0.930 . S
C312 C310 1.378 . S
C312 C313 1.367 . S
C313 C312 1.367 . S
C313 C315 1.433 . S
C314 C310 1.350 . S
C314 C311 1.463 . S
C314 N318 1.427 . S
C315 H305 0.929 . S
C315 C313 1.433 . S
C315 N318 1.384 . S
C316 H307 0.929 . S
C316 C308 1.378 . S
C316 C311 1.350 . S
C317 H304 0.929 . S
C317 C309 1.433 . S
C317 N319 1.384 . S
N318 C314 1.427 . S
N318 C315 1.384 . S
N319 C311 1.427 . S
N319 C317 1.384 . S
H320 C326 0.930 . S
H321 C330 0.930 . S
H322 C335 0.929 . S
H323 C333 0.929 . S
H324 C328 0.929 . S
H325 C334 0.929 . S
C326 H320 0.930 . S
C326 C327 1.367 . S
C326 C334 1.378 . S
C327 C326 1.367 . S
C327 C335 1.433 . S
C328 H324 0.929 . S
C328 C330 1.378 . S
C328 C332 1.350 . S
C329 C332 1.463 . S
C329 C334 1.350 . S
C329 N337 1.427 . S
C330 H321 0.930 . S
C330 C328 1.378 . S
C330 C331 1.367 . S
C331 C330 1.367 . S
C331 C333 1.433 . S
C332 C328 1.350 . S
C332 C329 1.463 . S
C332 N336 1.427 . S
C333 H323 0.929 . S
C333 C331 1.433 . S
C333 N336 1.384 . S
C334 H325 0.929 . S
C334 C326 1.378 . S
C334 C329 1.350 . S
C335 H322 0.929 . S
C335 C327 1.433 . S
C335 N337 1.384 . S
N336 C332 1.427 . S
N336 C333 1.384 . S
N337 C329 1.427 . S
N337 C335 1.384 . S
H338 C344 0.930 . S
H339 C348 0.930 . S
H340 C353 0.929 . S
H341 C351 0.929 . S
H342 C346 0.929 . S
H343 C352 0.929 . S
C344 H338 0.930 . S
C344 C345 1.367 . S
C344 C352 1.378 . S
C345 C344 1.367 . S
C345 C353 1.433 . S
C346 H342 0.929 . S
C346 C348 1.378 . S
C346 C350 1.350 . S
C347 C350 1.463 . S
C347 C352 1.350 . S
C347 N355 1.427 . S
C348 H339 0.930 . S
C348 C346 1.378 . S
C348 C349 1.367 . S
C349 C348 1.367 . S
C349 C351 1.433 . S
C350 C346 1.350 . S
C350 C347 1.463 . S
C350 N354 1.427 . S
C351 H341 0.929 . S
C351 C349 1.433 . S
C351 N354 1.384 . S
C352 H343 0.929 . S
C352 C344 1.378 . S
C352 C347 1.350 . S
C353 H340 0.929 . S
C353 C345 1.433 . S
C353 N355 1.384 . S
N354 C350 1.427 . S
N354 C351 1.384 . S
N355 C347 1.427 . S
N355 C353 1.384 . S
H356 C362 0.930 1_554 S
H357 C366 0.930 . S
H358 C371 0.929 . S
H359 C369 0.929 . S
H360 C364 0.929 . S
H361 C370 0.929 . S
C362 H356 0.930 1_556 S
C362 C363 1.367 . S
C362 C370 1.378 . S
C363 C362 1.367 . S
C363 C371 1.433 . S
C364 H360 0.929 . S
C364 C366 1.378 . S
C364 C368 1.350 . S
C365 C368 1.463 . S
C365 C370 1.350 . S
C365 N373 1.427 . S
C366 H357 0.930 . S
C366 C364 1.378 . S
C366 C367 1.367 . S
C367 C366 1.367 . S
C367 C369 1.433 . S
C368 C364 1.350 . S
C368 C365 1.463 . S
C368 N372 1.427 . S
C369 H359 0.929 . S
C369 C367 1.433 . S
C369 N372 1.384 . S
C370 H361 0.929 . S
C370 C362 1.378 . S
C370 C365 1.350 . S
C371 H358 0.929 . S
C371 C363 1.433 . S
C371 N373 1.384 . S
N372 C368 1.427 . S
N372 C369 1.384 . S
N373 C365 1.427 . S
N373 C371 1.384 . S
H374 C380 0.930 . S
H375 C384 0.930 . S
H376 C389 0.929 . S
H377 C387 0.929 . S
H378 C382 0.929 . S
H379 C388 0.929 . S
C380 H374 0.930 . S
C380 C381 1.367 . S
C380 C388 1.378 . S
C381 C380 1.367 . S
C381 C389 1.433 . S
C382 H378 0.929 . S
C382 C384 1.378 . S
C382 C386 1.350 . S
C383 C386 1.463 . S
C383 C388 1.350 . S
C383 N391 1.427 . S
C384 H375 0.930 . S
C384 C382 1.378 . S
C384 C385 1.367 . S
C385 C384 1.367 . S
C385 C387 1.433 . S
C386 C382 1.350 . S
C386 C383 1.463 . S
C386 N390 1.427 . S
C387 H377 0.929 . S
C387 C385 1.433 . S
C387 N390 1.384 . S
C388 H379 0.929 . S
C388 C380 1.378 . S
C388 C383 1.350 . S
C389 H376 0.929 . S
C389 C381 1.433 . S
C389 N391 1.384 . S
N390 C386 1.427 . S
N390 C387 1.384 . S
N391 C383 1.427 . S
N391 C389 1.384 . S
H392 C398 0.936 . S
H393 C402 0.930 . S
H394 C407 0.929 . S
H395 C405 0.929 . S
H396 C400 0.929 . S
H397 C406 0.929 1_545 S
C398 H392 0.936 . S
C398 C399 1.367 . S
C398 C406 1.378 . S
C399 C398 1.367 . S
C399 C407 1.433 . S
C400 H396 0.929 . S
C400 C402 1.378 1_565 S
C400 C404 1.350 1_565 S
C401 C404 1.463 1_565 S
C401 C406 1.350 . S
C401 N409 1.427 . S
C402 H393 0.930 . S
C402 C400 1.378 1_545 S
C402 C403 1.367 . S
C403 C402 1.367 . S
C403 C405 1.433 . S
C404 C400 1.350 1_545 S
C404 C401 1.463 1_545 S
C404 N408 1.427 . S
C405 H395 0.929 . S
C405 C403 1.433 . S
C405 N408 1.384 . S
C406 H397 0.929 1_565 S
C406 C398 1.378 . S
C406 C401 1.350 . S
C407 H394 0.929 . S
C407 C399 1.433 . S
C407 N409 1.384 . S
N408 C404 1.427 . S
N408 C405 1.384 . S
N409 C401 1.427 . S
N409 C407 1.384 . S
H410 C416 0.930 . S
H411 C420 0.930 . S
H412 C425 0.929 . S
H413 C423 0.929 . S
H414 C418 0.929 . S
H415 C424 0.929 . S
C416 H410 0.930 . S
C416 C417 1.367 . S
C416 C424 1.378 . S
C417 C416 1.367 . S
C417 C425 1.433 . S
C418 H414 0.929 . S
C418 C420 1.378 . S
C418 C422 1.350 . S
C419 C422 1.463 1_545 S
C419 C424 1.350 . S
C419 N427 1.427 . S
C420 H411 0.930 . S
C420 C418 1.378 . S
C420 C421 1.367 . S
C421 C420 1.367 . S
C421 C423 1.433 . S
C422 C418 1.350 . S
C422 C419 1.463 1_565 S
C422 N426 1.427 . S
C423 H413 0.929 . S
C423 C421 1.433 . S
C423 N426 1.384 . S
C424 H415 0.929 . S
C424 C416 1.378 . S
C424 C419 1.350 . S
C425 H412 0.929 . S
C425 C417 1.433 . S
C425 N427 1.384 . S
N426 C422 1.427 . S
N426 C423 1.384 . S
N427 C419 1.427 . S
N427 C425 1.384 . S
H428 C434 0.930 . S
H429 C438 0.930 . S
H430 C443 0.929 . S
H431 C441 0.929 . S
H432 C436 0.929 . S
H433 C442 0.929 . S
C434 H428 0.930 . S
C434 C435 1.367 . S
C434 C442 1.378 . S
C435 C434 1.367 . S
C435 C443 1.433 . S
C436 H432 0.929 . S
C436 C438 1.378 . S
C436 C440 1.350 . S
C437 C440 1.463 1_565 S
C437 C442 1.350 . S
C437 N445 1.427 . S
C438 H429 0.930 . S
C438 C436 1.378 . S
C438 C439 1.367 . S
C439 C438 1.367 . S
C439 C441 1.433 . S
C440 C436 1.350 . S
C440 C437 1.463 1_545 S
C440 N444 1.427 1_545 S
C441 H431 0.929 . S
C441 C439 1.433 . S
C441 N444 1.384 1_545 S
C442 H433 0.929 . S
C442 C434 1.378 . S
C442 C437 1.350 . S
C443 H430 0.929 . S
C443 C435 1.433 . S
C443 N445 1.384 . S
N444 C440 1.427 1_565 S
N444 C441 1.384 1_565 S
N445 C437 1.427 . S
N445 C443 1.384 . S
H446 C452 0.930 . S
H447 C456 0.930 . S
H448 C461 0.929 . S
H449 C459 0.929 . S
H450 C454 0.929 . S
H451 C460 0.929 . S
C452 H446 0.930 . S
C452 C453 1.367 . S
C452 C460 1.378 1_545 S
C453 C452 1.367 . S
C453 C461 1.433 . S
C454 H450 0.929 . S
C454 C456 1.378 1_545 S
C454 C458 1.350 1_545 S
C455 C458 1.463 1_545 S
C455 C460 1.350 1_545 S
C455 N463 1.427 . S
C456 H447 0.930 . S
C456 C454 1.378 1_565 S
C456 C457 1.367 . S
C457 C456 1.367 . S
C457 C459 1.433 . S
C458 C454 1.350 1_565 S
C458 C455 1.463 1_565 S
C458 N462 1.427 . S
C459 H449 0.929 . S
C459 C457 1.433 . S
C459 N462 1.384 . S
C460 H451 0.929 . S
C460 C452 1.378 1_565 S
C460 C455 1.350 1_565 S
C461 H448 0.929 . S
C461 C453 1.433 . S
C461 N463 1.384 . S
N462 C458 1.427 . S
N462 C459 1.384 . S
N463 C455 1.427 . S
N463 C461 1.384 . S
H464 C470 0.930 . S
H465 C474 0.930 . S
H466 C479 0.929 . S
H467 C477 0.929 . S
H468 C472 0.929 . S
H469 C478 0.929 . S
C470 H464 0.930 . S
C470 C471 1.367 . S
C470 C478 1.378 . S
C471 C470 1.367 . S
C471 C479 1.433 . S
C472 H468 0.929 . S
C472 C474 1.378 . S
C472 C476 1.350 . S
C473 C476 1.463 . S
C473 C478 1.350 . S
C473 N481 1.427 . S
C474 H465 0.930 . S
C474 C472 1.378 . S
C474 C475 1.367 . S
C475 C474 1.367 . S
C475 C477 1.433 . S
C476 C472 1.350 . S
C476 C473 1.463 . S
C476 N480 1.427 . S
C477 H467 0.929 . S
C477 C475 1.433 . S
C477 N480 1.384 . S
C478 H469 0.929 . S
C478 C470 1.378 . S
C478 C473 1.350 . S
C479 H466 0.929 . S
C479 C471 1.433 . S
C479 N481 1.384 . S
N480 C476 1.427 . S
N480 C477 1.384 . S
N481 C473 1.427 . S
N481 C479 1.384 . S
H482 C488 0.930 . S
H483 C492 0.930 . S
H484 C497 0.929 . S
H485 C495 0.929 . S
H486 C490 0.929 . S
H487 C496 0.929 . S
C488 H482 0.930 . S
C488 C489 1.367 . S
C488 C496 1.378 . S
C489 C488 1.367 . S
C489 C497 1.433 . S
C490 H486 0.929 . S
C490 C492 1.378 . S
C490 C494 1.350 . S
C491 C494 1.463 . S
C491 C496 1.350 . S
C491 N499 1.427 . S
C492 H483 0.930 . S
C492 C490 1.378 . S
C492 C493 1.367 . S
C493 C492 1.367 . S
C493 C495 1.433 . S
C494 C490 1.350 . S
C494 C491 1.463 . S
C494 N498 1.427 . S
C495 H485 0.929 . S
C495 C493 1.433 . S
C495 N498 1.384 . S
C496 H487 0.929 . S
C496 C488 1.378 . S
C496 C491 1.350 . S
C497 H484 0.929 . S
C497 C489 1.433 . S
C497 N499 1.384 . S
N498 C494 1.427 . S
N498 C495 1.384 . S
N499 C491 1.427 . S
N499 C497 1.384 . S
H500 C506 0.930 . S
H501 C510 0.930 . S
H502 C515 0.929 . S
H503 C513 0.929 . S
H504 C508 0.929 . S
H505 C514 0.929 . S
C506 H500 0.930 . S
C506 C507 1.367 . S
C506 C514 1.378 . S
C507 C506 1.367 . S
C507 C515 1.433 . S
C508 H504 0.929 . S
C508 C510 1.378 . S
C508 C512 1.350 . S
C509 C512 1.463 . S
C509 C514 1.350 . S
C509 N517 1.427 . S
C510 H501 0.930 . S
C510 C508 1.378 . S
C510 C511 1.367 . S
C511 C510 1.367 . S
C511 C513 1.433 . S
C512 C508 1.350 . S
C512 C509 1.463 . S
C512 N516 1.427 . S
C513 H503 0.929 . S
C513 C511 1.433 . S
C513 N516 1.384 . S
C514 H505 0.929 . S
C514 C506 1.378 . S
C514 C509 1.350 . S
C515 H502 0.929 . S
C515 C507 1.433 . S
C515 N517 1.384 . S
N516 C512 1.427 . S
N516 C513 1.384 . S
N517 C509 1.427 . S
N517 C515 1.384 . S
H518 C524 0.930 . S
H519 C528 0.930 . S
H520 C533 0.929 . S
H521 C531 0.929 . S
H522 C526 0.929 . S
H523 C532 0.929 . S
C524 H518 0.930 . S
C524 C525 1.367 . S
C524 C532 1.378 . S
C525 C524 1.367 . S
C525 C533 1.433 . S
C526 H522 0.929 . S
C526 C528 1.378 . S
C526 C530 1.350 . S
C527 C530 1.463 . S
C527 C532 1.350 . S
C527 N535 1.427 . S
C528 H519 0.930 . S
C528 C526 1.378 . S
C528 C529 1.367 . S
C529 C528 1.367 . S
C529 C531 1.433 . S
C530 C526 1.350 . S
C530 C527 1.463 . S
C530 N534 1.427 . S
C531 H521 0.929 . S
C531 C529 1.433 . S
C531 N534 1.384 . S
C532 H523 0.929 . S
C532 C524 1.378 . S
C532 C527 1.350 . S
C533 H520 0.929 . S
C533 C525 1.433 . S
C533 N535 1.384 . S
N534 C530 1.427 . S
N534 C531 1.384 . S
N535 C527 1.427 . S
N535 C533 1.384 . S
H536 C542 0.930 . S
H537 C546 0.930 . S
H538 C551 0.929 . S
H539 C549 0.929 . S
H540 C544 0.929 . S
H541 C550 0.929 . S
C542 H536 0.930 . S
C542 C543 1.367 . S
C542 C550 1.378 . S
C543 C542 1.367 . S
C543 C551 1.433 . S
C544 H540 0.929 . S
C544 C546 1.378 . S
C544 C548 1.350 . S
C545 C548 1.463 . S
C545 C550 1.350 . S
C545 N553 1.427 . S
C546 H537 0.930 . S
C546 C544 1.378 . S
C546 C547 1.367 . S
C547 C546 1.367 . S
C547 C549 1.433 . S
C548 C544 1.350 . S
C548 C545 1.463 . S
C548 N552 1.427 . S
C549 H539 0.929 . S
C549 C547 1.433 . S
C549 N552 1.384 . S
C550 H541 0.929 . S
C550 C542 1.378 . S
C550 C545 1.350 . S
C551 H538 0.929 . S
C551 C543 1.433 . S
C551 N553 1.384 . S
N552 C548 1.427 . S
N552 C549 1.384 . S
N553 C545 1.427 . S
N553 C551 1.384 . S
H554 C560 0.930 . S
H555 C564 0.930 . S
H556 C569 0.929 . S
H557 C567 0.929 . S
H558 C562 0.929 . S
H559 C568 0.929 . S
C560 H554 0.930 . S
C560 C561 1.367 . S
C560 C568 1.378 . S
C561 C560 1.367 . S
C561 C569 1.433 . S
C562 H558 0.929 . S
C562 C564 1.378 . S
C562 C566 1.350 . S
C563 C566 1.463 . S
C563 C568 1.350 . S
C563 N571 1.427 . S
C564 H555 0.930 . S
C564 C562 1.378 . S
C564 C565 1.367 . S
C565 C564 1.367 . S
C565 C567 1.433 . S
C566 C562 1.350 . S
C566 C563 1.463 . S
C566 N570 1.427 . S
C567 H557 0.929 . S
C567 C565 1.433 . S
C567 N570 1.384 . S
C568 H559 0.929 . S
C568 C560 1.378 . S
C568 C563 1.350 . S
C569 H556 0.929 . S
C569 C561 1.433 . S
C569 N571 1.384 . S
N570 C566 1.427 . S
N570 C567 1.384 . S
N571 C563 1.427 . S
N571 C569 1.384 . S
H572 C578 0.930 . S
H573 C582 0.930 . S
H574 C587 0.929 . S
H575 C585 0.929 . S
H576 C580 0.929 . S
H577 C586 0.929 . S
C578 H572 0.930 . S
C578 C579 1.367 . S
C578 C586 1.378 . S
C579 C578 1.367 . S
C579 C587 1.433 . S
C580 H576 0.929 . S
C580 C582 1.378 . S
C580 C584 1.350 . S
C581 C584 1.463 . S
C581 C586 1.350 . S
C581 N589 1.427 . S
C582 H573 0.930 . S
C582 C580 1.378 . S
C582 C583 1.367 . S
C583 C582 1.367 . S
C583 C585 1.433 . S
C584 C580 1.350 . S
C584 C581 1.463 . S
C584 N588 1.427 . S
C585 H575 0.929 . S
C585 C583 1.433 . S
C585 N588 1.384 . S
C586 H577 0.929 . S
C586 C578 1.378 . S
C586 C581 1.350 . S
C587 H574 0.929 . S
C587 C579 1.433 . S
C587 N589 1.384 . S
N588 C584 1.427 . S
N588 C585 1.384 . S
N589 C581 1.427 . S
N589 C587 1.384 . S
H590 C596 0.930 . S
H591 C600 0.930 . S
H592 C605 0.929 . S
H593 C603 0.929 . S
H594 C598 0.929 . S
H595 C604 0.929 . S
C596 H590 0.930 . S
C596 C597 1.367 . S
C596 C604 1.378 . S
C597 C596 1.367 . S
C597 C605 1.433 . S
C598 H594 0.929 . S
C598 C600 1.378 . S
C598 C602 1.350 . S
C599 C602 1.463 . S
C599 C604 1.350 . S
C599 N607 1.427 . S
C600 H591 0.930 . S
C600 C598 1.378 . S
C600 C601 1.367 . S
C601 C600 1.367 . S
C601 C603 1.433 . S
C602 C598 1.350 . S
C602 C599 1.463 . S
C602 N606 1.427 . S
C603 H593 0.929 . S
C603 C601 1.433 . S
C603 N606 1.384 . S
C604 H595 0.929 . S
C604 C596 1.378 . S
C604 C599 1.350 . S
C605 H592 0.929 . S
C605 C597 1.433 . S
C605 N607 1.384 . S
N606 C602 1.427 . S
N606 C603 1.384 . S
N607 C599 1.427 . S
N607 C605 1.384 . S
C183 C10 1.542 . S
C187 C131 1.533 . S
C205 C95 1.536 . S
C201 C21 1.543 . S
C223 C118 1.605 . S
C219 C32 1.598 . S
C241 C106 1.490 . S
C237 C43 1.487 . S
C259 C175 1.533 . S
C255 C54 1.542 . S
C277 C139 1.536 . S
C273 C65 1.547 . S
C291 C76 1.595 . S
C295 C162 1.603 . S
C313 C150 1.486 . S
C309 C87 1.485 . S
C327 C5 1.498 . S
C331 C172 1.535 . S
C349 C142 1.514 . S
C345 C16 1.477 . S
C363 C27 1.572 . S
C367 C161 1.602 . S
C381 C37 1.456 . S
C385 C147 1.464 . S
C403 C128 1.534 . S
C399 C49 1.502 . S
C417 C60 1.475 . S
C421 C98 1.514 . S
C439 C117 1.602 . S
C435 C71 1.574 . S
C457 C103 1.462 . S
C453 C81 1.458 . S
C475 C153 1.529 . S
C471 C4 1.518 . S
C493 C169 1.514 . S
C489 C15 1.511 . S
C507 C26 1.495 . S
C511 C140 1.503 . S
C529 C164 1.495 . S
C525 C38 1.465 . S
C547 C109 1.527 . S
C543 C48 1.522 . S
C561 C59 1.510 . S
C565 C125 1.516 . S
C579 C70 1.497 . S
C583 C96 1.502 . S
C597 C82 1.458 . S
C601 C120 1.496 . S
