# Generated by pormake.
# Topology anh, (6,3)-cn, num edge types: 1
# Building blocks:
#     Node 0, Type 0, BuildingBlock: BETFEN_clean_sbu_0, # of connection points: 6
#     Node 1, Type 0, BuildingBlock: BETFEN_clean_sbu_0, # of connection points: 6
#     Node 2, Type 0, BuildingBlock: BETFEN_clean_sbu_0, # of connection points: 6
#     Node 3, Type 1, BuildingBlock: QEWDON_clean_linker_0, # of connection points: 3
#     Node 4, Type 1, BuildingBlock: QEWDON_clean_linker_0, # of connection points: 3
#     Node 5, Type 1, BuildingBlock: QEWDON_clean_linker_0, # of connection points: 3
#     Node 6, Type 1, BuildingBlock: QEWDON_clean_linker_0, # of connection points: 3
#     Node 7, Type 1, BuildingBlock: QEWDON_clean_linker_0, # of connection points: 3
#     Node 8, Type 1, BuildingBlock: QEWDON_clean_linker_0, # of connection points: 3
#     Edge 9, Type (0, 1), BuildingBlock: XIVTED_clean_linker_0, # of connection points: 2
#     Edge 10, Type (0, 1), BuildingBlock: XIVTED_clean_linker_0, # of connection points: 2
#     Edge 11, Type (0, 1), BuildingBlock: XIVTED_clean_linker_0, # of connection points: 2
#     Edge 12, Type (0, 1), BuildingBlock: XIVTED_clean_linker_0, # of connection points: 2
#     Edge 13, Type (0, 1), BuildingBlock: XIVTED_clean_linker_0, # of connection points: 2
#     Edge 14, Type (0, 1), BuildingBlock: XIVTED_clean_linker_0, # of connection points: 2
#     Edge 15, Type (0, 1), BuildingBlock: XIVTED_clean_linker_0, # of connection points: 2
#     Edge 16, Type (0, 1), BuildingBlock: XIVTED_clean_linker_0, # of connection points: 2
#     Edge 17, Type (0, 1), BuildingBlock: XIVTED_clean_linker_0, # of connection points: 2
#     Edge 18, Type (0, 1), BuildingBlock: XIVTED_clean_linker_0, # of connection points: 2
#     Edge 19, Type (0, 1), BuildingBlock: XIVTED_clean_linker_0, # of connection points: 2
#     Edge 20, Type (0, 1), BuildingBlock: XIVTED_clean_linker_0, # of connection points: 2
#     Edge 21, Type (0, 1), BuildingBlock: XIVTED_clean_linker_0, # of connection points: 2
#     Edge 22, Type (0, 1), BuildingBlock: XIVTED_clean_linker_0, # of connection points: 2
#     Edge 23, Type (0, 1), BuildingBlock: XIVTED_clean_linker_0, # of connection points: 2
#     Edge 24, Type (0, 1), BuildingBlock: XIVTED_clean_linker_0, # of connection points: 2
#     Edge 25, Type (0, 1), BuildingBlock: XIVTED_clean_linker_0, # of connection points: 2
#     Edge 26, Type (0, 1), BuildingBlock: XIVTED_clean_linker_0, # of connection points: 2
# Relax obj value: 0.139
# Max RMSD: 0.176
# Mean RMSD: 0.128
data_MOF--net-anh--node1-BETFEN_clean_sbu_0--node2-QEWDON_clean_linker_0--edge1-XIVTED_clean_linker_0
_symmetry_space_group_name_H-M    P1
_symmetry_Int_Tables_number       1
_symmetry_cell_setting            triclinic
loop_
_symmetry_equiv_pos_as_xyz
'x, y, z'
_cell_length_a     31.652526
_cell_length_b     32.738797
_cell_length_c     48.471146
_cell_angle_alpha  95.241562
_cell_angle_beta   94.583818
_cell_angle_gamma 102.12417
loop_
_atom_site_label
_atom_site_type_symbol
_atom_site_fract_x
_atom_site_fract_y
_atom_site_fract_z
_atom_type_partial_charge
Pr0 Pr 0.07387 0.56558 0.15456 0.0
Pr1 Pr 0.09566 0.6575 0.14482 0.0
C2 C 0.0412 0.49061 0.17225 0.0
C3 C 0.99799 0.46312 0.17221 0.0
C4 C 0.96177 0.47104 0.15673 0.0
C5 C 0.92077 0.44476 0.15678 0.0
C6 C 0.91521 0.41013 0.17239 0.0
C7 C 0.95163 0.40266 0.18811 0.0
C8 C 0.99266 0.42894 0.18798 0.0
C9 C 0.07968 0.57954 0.09889 0.0
C10 C 0.99311 0.61624 0.14392 0.0
C11 C 0.12699 0.73415 0.12918 0.0
C12 C 0.16798 0.76609 0.13334 0.0
C13 C 0.16679 0.80868 0.13393 0.0
C14 C 0.20517 0.83965 0.13905 0.0
C15 C 0.24563 0.82862 0.14363 0.0
C16 C 0.24664 0.78571 0.14273 0.0
C17 C 0.20817 0.75475 0.13773 0.0
C18 C 0.08753 0.64372 0.2002 0.0
C19 C 0.17638 0.60588 0.15307 0.0
O20 O 0.04855 0.52625 0.18827 0.0
O21 O 0.05599 0.49449 0.14798 0.0
O22 O 0.06114 0.59919 0.11601 0.0
O23 O 0.09455 0.54997 0.10989 0.0
O24 O 1.0208 0.64496 0.13313 0.0
O25 O 1.00645 0.58601 0.15612 0.0
O26 O 0.12685 0.69904 0.11388 0.0
O27 O 0.10599 0.72844 0.15114 0.0
O28 O 0.10765 0.62426 0.18392 0.0
O29 O 0.0723 0.67231 0.18837 0.0
O30 O 0.14926 0.57611 0.16338 0.0
O31 O 0.16275 0.63714 0.14239 0.0
H32 H 0.96522 0.49753 0.14459 0.0
H33 H 0.89334 0.45181 0.14479 0.0
H34 H 0.94858 0.37608 0.20014 0.0
H35 H 1.02029 0.42246 0.20011 0.0
H36 H 0.13603 0.81803 0.13082 0.0
H37 H 0.20297 0.87231 0.14008 0.0
H38 H 0.27717 0.77598 0.14584 0.0
H39 H 0.2098 0.72201 0.13751 0.0
Pr40 Pr 0.60324 0.12747 0.49882 0.0
Pr41 Pr 0.50694 0.10681 0.50429 0.0
C42 C 0.6832 0.15848 0.48418 0.0
C43 C 0.70919 0.20002 0.47985 0.0
C44 C 0.75368 0.2107 0.48897 0.0
C45 C 0.77855 0.25046 0.4859 0.0
C46 C 0.75944 0.28042 0.47356 0.0
C47 C 0.7148 0.26931 0.46419 0.0
C48 C 0.68993 0.22965 0.46742 0.0
C49 C 0.58202 0.12012 0.55291 0.0
C50 C 0.55071 0.20839 0.50646 0.0
C51 C 0.42524 0.07592 0.51627 0.0
C52 C 0.39454 1.03471 0.51293 0.0
C53 C 0.3498 1.03264 0.50867 0.0
C54 C 0.32034 0.9937 0.5042 0.0
C55 C 0.3351 0.95597 0.50389 0.0
C56 C 0.38008 0.95829 0.5085 0.0
C57 C 0.40947 0.99726 0.5129 0.0
C58 C 0.52813 0.11435 0.45005 0.0
C59 C 0.561 1.02617 0.50065 0.0
O60 O 0.6495 0.14239 0.46608 0.0
O61 O 0.67564 0.15275 0.50982 0.0
O62 O 0.56405 0.13915 0.53554 0.0
O63 O 0.61357 0.10552 0.54303 0.0
O64 O 0.51805 0.18101 0.51453 0.0
O65 O 0.58413 0.19481 0.49686 0.0
O66 O 0.45953 0.0806 0.53421 0.0
O67 O 0.43396 0.09259 0.49333 0.0
O68 O 0.54588 0.09475 0.46719 0.0
O69 O 0.49758 0.12984 0.46044 0.0
O70 O 0.59477 1.05309 0.49338 0.0
O71 O 0.526 1.03972 0.50744 0.0
H72 H 0.76911 0.18841 0.49879 0.0
H73 H 0.81257 0.25798 0.4938 0.0
H74 H 0.69898 0.29121 0.45424 0.0
H75 H 0.65558 0.22226 0.4603 0.0
H76 H 0.33764 0.06119 0.50841 0.0
H77 H 0.28607 0.99322 0.5003 0.0
H78 H 0.39265 0.93 0.50877 0.0
H79 H 0.44387 0.99811 0.51606 0.0
Pr80 Pr 0.5702 0.56668 0.81446 0.0
Pr81 Pr 0.58928 0.65762 0.83787 0.0
C82 C 0.57113 0.49177 0.78739 0.0
C83 C 0.59697 0.46103 0.79385 0.0
C84 C 0.62225 0.46635 0.81962 0.0
C85 C 0.64172 0.43428 0.82782 0.0
C86 C 0.63649 0.39667 0.81022 0.0
C87 C 0.61385 0.39291 0.78355 0.0
C88 C 0.59404 0.42485 0.77548 0.0
C89 C 0.57498 0.57899 0.87237 0.0
C90 C 0.67438 0.61931 0.82927 0.0
C91 C 0.59025 0.73052 0.86863 0.0
C92 C 0.55775 0.75516 0.87469 0.0
C93 C 0.52194 0.7533 0.85528 0.0
C94 C 0.49144 0.77725 0.86097 0.0
C95 C 0.49585 0.80314 0.88635 0.0
C96 C 0.53092 0.80344 0.90622 0.0
C97 C 0.56167 0.77969 0.90037 0.0
C98 C 0.5844 0.64474 0.77971 0.0
C99 C 0.48573 0.60526 0.82324 0.0
O100 O 0.59271 0.52716 0.78019 0.0
O101 O 0.54311 0.49693 0.80512 0.0
O102 O 0.60057 0.59962 0.85751 0.0
O103 O 0.5469 0.54887 0.85752 0.0
O104 O 0.66052 0.64915 0.84363 0.0
O105 O 0.64664 0.58764 0.81432 0.0
O106 O 0.58485 0.69448 0.8789 0.0
O107 O 0.60116 0.72855 0.84313 0.0
O108 O 0.55861 0.62442 0.79463 0.0
O109 O 0.61316 0.67445 0.79462 0.0
O110 O 0.49977 0.5777 0.80676 0.0
O111 O 0.51354 0.63516 0.83961 0.0
H112 H 0.62509 0.49445 0.83394 0.0
H113 H 0.65901 0.43799 0.84842 0.0
H114 H 0.60871 0.36403 0.76969 0.0
H115 H 0.57475 0.42043 0.7555 0.0
H116 H 0.51795 0.73388 0.8355 0.0
H117 H 0.46538 0.77663 0.84494 0.0
H118 H 0.53497 0.82246 0.92613 0.0
H119 H 0.58873 0.78075 0.9158 0.0
H120 H 0.57983 0.17114 0.23959 0.0
C121 C 0.55858 0.14228 0.22965 0.0
C122 C 0.5425 0.11007 0.24584 0.0
C123 C 0.54575 0.13813 0.2009 0.0
H124 H 0.49968 1.04955 0.24571 0.0
C125 C 0.51375 0.07338 0.23297 0.0
C126 C 0.50032 0.06868 0.20431 0.0
C127 C 0.51698 0.10106 0.18841 0.0
C128 C 0.55932 0.17369 0.18423 0.0
H129 H 0.50718 0.09767 0.16623 0.0
C130 C 0.60293 0.19598 0.18615 0.0
C131 C 0.61521 0.22936 0.1699 0.0
C132 C 0.52805 0.18567 0.16631 0.0
H133 H 0.49419 0.16959 0.16476 0.0
C134 C 0.53989 0.21898 0.15055 0.0
H135 H 0.62734 0.18657 0.19961 0.0
C136 C 0.58305 0.24068 0.15227 0.0
H137 H 0.59116 0.26671 0.13997 0.0
H138 H 0.51546 0.22813 0.13698 0.0
H139 H 0.55514 0.64134 0.5615 0.0
C140 C 0.55636 0.61011 0.55278 0.0
C141 C 0.55728 0.57945 0.57125 0.0
C142 C 0.55517 0.6005 0.5237 0.0
H143 H 0.55703 0.51451 0.57522 0.0
C144 C 0.55607 0.53775 0.56075 0.0
C145 C 0.55467 0.52541 0.53214 0.0
C146 C 0.5554 0.55734 0.51373 0.0
C147 C 0.55151 0.63497 0.50434 0.0
H148 H 0.55552 0.54784 0.49183 0.0
C149 C 0.55929 0.67974 0.51351 0.0
C150 C 0.55433 0.71 0.49442 0.0
C151 C 0.53809 0.62276 0.4758 0.0
H152 H 0.5298 0.59015 0.46728 0.0
C153 C 0.53375 0.65213 0.45727 0.0
H154 H 0.56988 0.69157 0.53502 0.0
C155 C 0.54187 0.69489 0.46633 0.0
H156 H 0.53763 0.71643 0.45116 0.0
H157 H 0.52345 0.64148 0.43549 0.0
H158 H 0.1141 0.62155 0.88412 0.0
C159 C 0.08029 0.61911 0.87703 0.0
C160 C 0.05047 0.61862 0.89706 0.0
C161 C 0.06687 0.6186 0.84844 0.0
H162 H 0.98405 0.61799 0.90406 0.0
C163 C 1.00703 0.61832 0.8886 0.0
C164 C 0.99252 0.61776 0.86051 0.0
C165 C 1.02217 0.61646 0.84048 0.0
C166 C 0.0995 0.62286 0.82723 0.0
H167 H 1.0102 0.61486 0.81879 0.0
C168 C 0.13978 0.61042 0.83142 0.0
C169 C 0.17011 0.61579 0.81142 0.0
C170 C 0.09111 0.64124 0.80271 0.0
H171 H 0.06217 0.65331 0.79891 0.0
C172 C 0.12057 0.64564 0.78274 0.0
H173 H 0.14766 0.5961 0.84985 0.0
C174 C 0.15964 0.63296 0.78696 0.0
H175 H 0.18237 0.6378 0.77138 0.0
H176 H 0.1134 0.65975 0.76407 0.0
H177 H 1.00981 0.60618 0.40902 0.0
C178 C 0.03788 0.62859 0.41956 0.0
C179 C 0.07223 0.64502 0.40425 0.0
C180 C 0.03889 0.64232 0.44804 0.0
H181 H 0.13286 0.68987 0.40537 0.0
C182 C 0.10768 0.67555 0.41759 0.0
C183 C 0.10916 0.69022 0.44586 0.0
C184 C 0.07508 0.67271 0.46103 0.0
C185 C 1.00084 0.62772 0.46375 0.0
H186 H 0.07651 0.68327 0.48299 0.0
C187 C 0.97692 0.58562 0.4597 0.0
C188 C 0.94037 0.57281 0.47431 0.0
C189 C 0.98753 0.65668 0.4826 0.0
H190 H 1.00428 0.68944 0.48574 0.0
C191 C 0.9519 0.64406 0.49732 0.0
H192 H 0.98653 0.56298 0.44515 0.0
C193 C 0.92855 0.60255 0.49331 0.0
H194 H 0.90133 0.59367 0.50534 0.0
H195 H 0.94221 0.66665 0.51185 0.0
H196 H 0.43195 0.05691 0.73998 0.0
C197 C 0.45847 0.07497 0.75459 0.0
C198 C 0.49862 0.09128 0.7451 0.0
C199 C 0.45296 0.08094 0.78304 0.0
H200 H 0.56229 0.12993 0.75596 0.0
C201 C 0.53262 0.11498 0.76401 0.0
C202 C 0.52748 0.12236 0.79242 0.0
C203 C 0.48771 0.10412 0.80185 0.0
C204 C 0.41123 0.06242 0.79341 0.0
H205 H 0.48316 0.10895 0.82373 0.0
C206 C 0.41122 1.03836 0.81586 0.0
C207 C 0.37212 1.01887 0.82552 0.0
C208 C 0.37151 0.06773 0.78082 0.0
H209 H 0.37074 0.08639 0.76352 0.0
C210 C 0.33246 1.0491 0.79066 0.0
H211 H 0.44181 1.03302 0.82488 0.0
C212 C 0.33263 1.02444 0.81276 0.0
H213 H 0.30205 1.00944 0.81969 0.0
H214 H 0.30195 1.05331 0.78089 0.0
H215 H 0.55655 0.62813 0.09315 0.0
C216 C 0.58915 0.62535 0.09989 0.0
C217 C 0.6186 0.62404 0.07979 0.0
C218 C 0.6024 0.62523 0.12844 0.0
H219 H 0.68438 0.62204 0.07264 0.0
C220 C 0.66171 0.62312 0.08819 0.0
C221 C 0.67599 0.6229 0.11621 0.0
C222 C 0.64598 0.6226 0.13614 0.0
C223 C 0.57194 0.63048 0.15025 0.0
H224 H 0.65723 0.62137 0.15765 0.0
C225 C 0.52602 0.61795 0.14442 0.0
C226 C 0.49828 0.62431 0.16513 0.0
C227 C 0.58888 0.64991 0.17719 0.0
H228 H 0.62335 0.66198 0.18255 0.0
C229 C 0.56158 0.6554 0.19774 0.0
H230 H 0.51157 0.6028 0.12408 0.0
C231 C 0.51674 0.64266 0.19185 0.0
H232 H 0.49636 0.64834 0.20807 0.0
H233 H 0.57531 0.67036 0.21828 0.0
H234 H 0.22141 0.5567 0.18149 0.0
H235 H 0.44864 0.64629 0.1222 0.0
H236 H 0.23817 0.65175 0.12478 0.0
H237 H 0.43812 0.58041 0.19525 0.0
H238 H 0.36938 0.63866 0.11736 0.0
H239 H 0.29878 0.55615 0.1818 0.0
C240 C 0.24124 0.57734 0.16903 0.0
C241 C 0.22314 0.60451 0.15324 0.0
C242 C 0.3844 0.62551 0.13428 0.0
C243 C 0.31184 0.6037 0.15328 0.0
C244 C 0.42956 0.62949 0.13688 0.0
C245 C 0.45003 0.61408 0.1592 0.0
C246 C 0.35944 0.60556 0.15398 0.0
C247 C 0.42371 0.59303 0.17784 0.0
C248 C 0.28546 0.57704 0.16924 0.0
C249 C 0.25063 0.63053 0.13747 0.0
N250 N 0.37992 0.58949 0.17486 0.0
N251 N 0.29346 0.62944 0.13787 0.0
H252 H 0.73414 0.35581 0.47977 0.0
H253 H 0.96897 0.49873 0.46844 0.0
H254 H 0.84475 0.30348 0.46213 0.0
H255 H 0.8519 0.54628 0.47081 0.0
H256 H 0.92493 0.42698 0.46581 0.0
H257 H 0.77751 0.42577 0.47672 0.0
C258 C 0.7674 0.35884 0.47495 0.0
C259 C 0.78561 0.32336 0.47116 0.0
C260 C 0.90893 0.45316 0.46676 0.0
C261 C 0.83604 0.4041 0.46818 0.0
C262 C 0.93403 0.49413 0.4681 0.0
C263 C 0.91424 0.52875 0.47019 0.0
C264 C 0.86372 0.44675 0.4676 0.0
C265 C 0.86878 0.52074 0.46987 0.0
C266 C 0.7923 0.39899 0.47338 0.0
C267 C 0.82936 0.32979 0.46562 0.0
N268 N 0.84522 0.48076 0.46882 0.0
N269 N 0.85309 0.36932 0.4644 0.0
H270 H 0.5168 0.88404 0.91199 0.0
H271 H 0.32372 0.93889 0.82406 0.0
H272 H 0.40815 0.7904 0.87015 0.0
H273 H 0.4246 1.03077 0.8745 0.0
H274 H 0.34241 0.88431 0.85075 0.0
H275 H 0.4734 0.9367 0.90917 0.0
C276 C 0.48343 0.87417 0.90283 0.0
C277 C 0.46663 0.8328 0.89052 0.0
C278 C 0.35973 0.91657 0.85653 0.0
C279 C 0.41704 0.89365 0.88639 0.0
C280 C 0.34882 0.94781 0.84139 0.0
C281 C 0.37351 0.98911 0.84662 0.0
C282 C 0.39587 0.92682 0.8767 0.0
C283 C 0.40562 0.99898 0.86933 0.0
C284 C 0.45864 0.90449 0.90107 0.0
C285 C 0.42308 0.82224 0.87894 0.0
N286 N 0.4166 0.96788 0.88312 0.0
N287 N 0.40014 0.85267 0.87654 0.0
H288 H 0.92553 0.56281 0.16361 0.0
H289 H 0.74509 0.67706 0.10049 0.0
H290 H 0.95353 0.67287 0.11979 0.0
H291 H 0.71388 0.57318 0.14934 0.0
H292 H 0.82187 0.67642 0.10882 0.0
H293 H 0.84856 0.56594 0.15965 0.0
C294 C 0.91561 0.58767 0.15319 0.0
C295 C 0.94625 0.61758 0.14195 0.0
C296 C 0.79845 0.65382 0.1179 0.0
C297 C 0.85802 0.62132 0.13741 0.0
C298 C 0.75451 0.65416 0.11312 0.0
C299 C 0.72296 0.6249 0.12405 0.0
C300 C 0.81137 0.62378 0.13364 0.0
C301 C 0.73714 0.59634 0.14058 0.0
C302 C 0.87161 0.58946 0.151 0.0
C303 C 0.93129 0.64905 0.12874 0.0
N304 N 0.78031 0.59622 0.14467 0.0
N305 N 0.88841 0.64998 0.1268 0.0
H306 H 0.34473 0.88465 0.47267 0.0
H307 H 0.10199 0.75774 0.48181 0.0
H308 H 0.25381 0.93243 0.52152 0.0
H309 H 0.19627 0.70607 0.43855 0.0
H310 H 0.15821 0.82029 0.49864 0.0
H311 H 0.29198 0.81791 0.46179 0.0
C312 C 0.31388 0.88105 0.48139 0.0
C313 C 0.3038 0.91448 0.49801 0.0
C314 C 0.16673 0.79514 0.48565 0.0
C315 C 0.24274 0.83798 0.4852 0.0
C316 C 0.13467 0.75916 0.4762 0.0
C317 C 0.14425 0.72647 0.45861 0.0
C318 C 0.20878 0.79874 0.47739 0.0
C319 C 0.18713 0.73067 0.45169 0.0
C320 C 0.28362 0.84291 0.47501 0.0
C321 C 0.26286 0.90793 0.50825 0.0
N322 N 0.21766 0.76619 0.46094 0.0
N323 N 0.23385 0.87058 0.5016 0.0
H324 H 0.61805 0.36771 0.85975 0.0
H325 H 0.61686 0.13972 0.7918 0.0
H326 H 0.67669 0.33859 0.78517 0.0
H327 H 0.51542 0.17883 0.83515 0.0
H328 H 0.66535 0.20739 0.80879 0.0
H329 H 0.61063 0.29495 0.86967 0.0
C330 C 0.63114 0.3465 0.84608 0.0
C331 C 0.64679 0.35874 0.82112 0.0
C332 C 0.63292 0.20029 0.81534 0.0
C333 C 0.63791 0.27565 0.83227 0.0
C334 C 0.60498 0.1619 0.80545 0.0
C335 C 0.56106 0.15433 0.81071 0.0
C336 C 0.61702 0.23075 0.83107 0.0
C337 C 0.54848 0.1833 0.82982 0.0
C338 C 0.62671 0.30493 0.85174 0.0
C339 C 0.66327 0.32995 0.80422 0.0
N340 N 0.57603 0.22066 0.83877 0.0
N341 N 0.65744 0.28932 0.80974 0.0
H342 H 0.62097 0.98223 0.48104 0.0
H343 H 0.50896 0.75575 0.52814 0.0
H344 H 0.50424 0.96288 0.5226 0.0
H345 H 0.61279 0.77329 0.47534 0.0
H346 H 0.51108 0.83198 0.53084 0.0
H347 H 0.62218 0.90761 0.48254 0.0
C348 C 0.5955 0.96254 0.49053 0.0
C349 C 0.56227 0.97979 0.50152 0.0
C350 C 0.53392 0.81934 0.519 0.0
C351 C 0.56374 0.89267 0.50359 0.0
C352 C 0.53312 0.77565 0.51779 0.0
C353 C 0.56135 0.75749 0.50195 0.0
C354 C 0.56325 0.84583 0.50431 0.0
C355 C 0.59082 0.78543 0.48823 0.0
C356 C 0.59623 0.91955 0.49138 0.0
C357 C 0.53041 0.95169 0.51355 0.0
N358 N 0.59095 0.82754 0.48971 0.0
N359 N 0.53199 0.9101 0.51429 0.0
H360 H 0.71641 0.56344 0.80295 0.0
H361 H 0.94876 0.67282 0.88418 0.0
H362 H 0.74081 0.6772 0.85978 0.0
H363 H 0.93187 0.56925 0.8197 0.0
H364 H 0.87239 0.67456 0.87475 0.0
H365 H 0.79438 0.56451 0.80802 0.0
C366 C 0.73808 0.58877 0.81637 0.0
C367 C 0.72179 0.62026 0.83101 0.0
C368 C 0.88522 0.65151 0.86249 0.0
C369 C 0.81123 0.62149 0.83698 0.0
C370 C 0.92889 0.65043 0.86794 0.0
C371 C 0.9467 0.6206 0.85287 0.0
C372 C 0.85861 0.62233 0.84189 0.0
C373 C 0.91949 0.5928 0.83178 0.0
C374 C 0.78265 0.58934 0.81923 0.0
C375 C 0.75162 0.6522 0.8481 0.0
N376 N 0.87669 0.59406 0.82708 0.0
N377 N 0.79465 0.65184 0.85068 0.0
H378 H 0.31625 0.82961 0.18084 0.0
H379 H 0.4317 0.06662 0.16534 0.0
H380 H 0.26792 0.90367 0.1214 0.0
H381 H 0.49035 0.98617 0.21487 0.0
H382 H 0.37257 1.00682 0.14804 0.0
H383 H 0.38098 0.88588 0.19276 0.0
C384 C 0.31938 0.85745 0.17003 0.0
C385 C 0.28629 0.86182 0.15012 0.0
C386 C 0.39855 1.00214 0.16252 0.0
C387 C 0.36028 0.92689 0.16412 0.0
C388 C 0.4326 1.03627 0.17228 0.0
C389 C 0.46618 1.0316 0.19171 0.0
C390 C 0.39773 0.96297 0.17237 0.0
C391 C 0.46489 0.99151 0.20028 0.0
C392 C 0.35633 0.88973 0.17699 0.0
C393 C 0.29208 0.89909 0.13723 0.0
N394 N 0.43112 0.95888 0.19071 0.0
N395 N 0.32816 0.93021 0.14455 0.0
H396 H 0.49108 0.24988 0.52881 0.0
H397 H 0.6055 0.48559 0.49805 0.0
H398 H 0.60901 0.27522 0.48868 0.0
H399 H 0.49737 0.45722 0.54683 0.0
H400 H 0.6047 0.40952 0.49063 0.0
H401 H 0.49074 0.32502 0.53232 0.0
C402 C 0.51698 0.27102 0.52063 0.0
C403 C 0.55015 0.25521 0.50844 0.0
C404 C 0.58088 0.4199 0.50276 0.0
C405 C 0.54983 0.34322 0.51234 0.0
C406 C 0.58105 0.46355 0.50677 0.0
C407 C 0.55135 0.47863 0.52307 0.0
C408 C 0.55055 0.39042 0.5149 0.0
C409 C 0.52104 0.44777 0.53414 0.0
C410 C 0.51676 0.31435 0.52267 0.0
C411 C 0.58265 0.28523 0.49833 0.0
N412 N 0.52151 0.40588 0.52993 0.0
N413 N 0.58163 0.32725 0.50046 0.0
H414 H 0.44497 0.65098 0.85856 0.0
H415 H 0.2094 0.56929 0.77592 0.0
H416 H 0.41805 0.55524 0.78824 0.0
H417 H 0.23095 0.64126 0.85673 0.0
H418 H 0.28536 0.56319 0.78018 0.0
H419 H 0.36714 0.64838 0.85807 0.0
C420 C 0.42275 0.62931 0.84302 0.0
C421 C 0.4383 0.60335 0.82333 0.0
C422 C 0.27345 0.57988 0.79717 0.0
C423 C 0.34874 0.60035 0.82266 0.0
C424 C 0.23005 0.5833 0.79476 0.0
C425 C 0.21382 0.60585 0.816 0.0
C426 C 0.30127 0.59974 0.82082 0.0
C427 C 0.24202 0.62334 0.83996 0.0
C428 C 0.3782 0.62774 0.84285 0.0
C429 C 0.40771 0.57588 0.8038 0.0
N430 N 0.28448 0.6204 0.84157 0.0
N431 N 0.36454 0.57532 0.80384 0.0
H432 H 0.85465 0.38033 0.1276 0.0
H433 H 0.67563 0.25584 0.21565 0.0
H434 H 0.87664 0.37478 0.21607 0.0
H435 H 0.65985 0.25575 0.12637 0.0
H436 H 0.74973 0.29793 0.21657 0.0
H437 H 0.78309 0.3344 0.12714 0.0
C438 C 0.84435 0.36962 0.14699 0.0
C439 C 0.87171 0.38166 0.17193 0.0
C440 C 0.73005 0.28855 0.19679 0.0
C441 C 0.78964 0.32847 0.17153 0.0
C442 C 0.68783 0.26431 0.19623 0.0
C443 C 0.66125 0.25253 0.17092 0.0
C444 C 0.7458 0.30108 0.17186 0.0
C445 C 0.67875 0.26477 0.14644 0.0
C446 C 0.80353 0.3431 0.14668 0.0
C447 C 0.85682 0.36606 0.19631 0.0
N448 N 0.71971 0.28844 0.14755 0.0
N449 N 0.81674 0.34043 0.19552 0.0
H450 H 0.11367 0.53767 0.05749 0.0
H451 H 0.03381 0.66988 0.94046 0.0
H452 H 0.05021 0.64056 0.07365 0.0
H453 H 0.09685 0.56741 0.92194 0.0
H454 H 0.04635 0.66347 0.99002 0.0
H455 H 0.11372 0.5511 0.00847 0.0
C456 C 0.0999 0.56315 0.05072 0.0
C457 C 0.08155 0.58781 0.06953 0.0
C458 C 0.05784 0.64254 0.97523 0.0
C459 C 0.08163 0.60345 0.01371 0.0
C460 C 0.05069 0.64623 0.94692 0.0
C461 C 0.06392 0.61883 0.92711 0.0
C462 C 0.07811 0.61095 0.98391 0.0
C463 C 0.08617 0.58915 0.9366 0.0
C464 C 0.10001 0.57085 0.02279 0.0
C465 C 0.06438 0.62057 0.05978 0.0
N466 N 0.09214 0.58563 0.96436 0.0
N467 N 0.06468 0.62729 0.03257 0.0
H468 H 0.5759 0.06894 0.41995 0.0
H469 H 0.53734 0.17805 0.28151 0.0
H470 H 0.5036 0.16634 0.41436 0.0
H471 H 0.5667 1.05509 0.28013 0.0
H472 H 0.54128 0.18293 0.33238 0.0
H473 H 0.58792 0.07174 0.37059 0.0
C474 C 0.56289 0.0911 0.40838 0.0
C475 C 0.5383 0.1171 0.42104 0.0
C476 C 0.54738 0.15509 0.32096 0.0
C477 C 0.55233 0.12087 0.36503 0.0
C478 C 0.54554 0.15247 0.29197 0.0
C479 C 0.5515 0.11602 0.27662 0.0
C480 C 0.55556 0.12118 0.33471 0.0
C481 C 0.56148 0.08356 0.29123 0.0
C482 C 0.56969 0.09265 0.38029 0.0
C483 C 0.52231 0.14541 0.40525 0.0
N484 N 0.563 0.08679 0.31947 0.0
N485 N 0.52955 0.14652 0.37806 0.0
H486 H 0.63272 0.68886 0.74322 0.0
H487 H 0.51004 0.53652 0.60867 0.0
H488 H 0.52678 0.58283 0.74627 0.0
H489 H 0.60875 0.6479 0.60372 0.0
H490 H 0.51617 0.55321 0.65916 0.0
H491 H 0.62513 0.67464 0.69225 0.0
C492 C 0.60784 0.66265 0.73315 0.0
C493 C 0.58029 0.63704 0.74895 0.0
C494 C 0.53644 0.57413 0.64708 0.0
C495 C 0.57145 0.62048 0.69075 0.0
C496 C 0.53308 0.5645 0.61822 0.0
C497 C 0.5591 0.59071 0.6019 0.0
C498 C 0.56621 0.61021 0.65992 0.0
C499 C 0.58786 0.62694 0.61545 0.0
C500 C 0.60347 0.65456 0.70407 0.0
C501 C 0.54864 0.60345 0.73488 0.0
N502 N 0.59081 0.6355 0.64365 0.0
N503 N 0.54516 0.59612 0.70664 0.0
H504 H 0.51345 0.14421 0.57537 0.0
H505 H 0.56442 0.06354 0.72205 0.0
H506 H 0.61557 0.07831 0.59241 0.0
H507 H 0.44905 0.10907 0.70079 0.0
H508 H 0.58209 0.06627 0.67401 0.0
H509 H 0.48828 0.13056 0.62078 0.0
C510 C 0.53054 0.12684 0.5887 0.0
C511 C 0.56676 0.11253 0.58028 0.0
C512 C 0.5526 0.07517 0.67968 0.0
C513 C 0.53823 0.09681 0.63213 0.0
C514 C 0.54251 0.07353 0.70705 0.0
C515 C 0.50536 0.08625 0.71527 0.0
C516 C 0.52564 0.09019 0.66045 0.0
C517 C 0.47789 0.09882 0.69515 0.0
C518 C 0.51605 0.1189 0.61454 0.0
C519 C 0.58766 0.09009 0.59822 0.0
N520 N 0.48888 0.10101 0.66869 0.0
N521 N 0.57323 0.08311 0.62338 0.0
H522 H 0.52183 0.53844 0.90783 0.0
H523 H 0.6586 0.67483 0.04379 0.0
H524 H 0.63326 0.63966 0.90627 0.0
H525 H 0.54952 0.57216 0.04748 0.0
H526 H 0.64441 0.66678 -0.00684 0.0
H527 H 0.52698 0.55351 0.95864 0.0
C528 C 0.54733 0.56386 0.9182 0.0
C529 C 0.57734 0.5877 0.90292 0.0
C530 C 0.62324 0.64619 0.00495 0.0
C531 C 0.58327 0.60528 0.96085 0.0
C532 C 0.63128 0.65087 0.03386 0.0
C533 C 0.60542 0.62383 0.04974 0.0
C534 C 0.58923 0.61399 -0.00831 0.0
C535 C 0.57016 0.59363 0.03593 0.0
C536 C 0.55017 0.57253 0.94716 0.0
C537 C 0.60957 0.62041 0.91729 0.0
N538 N 0.56338 0.58915 0.00761 0.0
N539 N 0.61175 0.62813 0.94543 0.0
H540 H 0.13285 0.6009 0.2337 0.0
H541 H 1.00444 0.64402 0.36542 0.0
H542 H 1.03028 0.66928 0.2329 0.0
H543 H 0.13448 0.62254 0.37363 0.0
H544 H 1.00476 0.63649 0.3147 0.0
H545 H 0.12562 0.59306 0.28325 0.0
C546 C 0.10864 0.61393 0.24391 0.0
C547 C 0.08246 0.6362 0.22941 0.0
C548 C 0.03302 0.63291 0.32761 0.0
C549 C 0.07358 0.62682 0.28554 0.0
C550 C 0.0327 0.63683 0.35651 0.0
C551 C 0.06957 0.63409 0.37369 0.0
C552 C 0.07032 0.62584 0.31581 0.0
C553 C 0.10555 0.62523 0.36105 0.0
C554 C 0.10457 0.60951 0.27209 0.0
C555 C 0.05145 0.65234 0.24347 0.0
N556 N 0.10513 0.6216 0.33285 0.0
N557 N 0.04786 0.64734 0.27074 0.0
loop_
_geom_bond_atom_site_label_1
_geom_bond_atom_site_label_2
_geom_bond_distance
_geom_bond_site_symmetry_2
_ccdc_geom_bond_type
Pr0 C2 2.880 1_455 S
Pr0 O20 2.562 1_455 S
Pr0 O21 2.490 1_455 S
Pr0 O22 2.695 . S
Pr0 O23 2.512 1_455 S
Pr0 O25 2.437 1_455 S
Pr0 O28 2.436 . S
Pr0 O30 2.438 . S
Pr1 C11 2.880 . S
Pr1 O22 2.436 . S
Pr1 O24 2.438 1_455 S
Pr1 O26 2.562 . S
Pr1 O27 2.490 . S
Pr1 O28 2.695 . S
Pr1 O29 2.512 . S
Pr1 O31 2.437 . S
C2 Pr0 2.880 1_655 S
C2 C3 1.491 . S
C2 O20 1.254 . S
C2 O21 1.225 . S
C3 C2 1.491 . S
C3 C4 1.392 . S
C3 C8 1.356 . S
C4 C3 1.392 . S
C4 C5 1.368 . S
C4 H32 0.929 . S
C5 C4 1.368 . S
C5 C6 1.386 . S
C5 H33 0.929 . S
C6 C5 1.386 . S
C6 C7 1.373 . S
C7 C6 1.373 . S
C7 C8 1.409 . S
C7 H34 0.931 . S
C8 C3 1.356 . S
C8 C7 1.409 . S
C8 H35 0.930 . S
C9 O22 1.270 . S
C9 O23 1.249 1_455 S
C10 O24 1.267 . S
C10 O25 1.278 . S
C11 Pr1 2.880 . S
C11 C12 1.491 . S
C11 O26 1.254 . S
C11 O27 1.225 . S
C12 C11 1.491 . S
C12 C13 1.392 . S
C12 C17 1.356 . S
C13 C12 1.392 . S
C13 C14 1.368 . S
C13 H36 0.929 . S
C14 C13 1.368 . S
C14 C15 1.386 . S
C14 H37 0.929 . S
C15 C14 1.386 . S
C15 C16 1.373 . S
C16 C15 1.373 . S
C16 C17 1.409 . S
C16 H38 0.931 . S
C17 C12 1.356 . S
C17 C16 1.409 . S
C17 H39 0.930 . S
C18 O28 1.270 . S
C18 O29 1.248 . S
C19 O30 1.267 . S
C19 O31 1.278 . S
O20 Pr0 2.562 1_655 S
O20 C2 1.254 . S
O21 Pr0 2.490 1_655 S
O21 C2 1.225 . S
O22 Pr0 2.695 . S
O22 Pr1 2.436 . S
O22 C9 1.270 . S
O23 Pr0 2.512 1_655 S
O23 C9 1.249 1_655 S
O24 Pr1 2.438 1_655 S
O24 C10 1.267 . S
O25 Pr0 2.437 1_655 S
O25 C10 1.278 . S
O26 Pr1 2.562 . S
O26 C11 1.254 . S
O27 Pr1 2.490 . S
O27 C11 1.225 . S
O28 Pr0 2.436 . S
O28 Pr1 2.695 . S
O28 C18 1.270 . S
O29 Pr1 2.512 . S
O29 C18 1.248 . S
O30 Pr0 2.438 . S
O30 C19 1.267 . S
O31 Pr1 2.437 . S
O31 C19 1.278 . S
H32 C4 0.929 . S
H33 C5 0.929 . S
H34 C7 0.931 . S
H35 C8 0.930 . S
H36 C13 0.929 . S
H37 C14 0.929 . S
H38 C16 0.931 . S
H39 C17 0.930 . S
Pr40 C42 2.880 . S
Pr40 O60 2.562 . S
Pr40 O61 2.490 . S
Pr40 O62 2.695 . S
Pr40 O63 2.512 . S
Pr40 O65 2.437 . S
Pr40 O68 2.436 . S
Pr40 O70 2.438 . S
Pr41 C51 2.880 1_545 S
Pr41 O62 2.436 . S
Pr41 O64 2.438 . S
Pr41 O66 2.562 1_545 S
Pr41 O67 2.490 1_545 S
Pr41 O68 2.695 . S
Pr41 O69 2.512 . S
Pr41 O71 2.437 1_545 S
C42 Pr40 2.880 . S
C42 C43 1.491 . S
C42 O60 1.254 . S
C42 O61 1.225 . S
C43 C42 1.491 . S
C43 C44 1.392 . S
C43 C48 1.356 . S
C44 C43 1.392 . S
C44 C45 1.368 . S
C44 H72 0.929 . S
C45 C44 1.368 . S
C45 C46 1.386 . S
C45 H73 0.929 . S
C46 C45 1.386 . S
C46 C47 1.373 . S
C47 C46 1.373 . S
C47 C48 1.409 . S
C47 H74 0.931 . S
C48 C43 1.356 . S
C48 C47 1.409 . S
C48 H75 0.930 . S
C49 O62 1.270 . S
C49 O63 1.248 . S
C50 O64 1.267 . S
C50 O65 1.278 . S
C51 Pr41 2.880 1_565 S
C51 C52 1.491 . S
C51 O66 1.254 . S
C51 O67 1.225 . S
C52 C51 1.491 . S
C52 C53 1.392 . S
C52 C57 1.356 . S
C53 C52 1.392 . S
C53 C54 1.368 . S
C53 H76 0.929 . S
C54 C53 1.368 . S
C54 C55 1.386 . S
C54 H77 0.929 . S
C55 C54 1.386 . S
C55 C56 1.373 . S
C56 C55 1.373 . S
C56 C57 1.409 . S
C56 H78 0.931 . S
C57 C52 1.356 . S
C57 C56 1.409 . S
C57 H79 0.930 . S
C58 O68 1.270 . S
C58 O69 1.248 . S
C59 O70 1.267 1_565 S
C59 O71 1.278 . S
O60 Pr40 2.562 . S
O60 C42 1.254 . S
O61 Pr40 2.490 . S
O61 C42 1.225 . S
O62 Pr40 2.695 . S
O62 Pr41 2.436 . S
O62 C49 1.270 . S
O63 Pr40 2.512 . S
O63 C49 1.248 . S
O64 Pr41 2.438 . S
O64 C50 1.267 . S
O65 Pr40 2.437 . S
O65 C50 1.278 . S
O66 Pr41 2.562 1_565 S
O66 C51 1.254 . S
O67 Pr41 2.490 1_565 S
O67 C51 1.225 . S
O68 Pr40 2.436 . S
O68 Pr41 2.695 . S
O68 C58 1.270 . S
O69 Pr41 2.512 . S
O69 C58 1.248 . S
O70 Pr40 2.438 . S
O70 C59 1.267 1_545 S
O71 Pr41 2.437 1_565 S
O71 C59 1.278 . S
H72 C44 0.929 . S
H73 C45 0.929 . S
H74 C47 0.931 . S
H75 C48 0.930 . S
H76 C53 0.929 . S
H77 C54 0.929 . S
H78 C56 0.931 . S
H79 C57 0.930 . S
Pr80 C82 2.880 . S
Pr80 O100 2.562 . S
Pr80 O101 2.490 . S
Pr80 O102 2.695 . S
Pr80 O103 2.512 . S
Pr80 O105 2.437 . S
Pr80 O108 2.436 . S
Pr80 O110 2.438 . S
Pr81 C91 2.880 . S
Pr81 O102 2.436 . S
Pr81 O104 2.438 . S
Pr81 O106 2.562 . S
Pr81 O107 2.490 . S
Pr81 O108 2.695 . S
Pr81 O109 2.512 . S
Pr81 O111 2.437 . S
C82 Pr80 2.880 . S
C82 C83 1.491 . S
C82 O100 1.254 . S
C82 O101 1.225 . S
C83 C82 1.491 . S
C83 C84 1.392 . S
C83 C88 1.356 . S
C84 C83 1.392 . S
C84 C85 1.368 . S
C84 H112 0.929 . S
C85 C84 1.368 . S
C85 C86 1.386 . S
C85 H113 0.929 . S
C86 C85 1.386 . S
C86 C87 1.373 . S
C87 C86 1.373 . S
C87 C88 1.409 . S
C87 H114 0.931 . S
C88 C83 1.356 . S
C88 C87 1.409 . S
C88 H115 0.930 . S
C89 O102 1.270 . S
C89 O103 1.248 . S
C90 O104 1.267 . S
C90 O105 1.278 . S
C91 Pr81 2.880 . S
C91 C92 1.491 . S
C91 O106 1.254 . S
C91 O107 1.225 . S
C92 C91 1.491 . S
C92 C93 1.392 . S
C92 C97 1.356 . S
C93 C92 1.392 . S
C93 C94 1.368 . S
C93 H116 0.929 . S
C94 C93 1.368 . S
C94 C95 1.386 . S
C94 H117 0.929 . S
C95 C94 1.386 . S
C95 C96 1.373 . S
C96 C95 1.373 . S
C96 C97 1.409 . S
C96 H118 0.931 . S
C97 C92 1.356 . S
C97 C96 1.409 . S
C97 H119 0.930 . S
C98 O108 1.270 . S
C98 O109 1.248 . S
C99 O110 1.267 . S
C99 O111 1.278 . S
O100 Pr80 2.562 . S
O100 C82 1.254 . S
O101 Pr80 2.490 . S
O101 C82 1.225 . S
O102 Pr80 2.695 . S
O102 Pr81 2.436 . S
O102 C89 1.270 . S
O103 Pr80 2.512 . S
O103 C89 1.248 . S
O104 Pr81 2.438 . S
O104 C90 1.267 . S
O105 Pr80 2.437 . S
O105 C90 1.278 . S
O106 Pr81 2.562 . S
O106 C91 1.254 . S
O107 Pr81 2.490 . S
O107 C91 1.225 . S
O108 Pr80 2.436 . S
O108 Pr81 2.695 . S
O108 C98 1.270 . S
O109 Pr81 2.512 . S
O109 C98 1.248 . S
O110 Pr80 2.438 . S
O110 C99 1.267 . S
O111 Pr81 2.437 . S
O111 C99 1.278 . S
H112 C84 0.929 . S
H113 C85 0.929 . S
H114 C87 0.931 . S
H115 C88 0.930 . S
H116 C93 0.929 . S
H117 C94 0.929 . S
H118 C96 0.931 . S
H119 C97 0.930 . S
H120 C121 0.949 . S
C121 H120 0.949 . S
C121 C122 1.395 . S
C121 C123 1.391 . S
C122 C121 1.395 . S
C122 C125 1.390 . S
C123 C121 1.391 . S
C123 C127 1.387 . S
C123 C128 1.491 . S
H124 C125 0.950 . S
C125 C122 1.390 . S
C125 H124 0.950 . S
C125 C126 1.378 . S
C126 C125 1.378 . S
C126 C127 1.409 . S
C127 C123 1.387 . S
C127 C126 1.409 . S
C127 H129 0.951 . S
C128 C123 1.491 . S
C128 C130 1.382 . S
C128 C132 1.404 . S
H129 C127 0.951 . S
C130 C128 1.382 . S
C130 C131 1.390 . S
C130 H135 0.949 . S
C131 C130 1.390 . S
C131 C136 1.399 . S
C132 C128 1.404 . S
C132 H133 0.950 . S
C132 C134 1.375 . S
H133 C132 0.950 . S
C134 C132 1.375 . S
C134 C136 1.382 . S
C134 H138 0.950 . S
H135 C130 0.949 . S
C136 C131 1.399 . S
C136 C134 1.382 . S
C136 H137 0.952 . S
H137 C136 0.952 . S
H138 C134 0.950 . S
H139 C140 0.949 . S
C140 H139 0.949 . S
C140 C141 1.395 . S
C140 C142 1.391 . S
C141 C140 1.395 . S
C141 C144 1.390 . S
C142 C140 1.391 . S
C142 C146 1.387 . S
C142 C147 1.491 . S
H143 C144 0.950 . S
C144 C141 1.390 . S
C144 H143 0.950 . S
C144 C145 1.378 . S
C145 C144 1.378 . S
C145 C146 1.409 . S
C146 C142 1.387 . S
C146 C145 1.409 . S
C146 H148 0.951 . S
C147 C142 1.491 . S
C147 C149 1.382 . S
C147 C151 1.404 . S
H148 C146 0.951 . S
C149 C147 1.382 . S
C149 C150 1.390 . S
C149 H154 0.949 . S
C150 C149 1.390 . S
C150 C155 1.399 . S
C151 C147 1.404 . S
C151 H152 0.950 . S
C151 C153 1.375 . S
H152 C151 0.950 . S
C153 C151 1.375 . S
C153 C155 1.382 . S
C153 H157 0.950 . S
H154 C149 0.949 . S
C155 C150 1.399 . S
C155 C153 1.382 . S
C155 H156 0.952 . S
H156 C155 0.952 . S
H157 C153 0.950 . S
H158 C159 0.949 . S
C159 H158 0.949 . S
C159 C160 1.395 . S
C159 C161 1.391 . S
C160 C159 1.395 . S
C160 C163 1.390 1_455 S
C161 C159 1.391 . S
C161 C165 1.387 . S
C161 C166 1.491 . S
H162 C163 0.950 . S
C163 C160 1.390 1_655 S
C163 H162 0.950 . S
C163 C164 1.378 . S
C164 C163 1.378 . S
C164 C165 1.409 1_655 S
C165 C161 1.387 . S
C165 C164 1.409 1_455 S
C165 H167 0.951 . S
C166 C161 1.491 . S
C166 C168 1.382 . S
C166 C170 1.404 . S
H167 C165 0.951 . S
C168 C166 1.382 . S
C168 C169 1.390 . S
C168 H173 0.949 . S
C169 C168 1.390 . S
C169 C174 1.399 . S
C170 C166 1.404 . S
C170 H171 0.950 . S
C170 C172 1.375 . S
H171 C170 0.950 . S
C172 C170 1.375 . S
C172 C174 1.382 . S
C172 H176 0.950 . S
H173 C168 0.949 . S
C174 C169 1.399 . S
C174 C172 1.382 . S
C174 H175 0.952 . S
H175 C174 0.952 . S
H176 C172 0.950 . S
H177 C178 0.955 . S
C178 H177 0.955 . S
C178 C179 1.388 1_655 S
C178 C180 1.392 1_655 S
C179 C178 1.388 1_455 S
C179 C182 1.390 . S
C180 C178 1.392 1_455 S
C180 C184 1.387 . S
C180 C185 1.491 1_455 S
H181 C182 0.950 . S
C182 C179 1.390 . S
C182 H181 0.950 . S
C182 C183 1.378 . S
C183 C182 1.378 . S
C183 C184 1.409 . S
C184 C180 1.387 . S
C184 C183 1.409 . S
C184 H186 0.951 . S
C185 C180 1.491 1_655 S
C185 C187 1.382 . S
C185 C189 1.404 . S
H186 C184 0.951 . S
C187 C185 1.382 . S
C187 C188 1.390 . S
C187 H192 0.949 . S
C188 C187 1.390 . S
C188 C193 1.399 . S
C189 C185 1.404 . S
C189 H190 0.950 . S
C189 C191 1.375 . S
H190 C189 0.950 . S
C191 C189 1.375 . S
C191 C193 1.382 . S
C191 H195 0.950 . S
H192 C187 0.949 . S
C193 C188 1.399 . S
C193 C191 1.382 . S
C193 H194 0.952 . S
H194 C193 0.952 . S
H195 C191 0.950 . S
H196 C197 0.949 1_565 S
C197 H196 0.949 1_545 S
C197 C198 1.395 . S
C197 C199 1.391 . S
C198 C197 1.395 . S
C198 C201 1.390 . S
C199 C197 1.391 . S
C199 C203 1.387 . S
C199 C204 1.491 1_545 S
H200 C201 0.950 . S
C201 C198 1.390 . S
C201 H200 0.950 . S
C201 C202 1.378 . S
C202 C201 1.378 . S
C202 C203 1.409 . S
C203 C199 1.387 . S
C203 C202 1.409 . S
C203 H205 0.951 . S
C204 C199 1.491 1_565 S
C204 C206 1.382 . S
C204 C208 1.404 . S
H205 C203 0.951 . S
C206 C204 1.382 . S
C206 C207 1.390 . S
C206 H211 0.949 . S
C207 C206 1.390 . S
C207 C212 1.399 . S
C208 C204 1.404 . S
C208 H209 0.950 1_565 S
C208 C210 1.375 . S
H209 C208 0.950 1_545 S
C210 C208 1.375 . S
C210 C212 1.382 . S
C210 H214 0.950 . S
H211 C206 0.949 . S
C212 C207 1.399 . S
C212 C210 1.382 . S
C212 H213 0.952 . S
H213 C212 0.952 . S
H214 C210 0.950 . S
H215 C216 0.949 . S
C216 H215 0.949 . S
C216 C217 1.395 . S
C216 C218 1.391 . S
C217 C216 1.395 . S
C217 C220 1.390 . S
C218 C216 1.391 . S
C218 C222 1.387 . S
C218 C223 1.491 . S
H219 C220 0.950 . S
C220 C217 1.390 . S
C220 H219 0.950 . S
C220 C221 1.378 . S
C221 C220 1.378 . S
C221 C222 1.409 . S
C222 C218 1.387 . S
C222 C221 1.409 . S
C222 H224 0.951 . S
C223 C218 1.491 . S
C223 C225 1.382 . S
C223 C227 1.404 . S
H224 C222 0.951 . S
C225 C223 1.382 . S
C225 C226 1.390 . S
C225 H230 0.949 . S
C226 C225 1.390 . S
C226 C231 1.399 . S
C227 C223 1.404 . S
C227 H228 0.950 . S
C227 C229 1.375 . S
H228 C227 0.950 . S
C229 C227 1.375 . S
C229 C231 1.382 . S
C229 H233 0.950 . S
H230 C225 0.949 . S
C231 C226 1.399 . S
C231 C229 1.382 . S
C231 H232 0.952 . S
H232 C231 0.952 . S
H233 C229 0.950 . S
H234 C240 0.930 . S
H235 C244 0.930 . S
H236 C249 0.929 . S
H237 C247 0.929 . S
H238 C242 0.929 . S
H239 C248 0.929 . S
C240 H234 0.930 . S
C240 C241 1.367 . S
C240 C248 1.378 . S
C241 C240 1.367 . S
C241 C249 1.433 . S
C242 H238 0.929 . S
C242 C244 1.378 . S
C242 C246 1.350 . S
C243 C246 1.463 . S
C243 C248 1.350 . S
C243 N251 1.427 . S
C244 H235 0.930 . S
C244 C242 1.378 . S
C244 C245 1.367 . S
C245 C244 1.367 . S
C245 C247 1.433 . S
C246 C242 1.350 . S
C246 C243 1.463 . S
C246 N250 1.427 . S
C247 H237 0.929 . S
C247 C245 1.433 . S
C247 N250 1.384 . S
C248 H239 0.929 . S
C248 C240 1.378 . S
C248 C243 1.350 . S
C249 H236 0.929 . S
C249 C241 1.433 . S
C249 N251 1.384 . S
N250 C246 1.427 . S
N250 C247 1.384 . S
N251 C243 1.427 . S
N251 C249 1.384 . S
H252 C258 0.930 . S
H253 C262 0.930 . S
H254 C267 0.929 . S
H255 C265 0.929 . S
H256 C260 0.929 . S
H257 C266 0.929 . S
C258 H252 0.930 . S
C258 C259 1.367 . S
C258 C266 1.378 . S
C259 C258 1.367 . S
C259 C267 1.433 . S
C260 H256 0.929 . S
C260 C262 1.378 . S
C260 C264 1.350 . S
C261 C264 1.463 . S
C261 C266 1.350 . S
C261 N269 1.427 . S
C262 H253 0.930 . S
C262 C260 1.378 . S
C262 C263 1.367 . S
C263 C262 1.367 . S
C263 C265 1.433 . S
C264 C260 1.350 . S
C264 C261 1.463 . S
C264 N268 1.427 . S
C265 H255 0.929 . S
C265 C263 1.433 . S
C265 N268 1.384 . S
C266 H257 0.929 . S
C266 C258 1.378 . S
C266 C261 1.350 . S
C267 H254 0.929 . S
C267 C259 1.433 . S
C267 N269 1.384 . S
N268 C264 1.427 . S
N268 C265 1.384 . S
N269 C261 1.427 . S
N269 C267 1.384 . S
H270 C276 0.930 . S
H271 C280 0.930 . S
H272 C285 0.929 . S
H273 C283 0.929 . S
H274 C278 0.929 . S
H275 C284 0.929 . S
C276 H270 0.930 . S
C276 C277 1.367 . S
C276 C284 1.378 . S
C277 C276 1.367 . S
C277 C285 1.433 . S
C278 H274 0.929 . S
C278 C280 1.378 . S
C278 C282 1.350 . S
C279 C282 1.463 . S
C279 C284 1.350 . S
C279 N287 1.427 . S
C280 H271 0.930 . S
C280 C278 1.378 . S
C280 C281 1.367 . S
C281 C280 1.367 . S
C281 C283 1.433 . S
C282 C278 1.350 . S
C282 C279 1.463 . S
C282 N286 1.427 . S
C283 H273 0.929 . S
C283 C281 1.433 . S
C283 N286 1.384 . S
C284 H275 0.929 . S
C284 C276 1.378 . S
C284 C279 1.350 . S
C285 H272 0.929 . S
C285 C277 1.433 . S
C285 N287 1.384 . S
N286 C282 1.427 . S
N286 C283 1.384 . S
N287 C279 1.427 . S
N287 C285 1.384 . S
H288 C294 0.930 . S
H289 C298 0.930 . S
H290 C303 0.929 . S
H291 C301 0.929 . S
H292 C296 0.929 . S
H293 C302 0.929 . S
C294 H288 0.930 . S
C294 C295 1.367 . S
C294 C302 1.378 . S
C295 C294 1.367 . S
C295 C303 1.433 . S
C296 H292 0.929 . S
C296 C298 1.378 . S
C296 C300 1.350 . S
C297 C300 1.463 . S
C297 C302 1.350 . S
C297 N305 1.427 . S
C298 H289 0.930 . S
C298 C296 1.378 . S
C298 C299 1.367 . S
C299 C298 1.367 . S
C299 C301 1.433 . S
C300 C296 1.350 . S
C300 C297 1.463 . S
C300 N304 1.427 . S
C301 H291 0.929 . S
C301 C299 1.433 . S
C301 N304 1.384 . S
C302 H293 0.929 . S
C302 C294 1.378 . S
C302 C297 1.350 . S
C303 H290 0.929 . S
C303 C295 1.433 . S
C303 N305 1.384 . S
N304 C300 1.427 . S
N304 C301 1.384 . S
N305 C297 1.427 . S
N305 C303 1.384 . S
H306 C312 0.930 . S
H307 C316 0.930 . S
H308 C321 0.929 . S
H309 C319 0.929 . S
H310 C314 0.929 . S
H311 C320 0.929 . S
C312 H306 0.930 . S
C312 C313 1.367 . S
C312 C320 1.378 . S
C313 C312 1.367 . S
C313 C321 1.433 . S
C314 H310 0.929 . S
C314 C316 1.378 . S
C314 C318 1.350 . S
C315 C318 1.463 . S
C315 C320 1.350 . S
C315 N323 1.427 . S
C316 H307 0.930 . S
C316 C314 1.378 . S
C316 C317 1.367 . S
C317 C316 1.367 . S
C317 C319 1.433 . S
C318 C314 1.350 . S
C318 C315 1.463 . S
C318 N322 1.427 . S
C319 H309 0.929 . S
C319 C317 1.433 . S
C319 N322 1.384 . S
C320 H311 0.929 . S
C320 C312 1.378 . S
C320 C315 1.350 . S
C321 H308 0.929 . S
C321 C313 1.433 . S
C321 N323 1.384 . S
N322 C318 1.427 . S
N322 C319 1.384 . S
N323 C315 1.427 . S
N323 C321 1.384 . S
H324 C330 0.930 . S
H325 C334 0.930 . S
H326 C339 0.929 . S
H327 C337 0.929 . S
H328 C332 0.929 . S
H329 C338 0.929 . S
C330 H324 0.930 . S
C330 C331 1.367 . S
C330 C338 1.378 . S
C331 C330 1.367 . S
C331 C339 1.433 . S
C332 H328 0.929 . S
C332 C334 1.378 . S
C332 C336 1.350 . S
C333 C336 1.463 . S
C333 C338 1.350 . S
C333 N341 1.427 . S
C334 H325 0.930 . S
C334 C332 1.378 . S
C334 C335 1.367 . S
C335 C334 1.367 . S
C335 C337 1.433 . S
C336 C332 1.350 . S
C336 C333 1.463 . S
C336 N340 1.427 . S
C337 H327 0.929 . S
C337 C335 1.433 . S
C337 N340 1.384 . S
C338 H329 0.929 . S
C338 C330 1.378 . S
C338 C333 1.350 . S
C339 H326 0.929 . S
C339 C331 1.433 . S
C339 N341 1.384 . S
N340 C336 1.427 . S
N340 C337 1.384 . S
N341 C333 1.427 . S
N341 C339 1.384 . S
H342 C348 0.930 . S
H343 C352 0.930 . S
H344 C357 0.929 . S
H345 C355 0.929 . S
H346 C350 0.929 . S
H347 C356 0.929 . S
C348 H342 0.930 . S
C348 C349 1.367 . S
C348 C356 1.378 . S
C349 C348 1.367 . S
C349 C357 1.433 . S
C350 H346 0.929 . S
C350 C352 1.378 . S
C350 C354 1.350 . S
C351 C354 1.463 . S
C351 C356 1.350 . S
C351 N359 1.427 . S
C352 H343 0.930 . S
C352 C350 1.378 . S
C352 C353 1.367 . S
C353 C352 1.367 . S
C353 C355 1.433 . S
C354 C350 1.350 . S
C354 C351 1.463 . S
C354 N358 1.427 . S
C355 H345 0.929 . S
C355 C353 1.433 . S
C355 N358 1.384 . S
C356 H347 0.929 . S
C356 C348 1.378 . S
C356 C351 1.350 . S
C357 H344 0.929 . S
C357 C349 1.433 . S
C357 N359 1.384 . S
N358 C354 1.427 . S
N358 C355 1.384 . S
N359 C351 1.427 . S
N359 C357 1.384 . S
H360 C366 0.930 . S
H361 C370 0.930 . S
H362 C375 0.929 . S
H363 C373 0.929 . S
H364 C368 0.929 . S
H365 C374 0.929 . S
C366 H360 0.930 . S
C366 C367 1.367 . S
C366 C374 1.378 . S
C367 C366 1.367 . S
C367 C375 1.433 . S
C368 H364 0.929 . S
C368 C370 1.378 . S
C368 C372 1.350 . S
C369 C372 1.463 . S
C369 C374 1.350 . S
C369 N377 1.427 . S
C370 H361 0.930 . S
C370 C368 1.378 . S
C370 C371 1.367 . S
C371 C370 1.367 . S
C371 C373 1.433 . S
C372 C368 1.350 . S
C372 C369 1.463 . S
C372 N376 1.427 . S
C373 H363 0.929 . S
C373 C371 1.433 . S
C373 N376 1.384 . S
C374 H365 0.929 . S
C374 C366 1.378 . S
C374 C369 1.350 . S
C375 H362 0.929 . S
C375 C367 1.433 . S
C375 N377 1.384 . S
N376 C372 1.427 . S
N376 C373 1.384 . S
N377 C369 1.427 . S
N377 C375 1.384 . S
H378 C384 0.930 . S
H379 C388 0.930 1_545 S
H380 C393 0.929 . S
H381 C391 0.929 . S
H382 C386 0.929 . S
H383 C392 0.929 . S
C384 H378 0.930 . S
C384 C385 1.367 . S
C384 C392 1.378 . S
C385 C384 1.367 . S
C385 C393 1.433 . S
C386 H382 0.929 . S
C386 C388 1.378 . S
C386 C390 1.350 . S
C387 C390 1.463 . S
C387 C392 1.350 . S
C387 N395 1.427 . S
C388 H379 0.930 1_565 S
C388 C386 1.378 . S
C388 C389 1.367 . S
C389 C388 1.367 . S
C389 C391 1.433 . S
C390 C386 1.350 . S
C390 C387 1.463 . S
C390 N394 1.427 . S
C391 H381 0.929 . S
C391 C389 1.433 . S
C391 N394 1.384 . S
C392 H383 0.929 . S
C392 C384 1.378 . S
C392 C387 1.350 . S
C393 H380 0.929 . S
C393 C385 1.433 . S
C393 N395 1.384 . S
N394 C390 1.427 . S
N394 C391 1.384 . S
N395 C387 1.427 . S
N395 C393 1.384 . S
H396 C402 0.930 . S
H397 C406 0.930 . S
H398 C411 0.929 . S
H399 C409 0.929 . S
H400 C404 0.929 . S
H401 C410 0.929 . S
C402 H396 0.930 . S
C402 C403 1.367 . S
C402 C410 1.378 . S
C403 C402 1.367 . S
C403 C411 1.433 . S
C404 H400 0.929 . S
C404 C406 1.378 . S
C404 C408 1.350 . S
C405 C408 1.463 . S
C405 C410 1.350 . S
C405 N413 1.427 . S
C406 H397 0.930 . S
C406 C404 1.378 . S
C406 C407 1.367 . S
C407 C406 1.367 . S
C407 C409 1.433 . S
C408 C404 1.350 . S
C408 C405 1.463 . S
C408 N412 1.427 . S
C409 H399 0.929 . S
C409 C407 1.433 . S
C409 N412 1.384 . S
C410 H401 0.929 . S
C410 C402 1.378 . S
C410 C405 1.350 . S
C411 H398 0.929 . S
C411 C403 1.433 . S
C411 N413 1.384 . S
N412 C408 1.427 . S
N412 C409 1.384 . S
N413 C405 1.427 . S
N413 C411 1.384 . S
H414 C420 0.930 . S
H415 C424 0.930 . S
H416 C429 0.929 . S
H417 C427 0.929 . S
H418 C422 0.929 . S
H419 C428 0.929 . S
C420 H414 0.930 . S
C420 C421 1.367 . S
C420 C428 1.378 . S
C421 C420 1.367 . S
C421 C429 1.433 . S
C422 H418 0.929 . S
C422 C424 1.378 . S
C422 C426 1.350 . S
C423 C426 1.463 . S
C423 C428 1.350 . S
C423 N431 1.427 . S
C424 H415 0.930 . S
C424 C422 1.378 . S
C424 C425 1.367 . S
C425 C424 1.367 . S
C425 C427 1.433 . S
C426 C422 1.350 . S
C426 C423 1.463 . S
C426 N430 1.427 . S
C427 H417 0.929 . S
C427 C425 1.433 . S
C427 N430 1.384 . S
C428 H419 0.929 . S
C428 C420 1.378 . S
C428 C423 1.350 . S
C429 H416 0.929 . S
C429 C421 1.433 . S
C429 N431 1.384 . S
N430 C426 1.427 . S
N430 C427 1.384 . S
N431 C423 1.427 . S
N431 C429 1.384 . S
H432 C438 0.930 . S
H433 C442 0.930 . S
H434 C447 0.929 . S
H435 C445 0.929 . S
H436 C440 0.929 . S
H437 C446 0.929 . S
C438 H432 0.930 . S
C438 C439 1.367 . S
C438 C446 1.378 . S
C439 C438 1.367 . S
C439 C447 1.433 . S
C440 H436 0.929 . S
C440 C442 1.378 . S
C440 C444 1.350 . S
C441 C444 1.463 . S
C441 C446 1.350 . S
C441 N449 1.427 . S
C442 H433 0.930 . S
C442 C440 1.378 . S
C442 C443 1.367 . S
C443 C442 1.367 . S
C443 C445 1.433 . S
C444 C440 1.350 . S
C444 C441 1.463 . S
C444 N448 1.427 . S
C445 H435 0.929 . S
C445 C443 1.433 . S
C445 N448 1.384 . S
C446 H437 0.929 . S
C446 C438 1.378 . S
C446 C441 1.350 . S
C447 H434 0.929 . S
C447 C439 1.433 . S
C447 N449 1.384 . S
N448 C444 1.427 . S
N448 C445 1.384 . S
N449 C441 1.427 . S
N449 C447 1.384 . S
H450 C456 0.930 . S
H451 C460 0.930 1_655 S
H452 C465 0.929 . S
H453 C463 0.929 . S
H454 C458 0.929 . S
H455 C464 0.929 . S
C456 H450 0.930 . S
C456 C457 1.367 . S
C456 C464 1.378 . S
C457 C456 1.367 . S
C457 C465 1.433 1_455 S
C458 H454 0.929 . S
C458 C460 1.378 1_655 S
C458 C462 1.350 1_655 S
C459 C462 1.463 1_554 S
C459 C464 1.350 . S
C459 N467 1.427 1_455 S
C460 H451 0.930 1_455 S
C460 C458 1.378 1_455 S
C460 C461 1.367 . S
C461 C460 1.367 . S
C461 C463 1.433 . S
C462 C458 1.350 1_455 S
C462 C459 1.463 1_556 S
C462 N466 1.427 . S
C463 H453 0.929 . S
C463 C461 1.433 . S
C463 N466 1.384 . S
C464 H455 0.929 . S
C464 C456 1.378 . S
C464 C459 1.350 . S
C465 H452 0.929 . S
C465 C457 1.433 1_655 S
C465 N467 1.384 . S
N466 C462 1.427 . S
N466 C463 1.384 . S
N467 C459 1.427 1_655 S
N467 C465 1.384 . S
H468 C474 0.930 . S
H469 C478 0.930 . S
H470 C483 0.929 . S
H471 C481 0.929 . S
H472 C476 0.929 . S
H473 C482 0.929 . S
C474 H468 0.930 . S
C474 C475 1.367 . S
C474 C482 1.378 . S
C475 C474 1.367 . S
C475 C483 1.433 . S
C476 H472 0.929 . S
C476 C478 1.378 . S
C476 C480 1.350 . S
C477 C480 1.463 . S
C477 C482 1.350 . S
C477 N485 1.427 . S
C478 H469 0.930 . S
C478 C476 1.378 . S
C478 C479 1.367 . S
C479 C478 1.367 . S
C479 C481 1.433 . S
C480 C476 1.350 . S
C480 C477 1.463 . S
C480 N484 1.427 . S
C481 H471 0.929 . S
C481 C479 1.433 . S
C481 N484 1.384 . S
C482 H473 0.929 . S
C482 C474 1.378 . S
C482 C477 1.350 . S
C483 H470 0.929 . S
C483 C475 1.433 . S
C483 N485 1.384 . S
N484 C480 1.427 . S
N484 C481 1.384 . S
N485 C477 1.427 . S
N485 C483 1.384 . S
H486 C492 0.930 . S
H487 C496 0.930 . S
H488 C501 0.929 . S
H489 C499 0.929 . S
H490 C494 0.929 . S
H491 C500 0.929 . S
C492 H486 0.930 . S
C492 C493 1.367 . S
C492 C500 1.378 . S
C493 C492 1.367 . S
C493 C501 1.433 . S
C494 H490 0.929 . S
C494 C496 1.378 . S
C494 C498 1.350 . S
C495 C498 1.463 . S
C495 C500 1.350 . S
C495 N503 1.427 . S
C496 H487 0.930 . S
C496 C494 1.378 . S
C496 C497 1.367 . S
C497 C496 1.367 . S
C497 C499 1.433 . S
C498 C494 1.350 . S
C498 C495 1.463 . S
C498 N502 1.427 . S
C499 H489 0.929 . S
C499 C497 1.433 . S
C499 N502 1.384 . S
C500 H491 0.929 . S
C500 C492 1.378 . S
C500 C495 1.350 . S
C501 H488 0.929 . S
C501 C493 1.433 . S
C501 N503 1.384 . S
N502 C498 1.427 . S
N502 C499 1.384 . S
N503 C495 1.427 . S
N503 C501 1.384 . S
H504 C510 0.930 . S
H505 C514 0.930 . S
H506 C519 0.929 . S
H507 C517 0.929 . S
H508 C512 0.929 . S
H509 C518 0.929 . S
C510 H504 0.930 . S
C510 C511 1.367 . S
C510 C518 1.378 . S
C511 C510 1.367 . S
C511 C519 1.433 . S
C512 H508 0.929 . S
C512 C514 1.378 . S
C512 C516 1.350 . S
C513 C516 1.463 . S
C513 C518 1.350 . S
C513 N521 1.427 . S
C514 H505 0.930 . S
C514 C512 1.378 . S
C514 C515 1.367 . S
C515 C514 1.367 . S
C515 C517 1.433 . S
C516 C512 1.350 . S
C516 C513 1.463 . S
C516 N520 1.427 . S
C517 H507 0.929 . S
C517 C515 1.433 . S
C517 N520 1.384 . S
C518 H509 0.929 . S
C518 C510 1.378 . S
C518 C513 1.350 . S
C519 H506 0.929 . S
C519 C511 1.433 . S
C519 N521 1.384 . S
N520 C516 1.427 . S
N520 C517 1.384 . S
N521 C513 1.427 . S
N521 C519 1.384 . S
H522 C528 0.930 . S
H523 C532 0.930 . S
H524 C537 0.929 . S
H525 C535 0.929 . S
H526 C530 0.929 . S
H527 C536 0.929 . S
C528 H522 0.930 . S
C528 C529 1.367 . S
C528 C536 1.378 . S
C529 C528 1.367 . S
C529 C537 1.433 . S
C530 H526 0.929 . S
C530 C532 1.378 . S
C530 C534 1.350 . S
C531 C534 1.463 1_556 S
C531 C536 1.350 . S
C531 N539 1.427 . S
C532 H523 0.930 . S
C532 C530 1.378 . S
C532 C533 1.367 . S
C533 C532 1.367 . S
C533 C535 1.433 . S
C534 C530 1.350 . S
C534 C531 1.463 1_554 S
C534 N538 1.427 . S
C535 H525 0.929 . S
C535 C533 1.433 . S
C535 N538 1.384 . S
C536 H527 0.929 . S
C536 C528 1.378 . S
C536 C531 1.350 . S
C537 H524 0.929 . S
C537 C529 1.433 . S
C537 N539 1.384 . S
N538 C534 1.427 . S
N538 C535 1.384 . S
N539 C531 1.427 . S
N539 C537 1.384 . S
H540 C546 0.930 . S
H541 C550 0.930 . S
H542 C555 0.929 . S
H543 C553 0.929 . S
H544 C548 0.929 . S
H545 C554 0.929 . S
C546 H540 0.930 . S
C546 C547 1.367 . S
C546 C554 1.378 . S
C547 C546 1.367 . S
C547 C555 1.433 . S
C548 H544 0.929 . S
C548 C550 1.378 . S
C548 C552 1.350 . S
C549 C552 1.463 . S
C549 C554 1.350 . S
C549 N557 1.427 . S
C550 H541 0.930 . S
C550 C548 1.378 . S
C550 C551 1.367 . S
C551 C550 1.367 . S
C551 C553 1.433 . S
C552 C548 1.350 . S
C552 C549 1.463 . S
C552 N556 1.427 . S
C553 H543 0.929 . S
C553 C551 1.433 . S
C553 N556 1.384 . S
C554 H545 0.929 . S
C554 C546 1.378 . S
C554 C549 1.350 . S
C555 H542 0.929 . S
C555 C547 1.433 . S
C555 N557 1.384 . S
N556 C552 1.427 . S
N556 C553 1.384 . S
N557 C549 1.427 . S
N557 C555 1.384 . S
C241 C19 2.000 . S
C245 C226 1.940 . S
C259 C46 1.312 . S
C263 C188 1.255 . S
C277 C95 0.518 . S
C281 C207 0.612 . S
C295 C10 1.887 . S
C299 C221 1.855 . S
C317 C183 1.134 . S
C313 C55 1.143 . S
C335 C202 0.348 . S
C331 C86 0.389 . S
C349 C59 3.226 . S
C353 C150 3.146 . S
C367 C90 1.909 . S
C371 C164 1.906 . S
C385 C15 1.111 . S
C389 C126 1.096 1_565 S
C407 C145 2.940 . S
C403 C50 2.973 . S
C425 C169 1.948 . S
C421 C99 2.001 . S
C439 C6 1.328 . S
C443 C131 1.251 . S
C461 C160 1.532 . S
C457 C9 1.461 . S
C475 C58 1.580 . S
C479 C122 1.567 . S
C493 C98 1.672 . S
C497 C141 1.764 . S
C515 C198 1.359 . S
C511 C49 1.301 . S
C533 C217 1.527 . S
C529 C89 1.495 . S
C547 C18 1.568 . S
C551 C179 1.556 . S
