# Generated by pormake.
# Topology eea, (3,6)-cn, num edge types: 1
# Building blocks:
#     Node 0, Type 0, BuildingBlock: PAMTOO_clean_linker_0, # of connection points: 3
#     Node 1, Type 0, BuildingBlock: PAMTOO_clean_linker_0, # of connection points: 3
#     Node 2, Type 0, BuildingBlock: PAMTOO_clean_linker_0, # of connection points: 3
#     Node 3, Type 0, BuildingBlock: PAMTOO_clean_linker_0, # of connection points: 3
#     Node 4, Type 0, BuildingBlock: PAMTOO_clean_linker_0, # of connection points: 3
#     Node 5, Type 0, BuildingBlock: PAMTOO_clean_linker_0, # of connection points: 3
#     Node 6, Type 0, BuildingBlock: PAMTOO_clean_linker_0, # of connection points: 3
#     Node 7, Type 0, BuildingBlock: PAMTOO_clean_linker_0, # of connection points: 3
#     Node 8, Type 0, BuildingBlock: PAMTOO_clean_linker_0, # of connection points: 3
#     Node 9, Type 0, BuildingBlock: PAMTOO_clean_linker_0, # of connection points: 3
#     Node 10, Type 0, BuildingBlock: PAMTOO_clean_linker_0, # of connection points: 3
#     Node 11, Type 0, BuildingBlock: PAMTOO_clean_linker_0, # of connection points: 3
#     Node 12, Type 0, BuildingBlock: PAMTOO_clean_linker_0, # of connection points: 3
#     Node 13, Type 0, BuildingBlock: PAMTOO_clean_linker_0, # of connection points: 3
#     Node 14, Type 0, BuildingBlock: PAMTOO_clean_linker_0, # of connection points: 3
#     Node 15, Type 0, BuildingBlock: PAMTOO_clean_linker_0, # of connection points: 3
#     Node 16, Type 0, BuildingBlock: PAMTOO_clean_linker_0, # of connection points: 3
#     Node 17, Type 0, BuildingBlock: PAMTOO_clean_linker_0, # of connection points: 3
#     Node 18, Type 1, BuildingBlock: KUMBUR_clean_sbu_0, # of connection points: 6
#     Node 19, Type 1, BuildingBlock: KUMBUR_clean_sbu_0, # of connection points: 6
#     Node 20, Type 1, BuildingBlock: KUMBUR_clean_sbu_0, # of connection points: 6
#     Node 21, Type 1, BuildingBlock: KUMBUR_clean_sbu_0, # of connection points: 6
#     Node 22, Type 1, BuildingBlock: KUMBUR_clean_sbu_0, # of connection points: 6
#     Node 23, Type 1, BuildingBlock: KUMBUR_clean_sbu_0, # of connection points: 6
#     Node 24, Type 1, BuildingBlock: KUMBUR_clean_sbu_0, # of connection points: 6
#     Node 25, Type 1, BuildingBlock: KUMBUR_clean_sbu_0, # of connection points: 6
#     Node 26, Type 1, BuildingBlock: KUMBUR_clean_sbu_0, # of connection points: 6
#     Edge 27, Type (0, 1), BuildingBlock: CIFDUS_clean_linker_0, # of connection points: 2
#     Edge 28, Type (0, 1), BuildingBlock: CIFDUS_clean_linker_0, # of connection points: 2
#     Edge 29, Type (0, 1), BuildingBlock: CIFDUS_clean_linker_0, # of connection points: 2
#     Edge 30, Type (0, 1), BuildingBlock: CIFDUS_clean_linker_0, # of connection points: 2
#     Edge 31, Type (0, 1), BuildingBlock: CIFDUS_clean_linker_0, # of connection points: 2
#     Edge 32, Type (0, 1), BuildingBlock: CIFDUS_clean_linker_0, # of connection points: 2
#     Edge 33, Type (0, 1), BuildingBlock: CIFDUS_clean_linker_0, # of connection points: 2
#     Edge 34, Type (0, 1), BuildingBlock: CIFDUS_clean_linker_0, # of connection points: 2
#     Edge 35, Type (0, 1), BuildingBlock: CIFDUS_clean_linker_0, # of connection points: 2
#     Edge 36, Type (0, 1), BuildingBlock: CIFDUS_clean_linker_0, # of connection points: 2
#     Edge 37, Type (0, 1), BuildingBlock: CIFDUS_clean_linker_0, # of connection points: 2
#     Edge 38, Type (0, 1), BuildingBlock: CIFDUS_clean_linker_0, # of connection points: 2
#     Edge 39, Type (0, 1), BuildingBlock: CIFDUS_clean_linker_0, # of connection points: 2
#     Edge 40, Type (0, 1), BuildingBlock: CIFDUS_clean_linker_0, # of connection points: 2
#     Edge 41, Type (0, 1), BuildingBlock: CIFDUS_clean_linker_0, # of connection points: 2
#     Edge 42, Type (0, 1), BuildingBlock: CIFDUS_clean_linker_0, # of connection points: 2
#     Edge 43, Type (0, 1), BuildingBlock: CIFDUS_clean_linker_0, # of connection points: 2
#     Edge 44, Type (0, 1), BuildingBlock: CIFDUS_clean_linker_0, # of connection points: 2
#     Edge 45, Type (0, 1), BuildingBlock: CIFDUS_clean_linker_0, # of connection points: 2
#     Edge 46, Type (0, 1), BuildingBlock: CIFDUS_clean_linker_0, # of connection points: 2
#     Edge 47, Type (0, 1), BuildingBlock: CIFDUS_clean_linker_0, # of connection points: 2
#     Edge 48, Type (0, 1), BuildingBlock: CIFDUS_clean_linker_0, # of connection points: 2
#     Edge 49, Type (0, 1), BuildingBlock: CIFDUS_clean_linker_0, # of connection points: 2
#     Edge 50, Type (0, 1), BuildingBlock: CIFDUS_clean_linker_0, # of connection points: 2
#     Edge 51, Type (0, 1), BuildingBlock: CIFDUS_clean_linker_0, # of connection points: 2
#     Edge 52, Type (0, 1), BuildingBlock: CIFDUS_clean_linker_0, # of connection points: 2
#     Edge 53, Type (0, 1), BuildingBlock: CIFDUS_clean_linker_0, # of connection points: 2
#     Edge 54, Type (0, 1), BuildingBlock: CIFDUS_clean_linker_0, # of connection points: 2
#     Edge 55, Type (0, 1), BuildingBlock: CIFDUS_clean_linker_0, # of connection points: 2
#     Edge 56, Type (0, 1), BuildingBlock: CIFDUS_clean_linker_0, # of connection points: 2
#     Edge 57, Type (0, 1), BuildingBlock: CIFDUS_clean_linker_0, # of connection points: 2
#     Edge 58, Type (0, 1), BuildingBlock: CIFDUS_clean_linker_0, # of connection points: 2
#     Edge 59, Type (0, 1), BuildingBlock: CIFDUS_clean_linker_0, # of connection points: 2
#     Edge 60, Type (0, 1), BuildingBlock: CIFDUS_clean_linker_0, # of connection points: 2
#     Edge 61, Type (0, 1), BuildingBlock: CIFDUS_clean_linker_0, # of connection points: 2
#     Edge 62, Type (0, 1), BuildingBlock: CIFDUS_clean_linker_0, # of connection points: 2
#     Edge 63, Type (0, 1), BuildingBlock: CIFDUS_clean_linker_0, # of connection points: 2
#     Edge 64, Type (0, 1), BuildingBlock: CIFDUS_clean_linker_0, # of connection points: 2
#     Edge 65, Type (0, 1), BuildingBlock: CIFDUS_clean_linker_0, # of connection points: 2
#     Edge 66, Type (0, 1), BuildingBlock: CIFDUS_clean_linker_0, # of connection points: 2
#     Edge 67, Type (0, 1), BuildingBlock: CIFDUS_clean_linker_0, # of connection points: 2
#     Edge 68, Type (0, 1), BuildingBlock: CIFDUS_clean_linker_0, # of connection points: 2
#     Edge 69, Type (0, 1), BuildingBlock: CIFDUS_clean_linker_0, # of connection points: 2
#     Edge 70, Type (0, 1), BuildingBlock: CIFDUS_clean_linker_0, # of connection points: 2
#     Edge 71, Type (0, 1), BuildingBlock: CIFDUS_clean_linker_0, # of connection points: 2
#     Edge 72, Type (0, 1), BuildingBlock: CIFDUS_clean_linker_0, # of connection points: 2
#     Edge 73, Type (0, 1), BuildingBlock: CIFDUS_clean_linker_0, # of connection points: 2
#     Edge 74, Type (0, 1), BuildingBlock: CIFDUS_clean_linker_0, # of connection points: 2
#     Edge 75, Type (0, 1), BuildingBlock: CIFDUS_clean_linker_0, # of connection points: 2
#     Edge 76, Type (0, 1), BuildingBlock: CIFDUS_clean_linker_0, # of connection points: 2
#     Edge 77, Type (0, 1), BuildingBlock: CIFDUS_clean_linker_0, # of connection points: 2
#     Edge 78, Type (0, 1), BuildingBlock: CIFDUS_clean_linker_0, # of connection points: 2
#     Edge 79, Type (0, 1), BuildingBlock: CIFDUS_clean_linker_0, # of connection points: 2
#     Edge 80, Type (0, 1), BuildingBlock: CIFDUS_clean_linker_0, # of connection points: 2
# Relax obj value: 0.023
# Max RMSD: 0.173
# Mean RMSD: 0.124
data_MOF--net-eea--node1-KUMBUR_clean_sbu_0--node2-PAMTOO_clean_linker_0--edge1-CIFDUS_clean_linker_0
_symmetry_space_group_name_H-M    P1
_symmetry_Int_Tables_number       1
_symmetry_cell_setting            triclinic
loop_
_symmetry_equiv_pos_as_xyz
'x, y, z'
_cell_length_a     46.983876
_cell_length_b     48.504427
_cell_length_c     59.279594
_cell_angle_alpha  90.04396
_cell_angle_beta   89.694786
_cell_angle_gamma 120.08977
loop_
_atom_site_label
_atom_site_type_symbol
_atom_site_fract_x
_atom_site_fract_y
_atom_site_fract_z
_atom_type_partial_charge
H0 H 0.26389 0.07113 0.43133 0.0
H1 H 0.26859 0.16199 0.43104 0.0
H2 H 0.21407 0.0935 0.37981 0.0
H3 H 0.24498 0.16067 0.3628 0.0
C4 C 0.25053 0.17233 0.37963 0.0
O5 O 0.23145 0.15014 0.3958 0.0
H6 H 0.27717 0.1818 0.38294 0.0
C7 C 0.25772 0.08764 0.42353 0.0
C8 C 0.23794 0.0784 0.40408 0.0
C9 C 0.26925 0.11777 0.43332 0.0
C10 C 0.25984 0.13853 0.42391 0.0
C11 C 0.23988 0.12963 0.40477 0.0
C12 C 0.22896 0.0997 0.39488 0.0
H13 H 0.97207 0.1934 0.438 0.0
H14 H 0.88784 0.09827 0.43751 0.0
H15 H 0.95302 0.13208 0.38059 0.0
H16 H 0.88155 0.08777 0.36612 0.0
C17 C 0.87217 0.08025 0.38361 0.0
O18 O 0.89794 0.08443 0.39719 0.0
H19 H 0.86235 0.09578 0.38936 0.0
C20 C 0.95713 0.17068 0.42977 0.0
C21 C 0.96651 0.16571 0.40814 0.0
C22 C 0.92872 0.14664 0.44077 0.0
C23 C 0.90952 0.11745 0.42953 0.0
C24 C 0.91786 0.1124 0.40783 0.0
C25 C 0.9466 0.13628 0.39732 0.0
H26 H 0.83755 0.77609 0.43748 0.0
H27 H 0.93661 0.79312 0.43638 0.0
H28 H 0.89719 0.81429 0.37763 0.0
H29 H 0.94887 0.79707 0.36411 0.0
C30 C 0.95757 0.79697 0.38148 0.0
O31 O 0.95022 0.8159 0.39514 0.0
H32 H 0.94405 0.77192 0.38773 0.0
C33 C 0.86066 0.78424 0.42858 0.0
C34 C 0.86371 0.79477 0.40613 0.0
C35 C 0.88662 0.78359 0.43969 0.0
C36 C 0.91638 0.79354 0.42802 0.0
C37 C 0.92054 0.80493 0.4057 0.0
C38 C 0.89416 0.80577 0.39484 0.0
H39 H 0.08838 0.25056 0.60229 0.0
H40 H 0.16033 0.22093 0.60876 0.0
H41 H 0.0863 0.19524 0.65996 0.0
H42 H 0.15347 0.2033 0.67933 0.0
C43 C 0.16394 0.20645 0.66205 0.0
O44 O 0.1383 0.19127 0.64683 0.0
H45 H 0.17806 0.23254 0.65853 0.0
C46 C 0.09832 0.23807 0.61156 0.0
C47 C 0.08345 0.22288 0.63217 0.0
C48 C 0.12628 0.23796 0.60298 0.0
C49 C 0.1391 0.22175 0.61512 0.0
C50 C 0.12495 0.20651 0.63559 0.0
C51 C 0.09698 0.20687 0.64404 0.0
H52 H 0.78189 0.83491 0.59272 0.0
H53 H 0.79948 0.93061 0.59755 0.0
H54 H 0.81861 0.88817 0.65454 0.0
H55 H 0.79337 0.93297 0.66782 0.0
C56 C 0.79715 0.94424 0.65091 0.0
O57 O 0.81973 0.93943 0.63907 0.0
H58 H 0.77299 0.93279 0.64214 0.0
C59 C 0.78961 0.8563 0.60257 0.0
C60 C 0.80038 0.85791 0.62495 0.0
C61 C 0.78906 0.88227 0.59253 0.0
C62 C 0.80015 0.91048 0.60487 0.0
C63 C 0.81064 0.91248 0.62715 0.0
C64 C 0.81089 0.88636 0.63715 0.0
H65 H 0.19408 0.94001 0.60267 0.0
H66 H 0.10379 0.84988 0.60524 0.0
H67 H 0.12506 0.91839 0.65753 0.0
H68 H 0.08134 0.85239 0.67573 0.0
C69 C 0.0784 0.84073 0.65909 0.0
O70 O 0.08183 0.86192 0.64223 0.0
H71 H 0.09807 0.83434 0.65767 0.0
C72 C 0.17107 0.92398 0.61108 0.0
C73 C 0.16263 0.9333 0.63148 0.0
C74 C 0.15024 0.89384 0.60153 0.0
C75 C 0.12031 0.87308 0.61238 0.0
C76 C 0.11117 0.88209 0.63235 0.0
C77 C 0.13223 0.91208 0.64183 0.0
H78 H 0.92616 0.40328 0.77775 0.0
H79 H 0.91116 0.48366 0.77506 0.0
H80 H 0.88632 0.42162 0.71795 0.0
H81 H 0.91095 0.49052 0.70534 0.0
C82 C 0.90729 0.49845 0.72217 0.0
O83 O 0.88623 0.47185 0.73475 0.0
H84 H 0.93178 0.51176 0.73043 0.0
C85 C 0.91865 0.41778 0.76847 0.0
C86 C 0.90665 0.40909 0.74634 0.0
C87 C 0.92101 0.44485 0.77894 0.0
C88 C 0.90942 0.46255 0.76745 0.0
C89 C 0.89673 0.45403 0.74561 0.0
C90 C 0.89545 0.42744 0.73504 0.0
H91 H 0.62731 0.52218 0.7673 0.0
H92 H 0.54532 0.42621 0.76475 0.0
H93 H 0.62004 0.45848 0.71372 0.0
H94 H 0.55091 0.41023 0.69561 0.0
C95 C 0.53953 0.40319 0.71266 0.0
O96 O 0.56414 0.4103 0.72823 0.0
H97 H 0.5269 0.41695 0.71639 0.0
C98 C 0.61459 0.49909 0.75918 0.0
C99 C 0.62792 0.49355 0.73937 0.0
C100 C 0.58457 0.47509 0.76839 0.0
C101 C 0.56827 0.44513 0.75787 0.0
C102 C 0.58096 0.43923 0.73827 0.0
C103 C 0.61074 0.46329 0.72909 0.0
H104 H 0.50319 0.09991 0.77204 0.0
H105 H 0.60173 0.1146 0.771 0.0
H106 H 0.5665 0.14485 0.71488 0.0
H107 H 0.62064 0.13506 0.6981 0.0
C108 C 0.62295 0.12578 0.71471 0.0
O109 O 0.61744 0.1424 0.73161 0.0
H110 H 0.60369 0.10008 0.71519 0.0
C111 C 0.52672 0.10834 0.76371 0.0
C112 C 0.53145 0.12205 0.7421 0.0
C113 C 0.55179 0.1056 0.77464 0.0
C114 C 0.5822 0.11702 0.76336 0.0
C115 C 0.58771 0.13136 0.74198 0.0
C116 C 0.56241 0.13426 0.73153 0.0
H117 H 0.75175 0.58678 0.93506 0.0
H118 H 0.83394 0.57242 0.94642 0.0
H119 H 0.75703 0.54094 0.99591 0.0
H120 H 0.81139 0.51108 0.9661 0.0
C121 C 0.81774 0.52047 0.98361 0.0
O122 O 0.81515 0.54754 0.98616 0.0
H123 H 0.79994 0.50183 0.99533 0.0
C124 C 0.76409 0.57739 0.94522 0.0
C125 C 0.75023 0.56297 0.96619 0.0
C126 C 0.79428 0.581 0.93771 0.0
C127 C 0.81056 0.5698 0.95159 0.0
C128 C 0.79717 0.55521 0.97236 0.0
C129 C 0.76676 0.55134 0.97951 0.0
H130 H 0.4435 0.16321 0.93343 0.0
H131 H 0.44613 0.25313 0.93827 0.0
H132 H 0.49233 0.22703 0.98906 0.0
H133 H 0.46143 0.2603 1.00773 0.0
C134 C 0.46013 0.2726 0.99226 0.0
O135 O 0.47944 0.27048 0.97554 0.0
H136 H 0.43393 0.26066 0.98687 0.0
C137 C 0.45114 0.18545 0.94215 0.0
C138 C 0.46947 0.19232 0.96226 0.0
C139 C 0.44211 0.207 0.93344 0.0
C140 C 0.45232 0.23591 0.94476 0.0
C141 C 0.47045 0.24292 0.96462 0.0
C142 C 0.47897 0.22132 0.97331 0.0
H143 H 0.85584 0.28038 0.93511 0.0
H144 H 0.76214 0.19422 0.9343 0.0
H145 H 0.78809 0.25707 0.99102 0.0
H146 H 0.74357 0.19496 1.00799 0.0
C147 C 0.74075 0.18249 0.99171 0.0
O148 O 0.74324 0.20256 0.97424 0.0
H149 H 0.76114 0.17707 0.99067 0.0
C150 C 0.83232 0.26518 0.94317 0.0
C151 C 0.8255 0.27293 0.96471 0.0
C152 C 0.80945 0.23742 0.93181 0.0
C153 C 0.77986 0.21592 0.9427 0.0
C154 C 0.77238 0.223 0.96412 0.0
C155 C 0.79481 0.25169 0.9748 0.0
H156 H 0.58593 0.72855 0.09899 0.0
H157 H 0.59071 0.81946 0.10024 0.0
H158 H 0.54085 0.7543 0.04624 0.0
H159 H 0.57641 0.81947 0.03212 0.0
C160 C 0.57578 0.83167 0.04787 0.0
O161 O 0.55606 0.80936 0.06372 0.0
H162 H 0.60142 0.84582 0.05423 0.0
C163 C 0.58048 0.74563 0.09129 0.0
C164 C 0.56282 0.73787 0.07098 0.0
C165 C 0.59129 0.77513 0.10186 0.0
C166 C 0.58253 0.79643 0.09254 0.0
C167 C 0.56402 0.78858 0.0727 0.0
C168 C 0.55426 0.75948 0.06193 0.0
H169 H 0.28527 0.85969 0.10775 0.0
H170 H 0.20881 0.76116 0.10584 0.0
H171 H 0.27515 0.80198 0.04969 0.0
H172 H 0.20528 0.75477 0.03556 0.0
C173 C 0.19651 0.74315 0.05231 0.0
O174 O 0.22339 0.75022 0.06565 0.0
H175 H 0.1817 0.75287 0.06004 0.0
C176 C 0.27265 0.83703 0.09904 0.0
C177 C 0.28367 0.83419 0.07748 0.0
C178 C 0.24587 0.81084 0.10962 0.0
C179 C 0.22997 0.78149 0.09827 0.0
C180 C 0.24026 0.77836 0.07667 0.0
C181 C 0.26741 0.80454 0.06643 0.0
H182 H 0.1719 0.44361 0.10578 0.0
H183 H 0.26857 0.4537 0.10322 0.0
H184 H 0.23279 0.48329 0.04701 0.0
H185 H 0.28512 0.47247 0.02966 0.0
C186 C 0.2873 0.46275 0.04612 0.0
O187 O 0.2835 0.48009 0.06329 0.0
H188 H 0.26709 0.43741 0.04672 0.0
C189 C 0.19484 0.45054 0.09706 0.0
C190 C 0.19891 0.46288 0.07509 0.0
C191 C 0.21952 0.44687 0.10769 0.0
C192 C 0.24928 0.45674 0.09585 0.0
C193 C 0.25438 0.47033 0.07419 0.0
C194 C 0.22921 0.47364 0.06394 0.0
H195 H 0.40207 0.90071 0.26742 0.0
H196 H 0.48815 0.89055 0.26907 0.0
H197 H 0.41867 0.85441 0.32379 0.0
H198 H 0.48799 0.87525 0.34016 0.0
C199 C 0.49919 0.87885 0.32308 0.0
O200 O 0.47455 0.8609 0.30768 0.0
H201 H 0.51048 0.90466 0.31897 0.0
C202 C 0.41727 0.89307 0.27598 0.0
C203 C 0.40676 0.87746 0.29707 0.0
C204 C 0.44632 0.89759 0.26537 0.0
C205 C 0.46545 0.88691 0.27659 0.0
C206 C 0.45579 0.87159 0.29762 0.0
C207 C 0.42621 0.86651 0.30765 0.0
H208 H 0.11535 0.50132 0.26138 0.0
H209 H 0.12938 0.59588 0.26559 0.0
H210 H 0.15314 0.55646 0.32222 0.0
H211 H 0.12905 0.59787 0.33701 0.0
C212 C 0.13153 0.61053 0.32084 0.0
O213 O 0.15251 0.60653 0.3066 0.0
H214 H 0.10657 0.59994 0.31326 0.0
C215 C 0.123 0.523 0.27086 0.0
C216 C 0.13432 0.52536 0.29312 0.0
C217 C 0.12076 0.54805 0.26077 0.0
C218 C 0.13076 0.5762 0.27305 0.0
C219 C 0.14276 0.57922 0.29502 0.0
C220 C 0.14455 0.55393 0.30501 0.0
H221 H 0.52261 0.61962 0.25972 0.0
H222 H 0.43335 0.52949 0.26666 0.0
H223 H 0.46233 0.59935 0.31937 0.0
H224 H 0.41887 0.53071 0.33895 0.0
C225 C 0.41494 0.51976 0.32195 0.0
O226 O 0.41695 0.5416 0.30602 0.0
H227 H 0.43489 0.51404 0.31917 0.0
C228 C 0.50074 0.60383 0.26938 0.0
C229 C 0.49542 0.61377 0.29054 0.0
C230 C 0.47858 0.57375 0.26045 0.0
C231 C 0.45094 0.55265 0.27335 0.0
C232 C 0.44509 0.56168 0.29461 0.0
C233 C 0.46738 0.59224 0.30321 0.0
Tb234 Tb 0.49655 0.98852 0.9927 0.0
C235 C 0.54817 0.09575 0.0633 0.0
C236 C 0.60693 0.11701 0.0646 0.0
C237 C 0.58439 0.15134 0.07305 0.0
C238 C 0.57484 0.09155 0.06065 0.0
C239 C 0.55245 0.12551 0.06993 0.0
C240 C 0.61161 0.14709 0.07039 0.0
C241 C 0.49332 0.10125 0.07156 0.0
N242 N 0.51782 0.07014 0.0603 0.0
C243 C 0.49039 0.07217 0.06516 0.0
C244 C 0.5245 0.12814 0.07372 0.0
Tb245 Tb 0.51533 0.02378 0.04885 0.0
N246 N 0.56916 0.06209 0.0551 0.0
C247 C 0.59468 0.05608 0.05465 0.0
C248 C 0.63322 0.11128 0.06304 0.0
C249 C 0.627 0.08058 0.05829 0.0
H250 H 0.46615 0.0516 0.06345 0.0
H251 H 0.64711 0.07576 0.05733 0.0
H252 H 0.63609 0.16703 0.07328 0.0
H253 H 0.47153 0.10287 0.07485 0.0
H254 H 0.59064 0.03268 0.05087 0.0
H255 H 0.36418 0.93295 0.98703 0.0
H256 H 0.65827 0.13021 0.06584 0.0
H257 H 0.54656 0.96282 0.97555 0.0
H258 H 0.42062 0.9776 0.99133 0.0
H259 H 0.54231 0.91194 0.96426 0.0
H260 H 0.58825 0.17449 0.07797 0.0
H261 H 0.35419 0.87846 0.98035 0.0
H262 H 0.37761 0.84256 0.97312 0.0
H263 H 0.52671 0.1506 0.07879 0.0
H264 H 0.42626 0.83679 0.96684 0.0
N265 N 0.44294 0.94887 0.98786 0.0
C266 C 0.41691 0.9541 0.98838 0.0
C267 C 0.37914 0.89802 0.98227 0.0
C268 C 0.40596 0.89312 0.98036 0.0
C269 C 0.3847 0.92875 0.98596 0.0
C270 C 0.43789 0.91939 0.98314 0.0
H271 H 0.48789 0.86271 0.96309 0.0
N272 N 0.49508 0.94256 0.98135 0.0
C273 C 0.52036 0.91275 0.96866 0.0
C274 C 0.465 0.91608 0.97975 0.0
C275 C 0.52265 0.94158 0.97503 0.0
C276 C 0.4896 0.88498 0.96809 0.0
C277 C 0.46135 0.88652 0.97329 0.0
O278 O 0.52372 1.00465 0.96237 0.0
O279 O 0.53049 0.02706 0.01406 0.0
O280 O 0.50898 0.05608 0.02634 0.0
O281 O 0.47587 0.01992 0.99877 0.0
O282 O 0.55041 0.0126 0.98954 0.0
O283 O 0.47688 1.00186 0.96567 0.0
O284 O 0.48666 0.00801 0.07864 0.0
O285 O 0.48146 0.985 0.02757 0.0
O286 O 0.50448 0.95688 0.01456 0.0
O287 O 0.53599 0.99223 0.04303 0.0
O288 O 0.46163 1.00117 0.05094 0.0
O289 O 0.53228 0.00814 0.07617 0.0
C290 C 0.5576 0.033 1.00543 0.0
C291 C 0.49235 0.99396 0.92916 0.0
C292 C 0.49117 0.99989 0.88808 0.0
C293 C 0.50013 0.01361 0.90982 0.0
C294 C 0.47522 0.96651 0.88609 0.0
C295 C 0.47608 0.96082 0.92649 0.0
C296 C 0.46778 0.94723 0.90513 0.0
C297 C 0.4882 0.04776 1.00924 0.0
C298 C 0.50119 0.00789 0.95204 0.0
C299 C 0.42964 0.85983 0.97154 0.0
C300 C 0.40195 0.86312 0.9751 0.0
C301 C 0.45436 0.97989 0.03569 0.0
C302 C 0.51553 0.01498 0.11266 0.0
C303 C 0.49967 0.99471 0.13137 0.0
C304 C 0.50624 0.00696 0.1536 0.0
C305 C 0.52921 0.03944 0.15673 0.0
C306 C 0.53838 0.04719 0.11646 0.0
C307 C 0.54519 0.05927 0.13833 0.0
C308 C 0.52498 0.96508 0.03179 0.0
C309 C 0.50762 1.00273 0.08927 0.0
H310 H 0.51242 0.03926 0.91172 0.0
H311 H 0.46849 0.95522 0.86969 0.0
H312 H 0.46972 0.94535 0.94091 0.0
H313 H 0.45538 0.92158 0.90332 0.0
H314 H 0.48183 0.96981 0.12861 0.0
H315 H 0.53497 0.04952 0.17354 0.0
H316 H 0.55093 0.06307 0.10251 0.0
H317 H 0.56287 0.0842 0.14105 0.0
Tb318 Tb 0.03665 0.51111 0.99336 0.0
C319 C 0.92271 0.44743 0.06153 0.0
C320 C 0.89747 0.48022 0.06047 0.0
C321 C 0.86439 0.42397 0.0698 0.0
C322 C 0.92518 0.47648 0.05773 0.0
C323 C 0.89257 0.42097 0.06829 0.0
C324 C 0.86683 0.45359 0.06587 0.0
C325 C 0.92132 0.39199 0.07415 0.0
N326 N 0.95064 0.44583 0.06026 0.0
C327 C 0.95063 0.41895 0.06732 0.0
C328 C 0.89202 0.3928 0.07423 0.0
Tb329 Tb 0.9975 0.49086 0.0485 0.0
N330 N 0.95534 0.50159 0.05293 0.0
C331 C 0.95986 0.53174 0.05239 0.0
C332 C 0.90165 0.51076 0.05847 0.0
C333 C 0.9331 0.53669 0.0548 0.0
H334 H 0.97303 0.41791 0.06714 0.0
H335 H 0.93677 0.56053 0.05369 0.0
H336 H 0.84515 0.45587 0.06776 0.0
H337 H 0.92133 0.37056 0.07921 0.0
H338 H 0.98385 0.55214 0.04941 0.0
H339 H 0.09362 0.43832 0.98676 0.0
H340 H 0.88099 0.51466 0.06035 0.0
H341 H 0.06461 0.58649 0.97901 0.0
H342 H 0.04739 0.44827 0.9908 0.0
H343 H 0.11826 0.6341 0.97013 0.0
H344 H 0.84087 0.40384 0.07472 0.0
H345 H 0.15039 0.48348 0.98218 0.0
H346 H 0.18821 0.54257 0.97739 0.0
H347 H 0.86937 0.37192 0.07955 0.0
H348 H 0.195 0.59605 0.97293 0.0
N349 N 0.07754 0.49882 0.98904 0.0
C350 C 0.07192 0.46829 0.98868 0.0
C351 C 0.13015 0.48804 0.98392 0.0
C352 C 0.13553 0.51911 0.98302 0.0
C353 C 0.09813 0.46249 0.98643 0.0
C354 C 0.10833 0.5237 0.98549 0.0
H355 H 0.16892 0.6304 0.96984 0.0
N356 N 0.08494 0.55646 0.98437 0.0
C357 C 0.11692 0.61164 0.97385 0.0
C358 C 0.11223 0.55367 0.98313 0.0
C359 C 0.08658 0.58463 0.97882 0.0
C360 C 0.14549 0.60948 0.97377 0.0
C361 C 0.14329 0.58008 0.97802 0.0
O362 O 0.02405 0.52455 0.96292 0.0
O363 O 0.99496 0.50248 0.01378 0.0
O364 O 0.9663 0.45047 0.02654 0.0
O365 O 1.0025 0.45905 0.99647 0.0
O366 O 1.00978 0.53745 0.99035 0.0
O367 O 0.02617 0.48127 0.96514 0.0
O368 O 1.01262 0.48093 0.07939 0.0
O369 O 0.03882 0.49853 0.02786 0.0
O370 O 0.0678 0.54927 0.01653 0.0
O371 O 0.02891 0.54313 0.04351 0.0
O372 O 0.02315 0.46355 0.05127 0.0
O373 O 1.01152 0.52432 0.07471 0.0
C374 C 0.98762 0.52196 1.00541 0.0
C375 C 0.03815 0.50712 0.92974 0.0
C376 C 0.03475 0.50067 0.88877 0.0
C377 C 0.01933 0.49451 0.9101 0.0
C378 C 0.06919 0.51997 0.88741 0.0
C379 C 0.07242 0.52608 0.92791 0.0
C380 C 0.08781 0.53254 0.90687 0.0
C381 C 0.97436 0.44128 1.00761 0.0
C382 C 0.02173 0.50024 0.95192 0.0
C383 C 0.17081 0.576 0.97659 0.0
C384 C 0.16694 0.54555 0.97911 0.0
C385 C 0.0451 0.47815 0.03596 0.0
C386 C 1.00169 0.50311 0.11146 0.0
C387 C 0.02205 0.51522 0.13046 0.0
C388 C 1.00831 0.51279 0.15208 0.0
C389 C 0.97389 0.4978 0.15434 0.0
C390 C 0.9675 0.4884 0.11416 0.0
C391 C 0.9537 0.4857 0.13549 0.0
C392 C 0.05803 0.56027 0.03349 0.0
C393 C 0.01647 0.50675 0.08893 0.0
H394 H 0.99284 0.47953 0.91148 0.0
H395 H 0.08174 0.52555 0.87124 0.0
H396 H 0.08735 0.53594 0.94265 0.0
H397 H 0.11429 0.54734 0.90564 0.0
H398 H 0.04853 0.52695 0.12835 0.0
H399 H 0.96251 0.49505 0.17076 0.0
H400 H 0.95145 0.47915 0.09984 0.0
H401 H 0.92725 0.47419 0.13741 0.0
Tb402 Tb 0.53216 0.50609 0.04527 0.0
C403 C 0.47822 0.55939 0.97395 0.0
C404 C 0.41953 0.52294 0.97349 0.0
C405 C 0.44117 0.57869 0.96392 0.0
C406 C 0.45186 0.52922 0.97723 0.0
C407 C 0.47334 0.58443 0.96684 0.0
C408 C 0.41428 0.54797 0.96724 0.0
C409 C 0.53235 0.61809 0.96432 0.0
N410 N 0.50882 0.56381 0.9768 0.0
C411 C 0.53588 0.59239 0.97121 0.0
C412 C 0.50094 0.61421 0.96237 0.0
Tb413 Tb 0.51223 0.5207 0.98907 0.0
N414 N 0.45807 0.50577 0.98323 0.0
C415 C 0.43283 0.47487 0.98439 0.0
C416 C 0.39355 0.49162 0.97575 0.0
C417 C 0.40029 0.46744 0.98098 0.0
H418 H 0.56029 0.59574 0.97274 0.0
H419 H 0.38042 0.44304 0.98248 0.0
H420 H 0.38961 0.54369 0.96451 0.0
H421 H 0.55386 0.64086 0.96049 0.0
H422 H 0.4373 0.45577 0.98855 0.0
H423 H 0.66448 0.58085 0.04998 0.0
H424 H 0.36834 0.48579 0.97313 0.0
H425 H 0.48312 0.4323 0.06361 0.0
H426 H 0.60773 0.56967 0.04548 0.0
H427 H 0.48833 0.38655 0.07611 0.0
H428 H 0.43685 0.59767 0.95864 0.0
H429 H 0.67535 0.53691 0.0579 0.0
H430 H 0.65279 0.47875 0.0665 0.0
H431 H 0.49827 0.63411 0.95692 0.0
H432 H 0.6047 0.42573 0.07379 0.0
N433 N 0.58608 0.5195 0.05001 0.0
C434 C 0.61182 0.55014 0.04896 0.0
C435 C 0.65026 0.53179 0.05588 0.0
C436 C 0.62376 0.50078 0.05837 0.0
C437 C 0.64421 0.55665 0.05149 0.0
C438 C 0.59162 0.49543 0.05543 0.0
H439 H 0.54319 0.3912 0.07781 0.0
N440 N 0.5345 0.46249 0.0577 0.0
C441 C 0.51005 0.40869 0.07142 0.0
C442 C 0.56481 0.46582 0.05955 0.0
C443 C 0.50722 0.43474 0.06437 0.0
C444 C 0.54105 0.41138 0.0723 0.0
C445 C 0.569 0.44038 0.06667 0.0
O446 O 0.50511 0.49635 0.0756 0.0
O447 O 0.49757 0.51073 0.02401 0.0
O448 O 0.51854 0.55991 0.01054 0.0
O449 O 0.55211 0.55733 0.03836 0.0
O450 O 0.47828 0.47738 0.04875 0.0
O451 O 0.552 0.53911 0.07192 0.0
O452 O 0.54094 0.53198 0.95944 0.0
O453 O 0.54686 0.51585 1.01026 0.0
O454 O 0.52477 0.46625 0.0242 0.0
O455 O 0.49249 0.46935 0.99562 0.0
O456 O 0.56589 0.55071 0.98647 0.0
O457 O 0.49449 0.48843 0.96189 0.0
C458 C 0.47061 0.49039 0.03286 0.0
C459 C 0.53687 0.51634 0.10851 0.0
C460 C 0.52884 0.51387 0.14951 0.0
C461 C 0.52138 0.52018 0.12773 0.0
C462 C 0.55212 0.5039 0.15168 0.0
C463 C 0.56024 0.50672 0.11126 0.0
C464 C 0.56773 0.50048 0.13269 0.0
C465 C 0.53979 0.57271 0.02725 0.0
C466 C 0.52789 0.52155 0.0857 0.0
C467 C 0.60092 0.44504 0.06856 0.0
C468 C 0.62828 0.47522 0.0644 0.0
C469 C 0.57373 0.53708 1.00181 0.0
C470 C 0.51198 0.51163 0.92556 0.0
C471 C 0.52868 0.50737 0.90726 0.0
C472 C 0.52225 0.51252 0.88487 0.0
C473 C 0.49913 0.52244 0.88125 0.0
C474 C 0.48889 0.52123 0.9214 0.0
C475 C 0.48262 0.52668 0.89938 0.0
C476 C 0.50409 0.45365 1.00716 0.0
C477 C 0.51939 0.50662 0.94885 0.0
H478 H 0.50327 0.52759 0.12573 0.0
H479 H 0.55873 0.49928 0.16816 0.0
H480 H 0.57276 0.50404 0.09689 0.0
H481 H 0.5858 0.49304 0.13461 0.0
H482 H 0.5463 0.49964 0.91049 0.0
H483 H 0.494 0.52726 0.86438 0.0
H484 H 0.47574 0.52454 0.93513 0.0
H485 H 0.4649 0.53429 0.89633 0.0
Tb486 Tb 0.16636 0.33216 0.32646 0.0
C487 C 0.23825 0.43171 0.40061 0.0
C488 C 0.29498 0.44509 0.39678 0.0
C489 C 0.28203 0.48447 0.4112 0.0
C490 C 0.26107 0.4233 0.39435 0.0
C491 C 0.24831 0.46215 0.40956 0.0
C492 C 0.30535 0.47595 0.4048 0.0
C493 C 0.1911 0.4452 0.41624 0.0
N494 N 0.20602 0.40939 0.39887 0.0
C495 C 0.18242 0.41528 0.40737 0.0
C496 C 0.22419 0.4689 0.4171 0.0
Tb497 Tb 0.19384 0.36144 0.38318 0.0
N498 N 0.24993 0.39325 0.38674 0.0
C499 C 0.27172 0.38286 0.38266 0.0
C500 C 0.31734 0.43501 0.39149 0.0
C501 C 0.30561 0.40362 0.38468 0.0
H502 H 0.15674 0.39723 0.40672 0.0
H503 H 0.32267 0.39539 0.38086 0.0
H504 H 0.33129 0.49314 0.40657 0.0
H505 H 0.17227 0.44995 0.42243 0.0
H506 H 0.26345 0.35886 0.37719 0.0
H507 H 0.03682 0.29494 0.32716 0.0
H508 H 0.3436 0.45104 0.39301 0.0
H509 H 0.20521 0.29723 0.30434 0.0
H510 H 0.09607 0.33341 0.32954 0.0
H511 H 0.19115 0.24357 0.29101 0.0
H512 H 0.2903 0.5081 0.41785 0.0
H513 H 0.01742 0.23819 0.31914 0.0
H514 H 0.03136 0.19588 0.30899 0.0
H515 H 0.23088 0.49201 0.42407 0.0
H516 H 0.07347 0.18184 0.29895 0.0
N517 N 0.11058 0.29886 0.32349 0.0
C518 C 0.08819 0.30884 0.32591 0.0
C519 C 0.04356 0.255 0.32017 0.0
C520 C 0.06662 0.24529 0.31631 0.0
C521 C 0.05443 0.28703 0.32461 0.0
C522 C 0.10032 0.26812 0.31798 0.0
H523 H 0.13323 0.19969 0.29171 0.0
N524 N 0.15584 0.28356 0.31305 0.0
C525 C 0.17198 0.24789 0.2971 0.0
C526 C 0.12381 0.26016 0.31247 0.0
C527 C 0.17986 0.27827 0.30458 0.0
C528 C 0.13926 0.22315 0.2976 0.0
C529 C 0.1146 0.22925 0.30497 0.0
O530 O 0.19083 0.34572 0.29504 0.0
O531 O 0.20498 0.3667 0.34764 0.0
O532 O 0.19 0.39874 0.36514 0.0
O533 O 0.15427 0.36928 0.33591 0.0
O534 O 0.21961 0.35145 0.32064 0.0
O535 O 0.14827 0.35014 0.30133 0.0
O536 O 0.1676 0.3457 0.41389 0.0
O537 O 0.15433 0.32725 0.36205 0.0
O538 O 0.16834 0.29477 0.3455 0.0
O539 O 0.2064 0.32476 0.37308 0.0
O540 O 0.14187 0.3463 0.3882 0.0
O541 O 0.20921 0.33979 0.40729 0.0
C542 C 0.23038 0.37107 0.33725 0.0
C543 C 0.15728 0.33931 0.2637 0.0
C544 C 0.15474 0.34528 0.22273 0.0
C545 C 0.16691 0.35882 0.24419 0.0
C546 C 0.13392 0.31205 0.22116 0.0
C547 C 0.13576 0.30649 0.26144 0.0
C548 C 0.12445 0.29294 0.24035 0.0
C549 C 0.16965 0.39536 0.34854 0.0
C550 C 0.16992 0.35281 0.28632 0.0
C551 C 0.08111 0.20588 0.3044 0.0
C552 C 0.05714 0.21388 0.31011 0.0
C553 C 0.12991 0.3261 0.37203 0.0
C554 C 0.19816 0.34609 0.44542 0.0
C555 C 0.18137 0.32516 0.4635 0.0
C556 C 0.19169 0.3342 0.486 0.0
C557 C 0.21889 0.3647 0.48996 0.0
C558 C 0.22528 0.37618 0.44992 0.0
C559 C 0.23549 0.3854 0.47206 0.0
C560 C 0.18976 0.29824 0.36116 0.0
C561 C 0.18698 0.33633 0.42204 0.0
H562 H 0.18315 0.38431 0.24577 0.0
H563 H 0.12475 0.30072 0.20498 0.0
H564 H 0.12765 0.29121 0.27594 0.0
H565 H 0.10813 0.26747 0.23889 0.0
H566 H 0.16059 0.30178 0.45997 0.0
H567 H 0.22714 0.37282 0.50697 0.0
H568 H 0.23857 0.39254 0.43635 0.0
H569 H 0.25635 0.40877 0.47539 0.0
Tb570 Tb 0.70153 0.84043 0.32224 0.0
C571 C 0.59698 0.80769 0.39436 0.0
C572 C 0.58203 0.84832 0.38992 0.0
C573 C 0.5415 0.79576 0.40365 0.0
C574 C 0.60514 0.83799 0.3878 0.0
C575 C 0.56544 0.7865 0.40308 0.0
C576 C 0.5498 0.82668 0.39707 0.0
C577 C 0.58509 0.75063 0.41289 0.0
N578 N 0.62101 0.80002 0.39398 0.0
C579 C 0.61608 0.77265 0.40422 0.0
C580 C 0.55945 0.75731 0.41193 0.0
Tb581 Tb 0.67065 0.83693 0.37866 0.0
N582 N 0.63672 0.85824 0.38148 0.0
C583 C 0.64752 0.89007 0.37912 0.0
C584 C 0.59245 0.88039 0.38585 0.0
C585 C 0.62551 0.90148 0.3809 0.0
H586 H 0.63575 0.76725 0.40488 0.0
H587 H 0.63405 0.92653 0.37831 0.0
H588 H 0.53153 0.83399 0.39842 0.0
H589 H 0.58102 0.72854 0.42029 0.0
H590 H 0.67288 0.90678 0.37514 0.0
H591 H 0.73378 0.74785 0.32608 0.0
H592 H 0.57547 0.8893 0.38723 0.0
H593 H 0.74036 0.91144 0.29775 0.0
H594 H 0.69644 0.76945 0.32794 0.0
H595 H 0.79616 0.94869 0.28324 0.0
H596 H 0.51695 0.77968 0.41 0.0
H597 H 0.79264 0.78321 0.3169 0.0
H598 H 0.83807 0.83754 0.30514 0.0
H599 H 0.53555 0.74034 0.41881 0.0
H600 H 0.85517 0.89243 0.29341 0.0
N601 N 0.73367 0.81715 0.32022 0.0
C602 C 0.72192 0.78533 0.32372 0.0
C603 C 0.77632 0.79292 0.31764 0.0
C604 C 0.78783 0.82504 0.3128 0.0
C605 C 0.74309 0.77288 0.32273 0.0
C606 C 0.76556 0.83646 0.31412 0.0
H607 H 0.83948 0.93392 0.2847 0.0
N608 N 0.75228 0.87634 0.30793 0.0
C609 C 0.79066 0.92591 0.29021 0.0
C610 C 0.77525 0.86724 0.30773 0.0
C611 C 0.75906 0.90472 0.29838 0.0
C612 C 0.81508 0.91754 0.29113 0.0
C613 C 0.80736 0.88762 0.29958 0.0
O614 O 0.6877 0.85147 0.29133 0.0
O615 O 0.66457 0.84278 0.34304 0.0
O616 O 0.63278 0.79371 0.36184 0.0
O617 O 0.6611 0.79162 0.32984 0.0
O618 O 0.68553 0.87526 0.31744 0.0
O619 O 0.68365 0.80572 0.29669 0.0
O620 O 0.68581 0.82756 0.4097 0.0
O621 O 0.70689 0.8348 0.35757 0.0
O622 O 0.73974 0.88146 0.34026 0.0
O623 O 0.70978 0.88648 0.36991 0.0
O624 O 0.69049 0.8047 0.38411 0.0
O625 O 0.68932 0.87282 0.40341 0.0
C626 C 0.66358 0.86541 0.33311 0.0
C627 C 0.69506 0.82662 0.25963 0.0
C628 C 0.68908 0.82538 0.21867 0.0
C629 C 0.6758 0.82237 0.24051 0.0
C630 C 0.72221 0.83339 0.21639 0.0
C631 C 0.72761 0.83348 0.25689 0.0
C632 C 0.74119 0.83716 0.2354 0.0
C633 C 0.63555 0.77883 0.34391 0.0
C634 C 0.68099 0.82448 0.2822 0.0
C635 C 0.83023 0.87701 0.29935 0.0
C636 C 0.82048 0.84575 0.306 0.0
C637 C 0.71125 0.81436 0.36768 0.0
C638 C 0.67817 0.85318 0.44087 0.0
C639 C 0.69525 0.85293 0.4602 0.0
C640 C 0.68122 0.84962 0.48178 0.0
C641 C 0.65002 0.84671 0.48379 0.0
C642 C 0.64731 0.85086 0.44332 0.0
C643 C 0.63331 0.84754 0.46466 0.0
C644 C 0.73668 0.89787 0.35703 0.0
C645 C 0.69228 0.85473 0.41833 0.0
H646 H 0.65035 0.81616 0.24272 0.0
H647 H 0.73355 0.83672 0.19991 0.0
H648 H 0.74254 0.83595 0.27127 0.0
H649 H 0.7665 0.8429 0.23345 0.0
H650 H 0.71912 0.85473 0.45844 0.0
H651 H 0.63879 0.84429 0.50023 0.0
H652 H 0.63401 0.85161 0.42881 0.0
H653 H 0.60943 0.84561 0.46637 0.0
Tb654 Tb 0.20489 0.84319 0.37838 0.0
C655 C 0.13815 0.89297 0.31539 0.0
C656 C 0.08018 0.85388 0.31571 0.0
C657 C 0.09788 0.90983 0.31001 0.0
C658 C 0.11333 0.86191 0.31797 0.0
C659 C 0.13087 0.9173 0.31091 0.0
C660 C 0.07254 0.87811 0.31236 0.0
C661 C 0.18913 0.95378 0.30639 0.0
N662 N 0.16958 0.899 0.31605 0.0
C663 C 0.19503 0.92872 0.31065 0.0
C664 C 0.15693 0.94815 0.30681 0.0
Tb665 Tb 0.17705 0.8569 0.32478 0.0
N666 N 0.12186 0.83929 0.32104 0.0
C667 C 0.09826 0.80774 0.3201 0.0
C668 C 0.05585 0.8217 0.31609 0.0
C669 C 0.06501 0.79852 0.3179 0.0
H670 H 0.22006 0.93347 0.31046 0.0
H671 H 0.04645 0.77351 0.31777 0.0
H672 H 0.0472 0.87248 0.31093 0.0
H673 H 0.20943 0.97741 0.30279 0.0
H674 H 0.10466 0.7894 0.32165 0.0
H675 H 0.33661 0.92323 0.37891 0.0
H676 H 0.03009 0.81449 0.31446 0.0
H677 H 0.16054 0.76832 0.39649 0.0
H678 H 0.27866 0.90907 0.37703 0.0
H679 H 0.16973 0.72424 0.40668 0.0
H680 H 0.09173 0.92822 0.30682 0.0
H681 H 0.35114 0.88123 0.38438 0.0
H682 H 0.33222 0.82343 0.39173 0.0
H683 H 0.1524 0.96756 0.30338 0.0
H684 H 0.28666 0.76911 0.39948 0.0
N685 N 0.25984 0.85917 0.38082 0.0
C686 C 0.28432 0.89036 0.37956 0.0
C687 C 0.32552 0.87482 0.38361 0.0
C688 C 0.3004 0.8432 0.38631 0.0
C689 C 0.31741 0.89858 0.38058 0.0
C690 C 0.26747 0.83618 0.38503 0.0
H691 H 0.22593 0.73199 0.40552 0.0
N692 N 0.21105 0.80097 0.38913 0.0
C693 C 0.19033 0.74709 0.40178 0.0
C694 C 0.2421 0.80591 0.3894 0.0
C695 C 0.18526 0.77227 0.39603 0.0
C696 C 0.22207 0.75151 0.40104 0.0
C697 C 0.24854 0.78137 0.39513 0.0
O698 O 0.18074 0.83288 0.40988 0.0
O699 O 0.16593 0.84447 0.35981 0.0
O700 O 0.18207 0.8937 0.34857 0.0
O701 O 0.22172 0.8939 0.37196 0.0
O702 O 0.15205 0.81131 0.38472 0.0
O703 O 0.22552 0.87723 0.40438 0.0
O704 O 0.20172 0.87123 0.2935 0.0
O705 O 0.21583 0.85444 0.34293 0.0
O706 O 0.19781 0.80456 0.35585 0.0
O707 O 0.16092 0.80597 0.33023 0.0
O708 O 0.22986 0.88944 0.31943 0.0
O709 O 0.15933 0.82457 0.29767 0.0
C710 C 0.14095 0.82262 0.36984 0.0
C711 C 0.21392 0.85685 0.44168 0.0
C712 C 0.21207 0.86311 0.48259 0.0
C713 C 0.20305 0.86671 0.46059 0.0
C714 C 0.23239 0.84974 0.48527 0.0
C715 C 0.23426 0.84373 0.44479 0.0
C716 C 0.24345 0.84026 0.46649 0.0
C717 C 0.20596 0.9078 0.36351 0.0
C718 C 0.20288 0.85942 0.41896 0.0
C719 C 0.28118 0.78771 0.39535 0.0
C720 C 0.3071 0.81861 0.39093 0.0
C721 C 0.24092 0.87686 0.33335 0.0
C722 C 0.16911 0.8481 0.26139 0.0
C723 C 0.18426 0.84558 0.24155 0.0
C724 C 0.17409 0.85018 0.22024 0.0
C725 C 0.1483 0.85693 0.21911 0.0
C726 C 0.14339 0.85475 0.25981 0.0
C727 C 0.13303 0.85906 0.23877 0.0
C728 C 0.17533 0.79135 0.33983 0.0
C729 C 0.18114 0.84477 0.28353 0.0
H730 H 0.18706 0.87658 0.45819 0.0
H731 H 0.24007 0.84696 0.5019 0.0
H732 H 0.2429 0.83606 0.43051 0.0
H733 H 0.25917 0.83011 0.46878 0.0
H734 H 0.20437 0.84075 0.24273 0.0
H735 H 0.13974 0.86029 0.20298 0.0
H736 H 0.13139 0.85671 0.27478 0.0
H737 H 0.11315 0.86419 0.2377 0.0
Tb738 Tb 0.82729 0.6611 0.65608 0.0
C739 C 0.90178 0.75873 0.72949 0.0
C740 C 0.95752 0.76885 0.7262 0.0
C741 C 0.94754 0.8107 0.73949 0.0
C742 C 0.92334 0.74844 0.72371 0.0
C743 C 0.91349 0.78968 0.73802 0.0
C744 C 0.96955 0.8003 0.73357 0.0
C745 C 0.8571 0.77552 0.74519 0.0
N746 N 0.86915 0.73753 0.72813 0.0
C747 C 0.84675 0.74498 0.7368 0.0
C748 C 0.8906 0.79813 0.74551 0.0
Tb749 Tb 0.85437 0.6885 0.71326 0.0
N750 N 0.91064 0.71784 0.71678 0.0
C751 C 0.93099 0.70557 0.71349 0.0
C752 C 0.97847 0.75681 0.72172 0.0
C753 C 0.96509 0.7249 0.71568 0.0
H754 H 0.82079 0.72768 0.73653 0.0
H755 H 0.98104 0.71519 0.71252 0.0
H756 H 0.99575 0.81647 0.73531 0.0
H757 H 0.83923 0.78156 0.75144 0.0
H758 H 0.92139 0.68111 0.70861 0.0
H759 H 0.69822 0.62591 0.66088 0.0
H760 H 1.00489 0.77174 0.72333 0.0
H761 H 0.86167 0.62948 0.62472 0.0
H762 H 0.75769 0.66358 0.66175 0.0
H763 H 0.84588 0.5773 0.60756 0.0
H764 H 0.95708 0.83472 0.74576 0.0
H765 H 0.67733 0.56911 0.65202 0.0
H766 H 0.68964 0.52678 0.63879 0.0
H767 H 0.89858 0.8217 0.75216 0.0
H768 H 0.73029 0.51336 0.62393 0.0
N769 N 0.77108 0.62849 0.65435 0.0
C770 C 0.74925 0.63899 0.6578 0.0
C771 C 0.70361 0.58557 0.65247 0.0
C772 C 0.72597 0.57556 0.64696 0.0
C773 C 0.71531 0.61763 0.65735 0.0
C774 C 0.75989 0.59797 0.6479 0.0
H775 H 0.78874 0.53246 0.61147 0.0
N776 N 0.81435 0.61388 0.639 0.0
C777 C 0.82783 0.58053 0.61678 0.0
C778 C 0.78249 0.59036 0.63977 0.0
C779 C 0.83666 0.61007 0.62647 0.0
C780 C 0.7956 0.55524 0.61912 0.0
C781 C 0.7722 0.56023 0.6302 0.0
O782 O 0.85416 0.68036 0.62593 0.0
O783 O 0.86578 0.694 0.67793 0.0
O784 O 0.85262 0.72703 0.69519 0.0
O785 O 0.81576 0.69824 0.66653 0.0
O786 O 0.88021 0.67926 0.65038 0.0
O787 O 0.80873 0.67952 0.63163 0.0
O788 O 0.82784 0.67493 0.74395 0.0
O789 O 0.8151 0.65413 0.69192 0.0
O790 O 0.83595 0.62468 0.67084 0.0
O791 O 0.86389 0.64946 0.70424 0.0
O792 O 0.80295 0.6749 0.71745 0.0
O793 O 0.86846 0.66711 0.73842 0.0
C794 C 0.891 0.69777 0.66761 0.0
C795 C 0.82224 0.67404 0.59385 0.0
C796 C 0.83189 0.6813 0.55303 0.0
C797 C 0.8399 0.69333 0.57521 0.0
C798 C 0.80591 0.65 0.5498 0.0
C799 C 0.79607 0.64309 0.59004 0.0
C800 C 0.78804 0.63118 0.56817 0.0
C801 C 0.83218 0.72438 0.67889 0.0
C802 C 0.83214 0.68571 0.61716 0.0
C803 C 0.7387 0.53687 0.63085 0.0
C804 C 0.71557 0.54452 0.6393 0.0
C805 C 0.79096 0.6538 0.70182 0.0
C806 C 0.85821 0.67663 0.77599 0.0
C807 C 0.84227 0.65681 0.79473 0.0
C808 C 0.85284 0.66772 0.81694 0.0
C809 C 0.87927 0.69899 0.81988 0.0
C810 C 0.8849 0.7073 0.77954 0.0
C811 C 0.8952 0.71844 0.80133 0.0
C812 C 0.85336 0.6264 0.68889 0.0
C813 C 0.8466 0.66531 0.75288 0.0
H814 H 0.86015 0.71729 0.57797 0.0
H815 H 0.79914 0.64022 0.53296 0.0
H816 H 0.78189 0.62803 0.60397 0.0
H817 H 0.76792 0.6072 0.56543 0.0
H818 H 0.822 0.63289 0.79194 0.0
H819 H 0.88755 0.70868 0.83658 0.0
H820 H 0.8978 0.7227 0.76551 0.0
H821 H 0.91561 0.74233 0.80387 0.0
Tb822 Tb 0.36739 0.16893 0.65368 0.0
C823 C 0.26325 0.12606 0.72282 0.0
C824 C 0.24943 0.16783 0.72175 0.0
C825 C 0.20718 0.11351 0.73067 0.0
C826 C 0.27244 0.15749 0.7191 0.0
C827 C 0.23081 0.10388 0.72947 0.0
C828 C 0.21649 0.14548 0.72683 0.0
C829 C 0.24885 0.06603 0.7367 0.0
N830 N 0.287 0.118 0.72206 0.0
C831 C 0.2808 0.08909 0.73036 0.0
C832 C 0.22358 0.07324 0.73582 0.0
Tb833 Tb 0.33828 0.15725 0.71064 0.0
N834 N 0.30451 0.17832 0.71436 0.0
C835 C 0.31565 0.21029 0.71343 0.0
C836 C 0.26045 0.20041 0.71988 0.0
C837 C 0.29382 0.22178 0.7161 0.0
H838 H 0.30032 0.08346 0.73105 0.0
H839 H 0.30271 0.24709 0.715 0.0
H840 H 0.1983 0.15285 0.72854 0.0
H841 H 0.24377 0.04278 0.74237 0.0
H842 H 0.3413 0.22704 0.71043 0.0
H843 H 0.41769 0.08968 0.64885 0.0
H844 H 0.24356 0.20935 0.72177 0.0
H845 H 0.40332 0.24395 0.63207 0.0
H846 H 0.37406 0.10299 0.64826 0.0
H847 H 0.45935 0.28886 0.62672 0.0
H848 H 0.18198 0.09674 0.73542 0.0
H849 H 0.47592 0.13239 0.65048 0.0
H850 H 0.51721 0.19081 0.64938 0.0
H851 H 0.19893 0.05547 0.741 0.0
H852 H 0.52868 0.24571 0.6439 0.0
N853 N 0.40633 0.15325 0.65122 0.0
C854 C 0.39897 0.12217 0.64953 0.0
C855 C 0.45667 0.1385 0.65047 0.0
C856 C 0.46426 0.17027 0.6502 0.0
C857 C 0.42387 0.11437 0.64954 0.0
C858 C 0.43822 0.17693 0.65029 0.0
H859 H 0.50724 0.28247 0.63492 0.0
N860 N 0.41869 0.21236 0.64515 0.0
C861 C 0.45566 0.26628 0.63286 0.0
C862 C 0.44465 0.2077 0.64747 0.0
C863 C 0.42383 0.24056 0.63595 0.0
C864 C 0.48258 0.26263 0.63761 0.0
C865 C 0.4773 0.23275 0.64414 0.0
O866 O 0.35982 0.18829 0.62412 0.0
O867 O 0.33521 0.17458 0.67763 0.0
O868 O 0.30389 0.11477 0.6911 0.0
O869 O 0.33684 0.11768 0.66068 0.0
O870 O 0.31624 0.15579 0.64704 0.0
O871 O 0.35845 0.1431 0.62358 0.0
O872 O 0.35188 0.14319 0.74045 0.0
O873 O 0.37755 0.16238 0.68847 0.0
O874 O 0.38203 0.21554 0.66853 0.0
O875 O 0.38107 0.20596 0.70692 0.0
O876 O 0.35862 0.1255 0.71117 0.0
O877 O 0.35118 0.18698 0.73916 0.0
C878 C 0.30947 0.16432 0.66579 0.0
C879 C 0.37362 0.17303 0.5898 0.0
C880 C 0.36984 0.1747 0.54882 0.0
C881 C 0.35495 0.16808 0.57029 0.0
C882 C 0.40396 0.18671 0.54723 0.0
C883 C 0.40754 0.18482 0.58794 0.0
C884 C 0.42263 0.19178 0.56671 0.0
C885 C 0.31032 0.10189 0.67352 0.0
C886 C 0.35664 0.16478 0.6117 0.0
C887 C 0.50344 0.22668 0.64597 0.0
C888 C 0.49692 0.19542 0.649 0.0
C889 C 0.3816 0.14032 0.69645 0.0
C890 C 0.34069 0.16107 0.7745 0.0
C891 C 0.36052 0.16625 0.7935 0.0
C892 C 0.34682 0.16013 0.8154 0.0
C893 C 0.31279 0.1482 0.81786 0.0
C894 C 0.30701 0.14981 0.77745 0.0
C895 C 0.29313 0.14319 0.799 0.0
C896 C 0.39176 0.22547 0.68934 0.0
C897 C 0.35566 0.16766 0.75183 0.0
H898 H 0.3286 0.15829 0.57183 0.0
H899 H 0.4162 0.19229 0.53096 0.0
H900 H 0.42226 0.18838 0.60277 0.0
H901 H 0.44885 0.20095 0.56532 0.0
H902 H 0.3867 0.17563 0.79119 0.0
H903 H 0.30128 0.14262 0.83438 0.0
H904 H 0.29144 0.14625 0.76318 0.0
H905 H 0.26704 0.13424 0.80112 0.0
Tb906 Tb 0.8725 0.18292 0.71506 0.0
C907 C 0.80707 0.21715 0.64096 0.0
C908 C 0.74954 0.17686 0.64352 0.0
C909 C 0.76527 0.23014 0.6304 0.0
C910 C 0.78303 0.18654 0.64644 0.0
C911 C 0.7986 0.23912 0.63234 0.0
C912 C 0.74076 0.19904 0.63599 0.0
C913 C 0.85649 0.2759 0.62609 0.0
N914 N 0.83893 0.22468 0.64277 0.0
C915 C 0.86362 0.25313 0.63453 0.0
C916 C 0.82386 0.26904 0.62526 0.0
Tb917 Tb 0.84818 0.18621 0.65755 0.0
N918 N 0.79261 0.16579 0.65344 0.0
C919 C 0.76971 0.13432 0.65652 0.0
C920 C 0.72598 0.14504 0.64777 0.0
C921 C 0.73616 0.12361 0.65402 0.0
H922 H 0.8889 0.25863 0.63524 0.0
H923 H 0.71815 0.09883 0.65703 0.0
H924 H 0.71514 0.19216 0.63391 0.0
H925 H 0.87614 0.2987 0.62019 0.0
H926 H 0.77691 0.11733 0.66148 0.0
H927 H 1.00306 0.26855 0.71031 0.0
H928 H 0.69998 0.13666 0.64586 0.0
H929 H 0.83448 0.11659 0.74491 0.0
H930 H 0.94424 0.25101 0.70872 0.0
H931 H 0.84742 0.0775 0.76165 0.0
H932 H 0.7582 0.24677 0.62403 0.0
H933 H 0.02121 0.23032 0.72042 0.0
H934 H 1.00608 0.17544 0.73402 0.0
H935 H 0.81839 0.28664 0.61857 0.0
H936 H 0.96337 0.12291 0.74808 0.0
N937 N 0.92836 0.2026 0.71716 0.0
C938 C 0.95141 0.23386 0.71325 0.0
C939 C 0.99518 0.22236 0.71971 0.0
C940 C 0.97161 0.19106 0.72533 0.0
C941 C 0.98502 0.24403 0.71411 0.0
C942 C 0.93806 0.18194 0.72401 0.0
H943 H 0.90401 0.08635 0.75897 0.0
N944 N 0.88276 0.14624 0.73184 0.0
C945 C 0.86644 0.09838 0.75307 0.0
C946 C 0.91428 0.15255 0.73168 0.0
C947 C 0.8592 0.12056 0.74359 0.0
C948 C 0.89837 0.10339 0.75144 0.0
C949 C 0.923 0.13121 0.74118 0.0
O950 O 0.84609 0.17635 0.74539 0.0
O951 O 0.83531 0.18119 0.6929 0.0
O952 O 0.85179 0.2272 0.67563 0.0
O953 O 0.88706 0.23222 0.70478 0.0
O954 O 0.81919 0.15198 0.72026 0.0
O955 O 0.89219 0.21907 0.73969 0.0
O956 O 0.87423 0.1967 0.62669 0.0
O957 O 0.88484 0.18628 0.67952 0.0
O958 O 0.86147 0.13757 0.70002 0.0
O959 O 0.83402 0.13661 0.66669 0.0
O960 O 0.90148 0.21785 0.65351 0.0
O961 O 0.83129 0.15092 0.63232 0.0
C962 C 0.8094 0.16111 0.7031 0.0
C963 C 0.87932 0.19937 0.77721 0.0
C964 C 0.86987 0.19436 0.81805 0.0
C965 C 0.86143 0.19966 0.79631 0.0
C966 C 0.89642 0.18894 0.8204 0.0
C967 C 0.90617 0.1946 0.78014 0.0
C968 C 0.91453 0.18928 0.80158 0.0
C969 C 0.8721 0.24368 0.69213 0.0
C970 C 0.86898 0.20253 0.7543 0.0
C971 C 0.95616 0.13916 0.74115 0.0
C972 C 0.98047 0.16907 0.73318 0.0
C973 C 0.91086 0.20671 0.6697 0.0
C974 C 0.8421 0.17047 0.59473 0.0
C975 C 0.85545 0.16363 0.57551 0.0
C976 C 0.84371 0.16434 0.5537 0.0
C977 C 0.81943 0.17304 0.55148 0.0
C978 C 0.81739 0.17827 0.59183 0.0
C979 C 0.80641 0.17988 0.57039 0.0
C980 C 0.84336 0.12286 0.68212 0.0
C981 C 0.85368 0.16935 0.61772 0.0
H982 H 0.84072 0.20344 0.79424 0.0
H983 H 0.90356 0.18503 0.83691 0.0
H984 H 0.92069 0.19491 0.76589 0.0
H985 H 0.93516 0.18544 0.80362 0.0
H986 H 0.87419 0.15705 0.57757 0.0
H987 H 0.81035 0.17446 0.53501 0.0
H988 H 0.80634 0.18294 0.6061 0.0
H989 H 0.78749 0.1862 0.56844 0.0
H990 H 0.33976 0.84016 0.05818 0.0
H991 H 0.2899 0.89253 0.07249 0.0
H992 H 0.33722 0.94144 0.05848 0.0
H993 H 0.3944 0.97037 0.04529 0.0
H994 H 0.44631 0.91958 0.0331 0.0
H995 H 0.39673 0.86914 0.0426 0.0
C996 C 0.33916 0.86222 0.05788 0.0
C997 C 0.31144 0.86277 0.06656 0.0
C998 C 0.36689 0.89058 0.05016 0.0
C999 C 0.31108 0.89157 0.06619 0.0
C1000 C 0.33811 0.91954 0.05814 0.0
C1001 C 0.39463 0.94814 0.04437 0.0
C1002 C 0.42375 0.94864 0.03805 0.0
C1003 C 0.36639 0.91948 0.05058 0.0
C1004 C 0.424 0.91979 0.03733 0.0
C1005 C 0.39569 0.89096 0.04302 0.0
H1006 H 0.19109 0.51189 0.05856 0.0
H1007 H 0.14102 0.40988 0.0668 0.0
H1008 H 0.08983 0.4055 0.05354 0.0
H1009 H 0.05783 0.43075 0.04299 0.0
H1010 H 0.1062 0.53276 0.03615 0.0
H1011 H 0.15915 0.53715 0.0451 0.0
C1012 C 0.16908 0.48874 0.05699 0.0
C1013 C 0.16983 0.46121 0.0637 0.0
C1014 C 0.13927 0.48642 0.04972 0.0
C1015 C 0.14103 0.43137 0.06181 0.0
C1016 C 0.11171 0.42886 0.05429 0.0
C1017 C 0.0801 0.4539 0.04311 0.0
C1018 C 0.07812 0.48127 0.0384 0.0
C1019 C 0.11031 0.45622 0.04874 0.0
C1020 C 0.10706 0.51119 0.03907 0.0
C1021 C 0.13738 0.51373 0.04443 0.0
H1022 H 0.60076 0.71048 0.06736 0.0
H1023 H 0.50643 0.69744 0.04769 0.0
H1024 H 0.4923 0.6464 0.03031 0.0
H1025 H 0.50522 0.60364 0.02332 0.0
H1026 H 0.59746 0.61528 0.04673 0.0
H1027 H 0.61363 0.66849 0.06048 0.0
C1028 C 0.57687 0.69637 0.05957 0.0
C1029 C 0.55452 0.70766 0.05919 0.0
C1030 C 0.56845 0.66665 0.05042 0.0
C1031 C 0.52421 0.68947 0.0482 0.0
C1032 C 0.516 0.66015 0.0384 0.0
C1033 C 0.52895 0.61798 0.03128 0.0
C1034 C 0.55008 0.60555 0.03414 0.0
C1035 C 0.53772 0.64827 0.03976 0.0
C1036 C 0.58067 0.62423 0.04455 0.0
C1037 C 0.58995 0.65467 0.05237 0.0
H1038 H 0.87246 0.32981 0.9458 0.0
H1039 H 0.83603 0.28428 0.01058 0.0
H1040 H 0.87764 0.33217 0.02943 0.0
H1041 H 0.92585 0.38661 0.02758 0.0
H1042 H 0.96552 0.42882 0.9627 0.0
H1043 H 0.92221 0.38194 0.94395 0.0
C1044 C 0.87378 0.32968 0.96403 0.0
C1045 C 0.85066 0.30279 0.9765 0.0
C1046 C 0.89888 0.35674 0.97485 0.0
C1047 C 0.85269 0.3044 1.00025 0.0
C1048 C 0.87689 0.33179 0.01116 0.0
C1049 C 0.92512 0.3855 1.0094 0.0
C1050 C 0.94917 0.4113 0.99669 0.0
C1051 C 0.90029 0.35804 0.99863 0.0
C1052 C 0.94779 0.40926 0.97301 0.0
C1053 C 0.92278 0.38249 0.96222 0.0
H1054 H 0.69311 0.51311 0.98397 0.0
H1055 H 0.73999 0.61318 0.96768 0.0
H1056 H 0.69057 0.61419 0.97895 0.0
H1057 H 0.63299 0.5864 0.99128 0.0
H1058 H 0.58397 0.48589 1.00576 0.0
H1059 H 0.63496 0.48528 0.99783 0.0
C1060 C 0.69252 0.53514 0.98312 0.0
C1061 C 0.7202 0.56297 0.97471 0.0
C1062 C 0.66356 0.53549 0.98938 0.0
C1063 C 0.71896 0.59132 0.97369 0.0
C1064 C 0.6907 0.59197 0.98022 0.0
C1065 C 0.63362 0.56443 0.99296 0.0
C1066 C 0.60494 0.53643 0.99963 0.0
C1067 C 0.66271 0.56415 0.98774 0.0
C1068 C 0.60589 0.50798 1.00129 0.0
C1069 C 0.63503 0.5076 0.99652 0.0
H1070 H 0.4318 0.12735 0.96328 0.0
H1071 H 0.52627 0.20497 0.98388 0.0
H1072 H 0.53902 0.16739 1.00197 0.0
H1073 H 0.52406 0.11233 0.01124 0.0
H1074 H 0.43181 0.03463 0.98769 0.0
H1075 H 0.41769 0.07238 0.97132 0.0
C1076 C 0.45542 0.13612 0.97138 0.0
C1077 C 0.47789 0.16909 0.97222 0.0
C1078 C 0.46301 0.11432 0.98133 0.0
C1079 C 0.50814 0.17983 0.98326 0.0
C1080 C 0.51559 0.15833 0.99354 0.0
C1081 C 0.50077 0.10371 1.00267 0.0
C1082 C 0.47897 0.07077 1.00072 0.0
C1083 C 0.49322 0.12553 0.9927 0.0
C1084 C 0.44904 0.0599 0.98936 0.0
C1085 C 0.44097 0.08146 0.97997 0.0
H1086 H 0.67951 0.17407 1.00108 0.0
H1087 H 0.7284 0.12212 0.98274 0.0
H1088 H 0.67659 0.07177 0.98634 0.0
H1089 H 0.61757 0.04218 0.99553 0.0
H1090 H 0.56737 0.09353 0.01154 0.0
H1091 H 0.61914 0.14416 1.00837 0.0
C1092 C 0.67862 0.15168 0.99767 0.0
C1093 C 0.70779 0.15184 0.99169 0.0
C1094 C 0.64857 0.12266 0.99974 0.0
C1095 C 0.70635 0.12268 0.98734 0.0
C1096 C 0.67674 0.09385 0.9895 0.0
C1097 C 0.61807 0.0645 0.99849 0.0
C1098 C 0.5889 0.064 1.00475 0.0
C1099 C 0.64779 0.09352 0.99591 0.0
C1100 C 0.58965 0.0931 1.00772 0.0
C1101 C 0.61926 0.12213 1.00559 0.0
H1102 H 0.83639 0.47767 0.99506 0.0
H1103 H 0.87711 0.57786 0.98158 0.0
H1104 H 0.9326 0.58698 0.98769 0.0
H1105 H 0.97005 0.56626 0.99629 0.0
H1106 H 0.92898 0.46555 1.00735 0.0
H1107 H 0.87365 0.45689 1.00286 0.0
C1108 C 0.85742 0.50155 0.99372 0.0
C1109 C 0.85237 0.5271 0.98851 0.0
C1110 C 0.88939 0.50655 0.99682 0.0
C1111 C 0.88001 0.55781 0.98615 0.0
C1112 C 0.91187 0.56303 0.98951 0.0
C1113 C 0.94891 0.54248 0.99783 0.0
C1114 C 0.95374 0.51677 1.00301 0.0
C1115 C 0.9169 0.53758 0.9948 0.0
C1116 C 0.92615 0.48596 1.00429 0.0
C1117 C 0.89436 0.48093 1.00149 0.0
H1118 H 0.43737 0.31018 0.97552 0.0
H1119 H 0.51108 0.31205 0.01944 0.0
H1120 H 0.53202 0.36861 0.02731 0.0
H1121 H 0.52906 0.41703 0.0217 0.0
H1122 H 0.45419 0.41497 0.97864 0.0
H1123 H 0.43433 0.35903 0.97004 0.0
C1124 C 0.45786 0.32304 0.98692 0.0
C1125 C 0.47234 0.30708 0.99729 0.0
C1126 C 0.46962 0.3554 0.99136 0.0
C1127 C 0.49932 0.32393 0.01163 0.0
C1128 C 0.5113 0.35617 0.01605 0.0
C1129 C 0.50811 0.40432 0.01068 0.0
C1130 C 0.49279 0.42011 1.00119 0.0
C1131 C 0.49652 0.37207 1.00608 0.0
C1132 C 0.46635 0.40342 0.98633 0.0
C1133 C 0.45491 0.37138 0.98142 0.0
H1134 H 0.13324 0.70351 0.06697 0.0
H1135 H 0.21235 0.70338 0.02995 0.0
H1136 H 0.17707 0.6465 0.02177 0.0
H1137 H 0.12329 0.59758 0.02402 0.0
H1138 H 0.04337 0.59795 0.05998 0.0
H1139 H 0.07956 0.65381 0.07009 0.0
C1140 C 0.14278 0.69092 0.05727 0.0
C1141 C 0.17533 0.70756 0.04901 0.0
C1142 C 0.12221 0.65834 0.05244 0.0
C1143 C 0.18741 0.69099 0.03648 0.0
C1144 C 0.16722 0.65856 0.03176 0.0
C1145 C 0.11362 0.60988 0.03391 0.0
C1146 C 0.08039 0.59363 0.04085 0.0
C1147 C 0.13447 0.64211 0.03942 0.0
C1148 C 0.06871 0.60981 0.05426 0.0
C1149 C 0.08941 0.64183 0.06001 0.0
H1150 H 0.34876 0.51359 0.03634 0.0
H1151 H 0.30005 0.41527 0.05739 0.0
H1152 H 0.35184 0.41507 0.0544 0.0
H1153 H 0.41071 0.4421 0.0445 0.0
H1154 H 0.46076 0.54128 0.02586 0.0
H1155 H 0.40915 0.54194 0.0289 0.0
C1156 C 0.34969 0.49231 0.04054 0.0
C1157 C 0.32049 0.46444 0.04701 0.0
C1158 C 0.37976 0.49237 0.03879 0.0
C1159 C 0.32206 0.437 0.05237 0.0
C1160 C 0.35168 0.43683 0.05055 0.0
C1161 C 0.41024 0.46381 0.04098 0.0
C1162 C 0.43934 0.49121 0.03393 0.0
C1163 C 0.38058 0.4642 0.04348 0.0
C1164 C 0.43856 0.51946 0.03027 0.0
C1165 C 0.40902 0.51993 0.03232 0.0
H1166 H 0.59628 0.89117 0.06437 0.0
H1167 H 0.52398 0.81926 0.02084 0.0
H1168 H 0.50082 0.8536 0.01278 0.0
H1169 H 0.50163 0.90403 0.018 0.0
H1170 H 0.57527 0.97689 0.06054 0.0
H1171 H 0.59703 0.94194 0.06953 0.0
C1172 C 0.57558 0.88321 0.05303 0.0
C1173 C 0.56213 0.85312 0.04284 0.0
C1174 C 0.56259 0.9031 0.04844 0.0
C1175 C 0.53492 0.84262 0.02854 0.0
C1176 C 0.52169 0.86216 0.02401 0.0
C1177 C 0.52272 0.91251 0.02898 0.0
C1178 C 0.53717 0.94334 0.03817 0.0
C1179 C 0.53546 0.89251 0.03377 0.0
C1180 C 0.56378 0.95341 0.05304 0.0
C1181 C 0.57632 0.93345 0.05817 0.0
H1182 H 0.9856 0.22851 0.40351 0.0
H1183 H 0.01633 0.1606 0.38779 0.0
H1184 H 0.06882 0.20356 0.37295 0.0
H1185 H 0.10832 0.26163 0.36793 0.0
H1186 H 0.0761 0.32858 0.38334 0.0
H1187 H 0.0222 0.28507 0.39478 0.0
C1188 C 1.00373 0.22308 0.39676 0.0
C1189 C 0.99716 0.19139 0.3971 0.0
C1190 C 0.03379 0.24787 0.38824 0.0
C1191 C 0.02072 0.18475 0.38781 0.0
C1192 C 0.05084 0.20936 0.37941 0.0
C1193 C 0.08917 0.26654 0.37319 0.0
C1194 C 0.0961 0.29836 0.37451 0.0
C1195 C 0.05799 0.24119 0.37995 0.0
C1196 C 0.07127 0.30432 0.38198 0.0
C1197 C 0.04047 0.27945 0.38863 0.0
H1198 H 0.85702 0.84223 0.38532 0.0
H1199 H 0.80305 0.74257 0.40295 0.0
H1200 H 0.75165 0.73945 0.39164 0.0
H1201 H 0.72096 0.7659 0.37992 0.0
H1202 H 0.77421 0.8656 0.36279 0.0
H1203 H 0.82627 0.86783 0.37044 0.0
C1204 C 0.8341 0.81971 0.38619 0.0
C1205 C 0.83401 0.79269 0.3951 0.0
C1206 C 0.8042 0.81814 0.37992 0.0
C1207 C 0.80389 0.76377 0.3963 0.0
C1208 C 0.77439 0.76198 0.38991 0.0
C1209 C 0.74402 0.78801 0.3776 0.0
C1210 C 0.74344 0.81533 0.37027 0.0
C1211 C 0.77406 0.78916 0.38226 0.0
C1212 C 0.77362 0.84393 0.36774 0.0
C1213 C 0.8036 0.84528 0.37232 0.0
H1214 H 0.2735 0.04844 0.39991 0.0
H1215 H 0.1786 0.03703 0.38415 0.0
H1216 H 0.16095 0.98408 0.3687 0.0
H1217 H 0.17148 0.93953 0.36183 0.0
H1218 H 0.26543 0.95082 0.38057 0.0
H1219 H 0.28398 1.00486 0.3932 0.0
C1220 C 0.24875 0.03432 0.3934 0.0
C1221 C 0.22736 0.04675 0.39352 0.0
C1222 C 0.23843 1.00362 0.38523 0.0
C1223 C 0.19577 0.02831 0.38421 0.0
C1224 C 0.18553 0.99787 0.37553 0.0
C1225 C 0.19605 0.95392 0.36857 0.0
C1226 C 0.21695 0.941 0.37035 0.0
C1227 C 0.20651 0.98507 0.37624 0.0
C1228 C 0.24867 0.95993 0.3792 0.0
C1229 C 0.2594 0.99095 0.38638 0.0
H1230 H 0.52091 0.63485 0.33324 0.0
H1231 H 0.52329 0.66828 0.26539 0.0
H1232 H 0.56676 0.72133 0.27572 0.0
H1233 H 0.60612 0.75834 0.30343 0.0
H1234 H 0.60285 0.72685 0.37173 0.0
H1235 H 0.55787 0.67359 0.36202 0.0
C1236 C 0.53059 0.65384 0.32081 0.0
C1237 C 0.5191 0.64706 0.29838 0.0
C1238 C 0.55569 0.68485 0.32694 0.0
C1239 C 0.53209 0.67227 0.2826 0.0
C1240 C 0.55697 0.70282 0.28851 0.0
C1241 C 0.59549 0.73979 0.31618 0.0
C1242 C 0.60777 0.74661 0.3383 0.0
C1243 C 0.5694 0.7093 0.31048 0.0
C1244 C 0.59351 0.72244 0.3547 0.0
C1245 C 0.5679 0.69185 0.34908 0.0
H1246 H 0.38653 0.92088 0.30262 0.0
H1247 H 0.35565 0.82234 0.31516 0.0
H1248 H 0.30215 0.81302 0.32901 0.0
H1249 H 0.26206 0.83229 0.33467 0.0
H1250 H 0.29527 0.93169 0.32323 0.0
H1251 H 0.3493 0.94106 0.31179 0.0
C1252 C 0.36816 0.89736 0.30845 0.0
C1253 C 0.37516 0.87231 0.30753 0.0
C1254 C 0.33752 0.89223 0.31652 0.0
C1255 C 0.3511 0.84212 0.31561 0.0
C1256 C 0.32035 0.83673 0.32344 0.0
C1257 C 0.28139 0.85609 0.33019 0.0
C1258 C 0.27459 0.88138 0.33009 0.0
C1259 C 0.31296 0.86149 0.32363 0.0
C1260 C 0.29981 0.91188 0.32365 0.0
C1261 C 0.33079 0.91728 0.31702 0.0
H1262 H 0.17986 0.52608 0.32234 0.0
H1263 H 0.08918 0.46195 0.2884 0.0
H1264 H 0.09177 0.41641 0.30294 0.0
H1265 H 0.12075 0.39457 0.32386 0.0
H1266 H 0.2095 0.458 0.35986 0.0
H1267 H 0.20602 0.50385 0.34652 0.0
C1268 C 0.16034 0.50219 0.3184 0.0
C1269 C 0.13478 0.4977 0.3038 0.0
C1270 C 0.16152 0.47586 0.32725 0.0
C1271 C 0.10981 0.46637 0.29892 0.0
C1272 C 0.11104 0.44018 0.30742 0.0
C1273 C 0.13924 0.41839 0.32893 0.0
C1274 C 0.16553 0.4228 0.34262 0.0
C1275 C 0.13703 0.44464 0.3213 0.0
C1276 C 0.189 0.45385 0.34929 0.0
C1277 C 0.18712 0.48015 0.34158 0.0
H1278 H 0.3548 0.51117 0.33499 0.0
H1279 H 0.40039 0.4599 0.30841 0.0
H1280 H 0.34799 0.40978 0.31108 0.0
H1281 H 0.28913 0.37995 0.32209 0.0
H1282 H 0.24322 0.43181 0.34681 0.0
H1283 H 0.29517 0.48167 0.34399 0.0
C1284 C 0.35309 0.48903 0.32958 0.0
C1285 C 0.38154 0.48933 0.32156 0.0
C1286 C 0.32275 0.46017 0.33116 0.0
C1287 C 0.37894 0.4604 0.31464 0.0
C1288 C 0.34896 0.43167 0.31625 0.0
C1289 C 0.29059 0.40219 0.32693 0.0
C1290 C 0.26237 0.40173 0.33563 0.0
C1291 C 0.32073 0.43116 0.32471 0.0
C1292 C 0.26454 0.43095 0.34108 0.0
C1293 C 0.29437 0.45973 0.33918 0.0
H1294 H 0.56554 0.91698 0.31648 0.0
H1295 H 0.49279 0.82021 0.3327 0.0
H1296 H 0.53642 0.80684 0.33781 0.0
H1297 H 0.59625 0.8233 0.33809 0.0
H1298 H 0.66779 0.92084 0.32229 0.0
H1299 H 0.624 0.93312 0.31647 0.0
C1300 C 0.55913 0.89282 0.32081 0.0
C1301 C 0.52578 0.8695 0.32379 0.0
C1302 C 0.58436 0.88548 0.32397 0.0
C1303 C 0.51815 0.83847 0.32987 0.0
C1304 C 0.54316 0.83089 0.33293 0.0
C1305 C 0.60213 0.84727 0.33364 0.0
C1306 C 0.63543 0.87138 0.3312 0.0
C1307 C 0.5765 0.85427 0.33017 0.0
C1308 C 0.64251 0.90203 0.32465 0.0
C1309 C 0.61743 0.90908 0.32125 0.0
H1310 H 0.10883 0.64901 0.30544 0.0
H1311 H 0.18474 0.64999 0.34646 0.0
H1312 H 0.20605 0.70641 0.35528 0.0
H1313 H 0.20217 0.7549 0.35183 0.0
H1314 H 0.12472 0.753 0.31174 0.0
H1315 H 0.10531 0.69771 0.30175 0.0
C1316 C 0.13005 0.66165 0.31629 0.0
C1317 C 0.14508 0.64546 0.3255 0.0
C1318 C 0.14188 0.69387 0.32141 0.0
C1319 C 0.17274 0.66207 0.33934 0.0
C1320 C 0.18486 0.69424 0.34436 0.0
C1321 C 0.18082 0.74236 0.34112 0.0
C1322 C 0.16461 0.75811 0.33298 0.0
C1323 C 0.16944 0.7103 0.33565 0.0
C1324 C 0.13758 0.74159 0.31851 0.0
C1325 C 0.12638 0.70986 0.31276 0.0
H1326 H 0.87015 0.03015 0.36114 0.0
H1327 H 0.81247 0.05324 0.40569 0.0
H1328 H 0.76566 0.99897 0.4021 0.0
H1329 H 0.73993 0.94549 0.38436 0.0
H1330 H 0.79912 0.9228 0.34066 0.0
H1331 H 0.8459 0.97591 0.34565 0.0
C1332 C 0.84741 0.02311 0.37022 0.0
C1333 C 0.84466 0.04574 0.38344 0.0
C1334 C 0.82053 0.99192 0.36795 0.0
C1335 C 0.81512 0.0363 0.39527 0.0
C1336 C 0.7883 1.00528 0.39315 0.0
C1337 C 0.76308 0.95212 0.376 0.0
C1338 C 0.76542 0.93016 0.3616 0.0
C1339 C 0.79047 0.98296 0.37921 0.0
C1340 C 0.79595 0.93926 0.35122 0.0
C1341 C 0.82302 0.96971 0.35423 0.0
H1342 H 0.98704 0.76083 0.38075 0.0
H1343 H 1.01066 0.85873 0.37761 0.0
H1344 H 0.06924 0.87586 0.37254 0.0
H1345 H 0.1144 0.86261 0.36947 0.0
H1346 H 0.08877 0.76401 0.37241 0.0
H1347 H 0.03082 0.74767 0.37716 0.0
C1348 C 1.00504 0.78599 0.37932 0.0
C1349 C 0.99442 0.80848 0.38034 0.0
C1350 C 0.03853 0.79555 0.37617 0.0
C1351 C 0.01813 0.84092 0.37762 0.0
C1352 C 0.05166 0.85071 0.37456 0.0
C1353 C 0.09597 0.83758 0.37075 0.0
C1354 C 0.10585 0.81443 0.36989 0.0
C1355 C 0.06227 0.82822 0.37381 0.0
C1356 C 0.08178 0.78218 0.3725 0.0
C1357 C 0.0486 0.77282 0.37534 0.0
H1358 H 0.1963 0.17136 0.36307 0.0
H1359 H 0.28802 0.23297 0.39629 0.0
H1360 H 0.27689 0.27718 0.39452 0.0
H1361 H 0.242 0.29886 0.3819 0.0
H1362 H 0.14965 0.23632 0.34936 0.0
H1363 H 0.16007 0.19216 0.35238 0.0
C1364 C 0.21373 0.1945 0.36993 0.0
C1365 C 0.24312 0.19917 0.37943 0.0
C1366 C 0.20715 0.2197 0.36884 0.0
C1367 C 0.26541 0.22903 0.38861 0.0
C1368 C 0.25904 0.25426 0.38762 0.0
C1369 C 0.22407 0.27552 0.37563 0.0
C1370 C 0.19544 0.27117 0.36495 0.0
C1371 C 0.23014 0.24999 0.37753 0.0
C1372 C 0.17233 0.24065 0.3571 0.0
C1373 C 0.17815 0.21523 0.35894 0.0
H1374 H 0.64718 0.55644 0.73443 0.0
H1375 H 0.6794 0.48892 0.72117 0.0
H1376 H 0.73153 0.53166 0.70596 0.0
H1377 H 0.77006 0.58949 0.6991 0.0
H1378 H 0.73732 0.65625 0.71374 0.0
H1379 H 0.68372 0.61283 0.72571 0.0
C1380 C 0.66564 0.55102 0.72835 0.0
C1381 C 0.65935 0.51945 0.72927 0.0
C1382 C 0.69568 0.57574 0.71981 0.0
C1383 C 0.68339 0.51293 0.72069 0.0
C1384 C 0.71335 0.53743 0.71206 0.0
C1385 C 0.75089 0.59432 0.70448 0.0
C1386 C 0.75749 0.62603 0.70528 0.0
C1387 C 0.72004 0.56908 0.71181 0.0
C1388 C 0.7327 0.63203 0.7128 0.0
C1389 C 0.70207 0.60722 0.71974 0.0
H1390 H 0.52487 0.17182 0.72563 0.0
H1391 H 0.47322 0.06961 0.73288 0.0
H1392 H 0.42338 0.06618 0.71763 0.0
H1393 H 0.39297 0.09217 0.70484 0.0
H1394 H 0.44252 0.19441 0.69952 0.0
H1395 H 0.49437 0.19801 0.71112 0.0
C1396 C 0.5028 0.14884 0.72352 0.0
C1397 C 0.50277 0.12097 0.73042 0.0
C1398 C 0.47373 0.14707 0.71514 0.0
C1399 C 0.47386 0.09137 0.7278 0.0
C1400 C 0.44531 0.08939 0.7191 0.0
C1401 C 0.41529 0.1152 0.7059 0.0
C1402 C 0.41408 0.14288 0.70071 0.0
C1403 C 0.44473 0.11706 0.71311 0.0
C1404 C 0.44297 0.17265 0.70277 0.0
C1405 C 0.47258 0.17471 0.7096 0.0
H1406 H 0.86102 0.36475 0.71726 0.0
H1407 H 0.95282 0.39067 0.75028 0.0
H1408 H 0.95046 0.34244 0.73637 0.0
H1409 H 0.92121 0.29136 0.71644 0.0
H1410 H 0.83162 0.26692 0.68102 0.0
H1411 H 0.8348 0.31623 0.69376 0.0
C1412 C 0.88082 0.3602 0.72113 0.0
C1413 C 0.90657 0.38116 0.73541 0.0
C1414 C 0.87978 0.33252 0.71263 0.0
C1415 C 0.93199 0.37459 0.74008 0.0
C1416 C 0.93087 0.34705 0.73195 0.0
C1417 C 0.90249 0.29691 0.71136 0.0
C1418 C 0.87606 0.27521 0.69799 0.0
C1419 C 0.9046 0.32553 0.71856 0.0
C1420 C 0.85226 0.28307 0.69134 0.0
C1421 C 0.85398 0.31129 0.6987 0.0
H1422 H 0.22969 0.96307 0.63347 0.0
H1423 H 0.14793 0.97471 0.65361 0.0
H1424 H 0.18598 0.02644 0.67023 0.0
H1425 H 0.2431 0.07008 0.67734 0.0
H1426 H 0.32407 0.05853 0.65518 0.0
H1427 H 0.28589 0.00557 0.64094 0.0
C1428 C 0.22006 0.97698 0.64125 0.0
C1429 C 0.18581 0.96483 0.64204 0.0
C1430 C 0.24209 0.00699 0.65043 0.0
C1431 C 0.17405 0.9831 0.65283 0.0
C1432 C 0.19586 0.01288 0.66227 0.0
C1433 C 0.2523 0.05577 0.66961 0.0
C1434 C 0.28651 0.06847 0.66715 0.0
C1435 C 0.23 0.02524 0.66101 0.0
C1436 C 0.298 0.04969 0.65697 0.0
C1437 C 0.27612 0.01926 0.64886 0.0
H1438 H 0.02595 0.17605 0.65225 0.0
H1439 H 0.07604 0.27518 0.6327 0.0
H1440 H 0.02797 0.27892 0.64322 0.0
H1441 H 0.97041 0.2537 0.65588 0.0
H1442 H 0.91959 0.1551 0.67606 0.0
H1443 H 0.9689 0.15161 0.66777 0.0
C1444 C 0.02651 0.19857 0.65058 0.0
C1445 C 0.05464 0.22512 0.64118 0.0
C1446 C 0.99845 0.20068 0.65677 0.0
C1447 C 0.05466 0.25408 0.63925 0.0
C1448 C 0.02713 0.25633 0.64539 0.0
C1449 C 0.97027 0.23153 0.65867 0.0
C1450 C 0.94148 0.20487 0.6669 0.0
C1451 C 0.99868 0.22971 0.65375 0.0
C1452 C 0.94156 0.17618 0.67016 0.0
C1453 C 0.96977 0.17415 0.66528 0.0
H1454 H 0.84509 0.85702 0.65427 0.0
H1455 H 0.7546 0.7948 0.61944 0.0
H1456 H 0.75613 0.74843 0.63342 0.0
H1457 H 0.78411 0.72528 0.6541 0.0
H1458 H 0.87306 0.78678 0.69059 0.0
H1459 H 0.87056 0.83344 0.67791 0.0
C1460 C 0.82539 0.83336 0.65 0.0
C1461 C 0.80014 0.82969 0.63536 0.0
C1462 C 0.82605 0.80652 0.65845 0.0
C1463 C 0.77494 0.79863 0.63005 0.0
C1464 C 0.7756 0.77196 0.63821 0.0
C1465 C 0.80287 0.74885 0.65943 0.0
C1466 C 0.82887 0.75243 0.67313 0.0
C1467 C 0.80127 0.77561 0.65212 0.0
C1468 C 0.85272 0.78321 0.68006 0.0
C1469 C 0.8514 0.80999 0.67272 0.0
H1470 H 0.01856 0.83493 0.66814 0.0
H1471 H 0.06327 0.77989 0.64799 0.0
H1472 H 1.00951 0.73107 0.64882 0.0
H1473 H 0.94965 0.70364 0.6563 0.0
H1474 H 0.90497 0.75919 0.67498 0.0
H1475 H 0.9583 0.80783 0.67374 0.0
C1476 C 0.01637 0.81223 0.66378 0.0
C1477 C 0.04482 0.81098 0.65812 0.0
C1478 C 0.98533 0.78423 0.66426 0.0
C1479 C 0.04174 0.78145 0.65247 0.0
C1480 C 1.01101 0.75352 0.65297 0.0
C1481 C 0.95173 0.72644 0.66016 0.0
C1482 C 0.92352 0.72752 0.66683 0.0
C1483 C 0.98265 0.75455 0.65903 0.0
C1484 C 0.92634 0.75732 0.67098 0.0
C1485 C 0.95692 0.78533 0.66997 0.0
H1486 H 0.23126 0.23873 0.65842 0.0
H1487 H 0.14839 0.14383 0.66575 0.0
H1488 H 0.18572 0.12227 0.66796 0.0
H1489 H 0.24249 0.13062 0.66811 0.0
H1490 H 0.32493 0.22583 0.66134 0.0
H1491 H 0.28749 0.24704 0.6583 0.0
C1492 C 0.22133 0.21327 0.6602 0.0
C1493 C 0.18696 0.19283 0.66145 0.0
C1494 C 0.243 0.20115 0.66168 0.0
C1495 C 0.17464 0.15998 0.66428 0.0
C1496 C 0.19602 0.14769 0.66566 0.0
C1497 C 0.25211 0.15603 0.66621 0.0
C1498 C 0.28641 0.17684 0.66583 0.0
C1499 C 0.23029 0.16805 0.66447 0.0
C1500 C 0.29865 0.20955 0.66249 0.0
C1501 C 0.27723 0.22162 0.66059 0.0
H1502 H 0.79726 0.97655 0.6885 0.0
H1503 H 0.82125 0.98997 0.61765 0.0
H1504 H 0.83698 0.04631 0.62066 0.0
H1505 H 0.84381 0.09195 0.64378 0.0
H1506 H 0.81776 0.07699 0.71427 0.0
H1507 H 0.80318 0.02136 0.71123 0.0
C1508 C 0.8063 0.99193 0.67379 0.0
C1509 C 0.80886 0.97938 0.65301 0.0
C1510 C 0.81492 0.02408 0.67564 0.0
C1511 C 0.81978 0.99934 0.63394 0.0
C1512 C 0.82856 0.03146 0.63564 0.0
C1513 C 0.83482 0.07638 0.65839 0.0
C1514 C 0.8327 0.08874 0.67941 0.0
C1515 C 0.82619 0.04412 0.65642 0.0
C1516 C 0.82089 0.06838 0.69819 0.0
C1517 C 0.81216 0.03642 0.69638 0.0
H1518 H 0.48849 0.37407 0.68425 0.0
H1519 H 0.53191 0.35361 0.74104 0.0
H1520 H 0.48909 0.29745 0.73956 0.0
H1521 H 0.43975 0.25345 0.72127 0.0
H1522 H 0.39661 0.27478 0.66471 0.0
H1523 H 0.43852 0.33098 0.66701 0.0
C1524 C 0.48855 0.35725 0.69628 0.0
C1525 C 0.51363 0.36806 0.71248 0.0
C1526 C 0.46376 0.32503 0.6954 0.0
C1527 C 0.51322 0.34607 0.72817 0.0
C1528 C 0.48861 0.31387 0.72739 0.0
C1529 C 0.43933 0.27053 0.70968 0.0
C1530 C 0.41524 0.25989 0.69272 0.0
C1531 C 0.46379 0.30301 0.71101 0.0
C1532 C 0.41512 0.28226 0.67772 0.0
C1533 C 0.43908 0.31444 0.67903 0.0
H1534 H 0.68318 0.17754 0.70368 0.0
H1535 H 0.63872 0.08134 0.72885 0.0
H1536 H 0.69188 0.08362 0.72697 0.0
H1537 H 0.75079 0.11211 0.71668 0.0
H1538 H 0.79624 0.20929 0.6937 0.0
H1539 H 0.74343 0.20757 0.696 0.0
C1540 C 0.68532 0.15728 0.70902 0.0
C1541 C 0.65692 0.12923 0.71629 0.0
C1542 C 0.71614 0.15876 0.70789 0.0
C1543 C 0.66009 0.10316 0.72317 0.0
C1544 C 0.69049 0.1044 0.72199 0.0
C1545 C 0.74904 0.13284 0.71206 0.0
C1546 C 0.77723 0.16029 0.70393 0.0
C1547 C 0.7186 0.13188 0.71405 0.0
C1548 C 0.7748 0.18736 0.69891 0.0
C1549 C 0.74455 0.18649 0.70053 0.0
H1550 H 0.89612 0.52198 0.68351 0.0
H1551 H 0.88974 0.52605 0.75581 0.0
H1552 H 0.87225 0.56582 0.75223 0.0
H1553 H 0.86018 0.60065 0.72822 0.0
H1554 H 0.86917 0.59718 0.65609 0.0
H1555 H 0.88375 0.55596 0.65979 0.0
C1556 C 0.89052 0.53131 0.69846 0.0
C1557 C 0.89379 0.52083 0.71988 0.0
C1558 C 0.88086 0.55432 0.69626 0.0
C1559 C 0.88696 0.5335 0.73914 0.0
C1560 C 0.87713 0.55633 0.73708 0.0
C1561 C 0.86526 0.59077 0.71335 0.0
C1562 C 0.86259 0.60145 0.69177 0.0
C1563 C 0.87425 0.56715 0.7157 0.0
C1564 C 0.86952 0.58854 0.67273 0.0
C1565 C 0.87839 0.56519 0.67489 0.0
H1566 H 0.44315 0.94892 0.2489 0.0
H1567 H 0.47255 0.88086 0.22999 0.0
H1568 H 0.4914 0.90686 0.19332 0.0
H1569 H 0.50197 0.9507 0.16687 0.0
H1570 H 0.47313 0.01889 0.18628 0.0
H1571 H 0.45111 0.99082 0.22197 0.0
C1572 C 0.45328 0.93946 0.23669 0.0
C1573 C 0.45657 0.91299 0.2425 0.0
C1574 C 0.46417 0.95459 0.2155 0.0
C1575 C 0.47019 0.9015 0.22634 0.0
C1576 C 0.48081 0.91625 0.20521 0.0
C1577 C 0.49035 0.95903 0.17877 0.0
C1578 C 0.48921 0.98689 0.17385 0.0
C1579 C 0.47826 0.94305 0.19963 0.0
C1580 C 0.47444 0.9976 0.18964 0.0
C1581 C 0.46191 0.98159 0.21012 0.0
H1582 H 0.07506 0.56296 0.24687 0.0
H1583 H 0.13384 0.52313 0.22337 0.0
H1584 H 0.10561 0.51041 0.18708 0.0
H1585 H 0.06139 0.50704 0.16309 0.0
H1586 H 1.00258 0.54678 0.18677 0.0
H1587 H 0.03376 0.56324 0.22182 0.0
C1588 C 0.08213 0.55205 0.23366 0.0
C1589 C 0.10636 0.54381 0.23788 0.0
C1590 C 0.06556 0.54451 0.21292 0.0
C1591 C 0.11494 0.52932 0.22065 0.0
C1592 C 0.09886 0.52209 0.19988 0.0
C1593 C 0.05577 0.51978 0.17576 0.0
C1594 C 0.02947 0.52537 0.17239 0.0
C1595 C 0.07368 0.52901 0.19598 0.0
C1596 C 0.02232 0.54166 0.1891 0.0
C1597 C 0.04022 0.55121 0.20912 0.0
H1598 H 0.47489 0.51821 0.24668 0.0
H1599 H 0.49563 0.61028 0.22239 0.0
H1600 H 0.5104 0.59897 0.18537 0.0
H1601 H 0.52138 0.5645 0.16059 0.0
H1602 H 0.50189 0.47294 0.18508 0.0
H1603 H 0.48243 0.48225 0.22103 0.0
C1604 C 0.48218 0.53557 0.23317 0.0
C1605 C 0.48447 0.56517 0.23741 0.0
C1606 C 0.49105 0.52906 0.21191 0.0
C1607 C 0.49417 0.5875 0.21972 0.0
C1608 C 0.50253 0.58102 0.1985 0.0
C1609 C 0.51231 0.54637 0.17366 0.0
C1610 C 0.51328 0.51816 0.17018 0.0
C1611 C 0.50166 0.55212 0.19449 0.0
C1612 C 0.50176 0.49503 0.18741 0.0
C1613 C 0.4906 0.50032 0.20798 0.0
H1614 H 0.97582 0.44494 0.7932 0.0
H1615 H 0.90308 0.4689 0.8149 0.0
H1616 H 0.93117 0.48743 0.85112 0.0
H1617 H 0.97736 0.49788 0.87631 0.0
H1618 H 0.04893 0.47255 0.8542 0.0
H1619 H 0.01996 0.45301 0.8186 0.0
C1620 C 0.9657 0.4537 0.80595 0.0
C1621 C 0.93725 0.45536 0.80131 0.0
C1622 C 0.98182 0.46411 0.8267 0.0
C1623 C 0.92509 0.46759 0.81791 0.0
C1624 C 0.94104 0.47804 0.83868 0.0
C1625 C 0.98634 0.48772 0.86379 0.0
C1626 C 0.01543 0.48692 0.86785 0.0
C1627 C 0.96955 0.47654 0.84323 0.0
C1628 C 0.02692 0.47393 0.85137 0.0
C1629 C 1.01031 0.46264 0.83103 0.0
H1630 H 0.61308 0.50334 0.80866 0.0
H1631 H 0.52094 0.46037 0.77294 0.0
H1632 H 0.49373 0.46748 0.8057 0.0
H1633 H 0.49553 0.48503 0.84456 0.0
H1634 H 0.58721 0.52867 0.88083 0.0
H1635 H 0.61493 0.52172 0.84805 0.0
C1636 C 0.58713 0.49581 0.80804 0.0
C1637 C 0.56907 0.48119 0.78836 0.0
C1638 C 0.57143 0.4998 0.82712 0.0
C1639 C 0.53535 0.47131 0.78791 0.0
C1640 C 0.51975 0.47543 0.80664 0.0
C1641 C 0.52167 0.49334 0.84529 0.0
C1642 C 0.5392 0.50751 0.86519 0.0
C1643 C 0.53747 0.48949 0.82635 0.0
C1644 C 0.57294 0.51741 0.86587 0.0
C1645 C 0.58889 0.51365 0.84704 0.0
H1646 H 0.49481 0.05534 0.79119 0.0
H1647 H 0.5952 0.12113 0.81002 0.0
H1648 H 0.58532 0.09565 0.84703 0.0
H1649 H 0.54812 0.05344 0.87407 0.0
H1650 H 0.44742 0.98976 0.85493 0.0
H1651 H 0.45728 0.01633 0.81851 0.0
C1652 C 0.51452 0.06466 0.80343 0.0
C1653 C 0.54578 0.09029 0.79754 0.0
C1654 C 0.50854 0.05029 0.82487 0.0
C1655 C 0.57101 0.10118 0.81372 0.0
C1656 C 0.5653 0.08676 0.83507 0.0
C1657 C 0.52826 0.04577 0.86204 0.0
C1658 C 0.49713 0.01938 0.86721 0.0
C1659 C 0.53415 0.06116 0.84085 0.0
C1660 C 0.47173 0.00966 0.85132 0.0
C1661 C 0.47733 0.02485 0.83045 0.0
H1662 H 0.09832 0.24245 0.56349 0.0
H1663 H 0.19235 0.27461 0.59513 0.0
H1664 H 0.22049 0.30536 0.56155 0.0
H1665 H 0.21877 0.32457 0.52367 0.0
H1666 H 0.12513 0.29462 0.49222 0.0
H1667 H 0.09667 0.26147 0.52506 0.0
C1668 C 0.12496 0.2563 0.5631 0.0
C1669 C 0.14307 0.25602 0.58194 0.0
C1670 C 0.14116 0.27435 0.5437 0.0
C1671 C 0.17765 0.27385 0.58087 0.0
C1672 C 0.19384 0.29168 0.56168 0.0
C1673 C 0.19211 0.31099 0.524 0.0
C1674 C 0.17422 0.3124 0.50544 0.0
C1675 C 0.17588 0.29231 0.54307 0.0
C1676 C 0.13966 0.2939 0.50609 0.0
C1677 C 0.12332 0.27508 0.52498 0.0
H1678 H 0.73146 0.8342 0.57673 0.0
H1679 H 0.81514 0.92416 0.55727 0.0
H1680 H 0.79023 0.92088 0.52045 0.0
H1681 H 0.7431 0.89364 0.49456 0.0
H1682 H 0.65838 0.80514 0.51512 0.0
H1683 H 0.6853 0.80636 0.55062 0.0
C1684 C 0.74444 0.85284 0.56428 0.0
C1685 C 0.77511 0.87934 0.56965 0.0
C1686 C 0.72969 0.85107 0.54338 0.0
C1687 C 0.79141 0.90362 0.55354 0.0
C1688 C 0.77721 0.90172 0.5325 0.0
C1689 C 0.73082 0.87447 0.50674 0.0
C1690 C 0.69888 0.84933 0.50232 0.0
C1691 C 0.74616 0.87574 0.52734 0.0
C1692 C 0.68293 0.82479 0.51828 0.0
C1693 C 0.6983 0.82548 0.53854 0.0
H1694 H 0.17384 0.92671 0.56192 0.0
H1695 H 0.14855 0.83763 0.59426 0.0
H1696 H 0.16484 0.82013 0.5604 0.0
H1697 H 0.18686 0.83023 0.52172 0.0
H1698 H 0.21124 0.91867 0.48879 0.0
H1699 H 0.19452 0.9362 0.52256 0.0
C1700 C 0.17204 0.90354 0.56154 0.0
C1701 C 0.16006 0.88354 0.58063 0.0
C1702 C 0.18118 0.89346 0.54186 0.0
C1703 C 0.15745 0.85338 0.57977 0.0
C1704 C 0.16687 0.8434 0.56043 0.0
C1705 C 0.18862 0.8534 0.52196 0.0
C1706 C 0.20048 0.87318 0.50278 0.0
C1707 C 0.17885 0.86324 0.5414 0.0
C1708 C 0.20203 0.90289 0.50325 0.0
C1709 C 0.19264 0.913 0.52261 0.0
H1710 H 0.58977 0.80617 0.14012 0.0
H1711 H 0.64182 0.76387 0.10861 0.0
H1712 H 0.67579 0.77507 0.14194 0.0
H1713 H 0.68998 0.79552 0.18017 0.0
H1714 H 0.64119 0.84123 0.21137 0.0
H1715 H 0.60652 0.82975 0.1781 0.0
C1716 C 0.60878 0.79973 0.14047 0.0
C1717 C 0.61284 0.78376 0.12198 0.0
C1718 C 0.62869 0.80663 0.15967 0.0
C1719 C 0.63755 0.77546 0.12278 0.0
C1720 C 0.65718 0.78204 0.14179 0.0
C1721 C 0.67221 0.80354 0.17963 0.0
C1722 C 0.66835 0.81928 0.1983 0.0
C1723 C 0.65283 0.79741 0.16036 0.0
C1724 C 0.64448 0.82868 0.19739 0.0
C1725 C 0.62477 0.82233 0.17829 0.0
H1726 H 0.2366 0.8591 0.12395 0.0
H1727 H 0.22777 0.77034 0.14583 0.0
H1728 H 0.20621 0.77526 0.18235 0.0
H1729 H 0.18822 0.80413 0.20774 0.0
H1730 H 0.19623 0.8923 0.18526 0.0
H1731 H 0.22004 0.88846 0.14949 0.0
C1732 C 0.23035 0.84102 0.13681 0.0
C1733 C 0.23383 0.81441 0.13214 0.0
C1734 C 0.21773 0.84388 0.15769 0.0
C1735 C 0.22505 0.79093 0.14889 0.0
C1736 C 0.21284 0.79379 0.16981 0.0
C1737 C 0.19553 0.82263 0.19508 0.0
C1738 C 0.19036 0.8484 0.19913 0.0
C1739 C 0.20885 0.82006 0.17437 0.0
C1740 C 0.19963 0.87205 0.18247 0.0
C1741 C 0.21331 0.86992 0.16202 0.0
H1742 H 0.16125 0.40022 0.12554 0.0
H1743 H 0.26398 0.45916 0.14217 0.0
H1744 H 0.25335 0.43417 0.17943 0.0
H1745 H 0.21445 0.3945 0.20739 0.0
H1746 H 0.11139 0.33993 0.19065 0.0
H1747 H 0.12254 0.36537 0.15384 0.0
C1748 C 0.18141 0.40844 0.13734 0.0
C1749 C 0.21343 0.43188 0.13073 0.0
C1750 C 0.175 0.39478 0.15899 0.0
C1751 C 0.23911 0.44091 0.14639 0.0
C1752 C 0.23299 0.42682 0.16789 0.0
C1753 C 0.19443 0.38861 0.19581 0.0
C1754 C 0.16217 0.36483 0.20173 0.0
C1755 C 0.20098 0.40362 0.17442 0.0
C1756 C 0.13654 0.35756 0.18644 0.0
C1757 C 0.14286 0.37214 0.16533 0.0
H1758 H 0.76447 0.57877 0.89732 0.0
H1759 H 0.85955 0.62251 0.92946 0.0
H1760 H 0.8857 0.6507 0.89476 0.0
H1761 H 0.88198 0.66426 0.85569 0.0
H1762 H 0.78704 0.62448 0.82388 0.0
H1763 H 0.7607 0.59328 0.85787 0.0
C1764 C 0.79088 0.59465 0.89682 0.0
C1765 C 0.80988 0.59813 0.91613 0.0
C1766 C 0.80592 0.61151 0.87679 0.0
C1767 C 0.84419 0.61861 0.91489 0.0
C1768 C 0.85924 0.63505 0.89504 0.0
C1769 C 0.85545 0.64908 0.85617 0.0
C1770 C 0.83663 0.64711 0.83715 0.0
C1771 C 0.84038 0.63183 0.87594 0.0
C1772 C 0.80234 0.62641 0.83807 0.0
C1773 C 0.78718 0.60872 0.85762 0.0
H1774 H 0.44681 0.18036 0.89383 0.0
H1775 H 0.38992 0.21596 0.92733 0.0
H1776 H 0.35615 0.20518 0.89385 0.0
H1777 H 0.34303 0.18637 0.85501 0.0
H1778 H 0.39815 0.14896 0.82141 0.0
H1779 H 0.43246 0.15997 0.85485 0.0
C1780 C 0.42682 0.18546 0.89385 0.0
C1781 C 0.42111 0.19917 0.91305 0.0
C1782 C 0.40728 0.17907 0.87447 0.0
C1783 C 0.39527 0.20592 0.91269 0.0
C1784 C 0.37581 0.19962 0.89358 0.0
C1785 C 0.36226 0.18021 0.85505 0.0
C1786 C 0.36785 0.16674 0.8357 0.0
C1787 C 0.38165 0.18631 0.87436 0.0
C1788 C 0.39346 0.15965 0.83595 0.0
C1789 C 0.41298 0.16575 0.85514 0.0
H1790 H 0.80761 0.18422 0.91463 0.0
H1791 H 0.82827 0.27854 0.89645 0.0
H1792 H 0.84549 0.27233 0.85872 0.0
H1793 H 0.85896 0.24176 0.83178 0.0
H1794 H 0.84163 0.14881 0.85065 0.0
H1795 H 0.81855 0.1525 0.8869 0.0
C1796 C 0.81544 0.20316 0.90226 0.0
C1797 C 0.81682 0.23184 0.90834 0.0
C1798 C 0.82605 0.19969 0.88069 0.0
C1799 C 0.82729 0.25634 0.89222 0.0
C1800 C 0.8371 0.2528 0.87063 0.0
C1801 C 0.84953 0.22212 0.8437 0.0
C1802 C 0.85191 0.19505 0.83857 0.0
C1803 C 0.8372 0.22483 0.86479 0.0
C1804 C 0.84009 0.16993 0.85428 0.0
C1805 C 0.82698 0.17206 0.87502 0.0
H1806 H 0.2678 0.14922 0.47114 0.0
H1807 H 0.32133 0.10851 0.4397 0.0
H1808 H 0.35753 0.12316 0.47229 0.0
H1809 H 0.37326 0.14638 0.5101 0.0
H1810 H 0.32041 0.18782 0.54146 0.0
H1811 H 0.28484 0.17422 0.5085 0.0
C1812 C 0.2876 0.14386 0.47133 0.0
C1813 C 0.29167 0.1276 0.45305 0.0
C1814 C 0.30845 0.15244 0.49012 0.0
C1815 C 0.31726 0.12052 0.45369 0.0
C1816 C 0.33813 0.12907 0.47226 0.0
C1817 C 0.35427 0.15284 0.50959 0.0
C1818 C 0.3495 0.16806 0.52823 0.0
C1819 C 0.33385 0.14488 0.49062 0.0
C1820 C 0.32438 0.17578 0.52744 0.0
C1821 C 0.3041 0.16811 0.50857 0.0
H1822 H 0.86639 0.12444 0.45708 0.0
H1823 H 0.96824 0.18099 0.47652 0.0
H1824 H 0.95138 0.19041 0.51345 0.0
H1825 H 0.90724 0.18368 0.54016 0.0
H1826 H 0.80589 0.12452 0.52051 0.0
H1827 H 0.82312 0.11423 0.4842 0.0
C1828 C 0.88509 0.13832 0.46943 0.0
C1829 C 0.91864 0.15198 0.46371 0.0
C1830 C 0.87526 0.1431 0.49083 0.0
C1831 C 0.94222 0.17058 0.48006 0.0
C1832 C 0.93259 0.17576 0.50136 0.0
C1833 C 0.88901 0.16815 0.52805 0.0
C1834 C 0.85529 0.15525 0.533 0.0
C1835 C 0.89912 0.16228 0.50694 0.0
C1836 C 0.83198 0.13523 0.51704 0.0
C1837 C 0.8418 0.12929 0.49623 0.0
H1838 H 0.89401 0.73545 0.45707 0.0
H1839 H 0.86703 0.80531 0.47544 0.0
H1840 H 0.85126 0.78216 0.51325 0.0
H1841 H 0.8399 0.73866 0.53997 0.0
H1842 H 0.86328 0.66664 0.52062 0.0
H1843 H 0.88594 0.69395 0.48469 0.0
C1844 C 0.88531 0.74593 0.46954 0.0
C1845 C 0.88171 0.77205 0.46348 0.0
C1846 C 0.87536 0.73187 0.49111 0.0
C1847 C 0.86993 0.78513 0.4797 0.0
C1848 C 0.86084 0.77186 0.50131 0.0
C1849 C 0.85061 0.7294 0.52804 0.0
C1850 C 0.85 0.70074 0.53294 0.0
C1851 C 0.86269 0.74475 0.50707 0.0
C1852 C 0.86347 0.68867 0.5172 0.0
C1853 C 0.87634 0.70423 0.49662 0.0
loop_
_geom_bond_atom_site_label_1
_geom_bond_atom_site_label_2
_geom_bond_distance
_geom_bond_site_symmetry_2
_ccdc_geom_bond_type
H0 C7 0.929 . S
H1 C10 0.930 . S
H2 C12 0.929 . S
H3 C4 0.969 . S
C4 H3 0.969 . S
C4 O5 1.550 . S
C4 H6 0.973 . S
O5 C4 1.550 . S
O5 C11 1.412 . S
H6 C4 0.973 . S
C7 H0 0.929 . S
C7 C8 1.400 . S
C7 C9 1.364 . S
C8 C7 1.400 . S
C8 C12 1.377 . S
C9 C7 1.364 . S
C9 C10 1.374 . S
C10 H1 0.930 . S
C10 C9 1.374 . S
C10 C11 1.383 . S
C11 O5 1.412 . S
C11 C10 1.383 . S
C11 C12 1.394 . S
C12 H2 0.929 . S
C12 C8 1.377 . S
C12 C11 1.394 . S
H13 C20 0.929 . S
H14 C23 0.930 . S
H15 C25 0.929 . S
H16 C17 0.969 . S
C17 H16 0.969 . S
C17 O18 1.550 . S
C17 H19 0.973 . S
O18 C17 1.550 . S
O18 C24 1.412 . S
H19 C17 0.973 . S
C20 H13 0.929 . S
C20 C21 1.400 . S
C20 C22 1.364 . S
C21 C20 1.400 . S
C21 C25 1.377 . S
C22 C20 1.364 . S
C22 C23 1.374 . S
C23 H14 0.930 . S
C23 C22 1.374 . S
C23 C24 1.383 . S
C24 O18 1.412 . S
C24 C23 1.383 . S
C24 C25 1.394 . S
C25 H15 0.929 . S
C25 C21 1.377 . S
C25 C24 1.394 . S
H26 C33 0.929 . S
H27 C36 0.930 . S
H28 C38 0.929 . S
H29 C30 0.969 . S
C30 H29 0.969 . S
C30 O31 1.550 . S
C30 H32 0.973 . S
O31 C30 1.550 . S
O31 C37 1.412 . S
H32 C30 0.973 . S
C33 H26 0.929 . S
C33 C34 1.400 . S
C33 C35 1.364 . S
C34 C33 1.400 . S
C34 C38 1.377 . S
C35 C33 1.364 . S
C35 C36 1.374 . S
C36 H27 0.930 . S
C36 C35 1.374 . S
C36 C37 1.383 . S
C37 O31 1.412 . S
C37 C36 1.383 . S
C37 C38 1.394 . S
C38 H28 0.929 . S
C38 C34 1.377 . S
C38 C37 1.394 . S
H39 C46 0.929 . S
H40 C49 0.930 . S
H41 C51 0.929 . S
H42 C43 0.969 . S
C43 H42 0.969 . S
C43 O44 1.550 . S
C43 H45 0.973 . S
O44 C43 1.550 . S
O44 C50 1.412 . S
H45 C43 0.973 . S
C46 H39 0.929 . S
C46 C47 1.400 . S
C46 C48 1.364 . S
C47 C46 1.400 . S
C47 C51 1.377 . S
C48 C46 1.364 . S
C48 C49 1.374 . S
C49 H40 0.930 . S
C49 C48 1.374 . S
C49 C50 1.383 . S
C50 O44 1.412 . S
C50 C49 1.383 . S
C50 C51 1.394 . S
C51 H41 0.929 . S
C51 C47 1.377 . S
C51 C50 1.394 . S
H52 C59 0.929 . S
H53 C62 0.930 . S
H54 C64 0.929 . S
H55 C56 0.969 . S
C56 H55 0.969 . S
C56 O57 1.550 . S
C56 H58 0.973 . S
O57 C56 1.550 . S
O57 C63 1.412 . S
H58 C56 0.973 . S
C59 H52 0.929 . S
C59 C60 1.400 . S
C59 C61 1.364 . S
C60 C59 1.400 . S
C60 C64 1.377 . S
C61 C59 1.364 . S
C61 C62 1.374 . S
C62 H53 0.930 . S
C62 C61 1.374 . S
C62 C63 1.383 . S
C63 O57 1.412 . S
C63 C62 1.383 . S
C63 C64 1.394 . S
C64 H54 0.929 . S
C64 C60 1.377 . S
C64 C63 1.394 . S
H65 C72 0.929 . S
H66 C75 0.930 . S
H67 C77 0.929 . S
H68 C69 0.969 . S
C69 H68 0.969 . S
C69 O70 1.550 . S
C69 H71 0.973 . S
O70 C69 1.550 . S
O70 C76 1.412 . S
H71 C69 0.973 . S
C72 H65 0.929 . S
C72 C73 1.400 . S
C72 C74 1.364 . S
C73 C72 1.400 . S
C73 C77 1.377 . S
C74 C72 1.364 . S
C74 C75 1.374 . S
C75 H66 0.930 . S
C75 C74 1.374 . S
C75 C76 1.383 . S
C76 O70 1.412 . S
C76 C75 1.383 . S
C76 C77 1.394 . S
C77 H67 0.929 . S
C77 C73 1.377 . S
C77 C76 1.394 . S
H78 C85 0.929 . S
H79 C88 0.930 . S
H80 C90 0.929 . S
H81 C82 0.969 . S
C82 H81 0.969 . S
C82 O83 1.550 . S
C82 H84 0.973 . S
O83 C82 1.550 . S
O83 C89 1.412 . S
H84 C82 0.973 . S
C85 H78 0.929 . S
C85 C86 1.400 . S
C85 C87 1.364 . S
C86 C85 1.400 . S
C86 C90 1.377 . S
C87 C85 1.364 . S
C87 C88 1.374 . S
C88 H79 0.930 . S
C88 C87 1.374 . S
C88 C89 1.383 . S
C89 O83 1.412 . S
C89 C88 1.383 . S
C89 C90 1.394 . S
C90 H80 0.929 . S
C90 C86 1.377 . S
C90 C89 1.394 . S
H91 C98 0.929 . S
H92 C101 0.930 . S
H93 C103 0.929 . S
H94 C95 0.969 . S
C95 H94 0.969 . S
C95 O96 1.550 . S
C95 H97 0.973 . S
O96 C95 1.550 . S
O96 C102 1.412 . S
H97 C95 0.973 . S
C98 H91 0.929 . S
C98 C99 1.400 . S
C98 C100 1.364 . S
C99 C98 1.400 . S
C99 C103 1.377 . S
C100 C98 1.364 . S
C100 C101 1.374 . S
C101 H92 0.930 . S
C101 C100 1.374 . S
C101 C102 1.383 . S
C102 O96 1.412 . S
C102 C101 1.383 . S
C102 C103 1.394 . S
C103 H93 0.929 . S
C103 C99 1.377 . S
C103 C102 1.394 . S
H104 C111 0.929 . S
H105 C114 0.930 . S
H106 C116 0.929 . S
H107 C108 0.969 . S
C108 H107 0.969 . S
C108 O109 1.550 . S
C108 H110 0.973 . S
O109 C108 1.550 . S
O109 C115 1.412 . S
H110 C108 0.973 . S
C111 H104 0.929 . S
C111 C112 1.400 . S
C111 C113 1.364 . S
C112 C111 1.400 . S
C112 C116 1.377 . S
C113 C111 1.364 . S
C113 C114 1.374 . S
C114 H105 0.930 . S
C114 C113 1.374 . S
C114 C115 1.383 . S
C115 O109 1.412 . S
C115 C114 1.383 . S
C115 C116 1.394 . S
C116 H106 0.929 . S
C116 C112 1.377 . S
C116 C115 1.394 . S
H117 C124 0.929 . S
H118 C127 0.930 . S
H119 C129 0.929 . S
H120 C121 0.969 . S
C121 H120 0.969 . S
C121 O122 1.550 . S
C121 H123 0.973 . S
O122 C121 1.550 . S
O122 C128 1.412 . S
H123 C121 0.973 . S
C124 H117 0.929 . S
C124 C125 1.400 . S
C124 C126 1.364 . S
C125 C124 1.400 . S
C125 C129 1.377 . S
C126 C124 1.364 . S
C126 C127 1.374 . S
C127 H118 0.930 . S
C127 C126 1.374 . S
C127 C128 1.383 . S
C128 O122 1.412 . S
C128 C127 1.383 . S
C128 C129 1.394 . S
C129 H119 0.929 . S
C129 C125 1.377 . S
C129 C128 1.394 . S
H130 C137 0.929 . S
H131 C140 0.930 . S
H132 C142 0.929 . S
H133 C134 0.969 . S
C134 H133 0.969 . S
C134 O135 1.550 . S
C134 H136 0.973 . S
O135 C134 1.550 . S
O135 C141 1.412 . S
H136 C134 0.973 . S
C137 H130 0.929 . S
C137 C138 1.400 . S
C137 C139 1.364 . S
C138 C137 1.400 . S
C138 C142 1.377 . S
C139 C137 1.364 . S
C139 C140 1.374 . S
C140 H131 0.930 . S
C140 C139 1.374 . S
C140 C141 1.383 . S
C141 O135 1.412 . S
C141 C140 1.383 . S
C141 C142 1.394 . S
C142 H132 0.929 . S
C142 C138 1.377 . S
C142 C141 1.394 . S
H143 C150 0.929 . S
H144 C153 0.930 . S
H145 C155 0.929 . S
H146 C147 0.969 . S
C147 H146 0.969 . S
C147 O148 1.550 . S
C147 H149 0.973 . S
O148 C147 1.550 . S
O148 C154 1.412 . S
H149 C147 0.973 . S
C150 H143 0.929 . S
C150 C151 1.400 . S
C150 C152 1.364 . S
C151 C150 1.400 . S
C151 C155 1.377 . S
C152 C150 1.364 . S
C152 C153 1.374 . S
C153 H144 0.930 . S
C153 C152 1.374 . S
C153 C154 1.383 . S
C154 O148 1.412 . S
C154 C153 1.383 . S
C154 C155 1.394 . S
C155 H145 0.929 . S
C155 C151 1.377 . S
C155 C154 1.394 . S
H156 C163 0.929 . S
H157 C166 0.930 . S
H158 C168 0.929 . S
H159 C160 0.969 . S
C160 H159 0.969 . S
C160 O161 1.550 . S
C160 H162 0.973 . S
O161 C160 1.550 . S
O161 C167 1.412 . S
H162 C160 0.973 . S
C163 H156 0.929 . S
C163 C164 1.400 . S
C163 C165 1.364 . S
C164 C163 1.400 . S
C164 C168 1.377 . S
C165 C163 1.364 . S
C165 C166 1.374 . S
C166 H157 0.930 . S
C166 C165 1.374 . S
C166 C167 1.383 . S
C167 O161 1.412 . S
C167 C166 1.383 . S
C167 C168 1.394 . S
C168 H158 0.929 . S
C168 C164 1.377 . S
C168 C167 1.394 . S
H169 C176 0.929 . S
H170 C179 0.930 . S
H171 C181 0.929 . S
H172 C173 0.969 . S
C173 H172 0.969 . S
C173 O174 1.550 . S
C173 H175 0.973 . S
O174 C173 1.550 . S
O174 C180 1.412 . S
H175 C173 0.973 . S
C176 H169 0.929 . S
C176 C177 1.400 . S
C176 C178 1.364 . S
C177 C176 1.400 . S
C177 C181 1.377 . S
C178 C176 1.364 . S
C178 C179 1.374 . S
C179 H170 0.930 . S
C179 C178 1.374 . S
C179 C180 1.383 . S
C180 O174 1.412 . S
C180 C179 1.383 . S
C180 C181 1.394 . S
C181 H171 0.929 . S
C181 C177 1.377 . S
C181 C180 1.394 . S
H182 C189 0.929 . S
H183 C192 0.930 . S
H184 C194 0.929 . S
H185 C186 0.969 . S
C186 H185 0.969 . S
C186 O187 1.550 . S
C186 H188 0.973 . S
O187 C186 1.550 . S
O187 C193 1.412 . S
H188 C186 0.973 . S
C189 H182 0.929 . S
C189 C190 1.400 . S
C189 C191 1.364 . S
C190 C189 1.400 . S
C190 C194 1.377 . S
C191 C189 1.364 . S
C191 C192 1.374 . S
C192 H183 0.930 . S
C192 C191 1.374 . S
C192 C193 1.383 . S
C193 O187 1.412 . S
C193 C192 1.383 . S
C193 C194 1.394 . S
C194 H184 0.929 . S
C194 C190 1.377 . S
C194 C193 1.394 . S
H195 C202 0.929 . S
H196 C205 0.930 . S
H197 C207 0.929 . S
H198 C199 0.969 . S
C199 H198 0.969 . S
C199 O200 1.550 . S
C199 H201 0.973 . S
O200 C199 1.550 . S
O200 C206 1.412 . S
H201 C199 0.973 . S
C202 H195 0.929 . S
C202 C203 1.400 . S
C202 C204 1.364 . S
C203 C202 1.400 . S
C203 C207 1.377 . S
C204 C202 1.364 . S
C204 C205 1.374 . S
C205 H196 0.930 . S
C205 C204 1.374 . S
C205 C206 1.383 . S
C206 O200 1.412 . S
C206 C205 1.383 . S
C206 C207 1.394 . S
C207 H197 0.929 . S
C207 C203 1.377 . S
C207 C206 1.394 . S
H208 C215 0.929 . S
H209 C218 0.930 . S
H210 C220 0.929 . S
H211 C212 0.969 . S
C212 H211 0.969 . S
C212 O213 1.550 . S
C212 H214 0.973 . S
O213 C212 1.550 . S
O213 C219 1.412 . S
H214 C212 0.973 . S
C215 H208 0.929 . S
C215 C216 1.400 . S
C215 C217 1.364 . S
C216 C215 1.400 . S
C216 C220 1.377 . S
C217 C215 1.364 . S
C217 C218 1.374 . S
C218 H209 0.930 . S
C218 C217 1.374 . S
C218 C219 1.383 . S
C219 O213 1.412 . S
C219 C218 1.383 . S
C219 C220 1.394 . S
C220 H210 0.929 . S
C220 C216 1.377 . S
C220 C219 1.394 . S
H221 C228 0.929 . S
H222 C231 0.930 . S
H223 C233 0.929 . S
H224 C225 0.969 . S
C225 H224 0.969 . S
C225 O226 1.550 . S
C225 H227 0.973 . S
O226 C225 1.550 . S
O226 C232 1.412 . S
H227 C225 0.973 . S
C228 H221 0.929 . S
C228 C229 1.400 . S
C228 C230 1.364 . S
C229 C228 1.400 . S
C229 C233 1.377 . S
C230 C228 1.364 . S
C230 C231 1.374 . S
C231 H222 0.930 . S
C231 C230 1.374 . S
C231 C232 1.383 . S
C232 O226 1.412 . S
C232 C231 1.383 . S
C232 C233 1.394 . S
C233 H223 0.929 . S
C233 C229 1.377 . S
C233 C232 1.394 . S
Tb234 N265 2.660 . S
Tb234 N272 2.600 . S
Tb234 O278 2.546 . S
Tb234 O279 2.610 1_566 S
Tb234 O281 2.320 1_565 S
Tb234 O282 2.552 1_565 S
Tb234 O283 2.413 1_565 S
Tb234 O285 2.362 1_556 S
Tb234 O286 2.421 . S
Tb234 C298 2.833 . S
C235 C238 1.432 . S
C235 C239 1.414 . S
C235 N242 1.359 . S
C236 C238 1.417 . S
C236 C240 1.432 . S
C236 C248 1.410 . S
C237 C239 1.444 . S
C237 C240 1.317 . S
C237 H260 0.929 . S
C238 C235 1.432 . S
C238 C236 1.417 . S
C238 N246 1.360 . S
C239 C235 1.414 . S
C239 C237 1.444 . S
C239 C244 1.385 . S
C240 C236 1.432 . S
C240 C237 1.317 . S
C240 H252 0.930 . S
C241 C243 1.392 . S
C241 C244 1.370 . S
C241 H253 0.931 . S
N242 C235 1.359 . S
N242 C243 1.327 . S
N242 Tb245 2.600 . S
C243 C241 1.392 . S
C243 N242 1.327 . S
C243 H250 0.930 . S
C244 C239 1.385 . S
C244 C241 1.370 . S
C244 H263 0.930 . S
Tb245 N242 2.600 . S
Tb245 N246 2.660 . S
Tb245 O279 2.362 . S
Tb245 O280 2.421 . S
Tb245 O284 2.546 . S
Tb245 O285 2.610 1_545 S
Tb245 O287 2.320 1_545 S
Tb245 O288 2.552 1_545 S
Tb245 O289 2.413 1_545 S
Tb245 C309 2.833 . S
N246 C238 1.360 . S
N246 Tb245 2.660 . S
N246 C247 1.305 . S
C247 N246 1.305 . S
C247 C249 1.407 . S
C247 H254 0.930 . S
C248 C236 1.410 . S
C248 C249 1.345 . S
C248 H256 0.930 . S
C249 C247 1.407 . S
C249 C248 1.345 . S
C249 H251 0.930 . S
H250 C243 0.930 . S
H251 C249 0.930 . S
H252 C240 0.930 . S
H253 C241 0.931 . S
H254 C247 0.930 . S
H255 C269 0.930 . S
H256 C248 0.930 . S
H257 C275 0.930 . S
H258 C266 0.930 . S
H259 C273 0.931 . S
H260 C237 0.929 . S
H261 C267 0.930 . S
H262 C300 0.930 . S
H263 C244 0.930 . S
H264 C299 0.929 . S
N265 Tb234 2.660 . S
N265 C266 1.305 . S
N265 C270 1.360 . S
C266 H258 0.930 . S
C266 N265 1.305 . S
C266 C269 1.407 . S
C267 H261 0.930 . S
C267 C268 1.410 . S
C267 C269 1.345 . S
C268 C267 1.410 . S
C268 C270 1.417 . S
C268 C300 1.432 . S
C269 H255 0.930 . S
C269 C266 1.407 . S
C269 C267 1.345 . S
C270 N265 1.360 . S
C270 C268 1.417 . S
C270 C274 1.432 . S
H271 C276 0.930 . S
N272 Tb234 2.600 . S
N272 C274 1.359 . S
N272 C275 1.327 . S
C273 H259 0.931 . S
C273 C275 1.392 . S
C273 C276 1.370 . S
C274 C270 1.432 . S
C274 N272 1.359 . S
C274 C277 1.414 . S
C275 H257 0.930 . S
C275 N272 1.327 . S
C275 C273 1.392 . S
C276 H271 0.930 . S
C276 C273 1.370 . S
C276 C277 1.385 . S
C277 C274 1.414 . S
C277 C276 1.385 . S
C277 C299 1.444 . S
O278 Tb234 2.546 . S
O278 C298 1.251 . S
O279 Tb234 2.610 1_544 S
O279 Tb245 2.362 . S
O279 C290 1.283 1_554 S
O280 Tb245 2.421 . S
O280 C297 1.229 1_554 S
O281 Tb234 2.320 1_545 S
O281 C297 1.283 . S
O282 Tb234 2.552 1_545 S
O282 C290 1.243 . S
O283 Tb234 2.413 1_545 S
O283 C298 1.256 1_545 S
O284 Tb245 2.546 . S
O284 C309 1.251 . S
O285 Tb234 2.362 1_554 S
O285 Tb245 2.610 1_565 S
O285 C301 1.283 . S
O286 Tb234 2.421 . S
O286 C308 1.262 1_556 S
O287 Tb245 2.320 1_565 S
O287 C308 1.260 . S
O288 Tb245 2.552 1_565 S
O288 C301 1.243 . S
O289 Tb245 2.413 1_565 S
O289 C309 1.256 1_565 S
C290 O279 1.283 1_556 S
C290 O282 1.243 . S
C291 C293 1.382 . S
C291 C295 1.393 1_545 S
C291 C298 1.500 1_545 S
C292 C293 1.400 . S
C292 C294 1.384 . S
C293 C291 1.382 . S
C293 C292 1.400 . S
C293 H310 0.930 . S
C294 C292 1.384 . S
C294 C296 1.392 1_545 S
C294 H311 0.931 . S
C295 C291 1.393 1_565 S
C295 C296 1.401 . S
C295 H312 0.930 . S
C296 C294 1.392 1_565 S
C296 C295 1.401 . S
C296 H313 0.930 . S
C297 O280 1.229 1_556 S
C297 O281 1.283 . S
C298 Tb234 2.833 . S
C298 O278 1.251 . S
C298 O283 1.256 1_565 S
C298 C291 1.500 1_565 S
C299 H264 0.929 . S
C299 C277 1.444 . S
C299 C300 1.317 . S
C300 H262 0.930 . S
C300 C268 1.432 . S
C300 C299 1.317 . S
C301 O285 1.283 . S
C301 O288 1.243 . S
C302 C303 1.409 . S
C302 C306 1.371 1_565 S
C302 C309 1.496 1_565 S
C303 C302 1.409 . S
C303 C304 1.400 . S
C303 H314 0.930 . S
C304 C303 1.400 . S
C304 C305 1.384 . S
C305 C304 1.384 . S
C305 C307 1.392 1_565 S
C305 H315 0.931 . S
C306 C302 1.371 1_545 S
C306 C307 1.401 . S
C306 H316 0.930 . S
C307 C305 1.392 1_545 S
C307 C306 1.401 . S
C307 H317 0.930 . S
C308 O286 1.262 1_554 S
C308 O287 1.260 . S
C309 Tb245 2.833 . S
C309 O284 1.251 . S
C309 O289 1.256 1_545 S
C309 C302 1.496 1_545 S
H310 C293 0.930 . S
H311 C294 0.931 . S
H312 C295 0.930 . S
H313 C296 0.930 . S
H314 C303 0.930 . S
H315 C305 0.931 . S
H316 C306 0.930 . S
H317 C307 0.930 . S
Tb318 N349 2.660 . S
Tb318 N356 2.600 . S
Tb318 O362 2.546 . S
Tb318 O363 2.610 1_456 S
Tb318 O365 2.320 1_455 S
Tb318 O366 2.552 1_455 S
Tb318 O367 2.413 1_455 S
Tb318 O369 2.362 1_556 S
Tb318 O370 2.421 . S
Tb318 C382 2.833 . S
C319 C322 1.432 . S
C319 C323 1.414 . S
C319 N326 1.359 . S
C320 C322 1.417 . S
C320 C324 1.432 . S
C320 C332 1.410 . S
C321 C323 1.444 . S
C321 C324 1.317 . S
C321 H344 0.929 . S
C322 C319 1.432 . S
C322 C320 1.417 . S
C322 N330 1.360 . S
C323 C319 1.414 . S
C323 C321 1.444 . S
C323 C328 1.385 . S
C324 C320 1.432 . S
C324 C321 1.317 . S
C324 H336 0.930 . S
C325 C327 1.392 . S
C325 C328 1.370 . S
C325 H337 0.931 . S
N326 C319 1.359 . S
N326 C327 1.327 . S
N326 Tb329 2.600 . S
C327 C325 1.392 . S
C327 N326 1.327 . S
C327 H334 0.930 . S
C328 C323 1.385 . S
C328 C325 1.370 . S
C328 H347 0.930 . S
Tb329 N326 2.600 . S
Tb329 N330 2.660 . S
Tb329 O363 2.362 . S
Tb329 O364 2.421 . S
Tb329 O368 2.546 . S
Tb329 O369 2.610 1_655 S
Tb329 O371 2.320 1_655 S
Tb329 O372 2.552 1_655 S
Tb329 O373 2.413 1_655 S
Tb329 C393 2.833 . S
N330 C322 1.360 . S
N330 Tb329 2.660 . S
N330 C331 1.305 . S
C331 N330 1.305 . S
C331 C333 1.407 . S
C331 H338 0.930 . S
C332 C320 1.410 . S
C332 C333 1.345 . S
C332 H340 0.930 . S
C333 C331 1.407 . S
C333 C332 1.345 . S
C333 H335 0.930 . S
H334 C327 0.930 . S
H335 C333 0.930 . S
H336 C324 0.930 . S
H337 C325 0.931 . S
H338 C331 0.930 . S
H339 C353 0.930 . S
H340 C332 0.930 . S
H341 C359 0.930 . S
H342 C350 0.930 . S
H343 C357 0.931 . S
H344 C321 0.929 . S
H345 C351 0.930 . S
H346 C384 0.930 . S
H347 C328 0.930 . S
H348 C383 0.929 . S
N349 Tb318 2.660 . S
N349 C350 1.305 . S
N349 C354 1.360 . S
C350 H342 0.930 . S
C350 N349 1.305 . S
C350 C353 1.407 . S
C351 H345 0.930 . S
C351 C352 1.410 . S
C351 C353 1.345 . S
C352 C351 1.410 . S
C352 C354 1.417 . S
C352 C384 1.432 . S
C353 H339 0.930 . S
C353 C350 1.407 . S
C353 C351 1.345 . S
C354 N349 1.360 . S
C354 C352 1.417 . S
C354 C358 1.432 . S
H355 C360 0.930 . S
N356 Tb318 2.600 . S
N356 C358 1.359 . S
N356 C359 1.327 . S
C357 H343 0.931 . S
C357 C359 1.392 . S
C357 C360 1.370 . S
C358 C354 1.432 . S
C358 N356 1.359 . S
C358 C361 1.414 . S
C359 H341 0.930 . S
C359 N356 1.327 . S
C359 C357 1.392 . S
C360 H355 0.930 . S
C360 C357 1.370 . S
C360 C361 1.385 . S
C361 C358 1.414 . S
C361 C360 1.385 . S
C361 C383 1.444 . S
O362 Tb318 2.546 . S
O362 C382 1.251 . S
O363 Tb318 2.610 1_654 S
O363 Tb329 2.362 . S
O363 C374 1.283 1_554 S
O364 Tb329 2.421 . S
O364 C381 1.262 1_554 S
O365 Tb318 2.320 1_655 S
O365 C381 1.260 . S
O366 Tb318 2.552 1_655 S
O366 C374 1.243 . S
O367 Tb318 2.413 1_655 S
O367 C382 1.256 1_655 S
O368 Tb329 2.546 . S
O368 C393 1.251 . S
O369 Tb318 2.362 1_554 S
O369 Tb329 2.610 1_455 S
O369 C385 1.283 . S
O370 Tb318 2.421 . S
O370 C392 1.262 1_556 S
O371 Tb329 2.320 1_455 S
O371 C392 1.260 . S
O372 Tb329 2.552 1_455 S
O372 C385 1.243 . S
O373 Tb329 2.413 1_455 S
O373 C393 1.256 1_455 S
C374 O363 1.283 1_556 S
C374 O366 1.243 . S
C375 C377 1.382 1_455 S
C375 C379 1.393 . S
C375 C382 1.500 . S
C376 C377 1.400 . S
C376 C378 1.384 . S
C377 C375 1.382 1_655 S
C377 C376 1.400 . S
C377 H394 0.930 . S
C378 C376 1.384 . S
C378 C380 1.392 1_655 S
C378 H395 0.931 . S
C379 C375 1.393 . S
C379 C380 1.401 . S
C379 H396 0.930 . S
C380 C378 1.392 1_455 S
C380 C379 1.401 . S
C380 H397 0.930 . S
C381 O364 1.262 1_556 S
C381 O365 1.260 . S
C382 Tb318 2.833 . S
C382 O362 1.251 . S
C382 O367 1.256 1_455 S
C382 C375 1.500 . S
C383 H348 0.929 . S
C383 C361 1.444 . S
C383 C384 1.317 . S
C384 H346 0.930 . S
C384 C352 1.432 . S
C384 C383 1.317 . S
C385 O369 1.283 . S
C385 O372 1.243 . S
C386 C387 1.382 . S
C386 C390 1.393 1_455 S
C386 C393 1.500 1_455 S
C387 C386 1.382 . S
C387 C388 1.400 . S
C387 H398 0.930 . S
C388 C387 1.400 . S
C388 C389 1.384 . S
C389 C388 1.384 . S
C389 C391 1.392 1_455 S
C389 H399 0.931 . S
C390 C386 1.393 1_655 S
C390 C391 1.401 . S
C390 H400 0.930 . S
C391 C389 1.392 1_655 S
C391 C390 1.401 . S
C391 H401 0.930 . S
C392 O370 1.262 1_554 S
C392 O371 1.260 . S
C393 Tb329 2.833 . S
C393 O368 1.251 . S
C393 O373 1.256 1_655 S
C393 C386 1.500 1_655 S
H394 C377 0.930 . S
H395 C378 0.931 . S
H396 C379 0.930 . S
H397 C380 0.930 . S
H398 C387 0.930 . S
H399 C389 0.931 . S
H400 C390 0.930 . S
H401 C391 0.930 . S
Tb402 N433 2.660 . S
Tb402 N440 2.600 . S
Tb402 O446 2.546 . S
Tb402 O447 2.610 . S
Tb402 O449 2.320 . S
Tb402 O450 2.552 . S
Tb402 O451 2.413 . S
Tb402 O453 2.362 . S
Tb402 O454 2.421 . S
Tb402 C466 2.833 . S
C403 C406 1.432 . S
C403 C407 1.414 . S
C403 N410 1.359 . S
C404 C406 1.417 . S
C404 C408 1.432 . S
C404 C416 1.410 . S
C405 C407 1.444 . S
C405 C408 1.317 . S
C405 H428 0.929 . S
C406 C403 1.432 . S
C406 C404 1.417 . S
C406 N414 1.360 . S
C407 C403 1.414 . S
C407 C405 1.444 . S
C407 C412 1.385 . S
C408 C404 1.432 . S
C408 C405 1.317 . S
C408 H420 0.930 . S
C409 C411 1.392 . S
C409 C412 1.370 . S
C409 H421 0.931 . S
N410 C403 1.359 . S
N410 C411 1.327 . S
N410 Tb413 2.600 . S
C411 C409 1.392 . S
C411 N410 1.327 . S
C411 H418 0.930 . S
C412 C407 1.385 . S
C412 C409 1.370 . S
C412 H431 0.930 . S
Tb413 N410 2.600 . S
Tb413 N414 2.660 . S
Tb413 O447 2.362 1_556 S
Tb413 O448 2.421 . S
Tb413 O452 2.546 . S
Tb413 O453 2.610 1_556 S
Tb413 O455 2.320 . S
Tb413 O456 2.552 . S
Tb413 O457 2.413 . S
Tb413 C477 2.833 . S
N414 C406 1.360 . S
N414 Tb413 2.660 . S
N414 C415 1.305 . S
C415 N414 1.305 . S
C415 C417 1.407 . S
C415 H422 0.930 . S
C416 C404 1.410 . S
C416 C417 1.345 . S
C416 H424 0.930 . S
C417 C415 1.407 . S
C417 C416 1.345 . S
C417 H419 0.930 . S
H418 C411 0.930 . S
H419 C417 0.930 . S
H420 C408 0.930 . S
H421 C409 0.931 . S
H422 C415 0.930 . S
H423 C437 0.930 . S
H424 C416 0.930 . S
H425 C443 0.930 . S
H426 C434 0.930 . S
H427 C441 0.931 . S
H428 C405 0.929 . S
H429 C435 0.930 . S
H430 C468 0.930 . S
H431 C412 0.930 . S
H432 C467 0.929 . S
N433 Tb402 2.660 . S
N433 C434 1.305 . S
N433 C438 1.360 . S
C434 H426 0.930 . S
C434 N433 1.305 . S
C434 C437 1.407 . S
C435 H429 0.930 . S
C435 C436 1.410 . S
C435 C437 1.345 . S
C436 C435 1.410 . S
C436 C438 1.417 . S
C436 C468 1.432 . S
C437 H423 0.930 . S
C437 C434 1.407 . S
C437 C435 1.345 . S
C438 N433 1.360 . S
C438 C436 1.417 . S
C438 C442 1.432 . S
H439 C444 0.930 . S
N440 Tb402 2.600 . S
N440 C442 1.359 . S
N440 C443 1.327 . S
C441 H427 0.931 . S
C441 C443 1.392 . S
C441 C444 1.370 . S
C442 C438 1.432 . S
C442 N440 1.359 . S
C442 C445 1.414 . S
C443 H425 0.930 . S
C443 N440 1.327 . S
C443 C441 1.392 . S
C444 H439 0.930 . S
C444 C441 1.370 . S
C444 C445 1.385 . S
C445 C442 1.414 . S
C445 C444 1.385 . S
C445 C467 1.444 . S
O446 Tb402 2.546 . S
O446 C466 1.251 . S
O447 Tb402 2.610 . S
O447 Tb413 2.362 1_554 S
O447 C458 1.283 . S
O448 Tb413 2.421 . S
O448 C465 1.262 1_556 S
O449 Tb402 2.320 . S
O449 C465 1.260 . S
O450 Tb402 2.552 . S
O450 C458 1.243 . S
O451 Tb402 2.413 . S
O451 C466 1.256 . S
O452 Tb413 2.546 . S
O452 C477 1.251 . S
O453 Tb402 2.362 . S
O453 Tb413 2.610 1_554 S
O453 C469 1.283 1_554 S
O454 Tb402 2.421 . S
O454 C476 1.257 1_554 S
O455 Tb413 2.320 . S
O455 C476 1.263 . S
O456 Tb413 2.552 . S
O456 C469 1.243 . S
O457 Tb413 2.413 . S
O457 C477 1.256 . S
C458 O447 1.283 . S
C458 O450 1.243 . S
C459 C461 1.382 . S
C459 C463 1.393 . S
C459 C466 1.500 . S
C460 C461 1.400 . S
C460 C462 1.384 . S
C461 C459 1.382 . S
C461 C460 1.400 . S
C461 H478 0.930 . S
C462 C460 1.384 . S
C462 C464 1.392 . S
C462 H479 0.931 . S
C463 C459 1.393 . S
C463 C464 1.401 . S
C463 H480 0.930 . S
C464 C462 1.392 . S
C464 C463 1.401 . S
C464 H481 0.930 . S
C465 O448 1.262 1_554 S
C465 O449 1.260 . S
C466 Tb402 2.833 . S
C466 O446 1.251 . S
C466 O451 1.256 . S
C466 C459 1.500 . S
C467 H432 0.929 . S
C467 C445 1.444 . S
C467 C468 1.317 . S
C468 H430 0.930 . S
C468 C436 1.432 . S
C468 C467 1.317 . S
C469 O453 1.283 1_556 S
C469 O456 1.243 . S
C470 C471 1.382 . S
C470 C474 1.393 . S
C470 C477 1.500 . S
C471 C470 1.382 . S
C471 C472 1.400 . S
C471 H482 0.930 . S
C472 C471 1.400 . S
C472 C473 1.384 . S
C473 C472 1.384 . S
C473 C475 1.392 . S
C473 H483 0.931 . S
C474 C470 1.393 . S
C474 C475 1.401 . S
C474 H484 0.930 . S
C475 C473 1.392 . S
C475 C474 1.401 . S
C475 H485 0.930 . S
C476 O454 1.257 1_556 S
C476 O455 1.263 . S
C477 Tb413 2.833 . S
C477 O452 1.251 . S
C477 O457 1.256 . S
C477 C470 1.500 . S
H478 C461 0.930 . S
H479 C462 0.931 . S
H480 C463 0.930 . S
H481 C464 0.930 . S
H482 C471 0.930 . S
H483 C473 0.931 . S
H484 C474 0.930 . S
H485 C475 0.930 . S
Tb486 N517 2.660 . S
Tb486 N524 2.600 . S
Tb486 O530 2.546 . S
Tb486 O531 2.610 . S
Tb486 O533 2.320 . S
Tb486 O534 2.552 . S
Tb486 O535 2.413 . S
Tb486 O537 2.362 . S
Tb486 O538 2.421 . S
Tb486 C550 2.833 . S
C487 C490 1.432 . S
C487 C491 1.414 . S
C487 N494 1.359 . S
C488 C490 1.417 . S
C488 C492 1.432 . S
C488 C500 1.410 . S
C489 C491 1.444 . S
C489 C492 1.317 . S
C489 H512 0.929 . S
C490 C487 1.432 . S
C490 C488 1.417 . S
C490 N498 1.360 . S
C491 C487 1.414 . S
C491 C489 1.444 . S
C491 C496 1.385 . S
C492 C488 1.432 . S
C492 C489 1.317 . S
C492 H504 0.930 . S
C493 C495 1.392 . S
C493 C496 1.370 . S
C493 H505 0.931 . S
N494 C487 1.359 . S
N494 C495 1.327 . S
N494 Tb497 2.600 . S
C495 C493 1.392 . S
C495 N494 1.327 . S
C495 H502 0.930 . S
C496 C491 1.385 . S
C496 C493 1.370 . S
C496 H515 0.930 . S
Tb497 N494 2.600 . S
Tb497 N498 2.660 . S
Tb497 O531 2.362 . S
Tb497 O532 2.421 . S
Tb497 O536 2.546 . S
Tb497 O537 2.610 . S
Tb497 O539 2.320 . S
Tb497 O540 2.552 . S
Tb497 O541 2.413 . S
Tb497 C561 2.833 . S
N498 C490 1.360 . S
N498 Tb497 2.660 . S
N498 C499 1.305 . S
C499 N498 1.305 . S
C499 C501 1.407 . S
C499 H506 0.930 . S
C500 C488 1.410 . S
C500 C501 1.345 . S
C500 H508 0.930 . S
C501 C499 1.407 . S
C501 C500 1.345 . S
C501 H503 0.930 . S
H502 C495 0.930 . S
H503 C501 0.930 . S
H504 C492 0.930 . S
H505 C493 0.931 . S
H506 C499 0.930 . S
H507 C521 0.930 . S
H508 C500 0.930 . S
H509 C527 0.930 . S
H510 C518 0.930 . S
H511 C525 0.931 . S
H512 C489 0.929 . S
H513 C519 0.950 . S
H514 C552 0.895 1_655 S
H515 C496 0.930 . S
H516 C551 0.929 . S
N517 Tb486 2.660 . S
N517 C518 1.305 . S
N517 C522 1.360 . S
C518 H510 0.930 . S
C518 N517 1.305 . S
C518 C521 1.407 . S
C519 H513 0.950 . S
C519 C520 1.391 1_655 S
C519 C521 1.344 1_655 S
C520 C519 1.391 1_455 S
C520 C522 1.417 . S
C520 C552 1.431 . S
C521 H507 0.930 . S
C521 C518 1.407 . S
C521 C519 1.344 1_455 S
C522 N517 1.360 . S
C522 C520 1.417 . S
C522 C526 1.432 . S
H523 C528 0.930 . S
N524 Tb486 2.600 . S
N524 C526 1.359 . S
N524 C527 1.327 . S
C525 H511 0.931 . S
C525 C527 1.392 . S
C525 C528 1.370 . S
C526 C522 1.432 . S
C526 N524 1.359 . S
C526 C529 1.414 . S
C527 H509 0.930 . S
C527 N524 1.327 . S
C527 C525 1.392 . S
C528 H523 0.930 . S
C528 C525 1.370 . S
C528 C529 1.385 . S
C529 C526 1.414 . S
C529 C528 1.385 . S
C529 C551 1.444 . S
O530 Tb486 2.546 . S
O530 C550 1.251 . S
O531 Tb486 2.610 . S
O531 Tb497 2.362 . S
O531 C542 1.283 . S
O532 Tb497 2.421 . S
O532 C549 1.262 . S
O533 Tb486 2.320 . S
O533 C549 1.260 . S
O534 Tb486 2.552 . S
O534 C542 1.243 . S
O535 Tb486 2.413 . S
O535 C550 1.256 . S
O536 Tb497 2.546 . S
O536 C561 1.251 . S
O537 Tb486 2.362 . S
O537 Tb497 2.610 . S
O537 C553 1.283 . S
O538 Tb486 2.421 . S
O538 C560 1.262 . S
O539 Tb497 2.320 . S
O539 C560 1.260 . S
O540 Tb497 2.552 . S
O540 C553 1.243 . S
O541 Tb497 2.413 . S
O541 C561 1.256 . S
C542 O531 1.283 . S
C542 O534 1.243 . S
C543 C545 1.382 . S
C543 C547 1.393 . S
C543 C550 1.500 . S
C544 C545 1.400 . S
C544 C546 1.384 . S
C545 C543 1.382 . S
C545 C544 1.400 . S
C545 H562 0.930 . S
C546 C544 1.384 . S
C546 C548 1.392 . S
C546 H563 0.931 . S
C547 C543 1.393 . S
C547 C548 1.401 . S
C547 H564 0.930 . S
C548 C546 1.392 . S
C548 C547 1.401 . S
C548 H565 0.930 . S
C549 O532 1.262 . S
C549 O533 1.260 . S
C550 Tb486 2.833 . S
C550 O530 1.251 . S
C550 O535 1.256 . S
C550 C543 1.500 . S
C551 H516 0.929 . S
C551 C529 1.444 . S
C551 C552 1.353 . S
C552 H514 0.895 1_455 S
C552 C520 1.431 . S
C552 C551 1.353 . S
C553 O537 1.283 . S
C553 O540 1.243 . S
C554 C555 1.382 . S
C554 C558 1.393 . S
C554 C561 1.500 . S
C555 C554 1.382 . S
C555 C556 1.400 . S
C555 H566 0.930 . S
C556 C555 1.400 . S
C556 C557 1.384 . S
C557 C556 1.384 . S
C557 C559 1.392 . S
C557 H567 0.931 . S
C558 C554 1.393 . S
C558 C559 1.401 . S
C558 H568 0.930 . S
C559 C557 1.392 . S
C559 C558 1.401 . S
C559 H569 0.930 . S
C560 O538 1.262 . S
C560 O539 1.260 . S
C561 Tb497 2.833 . S
C561 O536 1.251 . S
C561 O541 1.256 . S
C561 C554 1.500 . S
H562 C545 0.930 . S
H563 C546 0.931 . S
H564 C547 0.930 . S
H565 C548 0.930 . S
H566 C555 0.930 . S
H567 C557 0.931 . S
H568 C558 0.930 . S
H569 C559 0.930 . S
Tb570 N601 2.660 . S
Tb570 N608 2.600 . S
Tb570 O614 2.546 . S
Tb570 O615 2.610 . S
Tb570 O617 2.320 . S
Tb570 O618 2.552 . S
Tb570 O619 2.413 . S
Tb570 O621 2.362 . S
Tb570 O622 2.421 . S
Tb570 C634 2.833 . S
C571 C574 1.432 . S
C571 C575 1.414 . S
C571 N578 1.359 . S
C572 C574 1.417 . S
C572 C576 1.432 . S
C572 C584 1.410 . S
C573 C575 1.444 . S
C573 C576 1.317 . S
C573 H596 0.929 . S
C574 C571 1.432 . S
C574 C572 1.417 . S
C574 N582 1.360 . S
C575 C571 1.414 . S
C575 C573 1.444 . S
C575 C580 1.385 . S
C576 C572 1.432 . S
C576 C573 1.317 . S
C576 H588 0.930 . S
C577 C579 1.392 . S
C577 C580 1.370 . S
C577 H589 0.931 . S
N578 C571 1.359 . S
N578 C579 1.327 . S
N578 Tb581 2.600 . S
C579 C577 1.392 . S
C579 N578 1.327 . S
C579 H586 0.930 . S
C580 C575 1.385 . S
C580 C577 1.370 . S
C580 H599 0.930 . S
Tb581 N578 2.600 . S
Tb581 N582 2.660 . S
Tb581 O615 2.362 . S
Tb581 O616 2.421 . S
Tb581 O620 2.546 . S
Tb581 O621 2.610 . S
Tb581 O623 2.320 . S
Tb581 O624 2.552 . S
Tb581 O625 2.413 . S
Tb581 C645 2.833 . S
N582 C574 1.360 . S
N582 Tb581 2.660 . S
N582 C583 1.305 . S
C583 N582 1.305 . S
C583 C585 1.407 . S
C583 H590 0.930 . S
C584 C572 1.410 . S
C584 C585 1.345 . S
C584 H592 0.930 . S
C585 C583 1.407 . S
C585 C584 1.345 . S
C585 H587 0.930 . S
H586 C579 0.930 . S
H587 C585 0.930 . S
H588 C576 0.930 . S
H589 C577 0.931 . S
H590 C583 0.930 . S
H591 C605 0.930 . S
H592 C584 0.930 . S
H593 C611 0.930 . S
H594 C602 0.930 . S
H595 C609 0.931 . S
H596 C573 0.929 . S
H597 C603 0.930 . S
H598 C636 0.930 . S
H599 C580 0.930 . S
H600 C635 0.929 . S
N601 Tb570 2.660 . S
N601 C602 1.305 . S
N601 C606 1.360 . S
C602 H594 0.930 . S
C602 N601 1.305 . S
C602 C605 1.407 . S
C603 H597 0.930 . S
C603 C604 1.410 . S
C603 C605 1.345 . S
C604 C603 1.410 . S
C604 C606 1.417 . S
C604 C636 1.432 . S
C605 H591 0.930 . S
C605 C602 1.407 . S
C605 C603 1.345 . S
C606 N601 1.360 . S
C606 C604 1.417 . S
C606 C610 1.432 . S
H607 C612 0.930 . S
N608 Tb570 2.600 . S
N608 C610 1.359 . S
N608 C611 1.327 . S
C609 H595 0.931 . S
C609 C611 1.392 . S
C609 C612 1.370 . S
C610 C606 1.432 . S
C610 N608 1.359 . S
C610 C613 1.414 . S
C611 H593 0.930 . S
C611 N608 1.327 . S
C611 C609 1.392 . S
C612 H607 0.930 . S
C612 C609 1.370 . S
C612 C613 1.385 . S
C613 C610 1.414 . S
C613 C612 1.385 . S
C613 C635 1.444 . S
O614 Tb570 2.546 . S
O614 C634 1.251 . S
O615 Tb570 2.610 . S
O615 Tb581 2.362 . S
O615 C626 1.283 . S
O616 Tb581 2.421 . S
O616 C633 1.262 . S
O617 Tb570 2.320 . S
O617 C633 1.260 . S
O618 Tb570 2.552 . S
O618 C626 1.243 . S
O619 Tb570 2.413 . S
O619 C634 1.256 . S
O620 Tb581 2.546 . S
O620 C645 1.251 . S
O621 Tb570 2.362 . S
O621 Tb581 2.610 . S
O621 C637 1.283 . S
O622 Tb570 2.421 . S
O622 C644 1.262 . S
O623 Tb581 2.320 . S
O623 C644 1.260 . S
O624 Tb581 2.552 . S
O624 C637 1.243 . S
O625 Tb581 2.413 . S
O625 C645 1.256 . S
C626 O615 1.283 . S
C626 O618 1.243 . S
C627 C629 1.382 . S
C627 C631 1.393 . S
C627 C634 1.500 . S
C628 C629 1.400 . S
C628 C630 1.384 . S
C629 C627 1.382 . S
C629 C628 1.400 . S
C629 H646 0.930 . S
C630 C628 1.384 . S
C630 C632 1.392 . S
C630 H647 0.931 . S
C631 C627 1.393 . S
C631 C632 1.401 . S
C631 H648 0.930 . S
C632 C630 1.392 . S
C632 C631 1.401 . S
C632 H649 0.930 . S
C633 O616 1.262 . S
C633 O617 1.260 . S
C634 Tb570 2.833 . S
C634 O614 1.251 . S
C634 O619 1.256 . S
C634 C627 1.500 . S
C635 H600 0.929 . S
C635 C613 1.444 . S
C635 C636 1.317 . S
C636 H598 0.930 . S
C636 C604 1.432 . S
C636 C635 1.317 . S
C637 O621 1.283 . S
C637 O624 1.243 . S
C638 C639 1.382 . S
C638 C642 1.393 . S
C638 C645 1.500 . S
C639 C638 1.382 . S
C639 C640 1.400 . S
C639 H650 0.930 . S
C640 C639 1.400 . S
C640 C641 1.384 . S
C641 C640 1.384 . S
C641 C643 1.392 . S
C641 H651 0.931 . S
C642 C638 1.393 . S
C642 C643 1.401 . S
C642 H652 0.930 . S
C643 C641 1.392 . S
C643 C642 1.401 . S
C643 H653 0.930 . S
C644 O622 1.262 . S
C644 O623 1.260 . S
C645 Tb581 2.833 . S
C645 O620 1.251 . S
C645 O625 1.256 . S
C645 C638 1.500 . S
H646 C629 0.930 . S
H647 C630 0.931 . S
H648 C631 0.930 . S
H649 C632 0.930 . S
H650 C639 0.930 . S
H651 C641 0.931 . S
H652 C642 0.930 . S
H653 C643 0.930 . S
Tb654 N685 2.660 . S
Tb654 N692 2.600 . S
Tb654 O698 2.546 . S
Tb654 O699 2.610 . S
Tb654 O701 2.320 . S
Tb654 O702 2.552 . S
Tb654 O703 2.413 . S
Tb654 O705 2.362 . S
Tb654 O706 2.421 . S
Tb654 C718 2.833 . S
C655 C658 1.432 . S
C655 C659 1.414 . S
C655 N662 1.359 . S
C656 C658 1.417 . S
C656 C660 1.432 . S
C656 C668 1.410 . S
C657 C659 1.444 . S
C657 C660 1.317 . S
C657 H680 0.929 . S
C658 C655 1.432 . S
C658 C656 1.417 . S
C658 N666 1.360 . S
C659 C655 1.414 . S
C659 C657 1.444 . S
C659 C664 1.385 . S
C660 C656 1.432 . S
C660 C657 1.317 . S
C660 H672 0.930 . S
C661 C663 1.392 . S
C661 C664 1.370 . S
C661 H673 0.931 . S
N662 C655 1.359 . S
N662 C663 1.327 . S
N662 Tb665 2.600 . S
C663 C661 1.392 . S
C663 N662 1.327 . S
C663 H670 0.930 . S
C664 C659 1.385 . S
C664 C661 1.370 . S
C664 H683 0.930 . S
Tb665 N662 2.600 . S
Tb665 N666 2.660 . S
Tb665 O699 2.362 . S
Tb665 O700 2.421 . S
Tb665 O704 2.546 . S
Tb665 O705 2.610 . S
Tb665 O707 2.320 . S
Tb665 O708 2.552 . S
Tb665 O709 2.413 . S
Tb665 C729 2.833 . S
N666 C658 1.360 . S
N666 Tb665 2.660 . S
N666 C667 1.305 . S
C667 N666 1.305 . S
C667 C669 1.407 . S
C667 H674 0.930 . S
C668 C656 1.410 . S
C668 C669 1.345 . S
C668 H676 0.930 . S
C669 C667 1.407 . S
C669 C668 1.345 . S
C669 H671 0.930 . S
H670 C663 0.930 . S
H671 C669 0.930 . S
H672 C660 0.930 . S
H673 C661 0.931 . S
H674 C667 0.930 . S
H675 C689 0.930 . S
H676 C668 0.930 . S
H677 C695 0.930 . S
H678 C686 0.930 . S
H679 C693 0.931 . S
H680 C657 0.929 . S
H681 C687 0.930 . S
H682 C720 0.930 . S
H683 C664 0.930 . S
H684 C719 0.929 . S
N685 Tb654 2.660 . S
N685 C686 1.305 . S
N685 C690 1.360 . S
C686 H678 0.930 . S
C686 N685 1.305 . S
C686 C689 1.407 . S
C687 H681 0.930 . S
C687 C688 1.410 . S
C687 C689 1.345 . S
C688 C687 1.410 . S
C688 C690 1.417 . S
C688 C720 1.432 . S
C689 H675 0.930 . S
C689 C686 1.407 . S
C689 C687 1.345 . S
C690 N685 1.360 . S
C690 C688 1.417 . S
C690 C694 1.432 . S
H691 C696 0.930 . S
N692 Tb654 2.600 . S
N692 C694 1.359 . S
N692 C695 1.327 . S
C693 H679 0.931 . S
C693 C695 1.392 . S
C693 C696 1.370 . S
C694 C690 1.432 . S
C694 N692 1.359 . S
C694 C697 1.414 . S
C695 H677 0.930 . S
C695 N692 1.327 . S
C695 C693 1.392 . S
C696 H691 0.930 . S
C696 C693 1.370 . S
C696 C697 1.385 . S
C697 C694 1.414 . S
C697 C696 1.385 . S
C697 C719 1.444 . S
O698 Tb654 2.546 . S
O698 C718 1.251 . S
O699 Tb654 2.610 . S
O699 Tb665 2.362 . S
O699 C710 1.283 . S
O700 Tb665 2.421 . S
O700 C717 1.262 . S
O701 Tb654 2.320 . S
O701 C717 1.260 . S
O702 Tb654 2.552 . S
O702 C710 1.243 . S
O703 Tb654 2.413 . S
O703 C718 1.256 . S
O704 Tb665 2.546 . S
O704 C729 1.251 . S
O705 Tb654 2.362 . S
O705 Tb665 2.610 . S
O705 C721 1.283 . S
O706 Tb654 2.421 . S
O706 C728 1.262 . S
O707 Tb665 2.320 . S
O707 C728 1.260 . S
O708 Tb665 2.552 . S
O708 C721 1.243 . S
O709 Tb665 2.413 . S
O709 C729 1.256 . S
C710 O699 1.283 . S
C710 O702 1.243 . S
C711 C713 1.382 . S
C711 C715 1.393 . S
C711 C718 1.500 . S
C712 C713 1.400 . S
C712 C714 1.384 . S
C713 C711 1.382 . S
C713 C712 1.400 . S
C713 H730 0.930 . S
C714 C712 1.384 . S
C714 C716 1.392 . S
C714 H731 0.931 . S
C715 C711 1.393 . S
C715 C716 1.401 . S
C715 H732 0.930 . S
C716 C714 1.392 . S
C716 C715 1.401 . S
C716 H733 0.930 . S
C717 O700 1.262 . S
C717 O701 1.260 . S
C718 Tb654 2.833 . S
C718 O698 1.251 . S
C718 O703 1.256 . S
C718 C711 1.500 . S
C719 H684 0.929 . S
C719 C697 1.444 . S
C719 C720 1.317 . S
C720 H682 0.930 . S
C720 C688 1.432 . S
C720 C719 1.317 . S
C721 O705 1.283 . S
C721 O708 1.243 . S
C722 C723 1.382 . S
C722 C726 1.393 . S
C722 C729 1.500 . S
C723 C722 1.382 . S
C723 C724 1.400 . S
C723 H734 0.930 . S
C724 C723 1.400 . S
C724 C725 1.384 . S
C725 C724 1.384 . S
C725 C727 1.392 . S
C725 H735 0.931 . S
C726 C722 1.393 . S
C726 C727 1.401 . S
C726 H736 0.930 . S
C727 C725 1.392 . S
C727 C726 1.401 . S
C727 H737 0.930 . S
C728 O706 1.262 . S
C728 O707 1.260 . S
C729 Tb665 2.833 . S
C729 O704 1.251 . S
C729 O709 1.256 . S
C729 C722 1.500 . S
H730 C713 0.930 . S
H731 C714 0.931 . S
H732 C715 0.930 . S
H733 C716 0.930 . S
H734 C723 0.930 . S
H735 C725 0.931 . S
H736 C726 0.930 . S
H737 C727 0.930 . S
Tb738 N769 2.660 . S
Tb738 N776 2.600 . S
Tb738 O782 2.546 . S
Tb738 O783 2.610 . S
Tb738 O785 2.320 . S
Tb738 O786 2.552 . S
Tb738 O787 2.413 . S
Tb738 O789 2.362 . S
Tb738 O790 2.421 . S
Tb738 C802 2.833 . S
C739 C742 1.432 . S
C739 C743 1.414 . S
C739 N746 1.359 . S
C740 C742 1.417 . S
C740 C744 1.432 . S
C740 C752 1.410 . S
C741 C743 1.444 . S
C741 C744 1.317 . S
C741 H764 0.929 . S
C742 C739 1.432 . S
C742 C740 1.417 . S
C742 N750 1.360 . S
C743 C739 1.414 . S
C743 C741 1.444 . S
C743 C748 1.385 . S
C744 C740 1.432 . S
C744 C741 1.317 . S
C744 H756 0.930 . S
C745 C747 1.392 . S
C745 C748 1.370 . S
C745 H757 0.931 . S
N746 C739 1.359 . S
N746 C747 1.327 . S
N746 Tb749 2.600 . S
C747 C745 1.392 . S
C747 N746 1.327 . S
C747 H754 0.930 . S
C748 C743 1.385 . S
C748 C745 1.370 . S
C748 H767 0.930 . S
Tb749 N746 2.600 . S
Tb749 N750 2.660 . S
Tb749 O783 2.362 . S
Tb749 O784 2.421 . S
Tb749 O788 2.546 . S
Tb749 O789 2.610 . S
Tb749 O791 2.320 . S
Tb749 O792 2.552 . S
Tb749 O793 2.413 . S
Tb749 C813 2.833 . S
N750 C742 1.360 . S
N750 Tb749 2.660 . S
N750 C751 1.305 . S
C751 N750 1.305 . S
C751 C753 1.407 . S
C751 H758 0.930 . S
C752 C740 1.410 . S
C752 C753 1.345 . S
C752 H760 0.930 . S
C753 C751 1.407 . S
C753 C752 1.345 . S
C753 H755 0.930 . S
H754 C747 0.930 . S
H755 C753 0.930 . S
H756 C744 0.930 . S
H757 C745 0.931 . S
H758 C751 0.930 . S
H759 C773 0.930 . S
H760 C752 0.930 . S
H761 C779 0.930 . S
H762 C770 0.930 . S
H763 C777 0.931 . S
H764 C741 0.929 . S
H765 C771 0.930 . S
H766 C804 0.930 . S
H767 C748 0.930 . S
H768 C803 0.929 . S
N769 Tb738 2.660 . S
N769 C770 1.305 . S
N769 C774 1.360 . S
C770 H762 0.930 . S
C770 N769 1.305 . S
C770 C773 1.407 . S
C771 H765 0.930 . S
C771 C772 1.410 . S
C771 C773 1.345 . S
C772 C771 1.410 . S
C772 C774 1.417 . S
C772 C804 1.432 . S
C773 H759 0.930 . S
C773 C770 1.407 . S
C773 C771 1.345 . S
C774 N769 1.360 . S
C774 C772 1.417 . S
C774 C778 1.432 . S
H775 C780 0.930 . S
N776 Tb738 2.600 . S
N776 C778 1.359 . S
N776 C779 1.327 . S
C777 H763 0.931 . S
C777 C779 1.392 . S
C777 C780 1.370 . S
C778 C774 1.432 . S
C778 N776 1.359 . S
C778 C781 1.414 . S
C779 H761 0.930 . S
C779 N776 1.327 . S
C779 C777 1.392 . S
C780 H775 0.930 . S
C780 C777 1.370 . S
C780 C781 1.385 . S
C781 C778 1.414 . S
C781 C780 1.385 . S
C781 C803 1.444 . S
O782 Tb738 2.546 . S
O782 C802 1.251 . S
O783 Tb738 2.610 . S
O783 Tb749 2.362 . S
O783 C794 1.283 . S
O784 Tb749 2.421 . S
O784 C801 1.262 . S
O785 Tb738 2.320 . S
O785 C801 1.260 . S
O786 Tb738 2.552 . S
O786 C794 1.243 . S
O787 Tb738 2.413 . S
O787 C802 1.256 . S
O788 Tb749 2.546 . S
O788 C813 1.251 . S
O789 Tb738 2.362 . S
O789 Tb749 2.610 . S
O789 C805 1.283 . S
O790 Tb738 2.421 . S
O790 C812 1.262 . S
O791 Tb749 2.320 . S
O791 C812 1.260 . S
O792 Tb749 2.552 . S
O792 C805 1.243 . S
O793 Tb749 2.413 . S
O793 C813 1.256 . S
C794 O783 1.283 . S
C794 O786 1.243 . S
C795 C797 1.382 . S
C795 C799 1.393 . S
C795 C802 1.500 . S
C796 C797 1.400 . S
C796 C798 1.384 . S
C797 C795 1.382 . S
C797 C796 1.400 . S
C797 H814 0.930 . S
C798 C796 1.384 . S
C798 C800 1.392 . S
C798 H815 0.931 . S
C799 C795 1.393 . S
C799 C800 1.401 . S
C799 H816 0.930 . S
C800 C798 1.392 . S
C800 C799 1.401 . S
C800 H817 0.930 . S
C801 O784 1.262 . S
C801 O785 1.260 . S
C802 Tb738 2.833 . S
C802 O782 1.251 . S
C802 O787 1.256 . S
C802 C795 1.500 . S
C803 H768 0.929 . S
C803 C781 1.444 . S
C803 C804 1.317 . S
C804 H766 0.930 . S
C804 C772 1.432 . S
C804 C803 1.317 . S
C805 O789 1.283 . S
C805 O792 1.243 . S
C806 C807 1.382 . S
C806 C810 1.393 . S
C806 C813 1.500 . S
C807 C806 1.382 . S
C807 C808 1.400 . S
C807 H818 0.930 . S
C808 C807 1.400 . S
C808 C809 1.384 . S
C809 C808 1.384 . S
C809 C811 1.392 . S
C809 H819 0.931 . S
C810 C806 1.393 . S
C810 C811 1.401 . S
C810 H820 0.930 . S
C811 C809 1.392 . S
C811 C810 1.401 . S
C811 H821 0.930 . S
C812 O790 1.262 . S
C812 O791 1.260 . S
C813 Tb749 2.833 . S
C813 O788 1.251 . S
C813 O793 1.256 . S
C813 C806 1.500 . S
H814 C797 0.930 . S
H815 C798 0.931 . S
H816 C799 0.930 . S
H817 C800 0.930 . S
H818 C807 0.930 . S
H819 C809 0.931 . S
H820 C810 0.930 . S
H821 C811 0.930 . S
Tb822 N853 2.660 . S
Tb822 N860 2.600 . S
Tb822 O866 2.546 . S
Tb822 O867 2.610 . S
Tb822 O869 2.320 . S
Tb822 O870 2.552 . S
Tb822 O871 2.413 . S
Tb822 O873 2.362 . S
Tb822 O874 2.421 . S
Tb822 C886 2.833 . S
C823 C826 1.432 . S
C823 C827 1.414 . S
C823 N830 1.359 . S
C824 C826 1.417 . S
C824 C828 1.432 . S
C824 C836 1.410 . S
C825 C827 1.444 . S
C825 C828 1.317 . S
C825 H848 0.929 . S
C826 C823 1.432 . S
C826 C824 1.417 . S
C826 N834 1.360 . S
C827 C823 1.414 . S
C827 C825 1.444 . S
C827 C832 1.385 . S
C828 C824 1.432 . S
C828 C825 1.317 . S
C828 H840 0.930 . S
C829 C831 1.392 . S
C829 C832 1.370 . S
C829 H841 0.931 . S
N830 C823 1.359 . S
N830 C831 1.327 . S
N830 Tb833 2.600 . S
C831 C829 1.392 . S
C831 N830 1.327 . S
C831 H838 0.930 . S
C832 C827 1.385 . S
C832 C829 1.370 . S
C832 H851 0.930 . S
Tb833 N830 2.600 . S
Tb833 N834 2.660 . S
Tb833 O867 2.362 . S
Tb833 O868 2.421 . S
Tb833 O872 2.546 . S
Tb833 O873 2.610 . S
Tb833 O875 2.320 . S
Tb833 O876 2.552 . S
Tb833 O877 2.413 . S
Tb833 C897 2.833 . S
N834 C826 1.360 . S
N834 Tb833 2.660 . S
N834 C835 1.305 . S
C835 N834 1.305 . S
C835 C837 1.407 . S
C835 H842 0.930 . S
C836 C824 1.410 . S
C836 C837 1.345 . S
C836 H844 0.930 . S
C837 C835 1.407 . S
C837 C836 1.345 . S
C837 H839 0.930 . S
H838 C831 0.930 . S
H839 C837 0.930 . S
H840 C828 0.930 . S
H841 C829 0.931 . S
H842 C835 0.930 . S
H843 C857 0.930 . S
H844 C836 0.930 . S
H845 C863 0.930 . S
H846 C854 0.930 . S
H847 C861 0.931 . S
H848 C825 0.929 . S
H849 C855 0.930 . S
H850 C888 0.930 . S
H851 C832 0.930 . S
H852 C887 0.929 . S
N853 Tb822 2.660 . S
N853 C854 1.305 . S
N853 C858 1.360 . S
C854 H846 0.930 . S
C854 N853 1.305 . S
C854 C857 1.407 . S
C855 H849 0.930 . S
C855 C856 1.410 . S
C855 C857 1.345 . S
C856 C855 1.410 . S
C856 C858 1.417 . S
C856 C888 1.432 . S
C857 H843 0.930 . S
C857 C854 1.407 . S
C857 C855 1.345 . S
C858 N853 1.360 . S
C858 C856 1.417 . S
C858 C862 1.432 . S
H859 C864 0.930 . S
N860 Tb822 2.600 . S
N860 C862 1.359 . S
N860 C863 1.327 . S
C861 H847 0.931 . S
C861 C863 1.392 . S
C861 C864 1.370 . S
C862 C858 1.432 . S
C862 N860 1.359 . S
C862 C865 1.414 . S
C863 H845 0.930 . S
C863 N860 1.327 . S
C863 C861 1.392 . S
C864 H859 0.930 . S
C864 C861 1.370 . S
C864 C865 1.385 . S
C865 C862 1.414 . S
C865 C864 1.385 . S
C865 C887 1.444 . S
O866 Tb822 2.546 . S
O866 C886 1.251 . S
O867 Tb822 2.610 . S
O867 Tb833 2.362 . S
O867 C878 1.283 . S
O868 Tb833 2.421 . S
O868 C885 1.262 . S
O869 Tb822 2.320 . S
O869 C885 1.260 . S
O870 Tb822 2.552 . S
O870 C878 1.243 . S
O871 Tb822 2.413 . S
O871 C886 1.256 . S
O872 Tb833 2.546 . S
O872 C897 1.251 . S
O873 Tb822 2.362 . S
O873 Tb833 2.610 . S
O873 C889 1.283 . S
O874 Tb822 2.421 . S
O874 C896 1.262 . S
O875 Tb833 2.320 . S
O875 C896 1.260 . S
O876 Tb833 2.552 . S
O876 C889 1.243 . S
O877 Tb833 2.413 . S
O877 C897 1.256 . S
C878 O867 1.283 . S
C878 O870 1.243 . S
C879 C881 1.382 . S
C879 C883 1.393 . S
C879 C886 1.500 . S
C880 C881 1.400 . S
C880 C882 1.384 . S
C881 C879 1.382 . S
C881 C880 1.400 . S
C881 H898 0.930 . S
C882 C880 1.384 . S
C882 C884 1.392 . S
C882 H899 0.931 . S
C883 C879 1.393 . S
C883 C884 1.401 . S
C883 H900 0.930 . S
C884 C882 1.392 . S
C884 C883 1.401 . S
C884 H901 0.930 . S
C885 O868 1.262 . S
C885 O869 1.260 . S
C886 Tb822 2.833 . S
C886 O866 1.251 . S
C886 O871 1.256 . S
C886 C879 1.500 . S
C887 H852 0.929 . S
C887 C865 1.444 . S
C887 C888 1.317 . S
C888 H850 0.930 . S
C888 C856 1.432 . S
C888 C887 1.317 . S
C889 O873 1.283 . S
C889 O876 1.243 . S
C890 C891 1.382 . S
C890 C894 1.393 . S
C890 C897 1.500 . S
C891 C890 1.382 . S
C891 C892 1.400 . S
C891 H902 0.930 . S
C892 C891 1.400 . S
C892 C893 1.384 . S
C893 C892 1.384 . S
C893 C895 1.392 . S
C893 H903 0.931 . S
C894 C890 1.393 . S
C894 C895 1.401 . S
C894 H904 0.930 . S
C895 C893 1.392 . S
C895 C894 1.401 . S
C895 H905 0.930 . S
C896 O874 1.262 . S
C896 O875 1.260 . S
C897 Tb833 2.833 . S
C897 O872 1.251 . S
C897 O877 1.256 . S
C897 C890 1.500 . S
H898 C881 0.930 . S
H899 C882 0.931 . S
H900 C883 0.930 . S
H901 C884 0.930 . S
H902 C891 0.930 . S
H903 C893 0.931 . S
H904 C894 0.930 . S
H905 C895 0.930 . S
Tb906 N937 2.660 . S
Tb906 N944 2.600 . S
Tb906 O950 2.546 . S
Tb906 O951 2.610 . S
Tb906 O953 2.320 . S
Tb906 O954 2.552 . S
Tb906 O955 2.413 . S
Tb906 O957 2.362 . S
Tb906 O958 2.421 . S
Tb906 C970 2.833 . S
C907 C910 1.432 . S
C907 C911 1.414 . S
C907 N914 1.359 . S
C908 C910 1.417 . S
C908 C912 1.432 . S
C908 C920 1.410 . S
C909 C911 1.444 . S
C909 C912 1.317 . S
C909 H932 0.929 . S
C910 C907 1.432 . S
C910 C908 1.417 . S
C910 N918 1.360 . S
C911 C907 1.414 . S
C911 C909 1.444 . S
C911 C916 1.385 . S
C912 C908 1.432 . S
C912 C909 1.317 . S
C912 H924 0.930 . S
C913 C915 1.392 . S
C913 C916 1.370 . S
C913 H925 0.931 . S
N914 C907 1.359 . S
N914 C915 1.327 . S
N914 Tb917 2.600 . S
C915 C913 1.392 . S
C915 N914 1.327 . S
C915 H922 0.930 . S
C916 C911 1.385 . S
C916 C913 1.370 . S
C916 H935 0.930 . S
Tb917 N914 2.600 . S
Tb917 N918 2.660 . S
Tb917 O951 2.362 . S
Tb917 O952 2.421 . S
Tb917 O956 2.546 . S
Tb917 O957 2.610 . S
Tb917 O959 2.320 . S
Tb917 O960 2.552 . S
Tb917 O961 2.413 . S
Tb917 C981 2.833 . S
N918 C910 1.360 . S
N918 Tb917 2.660 . S
N918 C919 1.305 . S
C919 N918 1.305 . S
C919 C921 1.407 . S
C919 H926 0.930 . S
C920 C908 1.410 . S
C920 C921 1.345 . S
C920 H928 0.930 . S
C921 C919 1.407 . S
C921 C920 1.345 . S
C921 H923 0.930 . S
H922 C915 0.930 . S
H923 C921 0.930 . S
H924 C912 0.930 . S
H925 C913 0.931 . S
H926 C919 0.930 . S
H927 C941 0.931 1_455 S
H928 C920 0.930 . S
H929 C947 0.930 . S
H930 C938 0.930 . S
H931 C945 0.931 . S
H932 C909 0.929 . S
H933 C939 0.930 . S
H934 C972 0.930 . S
H935 C916 0.930 . S
H936 C971 0.932 1_455 S
N937 Tb906 2.660 . S
N937 C938 1.305 . S
N937 C942 1.360 . S
C938 H930 0.930 . S
C938 N937 1.305 . S
C938 C941 1.407 . S
C939 H933 0.930 . S
C939 C940 1.410 1_455 S
C939 C941 1.345 1_455 S
C940 C939 1.410 1_655 S
C940 C942 1.417 . S
C940 C972 1.432 1_655 S
C941 H927 0.931 1_655 S
C941 C938 1.407 . S
C941 C939 1.345 1_655 S
C942 N937 1.360 . S
C942 C940 1.417 . S
C942 C946 1.432 . S
H943 C948 0.930 . S
N944 Tb906 2.600 . S
N944 C946 1.359 . S
N944 C947 1.327 . S
C945 H931 0.931 . S
C945 C947 1.392 . S
C945 C948 1.370 . S
C946 C942 1.432 . S
C946 N944 1.359 . S
C946 C949 1.414 . S
C947 H929 0.930 . S
C947 N944 1.327 . S
C947 C945 1.392 . S
C948 H943 0.930 . S
C948 C945 1.370 . S
C948 C949 1.385 . S
C949 C946 1.414 . S
C949 C948 1.385 . S
C949 C971 1.444 . S
O950 Tb906 2.546 . S
O950 C970 1.251 . S
O951 Tb906 2.610 . S
O951 Tb917 2.362 . S
O951 C962 1.283 . S
O952 Tb917 2.421 . S
O952 C969 1.262 . S
O953 Tb906 2.320 . S
O953 C969 1.260 . S
O954 Tb906 2.552 . S
O954 C962 1.243 . S
O955 Tb906 2.413 . S
O955 C970 1.256 . S
O956 Tb917 2.546 . S
O956 C981 1.251 . S
O957 Tb906 2.362 . S
O957 Tb917 2.610 . S
O957 C973 1.283 . S
O958 Tb906 2.421 . S
O958 C980 1.262 . S
O959 Tb917 2.320 . S
O959 C980 1.260 . S
O960 Tb917 2.552 . S
O960 C973 1.243 . S
O961 Tb917 2.413 . S
O961 C981 1.256 . S
C962 O951 1.283 . S
C962 O954 1.243 . S
C963 C965 1.382 . S
C963 C967 1.393 . S
C963 C970 1.500 . S
C964 C965 1.400 . S
C964 C966 1.384 . S
C965 C963 1.382 . S
C965 C964 1.400 . S
C965 H982 0.930 . S
C966 C964 1.384 . S
C966 C968 1.392 . S
C966 H983 0.931 . S
C967 C963 1.393 . S
C967 C968 1.401 . S
C967 H984 0.930 . S
C968 C966 1.392 . S
C968 C967 1.401 . S
C968 H985 0.930 . S
C969 O952 1.262 . S
C969 O953 1.260 . S
C970 Tb906 2.833 . S
C970 O950 1.251 . S
C970 O955 1.256 . S
C970 C963 1.500 . S
C971 H936 0.932 1_655 S
C971 C949 1.444 . S
C971 C972 1.317 1_655 S
C972 H934 0.930 . S
C972 C940 1.432 1_455 S
C972 C971 1.317 1_455 S
C973 O957 1.283 . S
C973 O960 1.243 . S
C974 C975 1.382 . S
C974 C978 1.393 . S
C974 C981 1.500 . S
C975 C974 1.382 . S
C975 C976 1.400 . S
C975 H986 0.930 . S
C976 C975 1.400 . S
C976 C977 1.384 . S
C977 C976 1.384 . S
C977 C979 1.392 . S
C977 H987 0.931 . S
C978 C974 1.393 . S
C978 C979 1.401 . S
C978 H988 0.930 . S
C979 C977 1.392 . S
C979 C978 1.401 . S
C979 H989 0.930 . S
C980 O958 1.262 . S
C980 O959 1.260 . S
C981 Tb917 2.833 . S
C981 O956 1.251 . S
C981 O961 1.256 . S
C981 C974 1.500 . S
H982 C965 0.930 . S
H983 C966 0.931 . S
H984 C967 0.930 . S
H985 C968 0.930 . S
H986 C975 0.930 . S
H987 C977 0.931 . S
H988 C978 0.930 . S
H989 C979 0.930 . S
H990 C996 0.930 . S
H991 C999 0.930 . S
H992 C1000 0.930 . S
H993 C1001 0.930 . S
H994 C1004 0.915 1_556 S
H995 C1005 0.930 . S
C996 H990 0.930 . S
C996 C997 1.355 . S
C996 C998 1.415 . S
C997 C996 1.355 . S
C997 C999 1.419 . S
C998 C996 1.415 . S
C998 C1003 1.425 . S
C998 C1005 1.409 . S
C999 H991 0.930 . S
C999 C997 1.419 . S
C999 C1000 1.362 . S
C1000 H992 0.930 . S
C1000 C999 1.362 . S
C1000 C1003 1.409 . S
C1001 H993 0.930 . S
C1001 C1002 1.355 . S
C1001 C1003 1.415 . S
C1002 C1001 1.355 . S
C1002 C1004 1.419 . S
C1003 C998 1.425 . S
C1003 C1000 1.409 . S
C1003 C1001 1.415 . S
C1004 H994 0.915 1_554 S
C1004 C1002 1.419 . S
C1004 C1005 1.362 . S
C1005 H995 0.930 . S
C1005 C998 1.409 . S
C1005 C1004 1.362 . S
H1006 C1012 0.930 . S
H1007 C1015 0.930 . S
H1008 C1016 0.930 . S
H1009 C1017 0.930 . S
H1010 C1020 0.930 . S
H1011 C1021 0.930 . S
C1012 H1006 0.930 . S
C1012 C1013 1.355 . S
C1012 C1014 1.415 . S
C1013 C1012 1.355 . S
C1013 C1015 1.419 . S
C1014 C1012 1.415 . S
C1014 C1019 1.425 . S
C1014 C1021 1.409 . S
C1015 H1007 0.930 . S
C1015 C1013 1.419 . S
C1015 C1016 1.362 . S
C1016 H1008 0.930 . S
C1016 C1015 1.362 . S
C1016 C1019 1.409 . S
C1017 H1009 0.930 . S
C1017 C1018 1.355 . S
C1017 C1019 1.415 . S
C1018 C1017 1.355 . S
C1018 C1020 1.419 . S
C1019 C1014 1.425 . S
C1019 C1016 1.409 . S
C1019 C1017 1.415 . S
C1020 H1010 0.930 . S
C1020 C1018 1.419 . S
C1020 C1021 1.362 . S
C1021 H1011 0.930 . S
C1021 C1014 1.409 . S
C1021 C1020 1.362 . S
H1022 C1028 0.930 . S
H1023 C1031 0.930 . S
H1024 C1032 0.930 . S
H1025 C1033 0.930 . S
H1026 C1036 0.930 . S
H1027 C1037 0.930 . S
C1028 H1022 0.930 . S
C1028 C1029 1.355 . S
C1028 C1030 1.415 . S
C1029 C1028 1.355 . S
C1029 C1031 1.419 . S
C1030 C1028 1.415 . S
C1030 C1035 1.425 . S
C1030 C1037 1.409 . S
C1031 H1023 0.930 . S
C1031 C1029 1.419 . S
C1031 C1032 1.362 . S
C1032 H1024 0.930 . S
C1032 C1031 1.362 . S
C1032 C1035 1.409 . S
C1033 H1025 0.930 . S
C1033 C1034 1.355 . S
C1033 C1035 1.415 . S
C1034 C1033 1.355 . S
C1034 C1036 1.419 . S
C1035 C1030 1.425 . S
C1035 C1032 1.409 . S
C1035 C1033 1.415 . S
C1036 H1026 0.930 . S
C1036 C1034 1.419 . S
C1036 C1037 1.362 . S
C1037 H1027 0.930 . S
C1037 C1030 1.409 . S
C1037 C1036 1.362 . S
H1038 C1044 0.930 . S
H1039 C1047 0.930 . S
H1040 C1048 0.930 1_554 S
H1041 C1049 0.930 1_554 S
H1042 C1052 0.930 . S
H1043 C1053 0.930 . S
C1044 H1038 0.930 . S
C1044 C1045 1.355 . S
C1044 C1046 1.415 . S
C1045 C1044 1.355 . S
C1045 C1047 1.419 . S
C1046 C1044 1.415 . S
C1046 C1051 1.425 . S
C1046 C1053 1.409 . S
C1047 H1039 0.930 . S
C1047 C1045 1.419 . S
C1047 C1048 1.362 . S
C1048 H1040 0.930 1_556 S
C1048 C1047 1.362 . S
C1048 C1051 1.409 . S
C1049 H1041 0.930 1_556 S
C1049 C1050 1.355 . S
C1049 C1051 1.415 . S
C1050 C1049 1.355 . S
C1050 C1052 1.419 . S
C1051 C1046 1.425 . S
C1051 C1048 1.409 . S
C1051 C1049 1.415 . S
C1052 H1042 0.930 . S
C1052 C1050 1.419 . S
C1052 C1053 1.362 . S
C1053 H1043 0.930 . S
C1053 C1046 1.409 . S
C1053 C1052 1.362 . S
H1054 C1060 0.930 . S
H1055 C1063 0.930 . S
H1056 C1064 0.930 1_554 S
H1057 C1065 0.930 1_554 S
H1058 C1068 0.930 . S
H1059 C1069 0.930 . S
C1060 H1054 0.930 . S
C1060 C1061 1.355 . S
C1060 C1062 1.415 . S
C1061 C1060 1.355 . S
C1061 C1063 1.419 . S
C1062 C1060 1.415 . S
C1062 C1067 1.425 . S
C1062 C1069 1.409 . S
C1063 H1055 0.930 . S
C1063 C1061 1.419 . S
C1063 C1064 1.362 . S
C1064 H1056 0.930 1_556 S
C1064 C1063 1.362 . S
C1064 C1067 1.409 . S
C1065 H1057 0.930 1_556 S
C1065 C1066 1.355 . S
C1065 C1067 1.415 . S
C1066 C1065 1.355 . S
C1066 C1068 1.419 . S
C1067 C1062 1.425 . S
C1067 C1064 1.409 . S
C1067 C1065 1.415 . S
C1068 H1058 0.930 . S
C1068 C1066 1.419 . S
C1068 C1069 1.362 . S
C1069 H1059 0.930 . S
C1069 C1062 1.409 . S
C1069 C1068 1.362 . S
H1070 C1076 0.930 . S
H1071 C1079 0.930 . S
H1072 C1080 0.930 . S
H1073 C1081 0.933 . S
H1074 C1084 0.930 . S
H1075 C1085 0.930 . S
C1076 H1070 0.930 . S
C1076 C1077 1.355 . S
C1076 C1078 1.415 . S
C1077 C1076 1.355 . S
C1077 C1079 1.419 . S
C1078 C1076 1.415 . S
C1078 C1083 1.425 . S
C1078 C1085 1.409 . S
C1079 H1071 0.930 . S
C1079 C1077 1.419 . S
C1079 C1080 1.362 . S
C1080 H1072 0.930 . S
C1080 C1079 1.362 . S
C1080 C1083 1.409 . S
C1081 H1073 0.933 . S
C1081 C1082 1.355 . S
C1081 C1083 1.415 . S
C1082 C1081 1.355 . S
C1082 C1084 1.419 . S
C1083 C1078 1.425 . S
C1083 C1080 1.409 . S
C1083 C1081 1.415 . S
C1084 H1074 0.930 . S
C1084 C1082 1.419 . S
C1084 C1085 1.362 . S
C1085 H1075 0.930 . S
C1085 C1078 1.409 . S
C1085 C1084 1.362 . S
H1086 C1092 0.930 1_554 S
H1087 C1095 0.930 . S
H1088 C1096 0.930 . S
H1089 C1097 0.930 . S
H1090 C1100 0.930 . S
H1091 C1101 0.930 . S
C1092 H1086 0.930 1_556 S
C1092 C1093 1.355 . S
C1092 C1094 1.415 . S
C1093 C1092 1.355 . S
C1093 C1095 1.419 . S
C1094 C1092 1.415 . S
C1094 C1099 1.425 . S
C1094 C1101 1.409 1_556 S
C1095 H1087 0.930 . S
C1095 C1093 1.419 . S
C1095 C1096 1.362 . S
C1096 H1088 0.930 . S
C1096 C1095 1.362 . S
C1096 C1099 1.409 . S
C1097 H1089 0.930 . S
C1097 C1098 1.355 . S
C1097 C1099 1.415 . S
C1098 C1097 1.355 . S
C1098 C1100 1.419 1_556 S
C1099 C1094 1.425 . S
C1099 C1096 1.409 . S
C1099 C1097 1.415 . S
C1100 H1090 0.930 . S
C1100 C1098 1.419 1_554 S
C1100 C1101 1.362 . S
C1101 H1091 0.930 . S
C1101 C1094 1.409 1_554 S
C1101 C1100 1.362 . S
H1102 C1108 0.930 . S
H1103 C1111 0.930 . S
H1104 C1112 0.930 . S
H1105 C1113 0.930 . S
H1106 C1116 0.930 . S
H1107 C1117 0.930 . S
C1108 H1102 0.930 . S
C1108 C1109 1.355 . S
C1108 C1110 1.415 . S
C1109 C1108 1.355 . S
C1109 C1111 1.419 . S
C1110 C1108 1.415 . S
C1110 C1115 1.425 . S
C1110 C1117 1.409 . S
C1111 H1103 0.930 . S
C1111 C1109 1.419 . S
C1111 C1112 1.362 . S
C1112 H1104 0.930 . S
C1112 C1111 1.362 . S
C1112 C1115 1.409 . S
C1113 H1105 0.930 . S
C1113 C1114 1.355 . S
C1113 C1115 1.415 . S
C1114 C1113 1.355 . S
C1114 C1116 1.419 . S
C1115 C1110 1.425 . S
C1115 C1112 1.409 . S
C1115 C1113 1.415 . S
C1116 H1106 0.930 . S
C1116 C1114 1.419 . S
C1116 C1117 1.362 . S
C1117 H1107 0.930 . S
C1117 C1110 1.409 . S
C1117 C1116 1.362 . S
H1118 C1124 0.930 . S
H1119 C1127 0.946 . S
H1120 C1128 0.930 . S
H1121 C1129 0.930 . S
H1122 C1132 0.930 . S
H1123 C1133 0.930 . S
C1124 H1118 0.930 . S
C1124 C1125 1.355 . S
C1124 C1126 1.415 . S
C1125 C1124 1.355 . S
C1125 C1127 1.394 1_556 S
C1126 C1124 1.415 . S
C1126 C1131 1.425 . S
C1126 C1133 1.409 . S
C1127 H1119 0.946 . S
C1127 C1125 1.394 1_554 S
C1127 C1128 1.372 . S
C1128 H1120 0.930 . S
C1128 C1127 1.372 . S
C1128 C1131 1.409 1_554 S
C1129 H1121 0.930 . S
C1129 C1130 1.355 1_554 S
C1129 C1131 1.415 1_554 S
C1130 C1129 1.355 1_556 S
C1130 C1132 1.419 . S
C1131 C1126 1.425 . S
C1131 C1128 1.409 1_556 S
C1131 C1129 1.415 1_556 S
C1132 H1122 0.930 . S
C1132 C1130 1.419 . S
C1132 C1133 1.362 . S
C1133 H1123 0.930 . S
C1133 C1126 1.409 . S
C1133 C1132 1.362 . S
H1134 C1140 0.930 . S
H1135 C1143 0.930 . S
H1136 C1144 0.930 1_556 S
H1137 C1145 0.930 . S
H1138 C1148 0.930 . S
H1139 C1149 0.930 . S
C1140 H1134 0.930 . S
C1140 C1141 1.355 . S
C1140 C1142 1.415 . S
C1141 C1140 1.355 . S
C1141 C1143 1.419 . S
C1142 C1140 1.415 . S
C1142 C1147 1.425 . S
C1142 C1149 1.409 . S
C1143 H1135 0.930 . S
C1143 C1141 1.419 . S
C1143 C1144 1.362 . S
C1144 H1136 0.930 1_554 S
C1144 C1143 1.362 . S
C1144 C1147 1.409 . S
C1145 H1137 0.930 . S
C1145 C1146 1.355 . S
C1145 C1147 1.415 . S
C1146 C1145 1.355 . S
C1146 C1148 1.419 . S
C1147 C1142 1.425 . S
C1147 C1144 1.409 . S
C1147 C1145 1.415 . S
C1148 H1138 0.930 . S
C1148 C1146 1.419 . S
C1148 C1149 1.362 . S
C1149 H1139 0.930 . S
C1149 C1142 1.409 . S
C1149 C1148 1.362 . S
H1150 C1156 0.930 . S
H1151 C1159 0.930 . S
H1152 C1160 0.930 . S
H1153 C1161 0.930 . S
H1154 C1164 0.930 1_556 S
H1155 C1165 0.930 1_556 S
C1156 H1150 0.930 . S
C1156 C1157 1.355 . S
C1156 C1158 1.415 . S
C1157 C1156 1.355 . S
C1157 C1159 1.419 . S
C1158 C1156 1.415 . S
C1158 C1163 1.425 . S
C1158 C1165 1.409 . S
C1159 H1151 0.930 . S
C1159 C1157 1.419 . S
C1159 C1160 1.362 . S
C1160 H1152 0.930 . S
C1160 C1159 1.362 . S
C1160 C1163 1.409 . S
C1161 H1153 0.930 . S
C1161 C1162 1.355 . S
C1161 C1163 1.415 . S
C1162 C1161 1.355 . S
C1162 C1164 1.419 . S
C1163 C1158 1.425 . S
C1163 C1160 1.409 . S
C1163 C1161 1.415 . S
C1164 H1154 0.930 1_554 S
C1164 C1162 1.419 . S
C1164 C1165 1.362 . S
C1165 H1155 0.930 1_554 S
C1165 C1158 1.409 . S
C1165 C1164 1.362 . S
H1166 C1172 0.930 . S
H1167 C1175 0.930 . S
H1168 C1176 0.930 . S
H1169 C1177 0.930 . S
H1170 C1180 0.930 . S
H1171 C1181 0.930 . S
C1172 H1166 0.930 . S
C1172 C1173 1.355 . S
C1172 C1174 1.415 . S
C1173 C1172 1.355 . S
C1173 C1175 1.419 . S
C1174 C1172 1.415 . S
C1174 C1179 1.425 . S
C1174 C1181 1.409 . S
C1175 H1167 0.930 . S
C1175 C1173 1.419 . S
C1175 C1176 1.362 . S
C1176 H1168 0.930 . S
C1176 C1175 1.362 . S
C1176 C1179 1.409 . S
C1177 H1169 0.930 . S
C1177 C1178 1.355 . S
C1177 C1179 1.415 . S
C1178 C1177 1.355 . S
C1178 C1180 1.419 . S
C1179 C1174 1.425 . S
C1179 C1176 1.409 . S
C1179 C1177 1.415 . S
C1180 H1170 0.930 . S
C1180 C1178 1.419 . S
C1180 C1181 1.362 . S
C1181 H1171 0.930 . S
C1181 C1174 1.409 . S
C1181 C1180 1.362 . S
H1182 C1188 0.930 . S
H1183 C1191 0.930 . S
H1184 C1192 0.930 . S
H1185 C1193 0.930 . S
H1186 C1196 0.930 . S
H1187 C1197 0.930 1_655 S
C1188 H1182 0.930 . S
C1188 C1189 1.355 . S
C1188 C1190 1.415 . S
C1189 C1188 1.355 . S
C1189 C1191 1.419 . S
C1190 C1188 1.415 . S
C1190 C1195 1.425 1_655 S
C1190 C1197 1.409 1_655 S
C1191 H1183 0.930 . S
C1191 C1189 1.419 . S
C1191 C1192 1.362 1_655 S
C1192 H1184 0.930 . S
C1192 C1191 1.362 1_455 S
C1192 C1195 1.409 . S
C1193 H1185 0.930 . S
C1193 C1194 1.355 . S
C1193 C1195 1.415 . S
C1194 C1193 1.355 . S
C1194 C1196 1.419 . S
C1195 C1190 1.425 1_455 S
C1195 C1192 1.409 . S
C1195 C1193 1.415 . S
C1196 H1186 0.930 . S
C1196 C1194 1.419 . S
C1196 C1197 1.362 . S
C1197 H1187 0.930 1_455 S
C1197 C1190 1.409 1_455 S
C1197 C1196 1.362 . S
H1198 C1204 0.930 . S
H1199 C1207 0.930 . S
H1200 C1208 0.930 . S
H1201 C1209 0.930 . S
H1202 C1212 0.930 . S
H1203 C1213 0.930 . S
C1204 H1198 0.930 . S
C1204 C1205 1.355 . S
C1204 C1206 1.415 . S
C1205 C1204 1.355 . S
C1205 C1207 1.419 . S
C1206 C1204 1.415 . S
C1206 C1211 1.425 . S
C1206 C1213 1.409 . S
C1207 H1199 0.930 . S
C1207 C1205 1.419 . S
C1207 C1208 1.362 . S
C1208 H1200 0.930 . S
C1208 C1207 1.362 . S
C1208 C1211 1.409 . S
C1209 H1201 0.930 . S
C1209 C1210 1.355 . S
C1209 C1211 1.415 . S
C1210 C1209 1.355 . S
C1210 C1212 1.419 . S
C1211 C1206 1.425 . S
C1211 C1208 1.409 . S
C1211 C1209 1.415 . S
C1212 H1202 0.930 . S
C1212 C1210 1.419 . S
C1212 C1213 1.362 . S
C1213 H1203 0.930 . S
C1213 C1206 1.409 . S
C1213 C1212 1.362 . S
H1214 C1220 0.930 . S
H1215 C1223 0.930 . S
H1216 C1224 0.930 1_565 S
H1217 C1225 0.930 . S
H1218 C1228 0.930 . S
H1219 C1229 0.930 . S
C1220 H1214 0.930 . S
C1220 C1221 1.355 . S
C1220 C1222 1.415 . S
C1221 C1220 1.355 . S
C1221 C1223 1.419 . S
C1222 C1220 1.415 . S
C1222 C1227 1.425 1_545 S
C1222 C1229 1.409 . S
C1223 H1215 0.930 . S
C1223 C1221 1.419 . S
C1223 C1224 1.362 . S
C1224 H1216 0.930 1_545 S
C1224 C1223 1.362 . S
C1224 C1227 1.409 1_545 S
C1225 H1217 0.930 . S
C1225 C1226 1.355 . S
C1225 C1227 1.415 . S
C1226 C1225 1.355 . S
C1226 C1228 1.419 . S
C1227 C1222 1.425 1_565 S
C1227 C1224 1.409 1_565 S
C1227 C1225 1.415 . S
C1228 H1218 0.930 . S
C1228 C1226 1.419 . S
C1228 C1229 1.362 1_565 S
C1229 H1219 0.930 . S
C1229 C1222 1.409 . S
C1229 C1228 1.362 1_545 S
H1230 C1236 0.930 . S
H1231 C1239 0.930 . S
H1232 C1240 0.930 . S
H1233 C1241 0.930 . S
H1234 C1244 0.930 . S
H1235 C1245 0.930 . S
C1236 H1230 0.930 . S
C1236 C1237 1.355 . S
C1236 C1238 1.415 . S
C1237 C1236 1.355 . S
C1237 C1239 1.419 . S
C1238 C1236 1.415 . S
C1238 C1243 1.425 . S
C1238 C1245 1.409 . S
C1239 H1231 0.930 . S
C1239 C1237 1.419 . S
C1239 C1240 1.362 . S
C1240 H1232 0.930 . S
C1240 C1239 1.362 . S
C1240 C1243 1.409 . S
C1241 H1233 0.930 . S
C1241 C1242 1.355 . S
C1241 C1243 1.415 . S
C1242 C1241 1.355 . S
C1242 C1244 1.419 . S
C1243 C1238 1.425 . S
C1243 C1240 1.409 . S
C1243 C1241 1.415 . S
C1244 H1234 0.930 . S
C1244 C1242 1.419 . S
C1244 C1245 1.362 . S
C1245 H1235 0.930 . S
C1245 C1238 1.409 . S
C1245 C1244 1.362 . S
H1246 C1252 0.930 . S
H1247 C1255 0.930 . S
H1248 C1256 0.930 . S
H1249 C1257 0.930 . S
H1250 C1260 0.930 . S
H1251 C1261 0.930 . S
C1252 H1246 0.930 . S
C1252 C1253 1.355 . S
C1252 C1254 1.415 . S
C1253 C1252 1.355 . S
C1253 C1255 1.419 . S
C1254 C1252 1.415 . S
C1254 C1259 1.425 . S
C1254 C1261 1.409 . S
C1255 H1247 0.930 . S
C1255 C1253 1.419 . S
C1255 C1256 1.362 . S
C1256 H1248 0.930 . S
C1256 C1255 1.362 . S
C1256 C1259 1.409 . S
C1257 H1249 0.930 . S
C1257 C1258 1.355 . S
C1257 C1259 1.415 . S
C1258 C1257 1.355 . S
C1258 C1260 1.419 . S
C1259 C1254 1.425 . S
C1259 C1256 1.409 . S
C1259 C1257 1.415 . S
C1260 H1250 0.930 . S
C1260 C1258 1.419 . S
C1260 C1261 1.362 . S
C1261 H1251 0.930 . S
C1261 C1254 1.409 . S
C1261 C1260 1.362 . S
H1262 C1268 0.930 . S
H1263 C1271 0.930 . S
H1264 C1272 0.930 . S
H1265 C1273 0.930 . S
H1266 C1276 0.930 . S
H1267 C1277 0.930 . S
C1268 H1262 0.930 . S
C1268 C1269 1.355 . S
C1268 C1270 1.415 . S
C1269 C1268 1.355 . S
C1269 C1271 1.419 . S
C1270 C1268 1.415 . S
C1270 C1275 1.425 . S
C1270 C1277 1.409 . S
C1271 H1263 0.930 . S
C1271 C1269 1.419 . S
C1271 C1272 1.362 . S
C1272 H1264 0.930 . S
C1272 C1271 1.362 . S
C1272 C1275 1.409 . S
C1273 H1265 0.930 . S
C1273 C1274 1.355 . S
C1273 C1275 1.415 . S
C1274 C1273 1.355 . S
C1274 C1276 1.419 . S
C1275 C1270 1.425 . S
C1275 C1272 1.409 . S
C1275 C1273 1.415 . S
C1276 H1266 0.930 . S
C1276 C1274 1.419 . S
C1276 C1277 1.362 . S
C1277 H1267 0.930 . S
C1277 C1270 1.409 . S
C1277 C1276 1.362 . S
H1278 C1284 0.930 . S
H1279 C1287 0.930 . S
H1280 C1288 0.930 . S
H1281 C1289 0.930 . S
H1282 C1292 0.930 . S
H1283 C1293 0.930 . S
C1284 H1278 0.930 . S
C1284 C1285 1.355 . S
C1284 C1286 1.415 . S
C1285 C1284 1.355 . S
C1285 C1287 1.419 . S
C1286 C1284 1.415 . S
C1286 C1291 1.425 . S
C1286 C1293 1.409 . S
C1287 H1279 0.930 . S
C1287 C1285 1.419 . S
C1287 C1288 1.362 . S
C1288 H1280 0.930 . S
C1288 C1287 1.362 . S
C1288 C1291 1.409 . S
C1289 H1281 0.930 . S
C1289 C1290 1.355 . S
C1289 C1291 1.415 . S
C1290 C1289 1.355 . S
C1290 C1292 1.419 . S
C1291 C1286 1.425 . S
C1291 C1288 1.409 . S
C1291 C1289 1.415 . S
C1292 H1282 0.930 . S
C1292 C1290 1.419 . S
C1292 C1293 1.362 . S
C1293 H1283 0.930 . S
C1293 C1286 1.409 . S
C1293 C1292 1.362 . S
H1294 C1300 0.930 . S
H1295 C1303 0.930 . S
H1296 C1304 0.930 . S
H1297 C1305 0.930 . S
H1298 C1308 0.930 . S
H1299 C1309 0.930 . S
C1300 H1294 0.930 . S
C1300 C1301 1.355 . S
C1300 C1302 1.415 . S
C1301 C1300 1.355 . S
C1301 C1303 1.419 . S
C1302 C1300 1.415 . S
C1302 C1307 1.425 . S
C1302 C1309 1.409 . S
C1303 H1295 0.930 . S
C1303 C1301 1.419 . S
C1303 C1304 1.362 . S
C1304 H1296 0.930 . S
C1304 C1303 1.362 . S
C1304 C1307 1.409 . S
C1305 H1297 0.930 . S
C1305 C1306 1.355 . S
C1305 C1307 1.415 . S
C1306 C1305 1.355 . S
C1306 C1308 1.419 . S
C1307 C1302 1.425 . S
C1307 C1304 1.409 . S
C1307 C1305 1.415 . S
C1308 H1298 0.930 . S
C1308 C1306 1.419 . S
C1308 C1309 1.362 . S
C1309 H1299 0.930 . S
C1309 C1302 1.409 . S
C1309 C1308 1.362 . S
H1310 C1316 0.930 . S
H1311 C1319 0.930 . S
H1312 C1320 0.930 . S
H1313 C1321 0.930 . S
H1314 C1324 0.930 . S
H1315 C1325 0.930 . S
C1316 H1310 0.930 . S
C1316 C1317 1.355 . S
C1316 C1318 1.415 . S
C1317 C1316 1.355 . S
C1317 C1319 1.419 . S
C1318 C1316 1.415 . S
C1318 C1323 1.425 . S
C1318 C1325 1.409 . S
C1319 H1311 0.930 . S
C1319 C1317 1.419 . S
C1319 C1320 1.362 . S
C1320 H1312 0.930 . S
C1320 C1319 1.362 . S
C1320 C1323 1.409 . S
C1321 H1313 0.930 . S
C1321 C1322 1.355 . S
C1321 C1323 1.415 . S
C1322 C1321 1.355 . S
C1322 C1324 1.419 . S
C1323 C1318 1.425 . S
C1323 C1320 1.409 . S
C1323 C1321 1.415 . S
C1324 H1314 0.930 . S
C1324 C1322 1.419 . S
C1324 C1325 1.362 . S
C1325 H1315 0.930 . S
C1325 C1318 1.409 . S
C1325 C1324 1.362 . S
H1326 C1332 0.930 . S
H1327 C1335 0.934 1_545 S
H1328 C1336 0.930 . S
H1329 C1337 0.930 . S
H1330 C1340 0.930 . S
H1331 C1341 0.930 . S
C1332 H1326 0.930 . S
C1332 C1333 1.355 1_565 S
C1332 C1334 1.415 . S
C1333 C1332 1.355 1_545 S
C1333 C1335 1.418 1_545 S
C1334 C1332 1.415 . S
C1334 C1339 1.425 . S
C1334 C1341 1.409 . S
C1335 H1327 0.934 1_565 S
C1335 C1333 1.418 1_565 S
C1335 C1336 1.360 . S
C1336 H1328 0.930 . S
C1336 C1335 1.360 . S
C1336 C1339 1.409 . S
C1337 H1329 0.930 . S
C1337 C1338 1.355 . S
C1337 C1339 1.415 . S
C1338 C1337 1.355 . S
C1338 C1340 1.419 . S
C1339 C1334 1.425 . S
C1339 C1336 1.409 . S
C1339 C1337 1.415 . S
C1340 H1330 0.930 . S
C1340 C1338 1.419 . S
C1340 C1341 1.362 . S
C1341 H1331 0.930 . S
C1341 C1334 1.409 . S
C1341 C1340 1.362 . S
H1342 C1348 0.930 . S
H1343 C1351 0.930 . S
H1344 C1352 0.930 . S
H1345 C1353 0.930 . S
H1346 C1356 0.930 . S
H1347 C1357 0.930 . S
C1348 H1342 0.930 . S
C1348 C1349 1.355 . S
C1348 C1350 1.415 . S
C1349 C1348 1.355 . S
C1349 C1351 1.419 . S
C1350 C1348 1.415 . S
C1350 C1355 1.425 . S
C1350 C1357 1.409 . S
C1351 H1343 0.930 . S
C1351 C1349 1.419 . S
C1351 C1352 1.362 . S
C1352 H1344 0.930 . S
C1352 C1351 1.362 . S
C1352 C1355 1.409 . S
C1353 H1345 0.930 . S
C1353 C1354 1.355 . S
C1353 C1355 1.415 . S
C1354 C1353 1.355 . S
C1354 C1356 1.419 . S
C1355 C1350 1.425 . S
C1355 C1352 1.409 . S
C1355 C1353 1.415 . S
C1356 H1346 0.930 . S
C1356 C1354 1.419 . S
C1356 C1357 1.362 . S
C1357 H1347 0.930 . S
C1357 C1350 1.409 . S
C1357 C1356 1.362 . S
H1358 C1364 0.930 . S
H1359 C1367 0.930 . S
H1360 C1368 0.930 . S
H1361 C1369 0.930 . S
H1362 C1372 0.930 . S
H1363 C1373 0.930 . S
C1364 H1358 0.930 . S
C1364 C1365 1.355 . S
C1364 C1366 1.415 . S
C1365 C1364 1.355 . S
C1365 C1367 1.419 . S
C1366 C1364 1.415 . S
C1366 C1371 1.425 . S
C1366 C1373 1.409 . S
C1367 H1359 0.930 . S
C1367 C1365 1.419 . S
C1367 C1368 1.362 . S
C1368 H1360 0.930 . S
C1368 C1367 1.362 . S
C1368 C1371 1.409 . S
C1369 H1361 0.930 . S
C1369 C1370 1.355 . S
C1369 C1371 1.415 . S
C1370 C1369 1.355 . S
C1370 C1372 1.419 . S
C1371 C1366 1.425 . S
C1371 C1368 1.409 . S
C1371 C1369 1.415 . S
C1372 H1362 0.930 . S
C1372 C1370 1.419 . S
C1372 C1373 1.362 . S
C1373 H1363 0.930 . S
C1373 C1366 1.409 . S
C1373 C1372 1.362 . S
H1374 C1380 0.930 . S
H1375 C1383 0.930 . S
H1376 C1384 0.930 . S
H1377 C1385 0.930 . S
H1378 C1388 0.930 . S
H1379 C1389 0.930 . S
C1380 H1374 0.930 . S
C1380 C1381 1.355 . S
C1380 C1382 1.415 . S
C1381 C1380 1.355 . S
C1381 C1383 1.419 . S
C1382 C1380 1.415 . S
C1382 C1387 1.425 . S
C1382 C1389 1.409 . S
C1383 H1375 0.930 . S
C1383 C1381 1.419 . S
C1383 C1384 1.362 . S
C1384 H1376 0.930 . S
C1384 C1383 1.362 . S
C1384 C1387 1.409 . S
C1385 H1377 0.930 . S
C1385 C1386 1.355 . S
C1385 C1387 1.415 . S
C1386 C1385 1.355 . S
C1386 C1388 1.419 . S
C1387 C1382 1.425 . S
C1387 C1384 1.409 . S
C1387 C1385 1.415 . S
C1388 H1378 0.930 . S
C1388 C1386 1.419 . S
C1388 C1389 1.362 . S
C1389 H1379 0.930 . S
C1389 C1382 1.409 . S
C1389 C1388 1.362 . S
H1390 C1396 0.930 . S
H1391 C1399 0.930 . S
H1392 C1400 0.930 . S
H1393 C1401 0.930 . S
H1394 C1404 0.930 . S
H1395 C1405 0.930 . S
C1396 H1390 0.930 . S
C1396 C1397 1.355 . S
C1396 C1398 1.415 . S
C1397 C1396 1.355 . S
C1397 C1399 1.419 . S
C1398 C1396 1.415 . S
C1398 C1403 1.425 . S
C1398 C1405 1.409 . S
C1399 H1391 0.930 . S
C1399 C1397 1.419 . S
C1399 C1400 1.362 . S
C1400 H1392 0.930 . S
C1400 C1399 1.362 . S
C1400 C1403 1.409 . S
C1401 H1393 0.930 . S
C1401 C1402 1.355 . S
C1401 C1403 1.415 . S
C1402 C1401 1.355 . S
C1402 C1404 1.419 . S
C1403 C1398 1.425 . S
C1403 C1400 1.409 . S
C1403 C1401 1.415 . S
C1404 H1394 0.930 . S
C1404 C1402 1.419 . S
C1404 C1405 1.362 . S
C1405 H1395 0.930 . S
C1405 C1398 1.409 . S
C1405 C1404 1.362 . S
H1406 C1412 0.930 . S
H1407 C1415 0.930 . S
H1408 C1416 0.930 . S
H1409 C1417 0.930 . S
H1410 C1420 0.930 . S
H1411 C1421 0.930 . S
C1412 H1406 0.930 . S
C1412 C1413 1.355 . S
C1412 C1414 1.415 . S
C1413 C1412 1.355 . S
C1413 C1415 1.419 . S
C1414 C1412 1.415 . S
C1414 C1419 1.425 . S
C1414 C1421 1.409 . S
C1415 H1407 0.930 . S
C1415 C1413 1.419 . S
C1415 C1416 1.362 . S
C1416 H1408 0.930 . S
C1416 C1415 1.362 . S
C1416 C1419 1.409 . S
C1417 H1409 0.930 . S
C1417 C1418 1.355 . S
C1417 C1419 1.415 . S
C1418 C1417 1.355 . S
C1418 C1420 1.419 . S
C1419 C1414 1.425 . S
C1419 C1416 1.409 . S
C1419 C1417 1.415 . S
C1420 H1410 0.930 . S
C1420 C1418 1.419 . S
C1420 C1421 1.362 . S
C1421 H1411 0.930 . S
C1421 C1414 1.409 . S
C1421 C1420 1.362 . S
H1422 C1428 0.930 . S
H1423 C1431 0.930 . S
H1424 C1432 0.930 1_545 S
H1425 C1433 0.930 . S
H1426 C1436 0.930 . S
H1427 C1437 0.930 1_565 S
C1428 H1422 0.930 . S
C1428 C1429 1.355 . S
C1428 C1430 1.415 . S
C1429 C1428 1.355 . S
C1429 C1431 1.419 . S
C1430 C1428 1.415 . S
C1430 C1435 1.425 1_565 S
C1430 C1437 1.409 1_565 S
C1431 H1423 0.930 . S
C1431 C1429 1.419 . S
C1431 C1432 1.362 . S
C1432 H1424 0.930 1_565 S
C1432 C1431 1.362 . S
C1432 C1435 1.409 1_565 S
C1433 H1425 0.930 . S
C1433 C1434 1.355 . S
C1433 C1435 1.415 . S
C1434 C1433 1.355 . S
C1434 C1436 1.419 . S
C1435 C1430 1.425 1_545 S
C1435 C1432 1.409 1_545 S
C1435 C1433 1.415 . S
C1436 H1426 0.930 . S
C1436 C1434 1.419 . S
C1436 C1437 1.362 . S
C1437 H1427 0.930 1_545 S
C1437 C1430 1.409 1_545 S
C1437 C1436 1.362 . S
H1438 C1444 0.930 . S
H1439 C1447 0.930 . S
H1440 C1448 0.930 . S
H1441 C1449 0.930 . S
H1442 C1452 0.930 . S
H1443 C1453 0.930 . S
C1444 H1438 0.930 . S
C1444 C1445 1.355 . S
C1444 C1446 1.415 1_455 S
C1445 C1444 1.355 . S
C1445 C1447 1.419 . S
C1446 C1444 1.415 1_655 S
C1446 C1451 1.425 1_655 S
C1446 C1453 1.409 . S
C1447 H1439 0.930 . S
C1447 C1445 1.419 . S
C1447 C1448 1.362 . S
C1448 H1440 0.930 . S
C1448 C1447 1.362 . S
C1448 C1451 1.409 . S
C1449 H1441 0.930 . S
C1449 C1450 1.355 . S
C1449 C1451 1.415 1_655 S
C1450 C1449 1.355 . S
C1450 C1452 1.419 . S
C1451 C1446 1.425 1_455 S
C1451 C1448 1.409 . S
C1451 C1449 1.415 1_455 S
C1452 H1442 0.930 . S
C1452 C1450 1.419 . S
C1452 C1453 1.362 . S
C1453 H1443 0.930 . S
C1453 C1446 1.409 . S
C1453 C1452 1.362 . S
H1454 C1460 0.930 . S
H1455 C1463 0.930 . S
H1456 C1464 0.930 . S
H1457 C1465 0.930 . S
H1458 C1468 0.930 . S
H1459 C1469 0.930 . S
C1460 H1454 0.930 . S
C1460 C1461 1.355 . S
C1460 C1462 1.415 . S
C1461 C1460 1.355 . S
C1461 C1463 1.419 . S
C1462 C1460 1.415 . S
C1462 C1467 1.425 . S
C1462 C1469 1.409 . S
C1463 H1455 0.930 . S
C1463 C1461 1.419 . S
C1463 C1464 1.362 . S
C1464 H1456 0.930 . S
C1464 C1463 1.362 . S
C1464 C1467 1.409 . S
C1465 H1457 0.930 . S
C1465 C1466 1.355 . S
C1465 C1467 1.415 . S
C1466 C1465 1.355 . S
C1466 C1468 1.419 . S
C1467 C1462 1.425 . S
C1467 C1464 1.409 . S
C1467 C1465 1.415 . S
C1468 H1458 0.930 . S
C1468 C1466 1.419 . S
C1468 C1469 1.362 . S
C1469 H1459 0.930 . S
C1469 C1462 1.409 . S
C1469 C1468 1.362 . S
H1470 C1476 0.927 . S
H1471 C1479 0.930 . S
H1472 C1480 0.930 . S
H1473 C1481 0.930 . S
H1474 C1484 0.930 . S
H1475 C1485 0.930 . S
C1476 H1470 0.927 . S
C1476 C1477 1.351 1_655 S
C1476 C1478 1.415 . S
C1477 C1476 1.351 1_455 S
C1477 C1479 1.411 1_455 S
C1478 C1476 1.415 . S
C1478 C1483 1.425 . S
C1478 C1485 1.409 . S
C1479 H1471 0.930 . S
C1479 C1477 1.411 1_655 S
C1479 C1480 1.362 . S
C1480 H1472 0.930 . S
C1480 C1479 1.362 . S
C1480 C1483 1.409 . S
C1481 H1473 0.930 . S
C1481 C1482 1.355 . S
C1481 C1483 1.415 . S
C1482 C1481 1.355 . S
C1482 C1484 1.419 . S
C1483 C1478 1.425 . S
C1483 C1480 1.409 . S
C1483 C1481 1.415 . S
C1484 H1474 0.930 . S
C1484 C1482 1.419 . S
C1484 C1485 1.362 . S
C1485 H1475 0.930 . S
C1485 C1478 1.409 . S
C1485 C1484 1.362 . S
H1486 C1492 0.930 . S
H1487 C1495 0.930 . S
H1488 C1496 0.930 . S
H1489 C1497 0.930 . S
H1490 C1500 0.930 . S
H1491 C1501 0.930 . S
C1492 H1486 0.930 . S
C1492 C1493 1.355 . S
C1492 C1494 1.415 . S
C1493 C1492 1.355 . S
C1493 C1495 1.419 . S
C1494 C1492 1.415 . S
C1494 C1499 1.425 . S
C1494 C1501 1.409 . S
C1495 H1487 0.930 . S
C1495 C1493 1.419 . S
C1495 C1496 1.362 . S
C1496 H1488 0.930 . S
C1496 C1495 1.362 . S
C1496 C1499 1.409 . S
C1497 H1489 0.930 . S
C1497 C1498 1.355 . S
C1497 C1499 1.415 . S
C1498 C1497 1.355 . S
C1498 C1500 1.419 . S
C1499 C1494 1.425 . S
C1499 C1496 1.409 . S
C1499 C1497 1.415 . S
C1500 H1490 0.930 . S
C1500 C1498 1.419 . S
C1500 C1501 1.362 . S
C1501 H1491 0.930 . S
C1501 C1494 1.409 . S
C1501 C1500 1.362 . S
H1502 C1508 0.930 . S
H1503 C1511 0.930 . S
H1504 C1512 0.930 . S
H1505 C1513 0.930 . S
H1506 C1516 0.930 . S
H1507 C1517 0.930 . S
C1508 H1502 0.930 . S
C1508 C1509 1.355 1_545 S
C1508 C1510 1.415 . S
C1509 C1508 1.355 1_565 S
C1509 C1511 1.419 1_565 S
C1510 C1508 1.415 . S
C1510 C1515 1.425 . S
C1510 C1517 1.409 . S
C1511 H1503 0.930 . S
C1511 C1509 1.419 1_545 S
C1511 C1512 1.362 . S
C1512 H1504 0.930 . S
C1512 C1511 1.362 . S
C1512 C1515 1.409 . S
C1513 H1505 0.930 . S
C1513 C1514 1.355 . S
C1513 C1515 1.415 . S
C1514 C1513 1.355 . S
C1514 C1516 1.419 . S
C1515 C1510 1.425 . S
C1515 C1512 1.409 . S
C1515 C1513 1.415 . S
C1516 H1506 0.930 . S
C1516 C1514 1.419 . S
C1516 C1517 1.362 . S
C1517 H1507 0.930 . S
C1517 C1510 1.409 . S
C1517 C1516 1.362 . S
H1518 C1524 0.930 . S
H1519 C1527 0.930 . S
H1520 C1528 0.930 . S
H1521 C1529 0.930 . S
H1522 C1532 0.930 . S
H1523 C1533 0.930 . S
C1524 H1518 0.930 . S
C1524 C1525 1.355 . S
C1524 C1526 1.415 . S
C1525 C1524 1.355 . S
C1525 C1527 1.419 . S
C1526 C1524 1.415 . S
C1526 C1531 1.425 . S
C1526 C1533 1.409 . S
C1527 H1519 0.930 . S
C1527 C1525 1.419 . S
C1527 C1528 1.362 . S
C1528 H1520 0.930 . S
C1528 C1527 1.362 . S
C1528 C1531 1.409 . S
C1529 H1521 0.930 . S
C1529 C1530 1.355 . S
C1529 C1531 1.415 . S
C1530 C1529 1.355 . S
C1530 C1532 1.419 . S
C1531 C1526 1.425 . S
C1531 C1528 1.409 . S
C1531 C1529 1.415 . S
C1532 H1522 0.930 . S
C1532 C1530 1.419 . S
C1532 C1533 1.362 . S
C1533 H1523 0.930 . S
C1533 C1526 1.409 . S
C1533 C1532 1.362 . S
H1534 C1540 0.930 . S
H1535 C1543 0.930 . S
H1536 C1544 0.930 . S
H1537 C1545 0.930 . S
H1538 C1548 0.930 . S
H1539 C1549 0.930 . S
C1540 H1534 0.930 . S
C1540 C1541 1.355 . S
C1540 C1542 1.415 . S
C1541 C1540 1.355 . S
C1541 C1543 1.419 . S
C1542 C1540 1.415 . S
C1542 C1547 1.425 . S
C1542 C1549 1.409 . S
C1543 H1535 0.930 . S
C1543 C1541 1.419 . S
C1543 C1544 1.362 . S
C1544 H1536 0.930 . S
C1544 C1543 1.362 . S
C1544 C1547 1.409 . S
C1545 H1537 0.930 . S
C1545 C1546 1.355 . S
C1545 C1547 1.415 . S
C1546 C1545 1.355 . S
C1546 C1548 1.419 . S
C1547 C1542 1.425 . S
C1547 C1544 1.409 . S
C1547 C1545 1.415 . S
C1548 H1538 0.930 . S
C1548 C1546 1.419 . S
C1548 C1549 1.362 . S
C1549 H1539 0.930 . S
C1549 C1542 1.409 . S
C1549 C1548 1.362 . S
H1550 C1556 0.930 . S
H1551 C1559 0.930 . S
H1552 C1560 0.930 . S
H1553 C1561 0.930 . S
H1554 C1564 0.930 . S
H1555 C1565 0.930 . S
C1556 H1550 0.930 . S
C1556 C1557 1.355 . S
C1556 C1558 1.415 . S
C1557 C1556 1.355 . S
C1557 C1559 1.419 . S
C1558 C1556 1.415 . S
C1558 C1563 1.425 . S
C1558 C1565 1.409 . S
C1559 H1551 0.930 . S
C1559 C1557 1.419 . S
C1559 C1560 1.362 . S
C1560 H1552 0.930 . S
C1560 C1559 1.362 . S
C1560 C1563 1.409 . S
C1561 H1553 0.930 . S
C1561 C1562 1.355 . S
C1561 C1563 1.415 . S
C1562 C1561 1.355 . S
C1562 C1564 1.419 . S
C1563 C1558 1.425 . S
C1563 C1560 1.409 . S
C1563 C1561 1.415 . S
C1564 H1554 0.930 . S
C1564 C1562 1.419 . S
C1564 C1565 1.362 . S
C1565 H1555 0.930 . S
C1565 C1558 1.409 . S
C1565 C1564 1.362 . S
H1566 C1572 0.930 . S
H1567 C1575 0.930 . S
H1568 C1576 0.930 . S
H1569 C1577 0.930 . S
H1570 C1580 0.930 . S
H1571 C1581 0.930 . S
C1572 H1566 0.930 . S
C1572 C1573 1.355 . S
C1572 C1574 1.415 . S
C1573 C1572 1.355 . S
C1573 C1575 1.419 . S
C1574 C1572 1.415 . S
C1574 C1579 1.425 . S
C1574 C1581 1.409 . S
C1575 H1567 0.930 . S
C1575 C1573 1.419 . S
C1575 C1576 1.362 . S
C1576 H1568 0.930 . S
C1576 C1575 1.362 . S
C1576 C1579 1.409 . S
C1577 H1569 0.930 . S
C1577 C1578 1.355 . S
C1577 C1579 1.415 . S
C1578 C1577 1.355 . S
C1578 C1580 1.419 . S
C1579 C1574 1.425 . S
C1579 C1576 1.409 . S
C1579 C1577 1.415 . S
C1580 H1570 0.930 . S
C1580 C1578 1.419 . S
C1580 C1581 1.362 . S
C1581 H1571 0.930 . S
C1581 C1574 1.409 . S
C1581 C1580 1.362 . S
H1582 C1588 0.930 . S
H1583 C1591 0.930 . S
H1584 C1592 0.930 . S
H1585 C1593 0.930 . S
H1586 C1596 0.930 . S
H1587 C1597 0.930 . S
C1588 H1582 0.930 . S
C1588 C1589 1.355 . S
C1588 C1590 1.415 . S
C1589 C1588 1.355 . S
C1589 C1591 1.419 . S
C1590 C1588 1.415 . S
C1590 C1595 1.425 . S
C1590 C1597 1.409 . S
C1591 H1583 0.930 . S
C1591 C1589 1.419 . S
C1591 C1592 1.362 . S
C1592 H1584 0.930 . S
C1592 C1591 1.362 . S
C1592 C1595 1.409 . S
C1593 H1585 0.930 . S
C1593 C1594 1.355 . S
C1593 C1595 1.415 . S
C1594 C1593 1.355 . S
C1594 C1596 1.419 . S
C1595 C1590 1.425 . S
C1595 C1592 1.409 . S
C1595 C1593 1.415 . S
C1596 H1586 0.930 . S
C1596 C1594 1.419 . S
C1596 C1597 1.362 . S
C1597 H1587 0.930 . S
C1597 C1590 1.409 . S
C1597 C1596 1.362 . S
H1598 C1604 0.930 . S
H1599 C1607 0.930 . S
H1600 C1608 0.930 . S
H1601 C1609 0.930 . S
H1602 C1612 0.930 . S
H1603 C1613 0.930 . S
C1604 H1598 0.930 . S
C1604 C1605 1.355 . S
C1604 C1606 1.415 . S
C1605 C1604 1.355 . S
C1605 C1607 1.419 . S
C1606 C1604 1.415 . S
C1606 C1611 1.425 . S
C1606 C1613 1.409 . S
C1607 H1599 0.930 . S
C1607 C1605 1.419 . S
C1607 C1608 1.362 . S
C1608 H1600 0.930 . S
C1608 C1607 1.362 . S
C1608 C1611 1.409 . S
C1609 H1601 0.930 . S
C1609 C1610 1.355 . S
C1609 C1611 1.415 . S
C1610 C1609 1.355 . S
C1610 C1612 1.419 . S
C1611 C1606 1.425 . S
C1611 C1608 1.409 . S
C1611 C1609 1.415 . S
C1612 H1602 0.930 . S
C1612 C1610 1.419 . S
C1612 C1613 1.362 . S
C1613 H1603 0.930 . S
C1613 C1606 1.409 . S
C1613 C1612 1.362 . S
H1614 C1620 0.930 . S
H1615 C1623 0.930 . S
H1616 C1624 0.930 . S
H1617 C1625 0.930 . S
H1618 C1628 0.930 . S
H1619 C1629 0.930 . S
C1620 H1614 0.930 . S
C1620 C1621 1.355 . S
C1620 C1622 1.415 . S
C1621 C1620 1.355 . S
C1621 C1623 1.419 . S
C1622 C1620 1.415 . S
C1622 C1627 1.425 . S
C1622 C1629 1.409 . S
C1623 H1615 0.930 . S
C1623 C1621 1.419 . S
C1623 C1624 1.362 . S
C1624 H1616 0.930 . S
C1624 C1623 1.362 . S
C1624 C1627 1.409 . S
C1625 H1617 0.930 . S
C1625 C1626 1.355 . S
C1625 C1627 1.415 . S
C1626 C1625 1.355 . S
C1626 C1628 1.419 . S
C1627 C1622 1.425 . S
C1627 C1624 1.409 . S
C1627 C1625 1.415 . S
C1628 H1618 0.930 . S
C1628 C1626 1.419 . S
C1628 C1629 1.362 . S
C1629 H1619 0.930 . S
C1629 C1622 1.409 . S
C1629 C1628 1.362 . S
H1630 C1636 0.930 . S
H1631 C1639 0.930 . S
H1632 C1640 0.930 . S
H1633 C1641 0.930 . S
H1634 C1644 0.930 . S
H1635 C1645 0.930 . S
C1636 H1630 0.930 . S
C1636 C1637 1.355 . S
C1636 C1638 1.415 . S
C1637 C1636 1.355 . S
C1637 C1639 1.419 . S
C1638 C1636 1.415 . S
C1638 C1643 1.425 . S
C1638 C1645 1.409 . S
C1639 H1631 0.930 . S
C1639 C1637 1.419 . S
C1639 C1640 1.362 . S
C1640 H1632 0.930 . S
C1640 C1639 1.362 . S
C1640 C1643 1.409 . S
C1641 H1633 0.930 . S
C1641 C1642 1.355 . S
C1641 C1643 1.415 . S
C1642 C1641 1.355 . S
C1642 C1644 1.419 . S
C1643 C1638 1.425 . S
C1643 C1640 1.409 . S
C1643 C1641 1.415 . S
C1644 H1634 0.930 . S
C1644 C1642 1.419 . S
C1644 C1645 1.362 . S
C1645 H1635 0.930 . S
C1645 C1638 1.409 . S
C1645 C1644 1.362 . S
H1646 C1652 0.930 . S
H1647 C1655 0.930 . S
H1648 C1656 0.930 . S
H1649 C1657 0.930 . S
H1650 C1660 0.930 . S
H1651 C1661 0.930 . S
C1652 H1646 0.930 . S
C1652 C1653 1.355 . S
C1652 C1654 1.415 . S
C1653 C1652 1.355 . S
C1653 C1655 1.419 . S
C1654 C1652 1.415 . S
C1654 C1659 1.425 . S
C1654 C1661 1.409 . S
C1655 H1647 0.930 . S
C1655 C1653 1.419 . S
C1655 C1656 1.362 . S
C1656 H1648 0.930 . S
C1656 C1655 1.362 . S
C1656 C1659 1.409 . S
C1657 H1649 0.930 . S
C1657 C1658 1.355 . S
C1657 C1659 1.415 . S
C1658 C1657 1.355 . S
C1658 C1660 1.419 . S
C1659 C1654 1.425 . S
C1659 C1656 1.409 . S
C1659 C1657 1.415 . S
C1660 H1650 0.930 . S
C1660 C1658 1.419 . S
C1660 C1661 1.362 . S
C1661 H1651 0.930 . S
C1661 C1654 1.409 . S
C1661 C1660 1.362 . S
H1662 C1668 0.930 . S
H1663 C1671 0.930 . S
H1664 C1672 0.930 . S
H1665 C1673 0.930 . S
H1666 C1676 0.930 . S
H1667 C1677 0.930 . S
C1668 H1662 0.930 . S
C1668 C1669 1.355 . S
C1668 C1670 1.415 . S
C1669 C1668 1.355 . S
C1669 C1671 1.419 . S
C1670 C1668 1.415 . S
C1670 C1675 1.425 . S
C1670 C1677 1.409 . S
C1671 H1663 0.930 . S
C1671 C1669 1.419 . S
C1671 C1672 1.362 . S
C1672 H1664 0.930 . S
C1672 C1671 1.362 . S
C1672 C1675 1.409 . S
C1673 H1665 0.930 . S
C1673 C1674 1.355 . S
C1673 C1675 1.415 . S
C1674 C1673 1.355 . S
C1674 C1676 1.419 . S
C1675 C1670 1.425 . S
C1675 C1672 1.409 . S
C1675 C1673 1.415 . S
C1676 H1666 0.930 . S
C1676 C1674 1.419 . S
C1676 C1677 1.362 . S
C1677 H1667 0.930 . S
C1677 C1670 1.409 . S
C1677 C1676 1.362 . S
H1678 C1684 0.930 . S
H1679 C1687 0.930 . S
H1680 C1688 0.930 . S
H1681 C1689 0.930 . S
H1682 C1692 0.930 . S
H1683 C1693 0.930 . S
C1684 H1678 0.930 . S
C1684 C1685 1.355 . S
C1684 C1686 1.415 . S
C1685 C1684 1.355 . S
C1685 C1687 1.419 . S
C1686 C1684 1.415 . S
C1686 C1691 1.425 . S
C1686 C1693 1.409 . S
C1687 H1679 0.930 . S
C1687 C1685 1.419 . S
C1687 C1688 1.362 . S
C1688 H1680 0.930 . S
C1688 C1687 1.362 . S
C1688 C1691 1.409 . S
C1689 H1681 0.930 . S
C1689 C1690 1.355 . S
C1689 C1691 1.415 . S
C1690 C1689 1.355 . S
C1690 C1692 1.419 . S
C1691 C1686 1.425 . S
C1691 C1688 1.409 . S
C1691 C1689 1.415 . S
C1692 H1682 0.930 . S
C1692 C1690 1.419 . S
C1692 C1693 1.362 . S
C1693 H1683 0.930 . S
C1693 C1686 1.409 . S
C1693 C1692 1.362 . S
H1694 C1700 0.930 . S
H1695 C1703 0.930 . S
H1696 C1704 0.930 . S
H1697 C1705 0.930 . S
H1698 C1708 0.930 . S
H1699 C1709 0.930 . S
C1700 H1694 0.930 . S
C1700 C1701 1.355 . S
C1700 C1702 1.415 . S
C1701 C1700 1.355 . S
C1701 C1703 1.419 . S
C1702 C1700 1.415 . S
C1702 C1707 1.425 . S
C1702 C1709 1.409 . S
C1703 H1695 0.930 . S
C1703 C1701 1.419 . S
C1703 C1704 1.362 . S
C1704 H1696 0.930 . S
C1704 C1703 1.362 . S
C1704 C1707 1.409 . S
C1705 H1697 0.930 . S
C1705 C1706 1.355 . S
C1705 C1707 1.415 . S
C1706 C1705 1.355 . S
C1706 C1708 1.419 . S
C1707 C1702 1.425 . S
C1707 C1704 1.409 . S
C1707 C1705 1.415 . S
C1708 H1698 0.930 . S
C1708 C1706 1.419 . S
C1708 C1709 1.362 . S
C1709 H1699 0.930 . S
C1709 C1702 1.409 . S
C1709 C1708 1.362 . S
H1710 C1716 0.930 . S
H1711 C1719 0.930 . S
H1712 C1720 0.930 . S
H1713 C1721 0.930 . S
H1714 C1724 0.930 . S
H1715 C1725 0.930 . S
C1716 H1710 0.930 . S
C1716 C1717 1.355 . S
C1716 C1718 1.415 . S
C1717 C1716 1.355 . S
C1717 C1719 1.419 . S
C1718 C1716 1.415 . S
C1718 C1723 1.425 . S
C1718 C1725 1.409 . S
C1719 H1711 0.930 . S
C1719 C1717 1.419 . S
C1719 C1720 1.362 . S
C1720 H1712 0.930 . S
C1720 C1719 1.362 . S
C1720 C1723 1.409 . S
C1721 H1713 0.930 . S
C1721 C1722 1.355 . S
C1721 C1723 1.415 . S
C1722 C1721 1.355 . S
C1722 C1724 1.419 . S
C1723 C1718 1.425 . S
C1723 C1720 1.409 . S
C1723 C1721 1.415 . S
C1724 H1714 0.930 . S
C1724 C1722 1.419 . S
C1724 C1725 1.362 . S
C1725 H1715 0.930 . S
C1725 C1718 1.409 . S
C1725 C1724 1.362 . S
H1726 C1732 0.930 . S
H1727 C1735 0.930 . S
H1728 C1736 0.930 . S
H1729 C1737 0.930 . S
H1730 C1740 0.930 . S
H1731 C1741 0.930 . S
C1732 H1726 0.930 . S
C1732 C1733 1.355 . S
C1732 C1734 1.415 . S
C1733 C1732 1.355 . S
C1733 C1735 1.419 . S
C1734 C1732 1.415 . S
C1734 C1739 1.425 . S
C1734 C1741 1.409 . S
C1735 H1727 0.930 . S
C1735 C1733 1.419 . S
C1735 C1736 1.362 . S
C1736 H1728 0.930 . S
C1736 C1735 1.362 . S
C1736 C1739 1.409 . S
C1737 H1729 0.930 . S
C1737 C1738 1.355 . S
C1737 C1739 1.415 . S
C1738 C1737 1.355 . S
C1738 C1740 1.419 . S
C1739 C1734 1.425 . S
C1739 C1736 1.409 . S
C1739 C1737 1.415 . S
C1740 H1730 0.930 . S
C1740 C1738 1.419 . S
C1740 C1741 1.362 . S
C1741 H1731 0.930 . S
C1741 C1734 1.409 . S
C1741 C1740 1.362 . S
H1742 C1748 0.930 . S
H1743 C1751 0.930 . S
H1744 C1752 0.930 . S
H1745 C1753 0.930 . S
H1746 C1756 0.930 . S
H1747 C1757 0.930 . S
C1748 H1742 0.930 . S
C1748 C1749 1.355 . S
C1748 C1750 1.415 . S
C1749 C1748 1.355 . S
C1749 C1751 1.419 . S
C1750 C1748 1.415 . S
C1750 C1755 1.425 . S
C1750 C1757 1.409 . S
C1751 H1743 0.930 . S
C1751 C1749 1.419 . S
C1751 C1752 1.362 . S
C1752 H1744 0.930 . S
C1752 C1751 1.362 . S
C1752 C1755 1.409 . S
C1753 H1745 0.930 . S
C1753 C1754 1.355 . S
C1753 C1755 1.415 . S
C1754 C1753 1.355 . S
C1754 C1756 1.419 . S
C1755 C1750 1.425 . S
C1755 C1752 1.409 . S
C1755 C1753 1.415 . S
C1756 H1746 0.930 . S
C1756 C1754 1.419 . S
C1756 C1757 1.362 . S
C1757 H1747 0.930 . S
C1757 C1750 1.409 . S
C1757 C1756 1.362 . S
H1758 C1764 0.930 . S
H1759 C1767 0.930 . S
H1760 C1768 0.930 . S
H1761 C1769 0.930 . S
H1762 C1772 0.930 . S
H1763 C1773 0.930 . S
C1764 H1758 0.930 . S
C1764 C1765 1.355 . S
C1764 C1766 1.415 . S
C1765 C1764 1.355 . S
C1765 C1767 1.419 . S
C1766 C1764 1.415 . S
C1766 C1771 1.425 . S
C1766 C1773 1.409 . S
C1767 H1759 0.930 . S
C1767 C1765 1.419 . S
C1767 C1768 1.362 . S
C1768 H1760 0.930 . S
C1768 C1767 1.362 . S
C1768 C1771 1.409 . S
C1769 H1761 0.930 . S
C1769 C1770 1.355 . S
C1769 C1771 1.415 . S
C1770 C1769 1.355 . S
C1770 C1772 1.419 . S
C1771 C1766 1.425 . S
C1771 C1768 1.409 . S
C1771 C1769 1.415 . S
C1772 H1762 0.930 . S
C1772 C1770 1.419 . S
C1772 C1773 1.362 . S
C1773 H1763 0.930 . S
C1773 C1766 1.409 . S
C1773 C1772 1.362 . S
H1774 C1780 0.930 . S
H1775 C1783 0.930 . S
H1776 C1784 0.930 . S
H1777 C1785 0.930 . S
H1778 C1788 0.930 . S
H1779 C1789 0.930 . S
C1780 H1774 0.930 . S
C1780 C1781 1.355 . S
C1780 C1782 1.415 . S
C1781 C1780 1.355 . S
C1781 C1783 1.419 . S
C1782 C1780 1.415 . S
C1782 C1787 1.425 . S
C1782 C1789 1.409 . S
C1783 H1775 0.930 . S
C1783 C1781 1.419 . S
C1783 C1784 1.362 . S
C1784 H1776 0.930 . S
C1784 C1783 1.362 . S
C1784 C1787 1.409 . S
C1785 H1777 0.930 . S
C1785 C1786 1.355 . S
C1785 C1787 1.415 . S
C1786 C1785 1.355 . S
C1786 C1788 1.419 . S
C1787 C1782 1.425 . S
C1787 C1784 1.409 . S
C1787 C1785 1.415 . S
C1788 H1778 0.930 . S
C1788 C1786 1.419 . S
C1788 C1789 1.362 . S
C1789 H1779 0.930 . S
C1789 C1782 1.409 . S
C1789 C1788 1.362 . S
H1790 C1796 0.930 . S
H1791 C1799 0.930 . S
H1792 C1800 0.930 . S
H1793 C1801 0.930 . S
H1794 C1804 0.930 . S
H1795 C1805 0.930 . S
C1796 H1790 0.930 . S
C1796 C1797 1.355 . S
C1796 C1798 1.415 . S
C1797 C1796 1.355 . S
C1797 C1799 1.419 . S
C1798 C1796 1.415 . S
C1798 C1803 1.425 . S
C1798 C1805 1.409 . S
C1799 H1791 0.930 . S
C1799 C1797 1.419 . S
C1799 C1800 1.362 . S
C1800 H1792 0.930 . S
C1800 C1799 1.362 . S
C1800 C1803 1.409 . S
C1801 H1793 0.930 . S
C1801 C1802 1.355 . S
C1801 C1803 1.415 . S
C1802 C1801 1.355 . S
C1802 C1804 1.419 . S
C1803 C1798 1.425 . S
C1803 C1800 1.409 . S
C1803 C1801 1.415 . S
C1804 H1794 0.930 . S
C1804 C1802 1.419 . S
C1804 C1805 1.362 . S
C1805 H1795 0.930 . S
C1805 C1798 1.409 . S
C1805 C1804 1.362 . S
H1806 C1812 0.930 . S
H1807 C1815 0.930 . S
H1808 C1816 0.930 . S
H1809 C1817 0.930 . S
H1810 C1820 0.930 . S
H1811 C1821 0.930 . S
C1812 H1806 0.930 . S
C1812 C1813 1.355 . S
C1812 C1814 1.415 . S
C1813 C1812 1.355 . S
C1813 C1815 1.419 . S
C1814 C1812 1.415 . S
C1814 C1819 1.425 . S
C1814 C1821 1.409 . S
C1815 H1807 0.930 . S
C1815 C1813 1.419 . S
C1815 C1816 1.362 . S
C1816 H1808 0.930 . S
C1816 C1815 1.362 . S
C1816 C1819 1.409 . S
C1817 H1809 0.930 . S
C1817 C1818 1.355 . S
C1817 C1819 1.415 . S
C1818 C1817 1.355 . S
C1818 C1820 1.419 . S
C1819 C1814 1.425 . S
C1819 C1816 1.409 . S
C1819 C1817 1.415 . S
C1820 H1810 0.930 . S
C1820 C1818 1.419 . S
C1820 C1821 1.362 . S
C1821 H1811 0.930 . S
C1821 C1814 1.409 . S
C1821 C1820 1.362 . S
H1822 C1828 0.930 . S
H1823 C1831 0.930 . S
H1824 C1832 0.930 . S
H1825 C1833 0.930 . S
H1826 C1836 0.930 . S
H1827 C1837 0.930 . S
C1828 H1822 0.930 . S
C1828 C1829 1.355 . S
C1828 C1830 1.415 . S
C1829 C1828 1.355 . S
C1829 C1831 1.419 . S
C1830 C1828 1.415 . S
C1830 C1835 1.425 . S
C1830 C1837 1.409 . S
C1831 H1823 0.930 . S
C1831 C1829 1.419 . S
C1831 C1832 1.362 . S
C1832 H1824 0.930 . S
C1832 C1831 1.362 . S
C1832 C1835 1.409 . S
C1833 H1825 0.930 . S
C1833 C1834 1.355 . S
C1833 C1835 1.415 . S
C1834 C1833 1.355 . S
C1834 C1836 1.419 . S
C1835 C1830 1.425 . S
C1835 C1832 1.409 . S
C1835 C1833 1.415 . S
C1836 H1826 0.930 . S
C1836 C1834 1.419 . S
C1836 C1837 1.362 . S
C1837 H1827 0.930 . S
C1837 C1830 1.409 . S
C1837 C1836 1.362 . S
H1838 C1844 0.930 . S
H1839 C1847 0.930 . S
H1840 C1848 0.930 . S
H1841 C1849 0.930 . S
H1842 C1852 0.930 . S
H1843 C1853 0.930 . S
C1844 H1838 0.930 . S
C1844 C1845 1.355 . S
C1844 C1846 1.415 . S
C1845 C1844 1.355 . S
C1845 C1847 1.419 . S
C1846 C1844 1.415 . S
C1846 C1851 1.425 . S
C1846 C1853 1.409 . S
C1847 H1839 0.930 . S
C1847 C1845 1.419 . S
C1847 C1848 1.362 . S
C1848 H1840 0.930 . S
C1848 C1847 1.362 . S
C1848 C1851 1.409 . S
C1849 H1841 0.930 . S
C1849 C1850 1.355 . S
C1849 C1851 1.415 . S
C1850 C1849 1.355 . S
C1850 C1852 1.419 . S
C1851 C1846 1.425 . S
C1851 C1848 1.409 . S
C1851 C1849 1.415 . S
C1852 H1842 0.930 . S
C1852 C1850 1.419 . S
C1852 C1853 1.362 . S
C1853 H1843 0.930 . S
C1853 C1846 1.409 . S
C1853 C1852 1.362 . S
C997 C177 1.446 . S
C1002 C301 1.439 . S
C1013 C190 1.474 . S
C1018 C385 1.439 . S
C1029 C164 1.466 . S
C1034 C465 1.447 . S
C1045 C151 1.440 . S
C1050 C381 1.451 . S
C1066 C469 1.348 . S
C1061 C125 1.451 . S
C1077 C138 1.428 . S
C1082 C297 1.417 . S
C1098 C290 1.482 . S
C1093 C147 1.417 . S
C1114 C374 1.487 . S
C1109 C121 1.447 . S
C1125 C134 1.505 . S
C1130 C476 1.489 . S
C1141 C173 1.471 . S
C1146 C392 1.469 . S
C1157 C186 1.386 . S
C1162 C458 1.461 . S
C1178 C308 1.467 . S
C1173 C160 1.436 . S
C1194 C553 1.369 . S
C1189 C21 1.468 . S
C1205 C34 1.471 . S
C1210 C637 1.456 . S
C1221 C8 1.465 . S
C1226 C717 1.442 . S
C1237 C229 1.436 . S
C1242 C633 1.419 . S
C1253 C203 1.441 . S
C1258 C721 1.421 . S
C1269 C216 1.409 . S
C1274 C549 1.424 . S
C1285 C225 1.417 . S
C1290 C542 1.480 . S
C1301 C199 1.465 . S
C1306 C626 1.476 . S
C1322 C728 1.512 . S
C1317 C212 1.476 . S
C1333 C17 1.417 . S
C1338 C644 1.487 . S
C1354 C710 1.449 . S
C1349 C30 1.402 1_455 S
C1365 C4 1.406 . S
C1370 C560 1.470 . S
C1386 C805 1.362 . S
C1381 C99 1.468 . S
C1397 C112 1.474 . S
C1402 C889 1.439 . S
C1418 C969 1.457 . S
C1413 C86 1.444 . S
C1434 C885 1.434 . S
C1429 C73 1.451 . S
C1450 C973 1.357 . S
C1445 C47 1.447 . S
C1461 C60 1.404 . S
C1466 C801 1.415 . S
C1477 C69 1.431 . S
C1482 C794 1.481 . S
C1493 C43 1.499 . S
C1498 C878 1.440 . S
C1514 C980 1.441 . S
C1509 C56 1.470 . S
C1525 C95 1.400 . S
C1530 C896 1.458 . S
C1541 C108 1.387 . S
C1546 C962 1.461 . S
C1557 C82 1.420 . S
C1562 C812 1.399 . S
C1573 C204 1.571 . S
C1578 C304 1.392 . S
C1594 C388 1.445 . S
C1589 C217 1.593 . S
C1605 C230 1.543 . S
C1610 C460 1.338 . S
C1621 C87 1.590 . S
C1626 C376 1.356 . S
C1637 C100 1.592 . S
C1642 C472 1.438 . S
C1658 C292 1.308 . S
C1653 C113 1.534 . S
C1669 C48 1.553 . S
C1674 C556 1.494 . S
C1685 C61 1.618 . S
C1690 C640 1.413 . S
C1701 C74 1.578 . S
C1706 C712 1.429 . S
C1717 C165 1.570 . S
C1722 C628 1.413 . S
C1738 C724 1.384 . S
C1733 C178 1.580 . S
C1749 C191 1.527 . S
C1754 C544 1.299 . S
C1765 C126 1.555 . S
C1770 C808 1.494 . S
C1781 C139 1.629 . S
C1786 C892 1.456 . S
C1802 C964 1.342 . S
C1797 C152 1.543 . S
C1813 C9 1.577 . S
C1818 C880 1.432 . S
C1829 C22 1.555 . S
C1834 C976 1.444 . S
C1845 C35 1.509 . S
C1850 C796 1.341 . S
