# Generated by pormake.
# Topology nom, (4,4)-cn, num edge types: 1
# Building blocks:
#     Node 0, Type 0, BuildingBlock: AZAVOO_clean_linker_0, # of connection points: 4
#     Node 1, Type 0, BuildingBlock: AZAVOO_clean_linker_0, # of connection points: 4
#     Node 2, Type 0, BuildingBlock: AZAVOO_clean_linker_0, # of connection points: 4
#     Node 3, Type 0, BuildingBlock: AZAVOO_clean_linker_0, # of connection points: 4
#     Node 4, Type 0, BuildingBlock: AZAVOO_clean_linker_0, # of connection points: 4
#     Node 5, Type 0, BuildingBlock: AZAVOO_clean_linker_0, # of connection points: 4
#     Node 6, Type 1, BuildingBlock: AZAVOO_clean_sbu_0, # of connection points: 4
#     Node 7, Type 1, BuildingBlock: AZAVOO_clean_sbu_0, # of connection points: 4
#     Node 8, Type 1, BuildingBlock: AZAVOO_clean_sbu_0, # of connection points: 4
#     Node 9, Type 1, BuildingBlock: AZAVOO_clean_sbu_0, # of connection points: 4
#     Node 10, Type 1, BuildingBlock: AZAVOO_clean_sbu_0, # of connection points: 4
#     Node 11, Type 1, BuildingBlock: AZAVOO_clean_sbu_0, # of connection points: 4
#     Edge 12, Type (0, 1), BuildingBlock: AJUNOK_clean_linker_0, # of connection points: 2
#     Edge 13, Type (0, 1), BuildingBlock: AJUNOK_clean_linker_0, # of connection points: 2
#     Edge 14, Type (0, 1), BuildingBlock: AJUNOK_clean_linker_0, # of connection points: 2
#     Edge 15, Type (0, 1), BuildingBlock: AJUNOK_clean_linker_0, # of connection points: 2
#     Edge 16, Type (0, 1), BuildingBlock: AJUNOK_clean_linker_0, # of connection points: 2
#     Edge 17, Type (0, 1), BuildingBlock: AJUNOK_clean_linker_0, # of connection points: 2
#     Edge 18, Type (0, 1), BuildingBlock: AJUNOK_clean_linker_0, # of connection points: 2
#     Edge 19, Type (0, 1), BuildingBlock: AJUNOK_clean_linker_0, # of connection points: 2
#     Edge 20, Type (0, 1), BuildingBlock: AJUNOK_clean_linker_0, # of connection points: 2
#     Edge 21, Type (0, 1), BuildingBlock: AJUNOK_clean_linker_0, # of connection points: 2
#     Edge 22, Type (0, 1), BuildingBlock: AJUNOK_clean_linker_0, # of connection points: 2
#     Edge 23, Type (0, 1), BuildingBlock: AJUNOK_clean_linker_0, # of connection points: 2
#     Edge 24, Type (0, 1), BuildingBlock: AJUNOK_clean_linker_0, # of connection points: 2
#     Edge 25, Type (0, 1), BuildingBlock: AJUNOK_clean_linker_0, # of connection points: 2
#     Edge 26, Type (0, 1), BuildingBlock: AJUNOK_clean_linker_0, # of connection points: 2
#     Edge 27, Type (0, 1), BuildingBlock: AJUNOK_clean_linker_0, # of connection points: 2
#     Edge 28, Type (0, 1), BuildingBlock: AJUNOK_clean_linker_0, # of connection points: 2
#     Edge 29, Type (0, 1), BuildingBlock: AJUNOK_clean_linker_0, # of connection points: 2
#     Edge 30, Type (0, 1), BuildingBlock: AJUNOK_clean_linker_0, # of connection points: 2
#     Edge 31, Type (0, 1), BuildingBlock: AJUNOK_clean_linker_0, # of connection points: 2
#     Edge 32, Type (0, 1), BuildingBlock: AJUNOK_clean_linker_0, # of connection points: 2
#     Edge 33, Type (0, 1), BuildingBlock: AJUNOK_clean_linker_0, # of connection points: 2
#     Edge 34, Type (0, 1), BuildingBlock: AJUNOK_clean_linker_0, # of connection points: 2
#     Edge 35, Type (0, 1), BuildingBlock: AJUNOK_clean_linker_0, # of connection points: 2
# Relax obj value: 0.206
# Max RMSD: 0.234
# Mean RMSD: 0.192
data_MOF--net-nom--node1-AZAVOO_clean_sbu_0--node2-AZAVOO_clean_linker_0--edge1-AJUNOK_clean_linker_0
_symmetry_space_group_name_H-M    P1
_symmetry_Int_Tables_number       1
_symmetry_cell_setting            triclinic
loop_
_symmetry_equiv_pos_as_xyz
'x, y, z'
_cell_length_a     37.550555
_cell_length_b     39.147298
_cell_length_c     44.983496
_cell_angle_alpha  90.887362
_cell_angle_beta   91.112551
_cell_angle_gamma 121.06582
loop_
_atom_site_label
_atom_site_type_symbol
_atom_site_fract_x
_atom_site_fract_y
_atom_site_fract_z
_atom_type_partial_charge
H0 H 0.06601 0.42383 0.12842 0.0
H1 H 0.28486 0.67004 0.41731 0.0
H2 H 0.97711 0.39602 0.28311 0.0
H3 H 0.93082 0.36224 0.23983 0.0
H4 H 0.92772 0.46883 0.22212 0.0
H5 H 0.97215 0.50158 0.26658 0.0
H6 H 0.07136 0.43791 0.25836 0.0
H7 H 0.07189 0.42331 0.20528 0.0
H8 H 0.04346 0.51417 0.18389 0.0
H9 H 0.04335 0.52862 0.23699 0.0
H10 H 0.16347 0.51256 0.30174 0.0
H11 H 0.23282 0.56777 0.28966 0.0
H12 H 0.17747 0.63239 0.2544 0.0
H13 H 0.10896 0.57834 0.26773 0.0
H14 H 0.13078 0.49258 0.36596 0.0
H15 H 0.1939 0.53205 0.39712 0.0
H16 H 0.20143 0.64031 0.36801 0.0
H17 H 0.13787 0.60044 0.3374 0.0
H18 H 0.04135 0.44761 0.38512 0.0
H19 H 0.07294 0.46261 0.43506 0.0
H20 H 0.09935 0.58353 0.4296 0.0
H21 H 0.06853 0.56843 0.37916 0.0
H22 H 0.93868 0.41154 0.33178 0.0
H23 H 0.87114 0.4055 0.33985 0.0
H24 H 0.93383 0.53163 0.36135 0.0
H25 H 0.00039 0.5381 0.35117 0.0
O26 O 0.0662 0.43044 0.14927 0.0
O27 O 0.04899 0.47571 0.13953 0.0
O28 O 0.25458 0.59717 0.41945 0.0
O29 O 0.26013 0.65373 0.40494 0.0
C30 C 0.016 0.47486 0.29728 0.0
C31 C 0.05498 0.49142 0.28369 0.0
C32 C 0.09189 0.51535 0.30057 0.0
C33 C 0.09045 0.51951 0.33159 0.0
C34 C 0.0517 0.50276 0.3455 0.0
C35 C 0.01417 0.48215 0.32811 0.0
C36 C 0.97804 0.45125 0.27797 0.0
C37 C 0.96494 0.41145 0.27064 0.0
C38 C 0.93921 0.39253 0.24553 0.0
C39 C 0.927 0.41343 0.22684 0.0
C40 C 0.93687 0.45201 0.23588 0.0
C41 C 0.96203 0.4707 0.2614 0.0
C42 C 0.05722 0.48421 0.25145 0.0
C43 C 0.06556 0.4548 0.24214 0.0
C44 C 0.06573 0.44646 0.21183 0.0
C45 C 0.05764 0.46753 0.19034 0.0
C46 C 0.04975 0.49735 0.19984 0.0
C47 C 0.04971 0.5057 0.23014 0.0
C48 C 0.13128 0.54152 0.28557 0.0
C49 C 0.16632 0.5381 0.29051 0.0
C50 C 0.20578 0.56957 0.28363 0.0
C51 C 0.2103 0.60436 0.2714 0.0
C52 C 0.17473 0.60601 0.26412 0.0
C53 C 0.13556 0.57492 0.27128 0.0
C54 C 0.12978 0.54367 0.34952 0.0
C55 C 0.14616 0.52482 0.36636 0.0
C56 C 0.18221 0.54743 0.38409 0.0
C57 C 0.20271 0.58936 0.38507 0.0
C58 C 0.18643 0.60812 0.36781 0.0
C59 C 0.15023 0.58545 0.35023 0.0
C60 C 0.0522 0.50672 0.37846 0.0
C61 C 0.05172 0.47666 0.39529 0.0
C62 C 0.07025 0.48549 0.42384 0.0
C63 C 0.08902 0.52444 0.43626 0.0
C64 C 0.08553 0.55338 0.42054 0.0
C65 C 0.06706 0.54453 0.39194 0.0
C66 C 0.97464 0.47539 0.34042 0.0
C67 C 0.93786 0.43775 0.33863 0.0
C68 C 0.89935 0.43426 0.34347 0.0
C69 C 0.89731 0.46831 0.3505 0.0
C70 C 0.93448 0.50507 0.35529 0.0
C71 C 0.97266 0.50867 0.3499 0.0
C72 C 0.05733 0.45828 0.15817 0.0
C73 C 0.2407 0.6135 0.40418 0.0
H74 H 0.55042 0.08124 0.29794 0.0
H75 H 0.53664 0.24422 0.60412 0.0
H76 H 0.55133 0.00629 0.4472 0.0
H77 H 0.55136 0.96449 0.40698 0.0
H78 H 0.41826 0.88651 0.4134 0.0
H79 H 0.41823 0.93136 0.45216 0.0
H80 H 0.56685 0.08516 0.42769 0.0
H81 H 0.5725 0.09142 0.37372 0.0
H82 H 0.43971 0.01015 0.36293 0.0
H83 H 0.43442 0.00465 0.41699 0.0
H84 H 0.58136 0.14225 0.47896 0.0
H85 H 0.60188 0.20369 0.45246 0.0
H86 H 0.47583 0.15248 0.41801 0.0
H87 H 0.45559 0.09105 0.44445 0.0
H88 H 0.57468 0.11029 0.54291 0.0
H89 H 0.59547 0.16709 0.57715 0.0
H90 H 0.48396 0.16734 0.55163 0.0
H91 H 0.46318 0.11002 0.51781 0.0
H92 H 0.54364 0.02056 0.55394 0.0
H93 H 0.56426 0.04112 0.60605 0.0
H94 H 0.46325 0.06293 0.61438 0.0
H95 H 0.44275 0.04225 0.56209 0.0
H96 H 0.50239 0.94233 0.50537 0.0
H97 H 0.4581 0.87178 0.51751 0.0
H98 H 0.35975 0.89289 0.5403 0.0
H99 H 0.4033 0.96264 0.52698 0.0
O100 O 0.54744 0.07852 0.31924 0.0
O101 O 0.47912 0.0363 0.31489 0.0
O102 O 0.58546 0.21969 0.60354 0.0
O103 O 0.52928 0.22195 0.59056 0.0
C104 C 0.48536 0.00351 0.47177 0.0
C105 C 0.49681 0.04056 0.45906 0.0
C106 C 0.50528 0.07363 0.47741 0.0
C107 C 0.5038 0.07002 0.50856 0.0
C108 C 0.48991 0.03232 0.52125 0.0
C109 C 0.47892 0.99852 0.5027 0.0
C110 C 0.4848 0.97205 0.4525 0.0
C111 C 0.52224 0.97971 0.44036 0.0
C112 C 0.52224 0.95528 0.41755 0.0
C113 C 0.48487 0.92158 0.40704 0.0
C114 C 0.44759 0.91235 0.42079 0.0
C115 C 0.44749 0.93765 0.44314 0.0
C116 C 0.5002 0.04467 0.42624 0.0
C117 C 0.53898 0.06903 0.41364 0.0
C118 C 0.54213 0.0724 0.3828 0.0
C119 C 0.50655 0.0513 0.364 0.0
C120 C 0.46773 0.02683 0.37676 0.0
C121 C 0.46461 0.0236 0.40761 0.0
C122 C 0.51694 0.11228 0.46376 0.0
C123 C 0.55804 0.14462 0.46616 0.0
C124 C 0.56967 0.17967 0.45107 0.0
C125 C 0.54036 0.18294 0.43333 0.0
C126 C 0.49906 0.15073 0.43145 0.0
C127 C 0.48744 0.11576 0.4466 0.0
C128 C 0.51735 0.10596 0.52801 0.0
C129 C 0.55481 0.12269 0.54474 0.0
C130 C 0.56662 0.15514 0.56426 0.0
C131 C 0.54132 0.17172 0.56718 0.0
C132 C 0.50413 0.15527 0.54996 0.0
C133 C 0.49224 0.12264 0.53054 0.0
C134 C 0.49186 0.03013 0.55415 0.0
C135 C 0.5247 0.02787 0.56737 0.0
C136 C 0.5366 0.03987 0.59714 0.0
C137 C 0.51561 0.05403 0.61417 0.0
C138 C 0.48018 0.05248 0.60166 0.0
C139 C 0.46816 0.04027 0.57193 0.0
C140 C 0.45596 0.95767 0.51485 0.0
C141 C 0.47137 0.93176 0.51315 0.0
C142 C 0.44605 0.89149 0.52012 0.0
C143 C 0.40498 0.87649 0.52908 0.0
C144 C 0.3907 0.90315 0.53253 0.0
C145 C 0.41584 0.94321 0.52537 0.0
C146 C 0.51003 0.05481 0.33124 0.0
C147 C 0.5535 0.20589 0.58819 0.0
H148 H 0.64536 0.56944 0.81306 0.0
H149 H 0.64417 0.36736 0.52018 0.0
H150 H 0.63019 0.62776 0.65977 0.0
H151 H 0.61834 0.65805 0.70347 0.0
H152 H 0.48679 0.57135 0.69507 0.0
H153 H 0.49905 0.54058 0.65166 0.0
H154 H 0.66107 0.57097 0.68381 0.0
H155 H 0.66726 0.57639 0.73822 0.0
H156 H 0.53319 0.50708 0.74272 0.0
H157 H 0.52753 0.50136 0.6884 0.0
H158 H 0.67316 0.5087 0.63798 0.0
H159 H 0.68291 0.45872 0.66354 0.0
H160 H 0.55466 0.39777 0.68889 0.0
H161 H 0.54464 0.44659 0.66266 0.0
H162 H 0.67067 0.54077 0.57 0.0
H163 H 0.6947 0.50405 0.54031 0.0
H164 H 0.58726 0.39277 0.56527 0.0
H165 H 0.5632 0.42986 0.59441 0.0
H166 H 0.63059 0.59188 0.55001 0.0
H167 H 0.64359 0.58511 0.49763 0.0
H168 H 0.55017 0.45951 0.49831 0.0
H169 H 0.53597 0.46709 0.54968 0.0
H170 H 0.57016 0.62393 0.6029 0.0
H171 H 0.51239 0.63301 0.58887 0.0
H172 H 0.44408 0.5123 0.55247 0.0
H173 H 0.49866 0.5017 0.57034 0.0
O174 O 0.64226 0.56646 0.7916 0.0
O175 O 0.57318 0.53151 0.79262 0.0
O176 O 0.68906 0.44067 0.51844 0.0
O177 O 0.63527 0.38262 0.53162 0.0
C178 C 0.57501 0.55619 0.6342 0.0
C179 C 0.59026 0.53449 0.64914 0.0
C180 C 0.60092 0.51025 0.63289 0.0
C181 C 0.60023 0.51057 0.60162 0.0
C182 C 0.58361 0.5311 0.58657 0.0
C183 C 0.56833 0.55193 0.60287 0.0
C184 C 0.56546 0.58201 0.65258 0.0
C185 C 0.59858 0.61644 0.66656 0.0
C186 C 0.59182 0.63359 0.6916 0.0
C187 C 0.55174 0.61672 0.70279 0.0
C188 C 0.51806 0.5846 0.687 0.0
C189 C 0.52486 0.56737 0.66199 0.0
C190 C 0.59388 0.53617 0.68221 0.0
C191 C 0.63313 0.55681 0.69663 0.0
C192 C 0.63654 0.55994 0.72768 0.0
C193 C 0.6007 0.54238 0.74482 0.0
C194 C 0.56141 0.52112 0.73022 0.0
C195 C 0.55808 0.5179 0.6992 0.0
C196 C 0.60827 0.48137 0.6487 0.0
C197 C 0.64722 0.48445 0.64896 0.0
C198 C 0.6527 0.45601 0.66341 0.0
C199 C 0.61945 0.42469 0.67805 0.0
C200 C 0.5807 0.42185 0.67783 0.0
C201 C 0.57506 0.44974 0.66304 0.0
C202 C 0.61535 0.48798 0.58448 0.0
C203 C 0.65243 0.50846 0.56905 0.0
C204 C 0.66606 0.48742 0.55211 0.0
C205 C 0.64293 0.44544 0.55046 0.0
C206 C 0.60586 0.42504 0.5661 0.0
C207 C 0.59214 0.44614 0.58288 0.0
C208 C 0.5824 0.52997 0.5536 0.0
C209 C 0.61163 0.56341 0.53833 0.0
C210 C 0.61941 0.55934 0.5086 0.0
C211 C 0.59804 0.52176 0.49385 0.0
C212 C 0.56655 0.48906 0.50867 0.0
C213 C 0.55845 0.49329 0.53814 0.0
C214 C 0.53885 0.56189 0.58816 0.0
C215 C 0.54275 0.59944 0.59185 0.0
C216 C 0.50989 0.60487 0.58323 0.0
C217 C 0.47318 0.57326 0.56966 0.0
C218 C 0.47137 0.5371 0.56339 0.0
C219 C 0.50319 0.53121 0.57313 0.0
C220 C 0.60437 0.54634 0.77777 0.0
C221 C 0.65727 0.42293 0.53251 0.0
H222 H 0.03472 0.41913 0.02008 0.0
H223 H 0.28571 0.56412 0.72023 0.0
H224 H 0.96607 0.4434 0.85393 0.0
H225 H 0.92345 0.42351 0.89777 0.0
H226 H 0.94326 0.32497 0.90842 0.0
H227 H 0.98348 0.34353 0.86325 0.0
H228 H 0.03885 0.47066 0.89832 0.0
H229 H 0.03549 0.45837 0.95161 0.0
H230 H 0.07113 0.37088 0.93602 0.0
H231 H 0.07389 0.38317 0.88264 0.0
H232 H 0.13063 0.51098 0.88368 0.0
H233 H 0.20034 0.53637 0.90567 0.0
H234 H 0.21467 0.45464 0.84852 0.0
H235 H 0.14418 0.42758 0.82853 0.0
H236 H 0.14175 0.54363 0.81503 0.0
H237 H 0.20696 0.58662 0.79011 0.0
H238 H 0.19525 0.48291 0.7448 0.0
H239 H 0.12941 0.44049 0.76908 0.0
H240 H 0.06683 0.51936 0.77554 0.0
H241 H 0.09628 0.54953 0.72836 0.0
H242 H 0.06856 0.43479 0.69316 0.0
H243 H 0.04208 0.40547 0.74135 0.0
H244 H 0.95368 0.43938 0.79868 0.0
H245 H 0.8833 0.39358 0.77828 0.0
H246 H 0.91826 0.30701 0.75688 0.0
H247 H 0.98785 0.35226 0.77857 0.0
O248 O 0.0372 0.42416 0.999 0.0
O249 O 0.05797 0.38116 0.99014 0.0
O250 O 0.26472 0.60019 0.75439 0.0
O251 O 0.26024 0.54782 0.73061 0.0
C252 C 0.01643 0.41639 0.83831 0.0
C253 C 0.05506 0.43301 0.8541 0.0
C254 C 0.09229 0.45464 0.83893 0.0
C255 C 0.09119 0.46324 0.80873 0.0
C256 C 0.05263 0.4478 0.79304 0.0
C257 C 0.01525 0.42253 0.80748 0.0
C258 C 0.97788 0.39493 0.85537 0.0
C259 C 0.95896 0.41601 0.86452 0.0
C260 C 0.93548 0.40516 0.89004 0.0
C261 C 0.93095 0.37332 0.90696 0.0
C262 C 0.94597 0.34951 0.89584 0.0
C263 C 0.96875 0.35993 0.86988 0.0
C264 C 0.05639 0.42765 0.88667 0.0
C265 C 0.04608 0.44897 0.90649 0.0
C266 C 0.04414 0.44185 0.93691 0.0
C267 C 0.05281 0.41347 0.94806 0.0
C268 C 0.06416 0.39286 0.92815 0.0
C269 C 0.06594 0.39992 0.8977 0.0
C270 C 0.13266 0.46772 0.85438 0.0
C271 C 0.14846 0.4978 0.87667 0.0
C272 C 0.18822 0.51227 0.88912 0.0
C273 C 0.21298 0.49734 0.87903 0.0
C274 C 0.19615 0.46603 0.85752 0.0
C275 C 0.15616 0.45105 0.8456 0.0
C276 C 0.13081 0.48908 0.79363 0.0
C277 C 0.15326 0.53035 0.79956 0.0
C278 C 0.19046 0.55479 0.78531 0.0
C279 C 0.2061 0.53823 0.76518 0.0
C280 C 0.18378 0.49671 0.75978 0.0
C281 C 0.14625 0.47239 0.77367 0.0
C282 C 0.0528 0.46033 0.76204 0.0
C283 C 0.06554 0.50036 0.75725 0.0
C284 C 0.08246 0.51762 0.73022 0.0
C285 C 0.08616 0.49486 0.70738 0.0
C286 C 0.06751 0.4534 0.71077 0.0
C287 C 0.05157 0.43635 0.73812 0.0
C288 C 0.97565 0.39898 0.7902 0.0
C289 C 0.94629 0.41084 0.78906 0.0
C290 C 0.90626 0.38479 0.7771 0.0
C291 C 0.89529 0.3467 0.76583 0.0
C292 C 0.92574 0.33604 0.76549 0.0
C293 C 0.9655 0.36189 0.77771 0.0
C294 C 0.0496 0.40523 0.9803 0.0
C295 C 0.24546 0.56406 0.74982 0.0
H296 H 0.37507 0.93527 0.80175 0.0
H297 H 0.38279 0.77218 0.10939 0.0
H298 H 0.42111 0.04166 0.94584 0.0
H299 H 0.44698 0.08449 0.90281 0.0
H300 H 0.56991 0.10503 0.92151 0.0
H301 H 0.54333 0.06018 0.96288 0.0
H302 H 0.36846 0.94434 0.93133 0.0
H303 H 0.35861 0.93564 0.87717 0.0
H304 H 0.49065 0.98416 0.86885 0.0
H305 H 0.49989 0.99199 0.92297 0.0
H306 H 0.35567 0.86821 0.96994 0.0
H307 H 0.35071 0.80905 0.94517 0.0
H308 H 0.48401 0.8747 0.93581 0.0
H309 H 0.48871 0.93254 0.96076 0.0
H310 H 0.365 0.91713 0.04818 0.0
H311 H 0.34035 0.86258 0.08298 0.0
H312 H 0.43626 0.84026 0.05505 0.0
H313 H 0.46109 0.89534 0.02085 0.0
H314 H 0.42463 0.00932 0.07128 0.0
H315 H 0.434 0.00369 0.12483 0.0
H316 H 0.51614 0.96003 0.10526 0.0
H317 H 0.50868 0.96823 0.0525 0.0
H318 H 0.46733 0.08043 0.0333 0.0
H319 H 0.52508 0.14082 0.05808 0.0
H320 H 0.60848 0.09897 0.03744 0.0
H321 H 0.55068 0.03848 0.01464 0.0
O322 O 0.37961 0.9388 0.82311 0.0
O323 O 0.44778 0.96436 0.82006 0.0
O324 O 0.34312 0.80659 0.10935 0.0
O325 O 0.39142 0.79342 0.09543 0.0
C326 C 0.46244 0.01344 0.97741 0.0
C327 C 0.44059 0.97478 0.96392 0.0
C328 C 0.42763 0.94099 0.98138 0.0
C329 C 0.43114 0.94524 0.01262 0.0
C330 C 0.45374 0.98382 0.02608 0.0
C331 C 0.47113 0.01782 0.0084 0.0
C332 C 0.48047 0.04841 0.95801 0.0
C333 C 0.45395 0.05664 0.94128 0.0
C334 C 0.46874 0.08103 0.91667 0.0
C335 C 0.51043 0.09795 0.90878 0.0
C336 C 0.53755 0.0921 0.92698 0.0
C337 C 0.52263 0.06725 0.95118 0.0
C338 C 0.43494 0.96944 0.93101 0.0
C339 C 0.39518 0.95307 0.91774 0.0
C340 C 0.38967 0.94818 0.88682 0.0
C341 C 0.42389 0.95943 0.86866 0.0
C342 C 0.46367 0.97539 0.88214 0.0
C343 C 0.46907 0.98012 0.91304 0.0
C344 C 0.4225 0.9045 0.96693 0.0
C345 C 0.3836 0.86951 0.96252 0.0
C346 C 0.38086 0.83604 0.94832 0.0
C347 C 0.41704 0.8375 0.93861 0.0
C348 C 0.45573 0.87265 0.9433 0.0
C349 C 0.45842 0.90573 0.95735 0.0
C350 C 0.4142 0.90964 0.03148 0.0
C351 C 0.38026 0.90005 0.04932 0.0
C352 C 0.36637 0.869 0.06927 0.0
C353 C 0.38624 0.84694 0.07171 0.0
C354 C 0.42009 0.85647 0.05361 0.0
C355 C 0.43407 0.88766 0.03378 0.0
C356 C 0.46502 0.98797 0.0582 0.0
C357 C 0.44556 -0.0003 0.0788 0.0
C358 C 0.45078 0.99625 0.10926 0.0
C359 C 0.47481 0.98027 0.11923 0.0
C360 C 0.49742 0.97244 0.09846 0.0
C361 C 0.49279 0.97658 0.06823 0.0
C362 C 0.50529 0.05584 0.02151 0.0
C363 C 0.49822 0.0847 0.03408 0.0
C364 C 0.53116 0.11901 0.0482 0.0
C365 C 0.57147 0.12484 0.04955 0.0
C366 C 0.57784 0.0953 0.03719 0.0
C367 C 0.54503 0.06104 0.02367 0.0
C368 C 0.41799 0.95441 0.83582 0.0
C369 C 0.37215 0.81446 0.0933 0.0
H370 H 0.60725 0.55348 0.92676 0.0
H371 H 0.70866 0.48619 0.25797 0.0
H372 H 0.5338 0.59494 0.08567 0.0
H373 H 0.51317 0.61171 0.03871 0.0
H374 H 0.6421 0.69381 0.02081 0.0
H375 H 0.66263 0.67857 0.06861 0.0
H376 H 0.56747 0.54622 0.05235 0.0
H377 H 0.57194 0.54041 0.99851 0.0
H378 H 0.70461 0.62392 0.00573 0.0
H379 H 0.69954 0.62986 0.05954 0.0
H380 H 0.60761 0.49466 0.09844 0.0
H381 H 0.64538 0.4597 0.09082 0.0
H382 H 0.76193 0.57236 0.09746 0.0
H383 H 0.72391 0.60683 0.10613 0.0
H384 H 0.57927 0.49626 0.1596 0.0
H385 H 0.59372 0.4579 0.19521 0.0
H386 H 0.71954 0.55748 0.20822 0.0
H387 H 0.70516 0.59498 0.17173 0.0
H388 H 0.53451 0.54964 0.17313 0.0
H389 H 0.51755 0.51691 0.22095 0.0
H390 H 0.64716 0.5891 0.24908 0.0
H391 H 0.66225 0.6245 0.20304 0.0
H392 H 0.52867 0.60789 0.13949 0.0
H393 H 0.51326 0.65445 0.16495 0.0
H394 H 0.6446 0.73502 0.18363 0.0
H395 H 0.65971 0.68913 0.15705 0.0
O396 O 0.60634 0.5557 0.94816 0.0
O397 O 0.67474 0.59721 0.95317 0.0
O398 O 0.63886 0.44851 0.23351 0.0
O399 O 0.7028 0.50005 0.2428 0.0
C400 C 0.61223 0.61556 0.10268 0.0
C401 C 0.62958 0.59309 0.09219 0.0
C402 C 0.6412 0.57328 0.11244 0.0
C403 C 0.63175 0.57223 0.14259 0.0
C404 C 0.61304 0.59332 0.15302 0.0
C405 C 0.60522 0.61659 0.13338 0.0
C406 C 0.59972 0.63568 0.08071 0.0
C407 C 0.55748 0.61834 0.07258 0.0
C408 C 0.54576 0.62757 0.0456 0.0
C409 C 0.57617 0.6538 0.02628 0.0
C410 C 0.61821 0.6736 0.03549 0.0
C411 C 0.62987 0.6651 0.06281 0.0
C412 C 0.63321 0.58826 0.0598 0.0
C413 C 0.59749 0.56304 0.04225 0.0
C414 C 0.60014 0.55982 0.01152 0.0
C415 C 0.63865 0.58168 0.99781 0.0
C416 C 0.67449 0.60661 0.01559 0.0
C417 C 0.67176 0.60989 0.04633 0.0
C418 C 0.66316 0.55316 0.1025 0.0
C419 C 0.64124 0.51173 0.09769 0.0
C420 C 0.66282 0.49191 0.0935 0.0
C421 C 0.70656 0.51335 0.09406 0.0
C422 C 0.72828 0.55508 0.09763 0.0
C423 C 0.70668 0.57482 0.10205 0.0
C424 C 0.6411 0.54842 0.1633 0.0
C425 C 0.60999 0.50959 0.17003 0.0
C426 C 0.61824 0.48787 0.19051 0.0
C427 C 0.65752 0.5049 0.205 0.0
C428 C 0.68885 0.54359 0.19769 0.0
C429 C 0.68078 0.56504 0.17683 0.0
C430 C 0.59992 0.58847 0.18433 0.0
C431 C 0.55861 0.55999 0.19044 0.0
C432 C 0.54925 0.54049 0.2175 0.0
C433 C 0.58145 0.54821 0.2381 0.0
C434 C 0.6214 0.58154 0.23374 0.0
C435 C 0.63029 0.60207 0.20726 0.0
C436 C 0.59529 0.6456 0.146 0.0
C437 C 0.55405 0.63596 0.14856 0.0
C438 C 0.54534 0.66222 0.16359 0.0
C439 C 0.57775 0.69807 0.17674 0.0
C440 C 0.61905 0.70771 0.17371 0.0
C441 C 0.6277 0.68165 0.15848 0.0
C442 C 0.64118 0.57873 0.96507 0.0
C443 C 0.6657 0.48264 0.22788 0.0
Mg444 Mg 0.63694 0.41008 0.33938 0.0
O445 O 0.63731 0.4483 0.37834 0.0
O446 O 0.67477 0.51285 0.36695 0.0
Mg447 Mg 0.69578 0.51544 0.31918 0.0
C448 C 0.65252 0.48524 0.38474 0.0
C449 C 0.5921 0.32148 0.35974 0.0
O450 O 0.58092 0.31558 0.33138 0.0
O451 O 0.70514 0.42903 0.34858 0.0
O452 O 0.73768 0.49142 0.33269 0.0
O453 O 0.57903 0.40712 0.32148 0.0
O454 O 0.64315 0.45426 0.31128 0.0
C455 C 0.73848 0.4615 0.34274 0.0
C456 C 0.6039 0.44094 0.30959 0.0
O457 O 0.615 0.35707 0.3698 0.0
Mg458 Mg 0.27464 0.62713 0.58797 0.0
O459 O 0.22857 0.59811 0.54714 0.0
O460 O 0.19739 0.53235 0.55352 0.0
Mg461 Mg 0.22254 0.51838 0.59506 0.0
C462 C 0.20168 0.56203 0.53914 0.0
C463 C 0.29468 0.7081 0.55534 0.0
O464 O 0.25409 0.69072 0.5521 0.0
O465 O 0.32164 0.61177 0.56942 0.0
O466 O 0.2887 0.54671 0.57816 0.0
O467 O 0.22258 0.62373 0.61537 0.0
O468 O 0.23806 0.57688 0.61279 0.0
C469 C 0.32069 0.57865 0.56976 0.0
C470 C 0.21456 0.58876 0.62301 0.0
O471 O 0.30999 0.68929 0.56767 0.0
Mg472 Mg 0.62927 0.23023 0.76284 0.0
O473 O 0.60022 0.17916 0.72758 0.0
O474 O 0.61135 0.13171 0.74355 0.0
Mg475 Mg 0.64373 0.15075 0.78975 0.0
C476 C 0.59683 0.14512 0.72409 0.0
C477 C 0.62961 0.3034 0.74342 0.0
O478 O 0.63121 0.30576 0.77265 0.0
O479 O 0.69454 0.24851 0.74969 0.0
O480 O 0.70399 0.20261 0.771 0.0
O481 O 0.56983 0.20458 0.78689 0.0
O482 O 0.61865 0.19025 0.79592 0.0
C483 C 0.71784 0.23495 0.75684 0.0
C484 C 0.58277 0.18489 0.80194 0.0
O485 O 0.62776 0.27334 0.7307 0.0
Mg486 Mg 0.46741 0.6658 0.85427 0.0
O487 O 0.50549 0.6649 0.89412 0.0
O488 O 0.50332 0.60684 0.89212 0.0
Mg489 Mg 0.46874 0.57349 0.84872 0.0
C490 C 0.51418 0.64017 0.90515 0.0
C491 C 0.4293 0.71545 0.87337 0.0
O492 O 0.40033 0.68942 0.85464 0.0
O493 O 0.4093 0.61992 0.87588 0.0
O494 O 0.40694 0.56234 0.86783 0.0
O495 O 0.52166 0.69434 0.82438 0.0
O496 O 0.48028 0.6295 0.82886 0.0
C497 C 0.39076 0.58211 0.87737 0.0
C498 C 0.51126 0.65843 0.81605 0.0
O499 O 0.46244 0.71464 0.87746 0.0
Mg500 Mg 0.79667 0.35378 0.051 0.0
O501 O 0.83267 0.36509 0.09551 0.0
O502 O 0.85092 0.31927 0.09799 0.0
Mg503 Mg 0.82853 0.28073 0.05491 0.0
C504 C 0.85021 0.34907 0.10917 0.0
C505 C 0.79089 0.42499 0.08081 0.0
O506 O 0.82891 0.43812 0.09105 0.0
O507 O 0.74059 0.29951 0.06843 0.0
O508 O 0.75933 0.25386 0.06614 0.0
O509 O 0.85397 0.39333 0.02679 0.0
O510 O 0.82701 0.32849 0.03055 0.0
C511 C 0.73222 0.26374 0.07066 0.0
C512 C 0.85491 0.3616 0.01967 0.0
O513 O 0.77185 0.39267 0.06547 0.0
Mg514 Mg 0.44855 0.81245 0.22788 0.0
O515 O 0.46322 0.83626 0.2758 0.0
O516 O 0.52858 0.88811 0.27763 0.0
Mg517 Mg 0.55163 0.90103 0.2297 0.0
C518 C 0.49478 0.86395 0.29022 0.0
C519 C 0.36729 0.75179 0.25769 0.0
O520 O 0.37029 0.78535 0.26658 0.0
O521 O 0.49207 0.7892 0.23072 0.0
O522 O 0.55452 0.84349 0.22507 0.0
O523 O 0.4203 0.84871 0.21923 0.0
O524 O 0.48641 0.86941 0.21232 0.0
C525 C 0.53097 0.80569 0.22696 0.0
C526 C 0.45664 0.87679 0.21139 0.0
O527 O 0.39575 0.75326 0.24211 0.0
C528 C 0.25875 0.67688 0.28151 0.0
C529 C 0.25172 0.64065 0.26908 0.0
C530 C 0.29672 0.71237 0.27853 0.0
C531 C 0.32918 0.71304 0.263 0.0
H532 H 0.23449 0.67785 0.29347 0.0
H533 H 0.30021 0.73957 0.28802 0.0
S534 S 0.327 0.62537 0.22779 0.0
N535 N 0.28045 0.60692 0.24176 0.0
N536 N 0.35237 0.67361 0.23628 0.0
C537 C 0.32304 0.67662 0.25135 0.0
C538 C 0.28419 0.64042 0.2544 0.0
C539 C 0.5424 0.21451 0.38496 0.0
C540 C 0.55319 0.2189 0.41547 0.0
C541 C 0.55496 0.2478 0.36729 0.0
C542 C 0.57876 0.28693 0.37939 0.0
H543 H 0.52467 0.18504 0.37449 0.0
H544 H 0.5461 0.24265 0.34385 0.0
S545 S 0.61314 0.31443 0.4587 0.0
N546 N 0.58755 0.26519 0.45744 0.0
N547 N 0.61145 0.32791 0.42435 0.0
C548 C 0.58929 0.29171 0.41007 0.0
C549 C 0.5765 0.2577 0.42805 0.0
C550 C 0.39638 0.54214 0.57387 0.0
C551 C 0.43461 0.57524 0.56596 0.0
C552 C 0.35974 0.54308 0.57316 0.0
C553 C 0.35931 0.5775 0.56509 0.0
H554 H 0.39475 0.51544 0.58191 0.0
H555 H 0.3318 0.51684 0.5804 0.0
S556 S 0.45013 0.67124 0.53945 0.0
N557 N 0.46917 0.64249 0.5471 0.0
N558 N 0.40021 0.64489 0.54688 0.0
C559 C 0.39697 0.61054 0.55607 0.0
C560 C 0.43455 0.60933 0.55638 0.0
C561 C 0.83329 0.27839 0.77067 0.0
C562 C 0.85112 0.31634 0.75831 0.0
C563 C 0.79047 0.25107 0.76809 0.0
C564 C 0.76351 0.26061 0.7532 0.0
H565 H 0.8522 0.27046 0.78394 0.0
H566 H 0.77828 0.22315 0.77941 0.0
S567 S 0.79588 0.35348 0.71225 0.0
N568 N 0.83962 0.3601 0.72714 0.0
N569 N 0.75886 0.30899 0.72244 0.0
C570 C 0.78142 0.29737 0.73876 0.0
C571 C 0.82521 0.3252 0.74137 0.0
C572 C 0.4434 0.79115 0.93283 0.0
C573 C 0.41559 0.80302 0.92341 0.0
C574 C 0.44716 0.76248 0.91665 0.0
C575 C 0.42305 0.74437 0.89049 0.0
H576 H 0.46311 0.80479 0.95259 0.0
H577 H 0.46943 0.75474 0.92465 0.0
S578 S 0.34482 0.7644 0.85679 0.0
N579 N 0.36306 0.79423 0.88665 0.0
N580 N 0.36943 0.73955 0.85633 0.0
C581 C 0.39403 0.75496 0.88134 0.0
C582 C 0.39042 0.78445 0.89781 0.0
C583 C 0.71742 0.46279 0.06839 0.0
C584 C 0.72927 0.49194 0.09113 0.0
C585 C 0.73761 0.44142 0.06539 0.0
C586 C 0.77064 0.44848 0.08494 0.0
H587 H 0.69245 0.4566 0.05263 0.0
H588 H 0.72738 0.41938 0.04736 0.0
S589 S 0.812 0.5202 0.14931 0.0
N590 N 0.77478 0.5257 0.13443 0.0
N591 N 0.81349 0.48593 0.1284 0.0
C592 C 0.78284 0.47755 0.10785 0.0
C593 C 0.76198 0.49918 0.11104 0.0
C594 C 0.39066 0.81248 0.55192 0.0
C595 C 0.37681 0.83311 0.53444 0.0
C596 C 0.36416 0.772 0.55805 0.0
C597 C 0.32262 0.7504 0.547 0.0
H598 H 0.422 0.82795 0.56148 0.0
H599 H 0.37622 0.7578 0.5721 0.0
S600 S 0.27252 0.78954 0.49737 0.0
N601 N 0.31988 0.82805 0.50411 0.0
N602 N 0.26995 0.75235 0.51598 0.0
C603 C 0.30875 0.77044 0.5288 0.0
C604 C 0.33582 0.81162 0.52246 0.0
C605 C 0.61728 0.39078 0.72477 0.0
C606 C 0.6248 0.3951 0.69423 0.0
C607 C 0.61956 0.36138 0.74047 0.0
C608 C 0.62878 0.3348 0.72608 0.0
H609 H 0.60936 0.41019 0.73657 0.0
H610 H 0.61324 0.35909 0.76398 0.0
S611 S 0.65105 0.33414 0.64605 0.0
N612 N 0.64219 0.37112 0.65001 0.0
N613 N 0.64607 0.31525 0.67936 0.0
C614 C 0.63664 0.33905 0.69545 0.0
C615 C 0.63481 0.36942 0.67957 0.0
C616 C 0.2814 0.56039 0.88526 0.0
C617 C 0.25811 0.51861 0.88675 0.0
C618 C 0.32474 0.58101 0.88495 0.0
C619 C 0.34656 0.56062 0.88562 0.0
H620 H 0.26613 0.57721 0.88199 0.0
H621 H 0.34084 0.6129 0.88187 0.0
S622 S 0.30051 0.45228 0.89695 0.0
N623 N 0.26014 0.45833 0.89479 0.0
N624 N 0.34199 0.49705 0.89319 0.0
C625 C 0.32392 0.51929 0.89013 0.0
C626 C 0.27961 0.4983 0.89089 0.0
C627 C 0.63903 0.16055 0.07866 0.0
C628 C 0.60803 0.16232 0.06179 0.0
C629 C 0.67853 0.19445 0.08372 0.0
C630 C 0.6882 0.23154 0.07269 0.0
H631 H 0.63358 0.13221 0.08637 0.0
H632 H 0.70234 0.1911 0.09488 0.0
S633 S 0.61616 0.25341 0.03105 0.0
N634 N 0.58845 0.20504 0.03663 0.0
N635 N 0.66204 0.26911 0.04728 0.0
C636 C 0.65617 0.23458 0.05852 0.0
C637 C 0.61617 0.19986 0.05282 0.0
C638 C 0.59122 0.76684 0.18703 0.0
C639 C 0.5687 0.72589 0.19299 0.0
C640 C 0.58083 0.7932 0.19998 0.0
C641 C 0.54733 0.77953 0.21924 0.0
H642 H 0.61588 0.77836 0.17118 0.0
H643 H 0.59764 0.82402 0.19343 0.0
S644 S 0.4832 0.67635 0.24597 0.0
N645 N 0.51512 0.6739 0.22248 0.0
N646 N 0.49492 0.72323 0.24639 0.0
C647 C 0.52633 0.73912 0.22688 0.0
C648 C 0.5371 0.71235 0.21382 0.0
C649 C 0.8226 0.43861 0.36479 0.0
C650 C 0.85703 0.46691 0.34909 0.0
C651 C 0.78438 0.43718 0.36299 0.0
C652 C 0.77933 0.464 0.34542 0.0
H653 H 0.8253 0.41762 0.37864 0.0
H654 H 0.75869 0.41497 0.37549 0.0
S655 S 0.85916 0.54097 0.29751 0.0
N656 N 0.88281 0.52021 0.31371 0.0
N657 N 0.81182 0.5181 0.31055 0.0
C658 C 0.81356 0.492 0.32926 0.0
C659 C 0.85215 0.49326 0.33101 0.0
C660 C 0.15628 0.56985 0.4647 0.0
C661 C 0.11591 0.53566 0.46381 0.0
C662 C 0.18378 0.57881 0.48926 0.0
C663 C 0.17208 0.55367 0.51372 0.0
H664 H 0.16717 0.58923 0.44588 0.0
H665 H 0.21475 0.60494 0.48871 0.0
S666 S 0.06804 0.46356 0.52412 0.0
N667 N 0.06439 0.47901 0.4909 0.0
N668 N 0.11591 0.49517 0.53667 0.0
C669 C 0.13127 0.52025 0.51355 0.0
C670 C 0.10327 0.51141 0.48873 0.0
C671 C 0.54102 0.11383 0.64811 0.0
C672 C 0.5338 0.07514 0.64324 0.0
C673 C 0.5612 0.136 0.67425 0.0
C674 C 0.57502 0.12043 0.69672 0.0
H675 H 0.53197 0.12756 0.6312 0.0
H676 H 0.56637 0.16582 0.6766 0.0
S677 S 0.56123 0.01921 0.6953 0.0
N678 N 0.54028 0.02137 0.66332 0.0
N679 N 0.57827 0.06273 0.71252 0.0
C680 C 0.56723 0.08132 0.69227 0.0
C681 C 0.54669 0.05881 0.66555 0.0
C682 C 0.52411 0.6002 0.75376 0.0
C683 C 0.54556 0.62928 0.73253 0.0
C684 C 0.51584 0.61045 0.78161 0.0
C685 C 0.52865 0.65022 0.78941 0.0
H686 H 0.51304 0.56909 0.74864 0.0
H687 H 0.49784 0.58663 0.79665 0.0
S688 S 0.5891 0.73807 0.74242 0.0
N689 N 0.58192 0.69975 0.72163 0.0
N690 N 0.5666 0.71931 0.77415 0.0
C691 C 0.5522 0.67995 0.76894 0.0
C692 C 0.56058 0.6694 0.74045 0.0
C693 C 0.92908 0.4018 0.95657 0.0
C694 C 0.91468 0.36813 0.93742 0.0
C695 C 0.91185 0.39888 0.98439 0.0
C696 C 0.87979 0.3621 0.99433 0.0
H697 H 0.95314 0.43096 0.94965 0.0
H698 H 0.9225 0.42599 0.99763 0.0
S699 S 0.83408 0.26418 0.95392 0.0
N700 N 0.86867 0.2964 0.93118 0.0
N701 N 0.83682 0.29052 0.98383 0.0
C702 C 0.8672 0.32766 0.97633 0.0
C703 C 0.8845 0.33077 0.94778 0.0
C704 C 0.50582 0.96764 0.16436 0.0
C705 C 0.47082 0.96452 0.14957 0.0
C706 C 0.50129 0.94164 0.18698 0.0
C707 C 0.46162 0.91198 0.19584 0.0
H708 H 0.53676 0.98794 0.15661 0.0
H709 H 0.52891 0.94277 0.19584 0.0
S710 S 0.36049 0.8974 0.16878 0.0
N711 N 0.3955 0.93349 0.14857 0.0
N712 N 0.38711 0.88605 0.192 0.0
C713 C 0.42674 0.91229 0.18411 0.0
C714 C 0.4313 0.93827 0.16072 0.0
C715 C 0.60046 0.53145 0.28726 0.0
C716 C 0.57646 0.51832 0.2605 0.0
C717 C 0.60704 0.50544 0.30426 0.0
C718 C 0.58875 0.46506 0.29576 0.0
H719 H 0.61656 0.56265 0.29417 0.0
H720 H 0.62797 0.51744 0.32353 0.0
S721 S 0.51681 0.41314 0.23138 0.0
N722 N 0.53006 0.46023 0.22858 0.0
N723 N 0.54112 0.41149 0.26179 0.0
C724 C 0.561 0.45035 0.2712 0.0
C725 C 0.55498 0.47693 0.25331 0.0
C726 C 0.4532 0.88956 0.35719 0.0
C727 C 0.48441 0.89979 0.37936 0.0
C728 C 0.45568 0.87559 0.3289 0.0
C729 C 0.48989 0.87217 0.32147 0.0
H730 H 0.42775 0.89442 0.36103 0.0
H731 H 0.43186 0.86972 0.31218 0.0
S732 S 0.57621 0.88833 0.37235 0.0
N733 N 0.54738 0.8994 0.39294 0.0
N734 N 0.55323 0.87577 0.33898 0.0
C735 C 0.52014 0.88014 0.34364 0.0
C736 C 0.51706 0.89325 0.37277 0.0
C737 C 0.65426 0.5312 0.45976 0.0
C738 C 0.61158 0.51539 0.46455 0.0
C739 C 0.66767 0.52192 0.43361 0.0
C740 C 0.63878 0.49585 0.41181 0.0
H741 H 0.67741 0.54986 0.47673 0.0
H742 H 0.70065 0.53422 0.43082 0.0
S743 S 0.52441 0.45035 0.41164 0.0
N744 N 0.54108 0.47576 0.44361 0.0
N745 N 0.56634 0.45695 0.39517 0.0
C746 C 0.59631 0.48081 0.4158 0.0
C747 C 0.58269 0.49089 0.44203 0.0
C748 C 0.11665 0.54757 0.66849 0.0
C749 C 0.11565 0.51549 0.68309 0.0
C750 C 0.14819 0.57081 0.64863 0.0
C751 C 0.18001 0.56295 0.64276 0.0
H752 H 0.09327 0.5552 0.67284 0.0
H753 H 0.14791 0.59539 0.63813 0.0
S754 S 0.19265 0.48343 0.67627 0.0
N755 N 0.14987 0.4777 0.69055 0.0
N756 N 0.20905 0.52137 0.65399 0.0
C757 C 0.17914 0.53079 0.65712 0.0
C758 C 0.147 0.50706 0.67703 0.0
C759 C 0.54822 0.10833 0.86167 0.0
C760 C 0.52516 0.11848 0.88027 0.0
C761 C 0.56514 0.12878 0.8356 0.0
C762 C 0.55922 0.15983 0.82687 0.0
H763 H 0.55375 0.08467 0.86754 0.0
H764 H 0.58352 0.12052 0.82246 0.0
S765 S 0.49969 0.19685 0.867 0.0
N766 N 0.4962 0.16086 0.88774 0.0
N767 N 0.52727 0.19884 0.83821 0.0
C768 C 0.53461 0.16912 0.84449 0.0
C769 C 0.51773 0.14854 0.87132 0.0
C770 C 0.57516 0.63763 0.97246 0.0
C771 C 0.56431 0.65547 0.99507 0.0
C772 C 0.55981 0.63379 0.94316 0.0
C773 C 0.53381 0.64848 0.93535 0.0
H774 H 0.59432 0.62514 0.97772 0.0
H775 H 0.56778 0.61861 0.92663 0.0
S776 S 0.49786 0.6992 0.98647 0.0
N777 N 0.52694 0.68864 0.0079 0.0
N778 N 0.49896 0.68273 0.95267 0.0
C779 C 0.52409 0.6678 0.95765 0.0
C780 C 0.53905 0.6709 0.98759 0.0
C781 C 0.87334 0.39907 0.18627 0.0
C782 C 0.90737 0.39647 0.1969 0.0
C783 C 0.85524 0.38401 0.15782 0.0
C784 C 0.87024 0.36546 0.13897 0.0
H785 H 0.86036 0.41257 0.20014 0.0
H786 H 0.82891 0.38643 0.15071 0.0
S787 S 0.9615 0.35503 0.1548 0.0
N788 N 0.95759 0.37704 0.18509 0.0
N789 N 0.92283 0.3477 0.13224 0.0
C790 C 0.90466 0.36328 0.14911 0.0
C791 C 0.92339 0.37902 0.17787 0.0
loop_
_geom_bond_atom_site_label_1
_geom_bond_atom_site_label_2
_geom_bond_distance
_geom_bond_site_symmetry_2
_ccdc_geom_bond_type
H0 O26 0.856 . S
H1 O29 0.854 . S
H2 C37 0.930 1_455 S
H3 C38 0.930 . S
H4 C40 0.930 . S
H5 C41 0.930 . S
H6 C43 0.931 . S
H7 C44 0.930 . S
H8 C46 0.930 . S
H9 C47 0.929 . S
H10 C49 0.930 . S
H11 C50 0.931 . S
H12 C52 0.930 . S
H13 C53 0.929 . S
H14 C55 0.931 . S
H15 C56 0.930 . S
H16 C58 0.930 . S
H17 C59 0.932 . S
H18 C61 0.930 . S
H19 C62 0.929 . S
H20 C64 0.931 . S
H21 C65 0.930 . S
H22 C67 0.929 . S
H23 C68 0.931 . S
H24 C70 0.930 . S
H25 C71 0.929 . S
O26 H0 0.856 . S
O26 C72 1.300 . S
O27 C72 1.209 . S
O28 C73 1.199 . S
O29 H1 0.854 . S
O29 C73 1.297 . S
C30 C31 1.404 . S
C30 C35 1.397 . S
C30 C36 1.482 1_455 S
C31 C30 1.404 . S
C31 C32 1.396 . S
C31 C42 1.492 . S
C32 C31 1.396 . S
C32 C33 1.397 . S
C32 C48 1.509 . S
C33 C32 1.397 . S
C33 C34 1.412 . S
C33 C54 1.485 . S
C34 C33 1.412 . S
C34 C35 1.388 . S
C34 C60 1.490 . S
C35 C30 1.397 . S
C35 C34 1.388 . S
C35 C66 1.519 1_455 S
C36 C30 1.482 1_655 S
C36 C37 1.358 . S
C36 C41 1.406 . S
C37 H2 0.930 1_655 S
C37 C36 1.358 . S
C37 C38 1.372 . S
C38 H3 0.930 . S
C38 C37 1.372 . S
C38 C39 1.383 . S
C39 C38 1.383 . S
C39 C40 1.395 . S
C40 H4 0.930 . S
C40 C39 1.395 . S
C40 C41 1.362 . S
C41 H5 0.930 . S
C41 C36 1.406 . S
C41 C40 1.362 . S
C42 C31 1.492 . S
C42 C43 1.377 . S
C42 C47 1.397 . S
C43 H6 0.931 . S
C43 C42 1.377 . S
C43 C44 1.376 . S
C44 H7 0.930 . S
C44 C43 1.376 . S
C44 C45 1.376 . S
C45 C44 1.376 . S
C45 C46 1.378 . S
C45 C72 1.486 . S
C46 H8 0.930 . S
C46 C45 1.378 . S
C46 C47 1.376 . S
C47 H9 0.929 . S
C47 C42 1.397 . S
C47 C46 1.376 . S
C48 C32 1.509 . S
C48 C49 1.391 . S
C48 C53 1.386 . S
C49 H10 0.930 . S
C49 C48 1.391 . S
C49 C50 1.375 . S
C50 H11 0.931 . S
C50 C49 1.375 . S
C50 C51 1.375 . S
C51 C50 1.375 . S
C51 C52 1.361 . S
C52 H12 0.930 . S
C52 C51 1.361 . S
C52 C53 1.399 . S
C53 H13 0.929 . S
C53 C48 1.386 . S
C53 C52 1.399 . S
C54 C33 1.485 . S
C54 C55 1.394 . S
C54 C59 1.360 . S
C55 H14 0.931 . S
C55 C54 1.394 . S
C55 C56 1.372 . S
C56 H15 0.930 . S
C56 C55 1.372 . S
C56 C57 1.397 . S
C57 C56 1.397 . S
C57 C58 1.390 . S
C57 C73 1.476 . S
C58 H16 0.930 . S
C58 C57 1.390 . S
C58 C59 1.366 . S
C59 H17 0.932 . S
C59 C54 1.360 . S
C59 C58 1.366 . S
C60 C34 1.490 . S
C60 C61 1.380 . S
C60 C65 1.386 . S
C61 H18 0.930 . S
C61 C60 1.380 . S
C61 C62 1.381 . S
C62 H19 0.929 . S
C62 C61 1.381 . S
C62 C63 1.371 . S
C63 C62 1.371 . S
C63 C64 1.380 . S
C64 H20 0.931 . S
C64 C63 1.380 . S
C64 C65 1.387 . S
C65 H21 0.930 . S
C65 C60 1.386 . S
C65 C64 1.387 . S
C66 C35 1.519 1_655 S
C66 C67 1.377 . S
C66 C71 1.361 . S
C67 H22 0.929 . S
C67 C66 1.377 . S
C67 C68 1.386 . S
C68 H23 0.931 . S
C68 C67 1.386 . S
C68 C69 1.363 . S
C69 C68 1.363 . S
C69 C70 1.385 . S
C70 H24 0.930 . S
C70 C69 1.385 . S
C70 C71 1.396 . S
C71 H25 0.929 . S
C71 C66 1.361 . S
C71 C70 1.396 . S
C72 O26 1.300 . S
C72 O27 1.209 . S
C72 C45 1.486 . S
C73 O28 1.199 . S
C73 O29 1.297 . S
C73 C57 1.476 . S
H74 O100 0.856 . S
H75 O103 0.854 . S
H76 C111 0.930 1_545 S
H77 C112 0.930 . S
H78 C114 0.930 . S
H79 C115 0.930 . S
H80 C117 0.931 . S
H81 C118 0.930 . S
H82 C120 0.930 . S
H83 C121 0.929 . S
H84 C123 0.930 . S
H85 C124 0.931 . S
H86 C126 0.930 . S
H87 C127 0.929 . S
H88 C129 0.931 . S
H89 C130 0.930 . S
H90 C132 0.930 . S
H91 C133 0.932 . S
H92 C135 0.930 . S
H93 C136 0.929 . S
H94 C138 0.931 . S
H95 C139 0.930 . S
H96 C141 0.929 . S
H97 C142 0.931 . S
H98 C144 0.930 . S
H99 C145 0.929 . S
O100 H74 0.856 . S
O100 C146 1.300 . S
O101 C146 1.209 . S
O102 C147 1.199 . S
O103 H75 0.854 . S
O103 C147 1.297 . S
C104 C105 1.404 . S
C104 C109 1.397 . S
C104 C110 1.492 1_545 S
C105 C104 1.404 . S
C105 C106 1.396 . S
C105 C116 1.492 . S
C106 C105 1.396 . S
C106 C107 1.397 . S
C106 C122 1.509 . S
C107 C106 1.397 . S
C107 C108 1.412 . S
C107 C128 1.485 . S
C108 C107 1.412 . S
C108 C109 1.388 . S
C108 C134 1.490 . S
C109 C104 1.397 . S
C109 C108 1.388 . S
C109 C140 1.519 1_545 S
C110 C104 1.492 1_565 S
C110 C111 1.363 . S
C110 C115 1.390 . S
C111 H76 0.930 1_565 S
C111 C110 1.363 . S
C111 C112 1.372 . S
C112 H77 0.930 . S
C112 C111 1.372 . S
C112 C113 1.383 . S
C113 C112 1.383 . S
C113 C114 1.395 . S
C114 H78 0.930 . S
C114 C113 1.395 . S
C114 C115 1.362 . S
C115 H79 0.930 . S
C115 C110 1.390 . S
C115 C114 1.362 . S
C116 C105 1.492 . S
C116 C117 1.377 . S
C116 C121 1.397 . S
C117 H80 0.931 . S
C117 C116 1.377 . S
C117 C118 1.376 . S
C118 H81 0.930 . S
C118 C117 1.376 . S
C118 C119 1.376 . S
C119 C118 1.376 . S
C119 C120 1.378 . S
C119 C146 1.486 . S
C120 H82 0.930 . S
C120 C119 1.378 . S
C120 C121 1.376 . S
C121 H83 0.929 . S
C121 C116 1.397 . S
C121 C120 1.376 . S
C122 C106 1.509 . S
C122 C123 1.391 . S
C122 C127 1.386 . S
C123 H84 0.930 . S
C123 C122 1.391 . S
C123 C124 1.375 . S
C124 H85 0.931 . S
C124 C123 1.375 . S
C124 C125 1.375 . S
C125 C124 1.375 . S
C125 C126 1.361 . S
C126 H86 0.930 . S
C126 C125 1.361 . S
C126 C127 1.399 . S
C127 H87 0.929 . S
C127 C122 1.386 . S
C127 C126 1.399 . S
C128 C107 1.485 . S
C128 C129 1.394 . S
C128 C133 1.360 . S
C129 H88 0.931 . S
C129 C128 1.394 . S
C129 C130 1.372 . S
C130 H89 0.930 . S
C130 C129 1.372 . S
C130 C131 1.397 . S
C131 C130 1.397 . S
C131 C132 1.390 . S
C131 C147 1.476 . S
C132 H90 0.930 . S
C132 C131 1.390 . S
C132 C133 1.366 . S
C133 H91 0.932 . S
C133 C128 1.360 . S
C133 C132 1.366 . S
C134 C108 1.490 . S
C134 C135 1.380 . S
C134 C139 1.386 . S
C135 H92 0.930 . S
C135 C134 1.380 . S
C135 C136 1.381 . S
C136 H93 0.929 . S
C136 C135 1.381 . S
C136 C137 1.371 . S
C137 C136 1.371 . S
C137 C138 1.380 . S
C138 H94 0.931 . S
C138 C137 1.380 . S
C138 C139 1.387 . S
C139 H95 0.930 . S
C139 C134 1.386 . S
C139 C138 1.387 . S
C140 C109 1.519 1_565 S
C140 C141 1.377 . S
C140 C145 1.361 . S
C141 H96 0.929 . S
C141 C140 1.377 . S
C141 C142 1.386 . S
C142 H97 0.931 . S
C142 C141 1.386 . S
C142 C143 1.363 . S
C143 C142 1.363 . S
C143 C144 1.385 . S
C144 H98 0.930 . S
C144 C143 1.385 . S
C144 C145 1.396 . S
C145 H99 0.929 . S
C145 C140 1.361 . S
C145 C144 1.396 . S
C146 O100 1.300 . S
C146 O101 1.209 . S
C146 C119 1.486 . S
C147 O102 1.199 . S
C147 O103 1.297 . S
C147 C131 1.476 . S
H148 O174 0.856 . S
H149 O177 0.854 . S
H150 C185 0.930 . S
H151 C186 0.930 . S
H152 C188 0.930 . S
H153 C189 0.930 . S
H154 C191 0.931 . S
H155 C192 0.930 . S
H156 C194 0.930 . S
H157 C195 0.929 . S
H158 C197 0.930 . S
H159 C198 0.931 . S
H160 C200 0.930 . S
H161 C201 0.929 . S
H162 C203 0.931 . S
H163 C204 0.930 . S
H164 C206 0.930 . S
H165 C207 0.932 . S
H166 C209 0.930 . S
H167 C210 0.929 . S
H168 C212 0.931 . S
H169 C213 0.930 . S
H170 C215 0.929 . S
H171 C216 0.931 . S
H172 C218 0.930 . S
H173 C219 0.929 . S
O174 H148 0.856 . S
O174 C220 1.300 . S
O175 C220 1.209 . S
O176 C221 1.199 . S
O177 H149 0.854 . S
O177 C221 1.297 . S
C178 C179 1.404 . S
C178 C183 1.397 . S
C178 C184 1.492 . S
C179 C178 1.404 . S
C179 C180 1.396 . S
C179 C190 1.492 . S
C180 C179 1.396 . S
C180 C181 1.397 . S
C180 C196 1.509 . S
C181 C180 1.397 . S
C181 C182 1.412 . S
C181 C202 1.485 . S
C182 C181 1.412 . S
C182 C183 1.388 . S
C182 C208 1.490 . S
C183 C178 1.397 . S
C183 C182 1.388 . S
C183 C214 1.519 . S
C184 C178 1.492 . S
C184 C185 1.363 . S
C184 C189 1.390 . S
C185 H150 0.930 . S
C185 C184 1.363 . S
C185 C186 1.372 . S
C186 H151 0.930 . S
C186 C185 1.372 . S
C186 C187 1.383 . S
C187 C186 1.383 . S
C187 C188 1.395 . S
C188 H152 0.930 . S
C188 C187 1.395 . S
C188 C189 1.362 . S
C189 H153 0.930 . S
C189 C184 1.390 . S
C189 C188 1.362 . S
C190 C179 1.492 . S
C190 C191 1.377 . S
C190 C195 1.397 . S
C191 H154 0.931 . S
C191 C190 1.377 . S
C191 C192 1.376 . S
C192 H155 0.930 . S
C192 C191 1.376 . S
C192 C193 1.376 . S
C193 C192 1.376 . S
C193 C194 1.378 . S
C193 C220 1.486 . S
C194 H156 0.930 . S
C194 C193 1.378 . S
C194 C195 1.376 . S
C195 H157 0.929 . S
C195 C190 1.397 . S
C195 C194 1.376 . S
C196 C180 1.509 . S
C196 C197 1.391 . S
C196 C201 1.386 . S
C197 H158 0.930 . S
C197 C196 1.391 . S
C197 C198 1.375 . S
C198 H159 0.931 . S
C198 C197 1.375 . S
C198 C199 1.375 . S
C199 C198 1.375 . S
C199 C200 1.361 . S
C200 H160 0.930 . S
C200 C199 1.361 . S
C200 C201 1.399 . S
C201 H161 0.929 . S
C201 C196 1.386 . S
C201 C200 1.399 . S
C202 C181 1.485 . S
C202 C203 1.394 . S
C202 C207 1.360 . S
C203 H162 0.931 . S
C203 C202 1.394 . S
C203 C204 1.372 . S
C204 H163 0.930 . S
C204 C203 1.372 . S
C204 C205 1.397 . S
C205 C204 1.397 . S
C205 C206 1.390 . S
C205 C221 1.476 . S
C206 H164 0.930 . S
C206 C205 1.390 . S
C206 C207 1.366 . S
C207 H165 0.932 . S
C207 C202 1.360 . S
C207 C206 1.366 . S
C208 C182 1.490 . S
C208 C209 1.380 . S
C208 C213 1.386 . S
C209 H166 0.930 . S
C209 C208 1.380 . S
C209 C210 1.381 . S
C210 H167 0.929 . S
C210 C209 1.381 . S
C210 C211 1.371 . S
C211 C210 1.371 . S
C211 C212 1.380 . S
C212 H168 0.931 . S
C212 C211 1.380 . S
C212 C213 1.387 . S
C213 H169 0.930 . S
C213 C208 1.386 . S
C213 C212 1.387 . S
C214 C183 1.519 . S
C214 C215 1.377 . S
C214 C219 1.361 . S
C215 H170 0.929 . S
C215 C214 1.377 . S
C215 C216 1.386 . S
C216 H171 0.931 . S
C216 C215 1.386 . S
C216 C217 1.363 . S
C217 C216 1.363 . S
C217 C218 1.385 . S
C218 H172 0.930 . S
C218 C217 1.385 . S
C218 C219 1.396 . S
C219 H173 0.929 . S
C219 C214 1.361 . S
C219 C218 1.396 . S
C220 O174 1.300 . S
C220 O175 1.209 . S
C220 C193 1.486 . S
C221 O176 1.199 . S
C221 O177 1.297 . S
C221 C205 1.476 . S
H222 O248 0.856 1_554 S
H223 O251 0.854 . S
H224 C259 0.930 1_455 S
H225 C260 0.930 . S
H226 C262 0.930 . S
H227 C263 0.930 . S
H228 C265 0.931 . S
H229 C266 0.930 . S
H230 C268 0.930 . S
H231 C269 0.929 . S
H232 C271 0.930 . S
H233 C272 0.931 . S
H234 C274 0.930 . S
H235 C275 0.929 . S
H236 C277 0.931 . S
H237 C278 0.930 . S
H238 C280 0.930 . S
H239 C281 0.932 . S
H240 C283 0.930 . S
H241 C284 0.929 . S
H242 C286 0.931 . S
H243 C287 0.930 . S
H244 C289 0.929 . S
H245 C290 0.931 . S
H246 C292 0.930 . S
H247 C293 0.929 . S
O248 H222 0.856 1_556 S
O248 C294 1.300 . S
O249 C294 1.209 . S
O250 C295 1.199 . S
O251 H223 0.854 . S
O251 C295 1.297 . S
C252 C253 1.404 . S
C252 C257 1.397 . S
C252 C258 1.492 1_455 S
C253 C252 1.404 . S
C253 C254 1.396 . S
C253 C264 1.492 . S
C254 C253 1.396 . S
C254 C255 1.397 . S
C254 C270 1.509 . S
C255 C254 1.397 . S
C255 C256 1.412 . S
C255 C276 1.485 . S
C256 C255 1.412 . S
C256 C257 1.388 . S
C256 C282 1.490 . S
C257 C252 1.397 . S
C257 C256 1.388 . S
C257 C288 1.519 1_455 S
C258 C252 1.492 1_655 S
C258 C259 1.363 . S
C258 C263 1.390 . S
C259 H224 0.930 1_655 S
C259 C258 1.363 . S
C259 C260 1.372 . S
C260 H225 0.930 . S
C260 C259 1.372 . S
C260 C261 1.383 . S
C261 C260 1.383 . S
C261 C262 1.395 . S
C262 H226 0.930 . S
C262 C261 1.395 . S
C262 C263 1.362 . S
C263 H227 0.930 . S
C263 C258 1.390 . S
C263 C262 1.362 . S
C264 C253 1.492 . S
C264 C265 1.377 . S
C264 C269 1.397 . S
C265 H228 0.931 . S
C265 C264 1.377 . S
C265 C266 1.376 . S
C266 H229 0.930 . S
C266 C265 1.376 . S
C266 C267 1.376 . S
C267 C266 1.376 . S
C267 C268 1.378 . S
C267 C294 1.486 . S
C268 H230 0.930 . S
C268 C267 1.378 . S
C268 C269 1.376 . S
C269 H231 0.929 . S
C269 C264 1.397 . S
C269 C268 1.376 . S
C270 C254 1.509 . S
C270 C271 1.391 . S
C270 C275 1.386 . S
C271 H232 0.930 . S
C271 C270 1.391 . S
C271 C272 1.375 . S
C272 H233 0.931 . S
C272 C271 1.375 . S
C272 C273 1.375 . S
C273 C272 1.375 . S
C273 C274 1.361 . S
C274 H234 0.930 . S
C274 C273 1.361 . S
C274 C275 1.399 . S
C275 H235 0.929 . S
C275 C270 1.386 . S
C275 C274 1.399 . S
C276 C255 1.485 . S
C276 C277 1.394 . S
C276 C281 1.360 . S
C277 H236 0.931 . S
C277 C276 1.394 . S
C277 C278 1.372 . S
C278 H237 0.930 . S
C278 C277 1.372 . S
C278 C279 1.397 . S
C279 C278 1.397 . S
C279 C280 1.390 . S
C279 C295 1.476 . S
C280 H238 0.930 . S
C280 C279 1.390 . S
C280 C281 1.366 . S
C281 H239 0.932 . S
C281 C276 1.360 . S
C281 C280 1.366 . S
C282 C256 1.490 . S
C282 C283 1.380 . S
C282 C287 1.386 . S
C283 H240 0.930 . S
C283 C282 1.380 . S
C283 C284 1.381 . S
C284 H241 0.929 . S
C284 C283 1.381 . S
C284 C285 1.371 . S
C285 C284 1.371 . S
C285 C286 1.380 . S
C286 H242 0.931 . S
C286 C285 1.380 . S
C286 C287 1.387 . S
C287 H243 0.930 . S
C287 C282 1.386 . S
C287 C286 1.387 . S
C288 C257 1.519 1_655 S
C288 C289 1.377 . S
C288 C293 1.361 . S
C289 H244 0.929 . S
C289 C288 1.377 . S
C289 C290 1.386 . S
C290 H245 0.931 . S
C290 C289 1.386 . S
C290 C291 1.363 . S
C291 C290 1.363 . S
C291 C292 1.385 . S
C292 H246 0.930 . S
C292 C291 1.385 . S
C292 C293 1.396 . S
C293 H247 0.929 . S
C293 C288 1.361 . S
C293 C292 1.396 . S
C294 O248 1.300 . S
C294 O249 1.209 . S
C294 C267 1.486 . S
C295 O250 1.199 . S
C295 O251 1.297 . S
C295 C279 1.476 . S
H296 O322 0.856 . S
H297 O325 0.854 . S
H298 C333 0.930 . S
H299 C334 0.930 . S
H300 C336 0.930 . S
H301 C337 0.930 . S
H302 C339 0.931 . S
H303 C340 0.930 . S
H304 C342 0.930 . S
H305 C343 0.929 . S
H306 C345 0.930 . S
H307 C346 0.931 . S
H308 C348 0.930 . S
H309 C349 0.929 . S
H310 C351 0.931 . S
H311 C352 0.930 . S
H312 C354 0.930 . S
H313 C355 0.932 . S
H314 C357 0.930 1_545 S
H315 C358 0.949 . S
H316 C360 0.931 . S
H317 C361 0.930 . S
H318 C363 0.929 1_556 S
H319 C364 0.931 . S
H320 C366 0.930 . S
H321 C367 0.929 . S
O322 H296 0.856 . S
O322 C368 1.300 . S
O323 C368 1.209 . S
O324 C369 1.199 . S
O325 H297 0.854 . S
O325 C369 1.297 . S
C326 C327 1.404 1_545 S
C326 C331 1.397 . S
C326 C332 1.492 . S
C327 C326 1.404 1_565 S
C327 C328 1.396 . S
C327 C338 1.492 . S
C328 C327 1.396 . S
C328 C329 1.397 . S
C328 C344 1.509 . S
C329 C328 1.397 . S
C329 C330 1.412 1_556 S
C329 C350 1.485 1_556 S
C330 C329 1.412 1_554 S
C330 C331 1.388 1_564 S
C330 C356 1.490 . S
C331 C326 1.397 . S
C331 C330 1.388 1_546 S
C331 C362 1.519 1_556 S
C332 C326 1.492 . S
C332 C333 1.363 . S
C332 C337 1.390 . S
C333 H298 0.930 . S
C333 C332 1.363 . S
C333 C334 1.372 . S
C334 H299 0.930 . S
C334 C333 1.372 . S
C334 C335 1.383 . S
C335 C334 1.383 . S
C335 C336 1.395 . S
C336 H300 0.930 . S
C336 C335 1.395 . S
C336 C337 1.362 . S
C337 H301 0.930 . S
C337 C332 1.390 . S
C337 C336 1.362 . S
C338 C327 1.492 . S
C338 C339 1.377 . S
C338 C343 1.397 . S
C339 H302 0.931 . S
C339 C338 1.377 . S
C339 C340 1.376 . S
C340 H303 0.930 . S
C340 C339 1.376 . S
C340 C341 1.376 . S
C341 C340 1.376 . S
C341 C342 1.378 . S
C341 C368 1.486 . S
C342 H304 0.930 . S
C342 C341 1.378 . S
C342 C343 1.376 . S
C343 H305 0.929 . S
C343 C338 1.397 . S
C343 C342 1.376 . S
C344 C328 1.509 . S
C344 C345 1.391 . S
C344 C349 1.386 . S
C345 H306 0.930 . S
C345 C344 1.391 . S
C345 C346 1.375 . S
C346 H307 0.931 . S
C346 C345 1.375 . S
C346 C347 1.375 . S
C347 C346 1.375 . S
C347 C348 1.361 . S
C348 H308 0.930 . S
C348 C347 1.361 . S
C348 C349 1.399 . S
C349 H309 0.929 . S
C349 C344 1.386 . S
C349 C348 1.399 . S
C350 C329 1.485 1_554 S
C350 C351 1.394 . S
C350 C355 1.360 . S
C351 H310 0.931 . S
C351 C350 1.394 . S
C351 C352 1.372 . S
C352 H311 0.930 . S
C352 C351 1.372 . S
C352 C353 1.397 . S
C353 C352 1.397 . S
C353 C354 1.390 . S
C353 C369 1.476 . S
C354 H312 0.930 . S
C354 C353 1.390 . S
C354 C355 1.366 . S
C355 H313 0.932 . S
C355 C350 1.360 . S
C355 C354 1.366 . S
C356 C330 1.490 . S
C356 C357 1.380 . S
C356 C361 1.386 . S
C357 H314 0.930 1_565 S
C357 C356 1.380 . S
C357 C358 1.377 1_565 S
C358 H315 0.949 . S
C358 C357 1.377 1_545 S
C358 C359 1.356 1_545 S
C359 C358 1.356 1_565 S
C359 C360 1.380 . S
C360 H316 0.931 . S
C360 C359 1.380 . S
C360 C361 1.387 . S
C361 H317 0.930 . S
C361 C356 1.386 . S
C361 C360 1.387 . S
C362 C331 1.519 1_554 S
C362 C363 1.377 . S
C362 C367 1.361 . S
C363 H318 0.929 1_554 S
C363 C362 1.377 . S
C363 C364 1.386 . S
C364 H319 0.931 . S
C364 C363 1.386 . S
C364 C365 1.363 . S
C365 C364 1.363 . S
C365 C366 1.385 . S
C366 H320 0.930 . S
C366 C365 1.385 . S
C366 C367 1.396 . S
C367 H321 0.929 . S
C367 C362 1.361 . S
C367 C366 1.396 . S
C368 O322 1.300 . S
C368 O323 1.209 . S
C368 C341 1.486 . S
C369 O324 1.199 . S
C369 O325 1.297 . S
C369 C353 1.476 . S
H370 O396 0.856 . S
H371 O399 0.854 . S
H372 C407 0.930 . S
H373 C408 0.930 . S
H374 C410 0.930 . S
H375 C411 0.930 . S
H376 C413 0.931 . S
H377 C414 0.930 . S
H378 C416 0.930 . S
H379 C417 0.929 . S
H380 C419 0.930 . S
H381 C420 0.931 . S
H382 C422 0.930 . S
H383 C423 0.929 . S
H384 C425 0.931 . S
H385 C426 0.930 . S
H386 C428 0.930 . S
H387 C429 0.932 . S
H388 C431 0.930 . S
H389 C432 0.929 . S
H390 C434 0.931 . S
H391 C435 0.930 . S
H392 C437 0.929 . S
H393 C438 0.931 . S
H394 C440 0.930 . S
H395 C441 0.929 . S
O396 H370 0.856 . S
O396 C442 1.300 . S
O397 C442 1.209 . S
O398 C443 1.199 . S
O399 H371 0.854 . S
O399 C443 1.297 . S
C400 C401 1.404 . S
C400 C405 1.397 . S
C400 C406 1.492 . S
C401 C400 1.404 . S
C401 C402 1.396 . S
C401 C412 1.492 . S
C402 C401 1.396 . S
C402 C403 1.397 . S
C402 C418 1.509 . S
C403 C402 1.397 . S
C403 C404 1.412 . S
C403 C424 1.485 . S
C404 C403 1.412 . S
C404 C405 1.388 . S
C404 C430 1.490 . S
C405 C400 1.397 . S
C405 C404 1.388 . S
C405 C436 1.519 . S
C406 C400 1.492 . S
C406 C407 1.363 . S
C406 C411 1.390 . S
C407 H372 0.930 . S
C407 C406 1.363 . S
C407 C408 1.372 . S
C408 H373 0.930 . S
C408 C407 1.372 . S
C408 C409 1.383 . S
C409 C408 1.383 . S
C409 C410 1.395 . S
C410 H374 0.930 . S
C410 C409 1.395 . S
C410 C411 1.362 . S
C411 H375 0.930 . S
C411 C406 1.390 . S
C411 C410 1.362 . S
C412 C401 1.492 . S
C412 C413 1.377 . S
C412 C417 1.397 . S
C413 H376 0.931 . S
C413 C412 1.377 . S
C413 C414 1.376 . S
C414 H377 0.930 . S
C414 C413 1.376 . S
C414 C415 1.376 . S
C415 C414 1.376 . S
C415 C416 1.378 . S
C415 C442 1.486 1_554 S
C416 H378 0.930 . S
C416 C415 1.378 . S
C416 C417 1.376 . S
C417 H379 0.929 . S
C417 C412 1.397 . S
C417 C416 1.376 . S
C418 C402 1.509 . S
C418 C419 1.391 . S
C418 C423 1.386 . S
C419 H380 0.930 . S
C419 C418 1.391 . S
C419 C420 1.375 . S
C420 H381 0.931 . S
C420 C419 1.375 . S
C420 C421 1.375 . S
C421 C420 1.375 . S
C421 C422 1.361 . S
C422 H382 0.930 . S
C422 C421 1.361 . S
C422 C423 1.399 . S
C423 H383 0.929 . S
C423 C418 1.386 . S
C423 C422 1.399 . S
C424 C403 1.485 . S
C424 C425 1.394 . S
C424 C429 1.360 . S
C425 H384 0.931 . S
C425 C424 1.394 . S
C425 C426 1.372 . S
C426 H385 0.930 . S
C426 C425 1.372 . S
C426 C427 1.397 . S
C427 C426 1.397 . S
C427 C428 1.390 . S
C427 C443 1.476 . S
C428 H386 0.930 . S
C428 C427 1.390 . S
C428 C429 1.366 . S
C429 H387 0.932 . S
C429 C424 1.360 . S
C429 C428 1.366 . S
C430 C404 1.490 . S
C430 C431 1.380 . S
C430 C435 1.386 . S
C431 H388 0.930 . S
C431 C430 1.380 . S
C431 C432 1.381 . S
C432 H389 0.929 . S
C432 C431 1.381 . S
C432 C433 1.371 . S
C433 C432 1.371 . S
C433 C434 1.380 . S
C434 H390 0.931 . S
C434 C433 1.380 . S
C434 C435 1.387 . S
C435 H391 0.930 . S
C435 C430 1.386 . S
C435 C434 1.387 . S
C436 C405 1.519 . S
C436 C437 1.377 . S
C436 C441 1.361 . S
C437 H392 0.929 . S
C437 C436 1.377 . S
C437 C438 1.386 . S
C438 H393 0.931 . S
C438 C437 1.386 . S
C438 C439 1.363 . S
C439 C438 1.363 . S
C439 C440 1.385 . S
C440 H394 0.930 . S
C440 C439 1.385 . S
C440 C441 1.396 . S
C441 H395 0.929 . S
C441 C436 1.361 . S
C441 C440 1.396 . S
C442 O396 1.300 . S
C442 O397 1.209 . S
C442 C415 1.486 1_556 S
C443 O398 1.199 . S
C443 O399 1.297 . S
C443 C427 1.476 . S
Mg444 O445 2.028 . S
Mg444 O451 1.986 . S
Mg444 O453 2.114 . S
Mg444 O454 2.251 . S
Mg444 O457 2.010 . S
O445 Mg444 2.028 . S
O445 C448 1.250 . S
O446 Mg447 2.028 . S
O446 C448 1.248 . S
Mg447 O446 2.028 . S
Mg447 O452 2.032 . S
Mg447 O454 2.079 . S
C448 O445 1.250 . S
C448 O446 1.248 . S
C449 O450 1.264 . S
C449 O457 1.249 . S
O450 C449 1.264 . S
O451 Mg444 1.986 . S
O451 C455 1.246 . S
O452 Mg447 2.032 . S
O452 C455 1.259 . S
O453 Mg444 2.114 . S
O453 C456 1.252 . S
O454 Mg444 2.251 . S
O454 Mg447 2.079 . S
O454 C456 1.273 . S
C455 O451 1.246 . S
C455 O452 1.259 . S
C456 O453 1.252 . S
C456 O454 1.273 . S
O457 Mg444 2.010 . S
O457 C449 1.249 . S
Mg458 O459 2.028 . S
Mg458 O465 1.986 . S
Mg458 O467 2.114 . S
Mg458 O468 2.251 . S
Mg458 O471 2.010 . S
O459 Mg458 2.028 . S
O459 C462 1.250 . S
O460 Mg461 2.028 . S
O460 C462 1.248 . S
Mg461 O460 2.028 . S
Mg461 O466 2.032 . S
Mg461 O468 2.079 . S
C462 O459 1.250 . S
C462 O460 1.248 . S
C463 O464 1.264 . S
C463 O471 1.249 . S
O464 C463 1.264 . S
O465 Mg458 1.986 . S
O465 C469 1.246 . S
O466 Mg461 2.032 . S
O466 C469 1.259 . S
O467 Mg458 2.114 . S
O467 C470 1.252 . S
O468 Mg458 2.251 . S
O468 Mg461 2.079 . S
O468 C470 1.273 . S
C469 O465 1.246 . S
C469 O466 1.259 . S
C470 O467 1.252 . S
C470 O468 1.273 . S
O471 Mg458 2.010 . S
O471 C463 1.249 . S
Mg472 O473 2.028 . S
Mg472 O479 1.986 . S
Mg472 O481 2.114 . S
Mg472 O482 2.251 . S
Mg472 O485 2.010 . S
O473 Mg472 2.028 . S
O473 C476 1.250 . S
O474 Mg475 2.028 . S
O474 C476 1.248 . S
Mg475 O474 2.028 . S
Mg475 O480 2.032 . S
Mg475 O482 2.079 . S
C476 O473 1.250 . S
C476 O474 1.248 . S
C477 O478 1.264 . S
C477 O485 1.249 . S
O478 C477 1.264 . S
O479 Mg472 1.986 . S
O479 C483 1.246 . S
O480 Mg475 2.032 . S
O480 C483 1.259 . S
O481 Mg472 2.114 . S
O481 C484 1.252 . S
O482 Mg472 2.251 . S
O482 Mg475 2.079 . S
O482 C484 1.273 . S
C483 O479 1.246 . S
C483 O480 1.259 . S
C484 O481 1.252 . S
C484 O482 1.273 . S
O485 Mg472 2.010 . S
O485 C477 1.249 . S
Mg486 O487 2.028 . S
Mg486 O493 1.986 . S
Mg486 O495 2.114 . S
Mg486 O496 2.251 . S
Mg486 O499 2.010 . S
O487 Mg486 2.028 . S
O487 C490 1.250 . S
O488 Mg489 2.028 . S
O488 C490 1.248 . S
Mg489 O488 2.028 . S
Mg489 O494 2.032 . S
Mg489 O496 2.079 . S
C490 O487 1.250 . S
C490 O488 1.248 . S
C491 O492 1.264 . S
C491 O499 1.249 . S
O492 C491 1.264 . S
O493 Mg486 1.986 . S
O493 C497 1.246 . S
O494 Mg489 2.032 . S
O494 C497 1.259 . S
O495 Mg486 2.114 . S
O495 C498 1.252 . S
O496 Mg486 2.251 . S
O496 Mg489 2.079 . S
O496 C498 1.273 . S
C497 O493 1.246 . S
C497 O494 1.259 . S
C498 O495 1.252 . S
C498 O496 1.273 . S
O499 Mg486 2.010 . S
O499 C491 1.249 . S
Mg500 O501 2.028 . S
Mg500 O507 1.986 . S
Mg500 O509 2.114 . S
Mg500 O510 2.251 . S
Mg500 O513 2.010 . S
O501 Mg500 2.028 . S
O501 C504 1.250 . S
O502 Mg503 2.028 . S
O502 C504 1.248 . S
Mg503 O502 2.028 . S
Mg503 O508 2.032 . S
Mg503 O510 2.079 . S
C504 O501 1.250 . S
C504 O502 1.248 . S
C505 O506 1.264 . S
C505 O513 1.249 . S
O506 C505 1.264 . S
O507 Mg500 1.986 . S
O507 C511 1.246 . S
O508 Mg503 2.032 . S
O508 C511 1.259 . S
O509 Mg500 2.114 . S
O509 C512 1.252 . S
O510 Mg500 2.251 . S
O510 Mg503 2.079 . S
O510 C512 1.273 . S
C511 O507 1.246 . S
C511 O508 1.259 . S
C512 O509 1.252 . S
C512 O510 1.273 . S
O513 Mg500 2.010 . S
O513 C505 1.249 . S
Mg514 O515 2.028 . S
Mg514 O521 1.986 . S
Mg514 O523 2.114 . S
Mg514 O524 2.251 . S
Mg514 O527 2.010 . S
O515 Mg514 2.028 . S
O515 C518 1.250 . S
O516 Mg517 2.028 . S
O516 C518 1.248 . S
Mg517 O516 2.028 . S
Mg517 O522 2.032 . S
Mg517 O524 2.079 . S
C518 O515 1.250 . S
C518 O516 1.248 . S
C519 O520 1.264 . S
C519 O527 1.249 . S
O520 C519 1.264 . S
O521 Mg514 1.986 . S
O521 C525 1.246 . S
O522 Mg517 2.032 . S
O522 C525 1.259 . S
O523 Mg514 2.114 . S
O523 C526 1.252 . S
O524 Mg514 2.251 . S
O524 Mg517 2.079 . S
O524 C526 1.273 . S
C525 O521 1.246 . S
C525 O522 1.259 . S
C526 O523 1.252 . S
C526 O524 1.273 . S
O527 Mg514 2.010 . S
O527 C519 1.249 . S
C528 C529 1.369 . S
C528 C530 1.419 . S
C528 H532 0.930 . S
C529 C528 1.369 . S
C529 C538 1.429 . S
C530 C528 1.419 . S
C530 C531 1.363 . S
C530 H533 0.929 . S
C531 C530 1.363 . S
C531 C537 1.428 . S
H532 C528 0.930 . S
H533 C530 0.929 . S
S534 N535 1.613 . S
S534 N536 1.610 . S
N535 S534 1.613 . S
N535 C538 1.350 . S
N536 S534 1.610 . S
N536 C537 1.351 . S
C537 C531 1.428 . S
C537 N536 1.351 . S
C537 C538 1.434 . S
C538 C529 1.429 . S
C538 N535 1.350 . S
C538 C537 1.434 . S
C539 C540 1.369 . S
C539 C541 1.419 . S
C539 H543 0.930 . S
C540 C539 1.369 . S
C540 C549 1.429 . S
C541 C539 1.419 . S
C541 C542 1.363 . S
C541 H544 0.929 . S
C542 C541 1.363 . S
C542 C548 1.428 . S
H543 C539 0.930 . S
H544 C541 0.929 . S
S545 N546 1.613 . S
S545 N547 1.610 . S
N546 S545 1.613 . S
N546 C549 1.350 . S
N547 S545 1.610 . S
N547 C548 1.351 . S
C548 C542 1.428 . S
C548 N547 1.351 . S
C548 C549 1.434 . S
C549 C540 1.429 . S
C549 N546 1.350 . S
C549 C548 1.434 . S
C550 C551 1.369 . S
C550 C552 1.419 . S
C550 H554 0.930 . S
C551 C550 1.369 . S
C551 C560 1.429 . S
C552 C550 1.419 . S
C552 C553 1.363 . S
C552 H555 0.929 . S
C553 C552 1.363 . S
C553 C559 1.428 . S
H554 C550 0.930 . S
H555 C552 0.929 . S
S556 N557 1.613 . S
S556 N558 1.610 . S
N557 S556 1.613 . S
N557 C560 1.350 . S
N558 S556 1.610 . S
N558 C559 1.351 . S
C559 C553 1.428 . S
C559 N558 1.351 . S
C559 C560 1.434 . S
C560 C551 1.429 . S
C560 N557 1.350 . S
C560 C559 1.434 . S
C561 C562 1.369 . S
C561 C563 1.419 . S
C561 H565 0.930 . S
C562 C561 1.369 . S
C562 C571 1.429 . S
C563 C561 1.419 . S
C563 C564 1.363 . S
C563 H566 0.929 . S
C564 C563 1.363 . S
C564 C570 1.428 . S
H565 C561 0.930 . S
H566 C563 0.929 . S
S567 N568 1.613 . S
S567 N569 1.610 . S
N568 S567 1.613 . S
N568 C571 1.350 . S
N569 S567 1.610 . S
N569 C570 1.351 . S
C570 C564 1.428 . S
C570 N569 1.351 . S
C570 C571 1.434 . S
C571 C562 1.429 . S
C571 N568 1.350 . S
C571 C570 1.434 . S
C572 C573 1.369 . S
C572 C574 1.419 . S
C572 H576 0.930 . S
C573 C572 1.369 . S
C573 C582 1.429 . S
C574 C572 1.419 . S
C574 C575 1.363 . S
C574 H577 0.929 . S
C575 C574 1.363 . S
C575 C581 1.428 . S
H576 C572 0.930 . S
H577 C574 0.929 . S
S578 N579 1.613 . S
S578 N580 1.610 . S
N579 S578 1.613 . S
N579 C582 1.350 . S
N580 S578 1.610 . S
N580 C581 1.351 . S
C581 C575 1.428 . S
C581 N580 1.351 . S
C581 C582 1.434 . S
C582 C573 1.429 . S
C582 N579 1.350 . S
C582 C581 1.434 . S
C583 C584 1.369 . S
C583 C585 1.419 . S
C583 H587 0.930 . S
C584 C583 1.369 . S
C584 C593 1.429 . S
C585 C583 1.419 . S
C585 C586 1.363 . S
C585 H588 0.929 . S
C586 C585 1.363 . S
C586 C592 1.428 . S
H587 C583 0.930 . S
H588 C585 0.929 . S
S589 N590 1.613 . S
S589 N591 1.610 . S
N590 S589 1.613 . S
N590 C593 1.350 . S
N591 S589 1.610 . S
N591 C592 1.351 . S
C592 C586 1.428 . S
C592 N591 1.351 . S
C592 C593 1.434 . S
C593 C584 1.429 . S
C593 N590 1.350 . S
C593 C592 1.434 . S
C594 C595 1.369 . S
C594 C596 1.419 . S
C594 H598 0.930 . S
C595 C594 1.369 . S
C595 C604 1.429 . S
C596 C594 1.419 . S
C596 C597 1.363 . S
C596 H599 0.929 . S
C597 C596 1.363 . S
C597 C603 1.428 . S
H598 C594 0.930 . S
H599 C596 0.929 . S
S600 N601 1.613 . S
S600 N602 1.610 . S
N601 S600 1.613 . S
N601 C604 1.350 . S
N602 S600 1.610 . S
N602 C603 1.351 . S
C603 C597 1.428 . S
C603 N602 1.351 . S
C603 C604 1.434 . S
C604 C595 1.429 . S
C604 N601 1.350 . S
C604 C603 1.434 . S
C605 C606 1.369 . S
C605 C607 1.419 . S
C605 H609 0.930 . S
C606 C605 1.369 . S
C606 C615 1.429 . S
C607 C605 1.419 . S
C607 C608 1.363 . S
C607 H610 0.929 . S
C608 C607 1.363 . S
C608 C614 1.428 . S
H609 C605 0.930 . S
H610 C607 0.929 . S
S611 N612 1.613 . S
S611 N613 1.610 . S
N612 S611 1.613 . S
N612 C615 1.350 . S
N613 S611 1.610 . S
N613 C614 1.351 . S
C614 C608 1.428 . S
C614 N613 1.351 . S
C614 C615 1.434 . S
C615 C606 1.429 . S
C615 N612 1.350 . S
C615 C614 1.434 . S
C616 C617 1.369 . S
C616 C618 1.419 . S
C616 H620 0.930 . S
C617 C616 1.369 . S
C617 C626 1.429 . S
C618 C616 1.419 . S
C618 C619 1.363 . S
C618 H621 0.929 . S
C619 C618 1.363 . S
C619 C625 1.428 . S
H620 C616 0.930 . S
H621 C618 0.929 . S
S622 N623 1.613 . S
S622 N624 1.610 . S
N623 S622 1.613 . S
N623 C626 1.350 . S
N624 S622 1.610 . S
N624 C625 1.351 . S
C625 C619 1.428 . S
C625 N624 1.351 . S
C625 C626 1.434 . S
C626 C617 1.429 . S
C626 N623 1.350 . S
C626 C625 1.434 . S
C627 C628 1.369 . S
C627 C629 1.419 . S
C627 H631 0.930 . S
C628 C627 1.369 . S
C628 C637 1.429 . S
C629 C627 1.419 . S
C629 C630 1.363 . S
C629 H632 0.929 . S
C630 C629 1.363 . S
C630 C636 1.428 . S
H631 C627 0.930 . S
H632 C629 0.929 . S
S633 N634 1.613 . S
S633 N635 1.610 . S
N634 S633 1.613 . S
N634 C637 1.350 . S
N635 S633 1.610 . S
N635 C636 1.351 . S
C636 C630 1.428 . S
C636 N635 1.351 . S
C636 C637 1.434 . S
C637 C628 1.429 . S
C637 N634 1.350 . S
C637 C636 1.434 . S
C638 C639 1.369 . S
C638 C640 1.419 . S
C638 H642 0.930 . S
C639 C638 1.369 . S
C639 C648 1.429 . S
C640 C638 1.419 . S
C640 C641 1.363 . S
C640 H643 0.929 . S
C641 C640 1.363 . S
C641 C647 1.428 . S
H642 C638 0.930 . S
H643 C640 0.929 . S
S644 N645 1.613 . S
S644 N646 1.610 . S
N645 S644 1.613 . S
N645 C648 1.350 . S
N646 S644 1.610 . S
N646 C647 1.351 . S
C647 C641 1.428 . S
C647 N646 1.351 . S
C647 C648 1.434 . S
C648 C639 1.429 . S
C648 N645 1.350 . S
C648 C647 1.434 . S
C649 C650 1.369 . S
C649 C651 1.419 . S
C649 H653 0.930 . S
C650 C649 1.369 . S
C650 C659 1.429 . S
C651 C649 1.419 . S
C651 C652 1.363 . S
C651 H654 0.929 . S
C652 C651 1.363 . S
C652 C658 1.428 . S
H653 C649 0.930 . S
H654 C651 0.929 . S
S655 N656 1.613 . S
S655 N657 1.610 . S
N656 S655 1.613 . S
N656 C659 1.350 . S
N657 S655 1.610 . S
N657 C658 1.351 . S
C658 C652 1.428 . S
C658 N657 1.351 . S
C658 C659 1.434 . S
C659 C650 1.429 . S
C659 N656 1.350 . S
C659 C658 1.434 . S
C660 C661 1.369 . S
C660 C662 1.419 . S
C660 H664 0.930 . S
C661 C660 1.369 . S
C661 C670 1.429 . S
C662 C660 1.419 . S
C662 C663 1.363 . S
C662 H665 0.929 . S
C663 C662 1.363 . S
C663 C669 1.428 . S
H664 C660 0.930 . S
H665 C662 0.929 . S
S666 N667 1.613 . S
S666 N668 1.610 . S
N667 S666 1.613 . S
N667 C670 1.350 . S
N668 S666 1.610 . S
N668 C669 1.351 . S
C669 C663 1.428 . S
C669 N668 1.351 . S
C669 C670 1.434 . S
C670 C661 1.429 . S
C670 N667 1.350 . S
C670 C669 1.434 . S
C671 C672 1.369 . S
C671 C673 1.419 . S
C671 H675 0.930 . S
C672 C671 1.369 . S
C672 C681 1.429 . S
C673 C671 1.419 . S
C673 C674 1.363 . S
C673 H676 0.929 . S
C674 C673 1.363 . S
C674 C680 1.428 . S
H675 C671 0.930 . S
H676 C673 0.929 . S
S677 N678 1.613 . S
S677 N679 1.610 . S
N678 S677 1.613 . S
N678 C681 1.350 . S
N679 S677 1.610 . S
N679 C680 1.351 . S
C680 C674 1.428 . S
C680 N679 1.351 . S
C680 C681 1.434 . S
C681 C672 1.429 . S
C681 N678 1.350 . S
C681 C680 1.434 . S
C682 C683 1.369 . S
C682 C684 1.419 . S
C682 H686 0.930 . S
C683 C682 1.369 . S
C683 C692 1.429 . S
C684 C682 1.419 . S
C684 C685 1.363 . S
C684 H687 0.929 . S
C685 C684 1.363 . S
C685 C691 1.428 . S
H686 C682 0.930 . S
H687 C684 0.929 . S
S688 N689 1.613 . S
S688 N690 1.610 . S
N689 S688 1.613 . S
N689 C692 1.350 . S
N690 S688 1.610 . S
N690 C691 1.351 . S
C691 C685 1.428 . S
C691 N690 1.351 . S
C691 C692 1.434 . S
C692 C683 1.429 . S
C692 N689 1.350 . S
C692 C691 1.434 . S
C693 C694 1.369 . S
C693 C695 1.419 . S
C693 H697 0.930 . S
C694 C693 1.369 . S
C694 C703 1.429 . S
C695 C693 1.419 . S
C695 C696 1.363 . S
C695 H698 0.929 . S
C696 C695 1.363 . S
C696 C702 1.428 . S
H697 C693 0.930 . S
H698 C695 0.929 . S
S699 N700 1.613 . S
S699 N701 1.610 . S
N700 S699 1.613 . S
N700 C703 1.350 . S
N701 S699 1.610 . S
N701 C702 1.351 . S
C702 C696 1.428 . S
C702 N701 1.351 . S
C702 C703 1.434 . S
C703 C694 1.429 . S
C703 N700 1.350 . S
C703 C702 1.434 . S
C704 C705 1.369 . S
C704 C706 1.419 . S
C704 H708 0.930 1_565 S
C705 C704 1.369 . S
C705 C714 1.429 . S
C706 C704 1.419 . S
C706 C707 1.363 . S
C706 H709 0.929 . S
C707 C706 1.363 . S
C707 C713 1.428 . S
H708 C704 0.930 1_545 S
H709 C706 0.929 . S
S710 N711 1.613 . S
S710 N712 1.610 . S
N711 S710 1.613 . S
N711 C714 1.350 . S
N712 S710 1.610 . S
N712 C713 1.351 . S
C713 C707 1.428 . S
C713 N712 1.351 . S
C713 C714 1.434 . S
C714 C705 1.429 . S
C714 N711 1.350 . S
C714 C713 1.434 . S
C715 C716 1.369 . S
C715 C717 1.419 . S
C715 H719 0.930 . S
C716 C715 1.369 . S
C716 C725 1.429 . S
C717 C715 1.419 . S
C717 C718 1.363 . S
C717 H720 0.929 . S
C718 C717 1.363 . S
C718 C724 1.428 . S
H719 C715 0.930 . S
H720 C717 0.929 . S
S721 N722 1.613 . S
S721 N723 1.610 . S
N722 S721 1.613 . S
N722 C725 1.350 . S
N723 S721 1.610 . S
N723 C724 1.351 . S
C724 C718 1.428 . S
C724 N723 1.351 . S
C724 C725 1.434 . S
C725 C716 1.429 . S
C725 N722 1.350 . S
C725 C724 1.434 . S
C726 C727 1.369 . S
C726 C728 1.419 . S
C726 H730 0.930 . S
C727 C726 1.369 . S
C727 C736 1.429 . S
C728 C726 1.419 . S
C728 C729 1.363 . S
C728 H731 0.929 . S
C729 C728 1.363 . S
C729 C735 1.428 . S
H730 C726 0.930 . S
H731 C728 0.929 . S
S732 N733 1.613 . S
S732 N734 1.610 . S
N733 S732 1.613 . S
N733 C736 1.350 . S
N734 S732 1.610 . S
N734 C735 1.351 . S
C735 C729 1.428 . S
C735 N734 1.351 . S
C735 C736 1.434 . S
C736 C727 1.429 . S
C736 N733 1.350 . S
C736 C735 1.434 . S
C737 C738 1.369 . S
C737 C739 1.419 . S
C737 H741 0.930 . S
C738 C737 1.369 . S
C738 C747 1.429 . S
C739 C737 1.419 . S
C739 C740 1.363 . S
C739 H742 0.929 . S
C740 C739 1.363 . S
C740 C746 1.428 . S
H741 C737 0.930 . S
H742 C739 0.929 . S
S743 N744 1.613 . S
S743 N745 1.610 . S
N744 S743 1.613 . S
N744 C747 1.350 . S
N745 S743 1.610 . S
N745 C746 1.351 . S
C746 C740 1.428 . S
C746 N745 1.351 . S
C746 C747 1.434 . S
C747 C738 1.429 . S
C747 N744 1.350 . S
C747 C746 1.434 . S
C748 C749 1.369 . S
C748 C750 1.419 . S
C748 H752 0.930 . S
C749 C748 1.369 . S
C749 C758 1.429 . S
C750 C748 1.419 . S
C750 C751 1.363 . S
C750 H753 0.929 . S
C751 C750 1.363 . S
C751 C757 1.428 . S
H752 C748 0.930 . S
H753 C750 0.929 . S
S754 N755 1.613 . S
S754 N756 1.610 . S
N755 S754 1.613 . S
N755 C758 1.350 . S
N756 S754 1.610 . S
N756 C757 1.351 . S
C757 C751 1.428 . S
C757 N756 1.351 . S
C757 C758 1.434 . S
C758 C749 1.429 . S
C758 N755 1.350 . S
C758 C757 1.434 . S
C759 C760 1.369 . S
C759 C761 1.419 . S
C759 H763 0.930 . S
C760 C759 1.369 . S
C760 C769 1.429 . S
C761 C759 1.419 . S
C761 C762 1.363 . S
C761 H764 0.929 . S
C762 C761 1.363 . S
C762 C768 1.428 . S
H763 C759 0.930 . S
H764 C761 0.929 . S
S765 N766 1.613 . S
S765 N767 1.610 . S
N766 S765 1.613 . S
N766 C769 1.350 . S
N767 S765 1.610 . S
N767 C768 1.351 . S
C768 C762 1.428 . S
C768 N767 1.351 . S
C768 C769 1.434 . S
C769 C760 1.429 . S
C769 N766 1.350 . S
C769 C768 1.434 . S
C770 C771 1.369 . S
C770 C772 1.419 1_554 S
C770 H774 0.930 . S
C771 C770 1.369 . S
C771 C780 1.429 . S
C772 C770 1.419 1_556 S
C772 C773 1.363 . S
C772 H775 0.929 . S
C773 C772 1.363 . S
C773 C779 1.428 . S
H774 C770 0.930 . S
H775 C772 0.929 . S
S776 N777 1.613 . S
S776 N778 1.610 1_554 S
N777 S776 1.613 . S
N777 C780 1.350 . S
N778 S776 1.610 1_556 S
N778 C779 1.351 . S
C779 C773 1.428 . S
C779 N778 1.351 . S
C779 C780 1.434 1_556 S
C780 C771 1.429 . S
C780 N777 1.350 . S
C780 C779 1.434 1_554 S
C781 C782 1.369 . S
C781 C783 1.419 . S
C781 H785 0.930 . S
C782 C781 1.369 . S
C782 C791 1.429 . S
C783 C781 1.419 . S
C783 C784 1.363 . S
C783 H786 0.929 . S
C784 C783 1.363 . S
C784 C790 1.428 . S
H785 C781 0.930 . S
H786 C783 0.929 . S
S787 N788 1.613 . S
S787 N789 1.610 . S
N788 S787 1.613 . S
N788 C791 1.350 . S
N789 S787 1.610 . S
N789 C790 1.351 . S
C790 C784 1.428 . S
C790 N789 1.351 . S
C790 C791 1.434 . S
C791 C782 1.429 . S
C791 N788 1.350 . S
C791 C790 1.434 . S
C531 C519 1.041 . S
C529 C51 1.375 . S
C540 C125 1.527 . S
C542 C449 1.197 . S
C551 C217 2.488 . S
C553 C469 2.558 . S
C562 C291 1.496 . S
C564 C483 1.504 . S
C575 C491 0.850 . S
C573 C347 1.062 . S
C584 C421 0.970 . S
C586 C505 0.838 . S
C595 C143 2.257 . S
C597 C463 1.912 . S
C606 C199 1.547 . S
C608 C477 1.244 . S
C617 C273 0.649 . S
C619 C497 0.634 . S
C630 C511 1.700 . S
C628 C365 1.631 . S
C641 C525 1.906 . S
C639 C439 1.915 . S
C652 C455 2.443 . S
C650 C69 2.366 . S
C661 C63 1.518 . S
C663 C462 1.645 . S
C672 C137 1.615 . S
C674 C476 1.728 . S
C685 C498 1.386 . S
C683 C187 1.336 . S
C694 C261 1.502 . S
C696 C512 1.532 1_556 S
C707 C526 1.674 . S
C705 C359 1.445 . S
C718 C456 1.320 . S
C716 C433 1.190 . S
C729 C518 1.773 . S
C727 C113 1.678 . S
C738 C211 1.381 . S
C740 C448 1.510 . S
C751 C470 1.821 . S
C749 C285 1.652 . S
C760 C335 1.386 . S
C762 C484 1.480 . S
C771 C409 1.349 . S
C773 C490 1.449 . S
C782 C39 1.643 . S
C784 C504 1.717 . S
