# Generated by pormake.
# Topology pyr, (3,6)-cn, num edge types: 1
# Building blocks:
#     Node 0, Type 0, BuildingBlock: ESEHIV_clean_linker_0, # of connection points: 3
#     Node 1, Type 0, BuildingBlock: ESEHIV_clean_linker_0, # of connection points: 3
#     Node 2, Type 0, BuildingBlock: ESEHIV_clean_linker_0, # of connection points: 3
#     Node 3, Type 0, BuildingBlock: ESEHIV_clean_linker_0, # of connection points: 3
#     Node 4, Type 0, BuildingBlock: ESEHIV_clean_linker_0, # of connection points: 3
#     Node 5, Type 0, BuildingBlock: ESEHIV_clean_linker_0, # of connection points: 3
#     Node 6, Type 0, BuildingBlock: ESEHIV_clean_linker_0, # of connection points: 3
#     Node 7, Type 0, BuildingBlock: ESEHIV_clean_linker_0, # of connection points: 3
#     Node 8, Type 1, BuildingBlock: MIFKUJ_clean_sbu_0, # of connection points: 6
#     Node 9, Type 1, BuildingBlock: MIFKUJ_clean_sbu_0, # of connection points: 6
#     Node 10, Type 1, BuildingBlock: MIFKUJ_clean_sbu_0, # of connection points: 6
#     Node 11, Type 1, BuildingBlock: MIFKUJ_clean_sbu_0, # of connection points: 6
#     Edge 12, Type (0, 1), BuildingBlock: MIFKUJ_clean_linker_0, # of connection points: 2
#     Edge 13, Type (0, 1), BuildingBlock: MIFKUJ_clean_linker_0, # of connection points: 2
#     Edge 14, Type (0, 1), BuildingBlock: MIFKUJ_clean_linker_0, # of connection points: 2
#     Edge 15, Type (0, 1), BuildingBlock: MIFKUJ_clean_linker_0, # of connection points: 2
#     Edge 16, Type (0, 1), BuildingBlock: MIFKUJ_clean_linker_0, # of connection points: 2
#     Edge 17, Type (0, 1), BuildingBlock: MIFKUJ_clean_linker_0, # of connection points: 2
#     Edge 18, Type (0, 1), BuildingBlock: MIFKUJ_clean_linker_0, # of connection points: 2
#     Edge 19, Type (0, 1), BuildingBlock: MIFKUJ_clean_linker_0, # of connection points: 2
#     Edge 20, Type (0, 1), BuildingBlock: MIFKUJ_clean_linker_0, # of connection points: 2
#     Edge 21, Type (0, 1), BuildingBlock: MIFKUJ_clean_linker_0, # of connection points: 2
#     Edge 22, Type (0, 1), BuildingBlock: MIFKUJ_clean_linker_0, # of connection points: 2
#     Edge 23, Type (0, 1), BuildingBlock: MIFKUJ_clean_linker_0, # of connection points: 2
#     Edge 24, Type (0, 1), BuildingBlock: MIFKUJ_clean_linker_0, # of connection points: 2
#     Edge 25, Type (0, 1), BuildingBlock: MIFKUJ_clean_linker_0, # of connection points: 2
#     Edge 26, Type (0, 1), BuildingBlock: MIFKUJ_clean_linker_0, # of connection points: 2
#     Edge 27, Type (0, 1), BuildingBlock: MIFKUJ_clean_linker_0, # of connection points: 2
#     Edge 28, Type (0, 1), BuildingBlock: MIFKUJ_clean_linker_0, # of connection points: 2
#     Edge 29, Type (0, 1), BuildingBlock: MIFKUJ_clean_linker_0, # of connection points: 2
#     Edge 30, Type (0, 1), BuildingBlock: MIFKUJ_clean_linker_0, # of connection points: 2
#     Edge 31, Type (0, 1), BuildingBlock: MIFKUJ_clean_linker_0, # of connection points: 2
#     Edge 32, Type (0, 1), BuildingBlock: MIFKUJ_clean_linker_0, # of connection points: 2
#     Edge 33, Type (0, 1), BuildingBlock: MIFKUJ_clean_linker_0, # of connection points: 2
#     Edge 34, Type (0, 1), BuildingBlock: MIFKUJ_clean_linker_0, # of connection points: 2
#     Edge 35, Type (0, 1), BuildingBlock: MIFKUJ_clean_linker_0, # of connection points: 2
# Relax obj value: 0.026
# Max RMSD: 0.079
# Mean RMSD: 0.046
data_MOF--net-pyr--node1-MIFKUJ_clean_sbu_0--node2-ESEHIV_clean_linker_0--edge1-MIFKUJ_clean_linker_0
_symmetry_space_group_name_H-M    P1
_symmetry_Int_Tables_number       1
_symmetry_cell_setting            triclinic
loop_
_symmetry_equiv_pos_as_xyz
'x, y, z'
_cell_length_a     48.815
_cell_length_b     43.709207
_cell_length_c     47.368532
_cell_angle_alpha  86.229368
_cell_angle_beta   88.59835
_cell_angle_gamma 95.986624
loop_
_atom_site_label
_atom_site_type_symbol
_atom_site_fract_x
_atom_site_fract_y
_atom_site_fract_z
_atom_type_partial_charge
H0 H 0.18033 0.22482 0.22861 0.0
H1 H 0.23153 0.15103 0.22482 0.0
H2 H 0.24224 0.2272 0.16198 0.0
C3 C 0.19723 0.21491 0.21865 0.0
C4 C 0.21054 0.22984 0.1941 0.0
C5 C 0.20479 0.18664 0.22997 0.0
C6 C 0.226 0.1732 0.21655 0.0
C7 C 0.23946 0.18762 0.1919 0.0
C8 C 0.23199 0.21618 0.1811 0.0
H9 H 0.31516 0.88275 0.71003 0.0
H10 H 0.38097 0.82519 0.70345 0.0
H11 H 0.31781 0.82253 0.64181 0.0
C12 C 0.32486 0.86535 0.69931 0.0
C13 C 0.3134 0.85389 0.67465 0.0
C14 C 0.34934 0.8553 0.70971 0.0
C15 C 0.3622 0.83326 0.69541 0.0
C16 C 0.35104 0.82151 0.67082 0.0
C17 C 0.32674 0.83204 0.66049 0.0
H18 H 0.69036 0.32759 0.86007 0.0
H19 H 0.69518 0.39881 0.7925 0.0
H20 H 0.6289 0.32538 0.79648 0.0
C21 C 0.68209 0.33748 0.84094 0.0
C22 C 0.65792 0.32299 0.83 0.0
C23 C 0.69584 0.36464 0.82749 0.0
C24 C 0.68497 0.3776 0.8027 0.0
C25 C 0.66034 0.364 0.79177 0.0
C26 C 0.64723 0.33656 0.80544 0.0
H27 H 0.82901 0.68622 0.35519 0.0
H28 H 0.89196 0.69205 0.28922 0.0
H29 H 0.82739 0.61665 0.29518 0.0
C30 C 0.838 0.67703 0.33683 0.0
C31 C 0.82532 0.64974 0.32674 0.0
C32 C 0.86194 0.69268 0.32341 0.0
C33 C 0.87347 0.68027 0.29971 0.0
C34 C 0.86126 0.65268 0.28948 0.0
C35 C 0.8371 0.63771 0.30308 0.0
H36 H 0.78117 0.86409 0.76708 0.0
H37 H 0.84474 0.80333 0.7759 0.0
H38 H 0.78466 0.80512 0.84312 0.0
C39 C 0.79093 0.8468 0.77947 0.0
C40 C 0.77995 0.83614 0.8065 0.0
C41 C 0.81441 0.83526 0.76827 0.0
C42 C 0.82646 0.81221 0.78413 0.0
C43 C 0.81548 0.80086 0.81085 0.0
C44 C 0.79232 0.81297 0.82193 0.0
H45 H 0.63499 0.17454 0.30069 0.0
H46 H 0.69859 0.11369 0.29801 0.0
H47 H 0.70007 0.18109 0.3602 0.0
C48 C 0.6537 0.16666 0.30897 0.0
C49 C 0.66569 0.18029 0.33241 0.0
C50 C 0.66565 0.14296 0.29609 0.0
C51 C 0.68979 0.13267 0.30717 0.0
C52 C 0.7022 0.14606 0.3305 0.0
C53 C 0.6901 0.17 0.3428 0.0
H54 H 0.32048 0.66853 0.14387 0.0
H55 H 0.31393 0.5955 0.21011 0.0
H56 H 0.38189 0.66683 0.2073 0.0
C57 C 0.32845 0.65759 0.16269 0.0
C58 C 0.35289 0.671 0.17396 0.0
C59 C 0.31419 0.63029 0.17538 0.0
C60 C 0.32454 0.61663 0.20016 0.0
C61 C 0.34919 0.62948 0.21157 0.0
C62 C 0.36324 0.65653 0.19823 0.0
H63 H 0.1115 0.31951 0.72512 0.0
H64 H 0.18063 0.31743 0.66749 0.0
H65 H 0.18324 0.38509 0.72946 0.0
C66 C 0.13212 0.32844 0.71762 0.0
C67 C 0.14603 0.35359 0.73035 0.0
C68 C 0.14424 0.31562 0.69452 0.0
C69 C 0.17076 0.32788 0.68462 0.0
C70 C 0.18499 0.35298 0.69695 0.0
C71 C 0.17246 0.36568 0.71985 0.0
Zn72 Zn 0.03856 0.99803 0.51901 0.0
Zn73 Zn 0.98429 0.01564 0.48488 0.0
C74 C 0.05621 0.05951 0.53473 0.0
O75 O 0.07395 0.05836 0.51362 0.0
C76 C 0.95676 0.95885 0.47025 0.0
O77 O 0.93715 0.97007 0.48458 0.0
O78 O 0.06954 0.97626 0.53507 0.0
O79 O 0.00375 0.96999 0.52822 0.0
O80 O 0.97913 0.00924 0.52716 0.0
C81 C 0.07022 0.9695 0.56154 0.0
O82 O 0.04999 0.97615 0.5781 0.0
O83 O 0.03825 0.0366 0.54067 0.0
C84 C 0.94855 0.03837 0.44396 0.0
O85 O 0.96669 0.02787 0.42716 0.0
O86 O 0.95196 0.03644 0.47052 0.0
O87 O 0.0179 0.04117 0.46797 0.0
O88 O 0.04938 0.00965 0.4782 0.0
O89 O 0.98052 0.974 0.46801 0.0
C90 C 0.98323 0.98253 0.53723 0.0
C91 C 0.04119 0.03178 0.46306 0.0
Zn92 Zn 0.52604 0.98202 0.99207 0.0
Zn93 Zn 0.48335 0.0165 0.01686 0.0
C94 C 0.48999 0.94781 0.95749 0.0
O95 O 0.50018 0.92568 0.97268 0.0
C96 C 0.51768 0.05069 0.05377 0.0
O97 O 0.50595 0.07313 0.0407 0.0
O98 O 0.55809 0.96223 0.9769 0.0
O99 O 0.53957 0.02729 0.99231 0.0
O100 O 0.49886 0.03939 0.98036 0.0
C101 C 0.56966 0.97518 0.95423 0.0
O102 O 0.56075 0.00051 0.94314 0.0
O103 O 0.4976 0.97569 0.96216 0.0
C104 C 0.42745 0.02652 0.03503 0.0
O105 O 0.42125 0.99724 0.03083 0.0
O106 O 0.45188 0.03896 0.02971 0.0
O107 O 0.46999 0.97091 0.01909 0.0
O108 O 0.51119 0.95756 0.02802 0.0
O109 O 0.51162 0.02326 0.04682 0.0
C110 C 0.52488 0.04581 0.97955 0.0
C111 C 0.48511 0.95187 0.03051 0.0
Zn112 Zn 0.52455 0.47534 0.48213 0.0
Zn113 Zn 0.47944 0.51683 0.52859 0.0
C114 C 0.56529 0.50991 0.44778 0.0
O115 O 0.54794 0.49851 0.42941 0.0
C116 C 0.4475 0.48121 0.57318 0.0
O117 O 0.46585 0.49604 0.58857 0.0
O118 O 0.53218 0.43714 0.46302 0.0
O119 O 0.52005 0.46226 0.52416 0.0
O120 O 0.51675 0.50665 0.543 0.0
C121 C 0.55081 0.42165 0.47297 0.0
O122 O 0.56336 0.43036 0.49578 0.0
O123 O 0.55956 0.50399 0.47406 0.0
C124 C 0.47009 0.58166 0.53186 0.0
O125 O 0.47506 0.58364 0.50439 0.0
O126 O 0.47161 0.55613 0.54594 0.0
O127 O 0.47112 0.5224 0.48684 0.0
O128 O 0.49462 0.49376 0.46019 0.0
O129 O 0.44985 0.48517 0.54635 0.0
C130 C 0.52487 0.47988 0.54417 0.0
C131 C 0.47651 0.51231 0.46298 0.0
Zn132 Zn 0.98214 0.5243 0.98393 0.0
Zn133 Zn 0.01759 0.48214 0.02931 0.0
C134 C 0.94948 0.48596 0.94919 0.0
O135 O 0.96818 0.5001 0.93107 0.0
C136 C 0.05452 0.51834 0.06042 0.0
O137 O 0.03659 0.5047 0.07959 0.0
O138 O 0.97025 0.56113 0.96179 0.0
O139 O 0.97983 0.53659 0.02437 0.0
O140 O 0.98363 0.49323 0.04982 0.0
C141 C 0.94509 0.56501 0.96637 0.0
O142 O 0.93033 0.54611 0.98498 0.0
O143 O 0.95182 0.49056 0.97538 0.0
C144 C 0.05278 0.43737 0.04245 0.0
O145 O 0.06312 0.44906 0.01772 0.0
O146 O 0.03073 0.44653 0.05201 0.0
O147 O 0.01555 0.46869 0.9892 0.0
O148 O 0.0183 0.51454 0.96661 0.0
O149 O 0.04984 0.51475 0.03441 0.0
C150 C 0.97611 0.52021 0.04759 0.0
C151 C 0.02295 0.48643 0.96742 0.0
H152 H 0.14911 0.1786 0.23955 0.0
H153 H 0.1236 0.15242 0.28073 0.0
H154 H 0.19987 0.13097 0.31753 0.0
H155 H 0.22567 0.15741 0.2763 0.0
H156 H 0.16006 0.08148 0.3217 0.0
H157 H 0.16731 0.18812 0.34199 0.0
H158 H 0.16324 0.24348 0.33173 0.0
H159 H 0.07596 0.22396 0.32282 0.0
H160 H 0.07956 0.16842 0.33262 0.0
H161 H 0.09688 0.0316 0.45609 0.0
H162 H 0.1267 0.05811 0.41793 0.0
H163 H 0.05593 0.0926 0.37902 0.0
H164 H 0.0262 0.06715 0.41767 0.0
H165 H 0.09598 0.13646 0.37779 0.0
H166 H 0.08828 0.03037 0.35427 0.0
H167 H 0.09149 0.97461 0.36292 0.0
H168 H 0.1782 0.9924 0.37635 0.0
H169 H 0.17544 0.04832 0.36813 0.0
C170 C 0.1605 0.16863 0.25655 0.0
C171 C 0.18941 0.17037 0.25488 0.0
C172 C 0.14589 0.1536 0.28001 0.0
C173 C 0.1599 0.14017 0.30232 0.0
C174 C 0.18872 0.14129 0.30052 0.0
C175 C 0.20339 0.15633 0.27699 0.0
C176 C 0.14427 0.12492 0.32745 0.0
C177 C 0.14636 0.09356 0.33429 0.0
C178 C 0.12601 0.14062 0.3434 0.0
C179 C 0.12375 0.17407 0.33784 0.0
C180 C 0.14727 0.19561 0.33766 0.0
C181 C 0.14505 0.22703 0.33195 0.0
C182 C 0.11937 0.23723 0.32657 0.0
C183 C 0.09584 0.21603 0.32697 0.0
C184 C 0.09796 0.18458 0.33264 0.0
C185 C 0.08769 0.04476 0.43934 0.0
C186 C 0.05921 0.04724 0.43979 0.0
C187 C 0.10474 0.05981 0.41749 0.0
C188 C 0.09351 0.07699 0.39537 0.0
C189 C 0.06506 0.0795 0.39586 0.0
C190 C 0.04809 0.0649 0.41792 0.0
C191 C 0.11133 0.09277 0.37186 0.0
C192 C 0.10974 0.12432 0.36534 0.0
C193 C 0.12988 0.07715 0.35608 0.0
C194 C 0.13159 0.04353 0.36087 0.0
C195 C 0.10799 0.0224 0.35926 0.0
C196 C 0.10974 0.99077 0.36405 0.0
C197 C 0.13502 0.97998 0.37026 0.0
C198 C 0.15863 0.00079 0.37159 0.0
C199 C 0.15699 0.03245 0.36684 0.0
H200 H 0.13633 0.95548 0.37397 0.0
H201 H 0.11769 0.26156 0.32214 0.0
H202 H 0.4031 0.8761 0.71733 0.0
H203 H 0.42386 0.89391 0.76057 0.0
H204 H 0.34414 0.88015 0.80358 0.0
H205 H 0.32318 0.86273 0.76014 0.0
H206 H 0.37232 0.93162 0.81892 0.0
H207 H 0.38985 0.82668 0.81219 0.0
H208 H 0.40583 0.78245 0.78919 0.0
H209 H 0.48812 0.82835 0.78207 0.0
H210 H 0.47254 0.87307 0.80465 0.0
H211 H 0.46319 0.89169 0.94853 0.0
H212 H 0.43528 0.87761 0.90844 0.0
H213 H 0.44754 0.97183 0.87327 0.0
H214 H 0.47493 0.98626 0.91387 0.0
H215 H 0.45021 0.87818 0.85587 0.0
H216 H 0.39404 0.9872 0.83153 0.0
H217 H 0.3749 0.02783 0.85726 0.0
H218 H 0.36399 0.96691 0.93249 0.0
H219 H 0.3827 0.92579 0.90712 0.0
C220 C 0.39001 0.8769 0.73601 0.0
C221 C 0.36159 0.86772 0.73549 0.0
C222 C 0.40188 0.88711 0.76068 0.0
C223 C 0.38563 0.88788 0.78545 0.0
C224 C 0.35707 0.87972 0.78473 0.0
C225 C 0.34513 0.86976 0.75993 0.0
C226 C 0.39866 0.89597 0.81234 0.0
C227 C 0.38936 0.91997 0.82704 0.0
C228 C 0.42047 0.8803 0.82326 0.0
C229 C 0.42997 0.85333 0.80989 0.0
C230 C 0.41132 0.82742 0.80555 0.0
C231 C 0.42031 0.80226 0.7926 0.0
C232 C 0.44796 0.80262 0.78412 0.0
C233 C 0.4667 0.82812 0.78862 0.0
C234 C 0.45781 0.85337 0.80151 0.0
C235 C 0.45971 0.90951 0.93243 0.0
C236 C 0.47133 0.94007 0.9343 0.0
C237 C 0.44378 0.9014 0.90948 0.0
C238 C 0.43923 0.92363 0.88783 0.0
C239 C 0.45038 0.95434 0.88991 0.0
C240 C 0.46612 0.96255 0.91307 0.0
C241 C 0.42418 0.91417 0.8624 0.0
C242 C 0.43316 0.88989 0.84787 0.0
C243 C 0.40164 0.92908 0.85211 0.0
C244 C 0.39004 0.95353 0.86748 0.0
C245 C 0.38746 0.98244 0.85353 0.0
C246 C 0.3767 0.00556 0.86806 0.0
C247 C 0.36832 0.99999 0.89652 0.0
C248 C 0.37059 0.97124 0.91048 0.0
C249 C 0.3813 0.94803 0.89604 0.0
H250 H 0.36003 0.01793 0.90773 0.0
H251 H 0.45488 0.78312 0.7741 0.0
H252 H 0.60619 0.37232 0.78426 0.0
H253 H 0.58503 0.39313 0.74199 0.0
H254 H 0.66474 0.40878 0.69914 0.0
H255 H 0.68615 0.3883 0.74172 0.0
H256 H 0.63639 0.45545 0.6858 0.0
H257 H 0.61804 0.34599 0.68667 0.0
H258 H 0.60192 0.29354 0.70676 0.0
H259 H 0.51986 0.31921 0.71658 0.0
H260 H 0.53558 0.37197 0.69692 0.0
H261 H 0.54678 0.42489 0.55295 0.0
H262 H 0.57167 0.40676 0.59374 0.0
H263 H 0.56113 0.49077 0.63376 0.0
H264 H 0.53676 0.50945 0.59262 0.0
H265 H 0.55748 0.39295 0.64639 0.0
H266 H 0.61492 0.50879 0.67629 0.0
H267 H 0.63463 0.55857 0.65282 0.0
H268 H 0.6448 0.51534 0.57496 0.0
H269 H 0.62551 0.46526 0.59806 0.0
C270 C 0.61925 0.38012 0.76582 0.0
C271 C 0.64786 0.3783 0.7663 0.0
C272 C 0.6071 0.39203 0.74161 0.0
C273 C 0.62314 0.40204 0.71705 0.0
C274 C 0.65185 0.40116 0.71773 0.0
C275 C 0.66409 0.38945 0.74211 0.0
C276 C 0.60982 0.41278 0.69062 0.0
C277 C 0.61912 0.44178 0.67723 0.0
C278 C 0.58763 0.39477 0.67888 0.0
C279 C 0.57805 0.36301 0.69056 0.0
C280 C 0.5966 0.34051 0.6933 0.0
C281 C 0.58753 0.31072 0.70458 0.0
C282 C 0.5599 0.30307 0.713 0.0
C283 C 0.54126 0.32518 0.71008 0.0
C284 C 0.55024 0.35503 0.69885 0.0
C285 C 0.54986 0.43967 0.57031 0.0
C286 C 0.53987 0.4688 0.56928 0.0
C287 C 0.56405 0.42917 0.59376 0.0
C288 C 0.56863 0.44745 0.61685 0.0
C289 C 0.55839 0.4764 0.61606 0.0
C290 C 0.5443 0.48701 0.59251 0.0
C291 C 0.58368 0.43591 0.64185 0.0
C292 C 0.5747 0.4067 0.65498 0.0
C293 C 0.60659 0.4534 0.65287 0.0
C294 C 0.6185 0.48335 0.63886 0.0
C295 C 0.62146 0.5099 0.6542 0.0
C296 C 0.63254 0.53817 0.64095 0.0
C297 C 0.64087 0.54014 0.61239 0.0
C298 C 0.63824 0.51381 0.59705 0.0
C299 C 0.6272 0.48549 0.6102 0.0
H300 H 0.64942 0.56205 0.60217 0.0
H301 H 0.55291 0.27999 0.72174 0.0
H302 H 0.86966 0.59252 0.28357 0.0
H303 H 0.88914 0.57034 0.24247 0.0
H304 H 0.90047 0.66035 0.19814 0.0
H305 H 0.88064 0.68267 0.23914 0.0
H306 H 0.87767 0.61551 0.16468 0.0
H307 H 0.95473 0.63011 0.22498 0.0
H308 H 0.97949 0.62531 0.26953 0.0
H309 H 0.96867 0.52665 0.26837 0.0
H310 H 0.94347 0.53084 0.224 0.0
H311 H 0.96378 0.57934 0.0521 0.0
H312 H 0.94464 0.6015 0.09314 0.0
H313 H 0.94076 0.5133 0.14045 0.0
H314 H 0.96081 0.49109 0.09961 0.0
H315 H 0.95949 0.55732 0.17254 0.0
H316 H 0.88212 0.54251 0.11232 0.0
H317 H 0.85793 0.54735 0.06739 0.0
H318 H 0.86929 0.64604 0.06835 0.0
H319 H 0.8938 0.64178 0.11307 0.0
C320 C 0.87619 0.60758 0.26503 0.0
C321 C 0.87363 0.63937 0.26463 0.0
C322 C 0.88748 0.5949 0.24162 0.0
C323 C 0.89645 0.61371 0.21728 0.0
C324 C 0.89374 0.64542 0.21671 0.0
C325 C 0.88261 0.65817 0.24022 0.0
C326 C 0.90852 0.60019 0.19243 0.0
C327 C 0.89577 0.60311 0.1663 0.0
C328 C 0.93174 0.58339 0.19468 0.0
C329 C 0.94696 0.58079 0.22132 0.0
C330 C 0.95742 0.60738 0.23435 0.0
C331 C 0.97158 0.60477 0.25955 0.0
C332 C 0.97559 0.57569 0.27182 0.0
C333 C 0.96551 0.54916 0.25887 0.0
C334 C 0.95131 0.55164 0.23368 0.0
C335 C 0.9588 0.56454 0.07117 0.0
C336 C 0.96372 0.53333 0.07245 0.0
C337 C 0.9477 0.57727 0.09465 0.0
C338 C 0.94078 0.559 0.11982 0.0
C339 C 0.94584 0.52787 0.12125 0.0
C340 C 0.95721 0.51516 0.09783 0.0
C341 C 0.9286 0.5725 0.14471 0.0
C342 C 0.94133 0.56961 0.17088 0.0
C343 C 0.90529 0.58924 0.14251 0.0
C344 C 0.88999 0.59182 0.11593 0.0
C345 C 0.87955 0.56524 0.10287 0.0
C346 C 0.86577 0.56788 0.07744 0.0
C347 C 0.86212 0.59697 0.06496 0.0
C348 C 0.87212 0.6235 0.07798 0.0
C349 C 0.88593 0.62099 0.1034 0.0
H350 H 0.8515 0.59893 0.04524 0.0
H351 H 0.98656 0.57372 0.29132 0.0
H352 H 0.23454 0.12761 0.17888 0.0
H353 H 0.26693 0.10141 0.15161 0.0
H354 H 0.3223 0.18533 0.14162 0.0
H355 H 0.28969 0.21183 0.16881 0.0
H356 H 0.31731 0.15863 0.09268 0.0
H357 H 0.33561 0.12554 0.18796 0.0
H358 H 0.32425 0.10373 0.23668 0.0
H359 H 0.2918 0.01801 0.20487 0.0
H360 H 0.30261 0.03946 0.15591 0.0
H361 H 0.43378 0.08734 0.04618 0.0
H362 H 0.40142 0.11557 0.07145 0.0
H363 H 0.34268 0.03437 0.0792 0.0
H364 H 0.37504 0.00579 0.05412 0.0
H365 H 0.35027 0.06048 0.12943 0.0
H366 H 0.33226 0.09448 0.03375 0.0
H367 H 0.34446 0.11681 0.98535 0.0
H368 H 0.37775 0.20146 0.01852 0.0
H369 H 0.36609 0.17949 0.06717 0.0
C370 C 0.25379 0.14037 0.17122 0.0
C371 C 0.25974 0.17168 0.1762 0.0
C372 C 0.27226 0.1254 0.15559 0.0
C373 C 0.2972 0.1413 0.14491 0.0
C374 C 0.30317 0.17263 0.14971 0.0
C375 C 0.28458 0.18771 0.16523 0.0
C376 C 0.31675 0.12526 0.12832 0.0
C377 C 0.32486 0.13741 0.10087 0.0
C378 C 0.32612 0.09724 0.13881 0.0
C379 C 0.3197 0.08421 0.16825 0.0
C380 C 0.32586 0.10212 0.19134 0.0
C381 C 0.31955 0.08981 0.219 0.0
C382 C 0.30725 0.05953 0.22386 0.0
C383 C 0.3013 0.04147 0.20107 0.0
C384 C 0.30754 0.05369 0.17336 0.0
C385 C 0.41387 0.07553 0.053 0.0
C386 C 0.40699 0.04428 0.04819 0.0
C387 C 0.39537 0.09175 0.06736 0.0
C388 C 0.36962 0.07709 0.07706 0.0
C389 C 0.36248 0.04607 0.07188 0.0
C390 C 0.38095 0.02983 0.05746 0.0
C391 C 0.35065 0.09372 0.09375 0.0
C392 C 0.34271 0.0817 0.12126 0.0
C393 C 0.3416 0.12193 0.08337 0.0
C394 C 0.34854 0.13522 0.05412 0.0
C395 C 0.34239 0.11777 0.03074 0.0
C396 C 0.34917 0.13038 0.00326 0.0
C397 C 0.36194 0.16051 0.99887 0.0
C398 C 0.36789 0.17812 0.02196 0.0
C399 C 0.36118 0.16561 0.04949 0.0
H400 H 0.36717 0.17023 0.97758 0.0
H401 H 0.30238 0.05004 0.2453 0.0
H402 H 0.30153 0.86849 0.61954 0.0
H403 H 0.25926 0.8867 0.60143 0.0
H404 H 0.225 0.88321 0.68653 0.0
H405 H 0.26691 0.86394 0.70476 0.0
H406 H 0.18719 0.86049 0.65071 0.0
H407 H 0.25049 0.95141 0.65316 0.0
H408 H 0.29429 0.98437 0.64349 0.0
H409 H 0.28274 0.98155 0.55409 0.0
H410 H 0.23903 0.94819 0.56322 0.0
H411 H 0.07865 0.95311 0.61717 0.0
H412 H 0.11917 0.93242 0.63717 0.0
H413 H 0.15626 0.93375 0.55343 0.0
H414 H 0.11606 0.95487 0.5333 0.0
H415 H 0.19224 0.95802 0.59007 0.0
H416 H 0.12849 0.86629 0.58843 0.0
H417 H 0.0841 0.83473 0.599 0.0
H418 H 0.09603 0.84044 0.68808 0.0
H419 H 0.14035 0.8724 0.67803 0.0
C420 C 0.2849 0.87127 0.63439 0.0
C421 C 0.28763 0.86486 0.66361 0.0
C422 C 0.26084 0.88195 0.62403 0.0
C423 C 0.23911 0.88669 0.64266 0.0
C424 C 0.24156 0.87983 0.67179 0.0
C425 C 0.26562 0.8691 0.68219 0.0
C426 C 0.21395 0.89906 0.63171 0.0
C427 C 0.18824 0.88201 0.63775 0.0
C428 C 0.21537 0.92692 0.61446 0.0
C429 C 0.24161 0.94705 0.60888 0.0
C430 C 0.2574 0.95761 0.63143 0.0
C431 C 0.28219 0.9764 0.62605 0.0
C432 C 0.29133 0.98498 0.59819 0.0
C433 C 0.27565 0.97485 0.57566 0.0
C434 C 0.25085 0.95602 0.58093 0.0
C435 C 0.09537 0.94888 0.60299 0.0
C436 C 0.09413 0.95566 0.57363 0.0
C437 C 0.11848 0.93694 0.61445 0.0
C438 C 0.14066 0.93133 0.59676 0.0
C439 C 0.13939 0.93793 0.56746 0.0
C440 C 0.11634 0.94989 0.55599 0.0
C441 C 0.16552 0.91929 0.60878 0.0
C442 C 0.19119 0.93648 0.603 0.0
C443 C 0.16401 0.89166 0.62637 0.0
C444 C 0.13761 0.87198 0.63246 0.0
C445 C 0.12157 0.86097 0.61027 0.0
C446 C 0.09643 0.843 0.61616 0.0
C447 C 0.08721 0.83567 0.64419 0.0
C448 C 0.10318 0.84618 0.66638 0.0
C449 C 0.12833 0.86419 0.6606 0.0
H450 H 0.06772 0.82179 0.64871 0.0
H451 H 0.31053 0.99953 0.59407 0.0
H452 H 0.74513 0.38514 0.80002 0.0
H453 H 0.78829 0.40517 0.82106 0.0
H454 H 0.74775 0.39664 0.90353 0.0
H455 H 0.70464 0.37669 0.88264 0.0
H456 H 0.78197 0.45198 0.8936 0.0
H457 H 0.78679 0.34312 0.88608 0.0
H458 H 0.78528 0.29536 0.86095 0.0
H459 H 0.85272 0.33542 0.80608 0.0
H460 H 0.85436 0.38362 0.83063 0.0
H461 H 0.90031 0.46654 0.97775 0.0
H462 H 0.85733 0.44483 0.95758 0.0
H463 H 0.89854 0.44633 0.87585 0.0
H464 H 0.94138 0.46797 0.89579 0.0
H465 H 0.86389 0.39438 0.88545 0.0
H466 H 0.85919 0.5025 0.88943 0.0
H467 H 0.86171 0.55201 0.91175 0.0
H468 H 0.79557 0.51588 0.96993 0.0
H469 H 0.79279 0.46597 0.94801 0.0
C470 C 0.74536 0.3879 0.82257 0.0
C471 C 0.72152 0.37915 0.83969 0.0
C472 C 0.77007 0.39915 0.83461 0.0
C473 C 0.77135 0.40212 0.86395 0.0
C474 C 0.74731 0.39447 0.88089 0.0
C475 C 0.72273 0.38292 0.86893 0.0
C476 C 0.79787 0.41235 0.87717 0.0
C477 C 0.79975 0.43915 0.89214 0.0
C478 C 0.82136 0.3961 0.87468 0.0
C479 C 0.8205 0.36709 0.86 0.0
C480 C 0.80114 0.34184 0.8685 0.0
C481 C 0.80029 0.31467 0.85439 0.0
C482 C 0.81884 0.31238 0.83188 0.0
C483 C 0.83834 0.33724 0.82349 0.0
C484 C 0.83924 0.36448 0.83751 0.0
C485 C 0.90032 0.46177 0.9556 0.0
C486 C 0.92431 0.46904 0.93838 0.0
C487 C 0.87568 0.44957 0.94403 0.0
C488 C 0.87455 0.44432 0.91506 0.0
C489 C 0.89881 0.45021 0.8982 0.0
C490 C 0.92333 0.4626 0.90967 0.0
C491 C 0.84796 0.43393 0.902 0.0
C492 C 0.84607 0.40715 0.88702 0.0
C493 C 0.82458 0.45043 0.90413 0.0
C494 C 0.82599 0.4804 0.91729 0.0
C495 C 0.84531 0.50503 0.90712 0.0
C496 C 0.84677 0.53319 0.91967 0.0
C497 C 0.8289 0.53707 0.94235 0.0
C498 C 0.80944 0.51282 0.95241 0.0
C499 C 0.80788 0.4846 0.93989 0.0
H500 H 0.83009 0.55888 0.95207 0.0
H501 H 0.81816 0.29133 0.82098 0.0
H502 H 0.77841 0.627 0.30147 0.0
H503 H 0.73484 0.60446 0.32448 0.0
H504 H 0.76976 0.61587 0.40638 0.0
H505 H 0.81357 0.63796 0.38347 0.0
H506 H 0.73923 0.55957 0.404 0.0
H507 H 0.72797 0.66591 0.38131 0.0
H508 H 0.72882 0.71364 0.35036 0.0
H509 H 0.66878 0.66894 0.29768 0.0
H510 H 0.66788 0.62077 0.32809 0.0
H511 H 0.6093 0.53095 0.47899 0.0
H512 H 0.65398 0.5566 0.46093 0.0
H513 H 0.62578 0.55313 0.37549 0.0
H514 H 0.58122 0.52805 0.39326 0.0
H515 H 0.65373 0.60772 0.38267 0.0
H516 H 0.66693 0.50088 0.40296 0.0
H517 H 0.66601 0.45256 0.4331 0.0
H518 H 0.72218 0.49757 0.48946 0.0
H519 H 0.72314 0.5463 0.45983 0.0
C520 C 0.77692 0.62434 0.32437 0.0
C521 C 0.79939 0.63439 0.34066 0.0
C522 C 0.75195 0.6117 0.3375 0.0
C523 C 0.74895 0.60887 0.36715 0.0
C524 C 0.77158 0.61799 0.38347 0.0
C525 C 0.79653 0.63077 0.37036 0.0
C526 C 0.72203 0.59686 0.38108 0.0
C527 C 0.72059 0.57036 0.39969 0.0
C528 C 0.69765 0.61067 0.3751 0.0
C529 C 0.69805 0.63965 0.35684 0.0
C530 C 0.71511 0.66618 0.363 0.0
C531 C 0.71557 0.69333 0.34558 0.0
C532 C 0.69891 0.6943 0.32203 0.0
C533 C 0.6817 0.66814 0.31591 0.0
C534 C 0.68119 0.64092 0.33324 0.0
C535 C 0.61256 0.53591 0.45639 0.0
C536 C 0.59174 0.5273 0.43757 0.0
C537 C 0.63814 0.55042 0.44608 0.0
C538 C 0.64334 0.55646 0.41681 0.0
C539 C 0.62228 0.5487 0.39813 0.0
C540 C 0.59681 0.53424 0.40837 0.0
C541 C 0.67083 0.57017 0.40533 0.0
C542 C 0.67238 0.59704 0.38716 0.0
C543 C 0.69527 0.55662 0.41163 0.0
C544 C 0.69486 0.52731 0.42936 0.0
C545 C 0.67892 0.50053 0.4219 0.0
C546 C 0.67842 0.47306 0.43887 0.0
C547 C 0.69396 0.47202 0.46323 0.0
C548 C 0.71011 0.49843 0.47062 0.0
C549 C 0.71065 0.52597 0.45374 0.0
H550 H 0.69355 0.45073 0.47634 0.0
H551 H 0.69929 0.71534 0.30857 0.0
H552 H 0.20553 0.24518 0.13755 0.0
H553 H 0.18306 0.28769 0.116 0.0
H554 H 0.1674 0.31965 0.19843 0.0
H555 H 0.19124 0.27805 0.22031 0.0
H556 H 0.11971 0.30707 0.16436 0.0
H557 H 0.20842 0.36461 0.15889 0.0
H558 H 0.25834 0.37416 0.14799 0.0
H559 H 0.24389 0.36413 0.05986 0.0
H560 H 0.19389 0.35405 0.07028 0.0
H561 H 0.05057 0.4284 0.10007 0.0
H562 H 0.08034 0.39894 0.12961 0.0
H563 H 0.12075 0.37174 0.05458 0.0
H564 H 0.09182 0.40217 0.02504 0.0
H565 H 0.1576 0.38744 0.09085 0.0
H566 H 0.07103 0.32241 0.09612 0.0
H567 H 0.02107 0.31005 0.10573 0.0
H568 H 0.03134 0.33102 0.19239 0.0
H569 H 0.08135 0.34386 0.18319 0.0
C570 C 0.19823 0.26176 0.15115 0.0
C571 C 0.20012 0.25798 0.18076 0.0
C572 C 0.18521 0.28598 0.13875 0.0
C573 C 0.17359 0.30668 0.15568 0.0
C574 C 0.17622 0.30377 0.18509 0.0
C575 C 0.18968 0.27986 0.19751 0.0
C576 C 0.15644 0.32933 0.14265 0.0
C577 C 0.128 0.32513 0.14871 0.0
C578 C 0.16733 0.35225 0.12182 0.0
C579 C 0.1974 0.35833 0.11542 0.0
C580 C 0.2159 0.36416 0.13722 0.0
C581 C 0.24421 0.36974 0.13111 0.0
C582 C 0.25429 0.36969 0.10326 0.0
C583 C 0.23606 0.36414 0.08143 0.0
C584 C 0.20772 0.35853 0.08743 0.0
C585 C 0.06557 0.41579 0.08992 0.0
C586 C 0.06873 0.41726 0.06028 0.0
C587 C 0.08259 0.399 0.10681 0.0
C588 C 0.10259 0.38282 0.09432 0.0
C589 C 0.10553 0.38409 0.0647 0.0
C590 C 0.08887 0.40129 0.04784 0.0
C591 C 0.12064 0.36463 0.11192 0.0
C592 C 0.14927 0.36969 0.10676 0.0
C593 C 0.10988 0.34216 0.13334 0.0
C594 C 0.07985 0.33443 0.13889 0.0
C595 C 0.06259 0.3246 0.11717 0.0
C596 C 0.03428 0.31748 0.12255 0.0
C597 C 0.02303 0.31985 0.14963 0.0
C598 C 0.04008 0.32926 0.17141 0.0
C599 C 0.06841 0.33644 0.16613 0.0
H600 H 0.00111 0.31432 0.15375 0.0
H601 H 0.27622 0.37402 0.09857 0.0
H602 H 0.60225 0.30514 0.83691 0.0
H603 H 0.5795 0.25764 0.86054 0.0
H604 H 0.65863 0.2277 0.88058 0.0
H605 H 0.68159 0.27424 0.85543 0.0
H606 H 0.62655 0.18062 0.86605 0.0
H607 H 0.61672 0.25918 0.93027 0.0
H608 H 0.60399 0.30884 0.94546 0.0
H609 H 0.5194 0.28234 0.92731 0.0
H610 H 0.53169 0.23265 0.91164 0.0
H611 H 0.57981 0.06616 0.97469 0.0
H612 H 0.60171 0.11285 0.94883 0.0
H613 H 0.52211 0.13682 0.92303 0.0
H614 H 0.49992 0.09029 0.94931 0.0
H615 H 0.55394 0.1864 0.94007 0.0
H616 H 0.56544 0.10568 0.87749 0.0
H617 H 0.57964 0.05532 0.86593 0.0
H618 H 0.66338 0.08575 0.88436 0.0
H619 H 0.6496 0.13615 0.89647 0.0
C620 C 0.6149 0.2883 0.84595 0.0
C621 C 0.64386 0.2938 0.84432 0.0
C622 C 0.6018 0.26123 0.85982 0.0
C623 C 0.61728 0.23921 0.87289 0.0
C624 C 0.64616 0.24434 0.87086 0.0
C625 C 0.65929 0.27124 0.85672 0.0
C626 C 0.60341 0.211 0.88885 0.0
C627 C 0.6109 0.18197 0.88243 0.0
C628 C 0.58265 0.21251 0.91003 0.0
C629 C 0.57518 0.24233 0.91951 0.0
C630 C 0.59544 0.26403 0.92932 0.0
C631 C 0.58829 0.29217 0.93805 0.0
C632 C 0.56091 0.29877 0.93728 0.0
C633 C 0.5406 0.27721 0.92785 0.0
C634 C 0.54764 0.24905 0.91906 0.0
C635 C 0.5669 0.08133 0.96354 0.0
C636 C 0.53808 0.07437 0.96399 0.0
C637 C 0.5795 0.10799 0.94865 0.0
C638 C 0.56361 0.12816 0.93362 0.0
C639 C 0.5348 0.12155 0.93438 0.0
C640 C 0.52216 0.09489 0.94935 0.0
C641 C 0.57705 0.15617 0.9172 0.0
C642 C 0.56951 0.18512 0.92357 0.0
C643 C 0.59798 0.15458 0.89625 0.0
C644 C 0.60644 0.12463 0.88809 0.0
C645 C 0.58686 0.10159 0.87919 0.0
C646 C 0.59483 0.07304 0.87254 0.0
C647 C 0.62238 0.06732 0.87446 0.0
C648 C 0.64204 0.09021 0.8829 0.0
C649 C 0.63417 0.11879 0.88962 0.0
H650 H 0.6285 0.04517 0.86938 0.0
H651 H 0.55542 0.32057 0.94404 0.0
H652 H 0.91698 0.7117 0.32892 0.0
H653 H 0.93728 0.75809 0.35005 0.0
H654 H 0.856 0.78518 0.36531 0.0
H655 H 0.83576 0.73993 0.3429 0.0
H656 H 0.88896 0.83384 0.34926 0.0
H657 H 0.89298 0.74823 0.41779 0.0
H658 H 0.9056 0.69741 0.43548 0.0
H659 H 0.99137 0.72935 0.4215 0.0
H660 H 0.97922 0.78028 0.40337 0.0
H661 H 0.90624 0.92769 0.46385 0.0
H662 H 0.89472 0.88343 0.43598 0.0
H663 H 0.9807 0.8815 0.4139 0.0
H664 H 0.99252 0.92625 0.44171 0.0
H665 H 0.95063 0.82188 0.43011 0.0
H666 H 0.9442 0.91077 0.36638 0.0
H667 H 0.92897 0.96146 0.35231 0.0
H668 H 0.84444 0.92262 0.36065 0.0
H669 H 0.85915 0.87178 0.37525 0.0
C670 C 0.90346 0.72781 0.33632 0.0
C671 C 0.87469 0.72182 0.33451 0.0
C672 C 0.91509 0.75418 0.3487 0.0
C673 C 0.89817 0.7749 0.35982 0.0
C674 C 0.86953 0.76952 0.35708 0.0
C675 C 0.85795 0.74338 0.34451 0.0
C676 C 0.90995 0.80175 0.37506 0.0
C677 C 0.90233 0.83112 0.36701 0.0
C678 C 0.92783 0.79847 0.39796 0.0
C679 C 0.93518 0.76792 0.40891 0.0
C680 C 0.91452 0.74433 0.41829 0.0
C681 C 0.92159 0.71553 0.42842 0.0
C682 C 0.94927 0.71012 0.42953 0.0
C683 C 0.96994 0.73355 0.42058 0.0
C684 C 0.96298 0.76239 0.41038 0.0
C685 C 0.9228 0.91781 0.45326 0.0
C686 C 0.95032 0.93063 0.45491 0.0
C687 C 0.91613 0.89255 0.43726 0.0
C688 C 0.93682 0.87942 0.42265 0.0
C689 C 0.96444 0.8914 0.42496 0.0
C690 C 0.97113 0.91698 0.4408 0.0
C691 C 0.92923 0.85363 0.40453 0.0
C692 C 0.93761 0.82455 0.41207 0.0
C693 C 0.9117 0.85707 0.38144 0.0
C694 C 0.90279 0.88749 0.37211 0.0
C695 C 0.92236 0.91307 0.36539 0.0
C696 C 0.91382 0.94184 0.35731 0.0
C697 C 0.88576 0.94528 0.35564 0.0
C698 C 0.86617 0.91992 0.36196 0.0
C699 C 0.8746 0.89112 0.37012 0.0
H700 H 0.87918 0.96757 0.3494 0.0
H701 H 0.9547 0.68781 0.43739 0.0
H702 H 0.3638 0.82124 0.61441 0.0
H703 H 0.38626 0.7823 0.59025 0.0
H704 H 0.39077 0.72945 0.66995 0.0
H705 H 0.36906 0.76882 0.69423 0.0
H706 H 0.43689 0.72948 0.64137 0.0
H707 H 0.34137 0.71018 0.61945 0.0
H708 H 0.29667 0.72338 0.60179 0.0
H709 H 0.3337 0.74822 0.5192 0.0
H710 H 0.37873 0.73555 0.53647 0.0
H711 H 0.45746 0.58486 0.58812 0.0
H712 H 0.43957 0.62748 0.61099 0.0
H713 H 0.44377 0.68099 0.53089 0.0
H714 H 0.46145 0.63833 0.50772 0.0
H715 H 0.39449 0.68177 0.55851 0.0
H716 H 0.49007 0.69816 0.58125 0.0
H717 H 0.5339 0.6833 0.59985 0.0
H718 H 0.49538 0.66166 0.68222 0.0
H719 H 0.45121 0.676 0.66402 0.0
C720 C 0.36952 0.80124 0.6267 0.0
C721 C 0.36462 0.79795 0.65614 0.0
C722 C 0.3823 0.77897 0.6129 0.0
C723 C 0.38984 0.75265 0.6282 0.0
C724 C 0.38517 0.74953 0.65768 0.0
C725 C 0.37276 0.772 0.67153 0.0
C726 C 0.40256 0.72831 0.61356 0.0
C727 C 0.42742 0.71881 0.62346 0.0
C728 C 0.39056 0.71477 0.5898 0.0
C729 C 0.36347 0.72221 0.57933 0.0
C730 C 0.34002 0.71866 0.59757 0.0
C731 C 0.31462 0.72602 0.58763 0.0
C732 C 0.31236 0.73671 0.55941 0.0
C733 C 0.33549 0.73998 0.54106 0.0
C734 C 0.36095 0.73269 0.55091 0.0
C735 C 0.45481 0.60578 0.57536 0.0
C736 C 0.46091 0.60819 0.54607 0.0
C737 C 0.44466 0.63017 0.58851 0.0
C738 C 0.44054 0.65751 0.57268 0.0
C739 C 0.44682 0.6601 0.54349 0.0
C740 C 0.45702 0.63573 0.53032 0.0
C741 C 0.42869 0.68292 0.58641 0.0
C742 C 0.40398 0.69258 0.57635 0.0
C743 C 0.44068 0.69636 0.61017 0.0
C744 C 0.46727 0.68791 0.6212 0.0
C745 C 0.49089 0.69002 0.60328 0.0
C746 C 0.51581 0.68173 0.61376 0.0
C747 C 0.51741 0.67148 0.64219 0.0
C748 C 0.49411 0.66958 0.66021 0.0
C749 C 0.46914 0.67782 0.64982 0.0
H750 H 0.53671 0.66507 0.65026 0.0
H751 H 0.29268 0.7424 0.55175 0.0
H752 H 0.82092 0.89571 0.7478 0.0
H753 H 0.8461 0.91778 0.70482 0.0
H754 H 0.86389 0.8271 0.68432 0.0
H755 H 0.83782 0.80456 0.72673 0.0
H756 H 0.91069 0.87129 0.68448 0.0
H757 H 0.82088 0.85999 0.64523 0.0
H758 H 0.77127 0.86586 0.64314 0.0
H759 H 0.78916 0.96439 0.63814 0.0
H760 H 0.83889 0.95911 0.64063 0.0
H761 H 0.97792 0.92107 0.55325 0.0
H762 H 0.94623 0.89359 0.58929 0.0
H763 H 0.91368 0.97887 0.60629 0.0
H764 H 0.94464 0.0063 0.56953 0.0
H765 H 0.87332 0.93438 0.60648 0.0
H766 H 0.96186 0.94698 0.64888 0.0
H767 H 0.01173 0.94281 0.65182 0.0
H768 H 0.99676 0.84418 0.65292 0.0
H769 H 0.9468 0.84778 0.64953 0.0
C770 C 0.82954 0.88031 0.73383 0.0
C771 C 0.82742 0.84835 0.74081 0.0
C772 C 0.84406 0.89301 0.70935 0.0
C773 C 0.85683 0.87402 0.69151 0.0
C774 C 0.85425 0.84209 0.69797 0.0
C775 C 0.83947 0.82932 0.72227 0.0
C776 C 0.87421 0.8878 0.66702 0.0
C777 C 0.9025 0.88465 0.66713 0.0
C778 C 0.86351 0.90589 0.64494 0.0
C779 C 0.83361 0.90914 0.64338 0.0
C780 C 0.81423 0.88291 0.64394 0.0
C781 C 0.78609 0.88613 0.64263 0.0
C782 C 0.77706 0.91547 0.64058 0.0
C783 C 0.79618 0.94167 0.63976 0.0
C784 C 0.82435 0.93858 0.64109 0.0
C785 C 0.96399 0.93396 0.56466 0.0
C786 C 0.9639 0.96587 0.55877 0.0
C787 C 0.94593 0.91824 0.58528 0.0
C788 C 0.92792 0.93427 0.60082 0.0
C789 C 0.92743 0.96605 0.59458 0.0
C790 C 0.9452 0.9817 0.57366 0.0
C791 C 0.90994 0.9181 0.62397 0.0
C792 C 0.88154 0.92084 0.62369 0.0
C793 C 0.92061 0.89993 0.64612 0.0
C794 C 0.95061 0.89768 0.64865 0.0
C795 C 0.96921 0.92441 0.64957 0.0
C796 C 0.99749 0.92215 0.65133 0.0
C797 C 0.00741 0.89325 0.65248 0.0
C798 C 0.98905 0.86655 0.65198 0.0
C799 C 0.96075 0.86869 0.65016 0.0
H800 H 0.02931 0.89155 0.6538 0.0
H801 H 0.75527 0.91792 0.63956 0.0
H802 H 0.61074 0.1287 0.28654 0.0
H803 H 0.59004 0.10865 0.24427 0.0
H804 H 0.67096 0.10433 0.20697 0.0
H805 H 0.69185 0.12603 0.24861 0.0
H806 H 0.64016 0.12759 0.16933 0.0
H807 H 0.62967 0.03825 0.23287 0.0
H808 H 0.61691 0.00713 0.27745 0.0
H809 H 0.53203 0.02186 0.26716 0.0
H810 H 0.54432 0.05345 0.22271 0.0
H811 H 0.54608 0.01005 0.08487 0.0
H812 H 0.5762 0.02113 0.12436 0.0
H813 H 0.56162 0.1169 0.11504 0.0
H814 H 0.53208 0.10619 0.07537 0.0
H815 H 0.5654 0.04114 0.1742 0.0
H816 H 0.61683 0.16274 0.13278 0.0
H817 H 0.63266 0.19029 0.08724 0.0
H818 H 0.64203 0.10407 0.0515 0.0
H819 H 0.62666 0.07602 0.09693 0.0
C820 C 0.62418 0.12372 0.26928 0.0
C821 C 0.65299 0.1291 0.27098 0.0
C822 C 0.61229 0.11184 0.24525 0.0
C823 C 0.62893 0.10455 0.22256 0.0
C824 C 0.6577 0.10965 0.22425 0.0
C825 C 0.66961 0.12179 0.2482 0.0
C826 C 0.6162 0.09285 0.19665 0.0
C827 C 0.62393 0.10857 0.17039 0.0
C828 C 0.59551 0.06751 0.19785 0.0
C829 C 0.58797 0.0484 0.22453 0.0
C830 C 0.60831 0.03503 0.2402 0.0
C831 C 0.60115 0.01728 0.26544 0.0
C832 C 0.57368 0.01257 0.27516 0.0
C833 C 0.5533 0.02554 0.25962 0.0
C834 C 0.56035 0.04334 0.23437 0.0
C835 C 0.5495 0.03351 0.09109 0.0
C836 C 0.53673 0.05726 0.07695 0.0
C837 C 0.56665 0.03978 0.1137 0.0
C838 C 0.57141 0.0699 0.12248 0.0
C839 C 0.5587 0.0936 0.10832 0.0
C840 C 0.54168 0.08739 0.0857 0.0
C841 C 0.58874 0.07655 0.14711 0.0
C842 C 0.58186 0.05991 0.17311 0.0
C843 C 0.6107 0.10053 0.14555 0.0
C844 C 0.62038 0.11727 0.11824 0.0
C845 C 0.62241 0.14966 0.11526 0.0
C846 C 0.63128 0.16537 0.08945 0.0
C847 C 0.63827 0.14894 0.06647 0.0
C848 C 0.63651 0.11677 0.06929 0.0
C849 C 0.6277 0.10095 0.09506 0.0
H850 H 0.6451 0.16114 0.0465 0.0
H851 H 0.56818 0.99882 0.2947 0.0
H852 H 0.32254 0.61205 0.26256 0.0
H853 H 0.3422 0.59062 0.30592 0.0
H854 H 0.42086 0.59227 0.26212 0.0
H855 H 0.40146 0.6142 0.21897 0.0
H856 H 0.40222 0.53518 0.29635 0.0
H857 H 0.41495 0.64604 0.30242 0.0
H858 H 0.39887 0.69766 0.30269 0.0
H859 H 0.34488 0.66719 0.37422 0.0
H860 H 0.36035 0.61521 0.3741 0.0
H861 H 0.49287 0.51202 0.40738 0.0
H862 H 0.46957 0.53049 0.36566 0.0
H863 H 0.40311 0.55426 0.41897 0.0
H864 H 0.42718 0.53724 0.46098 0.0
H865 H 0.41238 0.59703 0.38034 0.0
H866 H 0.39866 0.48787 0.37706 0.0
H867 H 0.41144 0.43473 0.3775 0.0
H868 H 0.46215 0.45873 0.30235 0.0
H869 H 0.44996 0.51214 0.30166 0.0
C870 C 0.34396 0.6076 0.26218 0.0
C871 C 0.36049 0.61485 0.23743 0.0
C872 C 0.35519 0.59549 0.28695 0.0
C873 C 0.38302 0.58994 0.28727 0.0
C874 C 0.39935 0.59637 0.26235 0.0
C875 C 0.38828 0.60899 0.23777 0.0
C876 C 0.39539 0.57808 0.31368 0.0
C877 C 0.4047 0.54875 0.31467 0.0
C878 C 0.39777 0.59539 0.33788 0.0
C879 C 0.38857 0.62665 0.33804 0.0
C880 C 0.39946 0.65026 0.31803 0.0
C881 C 0.3905 0.6796 0.31819 0.0
C882 C 0.3708 0.68568 0.3384 0.0
C883 C 0.36009 0.66244 0.35855 0.0
C884 C 0.36896 0.63304 0.35845 0.0
C885 C 0.47323 0.52105 0.41026 0.0
C886 C 0.46182 0.52292 0.43758 0.0
C887 C 0.45977 0.53147 0.38629 0.0
C888 C 0.43413 0.5432 0.38889 0.0
C889 C 0.42278 0.54525 0.41621 0.0
C890 C 0.43653 0.53541 0.44027 0.0
C891 C 0.41956 0.55394 0.36319 0.0
C892 C 0.4098 0.58315 0.36224 0.0
C893 C 0.41626 0.53621 0.33919 0.0
C894 C 0.42358 0.50408 0.33946 0.0
C895 C 0.41269 0.48187 0.36074 0.0
C896 C 0.4198 0.45169 0.36101 0.0
C897 C 0.43765 0.44338 0.34001 0.0
C898 C 0.44835 0.46521 0.31863 0.0
C899 C 0.44132 0.49543 0.31826 0.0
H900 H 0.44314 0.42 0.34026 0.0
H901 H 0.3639 0.70841 0.3385 0.0
H902 H 0.14367 0.41485 0.73765 0.0
H903 H 0.1225 0.43798 0.77721 0.0
H904 H 0.09752 0.34734 0.8169 0.0
H905 H 0.11833 0.32408 0.77707 0.0
H906 H 0.05708 0.38199 0.82149 0.0
H907 H 0.15361 0.39484 0.83949 0.0
H908 H 0.20286 0.41093 0.8286 0.0
H909 H 0.18593 0.50523 0.816 0.0
H910 H 0.13649 0.48964 0.82645 0.0
H911 H 0.03015 0.42623 0.96012 0.0
H912 H 0.05037 0.40493 0.91908 0.0
H913 H 0.06486 0.49601 0.87721 0.0
H914 H 0.04451 0.51766 0.91829 0.0
H915 H 0.11019 0.46223 0.87342 0.0
H916 H 0.01322 0.44836 0.85597 0.0
H917 H 0.96428 0.4314 0.86773 0.0
H918 H 0.98292 0.33782 0.88124 0.0
H919 H 0.03204 0.35424 0.86962 0.0
C920 C 0.13382 0.39985 0.7549 0.0
C921 C 0.13284 0.36762 0.75431 0.0
C922 C 0.12173 0.41311 0.77754 0.0
C923 C 0.10875 0.39446 0.80034 0.0
C924 C 0.10741 0.36225 0.7996 0.0
C925 C 0.11929 0.34896 0.77682 0.0
C926 C 0.09649 0.40853 0.82486 0.0
C927 C 0.06885 0.39923 0.83304 0.0
C928 C 0.11157 0.43156 0.83967 0.0
C929 C 0.1413 0.44102 0.83347 0.0
C930 C 0.16036 0.41898 0.83419 0.0
C931 C 0.18831 0.42801 0.82813 0.0
C932 C 0.19751 0.45907 0.82154 0.0
C933 C 0.17877 0.48117 0.82107 0.0
C934 C 0.15078 0.47225 0.82708 0.0
C935 C 0.0376 0.44182 0.94222 0.0
C936 C 0.03561 0.4737 0.94251 0.0
C937 C 0.04908 0.42954 0.91871 0.0
C938 C 0.0589 0.44883 0.89497 0.0
C939 C 0.05735 0.48071 0.89529 0.0
C940 C 0.04566 0.49302 0.91876 0.0
C941 C 0.07093 0.4356 0.86996 0.0
C942 C 0.09849 0.44504 0.86176 0.0
C943 C 0.05587 0.41254 0.85527 0.0
C944 C 0.02634 0.40258 0.86217 0.0
C945 C 0.00692 0.4242 0.86165 0.0
C946 C 0.97914 0.41468 0.86826 0.0
C947 C 0.97051 0.38359 0.87538 0.0
C948 C 0.98964 0.36191 0.87576 0.0
C949 C 0.01744 0.37129 0.86909 0.0
H950 H 0.94899 0.37628 0.88052 0.0
H951 H 0.21916 0.46602 0.81685 0.0
H952 H 0.73689 0.80751 0.84007 0.0
H953 H 0.70091 0.8315 0.86423 0.0
H954 H 0.73293 0.92034 0.82494 0.0
H955 H 0.77016 0.89688 0.80232 0.0
H956 H 0.72243 0.92633 0.87742 0.0
H957 H 0.67162 0.87896 0.80427 0.0
H958 H 0.65432 0.83715 0.77476 0.0
H959 H 0.61535 0.78605 0.84807 0.0
H960 H 0.63274 0.82738 0.8781 0.0
H961 H 0.60419 0.0018 0.91138 0.0
H962 H 0.63955 0.97811 0.88561 0.0
H963 H 0.6202 0.89341 0.93753 0.0
H964 H 0.58484 0.917 0.96361 0.0
H965 H 0.62352 0.88614 0.87805 0.0
H966 H 0.67624 0.93595 0.95055 0.0
H967 H 0.69229 0.98029 0.97768 0.0
H968 H 0.72619 0.02997 0.90139 0.0
H969 H 0.71004 0.98603 0.87374 0.0
C970 C 0.73642 0.83219 0.83668 0.0
C971 C 0.75652 0.85023 0.81925 0.0
C972 C 0.71556 0.84583 0.85022 0.0
C973 C 0.71396 0.8777 0.84614 0.0
C974 C 0.73369 0.89569 0.82837 0.0
C975 C 0.75479 0.88214 0.81515 0.0
C976 C 0.69247 0.89249 0.86137 0.0
C977 C 0.70077 0.91777 0.87715 0.0
C978 C 0.6642 0.88109 0.86147 0.0
C979 C 0.65372 0.85615 0.84348 0.0
C980 C 0.65955 0.8587 0.81414 0.0
C981 C 0.64969 0.8351 0.79731 0.0
C982 C 0.63381 0.80892 0.80954 0.0
C983 C 0.62769 0.80632 0.83863 0.0
C984 C 0.63752 0.82984 0.85556 0.0
C985 C 0.60753 0.97817 0.91741 0.0
C986 C 0.59179 0.96125 0.93955 0.0
C987 C 0.62775 0.96471 0.90269 0.0
C988 C 0.63245 0.93408 0.90976 0.0
C989 C 0.61679 0.9171 0.93181 0.0
C990 C 0.59675 0.93064 0.94676 0.0
C991 C 0.65363 0.9197 0.89396 0.0
C992 C 0.64522 0.89458 0.87815 0.0
C993 C 0.6817 0.93154 0.89341 0.0
C994 C 0.69173 0.95781 0.91006 0.0
C995 C 0.68696 0.95641 0.93953 0.0
C996 C 0.6961 0.98145 0.95501 0.0
C997 C 0.71019 0.00796 0.94126 0.0
C998 C 0.71525 0.00943 0.91201 0.0
C999 C 0.70615 0.98445 0.89644 0.0
H1000 H 0.71724 0.02733 0.95327 0.0
H1001 H 0.62619 0.79069 0.79647 0.0
H1002 H 0.74709 0.13004 0.30118 0.0
H1003 H 0.78888 0.11168 0.32049 0.0
H1004 H 0.75723 0.11931 0.40525 0.0
H1005 H 0.71514 0.13713 0.38618 0.0
H1006 H 0.81106 0.14403 0.39788 0.0
H1007 H 0.75633 0.05014 0.37934 0.0
H1008 H 0.72861 0.01445 0.35037 0.0
H1009 H 0.79804 0.01248 0.29333 0.0
H1010 H 0.82607 0.04855 0.32173 0.0
H1011 H 0.90563 0.05899 0.47289 0.0
H1012 H 0.86417 0.07778 0.4533 0.0
H1013 H 0.89406 0.06473 0.36893 0.0
H1014 H 0.93536 0.04541 0.38836 0.0
H1015 H 0.84117 0.04304 0.37584 0.0
H1016 H 0.89597 0.13683 0.39378 0.0
H1017 H 0.92397 0.17278 0.42227 0.0
H1018 H 0.85495 0.17541 0.47971 0.0
H1019 H 0.82664 0.13912 0.45176 0.0
C1020 C 0.74886 0.12749 0.32394 0.0
C1021 C 0.72772 0.13501 0.34213 0.0
C1022 C 0.7728 0.11709 0.33493 0.0
C1023 C 0.77605 0.11395 0.3643 0.0
C1024 C 0.75514 0.12167 0.38251 0.0
C1025 C 0.73116 0.13196 0.37156 0.0
C1026 C 0.80135 0.10276 0.37606 0.0
C1027 C 0.81749 0.12178 0.39337 0.0
C1028 C 0.81002 0.07406 0.36958 0.0
C1029 C 0.79321 0.05232 0.3525 0.0
C1030 C 0.76562 0.04232 0.36047 0.0
C1031 C 0.74986 0.02198 0.34418 0.0
C1032 C 0.76153 0.01127 0.31998 0.0
C1033 C 0.78901 0.02083 0.31206 0.0
C1034 C 0.80485 0.04121 0.32825 0.0
C1035 C 0.90346 0.06026 0.45015 0.0
C1036 C 0.92386 0.05082 0.43218 0.0
C1037 C 0.87978 0.0711 0.43898 0.0
C1038 C 0.87615 0.07299 0.40962 0.0
C1039 C 0.89645 0.06351 0.39165 0.0
C1040 C 0.9201 0.05258 0.4028 0.0
C1041 C 0.85095 0.08432 0.39767 0.0
C1042 C 0.8348 0.06532 0.38033 0.0
C1043 C 0.84232 0.1131 0.40403 0.0
C1044 C 0.85927 0.13501 0.42083 0.0
C1045 C 0.88682 0.14488 0.41261 0.0
C1046 C 0.90274 0.16536 0.42864 0.0
C1047 C 0.89127 0.17631 0.45283 0.0
C1048 C 0.86382 0.16687 0.46099 0.0
C1049 C 0.84782 0.14637 0.44505 0.0
H1050 H 0.90362 0.19216 0.46521 0.0
H1051 H 0.7493 0.99552 0.3074 0.0
H1052 H 0.30453 0.62437 0.11911 0.0
H1053 H 0.26178 0.60493 0.09759 0.0
H1054 H 0.22308 0.58462 0.18044 0.0
H1055 H 0.26582 0.60438 0.20221 0.0
H1056 H 0.20983 0.53823 0.14504 0.0
H1057 H 0.21145 0.64917 0.14066 0.0
H1058 H 0.23213 0.70241 0.12822 0.0
H1059 H 0.23461 0.68407 0.0403 0.0
H1060 H 0.21428 0.63056 0.05227 0.0
H1061 H 0.0697 0.52719 0.11443 0.0
H1062 H 0.11497 0.5454 0.13087 0.0
H1063 H 0.14595 0.56093 0.04455 0.0
H1064 H 0.10031 0.54244 0.0277 0.0
H1065 H 0.16483 0.60824 0.07834 0.0
H1066 H 0.1608 0.49904 0.08119 0.0
H1067 H 0.14127 0.4452 0.09244 0.0
H1068 H 0.14465 0.45884 0.18127 0.0
H1069 H 0.16373 0.51299 0.17056 0.0
C1070 C 0.28691 0.61593 0.13282 0.0
C1071 C 0.28859 0.61634 0.16245 0.0
C1072 C 0.26247 0.60472 0.12044 0.0
C1073 C 0.23903 0.59372 0.13734 0.0
C1074 C 0.24087 0.59304 0.16694 0.0
C1075 C 0.26536 0.60428 0.17938 0.0
C1076 C 0.21244 0.58372 0.12413 0.0
C1077 C 0.19984 0.55365 0.13072 0.0
C1078 C 0.1998 0.60347 0.10465 0.0
C1079 C 0.21159 0.63578 0.09739 0.0
C1080 C 0.21656 0.65644 0.11869 0.0
C1081 C 0.2282 0.68667 0.11173 0.0
C1082 C 0.23475 0.69659 0.08349 0.0
C1083 C 0.22957 0.67634 0.06216 0.0
C1084 C 0.21796 0.64607 0.06902 0.0
C1085 C 0.08598 0.5347 0.09879 0.0
C1086 C 0.08132 0.53316 0.06968 0.0
C1087 C 0.11196 0.54499 0.1083 0.0
C1088 C 0.13401 0.55403 0.089 0.0
C1089 C 0.12926 0.55389 0.05984 0.0
C1090 C 0.10316 0.54338 0.05024 0.0
C1091 C 0.162 0.56293 0.09963 0.0
C1092 C 0.17488 0.59276 0.09254 0.0
C1093 C 0.175 0.54284 0.11847 0.0
C1094 C 0.16349 0.51023 0.12505 0.0
C1095 C 0.15715 0.49068 0.10313 0.0
C1096 C 0.14619 0.46006 0.10941 0.0
C1097 C 0.14169 0.44861 0.13755 0.0
C1098 C 0.14814 0.46775 0.15947 0.0
C1099 C 0.15903 0.49841 0.15331 0.0
H1100 H 0.13327 0.4249 0.14241 0.0
H1101 H 0.24379 0.72 0.07814 0.0
H1102 H 0.2023 0.36349 0.6415 0.0
H1103 H 0.24835 0.38256 0.62266 0.0
H1104 H 0.27682 0.39117 0.70753 0.0
H1105 H 0.23069 0.3718 0.72664 0.0
H1106 H 0.29556 0.44122 0.67274 0.0
H1107 H 0.293 0.33169 0.67033 0.0
H1108 H 0.27383 0.27967 0.65895 0.0
H1109 H 0.28029 0.3077 0.57024 0.0
H1110 H 0.29913 0.36006 0.58111 0.0
H1111 H 0.43637 0.46812 0.62982 0.0
H1112 H 0.39347 0.44352 0.65259 0.0
H1113 H 0.35921 0.43008 0.57068 0.0
H1114 H 0.40224 0.45415 0.54772 0.0
H1115 H 0.34472 0.3807 0.60655 0.0
H1116 H 0.34444 0.49065 0.60884 0.0
H1117 H 0.36306 0.54304 0.61978 0.0
H1118 H 0.36144 0.5144 0.70833 0.0
H1119 H 0.34317 0.4617 0.69787 0.0
C1120 C 0.21839 0.36918 0.65621 0.0
C1121 C 0.21285 0.36583 0.68561 0.0
C1122 C 0.24472 0.38013 0.64539 0.0
C1123 C 0.26617 0.38783 0.66368 0.0
C1124 C 0.2606 0.38526 0.69302 0.0
C1125 C 0.2342 0.3743 0.7039 0.0
C1126 C 0.29431 0.39871 0.65204 0.0
C1127 C 0.30652 0.42776 0.65866 0.0
C1128 C 0.30838 0.38142 0.63319 0.0
C1129 C 0.29727 0.34988 0.62656 0.0
C1130 C 0.29015 0.32683 0.64841 0.0
C1131 C 0.27937 0.29727 0.64204 0.0
C1132 C 0.27579 0.2904 0.61389 0.0
C1133 C 0.28305 0.31307 0.59204 0.0
C1134 C 0.29381 0.34268 0.59828 0.0
C1135 C 0.41983 0.45964 0.61662 0.0
C1136 C 0.42267 0.46336 0.58693 0.0
C1137 C 0.39525 0.4457 0.62969 0.0
C1138 C 0.37291 0.43547 0.61336 0.0
C1139 C 0.37612 0.43791 0.58373 0.0
C1140 C 0.40074 0.45172 0.57063 0.0
C1141 C 0.34587 0.42333 0.62706 0.0
C1142 C 0.33386 0.39406 0.62081 0.0
C1143 C 0.33193 0.44044 0.64619 0.0
C1144 C 0.34271 0.47216 0.65254 0.0
C1145 C 0.34824 0.49548 0.63063 0.0
C1146 C 0.35871 0.52523 0.63674 0.0
C1147 C 0.3635 0.53203 0.66472 0.0
C1148 C 0.35776 0.50909 0.68666 0.0
C1149 C 0.34734 0.47928 0.68065 0.0
H1150 H 0.37161 0.55507 0.66942 0.0
H1151 H 0.26743 0.26751 0.60901 0.0
H1152 H 0.87032 0.79901 0.81981 0.0
H1153 H 0.89223 0.75881 0.8463 0.0
H1154 H 0.81249 0.70842 0.8658 0.0
H1155 H 0.79043 0.74876 0.83945 0.0
H1156 H 0.84342 0.70968 0.91135 0.0
H1157 H 0.85556 0.68628 0.81471 0.0
H1158 H 0.86967 0.6973 0.76442 0.0
H1159 H 0.9536 0.719 0.78759 0.0
H1160 H 0.93993 0.70854 0.83807 0.0
H1161 H 0.8903 0.5689 0.96056 0.0
H1162 H 0.86836 0.60886 0.93411 0.0
H1163 H 0.94826 0.65693 0.91062 0.0
H1164 H 0.97044 0.61612 0.93615 0.0
H1165 H 0.91699 0.65696 0.867 0.0
H1166 H 0.90382 0.6797 0.9646 0.0
H1167 H 0.88838 0.66889 0.0146 0.0
H1168 H 0.80512 0.64759 0.98917 0.0
H1169 H 0.8201 0.65783 0.93904 0.0
C1170 C 0.8575 0.77925 0.8296 0.0
C1171 C 0.8287 0.77685 0.82743 0.0
C1172 C 0.87002 0.75632 0.84471 0.0
C1173 C 0.85401 0.73042 0.85765 0.0
C1174 C 0.82521 0.72821 0.85592 0.0
C1175 C 0.81265 0.75125 0.84094 0.0
C1176 C 0.8673 0.70574 0.8732 0.0
C1177 C 0.85928 0.69785 0.90159 0.0
C1178 C 0.88836 0.69081 0.86056 0.0
C1179 C 0.89667 0.69691 0.83019 0.0
C1180 C 0.87699 0.69362 0.80909 0.0
C1181 C 0.88492 0.69973 0.78055 0.0
C1182 C 0.9125 0.70891 0.77282 0.0
C1183 C 0.93224 0.71192 0.79361 0.0
C1184 C 0.92441 0.70588 0.82219 0.0
C1185 C 0.90322 0.58803 0.94984 0.0
C1186 C 0.93209 0.58953 0.95054 0.0
C1187 C 0.89063 0.61096 0.93484 0.0
C1188 C 0.90662 0.63626 0.92087 0.0
C1189 C 0.9355 0.63767 0.92135 0.0
C1190 C 0.94815 0.61441 0.93596 0.0
C1191 C 0.89325 0.66094 0.9053 0.0
C1192 C 0.90121 0.66882 0.87685 0.0
C1193 C 0.87203 0.67577 0.91787 0.0
C1194 C 0.86312 0.66936 0.94805 0.0
C1195 C 0.88226 0.67249 0.96967 0.0
C1196 C 0.87358 0.6665 0.99803 0.0
C1197 C 0.84578 0.65759 0.00503 0.0
C1198 C 0.82663 0.65453 0.98371 0.0
C1199 C 0.8352 0.66044 0.95533 0.0
H1200 H 0.83902 0.65317 0.02697 0.0
H1201 H 0.9186 0.71364 0.75071 0.0
H1202 H 0.33016 0.72234 0.15339 0.0
H1203 H 0.35366 0.76949 0.12964 0.0
H1204 H 0.43193 0.73328 0.1401 0.0
H1205 H 0.40849 0.6859 0.1639 0.0
H1206 H 0.43526 0.79338 0.15159 0.0
H1207 H 0.40065 0.73312 0.07638 0.0
H1208 H 0.36497 0.70257 0.05107 0.0
H1209 H 0.31883 0.78085 0.04155 0.0
H1210 H 0.35406 0.81177 0.06717 0.0
H1211 H 0.51089 0.9038 0.0539 0.0
H1212 H 0.48949 0.85599 0.07855 0.0
H1213 H 0.40911 0.88658 0.06658 0.0
H1214 H 0.43026 0.93403 0.04142 0.0
H1215 H 0.40794 0.82829 0.05554 0.0
H1216 H 0.44121 0.88831 0.13131 0.0
H1217 H 0.47584 0.91918 0.15763 0.0
H1218 H 0.52352 0.84214 0.16686 0.0
H1219 H 0.48934 0.81092 0.14024 0.0
C1220 C 0.35236 0.72428 0.15048 0.0
C1221 C 0.3674 0.70017 0.16034 0.0
C1222 C 0.36579 0.7513 0.13693 0.0
C1223 C 0.39455 0.75479 0.13267 0.0
C1224 C 0.40972 0.73112 0.14309 0.0
C1225 C 0.39629 0.70406 0.15674 0.0
C1226 C 0.40869 0.78301 0.11709 0.0
C1227 C 0.42958 0.80078 0.13042 0.0
C1228 C 0.40088 0.79309 0.0897 0.0
C1229 C 0.37989 0.77468 0.0739 0.0
C1230 C 0.38282 0.74377 0.06903 0.0
C1231 C 0.36268 0.72639 0.05462 0.0
C1232 C 0.33962 0.73973 0.04477 0.0
C1233 C 0.3367 0.77053 0.04922 0.0
C1234 C 0.35676 0.788 0.06366 0.0
C1235 C 0.48865 0.90039 0.05655 0.0
C1236 C 0.47233 0.92288 0.04575 0.0
C1237 C 0.47644 0.87306 0.07078 0.0
C1238 C 0.44765 0.86775 0.07478 0.0
C1239 C 0.43134 0.89008 0.06382 0.0
C1240 C 0.44351 0.91731 0.04949 0.0
C1241 C 0.43443 0.83886 0.09008 0.0
C1242 C 0.41372 0.8209 0.07668 0.0
C1243 C 0.44232 0.8287 0.11744 0.0
C1244 C 0.46286 0.84739 0.13353 0.0
C1245 C 0.45919 0.87803 0.13876 0.0
C1246 C 0.47872 0.89557 0.15376 0.0
C1247 C 0.50191 0.88265 0.16384 0.0
C1248 C 0.50557 0.85213 0.159 0.0
C1249 C 0.48611 0.83449 0.14398 0.0
H1250 H 0.517 0.89627 0.17545 0.0
H1251 H 0.32404 0.72623 0.03364 0.0
H1252 H 0.11309 0.26408 0.71884 0.0
H1253 H 0.09098 0.2204 0.69489 0.0
H1254 H 0.12043 0.26459 0.61413 0.0
H1255 H 0.14158 0.30861 0.63774 0.0
H1256 H 0.06945 0.23881 0.61 0.0
H1257 H 0.15355 0.20731 0.64861 0.0
H1258 H 0.18591 0.19727 0.68646 0.0
H1259 H 0.12452 0.13187 0.72941 0.0
H1260 H 0.09165 0.14184 0.69196 0.0
H1261 H 0.08234 0.11686 0.52086 0.0
H1262 H 0.08964 0.15992 0.5512 0.0
H1263 H 0.04396 0.1056 0.61945 0.0
H1264 H 0.03616 0.0624 0.58896 0.0
H1265 H 0.09651 0.13423 0.63442 0.0
H1266 H 0.01467 0.16159 0.59081 0.0
H1267 H 0.98411 0.17136 0.55129 0.0
H1268 H 0.04309 0.24448 0.51602 0.0
H1269 H 0.07421 0.23484 0.55512 0.0
C1270 C 0.11449 0.26466 0.69596 0.0
C1271 C 0.12938 0.2897 0.68024 0.0
C1272 C 0.10205 0.23956 0.6823 0.0
C1273 C 0.10436 0.23897 0.6527 0.0
C1274 C 0.11841 0.26441 0.63697 0.0
C1275 C 0.13075 0.28946 0.65055 0.0
C1276 C 0.09306 0.21162 0.63791 0.0
C1277 C 0.07547 0.21598 0.61528 0.0
C1278 C 0.10033 0.18162 0.64518 0.0
C1279 C 0.12004 0.17561 0.66769 0.0
C1280 C 0.14688 0.19098 0.66625 0.0
C1281 C 0.16532 0.18527 0.6876 0.0
C1282 C 0.15724 0.16402 0.71038 0.0
C1283 C 0.13072 0.14838 0.71179 0.0
C1284 C 0.11218 0.15404 0.69051 0.0
C1285 C 0.07358 0.11415 0.54222 0.0
C1286 C 0.05867 0.08624 0.55251 0.0
C1287 C 0.07771 0.13881 0.55951 0.0
C1288 C 0.06727 0.13598 0.58754 0.0
C1289 C 0.05213 0.10825 0.59785 0.0
C1290 C 0.04759 0.08368 0.58038 0.0
C1291 C 0.07343 0.16164 0.60621 0.0
C1292 C 0.09009 0.15696 0.62949 0.0
C1293 C 0.06554 0.19139 0.59937 0.0
C1294 C 0.04688 0.19732 0.57581 0.0
C1295 C 0.02124 0.17958 0.57451 0.0
C1296 C 0.00379 0.18513 0.5522 0.0
C1297 C 0.01168 0.20848 0.53112 0.0
C1298 C 0.03702 0.22638 0.53235 0.0
C1299 C 0.05456 0.2209 0.5546 0.0
H1300 H 0.99814 0.21275 0.51388 0.0
H1301 H 0.17156 0.15962 0.72688 0.0
H1302 H 0.64002 0.22754 0.30705 0.0
H1303 H 0.61785 0.26731 0.32992 0.0
H1304 H 0.64107 0.23035 0.41155 0.0
H1305 H 0.6616 0.18925 0.38904 0.0
H1306 H 0.59123 0.24444 0.41567 0.0
H1307 H 0.67585 0.29724 0.37597 0.0
H1308 H 0.71099 0.31487 0.3385 0.0
H1309 H 0.65162 0.36216 0.29225 0.0
H1310 H 0.61601 0.34447 0.32928 0.0
H1311 H 0.58157 0.37717 0.49372 0.0
H1312 H 0.59819 0.33525 0.46858 0.0
H1313 H 0.55728 0.36519 0.39361 0.0
H1314 H 0.54024 0.40707 0.41872 0.0
H1315 H 0.61383 0.35506 0.38475 0.0
H1316 H 0.52995 0.3033 0.42786 0.0
H1317 H 0.49689 0.28667 0.46745 0.0
H1318 H 0.55803 0.23845 0.50987 0.0
H1319 H 0.59161 0.25517 0.4707 0.0
C1320 C 0.64011 0.22756 0.32991 0.0
C1321 C 0.6527 0.20513 0.34616 0.0
C1322 C 0.62773 0.25063 0.34294 0.0
C1323 C 0.62815 0.25218 0.37245 0.0
C1324 C 0.64055 0.22974 0.38874 0.0
C1325 C 0.6526 0.20643 0.37577 0.0
C1326 C 0.61551 0.27698 0.38646 0.0
C1327 C 0.59645 0.26863 0.40907 0.0
C1328 C 0.62183 0.30858 0.37756 0.0
C1329 C 0.6432 0.31924 0.35525 0.0
C1330 C 0.67023 0.31119 0.3577 0.0
C1331 C 0.69024 0.32123 0.33656 0.0
C1332 C 0.68352 0.33955 0.31297 0.0
C1333 C 0.65679 0.34793 0.31051 0.0
C1334 C 0.63669 0.33792 0.33157 0.0
C1335 C 0.57594 0.37472 0.47195 0.0
C1336 C 0.55957 0.39537 0.4582 0.0
C1337 C 0.5854 0.35073 0.45765 0.0
C1338 C 0.57886 0.34712 0.42931 0.0
C1339 C 0.56248 0.36763 0.41551 0.0
C1340 C 0.55268 0.3914 0.42992 0.0
C1341 C 0.58986 0.32241 0.41394 0.0
C1342 C 0.60858 0.33082 0.39114 0.0
C1343 C 0.58357 0.29093 0.42293 0.0
C1344 C 0.56337 0.28073 0.44645 0.0
C1345 C 0.53643 0.28937 0.44574 0.0
C1346 C 0.51757 0.27988 0.46808 0.0
C1347 C 0.52537 0.26157 0.49119 0.0
C1348 C 0.55202 0.25265 0.49197 0.0
C1349 C 0.57097 0.2621 0.46969 0.0
H1350 H 0.51074 0.25425 0.50847 0.0
H1351 H 0.69905 0.34731 0.29663 0.0
loop_
_geom_bond_atom_site_label_1
_geom_bond_atom_site_label_2
_geom_bond_distance
_geom_bond_site_symmetry_2
_ccdc_geom_bond_type
H0 C3 0.931 . S
H1 C6 0.928 . S
H2 C8 0.930 . S
C3 H0 0.931 . S
C3 C4 1.413 . S
C3 C5 1.360 . S
C4 C3 1.413 . S
C4 C8 1.429 . S
C5 C3 1.360 . S
C5 C6 1.372 . S
C6 H1 0.928 . S
C6 C5 1.372 . S
C6 C7 1.404 . S
C7 C6 1.404 . S
C7 C8 1.391 . S
C8 H2 0.930 . S
C8 C4 1.429 . S
C8 C7 1.391 . S
H9 C12 0.931 . S
H10 C15 0.928 . S
H11 C17 0.930 . S
C12 H9 0.931 . S
C12 C13 1.413 . S
C12 C14 1.360 . S
C13 C12 1.413 . S
C13 C17 1.429 . S
C14 C12 1.360 . S
C14 C15 1.372 . S
C15 H10 0.928 . S
C15 C14 1.372 . S
C15 C16 1.404 . S
C16 C15 1.404 . S
C16 C17 1.391 . S
C17 H11 0.930 . S
C17 C13 1.429 . S
C17 C16 1.391 . S
H18 C21 0.931 . S
H19 C24 0.928 . S
H20 C26 0.930 . S
C21 H18 0.931 . S
C21 C22 1.413 . S
C21 C23 1.360 . S
C22 C21 1.413 . S
C22 C26 1.429 . S
C23 C21 1.360 . S
C23 C24 1.372 . S
C24 H19 0.928 . S
C24 C23 1.372 . S
C24 C25 1.404 . S
C25 C24 1.404 . S
C25 C26 1.391 . S
C26 H20 0.930 . S
C26 C22 1.429 . S
C26 C25 1.391 . S
H27 C30 0.931 . S
H28 C33 0.928 . S
H29 C35 0.930 . S
C30 H27 0.931 . S
C30 C31 1.413 . S
C30 C32 1.360 . S
C31 C30 1.413 . S
C31 C35 1.429 . S
C32 C30 1.360 . S
C32 C33 1.372 . S
C33 H28 0.928 . S
C33 C32 1.372 . S
C33 C34 1.404 . S
C34 C33 1.404 . S
C34 C35 1.391 . S
C35 H29 0.930 . S
C35 C31 1.429 . S
C35 C34 1.391 . S
H36 C39 0.931 . S
H37 C42 0.928 . S
H38 C44 0.930 . S
C39 H36 0.931 . S
C39 C40 1.413 . S
C39 C41 1.360 . S
C40 C39 1.413 . S
C40 C44 1.429 . S
C41 C39 1.360 . S
C41 C42 1.372 . S
C42 H37 0.928 . S
C42 C41 1.372 . S
C42 C43 1.404 . S
C43 C42 1.404 . S
C43 C44 1.391 . S
C44 H38 0.930 . S
C44 C40 1.429 . S
C44 C43 1.391 . S
H45 C48 0.931 . S
H46 C51 0.928 . S
H47 C53 0.930 . S
C48 H45 0.931 . S
C48 C49 1.413 . S
C48 C50 1.360 . S
C49 C48 1.413 . S
C49 C53 1.429 . S
C50 C48 1.360 . S
C50 C51 1.372 . S
C51 H46 0.928 . S
C51 C50 1.372 . S
C51 C52 1.404 . S
C52 C51 1.404 . S
C52 C53 1.391 . S
C53 H47 0.930 . S
C53 C49 1.429 . S
C53 C52 1.391 . S
H54 C57 0.931 . S
H55 C60 0.928 . S
H56 C62 0.930 . S
C57 H54 0.931 . S
C57 C58 1.413 . S
C57 C59 1.360 . S
C58 C57 1.413 . S
C58 C62 1.429 . S
C59 C57 1.360 . S
C59 C60 1.372 . S
C60 H55 0.928 . S
C60 C59 1.372 . S
C60 C61 1.404 . S
C61 C60 1.404 . S
C61 C62 1.391 . S
C62 H56 0.930 . S
C62 C58 1.429 . S
C62 C61 1.391 . S
H63 C66 0.931 . S
H64 C69 0.928 . S
H65 C71 0.930 . S
C66 H63 0.931 . S
C66 C67 1.413 . S
C66 C68 1.360 . S
C67 C66 1.413 . S
C67 C71 1.429 . S
C68 C66 1.360 . S
C68 C69 1.372 . S
C69 H64 0.928 . S
C69 C68 1.372 . S
C69 C70 1.404 . S
C70 C69 1.404 . S
C70 C71 1.391 . S
C71 H65 0.930 . S
C71 C67 1.429 . S
C71 C70 1.391 . S
Zn72 O78 1.969 1_545 S
Zn72 O79 1.965 1_545 S
Zn72 O83 2.024 . S
Zn72 O88 1.969 . S
Zn73 O80 1.969 . S
Zn73 O86 1.969 1_565 S
Zn73 O87 1.965 1_665 S
Zn73 O89 2.024 . S
C74 O75 1.229 . S
C74 O83 1.058 . S
O75 C74 1.229 . S
C76 O77 1.229 . S
C76 O89 1.058 . S
O77 C76 1.229 . S
O78 Zn72 1.969 1_565 S
O78 C81 1.267 . S
O79 Zn72 1.965 1_565 S
O79 C90 1.260 1_455 S
O80 Zn73 1.969 . S
O80 C90 1.258 . S
C81 O78 1.267 . S
C81 O82 1.228 . S
O82 C81 1.228 . S
O83 Zn72 2.024 . S
O83 C74 1.058 . S
C84 O85 1.228 . S
C84 O86 1.267 . S
O85 C84 1.228 . S
O86 Zn73 1.969 1_545 S
O86 C84 1.267 . S
O87 Zn73 1.965 1_445 S
O87 C91 1.260 . S
O88 Zn72 1.969 . S
O88 C91 1.258 . S
O89 Zn73 2.024 . S
O89 C76 1.058 . S
C90 O79 1.260 1_655 S
C90 O80 1.258 . S
C91 O87 1.260 . S
C91 O88 1.258 . S
Zn92 O98 1.969 . S
Zn92 O99 1.965 1_565 S
Zn92 O103 2.024 . S
Zn92 O108 1.960 1_556 S
Zn93 O100 1.969 . S
Zn93 O106 1.969 . S
Zn93 O107 1.965 1_545 S
Zn93 O109 2.024 . S
C94 O95 1.229 . S
C94 O103 1.058 . S
O95 C94 1.229 . S
C96 O97 1.229 . S
C96 O109 1.058 . S
O97 C96 1.229 . S
O98 Zn92 1.969 . S
O98 C101 1.267 . S
O99 Zn92 1.965 1_545 S
O99 C110 1.260 . S
O100 Zn93 1.969 . S
O100 C110 1.258 1_554 S
C101 O98 1.267 . S
C101 O102 1.228 . S
O102 C101 1.228 . S
O103 Zn92 2.024 . S
O103 C94 1.058 . S
C104 O105 1.228 . S
C104 O106 1.267 . S
O105 C104 1.228 . S
O106 Zn93 1.969 . S
O106 C104 1.267 . S
O107 Zn93 1.965 1_565 S
O107 C111 1.260 . S
O108 Zn92 1.960 1_554 S
O108 C111 1.268 . S
O109 Zn93 2.024 . S
O109 C96 1.058 . S
C110 O99 1.260 . S
C110 O100 1.258 1_556 S
C111 O107 1.260 . S
C111 O108 1.268 . S
Zn112 O118 1.969 . S
Zn112 O119 1.965 . S
Zn112 O123 2.024 . S
Zn112 O128 1.969 . S
Zn113 O120 1.969 . S
Zn113 O126 1.969 . S
Zn113 O127 1.965 . S
Zn113 O129 2.024 . S
C114 O115 1.229 . S
C114 O123 1.058 . S
O115 C114 1.229 . S
C116 O117 1.229 . S
C116 O129 1.058 . S
O117 C116 1.229 . S
O118 Zn112 1.969 . S
O118 C121 1.267 . S
O119 Zn112 1.965 . S
O119 C130 1.260 . S
O120 Zn113 1.969 . S
O120 C130 1.258 . S
C121 O118 1.267 . S
C121 O122 1.228 . S
O122 C121 1.228 . S
O123 Zn112 2.024 . S
O123 C114 1.058 . S
C124 O125 1.228 . S
C124 O126 1.267 . S
O125 C124 1.228 . S
O126 Zn113 1.969 . S
O126 C124 1.267 . S
O127 Zn113 1.965 . S
O127 C131 1.260 . S
O128 Zn112 1.969 . S
O128 C131 1.258 . S
O129 Zn113 2.024 . S
O129 C116 1.058 . S
C130 O119 1.260 . S
C130 O120 1.258 . S
C131 O127 1.260 . S
C131 O128 1.258 . S
Zn132 O138 1.969 . S
Zn132 O139 1.965 1_556 S
Zn132 O143 2.024 . S
Zn132 O148 1.969 1_655 S
Zn133 O140 1.969 . S
Zn133 O146 1.969 . S
Zn133 O147 1.965 1_554 S
Zn133 O149 2.024 . S
C134 O135 1.229 . S
C134 O143 1.058 . S
O135 C134 1.229 . S
C136 O137 1.229 . S
C136 O149 1.058 . S
O137 C136 1.229 . S
O138 Zn132 1.969 . S
O138 C141 1.267 . S
O139 Zn132 1.965 1_554 S
O139 C150 1.260 . S
O140 Zn133 1.969 . S
O140 C150 1.258 1_455 S
C141 O138 1.267 . S
C141 O142 1.228 . S
O142 C141 1.228 . S
O143 Zn132 2.024 . S
O143 C134 1.058 . S
C144 O145 1.228 . S
C144 O146 1.267 . S
O145 C144 1.228 . S
O146 Zn133 1.969 . S
O146 C144 1.267 . S
O147 Zn133 1.965 1_556 S
O147 C151 1.260 . S
O148 Zn132 1.969 1_455 S
O148 C151 1.258 . S
O149 Zn133 2.024 . S
O149 C136 1.058 . S
C150 O139 1.260 . S
C150 O140 1.258 1_655 S
C151 O147 1.260 . S
C151 O148 1.258 . S
H152 C170 0.951 . S
H153 C172 0.951 . S
H154 C174 0.950 . S
H155 C175 0.950 . S
H156 C177 0.950 . S
H157 C180 0.950 . S
H158 C181 0.950 . S
H159 C183 0.950 . S
H160 C184 0.950 . S
H161 C185 0.951 . S
H162 C187 0.951 . S
H163 C189 0.950 . S
H164 C190 0.950 . S
H165 C192 0.950 . S
H166 C195 0.950 . S
H167 C196 0.950 1_565 S
H168 C198 0.950 . S
H169 C199 0.950 . S
C170 H152 0.951 . S
C170 C171 1.366 . S
C170 C172 1.388 . S
C171 C170 1.366 . S
C171 C175 1.385 . S
C172 H153 0.951 . S
C172 C170 1.388 . S
C172 C173 1.366 . S
C173 C172 1.366 . S
C173 C174 1.414 . S
C173 C176 1.499 . S
C174 H154 0.950 . S
C174 C173 1.414 . S
C174 C175 1.374 . S
C175 H155 0.950 . S
C175 C171 1.385 . S
C175 C174 1.374 . S
C176 C173 1.499 . S
C176 C177 1.373 . S
C176 C178 1.389 . S
C177 H156 0.950 . S
C177 C176 1.373 . S
C177 C193 1.377 . S
C178 C176 1.389 . S
C178 C179 1.524 . S
C178 C192 1.377 . S
C179 C178 1.524 . S
C179 C180 1.397 . S
C179 C184 1.363 . S
C180 H157 0.950 . S
C180 C179 1.397 . S
C180 C181 1.334 . S
C181 H158 0.950 . S
C181 C180 1.334 . S
C181 C182 1.287 . S
C182 C181 1.287 . S
C182 C183 1.524 . S
C182 H201 0.913 . S
C183 H159 0.950 . S
C183 C182 1.524 . S
C183 C184 1.415 . S
C184 H160 0.950 . S
C184 C179 1.363 . S
C184 C183 1.415 . S
C185 H161 0.951 . S
C185 C186 1.366 . S
C185 C187 1.388 . S
C186 C185 1.366 . S
C186 C190 1.385 . S
C187 H162 0.951 . S
C187 C185 1.388 . S
C187 C188 1.366 . S
C188 C187 1.366 . S
C188 C189 1.414 . S
C188 C191 1.499 . S
C189 H163 0.950 . S
C189 C188 1.414 . S
C189 C190 1.374 . S
C190 H164 0.950 . S
C190 C186 1.385 . S
C190 C189 1.374 . S
C191 C188 1.499 . S
C191 C192 1.373 . S
C191 C193 1.389 . S
C192 H165 0.950 . S
C192 C178 1.377 . S
C192 C191 1.373 . S
C193 C177 1.377 . S
C193 C191 1.389 . S
C193 C194 1.524 . S
C194 C193 1.524 . S
C194 C195 1.397 . S
C194 C199 1.363 . S
C195 H166 0.950 . S
C195 C194 1.397 . S
C195 C196 1.334 . S
C196 H167 0.950 1_545 S
C196 C195 1.334 . S
C196 C197 1.287 . S
C197 C196 1.287 . S
C197 C198 1.524 . S
C197 H200 0.999 1_545 S
C198 H168 0.950 . S
C198 C197 1.524 . S
C198 C199 1.415 . S
C199 H169 0.950 . S
C199 C194 1.363 . S
C199 C198 1.415 . S
H200 C197 0.999 1_565 S
H201 C182 0.913 . S
H202 C220 0.951 . S
H203 C222 0.951 . S
H204 C224 0.950 . S
H205 C225 0.950 . S
H206 C227 0.950 . S
H207 C230 0.950 . S
H208 C231 0.950 . S
H209 C233 0.950 . S
H210 C234 0.950 . S
H211 C235 0.951 . S
H212 C237 0.951 . S
H213 C239 0.950 . S
H214 C240 0.950 . S
H215 C242 0.950 . S
H216 C245 0.950 . S
H217 C246 0.967 . S
H218 C248 0.950 . S
H219 C249 0.950 . S
C220 H202 0.951 . S
C220 C221 1.366 . S
C220 C222 1.388 . S
C221 C220 1.366 . S
C221 C225 1.385 . S
C222 H203 0.951 . S
C222 C220 1.388 . S
C222 C223 1.366 . S
C223 C222 1.366 . S
C223 C224 1.414 . S
C223 C226 1.499 . S
C224 H204 0.950 . S
C224 C223 1.414 . S
C224 C225 1.374 . S
C225 H205 0.950 . S
C225 C221 1.385 . S
C225 C224 1.374 . S
C226 C223 1.499 . S
C226 C227 1.373 . S
C226 C228 1.389 . S
C227 H206 0.950 . S
C227 C226 1.373 . S
C227 C243 1.377 . S
C228 C226 1.389 . S
C228 C229 1.524 . S
C228 C242 1.377 . S
C229 C228 1.524 . S
C229 C230 1.397 . S
C229 C234 1.363 . S
C230 H207 0.950 . S
C230 C229 1.397 . S
C230 C231 1.334 . S
C231 H208 0.950 . S
C231 C230 1.334 . S
C231 C232 1.287 . S
C232 C231 1.287 . S
C232 C233 1.524 . S
C232 H251 0.913 . S
C233 H209 0.950 . S
C233 C232 1.524 . S
C233 C234 1.415 . S
C234 H210 0.950 . S
C234 C229 1.363 . S
C234 C233 1.415 . S
C235 H211 0.951 . S
C235 C236 1.366 . S
C235 C237 1.388 . S
C236 C235 1.366 . S
C236 C240 1.385 . S
C237 H212 0.951 . S
C237 C235 1.388 . S
C237 C238 1.366 . S
C238 C237 1.366 . S
C238 C239 1.414 . S
C238 C241 1.499 . S
C239 H213 0.950 . S
C239 C238 1.414 . S
C239 C240 1.374 . S
C240 H214 0.950 . S
C240 C236 1.385 . S
C240 C239 1.374 . S
C241 C238 1.499 . S
C241 C242 1.373 . S
C241 C243 1.389 . S
C242 H215 0.950 . S
C242 C228 1.377 . S
C242 C241 1.373 . S
C243 C227 1.377 . S
C243 C241 1.389 . S
C243 C244 1.524 . S
C244 C243 1.524 . S
C244 C245 1.397 . S
C244 C249 1.363 . S
C245 H216 0.950 . S
C245 C244 1.397 . S
C245 C246 1.319 1_565 S
C246 H217 0.967 . S
C246 C245 1.319 1_545 S
C246 C247 1.285 1_545 S
C247 C246 1.285 1_565 S
C247 C248 1.524 . S
C247 H250 0.999 1_565 S
C248 H218 0.950 . S
C248 C247 1.524 . S
C248 C249 1.415 . S
C249 H219 0.950 . S
C249 C244 1.363 . S
C249 C248 1.415 . S
H250 C247 0.999 1_545 S
H251 C232 0.913 . S
H252 C270 0.951 . S
H253 C272 0.951 . S
H254 C274 0.950 . S
H255 C275 0.950 . S
H256 C277 0.950 . S
H257 C280 0.950 . S
H258 C281 0.950 . S
H259 C283 0.950 . S
H260 C284 0.950 . S
H261 C285 0.951 . S
H262 C287 0.951 . S
H263 C289 0.950 . S
H264 C290 0.950 . S
H265 C292 0.950 . S
H266 C295 0.950 . S
H267 C296 0.950 . S
H268 C298 0.950 . S
H269 C299 0.950 . S
C270 H252 0.951 . S
C270 C271 1.366 . S
C270 C272 1.388 . S
C271 C270 1.366 . S
C271 C275 1.385 . S
C272 H253 0.951 . S
C272 C270 1.388 . S
C272 C273 1.366 . S
C273 C272 1.366 . S
C273 C274 1.414 . S
C273 C276 1.499 . S
C274 H254 0.950 . S
C274 C273 1.414 . S
C274 C275 1.374 . S
C275 H255 0.950 . S
C275 C271 1.385 . S
C275 C274 1.374 . S
C276 C273 1.499 . S
C276 C277 1.373 . S
C276 C278 1.389 . S
C277 H256 0.950 . S
C277 C276 1.373 . S
C277 C293 1.377 . S
C278 C276 1.389 . S
C278 C279 1.524 . S
C278 C292 1.377 . S
C279 C278 1.524 . S
C279 C280 1.397 . S
C279 C284 1.363 . S
C280 H257 0.950 . S
C280 C279 1.397 . S
C280 C281 1.334 . S
C281 H258 0.950 . S
C281 C280 1.334 . S
C281 C282 1.287 . S
C282 C281 1.287 . S
C282 C283 1.524 . S
C282 H301 0.913 . S
C283 H259 0.950 . S
C283 C282 1.524 . S
C283 C284 1.415 . S
C284 H260 0.950 . S
C284 C279 1.363 . S
C284 C283 1.415 . S
C285 H261 0.951 . S
C285 C286 1.366 . S
C285 C287 1.388 . S
C286 C285 1.366 . S
C286 C290 1.385 . S
C287 H262 0.951 . S
C287 C285 1.388 . S
C287 C288 1.366 . S
C288 C287 1.366 . S
C288 C289 1.414 . S
C288 C291 1.499 . S
C289 H263 0.950 . S
C289 C288 1.414 . S
C289 C290 1.374 . S
C290 H264 0.950 . S
C290 C286 1.385 . S
C290 C289 1.374 . S
C291 C288 1.499 . S
C291 C292 1.373 . S
C291 C293 1.389 . S
C292 H265 0.950 . S
C292 C278 1.377 . S
C292 C291 1.373 . S
C293 C277 1.377 . S
C293 C291 1.389 . S
C293 C294 1.524 . S
C294 C293 1.524 . S
C294 C295 1.397 . S
C294 C299 1.363 . S
C295 H266 0.950 . S
C295 C294 1.397 . S
C295 C296 1.334 . S
C296 H267 0.950 . S
C296 C295 1.334 . S
C296 C297 1.287 . S
C297 C296 1.287 . S
C297 C298 1.524 . S
C297 H300 0.999 . S
C298 H268 0.950 . S
C298 C297 1.524 . S
C298 C299 1.415 . S
C299 H269 0.950 . S
C299 C294 1.363 . S
C299 C298 1.415 . S
H300 C297 0.999 . S
H301 C282 0.913 . S
H302 C320 0.951 . S
H303 C322 0.951 . S
H304 C324 0.950 . S
H305 C325 0.950 . S
H306 C327 0.950 . S
H307 C330 0.950 . S
H308 C331 0.950 . S
H309 C333 0.950 . S
H310 C334 0.950 . S
H311 C335 0.951 . S
H312 C337 0.951 . S
H313 C339 0.950 . S
H314 C340 0.950 . S
H315 C342 0.950 . S
H316 C345 0.950 . S
H317 C346 0.950 . S
H318 C348 0.950 . S
H319 C349 0.950 . S
C320 H302 0.951 . S
C320 C321 1.366 . S
C320 C322 1.388 . S
C321 C320 1.366 . S
C321 C325 1.385 . S
C322 H303 0.951 . S
C322 C320 1.388 . S
C322 C323 1.366 . S
C323 C322 1.366 . S
C323 C324 1.414 . S
C323 C326 1.499 . S
C324 H304 0.950 . S
C324 C323 1.414 . S
C324 C325 1.374 . S
C325 H305 0.950 . S
C325 C321 1.385 . S
C325 C324 1.374 . S
C326 C323 1.499 . S
C326 C327 1.373 . S
C326 C328 1.389 . S
C327 H306 0.950 . S
C327 C326 1.373 . S
C327 C343 1.377 . S
C328 C326 1.389 . S
C328 C329 1.524 . S
C328 C342 1.377 . S
C329 C328 1.524 . S
C329 C330 1.397 . S
C329 C334 1.363 . S
C330 H307 0.950 . S
C330 C329 1.397 . S
C330 C331 1.334 . S
C331 H308 0.950 . S
C331 C330 1.334 . S
C331 C332 1.287 . S
C332 C331 1.287 . S
C332 C333 1.524 . S
C332 H351 0.913 . S
C333 H309 0.950 . S
C333 C332 1.524 . S
C333 C334 1.415 . S
C334 H310 0.950 . S
C334 C329 1.363 . S
C334 C333 1.415 . S
C335 H311 0.951 . S
C335 C336 1.366 . S
C335 C337 1.388 . S
C336 C335 1.366 . S
C336 C340 1.385 . S
C337 H312 0.951 . S
C337 C335 1.388 . S
C337 C338 1.366 . S
C338 C337 1.366 . S
C338 C339 1.414 . S
C338 C341 1.499 . S
C339 H313 0.950 . S
C339 C338 1.414 . S
C339 C340 1.374 . S
C340 H314 0.950 . S
C340 C336 1.385 . S
C340 C339 1.374 . S
C341 C338 1.499 . S
C341 C342 1.373 . S
C341 C343 1.389 . S
C342 H315 0.950 . S
C342 C328 1.377 . S
C342 C341 1.373 . S
C343 C327 1.377 . S
C343 C341 1.389 . S
C343 C344 1.524 . S
C344 C343 1.524 . S
C344 C345 1.397 . S
C344 C349 1.363 . S
C345 H316 0.950 . S
C345 C344 1.397 . S
C345 C346 1.334 . S
C346 H317 0.950 . S
C346 C345 1.334 . S
C346 C347 1.287 . S
C347 C346 1.287 . S
C347 C348 1.524 . S
C347 H350 0.999 . S
C348 H318 0.950 . S
C348 C347 1.524 . S
C348 C349 1.415 . S
C349 H319 0.950 . S
C349 C344 1.363 . S
C349 C348 1.415 . S
H350 C347 0.999 . S
H351 C332 0.913 . S
H352 C370 0.951 . S
H353 C372 0.951 . S
H354 C374 0.950 . S
H355 C375 0.950 . S
H356 C377 0.950 . S
H357 C380 0.950 . S
H358 C381 0.950 . S
H359 C383 0.950 . S
H360 C384 0.950 . S
H361 C385 0.951 . S
H362 C387 0.951 . S
H363 C389 0.950 . S
H364 C390 0.950 . S
H365 C392 0.950 . S
H366 C395 0.950 . S
H367 C396 0.950 . S
H368 C398 0.950 . S
H369 C399 0.950 . S
C370 H352 0.951 . S
C370 C371 1.366 . S
C370 C372 1.388 . S
C371 C370 1.366 . S
C371 C375 1.385 . S
C372 H353 0.951 . S
C372 C370 1.388 . S
C372 C373 1.366 . S
C373 C372 1.366 . S
C373 C374 1.414 . S
C373 C376 1.499 . S
C374 H354 0.950 . S
C374 C373 1.414 . S
C374 C375 1.374 . S
C375 H355 0.950 . S
C375 C371 1.385 . S
C375 C374 1.374 . S
C376 C373 1.499 . S
C376 C377 1.373 . S
C376 C378 1.389 . S
C377 H356 0.950 . S
C377 C376 1.373 . S
C377 C393 1.377 . S
C378 C376 1.389 . S
C378 C379 1.524 . S
C378 C392 1.377 . S
C379 C378 1.524 . S
C379 C380 1.397 . S
C379 C384 1.363 . S
C380 H357 0.950 . S
C380 C379 1.397 . S
C380 C381 1.334 . S
C381 H358 0.950 . S
C381 C380 1.334 . S
C381 C382 1.287 . S
C382 C381 1.287 . S
C382 C383 1.524 . S
C382 H401 0.913 . S
C383 H359 0.950 . S
C383 C382 1.524 . S
C383 C384 1.415 . S
C384 H360 0.950 . S
C384 C379 1.363 . S
C384 C383 1.415 . S
C385 H361 0.951 . S
C385 C386 1.366 . S
C385 C387 1.388 . S
C386 C385 1.366 . S
C386 C390 1.385 . S
C387 H362 0.951 . S
C387 C385 1.388 . S
C387 C388 1.366 . S
C388 C387 1.366 . S
C388 C389 1.414 . S
C388 C391 1.499 . S
C389 H363 0.950 . S
C389 C388 1.414 . S
C389 C390 1.374 . S
C390 H364 0.950 . S
C390 C386 1.385 . S
C390 C389 1.374 . S
C391 C388 1.499 . S
C391 C392 1.373 . S
C391 C393 1.389 . S
C392 H365 0.950 . S
C392 C378 1.377 . S
C392 C391 1.373 . S
C393 C377 1.377 . S
C393 C391 1.389 . S
C393 C394 1.524 . S
C394 C393 1.524 . S
C394 C395 1.397 . S
C394 C399 1.363 . S
C395 H366 0.950 . S
C395 C394 1.397 . S
C395 C396 1.334 . S
C396 H367 0.950 . S
C396 C395 1.334 . S
C396 C397 1.287 . S
C397 C396 1.287 . S
C397 C398 1.524 . S
C397 H400 0.999 . S
C398 H368 0.950 . S
C398 C397 1.524 . S
C398 C399 1.415 . S
C399 H369 0.950 . S
C399 C394 1.363 . S
C399 C398 1.415 . S
H400 C397 0.999 . S
H401 C382 0.913 . S
H402 C420 0.951 . S
H403 C422 0.951 . S
H404 C424 0.950 . S
H405 C425 0.950 . S
H406 C427 0.950 . S
H407 C430 0.950 . S
H408 C431 0.950 . S
H409 C433 0.950 1_545 S
H410 C434 0.950 . S
H411 C435 0.951 . S
H412 C437 0.951 . S
H413 C439 0.950 . S
H414 C440 0.950 . S
H415 C442 0.950 . S
H416 C445 0.950 . S
H417 C446 0.950 . S
H418 C448 0.950 . S
H419 C449 0.950 . S
C420 H402 0.951 . S
C420 C421 1.366 . S
C420 C422 1.388 . S
C421 C420 1.366 . S
C421 C425 1.385 . S
C422 H403 0.951 . S
C422 C420 1.388 . S
C422 C423 1.366 . S
C423 C422 1.366 . S
C423 C424 1.414 . S
C423 C426 1.499 . S
C424 H404 0.950 . S
C424 C423 1.414 . S
C424 C425 1.374 . S
C425 H405 0.950 . S
C425 C421 1.385 . S
C425 C424 1.374 . S
C426 C423 1.499 . S
C426 C427 1.373 . S
C426 C428 1.389 . S
C427 H406 0.950 . S
C427 C426 1.373 . S
C427 C443 1.377 . S
C428 C426 1.389 . S
C428 C429 1.524 . S
C428 C442 1.377 . S
C429 C428 1.524 . S
C429 C430 1.397 . S
C429 C434 1.363 . S
C430 H407 0.950 . S
C430 C429 1.397 . S
C430 C431 1.334 . S
C431 H408 0.950 . S
C431 C430 1.334 . S
C431 C432 1.287 . S
C432 C431 1.287 . S
C432 C433 1.524 . S
C432 H451 0.913 1_565 S
C433 H409 0.950 1_565 S
C433 C432 1.524 . S
C433 C434 1.415 . S
C434 H410 0.950 . S
C434 C429 1.363 . S
C434 C433 1.415 . S
C435 H411 0.951 . S
C435 C436 1.366 . S
C435 C437 1.388 . S
C436 C435 1.366 . S
C436 C440 1.385 . S
C437 H412 0.951 . S
C437 C435 1.388 . S
C437 C438 1.366 . S
C438 C437 1.366 . S
C438 C439 1.414 . S
C438 C441 1.499 . S
C439 H413 0.950 . S
C439 C438 1.414 . S
C439 C440 1.374 . S
C440 H414 0.950 . S
C440 C436 1.385 . S
C440 C439 1.374 . S
C441 C438 1.499 . S
C441 C442 1.373 . S
C441 C443 1.389 . S
C442 H415 0.950 . S
C442 C428 1.377 . S
C442 C441 1.373 . S
C443 C427 1.377 . S
C443 C441 1.389 . S
C443 C444 1.524 . S
C444 C443 1.524 . S
C444 C445 1.397 . S
C444 C449 1.363 . S
C445 H416 0.950 . S
C445 C444 1.397 . S
C445 C446 1.334 . S
C446 H417 0.950 . S
C446 C445 1.334 . S
C446 C447 1.287 . S
C447 C446 1.287 . S
C447 C448 1.524 . S
C447 H450 0.999 . S
C448 H418 0.950 . S
C448 C447 1.524 . S
C448 C449 1.415 . S
C449 H419 0.950 . S
C449 C444 1.363 . S
C449 C448 1.415 . S
H450 C447 0.999 . S
H451 C432 0.913 1_545 S
H452 C470 0.951 . S
H453 C472 0.951 . S
H454 C474 0.950 . S
H455 C475 0.950 . S
H456 C477 0.950 . S
H457 C480 0.950 . S
H458 C481 0.950 . S
H459 C483 0.950 . S
H460 C484 0.950 . S
H461 C485 0.951 . S
H462 C487 0.951 . S
H463 C489 0.950 . S
H464 C490 0.950 . S
H465 C492 0.950 . S
H466 C495 0.950 . S
H467 C496 0.950 . S
H468 C498 0.950 . S
H469 C499 0.950 . S
C470 H452 0.951 . S
C470 C471 1.366 . S
C470 C472 1.388 . S
C471 C470 1.366 . S
C471 C475 1.385 . S
C472 H453 0.951 . S
C472 C470 1.388 . S
C472 C473 1.366 . S
C473 C472 1.366 . S
C473 C474 1.414 . S
C473 C476 1.499 . S
C474 H454 0.950 . S
C474 C473 1.414 . S
C474 C475 1.374 . S
C475 H455 0.950 . S
C475 C471 1.385 . S
C475 C474 1.374 . S
C476 C473 1.499 . S
C476 C477 1.373 . S
C476 C478 1.389 . S
C477 H456 0.950 . S
C477 C476 1.373 . S
C477 C493 1.377 . S
C478 C476 1.389 . S
C478 C479 1.524 . S
C478 C492 1.377 . S
C479 C478 1.524 . S
C479 C480 1.397 . S
C479 C484 1.363 . S
C480 H457 0.950 . S
C480 C479 1.397 . S
C480 C481 1.334 . S
C481 H458 0.950 . S
C481 C480 1.334 . S
C481 C482 1.287 . S
C482 C481 1.287 . S
C482 C483 1.524 . S
C482 H501 0.913 . S
C483 H459 0.950 . S
C483 C482 1.524 . S
C483 C484 1.415 . S
C484 H460 0.950 . S
C484 C479 1.363 . S
C484 C483 1.415 . S
C485 H461 0.951 . S
C485 C486 1.366 . S
C485 C487 1.388 . S
C486 C485 1.366 . S
C486 C490 1.385 . S
C487 H462 0.951 . S
C487 C485 1.388 . S
C487 C488 1.366 . S
C488 C487 1.366 . S
C488 C489 1.414 . S
C488 C491 1.499 . S
C489 H463 0.950 . S
C489 C488 1.414 . S
C489 C490 1.374 . S
C490 H464 0.950 . S
C490 C486 1.385 . S
C490 C489 1.374 . S
C491 C488 1.499 . S
C491 C492 1.373 . S
C491 C493 1.389 . S
C492 H465 0.950 . S
C492 C478 1.377 . S
C492 C491 1.373 . S
C493 C477 1.377 . S
C493 C491 1.389 . S
C493 C494 1.524 . S
C494 C493 1.524 . S
C494 C495 1.397 . S
C494 C499 1.363 . S
C495 H466 0.950 . S
C495 C494 1.397 . S
C495 C496 1.334 . S
C496 H467 0.950 . S
C496 C495 1.334 . S
C496 C497 1.287 . S
C497 C496 1.287 . S
C497 C498 1.524 . S
C497 H500 0.999 . S
C498 H468 0.950 . S
C498 C497 1.524 . S
C498 C499 1.415 . S
C499 H469 0.950 . S
C499 C494 1.363 . S
C499 C498 1.415 . S
H500 C497 0.999 . S
H501 C482 0.913 . S
H502 C520 0.951 . S
H503 C522 0.951 . S
H504 C524 0.950 . S
H505 C525 0.950 . S
H506 C527 0.950 . S
H507 C530 0.950 . S
H508 C531 0.950 . S
H509 C533 0.950 . S
H510 C534 0.950 . S
H511 C535 0.951 . S
H512 C537 0.951 . S
H513 C539 0.950 . S
H514 C540 0.950 . S
H515 C542 0.950 . S
H516 C545 0.950 . S
H517 C546 0.950 . S
H518 C548 0.950 . S
H519 C549 0.950 . S
C520 H502 0.951 . S
C520 C521 1.366 . S
C520 C522 1.388 . S
C521 C520 1.366 . S
C521 C525 1.385 . S
C522 H503 0.951 . S
C522 C520 1.388 . S
C522 C523 1.366 . S
C523 C522 1.366 . S
C523 C524 1.414 . S
C523 C526 1.499 . S
C524 H504 0.950 . S
C524 C523 1.414 . S
C524 C525 1.374 . S
C525 H505 0.950 . S
C525 C521 1.385 . S
C525 C524 1.374 . S
C526 C523 1.499 . S
C526 C527 1.373 . S
C526 C528 1.389 . S
C527 H506 0.950 . S
C527 C526 1.373 . S
C527 C543 1.377 . S
C528 C526 1.389 . S
C528 C529 1.524 . S
C528 C542 1.377 . S
C529 C528 1.524 . S
C529 C530 1.397 . S
C529 C534 1.363 . S
C530 H507 0.950 . S
C530 C529 1.397 . S
C530 C531 1.334 . S
C531 H508 0.950 . S
C531 C530 1.334 . S
C531 C532 1.287 . S
C532 C531 1.287 . S
C532 C533 1.524 . S
C532 H551 0.913 . S
C533 H509 0.950 . S
C533 C532 1.524 . S
C533 C534 1.415 . S
C534 H510 0.950 . S
C534 C529 1.363 . S
C534 C533 1.415 . S
C535 H511 0.951 . S
C535 C536 1.366 . S
C535 C537 1.388 . S
C536 C535 1.366 . S
C536 C540 1.385 . S
C537 H512 0.951 . S
C537 C535 1.388 . S
C537 C538 1.366 . S
C538 C537 1.366 . S
C538 C539 1.414 . S
C538 C541 1.499 . S
C539 H513 0.950 . S
C539 C538 1.414 . S
C539 C540 1.374 . S
C540 H514 0.950 . S
C540 C536 1.385 . S
C540 C539 1.374 . S
C541 C538 1.499 . S
C541 C542 1.373 . S
C541 C543 1.389 . S
C542 H515 0.950 . S
C542 C528 1.377 . S
C542 C541 1.373 . S
C543 C527 1.377 . S
C543 C541 1.389 . S
C543 C544 1.524 . S
C544 C543 1.524 . S
C544 C545 1.397 . S
C544 C549 1.363 . S
C545 H516 0.950 . S
C545 C544 1.397 . S
C545 C546 1.334 . S
C546 H517 0.950 . S
C546 C545 1.334 . S
C546 C547 1.287 . S
C547 C546 1.287 . S
C547 C548 1.524 . S
C547 H550 0.999 . S
C548 H518 0.950 . S
C548 C547 1.524 . S
C548 C549 1.415 . S
C549 H519 0.950 . S
C549 C544 1.363 . S
C549 C548 1.415 . S
H550 C547 0.999 . S
H551 C532 0.913 . S
H552 C570 0.951 . S
H553 C572 0.951 . S
H554 C574 0.950 . S
H555 C575 0.950 . S
H556 C577 0.950 . S
H557 C580 0.950 . S
H558 C581 0.950 . S
H559 C583 0.950 . S
H560 C584 0.950 . S
H561 C585 0.951 . S
H562 C587 0.951 . S
H563 C589 0.950 . S
H564 C590 0.950 . S
H565 C592 0.950 . S
H566 C595 0.950 . S
H567 C596 0.950 . S
H568 C598 0.950 . S
H569 C599 0.950 . S
C570 H552 0.951 . S
C570 C571 1.366 . S
C570 C572 1.388 . S
C571 C570 1.366 . S
C571 C575 1.385 . S
C572 H553 0.951 . S
C572 C570 1.388 . S
C572 C573 1.366 . S
C573 C572 1.366 . S
C573 C574 1.414 . S
C573 C576 1.499 . S
C574 H554 0.950 . S
C574 C573 1.414 . S
C574 C575 1.374 . S
C575 H555 0.950 . S
C575 C571 1.385 . S
C575 C574 1.374 . S
C576 C573 1.499 . S
C576 C577 1.373 . S
C576 C578 1.389 . S
C577 H556 0.950 . S
C577 C576 1.373 . S
C577 C593 1.377 . S
C578 C576 1.389 . S
C578 C579 1.524 . S
C578 C592 1.377 . S
C579 C578 1.524 . S
C579 C580 1.397 . S
C579 C584 1.363 . S
C580 H557 0.950 . S
C580 C579 1.397 . S
C580 C581 1.334 . S
C581 H558 0.950 . S
C581 C580 1.334 . S
C581 C582 1.287 . S
C582 C581 1.287 . S
C582 C583 1.524 . S
C582 H601 0.913 . S
C583 H559 0.950 . S
C583 C582 1.524 . S
C583 C584 1.415 . S
C584 H560 0.950 . S
C584 C579 1.363 . S
C584 C583 1.415 . S
C585 H561 0.951 . S
C585 C586 1.366 . S
C585 C587 1.388 . S
C586 C585 1.366 . S
C586 C590 1.385 . S
C587 H562 0.951 . S
C587 C585 1.388 . S
C587 C588 1.366 . S
C588 C587 1.366 . S
C588 C589 1.414 . S
C588 C591 1.499 . S
C589 H563 0.950 . S
C589 C588 1.414 . S
C589 C590 1.374 . S
C590 H564 0.950 . S
C590 C586 1.385 . S
C590 C589 1.374 . S
C591 C588 1.499 . S
C591 C592 1.373 . S
C591 C593 1.389 . S
C592 H565 0.950 . S
C592 C578 1.377 . S
C592 C591 1.373 . S
C593 C577 1.377 . S
C593 C591 1.389 . S
C593 C594 1.524 . S
C594 C593 1.524 . S
C594 C595 1.397 . S
C594 C599 1.363 . S
C595 H566 0.950 . S
C595 C594 1.397 . S
C595 C596 1.334 . S
C596 H567 0.950 . S
C596 C595 1.334 . S
C596 C597 1.287 . S
C597 C596 1.287 . S
C597 C598 1.524 . S
C597 H600 0.999 1_455 S
C598 H568 0.950 . S
C598 C597 1.524 . S
C598 C599 1.415 . S
C599 H569 0.950 . S
C599 C594 1.363 . S
C599 C598 1.415 . S
H600 C597 0.999 1_655 S
H601 C582 0.913 . S
H602 C620 0.951 . S
H603 C622 0.951 . S
H604 C624 0.950 . S
H605 C625 0.950 . S
H606 C627 0.950 . S
H607 C630 0.950 . S
H608 C631 0.950 . S
H609 C633 0.950 . S
H610 C634 0.950 . S
H611 C635 0.951 . S
H612 C637 0.951 . S
H613 C639 0.950 . S
H614 C640 0.950 . S
H615 C642 0.950 . S
H616 C645 0.950 . S
H617 C646 0.950 . S
H618 C648 0.950 . S
H619 C649 0.950 . S
C620 H602 0.951 . S
C620 C621 1.366 . S
C620 C622 1.388 . S
C621 C620 1.366 . S
C621 C625 1.385 . S
C622 H603 0.951 . S
C622 C620 1.388 . S
C622 C623 1.366 . S
C623 C622 1.366 . S
C623 C624 1.414 . S
C623 C626 1.499 . S
C624 H604 0.950 . S
C624 C623 1.414 . S
C624 C625 1.374 . S
C625 H605 0.950 . S
C625 C621 1.385 . S
C625 C624 1.374 . S
C626 C623 1.499 . S
C626 C627 1.373 . S
C626 C628 1.389 . S
C627 H606 0.950 . S
C627 C626 1.373 . S
C627 C643 1.377 . S
C628 C626 1.389 . S
C628 C629 1.524 . S
C628 C642 1.377 . S
C629 C628 1.524 . S
C629 C630 1.397 . S
C629 C634 1.363 . S
C630 H607 0.950 . S
C630 C629 1.397 . S
C630 C631 1.334 . S
C631 H608 0.950 . S
C631 C630 1.334 . S
C631 C632 1.287 . S
C632 C631 1.287 . S
C632 C633 1.524 . S
C632 H651 0.913 . S
C633 H609 0.950 . S
C633 C632 1.524 . S
C633 C634 1.415 . S
C634 H610 0.950 . S
C634 C629 1.363 . S
C634 C633 1.415 . S
C635 H611 0.951 . S
C635 C636 1.366 . S
C635 C637 1.388 . S
C636 C635 1.366 . S
C636 C640 1.385 . S
C637 H612 0.951 . S
C637 C635 1.388 . S
C637 C638 1.366 . S
C638 C637 1.366 . S
C638 C639 1.414 . S
C638 C641 1.499 . S
C639 H613 0.950 . S
C639 C638 1.414 . S
C639 C640 1.374 . S
C640 H614 0.950 . S
C640 C636 1.385 . S
C640 C639 1.374 . S
C641 C638 1.499 . S
C641 C642 1.373 . S
C641 C643 1.389 . S
C642 H615 0.950 . S
C642 C628 1.377 . S
C642 C641 1.373 . S
C643 C627 1.377 . S
C643 C641 1.389 . S
C643 C644 1.524 . S
C644 C643 1.524 . S
C644 C645 1.397 . S
C644 C649 1.363 . S
C645 H616 0.950 . S
C645 C644 1.397 . S
C645 C646 1.334 . S
C646 H617 0.950 . S
C646 C645 1.334 . S
C646 C647 1.287 . S
C647 C646 1.287 . S
C647 C648 1.524 . S
C647 H650 0.999 . S
C648 H618 0.950 . S
C648 C647 1.524 . S
C648 C649 1.415 . S
C649 H619 0.950 . S
C649 C644 1.363 . S
C649 C648 1.415 . S
H650 C647 0.999 . S
H651 C632 0.913 . S
H652 C670 0.951 . S
H653 C672 0.951 . S
H654 C674 0.950 . S
H655 C675 0.950 . S
H656 C677 0.950 . S
H657 C680 0.950 . S
H658 C681 0.950 . S
H659 C683 0.950 . S
H660 C684 0.950 . S
H661 C685 0.951 . S
H662 C687 0.951 . S
H663 C689 0.950 . S
H664 C690 0.950 . S
H665 C692 0.950 . S
H666 C695 0.950 . S
H667 C696 0.950 . S
H668 C698 0.950 . S
H669 C699 0.950 . S
C670 H652 0.951 . S
C670 C671 1.366 . S
C670 C672 1.388 . S
C671 C670 1.366 . S
C671 C675 1.385 . S
C672 H653 0.951 . S
C672 C670 1.388 . S
C672 C673 1.366 . S
C673 C672 1.366 . S
C673 C674 1.414 . S
C673 C676 1.499 . S
C674 H654 0.950 . S
C674 C673 1.414 . S
C674 C675 1.374 . S
C675 H655 0.950 . S
C675 C671 1.385 . S
C675 C674 1.374 . S
C676 C673 1.499 . S
C676 C677 1.373 . S
C676 C678 1.389 . S
C677 H656 0.950 . S
C677 C676 1.373 . S
C677 C693 1.377 . S
C678 C676 1.389 . S
C678 C679 1.524 . S
C678 C692 1.377 . S
C679 C678 1.524 . S
C679 C680 1.397 . S
C679 C684 1.363 . S
C680 H657 0.950 . S
C680 C679 1.397 . S
C680 C681 1.334 . S
C681 H658 0.950 . S
C681 C680 1.334 . S
C681 C682 1.287 . S
C682 C681 1.287 . S
C682 C683 1.524 . S
C682 H701 0.913 . S
C683 H659 0.950 . S
C683 C682 1.524 . S
C683 C684 1.415 . S
C684 H660 0.950 . S
C684 C679 1.363 . S
C684 C683 1.415 . S
C685 H661 0.951 . S
C685 C686 1.366 . S
C685 C687 1.388 . S
C686 C685 1.366 . S
C686 C690 1.385 . S
C687 H662 0.951 . S
C687 C685 1.388 . S
C687 C688 1.366 . S
C688 C687 1.366 . S
C688 C689 1.414 . S
C688 C691 1.499 . S
C689 H663 0.950 . S
C689 C688 1.414 . S
C689 C690 1.374 . S
C690 H664 0.950 . S
C690 C686 1.385 . S
C690 C689 1.374 . S
C691 C688 1.499 . S
C691 C692 1.373 . S
C691 C693 1.389 . S
C692 H665 0.950 . S
C692 C678 1.377 . S
C692 C691 1.373 . S
C693 C677 1.377 . S
C693 C691 1.389 . S
C693 C694 1.524 . S
C694 C693 1.524 . S
C694 C695 1.397 . S
C694 C699 1.363 . S
C695 H666 0.950 . S
C695 C694 1.397 . S
C695 C696 1.334 . S
C696 H667 0.950 . S
C696 C695 1.334 . S
C696 C697 1.287 . S
C697 C696 1.287 . S
C697 C698 1.524 . S
C697 H700 0.999 . S
C698 H668 0.950 . S
C698 C697 1.524 . S
C698 C699 1.415 . S
C699 H669 0.950 . S
C699 C694 1.363 . S
C699 C698 1.415 . S
H700 C697 0.999 . S
H701 C682 0.913 . S
H702 C720 0.951 . S
H703 C722 0.951 . S
H704 C724 0.950 . S
H705 C725 0.950 . S
H706 C727 0.950 . S
H707 C730 0.950 . S
H708 C731 0.950 . S
H709 C733 0.950 . S
H710 C734 0.950 . S
H711 C735 0.951 . S
H712 C737 0.951 . S
H713 C739 0.950 . S
H714 C740 0.950 . S
H715 C742 0.950 . S
H716 C745 0.950 . S
H717 C746 0.950 . S
H718 C748 0.950 . S
H719 C749 0.950 . S
C720 H702 0.951 . S
C720 C721 1.366 . S
C720 C722 1.388 . S
C721 C720 1.366 . S
C721 C725 1.385 . S
C722 H703 0.951 . S
C722 C720 1.388 . S
C722 C723 1.366 . S
C723 C722 1.366 . S
C723 C724 1.414 . S
C723 C726 1.499 . S
C724 H704 0.950 . S
C724 C723 1.414 . S
C724 C725 1.374 . S
C725 H705 0.950 . S
C725 C721 1.385 . S
C725 C724 1.374 . S
C726 C723 1.499 . S
C726 C727 1.373 . S
C726 C728 1.389 . S
C727 H706 0.950 . S
C727 C726 1.373 . S
C727 C743 1.377 . S
C728 C726 1.389 . S
C728 C729 1.524 . S
C728 C742 1.377 . S
C729 C728 1.524 . S
C729 C730 1.397 . S
C729 C734 1.363 . S
C730 H707 0.950 . S
C730 C729 1.397 . S
C730 C731 1.334 . S
C731 H708 0.950 . S
C731 C730 1.334 . S
C731 C732 1.287 . S
C732 C731 1.287 . S
C732 C733 1.524 . S
C732 H751 0.913 . S
C733 H709 0.950 . S
C733 C732 1.524 . S
C733 C734 1.415 . S
C734 H710 0.950 . S
C734 C729 1.363 . S
C734 C733 1.415 . S
C735 H711 0.951 . S
C735 C736 1.366 . S
C735 C737 1.388 . S
C736 C735 1.366 . S
C736 C740 1.385 . S
C737 H712 0.951 . S
C737 C735 1.388 . S
C737 C738 1.366 . S
C738 C737 1.366 . S
C738 C739 1.414 . S
C738 C741 1.499 . S
C739 H713 0.950 . S
C739 C738 1.414 . S
C739 C740 1.374 . S
C740 H714 0.950 . S
C740 C736 1.385 . S
C740 C739 1.374 . S
C741 C738 1.499 . S
C741 C742 1.373 . S
C741 C743 1.389 . S
C742 H715 0.950 . S
C742 C728 1.377 . S
C742 C741 1.373 . S
C743 C727 1.377 . S
C743 C741 1.389 . S
C743 C744 1.524 . S
C744 C743 1.524 . S
C744 C745 1.397 . S
C744 C749 1.363 . S
C745 H716 0.950 . S
C745 C744 1.397 . S
C745 C746 1.334 . S
C746 H717 0.950 . S
C746 C745 1.334 . S
C746 C747 1.287 . S
C747 C746 1.287 . S
C747 C748 1.524 . S
C747 H750 0.999 . S
C748 H718 0.950 . S
C748 C747 1.524 . S
C748 C749 1.415 . S
C749 H719 0.950 . S
C749 C744 1.363 . S
C749 C748 1.415 . S
H750 C747 0.999 . S
H751 C732 0.913 . S
H752 C770 0.951 . S
H753 C772 0.951 . S
H754 C774 0.950 . S
H755 C775 0.950 . S
H756 C777 0.950 . S
H757 C780 0.950 . S
H758 C781 0.950 . S
H759 C783 0.950 . S
H760 C784 0.950 . S
H761 C785 0.951 . S
H762 C787 0.951 . S
H763 C789 0.950 . S
H764 C790 0.950 . S
H765 C792 0.950 . S
H766 C795 0.950 . S
H767 C796 0.950 1_455 S
H768 C798 0.959 . S
H769 C799 0.950 . S
C770 H752 0.951 . S
C770 C771 1.366 . S
C770 C772 1.388 . S
C771 C770 1.366 . S
C771 C775 1.385 . S
C772 H753 0.951 . S
C772 C770 1.388 . S
C772 C773 1.366 . S
C773 C772 1.366 . S
C773 C774 1.414 . S
C773 C776 1.499 . S
C774 H754 0.950 . S
C774 C773 1.414 . S
C774 C775 1.374 . S
C775 H755 0.950 . S
C775 C771 1.385 . S
C775 C774 1.374 . S
C776 C773 1.499 . S
C776 C777 1.373 . S
C776 C778 1.389 . S
C777 H756 0.950 . S
C777 C776 1.373 . S
C777 C793 1.377 . S
C778 C776 1.389 . S
C778 C779 1.524 . S
C778 C792 1.377 . S
C779 C778 1.524 . S
C779 C780 1.397 . S
C779 C784 1.363 . S
C780 H757 0.950 . S
C780 C779 1.397 . S
C780 C781 1.334 . S
C781 H758 0.950 . S
C781 C780 1.334 . S
C781 C782 1.287 . S
C782 C781 1.287 . S
C782 C783 1.524 . S
C782 H801 0.913 . S
C783 H759 0.950 . S
C783 C782 1.524 . S
C783 C784 1.415 . S
C784 H760 0.950 . S
C784 C779 1.363 . S
C784 C783 1.415 . S
C785 H761 0.951 . S
C785 C786 1.366 . S
C785 C787 1.388 . S
C786 C785 1.366 . S
C786 C790 1.385 . S
C787 H762 0.951 . S
C787 C785 1.388 . S
C787 C788 1.366 . S
C788 C787 1.366 . S
C788 C789 1.414 . S
C788 C791 1.499 . S
C789 H763 0.950 . S
C789 C788 1.414 . S
C789 C790 1.374 . S
C790 H764 0.950 . S
C790 C786 1.385 . S
C790 C789 1.374 . S
C791 C788 1.499 . S
C791 C792 1.373 . S
C791 C793 1.389 . S
C792 H765 0.950 . S
C792 C778 1.377 . S
C792 C791 1.373 . S
C793 C777 1.377 . S
C793 C791 1.389 . S
C793 C794 1.524 . S
C794 C793 1.524 . S
C794 C795 1.397 . S
C794 C799 1.363 . S
C795 H766 0.950 . S
C795 C794 1.397 . S
C795 C796 1.334 . S
C796 H767 0.950 1_655 S
C796 C795 1.334 . S
C796 C797 1.287 1_655 S
C797 C796 1.287 1_455 S
C797 C798 1.527 . S
C797 H800 0.999 . S
C798 H768 0.959 . S
C798 C797 1.527 . S
C798 C799 1.401 1_455 S
C799 H769 0.950 . S
C799 C794 1.363 . S
C799 C798 1.401 1_655 S
H800 C797 0.999 . S
H801 C782 0.913 . S
H802 C820 0.951 . S
H803 C822 0.951 . S
H804 C824 0.950 . S
H805 C825 0.950 . S
H806 C827 0.950 . S
H807 C830 0.950 . S
H808 C831 0.950 . S
H809 C833 0.950 . S
H810 C834 0.950 . S
H811 C835 0.951 . S
H812 C837 0.951 . S
H813 C839 0.950 . S
H814 C840 0.950 . S
H815 C842 0.950 . S
H816 C845 0.950 . S
H817 C846 0.950 . S
H818 C848 0.950 . S
H819 C849 0.950 . S
C820 H802 0.951 . S
C820 C821 1.366 . S
C820 C822 1.388 . S
C821 C820 1.366 . S
C821 C825 1.385 . S
C822 H803 0.951 . S
C822 C820 1.388 . S
C822 C823 1.366 . S
C823 C822 1.366 . S
C823 C824 1.414 . S
C823 C826 1.499 . S
C824 H804 0.950 . S
C824 C823 1.414 . S
C824 C825 1.374 . S
C825 H805 0.950 . S
C825 C821 1.385 . S
C825 C824 1.374 . S
C826 C823 1.499 . S
C826 C827 1.373 . S
C826 C828 1.389 . S
C827 H806 0.950 . S
C827 C826 1.373 . S
C827 C843 1.377 . S
C828 C826 1.389 . S
C828 C829 1.524 . S
C828 C842 1.377 . S
C829 C828 1.524 . S
C829 C830 1.397 . S
C829 C834 1.363 . S
C830 H807 0.950 . S
C830 C829 1.397 . S
C830 C831 1.334 . S
C831 H808 0.950 . S
C831 C830 1.334 . S
C831 C832 1.287 . S
C832 C831 1.287 . S
C832 C833 1.524 . S
C832 H851 0.913 . S
C833 H809 0.950 . S
C833 C832 1.524 . S
C833 C834 1.415 . S
C834 H810 0.950 . S
C834 C829 1.363 . S
C834 C833 1.415 . S
C835 H811 0.951 . S
C835 C836 1.366 . S
C835 C837 1.388 . S
C836 C835 1.366 . S
C836 C840 1.385 . S
C837 H812 0.951 . S
C837 C835 1.388 . S
C837 C838 1.366 . S
C838 C837 1.366 . S
C838 C839 1.414 . S
C838 C841 1.499 . S
C839 H813 0.950 . S
C839 C838 1.414 . S
C839 C840 1.374 . S
C840 H814 0.950 . S
C840 C836 1.385 . S
C840 C839 1.374 . S
C841 C838 1.499 . S
C841 C842 1.373 . S
C841 C843 1.389 . S
C842 H815 0.950 . S
C842 C828 1.377 . S
C842 C841 1.373 . S
C843 C827 1.377 . S
C843 C841 1.389 . S
C843 C844 1.524 . S
C844 C843 1.524 . S
C844 C845 1.397 . S
C844 C849 1.363 . S
C845 H816 0.950 . S
C845 C844 1.397 . S
C845 C846 1.334 . S
C846 H817 0.950 . S
C846 C845 1.334 . S
C846 C847 1.287 . S
C847 C846 1.287 . S
C847 C848 1.524 . S
C847 H850 0.999 . S
C848 H818 0.950 . S
C848 C847 1.524 . S
C848 C849 1.415 . S
C849 H819 0.950 . S
C849 C844 1.363 . S
C849 C848 1.415 . S
H850 C847 0.999 . S
H851 C832 0.913 . S
H852 C870 0.951 . S
H853 C872 0.951 . S
H854 C874 0.950 . S
H855 C875 0.950 . S
H856 C877 0.950 . S
H857 C880 0.950 . S
H858 C881 0.950 . S
H859 C883 0.950 . S
H860 C884 0.950 . S
H861 C885 0.951 . S
H862 C887 0.951 . S
H863 C889 0.950 . S
H864 C890 0.950 . S
H865 C892 0.950 . S
H866 C895 0.950 . S
H867 C896 0.950 . S
H868 C898 0.950 . S
H869 C899 0.950 . S
C870 H852 0.951 . S
C870 C871 1.366 . S
C870 C872 1.388 . S
C871 C870 1.366 . S
C871 C875 1.385 . S
C872 H853 0.951 . S
C872 C870 1.388 . S
C872 C873 1.366 . S
C873 C872 1.366 . S
C873 C874 1.414 . S
C873 C876 1.499 . S
C874 H854 0.950 . S
C874 C873 1.414 . S
C874 C875 1.374 . S
C875 H855 0.950 . S
C875 C871 1.385 . S
C875 C874 1.374 . S
C876 C873 1.499 . S
C876 C877 1.373 . S
C876 C878 1.389 . S
C877 H856 0.950 . S
C877 C876 1.373 . S
C877 C893 1.377 . S
C878 C876 1.389 . S
C878 C879 1.524 . S
C878 C892 1.377 . S
C879 C878 1.524 . S
C879 C880 1.397 . S
C879 C884 1.363 . S
C880 H857 0.950 . S
C880 C879 1.397 . S
C880 C881 1.334 . S
C881 H858 0.950 . S
C881 C880 1.334 . S
C881 C882 1.287 . S
C882 C881 1.287 . S
C882 C883 1.524 . S
C882 H901 0.913 . S
C883 H859 0.950 . S
C883 C882 1.524 . S
C883 C884 1.415 . S
C884 H860 0.950 . S
C884 C879 1.363 . S
C884 C883 1.415 . S
C885 H861 0.951 . S
C885 C886 1.366 . S
C885 C887 1.388 . S
C886 C885 1.366 . S
C886 C890 1.385 . S
C887 H862 0.951 . S
C887 C885 1.388 . S
C887 C888 1.366 . S
C888 C887 1.366 . S
C888 C889 1.414 . S
C888 C891 1.499 . S
C889 H863 0.950 . S
C889 C888 1.414 . S
C889 C890 1.374 . S
C890 H864 0.950 . S
C890 C886 1.385 . S
C890 C889 1.374 . S
C891 C888 1.499 . S
C891 C892 1.373 . S
C891 C893 1.389 . S
C892 H865 0.950 . S
C892 C878 1.377 . S
C892 C891 1.373 . S
C893 C877 1.377 . S
C893 C891 1.389 . S
C893 C894 1.524 . S
C894 C893 1.524 . S
C894 C895 1.397 . S
C894 C899 1.363 . S
C895 H866 0.950 . S
C895 C894 1.397 . S
C895 C896 1.334 . S
C896 H867 0.950 . S
C896 C895 1.334 . S
C896 C897 1.287 . S
C897 C896 1.287 . S
C897 C898 1.524 . S
C897 H900 0.999 . S
C898 H868 0.950 . S
C898 C897 1.524 . S
C898 C899 1.415 . S
C899 H869 0.950 . S
C899 C894 1.363 . S
C899 C898 1.415 . S
H900 C897 0.999 . S
H901 C882 0.913 . S
H902 C920 0.951 . S
H903 C922 0.951 . S
H904 C924 0.950 . S
H905 C925 0.950 . S
H906 C927 0.950 . S
H907 C930 0.950 . S
H908 C931 0.950 . S
H909 C933 0.950 . S
H910 C934 0.950 . S
H911 C935 0.951 . S
H912 C937 0.951 . S
H913 C939 0.950 . S
H914 C940 0.950 . S
H915 C942 0.950 . S
H916 C945 0.950 . S
H917 C946 0.950 1_655 S
H918 C948 0.950 . S
H919 C949 0.950 . S
C920 H902 0.951 . S
C920 C921 1.366 . S
C920 C922 1.388 . S
C921 C920 1.366 . S
C921 C925 1.385 . S
C922 H903 0.951 . S
C922 C920 1.388 . S
C922 C923 1.366 . S
C923 C922 1.366 . S
C923 C924 1.414 . S
C923 C926 1.499 . S
C924 H904 0.950 . S
C924 C923 1.414 . S
C924 C925 1.374 . S
C925 H905 0.950 . S
C925 C921 1.385 . S
C925 C924 1.374 . S
C926 C923 1.499 . S
C926 C927 1.373 . S
C926 C928 1.389 . S
C927 H906 0.950 . S
C927 C926 1.373 . S
C927 C943 1.377 . S
C928 C926 1.389 . S
C928 C929 1.524 . S
C928 C942 1.377 . S
C929 C928 1.524 . S
C929 C930 1.397 . S
C929 C934 1.363 . S
C930 H907 0.950 . S
C930 C929 1.397 . S
C930 C931 1.334 . S
C931 H908 0.950 . S
C931 C930 1.334 . S
C931 C932 1.287 . S
C932 C931 1.287 . S
C932 C933 1.524 . S
C932 H951 0.913 . S
C933 H909 0.950 . S
C933 C932 1.524 . S
C933 C934 1.415 . S
C934 H910 0.950 . S
C934 C929 1.363 . S
C934 C933 1.415 . S
C935 H911 0.951 . S
C935 C936 1.366 . S
C935 C937 1.388 . S
C936 C935 1.366 . S
C936 C940 1.385 . S
C937 H912 0.951 . S
C937 C935 1.388 . S
C937 C938 1.366 . S
C938 C937 1.366 . S
C938 C939 1.414 . S
C938 C941 1.499 . S
C939 H913 0.950 . S
C939 C938 1.414 . S
C939 C940 1.374 . S
C940 H914 0.950 . S
C940 C936 1.385 . S
C940 C939 1.374 . S
C941 C938 1.499 . S
C941 C942 1.373 . S
C941 C943 1.389 . S
C942 H915 0.950 . S
C942 C928 1.377 . S
C942 C941 1.373 . S
C943 C927 1.377 . S
C943 C941 1.389 . S
C943 C944 1.524 . S
C944 C943 1.524 . S
C944 C945 1.397 . S
C944 C949 1.363 . S
C945 H916 0.950 . S
C945 C944 1.397 . S
C945 C946 1.334 . S
C946 H917 0.950 1_455 S
C946 C945 1.334 . S
C946 C947 1.287 . S
C947 C946 1.287 . S
C947 C948 1.524 . S
C947 H950 0.999 1_455 S
C948 H918 0.950 . S
C948 C947 1.524 . S
C948 C949 1.415 . S
C949 H919 0.950 . S
C949 C944 1.363 . S
C949 C948 1.415 . S
H950 C947 0.999 1_655 S
H951 C932 0.913 . S
H952 C970 0.951 . S
H953 C972 0.951 . S
H954 C974 0.950 . S
H955 C975 0.950 . S
H956 C977 0.950 . S
H957 C980 0.950 . S
H958 C981 0.950 . S
H959 C983 0.950 . S
H960 C984 0.950 . S
H961 C985 0.951 . S
H962 C987 0.951 . S
H963 C989 0.950 . S
H964 C990 0.950 . S
H965 C992 0.950 . S
H966 C995 0.950 . S
H967 C996 0.950 . S
H968 C998 0.950 . S
H969 C999 0.950 . S
C970 H952 0.951 . S
C970 C971 1.366 . S
C970 C972 1.388 . S
C971 C970 1.366 . S
C971 C975 1.385 . S
C972 H953 0.951 . S
C972 C970 1.388 . S
C972 C973 1.366 . S
C973 C972 1.366 . S
C973 C974 1.414 . S
C973 C976 1.499 . S
C974 H954 0.950 . S
C974 C973 1.414 . S
C974 C975 1.374 . S
C975 H955 0.950 . S
C975 C971 1.385 . S
C975 C974 1.374 . S
C976 C973 1.499 . S
C976 C977 1.373 . S
C976 C978 1.389 . S
C977 H956 0.950 . S
C977 C976 1.373 . S
C977 C993 1.377 . S
C978 C976 1.389 . S
C978 C979 1.524 . S
C978 C992 1.377 . S
C979 C978 1.524 . S
C979 C980 1.397 . S
C979 C984 1.363 . S
C980 H957 0.950 . S
C980 C979 1.397 . S
C980 C981 1.334 . S
C981 H958 0.950 . S
C981 C980 1.334 . S
C981 C982 1.287 . S
C982 C981 1.287 . S
C982 C983 1.524 . S
C982 H1001 0.913 . S
C983 H959 0.950 . S
C983 C982 1.524 . S
C983 C984 1.415 . S
C984 H960 0.950 . S
C984 C979 1.363 . S
C984 C983 1.415 . S
C985 H961 0.951 . S
C985 C986 1.366 . S
C985 C987 1.388 . S
C986 C985 1.366 . S
C986 C990 1.385 . S
C987 H962 0.951 . S
C987 C985 1.388 . S
C987 C988 1.366 . S
C988 C987 1.366 . S
C988 C989 1.414 . S
C988 C991 1.499 . S
C989 H963 0.950 . S
C989 C988 1.414 . S
C989 C990 1.374 . S
C990 H964 0.950 . S
C990 C986 1.385 . S
C990 C989 1.374 . S
C991 C988 1.499 . S
C991 C992 1.373 . S
C991 C993 1.389 . S
C992 H965 0.950 . S
C992 C978 1.377 . S
C992 C991 1.373 . S
C993 C977 1.377 . S
C993 C991 1.389 . S
C993 C994 1.524 . S
C994 C993 1.524 . S
C994 C995 1.397 . S
C994 C999 1.363 . S
C995 H966 0.950 . S
C995 C994 1.397 . S
C995 C996 1.334 . S
C996 H967 0.950 . S
C996 C995 1.334 . S
C996 C997 1.287 . S
C997 C996 1.287 . S
C997 C998 1.524 . S
C997 H1000 0.999 . S
C998 H968 0.950 . S
C998 C997 1.524 . S
C998 C999 1.415 . S
C999 H969 0.950 . S
C999 C994 1.363 . S
C999 C998 1.415 . S
H1000 C997 0.999 . S
H1001 C982 0.913 . S
H1002 C1020 0.951 . S
H1003 C1022 0.951 . S
H1004 C1024 0.950 . S
H1005 C1025 0.950 . S
H1006 C1027 0.950 . S
H1007 C1030 0.950 . S
H1008 C1031 0.950 . S
H1009 C1033 0.950 . S
H1010 C1034 0.950 . S
H1011 C1035 0.951 . S
H1012 C1037 0.951 . S
H1013 C1039 0.950 . S
H1014 C1040 0.950 . S
H1015 C1042 0.950 . S
H1016 C1045 0.950 . S
H1017 C1046 0.950 . S
H1018 C1048 0.950 . S
H1019 C1049 0.950 . S
C1020 H1002 0.951 . S
C1020 C1021 1.366 . S
C1020 C1022 1.388 . S
C1021 C1020 1.366 . S
C1021 C1025 1.385 . S
C1022 H1003 0.951 . S
C1022 C1020 1.388 . S
C1022 C1023 1.366 . S
C1023 C1022 1.366 . S
C1023 C1024 1.414 . S
C1023 C1026 1.499 . S
C1024 H1004 0.950 . S
C1024 C1023 1.414 . S
C1024 C1025 1.374 . S
C1025 H1005 0.950 . S
C1025 C1021 1.385 . S
C1025 C1024 1.374 . S
C1026 C1023 1.499 . S
C1026 C1027 1.373 . S
C1026 C1028 1.389 . S
C1027 H1006 0.950 . S
C1027 C1026 1.373 . S
C1027 C1043 1.377 . S
C1028 C1026 1.389 . S
C1028 C1029 1.524 . S
C1028 C1042 1.377 . S
C1029 C1028 1.524 . S
C1029 C1030 1.397 . S
C1029 C1034 1.363 . S
C1030 H1007 0.950 . S
C1030 C1029 1.397 . S
C1030 C1031 1.334 . S
C1031 H1008 0.950 . S
C1031 C1030 1.334 . S
C1031 C1032 1.287 . S
C1032 C1031 1.287 . S
C1032 C1033 1.524 . S
C1032 H1051 0.913 . S
C1033 H1009 0.950 . S
C1033 C1032 1.524 . S
C1033 C1034 1.415 . S
C1034 H1010 0.950 . S
C1034 C1029 1.363 . S
C1034 C1033 1.415 . S
C1035 H1011 0.951 . S
C1035 C1036 1.366 . S
C1035 C1037 1.388 . S
C1036 C1035 1.366 . S
C1036 C1040 1.385 . S
C1037 H1012 0.951 . S
C1037 C1035 1.388 . S
C1037 C1038 1.366 . S
C1038 C1037 1.366 . S
C1038 C1039 1.414 . S
C1038 C1041 1.499 . S
C1039 H1013 0.950 . S
C1039 C1038 1.414 . S
C1039 C1040 1.374 . S
C1040 H1014 0.950 . S
C1040 C1036 1.385 . S
C1040 C1039 1.374 . S
C1041 C1038 1.499 . S
C1041 C1042 1.373 . S
C1041 C1043 1.389 . S
C1042 H1015 0.950 . S
C1042 C1028 1.377 . S
C1042 C1041 1.373 . S
C1043 C1027 1.377 . S
C1043 C1041 1.389 . S
C1043 C1044 1.524 . S
C1044 C1043 1.524 . S
C1044 C1045 1.397 . S
C1044 C1049 1.363 . S
C1045 H1016 0.950 . S
C1045 C1044 1.397 . S
C1045 C1046 1.334 . S
C1046 H1017 0.950 . S
C1046 C1045 1.334 . S
C1046 C1047 1.287 . S
C1047 C1046 1.287 . S
C1047 C1048 1.524 . S
C1047 H1050 0.999 . S
C1048 H1018 0.950 . S
C1048 C1047 1.524 . S
C1048 C1049 1.415 . S
C1049 H1019 0.950 . S
C1049 C1044 1.363 . S
C1049 C1048 1.415 . S
H1050 C1047 0.999 . S
H1051 C1032 0.913 . S
H1052 C1070 0.951 . S
H1053 C1072 0.951 . S
H1054 C1074 0.950 . S
H1055 C1075 0.950 . S
H1056 C1077 0.950 . S
H1057 C1080 0.950 . S
H1058 C1081 0.950 . S
H1059 C1083 0.950 . S
H1060 C1084 0.950 . S
H1061 C1085 0.951 . S
H1062 C1087 0.951 . S
H1063 C1089 0.950 . S
H1064 C1090 0.950 . S
H1065 C1092 0.950 . S
H1066 C1095 0.950 . S
H1067 C1096 0.950 . S
H1068 C1098 0.950 . S
H1069 C1099 0.950 . S
C1070 H1052 0.951 . S
C1070 C1071 1.366 . S
C1070 C1072 1.388 . S
C1071 C1070 1.366 . S
C1071 C1075 1.385 . S
C1072 H1053 0.951 . S
C1072 C1070 1.388 . S
C1072 C1073 1.366 . S
C1073 C1072 1.366 . S
C1073 C1074 1.414 . S
C1073 C1076 1.499 . S
C1074 H1054 0.950 . S
C1074 C1073 1.414 . S
C1074 C1075 1.374 . S
C1075 H1055 0.950 . S
C1075 C1071 1.385 . S
C1075 C1074 1.374 . S
C1076 C1073 1.499 . S
C1076 C1077 1.373 . S
C1076 C1078 1.389 . S
C1077 H1056 0.950 . S
C1077 C1076 1.373 . S
C1077 C1093 1.377 . S
C1078 C1076 1.389 . S
C1078 C1079 1.524 . S
C1078 C1092 1.377 . S
C1079 C1078 1.524 . S
C1079 C1080 1.397 . S
C1079 C1084 1.363 . S
C1080 H1057 0.950 . S
C1080 C1079 1.397 . S
C1080 C1081 1.334 . S
C1081 H1058 0.950 . S
C1081 C1080 1.334 . S
C1081 C1082 1.287 . S
C1082 C1081 1.287 . S
C1082 C1083 1.524 . S
C1082 H1101 0.913 . S
C1083 H1059 0.950 . S
C1083 C1082 1.524 . S
C1083 C1084 1.415 . S
C1084 H1060 0.950 . S
C1084 C1079 1.363 . S
C1084 C1083 1.415 . S
C1085 H1061 0.951 . S
C1085 C1086 1.366 . S
C1085 C1087 1.388 . S
C1086 C1085 1.366 . S
C1086 C1090 1.385 . S
C1087 H1062 0.951 . S
C1087 C1085 1.388 . S
C1087 C1088 1.366 . S
C1088 C1087 1.366 . S
C1088 C1089 1.414 . S
C1088 C1091 1.499 . S
C1089 H1063 0.950 . S
C1089 C1088 1.414 . S
C1089 C1090 1.374 . S
C1090 H1064 0.950 . S
C1090 C1086 1.385 . S
C1090 C1089 1.374 . S
C1091 C1088 1.499 . S
C1091 C1092 1.373 . S
C1091 C1093 1.389 . S
C1092 H1065 0.950 . S
C1092 C1078 1.377 . S
C1092 C1091 1.373 . S
C1093 C1077 1.377 . S
C1093 C1091 1.389 . S
C1093 C1094 1.524 . S
C1094 C1093 1.524 . S
C1094 C1095 1.397 . S
C1094 C1099 1.363 . S
C1095 H1066 0.950 . S
C1095 C1094 1.397 . S
C1095 C1096 1.334 . S
C1096 H1067 0.950 . S
C1096 C1095 1.334 . S
C1096 C1097 1.287 . S
C1097 C1096 1.287 . S
C1097 C1098 1.524 . S
C1097 H1100 0.999 . S
C1098 H1068 0.950 . S
C1098 C1097 1.524 . S
C1098 C1099 1.415 . S
C1099 H1069 0.950 . S
C1099 C1094 1.363 . S
C1099 C1098 1.415 . S
H1100 C1097 0.999 . S
H1101 C1082 0.913 . S
H1102 C1120 0.951 . S
H1103 C1122 0.951 . S
H1104 C1124 0.950 . S
H1105 C1125 0.950 . S
H1106 C1127 0.950 . S
H1107 C1130 0.950 . S
H1108 C1131 0.950 . S
H1109 C1133 0.950 . S
H1110 C1134 0.950 . S
H1111 C1135 0.951 . S
H1112 C1137 0.951 . S
H1113 C1139 0.950 . S
H1114 C1140 0.950 . S
H1115 C1142 0.950 . S
H1116 C1145 0.950 . S
H1117 C1146 0.950 . S
H1118 C1148 0.950 . S
H1119 C1149 0.950 . S
C1120 H1102 0.951 . S
C1120 C1121 1.366 . S
C1120 C1122 1.388 . S
C1121 C1120 1.366 . S
C1121 C1125 1.385 . S
C1122 H1103 0.951 . S
C1122 C1120 1.388 . S
C1122 C1123 1.366 . S
C1123 C1122 1.366 . S
C1123 C1124 1.414 . S
C1123 C1126 1.499 . S
C1124 H1104 0.950 . S
C1124 C1123 1.414 . S
C1124 C1125 1.374 . S
C1125 H1105 0.950 . S
C1125 C1121 1.385 . S
C1125 C1124 1.374 . S
C1126 C1123 1.499 . S
C1126 C1127 1.373 . S
C1126 C1128 1.389 . S
C1127 H1106 0.950 . S
C1127 C1126 1.373 . S
C1127 C1143 1.377 . S
C1128 C1126 1.389 . S
C1128 C1129 1.524 . S
C1128 C1142 1.377 . S
C1129 C1128 1.524 . S
C1129 C1130 1.397 . S
C1129 C1134 1.363 . S
C1130 H1107 0.950 . S
C1130 C1129 1.397 . S
C1130 C1131 1.334 . S
C1131 H1108 0.950 . S
C1131 C1130 1.334 . S
C1131 C1132 1.287 . S
C1132 C1131 1.287 . S
C1132 C1133 1.524 . S
C1132 H1151 0.913 . S
C1133 H1109 0.950 . S
C1133 C1132 1.524 . S
C1133 C1134 1.415 . S
C1134 H1110 0.950 . S
C1134 C1129 1.363 . S
C1134 C1133 1.415 . S
C1135 H1111 0.951 . S
C1135 C1136 1.366 . S
C1135 C1137 1.388 . S
C1136 C1135 1.366 . S
C1136 C1140 1.385 . S
C1137 H1112 0.951 . S
C1137 C1135 1.388 . S
C1137 C1138 1.366 . S
C1138 C1137 1.366 . S
C1138 C1139 1.414 . S
C1138 C1141 1.499 . S
C1139 H1113 0.950 . S
C1139 C1138 1.414 . S
C1139 C1140 1.374 . S
C1140 H1114 0.950 . S
C1140 C1136 1.385 . S
C1140 C1139 1.374 . S
C1141 C1138 1.499 . S
C1141 C1142 1.373 . S
C1141 C1143 1.389 . S
C1142 H1115 0.950 . S
C1142 C1128 1.377 . S
C1142 C1141 1.373 . S
C1143 C1127 1.377 . S
C1143 C1141 1.389 . S
C1143 C1144 1.524 . S
C1144 C1143 1.524 . S
C1144 C1145 1.397 . S
C1144 C1149 1.363 . S
C1145 H1116 0.950 . S
C1145 C1144 1.397 . S
C1145 C1146 1.334 . S
C1146 H1117 0.950 . S
C1146 C1145 1.334 . S
C1146 C1147 1.287 . S
C1147 C1146 1.287 . S
C1147 C1148 1.524 . S
C1147 H1150 0.999 . S
C1148 H1118 0.950 . S
C1148 C1147 1.524 . S
C1148 C1149 1.415 . S
C1149 H1119 0.950 . S
C1149 C1144 1.363 . S
C1149 C1148 1.415 . S
H1150 C1147 0.999 . S
H1151 C1132 0.913 . S
H1152 C1170 0.951 . S
H1153 C1172 0.951 . S
H1154 C1174 0.950 . S
H1155 C1175 0.950 . S
H1156 C1177 0.950 . S
H1157 C1180 0.950 . S
H1158 C1181 0.950 . S
H1159 C1183 0.950 . S
H1160 C1184 0.950 . S
H1161 C1185 0.951 . S
H1162 C1187 0.951 . S
H1163 C1189 0.950 . S
H1164 C1190 0.950 . S
H1165 C1192 0.950 . S
H1166 C1195 0.950 . S
H1167 C1196 0.950 . S
H1168 C1198 0.950 . S
H1169 C1199 0.950 . S
C1170 H1152 0.951 . S
C1170 C1171 1.366 . S
C1170 C1172 1.388 . S
C1171 C1170 1.366 . S
C1171 C1175 1.385 . S
C1172 H1153 0.951 . S
C1172 C1170 1.388 . S
C1172 C1173 1.366 . S
C1173 C1172 1.366 . S
C1173 C1174 1.414 . S
C1173 C1176 1.499 . S
C1174 H1154 0.950 . S
C1174 C1173 1.414 . S
C1174 C1175 1.374 . S
C1175 H1155 0.950 . S
C1175 C1171 1.385 . S
C1175 C1174 1.374 . S
C1176 C1173 1.499 . S
C1176 C1177 1.373 . S
C1176 C1178 1.389 . S
C1177 H1156 0.950 . S
C1177 C1176 1.373 . S
C1177 C1193 1.377 . S
C1178 C1176 1.389 . S
C1178 C1179 1.524 . S
C1178 C1192 1.377 . S
C1179 C1178 1.524 . S
C1179 C1180 1.397 . S
C1179 C1184 1.363 . S
C1180 H1157 0.950 . S
C1180 C1179 1.397 . S
C1180 C1181 1.334 . S
C1181 H1158 0.950 . S
C1181 C1180 1.334 . S
C1181 C1182 1.287 . S
C1182 C1181 1.287 . S
C1182 C1183 1.524 . S
C1182 H1201 0.913 . S
C1183 H1159 0.950 . S
C1183 C1182 1.524 . S
C1183 C1184 1.415 . S
C1184 H1160 0.950 . S
C1184 C1179 1.363 . S
C1184 C1183 1.415 . S
C1185 H1161 0.951 . S
C1185 C1186 1.366 . S
C1185 C1187 1.388 . S
C1186 C1185 1.366 . S
C1186 C1190 1.385 . S
C1187 H1162 0.951 . S
C1187 C1185 1.388 . S
C1187 C1188 1.366 . S
C1188 C1187 1.366 . S
C1188 C1189 1.414 . S
C1188 C1191 1.499 . S
C1189 H1163 0.950 . S
C1189 C1188 1.414 . S
C1189 C1190 1.374 . S
C1190 H1164 0.950 . S
C1190 C1186 1.385 . S
C1190 C1189 1.374 . S
C1191 C1188 1.499 . S
C1191 C1192 1.373 . S
C1191 C1193 1.389 . S
C1192 H1165 0.950 . S
C1192 C1178 1.377 . S
C1192 C1191 1.373 . S
C1193 C1177 1.377 . S
C1193 C1191 1.389 . S
C1193 C1194 1.524 . S
C1194 C1193 1.524 . S
C1194 C1195 1.397 . S
C1194 C1199 1.363 . S
C1195 H1166 0.950 . S
C1195 C1194 1.397 . S
C1195 C1196 1.334 . S
C1196 H1167 0.950 . S
C1196 C1195 1.334 . S
C1196 C1197 1.287 . S
C1197 C1196 1.287 . S
C1197 C1198 1.524 . S
C1197 H1200 0.999 1_556 S
C1198 H1168 0.950 . S
C1198 C1197 1.524 . S
C1198 C1199 1.415 . S
C1199 H1169 0.950 . S
C1199 C1194 1.363 . S
C1199 C1198 1.415 . S
H1200 C1197 0.999 1_554 S
H1201 C1182 0.913 . S
H1202 C1220 0.951 . S
H1203 C1222 0.951 . S
H1204 C1224 0.950 . S
H1205 C1225 0.950 . S
H1206 C1227 0.950 . S
H1207 C1230 0.950 . S
H1208 C1231 0.950 . S
H1209 C1233 0.950 . S
H1210 C1234 0.950 . S
H1211 C1235 0.951 . S
H1212 C1237 0.951 . S
H1213 C1239 0.950 . S
H1214 C1240 0.950 . S
H1215 C1242 0.950 . S
H1216 C1245 0.950 . S
H1217 C1246 0.950 . S
H1218 C1248 0.950 . S
H1219 C1249 0.950 . S
C1220 H1202 0.951 . S
C1220 C1221 1.366 . S
C1220 C1222 1.388 . S
C1221 C1220 1.366 . S
C1221 C1225 1.385 . S
C1222 H1203 0.951 . S
C1222 C1220 1.388 . S
C1222 C1223 1.366 . S
C1223 C1222 1.366 . S
C1223 C1224 1.414 . S
C1223 C1226 1.499 . S
C1224 H1204 0.950 . S
C1224 C1223 1.414 . S
C1224 C1225 1.374 . S
C1225 H1205 0.950 . S
C1225 C1221 1.385 . S
C1225 C1224 1.374 . S
C1226 C1223 1.499 . S
C1226 C1227 1.373 . S
C1226 C1228 1.389 . S
C1227 H1206 0.950 . S
C1227 C1226 1.373 . S
C1227 C1243 1.377 . S
C1228 C1226 1.389 . S
C1228 C1229 1.524 . S
C1228 C1242 1.377 . S
C1229 C1228 1.524 . S
C1229 C1230 1.397 . S
C1229 C1234 1.363 . S
C1230 H1207 0.950 . S
C1230 C1229 1.397 . S
C1230 C1231 1.334 . S
C1231 H1208 0.950 . S
C1231 C1230 1.334 . S
C1231 C1232 1.287 . S
C1232 C1231 1.287 . S
C1232 C1233 1.524 . S
C1232 H1251 0.913 . S
C1233 H1209 0.950 . S
C1233 C1232 1.524 . S
C1233 C1234 1.415 . S
C1234 H1210 0.950 . S
C1234 C1229 1.363 . S
C1234 C1233 1.415 . S
C1235 H1211 0.951 . S
C1235 C1236 1.366 . S
C1235 C1237 1.388 . S
C1236 C1235 1.366 . S
C1236 C1240 1.385 . S
C1237 H1212 0.951 . S
C1237 C1235 1.388 . S
C1237 C1238 1.366 . S
C1238 C1237 1.366 . S
C1238 C1239 1.414 . S
C1238 C1241 1.499 . S
C1239 H1213 0.950 . S
C1239 C1238 1.414 . S
C1239 C1240 1.374 . S
C1240 H1214 0.950 . S
C1240 C1236 1.385 . S
C1240 C1239 1.374 . S
C1241 C1238 1.499 . S
C1241 C1242 1.373 . S
C1241 C1243 1.389 . S
C1242 H1215 0.950 . S
C1242 C1228 1.377 . S
C1242 C1241 1.373 . S
C1243 C1227 1.377 . S
C1243 C1241 1.389 . S
C1243 C1244 1.524 . S
C1244 C1243 1.524 . S
C1244 C1245 1.397 . S
C1244 C1249 1.363 . S
C1245 H1216 0.950 . S
C1245 C1244 1.397 . S
C1245 C1246 1.334 . S
C1246 H1217 0.950 . S
C1246 C1245 1.334 . S
C1246 C1247 1.287 . S
C1247 C1246 1.287 . S
C1247 C1248 1.524 . S
C1247 H1250 0.999 . S
C1248 H1218 0.950 . S
C1248 C1247 1.524 . S
C1248 C1249 1.415 . S
C1249 H1219 0.950 . S
C1249 C1244 1.363 . S
C1249 C1248 1.415 . S
H1250 C1247 0.999 . S
H1251 C1232 0.913 . S
H1252 C1270 0.951 . S
H1253 C1272 0.951 . S
H1254 C1274 0.950 . S
H1255 C1275 0.950 . S
H1256 C1277 0.950 . S
H1257 C1280 0.950 . S
H1258 C1281 0.950 . S
H1259 C1283 0.950 . S
H1260 C1284 0.950 . S
H1261 C1285 0.951 . S
H1262 C1287 0.951 . S
H1263 C1289 0.950 . S
H1264 C1290 0.950 . S
H1265 C1292 0.950 . S
H1266 C1295 0.950 . S
H1267 C1296 0.950 1_655 S
H1268 C1298 0.950 . S
H1269 C1299 0.950 . S
C1270 H1252 0.951 . S
C1270 C1271 1.366 . S
C1270 C1272 1.388 . S
C1271 C1270 1.366 . S
C1271 C1275 1.385 . S
C1272 H1253 0.951 . S
C1272 C1270 1.388 . S
C1272 C1273 1.366 . S
C1273 C1272 1.366 . S
C1273 C1274 1.414 . S
C1273 C1276 1.499 . S
C1274 H1254 0.950 . S
C1274 C1273 1.414 . S
C1274 C1275 1.374 . S
C1275 H1255 0.950 . S
C1275 C1271 1.385 . S
C1275 C1274 1.374 . S
C1276 C1273 1.499 . S
C1276 C1277 1.373 . S
C1276 C1278 1.389 . S
C1277 H1256 0.950 . S
C1277 C1276 1.373 . S
C1277 C1293 1.377 . S
C1278 C1276 1.389 . S
C1278 C1279 1.524 . S
C1278 C1292 1.377 . S
C1279 C1278 1.524 . S
C1279 C1280 1.397 . S
C1279 C1284 1.363 . S
C1280 H1257 0.950 . S
C1280 C1279 1.397 . S
C1280 C1281 1.334 . S
C1281 H1258 0.950 . S
C1281 C1280 1.334 . S
C1281 C1282 1.287 . S
C1282 C1281 1.287 . S
C1282 C1283 1.524 . S
C1282 H1301 0.913 . S
C1283 H1259 0.950 . S
C1283 C1282 1.524 . S
C1283 C1284 1.415 . S
C1284 H1260 0.950 . S
C1284 C1279 1.363 . S
C1284 C1283 1.415 . S
C1285 H1261 0.951 . S
C1285 C1286 1.366 . S
C1285 C1287 1.388 . S
C1286 C1285 1.366 . S
C1286 C1290 1.385 . S
C1287 H1262 0.951 . S
C1287 C1285 1.388 . S
C1287 C1288 1.366 . S
C1288 C1287 1.366 . S
C1288 C1289 1.414 . S
C1288 C1291 1.499 . S
C1289 H1263 0.950 . S
C1289 C1288 1.414 . S
C1289 C1290 1.374 . S
C1290 H1264 0.950 . S
C1290 C1286 1.385 . S
C1290 C1289 1.374 . S
C1291 C1288 1.499 . S
C1291 C1292 1.373 . S
C1291 C1293 1.389 . S
C1292 H1265 0.950 . S
C1292 C1278 1.377 . S
C1292 C1291 1.373 . S
C1293 C1277 1.377 . S
C1293 C1291 1.389 . S
C1293 C1294 1.524 . S
C1294 C1293 1.524 . S
C1294 C1295 1.397 . S
C1294 C1299 1.363 . S
C1295 H1266 0.950 . S
C1295 C1294 1.397 . S
C1295 C1296 1.334 . S
C1296 H1267 0.950 1_455 S
C1296 C1295 1.334 . S
C1296 C1297 1.287 . S
C1297 C1296 1.287 . S
C1297 C1298 1.524 . S
C1297 H1300 1.003 1_455 S
C1298 H1268 0.950 . S
C1298 C1297 1.524 . S
C1298 C1299 1.415 . S
C1299 H1269 0.950 . S
C1299 C1294 1.363 . S
C1299 C1298 1.415 . S
H1300 C1297 1.003 1_655 S
H1301 C1282 0.913 . S
H1302 C1320 0.951 . S
H1303 C1322 0.951 . S
H1304 C1324 0.950 . S
H1305 C1325 0.950 . S
H1306 C1327 0.950 . S
H1307 C1330 0.950 . S
H1308 C1331 0.950 . S
H1309 C1333 0.950 . S
H1310 C1334 0.950 . S
H1311 C1335 0.951 . S
H1312 C1337 0.951 . S
H1313 C1339 0.950 . S
H1314 C1340 0.950 . S
H1315 C1342 0.950 . S
H1316 C1345 0.950 . S
H1317 C1346 0.950 . S
H1318 C1348 0.950 . S
H1319 C1349 0.950 . S
C1320 H1302 0.951 . S
C1320 C1321 1.366 . S
C1320 C1322 1.388 . S
C1321 C1320 1.366 . S
C1321 C1325 1.385 . S
C1322 H1303 0.951 . S
C1322 C1320 1.388 . S
C1322 C1323 1.366 . S
C1323 C1322 1.366 . S
C1323 C1324 1.414 . S
C1323 C1326 1.499 . S
C1324 H1304 0.950 . S
C1324 C1323 1.414 . S
C1324 C1325 1.374 . S
C1325 H1305 0.950 . S
C1325 C1321 1.385 . S
C1325 C1324 1.374 . S
C1326 C1323 1.499 . S
C1326 C1327 1.373 . S
C1326 C1328 1.389 . S
C1327 H1306 0.950 . S
C1327 C1326 1.373 . S
C1327 C1343 1.377 . S
C1328 C1326 1.389 . S
C1328 C1329 1.524 . S
C1328 C1342 1.377 . S
C1329 C1328 1.524 . S
C1329 C1330 1.397 . S
C1329 C1334 1.363 . S
C1330 H1307 0.950 . S
C1330 C1329 1.397 . S
C1330 C1331 1.334 . S
C1331 H1308 0.950 . S
C1331 C1330 1.334 . S
C1331 C1332 1.287 . S
C1332 C1331 1.287 . S
C1332 C1333 1.524 . S
C1332 H1351 0.913 . S
C1333 H1309 0.950 . S
C1333 C1332 1.524 . S
C1333 C1334 1.415 . S
C1334 H1310 0.950 . S
C1334 C1329 1.363 . S
C1334 C1333 1.415 . S
C1335 H1311 0.951 . S
C1335 C1336 1.366 . S
C1335 C1337 1.388 . S
C1336 C1335 1.366 . S
C1336 C1340 1.385 . S
C1337 H1312 0.951 . S
C1337 C1335 1.388 . S
C1337 C1338 1.366 . S
C1338 C1337 1.366 . S
C1338 C1339 1.414 . S
C1338 C1341 1.499 . S
C1339 H1313 0.950 . S
C1339 C1338 1.414 . S
C1339 C1340 1.374 . S
C1340 H1314 0.950 . S
C1340 C1336 1.385 . S
C1340 C1339 1.374 . S
C1341 C1338 1.499 . S
C1341 C1342 1.373 . S
C1341 C1343 1.389 . S
C1342 H1315 0.950 . S
C1342 C1328 1.377 . S
C1342 C1341 1.373 . S
C1343 C1327 1.377 . S
C1343 C1341 1.389 . S
C1343 C1344 1.524 . S
C1344 C1343 1.524 . S
C1344 C1345 1.397 . S
C1344 C1349 1.363 . S
C1345 H1316 0.950 . S
C1345 C1344 1.397 . S
C1345 C1346 1.334 . S
C1346 H1317 0.950 . S
C1346 C1345 1.334 . S
C1346 C1347 1.287 . S
C1347 C1346 1.287 . S
C1347 C1348 1.524 . S
C1347 H1350 0.999 . S
C1348 H1318 0.950 . S
C1348 C1347 1.524 . S
C1348 C1349 1.415 . S
C1349 H1319 0.950 . S
C1349 C1344 1.363 . S
C1349 C1348 1.415 . S
H1350 C1347 0.999 . S
H1351 C1332 0.913 . S
C171 C5 1.472 . S
C186 C91 1.446 . S
C221 C14 1.290 . S
C236 C94 1.238 . S
C286 C130 1.726 . S
C271 C25 1.760 . S
C321 C34 1.642 . S
C336 C150 1.612 . S
C386 C104 1.666 . S
C371 C7 1.697 . S
C436 C81 1.529 . S
C421 C13 1.555 . S
C486 C134 1.532 . S
C471 C23 1.637 . S
C536 C114 1.338 . S
C521 C31 1.409 . S
C571 C4 1.331 . S
C586 C144 1.287 . S
C636 C110 1.597 . S
C621 C22 1.623 . S
C671 C32 1.632 . S
C686 C76 1.564 . S
C721 C16 1.334 . S
C736 C124 1.303 . S
C786 C90 1.430 . S
C771 C41 1.455 . S
C821 C50 1.298 . S
C836 C96 1.246 . S
C871 C61 1.757 . S
C886 C131 1.724 . S
C921 C67 1.654 . S
C936 C151 1.625 . S
C971 C40 1.715 . S
C986 C101 1.685 . S
C1036 C84 1.505 . S
C1021 C52 1.530 . S
C1086 C136 1.538 . S
C1071 C59 1.644 . S
C1136 C116 1.335 . S
C1121 C70 1.405 . S
C1171 C43 1.327 . S
C1186 C141 1.284 . S
C1236 C111 1.606 . S
C1221 C58 1.633 . S
C1286 C74 1.548 . S
C1271 C68 1.616 . S
C1321 C49 1.343 . S
C1336 C121 1.312 . S
