# Generated by pormake.
# Topology tsx, (6,3)-cn, num edge types: 1
# Building blocks:
#     Node 0, Type 0, BuildingBlock: VOLQOD_clean_sbu_1, # of connection points: 6
#     Node 1, Type 0, BuildingBlock: VOLQOD_clean_sbu_1, # of connection points: 6
#     Node 2, Type 1, BuildingBlock: QEWDON_clean_linker_0, # of connection points: 3
#     Node 3, Type 1, BuildingBlock: QEWDON_clean_linker_0, # of connection points: 3
#     Node 4, Type 1, BuildingBlock: QEWDON_clean_linker_0, # of connection points: 3
#     Node 5, Type 1, BuildingBlock: QEWDON_clean_linker_0, # of connection points: 3
#     Edge 6, Type (0, 1), BuildingBlock: FUNLAD_clean_linker_0, # of connection points: 2
#     Edge 7, Type (0, 1), BuildingBlock: FUNLAD_clean_linker_0, # of connection points: 2
#     Edge 8, Type (0, 1), BuildingBlock: FUNLAD_clean_linker_0, # of connection points: 2
#     Edge 9, Type (0, 1), BuildingBlock: FUNLAD_clean_linker_0, # of connection points: 2
#     Edge 10, Type (0, 1), BuildingBlock: FUNLAD_clean_linker_0, # of connection points: 2
#     Edge 11, Type (0, 1), BuildingBlock: FUNLAD_clean_linker_0, # of connection points: 2
#     Edge 12, Type (0, 1), BuildingBlock: FUNLAD_clean_linker_0, # of connection points: 2
#     Edge 13, Type (0, 1), BuildingBlock: FUNLAD_clean_linker_0, # of connection points: 2
#     Edge 14, Type (0, 1), BuildingBlock: FUNLAD_clean_linker_0, # of connection points: 2
#     Edge 15, Type (0, 1), BuildingBlock: FUNLAD_clean_linker_0, # of connection points: 2
#     Edge 16, Type (0, 1), BuildingBlock: FUNLAD_clean_linker_0, # of connection points: 2
#     Edge 17, Type (0, 1), BuildingBlock: FUNLAD_clean_linker_0, # of connection points: 2
# Relax obj value: 0.078
# Max RMSD: 0.179
# Mean RMSD: 0.150
data_MOF--net-tsx--node1-VOLQOD_clean_sbu_1--node2-QEWDON_clean_linker_0--edge1-FUNLAD_clean_linker_0
_symmetry_space_group_name_H-M    P1
_symmetry_Int_Tables_number       1
_symmetry_cell_setting            triclinic
loop_
_symmetry_equiv_pos_as_xyz
'x, y, z'
_cell_length_a     25.374154
_cell_length_b     26.223773
_cell_length_c     43.702228
_cell_angle_alpha  90.07723
_cell_angle_beta   100.5107
_cell_angle_gamma 90.449447
loop_
_atom_site_label
_atom_site_type_symbol
_atom_site_fract_x
_atom_site_fract_y
_atom_site_fract_z
_atom_type_partial_charge
O0 O 0.08453 0.9939 0.06491 0.0
Zn1 Zn 0.08792 0.99547 0.01873 0.0
O2 O 0.01521 0.99916 -0.00651 0.0
Zn3 Zn 0.99855 0.93754 0.9681 0.0
Zn4 Zn 0.96262 0.0052 0.02039 0.0
Zn5 Zn 0.00969 0.05915 0.9668 0.0
O6 O 0.98106 0.95542 0.92258 0.0
O7 O 0.99859 0.0385 0.92181 0.0
O8 O 0.12691 0.93291 0.0068 0.0
O9 O 0.06434 0.89399 0.97218 0.0
O10 O 0.93783 0.89532 0.98046 0.0
O11 O 0.91731 0.94212 0.01892 0.0
O12 O 0.91339 0.06485 0.00943 0.0
O13 O 0.13168 0.05875 0.01193 0.0
O14 O 0.94776 0.10379 0.97248 0.0
O15 O 0.07628 0.10231 0.97639 0.0
C16 C 0.04637 0.00502 0.07908 0.0
C17 C 0.98573 0.99647 0.90769 0.0
C18 C 0.91075 0.90227 0.00198 0.0
C19 C 0.11194 0.89644 0.98772 0.0
C20 C 0.913 0.10113 0.99009 0.0
C21 C 0.12131 0.09782 -0.00545 0.0
O22 O 0.99916 0.01307 0.06435 0.0
O23 O 0.55334 0.4846 0.56531 0.0
Zn24 Zn 0.56486 0.49138 0.52069 0.0
O25 O 0.49727 0.50325 0.49185 0.0
Zn26 Zn 0.47934 0.44384 0.46425 0.0
Zn27 Zn 0.44122 0.51462 0.51588 0.0
Zn28 Zn 0.50268 0.5643 0.4672 0.0
O29 O 0.46676 0.46566 0.41898 0.0
O30 O 0.49491 0.54631 0.4221 0.0
O31 O 0.60145 0.42819 0.5084 0.0
O32 O 0.54295 0.3963 0.46873 0.0
O33 O 0.41402 0.40513 0.47428 0.0
O34 O 0.3881 0.45778 0.50845 0.0
O35 O 0.40273 0.58131 0.50637 0.0
O36 O 0.61525 0.55112 0.51949 0.0
O37 O 0.44426 0.6149 0.47065 0.0
O38 O 0.57343 0.60006 0.48133 0.0
C39 C 0.51353 0.49681 0.57779 0.0
C40 C 0.4781 0.50693 0.40606 0.0
C41 C 0.38204 0.41674 0.49261 0.0
C42 C 0.5882 0.39486 0.48705 0.0
C43 C 0.40825 0.61694 0.48744 0.0
C44 C 0.61371 0.59085 0.50257 0.0
O45 O 0.46985 0.51188 0.56139 0.0
H46 H 0.02002 0.08752 0.36947 0.0
C47 C 0.04003 0.05411 0.38047 0.0
C48 C 0.05692 0.01571 0.36216 0.0
C49 C 0.0517 0.05143 0.41304 0.0
H50 H 0.09799 0.94409 0.36304 0.0
C51 C 0.08303 0.973 0.37692 0.0
C52 C 0.09348 0.96857 0.4095 0.0
C53 C 0.07871 0.00869 0.42757 0.0
C54 C 0.04232 0.09698 0.43117 0.0
H55 H 0.08837 0.00695 0.45274 0.0
C56 C 0.99059 0.11754 0.42883 0.0
C57 C 0.9834 0.16546 0.44208 0.0
C58 C 0.08668 0.12428 0.44711 0.0
H59 H 0.12689 0.10975 0.44844 0.0
C60 C 0.07987 0.17203 0.45976 0.0
H61 H 0.95639 0.09709 0.41584 0.0
C62 C 0.0287 0.19248 0.45744 0.0
H63 H 0.02459 0.22951 0.46772 0.0
H64 H 0.11457 0.19369 0.47085 0.0
H65 H 0.97075 0.08763 0.61525 0.0
C66 C 0.95491 0.05269 0.60368 0.0
C67 C 0.9487 0.00917 0.62134 0.0
C68 C 0.9361 0.05275 0.57141 0.0
H69 H 0.92278 0.93082 0.61979 0.0
C70 C 0.92629 0.96479 0.60618 0.0
C71 C 0.90634 0.96434 0.57404 0.0
C72 C 0.91174 0.00856 0.55671 0.0
C73 C 0.93573 0.10091 0.55388 0.0
H74 H 0.89516 0.00943 0.53204 0.0
C75 C 0.98313 0.12935 0.55437 0.0
C76 C 0.98197 0.17621 0.53847 0.0
C77 C 0.88689 0.11995 0.53794 0.0
H78 H 0.84978 0.09917 0.53784 0.0
C79 C 0.88526 0.16671 0.52281 0.0
H80 H 0.02058 0.11506 0.56733 0.0
C81 C 0.93234 0.19436 0.5226 0.0
H82 H 0.92973 0.22974 0.50969 0.0
H83 H 0.84727 0.18154 0.51116 0.0
H84 H 0.53859 0.5599 0.86248 0.0
C85 C 0.55532 0.52943 0.87793 0.0
C86 C 0.56946 0.48324 0.86552 0.0
C87 C 0.56684 0.53849 0.91007 0.0
H88 H 0.60503 0.40971 0.87636 0.0
C89 C 0.59331 0.4452 0.88587 0.0
C90 C 0.60548 0.45377 0.91815 0.0
C91 C 0.59233 0.50084 0.93018 0.0
C92 C 0.55981 0.59042 0.92137 0.0
H93 H 0.60326 0.50875 0.95489 0.0
C94 C 0.51036 0.60605 0.92823 0.0
C95 C 0.50162 0.65789 0.93402 0.0
C96 C 0.60101 0.6263 0.92126 0.0
H97 H 0.63914 0.61479 0.91575 0.0
C98 C 0.59254 0.67759 0.92692 0.0
H99 H 0.47834 0.57834 0.92791 0.0
C100 C 0.54293 0.69346 0.93264 0.0
H101 H 0.53721 0.73364 0.93659 0.0
H102 H 0.62424 0.70527 0.9264 0.0
H103 H 0.48156 0.57315 0.1195 0.0
C104 C 0.46906 0.53928 0.10572 0.0
C105 C 0.46197 0.49306 0.12058 0.0
C106 C 0.45833 0.54276 0.07319 0.0
H107 H 0.43746 0.41458 0.11392 0.0
C108 C 0.44513 0.44978 0.10245 0.0
C109 C 0.43372 0.45249 0.06976 0.0
C110 C 0.4404 0.49943 0.05517 0.0
C111 C 0.45996 0.59357 0.05895 0.0
H112 H 0.43051 0.5026 0.03006 0.0
C113 C 0.50634 0.61134 0.04885 0.0
C114 C 0.51031 0.66264 0.03959 0.0
C115 C 0.41708 0.62676 0.0593 0.0
H116 H 0.38144 0.6138 0.06748 0.0
C117 C 0.42052 0.67732 0.05011 0.0
H118 H 0.53935 0.58542 0.04876 0.0
C119 C 0.46674 0.6953 0.04052 0.0
H120 H 0.46853 0.73518 0.0344 0.0
H121 H 0.38746 0.7029 0.05077 0.0
C122 C 0.21157 0.13727 0.01574 0.0
C123 C 0.16094 0.14027 -0.00364 0.0
C124 C 0.24709 0.17897 0.01885 0.0
C125 C 0.23269 0.22462 0.00258 0.0
C126 C 0.18253 0.22717 0.98286 0.0
C127 C 0.14727 0.18553 0.97961 0.0
C128 C 0.26638 0.27173 0.00758 0.0
C129 C 0.3199 0.27186 0.01765 0.0
C130 C 0.3521 0.31914 0.02679 0.0
C131 C 0.40103 0.31472 0.04757 0.0
C132 C 0.42937 0.35813 0.06003 0.0
C133 C 0.40963 0.40714 0.05184 0.0
H134 H 0.29816 0.37353 -0.00021 0.0
C135 C 0.36289 0.41174 0.0292 0.0
C136 C 0.33444 0.36823 0.01672 0.0
H137 H 0.34669 0.44895 0.02234 0.0
H138 H 0.22336 0.10313 0.02908 0.0
H139 H 0.28473 0.1758 0.03494 0.0
H140 H 0.17016 0.26188 0.97023 0.0
H141 H 0.10866 0.18942 0.96447 0.0
H142 H 0.24529 0.30759 0.00356 0.0
H143 H 0.34069 0.23576 0.02144 0.0
H144 H 0.41623 0.27754 0.05536 0.0
H145 H 0.46578 0.35335 0.07705 0.0
C146 C 0.20114 0.85245 0.00121 0.0
C147 C 0.15159 0.85857 0.9811 0.0
C148 C 0.24006 0.81995 -0.00689 0.0
C149 C 0.23037 0.79363 0.96451 0.0
C150 C 0.18057 0.79899 0.94481 0.0
C151 C 0.14138 0.83051 0.95315 0.0
C152 C 0.2731 0.76496 0.95304 0.0
C153 C 0.3117 0.73884 0.97165 0.0
C154 C 0.35712 0.7155 0.95967 0.0
C155 C 0.37934 0.66964 0.97236 0.0
C156 C 0.42518 0.64968 0.96324 0.0
C157 C 0.44983 0.67558 0.94138 0.0
H158 H 0.36521 0.77629 0.92715 0.0
C159 C 0.42653 0.72068 0.92803 0.0
C160 C 0.3808 0.74046 0.93708 0.0
H161 H 0.44423 0.74126 0.9109 0.0
H162 H 0.21026 0.87357 0.02287 0.0
H163 H 0.27852 0.81739 0.00854 0.0
H164 H 0.1723 0.77946 0.92256 0.0
H165 H 0.10384 0.83447 0.93699 0.0
H166 H 0.27234 0.76512 0.92808 0.0
H167 H 0.30994 0.73415 -0.00385 0.0
H168 H 0.36158 0.64957 0.98965 0.0
H169 H 0.44246 0.61509 0.97414 0.0
C170 C 0.84543 0.83063 0.98445 0.0
C171 C 0.87096 0.86367 0.00802 0.0
C172 C 0.80529 0.79677 0.99018 0.0
C173 C 0.79071 0.79484 0.01976 0.0
C174 C 0.81791 0.82629 0.04355 0.0
C175 C 0.85707 0.86073 0.03768 0.0
C176 C 0.74675 0.76143 0.02661 0.0
C177 C 0.70174 0.75223 0.0057 0.0
C178 C 0.65379 0.72682 0.01409 0.0
C179 C 0.60293 0.74268 -0.00067 0.0
C180 C 0.55666 0.72116 0.00715 0.0
C181 C 0.55999 0.68305 0.03005 0.0
H182 H 0.69627 0.67441 0.04815 0.0
C183 C 0.61117 0.66648 0.04451 0.0
C184 C 0.65758 0.68806 0.0366 0.0
H185 H 0.61559 0.63776 0.06255 0.0
H186 H 0.85548 0.83188 0.96141 0.0
H187 H 0.78581 0.77217 0.97152 0.0
H188 H 0.80775 0.82531 0.06658 0.0
H189 H 0.87642 0.88524 0.05645 0.0
H190 H 0.74879 0.7493 0.05056 0.0
H191 H 0.69751 0.76891 0.98263 0.0
H192 H 0.59893 0.7725 0.98194 0.0
H193 H 0.51819 0.73451 -0.00491 0.0
C194 C 0.87689 0.18688 0.97233 0.0
C195 C 0.87137 0.14092 0.98799 0.0
C196 C 0.83737 0.22419 0.96991 0.0
C197 C 0.79124 0.21629 0.98299 0.0
C198 C 0.78555 0.1703 -0.00151 0.0
C199 C 0.82546 0.1332 0.00128 0.0
C200 C 0.7468 0.25361 0.97856 0.0
C201 C 0.75502 0.30409 0.97586 0.0
C202 C 0.71137 0.34134 0.96597 0.0
C203 C 0.72238 0.39353 0.97126 0.0
C204 C 0.68591 0.43032 0.95765 0.0
C205 C 0.63793 0.41556 0.93815 0.0
H206 H 0.65185 0.28697 0.94287 0.0
C207 C 0.62538 0.3634 0.93435 0.0
C208 C 0.66167 0.32662 0.94807 0.0
H209 H 0.58859 0.35103 0.91944 0.0
H210 H 0.91168 0.19401 0.96177 0.0
H211 H 0.84237 0.25849 0.95695 0.0
H212 H 0.75008 0.16301 0.0084 0.0
H213 H 0.81982 0.09809 0.01335 0.0
H214 H 0.70641 0.23879 0.97738 0.0
H215 H 0.79585 0.31887 0.98015 0.0
H216 H 0.7604 0.40597 0.98481 0.0
H217 H 0.69692 0.47024 0.96071 0.0
C218 C 0.65779 0.67254 0.49042 0.0
C219 C 0.65809 0.62871 0.50898 0.0
C220 C 0.69668 0.71075 0.49832 0.0
C221 C 0.73681 0.70586 0.52497 0.0
C222 C 0.73811 0.66132 0.54287 0.0
C223 C 0.69943 0.62304 0.53491 0.0
C224 C 0.77408 0.74833 0.53679 0.0
C225 C 0.78635 0.78738 0.51925 0.0
C226 C 0.81758 0.83238 0.53332 0.0
C227 C 0.85132 0.85899 0.51661 0.0
C228 C 0.88045 0.90183 0.52967 0.0
C229 C 0.87569 0.91916 0.55953 0.0
H230 H 0.78454 0.83231 0.5758 0.0
C231 C 0.84049 0.8933 0.57568 0.0
C232 C 0.81195 0.85048 0.56281 0.0
H233 H 0.83422 0.90661 0.59821 0.0
H234 H 0.62654 0.67818 0.47028 0.0
H235 H 0.69349 0.74492 0.48428 0.0
H236 H 0.76838 0.65666 0.56361 0.0
H237 H 0.701 0.58981 0.54972 0.0
H238 H 0.79165 0.74767 0.56141 0.0
H239 H 0.77373 0.78649 0.49415 0.0
H240 H 0.85566 0.84622 0.49363 0.0
H241 H 0.9071 0.92097 0.51658 0.0
C242 C 0.62793 0.33636 0.45206 0.0
C243 C 0.62782 0.35592 0.48205 0.0
C244 C 0.66844 0.30337 0.4467 0.0
C245 C 0.70899 0.28846 0.47137 0.0
C246 C 0.70749 0.30613 0.50153 0.0
C247 C 0.66782 0.34017 0.50676 0.0
C248 C 0.75382 0.25536 0.46622 0.0
C249 C 0.77893 0.26184 0.44187 0.0
C250 C 0.82941 0.23509 0.4396 0.0
C251 C 0.87203 0.26306 0.43143 0.0
C252 C 0.92159 0.24012 0.43159 0.0
C253 C 0.92929 0.18833 0.43933 0.0
H254 H 0.80351 0.16015 0.4519 0.0
C255 C 0.88563 0.15953 0.44575 0.0
C256 C 0.83615 0.18279 0.44607 0.0
H257 H 0.89035 0.11958 0.45182 0.0
H258 H 0.59771 0.34789 0.43253 0.0
H259 H 0.66811 0.28964 0.42328 0.0
H260 H 0.73814 0.29492 0.52094 0.0
H261 H 0.66864 0.35442 0.53012 0.0
H262 H 0.77034 0.22915 0.48465 0.0
H263 H 0.76605 0.29209 0.42527 0.0
H264 H 0.86756 0.30327 0.42596 0.0
H265 H 0.95415 0.26309 0.42595 0.0
C266 C 0.31189 0.3898 0.52263 0.0
C267 C 0.33837 0.38136 0.49747 0.0
C268 C 0.27114 0.35717 0.52819 0.0
C269 C 0.2548 0.31545 0.5084 0.0
C270 C 0.28194 0.30616 0.48362 0.0
C271 C 0.32336 0.3388 0.47816 0.0
C272 C 0.21013 0.28101 0.51341 0.0
C273 C 0.17053 0.29656 0.52801 0.0
C274 C 0.12409 0.26428 0.53232 0.0
C275 C 0.07625 0.28844 0.53547 0.0
C276 C 0.03081 0.25992 0.5384 0.0
C277 C 0.03196 0.20631 0.53819 0.0
H278 H 0.16314 0.19086 0.53255 0.0
C279 C 0.08071 0.18206 0.53658 0.0
C280 C 0.12643 0.21076 0.53389 0.0
H281 H 0.08321 0.14087 0.53627 0.0
H282 H 0.32306 0.42148 0.53848 0.0
H283 H 0.25319 0.3646 0.54836 0.0
H284 H 0.27066 0.27392 0.46822 0.0
H285 H 0.34325 0.33093 0.45877 0.0
H286 H 0.20834 0.24306 0.50328 0.0
H287 H 0.16965 0.33607 0.53532 0.0
H288 H 0.07364 0.32967 0.5351 0.0
H289 H 0.99463 0.28009 0.54062 0.0
C290 C 0.36377 0.69117 0.45752 0.0
C291 C 0.3717 0.66118 0.48457 0.0
C292 C 0.32807 0.73195 0.45431 0.0
C293 C 0.30006 0.7441 0.47828 0.0
C294 C 0.30918 0.71523 0.50571 0.0
C295 C 0.3441 0.67369 0.50868 0.0
C296 C 0.26159 0.787 0.47501 0.0
C297 C 0.22798 0.79571 0.44798 0.0
C298 C 0.18974 0.83876 0.4426 0.0
C299 C 0.14403 0.83331 0.41936 0.0
C300 C 0.1108 0.87476 0.41027 0.0
C301 C 0.12304 0.92313 0.42375 0.0
H302 H 0.23572 0.892 0.47533 0.0
C303 C 0.1672 0.92814 0.44825 0.0
C304 C 0.20033 0.88627 0.45763 0.0
H305 H 0.17799 0.96497 0.4589 0.0
H306 H 0.38453 0.68265 0.43857 0.0
H307 H 0.32277 0.75427 0.43315 0.0
H308 H 0.28841 0.72416 0.5246 0.0
H309 H 0.34973 0.65159 0.52993 0.0
H310 H 0.25912 0.80989 0.49542 0.0
H311 H 0.22751 0.76914 0.42879 0.0
H312 H 0.1348 0.79712 0.40751 0.0
H313 H 0.07654 0.86939 0.39171 0.0
C314 C 0.01842 0.03273 0.12818 0.0
C315 C 0.05562 0.00754 0.1134 0.0
C316 C 0.02387 0.03233 0.16046 0.0
C317 C 0.06672 0.00663 0.17879 0.0
C318 C 0.10433 0.98189 0.16414 0.0
C319 C 0.0992 0.98279 0.13169 0.0
C320 C 0.07054 1.00216 0.21291 0.0
C321 C 0.05189 0.03819 0.23005 0.0
C322 C 0.05182 0.03191 0.26366 0.0
C323 C 0.05967 0.07476 0.2832 0.0
C324 C 0.06029 0.06975 0.31507 0.0
C325 C 0.05179 0.02185 0.32792 0.0
H326 H 0.03391 0.9508 0.26149 0.0
C327 C 0.04169 0.97933 0.30798 0.0
C328 C 0.042 0.98423 0.27622 0.0
H329 H 0.03371 0.94212 0.31693 0.0
H330 H 0.98436 0.05218 0.11476 0.0
H331 H 0.99328 0.05062 0.17083 0.0
H332 H 0.13743 0.96145 0.17779 0.0
H333 H 0.12828 0.96278 0.12093 0.0
H334 H 0.08976 0.96851 0.22424 0.0
H335 H 0.03783 0.07422 0.21946 0.0
H336 H 0.06672 0.11198 0.27392 0.0
H337 H 0.06901 0.10323 0.3297 0.0
C338 C 0.98649 0.03897 0.85641 0.0
C339 C 0.97848 0.99486 0.87331 0.0
C340 C 0.98185 0.03702 0.82408 0.0
C341 C 0.96931 0.99076 0.80796 0.0
C342 C 0.96034 0.94698 0.82478 0.0
C343 C 0.96508 0.94888 0.85709 0.0
C344 C 0.96272 0.98703 0.77359 0.0
C345 C 0.98496 0.02001 0.75589 0.0
C346 C 0.97574 0.01639 0.72141 0.0
C347 C 0.01368 0.03731 0.70513 0.0
C348 C 0.00548 0.03485 0.67259 0.0
C349 C 0.95906 0.01147 0.65581 0.0
H350 H 0.89736 0.97966 0.71589 0.0
C351 C 0.92071 0.99152 0.67211 0.0
C352 C 0.92876 0.99413 0.70444 0.0
H353 H 0.88367 0.97481 0.65977 0.0
H354 H 0.99653 0.07512 0.86813 0.0
H355 H 0.98727 0.07201 0.81191 0.0
H356 H 0.94998 0.91098 0.81291 0.0
H357 H 0.95851 0.91418 0.86933 0.0
H358 H 0.93998 0.95451 0.76266 0.0
H359 H 0.01216 0.04961 0.76686 0.0
H360 H 0.04987 0.05531 0.71762 0.0
H361 H 0.03552 0.05083 0.66059 0.0
C362 C 0.56292 0.47361 0.63119 0.0
C363 C 0.51664 0.49206 0.61185 0.0
C364 C 0.56453 0.46809 0.66321 0.0
C365 C 0.51986 0.48121 0.67652 0.0
C366 C 0.47369 0.49926 0.65709 0.0
C367 C 0.47209 0.50482 0.62523 0.0
C368 C 0.51893 0.47631 0.7103 0.0
C369 C 0.5632 0.47497 0.73257 0.0
C370 C 0.56159 0.47394 0.7664 0.0
C371 C 0.60648 0.45593 0.787 0.0
C372 C 0.60821 0.45737 0.8191 0.0
C373 C 0.5651 0.47724 0.83137 0.0
H374 H 0.48332 0.50902 0.76376 0.0
C375 C 0.51983 0.49474 0.81079 0.0
C376 C 0.51807 0.49328 0.77865 0.0
H377 H 0.48607 0.51035 0.81957 0.0
H378 H 0.59772 0.46294 0.62158 0.0
H379 H 0.60045 0.45267 0.67713 0.0
H380 H 0.43863 0.50946 0.66661 0.0
H381 H 0.43561 0.51896 0.61109 0.0
H382 H 0.47975 0.47546 0.71693 0.0
H383 H 0.60252 0.47524 0.72614 0.0
H384 H 0.64076 0.44136 0.77826 0.0
H385 H 0.64419 0.44457 0.83433 0.0
C386 C 0.45991 0.46562 0.35317 0.0
C387 C 0.47334 0.50923 0.37179 0.0
C388 C 0.45758 0.46789 0.32095 0.0
C389 C 0.46888 0.51389 0.30674 0.0
C390 C 0.48111 0.55757 0.3253 0.0
C391 C 0.48357 0.55529 0.35741 0.0
C392 C 0.46686 0.51859 0.27267 0.0
C393 C 0.47264 0.47901 0.25389 0.0
C394 C 0.47105 0.48451 0.21984 0.0
C395 C 0.49442 0.4466 0.20405 0.0
C396 C 0.49254 0.44976 0.17193 0.0
C397 C 0.4671 0.49094 0.15491 0.0
H398 H 0.42493 0.55465 0.21357 0.0
C399 C 0.44366 0.52885 0.17066 0.0
C400 C 0.44528 0.52558 0.20269 0.0
H401 H 0.42251 0.56032 0.15804 0.0
H402 H 0.45144 0.42961 0.36346 0.0
H403 H 0.44627 0.43373 0.30737 0.0
H404 H 0.48942 0.59362 0.31497 0.0
H405 H 0.49377 0.58976 0.37095 0.0
H406 H 0.4633 0.55688 0.26317 0.0
H407 H 0.4812 0.44141 0.26383 0.0
H408 H 0.51418 0.41436 0.21659 0.0
H409 H 0.51091 0.41995 0.16038 0.0
loop_
_geom_bond_atom_site_label_1
_geom_bond_atom_site_label_2
_geom_bond_distance
_geom_bond_site_symmetry_2
_ccdc_geom_bond_type
O0 Zn1 1.953 . S
O0 C16 1.225 1_565 S
Zn1 O0 1.953 . S
Zn1 O2 1.949 1_565 S
Zn1 O8 1.919 . S
Zn1 O13 1.924 1_565 S
O2 Zn1 1.949 1_545 S
O2 Zn3 1.923 1_444 S
O2 Zn4 1.950 1_455 S
O2 Zn5 1.945 1_554 S
Zn3 O2 1.923 1_666 S
Zn3 O6 1.933 . S
Zn3 O9 1.941 1_655 S
Zn3 O10 1.965 . S
Zn4 O2 1.950 1_655 S
Zn4 O11 1.938 1_545 S
Zn4 O12 1.906 . S
Zn4 O22 1.953 . S
Zn5 O2 1.945 1_556 S
Zn5 O7 1.932 . S
Zn5 O14 1.977 1_455 S
Zn5 O15 1.910 . S
O6 Zn3 1.933 . S
O6 C17 1.226 1_565 S
O7 Zn5 1.932 . S
O7 C17 1.307 1_455 S
O8 Zn1 1.919 . S
O8 C19 1.275 . S
O9 Zn3 1.941 1_455 S
O9 C19 1.275 1_556 S
O10 Zn3 1.965 . S
O10 C18 1.303 1_556 S
O11 Zn4 1.938 1_565 S
O11 C18 1.247 . S
O12 Zn4 1.906 . S
O12 C20 1.304 1_554 S
O13 Zn1 1.924 1_545 S
O13 C21 1.311 . S
O14 Zn5 1.977 1_655 S
O14 C20 1.272 . S
O15 Zn5 1.910 . S
O15 C21 1.231 1_556 S
C16 O0 1.225 1_545 S
C16 O22 1.298 1_455 S
C17 O6 1.226 1_545 S
C17 O7 1.307 1_655 S
C18 O10 1.303 1_554 S
C18 O11 1.247 . S
C19 O8 1.275 . S
C19 O9 1.275 1_554 S
C20 O12 1.304 1_556 S
C20 O14 1.272 . S
C21 O13 1.311 . S
C21 O15 1.231 1_554 S
O22 Zn4 1.953 . S
O22 C16 1.298 1_655 S
O23 Zn24 1.953 . S
O23 C39 1.225 . S
Zn24 O23 1.953 . S
Zn24 O25 1.949 . S
Zn24 O31 1.919 . S
Zn24 O36 1.924 . S
O25 Zn24 1.949 . S
O25 Zn26 1.923 . S
O25 Zn27 1.950 . S
O25 Zn28 1.945 . S
Zn26 O25 1.923 . S
Zn26 O29 1.933 . S
Zn26 O32 1.941 . S
Zn26 O33 1.965 . S
Zn27 O25 1.950 . S
Zn27 O34 1.938 . S
Zn27 O35 1.906 . S
Zn27 O45 1.953 . S
Zn28 O25 1.945 . S
Zn28 O30 1.932 . S
Zn28 O37 1.977 . S
Zn28 O38 1.910 . S
O29 Zn26 1.933 . S
O29 C40 1.226 . S
O30 Zn28 1.932 . S
O30 C40 1.307 . S
O31 Zn24 1.919 . S
O31 C42 1.253 . S
O32 Zn26 1.941 . S
O32 C42 1.283 . S
O33 Zn26 1.965 . S
O33 C41 1.303 . S
O34 Zn27 1.938 . S
O34 C41 1.247 . S
O35 Zn27 1.906 . S
O35 C43 1.304 . S
O36 Zn24 1.924 . S
O36 C44 1.311 . S
O37 Zn28 1.977 . S
O37 C43 1.272 . S
O38 Zn28 1.910 . S
O38 C44 1.231 . S
C39 O23 1.225 . S
C39 O45 1.298 . S
C40 O29 1.226 . S
C40 O30 1.307 . S
C41 O33 1.303 . S
C41 O34 1.247 . S
C42 O31 1.253 . S
C42 O32 1.283 . S
C43 O35 1.304 . S
C43 O37 1.272 . S
C44 O36 1.311 . S
C44 O38 1.231 . S
O45 Zn27 1.953 . S
O45 C39 1.298 . S
H46 C47 0.949 1_655 S
C47 H46 0.949 1_455 S
C47 C48 1.395 . S
C47 C49 1.391 . S
C48 C47 1.395 . S
C48 C51 1.390 1_545 S
C49 C47 1.391 . S
C49 C53 1.387 1_545 S
C49 C54 1.491 . S
H50 C51 0.950 . S
C51 C48 1.390 1_565 S
C51 H50 0.950 . S
C51 C52 1.378 . S
C52 C51 1.378 . S
C52 C53 1.409 . S
C53 C49 1.387 1_565 S
C53 C52 1.409 . S
C53 H55 0.951 . S
C54 C49 1.491 . S
C54 C56 1.382 1_455 S
C54 C58 1.404 . S
H55 C53 0.951 . S
C56 C54 1.382 1_655 S
C56 C57 1.390 . S
C56 H61 0.949 . S
C57 C56 1.390 . S
C57 C62 1.399 . S
C58 C54 1.404 . S
C58 H59 0.950 . S
C58 C60 1.375 . S
H59 C58 0.950 . S
C60 C58 1.375 . S
C60 C62 1.382 1_455 S
C60 H64 0.950 . S
H61 C56 0.949 . S
C62 C57 1.399 . S
C62 C60 1.382 1_655 S
C62 H63 0.952 . S
H63 C62 0.952 . S
H64 C60 0.950 . S
H65 C66 0.949 . S
C66 H65 0.949 . S
C66 C67 1.395 1_455 S
C66 C68 1.391 1_455 S
C67 C66 1.395 1_655 S
C67 C70 1.390 1_545 S
C68 C66 1.391 1_655 S
C68 C72 1.387 1_545 S
C68 C73 1.491 1_655 S
H69 C70 0.950 . S
C70 C67 1.390 1_565 S
C70 H69 0.950 . S
C70 C71 1.378 . S
C71 C70 1.378 . S
C71 C72 1.409 . S
C72 C68 1.387 1_565 S
C72 C71 1.409 . S
C72 H74 0.951 . S
C73 C68 1.491 1_455 S
C73 C75 1.382 . S
C73 C77 1.404 1_455 S
H74 C72 0.951 . S
C75 C73 1.382 . S
C75 C76 1.390 . S
C75 H80 0.949 . S
C76 C75 1.390 . S
C76 C81 1.399 . S
C77 C73 1.404 1_655 S
C77 H78 0.950 . S
C77 C79 1.385 . S
H78 C77 0.950 . S
C79 C77 1.385 . S
C79 C81 1.364 1_655 S
C79 H83 0.959 . S
H80 C75 0.949 . S
C81 C76 1.399 . S
C81 C79 1.364 1_455 S
C81 H82 0.952 . S
H82 C81 0.952 . S
H83 C79 0.959 . S
H84 C85 0.949 . S
C85 H84 0.949 . S
C85 C86 1.395 . S
C85 C87 1.391 . S
C86 C85 1.395 . S
C86 C89 1.390 . S
C87 C85 1.391 . S
C87 C91 1.387 . S
C87 C92 1.491 . S
H88 C89 0.950 . S
C89 C86 1.390 . S
C89 H88 0.950 . S
C89 C90 1.378 . S
C90 C89 1.378 . S
C90 C91 1.409 . S
C91 C87 1.387 . S
C91 C90 1.409 . S
C91 H93 0.951 . S
C92 C87 1.491 . S
C92 C94 1.382 . S
C92 C96 1.404 . S
H93 C91 0.951 . S
C94 C92 1.382 . S
C94 C95 1.390 . S
C94 H99 0.949 . S
C95 C94 1.390 . S
C95 C100 1.399 . S
C96 C92 1.404 . S
C96 H97 0.950 . S
C96 C98 1.375 . S
H97 C96 0.950 . S
C98 C96 1.375 . S
C98 C100 1.382 . S
C98 H102 0.950 1_556 S
H99 C94 0.949 . S
C100 C95 1.399 . S
C100 C98 1.382 . S
C100 H101 0.952 . S
H101 C100 0.952 . S
H102 C98 0.950 1_554 S
H103 C104 0.949 . S
C104 H103 0.949 . S
C104 C105 1.395 . S
C104 C106 1.391 . S
C105 C104 1.395 . S
C105 C108 1.390 . S
C106 C104 1.391 . S
C106 C110 1.387 . S
C106 C111 1.491 . S
H107 C108 0.950 . S
C108 C105 1.390 . S
C108 H107 0.950 . S
C108 C109 1.378 . S
C109 C108 1.378 . S
C109 C110 1.409 . S
C110 C106 1.387 . S
C110 C109 1.409 . S
C110 H112 0.951 . S
C111 C106 1.491 . S
C111 C113 1.382 . S
C111 C115 1.404 . S
H112 C110 0.951 . S
C113 C111 1.382 . S
C113 C114 1.390 . S
C113 H118 0.949 . S
C114 C113 1.390 . S
C114 C119 1.399 . S
C115 C111 1.404 . S
C115 H116 0.950 . S
C115 C117 1.375 . S
H116 C115 0.950 . S
C117 C115 1.375 . S
C117 C119 1.382 . S
C117 H121 0.950 1_554 S
H118 C113 0.949 . S
C119 C114 1.399 . S
C119 C117 1.382 . S
C119 H120 0.952 . S
H120 C119 0.952 . S
H121 C117 0.950 1_556 S
C122 C123 1.386 . S
C122 C124 1.383 . S
C122 H138 0.951 . S
C123 C122 1.386 . S
C123 C127 1.383 . S
C124 C122 1.383 . S
C124 C125 1.402 . S
C124 H139 0.951 . S
C125 C124 1.402 . S
C125 C126 1.375 . S
C125 C128 1.481 . S
C126 C125 1.375 . S
C126 C127 1.367 . S
C126 H140 0.951 . S
C127 C123 1.383 . S
C127 C126 1.367 . S
C127 H141 0.950 . S
C128 C125 1.481 . S
C128 C129 1.297 . S
C128 H142 0.950 . S
C129 C128 1.297 . S
C129 C130 1.479 . S
C129 H143 0.950 . S
C130 C129 1.479 . S
C130 C131 1.375 . S
C130 C136 1.404 . S
C131 C130 1.375 . S
C131 C132 1.369 . S
C131 H144 0.950 . S
C132 C131 1.369 . S
C132 C133 1.392 . S
C132 H145 0.951 . S
C133 C132 1.392 . S
C133 C135 1.384 . S
H134 C136 0.949 . S
C135 C133 1.384 . S
C135 C136 1.385 . S
C135 H137 0.950 . S
C136 C130 1.404 . S
C136 H134 0.949 . S
C136 C135 1.385 . S
H137 C135 0.950 . S
H138 C122 0.951 . S
H139 C124 0.951 . S
H140 C126 0.951 . S
H141 C127 0.950 . S
H142 C128 0.950 . S
H143 C129 0.950 . S
H144 C131 0.950 . S
H145 C132 0.951 . S
C146 C147 1.386 1_554 S
C146 C148 1.383 . S
C146 H162 0.951 . S
C147 C146 1.386 1_556 S
C147 C151 1.383 . S
C148 C146 1.383 . S
C148 C149 1.402 1_554 S
C148 H163 0.951 . S
C149 C148 1.402 1_556 S
C149 C150 1.375 . S
C149 C152 1.481 . S
C150 C149 1.375 . S
C150 C151 1.367 . S
C150 H164 0.951 . S
C151 C147 1.383 . S
C151 C150 1.367 . S
C151 H165 0.950 . S
C152 C149 1.481 . S
C152 C153 1.297 . S
C152 H166 0.950 . S
C153 C152 1.297 . S
C153 C154 1.479 . S
C153 H167 0.950 1_556 S
C154 C153 1.479 . S
C154 C155 1.375 . S
C154 C160 1.404 . S
C155 C154 1.375 . S
C155 C156 1.369 . S
C155 H168 0.950 1_556 S
C156 C155 1.369 . S
C156 C157 1.392 . S
C156 H169 0.951 1_556 S
C157 C156 1.392 . S
C157 C159 1.384 . S
H158 C160 0.949 . S
C159 C157 1.384 . S
C159 C160 1.385 . S
C159 H161 0.950 . S
C160 C154 1.404 . S
C160 H158 0.949 . S
C160 C159 1.385 . S
H161 C159 0.950 . S
H162 C146 0.951 . S
H163 C148 0.951 . S
H164 C150 0.951 . S
H165 C151 0.950 . S
H166 C152 0.950 . S
H167 C153 0.950 1_554 S
H168 C155 0.950 1_554 S
H169 C156 0.951 1_554 S
C170 C171 1.386 1_556 S
C170 C172 1.383 1_556 S
C170 H186 0.951 . S
C171 C170 1.386 1_554 S
C171 C175 1.383 . S
C172 C170 1.383 1_554 S
C172 C173 1.402 . S
C172 H187 0.951 1_554 S
C173 C172 1.402 . S
C173 C174 1.375 . S
C173 C176 1.481 . S
C174 C173 1.375 . S
C174 C175 1.367 . S
C174 H188 0.951 . S
C175 C171 1.383 . S
C175 C174 1.367 . S
C175 H189 0.950 . S
C176 C173 1.481 . S
C176 C177 1.297 . S
C176 H190 0.950 . S
C177 C176 1.297 . S
C177 C178 1.479 . S
C177 H191 0.950 . S
C178 C177 1.479 . S
C178 C179 1.375 . S
C178 C184 1.404 . S
C179 C178 1.375 . S
C179 C180 1.369 . S
C179 H192 0.950 1_554 S
C180 C179 1.369 . S
C180 C181 1.392 . S
C180 H193 0.951 . S
C181 C180 1.392 . S
C181 C183 1.384 . S
H182 C184 0.949 . S
C183 C181 1.384 . S
C183 C184 1.385 . S
C183 H185 0.950 . S
C184 C178 1.404 . S
C184 H182 0.949 . S
C184 C183 1.385 . S
H185 C183 0.950 . S
H186 C170 0.951 . S
H187 C172 0.951 1_556 S
H188 C174 0.951 . S
H189 C175 0.950 . S
H190 C176 0.950 . S
H191 C177 0.950 . S
H192 C179 0.950 1_556 S
H193 C180 0.951 . S
C194 C195 1.386 . S
C194 C196 1.383 . S
C194 H210 0.951 . S
C195 C194 1.386 . S
C195 C199 1.383 . S
C196 C194 1.383 . S
C196 C197 1.402 . S
C196 H211 0.951 . S
C197 C196 1.402 . S
C197 C198 1.375 . S
C197 C200 1.481 . S
C198 C197 1.375 . S
C198 C199 1.367 . S
C198 H212 0.951 . S
C199 C195 1.383 . S
C199 C198 1.367 . S
C199 H213 0.950 . S
C200 C197 1.481 . S
C200 C201 1.297 . S
C200 H214 0.950 . S
C201 C200 1.297 . S
C201 C202 1.479 . S
C201 H215 0.950 . S
C202 C201 1.479 . S
C202 C203 1.375 . S
C202 C208 1.404 . S
C203 C202 1.375 . S
C203 C204 1.369 . S
C203 H216 0.950 . S
C204 C203 1.369 . S
C204 C205 1.392 . S
C204 H217 0.951 . S
C205 C204 1.392 . S
C205 C207 1.384 . S
H206 C208 0.949 . S
C207 C205 1.384 . S
C207 C208 1.385 . S
C207 H209 0.950 . S
C208 C202 1.404 . S
C208 H206 0.949 . S
C208 C207 1.385 . S
H209 C207 0.950 . S
H210 C194 0.951 . S
H211 C196 0.951 . S
H212 C198 0.951 . S
H213 C199 0.950 . S
H214 C200 0.950 . S
H215 C201 0.950 . S
H216 C203 0.950 . S
H217 C204 0.951 . S
C218 C219 1.386 . S
C218 C220 1.383 . S
C218 H234 0.951 . S
C219 C218 1.386 . S
C219 C223 1.383 . S
C220 C218 1.383 . S
C220 C221 1.402 . S
C220 H235 0.951 . S
C221 C220 1.402 . S
C221 C222 1.375 . S
C221 C224 1.481 . S
C222 C221 1.375 . S
C222 C223 1.367 . S
C222 H236 0.951 . S
C223 C219 1.383 . S
C223 C222 1.367 . S
C223 H237 0.950 . S
C224 C221 1.481 . S
C224 C225 1.297 . S
C224 H238 0.950 . S
C225 C224 1.297 . S
C225 C226 1.479 . S
C225 H239 0.950 . S
C226 C225 1.479 . S
C226 C227 1.375 . S
C226 C232 1.404 . S
C227 C226 1.375 . S
C227 C228 1.369 . S
C227 H240 0.950 . S
C228 C227 1.369 . S
C228 C229 1.392 . S
C228 H241 0.951 . S
C229 C228 1.392 . S
C229 C231 1.384 . S
H230 C232 0.949 . S
C231 C229 1.384 . S
C231 C232 1.385 . S
C231 H233 0.950 . S
C232 C226 1.404 . S
C232 H230 0.949 . S
C232 C231 1.385 . S
H233 C231 0.950 . S
H234 C218 0.951 . S
H235 C220 0.951 . S
H236 C222 0.951 . S
H237 C223 0.950 . S
H238 C224 0.950 . S
H239 C225 0.950 . S
H240 C227 0.950 . S
H241 C228 0.951 . S
C242 C243 1.386 . S
C242 C244 1.383 . S
C242 H258 0.951 . S
C243 C242 1.386 . S
C243 C247 1.383 . S
C244 C242 1.383 . S
C244 C245 1.402 . S
C244 H259 0.951 . S
C245 C244 1.402 . S
C245 C246 1.375 . S
C245 C248 1.481 . S
C246 C245 1.375 . S
C246 C247 1.367 . S
C246 H260 0.951 . S
C247 C243 1.383 . S
C247 C246 1.367 . S
C247 H261 0.950 . S
C248 C245 1.481 . S
C248 C249 1.297 . S
C248 H262 0.950 . S
C249 C248 1.297 . S
C249 C250 1.479 . S
C249 H263 0.950 . S
C250 C249 1.479 . S
C250 C251 1.375 . S
C250 C256 1.404 . S
C251 C250 1.375 . S
C251 C252 1.369 . S
C251 H264 0.950 . S
C252 C251 1.369 . S
C252 C253 1.392 . S
C252 H265 0.951 . S
C253 C252 1.392 . S
C253 C255 1.384 . S
H254 C256 0.949 . S
C255 C253 1.384 . S
C255 C256 1.385 . S
C255 H257 0.950 . S
C256 C250 1.404 . S
C256 H254 0.949 . S
C256 C255 1.385 . S
H257 C255 0.950 . S
H258 C242 0.951 . S
H259 C244 0.951 . S
H260 C246 0.951 . S
H261 C247 0.950 . S
H262 C248 0.950 . S
H263 C249 0.950 . S
H264 C251 0.950 . S
H265 C252 0.951 . S
C266 C267 1.386 . S
C266 C268 1.383 . S
C266 H282 0.951 . S
C267 C266 1.386 . S
C267 C271 1.383 . S
C268 C266 1.383 . S
C268 C269 1.402 . S
C268 H283 0.951 . S
C269 C268 1.402 . S
C269 C270 1.375 . S
C269 C272 1.481 . S
C270 C269 1.375 . S
C270 C271 1.367 . S
C270 H284 0.951 . S
C271 C267 1.383 . S
C271 C270 1.367 . S
C271 H285 0.950 . S
C272 C269 1.481 . S
C272 C273 1.297 . S
C272 H286 0.950 . S
C273 C272 1.297 . S
C273 C274 1.479 . S
C273 H287 0.950 . S
C274 C273 1.479 . S
C274 C275 1.375 . S
C274 C280 1.404 . S
C275 C274 1.375 . S
C275 C276 1.369 . S
C275 H288 0.950 . S
C276 C275 1.369 . S
C276 C277 1.392 . S
C276 H289 0.951 . S
C277 C276 1.392 . S
C277 C279 1.384 . S
H278 C280 0.949 . S
C279 C277 1.384 . S
C279 C280 1.385 . S
C279 H281 0.950 . S
C280 C274 1.404 . S
C280 H278 0.949 . S
C280 C279 1.385 . S
H281 C279 0.950 . S
H282 C266 0.951 . S
H283 C268 0.951 . S
H284 C270 0.951 . S
H285 C271 0.950 . S
H286 C272 0.950 . S
H287 C273 0.950 . S
H288 C275 0.950 . S
H289 C276 0.951 . S
C290 C291 1.386 . S
C290 C292 1.383 . S
C290 H306 0.951 . S
C291 C290 1.386 . S
C291 C295 1.383 . S
C292 C290 1.383 . S
C292 C293 1.402 . S
C292 H307 0.951 . S
C293 C292 1.402 . S
C293 C294 1.375 . S
C293 C296 1.481 . S
C294 C293 1.375 . S
C294 C295 1.367 . S
C294 H308 0.951 . S
C295 C291 1.383 . S
C295 C294 1.367 . S
C295 H309 0.950 . S
C296 C293 1.481 . S
C296 C297 1.297 . S
C296 H310 0.950 . S
C297 C296 1.297 . S
C297 C298 1.479 . S
C297 H311 0.950 . S
C298 C297 1.479 . S
C298 C299 1.375 . S
C298 C304 1.404 . S
C299 C298 1.375 . S
C299 C300 1.369 . S
C299 H312 0.950 . S
C300 C299 1.369 . S
C300 C301 1.392 . S
C300 H313 0.951 . S
C301 C300 1.392 . S
C301 C303 1.384 . S
H302 C304 0.949 . S
C303 C301 1.384 . S
C303 C304 1.385 . S
C303 H305 0.950 . S
C304 C298 1.404 . S
C304 H302 0.949 . S
C304 C303 1.385 . S
H305 C303 0.950 . S
H306 C290 0.951 . S
H307 C292 0.951 . S
H308 C294 0.951 . S
H309 C295 0.950 . S
H310 C296 0.950 . S
H311 C297 0.950 . S
H312 C299 0.950 . S
H313 C300 0.951 . S
C314 C315 1.386 1_655 S
C314 C316 1.383 . S
C314 H330 0.951 . S
C315 C314 1.386 1_455 S
C315 C319 1.383 1_545 S
C316 C314 1.383 . S
C316 C317 1.402 1_645 S
C316 H331 0.951 . S
C317 C316 1.402 1_465 S
C317 C318 1.375 . S
C317 C320 1.481 . S
C318 C317 1.375 . S
C318 C319 1.367 . S
C318 H332 0.951 . S
C319 C315 1.383 1_565 S
C319 C318 1.367 . S
C319 H333 0.950 . S
C320 C317 1.481 . S
C320 C321 1.296 1_465 S
C320 H334 0.950 . S
C321 C320 1.296 1_645 S
C321 C322 1.480 1_645 S
C321 H335 0.951 . S
C322 C321 1.480 1_465 S
C322 C323 1.375 1_465 S
C322 C328 1.404 . S
C323 C322 1.375 1_645 S
C323 C324 1.369 . S
C323 H336 0.950 . S
C324 C323 1.369 . S
C324 C325 1.392 1_655 S
C324 H337 0.951 . S
C325 C324 1.392 1_455 S
C325 C327 1.384 1_545 S
H326 C328 0.949 . S
C327 C325 1.384 1_565 S
C327 C328 1.385 . S
C327 H329 0.950 . S
C328 C322 1.404 . S
C328 H326 0.949 . S
C328 C327 1.385 . S
H329 C327 0.950 . S
H330 C314 0.951 . S
H331 C316 0.951 . S
H332 C318 0.951 . S
H333 C319 0.950 . S
H334 C320 0.950 . S
H335 C321 0.951 . S
H336 C323 0.950 . S
H337 C324 0.951 . S
C338 C339 1.386 1_465 S
C338 C340 1.383 . S
C338 H354 0.951 . S
C339 C338 1.386 1_645 S
C339 C343 1.383 . S
C340 C338 1.383 . S
C340 C341 1.402 1_465 S
C340 H355 0.951 . S
C341 C340 1.402 1_645 S
C341 C342 1.375 . S
C341 C344 1.481 . S
C342 C341 1.375 . S
C342 C343 1.367 . S
C342 H356 0.951 . S
C343 C339 1.383 . S
C343 C342 1.367 . S
C343 H357 0.950 . S
C344 C341 1.481 . S
C344 C345 1.297 1_545 S
C344 H358 0.950 . S
C345 C344 1.297 1_565 S
C345 C346 1.479 . S
C345 H359 0.950 1_655 S
C346 C345 1.479 . S
C346 C347 1.375 1_655 S
C346 C352 1.404 1_565 S
C347 C346 1.375 1_455 S
C347 C348 1.369 . S
C347 H360 0.950 . S
C348 C347 1.369 . S
C348 C349 1.392 1_465 S
C348 H361 0.951 . S
C349 C348 1.392 1_645 S
C349 C351 1.384 . S
H350 C352 0.949 . S
C351 C349 1.384 . S
C351 C352 1.385 . S
C351 H353 0.950 . S
C352 C346 1.404 1_545 S
C352 H350 0.949 . S
C352 C351 1.385 . S
H353 C351 0.950 . S
H354 C338 0.951 . S
H355 C340 0.951 . S
H356 C342 0.951 . S
H357 C343 0.950 . S
H358 C344 0.950 . S
H359 C345 0.950 1_455 S
H360 C347 0.950 . S
H361 C348 0.951 . S
C362 C363 1.386 . S
C362 C364 1.383 . S
C362 H378 0.951 . S
C363 C362 1.386 . S
C363 C367 1.383 . S
C364 C362 1.383 . S
C364 C365 1.402 . S
C364 H379 0.951 . S
C365 C364 1.402 . S
C365 C366 1.375 . S
C365 C368 1.481 . S
C366 C365 1.375 . S
C366 C367 1.367 . S
C366 H380 0.951 . S
C367 C363 1.383 . S
C367 C366 1.367 . S
C367 H381 0.950 . S
C368 C365 1.481 . S
C368 C369 1.297 . S
C368 H382 0.950 . S
C369 C368 1.297 . S
C369 C370 1.479 . S
C369 H383 0.950 . S
C370 C369 1.479 . S
C370 C371 1.375 . S
C370 C376 1.404 . S
C371 C370 1.375 . S
C371 C372 1.369 . S
C371 H384 0.950 . S
C372 C371 1.369 . S
C372 C373 1.392 . S
C372 H385 0.951 . S
C373 C372 1.392 . S
C373 C375 1.384 . S
H374 C376 0.949 . S
C375 C373 1.384 . S
C375 C376 1.385 . S
C375 H377 0.950 . S
C376 C370 1.404 . S
C376 H374 0.949 . S
C376 C375 1.385 . S
H377 C375 0.950 . S
H378 C362 0.951 . S
H379 C364 0.951 . S
H380 C366 0.951 . S
H381 C367 0.950 . S
H382 C368 0.950 . S
H383 C369 0.950 . S
H384 C371 0.950 . S
H385 C372 0.951 . S
C386 C387 1.386 . S
C386 C388 1.383 . S
C386 H402 0.951 . S
C387 C386 1.386 . S
C387 C391 1.383 . S
C388 C386 1.383 . S
C388 C389 1.402 . S
C388 H403 0.951 . S
C389 C388 1.402 . S
C389 C390 1.375 . S
C389 C392 1.481 . S
C390 C389 1.375 . S
C390 C391 1.367 . S
C390 H404 0.951 . S
C391 C387 1.383 . S
C391 C390 1.367 . S
C391 H405 0.950 . S
C392 C389 1.481 . S
C392 C393 1.297 . S
C392 H406 0.950 . S
C393 C392 1.297 . S
C393 C394 1.479 . S
C393 H407 0.950 . S
C394 C393 1.479 . S
C394 C395 1.375 . S
C394 C400 1.404 . S
C395 C394 1.375 . S
C395 C396 1.369 . S
C395 H408 0.950 . S
C396 C395 1.369 . S
C396 C397 1.392 . S
C396 H409 0.951 . S
C397 C396 1.392 . S
C397 C399 1.384 . S
H398 C400 0.949 . S
C399 C397 1.384 . S
C399 C400 1.385 . S
C399 H401 0.950 . S
C400 C394 1.404 . S
C400 H398 0.949 . S
C400 C399 1.385 . S
H401 C399 0.950 . S
H402 C386 0.951 . S
H403 C388 0.951 . S
H404 C390 0.951 . S
H405 C391 0.950 . S
H406 C392 0.950 . S
H407 C393 0.950 . S
H408 C395 0.950 . S
H409 C396 0.951 . S
C133 C109 1.607 . S
C123 C21 1.575 . S
C147 C19 1.365 1_556 S
C157 C95 1.352 . S
C171 C18 1.361 . S
C181 C114 1.293 . S
C195 C20 1.585 . S
C205 C90 1.554 . S
C219 C44 1.602 . S
C229 C71 1.591 . S
C243 C42 1.372 . S
C253 C57 1.282 . S
C277 C76 1.238 . S
C267 C41 1.335 . S
C301 C52 1.573 . S
C291 C43 1.565 . S
C315 C16 1.556 . S
C325 C48 1.542 . S
C339 C17 1.516 . S
C349 C67 1.474 . S
C373 C86 1.542 . S
C363 C39 1.556 . S
C387 C40 1.515 . S
C397 C105 1.487 . S
