# Generated by pormake.
# Topology ctn, (3,4)-cn, num edge types: 1
# Building blocks:
#     Node 0, Type 0, BuildingBlock: BETDIP_clean_linker_0, # of connection points: 3
#     Node 1, Type 0, BuildingBlock: BETDIP_clean_linker_0, # of connection points: 3
#     Node 2, Type 0, BuildingBlock: BETDIP_clean_linker_0, # of connection points: 3
#     Node 3, Type 0, BuildingBlock: BETDIP_clean_linker_0, # of connection points: 3
#     Node 4, Type 0, BuildingBlock: BETDIP_clean_linker_0, # of connection points: 3
#     Node 5, Type 0, BuildingBlock: BETDIP_clean_linker_0, # of connection points: 3
#     Node 6, Type 0, BuildingBlock: BETDIP_clean_linker_0, # of connection points: 3
#     Node 7, Type 0, BuildingBlock: BETDIP_clean_linker_0, # of connection points: 3
#     Node 8, Type 0, BuildingBlock: BETDIP_clean_linker_0, # of connection points: 3
#     Node 9, Type 0, BuildingBlock: BETDIP_clean_linker_0, # of connection points: 3
#     Node 10, Type 0, BuildingBlock: BETDIP_clean_linker_0, # of connection points: 3
#     Node 11, Type 0, BuildingBlock: BETDIP_clean_linker_0, # of connection points: 3
#     Node 12, Type 0, BuildingBlock: BETDIP_clean_linker_0, # of connection points: 3
#     Node 13, Type 0, BuildingBlock: BETDIP_clean_linker_0, # of connection points: 3
#     Node 14, Type 0, BuildingBlock: BETDIP_clean_linker_0, # of connection points: 3
#     Node 15, Type 0, BuildingBlock: BETDIP_clean_linker_0, # of connection points: 3
#     Node 16, Type 1, BuildingBlock: NAHDIM_clean_sbu_0, # of connection points: 4
#     Node 17, Type 1, BuildingBlock: NAHDIM_clean_sbu_0, # of connection points: 4
#     Node 18, Type 1, BuildingBlock: NAHDIM_clean_sbu_0, # of connection points: 4
#     Node 19, Type 1, BuildingBlock: NAHDIM_clean_sbu_0, # of connection points: 4
#     Node 20, Type 1, BuildingBlock: NAHDIM_clean_sbu_0, # of connection points: 4
#     Node 21, Type 1, BuildingBlock: NAHDIM_clean_sbu_0, # of connection points: 4
#     Node 22, Type 1, BuildingBlock: NAHDIM_clean_sbu_0, # of connection points: 4
#     Node 23, Type 1, BuildingBlock: NAHDIM_clean_sbu_0, # of connection points: 4
#     Node 24, Type 1, BuildingBlock: NAHDIM_clean_sbu_0, # of connection points: 4
#     Node 25, Type 1, BuildingBlock: NAHDIM_clean_sbu_0, # of connection points: 4
#     Node 26, Type 1, BuildingBlock: NAHDIM_clean_sbu_0, # of connection points: 4
#     Node 27, Type 1, BuildingBlock: NAHDIM_clean_sbu_0, # of connection points: 4
#     Edge 28, Type (0, 1), BuildingBlock: EZIPEK_clean_linker_0, # of connection points: 2
#     Edge 29, Type (0, 1), BuildingBlock: EZIPEK_clean_linker_0, # of connection points: 2
#     Edge 30, Type (0, 1), BuildingBlock: EZIPEK_clean_linker_0, # of connection points: 2
#     Edge 31, Type (0, 1), BuildingBlock: EZIPEK_clean_linker_0, # of connection points: 2
#     Edge 32, Type (0, 1), BuildingBlock: EZIPEK_clean_linker_0, # of connection points: 2
#     Edge 33, Type (0, 1), BuildingBlock: EZIPEK_clean_linker_0, # of connection points: 2
#     Edge 34, Type (0, 1), BuildingBlock: EZIPEK_clean_linker_0, # of connection points: 2
#     Edge 35, Type (0, 1), BuildingBlock: EZIPEK_clean_linker_0, # of connection points: 2
#     Edge 36, Type (0, 1), BuildingBlock: EZIPEK_clean_linker_0, # of connection points: 2
#     Edge 37, Type (0, 1), BuildingBlock: EZIPEK_clean_linker_0, # of connection points: 2
#     Edge 38, Type (0, 1), BuildingBlock: EZIPEK_clean_linker_0, # of connection points: 2
#     Edge 39, Type (0, 1), BuildingBlock: EZIPEK_clean_linker_0, # of connection points: 2
#     Edge 40, Type (0, 1), BuildingBlock: EZIPEK_clean_linker_0, # of connection points: 2
#     Edge 41, Type (0, 1), BuildingBlock: EZIPEK_clean_linker_0, # of connection points: 2
#     Edge 42, Type (0, 1), BuildingBlock: EZIPEK_clean_linker_0, # of connection points: 2
#     Edge 43, Type (0, 1), BuildingBlock: EZIPEK_clean_linker_0, # of connection points: 2
#     Edge 44, Type (0, 1), BuildingBlock: EZIPEK_clean_linker_0, # of connection points: 2
#     Edge 45, Type (0, 1), BuildingBlock: EZIPEK_clean_linker_0, # of connection points: 2
#     Edge 46, Type (0, 1), BuildingBlock: EZIPEK_clean_linker_0, # of connection points: 2
#     Edge 47, Type (0, 1), BuildingBlock: EZIPEK_clean_linker_0, # of connection points: 2
#     Edge 48, Type (0, 1), BuildingBlock: EZIPEK_clean_linker_0, # of connection points: 2
#     Edge 49, Type (0, 1), BuildingBlock: EZIPEK_clean_linker_0, # of connection points: 2
#     Edge 50, Type (0, 1), BuildingBlock: EZIPEK_clean_linker_0, # of connection points: 2
#     Edge 51, Type (0, 1), BuildingBlock: EZIPEK_clean_linker_0, # of connection points: 2
#     Edge 52, Type (0, 1), BuildingBlock: EZIPEK_clean_linker_0, # of connection points: 2
#     Edge 53, Type (0, 1), BuildingBlock: EZIPEK_clean_linker_0, # of connection points: 2
#     Edge 54, Type (0, 1), BuildingBlock: EZIPEK_clean_linker_0, # of connection points: 2
#     Edge 55, Type (0, 1), BuildingBlock: EZIPEK_clean_linker_0, # of connection points: 2
#     Edge 56, Type (0, 1), BuildingBlock: EZIPEK_clean_linker_0, # of connection points: 2
#     Edge 57, Type (0, 1), BuildingBlock: EZIPEK_clean_linker_0, # of connection points: 2
#     Edge 58, Type (0, 1), BuildingBlock: EZIPEK_clean_linker_0, # of connection points: 2
#     Edge 59, Type (0, 1), BuildingBlock: EZIPEK_clean_linker_0, # of connection points: 2
#     Edge 60, Type (0, 1), BuildingBlock: EZIPEK_clean_linker_0, # of connection points: 2
#     Edge 61, Type (0, 1), BuildingBlock: EZIPEK_clean_linker_0, # of connection points: 2
#     Edge 62, Type (0, 1), BuildingBlock: EZIPEK_clean_linker_0, # of connection points: 2
#     Edge 63, Type (0, 1), BuildingBlock: EZIPEK_clean_linker_0, # of connection points: 2
#     Edge 64, Type (0, 1), BuildingBlock: EZIPEK_clean_linker_0, # of connection points: 2
#     Edge 65, Type (0, 1), BuildingBlock: EZIPEK_clean_linker_0, # of connection points: 2
#     Edge 66, Type (0, 1), BuildingBlock: EZIPEK_clean_linker_0, # of connection points: 2
#     Edge 67, Type (0, 1), BuildingBlock: EZIPEK_clean_linker_0, # of connection points: 2
#     Edge 68, Type (0, 1), BuildingBlock: EZIPEK_clean_linker_0, # of connection points: 2
#     Edge 69, Type (0, 1), BuildingBlock: EZIPEK_clean_linker_0, # of connection points: 2
#     Edge 70, Type (0, 1), BuildingBlock: EZIPEK_clean_linker_0, # of connection points: 2
#     Edge 71, Type (0, 1), BuildingBlock: EZIPEK_clean_linker_0, # of connection points: 2
#     Edge 72, Type (0, 1), BuildingBlock: EZIPEK_clean_linker_0, # of connection points: 2
#     Edge 73, Type (0, 1), BuildingBlock: EZIPEK_clean_linker_0, # of connection points: 2
#     Edge 74, Type (0, 1), BuildingBlock: EZIPEK_clean_linker_0, # of connection points: 2
#     Edge 75, Type (0, 1), BuildingBlock: EZIPEK_clean_linker_0, # of connection points: 2
# Relax obj value: 0.073
# Max RMSD: 0.190
# Mean RMSD: 0.115
data_MOF--net-ctn--node1-NAHDIM_clean_sbu_0--node2-BETDIP_clean_linker_0--edge1-EZIPEK_clean_linker_0
_symmetry_space_group_name_H-M    P1
_symmetry_Int_Tables_number       1
_symmetry_cell_setting            triclinic
loop_
_symmetry_equiv_pos_as_xyz
'x, y, z'
_cell_length_a     37.775324
_cell_length_b     38.275208
_cell_length_c     41.927995
_cell_angle_alpha  95.348401
_cell_angle_beta   94.164267
_cell_angle_gamma 96.006857
loop_
_atom_site_label
_atom_site_type_symbol
_atom_site_fract_x
_atom_site_fract_y
_atom_site_fract_z
_atom_type_partial_charge
H0 H 0.01013 0.06467 0.05975 0.0
H1 H 0.0938 0.02763 0.00539 0.0
H2 H 0.07217 0.98568 0.09419 0.0
H3 H 0.08968 0.07394 0.97977 0.0
C4 C 0.06405 0.08372 0.98245 0.0
C5 C 0.0312 0.04776 0.05671 0.0
C6 C 0.03878 0.02497 0.08003 0.0
C7 C 0.05093 0.04935 0.02975 0.0
C8 C 0.07841 0.02746 0.02612 0.0
C9 C 0.08628 0.0046 0.04932 0.0
C10 C 0.06611 0.00316 0.07612 0.0
N11 N 0.04228 0.07313 0.00695 0.0
H12 H 0.24652 0.68962 0.197 0.0
H13 H 0.34829 0.74846 0.22952 0.0
H14 H 0.30622 0.66447 0.2816 0.0
H15 H 0.34332 0.77466 0.18641 0.0
C16 C 0.31859 0.76559 0.17193 0.0
C17 C 0.26985 0.69479 0.21411 0.0
C18 C 0.27304 0.67422 0.23993 0.0
C19 C 0.2968 0.72147 0.20969 0.0
C20 C 0.32707 0.72792 0.23193 0.0
C21 C 0.33046 0.70754 0.2579 0.0
C22 C 0.30347 0.68055 0.2618 0.0
N23 N 0.29259 0.74044 0.1823 0.0
H24 H 0.94355 0.50436 0.99049 0.0
H25 H 0.02099 0.46445 0.05382 0.0
H26 H 0.96438 0.55001 0.08877 0.0
H27 H 0.04423 0.44828 0.00617 0.0
C28 C 0.01996 0.43888 0.99098 0.0
C29 C 0.95818 0.50553 0.01387 0.0
C30 C 0.95103 0.53005 0.03892 0.0
C31 C 0.98387 0.48235 0.01866 0.0
C32 C 0.00205 0.48312 0.04924 0.0
C33 C 0.9952 0.5075 0.07453 0.0
C34 C 0.96993 0.53128 0.06924 0.0
N35 N 0.98943 0.45747 0.9927 0.0
H36 H 0.70207 0.77217 0.16519 0.0
H37 H 0.73799 0.8676 0.22709 0.0
H38 H 0.78835 0.84435 0.14035 0.0
H39 H 0.68907 0.85663 0.25071 0.0
C40 C 0.67692 0.82979 0.24403 0.0
C41 C 0.71973 0.79654 0.17064 0.0
C42 C 0.74564 0.80569 0.14967 0.0
C43 C 0.71609 0.81876 0.19841 0.0
C44 C 0.73937 0.85027 0.20546 0.0
C45 C 0.76536 0.85954 0.18448 0.0
C46 C 0.76832 0.83724 0.15658 0.0
N47 N 0.68893 0.80821 0.21847 0.0
H48 H 0.01343 0.95857 0.42622 0.0
H49 H 0.10561 0.00461 0.48856 0.0
H50 H 0.08285 0.04449 0.39781 0.0
H51 H 0.07469 0.98074 0.52693 0.0
C52 C 0.06087 0.95619 0.51498 0.0
C53 C 0.03694 0.97767 0.43121 0.0
C54 C 0.04577 0.00137 0.40873 0.0
C55 C 0.05796 0.97875 0.46029 0.0
C56 C 0.08847 0.00365 0.4666 0.0
C57 C 0.09745 0.02727 0.44402 0.0
C58 C 0.07612 0.02601 0.41511 0.0
N59 N 0.04803 0.95384 0.48207 0.0
H60 H 0.21534 0.75639 0.82784 0.0
H61 H 0.24654 0.67209 0.76465 0.0
H62 H 0.30911 0.70719 0.85396 0.0
H63 H 0.21778 0.70063 0.72642 0.0
C64 C 0.19552 0.71014 0.73828 0.0
C65 C 0.23349 0.73688 0.82248 0.0
C66 C 0.26263 0.73415 0.84432 0.0
C67 C 0.22797 0.71539 0.7934 0.0
C68 C 0.25119 0.68981 0.78658 0.0
C69 C 0.28047 0.6866 0.80838 0.0
C70 C 0.28637 0.70919 0.83717 0.0
N71 N 0.19858 0.72019 0.77186 0.0
H72 H 0.01748 0.59722 0.47515 0.0
H73 H 0.96021 0.49361 0.45145 0.0
H74 H 0.93545 0.55968 0.53353 0.0
H75 H 0.97668 0.50162 0.4013 0.0
C76 C 0.00311 0.51614 0.4057 0.0
C77 C 0.99696 0.57682 0.47992 0.0
C78 C 0.97715 0.582 0.5066 0.0
C79 C 0.99057 0.54547 0.45938 0.0
C80 C 0.96466 0.51863 0.46625 0.0
C81 C 0.94463 0.52376 0.49293 0.0
C82 C 0.95071 0.55567 0.51282 0.0
N83 N 0.0116 0.54149 0.43282 0.0
H84 H 0.79274 0.84251 0.75492 0.0
H85 H 0.83329 0.76429 0.81074 0.0
H86 H 0.74201 0.81402 0.83892 0.0
H87 H 0.88247 0.77547 0.78555 0.0
C88 C 0.8752 0.78546 0.7629 0.0
C89 C 0.79109 0.82684 0.77513 0.0
C90 C 0.76432 0.83106 0.79619 0.0
C91 C 0.81626 0.8032 0.78011 0.0
C92 C 0.81441 0.78307 0.8065 0.0
C93 C 0.78773 0.78703 0.8278 0.0
C94 C 0.76247 0.81075 0.82239 0.0
N95 N 0.84267 0.80044 0.75782 0.0
H96 H 0.28243 0.34023 0.25253 0.0
H97 H 0.32577 0.26245 0.30712 0.0
H98 H 0.24336 0.32038 0.34374 0.0
H99 H 0.34777 0.24454 0.26085 0.0
C100 C 0.35198 0.26775 0.24801 0.0
C101 C 0.28267 0.32564 0.27349 0.0
C102 C 0.25988 0.33304 0.29754 0.0
C103 C 0.30629 0.30014 0.27637 0.0
C104 C 0.30713 0.28169 0.30389 0.0
C105 C 0.28429 0.28875 0.32813 0.0
C106 C 0.26068 0.31451 0.32491 0.0
N107 N 0.32979 0.29532 0.25176 0.0
H108 H 0.44807 0.0081 0.4926 0.0
H109 H 0.51747 0.96157 0.55855 0.0
H110 H 0.47111 0.0552 0.59029 0.0
H111 H 0.54252 0.94589 0.51224 0.0
C112 C 0.51948 0.93811 0.49507 0.0
C113 C 0.46162 0.00825 0.51632 0.0
C114 C 0.45694 0.0347 0.5407 0.0
C115 C 0.48407 0.98227 0.52222 0.0
C116 C 0.50105 0.98217 0.55317 0.0
C117 C 0.49656 0.00842 0.57768 0.0
C118 C 0.47464 0.03485 0.57137 0.0
N119 N 0.48855 0.95618 0.49687 0.0
H120 H 0.21731 0.25719 0.67147 0.0
H121 H 0.25822 0.34568 0.74019 0.0
H122 H 0.31167 0.32387 0.65489 0.0
H123 H 0.20386 0.34057 0.75644 0.0
C124 C 0.19243 0.31326 0.75133 0.0
C125 C 0.23704 0.27959 0.67924 0.0
C126 C 0.26498 0.28802 0.66004 0.0
C127 C 0.23375 0.30041 0.70795 0.0
C128 C 0.25951 0.32953 0.71783 0.0
C129 C 0.28763 0.33797 0.69874 0.0
C130 C 0.29024 0.31717 0.66986 0.0
N131 N 0.20422 0.29124 0.72594 0.0
H132 H 0.75061 0.18859 0.70295 0.0
H133 H 0.84583 0.25202 0.74404 0.0
H134 H 0.7977 0.16809 0.79358 0.0
H135 H 0.84901 0.27322 0.69824 0.0
C136 C 0.82492 0.26463 0.68268 0.0
C137 C 0.77101 0.19565 0.72272 0.0
C138 C 0.77093 0.17644 0.74943 0.0
C139 C 0.7981 0.22275 0.72051 0.0
C140 C 0.82414 0.2322 0.74654 0.0
C141 C 0.82263 0.21579 0.77551 0.0
C142 C 0.79734 0.1856 0.77497 0.0
N143 N 0.79777 0.23974 0.69171 0.0
H144 H 0.52743 0.5727 0.57743 0.0
H145 H 0.60999 0.53815 0.5204 0.0
H146 H 0.58685 0.48911 0.60574 0.0
H147 H 0.58183 0.56337 0.48148 0.0
C148 C 0.56978 0.5851 0.49321 0.0
C149 C 0.54779 0.55527 0.573 0.0
C150 C 0.5548 0.53057 0.59463 0.0
C151 C 0.56673 0.55771 0.54567 0.0
C152 C 0.59387 0.53573 0.54054 0.0
C153 C 0.6012 0.5109 0.5621 0.0
C154 C 0.58119 0.50806 0.58891 0.0
N155 N 0.55849 0.58341 0.52469 0.0
H156 H 0.50819 0.46055 0.93856 0.0
H157 H 0.60775 0.49686 0.99431 0.0
H158 H 0.57517 0.54967 0.91282 0.0
H159 H 0.5793 0.47098 0.0339 0.0
C160 C 0.56363 0.44779 0.0212 0.0
C161 C 0.53232 0.47889 0.9431 0.0
C162 C 0.53894 0.50542 0.92275 0.0
C163 C 0.55638 0.47605 0.96948 0.0
C164 C 0.5881 0.49941 0.97481 0.0
C165 C 0.5949 0.52607 0.95444 0.0
C166 C 0.57004 0.52916 0.92862 0.0
N167 N 0.54819 0.44878 0.98942 0.0
H168 H 0.7139 0.25635 0.33887 0.0
H169 H 0.74202 0.17238 0.27327 0.0
H170 H 0.81009 0.20851 0.35908 0.0
H171 H 0.688 0.17139 0.25036 0.0
C172 C 0.67745 0.19603 0.25712 0.0
C173 C 0.73182 0.23699 0.33234 0.0
C174 C 0.76253 0.23468 0.35246 0.0
C175 C 0.7239 0.21467 0.30387 0.0
C176 C 0.74721 0.18964 0.2954 0.0
C177 C 0.77835 0.18724 0.31518 0.0
C178 C 0.78605 0.21004 0.34373 0.0
N179 N 0.69289 0.21919 0.28411 0.0
H180 H 0.51294 0.09726 0.9726 0.0
H181 H 0.45256 0.99545 0.94605 0.0
H182 H 0.42681 0.0617 0.02749 0.0
H183 H 0.50084 0.98387 0.92117 0.0
C184 C 0.51173 0.00851 0.91297 0.0
C185 C 0.49142 0.07742 0.97641 0.0
C186 C 0.47041 0.08309 0.00219 0.0
C187 C 0.48556 0.04585 0.95609 0.0
C188 C 0.45797 0.01991 0.96158 0.0
C189 C 0.43672 0.0256 0.98731 0.0
C190 C 0.44281 0.05741 0.00733 0.0
N191 N 0.50793 0.04128 0.93053 0.0
C192 C 0.21038 0.93165 0.02692 0.0
O193 O 0.24063 0.95235 0.0291 0.0
O194 O 0.25059 0.84114 0.97396 0.0
Zn195 Zn 0.25693 0.87741 0.01347 0.0
O196 O 0.29563 0.91679 0.00763 0.0
C197 C 0.28862 0.82872 0.05405 0.0
O198 O 0.30178 0.81656 0.02764 0.0
O199 O 0.21044 0.89855 0.02005 0.0
C200 C 0.32884 0.91528 0.01395 0.0
O201 O 0.33963 0.88715 0.02557 0.0
C202 C 0.27686 0.83401 0.95807 0.0
O203 O 0.30879 0.85039 0.96692 0.0
O204 O 0.26943 0.85406 0.0535 0.0
C205 C 0.17304 0.44615 0.2762 0.0
O206 O 0.17644 0.47385 0.29759 0.0
O207 O 0.09422 0.49484 0.28079 0.0
Zn208 Zn 0.12763 0.48973 0.24553 0.0
O209 O 0.1658 0.5311 0.24883 0.0
C210 C 0.07063 0.50112 0.19891 0.0
O211 O 0.05745 0.51528 0.22453 0.0
O212 O 0.1527 0.44597 0.2506 0.0
C213 C 0.15886 0.56269 0.24724 0.0
O214 O 0.12551 0.56959 0.24465 0.0
C215 C 0.103 0.51308 0.30764 0.0
O216 O 0.13504 0.5304 0.31343 0.0
O217 O 0.09991 0.48753 0.2018 0.0
C218 C 0.83482 0.60846 0.00115 0.0
O219 O 0.80558 0.58841 0.98942 0.0
O220 O 0.79722 0.68855 0.94938 0.0
Zn221 Zn 0.79103 0.66535 0.99093 0.0
O222 O 0.74782 0.62817 0.9864 0.0
C223 C 0.75604 0.71214 0.03496 0.0
O224 O 0.72667 0.69983 0.01704 0.0
O225 O 0.83524 0.64189 0.00346 0.0
C226 C 0.71948 0.6294 0.96846 0.0
O227 O 0.71687 0.65573 0.95084 0.0
C228 C 0.77948 0.71364 0.94219 0.0
O229 O 0.75681 0.72513 0.96184 0.0
O230 O 0.78577 0.70201 0.02788 0.0
C231 C 0.86119 0.07614 0.26996 0.0
O232 O 0.84797 0.04382 0.27383 0.0
O233 O 0.95115 0.03392 0.28187 0.0
Zn234 Zn 0.91674 0.03903 0.2441 0.0
O235 O 0.88205 0.99486 0.23539 0.0
C236 C 0.96245 0.02179 0.19488 0.0
O237 O 0.9648 0.99428 0.2111 0.0
O238 O 0.89037 0.08099 0.25679 0.0
C239 C 0.86239 0.98831 0.2092 0.0
O240 O 0.86433 0.0108 0.18739 0.0
C241 C 0.95637 0.00418 0.29137 0.0
O242 O 0.93995 0.975 0.27568 0.0
O243 O 0.94338 0.04557 0.20444 0.0
C244 C 0.36241 0.13928 0.51077 0.0
O245 O 0.36911 0.17212 0.52368 0.0
O246 O 0.30112 0.18758 0.44684 0.0
Zn247 Zn 0.29437 0.16116 0.48645 0.0
O248 O 0.24797 0.12833 0.47994 0.0
C249 C 0.26678 0.20359 0.5385 0.0
O250 O 0.23562 0.19165 0.52348 0.0
O251 O 0.33339 0.12943 0.49344 0.0
C252 C 0.21919 0.13421 0.46468 0.0
O253 O 0.21739 0.16417 0.45211 0.0
C254 C 0.28563 0.21504 0.44289 0.0
O255 O 0.2664 0.2274 0.46529 0.0
O256 O 0.29517 0.19497 0.52689 0.0
C257 C 0.36287 0.5726 0.7703 0.0
O258 O 0.34631 0.54076 0.77086 0.0
O259 O 0.4525 0.5258 0.78743 0.0
Zn260 Zn 0.41933 0.53282 0.74942 0.0
O261 O 0.38307 0.49 0.73922 0.0
C262 C 0.47744 0.52668 0.70878 0.0
O263 O 0.49134 0.51205 0.73315 0.0
O264 O 0.39443 0.57612 0.76138 0.0
C265 C 0.39271 0.45934 0.73382 0.0
O266 O 0.42685 0.45526 0.73518 0.0
C267 C 0.44018 0.51709 0.8133 0.0
O268 O 0.40548 0.51204 0.8151 0.0
O269 O 0.44724 0.53839 0.71035 0.0
C270 C 0.72201 0.43329 0.53773 0.0
O271 O 0.75295 0.45284 0.5397 0.0
O272 O 0.75791 0.34065 0.4843 0.0
Zn273 Zn 0.76613 0.37692 0.52385 0.0
O274 O 0.80561 0.41515 0.51721 0.0
C275 C 0.79773 0.32778 0.56417 0.0
O276 O 0.81057 0.31556 0.53761 0.0
O277 O 0.72069 0.40002 0.53098 0.0
C278 C 0.83885 0.41308 0.52259 0.0
O279 O 0.84963 0.38472 0.53378 0.0
C280 C 0.78329 0.33306 0.46741 0.0
O281 O 0.81569 0.34873 0.47536 0.0
O282 O 0.77873 0.35329 0.5638 0.0
C283 C 0.68281 0.94533 0.76673 0.0
O284 O 0.70123 0.97653 0.77334 0.0
O285 O 0.59545 0.99522 0.78323 0.0
Zn286 Zn 0.62794 0.98812 0.74792 0.0
O287 O 0.66619 0.02945 0.75064 0.0
C288 C 0.57108 1.00038 0.70199 0.0
O289 O 0.5591 0.01581 0.72769 0.0
O290 O 0.65065 0.94319 0.75466 0.0
C291 C 0.6588 0.06094 0.74948 0.0
O292 O 0.62529 0.06736 0.74711 0.0
C293 C 0.60833 0.00316 0.81212 0.0
O294 O 0.64312 0.00786 0.81877 0.0
O295 O 0.59966 0.98557 0.70459 0.0
C296 C 0.02275 0.17939 0.8909 0.0
O297 O 0.99933 0.17026 0.86604 0.0
O298 O 0.98085 0.24033 0.84279 0.0
Zn299 Zn 0.02805 0.25077 0.86963 0.0
O300 O 0.02513 0.29328 0.90093 0.0
C301 C 0.06548 0.27016 0.81412 0.0
O302 O 0.03323 0.27089 0.80036 0.0
O303 O 0.03767 0.21094 0.89611 0.0
C304 C 0.02409 0.32397 0.89199 0.0
O305 O 0.02461 0.32865 0.86141 0.0
C306 C 0.95267 0.23838 0.85765 0.0
O307 O 0.95547 0.24151 0.88922 0.0
O308 O 0.06934 0.2617 0.84268 0.0
C309 C 0.52695 0.69681 0.4199 0.0
O310 O 0.49771 0.71098 0.42617 0.0
O311 O 0.48444 0.7286 0.34591 0.0
Zn312 Zn 0.5303 0.74688 0.37301 0.0
O313 O 0.52224 0.78811 0.4049 0.0
C314 C 0.56461 0.7776 0.32035 0.0
O315 O 0.53243 0.78574 0.31244 0.0
O316 O 0.54553 0.7078 0.39804 0.0
C317 C 0.53072 0.82025 0.40051 0.0
O318 O 0.54448 0.828 0.37387 0.0
C319 C 0.46048 0.74864 0.34006 0.0
O320 O 0.46537 0.78192 0.35192 0.0
O321 O 0.56981 0.7608 0.34474 0.0
C322 C 0.01755 0.84115 0.58913 0.0
O323 O 0.98392 0.8341 0.5947 0.0
O324 O 0.99135 0.7885 0.65429 0.0
Zn325 Zn 0.02679 0.77872 0.62135 0.0
O326 O 0.00842 0.73832 0.58808 0.0
C327 C 0.07339 0.7599 0.67359 0.0
O328 O 0.04683 0.76641 0.69096 0.0
O329 O 0.04046 0.82159 0.59872 0.0
C330 C 0.00675 0.70725 0.59664 0.0
O331 O 0.01455 0.70282 0.62693 0.0
C332 C 0.96167 0.76977 0.65518 0.0
O333 O 0.95141 0.74378 0.6327 0.0
O334 O 0.0711 0.76415 0.64384 0.0
C335 C 0.51776 0.32666 0.0869 0.0
O336 O 0.48823 0.30668 0.07583 0.0
O337 O 0.48371 0.27599 0.15784 0.0
Zn338 Zn 0.5239 0.27212 0.12898 0.0
O339 O 0.51104 0.23313 0.09286 0.0
C340 C 0.56171 0.24005 0.17795 0.0
O341 O 0.52906 0.22835 0.18355 0.0
O342 O 0.53714 0.31766 0.1101 0.0
C343 C 0.49741 0.20277 0.09842 0.0
O344 O 0.49085 0.19679 0.12784 0.0
C345 C 0.45068 0.26968 0.14865 0.0
O346 O 0.44047 0.26192 0.11798 0.0
O347 O 0.56659 0.26016 0.15581 0.0
C348 C 0.28324 0.79391 0.87271 0.0
C349 C 0.26829 0.75865 0.87425 0.0
C350 C 0.25989 0.77213 0.93138 0.0
C351 C 0.27188 0.80818 0.92902 0.0
N352 N 0.28807 0.85468 0.89596 0.0
N353 N 0.23803 0.71471 0.90336 0.0
C354 C 0.28179 0.81942 0.89927 0.0
C355 C 0.25541 0.74786 0.90314 0.0
N356 N 0.29929 0.80289 0.84596 0.0
N357 N 0.25413 0.7608 0.96072 0.0
H358 H 0.2352 0.69588 0.88341 0.0
H359 H 0.22431 0.70661 0.92253 0.0
H360 H 0.25664 0.77776 0.98188 0.0
H361 H 0.24945 0.73428 0.96453 0.0
H362 H 0.31402 0.82722 0.84473 0.0
H363 H 0.30063 0.78489 0.82592 0.0
H364 H 0.29189 0.86466 0.87404 0.0
H365 H 0.28573 0.87421 0.91449 0.0
C366 C 0.0618 0.50169 0.38671 0.0
C367 C 0.02824 0.51426 0.38024 0.0
C368 C 0.04495 0.52861 0.32719 0.0
C369 C 0.07743 0.51375 0.33274 0.0
N370 N 0.11441 0.48062 0.36512 0.0
N371 N 0.98533 0.53503 0.34306 0.0
C372 C 0.08534 0.49892 0.36186 0.0
C373 C 0.01895 0.52608 0.34998 0.0
N374 N 0.07113 0.49226 0.41659 0.0
N375 N 0.0398 0.54679 0.30097 0.0
H376 H 0.96606 0.53525 0.35964 0.0
H377 H 0.97565 0.53987 0.32019 0.0
H378 H 0.05873 0.55008 0.28428 0.0
H379 H 0.01839 0.5614 0.29726 0.0
H380 H 0.09683 0.48724 0.42407 0.0
H381 H 0.05365 0.4913 0.43472 0.0
H382 H 0.11949 0.46585 0.38423 0.0
H383 H 0.13204 0.47761 0.34732 0.0
C384 C 0.771 0.73199 0.85436 0.0
C385 C 0.78731 0.76737 0.85679 0.0
C386 C 0.8002 0.76681 0.91497 0.0
C387 C 0.78483 0.73105 0.91244 0.0
N388 N 0.76036 0.67768 0.87962 0.0
N389 N 0.82275 0.81676 0.88769 0.0
C390 C 0.77187 0.71298 0.88203 0.0
C391 C 0.80344 0.78431 0.88665 0.0
N392 N 0.75353 0.71709 0.82583 0.0
N393 N 0.81134 0.78417 0.94458 0.0
H394 H 0.8253 0.83059 0.86754 0.0
H395 H 0.83848 0.82899 0.90786 0.0
H396 H 0.81203 0.77164 0.96564 0.0
H397 H 0.81835 0.81134 0.94866 0.0
H398 H 0.73763 0.69293 0.82313 0.0
H399 H 0.75288 0.73003 0.80501 0.0
H400 H 0.7542 0.66205 0.85786 0.0
H401 H 0.75929 0.66317 0.89943 0.0
C402 C 0.99216 0.02024 0.37914 0.0
C403 C 0.02245 0.00128 0.37873 0.0
C404 C 0.01067 0.98589 0.32059 0.0
C405 C 0.97893 0.00267 0.32143 0.0
N406 N 0.9357 0.03002 0.3521 0.0
N407 N 0.0582 0.96189 0.35067 0.0
C408 C 0.96864 0.01833 0.35088 0.0
C409 C 0.03101 0.98282 0.34989 0.0
N410 N 0.98636 0.04076 0.40634 0.0
N411 N 0.02216 0.97429 0.29169 0.0
H412 H 0.07413 0.95963 0.37161 0.0
H413 H 0.06329 0.94472 0.33121 0.0
H414 H 0.00806 0.97624 0.26971 0.0
H415 H 0.04701 0.96535 0.28922 0.0
H416 H 0.96718 0.05841 0.40702 0.0
H417 H 0.00255 0.04223 0.42778 0.0
H418 H 0.92513 0.03821 0.37344 0.0
H419 H 0.9174 0.02855 0.33203 0.0
C420 C 0.25092 0.27824 0.60033 0.0
C421 C 0.2669 0.26707 0.62875 0.0
C422 C 0.28264 0.21396 0.59813 0.0
C423 C 0.2685 0.22616 0.56939 0.0
N424 N 0.24526 0.27269 0.54209 0.0
N425 N 0.3031 0.22791 0.65456 0.0
C426 C 0.25429 0.2591 0.5702 0.0
C427 C 0.28439 0.23602 0.62758 0.0
N428 N 0.23177 0.30668 0.60226 0.0
N429 N 0.29267 0.18061 0.59759 0.0
H430 H 0.30422 0.24302 0.67672 0.0
H431 H 0.31973 0.20787 0.65448 0.0
H432 H 0.29155 0.16345 0.57662 0.0
H433 H 0.29936 0.16875 0.61822 0.0
H434 H 0.21597 0.31364 0.58299 0.0
H435 H 0.22952 0.32199 0.62379 0.0
H436 H 0.23843 0.29823 0.54096 0.0
H437 H 0.24764 0.25958 0.51955 0.0
C438 C 0.54977 0.54908 0.65302 0.0
C439 C 0.535 0.52923 0.62394 0.0
C440 C 0.48288 0.50675 0.65076 0.0
C441 C 0.4966 0.52836 0.67927 0.0
N442 N 0.54005 0.57386 0.7067 0.0
N443 N 0.48602 0.49251 0.59345 0.0
C444 C 0.52931 0.55048 0.68021 0.0
C445 C 0.50106 0.50906 0.62232 0.0
N446 N 0.58359 0.56625 0.65472 0.0
N447 N 0.45334 0.48292 0.6513 0.0
H448 H 0.49919 0.49229 0.57243 0.0
H449 H 0.45968 0.48091 0.58977 0.0
H450 H 0.43918 0.48057 0.67158 0.0
H451 H 0.44427 0.46363 0.6325 0.0
H452 H 0.59761 0.57767 0.67607 0.0
H453 H 0.59879 0.56717 0.63496 0.0
H454 H 0.56153 0.59342 0.70772 0.0
H455 H 0.52567 0.57568 0.727 0.0
C456 C 0.82507 0.31807 0.65196 0.0
C457 C 0.81947 0.28082 0.65208 0.0
C458 C 0.79673 0.27486 0.59539 0.0
C459 C 0.80528 0.31173 0.59446 0.0
N460 N 0.83469 0.36737 0.62017 0.0
N461 N 0.80915 0.22338 0.6217 0.0
C462 C 0.82146 0.3331 0.62228 0.0
C463 C 0.80789 0.25905 0.62316 0.0
N464 N 0.83242 0.33926 0.68027 0.0
N465 N 0.77664 0.25507 0.57034 0.0
H466 H 0.81906 0.21092 0.641 0.0
H467 H 0.80426 0.20675 0.60035 0.0
H468 H 0.76683 0.26577 0.54995 0.0
H469 H 0.7666 0.2288 0.57127 0.0
H470 H 0.83277 0.36662 0.68188 0.0
H471 H 0.83506 0.32945 0.7026 0.0
H472 H 0.85014 0.38299 0.63885 0.0
H473 H 0.83324 0.37923 0.59879 0.0
C474 C 0.49746 0.99011 0.63366 0.0
C475 C 0.51517 0.00782 0.61005 0.0
C476 C 0.56896 0.02235 0.64737 0.0
C477 C 0.55225 0.00217 0.67001 0.0
N478 N 0.50275 0.96285 0.68355 0.0
N479 N 0.56864 0.03756 0.59245 0.0
C480 C 0.51698 0.98509 0.66291 0.0
C481 C 0.55121 0.023 0.61635 0.0
N482 N 0.46187 0.97842 0.6282 0.0
N483 N 0.60108 0.04217 0.65603 0.0
H484 H 0.55607 0.04013 0.56994 0.0
H485 H 0.59606 0.0451 0.59415 0.0
H486 H 0.61494 0.04248 0.67851 0.0
H487 H 0.61277 0.06052 0.64201 0.0
H488 H 0.44638 0.96887 0.64573 0.0
H489 H 0.447 0.98061 0.60667 0.0
H490 H 0.47877 0.94662 0.67828 0.0
H491 H 0.51636 0.95834 0.70506 0.0
C492 C 0.85546 0.20743 0.83 0.0
C493 C 0.84992 0.22807 0.80411 0.0
C494 C 0.90763 0.26284 0.82111 0.0
C495 C 0.9169 0.23559 0.83995 0.0
N496 N 0.89861 0.18124 0.86257 0.0
N497 N 0.85904 0.28938 0.7954 0.0
C498 C 0.89047 0.20779 0.84468 0.0
C499 C 0.8727 0.26017 0.80525 0.0
N500 N 0.82706 0.19337 0.84467 0.0
N501 N 0.93189 0.29127 0.81839 0.0
H502 H 0.83196 0.2889 0.78804 0.0
H503 H 0.87304 0.31455 0.79832 0.0
H504 H 0.95664 0.29589 0.83165 0.0
H505 H 0.92793 0.30946 0.80183 0.0
H506 H 0.82991 0.18051 0.86541 0.0
H507 H 0.80134 0.19994 0.8391 0.0
H508 H 0.88049 0.15907 0.86415 0.0
H509 H 0.9241 0.17994 0.87343 0.0
C510 C 0.53371 0.87632 0.48102 0.0
C511 C 0.5205 0.90727 0.47098 0.0
C512 C 0.50789 0.87809 0.41625 0.0
C513 C 0.52557 0.84913 0.42531 0.0
N514 N 0.56153 0.82393 0.46546 0.0
N515 N 0.50273 0.94034 0.42724 0.0
C516 C 0.54007 0.84897 0.45752 0.0
C517 C 0.50951 0.90894 0.43812 0.0
N518 N 0.53926 0.87251 0.51304 0.0
N519 N 0.48868 0.87586 0.38709 0.0
H520 H 0.50581 0.96413 0.44195 0.0
H521 H 0.49805 0.94348 0.40293 0.0
H522 H 0.48588 0.85331 0.37072 0.0
H523 H 0.47245 0.8949 0.38067 0.0
H524 H 0.54527 0.84895 0.52163 0.0
H525 H 0.53439 0.89162 0.5311 0.0
H526 H 0.57578 0.82494 0.48782 0.0
H527 H 0.56809 0.80409 0.4489 0.0
C528 C 0.13138 0.32335 0.76757 0.0
C529 C 0.15956 0.30159 0.76668 0.0
C530 C 0.12377 0.25713 0.79292 0.0
C531 C 0.0974 0.28064 0.79706 0.0
N532 N 0.07943 0.33905 0.79368 0.0
N533 N 0.18552 0.25082 0.7841 0.0
C534 C 0.10204 0.31455 0.78579 0.0
C535 C 0.15656 0.26922 0.78079 0.0
N536 N 0.13191 0.35176 0.75004 0.0
N537 N 0.11706 0.22287 0.79954 0.0
H538 H 0.21038 0.25933 0.77654 0.0
H539 H 0.18591 0.22904 0.79722 0.0
H540 H 0.0931 0.2128 0.80788 0.0
H541 H 0.13376 0.20362 0.79381 0.0
H542 H 0.11025 0.36624 0.74702 0.0
H543 H 0.15253 0.35884 0.73584 0.0
H544 H 0.08402 0.3654 0.78924 0.0
H545 H 0.0579 0.33405 0.80741 0.0
C546 C 0.5685 0.64963 0.4867 0.0
C547 C 0.55952 0.61381 0.47407 0.0
C548 C 0.53258 0.63277 0.4244 0.0
C549 C 0.53836 0.66829 0.43841 0.0
N550 N 0.55797 0.71077 0.48406 0.0
N551 N 0.52844 0.57077 0.43301 0.0
C552 C 0.55505 0.67677 0.46999 0.0
C553 C 0.54054 0.60519 0.44336 0.0
N554 N 0.59155 0.65785 0.51368 0.0
N555 N 0.51955 0.62539 0.39293 0.0
H556 H 0.53314 0.54978 0.44631 0.0
H557 H 0.51107 0.56314 0.41254 0.0
H558 H 0.51181 0.64468 0.3787 0.0
H559 H 0.51874 0.60058 0.38022 0.0
H560 H 0.60201 0.68355 0.52221 0.0
H561 H 0.60316 0.63884 0.52589 0.0
H562 H 0.56597 0.71786 0.50829 0.0
H563 H 0.55004 0.7317 0.47206 0.0
C564 C 0.91123 0.74902 0.72753 0.0
C565 C 0.89908 0.78211 0.73643 0.0
C566 C 0.9268 0.80689 0.69115 0.0
C567 C 0.94081 0.77448 0.68351 0.0
N568 N 0.95382 0.71771 0.69909 0.0
N569 N 0.90327 0.84483 0.732 0.0
C570 C 0.93519 0.74637 0.70304 0.0
C571 C 0.90908 0.81176 0.71973 0.0
N572 N 0.8988 0.71974 0.74146 0.0
N573 N 0.92935 0.83261 0.67063 0.0
H574 H 0.89206 0.84973 0.75375 0.0
H575 H 0.91311 0.86776 0.7225 0.0
H576 H 0.94207 0.83 0.64942 0.0
H577 H 0.9162 0.85517 0.67322 0.0
H578 H 0.90358 0.69426 0.73327 0.0
H579 H 0.8811 0.72037 0.75942 0.0
H580 H 0.95365 0.69823 0.71486 0.0
H581 H 0.97232 0.71512 0.68197 0.0
C582 C 0.0572 0.89205 0.52412 0.0
C583 C 0.05037 0.9269 0.53444 0.0
C584 C 0.02516 0.90593 0.58245 0.0
C585 C 0.02854 0.8707 0.5703 0.0
N586 N 0.0416 0.82948 0.52672 0.0
N587 N 0.02296 0.96655 0.57083 0.0
C588 C 0.04286 0.86352 0.54033 0.0
C589 C 0.03312 0.93379 0.56299 0.0
N590 N 0.07879 0.88633 0.4998 0.0
N591 N 0.01555 0.91294 0.61301 0.0
H592 H 0.02794 0.98762 0.55712 0.0
H593 H 0.00682 0.97206 0.58936 0.0
H594 H 0.00955 0.89325 0.62801 0.0
H595 H 0.01651 0.93838 0.6245 0.0
H596 H 0.08765 0.86194 0.49351 0.0
H597 H 0.09094 0.90665 0.48806 0.0
H598 H 0.04806 0.82296 0.50333 0.0
H599 H 0.03087 0.80778 0.53759 0.0
C600 C 0.16995 0.74868 0.69958 0.0
C601 C 0.16475 0.7203 0.7188 0.0
C602 C 0.10035 0.71447 0.70398 0.0
C603 C 0.10503 0.74574 0.68825 0.0
N604 N 0.14366 0.7956 0.67474 0.0
N605 N 0.12536 0.67727 0.74146 0.0
C606 C 0.13971 0.76349 0.68669 0.0
C607 C 0.13002 0.70354 0.72167 0.0
N608 N 0.20376 0.76175 0.69393 0.0
N609 N 0.06793 0.69432 0.70077 0.0
H610 H 0.14661 0.66678 0.75304 0.0
H611 H 0.10045 0.6672 0.74782 0.0
H612 H 0.0457 0.70088 0.68737 0.0
H613 H 0.06383 0.66939 0.70879 0.0
H614 H 0.20911 0.77974 0.67727 0.0
H615 H 0.22664 0.75256 0.70399 0.0
H616 H 0.16788 0.81163 0.67624 0.0
H617 H 0.12219 0.80792 0.6659 0.0
C618 C 0.96204 0.6416 0.52782 0.0
C619 C 0.98505 0.61467 0.5289 0.0
C620 C 0.02469 0.65105 0.57068 0.0
C621 C 0.99957 0.67615 0.5724 0.0
N622 N 0.94194 0.69336 0.55549 0.0
N623 N 0.03517 0.59088 0.55457 0.0
C624 C 0.96763 0.67104 0.55162 0.0
C625 C 0.01552 0.61856 0.55125 0.0
N626 N 0.93534 0.63935 0.50364 0.0
N627 N 0.05801 0.65891 0.58638 0.0
H628 H 0.02947 0.56663 0.54061 0.0
H629 H 0.05521 0.59091 0.573 0.0
H630 H 0.06645 0.68304 0.59982 0.0
H631 H 0.07856 0.64307 0.58331 0.0
H632 H 0.92018 0.65993 0.49948 0.0
H633 H 0.93024 0.61794 0.48601 0.0
H634 H 0.91649 0.68862 0.54356 0.0
H635 H 0.94489 0.71524 0.57258 0.0
C636 C 0.82633 0.89099 0.20179 0.0
C637 C 0.78993 0.89269 0.19177 0.0
C638 C 0.80032 0.95732 0.19678 0.0
C639 C 0.83743 0.95542 0.20334 0.0
N640 N 0.88676 0.92017 0.20654 0.0
N641 N 0.74313 0.92681 0.17464 0.0
C642 C 0.85075 0.92217 0.20445 0.0
C643 C 0.77712 0.9257 0.18784 0.0
N644 N 0.83738 0.85972 0.20954 0.0
N645 N 0.78698 0.98919 0.20042 0.0
H646 H 0.72527 0.90422 0.16785 0.0
H647 H 0.73364 0.94987 0.16791 0.0
H648 H 0.80297 0.0129 0.20765 0.0
H649 H 0.75976 0.99176 0.19928 0.0
H650 H 0.86271 0.85765 0.2203 0.0
H651 H 0.82024 0.8363 0.20793 0.0
H652 H 0.89794 0.89642 0.20391 0.0
H653 H 0.90563 0.94227 0.20786 0.0
C654 C 0.808 0.13236 0.32394 0.0
C655 C 0.80282 0.1608 0.30533 0.0
C656 C 0.83531 0.13348 0.26279 0.0
C657 C 0.84294 0.10654 0.28253 0.0
N658 N 0.84519 0.08668 0.33562 0.0
N659 N 0.8196 0.19304 0.26095 0.0
C660 C 0.83188 0.10787 0.31426 0.0
C661 C 0.81909 0.16283 0.27597 0.0
N662 N 0.78899 0.12764 0.35002 0.0
N663 N 0.84158 0.13025 0.23102 0.0
H664 H 0.80872 0.21538 0.27032 0.0
H665 H 0.83402 0.19715 0.2411 0.0
H666 H 0.85203 0.10854 0.21991 0.0
H667 H 0.83302 0.1474 0.21493 0.0
H668 H 0.78908 0.10518 0.36228 0.0
H669 H 0.77051 0.14438 0.35758 0.0
H670 H 0.84053 0.08901 0.35988 0.0
H671 H 0.86416 0.06963 0.33004 0.0
C672 C 0.41241 0.98108 0.02287 0.0
C673 C 0.4087 0.99767 0.99411 0.0
C674 C 0.35388 0.95841 0.977 0.0
C675 C 0.35549 0.94454 0.00734 0.0
N676 N 0.38193 0.94949 0.06205 0.0
N677 N 0.37195 0.00736 0.94695 0.0
C678 C 0.38354 0.9578 0.03114 0.0
C679 C 0.37822 0.98792 0.97209 0.0
N680 N 0.44389 0.98661 0.04182 0.0
N681 N 0.3305 0.94244 0.95224 0.0
H682 H 0.38894 0.02944 0.94275 0.0
H683 H 0.3482 0.00361 0.93216 0.0
H684 H 0.31303 0.92 0.95419 0.0
H685 H 0.331 0.94929 0.92879 0.0
H686 H 0.44914 0.97236 0.06129 0.0
H687 H 0.46605 0.00282 0.03624 0.0
H688 H 0.40002 0.9612 0.08093 0.0
H689 H 0.36035 0.93399 0.06957 0.0
C690 C 0.19952 0.35374 0.28556 0.0
C691 C 0.2367 0.36181 0.29424 0.0
C692 C 0.2324 0.42408 0.28722 0.0
C693 C 0.19474 0.41668 0.28134 0.0
N694 N 0.14159 0.37562 0.2807 0.0
N695 N 0.28728 0.4054 0.30988 0.0
C696 C 0.17799 0.38178 0.28205 0.0
C697 C 0.25274 0.39726 0.2971 0.0
N698 N 0.18496 0.31931 0.2797 0.0
N699 N 0.24902 0.45623 0.28181 0.0
H700 H 0.30296 0.38645 0.31766 0.0
H701 H 0.29923 0.43123 0.31564 0.0
H702 H 0.23529 0.47623 0.27334 0.0
H703 H 0.27666 0.46181 0.28249 0.0
H704 H 0.1589 0.31175 0.26977 0.0
H705 H 0.19975 0.2981 0.28248 0.0
H706 H 0.12802 0.35146 0.28457 0.0
H707 H 0.12492 0.39548 0.27852 0.0
C708 C 0.12471 0.0883 0.46512 0.0
C709 C 0.12899 0.05414 0.45074 0.0
C710 C 0.19159 0.07322 0.44347 0.0
C711 C 0.18812 0.10665 0.46002 0.0
N712 N 0.15309 0.14457 0.49085 0.0
N713 N 0.16701 0.01201 0.43029 0.0
C714 C 0.1551 0.11386 0.47195 0.0
C715 C 0.16266 0.04595 0.44124 0.0
N716 N 0.09142 0.09652 0.47164 0.0
N717 N 0.2218 0.06815 0.42833 0.0
H718 H 0.14613 0.99157 0.42738 0.0
H719 H 0.19178 0.00348 0.42645 0.0
H720 H 0.24328 0.0877 0.42865 0.0
H721 H 0.22439 0.04574 0.41297 0.0
H722 H 0.08576 0.12208 0.47837 0.0
H723 H 0.06874 0.07811 0.46824 0.0
H724 H 0.13106 0.14957 0.50338 0.0
H725 H 0.17455 0.16414 0.49616 0.0
C726 C 0.71578 0.14906 0.77191 0.0
C727 C 0.74296 0.14626 0.75043 0.0
C728 C 0.71322 0.08884 0.72658 0.0
C729 C 0.68792 0.09016 0.75 0.0
N730 N 0.6694 0.1182 0.79906 0.0
N731 N 0.77171 0.11056 0.71184 0.0
C732 C 0.69036 0.11937 0.77384 0.0
C733 C 0.74293 0.11523 0.7291 0.0
N734 N 0.71347 0.18044 0.78967 0.0
N735 N 0.708 0.0634 0.70102 0.0
H736 H 0.79416 0.12918 0.7133 0.0
H737 H 0.77479 0.08689 0.69848 0.0
H738 H 0.68603 0.04414 0.69766 0.0
H739 H 0.72355 0.06346 0.68149 0.0
H740 H 0.69195 0.18512 0.80303 0.0
H741 H 0.73147 0.20289 0.78888 0.0
H742 H 0.67267 0.13711 0.81889 0.0
H743 H 0.65099 0.0966 0.80174 0.0
C744 C 0.44609 0.09179 0.51846 0.0
C745 C 0.4331 0.06216 0.53394 0.0
C746 C 0.37511 0.08518 0.53716 0.0
C747 C 0.38694 0.11296 0.5189 0.0
N748 N 0.43192 0.14059 0.48859 0.0
N749 N 0.38424 0.02784 0.5545 0.0
C750 C 0.42204 0.11581 0.50869 0.0
C751 C 0.3973 0.05807 0.54233 0.0
N752 N 0.48159 0.0973 0.51371 0.0
N753 N 0.34329 0.08553 0.55076 0.0
H754 H 0.39989 0.00776 0.55934 0.0
H755 H 0.35731 0.02141 0.55756 0.0
H756 H 0.32645 0.10515 0.54793 0.0
H757 H 0.33499 0.06824 0.56719 0.0
H758 H 0.49355 0.12031 0.50578 0.0
H759 H 0.49983 0.07999 0.52014 0.0
H760 H 0.45567 0.14158 0.47741 0.0
H761 H 0.41504 0.15861 0.48095 0.0
C762 C 0.62828 0.46275 0.53034 0.0
C763 C 0.63096 0.48883 0.55707 0.0
C764 C 0.68988 0.47246 0.57422 0.0
C765 C 0.68944 0.45021 0.5451 0.0
N766 N 0.65993 0.42798 0.49301 0.0
N767 N 0.66695 0.52268 0.60166 0.0
C768 C 0.65898 0.44611 0.52255 0.0
C769 C 0.66245 0.49477 0.57834 0.0
N770 N 0.59623 0.45341 0.51277 0.0
N771 N 0.71587 0.47143 0.59845 0.0
H772 H 0.64786 0.54015 0.60518 0.0
H773 H 0.69099 0.53048 0.61551 0.0
H774 H 0.7357 0.45447 0.59685 0.0
H775 H 0.71548 0.48452 0.62134 0.0
H776 H 0.59173 0.43209 0.49508 0.0
H777 H 0.57315 0.46487 0.51794 0.0
H778 H 0.64 0.4275 0.47441 0.0
H779 H 0.68205 0.41599 0.486 0.0
C780 C 0.78422 0.29432 0.38079 0.0
C781 C 0.76977 0.25893 0.38251 0.0
C782 C 0.7651 0.27153 0.44044 0.0
C783 C 0.77665 0.30766 0.4381 0.0
N784 N 0.79037 0.35479 0.40505 0.0
N785 N 0.742 0.21437 0.41253 0.0
C786 C 0.78446 0.31942 0.40799 0.0
C787 C 0.75898 0.24764 0.41196 0.0
N788 N 0.79819 0.30379 0.35325 0.0
N789 N 0.76129 0.25978 0.46993 0.0
H790 H 0.73802 0.19581 0.39238 0.0
H791 H 0.72972 0.20591 0.43233 0.0
H792 H 0.76502 0.27649 0.49126 0.0
H793 H 0.75702 0.23317 0.47355 0.0
H794 H 0.81255 0.32822 0.35162 0.0
H795 H 0.79819 0.2861 0.33274 0.0
H796 H 0.79269 0.36519 0.38312 0.0
H797 H 0.78924 0.37401 0.42415 0.0
C798 C 0.53228 0.02806 0.86109 0.0
C799 C 0.53657 0.00732 0.88716 0.0
C800 C 0.58603 0.98161 0.86248 0.0
C801 C 0.58413 0.00506 0.83827 0.0
N802 N 0.55972 0.05502 0.81758 0.0
N803 N 0.57156 0.96912 0.91585 0.0
C804 C 0.55844 0.02957 0.83841 0.0
C805 C 0.56455 0.98536 0.88875 0.0
N806 N 0.50237 0.04496 0.85705 0.0
N807 N 0.60717 0.95475 0.85971 0.0
H808 H 0.55684 0.97153 0.93588 0.0
H809 H 0.59405 0.95599 0.9197 0.0
H810 H 0.62282 0.95058 0.84052 0.0
H811 H 0.6066 0.93459 0.87479 0.0
H812 H 0.49607 0.0574 0.83666 0.0
H813 H 0.48197 0.04357 0.87251 0.0
H814 H 0.54406 0.07587 0.81888 0.0
H815 H 0.57878 0.05727 0.80087 0.0
C816 C 0.26746 0.23491 0.35616 0.0
C817 C 0.2857 0.26941 0.35732 0.0
C818 C 0.30492 0.26784 0.41437 0.0
C819 C 0.28796 0.23271 0.41288 0.0
N820 N 0.25747 0.18068 0.3815 0.0
N821 N 0.32629 0.31693 0.38541 0.0
C822 C 0.27073 0.21553 0.38344 0.0
C823 C 0.30569 0.2854 0.38587 0.0
N824 N 0.24584 0.22125 0.32934 0.0
N825 N 0.32007 0.28452 0.44315 0.0
H826 H 0.32707 0.33078 0.36515 0.0
H827 H 0.34459 0.32826 0.40423 0.0
H828 H 0.32251 0.27177 0.464 0.0
H829 H 0.32875 0.31141 0.44689 0.0
H830 H 0.22851 0.19809 0.32813 0.0
H831 H 0.24312 0.23448 0.3088 0.0
H832 H 0.24837 0.16555 0.35999 0.0
H833 H 0.25779 0.16588 0.40112 0.0
C834 C 0.5156 0.4872 0.86548 0.0
C835 C 0.5133 0.50812 0.89484 0.0
C836 C 0.46452 0.53654 0.87014 0.0
C837 C 0.46492 0.51363 0.84155 0.0
N838 N 0.48642 0.46313 0.81353 0.0
N839 N 0.48276 0.54892 0.9271 0.0
C840 C 0.48932 0.48787 0.83958 0.0
C841 C 0.48686 0.53167 0.89777 0.0
N842 N 0.54338 0.46729 0.86214 0.0
N843 N 0.44406 0.564 0.87043 0.0
H844 H 0.49923 0.54666 0.94772 0.0
H845 H 0.46142 0.56332 0.93159 0.0
H846 H 0.4277 0.56882 0.85056 0.0
H847 H 0.44556 0.58386 0.88938 0.0
H848 H 0.54887 0.45467 0.84026 0.0
H849 H 0.56273 0.46552 0.88081 0.0
H850 H 0.50085 0.44138 0.81222 0.0
H851 H 0.46723 0.46249 0.79425 0.0
C852 C 0.76607 0.75108 0.12248 0.0
C853 C 0.74894 0.78209 0.12018 0.0
C854 C 0.74035 0.76931 0.06162 0.0
C855 C 0.75422 0.73652 0.06422 0.0
N856 N 0.77424 0.69313 0.09764 0.0
N857 N 0.715 0.8185 0.08857 0.0
C858 C 0.76559 0.72658 0.0948 0.0
C859 C 0.73472 0.7906 0.09001 0.0
N860 N 0.78348 0.74544 0.15097 0.0
N861 N 0.7339 0.78077 0.03205 0.0
H862 H 0.71063 0.83497 0.10883 0.0
H863 H 0.70056 0.82362 0.06773 0.0
H864 H 0.73814 0.76617 0.01071 0.0
H865 H 0.72749 0.80607 0.02876 0.0
H866 H 0.79979 0.72534 0.15323 0.0
H867 H 0.78414 0.76267 0.17186 0.0
H868 H 0.77896 0.68322 0.11968 0.0
H869 H 0.77346 0.67401 0.07811 0.0
C870 C 0.03143 0.04804 0.13697 0.0
C871 C 0.01861 0.02479 0.1092 0.0
C872 C 0.96871 0.9999 0.1375 0.0
C873 C 0.98081 0.02402 0.16492 0.0
N874 N 0.02075 0.07378 0.19011 0.0
N875 N 0.97326 0.98179 0.08095 0.0
C876 C 0.01125 0.04902 0.1644 0.0
C877 C 0.98671 0.00158 0.10889 0.0
N878 N 0.0635 0.0684 0.13736 0.0
N879 N 0.94012 0.97516 0.13899 0.0
H880 H 0.9863 0.98159 0.05985 0.0
H881 H 0.9482 0.96723 0.07785 0.0
H882 H 0.92464 0.9747 0.15858 0.0
H883 H 0.93252 0.95403 0.12154 0.0
H884 H 0.07657 0.08291 0.15785 0.0
H885 H 0.07846 0.06921 0.11743 0.0
H886 H 0.04005 0.09525 0.19 0.0
H887 H 0.00779 0.07423 0.21124 0.0
C888 C 0.3161 0.81906 0.14176 0.0
C889 C 0.31114 0.78178 0.14169 0.0
C890 C 0.28763 0.77589 0.08525 0.0
C891 C 0.29602 0.81278 0.08437 0.0
N892 N 0.32478 0.86864 0.11021 0.0
N893 N 0.30065 0.72437 0.11121 0.0
C894 C 0.31205 0.83421 0.11221 0.0
C895 C 0.29922 0.76003 0.11285 0.0
N896 N 0.32339 0.84012 0.17015 0.0
N897 N 0.26739 0.75612 0.06027 0.0
H898 H 0.31077 0.71182 0.13036 0.0
H899 H 0.29558 0.70782 0.08983 0.0
H900 H 0.25731 0.76689 0.04002 0.0
H901 H 0.2575 0.7298 0.06117 0.0
H902 H 0.32336 0.86745 0.17192 0.0
H903 H 0.32623 0.83017 0.1924 0.0
H904 H 0.34018 0.88432 0.12889 0.0
H905 H 0.32293 0.88067 0.08895 0.0
C906 C 0.04915 0.52477 0.11377 0.0
C907 C 0.01412 0.50703 0.10685 0.0
C908 C 0.01776 0.48268 0.15901 0.0
C909 C 0.05181 0.50226 0.16678 0.0
N910 N 0.09801 0.54593 0.15403 0.0
N911 N 0.96309 0.47234 0.12366 0.0
C912 C 0.0671 0.5243 0.14477 0.0
C913 C 0.9978 0.48699 0.12978 0.0
N914 N 0.06544 0.54163 0.09048 0.0
N915 N 0.0052 0.45884 0.17902 0.0
H916 H 0.94811 0.47362 0.10199 0.0
H917 H 0.94822 0.46095 0.14073 0.0
H918 H 0.01917 0.45485 0.20053 0.0
H919 H 0.98244 0.44093 0.17326 0.0
H920 H 0.09238 0.55133 0.0925 0.0
H921 H 0.05252 0.54408 0.06808 0.0
H922 H 0.10846 0.56551 0.14061 0.0
H923 H 0.11204 0.54624 0.17643 0.0
C924 C 0.39605 0.70521 0.26984 0.0
C925 C 0.36314 0.71434 0.28049 0.0
C926 C 0.3936 0.73914 0.33249 0.0
C927 C 0.42704 0.73476 0.32011 0.0
N928 N 0.46041 0.71781 0.27518 0.0
N929 N 0.3306 0.74354 0.32056 0.0
C930 C 0.42842 0.7186 0.28837 0.0
C931 C 0.36184 0.73212 0.31153 0.0
N932 N 0.39629 0.68331 0.24218 0.0
N933 N 0.39208 0.74885 0.36454 0.0
H934 H 0.30666 0.73867 0.30602 0.0
H935 H 0.329 0.76019 0.3414 0.0
H936 H 0.41469 0.75323 0.38083 0.0
H937 H 0.36823 0.74905 0.37552 0.0
H938 H 0.41909 0.67278 0.2349 0.0
H939 H 0.37301 0.67292 0.22807 0.0
H940 H 0.46259 0.71006 0.25099 0.0
H941 H 0.48478 0.72786 0.28757 0.0
C942 C 0.04856 0.41126 0.94414 0.0
C943 C 0.02071 0.40983 0.96512 0.0
C944 C 0.99261 0.35489 0.93486 0.0
C945 C 0.02239 0.3543 0.91619 0.0
N946 N 0.0814 0.37901 0.9059 0.0
N947 N 0.97009 0.37677 0.98457 0.0
C948 C 0.05111 0.38175 0.92151 0.0
C949 C 0.99367 0.38074 0.96158 0.0
N950 N 0.07179 0.4413 0.945 0.0
N951 N 0.96282 0.33143 0.92646 0.0
H952 H 0.97074 0.3944 0.00518 0.0
H953 H 0.95223 0.35417 0.98488 0.0
H954 H 0.96077 0.31262 0.90655 0.0
H955 H 0.93893 0.33293 0.9372 0.0
H956 H 0.09016 0.4453 0.92797 0.0
H957 H 0.07065 0.46362 0.96101 0.0
H958 H 0.10474 0.39619 0.9115 0.0
H959 H 0.08436 0.35782 0.88915 0.0
C960 C 0.61583 0.79803 0.2484 0.0
C961 C 0.64873 0.8151 0.26355 0.0
C962 C 0.62628 0.80883 0.3164 0.0
C963 C 0.59465 0.78885 0.30123 0.0
N964 N 0.56359 0.75713 0.25306 0.0
N965 N 0.68811 0.83051 0.31187 0.0
C966 C 0.59069 0.78127 0.26728 0.0
C967 C 0.65479 0.8187 0.29754 0.0
N968 N 0.60761 0.7994 0.21629 0.0
N969 N 0.62864 0.81997 0.3485 0.0
H970 H 0.70982 0.83778 0.29895 0.0
H971 H 0.69506 0.82992 0.3363 0.0
H972 H 0.6086 0.81372 0.36344 0.0
H973 H 0.64925 0.8381 0.35983 0.0
H974 H 0.58248 0.79046 0.20479 0.0
H975 H 0.62445 0.81287 0.20178 0.0
H976 H 0.56156 0.74808 0.2287 0.0
H977 H 0.54541 0.74324 0.26613 0.0
C978 C 0.03962 0.14012 0.9697 0.0
C979 C 0.0516 0.10745 0.95894 0.0
C980 C 0.04588 0.1224 0.90326 0.0
C981 C 0.03095 0.15354 0.91382 0.0
N982 N 0.00592 0.18783 0.95608 0.0
N983 N 0.05978 0.06434 0.91506 0.0
C984 C 0.02548 0.16112 0.94676 0.0
C985 C 0.0529 0.09766 0.92556 0.0
N986 N 0.04368 0.15222 0.00161 0.0
N987 N 0.05493 0.11718 0.87233 0.0
H988 H 0.06473 0.04531 0.93059 0.0
H989 H 0.05732 0.0545 0.8909 0.0
H990 H 0.05059 0.1348 0.8553 0.0
H991 H 0.06958 0.09699 0.86429 0.0
H992 H 0.03877 0.17752 0.01028 0.0
H993 H 0.05558 0.13862 0.01914 0.0
H994 H 0.99803 0.19218 0.97929 0.0
H995 H 0.99443 0.20336 0.9399 0.0
C996 C 0.40241 0.29807 0.22137 0.0
C997 C 0.37716 0.26809 0.22244 0.0
C998 C 0.40132 0.2382 0.1759 0.0
C999 C 0.4241 0.26951 0.17296 0.0
N1000 N 0.4413 0.3315 0.18896 0.0
N1001 N 0.34817 0.212 0.19748 0.0
C1002 C 0.42319 0.30013 0.19458 0.0
C1003 C 0.3754 0.23876 0.19883 0.0
N1004 N 0.40786 0.32379 0.24669 0.0
N1005 N 0.40541 0.20746 0.15786 0.0
H1006 H 0.32845 0.21145 0.21364 0.0
H1007 H 0.34325 0.19195 0.17861 0.0
H1008 H 0.42401 0.2057 0.14078 0.0
H1009 H 0.3925 0.18301 0.16175 0.0
H1010 H 0.42847 0.3444 0.24864 0.0
H1011 H 0.39423 0.32264 0.26738 0.0
H1012 H 0.43859 0.35546 0.20202 0.0
H1013 H 0.45629 0.33423 0.16922 0.0
C1014 C 0.5581 0.38255 0.02542 0.0
C1015 C 0.55329 0.41696 0.03889 0.0
C1016 C 0.52878 0.39228 0.08572 0.0
C1017 C 0.53012 0.35778 0.07056 0.0
N1018 N 0.54282 0.31939 0.02479 0.0
N1019 N 0.53011 0.45482 0.07977 0.0
C1020 C 0.54368 0.35272 0.03997 0.0
C1021 C 0.53786 0.42197 0.06865 0.0
N1022 N 0.5782 0.37845 0.99975 0.0
N1023 N 0.51882 0.39665 0.11642 0.0
H1024 H 0.53601 0.47722 0.06792 0.0
H1025 H 0.51523 0.45957 0.09935 0.0
H1026 H 0.51017 0.37557 0.12906 0.0
H1027 H 0.52134 0.42099 0.13021 0.0
H1028 H 0.58585 0.3543 0.99088 0.0
H1029 H 0.59037 0.39969 0.98918 0.0
H1030 H 0.54807 0.31429 0.00086 0.0
H1031 H 0.53463 0.29664 0.0354 0.0
C1032 C 0.64965 0.20547 0.20282 0.0
C1033 C 0.64767 0.20671 0.23657 0.0
C1034 C 0.59262 0.23492 0.23181 0.0
C1035 C 0.59235 0.23008 0.19784 0.0
N1036 N 0.61755 0.20495 0.15068 0.0
N1037 N 0.61266 0.21454 0.28215 0.0
C1038 C 0.62007 0.21383 0.18318 0.0
C1039 C 0.61788 0.21922 0.25084 0.0
N1040 N 0.68026 0.19763 0.18959 0.0
N1041 N 0.56961 0.25562 0.24603 0.0
H1042 H 0.62946 0.20134 0.29648 0.0
H1043 H 0.58951 0.22015 0.29274 0.0
H1044 H 0.55157 0.2688 0.23297 0.0
H1045 H 0.57114 0.26278 0.27073 0.0
H1046 H 0.68462 0.20026 0.16563 0.0
H1047 H 0.70267 0.19152 0.20308 0.0
H1048 H 0.63486 0.18937 0.1393 0.0
H1049 H 0.5964 0.21042 0.13528 0.0
C1050 C 0.50322 0.1135 0.05278 0.0
C1051 C 0.479 0.11482 0.02556 0.0
C1052 C 0.46664 0.17404 0.04594 0.0
C1053 C 0.49198 0.17329 0.07252 0.0
N1054 N 0.53961 0.14581 0.09815 0.0
N1055 N 0.44175 0.14748 0.99312 0.0
C1056 C 0.51174 0.14396 0.07509 0.0
C1057 C 0.462 0.14553 0.02116 0.0
N1058 N 0.51741 0.08279 0.05769 0.0
N1059 N 0.44587 0.20119 0.04516 0.0
H1060 H 0.4371 0.12668 0.97485 0.0
H1061 H 0.43173 0.17045 0.98686 0.0
H1062 H 0.4487 0.22267 0.0627 0.0
H1063 H 0.42415 0.20137 0.02844 0.0
H1064 H 0.5316 0.07875 0.07901 0.0
H1065 H 0.51305 0.06028 0.04125 0.0
H1066 H 0.55761 0.12703 0.09901 0.0
H1067 H 0.54678 0.16772 0.11491 0.0
C1068 C 0.31297 0.39967 0.69144 0.0
C1069 C 0.31402 0.3694 0.70846 0.0
C1070 C 0.36422 0.39974 0.74438 0.0
C1071 C 0.36555 0.42846 0.72522 0.0
N1072 N 0.34551 0.45298 0.67693 0.0
N1073 N 0.34387 0.33812 0.74788 0.0
C1074 C 0.34103 0.42775 0.69779 0.0
C1075 C 0.34056 0.36871 0.73407 0.0
N1076 N 0.28467 0.40198 0.66977 0.0
N1077 N 0.3845 0.40262 0.77307 0.0
H1078 H 0.32696 0.31488 0.74105 0.0
H1079 H 0.36514 0.33492 0.7642 0.0
H1080 H 0.40166 0.42517 0.78177 0.0
H1081 H 0.38188 0.38405 0.78964 0.0
H1082 H 0.28054 0.42495 0.6592 0.0
H1083 H 0.26351 0.38198 0.66451 0.0
H1084 H 0.33079 0.45162 0.65478 0.0
H1085 H 0.36624 0.47356 0.68023 0.0
C1086 C 0.32489 0.66146 0.77343 0.0
C1087 C 0.30477 0.65933 0.80063 0.0
C1088 C 0.3299 0.60477 0.81151 0.0
C1089 C 0.34514 0.60386 0.7815 0.0
N1090 N 0.35259 0.62925 0.7314 0.0
N1091 N 0.28382 0.62582 0.84297 0.0
C1092 C 0.34171 0.6318 0.76183 0.0
C1093 C 0.3062 0.63021 0.81911 0.0
N1094 N 0.32844 0.69207 0.759 0.0
N1095 N 0.33898 0.5821 0.83329 0.0
H1096 H 0.2655 0.6434 0.84899 0.0
H1097 H 0.28113 0.60303 0.85478 0.0
H1098 H 0.35738 0.56402 0.82918 0.0
H1099 H 0.33134 0.58392 0.85672 0.0
H1100 H 0.34562 0.69631 0.74105 0.0
H1101 H 0.31698 0.71453 0.76719 0.0
H1102 H 0.34714 0.64712 0.7149 0.0
H1103 H 0.36405 0.60758 0.72146 0.0
C1104 C 0.92255 0.47878 0.52901 0.0
C1105 C 0.91746 0.49543 0.50045 0.0
C1106 C 0.86256 0.45583 0.48483 0.0
C1107 C 0.86546 0.44195 0.51512 0.0
N1108 N 0.89419 0.44666 0.56902 0.0
N1109 N 0.87873 0.505 0.45447 0.0
C1110 C 0.89437 0.45519 0.53809 0.0
C1111 C 0.88629 0.48551 0.47931 0.0
N1112 N 0.95464 0.48462 0.54702 0.0
N1113 N 0.83845 0.43974 0.46068 0.0
H1114 H 0.8952 0.52726 0.44984 0.0
H1115 H 0.85447 0.50109 0.44042 0.0
H1116 H 0.82141 0.41715 0.46306 0.0
H1117 H 0.83797 0.44664 0.4372 0.0
H1118 H 0.9609 0.47036 0.56626 0.0
H1119 H 0.97624 0.50121 0.54087 0.0
H1120 H 0.91292 0.45836 0.5874 0.0
H1121 H 0.8732 0.43091 0.57717 0.0
C1122 C 0.71634 0.8542 0.76199 0.0
C1123 C 0.73916 0.85786 0.79082 0.0
C1124 C 0.71659 0.91401 0.8068 0.0
C1125 C 0.69911 0.91346 0.77558 0.0
N1126 N 0.68602 0.88432 0.72168 0.0
N1127 N 0.76499 0.89427 0.8388 0.0
C1128 C 0.69957 0.88372 0.75272 0.0
C1129 C 0.74022 0.88847 0.8129 0.0
N1130 N 0.71042 0.8224 0.74365 0.0
N1131 N 0.7099 0.93836 0.83094 0.0
H1132 H 0.78355 0.87682 0.84387 0.0
H1133 H 0.76929 0.91803 0.85356 0.0
H1134 H 0.69157 0.95657 0.82778 0.0
H1135 H 0.71938 0.9378 0.85484 0.0
H1136 H 0.69145 0.81724 0.724 0.0
H1137 H 0.72187 0.80012 0.75006 0.0
H1138 H 0.68924 0.8649 0.70333 0.0
H1139 H 0.67443 0.9057 0.71349 0.0
C1140 C 0.65432 0.54895 0.93672 0.0
C1141 C 0.62847 0.55066 0.9596 0.0
C1142 C 0.66648 0.59922 0.99158 0.0
C1143 C 0.68972 0.60068 0.96652 0.0
N1144 N 0.70514 0.57866 0.91414 0.0
N1145 N 0.60729 0.58041 0.00663 0.0
C1146 C 0.68345 0.57601 0.93874 0.0
C1147 C 0.63392 0.57644 0.98661 0.0
N1148 N 0.65163 0.5208 0.91372 0.0
N1149 N 0.67557 0.61942 0.0202 0.0
H1150 H 0.58284 0.56458 0.00363 0.0
H1151 H 0.60815 0.6013 0.02455 0.0
H1152 H 0.6991 0.63651 0.02469 0.0
H1153 H 0.66151 0.61681 0.04047 0.0
H1154 H 0.67144 0.51616 0.89835 0.0
H1155 H 0.63098 0.50018 0.91187 0.0
H1156 H 0.69943 0.56429 0.89169 0.0
H1157 H 0.72795 0.59681 0.91549 0.0
C1158 C 0.24218 0.61378 0.22175 0.0
C1159 C 0.24475 0.64506 0.24313 0.0
C1160 C 0.19309 0.62078 0.26948 0.0
C1161 C 0.18835 0.59114 0.24594 0.0
N1162 N 0.2042 0.56263 0.19594 0.0
N1163 N 0.22026 0.68088 0.2846 0.0
C1164 C 0.21183 0.58841 0.22109 0.0
C1165 C 0.21956 0.64928 0.26631 0.0
N1166 N 0.26914 0.60797 0.20252 0.0
N1167 N 0.17323 0.62113 0.29547 0.0
H1168 H 0.23953 0.70218 0.28326 0.0
H1169 H 0.20022 0.68694 0.29929 0.0
H1170 H 0.15374 0.60069 0.29873 0.0
H1171 H 0.17811 0.64017 0.31516 0.0
H1172 H 0.27058 0.584 0.18899 0.0
H1173 H 0.29183 0.62599 0.20231 0.0
H1174 H 0.21822 0.56173 0.17544 0.0
H1175 H 0.18169 0.54407 0.19395 0.0
C1176 C 0.929 0.58115 0.01297 0.0
C1177 C 0.92279 0.5536 0.03299 0.0
C1178 C 0.86155 0.5681 0.03758 0.0
C1179 C 0.8661 0.59181 0.01371 0.0
N1180 N 0.90321 0.61847 0.97601 0.0
N1181 N 0.88194 0.51788 0.06162 0.0
C1182 C 0.89971 0.59803 0.0009 0.0
C1183 C 0.88879 0.5464 0.04477 0.0
N1184 N 0.96303 0.59138 0.0058 0.0
N1185 N 0.83163 0.5671 0.05411 0.0
H1186 H 0.90114 0.50136 0.06757 0.0
H1187 H 0.85647 0.50892 0.06751 0.0
H1188 H 0.81153 0.5833 0.05013 0.0
H1189 H 0.82846 0.55297 0.07397 0.0
H1190 H 0.96987 0.61357 0.99399 0.0
H1191 H 0.98503 0.57956 0.01434 0.0
H1192 H 0.92588 0.62069 0.96329 0.0
H1193 H 0.88238 0.63099 0.96621 0.0
C1194 C 0.11477 0.95624 0.01949 0.0
C1195 C 0.11657 0.98296 0.0456 0.0
C1196 C 0.17653 0.96951 0.06301 0.0
C1197 C 0.17693 0.94701 0.03415 0.0
N1198 N 0.14777 0.92272 0.98243 0.0
N1199 N 0.15155 0.01895 0.0896 0.0
C1200 C 0.14629 0.94107 0.01178 0.0
C1201 C 0.14804 0.99058 0.06679 0.0
N1202 N 0.08279 0.94498 0.00236 0.0
N1203 N 0.20276 0.96991 0.08732 0.0
H1204 H 0.13165 0.03555 0.09293 0.0
H1205 H 0.17548 0.02792 0.10325 0.0
H1206 H 0.22334 0.95379 0.08601 0.0
H1207 H 0.2019 0.98324 0.11003 0.0
H1208 H 0.07913 0.92321 0.98512 0.0
H1209 H 0.05912 0.95526 0.00761 0.0
H1210 H 0.12748 0.92096 0.96396 0.0
H1211 H 0.17053 0.91195 0.97535 0.0
loop_
_geom_bond_atom_site_label_1
_geom_bond_atom_site_label_2
_geom_bond_distance
_geom_bond_site_symmetry_2
_ccdc_geom_bond_type
H0 C5 0.930 . S
H1 C8 0.930 . S
H2 C10 0.930 . S
H3 C4 1.016 . S
C4 H3 1.016 . S
C4 N11 1.286 1_556 S
C5 H0 0.930 . S
C5 C6 1.397 . S
C5 C7 1.361 . S
C6 C5 1.397 . S
C6 C10 1.390 . S
C7 C5 1.361 . S
C7 C8 1.393 . S
C7 N11 1.413 . S
C8 H1 0.930 . S
C8 C7 1.393 . S
C8 C9 1.399 . S
C9 C8 1.399 . S
C9 C10 1.381 . S
C10 H2 0.930 . S
C10 C6 1.390 . S
C10 C9 1.381 . S
N11 C4 1.286 1_554 S
N11 C7 1.413 . S
H12 C17 0.930 . S
H13 C20 0.930 . S
H14 C22 0.930 . S
H15 C16 1.016 . S
C16 H15 1.016 . S
C16 N23 1.286 . S
C17 H12 0.930 . S
C17 C18 1.397 . S
C17 C19 1.361 . S
C18 C17 1.397 . S
C18 C22 1.390 . S
C19 C17 1.361 . S
C19 C20 1.393 . S
C19 N23 1.413 . S
C20 H13 0.930 . S
C20 C19 1.393 . S
C20 C21 1.399 . S
C21 C20 1.399 . S
C21 C22 1.381 . S
C22 H14 0.930 . S
C22 C18 1.390 . S
C22 C21 1.381 . S
N23 C16 1.286 . S
N23 C19 1.413 . S
H24 C29 0.930 . S
H25 C32 0.930 1_455 S
H26 C34 0.930 . S
H27 C28 1.016 1_454 S
C28 H27 1.016 1_656 S
C28 N35 1.286 . S
C29 H24 0.930 . S
C29 C30 1.397 . S
C29 C31 1.361 . S
C30 C29 1.397 . S
C30 C34 1.390 . S
C31 C29 1.361 . S
C31 C32 1.393 . S
C31 N35 1.413 1_554 S
C32 H25 0.930 1_655 S
C32 C31 1.393 . S
C32 C33 1.399 . S
C33 C32 1.399 . S
C33 C34 1.381 . S
C34 H26 0.930 . S
C34 C30 1.390 . S
C34 C33 1.381 . S
N35 C28 1.286 . S
N35 C31 1.413 1_556 S
H36 C41 0.930 . S
H37 C44 0.930 . S
H38 C46 0.930 . S
H39 C40 1.016 . S
C40 H39 1.016 . S
C40 N47 1.286 . S
C41 H36 0.930 . S
C41 C42 1.397 . S
C41 C43 1.361 . S
C42 C41 1.397 . S
C42 C46 1.390 . S
C43 C41 1.361 . S
C43 C44 1.393 . S
C43 N47 1.413 . S
C44 H37 0.930 . S
C44 C43 1.393 . S
C44 C45 1.399 . S
C45 C44 1.399 . S
C45 C46 1.381 . S
C46 H38 0.930 . S
C46 C42 1.390 . S
C46 C45 1.381 . S
N47 C40 1.286 . S
N47 C43 1.413 . S
H48 C53 0.930 . S
H49 C56 0.930 . S
H50 C58 0.930 . S
H51 C52 1.016 . S
C52 H51 1.016 . S
C52 N59 1.286 . S
C53 H48 0.930 . S
C53 C54 1.397 1_565 S
C53 C55 1.361 . S
C54 C53 1.397 1_545 S
C54 C58 1.390 . S
C55 C53 1.361 . S
C55 C56 1.393 . S
C55 N59 1.413 . S
C56 H49 0.930 . S
C56 C55 1.393 . S
C56 C57 1.399 1_565 S
C57 C56 1.399 1_545 S
C57 C58 1.381 . S
C58 H50 0.930 . S
C58 C54 1.390 . S
C58 C57 1.381 . S
N59 C52 1.286 . S
N59 C55 1.413 . S
H60 C65 0.930 . S
H61 C68 0.930 . S
H62 C70 0.930 . S
H63 C64 1.016 . S
C64 H63 1.016 . S
C64 N71 1.286 . S
C65 H60 0.930 . S
C65 C66 1.397 . S
C65 C67 1.361 . S
C66 C65 1.397 . S
C66 C70 1.390 . S
C67 C65 1.361 . S
C67 C68 1.393 . S
C67 N71 1.413 . S
C68 H61 0.930 . S
C68 C67 1.393 . S
C68 C69 1.399 . S
C69 C68 1.399 . S
C69 C70 1.381 . S
C70 H62 0.930 . S
C70 C66 1.390 . S
C70 C69 1.381 . S
N71 C64 1.286 . S
N71 C67 1.413 . S
H72 C77 0.930 1_455 S
H73 C80 0.930 . S
H74 C82 0.930 . S
H75 C76 1.016 . S
C76 H75 1.016 . S
C76 N83 1.286 . S
C77 H72 0.930 1_655 S
C77 C78 1.397 . S
C77 C79 1.361 . S
C78 C77 1.397 . S
C78 C82 1.390 . S
C79 C77 1.361 . S
C79 C80 1.393 . S
C79 N83 1.413 1_655 S
C80 H73 0.930 . S
C80 C79 1.393 . S
C80 C81 1.399 . S
C81 C80 1.399 . S
C81 C82 1.381 . S
C82 H74 0.930 . S
C82 C78 1.390 . S
C82 C81 1.381 . S
N83 C76 1.286 . S
N83 C79 1.413 1_455 S
H84 C89 0.930 . S
H85 C92 0.930 . S
H86 C94 0.930 . S
H87 C88 1.016 . S
C88 H87 1.016 . S
C88 N95 1.286 . S
C89 H84 0.930 . S
C89 C90 1.397 . S
C89 C91 1.361 . S
C90 C89 1.397 . S
C90 C94 1.390 . S
C91 C89 1.361 . S
C91 C92 1.393 . S
C91 N95 1.413 . S
C92 H85 0.930 . S
C92 C91 1.393 . S
C92 C93 1.399 . S
C93 C92 1.399 . S
C93 C94 1.381 . S
C94 H86 0.930 . S
C94 C90 1.390 . S
C94 C93 1.381 . S
N95 C88 1.286 . S
N95 C91 1.413 . S
H96 C101 0.930 . S
H97 C104 0.930 . S
H98 C106 0.930 . S
H99 C100 1.016 . S
C100 H99 1.016 . S
C100 N107 1.286 . S
C101 H96 0.930 . S
C101 C102 1.397 . S
C101 C103 1.361 . S
C102 C101 1.397 . S
C102 C106 1.390 . S
C103 C101 1.361 . S
C103 C104 1.393 . S
C103 N107 1.413 . S
C104 H97 0.930 . S
C104 C103 1.393 . S
C104 C105 1.399 . S
C105 C104 1.399 . S
C105 C106 1.381 . S
C106 H98 0.930 . S
C106 C102 1.390 . S
C106 C105 1.381 . S
N107 C100 1.286 . S
N107 C103 1.413 . S
H108 C113 0.930 . S
H109 C116 0.930 . S
H110 C118 0.930 . S
H111 C112 1.016 . S
C112 H111 1.016 . S
C112 N119 1.286 . S
C113 H108 0.930 . S
C113 C114 1.397 1_565 S
C113 C115 1.361 . S
C114 C113 1.397 1_545 S
C114 C118 1.390 . S
C115 C113 1.361 . S
C115 C116 1.393 . S
C115 N119 1.413 . S
C116 H109 0.930 . S
C116 C115 1.393 . S
C116 C117 1.399 . S
C117 C116 1.399 . S
C117 C118 1.381 1_565 S
C118 H110 0.930 . S
C118 C114 1.390 . S
C118 C117 1.381 1_545 S
N119 C112 1.286 . S
N119 C115 1.413 . S
H120 C125 0.930 . S
H121 C128 0.930 . S
H122 C130 0.930 . S
H123 C124 1.016 . S
C124 H123 1.016 . S
C124 N131 1.286 . S
C125 H120 0.930 . S
C125 C126 1.397 . S
C125 C127 1.361 . S
C126 C125 1.397 . S
C126 C130 1.390 . S
C127 C125 1.361 . S
C127 C128 1.393 . S
C127 N131 1.413 . S
C128 H121 0.930 . S
C128 C127 1.393 . S
C128 C129 1.399 . S
C129 C128 1.399 . S
C129 C130 1.381 . S
C130 H122 0.930 . S
C130 C126 1.390 . S
C130 C129 1.381 . S
N131 C124 1.286 . S
N131 C127 1.413 . S
H132 C137 0.930 . S
H133 C140 0.930 . S
H134 C142 0.930 . S
H135 C136 1.016 . S
C136 H135 1.016 . S
C136 N143 1.286 . S
C137 H132 0.930 . S
C137 C138 1.397 . S
C137 C139 1.361 . S
C138 C137 1.397 . S
C138 C142 1.390 . S
C139 C137 1.361 . S
C139 C140 1.393 . S
C139 N143 1.413 . S
C140 H133 0.930 . S
C140 C139 1.393 . S
C140 C141 1.399 . S
C141 C140 1.399 . S
C141 C142 1.381 . S
C142 H134 0.930 . S
C142 C138 1.390 . S
C142 C141 1.381 . S
N143 C136 1.286 . S
N143 C139 1.413 . S
H144 C149 0.930 . S
H145 C152 0.930 . S
H146 C154 0.930 . S
H147 C148 1.016 . S
C148 H147 1.016 . S
C148 N155 1.286 . S
C149 H144 0.930 . S
C149 C150 1.397 . S
C149 C151 1.361 . S
C150 C149 1.397 . S
C150 C154 1.390 . S
C151 C149 1.361 . S
C151 C152 1.393 . S
C151 N155 1.413 . S
C152 H145 0.930 . S
C152 C151 1.393 . S
C152 C153 1.399 . S
C153 C152 1.399 . S
C153 C154 1.381 . S
C154 H146 0.930 . S
C154 C150 1.390 . S
C154 C153 1.381 . S
N155 C148 1.286 . S
N155 C151 1.413 . S
H156 C161 0.930 . S
H157 C164 0.930 1_554 S
H158 C166 0.930 . S
H159 C160 1.016 . S
C160 H159 1.016 . S
C160 N167 1.286 1_554 S
C161 H156 0.930 . S
C161 C162 1.397 . S
C161 C163 1.361 . S
C162 C161 1.397 . S
C162 C166 1.390 . S
C163 C161 1.361 . S
C163 C164 1.393 . S
C163 N167 1.413 . S
C164 H157 0.930 1_556 S
C164 C163 1.393 . S
C164 C165 1.399 . S
C165 C164 1.399 . S
C165 C166 1.381 . S
C166 H158 0.930 . S
C166 C162 1.390 . S
C166 C165 1.381 . S
N167 C160 1.286 1_556 S
N167 C163 1.413 . S
H168 C173 0.930 . S
H169 C176 0.930 . S
H170 C178 0.930 . S
H171 C172 1.016 . S
C172 H171 1.016 . S
C172 N179 1.286 . S
C173 H168 0.930 . S
C173 C174 1.397 . S
C173 C175 1.361 . S
C174 C173 1.397 . S
C174 C178 1.390 . S
C175 C173 1.361 . S
C175 C176 1.393 . S
C175 N179 1.413 . S
C176 H169 0.930 . S
C176 C175 1.393 . S
C176 C177 1.399 . S
C177 C176 1.399 . S
C177 C178 1.381 . S
C178 H170 0.930 . S
C178 C174 1.390 . S
C178 C177 1.381 . S
N179 C172 1.286 . S
N179 C175 1.413 . S
H180 C185 0.930 . S
H181 C188 0.950 . S
H182 C190 0.930 . S
H183 C184 1.016 1_565 S
C184 H183 1.016 1_545 S
C184 N191 1.286 . S
C185 H180 0.930 . S
C185 C186 1.411 . S
C185 C187 1.361 . S
C186 C185 1.411 . S
C186 C190 1.386 1_556 S
C187 C185 1.361 . S
C187 C188 1.393 . S
C187 N191 1.413 . S
C188 H181 0.950 . S
C188 C187 1.393 . S
C188 C189 1.399 . S
C189 C188 1.399 . S
C189 C190 1.381 1_556 S
C190 H182 0.930 . S
C190 C186 1.386 1_554 S
C190 C189 1.381 1_554 S
N191 C184 1.286 . S
N191 C187 1.413 . S
C192 O193 1.160 1_554 S
C192 O199 1.185 . S
O193 C192 1.160 1_556 S
O194 Zn195 1.899 1_556 S
O194 C202 1.284 . S
Zn195 O194 1.899 1_554 S
Zn195 O196 2.032 . S
Zn195 O199 2.086 . S
Zn195 O204 1.977 . S
O196 Zn195 2.032 . S
O196 C200 1.278 . S
C197 O198 1.203 . S
C197 O204 1.267 . S
O198 C197 1.203 . S
O199 C192 1.185 . S
O199 Zn195 2.086 . S
C200 O196 1.278 . S
C200 O201 1.211 . S
O201 C200 1.211 . S
C202 O194 1.284 . S
C202 O203 1.273 . S
O203 C202 1.273 . S
O204 Zn195 1.977 . S
O204 C197 1.267 . S
C205 O206 1.160 . S
C205 O212 1.185 . S
O206 C205 1.160 . S
O207 Zn208 1.899 . S
O207 C215 1.284 . S
Zn208 O207 1.899 . S
Zn208 O209 2.032 . S
Zn208 O212 2.086 . S
Zn208 O217 1.977 . S
O209 Zn208 2.032 . S
O209 C213 1.278 . S
C210 O211 1.203 . S
C210 O217 1.267 . S
O211 C210 1.203 . S
O212 C205 1.185 . S
O212 Zn208 2.086 . S
C213 O209 1.278 . S
C213 O214 1.211 . S
O214 C213 1.211 . S
C215 O207 1.284 . S
C215 O216 1.273 . S
O216 C215 1.273 . S
O217 Zn208 1.977 . S
O217 C210 1.267 . S
C218 O219 1.160 1_554 S
C218 O225 1.185 . S
O219 C218 1.160 1_556 S
O220 Zn221 1.899 1_556 S
O220 C228 1.284 . S
Zn221 O220 1.899 1_554 S
Zn221 O222 2.032 1_554 S
Zn221 O225 2.086 . S
Zn221 O230 1.977 . S
O222 Zn221 2.032 1_556 S
O222 C226 1.278 . S
C223 O224 1.203 . S
C223 O230 1.267 . S
O224 C223 1.203 . S
O225 C218 1.185 . S
O225 Zn221 2.086 . S
C226 O222 1.278 . S
C226 O227 1.211 1_556 S
O227 C226 1.211 1_554 S
C228 O220 1.284 . S
C228 O229 1.273 . S
O229 C228 1.273 . S
O230 Zn221 1.977 . S
O230 C223 1.267 . S
C231 O232 1.160 . S
C231 O238 1.185 . S
O232 C231 1.160 . S
O233 Zn234 1.899 . S
O233 C241 1.284 . S
Zn234 O233 1.899 . S
Zn234 O235 2.032 . S
Zn234 O238 2.086 . S
Zn234 O243 1.977 . S
O235 Zn234 2.032 . S
O235 C239 1.278 1_545 S
C236 O237 1.203 . S
C236 O243 1.267 . S
O237 C236 1.203 . S
O238 C231 1.185 . S
O238 Zn234 2.086 . S
C239 O235 1.278 1_565 S
C239 O240 1.211 . S
O240 C239 1.211 . S
C241 O233 1.284 . S
C241 O242 1.273 1_545 S
O242 C241 1.273 1_565 S
O243 Zn234 1.977 . S
O243 C236 1.267 . S
C244 O245 1.160 . S
C244 O251 1.185 . S
O245 C244 1.160 . S
O246 Zn247 1.899 . S
O246 C254 1.284 . S
Zn247 O246 1.899 . S
Zn247 O248 2.032 . S
Zn247 O251 2.086 . S
Zn247 O256 1.977 . S
O248 Zn247 2.032 . S
O248 C252 1.278 . S
C249 O250 1.203 . S
C249 O256 1.267 . S
O250 C249 1.203 . S
O251 C244 1.185 . S
O251 Zn247 2.086 . S
C252 O248 1.278 . S
C252 O253 1.211 . S
O253 C252 1.211 . S
C254 O246 1.284 . S
C254 O255 1.273 . S
O255 C254 1.273 . S
O256 Zn247 1.977 . S
O256 C249 1.267 . S
C257 O258 1.160 . S
C257 O264 1.185 . S
O258 C257 1.160 . S
O259 Zn260 1.899 . S
O259 C267 1.284 . S
Zn260 O259 1.899 . S
Zn260 O261 2.032 . S
Zn260 O264 2.086 . S
Zn260 O269 1.977 . S
O261 Zn260 2.032 . S
O261 C265 1.278 . S
C262 O263 1.203 . S
C262 O269 1.267 . S
O263 C262 1.203 . S
O264 C257 1.185 . S
O264 Zn260 2.086 . S
C265 O261 1.278 . S
C265 O266 1.211 . S
O266 C265 1.211 . S
C267 O259 1.284 . S
C267 O268 1.273 . S
O268 C267 1.273 . S
O269 Zn260 1.977 . S
O269 C262 1.267 . S
C270 O271 1.160 . S
C270 O277 1.185 . S
O271 C270 1.160 . S
O272 Zn273 1.899 . S
O272 C280 1.284 . S
Zn273 O272 1.899 . S
Zn273 O274 2.032 . S
Zn273 O277 2.086 . S
Zn273 O282 1.977 . S
O274 Zn273 2.032 . S
O274 C278 1.278 . S
C275 O276 1.203 . S
C275 O282 1.267 . S
O276 C275 1.203 . S
O277 C270 1.185 . S
O277 Zn273 2.086 . S
C278 O274 1.278 . S
C278 O279 1.211 . S
O279 C278 1.211 . S
C280 O272 1.284 . S
C280 O281 1.273 . S
O281 C280 1.273 . S
O282 Zn273 1.977 . S
O282 C275 1.267 . S
C283 O284 1.160 . S
C283 O290 1.185 . S
O284 C283 1.160 . S
O285 Zn286 1.899 . S
O285 C293 1.284 1_565 S
Zn286 O285 1.899 . S
Zn286 O287 2.032 1_565 S
Zn286 O290 2.086 . S
Zn286 O295 1.977 . S
O287 Zn286 2.032 1_545 S
O287 C291 1.278 . S
C288 O289 1.203 1_565 S
C288 O295 1.267 . S
O289 C288 1.203 1_545 S
O290 C283 1.185 . S
O290 Zn286 2.086 . S
C291 O287 1.278 . S
C291 O292 1.211 . S
O292 C291 1.211 . S
C293 O285 1.284 1_545 S
C293 O294 1.273 . S
O294 C293 1.273 . S
O295 Zn286 1.977 . S
O295 C288 1.267 . S
C296 O297 1.160 1_455 S
C296 O303 1.185 . S
O297 C296 1.160 1_655 S
O298 Zn299 1.899 1_655 S
O298 C306 1.284 . S
Zn299 O298 1.899 1_455 S
Zn299 O300 2.032 . S
Zn299 O303 2.086 . S
Zn299 O308 1.977 . S
O300 Zn299 2.032 . S
O300 C304 1.278 . S
C301 O302 1.203 . S
C301 O308 1.267 . S
O302 C301 1.203 . S
O303 C296 1.185 . S
O303 Zn299 2.086 . S
C304 O300 1.278 . S
C304 O305 1.211 . S
O305 C304 1.211 . S
C306 O298 1.284 . S
C306 O307 1.273 . S
O307 C306 1.273 . S
O308 Zn299 1.977 . S
O308 C301 1.267 . S
C309 O310 1.160 . S
C309 O316 1.185 . S
O310 C309 1.160 . S
O311 Zn312 1.899 . S
O311 C319 1.284 . S
Zn312 O311 1.899 . S
Zn312 O313 2.032 . S
Zn312 O316 2.086 . S
Zn312 O321 1.977 . S
O313 Zn312 2.032 . S
O313 C317 1.278 . S
C314 O315 1.203 . S
C314 O321 1.267 . S
O315 C314 1.203 . S
O316 C309 1.185 . S
O316 Zn312 2.086 . S
C317 O313 1.278 . S
C317 O318 1.211 . S
O318 C317 1.211 . S
C319 O311 1.284 . S
C319 O320 1.273 . S
O320 C319 1.273 . S
O321 Zn312 1.977 . S
O321 C314 1.267 . S
C322 O323 1.160 1_455 S
C322 O329 1.185 . S
O323 C322 1.160 1_655 S
O324 Zn325 1.899 1_655 S
O324 C332 1.284 . S
Zn325 O324 1.899 1_455 S
Zn325 O326 2.032 . S
Zn325 O329 2.086 . S
Zn325 O334 1.977 . S
O326 Zn325 2.032 . S
O326 C330 1.278 . S
C327 O328 1.203 . S
C327 O334 1.267 . S
O328 C327 1.203 . S
O329 C322 1.185 . S
O329 Zn325 2.086 . S
C330 O326 1.278 . S
C330 O331 1.211 . S
O331 C330 1.211 . S
C332 O324 1.284 . S
C332 O333 1.273 . S
O333 C332 1.273 . S
O334 Zn325 1.977 . S
O334 C327 1.267 . S
C335 O336 1.160 . S
C335 O342 1.185 . S
O336 C335 1.160 . S
O337 Zn338 1.899 . S
O337 C345 1.284 . S
Zn338 O337 1.899 . S
Zn338 O339 2.032 . S
Zn338 O342 2.086 . S
Zn338 O347 1.977 . S
O339 Zn338 2.032 . S
O339 C343 1.278 . S
C340 O341 1.203 . S
C340 O347 1.267 . S
O341 C340 1.203 . S
O342 C335 1.185 . S
O342 Zn338 2.086 . S
C343 O339 1.278 . S
C343 O344 1.211 . S
O344 C343 1.211 . S
C345 O337 1.284 . S
C345 O346 1.273 . S
O346 C345 1.273 . S
O347 Zn338 1.977 . S
O347 C340 1.267 . S
C348 C349 1.363 . S
C348 C354 1.379 . S
C348 N356 1.356 . S
C349 C348 1.363 . S
C349 C355 1.363 . S
C350 C351 1.363 . S
C350 C355 1.379 . S
C350 N357 1.356 . S
C351 C350 1.363 . S
C351 C354 1.363 . S
N352 C354 1.356 . S
N352 H364 0.984 . S
N352 H365 0.985 . S
N353 C355 1.356 . S
N353 H358 0.984 . S
N353 H359 0.985 . S
C354 C348 1.379 . S
C354 C351 1.363 . S
C354 N352 1.356 . S
C355 C349 1.363 . S
C355 C350 1.379 . S
C355 N353 1.356 . S
N356 C348 1.356 . S
N356 H362 0.984 . S
N356 H363 0.984 . S
N357 C350 1.356 . S
N357 H360 0.984 . S
N357 H361 0.985 . S
H358 N353 0.984 . S
H359 N353 0.985 . S
H360 N357 0.984 . S
H361 N357 0.985 . S
H362 N356 0.984 . S
H363 N356 0.984 . S
H364 N352 0.984 . S
H365 N352 0.985 . S
C366 C367 1.363 . S
C366 C372 1.379 . S
C366 N374 1.356 . S
C367 C366 1.363 . S
C367 C373 1.363 . S
C368 C369 1.363 . S
C368 C373 1.379 . S
C368 N375 1.356 . S
C369 C368 1.363 . S
C369 C372 1.363 . S
N370 C372 1.356 . S
N370 H382 0.984 . S
N370 H383 0.985 . S
N371 C373 1.356 . S
N371 H376 0.984 1_455 S
N371 H377 0.985 1_455 S
C372 C366 1.379 . S
C372 C369 1.363 . S
C372 N370 1.356 . S
C373 C367 1.363 . S
C373 C368 1.379 . S
C373 N371 1.356 . S
N374 C366 1.356 . S
N374 H380 0.984 . S
N374 H381 0.984 . S
N375 C368 1.356 . S
N375 H378 0.984 . S
N375 H379 0.985 . S
H376 N371 0.984 1_655 S
H377 N371 0.985 1_655 S
H378 N375 0.984 . S
H379 N375 0.985 . S
H380 N374 0.984 . S
H381 N374 0.984 . S
H382 N370 0.984 . S
H383 N370 0.985 . S
C384 C385 1.363 . S
C384 C390 1.379 . S
C384 N392 1.356 . S
C385 C384 1.363 . S
C385 C391 1.363 . S
C386 C387 1.363 . S
C386 C391 1.379 . S
C386 N393 1.356 . S
C387 C386 1.363 . S
C387 C390 1.363 . S
N388 C390 1.356 . S
N388 H400 0.984 . S
N388 H401 0.985 . S
N389 C391 1.356 . S
N389 H394 0.984 . S
N389 H395 0.985 . S
C390 C384 1.379 . S
C390 C387 1.363 . S
C390 N388 1.356 . S
C391 C385 1.363 . S
C391 C386 1.379 . S
C391 N389 1.356 . S
N392 C384 1.356 . S
N392 H398 0.984 . S
N392 H399 0.984 . S
N393 C386 1.356 . S
N393 H396 0.984 . S
N393 H397 0.985 . S
H394 N389 0.984 . S
H395 N389 0.985 . S
H396 N393 0.984 . S
H397 N393 0.985 . S
H398 N392 0.984 . S
H399 N392 0.984 . S
H400 N388 0.984 . S
H401 N388 0.985 . S
C402 C403 1.363 . S
C402 C408 1.379 1_455 S
C402 N410 1.356 . S
C403 C402 1.363 . S
C403 C409 1.363 1_545 S
C404 C405 1.363 1_465 S
C404 C409 1.379 . S
C404 N411 1.356 . S
C405 C404 1.363 1_645 S
C405 C408 1.363 . S
N406 C408 1.356 . S
N406 H418 0.984 . S
N406 H419 0.985 . S
N407 C409 1.356 . S
N407 H412 0.984 . S
N407 H413 0.985 . S
C408 C402 1.379 1_655 S
C408 C405 1.363 . S
C408 N406 1.356 . S
C409 C403 1.363 1_565 S
C409 C404 1.379 . S
C409 N407 1.356 . S
N410 C402 1.356 . S
N410 H416 0.984 1_455 S
N410 H417 0.984 . S
N411 C404 1.356 . S
N411 H414 0.984 1_455 S
N411 H415 0.985 . S
H412 N407 0.984 . S
H413 N407 0.985 . S
H414 N411 0.984 1_655 S
H415 N411 0.985 . S
H416 N410 0.984 1_655 S
H417 N410 0.984 . S
H418 N406 0.984 . S
H419 N406 0.985 . S
C420 C421 1.363 . S
C420 C426 1.379 . S
C420 N428 1.356 . S
C421 C420 1.363 . S
C421 C427 1.363 . S
C422 C423 1.363 . S
C422 C427 1.379 . S
C422 N429 1.356 . S
C423 C422 1.363 . S
C423 C426 1.363 . S
N424 C426 1.356 . S
N424 H436 0.984 . S
N424 H437 0.985 . S
N425 C427 1.356 . S
N425 H430 0.984 . S
N425 H431 0.985 . S
C426 C420 1.379 . S
C426 C423 1.363 . S
C426 N424 1.356 . S
C427 C421 1.363 . S
C427 C422 1.379 . S
C427 N425 1.356 . S
N428 C420 1.356 . S
N428 H434 0.984 . S
N428 H435 0.984 . S
N429 C422 1.356 . S
N429 H432 0.984 . S
N429 H433 0.985 . S
H430 N425 0.984 . S
H431 N425 0.985 . S
H432 N429 0.984 . S
H433 N429 0.985 . S
H434 N428 0.984 . S
H435 N428 0.984 . S
H436 N424 0.984 . S
H437 N424 0.985 . S
C438 C439 1.363 . S
C438 C444 1.379 . S
C438 N446 1.356 . S
C439 C438 1.363 . S
C439 C445 1.363 . S
C440 C441 1.363 . S
C440 C445 1.379 . S
C440 N447 1.356 . S
C441 C440 1.363 . S
C441 C444 1.363 . S
N442 C444 1.356 . S
N442 H454 0.984 . S
N442 H455 0.985 . S
N443 C445 1.356 . S
N443 H448 0.984 . S
N443 H449 0.985 . S
C444 C438 1.379 . S
C444 C441 1.363 . S
C444 N442 1.356 . S
C445 C439 1.363 . S
C445 C440 1.379 . S
C445 N443 1.356 . S
N446 C438 1.356 . S
N446 H452 0.984 . S
N446 H453 0.984 . S
N447 C440 1.356 . S
N447 H450 0.984 . S
N447 H451 0.985 . S
H448 N443 0.984 . S
H449 N443 0.985 . S
H450 N447 0.984 . S
H451 N447 0.985 . S
H452 N446 0.984 . S
H453 N446 0.984 . S
H454 N442 0.984 . S
H455 N442 0.985 . S
C456 C457 1.363 . S
C456 C462 1.379 . S
C456 N464 1.356 . S
C457 C456 1.363 . S
C457 C463 1.363 . S
C458 C459 1.363 . S
C458 C463 1.379 . S
C458 N465 1.356 . S
C459 C458 1.363 . S
C459 C462 1.363 . S
N460 C462 1.356 . S
N460 H472 0.984 . S
N460 H473 0.985 . S
N461 C463 1.356 . S
N461 H466 0.984 . S
N461 H467 0.985 . S
C462 C456 1.379 . S
C462 C459 1.363 . S
C462 N460 1.356 . S
C463 C457 1.363 . S
C463 C458 1.379 . S
C463 N461 1.356 . S
N464 C456 1.356 . S
N464 H470 0.984 . S
N464 H471 0.984 . S
N465 C458 1.356 . S
N465 H468 0.984 . S
N465 H469 0.985 . S
H466 N461 0.984 . S
H467 N461 0.985 . S
H468 N465 0.984 . S
H469 N465 0.985 . S
H470 N464 0.984 . S
H471 N464 0.984 . S
H472 N460 0.984 . S
H473 N460 0.985 . S
C474 C475 1.363 . S
C474 C480 1.379 . S
C474 N482 1.356 . S
C475 C474 1.363 . S
C475 C481 1.363 1_565 S
C476 C477 1.363 1_545 S
C476 C481 1.379 . S
C476 N483 1.356 . S
C477 C476 1.363 1_565 S
C477 C480 1.363 . S
N478 C480 1.356 . S
N478 H490 0.984 . S
N478 H491 0.985 . S
N479 C481 1.356 . S
N479 H484 0.984 . S
N479 H485 0.985 . S
C480 C474 1.379 . S
C480 C477 1.363 . S
C480 N478 1.356 . S
C481 C475 1.363 1_545 S
C481 C476 1.379 . S
C481 N479 1.356 . S
N482 C474 1.356 . S
N482 H488 0.984 . S
N482 H489 0.984 . S
N483 C476 1.356 . S
N483 H486 0.984 . S
N483 H487 0.985 . S
H484 N479 0.984 . S
H485 N479 0.985 . S
H486 N483 0.984 . S
H487 N483 0.985 . S
H488 N482 0.984 . S
H489 N482 0.984 . S
H490 N478 0.984 . S
H491 N478 0.985 . S
C492 C493 1.363 . S
C492 C498 1.379 . S
C492 N500 1.356 . S
C493 C492 1.363 . S
C493 C499 1.363 . S
C494 C495 1.363 . S
C494 C499 1.379 . S
C494 N501 1.356 . S
C495 C494 1.363 . S
C495 C498 1.363 . S
N496 C498 1.356 . S
N496 H508 0.984 . S
N496 H509 0.985 . S
N497 C499 1.356 . S
N497 H502 0.984 . S
N497 H503 0.985 . S
C498 C492 1.379 . S
C498 C495 1.363 . S
C498 N496 1.356 . S
C499 C493 1.363 . S
C499 C494 1.379 . S
C499 N497 1.356 . S
N500 C492 1.356 . S
N500 H506 0.984 . S
N500 H507 0.984 . S
N501 C494 1.356 . S
N501 H504 0.984 . S
N501 H505 0.985 . S
H502 N497 0.984 . S
H503 N497 0.985 . S
H504 N501 0.984 . S
H505 N501 0.985 . S
H506 N500 0.984 . S
H507 N500 0.984 . S
H508 N496 0.984 . S
H509 N496 0.985 . S
C510 C511 1.363 . S
C510 C516 1.379 . S
C510 N518 1.356 . S
C511 C510 1.363 . S
C511 C517 1.363 . S
C512 C513 1.363 . S
C512 C517 1.379 . S
C512 N519 1.356 . S
C513 C512 1.363 . S
C513 C516 1.363 . S
N514 C516 1.356 . S
N514 H526 0.984 . S
N514 H527 0.985 . S
N515 C517 1.356 . S
N515 H520 0.984 . S
N515 H521 0.985 . S
C516 C510 1.379 . S
C516 C513 1.363 . S
C516 N514 1.356 . S
C517 C511 1.363 . S
C517 C512 1.379 . S
C517 N515 1.356 . S
N518 C510 1.356 . S
N518 H524 0.984 . S
N518 H525 0.984 . S
N519 C512 1.356 . S
N519 H522 0.984 . S
N519 H523 0.985 . S
H520 N515 0.984 . S
H521 N515 0.985 . S
H522 N519 0.984 . S
H523 N519 0.985 . S
H524 N518 0.984 . S
H525 N518 0.984 . S
H526 N514 0.984 . S
H527 N514 0.985 . S
C528 C529 1.363 . S
C528 C534 1.379 . S
C528 N536 1.356 . S
C529 C528 1.363 . S
C529 C535 1.363 . S
C530 C531 1.363 . S
C530 C535 1.379 . S
C530 N537 1.356 . S
C531 C530 1.363 . S
C531 C534 1.363 . S
N532 C534 1.356 . S
N532 H544 0.984 . S
N532 H545 0.985 . S
N533 C535 1.356 . S
N533 H538 0.984 . S
N533 H539 0.985 . S
C534 C528 1.379 . S
C534 C531 1.363 . S
C534 N532 1.356 . S
C535 C529 1.363 . S
C535 C530 1.379 . S
C535 N533 1.356 . S
N536 C528 1.356 . S
N536 H542 0.984 . S
N536 H543 0.984 . S
N537 C530 1.356 . S
N537 H540 0.984 . S
N537 H541 0.985 . S
H538 N533 0.984 . S
H539 N533 0.985 . S
H540 N537 0.984 . S
H541 N537 0.985 . S
H542 N536 0.984 . S
H543 N536 0.984 . S
H544 N532 0.984 . S
H545 N532 0.985 . S
C546 C547 1.363 . S
C546 C552 1.379 . S
C546 N554 1.356 . S
C547 C546 1.363 . S
C547 C553 1.363 . S
C548 C549 1.363 . S
C548 C553 1.379 . S
C548 N555 1.356 . S
C549 C548 1.363 . S
C549 C552 1.363 . S
N550 C552 1.356 . S
N550 H562 0.984 . S
N550 H563 0.985 . S
N551 C553 1.356 . S
N551 H556 0.984 . S
N551 H557 0.985 . S
C552 C546 1.379 . S
C552 C549 1.363 . S
C552 N550 1.356 . S
C553 C547 1.363 . S
C553 C548 1.379 . S
C553 N551 1.356 . S
N554 C546 1.356 . S
N554 H560 0.984 . S
N554 H561 0.984 . S
N555 C548 1.356 . S
N555 H558 0.984 . S
N555 H559 0.985 . S
H556 N551 0.984 . S
H557 N551 0.985 . S
H558 N555 0.984 . S
H559 N555 0.985 . S
H560 N554 0.984 . S
H561 N554 0.984 . S
H562 N550 0.984 . S
H563 N550 0.985 . S
C564 C565 1.363 . S
C564 C570 1.379 . S
C564 N572 1.356 . S
C565 C564 1.363 . S
C565 C571 1.363 . S
C566 C567 1.363 . S
C566 C571 1.379 . S
C566 N573 1.356 . S
C567 C566 1.363 . S
C567 C570 1.363 . S
N568 C570 1.356 . S
N568 H580 0.984 . S
N568 H581 0.985 . S
N569 C571 1.356 . S
N569 H574 0.984 . S
N569 H575 0.985 . S
C570 C564 1.379 . S
C570 C567 1.363 . S
C570 N568 1.356 . S
C571 C565 1.363 . S
C571 C566 1.379 . S
C571 N569 1.356 . S
N572 C564 1.356 . S
N572 H578 0.984 . S
N572 H579 0.984 . S
N573 C566 1.356 . S
N573 H576 0.984 . S
N573 H577 0.985 . S
H574 N569 0.984 . S
H575 N569 0.985 . S
H576 N573 0.984 . S
H577 N573 0.985 . S
H578 N572 0.984 . S
H579 N572 0.984 . S
H580 N568 0.984 . S
H581 N568 0.985 . S
C582 C583 1.363 . S
C582 C588 1.379 . S
C582 N590 1.356 . S
C583 C582 1.363 . S
C583 C589 1.363 . S
C584 C585 1.363 . S
C584 C589 1.379 . S
C584 N591 1.356 . S
C585 C584 1.363 . S
C585 C588 1.363 . S
N586 C588 1.356 1_655 S
N586 H598 0.984 . S
N586 H599 0.985 . S
N587 C589 1.356 . S
N587 H592 0.984 . S
N587 H593 0.985 . S
C588 C582 1.379 . S
C588 C585 1.363 . S
C588 N586 1.356 1_455 S
C589 C583 1.363 . S
C589 C584 1.379 . S
C589 N587 1.356 . S
N590 C582 1.356 . S
N590 H596 0.984 1_455 S
N590 H597 0.984 . S
N591 C584 1.356 . S
N591 H594 0.984 . S
N591 H595 0.985 . S
H592 N587 0.984 . S
H593 N587 0.985 . S
H594 N591 0.984 . S
H595 N591 0.985 . S
H596 N590 0.984 1_655 S
H597 N590 0.984 . S
H598 N586 0.984 . S
H599 N586 0.985 . S
C600 C601 1.363 . S
C600 C606 1.379 . S
C600 N608 1.356 . S
C601 C600 1.363 . S
C601 C607 1.363 . S
C602 C603 1.363 . S
C602 C607 1.379 . S
C602 N609 1.356 . S
C603 C602 1.363 . S
C603 C606 1.363 . S
N604 C606 1.356 . S
N604 H616 0.984 . S
N604 H617 0.985 . S
N605 C607 1.356 . S
N605 H610 0.984 . S
N605 H611 0.985 . S
C606 C600 1.379 . S
C606 C603 1.363 . S
C606 N604 1.356 . S
C607 C601 1.363 . S
C607 C602 1.379 . S
C607 N605 1.356 . S
N608 C600 1.356 . S
N608 H614 0.984 . S
N608 H615 0.984 . S
N609 C602 1.356 . S
N609 H612 0.984 . S
N609 H613 0.985 . S
H610 N605 0.984 . S
H611 N605 0.985 . S
H612 N609 0.984 . S
H613 N609 0.985 . S
H614 N608 0.984 . S
H615 N608 0.984 . S
H616 N604 0.984 . S
H617 N604 0.985 . S
C618 C619 1.363 . S
C618 C624 1.379 . S
C618 N626 1.356 . S
C619 C618 1.363 . S
C619 C625 1.363 1_655 S
C620 C621 1.363 1_455 S
C620 C625 1.379 . S
C620 N627 1.356 . S
C621 C620 1.363 1_655 S
C621 C624 1.363 . S
N622 C624 1.356 . S
N622 H634 0.984 . S
N622 H635 0.985 . S
N623 C625 1.356 . S
N623 H628 0.984 . S
N623 H629 0.985 . S
C624 C618 1.379 . S
C624 C621 1.363 . S
C624 N622 1.356 . S
C625 C619 1.363 1_455 S
C625 C620 1.379 . S
C625 N623 1.356 . S
N626 C618 1.356 . S
N626 H632 0.984 . S
N626 H633 0.984 . S
N627 C620 1.356 . S
N627 H630 0.984 . S
N627 H631 0.985 . S
H628 N623 0.984 . S
H629 N623 0.985 . S
H630 N627 0.984 . S
H631 N627 0.985 . S
H632 N626 0.984 . S
H633 N626 0.984 . S
H634 N622 0.984 . S
H635 N622 0.985 . S
C636 C637 1.363 . S
C636 C642 1.379 . S
C636 N644 1.356 . S
C637 C636 1.363 . S
C637 C643 1.363 . S
C638 C639 1.363 . S
C638 C643 1.379 . S
C638 N645 1.356 . S
C639 C638 1.363 . S
C639 C642 1.363 . S
N640 C642 1.356 . S
N640 H652 0.984 . S
N640 H653 0.985 . S
N641 C643 1.356 . S
N641 H646 0.984 . S
N641 H647 0.985 . S
C642 C636 1.379 . S
C642 C639 1.363 . S
C642 N640 1.356 . S
C643 C637 1.363 . S
C643 C638 1.379 . S
C643 N641 1.356 . S
N644 C636 1.356 . S
N644 H650 0.984 . S
N644 H651 0.984 . S
N645 C638 1.356 . S
N645 H648 0.984 1_565 S
N645 H649 0.985 1_565 S
H646 N641 0.984 . S
H647 N641 0.985 . S
H648 N645 0.984 1_545 S
H649 N645 0.985 1_545 S
H650 N644 0.984 . S
H651 N644 0.984 . S
H652 N640 0.984 . S
H653 N640 0.985 . S
C654 C655 1.363 . S
C654 C660 1.379 . S
C654 N662 1.356 . S
C655 C654 1.363 . S
C655 C661 1.363 . S
C656 C657 1.363 . S
C656 C661 1.379 . S
C656 N663 1.356 . S
C657 C656 1.363 . S
C657 C660 1.363 . S
N658 C660 1.356 . S
N658 H670 0.984 . S
N658 H671 0.985 . S
N659 C661 1.356 . S
N659 H664 0.984 . S
N659 H665 0.985 . S
C660 C654 1.379 . S
C660 C657 1.363 . S
C660 N658 1.356 . S
C661 C655 1.363 . S
C661 C656 1.379 . S
C661 N659 1.356 . S
N662 C654 1.356 . S
N662 H668 0.984 . S
N662 H669 0.984 . S
N663 C656 1.356 . S
N663 H666 0.984 . S
N663 H667 0.985 . S
H664 N659 0.984 . S
H665 N659 0.985 . S
H666 N663 0.984 . S
H667 N663 0.985 . S
H668 N662 0.984 . S
H669 N662 0.984 . S
H670 N658 0.984 . S
H671 N658 0.985 . S
C672 C673 1.365 1_554 S
C672 C678 1.394 . S
C672 N680 1.337 1_565 S
C673 C672 1.365 1_556 S
C673 C679 1.363 . S
C674 C675 1.363 1_556 S
C674 C679 1.379 . S
C674 N681 1.356 . S
C675 C674 1.363 1_554 S
C675 C678 1.363 . S
N676 C678 1.356 . S
N676 H688 0.984 . S
N676 H689 0.985 . S
N677 C679 1.356 . S
N677 H682 0.984 . S
N677 H683 0.985 . S
C678 C672 1.394 . S
C678 C675 1.363 . S
C678 N676 1.356 . S
C679 C673 1.363 . S
C679 C674 1.379 . S
C679 N677 1.356 . S
N680 C672 1.337 1_545 S
N680 H686 0.984 . S
N680 H687 0.984 . S
N681 C674 1.356 . S
N681 H684 0.984 . S
N681 H685 0.985 . S
H682 N677 0.984 . S
H683 N677 0.985 . S
H684 N681 0.984 . S
H685 N681 0.985 . S
H686 N680 0.984 . S
H687 N680 0.984 . S
H688 N676 0.984 . S
H689 N676 0.985 . S
C690 C691 1.363 . S
C690 C696 1.379 . S
C690 N698 1.356 . S
C691 C690 1.363 . S
C691 C697 1.363 . S
C692 C693 1.363 . S
C692 C697 1.379 . S
C692 N699 1.356 . S
C693 C692 1.363 . S
C693 C696 1.363 . S
N694 C696 1.356 . S
N694 H706 0.984 . S
N694 H707 0.985 . S
N695 C697 1.356 . S
N695 H700 0.984 . S
N695 H701 0.985 . S
C696 C690 1.379 . S
C696 C693 1.363 . S
C696 N694 1.356 . S
C697 C691 1.363 . S
C697 C692 1.379 . S
C697 N695 1.356 . S
N698 C690 1.356 . S
N698 H704 0.984 . S
N698 H705 0.984 . S
N699 C692 1.356 . S
N699 H702 0.984 . S
N699 H703 0.985 . S
H700 N695 0.984 . S
H701 N695 0.985 . S
H702 N699 0.984 . S
H703 N699 0.985 . S
H704 N698 0.984 . S
H705 N698 0.984 . S
H706 N694 0.984 . S
H707 N694 0.985 . S
C708 C709 1.363 . S
C708 C714 1.379 . S
C708 N716 1.356 . S
C709 C708 1.363 . S
C709 C715 1.363 . S
C710 C711 1.363 . S
C710 C715 1.379 . S
C710 N717 1.356 . S
C711 C710 1.363 . S
C711 C714 1.363 . S
N712 C714 1.356 . S
N712 H724 0.984 . S
N712 H725 0.985 . S
N713 C715 1.356 . S
N713 H718 0.984 . S
N713 H719 0.985 . S
C714 C708 1.379 . S
C714 C711 1.363 . S
C714 N712 1.356 . S
C715 C709 1.363 . S
C715 C710 1.379 . S
C715 N713 1.356 . S
N716 C708 1.356 . S
N716 H722 0.984 . S
N716 H723 0.984 . S
N717 C710 1.356 . S
N717 H720 0.984 . S
N717 H721 0.985 . S
H718 N713 0.984 . S
H719 N713 0.985 . S
H720 N717 0.984 . S
H721 N717 0.985 . S
H722 N716 0.984 . S
H723 N716 0.984 . S
H724 N712 0.984 . S
H725 N712 0.985 . S
C726 C727 1.363 . S
C726 C732 1.379 . S
C726 N734 1.356 . S
C727 C726 1.363 . S
C727 C733 1.363 . S
C728 C729 1.363 . S
C728 C733 1.379 . S
C728 N735 1.356 . S
C729 C728 1.363 . S
C729 C732 1.363 . S
N730 C732 1.356 . S
N730 H742 0.984 . S
N730 H743 0.985 . S
N731 C733 1.356 . S
N731 H736 0.984 . S
N731 H737 0.985 . S
C732 C726 1.379 . S
C732 C729 1.363 . S
C732 N730 1.356 . S
C733 C727 1.363 . S
C733 C728 1.379 . S
C733 N731 1.356 . S
N734 C726 1.356 . S
N734 H740 0.984 . S
N734 H741 0.984 . S
N735 C728 1.356 . S
N735 H738 0.984 . S
N735 H739 0.985 . S
H736 N731 0.984 . S
H737 N731 0.985 . S
H738 N735 0.984 . S
H739 N735 0.985 . S
H740 N734 0.984 . S
H741 N734 0.984 . S
H742 N730 0.984 . S
H743 N730 0.985 . S
C744 C745 1.363 . S
C744 C750 1.379 . S
C744 N752 1.356 . S
C745 C744 1.363 . S
C745 C751 1.363 . S
C746 C747 1.363 . S
C746 C751 1.379 . S
C746 N753 1.356 . S
C747 C746 1.363 . S
C747 C750 1.363 . S
N748 C750 1.356 . S
N748 H760 0.984 . S
N748 H761 0.985 . S
N749 C751 1.356 . S
N749 H754 0.984 . S
N749 H755 0.985 . S
C750 C744 1.379 . S
C750 C747 1.363 . S
C750 N748 1.356 . S
C751 C745 1.363 . S
C751 C746 1.379 . S
C751 N749 1.356 . S
N752 C744 1.356 . S
N752 H758 0.984 . S
N752 H759 0.984 . S
N753 C746 1.356 . S
N753 H756 0.984 . S
N753 H757 0.985 . S
H754 N749 0.984 . S
H755 N749 0.985 . S
H756 N753 0.984 . S
H757 N753 0.985 . S
H758 N752 0.984 . S
H759 N752 0.984 . S
H760 N748 0.984 . S
H761 N748 0.985 . S
C762 C763 1.363 . S
C762 C768 1.379 . S
C762 N770 1.356 . S
C763 C762 1.363 . S
C763 C769 1.363 . S
C764 C765 1.363 . S
C764 C769 1.379 . S
C764 N771 1.356 . S
C765 C764 1.363 . S
C765 C768 1.363 . S
N766 C768 1.356 . S
N766 H778 0.984 . S
N766 H779 0.985 . S
N767 C769 1.356 . S
N767 H772 0.984 . S
N767 H773 0.985 . S
C768 C762 1.379 . S
C768 C765 1.363 . S
C768 N766 1.356 . S
C769 C763 1.363 . S
C769 C764 1.379 . S
C769 N767 1.356 . S
N770 C762 1.356 . S
N770 H776 0.984 . S
N770 H777 0.984 . S
N771 C764 1.356 . S
N771 H774 0.984 . S
N771 H775 0.985 . S
H772 N767 0.984 . S
H773 N767 0.985 . S
H774 N771 0.984 . S
H775 N771 0.985 . S
H776 N770 0.984 . S
H777 N770 0.984 . S
H778 N766 0.984 . S
H779 N766 0.985 . S
C780 C781 1.363 . S
C780 C786 1.379 . S
C780 N788 1.356 . S
C781 C780 1.363 . S
C781 C787 1.363 . S
C782 C783 1.363 . S
C782 C787 1.379 . S
C782 N789 1.356 . S
C783 C782 1.363 . S
C783 C786 1.363 . S
N784 C786 1.356 . S
N784 H796 0.984 . S
N784 H797 0.985 . S
N785 C787 1.356 . S
N785 H790 0.984 . S
N785 H791 0.985 . S
C786 C780 1.379 . S
C786 C783 1.363 . S
C786 N784 1.356 . S
C787 C781 1.363 . S
C787 C782 1.379 . S
C787 N785 1.356 . S
N788 C780 1.356 . S
N788 H794 0.984 . S
N788 H795 0.984 . S
N789 C782 1.356 . S
N789 H792 0.984 . S
N789 H793 0.985 . S
H790 N785 0.984 . S
H791 N785 0.985 . S
H792 N789 0.984 . S
H793 N789 0.985 . S
H794 N788 0.984 . S
H795 N788 0.984 . S
H796 N784 0.984 . S
H797 N784 0.985 . S
C798 C799 1.363 . S
C798 C804 1.379 . S
C798 N806 1.356 . S
C799 C798 1.363 . S
C799 C805 1.363 1_545 S
C800 C801 1.363 1_565 S
C800 C805 1.379 . S
C800 N807 1.356 . S
C801 C800 1.363 1_545 S
C801 C804 1.363 . S
N802 C804 1.356 . S
N802 H814 0.984 . S
N802 H815 0.985 . S
N803 C805 1.356 . S
N803 H808 0.984 . S
N803 H809 0.985 . S
C804 C798 1.379 . S
C804 C801 1.363 . S
C804 N802 1.356 . S
C805 C799 1.363 1_565 S
C805 C800 1.379 . S
C805 N803 1.356 . S
N806 C798 1.356 . S
N806 H812 0.984 . S
N806 H813 0.984 . S
N807 C800 1.356 . S
N807 H810 0.984 . S
N807 H811 0.985 . S
H808 N803 0.984 . S
H809 N803 0.985 . S
H810 N807 0.984 . S
H811 N807 0.985 . S
H812 N806 0.984 . S
H813 N806 0.984 . S
H814 N802 0.984 . S
H815 N802 0.985 . S
C816 C817 1.363 . S
C816 C822 1.379 . S
C816 N824 1.356 . S
C817 C816 1.363 . S
C817 C823 1.363 . S
C818 C819 1.363 . S
C818 C823 1.379 . S
C818 N825 1.356 . S
C819 C818 1.363 . S
C819 C822 1.363 . S
N820 C822 1.356 . S
N820 H832 0.984 . S
N820 H833 0.985 . S
N821 C823 1.356 . S
N821 H826 0.984 . S
N821 H827 0.985 . S
C822 C816 1.379 . S
C822 C819 1.363 . S
C822 N820 1.356 . S
C823 C817 1.363 . S
C823 C818 1.379 . S
C823 N821 1.356 . S
N824 C816 1.356 . S
N824 H830 0.984 . S
N824 H831 0.984 . S
N825 C818 1.356 . S
N825 H828 0.984 . S
N825 H829 0.985 . S
H826 N821 0.984 . S
H827 N821 0.985 . S
H828 N825 0.984 . S
H829 N825 0.985 . S
H830 N824 0.984 . S
H831 N824 0.984 . S
H832 N820 0.984 . S
H833 N820 0.985 . S
C834 C835 1.363 . S
C834 C840 1.379 . S
C834 N842 1.356 . S
C835 C834 1.363 . S
C835 C841 1.363 . S
C836 C837 1.363 . S
C836 C841 1.379 . S
C836 N843 1.356 . S
C837 C836 1.363 . S
C837 C840 1.363 . S
N838 C840 1.356 . S
N838 H850 0.984 . S
N838 H851 0.985 . S
N839 C841 1.356 . S
N839 H844 0.984 . S
N839 H845 0.985 . S
C840 C834 1.379 . S
C840 C837 1.363 . S
C840 N838 1.356 . S
C841 C835 1.363 . S
C841 C836 1.379 . S
C841 N839 1.356 . S
N842 C834 1.356 . S
N842 H848 0.984 . S
N842 H849 0.984 . S
N843 C836 1.356 . S
N843 H846 0.984 . S
N843 H847 0.985 . S
H844 N839 0.984 . S
H845 N839 0.985 . S
H846 N843 0.984 . S
H847 N843 0.985 . S
H848 N842 0.984 . S
H849 N842 0.984 . S
H850 N838 0.984 . S
H851 N838 0.985 . S
C852 C853 1.363 . S
C852 C858 1.379 . S
C852 N860 1.356 . S
C853 C852 1.363 . S
C853 C859 1.363 . S
C854 C855 1.363 . S
C854 C859 1.379 . S
C854 N861 1.356 . S
C855 C854 1.363 . S
C855 C858 1.363 . S
N856 C858 1.356 . S
N856 H868 0.984 . S
N856 H869 0.985 . S
N857 C859 1.356 . S
N857 H862 0.984 . S
N857 H863 0.985 . S
C858 C852 1.379 . S
C858 C855 1.363 . S
C858 N856 1.356 . S
C859 C853 1.363 . S
C859 C854 1.379 . S
C859 N857 1.356 . S
N860 C852 1.356 . S
N860 H866 0.984 . S
N860 H867 0.984 . S
N861 C854 1.356 . S
N861 H864 0.984 . S
N861 H865 0.985 . S
H862 N857 0.984 . S
H863 N857 0.985 . S
H864 N861 0.984 . S
H865 N861 0.985 . S
H866 N860 0.984 . S
H867 N860 0.984 . S
H868 N856 0.984 . S
H869 N856 0.985 . S
C870 C871 1.363 . S
C870 C876 1.365 1_455 S
C870 N878 1.356 . S
C871 C870 1.363 . S
C871 C877 1.363 . S
C872 C873 1.363 1_455 S
C872 C877 1.379 . S
C872 N879 1.356 1_445 S
C873 C872 1.363 1_655 S
C873 C876 1.368 . S
N874 C876 1.370 . S
N874 H886 0.984 . S
N874 H887 0.985 . S
N875 C877 1.356 1_565 S
N875 H880 0.984 . S
N875 H881 0.985 . S
C876 C870 1.365 1_655 S
C876 C873 1.368 . S
C876 N874 1.370 . S
C877 C871 1.363 . S
C877 C872 1.379 . S
C877 N875 1.356 1_545 S
N878 C870 1.356 . S
N878 H884 0.984 . S
N878 H885 0.984 . S
N879 C872 1.356 1_665 S
N879 H882 0.984 . S
N879 H883 0.985 . S
H880 N875 0.984 . S
H881 N875 0.985 . S
H882 N879 0.984 . S
H883 N879 0.985 . S
H884 N878 0.984 . S
H885 N878 0.984 . S
H886 N874 0.984 . S
H887 N874 0.985 . S
C888 C889 1.363 . S
C888 C894 1.379 . S
C888 N896 1.356 . S
C889 C888 1.363 . S
C889 C895 1.363 . S
C890 C891 1.363 . S
C890 C895 1.379 . S
C890 N897 1.356 . S
C891 C890 1.363 . S
C891 C894 1.363 . S
N892 C894 1.356 . S
N892 H904 0.984 . S
N892 H905 0.985 . S
N893 C895 1.356 . S
N893 H898 0.984 . S
N893 H899 0.985 . S
C894 C888 1.379 . S
C894 C891 1.363 . S
C894 N892 1.356 . S
C895 C889 1.363 . S
C895 C890 1.379 . S
C895 N893 1.356 . S
N896 C888 1.356 . S
N896 H902 0.984 . S
N896 H903 0.984 . S
N897 C890 1.356 . S
N897 H900 0.984 . S
N897 H901 0.985 . S
H898 N893 0.984 . S
H899 N893 0.985 . S
H900 N897 0.984 . S
H901 N897 0.985 . S
H902 N896 0.984 . S
H903 N896 0.984 . S
H904 N892 0.984 . S
H905 N892 0.985 . S
C906 C907 1.363 . S
C906 C912 1.379 . S
C906 N914 1.356 . S
C907 C906 1.363 . S
C907 C913 1.363 . S
C908 C909 1.363 . S
C908 C913 1.379 . S
C908 N915 1.356 . S
C909 C908 1.363 . S
C909 C912 1.363 . S
N910 C912 1.356 . S
N910 H922 0.984 . S
N910 H923 0.985 . S
N911 C913 1.356 1_655 S
N911 H916 0.984 . S
N911 H917 0.985 . S
C912 C906 1.379 . S
C912 C909 1.363 . S
C912 N910 1.356 . S
C913 C907 1.363 . S
C913 C908 1.379 . S
C913 N911 1.356 1_455 S
N914 C906 1.356 . S
N914 H920 0.984 . S
N914 H921 0.984 . S
N915 C908 1.356 . S
N915 H918 0.984 . S
N915 H919 0.985 . S
H916 N911 0.984 . S
H917 N911 0.985 . S
H918 N915 0.984 . S
H919 N915 0.985 . S
H920 N914 0.984 . S
H921 N914 0.984 . S
H922 N910 0.984 . S
H923 N910 0.985 . S
C924 C925 1.363 . S
C924 C930 1.379 . S
C924 N932 1.356 . S
C925 C924 1.363 . S
C925 C931 1.363 . S
C926 C927 1.363 . S
C926 C931 1.379 . S
C926 N933 1.356 . S
C927 C926 1.363 . S
C927 C930 1.363 . S
N928 C930 1.356 . S
N928 H940 0.984 . S
N928 H941 0.985 . S
N929 C931 1.356 . S
N929 H934 0.984 . S
N929 H935 0.985 . S
C930 C924 1.379 . S
C930 C927 1.363 . S
C930 N928 1.356 . S
C931 C925 1.363 . S
C931 C926 1.379 . S
C931 N929 1.356 . S
N932 C924 1.356 . S
N932 H938 0.984 . S
N932 H939 0.984 . S
N933 C926 1.356 . S
N933 H936 0.984 . S
N933 H937 0.985 . S
H934 N929 0.984 . S
H935 N929 0.985 . S
H936 N933 0.984 . S
H937 N933 0.985 . S
H938 N932 0.984 . S
H939 N932 0.984 . S
H940 N928 0.984 . S
H941 N928 0.985 . S
C942 C943 1.363 1_455 S
C942 C948 1.379 . S
C942 N950 1.356 . S
C943 C942 1.363 1_655 S
C943 C949 1.363 . S
C944 C945 1.363 . S
C944 C949 1.379 . S
C944 N951 1.356 . S
C945 C944 1.363 . S
C945 C948 1.363 1_655 S
N946 C948 1.356 . S
N946 H958 0.984 . S
N946 H959 0.985 . S
N947 C949 1.356 . S
N947 H952 0.984 1_556 S
N947 H953 0.985 . S
C948 C942 1.379 . S
C948 C945 1.363 1_455 S
C948 N946 1.356 . S
C949 C943 1.363 . S
C949 C944 1.379 . S
C949 N947 1.356 . S
N950 C942 1.356 . S
N950 H956 0.984 . S
N950 H957 0.984 . S
N951 C944 1.356 . S
N951 H954 0.984 . S
N951 H955 0.985 . S
H952 N947 0.984 1_554 S
H953 N947 0.985 . S
H954 N951 0.984 . S
H955 N951 0.985 . S
H956 N950 0.984 . S
H957 N950 0.984 . S
H958 N946 0.984 . S
H959 N946 0.985 . S
C960 C961 1.363 . S
C960 C966 1.379 . S
C960 N968 1.356 . S
C961 C960 1.363 . S
C961 C967 1.363 . S
C962 C963 1.363 . S
C962 C967 1.379 . S
C962 N969 1.356 . S
C963 C962 1.363 . S
C963 C966 1.363 . S
N964 C966 1.356 . S
N964 H976 0.984 . S
N964 H977 0.985 . S
N965 C967 1.356 . S
N965 H970 0.984 . S
N965 H971 0.985 . S
C966 C960 1.379 . S
C966 C963 1.363 . S
C966 N964 1.356 . S
C967 C961 1.363 . S
C967 C962 1.379 . S
C967 N965 1.356 . S
N968 C960 1.356 . S
N968 H974 0.984 . S
N968 H975 0.984 . S
N969 C962 1.356 . S
N969 H972 0.984 . S
N969 H973 0.985 . S
H970 N965 0.984 . S
H971 N965 0.985 . S
H972 N969 0.984 . S
H973 N969 0.985 . S
H974 N968 0.984 . S
H975 N968 0.984 . S
H976 N964 0.984 . S
H977 N964 0.985 . S
C978 C979 1.363 . S
C978 C984 1.379 . S
C978 N986 1.345 1_456 S
C979 C978 1.363 . S
C979 C985 1.363 . S
C980 C981 1.363 . S
C980 C985 1.379 . S
C980 N987 1.356 . S
C981 C980 1.363 . S
C981 C984 1.363 . S
N982 C984 1.356 1_655 S
N982 H994 0.984 . S
N982 H995 0.985 . S
N983 C985 1.356 . S
N983 H988 0.984 . S
N983 H989 0.985 . S
C984 C978 1.379 . S
C984 C981 1.363 . S
C984 N982 1.356 1_455 S
C985 C979 1.363 . S
C985 C980 1.379 . S
C985 N983 1.356 . S
N986 C978 1.345 1_654 S
N986 H992 1.011 . S
N986 H993 0.971 1_655 S
N987 C980 1.356 . S
N987 H990 0.984 . S
N987 H991 0.985 . S
H988 N983 0.984 . S
H989 N983 0.985 . S
H990 N987 0.984 . S
H991 N987 0.985 . S
H992 N986 1.011 . S
H993 N986 0.971 1_455 S
H994 N982 0.984 . S
H995 N982 0.985 . S
C996 C997 1.363 . S
C996 C1002 1.379 . S
C996 N1004 1.356 . S
C997 C996 1.363 . S
C997 C1003 1.363 . S
C998 C999 1.363 . S
C998 C1003 1.379 . S
C998 N1005 1.356 . S
C999 C998 1.363 . S
C999 C1002 1.363 . S
N1000 C1002 1.356 . S
N1000 H1012 0.984 . S
N1000 H1013 0.985 . S
N1001 C1003 1.356 . S
N1001 H1006 0.984 . S
N1001 H1007 0.985 . S
C1002 C996 1.379 . S
C1002 C999 1.363 . S
C1002 N1000 1.356 . S
C1003 C997 1.363 . S
C1003 C998 1.379 . S
C1003 N1001 1.356 . S
N1004 C996 1.356 . S
N1004 H1010 0.984 . S
N1004 H1011 0.984 . S
N1005 C998 1.356 . S
N1005 H1008 0.984 . S
N1005 H1009 0.985 . S
H1006 N1001 0.984 . S
H1007 N1001 0.985 . S
H1008 N1005 0.984 . S
H1009 N1005 0.985 . S
H1010 N1004 0.984 . S
H1011 N1004 0.984 . S
H1012 N1000 0.984 . S
H1013 N1000 0.985 . S
C1014 C1015 1.363 . S
C1014 C1020 1.379 . S
C1014 N1022 1.356 1_554 S
C1015 C1014 1.363 . S
C1015 C1021 1.363 . S
C1016 C1017 1.363 . S
C1016 C1021 1.379 . S
C1016 N1023 1.356 . S
C1017 C1016 1.363 . S
C1017 C1020 1.363 . S
N1018 C1020 1.356 . S
N1018 H1030 0.984 . S
N1018 H1031 0.985 . S
N1019 C1021 1.356 . S
N1019 H1024 0.984 . S
N1019 H1025 0.985 . S
C1020 C1014 1.379 . S
C1020 C1017 1.363 . S
C1020 N1018 1.356 . S
C1021 C1015 1.363 . S
C1021 C1016 1.379 . S
C1021 N1019 1.356 . S
N1022 C1014 1.356 1_556 S
N1022 H1028 0.984 . S
N1022 H1029 0.984 . S
N1023 C1016 1.356 . S
N1023 H1026 0.984 . S
N1023 H1027 0.985 . S
H1024 N1019 0.984 . S
H1025 N1019 0.985 . S
H1026 N1023 0.984 . S
H1027 N1023 0.985 . S
H1028 N1022 0.984 . S
H1029 N1022 0.984 . S
H1030 N1018 0.984 . S
H1031 N1018 0.985 . S
C1032 C1033 1.363 . S
C1032 C1038 1.379 . S
C1032 N1040 1.356 . S
C1033 C1032 1.363 . S
C1033 C1039 1.363 . S
C1034 C1035 1.363 . S
C1034 C1039 1.379 . S
C1034 N1041 1.356 . S
C1035 C1034 1.363 . S
C1035 C1038 1.363 . S
N1036 C1038 1.356 . S
N1036 H1048 0.984 . S
N1036 H1049 0.985 . S
N1037 C1039 1.356 . S
N1037 H1042 0.984 . S
N1037 H1043 0.985 . S
C1038 C1032 1.379 . S
C1038 C1035 1.363 . S
C1038 N1036 1.356 . S
C1039 C1033 1.363 . S
C1039 C1034 1.379 . S
C1039 N1037 1.356 . S
N1040 C1032 1.356 . S
N1040 H1046 0.984 . S
N1040 H1047 0.984 . S
N1041 C1034 1.356 . S
N1041 H1044 0.984 . S
N1041 H1045 0.985 . S
H1042 N1037 0.984 . S
H1043 N1037 0.985 . S
H1044 N1041 0.984 . S
H1045 N1041 0.985 . S
H1046 N1040 0.984 . S
H1047 N1040 0.984 . S
H1048 N1036 0.984 . S
H1049 N1036 0.985 . S
C1050 C1051 1.363 . S
C1050 C1056 1.379 . S
C1050 N1058 1.356 1_554 S
C1051 C1050 1.363 . S
C1051 C1057 1.363 . S
C1052 C1053 1.363 . S
C1052 C1057 1.379 . S
C1052 N1059 1.356 . S
C1053 C1052 1.363 . S
C1053 C1056 1.363 . S
N1054 C1056 1.356 . S
N1054 H1066 0.984 . S
N1054 H1067 0.985 . S
N1055 C1057 1.356 . S
N1055 H1060 0.984 . S
N1055 H1061 0.985 . S
C1056 C1050 1.379 . S
C1056 C1053 1.363 . S
C1056 N1054 1.356 . S
C1057 C1051 1.363 . S
C1057 C1052 1.379 . S
C1057 N1055 1.356 . S
N1058 C1050 1.356 1_556 S
N1058 H1064 0.984 . S
N1058 H1065 0.984 . S
N1059 C1052 1.356 . S
N1059 H1062 0.984 . S
N1059 H1063 0.985 . S
H1060 N1055 0.984 . S
H1061 N1055 0.985 . S
H1062 N1059 0.984 . S
H1063 N1059 0.985 . S
H1064 N1058 0.984 . S
H1065 N1058 0.984 . S
H1066 N1054 0.984 . S
H1067 N1054 0.985 . S
C1068 C1069 1.363 . S
C1068 C1074 1.379 . S
C1068 N1076 1.356 . S
C1069 C1068 1.363 . S
C1069 C1075 1.363 . S
C1070 C1071 1.363 . S
C1070 C1075 1.379 . S
C1070 N1077 1.356 . S
C1071 C1070 1.363 . S
C1071 C1074 1.363 . S
N1072 C1074 1.356 . S
N1072 H1084 0.984 . S
N1072 H1085 0.985 . S
N1073 C1075 1.356 . S
N1073 H1078 0.984 . S
N1073 H1079 0.985 . S
C1074 C1068 1.379 . S
C1074 C1071 1.363 . S
C1074 N1072 1.356 . S
C1075 C1069 1.363 . S
C1075 C1070 1.379 . S
C1075 N1073 1.356 . S
N1076 C1068 1.356 . S
N1076 H1082 0.984 . S
N1076 H1083 0.984 . S
N1077 C1070 1.356 . S
N1077 H1080 0.984 . S
N1077 H1081 0.985 . S
H1078 N1073 0.984 . S
H1079 N1073 0.985 . S
H1080 N1077 0.984 . S
H1081 N1077 0.985 . S
H1082 N1076 0.984 . S
H1083 N1076 0.984 . S
H1084 N1072 0.984 . S
H1085 N1072 0.985 . S
C1086 C1087 1.363 . S
C1086 C1092 1.379 . S
C1086 N1094 1.356 . S
C1087 C1086 1.363 . S
C1087 C1093 1.363 . S
C1088 C1089 1.363 . S
C1088 C1093 1.379 . S
C1088 N1095 1.356 . S
C1089 C1088 1.363 . S
C1089 C1092 1.363 . S
N1090 C1092 1.356 . S
N1090 H1102 0.984 . S
N1090 H1103 0.985 . S
N1091 C1093 1.356 . S
N1091 H1096 0.984 . S
N1091 H1097 0.985 . S
C1092 C1086 1.379 . S
C1092 C1089 1.363 . S
C1092 N1090 1.356 . S
C1093 C1087 1.363 . S
C1093 C1088 1.379 . S
C1093 N1091 1.356 . S
N1094 C1086 1.356 . S
N1094 H1100 0.984 . S
N1094 H1101 0.984 . S
N1095 C1088 1.356 . S
N1095 H1098 0.984 . S
N1095 H1099 0.985 . S
H1096 N1091 0.984 . S
H1097 N1091 0.985 . S
H1098 N1095 0.984 . S
H1099 N1095 0.985 . S
H1100 N1094 0.984 . S
H1101 N1094 0.984 . S
H1102 N1090 0.984 . S
H1103 N1090 0.985 . S
C1104 C1105 1.363 . S
C1104 C1110 1.379 . S
C1104 N1112 1.356 . S
C1105 C1104 1.363 . S
C1105 C1111 1.363 . S
C1106 C1107 1.363 . S
C1106 C1111 1.379 . S
C1106 N1113 1.356 . S
C1107 C1106 1.363 . S
C1107 C1110 1.363 . S
N1108 C1110 1.356 . S
N1108 H1120 0.984 . S
N1108 H1121 0.985 . S
N1109 C1111 1.356 . S
N1109 H1114 0.984 . S
N1109 H1115 0.985 . S
C1110 C1104 1.379 . S
C1110 C1107 1.363 . S
C1110 N1108 1.356 . S
C1111 C1105 1.363 . S
C1111 C1106 1.379 . S
C1111 N1109 1.356 . S
N1112 C1104 1.356 . S
N1112 H1118 0.984 . S
N1112 H1119 0.984 . S
N1113 C1106 1.356 . S
N1113 H1116 0.984 . S
N1113 H1117 0.985 . S
H1114 N1109 0.984 . S
H1115 N1109 0.985 . S
H1116 N1113 0.984 . S
H1117 N1113 0.985 . S
H1118 N1112 0.984 . S
H1119 N1112 0.984 . S
H1120 N1108 0.984 . S
H1121 N1108 0.985 . S
C1122 C1123 1.363 . S
C1122 C1128 1.379 . S
C1122 N1130 1.356 . S
C1123 C1122 1.363 . S
C1123 C1129 1.363 . S
C1124 C1125 1.363 . S
C1124 C1129 1.379 . S
C1124 N1131 1.356 . S
C1125 C1124 1.363 . S
C1125 C1128 1.363 . S
N1126 C1128 1.356 . S
N1126 H1138 0.984 . S
N1126 H1139 0.985 . S
N1127 C1129 1.356 . S
N1127 H1132 0.984 . S
N1127 H1133 0.985 . S
C1128 C1122 1.379 . S
C1128 C1125 1.363 . S
C1128 N1126 1.356 . S
C1129 C1123 1.363 . S
C1129 C1124 1.379 . S
C1129 N1127 1.356 . S
N1130 C1122 1.356 . S
N1130 H1136 0.984 . S
N1130 H1137 0.984 . S
N1131 C1124 1.356 . S
N1131 H1134 0.984 . S
N1131 H1135 0.985 . S
H1132 N1127 0.984 . S
H1133 N1127 0.985 . S
H1134 N1131 0.984 . S
H1135 N1131 0.985 . S
H1136 N1130 0.984 . S
H1137 N1130 0.984 . S
H1138 N1126 0.984 . S
H1139 N1126 0.985 . S
C1140 C1141 1.363 . S
C1140 C1146 1.379 . S
C1140 N1148 1.356 . S
C1141 C1140 1.363 . S
C1141 C1147 1.333 1_556 S
C1142 C1143 1.363 1_554 S
C1142 C1147 1.381 . S
C1142 N1149 1.356 . S
C1143 C1142 1.363 1_556 S
C1143 C1146 1.363 . S
N1144 C1146 1.356 . S
N1144 H1156 0.984 . S
N1144 H1157 0.985 . S
N1145 C1147 1.379 . S
N1145 H1150 0.984 . S
N1145 H1151 0.985 . S
C1146 C1140 1.379 . S
C1146 C1143 1.363 . S
C1146 N1144 1.356 . S
C1147 C1141 1.333 1_554 S
C1147 C1142 1.381 . S
C1147 N1145 1.379 . S
N1148 C1140 1.356 . S
N1148 H1154 0.984 . S
N1148 H1155 0.984 . S
N1149 C1142 1.356 . S
N1149 H1152 0.984 . S
N1149 H1153 0.985 . S
H1150 N1145 0.984 . S
H1151 N1145 0.985 . S
H1152 N1149 0.984 . S
H1153 N1149 0.985 . S
H1154 N1148 0.984 . S
H1155 N1148 0.984 . S
H1156 N1144 0.984 . S
H1157 N1144 0.985 . S
C1158 C1159 1.363 . S
C1158 C1164 1.379 . S
C1158 N1166 1.356 . S
C1159 C1158 1.363 . S
C1159 C1165 1.363 . S
C1160 C1161 1.363 . S
C1160 C1165 1.379 . S
C1160 N1167 1.356 . S
C1161 C1160 1.363 . S
C1161 C1164 1.363 . S
N1162 C1164 1.356 . S
N1162 H1174 0.984 . S
N1162 H1175 0.985 . S
N1163 C1165 1.356 . S
N1163 H1168 0.984 . S
N1163 H1169 0.985 . S
C1164 C1158 1.379 . S
C1164 C1161 1.363 . S
C1164 N1162 1.356 . S
C1165 C1159 1.363 . S
C1165 C1160 1.379 . S
C1165 N1163 1.356 . S
N1166 C1158 1.356 . S
N1166 H1172 0.984 . S
N1166 H1173 0.984 . S
N1167 C1160 1.356 . S
N1167 H1170 0.984 . S
N1167 H1171 0.985 . S
H1168 N1163 0.984 . S
H1169 N1163 0.985 . S
H1170 N1167 0.984 . S
H1171 N1167 0.985 . S
H1172 N1166 0.984 . S
H1173 N1166 0.984 . S
H1174 N1162 0.984 . S
H1175 N1162 0.985 . S
C1176 C1177 1.363 . S
C1176 C1182 1.379 1_554 S
C1176 N1184 1.356 1_554 S
C1177 C1176 1.363 . S
C1177 C1183 1.363 . S
C1178 C1179 1.363 . S
C1178 C1183 1.379 . S
C1178 N1185 1.356 . S
C1179 C1178 1.363 . S
C1179 C1182 1.363 1_554 S
N1180 C1182 1.356 . S
N1180 H1192 0.984 . S
N1180 H1193 0.985 . S
N1181 C1183 1.356 . S
N1181 H1186 0.984 . S
N1181 H1187 0.985 . S
C1182 C1176 1.379 1_556 S
C1182 C1179 1.363 1_556 S
C1182 N1180 1.356 . S
C1183 C1177 1.363 . S
C1183 C1178 1.379 . S
C1183 N1181 1.356 . S
N1184 C1176 1.356 1_556 S
N1184 H1190 0.984 . S
N1184 H1191 0.984 1_556 S
N1185 C1178 1.356 . S
N1185 H1188 0.984 . S
N1185 H1189 0.985 . S
H1186 N1181 0.984 . S
H1187 N1181 0.985 . S
H1188 N1185 0.984 . S
H1189 N1185 0.985 . S
H1190 N1184 0.984 . S
H1191 N1184 0.984 1_554 S
H1192 N1180 0.984 . S
H1193 N1180 0.985 . S
C1194 C1195 1.363 . S
C1194 C1200 1.379 . S
C1194 N1202 1.356 1_554 S
C1195 C1194 1.363 . S
C1195 C1201 1.363 . S
C1196 C1197 1.363 . S
C1196 C1201 1.379 . S
C1196 N1203 1.356 . S
C1197 C1196 1.363 . S
C1197 C1200 1.363 . S
N1198 C1200 1.356 1_556 S
N1198 H1210 0.984 . S
N1198 H1211 0.985 . S
N1199 C1201 1.356 1_545 S
N1199 H1204 0.984 . S
N1199 H1205 0.985 . S
C1200 C1194 1.379 . S
C1200 C1197 1.363 . S
C1200 N1198 1.356 1_554 S
C1201 C1195 1.363 . S
C1201 C1196 1.379 . S
C1201 N1199 1.356 1_565 S
N1202 C1194 1.356 1_556 S
N1202 H1208 0.984 . S
N1202 H1209 0.984 1_566 S
N1203 C1196 1.356 . S
N1203 H1206 0.984 . S
N1203 H1207 0.985 . S
H1204 N1199 0.984 . S
H1205 N1199 0.985 . S
H1206 N1203 0.984 . S
H1207 N1203 0.985 . S
H1208 N1202 0.984 . S
H1209 N1202 0.984 1_544 S
H1210 N1198 0.984 . S
H1211 N1198 0.985 . S
C351 C202 1.637 . S
C349 C66 1.665 . S
C369 C215 1.319 . S
C367 C76 1.325 . S
C385 C93 1.768 . S
C387 C228 1.720 . S
C405 C241 1.480 . S
C403 C54 1.508 . S
C423 C249 1.503 . S
C421 C126 1.519 . S
C441 C262 1.690 . S
C439 C150 1.717 . S
C457 C136 1.282 . S
C459 C275 1.269 . S
C477 C288 1.717 . S
C475 C117 1.746 . S
C493 C141 1.300 . S
C495 C306 1.285 . S
C513 C317 1.370 . S
C511 C112 1.386 . S
C529 C124 1.492 . S
C531 C301 1.465 . S
C549 C309 1.333 . S
C547 C148 1.338 . S
C565 C88 1.372 . S
C567 C332 1.365 . S
C583 C52 1.561 . S
C585 C322 1.541 . S
C601 C64 1.327 . S
C603 C327 1.306 . S
C619 C78 1.328 . S
C621 C330 1.300 1_655 S
C637 C45 1.644 . S
C639 C239 1.624 . S
C655 C177 1.741 . S
C657 C231 1.716 . S
C675 C200 1.468 . S
C673 C189 1.470 1_565 S
C693 C205 1.590 . S
C691 C102 1.623 . S
C709 C57 1.697 . S
C711 C252 1.682 . S
C729 C291 1.474 . S
C727 C138 1.510 . S
C747 C244 1.731 . S
C745 C114 1.735 . S
C765 C270 1.627 . S
C763 C153 1.665 . S
C783 C280 1.637 . S
C781 C174 1.665 . S
C799 C184 1.325 . S
C801 C293 1.319 . S
C817 C105 1.768 . S
C819 C254 1.720 . S
C837 C267 1.480 . S
C835 C162 1.508 . S
C853 C42 1.519 . S
C855 C223 1.503 . S
C873 C236 1.690 . S
C871 C6 1.717 . S
C891 C197 1.269 . S
C889 C16 1.282 . S
C909 C210 1.717 . S
C907 C33 1.746 1_455 S
C925 C21 1.300 . S
C927 C319 1.285 . S
C943 C28 1.386 . S
C945 C304 1.370 1_655 S
C961 C40 1.492 . S
C963 C314 1.465 . S
C979 C4 1.338 . S
C981 C296 1.333 . S
C999 C345 1.365 . S
C997 C100 1.372 . S
C1017 C335 1.541 . S
C1015 C160 1.561 . S
C1035 C340 1.306 . S
C1033 C172 1.327 . S
C1051 C186 1.319 1_554 S
C1053 C343 1.300 . S
C1069 C129 1.644 . S
C1071 C265 1.624 . S
C1089 C257 1.716 . S
C1087 C69 1.741 . S
C1107 C278 1.468 . S
C1105 C81 1.470 . S
C1125 C283 1.590 . S
C1123 C90 1.623 . S
C1141 C165 1.697 . S
C1143 C226 1.682 . S
C1161 C213 1.474 . S
C1159 C18 1.511 . S
C1177 C30 1.735 . S
C1179 C218 1.731 . S
C1197 C192 1.627 . S
C1195 C9 1.665 1_565 S
