# Generated by pormake.
# Topology anh, (6,3)-cn, num edge types: 1
# Building blocks:
#     Node 0, Type 0, BuildingBlock: INOVEN_clean_sbu_0, # of connection points: 6
#     Node 1, Type 0, BuildingBlock: INOVEN_clean_sbu_0, # of connection points: 6
#     Node 2, Type 0, BuildingBlock: INOVEN_clean_sbu_0, # of connection points: 6
#     Node 3, Type 1, BuildingBlock: MIDCAF_clean_linker_0, # of connection points: 3
#     Node 4, Type 1, BuildingBlock: MIDCAF_clean_linker_0, # of connection points: 3
#     Node 5, Type 1, BuildingBlock: MIDCAF_clean_linker_0, # of connection points: 3
#     Node 6, Type 1, BuildingBlock: MIDCAF_clean_linker_0, # of connection points: 3
#     Node 7, Type 1, BuildingBlock: MIDCAF_clean_linker_0, # of connection points: 3
#     Node 8, Type 1, BuildingBlock: MIDCAF_clean_linker_0, # of connection points: 3
#     Edge 9, Type (0, 1), BuildingBlock: AJUNOK_clean_linker_0, # of connection points: 2
#     Edge 10, Type (0, 1), BuildingBlock: AJUNOK_clean_linker_0, # of connection points: 2
#     Edge 11, Type (0, 1), BuildingBlock: AJUNOK_clean_linker_0, # of connection points: 2
#     Edge 12, Type (0, 1), BuildingBlock: AJUNOK_clean_linker_0, # of connection points: 2
#     Edge 13, Type (0, 1), BuildingBlock: AJUNOK_clean_linker_0, # of connection points: 2
#     Edge 14, Type (0, 1), BuildingBlock: AJUNOK_clean_linker_0, # of connection points: 2
#     Edge 15, Type (0, 1), BuildingBlock: AJUNOK_clean_linker_0, # of connection points: 2
#     Edge 16, Type (0, 1), BuildingBlock: AJUNOK_clean_linker_0, # of connection points: 2
#     Edge 17, Type (0, 1), BuildingBlock: AJUNOK_clean_linker_0, # of connection points: 2
#     Edge 18, Type (0, 1), BuildingBlock: AJUNOK_clean_linker_0, # of connection points: 2
#     Edge 19, Type (0, 1), BuildingBlock: AJUNOK_clean_linker_0, # of connection points: 2
#     Edge 20, Type (0, 1), BuildingBlock: AJUNOK_clean_linker_0, # of connection points: 2
#     Edge 21, Type (0, 1), BuildingBlock: AJUNOK_clean_linker_0, # of connection points: 2
#     Edge 22, Type (0, 1), BuildingBlock: AJUNOK_clean_linker_0, # of connection points: 2
#     Edge 23, Type (0, 1), BuildingBlock: AJUNOK_clean_linker_0, # of connection points: 2
#     Edge 24, Type (0, 1), BuildingBlock: AJUNOK_clean_linker_0, # of connection points: 2
#     Edge 25, Type (0, 1), BuildingBlock: AJUNOK_clean_linker_0, # of connection points: 2
#     Edge 26, Type (0, 1), BuildingBlock: AJUNOK_clean_linker_0, # of connection points: 2
# Relax obj value: 0.209
# Max RMSD: 0.229
# Mean RMSD: 0.166
data_MOF--net-anh--node1-INOVEN_clean_sbu_0--node2-MIDCAF_clean_linker_0--edge1-AJUNOK_clean_linker_0
_symmetry_space_group_name_H-M    P1
_symmetry_Int_Tables_number       1
_symmetry_cell_setting            triclinic
loop_
_symmetry_equiv_pos_as_xyz
'x, y, z'
_cell_length_a     30.196674
_cell_length_b     35.625509
_cell_length_c     52.334813
_cell_angle_alpha  92.416453
_cell_angle_beta   90.260854
_cell_angle_gamma 130.46807
loop_
_atom_site_label
_atom_site_type_symbol
_atom_site_fract_x
_atom_site_fract_y
_atom_site_fract_z
_atom_type_partial_charge
Gd0 Gd 0.12647 0.53645 0.14015 0.0
Gd1 Gd 0.06323 0.57028 0.15757 0.0
C2 C 0.19848 0.65674 0.15016 0.0
C3 C 0.1853 0.51856 0.11546 0.0
C4 C 0.23789 0.52464 0.11805 0.0
C5 C 0.25935 0.5257 0.14218 0.0
C6 C 0.2603 0.5204 0.09588 0.0
C7 C 0.31686 0.50846 0.12169 0.0
C8 C 0.29967 0.51247 0.09766 0.0
C9 C 0.2988 0.51767 0.14399 0.0
C10 C 0.11747 0.53812 0.19125 0.0
C11 C 0.99173 0.45205 0.14853 0.0
C12 C 0.99657 0.57959 0.18194 0.0
C13 C 0.93758 0.54179 0.19106 0.0
C14 C 0.89387 0.54314 0.18407 0.0
C15 C 0.92218 0.49969 0.20227 0.0
C16 C 0.8198 0.45728 0.19429 0.0
C17 C 0.86357 0.45769 0.20388 0.0
C18 C 0.83541 0.50119 0.1856 0.0
C19 C 0.07343 0.56709 0.10607 0.0
O20 O 0.19854 0.62145 0.14066 0.0
O21 O 0.15139 0.64559 0.16014 0.0
O22 O 0.14413 0.48818 0.13088 0.0
O23 O 0.19144 0.55791 0.11221 0.0
O24 O 0.11713 0.50599 0.17856 0.0
O25 O 0.12805 0.57026 0.17685 0.0
O26 O 0.99745 0.48703 0.16237 0.0
O27 O 1.03387 0.46436 0.13351 0.0
O28 O 0.99972 0.58019 0.15701 0.0
O29 O 1.03848 0.58388 0.1933 0.0
O30 O 0.07726 0.6015 0.11852 0.0
O31 O 0.06141 0.53537 0.12116 0.0
H32 H 0.24255 0.52921 0.15953 0.0
H33 H 0.24401 0.5194 0.07714 0.0
H34 H 0.31276 0.50535 0.08016 0.0
H35 H 0.31228 0.51559 0.16271 0.0
H36 H 0.90483 0.57514 0.17532 0.0
H37 H 0.95517 0.49776 0.20796 0.0
H38 H 0.85253 0.42438 0.2108 0.0
H39 H 0.80276 0.50184 0.17763 0.0
Gd40 Gd 0.6421 0.03989 0.47295 0.0
Gd41 Gd 0.56779 0.06539 0.4658 0.0
C42 C 0.50041 0.9508 0.46416 0.0
C43 C 0.68838 1.00362 0.48857 0.0
C44 C 0.6711 0.95583 0.49535 0.0
C45 C 0.64916 0.91714 0.47675 0.0
C46 C 0.68006 0.94989 0.5207 0.0
C47 C 0.64815 0.86867 0.50858 0.0
C48 C 0.66841 0.9067 0.52727 0.0
C49 C 0.63784 0.87399 0.48332 0.0
C50 C 0.63019 0.05363 0.42398 0.0
C51 C 0.71093 0.15509 0.47056 0.0
C52 C 0.52352 0.10487 0.45336 0.0
C53 C 0.53754 0.15166 0.46168 0.0
C54 C 0.56934 0.17688 0.48478 0.0
C55 C 0.51908 0.17133 0.44672 0.0
C56 C 0.56145 0.23977 0.47859 0.0
C57 C 0.53112 0.21515 0.45504 0.0
C58 C 0.58105 0.2204 0.49318 0.0
C59 C 0.58083 0.05245 0.51495 0.0
O60 O 0.54959 0.96499 0.47475 0.0
O61 O 0.49902 0.98404 0.45493 0.0
O62 O 0.6834 1.00916 0.46447 0.0
O63 O 0.6737 0.02338 0.50411 0.0
O64 O 0.67884 0.06912 0.43452 0.0
O65 O 0.5896 0.03035 0.43944 0.0
O66 O 0.65912 0.14079 0.46444 0.0
O67 O 0.71584 0.12247 0.47717 0.0
O68 O 0.50248 0.07258 0.47083 0.0
O69 O 0.56274 0.10883 0.44 0.0
O70 O 0.53259 0.03795 0.50467 0.0
O71 O 0.62081 0.07546 0.49923 0.0
H72 H 0.64156 0.92041 0.45704 0.0
H73 H 0.69726 0.97918 0.53538 0.0
H74 H 0.67694 0.90364 0.54687 0.0
H75 H 0.62138 0.84489 0.46862 0.0
H76 H 0.58454 0.16255 0.4965 0.0
H77 H 0.49509 0.15266 0.42868 0.0
H78 H 0.51672 0.22975 0.44305 0.0
H79 H 0.60443 0.23837 0.5114 0.0
Gd80 Gd 0.62834 0.58181 0.84864 0.0
Gd81 Gd 0.54439 0.47298 0.84884 0.0
C82 C 0.48352 0.52384 0.85221 0.0
C83 C 0.68149 0.67224 0.8377 0.0
C84 C 0.66635 0.70266 0.82996 0.0
C85 C 0.66485 0.7319 0.84827 0.0
C86 C 0.65671 0.70512 0.80398 0.0
C87 C 0.64556 0.76587 0.81475 0.0
C88 C 0.64643 0.73624 0.7965 0.0
C89 C 0.65444 0.76303 0.84076 0.0
C90 C 0.61185 0.54508 0.89485 0.0
C91 C 0.69047 0.53195 0.84877 0.0
C92 C 0.49571 0.38225 0.85643 0.0
C93 C 0.51132 0.35198 0.84819 0.0
C94 C 0.54419 0.36337 0.82642 0.0
C95 C 0.49416 0.31188 0.8621 0.0
C96 C 0.54155 0.2943 0.83223 0.0
C97 C 0.509 0.28324 0.85417 0.0
C98 C 0.55873 0.33469 0.81843 0.0
C99 C 0.56228 0.50713 0.80165 0.0
O100 O 0.53751 0.56399 0.84625 0.0
O101 O 0.4761 0.48334 0.8571 0.0
O102 O 0.67123 0.65782 0.86114 0.0
O103 O 0.66966 0.63812 0.82097 0.0
O104 O 0.66256 0.58314 0.88741 0.0
O105 O 0.57287 0.53036 0.87804 0.0
O106 O 0.63485 0.4903 0.85076 0.0
O107 O 0.69969 0.57385 0.84605 0.0
O108 O 0.47857 0.39477 0.83818 0.0
O109 O 0.53175 0.41892 0.8732 0.0
O110 O 0.51237 0.46886 0.80928 0.0
O111 O 0.60124 0.52417 0.81899 0.0
H112 H 0.67285 0.7315 0.86841 0.0
H113 H 0.65798 0.68354 0.78927 0.0
H114 H 0.63953 0.7374 0.77632 0.0
H115 H 0.65514 0.78601 0.85528 0.0
H116 H 0.55826 0.39431 0.81543 0.0
H117 H 0.46919 0.30266 0.87906 0.0
H118 H 0.49525 0.25256 0.8653 0.0
H119 H 0.58258 0.34368 0.80113 0.0
C120 C 0.40314 0.89646 0.1795 0.0
C121 C 0.4073 0.86838 0.16157 0.0
C122 C 0.4621 0.89171 0.15095 0.0
C123 C 0.51126 0.94124 0.15851 0.0
H124 H 0.66248 0.13221 0.1442 0.0
H125 H 0.74209 0.21613 0.1303 0.0
H126 H 0.83063 0.25605 0.20402 0.0
H127 H 0.75367 0.174 0.21765 0.0
H128 H 0.69987 0.09426 0.26292 0.0
H129 H 0.70199 0.09177 0.30936 0.0
H130 H 0.51815 0.01691 0.30909 0.0
H131 H 0.51549 0.01575 0.26244 0.0
H132 H 0.4469 0.96458 0.20177 0.0
H133 H 0.36258 0.87993 0.18871 0.0
H134 H 0.4672 0.87135 0.13716 0.0
H135 H 0.55321 0.95721 0.15095 0.0
N136 N 0.60434 0.05633 0.1787 0.0
N137 N 0.6506 0.09559 0.21908 0.0
N138 N 0.56064 0.01559 0.21671 0.0
C139 C 0.65049 0.09737 0.19316 0.0
C140 C 0.60619 0.05532 0.23093 0.0
C141 C 0.55919 0.01497 0.19073 0.0
C142 C 0.70056 0.14566 0.18221 0.0
C143 C 0.69936 0.15863 0.15726 0.0
C144 C 0.74504 0.20685 0.14931 0.0
C145 C 0.7927 0.24326 0.16617 0.0
C146 C 0.79447 0.22953 0.19063 0.0
C147 C 0.74977 0.18189 0.19841 0.0
C148 C 0.60745 0.05484 0.25913 0.0
C149 C 0.6599 0.07694 0.27285 0.0
C150 C 0.66106 0.07572 0.2995 0.0
C151 C 0.61007 0.05356 0.31317 0.0
C152 C 0.55785 0.0326 0.29933 0.0
C153 C 0.55636 0.03242 0.27258 0.0
C154 C 0.50687 0.96839 0.17707 0.0
C155 C 0.45182 0.94534 0.18704 0.0
C156 C 0.62162 0.42196 0.55186 0.0
C157 C 0.60132 0.41076 0.5262 0.0
C158 C 0.58893 0.43842 0.51506 0.0
C159 C 0.59602 0.47622 0.52949 0.0
H160 H 0.6073 0.6013 0.52515 0.0
H161 H 0.60832 0.66405 0.50708 0.0
H162 H 0.65024 0.73719 0.58215 0.0
H163 H 0.64788 0.67435 0.60033 0.0
H164 H 0.65191 0.62781 0.64936 0.0
H165 H 0.64095 0.61933 0.69566 0.0
H166 H 0.58134 0.4719 0.68591 0.0
H167 H 0.59273 0.48003 0.63984 0.0
H168 H 0.64303 0.46624 0.58618 0.0
H169 H 0.63129 0.40109 0.56093 0.0
H170 H 0.57367 0.43073 0.49521 0.0
H171 H 0.58555 0.49656 0.52048 0.0
N172 N 0.62144 0.55963 0.56066 0.0
N173 N 0.62722 0.59268 0.60158 0.0
N174 N 0.62093 0.52369 0.59737 0.0
C175 C 0.62562 0.59411 0.57569 0.0
C176 C 0.62469 0.55755 0.61259 0.0
C177 C 0.61953 0.52449 0.57146 0.0
C178 C 0.6275 0.6326 0.56423 0.0
C179 C 0.61691 0.63083 0.5378 0.0
C180 C 0.61776 0.66693 0.52741 0.0
C181 C 0.62968 0.70576 0.54317 0.0
C182 C 0.64037 0.70752 0.56953 0.0
C183 C 0.63924 0.67146 0.57991 0.0
C184 C 0.62278 0.55444 0.64081 0.0
C185 C 0.637 0.59373 0.65708 0.0
C186 C 0.63107 0.58911 0.68356 0.0
C187 C 0.61006 0.54493 0.69413 0.0
C188 C 0.59742 0.50625 0.67807 0.0
C189 C 0.60406 0.51103 0.65171 0.0
C190 C 0.61491 0.48655 0.55542 0.0
C191 C 0.628 0.45916 0.56633 0.0
C192 C 0.95685 0.57532 0.86118 0.0
C193 C 0.89851 0.53143 0.85451 0.0
C194 C 0.89438 0.48915 0.84996 0.0
C195 C 0.94336 0.49047 0.85286 0.0
H196 H 0.15538 0.47616 0.89536 0.0
H197 H 0.23492 0.4756 0.88949 0.0
H198 H 0.29673 0.57502 0.82897 0.0
H199 H 0.21643 0.57597 0.8353 0.0
H200 H 0.15655 0.53776 0.94858 0.0
H201 H 0.15582 0.54594 0.9952 0.0
H202 H 1.02816 0.56377 0.98757 0.0
H203 H 1.02926 0.55645 0.94121 0.0
H204 H 1.04699 0.6111 0.87096 0.0
H205 H 0.9652 0.60947 0.86536 0.0
H206 H 0.85258 0.45388 0.84426 0.0
H207 H 0.93478 0.45589 0.85057 0.0
N208 N 0.08866 0.52983 0.86002 0.0
N209 N 0.1284 0.53576 0.9007 0.0
N210 N 1.05382 0.53968 0.89797 0.0
C211 C 0.12922 0.53075 0.87477 0.0
C212 C 0.09192 0.54049 0.91238 0.0
C213 C 1.04975 0.53414 0.87208 0.0
C214 C 0.1753 0.52499 0.86559 0.0
C215 C 0.18479 0.49754 0.88026 0.0
C216 C 0.23214 0.49735 0.87688 0.0
C217 C 0.2762 0.52559 0.85879 0.0
C218 C 0.26666 0.55288 0.84369 0.0
C219 C 0.21842 0.55267 0.84695 0.0
C220 C 0.09278 0.54616 0.9409 0.0
C221 C 0.12835 0.54349 0.95678 0.0
C222 C 0.12769 0.54787 0.98355 0.0
C223 C 0.09147 0.55502 0.99513 0.0
C224 C 1.05669 0.55846 0.97929 0.0
C225 C 1.0572 0.55398 0.95261 0.0
C226 C 1.00142 0.53436 0.85993 0.0
C227 C 1.00549 0.57649 0.86411 0.0
C228 C 0.24895 0.73054 0.42847 0.0
C229 C 0.28489 0.74125 0.44973 0.0
C230 C 0.26765 0.70116 0.46412 0.0
C231 C 0.21747 0.6519 0.45669 0.0
H232 H 0.99776 0.48405 0.46663 0.0
H233 H 0.91536 0.40241 0.48164 0.0
H234 H 0.94429 0.33213 0.42321 0.0
H235 H 1.02571 0.41273 0.40847 0.0
H236 H 0.06882 0.46708 0.35142 0.0
H237 H 0.07157 0.46558 0.30484 0.0
H238 H 0.11052 0.6058 0.30591 0.0
H239 H 0.11188 0.60874 0.35255 0.0
H240 H 0.17445 0.6759 0.40415 0.0
H241 H 0.26023 0.75974 0.41671 0.0
H242 H 0.29317 0.7077 0.48099 0.0
H243 H 0.20697 0.62195 0.4675 0.0
N244 N 0.10107 0.54838 0.43631 0.0
N245 N 1.05889 0.50003 0.3973 0.0
N246 N 0.13191 0.58564 0.39678 0.0
C247 C 0.06133 0.50282 0.42337 0.0
C248 C 0.09352 0.54115 0.38394 0.0
C249 C 0.13705 0.5902 0.42275 0.0
C250 C 1.0188 0.45529 0.43636 0.0
C251 C 0.98733 0.45121 0.45743 0.0
C252 C 0.93946 0.40426 0.46577 0.0
C253 C 0.92229 0.36023 0.45343 0.0
C254 C 0.95586 0.36482 0.43327 0.0
C255 C 1.00281 0.41132 0.4248 0.0
C256 C 0.09024 0.53804 0.35561 0.0
C257 C 0.07746 0.49731 0.34163 0.0
C258 C 0.07847 0.49629 0.31487 0.0
C259 C 0.09044 0.53526 0.30142 0.0
C260 C 0.10173 0.57537 0.31553 0.0
C261 C 0.10225 0.57698 0.34228 0.0
C262 C 0.18335 0.64154 0.43468 0.0
C263 C 0.19939 0.68194 0.42117 0.0
C264 C 0.60955 0.17896 0.76444 0.0
C265 C 0.58789 0.16897 0.78915 0.0
C266 C 0.57318 0.12719 0.80047 0.0
C267 C 0.58018 0.09619 0.78731 0.0
H268 H 0.61523 0.99479 0.79557 0.0
H269 H 0.62325 0.93724 0.8141 0.0
H270 H 0.61114 0.87787 0.73832 0.0
H271 H 0.60407 0.93517 0.71981 0.0
H272 H 0.58514 0.97219 0.67103 0.0
H273 H 0.58202 0.97362 0.62439 0.0
H274 H 0.63553 0.11916 0.63142 0.0
H275 H 0.63818 0.11791 0.67809 0.0
H276 H 0.63216 0.15672 0.7321 0.0
H277 H 0.62036 0.21033 0.75502 0.0
H278 H 0.55625 0.11853 0.81949 0.0
H279 H 0.56799 0.06409 0.79644 0.0
N280 N 0.60484 0.03785 0.75865 0.0
N281 N 0.60985 1.00934 0.71832 0.0
N282 N 0.60796 0.07396 0.72135 0.0
C283 C 0.6076 1.00658 0.74421 0.0
C284 C 0.61016 0.04287 0.70673 0.0
C285 C 0.60501 0.07174 0.74724 0.0
C286 C 0.60926 0.97008 0.75613 0.0
C287 C 0.61387 0.96925 0.78286 0.0
C288 C 0.61817 0.93606 0.79351 0.0
C289 C 0.61779 0.90286 0.77768 0.0
C290 C 0.61218 0.90322 0.75106 0.0
C291 C 0.60795 0.93619 0.74046 0.0
C292 C 0.6115 0.0448 0.67839 0.0
C293 C 0.59667 1.0047 0.66271 0.0
C294 C 0.59472 1.00539 0.63601 0.0
C295 C 0.60834 0.04642 0.6244 0.0
C296 C 0.62503 0.08716 0.63995 0.0
C297 C 0.62616 0.08624 0.66666 0.0
C298 C 0.60101 0.10585 0.76237 0.0
C299 C 0.61589 0.14786 0.75123 0.0
C300 C 0.63284 0.32413 0.11122 0.0
C301 C 0.61272 0.31308 0.13625 0.0
C302 C 0.5537 0.28811 0.1401 0.0
C303 C 0.51777 0.28082 0.12001 0.0
H304 H 0.43977 0.34007 0.1221 0.0
H305 H 0.41299 0.38738 0.1397 0.0
H306 H 0.36947 0.39904 0.06349 0.0
H307 H 0.39567 0.35191 0.04574 0.0
H308 H 0.44267 0.29931 0.99157 0.0
H309 H 0.47509 0.34898 0.95425 0.0
H310 H 0.64601 0.45756 0.99111 0.0
H311 H 0.61433 0.40587 0.02743 0.0
H312 H 0.61529 0.32942 0.07257 0.0
H313 H 0.67812 0.34326 0.10759 0.0
H314 H 0.53659 0.27784 0.15904 0.0
H315 H 0.47376 0.26525 0.12402 0.0
N316 N 0.47175 0.31061 0.08644 0.0
N317 N 0.46473 0.3335 0.04649 0.0
N318 N 0.52624 0.31574 0.0527 0.0
C319 C 0.44942 0.32503 0.07118 0.0
C320 C 0.5025 0.32861 0.03704 0.0
C321 C 0.50932 0.305 0.07731 0.0
C322 C 0.42059 0.34271 0.08244 0.0
C323 C 0.42313 0.35163 0.10911 0.0
C324 C 0.40822 0.37894 0.11923 0.0
C325 C 0.39058 0.39758 0.10282 0.0
C326 C 0.38426 0.38585 0.07642 0.0
C327 C 0.39882 0.35851 0.06633 0.0
C328 C 0.52631 0.34858 0.01207 0.0
C329 C 0.48795 0.33254 0.99097 0.0
C330 C 0.50636 0.3614 0.96984 0.0
C331 C 0.56295 0.40765 0.96979 0.0
C332 C 0.60253 0.42183 0.99018 0.0
C333 C 0.58446 0.39219 0.01103 0.0
C334 C 0.5402 0.29784 0.09572 0.0
C335 C 0.59679 0.31636 0.09109 0.0
C336 C 0.39174 0.50407 0.10684 0.0
C337 C 0.34523 0.48685 0.12271 0.0
C338 C 0.40878 0.47628 0.10184 0.0
C339 C 0.38004 0.4305 0.11262 0.0
H340 H 0.41268 0.53773 0.09699 0.0
H341 H 0.44272 0.48945 0.08841 0.0
S342 S 0.25988 0.37145 0.15751 0.0
N343 N 0.27382 0.42302 0.15082 0.0
N344 N 0.30676 0.3712 0.14157 0.0
C345 C 0.33678 0.41477 0.13012 0.0
C346 C 0.31915 0.44293 0.13516 0.0
C347 C 0.82029 0.22228 0.46719 0.0
C348 C 0.76482 0.20859 0.46859 0.0
C349 C 0.87075 0.27127 0.46305 0.0
C350 C 0.86867 0.30942 0.46046 0.0
H351 H 0.82474 0.19461 0.46855 0.0
H352 H 0.91186 0.27923 0.46157 0.0
S353 S 0.73501 0.29435 0.46372 0.0
N354 N 0.71172 0.23846 0.46786 0.0
N355 N 0.80595 0.32982 0.46024 0.0
C356 C 0.81383 0.29664 0.46261 0.0
C357 C 0.76227 0.24661 0.46657 0.0
C358 C 0.6712 0.83203 0.78629 0.0
C359 C 0.6383 0.80127 0.80635 0.0
C360 C 0.66482 0.86507 0.77755 0.0
C361 C 0.62519 0.86888 0.78842 0.0
H362 H 0.70252 0.83079 0.77732 0.0
H363 H 0.6914 0.88799 0.76212 0.0
S364 S 0.52665 0.79511 0.8407 0.0
N365 N 0.56352 0.77598 0.83647 0.0
N366 N 0.55138 0.83794 0.81998 0.0
C367 C 0.59213 0.83852 0.80858 0.0
C368 C 0.5987 0.80481 0.81753 0.0
C369 C 0.75473 0.37376 0.17201 0.0
C370 C 0.76056 0.40994 0.18771 0.0
C371 C 0.70328 0.33784 0.15743 0.0
C372 C 0.65606 0.33697 0.15809 0.0
H373 H 0.792 0.37629 0.16883 0.0
H374 H 0.70241 0.31356 0.14383 0.0
S375 S 0.64534 0.41651 0.20085 0.0
N376 N 0.71161 0.43681 0.20694 0.0
N377 N 0.61515 0.37022 0.17911 0.0
C378 C 0.65886 0.36891 0.17624 0.0
C379 C 0.71118 0.40528 0.19115 0.0
C380 C 0.39162 0.88336 0.45623 0.0
C381 C 0.44615 0.89695 0.46213 0.0
C382 C 0.34013 0.83347 0.45332 0.0
C383 C 0.34012 0.79413 0.4559 0.0
H384 H 0.38846 0.91158 0.45372 0.0
H385 H 0.29978 0.82571 0.44876 0.0
S386 S 0.47137 0.80908 0.47122 0.0
N387 N 0.49662 0.86633 0.47088 0.0
N388 N 0.40054 0.773 0.46477 0.0
C389 C 0.39426 0.80713 0.46223 0.0
C390 C 0.44686 0.85819 0.46542 0.0
C391 C 0.51268 0.21092 0.82197 0.0
C392 C 0.55585 0.26292 0.82319 0.0
C393 C 0.52391 0.18073 0.81181 0.0
C394 C 0.57871 0.20128 0.80239 0.0
H395 H 0.46922 0.19337 0.82813 0.0
H396 H 0.48879 0.14104 0.81048 0.0
S397 S 0.70894 0.33476 0.80429 0.0
N398 N 0.65733 0.33318 0.81629 0.0
N399 N 0.67809 0.2766 0.79712 0.0
C400 C 0.62289 0.25303 0.80446 0.0
C401 C 0.61156 0.28374 0.81484 0.0
C402 C 0.60735 0.79857 0.53683 0.0
C403 C 0.63984 0.8245 0.51555 0.0
C404 C 0.60292 0.75936 0.54511 0.0
C405 C 0.63112 0.74468 0.53254 0.0
H406 H 0.58564 0.80903 0.54733 0.0
H407 H 0.57768 0.74069 0.5617 0.0
S408 S 0.72283 0.80155 0.47618 0.0
N409 N 0.70091 0.83302 0.4821 0.0
N410 N 0.69321 0.7597 0.49782 0.0
C411 C 0.66299 0.76982 0.51096 0.0
C412 C 0.66725 0.80963 0.50244 0.0
C413 C 0.80242 0.573 0.84587 0.0
C414 C 0.74301 0.53113 0.85001 0.0
C415 C 0.85035 0.57266 0.84722 0.0
C416 C 0.84423 0.53042 0.85283 0.0
H417 H 0.81254 0.60717 0.8414 0.0
H418 H 0.89329 0.60665 0.84348 0.0
S419 S 0.69915 0.41081 0.86766 0.0
N420 N 0.6831 0.44586 0.86133 0.0
N421 N 0.76995 0.44524 0.86416 0.0
C422 C 0.78489 0.4884 0.85736 0.0
C423 C 0.73609 0.48878 0.85593 0.0
C424 C 0.30883 0.72634 0.15304 0.0
C425 C 0.25233 0.71051 0.1502 0.0
C426 C 0.35896 0.77724 0.15566 0.0
C427 C 0.35485 0.81457 0.15532 0.0
H428 H 0.31426 0.69925 0.15427 0.0
H429 H 0.40103 0.78734 0.15896 0.0
S430 S 0.21809 0.79291 0.14391 0.0
N431 N 0.19638 0.73685 0.1444 0.0
N432 N 0.28956 0.83131 0.14863 0.0
C433 C 0.29884 0.799 0.15093 0.0
C434 C 0.24805 0.74749 0.14855 0.0
C435 C 0.62687 0.32571 0.49936 0.0
C436 C 0.5719 0.28492 0.48843 0.0
C437 C 0.63651 0.3669 0.51082 0.0
C438 C 0.59173 0.36917 0.51162 0.0
H439 H 0.6626 0.32552 0.49937 0.0
H440 H 0.67918 0.39699 0.51945 0.0
S441 S 0.43976 0.27224 0.48619 0.0
N442 N 0.47187 0.24942 0.47946 0.0
N443 N 0.49051 0.3273 0.50059 0.0
C444 C 0.53702 0.32933 0.50025 0.0
C445 C 0.52699 0.28714 0.48874 0.0
C446 C 0.37393 0.48463 0.86145 0.0
C447 C 0.43101 0.52487 0.8535 0.0
C448 C 0.32624 0.48526 0.86294 0.0
C449 C 0.32995 0.52596 0.85638 0.0
H450 H 0.36553 0.45157 0.86682 0.0
H451 H 0.28512 0.45236 0.8692 0.0
S452 S 0.46942 0.64279 0.83478 0.0
N453 N 0.48675 0.60803 0.83926 0.0
N454 N 0.40029 0.60923 0.84187 0.0
C455 C 0.38699 0.56653 0.84834 0.0
C456 C 0.43573 0.56599 0.84701 0.0
C457 C 0.90321 0.38493 0.17222 0.0
C458 C 0.93862 0.39854 0.15106 0.0
C459 C 0.85552 0.33516 0.17637 0.0
C460 C 0.84008 0.29609 0.15942 0.0
H461 H 0.91348 0.41293 0.18629 0.0
H462 H 0.83086 0.32713 0.19331 0.0
S463 S 0.9165 0.31079 0.1004 0.0
N464 N 0.95329 0.36801 0.1124 0.0
N465 N 0.86361 0.27477 0.12013 0.0
C466 C 0.8739 0.309 0.13774 0.0
C467 C 0.92308 0.35991 0.13363 0.0
C468 C 0.08811 0.5993 0.06234 0.0
C469 C 0.07938 0.56397 0.07797 0.0
C470 C 0.09256 0.59643 0.0357 0.0
C471 C 0.08905 0.55841 0.0236 0.0
H472 H 0.09107 0.62923 0.0707 0.0
H473 H 0.09897 0.62436 0.02446 0.0
S474 S 0.06611 0.45645 0.05582 0.0
N475 N 0.06737 0.48964 0.07928 0.0
N476 N 0.07572 0.48435 0.02942 0.0
C477 C 0.08089 0.52313 0.03905 0.0
C478 C 0.076 0.52586 0.06614 0.0
C479 C 0.6658 0.09462 0.3828 0.0
C480 C 0.62173 0.05362 0.3962 0.0
C481 C 0.66079 0.09468 0.35616 0.0
C482 C 0.61219 0.05314 0.34173 0.0
H483 H 0.70446 0.12702 0.39302 0.0
H484 H 0.69558 0.12763 0.34683 0.0
S485 S 0.48628 0.93506 0.36813 0.0
N486 N 0.52816 0.97033 0.39352 0.0
N487 N 0.51996 0.96886 0.34329 0.0
C488 C 0.56777 0.01168 0.35509 0.0
C489 C 0.57229 0.01228 0.38235 0.0
C490 C 0.63064 0.55668 0.76663 0.0
C491 C 0.57361 0.51902 0.77441 0.0
C492 C 0.64229 0.566 0.74061 0.0
C493 C 0.59737 0.53749 0.72159 0.0
H494 H 0.66665 0.57855 0.78066 0.0
H495 H 0.6868 0.59471 0.73528 0.0
S496 S 0.44037 0.43735 0.73178 0.0
N497 N 0.47138 0.45531 0.76083 0.0
N498 N 0.49379 0.47236 0.71215 0.0
C499 C 0.5402 0.50077 0.72912 0.0
C500 C 0.52817 0.49166 0.75548 0.0
C501 C 0.64301 0.08404 0.55546 0.0
C502 C 0.58872 0.04868 0.54238 0.0
C503 C 0.64937 0.08297 0.58201 0.0
C504 C 0.60203 0.04577 0.59618 0.0
H505 H 0.68032 0.11358 0.54529 0.0
H506 H 0.69148 0.11152 0.59156 0.0
S507 S 0.4518 0.9431 0.57061 0.0
N508 N 0.48743 0.97461 0.54541 0.0
N509 N 0.49976 0.97203 0.59503 0.0
C510 C 0.54813 1.0094 0.58313 0.0
C511 C 0.54139 0.011 0.55629 0.0
C512 C 0.54865 0.48229 0.92625 0.0
C513 C 0.60296 0.51336 0.91503 0.0
C514 C 0.5364 0.44837 0.9438 0.0
C515 C 0.57753 0.4433 0.95042 0.0
H516 H 0.51522 0.48417 0.9214 0.0
H517 H 0.49433 0.42621 0.9524 0.0
S518 S 0.7252 0.514 0.92481 0.0
N519 N 0.69812 0.53666 0.9112 0.0
N520 N 0.67415 0.4711 0.94329 0.0
C521 C 0.63199 0.47394 0.93906 0.0
C522 C 0.64492 0.50937 0.92158 0.0
C523 C 0.14515 0.58069 0.23475 0.0
C524 C 0.10803 0.53738 0.21887 0.0
C525 C 0.13886 0.57968 0.26134 0.0
C526 C 0.09419 0.53554 0.27293 0.0
H527 H 0.18049 0.61522 0.22668 0.0
H528 H 0.17021 0.61362 0.27291 0.0
S529 S 0.97993 0.41382 0.23852 0.0
N530 N 1.02264 0.45023 0.21584 0.0
N531 N 1.00807 0.44861 0.26551 0.0
C532 C 1.05495 0.49249 0.25684 0.0
C533 C 0.06251 0.49338 0.22989 0.0
loop_
_geom_bond_atom_site_label_1
_geom_bond_atom_site_label_2
_geom_bond_distance
_geom_bond_site_symmetry_2
_ccdc_geom_bond_type
Gd0 C3 2.818 . S
Gd0 O20 2.377 . S
Gd0 O22 2.448 . S
Gd0 O23 2.506 . S
Gd0 O24 2.435 . S
Gd0 O25 2.717 . S
Gd0 O27 2.395 1_455 S
Gd0 O31 2.327 . S
Gd1 C12 2.818 . S
Gd1 O21 2.395 1_655 S
Gd1 O25 2.327 1_655 S
Gd1 O26 2.377 . S
Gd1 O28 2.448 . S
Gd1 O29 2.506 . S
Gd1 O30 2.435 1_655 S
Gd1 O31 2.717 1_655 S
C2 O20 1.240 . S
C2 O21 1.240 . S
C3 Gd0 2.818 . S
C3 C4 1.510 . S
C3 O22 1.249 . S
C3 O23 1.252 . S
C4 C3 1.510 . S
C4 C5 1.404 . S
C4 C6 1.352 . S
C5 C4 1.404 . S
C5 C9 1.389 . S
C5 H32 0.930 . S
C6 C4 1.352 . S
C6 C8 1.374 . S
C6 H33 0.931 . S
C7 C8 1.359 . S
C7 C9 1.364 . S
C8 C6 1.374 . S
C8 C7 1.359 . S
C8 H34 0.931 . S
C9 C5 1.389 . S
C9 C7 1.364 . S
C9 H35 0.931 . S
C10 O24 1.256 . S
C10 O25 1.257 . S
C11 O26 1.240 . S
C11 O27 1.240 . S
C12 Gd1 2.818 . S
C12 C13 1.510 . S
C12 O28 1.249 . S
C12 O29 1.252 . S
C13 C12 1.510 . S
C13 C14 1.404 . S
C13 C15 1.352 . S
C14 C13 1.404 . S
C14 C18 1.389 . S
C14 H36 0.930 . S
C15 C13 1.352 . S
C15 C17 1.374 . S
C15 H37 0.931 . S
C16 C17 1.359 . S
C16 C18 1.364 . S
C17 C15 1.374 . S
C17 C16 1.359 . S
C17 H38 0.931 . S
C18 C14 1.389 . S
C18 C16 1.364 . S
C18 H39 0.931 . S
C19 O30 1.256 . S
C19 O31 1.257 . S
O20 Gd0 2.377 . S
O20 C2 1.240 . S
O21 Gd1 2.395 1_455 S
O21 C2 1.240 . S
O22 Gd0 2.448 . S
O22 C3 1.249 . S
O23 Gd0 2.506 . S
O23 C3 1.252 . S
O24 Gd0 2.435 . S
O24 C10 1.256 . S
O25 Gd0 2.717 . S
O25 Gd1 2.327 1_455 S
O25 C10 1.257 . S
O26 Gd1 2.377 . S
O26 C11 1.240 . S
O27 Gd0 2.395 1_655 S
O27 C11 1.240 . S
O28 Gd1 2.448 . S
O28 C12 1.249 . S
O29 Gd1 2.506 . S
O29 C12 1.252 . S
O30 Gd1 2.435 1_455 S
O30 C19 1.256 . S
O31 Gd0 2.327 . S
O31 Gd1 2.717 1_455 S
O31 C19 1.257 . S
H32 C5 0.930 . S
H33 C6 0.931 . S
H34 C8 0.931 . S
H35 C9 0.931 . S
H36 C14 0.930 . S
H37 C15 0.931 . S
H38 C17 0.931 . S
H39 C18 0.931 . S
Gd40 C43 2.818 . S
Gd40 O60 2.377 . S
Gd40 O62 2.448 . S
Gd40 O63 2.506 . S
Gd40 O64 2.435 . S
Gd40 O65 2.717 1_565 S
Gd40 O67 2.395 1_565 S
Gd40 O71 2.327 1_565 S
Gd41 C52 2.818 . S
Gd41 O61 2.395 1_545 S
Gd41 O65 2.327 . S
Gd41 O66 2.377 . S
Gd41 O68 2.448 . S
Gd41 O69 2.506 . S
Gd41 O70 2.435 . S
Gd41 O71 2.717 . S
C42 O60 1.240 . S
C42 O61 1.240 . S
C43 Gd40 2.818 . S
C43 C44 1.510 . S
C43 O62 1.249 . S
C43 O63 1.252 . S
C44 C43 1.510 . S
C44 C45 1.404 . S
C44 C46 1.352 . S
C45 C44 1.404 . S
C45 C49 1.389 . S
C45 H72 0.930 . S
C46 C44 1.352 . S
C46 C48 1.374 . S
C46 H73 0.931 . S
C47 C48 1.359 . S
C47 C49 1.364 . S
C48 C46 1.374 . S
C48 C47 1.359 . S
C48 H74 0.931 . S
C49 C45 1.389 . S
C49 C47 1.364 . S
C49 H75 0.931 . S
C50 O64 1.256 1_545 S
C50 O65 1.257 . S
C51 O66 1.240 . S
C51 O67 1.240 . S
C52 Gd41 2.818 . S
C52 C53 1.510 . S
C52 O68 1.249 . S
C52 O69 1.252 . S
C53 C52 1.510 . S
C53 C54 1.404 . S
C53 C55 1.352 . S
C54 C53 1.404 . S
C54 C58 1.389 . S
C54 H76 0.930 . S
C55 C53 1.352 . S
C55 C57 1.374 . S
C55 H77 0.931 . S
C56 C57 1.359 . S
C56 C58 1.364 . S
C57 C55 1.374 . S
C57 C56 1.359 . S
C57 H78 0.931 . S
C58 C54 1.389 . S
C58 C56 1.364 . S
C58 H79 0.931 . S
C59 O70 1.256 . S
C59 O71 1.257 . S
O60 Gd40 2.377 . S
O60 C42 1.240 . S
O61 Gd41 2.395 1_565 S
O61 C42 1.240 . S
O62 Gd40 2.448 . S
O62 C43 1.249 . S
O63 Gd40 2.506 . S
O63 C43 1.252 . S
O64 Gd40 2.435 . S
O64 C50 1.256 1_565 S
O65 Gd40 2.717 1_545 S
O65 Gd41 2.327 . S
O65 C50 1.257 . S
O66 Gd41 2.377 . S
O66 C51 1.240 . S
O67 Gd40 2.395 1_545 S
O67 C51 1.240 . S
O68 Gd41 2.448 . S
O68 C52 1.249 . S
O69 Gd41 2.506 . S
O69 C52 1.252 . S
O70 Gd41 2.435 . S
O70 C59 1.256 . S
O71 Gd40 2.327 1_545 S
O71 Gd41 2.717 . S
O71 C59 1.257 . S
H72 C45 0.930 . S
H73 C46 0.931 . S
H74 C48 0.931 . S
H75 C49 0.931 . S
H76 C54 0.930 . S
H77 C55 0.931 . S
H78 C57 0.931 . S
H79 C58 0.931 . S
Gd80 C83 2.818 . S
Gd80 O100 2.377 . S
Gd80 O102 2.448 . S
Gd80 O103 2.506 . S
Gd80 O104 2.435 . S
Gd80 O105 2.717 . S
Gd80 O107 2.395 . S
Gd80 O111 2.327 . S
Gd81 C92 2.818 . S
Gd81 O101 2.395 . S
Gd81 O105 2.327 . S
Gd81 O106 2.377 . S
Gd81 O108 2.448 . S
Gd81 O109 2.506 . S
Gd81 O110 2.435 . S
Gd81 O111 2.717 . S
C82 O100 1.240 . S
C82 O101 1.240 . S
C83 Gd80 2.818 . S
C83 C84 1.510 . S
C83 O102 1.249 . S
C83 O103 1.252 . S
C84 C83 1.510 . S
C84 C85 1.404 . S
C84 C86 1.352 . S
C85 C84 1.404 . S
C85 C89 1.389 . S
C85 H112 0.930 . S
C86 C84 1.352 . S
C86 C88 1.374 . S
C86 H113 0.931 . S
C87 C88 1.359 . S
C87 C89 1.364 . S
C88 C86 1.374 . S
C88 C87 1.359 . S
C88 H114 0.931 . S
C89 C85 1.389 . S
C89 C87 1.364 . S
C89 H115 0.931 . S
C90 O104 1.256 . S
C90 O105 1.257 . S
C91 O106 1.240 . S
C91 O107 1.240 . S
C92 Gd81 2.818 . S
C92 C93 1.510 . S
C92 O108 1.249 . S
C92 O109 1.252 . S
C93 C92 1.510 . S
C93 C94 1.404 . S
C93 C95 1.352 . S
C94 C93 1.404 . S
C94 C98 1.389 . S
C94 H116 0.930 . S
C95 C93 1.352 . S
C95 C97 1.374 . S
C95 H117 0.931 . S
C96 C97 1.359 . S
C96 C98 1.364 . S
C97 C95 1.374 . S
C97 C96 1.359 . S
C97 H118 0.931 . S
C98 C94 1.389 . S
C98 C96 1.364 . S
C98 H119 0.931 . S
C99 O110 1.256 . S
C99 O111 1.257 . S
O100 Gd80 2.377 . S
O100 C82 1.240 . S
O101 Gd81 2.395 . S
O101 C82 1.240 . S
O102 Gd80 2.448 . S
O102 C83 1.249 . S
O103 Gd80 2.506 . S
O103 C83 1.252 . S
O104 Gd80 2.435 . S
O104 C90 1.256 . S
O105 Gd80 2.717 . S
O105 Gd81 2.327 . S
O105 C90 1.257 . S
O106 Gd81 2.377 . S
O106 C91 1.240 . S
O107 Gd80 2.395 . S
O107 C91 1.240 . S
O108 Gd81 2.448 . S
O108 C92 1.249 . S
O109 Gd81 2.506 . S
O109 C92 1.252 . S
O110 Gd81 2.435 . S
O110 C99 1.256 . S
O111 Gd80 2.327 . S
O111 Gd81 2.717 . S
O111 C99 1.257 . S
H112 C85 0.930 . S
H113 C86 0.931 . S
H114 C88 0.931 . S
H115 C89 0.931 . S
H116 C94 0.930 . S
H117 C95 0.931 . S
H118 C97 0.931 . S
H119 C98 0.931 . S
C120 C121 1.384 . S
C120 H133 0.947 . S
C120 C155 1.382 . S
C121 C120 1.384 . S
C121 C122 1.378 . S
C122 C121 1.378 . S
C122 C123 1.378 . S
C122 H134 0.952 . S
C123 C122 1.378 . S
C123 H135 0.950 . S
C123 C154 1.383 . S
H124 C143 0.947 . S
H125 C144 0.946 . S
H126 C146 0.953 . S
H127 C147 0.945 . S
H128 C149 0.952 . S
H129 C150 0.949 . S
H130 C152 0.950 . S
H131 C153 0.948 . S
H132 C155 0.951 . S
H133 C120 0.947 . S
H134 C122 0.952 . S
H135 C123 0.950 . S
N136 C139 1.382 . S
N136 C141 1.363 1_545 S
N137 C139 1.371 . S
N137 C140 1.372 . S
N138 C140 1.361 1_565 S
N138 C141 1.377 . S
C139 N136 1.382 . S
C139 N137 1.371 . S
C139 C142 1.480 . S
C140 N137 1.372 . S
C140 N138 1.361 1_545 S
C140 C148 1.457 . S
C141 N136 1.363 1_565 S
C141 N138 1.377 . S
C141 C154 1.479 . S
C142 C139 1.480 . S
C142 C143 1.383 . S
C142 C147 1.385 . S
C143 H124 0.947 . S
C143 C142 1.383 . S
C143 C144 1.388 . S
C144 H125 0.946 . S
C144 C143 1.388 . S
C144 C145 1.384 . S
C145 C144 1.384 . S
C145 C146 1.377 . S
C146 H126 0.953 . S
C146 C145 1.377 . S
C146 C147 1.369 . S
C147 H127 0.945 . S
C147 C142 1.385 . S
C147 C146 1.369 . S
C148 C140 1.457 . S
C148 C149 1.372 . S
C148 C153 1.364 1_545 S
C149 H128 0.952 . S
C149 C148 1.372 . S
C149 C150 1.389 . S
C150 H129 0.949 . S
C150 C149 1.389 . S
C150 C151 1.387 . S
C151 C150 1.387 . S
C151 C152 1.372 1_545 S
C152 H130 0.950 . S
C152 C151 1.372 1_565 S
C152 C153 1.379 . S
C153 H131 0.948 . S
C153 C148 1.364 1_565 S
C153 C152 1.379 . S
C154 C123 1.383 . S
C154 C141 1.479 . S
C154 C155 1.398 . S
C155 C120 1.382 . S
C155 H132 0.951 . S
C155 C154 1.398 . S
C156 C157 1.384 . S
C156 H169 0.947 . S
C156 C191 1.382 . S
C157 C156 1.384 . S
C157 C158 1.378 . S
C158 C157 1.378 . S
C158 C159 1.378 . S
C158 H170 0.952 . S
C159 C158 1.378 . S
C159 H171 0.950 . S
C159 C190 1.383 . S
H160 C179 0.947 . S
H161 C180 0.946 . S
H162 C182 0.953 . S
H163 C183 0.945 . S
H164 C185 0.952 . S
H165 C186 0.949 . S
H166 C188 0.950 . S
H167 C189 0.948 . S
H168 C191 0.951 . S
H169 C156 0.947 . S
H170 C158 0.952 . S
H171 C159 0.950 . S
N172 C175 1.382 . S
N172 C177 1.363 . S
N173 C175 1.371 . S
N173 C176 1.372 . S
N174 C176 1.361 . S
N174 C177 1.377 . S
C175 N172 1.382 . S
C175 N173 1.371 . S
C175 C178 1.480 . S
C176 N173 1.372 . S
C176 N174 1.361 . S
C176 C184 1.457 . S
C177 N172 1.363 . S
C177 N174 1.377 . S
C177 C190 1.479 . S
C178 C175 1.480 . S
C178 C179 1.383 . S
C178 C183 1.385 . S
C179 H160 0.947 . S
C179 C178 1.383 . S
C179 C180 1.388 . S
C180 H161 0.946 . S
C180 C179 1.388 . S
C180 C181 1.384 . S
C181 C180 1.384 . S
C181 C182 1.377 . S
C182 H162 0.953 . S
C182 C181 1.377 . S
C182 C183 1.369 . S
C183 H163 0.945 . S
C183 C178 1.385 . S
C183 C182 1.369 . S
C184 C176 1.457 . S
C184 C185 1.372 . S
C184 C189 1.364 . S
C185 H164 0.952 . S
C185 C184 1.372 . S
C185 C186 1.389 . S
C186 H165 0.949 . S
C186 C185 1.389 . S
C186 C187 1.387 . S
C187 C186 1.387 . S
C187 C188 1.372 . S
C188 H166 0.950 . S
C188 C187 1.372 . S
C188 C189 1.379 . S
C189 H167 0.948 . S
C189 C184 1.364 . S
C189 C188 1.379 . S
C190 C159 1.383 . S
C190 C177 1.479 . S
C190 C191 1.398 . S
C191 C156 1.382 . S
C191 H168 0.951 . S
C191 C190 1.398 . S
C192 C193 1.384 . S
C192 H205 0.947 . S
C192 C227 1.382 . S
C193 C192 1.384 . S
C193 C194 1.378 . S
C194 C193 1.378 . S
C194 C195 1.378 . S
C194 H206 0.952 . S
C195 C194 1.378 . S
C195 H207 0.950 1_655 S
C195 C226 1.383 . S
H196 C215 0.947 . S
H197 C216 0.946 . S
H198 C218 0.953 . S
H199 C219 0.945 . S
H200 C221 0.952 . S
H201 C222 0.949 . S
H202 C224 0.950 1_655 S
H203 C225 0.948 1_655 S
H204 C227 0.951 . S
H205 C192 0.947 . S
H206 C194 0.952 . S
H207 C195 0.950 1_455 S
N208 C211 1.382 . S
N208 C213 1.363 . S
N209 C211 1.371 . S
N209 C212 1.372 . S
N210 C212 1.361 . S
N210 C213 1.377 . S
C211 N208 1.382 . S
C211 N209 1.371 . S
C211 C214 1.480 . S
C212 N209 1.372 . S
C212 N210 1.361 . S
C212 C220 1.457 . S
C213 N208 1.363 . S
C213 N210 1.377 . S
C213 C226 1.479 1_455 S
C214 C211 1.480 . S
C214 C215 1.383 . S
C214 C219 1.385 . S
C215 H196 0.947 . S
C215 C214 1.383 . S
C215 C216 1.388 . S
C216 H197 0.946 . S
C216 C215 1.388 . S
C216 C217 1.384 . S
C217 C216 1.384 . S
C217 C218 1.377 . S
C218 H198 0.953 . S
C218 C217 1.377 . S
C218 C219 1.369 . S
C219 H199 0.945 . S
C219 C214 1.385 . S
C219 C218 1.369 . S
C220 C212 1.457 . S
C220 C221 1.372 . S
C220 C225 1.364 . S
C221 H200 0.952 . S
C221 C220 1.372 . S
C221 C222 1.389 . S
C222 H201 0.949 . S
C222 C221 1.389 . S
C222 C223 1.387 . S
C223 C222 1.387 . S
C223 C224 1.372 . S
C224 H202 0.950 1_455 S
C224 C223 1.372 . S
C224 C225 1.379 . S
C225 H203 0.948 1_455 S
C225 C220 1.364 . S
C225 C224 1.379 . S
C226 C195 1.383 . S
C226 C213 1.479 1_655 S
C226 C227 1.398 . S
C227 C192 1.382 . S
C227 H204 0.951 . S
C227 C226 1.398 . S
C228 C229 1.384 . S
C228 H241 0.947 . S
C228 C263 1.382 . S
C229 C228 1.384 . S
C229 C230 1.378 . S
C230 C229 1.378 . S
C230 C231 1.378 . S
C230 H242 0.952 . S
C231 C230 1.378 . S
C231 H243 0.950 . S
C231 C262 1.383 . S
H232 C251 0.947 . S
H233 C252 0.946 . S
H234 C254 0.953 . S
H235 C255 0.945 . S
H236 C257 0.952 . S
H237 C258 0.949 . S
H238 C260 0.950 . S
H239 C261 0.948 . S
H240 C263 0.951 . S
H241 C228 0.947 . S
H242 C230 0.952 . S
H243 C231 0.950 . S
N244 C247 1.382 1_455 S
N244 C249 1.363 . S
N245 C247 1.371 . S
N245 C248 1.372 1_655 S
N246 C248 1.361 . S
N246 C249 1.377 . S
C247 N244 1.382 1_655 S
C247 N245 1.371 . S
C247 C250 1.480 . S
C248 N245 1.372 1_455 S
C248 N246 1.361 . S
C248 C256 1.457 . S
C249 N244 1.363 . S
C249 N246 1.377 . S
C249 C262 1.479 . S
C250 C247 1.480 . S
C250 C251 1.383 . S
C250 C255 1.385 . S
C251 H232 0.947 . S
C251 C250 1.383 . S
C251 C252 1.388 . S
C252 H233 0.946 . S
C252 C251 1.388 . S
C252 C253 1.384 . S
C253 C252 1.384 . S
C253 C254 1.377 . S
C254 H234 0.953 . S
C254 C253 1.377 . S
C254 C255 1.369 . S
C255 H235 0.945 . S
C255 C250 1.385 . S
C255 C254 1.369 . S
C256 C248 1.457 . S
C256 C257 1.372 1_455 S
C256 C261 1.364 . S
C257 H236 0.952 . S
C257 C256 1.372 1_655 S
C257 C258 1.389 . S
C258 H237 0.949 . S
C258 C257 1.389 . S
C258 C259 1.387 1_655 S
C259 C258 1.387 1_455 S
C259 C260 1.372 . S
C260 H238 0.950 . S
C260 C259 1.372 . S
C260 C261 1.379 . S
C261 H239 0.948 . S
C261 C256 1.364 . S
C261 C260 1.379 . S
C262 C231 1.383 . S
C262 C249 1.479 . S
C262 C263 1.398 . S
C263 C228 1.382 . S
C263 H240 0.951 . S
C263 C262 1.398 . S
C264 C265 1.384 . S
C264 H277 0.947 . S
C264 C299 1.382 . S
C265 C264 1.384 . S
C265 C266 1.378 . S
C266 C265 1.378 . S
C266 C267 1.378 . S
C266 H278 0.952 . S
C267 C266 1.378 . S
C267 H279 0.950 . S
C267 C298 1.383 . S
H268 C287 0.947 . S
H269 C288 0.946 . S
H270 C290 0.953 . S
H271 C291 0.945 . S
H272 C293 0.952 . S
H273 C294 0.949 . S
H274 C296 0.950 . S
H275 C297 0.948 . S
H276 C299 0.951 . S
H277 C264 0.947 . S
H278 C266 0.952 . S
H279 C267 0.950 . S
N280 C283 1.382 1_545 S
N280 C285 1.363 . S
N281 C283 1.371 . S
N281 C284 1.372 1_565 S
N282 C284 1.361 . S
N282 C285 1.377 . S
C283 N280 1.382 1_565 S
C283 N281 1.371 . S
C283 C286 1.480 . S
C284 N281 1.372 1_545 S
C284 N282 1.361 . S
C284 C292 1.457 . S
C285 N280 1.363 . S
C285 N282 1.377 . S
C285 C298 1.479 . S
C286 C283 1.480 . S
C286 C287 1.383 . S
C286 C291 1.385 . S
C287 H268 0.947 . S
C287 C286 1.383 . S
C287 C288 1.388 . S
C288 H269 0.946 . S
C288 C287 1.388 . S
C288 C289 1.384 . S
C289 C288 1.384 . S
C289 C290 1.377 . S
C290 H270 0.953 . S
C290 C289 1.377 . S
C290 C291 1.369 . S
C291 H271 0.945 . S
C291 C286 1.385 . S
C291 C290 1.369 . S
C292 C284 1.457 . S
C292 C293 1.372 1_545 S
C292 C297 1.364 . S
C293 H272 0.952 . S
C293 C292 1.372 1_565 S
C293 C294 1.389 . S
C294 H273 0.949 . S
C294 C293 1.389 . S
C294 C295 1.387 . S
C295 C294 1.387 . S
C295 C296 1.372 1_565 S
C296 H274 0.950 . S
C296 C295 1.372 1_545 S
C296 C297 1.379 . S
C297 H275 0.948 . S
C297 C292 1.364 . S
C297 C296 1.379 . S
C298 C267 1.383 . S
C298 C285 1.479 . S
C298 C299 1.398 . S
C299 C264 1.382 . S
C299 H276 0.951 . S
C299 C298 1.398 . S
C300 C301 1.384 . S
C300 H313 0.947 . S
C300 C335 1.382 . S
C301 C300 1.384 . S
C301 C302 1.378 . S
C302 C301 1.378 . S
C302 C303 1.378 . S
C302 H314 0.952 . S
C303 C302 1.378 . S
C303 H315 0.950 . S
C303 C334 1.383 . S
H304 C323 0.947 . S
H305 C324 0.946 . S
H306 C326 0.953 . S
H307 C327 0.945 . S
H308 C329 0.952 . S
H309 C330 0.949 . S
H310 C332 0.950 . S
H311 C333 0.948 . S
H312 C335 0.951 . S
H313 C300 0.947 . S
H314 C302 0.952 . S
H315 C303 0.950 . S
N316 C319 1.382 . S
N316 C321 1.363 . S
N317 C319 1.371 . S
N317 C320 1.372 . S
N318 C320 1.361 . S
N318 C321 1.377 . S
C319 N316 1.382 . S
C319 N317 1.371 . S
C319 C322 1.480 . S
C320 N317 1.372 . S
C320 N318 1.361 . S
C320 C328 1.457 . S
C321 N316 1.363 . S
C321 N318 1.377 . S
C321 C334 1.479 . S
C322 C319 1.480 . S
C322 C323 1.383 . S
C322 C327 1.385 . S
C323 H304 0.947 . S
C323 C322 1.383 . S
C323 C324 1.388 . S
C324 H305 0.946 . S
C324 C323 1.388 . S
C324 C325 1.384 . S
C325 C324 1.384 . S
C325 C326 1.377 . S
C326 H306 0.953 . S
C326 C325 1.377 . S
C326 C327 1.369 . S
C327 H307 0.945 . S
C327 C322 1.385 . S
C327 C326 1.369 . S
C328 C320 1.457 . S
C328 C329 1.372 . S
C328 C333 1.364 . S
C329 H308 0.952 . S
C329 C328 1.372 . S
C329 C330 1.389 1_554 S
C330 H309 0.949 . S
C330 C329 1.389 1_556 S
C330 C331 1.387 . S
C331 C330 1.387 . S
C331 C332 1.372 . S
C332 H310 0.950 . S
C332 C331 1.372 . S
C332 C333 1.379 1_556 S
C333 H311 0.948 . S
C333 C328 1.364 . S
C333 C332 1.379 1_554 S
C334 C303 1.383 . S
C334 C321 1.479 . S
C334 C335 1.398 . S
C335 C300 1.382 . S
C335 H312 0.951 . S
C335 C334 1.398 . S
C336 C337 1.369 . S
C336 C338 1.419 . S
C336 H340 0.930 . S
C337 C336 1.369 . S
C337 C346 1.429 . S
C338 C336 1.419 . S
C338 C339 1.363 . S
C338 H341 0.929 . S
C339 C338 1.363 . S
C339 C345 1.428 . S
H340 C336 0.930 . S
H341 C338 0.929 . S
S342 N343 1.613 . S
S342 N344 1.610 . S
N343 S342 1.613 . S
N343 C346 1.350 . S
N344 S342 1.610 . S
N344 C345 1.351 . S
C345 C339 1.428 . S
C345 N344 1.351 . S
C345 C346 1.434 . S
C346 C337 1.429 . S
C346 N343 1.350 . S
C346 C345 1.434 . S
C347 C348 1.369 . S
C347 C349 1.419 . S
C347 H351 0.930 . S
C348 C347 1.369 . S
C348 C357 1.429 . S
C349 C347 1.419 . S
C349 C350 1.363 . S
C349 H352 0.929 . S
C350 C349 1.363 . S
C350 C356 1.428 . S
H351 C347 0.930 . S
H352 C349 0.929 . S
S353 N354 1.613 . S
S353 N355 1.610 . S
N354 S353 1.613 . S
N354 C357 1.350 . S
N355 S353 1.610 . S
N355 C356 1.351 . S
C356 C350 1.428 . S
C356 N355 1.351 . S
C356 C357 1.434 . S
C357 C348 1.429 . S
C357 N354 1.350 . S
C357 C356 1.434 . S
C358 C359 1.369 . S
C358 C360 1.419 . S
C358 H362 0.930 . S
C359 C358 1.369 . S
C359 C368 1.429 . S
C360 C358 1.419 . S
C360 C361 1.363 . S
C360 H363 0.929 . S
C361 C360 1.363 . S
C361 C367 1.428 . S
H362 C358 0.930 . S
H363 C360 0.929 . S
S364 N365 1.613 . S
S364 N366 1.610 . S
N365 S364 1.613 . S
N365 C368 1.350 . S
N366 S364 1.610 . S
N366 C367 1.351 . S
C367 C361 1.428 . S
C367 N366 1.351 . S
C367 C368 1.434 . S
C368 C359 1.429 . S
C368 N365 1.350 . S
C368 C367 1.434 . S
C369 C370 1.369 . S
C369 C371 1.419 . S
C369 H373 0.930 . S
C370 C369 1.369 . S
C370 C379 1.429 . S
C371 C369 1.419 . S
C371 C372 1.363 . S
C371 H374 0.929 . S
C372 C371 1.363 . S
C372 C378 1.428 . S
H373 C369 0.930 . S
H374 C371 0.929 . S
S375 N376 1.613 . S
S375 N377 1.610 . S
N376 S375 1.613 . S
N376 C379 1.350 . S
N377 S375 1.610 . S
N377 C378 1.351 . S
C378 C372 1.428 . S
C378 N377 1.351 . S
C378 C379 1.434 . S
C379 C370 1.429 . S
C379 N376 1.350 . S
C379 C378 1.434 . S
C380 C381 1.369 . S
C380 C382 1.419 . S
C380 H384 0.930 . S
C381 C380 1.369 . S
C381 C390 1.429 . S
C382 C380 1.419 . S
C382 C383 1.363 . S
C382 H385 0.929 . S
C383 C382 1.363 . S
C383 C389 1.428 . S
H384 C380 0.930 . S
H385 C382 0.929 . S
S386 N387 1.613 . S
S386 N388 1.610 . S
N387 S386 1.613 . S
N387 C390 1.350 . S
N388 S386 1.610 . S
N388 C389 1.351 . S
C389 C383 1.428 . S
C389 N388 1.351 . S
C389 C390 1.434 . S
C390 C381 1.429 . S
C390 N387 1.350 . S
C390 C389 1.434 . S
C391 C392 1.369 . S
C391 C393 1.419 . S
C391 H395 0.930 . S
C392 C391 1.369 . S
C392 C401 1.429 . S
C393 C391 1.419 . S
C393 C394 1.363 . S
C393 H396 0.929 . S
C394 C393 1.363 . S
C394 C400 1.428 . S
H395 C391 0.930 . S
H396 C393 0.929 . S
S397 N398 1.613 . S
S397 N399 1.610 . S
N398 S397 1.613 . S
N398 C401 1.350 . S
N399 S397 1.610 . S
N399 C400 1.351 . S
C400 C394 1.428 . S
C400 N399 1.351 . S
C400 C401 1.434 . S
C401 C392 1.429 . S
C401 N398 1.350 . S
C401 C400 1.434 . S
C402 C403 1.369 . S
C402 C404 1.419 . S
C402 H406 0.930 . S
C403 C402 1.369 . S
C403 C412 1.429 . S
C404 C402 1.419 . S
C404 C405 1.363 . S
C404 H407 0.929 . S
C405 C404 1.363 . S
C405 C411 1.428 . S
H406 C402 0.930 . S
H407 C404 0.929 . S
S408 N409 1.613 . S
S408 N410 1.610 . S
N409 S408 1.613 . S
N409 C412 1.350 . S
N410 S408 1.610 . S
N410 C411 1.351 . S
C411 C405 1.428 . S
C411 N410 1.351 . S
C411 C412 1.434 . S
C412 C403 1.429 . S
C412 N409 1.350 . S
C412 C411 1.434 . S
C413 C414 1.369 . S
C413 C415 1.419 . S
C413 H417 0.930 . S
C414 C413 1.369 . S
C414 C423 1.429 . S
C415 C413 1.419 . S
C415 C416 1.363 . S
C415 H418 0.929 . S
C416 C415 1.363 . S
C416 C422 1.428 . S
H417 C413 0.930 . S
H418 C415 0.929 . S
S419 N420 1.613 . S
S419 N421 1.610 . S
N420 S419 1.613 . S
N420 C423 1.350 . S
N421 S419 1.610 . S
N421 C422 1.351 . S
C422 C416 1.428 . S
C422 N421 1.351 . S
C422 C423 1.434 . S
C423 C414 1.429 . S
C423 N420 1.350 . S
C423 C422 1.434 . S
C424 C425 1.369 . S
C424 C426 1.419 . S
C424 H428 0.930 . S
C425 C424 1.369 . S
C425 C434 1.429 . S
C426 C424 1.419 . S
C426 C427 1.363 . S
C426 H429 0.929 . S
C427 C426 1.363 . S
C427 C433 1.428 . S
H428 C424 0.930 . S
H429 C426 0.929 . S
S430 N431 1.613 . S
S430 N432 1.610 . S
N431 S430 1.613 . S
N431 C434 1.350 . S
N432 S430 1.610 . S
N432 C433 1.351 . S
C433 C427 1.428 . S
C433 N432 1.351 . S
C433 C434 1.434 . S
C434 C425 1.429 . S
C434 N431 1.350 . S
C434 C433 1.434 . S
C435 C436 1.369 . S
C435 C437 1.419 . S
C435 H439 0.930 . S
C436 C435 1.369 . S
C436 C445 1.429 . S
C437 C435 1.419 . S
C437 C438 1.363 . S
C437 H440 0.929 . S
C438 C437 1.363 . S
C438 C444 1.428 . S
H439 C435 0.930 . S
H440 C437 0.929 . S
S441 N442 1.613 . S
S441 N443 1.610 . S
N442 S441 1.613 . S
N442 C445 1.350 . S
N443 S441 1.610 . S
N443 C444 1.351 . S
C444 C438 1.428 . S
C444 N443 1.351 . S
C444 C445 1.434 . S
C445 C436 1.429 . S
C445 N442 1.350 . S
C445 C444 1.434 . S
C446 C447 1.369 . S
C446 C448 1.419 . S
C446 H450 0.930 . S
C447 C446 1.369 . S
C447 C456 1.429 . S
C448 C446 1.419 . S
C448 C449 1.363 . S
C448 H451 0.929 . S
C449 C448 1.363 . S
C449 C455 1.428 . S
H450 C446 0.930 . S
H451 C448 0.929 . S
S452 N453 1.613 . S
S452 N454 1.610 . S
N453 S452 1.613 . S
N453 C456 1.350 . S
N454 S452 1.610 . S
N454 C455 1.351 . S
C455 C449 1.428 . S
C455 N454 1.351 . S
C455 C456 1.434 . S
C456 C447 1.429 . S
C456 N453 1.350 . S
C456 C455 1.434 . S
C457 C458 1.369 . S
C457 C459 1.419 . S
C457 H461 0.930 . S
C458 C457 1.369 . S
C458 C467 1.429 . S
C459 C457 1.419 . S
C459 C460 1.363 . S
C459 H462 0.929 . S
C460 C459 1.363 . S
C460 C466 1.428 . S
H461 C457 0.930 . S
H462 C459 0.929 . S
S463 N464 1.613 . S
S463 N465 1.610 . S
N464 S463 1.613 . S
N464 C467 1.350 . S
N465 S463 1.610 . S
N465 C466 1.351 . S
C466 C460 1.428 . S
C466 N465 1.351 . S
C466 C467 1.434 . S
C467 C458 1.429 . S
C467 N464 1.350 . S
C467 C466 1.434 . S
C468 C469 1.369 . S
C468 C470 1.419 . S
C468 H472 0.930 . S
C469 C468 1.369 . S
C469 C478 1.429 . S
C470 C468 1.419 . S
C470 C471 1.363 . S
C470 H473 0.929 . S
C471 C470 1.363 . S
C471 C477 1.428 . S
H472 C468 0.930 . S
H473 C470 0.929 . S
S474 N475 1.613 . S
S474 N476 1.610 . S
N475 S474 1.613 . S
N475 C478 1.350 1_655 S
N476 S474 1.610 . S
N476 C477 1.351 1_655 S
C477 C471 1.428 . S
C477 N476 1.351 1_455 S
C477 C478 1.434 . S
C478 C469 1.429 . S
C478 N475 1.350 1_455 S
C478 C477 1.434 . S
C479 C480 1.369 . S
C479 C481 1.419 . S
C479 H483 0.930 . S
C480 C479 1.369 . S
C480 C489 1.429 1_545 S
C481 C479 1.419 . S
C481 C482 1.363 . S
C481 H484 0.929 . S
C482 C481 1.363 . S
C482 C488 1.428 1_545 S
H483 C479 0.930 . S
H484 C481 0.929 . S
S485 N486 1.613 . S
S485 N487 1.610 . S
N486 S485 1.613 . S
N486 C489 1.350 . S
N487 S485 1.610 . S
N487 C488 1.351 . S
C488 C482 1.428 1_565 S
C488 N487 1.351 . S
C488 C489 1.434 . S
C489 C480 1.429 1_565 S
C489 N486 1.350 . S
C489 C488 1.434 . S
C490 C491 1.369 . S
C490 C492 1.419 . S
C490 H494 0.930 . S
C491 C490 1.369 . S
C491 C500 1.429 . S
C492 C490 1.419 . S
C492 C493 1.363 . S
C492 H495 0.929 . S
C493 C492 1.363 . S
C493 C499 1.428 . S
H494 C490 0.930 . S
H495 C492 0.929 . S
S496 N497 1.613 . S
S496 N498 1.610 . S
N497 S496 1.613 . S
N497 C500 1.350 . S
N498 S496 1.610 . S
N498 C499 1.351 . S
C499 C493 1.428 . S
C499 N498 1.351 . S
C499 C500 1.434 . S
C500 C491 1.429 . S
C500 N497 1.350 . S
C500 C499 1.434 . S
C501 C502 1.369 . S
C501 C503 1.419 . S
C501 H505 0.930 . S
C502 C501 1.369 . S
C502 C511 1.429 1_545 S
C503 C501 1.419 . S
C503 C504 1.363 1_545 S
C503 H506 0.929 . S
C504 C503 1.363 1_565 S
C504 C510 1.428 . S
H505 C501 0.930 . S
H506 C503 0.929 . S
S507 N508 1.613 . S
S507 N509 1.610 . S
N508 S507 1.613 . S
N508 C511 1.350 . S
N509 S507 1.610 . S
N509 C510 1.351 . S
C510 C504 1.428 . S
C510 N509 1.351 . S
C510 C511 1.434 . S
C511 C502 1.429 1_565 S
C511 N508 1.350 . S
C511 C510 1.434 . S
C512 C513 1.369 . S
C512 C514 1.419 . S
C512 H516 0.930 . S
C513 C512 1.369 . S
C513 C522 1.429 . S
C514 C512 1.419 . S
C514 C515 1.363 . S
C514 H517 0.929 . S
C515 C514 1.363 . S
C515 C521 1.428 . S
H516 C512 0.930 . S
H517 C514 0.929 . S
S518 N519 1.613 . S
S518 N520 1.610 . S
N519 S518 1.613 . S
N519 C522 1.350 . S
N520 S518 1.610 . S
N520 C521 1.351 . S
C521 C515 1.428 . S
C521 N520 1.351 . S
C521 C522 1.434 . S
C522 C513 1.429 . S
C522 N519 1.350 . S
C522 C521 1.434 . S
C523 C524 1.369 . S
C523 C525 1.419 . S
C523 H527 0.930 . S
C524 C523 1.369 . S
C524 C533 1.429 1_455 S
C525 C523 1.419 . S
C525 C526 1.374 . S
C525 H528 0.929 . S
C526 C525 1.374 . S
C526 C532 1.420 1_455 S
H527 C523 0.930 . S
H528 C525 0.929 . S
S529 N530 1.613 . S
S529 N531 1.610 . S
N530 S529 1.613 . S
N530 C533 1.350 . S
N531 S529 1.610 . S
N531 C532 1.351 . S
C532 C526 1.420 1_655 S
C532 N531 1.351 . S
C532 C533 1.434 . S
C533 C524 1.429 1_655 S
C533 N530 1.350 . S
C533 C532 1.434 . S
C337 C7 0.961 . S
C339 C325 1.068 . S
C348 C51 2.011 . S
C350 C253 1.912 . S
C359 C87 1.359 . S
C361 C289 1.390 . S
C370 C16 0.664 . S
C372 C301 0.590 . S
C383 C229 2.076 . S
C381 C42 2.174 . S
C394 C265 1.407 . S
C392 C96 1.389 . S
C403 C47 1.279 . S
C405 C181 1.312 . S
C414 C91 3.189 . S
C416 C193 3.127 . S
C425 C2 2.209 . S
C427 C121 2.136 . S
C438 C157 1.416 . S
C436 C56 1.384 . S
C449 C217 2.996 . S
C447 C82 3.097 . S
C458 C11 2.003 . S
C460 C145 1.926 . S
C471 C223 1.783 1_554 S
C469 C19 1.727 . S
C480 C50 1.335 . S
C482 C151 1.364 . S
C491 C99 1.459 . S
C493 C187 1.508 . S
C504 C295 1.482 . S
C502 C59 1.459 . S
C515 C331 1.133 . S
C513 C90 1.134 . S
C524 C10 1.332 . S
C526 C259 1.352 . S
