# Generated by pormake.
# Topology ctn, (3,4)-cn, num edge types: 1
# Building blocks:
#     Node 0, Type 0, BuildingBlock: BETDIP_clean_linker_0, # of connection points: 3
#     Node 1, Type 0, BuildingBlock: BETDIP_clean_linker_0, # of connection points: 3
#     Node 2, Type 0, BuildingBlock: BETDIP_clean_linker_0, # of connection points: 3
#     Node 3, Type 0, BuildingBlock: BETDIP_clean_linker_0, # of connection points: 3
#     Node 4, Type 0, BuildingBlock: BETDIP_clean_linker_0, # of connection points: 3
#     Node 5, Type 0, BuildingBlock: BETDIP_clean_linker_0, # of connection points: 3
#     Node 6, Type 0, BuildingBlock: BETDIP_clean_linker_0, # of connection points: 3
#     Node 7, Type 0, BuildingBlock: BETDIP_clean_linker_0, # of connection points: 3
#     Node 8, Type 0, BuildingBlock: BETDIP_clean_linker_0, # of connection points: 3
#     Node 9, Type 0, BuildingBlock: BETDIP_clean_linker_0, # of connection points: 3
#     Node 10, Type 0, BuildingBlock: BETDIP_clean_linker_0, # of connection points: 3
#     Node 11, Type 0, BuildingBlock: BETDIP_clean_linker_0, # of connection points: 3
#     Node 12, Type 0, BuildingBlock: BETDIP_clean_linker_0, # of connection points: 3
#     Node 13, Type 0, BuildingBlock: BETDIP_clean_linker_0, # of connection points: 3
#     Node 14, Type 0, BuildingBlock: BETDIP_clean_linker_0, # of connection points: 3
#     Node 15, Type 0, BuildingBlock: BETDIP_clean_linker_0, # of connection points: 3
#     Node 16, Type 1, BuildingBlock: TATPOV_clean_sbu_0, # of connection points: 4
#     Node 17, Type 1, BuildingBlock: TATPOV_clean_sbu_0, # of connection points: 4
#     Node 18, Type 1, BuildingBlock: TATPOV_clean_sbu_0, # of connection points: 4
#     Node 19, Type 1, BuildingBlock: TATPOV_clean_sbu_0, # of connection points: 4
#     Node 20, Type 1, BuildingBlock: TATPOV_clean_sbu_0, # of connection points: 4
#     Node 21, Type 1, BuildingBlock: TATPOV_clean_sbu_0, # of connection points: 4
#     Node 22, Type 1, BuildingBlock: TATPOV_clean_sbu_0, # of connection points: 4
#     Node 23, Type 1, BuildingBlock: TATPOV_clean_sbu_0, # of connection points: 4
#     Node 24, Type 1, BuildingBlock: TATPOV_clean_sbu_0, # of connection points: 4
#     Node 25, Type 1, BuildingBlock: TATPOV_clean_sbu_0, # of connection points: 4
#     Node 26, Type 1, BuildingBlock: TATPOV_clean_sbu_0, # of connection points: 4
#     Node 27, Type 1, BuildingBlock: TATPOV_clean_sbu_0, # of connection points: 4
#     Edge 28, Type (0, 1), BuildingBlock: CIFDUS_clean_linker_0, # of connection points: 2
#     Edge 29, Type (0, 1), BuildingBlock: CIFDUS_clean_linker_0, # of connection points: 2
#     Edge 30, Type (0, 1), BuildingBlock: CIFDUS_clean_linker_0, # of connection points: 2
#     Edge 31, Type (0, 1), BuildingBlock: CIFDUS_clean_linker_0, # of connection points: 2
#     Edge 32, Type (0, 1), BuildingBlock: CIFDUS_clean_linker_0, # of connection points: 2
#     Edge 33, Type (0, 1), BuildingBlock: CIFDUS_clean_linker_0, # of connection points: 2
#     Edge 34, Type (0, 1), BuildingBlock: CIFDUS_clean_linker_0, # of connection points: 2
#     Edge 35, Type (0, 1), BuildingBlock: CIFDUS_clean_linker_0, # of connection points: 2
#     Edge 36, Type (0, 1), BuildingBlock: CIFDUS_clean_linker_0, # of connection points: 2
#     Edge 37, Type (0, 1), BuildingBlock: CIFDUS_clean_linker_0, # of connection points: 2
#     Edge 38, Type (0, 1), BuildingBlock: CIFDUS_clean_linker_0, # of connection points: 2
#     Edge 39, Type (0, 1), BuildingBlock: CIFDUS_clean_linker_0, # of connection points: 2
#     Edge 40, Type (0, 1), BuildingBlock: CIFDUS_clean_linker_0, # of connection points: 2
#     Edge 41, Type (0, 1), BuildingBlock: CIFDUS_clean_linker_0, # of connection points: 2
#     Edge 42, Type (0, 1), BuildingBlock: CIFDUS_clean_linker_0, # of connection points: 2
#     Edge 43, Type (0, 1), BuildingBlock: CIFDUS_clean_linker_0, # of connection points: 2
#     Edge 44, Type (0, 1), BuildingBlock: CIFDUS_clean_linker_0, # of connection points: 2
#     Edge 45, Type (0, 1), BuildingBlock: CIFDUS_clean_linker_0, # of connection points: 2
#     Edge 46, Type (0, 1), BuildingBlock: CIFDUS_clean_linker_0, # of connection points: 2
#     Edge 47, Type (0, 1), BuildingBlock: CIFDUS_clean_linker_0, # of connection points: 2
#     Edge 48, Type (0, 1), BuildingBlock: CIFDUS_clean_linker_0, # of connection points: 2
#     Edge 49, Type (0, 1), BuildingBlock: CIFDUS_clean_linker_0, # of connection points: 2
#     Edge 50, Type (0, 1), BuildingBlock: CIFDUS_clean_linker_0, # of connection points: 2
#     Edge 51, Type (0, 1), BuildingBlock: CIFDUS_clean_linker_0, # of connection points: 2
#     Edge 52, Type (0, 1), BuildingBlock: CIFDUS_clean_linker_0, # of connection points: 2
#     Edge 53, Type (0, 1), BuildingBlock: CIFDUS_clean_linker_0, # of connection points: 2
#     Edge 54, Type (0, 1), BuildingBlock: CIFDUS_clean_linker_0, # of connection points: 2
#     Edge 55, Type (0, 1), BuildingBlock: CIFDUS_clean_linker_0, # of connection points: 2
#     Edge 56, Type (0, 1), BuildingBlock: CIFDUS_clean_linker_0, # of connection points: 2
#     Edge 57, Type (0, 1), BuildingBlock: CIFDUS_clean_linker_0, # of connection points: 2
#     Edge 58, Type (0, 1), BuildingBlock: CIFDUS_clean_linker_0, # of connection points: 2
#     Edge 59, Type (0, 1), BuildingBlock: CIFDUS_clean_linker_0, # of connection points: 2
#     Edge 60, Type (0, 1), BuildingBlock: CIFDUS_clean_linker_0, # of connection points: 2
#     Edge 61, Type (0, 1), BuildingBlock: CIFDUS_clean_linker_0, # of connection points: 2
#     Edge 62, Type (0, 1), BuildingBlock: CIFDUS_clean_linker_0, # of connection points: 2
#     Edge 63, Type (0, 1), BuildingBlock: CIFDUS_clean_linker_0, # of connection points: 2
#     Edge 64, Type (0, 1), BuildingBlock: CIFDUS_clean_linker_0, # of connection points: 2
#     Edge 65, Type (0, 1), BuildingBlock: CIFDUS_clean_linker_0, # of connection points: 2
#     Edge 66, Type (0, 1), BuildingBlock: CIFDUS_clean_linker_0, # of connection points: 2
#     Edge 67, Type (0, 1), BuildingBlock: CIFDUS_clean_linker_0, # of connection points: 2
#     Edge 68, Type (0, 1), BuildingBlock: CIFDUS_clean_linker_0, # of connection points: 2
#     Edge 69, Type (0, 1), BuildingBlock: CIFDUS_clean_linker_0, # of connection points: 2
#     Edge 70, Type (0, 1), BuildingBlock: CIFDUS_clean_linker_0, # of connection points: 2
#     Edge 71, Type (0, 1), BuildingBlock: CIFDUS_clean_linker_0, # of connection points: 2
#     Edge 72, Type (0, 1), BuildingBlock: CIFDUS_clean_linker_0, # of connection points: 2
#     Edge 73, Type (0, 1), BuildingBlock: CIFDUS_clean_linker_0, # of connection points: 2
#     Edge 74, Type (0, 1), BuildingBlock: CIFDUS_clean_linker_0, # of connection points: 2
#     Edge 75, Type (0, 1), BuildingBlock: CIFDUS_clean_linker_0, # of connection points: 2
# Relax obj value: 0.071
# Max RMSD: 0.195
# Mean RMSD: 0.112
data_MOF--net-ctn--node1-TATPOV_clean_sbu_0--node2-BETDIP_clean_linker_0--edge1-CIFDUS_clean_linker_0
_symmetry_space_group_name_H-M    P1
_symmetry_Int_Tables_number       1
_symmetry_cell_setting            triclinic
loop_
_symmetry_equiv_pos_as_xyz
'x, y, z'
_cell_length_a     45.469458
_cell_length_b     45.723078
_cell_length_c     50.501396
_cell_angle_alpha  94.98557
_cell_angle_beta   95.069887
_cell_angle_gamma 94.391557
loop_
_atom_site_label
_atom_site_type_symbol
_atom_site_fract_x
_atom_site_fract_y
_atom_site_fract_z
_atom_type_partial_charge
H0 H 0.01456 0.05588 0.07362 0.0
H1 H 0.06872 0.01716 0.01691 0.0
H2 H 0.05712 0.97734 0.08952 0.0
H3 H 0.07079 0.0605 0.00149 0.0
C4 C 0.05083 0.07085 0.00576 0.0
C5 C 0.02839 0.03861 0.06779 0.0
C6 C 0.03378 0.01624 0.08463 0.0
C7 C 0.04133 0.03961 0.04366 0.0
C8 C 0.05968 0.01753 0.03599 0.0
C9 C 0.06585 0.99512 0.05256 0.0
C10 C 0.05262 0.99461 0.07675 0.0
N11 N 0.03504 0.06291 0.02757 0.0
H12 H 0.22666 0.68416 0.20102 0.0
H13 H 0.30779 0.73917 0.20642 0.0
H14 H 0.29955 0.66716 0.25597 0.0
H15 H 0.26831 0.77332 0.19205 0.0
C16 C 0.26141 0.75706 0.17522 0.0
C17 C 0.24899 0.68996 0.21036 0.0
C18 C 0.26068 0.67383 0.23058 0.0
C19 C 0.26585 0.7134 0.2017 0.0
C20 C 0.29503 0.72081 0.21321 0.0
C21 C 0.30792 0.70397 0.23261 0.0
C22 C 0.29031 0.68052 0.24118 0.0
N23 N 0.25386 0.72733 0.17966 0.0
H24 H 0.98251 0.47041 0.00525 0.0
H25 H 0.01547 0.42638 0.07172 0.0
H26 H 0.98853 0.5141 0.08509 0.0
H27 H 0.00516 0.38558 0.04303 0.0
C28 C 0.00923 0.39286 0.02369 0.0
C29 C 0.98831 0.47078 0.02657 0.0
C30 C 0.98424 0.49575 0.04377 0.0
C31 C 0.99919 0.44571 0.03638 0.0
C32 C 0.0061 0.44528 0.06392 0.0
C33 C 0.00207 0.46978 0.0816 0.0
C34 C 0.99134 0.49509 0.07146 0.0
N35 N 0.004 0.42192 0.01771 0.0
H36 H 0.73418 0.7454 0.16099 0.0
H37 H 0.74921 0.82073 0.21867 0.0
H38 H 0.80613 0.81068 0.15522 0.0
H39 H 0.73253 0.77716 0.24564 0.0
C40 C 0.71254 0.77323 0.23191 0.0
C41 C 0.74728 0.76566 0.16865 0.0
C42 C 0.77129 0.77601 0.15537 0.0
C43 C 0.73984 0.78124 0.19181 0.0
C44 C 0.75595 0.80808 0.20143 0.0
C45 C 0.77955 0.81933 0.18794 0.0
C46 C 0.78728 0.80285 0.16515 0.0
N47 N 0.7147 0.77053 0.20394 0.0
H48 H 0.04807 0.96896 0.42498 0.0
H49 H 0.14015 0.97616 0.4544 0.0
H50 H 0.10965 0.02969 0.39332 0.0
H51 H 0.12825 0.94055 0.47908 0.0
C52 C 0.10442 0.93577 0.47788 0.0
C53 C 0.07052 0.97859 0.42434 0.0
C54 C 0.07619 0.00023 0.40699 0.0
C55 C 0.09323 0.96948 0.44134 0.0
C56 C 0.12227 0.98238 0.44106 0.0
C57 C 0.1284 0.00396 0.42359 0.0
C58 C 0.10529 0.01245 0.40625 0.0
N59 N 0.08529 0.94826 0.45897 0.0
H60 H 0.23162 0.77106 0.78872 0.0
H61 H 0.25984 0.70094 0.73752 0.0
H62 H 0.3091 0.72768 0.81336 0.0
H63 H 0.2084 0.69119 0.73095 0.0
C64 C 0.20259 0.71322 0.72735 0.0
C65 C 0.2472 0.75472 0.7851 0.0
C66 C 0.27097 0.75191 0.80426 0.0
C67 C 0.24277 0.73601 0.76139 0.0
C68 C 0.26314 0.71523 0.75597 0.0
C69 C 0.28729 0.71216 0.77451 0.0
C70 C 0.29093 0.73049 0.79869 0.0
N71 N 0.21726 0.73799 0.74349 0.0
H72 H 0.96947 0.57307 0.485 0.0
H73 H 0.93606 0.48262 0.48456 0.0
H74 H 0.9087 0.54844 0.54135 0.0
H75 H 0.99978 0.55689 0.45706 0.0
C76 C 0.99195 0.53482 0.44845 0.0
C77 C 0.95622 0.55609 0.49322 0.0
C78 C 0.93973 0.56412 0.51458 0.0
C79 C 0.95495 0.52662 0.4824 0.0
C80 C 0.9371 0.50532 0.49309 0.0
C81 C 0.92033 0.51291 0.51429 0.0
C82 C 0.92137 0.54248 0.52479 0.0
N83 N 0.97058 0.51736 0.46044 0.0
H84 H 0.82691 0.87027 0.78845 0.0
H85 H 0.87539 0.79936 0.81434 0.0
H86 H 0.79218 0.8152 0.84522 0.0
H87 H 0.9115 0.81847 0.79152 0.0
C88 C 0.89982 0.82912 0.77584 0.0
C89 C 0.82929 0.85252 0.8012 0.0
C90 C 0.80692 0.84513 0.81741 0.0
C91 C 0.85387 0.83622 0.79978 0.0
C92 C 0.8566 0.8124 0.81541 0.0
C93 C 0.83463 0.80488 0.83221 0.0
C94 C 0.80968 0.8213 0.833 0.0
N95 N 0.8736 0.8429 0.78047 0.0
H96 H 0.298 0.35847 0.28069 0.0
H97 H 0.35528 0.2998 0.31594 0.0
H98 H 0.28067 0.32713 0.3561 0.0
H99 H 0.38901 0.32074 0.29172 0.0
C100 C 0.37596 0.32515 0.27366 0.0
C101 C 0.3041 0.34596 0.29732 0.0
C102 C 0.28611 0.3444 0.31841 0.0
C103 C 0.3296 0.33094 0.29689 0.0
C104 C 0.33688 0.31326 0.31746 0.0
C105 C 0.31956 0.31161 0.3392 0.0
C106 C 0.29418 0.32758 0.33951 0.0
N107 N 0.34638 0.33285 0.27462 0.0
H108 H 0.47431 0.98534 0.50665 0.0
H109 H 0.51596 0.92889 0.55932 0.0
H110 H 0.48627 0.0104 0.59148 0.0
H111 H 0.50847 0.89533 0.52488 0.0
C112 C 0.50642 0.90634 0.50671 0.0
C113 C 0.48235 0.98116 0.52671 0.0
C114 C 0.47888 0.00147 0.54854 0.0
C115 C 0.49528 0.9549 0.53028 0.0
C116 C 0.5051 0.94869 0.55615 0.0
C117 C 0.50182 0.96857 0.57829 0.0
C118 C 0.48879 0.99502 0.57442 0.0
N119 N 0.4984 0.93578 0.50716 0.0
H120 H 0.23823 0.23237 0.66617 0.0
H121 H 0.25006 0.30667 0.72482 0.0
H122 H 0.29629 0.30769 0.65381 0.0
H123 H 0.2368 0.26544 0.75198 0.0
C124 C 0.21704 0.25897 0.73838 0.0
C125 C 0.24864 0.25421 0.67279 0.0
C126 C 0.26903 0.26797 0.65753 0.0
C127 C 0.24184 0.26803 0.69695 0.0
C128 C 0.25542 0.29617 0.70603 0.0
C129 C 0.27505 0.31106 0.69055 0.0
C130 C 0.28182 0.29652 0.66635 0.0
N131 N 0.21936 0.25417 0.71052 0.0
H132 H 0.72348 0.18592 0.74451 0.0
H133 H 0.80061 0.24708 0.75198 0.0
H134 H 0.79798 0.17374 0.80007 0.0
H135 H 0.76047 0.27922 0.74423 0.0
C136 C 0.75109 0.26565 0.72628 0.0
C137 C 0.74555 0.19301 0.75387 0.0
C138 C 0.75902 0.17668 0.77318 0.0
C139 C 0.76001 0.21893 0.74693 0.0
C140 C 0.78881 0.22799 0.7586 0.0
C141 C 0.80294 0.21176 0.77772 0.0
C142 C 0.78759 0.18633 0.78518 0.0
N143 N 0.74588 0.23469 0.72707 0.0
H144 H 0.50205 0.55415 0.53818 0.0
H145 H 0.57674 0.51901 0.50415 0.0
H146 H 0.54693 0.48658 0.57541 0.0
H147 H 0.58005 0.55995 0.48464 0.0
C148 C 0.55823 0.568 0.48226 0.0
C149 C 0.51944 0.5392 0.53869 0.0
C150 C 0.52191 0.52019 0.55906 0.0
C151 C 0.53961 0.53973 0.51928 0.0
C152 C 0.56198 0.52008 0.51977 0.0
C153 C 0.5649 0.5008 0.53994 0.0
C154 C 0.54485 0.50118 0.55968 0.0
N155 N 0.53639 0.56001 0.4995 0.0
H156 H 0.54029 0.48176 0.93459 0.0
H157 H 0.63046 0.492 0.96911 0.0
H158 H 0.60619 0.53074 0.89627 0.0
H159 H 0.61525 0.45462 0.99351 0.0
C160 C 0.59144 0.45485 0.99395 0.0
C161 C 0.56309 0.4903 0.93378 0.0
C162 C 0.57063 0.50688 0.91296 0.0
C163 C 0.58433 0.4845 0.9538 0.0
C164 C 0.61389 0.49563 0.95327 0.0
C165 C 0.62199 0.51222 0.9324 0.0
C166 C 0.60029 0.51736 0.91202 0.0
N167 N 0.57424 0.46851 0.97452 0.0
H168 H 0.71427 0.27457 0.3162 0.0
H169 H 0.74606 0.20446 0.26723 0.0
H170 H 0.7769 0.21926 0.35054 0.0
H171 H 0.72057 0.22103 0.23363 0.0
C172 C 0.7058 0.23675 0.24093 0.0
C173 C 0.72865 0.25683 0.31414 0.0
C174 C 0.74555 0.24894 0.33661 0.0
C175 C 0.7289 0.24134 0.28904 0.0
C176 C 0.74647 0.21741 0.28621 0.0
C177 C 0.76368 0.20909 0.3084 0.0
C178 C 0.76331 0.22523 0.33344 0.0
N179 N 0.70967 0.24965 0.26777 0.0
H180 H 0.51356 0.08381 0.98408 0.0
H181 H 0.4683 0.99702 0.97128 0.0
H182 H 0.44238 0.06044 0.03092 0.0
H183 H 0.54173 0.06875 0.95363 0.0
C184 C 0.53286 0.04757 0.94364 0.0
C185 C 0.49689 0.06753 0.98895 0.0
C186 C 0.47875 0.07524 0.00914 0.0
C187 C 0.49295 0.03931 0.97508 0.0
C188 C 0.47119 0.01884 0.98193 0.0
C189 C 0.45286 0.02625 0.00195 0.0
C190 C 0.45634 0.05468 0.01526 0.0
N191 N 0.50965 0.03055 0.95375 0.0
Zn192 Zn 0.29954 0.84693 0.00056 0.0
Zn193 Zn 0.25352 0.87805 0.99753 0.0
O194 O 0.25037 0.85524 0.03126 0.0
O195 O 0.28496 0.82418 0.02954 0.0
O196 O 0.21837 0.90326 0.99849 0.0
O197 O 0.32694 0.88361 0.00967 0.0
O198 O 0.28906 0.90978 0.00176 0.0
C199 C 0.26348 0.83415 0.04066 0.0
C200 C 0.26715 0.83684 0.94914 0.0
O201 O 0.24906 0.85315 0.96006 0.0
O202 O 0.29083 0.83159 0.96231 0.0
C203 C 0.19438 0.89557 0.00828 0.0
O204 O 0.19077 0.86912 0.0164 0.0
C205 C 0.31679 0.90838 0.00744 0.0
Zn206 Zn 0.087 0.44579 0.2796 0.0
Zn207 Zn 0.12075 0.49781 0.2793 0.0
O208 O 0.09703 0.5072 0.31081 0.0
O209 O 0.06904 0.46575 0.31133 0.0
O210 O 0.14715 0.53429 0.27688 0.0
O211 O 0.12493 0.42511 0.28655 0.0
O212 O 0.15064 0.4677 0.28558 0.0
C213 C 0.07712 0.49196 0.32104 0.0
C214 C 0.07738 0.47402 0.23074 0.0
O215 O 0.09656 0.49328 0.24311 0.0
O216 O 0.06961 0.45103 0.24162 0.0
C217 C 0.13685 0.55883 0.27332 0.0
O218 O 0.1081 0.56072 0.27257 0.0
C219 C 0.14968 0.44026 0.28831 0.0
Zn220 Zn 0.83894 0.61755 0.93988 0.0
Zn221 Zn 0.8269 0.65021 0.98457 0.0
O222 O 0.86192 0.6281 0.99803 0.0
O223 O 0.87382 0.60296 0.9619 0.0
O224 O 0.81793 0.67454 0.01743 0.0
O225 O 0.84335 0.65509 0.92123 0.0
O226 O 0.8334 0.68089 0.95771 0.0
C227 C 0.87819 0.61023 0.98683 0.0
C228 C 0.78079 0.60256 0.95688 0.0
O229 O 0.78926 0.62299 0.97532 0.0
O230 O 0.7977 0.59585 0.93902 0.0
C231 C 0.81124 0.66175 0.03771 0.0
O232 O 0.81077 0.6329 0.03672 0.0
C233 C 0.83936 0.67966 0.93346 0.0
Zn234 Zn 0.87795 0.0194 0.29831 0.0
Zn235 Zn 0.89912 0.0273 0.25284 0.0
O236 O 0.87385 0.06368 0.25894 0.0
O237 O 0.85499 0.05444 0.29631 0.0
O238 O 0.91679 0.03158 0.21727 0.0
O239 O 0.91785 0.02372 0.31832 0.0
O240 O 0.93662 0.02794 0.28005 0.0
C241 C 0.85744 0.07067 0.27745 0.0
C242 C 0.8607 0.97018 0.26122 0.0
O243 O 0.87455 0.98631 0.2461 0.0
O244 O 0.85922 0.97933 0.28537 0.0
C245 C 0.94033 0.01935 0.21261 0.0
O246 O 0.95273 0.00424 0.23088 0.0
C247 C 0.94019 0.0267 0.30527 0.0
Zn248 Zn 0.33936 0.12302 0.43684 0.0
Zn249 Zn 0.32653 0.14811 0.48456 0.0
O250 O 0.36547 0.12946 0.49419 0.0
O251 O 0.3767 0.10986 0.45534 0.0
O252 O 0.3175 0.16928 0.51905 0.0
O253 O 0.34025 0.1624 0.42154 0.0
O254 O 0.32583 0.18125 0.45945 0.0
C255 C 0.38261 0.11504 0.48037 0.0
C256 C 0.28389 0.0993 0.45487 0.0
O257 O 0.29168 0.11736 0.47536 0.0
O258 O 0.2999 0.09778 0.43553 0.0
C259 C 0.33685 0.18712 0.53297 0.0
O260 O 0.36352 0.19095 0.52506 0.0
C261 C 0.33216 0.184 0.43569 0.0
Zn262 Zn 0.3829 0.50732 0.7814 0.0
Zn263 Zn 0.41096 0.52165 0.74098 0.0
O264 O 0.38752 0.55912 0.74916 0.0
O265 O 0.36587 0.5458 0.7841 0.0
O266 O 0.43538 0.52942 0.71 0.0
O267 O 0.42052 0.50409 0.80402 0.0
O268 O 0.44461 0.51793 0.77066 0.0
C269 C 0.37121 0.56485 0.76807 0.0
C270 C 0.36662 0.46561 0.73764 0.0
O271 O 0.38591 0.48192 0.72751 0.0
O272 O 0.36018 0.47226 0.76112 0.0
C273 C 0.42661 0.52349 0.68534 0.0
O274 O 0.39887 0.51357 0.67838 0.0
C275 C 0.44468 0.51084 0.79452 0.0
Zn276 Zn 0.78433 0.32572 0.53912 0.0
Zn277 Zn 0.73565 0.35559 0.53473 0.0
O278 O 0.73201 0.33357 0.56898 0.0
O279 O 0.77148 0.30832 0.57156 0.0
O280 O 0.7 0.37996 0.53326 0.0
O281 O 0.81009 0.36414 0.54197 0.0
O282 O 0.77002 0.38803 0.53759 0.0
C283 C 0.74774 0.31558 0.58054 0.0
C284 C 0.74848 0.30971 0.48953 0.0
O285 O 0.73229 0.32929 0.49843 0.0
O286 O 0.7715 0.30385 0.50335 0.0
C287 C 0.6746 0.37138 0.53986 0.0
O288 O 0.67011 0.34457 0.54702 0.0
C289 C 0.79815 0.38815 0.54039 0.0
Zn290 Zn 0.59039 0.91877 0.76851 0.0
Zn291 Zn 0.62776 0.96891 0.77125 0.0
O292 O 0.60411 0.97864 0.80267 0.0
O293 O 0.57328 0.93871 0.80077 0.0
O294 O 0.65454 0.00526 0.76827 0.0
O295 O 0.62663 0.89573 0.77491 0.0
O296 O 0.65578 0.9369 0.77823 0.0
C297 C 0.58294 0.96404 0.81182 0.0
C298 C 0.58314 0.94892 0.72161 0.0
O299 O 0.60336 0.96618 0.73511 0.0
O300 O 0.57345 0.92565 0.73101 0.0
C301 C 0.66675 0.0237 0.78703 0.0
O302 O 0.66295 0.0193 0.81192 0.0
C303 C 0.65232 0.90911 0.77922 0.0
Zn304 Zn 0.02659 0.27902 0.83404 0.0
Zn305 Zn 0.03382 0.23462 0.86359 0.0
O306 O 0.06939 0.23555 0.84038 0.0
O307 O 0.05957 0.26837 0.81213 0.0
O308 O 0.0413 0.2005 0.88562 0.0
O309 O 0.03471 0.30749 0.86703 0.0
O310 O 0.03508 0.27018 0.89179 0.0
C311 C 0.07592 0.24927 0.82045 0.0
C312 C 0.97496 0.23848 0.82959 0.0
O313 O 0.99166 0.2238 0.84411 0.0
O314 O 0.98462 0.26322 0.82295 0.0
C315 C 0.02655 0.19449 0.90502 0.0
O316 O 0.00499 0.2107 0.91098 0.0
C317 C 0.0361 0.29785 0.88982 0.0
Zn318 Zn 0.5176 0.78057 0.32355 0.0
Zn319 Zn 0.52507 0.73228 0.34981 0.0
O320 O 0.56216 0.73575 0.32847 0.0
O321 O 0.55497 0.77451 0.30632 0.0
O322 O 0.53018 0.69683 0.3708 0.0
O323 O 0.51846 0.80498 0.35914 0.0
O324 O 0.52476 0.76522 0.37986 0.0
C325 C 0.57043 0.75364 0.31196 0.0
C326 C 0.46918 0.73656 0.31107 0.0
O327 O 0.48407 0.72283 0.32789 0.0
O328 O 0.47907 0.76157 0.30523 0.0
C329 C 0.51025 0.68968 0.3858 0.0
O330 O 0.48676 0.70472 0.38613 0.0
C331 C 0.52181 0.79273 0.38064 0.0
Zn332 Zn 0.96535 0.79103 0.58238 0.0
Zn333 Zn 0.02134 0.78313 0.60332 0.0
O334 O 0.02894 0.81519 0.57844 0.0
O335 O 0.98427 0.82125 0.56021 0.0
O336 O 0.06167 0.77787 0.62102 0.0
O337 O 0.95471 0.80338 0.61975 0.0
O338 O 0.99937 0.79437 0.63569 0.0
C339 C 0.01205 0.82781 0.56237 0.0
C340 C 0.98248 0.73165 0.57191 0.0
O341 O 0.00707 0.74283 0.58398 0.0
O342 O 0.9608 0.74732 0.56898 0.0
C343 C 0.06575 0.75441 0.63209 0.0
O344 O 0.04389 0.73362 0.63057 0.0
C345 C 0.97365 0.80202 0.63949 0.0
Zn346 Zn 0.47034 0.29986 0.09138 0.0
Zn347 Zn 0.52084 0.28378 0.11716 0.0
O348 O 0.53656 0.31722 0.09654 0.0
O349 O 0.49601 0.33117 0.07593 0.0
O350 O 0.55745 0.27275 0.1378 0.0
O351 O 0.4542 0.30883 0.12693 0.0
O352 O 0.49519 0.29536 0.14712 0.0
C353 C 0.52393 0.33402 0.08112 0.0
C354 C 0.48172 0.23934 0.07764 0.0
O355 O 0.50482 0.24624 0.09381 0.0
O356 O 0.46335 0.25823 0.07312 0.0
C357 C 0.57618 0.25649 0.12831 0.0
O358 O 0.57194 0.24556 0.10321 0.0
C359 C 0.4696 0.30468 0.14821 0.0
H360 H 0.22755 0.77059 0.83486 0.0
H361 H 0.3226 0.77577 0.83255 0.0
H362 H 0.32923 0.80296 0.87654 0.0
H363 H 0.30857 0.82358 0.91627 0.0
H364 H 0.21389 0.82132 0.91876 0.0
H365 H 0.20656 0.79542 0.87361 0.0
C366 C 0.24973 0.77808 0.8437 0.0
C367 C 0.27456 0.77059 0.83035 0.0
C368 C 0.25345 0.79429 0.869 0.0
C369 C 0.30307 0.78038 0.84247 0.0
C370 C 0.30692 0.79619 0.8676 0.0
C371 C 0.28626 0.81754 0.90693 0.0
C372 C 0.26178 0.82402 0.92096 0.0
C373 C 0.28233 0.80289 0.88115 0.0
C374 C 0.23307 0.81655 0.90838 0.0
C375 C 0.22893 0.80163 0.88265 0.0
H376 H 0.0331 0.56199 0.42153 0.0
H377 H 0.9793 0.48001 0.42151 0.0
H378 H 0.00074 0.45993 0.38203 0.0
H379 H 0.03491 0.46535 0.34774 0.0
H380 H 0.08901 0.54714 0.34731 0.0
H381 H 0.06726 0.56757 0.38666 0.0
C382 C 0.02613 0.53975 0.41281 0.0
C383 C 0.00476 0.52255 0.42443 0.0
C384 C 0.03856 0.52828 0.39004 0.0
C385 C 0.99578 0.49376 0.413 0.0
C386 C 0.00802 0.48222 0.39039 0.0
C387 C 0.04196 0.48767 0.35618 0.0
C388 C 0.0636 0.50463 0.34458 0.0
C389 C 0.02944 0.49926 0.37879 0.0
C390 C 0.07241 0.53354 0.35583 0.0
C391 C 0.06 0.54526 0.37835 0.0
H392 H 0.82632 0.80152 0.88471 0.0
H393 H 0.84888 0.75017 0.81477 0.0
H394 H 0.85374 0.70749 0.8402 0.0
H395 H 0.85056 0.68439 0.88189 0.0
H396 H 0.82792 0.73535 0.95212 0.0
H397 H 0.82429 0.7785 0.92705 0.0
C398 C 0.83217 0.78092 0.87507 0.0
C399 C 0.83726 0.77902 0.84791 0.0
C400 C 0.83503 0.75642 0.88986 0.0
C401 C 0.84514 0.7523 0.83572 0.0
C402 C 0.84784 0.72785 0.85022 0.0
C403 C 0.84502 0.70496 0.89183 0.0
C404 C 0.83948 0.70651 0.91888 0.0
C405 C 0.84279 0.72964 0.87728 0.0
C406 C 0.83234 0.73344 0.93134 0.0
C407 C 0.83014 0.75814 0.91698 0.0
H408 H 0.06861 0.00402 0.35313 0.0
H409 H 0.02752 0.02102 0.42607 0.0
H410 H 0.98294 0.03397 0.40084 0.0
H411 H 0.95414 0.03591 0.35838 0.0
H412 H 0.9931 0.01723 0.28456 0.0
H413 H 0.04027 0.01006 0.30974 0.0
C414 C 0.04999 0.01101 0.36337 0.0
C415 C 0.05104 0.01123 0.39132 0.0
C416 C 0.02411 0.01795 0.34862 0.0
C417 C 0.02691 0.02029 0.40452 0.0
C418 C 0.00149 0.02772 0.39013 0.0
C419 C 0.97298 0.03052 0.3477 0.0
C420 C 0.96999 0.02668 0.31965 0.0
C421 C 0.99958 0.02588 0.36221 0.0
C422 C 0.9948 0.0202 0.30617 0.0
C423 C 0.02171 0.01594 0.32056 0.0
H424 H 0.32378 0.26534 0.64004 0.0
H425 H 0.23172 0.23543 0.61859 0.0
H426 H 0.2447 0.20738 0.57859 0.0
H427 H 0.28212 0.19095 0.54993 0.0
H428 H 0.37412 0.22171 0.57055 0.0
H429 H 0.36117 0.25003 0.61052 0.0
C430 C 0.30652 0.25298 0.62643 0.0
C431 C 0.27685 0.25237 0.63239 0.0
C432 C 0.31413 0.23698 0.60337 0.0
C433 C 0.25479 0.23593 0.61471 0.0
C434 C 0.26217 0.21997 0.59176 0.0
C435 C 0.29938 0.20378 0.56318 0.0
C436 C 0.32906 0.20409 0.5573 0.0
C437 C 0.29178 0.22017 0.586 0.0
C438 C 0.35109 0.22105 0.5746 0.0
C439 C 0.34371 0.23727 0.59747 0.0
H440 H 0.53377 0.52598 0.61316 0.0
H441 H 0.46169 0.51499 0.55075 0.0
H442 H 0.4258 0.51554 0.58413 0.0
H443 H 0.41488 0.51866 0.63111 0.0
H444 H 0.48705 0.53158 0.69362 0.0
H445 H 0.52279 0.53097 0.66027 0.0
C446 C 0.51019 0.52357 0.60695 0.0
C447 C 0.50036 0.52027 0.57956 0.0
C448 C 0.48968 0.52441 0.62628 0.0
C449 C 0.46976 0.51762 0.57173 0.0
C450 C 0.44925 0.5179 0.5908 0.0
C451 C 0.43842 0.52146 0.63746 0.0
C452 C 0.44817 0.52507 0.6649 0.0
C453 C 0.45893 0.52128 0.61814 0.0
C454 C 0.47882 0.52884 0.67268 0.0
C455 C 0.49934 0.52837 0.65361 0.0
H456 H 0.73543 0.23878 0.67602 0.0
H457 H 0.7545 0.32402 0.72043 0.0
H458 H 0.75038 0.34793 0.67889 0.0
H459 H 0.74679 0.34407 0.62959 0.0
H460 H 0.73197 0.25848 0.58554 0.0
H461 H 0.72838 0.23516 0.62711 0.0
C462 C 0.73825 0.2626 0.67664 0.0
C463 C 0.74539 0.27967 0.70121 0.0
C464 C 0.73655 0.27609 0.65266 0.0
C465 C 0.7491 0.31048 0.70168 0.0
C466 C 0.74677 0.32414 0.67795 0.0
C467 C 0.7419 0.32043 0.62921 0.0
C468 C 0.73916 0.30292 0.60475 0.0
C469 C 0.74118 0.30714 0.65328 0.0
C470 C 0.73371 0.27226 0.60428 0.0
C471 C 0.73192 0.25896 0.62801 0.0
H472 H 0.53978 0.00243 0.61505 0.0
H473 H 0.48834 0.91844 0.60154 0.0
H474 H 0.50876 0.90482 0.6448 0.0
H475 H 0.54223 0.91634 0.68592 0.0
H476 H 0.59503 -0.00015 0.69862 0.0
H477 H 0.57324 0.014 0.65628 0.0
C478 C 0.53284 0.98133 0.62181 0.0
C479 C 0.51256 0.9615 0.60532 0.0
C480 C 0.54512 0.97343 0.64642 0.0
C481 C 0.504 0.934 0.61399 0.0
C482 C 0.51569 0.92621 0.63865 0.0
C483 C 0.549 0.93762 0.67943 0.0
C484 C 0.57029 0.95692 0.69547 0.0
C485 C 0.53649 0.94563 0.65493 0.0
C486 C 0.57879 0.98444 0.68668 0.0
C487 C 0.56627 0.99264 0.66247 0.0
H488 H 0.84762 0.17677 0.79032 0.0
H489 H 0.82814 0.2679 0.79135 0.0
H490 H 0.87951 0.2837 0.80694 0.0
H491 H 0.92999 0.27201 0.81939 0.0
H492 H 0.94968 0.18146 0.82186 0.0
H493 H 0.89786 0.16502 0.80636 0.0
C494 C 0.85441 0.20009 0.79439 0.0
C495 C 0.83392 0.22107 0.78924 0.0
C496 C 0.88399 0.20913 0.80396 0.0
C497 C 0.84343 0.2512 0.79441 0.0
C498 C 0.87281 0.26031 0.80353 0.0
C499 C 0.92299 0.24863 0.8165 0.0
C500 C 0.94367 0.22793 0.82138 0.0
C501 C 0.89329 0.23949 0.80807 0.0
C502 C 0.93415 0.19778 0.81812 0.0
C503 C 0.90457 0.18842 0.80922 0.0
H504 H 0.51742 0.84921 0.49886 0.0
H505 H 0.50292 0.92589 0.45685 0.0
H506 H 0.50731 0.8976 0.41443 0.0
H507 H 0.51411 0.85099 0.38912 0.0
H508 H 0.52813 0.77382 0.43065 0.0
H509 H 0.52522 0.80242 0.47335 0.0
C510 C 0.51531 0.85966 0.48037 0.0
C511 C 0.50975 0.88948 0.48098 0.0
C512 C 0.51776 0.84322 0.45597 0.0
C513 C 0.50709 0.9029 0.45697 0.0
C514 C 0.50961 0.88675 0.43266 0.0
C515 C 0.51666 0.84039 0.40748 0.0
C516 C 0.52128 0.81028 0.40662 0.0
C517 C 0.51477 0.85687 0.43192 0.0
C518 C 0.52453 0.79697 0.43068 0.0
C519 C 0.52283 0.81329 0.45513 0.0
H520 H 0.20644 0.24568 0.78808 0.0
H521 H 0.16257 0.26237 0.7123 0.0
H522 H 0.11469 0.25896 0.73068 0.0
H523 H 0.0857 0.25451 0.76905 0.0
H524 H 0.12851 0.23502 0.84433 0.0
H525 H 0.17631 0.23568 0.82536 0.0
C526 C 0.18629 0.24828 0.77563 0.0
C527 C 0.18796 0.25444 0.749 0.0
C528 C 0.15871 0.24575 0.78621 0.0
C529 C 0.16181 0.25753 0.73286 0.0
C530 C 0.13443 0.25567 0.74337 0.0
C531 C 0.10546 0.25004 0.78118 0.0
C532 C 0.10371 0.24499 0.80807 0.0
C533 C 0.13268 0.25023 0.7701 0.0
C534 C 0.12934 0.23887 0.82354 0.0
C535 C 0.15668 0.23947 0.81276 0.0
H536 H 0.50816 0.59635 0.47118 0.0
H537 H 0.5965 0.58755 0.44841 0.0
H538 H 0.58939 0.62354 0.41582 0.0
H539 H 0.55852 0.65849 0.39458 0.0
H540 H 0.47037 0.66771 0.41789 0.0
H541 H 0.47694 0.63059 0.4493 0.0
C542 C 0.52582 0.60225 0.45905 0.0
C543 C 0.55288 0.58936 0.46224 0.0
C544 C 0.52162 0.62308 0.44041 0.0
C545 C 0.5755 0.59723 0.44633 0.0
C546 C 0.57145 0.61781 0.42769 0.0
C547 C 0.54067 0.65227 0.4064 0.0
C548 C 0.51401 0.66597 0.40384 0.0
C549 C 0.54466 0.63101 0.42466 0.0
C550 C 0.49117 0.65763 0.41943 0.0
C551 C 0.4949 0.63638 0.43746 0.0
H552 H 0.95124 0.8095 0.76145 0.0
H553 H 0.87276 0.8473 0.73026 0.0
H554 H 0.88933 0.84325 0.68567 0.0
H555 H 0.92488 0.82697 0.65503 0.0
H556 H 0.00395 0.78986 0.68587 0.0
H557 H 0.98854 0.79589 0.73099 0.0
C558 C 0.93796 0.81703 0.74487 0.0
C559 C 0.91085 0.82855 0.74915 0.0
C560 C 0.94765 0.81471 0.71917 0.0
C561 C 0.89377 0.83834 0.72758 0.0
C562 C 0.90318 0.83598 0.702 0.0
C563 C 0.93883 0.82033 0.67163 0.0
C564 C 0.96539 0.80779 0.66703 0.0
C565 C 0.92989 0.82389 0.69751 0.0
C566 C 0.98336 0.79958 0.68882 0.0
C567 C 0.97453 0.80292 0.71464 0.0
H568 H 0.04606 0.91982 0.4818 0.0
H569 H 0.13431 0.90603 0.51443 0.0
H570 H 0.11367 0.87173 0.54405 0.0
H571 H 0.07046 0.84524 0.56003 0.0
H572 H 0.98239 0.85944 0.52685 0.0
H573 H 0.00318 0.89416 0.4981 0.0
C574 C 0.06086 0.90935 0.49536 0.0
C575 C 0.09173 0.91533 0.49588 0.0
C576 C 0.04886 0.88977 0.51223 0.0
C577 C 0.11048 0.90166 0.51368 0.0
C578 C 0.09869 0.8821 0.53058 0.0
C579 C 0.05579 0.85599 0.54658 0.0
C580 C 0.02488 0.84964 0.54562 0.0
C581 C 0.06789 0.87591 0.52996 0.0
C582 C 0.00625 0.86382 0.52803 0.0
C583 C 0.0181 0.88369 0.51154 0.0
H584 H 0.18538 0.76326 0.70695 0.0
H585 H 0.16211 0.66983 0.7051 0.0
H586 H 0.11793 0.67404 0.6748 0.0
H587 H 0.08527 0.7045 0.65 0.0
H588 H 0.1093 0.79773 0.65053 0.0
H589 H 0.15401 0.79336 0.68002 0.0
C590 C 0.1706 0.74387 0.69991 0.0
C591 C 0.17665 0.71632 0.70842 0.0
C592 C 0.14548 0.74641 0.68224 0.0
C593 C 0.15768 0.69127 0.69885 0.0
C594 C 0.13247 0.69366 0.68157 0.0
C595 C 0.10034 0.72384 0.65649 0.0
C596 C 0.09388 0.75141 0.64825 0.0
C597 C 0.12604 0.72115 0.6733 0.0
C598 C 0.11379 0.77623 0.65658 0.0
C599 C 0.1393 0.77378 0.67352 0.0
H600 H 0.99023 0.59874 0.52995 0.0
H601 H 0.89512 0.59885 0.52547 0.0
H602 H 0.89987 0.65101 0.54258 0.0
H603 H 0.93126 0.69675 0.55784 0.0
H604 H 0.02648 0.69573 0.56337 0.0
H605 H 0.02149 0.64376 0.54656 0.0
C606 C 0.97056 0.61025 0.53269 0.0
C607 C 0.94238 0.59516 0.52631 0.0
C608 C 0.9735 0.64004 0.54255 0.0
C609 C 0.91704 0.61007 0.53036 0.0
C610 C 0.91976 0.63987 0.53998 0.0
C611 C 0.95091 0.68517 0.55527 0.0
C612 C 0.9792 0.70016 0.56165 0.0
C613 C 0.94789 0.65513 0.54596 0.0
C614 C 0.00445 0.68474 0.55858 0.0
C615 C 0.00163 0.65502 0.54897 0.0
H616 H 0.79616 0.84216 0.23918 0.0
H617 H 0.79944 0.86221 0.15749 0.0
H618 H 0.82603 0.90996 0.17264 0.0
H619 H 0.84737 0.94682 0.20931 0.0
H620 H 0.84165 0.92698 0.29086 0.0
H621 H 0.81677 0.87876 0.2755 0.0
C622 C 0.80241 0.85705 0.22466 0.0
C623 C 0.7958 0.84846 0.19725 0.0
C624 C 0.81726 0.88469 0.23348 0.0
C625 C 0.80459 0.86796 0.17874 0.0
C626 C 0.81966 0.89542 0.18738 0.0
C627 C 0.84078 0.93188 0.22368 0.0
C628 C 0.84635 0.94062 0.25118 0.0
C629 C 0.82606 0.90409 0.21473 0.0
C630 C 0.83752 0.92099 0.26955 0.0
C631 C 0.82329 0.89331 0.26081 0.0
H632 H 0.79752 0.19096 0.26847 0.0
H633 H 0.76669 0.16652 0.34264 0.0
H634 H 0.79286 0.12213 0.33925 0.0
H635 H 0.82378 0.09015 0.3156 0.0
H636 H 0.85529 0.11274 0.2412 0.0
H637 H 0.82915 0.15783 0.24415 0.0
C638 C 0.79646 0.17583 0.28381 0.0
C639 C 0.78032 0.1823 0.30594 0.0
C640 C 0.81151 0.14999 0.28165 0.0
C641 C 0.77936 0.16251 0.32571 0.0
C642 C 0.79414 0.13695 0.32368 0.0
C643 C 0.82503 0.10479 0.29987 0.0
C644 C 0.84152 0.09792 0.27815 0.0
C645 C 0.81022 0.1305 0.30179 0.0
C646 C 0.84276 0.11739 0.25812 0.0
C647 C 0.82784 0.14319 0.25984 0.0
H648 H 0.39308 0.02844 1e-05 0.0
H649 H 0.46335 0.97328 0.01878 0.0
H650 H 0.42708 0.9327 0.02468 0.0
H651 H 0.37597 0.91169 0.02053 0.0
H652 H 0.30486 0.96522 -0.00055 0.0
H653 H 0.34082 0.0078 0.9987 0.0
C654 C 0.40027 0.00765 0.00586 0.0
C655 C 0.43068 0.00363 0.00893 0.0
C656 C 0.37922 0.98414 0.00854 0.0
C657 C 0.43997 0.97665 0.01625 0.0
C658 C 0.41928 0.9535 0.01955 0.0
C659 C 0.36819 0.9327 0.01598 0.0
C660 C 0.33776 0.93514 0.00977 0.0
C661 C 0.38891 0.95678 0.0151 0.0
C662 C 0.32817 0.96267 0.00417 0.0
C663 C 0.34873 0.98701 0.00368 0.0
H664 H 0.27894 0.39999 0.30589 0.0
H665 H 0.2309 0.32231 0.32816 0.0
H666 H 0.18419 0.34513 0.32105 0.0
H667 H 0.15686 0.38625 0.30606 0.0
H668 H 0.20563 0.4636 0.28357 0.0
H669 H 0.2521 0.44158 0.29276 0.0
C670 C 0.25823 0.38809 0.30924 0.0
C671 C 0.25832 0.35946 0.31736 0.0
C672 C 0.23156 0.40113 0.30474 0.0
C673 C 0.23142 0.34448 0.3221 0.0
C674 C 0.2047 0.3574 0.31779 0.0
C675 C 0.17766 0.39824 0.30312 0.0
C676 C 0.17769 0.42644 0.29393 0.0
C677 C 0.20446 0.38554 0.30867 0.0
C678 C 0.20489 0.44184 0.29056 0.0
C679 C 0.23153 0.42929 0.29584 0.0
H680 H 0.16218 0.02862 0.46775 0.0
H681 H 0.16146 0.01406 0.3822 0.0
H682 H 0.21035 0.04122 0.38438 0.0
H683 H 0.25252 0.07032 0.41064 0.0
H684 H 0.25177 0.08657 0.49608 0.0
H685 H 0.20431 0.0573 0.49396 0.0
C686 C 0.17294 0.03111 0.44964 0.0
C687 C 0.15845 0.01926 0.42488 0.0
C688 C 0.20069 0.04709 0.45104 0.0
C689 C 0.17226 0.0231 0.40148 0.0
C690 C 0.20017 0.03855 0.40273 0.0
C691 C 0.24207 0.06727 0.42881 0.0
C692 C 0.25569 0.08058 0.45348 0.0
C693 C 0.21449 0.05083 0.4274 0.0
C694 C 0.24172 0.07665 0.47682 0.0
C695 C 0.21459 0.0599 0.47564 0.0
H696 H 0.73038 0.13213 0.73953 0.0
H697 H 0.75304 0.15965 0.82316 0.0
H698 H 0.72701 0.11447 0.83501 0.0
H699 H 0.697 0.06746 0.82146 0.0
H700 H 0.67486 0.04036 0.73752 0.0
H701 H 0.70135 0.08507 0.72602 0.0
C702 C 0.72943 0.12831 0.76035 0.0
C703 C 0.74344 0.14922 0.78043 0.0
C704 C 0.71452 0.10235 0.76698 0.0
C705 C 0.74254 0.14376 0.80733 0.0
C706 C 0.72757 0.118 0.81411 0.0
C707 C 0.69803 0.0713 0.80066 0.0
C708 C 0.68386 0.05056 0.78044 0.0
C709 C 0.7134 0.09716 0.79409 0.0
C710 C 0.68553 0.05589 0.75356 0.0
C711 C 0.70065 0.08151 0.7469 0.0
H712 H 0.48616 0.03746 0.50918 0.0
H713 H 0.43671 0.02577 0.5771 0.0
H714 H 0.40519 0.0642 0.56422 0.0
H715 H 0.38705 0.09551 0.52983 0.0
H716 H 0.43392 0.1029 0.45975 0.0
H717 H 0.47098 0.07182 0.47719 0.0
C718 C 0.4686 0.04345 0.52128 0.0
C719 C 0.46348 0.02838 0.54379 0.0
C720 C 0.44988 0.06464 0.51317 0.0
C721 C 0.44118 0.037 0.55968 0.0
C722 C 0.42296 0.0588 0.55218 0.0
C723 C 0.4058 0.09087 0.51874 0.0
C724 C 0.4077 0.1013 0.49348 0.0
C725 C 0.42643 0.072 0.52842 0.0
C726 C 0.43191 0.09493 0.47915 0.0
C727 C 0.45305 0.0771 0.48908 0.0
H728 H 0.56107 0.44253 0.54888 0.0
H729 H 0.62275 0.51297 0.53105 0.0
H730 H 0.66172 0.47923 0.52885 0.0
H731 H 0.67838 0.4297 0.53171 0.0
H732 H 0.61708 0.35921 0.55017 0.0
H733 H 0.57807 0.39296 0.55252 0.0
C734 C 0.58312 0.45056 0.54481 0.0
C735 C 0.58887 0.48026 0.54003 0.0
C736 C 0.60554 0.43099 0.54357 0.0
C737 C 0.61754 0.49017 0.53445 0.0
C738 C 0.63991 0.4709 0.53328 0.0
C739 C 0.65648 0.42165 0.53617 0.0
C740 C 0.65074 0.39186 0.54067 0.0
C741 C 0.63413 0.44122 0.53764 0.0
C742 C 0.6222 0.38197 0.54658 0.0
C743 C 0.59984 0.40129 0.54796 0.0
H744 H 0.7433 0.22529 0.38418 0.0
H745 H 0.74308 0.30824 0.34942 0.0
H746 H 0.73956 0.33404 0.3933 0.0
H747 H 0.73992 0.33349 0.44228 0.0
H748 H 0.7444 0.25095 0.47697 0.0
H749 H 0.74267 0.22455 0.43255 0.0
C750 C 0.74277 0.24905 0.38618 0.0
C751 C 0.74365 0.26473 0.36345 0.0
C752 C 0.74124 0.26383 0.41154 0.0
C753 C 0.74223 0.29549 0.36647 0.0
C754 C 0.74029 0.31032 0.39161 0.0
C755 C 0.73977 0.30967 0.43994 0.0
C756 C 0.74181 0.29403 0.46268 0.0
C757 C 0.74002 0.29477 0.41434 0.0
C758 C 0.74248 0.26329 0.45961 0.0
C759 C 0.74173 0.24825 0.43427 0.0
H760 H 0.51552 0.99644 0.91258 0.0
H761 H 0.5782 0.07314 0.91982 0.0
H762 H 0.5992 0.05441 0.87925 0.0
H763 H 0.59978 0.01594 0.84208 0.0
H764 H 0.5367 0.93942 0.83552 0.0
H765 H 0.51576 0.95855 0.87558 0.0
C766 C 0.5338 0.00912 0.90537 0.0
C767 C 0.54542 0.03612 0.91919 0.0
C768 C 0.54563 0.99827 0.88216 0.0
C769 C 0.56899 0.05225 0.90947 0.0
C770 C 0.58095 0.04157 0.88632 0.0
C771 C 0.5814 0.00348 0.84935 0.0
C772 C 0.56988 0.97626 0.83577 0.0
C773 C 0.56945 0.01456 0.87252 0.0
C774 C 0.54606 0.96041 0.84554 0.0
C775 C 0.53405 0.97131 0.86848 0.0
H776 H 0.28213 0.28111 0.36904 0.0
H777 H 0.37503 0.29807 0.35835 0.0
H778 H 0.38731 0.26052 0.38771 0.0
H779 H 0.37128 0.21996 0.41377 0.0
H780 H 0.27969 0.2075 0.42905 0.0
H781 H 0.26743 0.24703 0.40127 0.0
C782 C 0.3052 0.27739 0.37357 0.0
C783 C 0.32739 0.29202 0.36055 0.0
C784 C 0.3124 0.25653 0.39141 0.0
C785 C 0.35714 0.2864 0.36694 0.0
C786 C 0.36434 0.26508 0.38404 0.0
C787 C 0.3488 0.22642 0.41137 0.0
C788 C 0.32634 0.211 0.42315 0.0
C789 C 0.34207 0.2495 0.39585 0.0
C790 C 0.29728 0.21937 0.42016 0.0
C791 C 0.29027 0.24178 0.40417 0.0
H792 H 0.56899 0.50138 0.8584 0.0
H793 H 0.5187 0.52824 0.92358 0.0
H794 H 0.47574 0.53275 0.89234 0.0
H795 H 0.45123 0.52524 0.84729 0.0
H796 H 0.50039 0.50001 0.78102 0.0
H797 H 0.54522 0.49889 0.81182 0.0
C798 C 0.54877 0.50873 0.8656 0.0
C799 C 0.54676 0.51391 0.89324 0.0
C800 C 0.52395 0.51122 0.84743 0.0
C801 C 0.52051 0.52353 0.90241 0.0
C802 C 0.49596 0.52613 0.88459 0.0
C803 C 0.47178 0.51953 0.83956 0.0
C804 C 0.47249 0.51213 0.8121 0.0
C805 C 0.4972 0.51926 0.8572 0.0
C806 C 0.49937 0.50555 0.8022 0.0
C807 C 0.52492 0.50489 0.81979 0.0
H808 H 0.77493 0.71686 0.14785 0.0
H809 H 0.78641 0.79666 0.10878 0.0
H810 H 0.80032 0.76845 0.06916 0.0
H811 H 0.80866 0.7211 0.04547 0.0
H812 H 0.79647 0.64118 0.08436 0.0
H813 H 0.78311 0.66947 0.1241 0.0
C814 C 0.78022 0.72804 0.13057 0.0
C815 C 0.77961 0.7588 0.13126 0.0
C816 C 0.78805 0.71168 0.10783 0.0
C817 C 0.78702 0.77303 0.10888 0.0
C818 C 0.79483 0.75691 0.08617 0.0
C819 C 0.80312 0.70985 0.06263 0.0
C820 C 0.80356 0.67905 0.0619 0.0
C821 C 0.7954 0.72623 0.08542 0.0
C822 C 0.79631 0.66485 0.08435 0.0
C823 C 0.78864 0.68101 0.1071 0.0
H824 H 0.97838 0.03088 0.09598 0.0
H825 H 0.0589 0.00096 0.13237 0.0
H826 H 0.03697 0.9989 0.17447 0.0
H827 H 0.99516 0.00553 0.20124 0.0
H828 H 0.91555 0.03809 0.16614 0.0
H829 H 0.93721 0.03983 0.12353 0.0
C830 C 0.99135 0.02425 0.11315 0.0
C831 C 0.02028 0.01577 0.11064 0.0
C832 C 0.9788 0.0237 0.13767 0.0
C833 C 0.0364 0.00692 0.13326 0.0
C834 C 0.02395 0.00598 0.15753 0.0
C835 C 0.98249 0.01303 0.1843 0.0
C836 C 0.95367 0.02152 0.18691 0.0
C837 C 0.99516 0.01421 0.15996 0.0
C838 C 0.93776 0.03145 0.16475 0.0
C839 C 0.95013 0.03238 0.14034 0.0
H840 H 0.24936 0.81055 0.15993 0.0
H841 H 0.26779 0.72353 0.12931 0.0
H842 H 0.26779 0.73923 0.08431 0.0
H843 H 0.26628 0.77864 0.05436 0.0
H844 H 0.24477 0.86498 0.08383 0.0
H845 H 0.24156 0.84855 0.12849 0.0
C846 C 0.25308 0.79507 0.14328 0.0
C847 C 0.25881 0.76608 0.14783 0.0
C848 C 0.2524 0.80409 0.11733 0.0
C849 C 0.26328 0.74598 0.12622 0.0
C850 C 0.26336 0.75494 0.10051 0.0
C851 C 0.26042 0.79369 0.0705 0.0
C852 C 0.25604 0.82299 0.06599 0.0
C853 C 0.25843 0.78405 0.09593 0.0
C854 C 0.24813 0.84226 0.08688 0.0
C855 C 0.24656 0.83295 0.11243 0.0
H856 H 0.03797 0.50945 0.11541 0.0
H857 H 0.98459 0.42692 0.11228 0.0
H858 H 0.00242 0.42128 0.15849 0.0
H859 H 0.0354 0.43833 0.19882 0.0
H860 H 0.08977 0.52045 0.20174 0.0
H861 H 0.06936 0.52771 0.15672 0.0
C862 C 0.0299 0.49054 0.12507 0.0
C863 C 0.01008 0.46861 0.11055 0.0
C864 C 0.04069 0.48717 0.1515 0.0
C865 C 1.00001 0.44399 0.12311 0.0
C866 C 0.01023 0.44073 0.14947 0.0
C867 C 0.04274 0.45787 0.18967 0.0
C868 C 0.06427 0.47865 0.20364 0.0
C869 C 0.03101 0.4619 0.1637 0.0
C870 C 0.07336 0.50394 0.19145 0.0
C871 C 0.06166 0.50818 0.16568 0.0
H872 H 0.33427 0.69568 0.28243 0.0
H873 H 0.35441 0.72578 0.20661 0.0
H874 H 0.40571 0.73793 0.22412 0.0
H875 H 0.44489 0.74124 0.26114 0.0
H876 H 0.42665 0.70592 0.33494 0.0
H877 H 0.37479 0.69317 0.31744 0.0
C878 C 0.34979 0.70426 0.26936 0.0
C879 C 0.33981 0.71025 0.24324 0.0
C880 C 0.37981 0.70995 0.27908 0.0
C881 C 0.36073 0.72188 0.22709 0.0
C882 C 0.39035 0.72848 0.23694 0.0
C883 C 0.42959 0.7304 0.27324 0.0
C884 C 0.43938 0.72466 0.2993 0.0
C885 C 0.40006 0.72285 0.26294 0.0
C886 C 0.41956 0.71038 0.31475 0.0
C887 C 0.3899 0.70334 0.30482 0.0
H888 H 0.02739 0.40406 0.97555 0.0
H889 H 0.00788 0.33333 0.02414 0.0
H890 H 0.01685 0.29714 0.98758 0.0
H891 H 0.02697 0.28586 0.94069 0.0
H892 H 0.04586 0.35749 0.89266 0.0
H893 H 0.04063 0.39309 0.93027 0.0
C894 C 0.02513 0.38073 0.9782 0.0
C895 C 0.01656 0.37125 0.00231 0.0
C896 C 0.03023 0.36025 0.9572 0.0
C897 C 0.01427 0.34103 0.00561 0.0
C898 C 0.01937 0.3204 0.98474 0.0
C899 C 0.03033 0.30925 0.93858 0.0
C900 C 0.03653 0.31895 0.9138 0.0
C901 C 0.02692 0.32976 0.96027 0.0
C902 C 0.04082 0.34937 0.91141 0.0
C903 C 0.0378 0.3698 0.9329 0.0
H904 H 0.70142 0.75402 0.27966 0.0
H905 H 0.65851 0.78144 0.20742 0.0
H906 H 0.61052 0.77615 0.22544 0.0
H907 H 0.58116 0.76635 0.26253 0.0
H908 H 0.62266 0.73608 0.33402 0.0
H909 H 0.67078 0.7393 0.31541 0.0
C910 C 0.68146 0.75863 0.2679 0.0
C911 C 0.68342 0.76828 0.24238 0.0
C912 C 0.65378 0.75494 0.27821 0.0
C913 C 0.65751 0.77392 0.2271 0.0
C914 C 0.63008 0.77096 0.23741 0.0
C915 C 0.60071 0.76016 0.27391 0.0
C916 C 0.59853 0.75125 0.29966 0.0
C917 C 0.62802 0.76183 0.26302 0.0
C918 C 0.62386 0.74291 0.3141 0.0
C919 C 0.65135 0.74496 0.30355 0.0
H920 H 0.07657 0.0892 0.96344 0.0
H921 H 0.00461 0.10571 0.01138 0.0
H922 H 0.99066 0.14516 0.98428 0.0
H923 H 0.99925 0.17535 0.94715 0.0
H924 H 0.0712 0.15842 0.89912 0.0
H925 H 0.08469 0.1188 0.92597 0.0
C926 C 0.05781 0.10145 0.96791 0.0
C927 C 0.04172 0.0946 0.98939 0.0
C928 C 0.04989 0.12405 0.95221 0.0
C929 C 0.01741 0.11055 0.99497 0.0
C930 C 0.00942 0.13313 0.97947 0.0
C931 C 0.01786 0.16298 0.94251 0.0
C932 C 0.03418 0.16997 0.92112 0.0
C933 C 0.02555 0.14013 0.95807 0.0
C934 C 0.0582 0.1536 0.91542 0.0
C935 C 0.06599 0.13091 0.9308 0.0
H936 H 0.43159 0.31223 0.26579 0.0
H937 H 0.35087 0.33575 0.22444 0.0
H938 H 0.37334 0.33264 0.18235 0.0
H939 H 0.41521 0.32187 0.15704 0.0
H940 H 0.49601 0.29769 0.19787 0.0
H941 H 0.47427 0.30264 0.24039 0.0
C942 C 0.41904 0.31676 0.24753 0.0
C943 C 0.38968 0.32413 0.24821 0.0
C944 C 0.43206 0.31483 0.22332 0.0
C945 C 0.37353 0.32999 0.22449 0.0
C946 C 0.38635 0.32821 0.20038 0.0
C947 C 0.42819 0.31783 0.17523 0.0
C948 C 0.45717 0.30934 0.17421 0.0
C949 C 0.41551 0.32047 0.19954 0.0
C950 C 0.47362 0.30422 0.19804 0.0
C951 C 0.4612 0.30699 0.22238 0.0
H952 H 0.61415 0.41502 0.02533 0.0
H953 H 0.53316 0.45413 0.00306 0.0
H954 H 0.50576 0.42104 0.02896 0.0
H955 H 0.50386 0.3792 0.05559 0.0
H956 H 0.5841 0.33932 0.07856 0.0
H957 H 0.61267 0.37457 0.05497 0.0
C958 C 0.59057 0.41641 0.02643 0.0
C959 C 0.57571 0.43668 0.012 0.0
C960 C 0.57473 0.39708 0.04135 0.0
C961 C 0.54517 0.43845 0.01365 0.0
C962 C 0.52939 0.41953 0.02849 0.0
C963 C 0.52762 0.37823 0.05555 0.0
C964 C 0.54174 0.35647 0.06856 0.0
C965 C 0.54382 0.39843 0.04198 0.0
C966 C 0.57263 0.35581 0.0686 0.0
C967 C 0.58898 0.37592 0.05507 0.0
H968 H 0.69123 0.21543 0.18935 0.0
H969 H 0.66418 0.27514 0.25188 0.0
H970 H 0.62215 0.28642 0.22241 0.0
H971 H 0.59255 0.27895 0.17935 0.0
H972 H 0.61883 0.21955 0.11622 0.0
H973 H 0.66166 0.2086 0.14542 0.0
C974 C 0.67614 0.23098 0.1964 0.0
C975 C 0.68082 0.24434 0.22273 0.0
C976 C 0.65185 0.23739 0.1793 0.0
C977 C 0.66115 0.26446 0.23172 0.0
C978 C 0.63704 0.27095 0.21488 0.0
C979 C 0.60761 0.2636 0.1719 0.0
C980 C 0.60241 0.25003 0.14565 0.0
C981 C 0.6321 0.25745 0.18871 0.0
C982 C 0.62229 0.2303 0.13635 0.0
C983 C 0.64677 0.22401 0.15304 0.0
H984 H 0.4384 0.11516 0.01618 0.0
H985 H 0.53031 0.10122 0.03487 0.0
H986 H 0.5393 0.15064 0.05834 0.0
H987 H 0.52118 0.19801 0.0728 0.0
H988 H 0.4297 0.21294 0.05227 0.0
H989 H 0.42036 0.16298 0.03025 0.0
C990 C 0.46029 0.12298 0.0256 0.0
C991 C 0.48366 0.10475 0.02397 0.0
C992 C 0.46539 0.15157 0.03858 0.0
C993 C 0.51206 0.11507 0.03587 0.0
C994 C 0.51719 0.14324 0.04927 0.0
C995 C 0.49917 0.19031 0.06358 0.0
C996 C 0.47618 0.20914 0.06422 0.0
C997 C 0.49405 0.16173 0.05063 0.0
C998 C 0.44784 0.19892 0.05197 0.0
C999 C 0.44244 0.17033 0.03943 0.0
H1000 H 0.32959 0.33775 0.68258 0.0
H1001 H 0.24844 0.35491 0.7176 0.0
H1002 H 0.26936 0.40416 0.73426 0.0
H1003 H 0.31115 0.44187 0.74058 0.0
H1004 H 0.39063 0.4273 0.70253 0.0
H1005 H 0.36932 0.37793 0.68433 0.0
C1006 C 0.31615 0.35232 0.6934 0.0
C1007 C 0.28759 0.34197 0.69927 0.0
C1008 C 0.3279 0.38126 0.70219 0.0
C1009 C 0.27085 0.36149 0.71356 0.0
C1010 C 0.28264 0.38996 0.72285 0.0
C1011 C 0.32366 0.42799 0.72803 0.0
C1012 C 0.35247 0.438 0.72306 0.0
C1013 C 0.31124 0.39991 0.71759 0.0
C1014 C 0.36835 0.42005 0.70652 0.0
C1015 C 0.35625 0.39177 0.69633 0.0
H1016 H 0.30808 0.67514 0.80944 0.0
H1017 H 0.31049 0.69483 0.72767 0.0
H1018 H 0.33833 0.65194 0.71826 0.0
H1019 H 0.35942 0.60661 0.73292 0.0
H1020 H 0.35582 0.58835 0.81512 0.0
H1021 H 0.33175 0.633 0.82466 0.0
C1022 C 0.31523 0.67052 0.78969 0.0
C1023 C 0.3071 0.68819 0.76934 0.0
C1024 C 0.331 0.64581 0.78439 0.0
C1025 C 0.31613 0.68138 0.74369 0.0
C1026 C 0.33213 0.65688 0.7383 0.0
C1027 C 0.35363 0.61265 0.75292 0.0
C1028 C 0.35909 0.59383 0.77311 0.0
C1029 C 0.33927 0.63855 0.7584 0.0
C1030 C 0.35147 0.60205 0.799 0.0
C1031 C 0.33772 0.6277 0.80459 0.0
H1032 H 0.86145 0.51111 0.52069 0.0
H1033 H 0.93821 0.46202 0.53138 0.0
H1034 H 0.90727 0.41986 0.54296 0.0
H1035 H 0.85821 0.39546 0.54577 0.0
H1036 H 0.78067 0.44331 0.53336 0.0
H1037 H 0.81208 0.48752 0.52707 0.0
C1038 C 0.87134 0.49134 0.52608 0.0
C1039 C 0.90194 0.48948 0.52505 0.0
C1040 C 0.85329 0.46691 0.53215 0.0
C1041 C 0.91462 0.46375 0.53185 0.0
C1042 C 0.89696 0.43967 0.53842 0.0
C1043 C 0.8481 0.41561 0.54197 0.0
C1044 C 0.81708 0.41591 0.53976 0.0
C1045 C 0.86621 0.44074 0.53793 0.0
C1046 C 0.80448 0.44236 0.53503 0.0
C1047 C 0.82243 0.46766 0.53136 0.0
H1048 H 0.75012 0.82189 0.80551 0.0
H1049 H 0.80356 0.90429 0.82445 0.0
H1050 H 0.76027 0.93147 0.81447 0.0
H1051 H 0.70809 0.93172 0.79776 0.0
H1052 H 0.65449 0.84933 0.77794 0.0
H1053 H 0.69697 0.82223 0.79071 0.0
C1054 C 0.75203 0.84578 0.808 0.0
C1055 C 0.77984 0.86114 0.81581 0.0
C1056 C 0.72719 0.86123 0.80161 0.0
C1057 C 0.78228 0.89209 0.81851 0.0
C1058 C 0.75761 0.90759 0.81266 0.0
C1059 C 0.70566 0.90783 0.79616 0.0
C1060 C 0.67817 0.89262 0.78664 0.0
C1061 C 0.73011 0.89239 0.80365 0.0
C1062 C 0.67541 0.86164 0.78504 0.0
C1063 C 0.69968 0.8461 0.79242 0.0
H1064 H 0.6541 0.54484 0.97371 0.0
H1065 H 0.65797 0.51089 0.89187 0.0
H1066 H 0.70796 0.53525 0.89232 0.0
H1067 H 0.7501 0.56699 0.91589 0.0
H1068 H 0.74491 0.60238 0.9973 0.0
H1069 H 0.69596 0.57656 0.99715 0.0
C1070 C 0.66607 0.54253 0.9561 0.0
C1071 C 0.6526 0.52597 0.93287 0.0
C1072 C 0.69447 0.55694 0.9564 0.0
C1073 C 0.668 0.5236 0.90996 0.0
C1074 C 0.69652 0.53747 0.91024 0.0
C1075 C 0.7383 0.56895 0.93362 0.0
C1076 C 0.75118 0.58658 0.95656 0.0
C1077 C 0.70992 0.55434 0.93331 0.0
C1078 C 0.73549 0.58907 0.97932 0.0
C1079 C 0.7075 0.57426 0.9793 0.0
H1080 H 0.20358 0.67495 0.24198 0.0
H1081 H 0.27566 0.61881 0.241 0.0
H1082 H 0.24413 0.57895 0.25585 0.0
H1083 H 0.1956 0.55943 0.26712 0.0
H1084 H 0.12291 0.61495 0.26648 0.0
H1085 H 0.15521 0.65568 0.25408 0.0
C1086 C 0.21233 0.65392 0.24487 0.0
C1087 C 0.24188 0.64982 0.2403 0.0
C1088 C 0.19399 0.63102 0.25306 0.0
C1089 C 0.25308 0.62264 0.24462 0.0
C1090 C 0.23502 0.59979 0.25296 0.0
C1091 C 0.18682 0.58049 0.26446 0.0
C1092 C 0.15684 0.5841 0.26765 0.0
C1093 C 0.20539 0.60367 0.25702 0.0
C1094 C 0.14587 0.61154 0.26409 0.0
C1095 C 0.16431 0.63484 0.25696 0.0
H1096 H 0.94398 0.53093 0.06437 0.0
H1097 H 0.99616 0.51917 0.99741 0.0
H1098 H 0.96921 0.55509 0.97452 0.0
H1099 H 0.92737 0.58594 0.97142 0.0
H1100 H 0.87699 0.60014 0.03917 0.0
H1101 H 0.90721 0.56785 0.06405 0.0
C1102 C 0.95001 0.53672 0.04508 0.0
C1103 C 0.97155 0.52162 0.03238 0.0
C1104 C 0.93463 0.55778 0.03204 0.0
C1105 C 0.979 0.52961 0.00734 0.0
C1106 C 0.9637 0.55031 0.99423 0.0
C1107 C 0.92333 0.58232 0.99178 0.0
C1108 C 0.89976 0.59509 0.00329 0.0
C1109 C 0.94085 0.56383 0.00602 0.0
C1110 C 0.89501 0.59054 0.02982 0.0
C1111 C 0.91217 0.57193 0.04402 0.0
H1112 H 0.11714 0.00321 0.02858 0.0
H1113 H 0.06083 0.93587 0.0587 0.0
H1114 H 0.09508 0.89927 0.04716 0.0
H1115 H 0.14148 0.8864 0.02922 0.0
H1116 H 0.1971 0.95352 0.9981 0.0
H1117 H 0.16226 0.98989 0.00872 0.0
C1118 C 0.11206 0.98046 0.0323 0.0
C1119 C 0.08637 0.9725 0.04467 0.0
C1120 C 0.13171 0.95937 0.02532 0.0
C1121 C 0.0806 0.94289 0.04967 0.0
C1122 C 0.10011 0.92183 0.04289 0.0
C1123 C 0.14593 0.90893 0.02457 0.0
C1124 C 0.17201 0.91713 0.0129 0.0
C1125 C 0.12582 0.92984 0.03084 0.0
C1126 C 0.17727 0.94648 0.00704 0.0
C1127 C 0.15737 0.96737 0.01319 0.0
loop_
_geom_bond_atom_site_label_1
_geom_bond_atom_site_label_2
_geom_bond_distance
_geom_bond_site_symmetry_2
_ccdc_geom_bond_type
H0 C5 0.930 . S
H1 C8 0.930 . S
H2 C10 0.930 . S
H3 C4 1.016 . S
C4 H3 1.016 . S
C4 N11 1.286 1_556 S
C5 H0 0.930 . S
C5 C6 1.397 . S
C5 C7 1.361 . S
C6 C5 1.397 . S
C6 C10 1.390 . S
C7 C5 1.361 . S
C7 C8 1.393 . S
C7 N11 1.413 . S
C8 H1 0.930 . S
C8 C7 1.393 . S
C8 C9 1.399 . S
C9 C8 1.399 . S
C9 C10 1.381 . S
C10 H2 0.930 . S
C10 C6 1.390 . S
C10 C9 1.381 . S
N11 C4 1.286 1_554 S
N11 C7 1.413 . S
H12 C17 0.930 . S
H13 C20 0.930 . S
H14 C22 0.930 . S
H15 C16 1.016 . S
C16 H15 1.016 . S
C16 N23 1.286 . S
C17 H12 0.930 . S
C17 C18 1.397 . S
C17 C19 1.361 . S
C18 C17 1.397 . S
C18 C22 1.390 . S
C19 C17 1.361 . S
C19 C20 1.393 . S
C19 N23 1.413 . S
C20 H13 0.930 . S
C20 C19 1.393 . S
C20 C21 1.399 . S
C21 C20 1.399 . S
C21 C22 1.381 . S
C22 H14 0.930 . S
C22 C18 1.390 . S
C22 C21 1.381 . S
N23 C16 1.286 . S
N23 C19 1.413 . S
H24 C29 0.930 . S
H25 C32 0.930 . S
H26 C34 0.930 . S
H27 C28 1.016 . S
C28 H27 1.016 . S
C28 N35 1.286 . S
C29 H24 0.930 . S
C29 C30 1.397 . S
C29 C31 1.361 . S
C30 C29 1.397 . S
C30 C34 1.390 . S
C31 C29 1.361 . S
C31 C32 1.393 . S
C31 N35 1.413 . S
C32 H25 0.930 . S
C32 C31 1.393 . S
C32 C33 1.399 . S
C33 C32 1.399 . S
C33 C34 1.381 . S
C34 H26 0.930 . S
C34 C30 1.390 . S
C34 C33 1.381 . S
N35 C28 1.286 . S
N35 C31 1.413 . S
H36 C41 0.930 . S
H37 C44 0.930 . S
H38 C46 0.930 . S
H39 C40 1.016 . S
C40 H39 1.016 . S
C40 N47 1.286 . S
C41 H36 0.930 . S
C41 C42 1.397 . S
C41 C43 1.361 . S
C42 C41 1.397 . S
C42 C46 1.390 . S
C43 C41 1.361 . S
C43 C44 1.393 . S
C43 N47 1.413 . S
C44 H37 0.930 . S
C44 C43 1.393 . S
C44 C45 1.399 . S
C45 C44 1.399 . S
C45 C46 1.381 . S
C46 H38 0.930 . S
C46 C42 1.390 . S
C46 C45 1.381 . S
N47 C40 1.286 . S
N47 C43 1.413 . S
H48 C53 0.930 . S
H49 C56 0.930 . S
H50 C58 0.930 1_545 S
H51 C52 1.016 . S
C52 H51 1.016 . S
C52 N59 1.286 . S
C53 H48 0.930 . S
C53 C54 1.397 . S
C53 C55 1.361 . S
C54 C53 1.397 . S
C54 C58 1.390 . S
C55 C53 1.361 . S
C55 C56 1.393 . S
C55 N59 1.413 . S
C56 H49 0.930 . S
C56 C55 1.393 . S
C56 C57 1.399 . S
C57 C56 1.399 . S
C57 C58 1.381 . S
C58 H50 0.930 1_565 S
C58 C54 1.390 . S
C58 C57 1.381 . S
N59 C52 1.286 . S
N59 C55 1.413 . S
H60 C65 0.930 . S
H61 C68 0.930 . S
H62 C70 0.930 . S
H63 C64 1.016 . S
C64 H63 1.016 . S
C64 N71 1.286 . S
C65 H60 0.930 . S
C65 C66 1.397 . S
C65 C67 1.361 . S
C66 C65 1.397 . S
C66 C70 1.390 . S
C67 C65 1.361 . S
C67 C68 1.393 . S
C67 N71 1.413 . S
C68 H61 0.930 . S
C68 C67 1.393 . S
C68 C69 1.399 . S
C69 C68 1.399 . S
C69 C70 1.381 . S
C70 H62 0.930 . S
C70 C66 1.390 . S
C70 C69 1.381 . S
N71 C64 1.286 . S
N71 C67 1.413 . S
H72 C77 0.930 . S
H73 C80 0.930 . S
H74 C82 0.930 . S
H75 C76 1.016 1_655 S
C76 H75 1.016 1_455 S
C76 N83 1.286 1_455 S
C77 H72 0.930 . S
C77 C78 1.397 . S
C77 C79 1.361 . S
C78 C77 1.397 . S
C78 C82 1.390 . S
C79 C77 1.361 . S
C79 C80 1.393 . S
C79 N83 1.413 . S
C80 H73 0.930 . S
C80 C79 1.393 . S
C80 C81 1.399 . S
C81 C80 1.399 . S
C81 C82 1.381 . S
C82 H74 0.930 . S
C82 C78 1.390 . S
C82 C81 1.381 . S
N83 C76 1.286 1_655 S
N83 C79 1.413 . S
H84 C89 0.930 . S
H85 C92 0.930 . S
H86 C94 0.930 . S
H87 C88 1.016 . S
C88 H87 1.016 . S
C88 N95 1.286 . S
C89 H84 0.930 . S
C89 C90 1.397 . S
C89 C91 1.361 . S
C90 C89 1.397 . S
C90 C94 1.390 . S
C91 C89 1.361 . S
C91 C92 1.393 . S
C91 N95 1.413 . S
C92 H85 0.930 . S
C92 C91 1.393 . S
C92 C93 1.399 . S
C93 C92 1.399 . S
C93 C94 1.381 . S
C94 H86 0.930 . S
C94 C90 1.390 . S
C94 C93 1.381 . S
N95 C88 1.286 . S
N95 C91 1.413 . S
H96 C101 0.930 . S
H97 C104 0.930 . S
H98 C106 0.930 . S
H99 C100 1.016 . S
C100 H99 1.016 . S
C100 N107 1.286 . S
C101 H96 0.930 . S
C101 C102 1.397 . S
C101 C103 1.361 . S
C102 C101 1.397 . S
C102 C106 1.390 . S
C103 C101 1.361 . S
C103 C104 1.393 . S
C103 N107 1.413 . S
C104 H97 0.930 . S
C104 C103 1.393 . S
C104 C105 1.399 . S
C105 C104 1.399 . S
C105 C106 1.381 . S
C106 H98 0.930 . S
C106 C102 1.390 . S
C106 C105 1.381 . S
N107 C100 1.286 . S
N107 C103 1.413 . S
H108 C113 0.930 . S
H109 C116 0.930 . S
H110 C118 0.906 1_545 S
H111 C112 1.016 . S
C112 H111 1.016 . S
C112 N119 1.286 . S
C113 H108 0.930 . S
C113 C114 1.397 . S
C113 C115 1.361 . S
C114 C113 1.397 . S
C114 C118 1.390 . S
C115 C113 1.361 . S
C115 C116 1.393 . S
C115 N119 1.413 . S
C116 H109 0.930 . S
C116 C115 1.393 . S
C116 C117 1.399 . S
C117 C116 1.399 . S
C117 C118 1.406 . S
C118 H110 0.906 1_565 S
C118 C114 1.390 . S
C118 C117 1.406 . S
N119 C112 1.286 . S
N119 C115 1.413 . S
H120 C125 0.930 . S
H121 C128 0.930 . S
H122 C130 0.930 . S
H123 C124 1.016 . S
C124 H123 1.016 . S
C124 N131 1.286 . S
C125 H120 0.930 . S
C125 C126 1.397 . S
C125 C127 1.361 . S
C126 C125 1.397 . S
C126 C130 1.390 . S
C127 C125 1.361 . S
C127 C128 1.393 . S
C127 N131 1.413 . S
C128 H121 0.930 . S
C128 C127 1.393 . S
C128 C129 1.399 . S
C129 C128 1.399 . S
C129 C130 1.381 . S
C130 H122 0.930 . S
C130 C126 1.390 . S
C130 C129 1.381 . S
N131 C124 1.286 . S
N131 C127 1.413 . S
H132 C137 0.930 . S
H133 C140 0.930 . S
H134 C142 0.930 . S
H135 C136 1.016 . S
C136 H135 1.016 . S
C136 N143 1.286 . S
C137 H132 0.930 . S
C137 C138 1.397 . S
C137 C139 1.361 . S
C138 C137 1.397 . S
C138 C142 1.390 . S
C139 C137 1.361 . S
C139 C140 1.393 . S
C139 N143 1.413 . S
C140 H133 0.930 . S
C140 C139 1.393 . S
C140 C141 1.399 . S
C141 C140 1.399 . S
C141 C142 1.381 . S
C142 H134 0.930 . S
C142 C138 1.390 . S
C142 C141 1.381 . S
N143 C136 1.286 . S
N143 C139 1.413 . S
H144 C149 0.930 . S
H145 C152 0.930 . S
H146 C154 0.930 . S
H147 C148 1.016 . S
C148 H147 1.016 . S
C148 N155 1.286 . S
C149 H144 0.930 . S
C149 C150 1.397 . S
C149 C151 1.361 . S
C150 C149 1.397 . S
C150 C154 1.390 . S
C151 C149 1.361 . S
C151 C152 1.393 . S
C151 N155 1.413 . S
C152 H145 0.930 . S
C152 C151 1.393 . S
C152 C153 1.399 . S
C153 C152 1.399 . S
C153 C154 1.381 . S
C154 H146 0.930 . S
C154 C150 1.390 . S
C154 C153 1.381 . S
N155 C148 1.286 . S
N155 C151 1.413 . S
H156 C161 0.930 . S
H157 C164 0.930 . S
H158 C166 0.930 . S
H159 C160 1.016 . S
C160 H159 1.016 . S
C160 N167 1.286 1_554 S
C161 H156 0.930 . S
C161 C162 1.397 . S
C161 C163 1.361 . S
C162 C161 1.397 . S
C162 C166 1.390 . S
C163 C161 1.361 . S
C163 C164 1.393 . S
C163 N167 1.413 . S
C164 H157 0.930 . S
C164 C163 1.393 . S
C164 C165 1.399 . S
C165 C164 1.399 . S
C165 C166 1.381 . S
C166 H158 0.930 . S
C166 C162 1.390 . S
C166 C165 1.381 . S
N167 C160 1.286 1_556 S
N167 C163 1.413 . S
H168 C173 0.930 . S
H169 C176 0.930 . S
H170 C178 0.930 . S
H171 C172 1.016 . S
C172 H171 1.016 . S
C172 N179 1.286 . S
C173 H168 0.930 . S
C173 C174 1.397 . S
C173 C175 1.361 . S
C174 C173 1.397 . S
C174 C178 1.390 . S
C175 C173 1.361 . S
C175 C176 1.393 . S
C175 N179 1.413 . S
C176 H169 0.930 . S
C176 C175 1.393 . S
C176 C177 1.399 . S
C177 C176 1.399 . S
C177 C178 1.381 . S
C178 H170 0.930 . S
C178 C174 1.390 . S
C178 C177 1.381 . S
N179 C172 1.286 . S
N179 C175 1.413 . S
H180 C185 0.930 . S
H181 C188 0.930 . S
H182 C190 0.930 . S
H183 C184 1.016 . S
C184 H183 1.016 . S
C184 N191 1.286 . S
C185 H180 0.930 . S
C185 C186 1.397 . S
C185 C187 1.361 . S
C186 C185 1.397 . S
C186 C190 1.390 . S
C187 C185 1.361 . S
C187 C188 1.393 . S
C187 N191 1.413 . S
C188 H181 0.930 . S
C188 C187 1.393 . S
C188 C189 1.399 . S
C189 C188 1.399 . S
C189 C190 1.381 . S
C190 H182 0.930 . S
C190 C186 1.390 . S
C190 C189 1.381 . S
N191 C184 1.286 . S
N191 C187 1.413 . S
Zn192 O195 2.031 . S
Zn192 O197 2.035 1_554 S
Zn192 O202 2.067 1_554 S
Zn193 O194 1.962 . S
Zn193 O196 1.986 . S
Zn193 O198 1.996 . S
Zn193 O201 1.943 1_554 S
O194 Zn193 1.962 . S
O194 C199 1.254 . S
O195 Zn192 2.031 . S
O195 C199 1.269 . S
O196 Zn193 1.986 . S
O196 C203 1.262 . S
O197 Zn192 2.035 1_556 S
O197 C205 1.252 1_556 S
O198 Zn193 1.996 . S
O198 C205 1.257 . S
C199 O194 1.254 . S
C199 O195 1.269 . S
C200 O201 1.249 . S
C200 O202 1.270 . S
O201 Zn193 1.943 1_556 S
O201 C200 1.249 . S
O202 Zn192 2.067 1_556 S
O202 C200 1.270 . S
C203 O196 1.262 . S
C203 O204 1.232 . S
O204 C203 1.232 . S
C205 O197 1.252 1_554 S
C205 O198 1.257 . S
Zn206 O209 2.031 . S
Zn206 O211 2.049 . S
Zn206 O216 2.067 . S
Zn207 O208 1.962 . S
Zn207 O210 1.986 . S
Zn207 O212 1.996 . S
Zn207 O215 1.943 . S
O208 Zn207 1.962 . S
O208 C213 1.254 . S
O209 Zn206 2.031 . S
O209 C213 1.269 . S
O210 Zn207 1.986 . S
O210 C217 1.262 . S
O211 Zn206 2.049 . S
O211 C219 1.260 . S
O212 Zn207 1.996 . S
O212 C219 1.257 . S
C213 O208 1.254 . S
C213 O209 1.269 . S
C214 O215 1.249 . S
C214 O216 1.270 . S
O215 Zn207 1.943 . S
O215 C214 1.249 . S
O216 Zn206 2.067 . S
O216 C214 1.270 . S
C217 O210 1.262 . S
C217 O218 1.232 . S
O218 C217 1.232 . S
C219 O211 1.260 . S
C219 O212 1.257 . S
Zn220 O223 2.031 . S
Zn220 O225 2.049 . S
Zn220 O230 2.067 . S
Zn221 O222 1.962 . S
Zn221 O224 1.986 . S
Zn221 O226 1.996 1_554 S
Zn221 O229 1.943 . S
O222 Zn221 1.962 . S
O222 C227 1.254 . S
O223 Zn220 2.031 . S
O223 C227 1.269 1_556 S
O224 Zn221 1.986 . S
O224 C231 1.262 . S
O225 Zn220 2.049 . S
O225 C233 1.260 . S
O226 Zn221 1.996 1_556 S
O226 C233 1.257 . S
C227 O222 1.254 . S
C227 O223 1.269 1_554 S
C228 O229 1.249 1_556 S
C228 O230 1.270 . S
O229 Zn221 1.943 . S
O229 C228 1.249 1_554 S
O230 Zn220 2.067 . S
O230 C228 1.270 . S
C231 O224 1.262 . S
C231 O232 1.232 . S
O232 C231 1.232 . S
C233 O225 1.260 . S
C233 O226 1.257 . S
Zn234 O237 2.031 . S
Zn234 O239 2.049 . S
Zn234 O244 2.067 1_545 S
Zn235 O236 1.962 . S
Zn235 O238 1.986 . S
Zn235 O240 1.996 . S
Zn235 O243 1.943 1_545 S
O236 Zn235 1.962 . S
O236 C241 1.254 . S
O237 Zn234 2.031 . S
O237 C241 1.269 . S
O238 Zn235 1.986 . S
O238 C245 1.262 . S
O239 Zn234 2.049 . S
O239 C247 1.260 . S
O240 Zn235 1.996 . S
O240 C247 1.257 . S
C241 O236 1.254 . S
C241 O237 1.269 . S
C242 O243 1.249 . S
C242 O244 1.270 . S
O243 Zn235 1.943 1_565 S
O243 C242 1.249 . S
O244 Zn234 2.067 1_565 S
O244 C242 1.270 . S
C245 O238 1.262 . S
C245 O246 1.232 . S
O246 C245 1.232 . S
C247 O239 1.260 . S
C247 O240 1.257 . S
Zn248 O251 2.031 . S
Zn248 O253 2.049 . S
Zn248 O258 2.067 . S
Zn249 O250 1.962 . S
Zn249 O252 1.986 . S
Zn249 O254 1.996 . S
Zn249 O257 1.943 . S
O250 Zn249 1.962 . S
O250 C255 1.254 . S
O251 Zn248 2.031 . S
O251 C255 1.269 . S
O252 Zn249 1.986 . S
O252 C259 1.262 . S
O253 Zn248 2.049 . S
O253 C261 1.260 . S
O254 Zn249 1.996 . S
O254 C261 1.257 . S
C255 O250 1.254 . S
C255 O251 1.269 . S
C256 O257 1.249 . S
C256 O258 1.270 . S
O257 Zn249 1.943 . S
O257 C256 1.249 . S
O258 Zn248 2.067 . S
O258 C256 1.270 . S
C259 O252 1.262 . S
C259 O260 1.232 . S
O260 C259 1.232 . S
C261 O253 1.260 . S
C261 O254 1.257 . S
Zn262 O265 2.031 . S
Zn262 O267 2.049 . S
Zn262 O272 2.067 . S
Zn263 O264 1.962 . S
Zn263 O266 1.986 . S
Zn263 O268 1.996 . S
Zn263 O271 1.943 . S
O264 Zn263 1.962 . S
O264 C269 1.254 . S
O265 Zn262 2.031 . S
O265 C269 1.269 . S
O266 Zn263 1.986 . S
O266 C273 1.262 . S
O267 Zn262 2.049 . S
O267 C275 1.260 . S
O268 Zn263 1.996 . S
O268 C275 1.257 . S
C269 O264 1.254 . S
C269 O265 1.269 . S
C270 O271 1.249 . S
C270 O272 1.270 . S
O271 Zn263 1.943 . S
O271 C270 1.249 . S
O272 Zn262 2.067 . S
O272 C270 1.270 . S
C273 O266 1.262 . S
C273 O274 1.232 . S
O274 C273 1.232 . S
C275 O267 1.260 . S
C275 O268 1.257 . S
Zn276 O279 2.031 . S
Zn276 O281 2.049 . S
Zn276 O286 2.067 . S
Zn277 O278 1.962 . S
Zn277 O280 1.986 . S
Zn277 O282 1.996 . S
Zn277 O285 1.943 . S
O278 Zn277 1.962 . S
O278 C283 1.254 . S
O279 Zn276 2.031 . S
O279 C283 1.269 . S
O280 Zn277 1.986 . S
O280 C287 1.262 . S
O281 Zn276 2.049 . S
O281 C289 1.260 . S
O282 Zn277 1.996 . S
O282 C289 1.257 . S
C283 O278 1.254 . S
C283 O279 1.269 . S
C284 O285 1.249 . S
C284 O286 1.270 . S
O285 Zn277 1.943 . S
O285 C284 1.249 . S
O286 Zn276 2.067 . S
O286 C284 1.270 . S
C287 O280 1.262 . S
C287 O288 1.232 . S
O288 C287 1.232 . S
C289 O281 1.260 . S
C289 O282 1.257 . S
Zn290 O293 2.031 . S
Zn290 O295 2.049 . S
Zn290 O300 2.067 . S
Zn291 O292 1.962 . S
Zn291 O294 1.986 . S
Zn291 O296 1.996 1_545 S
Zn291 O299 1.943 . S
O292 Zn291 1.962 . S
O292 C297 1.254 . S
O293 Zn290 2.031 . S
O293 C297 1.269 1_565 S
O294 Zn291 1.986 . S
O294 C301 1.262 . S
O295 Zn290 2.049 . S
O295 C303 1.260 . S
O296 Zn291 1.996 1_565 S
O296 C303 1.257 . S
C297 O292 1.254 . S
C297 O293 1.269 1_545 S
C298 O299 1.249 1_565 S
C298 O300 1.270 . S
O299 Zn291 1.943 . S
O299 C298 1.249 1_545 S
O300 Zn290 2.067 . S
O300 C298 1.270 . S
C301 O294 1.262 . S
C301 O302 1.232 . S
O302 C301 1.232 . S
C303 O295 1.260 . S
C303 O296 1.257 . S
Zn304 O307 2.031 . S
Zn304 O309 2.049 1_455 S
Zn304 O314 2.067 1_455 S
Zn305 O306 1.962 . S
Zn305 O308 1.986 . S
Zn305 O310 1.996 . S
Zn305 O313 1.943 1_455 S
O306 Zn305 1.962 . S
O306 C311 1.254 . S
O307 Zn304 2.031 . S
O307 C311 1.269 . S
O308 Zn305 1.986 . S
O308 C315 1.262 . S
O309 Zn304 2.049 1_655 S
O309 C317 1.260 . S
O310 Zn305 1.996 . S
O310 C317 1.257 1_455 S
C311 O306 1.254 . S
C311 O307 1.269 . S
C312 O313 1.249 . S
C312 O314 1.270 . S
O313 Zn305 1.943 1_655 S
O313 C312 1.249 . S
O314 Zn304 2.067 1_655 S
O314 C312 1.270 . S
C315 O308 1.262 . S
C315 O316 1.232 . S
O316 C315 1.232 . S
C317 O309 1.260 . S
C317 O310 1.257 1_655 S
Zn318 O321 2.031 . S
Zn318 O323 2.049 . S
Zn318 O328 2.067 . S
Zn319 O320 1.962 . S
Zn319 O322 1.986 . S
Zn319 O324 1.996 . S
Zn319 O327 1.943 . S
O320 Zn319 1.962 . S
O320 C325 1.254 . S
O321 Zn318 2.031 . S
O321 C325 1.269 . S
O322 Zn319 1.986 . S
O322 C329 1.262 . S
O323 Zn318 2.049 . S
O323 C331 1.260 . S
O324 Zn319 1.996 . S
O324 C331 1.257 . S
C325 O320 1.254 . S
C325 O321 1.269 . S
C326 O327 1.249 . S
C326 O328 1.270 . S
O327 Zn319 1.943 . S
O327 C326 1.249 . S
O328 Zn318 2.067 . S
O328 C326 1.270 . S
C329 O322 1.262 . S
C329 O330 1.232 . S
O330 C329 1.232 . S
C331 O323 1.260 . S
C331 O324 1.257 . S
Zn332 O335 2.031 1_655 S
Zn332 O337 2.049 . S
Zn332 O342 2.067 . S
Zn333 O334 1.962 . S
Zn333 O336 1.986 . S
Zn333 O338 1.996 1_455 S
Zn333 O341 1.943 . S
O334 Zn333 1.962 . S
O334 C339 1.254 . S
O335 Zn332 2.031 1_455 S
O335 C339 1.269 . S
O336 Zn333 1.986 . S
O336 C343 1.262 . S
O337 Zn332 2.049 . S
O337 C345 1.260 . S
O338 Zn333 1.996 1_655 S
O338 C345 1.257 . S
C339 O334 1.254 . S
C339 O335 1.269 . S
C340 O341 1.250 1_655 S
C340 O342 1.269 . S
O341 Zn333 1.943 . S
O341 C340 1.250 1_455 S
O342 Zn332 2.067 . S
O342 C340 1.269 . S
C343 O336 1.262 . S
C343 O344 1.232 . S
O344 C343 1.232 . S
C345 O337 1.260 . S
C345 O338 1.257 . S
Zn346 O349 2.031 . S
Zn346 O351 2.049 . S
Zn346 O356 2.067 . S
Zn347 O348 1.962 . S
Zn347 O350 1.986 . S
Zn347 O352 1.996 . S
Zn347 O355 1.943 . S
O348 Zn347 1.962 . S
O348 C353 1.254 . S
O349 Zn346 2.031 . S
O349 C353 1.269 . S
O350 Zn347 1.986 . S
O350 C357 1.262 . S
O351 Zn346 2.049 . S
O351 C359 1.260 . S
O352 Zn347 1.996 . S
O352 C359 1.257 . S
C353 O348 1.254 . S
C353 O349 1.269 . S
C354 O355 1.249 . S
C354 O356 1.270 . S
O355 Zn347 1.943 . S
O355 C354 1.249 . S
O356 Zn346 2.067 . S
O356 C354 1.270 . S
C357 O350 1.262 . S
C357 O358 1.232 . S
O358 C357 1.232 . S
C359 O351 1.260 . S
C359 O352 1.257 . S
H360 C366 0.930 . S
H361 C369 0.930 . S
H362 C370 0.930 . S
H363 C371 0.930 . S
H364 C374 0.930 . S
H365 C375 0.930 . S
C366 H360 0.930 . S
C366 C367 1.355 . S
C366 C368 1.415 . S
C367 C366 1.355 . S
C367 C369 1.419 . S
C368 C366 1.415 . S
C368 C373 1.425 . S
C368 C375 1.409 . S
C369 H361 0.930 . S
C369 C367 1.419 . S
C369 C370 1.362 . S
C370 H362 0.930 . S
C370 C369 1.362 . S
C370 C373 1.409 . S
C371 H363 0.930 . S
C371 C372 1.355 . S
C371 C373 1.415 . S
C372 C371 1.355 . S
C372 C374 1.419 . S
C373 C368 1.425 . S
C373 C370 1.409 . S
C373 C371 1.415 . S
C374 H364 0.930 . S
C374 C372 1.419 . S
C374 C375 1.362 . S
C375 H365 0.930 . S
C375 C368 1.409 . S
C375 C374 1.362 . S
H376 C382 0.930 . S
H377 C385 0.931 1_655 S
H378 C386 0.930 . S
H379 C387 0.930 . S
H380 C390 0.930 . S
H381 C391 0.930 . S
C382 H376 0.930 . S
C382 C383 1.355 . S
C382 C384 1.415 . S
C383 C382 1.355 . S
C383 C385 1.419 . S
C384 C382 1.415 . S
C384 C389 1.425 . S
C384 C391 1.409 . S
C385 H377 0.931 1_455 S
C385 C383 1.419 . S
C385 C386 1.362 . S
C386 H378 0.930 . S
C386 C385 1.362 . S
C386 C389 1.409 . S
C387 H379 0.930 . S
C387 C388 1.355 . S
C387 C389 1.415 . S
C388 C387 1.355 . S
C388 C390 1.419 . S
C389 C384 1.425 . S
C389 C386 1.409 . S
C389 C387 1.415 . S
C390 H380 0.930 . S
C390 C388 1.419 . S
C390 C391 1.362 . S
C391 H381 0.930 . S
C391 C384 1.409 . S
C391 C390 1.362 . S
H392 C398 0.930 . S
H393 C401 0.930 . S
H394 C402 0.930 . S
H395 C403 0.930 . S
H396 C406 0.930 . S
H397 C407 0.930 . S
C398 H392 0.930 . S
C398 C399 1.355 . S
C398 C400 1.415 . S
C399 C398 1.355 . S
C399 C401 1.419 . S
C400 C398 1.415 . S
C400 C405 1.425 . S
C400 C407 1.409 . S
C401 H393 0.930 . S
C401 C399 1.419 . S
C401 C402 1.362 . S
C402 H394 0.930 . S
C402 C401 1.362 . S
C402 C405 1.409 . S
C403 H395 0.930 . S
C403 C404 1.355 . S
C403 C405 1.415 . S
C404 C403 1.355 . S
C404 C406 1.419 . S
C405 C400 1.425 . S
C405 C402 1.409 . S
C405 C403 1.415 . S
C406 H396 0.930 . S
C406 C404 1.419 . S
C406 C407 1.362 . S
C407 H397 0.930 . S
C407 C400 1.409 . S
C407 C406 1.362 . S
H408 C414 0.930 . S
H409 C417 0.930 . S
H410 C418 0.908 1_655 S
H411 C419 0.930 . S
H412 C422 0.930 . S
H413 C423 0.930 . S
C414 H408 0.930 . S
C414 C415 1.355 . S
C414 C416 1.415 . S
C415 C414 1.355 . S
C415 C417 1.419 . S
C416 C414 1.415 . S
C416 C421 1.425 . S
C416 C423 1.409 1_565 S
C417 H409 0.930 . S
C417 C415 1.419 . S
C417 C418 1.377 . S
C418 H410 0.908 1_455 S
C418 C417 1.377 . S
C418 C421 1.416 . S
C419 H411 0.930 . S
C419 C420 1.355 1_565 S
C419 C421 1.415 1_655 S
C420 C419 1.355 1_545 S
C420 C422 1.419 1_655 S
C421 C416 1.425 . S
C421 C418 1.416 . S
C421 C419 1.415 1_455 S
C422 H412 0.930 . S
C422 C420 1.419 1_455 S
C422 C423 1.362 . S
C423 H413 0.930 . S
C423 C416 1.409 1_545 S
C423 C422 1.362 . S
H424 C430 0.930 . S
H425 C433 0.930 . S
H426 C434 0.930 . S
H427 C435 0.930 . S
H428 C438 0.930 . S
H429 C439 0.930 . S
C430 H424 0.930 . S
C430 C431 1.355 . S
C430 C432 1.415 . S
C431 C430 1.355 . S
C431 C433 1.419 . S
C432 C430 1.415 . S
C432 C437 1.425 . S
C432 C439 1.409 . S
C433 H425 0.930 . S
C433 C431 1.419 . S
C433 C434 1.362 . S
C434 H426 0.930 . S
C434 C433 1.362 . S
C434 C437 1.409 . S
C435 H427 0.930 . S
C435 C436 1.355 . S
C435 C437 1.415 . S
C436 C435 1.355 . S
C436 C438 1.419 . S
C437 C432 1.425 . S
C437 C434 1.409 . S
C437 C435 1.415 . S
C438 H428 0.930 . S
C438 C436 1.419 . S
C438 C439 1.362 . S
C439 H429 0.930 . S
C439 C432 1.409 . S
C439 C438 1.362 . S
H440 C446 0.930 . S
H441 C449 0.930 . S
H442 C450 0.930 . S
H443 C451 0.930 . S
H444 C454 0.930 . S
H445 C455 0.930 . S
C446 H440 0.930 . S
C446 C447 1.355 . S
C446 C448 1.415 . S
C447 C446 1.355 . S
C447 C449 1.419 . S
C448 C446 1.415 . S
C448 C453 1.425 . S
C448 C455 1.409 . S
C449 H441 0.930 . S
C449 C447 1.419 . S
C449 C450 1.362 . S
C450 H442 0.930 . S
C450 C449 1.362 . S
C450 C453 1.409 . S
C451 H443 0.930 . S
C451 C452 1.355 . S
C451 C453 1.415 . S
C452 C451 1.355 . S
C452 C454 1.419 . S
C453 C448 1.425 . S
C453 C450 1.409 . S
C453 C451 1.415 . S
C454 H444 0.930 . S
C454 C452 1.419 . S
C454 C455 1.362 . S
C455 H445 0.930 . S
C455 C448 1.409 . S
C455 C454 1.362 . S
H456 C462 0.930 . S
H457 C465 0.930 . S
H458 C466 0.930 . S
H459 C467 0.930 . S
H460 C470 0.930 . S
H461 C471 0.930 . S
C462 H456 0.930 . S
C462 C463 1.355 . S
C462 C464 1.415 . S
C463 C462 1.355 . S
C463 C465 1.419 . S
C464 C462 1.415 . S
C464 C469 1.425 . S
C464 C471 1.409 . S
C465 H457 0.930 . S
C465 C463 1.419 . S
C465 C466 1.362 . S
C466 H458 0.930 . S
C466 C465 1.362 . S
C466 C469 1.409 . S
C467 H459 0.930 . S
C467 C468 1.355 . S
C467 C469 1.415 . S
C468 C467 1.355 . S
C468 C470 1.419 . S
C469 C464 1.425 . S
C469 C466 1.409 . S
C469 C467 1.415 . S
C470 H460 0.930 . S
C470 C468 1.419 . S
C470 C471 1.362 . S
C471 H461 0.930 . S
C471 C464 1.409 . S
C471 C470 1.362 . S
H472 C478 0.925 1_545 S
H473 C481 0.930 . S
H474 C482 0.930 . S
H475 C483 0.930 . S
H476 C486 0.930 . S
H477 C487 0.930 . S
C478 H472 0.925 1_565 S
C478 C479 1.358 . S
C478 C480 1.416 . S
C479 C478 1.358 . S
C479 C481 1.419 . S
C480 C478 1.416 . S
C480 C485 1.425 . S
C480 C487 1.409 1_565 S
C481 H473 0.930 . S
C481 C479 1.419 . S
C481 C482 1.362 . S
C482 H474 0.930 . S
C482 C481 1.362 . S
C482 C485 1.409 . S
C483 H475 0.930 . S
C483 C484 1.355 . S
C483 C485 1.415 . S
C484 C483 1.355 . S
C484 C486 1.419 1_565 S
C485 C480 1.425 . S
C485 C482 1.409 . S
C485 C483 1.415 . S
C486 H476 0.930 . S
C486 C484 1.419 1_545 S
C486 C487 1.362 . S
C487 H477 0.930 . S
C487 C480 1.409 1_545 S
C487 C486 1.362 . S
H488 C494 0.930 . S
H489 C497 0.930 . S
H490 C498 0.930 . S
H491 C499 0.930 . S
H492 C502 0.930 . S
H493 C503 0.930 . S
C494 H488 0.930 . S
C494 C495 1.355 . S
C494 C496 1.415 . S
C495 C494 1.355 . S
C495 C497 1.419 . S
C496 C494 1.415 . S
C496 C501 1.425 . S
C496 C503 1.409 . S
C497 H489 0.930 . S
C497 C495 1.419 . S
C497 C498 1.362 . S
C498 H490 0.930 . S
C498 C497 1.362 . S
C498 C501 1.409 . S
C499 H491 0.930 . S
C499 C500 1.355 . S
C499 C501 1.415 . S
C500 C499 1.355 . S
C500 C502 1.419 . S
C501 C496 1.425 . S
C501 C498 1.409 . S
C501 C499 1.415 . S
C502 H492 0.930 . S
C502 C500 1.419 . S
C502 C503 1.362 . S
C503 H493 0.930 . S
C503 C496 1.409 . S
C503 C502 1.362 . S
H504 C510 0.930 . S
H505 C513 0.930 . S
H506 C514 0.930 . S
H507 C515 0.930 . S
H508 C518 0.930 . S
H509 C519 0.930 . S
C510 H504 0.930 . S
C510 C511 1.355 . S
C510 C512 1.415 . S
C511 C510 1.355 . S
C511 C513 1.419 . S
C512 C510 1.415 . S
C512 C517 1.425 . S
C512 C519 1.409 . S
C513 H505 0.930 . S
C513 C511 1.419 . S
C513 C514 1.362 . S
C514 H506 0.930 . S
C514 C513 1.362 . S
C514 C517 1.409 . S
C515 H507 0.930 . S
C515 C516 1.355 . S
C515 C517 1.415 . S
C516 C515 1.355 . S
C516 C518 1.419 . S
C517 C512 1.425 . S
C517 C514 1.409 . S
C517 C515 1.415 . S
C518 H508 0.930 . S
C518 C516 1.419 . S
C518 C519 1.362 . S
C519 H509 0.930 . S
C519 C512 1.409 . S
C519 C518 1.362 . S
H520 C526 0.930 . S
H521 C529 0.930 . S
H522 C530 0.930 . S
H523 C531 0.930 . S
H524 C534 0.930 . S
H525 C535 0.930 . S
C526 H520 0.930 . S
C526 C527 1.355 . S
C526 C528 1.415 . S
C527 C526 1.355 . S
C527 C529 1.419 . S
C528 C526 1.415 . S
C528 C533 1.425 . S
C528 C535 1.409 . S
C529 H521 0.930 . S
C529 C527 1.419 . S
C529 C530 1.362 . S
C530 H522 0.930 . S
C530 C529 1.362 . S
C530 C533 1.409 . S
C531 H523 0.930 . S
C531 C532 1.355 . S
C531 C533 1.415 . S
C532 C531 1.355 . S
C532 C534 1.419 . S
C533 C528 1.425 . S
C533 C530 1.409 . S
C533 C531 1.415 . S
C534 H524 0.930 . S
C534 C532 1.419 . S
C534 C535 1.362 . S
C535 H525 0.930 . S
C535 C528 1.409 . S
C535 C534 1.362 . S
H536 C542 0.930 . S
H537 C545 0.930 . S
H538 C546 0.930 . S
H539 C547 0.930 . S
H540 C550 0.930 . S
H541 C551 0.930 . S
C542 H536 0.930 . S
C542 C543 1.355 . S
C542 C544 1.415 . S
C543 C542 1.355 . S
C543 C545 1.419 . S
C544 C542 1.415 . S
C544 C549 1.425 . S
C544 C551 1.409 . S
C545 H537 0.930 . S
C545 C543 1.419 . S
C545 C546 1.362 . S
C546 H538 0.930 . S
C546 C545 1.362 . S
C546 C549 1.409 . S
C547 H539 0.930 . S
C547 C548 1.355 . S
C547 C549 1.415 . S
C548 C547 1.355 . S
C548 C550 1.419 . S
C549 C544 1.425 . S
C549 C546 1.409 . S
C549 C547 1.415 . S
C550 H540 0.930 . S
C550 C548 1.419 . S
C550 C551 1.362 . S
C551 H541 0.930 . S
C551 C544 1.409 . S
C551 C550 1.362 . S
H552 C558 0.930 . S
H553 C561 0.930 . S
H554 C562 0.930 . S
H555 C563 0.930 . S
H556 C566 0.930 . S
H557 C567 0.930 . S
C558 H552 0.930 . S
C558 C559 1.355 . S
C558 C560 1.415 . S
C559 C558 1.355 . S
C559 C561 1.419 . S
C560 C558 1.415 . S
C560 C565 1.425 . S
C560 C567 1.409 . S
C561 H553 0.930 . S
C561 C559 1.419 . S
C561 C562 1.362 . S
C562 H554 0.930 . S
C562 C561 1.362 . S
C562 C565 1.409 . S
C563 H555 0.930 . S
C563 C564 1.355 . S
C563 C565 1.415 . S
C564 C563 1.355 . S
C564 C566 1.419 . S
C565 C560 1.425 . S
C565 C562 1.409 . S
C565 C563 1.415 . S
C566 H556 0.930 . S
C566 C564 1.419 . S
C566 C567 1.362 . S
C567 H557 0.930 . S
C567 C560 1.409 . S
C567 C566 1.362 . S
H568 C574 0.930 . S
H569 C577 0.930 . S
H570 C578 0.930 . S
H571 C579 0.930 . S
H572 C582 0.930 1_655 S
H573 C583 0.930 . S
C574 H568 0.930 . S
C574 C575 1.355 . S
C574 C576 1.415 . S
C575 C574 1.355 . S
C575 C577 1.419 . S
C576 C574 1.415 . S
C576 C581 1.425 . S
C576 C583 1.409 . S
C577 H569 0.930 . S
C577 C575 1.419 . S
C577 C578 1.362 . S
C578 H570 0.930 . S
C578 C577 1.362 . S
C578 C581 1.409 . S
C579 H571 0.930 . S
C579 C580 1.355 . S
C579 C581 1.415 . S
C580 C579 1.355 . S
C580 C582 1.419 . S
C581 C576 1.425 . S
C581 C578 1.409 . S
C581 C579 1.415 . S
C582 H572 0.930 1_455 S
C582 C580 1.419 . S
C582 C583 1.362 . S
C583 H573 0.930 . S
C583 C576 1.409 . S
C583 C582 1.362 . S
H584 C590 0.930 . S
H585 C593 0.930 . S
H586 C594 0.930 . S
H587 C595 0.930 . S
H588 C598 0.930 . S
H589 C599 0.930 . S
C590 H584 0.930 . S
C590 C591 1.355 . S
C590 C592 1.415 . S
C591 C590 1.355 . S
C591 C593 1.419 . S
C592 C590 1.415 . S
C592 C597 1.425 . S
C592 C599 1.409 . S
C593 H585 0.930 . S
C593 C591 1.419 . S
C593 C594 1.362 . S
C594 H586 0.930 . S
C594 C593 1.362 . S
C594 C597 1.409 . S
C595 H587 0.930 . S
C595 C596 1.355 . S
C595 C597 1.415 . S
C596 C595 1.355 . S
C596 C598 1.419 . S
C597 C592 1.425 . S
C597 C594 1.409 . S
C597 C595 1.415 . S
C598 H588 0.930 . S
C598 C596 1.419 . S
C598 C599 1.362 . S
C599 H589 0.930 . S
C599 C592 1.409 . S
C599 C598 1.362 . S
H600 C606 0.930 . S
H601 C609 0.930 . S
H602 C610 0.930 . S
H603 C611 0.930 . S
H604 C614 0.930 . S
H605 C615 0.930 . S
C606 H600 0.930 . S
C606 C607 1.355 . S
C606 C608 1.415 . S
C607 C606 1.355 . S
C607 C609 1.419 . S
C608 C606 1.415 . S
C608 C613 1.425 . S
C608 C615 1.409 . S
C609 H601 0.930 . S
C609 C607 1.419 . S
C609 C610 1.362 1_655 S
C610 H602 0.930 . S
C610 C609 1.362 1_455 S
C610 C613 1.409 1_455 S
C611 H603 0.930 . S
C611 C612 1.356 . S
C611 C613 1.415 1_455 S
C612 C611 1.356 . S
C612 C614 1.417 1_455 S
C613 C608 1.425 . S
C613 C610 1.409 1_655 S
C613 C611 1.415 1_655 S
C614 H604 0.930 . S
C614 C612 1.417 1_655 S
C614 C615 1.362 . S
C615 H605 0.930 . S
C615 C608 1.409 . S
C615 C614 1.362 . S
H616 C622 0.930 . S
H617 C625 0.930 . S
H618 C626 0.930 . S
H619 C627 0.930 . S
H620 C630 0.930 . S
H621 C631 0.930 . S
C622 H616 0.930 . S
C622 C623 1.355 . S
C622 C624 1.415 . S
C623 C622 1.355 . S
C623 C625 1.419 . S
C624 C622 1.415 . S
C624 C629 1.425 . S
C624 C631 1.409 . S
C625 H617 0.930 . S
C625 C623 1.419 . S
C625 C626 1.362 . S
C626 H618 0.930 . S
C626 C625 1.362 . S
C626 C629 1.409 . S
C627 H619 0.930 . S
C627 C628 1.355 . S
C627 C629 1.415 . S
C628 C627 1.355 . S
C628 C630 1.419 . S
C629 C624 1.425 . S
C629 C626 1.409 . S
C629 C627 1.415 . S
C630 H620 0.930 . S
C630 C628 1.419 . S
C630 C631 1.362 . S
C631 H621 0.930 . S
C631 C624 1.409 . S
C631 C630 1.362 . S
H632 C638 0.930 . S
H633 C641 0.930 . S
H634 C642 0.930 . S
H635 C643 0.930 . S
H636 C646 0.930 . S
H637 C647 0.930 . S
C638 H632 0.930 . S
C638 C639 1.355 . S
C638 C640 1.415 . S
C639 C638 1.355 . S
C639 C641 1.419 . S
C640 C638 1.415 . S
C640 C645 1.425 . S
C640 C647 1.409 . S
C641 H633 0.930 . S
C641 C639 1.419 . S
C641 C642 1.362 . S
C642 H634 0.930 . S
C642 C641 1.362 . S
C642 C645 1.409 . S
C643 H635 0.930 . S
C643 C644 1.355 . S
C643 C645 1.415 . S
C644 C643 1.355 . S
C644 C646 1.419 . S
C645 C640 1.425 . S
C645 C642 1.409 . S
C645 C643 1.415 . S
C646 H636 0.930 . S
C646 C644 1.419 . S
C646 C647 1.362 . S
C647 H637 0.930 . S
C647 C640 1.409 . S
C647 C646 1.362 . S
H648 C654 0.930 . S
H649 C657 0.931 . S
H650 C658 0.930 1_554 S
H651 C659 0.931 1_554 S
H652 C662 0.930 . S
H653 C663 0.930 . S
C654 H648 0.930 . S
C654 C655 1.355 . S
C654 C656 1.415 1_545 S
C655 C654 1.355 . S
C655 C657 1.419 1_545 S
C656 C654 1.415 1_565 S
C656 C661 1.425 . S
C656 C663 1.409 . S
C657 H649 0.931 . S
C657 C655 1.419 1_565 S
C657 C658 1.362 . S
C658 H650 0.930 1_556 S
C658 C657 1.362 . S
C658 C661 1.409 . S
C659 H651 0.931 1_556 S
C659 C660 1.355 . S
C659 C661 1.413 . S
C660 C659 1.355 . S
C660 C662 1.419 . S
C661 C656 1.425 . S
C661 C658 1.409 . S
C661 C659 1.413 . S
C662 H652 0.930 . S
C662 C660 1.419 . S
C662 C663 1.362 . S
C663 H653 0.930 . S
C663 C656 1.409 . S
C663 C662 1.362 . S
H664 C670 0.930 . S
H665 C673 0.930 . S
H666 C674 0.930 . S
H667 C675 0.930 . S
H668 C678 0.930 . S
H669 C679 0.930 . S
C670 H664 0.930 . S
C670 C671 1.355 . S
C670 C672 1.415 . S
C671 C670 1.355 . S
C671 C673 1.419 . S
C672 C670 1.415 . S
C672 C677 1.425 . S
C672 C679 1.409 . S
C673 H665 0.930 . S
C673 C671 1.419 . S
C673 C674 1.362 . S
C674 H666 0.930 . S
C674 C673 1.362 . S
C674 C677 1.409 . S
C675 H667 0.930 . S
C675 C676 1.355 . S
C675 C677 1.415 . S
C676 C675 1.355 . S
C676 C678 1.419 . S
C677 C672 1.425 . S
C677 C674 1.409 . S
C677 C675 1.415 . S
C678 H668 0.930 . S
C678 C676 1.419 . S
C678 C679 1.362 . S
C679 H669 0.930 . S
C679 C672 1.409 . S
C679 C678 1.362 . S
H680 C686 0.930 . S
H681 C689 0.930 1_565 S
H682 C690 0.930 . S
H683 C691 0.930 . S
H684 C694 0.930 . S
H685 C695 0.930 . S
C686 H680 0.930 . S
C686 C687 1.355 . S
C686 C688 1.415 . S
C687 C686 1.355 . S
C687 C689 1.419 . S
C688 C686 1.415 . S
C688 C693 1.425 . S
C688 C695 1.409 . S
C689 H681 0.930 1_545 S
C689 C687 1.419 . S
C689 C690 1.362 . S
C690 H682 0.930 . S
C690 C689 1.362 . S
C690 C693 1.409 . S
C691 H683 0.930 . S
C691 C692 1.355 . S
C691 C693 1.415 . S
C692 C691 1.355 . S
C692 C694 1.419 . S
C693 C688 1.425 . S
C693 C690 1.409 . S
C693 C691 1.415 . S
C694 H684 0.930 . S
C694 C692 1.419 . S
C694 C695 1.362 . S
C695 H685 0.930 . S
C695 C688 1.409 . S
C695 C694 1.362 . S
H696 C702 0.930 . S
H697 C705 0.930 . S
H698 C706 0.930 . S
H699 C707 0.930 . S
H700 C710 0.930 . S
H701 C711 0.930 . S
C702 H696 0.930 . S
C702 C703 1.355 . S
C702 C704 1.415 . S
C703 C702 1.355 . S
C703 C705 1.419 . S
C704 C702 1.415 . S
C704 C709 1.425 . S
C704 C711 1.409 . S
C705 H697 0.930 . S
C705 C703 1.419 . S
C705 C706 1.362 . S
C706 H698 0.930 . S
C706 C705 1.362 . S
C706 C709 1.409 . S
C707 H699 0.930 . S
C707 C708 1.355 . S
C707 C709 1.415 . S
C708 C707 1.355 . S
C708 C710 1.419 . S
C709 C704 1.425 . S
C709 C706 1.409 . S
C709 C707 1.415 . S
C710 H700 0.930 . S
C710 C708 1.419 . S
C710 C711 1.362 . S
C711 H701 0.930 . S
C711 C704 1.409 . S
C711 C710 1.362 . S
H712 C718 0.930 . S
H713 C721 0.930 . S
H714 C722 0.930 . S
H715 C723 0.930 . S
H716 C726 0.930 . S
H717 C727 0.930 . S
C718 H712 0.930 . S
C718 C719 1.355 . S
C718 C720 1.415 . S
C719 C718 1.355 . S
C719 C721 1.419 . S
C720 C718 1.415 . S
C720 C725 1.425 . S
C720 C727 1.409 . S
C721 H713 0.930 . S
C721 C719 1.419 . S
C721 C722 1.362 . S
C722 H714 0.930 . S
C722 C721 1.362 . S
C722 C725 1.409 . S
C723 H715 0.930 . S
C723 C724 1.355 . S
C723 C725 1.415 . S
C724 C723 1.355 . S
C724 C726 1.419 . S
C725 C720 1.425 . S
C725 C722 1.409 . S
C725 C723 1.415 . S
C726 H716 0.930 . S
C726 C724 1.419 . S
C726 C727 1.362 . S
C727 H717 0.930 . S
C727 C720 1.409 . S
C727 C726 1.362 . S
H728 C734 0.930 . S
H729 C737 0.930 . S
H730 C738 0.930 . S
H731 C739 0.930 . S
H732 C742 0.930 . S
H733 C743 0.930 . S
C734 H728 0.930 . S
C734 C735 1.355 . S
C734 C736 1.415 . S
C735 C734 1.355 . S
C735 C737 1.419 . S
C736 C734 1.415 . S
C736 C741 1.425 . S
C736 C743 1.409 . S
C737 H729 0.930 . S
C737 C735 1.419 . S
C737 C738 1.362 . S
C738 H730 0.930 . S
C738 C737 1.362 . S
C738 C741 1.409 . S
C739 H731 0.930 . S
C739 C740 1.355 . S
C739 C741 1.415 . S
C740 C739 1.355 . S
C740 C742 1.419 . S
C741 C736 1.425 . S
C741 C738 1.409 . S
C741 C739 1.415 . S
C742 H732 0.930 . S
C742 C740 1.419 . S
C742 C743 1.362 . S
C743 H733 0.930 . S
C743 C736 1.409 . S
C743 C742 1.362 . S
H744 C750 0.930 . S
H745 C753 0.930 . S
H746 C754 0.930 . S
H747 C755 0.930 . S
H748 C758 0.930 . S
H749 C759 0.930 . S
C750 H744 0.930 . S
C750 C751 1.355 . S
C750 C752 1.415 . S
C751 C750 1.355 . S
C751 C753 1.419 . S
C752 C750 1.415 . S
C752 C757 1.425 . S
C752 C759 1.409 . S
C753 H745 0.930 . S
C753 C751 1.419 . S
C753 C754 1.362 . S
C754 H746 0.930 . S
C754 C753 1.362 . S
C754 C757 1.409 . S
C755 H747 0.930 . S
C755 C756 1.355 . S
C755 C757 1.415 . S
C756 C755 1.355 . S
C756 C758 1.419 . S
C757 C752 1.425 . S
C757 C754 1.409 . S
C757 C755 1.415 . S
C758 H748 0.930 . S
C758 C756 1.419 . S
C758 C759 1.362 . S
C759 H749 0.930 . S
C759 C752 1.409 . S
C759 C758 1.362 . S
H760 C766 0.930 . S
H761 C769 0.930 . S
H762 C770 0.930 . S
H763 C771 0.930 . S
H764 C774 0.930 . S
H765 C775 0.930 . S
C766 H760 0.930 . S
C766 C767 1.355 . S
C766 C768 1.415 . S
C767 C766 1.355 . S
C767 C769 1.419 . S
C768 C766 1.415 . S
C768 C773 1.425 . S
C768 C775 1.409 . S
C769 H761 0.930 . S
C769 C767 1.419 . S
C769 C770 1.362 . S
C770 H762 0.930 . S
C770 C769 1.362 . S
C770 C773 1.409 . S
C771 H763 0.930 . S
C771 C772 1.355 . S
C771 C773 1.415 . S
C772 C771 1.355 . S
C772 C774 1.419 . S
C773 C768 1.425 . S
C773 C770 1.409 . S
C773 C771 1.415 . S
C774 H764 0.930 . S
C774 C772 1.419 . S
C774 C775 1.362 . S
C775 H765 0.930 . S
C775 C768 1.409 . S
C775 C774 1.362 . S
H776 C782 0.930 . S
H777 C785 0.930 . S
H778 C786 0.930 . S
H779 C787 0.930 . S
H780 C790 0.930 . S
H781 C791 0.930 . S
C782 H776 0.930 . S
C782 C783 1.355 . S
C782 C784 1.415 . S
C783 C782 1.355 . S
C783 C785 1.419 . S
C784 C782 1.415 . S
C784 C789 1.425 . S
C784 C791 1.409 . S
C785 H777 0.930 . S
C785 C783 1.419 . S
C785 C786 1.362 . S
C786 H778 0.930 . S
C786 C785 1.362 . S
C786 C789 1.409 . S
C787 H779 0.930 . S
C787 C788 1.355 . S
C787 C789 1.415 . S
C788 C787 1.355 . S
C788 C790 1.419 . S
C789 C784 1.425 . S
C789 C786 1.409 . S
C789 C787 1.415 . S
C790 H780 0.930 . S
C790 C788 1.419 . S
C790 C791 1.362 . S
C791 H781 0.930 . S
C791 C784 1.409 . S
C791 C790 1.362 . S
H792 C798 0.930 . S
H793 C801 0.930 . S
H794 C802 0.930 . S
H795 C803 0.930 . S
H796 C806 0.930 . S
H797 C807 0.930 . S
C798 H792 0.930 . S
C798 C799 1.355 . S
C798 C800 1.415 . S
C799 C798 1.355 . S
C799 C801 1.419 . S
C800 C798 1.415 . S
C800 C805 1.425 . S
C800 C807 1.409 . S
C801 H793 0.930 . S
C801 C799 1.419 . S
C801 C802 1.362 . S
C802 H794 0.930 . S
C802 C801 1.362 . S
C802 C805 1.409 . S
C803 H795 0.930 . S
C803 C804 1.355 . S
C803 C805 1.415 . S
C804 C803 1.355 . S
C804 C806 1.419 . S
C805 C800 1.425 . S
C805 C802 1.409 . S
C805 C803 1.415 . S
C806 H796 0.930 . S
C806 C804 1.419 . S
C806 C807 1.362 . S
C807 H797 0.930 . S
C807 C800 1.409 . S
C807 C806 1.362 . S
H808 C814 0.930 . S
H809 C817 0.930 . S
H810 C818 0.930 . S
H811 C819 0.930 . S
H812 C822 0.930 . S
H813 C823 0.930 . S
C814 H808 0.930 . S
C814 C815 1.355 . S
C814 C816 1.415 . S
C815 C814 1.355 . S
C815 C817 1.419 . S
C816 C814 1.415 . S
C816 C821 1.425 . S
C816 C823 1.409 . S
C817 H809 0.930 . S
C817 C815 1.419 . S
C817 C818 1.362 . S
C818 H810 0.930 . S
C818 C817 1.362 . S
C818 C821 1.409 . S
C819 H811 0.930 . S
C819 C820 1.355 . S
C819 C821 1.415 . S
C820 C819 1.355 . S
C820 C822 1.419 . S
C821 C816 1.425 . S
C821 C818 1.409 . S
C821 C819 1.415 . S
C822 H812 0.930 . S
C822 C820 1.419 . S
C822 C823 1.362 . S
C823 H813 0.930 . S
C823 C816 1.409 . S
C823 C822 1.362 . S
H824 C830 0.930 1_565 S
H825 C833 0.930 . S
H826 C834 0.930 1_655 S
H827 C835 0.930 . S
H828 C838 0.930 1_565 S
H829 C839 0.930 . S
C830 H824 0.930 1_545 S
C830 C831 1.355 . S
C830 C832 1.415 . S
C831 C830 1.355 . S
C831 C833 1.419 . S
C832 C830 1.415 . S
C832 C837 1.425 . S
C832 C839 1.409 1_545 S
C833 H825 0.930 . S
C833 C831 1.419 . S
C833 C834 1.362 . S
C834 H826 0.930 1_455 S
C834 C833 1.362 . S
C834 C837 1.409 . S
C835 H827 0.930 . S
C835 C836 1.355 . S
C835 C837 1.415 1_655 S
C836 C835 1.355 . S
C836 C838 1.419 1_655 S
C837 C832 1.425 . S
C837 C834 1.409 . S
C837 C835 1.415 1_455 S
C838 H828 0.930 1_545 S
C838 C836 1.419 1_455 S
C838 C839 1.362 1_545 S
C839 H829 0.930 . S
C839 C832 1.409 1_565 S
C839 C838 1.362 1_565 S
H840 C846 0.930 . S
H841 C849 0.930 . S
H842 C850 0.930 . S
H843 C851 0.930 . S
H844 C854 0.930 . S
H845 C855 0.930 . S
C846 H840 0.930 . S
C846 C847 1.355 . S
C846 C848 1.415 . S
C847 C846 1.355 . S
C847 C849 1.419 . S
C848 C846 1.415 . S
C848 C853 1.425 . S
C848 C855 1.409 . S
C849 H841 0.930 . S
C849 C847 1.419 . S
C849 C850 1.362 . S
C850 H842 0.930 . S
C850 C849 1.362 . S
C850 C853 1.409 . S
C851 H843 0.930 . S
C851 C852 1.355 . S
C851 C853 1.415 . S
C852 C851 1.355 . S
C852 C854 1.419 . S
C853 C848 1.425 . S
C853 C850 1.409 . S
C853 C851 1.415 . S
C854 H844 0.930 . S
C854 C852 1.419 . S
C854 C855 1.362 . S
C855 H845 0.930 . S
C855 C848 1.409 . S
C855 C854 1.362 . S
H856 C862 0.930 . S
H857 C865 0.930 . S
H858 C866 0.930 . S
H859 C867 0.930 . S
H860 C870 0.930 . S
H861 C871 0.930 . S
C862 H856 0.930 . S
C862 C863 1.330 1_455 S
C862 C864 1.415 . S
C863 C862 1.330 1_655 S
C863 C865 1.434 . S
C864 C862 1.415 . S
C864 C869 1.425 . S
C864 C871 1.409 . S
C865 H857 0.930 . S
C865 C863 1.434 . S
C865 C866 1.362 . S
C866 H858 0.930 . S
C866 C865 1.362 . S
C866 C869 1.409 1_655 S
C867 H859 0.930 . S
C867 C868 1.355 . S
C867 C869 1.415 . S
C868 C867 1.355 . S
C868 C870 1.419 . S
C869 C864 1.425 . S
C869 C866 1.409 1_455 S
C869 C867 1.415 . S
C870 H860 0.930 . S
C870 C868 1.419 . S
C870 C871 1.362 . S
C871 H861 0.930 . S
C871 C864 1.409 . S
C871 C870 1.362 . S
H872 C878 0.930 . S
H873 C881 0.930 . S
H874 C882 0.930 . S
H875 C883 0.930 . S
H876 C886 0.930 . S
H877 C887 0.930 . S
C878 H872 0.930 . S
C878 C879 1.355 . S
C878 C880 1.415 . S
C879 C878 1.355 . S
C879 C881 1.419 . S
C880 C878 1.415 . S
C880 C885 1.425 . S
C880 C887 1.409 . S
C881 H873 0.930 . S
C881 C879 1.419 . S
C881 C882 1.362 . S
C882 H874 0.930 . S
C882 C881 1.362 . S
C882 C885 1.409 . S
C883 H875 0.930 . S
C883 C884 1.355 . S
C883 C885 1.415 . S
C884 C883 1.355 . S
C884 C886 1.419 . S
C885 C880 1.425 . S
C885 C882 1.409 . S
C885 C883 1.415 . S
C886 H876 0.930 . S
C886 C884 1.419 . S
C886 C887 1.362 . S
C887 H877 0.930 . S
C887 C880 1.409 . S
C887 C886 1.362 . S
H888 C894 0.930 . S
H889 C897 0.929 1_455 S
H890 C898 0.933 . S
H891 C899 0.930 . S
H892 C902 0.930 . S
H893 C903 0.930 . S
C894 H888 0.930 . S
C894 C895 1.355 . S
C894 C896 1.415 . S
C895 C894 1.355 . S
C895 C897 1.419 1_556 S
C896 C894 1.415 . S
C896 C901 1.425 . S
C896 C903 1.409 . S
C897 H889 0.929 1_655 S
C897 C895 1.419 1_554 S
C897 C898 1.362 1_654 S
C898 H890 0.933 . S
C898 C897 1.362 1_456 S
C898 C901 1.409 1_455 S
C899 H891 0.930 . S
C899 C900 1.355 1_455 S
C899 C901 1.415 1_455 S
C900 C899 1.355 1_655 S
C900 C902 1.419 . S
C901 C896 1.425 . S
C901 C898 1.409 1_655 S
C901 C899 1.415 1_655 S
C902 H892 0.930 . S
C902 C900 1.419 . S
C902 C903 1.362 . S
C903 H893 0.930 . S
C903 C896 1.409 . S
C903 C902 1.362 . S
H904 C910 0.930 . S
H905 C913 0.930 . S
H906 C914 0.930 . S
H907 C915 0.930 . S
H908 C918 0.930 . S
H909 C919 0.930 . S
C910 H904 0.930 . S
C910 C911 1.355 . S
C910 C912 1.415 . S
C911 C910 1.355 . S
C911 C913 1.419 . S
C912 C910 1.415 . S
C912 C917 1.425 . S
C912 C919 1.409 . S
C913 H905 0.930 . S
C913 C911 1.419 . S
C913 C914 1.362 . S
C914 H906 0.930 . S
C914 C913 1.362 . S
C914 C917 1.409 . S
C915 H907 0.930 . S
C915 C916 1.355 . S
C915 C917 1.415 . S
C916 C915 1.355 . S
C916 C918 1.419 . S
C917 C912 1.425 . S
C917 C914 1.409 . S
C917 C915 1.415 . S
C918 H908 0.930 . S
C918 C916 1.419 . S
C918 C919 1.362 . S
C919 H909 0.930 . S
C919 C912 1.409 . S
C919 C918 1.362 . S
H920 C926 0.930 . S
H921 C929 0.937 . S
H922 C930 0.930 1_655 S
H923 C931 0.930 1_655 S
H924 C934 0.930 . S
H925 C935 0.930 . S
C926 H920 0.930 . S
C926 C927 1.355 . S
C926 C928 1.415 . S
C927 C926 1.355 . S
C927 C929 1.419 . S
C928 C926 1.415 . S
C928 C933 1.425 . S
C928 C935 1.409 . S
C929 H921 0.937 . S
C929 C927 1.419 . S
C929 C930 1.362 . S
C930 H922 0.930 1_455 S
C930 C929 1.362 . S
C930 C933 1.409 . S
C931 H923 0.930 1_455 S
C931 C932 1.355 . S
C931 C933 1.415 . S
C932 C931 1.355 . S
C932 C934 1.419 . S
C933 C928 1.425 . S
C933 C930 1.409 . S
C933 C931 1.415 . S
C934 H924 0.930 . S
C934 C932 1.419 . S
C934 C935 1.362 . S
C935 H925 0.930 . S
C935 C928 1.409 . S
C935 C934 1.362 . S
H936 C942 0.930 . S
H937 C945 0.930 . S
H938 C946 0.930 . S
H939 C947 0.930 . S
H940 C950 0.930 . S
H941 C951 0.930 . S
C942 H936 0.930 . S
C942 C943 1.355 . S
C942 C944 1.415 . S
C943 C942 1.355 . S
C943 C945 1.419 . S
C944 C942 1.415 . S
C944 C949 1.425 . S
C944 C951 1.409 . S
C945 H937 0.930 . S
C945 C943 1.419 . S
C945 C946 1.362 . S
C946 H938 0.930 . S
C946 C945 1.362 . S
C946 C949 1.409 . S
C947 H939 0.930 . S
C947 C948 1.355 . S
C947 C949 1.415 . S
C948 C947 1.355 . S
C948 C950 1.419 . S
C949 C944 1.425 . S
C949 C946 1.409 . S
C949 C947 1.415 . S
C950 H940 0.930 . S
C950 C948 1.419 . S
C950 C951 1.362 . S
C951 H941 0.930 . S
C951 C944 1.409 . S
C951 C950 1.362 . S
H952 C958 0.930 1_556 S
H953 C961 0.930 . S
H954 C962 0.930 . S
H955 C963 0.930 . S
H956 C966 0.930 . S
H957 C967 0.930 . S
C958 H952 0.930 1_554 S
C958 C959 1.355 . S
C958 C960 1.415 . S
C959 C958 1.355 . S
C959 C961 1.419 . S
C960 C958 1.415 . S
C960 C965 1.425 . S
C960 C967 1.409 . S
C961 H953 0.930 . S
C961 C959 1.419 . S
C961 C962 1.362 . S
C962 H954 0.930 . S
C962 C961 1.362 . S
C962 C965 1.409 . S
C963 H955 0.930 . S
C963 C964 1.355 . S
C963 C965 1.415 . S
C964 C963 1.355 . S
C964 C966 1.419 . S
C965 C960 1.425 . S
C965 C962 1.409 . S
C965 C963 1.415 . S
C966 H956 0.930 . S
C966 C964 1.419 . S
C966 C967 1.362 . S
C967 H957 0.930 . S
C967 C960 1.409 . S
C967 C966 1.362 . S
H968 C974 0.930 . S
H969 C977 0.930 . S
H970 C978 0.930 . S
H971 C979 0.930 . S
H972 C982 0.930 . S
H973 C983 0.930 . S
C974 H968 0.930 . S
C974 C975 1.355 . S
C974 C976 1.415 . S
C975 C974 1.355 . S
C975 C977 1.419 . S
C976 C974 1.415 . S
C976 C981 1.425 . S
C976 C983 1.409 . S
C977 H969 0.930 . S
C977 C975 1.419 . S
C977 C978 1.362 . S
C978 H970 0.930 . S
C978 C977 1.362 . S
C978 C981 1.409 . S
C979 H971 0.930 . S
C979 C980 1.355 . S
C979 C981 1.415 . S
C980 C979 1.355 . S
C980 C982 1.419 . S
C981 C976 1.425 . S
C981 C978 1.409 . S
C981 C979 1.415 . S
C982 H972 0.930 . S
C982 C980 1.419 . S
C982 C983 1.362 . S
C983 H973 0.930 . S
C983 C976 1.409 . S
C983 C982 1.362 . S
H984 C990 0.930 . S
H985 C993 0.930 . S
H986 C994 0.930 . S
H987 C995 0.930 . S
H988 C998 0.930 . S
H989 C999 0.930 . S
C990 H984 0.930 . S
C990 C991 1.355 1_554 S
C990 C992 1.415 . S
C991 C990 1.355 1_556 S
C991 C993 1.419 . S
C992 C990 1.415 . S
C992 C997 1.425 . S
C992 C999 1.409 . S
C993 H985 0.930 . S
C993 C991 1.419 . S
C993 C994 1.362 1_556 S
C994 H986 0.930 . S
C994 C993 1.362 1_554 S
C994 C997 1.409 . S
C995 H987 0.930 . S
C995 C996 1.355 . S
C995 C997 1.415 . S
C996 C995 1.355 . S
C996 C998 1.419 . S
C997 C992 1.425 . S
C997 C994 1.409 . S
C997 C995 1.415 . S
C998 H988 0.930 . S
C998 C996 1.419 . S
C998 C999 1.362 . S
C999 H989 0.930 . S
C999 C992 1.409 . S
C999 C998 1.362 . S
H1000 C1006 0.930 . S
H1001 C1009 0.930 . S
H1002 C1010 0.930 . S
H1003 C1011 0.930 . S
H1004 C1014 0.930 . S
H1005 C1015 0.930 . S
C1006 H1000 0.930 . S
C1006 C1007 1.355 . S
C1006 C1008 1.415 . S
C1007 C1006 1.355 . S
C1007 C1009 1.419 . S
C1008 C1006 1.415 . S
C1008 C1013 1.425 . S
C1008 C1015 1.409 . S
C1009 H1001 0.930 . S
C1009 C1007 1.419 . S
C1009 C1010 1.362 . S
C1010 H1002 0.930 . S
C1010 C1009 1.362 . S
C1010 C1013 1.409 . S
C1011 H1003 0.930 . S
C1011 C1012 1.355 . S
C1011 C1013 1.415 . S
C1012 C1011 1.355 . S
C1012 C1014 1.419 . S
C1013 C1008 1.425 . S
C1013 C1010 1.409 . S
C1013 C1011 1.415 . S
C1014 H1004 0.930 . S
C1014 C1012 1.419 . S
C1014 C1015 1.362 . S
C1015 H1005 0.930 . S
C1015 C1008 1.409 . S
C1015 C1014 1.362 . S
H1016 C1022 0.930 . S
H1017 C1025 0.930 . S
H1018 C1026 0.930 . S
H1019 C1027 0.930 . S
H1020 C1030 0.930 . S
H1021 C1031 0.930 . S
C1022 H1016 0.930 . S
C1022 C1023 1.355 . S
C1022 C1024 1.415 . S
C1023 C1022 1.355 . S
C1023 C1025 1.419 . S
C1024 C1022 1.415 . S
C1024 C1029 1.425 . S
C1024 C1031 1.409 . S
C1025 H1017 0.930 . S
C1025 C1023 1.419 . S
C1025 C1026 1.362 . S
C1026 H1018 0.930 . S
C1026 C1025 1.362 . S
C1026 C1029 1.409 . S
C1027 H1019 0.930 . S
C1027 C1028 1.355 . S
C1027 C1029 1.415 . S
C1028 C1027 1.355 . S
C1028 C1030 1.419 . S
C1029 C1024 1.425 . S
C1029 C1026 1.409 . S
C1029 C1027 1.415 . S
C1030 H1020 0.930 . S
C1030 C1028 1.419 . S
C1030 C1031 1.362 . S
C1031 H1021 0.930 . S
C1031 C1024 1.409 . S
C1031 C1030 1.362 . S
H1032 C1038 0.930 . S
H1033 C1041 0.930 . S
H1034 C1042 0.930 . S
H1035 C1043 0.930 . S
H1036 C1046 0.930 . S
H1037 C1047 0.930 . S
C1038 H1032 0.930 . S
C1038 C1039 1.355 . S
C1038 C1040 1.415 . S
C1039 C1038 1.355 . S
C1039 C1041 1.419 . S
C1040 C1038 1.415 . S
C1040 C1045 1.425 . S
C1040 C1047 1.409 . S
C1041 H1033 0.930 . S
C1041 C1039 1.419 . S
C1041 C1042 1.362 . S
C1042 H1034 0.930 . S
C1042 C1041 1.362 . S
C1042 C1045 1.409 . S
C1043 H1035 0.930 . S
C1043 C1044 1.355 . S
C1043 C1045 1.415 . S
C1044 C1043 1.355 . S
C1044 C1046 1.419 . S
C1045 C1040 1.425 . S
C1045 C1042 1.409 . S
C1045 C1043 1.415 . S
C1046 H1036 0.930 . S
C1046 C1044 1.419 . S
C1046 C1047 1.362 . S
C1047 H1037 0.930 . S
C1047 C1040 1.409 . S
C1047 C1046 1.362 . S
H1048 C1054 0.930 . S
H1049 C1057 0.930 . S
H1050 C1058 0.930 . S
H1051 C1059 0.930 . S
H1052 C1062 0.930 . S
H1053 C1063 0.930 . S
C1054 H1048 0.930 . S
C1054 C1055 1.355 . S
C1054 C1056 1.415 . S
C1055 C1054 1.355 . S
C1055 C1057 1.419 . S
C1056 C1054 1.415 . S
C1056 C1061 1.425 . S
C1056 C1063 1.409 . S
C1057 H1049 0.930 . S
C1057 C1055 1.419 . S
C1057 C1058 1.362 . S
C1058 H1050 0.930 . S
C1058 C1057 1.362 . S
C1058 C1061 1.409 . S
C1059 H1051 0.930 . S
C1059 C1060 1.355 . S
C1059 C1061 1.415 . S
C1060 C1059 1.355 . S
C1060 C1062 1.419 . S
C1061 C1056 1.425 . S
C1061 C1058 1.409 . S
C1061 C1059 1.415 . S
C1062 H1052 0.930 . S
C1062 C1060 1.419 . S
C1062 C1063 1.362 . S
C1063 H1053 0.930 . S
C1063 C1056 1.409 . S
C1063 C1062 1.362 . S
H1064 C1070 0.930 . S
H1065 C1073 0.930 . S
H1066 C1074 0.930 . S
H1067 C1075 0.930 . S
H1068 C1078 0.930 1_554 S
H1069 C1079 0.936 . S
C1070 H1064 0.930 . S
C1070 C1071 1.355 . S
C1070 C1072 1.415 . S
C1071 C1070 1.355 . S
C1071 C1073 1.419 . S
C1072 C1070 1.415 . S
C1072 C1077 1.425 . S
C1072 C1079 1.409 . S
C1073 H1065 0.930 . S
C1073 C1071 1.419 . S
C1073 C1074 1.362 . S
C1074 H1066 0.930 . S
C1074 C1073 1.362 . S
C1074 C1077 1.409 . S
C1075 H1067 0.930 . S
C1075 C1076 1.355 . S
C1075 C1077 1.415 . S
C1076 C1075 1.355 . S
C1076 C1078 1.419 . S
C1077 C1072 1.425 . S
C1077 C1074 1.409 . S
C1077 C1075 1.415 . S
C1078 H1068 0.930 1_556 S
C1078 C1076 1.419 . S
C1078 C1079 1.362 . S
C1079 H1069 0.936 . S
C1079 C1072 1.409 . S
C1079 C1078 1.362 . S
H1080 C1086 0.930 . S
H1081 C1089 0.930 . S
H1082 C1090 0.930 . S
H1083 C1091 0.930 . S
H1084 C1094 0.930 . S
H1085 C1095 0.930 . S
C1086 H1080 0.930 . S
C1086 C1087 1.355 . S
C1086 C1088 1.415 . S
C1087 C1086 1.355 . S
C1087 C1089 1.419 . S
C1088 C1086 1.415 . S
C1088 C1093 1.425 . S
C1088 C1095 1.409 . S
C1089 H1081 0.930 . S
C1089 C1087 1.419 . S
C1089 C1090 1.362 . S
C1090 H1082 0.930 . S
C1090 C1089 1.362 . S
C1090 C1093 1.409 . S
C1091 H1083 0.930 . S
C1091 C1092 1.355 . S
C1091 C1093 1.415 . S
C1092 C1091 1.355 . S
C1092 C1094 1.419 . S
C1093 C1088 1.425 . S
C1093 C1090 1.409 . S
C1093 C1091 1.415 . S
C1094 H1084 0.930 . S
C1094 C1092 1.419 . S
C1094 C1095 1.362 . S
C1095 H1085 0.930 . S
C1095 C1088 1.409 . S
C1095 C1094 1.362 . S
H1096 C1102 0.930 . S
H1097 C1105 0.930 . S
H1098 C1106 0.930 . S
H1099 C1107 0.930 . S
H1100 C1110 0.930 . S
H1101 C1111 0.930 . S
C1102 H1096 0.930 . S
C1102 C1103 1.355 . S
C1102 C1104 1.415 . S
C1103 C1102 1.355 . S
C1103 C1105 1.419 . S
C1104 C1102 1.415 . S
C1104 C1109 1.425 . S
C1104 C1111 1.409 . S
C1105 H1097 0.930 . S
C1105 C1103 1.419 . S
C1105 C1106 1.362 . S
C1106 H1098 0.930 . S
C1106 C1105 1.362 . S
C1106 C1109 1.409 . S
C1107 H1099 0.930 . S
C1107 C1108 1.355 . S
C1107 C1109 1.415 . S
C1108 C1107 1.355 . S
C1108 C1110 1.419 . S
C1109 C1104 1.425 . S
C1109 C1106 1.409 . S
C1109 C1107 1.415 . S
C1110 H1100 0.930 . S
C1110 C1108 1.419 . S
C1110 C1111 1.362 . S
C1111 H1101 0.930 . S
C1111 C1104 1.409 . S
C1111 C1110 1.362 . S
H1112 C1118 0.913 1_545 S
H1113 C1121 0.930 . S
H1114 C1122 0.930 . S
H1115 C1123 0.930 . S
H1116 C1126 0.930 . S
H1117 C1127 0.930 1_545 S
C1118 H1112 0.913 1_565 S
C1118 C1119 1.358 . S
C1118 C1120 1.428 . S
C1119 C1118 1.358 . S
C1119 C1121 1.419 . S
C1120 C1118 1.428 . S
C1120 C1125 1.425 . S
C1120 C1127 1.409 . S
C1121 H1113 0.930 . S
C1121 C1119 1.419 . S
C1121 C1122 1.362 . S
C1122 H1114 0.930 . S
C1122 C1121 1.362 . S
C1122 C1125 1.409 . S
C1123 H1115 0.930 . S
C1123 C1124 1.355 . S
C1123 C1125 1.415 . S
C1124 C1123 1.355 . S
C1124 C1126 1.419 . S
C1125 C1120 1.425 . S
C1125 C1122 1.409 . S
C1125 C1123 1.415 . S
C1126 H1116 0.930 . S
C1126 C1124 1.419 . S
C1126 C1127 1.362 . S
C1127 H1117 0.930 1_565 S
C1127 C1120 1.409 . S
C1127 C1126 1.362 . S
C372 C200 1.695 . S
C367 C66 1.742 . S
C388 C213 1.173 . S
C383 C76 1.191 . S
C399 C93 1.923 . S
C404 C233 1.797 . S
C420 C247 1.365 . S
C415 C54 1.414 . S
C436 C259 1.504 . S
C431 C126 1.530 . S
C452 C273 1.736 . S
C447 C150 1.730 . S
C463 C136 1.156 . S
C468 C283 1.161 . S
C484 C298 1.794 . S
C479 C117 1.794 . S
C495 C141 1.288 . S
C500 C312 1.279 . S
C516 C331 1.252 . S
C511 C112 1.282 . S
C527 C124 1.534 . S
C532 C311 1.502 . S
C548 C329 1.280 . S
C543 C148 1.256 . S
C559 C88 1.453 . S
C564 C345 1.415 . S
C575 C52 1.576 . S
C580 C339 1.569 . S
C591 C64 1.307 . S
C596 C343 1.293 . S
C607 C78 1.264 . S
C612 C340 1.233 1_455 S
C623 C45 1.692 . S
C628 C242 1.661 . S
C639 C177 1.793 . S
C644 C241 1.783 . S
C660 C205 1.321 1_556 S
C655 C189 1.328 . S
C676 C219 1.643 . S
C671 C102 1.732 . S
C687 C57 1.704 1_545 S
C692 C256 1.712 . S
C708 C301 1.489 . S
C703 C138 1.489 . S
C724 C255 1.710 . S
C719 C114 1.741 1_545 S
C740 C287 1.634 . S
C735 C153 1.634 . S
C756 C284 1.669 . S
C751 C174 1.737 . S
C767 C184 1.164 . S
C772 C297 1.185 . S
C783 C105 1.903 . S
C788 C261 1.723 . S
C804 C275 1.350 . S
C799 C162 1.409 . S
C815 C42 1.528 . S
C820 C231 1.499 . S
C836 C245 1.732 . S
C831 C6 1.724 . S
C852 C199 1.176 . S
C847 C16 1.182 . S
C868 C214 1.782 . S
C863 C33 1.808 . S
C879 C21 1.306 . S
C884 C326 1.268 . S
C895 C28 1.295 1_556 S
C900 C317 1.207 . S
C911 C40 1.534 . S
C916 C325 1.506 . S
C927 C4 1.283 . S
C932 C315 1.258 . S
C948 C359 1.419 . S
C943 C100 1.469 . S
C964 C353 1.583 . S
C959 C160 1.578 . S
C980 C357 1.292 . S
C975 C172 1.314 . S
C991 C186 1.261 . S
C996 C354 1.208 . S
C1007 C129 1.711 . S
C1012 C270 1.693 . S
C1028 C269 1.754 . S
C1023 C69 1.792 . S
C1044 C289 1.285 . S
C1039 C81 1.322 . S
C1060 C303 1.560 . S
C1055 C90 1.714 . S
C1071 C165 1.709 . S
C1076 C228 1.708 . S
C1092 C217 1.483 . S
C1087 C18 1.488 . S
C1103 C30 1.731 . S
C1108 C227 1.715 . S
C1124 C203 1.643 . S
C1119 C9 1.635 1_565 S
