# Generated by pormake.
# Topology ssb, (4,4)-cn, num edge types: 1
# Building blocks:
#     Node 0, Type 0, BuildingBlock: AZAVOO_clean_linker_0, # of connection points: 4
#     Node 1, Type 0, BuildingBlock: AZAVOO_clean_linker_0, # of connection points: 4
#     Node 2, Type 0, BuildingBlock: AZAVOO_clean_linker_0, # of connection points: 4
#     Node 3, Type 0, BuildingBlock: AZAVOO_clean_linker_0, # of connection points: 4
#     Node 4, Type 0, BuildingBlock: AZAVOO_clean_linker_0, # of connection points: 4
#     Node 5, Type 0, BuildingBlock: AZAVOO_clean_linker_0, # of connection points: 4
#     Node 6, Type 0, BuildingBlock: AZAVOO_clean_linker_0, # of connection points: 4
#     Node 7, Type 0, BuildingBlock: AZAVOO_clean_linker_0, # of connection points: 4
#     Node 8, Type 1, BuildingBlock: NAWXER_clean_sbu_0, # of connection points: 4
#     Node 9, Type 1, BuildingBlock: NAWXER_clean_sbu_0, # of connection points: 4
#     Node 10, Type 1, BuildingBlock: NAWXER_clean_sbu_0, # of connection points: 4
#     Node 11, Type 1, BuildingBlock: NAWXER_clean_sbu_0, # of connection points: 4
#     Node 12, Type 1, BuildingBlock: NAWXER_clean_sbu_0, # of connection points: 4
#     Node 13, Type 1, BuildingBlock: NAWXER_clean_sbu_0, # of connection points: 4
#     Node 14, Type 1, BuildingBlock: NAWXER_clean_sbu_0, # of connection points: 4
#     Node 15, Type 1, BuildingBlock: NAWXER_clean_sbu_0, # of connection points: 4
#     Edge 16, Type (0, 1), BuildingBlock: EZIPEK_clean_linker_0, # of connection points: 2
#     Edge 17, Type (0, 1), BuildingBlock: EZIPEK_clean_linker_0, # of connection points: 2
#     Edge 18, Type (0, 1), BuildingBlock: EZIPEK_clean_linker_0, # of connection points: 2
#     Edge 19, Type (0, 1), BuildingBlock: EZIPEK_clean_linker_0, # of connection points: 2
#     Edge 20, Type (0, 1), BuildingBlock: EZIPEK_clean_linker_0, # of connection points: 2
#     Edge 21, Type (0, 1), BuildingBlock: EZIPEK_clean_linker_0, # of connection points: 2
#     Edge 22, Type (0, 1), BuildingBlock: EZIPEK_clean_linker_0, # of connection points: 2
#     Edge 23, Type (0, 1), BuildingBlock: EZIPEK_clean_linker_0, # of connection points: 2
#     Edge 24, Type (0, 1), BuildingBlock: EZIPEK_clean_linker_0, # of connection points: 2
#     Edge 25, Type (0, 1), BuildingBlock: EZIPEK_clean_linker_0, # of connection points: 2
#     Edge 26, Type (0, 1), BuildingBlock: EZIPEK_clean_linker_0, # of connection points: 2
#     Edge 27, Type (0, 1), BuildingBlock: EZIPEK_clean_linker_0, # of connection points: 2
#     Edge 28, Type (0, 1), BuildingBlock: EZIPEK_clean_linker_0, # of connection points: 2
#     Edge 29, Type (0, 1), BuildingBlock: EZIPEK_clean_linker_0, # of connection points: 2
#     Edge 30, Type (0, 1), BuildingBlock: EZIPEK_clean_linker_0, # of connection points: 2
#     Edge 31, Type (0, 1), BuildingBlock: EZIPEK_clean_linker_0, # of connection points: 2
#     Edge 32, Type (0, 1), BuildingBlock: EZIPEK_clean_linker_0, # of connection points: 2
#     Edge 33, Type (0, 1), BuildingBlock: EZIPEK_clean_linker_0, # of connection points: 2
#     Edge 34, Type (0, 1), BuildingBlock: EZIPEK_clean_linker_0, # of connection points: 2
#     Edge 35, Type (0, 1), BuildingBlock: EZIPEK_clean_linker_0, # of connection points: 2
#     Edge 36, Type (0, 1), BuildingBlock: EZIPEK_clean_linker_0, # of connection points: 2
#     Edge 37, Type (0, 1), BuildingBlock: EZIPEK_clean_linker_0, # of connection points: 2
#     Edge 38, Type (0, 1), BuildingBlock: EZIPEK_clean_linker_0, # of connection points: 2
#     Edge 39, Type (0, 1), BuildingBlock: EZIPEK_clean_linker_0, # of connection points: 2
#     Edge 40, Type (0, 1), BuildingBlock: EZIPEK_clean_linker_0, # of connection points: 2
#     Edge 41, Type (0, 1), BuildingBlock: EZIPEK_clean_linker_0, # of connection points: 2
#     Edge 42, Type (0, 1), BuildingBlock: EZIPEK_clean_linker_0, # of connection points: 2
#     Edge 43, Type (0, 1), BuildingBlock: EZIPEK_clean_linker_0, # of connection points: 2
#     Edge 44, Type (0, 1), BuildingBlock: EZIPEK_clean_linker_0, # of connection points: 2
#     Edge 45, Type (0, 1), BuildingBlock: EZIPEK_clean_linker_0, # of connection points: 2
#     Edge 46, Type (0, 1), BuildingBlock: EZIPEK_clean_linker_0, # of connection points: 2
#     Edge 47, Type (0, 1), BuildingBlock: EZIPEK_clean_linker_0, # of connection points: 2
# Relax obj value: 0.064
# Max RMSD: 0.294
# Mean RMSD: 0.115
data_MOF--net-ssb--node1-NAWXER_clean_sbu_0--node2-AZAVOO_clean_linker_0--edge1-EZIPEK_clean_linker_0
_symmetry_space_group_name_H-M    P1
_symmetry_Int_Tables_number       1
_symmetry_cell_setting            triclinic
loop_
_symmetry_equiv_pos_as_xyz
'x, y, z'
_cell_length_a     39.638384
_cell_length_b     40.917471
_cell_length_c     34.349496
_cell_angle_alpha  93.431323
_cell_angle_beta   90.067807
_cell_angle_gamma 89.956626
loop_
_atom_site_label
_atom_site_type_symbol
_atom_site_fract_x
_atom_site_fract_y
_atom_site_fract_z
_atom_type_partial_charge
H0 H 0.09959 0.56391 0.30354 0.0
H1 H 0.35398 0.46211 0.00999 0.0
H2 H 0.22721 0.44381 0.33079 0.0
H3 H 0.18652 0.43714 0.38365 0.0
H4 H 0.14765 0.34995 0.32256 0.0
H5 H 0.18828 0.35668 0.26952 0.0
H6 H 0.2273 0.49678 0.26857 0.0
H7 H 0.17974 0.53278 0.28633 0.0
H8 H 0.11048 0.45457 0.25226 0.0
H9 H 0.15826 0.419 0.23405 0.0
H10 H 0.2845 0.49375 0.20227 0.0
H11 H 0.27519 0.5395 0.16027 0.0
H12 H 0.18207 0.49535 0.119 0.0
H13 H 0.19166 0.44917 0.16048 0.0
H14 H 0.33949 0.43394 0.19859 0.0
H15 H 0.37469 0.44834 0.14367 0.0
H16 H 0.28955 0.43284 0.06593 0.0
H17 H 0.25491 0.41767 0.12079 0.0
H18 H 0.33482 0.37138 0.26099 0.0
H19 H 0.38214 0.33782 0.23614 0.0
H20 H 0.33408 0.32773 0.1232 0.0
H21 H 0.28443 0.35623 0.14985 0.0
H22 H 0.27881 0.3925 0.32971 0.0
H23 H 0.2915 0.34971 0.3745 0.0
H24 H 0.27527 0.27582 0.28152 0.0
H25 H 0.26038 0.31866 0.23719 0.0
O26 O 0.11802 0.54934 0.29602 0.0
O27 O 0.0835 0.50816 0.2787 0.0
O28 O 0.38545 0.45848 0.0718 0.0
O29 O 0.34122 0.45486 0.03186 0.0
C30 C 0.23241 0.40665 0.2629 0.0
C31 C 0.22519 0.43332 0.23991 0.0
C32 C 0.2457 0.43932 0.20768 0.0
C33 C 0.27272 0.41789 0.19753 0.0
C34 C 0.27926 0.39037 0.21984 0.0
C35 C 0.25974 0.38536 0.25353 0.0
C36 C 0.21047 0.40075 0.29647 0.0
C37 C 0.21012 0.42313 0.32904 0.0
C38 C 0.18704 0.41938 0.35897 0.0
C39 C 0.16421 0.39323 0.35652 0.0
C40 C 0.16517 0.37029 0.32456 0.0
C41 C 0.18829 0.37402 0.29462 0.0
C42 C 0.19621 0.45532 0.25001 0.0
C43 C 0.20183 0.48756 0.26473 0.0
C44 C 0.17462 0.50803 0.27496 0.0
C45 C 0.1413 0.49654 0.27077 0.0
C46 C 0.13581 0.4642 0.25586 0.0
C47 C 0.16304 0.44381 0.2455 0.0
C48 C 0.23882 0.4681 0.18432 0.0
C49 C 0.26201 0.494 0.18433 0.0
C50 C 0.25669 0.52004 0.16054 0.0
C51 C 0.22797 0.52064 0.13671 0.0
C52 C 0.2043 0.49522 0.13736 0.0
C53 C 0.20974 0.46903 0.16098 0.0
C54 C 0.29457 0.42497 0.16377 0.0
C55 C 0.32859 0.43335 0.16962 0.0
C56 C 0.3486 0.44167 0.13822 0.0
C57 C 0.33484 0.442 0.10045 0.0
C58 C 0.3009 0.43303 0.09464 0.0
C59 C 0.28103 0.42442 0.12596 0.0
C60 C 0.30628 0.36689 0.20704 0.0
C61 C 0.33371 0.36063 0.23145 0.0
C62 C 0.36085 0.34173 0.21717 0.0
C63 C 0.36217 0.33124 0.17747 0.0
C64 C 0.3339 0.3359 0.15379 0.0
C65 C 0.30577 0.3526 0.16885 0.0
C66 C 0.26835 0.35886 0.28009 0.0
C67 C 0.27756 0.36709 0.319 0.0
C68 C 0.2851 0.34271 0.34449 0.0
C69 C 0.28442 0.30955 0.3314 0.0
C70 C 0.27596 0.30125 0.29225 0.0
C71 C 0.26753 0.32566 0.26697 0.0
C72 C 0.11246 0.51825 0.28201 0.0
C73 C 0.35551 0.45217 0.06726 0.0
H74 H 0.59326 0.12461 0.29629 0.0
H75 H 0.83245 0.26497 0.59711 0.0
H76 H 0.70521 0.26072 0.26651 0.0
H77 H 0.67486 0.27612 0.20942 0.0
H78 H 0.62852 0.35597 0.27803 0.0
H79 H 0.65986 0.34074 0.33425 0.0
H80 H 0.71364 0.2045 0.32767 0.0
H81 H 0.66988 0.16398 0.31064 0.0
H82 H 0.59338 0.23388 0.34966 0.0
H83 H 0.63745 0.27406 0.36696 0.0
H84 H 0.77622 0.21478 0.38888 0.0
H85 H 0.77947 0.16691 0.4283 0.0
H86 H 0.68091 0.1896 0.47565 0.0
H87 H 0.67844 0.23884 0.4377 0.0
H88 H 0.8189 0.26697 0.40346 0.0
H89 H 0.85299 0.25783 0.46124 0.0
H90 H 0.7675 0.28401 0.53476 0.0
H91 H 0.73376 0.29326 0.47669 0.0
H92 H 0.82032 0.3118 0.34679 0.0
H93 H 0.86997 0.34131 0.37358 0.0
H94 H 0.80655 0.3943 0.45754 0.0
H95 H 0.75709 0.36402 0.43148 0.0
H96 H 0.76434 0.3051 0.2747 0.0
H97 H 0.77263 0.34425 0.22418 0.0
H98 H 0.7334 0.42178 0.30193 0.0
H99 H 0.72455 0.3823 0.35254 0.0
O100 O 0.61016 0.14101 0.30327 0.0
O101 O 0.57179 0.1779 0.32348 0.0
O102 O 0.86283 0.25571 0.53465 0.0
O103 O 0.81961 0.2687 0.5738 0.0
C104 C 0.70902 0.29448 0.33736 0.0
C105 C 0.70531 0.26655 0.35925 0.0
C106 C 0.72784 0.26148 0.39033 0.0
C107 C 0.75269 0.28524 0.4008 0.0
C108 C 0.75728 0.3124 0.37786 0.0
C109 C 0.73612 0.31633 0.34548 0.0
C110 C 0.68607 0.30053 0.30416 0.0
C111 C 0.68903 0.2821 0.26879 0.0
C112 C 0.6724 0.29198 0.23553 0.0
C113 C 0.6536 0.32157 0.23604 0.0
C114 C 0.64684 0.33673 0.27339 0.0
C115 C 0.66373 0.32706 0.30663 0.0
C116 C 0.6787 0.24213 0.34869 0.0
C117 C 0.68742 0.21095 0.33266 0.0
C118 C 0.66237 0.18788 0.32288 0.0
C119 C 0.62812 0.19567 0.32882 0.0
C120 C 0.61951 0.22707 0.34473 0.0
C121 C 0.6446 0.25008 0.35458 0.0
C122 C 0.72728 0.2305 0.41079 0.0
C123 C 0.75533 0.20953 0.40782 0.0
C124 C 0.7572 0.18228 0.43018 0.0
C125 C 0.73058 0.17502 0.45501 0.0
C126 C 0.70174 0.19506 0.45672 0.0
C127 C 0.70024 0.22289 0.43499 0.0
C128 C 0.77402 0.28128 0.43591 0.0
C129 C 0.80774 0.27121 0.43208 0.0
C130 C 0.82706 0.2657 0.46513 0.0
C131 C 0.81298 0.27025 0.50268 0.0
C132 C 0.77917 0.2804 0.50634 0.0
C133 C 0.75987 0.2858 0.47323 0.0
C134 C 0.78521 0.33569 0.38737 0.0
C135 C 0.81701 0.33049 0.37017 0.0
C136 C 0.84526 0.34727 0.38544 0.0
C137 C 0.84192 0.36979 0.41769 0.0
C138 C 0.8096 0.37704 0.43263 0.0
C139 C 0.78145 0.35984 0.41779 0.0
C140 C 0.74411 0.34104 0.31722 0.0
C141 C 0.75771 0.33057 0.28091 0.0
C142 C 0.76211 0.35269 0.25209 0.0
C143 C 0.7532 0.3856 0.2594 0.0
C144 C 0.74003 0.3963 0.29589 0.0
C145 C 0.73541 0.37403 0.32475 0.0
C146 C 0.60158 0.1711 0.31841 0.0
C147 C 0.83341 0.26442 0.53789 0.0
H148 H 0.58953 0.91626 0.31702 0.0
H149 H 0.75667 0.60369 0.11155 0.0
H150 H 0.75945 0.85555 0.32486 0.0
H151 H 0.75066 0.89659 0.37862 0.0
H152 H 0.74442 0.81996 0.45934 0.0
H153 H 0.74993 0.77865 0.4047 0.0
H154 H 0.71061 0.84506 0.26422 0.0
H155 H 0.66238 0.88119 0.27805 0.0
H156 H 0.63152 0.82038 0.37038 0.0
H157 H 0.67963 0.78415 0.35583 0.0
H158 H 0.73156 0.8017 0.20042 0.0
H159 H 0.68506 0.81365 0.15639 0.0
H160 H 0.61757 0.75674 0.2238 0.0
H161 H 0.66447 0.74442 0.26786 0.0
H162 H 0.77296 0.75772 0.18415 0.0
H163 H 0.77565 0.7177 0.12842 0.0
H164 H 0.73765 0.64315 0.20079 0.0
H165 H 0.73567 0.68331 0.25658 0.0
H166 H 0.8277 0.74384 0.22561 0.0
H167 H 0.85471 0.69378 0.19873 0.0
H168 H 0.83126 0.64624 0.3042 0.0
H169 H 0.79925 0.69429 0.32784 0.0
H170 H 0.83809 0.80501 0.31336 0.0
H171 H 0.88726 0.80788 0.35723 0.0
H172 H 0.84132 0.73638 0.42779 0.0
H173 H 0.79197 0.73392 0.38427 0.0
O174 O 0.60845 0.90164 0.31207 0.0
O175 O 0.59432 0.87026 0.36013 0.0
O176 O 0.76963 0.66029 0.09517 0.0
O177 O 0.75427 0.62035 0.13257 0.0
C178 C 0.75497 0.78963 0.32691 0.0
C179 C 0.72774 0.78982 0.30038 0.0
C180 C 0.7283 0.76908 0.26611 0.0
C181 C 0.75516 0.74701 0.25898 0.0
C182 C 0.78241 0.74639 0.28569 0.0
C183 C 0.78225 0.76784 0.31954 0.0
C184 C 0.75543 0.81406 0.36078 0.0
C185 C 0.75624 0.84755 0.35412 0.0
C186 C 0.75119 0.87093 0.38476 0.0
C187 C 0.74661 0.86135 0.42297 0.0
C188 C 0.74762 0.82786 0.43003 0.0
C189 C 0.75133 0.80434 0.39901 0.0
C190 C 0.69836 0.81178 0.3087 0.0
C191 C 0.6932 0.83939 0.28713 0.0
C192 C 0.66575 0.8601 0.29527 0.0
C193 C 0.64302 0.85361 0.32524 0.0
C194 C 0.64846 0.82602 0.34701 0.0
C195 C 0.6759 0.80529 0.33877 0.0
C196 C 0.70134 0.77186 0.23685 0.0
C197 C 0.70701 0.79097 0.20499 0.0
C198 C 0.68056 0.79798 0.18018 0.0
C199 C 0.64814 0.78609 0.18715 0.0
C200 C 0.64259 0.76596 0.21817 0.0
C201 C 0.66918 0.7589 0.24304 0.0
C202 C 0.754 0.72344 0.22435 0.0
C203 C 0.76475 0.73286 0.18778 0.0
C204 C 0.76649 0.70989 0.15606 0.0
C205 C 0.75731 0.67709 0.16033 0.0
C206 C 0.74545 0.66805 0.19672 0.0
C207 C 0.74402 0.69099 0.22853 0.0
C208 C 0.81029 0.7224 0.27801 0.0
C209 C 0.82887 0.72279 0.24324 0.0
C210 C 0.84476 0.6943 0.22811 0.0
C211 C 0.84409 0.66572 0.24885 0.0
C212 C 0.83128 0.66766 0.28713 0.0
C213 C 0.81335 0.69536 0.301 0.0
C214 C 0.81174 0.76918 0.34573 0.0
C215 C 0.83872 0.78999 0.33828 0.0
C216 C 0.86659 0.7916 0.36313 0.0
C217 C 0.8677 0.77228 0.39549 0.0
C218 C 0.84074 0.75137 0.40284 0.0
C219 C 0.81279 0.74995 0.37814 0.0
C220 C 0.61378 0.87559 0.33366 0.0
C221 C 0.7607 0.6522 0.12727 0.0
H222 H 0.38292 0.10368 0.3818 0.0
H223 H 0.33612 0.83849 0.05655 0.0
H224 H 0.28321 0.96573 0.38667 0.0
H225 H 0.26858 0.01274 0.43071 0.0
H226 H 0.17575 0.02501 0.36751 0.0
H227 H 0.19221 0.9801 0.32083 0.0
H228 H 0.34342 0.9694 0.3343 0.0
H229 H 0.36875 0.02144 0.35781 0.0
H230 H 0.28344 0.07331 0.31281 0.0
H231 H 0.25844 0.02112 0.28932 0.0
H232 H 0.35603 0.90849 0.27258 0.0
H233 H 0.40559 0.91279 0.2307 0.0
H234 H 0.36083 0.99576 0.17846 0.0
H235 H 0.31036 0.99051 0.21941 0.0
H236 H 0.31364 0.85458 0.24938 0.0
H237 H 0.33676 0.82389 0.19202 0.0
H238 H 0.29719 0.89686 0.11824 0.0
H239 H 0.2758 0.92815 0.17598 0.0
H240 H 0.24004 0.84081 0.29618 0.0
H241 H 0.22971 0.79107 0.2541 0.0
H242 H 0.21268 0.85097 0.15666 0.0
H243 H 0.21713 0.89999 0.19991 0.0
H244 H 0.24412 0.88769 0.36904 0.0
H245 H 0.19963 0.86991 0.41263 0.0
H246 H 0.12401 0.90597 0.33556 0.0
H247 H 0.16878 0.92278 0.29111 0.0
O248 O 0.37281 0.08342 0.37155 0.0
O249 O 0.32821 0.10885 0.34816 0.0
O250 O 0.34598 0.81269 0.11878 0.0
O251 O 0.3278 0.85043 0.07975 0.0
C252 C 0.25335 0.94929 0.3167 0.0
C253 C 0.28288 0.95986 0.29766 0.0
C254 C 0.29668 0.94044 0.26644 0.0
C255 C 0.27929 0.91233 0.25162 0.0
C256 C 0.24901 0.90237 0.26941 0.0
C257 C 0.23708 0.91988 0.30333 0.0
C258 C 0.23926 0.96999 0.34989 0.0
C259 C 0.25946 0.9782 0.3826 0.0
C260 C 0.25106 0.00495 0.40777 0.0
C261 C 0.22159 0.023 0.40156 0.0
C262 C 0.19896 0.01181 0.37221 0.0
C263 C 0.20816 0.98595 0.34588 0.0
C264 C 0.29912 0.9915 0.31011 0.0
C265 C 0.33042 0.99205 0.32923 0.0
C266 C 0.34474 0.0218 0.34278 0.0
C267 C 0.32802 0.05153 0.33737 0.0
C268 C 0.2969 0.05086 0.31761 0.0
C269 C 0.28261 0.02111 0.30409 0.0
C270 C 0.32946 0.9489 0.24864 0.0
C271 C 0.35723 0.92811 0.2528 0.0
C272 C 0.38546 0.93058 0.22899 0.0
C273 C 0.38658 0.95427 0.20116 0.0
C274 C 0.36026 0.97723 0.19969 0.0
C275 C 0.33161 0.97431 0.22305 0.0
C276 C 0.29293 0.89343 0.21674 0.0
C277 C 0.31011 0.8639 0.2208 0.0
C278 C 0.32317 0.84641 0.188 0.0
C279 C 0.3185 0.85774 0.1505 0.0
C280 C 0.30112 0.88734 0.14664 0.0
C281 C 0.28888 0.90526 0.17954 0.0
C282 C 0.23031 0.87406 0.25079 0.0
C283 C 0.23183 0.84316 0.2664 0.0
C284 C 0.2266 0.81479 0.24214 0.0
C285 C 0.22251 0.81717 0.20164 0.0
C286 C 0.21671 0.84821 0.18749 0.0
C287 C 0.2192 0.87631 0.21226 0.0
C288 C 0.20963 0.90644 0.32693 0.0
C289 C 0.21794 0.89121 0.36118 0.0
C290 C 0.19263 0.88118 0.38603 0.0
C291 C 0.15854 0.88672 0.37739 0.0
C292 C 0.15015 0.90141 0.34267 0.0
C293 C 0.17558 0.91092 0.31736 0.0
C294 C 0.34292 0.08305 0.35257 0.0
C295 C 0.33165 0.83885 0.11551 0.0
H296 H 0.5074 0.99474 0.75231 0.0
H297 H 0.17408 0.97311 0.53267 0.0
H298 H 0.38039 0.8634 0.76197 0.0
H299 H 0.4147 0.85638 0.82048 0.0
H300 H 0.34292 0.91394 0.88975 0.0
H301 H 0.30786 0.91965 0.83139 0.0
H302 H 0.39114 0.9197 0.69168 0.0
H303 H 0.4446 0.94744 0.7072 0.0
H304 H 0.39951 0.99418 0.81077 0.0
H305 H 0.3461 0.96676 0.79456 0.0
H306 H 0.32601 0.93153 0.62133 0.0
H307 H 0.33098 0.98003 0.58324 0.0
H308 H 0.33156 0.04155 0.68977 0.0
H309 H 0.32071 0.99382 0.72709 0.0
H310 H 0.27988 0.87448 0.62129 0.0
H311 H 0.24725 0.88713 0.56358 0.0
H312 H 0.2104 0.97556 0.62453 0.0
H313 H 0.24323 0.96265 0.68204 0.0
H314 H 0.28215 0.82114 0.68672 0.0
H315 H 0.23828 0.78617 0.65528 0.0
H316 H 0.16468 0.86233 0.67965 0.0
H317 H 0.20838 0.89713 0.71141 0.0
H318 H 0.32505 0.82111 0.76243 0.0
H319 H 0.30941 0.78252 0.81153 0.0
H320 H 0.22142 0.8407 0.84145 0.0
H321 H 0.2375 0.87975 0.79292 0.0
O322 O 0.48592 0.98432 0.74647 0.0
O323 O 0.46163 0.00738 0.79961 0.0
O324 O 0.20834 0.92269 0.52445 0.0
O325 O 0.187 0.96739 0.5552 0.0
C326 C 0.32254 0.89806 0.75727 0.0
C327 C 0.33287 0.92306 0.73321 0.0
C328 C 0.31342 0.93012 0.70018 0.0
C329 C 0.28475 0.91054 0.69032 0.0
C330 C 0.27576 0.88438 0.71355 0.0
C331 C 0.29395 0.87879 0.74773 0.0
C332 C 0.34191 0.89208 0.79275 0.0
C333 C 0.37189 0.874 0.78991 0.0
C334 C 0.3913 0.87003 0.82308 0.0
C335 C 0.38125 0.88478 0.85916 0.0
C336 C 0.35088 0.90237 0.86208 0.0
C337 C 0.33105 0.90565 0.82902 0.0
C338 C 0.36483 0.94103 0.74212 0.0
C339 C 0.39283 0.93609 0.71758 0.0
C340 C 0.42335 0.95189 0.72658 0.0
C341 C 0.42638 0.97292 0.76033 0.0
C342 C 0.39809 0.97806 0.78464 0.0
C343 C 0.36759 0.96232 0.77554 0.0
C344 C 0.32215 0.95888 0.67716 0.0
C345 C 0.32653 0.95549 0.63648 0.0
C346 C 0.32999 0.98315 0.61475 0.0
C347 C 0.33145 0.01461 0.63353 0.0
C348 C 0.33017 0.01765 0.67449 0.0
C349 C 0.32439 0.99028 0.69591 0.0
C350 C 0.26385 0.91761 0.65586 0.0
C351 C 0.26453 0.89643 0.62222 0.0
C352 C 0.24598 0.90379 0.58925 0.0
C353 C 0.22619 0.93235 0.58945 0.0
C354 C 0.22532 0.95334 0.6234 0.0
C355 C 0.24401 0.94603 0.6563 0.0
C356 C 0.24835 0.86171 0.70084 0.0
C357 C 0.25635 0.82987 0.68621 0.0
C358 C 0.23149 0.80998 0.66845 0.0
C359 C 0.19851 0.82189 0.66527 0.0
C360 C 0.19008 0.85287 0.68214 0.0
C361 C 0.21489 0.8727 0.69998 0.0
C362 C 0.28261 0.85344 0.77433 0.0
C363 C 0.30233 0.82549 0.77944 0.0
C364 C 0.29338 0.80347 0.8073 0.0
C365 C 0.26438 0.80889 0.83024 0.0
C366 C 0.24392 0.83616 0.8241 0.0
C367 C 0.25303 0.85832 0.7964 0.0
C368 C 0.45895 0.98931 0.77011 0.0
C369 C 0.20668 0.94039 0.55435 0.0
H370 H 0.22285 0.6427 0.79645 0.0
H371 H 0.17301 0.30535 0.60986 0.0
H372 H 0.36224 0.49858 0.79559 0.0
H373 H 0.37516 0.54568 0.84093 0.0
H374 H 0.3012 0.51212 0.92145 0.0
H375 H 0.29005 0.46401 0.87735 0.0
H376 H 0.29264 0.52232 0.74259 0.0
H377 H 0.26838 0.57687 0.75624 0.0
H378 H 0.2147 0.54118 0.85468 0.0
H379 H 0.23851 0.48662 0.84007 0.0
H380 H 0.26075 0.46836 0.6782 0.0
H381 H 0.20875 0.46972 0.63947 0.0
H382 H 0.15018 0.45374 0.74235 0.0
H383 H 0.2024 0.4499 0.78036 0.0
H384 H 0.29196 0.41427 0.66395 0.0
H385 H 0.2609 0.38343 0.6122 0.0
H386 H 0.20088 0.33841 0.69927 0.0
H387 H 0.22985 0.37183 0.75048 0.0
H388 H 0.3666 0.39558 0.72027 0.0
H389 H 0.37718 0.34879 0.67363 0.0
H390 H 0.29263 0.29802 0.72068 0.0
H391 H 0.28463 0.34302 0.77002 0.0
H392 H 0.39052 0.44059 0.79526 0.0
H393 H 0.43305 0.42297 0.84205 0.0
H394 H 0.3589 0.3616 0.89317 0.0
H395 H 0.31643 0.37925 0.84655 0.0
O396 O 0.2322 0.62099 0.79163 0.0
O397 O 0.20678 0.60194 0.84333 0.0
O398 O 0.21618 0.34281 0.5861 0.0
O399 O 0.18561 0.31789 0.62974 0.0
C400 C 0.31005 0.45619 0.80193 0.0
C401 C 0.28166 0.46754 0.78147 0.0
C402 C 0.26645 0.4474 0.7519 0.0
C403 C 0.27998 0.4161 0.74205 0.0
C404 C 0.30869 0.40471 0.76199 0.0
C405 C 0.32338 0.42452 0.79268 0.0
C406 C 0.32506 0.47809 0.83317 0.0
C407 C 0.35009 0.50055 0.82386 0.0
C408 C 0.35728 0.52747 0.84955 0.0
C409 C 0.33838 0.53281 0.88392 0.0
C410 C 0.31571 0.50863 0.89482 0.0
C411 C 0.3094 0.48119 0.86977 0.0
C412 C 0.2677 0.50075 0.7907 0.0
C413 C 0.2757 0.52641 0.76712 0.0
C414 C 0.26172 0.55749 0.77492 0.0
C415 C 0.23967 0.56342 0.80663 0.0
C416 C 0.23169 0.5375 0.83014 0.0
C417 C 0.2454 0.50637 0.82202 0.0
C418 C 0.23537 0.45815 0.73182 0.0
C419 C 0.23667 0.46578 0.69255 0.0
C420 C 0.20703 0.46677 0.67053 0.0
C421 C 0.17565 0.4613 0.68791 0.0
C422 C 0.17416 0.4578 0.72836 0.0
C423 C 0.2039 0.45568 0.75005 0.0
C424 C 0.26328 0.39509 0.71091 0.0
C425 C 0.27203 0.39778 0.67174 0.0
C426 C 0.25433 0.38006 0.64228 0.0
C427 C 0.22865 0.35817 0.65161 0.0
C428 C 0.22065 0.35488 0.69104 0.0
C429 C 0.23723 0.37382 0.72036 0.0
C430 C 0.3241 0.37312 0.74769 0.0
C431 C 0.35169 0.37355 0.72211 0.0
C432 C 0.35738 0.34708 0.69512 0.0
C433 C 0.33439 0.3209 0.69228 0.0
C434 C 0.30993 0.31853 0.72151 0.0
C435 C 0.30549 0.34412 0.7498 0.0
C436 C 0.35033 0.41125 0.81751 0.0
C437 C 0.38355 0.42309 0.81626 0.0
C438 C 0.40776 0.41305 0.84287 0.0
C439 C 0.39905 0.39105 0.87109 0.0
C440 C 0.36609 0.37854 0.8716 0.0
C441 C 0.34196 0.38851 0.84497 0.0
C442 C 0.22516 0.59654 0.8151 0.0
C443 C 0.2099 0.33919 0.62041 0.0
H444 H 0.9674 0.40285 0.86655 0.0
H445 H 0.81845 0.18059 0.55274 0.0
H446 H 0.82245 0.27502 0.90269 0.0
H447 H 0.83064 0.31721 0.95599 0.0
H448 H 0.77978 0.38773 0.88821 0.0
H449 H 0.77193 0.34562 0.83485 0.0
H450 H 0.88008 0.28746 0.85358 0.0
H451 H 0.92215 0.33055 0.86659 0.0
H452 H 0.87071 0.39108 0.78623 0.0
H453 H 0.82872 0.34785 0.77375 0.0
H454 H 0.8963 0.25672 0.77173 0.0
H455 H 0.93867 0.27506 0.72534 0.0
H456 H 0.85941 0.3155 0.6566 0.0
H457 H 0.81728 0.29752 0.70296 0.0
H458 H 0.85208 0.1968 0.7426 0.0
H459 H 0.86278 0.1695 0.67846 0.0
H460 H 0.77615 0.21839 0.63205 0.0
H461 H 0.76556 0.24538 0.69653 0.0
H462 H 0.79069 0.17405 0.78633 0.0
H463 H 0.75654 0.12981 0.75586 0.0
H464 H 0.67567 0.198 0.73834 0.0
H465 H 0.71097 0.24289 0.76624 0.0
H466 H 0.75929 0.22157 0.88022 0.0
H467 H 0.70851 0.22492 0.92184 0.0
H468 H 0.66931 0.30206 0.85434 0.0
H469 H 0.72006 0.29914 0.81348 0.0
O470 O 0.95054 0.38612 0.86096 0.0
O471 O 0.92374 0.41585 0.81847 0.0
O472 O 0.84954 0.15594 0.60609 0.0
O473 O 0.81341 0.18938 0.57888 0.0
C474 C 0.79892 0.28452 0.82994 0.0
C475 C 0.82628 0.28823 0.80451 0.0
C476 C 0.82861 0.26823 0.76987 0.0
C477 C 0.80487 0.24321 0.76144 0.0
C478 C 0.77768 0.23892 0.7872 0.0
C479 C 0.77413 0.26044 0.82075 0.0
C480 C 0.79623 0.3072 0.86517 0.0
C481 C 0.81214 0.29929 0.89988 0.0
C482 C 0.81709 0.32336 0.93001 0.0
C483 C 0.80603 0.35557 0.92579 0.0
C484 C 0.78851 0.36301 0.8919 0.0
C485 C 0.78373 0.33899 0.86173 0.0
C486 C 0.85143 0.31463 0.81281 0.0
C487 C 0.87793 0.31011 0.83897 0.0
C488 C 0.90195 0.33472 0.84623 0.0
C489 C 0.89984 0.36424 0.82737 0.0
C490 C 0.8731 0.36864 0.80121 0.0
C491 C 0.8491 0.34403 0.79403 0.0
C492 C 0.85395 0.2759 0.74045 0.0
C493 C 0.88819 0.26915 0.74636 0.0
C494 C 0.91215 0.27947 0.72008 0.0
C495 C 0.90185 0.29654 0.68791 0.0
C496 C 0.86754 0.30225 0.68135 0.0
C497 C 0.84367 0.29202 0.70759 0.0
C498 C 0.80801 0.22295 0.7242 0.0
C499 C 0.83507 0.20108 0.71872 0.0
C500 C 0.84119 0.18563 0.68204 0.0
C501 C 0.82053 0.1921 0.65007 0.0
C502 C 0.7927 0.21314 0.65601 0.0
C503 C 0.78641 0.22835 0.69285 0.0
C504 C 0.75348 0.21177 0.77832 0.0
C505 C 0.76534 0.17941 0.7767 0.0
C506 C 0.74585 0.15419 0.7594 0.0
C507 C 0.71386 0.16079 0.74421 0.0
C508 C 0.70044 0.19254 0.74962 0.0
C509 C 0.72046 0.21807 0.76584 0.0
C510 C 0.74308 0.26015 0.84409 0.0
C511 C 0.73949 0.23884 0.87425 0.0
C512 C 0.71065 0.24062 0.89766 0.0
C513 C 0.68531 0.2635 0.89063 0.0
C514 C 0.68855 0.28404 0.85969 0.0
C515 C 0.71742 0.28252 0.83669 0.0
C516 C 0.92535 0.39035 0.8352 0.0
C517 C 0.82866 0.17786 0.61046 0.0
H518 H -0.00037 0.66436 0.84911 0.0
H519 H 0.64678 0.71464 0.01215 0.0
H520 H 0.8978 0.81267 0.83675 0.0
H521 H 0.93803 0.82409 0.78468 0.0
H522 H 0.86456 0.79152 0.69813 0.0
H523 H 0.82436 0.78042 0.75009 0.0
H524 H 0.89069 0.75318 0.90075 0.0
H525 H 0.94038 0.71831 0.88987 0.0
H526 H 0.90223 0.68684 0.77571 0.0
H527 H 0.85245 0.72144 0.7872 0.0
H528 H 0.82267 0.75197 0.95869 0.0
H529 H 0.81615 0.70399 0.99722 0.0
H530 H 0.80885 0.6421 0.89132 0.0
H531 H 0.81195 0.69073 0.85276 0.0
H532 H 0.7778 0.80436 0.95976 0.0
H533 H 0.73585 0.79108 0.00851 0.0
H534 H 0.69532 0.71549 0.92836 0.0
H535 H 0.73718 0.72939 0.87963 0.0
H536 H 0.77662 0.8555 0.91696 0.0
H537 H 0.72378 0.88026 0.942 0.0
H538 H 0.66801 0.82379 0.85354 0.0
H539 H 0.72044 0.79749 0.83042 0.0
H540 H 0.84091 0.8668 0.83489 0.0
H541 H 0.83407 0.91102 0.78989 0.0
H542 H 0.75117 0.85865 0.73381 0.0
H543 H 0.75871 0.8141 0.7778 0.0
O544 O 0.97968 0.67782 0.85291 0.0
O545 O 0.95905 0.6626 0.79438 0.0
O546 O 0.6864 0.75859 0.03395 0.0
O547 O 0.66367 0.7203 0.99338 0.0
C548 C 0.83372 0.78896 0.82846 0.0
C549 C 0.83825 0.76155 0.85125 0.0
C550 C 0.8143 0.75478 0.88022 0.0
C551 C 0.78627 0.7758 0.88677 0.0
C552 C 0.78206 0.80338 0.86442 0.0
C553 C 0.80546 0.80972 0.83493 0.0
C554 C 0.85822 0.79566 0.79715 0.0
C555 C 0.89044 0.80798 0.80655 0.0
C556 C 0.91328 0.81451 0.77696 0.0
C557 C 0.90428 0.80847 0.73762 0.0
C558 C 0.87199 0.79625 0.7283 0.0
C559 C 0.84912 0.78994 0.75784 0.0
C560 C 0.86807 0.73994 0.84472 0.0
C561 C 0.89306 0.73862 0.87349 0.0
C562 C 0.92145 0.71874 0.86715 0.0
C563 C 0.92533 0.69984 0.83187 0.0
C564 C 0.90007 0.70112 0.80317 0.0
C565 C 0.87167 0.72093 0.80961 0.0
C566 C 0.81727 0.725 0.90289 0.0
C567 C 0.81953 0.72811 0.94373 0.0
C568 C 0.81587 0.70075 0.96568 0.0
C569 C 0.81161 0.66948 0.94716 0.0
C570 C 0.8117 0.66604 0.90619 0.0
C571 C 0.81394 0.69368 0.88422 0.0
C572 C 0.76026 0.76808 0.91605 0.0
C573 C 0.75958 0.78521 0.95264 0.0
C574 C 0.73576 0.7774 0.98052 0.0
C575 C 0.71222 0.75219 0.97234 0.0
C576 C 0.71305 0.73504 0.93561 0.0
C577 C 0.73686 0.74296 0.90769 0.0
C578 C 0.75229 0.82478 0.87187 0.0
C579 C 0.75308 0.84921 0.90232 0.0
C580 C 0.72303 0.86326 0.91661 0.0
C581 C 0.69203 0.8536 0.89982 0.0
C582 C 0.6917 0.83148 0.8669 0.0
C583 C 0.72157 0.81669 0.8535 0.0
C584 C 0.79995 0.83753 0.80993 0.0
C585 C 0.82112 0.86505 0.8131 0.0
C586 C 0.81726 0.89013 0.78755 0.0
C587 C 0.792 0.88802 0.75884 0.0
C588 C 0.7706 0.8607 0.75603 0.0
C589 C 0.77471 0.83551 0.78123 0.0
C590 C 0.95563 0.67893 0.82511 0.0
C591 C 0.68674 0.74397 0.00184 0.0
C592 C 0.99502 0.35503 0.5843 0.0
C593 C 0.0652 0.38286 0.47736 0.0
O594 O 0.99237 0.38546 0.57789 0.0
Zn595 Zn 0.01483 0.41885 0.53934 0.0
O596 O 0.01564 0.33696 0.56465 0.0
Zn597 Zn 0.03039 0.36951 0.53114 0.0
O598 O 0.06246 0.39944 0.56854 0.0
O599 O 0.03943 0.44839 0.57585 0.0
O600 O 0.05978 0.35499 0.49035 0.0
O601 O 0.05037 0.40846 0.49253 0.0
O602 O 0.97488 0.43419 0.51273 0.0
O603 O 0.9844 0.38123 0.50167 0.0
C604 C 0.06289 0.42871 0.58402 0.0
C605 C 0.96609 0.40654 0.49708 0.0
C606 C 0.69454 0.05109 0.64354 0.0
C607 C 0.72293 0.96589 0.54241 0.0
O608 O 0.7258 0.04974 0.63436 0.0
Zn609 Zn 0.75882 0.02216 0.59608 0.0
O610 O 0.67355 0.03108 0.62718 0.0
Zn611 Zn 0.70662 0.00855 0.59309 0.0
O612 O 0.73689 0.98373 0.63431 0.0
O613 O 0.78909 0.00308 0.63208 0.0
O614 O 0.69357 0.97413 0.55431 0.0
O615 O 0.74847 0.98155 0.55662 0.0
O616 O 0.77492 0.05563 0.56307 0.0
O617 O 0.72 0.04747 0.55756 0.0
C618 C 0.76757 0.98406 0.64624 0.0
C619 C 0.74656 0.06309 0.54868 0.0
C620 C 0.99257 0.82582 0.60595 0.0
C621 C 0.06256 0.84815 0.49365 0.0
O622 O 0.00098 0.85341 0.59392 0.0
Zn623 Zn 0.02676 0.83726 0.5491 0.0
O624 O 0.00288 0.79946 0.5876 0.0
Zn625 Zn 0.03349 0.78626 0.53725 0.0
O626 O 0.07036 0.76276 0.55913 0.0
O627 O 0.07026 0.81608 0.57485 0.0
O628 O 0.0595 0.81734 0.498 0.0
O629 O 0.04698 0.86856 0.51648 0.0
O630 O 0.98978 0.81423 0.51127 0.0
O631 O 0.00291 0.76167 0.50381 0.0
C632 C 0.08375 0.78773 0.57658 0.0
C633 C 0.98372 0.78535 0.49639 0.0
C634 C 0.30186 0.22571 0.56782 0.0
C635 C 0.24357 0.14403 0.48342 0.0
O636 O 0.32199 0.2114 0.5432 0.0
Zn637 Zn 0.31861 0.17416 0.49717 0.0
O638 O 0.27057 0.21918 0.56639 0.0
Zn639 Zn 0.27122 0.18671 0.5231 0.0
O640 O 0.29696 0.14639 0.54686 0.0
O641 O 0.34653 0.14022 0.51898 0.0
O642 O 0.22979 0.16442 0.50791 0.0
O643 O 0.27534 0.14557 0.47649 0.0
O644 O 0.33286 0.19618 0.45108 0.0
O645 O 0.28316 0.21329 0.47284 0.0
C646 C 0.32502 0.13098 0.54351 0.0
C647 C 0.30731 0.21469 0.44816 0.0
C648 C 0.49102 0.92124 0.09014 0.0
C649 C 0.5717 0.88669 0.9881 0.0
O650 O 0.51503 0.93804 0.07722 0.0
Zn651 Zn 0.53295 0.90413 0.04119 0.0
O652 O 0.48707 0.89133 0.0777 0.0
Zn653 Zn 0.51103 0.85689 0.03736 0.0
O654 O 0.52679 0.82305 0.0684 0.0
O655 O 0.55502 0.86946 0.07843 0.0
O656 O 0.55184 0.86398 0.99797 0.0
O657 O 0.57036 0.91416 0.0074 0.0
O658 O 0.49235 0.89666 0.9996 0.0
O659 O 0.47562 0.8452 0.00202 0.0
C660 C 0.55019 0.8394 0.08551 0.0
C661 C 0.47315 0.87291 0.98752 0.0
C662 C 0.25394 0.72347 0.07374 0.0
C663 C 0.30716 0.64759 0.97797 0.0
O664 O 0.28516 0.71925 0.06683 0.0
Zn665 Zn 0.28177 0.68779 0.02311 0.0
O666 O 0.23225 0.70876 0.05125 0.0
Zn667 Zn 0.23336 0.67664 0.99952 0.0
O668 O 0.20694 0.64026 0.01611 0.0
O669 O 0.25608 0.64661 0.0465 0.0
O670 O 0.27516 0.64989 0.97335 0.0
O671 O 0.32225 0.66605 0.00353 0.0
O672 O 0.26836 0.71662 0.97564 0.0
O673 O 0.21688 0.70229 0.95738 0.0
C674 C 0.22821 0.6311 0.04104 0.0
C675 C 0.24297 0.71971 0.95308 0.0
C676 C 0.57256 0.2916 0.99356 0.0
C677 C 0.47867 0.30092 0.08453 0.0
O678 O 0.56603 0.32131 0.00469 0.0
Zn679 Zn 0.53293 0.34679 0.04441 0.0
O680 O 0.55469 0.26864 0.00593 0.0
Zn681 Zn 0.5248 0.2954 0.0387 0.0
O682 O 0.49638 0.32397 0.99825 0.0
O683 O 0.5098 0.37596 0.01121 0.0
O684 O 0.48994 0.2746 0.06777 0.0
O685 O 0.49232 0.32842 0.0777 0.0
O686 O 0.56401 0.36423 0.08445 0.0
O687 O 0.5578 0.3109 0.08578 0.0
C688 C 0.49314 0.35434 0.9912 0.0
C689 C 0.57116 0.33753 0.09977 0.0
C690 C 0.84446 0.55114 0.14264 0.0
C691 C 0.82989 0.46348 0.03914 0.0
O692 O 0.86803 0.53293 0.12836 0.0
Zn693 Zn 0.84007 0.50741 0.08983 0.0
O694 O 0.81443 0.54701 0.1298 0.0
Zn695 Zn 0.78638 0.51652 0.09026 0.0
O696 O 0.75877 0.49388 0.12701 0.0
O697 O 0.81208 0.47865 0.12762 0.0
O698 O 0.80243 0.47773 0.05019 0.0
O699 O 0.85798 0.47323 0.05369 0.0
O700 O 0.82338 0.54414 0.05247 0.0
O701 O 0.76804 0.54935 0.05761 0.0
C702 C 0.78203 0.47622 0.14047 0.0
C703 C 0.79591 0.55837 0.0433 0.0
C704 C 0.10554 0.40226 0.38139 0.0
C705 C 0.13867 0.39036 0.38723 0.0
C706 C 0.12438 0.37714 0.45357 0.0
C707 C 0.0904 0.386 0.44643 0.0
N708 N 0.04712 0.4024 0.40215 0.0
N709 N 0.17876 0.36198 0.4259 0.0
C710 C 0.08051 0.39743 0.40997 0.0
C711 C 0.14786 0.37644 0.42248 0.0
N712 N 0.09827 0.41883 0.34898 0.0
N713 N 0.13456 0.37087 0.49047 0.0
H714 H 0.19685 0.36141 0.40383 0.0
H715 H 0.18544 0.34823 0.44928 0.0
H716 H 0.1183 0.37191 0.51436 0.0
H717 H 0.15971 0.3677 0.4982 0.0
H718 H 0.07567 0.43124 0.3452 0.0
H719 H 0.11585 0.42237 0.32705 0.0
H720 H 0.03803 0.40738 0.37467 0.0
H721 H 0.02802 0.39884 0.42232 0.0
C722 C 0.72953 0.11437 0.46179 0.0
C723 C 0.73339 0.1464 0.47945 0.0
C724 C 0.74689 0.12375 0.54231 0.0
C725 C 0.74304 0.09168 0.52452 0.0
N726 N 0.72524 0.05605 0.46986 0.0
N727 N 0.74287 0.18263 0.53635 0.0
C728 C 0.7328 0.08688 0.48495 0.0
C729 C 0.7412 0.15139 0.51977 0.0
N730 N 0.72314 0.1103 0.42262 0.0
N731 N 0.7557 0.12761 0.58089 0.0
H732 H 0.74115 0.20342 0.52032 0.0
H733 H 0.74467 0.18849 0.56613 0.0
H734 H 0.75814 0.10815 0.59892 0.0
H735 H 0.76118 0.14989 0.59555 0.0
H736 H 0.72444 0.08789 0.40672 0.0
H737 H 0.718 0.12974 0.40522 0.0
H738 H 0.71386 0.05105 0.44286 0.0
H739 H 0.72828 0.03518 0.48541 0.0
C740 C 0.9284 0.76056 0.40915 0.0
C741 C 0.89714 0.7742 0.42193 0.0
C742 C 0.92165 0.78977 0.48567 0.0
C743 C 0.95384 0.77991 0.47123 0.0
N744 N 0.98904 0.76087 0.41708 0.0
N745 N 0.86492 0.80647 0.46989 0.0
C746 C 0.9576 0.76646 0.43242 0.0
C747 C 0.89396 0.7901 0.45956 0.0
N748 N 0.93001 0.74139 0.37521 0.0
N749 N 0.91727 0.79768 0.5246 0.0
H750 H 0.84403 0.80742 0.45148 0.0
H751 H 0.8626 0.82149 0.49532 0.0
H752 H 0.93674 0.79671 0.54495 0.0
H753 H 0.89371 0.80197 0.53731 0.0
H754 H 0.95136 0.72801 0.36654 0.0
H755 H 0.90907 0.73646 0.35739 0.0
H756 H 0.99326 0.7546 0.38765 0.0
H757 H 0.01121 0.76536 0.43284 0.0
C758 C 0.21718 0.08479 0.40397 0.0
C759 C 0.21674 0.0551 0.42365 0.0
C760 C 0.2238 0.08627 0.48626 0.0
C761 C 0.22485 0.11552 0.4662 0.0
N762 N 0.20895 0.1436 0.40991 0.0
N763 N 0.209 0.02863 0.48382 0.0
C764 C 0.21672 0.11502 0.42631 0.0
C765 C 0.21632 0.05624 0.46504 0.0
N766 N 0.22101 0.08449 0.36441 0.0
N767 N 0.23172 0.08695 0.52501 0.0
H768 H 0.20291 0.00648 0.46879 0.0
H769 H 0.20582 0.0285 0.5139 0.0
H770 H 0.23587 0.10876 0.54164 0.0
H771 H 0.23566 0.06595 0.54011 0.0
H772 H 0.2251 0.10568 0.3497 0.0
H773 H 0.22343 0.0632 0.34652 0.0
H774 H 0.20036 0.14461 0.38131 0.0
H775 H 0.20742 0.16568 0.42671 0.0
C776 C 0.17237 0.81153 0.59973 0.0
C777 C 0.17372 0.80438 0.63963 0.0
C778 C 0.11951 0.77597 0.63407 0.0
C779 C 0.11696 0.78574 0.59533 0.0
N780 N 0.14368 0.80334 0.53744 0.0
N781 N 0.15391 0.77375 0.69263 0.0
C782 C 0.14452 0.80028 0.57686 0.0
C783 C 0.14904 0.78432 0.65605 0.0
N784 N 0.19678 0.83059 0.58444 0.0
N785 N 0.09306 0.76013 0.65007 0.0
H786 H 0.17541 0.77979 0.7091 0.0
H787 H 0.13812 0.75733 0.70569 0.0
H788 H 0.07208 0.7523 0.63369 0.0
H789 H 0.09138 0.7553 0.67939 0.0
H790 H 0.19504 0.84036 0.55723 0.0
H791 H 0.21843 0.83796 0.5998 0.0
H792 H 0.16391 0.8115 0.52136 0.0
H793 H 0.12351 0.79478 0.52014 0.0
C794 C 0.31916 0.3079 0.62178 0.0
C795 C 0.33307 0.29754 0.65724 0.0
C796 C 0.33456 0.24095 0.62909 0.0
C797 C 0.31502 0.25064 0.59705 0.0
N798 N 0.28847 0.29314 0.56223 0.0
N799 N 0.35487 0.25441 0.69484 0.0
C800 C 0.30744 0.2841 0.5931 0.0
C801 C 0.34125 0.26409 0.66081 0.0
N802 N 0.31766 0.34041 0.61499 0.0
N803 N 0.34709 0.20982 0.62897 0.0
H804 H 0.36235 0.27102 0.71745 0.0
H805 H 0.35741 0.23003 0.70142 0.0
H806 H 0.34303 0.19242 0.60607 0.0
H807 H 0.36401 0.20204 0.64967 0.0
H808 H 0.31197 0.34906 0.58785 0.0
H809 H 0.32485 0.35897 0.63523 0.0
H810 H 0.2783 0.31646 0.56034 0.0
H811 H 0.28125 0.27681 0.53924 0.0
C812 C 0.94362 0.34007 0.67497 0.0
C813 C 0.92696 0.31068 0.66232 0.0
C814 C 0.95136 0.31319 0.59745 0.0
C815 C 0.97131 0.3403 0.6113 0.0
N816 N 0.98855 0.37833 0.66425 0.0
N817 N 0.91821 0.26635 0.61396 0.0
C818 C 0.96801 0.35349 0.65034 0.0
C819 C 0.93188 0.2963 0.62429 0.0
N820 N 0.93511 0.35588 0.70983 0.0
N821 N 0.94917 0.30493 0.55834 0.0
H822 H 0.90342 0.25338 0.63286 0.0
H823 H 0.92395 0.25314 0.58794 0.0
H824 H 0.96143 0.31785 0.53725 0.0
H825 H 0.9322 0.28765 0.54644 0.0
H826 H 0.94335 0.37936 0.71851 0.0
H827 H 0.91757 0.34672 0.72899 0.0
H828 H 0.99043 0.38581 0.69368 0.0
H829 H 0.00536 0.39032 0.64683 0.0
C830 C 0.79921 0.90745 0.69156 0.0
C831 C 0.78843 0.9139 0.73068 0.0
C832 C 0.76992 0.96889 0.71542 0.0
C833 C 0.77768 0.96118 0.67567 0.0
N834 N 0.79679 0.92279 0.62444 0.0
N835 N 0.76022 0.94881 0.7795 0.0
C836 C 0.79178 0.93043 0.66334 0.0
C837 C 0.77311 0.94423 0.74266 0.0
N838 N 0.81696 0.87951 0.68161 0.0
N839 N 0.75983 0.99993 0.72706 0.0
H840 H 0.76215 0.93135 0.8003 0.0
H841 H 0.74544 0.96882 0.78874 0.0
H842 H 0.7569 0.01841 0.70766 0.0
H843 H 0.75693 0.00819 0.75611 0.0
H844 H 0.82852 0.87482 0.65467 0.0
H845 H 0.82235 0.86181 0.70135 0.0
H846 H 0.80305 0.89947 0.61295 0.0
H847 H 0.79265 0.9394 0.60304 0.0
C848 C 0.95792 0.79537 0.70041 0.0
C849 C 0.92851 0.81487 0.70586 0.0
C850 C 0.94031 0.84112 0.64506 0.0
C851 C 0.97124 0.82365 0.64131 0.0
N852 N 0.01356 0.79116 0.67171 0.0
N853 N 0.89702 0.86249 0.68924 0.0
C854 C 0.98128 0.8028 0.67087 0.0
C855 C 0.92135 0.8397 0.67998 0.0
N856 N 0.96307 0.76905 0.72238 0.0
N857 N 0.92794 0.85758 0.61465 0.0
H858 H 0.88339 0.86275 0.71523 0.0
H859 H 0.89306 0.883 0.67323 0.0
H860 H 0.94012 0.85812 0.58782 0.0
H861 H 0.90387 0.86785 0.61473 0.0
H862 H 0.98233 0.75209 0.71672 0.0
H863 H 0.94635 0.76242 0.74396 0.0
H864 H 0.02306 0.77826 0.69458 0.0
H865 H 0.03193 0.79766 0.6519 0.0
C866 C 0.35547 0.0487 0.58052 0.0
C867 C 0.33156 0.04456 0.61058 0.0
C868 C 0.31184 0.10023 0.603 0.0
C869 C 0.33055 0.10209 0.56778 0.0
N870 N 0.36421 0.07175 0.51842 0.0
N871 N 0.27943 0.06386 0.64066 0.0
C872 C 0.35095 0.07467 0.55514 0.0
C873 C 0.30743 0.06954 0.61894 0.0
N874 N 0.38279 0.02848 0.57644 0.0
N875 N 0.29911 0.12765 0.62233 0.0
H876 H 0.27352 0.04086 0.65028 0.0
H877 H 0.26013 0.08108 0.64473 0.0
H878 H 0.30444 0.15124 0.61439 0.0
H879 H 0.2872 0.12694 0.64934 0.0
H880 H 0.40224 0.03243 0.55684 0.0
H881 H 0.38781 0.01017 0.5955 0.0
H882 H 0.3768 0.0507 0.50773 0.0
H883 H 0.35915 0.08789 0.49692 0.0
C884 C 0.13185 0.47837 0.63944 0.0
C885 C 0.14542 0.4542 0.66292 0.0
C886 C 0.10122 0.41604 0.63971 0.0
C887 C 0.09036 0.43851 0.61218 0.0
N888 N 0.1011 0.48882 0.58058 0.0
N889 N 0.1476 0.39722 0.67781 0.0
C890 C 0.10708 0.46923 0.61069 0.0
C891 C 0.13138 0.42226 0.66095 0.0
N892 N 0.14229 0.51011 0.64488 0.0
N893 N 0.08232 0.38913 0.64684 0.0
H894 H 0.17015 0.40027 0.69311 0.0
H895 H 0.14048 0.37277 0.67314 0.0
H896 H 0.05964 0.38346 0.6329 0.0
H897 H 0.08742 0.37424 0.66972 0.0
H898 H 0.13087 0.52934 0.63125 0.0
H899 H 0.16021 0.51761 0.66582 0.0
H900 H 0.11507 0.50984 0.57622 0.0
H901 H 0.08491 0.48234 0.55749 0.0
C902 C 0.68776 0.10505 0.73541 0.0
C903 C 0.69683 0.13489 0.71908 0.0
C904 C 0.68471 0.11019 0.65388 0.0
C905 C 0.68379 0.07909 0.66958 0.0
N906 N 0.6827 0.04598 0.72492 0.0
N907 N 0.70589 0.16551 0.66167 0.0
C908 C 0.684 0.07629 0.71039 0.0
C909 C 0.69497 0.13774 0.67802 0.0
N910 N 0.68334 0.10434 0.77476 0.0
N911 N 0.67728 0.11284 0.61536 0.0
H912 H 0.71519 0.18592 0.67772 0.0
H913 H 0.70826 0.1675 0.63173 0.0
H914 H 0.67012 0.09259 0.59729 0.0
H915 H 0.67496 0.13515 0.6025 0.0
H916 H 0.67438 0.08396 0.78828 0.0
H917 H 0.68578 0.12528 0.79346 0.0
H918 H 0.68689 0.04174 0.75412 0.0
H919 H 0.67872 0.02481 0.707 0.0
C920 C 0.89452 0.40479 0.42222 0.0
C921 C 0.87253 0.38214 0.43907 0.0
C922 C 0.90826 0.38293 0.49733 0.0
C923 C 0.93254 0.40183 0.47842 0.0
N924 N 0.95046 0.42915 0.42185 0.0
N925 N 0.86158 0.34521 0.49 0.0
C926 C 0.92605 0.41259 0.44064 0.0
C927 C 0.88016 0.37009 0.476 0.0
N928 N 0.88494 0.41922 0.38909 0.0
N929 N 0.91165 0.37793 0.53614 0.0
H930 H 0.84091 0.3347 0.47531 0.0
H931 H 0.86855 0.33288 0.51445 0.0
H932 H 0.93124 0.38812 0.55305 0.0
H933 H 0.89318 0.36686 0.55242 0.0
H934 H 0.89828 0.4382 0.37736 0.0
H935 H 0.86206 0.41399 0.37502 0.0
H936 H 0.94891 0.43442 0.39262 0.0
H937 H 0.97336 0.43592 0.43497 0.0
C938 C 0.76472 0.9123 0.46162 0.0
C939 C 0.74093 0.88677 0.45523 0.0
C940 C 0.70782 0.91014 0.51033 0.0
C941 C 0.7284 0.9387 0.51199 0.0
N942 N 0.77163 0.9695 0.4798 0.0
N943 N 0.68532 0.8658 0.46844 0.0
C944 C 0.75558 0.94055 0.48503 0.0
C945 C 0.7111 0.8869 0.47809 0.0
N946 N 0.79634 0.90947 0.44596 0.0
N947 N 0.68649 0.904 0.54022 0.0
H948 H 0.68599 0.84931 0.44411 0.0
H949 H 0.66193 0.8672 0.4823 0.0
H950 H 0.68531 0.9186 0.56608 0.0
H951 H 0.67319 0.8821 0.54132 0.0
H952 H 0.81543 0.92639 0.45276 0.0
H953 H 0.80451 0.88851 0.4299 0.0
H954 H 0.78956 0.97208 0.45802 0.0
H955 H 0.76421 0.99173 0.49338 0.0
C956 C 0.13173 0.89493 0.44351 0.0
C957 C 0.13203 0.87844 0.40596 0.0
C958 C 0.08262 0.84657 0.42401 0.0
C959 C 0.08555 0.85965 0.46313 0.0
N960 N 0.11804 0.89133 0.51163 0.0
N961 N 0.11092 0.83472 0.36229 0.0
C962 C 0.1114 0.88263 0.47334 0.0
C963 C 0.10827 0.85323 0.39661 0.0
N964 N 0.15031 0.92279 0.45052 0.0
N965 N 0.0548 0.82872 0.41265 0.0
H966 H 0.12958 0.8385 0.34166 0.0
H967 H 0.09651 0.81381 0.35587 0.0
H968 H 0.03491 0.82437 0.43151 0.0
H969 H 0.04982 0.82119 0.38371 0.0
H970 H 0.14827 0.93756 0.47619 0.0
H971 H 0.16502 0.933 0.4292 0.0
H972 H 0.13881 0.90544 0.52061 0.0
H973 H 0.10507 0.8817 0.5347 0.0
C974 C 0.26624 0.26087 0.36809 0.0
C975 C 0.29169 0.28362 0.35918 0.0
C976 C 0.32846 0.26116 0.40885 0.0
C977 C 0.30392 0.23681 0.41537 0.0
N978 N 0.25436 0.20778 0.39205 0.0
N979 N 0.35004 0.30013 0.36455 0.0
C980 C 0.27427 0.23497 0.3922 0.0
C981 C 0.32378 0.28214 0.37758 0.0
N982 N 0.23395 0.26472 0.35515 0.0
N983 N 0.35538 0.26539 0.43351 0.0
H984 H 0.34777 0.31512 0.34117 0.0
H985 H 0.37474 0.29764 0.37434 0.0
H986 H 0.35947 0.25095 0.45705 0.0
H987 H 0.372 0.28504 0.43261 0.0
H988 H 0.21387 0.2506 0.3642 0.0
H989 H 0.2265 0.28406 0.33866 0.0
H990 H 0.23409 0.20382 0.37299 0.0
H991 H 0.26072 0.18753 0.4076 0.0
C992 C 0.64834 0.89619 0.92104 0.0
C993 C 0.65974 0.86322 0.91936 0.0
C994 C 0.60602 0.84638 0.94606 0.0
C995 C 0.59794 0.87947 0.95703 0.0
N996 N 0.60752 0.93649 0.94593 0.0
N997 N 0.65128 0.80754 0.93741 0.0
C998 C 0.61805 0.90471 0.94192 0.0
C999 C 0.63916 0.83851 0.93404 0.0
N1000 N 0.66563 0.91889 0.90131 0.0
N1001 N 0.58174 0.82269 0.94391 0.0
H1002 H 0.67595 0.80077 0.93021 0.0
H1003 H 0.63779 0.78971 0.95128 0.0
H1004 H 0.55606 0.82817 0.9448 0.0
H1005 H 0.58676 0.79856 0.93412 0.0
H1006 H 0.6573 0.94272 0.89827 0.0
H1007 H 0.68746 0.91321 0.88537 0.0
H1008 H 0.62302 0.95643 0.9414 0.0
H1009 H 0.58268 0.94287 0.95283 0.0
C1010 C 0.26139 0.79745 0.90144 0.0
C1011 C 0.25632 0.78664 0.8618 0.0
C1012 C 0.24254 0.73159 0.88182 0.0
C1013 C 0.24505 0.74307 0.92159 0.0
N1014 N 0.25025 0.78845 0.96934 0.0
N1015 N 0.2357 0.74547 0.81458 0.0
C1016 C 0.25251 0.7765 0.93141 0.0
C1017 C 0.2449 0.75431 0.85211 0.0
N1018 N 0.27601 0.82721 0.91049 0.0
N1019 N 0.23991 0.69878 0.8722 0.0
H1020 H 0.23708 0.76147 0.7921 0.0
H1021 H 0.22389 0.72336 0.8065 0.0
H1022 H 0.23869 0.68116 0.89286 0.0
H1023 H 0.24209 0.68876 0.84373 0.0
H1024 H 0.28391 0.83478 0.93851 0.0
H1025 H 0.28299 0.8433 0.88949 0.0
H1026 H 0.25198 0.81326 0.97783 0.0
H1027 H 0.24342 0.77396 0.99202 0.0
C1028 C 0.44893 0.35806 0.89246 0.0
C1029 C 0.42392 0.38219 0.90139 0.0
C1030 C 0.44265 0.38616 0.96971 0.0
C1031 C 0.46951 0.36411 0.96015 0.0
N1032 N 0.50187 0.33344 0.91095 0.0
N1033 N 0.40092 0.42374 0.94653 0.0
C1034 C 0.47363 0.35118 0.92108 0.0
C1035 C 0.42198 0.3976 0.93945 0.0
N1036 N 0.44858 0.34115 0.85691 0.0
N1037 N 0.43567 0.39488 0.00791 0.0
H1038 H 0.38503 0.43262 0.92534 0.0
H1039 H 0.40153 0.43845 0.97234 0.0
H1040 H 0.44955 0.38643 0.03108 0.0
H1041 H 0.41415 0.40789 0.0168 0.0
H1042 H 0.46367 0.32076 0.85014 0.0
H1043 H 0.43128 0.34594 0.83505 0.0
H1044 H 0.50807 0.32623 0.88226 0.0
H1045 H 0.52083 0.32842 0.93081 0.0
C1046 C 0.79718 0.38348 0.99223 0.0
C1047 C 0.81427 0.38197 0.95597 0.0
C1048 C 0.84344 0.43356 0.97458 0.0
C1049 C 0.82763 0.43412 0.01165 0.0
N1050 N 0.79639 0.40541 0.05926 0.0
N1051 N 0.85897 0.40138 0.91572 0.0
C1052 C 0.80656 0.40777 0.02151 0.0
C1053 C 0.8391 0.40575 0.94811 0.0
N1054 N 0.77113 0.36248 0.99823 0.0
N1055 N 0.86117 0.4602 0.96383 0.0
H1056 H 0.85648 0.38132 0.89573 0.0
H1057 H 0.8798 0.41598 0.91049 0.0
H1058 H 0.86488 0.48105 0.9823 0.0
H1059 H 0.86995 0.46271 0.9356 0.0
H1060 H 0.75524 0.36485 0.02238 0.0
H1061 H 0.76351 0.3443 0.97751 0.0
H1062 H 0.78362 0.38521 0.06898 0.0
H1063 H 0.80386 0.42204 0.0818 0.0
C1064 C 0.61477 0.35942 0.19745 0.0
C1065 C 0.63901 0.33391 0.19833 0.0
C1066 C 0.62422 0.31648 0.13116 0.0
C1067 C 0.59505 0.33694 0.1334 0.0
N1068 N 0.56186 0.37728 0.17108 0.0
N1069 N 0.68129 0.31142 0.15443 0.0
C1070 C 0.59031 0.35855 0.16702 0.0
C1071 C 0.64828 0.31901 0.1617 0.0
N1072 N 0.61879 0.38726 0.2208 0.0
N1073 N 0.62907 0.29392 0.10077 0.0
H1074 H 0.70018 0.31748 0.17484 0.0
H1075 H 0.69011 0.30346 0.12688 0.0
H1076 H 0.61223 0.28994 0.07781 0.0
H1077 H 0.64865 0.27686 0.10048 0.0
H1078 H 0.60346 0.40782 0.21894 0.0
H1079 H 0.64083 0.39167 0.23689 0.0
H1080 H 0.55596 0.39069 0.19695 0.0
H1081 H 0.54274 0.37707 0.15023 0.0
C1082 C 0.8221 0.61043 0.22697 0.0
C1083 C 0.84895 0.63312 0.22736 0.0
C1084 C 0.87612 0.60045 0.17381 0.0
C1085 C 0.84973 0.57686 0.17481 0.0
N1086 N 0.80308 0.55543 0.21122 0.0
N1087 N 0.90583 0.64517 0.20875 0.0
C1088 C 0.82459 0.58051 0.20437 0.0
C1089 C 0.87747 0.62655 0.20328 0.0
N1090 N 0.79317 0.61924 0.24629 0.0
N1091 N 0.89839 0.59963 0.14345 0.0
H1092 H 0.90749 0.66392 0.23066 0.0
H1093 H 0.9285 0.63981 0.19443 0.0
H1094 H 0.89785 0.58193 0.12042 0.0
H1095 H 0.91556 0.61836 0.13928 0.0
H1096 H 0.77081 0.6058 0.24484 0.0
H1097 H 0.77081 0.6058 0.24484 0.0
H1098 H 0.78772 0.55528 0.23581 0.0
H1099 H 0.80275 0.53339 0.1947 0.0
C1100 C 0.40519 0.9403 0.13222 0.0
C1101 C 0.41339 0.95201 0.17086 0.0
C1102 C 0.47374 0.94711 0.1556 0.0
C1103 C 0.46532 0.93627 0.11681 0.0
N1104 N 0.4239 0.93173 0.06536 0.0
N1105 N 0.45475 0.97373 0.21681 0.0
C1106 C 0.43127 0.93591 0.10424 0.0
C1107 C 0.44753 0.95783 0.18168 0.0
N1108 N 0.37284 0.93139 0.1227 0.0
N1109 N 0.50639 0.94545 0.16814 0.0
H1110 H 0.43599 0.98196 0.23632 0.0
H1111 H 0.47893 0.98137 0.22499 0.0
H1112 H 0.52623 0.93789 0.14982 0.0
H1113 H 0.5135 0.94938 0.19723 0.0
H1114 H 0.36638 0.9188 0.09649 0.0
H1115 H 0.35275 0.93402 0.14209 0.0
H1116 H 0.39968 0.93427 0.05411 0.0
H1117 H 0.44251 0.92916 0.04395 0.0
C1118 C 0.23887 0.54428 0.07237 0.0
C1119 C 0.22368 0.5474 0.1098 0.0
C1120 C 0.20418 0.6028 0.09735 0.0
C1121 C 0.22271 0.60104 0.06202 0.0
N1122 N 0.25783 0.57104 0.01509 0.0
N1123 N 0.19256 0.57898 0.15912 0.0
C1124 C 0.23984 0.57188 0.04912 0.0
C1125 C 0.20616 0.57638 0.12248 0.0
N1126 N 0.25207 0.51477 0.05907 0.0
N1127 N 0.18478 0.62978 0.1067 0.0
H1128 H 0.19265 0.55974 0.17772 0.0
H1129 H 0.18268 0.60054 0.17206 0.0
H1130 H 0.18337 0.64965 0.0891 0.0
H1131 H 0.16823 0.63167 0.1302 0.0
H1132 H 0.26063 0.50972 0.03073 0.0
H1133 H 0.25242 0.49426 0.07569 0.0
H1134 H 0.27442 0.55234 0.00623 0.0
H1135 H 0.25719 0.58995 0.99606 0.0
C1136 C 0.42428 0.33701 0.16356 0.0
C1137 C 0.39403 0.31857 0.15932 0.0
C1138 C 0.42064 0.28347 0.10777 0.0
C1139 C 0.45125 0.30113 0.1139 0.0
N1140 N 0.48488 0.3341 0.15982 0.0
N1141 N 0.36781 0.26766 0.1367 0.0
C1142 C 0.45397 0.32415 0.14617 0.0
C1143 C 0.3937 0.28946 0.13458 0.0
N1144 N 0.42454 0.36795 0.18092 0.0
N1145 N 0.41611 0.26279 0.07552 0.0
H1146 H 0.34832 0.27098 0.15696 0.0
H1147 H 0.36777 0.24488 0.1214 0.0
H1148 H 0.43456 0.25808 0.05442 0.0
H1149 H 0.39283 0.25233 0.06813 0.0
H1150 H 0.44599 0.38273 0.18146 0.0
H1151 H 0.40283 0.38046 0.19018 0.0
H1152 H 0.48782 0.34946 0.18494 0.0
H1153 H 0.50723 0.32374 0.14875 0.0
C1154 C 0.73755 0.41179 0.19775 0.0
C1155 C 0.76008 0.40919 0.22944 0.0
C1156 C 0.79679 0.45083 0.20384 0.0
C1157 C 0.77499 0.45257 0.17078 0.0
N1158 N 0.73002 0.42781 0.13161 0.0
N1159 N 0.81419 0.42074 0.25909 0.0
C1160 C 0.7467 0.43125 0.1665 0.0
C1161 C 0.79051 0.42718 0.23149 0.0
N1162 N 0.70733 0.3957 0.19761 0.0
N1163 N 0.82305 0.47221 0.20988 0.0
H1164 H 0.81033 0.40424 0.28065 0.0
H1165 H 0.83879 0.42964 0.25878 0.0
H1166 H 0.83152 0.4882 0.18975 0.0
H1167 H 0.83568 0.47551 0.23643 0.0
H1168 H 0.6882 0.39939 0.17752 0.0
H1169 H 0.70037 0.38041 0.21946 0.0
H1170 H 0.71145 0.41025 0.12553 0.0
H1171 H 0.73722 0.43989 0.10708 0.0
C1172 C 0.59914 0.82319 0.17695 0.0
C1173 C 0.61986 0.79673 0.16295 0.0
C1174 C 0.59465 0.79806 0.09812 0.0
C1175 C 0.57286 0.82352 0.11255 0.0
N1176 N 0.54937 0.8561 0.16674 0.0
N1177 N 0.63313 0.75455 0.11341 0.0
C1178 C 0.57358 0.83483 0.15235 0.0
C1179 C 0.61618 0.78269 0.1245 0.0
N1180 N 0.60484 0.83806 0.21309 0.0
N1181 N 0.59617 0.78985 0.05895 0.0
H1182 H 0.64931 0.74283 0.13211 0.0
H1183 H 0.62891 0.74126 0.08705 0.0
H1184 H 0.58117 0.80085 0.03846 0.0
H1185 H 0.61423 0.7741 0.04627 0.0
H1186 H 0.59336 0.85988 0.22305 0.0
H1187 H 0.62282 0.8298 0.23238 0.0
H1188 H 0.54649 0.86269 0.1963 0.0
H1189 H 0.53018 0.86507 0.14949 0.0
C1190 C 0.20395 0.78303 0.14208 0.0
C1191 C 0.22743 0.78845 0.17303 0.0
C1192 C 0.26167 0.74357 0.14375 0.0
C1193 C 0.24284 0.74416 0.10864 0.0
N1194 N 0.19793 0.76974 0.07313 0.0
N1195 N 0.28314 0.7764 0.19851 0.0
C1196 C 0.21419 0.76506 0.10743 0.0
C1197 C 0.25747 0.76926 0.17286 0.0
N1198 N 0.1719 0.79504 0.14576 0.0
N1199 N 0.28289 0.71808 0.15002 0.0
H1200 H 0.28289 0.79605 0.21909 0.0
H1201 H 0.30653 0.76475 0.19631 0.0
H1202 H 0.28482 0.69748 0.13076 0.0
H1203 H 0.29504 0.71557 0.17662 0.0
H1204 H 0.15309 0.78954 0.12516 0.0
H1205 H 0.16335 0.80733 0.17139 0.0
H1206 H 0.17889 0.78711 0.0708 0.0
H1207 H 0.20576 0.75932 0.04628 0.0
C1208 C 0.39354 0.86685 0.9264 0.0
C1209 C 0.40379 0.88339 0.89329 0.0
C1210 C 0.46015 0.89107 0.92084 0.0
C1211 C 0.44899 0.87749 0.95565 0.0
N1212 N 0.40257 0.86023 0.99511 0.0
N1213 N 0.44372 0.91903 0.86382 0.0
C1214 C 0.4149 0.86764 0.95956 0.0
C1215 C 0.43613 0.898 0.89202 0.0
N1216 N 0.36416 0.84938 0.92573 0.0
N1217 N 0.49377 0.89563 0.91411 0.0
H1218 H 0.4264 0.9255 0.84272 0.0
H1219 H 0.46594 0.93265 0.86396 0.0
H1220 H 0.51263 0.88908 0.9333 0.0
H1221 H 0.50311 0.90252 0.88746 0.0
H1222 H 0.35727 0.83428 0.94777 0.0
H1223 H 0.34821 0.84751 0.90154 0.0
H1224 H 0.37708 0.85593 1.00008 0.0
H1225 H 0.41708 0.86186 0.0205 0.0
C1226 C 0.32492 0.59314 0.88949 0.0
C1227 C 0.33873 0.56509 0.90628 0.0
C1228 C 0.33904 0.59437 0.97065 0.0
C1229 C 0.32528 0.62225 0.95367 0.0
N1230 N 0.31494 0.65168 0.89637 0.0
N1231 N 0.36731 0.54194 0.96005 0.0
C1232 C 0.32181 0.62278 0.91276 0.0
C1233 C 0.34874 0.5668 0.946 0.0
N1234 N 0.31229 0.59098 0.85238 0.0
N1235 N 0.3406 0.59322 0.01029 0.0
H1236 H 0.37484 0.52155 0.94246 0.0
H1237 H 0.37788 0.54298 0.98787 0.0
H1238 H 0.33406 0.61292 0.02942 0.0
H1239 H 0.34625 0.57199 0.02427 0.0
H1240 H 0.29857 0.60968 0.84048 0.0
H1241 H 0.31279 0.56963 0.83437 0.0
H1242 H 0.31499 0.65432 0.86639 0.0
H1243 H 0.31261 0.67378 0.91301 0.0
C1244 C 0.62592 0.25294 0.91096 0.0
C1245 C 0.65711 0.26899 0.91822 0.0
C1246 C 0.63379 0.29848 0.97609 0.0
C1247 C 0.60158 0.28434 0.9672 0.0
N1248 N 0.56552 0.25403 0.9212 0.0
N1249 N 0.69018 0.31027 0.95379 0.0
C1250 C 0.59724 0.26298 0.93338 0.0
C1251 C 0.6609 0.29263 0.94971 0.0
N1252 N 0.6238 0.22804 0.88271 0.0
N1253 N 0.63909 0.31659 0.01031 0.0
H1254 H 0.71137 0.30575 0.93631 0.0
H1255 H 0.69279 0.33097 0.97271 0.0
H1256 H 0.62017 0.32346 0.02998 0.0
H1257 H 0.66298 0.3231 0.02078 0.0
H1258 H 0.60271 0.21303 0.87883 0.0
H1259 H 0.64423 0.22061 0.86519 0.0
H1260 H 0.56061 0.24124 0.89469 0.0
H1261 H 0.54367 0.26232 0.93551 0.0
C1262 C 0.83174 0.63356 0.99926 0.0
C1263 C 0.8071 0.64053 0.97103 0.0
C1264 C 0.77546 0.59175 0.98782 0.0
C1265 C 0.798 0.58741 0.01927 0.0
N1266 N 0.84085 0.61192 0.06203 0.0
N1267 N 0.75087 0.63061 0.94554 0.0
C1268 C 0.82422 0.61057 0.02711 0.0
C1269 C 0.77753 0.6209 0.96729 0.0
N1270 N 0.86273 0.64815 0.99901 0.0
N1271 N 0.75307 0.56771 0.97634 0.0
H1272 H 0.75071 0.65249 0.93145 0.0
H1273 H 0.72765 0.61866 0.94496 0.0
H1274 H 0.75158 0.54547 0.9895 0.0
H1275 H 0.73842 0.56859 0.95121 0.0
H1276 H 0.88239 0.64154 0.01715 0.0
H1277 H 0.86993 0.66405 0.97788 0.0
H1278 H 0.85826 0.6302 0.07004 0.0
H1279 H 0.83401 0.59765 0.08486 0.0
loop_
_geom_bond_atom_site_label_1
_geom_bond_atom_site_label_2
_geom_bond_distance
_geom_bond_site_symmetry_2
_ccdc_geom_bond_type
H0 O26 0.856 . S
H1 O29 0.854 . S
H2 C37 0.930 . S
H3 C38 0.930 . S
H4 C40 0.930 . S
H5 C41 0.930 . S
H6 C43 0.931 . S
H7 C44 0.930 . S
H8 C46 0.930 . S
H9 C47 0.929 . S
H10 C49 0.930 . S
H11 C50 0.931 . S
H12 C52 0.930 . S
H13 C53 0.929 . S
H14 C55 0.931 . S
H15 C56 0.930 . S
H16 C58 0.930 . S
H17 C59 0.932 . S
H18 C61 0.930 . S
H19 C62 0.929 . S
H20 C64 0.931 . S
H21 C65 0.930 . S
H22 C67 0.929 . S
H23 C68 0.931 . S
H24 C70 0.930 . S
H25 C71 0.929 . S
O26 H0 0.856 . S
O26 C72 1.300 . S
O27 C72 1.209 . S
O28 C73 1.199 . S
O29 H1 0.854 . S
O29 C73 1.297 . S
C30 C31 1.404 . S
C30 C35 1.397 . S
C30 C36 1.492 . S
C31 C30 1.404 . S
C31 C32 1.396 . S
C31 C42 1.492 . S
C32 C31 1.396 . S
C32 C33 1.397 . S
C32 C48 1.509 . S
C33 C32 1.397 . S
C33 C34 1.412 . S
C33 C54 1.485 . S
C34 C33 1.412 . S
C34 C35 1.388 . S
C34 C60 1.490 . S
C35 C30 1.397 . S
C35 C34 1.388 . S
C35 C66 1.519 . S
C36 C30 1.492 . S
C36 C37 1.363 . S
C36 C41 1.390 . S
C37 H2 0.930 . S
C37 C36 1.363 . S
C37 C38 1.372 . S
C38 H3 0.930 . S
C38 C37 1.372 . S
C38 C39 1.383 . S
C39 C38 1.383 . S
C39 C40 1.395 . S
C40 H4 0.930 . S
C40 C39 1.395 . S
C40 C41 1.362 . S
C41 H5 0.930 . S
C41 C36 1.390 . S
C41 C40 1.362 . S
C42 C31 1.492 . S
C42 C43 1.377 . S
C42 C47 1.397 . S
C43 H6 0.931 . S
C43 C42 1.377 . S
C43 C44 1.376 . S
C44 H7 0.930 . S
C44 C43 1.376 . S
C44 C45 1.376 . S
C45 C44 1.376 . S
C45 C46 1.378 . S
C45 C72 1.486 . S
C46 H8 0.930 . S
C46 C45 1.378 . S
C46 C47 1.376 . S
C47 H9 0.929 . S
C47 C42 1.397 . S
C47 C46 1.376 . S
C48 C32 1.509 . S
C48 C49 1.391 . S
C48 C53 1.386 . S
C49 H10 0.930 . S
C49 C48 1.391 . S
C49 C50 1.375 . S
C50 H11 0.931 . S
C50 C49 1.375 . S
C50 C51 1.375 . S
C51 C50 1.375 . S
C51 C52 1.361 . S
C52 H12 0.930 . S
C52 C51 1.361 . S
C52 C53 1.399 . S
C53 H13 0.929 . S
C53 C48 1.386 . S
C53 C52 1.399 . S
C54 C33 1.485 . S
C54 C55 1.394 . S
C54 C59 1.360 . S
C55 H14 0.931 . S
C55 C54 1.394 . S
C55 C56 1.372 . S
C56 H15 0.930 . S
C56 C55 1.372 . S
C56 C57 1.397 . S
C57 C56 1.397 . S
C57 C58 1.390 . S
C57 C73 1.476 . S
C58 H16 0.930 . S
C58 C57 1.390 . S
C58 C59 1.366 . S
C59 H17 0.932 . S
C59 C54 1.360 . S
C59 C58 1.366 . S
C60 C34 1.490 . S
C60 C61 1.380 . S
C60 C65 1.386 . S
C61 H18 0.930 . S
C61 C60 1.380 . S
C61 C62 1.381 . S
C62 H19 0.929 . S
C62 C61 1.381 . S
C62 C63 1.371 . S
C63 C62 1.371 . S
C63 C64 1.380 . S
C64 H20 0.931 . S
C64 C63 1.380 . S
C64 C65 1.387 . S
C65 H21 0.930 . S
C65 C60 1.386 . S
C65 C64 1.387 . S
C66 C35 1.519 . S
C66 C67 1.377 . S
C66 C71 1.361 . S
C67 H22 0.929 . S
C67 C66 1.377 . S
C67 C68 1.386 . S
C68 H23 0.931 . S
C68 C67 1.386 . S
C68 C69 1.363 . S
C69 C68 1.363 . S
C69 C70 1.385 . S
C70 H24 0.930 . S
C70 C69 1.385 . S
C70 C71 1.396 . S
C71 H25 0.929 . S
C71 C66 1.361 . S
C71 C70 1.396 . S
C72 O26 1.300 . S
C72 O27 1.209 . S
C72 C45 1.486 . S
C73 O28 1.199 . S
C73 O29 1.297 . S
C73 C57 1.476 . S
H74 O100 0.856 . S
H75 O103 0.854 . S
H76 C111 0.930 . S
H77 C112 0.930 . S
H78 C114 0.930 . S
H79 C115 0.930 . S
H80 C117 0.931 . S
H81 C118 0.930 . S
H82 C120 0.930 . S
H83 C121 0.929 . S
H84 C123 0.930 . S
H85 C124 0.931 . S
H86 C126 0.930 . S
H87 C127 0.929 . S
H88 C129 0.931 . S
H89 C130 0.930 . S
H90 C132 0.930 . S
H91 C133 0.932 . S
H92 C135 0.930 . S
H93 C136 0.929 . S
H94 C138 0.931 . S
H95 C139 0.930 . S
H96 C141 0.929 . S
H97 C142 0.931 . S
H98 C144 0.930 . S
H99 C145 0.929 . S
O100 H74 0.856 . S
O100 C146 1.300 . S
O101 C146 1.209 . S
O102 C147 1.199 . S
O103 H75 0.854 . S
O103 C147 1.297 . S
C104 C105 1.404 . S
C104 C109 1.397 . S
C104 C110 1.492 . S
C105 C104 1.404 . S
C105 C106 1.396 . S
C105 C116 1.492 . S
C106 C105 1.396 . S
C106 C107 1.397 . S
C106 C122 1.509 . S
C107 C106 1.397 . S
C107 C108 1.412 . S
C107 C128 1.485 . S
C108 C107 1.412 . S
C108 C109 1.388 . S
C108 C134 1.490 . S
C109 C104 1.397 . S
C109 C108 1.388 . S
C109 C140 1.519 . S
C110 C104 1.492 . S
C110 C111 1.363 . S
C110 C115 1.390 . S
C111 H76 0.930 . S
C111 C110 1.363 . S
C111 C112 1.372 . S
C112 H77 0.930 . S
C112 C111 1.372 . S
C112 C113 1.383 . S
C113 C112 1.383 . S
C113 C114 1.395 . S
C114 H78 0.930 . S
C114 C113 1.395 . S
C114 C115 1.362 . S
C115 H79 0.930 . S
C115 C110 1.390 . S
C115 C114 1.362 . S
C116 C105 1.492 . S
C116 C117 1.377 . S
C116 C121 1.397 . S
C117 H80 0.931 . S
C117 C116 1.377 . S
C117 C118 1.376 . S
C118 H81 0.930 . S
C118 C117 1.376 . S
C118 C119 1.376 . S
C119 C118 1.376 . S
C119 C120 1.378 . S
C119 C146 1.486 . S
C120 H82 0.930 . S
C120 C119 1.378 . S
C120 C121 1.376 . S
C121 H83 0.929 . S
C121 C116 1.397 . S
C121 C120 1.376 . S
C122 C106 1.509 . S
C122 C123 1.391 . S
C122 C127 1.386 . S
C123 H84 0.930 . S
C123 C122 1.391 . S
C123 C124 1.375 . S
C124 H85 0.931 . S
C124 C123 1.375 . S
C124 C125 1.375 . S
C125 C124 1.375 . S
C125 C126 1.361 . S
C126 H86 0.930 . S
C126 C125 1.361 . S
C126 C127 1.399 . S
C127 H87 0.929 . S
C127 C122 1.386 . S
C127 C126 1.399 . S
C128 C107 1.485 . S
C128 C129 1.394 . S
C128 C133 1.360 . S
C129 H88 0.931 . S
C129 C128 1.394 . S
C129 C130 1.372 . S
C130 H89 0.930 . S
C130 C129 1.372 . S
C130 C131 1.397 . S
C131 C130 1.397 . S
C131 C132 1.390 . S
C131 C147 1.476 . S
C132 H90 0.930 . S
C132 C131 1.390 . S
C132 C133 1.366 . S
C133 H91 0.932 . S
C133 C128 1.360 . S
C133 C132 1.366 . S
C134 C108 1.490 . S
C134 C135 1.380 . S
C134 C139 1.386 . S
C135 H92 0.930 . S
C135 C134 1.380 . S
C135 C136 1.381 . S
C136 H93 0.929 . S
C136 C135 1.381 . S
C136 C137 1.371 . S
C137 C136 1.371 . S
C137 C138 1.380 . S
C138 H94 0.931 . S
C138 C137 1.380 . S
C138 C139 1.387 . S
C139 H95 0.930 . S
C139 C134 1.386 . S
C139 C138 1.387 . S
C140 C109 1.519 . S
C140 C141 1.377 . S
C140 C145 1.361 . S
C141 H96 0.929 . S
C141 C140 1.377 . S
C141 C142 1.386 . S
C142 H97 0.931 . S
C142 C141 1.386 . S
C142 C143 1.363 . S
C143 C142 1.363 . S
C143 C144 1.385 . S
C144 H98 0.930 . S
C144 C143 1.385 . S
C144 C145 1.396 . S
C145 H99 0.929 . S
C145 C140 1.361 . S
C145 C144 1.396 . S
C146 O100 1.300 . S
C146 O101 1.209 . S
C146 C119 1.486 . S
C147 O102 1.199 . S
C147 O103 1.297 . S
C147 C131 1.476 . S
H148 O174 0.856 . S
H149 O177 0.854 . S
H150 C185 0.930 . S
H151 C186 0.930 . S
H152 C188 0.930 . S
H153 C189 0.930 . S
H154 C191 0.931 . S
H155 C192 0.930 . S
H156 C194 0.930 . S
H157 C195 0.929 . S
H158 C197 0.930 . S
H159 C198 0.931 . S
H160 C200 0.930 . S
H161 C201 0.929 . S
H162 C203 0.931 . S
H163 C204 0.930 . S
H164 C206 0.930 . S
H165 C207 0.932 . S
H166 C209 0.930 . S
H167 C210 0.929 . S
H168 C212 0.931 . S
H169 C213 0.930 . S
H170 C215 0.929 . S
H171 C216 0.931 . S
H172 C218 0.930 . S
H173 C219 0.929 . S
O174 H148 0.856 . S
O174 C220 1.300 . S
O175 C220 1.209 . S
O176 C221 1.199 . S
O177 H149 0.854 . S
O177 C221 1.297 . S
C178 C179 1.404 . S
C178 C183 1.397 . S
C178 C184 1.492 . S
C179 C178 1.404 . S
C179 C180 1.396 . S
C179 C190 1.492 . S
C180 C179 1.396 . S
C180 C181 1.397 . S
C180 C196 1.509 . S
C181 C180 1.397 . S
C181 C182 1.412 . S
C181 C202 1.485 . S
C182 C181 1.412 . S
C182 C183 1.388 . S
C182 C208 1.490 . S
C183 C178 1.397 . S
C183 C182 1.388 . S
C183 C214 1.519 . S
C184 C178 1.492 . S
C184 C185 1.363 . S
C184 C189 1.390 . S
C185 H150 0.930 . S
C185 C184 1.363 . S
C185 C186 1.372 . S
C186 H151 0.930 . S
C186 C185 1.372 . S
C186 C187 1.383 . S
C187 C186 1.383 . S
C187 C188 1.395 . S
C188 H152 0.930 . S
C188 C187 1.395 . S
C188 C189 1.362 . S
C189 H153 0.930 . S
C189 C184 1.390 . S
C189 C188 1.362 . S
C190 C179 1.492 . S
C190 C191 1.377 . S
C190 C195 1.397 . S
C191 H154 0.931 . S
C191 C190 1.377 . S
C191 C192 1.376 . S
C192 H155 0.930 . S
C192 C191 1.376 . S
C192 C193 1.376 . S
C193 C192 1.376 . S
C193 C194 1.378 . S
C193 C220 1.486 . S
C194 H156 0.930 . S
C194 C193 1.378 . S
C194 C195 1.376 . S
C195 H157 0.929 . S
C195 C190 1.397 . S
C195 C194 1.376 . S
C196 C180 1.509 . S
C196 C197 1.391 . S
C196 C201 1.386 . S
C197 H158 0.930 . S
C197 C196 1.391 . S
C197 C198 1.375 . S
C198 H159 0.931 . S
C198 C197 1.375 . S
C198 C199 1.375 . S
C199 C198 1.375 . S
C199 C200 1.361 . S
C200 H160 0.930 . S
C200 C199 1.361 . S
C200 C201 1.399 . S
C201 H161 0.929 . S
C201 C196 1.386 . S
C201 C200 1.399 . S
C202 C181 1.485 . S
C202 C203 1.394 . S
C202 C207 1.360 . S
C203 H162 0.931 . S
C203 C202 1.394 . S
C203 C204 1.372 . S
C204 H163 0.930 . S
C204 C203 1.372 . S
C204 C205 1.397 . S
C205 C204 1.397 . S
C205 C206 1.390 . S
C205 C221 1.476 . S
C206 H164 0.930 . S
C206 C205 1.390 . S
C206 C207 1.366 . S
C207 H165 0.932 . S
C207 C202 1.360 . S
C207 C206 1.366 . S
C208 C182 1.490 . S
C208 C209 1.380 . S
C208 C213 1.386 . S
C209 H166 0.930 . S
C209 C208 1.380 . S
C209 C210 1.381 . S
C210 H167 0.929 . S
C210 C209 1.381 . S
C210 C211 1.371 . S
C211 C210 1.371 . S
C211 C212 1.380 . S
C212 H168 0.931 . S
C212 C211 1.380 . S
C212 C213 1.387 . S
C213 H169 0.930 . S
C213 C208 1.386 . S
C213 C212 1.387 . S
C214 C183 1.519 . S
C214 C215 1.377 . S
C214 C219 1.361 . S
C215 H170 0.929 . S
C215 C214 1.377 . S
C215 C216 1.386 . S
C216 H171 0.931 . S
C216 C215 1.386 . S
C216 C217 1.363 . S
C217 C216 1.363 . S
C217 C218 1.385 . S
C218 H172 0.930 . S
C218 C217 1.385 . S
C218 C219 1.396 . S
C219 H173 0.929 . S
C219 C214 1.361 . S
C219 C218 1.396 . S
C220 O174 1.300 . S
C220 O175 1.209 . S
C220 C193 1.486 . S
C221 O176 1.199 . S
C221 O177 1.297 . S
C221 C205 1.476 . S
H222 O248 0.856 . S
H223 O251 0.854 . S
H224 C259 0.930 . S
H225 C260 0.930 . S
H226 C262 0.930 . S
H227 C263 0.930 . S
H228 C265 0.931 . S
H229 C266 0.930 . S
H230 C268 0.930 . S
H231 C269 0.929 . S
H232 C271 0.930 . S
H233 C272 0.931 . S
H234 C274 0.930 1_545 S
H235 C275 0.929 . S
H236 C277 0.931 . S
H237 C278 0.930 . S
H238 C280 0.930 . S
H239 C281 0.932 . S
H240 C283 0.930 . S
H241 C284 0.929 . S
H242 C286 0.931 . S
H243 C287 0.930 . S
H244 C289 0.929 . S
H245 C290 0.931 . S
H246 C292 0.930 . S
H247 C293 0.929 . S
O248 H222 0.856 . S
O248 C294 1.300 . S
O249 C294 1.209 . S
O250 C295 1.199 . S
O251 H223 0.854 . S
O251 C295 1.297 . S
C252 C253 1.404 . S
C252 C257 1.397 . S
C252 C258 1.492 . S
C253 C252 1.404 . S
C253 C254 1.396 . S
C253 C264 1.492 . S
C254 C253 1.396 . S
C254 C255 1.397 . S
C254 C270 1.509 . S
C255 C254 1.397 . S
C255 C256 1.412 . S
C255 C276 1.485 . S
C256 C255 1.412 . S
C256 C257 1.388 . S
C256 C282 1.490 . S
C257 C252 1.397 . S
C257 C256 1.388 . S
C257 C288 1.519 . S
C258 C252 1.492 . S
C258 C259 1.363 . S
C258 C263 1.390 . S
C259 H224 0.930 . S
C259 C258 1.363 . S
C259 C260 1.372 . S
C260 H225 0.930 . S
C260 C259 1.372 . S
C260 C261 1.383 1_565 S
C261 C260 1.383 1_545 S
C261 C262 1.395 . S
C262 H226 0.930 . S
C262 C261 1.395 . S
C262 C263 1.362 1_545 S
C263 H227 0.930 . S
C263 C258 1.390 . S
C263 C262 1.362 1_565 S
C264 C253 1.492 . S
C264 C265 1.377 . S
C264 C269 1.397 1_565 S
C265 H228 0.931 . S
C265 C264 1.377 . S
C265 C266 1.376 1_565 S
C266 H229 0.930 . S
C266 C265 1.376 1_545 S
C266 C267 1.376 . S
C267 C266 1.376 . S
C267 C268 1.378 . S
C267 C294 1.486 . S
C268 H230 0.930 . S
C268 C267 1.378 . S
C268 C269 1.376 . S
C269 H231 0.929 . S
C269 C264 1.397 1_545 S
C269 C268 1.376 . S
C270 C254 1.509 . S
C270 C271 1.391 . S
C270 C275 1.386 . S
C271 H232 0.930 . S
C271 C270 1.391 . S
C271 C272 1.375 . S
C272 H233 0.931 . S
C272 C271 1.375 . S
C272 C273 1.375 . S
C273 C272 1.375 . S
C273 C274 1.361 . S
C274 H234 0.930 1_565 S
C274 C273 1.361 . S
C274 C275 1.399 . S
C275 H235 0.929 . S
C275 C270 1.386 . S
C275 C274 1.399 . S
C276 C255 1.485 . S
C276 C277 1.394 . S
C276 C281 1.360 . S
C277 H236 0.931 . S
C277 C276 1.394 . S
C277 C278 1.372 . S
C278 H237 0.930 . S
C278 C277 1.372 . S
C278 C279 1.397 . S
C279 C278 1.397 . S
C279 C280 1.390 . S
C279 C295 1.476 . S
C280 H238 0.930 . S
C280 C279 1.390 . S
C280 C281 1.366 . S
C281 H239 0.932 . S
C281 C276 1.360 . S
C281 C280 1.366 . S
C282 C256 1.490 . S
C282 C283 1.380 . S
C282 C287 1.386 . S
C283 H240 0.930 . S
C283 C282 1.380 . S
C283 C284 1.381 . S
C284 H241 0.929 . S
C284 C283 1.381 . S
C284 C285 1.371 . S
C285 C284 1.371 . S
C285 C286 1.380 . S
C286 H242 0.931 . S
C286 C285 1.380 . S
C286 C287 1.387 . S
C287 H243 0.930 . S
C287 C282 1.386 . S
C287 C286 1.387 . S
C288 C257 1.519 . S
C288 C289 1.377 . S
C288 C293 1.361 . S
C289 H244 0.929 . S
C289 C288 1.377 . S
C289 C290 1.386 . S
C290 H245 0.931 . S
C290 C289 1.386 . S
C290 C291 1.363 . S
C291 C290 1.363 . S
C291 C292 1.385 . S
C292 H246 0.930 . S
C292 C291 1.385 . S
C292 C293 1.396 . S
C293 H247 0.929 . S
C293 C288 1.361 . S
C293 C292 1.396 . S
C294 O248 1.300 . S
C294 O249 1.209 . S
C294 C267 1.486 . S
C295 O250 1.199 . S
C295 O251 1.297 . S
C295 C279 1.476 . S
H296 O322 0.856 . S
H297 O325 0.854 . S
H298 C333 0.930 . S
H299 C334 0.930 . S
H300 C336 0.930 . S
H301 C337 0.930 . S
H302 C339 0.931 . S
H303 C340 0.930 . S
H304 C342 0.930 . S
H305 C343 0.929 . S
H306 C345 0.930 . S
H307 C346 0.931 . S
H308 C348 0.930 . S
H309 C349 0.929 . S
H310 C351 0.931 . S
H311 C352 0.930 . S
H312 C354 0.930 . S
H313 C355 0.932 . S
H314 C357 0.930 . S
H315 C358 0.929 . S
H316 C360 0.931 . S
H317 C361 0.930 . S
H318 C363 0.929 . S
H319 C364 0.931 . S
H320 C366 0.930 . S
H321 C367 0.929 . S
O322 H296 0.856 . S
O322 C368 1.300 . S
O323 C368 1.209 . S
O324 C369 1.199 . S
O325 H297 0.854 . S
O325 C369 1.297 . S
C326 C327 1.404 . S
C326 C331 1.397 . S
C326 C332 1.492 . S
C327 C326 1.404 . S
C327 C328 1.396 . S
C327 C338 1.492 . S
C328 C327 1.396 . S
C328 C329 1.397 . S
C328 C344 1.509 . S
C329 C328 1.397 . S
C329 C330 1.412 . S
C329 C350 1.485 . S
C330 C329 1.412 . S
C330 C331 1.388 . S
C330 C356 1.490 . S
C331 C326 1.397 . S
C331 C330 1.388 . S
C331 C362 1.519 . S
C332 C326 1.492 . S
C332 C333 1.363 . S
C332 C337 1.390 . S
C333 H298 0.930 . S
C333 C332 1.363 . S
C333 C334 1.372 . S
C334 H299 0.930 . S
C334 C333 1.372 . S
C334 C335 1.383 . S
C335 C334 1.383 . S
C335 C336 1.395 . S
C336 H300 0.930 . S
C336 C335 1.395 . S
C336 C337 1.362 . S
C337 H301 0.930 . S
C337 C332 1.390 . S
C337 C336 1.362 . S
C338 C327 1.492 . S
C338 C339 1.377 . S
C338 C343 1.397 . S
C339 H302 0.931 . S
C339 C338 1.377 . S
C339 C340 1.376 . S
C340 H303 0.930 . S
C340 C339 1.376 . S
C340 C341 1.376 1_565 S
C341 C340 1.376 1_545 S
C341 C342 1.378 . S
C341 C368 1.486 . S
C342 H304 0.930 . S
C342 C341 1.378 . S
C342 C343 1.376 1_545 S
C343 H305 0.929 . S
C343 C338 1.397 . S
C343 C342 1.376 1_565 S
C344 C328 1.509 . S
C344 C345 1.391 . S
C344 C349 1.386 1_565 S
C345 H306 0.930 . S
C345 C344 1.391 . S
C345 C346 1.375 1_565 S
C346 H307 0.931 . S
C346 C345 1.375 1_545 S
C346 C347 1.375 . S
C347 C346 1.375 . S
C347 C348 1.361 . S
C348 H308 0.930 . S
C348 C347 1.361 . S
C348 C349 1.399 . S
C349 H309 0.929 . S
C349 C344 1.386 1_545 S
C349 C348 1.399 . S
C350 C329 1.485 . S
C350 C351 1.394 . S
C350 C355 1.360 . S
C351 H310 0.931 . S
C351 C350 1.394 . S
C351 C352 1.372 . S
C352 H311 0.930 . S
C352 C351 1.372 . S
C352 C353 1.397 . S
C353 C352 1.397 . S
C353 C354 1.390 . S
C353 C369 1.476 . S
C354 H312 0.930 . S
C354 C353 1.390 . S
C354 C355 1.366 . S
C355 H313 0.932 . S
C355 C350 1.360 . S
C355 C354 1.366 . S
C356 C330 1.490 . S
C356 C357 1.380 . S
C356 C361 1.386 . S
C357 H314 0.930 . S
C357 C356 1.380 . S
C357 C358 1.381 . S
C358 H315 0.929 . S
C358 C357 1.381 . S
C358 C359 1.371 . S
C359 C358 1.371 . S
C359 C360 1.380 . S
C360 H316 0.931 . S
C360 C359 1.380 . S
C360 C361 1.387 . S
C361 H317 0.930 . S
C361 C356 1.386 . S
C361 C360 1.387 . S
C362 C331 1.519 . S
C362 C363 1.377 . S
C362 C367 1.361 . S
C363 H318 0.929 . S
C363 C362 1.377 . S
C363 C364 1.386 . S
C364 H319 0.931 . S
C364 C363 1.386 . S
C364 C365 1.363 . S
C365 C364 1.363 . S
C365 C366 1.385 . S
C366 H320 0.930 . S
C366 C365 1.385 . S
C366 C367 1.396 . S
C367 H321 0.929 . S
C367 C362 1.361 . S
C367 C366 1.396 . S
C368 O322 1.300 . S
C368 O323 1.209 . S
C368 C341 1.486 . S
C369 O324 1.199 . S
C369 O325 1.297 . S
C369 C353 1.476 . S
H370 O396 0.856 . S
H371 O399 0.854 . S
H372 C407 0.930 . S
H373 C408 0.930 . S
H374 C410 0.930 . S
H375 C411 0.930 . S
H376 C413 0.931 . S
H377 C414 0.930 . S
H378 C416 0.930 . S
H379 C417 0.929 . S
H380 C419 0.930 . S
H381 C420 0.931 . S
H382 C422 0.930 . S
H383 C423 0.929 . S
H384 C425 0.931 . S
H385 C426 0.930 . S
H386 C428 0.930 . S
H387 C429 0.932 . S
H388 C431 0.930 . S
H389 C432 0.929 . S
H390 C434 0.931 . S
H391 C435 0.930 . S
H392 C437 0.929 . S
H393 C438 0.931 . S
H394 C440 0.930 . S
H395 C441 0.929 . S
O396 H370 0.856 . S
O396 C442 1.300 . S
O397 C442 1.209 . S
O398 C443 1.199 . S
O399 H371 0.854 . S
O399 C443 1.297 . S
C400 C401 1.404 . S
C400 C405 1.397 . S
C400 C406 1.492 . S
C401 C400 1.404 . S
C401 C402 1.396 . S
C401 C412 1.492 . S
C402 C401 1.396 . S
C402 C403 1.397 . S
C402 C418 1.509 . S
C403 C402 1.397 . S
C403 C404 1.412 . S
C403 C424 1.485 . S
C404 C403 1.412 . S
C404 C405 1.388 . S
C404 C430 1.490 . S
C405 C400 1.397 . S
C405 C404 1.388 . S
C405 C436 1.519 . S
C406 C400 1.492 . S
C406 C407 1.363 . S
C406 C411 1.390 . S
C407 H372 0.930 . S
C407 C406 1.363 . S
C407 C408 1.372 . S
C408 H373 0.930 . S
C408 C407 1.372 . S
C408 C409 1.383 . S
C409 C408 1.383 . S
C409 C410 1.395 . S
C410 H374 0.930 . S
C410 C409 1.395 . S
C410 C411 1.362 . S
C411 H375 0.930 . S
C411 C406 1.390 . S
C411 C410 1.362 . S
C412 C401 1.492 . S
C412 C413 1.377 . S
C412 C417 1.397 . S
C413 H376 0.931 . S
C413 C412 1.377 . S
C413 C414 1.376 . S
C414 H377 0.930 . S
C414 C413 1.376 . S
C414 C415 1.376 . S
C415 C414 1.376 . S
C415 C416 1.378 . S
C415 C442 1.486 . S
C416 H378 0.930 . S
C416 C415 1.378 . S
C416 C417 1.376 . S
C417 H379 0.929 . S
C417 C412 1.397 . S
C417 C416 1.376 . S
C418 C402 1.509 . S
C418 C419 1.391 . S
C418 C423 1.386 . S
C419 H380 0.930 . S
C419 C418 1.391 . S
C419 C420 1.375 . S
C420 H381 0.931 . S
C420 C419 1.375 . S
C420 C421 1.375 . S
C421 C420 1.375 . S
C421 C422 1.361 . S
C422 H382 0.930 . S
C422 C421 1.361 . S
C422 C423 1.399 . S
C423 H383 0.929 . S
C423 C418 1.386 . S
C423 C422 1.399 . S
C424 C403 1.485 . S
C424 C425 1.394 . S
C424 C429 1.360 . S
C425 H384 0.931 . S
C425 C424 1.394 . S
C425 C426 1.372 . S
C426 H385 0.930 . S
C426 C425 1.372 . S
C426 C427 1.397 . S
C427 C426 1.397 . S
C427 C428 1.390 . S
C427 C443 1.476 . S
C428 H386 0.930 . S
C428 C427 1.390 . S
C428 C429 1.366 . S
C429 H387 0.932 . S
C429 C424 1.360 . S
C429 C428 1.366 . S
C430 C404 1.490 . S
C430 C431 1.380 . S
C430 C435 1.386 . S
C431 H388 0.930 . S
C431 C430 1.380 . S
C431 C432 1.381 . S
C432 H389 0.929 . S
C432 C431 1.381 . S
C432 C433 1.371 . S
C433 C432 1.371 . S
C433 C434 1.380 . S
C434 H390 0.931 . S
C434 C433 1.380 . S
C434 C435 1.387 . S
C435 H391 0.930 . S
C435 C430 1.386 . S
C435 C434 1.387 . S
C436 C405 1.519 . S
C436 C437 1.377 . S
C436 C441 1.361 . S
C437 H392 0.929 . S
C437 C436 1.377 . S
C437 C438 1.386 . S
C438 H393 0.931 . S
C438 C437 1.386 . S
C438 C439 1.363 . S
C439 C438 1.363 . S
C439 C440 1.385 . S
C440 H394 0.930 . S
C440 C439 1.385 . S
C440 C441 1.396 . S
C441 H395 0.929 . S
C441 C436 1.361 . S
C441 C440 1.396 . S
C442 O396 1.300 . S
C442 O397 1.209 . S
C442 C415 1.486 . S
C443 O398 1.199 . S
C443 O399 1.297 . S
C443 C427 1.476 . S
H444 O470 0.856 . S
H445 O473 0.854 . S
H446 C481 0.930 . S
H447 C482 0.930 . S
H448 C484 0.930 . S
H449 C485 0.930 . S
H450 C487 0.931 . S
H451 C488 0.930 . S
H452 C490 0.930 . S
H453 C491 0.929 . S
H454 C493 0.930 . S
H455 C494 0.931 . S
H456 C496 0.930 . S
H457 C497 0.929 . S
H458 C499 0.931 . S
H459 C500 0.930 . S
H460 C502 0.930 . S
H461 C503 0.932 . S
H462 C505 0.930 . S
H463 C506 0.929 . S
H464 C508 0.931 . S
H465 C509 0.930 . S
H466 C511 0.929 . S
H467 C512 0.931 . S
H468 C514 0.930 . S
H469 C515 0.929 . S
O470 H444 0.856 . S
O470 C516 1.300 . S
O471 C516 1.209 . S
O472 C517 1.199 . S
O473 H445 0.854 . S
O473 C517 1.297 . S
C474 C475 1.404 . S
C474 C479 1.397 . S
C474 C480 1.492 . S
C475 C474 1.404 . S
C475 C476 1.396 . S
C475 C486 1.492 . S
C476 C475 1.396 . S
C476 C477 1.397 . S
C476 C492 1.509 . S
C477 C476 1.397 . S
C477 C478 1.412 . S
C477 C498 1.485 . S
C478 C477 1.412 . S
C478 C479 1.388 . S
C478 C504 1.490 . S
C479 C474 1.397 . S
C479 C478 1.388 . S
C479 C510 1.519 . S
C480 C474 1.492 . S
C480 C481 1.363 . S
C480 C485 1.390 . S
C481 H446 0.930 . S
C481 C480 1.363 . S
C481 C482 1.372 . S
C482 H447 0.930 . S
C482 C481 1.372 . S
C482 C483 1.383 . S
C483 C482 1.383 . S
C483 C484 1.395 . S
C484 H448 0.930 . S
C484 C483 1.395 . S
C484 C485 1.362 . S
C485 H449 0.930 . S
C485 C480 1.390 . S
C485 C484 1.362 . S
C486 C475 1.492 . S
C486 C487 1.377 . S
C486 C491 1.397 . S
C487 H450 0.931 . S
C487 C486 1.377 . S
C487 C488 1.376 . S
C488 H451 0.930 . S
C488 C487 1.376 . S
C488 C489 1.376 . S
C489 C488 1.376 . S
C489 C490 1.378 . S
C489 C516 1.486 . S
C490 H452 0.930 . S
C490 C489 1.378 . S
C490 C491 1.376 . S
C491 H453 0.929 . S
C491 C486 1.397 . S
C491 C490 1.376 . S
C492 C476 1.509 . S
C492 C493 1.391 . S
C492 C497 1.386 . S
C493 H454 0.930 . S
C493 C492 1.391 . S
C493 C494 1.375 . S
C494 H455 0.931 . S
C494 C493 1.375 . S
C494 C495 1.375 . S
C495 C494 1.375 . S
C495 C496 1.361 . S
C496 H456 0.930 . S
C496 C495 1.361 . S
C496 C497 1.399 . S
C497 H457 0.929 . S
C497 C492 1.386 . S
C497 C496 1.399 . S
C498 C477 1.485 . S
C498 C499 1.394 . S
C498 C503 1.360 . S
C499 H458 0.931 . S
C499 C498 1.394 . S
C499 C500 1.372 . S
C500 H459 0.930 . S
C500 C499 1.372 . S
C500 C501 1.397 . S
C501 C500 1.397 . S
C501 C502 1.390 . S
C501 C517 1.476 . S
C502 H460 0.930 . S
C502 C501 1.390 . S
C502 C503 1.366 . S
C503 H461 0.932 . S
C503 C498 1.360 . S
C503 C502 1.366 . S
C504 C478 1.490 . S
C504 C505 1.380 . S
C504 C509 1.386 . S
C505 H462 0.930 . S
C505 C504 1.380 . S
C505 C506 1.381 . S
C506 H463 0.929 . S
C506 C505 1.381 . S
C506 C507 1.371 . S
C507 C506 1.371 . S
C507 C508 1.380 . S
C508 H464 0.931 . S
C508 C507 1.380 . S
C508 C509 1.387 . S
C509 H465 0.930 . S
C509 C504 1.386 . S
C509 C508 1.387 . S
C510 C479 1.519 . S
C510 C511 1.377 . S
C510 C515 1.361 . S
C511 H466 0.929 . S
C511 C510 1.377 . S
C511 C512 1.386 . S
C512 H467 0.931 . S
C512 C511 1.386 . S
C512 C513 1.363 . S
C513 C512 1.363 . S
C513 C514 1.385 . S
C514 H468 0.930 . S
C514 C513 1.385 . S
C514 C515 1.396 . S
C515 H469 0.929 . S
C515 C510 1.361 . S
C515 C514 1.396 . S
C516 O470 1.300 . S
C516 O471 1.209 . S
C516 C489 1.486 . S
C517 O472 1.199 . S
C517 O473 1.297 . S
C517 C501 1.476 . S
H518 O544 0.856 . S
H519 O547 0.854 . S
H520 C555 0.930 . S
H521 C556 0.930 . S
H522 C558 0.930 . S
H523 C559 0.930 . S
H524 C561 0.931 . S
H525 C562 0.930 . S
H526 C564 0.930 . S
H527 C565 0.929 . S
H528 C567 0.930 . S
H529 C568 0.931 . S
H530 C570 0.930 . S
H531 C571 0.929 . S
H532 C573 0.931 . S
H533 C574 0.930 1_554 S
H534 C576 0.930 . S
H535 C577 0.932 . S
H536 C579 0.930 . S
H537 C580 0.929 . S
H538 C582 0.931 . S
H539 C583 0.930 . S
H540 C585 0.929 . S
H541 C586 0.931 . S
H542 C588 0.930 . S
H543 C589 0.929 . S
O544 H518 0.856 . S
O544 C590 1.300 . S
O545 C590 1.209 . S
O546 C591 1.199 . S
O547 H519 0.854 . S
O547 C591 1.297 . S
C548 C549 1.404 . S
C548 C553 1.397 . S
C548 C554 1.492 . S
C549 C548 1.404 . S
C549 C550 1.396 . S
C549 C560 1.492 . S
C550 C549 1.396 . S
C550 C551 1.397 . S
C550 C566 1.509 . S
C551 C550 1.397 . S
C551 C552 1.412 . S
C551 C572 1.485 . S
C552 C551 1.412 . S
C552 C553 1.388 . S
C552 C578 1.490 . S
C553 C548 1.397 . S
C553 C552 1.388 . S
C553 C584 1.519 . S
C554 C548 1.492 . S
C554 C555 1.363 . S
C554 C559 1.390 . S
C555 H520 0.930 . S
C555 C554 1.363 . S
C555 C556 1.372 . S
C556 H521 0.930 . S
C556 C555 1.372 . S
C556 C557 1.383 . S
C557 C556 1.383 . S
C557 C558 1.395 . S
C558 H522 0.930 . S
C558 C557 1.395 . S
C558 C559 1.362 . S
C559 H523 0.930 . S
C559 C554 1.390 . S
C559 C558 1.362 . S
C560 C549 1.492 . S
C560 C561 1.377 . S
C560 C565 1.397 . S
C561 H524 0.931 . S
C561 C560 1.377 . S
C561 C562 1.376 . S
C562 H525 0.930 . S
C562 C561 1.376 . S
C562 C563 1.376 . S
C563 C562 1.376 . S
C563 C564 1.378 . S
C563 C590 1.486 . S
C564 H526 0.930 . S
C564 C563 1.378 . S
C564 C565 1.376 . S
C565 H527 0.929 . S
C565 C560 1.397 . S
C565 C564 1.376 . S
C566 C550 1.509 . S
C566 C567 1.391 . S
C566 C571 1.386 . S
C567 H528 0.930 . S
C567 C566 1.391 . S
C567 C568 1.375 . S
C568 H529 0.931 . S
C568 C567 1.375 . S
C568 C569 1.375 . S
C569 C568 1.375 . S
C569 C570 1.361 . S
C570 H530 0.930 . S
C570 C569 1.361 . S
C570 C571 1.399 . S
C571 H531 0.929 . S
C571 C566 1.386 . S
C571 C570 1.399 . S
C572 C551 1.485 . S
C572 C573 1.394 . S
C572 C577 1.360 . S
C573 H532 0.931 . S
C573 C572 1.394 . S
C573 C574 1.372 . S
C574 H533 0.930 1_556 S
C574 C573 1.372 . S
C574 C575 1.397 . S
C575 C574 1.397 . S
C575 C576 1.390 . S
C575 C591 1.476 1_556 S
C576 H534 0.930 . S
C576 C575 1.390 . S
C576 C577 1.366 . S
C577 H535 0.932 . S
C577 C572 1.360 . S
C577 C576 1.366 . S
C578 C552 1.490 . S
C578 C579 1.380 . S
C578 C583 1.386 . S
C579 H536 0.930 . S
C579 C578 1.380 . S
C579 C580 1.381 . S
C580 H537 0.929 . S
C580 C579 1.381 . S
C580 C581 1.371 . S
C581 C580 1.371 . S
C581 C582 1.380 . S
C582 H538 0.931 . S
C582 C581 1.380 . S
C582 C583 1.387 . S
C583 H539 0.930 . S
C583 C578 1.386 . S
C583 C582 1.387 . S
C584 C553 1.519 . S
C584 C585 1.377 . S
C584 C589 1.361 . S
C585 H540 0.929 . S
C585 C584 1.377 . S
C585 C586 1.386 . S
C586 H541 0.931 . S
C586 C585 1.386 . S
C586 C587 1.363 . S
C587 C586 1.363 . S
C587 C588 1.385 . S
C588 H542 0.930 . S
C588 C587 1.385 . S
C588 C589 1.396 . S
C589 H543 0.929 . S
C589 C584 1.361 . S
C589 C588 1.396 . S
C590 O544 1.300 . S
C590 O545 1.209 . S
C590 C563 1.486 . S
C591 O546 1.199 . S
C591 O547 1.297 . S
C591 C575 1.476 1_554 S
C592 O594 1.247 . S
C592 O596 1.258 . S
C593 O600 1.247 . S
C593 O601 1.258 . S
O594 C592 1.247 . S
O594 Zn595 2.028 . S
Zn595 O594 2.028 . S
Zn595 O599 2.035 1_655 S
Zn595 O601 2.035 1_655 S
Zn595 O602 2.028 . S
O596 C592 1.258 . S
O596 Zn597 2.035 1_655 S
Zn597 O596 2.035 1_455 S
Zn597 O598 2.028 . S
Zn597 O600 2.028 . S
Zn597 O603 2.035 1_455 S
O598 Zn597 2.028 . S
O598 C604 1.247 . S
O599 Zn595 2.035 1_455 S
O599 C604 1.258 . S
O600 C593 1.247 . S
O600 Zn597 2.028 . S
O601 C593 1.258 . S
O601 Zn595 2.035 1_455 S
O602 Zn595 2.028 . S
O602 C605 1.247 . S
O603 Zn597 2.035 1_655 S
O603 C605 1.258 . S
C604 O598 1.247 . S
C604 O599 1.258 . S
C605 O602 1.247 . S
C605 O603 1.258 . S
C606 O608 1.247 . S
C606 O610 1.258 . S
C607 O614 1.247 . S
C607 O615 1.258 . S
O608 C606 1.247 . S
O608 Zn609 2.028 . S
Zn609 O608 2.028 . S
Zn609 O613 2.035 1_545 S
Zn609 O615 2.035 1_545 S
Zn609 O616 2.028 . S
O610 C606 1.258 . S
O610 Zn611 2.035 . S
Zn611 O610 2.035 . S
Zn611 O612 2.028 1_545 S
Zn611 O614 2.028 1_545 S
Zn611 O617 2.035 . S
O612 Zn611 2.028 1_565 S
O612 C618 1.247 . S
O613 Zn609 2.035 1_565 S
O613 C618 1.258 . S
O614 C607 1.247 . S
O614 Zn611 2.028 1_565 S
O615 C607 1.258 . S
O615 Zn609 2.035 1_565 S
O616 Zn609 2.028 . S
O616 C619 1.247 . S
O617 Zn611 2.035 . S
O617 C619 1.258 . S
C618 O612 1.247 . S
C618 O613 1.258 . S
C619 O616 1.247 . S
C619 O617 1.258 . S
C620 O622 1.247 . S
C620 O624 1.258 . S
C621 O628 1.247 . S
C621 O629 1.258 . S
O622 C620 1.247 . S
O622 Zn623 2.028 . S
Zn623 O622 2.028 . S
Zn623 O627 2.035 . S
Zn623 O629 2.035 . S
Zn623 O630 2.028 . S
O624 C620 1.258 . S
O624 Zn625 2.035 . S
Zn625 O624 2.035 . S
Zn625 O626 2.028 . S
Zn625 O628 2.028 . S
Zn625 O631 2.035 . S
O626 Zn625 2.028 . S
O626 C632 1.247 . S
O627 Zn623 2.035 . S
O627 C632 1.258 . S
O628 C621 1.247 . S
O628 Zn625 2.028 . S
O629 C621 1.258 . S
O629 Zn623 2.035 . S
O630 Zn623 2.028 . S
O630 C633 1.243 1_455 S
O631 Zn625 2.035 . S
O631 C633 1.243 1_455 S
C632 O626 1.247 . S
C632 O627 1.258 . S
C633 O630 1.243 1_655 S
C633 O631 1.243 1_655 S
C634 O636 1.247 . S
C634 O638 1.258 . S
C635 O642 1.247 . S
C635 O643 1.258 . S
O636 C634 1.247 . S
O636 Zn637 2.028 . S
Zn637 O636 2.028 . S
Zn637 O641 2.035 . S
Zn637 O643 2.035 . S
Zn637 O644 2.028 . S
O638 C634 1.258 . S
O638 Zn639 2.035 . S
Zn639 O638 2.035 . S
Zn639 O640 2.028 . S
Zn639 O642 2.028 . S
Zn639 O645 2.035 . S
O640 Zn639 2.028 . S
O640 C646 1.247 . S
O641 Zn637 2.035 . S
O641 C646 1.258 . S
O642 C635 1.247 . S
O642 Zn639 2.028 . S
O643 C635 1.258 . S
O643 Zn637 2.035 . S
O644 Zn637 2.028 . S
O644 C647 1.247 . S
O645 Zn639 2.035 . S
O645 C647 1.258 . S
C646 O640 1.247 . S
C646 O641 1.258 . S
C647 O644 1.247 . S
C647 O645 1.258 . S
C648 O650 1.247 . S
C648 O652 1.258 . S
C649 O656 1.247 . S
C649 O657 1.258 . S
O650 C648 1.247 . S
O650 Zn651 2.028 . S
Zn651 O650 2.028 . S
Zn651 O655 2.035 . S
Zn651 O657 2.035 1_554 S
Zn651 O658 2.028 1_554 S
O652 C648 1.258 . S
O652 Zn653 2.035 . S
Zn653 O652 2.035 . S
Zn653 O654 2.028 . S
Zn653 O656 2.028 1_554 S
Zn653 O659 2.035 1_554 S
O654 Zn653 2.028 . S
O654 C660 1.247 . S
O655 Zn651 2.035 . S
O655 C660 1.258 . S
O656 C649 1.247 . S
O656 Zn653 2.028 1_556 S
O657 C649 1.258 . S
O657 Zn651 2.035 1_556 S
O658 Zn651 2.028 1_556 S
O658 C661 1.247 . S
O659 Zn653 2.035 1_556 S
O659 C661 1.258 . S
C660 O654 1.247 . S
C660 O655 1.258 . S
C661 O658 1.247 . S
C661 O659 1.258 . S
C662 O664 1.247 . S
C662 O666 1.258 . S
C663 O670 1.247 . S
C663 O671 1.258 . S
O664 C662 1.247 . S
O664 Zn665 2.028 . S
Zn665 O664 2.028 . S
Zn665 O669 2.035 . S
Zn665 O671 2.035 1_554 S
Zn665 O672 2.028 1_554 S
O666 C662 1.258 . S
O666 Zn667 2.035 . S
Zn667 O666 2.035 . S
Zn667 O668 2.028 . S
Zn667 O670 2.028 1_554 S
Zn667 O673 2.035 1_554 S
O668 Zn667 2.028 . S
O668 C674 1.247 . S
O669 Zn665 2.035 . S
O669 C674 1.258 . S
O670 C663 1.247 . S
O670 Zn667 2.028 1_556 S
O671 C663 1.258 . S
O671 Zn665 2.035 1_556 S
O672 Zn665 2.028 1_556 S
O672 C675 1.247 . S
O673 Zn667 2.035 1_556 S
O673 C675 1.258 . S
C674 O668 1.247 . S
C674 O669 1.258 . S
C675 O672 1.247 . S
C675 O673 1.258 . S
C676 O678 1.247 1_556 S
C676 O680 1.258 . S
C677 O684 1.247 . S
C677 O685 1.258 . S
O678 C676 1.247 1_554 S
O678 Zn679 2.028 . S
Zn679 O678 2.028 . S
Zn679 O683 2.035 1_554 S
Zn679 O685 2.035 . S
Zn679 O686 2.028 . S
O680 C676 1.258 . S
O680 Zn681 2.035 1_556 S
Zn681 O680 2.035 1_554 S
Zn681 O682 2.028 1_554 S
Zn681 O684 2.028 . S
Zn681 O687 2.035 . S
O682 Zn681 2.028 1_556 S
O682 C688 1.247 . S
O683 Zn679 2.035 1_556 S
O683 C688 1.258 . S
O684 C677 1.247 . S
O684 Zn681 2.028 . S
O685 C677 1.258 . S
O685 Zn679 2.035 . S
O686 Zn679 2.028 . S
O686 C689 1.247 . S
O687 Zn681 2.035 . S
O687 C689 1.258 . S
C688 O682 1.247 . S
C688 O683 1.258 . S
C689 O686 1.247 . S
C689 O687 1.258 . S
C690 O692 1.247 . S
C690 O694 1.258 . S
C691 O698 1.247 . S
C691 O699 1.258 . S
O692 C690 1.247 . S
O692 Zn693 2.028 . S
Zn693 O692 2.028 . S
Zn693 O697 2.035 . S
Zn693 O699 2.035 . S
Zn693 O700 2.028 . S
O694 C690 1.258 . S
O694 Zn695 2.035 . S
Zn695 O694 2.035 . S
Zn695 O696 2.028 . S
Zn695 O698 2.028 . S
Zn695 O701 2.035 . S
O696 Zn695 2.028 . S
O696 C702 1.247 . S
O697 Zn693 2.035 . S
O697 C702 1.258 . S
O698 C691 1.247 . S
O698 Zn695 2.028 . S
O699 C691 1.258 . S
O699 Zn693 2.035 . S
O700 Zn693 2.028 . S
O700 C703 1.247 . S
O701 Zn695 2.035 . S
O701 C703 1.258 . S
C702 O696 1.247 . S
C702 O697 1.258 . S
C703 O700 1.247 . S
C703 O701 1.258 . S
C704 C705 1.363 . S
C704 C710 1.379 . S
C704 N712 1.356 . S
C705 C704 1.363 . S
C705 C711 1.363 . S
C706 C707 1.363 . S
C706 C711 1.379 . S
C706 N713 1.356 . S
C707 C706 1.363 . S
C707 C710 1.363 . S
N708 C710 1.356 . S
N708 H720 0.984 . S
N708 H721 0.985 . S
N709 C711 1.356 . S
N709 H714 0.984 . S
N709 H715 0.985 . S
C710 C704 1.379 . S
C710 C707 1.363 . S
C710 N708 1.356 . S
C711 C705 1.363 . S
C711 C706 1.379 . S
C711 N709 1.356 . S
N712 C704 1.356 . S
N712 H718 0.984 . S
N712 H719 0.984 . S
N713 C706 1.356 . S
N713 H716 0.984 . S
N713 H717 0.985 . S
H714 N709 0.984 . S
H715 N709 0.985 . S
H716 N713 0.984 . S
H717 N713 0.985 . S
H718 N712 0.984 . S
H719 N712 0.984 . S
H720 N708 0.984 . S
H721 N708 0.985 . S
C722 C723 1.363 . S
C722 C728 1.379 . S
C722 N730 1.356 . S
C723 C722 1.363 . S
C723 C729 1.363 . S
C724 C725 1.363 . S
C724 C729 1.379 . S
C724 N731 1.356 . S
C725 C724 1.363 . S
C725 C728 1.363 . S
N726 C728 1.356 . S
N726 H738 0.984 . S
N726 H739 0.985 . S
N727 C729 1.356 . S
N727 H732 0.984 . S
N727 H733 0.985 . S
C728 C722 1.379 . S
C728 C725 1.363 . S
C728 N726 1.356 . S
C729 C723 1.363 . S
C729 C724 1.379 . S
C729 N727 1.356 . S
N730 C722 1.356 . S
N730 H736 0.984 . S
N730 H737 0.984 . S
N731 C724 1.356 . S
N731 H734 0.984 . S
N731 H735 0.985 . S
H732 N727 0.984 . S
H733 N727 0.985 . S
H734 N731 0.984 . S
H735 N731 0.985 . S
H736 N730 0.984 . S
H737 N730 0.984 . S
H738 N726 0.984 . S
H739 N726 0.985 . S
C740 C741 1.363 . S
C740 C746 1.379 . S
C740 N748 1.356 . S
C741 C740 1.363 . S
C741 C747 1.363 . S
C742 C743 1.363 . S
C742 C747 1.379 . S
C742 N749 1.356 . S
C743 C742 1.363 . S
C743 C746 1.363 . S
N744 C746 1.356 . S
N744 H756 0.984 . S
N744 H757 0.985 . S
N745 C747 1.356 . S
N745 H750 0.984 . S
N745 H751 0.985 . S
C746 C740 1.379 . S
C746 C743 1.363 . S
C746 N744 1.356 . S
C747 C741 1.363 . S
C747 C742 1.379 . S
C747 N745 1.356 . S
N748 C740 1.356 . S
N748 H754 0.984 . S
N748 H755 0.984 . S
N749 C742 1.356 . S
N749 H752 0.984 . S
N749 H753 0.985 . S
H750 N745 0.984 . S
H751 N745 0.985 . S
H752 N749 0.984 . S
H753 N749 0.985 . S
H754 N748 0.984 . S
H755 N748 0.984 . S
H756 N744 0.984 . S
H757 N744 0.985 . S
C758 C759 1.363 . S
C758 C764 1.379 . S
C758 N766 1.356 . S
C759 C758 1.363 . S
C759 C765 1.363 . S
C760 C761 1.363 . S
C760 C765 1.379 . S
C760 N767 1.356 . S
C761 C760 1.363 . S
C761 C764 1.363 . S
N762 C764 1.356 . S
N762 H774 0.984 . S
N762 H775 0.985 . S
N763 C765 1.356 . S
N763 H768 0.984 . S
N763 H769 0.985 . S
C764 C758 1.379 . S
C764 C761 1.363 . S
C764 N762 1.356 . S
C765 C759 1.363 . S
C765 C760 1.379 . S
C765 N763 1.356 . S
N766 C758 1.356 . S
N766 H772 0.984 . S
N766 H773 0.984 . S
N767 C760 1.356 . S
N767 H770 0.984 . S
N767 H771 0.985 . S
H768 N763 0.984 . S
H769 N763 0.985 . S
H770 N767 0.984 . S
H771 N767 0.985 . S
H772 N766 0.984 . S
H773 N766 0.984 . S
H774 N762 0.984 . S
H775 N762 0.985 . S
C776 C777 1.363 . S
C776 C782 1.379 . S
C776 N784 1.356 . S
C777 C776 1.363 . S
C777 C783 1.363 . S
C778 C779 1.363 . S
C778 C783 1.379 . S
C778 N785 1.356 . S
C779 C778 1.363 . S
C779 C782 1.363 . S
N780 C782 1.356 . S
N780 H792 0.984 . S
N780 H793 0.985 . S
N781 C783 1.356 . S
N781 H786 0.984 . S
N781 H787 0.985 . S
C782 C776 1.379 . S
C782 C779 1.363 . S
C782 N780 1.356 . S
C783 C777 1.363 . S
C783 C778 1.379 . S
C783 N781 1.356 . S
N784 C776 1.356 . S
N784 H790 0.984 . S
N784 H791 0.984 . S
N785 C778 1.356 . S
N785 H788 0.984 . S
N785 H789 0.985 . S
H786 N781 0.984 . S
H787 N781 0.985 . S
H788 N785 0.984 . S
H789 N785 0.985 . S
H790 N784 0.984 . S
H791 N784 0.984 . S
H792 N780 0.984 . S
H793 N780 0.985 . S
C794 C795 1.363 . S
C794 C800 1.379 . S
C794 N802 1.356 . S
C795 C794 1.363 . S
C795 C801 1.363 . S
C796 C797 1.363 . S
C796 C801 1.379 . S
C796 N803 1.356 . S
C797 C796 1.363 . S
C797 C800 1.363 . S
N798 C800 1.356 . S
N798 H810 0.984 . S
N798 H811 0.985 . S
N799 C801 1.356 . S
N799 H804 0.984 . S
N799 H805 0.985 . S
C800 C794 1.379 . S
C800 C797 1.363 . S
C800 N798 1.356 . S
C801 C795 1.363 . S
C801 C796 1.379 . S
C801 N799 1.356 . S
N802 C794 1.356 . S
N802 H808 0.984 . S
N802 H809 0.984 . S
N803 C796 1.356 . S
N803 H806 0.984 . S
N803 H807 0.985 . S
H804 N799 0.984 . S
H805 N799 0.985 . S
H806 N803 0.984 . S
H807 N803 0.985 . S
H808 N802 0.984 . S
H809 N802 0.984 . S
H810 N798 0.984 . S
H811 N798 0.985 . S
C812 C813 1.363 . S
C812 C818 1.379 . S
C812 N820 1.356 . S
C813 C812 1.363 . S
C813 C819 1.363 . S
C814 C815 1.363 . S
C814 C819 1.379 . S
C814 N821 1.356 . S
C815 C814 1.363 . S
C815 C818 1.363 . S
N816 C818 1.356 . S
N816 H828 0.984 . S
N816 H829 0.985 . S
N817 C819 1.356 . S
N817 H822 0.984 . S
N817 H823 0.985 . S
C818 C812 1.379 . S
C818 C815 1.363 . S
C818 N816 1.356 . S
C819 C813 1.363 . S
C819 C814 1.379 . S
C819 N817 1.356 . S
N820 C812 1.356 . S
N820 H826 0.984 . S
N820 H827 0.984 . S
N821 C814 1.356 . S
N821 H824 0.984 . S
N821 H825 0.985 . S
H822 N817 0.984 . S
H823 N817 0.985 . S
H824 N821 0.984 . S
H825 N821 0.985 . S
H826 N820 0.984 . S
H827 N820 0.984 . S
H828 N816 0.984 . S
H829 N816 0.985 . S
C830 C831 1.363 . S
C830 C836 1.379 . S
C830 N838 1.356 . S
C831 C830 1.363 . S
C831 C837 1.363 . S
C832 C833 1.363 . S
C832 C837 1.379 . S
C832 N839 1.356 . S
C833 C832 1.363 . S
C833 C836 1.363 . S
N834 C836 1.356 . S
N834 H846 0.984 . S
N834 H847 0.985 . S
N835 C837 1.356 . S
N835 H840 0.984 . S
N835 H841 0.985 . S
C836 C830 1.379 . S
C836 C833 1.363 . S
C836 N834 1.356 . S
C837 C831 1.363 . S
C837 C832 1.379 . S
C837 N835 1.356 . S
N838 C830 1.356 . S
N838 H844 0.984 . S
N838 H845 0.984 . S
N839 C832 1.356 . S
N839 H842 0.984 . S
N839 H843 0.985 . S
H840 N835 0.984 . S
H841 N835 0.985 . S
H842 N839 0.984 . S
H843 N839 0.985 . S
H844 N838 0.984 . S
H845 N838 0.984 . S
H846 N834 0.984 . S
H847 N834 0.985 . S
C848 C849 1.363 . S
C848 C854 1.379 . S
C848 N856 1.356 . S
C849 C848 1.363 . S
C849 C855 1.363 . S
C850 C851 1.363 . S
C850 C855 1.379 . S
C850 N857 1.356 . S
C851 C850 1.363 . S
C851 C854 1.363 . S
N852 C854 1.356 . S
N852 H864 0.984 . S
N852 H865 0.985 1_655 S
N853 C855 1.356 . S
N853 H858 0.984 . S
N853 H859 0.985 . S
C854 C848 1.379 . S
C854 C851 1.363 . S
C854 N852 1.356 . S
C855 C849 1.363 . S
C855 C850 1.379 . S
C855 N853 1.356 . S
N856 C848 1.356 . S
N856 H862 0.984 . S
N856 H863 0.984 . S
N857 C850 1.356 . S
N857 H860 0.984 . S
N857 H861 0.985 . S
H858 N853 0.984 . S
H859 N853 0.985 . S
H860 N857 0.984 . S
H861 N857 0.985 . S
H862 N856 0.984 . S
H863 N856 0.984 . S
H864 N852 0.984 . S
H865 N852 0.985 1_455 S
C866 C867 1.363 . S
C866 C872 1.379 . S
C866 N874 1.356 . S
C867 C866 1.363 . S
C867 C873 1.363 . S
C868 C869 1.363 . S
C868 C873 1.379 . S
C868 N875 1.356 . S
C869 C868 1.363 . S
C869 C872 1.363 . S
N870 C872 1.356 . S
N870 H882 0.984 . S
N870 H883 0.985 . S
N871 C873 1.356 . S
N871 H876 0.984 . S
N871 H877 0.985 . S
C872 C866 1.379 . S
C872 C869 1.363 . S
C872 N870 1.356 . S
C873 C867 1.363 . S
C873 C868 1.379 . S
C873 N871 1.356 . S
N874 C866 1.356 . S
N874 H880 0.984 . S
N874 H881 0.984 . S
N875 C868 1.356 . S
N875 H878 0.984 . S
N875 H879 0.985 . S
H876 N871 0.984 . S
H877 N871 0.985 . S
H878 N875 0.984 . S
H879 N875 0.985 . S
H880 N874 0.984 . S
H881 N874 0.984 . S
H882 N870 0.984 . S
H883 N870 0.985 . S
C884 C885 1.363 . S
C884 C890 1.379 . S
C884 N892 1.356 . S
C885 C884 1.363 . S
C885 C891 1.363 . S
C886 C887 1.363 . S
C886 C891 1.379 . S
C886 N893 1.356 . S
C887 C886 1.363 . S
C887 C890 1.363 . S
N888 C890 1.356 . S
N888 H900 0.984 . S
N888 H901 0.985 . S
N889 C891 1.356 . S
N889 H894 0.984 . S
N889 H895 0.985 . S
C890 C884 1.379 . S
C890 C887 1.363 . S
C890 N888 1.356 . S
C891 C885 1.363 . S
C891 C886 1.379 . S
C891 N889 1.356 . S
N892 C884 1.356 . S
N892 H898 0.984 . S
N892 H899 0.984 . S
N893 C886 1.356 . S
N893 H896 0.984 . S
N893 H897 0.985 . S
H894 N889 0.984 . S
H895 N889 0.985 . S
H896 N893 0.984 . S
H897 N893 0.985 . S
H898 N892 0.984 . S
H899 N892 0.984 . S
H900 N888 0.984 . S
H901 N888 0.985 . S
C902 C903 1.363 . S
C902 C908 1.379 . S
C902 N910 1.356 . S
C903 C902 1.363 . S
C903 C909 1.363 . S
C904 C905 1.363 . S
C904 C909 1.379 . S
C904 N911 1.356 . S
C905 C904 1.363 . S
C905 C908 1.363 . S
N906 C908 1.356 . S
N906 H918 0.984 . S
N906 H919 0.985 . S
N907 C909 1.356 . S
N907 H912 0.984 . S
N907 H913 0.985 . S
C908 C902 1.379 . S
C908 C905 1.363 . S
C908 N906 1.356 . S
C909 C903 1.363 . S
C909 C904 1.379 . S
C909 N907 1.356 . S
N910 C902 1.356 . S
N910 H916 0.984 . S
N910 H917 0.984 . S
N911 C904 1.356 . S
N911 H914 0.984 . S
N911 H915 0.985 . S
H912 N907 0.984 . S
H913 N907 0.985 . S
H914 N911 0.984 . S
H915 N911 0.985 . S
H916 N910 0.984 . S
H917 N910 0.984 . S
H918 N906 0.984 . S
H919 N906 0.985 . S
C920 C921 1.363 . S
C920 C926 1.379 . S
C920 N928 1.356 . S
C921 C920 1.363 . S
C921 C927 1.363 . S
C922 C923 1.363 . S
C922 C927 1.379 . S
C922 N929 1.356 . S
C923 C922 1.363 . S
C923 C926 1.363 . S
N924 C926 1.356 . S
N924 H936 0.984 . S
N924 H937 0.985 . S
N925 C927 1.356 . S
N925 H930 0.984 . S
N925 H931 0.985 . S
C926 C920 1.379 . S
C926 C923 1.363 . S
C926 N924 1.356 . S
C927 C921 1.363 . S
C927 C922 1.379 . S
C927 N925 1.356 . S
N928 C920 1.356 . S
N928 H934 0.984 . S
N928 H935 0.984 . S
N929 C922 1.356 . S
N929 H932 0.984 . S
N929 H933 0.985 . S
H930 N925 0.984 . S
H931 N925 0.985 . S
H932 N929 0.984 . S
H933 N929 0.985 . S
H934 N928 0.984 . S
H935 N928 0.984 . S
H936 N924 0.984 . S
H937 N924 0.985 . S
C938 C939 1.363 . S
C938 C944 1.379 . S
C938 N946 1.356 . S
C939 C938 1.363 . S
C939 C945 1.363 . S
C940 C941 1.363 . S
C940 C945 1.379 . S
C940 N947 1.356 . S
C941 C940 1.363 . S
C941 C944 1.363 . S
N942 C944 1.356 . S
N942 H954 0.984 . S
N942 H955 0.985 . S
N943 C945 1.356 . S
N943 H948 0.984 . S
N943 H949 0.985 . S
C944 C938 1.379 . S
C944 C941 1.363 . S
C944 N942 1.356 . S
C945 C939 1.363 . S
C945 C940 1.379 . S
C945 N943 1.356 . S
N946 C938 1.356 . S
N946 H952 0.984 . S
N946 H953 0.984 . S
N947 C940 1.356 . S
N947 H950 0.984 . S
N947 H951 0.985 . S
H948 N943 0.984 . S
H949 N943 0.985 . S
H950 N947 0.984 . S
H951 N947 0.985 . S
H952 N946 0.984 . S
H953 N946 0.984 . S
H954 N942 0.984 . S
H955 N942 0.985 . S
C956 C957 1.363 . S
C956 C962 1.379 . S
C956 N964 1.356 . S
C957 C956 1.363 . S
C957 C963 1.363 . S
C958 C959 1.363 . S
C958 C963 1.379 . S
C958 N965 1.356 . S
C959 C958 1.363 . S
C959 C962 1.363 . S
N960 C962 1.356 . S
N960 H972 0.984 . S
N960 H973 0.985 . S
N961 C963 1.356 . S
N961 H966 0.984 . S
N961 H967 0.985 . S
C962 C956 1.379 . S
C962 C959 1.363 . S
C962 N960 1.356 . S
C963 C957 1.363 . S
C963 C958 1.379 . S
C963 N961 1.356 . S
N964 C956 1.356 . S
N964 H970 0.984 . S
N964 H971 0.984 . S
N965 C958 1.356 . S
N965 H968 0.984 . S
N965 H969 0.985 . S
H966 N961 0.984 . S
H967 N961 0.985 . S
H968 N965 0.984 . S
H969 N965 0.985 . S
H970 N964 0.984 . S
H971 N964 0.984 . S
H972 N960 0.984 . S
H973 N960 0.985 . S
C974 C975 1.363 . S
C974 C980 1.379 . S
C974 N982 1.356 . S
C975 C974 1.363 . S
C975 C981 1.363 . S
C976 C977 1.363 . S
C976 C981 1.379 . S
C976 N983 1.356 . S
C977 C976 1.363 . S
C977 C980 1.363 . S
N978 C980 1.356 . S
N978 H990 0.984 . S
N978 H991 0.985 . S
N979 C981 1.356 . S
N979 H984 0.984 . S
N979 H985 0.985 . S
C980 C974 1.379 . S
C980 C977 1.363 . S
C980 N978 1.356 . S
C981 C975 1.363 . S
C981 C976 1.379 . S
C981 N979 1.356 . S
N982 C974 1.356 . S
N982 H988 0.984 . S
N982 H989 0.984 . S
N983 C976 1.356 . S
N983 H986 0.984 . S
N983 H987 0.985 . S
H984 N979 0.984 . S
H985 N979 0.985 . S
H986 N983 0.984 . S
H987 N983 0.985 . S
H988 N982 0.984 . S
H989 N982 0.984 . S
H990 N978 0.984 . S
H991 N978 0.985 . S
C992 C993 1.363 . S
C992 C998 1.379 . S
C992 N1000 1.356 . S
C993 C992 1.363 . S
C993 C999 1.363 . S
C994 C995 1.363 . S
C994 C999 1.379 . S
C994 N1001 1.356 . S
C995 C994 1.363 . S
C995 C998 1.363 . S
N996 C998 1.356 . S
N996 H1008 0.984 . S
N996 H1009 0.985 . S
N997 C999 1.356 . S
N997 H1002 0.984 . S
N997 H1003 0.985 . S
C998 C992 1.379 . S
C998 C995 1.363 . S
C998 N996 1.356 . S
C999 C993 1.363 . S
C999 C994 1.379 . S
C999 N997 1.356 . S
N1000 C992 1.356 . S
N1000 H1006 0.984 . S
N1000 H1007 0.984 . S
N1001 C994 1.356 . S
N1001 H1004 0.984 . S
N1001 H1005 0.985 . S
H1002 N997 0.984 . S
H1003 N997 0.985 . S
H1004 N1001 0.984 . S
H1005 N1001 0.985 . S
H1006 N1000 0.984 . S
H1007 N1000 0.984 . S
H1008 N996 0.984 . S
H1009 N996 0.985 . S
C1010 C1011 1.363 . S
C1010 C1016 1.379 . S
C1010 N1018 1.356 . S
C1011 C1010 1.363 . S
C1011 C1017 1.363 . S
C1012 C1013 1.363 . S
C1012 C1017 1.379 . S
C1012 N1019 1.356 . S
C1013 C1012 1.363 . S
C1013 C1016 1.363 . S
N1014 C1016 1.356 . S
N1014 H1026 0.984 . S
N1014 H1027 0.985 . S
N1015 C1017 1.356 . S
N1015 H1020 0.984 . S
N1015 H1021 0.985 . S
C1016 C1010 1.379 . S
C1016 C1013 1.363 . S
C1016 N1014 1.356 . S
C1017 C1011 1.363 . S
C1017 C1012 1.379 . S
C1017 N1015 1.356 . S
N1018 C1010 1.356 . S
N1018 H1024 0.984 . S
N1018 H1025 0.984 . S
N1019 C1012 1.356 . S
N1019 H1022 0.984 . S
N1019 H1023 0.985 . S
H1020 N1015 0.984 . S
H1021 N1015 0.985 . S
H1022 N1019 0.984 . S
H1023 N1019 0.985 . S
H1024 N1018 0.984 . S
H1025 N1018 0.984 . S
H1026 N1014 0.984 . S
H1027 N1014 0.985 . S
C1028 C1029 1.363 . S
C1028 C1034 1.379 . S
C1028 N1036 1.356 . S
C1029 C1028 1.363 . S
C1029 C1035 1.363 . S
C1030 C1031 1.363 . S
C1030 C1035 1.379 . S
C1030 N1037 1.356 . S
C1031 C1030 1.363 . S
C1031 C1034 1.363 . S
N1032 C1034 1.356 . S
N1032 H1044 0.984 . S
N1032 H1045 0.985 . S
N1033 C1035 1.356 . S
N1033 H1038 0.984 . S
N1033 H1039 0.985 . S
C1034 C1028 1.379 . S
C1034 C1031 1.363 . S
C1034 N1032 1.356 . S
C1035 C1029 1.363 . S
C1035 C1030 1.379 . S
C1035 N1033 1.356 . S
N1036 C1028 1.356 . S
N1036 H1042 0.984 . S
N1036 H1043 0.984 . S
N1037 C1030 1.356 . S
N1037 H1040 0.984 . S
N1037 H1041 0.985 . S
H1038 N1033 0.984 . S
H1039 N1033 0.985 . S
H1040 N1037 0.984 . S
H1041 N1037 0.985 . S
H1042 N1036 0.984 . S
H1043 N1036 0.984 . S
H1044 N1032 0.984 . S
H1045 N1032 0.985 . S
C1046 C1047 1.363 1_554 S
C1046 C1052 1.379 . S
C1046 N1054 1.356 . S
C1047 C1046 1.363 1_556 S
C1047 C1053 1.363 . S
C1048 C1049 1.373 . S
C1048 C1053 1.373 1_554 S
C1048 N1055 1.354 1_554 S
C1049 C1048 1.373 . S
C1049 C1052 1.363 . S
N1050 C1052 1.356 . S
N1050 H1062 0.984 . S
N1050 H1063 0.985 . S
N1051 C1053 1.356 . S
N1051 H1056 0.984 . S
N1051 H1057 0.985 . S
C1052 C1046 1.379 . S
C1052 C1049 1.363 . S
C1052 N1050 1.356 . S
C1053 C1047 1.363 . S
C1053 C1048 1.373 1_556 S
C1053 N1051 1.356 . S
N1054 C1046 1.356 . S
N1054 H1060 0.984 . S
N1054 H1061 0.984 . S
N1055 C1048 1.354 1_556 S
N1055 H1058 0.984 1_556 S
N1055 H1059 0.985 . S
H1056 N1051 0.984 . S
H1057 N1051 0.985 . S
H1058 N1055 0.984 1_554 S
H1059 N1055 0.985 . S
H1060 N1054 0.984 . S
H1061 N1054 0.984 . S
H1062 N1050 0.984 . S
H1063 N1050 0.985 . S
C1064 C1065 1.363 . S
C1064 C1070 1.379 . S
C1064 N1072 1.356 . S
C1065 C1064 1.363 . S
C1065 C1071 1.363 . S
C1066 C1067 1.363 . S
C1066 C1071 1.379 . S
C1066 N1073 1.356 . S
C1067 C1066 1.363 . S
C1067 C1070 1.363 . S
N1068 C1070 1.356 . S
N1068 H1080 0.984 . S
N1068 H1081 0.985 . S
N1069 C1071 1.356 . S
N1069 H1074 0.984 . S
N1069 H1075 0.985 . S
C1070 C1064 1.379 . S
C1070 C1067 1.363 . S
C1070 N1068 1.356 . S
C1071 C1065 1.363 . S
C1071 C1066 1.379 . S
C1071 N1069 1.356 . S
N1072 C1064 1.356 . S
N1072 H1078 0.984 . S
N1072 H1079 0.984 . S
N1073 C1066 1.356 . S
N1073 H1076 0.984 . S
N1073 H1077 0.985 . S
H1074 N1069 0.984 . S
H1075 N1069 0.985 . S
H1076 N1073 0.984 . S
H1077 N1073 0.985 . S
H1078 N1072 0.984 . S
H1079 N1072 0.984 . S
H1080 N1068 0.984 . S
H1081 N1068 0.985 . S
C1082 C1083 1.363 . S
C1082 C1088 1.379 . S
C1082 N1090 1.356 . S
C1083 C1082 1.363 . S
C1083 C1089 1.363 . S
C1084 C1085 1.363 . S
C1084 C1089 1.379 . S
C1084 N1091 1.356 . S
C1085 C1084 1.363 . S
C1085 C1088 1.363 . S
N1086 C1088 1.356 . S
N1086 H1098 0.984 . S
N1086 H1099 0.985 . S
N1087 C1089 1.356 . S
N1087 H1092 0.984 . S
N1087 H1093 0.985 . S
C1088 C1082 1.379 . S
C1088 C1085 1.363 . S
C1088 N1086 1.356 . S
C1089 C1083 1.363 . S
C1089 C1084 1.379 . S
C1089 N1087 1.356 . S
N1090 C1082 1.356 . S
N1090 H1096 0.984 . S
N1090 H1097 0.984 . S
N1091 C1084 1.356 . S
N1091 H1094 0.984 . S
N1091 H1095 0.985 . S
H1092 N1087 0.984 . S
H1093 N1087 0.985 . S
H1094 N1091 0.984 . S
H1095 N1091 0.985 . S
H1096 N1090 0.984 . S
H1097 N1090 0.984 . S
H1098 N1086 0.984 . S
H1099 N1086 0.985 . S
C1100 C1101 1.363 . S
C1100 C1106 1.379 . S
C1100 N1108 1.356 . S
C1101 C1100 1.363 . S
C1101 C1107 1.363 . S
C1102 C1103 1.363 . S
C1102 C1107 1.379 . S
C1102 N1109 1.356 . S
C1103 C1102 1.363 . S
C1103 C1106 1.363 . S
N1104 C1106 1.356 . S
N1104 H1116 0.984 . S
N1104 H1117 0.985 . S
N1105 C1107 1.356 . S
N1105 H1110 0.984 . S
N1105 H1111 0.985 . S
C1106 C1100 1.379 . S
C1106 C1103 1.363 . S
C1106 N1104 1.356 . S
C1107 C1101 1.363 . S
C1107 C1102 1.379 . S
C1107 N1105 1.356 . S
N1108 C1100 1.356 . S
N1108 H1114 0.984 . S
N1108 H1115 0.984 . S
N1109 C1102 1.356 . S
N1109 H1112 0.984 . S
N1109 H1113 0.985 . S
H1110 N1105 0.984 . S
H1111 N1105 0.985 . S
H1112 N1109 0.984 . S
H1113 N1109 0.985 . S
H1114 N1108 0.984 . S
H1115 N1108 0.984 . S
H1116 N1104 0.984 . S
H1117 N1104 0.985 . S
C1118 C1119 1.363 . S
C1118 C1124 1.379 . S
C1118 N1126 1.356 . S
C1119 C1118 1.363 . S
C1119 C1125 1.363 . S
C1120 C1121 1.363 . S
C1120 C1125 1.379 . S
C1120 N1127 1.356 . S
C1121 C1120 1.363 . S
C1121 C1124 1.363 . S
N1122 C1124 1.356 . S
N1122 H1134 0.984 . S
N1122 H1135 0.985 . S
N1123 C1125 1.356 . S
N1123 H1128 0.984 . S
N1123 H1129 0.985 . S
C1124 C1118 1.379 . S
C1124 C1121 1.363 . S
C1124 N1122 1.356 . S
C1125 C1119 1.363 . S
C1125 C1120 1.379 . S
C1125 N1123 1.356 . S
N1126 C1118 1.356 . S
N1126 H1132 0.984 . S
N1126 H1133 0.984 . S
N1127 C1120 1.356 . S
N1127 H1130 0.984 . S
N1127 H1131 0.985 . S
H1128 N1123 0.984 . S
H1129 N1123 0.985 . S
H1130 N1127 0.984 . S
H1131 N1127 0.985 . S
H1132 N1126 0.984 . S
H1133 N1126 0.984 . S
H1134 N1122 0.984 . S
H1135 N1122 0.985 . S
C1136 C1137 1.363 . S
C1136 C1142 1.379 . S
C1136 N1144 1.356 . S
C1137 C1136 1.363 . S
C1137 C1143 1.363 . S
C1138 C1139 1.363 . S
C1138 C1143 1.379 . S
C1138 N1145 1.356 . S
C1139 C1138 1.363 . S
C1139 C1142 1.363 . S
N1140 C1142 1.356 . S
N1140 H1152 0.984 . S
N1140 H1153 0.985 . S
N1141 C1143 1.356 . S
N1141 H1146 0.984 . S
N1141 H1147 0.985 . S
C1142 C1136 1.379 . S
C1142 C1139 1.363 . S
C1142 N1140 1.356 . S
C1143 C1137 1.363 . S
C1143 C1138 1.379 . S
C1143 N1141 1.356 . S
N1144 C1136 1.356 . S
N1144 H1150 0.984 . S
N1144 H1151 0.984 . S
N1145 C1138 1.356 . S
N1145 H1148 0.984 . S
N1145 H1149 0.985 . S
H1146 N1141 0.984 . S
H1147 N1141 0.985 . S
H1148 N1145 0.984 . S
H1149 N1145 0.985 . S
H1150 N1144 0.984 . S
H1151 N1144 0.984 . S
H1152 N1140 0.984 . S
H1153 N1140 0.985 . S
C1154 C1155 1.363 . S
C1154 C1160 1.379 . S
C1154 N1162 1.356 . S
C1155 C1154 1.363 . S
C1155 C1161 1.363 . S
C1156 C1157 1.363 . S
C1156 C1161 1.379 . S
C1156 N1163 1.356 . S
C1157 C1156 1.363 . S
C1157 C1160 1.363 . S
N1158 C1160 1.356 . S
N1158 H1170 0.984 . S
N1158 H1171 0.985 . S
N1159 C1161 1.356 . S
N1159 H1164 0.984 . S
N1159 H1165 0.985 . S
C1160 C1154 1.379 . S
C1160 C1157 1.363 . S
C1160 N1158 1.356 . S
C1161 C1155 1.363 . S
C1161 C1156 1.379 . S
C1161 N1159 1.356 . S
N1162 C1154 1.356 . S
N1162 H1168 0.984 . S
N1162 H1169 0.984 . S
N1163 C1156 1.356 . S
N1163 H1166 0.984 . S
N1163 H1167 0.985 . S
H1164 N1159 0.984 . S
H1165 N1159 0.985 . S
H1166 N1163 0.984 . S
H1167 N1163 0.985 . S
H1168 N1162 0.984 . S
H1169 N1162 0.984 . S
H1170 N1158 0.984 . S
H1171 N1158 0.985 . S
C1172 C1173 1.363 . S
C1172 C1178 1.379 . S
C1172 N1180 1.356 . S
C1173 C1172 1.363 . S
C1173 C1179 1.363 . S
C1174 C1175 1.363 . S
C1174 C1179 1.379 . S
C1174 N1181 1.356 . S
C1175 C1174 1.363 . S
C1175 C1178 1.363 . S
N1176 C1178 1.356 . S
N1176 H1188 0.984 . S
N1176 H1189 0.985 . S
N1177 C1179 1.356 . S
N1177 H1182 0.984 . S
N1177 H1183 0.985 . S
C1178 C1172 1.379 . S
C1178 C1175 1.363 . S
C1178 N1176 1.356 . S
C1179 C1173 1.363 . S
C1179 C1174 1.379 . S
C1179 N1177 1.356 . S
N1180 C1172 1.356 . S
N1180 H1186 0.984 . S
N1180 H1187 0.984 . S
N1181 C1174 1.356 . S
N1181 H1184 0.984 . S
N1181 H1185 0.985 . S
H1182 N1177 0.984 . S
H1183 N1177 0.985 . S
H1184 N1181 0.984 . S
H1185 N1181 0.985 . S
H1186 N1180 0.984 . S
H1187 N1180 0.984 . S
H1188 N1176 0.984 . S
H1189 N1176 0.985 . S
C1190 C1191 1.363 . S
C1190 C1196 1.379 . S
C1190 N1198 1.356 . S
C1191 C1190 1.363 . S
C1191 C1197 1.363 . S
C1192 C1193 1.363 . S
C1192 C1197 1.379 . S
C1192 N1199 1.356 . S
C1193 C1192 1.363 . S
C1193 C1196 1.363 . S
N1194 C1196 1.356 . S
N1194 H1206 0.984 . S
N1194 H1207 0.985 . S
N1195 C1197 1.356 . S
N1195 H1200 0.984 . S
N1195 H1201 0.985 . S
C1196 C1190 1.379 . S
C1196 C1193 1.363 . S
C1196 N1194 1.356 . S
C1197 C1191 1.363 . S
C1197 C1192 1.379 . S
C1197 N1195 1.356 . S
N1198 C1190 1.356 . S
N1198 H1204 0.984 . S
N1198 H1205 0.984 . S
N1199 C1192 1.356 . S
N1199 H1202 0.984 . S
N1199 H1203 0.985 . S
H1200 N1195 0.984 . S
H1201 N1195 0.985 . S
H1202 N1199 0.984 . S
H1203 N1199 0.985 . S
H1204 N1198 0.984 . S
H1205 N1198 0.984 . S
H1206 N1194 0.984 . S
H1207 N1194 0.985 . S
C1208 C1209 1.363 . S
C1208 C1214 1.379 . S
C1208 N1216 1.356 . S
C1209 C1208 1.363 . S
C1209 C1215 1.363 . S
C1210 C1211 1.363 . S
C1210 C1215 1.379 . S
C1210 N1217 1.356 . S
C1211 C1210 1.363 . S
C1211 C1214 1.363 . S
N1212 C1214 1.356 . S
N1212 H1224 0.984 1_556 S
N1212 H1225 0.985 . S
N1213 C1215 1.356 . S
N1213 H1218 0.984 . S
N1213 H1219 0.985 . S
C1214 C1208 1.379 . S
C1214 C1211 1.363 . S
C1214 N1212 1.356 . S
C1215 C1209 1.363 . S
C1215 C1210 1.379 . S
C1215 N1213 1.356 . S
N1216 C1208 1.356 . S
N1216 H1222 0.984 . S
N1216 H1223 0.984 . S
N1217 C1210 1.356 . S
N1217 H1220 0.984 . S
N1217 H1221 0.985 . S
H1218 N1213 0.984 . S
H1219 N1213 0.985 . S
H1220 N1217 0.984 . S
H1221 N1217 0.985 . S
H1222 N1216 0.984 . S
H1223 N1216 0.984 . S
H1224 N1212 0.984 1_554 S
H1225 N1212 0.985 . S
C1226 C1227 1.363 . S
C1226 C1232 1.379 . S
C1226 N1234 1.356 . S
C1227 C1226 1.363 . S
C1227 C1233 1.363 . S
C1228 C1229 1.363 . S
C1228 C1233 1.379 . S
C1228 N1235 1.356 . S
C1229 C1228 1.363 . S
C1229 C1232 1.363 . S
N1230 C1232 1.356 . S
N1230 H1242 0.984 . S
N1230 H1243 0.985 . S
N1231 C1233 1.356 . S
N1231 H1236 0.984 . S
N1231 H1237 0.985 . S
C1232 C1226 1.379 . S
C1232 C1229 1.363 . S
C1232 N1230 1.356 . S
C1233 C1227 1.363 . S
C1233 C1228 1.379 . S
C1233 N1231 1.356 . S
N1234 C1226 1.356 . S
N1234 H1240 0.984 . S
N1234 H1241 0.984 . S
N1235 C1228 1.356 . S
N1235 H1238 0.984 . S
N1235 H1239 0.985 . S
H1236 N1231 0.984 . S
H1237 N1231 0.985 . S
H1238 N1235 0.984 . S
H1239 N1235 0.985 . S
H1240 N1234 0.984 . S
H1241 N1234 0.984 . S
H1242 N1230 0.984 . S
H1243 N1230 0.985 . S
C1244 C1245 1.363 . S
C1244 C1250 1.379 . S
C1244 N1252 1.356 . S
C1245 C1244 1.363 . S
C1245 C1251 1.363 . S
C1246 C1247 1.363 . S
C1246 C1251 1.379 . S
C1246 N1253 1.356 1_556 S
C1247 C1246 1.363 . S
C1247 C1250 1.363 . S
N1248 C1250 1.356 . S
N1248 H1260 0.984 . S
N1248 H1261 0.985 . S
N1249 C1251 1.356 . S
N1249 H1254 0.984 . S
N1249 H1255 0.985 . S
C1250 C1244 1.379 . S
C1250 C1247 1.363 . S
C1250 N1248 1.356 . S
C1251 C1245 1.363 . S
C1251 C1246 1.379 . S
C1251 N1249 1.356 . S
N1252 C1244 1.356 . S
N1252 H1258 0.984 . S
N1252 H1259 0.984 . S
N1253 C1246 1.356 1_554 S
N1253 H1256 0.984 . S
N1253 H1257 0.985 . S
H1254 N1249 0.984 . S
H1255 N1249 0.985 . S
H1256 N1253 0.984 . S
H1257 N1253 0.985 . S
H1258 N1252 0.984 . S
H1259 N1252 0.984 . S
H1260 N1248 0.984 . S
H1261 N1248 0.985 . S
C1262 C1263 1.363 1_554 S
C1262 C1268 1.379 . S
C1262 N1270 1.356 1_554 S
C1263 C1262 1.363 1_556 S
C1263 C1269 1.363 . S
C1264 C1265 1.363 . S
C1264 C1269 1.379 1_554 S
C1264 N1271 1.356 . S
C1265 C1264 1.363 . S
C1265 C1268 1.363 . S
N1266 C1268 1.356 . S
N1266 H1278 0.984 . S
N1266 H1279 0.985 . S
N1267 C1269 1.356 . S
N1267 H1272 0.984 . S
N1267 H1273 0.985 . S
C1268 C1262 1.379 . S
C1268 C1265 1.363 . S
C1268 N1266 1.356 . S
C1269 C1263 1.363 . S
C1269 C1264 1.379 1_556 S
C1269 N1267 1.356 . S
N1270 C1262 1.356 1_556 S
N1270 H1276 0.984 1_556 S
N1270 H1277 0.984 . S
N1271 C1264 1.356 . S
N1271 H1274 0.984 . S
N1271 H1275 0.985 . S
H1272 N1267 0.984 . S
H1273 N1267 0.985 . S
H1274 N1271 0.984 . S
H1275 N1271 0.985 . S
H1276 N1270 0.984 1_554 S
H1277 N1270 0.984 . S
H1278 N1266 0.984 . S
H1279 N1266 0.985 . S
C707 C593 1.770 . S
C705 C39 1.702 . S
C725 C619 1.669 . S
C723 C125 1.644 . S
C743 C633 2.224 . S
C741 C217 2.074 . S
C761 C635 2.035 . S
C759 C261 1.884 . S
C777 C359 1.512 . S
C779 C632 1.547 . S
C797 C634 1.715 . S
C795 C433 1.530 . S
C815 C592 1.592 . S
C813 C495 1.633 . S
C833 C618 1.708 . S
C831 C587 1.725 . S
C851 C620 1.720 1_655 S
C849 C557 1.721 . S
C869 C646 1.189 . S
C867 C347 1.201 . S
C887 C604 1.219 . S
C885 C421 1.204 . S
C905 C606 1.655 . S
C903 C507 1.610 . S
C923 C605 1.554 . S
C921 C137 1.555 . S
C941 C607 1.697 . S
C939 C187 1.636 . S
C959 C621 2.577 . S
C957 C291 2.514 . S
C977 C647 2.058 . S
C975 C69 2.067 . S
C995 C649 1.475 . S
C993 C581 1.489 . S
C1011 C365 1.995 . S
C1013 C675 1.962 . S
C1029 C439 2.391 . S
C1031 C688 2.378 . S
C1047 C483 1.549 . S
C1049 C691 1.590 . S
C1065 C113 1.730 . S
C1067 C689 1.757 . S
C1083 C211 1.635 . S
C1085 C690 1.712 . S
C1101 C273 1.451 . S
C1103 C648 1.561 . S
C1121 C674 1.259 . S
C1119 C51 1.245 . S
C1139 C677 1.668 . S
C1137 C63 1.603 . S
C1155 C143 1.786 . S
C1157 C702 1.780 . S
C1173 C199 1.907 . S
C1175 C660 1.914 . S
C1191 C285 1.518 . S
C1193 C662 1.667 . S
C1211 C661 1.688 . S
C1209 C335 1.660 . S
C1229 C663 2.094 . S
C1227 C409 1.927 . S
C1245 C513 1.932 . S
C1247 C676 1.949 . S
C1265 C703 1.634 . S
C1263 C569 1.635 . S
