# Generated by pormake.
# Topology llj, (12,3)-cn, num edge types: 1
# Building blocks:
#     Node 0, Type 0, BuildingBlock: QEWDON_clean_sbu_0, # of connection points: 12
#     Node 1, Type 0, BuildingBlock: QEWDON_clean_sbu_0, # of connection points: 12
#     Node 2, Type 1, BuildingBlock: INOVEN_clean_linker_0, # of connection points: 3
#     Node 3, Type 1, BuildingBlock: INOVEN_clean_linker_0, # of connection points: 3
#     Node 4, Type 1, BuildingBlock: INOVEN_clean_linker_0, # of connection points: 3
#     Node 5, Type 1, BuildingBlock: INOVEN_clean_linker_0, # of connection points: 3
#     Node 6, Type 1, BuildingBlock: INOVEN_clean_linker_0, # of connection points: 3
#     Node 7, Type 1, BuildingBlock: INOVEN_clean_linker_0, # of connection points: 3
#     Node 8, Type 1, BuildingBlock: INOVEN_clean_linker_0, # of connection points: 3
#     Node 9, Type 1, BuildingBlock: INOVEN_clean_linker_0, # of connection points: 3
#     Edge 10, Type (0, 1), BuildingBlock: EZIPEK_clean_linker_0, # of connection points: 2
#     Edge 11, Type (0, 1), BuildingBlock: EZIPEK_clean_linker_0, # of connection points: 2
#     Edge 12, Type (0, 1), BuildingBlock: EZIPEK_clean_linker_0, # of connection points: 2
#     Edge 13, Type (0, 1), BuildingBlock: EZIPEK_clean_linker_0, # of connection points: 2
#     Edge 14, Type (0, 1), BuildingBlock: EZIPEK_clean_linker_0, # of connection points: 2
#     Edge 15, Type (0, 1), BuildingBlock: EZIPEK_clean_linker_0, # of connection points: 2
#     Edge 16, Type (0, 1), BuildingBlock: EZIPEK_clean_linker_0, # of connection points: 2
#     Edge 17, Type (0, 1), BuildingBlock: EZIPEK_clean_linker_0, # of connection points: 2
#     Edge 18, Type (0, 1), BuildingBlock: EZIPEK_clean_linker_0, # of connection points: 2
#     Edge 19, Type (0, 1), BuildingBlock: EZIPEK_clean_linker_0, # of connection points: 2
#     Edge 20, Type (0, 1), BuildingBlock: EZIPEK_clean_linker_0, # of connection points: 2
#     Edge 21, Type (0, 1), BuildingBlock: EZIPEK_clean_linker_0, # of connection points: 2
#     Edge 22, Type (0, 1), BuildingBlock: EZIPEK_clean_linker_0, # of connection points: 2
#     Edge 23, Type (0, 1), BuildingBlock: EZIPEK_clean_linker_0, # of connection points: 2
#     Edge 24, Type (0, 1), BuildingBlock: EZIPEK_clean_linker_0, # of connection points: 2
#     Edge 25, Type (0, 1), BuildingBlock: EZIPEK_clean_linker_0, # of connection points: 2
#     Edge 26, Type (0, 1), BuildingBlock: EZIPEK_clean_linker_0, # of connection points: 2
#     Edge 27, Type (0, 1), BuildingBlock: EZIPEK_clean_linker_0, # of connection points: 2
#     Edge 28, Type (0, 1), BuildingBlock: EZIPEK_clean_linker_0, # of connection points: 2
#     Edge 29, Type (0, 1), BuildingBlock: EZIPEK_clean_linker_0, # of connection points: 2
#     Edge 30, Type (0, 1), BuildingBlock: EZIPEK_clean_linker_0, # of connection points: 2
#     Edge 31, Type (0, 1), BuildingBlock: EZIPEK_clean_linker_0, # of connection points: 2
#     Edge 32, Type (0, 1), BuildingBlock: EZIPEK_clean_linker_0, # of connection points: 2
#     Edge 33, Type (0, 1), BuildingBlock: EZIPEK_clean_linker_0, # of connection points: 2
# Relax obj value: 0.009
# Max RMSD: 0.087
# Mean RMSD: 0.075
data_MOF--net-llj--node1-QEWDON_clean_sbu_0--node2-INOVEN_clean_linker_0--edge1-EZIPEK_clean_linker_0
_symmetry_space_group_name_H-M    P1
_symmetry_Int_Tables_number       1
_symmetry_cell_setting            triclinic
loop_
_symmetry_equiv_pos_as_xyz
'x, y, z'
_cell_length_a     30.370137
_cell_length_b     30.390464
_cell_length_c     18.545412
_cell_angle_alpha  90.915876
_cell_angle_beta   91.320235
_cell_angle_gamma 90.216126
loop_
_atom_site_label
_atom_site_type_symbol
_atom_site_fract_x
_atom_site_fract_y
_atom_site_fract_z
_atom_type_partial_charge
Zn0 Zn 0.94449 0.10389 0.93775 0.0
Zn1 Zn 0.94307 0.0821 0.10646 0.0
O2 O 0.97477 0.06898 0.01519 0.0
H3 H 0.99226 0.04314 0.00565 0.0
C4 C 0.86669 0.02978 0.83868 0.0
O5 O 0.90677 0.03908 0.8623 0.0
Zn6 Zn 0.05716 0.90239 0.10891 0.0
Zn7 Zn 0.0424 0.92314 0.94664 0.0
O8 O 0.02079 0.94086 0.04474 0.0
H9 H 0.00911 0.96915 0.05892 0.0
Zn10 Zn 0.8538 0.97987 0.97711 0.0
O11 O 0.91765 0.97306 0.01193 0.0
Zn12 Zn 0.90506 0.93448 0.0962 0.0
H13 H 0.94242 0.97093 0.98033 0.0
Zn14 Zn 0.09382 0.03309 0.9459 0.0
O15 O 0.09218 0.98849 0.02455 0.0
H16 H 0.10648 0.96043 0.0184 0.0
Zn17 Zn 0.09624 0.02886 0.11039 0.0
C18 C 0.10463 0.97086 0.82785 0.0
O19 O 0.12056 0.94833 0.88223 0.0
O20 O 0.8953 0.14278 0.9739 0.0
O21 O 0.89665 0.13064 0.09253 0.0
O22 O 0.08646 0.8718 0.94881 0.0
O23 O 0.07917 0.84722 0.05994 0.0
O24 O 0.81756 0.92303 0.99062 0.0
O25 O 0.86411 0.88599 0.0611 0.0
C26 C 0.02863 0.08247 0.17918 0.0
O27 O 0.13959 0.08034 0.97299 0.0
O28 O 0.14283 0.07523 0.09256 0.0
O29 O -0.00124 0.92211 0.86018 0.0
C30 C 0.88107 0.15008 0.03686 0.0
O31 O 0.97918 0.1239 0.8499 0.0
C32 C 0.98007 0.89573 0.19446 0.0
O33 O 0.84073 0.00831 0.87794 0.0
C34 C 0.09406 0.84325 -0.0034 0.0
O35 O 0.092 0.00991 0.84028 0.0
C36 C 0.88441 0.01076 0.17466 0.0
O37 O 0.98979 0.09794 0.18289 0.0
O38 O 0.03863 0.05886 0.12492 0.0
C39 C 0.82913 0.88793 0.02228 0.0
O40 O 0.0208 0.88643 0.19431 0.0
O41 O 0.96294 0.9112 0.13683 0.0
C42 C 0.1205 0.95419 0.198 0.0
O43 O 0.87458 0.97018 0.17153 0.0
O44 O 0.91264 0.02506 0.13092 0.0
C45 C 0.15558 0.09237 0.0342 0.0
O46 O 0.11283 -0.00471 0.19897 0.0
O47 O 0.11458 0.9326 0.13971 0.0
C48 C 0.96493 0.89761 0.86277 0.0
O49 O 0.95756 0.87535 0.92142 0.0
C50 C 0.00871 0.09861 0.82581 0.0
O51 O 0.01614 0.06081 0.85696 0.0
Zn52 Zn 0.43822 0.62487 0.44161 0.0
Zn53 Zn 0.44372 0.59274 0.60351 0.0
O54 O 0.47324 0.58597 0.50932 0.0
H55 H 0.49175 0.56158 0.49568 0.0
C56 C 0.38714 0.52097 0.30325 0.0
O57 O 0.42131 0.53332 0.34338 0.0
Zn58 Zn 0.54315 0.40339 0.59244 0.0
Zn59 Zn 0.54036 0.38731 0.4217 0.0
O60 O 0.50983 0.41911 0.50262 0.0
H61 H 0.49277 0.44562 0.49668 0.0
Zn62 Zn 0.3808 0.45138 0.41032 0.0
O63 O 0.40439 0.48377 0.49843 0.0
Zn64 Zn 0.39033 0.4459 0.58236 0.0
H65 H 0.42904 0.50384 0.49635 0.0
Zn66 Zn 0.61966 0.55618 0.43159 0.0
O67 O 0.59276 0.51697 0.50559 0.0
H68 H 0.57176 0.49376 0.49436 0.0
Zn69 Zn 0.60008 0.54966 0.59929 0.0
C70 C 0.6123 0.51076 0.29535 0.0
O71 O 0.57045 0.51426 0.31064 0.0
O72 O 0.40277 0.67225 0.49546 0.0
O73 O 0.40245 0.64396 0.60566 0.0
O74 O 0.58579 0.34142 0.45548 0.0
O75 O 0.58641 0.35471 0.57422 0.0
O76 O 0.33812 0.40205 0.43374 0.0
O77 O 0.34359 0.39958 0.55392 0.0
C78 C 0.52828 0.59616 0.67596 0.0
O79 O 0.65761 0.60579 0.47466 0.0
O80 O 0.64436 0.60004 0.59211 0.0
O81 O 0.50445 0.37676 0.32697 0.0
C82 C 0.39097 0.67334 0.56099 0.0
O83 O 0.46516 0.6393 0.34288 0.0
C84 C 0.46062 0.39358 0.6626 0.0
O85 O 0.3651 0.48731 0.32039 0.0
C86 C 0.59985 0.3335 0.51921 0.0
O87 O 0.64121 0.5265 0.33891 0.0
C88 C 0.38485 0.52386 0.6673 0.0
O89 O 0.4886 0.60823 0.67933 0.0
O90 O 0.54037 0.57317 0.62226 0.0
C91 C 0.32683 0.38612 0.49357 0.0
O92 O 0.50061 0.38179 0.66573 0.0
O93 O 0.44785 0.41801 0.61134 0.0
C94 C 0.60425 0.4683 0.67294 0.0
O95 O 0.36899 0.48513 0.66279 0.0
O96 O 0.4131 0.53535 0.62179 0.0
C97 C 0.66368 0.61831 0.53986 0.0
O98 O 0.62045 0.50693 0.67473 0.0
O99 O 0.57559 0.45866 0.6241 0.0
C100 C 0.49484 0.33804 0.30514 0.0
O101 O 0.50774 0.30413 0.34312 0.0
C102 C 0.49753 0.61646 0.32198 0.0
O103 O 0.51215 0.58431 0.3623 0.0
H104 H 0.31618 0.30192 0.86997 0.0
H105 H 0.4322 0.35663 0.97605 0.0
H106 H 0.344 0.27485 0.09314 0.0
N107 N 0.28949 0.25632 0.98134 0.0
N108 N 0.29193 0.22147 0.01557 0.0
C109 C 0.33648 0.30701 0.91825 0.0
C110 C 0.37568 0.33149 0.91519 0.0
C111 C 0.32562 0.28574 0.98179 0.0
C112 C 0.35247 0.29118 0.04375 0.0
C113 C 0.3902 0.31764 0.04242 0.0
C114 C 0.40205 0.33749 0.97788 0.0
H115 H 0.70852 0.36692 0.12379 0.0
H116 H 0.63457 0.44179 0.96883 0.0
H117 H 0.70644 0.32738 0.89962 0.0
N118 N 0.74054 0.30908 0.03345 0.0
N119 N 0.7503 0.2788 0.99077 0.0
C120 C 0.69752 0.37206 0.06852 0.0
C121 C 0.66974 0.40731 0.05235 0.0
C122 C 0.7109 0.34305 0.01421 0.0
C123 C 0.69622 0.34947 0.94244 0.0
C124 C 0.66928 0.38563 0.92577 0.0
C125 C 0.65596 0.41425 0.98111 0.0
H126 H 0.64807 0.6872 0.13527 0.0
H127 H 0.55519 0.62328 0.98912 0.0
H128 H 0.6717 0.68317 0.90739 0.0
N129 N 0.69688 0.72145 0.03503 0.0
N130 N 0.71495 0.73981 0.9838 0.0
C131 C 0.63868 0.676 0.08126 0.0
C132 C 0.59922 0.65236 0.06957 0.0
C133 C 0.66397 0.68881 0.02304 0.0
C134 C 0.6521 0.67412 0.95299 0.0
C135 C 0.61312 0.65015 0.94091 0.0
C136 C 0.58623 0.64035 -0.00105 0.0
H137 H 0.27738 0.64972 0.10375 0.0
H138 H 0.36586 0.57329 0.97492 0.0
H139 H 0.27842 0.66549 0.87343 0.0
N140 N 0.2415 0.69431 -0.0026 0.0
N141 N 0.22376 0.71228 0.94427 0.0
C142 C 0.29064 0.64101 0.05168 0.0
C143 C 0.32426 0.6096 0.04694 0.0
C144 C 0.2743 0.66166 0.98973 0.0
C145 C 0.29101 0.65005 0.92194 0.0
C146 C 0.32301 0.61714 0.91631 0.0
C147 C 0.34046 0.59815 0.97908 0.0
H148 H 0.84819 0.8049 0.4044 0.0
H149 H 0.9206 0.90388 0.52825 0.0
H150 H 0.83436 0.81506 0.63377 0.0
N151 N 0.80486 0.77259 0.51377 0.0
N152 N 0.78563 0.7602 0.56865 0.0
C153 C 0.85568 0.82205 0.45491 0.0
C154 C 0.88613 0.8573 0.4573 0.0
C155 C 0.83519 0.8082 0.51761 0.0
C156 C 0.84731 0.82767 0.58414 0.0
C157 C 0.87905 0.8609 0.58805 0.0
C158 C 0.89633 0.87765 0.52452 0.0
H159 H 0.27194 0.8769 0.42963 0.0
H160 H 0.15628 0.94581 0.49539 0.0
H161 H 0.24252 0.88896 0.65491 0.0
N162 N 0.29355 0.84744 0.55732 0.0
N163 N 0.29476 0.8266 0.61465 0.0
C164 C 0.25233 0.89084 0.47238 0.0
C165 C 0.21441 0.9147 0.4552 0.0
C166 C 0.26207 0.88057 0.5441 0.0
C167 C 0.23554 0.89726 0.5992 0.0
C168 C 0.19747 0.92123 0.58171 0.0
C169 C 0.18694 0.9295 0.50956 0.0
H170 H 0.13404 0.20748 0.62576 0.0
H171 H 0.09079 0.08967 0.51636 0.0
H172 H 0.13818 0.20054 0.39607 0.0
N173 N 0.17306 0.24153 0.5151 0.0
N174 N 0.19609 0.25175 0.46323 0.0
C175 C 0.12857 0.18887 0.57595 0.0
C176 C 0.10698 0.14837 0.57665 0.0
C177 C 0.14364 0.20531 0.51147 0.0
C178 C 0.13153 0.18405 0.44591 0.0
C179 C 0.11129 0.14196 0.44534 0.0
C180 C 0.10343 0.12289 0.51295 0.0
H181 H 0.77011 0.14359 0.37959 0.0
H182 H 0.84782 0.0456 0.48209 0.0
H183 H 0.76931 0.13433 0.60917 0.0
N184 N 0.73614 0.17766 0.49594 0.0
N185 N 0.72128 0.19295 0.55309 0.0
C186 C 0.78063 0.12713 0.42846 0.0
C187 C 0.80936 0.09164 0.42477 0.0
C188 C 0.76604 0.14209 0.49487 0.0
C189 C 0.7794 0.12051 0.55814 0.0
C190 C 0.8052 0.08176 0.55586 0.0
C191 C 0.82285 0.0702 0.4881 0.0
C192 C 0.23066 0.12163 0.0718 0.0
C193 C 0.18935 0.12757 0.03608 0.0
C194 C 0.21829 0.19168 0.97517 0.0
C195 C 0.25739 0.18976 0.01873 0.0
N196 N 0.29816 0.15626 0.11599 0.0
N197 N 0.14028 0.17654 0.97219 0.0
C198 C 0.26252 0.15582 0.06968 0.0
C199 C 0.18198 0.16538 -0.00613 0.0
N200 N 0.24073 0.08262 0.10376 0.0
N201 N 0.21639 0.21504 0.91288 0.0
H202 H 0.11253 0.15912 0.98801 0.0
H203 H 0.13326 0.20579 0.94568 0.0
H204 H 0.24397 0.22855 0.88927 0.0
H205 H 0.18879 0.2145 0.87836 0.0
H206 H 0.27202 0.07534 0.12432 0.0
H207 H 0.2193 0.05582 0.10331 0.0
H208 H 0.30132 0.135 0.15933 0.0
H209 H 0.32292 0.18012 0.11427 0.0
C210 C 0.80147 0.16967 0.02882 0.0
C211 C 0.84568 0.18281 0.04342 0.0
C212 C 0.82635 0.2599 0.02525 0.0
C213 C 0.78206 0.24694 0.01126 0.0
N214 N 0.72528 0.19197 0.00947 0.0
N215 N 0.89881 0.23976 0.07146 0.0
C216 C 0.76898 0.20243 0.01616 0.0
C217 C 0.85754 0.22787 0.04731 0.0
N218 N 0.79114 0.12586 0.02462 0.0
N219 N 0.83904 0.3022 0.01251 0.0
H220 H 0.92227 0.21671 0.08768 0.0
H221 H 0.90845 0.27222 0.08165 0.0
H222 H 0.81725 0.32599 -0.00664 0.0
H223 H 0.87167 0.31283 0.01462 0.0
H224 H 0.76077 0.11363 0.00634 0.0
H225 H 0.81388 0.10134 0.03738 0.0
H226 H 0.71251 0.16079 0.01864 0.0
H227 H 0.70124 0.21564 -0.00097 0.0
C228 C 0.76033 0.84791 0.05137 0.0
C229 C 0.80075 0.84872 0.01486 0.0
C230 C 0.78549 0.77542 0.96317 0.0
C231 C 0.74384 0.77613 -0.00447 0.0
N232 N 0.68676 0.81748 0.05396 0.0
N233 N 0.85049 0.81636 0.92963 0.0
C234 C 0.72989 0.81348 0.03557 0.0
C235 C 0.81314 0.81323 0.96906 0.0
N236 N 0.75136 0.87963 0.10201 0.0
N237 N 0.79866 0.73804 0.92808 0.0
H238 H 0.87183 0.84328 0.93371 0.0
H239 H 0.859 0.79378 0.88958 0.0
H240 H 0.77838 0.71033 0.92221 0.0
H241 H 0.83029 0.73332 0.90906 0.0
H242 H 0.72447 0.878 0.13576 0.0
H243 H 0.77289 0.90559 0.11482 0.0
H244 H 0.67382 0.84594 0.07707 0.0
H245 H 0.66272 0.79435 0.03877 0.0
C246 C 0.11667 0.77227 0.93809 0.0
C247 C 0.12755 0.80951 0.98209 0.0
C248 C 0.20381 0.78424 -0.00414 0.0
C249 C 0.19249 0.74635 0.95383 0.0
N250 N 0.1426 0.70709 0.87409 0.0
N251 N 0.18201 0.85571 0.04299 0.0
C252 C 0.1502 0.74143 0.92125 0.0
C253 C 0.1713 0.81675 0.00865 0.0
N254 N 0.0741 0.76605 0.91429 0.0
N255 N 0.2461 0.78939 0.02163 0.0
H256 H 0.15924 0.88061 0.05224 0.0
H257 H 0.21376 0.86501 0.05901 0.0
H258 H 0.27186 0.76941 0.00476 0.0
H259 H 0.25602 0.81298 0.0599 0.0
H260 H 0.06281 0.73793 0.88692 0.0
H261 H 0.04903 0.78841 0.92521 0.0
H262 H 0.11372 0.70278 0.84353 0.0
H263 H 0.16679 0.68391 0.86222 0.0
C264 C 0.68081 0.69654 0.57409 0.0
C265 C 0.69576 0.65394 0.55469 0.0
C266 C 0.77144 0.68139 0.54693 0.0
C267 C 0.75625 0.72388 0.56625 0.0
N268 N 0.70029 0.77072 0.61397 0.0
N269 N 0.75524 0.60322 0.53468 0.0
C270 C 0.71207 0.73091 0.58531 0.0
C271 C 0.74117 0.64559 0.54442 0.0
N272 N 0.63667 0.70463 0.57774 0.0
N273 N 0.81492 0.67547 0.5322 0.0
H274 H 0.73387 0.57624 0.53367 0.0
H275 H 0.78816 0.59409 0.53263 0.0
H276 H 0.83857 0.70003 0.54117 0.0
H277 H 0.82762 0.64681 0.50957 0.0
H278 H 0.62344 0.73595 0.58424 0.0
H279 H 0.61285 0.68022 0.56886 0.0
H280 H 0.66959 0.77692 0.63576 0.0
H281 H 0.72266 0.7967 0.62093 0.0
C282 C 0.39126 0.75395 0.58671 0.0
C283 C 0.36879 0.71291 0.58868 0.0
C284 C 0.3043 0.74923 0.63848 0.0
C285 C 0.32326 0.7901 0.62172 0.0
N286 N 0.38608 0.83374 0.59252 0.0
N287 N 0.30531 0.66992 0.62074 0.0
C288 C 0.36747 0.79316 0.60023 0.0
C289 C 0.32599 0.70988 0.6175 0.0
N290 N 0.43548 0.75506 0.57418 0.0
N291 N 0.26478 0.74866 0.67212 0.0
H292 H 0.32011 0.64049 0.60506 0.0
H293 H 0.2727 0.66584 0.63534 0.0
H294 H 0.24861 0.77767 0.68653 0.0
H295 H 0.2499 0.72027 0.69085 0.0
H296 H 0.45459 0.78352 0.57715 0.0
H297 H 0.45415 0.72669 0.56644 0.0
H298 H 0.41632 0.83915 0.5689 0.0
H299 H 0.37035 0.86246 0.60948 0.0
C300 C 0.30242 0.3083 0.51244 0.0
C301 C 0.29217 0.3519 0.49172 0.0
C302 C 0.21908 0.3279 0.44759 0.0
C303 C 0.22837 0.28524 0.47224 0.0
N304 N 0.27573 0.23433 0.53393 0.0
N305 N 0.23872 0.40529 0.45139 0.0
C306 C 0.26911 0.27538 0.50683 0.0
C307 C 0.24987 0.36232 0.46245 0.0
N308 N 0.34451 0.29794 0.53358 0.0
N309 N 0.18091 0.33506 0.40928 0.0
H310 H 0.26012 0.43146 0.46341 0.0
H311 H 0.20717 0.41541 0.43635 0.0
H312 H 0.1576 0.31022 0.39938 0.0
H313 H 0.17375 0.36435 0.38321 0.0
H314 H 0.35529 0.26595 0.54225 0.0
H315 H 0.36986 0.32112 0.53762 0.0
H316 H 0.30254 0.2261 0.56691 0.0
H317 H 0.25283 0.20887 0.52662 0.0
C318 C 0.673 0.30514 0.56217 0.0
C319 C 0.63066 0.2968 0.53062 0.0
C320 C 0.64756 0.2184 0.51839 0.0
C321 C 0.68953 0.22687 0.55048 0.0
N322 N 0.7396 0.27448 0.61613 0.0
N323 N 0.57381 0.24506 0.49274 0.0
C324 C 0.70123 0.26913 0.57705 0.0
C325 C 0.61683 0.25326 0.51233 0.0
N326 N 0.68693 0.3475 0.57446 0.0
N327 N 0.63727 0.17681 0.49435 0.0
H328 H 0.54999 0.26962 0.48939 0.0
H329 H 0.56059 0.21363 0.48542 0.0
H330 H 0.6575 0.14984 0.50457 0.0
H331 H 0.60966 0.16915 0.46222 0.0
H332 H 0.71889 0.35591 0.59095 0.0
H333 H 0.66746 0.37477 0.56269 0.0
H334 H 0.74852 0.30357 0.64313 0.0
H335 H 0.761 0.24834 0.6261 0.0
C336 C 0.04925 0.06786 0.30631 0.0
C337 C 0.05951 0.08847 0.24165 0.0
C338 C 0.11757 0.12796 0.30881 0.0
C339 C 0.0961 0.11962 0.37516 0.0
N340 N 0.02921 0.08821 0.42538 0.0
N341 N 0.10399 0.1422 0.18216 0.0
C342 C 0.0589 0.09051 0.37159 0.0
C343 C 0.0941 0.11969 0.24264 0.0
N344 N 0.02933 0.02771 0.30557 0.0
N345 N 0.16059 0.14082 0.30813 0.0
H346 H 0.08681 0.13716 0.1333 0.0
H347 H 0.12735 0.16748 0.18269 0.0
H348 H 0.18041 0.14159 0.35486 0.0
H349 H 0.17744 0.14475 0.26023 0.0
H350 H 0.02282 0.01114 0.35305 0.0
H351 H 0.02347 0.01014 0.2574 0.0
H352 H 0.00243 0.06662 0.42319 0.0
H353 H 0.02702 0.11234 0.46537 0.0
C354 C 0.89118 0.06119 0.28316 0.0
C355 C 0.86428 0.03897 0.23084 0.0
C356 C 0.79953 0.05363 0.30365 0.0
C357 C 0.82667 0.07734 0.35419 0.0
N358 N 0.89526 0.11484 0.38102 0.0
N359 N 0.79152 0.02398 0.18177 0.0
C360 C 0.87146 0.08511 0.33986 0.0
C361 C 0.8179 0.03847 0.238 0.0
N362 N 0.93557 0.05606 0.2831 0.0
N363 N 0.75696 0.0438 0.3197 0.0
H364 H 0.80415 0.01363 0.13247 0.0
H365 H 0.75732 0.02643 0.18144 0.0
H366 H 0.74233 0.05429 0.36727 0.0
H367 H 0.73722 0.02248 0.2884 0.0
H368 H 0.9561 0.06891 0.32374 0.0
H369 H 0.95115 0.03546 0.24646 0.0
H370 H 0.92695 0.12495 0.36835 0.0
H371 H 0.88168 0.13272 0.42351 0.0
C372 C 0.91038 0.87485 0.25915 0.0
C373 C 0.95483 0.88922 0.26172 0.0
C374 C 0.95623 0.87648 0.39151 0.0
C375 C 0.90971 0.8703 0.39051 0.0
N376 N 0.84162 0.87825 0.32107 0.0
N377 N 0.01553 0.91621 0.33803 0.0
C378 C 0.88635 0.87438 0.32367 0.0
C379 C 0.97635 0.89426 0.33029 0.0
N380 N 0.89217 0.85741 0.19734 0.0
N381 N 0.982 0.86259 0.44786 0.0
H382 H 0.03019 0.93273 0.29598 0.0
H383 H 0.03039 0.9226 0.38842 0.0
H384 H 0.96973 0.84436 0.48994 0.0
H385 H 0.01633 0.86389 0.44731 0.0
H386 H 0.86047 0.844 0.19513 0.0
H387 H 0.91106 0.8505 0.15237 0.0
H388 H 0.82422 0.88369 0.27285 0.0
H389 H 0.82297 0.88121 0.36743 0.0
C390 C 0.14367 0.89684 0.28781 0.0
C391 C 0.15193 0.93717 0.25287 0.0
C392 C 0.2114 0.9551 0.3396 0.0
C393 C 0.1988 0.91828 0.38003 0.0
N394 N 0.15548 0.85248 0.39409 0.0
N395 N 0.20535 0.99305 0.22607 0.0
C396 C 0.16627 0.88811 0.35372 0.0
C397 C 0.18946 0.96291 0.27293 0.0
N398 N 0.11553 0.8664 0.25706 0.0
N399 N 0.2426 0.98375 0.36686 0.0
H400 H 0.19188 -0.00329 0.17427 0.0
H401 H 0.23459 0.01053 0.23474 0.0
H402 H 0.26051 0.97798 0.41445 0.0
H403 H 0.24914 0.01424 0.34456 0.0
H404 H 0.11066 0.83497 0.27681 0.0
H405 H 0.10036 0.87041 0.20699 0.0
H406 H 0.12797 0.83264 0.38404 0.0
H407 H 0.1732 0.84361 0.44045 0.0
C408 C 0.12147 0.90972 0.73956 0.0
C409 C 0.11134 0.95452 0.75274 0.0
C410 C 0.1504 0.97625 0.64663 0.0
C411 C 0.16522 0.93231 0.63757 0.0
N412 N 0.15012 0.85516 0.65628 0.0
N413 N 0.09041 0.0201 0.69024 0.0
C414 C 0.14621 0.89812 0.67822 0.0
C415 C 0.1176 0.98491 0.69739 0.0
N416 N 0.10631 0.87858 0.78481 0.0
N417 N 0.16861 0.01002 0.60966 0.0
H418 H 0.06289 0.02403 0.7223 0.0
H419 H 0.09118 0.04035 0.64542 0.0
H420 H 0.19482 0.00582 0.57494 0.0
H421 H 0.16008 0.04279 0.61899 0.0
H422 H 0.11698 0.84606 0.78516 0.0
H423 H 0.08195 0.88623 0.8214 0.0
H424 H 0.13444 0.82905 0.68087 0.0
H425 H 0.16568 0.84584 0.6089 0.0
C426 C 0.01186 0.11989 0.69645 0.0
C427 C 0.03418 0.11159 0.76264 0.0
C428 C 0.10516 0.1244 0.70598 0.0
C429 C 0.08246 0.13588 0.64146 0.0
N430 N 0.01415 0.15867 0.5842 0.0
N431 N 0.101 0.11577 0.83509 0.0
C432 C 0.03574 0.13765 0.63908 0.0
C433 C 0.08061 0.11661 0.76884 0.0
N434 N 0.96816 0.10974 0.68744 0.0
N435 N 0.14988 0.11964 0.70666 0.0
H436 H 0.08364 0.11163 0.88236 0.0
H437 H 0.13417 0.12348 0.84365 0.0
H438 H 0.16883 0.12515 0.66144 0.0
H439 H 0.16763 0.10656 0.74995 0.0
H440 H 0.95168 0.11097 0.63758 0.0
H441 H 0.94945 0.0961 0.72797 0.0
H442 H 0.98032 0.16433 0.58367 0.0
H443 H 0.03056 0.17468 0.54328 0.0
C444 C 0.87299 0.02528 0.70321 0.0
C445 C 0.85123 0.0418 0.76512 0.0
C446 C 0.78976 0.06511 0.68734 0.0
C447 C 0.81539 0.05724 0.62556 0.0
N448 N 0.85966 -0.00276 0.58281 0.0
N449 N 0.78998 0.08173 0.81492 0.0
C450 C 0.85187 0.02858 0.63427 0.0
C451 C 0.80969 0.06256 0.75689 0.0
N452 N 0.91278 0.00474 0.70969 0.0
N453 N 0.74526 0.07002 0.67963 0.0
H454 H 0.80441 0.08254 0.86654 0.0
H455 H 0.76161 0.10077 0.81002 0.0
H456 H 0.72925 0.06663 0.62937 0.0
H457 H 0.72423 0.07174 0.72322 0.0
H458 H 0.93161 -0.00338 0.66511 0.0
H459 H 0.92823 -0.00194 0.75895 0.0
H460 H 0.88424 0.97359 0.58776 0.0
H461 H 0.83592 0.98951 0.54297 0.0
C462 C 0.89788 0.90135 0.78164 0.0
C463 C 0.94115 0.88582 0.79495 0.0
C464 C 0.9407 0.84908 0.67667 0.0
C465 C 0.90055 0.87062 0.65897 0.0
N466 N 0.84029 0.91728 0.69303 0.0
N467 N 0.00369 0.84306 0.75802 0.0
C468 C 0.87875 0.89658 0.71123 0.0
C469 C 0.96265 0.85935 0.74304 0.0
N470 N 0.87471 0.91945 0.83676 0.0
N471 N 0.95617 0.81643 0.63242 0.0
H472 H 0.01814 0.84434 0.80955 0.0
H473 H 0.02394 0.82945 0.71903 0.0
H474 H 0.93986 0.80606 0.58506 0.0
H475 H 0.98277 0.79641 0.64575 0.0
H476 H 0.84106 0.92568 0.83307 0.0
H477 H 0.8883 0.92443 0.8884 0.0
H478 H 0.82488 0.94002 0.72649 0.0
H479 H 0.82528 0.91404 0.64204 0.0
C480 C 0.57079 0.57741 0.78808 0.0
C481 C 0.55863 0.60883 0.73581 0.0
C482 C 0.58422 0.66841 0.81677 0.0
C483 C 0.59889 0.63654 0.86701 0.0
N484 N 0.61652 0.56094 0.89249 0.0
N485 N 0.56024 0.6834 0.69399 0.0
C486 C 0.59574 0.59107 0.8498 0.0
C487 C 0.5679 0.6541 0.74795 0.0
N488 N 0.55541 0.53527 0.78207 0.0
N489 N 0.58303 0.71196 0.83637 0.0
H490 H 0.54739 0.67387 0.64342 0.0
H491 H 0.57017 0.71622 0.69709 0.0
H492 H 0.5937 0.72385 0.88684 0.0
H493 H 0.56807 0.73598 0.8049 0.0
H494 H 0.55833 0.51286 0.82383 0.0
H495 H 0.53655 0.524 0.73785 0.0
H496 H 0.61846 0.52763 0.87857 0.0
H497 H 0.63547 0.56994 0.93807 0.0
C498 C 0.32368 0.56183 0.73025 0.0
C499 C 0.36947 0.55457 0.72386 0.0
C500 C 0.3834 0.60104 0.83065 0.0
C501 C 0.3378 0.60071 0.84505 0.0
N502 N 0.26459 0.57374 0.81293 0.0
N503 N 0.44263 0.56065 0.77719 0.0
C504 C 0.30769 0.57969 0.79566 0.0
C505 C 0.39945 0.57279 0.77601 0.0
N506 N 0.2955 0.55176 0.67387 0.0
N507 N 0.41138 0.62824 0.86925 0.0
H508 H 0.45589 0.53965 0.73859 0.0
H509 H 0.46442 0.56898 0.81955 0.0
H510 H 0.40037 0.65019 0.90871 0.0
H511 H 0.44444 0.63216 0.85665 0.0
H512 H 0.26226 0.56021 0.67352 0.0
H513 H 0.30635 0.53935 0.6246 0.0
H514 H 0.24276 0.55458 0.78155 0.0
H515 H 0.25156 0.584 0.86181 0.0
C516 C 0.42078 0.33412 0.72506 0.0
C517 C 0.43091 0.37943 0.71985 0.0
C518 C 0.3952 0.39393 0.83485 0.0
C519 C 0.39122 0.348 0.84519 0.0
N520 N 0.4063 0.27366 0.80441 0.0
N521 N 0.43422 0.45173 0.77492 0.0
C522 C 0.40515 0.31778 0.79108 0.0
C523 C 0.41942 0.40932 0.77571 0.0
N524 N 0.42643 0.30671 0.6669 0.0
N525 N 0.37559 0.42282 0.88121 0.0
H526 H 0.45213 0.46412 0.73245 0.0
H527 H 0.4317 0.47334 0.81878 0.0
H528 H 0.35739 0.41255 0.92498 0.0
H529 H 0.3739 0.45654 0.87225 0.0
H530 H 0.41545 0.27419 0.66489 0.0
H531 H 0.43833 0.31778 0.61802 0.0
H532 H 0.42067 0.25074 0.76999 0.0
H533 H 0.39661 0.26015 0.85288 0.0
C534 C 0.66598 0.42901 0.73449 0.0
C535 C 0.61999 0.43606 0.72673 0.0
C536 C 0.60815 0.39312 0.83512 0.0
C537 C 0.65396 0.39463 0.85087 0.0
N538 N 0.72724 0.41605 0.8171 0.0
N539 N 0.54711 0.42854 0.77468 0.0
C540 C 0.68331 0.41234 0.80035 0.0
C541 C 0.5908 0.4183 0.77747 0.0
N542 N 0.693 0.43857 0.67892 0.0
N543 N 0.58124 0.36828 0.87638 0.0
H544 H 0.53307 0.4476 0.73419 0.0
H545 H 0.52546 0.42098 0.81551 0.0
H546 H 0.59334 0.34946 0.91903 0.0
H547 H 0.54802 0.3629 0.86372 0.0
H548 H 0.7263 0.4305 0.67882 0.0
H549 H 0.68102 0.45041 0.62974 0.0
H550 H 0.74921 0.43355 0.78603 0.0
H551 H 0.74139 0.40429 0.8647 0.0
C552 C 0.6541 0.50486 0.18049 0.0
C553 C 0.6259 0.48542 0.23121 0.0
C554 C 0.62092 0.41848 0.15696 0.0
C555 C 0.65323 0.43558 0.11127 0.0
N556 N 0.70451 0.49312 0.08248 0.0
N557 N 0.59105 0.42002 0.27614 0.0
C558 C 0.67092 0.47836 0.12367 0.0
C559 C 0.61137 0.44131 0.22164 0.0
N560 N 0.6634 0.5489 0.185 0.0
N561 N 0.59854 0.38083 0.13789 0.0
H562 H 0.58472 0.43479 0.32594 0.0
H563 H 0.58508 0.38622 0.27467 0.0
H564 H 0.60455 0.36286 0.09074 0.0
H565 H 0.57096 0.3703 0.16522 0.0
H566 H 0.6799 0.56581 0.1453 0.0
H567 H 0.65073 0.56958 0.2248 0.0
H568 H 0.72196 0.52205 0.09389 0.0
H569 H 0.71717 0.47479 0.03973 0.0
C570 C 0.52671 0.59244 0.20242 0.0
C571 C 0.51975 0.62656 0.25396 0.0
C572 C 0.55536 0.67878 0.17493 0.0
C573 C 0.56987 0.6433 0.13087 0.0
N574 N 0.57327 0.56471 0.1082 0.0
N575 N 0.53423 0.70145 0.29443 0.0
C576 C 0.55644 0.59959 0.1458 0.0
C577 C 0.53569 0.66966 0.24159 0.0
N578 N 0.50397 0.55371 0.20625 0.0
N579 N 0.55889 0.72115 0.15209 0.0
H580 H 0.5217 0.69603 0.34538 0.0
H581 H 0.54962 0.73198 0.29005 0.0
H582 H 0.57096 0.72914 0.10172 0.0
H583 H 0.54513 0.74776 0.17951 0.0
H584 H 0.50445 0.52941 0.16602 0.0
H585 H 0.48108 0.54781 0.24598 0.0
H586 H 0.56702 0.53206 0.12098 0.0
H587 H 0.59705 0.56805 0.06902 0.0
C588 C 0.36521 0.52032 0.17267 0.0
C589 C 0.37473 0.54477 0.23681 0.0
C590 C 0.35921 0.61263 0.17199 0.0
C591 C 0.34179 0.58747 0.11261 0.0
N592 N 0.31891 0.51589 0.06565 0.0
N593 N 0.3719 0.61459 0.30104 0.0
C594 C 0.34214 0.54081 0.11543 0.0
C595 C 0.36949 0.59115 0.23763 0.0
N596 N 0.37956 0.47802 0.16508 0.0
N597 N 0.36737 0.65658 0.16534 0.0
H598 H 0.37714 0.59997 0.35093 0.0
H599 H 0.36424 0.64795 0.30458 0.0
H600 H 0.36228 0.6732 0.11711 0.0
H601 H 0.38373 0.67523 0.20539 0.0
H602 H 0.37683 0.46058 0.11628 0.0
H603 H 0.3988 0.46256 0.20445 0.0
H604 H 0.31569 0.48183 0.06962 0.0
H605 H 0.29884 0.52949 0.02551 0.0
C606 C 0.42484 0.34978 0.23447 0.0
C607 C 0.46778 0.33154 0.2385 0.0
C608 C 0.45853 0.30123 0.11575 0.0
C609 C 0.41763 0.3234 0.10911 0.0
N610 N 0.36304 0.37205 0.15837 0.0
N611 N 0.52794 0.29397 0.1814 0.0
C612 C 0.40111 0.34865 0.16751 0.0
C613 C 0.48527 0.30819 0.17881 0.0
N614 N 0.40616 0.36661 0.2954 0.0
N615 N 0.47098 0.27218 0.06299 0.0
H616 H 0.54866 0.29825 0.22661 0.0
H617 H 0.54418 0.2814 0.13678 0.0
H618 H 0.45234 0.2662 0.01589 0.0
H619 H 0.49788 0.25125 0.06831 0.0
H620 H 0.37345 0.37642 0.29796 0.0
H621 H 0.42217 0.36718 0.34576 0.0
H622 H 0.35048 0.3934 0.19708 0.0
H623 H 0.3453 0.3728 0.10957 0.0
loop_
_geom_bond_atom_site_label_1
_geom_bond_atom_site_label_2
_geom_bond_distance
_geom_bond_site_symmetry_2
_ccdc_geom_bond_type
Zn0 O2 1.933 1_556 S
Zn0 O20 1.985 . S
Zn0 O31 1.955 . S
Zn1 O2 1.911 . S
Zn1 O21 1.970 . S
Zn1 O37 1.945 . S
Zn1 O44 1.981 . S
O2 Zn0 1.933 1_554 S
O2 Zn1 1.911 . S
O2 H3 0.841 1_655 S
H3 O2 0.841 1_455 S
C4 O5 1.246 . S
C4 O33 1.276 1_545 S
O5 C4 1.246 . S
Zn6 O8 1.911 . S
Zn6 O23 1.970 . S
Zn6 O40 1.945 . S
Zn6 O47 1.981 . S
Zn7 O8 1.933 1_556 S
Zn7 O22 1.985 . S
Zn7 O29 1.955 . S
O8 Zn6 1.911 . S
O8 Zn7 1.933 1_554 S
O8 H9 0.841 1_455 S
H9 O8 0.841 1_655 S
Zn10 O11 1.933 1_556 S
Zn10 O24 1.985 . S
Zn10 O33 1.955 . S
O11 Zn10 1.933 1_554 S
O11 Zn12 1.911 . S
O11 H13 0.841 1_565 S
Zn12 O11 1.911 . S
Zn12 O25 1.970 . S
Zn12 O41 1.981 . S
Zn12 O43 1.945 . S
H13 O11 0.841 1_545 S
Zn14 O15 1.933 1_556 S
Zn14 O27 1.985 . S
Zn14 O35 1.955 . S
O15 Zn14 1.933 1_554 S
O15 H16 0.841 1_545 S
O15 Zn17 1.911 . S
H16 O15 0.841 1_565 S
Zn17 O15 1.911 . S
Zn17 O28 1.970 . S
Zn17 O38 1.981 . S
Zn17 O46 1.945 . S
C18 O19 1.246 . S
C18 O35 1.276 1_565 S
O19 C18 1.246 . S
O20 Zn0 1.985 . S
O20 C30 1.245 1_556 S
O21 Zn1 1.970 . S
O21 C30 1.263 . S
O22 Zn7 1.985 . S
O22 C34 1.245 1_556 S
O23 Zn6 1.970 . S
O23 C34 1.263 . S
O24 Zn10 1.985 . S
O24 C39 1.245 1_556 S
O25 Zn12 1.970 . S
O25 C39 1.263 . S
C26 O37 1.262 1_455 S
C26 O38 1.245 . S
O27 Zn14 1.985 . S
O27 C45 1.245 1_556 S
O28 Zn17 1.970 . S
O28 C45 1.263 . S
O29 Zn7 1.955 . S
O29 C48 1.276 1_455 S
C30 O20 1.245 1_554 S
C30 O21 1.263 . S
O31 Zn0 1.955 . S
O31 C50 1.276 1_655 S
C32 O40 1.262 1_655 S
C32 O41 1.245 . S
O33 C4 1.276 1_565 S
O33 Zn10 1.955 . S
C34 O22 1.245 1_554 S
C34 O23 1.263 . S
O35 Zn14 1.955 . S
O35 C18 1.276 1_545 S
C36 O43 1.262 1_545 S
C36 O44 1.245 . S
O37 Zn1 1.945 . S
O37 C26 1.262 1_655 S
O38 Zn17 1.981 . S
O38 C26 1.245 . S
C39 O24 1.245 1_554 S
C39 O25 1.263 . S
O40 Zn6 1.945 . S
O40 C32 1.262 1_455 S
O41 Zn12 1.981 . S
O41 C32 1.245 . S
C42 O46 1.262 1_565 S
C42 O47 1.245 . S
O43 Zn12 1.945 . S
O43 C36 1.262 1_565 S
O44 Zn1 1.981 . S
O44 C36 1.245 . S
C45 O27 1.245 1_554 S
C45 O28 1.263 . S
O46 Zn17 1.945 . S
O46 C42 1.262 1_545 S
O47 Zn6 1.981 . S
O47 C42 1.245 . S
C48 O29 1.276 1_655 S
C48 O49 1.246 . S
O49 C48 1.246 . S
C50 O31 1.276 1_455 S
C50 O51 1.246 . S
O51 C50 1.246 . S
Zn52 O54 1.933 . S
Zn52 O72 1.985 . S
Zn52 O83 1.955 . S
Zn53 O54 1.911 . S
Zn53 O73 1.970 . S
Zn53 O89 1.945 . S
Zn53 O96 1.981 . S
O54 Zn52 1.933 . S
O54 Zn53 1.911 . S
O54 H55 0.841 . S
H55 O54 0.841 . S
C56 O57 1.246 . S
C56 O85 1.276 . S
O57 C56 1.246 . S
Zn58 O60 1.911 . S
Zn58 O75 1.970 . S
Zn58 O92 1.945 . S
Zn58 O99 1.981 . S
Zn59 O60 1.933 . S
Zn59 O74 1.985 . S
Zn59 O81 1.955 . S
O60 Zn58 1.911 . S
O60 Zn59 1.933 . S
O60 H61 0.841 . S
H61 O60 0.841 . S
Zn62 O63 1.933 . S
Zn62 O76 1.985 . S
Zn62 O85 1.955 . S
O63 Zn62 1.933 . S
O63 Zn64 1.911 . S
O63 H65 0.841 . S
Zn64 O63 1.911 . S
Zn64 O77 1.970 . S
Zn64 O93 1.981 . S
Zn64 O95 1.945 . S
H65 O63 0.841 . S
Zn66 O67 1.933 . S
Zn66 O79 1.985 . S
Zn66 O87 1.955 . S
O67 Zn66 1.933 . S
O67 H68 0.841 . S
O67 Zn69 1.911 . S
H68 O67 0.841 . S
Zn69 O67 1.911 . S
Zn69 O80 1.970 . S
Zn69 O90 1.981 . S
Zn69 O98 1.945 . S
C70 O71 1.246 . S
C70 O87 1.276 . S
O71 C70 1.246 . S
O72 Zn52 1.985 . S
O72 C82 1.245 . S
O73 Zn53 1.970 . S
O73 C82 1.263 . S
O74 Zn59 1.985 . S
O74 C86 1.245 . S
O75 Zn58 1.970 . S
O75 C86 1.263 . S
O76 Zn62 1.985 . S
O76 C91 1.245 . S
O77 Zn64 1.970 . S
O77 C91 1.263 . S
C78 O89 1.262 . S
C78 O90 1.245 . S
O79 Zn66 1.985 . S
O79 C97 1.245 . S
O80 Zn69 1.970 . S
O80 C97 1.263 . S
O81 Zn59 1.955 . S
O81 C100 1.276 . S
C82 O72 1.245 . S
C82 O73 1.263 . S
O83 Zn52 1.955 . S
O83 C102 1.276 . S
C84 O92 1.262 . S
C84 O93 1.245 . S
O85 C56 1.276 . S
O85 Zn62 1.955 . S
C86 O74 1.245 . S
C86 O75 1.263 . S
O87 Zn66 1.955 . S
O87 C70 1.276 . S
C88 O95 1.262 . S
C88 O96 1.245 . S
O89 Zn53 1.945 . S
O89 C78 1.262 . S
O90 Zn69 1.981 . S
O90 C78 1.245 . S
C91 O76 1.245 . S
C91 O77 1.263 . S
O92 Zn58 1.945 . S
O92 C84 1.262 . S
O93 Zn64 1.981 . S
O93 C84 1.245 . S
C94 O98 1.262 . S
C94 O99 1.245 . S
O95 Zn64 1.945 . S
O95 C88 1.262 . S
O96 Zn53 1.981 . S
O96 C88 1.245 . S
C97 O79 1.245 . S
C97 O80 1.263 . S
O98 Zn69 1.945 . S
O98 C94 1.262 . S
O99 Zn58 1.981 . S
O99 C94 1.245 . S
C100 O81 1.276 . S
C100 O101 1.246 . S
O101 C100 1.246 . S
C102 O83 1.276 . S
C102 O103 1.246 . S
O103 C102 1.246 . S
H104 C109 0.929 . S
H105 C114 0.931 . S
H106 C112 0.930 . S
N107 N108 1.234 1_556 S
N107 C111 1.453 . S
N108 N107 1.234 1_554 S
C109 H104 0.929 . S
C109 C110 1.373 . S
C109 C111 1.368 . S
C110 C109 1.373 . S
C110 C114 1.397 1_556 S
C111 N107 1.453 . S
C111 C109 1.368 . S
C111 C112 1.373 1_556 S
C112 H106 0.930 . S
C112 C111 1.373 1_554 S
C112 C113 1.371 . S
C113 C112 1.371 . S
C113 C114 1.383 . S
C114 H105 0.931 . S
C114 C110 1.397 1_554 S
C114 C113 1.383 . S
H115 C120 0.929 . S
H116 C125 0.931 . S
H117 C123 0.930 . S
N118 N119 1.234 1_554 S
N118 C122 1.453 . S
N119 N118 1.234 1_556 S
C120 H115 0.929 . S
C120 C121 1.373 . S
C120 C122 1.368 . S
C121 C120 1.373 . S
C121 C125 1.397 . S
C122 N118 1.453 . S
C122 C120 1.368 . S
C122 C123 1.373 1_554 S
C123 H117 0.930 . S
C123 C122 1.373 1_556 S
C123 C124 1.371 . S
C124 C123 1.371 . S
C124 C125 1.383 1_556 S
C125 H116 0.931 . S
C125 C121 1.397 . S
C125 C124 1.383 1_554 S
H126 C131 0.929 . S
H127 C136 0.931 . S
H128 C134 0.930 . S
N129 N130 1.230 1_554 S
N129 C133 1.453 . S
N130 N129 1.230 1_556 S
C131 H126 0.929 . S
C131 C132 1.373 . S
C131 C133 1.368 . S
C132 C131 1.373 . S
C132 C136 1.397 . S
C133 N129 1.453 . S
C133 C131 1.368 . S
C133 C134 1.373 1_554 S
C134 H128 0.930 . S
C134 C133 1.373 1_556 S
C134 C135 1.371 . S
C135 C134 1.371 . S
C135 C136 1.383 1_556 S
C136 H127 0.931 . S
C136 C132 1.397 . S
C136 C135 1.383 1_554 S
H137 C142 0.929 . S
H138 C147 0.931 . S
H139 C145 0.930 . S
N140 N141 1.234 1_554 S
N140 C144 1.453 . S
N141 N140 1.234 1_556 S
C142 H137 0.929 . S
C142 C143 1.373 . S
C142 C144 1.368 . S
C143 C142 1.373 . S
C143 C147 1.397 . S
C144 N140 1.453 . S
C144 C142 1.368 . S
C144 C145 1.373 1_554 S
C145 H139 0.930 . S
C145 C144 1.373 1_556 S
C145 C146 1.371 . S
C146 C145 1.371 . S
C146 C147 1.383 1_556 S
C147 H138 0.931 . S
C147 C143 1.397 . S
C147 C146 1.383 1_554 S
H148 C153 0.929 . S
H149 C158 0.931 . S
H150 C156 0.930 . S
N151 N152 1.234 . S
N151 C155 1.453 . S
N152 N151 1.234 . S
C153 H148 0.929 . S
C153 C154 1.373 . S
C153 C155 1.368 . S
C154 C153 1.373 . S
C154 C158 1.397 . S
C155 N151 1.453 . S
C155 C153 1.368 . S
C155 C156 1.373 . S
C156 H150 0.930 . S
C156 C155 1.373 . S
C156 C157 1.371 . S
C157 C156 1.371 . S
C157 C158 1.383 . S
C158 H149 0.931 . S
C158 C154 1.397 . S
C158 C157 1.383 . S
H159 C164 0.929 . S
H160 C169 0.931 . S
H161 C167 0.930 . S
N162 N163 1.234 . S
N162 C166 1.453 . S
N163 N162 1.234 . S
C164 H159 0.929 . S
C164 C165 1.373 . S
C164 C166 1.368 . S
C165 C164 1.373 . S
C165 C169 1.397 . S
C166 N162 1.453 . S
C166 C164 1.368 . S
C166 C167 1.373 . S
C167 H161 0.930 . S
C167 C166 1.373 . S
C167 C168 1.371 . S
C168 C167 1.371 . S
C168 C169 1.383 . S
C169 H160 0.931 . S
C169 C165 1.397 . S
C169 C168 1.383 . S
H170 C175 0.929 . S
H171 C180 0.931 . S
H172 C178 0.930 . S
N173 N174 1.234 . S
N173 C177 1.453 . S
N174 N173 1.234 . S
C175 H170 0.929 . S
C175 C176 1.373 . S
C175 C177 1.368 . S
C176 C175 1.373 . S
C176 C180 1.397 . S
C177 N173 1.453 . S
C177 C175 1.368 . S
C177 C178 1.373 . S
C178 H172 0.930 . S
C178 C177 1.373 . S
C178 C179 1.371 . S
C179 C178 1.371 . S
C179 C180 1.383 . S
C180 H171 0.931 . S
C180 C176 1.397 . S
C180 C179 1.383 . S
H181 C186 0.929 . S
H182 C191 0.931 . S
H183 C189 0.930 . S
N184 N185 1.234 . S
N184 C188 1.453 . S
N185 N184 1.234 . S
C186 H181 0.929 . S
C186 C187 1.373 . S
C186 C188 1.368 . S
C187 C186 1.373 . S
C187 C191 1.397 . S
C188 N184 1.453 . S
C188 C186 1.368 . S
C188 C189 1.373 . S
C189 H183 0.930 . S
C189 C188 1.373 . S
C189 C190 1.371 . S
C190 C189 1.371 . S
C190 C191 1.383 . S
C191 H182 0.931 . S
C191 C187 1.397 . S
C191 C190 1.383 . S
C192 C193 1.363 . S
C192 C198 1.379 . S
C192 N200 1.356 . S
C193 C192 1.363 . S
C193 C199 1.363 1_554 S
C194 C195 1.363 1_556 S
C194 C199 1.379 . S
C194 N201 1.356 . S
C195 C194 1.363 1_554 S
C195 C198 1.363 . S
N196 C198 1.356 . S
N196 H208 0.984 . S
N196 H209 0.985 . S
N197 C199 1.356 . S
N197 H202 0.984 . S
N197 H203 0.985 . S
C198 C192 1.379 . S
C198 C195 1.363 . S
C198 N196 1.356 . S
C199 C193 1.363 1_556 S
C199 C194 1.379 . S
C199 N197 1.356 . S
N200 C192 1.356 . S
N200 H206 0.984 . S
N200 H207 0.984 . S
N201 C194 1.356 . S
N201 H204 0.984 . S
N201 H205 0.985 . S
H202 N197 0.984 . S
H203 N197 0.985 . S
H204 N201 0.984 . S
H205 N201 0.985 . S
H206 N200 0.984 . S
H207 N200 0.984 . S
H208 N196 0.984 . S
H209 N196 0.985 . S
C210 C211 1.363 . S
C210 C216 1.379 . S
C210 N218 1.356 . S
C211 C210 1.363 . S
C211 C217 1.363 1_554 S
C212 C213 1.363 1_556 S
C212 C217 1.379 . S
C212 N219 1.356 . S
C213 C212 1.363 1_554 S
C213 C216 1.363 . S
N214 C216 1.356 . S
N214 H226 0.984 . S
N214 H227 0.985 . S
N215 C217 1.356 . S
N215 H220 0.984 . S
N215 H221 0.985 . S
C216 C210 1.379 . S
C216 C213 1.363 . S
C216 N214 1.356 . S
C217 C211 1.363 1_556 S
C217 C212 1.379 . S
C217 N215 1.356 . S
N218 C210 1.356 . S
N218 H224 0.984 . S
N218 H225 0.984 . S
N219 C212 1.356 . S
N219 H222 0.984 . S
N219 H223 0.985 . S
H220 N215 0.984 . S
H221 N215 0.985 . S
H222 N219 0.984 . S
H223 N219 0.985 . S
H224 N218 0.984 . S
H225 N218 0.984 . S
H226 N214 0.984 . S
H227 N214 0.985 . S
C228 C229 1.363 1_556 S
C228 C234 1.379 . S
C228 N236 1.356 . S
C229 C228 1.363 1_554 S
C229 C235 1.363 . S
C230 C231 1.363 . S
C230 C235 1.379 . S
C230 N237 1.356 . S
C231 C230 1.363 . S
C231 C234 1.363 1_554 S
N232 C234 1.356 . S
N232 H244 0.984 . S
N232 H245 0.985 . S
N233 C235 1.356 . S
N233 H238 0.984 . S
N233 H239 0.985 . S
C234 C228 1.379 . S
C234 C231 1.363 1_556 S
C234 N232 1.356 . S
C235 C229 1.363 . S
C235 C230 1.379 . S
C235 N233 1.356 . S
N236 C228 1.356 . S
N236 H242 0.984 . S
N236 H243 0.984 . S
N237 C230 1.356 . S
N237 H240 0.984 . S
N237 H241 0.985 . S
H238 N233 0.984 . S
H239 N233 0.985 . S
H240 N237 0.984 . S
H241 N237 0.985 . S
H242 N236 0.984 . S
H243 N236 0.984 . S
H244 N232 0.984 . S
H245 N232 0.985 . S
C246 C247 1.363 1_556 S
C246 C252 1.379 . S
C246 N254 1.356 . S
C247 C246 1.363 1_554 S
C247 C253 1.363 . S
C248 C249 1.363 1_554 S
C248 C253 1.379 . S
C248 N255 1.356 . S
C249 C248 1.363 1_556 S
C249 C252 1.363 . S
N250 C252 1.356 . S
N250 H262 0.984 . S
N250 H263 0.985 . S
N251 C253 1.356 . S
N251 H256 0.984 . S
N251 H257 0.985 . S
C252 C246 1.379 . S
C252 C249 1.363 . S
C252 N250 1.356 . S
C253 C247 1.363 . S
C253 C248 1.379 . S
C253 N251 1.356 . S
N254 C246 1.356 . S
N254 H260 0.984 . S
N254 H261 0.984 . S
N255 C248 1.356 . S
N255 H258 0.984 . S
N255 H259 0.985 . S
H256 N251 0.984 . S
H257 N251 0.985 . S
H258 N255 0.984 . S
H259 N255 0.985 . S
H260 N254 0.984 . S
H261 N254 0.984 . S
H262 N250 0.984 . S
H263 N250 0.985 . S
C264 C265 1.363 . S
C264 C270 1.379 . S
C264 N272 1.356 . S
C265 C264 1.363 . S
C265 C271 1.363 . S
C266 C267 1.363 . S
C266 C271 1.379 . S
C266 N273 1.356 . S
C267 C266 1.363 . S
C267 C270 1.363 . S
N268 C270 1.356 . S
N268 H280 0.984 . S
N268 H281 0.985 . S
N269 C271 1.356 . S
N269 H274 0.984 . S
N269 H275 0.985 . S
C270 C264 1.379 . S
C270 C267 1.363 . S
C270 N268 1.356 . S
C271 C265 1.363 . S
C271 C266 1.379 . S
C271 N269 1.356 . S
N272 C264 1.356 . S
N272 H278 0.984 . S
N272 H279 0.984 . S
N273 C266 1.356 . S
N273 H276 0.984 . S
N273 H277 0.985 . S
H274 N269 0.984 . S
H275 N269 0.985 . S
H276 N273 0.984 . S
H277 N273 0.985 . S
H278 N272 0.984 . S
H279 N272 0.984 . S
H280 N268 0.984 . S
H281 N268 0.985 . S
C282 C283 1.363 . S
C282 C288 1.379 . S
C282 N290 1.356 . S
C283 C282 1.363 . S
C283 C289 1.363 . S
C284 C285 1.363 . S
C284 C289 1.379 . S
C284 N291 1.356 . S
C285 C284 1.363 . S
C285 C288 1.363 . S
N286 C288 1.356 . S
N286 H298 0.984 . S
N286 H299 0.985 . S
N287 C289 1.356 . S
N287 H292 0.984 . S
N287 H293 0.985 . S
C288 C282 1.379 . S
C288 C285 1.363 . S
C288 N286 1.356 . S
C289 C283 1.363 . S
C289 C284 1.379 . S
C289 N287 1.356 . S
N290 C282 1.356 . S
N290 H296 0.984 . S
N290 H297 0.984 . S
N291 C284 1.356 . S
N291 H294 0.984 . S
N291 H295 0.985 . S
H292 N287 0.984 . S
H293 N287 0.985 . S
H294 N291 0.984 . S
H295 N291 0.985 . S
H296 N290 0.984 . S
H297 N290 0.984 . S
H298 N286 0.984 . S
H299 N286 0.985 . S
C300 C301 1.363 . S
C300 C306 1.379 . S
C300 N308 1.356 . S
C301 C300 1.363 . S
C301 C307 1.363 . S
C302 C303 1.363 . S
C302 C307 1.379 . S
C302 N309 1.356 . S
C303 C302 1.363 . S
C303 C306 1.363 . S
N304 C306 1.356 . S
N304 H316 0.984 . S
N304 H317 0.985 . S
N305 C307 1.356 . S
N305 H310 0.984 . S
N305 H311 0.985 . S
C306 C300 1.379 . S
C306 C303 1.363 . S
C306 N304 1.356 . S
C307 C301 1.363 . S
C307 C302 1.379 . S
C307 N305 1.356 . S
N308 C300 1.356 . S
N308 H314 0.984 . S
N308 H315 0.984 . S
N309 C302 1.356 . S
N309 H312 0.984 . S
N309 H313 0.985 . S
H310 N305 0.984 . S
H311 N305 0.985 . S
H312 N309 0.984 . S
H313 N309 0.985 . S
H314 N308 0.984 . S
H315 N308 0.984 . S
H316 N304 0.984 . S
H317 N304 0.985 . S
C318 C319 1.363 . S
C318 C324 1.379 . S
C318 N326 1.356 . S
C319 C318 1.363 . S
C319 C325 1.363 . S
C320 C321 1.363 . S
C320 C325 1.379 . S
C320 N327 1.356 . S
C321 C320 1.363 . S
C321 C324 1.363 . S
N322 C324 1.356 . S
N322 H334 0.984 . S
N322 H335 0.985 . S
N323 C325 1.356 . S
N323 H328 0.984 . S
N323 H329 0.985 . S
C324 C318 1.379 . S
C324 C321 1.363 . S
C324 N322 1.356 . S
C325 C319 1.363 . S
C325 C320 1.379 . S
C325 N323 1.356 . S
N326 C318 1.356 . S
N326 H332 0.984 . S
N326 H333 0.984 . S
N327 C320 1.356 . S
N327 H330 0.984 . S
N327 H331 0.985 . S
H328 N323 0.984 . S
H329 N323 0.985 . S
H330 N327 0.984 . S
H331 N327 0.985 . S
H332 N326 0.984 . S
H333 N326 0.984 . S
H334 N322 0.984 . S
H335 N322 0.985 . S
C336 C337 1.363 . S
C336 C342 1.379 . S
C336 N344 1.356 1_455 S
C337 C336 1.363 . S
C337 C343 1.363 . S
C338 C339 1.363 . S
C338 C343 1.379 . S
C338 N345 1.356 . S
C339 C338 1.363 . S
C339 C342 1.363 . S
N340 C342 1.356 . S
N340 H352 0.984 1_455 S
N340 H353 0.985 . S
N341 C343 1.356 . S
N341 H346 0.984 . S
N341 H347 0.985 . S
C342 C336 1.379 . S
C342 C339 1.363 . S
C342 N340 1.356 . S
C343 C337 1.363 . S
C343 C338 1.379 . S
C343 N341 1.356 . S
N344 C336 1.356 1_655 S
N344 H350 0.984 . S
N344 H351 0.984 . S
N345 C338 1.356 . S
N345 H348 0.984 . S
N345 H349 0.985 . S
H346 N341 0.984 . S
H347 N341 0.985 . S
H348 N345 0.984 . S
H349 N345 0.985 . S
H350 N344 0.984 . S
H351 N344 0.984 . S
H352 N340 0.984 1_655 S
H353 N340 0.985 . S
C354 C355 1.363 . S
C354 C360 1.379 . S
C354 N362 1.356 . S
C355 C354 1.363 . S
C355 C361 1.363 . S
C356 C357 1.363 . S
C356 C361 1.379 . S
C356 N363 1.356 . S
C357 C356 1.363 . S
C357 C360 1.363 . S
N358 C360 1.356 . S
N358 H370 0.984 . S
N358 H371 0.985 . S
N359 C361 1.356 1_565 S
N359 H364 0.984 . S
N359 H365 0.985 . S
C360 C354 1.379 . S
C360 C357 1.363 . S
C360 N358 1.356 . S
C361 C355 1.363 . S
C361 C356 1.379 . S
C361 N359 1.356 1_545 S
N362 C354 1.356 . S
N362 H368 0.984 . S
N362 H369 0.984 . S
N363 C356 1.356 . S
N363 H366 0.984 . S
N363 H367 0.985 1_545 S
H364 N359 0.984 . S
H365 N359 0.985 . S
H366 N363 0.984 . S
H367 N363 0.985 1_565 S
H368 N362 0.984 . S
H369 N362 0.984 . S
H370 N358 0.984 . S
H371 N358 0.985 . S
C372 C373 1.363 . S
C372 C378 1.379 . S
C372 N380 1.356 . S
C373 C372 1.363 . S
C373 C379 1.363 . S
C374 C375 1.363 . S
C374 C379 1.379 . S
C374 N381 1.356 . S
C375 C374 1.363 . S
C375 C378 1.363 . S
N376 C378 1.356 . S
N376 H388 0.984 . S
N376 H389 0.985 . S
N377 C379 1.356 1_455 S
N377 H382 0.984 . S
N377 H383 0.985 . S
C378 C372 1.379 . S
C378 C375 1.363 . S
C378 N376 1.356 . S
C379 C373 1.363 . S
C379 C374 1.379 . S
C379 N377 1.356 1_655 S
N380 C372 1.356 . S
N380 H386 0.984 . S
N380 H387 0.984 . S
N381 C374 1.356 . S
N381 H384 0.984 . S
N381 H385 0.985 1_655 S
H382 N377 0.984 . S
H383 N377 0.985 . S
H384 N381 0.984 . S
H385 N381 0.985 1_455 S
H386 N380 0.984 . S
H387 N380 0.984 . S
H388 N376 0.984 . S
H389 N376 0.985 . S
C390 C391 1.363 . S
C390 C396 1.379 . S
C390 N398 1.356 . S
C391 C390 1.363 . S
C391 C397 1.363 . S
C392 C393 1.363 . S
C392 C397 1.379 . S
C392 N399 1.356 . S
C393 C392 1.363 . S
C393 C396 1.363 . S
N394 C396 1.356 . S
N394 H406 0.984 . S
N394 H407 0.985 . S
N395 C397 1.356 1_545 S
N395 H400 0.984 . S
N395 H401 0.985 . S
C396 C390 1.379 . S
C396 C393 1.363 . S
C396 N394 1.356 . S
C397 C391 1.363 . S
C397 C392 1.379 . S
C397 N395 1.356 1_565 S
N398 C390 1.356 . S
N398 H404 0.984 . S
N398 H405 0.984 . S
N399 C392 1.356 . S
N399 H402 0.984 . S
N399 H403 0.985 1_565 S
H400 N395 0.984 . S
H401 N395 0.985 . S
H402 N399 0.984 . S
H403 N399 0.985 1_545 S
H404 N398 0.984 . S
H405 N398 0.984 . S
H406 N394 0.984 . S
H407 N394 0.985 . S
C408 C409 1.363 . S
C408 C414 1.379 . S
C408 N416 1.356 . S
C409 C408 1.363 . S
C409 C415 1.363 . S
C410 C411 1.363 . S
C410 C415 1.379 . S
C410 N417 1.356 . S
C411 C410 1.363 . S
C411 C414 1.363 . S
N412 C414 1.356 . S
N412 H424 0.984 . S
N412 H425 0.985 . S
N413 C415 1.356 1_545 S
N413 H418 0.984 . S
N413 H419 0.985 . S
C414 C408 1.379 . S
C414 C411 1.363 . S
C414 N412 1.356 . S
C415 C409 1.363 . S
C415 C410 1.379 . S
C415 N413 1.356 1_565 S
N416 C408 1.356 . S
N416 H422 0.984 . S
N416 H423 0.984 . S
N417 C410 1.356 . S
N417 H420 0.984 . S
N417 H421 0.985 1_565 S
H418 N413 0.984 . S
H419 N413 0.985 . S
H420 N417 0.984 . S
H421 N417 0.985 1_545 S
H422 N416 0.984 . S
H423 N416 0.984 . S
H424 N412 0.984 . S
H425 N412 0.985 . S
C426 C427 1.363 . S
C426 C432 1.379 . S
C426 N434 1.356 1_455 S
C427 C426 1.363 . S
C427 C433 1.363 . S
C428 C429 1.363 . S
C428 C433 1.379 . S
C428 N435 1.356 . S
C429 C428 1.363 . S
C429 C432 1.363 . S
N430 C432 1.356 . S
N430 H442 0.984 1_455 S
N430 H443 0.985 . S
N431 C433 1.356 . S
N431 H436 0.984 . S
N431 H437 0.985 . S
C432 C426 1.379 . S
C432 C429 1.363 . S
C432 N430 1.356 . S
C433 C427 1.363 . S
C433 C428 1.379 . S
C433 N431 1.356 . S
N434 C426 1.356 1_655 S
N434 H440 0.984 . S
N434 H441 0.984 . S
N435 C428 1.356 . S
N435 H438 0.984 . S
N435 H439 0.985 . S
H436 N431 0.984 . S
H437 N431 0.985 . S
H438 N435 0.984 . S
H439 N435 0.985 . S
H440 N434 0.984 . S
H441 N434 0.984 . S
H442 N430 0.984 1_655 S
H443 N430 0.985 . S
C444 C445 1.363 . S
C444 C450 1.379 . S
C444 N452 1.356 . S
C445 C444 1.363 . S
C445 C451 1.363 . S
C446 C447 1.363 . S
C446 C451 1.379 . S
C446 N453 1.356 . S
C447 C446 1.363 . S
C447 C450 1.363 . S
N448 C450 1.356 . S
N448 H460 0.984 . S
N448 H461 0.985 . S
N449 C451 1.356 . S
N449 H454 0.984 . S
N449 H455 0.985 . S
C450 C444 1.379 . S
C450 C447 1.363 . S
C450 N448 1.356 . S
C451 C445 1.363 . S
C451 C446 1.379 . S
C451 N449 1.356 . S
N452 C444 1.356 . S
N452 H458 0.984 1_545 S
N452 H459 0.984 . S
N453 C446 1.356 . S
N453 H456 0.984 . S
N453 H457 0.985 . S
H454 N449 0.984 . S
H455 N449 0.985 . S
H456 N453 0.984 . S
H457 N453 0.985 . S
H458 N452 0.984 1_565 S
H459 N452 0.984 . S
H460 N448 0.984 . S
H461 N448 0.985 . S
C462 C463 1.363 . S
C462 C468 1.379 . S
C462 N470 1.356 . S
C463 C462 1.363 . S
C463 C469 1.363 . S
C464 C465 1.363 . S
C464 C469 1.379 . S
C464 N471 1.356 . S
C465 C464 1.363 . S
C465 C468 1.363 . S
N466 C468 1.356 . S
N466 H478 0.984 . S
N466 H479 0.985 . S
N467 C469 1.356 1_455 S
N467 H472 0.984 . S
N467 H473 0.985 . S
C468 C462 1.379 . S
C468 C465 1.363 . S
C468 N466 1.356 . S
C469 C463 1.363 . S
C469 C464 1.379 . S
C469 N467 1.356 1_655 S
N470 C462 1.356 . S
N470 H476 0.984 . S
N470 H477 0.984 . S
N471 C464 1.356 . S
N471 H474 0.984 . S
N471 H475 0.985 1_655 S
H472 N467 0.984 . S
H473 N467 0.985 . S
H474 N471 0.984 . S
H475 N471 0.985 1_455 S
H476 N470 0.984 . S
H477 N470 0.984 . S
H478 N466 0.984 . S
H479 N466 0.985 . S
C480 C481 1.363 . S
C480 C486 1.379 . S
C480 N488 1.356 . S
C481 C480 1.363 . S
C481 C487 1.363 . S
C482 C483 1.363 . S
C482 C487 1.379 . S
C482 N489 1.356 . S
C483 C482 1.363 . S
C483 C486 1.363 . S
N484 C486 1.356 . S
N484 H496 0.980 1_556 S
N484 H497 0.985 1_556 S
N485 C487 1.356 . S
N485 H490 0.984 . S
N485 H491 0.985 . S
C486 C480 1.379 . S
C486 C483 1.363 . S
C486 N484 1.356 . S
C487 C481 1.363 . S
C487 C482 1.379 . S
C487 N485 1.356 . S
N488 C480 1.356 . S
N488 H494 0.984 . S
N488 H495 0.984 . S
N489 C482 1.356 . S
N489 H492 0.984 . S
N489 H493 0.985 . S
H490 N485 0.984 . S
H491 N485 0.985 . S
H492 N489 0.984 . S
H493 N489 0.985 . S
H494 N488 0.984 . S
H495 N488 0.984 . S
H496 N484 0.980 1_554 S
H497 N484 0.985 1_554 S
C498 C499 1.363 . S
C498 C504 1.379 . S
C498 N506 1.356 . S
C499 C498 1.363 . S
C499 C505 1.363 . S
C500 C501 1.363 . S
C500 C505 1.379 . S
C500 N507 1.356 . S
C501 C500 1.363 . S
C501 C504 1.363 . S
N502 C504 1.356 . S
N502 H514 0.984 . S
N502 H515 0.985 . S
N503 C505 1.356 . S
N503 H508 0.984 . S
N503 H509 0.985 . S
C504 C498 1.379 . S
C504 C501 1.363 . S
C504 N502 1.356 . S
C505 C499 1.363 . S
C505 C500 1.379 . S
C505 N503 1.356 . S
N506 C498 1.356 . S
N506 H512 0.984 . S
N506 H513 0.984 . S
N507 C500 1.356 . S
N507 H510 0.984 . S
N507 H511 0.985 . S
H508 N503 0.984 . S
H509 N503 0.985 . S
H510 N507 0.984 . S
H511 N507 0.985 . S
H512 N506 0.984 . S
H513 N506 0.984 . S
H514 N502 0.984 . S
H515 N502 0.985 . S
C516 C517 1.363 . S
C516 C522 1.379 . S
C516 N524 1.356 . S
C517 C516 1.363 . S
C517 C523 1.363 . S
C518 C519 1.363 . S
C518 C523 1.379 . S
C518 N525 1.356 . S
C519 C518 1.363 . S
C519 C522 1.363 . S
N520 C522 1.356 . S
N520 H532 0.984 . S
N520 H533 0.985 . S
N521 C523 1.356 . S
N521 H526 0.984 . S
N521 H527 0.985 . S
C522 C516 1.379 . S
C522 C519 1.363 . S
C522 N520 1.356 . S
C523 C517 1.363 . S
C523 C518 1.379 . S
C523 N521 1.356 . S
N524 C516 1.356 . S
N524 H530 0.984 . S
N524 H531 0.984 . S
N525 C518 1.356 . S
N525 H528 0.984 . S
N525 H529 0.985 . S
H526 N521 0.984 . S
H527 N521 0.985 . S
H528 N525 0.984 . S
H529 N525 0.985 . S
H530 N524 0.984 . S
H531 N524 0.984 . S
H532 N520 0.984 . S
H533 N520 0.985 . S
C534 C535 1.363 . S
C534 C540 1.379 . S
C534 N542 1.356 . S
C535 C534 1.363 . S
C535 C541 1.363 . S
C536 C537 1.363 . S
C536 C541 1.379 . S
C536 N543 1.356 . S
C537 C536 1.363 . S
C537 C540 1.363 . S
N538 C540 1.356 . S
N538 H550 0.984 . S
N538 H551 0.985 . S
N539 C541 1.356 . S
N539 H544 0.984 . S
N539 H545 0.985 . S
C540 C534 1.379 . S
C540 C537 1.363 . S
C540 N538 1.356 . S
C541 C535 1.363 . S
C541 C536 1.379 . S
C541 N539 1.356 . S
N542 C534 1.356 . S
N542 H548 0.984 . S
N542 H549 0.984 . S
N543 C536 1.356 . S
N543 H546 0.984 . S
N543 H547 0.985 . S
H544 N539 0.984 . S
H545 N539 0.985 . S
H546 N543 0.984 . S
H547 N543 0.985 . S
H548 N542 0.984 . S
H549 N542 0.984 . S
H550 N538 0.984 . S
H551 N538 0.985 . S
C552 C553 1.363 . S
C552 C558 1.379 . S
C552 N560 1.356 . S
C553 C552 1.363 . S
C553 C559 1.363 . S
C554 C555 1.363 . S
C554 C559 1.379 . S
C554 N561 1.356 . S
C555 C554 1.363 . S
C555 C558 1.363 . S
N556 C558 1.356 . S
N556 H568 0.984 . S
N556 H569 0.985 . S
N557 C559 1.356 . S
N557 H562 0.984 . S
N557 H563 0.985 . S
C558 C552 1.379 . S
C558 C555 1.363 . S
C558 N556 1.356 . S
C559 C553 1.363 . S
C559 C554 1.379 . S
C559 N557 1.356 . S
N560 C552 1.356 . S
N560 H566 0.984 . S
N560 H567 0.984 . S
N561 C554 1.356 . S
N561 H564 0.984 . S
N561 H565 0.985 . S
H562 N557 0.984 . S
H563 N557 0.985 . S
H564 N561 0.984 . S
H565 N561 0.985 . S
H566 N560 0.984 . S
H567 N560 0.984 . S
H568 N556 0.984 . S
H569 N556 0.985 . S
C570 C571 1.363 . S
C570 C576 1.379 . S
C570 N578 1.356 . S
C571 C570 1.363 . S
C571 C577 1.363 . S
C572 C573 1.363 . S
C572 C577 1.379 . S
C572 N579 1.356 . S
C573 C572 1.363 . S
C573 C576 1.363 . S
N574 C576 1.356 . S
N574 H586 0.984 . S
N574 H587 0.985 . S
N575 C577 1.356 . S
N575 H580 0.984 . S
N575 H581 0.985 . S
C576 C570 1.379 . S
C576 C573 1.363 . S
C576 N574 1.356 . S
C577 C571 1.363 . S
C577 C572 1.379 . S
C577 N575 1.356 . S
N578 C570 1.356 . S
N578 H584 0.984 . S
N578 H585 0.984 . S
N579 C572 1.356 . S
N579 H582 0.984 . S
N579 H583 0.985 . S
H580 N575 0.984 . S
H581 N575 0.985 . S
H582 N579 0.984 . S
H583 N579 0.985 . S
H584 N578 0.984 . S
H585 N578 0.984 . S
H586 N574 0.984 . S
H587 N574 0.985 . S
C588 C589 1.363 . S
C588 C594 1.379 . S
C588 N596 1.356 . S
C589 C588 1.363 . S
C589 C595 1.363 . S
C590 C591 1.363 . S
C590 C595 1.379 . S
C590 N597 1.356 . S
C591 C590 1.363 . S
C591 C594 1.363 . S
N592 C594 1.356 . S
N592 H604 0.984 . S
N592 H605 0.985 . S
N593 C595 1.356 . S
N593 H598 0.984 . S
N593 H599 0.985 . S
C594 C588 1.379 . S
C594 C591 1.363 . S
C594 N592 1.356 . S
C595 C589 1.363 . S
C595 C590 1.379 . S
C595 N593 1.356 . S
N596 C588 1.356 . S
N596 H602 0.984 . S
N596 H603 0.984 . S
N597 C590 1.356 . S
N597 H600 0.984 . S
N597 H601 0.985 . S
H598 N593 0.984 . S
H599 N593 0.985 . S
H600 N597 0.984 . S
H601 N597 0.985 . S
H602 N596 0.984 . S
H603 N596 0.984 . S
H604 N592 0.984 . S
H605 N592 0.985 . S
C606 C607 1.363 . S
C606 C612 1.379 . S
C606 N614 1.356 . S
C607 C606 1.363 . S
C607 C613 1.363 . S
C608 C609 1.363 . S
C608 C613 1.379 . S
C608 N615 1.356 . S
C609 C608 1.363 . S
C609 C612 1.363 . S
N610 C612 1.356 . S
N610 H622 0.984 . S
N610 H623 0.985 . S
N611 C613 1.356 . S
N611 H616 0.984 . S
N611 H617 0.985 . S
C612 C606 1.379 . S
C612 C609 1.363 . S
C612 N610 1.356 . S
C613 C607 1.363 . S
C613 C608 1.379 . S
C613 N611 1.356 . S
N614 C606 1.356 . S
N614 H620 0.984 . S
N614 H621 0.984 . S
N615 C608 1.356 . S
N615 H618 0.984 . S
N615 H619 0.985 . S
H616 N611 0.984 . S
H617 N611 0.985 . S
H618 N615 0.984 . S
H619 N615 0.985 . S
H620 N614 0.984 . S
H621 N614 0.984 . S
H622 N610 0.984 . S
H623 N610 0.985 . S
C193 C45 1.551 . S
C195 N108 1.564 . S
C211 C30 1.553 . S
C213 N119 1.555 1_554 S
C229 C39 1.550 . S
C231 N130 1.549 1_554 S
C249 N141 1.554 . S
C247 C34 1.552 . S
C265 C97 1.550 . S
C267 N152 1.559 . S
C285 N163 1.563 . S
C283 C82 1.551 . S
C303 N174 1.556 . S
C301 C91 1.553 . S
C321 N185 1.564 . S
C319 C86 1.552 . S
C339 C179 1.560 . S
C337 C26 1.519 . S
C357 C187 1.488 . S
C355 C36 1.449 . S
C375 C154 1.546 . S
C373 C32 1.508 . S
C393 C165 1.487 . S
C391 C42 1.454 . S
C409 C18 1.575 . S
C411 C168 1.628 . S
C429 C176 1.582 . S
C427 C50 1.504 . S
C445 C4 1.578 . S
C447 C190 1.623 . S
C463 C48 1.517 . S
C465 C157 1.565 . S
C483 C135 1.509 . S
C481 C78 1.468 . S
C499 C88 1.525 . S
C501 C146 1.570 . S
C519 C110 1.496 . S
C517 C84 1.457 . S
C537 C124 1.568 . S
C535 C94 1.530 . S
C555 C121 1.575 . S
C553 C70 1.495 . S
C573 C132 1.630 . S
C571 C102 1.553 . S
C589 C56 1.498 . S
C591 C143 1.569 . S
C607 C100 1.568 . S
C609 C113 1.615 . S
