# Generated by pormake.
# Topology ssa, (4,4)-cn, num edge types: 1
# Building blocks:
#     Node 0, Type 0, BuildingBlock: KUFVIS_clean_linker_0, # of connection points: 4
#     Node 1, Type 0, BuildingBlock: KUFVIS_clean_linker_0, # of connection points: 4
#     Node 2, Type 0, BuildingBlock: KUFVIS_clean_linker_0, # of connection points: 4
#     Node 3, Type 0, BuildingBlock: KUFVIS_clean_linker_0, # of connection points: 4
#     Node 4, Type 0, BuildingBlock: KUFVIS_clean_linker_0, # of connection points: 4
#     Node 5, Type 0, BuildingBlock: KUFVIS_clean_linker_0, # of connection points: 4
#     Node 6, Type 1, BuildingBlock: MUDLON_clean_sbu_0, # of connection points: 4
#     Node 7, Type 1, BuildingBlock: MUDLON_clean_sbu_0, # of connection points: 4
#     Node 8, Type 1, BuildingBlock: MUDLON_clean_sbu_0, # of connection points: 4
#     Node 9, Type 1, BuildingBlock: MUDLON_clean_sbu_0, # of connection points: 4
#     Node 10, Type 1, BuildingBlock: MUDLON_clean_sbu_0, # of connection points: 4
#     Node 11, Type 1, BuildingBlock: MUDLON_clean_sbu_0, # of connection points: 4
#     Edge 12, Type (0, 1), BuildingBlock: XUDNAN_clean_linker_2, # of connection points: 2
#     Edge 13, Type (0, 1), BuildingBlock: XUDNAN_clean_linker_2, # of connection points: 2
#     Edge 14, Type (0, 1), BuildingBlock: XUDNAN_clean_linker_2, # of connection points: 2
#     Edge 15, Type (0, 1), BuildingBlock: XUDNAN_clean_linker_2, # of connection points: 2
#     Edge 16, Type (0, 1), BuildingBlock: XUDNAN_clean_linker_2, # of connection points: 2
#     Edge 17, Type (0, 1), BuildingBlock: XUDNAN_clean_linker_2, # of connection points: 2
#     Edge 18, Type (0, 1), BuildingBlock: XUDNAN_clean_linker_2, # of connection points: 2
#     Edge 19, Type (0, 1), BuildingBlock: XUDNAN_clean_linker_2, # of connection points: 2
#     Edge 20, Type (0, 1), BuildingBlock: XUDNAN_clean_linker_2, # of connection points: 2
#     Edge 21, Type (0, 1), BuildingBlock: XUDNAN_clean_linker_2, # of connection points: 2
#     Edge 22, Type (0, 1), BuildingBlock: XUDNAN_clean_linker_2, # of connection points: 2
#     Edge 23, Type (0, 1), BuildingBlock: XUDNAN_clean_linker_2, # of connection points: 2
#     Edge 24, Type (0, 1), BuildingBlock: XUDNAN_clean_linker_2, # of connection points: 2
#     Edge 25, Type (0, 1), BuildingBlock: XUDNAN_clean_linker_2, # of connection points: 2
#     Edge 26, Type (0, 1), BuildingBlock: XUDNAN_clean_linker_2, # of connection points: 2
#     Edge 27, Type (0, 1), BuildingBlock: XUDNAN_clean_linker_2, # of connection points: 2
#     Edge 28, Type (0, 1), BuildingBlock: XUDNAN_clean_linker_2, # of connection points: 2
#     Edge 29, Type (0, 1), BuildingBlock: XUDNAN_clean_linker_2, # of connection points: 2
#     Edge 30, Type (0, 1), BuildingBlock: XUDNAN_clean_linker_2, # of connection points: 2
#     Edge 31, Type (0, 1), BuildingBlock: XUDNAN_clean_linker_2, # of connection points: 2
#     Edge 32, Type (0, 1), BuildingBlock: XUDNAN_clean_linker_2, # of connection points: 2
#     Edge 33, Type (0, 1), BuildingBlock: XUDNAN_clean_linker_2, # of connection points: 2
#     Edge 34, Type (0, 1), BuildingBlock: XUDNAN_clean_linker_2, # of connection points: 2
#     Edge 35, Type (0, 1), BuildingBlock: XUDNAN_clean_linker_2, # of connection points: 2
# Relax obj value: 0.001
# Max RMSD: 0.051
# Mean RMSD: 0.029
data_MOF--net-ssa--node1-MUDLON_clean_sbu_0--node2-KUFVIS_clean_linker_0--edge1-XUDNAN_clean_linker_2
_symmetry_space_group_name_H-M    P1
_symmetry_Int_Tables_number       1
_symmetry_cell_setting            triclinic
loop_
_symmetry_equiv_pos_as_xyz
'x, y, z'
_cell_length_a     44.03945
_cell_length_b     44.166614
_cell_length_c     41.333901
_cell_angle_alpha  89.885359
_cell_angle_beta   89.293004
_cell_angle_gamma 120.13049
loop_
_atom_site_label
_atom_site_type_symbol
_atom_site_fract_x
_atom_site_fract_y
_atom_site_fract_z
_atom_type_partial_charge
H0 H 0.946 0.51296 0.95175 0.0
H1 H 0.01715 0.59904 1.00986 0.0
H2 H 1.00501 0.49591 1.02351 0.0
H3 H 0.05836 0.52574 0.04381 0.0
H4 H 0.10826 0.60117 0.11831 0.0
H5 H 0.02894 0.6046 0.06234 0.0
C6 C 0.96452 0.52297 0.97144 0.0
C7 C 0.97418 0.50086 0.98648 0.0
C8 C 0.97956 0.55813 0.98002 0.0
C9 C 1.00492 0.57147 1.00438 0.0
C10 C 0.01425 0.54933 1.02131 0.0
C11 C 0.99872 0.51383 1.01157 0.0
C12 C 0.04006 0.5633 0.04875 0.0
C13 C 0.06051 0.5478 0.05707 0.0
C14 C 0.08477 0.56134 0.08236 0.0
C15 C 0.08941 0.59078 0.09889 0.0
C16 C 0.06986 0.60673 0.09137 0.0
C17 C 0.04463 0.59254 0.06697 0.0
H18 H 0.59304 0.13108 0.60373 0.0
H19 H 0.5169 0.07691 0.53104 0.0
H20 H 0.60303 0.0568 0.54486 0.0
H21 H 0.59379 0.04112 0.49271 0.0
H22 H 0.50541 0.96658 0.43851 0.0
H23 H 0.48909 0.02253 0.51447 0.0
C24 C 0.58345 0.11232 0.58413 0.0
C25 C 0.60168 0.09529 0.57547 0.0
C26 C 0.55283 0.10529 0.56857 0.0
C27 C 0.54023 0.08105 0.54327 0.0
C28 C 0.55795 0.0629 0.53383 0.0
C29 C 0.58904 0.07048 0.55049 0.0
C30 C 0.54361 0.03593 0.50729 0.0
C31 C 0.5658 0.02766 0.48868 0.0
C32 C 0.55214 1.00267 0.4638 0.0
C33 C 0.51612 0.98588 0.45756 0.0
C34 C 0.49355 0.99341 0.47538 0.0
C35 C 0.50727 0.01814 0.50024 0.0
H36 H 0.49207 0.55773 0.12541 0.0
H37 H 0.47579 0.48197 0.05267 0.0
H38 H 0.57963 0.57033 0.06812 0.0
H39 H 0.58267 0.56295 1.01183 0.0
H40 H 0.58101 0.47669 0.96291 0.0
H41 H 0.50793 0.45593 0.0407 0.0
C42 C 0.50238 0.5483 0.10644 0.0
C43 C 0.53813 0.56776 0.09814 0.0
C44 C 0.47983 0.51697 0.09061 0.0
C45 C 0.49347 0.50566 0.06538 0.0
C46 C 0.5296 0.52449 0.05677 0.0
C47 C 0.55177 0.55559 0.0737 0.0
C48 C 0.54407 0.51134 0.03062 0.0
C49 C 0.57201 0.53497 1.00987 0.0
C50 C 0.58544 0.52227 0.9857 0.0
C51 C 0.5712 0.48633 0.98219 0.0
C52 C 0.54303 0.46252 1.00142 0.0
C53 C 0.5295 0.47485 1.0257 0.0
H54 H 0.94245 0.42986 0.62694 0.0
H55 H 0.99005 0.50271 0.54799 0.0
H56 H 0.01531 0.42102 0.56367 0.0
H57 H 0.01975 0.42403 0.5087 0.0
H58 H 0.0906 0.50763 0.44527 0.0
H59 H 0.04621 0.53108 0.52732 0.0
C60 C 0.96095 0.44005 0.60678 0.0
C61 C 0.97873 0.42247 0.59761 0.0
C62 C 0.96509 0.46924 0.58945 0.0
C63 C 0.98741 0.48067 0.56182 0.0
C64 C 1.00586 0.46356 0.5518 0.0
C65 C 1.00119 0.43436 0.57021 0.0
C66 C 0.02947 0.47578 0.52205 0.0
C67 C 0.03378 0.45166 0.50264 0.0
C68 C 0.05567 0.46286 0.47477 0.0
C69 C 0.073 0.49839 0.46616 0.0
C70 C 0.06933 0.52277 0.48468 0.0
C71 C 0.04796 0.51165 0.51275 0.0
H72 H 0.46175 0.91025 0.10918 0.0
H73 H 0.46217 0.99464 0.05757 0.0
H74 H 0.52851 0.95324 1.02566 0.0
H75 H 0.56324 0.00949 1.0101 0.0
H76 H 0.54939 0.07281 0.93983 0.0
H77 H 0.46335 1.00575 1.00283 0.0
C78 C 0.47096 0.92843 0.08878 0.0
C79 C 0.49666 0.9296 0.06805 0.0
C80 C 0.45839 0.95151 0.0851 0.0
C81 C 0.47117 0.97596 0.05939 0.0
C82 C 0.49654 0.977 0.03706 0.0
C83 C 0.50898 0.95323 0.04182 0.0
C84 C 0.51114 1.00364 1.0099 0.0
C85 C 0.54629 0.01744 0.99875 0.0
C86 C 0.56035 0.04248 0.97355 0.0
C87 C 0.53911 0.05415 0.95976 0.0
C88 C 0.5045 0.04164 0.97056 0.0
C89 C 0.49037 0.0159 0.99516 0.0
H90 H 0.53711 0.48646 0.6328 0.0
H91 H 0.55494 0.56201 0.55921 0.0
H92 H 0.45146 0.47092 0.57349 0.0
H93 H 0.44686 0.4787 0.52017 0.0
H94 H 0.45224 0.56404 0.46577 0.0
H95 H 0.52482 0.58628 0.54184 0.0
C96 C 0.52694 0.49559 0.61368 0.0
C97 C 0.49169 0.47506 0.60504 0.0
C98 C 0.54951 0.52747 0.59812 0.0
C99 C 0.53691 0.53798 0.57179 0.0
C100 C 0.50137 0.51795 0.56219 0.0
C101 C 0.47899 0.48634 0.57931 0.0
C102 C 0.48749 0.53059 0.53525 0.0
C103 C 0.45866 0.50663 0.51631 0.0
C104 C 0.44508 0.51867 0.49191 0.0
C105 C 0.46119 0.55457 0.48567 0.0
C106 C 0.49002 0.57864 0.50316 0.0
C107 C 0.50299 0.56689 0.52809 0.0
Mg108 Mg 0.23281 0.44568 0.26729 0.0
C109 C 0.19252 0.47034 0.22898 0.0
O110 O 0.16838 0.43893 0.23875 0.0
C111 C 0.28556 0.4449 0.30966 0.0
O112 O 0.27457 0.41708 0.29147 0.0
C113 C 0.18215 0.40104 0.32257 0.0
O114 O 0.20959 0.39965 0.3326 0.0
O115 O 0.18347 0.41426 0.2948 0.0
O116 O 0.22386 0.48255 0.23886 0.0
O117 O 0.25451 0.42477 0.23134 0.0
C118 C 0.25275 0.42841 0.20096 0.0
O119 O 0.23069 0.43769 0.1901 0.0
O120 O 0.27316 0.46515 0.30478 0.0
Mg121 Mg 0.81468 0.23869 0.80216 0.0
C122 C 0.75368 0.19997 0.75745 0.0
O123 O 0.74435 0.177 0.78112 0.0
C124 C 0.83291 0.2958 0.85393 0.0
O125 O 0.80443 0.27178 0.86891 0.0
C126 C 0.77696 0.16842 0.84373 0.0
O127 O 0.79163 0.15595 0.82411 0.0
O128 O 0.78372 0.19983 0.83998 0.0
O129 O 0.7805 0.23026 0.76097 0.0
O130 O 0.86076 0.24245 0.77774 0.0
C131 C 0.85857 0.23159 0.74886 0.0
O132 O 0.82782 0.20742 0.73842 0.0
O133 O 0.84031 0.28979 0.82564 0.0
Mg134 Mg 0.58795 0.80246 0.28109 0.0
C135 C 0.54212 0.79208 0.22048 0.0
O136 O 0.53643 0.7599 0.22017 0.0
C137 C 0.57331 0.75382 0.33517 0.0
O138 O 0.60537 0.76285 0.32573 0.0
C139 C 0.60389 0.87181 0.30743 0.0
O140 O 0.57983 0.86538 0.28582 0.0
O141 O 0.61623 0.85116 0.30916 0.0
O142 O 0.55933 0.81226 0.24354 0.0
O143 O 0.61414 0.77761 0.25594 0.0
C144 C 0.61779 0.77973 0.22523 0.0
O145 O 0.61374 0.8034 0.2097 0.0
O146 O 0.55663 0.76547 0.31932 0.0
Mg147 Mg 0.80664 0.5833 0.76091 0.0
C148 C 0.75394 0.58741 0.72315 0.0
O149 O 0.7385 0.55672 0.73769 0.0
C150 C 0.85315 0.59053 0.81135 0.0
O151 O 0.82852 0.55747 0.80928 0.0
C152 C 0.7656 0.57554 0.823 0.0
O153 O 0.79522 0.60409 0.82946 0.0
O154 O 0.76311 0.55921 0.79682 0.0
O155 O 0.78657 0.60819 0.72785 0.0
O156 O 0.82011 0.55042 0.73057 0.0
C157 C 0.82581 0.55819 0.7005 0.0
O158 O 0.82017 0.58267 0.68908 0.0
O159 O 0.85295 0.61231 0.79119 0.0
Mg160 Mg 0.23615 0.79996 0.31105 0.0
C161 C 0.19156 0.76619 0.25739 0.0
O162 O 0.21696 0.75876 0.25703 0.0
C163 C 0.27936 0.83893 0.36316 0.0
O164 O 0.2844 0.81267 0.35652 0.0
C165 C 0.18979 0.73104 0.34567 0.0
O166 O 0.16618 0.73649 0.33199 0.0
O167 O 0.22223 0.75241 0.33972 0.0
O168 O 0.19094 0.78554 0.27992 0.0
O169 O 0.28169 0.82153 0.27752 0.0
C170 C 0.28049 0.83773 0.25238 0.0
O171 O 0.2518 0.83879 0.24661 0.0
O172 O 0.25614 0.84154 0.34721 0.0
Mg173 Mg 0.45207 0.23556 0.78665 0.0
C174 C 0.46893 0.19816 0.73667 0.0
O175 O 0.43906 0.17341 0.74909 0.0
C176 C 0.46166 0.28215 0.84188 0.0
O177 O 0.4284 0.26919 0.83489 0.0
C178 C 0.45355 0.18752 0.8317 0.0
O179 O 0.48551 0.21396 0.8268 0.0
O180 O 0.42864 0.18705 0.81581 0.0
O181 O 0.48313 0.22861 0.74896 0.0
O182 O 0.42361 0.25571 0.75866 0.0
C183 C 0.44198 0.28884 0.75469 0.0
O184 O 0.47238 0.30575 0.76914 0.0
O185 O 0.48043 0.27414 0.82417 0.0
H186 H 0.06282 0.50406 0.12123 0.0
H187 H 0.15425 0.5861 0.07132 0.0
H188 H 0.19252 0.57074 0.1023 0.0
H189 H 0.09978 0.5191 0.19657 0.0
H190 H 0.07901 0.47402 0.20964 0.0
H191 H 0.05819 0.4872 0.18004 0.0
H192 H 0.05586 0.44123 0.13979 0.0
H193 H 0.07582 0.42719 0.1696 0.0
H194 H 0.09556 0.44068 0.12986 0.0
H195 H 0.22123 0.55144 0.14418 0.0
H196 H 0.23742 0.52526 0.1891 0.0
H197 H 0.12696 0.45607 0.21168 0.0
C198 C 0.09071 0.51752 0.11576 0.0
C199 C 0.10561 0.54544 0.09317 0.0
C200 C 0.1424 0.56388 0.0878 0.0
C201 C 0.16429 0.55556 0.10553 0.0
C202 C 0.14897 0.52878 0.12865 0.0
C203 C 0.11293 0.5096 0.13339 0.0
C204 C 0.10323 0.48387 0.16127 0.0
C205 C 0.08392 0.49153 0.18848 0.0
C206 C 0.08133 0.446 0.14941 0.0
C207 C 0.13936 0.4919 0.17178 0.0
C208 C 0.16546 0.51792 0.15277 0.0
C209 C 0.20096 0.53071 0.15893 0.0
C210 C 0.20994 0.51592 0.18468 0.0
C211 C 0.18352 0.48857 0.20389 0.0
C212 C 0.14784 0.47677 0.19734 0.0
H213 H 0.60433 0.07448 0.63635 0.0
H214 H 0.6692 0.1412 0.5577 0.0
H215 H 0.71764 0.17443 0.59583 0.0
H216 H 0.62556 0.13831 0.69044 0.0
H217 H 0.62607 0.11495 0.72605 0.0
H218 H 0.59958 0.09121 0.69223 0.0
H219 H 0.6305 0.0546 0.68817 0.0
H220 H 0.65626 0.07723 0.72285 0.0
H221 H 0.67776 0.07656 0.68568 0.0
H222 H 0.75419 0.20701 0.64433 0.0
H223 H 0.7796 0.23057 0.69785 0.0
H224 H 0.69024 0.14221 0.74467 0.0
C225 C 0.62955 0.09467 0.62694 0.0
C226 C 0.63362 0.10462 0.594 0.0
C227 C 0.66618 0.13245 0.58264 0.0
C228 C 0.69359 0.15173 0.60425 0.0
C229 C 0.68796 0.14264 0.63704 0.0
C230 C 0.65703 0.11413 0.6482 0.0
C231 C 0.65607 0.11171 0.68481 0.0
C232 C 0.62498 0.1142 0.6992 0.0
C233 C 0.65511 0.07803 0.69604 0.0
C234 C 0.69076 0.14386 0.69262 0.0
C235 C 0.70884 0.16142 0.66482 0.0
C236 C 0.74054 0.19306 0.6662 0.0
C237 C 0.75457 0.20648 0.69673 0.0
C238 C 0.73694 0.18825 0.72547 0.0
C239 C 0.70449 0.15668 0.72317 0.0
H240 H 0.538 0.6293 0.09399 0.0
H241 H 0.5872 0.57903 0.14348 0.0
H242 H 0.61777 0.63053 0.17933 0.0
H243 H 0.61428 0.72012 0.0984 0.0
H244 H 0.58628 0.7386 0.10422 0.0
H245 H 0.57121 0.69928 0.08092 0.0
H246 H 0.51617 0.66745 0.11829 0.0
H247 H 0.53115 0.70654 0.14176 0.0
H248 H 0.52166 0.66615 0.16134 0.0
H249 H 0.63587 0.68421 0.21467 0.0
H250 H 0.64409 0.73729 0.24292 0.0
H251 H 0.58677 0.75423 0.16729 0.0
C252 C 0.55601 0.62969 0.11182 0.0
C253 C 0.56074 0.60057 0.11585 0.0
C254 C 0.58382 0.60144 0.13979 0.0
C255 C 0.60111 0.63049 0.16028 0.0
C256 C 0.59542 0.65865 0.15612 0.0
C257 C 0.57389 0.6587 0.13204 0.0
C258 C 0.57105 0.69148 0.13328 0.0
C259 C 0.58664 0.71369 0.10237 0.0
C260 C 0.53274 0.68234 0.13902 0.0
C261 C 0.59347 0.70945 0.16236 0.0
C262 C 0.60723 0.69013 0.17537 0.0
C263 C 0.62597 0.69997 0.20417 0.0
C264 C 0.63052 0.73012 0.22009 0.0
C265 C 0.61688 0.75039 0.20692 0.0
C266 C 0.59858 0.74001 0.17743 0.0
H267 H 0.95038 0.48115 0.65175 0.0
H268 H 0.93223 0.49513 0.5512 0.0
H269 H 0.89393 0.51815 0.56886 0.0
H270 H 0.86238 0.45046 0.67976 0.0
H271 H 0.87523 0.47219 0.71819 0.0
H272 H 0.90287 0.45875 0.69783 0.0
H273 H 0.95532 0.52225 0.69968 0.0
H274 H 0.92795 0.53583 0.72034 0.0
H275 H 0.95054 0.55748 0.68331 0.0
H276 H 0.85639 0.53832 0.5975 0.0
H277 H 0.82462 0.55674 0.63472 0.0
H278 H 0.86464 0.52692 0.71688 0.0
C279 C 0.93835 0.48896 0.63333 0.0
C280 C 0.94448 0.4862 0.59994 0.0
C281 C 0.92854 0.49738 0.57684 0.0
C282 C 0.90641 0.51018 0.58667 0.0
C283 C 0.90031 0.51162 0.6197 0.0
C284 C 0.91596 0.50147 0.64269 0.0
C285 C 0.90476 0.50522 0.67667 0.0
C286 C 0.88514 0.46953 0.69413 0.0
C287 C 0.93653 0.53178 0.69614 0.0
C288 C 0.88025 0.51906 0.66925 0.0
C289 C 0.87813 0.52258 0.63622 0.0
C290 C 0.85783 0.5356 0.62338 0.0
C291 C 0.8398 0.54594 0.64477 0.0
C292 C 0.84188 0.54308 0.67876 0.0
C293 C 0.86204 0.52894 0.69106 0.0
H294 H 0.38675 0.91409 0.08629 0.0
H295 H 0.47718 0.98226 0.14338 0.0
H296 H 0.44073 0.96137 0.19327 0.0
H297 H 0.31952 0.92179 0.13988 0.0
H298 H 0.28722 0.8766 0.133 0.0
H299 H 0.31914 0.9017 0.10184 0.0
H300 H 0.33746 0.85447 0.09985 0.0
H301 H 0.30665 0.82987 0.1318 0.0
H302 H 0.35248 0.84374 0.13617 0.0
H303 H 0.39788 0.92381 0.23706 0.0
H304 H 0.34754 0.88222 0.2716 0.0
H305 H 0.28341 0.84149 0.18643 0.0
C306 C 0.39821 0.92616 0.10912 0.0
C307 C 0.43448 0.95057 0.111 0.0
C308 C 0.44918 0.96449 0.14144 0.0
C309 C 0.42877 0.95234 0.16992 0.0
C310 C 0.39353 0.92667 0.16749 0.0
C311 C 0.37797 0.91467 0.13779 0.0
C312 C 0.34004 0.88571 0.14204 0.0
C313 C 0.31499 0.89714 0.12839 0.0
C314 C 0.33383 0.85144 0.12654 0.0
C315 C 0.33714 0.88249 0.17863 0.0
C316 C 0.3684 0.90605 0.19287 0.0
C317 C 0.37299 0.90588 0.22623 0.0
C318 C 0.34449 0.88189 0.24562 0.0
C319 C 0.31176 0.85884 0.23162 0.0
C320 C 0.30817 0.85909 0.1977 0.0
H321 H 0.48827 0.46637 0.67053 0.0
H322 H 0.44559 0.40911 0.58196 0.0
H323 H 0.41821 0.35329 0.61319 0.0
H324 H 0.51583 0.41264 0.69993 0.0
H325 H 0.50697 0.41647 0.74196 0.0
H326 H 0.51576 0.45121 0.71403 0.0
H327 H 0.45664 0.44695 0.73013 0.0
H328 H 0.44765 0.4121 0.75829 0.0
H329 H 0.41641 0.40553 0.72743 0.0
H330 H 0.40354 0.30319 0.6538 0.0
H331 H 0.40546 0.26573 0.6977 0.0
H332 H 0.46051 0.35712 0.75805 0.0
C333 C 0.47237 0.44214 0.65776 0.0
C334 C 0.46905 0.44212 0.62378 0.0
C335 C 0.44811 0.40983 0.60802 0.0
C336 C 0.43258 0.37799 0.62561 0.0
C337 C 0.43795 0.37893 0.65897 0.0
C338 C 0.4572 0.4104 0.67481 0.0
C339 C 0.46323 0.40486 0.70974 0.0
C340 C 0.50277 0.4223 0.7168 0.0
C341 C 0.44488 0.41815 0.73275 0.0
C342 C 0.4456 0.36537 0.71097 0.0
C343 C 0.43039 0.35061 0.68179 0.0
C344 C 0.41483 0.31453 0.67687 0.0
C345 C 0.41584 0.29337 0.70198 0.0
C346 C 0.43289 0.3085 0.73134 0.0
C347 C 0.44695 0.34476 0.736 0.0
H348 H 0.55354 0.99771 0.3981 0.0
H349 H 0.5991 0.98326 0.48487 0.0
H350 H 0.62564 0.95498 0.45237 0.0
H351 H 0.52665 0.9171 0.36668 0.0
H352 H 0.53515 0.93086 0.32485 0.0
H353 H 0.52607 0.95579 0.35366 0.0
H354 H 0.58469 0.0116 0.3381 0.0
H355 H 0.5939 0.98683 0.30898 0.0
H356 H 0.62524 0.01096 0.33993 0.0
H357 H 0.63896 0.91955 0.41089 0.0
H358 H 0.63803 0.88223 0.3657 0.0
H359 H 0.58326 0.92054 0.30695 0.0
C360 C 0.56999 0.98954 0.41013 0.0
C361 C 0.57441 0.99284 0.444 0.0
C362 C 0.59583 0.98151 0.45889 0.0
C363 C 0.61084 0.96525 0.44059 0.0
C364 C 0.60457 0.96097 0.40736 0.0
C365 C 0.58498 0.97331 0.39229 0.0
C366 C 0.57889 0.96264 0.35714 0.0
C367 C 0.53936 0.94027 0.3502 0.0
C368 C 0.59676 0.99493 0.33471 0.0
C369 C 0.59694 0.94122 0.35488 0.0
C370 C 0.61209 0.94083 0.38386 0.0
C371 C 0.62777 0.92031 0.38795 0.0
C372 C 0.62721 0.89922 0.3621 0.0
C373 C 0.61079 0.89853 0.33261 0.0
C374 C 0.59639 0.92063 0.32896 0.0
H375 H 0.65614 0.54798 0.98662 0.0
H376 H 0.57243 0.54115 0.92773 0.0
H377 H 0.61024 0.55509 0.87889 0.0
H378 H 0.73111 0.62086 0.93711 0.0
H379 H 0.75849 0.60192 0.94378 0.0
H380 H 0.72682 0.59746 0.97424 0.0
H381 H 0.70025 0.53024 0.97312 0.0
H382 H 0.73084 0.53428 0.9418 0.0
H383 H 0.6843 0.5073 0.93554 0.0
H384 H 0.65228 0.55711 0.83582 0.0
H385 H 0.70144 0.56168 0.80223 0.0
H386 H 0.76002 0.57194 0.889 0.0
C387 C 0.6467 0.55165 0.96371 0.0
C388 C 0.61181 0.54463 0.96097 0.0
C389 C 0.5995 0.54771 0.93037 0.0
C390 C 0.62062 0.55505 0.90247 0.0
C391 C 0.65422 0.5598 0.90567 0.0
C392 C 0.66774 0.55955 0.93565 0.0
C393 C 0.70403 0.56377 0.93222 0.0
C394 C 0.73176 0.59805 0.94775 0.0
C395 C 0.70487 0.532 0.94652 0.0
C396 C 0.70828 0.56526 0.89569 0.0
C397 C 0.67905 0.56243 0.8808 0.0
C398 C 0.67565 0.56021 0.84722 0.0
C399 C 0.70343 0.56229 0.82835 0.0
C400 C 0.73433 0.56708 0.8431 0.0
C401 C 0.73664 0.56839 0.87718 0.0
H402 H 0.05246 0.55347 0.4365 0.0
H403 H 0.13282 0.57359 0.5062 0.0
H404 H 0.17304 0.63004 0.47861 0.0
H405 H 0.10708 0.58467 0.36894 0.0
H406 H 0.08479 0.60437 0.34937 0.0
H407 H 0.06095 0.56788 0.37668 0.0
H408 H 0.04137 0.60404 0.41136 0.0
H409 H 0.06441 0.64042 0.38369 0.0
H410 H 0.07398 0.6462 0.42625 0.0
H411 H 0.20673 0.68083 0.43881 0.0
H412 H 0.22827 0.72547 0.39492 0.0
H413 H 0.12489 0.67255 0.35237 0.0
C414 C 0.07802 0.57054 0.44666 0.0
C415 C 0.08934 0.55985 0.47396 0.0
C416 C 0.12344 0.58198 0.48589 0.0
C417 C 0.14652 0.61384 0.47014 0.0
C418 C 0.13497 0.62318 0.44258 0.0
C419 C 0.10121 0.60249 0.43137 0.0
C420 C 0.0956 0.61763 0.40059 0.0
C421 C 0.08658 0.59211 0.37223 0.0
C422 C 0.06716 0.62768 0.4058 0.0
C423 C 0.13158 0.64975 0.39586 0.0
C424 C 0.15406 0.65245 0.42015 0.0
C425 C 0.18915 0.67921 0.41996 0.0
C426 C 0.20126 0.70428 0.39477 0.0
C427 C 0.17827 0.70261 0.37026 0.0
C428 C 0.14308 0.67474 0.37086 0.0
H429 H 0.52577 0.11042 0.96245 0.0
H430 H 0.43858 0.0068 0.94355 0.0
H431 H 0.41103 0.03309 0.91005 0.0
H432 H 0.4758 0.15776 0.9632 0.0
H433 H 0.51154 0.19543 0.94341 0.0
H434 H 0.52047 0.16843 0.96985 0.0
H435 H 0.55561 0.15974 0.9236 0.0
H436 H 0.54661 0.18641 0.897 0.0
H437 H 0.53469 0.14252 0.88546 0.0
H438 H 0.39741 0.07201 0.8724 0.0
H439 H 0.39963 0.11819 0.83612 0.0
H440 H 0.49687 0.19457 0.88042 0.0
C441 C 0.50041 0.09328 0.95193 0.0
C442 C 0.48422 0.05661 0.95564 0.0
C443 C 0.45119 0.03501 0.94134 0.0
C444 C 0.43548 0.04976 0.92218 0.0
C445 C 0.45299 0.08612 0.91792 0.0
C446 C 0.48462 0.10749 0.93284 0.0
C447 C 0.50009 0.14531 0.92258 0.0
C448 C 0.50207 0.16807 0.95148 0.0
C449 C 0.53637 0.15928 0.90618 0.0
C450 C 0.47293 0.142 0.89869 0.0
C451 C 0.44558 0.1079 0.89646 0.0
C452 C 0.41853 0.09883 0.87438 0.0
C453 C 0.41991 0.12518 0.85389 0.0
C454 C 0.44842 0.15995 0.85538 0.0
C455 C 0.47469 0.16825 0.87858 0.0
H456 H 0.38935 0.52525 0.47335 0.0
H457 H 0.43659 0.46037 0.46015 0.0
H458 H 0.39752 0.4315 0.41388 0.0
H459 H 0.29892 0.46078 0.44593 0.0
H460 H 0.29446 0.4946 0.4259 0.0
H461 H 0.32084 0.50467 0.46158 0.0
H462 H 0.3736 0.55403 0.42976 0.0
H463 H 0.34777 0.54365 0.39379 0.0
H464 H 0.38869 0.54362 0.39297 0.0
H465 H 0.35958 0.41602 0.36466 0.0
H466 H 0.32248 0.41136 0.31872 0.0
H467 H 0.30232 0.4891 0.36216 0.0
C468 C 0.3907 0.50417 0.46134 0.0
C469 C 0.41593 0.49491 0.47043 0.0
C470 C 0.4171 0.46745 0.454 0.0
C471 C 0.39523 0.45118 0.42749 0.0
C472 C 0.37231 0.46262 0.4179 0.0
C473 C 0.36954 0.48816 0.43465 0.0
C474 C 0.34539 0.49818 0.41777 0.0
C475 C 0.31297 0.489 0.43906 0.0
C476 C 0.36505 0.53717 0.408 0.0
C477 C 0.3356 0.47493 0.38836 0.0
C478 C 0.35113 0.45439 0.3891 0.0
C479 C 0.34694 0.43163 0.3641 0.0
C480 C 0.3259 0.42933 0.33799 0.0
C481 C 0.3094 0.44987 0.33677 0.0
C482 C 0.3146 0.47314 0.3623 0.0
H483 H 0.9056 0.44862 0.98504 0.0
H484 H 0.01061 0.47512 0.9547 0.0
H485 H 0.9857 0.42407 0.91817 0.0
H486 H 0.86632 0.35059 0.98088 0.0
H487 H 0.82519 0.34474 0.96668 0.0
H488 H 0.85169 0.38033 0.99339 0.0
H489 H 0.85119 0.42392 0.95171 0.0
H490 H 0.82557 0.38871 0.92445 0.0
H491 H 0.867 0.42513 0.91102 0.0
H492 H 0.94917 0.37694 0.87832 0.0
H493 H 0.904 0.32969 0.8452 0.0
H494 H 0.82222 0.33083 0.90387 0.0
C495 C 0.92327 0.44262 0.97177 0.0
C496 C 0.96003 0.46527 0.97305 0.0
C497 C 0.98246 0.4575 0.95461 0.0
C498 C 0.96849 0.42883 0.93355 0.0
C499 C 0.93206 0.40792 0.93169 0.0
C500 C 0.90974 0.4138 0.95104 0.0
C501 C 0.87159 0.38828 0.94346 0.0
C502 C 0.85257 0.36457 0.97285 0.0
C503 C 0.85275 0.40768 0.93198 0.0
C504 C 0.87589 0.36779 0.91617 0.0
C505 C 0.911 0.37979 0.90955 0.0
C506 C 0.92162 0.3668 0.88378 0.0
C507 C 0.89574 0.34021 0.86488 0.0
C508 C 0.85958 0.32644 0.87205 0.0
C509 C 0.84964 0.34058 0.89803 0.0
H510 H 0.91316 0.54483 0.97261 0.0
H511 H 0.02062 0.61809 0.94432 0.0
H512 H 0.99944 0.64281 0.90208 0.0
H513 H 0.8837 0.52177 0.89783 0.0
H514 H 0.84061 0.5161 0.90452 0.0
H515 H 0.86381 0.51131 0.93769 0.0
H516 H 0.8583 0.5587 0.96984 0.0
H517 H 0.83447 0.56333 0.93686 0.0
H518 H 0.87329 0.60112 0.95168 0.0
H519 H 0.96543 0.65138 0.85614 0.0
H520 H 0.92316 0.64234 0.81265 0.0
H521 H 0.83913 0.56114 0.87079 0.0
C522 C 0.93221 0.5672 0.95849 0.0
C523 C 0.96846 0.57995 0.96193 0.0
C524 C 0.99274 0.60853 0.9425 0.0
C525 C 0.98087 0.62254 0.91834 0.0
C526 C 0.94469 0.60781 0.91422 0.0
C527 C 0.92078 0.581 0.93422 0.0
C528 C 0.88366 0.56586 0.92234 0.0
C529 C 0.86701 0.52647 0.91516 0.0
C530 C 0.8611 0.57268 0.94663 0.0
C531 C 0.89036 0.5871 0.89168 0.0
C532 C 0.92549 0.61181 0.88758 0.0
C533 C 0.9378 0.63255 0.85951 0.0
C534 C 0.91369 0.62732 0.83494 0.0
C535 C 0.878 0.60104 0.83844 0.0
C536 C 0.86631 0.58147 0.8675 0.0
H537 H 0.44964 0.9233 0.46879 0.0
H538 H 0.45292 0.02271 0.46151 0.0
H539 H 0.39345 0.9928 0.43773 0.0
H540 H 0.41326 0.89203 0.39526 0.0
H541 H 0.38638 0.84696 0.40786 0.0
H542 H 0.42589 0.87528 0.42918 0.0
H543 H 0.39044 0.86129 0.48309 0.0
H544 H 0.3507 0.83263 0.46191 0.0
H545 H 0.35327 0.86788 0.48588 0.0
H546 H 0.33694 0.95216 0.40673 0.0
H547 H 0.2898 0.90552 0.37394 0.0
H548 H 0.32467 0.83374 0.4034 0.0
C549 C 0.4374 0.93862 0.46301 0.0
C550 C 0.45571 0.97524 0.46707 0.0
C551 C 0.43906 0.99452 0.45898 0.0
C552 C 0.40537 0.97774 0.44536 0.0
C553 C 0.38852 0.94161 0.44051 0.0
C554 C 0.40392 0.9223 0.44964 0.0
C555 C 0.38218 0.88451 0.43962 0.0
C556 C 0.40318 0.87412 0.41662 0.0
C557 C 0.36832 0.86014 0.4694 0.0
C558 C 0.35275 0.88566 0.42229 0.0
C559 C 0.3564 0.91859 0.42322 0.0
C560 C 0.33353 0.92613 0.40645 0.0
C561 C 0.30678 0.8995 0.3879 0.0
C562 C 0.3034 0.86592 0.38615 0.0
C563 C 0.32627 0.85901 0.40431 0.0
H564 H 0.48142 0.42394 0.97063 0.0
H565 H 0.57092 0.42031 1.00782 0.0
H566 H 0.55618 0.36875 0.97407 0.0
H567 H 0.42215 0.32499 0.95847 0.0
H568 H 0.40532 0.33274 0.92175 0.0
H569 H 0.41785 0.36333 0.9546 0.0
H570 H 0.45914 0.41322 0.91524 0.0
H571 H 0.44783 0.38283 0.88254 0.0
H572 H 0.49315 0.40998 0.89351 0.0
H573 H 0.54007 0.32725 0.92764 0.0
H574 H 0.51781 0.29217 0.87786 0.0
H575 H 0.43792 0.3218 0.8713 0.0
C576 C 0.49642 0.41076 0.97318 0.0
C577 C 0.52664 0.42527 0.99247 0.0
C578 C 0.54704 0.40876 0.99392 0.0
C579 C 0.53906 0.37972 0.97455 0.0
C580 C 0.51041 0.3674 0.95407 0.0
C581 C 0.48878 0.38176 0.95389 0.0
C582 C 0.46209 0.36629 0.92714 0.0
C583 C 0.42463 0.3456 0.94134 0.0
C584 C 0.46581 0.39478 0.90321 0.0
C585 C 0.47303 0.34217 0.91152 0.0
C586 C 0.5009 0.3431 0.92741 0.0
C587 C 0.51764 0.32557 0.91552 0.0
C588 C 0.50511 0.30606 0.88706 0.0
C589 C 0.47602 0.3041 0.87092 0.0
C590 C 0.45985 0.32237 0.88345 0.0
H591 H 0.05983 0.46019 0.40865 0.0
H592 H 0.07003 0.4126 0.49659 0.0
H593 H 0.09485 0.38261 0.46462 0.0
H594 H 0.04292 0.38685 0.3518 0.0
H595 H 0.06906 0.41749 0.32024 0.0
H596 H 0.04504 0.4286 0.34885 0.0
H597 H 0.10256 0.48518 0.36339 0.0
H598 H 0.12672 0.4742 0.33508 0.0
H599 H 0.13969 0.48203 0.37681 0.0
H600 H 0.12869 0.36707 0.4247 0.0
H601 H 0.167 0.36646 0.38087 0.0
H602 H 0.13538 0.42483 0.31891 0.0
C603 C 0.06634 0.44265 0.4211 0.0
C604 C 0.06288 0.4387 0.45519 0.0
C605 C 0.07186 0.41562 0.47051 0.0
C606 C 0.08616 0.3986 0.4525 0.0
C607 C 0.09092 0.40457 0.41912 0.0
C608 C 0.08081 0.42573 0.40353 0.0
C609 C 0.09237 0.43132 0.36824 0.0
C610 C 0.06044 0.41508 0.34597 0.0
C611 C 0.11678 0.47049 0.36045 0.0
C612 C 0.11197 0.41131 0.36665 0.0
C613 C 0.11038 0.39558 0.3961 0.0
C614 C 0.1294 0.37859 0.40137 0.0
C615 C 0.15116 0.37841 0.37629 0.0
C616 C 0.15393 0.3952 0.34624 0.0
C617 C 0.13321 0.41096 0.34123 0.0
H618 H 0.60861 0.11042 0.95684 0.0
H619 H 0.59426 1.00585 0.9597 0.0
H620 H 0.65126 0.02772 0.93092 0.0
H621 H 0.64187 0.13074 0.87812 0.0
H622 H 0.67269 0.17621 0.88566 0.0
H623 H 0.63341 0.15331 0.91014 0.0
H624 H 0.6708 0.16993 0.96195 0.0
H625 H 0.71027 0.19307 0.9376 0.0
H626 H 0.70504 0.1591 0.96524 0.0
H627 H 0.7069 0.06019 0.89597 0.0
H628 H 0.75649 0.10028 0.86014 0.0
H629 H 0.73363 0.18324 0.88032 0.0
C630 C 0.61763 0.09214 0.95185 0.0
C631 C 0.59684 0.05633 0.96056 0.0
C632 C 0.60983 0.03344 0.95368 0.0
C633 C 0.64212 0.04563 0.93716 0.0
C634 C 0.66133 0.08087 0.92796 0.0
C635 C 0.64966 0.10385 0.93541 0.0
C636 C 0.67391 0.13993 0.92121 0.0
C637 C 0.65429 0.15065 0.89737 0.0
C638 C 0.69102 0.16711 0.94811 0.0
C639 C 0.70066 0.13357 0.90385 0.0
C640 C 0.69318 0.09944 0.90816 0.0
C641 C 0.71323 0.08708 0.89286 0.0
C642 C 0.74136 0.11006 0.87248 0.0
C643 C 0.74925 0.14506 0.86749 0.0
C644 C 0.72873 0.15685 0.88385 0.0
H645 H 0.55067 0.61391 0.46854 0.0
H646 H 0.46465 0.62308 0.50905 0.0
H647 H 0.48009 0.67364 0.47297 0.0
H648 H 0.61241 0.71151 0.45075 0.0
H649 H 0.62723 0.70134 0.41367 0.0
H650 H 0.61467 0.67196 0.44795 0.0
H651 H 0.57076 0.6214 0.41185 0.0
H652 H 0.58214 0.65066 0.37779 0.0
H653 H 0.53705 0.6255 0.3914 0.0
H654 H 0.49658 0.71398 0.42479 0.0
H655 H 0.51882 0.7474 0.3734 0.0
H656 H 0.59453 0.71229 0.36449 0.0
C657 C 0.53665 0.62811 0.47119 0.0
C658 C 0.50722 0.61549 0.49218 0.0
C659 C 0.48799 0.63324 0.49382 0.0
C660 C 0.49636 0.6617 0.47316 0.0
C661 C 0.52417 0.67216 0.45116 0.0
C662 C 0.54465 0.6565 0.45061 0.0
C663 C 0.5705 0.66999 0.42237 0.0
C664 C 0.60846 0.6899 0.43441 0.0
C665 C 0.56474 0.6401 0.39952 0.0
C666 C 0.56043 0.69454 0.40644 0.0
C667 C 0.53374 0.69555 0.42341 0.0
C668 C 0.5181 0.71409 0.41175 0.0
C669 C 0.53061 0.73268 0.38238 0.0
C670 C 0.55853 0.73264 0.36509 0.0
C671 C 0.57349 0.71325 0.37741 0.0
H672 H 0.4979 0.07825 0.61091 0.0
H673 H 0.56982 0.17272 0.55824 0.0
H674 H 0.55325 0.20721 0.59392 0.0
H675 H 0.42955 0.1037 0.63177 0.0
H676 H 0.42212 0.08341 0.67118 0.0
H677 H 0.43433 0.06582 0.6374 0.0
H678 H 0.48658 0.07135 0.67018 0.0
H679 H 0.47536 0.09001 0.70365 0.0
H680 H 0.51867 0.11349 0.68555 0.0
H681 H 0.53702 0.23243 0.64135 0.0
H682 H 0.51611 0.24548 0.69247 0.0
H683 H 0.45449 0.13428 0.71403 0.0
C684 C 0.50847 0.10584 0.60579 0.0
C685 C 0.53413 0.12278 0.58122 0.0
C686 C 0.54918 0.15926 0.57627 0.0
C687 C 0.5402 0.17904 0.59666 0.0
C688 C 0.51613 0.16186 0.62183 0.0
C689 C 0.49985 0.12593 0.62603 0.0
C690 C 0.47754 0.11426 0.6567 0.0
C691 C 0.43857 0.09039 0.64878 0.0
C692 C 0.49032 0.09623 0.6804 0.0
C693 C 0.48448 0.14924 0.66951 0.0
C694 C 0.50683 0.17641 0.64913 0.0
C695 C 0.51892 0.21129 0.65715 0.0
C696 C 0.5072 0.21849 0.68637 0.0
C697 C 0.48353 0.19092 0.70713 0.0
C698 C 0.47224 0.15592 0.69849 0.0
H699 H 0.45258 0.5003 0.1524 0.0
H700 H 0.42177 0.48758 0.05188 0.0
H701 H 0.35923 0.4573 0.06915 0.0
H702 H 0.37896 0.41614 0.18204 0.0
H703 H 0.37536 0.43465 0.21973 0.0
H704 H 0.41735 0.45243 0.1993 0.0
H705 H 0.42369 0.51403 0.19919 0.0
H706 H 0.38189 0.49648 0.21971 0.0
H707 H 0.38953 0.51981 0.1819 0.0
H708 H 0.30033 0.43461 0.09784 0.0
H709 H 0.25046 0.4202 0.13523 0.0
H710 H 0.31966 0.44536 0.21694 0.0
C711 C 0.43266 0.49085 0.13399 0.0
C712 C 0.44209 0.49634 0.10074 0.0
C713 C 0.4152 0.48338 0.07744 0.0
C714 C 0.3796 0.46621 0.08706 0.0
C715 C 0.37126 0.46172 0.12007 0.0
C716 C 0.39707 0.47339 0.14316 0.0
C717 C 0.38136 0.46676 0.17707 0.0
C718 C 0.38869 0.44096 0.19562 0.0
C719 C 0.39492 0.50132 0.19554 0.0
C720 C 0.3427 0.45043 0.16953 0.0
C721 C 0.33735 0.44761 0.13651 0.0
C722 C 0.30416 0.43605 0.12372 0.0
C723 C 0.27595 0.42786 0.14514 0.0
C724 C 0.28095 0.43097 0.17902 0.0
C725 C 0.3147 0.44167 0.19124 0.0
H726 H 0.9765 0.41407 0.66343 0.0
H727 H 0.96269 0.3582 0.57378 0.0
H728 H 0.93902 0.3026 0.60467 0.0
H729 H 0.9972 0.35694 0.71585 0.0
H730 H 0.97293 0.36061 0.74957 0.0
H731 H 0.99502 0.39633 0.72102 0.0
H732 H 0.93648 0.39515 0.71091 0.0
H733 H 0.91428 0.35951 0.73926 0.0
H734 H 0.89866 0.35491 0.69846 0.0
H735 H 0.90632 0.25232 0.64432 0.0
H736 H 0.87006 0.21266 0.6889 0.0
H737 H 0.90684 0.30147 0.75296 0.0
C738 C 0.96948 0.39026 0.65038 0.0
C739 C 0.97159 0.39049 0.61617 0.0
C740 C 0.96185 0.35876 0.59996 0.0
C741 C 0.94823 0.32702 0.61735 0.0
C742 C 0.94508 0.32753 0.65099 0.0
C743 C 0.95599 0.3585 0.66736 0.0
C744 C 0.94665 0.35183 0.70309 0.0
C745 C 0.97994 0.36735 0.72359 0.0
C746 C 0.92259 0.36618 0.71352 0.0
C747 C 0.92733 0.31217 0.70414 0.0
C748 C 0.927 0.29858 0.67394 0.0
C749 C 0.90728 0.26267 0.66823 0.0
C750 C 0.88676 0.24029 0.69372 0.0
C751 C 0.88616 0.25377 0.72464 0.0
C752 C 0.90763 0.29012 0.72998 0.0
H753 H 0.54146 0.9431 0.11649 0.0
H754 H 0.48219 0.86613 0.04394 0.0
H755 H 0.49135 0.82231 0.07327 0.0
H756 H 0.60376 0.91106 0.13839 0.0
H757 H 0.60129 0.92035 0.18048 0.0
H758 H 0.59733 0.94692 0.14954 0.0
H759 H 0.53808 0.93399 0.17539 0.0
H760 H 0.54112 0.90644 0.20571 0.0
H761 H 0.50319 0.88923 0.18022 0.0
H762 H 0.49928 0.78478 0.11569 0.0
H763 H 0.50854 0.7583 0.16476 0.0
H764 H 0.55913 0.86011 0.21054 0.0
C765 C 0.53227 0.9176 0.10585 0.0
C766 C 0.51226 0.90816 0.07744 0.0
C767 C 0.49872 0.87406 0.06503 0.0
C768 C 0.50347 0.84898 0.08177 0.0
C769 C 0.52165 0.85857 0.11089 0.0
C770 C 0.53629 0.89232 0.12252 0.0
C771 C 0.55063 0.89516 0.15615 0.0
C772 C 0.59064 0.91982 0.15613 0.0
C773 C 0.53214 0.90688 0.18079 0.0
C774 C 0.54107 0.85761 0.1621 0.0
C775 C 0.52473 0.83687 0.13569 0.0
C776 C 0.51243 0.80094 0.13632 0.0
C777 C 0.51753 0.78607 0.16441 0.0
C778 C 0.53439 0.80703 0.19164 0.0
C779 C 0.54607 0.84323 0.19027 0.0
H780 H 0.56876 0.54065 0.66116 0.0
H781 H 0.61241 0.56296 0.56371 0.0
H782 H 0.67247 0.59162 0.58616 0.0
H783 H 0.63999 0.61883 0.70162 0.0
H784 H 0.63672 0.59343 0.73705 0.0
H785 H 0.59832 0.58162 0.71333 0.0
H786 H 0.58833 0.5189 0.70658 0.0
H787 H 0.62644 0.53047 0.73032 0.0
H788 H 0.62331 0.51332 0.6902 0.0
H789 H 0.7278 0.61048 0.62018 0.0
H790 H 0.77036 0.61352 0.66085 0.0
H791 H 0.68864 0.57555 0.73467 0.0
C792 C 0.59093 0.55209 0.64444 0.0
C793 C 0.58583 0.54944 0.61064 0.0
C794 C 0.61562 0.56498 0.58969 0.0
C795 C 0.64984 0.58126 0.60228 0.0
C796 C 0.65379 0.58207 0.63585 0.0
C797 C 0.62492 0.56791 0.65654 0.0
C798 C 0.63525 0.56794 0.69128 0.0
C799 C 0.62709 0.59189 0.71204 0.0
C800 C 0.61729 0.53045 0.70539 0.0
C801 C 0.67439 0.58308 0.687 0.0
C802 C 0.68498 0.59198 0.65505 0.0
C803 C 0.7198 0.60418 0.6453 0.0
C804 C 0.74391 0.60611 0.66854 0.0
C805 C 0.73277 0.59525 0.70087 0.0
C806 C 0.69791 0.58462 0.71019 0.0
H807 H 0.13187 0.66675 0.09455 0.0
H808 H 0.02533 0.61587 0.13203 0.0
H809 H 0.04361 0.66102 0.17462 0.0
H810 H 0.16963 0.67795 0.16534 0.0
H811 H 0.20848 0.71954 0.1569 0.0
H812 H 0.18546 0.69064 0.12431 0.0
H813 H 0.17852 0.73926 0.09617 0.0
H814 H 0.20209 0.7687 0.12861 0.0
H815 H 0.15905 0.76065 0.11815 0.0
H816 H 0.0766 0.70437 0.21975 0.0
H817 H 0.11998 0.73951 0.26169 0.0
H818 H 0.20461 0.7594 0.19491 0.0
C819 C 0.11211 0.66629 0.11074 0.0
C820 C 0.07715 0.63839 0.10978 0.0
C821 C 0.05206 0.63762 0.13195 0.0
C822 C 0.06233 0.66309 0.15629 0.0
C823 C 0.09767 0.68921 0.15782 0.0
C824 C 0.12205 0.69114 0.13518 0.0
C825 C 0.15912 0.7176 0.14465 0.0
C826 C 0.18197 0.70038 0.14802 0.0
C827 C 0.17566 0.74838 0.12046 0.0
C828 C 0.15217 0.72893 0.17704 0.0
C829 C 0.11662 0.71316 0.18402 0.0
C830 C 0.10442 0.71745 0.21413 0.0
C831 C 0.12916 0.7375 0.2378 0.0
C832 C 0.1655 0.75222 0.23132 0.0
C833 C 0.17692 0.74866 0.2003 0.0
loop_
_geom_bond_atom_site_label_1
_geom_bond_atom_site_label_2
_geom_bond_distance
_geom_bond_site_symmetry_2
_ccdc_geom_bond_type
H0 C6 0.930 . S
H1 C9 0.931 . S
H2 C11 0.931 1_455 S
H3 C13 0.930 . S
H4 C15 0.930 . S
H5 C17 0.931 . S
C6 H0 0.930 . S
C6 C7 1.380 . S
C6 C8 1.394 . S
C7 C6 1.380 . S
C7 C11 1.382 . S
C8 C6 1.394 . S
C8 C9 1.400 . S
C9 H1 0.931 . S
C9 C8 1.400 . S
C9 C10 1.349 1_655 S
C10 C9 1.349 1_455 S
C10 C11 1.423 1_455 S
C10 C12 1.519 1_556 S
C11 H2 0.931 1_655 S
C11 C7 1.382 . S
C11 C10 1.423 1_655 S
C12 C10 1.519 1_554 S
C12 C13 1.384 . S
C12 C17 1.408 . S
C13 H3 0.930 . S
C13 C12 1.384 . S
C13 C14 1.389 . S
C14 C13 1.389 . S
C14 C15 1.405 . S
C15 H4 0.930 . S
C15 C14 1.405 . S
C15 C16 1.364 . S
C16 C15 1.364 . S
C16 C17 1.400 . S
C17 H5 0.931 . S
C17 C12 1.408 . S
C17 C16 1.400 . S
H18 C24 0.930 . S
H19 C27 0.931 . S
H20 C29 0.931 . S
H21 C31 0.930 1_545 S
H22 C33 0.930 . S
H23 C35 0.931 . S
C24 H18 0.930 . S
C24 C25 1.380 . S
C24 C26 1.394 . S
C25 C24 1.380 . S
C25 C29 1.382 . S
C26 C24 1.394 . S
C26 C27 1.400 . S
C27 H19 0.931 . S
C27 C26 1.400 . S
C27 C28 1.375 . S
C28 C27 1.375 . S
C28 C29 1.415 . S
C28 C30 1.501 . S
C29 H20 0.931 . S
C29 C25 1.382 . S
C29 C28 1.415 . S
C30 C28 1.501 . S
C30 C31 1.384 1_545 S
C30 C35 1.408 1_545 S
C31 H21 0.930 1_565 S
C31 C30 1.384 1_565 S
C31 C32 1.389 . S
C32 C31 1.389 . S
C32 C33 1.405 . S
C33 H22 0.930 . S
C33 C32 1.405 . S
C33 C34 1.364 . S
C34 C33 1.364 . S
C34 C35 1.400 . S
C35 H23 0.931 . S
C35 C30 1.408 1_565 S
C35 C34 1.400 . S
H36 C42 0.930 . S
H37 C45 0.931 . S
H38 C47 0.931 . S
H39 C49 0.930 . S
H40 C51 0.930 . S
H41 C53 0.931 . S
C42 H36 0.930 . S
C42 C43 1.380 . S
C42 C44 1.394 . S
C43 C42 1.380 . S
C43 C47 1.382 . S
C44 C42 1.394 . S
C44 C45 1.400 . S
C45 H37 0.931 . S
C45 C44 1.400 . S
C45 C46 1.375 . S
C46 C45 1.375 . S
C46 C47 1.415 . S
C46 C48 1.501 1_554 S
C47 H38 0.931 . S
C47 C43 1.382 . S
C47 C46 1.415 . S
C48 C46 1.501 1_556 S
C48 C49 1.384 . S
C48 C53 1.408 . S
C49 H39 0.930 . S
C49 C48 1.384 . S
C49 C50 1.389 . S
C50 C49 1.389 . S
C50 C51 1.405 . S
C51 H40 0.930 . S
C51 C50 1.405 . S
C51 C52 1.364 . S
C52 C51 1.364 . S
C52 C53 1.400 . S
C53 H41 0.931 . S
C53 C48 1.408 . S
C53 C52 1.400 . S
H54 C60 0.930 . S
H55 C63 0.931 . S
H56 C65 0.931 . S
H57 C67 0.930 . S
H58 C69 0.930 . S
H59 C71 0.931 . S
C60 H54 0.930 . S
C60 C61 1.380 . S
C60 C62 1.394 . S
C61 C60 1.380 . S
C61 C65 1.382 . S
C62 C60 1.394 . S
C62 C63 1.400 . S
C63 H55 0.931 . S
C63 C62 1.400 . S
C63 C64 1.375 . S
C64 C63 1.375 . S
C64 C65 1.415 . S
C64 C66 1.501 1_655 S
C65 H56 0.931 . S
C65 C61 1.382 . S
C65 C64 1.415 . S
C66 C64 1.501 1_455 S
C66 C67 1.384 . S
C66 C71 1.408 . S
C67 H57 0.930 . S
C67 C66 1.384 . S
C67 C68 1.389 . S
C68 C67 1.389 . S
C68 C69 1.405 . S
C69 H58 0.930 . S
C69 C68 1.405 . S
C69 C70 1.364 . S
C70 C69 1.364 . S
C70 C71 1.400 . S
C71 H59 0.931 . S
C71 C66 1.408 . S
C71 C70 1.400 . S
H72 C78 0.930 . S
H73 C81 0.931 . S
H74 C83 0.931 . S
H75 C85 0.930 . S
H76 C87 0.930 . S
H77 C89 0.931 . S
C78 H72 0.930 . S
C78 C79 1.380 . S
C78 C80 1.394 . S
C79 C78 1.380 . S
C79 C83 1.382 . S
C80 C78 1.394 . S
C80 C81 1.400 . S
C81 H73 0.931 . S
C81 C80 1.400 . S
C81 C82 1.375 . S
C82 C81 1.375 . S
C82 C83 1.415 . S
C82 C84 1.501 1_564 S
C83 H74 0.931 . S
C83 C79 1.382 . S
C83 C82 1.415 . S
C84 C82 1.501 1_546 S
C84 C85 1.384 . S
C84 C89 1.408 . S
C85 H75 0.930 . S
C85 C84 1.384 . S
C85 C86 1.389 . S
C86 C85 1.389 . S
C86 C87 1.405 . S
C87 H76 0.930 . S
C87 C86 1.405 . S
C87 C88 1.364 . S
C88 C87 1.364 . S
C88 C89 1.400 . S
C89 H77 0.931 . S
C89 C84 1.408 . S
C89 C88 1.400 . S
H90 C96 0.930 . S
H91 C99 0.931 . S
H92 C101 0.931 . S
H93 C103 0.930 . S
H94 C105 0.930 . S
H95 C107 0.931 . S
C96 H90 0.930 . S
C96 C97 1.380 . S
C96 C98 1.394 . S
C97 C96 1.380 . S
C97 C101 1.382 . S
C98 C96 1.394 . S
C98 C99 1.400 . S
C99 H91 0.931 . S
C99 C98 1.400 . S
C99 C100 1.375 . S
C100 C99 1.375 . S
C100 C101 1.415 . S
C100 C102 1.501 . S
C101 H92 0.931 . S
C101 C97 1.382 . S
C101 C100 1.415 . S
C102 C100 1.501 . S
C102 C103 1.384 . S
C102 C107 1.408 . S
C103 H93 0.930 . S
C103 C102 1.384 . S
C103 C104 1.389 . S
C104 C103 1.389 . S
C104 C105 1.405 . S
C105 H94 0.930 . S
C105 C104 1.405 . S
C105 C106 1.364 . S
C106 C105 1.364 . S
C106 C107 1.400 . S
C107 H95 0.931 . S
C107 C102 1.408 . S
C107 C106 1.400 . S
Mg108 O115 2.141 . S
Mg108 O116 2.048 . S
Mg108 O117 2.048 . S
Mg108 O120 2.141 . S
C109 O110 1.313 . S
C109 O116 1.195 . S
O110 C109 1.313 . S
C111 O112 1.245 . S
C111 O120 1.289 . S
O112 C111 1.245 . S
C113 O114 1.245 . S
C113 O115 1.289 . S
O114 C113 1.245 . S
O115 Mg108 2.141 . S
O115 C113 1.289 . S
O116 Mg108 2.048 . S
O116 C109 1.195 . S
O117 Mg108 2.048 . S
O117 C118 1.195 . S
C118 O117 1.195 . S
C118 O119 1.313 . S
O119 C118 1.313 . S
O120 Mg108 2.141 . S
O120 C111 1.289 . S
Mg121 O128 2.141 . S
Mg121 O129 2.048 . S
Mg121 O130 2.048 . S
Mg121 O133 2.141 . S
C122 O123 1.313 . S
C122 O129 1.195 . S
O123 C122 1.313 . S
C124 O125 1.245 . S
C124 O133 1.289 . S
O125 C124 1.245 . S
C126 O127 1.245 . S
C126 O128 1.289 . S
O127 C126 1.245 . S
O128 Mg121 2.141 . S
O128 C126 1.289 . S
O129 Mg121 2.048 . S
O129 C122 1.195 . S
O130 Mg121 2.048 . S
O130 C131 1.195 . S
C131 O130 1.195 . S
C131 O132 1.313 . S
O132 C131 1.313 . S
O133 Mg121 2.141 . S
O133 C124 1.289 . S
Mg134 O141 2.141 . S
Mg134 O142 2.048 . S
Mg134 O143 2.048 . S
Mg134 O146 2.141 . S
C135 O136 1.313 . S
C135 O142 1.195 . S
O136 C135 1.313 . S
C137 O138 1.245 . S
C137 O146 1.289 . S
O138 C137 1.245 . S
C139 O140 1.245 . S
C139 O141 1.289 . S
O140 C139 1.245 . S
O141 Mg134 2.141 . S
O141 C139 1.289 . S
O142 Mg134 2.048 . S
O142 C135 1.195 . S
O143 Mg134 2.048 . S
O143 C144 1.195 . S
C144 O143 1.195 . S
C144 O145 1.313 . S
O145 C144 1.313 . S
O146 Mg134 2.141 . S
O146 C137 1.289 . S
Mg147 O154 2.141 . S
Mg147 O155 2.048 . S
Mg147 O156 2.048 . S
Mg147 O159 2.141 . S
C148 O149 1.313 . S
C148 O155 1.195 . S
O149 C148 1.313 . S
C150 O151 1.245 . S
C150 O159 1.289 . S
O151 C150 1.245 . S
C152 O153 1.245 . S
C152 O154 1.289 . S
O153 C152 1.245 . S
O154 Mg147 2.141 . S
O154 C152 1.289 . S
O155 Mg147 2.048 . S
O155 C148 1.195 . S
O156 Mg147 2.048 . S
O156 C157 1.195 . S
C157 O156 1.195 . S
C157 O158 1.313 . S
O158 C157 1.313 . S
O159 Mg147 2.141 . S
O159 C150 1.289 . S
Mg160 O167 2.141 . S
Mg160 O168 2.048 . S
Mg160 O169 2.048 . S
Mg160 O172 2.141 . S
C161 O162 1.313 . S
C161 O168 1.195 . S
O162 C161 1.313 . S
C163 O164 1.245 . S
C163 O172 1.289 . S
O164 C163 1.245 . S
C165 O166 1.245 . S
C165 O167 1.289 . S
O166 C165 1.245 . S
O167 Mg160 2.141 . S
O167 C165 1.289 . S
O168 Mg160 2.048 . S
O168 C161 1.195 . S
O169 Mg160 2.048 . S
O169 C170 1.195 . S
C170 O169 1.195 . S
C170 O171 1.313 . S
O171 C170 1.313 . S
O172 Mg160 2.141 . S
O172 C163 1.289 . S
Mg173 O180 2.141 . S
Mg173 O181 2.048 . S
Mg173 O182 2.048 . S
Mg173 O185 2.141 . S
C174 O175 1.313 . S
C174 O181 1.195 . S
O175 C174 1.313 . S
C176 O177 1.245 . S
C176 O185 1.289 . S
O177 C176 1.245 . S
C178 O179 1.245 . S
C178 O180 1.289 . S
O179 C178 1.245 . S
O180 Mg173 2.141 . S
O180 C178 1.289 . S
O181 Mg173 2.048 . S
O181 C174 1.195 . S
O182 Mg173 2.048 . S
O182 C183 1.195 . S
C183 O182 1.195 . S
C183 O184 1.313 . S
O184 C183 1.313 . S
O185 Mg173 2.141 . S
O185 C176 1.289 . S
H186 C198 0.930 . S
H187 C200 0.930 . S
H188 C201 0.930 . S
H189 C205 0.959 . S
H190 C205 0.959 . S
H191 C205 0.961 . S
H192 C206 0.960 . S
H193 C206 0.961 . S
H194 C206 0.959 . S
H195 C209 0.929 . S
H196 C210 0.931 . S
H197 C212 0.930 . S
C198 H186 0.930 . S
C198 C199 1.399 . S
C198 C203 1.399 . S
C199 C198 1.399 . S
C199 C200 1.376 . S
C200 H187 0.930 . S
C200 C199 1.376 . S
C200 C201 1.388 . S
C201 H188 0.930 . S
C201 C200 1.388 . S
C201 C202 1.390 . S
C202 C201 1.390 . S
C202 C203 1.394 . S
C202 C208 1.465 . S
C203 C198 1.399 . S
C203 C202 1.394 . S
C203 C204 1.516 . S
C204 C203 1.516 . S
C204 C205 1.502 . S
C204 C206 1.561 . S
C204 C207 1.526 . S
C205 H189 0.959 . S
C205 H190 0.959 . S
C205 H191 0.961 . S
C205 C204 1.502 . S
C206 H192 0.960 . S
C206 H193 0.961 . S
C206 H194 0.959 . S
C206 C204 1.561 . S
C207 C204 1.526 . S
C207 C208 1.396 . S
C207 C212 1.390 . S
C208 C202 1.465 . S
C208 C207 1.396 . S
C208 C209 1.399 . S
C209 H195 0.929 . S
C209 C208 1.399 . S
C209 C210 1.385 . S
C210 H196 0.931 . S
C210 C209 1.385 . S
C210 C211 1.389 . S
C211 C210 1.389 . S
C211 C212 1.387 . S
C212 H197 0.930 . S
C212 C207 1.390 . S
C212 C211 1.387 . S
H213 C225 0.930 . S
H214 C227 0.930 . S
H215 C228 0.930 . S
H216 C232 0.959 . S
H217 C232 0.959 . S
H218 C232 0.961 . S
H219 C233 0.960 . S
H220 C233 0.961 . S
H221 C233 0.959 . S
H222 C236 0.929 . S
H223 C237 0.931 . S
H224 C239 0.930 . S
C225 H213 0.930 . S
C225 C226 1.399 . S
C225 C230 1.399 . S
C226 C225 1.399 . S
C226 C227 1.376 . S
C227 H214 0.930 . S
C227 C226 1.376 . S
C227 C228 1.388 . S
C228 H215 0.930 . S
C228 C227 1.388 . S
C228 C229 1.390 . S
C229 C228 1.390 . S
C229 C230 1.394 . S
C229 C235 1.465 . S
C230 C225 1.399 . S
C230 C229 1.394 . S
C230 C231 1.516 . S
C231 C230 1.516 . S
C231 C232 1.502 . S
C231 C233 1.561 . S
C231 C234 1.526 . S
C232 H216 0.959 . S
C232 H217 0.959 . S
C232 H218 0.961 . S
C232 C231 1.502 . S
C233 H219 0.960 . S
C233 H220 0.961 . S
C233 H221 0.959 . S
C233 C231 1.561 . S
C234 C231 1.526 . S
C234 C235 1.396 . S
C234 C239 1.390 . S
C235 C229 1.465 . S
C235 C234 1.396 . S
C235 C236 1.399 . S
C236 H222 0.929 . S
C236 C235 1.399 . S
C236 C237 1.385 . S
C237 H223 0.931 . S
C237 C236 1.385 . S
C237 C238 1.389 . S
C238 C237 1.389 . S
C238 C239 1.387 . S
C239 H224 0.930 . S
C239 C234 1.390 . S
C239 C238 1.387 . S
H240 C252 0.930 . S
H241 C254 0.930 . S
H242 C255 0.930 . S
H243 C259 0.959 . S
H244 C259 0.959 . S
H245 C259 0.961 . S
H246 C260 0.960 . S
H247 C260 0.961 . S
H248 C260 0.959 . S
H249 C263 0.929 . S
H250 C264 0.931 . S
H251 C266 0.930 . S
C252 H240 0.930 . S
C252 C253 1.399 . S
C252 C257 1.399 . S
C253 C252 1.399 . S
C253 C254 1.376 . S
C254 H241 0.930 . S
C254 C253 1.376 . S
C254 C255 1.388 . S
C255 H242 0.930 . S
C255 C254 1.388 . S
C255 C256 1.390 . S
C256 C255 1.390 . S
C256 C257 1.394 . S
C256 C262 1.465 . S
C257 C252 1.399 . S
C257 C256 1.394 . S
C257 C258 1.516 . S
C258 C257 1.516 . S
C258 C259 1.502 . S
C258 C260 1.561 . S
C258 C261 1.526 . S
C259 H243 0.959 . S
C259 H244 0.959 . S
C259 H245 0.961 . S
C259 C258 1.502 . S
C260 H246 0.960 . S
C260 H247 0.961 . S
C260 H248 0.959 . S
C260 C258 1.561 . S
C261 C258 1.526 . S
C261 C262 1.396 . S
C261 C266 1.390 . S
C262 C256 1.465 . S
C262 C261 1.396 . S
C262 C263 1.399 . S
C263 H249 0.929 . S
C263 C262 1.399 . S
C263 C264 1.385 . S
C264 H250 0.931 . S
C264 C263 1.385 . S
C264 C265 1.389 . S
C265 C264 1.389 . S
C265 C266 1.387 . S
C266 H251 0.930 . S
C266 C261 1.390 . S
C266 C265 1.387 . S
H267 C279 0.930 . S
H268 C281 0.930 . S
H269 C282 0.930 . S
H270 C286 0.959 . S
H271 C286 0.959 . S
H272 C286 0.961 . S
H273 C287 0.960 . S
H274 C287 0.961 . S
H275 C287 0.959 . S
H276 C290 0.929 . S
H277 C291 0.931 . S
H278 C293 0.930 . S
C279 H267 0.930 . S
C279 C280 1.399 . S
C279 C284 1.399 . S
C280 C279 1.399 . S
C280 C281 1.376 . S
C281 H268 0.930 . S
C281 C280 1.376 . S
C281 C282 1.388 . S
C282 H269 0.930 . S
C282 C281 1.388 . S
C282 C283 1.390 . S
C283 C282 1.390 . S
C283 C284 1.394 . S
C283 C289 1.465 . S
C284 C279 1.399 . S
C284 C283 1.394 . S
C284 C285 1.516 . S
C285 C284 1.516 . S
C285 C286 1.502 . S
C285 C287 1.561 . S
C285 C288 1.526 . S
C286 H270 0.959 . S
C286 H271 0.959 . S
C286 H272 0.961 . S
C286 C285 1.502 . S
C287 H273 0.960 . S
C287 H274 0.961 . S
C287 H275 0.959 . S
C287 C285 1.561 . S
C288 C285 1.526 . S
C288 C289 1.396 . S
C288 C293 1.390 . S
C289 C283 1.465 . S
C289 C288 1.396 . S
C289 C290 1.399 . S
C290 H276 0.929 . S
C290 C289 1.399 . S
C290 C291 1.385 . S
C291 H277 0.931 . S
C291 C290 1.385 . S
C291 C292 1.389 . S
C292 C291 1.389 . S
C292 C293 1.387 . S
C293 H278 0.930 . S
C293 C288 1.390 . S
C293 C292 1.387 . S
H294 C306 0.930 . S
H295 C308 0.930 . S
H296 C309 0.930 . S
H297 C313 0.959 . S
H298 C313 0.959 . S
H299 C313 0.961 . S
H300 C314 0.960 . S
H301 C314 0.961 . S
H302 C314 0.959 . S
H303 C317 0.929 . S
H304 C318 0.931 . S
H305 C320 0.930 . S
C306 H294 0.930 . S
C306 C307 1.399 . S
C306 C311 1.399 . S
C307 C306 1.399 . S
C307 C308 1.376 . S
C308 H295 0.930 . S
C308 C307 1.376 . S
C308 C309 1.388 . S
C309 H296 0.930 . S
C309 C308 1.388 . S
C309 C310 1.390 . S
C310 C309 1.390 . S
C310 C311 1.394 . S
C310 C316 1.465 . S
C311 C306 1.399 . S
C311 C310 1.394 . S
C311 C312 1.516 . S
C312 C311 1.516 . S
C312 C313 1.502 . S
C312 C314 1.561 . S
C312 C315 1.526 . S
C313 H297 0.959 . S
C313 H298 0.959 . S
C313 H299 0.961 . S
C313 C312 1.502 . S
C314 H300 0.960 . S
C314 H301 0.961 . S
C314 H302 0.959 . S
C314 C312 1.561 . S
C315 C312 1.526 . S
C315 C316 1.396 . S
C315 C320 1.390 . S
C316 C310 1.465 . S
C316 C315 1.396 . S
C316 C317 1.399 . S
C317 H303 0.929 . S
C317 C316 1.399 . S
C317 C318 1.385 . S
C318 H304 0.931 . S
C318 C317 1.385 . S
C318 C319 1.389 . S
C319 C318 1.389 . S
C319 C320 1.387 . S
C320 H305 0.930 . S
C320 C315 1.390 . S
C320 C319 1.387 . S
H321 C333 0.930 . S
H322 C335 0.930 . S
H323 C336 0.930 . S
H324 C340 0.959 . S
H325 C340 0.959 . S
H326 C340 0.961 . S
H327 C341 0.960 . S
H328 C341 0.961 . S
H329 C341 0.959 . S
H330 C344 0.929 . S
H331 C345 0.931 . S
H332 C347 0.930 . S
C333 H321 0.930 . S
C333 C334 1.399 . S
C333 C338 1.399 . S
C334 C333 1.399 . S
C334 C335 1.376 . S
C335 H322 0.930 . S
C335 C334 1.376 . S
C335 C336 1.388 . S
C336 H323 0.930 . S
C336 C335 1.388 . S
C336 C337 1.390 . S
C337 C336 1.390 . S
C337 C338 1.394 . S
C337 C343 1.465 . S
C338 C333 1.399 . S
C338 C337 1.394 . S
C338 C339 1.516 . S
C339 C338 1.516 . S
C339 C340 1.502 . S
C339 C341 1.561 . S
C339 C342 1.526 . S
C340 H324 0.959 . S
C340 H325 0.959 . S
C340 H326 0.961 . S
C340 C339 1.502 . S
C341 H327 0.960 . S
C341 H328 0.961 . S
C341 H329 0.959 . S
C341 C339 1.561 . S
C342 C339 1.526 . S
C342 C343 1.396 . S
C342 C347 1.390 . S
C343 C337 1.465 . S
C343 C342 1.396 . S
C343 C344 1.399 . S
C344 H330 0.929 . S
C344 C343 1.399 . S
C344 C345 1.385 . S
C345 H331 0.931 . S
C345 C344 1.385 . S
C345 C346 1.389 . S
C346 C345 1.389 . S
C346 C347 1.387 . S
C347 H332 0.930 . S
C347 C342 1.390 . S
C347 C346 1.387 . S
H348 C360 0.930 . S
H349 C362 0.930 . S
H350 C363 0.930 . S
H351 C367 0.959 . S
H352 C367 0.959 . S
H353 C367 0.961 . S
H354 C368 0.960 . S
H355 C368 0.961 . S
H356 C368 0.959 . S
H357 C371 0.929 . S
H358 C372 0.931 . S
H359 C374 0.930 . S
C360 H348 0.930 . S
C360 C361 1.399 . S
C360 C365 1.399 . S
C361 C360 1.399 . S
C361 C362 1.376 . S
C362 H349 0.930 . S
C362 C361 1.376 . S
C362 C363 1.388 . S
C363 H350 0.930 . S
C363 C362 1.388 . S
C363 C364 1.390 . S
C364 C363 1.390 . S
C364 C365 1.394 . S
C364 C370 1.465 . S
C365 C360 1.399 . S
C365 C364 1.394 . S
C365 C366 1.516 . S
C366 C365 1.516 . S
C366 C367 1.502 . S
C366 C368 1.561 . S
C366 C369 1.526 . S
C367 H351 0.959 . S
C367 H352 0.959 . S
C367 H353 0.961 . S
C367 C366 1.502 . S
C368 H354 0.960 . S
C368 H355 0.961 . S
C368 H356 0.959 . S
C368 C366 1.561 . S
C369 C366 1.526 . S
C369 C370 1.396 . S
C369 C374 1.390 . S
C370 C364 1.465 . S
C370 C369 1.396 . S
C370 C371 1.399 . S
C371 H357 0.929 . S
C371 C370 1.399 . S
C371 C372 1.385 . S
C372 H358 0.931 . S
C372 C371 1.385 . S
C372 C373 1.389 . S
C373 C372 1.389 . S
C373 C374 1.387 . S
C374 H359 0.930 . S
C374 C369 1.390 . S
C374 C373 1.387 . S
H375 C387 0.930 . S
H376 C389 0.930 . S
H377 C390 0.930 . S
H378 C394 0.959 . S
H379 C394 0.959 . S
H380 C394 0.961 . S
H381 C395 0.960 . S
H382 C395 0.961 . S
H383 C395 0.959 . S
H384 C398 0.929 . S
H385 C399 0.931 . S
H386 C401 0.930 . S
C387 H375 0.930 . S
C387 C388 1.399 . S
C387 C392 1.399 . S
C388 C387 1.399 . S
C388 C389 1.376 . S
C389 H376 0.930 . S
C389 C388 1.376 . S
C389 C390 1.388 . S
C390 H377 0.930 . S
C390 C389 1.388 . S
C390 C391 1.390 . S
C391 C390 1.390 . S
C391 C392 1.394 . S
C391 C397 1.465 . S
C392 C387 1.399 . S
C392 C391 1.394 . S
C392 C393 1.516 . S
C393 C392 1.516 . S
C393 C394 1.502 . S
C393 C395 1.561 . S
C393 C396 1.526 . S
C394 H378 0.959 . S
C394 H379 0.959 . S
C394 H380 0.961 . S
C394 C393 1.502 . S
C395 H381 0.960 . S
C395 H382 0.961 . S
C395 H383 0.959 . S
C395 C393 1.561 . S
C396 C393 1.526 . S
C396 C397 1.396 . S
C396 C401 1.390 . S
C397 C391 1.465 . S
C397 C396 1.396 . S
C397 C398 1.399 . S
C398 H384 0.929 . S
C398 C397 1.399 . S
C398 C399 1.385 . S
C399 H385 0.931 . S
C399 C398 1.385 . S
C399 C400 1.389 . S
C400 C399 1.389 . S
C400 C401 1.387 . S
C401 H386 0.930 . S
C401 C396 1.390 . S
C401 C400 1.387 . S
H402 C414 0.930 . S
H403 C416 0.930 . S
H404 C417 0.930 . S
H405 C421 0.959 . S
H406 C421 0.959 . S
H407 C421 0.961 . S
H408 C422 0.960 . S
H409 C422 0.961 . S
H410 C422 0.959 . S
H411 C425 0.929 . S
H412 C426 0.931 . S
H413 C428 0.930 . S
C414 H402 0.930 . S
C414 C415 1.399 . S
C414 C419 1.399 . S
C415 C414 1.399 . S
C415 C416 1.376 . S
C416 H403 0.930 . S
C416 C415 1.376 . S
C416 C417 1.388 . S
C417 H404 0.930 . S
C417 C416 1.388 . S
C417 C418 1.390 . S
C418 C417 1.390 . S
C418 C419 1.394 . S
C418 C424 1.465 . S
C419 C414 1.399 . S
C419 C418 1.394 . S
C419 C420 1.516 . S
C420 C419 1.516 . S
C420 C421 1.502 . S
C420 C422 1.561 . S
C420 C423 1.526 . S
C421 H405 0.959 . S
C421 H406 0.959 . S
C421 H407 0.961 . S
C421 C420 1.502 . S
C422 H408 0.960 . S
C422 H409 0.961 . S
C422 H410 0.959 . S
C422 C420 1.561 . S
C423 C420 1.526 . S
C423 C424 1.396 . S
C423 C428 1.390 . S
C424 C418 1.465 . S
C424 C423 1.396 . S
C424 C425 1.399 . S
C425 H411 0.929 . S
C425 C424 1.399 . S
C425 C426 1.385 . S
C426 H412 0.931 . S
C426 C425 1.385 . S
C426 C427 1.389 . S
C427 C426 1.389 . S
C427 C428 1.387 . S
C428 H413 0.930 . S
C428 C423 1.390 . S
C428 C427 1.387 . S
H429 C441 0.930 . S
H430 C443 0.930 . S
H431 C444 0.930 . S
H432 C448 0.959 . S
H433 C448 0.959 . S
H434 C448 0.961 . S
H435 C449 0.960 . S
H436 C449 0.961 . S
H437 C449 0.959 . S
H438 C452 0.929 . S
H439 C453 0.931 . S
H440 C455 0.930 . S
C441 H429 0.930 . S
C441 C442 1.399 . S
C441 C446 1.399 . S
C442 C441 1.399 . S
C442 C443 1.376 . S
C443 H430 0.930 . S
C443 C442 1.376 . S
C443 C444 1.388 . S
C444 H431 0.930 . S
C444 C443 1.388 . S
C444 C445 1.390 . S
C445 C444 1.390 . S
C445 C446 1.394 . S
C445 C451 1.465 . S
C446 C441 1.399 . S
C446 C445 1.394 . S
C446 C447 1.516 . S
C447 C446 1.516 . S
C447 C448 1.502 . S
C447 C449 1.561 . S
C447 C450 1.526 . S
C448 H432 0.959 . S
C448 H433 0.959 . S
C448 H434 0.961 . S
C448 C447 1.502 . S
C449 H435 0.960 . S
C449 H436 0.961 . S
C449 H437 0.959 . S
C449 C447 1.561 . S
C450 C447 1.526 . S
C450 C451 1.396 . S
C450 C455 1.390 . S
C451 C445 1.465 . S
C451 C450 1.396 . S
C451 C452 1.399 . S
C452 H438 0.929 . S
C452 C451 1.399 . S
C452 C453 1.385 . S
C453 H439 0.931 . S
C453 C452 1.385 . S
C453 C454 1.389 . S
C454 C453 1.389 . S
C454 C455 1.387 . S
C455 H440 0.930 . S
C455 C450 1.390 . S
C455 C454 1.387 . S
H456 C468 0.930 . S
H457 C470 0.930 . S
H458 C471 0.930 . S
H459 C475 0.959 . S
H460 C475 0.959 . S
H461 C475 0.961 . S
H462 C476 0.960 . S
H463 C476 0.961 . S
H464 C476 0.959 . S
H465 C479 0.929 . S
H466 C480 0.931 . S
H467 C482 0.930 . S
C468 H456 0.930 . S
C468 C469 1.399 . S
C468 C473 1.399 . S
C469 C468 1.399 . S
C469 C470 1.376 . S
C470 H457 0.930 . S
C470 C469 1.376 . S
C470 C471 1.388 . S
C471 H458 0.930 . S
C471 C470 1.388 . S
C471 C472 1.390 . S
C472 C471 1.390 . S
C472 C473 1.394 . S
C472 C478 1.465 . S
C473 C468 1.399 . S
C473 C472 1.394 . S
C473 C474 1.516 . S
C474 C473 1.516 . S
C474 C475 1.502 . S
C474 C476 1.561 . S
C474 C477 1.526 . S
C475 H459 0.959 . S
C475 H460 0.959 . S
C475 H461 0.961 . S
C475 C474 1.502 . S
C476 H462 0.960 . S
C476 H463 0.961 . S
C476 H464 0.959 . S
C476 C474 1.561 . S
C477 C474 1.526 . S
C477 C478 1.396 . S
C477 C482 1.390 . S
C478 C472 1.465 . S
C478 C477 1.396 . S
C478 C479 1.399 . S
C479 H465 0.929 . S
C479 C478 1.399 . S
C479 C480 1.385 . S
C480 H466 0.931 . S
C480 C479 1.385 . S
C480 C481 1.389 . S
C481 C480 1.389 . S
C481 C482 1.387 . S
C482 H467 0.930 . S
C482 C477 1.390 . S
C482 C481 1.387 . S
H483 C495 0.930 . S
H484 C497 0.930 . S
H485 C498 0.930 . S
H486 C502 0.959 . S
H487 C502 0.959 . S
H488 C502 0.961 . S
H489 C503 0.960 . S
H490 C503 0.961 . S
H491 C503 0.959 . S
H492 C506 0.929 . S
H493 C507 0.931 . S
H494 C509 0.930 . S
C495 H483 0.930 . S
C495 C496 1.399 . S
C495 C500 1.399 . S
C496 C495 1.399 . S
C496 C497 1.376 . S
C497 H484 0.930 . S
C497 C496 1.376 . S
C497 C498 1.388 . S
C498 H485 0.930 . S
C498 C497 1.388 . S
C498 C499 1.390 . S
C499 C498 1.390 . S
C499 C500 1.394 . S
C499 C505 1.465 . S
C500 C495 1.399 . S
C500 C499 1.394 . S
C500 C501 1.516 . S
C501 C500 1.516 . S
C501 C502 1.502 . S
C501 C503 1.561 . S
C501 C504 1.526 . S
C502 H486 0.959 . S
C502 H487 0.959 . S
C502 H488 0.961 . S
C502 C501 1.502 . S
C503 H489 0.960 . S
C503 H490 0.961 . S
C503 H491 0.959 . S
C503 C501 1.561 . S
C504 C501 1.526 . S
C504 C505 1.396 . S
C504 C509 1.390 . S
C505 C499 1.465 . S
C505 C504 1.396 . S
C505 C506 1.399 . S
C506 H492 0.929 . S
C506 C505 1.399 . S
C506 C507 1.385 . S
C507 H493 0.931 . S
C507 C506 1.385 . S
C507 C508 1.389 . S
C508 C507 1.389 . S
C508 C509 1.387 . S
C509 H494 0.930 . S
C509 C504 1.390 . S
C509 C508 1.387 . S
H510 C522 0.930 . S
H511 C524 0.930 . S
H512 C525 0.930 . S
H513 C529 0.959 . S
H514 C529 0.959 . S
H515 C529 0.961 . S
H516 C530 0.960 . S
H517 C530 0.961 . S
H518 C530 0.959 . S
H519 C533 0.929 . S
H520 C534 0.931 . S
H521 C536 0.930 . S
C522 H510 0.930 . S
C522 C523 1.399 . S
C522 C527 1.399 . S
C523 C522 1.399 . S
C523 C524 1.376 . S
C524 H511 0.930 . S
C524 C523 1.376 . S
C524 C525 1.388 . S
C525 H512 0.930 . S
C525 C524 1.388 . S
C525 C526 1.390 . S
C526 C525 1.390 . S
C526 C527 1.394 . S
C526 C532 1.465 . S
C527 C522 1.399 . S
C527 C526 1.394 . S
C527 C528 1.516 . S
C528 C527 1.516 . S
C528 C529 1.502 . S
C528 C530 1.561 . S
C528 C531 1.526 . S
C529 H513 0.959 . S
C529 H514 0.959 . S
C529 H515 0.961 . S
C529 C528 1.502 . S
C530 H516 0.960 . S
C530 H517 0.961 . S
C530 H518 0.959 . S
C530 C528 1.561 . S
C531 C528 1.526 . S
C531 C532 1.396 . S
C531 C536 1.390 . S
C532 C526 1.465 . S
C532 C531 1.396 . S
C532 C533 1.399 . S
C533 H519 0.929 . S
C533 C532 1.399 . S
C533 C534 1.385 . S
C534 H520 0.931 . S
C534 C533 1.385 . S
C534 C535 1.389 . S
C535 C534 1.389 . S
C535 C536 1.387 . S
C536 H521 0.930 . S
C536 C531 1.390 . S
C536 C535 1.387 . S
H537 C549 0.930 . S
H538 C551 0.930 . S
H539 C552 0.930 . S
H540 C556 0.959 . S
H541 C556 0.959 . S
H542 C556 0.961 . S
H543 C557 0.960 . S
H544 C557 0.961 . S
H545 C557 0.959 . S
H546 C560 0.929 . S
H547 C561 0.931 . S
H548 C563 0.930 . S
C549 H537 0.930 . S
C549 C550 1.399 . S
C549 C554 1.399 . S
C550 C549 1.399 . S
C550 C551 1.376 . S
C551 H538 0.930 . S
C551 C550 1.376 . S
C551 C552 1.388 . S
C552 H539 0.930 . S
C552 C551 1.388 . S
C552 C553 1.390 . S
C553 C552 1.390 . S
C553 C554 1.394 . S
C553 C559 1.465 . S
C554 C549 1.399 . S
C554 C553 1.394 . S
C554 C555 1.516 . S
C555 C554 1.516 . S
C555 C556 1.502 . S
C555 C557 1.561 . S
C555 C558 1.526 . S
C556 H540 0.959 . S
C556 H541 0.959 . S
C556 H542 0.961 . S
C556 C555 1.502 . S
C557 H543 0.960 . S
C557 H544 0.961 . S
C557 H545 0.959 . S
C557 C555 1.561 . S
C558 C555 1.526 . S
C558 C559 1.396 . S
C558 C563 1.390 . S
C559 C553 1.465 . S
C559 C558 1.396 . S
C559 C560 1.399 . S
C560 H546 0.929 . S
C560 C559 1.399 . S
C560 C561 1.385 . S
C561 H547 0.931 . S
C561 C560 1.385 . S
C561 C562 1.389 . S
C562 C561 1.389 . S
C562 C563 1.387 . S
C563 H548 0.930 . S
C563 C558 1.390 . S
C563 C562 1.387 . S
H564 C576 0.930 . S
H565 C578 0.930 . S
H566 C579 0.930 . S
H567 C583 0.959 . S
H568 C583 0.959 . S
H569 C583 0.961 . S
H570 C584 0.960 . S
H571 C584 0.961 . S
H572 C584 0.959 . S
H573 C587 0.929 . S
H574 C588 0.931 . S
H575 C590 0.930 . S
C576 H564 0.930 . S
C576 C577 1.399 . S
C576 C581 1.399 . S
C577 C576 1.399 . S
C577 C578 1.376 . S
C578 H565 0.930 . S
C578 C577 1.376 . S
C578 C579 1.388 . S
C579 H566 0.930 . S
C579 C578 1.388 . S
C579 C580 1.390 . S
C580 C579 1.390 . S
C580 C581 1.394 . S
C580 C586 1.465 . S
C581 C576 1.399 . S
C581 C580 1.394 . S
C581 C582 1.516 . S
C582 C581 1.516 . S
C582 C583 1.502 . S
C582 C584 1.561 . S
C582 C585 1.526 . S
C583 H567 0.959 . S
C583 H568 0.959 . S
C583 H569 0.961 . S
C583 C582 1.502 . S
C584 H570 0.960 . S
C584 H571 0.961 . S
C584 H572 0.959 . S
C584 C582 1.561 . S
C585 C582 1.526 . S
C585 C586 1.396 . S
C585 C590 1.390 . S
C586 C580 1.465 . S
C586 C585 1.396 . S
C586 C587 1.399 . S
C587 H573 0.929 . S
C587 C586 1.399 . S
C587 C588 1.385 . S
C588 H574 0.931 . S
C588 C587 1.385 . S
C588 C589 1.389 . S
C589 C588 1.389 . S
C589 C590 1.387 . S
C590 H575 0.930 . S
C590 C585 1.390 . S
C590 C589 1.387 . S
H591 C603 0.930 . S
H592 C605 0.930 . S
H593 C606 0.930 . S
H594 C610 0.959 . S
H595 C610 0.959 . S
H596 C610 0.961 . S
H597 C611 0.960 . S
H598 C611 0.961 . S
H599 C611 0.959 . S
H600 C614 0.929 . S
H601 C615 0.931 . S
H602 C617 0.930 . S
C603 H591 0.930 . S
C603 C604 1.399 . S
C603 C608 1.399 . S
C604 C603 1.399 . S
C604 C605 1.376 . S
C605 H592 0.930 . S
C605 C604 1.376 . S
C605 C606 1.388 . S
C606 H593 0.930 . S
C606 C605 1.388 . S
C606 C607 1.390 . S
C607 C606 1.390 . S
C607 C608 1.394 . S
C607 C613 1.465 . S
C608 C603 1.399 . S
C608 C607 1.394 . S
C608 C609 1.516 . S
C609 C608 1.516 . S
C609 C610 1.502 . S
C609 C611 1.561 . S
C609 C612 1.526 . S
C610 H594 0.959 . S
C610 H595 0.959 . S
C610 H596 0.961 . S
C610 C609 1.502 . S
C611 H597 0.960 . S
C611 H598 0.961 . S
C611 H599 0.959 . S
C611 C609 1.561 . S
C612 C609 1.526 . S
C612 C613 1.396 . S
C612 C617 1.390 . S
C613 C607 1.465 . S
C613 C612 1.396 . S
C613 C614 1.399 . S
C614 H600 0.929 . S
C614 C613 1.399 . S
C614 C615 1.385 . S
C615 H601 0.931 . S
C615 C614 1.385 . S
C615 C616 1.389 . S
C616 C615 1.389 . S
C616 C617 1.387 . S
C617 H602 0.930 . S
C617 C612 1.390 . S
C617 C616 1.387 . S
H618 C630 0.930 . S
H619 C632 0.930 . S
H620 C633 0.930 . S
H621 C637 0.959 . S
H622 C637 0.959 . S
H623 C637 0.961 . S
H624 C638 0.960 . S
H625 C638 0.961 . S
H626 C638 0.959 . S
H627 C641 0.929 . S
H628 C642 0.931 . S
H629 C644 0.930 . S
C630 H618 0.930 . S
C630 C631 1.399 . S
C630 C635 1.399 . S
C631 C630 1.399 . S
C631 C632 1.376 . S
C632 H619 0.930 . S
C632 C631 1.376 . S
C632 C633 1.388 . S
C633 H620 0.930 . S
C633 C632 1.388 . S
C633 C634 1.390 . S
C634 C633 1.390 . S
C634 C635 1.394 . S
C634 C640 1.465 . S
C635 C630 1.399 . S
C635 C634 1.394 . S
C635 C636 1.516 . S
C636 C635 1.516 . S
C636 C637 1.502 . S
C636 C638 1.561 . S
C636 C639 1.526 . S
C637 H621 0.959 . S
C637 H622 0.959 . S
C637 H623 0.961 . S
C637 C636 1.502 . S
C638 H624 0.960 . S
C638 H625 0.961 . S
C638 H626 0.959 . S
C638 C636 1.561 . S
C639 C636 1.526 . S
C639 C640 1.396 . S
C639 C644 1.390 . S
C640 C634 1.465 . S
C640 C639 1.396 . S
C640 C641 1.399 . S
C641 H627 0.929 . S
C641 C640 1.399 . S
C641 C642 1.385 . S
C642 H628 0.931 . S
C642 C641 1.385 . S
C642 C643 1.389 . S
C643 C642 1.389 . S
C643 C644 1.387 . S
C644 H629 0.930 . S
C644 C639 1.390 . S
C644 C643 1.387 . S
H645 C657 0.930 . S
H646 C659 0.930 . S
H647 C660 0.930 . S
H648 C664 0.959 . S
H649 C664 0.959 . S
H650 C664 0.961 . S
H651 C665 0.960 . S
H652 C665 0.961 . S
H653 C665 0.959 . S
H654 C668 0.929 . S
H655 C669 0.931 . S
H656 C671 0.930 . S
C657 H645 0.930 . S
C657 C658 1.399 . S
C657 C662 1.399 . S
C658 C657 1.399 . S
C658 C659 1.376 . S
C659 H646 0.930 . S
C659 C658 1.376 . S
C659 C660 1.388 . S
C660 H647 0.930 . S
C660 C659 1.388 . S
C660 C661 1.390 . S
C661 C660 1.390 . S
C661 C662 1.394 . S
C661 C667 1.465 . S
C662 C657 1.399 . S
C662 C661 1.394 . S
C662 C663 1.516 . S
C663 C662 1.516 . S
C663 C664 1.502 . S
C663 C665 1.561 . S
C663 C666 1.526 . S
C664 H648 0.959 . S
C664 H649 0.959 . S
C664 H650 0.961 . S
C664 C663 1.502 . S
C665 H651 0.960 . S
C665 H652 0.961 . S
C665 H653 0.959 . S
C665 C663 1.561 . S
C666 C663 1.526 . S
C666 C667 1.396 . S
C666 C671 1.390 . S
C667 C661 1.465 . S
C667 C666 1.396 . S
C667 C668 1.399 . S
C668 H654 0.929 . S
C668 C667 1.399 . S
C668 C669 1.385 . S
C669 H655 0.931 . S
C669 C668 1.385 . S
C669 C670 1.389 . S
C670 C669 1.389 . S
C670 C671 1.387 . S
C671 H656 0.930 . S
C671 C666 1.390 . S
C671 C670 1.387 . S
H672 C684 0.930 . S
H673 C686 0.930 . S
H674 C687 0.930 . S
H675 C691 0.959 . S
H676 C691 0.959 . S
H677 C691 0.961 . S
H678 C692 0.960 . S
H679 C692 0.961 . S
H680 C692 0.959 . S
H681 C695 0.929 . S
H682 C696 0.931 . S
H683 C698 0.930 . S
C684 H672 0.930 . S
C684 C685 1.399 . S
C684 C689 1.399 . S
C685 C684 1.399 . S
C685 C686 1.376 . S
C686 H673 0.930 . S
C686 C685 1.376 . S
C686 C687 1.388 . S
C687 H674 0.930 . S
C687 C686 1.388 . S
C687 C688 1.390 . S
C688 C687 1.390 . S
C688 C689 1.394 . S
C688 C694 1.465 . S
C689 C684 1.399 . S
C689 C688 1.394 . S
C689 C690 1.516 . S
C690 C689 1.516 . S
C690 C691 1.502 . S
C690 C692 1.561 . S
C690 C693 1.526 . S
C691 H675 0.959 . S
C691 H676 0.959 . S
C691 H677 0.961 . S
C691 C690 1.502 . S
C692 H678 0.960 . S
C692 H679 0.961 . S
C692 H680 0.959 . S
C692 C690 1.561 . S
C693 C690 1.526 . S
C693 C694 1.396 . S
C693 C698 1.390 . S
C694 C688 1.465 . S
C694 C693 1.396 . S
C694 C695 1.399 . S
C695 H681 0.929 . S
C695 C694 1.399 . S
C695 C696 1.385 . S
C696 H682 0.931 . S
C696 C695 1.385 . S
C696 C697 1.389 . S
C697 C696 1.389 . S
C697 C698 1.387 . S
C698 H683 0.930 . S
C698 C693 1.390 . S
C698 C697 1.387 . S
H699 C711 0.930 . S
H700 C713 0.930 . S
H701 C714 0.930 . S
H702 C718 0.959 . S
H703 C718 0.959 . S
H704 C718 0.961 . S
H705 C719 0.960 . S
H706 C719 0.961 . S
H707 C719 0.959 . S
H708 C722 0.929 . S
H709 C723 0.931 . S
H710 C725 0.930 . S
C711 H699 0.930 . S
C711 C712 1.399 . S
C711 C716 1.399 . S
C712 C711 1.399 . S
C712 C713 1.376 . S
C713 H700 0.930 . S
C713 C712 1.376 . S
C713 C714 1.388 . S
C714 H701 0.930 . S
C714 C713 1.388 . S
C714 C715 1.390 . S
C715 C714 1.390 . S
C715 C716 1.394 . S
C715 C721 1.465 . S
C716 C711 1.399 . S
C716 C715 1.394 . S
C716 C717 1.516 . S
C717 C716 1.516 . S
C717 C718 1.502 . S
C717 C719 1.561 . S
C717 C720 1.526 . S
C718 H702 0.959 . S
C718 H703 0.959 . S
C718 H704 0.961 . S
C718 C717 1.502 . S
C719 H705 0.960 . S
C719 H706 0.961 . S
C719 H707 0.959 . S
C719 C717 1.561 . S
C720 C717 1.526 . S
C720 C721 1.396 . S
C720 C725 1.390 . S
C721 C715 1.465 . S
C721 C720 1.396 . S
C721 C722 1.399 . S
C722 H708 0.929 . S
C722 C721 1.399 . S
C722 C723 1.385 . S
C723 H709 0.931 . S
C723 C722 1.385 . S
C723 C724 1.389 . S
C724 C723 1.389 . S
C724 C725 1.387 . S
C725 H710 0.930 . S
C725 C720 1.390 . S
C725 C724 1.387 . S
H726 C738 0.930 . S
H727 C740 0.930 . S
H728 C741 0.930 . S
H729 C745 0.959 . S
H730 C745 0.959 . S
H731 C745 0.961 . S
H732 C746 0.960 . S
H733 C746 0.961 . S
H734 C746 0.959 . S
H735 C749 0.929 . S
H736 C750 0.931 . S
H737 C752 0.930 . S
C738 H726 0.930 . S
C738 C739 1.399 . S
C738 C743 1.399 . S
C739 C738 1.399 . S
C739 C740 1.376 . S
C740 H727 0.930 . S
C740 C739 1.376 . S
C740 C741 1.388 . S
C741 H728 0.930 . S
C741 C740 1.388 . S
C741 C742 1.390 . S
C742 C741 1.390 . S
C742 C743 1.394 . S
C742 C748 1.465 . S
C743 C738 1.399 . S
C743 C742 1.394 . S
C743 C744 1.516 . S
C744 C743 1.516 . S
C744 C745 1.502 . S
C744 C746 1.561 . S
C744 C747 1.526 . S
C745 H729 0.959 . S
C745 H730 0.959 . S
C745 H731 0.961 . S
C745 C744 1.502 . S
C746 H732 0.960 . S
C746 H733 0.961 . S
C746 H734 0.959 . S
C746 C744 1.561 . S
C747 C744 1.526 . S
C747 C748 1.396 . S
C747 C752 1.390 . S
C748 C742 1.465 . S
C748 C747 1.396 . S
C748 C749 1.399 . S
C749 H735 0.929 . S
C749 C748 1.399 . S
C749 C750 1.385 . S
C750 H736 0.931 . S
C750 C749 1.385 . S
C750 C751 1.389 . S
C751 C750 1.389 . S
C751 C752 1.387 . S
C752 H737 0.930 . S
C752 C747 1.390 . S
C752 C751 1.387 . S
H753 C765 0.930 . S
H754 C767 0.930 . S
H755 C768 0.930 . S
H756 C772 0.959 . S
H757 C772 0.959 . S
H758 C772 0.961 . S
H759 C773 0.960 . S
H760 C773 0.961 . S
H761 C773 0.959 . S
H762 C776 0.929 . S
H763 C777 0.931 . S
H764 C779 0.930 . S
C765 H753 0.930 . S
C765 C766 1.399 . S
C765 C770 1.399 . S
C766 C765 1.399 . S
C766 C767 1.376 . S
C767 H754 0.930 . S
C767 C766 1.376 . S
C767 C768 1.388 . S
C768 H755 0.930 . S
C768 C767 1.388 . S
C768 C769 1.390 . S
C769 C768 1.390 . S
C769 C770 1.394 . S
C769 C775 1.465 . S
C770 C765 1.399 . S
C770 C769 1.394 . S
C770 C771 1.516 . S
C771 C770 1.516 . S
C771 C772 1.502 . S
C771 C773 1.561 . S
C771 C774 1.526 . S
C772 H756 0.959 . S
C772 H757 0.959 . S
C772 H758 0.961 . S
C772 C771 1.502 . S
C773 H759 0.960 . S
C773 H760 0.961 . S
C773 H761 0.959 . S
C773 C771 1.561 . S
C774 C771 1.526 . S
C774 C775 1.396 . S
C774 C779 1.390 . S
C775 C769 1.465 . S
C775 C774 1.396 . S
C775 C776 1.399 . S
C776 H762 0.929 . S
C776 C775 1.399 . S
C776 C777 1.385 . S
C777 H763 0.931 . S
C777 C776 1.385 . S
C777 C778 1.389 . S
C778 C777 1.389 . S
C778 C779 1.387 . S
C779 H764 0.930 . S
C779 C774 1.390 . S
C779 C778 1.387 . S
H780 C792 0.930 . S
H781 C794 0.930 . S
H782 C795 0.930 . S
H783 C799 0.959 . S
H784 C799 0.959 . S
H785 C799 0.961 . S
H786 C800 0.960 . S
H787 C800 0.961 . S
H788 C800 0.959 . S
H789 C803 0.929 . S
H790 C804 0.931 . S
H791 C806 0.930 . S
C792 H780 0.930 . S
C792 C793 1.399 . S
C792 C797 1.399 . S
C793 C792 1.399 . S
C793 C794 1.376 . S
C794 H781 0.930 . S
C794 C793 1.376 . S
C794 C795 1.388 . S
C795 H782 0.930 . S
C795 C794 1.388 . S
C795 C796 1.390 . S
C796 C795 1.390 . S
C796 C797 1.394 . S
C796 C802 1.465 . S
C797 C792 1.399 . S
C797 C796 1.394 . S
C797 C798 1.516 . S
C798 C797 1.516 . S
C798 C799 1.502 . S
C798 C800 1.561 . S
C798 C801 1.526 . S
C799 H783 0.959 . S
C799 H784 0.959 . S
C799 H785 0.961 . S
C799 C798 1.502 . S
C800 H786 0.960 . S
C800 H787 0.961 . S
C800 H788 0.959 . S
C800 C798 1.561 . S
C801 C798 1.526 . S
C801 C802 1.396 . S
C801 C806 1.390 . S
C802 C796 1.465 . S
C802 C801 1.396 . S
C802 C803 1.399 . S
C803 H789 0.929 . S
C803 C802 1.399 . S
C803 C804 1.385 . S
C804 H790 0.931 . S
C804 C803 1.385 . S
C804 C805 1.389 . S
C805 C804 1.389 . S
C805 C806 1.387 . S
C806 H791 0.930 . S
C806 C801 1.390 . S
C806 C805 1.387 . S
H807 C819 0.930 . S
H808 C821 0.930 . S
H809 C822 0.930 . S
H810 C826 0.959 . S
H811 C826 0.959 . S
H812 C826 0.961 . S
H813 C827 0.960 . S
H814 C827 0.961 . S
H815 C827 0.959 . S
H816 C830 0.929 . S
H817 C831 0.931 . S
H818 C833 0.930 . S
C819 H807 0.930 . S
C819 C820 1.399 . S
C819 C824 1.399 . S
C820 C819 1.399 . S
C820 C821 1.376 . S
C821 H808 0.930 . S
C821 C820 1.376 . S
C821 C822 1.388 . S
C822 H809 0.930 . S
C822 C821 1.388 . S
C822 C823 1.390 . S
C823 C822 1.390 . S
C823 C824 1.394 . S
C823 C829 1.465 . S
C824 C819 1.399 . S
C824 C823 1.394 . S
C824 C825 1.516 . S
C825 C824 1.516 . S
C825 C826 1.502 . S
C825 C827 1.561 . S
C825 C828 1.526 . S
C826 H810 0.959 . S
C826 H811 0.959 . S
C826 H812 0.961 . S
C826 C825 1.502 . S
C827 H813 0.960 . S
C827 H814 0.961 . S
C827 H815 0.959 . S
C827 C825 1.561 . S
C828 C825 1.526 . S
C828 C829 1.396 . S
C828 C833 1.390 . S
C829 C823 1.465 . S
C829 C828 1.396 . S
C829 C830 1.399 . S
C830 H816 0.929 . S
C830 C829 1.399 . S
C830 C831 1.385 . S
C831 H817 0.931 . S
C831 C830 1.385 . S
C831 C832 1.389 . S
C832 C831 1.389 . S
C832 C833 1.387 . S
C833 H818 0.930 . S
C833 C828 1.390 . S
C833 C832 1.387 . S
C199 C14 1.482 . S
C211 C109 1.542 . S
C226 C25 1.506 . S
C238 C122 1.544 . S
C265 C144 1.501 . S
C253 C43 1.465 . S
C292 C157 1.487 . S
C280 C62 1.486 . S
C319 C170 1.506 . S
C307 C80 1.469 . S
C346 C183 1.506 . S
C334 C97 1.511 . S
C361 C32 1.532 . S
C373 C139 1.523 . S
C388 C50 1.508 . S
C400 C152 1.531 . S
C427 C165 1.496 . S
C415 C70 1.496 . S
C454 C178 1.538 . S
C442 C88 1.529 . S
C469 C104 1.524 . S
C481 C111 1.543 . S
C508 C124 1.550 . S
C496 C7 1.462 . S
C535 C150 1.477 . S
C523 C8 1.467 . S
C550 C34 1.520 . S
C562 C163 1.531 . S
C589 C176 1.480 . S
C577 C52 1.488 . S
C604 C68 1.531 . S
C616 C113 1.544 . S
C631 C86 1.534 . S
C643 C126 1.544 . S
C658 C106 1.515 . S
C670 C137 1.504 . S
C685 C26 1.509 . S
C697 C174 1.503 . S
C724 C118 1.553 . S
C712 C44 1.543 . S
C739 C61 1.531 . S
C751 C131 1.549 . S
C766 C79 1.492 . S
C778 C135 1.496 . S
C793 C98 1.536 . S
C805 C148 1.533 . S
C820 C16 1.489 . S
C832 C161 1.531 . S
