# Generated by pormake.
# Topology tsx, (6,3)-cn, num edge types: 1
# Building blocks:
#     Node 0, Type 0, BuildingBlock: JUFBIX_clean_sbu_0, # of connection points: 6
#     Node 1, Type 0, BuildingBlock: JUFBIX_clean_sbu_0, # of connection points: 6
#     Node 2, Type 1, BuildingBlock: MIDCAF_clean_linker_0, # of connection points: 3
#     Node 3, Type 1, BuildingBlock: MIDCAF_clean_linker_0, # of connection points: 3
#     Node 4, Type 1, BuildingBlock: MIDCAF_clean_linker_0, # of connection points: 3
#     Node 5, Type 1, BuildingBlock: MIDCAF_clean_linker_0, # of connection points: 3
#     Edge 6, Type (0, 1), BuildingBlock: OJICUG_clean_linker_0, # of connection points: 2
#     Edge 7, Type (0, 1), BuildingBlock: OJICUG_clean_linker_0, # of connection points: 2
#     Edge 8, Type (0, 1), BuildingBlock: OJICUG_clean_linker_0, # of connection points: 2
#     Edge 9, Type (0, 1), BuildingBlock: OJICUG_clean_linker_0, # of connection points: 2
#     Edge 10, Type (0, 1), BuildingBlock: OJICUG_clean_linker_0, # of connection points: 2
#     Edge 11, Type (0, 1), BuildingBlock: OJICUG_clean_linker_0, # of connection points: 2
#     Edge 12, Type (0, 1), BuildingBlock: OJICUG_clean_linker_0, # of connection points: 2
#     Edge 13, Type (0, 1), BuildingBlock: OJICUG_clean_linker_0, # of connection points: 2
#     Edge 14, Type (0, 1), BuildingBlock: OJICUG_clean_linker_0, # of connection points: 2
#     Edge 15, Type (0, 1), BuildingBlock: OJICUG_clean_linker_0, # of connection points: 2
#     Edge 16, Type (0, 1), BuildingBlock: OJICUG_clean_linker_0, # of connection points: 2
#     Edge 17, Type (0, 1), BuildingBlock: OJICUG_clean_linker_0, # of connection points: 2
# Relax obj value: 0.161
# Max RMSD: 0.169
# Mean RMSD: 0.138
data_MOF--net-tsx--node1-JUFBIX_clean_sbu_0--node2-MIDCAF_clean_linker_0--edge1-OJICUG_clean_linker_0
_symmetry_space_group_name_H-M    P1
_symmetry_Int_Tables_number       1
_symmetry_cell_setting            triclinic
loop_
_symmetry_equiv_pos_as_xyz
'x, y, z'
_cell_length_a     18.849124
_cell_length_b     22.08278
_cell_length_c     34.198662
_cell_angle_alpha  92.546977
_cell_angle_beta   89.015013
_cell_angle_gamma 99.812379
loop_
_atom_site_label
_atom_site_type_symbol
_atom_site_fract_x
_atom_site_fract_y
_atom_site_fract_z
_atom_type_partial_charge
Co0 Co 0.06429 0.99955 0.00014 0.0
C1 C 1.00559 0.03636 0.93199 0.0
Co2 Co 0.97401 0.05085 0.00927 0.0
C3 C 0.15222 0.90337 -0.00134 0.0
C4 C 0.19729 0.98049 0.96505 0.0
N5 N 0.14148 0.95972 0.98886 0.0
N6 N 0.21199 0.88808 0.98136 0.0
C7 C 0.24054 0.93659 0.96033 0.0
H8 H 0.11498 0.87286 0.01633 0.0
H9 H 0.20455 0.02386 0.95074 0.0
C10 C 0.03321 0.01467 0.07751 0.0
N11 N 0.89675 0.09067 0.0209 0.0
C12 C 0.88142 0.1433 0.00715 0.0
C13 C 0.84382 0.07263 0.04705 0.0
N14 N 0.82116 0.15894 0.02389 0.0
C15 C 0.79744 0.11441 0.04898 0.0
C16 C 0.93308 0.92316 0.00104 0.0
O17 O 0.07611 0.99162 0.05452 0.0
O18 O 0.98586 0.04181 0.06336 0.0
O19 O 0.90994 0.97382 0.00602 0.0
O20 O 1.00036 0.92374 -0.0023 0.0
O21 O 0.96304 0.05956 0.95513 0.0
H22 H 0.83941 0.03171 0.0638 0.0
H23 H 0.91454 0.17006 0.98575 0.0
O24 O 0.0522 0.00807 0.94588 0.0
O25 O 0.12732 0.07541 0.00268 0.0
O26 O 0.03911 0.12761 0.01224 0.0
C27 C 0.10609 0.1267 0.00785 0.0
H28 H 0.28816 0.9393 0.9419 0.0
H29 H 0.74936 0.11164 0.06703 0.0
Co30 Co 0.56403 0.48979 0.50773 0.0
C31 C 0.5124 0.52257 0.43668 0.0
Co32 Co 0.46843 0.53609 0.51252 0.0
C33 C 0.65551 0.3947 0.50522 0.0
C34 C 0.70864 0.48095 0.48443 0.0
N35 N 0.64615 0.45344 0.50049 0.0
N36 N 0.72091 0.38472 0.49225 0.0
C37 C 0.75443 0.43913 0.47946 0.0
H38 H 0.61387 0.35905 0.51577 0.0
H39 H 0.71937 0.52775 0.47503 0.0
C40 C 0.52043 0.50353 0.58362 0.0
N41 N 0.38678 0.57218 0.51967 0.0
C42 C 0.3727 0.62561 0.50642 0.0
C43 C 0.32849 0.54999 0.54133 0.0
N44 N 0.30789 0.63774 0.51908 0.0
C45 C 0.28004 0.58991 0.54096 0.0
C46 C 0.43539 0.4079 0.50396 0.0
O47 O 0.56813 0.48302 0.56262 0.0
O48 O 0.47276 0.52795 0.56734 0.0
O49 O 0.40944 0.45735 0.50737 0.0
O50 O 0.5034 0.41094 0.50346 0.0
O51 O 0.46516 0.54358 0.45776 0.0
H52 H 0.32182 0.50755 0.55667 0.0
H53 H 0.41002 0.65546 0.48844 0.0
O54 O 0.55943 0.49724 0.45283 0.0
O55 O 0.6227 0.56939 0.51229 0.0
O56 O 0.52811 0.61475 0.51741 0.0
C57 C 0.59612 0.61853 0.51605 0.0
H58 H 0.80748 0.44758 0.46609 0.0
H59 H 0.22795 0.5836 0.55541 0.0
C60 C 0.81539 0.12673 0.42927 0.0
C61 C 0.82446 0.15557 0.46664 0.0
C62 C 0.86813 0.13314 0.49362 0.0
C63 C 0.90774 0.08684 0.48186 0.0
H64 H 0.992 0.86064 0.46873 0.0
H65 H 0.05856 0.78602 0.49496 0.0
H66 H 0.25897 0.90234 0.46558 0.0
H67 H 0.19167 0.97719 0.43992 0.0
H68 H 0.0837 0.92365 0.32059 0.0
H69 H 0.09115 0.9259 0.24915 0.0
H70 H 0.01043 0.09793 0.25396 0.0
H71 H 1.00083 0.09466 0.3247 0.0
H72 H 0.84956 0.0627 0.3877 0.0
H73 H 0.7808 0.14211 0.40817 0.0
H74 H 0.87564 0.1543 0.52277 0.0
H75 H 0.94424 0.07297 0.50227 0.0
N76 N 0.99571 0.99354 0.44846 0.0
N77 N 0.06255 0.96973 0.39257 0.0
N78 N 0.97538 0.03236 0.38765 0.0
C79 C 0.04754 0.96447 0.43138 0.0
C80 C 0.02661 1.00376 0.37057 0.0
C81 C 0.95921 0.02771 0.4263 0.0
C82 C 0.0868 0.92539 0.45359 0.0
C83 C 0.05013 0.87147 0.4697 0.0
C84 C 0.0884 0.82845 0.48422 0.0
C85 C 0.16414 0.83815 0.48224 0.0
C86 C 0.2007 0.89322 0.46717 0.0
C87 C 0.16235 0.93627 0.45284 0.0
C88 C 0.04049 0.00842 0.32813 0.0
C89 C 0.0684 0.96223 0.30631 0.0
C90 C 0.07287 0.96361 0.26544 0.0
C91 C 0.05005 0.01148 0.24588 0.0
C92 C 0.02645 0.05948 0.26806 0.0
C93 C 0.02123 0.05775 0.30864 0.0
C94 C 0.90473 0.06314 0.44297 0.0
C95 C 0.85497 0.08118 0.41758 0.0
C96 C 0.77103 0.89031 0.56958 0.0
C97 C 0.78541 0.8534 0.53688 0.0
C98 C 0.84985 0.87059 0.51566 0.0
C99 C 0.90059 0.92137 0.52837 0.0
H100 H 0.06818 0.10509 0.50365 0.0
H101 H 0.16499 0.17947 0.47571 0.0
H102 H 0.2922 0.17408 0.57889 0.0
H103 H 0.1959 0.1009 0.6068 0.0
H104 H 0.10893 0.09971 0.68776 0.0
H105 H 0.10875 0.10342 0.75906 0.0
H106 H 0.88525 0.01716 0.76005 0.0
H107 H 0.88479 0.01365 0.68874 0.0
H108 H 0.81015 0.9662 0.60872 0.0
H109 H 0.72222 0.87837 0.58675 0.0
H110 H 0.86196 0.8436 0.48996 0.0
H111 H 0.95113 0.93196 0.51282 0.0
N112 N 1.00548 0.02744 0.56027 0.0
N113 N 0.05689 0.07435 0.61856 0.0
N114 N 0.94438 0.01116 0.62038 0.0
C115 C 0.0606 0.06497 0.57911 0.0
C116 C 0.99899 0.04784 0.63936 0.0
C117 C 0.94689 1.00044 0.58106 0.0
C118 C 0.12361 0.09813 0.55781 0.0
C119 C 0.11734 0.11873 0.51994 0.0
C120 C 0.17273 0.16148 0.50399 0.0
C121 C 0.23592 0.18313 0.52529 0.0
C122 C 0.24447 0.15821 0.56162 0.0
C123 C 0.18889 0.11652 0.57775 0.0
C124 C 0.99709 0.05576 0.68249 0.0
C125 C 0.05943 0.0822 0.70309 0.0
C126 C 0.0595 0.08412 0.74391 0.0
C127 C 0.99716 0.06012 0.76495 0.0
C128 C 0.93393 0.03627 0.74451 0.0
C129 C 0.93393 0.03391 0.70366 0.0
C130 C 0.8883 0.95537 0.56267 0.0
C131 C 0.82184 0.94055 0.58233 0.0
C132 C 0.29235 0.61473 0.94373 0.0
C133 C 0.31347 0.65742 0.97472 0.0
C134 C 0.37099 0.64928 -0.00156 0.0
C135 C 0.41169 0.60318 0.9885 0.0
H136 H 0.50463 0.39204 -0.00391 0.0
H137 H 0.5773 0.32091 0.02133 0.0
H138 H 0.76067 0.40904 0.95503 0.0
H139 H 0.68713 0.47874 0.92949 0.0
H140 H 0.57409 0.42804 0.8295 0.0
H141 H 0.57856 0.42591 0.75807 0.0
H142 H 0.46211 0.57854 0.75892 0.0
H143 H 0.45537 0.57916 0.8298 0.0
H144 H 0.31831 0.53972 0.90796 0.0
H145 H 0.24743 0.61944 0.92541 0.0
H146 H 0.38816 0.68157 0.02259 0.0
H147 H 0.45889 0.6006 0.00541 0.0
N148 N 0.4926 0.50223 0.95801 0.0
N149 N 0.55069 0.4749 0.89989 0.0
N150 N 0.45623 0.53038 0.89701 0.0
C151 C 0.54383 0.47429 0.9395 0.0
C152 C 0.50698 0.50287 0.87845 0.0
C153 C 0.44852 0.53043 0.93652 0.0
C154 C 0.59051 0.44076 0.96115 0.0
C155 C 0.5611 0.39735 0.98822 0.0
C156 C 0.60277 0.35644 0.00237 0.0
C157 C 0.67465 0.35853 0.98966 0.0
C158 C 0.70508 0.40506 0.96464 0.0
C159 C 0.66327 0.44535 0.95029 0.0
C160 C 0.51373 0.50334 0.83532 0.0
C161 C 0.54966 0.46122 0.81437 0.0
C162 C 0.55249 0.46017 0.77343 0.0
C163 C 0.52 0.5016 0.75268 0.0
C164 C 0.48607 0.54487 0.77384 0.0
C165 C 0.48255 0.54547 0.81458 0.0
C166 C 0.3953 0.56513 0.95472 0.0
C167 C 0.33293 0.56914 0.93379 0.0
C168 C 0.38014 0.32783 0.05676 0.0
C169 C 0.32534 0.33977 0.03238 0.0
C170 C 0.3243 0.40059 0.02211 0.0
C171 C 0.37659 0.44872 0.03676 0.0
H172 H 0.58158 0.60362 0.00715 0.0
H173 H 0.66959 0.68502 0.97847 0.0
H174 H 0.79173 0.70462 0.08517 0.0
H175 H 0.70331 0.62605 0.11434 0.0
H176 H 0.62651 0.58943 0.19327 0.0
H177 H 0.6229 0.59107 0.26466 0.0
H178 H 0.40972 0.48218 0.26161 0.0
H179 H 0.41288 0.48034 0.19027 0.0
H180 H 0.47153 0.36561 0.09158 0.0
H181 H 0.38175 0.28157 0.06557 0.0
H182 H 0.28254 0.41091 0.00339 0.0
H183 H 0.37359 0.4955 0.02985 0.0
N184 N 0.52862 0.5253 0.06296 0.0
N185 N 0.57393 0.56974 0.12317 0.0
N186 N 0.47584 0.48939 0.12225 0.0
C187 C 0.57724 0.5671 0.08341 0.0
C188 C 0.52307 0.53148 0.14278 0.0
C189 C 0.47811 0.48619 0.08259 0.0
C190 C 0.63419 0.60964 0.06341 0.0
C191 C 0.62708 0.62536 0.02443 0.0
C192 C 0.67749 0.67159 0.00795 0.0
C193 C 0.73701 0.70091 0.02977 0.0
C194 C 0.74638 0.68246 0.06774 0.0
C195 C 0.69534 0.63773 0.08448 0.0
C196 C 0.52013 0.53447 0.18604 0.0
C197 C 0.57866 0.56612 0.20776 0.0
C198 C 0.5768 0.56687 0.24861 0.0
C199 C 0.51609 0.53667 0.26854 0.0
C200 C 0.45695 0.50623 0.24693 0.0
C201 C 0.45908 0.50484 0.20608 0.0
C202 C 0.42957 0.43648 0.06213 0.0
C203 C 0.43129 0.37578 0.07175 0.0
C204 C 0.14127 0.24088 0.02103 0.0
C205 C 0.16014 0.18373 0.0096 0.0
H206 H 0.17942 0.33586 0.03697 0.0
C207 C 0.23279 0.1805 0.00134 0.0
H208 H 0.0857 0.24485 0.02734 0.0
C209 C 0.28587 0.23226 0.00656 0.0
C210 C 0.2677 0.28854 0.02015 0.0
H211 H 0.24919 0.13746 0.99186 0.0
H212 H 0.34161 0.22781 0.00119 0.0
C213 C 0.19475 0.29298 0.02624 0.0
C214 C 0.2605 0.80567 0.9451 0.0
C215 C 0.23506 0.82928 0.98036 0.0
H216 H 0.30453 0.7329 0.91594 0.0
C217 C 0.23337 0.79512 0.0142 0.0
H218 H 0.26159 0.83073 0.91853 0.0
C219 C 0.25864 0.73882 0.01284 0.0
C220 C 0.284 0.71546 0.97736 0.0
H221 H 0.21409 0.81269 0.04172 0.0
H222 H 0.2582 0.71353 0.03929 0.0
C223 C 0.28433 0.74938 0.94357 0.0
C224 C 0.90905 0.80957 0.00898 0.0
C225 C 0.88287 0.86407 0.00222 0.0
H226 H 0.8827 0.71463 0.02294 0.0
C227 C 0.80815 0.86216 -0.00038 0.0
H228 H 0.96632 0.80951 0.01109 0.0
C229 C 0.76047 0.80745 0.00566 0.0
C230 C 0.78676 0.75417 0.01499 0.0
H231 H 0.78646 0.90336 -0.00578 0.0
H232 H 0.70305 0.80774 0.00538 0.0
C233 C 0.86137 0.75525 0.01568 0.0
C234 C 0.74507 0.23568 0.0449 0.0
C235 C 0.78765 0.21113 0.01611 0.0
H236 H 0.67731 0.30217 0.05956 0.0
C237 C 0.79502 0.2371 0.97923 0.0
H238 H 0.73923 0.21736 0.07382 0.0
C239 C 0.75936 0.28549 0.97101 0.0
C240 C 0.7158 0.3095 -0.00043 0.0
H241 H 0.82648 0.21874 0.95626 0.0
H242 H 0.76424 0.30276 0.94177 0.0
C243 C 0.7096 0.28432 0.03674 0.0
C244 C 0.71914 0.68335 0.51517 0.0
C245 C 0.64406 0.67924 0.51891 0.0
H246 H 0.82236 0.74139 0.51767 0.0
C247 C 0.61552 0.73362 0.52582 0.0
H248 H 0.74297 0.64245 0.50966 0.0
C249 C 0.66117 0.7905 0.53021 0.0
C250 C 0.73638 0.79437 0.52756 0.0
H251 H 0.55793 0.7322 0.52854 0.0
H252 H 0.63761 0.83143 0.53617 0.0
C253 C 0.76471 0.74022 0.51936 0.0
C254 C 0.78704 0.31587 0.45334 0.0
C255 C 0.74597 0.32675 0.48674 0.0
H256 H 0.84366 0.25378 0.42121 0.0
C257 C 0.73039 0.28051 0.51417 0.0
H258 H 0.79918 0.35012 0.43143 0.0
C259 C 0.75645 0.22473 0.50835 0.0
C260 C 0.7969 0.21407 0.47457 0.0
H261 H 0.69905 0.28793 0.54023 0.0
H262 H 0.74424 0.18976 0.52983 0.0
C263 C 0.81194 0.26036 0.4473 0.0
C264 C 0.31216 0.34513 0.49728 0.0
C265 C 0.38626 0.34784 0.50333 0.0
H266 H 0.20685 0.29063 0.49882 0.0
C267 C 0.41153 0.29361 0.51186 0.0
H268 H 0.29098 0.38601 0.49043 0.0
C269 C 0.36306 0.23882 0.5168 0.0
C270 C 0.28854 0.23701 0.51277 0.0
H271 H 0.46831 0.29413 0.5166 0.0
H272 H 0.38361 0.19837 0.52514 0.0
C273 C 0.26392 0.29028 0.50172 0.0
C274 C 0.21964 0.70663 0.53552 0.0
C275 C 0.27463 0.69015 0.51095 0.0
H276 H 0.14243 0.7665 0.54609 0.0
C277 C 0.29512 0.72485 0.47786 0.0
H278 H 0.2033 0.68201 0.56171 0.0
C279 C 0.26047 0.77375 0.46913 0.0
C280 C 0.20433 0.7891 0.4932 0.0
H281 H 0.33653 0.71328 0.45801 0.0
H282 H 0.27614 0.7983 0.44278 0.0
C283 C 0.18478 0.75531 0.52668 0.0
C284 C 0.98237 0.02806 0.14424 0.0
C285 C 0.03761 0.01103 0.12035 0.0
H286 H 0.94232 0.04003 0.2022 0.0
C287 C 0.09664 0.9921 0.13789 0.0
H288 H 0.93566 0.04212 0.13168 0.0
C289 C 0.10093 0.99169 0.17873 0.0
C290 C 0.04615 0.01004 0.20256 0.0
H291 H 0.14 0.9787 0.12015 0.0
H292 H 0.14767 0.97826 0.19162 0.0
C293 C 0.98642 0.02729 0.18477 0.0
C294 C 0.05787 0.02657 0.8651 0.0
C295 C 1.00283 0.04318 0.88938 0.0
H296 H 0.09904 0.01912 0.8068 0.0
C297 C 0.94619 0.06664 0.87256 0.0
H298 H 0.1024 0.00852 0.87716 0.0
C299 C 0.94434 0.07265 0.83208 0.0
C300 C 0.99954 0.05602 0.80791 0.0
H301 H 0.90311 0.07993 0.89059 0.0
H302 H 0.90005 0.09061 0.81969 0.0
C303 C 0.05635 0.03313 0.82483 0.0
C304 C 0.45917 0.51049 0.64839 0.0
C305 C 0.52009 0.50008 0.62663 0.0
H306 H 0.4106 0.51722 0.70485 0.0
C307 C 0.58051 0.48794 0.64643 0.0
H308 H 0.4114 0.51923 0.63397 0.0
C309 C 0.58055 0.48785 0.68736 0.0
C310 C 0.51993 0.49938 0.70918 0.0
H311 H 0.62831 0.47988 0.63039 0.0
H312 H 0.62865 0.48018 0.70187 0.0
C313 C 0.45891 0.50975 0.68911 0.0
C314 C 0.57337 0.51552 0.37169 0.0
C315 C 0.51337 0.52753 0.39378 0.0
H316 H 0.62116 0.50929 0.31477 0.0
C317 C 0.45462 0.54384 0.37446 0.0
H318 H 0.61959 0.50303 0.38574 0.0
C319 C 0.45549 0.54709 0.33372 0.0
C320 C 0.51549 0.53492 0.31172 0.0
H321 H 0.40767 0.55338 0.39073 0.0
H322 H 0.40945 0.55943 0.31943 0.0
C323 C 0.57456 0.51949 0.3311 0.0
loop_
_geom_bond_atom_site_label_1
_geom_bond_atom_site_label_2
_geom_bond_distance
_geom_bond_site_symmetry_2
_ccdc_geom_bond_type
Co0 N5 2.057 . S
Co0 O17 2.021 . S
Co0 O20 2.062 1_455 S
Co0 O24 2.117 1_554 S
Co0 O25 2.020 1_565 S
C1 O21 1.259 1_455 S
C1 O24 1.258 1_545 S
Co2 N11 2.057 . S
Co2 O18 2.117 . S
Co2 O19 2.020 1_545 S
Co2 O21 2.021 1_554 S
Co2 O26 2.062 1_655 S
C3 N5 1.316 . S
C3 N6 1.347 . S
C3 H8 0.931 . S
C4 N5 1.375 1_556 S
C4 C7 1.350 . S
C4 H9 0.930 . S
N5 Co0 2.057 . S
N5 C3 1.316 . S
N5 C4 1.375 1_554 S
N6 C3 1.347 . S
N6 C7 1.373 1_554 S
C7 C4 1.350 . S
C7 N6 1.373 1_556 S
C7 H28 0.931 . S
H8 C3 0.931 . S
H9 C4 0.930 . S
C10 O17 1.259 1_545 S
C10 O18 1.258 1_455 S
N11 Co2 2.057 . S
N11 C12 1.316 . S
N11 C13 1.375 . S
C12 N11 1.316 . S
C12 N14 1.347 . S
C12 H23 0.931 1_554 S
C13 N11 1.375 . S
C13 C15 1.350 . S
C13 H22 0.930 . S
N14 C12 1.347 . S
N14 C15 1.373 . S
C15 C13 1.350 . S
C15 N14 1.373 . S
C15 H29 0.931 . S
C16 O19 1.256 . S
C16 O20 1.255 . S
O17 Co0 2.021 . S
O17 C10 1.259 1_565 S
O18 Co2 2.117 . S
O18 C10 1.258 1_655 S
O19 Co2 2.020 1_565 S
O19 C16 1.256 . S
O20 Co0 2.062 1_655 S
O20 C16 1.255 . S
O21 C1 1.259 1_655 S
O21 Co2 2.021 1_556 S
H22 C13 0.930 . S
H23 C12 0.931 1_556 S
O24 Co0 2.117 1_556 S
O24 C1 1.258 1_565 S
O25 Co0 2.020 1_545 S
O25 C27 1.256 . S
O26 Co2 2.062 1_455 S
O26 C27 1.255 . S
C27 O25 1.256 . S
C27 O26 1.255 . S
H28 C7 0.931 . S
H29 C15 0.931 . S
Co30 N35 2.057 . S
Co30 O47 2.021 . S
Co30 O50 2.062 . S
Co30 O54 2.117 . S
Co30 O55 2.020 . S
C31 O51 1.259 . S
C31 O54 1.258 . S
Co32 N41 2.057 . S
Co32 O48 2.117 . S
Co32 O49 2.020 . S
Co32 O51 2.021 . S
Co32 O56 2.062 . S
C33 N35 1.316 . S
C33 N36 1.347 . S
C33 H38 0.931 . S
C34 N35 1.375 . S
C34 C37 1.350 . S
C34 H39 0.930 . S
N35 Co30 2.057 . S
N35 C33 1.316 . S
N35 C34 1.375 . S
N36 C33 1.347 . S
N36 C37 1.373 . S
C37 C34 1.350 . S
C37 N36 1.373 . S
C37 H58 0.931 . S
H38 C33 0.931 . S
H39 C34 0.930 . S
C40 O47 1.259 . S
C40 O48 1.258 . S
N41 Co32 2.057 . S
N41 C42 1.316 . S
N41 C43 1.375 . S
C42 N41 1.316 . S
C42 N44 1.347 . S
C42 H53 0.931 . S
C43 N41 1.375 . S
C43 C45 1.350 . S
C43 H52 0.930 . S
N44 C42 1.347 . S
N44 C45 1.373 . S
C45 C43 1.350 . S
C45 N44 1.373 . S
C45 H59 0.931 . S
C46 O49 1.256 . S
C46 O50 1.255 . S
O47 Co30 2.021 . S
O47 C40 1.259 . S
O48 Co32 2.117 . S
O48 C40 1.258 . S
O49 Co32 2.020 . S
O49 C46 1.256 . S
O50 Co30 2.062 . S
O50 C46 1.255 . S
O51 C31 1.259 . S
O51 Co32 2.021 . S
H52 C43 0.930 . S
H53 C42 0.931 . S
O54 Co30 2.117 . S
O54 C31 1.258 . S
O55 Co30 2.020 . S
O55 C57 1.256 . S
O56 Co32 2.062 . S
O56 C57 1.255 . S
C57 O55 1.256 . S
C57 O56 1.255 . S
H58 C37 0.931 . S
H59 C45 0.931 . S
C60 C61 1.384 . S
C60 H73 0.947 . S
C60 C95 1.382 . S
C61 C60 1.384 . S
C61 C62 1.378 . S
C62 C61 1.378 . S
C62 C63 1.378 . S
C62 H74 0.952 . S
C63 C62 1.378 . S
C63 H75 0.950 . S
C63 C94 1.383 . S
H64 C83 0.947 . S
H65 C84 0.946 . S
H66 C86 0.953 . S
H67 C87 0.945 . S
H68 C89 0.952 . S
H69 C90 0.949 . S
H70 C92 0.950 . S
H71 C93 0.948 . S
H72 C95 0.951 . S
H73 C60 0.947 . S
H74 C62 0.952 . S
H75 C63 0.950 . S
N76 C79 1.382 1_545 S
N76 C81 1.363 1_455 S
N77 C79 1.371 . S
N77 C80 1.372 1_565 S
N78 C80 1.361 1_655 S
N78 C81 1.377 . S
C79 N76 1.382 1_565 S
C79 N77 1.371 . S
C79 C82 1.480 . S
C80 N77 1.372 1_545 S
C80 N78 1.361 1_455 S
C80 C88 1.457 . S
C81 N76 1.363 1_655 S
C81 N78 1.377 . S
C81 C94 1.479 . S
C82 C79 1.480 . S
C82 C83 1.383 . S
C82 C87 1.385 . S
C83 H64 0.947 . S
C83 C82 1.383 . S
C83 C84 1.388 . S
C84 H65 0.946 . S
C84 C83 1.388 . S
C84 C85 1.384 . S
C85 C84 1.384 . S
C85 C86 1.377 . S
C86 H66 0.953 . S
C86 C85 1.377 . S
C86 C87 1.369 . S
C87 H67 0.945 . S
C87 C82 1.385 . S
C87 C86 1.369 . S
C88 C80 1.457 . S
C88 C89 1.372 1_545 S
C88 C93 1.364 1_455 S
C89 H68 0.952 . S
C89 C88 1.372 1_565 S
C89 C90 1.389 . S
C90 H69 0.949 . S
C90 C89 1.389 . S
C90 C91 1.387 1_565 S
C91 C90 1.387 1_545 S
C91 C92 1.372 1_455 S
C92 H70 0.950 . S
C92 C91 1.372 1_655 S
C92 C93 1.379 . S
C93 H71 0.948 . S
C93 C88 1.364 1_655 S
C93 C92 1.379 . S
C94 C63 1.383 . S
C94 C81 1.479 . S
C94 C95 1.398 . S
C95 C60 1.382 . S
C95 H72 0.951 . S
C95 C94 1.398 . S
C96 C97 1.384 . S
C96 H109 0.947 . S
C96 C131 1.382 . S
C97 C96 1.384 . S
C97 C98 1.378 . S
C98 C97 1.378 . S
C98 C99 1.378 . S
C98 H110 0.952 . S
C99 C98 1.378 . S
C99 H111 0.950 . S
C99 C130 1.383 . S
H100 C119 0.947 . S
H101 C120 0.946 . S
H102 C122 0.953 . S
H103 C123 0.945 . S
H104 C125 0.952 . S
H105 C126 0.949 . S
H106 C128 0.950 . S
H107 C129 0.948 . S
H108 C131 0.951 . S
H109 C96 0.947 . S
H110 C98 0.952 . S
H111 C99 0.950 . S
N112 C115 1.382 . S
N112 C117 1.363 1_445 S
N113 C115 1.371 . S
N113 C116 1.372 . S
N114 C116 1.361 1_665 S
N114 C117 1.377 . S
C115 N112 1.382 . S
C115 N113 1.371 . S
C115 C118 1.480 . S
C116 N113 1.372 . S
C116 N114 1.361 1_445 S
C116 C124 1.457 . S
C117 N112 1.363 1_665 S
C117 N114 1.377 . S
C117 C130 1.479 . S
C118 C115 1.480 . S
C118 C119 1.383 . S
C118 C123 1.385 . S
C119 H100 0.947 . S
C119 C118 1.383 . S
C119 C120 1.388 . S
C120 H101 0.946 . S
C120 C119 1.388 . S
C120 C121 1.384 . S
C121 C120 1.384 . S
C121 C122 1.377 . S
C122 H102 0.953 . S
C122 C121 1.377 . S
C122 C123 1.369 . S
C123 H103 0.945 . S
C123 C118 1.385 . S
C123 C122 1.369 . S
C124 C116 1.457 . S
C124 C125 1.372 . S
C124 C129 1.364 1_445 S
C125 H104 0.952 . S
C125 C124 1.372 . S
C125 C126 1.389 . S
C126 H105 0.949 . S
C126 C125 1.389 . S
C126 C127 1.387 . S
C127 C126 1.387 . S
C127 C128 1.372 1_445 S
C128 H106 0.950 . S
C128 C127 1.372 1_665 S
C128 C129 1.379 . S
C129 H107 0.948 . S
C129 C124 1.364 1_665 S
C129 C128 1.379 . S
C130 C99 1.383 . S
C130 C117 1.479 . S
C130 C131 1.398 . S
C131 C96 1.382 . S
C131 H108 0.951 . S
C131 C130 1.398 . S
C132 C133 1.384 1_556 S
C132 H145 0.947 . S
C132 C167 1.382 . S
C133 C132 1.384 1_554 S
C133 C134 1.378 . S
C134 C133 1.378 . S
C134 C135 1.378 . S
C134 H146 0.952 . S
C135 C134 1.378 . S
C135 H147 0.950 . S
C135 C166 1.383 1_554 S
H136 C155 0.961 . S
H137 C156 0.946 . S
H138 C158 0.953 . S
H139 C159 0.945 . S
H140 C161 0.952 . S
H141 C162 0.949 . S
H142 C164 0.950 . S
H143 C165 0.948 . S
H144 C167 0.951 . S
H145 C132 0.947 . S
H146 C134 0.952 . S
H147 C135 0.950 . S
N148 C151 1.382 . S
N148 C153 1.363 . S
N149 C151 1.371 . S
N149 C152 1.372 . S
N150 C152 1.361 . S
N150 C153 1.377 . S
C151 N148 1.382 . S
C151 N149 1.371 . S
C151 C154 1.480 . S
C152 N149 1.372 . S
C152 N150 1.361 . S
C152 C160 1.457 . S
C153 N148 1.363 . S
C153 N150 1.377 . S
C153 C166 1.479 . S
C154 C151 1.480 . S
C154 C155 1.356 1_556 S
C154 C159 1.385 . S
C155 H136 0.961 . S
C155 C154 1.356 1_554 S
C155 C156 1.402 . S
C156 H137 0.946 . S
C156 C155 1.402 . S
C156 C157 1.385 . S
C157 C156 1.385 . S
C157 C158 1.375 1_554 S
C158 H138 0.953 . S
C158 C157 1.375 1_556 S
C158 C159 1.369 . S
C159 H139 0.945 . S
C159 C154 1.385 . S
C159 C158 1.369 . S
C160 C152 1.457 . S
C160 C161 1.372 . S
C160 C165 1.364 . S
C161 H140 0.952 . S
C161 C160 1.372 . S
C161 C162 1.389 . S
C162 H141 0.949 . S
C162 C161 1.389 . S
C162 C163 1.387 . S
C163 C162 1.387 . S
C163 C164 1.372 . S
C164 H142 0.950 . S
C164 C163 1.372 . S
C164 C165 1.379 . S
C165 H143 0.948 . S
C165 C160 1.364 . S
C165 C164 1.379 . S
C166 C135 1.383 1_556 S
C166 C153 1.479 . S
C166 C167 1.398 . S
C167 C132 1.382 . S
C167 H144 0.951 . S
C167 C166 1.398 . S
C168 C169 1.384 . S
C168 H181 0.947 . S
C168 C203 1.382 . S
C169 C168 1.384 . S
C169 C170 1.378 1_554 S
C170 C169 1.378 1_556 S
C170 C171 1.378 1_556 S
C170 H182 0.952 . S
C171 C170 1.378 1_554 S
C171 H183 0.950 . S
C171 C202 1.383 . S
H172 C191 0.947 . S
H173 C192 0.946 1_556 S
H174 C194 0.953 . S
H175 C195 0.945 . S
H176 C197 0.952 . S
H177 C198 0.949 . S
H178 C200 0.950 . S
H179 C201 0.948 . S
H180 C203 0.951 . S
H181 C168 0.947 . S
H182 C170 0.952 . S
H183 C171 0.950 . S
N184 C187 1.382 . S
N184 C189 1.363 . S
N185 C187 1.371 . S
N185 C188 1.372 . S
N186 C188 1.361 . S
N186 C189 1.377 . S
C187 N184 1.382 . S
C187 N185 1.371 . S
C187 C190 1.480 . S
C188 N185 1.372 . S
C188 N186 1.361 . S
C188 C196 1.457 . S
C189 N184 1.363 . S
C189 N186 1.377 . S
C189 C202 1.479 . S
C190 C187 1.480 . S
C190 C191 1.383 . S
C190 C195 1.385 . S
C191 H172 0.947 . S
C191 C190 1.383 . S
C191 C192 1.388 . S
C192 H173 0.946 1_554 S
C192 C191 1.388 . S
C192 C193 1.384 . S
C193 C192 1.384 . S
C193 C194 1.377 . S
C194 H174 0.953 . S
C194 C193 1.377 . S
C194 C195 1.369 . S
C195 H175 0.945 . S
C195 C190 1.385 . S
C195 C194 1.369 . S
C196 C188 1.457 . S
C196 C197 1.372 . S
C196 C201 1.364 . S
C197 H176 0.952 . S
C197 C196 1.372 . S
C197 C198 1.389 . S
C198 H177 0.949 . S
C198 C197 1.389 . S
C198 C199 1.387 . S
C199 C198 1.387 . S
C199 C200 1.372 . S
C200 H178 0.950 . S
C200 C199 1.372 . S
C200 C201 1.379 . S
C201 H179 0.948 . S
C201 C196 1.364 . S
C201 C200 1.379 . S
C202 C171 1.383 . S
C202 C189 1.479 . S
C202 C203 1.398 . S
C203 C168 1.382 . S
C203 H180 0.951 . S
C203 C202 1.398 . S
C204 C205 1.387 . S
C204 H208 0.950 . S
C204 C213 1.390 . S
C205 C204 1.387 . S
C205 C207 1.387 1_554 S
H206 C213 0.950 . S
C207 C205 1.387 1_556 S
C207 C209 1.390 . S
C207 H211 0.950 . S
H208 C204 0.950 . S
C209 C207 1.390 . S
C209 C210 1.387 1_556 S
C209 H212 0.950 . S
C210 C209 1.387 1_554 S
C210 C213 1.387 . S
H211 C207 0.950 . S
H212 C209 0.950 . S
C213 C204 1.390 . S
C213 H206 0.950 . S
C213 C210 1.387 . S
C214 C215 1.387 1_556 S
C214 H218 0.950 . S
C214 C223 1.390 . S
C215 C214 1.387 1_554 S
C215 C217 1.387 . S
H216 C223 0.950 . S
C217 C215 1.387 . S
C217 C219 1.390 . S
C217 H221 0.950 . S
H218 C214 0.950 . S
C219 C217 1.390 . S
C219 C220 1.387 . S
C219 H222 0.950 . S
C220 C219 1.387 . S
C220 C223 1.387 1_554 S
H221 C217 0.950 . S
H222 C219 0.950 . S
C223 C214 1.390 . S
C223 H216 0.950 . S
C223 C220 1.387 1_556 S
C224 C225 1.387 1_556 S
C224 H228 0.950 . S
C224 C233 1.390 . S
C225 C224 1.387 1_554 S
C225 C227 1.387 . S
H226 C233 0.950 . S
C227 C225 1.387 . S
C227 C229 1.390 . S
C227 H231 0.950 . S
H228 C224 0.950 . S
C229 C227 1.390 . S
C229 C230 1.387 . S
C229 H232 0.950 . S
C230 C229 1.387 . S
C230 C233 1.387 1_554 S
H231 C227 0.950 . S
H232 C229 0.950 . S
C233 C224 1.390 . S
C233 H226 0.950 . S
C233 C230 1.387 1_556 S
C234 C235 1.387 . S
C234 H238 0.950 . S
C234 C243 1.390 . S
C235 C234 1.387 . S
C235 C237 1.387 1_554 S
H236 C243 0.950 . S
C237 C235 1.387 1_556 S
C237 C239 1.390 . S
C237 H241 0.950 . S
H238 C234 0.950 . S
C239 C237 1.390 . S
C239 C240 1.387 1_556 S
C239 H242 0.950 . S
C240 C239 1.387 1_554 S
C240 C243 1.387 . S
H241 C237 0.950 . S
H242 C239 0.950 . S
C243 C234 1.390 . S
C243 H236 0.950 . S
C243 C240 1.387 . S
C244 C245 1.387 . S
C244 H248 0.950 . S
C244 C253 1.390 . S
C245 C244 1.387 . S
C245 C247 1.387 . S
H246 C253 0.950 . S
C247 C245 1.387 . S
C247 C249 1.390 . S
C247 H251 0.950 . S
H248 C244 0.950 . S
C249 C247 1.390 . S
C249 C250 1.387 . S
C249 H252 0.950 . S
C250 C249 1.387 . S
C250 C253 1.387 . S
H251 C247 0.950 . S
H252 C249 0.950 . S
C253 C244 1.390 . S
C253 H246 0.950 . S
C253 C250 1.387 . S
C254 C255 1.387 . S
C254 H258 0.950 . S
C254 C263 1.390 . S
C255 C254 1.387 . S
C255 C257 1.387 . S
H256 C263 0.950 . S
C257 C255 1.387 . S
C257 C259 1.390 . S
C257 H261 0.950 . S
H258 C254 0.950 . S
C259 C257 1.390 . S
C259 C260 1.387 . S
C259 H262 0.950 . S
C260 C259 1.387 . S
C260 C263 1.387 . S
H261 C257 0.950 . S
H262 C259 0.950 . S
C263 C254 1.390 . S
C263 H256 0.950 . S
C263 C260 1.387 . S
C264 C265 1.387 . S
C264 H268 0.950 . S
C264 C273 1.390 . S
C265 C264 1.387 . S
C265 C267 1.387 . S
H266 C273 0.950 . S
C267 C265 1.387 . S
C267 C269 1.390 . S
C267 H271 0.950 . S
H268 C264 0.950 . S
C269 C267 1.390 . S
C269 C270 1.387 . S
C269 H272 0.950 . S
C270 C269 1.387 . S
C270 C273 1.387 . S
H271 C267 0.950 . S
H272 C269 0.950 . S
C273 C264 1.390 . S
C273 H266 0.950 . S
C273 C270 1.387 . S
C274 C275 1.387 . S
C274 H278 0.950 . S
C274 C283 1.390 . S
C275 C274 1.387 . S
C275 C277 1.387 . S
H276 C283 0.950 . S
C277 C275 1.387 . S
C277 C279 1.390 . S
C277 H281 0.950 . S
H278 C274 0.950 . S
C279 C277 1.390 . S
C279 C280 1.387 . S
C279 H282 0.950 . S
C280 C279 1.387 . S
C280 C283 1.387 . S
H281 C277 0.950 . S
H282 C279 0.950 . S
C283 C274 1.390 . S
C283 H276 0.950 . S
C283 C280 1.387 . S
C284 C285 1.387 1_655 S
C284 H288 0.950 . S
C284 C293 1.390 . S
C285 C284 1.387 1_455 S
C285 C287 1.387 1_545 S
H286 C293 0.950 . S
C287 C285 1.387 1_565 S
C287 C289 1.390 . S
C287 H291 0.950 . S
H288 C284 0.950 . S
C289 C287 1.390 . S
C289 C290 1.378 1_565 S
C289 H292 0.950 . S
C290 C289 1.378 1_545 S
C290 C293 1.399 1_455 S
H291 C287 0.950 . S
H292 C289 0.950 . S
C293 C284 1.390 . S
C293 H286 0.950 . S
C293 C290 1.399 1_655 S
C294 C295 1.387 1_565 S
C294 H298 0.950 . S
C294 C303 1.390 . S
C295 C294 1.387 1_545 S
C295 C297 1.387 1_455 S
H296 C303 0.950 . S
C297 C295 1.387 1_655 S
C297 C299 1.390 . S
C297 H301 0.950 . S
H298 C294 0.950 . S
C299 C297 1.390 . S
C299 C300 1.387 1_655 S
C299 H302 0.950 . S
C300 C299 1.387 1_455 S
C300 C303 1.387 1_545 S
H301 C297 0.950 . S
H302 C299 0.950 . S
C303 C294 1.390 . S
C303 H296 0.950 . S
C303 C300 1.387 1_565 S
C304 C305 1.387 . S
C304 H308 0.950 . S
C304 C313 1.390 . S
C305 C304 1.387 . S
C305 C307 1.387 . S
H306 C313 0.950 . S
C307 C305 1.387 . S
C307 C309 1.390 . S
C307 H311 0.950 . S
H308 C304 0.950 . S
C309 C307 1.390 . S
C309 C310 1.387 . S
C309 H312 0.950 . S
C310 C309 1.387 . S
C310 C313 1.387 . S
H311 C307 0.950 . S
H312 C309 0.950 . S
C313 C304 1.390 . S
C313 H306 0.950 . S
C313 C310 1.387 . S
C314 C315 1.387 . S
C314 H318 0.950 . S
C314 C323 1.390 . S
C315 C314 1.387 . S
C315 C317 1.387 . S
H316 C323 0.950 . S
C317 C315 1.387 . S
C317 C319 1.390 . S
C317 H321 0.950 . S
H318 C314 0.950 . S
C319 C317 1.390 . S
C319 C320 1.387 . S
C319 H322 0.950 . S
C320 C319 1.387 . S
C320 C323 1.387 . S
H321 C317 0.950 . S
H322 C319 0.950 . S
C323 C314 1.390 . S
C323 H316 0.950 . S
C323 C320 1.387 . S
C210 C169 1.532 . S
C205 C27 1.589 . S
C215 N6 1.491 . S
C220 C133 1.479 . S
C225 C16 1.562 . S
C230 C193 1.481 . S
C235 N14 1.466 . S
C240 C157 1.438 . S
C245 C57 1.589 . S
C250 C97 1.533 . S
C255 N36 1.491 . S
C260 C61 1.481 . S
C270 C121 1.482 . S
C265 C46 1.562 . S
C280 C85 1.437 . S
C275 N44 1.464 . S
C285 C10 1.394 . S
C290 C91 1.392 . S
C295 C1 1.537 . S
C300 C127 1.535 . S
C310 C163 1.392 . S
C305 C40 1.394 . S
C315 C31 1.537 . S
C320 C199 1.535 . S
