# Generated by pormake.
# Topology dag, (6,3)-cn, num edge types: 1
# Building blocks:
#     Node 0, Type 0, BuildingBlock: IZENUY_clean_sbu_0, # of connection points: 6
#     Node 1, Type 0, BuildingBlock: IZENUY_clean_sbu_0, # of connection points: 6
#     Node 2, Type 0, BuildingBlock: IZENUY_clean_sbu_0, # of connection points: 6
#     Node 3, Type 0, BuildingBlock: IZENUY_clean_sbu_0, # of connection points: 6
#     Node 4, Type 1, BuildingBlock: BELTOD_clean_linker_0, # of connection points: 3
#     Node 5, Type 1, BuildingBlock: BELTOD_clean_linker_0, # of connection points: 3
#     Node 6, Type 1, BuildingBlock: BELTOD_clean_linker_0, # of connection points: 3
#     Node 7, Type 1, BuildingBlock: BELTOD_clean_linker_0, # of connection points: 3
#     Node 8, Type 1, BuildingBlock: BELTOD_clean_linker_0, # of connection points: 3
#     Node 9, Type 1, BuildingBlock: BELTOD_clean_linker_0, # of connection points: 3
#     Node 10, Type 1, BuildingBlock: BELTOD_clean_linker_0, # of connection points: 3
#     Node 11, Type 1, BuildingBlock: BELTOD_clean_linker_0, # of connection points: 3
#     Edge 12, Type (0, 1), BuildingBlock: XIVTED_clean_linker_0, # of connection points: 2
#     Edge 13, Type (0, 1), BuildingBlock: XIVTED_clean_linker_0, # of connection points: 2
#     Edge 14, Type (0, 1), BuildingBlock: XIVTED_clean_linker_0, # of connection points: 2
#     Edge 15, Type (0, 1), BuildingBlock: XIVTED_clean_linker_0, # of connection points: 2
#     Edge 16, Type (0, 1), BuildingBlock: XIVTED_clean_linker_0, # of connection points: 2
#     Edge 17, Type (0, 1), BuildingBlock: XIVTED_clean_linker_0, # of connection points: 2
#     Edge 18, Type (0, 1), BuildingBlock: XIVTED_clean_linker_0, # of connection points: 2
#     Edge 19, Type (0, 1), BuildingBlock: XIVTED_clean_linker_0, # of connection points: 2
#     Edge 20, Type (0, 1), BuildingBlock: XIVTED_clean_linker_0, # of connection points: 2
#     Edge 21, Type (0, 1), BuildingBlock: XIVTED_clean_linker_0, # of connection points: 2
#     Edge 22, Type (0, 1), BuildingBlock: XIVTED_clean_linker_0, # of connection points: 2
#     Edge 23, Type (0, 1), BuildingBlock: XIVTED_clean_linker_0, # of connection points: 2
#     Edge 24, Type (0, 1), BuildingBlock: XIVTED_clean_linker_0, # of connection points: 2
#     Edge 25, Type (0, 1), BuildingBlock: XIVTED_clean_linker_0, # of connection points: 2
#     Edge 26, Type (0, 1), BuildingBlock: XIVTED_clean_linker_0, # of connection points: 2
#     Edge 27, Type (0, 1), BuildingBlock: XIVTED_clean_linker_0, # of connection points: 2
#     Edge 28, Type (0, 1), BuildingBlock: XIVTED_clean_linker_0, # of connection points: 2
#     Edge 29, Type (0, 1), BuildingBlock: XIVTED_clean_linker_0, # of connection points: 2
#     Edge 30, Type (0, 1), BuildingBlock: XIVTED_clean_linker_0, # of connection points: 2
#     Edge 31, Type (0, 1), BuildingBlock: XIVTED_clean_linker_0, # of connection points: 2
#     Edge 32, Type (0, 1), BuildingBlock: XIVTED_clean_linker_0, # of connection points: 2
#     Edge 33, Type (0, 1), BuildingBlock: XIVTED_clean_linker_0, # of connection points: 2
#     Edge 34, Type (0, 1), BuildingBlock: XIVTED_clean_linker_0, # of connection points: 2
#     Edge 35, Type (0, 1), BuildingBlock: XIVTED_clean_linker_0, # of connection points: 2
# Relax obj value: 0.239
# Max RMSD: 0.187
# Mean RMSD: 0.155
data_MOF--net-dag--node1-IZENUY_clean_sbu_0--node2-BELTOD_clean_linker_0--edge1-XIVTED_clean_linker_0
_symmetry_space_group_name_H-M    P1
_symmetry_Int_Tables_number       1
_symmetry_cell_setting            triclinic
loop_
_symmetry_equiv_pos_as_xyz
'x, y, z'
_cell_length_a     42.810803
_cell_length_b     45.745326
_cell_length_c     38.258794
_cell_angle_alpha  95.096548
_cell_angle_beta   90.337679
_cell_angle_gamma 90.31073
loop_
_atom_site_label
_atom_site_type_symbol
_atom_site_fract_x
_atom_site_fract_y
_atom_site_fract_z
_atom_type_partial_charge
Fe0 Fe 0.18742 0.86052 0.08561 0.0
Fe1 Fe 0.13254 0.88399 0.0455 0.0
O2 O 0.15284 0.85399 0.06053 0.0
Fe3 Fe 0.13836 0.81772 0.05095 0.0
O4 O 0.13525 0.81226 0.09702 0.0
O5 O 0.18176 0.82952 0.11224 0.0
O6 O 0.16669 0.88272 0.11947 0.0
C7 C 0.15129 0.90525 0.11393 0.0
C8 C 0.20414 0.81227 0.04278 0.0
O9 O 0.1435 0.91006 0.08299 0.0
C10 C 0.12714 0.84028 0.98852 0.0
O11 O 0.19946 0.89288 0.06346 0.0
O12 O 0.16577 0.8942 0.02016 0.0
O13 O 0.17749 0.80096 0.04749 0.0
O14 O 0.20996 0.83864 0.05342 0.0
C15 C 0.08451 0.8511 0.06841 0.0
O16 O 0.11767 0.86359 0.00537 0.0
O17 O 0.1402 0.8205 0.0041 0.0
C18 C 0.1921 0.90086 0.03359 0.0
O19 O 0.0985 0.87549 0.07031 0.0
O20 O 0.09678 0.82834 0.05295 0.0
C21 C 0.15714 0.81575 0.1191 0.0
Fe22 Fe 0.66856 0.63002 0.46721 0.0
Fe23 Fe 0.61877 0.6738 0.49656 0.0
O24 O 0.63261 0.63728 0.4887 0.0
Fe25 Fe 0.61037 0.60762 0.50198 0.0
O26 O 0.6413 0.5974 0.53083 0.0
O27 O 0.67795 0.59792 0.49102 0.0
O28 O 0.68957 0.65192 0.50117 0.0
C29 C 0.68405 0.67843 0.51092 0.0
C30 C 0.63305 0.58551 0.43605 0.0
O31 O 0.65809 0.69005 0.50399 0.0
C32 C 0.5651 0.64067 0.47429 0.0
O33 O 0.66593 0.66067 0.43982 0.0
O34 O 0.61939 0.67934 0.45018 0.0
O35 O 0.62322 0.58112 0.46625 0.0
O36 O 0.64948 0.60777 0.43161 0.0
C37 C 0.60254 0.65142 0.55788 0.0
O38 O 0.57714 0.66356 0.4903 0.0
O39 O 0.57853 0.6162 0.47371 0.0
C40 C 0.6427 0.6751 0.43047 0.0
O41 O 0.61704 0.67116 0.54358 0.0
O42 O 0.59321 0.62838 0.54013 0.0
C43 C 0.66838 0.59062 0.52034 0.0
Fe44 Fe 0.86775 0.19481 0.00759 0.0
Fe45 Fe 0.88487 0.12919 1e-05 0.0
O46 O 0.85814 0.15769 0.99371 0.0
Fe47 Fe 0.82159 0.1486 0.97361 0.0
O48 O 0.8298 0.17079 0.93834 0.0
O49 O 0.84735 0.20996 0.97057 0.0
O50 O 0.90271 0.19396 0.98091 0.0
C51 C 0.92425 0.1754 0.98192 0.0
C52 C 0.80589 0.19332 0.02601 0.0
O53 O 0.91993 0.15153 0.99549 0.0
C54 C 0.82661 0.10389 0.01528 0.0
O55 O 0.88984 0.18574 0.04671 0.0
O56 O 0.88429 0.1378 0.04704 0.0
O57 O 0.8001 0.17821 0.9975 0.0
O58 O 0.83364 0.19893 0.03569 0.0
C59 C 0.86355 0.11146 0.93433 0.0
O60 O 0.85482 0.10123 0.00587 0.0
O61 O 0.81095 0.12579 0.00804 0.0
C62 C 0.89029 0.16263 0.06282 0.0
O63 O 0.88705 0.11889 0.95316 0.0
O64 O 0.83626 0.11728 0.94533 0.0
C65 C 0.83706 0.1976 0.9417 0.0
Fe66 Fe 0.3854 0.37556 0.55751 0.0
Fe67 Fe 0.32704 0.35557 0.59431 0.0
O68 O 0.36175 0.34687 0.57084 0.0
Fe69 Fe 0.37293 0.30986 0.5608 0.0
O70 O 0.41009 0.31555 0.58375 0.0
O71 O 0.42225 0.35562 0.55941 0.0
O72 O 0.39236 0.3895 0.60273 0.0
C73 C 0.37081 0.39741 0.6238 0.0
C74 C 0.38666 0.33739 0.49868 0.0
O75 O 0.34271 0.38978 0.61716 0.0
C76 C 0.30979 0.30584 0.54871 0.0
O77 O 0.35305 0.40118 0.55284 0.0
O78 O 0.31103 0.37453 0.5587 0.0
O79 O 0.39034 0.3165 0.51812 0.0
O80 O 0.37971 0.36284 0.51176 0.0
C81 C 0.3499 0.31124 0.63041 0.0
O82 O 0.30523 0.32292 0.57608 0.0
O83 O 0.33694 0.30143 0.53697 0.0
C84 C 0.32418 0.39647 0.54744 0.0
O85 O 0.34081 0.33741 0.63118 0.0
O86 O 0.35723 0.29697 0.60167 0.0
C87 C 0.43018 0.33411 0.576 0.0
P88 P 0.0526 0.12931 0.38578 0.0
H89 H 0.03942 0.06612 0.37439 0.0
H90 H 0.05903 0.02788 0.33123 0.0
H91 H 0.12262 0.09075 0.29195 0.0
H92 H 0.10286 0.12872 0.33488 0.0
H93 H 0.0561 0.19327 0.40364 0.0
H94 H 0.09773 0.22527 0.43001 0.0
H95 H 0.15607 0.1494 0.43848 0.0
H96 H 0.11468 0.11781 0.41208 0.0
H97 H 0.98519 0.12466 0.37485 0.0
H98 H 0.06276 0.16961 0.33169 0.0
O99 O 0.03276 0.11566 0.41811 0.0
H100 H 0.95166 0.13821 0.32716 0.0
H101 H 0.02967 0.18253 0.28326 0.0
C102 C 0.07007 0.10009 0.35816 0.0
C103 C 0.05803 0.07147 0.35696 0.0
C104 C 0.06925 0.04966 0.33232 0.0
C105 C 0.0923 0.05637 0.30817 0.0
C106 C 0.10465 0.08499 0.30999 0.0
C107 C 0.09355 0.10665 0.33469 0.0
C108 C 0.08273 0.15331 0.40492 0.0
C109 C 0.07797 0.18363 0.41092 0.0
C110 C 0.10167 0.20184 0.42622 0.0
C111 C 0.13035 0.18989 0.43587 0.0
C112 C 0.13456 0.15937 0.43058 0.0
C113 C 0.11088 0.14127 0.41553 0.0
C114 C 0.02635 0.14649 0.3571 0.0
C115 C 0.9948 0.13819 0.35567 0.0
C116 C 0.97573 0.14565 0.3281 0.0
C117 C 0.98805 0.16117 0.30111 0.0
C118 C 0.0193 0.17087 0.30375 0.0
C119 C 0.0383 0.16347 0.33145 0.0
P120 P 0.45908 0.63108 0.88946 0.0
H121 H 0.52624 0.64086 0.88124 0.0
H122 H 0.5568 0.65449 0.83134 0.0
H123 H 0.47154 0.67122 0.7758 0.0
H124 H 0.4411 0.65732 0.82569 0.0
H125 H 0.40999 0.61924 0.93845 0.0
H126 H 0.36723 0.64875 0.96459 0.0
H127 H 0.39765 0.72201 0.90909 0.0
H128 H 0.44072 0.69274 0.884 0.0
H129 H 0.49054 0.57951 0.85812 0.0
H130 H 0.39582 0.61078 0.86659 0.0
O131 O 0.48252 0.62205 0.92175 0.0
H132 H 0.47326 0.53813 0.81826 0.0
H133 H 0.37785 0.56831 0.82908 0.0
C134 C 0.4814 0.64855 0.85738 0.0
C135 C 0.51412 0.64833 0.85881 0.0
C136 C 0.53157 0.65595 0.83019 0.0
C137 C 0.51654 0.6639 0.7997 0.0
C138 C 0.48378 0.66563 0.79914 0.0
C139 C 0.46636 0.65772 0.82763 0.0
C140 C 0.4281 0.65353 0.90867 0.0
C141 C 0.40737 0.64167 0.93192 0.0
C142 C 0.38284 0.65849 0.94666 0.0
C143 C 0.37882 0.68766 0.93867 0.0
C144 C 0.40014 0.69967 0.91593 0.0
C145 C 0.42465 0.68279 0.90121 0.0
C146 C 0.44449 0.59797 0.86588 0.0
C147 C 0.46583 0.5769 0.8523 0.0
C148 C 0.4558 0.55309 0.82956 0.0
C149 C 0.42403 0.54963 0.82022 0.0
C150 C 0.40256 0.57037 0.83502 0.0
C151 C 0.41276 0.59454 0.85715 0.0
P152 P 0.77978 0.88026 0.23446 0.0
H153 H 0.76933 0.94346 0.24088 0.0
H154 H 0.76082 0.97781 0.19683 0.0
H155 H 0.74933 0.90522 0.11734 0.0
H156 H 0.75834 0.8708 0.16186 0.0
H157 H 0.79246 0.82194 0.25528 0.0
H158 H 0.75844 0.78267 0.27144 0.0
H159 H 0.67769 0.83179 0.24272 0.0
H160 H 0.71217 0.87128 0.22661 0.0
H161 H 0.84017 0.9088 0.24406 0.0
H162 H 0.80252 0.83126 0.18629 0.0
O163 O 0.78374 0.89807 0.27425 0.0
H164 H 0.89102 0.89902 0.21775 0.0
H165 H 0.85394 0.82023 0.16106 0.0
C166 C 0.76438 0.90464 0.20456 0.0
C167 C 0.76395 0.93487 0.21423 0.0
C168 C 0.75892 0.95454 0.18896 0.0
C169 C 0.75459 0.94424 0.15352 0.0
C170 C 0.75289 0.91379 0.14439 0.0
C171 C 0.75784 0.89412 0.16977 0.0
C172 C 0.7549 0.84914 0.23889 0.0
C173 C 0.76752 0.82385 0.25129 0.0
C174 C 0.74797 0.80135 0.26048 0.0
C175 C 0.71532 0.80401 0.25811 0.0
C176 C 0.70274 0.82912 0.24479 0.0
C177 C 0.72242 0.85158 0.23536 0.0
C178 C 0.81789 0.87023 0.21808 0.0
C179 C 0.84313 0.88915 0.22644 0.0
C180 C 0.87231 0.88341 0.21139 0.0
C181 C 0.8769 0.85852 0.18758 0.0
C182 C 0.85135 0.83963 0.17915 0.0
C183 C 0.822 0.84566 0.19396 0.0
P184 P 0.76765 0.31246 0.60856 0.0
H185 H 0.78477 0.34941 0.55316 0.0
H186 H 0.77841 0.40177 0.54791 0.0
H187 H 0.74876 0.41375 0.65608 0.0
H188 H 0.75383 0.36115 0.66049 0.0
H189 H 0.75708 0.25897 0.6422 0.0
H190 H 0.77152 0.24388 0.69962 0.0
H191 H 0.82476 0.32408 0.72134 0.0
H192 H 0.81113 0.3385 0.66314 0.0
H193 H 0.72753 0.29783 0.54738 0.0
H194 H 0.71706 0.31268 0.65956 0.0
O195 O 0.78719 0.29527 0.57525 0.0
H196 H 0.67066 0.29498 0.54047 0.0
H197 H 0.66037 0.30991 0.6529 0.0
C198 C 0.77046 0.35153 0.60743 0.0
C199 C 0.77773 0.36344 0.576 0.0
C200 C 0.77416 0.39347 0.5731 0.0
C201 C 0.76304 0.41204 0.60159 0.0
C202 C 0.75705 0.40008 0.63352 0.0
C203 C 0.76034 0.37004 0.63624 0.0
C204 C 0.78198 0.30034 0.64906 0.0
C205 C 0.77201 0.27321 0.65924 0.0
C206 C 0.78012 0.26473 0.69216 0.0
C207 C 0.79854 0.28321 0.71544 0.0
C208 C 0.81031 0.3095 0.70414 0.0
C209 C 0.80227 0.31789 0.671 0.0
C210 C 0.72652 0.30469 0.604 0.0
C211 C 0.71303 0.2997 0.57056 0.0
C212 C 0.68055 0.29833 0.56665 0.0
C213 C 0.66104 0.30215 0.59617 0.0
C214 C 0.67474 0.30634 0.62972 0.0
C215 C 0.70719 0.3079 0.63355 0.0
P216 P 0.5375 0.35726 0.16828 0.0
H217 H 0.52025 0.41949 0.17821 0.0
H218 H 0.54029 0.46018 0.21847 0.0
H219 H 0.61229 0.40356 0.2535 0.0
H220 H 0.5921 0.36321 0.21388 0.0
H221 H 0.54894 0.29337 0.16703 0.0
H222 H 0.5943 0.26352 0.14854 0.0
H223 H 0.63923 0.34013 0.1127 0.0
H224 H 0.59418 0.36977 0.13158 0.0
H225 H 0.46976 0.35715 0.17765 0.0
H226 H 0.55087 0.32523 0.22932 0.0
O227 O 0.51656 0.36783 0.13475 0.0
H228 H 0.43734 0.34594 0.22711 0.0
H229 H 0.51883 0.31453 0.27916 0.0
C230 C 0.55503 0.38854 0.19266 0.0
C231 C 0.54079 0.41612 0.19399 0.0
C232 C 0.55226 0.43931 0.21692 0.0
C233 C 0.57777 0.43494 0.23914 0.0
C234 C 0.59246 0.40747 0.23688 0.0
C235 C 0.58106 0.38446 0.21401 0.0
C236 C 0.56859 0.33389 0.1514 0.0
C237 C 0.56856 0.3037 0.15522 0.0
C238 C 0.59443 0.28666 0.14451 0.0
C239 C 0.62056 0.29962 0.12977 0.0
C240 C 0.61981 0.32966 0.12478 0.0
C241 C 0.59397 0.34656 0.13528 0.0
C242 C 0.51263 0.34152 0.1995 0.0
C243 C 0.48045 0.34692 0.19916 0.0
C244 C 0.46199 0.34081 0.22768 0.0
C245 C 0.4755 0.32952 0.25725 0.0
C246 C 0.50754 0.32281 0.25666 0.0
C247 C 0.52594 0.32892 0.22812 0.0
P248 P 0.25821 0.18861 0.95112 0.0
H249 H 0.30504 0.15137 0.98061 0.0
H250 H 0.30758 0.09834 0.98512 0.0
H251 H 0.22026 0.08721 0.92794 0.0
H252 H 0.21849 0.13963 0.92268 0.0
H253 H 0.29747 0.23959 0.94188 0.0
H254 H 0.32192 0.25765 0.89058 0.0
H255 H 0.28641 0.182 0.82631 0.0
H256 H 0.26354 0.16335 0.87828 0.0
H257 H 0.21244 0.20264 0.00615 0.0
H258 H 0.2139 0.19447 0.89297 0.0
O259 O 0.27424 0.20483 0.98778 0.0
H260 H 0.15563 0.20828 0.00477 0.0
H261 H 0.15724 0.19969 0.89151 0.0
C262 C 0.26118 0.14951 0.95216 0.0
C263 C 0.2866 0.13739 0.96889 0.0
C264 C 0.28798 0.10711 0.97147 0.0
C265 C 0.26401 0.08849 0.95712 0.0
C266 C 0.23933 0.10075 0.93897 0.0
C267 C 0.23805 0.13092 0.93635 0.0
C268 C 0.27877 0.20014 0.91386 0.0
C269 C 0.29545 0.22663 0.91686 0.0
C270 C 0.30919 0.23706 0.88737 0.0
C271 C 0.30586 0.22149 0.8541 0.0
C272 C 0.28983 0.19443 0.85148 0.0
C273 C 0.27652 0.18381 0.88116 0.0
C274 C 0.21754 0.19849 0.94971 0.0
C275 C 0.20069 0.20281 0.98103 0.0
C276 C 0.16823 0.20604 0.98022 0.0
C277 C 0.15207 0.2044 0.94801 0.0
C278 C 0.16913 0.20097 0.91668 0.0
C279 C 0.2016 0.19815 0.91753 0.0
P280 P 0.2531 0.60064 0.32174 0.0
H281 H 0.23999 0.53798 0.31896 0.0
H282 H 0.23192 0.50604 0.36554 0.0
H283 H 0.22161 0.582 0.44017 0.0
H284 H 0.23022 0.61399 0.39306 0.0
H285 H 0.27315 0.65687 0.30032 0.0
H286 H 0.24502 0.69978 0.28487 0.0
H287 H 0.15774 0.65916 0.31058 0.0
H288 H 0.18649 0.61593 0.3268 0.0
H289 H 0.31287 0.57107 0.31092 0.0
H290 H 0.27778 0.64783 0.37126 0.0
O291 O 0.25567 0.58156 0.28261 0.0
H292 H 0.36497 0.58119 0.33523 0.0
H293 H 0.33012 0.65926 0.39416 0.0
C294 C 0.23568 0.57831 0.35262 0.0
C295 C 0.23474 0.54782 0.34503 0.0
C296 C 0.22996 0.52952 0.37179 0.0
C297 C 0.22645 0.54147 0.40669 0.0
C298 C 0.22459 0.57215 0.4136 0.0
C299 C 0.22931 0.59045 0.38671 0.0
C300 C 0.232 0.63362 0.31576 0.0
C301 C 0.24809 0.65751 0.30391 0.0
C302 C 0.23193 0.68213 0.29512 0.0
C303 C 0.19919 0.68304 0.29707 0.0
C304 C 0.183 0.65912 0.30919 0.0
C305 C 0.19937 0.63452 0.31851 0.0
C306 C 0.29176 0.60925 0.33835 0.0
C307 C 0.31657 0.59049 0.32885 0.0
C308 C 0.34643 0.59644 0.34268 0.0
C309 C 0.35204 0.62137 0.3663 0.0
C310 C 0.3268 0.63981 0.37623 0.0
C311 C 0.29687 0.63353 0.36276 0.0
P312 P 0.89505 0.83885 0.75004 0.0
H313 H 0.84493 0.87316 0.78492 0.0
H314 H 0.83809 0.92584 0.79747 0.0
H315 H 0.91651 0.94179 0.73098 0.0
H316 H 0.92321 0.8887 0.71846 0.0
H317 H 0.88342 0.77698 0.73076 0.0
H318 H 0.85563 0.75109 0.6814 0.0
H319 H 0.84862 0.83201 0.63164 0.0
H320 H 0.87638 0.85782 0.68119 0.0
H321 H 0.93849 0.87748 0.79054 0.0
H322 H 0.94156 0.79224 0.73243 0.0
O323 O 0.87663 0.82439 0.78281 0.0
H324 H 0.99168 0.87191 0.80988 0.0
H325 H 0.99537 0.78601 0.75334 0.0
C326 C 0.88507 0.87713 0.75153 0.0
C327 C 0.86021 0.88794 0.77236 0.0
C328 C 0.85619 0.91813 0.77932 0.0
C329 C 0.87705 0.93795 0.76556 0.0
C330 C 0.90037 0.927 0.74231 0.0
C331 C 0.90415 0.89675 0.73507 0.0
C332 C 0.88168 0.81933 0.70986 0.0
C333 C 0.87662 0.789 0.70881 0.0
C334 C 0.86078 0.77421 0.68051 0.0
C335 C 0.84962 0.7896 0.6528 0.0
C336 C 0.85652 0.81969 0.65289 0.0
C337 C 0.87255 0.83443 0.68118 0.0
C338 C 0.93623 0.83579 0.7588 0.0
C339 C 0.95092 0.85795 0.78075 0.0
C340 C 0.98152 0.8547 0.79199 0.0
C341 C 0.99793 0.82874 0.78259 0.0
C342 C 0.98335 0.80641 0.76054 0.0
C343 C 0.95267 0.80999 0.74857 0.0
H344 H 0.15657 0.89986 0.18462 0.0
H345 H 0.09995 0.0639 0.23882 0.0
H346 H 0.12915 0.96081 0.11028 0.0
H347 H 0.10675 -0.00164 0.31293 0.0
H348 H 0.11553 0.02731 0.19203 0.0
H349 H 0.14305 0.93657 0.23264 0.0
C350 C 0.14787 0.92098 0.17839 0.0
C351 C 0.14403 0.92729 0.14336 0.0
C352 C 0.11366 0.02088 0.21851 0.0
C353 C 0.12856 0.96928 0.19809 0.0
C354 C 0.10498 0.04182 0.24529 0.0
C355 C 0.10218 0.03418 0.27984 0.0
C356 C 0.11978 0.99203 0.22627 0.0
C357 C 0.10845 0.0051 0.28659 0.0
C358 C 0.14004 0.94185 0.20579 0.0
C359 C 0.13246 0.95494 0.13684 0.0
N360 N 0.11706 0.98506 0.26003 0.0
N361 N 0.12522 0.9749 0.16392 0.0
H362 H 0.59685 0.60913 0.60264 0.0
H363 H 0.51193 0.70617 0.75307 0.0
H364 H 0.58969 0.70275 0.59819 0.0
H365 H 0.56115 0.62691 0.77163 0.0
H366 H 0.53719 0.70566 0.69545 0.0
H367 H 0.5804 0.6149 0.66381 0.0
C368 C 0.59186 0.63094 0.61465 0.0
C369 C 0.59442 0.65549 0.59539 0.0
C370 C 0.54279 0.68871 0.71247 0.0
C371 C 0.57529 0.66223 0.66526 0.0
C372 C 0.52835 0.68893 0.74519 0.0
C373 C 0.53448 0.66655 0.7671 0.0
C374 C 0.56287 0.66559 0.7014 0.0
C375 C 0.55597 0.64474 0.75573 0.0
C376 C 0.58267 0.63424 0.6496 0.0
C377 C 0.58799 0.6833 0.61227 0.0
N378 N 0.56903 0.64457 0.72349 0.0
N379 N 0.57823 0.68591 0.64622 0.0
H380 H 0.77127 0.10476 0.05123 0.0
H381 H 0.78733 0.93727 0.09246 0.0
H382 H 0.84664 0.04748 0.01559 0.0
H383 H 0.72838 -0.00097 0.15264 0.0
H384 H 0.79994 0.97496 0.05364 0.0
H385 H 0.74745 0.06401 0.07944 0.0
C386 C 0.78267 0.08359 0.04914 0.0
C387 C 0.81113 0.07955 0.03138 0.0
C388 C 0.7839 0.98017 0.07506 0.0
C389 C 0.78391 0.03302 0.06303 0.0
C390 C 0.77636 0.95854 0.09702 0.0
C391 C 0.75697 0.96508 0.12608 0.0
C392 C 0.77205 0.0086 0.08217 0.0
C393 C 0.74385 0.99322 0.13087 0.0
C394 C 0.76908 0.06042 0.06521 0.0
C395 C 0.82489 0.0517 0.02938 0.0
N396 N 0.7519 0.0141 0.10936 0.0
N397 N 0.81117 0.02954 0.04506 0.0
H398 H 0.45815 0.29161 0.61231 0.0
H399 H 0.62938 0.33236 0.54906 0.0
H400 H 0.47922 0.36405 0.55105 0.0
H401 H 0.61457 0.27792 0.63405 0.0
H402 H 0.57314 0.33912 0.54463 0.0
H403 H 0.51443 0.28214 0.61704 0.0
C404 C 0.47453 0.30556 0.59999 0.0
C405 C 0.46389 0.32863 0.5812 0.0
C406 C 0.58212 0.32561 0.56421 0.0
C407 C 0.52799 0.3177 0.58614 0.0
C408 C 0.61424 0.32149 0.5665 0.0
C409 C 0.62669 0.30448 0.5919 0.0
C410 C 0.56212 0.31253 0.58735 0.0
C411 C 0.60591 0.29138 0.61425 0.0
C412 C 0.50658 0.30014 0.6027 0.0
C413 C 0.4862 0.34602 0.56581 0.0
N414 N 0.57458 0.29564 0.61145 0.0
N415 N 0.51706 0.34008 0.56846 0.0
H416 H 0.61295 0.52931 0.43959 0.0
H417 H 0.58755 0.49385 0.23356 0.0
H418 H 0.63853 0.59103 0.36542 0.0
H419 H 0.58947 0.42815 0.30779 0.0
H420 H 0.60261 0.53114 0.28104 0.0
H421 H 0.60058 0.4931 0.391 0.0
C422 C 0.61606 0.53523 0.41303 0.0
C423 C 0.62685 0.56321 0.40653 0.0
C424 C 0.59991 0.5085 0.28675 0.0
C425 C 0.61248 0.5218 0.35064 0.0
C426 C 0.59119 0.48732 0.2598 0.0
C427 C 0.58748 0.45791 0.26679 0.0
C428 C 0.60442 0.50015 0.32088 0.0
C429 C 0.59254 0.4505 0.30115 0.0
C430 C 0.60905 0.51449 0.38527 0.0
C431 C 0.63045 0.56962 0.37154 0.0
N432 N 0.60059 0.47149 0.32689 0.0
N433 N 0.62308 0.54907 0.3448 0.0
H434 H 0.95298 0.22939 0.98476 0.0
H435 H 0.11477 0.16491 0.90991 0.0
H436 H 0.96803 0.1375 0.95434 0.0
H437 H 0.11083 0.24104 0.9848 0.0
H438 H 0.05791 0.16018 0.91297 0.0
H439 H 0.00817 0.23921 0.97209 0.0
C440 C 0.96776 0.21141 0.97488 0.0
C441 C 0.95611 0.18256 0.97078 0.0
C442 C 0.06949 0.1781 0.92844 0.0
C443 C 0.01869 0.19364 0.95602 0.0
C444 C 0.10185 0.18093 0.92654 0.0
C445 C 0.11746 0.20336 0.94721 0.0
C446 C 0.05254 0.19803 0.95084 0.0
C447 C 0.09963 0.22331 0.96867 0.0
C448 C 0.99918 0.21699 0.9679 0.0
C449 C 0.97622 0.16 0.95814 0.0
N450 N 0.06803 0.22018 0.96997 0.0
N451 N 0.00652 0.16601 0.95117 0.0
H452 H 0.33902 0.45402 0.54409 0.0
H453 H 0.20308 0.48586 0.41281 0.0
H454 H 0.26622 0.39036 0.51633 0.0
H455 H 0.26173 0.55314 0.46583 0.0
H456 H 0.22245 0.45105 0.45289 0.0
H457 H 0.3088 0.49097 0.51716 0.0
C458 C 0.31661 0.44782 0.5323 0.0
C459 C 0.30525 0.419 0.53208 0.0
C460 C 0.2305 0.47362 0.45619 0.0
C461 C 0.27041 0.46131 0.50105 0.0
C462 C 0.21947 0.49348 0.43334 0.0
C463 C 0.23108 0.52238 0.43566 0.0
C464 C 0.25354 0.48271 0.48115 0.0
C465 C 0.25199 0.53117 0.46303 0.0
C466 C 0.2992 0.46901 0.51716 0.0
C467 C 0.27585 0.41233 0.51688 0.0
N468 N 0.26294 0.51129 0.48426 0.0
N469 N 0.25957 0.43328 0.5015 0.0
H470 H 0.11641 0.78735 0.95061 0.0
H471 H 0.04762 0.86653 0.78974 0.0
H472 H 0.11852 0.88066 0.94143 0.0
H473 H 0.0167 0.78142 0.81619 0.0
H474 H 0.08931 0.86575 0.83356 0.0
H475 H 0.09459 0.77982 0.89094 0.0
C476 C 0.11288 0.80617 0.93578 0.0
C477 C 0.11867 0.83473 0.9511 0.0
C478 C 0.07387 0.84693 0.82918 0.0
C479 C 0.09426 0.82624 0.88309 0.0
C480 C 0.05019 0.84731 0.80412 0.0
C481 C 0.02832 0.8243 0.79997 0.0
C482 C 0.07559 0.82342 0.8503 0.0
C483 C 0.03296 0.7997 0.81879 0.0
C484 C 0.10042 0.80185 0.90184 0.0
C485 C 0.11379 0.85834 0.93078 0.0
N486 N 0.05574 0.80016 0.84377 0.0
N487 N 0.10164 0.85359 0.89793 0.0
H488 H 0.81841 0.09335 0.88646 0.0
H489 H 0.92706 0.97239 0.78719 0.0
H490 H 0.917 0.08503 0.90768 0.0
H491 H 0.82671 0.97439 0.7766 0.0
H492 H 0.92559 0.02017 0.82111 0.0
H493 H 0.82308 0.05644 0.83688 0.0
C494 C 0.84114 0.08393 0.88055 0.0
C495 C 0.86724 0.09186 0.90177 0.0
C496 C 0.90394 0.0104 0.81087 0.0
C497 C 0.8727 0.04947 0.84488 0.0
C498 C 0.90477 0.98324 0.7912 0.0
C499 C 0.87689 0.96925 0.77941 0.0
C500 C 0.87503 0.02362 0.81882 0.0
C501 C 0.84868 0.98419 0.78574 0.0
C502 C 0.84377 0.06287 0.85214 0.0
C503 C 0.89617 0.07929 0.89236 0.0
N504 N 0.84844 0.01041 0.80538 0.0
N505 N 0.89805 0.05841 0.86486 0.0
H506 H 0.41368 0.28932 0.46298 0.0
H507 H 0.43294 0.36882 0.28623 0.0
H508 H 0.37877 0.37583 0.44846 0.0
H509 H 0.47682 0.28649 0.30325 0.0
H510 H 0.40704 0.36831 0.34269 0.0
H511 H 0.43132 0.2848 0.40204 0.0
C512 C 0.40946 0.30726 0.44694 0.0
C513 C 0.39499 0.33313 0.46104 0.0
C514 C 0.42211 0.3502 0.334 0.0
C515 C 0.41517 0.32807 0.39125 0.0
C516 C 0.43672 0.35033 0.30153 0.0
C517 C 0.45717 0.32766 0.2899 0.0
C518 C 0.42797 0.32729 0.35519 0.0
C519 C 0.46157 0.30461 0.31134 0.0
C520 C 0.41962 0.30468 0.41216 0.0
C521 C 0.39009 0.3556 0.4389 0.0
N522 N 0.44723 0.30509 0.34303 0.0
N523 N 0.4003 0.3526 0.40523 0.0
H524 H 0.242 0.93201 0.06297 0.0
H525 H 0.24522 0.04158 0.91179 0.0
H526 H 0.18615 0.92051 0.96832 0.0
H527 H 0.28022 0.06333 0.01703 0.0
H528 H 0.23501 0.99151 0.92646 0.0
H529 H 0.26775 0.97414 0.04026 0.0
C530 C 0.23549 0.93801 0.03717 0.0
C531 C 0.21142 0.92306 0.01781 0.0
C532 C 0.24535 0.00717 0.94615 0.0
C533 C 0.24081 0.97124 0.99177 0.0
C534 C 0.25107 0.03578 0.93786 0.0
C535 C 0.26304 0.05691 0.96342 0.0
C536 C 0.25172 -0.00044 0.98019 0.0
C537 C 0.27099 0.04787 0.99645 0.0
C538 C 0.25015 0.96213 0.02429 0.0
C539 C 0.20419 0.93172 0.98441 0.0
N540 N 0.26482 0.01997 0.00401 0.0
N541 N 0.21858 0.95545 0.97262 0.0
H542 H 0.51583 0.67717 0.49252 0.0
H543 H 0.40831 0.61212 0.3331 0.0
H544 H 0.54426 0.60647 0.41747 0.0
H545 H 0.36899 0.64557 0.43242 0.0
H546 H 0.46047 0.61971 0.35829 0.0
H547 H 0.46359 0.67557 0.465 0.0
C548 C 0.51115 0.66156 0.47011 0.0
C549 C 0.53417 0.64174 0.45737 0.0
C550 C 0.44035 0.62548 0.37445 0.0
C551 C 0.47519 0.64014 0.42574 0.0
C552 C 0.41052 0.62097 0.36021 0.0
C553 C 0.38399 0.62776 0.38074 0.0
C554 C 0.44387 0.63732 0.40933 0.0
C555 C 0.38861 0.64016 0.41541 0.0
C556 C 0.48143 0.66057 0.45459 0.0
C557 C 0.527 0.62189 0.42832 0.0
N558 N 0.41799 0.64449 0.42865 0.0
N559 N 0.49819 0.62165 0.41342 0.0
H560 H 0.42642 0.40555 0.65881 0.0
H561 H 0.37688 0.5506 0.77096 0.0
H562 H 0.33147 0.43676 0.65854 0.0
H563 H 0.44786 0.49367 0.80789 0.0
H564 H 0.36246 0.51212 0.72555 0.0
H565 H 0.43802 0.44113 0.70905 0.0
C566 C 0.40805 0.4199 0.66932 0.0
C567 C 0.37797 0.41831 0.65448 0.0
C568 C 0.38104 0.50807 0.74381 0.0
C569 C 0.39116 0.45908 0.71148 0.0
C570 C 0.38921 0.52997 0.77002 0.0
C571 C 0.41376 0.52561 0.79359 0.0
C572 C 0.39789 0.4818 0.74052 0.0
C573 C 0.42927 0.49847 0.79003 0.0
C574 C 0.41463 0.44002 0.69805 0.0
C575 C 0.35495 0.43725 0.66926 0.0
N576 N 0.42131 0.47774 0.76377 0.0
N577 N 0.36211 0.45711 0.69672 0.0
H578 H 0.0361 0.81231 0.05137 0.0
H579 H 0.93492 0.86913 0.21712 0.0
H580 H 0.06297 0.88599 0.12385 0.0
H581 H 0.89021 0.8354 0.12014 0.0
H582 H 0.98536 0.86517 0.18796 0.0
H583 H 0.98512 0.81093 0.08092 0.0
C584 C 0.03129 0.8281 0.07346 0.0
C585 C 0.05359 0.84947 0.08502 0.0
C586 C 0.96446 0.85852 0.17318 0.0
C587 C 0.99617 0.84752 0.11912 0.0
C588 C 0.93558 0.86092 0.18971 0.0
C589 C 0.90801 0.85315 0.17098 0.0
C590 C 0.96603 0.84779 0.13776 0.0
C591 C 0.91073 0.84159 0.13577 0.0
C592 C 0.00231 0.82733 0.09017 0.0
C593 C 0.04629 0.86939 0.1138 0.0
N594 N 0.93925 0.83934 0.12023 0.0
N595 N 0.01832 0.8678 0.12998 0.0
H596 H 0.65278 0.56573 0.5805 0.0
H597 H 0.79378 0.45171 0.56373 0.0
H598 H 0.72583 0.56758 0.50329 0.0
H599 H 0.71221 0.44249 0.62783 0.0
H600 H 0.7747 0.49959 0.54952 0.0
H601 H 0.68017 0.52633 0.6066 0.0
C602 C 0.67474 0.55808 0.56922 0.0
C603 C 0.68671 0.5696 0.53921 0.0
C604 C 0.76124 0.48721 0.56707 0.0
C605 C 0.71813 0.52442 0.56897 0.0
C606 C 0.77204 0.45983 0.57509 0.0
C607 C 0.75445 0.44284 0.59674 0.0
C608 C 0.73264 0.49766 0.58079 0.0
C609 C 0.72676 0.4548 0.61127 0.0
C610 C 0.69035 0.53555 0.58414 0.0
C611 C 0.71548 0.55905 0.52609 0.0
N612 N 0.71659 0.48131 0.60276 0.0
N613 N 0.73004 0.53682 0.54082 0.0
H614 H 0.88769 0.11926 0.10744 0.0
H615 H 0.98514 0.20852 0.26129 0.0
H616 H 0.91717 0.20925 0.10274 0.0
H617 H 0.94944 0.12054 0.26619 0.0
H618 H 0.95848 0.2106 0.20469 0.0
H619 H 0.90806 0.12072 0.1671 0.0
C620 C 0.89838 0.1394 0.11898 0.0
C621 C 0.90095 0.1641 0.09986 0.0
C622 C 0.95625 0.19098 0.21838 0.0
C623 C 0.9245 0.16589 0.16847 0.0
C624 C 0.97154 0.18974 0.25063 0.0
C625 C 0.96956 0.16432 0.26861 0.0
C626 C 0.93904 0.16655 0.20389 0.0
C627 C 0.95133 0.14077 0.25366 0.0
C628 C 0.90998 0.14024 0.15316 0.0
C629 C 0.91478 0.18965 0.11643 0.0
N630 N 0.93701 0.1424 0.22216 0.0
N631 N 0.92626 0.18982 0.14971 0.0
H632 H 0.11557 0.77335 0.13573 0.0
H633 H 0.21193 0.74186 0.30705 0.0
H634 H 0.19485 0.82437 0.17694 0.0
H635 H 0.14926 0.67928 0.25198 0.0
H636 H 0.19413 0.77919 0.26972 0.0
H637 H 0.11707 0.74554 0.18745 0.0
C638 C 0.13308 0.77893 0.15581 0.0
C639 C 0.1556 0.80076 0.15167 0.0
C640 C 0.18382 0.75745 0.26628 0.0
C641 C 0.15717 0.76927 0.21091 0.0
C642 C 0.19389 0.73619 0.28761 0.0
C643 C 0.18254 0.70732 0.28203 0.0
C644 C 0.16234 0.74971 0.23912 0.0
C645 C 0.15876 0.70124 0.25701 0.0
C646 C 0.13386 0.76307 0.18532 0.0
C647 C 0.17747 0.80729 0.17871 0.0
N648 N 0.14986 0.72214 0.23595 0.0
N649 N 0.17789 0.79141 0.20702 0.0
H650 H 0.683 0.73696 0.53472 0.0
H651 H 0.85462 0.73454 0.61861 0.0
H652 H 0.74288 0.66098 0.5274 0.0
H653 H 0.79544 0.81089 0.62689 0.0
H654 H 0.81542 0.70851 0.58084 0.0
H655 H 0.72516 0.76561 0.56489 0.0
C656 C 0.70499 0.72631 0.53934 0.0
C657 C 0.7093 0.69647 0.52862 0.0
C658 C 0.81111 0.73105 0.59064 0.0
C659 C 0.75764 0.72912 0.56304 0.0
C660 C 0.83349 0.74589 0.61223 0.0
C661 C 0.82823 0.77486 0.62607 0.0
C662 C 0.78313 0.74519 0.58302 0.0
C663 C 0.80059 0.78865 0.61657 0.0
C664 C 0.72907 0.74269 0.55651 0.0
C665 C 0.73837 0.68388 0.53526 0.0
N666 N 0.77895 0.7736 0.5959 0.0
N667 N 0.76133 0.70023 0.55211 0.0
H668 H 0.74496 0.17637 0.02107 0.0
H669 H 0.68202 0.31472 0.14093 0.0
H670 H 0.80616 0.24005 0.07675 0.0
H671 H 0.62291 0.24467 0.09501 0.0
H672 H 0.72794 0.28705 0.11989 0.0
H673 H 0.70033 0.20014 0.05031 0.0
C674 C 0.74903 0.19535 0.03959 0.0
C675 C 0.77933 0.20647 0.04616 0.0
C676 C 0.70495 0.27763 0.11465 0.0
C677 C 0.7281 0.23393 0.07976 0.0
C678 C 0.67872 0.29348 0.12645 0.0
C679 C 0.64858 0.28209 0.11938 0.0
C680 C 0.70102 0.25026 0.09542 0.0
C681 C 0.64569 0.25423 0.10114 0.0
C682 C 0.72349 0.20887 0.05638 0.0
C683 C 0.78319 0.23084 0.07081 0.0
N684 N 0.67156 0.2394 0.08952 0.0
N685 N 0.75779 0.24398 0.08647 0.0
H686 H 0.35454 0.25224 0.64005 0.0
H687 H 0.30492 0.27923 0.84083 0.0
H688 H 0.34275 0.33751 0.69638 0.0
H689 H 0.33132 0.19363 0.79383 0.0
H690 H 0.32029 0.30038 0.78768 0.0
H691 H 0.34774 0.22964 0.69547 0.0
C692 C 0.35081 0.2662 0.66402 0.0
C693 C 0.34876 0.29678 0.66346 0.0
C694 C 0.323 0.27698 0.78896 0.0
C695 C 0.34093 0.27119 0.72662 0.0
C696 C 0.31444 0.26485 0.81957 0.0
C697 C 0.31693 0.23453 0.82209 0.0
C698 C 0.33385 0.25874 0.76019 0.0
C699 C 0.32861 0.21706 0.79299 0.0
C700 C 0.34691 0.2533 0.69559 0.0
C701 C 0.34402 0.31382 0.69533 0.0
N702 N 0.33647 0.22939 0.76313 0.0
N703 N 0.34006 0.30079 0.72543 0.0
H704 H 0.67868 0.65938 0.37372 0.0
H705 H 0.66406 0.81445 0.29978 0.0
H706 H 0.61212 0.72453 0.41314 0.0
H707 H 0.72068 0.74409 0.25237 0.0
H708 H 0.63822 0.77963 0.33501 0.0
H709 H 0.68824 0.68743 0.32361 0.0
C710 C 0.66586 0.67952 0.37162 0.0
C711 C 0.64505 0.68998 0.39793 0.0
C712 C 0.65587 0.77168 0.31642 0.0
C713 C 0.65609 0.72242 0.34074 0.0
C714 C 0.6705 0.79153 0.29607 0.0
C715 C 0.69499 0.78225 0.27355 0.0
C716 C 0.666 0.74243 0.31441 0.0
C717 C 0.70246 0.75231 0.27005 0.0
C718 C 0.67123 0.69548 0.34291 0.0
C719 C 0.6286 0.71586 0.39357 0.0
N720 N 0.6884 0.73358 0.2907 0.0
N721 N 0.63491 0.73153 0.36582 0.0
H722 H 0.78767 0.19018 0.89772 0.0
H723 H 0.85268 0.28905 0.75503 0.0
H724 H 0.86993 0.24394 0.91847 0.0
H725 H 0.75669 0.26015 0.75889 0.0
H726 H 0.86112 0.27285 0.81387 0.0
H727 H 0.77737 0.21515 0.84545 0.0
C728 C 0.80349 0.20745 0.89127 0.0
C729 C 0.82977 0.21496 0.91219 0.0
C730 C 0.83819 0.27036 0.80184 0.0
C731 C 0.81835 0.24349 0.85204 0.0
C732 C 0.83335 0.27957 0.76833 0.0
C733 C 0.8041 0.27538 0.75173 0.0
C734 C 0.81364 0.25678 0.81857 0.0
C735 C 0.77988 0.26299 0.77016 0.0
C736 C 0.79754 0.2218 0.8615 0.0
C737 C 0.84938 0.23765 0.90291 0.0
N738 N 0.78528 0.2539 0.80237 0.0
N739 N 0.84353 0.25092 0.87305 0.0
H740 H 0.31136 0.26495 0.49199 0.0
H741 H 0.12653 0.23621 0.48655 0.0
H742 H 0.24746 0.30962 0.56528 0.0
H743 H 0.19258 0.18681 0.42053 0.0
H744 H 0.16981 0.26567 0.51338 0.0
H745 H 0.26746 0.23817 0.46352 0.0
C746 C 0.2881 0.26914 0.50216 0.0
C747 C 0.28317 0.2895 0.53126 0.0
C748 C 0.1748 0.24841 0.49298 0.0
C749 C 0.2326 0.25885 0.49854 0.0
C750 C 0.15009 0.23173 0.47752 0.0
C751 C 0.15598 0.20891 0.45141 0.0
C752 C 0.20556 0.24233 0.48211 0.0
C753 C 0.187 0.20388 0.44095 0.0
C754 C 0.26299 0.25381 0.48584 0.0
C755 C 0.25241 0.29404 0.54306 0.0
N756 N 0.21058 0.2204 0.45634 0.0
N757 N 0.22829 0.27882 0.52668 0.0
H758 H 0.26426 0.829 0.03065 0.0
H759 H 0.31814 0.67043 0.94828 0.0
H760 H 0.20254 0.75371 0.01899 0.0
H761 H 0.37959 0.74564 0.96413 0.0
H762 H 0.27536 0.70034 0.97362 0.0
H763 H 0.30641 0.79868 0.00541 0.0
C764 C 0.25952 0.80607 0.0228 0.0
C765 C 0.22974 0.7939 0.02709 0.0
C766 C 0.2982 0.71028 0.97154 0.0
C767 C 0.27817 0.75894 0.998 0.0
C768 C 0.3227 0.69318 0.95726 0.0
C769 C 0.35256 0.70552 0.95404 0.0
C770 C 0.30355 0.73997 0.98272 0.0
C771 C 0.35691 0.73526 0.96562 0.0
C772 C 0.28368 0.78874 0.00836 0.0
C773 C 0.2251 0.76403 0.01627 0.0
N774 N 0.33272 0.75142 0.97943 0.0
N775 N 0.24907 0.74757 0.00224 0.0
loop_
_geom_bond_atom_site_label_1
_geom_bond_atom_site_label_2
_geom_bond_distance
_geom_bond_site_symmetry_2
_ccdc_geom_bond_type
Fe0 O2 1.918 . S
Fe0 O5 1.997 . S
Fe0 O6 2.002 . S
Fe0 O11 1.976 . S
Fe0 O14 1.996 . S
Fe1 O2 1.918 . S
Fe1 O9 1.997 . S
Fe1 O12 1.996 . S
Fe1 O16 1.976 1_554 S
Fe1 O19 2.002 . S
O2 Fe0 1.918 . S
O2 Fe1 1.918 . S
O2 Fe3 1.918 . S
Fe3 O2 1.918 . S
Fe3 O4 2.002 . S
Fe3 O13 1.976 . S
Fe3 O17 1.996 1_554 S
Fe3 O20 1.997 . S
O4 Fe3 2.002 . S
O4 C21 1.295 . S
O5 Fe0 1.997 . S
O5 C21 1.235 . S
O6 Fe0 2.002 . S
O6 C7 1.295 . S
C7 O6 1.295 . S
C7 O9 1.235 . S
C8 O13 1.287 . S
C8 O14 1.255 . S
O9 Fe1 1.997 . S
O9 C7 1.235 . S
C10 O16 1.287 . S
C10 O17 1.255 . S
O11 Fe0 1.976 . S
O11 C18 1.287 . S
O12 Fe1 1.996 . S
O12 C18 1.255 . S
O13 Fe3 1.976 . S
O13 C8 1.287 . S
O14 Fe0 1.996 . S
O14 C8 1.255 . S
C15 O19 1.295 . S
C15 O20 1.235 . S
O16 Fe1 1.976 1_556 S
O16 C10 1.287 . S
O17 Fe3 1.996 1_556 S
O17 C10 1.255 . S
C18 O11 1.287 . S
C18 O12 1.255 . S
O19 Fe1 2.002 . S
O19 C15 1.295 . S
O20 Fe3 1.997 . S
O20 C15 1.235 . S
C21 O4 1.295 . S
C21 O5 1.235 . S
Fe22 O24 1.918 . S
Fe22 O27 1.997 . S
Fe22 O28 2.002 . S
Fe22 O33 1.976 . S
Fe22 O36 1.996 . S
Fe23 O24 1.918 . S
Fe23 O31 1.997 . S
Fe23 O34 1.996 . S
Fe23 O38 1.976 . S
Fe23 O41 2.002 . S
O24 Fe22 1.918 . S
O24 Fe23 1.918 . S
O24 Fe25 1.918 . S
Fe25 O24 1.918 . S
Fe25 O26 2.002 . S
Fe25 O35 1.976 . S
Fe25 O39 1.996 . S
Fe25 O42 1.997 . S
O26 Fe25 2.002 . S
O26 C43 1.295 . S
O27 Fe22 1.997 . S
O27 C43 1.235 . S
O28 Fe22 2.002 . S
O28 C29 1.295 . S
C29 O28 1.295 . S
C29 O31 1.235 . S
C30 O35 1.287 . S
C30 O36 1.255 . S
O31 Fe23 1.997 . S
O31 C29 1.235 . S
C32 O38 1.287 . S
C32 O39 1.255 . S
O33 Fe22 1.976 . S
O33 C40 1.287 . S
O34 Fe23 1.996 . S
O34 C40 1.255 . S
O35 Fe25 1.976 . S
O35 C30 1.287 . S
O36 Fe22 1.996 . S
O36 C30 1.255 . S
C37 O41 1.295 . S
C37 O42 1.235 . S
O38 Fe23 1.976 . S
O38 C32 1.287 . S
O39 Fe25 1.996 . S
O39 C32 1.255 . S
C40 O33 1.287 . S
C40 O34 1.255 . S
O41 Fe23 2.002 . S
O41 C37 1.295 . S
O42 Fe25 1.997 . S
O42 C37 1.235 . S
C43 O26 1.295 . S
C43 O27 1.235 . S
Fe44 O46 1.918 . S
Fe44 O49 1.997 1_554 S
Fe44 O50 2.002 1_554 S
Fe44 O55 1.976 . S
Fe44 O58 1.996 . S
Fe45 O46 1.918 . S
Fe45 O53 1.997 1_554 S
Fe45 O56 1.996 . S
Fe45 O60 1.976 . S
Fe45 O63 2.002 1_554 S
O46 Fe44 1.918 . S
O46 Fe45 1.918 . S
O46 Fe47 1.918 1_554 S
Fe47 O46 1.918 1_556 S
Fe47 O48 2.002 . S
Fe47 O57 1.976 1_556 S
Fe47 O61 1.996 1_556 S
Fe47 O64 1.997 . S
O48 Fe47 2.002 . S
O48 C65 1.295 . S
O49 Fe44 1.997 1_556 S
O49 C65 1.235 . S
O50 Fe44 2.002 1_556 S
O50 C51 1.295 . S
C51 O50 1.295 . S
C51 O53 1.235 . S
C52 O57 1.287 . S
C52 O58 1.255 . S
O53 Fe45 1.997 1_556 S
O53 C51 1.235 . S
C54 O60 1.287 . S
C54 O61 1.255 . S
O55 Fe44 1.976 . S
O55 C62 1.287 . S
O56 Fe45 1.996 . S
O56 C62 1.255 . S
O57 Fe47 1.976 1_554 S
O57 C52 1.287 . S
O58 Fe44 1.996 . S
O58 C52 1.255 . S
C59 O63 1.295 . S
C59 O64 1.235 . S
O60 Fe45 1.976 . S
O60 C54 1.287 . S
O61 Fe47 1.996 1_554 S
O61 C54 1.255 . S
C62 O55 1.287 . S
C62 O56 1.255 . S
O63 Fe45 2.002 1_556 S
O63 C59 1.295 . S
O64 Fe47 1.997 . S
O64 C59 1.235 . S
C65 O48 1.295 . S
C65 O49 1.235 . S
Fe66 O68 1.918 . S
Fe66 O71 1.997 . S
Fe66 O72 2.002 . S
Fe66 O77 1.976 . S
Fe66 O80 1.996 . S
Fe67 O68 1.918 . S
Fe67 O75 1.997 . S
Fe67 O78 1.996 . S
Fe67 O82 1.976 . S
Fe67 O85 2.002 . S
O68 Fe66 1.918 . S
O68 Fe67 1.918 . S
O68 Fe69 1.918 . S
Fe69 O68 1.918 . S
Fe69 O70 2.002 . S
Fe69 O79 1.976 . S
Fe69 O83 1.996 . S
Fe69 O86 1.997 . S
O70 Fe69 2.002 . S
O70 C87 1.295 . S
O71 Fe66 1.997 . S
O71 C87 1.235 . S
O72 Fe66 2.002 . S
O72 C73 1.295 . S
C73 O72 1.295 . S
C73 O75 1.235 . S
C74 O79 1.287 . S
C74 O80 1.255 . S
O75 Fe67 1.997 . S
O75 C73 1.235 . S
C76 O82 1.287 . S
C76 O83 1.255 . S
O77 Fe66 1.976 . S
O77 C84 1.287 . S
O78 Fe67 1.996 . S
O78 C84 1.255 . S
O79 Fe69 1.976 . S
O79 C74 1.287 . S
O80 Fe66 1.996 . S
O80 C74 1.255 . S
C81 O85 1.295 . S
C81 O86 1.235 . S
O82 Fe67 1.976 . S
O82 C76 1.287 . S
O83 Fe69 1.996 . S
O83 C76 1.255 . S
C84 O77 1.287 . S
C84 O78 1.255 . S
O85 Fe67 2.002 . S
O85 C81 1.295 . S
O86 Fe69 1.997 . S
O86 C81 1.235 . S
C87 O70 1.295 . S
C87 O71 1.235 . S
P88 O99 1.490 . S
P88 C102 1.812 . S
P88 C108 1.803 . S
P88 C114 1.819 . S
H89 C103 0.941 . S
H90 C104 0.939 . S
H91 C106 0.940 . S
H92 C107 0.940 . S
H93 C109 0.939 . S
H94 C110 0.942 . S
H95 C112 0.940 . S
H96 C113 0.939 . S
H97 C115 0.941 1_655 S
H98 C119 0.939 . S
O99 P88 1.490 . S
H100 C116 0.939 . S
H101 C118 0.940 . S
C102 P88 1.812 . S
C102 C103 1.389 . S
C102 C107 1.391 . S
C103 H89 0.941 . S
C103 C102 1.389 . S
C103 C104 1.397 . S
C104 H90 0.939 . S
C104 C103 1.397 . S
C104 C105 1.378 . S
C105 C104 1.378 . S
C105 C106 1.378 . S
C106 H91 0.940 . S
C106 C105 1.378 . S
C106 C107 1.396 . S
C107 H92 0.940 . S
C107 C102 1.391 . S
C107 C106 1.396 . S
C108 P88 1.803 . S
C108 C109 1.378 . S
C108 C113 1.400 . S
C109 H93 0.939 . S
C109 C108 1.378 . S
C109 C110 1.361 . S
C110 H94 0.942 . S
C110 C109 1.361 . S
C110 C111 1.369 . S
C111 C110 1.369 . S
C111 C112 1.404 . S
C112 H95 0.940 . S
C112 C111 1.404 . S
C112 C113 1.389 . S
C113 H96 0.939 . S
C113 C108 1.400 . S
C113 C112 1.389 . S
C114 P88 1.819 . S
C114 C115 1.391 . S
C114 C119 1.391 . S
C115 H97 0.941 1_455 S
C115 C114 1.391 . S
C115 C116 1.396 1_455 S
C116 H100 0.939 . S
C116 C115 1.396 1_655 S
C116 C117 1.397 . S
C117 C116 1.397 . S
C117 C118 1.385 1_655 S
C118 H101 0.940 . S
C118 C117 1.385 1_455 S
C118 C119 1.388 . S
C119 H98 0.939 . S
C119 C114 1.391 . S
C119 C118 1.388 . S
P120 O131 1.490 . S
P120 C134 1.812 . S
P120 C140 1.803 . S
P120 C146 1.819 . S
H121 C135 0.941 . S
H122 C136 0.939 . S
H123 C138 0.940 . S
H124 C139 0.940 . S
H125 C141 0.939 . S
H126 C142 0.942 . S
H127 C144 0.940 . S
H128 C145 0.939 . S
H129 C147 0.941 . S
H130 C151 0.939 . S
O131 P120 1.490 . S
H132 C148 0.939 . S
H133 C150 0.940 . S
C134 P120 1.812 . S
C134 C135 1.389 . S
C134 C139 1.391 . S
C135 H121 0.941 . S
C135 C134 1.389 . S
C135 C136 1.397 . S
C136 H122 0.939 . S
C136 C135 1.397 . S
C136 C137 1.378 . S
C137 C136 1.378 . S
C137 C138 1.378 . S
C138 H123 0.940 . S
C138 C137 1.378 . S
C138 C139 1.396 . S
C139 H124 0.940 . S
C139 C134 1.391 . S
C139 C138 1.396 . S
C140 P120 1.803 . S
C140 C141 1.378 . S
C140 C145 1.400 . S
C141 H125 0.939 . S
C141 C140 1.378 . S
C141 C142 1.361 . S
C142 H126 0.942 . S
C142 C141 1.361 . S
C142 C143 1.369 . S
C143 C142 1.369 . S
C143 C144 1.404 . S
C144 H127 0.940 . S
C144 C143 1.404 . S
C144 C145 1.389 . S
C145 H128 0.939 . S
C145 C140 1.400 . S
C145 C144 1.389 . S
C146 P120 1.819 . S
C146 C147 1.391 . S
C146 C151 1.391 . S
C147 H129 0.941 . S
C147 C146 1.391 . S
C147 C148 1.396 . S
C148 H132 0.939 . S
C148 C147 1.396 . S
C148 C149 1.397 . S
C149 C148 1.397 . S
C149 C150 1.385 . S
C150 H133 0.940 . S
C150 C149 1.385 . S
C150 C151 1.388 . S
C151 H130 0.939 . S
C151 C146 1.391 . S
C151 C150 1.388 . S
P152 O163 1.490 . S
P152 C166 1.812 . S
P152 C172 1.803 . S
P152 C178 1.819 . S
H153 C167 0.941 . S
H154 C168 0.939 . S
H155 C170 0.940 . S
H156 C171 0.940 . S
H157 C173 0.939 . S
H158 C174 0.942 . S
H159 C176 0.940 . S
H160 C177 0.939 . S
H161 C179 0.941 . S
H162 C183 0.939 . S
O163 P152 1.490 . S
H164 C180 0.939 . S
H165 C182 0.940 . S
C166 P152 1.812 . S
C166 C167 1.389 . S
C166 C171 1.391 . S
C167 H153 0.941 . S
C167 C166 1.389 . S
C167 C168 1.397 . S
C168 H154 0.939 . S
C168 C167 1.397 . S
C168 C169 1.378 . S
C169 C168 1.378 . S
C169 C170 1.378 . S
C170 H155 0.940 . S
C170 C169 1.378 . S
C170 C171 1.396 . S
C171 H156 0.940 . S
C171 C166 1.391 . S
C171 C170 1.396 . S
C172 P152 1.803 . S
C172 C173 1.378 . S
C172 C177 1.400 . S
C173 H157 0.939 . S
C173 C172 1.378 . S
C173 C174 1.361 . S
C174 H158 0.942 . S
C174 C173 1.361 . S
C174 C175 1.369 . S
C175 C174 1.369 . S
C175 C176 1.404 . S
C176 H159 0.940 . S
C176 C175 1.404 . S
C176 C177 1.389 . S
C177 H160 0.939 . S
C177 C172 1.400 . S
C177 C176 1.389 . S
C178 P152 1.819 . S
C178 C179 1.391 . S
C178 C183 1.391 . S
C179 H161 0.941 . S
C179 C178 1.391 . S
C179 C180 1.396 . S
C180 H164 0.939 . S
C180 C179 1.396 . S
C180 C181 1.397 . S
C181 C180 1.397 . S
C181 C182 1.385 . S
C182 H165 0.940 . S
C182 C181 1.385 . S
C182 C183 1.388 . S
C183 H162 0.939 . S
C183 C178 1.391 . S
C183 C182 1.388 . S
P184 O195 1.490 . S
P184 C198 1.812 . S
P184 C204 1.803 . S
P184 C210 1.819 . S
H185 C199 0.941 . S
H186 C200 0.939 . S
H187 C202 0.940 . S
H188 C203 0.940 . S
H189 C205 0.939 . S
H190 C206 0.942 . S
H191 C208 0.940 . S
H192 C209 0.939 . S
H193 C211 0.941 . S
H194 C215 0.939 . S
O195 P184 1.490 . S
H196 C212 0.939 . S
H197 C214 0.940 . S
C198 P184 1.812 . S
C198 C199 1.389 . S
C198 C203 1.391 . S
C199 H185 0.941 . S
C199 C198 1.389 . S
C199 C200 1.397 . S
C200 H186 0.939 . S
C200 C199 1.397 . S
C200 C201 1.378 . S
C201 C200 1.378 . S
C201 C202 1.378 . S
C202 H187 0.940 . S
C202 C201 1.378 . S
C202 C203 1.396 . S
C203 H188 0.940 . S
C203 C198 1.391 . S
C203 C202 1.396 . S
C204 P184 1.803 . S
C204 C205 1.378 . S
C204 C209 1.400 . S
C205 H189 0.939 . S
C205 C204 1.378 . S
C205 C206 1.361 . S
C206 H190 0.942 . S
C206 C205 1.361 . S
C206 C207 1.369 . S
C207 C206 1.369 . S
C207 C208 1.404 . S
C208 H191 0.940 . S
C208 C207 1.404 . S
C208 C209 1.389 . S
C209 H192 0.939 . S
C209 C204 1.400 . S
C209 C208 1.389 . S
C210 P184 1.819 . S
C210 C211 1.391 . S
C210 C215 1.391 . S
C211 H193 0.941 . S
C211 C210 1.391 . S
C211 C212 1.396 . S
C212 H196 0.939 . S
C212 C211 1.396 . S
C212 C213 1.397 . S
C213 C212 1.397 . S
C213 C214 1.385 . S
C214 H197 0.940 . S
C214 C213 1.385 . S
C214 C215 1.388 . S
C215 H194 0.939 . S
C215 C210 1.391 . S
C215 C214 1.388 . S
P216 O227 1.490 . S
P216 C230 1.812 . S
P216 C236 1.803 . S
P216 C242 1.819 . S
H217 C231 0.941 . S
H218 C232 0.939 . S
H219 C234 0.940 . S
H220 C235 0.940 . S
H221 C237 0.939 . S
H222 C238 0.942 . S
H223 C240 0.940 . S
H224 C241 0.939 . S
H225 C243 0.941 . S
H226 C247 0.939 . S
O227 P216 1.490 . S
H228 C244 0.939 . S
H229 C246 0.940 . S
C230 P216 1.812 . S
C230 C231 1.389 . S
C230 C235 1.391 . S
C231 H217 0.941 . S
C231 C230 1.389 . S
C231 C232 1.397 . S
C232 H218 0.939 . S
C232 C231 1.397 . S
C232 C233 1.378 . S
C233 C232 1.378 . S
C233 C234 1.378 . S
C234 H219 0.940 . S
C234 C233 1.378 . S
C234 C235 1.396 . S
C235 H220 0.940 . S
C235 C230 1.391 . S
C235 C234 1.396 . S
C236 P216 1.803 . S
C236 C237 1.378 . S
C236 C241 1.400 . S
C237 H221 0.939 . S
C237 C236 1.378 . S
C237 C238 1.361 . S
C238 H222 0.942 . S
C238 C237 1.361 . S
C238 C239 1.369 . S
C239 C238 1.369 . S
C239 C240 1.404 . S
C240 H223 0.940 . S
C240 C239 1.404 . S
C240 C241 1.389 . S
C241 H224 0.939 . S
C241 C236 1.400 . S
C241 C240 1.389 . S
C242 P216 1.819 . S
C242 C243 1.391 . S
C242 C247 1.391 . S
C243 H225 0.941 . S
C243 C242 1.391 . S
C243 C244 1.396 . S
C244 H228 0.939 . S
C244 C243 1.396 . S
C244 C245 1.397 . S
C245 C244 1.397 . S
C245 C246 1.385 . S
C246 H229 0.940 . S
C246 C245 1.385 . S
C246 C247 1.388 . S
C247 H226 0.939 . S
C247 C242 1.391 . S
C247 C246 1.388 . S
P248 O259 1.490 . S
P248 C262 1.812 . S
P248 C268 1.803 . S
P248 C274 1.819 . S
H249 C263 0.941 . S
H250 C264 0.939 . S
H251 C266 0.940 . S
H252 C267 0.940 . S
H253 C269 0.939 . S
H254 C270 0.942 . S
H255 C272 0.940 . S
H256 C273 0.939 . S
H257 C275 0.941 1_554 S
H258 C279 0.939 . S
O259 P248 1.490 . S
H260 C276 0.939 1_554 S
H261 C278 0.940 . S
C262 P248 1.812 . S
C262 C263 1.389 . S
C262 C267 1.391 . S
C263 H249 0.941 . S
C263 C262 1.389 . S
C263 C264 1.397 . S
C264 H250 0.939 . S
C264 C263 1.397 . S
C264 C265 1.378 . S
C265 C264 1.378 . S
C265 C266 1.378 . S
C266 H251 0.940 . S
C266 C265 1.378 . S
C266 C267 1.396 . S
C267 H252 0.940 . S
C267 C262 1.391 . S
C267 C266 1.396 . S
C268 P248 1.803 . S
C268 C269 1.378 . S
C268 C273 1.400 . S
C269 H253 0.939 . S
C269 C268 1.378 . S
C269 C270 1.361 . S
C270 H254 0.942 . S
C270 C269 1.361 . S
C270 C271 1.369 . S
C271 C270 1.369 . S
C271 C272 1.404 . S
C272 H255 0.940 . S
C272 C271 1.404 . S
C272 C273 1.389 . S
C273 H256 0.939 . S
C273 C268 1.400 . S
C273 C272 1.389 . S
C274 P248 1.819 . S
C274 C275 1.391 . S
C274 C279 1.391 . S
C275 H257 0.941 1_556 S
C275 C274 1.391 . S
C275 C276 1.396 . S
C276 H260 0.939 1_556 S
C276 C275 1.396 . S
C276 C277 1.397 . S
C277 C276 1.397 . S
C277 C278 1.385 . S
C278 H261 0.940 . S
C278 C277 1.385 . S
C278 C279 1.388 . S
C279 H258 0.939 . S
C279 C274 1.391 . S
C279 C278 1.388 . S
P280 O291 1.490 . S
P280 C294 1.812 . S
P280 C300 1.803 . S
P280 C306 1.819 . S
H281 C295 0.941 . S
H282 C296 0.939 . S
H283 C298 0.940 . S
H284 C299 0.940 . S
H285 C301 0.939 . S
H286 C302 0.942 . S
H287 C304 0.940 . S
H288 C305 0.939 . S
H289 C307 0.941 . S
H290 C311 0.939 . S
O291 P280 1.490 . S
H292 C308 0.939 . S
H293 C310 0.940 . S
C294 P280 1.812 . S
C294 C295 1.389 . S
C294 C299 1.391 . S
C295 H281 0.941 . S
C295 C294 1.389 . S
C295 C296 1.397 . S
C296 H282 0.939 . S
C296 C295 1.397 . S
C296 C297 1.378 . S
C297 C296 1.378 . S
C297 C298 1.378 . S
C298 H283 0.940 . S
C298 C297 1.378 . S
C298 C299 1.396 . S
C299 H284 0.940 . S
C299 C294 1.391 . S
C299 C298 1.396 . S
C300 P280 1.803 . S
C300 C301 1.378 . S
C300 C305 1.400 . S
C301 H285 0.939 . S
C301 C300 1.378 . S
C301 C302 1.361 . S
C302 H286 0.942 . S
C302 C301 1.361 . S
C302 C303 1.369 . S
C303 C302 1.369 . S
C303 C304 1.404 . S
C304 H287 0.940 . S
C304 C303 1.404 . S
C304 C305 1.389 . S
C305 H288 0.939 . S
C305 C300 1.400 . S
C305 C304 1.389 . S
C306 P280 1.819 . S
C306 C307 1.391 . S
C306 C311 1.391 . S
C307 H289 0.941 . S
C307 C306 1.391 . S
C307 C308 1.396 . S
C308 H292 0.939 . S
C308 C307 1.396 . S
C308 C309 1.397 . S
C309 C308 1.397 . S
C309 C310 1.385 . S
C310 H293 0.940 . S
C310 C309 1.385 . S
C310 C311 1.388 . S
C311 H290 0.939 . S
C311 C306 1.391 . S
C311 C310 1.388 . S
P312 O323 1.490 . S
P312 C326 1.812 . S
P312 C332 1.803 . S
P312 C338 1.819 . S
H313 C327 0.941 . S
H314 C328 0.939 . S
H315 C330 0.940 . S
H316 C331 0.940 . S
H317 C333 0.939 . S
H318 C334 0.942 . S
H319 C336 0.940 . S
H320 C337 0.939 . S
H321 C339 0.941 . S
H322 C343 0.939 . S
O323 P312 1.490 . S
H324 C340 0.939 . S
H325 C342 0.940 . S
C326 P312 1.812 . S
C326 C327 1.389 . S
C326 C331 1.391 . S
C327 H313 0.941 . S
C327 C326 1.389 . S
C327 C328 1.397 . S
C328 H314 0.939 . S
C328 C327 1.397 . S
C328 C329 1.378 . S
C329 C328 1.378 . S
C329 C330 1.378 . S
C330 H315 0.940 . S
C330 C329 1.378 . S
C330 C331 1.396 . S
C331 H316 0.940 . S
C331 C326 1.391 . S
C331 C330 1.396 . S
C332 P312 1.803 . S
C332 C333 1.378 . S
C332 C337 1.400 . S
C333 H317 0.939 . S
C333 C332 1.378 . S
C333 C334 1.361 . S
C334 H318 0.942 . S
C334 C333 1.361 . S
C334 C335 1.369 . S
C335 C334 1.369 . S
C335 C336 1.404 . S
C336 H319 0.940 . S
C336 C335 1.404 . S
C336 C337 1.389 . S
C337 H320 0.939 . S
C337 C332 1.400 . S
C337 C336 1.389 . S
C338 P312 1.819 . S
C338 C339 1.391 . S
C338 C343 1.391 . S
C339 H321 0.941 . S
C339 C338 1.391 . S
C339 C340 1.396 . S
C340 H324 0.939 . S
C340 C339 1.396 . S
C340 C341 1.397 . S
C341 C340 1.397 . S
C341 C342 1.385 . S
C342 H325 0.940 . S
C342 C341 1.385 . S
C342 C343 1.388 . S
C343 H322 0.939 . S
C343 C338 1.391 . S
C343 C342 1.388 . S
H344 C350 0.930 . S
H345 C354 0.930 . S
H346 C359 0.929 . S
H347 C357 0.929 . S
H348 C352 0.931 . S
H349 C358 0.929 . S
C350 H344 0.930 . S
C350 C351 1.367 . S
C350 C358 1.378 . S
C351 C350 1.367 . S
C351 C359 1.433 . S
C352 H348 0.931 . S
C352 C354 1.378 1_565 S
C352 C356 1.350 . S
C353 C356 1.463 . S
C353 C358 1.350 . S
C353 N361 1.427 . S
C354 H345 0.930 . S
C354 C352 1.378 1_545 S
C354 C355 1.367 . S
C355 C354 1.367 . S
C355 C357 1.433 1_545 S
C356 C352 1.350 . S
C356 C353 1.463 . S
C356 N360 1.427 . S
C357 H347 0.929 . S
C357 C355 1.433 1_565 S
C357 N360 1.384 . S
C358 H349 0.929 . S
C358 C350 1.378 . S
C358 C353 1.350 . S
C359 H346 0.929 . S
C359 C351 1.433 . S
C359 N361 1.384 . S
N360 C356 1.427 . S
N360 C357 1.384 . S
N361 C353 1.427 . S
N361 C359 1.384 . S
H362 C368 0.930 . S
H363 C372 0.930 . S
H364 C377 0.929 . S
H365 C375 0.929 . S
H366 C370 0.929 . S
H367 C376 0.929 . S
C368 H362 0.930 . S
C368 C369 1.367 . S
C368 C376 1.378 . S
C369 C368 1.367 . S
C369 C377 1.433 . S
C370 H366 0.929 . S
C370 C372 1.378 . S
C370 C374 1.350 . S
C371 C374 1.463 . S
C371 C376 1.350 . S
C371 N379 1.427 . S
C372 H363 0.930 . S
C372 C370 1.378 . S
C372 C373 1.367 . S
C373 C372 1.367 . S
C373 C375 1.433 . S
C374 C370 1.350 . S
C374 C371 1.463 . S
C374 N378 1.427 . S
C375 H365 0.929 . S
C375 C373 1.433 . S
C375 N378 1.384 . S
C376 H367 0.929 . S
C376 C368 1.378 . S
C376 C371 1.350 . S
C377 H364 0.929 . S
C377 C369 1.433 . S
C377 N379 1.384 . S
N378 C374 1.427 . S
N378 C375 1.384 . S
N379 C371 1.427 . S
N379 C377 1.384 . S
H380 C386 0.930 . S
H381 C390 0.930 . S
H382 C395 0.929 . S
H383 C393 0.929 . S
H384 C388 0.929 . S
H385 C394 0.929 . S
C386 H380 0.930 . S
C386 C387 1.367 . S
C386 C394 1.378 . S
C387 C386 1.367 . S
C387 C395 1.433 . S
C388 H384 0.929 . S
C388 C390 1.378 . S
C388 C392 1.350 . S
C389 C392 1.463 1_545 S
C389 C394 1.350 . S
C389 N397 1.427 . S
C390 H381 0.930 . S
C390 C388 1.378 . S
C390 C391 1.367 . S
C391 C390 1.367 . S
C391 C393 1.433 . S
C392 C388 1.350 . S
C392 C389 1.463 1_565 S
C392 N396 1.427 . S
C393 H383 0.929 . S
C393 C391 1.433 . S
C393 N396 1.384 . S
C394 H385 0.929 . S
C394 C386 1.378 . S
C394 C389 1.350 . S
C395 H382 0.929 . S
C395 C387 1.433 . S
C395 N397 1.384 . S
N396 C392 1.427 . S
N396 C393 1.384 . S
N397 C389 1.427 . S
N397 C395 1.384 . S
H398 C404 0.930 . S
H399 C408 0.930 . S
H400 C413 0.929 . S
H401 C411 0.929 . S
H402 C406 0.929 . S
H403 C412 0.929 . S
C404 H398 0.930 . S
C404 C405 1.367 . S
C404 C412 1.378 . S
C405 C404 1.367 . S
C405 C413 1.433 . S
C406 H402 0.929 . S
C406 C408 1.378 . S
C406 C410 1.350 . S
C407 C410 1.463 . S
C407 C412 1.350 . S
C407 N415 1.427 . S
C408 H399 0.930 . S
C408 C406 1.378 . S
C408 C409 1.367 . S
C409 C408 1.367 . S
C409 C411 1.433 . S
C410 C406 1.350 . S
C410 C407 1.463 . S
C410 N414 1.427 . S
C411 H401 0.929 . S
C411 C409 1.433 . S
C411 N414 1.384 . S
C412 H403 0.929 . S
C412 C404 1.378 . S
C412 C407 1.350 . S
C413 H400 0.929 . S
C413 C405 1.433 . S
C413 N415 1.384 . S
N414 C410 1.427 . S
N414 C411 1.384 . S
N415 C407 1.427 . S
N415 C413 1.384 . S
H416 C422 0.930 . S
H417 C426 0.930 . S
H418 C431 0.929 . S
H419 C429 0.929 . S
H420 C424 0.929 . S
H421 C430 0.929 . S
C422 H416 0.930 . S
C422 C423 1.367 . S
C422 C430 1.378 . S
C423 C422 1.367 . S
C423 C431 1.433 . S
C424 H420 0.929 . S
C424 C426 1.378 . S
C424 C428 1.350 . S
C425 C428 1.463 . S
C425 C430 1.350 . S
C425 N433 1.427 . S
C426 H417 0.930 . S
C426 C424 1.378 . S
C426 C427 1.367 . S
C427 C426 1.367 . S
C427 C429 1.433 . S
C428 C424 1.350 . S
C428 C425 1.463 . S
C428 N432 1.427 . S
C429 H419 0.929 . S
C429 C427 1.433 . S
C429 N432 1.384 . S
C430 H421 0.929 . S
C430 C422 1.378 . S
C430 C425 1.350 . S
C431 H418 0.929 . S
C431 C423 1.433 . S
C431 N433 1.384 . S
N432 C428 1.427 . S
N432 C429 1.384 . S
N433 C425 1.427 . S
N433 C431 1.384 . S
H434 C440 0.930 1_554 S
H435 C444 0.930 . S
H436 C449 0.929 . S
H437 C447 0.929 . S
H438 C442 0.929 . S
H439 C448 0.929 1_554 S
C440 H434 0.930 1_556 S
C440 C441 1.367 . S
C440 C448 1.378 1_655 S
C441 C440 1.367 . S
C441 C449 1.433 . S
C442 H438 0.929 . S
C442 C444 1.378 . S
C442 C446 1.350 . S
C443 C446 1.463 . S
C443 C448 1.350 . S
C443 N451 1.435 . S
C444 H435 0.930 . S
C444 C442 1.378 . S
C444 C445 1.367 . S
C445 C444 1.367 . S
C445 C447 1.433 . S
C446 C442 1.350 . S
C446 C443 1.463 . S
C446 N450 1.427 . S
C447 H437 0.929 . S
C447 C445 1.433 . S
C447 N450 1.384 . S
C448 H439 0.929 1_556 S
C448 C440 1.378 1_455 S
C448 C443 1.350 . S
C449 H436 0.929 . S
C449 C441 1.433 . S
C449 N451 1.368 1_655 S
N450 C446 1.427 . S
N450 C447 1.384 . S
N451 C443 1.435 . S
N451 C449 1.368 1_455 S
H452 C458 0.930 . S
H453 C462 0.930 . S
H454 C467 0.929 . S
H455 C465 0.929 . S
H456 C460 0.929 . S
H457 C466 0.929 . S
C458 H452 0.930 . S
C458 C459 1.367 . S
C458 C466 1.378 . S
C459 C458 1.367 . S
C459 C467 1.433 . S
C460 H456 0.929 . S
C460 C462 1.378 . S
C460 C464 1.350 . S
C461 C464 1.463 . S
C461 C466 1.350 . S
C461 N469 1.427 . S
C462 H453 0.930 . S
C462 C460 1.378 . S
C462 C463 1.367 . S
C463 C462 1.367 . S
C463 C465 1.433 . S
C464 C460 1.350 . S
C464 C461 1.463 . S
C464 N468 1.427 . S
C465 H455 0.929 . S
C465 C463 1.433 . S
C465 N468 1.384 . S
C466 H457 0.929 . S
C466 C458 1.378 . S
C466 C461 1.350 . S
C467 H454 0.929 . S
C467 C459 1.433 . S
C467 N469 1.384 . S
N468 C464 1.427 . S
N468 C465 1.384 . S
N469 C461 1.427 . S
N469 C467 1.384 . S
H470 C476 0.930 . S
H471 C480 0.930 . S
H472 C485 0.929 . S
H473 C483 0.929 1_655 S
H474 C478 0.929 . S
H475 C484 0.929 . S
C476 H470 0.930 . S
C476 C477 1.367 . S
C476 C484 1.378 . S
C477 C476 1.367 . S
C477 C485 1.433 . S
C478 H474 0.929 . S
C478 C480 1.378 . S
C478 C482 1.350 . S
C479 C482 1.463 . S
C479 C484 1.350 . S
C479 N487 1.427 . S
C480 H471 0.930 . S
C480 C478 1.378 . S
C480 C481 1.367 . S
C481 C480 1.367 . S
C481 C483 1.433 . S
C482 C478 1.350 . S
C482 C479 1.463 . S
C482 N486 1.427 . S
C483 H473 0.929 1_455 S
C483 C481 1.433 . S
C483 N486 1.384 . S
C484 H475 0.929 . S
C484 C476 1.378 . S
C484 C479 1.350 . S
C485 H472 0.929 . S
C485 C477 1.433 . S
C485 N487 1.384 . S
N486 C482 1.427 . S
N486 C483 1.384 . S
N487 C479 1.427 . S
N487 C485 1.384 . S
H488 C494 0.930 . S
H489 C498 0.930 . S
H490 C503 0.929 . S
H491 C501 0.929 . S
H492 C496 0.929 . S
H493 C502 0.929 . S
C494 H488 0.930 . S
C494 C495 1.367 . S
C494 C502 1.378 . S
C495 C494 1.367 . S
C495 C503 1.433 . S
C496 H492 0.929 . S
C496 C498 1.378 . S
C496 C500 1.350 . S
C497 C500 1.463 . S
C497 C502 1.350 . S
C497 N505 1.427 . S
C498 H489 0.930 . S
C498 C496 1.378 . S
C498 C499 1.367 1_545 S
C499 C498 1.367 1_565 S
C499 C501 1.433 . S
C500 C496 1.350 . S
C500 C497 1.463 . S
C500 N504 1.427 . S
C501 H491 0.929 . S
C501 C499 1.433 . S
C501 N504 1.384 1_565 S
C502 H493 0.929 . S
C502 C494 1.378 . S
C502 C497 1.350 . S
C503 H490 0.929 . S
C503 C495 1.433 . S
C503 N505 1.384 . S
N504 C500 1.427 . S
N504 C501 1.384 1_545 S
N505 C497 1.427 . S
N505 C503 1.384 . S
H506 C512 0.930 . S
H507 C516 0.930 . S
H508 C521 0.929 . S
H509 C519 0.929 . S
H510 C514 0.929 . S
H511 C520 0.929 . S
C512 H506 0.930 . S
C512 C513 1.367 . S
C512 C520 1.378 . S
C513 C512 1.367 . S
C513 C521 1.433 . S
C514 H510 0.929 . S
C514 C516 1.378 . S
C514 C518 1.350 . S
C515 C518 1.463 . S
C515 C520 1.350 . S
C515 N523 1.427 . S
C516 H507 0.930 . S
C516 C514 1.378 . S
C516 C517 1.367 . S
C517 C516 1.367 . S
C517 C519 1.433 . S
C518 C514 1.350 . S
C518 C515 1.463 . S
C518 N522 1.427 . S
C519 H509 0.929 . S
C519 C517 1.433 . S
C519 N522 1.384 . S
C520 H511 0.929 . S
C520 C512 1.378 . S
C520 C515 1.350 . S
C521 H508 0.929 . S
C521 C513 1.433 . S
C521 N523 1.384 . S
N522 C518 1.427 . S
N522 C519 1.384 . S
N523 C515 1.427 . S
N523 C521 1.384 . S
H524 C530 0.930 . S
H525 C534 0.930 . S
H526 C539 0.929 . S
H527 C537 0.929 . S
H528 C532 0.929 1_565 S
H529 C538 0.929 . S
C530 H524 0.930 . S
C530 C531 1.367 . S
C530 C538 1.378 . S
C531 C530 1.367 . S
C531 C539 1.433 1_554 S
C532 H528 0.929 1_545 S
C532 C534 1.378 . S
C532 C536 1.350 . S
C533 C536 1.463 1_565 S
C533 C538 1.350 1_556 S
C533 N541 1.427 . S
C534 H525 0.930 . S
C534 C532 1.378 . S
C534 C535 1.367 . S
C535 C534 1.367 . S
C535 C537 1.433 1_556 S
C536 C532 1.350 . S
C536 C533 1.463 1_545 S
C536 N540 1.427 1_556 S
C537 H527 0.929 . S
C537 C535 1.433 1_554 S
C537 N540 1.384 . S
C538 H529 0.929 . S
C538 C530 1.378 . S
C538 C533 1.350 1_554 S
C539 H526 0.929 . S
C539 C531 1.433 1_556 S
C539 N541 1.384 . S
N540 C536 1.427 1_554 S
N540 C537 1.384 . S
N541 C533 1.427 . S
N541 C539 1.384 . S
H542 C548 0.930 . S
H543 C552 0.930 . S
H544 C557 0.929 . S
H545 C555 0.929 . S
H546 C550 0.929 . S
H547 C556 0.929 . S
C548 H542 0.930 . S
C548 C549 1.367 . S
C548 C556 1.378 . S
C549 C548 1.367 . S
C549 C557 1.433 . S
C550 H546 0.929 . S
C550 C552 1.378 . S
C550 C554 1.350 . S
C551 C554 1.463 . S
C551 C556 1.350 . S
C551 N559 1.427 . S
C552 H543 0.930 . S
C552 C550 1.378 . S
C552 C553 1.367 . S
C553 C552 1.367 . S
C553 C555 1.433 . S
C554 C550 1.350 . S
C554 C551 1.463 . S
C554 N558 1.427 . S
C555 H545 0.929 . S
C555 C553 1.433 . S
C555 N558 1.384 . S
C556 H547 0.929 . S
C556 C548 1.378 . S
C556 C551 1.350 . S
C557 H544 0.929 . S
C557 C549 1.433 . S
C557 N559 1.384 . S
N558 C554 1.427 . S
N558 C555 1.384 . S
N559 C551 1.427 . S
N559 C557 1.384 . S
H560 C566 0.930 . S
H561 C570 0.930 . S
H562 C575 0.929 . S
H563 C573 0.929 . S
H564 C568 0.929 . S
H565 C574 0.929 . S
C566 H560 0.930 . S
C566 C567 1.367 . S
C566 C574 1.378 . S
C567 C566 1.367 . S
C567 C575 1.433 . S
C568 H564 0.929 . S
C568 C570 1.378 . S
C568 C572 1.350 . S
C569 C572 1.463 . S
C569 C574 1.350 . S
C569 N577 1.427 . S
C570 H561 0.930 . S
C570 C568 1.378 . S
C570 C571 1.367 . S
C571 C570 1.367 . S
C571 C573 1.433 . S
C572 C568 1.350 . S
C572 C569 1.463 . S
C572 N576 1.427 . S
C573 H563 0.929 . S
C573 C571 1.433 . S
C573 N576 1.384 . S
C574 H565 0.929 . S
C574 C566 1.378 . S
C574 C569 1.350 . S
C575 H562 0.929 . S
C575 C567 1.433 . S
C575 N577 1.384 . S
N576 C572 1.427 . S
N576 C573 1.384 . S
N577 C569 1.427 . S
N577 C575 1.384 . S
H578 C584 0.930 . S
H579 C588 0.930 . S
H580 C593 0.929 . S
H581 C591 0.929 . S
H582 C586 0.929 . S
H583 C592 0.918 1_655 S
C584 H578 0.930 . S
C584 C585 1.367 . S
C584 C592 1.401 . S
C585 C584 1.367 . S
C585 C593 1.433 . S
C586 H582 0.929 . S
C586 C588 1.378 . S
C586 C590 1.350 . S
C587 C590 1.463 . S
C587 C592 1.337 1_655 S
C587 N595 1.427 . S
C588 H579 0.930 . S
C588 C586 1.378 . S
C588 C589 1.367 . S
C589 C588 1.367 . S
C589 C591 1.433 . S
C590 C586 1.350 . S
C590 C587 1.463 . S
C590 N594 1.427 . S
C591 H581 0.929 . S
C591 C589 1.433 . S
C591 N594 1.384 . S
C592 H583 0.918 1_455 S
C592 C584 1.401 . S
C592 C587 1.337 1_455 S
C593 H580 0.929 . S
C593 C585 1.433 . S
C593 N595 1.384 1_455 S
N594 C590 1.427 . S
N594 C591 1.384 . S
N595 C587 1.427 . S
N595 C593 1.384 1_655 S
H596 C602 0.930 . S
H597 C606 0.930 . S
H598 C611 0.929 . S
H599 C609 0.929 . S
H600 C604 0.929 . S
H601 C610 0.929 . S
C602 H596 0.930 . S
C602 C603 1.367 . S
C602 C610 1.378 . S
C603 C602 1.367 . S
C603 C611 1.433 . S
C604 H600 0.929 . S
C604 C606 1.378 . S
C604 C608 1.350 . S
C605 C608 1.463 . S
C605 C610 1.350 . S
C605 N613 1.427 . S
C606 H597 0.930 . S
C606 C604 1.378 . S
C606 C607 1.367 . S
C607 C606 1.367 . S
C607 C609 1.433 . S
C608 C604 1.350 . S
C608 C605 1.463 . S
C608 N612 1.427 . S
C609 H599 0.929 . S
C609 C607 1.433 . S
C609 N612 1.384 . S
C610 H601 0.929 . S
C610 C602 1.378 . S
C610 C605 1.350 . S
C611 H598 0.929 . S
C611 C603 1.433 . S
C611 N613 1.384 . S
N612 C608 1.427 . S
N612 C609 1.384 . S
N613 C605 1.427 . S
N613 C611 1.384 . S
H614 C620 0.930 . S
H615 C624 0.930 . S
H616 C629 0.929 . S
H617 C627 0.929 . S
H618 C622 0.929 . S
H619 C628 0.929 . S
C620 H614 0.930 . S
C620 C621 1.367 . S
C620 C628 1.378 . S
C621 C620 1.367 . S
C621 C629 1.433 . S
C622 H618 0.929 . S
C622 C624 1.378 . S
C622 C626 1.350 . S
C623 C626 1.463 . S
C623 C628 1.350 . S
C623 N631 1.427 . S
C624 H615 0.930 . S
C624 C622 1.378 . S
C624 C625 1.367 . S
C625 C624 1.367 . S
C625 C627 1.433 . S
C626 C622 1.350 . S
C626 C623 1.463 . S
C626 N630 1.427 . S
C627 H617 0.929 . S
C627 C625 1.433 . S
C627 N630 1.384 . S
C628 H619 0.929 . S
C628 C620 1.378 . S
C628 C623 1.350 . S
C629 H616 0.929 . S
C629 C621 1.433 . S
C629 N631 1.384 . S
N630 C626 1.427 . S
N630 C627 1.384 . S
N631 C623 1.427 . S
N631 C629 1.384 . S
H632 C638 0.930 . S
H633 C642 0.930 . S
H634 C647 0.929 . S
H635 C645 0.929 . S
H636 C640 0.929 . S
H637 C646 0.929 . S
C638 H632 0.930 . S
C638 C639 1.367 . S
C638 C646 1.378 . S
C639 C638 1.367 . S
C639 C647 1.433 . S
C640 H636 0.929 . S
C640 C642 1.378 . S
C640 C644 1.350 . S
C641 C644 1.463 . S
C641 C646 1.350 . S
C641 N649 1.427 . S
C642 H633 0.930 . S
C642 C640 1.378 . S
C642 C643 1.367 . S
C643 C642 1.367 . S
C643 C645 1.433 . S
C644 C640 1.350 . S
C644 C641 1.463 . S
C644 N648 1.427 . S
C645 H635 0.929 . S
C645 C643 1.433 . S
C645 N648 1.384 . S
C646 H637 0.929 . S
C646 C638 1.378 . S
C646 C641 1.350 . S
C647 H634 0.929 . S
C647 C639 1.433 . S
C647 N649 1.384 . S
N648 C644 1.427 . S
N648 C645 1.384 . S
N649 C641 1.427 . S
N649 C647 1.384 . S
H650 C656 0.930 . S
H651 C660 0.930 . S
H652 C665 0.929 . S
H653 C663 0.929 . S
H654 C658 0.929 . S
H655 C664 0.929 . S
C656 H650 0.930 . S
C656 C657 1.367 . S
C656 C664 1.378 . S
C657 C656 1.367 . S
C657 C665 1.433 . S
C658 H654 0.929 . S
C658 C660 1.378 . S
C658 C662 1.350 . S
C659 C662 1.463 . S
C659 C664 1.350 . S
C659 N667 1.427 . S
C660 H651 0.930 . S
C660 C658 1.378 . S
C660 C661 1.367 . S
C661 C660 1.367 . S
C661 C663 1.433 . S
C662 C658 1.350 . S
C662 C659 1.463 . S
C662 N666 1.427 . S
C663 H653 0.929 . S
C663 C661 1.433 . S
C663 N666 1.384 . S
C664 H655 0.929 . S
C664 C656 1.378 . S
C664 C659 1.350 . S
C665 H652 0.929 . S
C665 C657 1.433 . S
C665 N667 1.384 . S
N666 C662 1.427 . S
N666 C663 1.384 . S
N667 C659 1.427 . S
N667 C665 1.384 . S
H668 C674 0.930 . S
H669 C678 0.930 . S
H670 C683 0.929 . S
H671 C681 0.929 . S
H672 C676 0.929 . S
H673 C682 0.929 . S
C674 H668 0.930 . S
C674 C675 1.367 . S
C674 C682 1.378 . S
C675 C674 1.367 . S
C675 C683 1.433 . S
C676 H672 0.929 . S
C676 C678 1.378 . S
C676 C680 1.350 . S
C677 C680 1.463 . S
C677 C682 1.350 . S
C677 N685 1.427 . S
C678 H669 0.930 . S
C678 C676 1.378 . S
C678 C679 1.367 . S
C679 C678 1.367 . S
C679 C681 1.433 . S
C680 C676 1.350 . S
C680 C677 1.463 . S
C680 N684 1.427 . S
C681 H671 0.929 . S
C681 C679 1.433 . S
C681 N684 1.384 . S
C682 H673 0.929 . S
C682 C674 1.378 . S
C682 C677 1.350 . S
C683 H670 0.929 . S
C683 C675 1.433 . S
C683 N685 1.384 . S
N684 C680 1.427 . S
N684 C681 1.384 . S
N685 C677 1.427 . S
N685 C683 1.384 . S
H686 C692 0.930 . S
H687 C696 0.930 . S
H688 C701 0.929 . S
H689 C699 0.929 . S
H690 C694 0.929 . S
H691 C700 0.929 . S
C692 H686 0.930 . S
C692 C693 1.367 . S
C692 C700 1.378 . S
C693 C692 1.367 . S
C693 C701 1.433 . S
C694 H690 0.929 . S
C694 C696 1.378 . S
C694 C698 1.350 . S
C695 C698 1.463 . S
C695 C700 1.350 . S
C695 N703 1.427 . S
C696 H687 0.930 . S
C696 C694 1.378 . S
C696 C697 1.367 . S
C697 C696 1.367 . S
C697 C699 1.433 . S
C698 C694 1.350 . S
C698 C695 1.463 . S
C698 N702 1.427 . S
C699 H689 0.929 . S
C699 C697 1.433 . S
C699 N702 1.384 . S
C700 H691 0.929 . S
C700 C692 1.378 . S
C700 C695 1.350 . S
C701 H688 0.929 . S
C701 C693 1.433 . S
C701 N703 1.384 . S
N702 C698 1.427 . S
N702 C699 1.384 . S
N703 C695 1.427 . S
N703 C701 1.384 . S
H704 C710 0.930 . S
H705 C714 0.930 . S
H706 C719 0.929 . S
H707 C717 0.929 . S
H708 C712 0.929 . S
H709 C718 0.929 . S
C710 H704 0.930 . S
C710 C711 1.367 . S
C710 C718 1.378 . S
C711 C710 1.367 . S
C711 C719 1.433 . S
C712 H708 0.929 . S
C712 C714 1.378 . S
C712 C716 1.350 . S
C713 C716 1.463 . S
C713 C718 1.350 . S
C713 N721 1.427 . S
C714 H705 0.930 . S
C714 C712 1.378 . S
C714 C715 1.367 . S
C715 C714 1.367 . S
C715 C717 1.433 . S
C716 C712 1.350 . S
C716 C713 1.463 . S
C716 N720 1.427 . S
C717 H707 0.929 . S
C717 C715 1.433 . S
C717 N720 1.384 . S
C718 H709 0.929 . S
C718 C710 1.378 . S
C718 C713 1.350 . S
C719 H706 0.929 . S
C719 C711 1.433 . S
C719 N721 1.384 . S
N720 C716 1.427 . S
N720 C717 1.384 . S
N721 C713 1.427 . S
N721 C719 1.384 . S
H722 C728 0.930 . S
H723 C732 0.930 . S
H724 C737 0.929 . S
H725 C735 0.929 . S
H726 C730 0.929 . S
H727 C736 0.929 . S
C728 H722 0.930 . S
C728 C729 1.367 . S
C728 C736 1.378 . S
C729 C728 1.367 . S
C729 C737 1.433 . S
C730 H726 0.929 . S
C730 C732 1.378 . S
C730 C734 1.350 . S
C731 C734 1.463 . S
C731 C736 1.350 . S
C731 N739 1.427 . S
C732 H723 0.930 . S
C732 C730 1.378 . S
C732 C733 1.367 . S
C733 C732 1.367 . S
C733 C735 1.433 . S
C734 C730 1.350 . S
C734 C731 1.463 . S
C734 N738 1.427 . S
C735 H725 0.929 . S
C735 C733 1.433 . S
C735 N738 1.384 . S
C736 H727 0.929 . S
C736 C728 1.378 . S
C736 C731 1.350 . S
C737 H724 0.929 . S
C737 C729 1.433 . S
C737 N739 1.384 . S
N738 C734 1.427 . S
N738 C735 1.384 . S
N739 C731 1.427 . S
N739 C737 1.384 . S
H740 C746 0.930 . S
H741 C750 0.930 . S
H742 C755 0.929 . S
H743 C753 0.929 . S
H744 C748 0.929 . S
H745 C754 0.929 . S
C746 H740 0.930 . S
C746 C747 1.367 . S
C746 C754 1.378 . S
C747 C746 1.367 . S
C747 C755 1.433 . S
C748 H744 0.929 . S
C748 C750 1.378 . S
C748 C752 1.350 . S
C749 C752 1.463 . S
C749 C754 1.350 . S
C749 N757 1.427 . S
C750 H741 0.930 . S
C750 C748 1.378 . S
C750 C751 1.367 . S
C751 C750 1.367 . S
C751 C753 1.433 . S
C752 C748 1.350 . S
C752 C749 1.463 . S
C752 N756 1.427 . S
C753 H743 0.929 . S
C753 C751 1.433 . S
C753 N756 1.384 . S
C754 H745 0.929 . S
C754 C746 1.378 . S
C754 C749 1.350 . S
C755 H742 0.929 . S
C755 C747 1.433 . S
C755 N757 1.384 . S
N756 C752 1.427 . S
N756 C753 1.384 . S
N757 C749 1.427 . S
N757 C755 1.384 . S
H758 C764 0.930 . S
H759 C768 0.930 . S
H760 C773 0.929 . S
H761 C771 0.929 . S
H762 C766 0.929 . S
H763 C772 0.929 . S
C764 H758 0.930 . S
C764 C765 1.367 1_556 S
C764 C772 1.378 . S
C765 C764 1.367 1_554 S
C765 C773 1.433 . S
C766 H762 0.929 . S
C766 C768 1.378 . S
C766 C770 1.350 . S
C767 C770 1.463 . S
C767 C772 1.350 . S
C767 N775 1.427 . S
C768 H759 0.930 . S
C768 C766 1.378 . S
C768 C769 1.367 . S
C769 C768 1.367 . S
C769 C771 1.433 . S
C770 C766 1.350 . S
C770 C767 1.463 . S
C770 N774 1.427 . S
C771 H761 0.929 . S
C771 C769 1.433 . S
C771 N774 1.384 . S
C772 H763 0.929 . S
C772 C764 1.378 . S
C772 C767 1.350 . S
C773 H760 0.929 . S
C773 C765 1.433 . S
C773 N775 1.384 1_554 S
N774 C770 1.427 . S
N774 C771 1.384 . S
N775 C767 1.427 . S
N775 C773 1.384 1_556 S
C351 C7 1.510 . S
C355 C105 1.496 . S
C369 C37 1.360 . S
C373 C137 1.344 . S
C387 C54 1.574 . S
C391 C169 1.425 . S
C409 C213 1.463 . S
C405 C87 1.448 . S
C427 C233 1.414 . S
C423 C30 1.418 . S
C441 C51 1.471 . S
C445 C277 1.499 . S
C459 C84 1.594 . S
C463 C297 1.448 . S
C477 C10 1.351 . S
C481 C341 1.220 1_455 S
C495 C59 1.512 . S
C499 C329 1.410 . S
C517 C245 1.354 . S
C513 C74 1.388 . S
C535 C265 1.589 . S
C531 C18 1.624 . S
C549 C32 1.444 . S
C553 C309 1.338 . S
C571 C149 1.532 . S
C567 C73 1.537 . S
C585 C15 1.451 . S
C589 C181 1.352 . S
C607 C201 1.593 . S
C603 C43 1.612 . S
C625 C117 1.348 . S
C621 C62 1.358 . S
C643 C303 1.393 . S
C639 C21 1.516 . S
C661 C335 1.258 . S
C657 C29 1.340 . S
C675 C52 1.307 . S
C679 C239 1.304 . S
C697 C271 1.523 . S
C693 C81 1.529 . S
C715 C175 1.349 . S
C711 C40 1.482 . S
C729 C65 1.492 . S
C733 C207 1.492 . S
C751 C111 1.332 . S
C747 C76 1.337 . S
C769 C143 1.346 . S
C765 C8 1.343 . S
