# Generated by pormake.
# Topology apo, (3,6)-cn, num edge types: 1
# Building blocks:
#     Node 0, Type 0, BuildingBlock: ESEHIV_clean_linker_0, # of connection points: 3
#     Node 1, Type 0, BuildingBlock: ESEHIV_clean_linker_0, # of connection points: 3
#     Node 2, Type 0, BuildingBlock: ESEHIV_clean_linker_0, # of connection points: 3
#     Node 3, Type 0, BuildingBlock: ESEHIV_clean_linker_0, # of connection points: 3
#     Node 4, Type 0, BuildingBlock: ESEHIV_clean_linker_0, # of connection points: 3
#     Node 5, Type 0, BuildingBlock: ESEHIV_clean_linker_0, # of connection points: 3
#     Node 6, Type 0, BuildingBlock: ESEHIV_clean_linker_0, # of connection points: 3
#     Node 7, Type 0, BuildingBlock: ESEHIV_clean_linker_0, # of connection points: 3
#     Node 8, Type 1, BuildingBlock: MIDCAF_clean_sbu_0, # of connection points: 6
#     Node 9, Type 1, BuildingBlock: MIDCAF_clean_sbu_0, # of connection points: 6
#     Node 10, Type 1, BuildingBlock: MIDCAF_clean_sbu_0, # of connection points: 6
#     Node 11, Type 1, BuildingBlock: MIDCAF_clean_sbu_0, # of connection points: 6
#     Edge 12, Type (0, 1), BuildingBlock: KIFKEQ_clean_linker_1, # of connection points: 2
#     Edge 13, Type (0, 1), BuildingBlock: KIFKEQ_clean_linker_1, # of connection points: 2
#     Edge 14, Type (0, 1), BuildingBlock: KIFKEQ_clean_linker_1, # of connection points: 2
#     Edge 15, Type (0, 1), BuildingBlock: KIFKEQ_clean_linker_1, # of connection points: 2
#     Edge 16, Type (0, 1), BuildingBlock: KIFKEQ_clean_linker_1, # of connection points: 2
#     Edge 17, Type (0, 1), BuildingBlock: KIFKEQ_clean_linker_1, # of connection points: 2
#     Edge 18, Type (0, 1), BuildingBlock: KIFKEQ_clean_linker_1, # of connection points: 2
#     Edge 19, Type (0, 1), BuildingBlock: KIFKEQ_clean_linker_1, # of connection points: 2
#     Edge 20, Type (0, 1), BuildingBlock: KIFKEQ_clean_linker_1, # of connection points: 2
#     Edge 21, Type (0, 1), BuildingBlock: KIFKEQ_clean_linker_1, # of connection points: 2
#     Edge 22, Type (0, 1), BuildingBlock: KIFKEQ_clean_linker_1, # of connection points: 2
#     Edge 23, Type (0, 1), BuildingBlock: KIFKEQ_clean_linker_1, # of connection points: 2
#     Edge 24, Type (0, 1), BuildingBlock: KIFKEQ_clean_linker_1, # of connection points: 2
#     Edge 25, Type (0, 1), BuildingBlock: KIFKEQ_clean_linker_1, # of connection points: 2
#     Edge 26, Type (0, 1), BuildingBlock: KIFKEQ_clean_linker_1, # of connection points: 2
#     Edge 27, Type (0, 1), BuildingBlock: KIFKEQ_clean_linker_1, # of connection points: 2
#     Edge 28, Type (0, 1), BuildingBlock: KIFKEQ_clean_linker_1, # of connection points: 2
#     Edge 29, Type (0, 1), BuildingBlock: KIFKEQ_clean_linker_1, # of connection points: 2
#     Edge 30, Type (0, 1), BuildingBlock: KIFKEQ_clean_linker_1, # of connection points: 2
#     Edge 31, Type (0, 1), BuildingBlock: KIFKEQ_clean_linker_1, # of connection points: 2
#     Edge 32, Type (0, 1), BuildingBlock: KIFKEQ_clean_linker_1, # of connection points: 2
#     Edge 33, Type (0, 1), BuildingBlock: KIFKEQ_clean_linker_1, # of connection points: 2
#     Edge 34, Type (0, 1), BuildingBlock: KIFKEQ_clean_linker_1, # of connection points: 2
#     Edge 35, Type (0, 1), BuildingBlock: KIFKEQ_clean_linker_1, # of connection points: 2
# Relax obj value: 0.086
# Max RMSD: 0.099
# Mean RMSD: 0.089
data_MOF--net-apo--node1-MIDCAF_clean_sbu_0--node2-ESEHIV_clean_linker_0--edge1-KIFKEQ_clean_linker_1
_symmetry_space_group_name_H-M    P1
_symmetry_Int_Tables_number       1
_symmetry_cell_setting            triclinic
loop_
_symmetry_equiv_pos_as_xyz
'x, y, z'
_cell_length_a     33.46549
_cell_length_b     41.626776
_cell_length_c     33.734299
_cell_angle_alpha  90.124762
_cell_angle_beta   89.617611
_cell_angle_gamma 90.128623
loop_
_atom_site_label
_atom_site_type_symbol
_atom_site_fract_x
_atom_site_fract_y
_atom_site_fract_z
_atom_type_partial_charge
H0 H 0.37142 0.34565 0.44333 0.0
H1 H 0.32045 0.3212 0.33031 0.0
H2 H 0.28571 0.2689 0.43505 0.0
C3 C 0.3515 0.33097 0.42565 0.0
C4 C 0.32879 0.30685 0.44426 0.0
C5 C 0.34911 0.33628 0.38458 0.0
C6 C 0.32278 0.31739 0.36198 0.0
C7 C 0.29997 0.29307 0.38014 0.0
C8 C 0.30329 0.28772 0.42115 0.0
H9 H 0.12069 0.10828 0.93903 0.0
H10 H 0.18275 0.12638 0.82905 0.0
H11 H 0.21604 0.17742 0.93524 0.0
C12 C 0.14317 0.12127 0.92214 0.0
C13 C 0.16737 0.14378 0.94162 0.0
C14 C 0.14885 0.11435 0.8817 0.0
C15 C 0.17843 0.13121 0.86037 0.0
C16 C 0.20271 0.1541 0.87939 0.0
C17 C 0.19752 0.15981 0.9203 0.0
H18 H 0.86826 0.10484 0.61201 0.0
H19 H 0.79934 0.11414 0.71957 0.0
H20 H 0.78356 0.18164 0.62412 0.0
C21 C 0.84603 0.11745 0.62963 0.0
C22 C 0.8275 0.1447 0.61384 0.0
C23 C 0.83576 0.10588 0.66742 0.0
C24 C 0.80767 0.12291 0.69042 0.0
C25 C 0.78847 0.15017 0.67492 0.0
C26 C 0.79813 0.16065 0.63628 0.0
H27 H 0.6156 0.33801 0.12335 0.0
H28 H 0.69289 0.32895 0.22393 0.0
H29 H 0.70355 0.26324 0.12505 0.0
C30 C 0.63926 0.32536 0.13859 0.0
C31 C 0.65763 0.29904 0.12011 0.0
C32 C 0.6518 0.33642 0.1758 0.0
C33 C 0.6826 0.32011 0.19552 0.0
C34 C 0.70193 0.29379 0.1772 0.0
C35 C 0.6892 0.28354 0.13937 0.0
H36 H 0.61946 0.61105 0.61791 0.0
H37 H 0.70024 0.69075 0.62914 0.0
H38 H 0.68691 0.62247 0.72479 0.0
C39 C 0.64084 0.62456 0.63536 0.0
C40 C 0.65148 0.61339 0.67297 0.0
C41 C 0.65791 0.65255 0.61957 0.0
C42 C 0.68636 0.66957 0.64184 0.0
C43 C 0.697 0.65912 0.68021 0.0
C44 C 0.67896 0.63105 0.69559 0.0
H45 H 0.85715 0.85222 0.11359 0.0
H46 H 0.80209 0.8278 0.22527 0.0
H47 H 0.77531 0.77262 0.12074 0.0
C48 C 0.83737 0.83706 0.13096 0.0
C49 C 0.81729 0.81153 0.11227 0.0
C50 C 0.83218 0.84328 0.17167 0.0
C51 C 0.80639 0.82341 0.19385 0.0
C52 C 0.78557 0.7981 0.1756 0.0
C53 C 0.79123 0.79222 0.13484 0.0
H54 H 0.13557 0.85145 0.44776 0.0
H55 H 0.2278 0.77972 0.44208 0.0
H56 H 0.18848 0.82648 0.33542 0.0
C57 C 0.1568 0.83738 0.43068 0.0
C58 C 0.15914 0.84172 0.38944 0.0
C59 C 0.18147 0.81522 0.45013 0.0
C60 C 0.20872 0.797 0.42751 0.0
C61 C 0.21131 0.80083 0.38605 0.0
C62 C 0.18646 0.8233 0.36726 0.0
H63 H 0.38412 0.60996 0.93803 0.0
H64 H 0.31574 0.62658 0.83238 0.0
H65 H 0.2997 0.68752 0.93469 0.0
C66 C 0.36207 0.62378 0.922 0.0
C67 C 0.34297 0.64956 0.94111 0.0
C68 C 0.35253 0.61514 0.8829 0.0
C69 C 0.32305 0.63267 0.86275 0.0
C70 C 0.30421 0.65899 0.8812 0.0
C71 C 0.31401 0.66714 0.9205 0.0
Zn72 Zn 0.03198 0.10922 0.3511 0.0
Zn73 Zn 0.97288 0.11524 0.21784 0.0
Zn74 Zn 0.00155 0.11356 0.28209 0.0
C75 C 0.05023 0.12708 0.20267 0.0
C76 C 0.95353 0.05583 0.24278 0.0
O77 O 0.95966 0.13856 0.3243 0.0
O78 O 0.99139 0.13333 0.38125 0.0
C79 C 0.08811 0.1424 0.30556 0.0
O80 O 0.0469 0.13397 0.23985 0.0
O81 O 0.02216 0.11267 0.18532 0.0
O82 O 0.93787 0.07685 0.22102 0.0
O83 O 0.98316 0.06368 0.26514 0.0
O84 O 0.08306 0.13107 0.33988 0.0
O85 O 0.06096 0.13848 0.27898 0.0
O86 O 0.01059 0.06129 0.29656 0.0
O87 O 0.03426 0.06225 0.35766 0.0
C88 C 0.02425 0.04653 0.32731 0.0
O89 O 0.94742 0.14534 0.28528 0.0
O90 O 0.94679 0.15773 0.22182 0.0
C91 C 0.96178 0.1434 0.36203 0.0
C92 C 0.93434 0.16282 0.25662 0.0
Zn93 Zn 0.53861 0.32968 0.71562 0.0
Zn94 Zn 0.45766 0.33961 0.84505 0.0
Zn95 Zn 0.49854 0.3345 0.77967 0.0
C96 C 0.47014 0.40195 0.82133 0.0
C97 C 0.40954 0.30474 0.79422 0.0
O98 O 0.55263 0.30359 0.79101 0.0
O99 O 0.5779 0.29755 0.73067 0.0
C100 C 0.54347 0.39397 0.73667 0.0
O101 O 0.48791 0.38684 0.79271 0.0
O102 O 0.45528 0.38667 0.85009 0.0
O103 O 0.4086 0.31737 0.82821 0.0
O104 O 0.4404 0.30855 0.77151 0.0
O105 O 0.55864 0.37404 0.71276 0.0
O106 O 0.51734 0.38448 0.76249 0.0
O107 O 0.45867 0.31239 0.73398 0.0
O108 O 0.49605 0.3152 0.67982 0.0
C109 C 0.4633 0.30807 0.69634 0.0
O110 O 0.53376 0.3104 0.82726 0.0
O111 O 0.49424 0.31559 0.87976 0.0
C112 C 0.57861 0.29108 0.76709 0.0
C113 C 0.5264 0.30564 0.8644 0.0
Zn114 Zn 0.03192 0.84194 0.85056 0.0
Zn115 Zn 0.97128 0.8271 0.71695 0.0
Zn116 Zn 0.0011 0.83555 0.78208 0.0
C117 C 0.95494 0.89061 0.73593 0.0
C118 C 0.92881 0.78642 0.76238 0.0
O119 O 0.06112 0.81095 0.78032 0.0
O120 O 0.08282 0.81988 0.84111 0.0
C121 C 0.02359 0.90393 0.82352 0.0
O122 O 0.98201 0.88433 0.76186 0.0
O123 O 0.94234 0.8684 0.71375 0.0
O124 O 0.93871 0.78876 0.72645 0.0
O125 O 0.94604 0.8043 0.78859 0.0
O126 O 0.03425 0.88909 0.8542 0.0
O127 O 0.00944 0.88833 0.79354 0.0
O128 O 0.9598 0.81243 0.82663 0.0
O129 O 0.99207 0.81924 0.88304 0.0
C130 C 0.96205 0.80884 0.86458 0.0
O131 O 0.04754 0.814 0.74121 0.0
O132 O 0.01819 0.82032 0.68327 0.0
C133 C 0.0881 0.80767 0.80725 0.0
C134 C 0.04845 0.81239 0.70296 0.0
Zn135 Zn 0.53671 0.61132 0.2166 0.0
Zn136 Zn 0.45862 0.61076 0.34884 0.0
Zn137 Zn 0.49785 0.61357 0.2824 0.0
C138 C 0.52861 0.64536 0.36426 0.0
C139 C 0.47028 0.54786 0.32926 0.0
O140 O 0.45946 0.63741 0.23707 0.0
O141 O 0.49973 0.63749 0.18484 0.0
C142 C 0.58569 0.64484 0.2676 0.0
O143 O 0.5356 0.63829 0.32763 0.0
O144 O 0.49606 0.63713 0.38041 0.0
O145 O 0.45718 0.564 0.35821 0.0
O146 O 0.48589 0.56229 0.29902 0.0
O147 O 0.58672 0.63193 0.23377 0.0
O148 O 0.5547 0.64129 0.29017 0.0
O149 O 0.511 0.56224 0.2657 0.0
O150 O 0.53852 0.56483 0.20607 0.0
C151 C 0.52644 0.54826 0.23501 0.0
O152 O 0.44072 0.64083 0.27487 0.0
O153 O 0.40887 0.63159 0.33139 0.0
C154 C 0.46669 0.64482 0.20061 0.0
C155 C 0.40987 0.64449 0.29761 0.0
H156 H 0.18227 0.88895 0.33795 0.0
H157 H 0.07877 0.85059 0.39846 0.0
H158 H 0.14289 0.93467 0.31566 0.0
H159 H 0.03888 0.89571 0.3753 0.0
H160 H 0.00759 0.00399 0.38557 0.0
H161 H 0.03566 0.95059 0.3935 0.0
H162 H 0.09023 0.95751 0.27729 0.0
H163 H 0.063 0.01177 0.27031 0.0
C164 C 0.15079 0.88988 0.34555 0.0
C165 C 0.13372 0.86645 0.37037 0.0
C166 C 0.12808 0.91604 0.33266 0.0
C167 C 0.08768 0.91921 0.34404 0.0
C168 C 0.07007 0.89453 0.36669 0.0
C169 C 0.09287 0.86859 0.37987 0.0
C170 C 0.0246 -0.00634 0.36128 0.0
C171 C 0.03255 0.01172 0.32706 0.0
C172 C 0.04068 0.96295 0.3657 0.0
C173 C 0.06545 0.94959 0.33609 0.0
C174 C 0.07169 0.96712 0.30089 0.0
C175 C 0.0556 -0.00202 0.29656 0.0
H176 H 0.43267 0.60323 0.88209 0.0
H177 H 0.32034 0.56493 0.84106 0.0
H178 H 0.46684 0.55492 0.85913 0.0
H179 H 0.35433 0.51619 0.81864 0.0
H180 H 0.42668 0.43509 0.76748 0.0
H181 H 0.40169 0.49017 0.7745 0.0
H182 H 0.46888 0.50067 0.88278 0.0
H183 H 0.49415 0.44613 0.87497 0.0
C184 C 0.41532 0.58451 0.86789 0.0
C185 C 0.37372 0.58768 0.86387 0.0
C186 C 0.43489 0.55679 0.85479 0.0
C187 C 0.41335 0.53139 0.83749 0.0
C188 C 0.37201 0.53533 0.83148 0.0
C189 C 0.35243 0.56323 0.84442 0.0
C190 C 0.43709 0.44976 0.79191 0.0
C191 C 0.46309 0.43683 0.82017 0.0
C192 C 0.42242 0.48109 0.79628 0.0
C193 C 0.4331 0.49992 0.82929 0.0
C194 C 0.46047 0.48721 0.85662 0.0
C195 C 0.47503 0.45595 0.85223 0.0
H196 H 0.6139 0.59931 0.74369 0.0
H197 H 0.65321 0.55684 0.63335 0.0
H198 H 0.58642 0.54696 0.76462 0.0
H199 H 0.62631 0.50507 0.65412 0.0
H200 H 0.61917 0.41204 0.72082 0.0
H201 H 0.64512 0.46596 0.71008 0.0
H202 H 0.52931 0.50566 0.73818 0.0
H203 H 0.50294 0.45099 0.74768 0.0
C204 C 0.6168 0.57878 0.72411 0.0
C205 C 0.63562 0.58204 0.68692 0.0
C206 C 0.60088 0.54902 0.73591 0.0
C207 C 0.60439 0.52202 0.71101 0.0
C208 C 0.62345 0.52541 0.67403 0.0
C209 C 0.63869 0.55505 0.66207 0.0
C210 C 0.59922 0.43225 0.72512 0.0
C211 C 0.55891 0.42732 0.73545 0.0
C212 C 0.61415 0.46311 0.71901 0.0
C213 C 0.58921 0.48996 0.7231 0.0
C214 C 0.5493 0.48535 0.73525 0.0
C215 C 0.53422 0.45417 0.74112 0.0
H216 H 0.80142 0.88591 0.22581 0.0
H217 H 0.90909 0.86435 0.1597 0.0
H218 H 0.83246 0.9347 0.25129 0.0
H219 H 0.93942 0.91391 0.18364 0.0
H220 H 0.99347 -0.00143 0.24749 0.0
H221 H 0.96584 0.94449 0.23875 0.0
H222 H 0.84865 -0.01435 0.22229 0.0
H223 H 0.87619 0.03901 0.23289 0.0
C224 C 0.8319 0.89132 0.2171 0.0
C225 C 0.85256 0.87133 0.19033 0.0
C226 C 0.84957 0.91951 0.23138 0.0
C227 C 0.88831 0.9285 0.21919 0.0
C228 C 0.90967 0.90772 0.19391 0.0
C229 C 0.89204 0.87948 0.17971 0.0
C230 C 0.9617 -0.00422 0.24364 0.0
C231 C 0.93699 0.02287 0.24166 0.0
C232 C 0.94587 0.96491 0.23784 0.0
C233 C 0.90492 0.96062 0.22982 0.0
C234 C 0.88013 -0.01216 0.22905 0.0
C235 C 0.89599 0.01852 0.23478 0.0
H236 H 0.842 0.05048 0.62535 0.0
H237 H 0.8676 0.09108 0.74032 0.0
H238 H 0.87091 -0.00029 0.64566 0.0
H239 H 0.89626 0.03948 0.76116 0.0
H240 H 0.98536 0.94997 0.75675 0.0
H241 H 0.95576 0.00282 0.74453 0.0
H242 H 0.85324 0.95651 0.69222 0.0
H243 H 0.88265 0.90433 0.70464 0.0
C244 C 0.85393 0.04855 0.65502 0.0
C245 C 0.8527 0.07486 0.68116 0.0
C246 C 0.87018 0.01932 0.66681 0.0
C247 C 0.88569 0.01549 0.70511 0.0
C248 C 0.88468 0.04178 0.7314 0.0
C249 C 0.86801 0.07116 0.71962 0.0
C250 C 0.95631 0.95117 0.74353 0.0
C251 C 0.93671 0.92294 0.73168 0.0
C252 C 0.93929 -0.0186 0.73637 0.0
C253 C 0.90232 -0.01615 0.71697 0.0
C254 C 0.8821 0.95552 0.70652 0.0
C255 C 0.89904 0.92555 0.7137 0.0
H256 H 0.65032 0.39365 0.13871 0.0
H257 H 0.61375 0.34745 0.2474 0.0
H258 H 0.6146 0.44196 0.15804 0.0
H259 H 0.57685 0.39629 0.26695 0.0
H260 H 0.55455 0.50915 0.29399 0.0
H261 H 0.58393 0.45555 0.28449 0.0
H262 H 0.54409 0.45558 0.16297 0.0
H263 H 0.51621 0.509 0.17219 0.0
C264 C 0.63467 0.39398 0.16694 0.0
C265 C 0.6344 0.36674 0.19135 0.0
C266 C 0.61386 0.42156 0.17791 0.0
C267 C 0.59186 0.4227 0.21354 0.0
C268 C 0.59326 0.39605 0.23917 0.0
C269 C 0.61442 0.36821 0.22811 0.0
C270 C 0.55114 0.49715 0.26568 0.0
C271 C 0.53359 0.51327 0.23363 0.0
C272 C 0.56806 0.46655 0.26019 0.0
C273 C 0.56744 0.45176 0.22261 0.0
C274 C 0.54625 0.46674 0.19193 0.0
C275 C 0.5299 0.49721 0.19726 0.0
H276 H 0.32641 0.38171 0.33036 0.0
H277 H 0.42798 0.34927 0.39751 0.0
H278 H 0.36426 0.42917 0.30946 0.0
H279 H 0.46559 0.39669 0.37688 0.0
H280 H 0.47704 0.50856 0.3925 0.0
H281 H 0.45413 0.45323 0.39804 0.0
H282 H 0.42501 0.45258 0.27349 0.0
H283 H 0.44832 0.50842 0.26802 0.0
C284 C 0.35711 0.38429 0.33983 0.0
C285 C 0.37391 0.36207 0.36622 0.0
C286 C 0.37885 0.41144 0.32779 0.0
C287 C 0.41775 0.41686 0.34195 0.0
C288 C 0.43546 0.39344 0.36601 0.0
C289 C 0.41384 0.36635 0.37792 0.0
C290 C 0.46675 0.49632 0.36607 0.0
C291 C 0.4645 0.51269 0.32986 0.0
C292 C 0.45374 0.46457 0.36917 0.0
C293 C 0.43756 0.44855 0.33623 0.0
C294 C 0.43712 0.46439 0.29942 0.0
C295 C 0.45081 0.49618 0.29619 0.0
H296 H 0.17616 0.06559 0.83448 0.0
H297 H 0.06827 0.10372 0.88699 0.0
H298 H 0.13957 0.01808 0.81278 0.0
H299 H 0.03128 0.05655 0.86458 0.0
H300 H 0.00366 0.94772 0.87937 0.0
H301 H 0.02959 0.0021 0.88602 0.0
H302 H 0.0894 -0.00719 0.77259 0.0
H303 H 0.064 0.93771 0.76678 0.0
C304 C 0.14435 0.06421 0.84042 0.0
C305 C 0.12521 0.08821 0.86286 0.0
C306 C 0.12326 0.03697 0.82788 0.0
C307 C 0.08246 0.03321 0.83728 0.0
C308 C 0.06283 0.05827 0.85753 0.0
C309 C 0.08398 0.08536 0.87031 0.0
C310 C 0.0214 0.9577 0.85538 0.0
C311 C 0.03132 0.9388 0.8223 0.0
C312 C 0.03623 -0.01106 0.85906 0.0
C313 C 0.06176 0.00197 0.82988 0.0
C314 C 0.07018 -0.01653 0.79581 0.0
C315 C 0.05528 0.95209 0.79219 0.0
H316 H 0.217 0.13071 1.00351 0.0
H317 H 0.10147 0.16989 0.97563 0.0
H318 H 0.20034 0.13315 0.07461 0.0
H319 H 0.08499 0.17295 0.0462 0.0
H320 H 0.10894 0.08941 0.17319 0.0
H321 H 0.14758 0.10053 0.11304 0.0
H322 H 0.10311 0.19779 0.11297 0.0
H323 H 0.0649 0.18656 0.17366 0.0
C324 C 0.18853 0.14065 1.01275 0.0
C325 C 0.16046 0.15014 0.98434 0.0
C326 C 0.17896 0.14197 0.05329 0.0
C327 C 0.14144 0.1534 0.06604 0.0
C328 C 0.11437 0.16452 0.03747 0.0
C329 C 0.12364 0.16262 0.99707 0.0
C330 C 0.10927 0.11364 0.1615 0.0
C331 C 0.0845 0.13728 0.17823 0.0
C332 C 0.1312 0.12 0.12692 0.0
C333 C 0.12798 0.14993 0.10798 0.0
C334 C 0.10597 0.17445 0.12679 0.0
C335 C 0.08452 0.16819 0.16176 0.0
H336 H 0.32824 0.35166 0.50347 0.0
H337 H 0.34043 0.2498 0.48284 0.0
H338 H 0.34895 0.3445 0.57196 0.0
H339 H 0.36048 0.24242 0.55187 0.0
H340 H 0.46894 0.2644 0.63757 0.0
H341 H 0.42383 0.25831 0.58197 0.0
H342 H 0.33948 0.32199 0.63928 0.0
H343 H 0.38525 0.3279 0.69551 0.0
C344 C 0.3345 0.32761 0.5139 0.0
C345 C 0.33341 0.30138 0.48759 0.0
C346 C 0.34591 0.32342 0.55334 0.0
C347 C 0.35672 0.2929 0.56742 0.0
C348 C 0.35271 0.26629 0.54186 0.0
C349 C 0.34104 0.27048 0.50238 0.0
C350 C 0.44005 0.27608 0.639 0.0
C351 C 0.43064 0.29678 0.6706 0.0
C352 C 0.41406 0.27255 0.60713 0.0
C353 C 0.37821 0.29002 0.60582 0.0
C354 C 0.36711 0.30849 0.63921 0.0
C355 C 0.39305 0.31165 0.67157 0.0
H356 H 0.70277 0.28897 0.05287 0.0
H357 H 0.58151 0.28741 0.09699 0.0
H358 H 0.67821 0.28048 0.98515 0.0
H359 H 0.55697 0.27964 1.03015 0.0
H360 H 0.51349 0.25643 0.91479 0.0
H361 H 0.55188 0.24484 0.97416 0.0
H362 H 0.64185 0.31315 0.9367 0.0
H363 H 0.60395 0.32345 0.87618 0.0
C364 C 0.67097 0.28612 0.04815 0.0
C365 C 0.64398 0.28898 0.08011 0.0
C366 C 0.65688 0.28153 1.0094 0.0
C367 C 0.61559 0.27932 1.00203 0.0
C368 C 0.58897 0.28064 0.0345 0.0
C369 C 0.60297 0.28542 0.07292 0.0
C370 C 0.54238 0.26784 0.91846 0.0
C371 C 0.55576 0.2909 0.89115 0.0
C372 C 0.56416 0.26155 0.95271 0.0
C373 C 0.59933 0.27883 0.96092 0.0
C374 C 0.61488 0.29941 0.93144 0.0
C375 C 0.59328 0.30529 0.89666 0.0
H376 H 0.78093 0.15208 0.54778 0.0
H377 H 0.90185 0.16133 0.58965 0.0
H378 H 0.80425 0.16212 0.47954 0.0
H379 H 0.92517 0.17122 0.5224 0.0
H380 H 0.96604 0.19679 0.40719 0.0
H381 H 0.92501 0.20713 0.46582 0.0
H382 H 0.84545 0.13024 0.43157 0.0
H383 H 0.88605 0.12084 0.37205 0.0
C384 C 0.81229 0.15706 0.54244 0.0
C385 C 0.83968 0.15593 0.57382 0.0
C386 C 0.82567 0.1626 0.50346 0.0
C387 C 0.86656 0.16763 0.4954 0.0
C388 C 0.8934 0.16806 0.52737 0.0
C389 C 0.88015 0.16216 0.56597 0.0
C390 C 0.93854 0.18333 0.41112 0.0
C391 C 0.92911 0.15808 0.3852 0.0
C392 C 0.91533 0.1889 0.44499 0.0
C393 C 0.88263 0.16887 0.45405 0.0
C394 C 0.87043 0.14612 0.42557 0.0
C395 C 0.89353 0.14082 0.39128 0.0
H396 H 0.83315 0.75359 0.07685 0.0
H397 H 0.81914 0.85442 0.05102 0.0
H398 H 0.85644 0.74421 1.00889 0.0
H399 H 0.84306 0.84527 0.98358 0.0
H400 H 0.88326 0.82566 0.86201 0.0
H401 H 0.83586 0.82024 0.91743 0.0
H402 H 0.92021 0.75988 0.97856 0.0
H403 H 0.96698 0.76545 0.92358 0.0
C404 C 0.83415 0.77361 0.0564 0.0
C405 C 0.8249 0.80483 0.06947 0.0
C406 C 0.84767 0.76827 1.01752 0.0
C407 C 0.85191 0.794 0.99078 0.0
C408 C 0.83985 0.82481 1.00313 0.0
C409 C 0.82661 0.83016 0.042 0.0
C410 C 0.89068 0.81 0.88648 0.0
C411 C 0.92872 0.79601 0.88867 0.0
C412 C 0.86383 0.80723 0.91847 0.0
C413 C 0.8745 0.79008 0.95279 0.0
C414 C 0.9108 0.77314 0.95267 0.0
C415 C 0.93768 0.77628 0.92109 0.0
H416 H 0.58292 0.66581 0.59548 0.0
H417 H 0.70466 0.66157 0.55324 0.0
H418 H 0.55963 0.67367 0.52818 0.0
H419 H 0.68139 0.66976 0.48495 0.0
H420 H 0.60532 0.62575 0.37652 0.0
H421 H 0.64357 0.63646 0.43683 0.0
H422 H 0.55734 0.70849 0.47147 0.0
H423 H 0.51863 0.6967 0.41225 0.0
C424 C 0.60477 0.66737 0.5717 0.0
C425 C 0.64551 0.66312 0.5795 0.0
C426 C 0.59152 0.67209 0.53304 0.0
C427 C 0.61863 0.67249 0.50094 0.0
C428 C 0.65972 0.6695 0.50893 0.0
C429 C 0.67308 0.66508 0.54796 0.0
C430 C 0.59565 0.64483 0.39623 0.0
C431 C 0.55895 0.66024 0.39003 0.0
C432 C 0.61744 0.65093 0.4309 0.0
C433 C 0.6029 0.67272 0.4596 0.0
C434 C 0.56882 0.69094 0.45058 0.0
C435 C 0.54686 0.6845 0.41641 0.0
H436 H 0.41777 0.66074 0.96813 0.0
H437 H 0.29476 0.65697 1.00683 0.0
H438 H 0.43911 0.66842 0.03621 0.0
H439 H 0.31616 0.66485 0.07587 0.0
H440 H 0.39104 0.62285 0.18707 0.0
H441 H 0.35403 0.63158 0.12556 0.0
H442 H 0.43811 0.70571 0.09207 0.0
H443 H 0.47546 0.69614 0.15265 0.0
C444 C 0.39524 0.66205 0.9913 0.0
C445 C 0.35467 0.65816 0.98223 0.0
C446 C 0.40739 0.66675 1.03037 0.0
C447 C 0.37932 0.66748 0.06163 0.0
C448 C 0.3385 0.6644 0.0525 0.0
C449 C 0.32624 0.66009 1.01305 0.0
C450 C 0.40037 0.64202 0.16739 0.0
C451 C 0.43618 0.6587 0.17437 0.0
C452 C 0.37934 0.64694 0.13201 0.0
C453 C 0.3938 0.66873 0.10336 0.0
C454 C 0.42676 0.68817 0.113 0.0
C455 C 0.44789 0.683 0.14795 0.0
H456 H 0.17454 0.86169 0.50718 0.0
H457 H 0.17873 0.75876 0.49209 0.0
H458 H 0.15557 0.85482 0.57632 0.0
H459 H 0.1611 0.75175 0.562 0.0
H460 H 0.05307 0.763 0.65182 0.0
H461 H 0.09844 0.75956 0.59554 0.0
H462 H 0.16809 0.83788 0.64357 0.0
H463 H 0.12174 0.84131 0.70009 0.0
C464 C 0.17214 0.83755 0.51888 0.0
C465 C 0.17733 0.81079 0.49386 0.0
C466 C 0.16182 0.83357 0.55881 0.0
C467 C 0.15642 0.80269 0.57489 0.0
C468 C 0.16449 0.77589 0.55054 0.0
C469 C 0.17487 0.7799 0.5105 0.0
C470 C 0.07924 0.77839 0.65131 0.0
C471 C 0.08403 0.80234 0.68024 0.0
C472 C 0.10531 0.77653 0.61891 0.0
C473 C 0.13661 0.79887 0.61446 0.0
C474 C 0.14387 0.82066 0.64571 0.0
C475 C 0.11777 0.82234 0.67843 0.0
H476 H 0.31685 0.23622 0.34435 0.0
H477 H 0.22192 0.3043 0.36366 0.0
H478 H 0.26991 0.19949 0.31196 0.0
H479 H 0.17448 0.26752 0.33214 0.0
H480 H 0.09556 0.19973 0.26598 0.0
H481 H 0.15109 0.23803 0.27316 0.0
H482 H 0.21693 0.16707 0.33926 0.0
H483 H 0.16212 0.12939 0.33187 0.0
C484 C 0.28596 0.24341 0.34102 0.0
C485 C 0.27273 0.27283 0.35646 0.0
C486 C 0.25905 0.22244 0.32263 0.0
C487 C 0.21829 0.23043 0.31958 0.0
C488 C 0.20566 0.26072 0.33342 0.0
C489 C 0.23265 0.28169 0.35177 0.0
C490 C 0.12261 0.19209 0.28066 0.0
C491 C 0.12456 0.16173 0.29857 0.0
C492 C 0.15419 0.21409 0.28523 0.0
C493 C 0.18832 0.20581 0.30727 0.0
C494 C 0.19142 0.17433 0.32187 0.0
C495 C 0.15989 0.15266 0.31772 0.0
H496 H 0.19122 0.18978 0.81267 0.0
H497 H 0.28226 0.16023 0.89475 0.0
H498 H 0.24013 0.22396 0.7781 0.0
H499 H 0.33129 0.1937 0.85973 0.0
H500 H 0.41727 0.2415 0.7765 0.0
H501 H 0.36572 0.20061 0.78863 0.0
H502 H 0.27817 0.2753 0.80624 0.0
H503 H 0.32989 0.31597 0.79544 0.0
C504 C 0.22186 0.19017 0.8228 0.0
C505 C 0.23301 0.17254 0.85646 0.0
C506 C 0.24976 0.20966 0.80305 0.0
C507 C 0.28954 0.21123 0.81601 0.0
C508 C 0.30098 0.19258 0.84873 0.0
C509 C 0.27291 0.17368 0.86898 0.0
C510 C 0.38661 0.24906 0.78104 0.0
C511 C 0.37738 0.28181 0.78479 0.0
C512 C 0.35727 0.22571 0.78849 0.0
C513 C 0.3181 0.23484 0.7988 0.0
C514 C 0.30804 0.26758 0.79819 0.0
C515 C 0.33754 0.29086 0.79174 0.0
H516 H 0.71216 0.16327 0.65328 0.0
H517 H 0.79493 0.17536 0.74968 0.0
H518 H 0.66137 0.19286 0.69068 0.0
H519 H 0.74412 0.2058 0.78703 0.0
H520 H 0.65641 0.30108 0.78504 0.0
H521 H 0.70922 0.26185 0.77156 0.0
H522 H 0.61999 0.18795 0.75649 0.0
H523 H 0.56743 0.22714 0.77062 0.0
C524 C 0.71935 0.17219 0.68258 0.0
C525 C 0.75743 0.16717 0.69855 0.0
C526 C 0.69021 0.18883 0.70417 0.0
C527 C 0.69867 0.20136 0.74197 0.0
C528 C 0.73674 0.19623 0.7581 0.0
C529 C 0.76571 0.17888 0.73678 0.0
C530 C 0.64835 0.27602 0.78143 0.0
C531 C 0.60796 0.26697 0.77945 0.0
C532 C 0.67853 0.25361 0.77326 0.0
C533 C 0.66861 0.222 0.76227 0.0
C534 C 0.62843 0.21223 0.76456 0.0
C535 C 0.59837 0.23452 0.77328 0.0
H536 H 0.71042 0.27426 0.25476 0.0
H537 H 0.77266 0.27774 0.14235 0.0
H538 H 0.76796 0.24678 0.28431 0.0
H539 H 0.82918 0.25015 0.17128 0.0
H540 H 0.93848 0.22371 0.23063 0.0
H541 H 0.88243 0.25953 0.21877 0.0
H542 H 0.80342 0.19312 0.2788 0.0
H543 H 0.86043 0.15757 0.29177 0.0
C544 C 0.73643 0.26935 0.23648 0.0
C545 C 0.73689 0.27802 0.19614 0.0
C546 C 0.76923 0.25347 0.25332 0.0
C547 C 0.80336 0.24648 0.2303 0.0
C548 C 0.80377 0.2556 0.19015 0.0
C549 C 0.77108 0.2711 0.17336 0.0
C550 C 0.9094 0.21739 0.24266 0.0
C551 C 0.90368 0.18791 0.262 0.0
C552 C 0.87717 0.2377 0.23546 0.0
C553 C 0.83822 0.22876 0.24679 0.0
C554 C 0.83303 0.20068 0.26958 0.0
C555 C 0.86564 0.18039 0.27722 0.0
H556 H 0.70798 0.72435 0.68716 0.0
H557 H 0.75656 0.63379 0.72614 0.0
H558 H 0.7621 0.75272 0.7204 0.0
H559 H 0.80958 0.66222 0.76081 0.0
H560 H 0.85507 0.80086 0.79234 0.0
H561 H 0.79474 0.76829 0.78218 0.0
H562 H 0.86806 0.69042 0.73835 0.0
H563 H 0.92754 0.72282 0.74885 0.0
C564 C 0.72994 0.71048 0.70314 0.0
C565 C 0.72801 0.67671 0.7035 0.0
C566 C 0.76067 0.72681 0.72282 0.0
C567 C 0.79034 0.70981 0.74338 0.0
C568 C 0.78748 0.67611 0.74505 0.0
C569 C 0.7568 0.6598 0.72536 0.0
C570 C 0.85817 0.7762 0.78249 0.0
C571 C 0.89586 0.76414 0.77179 0.0
C572 C 0.82366 0.75772 0.77594 0.0
C573 C 0.8264 0.72687 0.75879 0.0
C574 C 0.86459 0.71389 0.75184 0.0
C575 C 0.89884 0.7324 0.75805 0.0
H576 H 0.7065 0.78871 0.16181 0.0
H577 H 0.80091 0.76289 0.24203 0.0
H578 H 0.65978 0.75462 0.1989 0.0
H579 H 0.75428 0.72794 0.2787 0.0
H580 H 0.66541 0.63415 0.26526 0.0
H581 H 0.71626 0.67518 0.25272 0.0
H582 H 0.62815 0.74921 0.27183 0.0
H583 H 0.57749 0.70798 0.28569 0.0
C584 C 0.71711 0.77581 0.18752 0.0
C585 C 0.75723 0.77821 0.199 0.0
C586 C 0.69036 0.75661 0.20898 0.0
C587 C 0.70337 0.73892 0.24191 0.0
C588 C 0.74347 0.74153 0.25363 0.0
C589 C 0.77006 0.76138 0.23266 0.0
C590 C 0.65751 0.65921 0.26897 0.0
C591 C 0.6177 0.66797 0.27669 0.0
C592 C 0.68653 0.6827 0.26154 0.0
C593 C 0.67594 0.7153 0.26074 0.0
C594 C 0.63697 0.72418 0.27209 0.0
C595 C 0.60814 0.70065 0.28052 0.0
H596 H 0.19526 0.7626 0.32211 0.0
H597 H 0.2915 0.7945 0.39708 0.0
H598 H 0.24156 0.72674 0.28666 0.0
H599 H 0.33785 0.7593 0.36123 0.0
H600 H 0.41852 0.7072 0.27719 0.0
H601 H 0.36862 0.74916 0.28988 0.0
H602 H 0.27991 0.67628 0.31405 0.0
H603 H 0.32998 0.63461 0.30258 0.0
C604 C 0.22645 0.76233 0.33049 0.0
C605 C 0.23983 0.78113 0.36246 0.0
C606 C 0.25287 0.74187 0.31023 0.0
C607 C 0.29335 0.74045 0.32095 0.0
C608 C 0.30696 0.76025 0.35191 0.0
C609 C 0.28041 0.78013 0.37269 0.0
C610 C 0.38789 0.70022 0.28332 0.0
C611 C 0.37797 0.66772 0.28874 0.0
C612 C 0.35949 0.72419 0.2911 0.0
C613 C 0.32054 0.71595 0.30342 0.0
C614 C 0.30961 0.68336 0.30446 0.0
C615 C 0.33819 0.65949 0.29765 0.0
H616 H 0.31765 0.71857 0.85204 0.0
H617 H 0.22734 0.64499 0.8605 0.0
H618 H 0.26994 0.75449 0.8204 0.0
H619 H 0.17853 0.68132 0.83063 0.0
H620 H 0.09716 0.74999 0.76792 0.0
H621 H 0.1532 0.71249 0.77597 0.0
H622 H 0.21599 0.78433 0.84443 0.0
H623 H 0.16116 0.82123 0.83555 0.0
C624 C 0.28748 0.71014 0.84685 0.0
C625 C 0.2759 0.67928 0.85892 0.0
C626 C 0.26002 0.73069 0.8289 0.0
C627 C 0.22001 0.72111 0.82335 0.0
C628 C 0.20905 0.68952 0.83393 0.0
C629 C 0.23682 0.66876 0.85138 0.0
C630 C 0.12371 0.75797 0.78332 0.0
C631 C 0.1248 0.78844 0.80125 0.0
C632 C 0.15556 0.73639 0.78849 0.0
C633 C 0.18911 0.7451 0.81135 0.0
C634 C 0.19116 0.77661 0.82633 0.0
C635 C 0.15952 0.79789 0.82134 0.0
loop_
_geom_bond_atom_site_label_1
_geom_bond_atom_site_label_2
_geom_bond_distance
_geom_bond_site_symmetry_2
_ccdc_geom_bond_type
H0 C3 0.931 . S
H1 C6 0.928 . S
H2 C8 0.930 . S
C3 H0 0.931 . S
C3 C4 1.413 . S
C3 C5 1.360 . S
C4 C3 1.413 . S
C4 C8 1.429 . S
C5 C3 1.360 . S
C5 C6 1.372 . S
C6 H1 0.928 . S
C6 C5 1.372 . S
C6 C7 1.404 . S
C7 C6 1.404 . S
C7 C8 1.391 . S
C8 H2 0.930 . S
C8 C4 1.429 . S
C8 C7 1.391 . S
H9 C12 0.931 . S
H10 C15 0.928 . S
H11 C17 0.930 . S
C12 H9 0.931 . S
C12 C13 1.413 . S
C12 C14 1.360 . S
C13 C12 1.413 . S
C13 C17 1.429 . S
C14 C12 1.360 . S
C14 C15 1.372 . S
C15 H10 0.928 . S
C15 C14 1.372 . S
C15 C16 1.404 . S
C16 C15 1.404 . S
C16 C17 1.391 . S
C17 H11 0.930 . S
C17 C13 1.429 . S
C17 C16 1.391 . S
H18 C21 0.931 . S
H19 C24 0.928 . S
H20 C26 0.930 . S
C21 H18 0.931 . S
C21 C22 1.413 . S
C21 C23 1.360 . S
C22 C21 1.413 . S
C22 C26 1.429 . S
C23 C21 1.360 . S
C23 C24 1.372 . S
C24 H19 0.928 . S
C24 C23 1.372 . S
C24 C25 1.404 . S
C25 C24 1.404 . S
C25 C26 1.391 . S
C26 H20 0.930 . S
C26 C22 1.429 . S
C26 C25 1.391 . S
H27 C30 0.931 . S
H28 C33 0.928 . S
H29 C35 0.930 . S
C30 H27 0.931 . S
C30 C31 1.413 . S
C30 C32 1.360 . S
C31 C30 1.413 . S
C31 C35 1.429 . S
C32 C30 1.360 . S
C32 C33 1.372 . S
C33 H28 0.928 . S
C33 C32 1.372 . S
C33 C34 1.404 . S
C34 C33 1.404 . S
C34 C35 1.391 . S
C35 H29 0.930 . S
C35 C31 1.429 . S
C35 C34 1.391 . S
H36 C39 0.931 . S
H37 C42 0.928 . S
H38 C44 0.930 . S
C39 H36 0.931 . S
C39 C40 1.413 . S
C39 C41 1.360 . S
C40 C39 1.413 . S
C40 C44 1.429 . S
C41 C39 1.360 . S
C41 C42 1.372 . S
C42 H37 0.928 . S
C42 C41 1.372 . S
C42 C43 1.404 . S
C43 C42 1.404 . S
C43 C44 1.391 . S
C44 H38 0.930 . S
C44 C40 1.429 . S
C44 C43 1.391 . S
H45 C48 0.931 . S
H46 C51 0.928 . S
H47 C53 0.930 . S
C48 H45 0.931 . S
C48 C49 1.413 . S
C48 C50 1.360 . S
C49 C48 1.413 . S
C49 C53 1.429 . S
C50 C48 1.360 . S
C50 C51 1.372 . S
C51 H46 0.928 . S
C51 C50 1.372 . S
C51 C52 1.404 . S
C52 C51 1.404 . S
C52 C53 1.391 . S
C53 H47 0.930 . S
C53 C49 1.429 . S
C53 C52 1.391 . S
H54 C57 0.931 . S
H55 C60 0.928 . S
H56 C62 0.930 . S
C57 H54 0.931 . S
C57 C58 1.413 . S
C57 C59 1.360 . S
C58 C57 1.413 . S
C58 C62 1.429 . S
C59 C57 1.360 . S
C59 C60 1.372 . S
C60 H55 0.928 . S
C60 C59 1.372 . S
C60 C61 1.404 . S
C61 C60 1.404 . S
C61 C62 1.391 . S
C62 H56 0.930 . S
C62 C58 1.429 . S
C62 C61 1.391 . S
H63 C66 0.931 . S
H64 C69 0.928 . S
H65 C71 0.930 . S
C66 H63 0.931 . S
C66 C67 1.413 . S
C66 C68 1.360 . S
C67 C66 1.413 . S
C67 C71 1.429 . S
C68 C66 1.360 . S
C68 C69 1.372 . S
C69 H64 0.928 . S
C69 C68 1.372 . S
C69 C70 1.404 . S
C70 C69 1.404 . S
C70 C71 1.391 . S
C71 H65 0.930 . S
C71 C67 1.429 . S
C71 C70 1.391 . S
Zn72 O78 1.920 1_455 S
Zn72 O84 1.898 . S
Zn72 O87 1.905 . S
Zn73 O81 1.905 1_655 S
Zn73 O82 1.898 . S
Zn73 O90 1.920 . S
Zn74 O77 2.080 1_455 S
Zn74 O80 2.114 . S
Zn74 O83 2.120 1_455 S
Zn74 O85 2.120 . S
Zn74 O86 2.114 . S
Zn74 O89 2.080 1_455 S
C75 O80 1.166 . S
C75 O81 1.182 . S
C76 O82 1.167 . S
C76 O83 1.299 . S
O77 Zn74 2.080 1_655 S
O77 C91 1.305 . S
O78 Zn72 1.920 1_655 S
O78 C91 1.234 . S
C79 O84 1.167 . S
C79 O85 1.299 . S
O80 Zn74 2.114 . S
O80 C75 1.166 . S
O81 Zn73 1.905 1_455 S
O81 C75 1.182 . S
O82 Zn73 1.898 . S
O82 C76 1.167 . S
O83 Zn74 2.120 1_655 S
O83 C76 1.299 . S
O84 Zn72 1.898 . S
O84 C79 1.167 . S
O85 Zn74 2.120 . S
O85 C79 1.299 . S
O86 Zn74 2.114 . S
O86 C88 1.166 . S
O87 Zn72 1.905 . S
O87 C88 1.182 . S
C88 O86 1.166 . S
C88 O87 1.182 . S
O89 Zn74 2.080 1_655 S
O89 C92 1.305 . S
O90 Zn73 1.920 . S
O90 C92 1.234 . S
C91 O77 1.305 . S
C91 O78 1.234 . S
C92 O89 1.305 . S
C92 O90 1.234 . S
Zn93 O99 1.920 . S
Zn93 O105 1.898 . S
Zn93 O108 1.905 . S
Zn94 O102 1.905 . S
Zn94 O103 1.898 . S
Zn94 O111 1.920 . S
Zn95 O98 2.080 . S
Zn95 O101 2.114 . S
Zn95 O104 2.120 . S
Zn95 O106 2.120 . S
Zn95 O107 2.114 . S
Zn95 O110 2.080 . S
C96 O101 1.166 . S
C96 O102 1.182 . S
C97 O103 1.167 . S
C97 O104 1.299 . S
O98 Zn95 2.080 . S
O98 C112 1.305 . S
O99 Zn93 1.920 . S
O99 C112 1.234 . S
C100 O105 1.167 . S
C100 O106 1.299 . S
O101 Zn95 2.114 . S
O101 C96 1.166 . S
O102 Zn94 1.905 . S
O102 C96 1.182 . S
O103 Zn94 1.898 . S
O103 C97 1.167 . S
O104 Zn95 2.120 . S
O104 C97 1.299 . S
O105 Zn93 1.898 . S
O105 C100 1.167 . S
O106 Zn95 2.120 . S
O106 C100 1.299 . S
O107 Zn95 2.114 . S
O107 C109 1.166 . S
O108 Zn93 1.905 . S
O108 C109 1.182 . S
C109 O107 1.166 . S
C109 O108 1.182 . S
O110 Zn95 2.080 . S
O110 C113 1.305 . S
O111 Zn94 1.920 . S
O111 C113 1.234 . S
C112 O98 1.305 . S
C112 O99 1.234 . S
C113 O110 1.305 . S
C113 O111 1.234 . S
Zn114 O120 1.920 . S
Zn114 O126 1.898 . S
Zn114 O129 1.905 1_455 S
Zn115 O123 1.905 . S
Zn115 O124 1.898 . S
Zn115 O132 1.920 1_655 S
Zn116 O119 2.080 . S
Zn116 O122 2.114 1_455 S
Zn116 O125 2.120 1_455 S
Zn116 O127 2.120 . S
Zn116 O128 2.114 1_455 S
Zn116 O131 2.080 . S
C117 O122 1.166 . S
C117 O123 1.182 . S
C118 O124 1.167 . S
C118 O125 1.299 . S
O119 Zn116 2.080 . S
O119 C133 1.305 . S
O120 Zn114 1.920 . S
O120 C133 1.234 . S
C121 O126 1.167 . S
C121 O127 1.299 . S
O122 Zn116 2.114 1_655 S
O122 C117 1.166 . S
O123 Zn115 1.905 . S
O123 C117 1.182 . S
O124 Zn115 1.898 . S
O124 C118 1.167 . S
O125 Zn116 2.120 1_655 S
O125 C118 1.299 . S
O126 Zn114 1.898 . S
O126 C121 1.167 . S
O127 Zn116 2.120 . S
O127 C121 1.299 . S
O128 Zn116 2.114 1_655 S
O128 C130 1.166 . S
O129 Zn114 1.905 1_655 S
O129 C130 1.182 . S
C130 O128 1.166 . S
C130 O129 1.182 . S
O131 Zn116 2.080 . S
O131 C134 1.305 . S
O132 Zn115 1.920 1_455 S
O132 C134 1.234 . S
C133 O119 1.305 . S
C133 O120 1.234 . S
C134 O131 1.305 . S
C134 O132 1.234 . S
Zn135 O141 1.920 . S
Zn135 O147 1.898 . S
Zn135 O150 1.905 . S
Zn136 O144 1.905 . S
Zn136 O145 1.898 . S
Zn136 O153 1.920 . S
Zn137 O140 2.080 . S
Zn137 O143 2.114 . S
Zn137 O146 2.120 . S
Zn137 O148 2.120 . S
Zn137 O149 2.114 . S
Zn137 O152 2.080 . S
C138 O143 1.166 . S
C138 O144 1.182 . S
C139 O145 1.167 . S
C139 O146 1.299 . S
O140 Zn137 2.080 . S
O140 C154 1.305 . S
O141 Zn135 1.920 . S
O141 C154 1.234 . S
C142 O147 1.167 . S
C142 O148 1.299 . S
O143 Zn137 2.114 . S
O143 C138 1.166 . S
O144 Zn136 1.905 . S
O144 C138 1.182 . S
O145 Zn136 1.898 . S
O145 C139 1.167 . S
O146 Zn137 2.120 . S
O146 C139 1.299 . S
O147 Zn135 1.898 . S
O147 C142 1.167 . S
O148 Zn137 2.120 . S
O148 C142 1.299 . S
O149 Zn137 2.114 . S
O149 C151 1.166 . S
O150 Zn135 1.905 . S
O150 C151 1.182 . S
C151 O149 1.166 . S
C151 O150 1.182 . S
O152 Zn137 2.080 . S
O152 C155 1.305 . S
O153 Zn136 1.920 . S
O153 C155 1.234 . S
C154 O140 1.305 . S
C154 O141 1.234 . S
C155 O152 1.305 . S
C155 O153 1.234 . S
H156 C164 0.950 . S
H157 C169 0.950 . S
H158 C166 0.950 . S
H159 C168 0.950 . S
H160 C170 0.950 . S
H161 C172 0.929 1_565 S
H162 C174 0.950 . S
H163 C175 0.950 . S
C164 H156 0.950 . S
C164 C165 1.386 . S
C164 C166 1.391 . S
C165 C164 1.386 . S
C165 C169 1.393 . S
C166 H158 0.950 . S
C166 C164 1.391 . S
C166 C167 1.400 . S
C167 C166 1.400 . S
C167 C168 1.398 . S
C167 C173 1.516 . S
C168 H159 0.950 . S
C168 C167 1.398 . S
C168 C169 1.391 . S
C169 H157 0.950 . S
C169 C165 1.393 . S
C169 C168 1.391 . S
C170 H160 0.950 . S
C170 C171 1.386 . S
C170 C172 1.413 . S
C171 C170 1.386 . S
C171 C175 1.393 . S
C172 H161 0.929 1_545 S
C172 C170 1.413 . S
C172 C173 1.399 1_545 S
C173 C167 1.516 . S
C173 C172 1.399 1_565 S
C173 C174 1.374 1_565 S
C174 H162 0.950 . S
C174 C173 1.374 1_545 S
C174 C175 1.391 . S
C175 H163 0.950 . S
C175 C171 1.393 . S
C175 C174 1.391 . S
H176 C184 0.950 . S
H177 C189 0.950 . S
H178 C186 0.950 . S
H179 C188 0.950 . S
H180 C190 0.950 . S
H181 C192 0.950 . S
H182 C194 0.950 . S
H183 C195 0.950 . S
C184 H176 0.950 . S
C184 C185 1.386 . S
C184 C186 1.391 . S
C185 C184 1.386 . S
C185 C189 1.393 . S
C186 H178 0.950 . S
C186 C184 1.391 . S
C186 C187 1.400 . S
C187 C186 1.400 . S
C187 C188 1.398 . S
C187 C193 1.491 . S
C188 H179 0.950 . S
C188 C187 1.398 . S
C188 C189 1.391 . S
C189 H177 0.950 . S
C189 C185 1.393 . S
C189 C188 1.391 . S
C190 H180 0.950 . S
C190 C191 1.386 . S
C190 C192 1.391 . S
C191 C190 1.386 . S
C191 C195 1.393 . S
C192 H181 0.950 . S
C192 C190 1.391 . S
C192 C193 1.400 . S
C193 C187 1.491 . S
C193 C192 1.400 . S
C193 C194 1.398 . S
C194 H182 0.950 . S
C194 C193 1.398 . S
C194 C195 1.391 . S
C195 H183 0.950 . S
C195 C191 1.393 . S
C195 C194 1.391 . S
H196 C204 0.950 . S
H197 C209 0.950 . S
H198 C206 0.950 . S
H199 C208 0.950 . S
H200 C210 0.950 . S
H201 C212 0.950 . S
H202 C214 0.950 . S
H203 C215 0.950 . S
C204 H196 0.950 . S
C204 C205 1.386 . S
C204 C206 1.391 . S
C205 C204 1.386 . S
C205 C209 1.393 . S
C206 H198 0.950 . S
C206 C204 1.391 . S
C206 C207 1.400 . S
C207 C206 1.400 . S
C207 C208 1.398 . S
C207 C213 1.491 . S
C208 H199 0.950 . S
C208 C207 1.398 . S
C208 C209 1.391 . S
C209 H197 0.950 . S
C209 C205 1.393 . S
C209 C208 1.391 . S
C210 H200 0.950 . S
C210 C211 1.386 . S
C210 C212 1.391 . S
C211 C210 1.386 . S
C211 C215 1.393 . S
C212 H201 0.950 . S
C212 C210 1.391 . S
C212 C213 1.400 . S
C213 C207 1.491 . S
C213 C212 1.400 . S
C213 C214 1.398 . S
C214 H202 0.950 . S
C214 C213 1.398 . S
C214 C215 1.391 . S
C215 H203 0.950 . S
C215 C211 1.393 . S
C215 C214 1.391 . S
H216 C224 0.950 . S
H217 C229 0.950 . S
H218 C226 0.950 . S
H219 C228 0.950 . S
H220 C230 0.978 . S
H221 C232 0.925 1_565 S
H222 C234 0.950 . S
H223 C235 0.950 . S
C224 H216 0.950 . S
C224 C225 1.386 . S
C224 C226 1.391 . S
C225 C224 1.386 . S
C225 C229 1.393 . S
C226 H218 0.950 . S
C226 C224 1.391 . S
C226 C227 1.400 . S
C227 C226 1.400 . S
C227 C228 1.398 . S
C227 C233 1.491 . S
C228 H219 0.950 . S
C228 C227 1.398 . S
C228 C229 1.391 . S
C229 H217 0.950 . S
C229 C225 1.393 . S
C229 C228 1.391 . S
C230 H220 0.978 . S
C230 C231 1.386 . S
C230 C232 1.420 . S
C231 C230 1.386 . S
C231 C235 1.393 . S
C232 H221 0.925 1_545 S
C232 C230 1.420 . S
C232 C233 1.396 1_545 S
C233 C227 1.491 . S
C233 C232 1.396 1_565 S
C233 C234 1.398 1_565 S
C234 H222 0.950 . S
C234 C233 1.398 1_545 S
C234 C235 1.391 . S
C235 H223 0.950 . S
C235 C231 1.393 . S
C235 C234 1.391 . S
H236 C244 0.950 . S
H237 C249 0.950 . S
H238 C246 0.950 . S
H239 C248 0.950 . S
H240 C250 0.950 . S
H241 C252 0.943 1_545 S
H242 C254 0.950 . S
H243 C255 0.950 . S
C244 H236 0.950 . S
C244 C245 1.386 . S
C244 C246 1.391 . S
C245 C244 1.386 . S
C245 C249 1.393 . S
C246 H238 0.950 . S
C246 C244 1.391 . S
C246 C247 1.400 . S
C247 C246 1.400 . S
C247 C248 1.398 . S
C247 C253 1.521 . S
C248 H239 0.950 . S
C248 C247 1.398 . S
C248 C249 1.391 . S
C249 H237 0.950 . S
C249 C245 1.393 . S
C249 C248 1.391 . S
C250 H240 0.950 . S
C250 C251 1.386 . S
C250 C252 1.398 . S
C251 C250 1.386 . S
C251 C255 1.393 . S
C252 H241 0.943 1_565 S
C252 C250 1.398 . S
C252 C253 1.399 1_565 S
C253 C247 1.521 . S
C253 C252 1.399 1_545 S
C253 C254 1.368 1_545 S
C254 H242 0.950 . S
C254 C253 1.368 1_565 S
C254 C255 1.391 . S
C255 H243 0.950 . S
C255 C251 1.393 . S
C255 C254 1.391 . S
H256 C264 0.950 . S
H257 C269 0.950 . S
H258 C266 0.950 . S
H259 C268 0.950 . S
H260 C270 0.950 . S
H261 C272 0.950 . S
H262 C274 0.950 . S
H263 C275 0.950 . S
C264 H256 0.950 . S
C264 C265 1.386 . S
C264 C266 1.391 . S
C265 C264 1.386 . S
C265 C269 1.393 . S
C266 H258 0.950 . S
C266 C264 1.391 . S
C266 C267 1.400 . S
C267 C266 1.400 . S
C267 C268 1.398 . S
C267 C273 1.491 . S
C268 H259 0.950 . S
C268 C267 1.398 . S
C268 C269 1.391 . S
C269 H257 0.950 . S
C269 C265 1.393 . S
C269 C268 1.391 . S
C270 H260 0.950 . S
C270 C271 1.386 . S
C270 C272 1.391 . S
C271 C270 1.386 . S
C271 C275 1.393 . S
C272 H261 0.950 . S
C272 C270 1.391 . S
C272 C273 1.400 . S
C273 C267 1.491 . S
C273 C272 1.400 . S
C273 C274 1.398 . S
C274 H262 0.950 . S
C274 C273 1.398 . S
C274 C275 1.391 . S
C275 H263 0.950 . S
C275 C271 1.393 . S
C275 C274 1.391 . S
H276 C284 0.950 . S
H277 C289 0.950 . S
H278 C286 0.950 . S
H279 C288 0.950 . S
H280 C290 0.950 . S
H281 C292 0.950 . S
H282 C294 0.950 . S
H283 C295 0.950 . S
C284 H276 0.950 . S
C284 C285 1.386 . S
C284 C286 1.391 . S
C285 C284 1.386 . S
C285 C289 1.393 . S
C286 H278 0.950 . S
C286 C284 1.391 . S
C286 C287 1.400 . S
C287 C286 1.400 . S
C287 C288 1.398 . S
C287 C293 1.491 . S
C288 H279 0.950 . S
C288 C287 1.398 . S
C288 C289 1.391 . S
C289 H277 0.950 . S
C289 C285 1.393 . S
C289 C288 1.391 . S
C290 H280 0.950 . S
C290 C291 1.386 . S
C290 C292 1.391 . S
C291 C290 1.386 . S
C291 C295 1.393 . S
C292 H281 0.950 . S
C292 C290 1.391 . S
C292 C293 1.400 . S
C293 C287 1.491 . S
C293 C292 1.400 . S
C293 C294 1.398 . S
C294 H282 0.950 . S
C294 C293 1.398 . S
C294 C295 1.391 . S
C295 H283 0.950 . S
C295 C291 1.393 . S
C295 C294 1.391 . S
H296 C304 0.950 . S
H297 C309 0.950 . S
H298 C306 0.950 . S
H299 C308 0.950 . S
H300 C310 0.950 . S
H301 C312 0.950 1_545 S
H302 C314 0.950 . S
H303 C315 0.950 . S
C304 H296 0.950 . S
C304 C305 1.386 . S
C304 C306 1.391 . S
C305 C304 1.386 . S
C305 C309 1.393 . S
C306 H298 0.950 . S
C306 C304 1.391 . S
C306 C307 1.400 . S
C307 C306 1.400 . S
C307 C308 1.398 . S
C307 C313 1.491 . S
C308 H299 0.950 . S
C308 C307 1.398 . S
C308 C309 1.391 . S
C309 H297 0.950 . S
C309 C305 1.393 . S
C309 C308 1.391 . S
C310 H300 0.950 . S
C310 C311 1.386 . S
C310 C312 1.391 . S
C311 C310 1.386 . S
C311 C315 1.393 . S
C312 H301 0.950 1_565 S
C312 C310 1.391 . S
C312 C313 1.400 1_565 S
C313 C307 1.491 . S
C313 C312 1.400 1_545 S
C313 C314 1.398 1_545 S
C314 H302 0.950 . S
C314 C313 1.398 1_565 S
C314 C315 1.391 . S
C315 H303 0.950 . S
C315 C311 1.393 . S
C315 C314 1.391 . S
H316 C324 0.950 . S
H317 C329 0.950 . S
H318 C326 0.950 . S
H319 C328 0.950 . S
H320 C330 0.950 . S
H321 C332 0.950 . S
H322 C334 0.950 . S
H323 C335 0.950 . S
C324 H316 0.950 . S
C324 C325 1.386 . S
C324 C326 1.391 1_556 S
C325 C324 1.386 . S
C325 C329 1.393 . S
C326 H318 0.950 . S
C326 C324 1.391 1_554 S
C326 C327 1.400 . S
C327 C326 1.400 . S
C327 C328 1.398 . S
C327 C333 1.491 . S
C328 H319 0.950 . S
C328 C327 1.398 . S
C328 C329 1.391 1_554 S
C329 H317 0.950 . S
C329 C325 1.393 . S
C329 C328 1.391 1_556 S
C330 H320 0.950 . S
C330 C331 1.386 . S
C330 C332 1.391 . S
C331 C330 1.386 . S
C331 C335 1.393 . S
C332 H321 0.950 . S
C332 C330 1.391 . S
C332 C333 1.400 . S
C333 C327 1.491 . S
C333 C332 1.400 . S
C333 C334 1.398 . S
C334 H322 0.950 . S
C334 C333 1.398 . S
C334 C335 1.391 . S
C335 H323 0.950 . S
C335 C331 1.393 . S
C335 C334 1.391 . S
H336 C344 0.950 . S
H337 C349 0.950 . S
H338 C346 0.950 . S
H339 C348 0.950 . S
H340 C350 0.950 . S
H341 C352 0.950 . S
H342 C354 0.950 . S
H343 C355 0.950 . S
C344 H336 0.950 . S
C344 C345 1.386 . S
C344 C346 1.391 . S
C345 C344 1.386 . S
C345 C349 1.393 . S
C346 H338 0.950 . S
C346 C344 1.391 . S
C346 C347 1.400 . S
C347 C346 1.400 . S
C347 C348 1.398 . S
C347 C353 1.491 . S
C348 H339 0.950 . S
C348 C347 1.398 . S
C348 C349 1.391 . S
C349 H337 0.950 . S
C349 C345 1.393 . S
C349 C348 1.391 . S
C350 H340 0.950 . S
C350 C351 1.386 . S
C350 C352 1.391 . S
C351 C350 1.386 . S
C351 C355 1.393 . S
C352 H341 0.950 . S
C352 C350 1.391 . S
C352 C353 1.400 . S
C353 C347 1.491 . S
C353 C352 1.400 . S
C353 C354 1.398 . S
C354 H342 0.950 . S
C354 C353 1.398 . S
C354 C355 1.391 . S
C355 H343 0.950 . S
C355 C351 1.393 . S
C355 C354 1.391 . S
H356 C364 0.950 . S
H357 C369 0.950 . S
H358 C366 0.950 . S
H359 C368 0.950 . S
H360 C370 0.950 . S
H361 C372 0.950 . S
H362 C374 0.950 . S
H363 C375 0.950 . S
C364 H356 0.950 . S
C364 C365 1.386 . S
C364 C366 1.391 1_554 S
C365 C364 1.386 . S
C365 C369 1.393 . S
C366 H358 0.950 . S
C366 C364 1.391 1_556 S
C366 C367 1.400 . S
C367 C366 1.400 . S
C367 C368 1.398 . S
C367 C373 1.491 . S
C368 H359 0.950 . S
C368 C367 1.398 . S
C368 C369 1.391 1_556 S
C369 H357 0.950 . S
C369 C365 1.393 . S
C369 C368 1.391 1_554 S
C370 H360 0.950 . S
C370 C371 1.386 . S
C370 C372 1.391 . S
C371 C370 1.386 . S
C371 C375 1.393 . S
C372 H361 0.950 . S
C372 C370 1.391 . S
C372 C373 1.400 . S
C373 C367 1.491 . S
C373 C372 1.400 . S
C373 C374 1.398 . S
C374 H362 0.950 . S
C374 C373 1.398 . S
C374 C375 1.391 . S
C375 H363 0.950 . S
C375 C371 1.393 . S
C375 C374 1.391 . S
H376 C384 0.950 . S
H377 C389 0.950 . S
H378 C386 0.950 . S
H379 C388 0.950 . S
H380 C390 0.950 . S
H381 C392 0.950 . S
H382 C394 0.950 . S
H383 C395 0.950 . S
C384 H376 0.950 . S
C384 C385 1.386 . S
C384 C386 1.391 . S
C385 C384 1.386 . S
C385 C389 1.393 . S
C386 H378 0.950 . S
C386 C384 1.391 . S
C386 C387 1.400 . S
C387 C386 1.400 . S
C387 C388 1.398 . S
C387 C393 1.491 . S
C388 H379 0.950 . S
C388 C387 1.398 . S
C388 C389 1.391 . S
C389 H377 0.950 . S
C389 C385 1.393 . S
C389 C388 1.391 . S
C390 H380 0.950 . S
C390 C391 1.386 . S
C390 C392 1.391 . S
C391 C390 1.386 . S
C391 C395 1.393 . S
C392 H381 0.950 . S
C392 C390 1.391 . S
C392 C393 1.400 . S
C393 C387 1.491 . S
C393 C392 1.400 . S
C393 C394 1.398 . S
C394 H382 0.950 . S
C394 C393 1.398 . S
C394 C395 1.391 . S
C395 H383 0.950 . S
C395 C391 1.393 . S
C395 C394 1.391 . S
H396 C404 0.950 . S
H397 C409 0.950 . S
H398 C406 0.950 . S
H399 C408 0.950 . S
H400 C410 0.950 . S
H401 C412 0.950 . S
H402 C414 0.950 . S
H403 C415 0.950 . S
C404 H396 0.950 . S
C404 C405 1.386 . S
C404 C406 1.391 1_554 S
C405 C404 1.386 . S
C405 C409 1.393 . S
C406 H398 0.950 . S
C406 C404 1.391 1_556 S
C406 C407 1.400 . S
C407 C406 1.400 . S
C407 C408 1.398 . S
C407 C413 1.491 . S
C408 H399 0.950 . S
C408 C407 1.398 . S
C408 C409 1.391 1_556 S
C409 H397 0.950 . S
C409 C405 1.393 . S
C409 C408 1.391 1_554 S
C410 H400 0.950 . S
C410 C411 1.386 . S
C410 C412 1.391 . S
C411 C410 1.386 . S
C411 C415 1.393 . S
C412 H401 0.950 . S
C412 C410 1.391 . S
C412 C413 1.400 . S
C413 C407 1.491 . S
C413 C412 1.400 . S
C413 C414 1.398 . S
C414 H402 0.950 . S
C414 C413 1.398 . S
C414 C415 1.391 . S
C415 H403 0.950 . S
C415 C411 1.393 . S
C415 C414 1.391 . S
H416 C424 0.950 . S
H417 C429 0.950 . S
H418 C426 0.950 . S
H419 C428 0.950 . S
H420 C430 0.950 . S
H421 C432 0.950 . S
H422 C434 0.950 . S
H423 C435 0.950 . S
C424 H416 0.950 . S
C424 C425 1.386 . S
C424 C426 1.391 . S
C425 C424 1.386 . S
C425 C429 1.393 . S
C426 H418 0.950 . S
C426 C424 1.391 . S
C426 C427 1.400 . S
C427 C426 1.400 . S
C427 C428 1.398 . S
C427 C433 1.491 . S
C428 H419 0.950 . S
C428 C427 1.398 . S
C428 C429 1.391 . S
C429 H417 0.950 . S
C429 C425 1.393 . S
C429 C428 1.391 . S
C430 H420 0.950 . S
C430 C431 1.386 . S
C430 C432 1.391 . S
C431 C430 1.386 . S
C431 C435 1.393 . S
C432 H421 0.950 . S
C432 C430 1.391 . S
C432 C433 1.400 . S
C433 C427 1.491 . S
C433 C432 1.400 . S
C433 C434 1.398 . S
C434 H422 0.950 . S
C434 C433 1.398 . S
C434 C435 1.391 . S
C435 H423 0.950 . S
C435 C431 1.393 . S
C435 C434 1.391 . S
H436 C444 0.950 . S
H437 C449 0.950 . S
H438 C446 0.950 . S
H439 C448 0.950 . S
H440 C450 0.950 . S
H441 C452 0.950 . S
H442 C454 0.950 . S
H443 C455 0.950 . S
C444 H436 0.950 . S
C444 C445 1.386 . S
C444 C446 1.391 1_556 S
C445 C444 1.386 . S
C445 C449 1.393 . S
C446 H438 0.950 . S
C446 C444 1.391 1_554 S
C446 C447 1.400 . S
C447 C446 1.400 . S
C447 C448 1.398 . S
C447 C453 1.491 . S
C448 H439 0.950 . S
C448 C447 1.398 . S
C448 C449 1.391 1_554 S
C449 H437 0.950 . S
C449 C445 1.393 . S
C449 C448 1.391 1_556 S
C450 H440 0.950 . S
C450 C451 1.386 . S
C450 C452 1.391 . S
C451 C450 1.386 . S
C451 C455 1.393 . S
C452 H441 0.950 . S
C452 C450 1.391 . S
C452 C453 1.400 . S
C453 C447 1.491 . S
C453 C452 1.400 . S
C453 C454 1.398 . S
C454 H442 0.950 . S
C454 C453 1.398 . S
C454 C455 1.391 . S
C455 H443 0.950 . S
C455 C451 1.393 . S
C455 C454 1.391 . S
H456 C464 0.950 . S
H457 C469 0.950 . S
H458 C466 0.950 . S
H459 C468 0.950 . S
H460 C470 0.950 . S
H461 C472 0.950 . S
H462 C474 0.950 . S
H463 C475 0.950 . S
C464 H456 0.950 . S
C464 C465 1.386 . S
C464 C466 1.391 . S
C465 C464 1.386 . S
C465 C469 1.393 . S
C466 H458 0.950 . S
C466 C464 1.391 . S
C466 C467 1.400 . S
C467 C466 1.400 . S
C467 C468 1.398 . S
C467 C473 1.491 . S
C468 H459 0.950 . S
C468 C467 1.398 . S
C468 C469 1.391 . S
C469 H457 0.950 . S
C469 C465 1.393 . S
C469 C468 1.391 . S
C470 H460 0.950 . S
C470 C471 1.386 . S
C470 C472 1.391 . S
C471 C470 1.386 . S
C471 C475 1.393 . S
C472 H461 0.950 . S
C472 C470 1.391 . S
C472 C473 1.400 . S
C473 C467 1.491 . S
C473 C472 1.400 . S
C473 C474 1.398 . S
C474 H462 0.950 . S
C474 C473 1.398 . S
C474 C475 1.391 . S
C475 H463 0.950 . S
C475 C471 1.393 . S
C475 C474 1.391 . S
H476 C484 0.950 . S
H477 C489 0.950 . S
H478 C486 0.950 . S
H479 C488 0.950 . S
H480 C490 0.950 . S
H481 C492 0.950 . S
H482 C494 0.950 . S
H483 C495 0.950 . S
C484 H476 0.950 . S
C484 C485 1.386 . S
C484 C486 1.391 . S
C485 C484 1.386 . S
C485 C489 1.393 . S
C486 H478 0.950 . S
C486 C484 1.391 . S
C486 C487 1.400 . S
C487 C486 1.400 . S
C487 C488 1.398 . S
C487 C493 1.491 . S
C488 H479 0.950 . S
C488 C487 1.398 . S
C488 C489 1.391 . S
C489 H477 0.950 . S
C489 C485 1.393 . S
C489 C488 1.391 . S
C490 H480 0.950 . S
C490 C491 1.386 . S
C490 C492 1.391 . S
C491 C490 1.386 . S
C491 C495 1.393 . S
C492 H481 0.950 . S
C492 C490 1.391 . S
C492 C493 1.400 . S
C493 C487 1.491 . S
C493 C492 1.400 . S
C493 C494 1.398 . S
C494 H482 0.950 . S
C494 C493 1.398 . S
C494 C495 1.391 . S
C495 H483 0.950 . S
C495 C491 1.393 . S
C495 C494 1.391 . S
H496 C504 0.950 . S
H497 C509 0.950 . S
H498 C506 0.950 . S
H499 C508 0.950 . S
H500 C510 0.950 . S
H501 C512 0.950 . S
H502 C514 0.950 . S
H503 C515 0.950 . S
C504 H496 0.950 . S
C504 C505 1.386 . S
C504 C506 1.391 . S
C505 C504 1.386 . S
C505 C509 1.393 . S
C506 H498 0.950 . S
C506 C504 1.391 . S
C506 C507 1.400 . S
C507 C506 1.400 . S
C507 C508 1.398 . S
C507 C513 1.491 . S
C508 H499 0.950 . S
C508 C507 1.398 . S
C508 C509 1.391 . S
C509 H497 0.950 . S
C509 C505 1.393 . S
C509 C508 1.391 . S
C510 H500 0.950 . S
C510 C511 1.386 . S
C510 C512 1.391 . S
C511 C510 1.386 . S
C511 C515 1.393 . S
C512 H501 0.950 . S
C512 C510 1.391 . S
C512 C513 1.400 . S
C513 C507 1.491 . S
C513 C512 1.400 . S
C513 C514 1.398 . S
C514 H502 0.950 . S
C514 C513 1.398 . S
C514 C515 1.391 . S
C515 H503 0.950 . S
C515 C511 1.393 . S
C515 C514 1.391 . S
H516 C524 0.950 . S
H517 C529 0.950 . S
H518 C526 0.950 . S
H519 C528 0.950 . S
H520 C530 0.950 . S
H521 C532 0.950 . S
H522 C534 0.950 . S
H523 C535 0.950 . S
C524 H516 0.950 . S
C524 C525 1.386 . S
C524 C526 1.391 . S
C525 C524 1.386 . S
C525 C529 1.393 . S
C526 H518 0.950 . S
C526 C524 1.391 . S
C526 C527 1.400 . S
C527 C526 1.400 . S
C527 C528 1.398 . S
C527 C533 1.491 . S
C528 H519 0.950 . S
C528 C527 1.398 . S
C528 C529 1.391 . S
C529 H517 0.950 . S
C529 C525 1.393 . S
C529 C528 1.391 . S
C530 H520 0.950 . S
C530 C531 1.386 . S
C530 C532 1.391 . S
C531 C530 1.386 . S
C531 C535 1.393 . S
C532 H521 0.950 . S
C532 C530 1.391 . S
C532 C533 1.400 . S
C533 C527 1.491 . S
C533 C532 1.400 . S
C533 C534 1.398 . S
C534 H522 0.950 . S
C534 C533 1.398 . S
C534 C535 1.391 . S
C535 H523 0.950 . S
C535 C531 1.393 . S
C535 C534 1.391 . S
H536 C544 0.950 . S
H537 C549 0.950 . S
H538 C546 0.950 . S
H539 C548 0.950 . S
H540 C550 0.950 . S
H541 C552 0.950 . S
H542 C554 0.950 . S
H543 C555 0.950 . S
C544 H536 0.950 . S
C544 C545 1.386 . S
C544 C546 1.391 . S
C545 C544 1.386 . S
C545 C549 1.393 . S
C546 H538 0.950 . S
C546 C544 1.391 . S
C546 C547 1.400 . S
C547 C546 1.400 . S
C547 C548 1.398 . S
C547 C553 1.491 . S
C548 H539 0.950 . S
C548 C547 1.398 . S
C548 C549 1.391 . S
C549 H537 0.950 . S
C549 C545 1.393 . S
C549 C548 1.391 . S
C550 H540 0.950 . S
C550 C551 1.386 . S
C550 C552 1.391 . S
C551 C550 1.386 . S
C551 C555 1.393 . S
C552 H541 0.950 . S
C552 C550 1.391 . S
C552 C553 1.400 . S
C553 C547 1.491 . S
C553 C552 1.400 . S
C553 C554 1.398 . S
C554 H542 0.950 . S
C554 C553 1.398 . S
C554 C555 1.391 . S
C555 H543 0.950 . S
C555 C551 1.393 . S
C555 C554 1.391 . S
H556 C564 0.950 . S
H557 C569 0.950 . S
H558 C566 0.950 . S
H559 C568 0.950 . S
H560 C570 0.950 . S
H561 C572 0.950 . S
H562 C574 0.950 . S
H563 C575 0.950 . S
C564 H556 0.950 . S
C564 C565 1.386 . S
C564 C566 1.391 . S
C565 C564 1.386 . S
C565 C569 1.393 . S
C566 H558 0.950 . S
C566 C564 1.391 . S
C566 C567 1.400 . S
C567 C566 1.400 . S
C567 C568 1.398 . S
C567 C573 1.491 . S
C568 H559 0.950 . S
C568 C567 1.398 . S
C568 C569 1.391 . S
C569 H557 0.950 . S
C569 C565 1.393 . S
C569 C568 1.391 . S
C570 H560 0.950 . S
C570 C571 1.386 . S
C570 C572 1.391 . S
C571 C570 1.386 . S
C571 C575 1.393 . S
C572 H561 0.950 . S
C572 C570 1.391 . S
C572 C573 1.400 . S
C573 C567 1.491 . S
C573 C572 1.400 . S
C573 C574 1.398 . S
C574 H562 0.950 . S
C574 C573 1.398 . S
C574 C575 1.391 . S
C575 H563 0.950 . S
C575 C571 1.393 . S
C575 C574 1.391 . S
H576 C584 0.950 . S
H577 C589 0.950 . S
H578 C586 0.950 . S
H579 C588 0.950 . S
H580 C590 0.950 . S
H581 C592 0.950 . S
H582 C594 0.950 . S
H583 C595 0.950 . S
C584 H576 0.950 . S
C584 C585 1.386 . S
C584 C586 1.391 . S
C585 C584 1.386 . S
C585 C589 1.393 . S
C586 H578 0.950 . S
C586 C584 1.391 . S
C586 C587 1.400 . S
C587 C586 1.400 . S
C587 C588 1.398 . S
C587 C593 1.491 . S
C588 H579 0.950 . S
C588 C587 1.398 . S
C588 C589 1.391 . S
C589 H577 0.950 . S
C589 C585 1.393 . S
C589 C588 1.391 . S
C590 H580 0.950 . S
C590 C591 1.386 . S
C590 C592 1.391 . S
C591 C590 1.386 . S
C591 C595 1.393 . S
C592 H581 0.950 . S
C592 C590 1.391 . S
C592 C593 1.400 . S
C593 C587 1.491 . S
C593 C592 1.400 . S
C593 C594 1.398 . S
C594 H582 0.950 . S
C594 C593 1.398 . S
C594 C595 1.391 . S
C595 H583 0.950 . S
C595 C591 1.393 . S
C595 C594 1.391 . S
H596 C604 0.950 . S
H597 C609 0.950 . S
H598 C606 0.950 . S
H599 C608 0.950 . S
H600 C610 0.950 . S
H601 C612 0.950 . S
H602 C614 0.950 . S
H603 C615 0.950 . S
C604 H596 0.950 . S
C604 C605 1.386 . S
C604 C606 1.391 . S
C605 C604 1.386 . S
C605 C609 1.393 . S
C606 H598 0.950 . S
C606 C604 1.391 . S
C606 C607 1.400 . S
C607 C606 1.400 . S
C607 C608 1.398 . S
C607 C613 1.491 . S
C608 H599 0.950 . S
C608 C607 1.398 . S
C608 C609 1.391 . S
C609 H597 0.950 . S
C609 C605 1.393 . S
C609 C608 1.391 . S
C610 H600 0.950 . S
C610 C611 1.386 . S
C610 C612 1.391 . S
C611 C610 1.386 . S
C611 C615 1.393 . S
C612 H601 0.950 . S
C612 C610 1.391 . S
C612 C613 1.400 . S
C613 C607 1.491 . S
C613 C612 1.400 . S
C613 C614 1.398 . S
C614 H602 0.950 . S
C614 C613 1.398 . S
C614 C615 1.391 . S
C615 H603 0.950 . S
C615 C611 1.393 . S
C615 C614 1.391 . S
H616 C624 0.950 . S
H617 C629 0.950 . S
H618 C626 0.950 . S
H619 C628 0.950 . S
H620 C630 0.950 . S
H621 C632 0.950 . S
H622 C634 0.950 . S
H623 C635 0.950 . S
C624 H616 0.950 . S
C624 C625 1.386 . S
C624 C626 1.391 . S
C625 C624 1.386 . S
C625 C629 1.393 . S
C626 H618 0.950 . S
C626 C624 1.391 . S
C626 C627 1.400 . S
C627 C626 1.400 . S
C627 C628 1.398 . S
C627 C633 1.491 . S
C628 H619 0.950 . S
C628 C627 1.398 . S
C628 C629 1.391 . S
C629 H617 0.950 . S
C629 C625 1.393 . S
C629 C628 1.391 . S
C630 H620 0.950 . S
C630 C631 1.386 . S
C630 C632 1.391 . S
C631 C630 1.386 . S
C631 C635 1.393 . S
C632 H621 0.950 . S
C632 C630 1.391 . S
C632 C633 1.400 . S
C633 C627 1.491 . S
C633 C632 1.400 . S
C633 C634 1.398 . S
C634 H622 0.950 . S
C634 C633 1.398 . S
C634 C635 1.391 . S
C635 H623 0.950 . S
C635 C631 1.393 . S
C635 C634 1.391 . S
C165 C58 1.384 . S
C171 C88 1.289 . S
C191 C96 1.325 . S
C185 C68 1.376 . S
C211 C100 1.305 . S
C205 C40 1.367 . S
C225 C50 1.384 . S
C231 C76 1.279 . S
C251 C117 1.308 . S
C245 C23 1.376 . S
C271 C151 1.297 . S
C265 C32 1.381 . S
C285 C5 1.369 . S
C291 C139 1.306 . S
C305 C14 1.369 . S
C311 C121 1.316 . S
C331 C75 1.278 . S
C325 C13 1.443 . S
C351 C109 1.264 . S
C345 C4 1.444 . S
C371 C113 1.257 . S
C365 C31 1.449 . S
C391 C91 1.256 . S
C385 C22 1.449 . S
C411 C130 1.251 . S
C405 C49 1.443 . S
C425 C41 1.446 . S
C431 C138 1.256 . S
C451 C154 1.264 . S
C445 C67 1.446 . S
C465 C59 1.448 . S
C471 C134 1.299 . S
C491 C79 1.318 . S
C485 C7 1.498 . S
C511 C97 1.320 . S
C505 C16 1.501 . S
C525 C25 1.489 . S
C531 C112 1.296 . S
C551 C92 1.331 . S
C545 C34 1.491 . S
C571 C118 1.305 . S
C565 C43 1.503 . S
C585 C52 1.505 . S
C591 C142 1.326 . S
C605 C61 1.490 . S
C611 C155 1.301 . S
C625 C70 1.494 . S
C631 C133 1.295 . S
