# Generated by pormake.
# Topology zzz, (3,6)-cn, num edge types: 1
# Building blocks:
#     Node 0, Type 0, BuildingBlock: MIDCAF_clean_linker_0, # of connection points: 3
#     Node 1, Type 0, BuildingBlock: MIDCAF_clean_linker_0, # of connection points: 3
#     Node 2, Type 0, BuildingBlock: MIDCAF_clean_linker_0, # of connection points: 3
#     Node 3, Type 0, BuildingBlock: MIDCAF_clean_linker_0, # of connection points: 3
#     Node 4, Type 0, BuildingBlock: MIDCAF_clean_linker_0, # of connection points: 3
#     Node 5, Type 0, BuildingBlock: MIDCAF_clean_linker_0, # of connection points: 3
#     Node 6, Type 0, BuildingBlock: MIDCAF_clean_linker_0, # of connection points: 3
#     Node 7, Type 0, BuildingBlock: MIDCAF_clean_linker_0, # of connection points: 3
#     Node 8, Type 1, BuildingBlock: CIFDUS_clean_sbu_1, # of connection points: 6
#     Node 9, Type 1, BuildingBlock: CIFDUS_clean_sbu_1, # of connection points: 6
#     Node 10, Type 1, BuildingBlock: CIFDUS_clean_sbu_1, # of connection points: 6
#     Node 11, Type 1, BuildingBlock: CIFDUS_clean_sbu_1, # of connection points: 6
#     Edge 12, Type (0, 1), BuildingBlock: MIFKUJ_clean_linker_0, # of connection points: 2
#     Edge 13, Type (0, 1), BuildingBlock: MIFKUJ_clean_linker_0, # of connection points: 2
#     Edge 14, Type (0, 1), BuildingBlock: MIFKUJ_clean_linker_0, # of connection points: 2
#     Edge 15, Type (0, 1), BuildingBlock: MIFKUJ_clean_linker_0, # of connection points: 2
#     Edge 16, Type (0, 1), BuildingBlock: MIFKUJ_clean_linker_0, # of connection points: 2
#     Edge 17, Type (0, 1), BuildingBlock: MIFKUJ_clean_linker_0, # of connection points: 2
#     Edge 18, Type (0, 1), BuildingBlock: MIFKUJ_clean_linker_0, # of connection points: 2
#     Edge 19, Type (0, 1), BuildingBlock: MIFKUJ_clean_linker_0, # of connection points: 2
#     Edge 20, Type (0, 1), BuildingBlock: MIFKUJ_clean_linker_0, # of connection points: 2
#     Edge 21, Type (0, 1), BuildingBlock: MIFKUJ_clean_linker_0, # of connection points: 2
#     Edge 22, Type (0, 1), BuildingBlock: MIFKUJ_clean_linker_0, # of connection points: 2
#     Edge 23, Type (0, 1), BuildingBlock: MIFKUJ_clean_linker_0, # of connection points: 2
#     Edge 24, Type (0, 1), BuildingBlock: MIFKUJ_clean_linker_0, # of connection points: 2
#     Edge 25, Type (0, 1), BuildingBlock: MIFKUJ_clean_linker_0, # of connection points: 2
#     Edge 26, Type (0, 1), BuildingBlock: MIFKUJ_clean_linker_0, # of connection points: 2
#     Edge 27, Type (0, 1), BuildingBlock: MIFKUJ_clean_linker_0, # of connection points: 2
#     Edge 28, Type (0, 1), BuildingBlock: MIFKUJ_clean_linker_0, # of connection points: 2
#     Edge 29, Type (0, 1), BuildingBlock: MIFKUJ_clean_linker_0, # of connection points: 2
#     Edge 30, Type (0, 1), BuildingBlock: MIFKUJ_clean_linker_0, # of connection points: 2
#     Edge 31, Type (0, 1), BuildingBlock: MIFKUJ_clean_linker_0, # of connection points: 2
#     Edge 32, Type (0, 1), BuildingBlock: MIFKUJ_clean_linker_0, # of connection points: 2
#     Edge 33, Type (0, 1), BuildingBlock: MIFKUJ_clean_linker_0, # of connection points: 2
#     Edge 34, Type (0, 1), BuildingBlock: MIFKUJ_clean_linker_0, # of connection points: 2
#     Edge 35, Type (0, 1), BuildingBlock: MIFKUJ_clean_linker_0, # of connection points: 2
# Relax obj value: 0.310
# Max RMSD: 0.222
# Mean RMSD: 0.208
data_MOF--net-zzz--node1-CIFDUS_clean_sbu_1--node2-MIDCAF_clean_linker_0--edge1-MIFKUJ_clean_linker_0
_symmetry_space_group_name_H-M    P1
_symmetry_Int_Tables_number       1
_symmetry_cell_setting            triclinic
loop_
_symmetry_equiv_pos_as_xyz
'x, y, z'
_cell_length_a     67.732998
_cell_length_b     72.07379
_cell_length_c     26.162199
_cell_angle_alpha  89.763553
_cell_angle_beta   89.975066
_cell_angle_gamma 88.534029
loop_
_atom_site_label
_atom_site_type_symbol
_atom_site_fract_x
_atom_site_fract_y
_atom_site_fract_z
_atom_type_partial_charge
C0 C 0.82763 0.59536 0.2562 0.0
C1 C 0.8205 0.58715 0.30114 0.0
C2 C 0.80006 0.58356 0.30363 0.0
C3 C 0.78728 0.58821 0.26247 0.0
H4 H 0.71701 0.60248 0.16498 0.0
H5 H 0.68524 0.59603 0.12355 0.0
H6 H 0.71658 0.57209 0.99501 0.0
H7 H 0.74784 0.57854 0.03604 0.0
H8 H 0.77376 0.61121 0.98903 0.0
H9 H 0.79955 0.60979 0.92466 0.0
H10 H 0.83934 0.63644 0.02817 0.0
H11 H 0.81381 0.63729 0.09365 0.0
H12 H 0.82154 0.60631 0.18229 0.0
H13 H 0.84321 0.59787 0.25138 0.0
H14 H 0.79386 0.57733 0.33754 0.0
H15 H 0.77172 0.5853 0.26571 0.0
N16 N 0.76339 0.59514 0.16457 0.0
N17 N 0.76277 0.60938 0.08319 0.0
N18 N 0.79023 0.6124 0.13548 0.0
C19 C 0.75376 0.59912 0.11944 0.0
C20 C 0.78084 0.61624 0.0909 0.0
C21 C 0.78191 0.60194 0.17267 0.0
C22 C 0.73488 0.59077 0.10411 0.0
C23 C 0.71698 0.59522 0.12881 0.0
C24 C 0.69883 0.59172 0.10471 0.0
C25 C 0.69833 0.58391 0.0553 0.0
C26 C 0.71632 0.57854 0.03235 0.0
C27 C 0.73427 0.58193 0.05632 0.0
C28 C 0.79216 0.62349 0.04726 0.0
C29 C 0.78767 0.61764 0.9974 0.0
C30 C 0.80241 0.61698 0.96009 0.0
C31 C 0.82157 0.62233 0.97245 0.0
C32 C 0.82471 0.63185 0.01838 0.0
C33 C 0.81014 0.6322 0.05601 0.0
C34 C 0.79458 0.59668 0.21795 0.0
C35 C 0.81499 0.60012 0.21583 0.0
C36 C 0.01436 0.81406 0.27714 0.0
C37 C 0.00457 0.80855 0.32166 0.0
C38 C 0.99972 0.78972 0.3271 0.0
C39 C 0.00377 0.77694 0.28744 0.0
H40 H 0.02622 0.70955 0.18516 0.0
H41 H 0.02187 0.67971 0.1415 0.0
H42 H 0.97637 0.70503 0.04714 0.0
H43 H 0.98031 0.73438 0.09137 0.0
H44 H 0.00759 0.7606 0.01457 0.0
H45 H 0.99663 0.7838 0.95184 0.0
H46 H 0.03013 0.82518 0.02991 0.0
H47 H 0.04081 0.80226 0.09325 0.0
H48 H 0.02591 0.80667 0.20458 0.0
H49 H 0.01874 0.82831 0.27208 0.0
H50 H 0.99226 0.78504 0.36122 0.0
H51 H 0.99928 0.76272 0.29185 0.0
N52 N 0.00995 0.75238 0.19494 0.0
N53 N 0.01732 0.75152 0.10683 0.0
N54 N 0.02216 0.77854 0.15266 0.0
C55 C 0.01113 0.74285 0.14971 0.0
C56 C 0.02296 0.76928 0.10791 0.0
C57 C 0.01578 0.77047 0.1964 0.0
C58 C 0.00337 0.72415 0.14223 0.0
C59 C 0.01451 0.70836 0.15726 0.0
C60 C 0.01222 0.69141 0.13174 0.0
C61 C 0.99903 0.69021 0.09035 0.0
C62 C 0.98675 0.7056 0.07857 0.0
C63 C 0.98879 0.72231 0.10448 0.0
C64 C 0.02433 0.77991 0.06003 0.0
C65 C 0.01332 0.77445 0.01718 0.0
C66 C 0.00692 0.78769 0.98136 0.0
C67 C 0.0118 0.80626 0.98809 0.0
C68 C 0.02564 0.81094 0.02549 0.0
C69 C 0.03188 0.79783 0.0614 0.0
C70 C 0.01301 0.78274 0.24204 0.0
C71 C 0.01859 0.80144 0.23829 0.0
C72 C 0.68177 0.9108 0.26989 0.0
C73 C 0.68973 0.91646 0.31648 0.0
C74 C 0.71038 0.91888 0.31915 0.0
C75 C 0.72269 0.915 0.27637 0.0
H76 H 0.78 0.9293 0.16396 0.0
H77 H 0.81142 0.93792 0.12278 0.0
H78 H 0.80697 0.89172 0.01987 0.0
H79 H 0.77679 0.88261 0.06133 0.0
H80 H 0.73453 0.8877 0.99981 0.0
H81 H 0.71132 0.8884 0.92874 0.0
H82 H 0.66316 0.88053 0.03423 0.0
H83 H 0.68615 0.87956 0.10497 0.0
H84 H 0.68641 0.90276 0.19341 0.0
H85 H 0.66598 0.90938 0.26532 0.0
H86 H 0.71704 0.92342 0.35442 0.0
H87 H 0.73848 0.9166 0.27971 0.0
N88 N 0.74591 0.90698 0.17575 0.0
N89 N 0.7437 0.89361 0.09376 0.0
N90 N 0.7161 0.89492 0.14585 0.0
C91 C 0.75472 0.90173 0.13029 0.0
C92 C 0.72452 0.89007 0.10113 0.0
C93 C 0.72625 0.90332 0.18355 0.0
C94 C 0.77562 0.9054 0.11579 0.0
C95 C 0.78609 0.92069 0.1337 0.0
C96 C 0.80393 0.92571 0.10986 0.0
C97 C 0.81135 0.91561 0.06762 0.0
C98 C 0.80149 0.89983 0.05192 0.0
C99 C 0.78411 0.89467 0.07597 0.0
C100 C 0.71206 0.88424 0.05818 0.0
C101 C 0.7191 0.88533 0.0077 0.0
C102 C 0.70585 0.88568 0.9669 0.0
C103 C 0.68548 0.88487 0.97618 0.0
C104 C 0.6788 0.88111 0.02586 0.0
C105 C 0.692 0.8808 0.06659 0.0
C106 C 0.71449 0.90878 0.23017 0.0
C107 C 0.69377 0.90708 0.22796 0.0
C108 C 0.50565 0.6898 0.04367 0.0
C109 C 0.50373 0.69788 0.99513 0.0
C110 C 0.50688 0.71679 0.98814 0.0
C111 C 0.51026 0.72789 0.03064 0.0
H112 H 0.4742 0.76958 0.07852 0.0
H113 H 0.4709 0.79932 0.03711 0.0
H114 H 0.50051 0.82483 0.16445 0.0
H115 H 0.5049 0.79412 0.20476 0.0
H116 H 0.51089 0.74199 0.31006 0.0
H117 H 0.51077 0.71964 0.38185 0.0
H118 H 0.4777 0.68175 0.29025 0.0
H119 H 0.47799 0.70368 0.21905 0.0
H120 H 0.50949 0.6942 0.12321 0.0
H121 H 0.50371 0.67503 0.04909 0.0
H122 H 0.50584 0.72302 0.95045 0.0
H123 H 0.5115 0.74271 0.02493 0.0
N124 N 0.50393 0.75017 0.11888 0.0
N125 N 0.49468 0.75307 0.20525 0.0
N126 N 0.50551 0.72428 0.17186 0.0
C127 C 0.49726 0.76082 0.15803 0.0
C128 C 0.49904 0.7346 0.21196 0.0
C129 C 0.50813 0.73197 0.1253 0.0
C130 C 0.49003 0.77959 0.14446 0.0
C131 C 0.47953 0.78163 0.09845 0.0
C132 C 0.4775 0.79883 0.07477 0.0
C133 C 0.48568 0.8146 0.09689 0.0
C134 C 0.49444 0.81288 0.14574 0.0
C135 C 0.4967 0.79541 0.16935 0.0
C136 C 0.49445 0.72451 0.25933 0.0
C137 C 0.50296 0.7292 0.30623 0.0
C138 C 0.50298 0.71644 0.34695 0.0
C139 C 0.49419 0.69911 0.34112 0.0
C140 C 0.48436 0.69512 0.29561 0.0
C141 C 0.48455 0.70766 0.25504 0.0
C142 C 0.51048 0.72005 0.08014 0.0
C143 C 0.50917 0.70076 0.08588 0.0
C144 C 0.18 0.41284 0.17102 0.0
C145 C 0.1887 0.41647 0.12358 0.0
C146 C 0.20934 0.41424 0.1187 0.0
C147 C 0.22104 0.40858 0.16097 0.0
H148 H 0.27414 0.426 0.27746 0.0
H149 H 0.30395 0.43689 0.32088 0.0
H150 H 0.30572 0.38719 0.4134 0.0
H151 H 0.2767 0.37622 0.36997 0.0
H152 H 0.23511 0.37791 0.43341 0.0
H153 H 0.21432 0.38315 0.50794 0.0
H154 H 0.16238 0.38026 0.41362 0.0
H155 H 0.18297 0.37571 0.33821 0.0
H156 H 0.184 0.40426 0.24836 0.0
H157 H 0.16416 0.41447 0.17589 0.0
H158 H 0.21641 0.41707 0.08246 0.0
H159 H 0.23687 0.40695 0.15628 0.0
N160 N 0.24323 0.40143 0.26149 0.0
N161 N 0.24187 0.38622 0.34106 0.0
N162 N 0.21359 0.38866 0.29098 0.0
C163 C 0.25244 0.39535 0.30543 0.0
C164 C 0.22256 0.38283 0.33461 0.0
C165 C 0.22365 0.39774 0.25387 0.0
C166 C 0.27287 0.40031 0.32035 0.0
C167 C 0.2813 0.41717 0.30584 0.0
C168 C 0.29826 0.42346 0.33105 0.0
C169 C 0.30691 0.41308 0.37147 0.0
C170 C 0.29919 0.39572 0.38334 0.0
C171 C 0.28258 0.38939 0.35799 0.0
C172 C 0.21068 0.37733 0.37941 0.0
C173 C 0.21925 0.37755 0.42852 0.0
C174 C 0.2074 0.38035 0.47153 0.0
C175 C 0.18693 0.38233 0.46597 0.0
C176 C 0.17823 0.3787 0.41851 0.0
C177 C 0.19005 0.37628 0.37526 0.0
C178 C 0.21219 0.40471 0.20846 0.0
C179 C 0.19149 0.40695 0.21259 0.0
C180 C 1.00032 0.19002 0.15545 0.0
C181 C 0.00556 0.19563 0.10603 0.0
C182 C 0.01065 0.21422 0.09763 0.0
C183 C 0.01204 0.22655 0.13904 0.0
H184 H 0.02372 0.29097 0.23631 0.0
H185 H 0.02062 0.32214 0.2748 0.0
H186 H 0.98603 0.29958 0.39775 0.0
H187 H 0.98909 0.26894 0.35988 0.0
H188 H 0.02023 0.24186 0.41947 0.0
H189 H 0.01272 0.22141 0.49097 0.0
H190 H 0.02984 0.17392 0.4 0.0
H191 H 0.03672 0.19406 0.32769 0.0
H192 H 0.99835 0.19708 0.23434 0.0
H193 H 0.99597 0.17589 0.1628 0.0
H194 H 0.01468 0.21887 0.05971 0.0
H195 H 0.01716 0.24046 0.13238 0.0
N196 N 0.00957 0.24986 0.23873 0.0
N197 N 0.02061 0.24873 0.32402 0.0
N198 N 0.02101 0.22175 0.27575 0.0
C199 C 0.01319 0.25857 0.28397 0.0
C200 C 0.0247 0.23041 0.32035 0.0
C201 C 0.01362 0.23123 0.23473 0.0
C202 C 0.0065 0.2777 0.29498 0.0
C203 C 0.0148 0.29295 0.27031 0.0
C204 C 0.01324 0.31064 0.29263 0.0
C205 C 1.00315 0.31315 0.33927 0.0
C206 C 0.99364 0.29809 0.36149 0.0
C207 C 0.99534 0.28057 0.33967 0.0
C208 C 0.02823 0.21944 0.36724 0.0
C209 C 0.02315 0.22711 0.41517 0.0
C210 C 0.01893 0.2155 0.45632 0.0
C211 C 0.02022 0.1963 0.44987 0.0
C212 C 0.0285 0.18883 0.40501 0.0
C213 C 0.03238 0.20033 0.36368 0.0
C214 C 0.00838 0.22033 0.18905 0.0
C215 C 1.00171 0.20219 0.19637 0.0
C216 C 0.32235 0.10178 0.14523 0.0
C217 C 0.31554 0.08883 0.11008 0.0
C218 C 0.29662 0.08147 0.11775 0.0
C219 C 0.28488 0.08704 0.16002 0.0
H220 H 0.23065 0.07687 0.27235 0.0
H221 H 0.19988 0.06743 0.31467 0.0
H222 H 0.20038 0.11668 0.40743 0.0
H223 H 0.23075 0.12604 0.36628 0.0
H224 H 0.27509 0.12401 0.42712 0.0
H225 H 0.2989 0.12275 0.49676 0.0
H226 H 0.34651 0.12547 0.38695 0.0
H227 H 0.32296 0.12758 0.31834 0.0
H228 H 0.31718 0.11703 0.21311 0.0
H229 H 0.33693 0.10746 0.1412 0.0
H230 H 0.29097 0.07143 0.09118 0.0
H231 H 0.27052 0.08106 0.16533 0.0
N232 N 0.26205 0.10102 0.2543 0.0
N233 N 0.26508 0.11508 0.33517 0.0
N234 N 0.29197 0.11387 0.28015 0.0
C235 C 0.2538 0.1064 0.30016 0.0
C236 C 0.28412 0.11887 0.32558 0.0
C237 C 0.28135 0.10513 0.24398 0.0
C238 C 0.23326 0.10215 0.31596 0.0
C239 C 0.22391 0.08587 0.30081 0.0
C240 C 0.20643 0.08041 0.32528 0.0
C241 C 0.19788 0.09134 0.3644 0.0
C242 C 0.20658 0.10809 0.37723 0.0
C243 C 0.22403 0.11338 0.35353 0.0
C244 C 0.29721 0.12497 0.36706 0.0
C245 C 0.29062 0.12512 0.41804 0.0
C246 C 0.30427 0.12435 0.45802 0.0
C247 C 0.32462 0.12317 0.44739 0.0
C248 C 0.33099 0.12614 0.39691 0.0
C249 C 0.3174 0.12711 0.35714 0.0
C250 C 0.29203 0.09982 0.19574 0.0
C251 C 0.31088 0.10716 0.18704 0.0
C252 C 0.53601 0.3128 0.3942 0.0
C253 C 0.52785 0.30579 0.43936 0.0
C254 C 0.52658 0.28664 0.44654 0.0
C255 C 0.53103 0.27472 0.40604 0.0
H256 H 0.49376 0.23434 0.33846 0.0
H257 H 0.49042 0.20418 0.37985 0.0
H258 H 0.53413 0.18046 0.27784 0.0
H259 H 0.53744 0.21091 0.23571 0.0
H260 H 0.50441 0.26286 0.13732 0.0
H261 H 0.4977 0.28386 0.06429 0.0
H262 H 0.53627 0.32408 0.12973 0.0
H263 H 0.54299 0.30362 0.20144 0.0
H264 H 0.5452 0.30695 0.31797 0.0
H265 H 0.53752 0.32762 0.38879 0.0
H266 H 0.5206 0.28108 0.48165 0.0
H267 H 0.5283 0.26008 0.41097 0.0
N268 N 0.52874 0.25309 0.31535 0.0
N269 N 0.5213 0.25234 0.22747 0.0
N270 N 0.53311 0.27941 0.26545 0.0
C271 C 0.52255 0.24366 0.27398 0.0
C272 C 0.52683 0.27042 0.2232 0.0
C273 C 0.53414 0.27089 0.31153 0.0
C274 C 0.51562 0.2248 0.28339 0.0
C275 C 0.5019 0.22247 0.32307 0.0
C276 C 0.5001 0.2053 0.34704 0.0
C277 C 0.51205 0.19017 0.33192 0.0
C278 C 0.52473 0.19203 0.28978 0.0
C279 C 0.52643 0.20931 0.26535 0.0
C280 C 0.52425 0.28147 0.17536 0.0
C281 C 0.51165 0.27606 0.13561 0.0
C282 C 0.50767 0.28811 0.09414 0.0
C283 C 0.51651 0.30555 0.09152 0.0
C284 C 0.52942 0.31066 0.13052 0.0
C285 C 0.53322 0.29885 0.17175 0.0
C286 C 0.53658 0.28198 0.35816 0.0
C287 C 0.54044 0.30096 0.35384 0.0
O288 O 0.00951 0.02554 0.76019 0.0
Mn289 Mn 0.00536 0.00156 0.71496 0.0
O290 O 0.97894 0.03683 0.77506 0.0
Mn291 Mn 0.96658 0.01931 0.73637 0.0
O292 O 0.99985 0.97762 0.67052 0.0
O293 O 0.0334 0.00702 0.68383 0.0
Mn294 Mn 0.04092 0.98338 0.67535 0.0
O295 O 0.0167 0.98559 0.7729 0.0
O296 O 0.0268 0.97212 0.62478 0.0
O297 O 0.99503 0.01734 0.65573 0.0
O298 O 0.96374 0.02544 0.66833 0.0
O299 O 0.06228 -0.00521 0.65459 0.0
O300 O 0.04242 0.97077 0.73652 0.0
C301 C 0.95975 0.99359 0.76555 0.0
C302 C 0.99753 0.03771 0.77995 0.0
C303 C 0.00884 0.96929 0.6337 0.0
C304 C 0.05125 0.00934 0.66428 0.0
C305 C 0.03056 0.97335 0.77355 0.0
C306 C 0.97908 0.0252 0.64082 0.0
O307 O 0.97739 -0.00335 0.746 0.0
O308 O 0.94696 0.0073 0.76603 0.0
O309 O 0.52283 0.00257 0.76602 0.0
Mn310 Mn 0.5025 0.00511 0.70843 0.0
O311 O 0.55001 0.01586 0.7379 0.0
Mn312 Mn 0.53815 0.02748 0.68287 0.0
O313 O 0.48154 0.00798 0.64997 0.0
O314 O 0.49386 0.97884 0.73439 0.0
Mn315 Mn 0.46828 0.98221 0.72139 0.0
O316 O 0.48288 0.01879 0.76071 0.0
O317 O 0.46349 0.98304 0.6531 0.0
O318 O 0.52297 0.99147 0.65604 0.0
O319 O 0.54152 0.01421 0.62406 0.0
O320 O 0.46838 0.95962 0.74708 0.0
O321 O 0.45694 0.00023 0.76257 0.0
C322 C 0.51534 0.04794 0.69428 0.0
C323 C 0.54108 0.006 0.76988 0.0
C324 C 0.46827 -0.00226 0.63096 0.0
C325 C 0.48715 0.96265 0.74989 0.0
C326 C 0.4656 0.01466 0.77745 0.0
C327 C 0.53641 -0.00268 0.6246 0.0
O328 O 0.51195 0.03061 0.6835 0.0
O329 O 0.53389 0.05187 0.69428 0.0
O330 O 0.49691 0.51654 0.77106 0.0
Mn331 Mn 0.50405 0.50053 0.70931 0.0
O332 O 0.46503 0.52353 0.77153 0.0
Mn333 Mn 0.46399 0.51681 0.70399 0.0
O334 O 0.512 0.48419 0.64781 0.0
O335 O 0.53271 0.50641 0.73209 0.0
Mn336 Mn 0.54563 0.48604 0.71208 0.0
O337 O 0.5045 0.47682 0.75596 0.0
O338 O 0.5444 0.48534 0.64211 0.0
O339 O 0.50433 0.52407 0.66105 0.0
O340 O 0.4729 0.53419 0.65825 0.0
O341 O 0.56477 0.49958 0.74008 0.0
O342 O 0.53575 0.46596 0.74853 0.0
C343 C 0.45613 0.49124 0.67786 0.0
C344 C 0.48187 0.52413 0.79195 0.0
C345 C 0.52806 0.48047 0.62417 0.0
C346 C 0.55027 0.51127 0.74803 0.0
C347 C 0.51813 0.46449 0.76534 0.0
C348 C 0.49082 0.53546 0.64465 0.0
O349 O 0.47476 0.49448 0.68965 0.0
O350 O 0.44298 0.50436 0.68499 0.0
O351 O 0.02632 0.48913 0.76227 0.0
Mn352 Mn 0.00478 0.50154 0.71329 0.0
O353 O 0.05247 0.50792 0.75977 0.0
Mn354 Mn 0.04253 0.52451 0.71061 0.0
O355 O 0.98301 0.51387 0.66433 0.0
O356 O 0.99232 0.4754 0.70307 0.0
Mn357 Mn 0.96907 0.48184 0.73127 0.0
O358 O 0.98815 0.50967 0.77542 0.0
O359 O 0.95592 0.49933 0.69011 0.0
O360 O 0.02254 0.49512 0.65057 0.0
O361 O 0.04505 0.51724 0.64343 0.0
O362 O 0.96554 0.45824 0.71673 0.0
O363 O 0.97043 0.48653 0.79981 0.0
C364 C 0.02029 0.5439 0.73539 0.0
C365 C 0.04385 0.49354 0.77654 0.0
C366 C 0.96416 0.51149 0.66227 0.0
C367 C 0.9833 0.45941 0.69866 0.0
C368 C 0.97647 0.50255 0.80749 0.0
C369 C 0.0368 0.50282 0.62673 0.0
O370 O 0.01705 0.52676 0.72324 0.0
O371 O 0.03825 0.54895 0.72779 0.0
H372 H 0.16077 0.10696 0.37108 0.0
H373 H 0.13354 0.09733 0.42632 0.0
H374 H 0.1705 0.0526 0.48609 0.0
H375 H 0.19721 0.0617 0.42879 0.0
H376 H 0.1373 0.03966 0.47357 0.0
H377 H 0.15719 0.09411 0.55953 0.0
H378 H 0.16611 0.12687 0.56949 0.0
H379 H 0.10876 0.14448 0.51575 0.0
H380 H 0.09927 0.11179 0.50669 0.0
H381 H 0.08545 0.02161 0.70008 0.0
H382 H 0.10831 0.03996 0.65017 0.0
H383 H 0.06149 0.055 0.54541 0.0
H384 H 0.03853 0.03582 0.59461 0.0
H385 H 0.09791 0.08385 0.57983 0.0
H386 H 0.0802 0.02402 0.50329 0.0
H387 H 0.07582 0.99016 0.50467 0.0
H388 H 0.13599 0.98174 0.55282 0.0
H389 H 0.14055 0.01559 0.55316 0.0
C390 C 0.16289 0.09494 0.39565 0.0
C391 C 0.18091 0.08485 0.39509 0.0
C392 C 0.14743 0.08958 0.42782 0.0
C393 C 0.14988 0.07434 0.4613 0.0
C394 C 0.16803 0.06433 0.46064 0.0
C395 C 0.1833 0.06946 0.42774 0.0
C396 C 0.13341 0.06831 0.4955 0.0
C397 C 0.12887 0.0494 0.49697 0.0
C398 C 0.12214 0.08085 0.52631 0.0
C399 C 0.12761 0.10052 0.53194 0.0
C400 C 0.14648 0.10498 0.5498 0.0
C401 C 0.15158 0.12353 0.55562 0.0
C402 C 0.13796 0.13774 0.54351 0.0
C403 C 0.11918 0.13343 0.52569 0.0
C404 C 0.11391 0.1149 0.52041 0.0
C405 C 0.07969 0.02966 0.66807 0.0
C406 C 0.06011 0.02736 0.65163 0.0
C407 C 0.09289 0.03995 0.63911 0.0
C408 C 0.08673 0.04857 0.59358 0.0
C409 C 0.06657 0.04835 0.58039 0.0
C410 C 0.05334 0.03765 0.60903 0.0
C411 C 0.10189 0.05535 0.55712 0.0
C412 C 0.10628 0.07428 0.55574 0.0
C413 C 0.11358 0.04273 0.5278 0.0
C414 C 0.11057 0.02239 0.52925 0.0
C415 C 0.09236 0.01499 0.51524 0.0
C416 C 0.08988 -0.00422 0.51547 0.0
C417 C 0.10558 0.98381 0.52907 0.0
C418 C 0.1238 0.99103 0.54253 0.0
C419 C 0.12632 0.01022 0.54263 0.0
H420 H 0.10366 0.96895 0.52893 0.0
H421 H 0.14195 0.1521 0.54783 0.0
H422 H 0.53879 0.18259 0.4061 0.0
H423 H 0.53705 0.15853 0.4724 0.0
H424 H 0.48516 0.13705 0.40009 0.0
H425 H 0.48665 0.16153 0.33467 0.0
H426 H 0.47907 0.1426 0.49949 0.0
H427 H 0.53133 0.11377 0.39846 0.0
H428 H 0.5637 0.11309 0.35518 0.0
H429 H 0.59261 0.1229 0.4982 0.0
H430 H 0.56039 0.12389 0.54225 0.0
H431 H 0.48861 0.04805 0.61553 0.0
H432 H 0.48492 0.07457 0.55697 0.0
H433 H 0.51332 0.10939 0.66675 0.0
H434 H 0.51572 0.08339 0.72651 0.0
H435 H 0.53221 0.09804 0.55269 0.0
H436 H 0.48177 0.12794 0.6537 0.0
H437 H 0.45007 0.13018 0.69965 0.0
H438 H 0.41897 0.12144 0.55901 0.0
H439 H 0.45051 0.11808 0.51299 0.0
C440 C 0.52736 0.17237 0.4038 0.0
C441 C 0.51302 0.1736 0.36513 0.0
C442 C 0.52635 0.15867 0.44165 0.0
C443 C 0.51104 0.14586 0.44112 0.0
C444 C 0.4971 0.14676 0.4013 0.0
C445 C 0.49801 0.16059 0.36375 0.0
C446 C 0.50865 0.13243 0.4839 0.0
C447 C 0.49062 0.13268 0.51052 0.0
C448 C 0.524 0.12001 0.4999 0.0
C449 C 0.54342 0.11905 0.47358 0.0
C450 C 0.54458 0.11588 0.42064 0.0
C451 C 0.5629 0.11544 0.39597 0.0
C452 C 0.58019 0.118 0.4239 0.0
C453 C 0.5792 0.12094 0.47661 0.0
C454 C 0.56091 0.12142 0.50145 0.0
C455 C 0.49271 0.06163 0.62866 0.0
C456 C 0.50272 0.06354 0.67533 0.0
C457 C 0.49103 0.07671 0.59469 0.0
C458 C 0.49931 0.09378 0.60715 0.0
C459 C 0.5069 0.09632 0.65631 0.0
C460 C 0.50795 0.08147 0.69078 0.0
C461 C 0.50246 0.10797 0.56694 0.0
C462 C 0.52068 0.10792 0.54121 0.0
C463 C 0.48747 0.12079 0.55221 0.0
C464 C 0.46851 0.12227 0.58015 0.0
C465 C 0.46819 0.12595 0.63289 0.0
C466 C 0.45023 0.12746 0.65899 0.0
C467 C 0.43248 0.12572 0.6325 0.0
C468 C 0.43268 0.12248 0.57984 0.0
C469 C 0.4506 0.12069 0.55374 0.0
H470 H 0.4186 0.12708 0.65273 0.0
H471 H 0.59436 0.11767 0.40472 0.0
H472 H 0.30948 0.41354 0.47563 0.0
H473 H 0.33659 0.42429 0.52866 0.0
H474 H 0.36843 0.44002 0.39313 0.0
H475 H 0.34125 0.42914 0.33968 0.0
H476 H 0.3923 0.42102 0.4615 0.0
H477 H 0.34592 0.47234 0.46692 0.0
H478 H 0.31341 0.48764 0.48081 0.0
H479 H 0.31474 0.47097 0.63853 0.0
H480 H 0.34714 0.45526 0.62539 0.0
H481 H 0.46361 0.479 0.58109 0.0
H482 H 0.43916 0.46306 0.52931 0.0
H483 H 0.40539 0.45169 0.66512 0.0
H484 H 0.42968 0.46778 0.71647 0.0
H485 H 0.38215 0.46819 0.59713 0.0
H486 H 0.42709 0.41661 0.5935 0.0
H487 H 0.45969 0.40168 0.58322 0.0
H488 H 0.46078 0.418 0.42512 0.0
H489 H 0.4281 0.43355 0.435 0.0
C490 C 0.32227 0.41928 0.45704 0.0
C491 C 0.32322 0.42046 0.40332 0.0
C492 C 0.33772 0.42553 0.48749 0.0
C493 C 0.35457 0.4331 0.46505 0.0
C494 C 0.35559 0.43427 0.4114 0.0
C495 C 0.34 0.42818 0.38087 0.0
C496 C 0.37118 0.43955 0.4976 0.0
C497 C 0.39011 0.43154 0.49062 0.0
C498 C 0.36831 0.45286 0.53685 0.0
C499 C 0.34889 0.46244 0.54501 0.0
C500 C 0.33922 0.47179 0.50447 0.0
C501 C 0.32081 0.48056 0.51222 0.0
C502 C 0.31199 0.48023 0.56048 0.0
C503 C 0.32158 0.47118 0.60114 0.0
C504 C 0.33997 0.46235 0.59357 0.0
C505 C 0.45163 0.47211 0.60021 0.0
C506 C 0.44884 0.47433 0.65308 0.0
C507 C 0.43738 0.46326 0.57044 0.0
C508 C 0.42014 0.45633 0.59302 0.0
C509 C 0.41835 0.45704 0.64646 0.0
C510 C 0.43255 0.46585 0.67606 0.0
C511 C 0.40335 0.44969 0.56094 0.0
C512 C 0.38435 0.45766 0.56803 0.0
C513 C 0.40608 0.43627 0.52204 0.0
C514 C 0.42528 0.42637 0.51512 0.0
C515 C 0.43431 0.41709 0.55657 0.0
C516 C 0.45285 0.40851 0.55078 0.0
C517 C 0.46242 0.40883 0.50345 0.0
C518 C 0.45337 0.41775 0.46177 0.0
C519 C 0.43482 0.42647 0.46744 0.0
H520 H 0.4768 0.40216 0.49897 0.0
H521 H 0.29774 0.48702 0.5664 0.0
H522 H 0.03609 0.33097 0.36971 0.0
H523 H 0.03777 0.35646 0.43165 0.0
H524 H 0.97412 0.35927 0.43873 0.0
H525 H 0.97244 0.3338 0.37736 0.0
H526 H 0.98994 0.39341 0.43272 0.0
H527 H 0.99842 0.33755 0.52883 0.0
H528 H 0.01322 0.30748 0.55564 0.0
H529 H 0.06772 0.33386 0.59019 0.0
H530 H 0.05335 0.36409 0.56265 0.0
H531 H 0.96108 0.43262 0.65864 0.0
H532 H 0.97049 0.40853 0.59922 0.0
H533 H 0.03098 0.42553 0.6048 0.0
H534 H 0.02163 0.44967 0.66863 0.0
H535 H 0.02194 0.38337 0.60159 0.0
H536 H 0.0075 0.44147 0.51019 0.0
H537 H 0.9869 0.46956 0.49337 0.0
H538 H 0.9374 0.43577 0.45857 0.0
H539 H 0.95759 0.40751 0.47596 0.0
C540 C 0.0225 0.33738 0.38365 0.0
C541 C 0.00413 0.33061 0.36854 0.0
C542 C 0.02347 0.35173 0.41945 0.0
C543 C 0.00608 0.35958 0.44018 0.0
C544 C 0.98772 0.35336 0.42329 0.0
C545 C 0.98676 0.33891 0.38812 0.0
C546 C 0.00676 0.37422 0.47973 0.0
C547 C 0.99707 0.39122 0.46947 0.0
C548 C 0.016 0.37132 0.52782 0.0
C549 C 0.02491 0.35306 0.54281 0.0
C550 C 0.01366 0.33691 0.54134 0.0
C551 C 0.02195 0.31984 0.55687 0.0
C552 C 0.04142 0.31874 0.5744 0.0
C553 C 0.05265 0.33472 0.57642 0.0
C554 C 0.04445 0.35183 0.56081 0.0
C555 C 0.97653 0.43128 0.64823 0.0
C556 C 0.99057 0.44371 0.66669 0.0
C557 C 0.98183 0.4174 0.61397 0.0
C558 C 1.00127 0.41558 0.59659 0.0
C559 C 0.01578 0.42701 0.61725 0.0
C560 C 0.01043 0.44097 0.65264 0.0
C561 C 0.00539 0.40257 0.55402 0.0
C562 C 0.01553 0.38573 0.56407 0.0
C563 C 0.99604 0.40532 0.50609 0.0
C564 C 0.98407 0.42237 0.49443 0.0
C565 C 0.99221 0.44003 0.49913 0.0
C566 C 0.98059 0.45599 0.4895 0.0
C567 C 0.96086 0.45445 0.4749 0.0
C568 C 0.95269 0.43695 0.4698 0.0
C569 C 0.96422 0.42096 0.47945 0.0
H570 H 0.95189 0.46682 0.46751 0.0
H571 H 0.04779 0.30553 0.58661 0.0
H572 H 0.8109 0.9302 0.9718 0.0
H573 H 0.83911 0.93793 0.91776 0.0
H574 H 0.87891 0.92087 0.03888 0.0
H575 H 0.8505 0.91387 0.09367 0.0
H576 H 0.89032 0.95214 0.99853 0.0
H577 H 0.86999 0.89352 0.92103 0.0
H578 H 0.84576 0.87348 0.8794 0.0
H579 H 0.83605 0.91452 0.76204 0.0
H580 H 0.86011 0.93481 0.80306 0.0
H581 H 0.97258 0.97269 0.84869 0.0
H582 H 0.95084 0.95278 0.89905 0.0
H583 H 0.90687 0.95709 0.77982 0.0
H584 H 0.92903 0.97541 0.72878 0.0
H585 H 0.89926 0.92858 0.82216 0.0
H586 H 0.91062 0.98844 0.89199 0.0
H587 H 0.92857 0.01447 0.9294 0.0
H588 H 0.94786 0.97949 0.05394 0.0
H589 H 0.93021 0.95319 0.01686 0.0
C590 C 0.8257 0.92832 0.98695 0.0
C591 C 0.82856 0.92172 0.03713 0.0
C592 C 0.84186 0.93244 0.95575 0.0
C593 C 0.86132 0.9296 0.97351 0.0
C594 C 0.86412 0.92312 0.02398 0.0
C595 C 0.84792 0.91924 0.05547 0.0
C596 C 0.8787 0.93434 0.94079 0.0
C597 C 0.89251 0.94663 0.96034 0.0
C598 C 0.88115 0.928 0.88984 0.0
C599 C 0.86679 0.91568 0.86524 0.0
C600 C 0.86263 0.89827 0.88647 0.0
C601 C 0.84894 0.88687 0.86293 0.0
C602 C 0.83936 0.89273 0.81815 0.0
C603 C 0.84348 0.90999 0.79669 0.0
C604 C 0.85717 0.92141 0.81998 0.0
C605 C 0.95878 0.96841 0.83215 0.0
C606 C 0.95257 0.97557 0.78458 0.0
C607 C 0.94604 0.95743 0.86156 0.0
C608 C 0.92663 0.95402 0.84468 0.0
C609 C 0.92151 0.95948 0.79467 0.0
C610 C 0.93436 0.96992 0.765 0.0
C611 C 0.91096 0.94661 0.87972 0.0
C612 C 0.8974 0.93384 0.86068 0.0
C613 C 0.90804 0.95333 0.93022 0.0
C614 C 0.91941 0.9688 0.95125 0.0
C615 C 0.91891 0.98626 0.92701 0.0
C616 C 0.92897 0.00106 0.94821 0.0
C617 C 0.93942 -0.00139 0.9939 0.0
C618 C 0.93983 0.98134 0.01845 0.0
C619 C 0.92983 0.96648 0.99734 0.0
H620 H 0.94713 0.01011 0.01039 0.0
H621 H 0.82876 0.88389 0.80004 0.0
H622 H 0.51626 0.83883 0.09445 0.0
H623 H 0.52137 0.8639 0.03321 0.0
H624 H 0.46513 0.85346 0.96364 0.0
H625 H 0.45913 0.8292 0.02675 0.0
H626 H 0.50255 0.85434 0.89571 0.0
H627 H 0.4632 0.88847 0.02149 0.0
H628 H 0.45641 0.89812 0.11025 0.0
H629 H 0.51335 0.92281 0.11875 0.0
H630 H 0.52057 0.91305 0.0302 0.0
H631 H 0.48697 0.92744 0.72116 0.0
H632 H 0.49027 0.90179 0.77884 0.0
H633 H 0.51987 0.93665 0.88755 0.0
H634 H 0.51038 0.96351 0.8355 0.0
H635 H 0.49911 0.92117 0.93897 0.0
H636 H 0.53832 0.88899 0.80702 0.0
H637 H 0.54479 0.87797 0.71919 0.0
H638 H 0.4907 0.84817 0.72104 0.0
H639 H 0.48386 0.85905 0.80859 0.0
C640 C 0.50464 0.84219 0.06733 0.0
C641 C 0.48732 0.8318 0.06557 0.0
C642 C 0.50777 0.85634 0.03183 0.0
C643 C 0.49379 0.86019 0.99355 0.0
C644 C 0.47621 0.8504 0.99253 0.0
C645 C 0.47285 0.83654 0.02868 0.0
C646 C 0.49751 0.87454 0.95457 0.0
C647 C 0.50193 0.86904 0.90459 0.0
C648 C 0.49709 0.8935 0.96701 0.0
C649 C 0.49249 0.8999 0.01951 0.0
C650 C 0.47431 0.89587 0.04242 0.0
C651 C 0.47037 0.90137 0.09265 0.0
C652 C 0.48446 0.91103 0.12017 0.0
C653 C 0.50246 0.91531 0.09741 0.0
C654 C 0.50647 0.90982 0.04719 0.0
C655 C 0.49483 0.92952 0.75671 0.0
C656 C 0.49918 0.94751 0.77268 0.0
C657 C 0.49713 0.91449 0.78993 0.0
C658 C 0.50595 0.91656 0.83821 0.0
C659 C 0.51276 0.93432 0.85119 0.0
C660 C 0.50829 0.94976 0.8202 0.0
C661 C 0.50494 0.90144 0.87791 0.0
C662 C 0.50069 0.90666 0.92883 0.0
C663 C 0.50588 0.88211 0.86612 0.0
C664 C 0.5106 0.87486 0.81439 0.0
C665 C 0.52787 0.88003 0.78875 0.0
C666 C 0.53157 0.87383 0.73897 0.0
C667 C 0.51816 0.86239 0.71456 0.0
C668 C 0.5011 0.857 0.74 0.0
C669 C 0.49734 0.86311 0.78976 0.0
H670 H 0.521 0.85771 0.67593 0.0
H671 H 0.48141 0.91524 0.1591 0.0
H672 H 0.66269 0.57165 0.09119 0.0
H673 H 0.63288 0.5654 0.04175 0.0
H674 H 0.66133 0.58466 0.90467 0.0
H675 H 0.69093 0.59136 0.95404 0.0
H676 H 0.62286 0.59444 0.90151 0.0
H677 H 0.66058 0.53939 0.92852 0.0
H678 H 0.67991 0.51645 0.97913 0.0
H679 H 0.62815 0.50346 0.06564 0.0
H680 H 0.60854 0.5266 0.01601 0.0
H681 H 0.57166 0.54017 0.71736 0.0
H682 H 0.59278 0.55796 0.7731 0.0
H683 H 0.56275 0.53624 0.90497 0.0
H684 H 0.54209 0.51775 0.8486 0.0
H685 H 0.60083 0.52945 0.91303 0.0
H686 H 0.56309 0.58571 0.86772 0.0
H687 H 0.5479 0.60751 0.80529 0.0
H688 H 0.60465 0.61604 0.73706 0.0
H689 H 0.62012 0.5942 0.79884 0.0
C690 C 0.66249 0.57486 0.05072 0.0
C691 C 0.67939 0.58169 0.02658 0.0
C692 C 0.64544 0.5712 0.02234 0.0
C693 C 0.64486 0.57426 0.96912 0.0
C694 C 0.66133 0.58207 0.94549 0.0
C695 C 0.67837 0.58569 0.97379 0.0
C696 C 0.62786 0.56784 0.93765 0.0
C697 C 0.61802 0.58024 0.90405 0.0
C698 C 0.62165 0.54924 0.94002 0.0
C699 C 0.63314 0.53486 0.96893 0.0
C700 C 0.65333 0.53171 0.95851 0.0
C701 C 0.66435 0.51868 0.98702 0.0
C702 C 0.65528 0.50855 0.02569 0.0
C703 C 0.63515 0.51136 0.03572 0.0
C704 C 0.62407 0.52442 0.0074 0.0
C705 C 0.56876 0.54004 0.7581 0.0
C706 C 0.55479 0.52793 0.77835 0.0
C707 C 0.58103 0.55015 0.79024 0.0
C708 C 0.57949 0.54863 0.84371 0.0
C709 C 0.56433 0.53775 0.86398 0.0
C710 C 0.55219 0.52744 0.83167 0.0
C711 C 0.59523 0.55618 0.8778 0.0
C712 C 0.60518 0.54382 0.91142 0.0
C713 C 0.60197 0.57464 0.8738 0.0
C714 C 0.59274 0.58829 0.8379 0.0
C715 C 0.57231 0.59224 0.83941 0.0
C716 C 0.56366 0.6046 0.80413 0.0
C717 C 0.57531 0.61316 0.76726 0.0
C718 C 0.59565 0.60944 0.76572 0.0
C719 C 0.60437 0.59712 0.80097 0.0
H720 H 0.56859 0.62269 0.73988 0.0
H721 H 0.66383 0.49849 0.04781 0.0
H722 H 0.99429 0.65344 0.1143 0.0
H723 H 0.9934 0.62716 0.05476 0.0
H724 H 0.0046 0.66425 0.92871 0.0
H725 H 0.00493 0.69044 0.9878 0.0
H726 H 0.97617 0.64218 0.90363 0.0
H727 H 0.04089 0.63351 0.97384 0.0
H728 H 0.06578 0.63003 0.04221 0.0
H729 H 0.03747 0.58117 0.09711 0.0
H730 H 0.0123 0.58446 0.02921 0.0
H731 H 0.01105 0.57954 0.71346 0.0
H732 H 1.00202 0.60333 0.77546 0.0
H733 H 0.99241 0.56097 0.88915 0.0
H734 H 1.0027 0.53717 0.82742 0.0
H735 H 0.01705 0.58462 0.9245 0.0
H736 H 0.95271 0.59407 0.84437 0.0
H737 H 0.93013 0.59919 0.77144 0.0
H738 H 0.96102 0.64828 0.72928 0.0
H739 H 0.98375 0.64346 0.80206 0.0
C740 C 0.99666 0.65588 0.07391 0.0
C741 C 0.99948 0.67395 0.05557 0.0
C742 C 0.99621 0.64088 0.03989 0.0
C743 C 0.99896 0.64366 0.98706 0.0
C744 C 1.00222 0.66171 0.96907 0.0
C745 C 1.00243 0.67667 0.00287 0.0
C746 C 0.99799 0.62793 0.95019 0.0
C747 C 0.98521 0.62963 0.9081 0.0
C748 C 0.00951 0.6114 0.95609 0.0
C749 C 0.0246 0.60935 0.99686 0.0
C750 C 0.0399 0.6221 0.00074 0.0
C751 C 0.05408 0.62014 0.03932 0.0
C752 C 0.05317 0.60542 0.07408 0.0
C753 C 0.03813 0.59258 0.07019 0.0
C754 C 0.02392 0.59447 0.03163 0.0
C755 C 0.00601 0.57524 0.7509 0.0
C756 C 0.00697 0.5564 0.76493 0.0
C757 C 1.00086 0.58892 0.78662 0.0
C758 C 0.99631 0.58411 0.83732 0.0
C759 C 0.99575 0.56514 0.85033 0.0
C760 C 1.00118 0.55143 0.8146 0.0
C761 C 0.99514 0.59877 0.87775 0.0
C762 C 0.00768 0.59696 0.92048 0.0
C763 C 0.98369 0.61538 0.87185 0.0
C764 C 0.96998 0.61832 0.82836 0.0
C765 C 0.95473 0.60589 0.81936 0.0
C766 C 0.94188 0.60877 0.77812 0.0
C767 C 0.94418 0.62401 0.74559 0.0
C768 C 0.95925 0.63648 0.75446 0.0
C769 C 0.97206 0.63373 0.79581 0.0
H770 H 0.93426 0.62617 0.71358 0.0
H771 H 0.06415 0.60393 0.10396 0.0
H772 H 0.02639 0.18689 0.55076 0.0
H773 H 0.01355 0.15884 0.59149 0.0
H774 H 0.97688 0.1499 0.4591 0.0
H775 H 0.98806 0.17848 0.4217 0.0
H776 H 0.96306 0.13093 0.52852 0.0
H777 H 0.03505 0.13933 0.47238 0.0
H778 H 0.06712 0.15378 0.48925 0.0
H779 H 0.06591 0.13388 0.64417 0.0
H780 H 0.03388 0.11942 0.62821 0.0
H781 H 0.97066 0.03224 0.53899 0.0
H782 H 0.97874 0.06131 0.49335 0.0
H783 H 0.00447 0.08237 0.63214 0.0
H784 H 0.99644 0.05419 0.67638 0.0
H785 H 0.02476 0.09286 0.54767 0.0
H786 H 0.95528 0.09187 0.61782 0.0
H787 H 0.92463 0.07401 0.61833 0.0
H788 H 0.9224 0.07659 0.45435 0.0
H789 H 0.9531 0.0944 0.4531 0.0
C790 C 0.01488 0.17931 0.53197 0.0
C791 C 0.00879 0.18403 0.48239 0.0
C792 C 0.00769 0.16325 0.55478 0.0
C793 C 0.99541 0.15162 0.52648 0.0
C794 C 0.98683 0.15828 0.48107 0.0
C795 C 0.99338 0.17452 0.45937 0.0
C796 C 0.99484 0.13147 0.5362 0.0
C797 C 0.97661 0.12269 0.53237 0.0
C798 C 0.01246 0.12051 0.5411 0.0
C799 C 0.03209 0.1285 0.54924 0.0
C800 C 0.04173 0.13799 0.50988 0.0
C801 C 0.05984 0.14621 0.51936 0.0
C802 C 0.06846 0.14485 0.56785 0.0
C803 C 0.05918 0.135 0.60673 0.0
C804 C 0.04108 0.12679 0.5975 0.0
C805 C 0.97802 0.04324 0.55893 0.0
C806 C 0.98253 0.04158 0.6109 0.0
C807 C 0.98291 0.05951 0.53304 0.0
C808 C 0.99225 0.07378 0.55964 0.0
C809 C 0.99754 0.07142 0.61084 0.0
C810 C 0.99256 0.05554 0.63631 0.0
C811 C 0.99317 0.09266 0.53973 0.0
C812 C 0.01139 0.10125 0.54176 0.0
C813 C 0.97563 0.10341 0.53454 0.0
C814 C 0.95616 0.09467 0.5354 0.0
C815 C 0.94799 0.08889 0.58201 0.0
C816 C 0.93074 0.07867 0.58241 0.0
C817 C 0.92152 0.07424 0.5364 0.0
C818 C 0.92949 0.08013 0.48994 0.0
C819 C 0.94676 0.09034 0.48936 0.0
H820 H 0.90824 0.0662 0.53675 0.0
H821 H 0.08231 0.15145 0.57544 0.0
H822 H 0.31691 0.09481 0.51334 0.0
H823 H 0.3412 0.07308 0.5492 0.0
H824 H 0.38821 0.10753 0.49675 0.0
H825 H 0.36395 0.13014 0.46285 0.0
H826 H 0.38052 0.06351 0.45806 0.0
H827 H 0.39307 0.10729 0.60105 0.0
H828 H 0.38035 0.12681 0.67158 0.0
H829 H 0.35205 0.07966 0.73707 0.0
H830 H 0.36479 0.05991 0.6668 0.0
H831 H 0.47284 0.0258 0.56162 0.0
H832 H 0.44601 0.04682 0.53233 0.0
H833 H 0.40316 0.01116 0.60098 0.0
H834 H 0.42941 0.98986 0.62824 0.0
H835 H 0.40678 0.05397 0.63353 0.0
H836 H 0.39077 0.00992 0.50575 0.0
H837 H 0.40125 0.9864 0.44248 0.0
H838 H 0.42916 0.02845 0.35322 0.0
H839 H 0.4191 0.0522 0.41669 0.0
C840 C 0.33232 0.09838 0.51146 0.0
C841 C 0.33849 0.1141 0.48411 0.0
C842 C 0.34617 0.08573 0.53132 0.0
C843 C 0.36628 0.08859 0.52396 0.0
C844 C 0.3726 0.10508 0.50162 0.0
C845 C 0.35875 0.11795 0.48252 0.0
C846 C 0.38057 0.07363 0.53572 0.0
C847 C 0.38647 0.06155 0.49623 0.0
C848 C 0.38724 0.07053 0.58604 0.0
C849 C 0.37997 0.08219 0.62889 0.0
C850 C 0.38421 0.10113 0.63059 0.0
C851 C 0.37697 0.11222 0.67044 0.0
C852 C 0.36535 0.10449 0.70875 0.0
C853 C 0.361 0.08564 0.70729 0.0
C854 C 0.3683 0.07449 0.66754 0.0
C855 C 0.45767 0.02218 0.56878 0.0
C856 C 0.45326 0.00645 0.59781 0.0
C857 C 0.44245 0.0342 0.55261 0.0
C858 C 0.42288 0.03057 0.56599 0.0
C859 C 0.4183 0.01414 0.5911 0.0
C860 C 0.43337 0.00191 0.60593 0.0
C861 C 0.40727 0.04441 0.55566 0.0
C862 C 0.40087 0.05604 0.59544 0.0
C863 C 0.39943 0.04657 0.50624 0.0
C864 C 0.40422 0.0328 0.46587 0.0
C865 C 0.39913 0.01414 0.47257 0.0
C866 C 0.40502 0.00077 0.43679 0.0
C867 C 0.41588 0.00593 0.39385 0.0
C868 C 0.42073 0.0245 0.38649 0.0
C869 C 0.4149 0.03793 0.42231 0.0
H870 H 0.42052 -0.00445 0.36627 0.0
H871 H 0.35978 0.11309 0.73963 0.0
H872 H 0.53747 0.31214 0.53884 0.0
H873 H 0.52816 0.34034 0.58642 0.0
H874 H 0.48819 0.35688 0.46533 0.0
H875 H 0.49716 0.32877 0.41837 0.0
H876 H 0.53322 0.37269 0.48855 0.0
H877 H 0.46512 0.36339 0.53967 0.0
H878 H 0.43829 0.34786 0.58527 0.0
H879 H 0.46717 0.35735 0.72859 0.0
H880 H 0.49431 0.37281 0.68358 0.0
H881 H 0.5059 0.47007 0.54268 0.0
H882 H 0.49906 0.43753 0.52124 0.0
H883 H 0.54071 0.41879 0.63625 0.0
H884 H 0.54877 0.45067 0.65452 0.0
H885 H 0.49265 0.40424 0.62196 0.0
H886 H 0.56359 0.40475 0.5687 0.0
H887 H 0.58967 0.42372 0.5307 0.0
H888 H 0.55446 0.432 0.39562 0.0
H889 H 0.52793 0.41344 0.43367 0.0
C890 C 0.52596 0.32136 0.52395 0.0
C891 C 0.51831 0.31879 0.47487 0.0
C892 C 0.52052 0.33729 0.55119 0.0
C893 C 0.50748 0.35047 0.52914 0.0
C894 C 0.49798 0.34662 0.48312 0.0
C895 C 0.50334 0.33077 0.45611 0.0
C896 C 0.50942 0.36989 0.54297 0.0
C897 C 0.52412 0.37962 0.51718 0.0
C898 C 0.49786 0.37862 0.5811 0.0
C899 C 0.48196 0.36886 0.60817 0.0
C900 C 0.46596 0.36181 0.58078 0.0
C901 C 0.45062 0.35317 0.60656 0.0
C902 C 0.45109 0.3515 0.65977 0.0
C903 C 0.46687 0.35858 0.68734 0.0
C904 C 0.48222 0.36732 0.66172 0.0
C905 C 0.51414 0.4589 0.5614 0.0
C906 C 0.52823 0.46268 0.59883 0.0
C907 C 0.50986 0.44053 0.55041 0.0
C908 C 0.51914 0.42614 0.57834 0.0
C909 C 0.5334 0.42991 0.61494 0.0
C910 C 0.5383 0.44806 0.62422 0.0
C911 C 0.51568 0.40691 0.56584 0.0
C912 C 0.50131 0.3972 0.59266 0.0
C913 C 0.52748 0.39804 0.52877 0.0
C914 C 0.5439 0.40772 0.5038 0.0
C915 C 0.56149 0.41055 0.53077 0.0
C916 C 0.57628 0.42131 0.50941 0.0
C917 C 0.57373 0.42905 0.46073 0.0
C918 C 0.5564 0.42598 0.4333 0.0
C919 C 0.54148 0.41537 0.45476 0.0
H920 H 0.58517 0.43742 0.44428 0.0
H921 H 0.43919 0.34481 0.67967 0.0
H922 H 0.19017 0.4189 0.47416 0.0
H923 H 0.16548 0.44043 0.50845 0.0
H924 H 0.13377 0.39444 0.572 0.0
H925 H 0.15794 0.37269 0.53348 0.0
H926 H 0.11183 0.41276 0.51043 0.0
H927 H 0.15646 0.43249 0.64267 0.0
H928 H 0.18745 0.44454 0.67712 0.0
H929 H 0.17937 0.49441 0.58847 0.0
H930 H 0.1485 0.48259 0.55287 0.0
H931 H 0.03221 0.46669 0.6028 0.0
H932 H 0.0596 0.44604 0.58205 0.0
H933 H 0.09376 0.49305 0.53536 0.0
H934 H 0.06726 0.51388 0.56513 0.0
H935 H 0.11523 0.47438 0.59246 0.0
H936 H 0.07384 0.45597 0.45489 0.0
H937 H 0.04326 0.4454 0.41446 0.0
H938 H 0.04761 0.39434 0.49911 0.0
H939 H 0.07739 0.40502 0.54252 0.0
C940 C 0.17834 0.41347 0.4973 0.0
C941 C 0.17582 0.39427 0.50153 0.0
C942 C 0.16428 0.42581 0.51724 0.0
C943 C 0.14778 0.41912 0.54317 0.0
C944 C 0.1464 0.39989 0.55202 0.0
C945 C 0.16018 0.38748 0.53043 0.0
C946 C 0.13034 0.43156 0.55116 0.0
C947 C 0.11248 0.42608 0.52948 0.0
C948 C 0.13154 0.44945 0.57294 0.0
C949 C 0.15015 0.45656 0.59479 0.0
C950 C 0.16136 0.44595 0.63011 0.0
C951 C 0.1789 0.45277 0.64997 0.0
C952 C 0.18539 0.47021 0.63491 0.0
C953 C 0.17433 0.4809 0.60012 0.0
C954 C 0.15678 0.47416 0.58019 0.0
C955 C 0.04546 0.47259 0.58783 0.0
C956 C 0.04802 0.49179 0.58878 0.0
C957 C 0.06113 0.46073 0.57495 0.0
C958 C 0.079 0.46789 0.55741 0.0
C959 C 0.08033 0.48715 0.55004 0.0
C960 C 0.06501 0.49906 0.56608 0.0
C961 C 0.0967 0.45553 0.55168 0.0
C962 C 0.11458 0.46104 0.57358 0.0
C963 C 0.09578 0.43785 0.52863 0.0
C964 C 0.07784 0.43137 0.50219 0.0
C965 C 0.06812 0.44258 0.4654 0.0
C966 C 0.05083 0.43662 0.44223 0.0
C967 C 0.04337 0.41928 0.45457 0.0
C968 C 0.05317 0.40788 0.49019 0.0
C969 C 0.07023 0.41391 0.51423 0.0
H970 H 0.03009 0.41463 0.43619 0.0
H971 H 0.19899 0.47545 0.65026 0.0
H972 H 0.99145 0.83401 0.03398 0.0
H973 H 0.9824 0.86368 0.99569 0.0
H974 H 0.99608 0.84156 0.84622 0.0
H975 H 0.00631 0.81191 0.8854 0.0
H976 H 0.02235 0.86409 0.8736 0.0
H977 H 0.95177 0.86867 0.87514 0.0
H978 H 0.91726 0.8685 0.90515 0.0
H979 H 0.93057 0.9084 0.02074 0.0
H980 H 0.96521 0.90861 0.99201 0.0
H981 H 0.02169 0.94132 0.73501 0.0
H982 H 0.00842 0.91497 0.77928 0.0
H983 H 0.01663 0.94226 0.9242 0.0
H984 H 0.02817 0.97016 0.87826 0.0
H985 H 0.97937 0.91954 0.90616 0.0
H986 H 0.05107 0.91429 0.89784 0.0
H987 H 0.08141 0.91972 0.84837 0.0
H988 H 0.06205 0.88256 0.73187 0.0
H989 H 0.03148 0.8771 0.78028 0.0
C990 C 0.99194 0.83536 0.99273 0.0
C991 C 1.0005 0.82124 0.96257 0.0
C992 C 0.98631 0.85221 0.97072 0.0
C993 C 0.98907 0.85498 0.91827 0.0
C994 C 0.99415 0.8397 0.88703 0.0
C995 C 1.00016 0.82286 0.90927 0.0
C996 C 0.99369 0.87382 0.9008 0.0
C997 C 0.01266 0.87605 0.88023 0.0
C998 C 0.98163 0.88967 0.91187 0.0
C999 C 0.96118 0.88845 0.93177 0.0
C1000 C 0.94744 0.87714 0.90758 0.0
C1001 C 0.92782 0.87712 0.9242 0.0
C1002 C 0.92174 0.88839 0.96492 0.0
C1003 C 0.93529 0.89964 0.9893 0.0
C1004 C 0.95493 0.8997 0.97286 0.0
C1005 C 0.02083 0.94167 0.77636 0.0
C1006 C 0.02664 0.95719 0.80392 0.0
C1007 C 0.01297 0.92682 0.80138 0.0
C1008 C 0.01201 0.92673 0.85465 0.0
C1009 C 0.01746 0.9423 0.88286 0.0
C1010 C 0.02444 0.95784 0.85712 0.0
C1011 C 0.00744 0.90921 0.879 0.0
C1012 C 0.98882 0.9073 0.90093 0.0
C1013 C 0.01966 0.89353 0.86912 0.0
C1014 C 0.03906 0.89517 0.84295 0.0
C1015 C 0.05339 0.90713 0.86193 0.0
C1016 C 0.07058 0.91029 0.83394 0.0
C1017 C 0.07367 0.90146 0.78706 0.0
C1018 C 0.05967 0.88932 0.7683 0.0
C1019 C 0.04246 0.88612 0.79612 0.0
H1020 H 0.08691 0.90404 0.76524 0.0
H1021 H 0.9065 0.88845 0.97748 0.0
H1022 H 0.68916 0.91693 0.92363 0.0
H1023 H 0.66218 0.93565 0.8876 0.0
H1024 H 0.6223 0.89076 0.91174 0.0
H1025 H 0.6494 0.87174 0.94841 0.0
H1026 H 0.61852 0.91417 0.81458 0.0
H1027 H 0.62142 0.91757 0.99902 0.0
H1028 H 0.6361 0.92266 0.08385 0.0
H1029 H 0.65079 0.97811 0.04005 0.0
H1030 H 0.63664 0.97319 0.95453 0.0
H1031 H 0.53598 0.97023 0.78356 0.0
H1032 H 0.55789 0.94771 0.82496 0.0
H1033 H 0.59885 0.99129 0.85552 0.0
H1034 H 0.57506 0.01429 0.82049 0.0
H1035 H 0.60013 0.96663 0.92918 0.0
H1036 H 0.60483 0.96326 0.74583 0.0
H1037 H 0.59246 0.96074 0.65794 0.0
H1038 H 0.5657 0.90902 0.69518 0.0
H1039 H 0.57822 0.91116 0.78361 0.0
C1040 C 0.6749 0.91067 0.91926 0.0
C1041 C 0.67129 0.89292 0.9391 0.0
C1042 C 0.65947 0.9215 0.89934 0.0
C1043 C 0.64036 0.91463 0.89856 0.0
C1044 C 0.63705 0.89623 0.91288 0.0
C1045 C 0.65248 0.8854 0.93343 0.0
C1046 C 0.62377 0.92731 0.88683 0.0
C1047 C 0.6142 0.92545 0.83993 0.0
C1048 C 0.61877 0.9423 0.91953 0.0
C1049 C 0.62825 0.94488 0.97003 0.0
C1050 C 0.62813 0.93071 0.00709 0.0
C1051 C 0.63628 0.9336 0.05541 0.0
C1052 C 0.64444 0.95067 0.06727 0.0
C1053 C 0.64453 0.96487 0.03078 0.0
C1054 C 0.63649 0.96202 0.98235 0.0
C1055 C 0.54866 0.97514 0.80382 0.0
C1056 C 0.55312 0.99397 0.80268 0.0
C1057 C 0.56167 0.96223 0.82512 0.0
C1058 C 0.58011 0.96783 0.84224 0.0
C1059 C 0.58458 0.98677 0.84251 0.0
C1060 C 0.57107 -0.00015 0.82277 0.0
C1061 C 0.59513 0.95373 0.85654 0.0
C1062 C 0.60434 0.95527 0.90398 0.0
C1063 C 0.60017 0.93874 0.82385 0.0
C1064 C 0.59235 0.93743 0.7712 0.0
C1065 C 0.59623 0.9514 0.73529 0.0
C1066 C 0.58921 0.95002 0.68533 0.0
C1067 C 0.57821 0.93477 0.67084 0.0
C1068 C 0.57424 0.92082 0.7064 0.0
C1069 C 0.58137 0.92206 0.7564 0.0
H1070 H 0.57283 0.93371 0.63206 0.0
H1071 H 0.65062 0.95292 0.10481 0.0
H1072 H 0.52763 0.68526 0.92012 0.0
H1073 H 0.52328 0.65545 0.8773 0.0
H1074 H 0.46388 0.65322 0.93611 0.0
H1075 H 0.46831 0.68283 0.97968 0.0
H1076 H 0.50591 0.62471 0.96487 0.0
H1077 H 0.44649 0.63225 0.81609 0.0
H1078 H 0.43371 0.65568 0.75449 0.0
H1079 H 0.49255 0.67453 0.72889 0.0
H1080 H 0.50563 0.65116 0.7901 0.0
H1081 H 0.45602 0.54073 0.85916 0.0
H1082 H 0.45948 0.57233 0.89249 0.0
H1083 H 0.51854 0.57388 0.83127 0.0
H1084 H 0.51561 0.54267 0.79986 0.0
H1085 H 0.47689 0.60271 0.80236 0.0
H1086 H 0.5326 0.57978 0.91751 0.0
H1087 H 0.54294 0.55502 0.97794 0.0
H1088 H 0.49161 0.56665 0.06999 0.0
H1089 H 0.48083 0.59127 0.00935 0.0
C1090 C 0.51334 0.67884 0.92143 0.0
C1091 C 0.49833 0.68597 0.95296 0.0
C1092 C 0.51095 0.66184 0.89761 0.0
C1093 C 0.49342 0.65231 0.90466 0.0
C1094 C 0.47748 0.66058 0.93068 0.0
C1095 C 0.47994 0.67747 0.95492 0.0
C1096 C 0.49285 0.63266 0.89237 0.0
C1097 C 0.49975 0.61985 0.92921 0.0
C1098 C 0.48455 0.62663 0.84634 0.0
C1099 C 0.47697 0.64006 0.80774 0.0
C1100 C 0.45668 0.64132 0.79701 0.0
C1101 C 0.44939 0.65462 0.7623 0.0
C1102 C 0.46231 0.66661 0.73787 0.0
C1103 C 0.48255 0.66531 0.74803 0.0
C1104 C 0.48989 0.6521 0.78287 0.0
C1105 C 0.47001 0.54754 0.85512 0.0
C1106 C 0.48558 0.53921 0.82744 0.0
C1107 C 0.47186 0.56554 0.87337 0.0
C1108 C 0.48914 0.57517 0.86339 0.0
C1109 C 0.50518 0.56643 0.83936 0.0
C1110 C 0.50354 0.54843 0.82227 0.0
C1111 C 0.49015 0.59484 0.87458 0.0
C1112 C 0.48318 0.60761 0.83783 0.0
C1113 C 0.49865 0.60086 0.92035 0.0
C1114 C 0.50598 0.58736 0.95915 0.0
C1115 C 0.5236 0.5771 0.9508 0.0
C1116 C 0.52949 0.56305 0.98492 0.0
C1117 C 0.51795 0.55927 0.02782 0.0
C1118 C 0.50055 0.56962 0.03679 0.0
C1119 C 0.49456 0.58363 0.00258 0.0
H1120 H 0.52246 0.54832 0.05408 0.0
H1121 H 0.45663 0.6769 0.71105 0.0
H1122 H 0.84821 0.60111 0.02217 0.0
H1123 H 0.87334 0.58053 0.98687 0.0
H1124 H 0.85754 0.59827 0.8342 0.0
H1125 H 0.83143 0.61907 0.87006 0.0
H1126 H 0.86342 0.55883 0.84567 0.0
H1127 H 0.90072 0.61311 0.87417 0.0
H1128 H 0.91335 0.64071 0.91765 0.0
H1129 H 0.93246 0.60682 0.04459 0.0
H1130 H 0.91986 0.57906 0.00196 0.0
H1131 H 0.96434 0.53546 0.7688 0.0
H1132 H 0.93489 0.55299 0.79239 0.0
H1133 H 0.92618 0.51663 0.92134 0.0
H1134 H 0.95545 0.49781 0.89577 0.0
H1135 H 0.93137 0.56441 0.91397 0.0
H1136 H 0.89729 0.50827 0.86789 0.0
H1137 H 0.89081 0.48289 0.80801 0.0
H1138 H 0.86831 0.52224 0.69761 0.0
H1139 H 0.87506 0.54781 0.75688 0.0
C1140 C 0.85036 0.60112 0.98112 0.0
C1141 C 0.83837 0.61219 0.94886 0.0
C1142 C 0.86459 0.58917 0.96099 0.0
C1143 C 0.86745 0.58815 0.90814 0.0
C1144 C 0.85551 0.59903 0.87522 0.0
C1145 C 0.84088 0.61099 0.89559 0.0
C1146 C 0.88323 0.5756 0.88925 0.0
C1147 C 0.87837 0.5601 0.8598 0.0
C1148 C 0.90261 0.5773 0.90814 0.0
C1149 C 0.90919 0.59408 0.93513 0.0
C1150 C 0.90738 0.61161 0.91165 0.0
C1151 C 0.91463 0.62726 0.93603 0.0
C1152 C 0.92367 0.62553 0.98389 0.0
C1153 C 0.92545 0.60815 0.00754 0.0
C1154 C 0.91829 0.59246 0.98327 0.0
C1155 C 0.95648 0.53126 0.80287 0.0
C1156 C 0.96236 0.51543 0.83127 0.0
C1157 C 0.93938 0.54104 0.8153 0.0
C1158 C 0.92814 0.53548 0.857 0.0
C1159 C 0.93449 0.52051 0.88775 0.0
C1160 C 0.95135 0.51016 0.87409 0.0
C1161 C 0.91152 0.54743 0.87187 0.0
C1162 C 0.91635 0.56299 0.9002 0.0
C1163 C 0.8925 0.54589 0.8502 0.0
C1164 C 0.88745 0.53017 0.81607 0.0
C1165 C 0.89142 0.51161 0.83048 0.0
C1166 C 0.88754 0.49711 0.79679 0.0
C1167 C 0.87936 0.50095 0.74876 0.0
C1168 C 0.87482 0.51926 0.73462 0.0
C1169 C 0.87871 0.53376 0.76823 0.0
H1170 H 0.87639 0.48972 0.72272 0.0
H1171 H 0.92933 0.63765 0.00261 0.0
H1172 H 0.02753 0.16387 0.11073 0.0
H1173 H 0.02946 0.13867 0.04877 0.0
H1174 H 0.99011 0.1695 0.94827 0.0
H1175 H 0.9882 0.19501 0.01084 0.0
H1176 H 0.97907 0.13279 0.96465 0.0
H1177 H 0.03749 0.16421 0.9149 0.0
H1178 H 0.06904 0.17951 0.93073 0.0
H1179 H 0.0935 0.12891 0.99411 0.0
H1180 H 0.062 0.11335 0.9792 0.0
H1181 H 0.98587 0.0727 0.75884 0.0
H1182 H 0.9909 0.1004 0.80969 0.0
H1183 H 0.02922 0.06898 0.91136 0.0
H1184 H 0.02429 0.04087 0.85949 0.0
H1185 H 0.04161 0.10635 0.89336 0.0
H1186 H 0.98388 0.0752 0.94737 0.0
H1187 H 0.952 0.05976 0.93873 0.0
H1188 H 0.926 0.10949 0.87405 0.0
H1189 H 0.95784 0.12515 0.8816 0.0
C1190 C 0.01943 0.16536 0.07519 0.0
C1191 C 0.00767 0.18135 0.06556 0.0
C1192 C 0.02063 0.15099 0.03969 0.0
C1193 C 0.01006 0.15222 0.99367 0.0
C1194 C 0.99846 0.1683 0.98348 0.0
C1195 C 0.99743 0.18287 0.01898 0.0
C1196 C 0.01042 0.13616 0.95801 0.0
C1197 C 0.99269 0.12725 0.94819 0.0
C1198 C 0.02829 0.12847 0.9382 0.0
C1199 C 0.04737 0.13765 0.94616 0.0
C1200 C 0.04958 0.15637 0.93241 0.0
C1201 C 0.06745 0.16508 0.94119 0.0
C1202 C 0.08326 0.15519 0.96347 0.0
C1203 C 0.08124 0.13655 0.97684 0.0
C1204 C 0.0634 0.12776 0.96813 0.0
C1205 C 0.99576 0.07174 0.79135 0.0
C1206 C 0.00465 0.05462 0.80529 0.0
C1207 C 0.99854 0.08759 0.82055 0.0
C1208 C 0.0101 0.08673 0.86493 0.0
C1209 C 0.02016 0.06994 0.8773 0.0
C1210 C 0.01744 0.05393 0.84761 0.0
C1211 C 0.0102 0.10308 0.89966 0.0
C1212 C 0.02798 0.11198 0.90947 0.0
C1213 C 0.99237 0.11072 0.91998 0.0
C1214 C 0.9733 0.10127 0.9145 0.0
C1215 C 0.97142 0.08278 0.93076 0.0
C1216 C 0.95335 0.074 0.92619 0.0
C1217 C 0.937 0.08362 0.90572 0.0
C1218 C 0.93869 0.10205 0.88981 0.0
C1219 C 0.95674 0.11088 0.89424 0.0
H1220 H 0.92301 0.07682 0.90232 0.0
H1221 H 0.09708 0.16198 0.97031 0.0
H1222 H 0.32652 0.05336 0.08219 0.0
H1223 H 0.35366 0.04401 0.02476 0.0
H1224 H 0.3628 0.10138 0.98633 0.0
H1225 H 0.33571 0.11073 0.04353 0.0
H1226 H 0.36934 0.07912 0.9023 0.0
H1227 H 0.39105 0.08261 0.07307 0.0
H1228 H 0.39061 0.07725 0.16613 0.0
H1229 H 0.39875 0.01865 0.1423 0.0
H1230 H 0.39886 0.02362 0.0489 0.0
H1231 H 0.46335 0.05302 0.79296 0.0
H1232 H 0.44099 0.06963 0.85289 0.0
H1233 H 0.42135 0.01725 0.91171 0.0
H1234 H 0.44371 0.0009 0.85393 0.0
H1235 H 0.42271 0.04208 0.98777 0.0
H1236 H 0.39562 0.0415 0.81167 0.0
H1237 H 0.40479 0.04848 0.72276 0.0
H1238 H 0.41207 0.10576 0.7615 0.0
H1239 H 0.40326 0.09896 0.8512 0.0
C1240 C 0.33395 0.06392 0.06042 0.0
C1241 C 0.329 0.08278 0.06765 0.0
C1242 C 0.34959 0.0586 0.02789 0.0
C1243 C 0.36056 0.07201 0.00165 0.0
C1244 C 0.3547 0.09075 0.0061 0.0
C1245 C 0.33921 0.09608 0.03894 0.0
C1246 C 0.37905 0.06658 0.97331 0.0
C1247 C 0.38103 0.07117 0.92124 0.0
C1248 C 0.39471 0.05661 0.99782 0.0
C1249 C 0.39475 0.05347 0.05394 0.0
C1250 C 0.39256 0.06855 0.08763 0.0
C1251 C 0.3924 0.06559 0.14045 0.0
C1252 C 0.39461 0.04761 0.16012 0.0
C1253 C 0.39701 0.03256 0.12698 0.0
C1254 C 0.39713 0.03544 0.07408 0.0
C1255 C 0.4546 0.04514 0.81959 0.0
C1256 C 0.45512 0.02562 0.81803 0.0
C1257 C 0.44168 0.05461 0.85362 0.0
C1258 C 0.42903 0.04471 0.88634 0.0
C1259 C 0.43072 0.0253 0.88698 0.0
C1260 C 0.44349 0.01594 0.85341 0.0
C1261 C 0.41265 0.05392 0.91647 0.0
C1262 C 0.41102 0.0501 0.969 0.0
C1263 C 0.39758 0.06494 0.89275 0.0
C1264 C 0.39889 0.06972 0.83792 0.0
C1265 C 0.39882 0.05564 0.80094 0.0
C1266 C 0.4042 0.05953 0.75058 0.0
C1267 C 0.40932 0.07752 0.73663 0.0
C1268 C 0.40833 0.0918 0.77258 0.0
C1269 C 0.40308 0.08795 0.82314 0.0
H1270 H 0.41394 0.08044 0.69791 0.0
H1271 H 0.3945 0.04535 0.20104 0.0
H1272 H 0.48081 0.32073 0.06125 0.0
H1273 H 0.47553 0.3476 0.00395 0.0
H1274 H 0.53798 0.34761 0.97128 0.0
H1275 H 0.54323 0.32115 0.02875 0.0
H1276 H 0.52484 0.38102 0.00318 0.0
H1277 H 0.50338 0.33504 0.88021 0.0
H1278 H 0.48215 0.30964 0.8526 0.0
H1279 H 0.4306 0.34467 0.87417 0.0
H1280 H 0.45154 0.37023 0.9023 0.0
H1281 H 0.54376 0.43648 0.79389 0.0
H1282 H 0.53762 0.40988 0.84833 0.0
H1283 H 0.47664 0.42745 0.86421 0.0
H1284 H 0.48265 0.4545 0.80907 0.0
H1285 H 0.48254 0.38782 0.84913 0.0
H1286 H 0.50399 0.43491 0.96173 0.0
H1287 H 0.5247 0.4602 0.99253 0.0
H1288 H 0.57535 0.42314 0.9951 0.0
H1289 H 0.555 0.39769 0.9637 0.0
C1290 C 0.49326 0.32621 0.04062 0.0
C1291 C 0.51243 0.31893 0.04934 0.0
C1292 C 0.49026 0.34159 0.00807 0.0
C1293 C 0.50639 0.34974 0.9835 0.0
C1294 C 0.52533 0.34171 0.9901 0.0
C1295 C 0.52832 0.32652 0.02269 0.0
C1296 C 0.50419 0.36747 0.95419 0.0
C1297 C 0.51567 0.38242 0.9693 0.0
C1298 C 0.49152 0.3697 0.91143 0.0
C1299 C 0.47899 0.35447 0.8937 0.0
C1300 C 0.48751 0.33729 0.87927 0.0
C1301 C 0.47553 0.32287 0.86348 0.0
C1302 C 0.45503 0.32553 0.86173 0.0
C1303 C 0.44647 0.34263 0.87555 0.0
C1304 C 0.45839 0.3571 0.89133 0.0
C1305 C 0.52897 0.43483 0.80868 0.0
C1306 C 0.51375 0.44789 0.79734 0.0
C1307 C 0.5255 0.41952 0.83994 0.0
C1308 C 0.50674 0.41675 0.86089 0.0
C1309 C 0.49126 0.42934 0.84857 0.0
C1310 C 0.49475 0.44484 0.81724 0.0
C1311 C 0.50396 0.40095 0.89688 0.0
C1312 C 0.49148 0.38647 0.88338 0.0
C1313 C 0.51563 0.39911 0.94156 0.0
C1314 C 0.52798 0.41442 0.96005 0.0
C1315 C 0.51958 0.4322 0.96845 0.0
C1316 C 0.53125 0.44655 0.98612 0.0
C1317 C 0.55133 0.44329 0.9957 0.0
C1318 C 0.55979 0.42565 0.98767 0.0
C1319 C 0.54819 0.41125 0.97001 0.0
H1320 H 0.56034 0.45441 0.00942 0.0
H1321 H 0.44578 0.31434 0.84958 0.0
H1322 H 0.16871 0.44942 0.11638 0.0
H1323 H 0.14364 0.45887 0.05355 0.0
H1324 H 0.15321 0.40731 0.97306 0.0
H1325 H 0.17895 0.39809 0.03556 0.0
H1326 H 0.14546 0.4356 0.9053 0.0
H1327 H 0.1143 0.41207 0.05325 0.0
H1328 H 0.10888 0.40861 0.14595 0.0
H1329 H 0.09105 0.46608 0.15594 0.0
H1330 H 0.09666 0.46996 0.06336 0.0
H1331 H 0.05367 0.4562 0.77265 0.0
H1332 H 0.07703 0.43904 0.82896 0.0
H1333 H 0.08295 0.48792 0.92156 0.0
H1334 H 0.06012 0.50506 0.86501 0.0
H1335 H 0.08101 0.4553 0.98061 0.0
H1336 H 0.11624 0.47831 0.8319 0.0
H1337 H 0.12035 0.4806 0.73843 0.0
H1338 H 0.12937 0.42152 0.72944 0.0
H1339 H 0.12496 0.41884 0.82293 0.0
C1340 C 0.16575 0.44028 0.08465 0.0
C1341 C 0.17584 0.42309 0.08068 0.0
C1342 C 0.15129 0.44561 0.04891 0.0
C1343 C 0.14612 0.43368 0.00889 0.0
C1344 C 0.15682 0.41679 0.00349 0.0
C1345 C 0.17156 0.41153 0.03912 0.0
C1346 C 0.12882 0.43863 0.97511 0.0
C1347 C 0.13129 0.43957 0.92179 0.0
C1348 C 0.11014 0.44373 0.99608 0.0
C1349 C 0.10596 0.44132 0.05138 0.0
C1350 C 0.10925 0.42398 0.07523 0.0
C1351 C 0.10617 0.42195 0.12776 0.0
C1352 C 0.09964 0.43712 0.15683 0.0
C1353 C 0.09609 0.45434 0.13336 0.0
C1354 C 0.09918 0.45646 0.08083 0.0
C1355 C 0.05963 0.4631 0.80572 0.0
C1356 C 0.05498 0.48195 0.81463 0.0
C1357 C 0.0731 0.45334 0.8377 0.0
C1358 C 0.08193 0.46219 0.87956 0.0
C1359 C 0.07641 0.48073 0.88975 0.0
C1360 C 0.06334 0.49053 0.85737 0.0
C1361 C 0.09784 0.45284 0.91108 0.0
C1362 C 0.09509 0.45105 0.96408 0.0
C1363 C 0.11611 0.44667 0.88969 0.0
C1364 C 0.12 0.44835 0.83419 0.0
C1365 C 0.11906 0.4658 0.80996 0.0
C1366 C 0.12142 0.46717 0.75704 0.0
C1367 C 0.12494 0.4512 0.72807 0.0
C1368 C 0.12651 0.43386 0.75201 0.0
C1369 C 0.12409 0.43241 0.80495 0.0
H1370 H 0.12633 0.45228 0.68707 0.0
H1371 H 0.09731 0.43553 0.19752 0.0
H1372 H 0.01033 0.80706 0.4261 0.0
H1373 H 0.00643 0.8329 0.48711 0.0
H1374 H 0.98404 0.86828 0.36609 0.0
H1375 H 0.98746 0.84266 0.30569 0.0
H1376 H 0.02024 0.88003 0.42515 0.0
H1377 H 0.95246 0.85938 0.44383 0.0
H1378 H 0.92776 0.83601 0.46527 0.0
H1379 H 0.9522 0.83032 0.61614 0.0
H1380 H 0.97717 0.85355 0.59534 0.0
H1381 H 1.00259 0.96641 0.53165 0.0
H1382 H 0.99667 0.93791 0.48424 0.0
H1383 H 0.99218 0.90774 0.62652 0.0
H1384 H 0.99615 0.93671 0.67371 0.0
H1385 H 0.97125 0.89085 0.56354 0.0
H1386 H 0.0373 0.91184 0.55173 0.0
H1387 H 0.06406 0.93352 0.5339 0.0
H1388 H 0.04716 0.93591 0.37579 0.0
H1389 H 0.02008 0.91451 0.39283 0.0
C1390 C 0.0041 0.82021 0.41292 0.0
C1391 C 0.99943 0.82287 0.36092 0.0
C1392 C 1.00195 0.83497 0.44772 0.0
C1393 C 0.99507 0.85255 0.43098 0.0
C1394 C 0.98949 0.85489 0.37974 0.0
C1395 C 0.99151 0.84022 0.34525 0.0
C1396 C 0.99534 0.86907 0.46491 0.0
C1397 C 0.00944 0.88251 0.45518 0.0
C1398 C 0.98178 0.87191 0.50535 0.0
C1399 C 0.96678 0.85802 0.51786 0.0
C1400 C 0.95267 0.85301 0.48141 0.0
C1401 C 0.93859 0.83984 0.49349 0.0
C1402 C 0.93845 0.83165 0.54199 0.0
C1403 C 0.95234 0.83666 0.57857 0.0
C1404 C 0.96644 0.84985 0.56668 0.0
C1405 C 0.99956 0.95381 0.55266 0.0
C1406 C 0.99987 0.95372 0.60627 0.0
C1407 C 0.99654 0.9374 0.52561 0.0
C1408 C 0.99491 0.92034 0.55155 0.0
C1409 C 0.99369 0.92055 0.60528 0.0
C1410 C 0.99594 0.93715 0.63236 0.0
C1411 C 0.99586 0.90236 0.52281 0.0
C1412 C 0.98215 0.8885 0.53374 0.0
C1413 C 0.01018 0.89888 0.48404 0.0
C1414 C 0.02654 0.91169 0.47368 0.0
C1415 C 0.03921 0.91708 0.51322 0.0
C1416 C 0.05444 0.92932 0.50325 0.0
C1417 C 0.05729 0.93612 0.45377 0.0
C1418 C 0.04493 0.93066 0.41412 0.0
C1419 C 0.02964 0.91848 0.42391 0.0
H1420 H 0.06909 0.94559 0.44613 0.0
H1421 H 0.92754 0.82145 0.55127 0.0
H1422 H 0.68925 0.94528 0.38624 0.0
H1423 H 0.66255 0.95364 0.44647 0.0
H1424 H 0.6315 0.90465 0.40391 0.0
H1425 H 0.65832 0.89576 0.34596 0.0
H1426 H 0.61033 0.94222 0.39145 0.0
H1427 H 0.64364 0.90201 0.51113 0.0
H1428 H 0.67178 0.8898 0.56188 0.0
H1429 H 0.67684 0.94262 0.63542 0.0
H1430 H 0.64889 0.95523 0.58452 0.0
H1431 H 0.52937 0.96385 0.57296 0.0
H1432 H 0.5541 0.94493 0.52448 0.0
H1433 H 0.59936 0.98289 0.56689 0.0
H1434 H 0.57544 0.00138 0.61415 0.0
H1435 H 0.61123 0.94574 0.58059 0.0
H1436 H 0.58065 0.98682 0.45606 0.0
H1437 H 0.55408 0.0002 0.402 0.0
H1438 H 0.54502 0.94681 0.33492 0.0
H1439 H 0.57129 0.93302 0.38947 0.0
C1440 C 0.67705 0.936 0.39084 0.0
C1441 C 0.67585 0.92002 0.36035 0.0
C1442 C 0.66171 0.94086 0.42504 0.0
C1443 C 0.64487 0.92989 0.42916 0.0
C1444 C 0.6442 0.91344 0.40101 0.0
C1445 C 0.65958 0.90843 0.36769 0.0
C1446 C 0.62727 0.9363 0.45934 0.0
C1447 C 0.61036 0.94266 0.4329 0.0
C1448 C 0.62737 0.93706 0.51331 0.0
C1449 C 0.64434 0.92964 0.54349 0.0
C1450 C 0.65091 0.9111 0.53763 0.0
C1451 C 0.66678 0.90408 0.56657 0.0
C1452 C 0.67614 0.91545 0.60172 0.0
C1453 C 0.66961 0.93384 0.60809 0.0
C1454 C 0.65374 0.94093 0.57924 0.0
C1455 C 0.54462 0.96801 0.57204 0.0
C1456 C 0.55027 0.98432 0.597 0.0
C1457 C 0.55872 0.95727 0.54419 0.0
C1458 C 0.57868 0.9625 0.54201 0.0
C1459 C 0.58418 0.9785 0.56782 0.0
C1460 C 0.57031 0.98916 0.59474 0.0
C1461 C 0.59426 0.95196 0.51272 0.0
C1462 C 0.61094 0.94492 0.53923 0.0
C1463 C 0.594 0.95069 0.45871 0.0
C1464 C 0.57762 0.9588 0.42769 0.0
C1465 C 0.57273 0.97785 0.43055 0.0
C1466 C 0.55779 0.98553 0.39963 0.0
C1467 C 0.54778 0.97434 0.36526 0.0
C1468 C 0.5527 0.95544 0.36177 0.0
C1469 C 0.56758 0.94768 0.39276 0.0
H1470 H 0.53629 0.98034 0.34116 0.0
H1471 H 0.68842 0.90999 0.62413 0.0
H1472 H 0.52642 0.6766 0.34652 0.0
H1473 H 0.53063 0.64804 0.39728 0.0
H1474 H 0.47384 0.65846 0.46759 0.0
H1475 H 0.46941 0.68686 0.41564 0.0
H1476 H 0.50698 0.64612 0.53685 0.0
H1477 H 0.47288 0.6304 0.38147 0.0
H1478 H 0.46852 0.62974 0.28796 0.0
H1479 H 0.5233 0.59899 0.27215 0.0
H1480 H 0.52817 0.59977 0.36564 0.0
H1481 H 0.46703 0.56507 0.62125 0.0
H1482 H 0.47376 0.59135 0.56682 0.0
H1483 H 0.5319 0.56873 0.53429 0.0
H1484 H 0.52521 0.54168 0.58955 0.0
H1485 H 0.50421 0.58618 0.44423 0.0
H1486 H 0.53944 0.60445 0.60103 0.0
H1487 H 0.5413 0.60276 0.69521 0.0
H1488 H 0.48227 0.62564 0.70593 0.0
H1489 H 0.48045 0.62815 0.6122 0.0
C1490 C 0.51508 0.67295 0.37371 0.0
C1491 C 0.49777 0.68394 0.37812 0.0
C1492 C 0.51743 0.65664 0.40234 0.0
C1493 C 0.50255 0.65118 0.43609 0.0
C1494 C 0.48553 0.66254 0.44195 0.0
C1495 C 0.48303 0.67873 0.41259 0.0
C1496 C 0.50434 0.63313 0.46319 0.0
C1497 C 0.50654 0.63306 0.51645 0.0
C1498 C 0.50404 0.61605 0.43658 0.0
C1499 C 0.50103 0.61538 0.38047 0.0
C1500 C 0.48411 0.62367 0.35802 0.0
C1501 C 0.48152 0.62324 0.30504 0.0
C1502 C 0.49566 0.61438 0.27411 0.0
C1503 C 0.51238 0.60588 0.29615 0.0
C1504 C 0.51507 0.60631 0.34914 0.0
C1505 C 0.48126 0.56539 0.60241 0.0
C1506 C 0.49562 0.55117 0.61012 0.0
C1507 C 0.48504 0.58051 0.57113 0.0
C1508 C 0.50328 0.58198 0.54658 0.0
C1509 C 0.51768 0.56776 0.55292 0.0
C1510 C 0.5139 0.55243 0.58473 0.0
C1511 C 0.50704 0.59925 0.51759 0.0
C1512 C 0.50552 0.59926 0.46415 0.0
C1513 C 0.50809 0.61631 0.5437 0.0
C1514 C 0.50991 0.61669 0.59993 0.0
C1515 C 0.52705 0.60947 0.62373 0.0
C1516 C 0.52812 0.60843 0.67703 0.0
C1517 C 0.51204 0.61438 0.70677 0.0
C1518 C 0.49492 0.62148 0.68317 0.0
C1519 C 0.49392 0.62287 0.62997 0.0
H1520 H 0.51279 0.61334 0.74801 0.0
H1521 H 0.49363 0.61406 0.23309 0.0
H1522 H 0.85378 0.60556 0.33164 0.0
H1523 H 0.87899 0.5955 0.39304 0.0
H1524 H 0.84479 0.54796 0.4321 0.0
H1525 H 0.81981 0.55732 0.36854 0.0
H1526 H 0.86399 0.57244 0.51907 0.0
H1527 H 0.87889 0.53781 0.35986 0.0
H1528 H 0.88387 0.53974 0.26658 0.0
H1529 H 0.93147 0.57711 0.28879 0.0
H1530 H 0.92656 0.57557 0.38223 0.0
H1531 H 0.924 0.51045 0.65545 0.0
H1532 H 0.90181 0.52638 0.59657 0.0
H1533 H 0.95097 0.55372 0.52705 0.0
H1534 H 0.97378 0.53731 0.58648 0.0
H1535 H 0.9265 0.5441 0.45333 0.0
H1536 H 0.91866 0.57693 0.60267 0.0
H1537 H 0.91329 0.587 0.69142 0.0
H1538 H 0.85457 0.566 0.68797 0.0
H1539 H 0.85987 0.55496 0.59998 0.0
C1540 C 0.85156 0.59282 0.35267 0.0
C1541 C 0.83471 0.58211 0.3438 0.0
C1542 C 0.86601 0.5872 0.3883 0.0
C1543 C 0.86394 0.57088 0.41697 0.0
C1544 C 0.84675 0.56061 0.41039 0.0
C1545 C 0.83237 0.56607 0.37408 0.0
C1546 C 0.88008 0.56415 0.45214 0.0
C1547 C 0.87749 0.56583 0.50502 0.0
C1548 C 0.89834 0.55696 0.43353 0.0
C1549 C 0.9024 0.55654 0.37792 0.0
C1550 C 0.89048 0.54636 0.34482 0.0
C1551 C 0.89324 0.54743 0.29194 0.0
C1552 C 0.90799 0.55853 0.27177 0.0
C1553 C 0.92009 0.56847 0.30448 0.0
C1554 C 0.91736 0.56747 0.3574 0.0
C1555 C 0.93034 0.51986 0.62796 0.0
C1556 C 0.95093 0.52247 0.62627 0.0
C1557 C 0.91744 0.52912 0.59412 0.0
C1558 C 0.92446 0.54154 0.55725 0.0
C1559 C 0.94503 0.54425 0.555 0.0
C1560 C 0.9581 0.53491 0.58928 0.0
C1561 C 0.91003 0.55124 0.52147 0.0
C1562 C 0.91297 0.55039 0.46816 0.0
C1563 C 0.89238 0.56006 0.53981 0.0
C1564 C 0.88974 0.56495 0.59458 0.0
C1565 C 0.90475 0.57404 0.62113 0.0
C1566 C 0.9017 0.57999 0.67134 0.0
C1567 C 0.88357 0.57724 0.69524 0.0
C1568 C 0.86858 0.56821 0.66931 0.0
C1569 C 0.87166 0.56195 0.61939 0.0
H1570 H 0.88117 0.58203 0.73397 0.0
H1571 H 0.91003 0.55944 0.23081 0.0
loop_
_geom_bond_atom_site_label_1
_geom_bond_atom_site_label_2
_geom_bond_distance
_geom_bond_site_symmetry_2
_ccdc_geom_bond_type
C0 C1 1.384 . S
C0 H13 0.947 . S
C0 C35 1.382 . S
C1 C0 1.384 . S
C1 C2 1.378 . S
C2 C1 1.378 . S
C2 C3 1.378 . S
C2 H14 0.952 . S
C3 C2 1.378 . S
C3 H15 0.950 . S
C3 C34 1.383 . S
H4 C23 0.947 . S
H5 C24 0.946 . S
H6 C26 0.953 1_556 S
H7 C27 0.945 1_556 S
H8 C29 0.952 . S
H9 C30 0.949 . S
H10 C32 0.950 1_554 S
H11 C33 0.948 . S
H12 C35 0.951 . S
H13 C0 0.947 . S
H14 C2 0.952 . S
H15 C3 0.950 . S
N16 C19 1.382 . S
N16 C21 1.363 . S
N17 C19 1.371 . S
N17 C20 1.372 . S
N18 C20 1.361 . S
N18 C21 1.377 . S
C19 N16 1.382 . S
C19 N17 1.371 . S
C19 C22 1.480 . S
C20 N17 1.372 . S
C20 N18 1.361 . S
C20 C28 1.457 . S
C21 N16 1.363 . S
C21 N18 1.377 . S
C21 C34 1.479 . S
C22 C19 1.480 . S
C22 C23 1.383 . S
C22 C27 1.385 . S
C23 H4 0.947 . S
C23 C22 1.383 . S
C23 C24 1.388 . S
C24 H5 0.946 . S
C24 C23 1.388 . S
C24 C25 1.384 . S
C25 C24 1.384 . S
C25 C26 1.377 . S
C26 H6 0.953 1_554 S
C26 C25 1.377 . S
C26 C27 1.369 . S
C27 H7 0.945 1_554 S
C27 C22 1.385 . S
C27 C26 1.369 . S
C28 C20 1.457 . S
C28 C29 1.372 1_554 S
C28 C33 1.364 . S
C29 H8 0.952 . S
C29 C28 1.372 1_556 S
C29 C30 1.389 . S
C30 H9 0.949 . S
C30 C29 1.389 . S
C30 C31 1.387 . S
C31 C30 1.387 . S
C31 C32 1.372 . S
C32 H10 0.950 1_556 S
C32 C31 1.372 . S
C32 C33 1.379 1_556 S
C33 H11 0.948 . S
C33 C28 1.364 . S
C33 C32 1.379 1_554 S
C34 C3 1.383 . S
C34 C21 1.479 . S
C34 C35 1.398 . S
C35 C0 1.382 . S
C35 H12 0.951 . S
C35 C34 1.398 . S
C36 C37 1.384 1_655 S
C36 H49 0.948 . S
C36 C71 1.382 1_655 S
C37 C36 1.384 1_455 S
C37 C38 1.378 . S
C38 C37 1.378 . S
C38 C39 1.378 . S
C38 H50 0.952 . S
C39 C38 1.378 . S
C39 H51 0.950 . S
C39 C70 1.383 . S
H40 C59 0.947 . S
H41 C60 0.951 . S
H42 C62 0.953 1_556 S
H43 C63 0.945 . S
H44 C65 0.949 1_655 S
H45 C66 0.957 . S
H46 C68 0.950 . S
H47 C69 0.948 . S
H48 C71 0.952 1_655 S
H49 C36 0.948 . S
H50 C38 0.952 . S
H51 C39 0.950 . S
N52 C55 1.382 . S
N52 C57 1.363 . S
N53 C55 1.371 . S
N53 C56 1.372 . S
N54 C56 1.361 . S
N54 C57 1.377 . S
C55 N52 1.382 . S
C55 N53 1.371 . S
C55 C58 1.480 . S
C56 N53 1.372 . S
C56 N54 1.361 . S
C56 C64 1.457 . S
C57 N52 1.363 . S
C57 N54 1.377 . S
C57 C70 1.479 . S
C58 C55 1.480 . S
C58 C59 1.383 . S
C58 C63 1.385 . S
C59 H40 0.947 . S
C59 C58 1.383 . S
C59 C60 1.385 1_455 S
C60 H41 0.951 . S
C60 C59 1.385 1_655 S
C60 C61 1.382 1_655 S
C61 C60 1.382 1_455 S
C61 C62 1.377 . S
C62 H42 0.953 1_554 S
C62 C61 1.377 . S
C62 C63 1.369 . S
C63 H43 0.945 . S
C63 C58 1.385 . S
C63 C62 1.369 . S
C64 C56 1.457 . S
C64 C65 1.376 1_554 S
C64 C69 1.364 . S
C65 H44 0.949 1_455 S
C65 C64 1.376 1_556 S
C65 C66 1.388 1_455 S
C66 H45 0.957 . S
C66 C65 1.388 1_655 S
C66 C67 1.381 1_655 S
C67 C66 1.381 1_455 S
C67 C68 1.372 1_556 S
C68 H46 0.950 . S
C68 C67 1.372 1_554 S
C68 C69 1.379 . S
C69 H47 0.948 . S
C69 C64 1.364 . S
C69 C68 1.379 . S
C70 C39 1.383 . S
C70 C57 1.479 . S
C70 C71 1.398 . S
C71 C36 1.382 1_455 S
C71 H48 0.952 1_455 S
C71 C70 1.398 . S
C72 C73 1.384 . S
C72 H85 0.947 . S
C72 C107 1.382 . S
C73 C72 1.384 . S
C73 C74 1.378 . S
C74 C73 1.378 . S
C74 C75 1.378 . S
C74 H86 0.952 . S
C75 C74 1.378 . S
C75 H87 0.950 . S
C75 C106 1.383 . S
H76 C95 0.947 . S
H77 C96 0.946 . S
H78 C98 0.953 1_556 S
H79 C99 0.929 1_556 S
H80 C101 0.952 . S
H81 C102 0.949 . S
H82 C104 0.950 . S
H83 C105 0.948 . S
H84 C107 0.951 . S
H85 C72 0.947 . S
H86 C74 0.952 . S
H87 C75 0.950 . S
N88 C91 1.382 . S
N88 C93 1.363 . S
N89 C91 1.371 . S
N89 C92 1.372 . S
N90 C92 1.361 . S
N90 C93 1.377 . S
C91 N88 1.382 . S
C91 N89 1.371 . S
C91 C94 1.480 . S
C92 N89 1.372 . S
C92 N90 1.361 . S
C92 C100 1.457 . S
C93 N88 1.363 . S
C93 N90 1.377 . S
C93 C106 1.479 . S
C94 C91 1.480 . S
C94 C95 1.383 . S
C94 C99 1.385 . S
C95 H76 0.947 . S
C95 C94 1.383 . S
C95 C96 1.388 . S
C96 H77 0.946 . S
C96 C95 1.388 . S
C96 C97 1.384 . S
C97 C96 1.384 . S
C97 C98 1.377 . S
C98 H78 0.953 1_554 S
C98 C97 1.377 . S
C98 C99 1.369 . S
C99 H79 0.929 1_554 S
C99 C94 1.385 . S
C99 C98 1.369 . S
C100 C92 1.457 . S
C100 C101 1.372 1_554 S
C100 C105 1.364 . S
C101 H80 0.952 . S
C101 C100 1.372 1_556 S
C101 C102 1.389 . S
C102 H81 0.949 . S
C102 C101 1.389 . S
C102 C103 1.387 . S
C103 C102 1.387 . S
C103 C104 1.372 1_556 S
C104 H82 0.950 . S
C104 C103 1.372 1_554 S
C104 C105 1.379 . S
C105 H83 0.948 . S
C105 C100 1.364 . S
C105 C104 1.379 . S
C106 C75 1.383 . S
C106 C93 1.479 . S
C106 C107 1.398 . S
C107 C72 1.382 . S
C107 H84 0.951 . S
C107 C106 1.398 . S
C108 C109 1.384 1_554 S
C108 H121 0.947 . S
C108 C143 1.382 . S
C109 C108 1.384 1_556 S
C109 C110 1.378 . S
C110 C109 1.378 . S
C110 C111 1.378 . S
C110 H122 0.952 . S
C111 C110 1.378 . S
C111 H123 0.950 . S
C111 C142 1.383 1_556 S
H112 C131 0.947 . S
H113 C132 0.963 . S
H114 C134 0.953 . S
H115 C135 0.945 . S
H116 C137 0.952 . S
H117 C138 0.949 . S
H118 C140 0.950 . S
H119 C141 0.948 . S
H120 C143 0.951 . S
H121 C108 0.947 . S
H122 C110 0.952 . S
H123 C111 0.950 . S
N124 C127 1.382 . S
N124 C129 1.363 . S
N125 C127 1.371 . S
N125 C128 1.372 . S
N126 C128 1.361 . S
N126 C129 1.377 . S
C127 N124 1.382 . S
C127 N125 1.371 . S
C127 C130 1.480 . S
C128 N125 1.372 . S
C128 N126 1.361 . S
C128 C136 1.457 . S
C129 N124 1.363 . S
C129 N126 1.377 . S
C129 C142 1.479 . S
C130 C127 1.480 . S
C130 C131 1.383 . S
C130 C135 1.385 . S
C131 H112 0.947 . S
C131 C130 1.383 . S
C131 C132 1.388 . S
C132 H113 0.963 . S
C132 C131 1.388 . S
C132 C133 1.384 . S
C133 C132 1.384 . S
C133 C134 1.377 . S
C134 H114 0.953 . S
C134 C133 1.377 . S
C134 C135 1.369 . S
C135 H115 0.945 . S
C135 C130 1.385 . S
C135 C134 1.369 . S
C136 C128 1.457 . S
C136 C137 1.372 . S
C136 C141 1.364 . S
C137 H116 0.952 . S
C137 C136 1.372 . S
C137 C138 1.389 . S
C138 H117 0.949 . S
C138 C137 1.389 . S
C138 C139 1.387 . S
C139 C138 1.387 . S
C139 C140 1.372 . S
C140 H118 0.950 . S
C140 C139 1.372 . S
C140 C141 1.379 . S
C141 H119 0.948 . S
C141 C136 1.364 . S
C141 C140 1.379 . S
C142 C111 1.383 1_554 S
C142 C129 1.479 . S
C142 C143 1.398 . S
C143 C108 1.382 . S
C143 H120 0.951 . S
C143 C142 1.398 . S
C144 C145 1.384 . S
C144 H157 0.947 . S
C144 C179 1.382 . S
C145 C144 1.384 . S
C145 C146 1.378 . S
C146 C145 1.378 . S
C146 C147 1.378 . S
C146 H158 0.952 . S
C147 C146 1.378 . S
C147 H159 0.950 . S
C147 C178 1.383 . S
H148 C167 0.947 . S
H149 C168 0.946 . S
H150 C170 0.953 . S
H151 C171 0.945 . S
H152 C173 0.952 . S
H153 C174 0.949 . S
H154 C176 0.950 . S
H155 C177 0.948 . S
H156 C179 0.951 . S
H157 C144 0.947 . S
H158 C146 0.952 . S
H159 C147 0.950 . S
N160 C163 1.382 . S
N160 C165 1.363 . S
N161 C163 1.371 . S
N161 C164 1.372 . S
N162 C164 1.361 . S
N162 C165 1.377 . S
C163 N160 1.382 . S
C163 N161 1.371 . S
C163 C166 1.480 . S
C164 N161 1.372 . S
C164 N162 1.361 . S
C164 C172 1.457 . S
C165 N160 1.363 . S
C165 N162 1.377 . S
C165 C178 1.479 . S
C166 C163 1.480 . S
C166 C167 1.383 . S
C166 C171 1.385 . S
C167 H148 0.947 . S
C167 C166 1.383 . S
C167 C168 1.388 . S
C168 H149 0.946 . S
C168 C167 1.388 . S
C168 C169 1.384 . S
C169 C168 1.384 . S
C169 C170 1.377 . S
C170 H150 0.953 . S
C170 C169 1.377 . S
C170 C171 1.369 . S
C171 H151 0.945 . S
C171 C166 1.385 . S
C171 C170 1.369 . S
C172 C164 1.457 . S
C172 C173 1.372 . S
C172 C177 1.364 . S
C173 H152 0.952 . S
C173 C172 1.372 . S
C173 C174 1.389 . S
C174 H153 0.949 . S
C174 C173 1.389 . S
C174 C175 1.387 . S
C175 C174 1.387 . S
C175 C176 1.372 . S
C176 H154 0.950 . S
C176 C175 1.372 . S
C176 C177 1.379 . S
C177 H155 0.948 . S
C177 C172 1.364 . S
C177 C176 1.379 . S
C178 C147 1.383 . S
C178 C165 1.479 . S
C178 C179 1.398 . S
C179 C144 1.382 . S
C179 H156 0.951 . S
C179 C178 1.398 . S
C180 C181 1.384 1_655 S
C180 H193 0.947 . S
C180 C215 1.382 1_655 S
C181 C180 1.384 1_455 S
C181 C182 1.378 . S
C182 C181 1.378 . S
C182 C183 1.378 . S
C182 H194 0.952 . S
C183 C182 1.378 . S
C183 H195 0.950 . S
C183 C214 1.383 . S
H184 C203 0.947 . S
H185 C204 0.947 . S
H186 C206 0.953 . S
H187 C207 0.945 . S
H188 C209 0.949 1_655 S
H189 C210 0.954 . S
H190 C212 0.950 . S
H191 C213 0.948 . S
H192 C215 0.950 1_655 S
H193 C180 0.947 . S
H194 C182 0.952 . S
H195 C183 0.950 . S
N196 C199 1.382 . S
N196 C201 1.363 . S
N197 C199 1.371 . S
N197 C200 1.372 . S
N198 C200 1.361 . S
N198 C201 1.377 . S
C199 N196 1.382 . S
C199 N197 1.371 . S
C199 C202 1.480 . S
C200 N197 1.372 . S
C200 N198 1.361 . S
C200 C208 1.457 . S
C201 N196 1.363 . S
C201 N198 1.377 . S
C201 C214 1.479 . S
C202 C199 1.480 . S
C202 C203 1.383 . S
C202 C207 1.385 . S
C203 H184 0.947 . S
C203 C202 1.383 . S
C203 C204 1.388 1_455 S
C204 H185 0.947 . S
C204 C203 1.388 1_655 S
C204 C205 1.383 1_655 S
C205 C204 1.383 1_455 S
C205 C206 1.377 . S
C206 H186 0.953 . S
C206 C205 1.377 . S
C206 C207 1.369 . S
C207 H187 0.945 . S
C207 C202 1.385 . S
C207 C206 1.369 . S
C208 C200 1.457 . S
C208 C209 1.378 . S
C208 C213 1.364 . S
C209 H188 0.949 1_455 S
C209 C208 1.378 . S
C209 C210 1.385 1_455 S
C210 H189 0.954 . S
C210 C209 1.385 1_655 S
C210 C211 1.385 1_655 S
C211 C210 1.385 1_455 S
C211 C212 1.372 . S
C212 H190 0.950 . S
C212 C211 1.372 . S
C212 C213 1.379 . S
C213 H191 0.948 . S
C213 C208 1.364 . S
C213 C212 1.379 . S
C214 C183 1.383 . S
C214 C201 1.479 . S
C214 C215 1.399 . S
C215 C180 1.382 1_455 S
C215 H192 0.950 1_455 S
C215 C214 1.399 . S
C216 C217 1.384 . S
C216 H229 0.947 . S
C216 C251 1.382 . S
C217 C216 1.384 . S
C217 C218 1.378 . S
C218 C217 1.378 . S
C218 C219 1.378 . S
C218 H230 0.952 . S
C219 C218 1.378 . S
C219 H231 0.950 . S
C219 C250 1.383 . S
H220 C239 0.947 . S
H221 C240 0.946 . S
H222 C242 0.953 . S
H223 C243 0.945 . S
H224 C245 0.952 . S
H225 C246 0.949 . S
H226 C248 0.950 . S
H227 C249 0.948 . S
H228 C251 0.951 . S
H229 C216 0.947 . S
H230 C218 0.952 . S
H231 C219 0.950 . S
N232 C235 1.382 . S
N232 C237 1.363 . S
N233 C235 1.371 . S
N233 C236 1.372 . S
N234 C236 1.361 . S
N234 C237 1.377 . S
C235 N232 1.382 . S
C235 N233 1.371 . S
C235 C238 1.480 . S
C236 N233 1.372 . S
C236 N234 1.361 . S
C236 C244 1.457 . S
C237 N232 1.363 . S
C237 N234 1.377 . S
C237 C250 1.479 . S
C238 C235 1.480 . S
C238 C239 1.383 . S
C238 C243 1.385 . S
C239 H220 0.947 . S
C239 C238 1.383 . S
C239 C240 1.388 . S
C240 H221 0.946 . S
C240 C239 1.388 . S
C240 C241 1.384 . S
C241 C240 1.384 . S
C241 C242 1.377 . S
C242 H222 0.953 . S
C242 C241 1.377 . S
C242 C243 1.369 . S
C243 H223 0.945 . S
C243 C238 1.385 . S
C243 C242 1.369 . S
C244 C236 1.457 . S
C244 C245 1.372 . S
C244 C249 1.364 . S
C245 H224 0.952 . S
C245 C244 1.372 . S
C245 C246 1.389 . S
C246 H225 0.949 . S
C246 C245 1.389 . S
C246 C247 1.387 . S
C247 C246 1.387 . S
C247 C248 1.372 . S
C248 H226 0.950 . S
C248 C247 1.372 . S
C248 C249 1.379 . S
C249 H227 0.948 . S
C249 C244 1.364 . S
C249 C248 1.379 . S
C250 C219 1.383 . S
C250 C237 1.479 . S
C250 C251 1.398 . S
C251 C216 1.382 . S
C251 H228 0.951 . S
C251 C250 1.398 . S
C252 C253 1.384 . S
C252 H265 0.947 . S
C252 C287 1.382 . S
C253 C252 1.384 . S
C253 C254 1.378 . S
C254 C253 1.378 . S
C254 C255 1.378 . S
C254 H266 0.952 . S
C255 C254 1.378 . S
C255 H267 0.950 . S
C255 C286 1.383 . S
H256 C275 0.947 . S
H257 C276 0.946 . S
H258 C278 0.953 . S
H259 C279 0.945 . S
H260 C281 0.952 . S
H261 C282 0.949 . S
H262 C284 0.950 . S
H263 C285 0.948 . S
H264 C287 0.951 . S
H265 C252 0.947 . S
H266 C254 0.952 . S
H267 C255 0.950 . S
N268 C271 1.382 . S
N268 C273 1.363 . S
N269 C271 1.371 . S
N269 C272 1.372 . S
N270 C272 1.361 . S
N270 C273 1.377 . S
C271 N268 1.382 . S
C271 N269 1.371 . S
C271 C274 1.480 . S
C272 N269 1.372 . S
C272 N270 1.361 . S
C272 C280 1.457 . S
C273 N268 1.363 . S
C273 N270 1.377 . S
C273 C286 1.479 . S
C274 C271 1.480 . S
C274 C275 1.383 . S
C274 C279 1.385 . S
C275 H256 0.947 . S
C275 C274 1.383 . S
C275 C276 1.388 . S
C276 H257 0.946 . S
C276 C275 1.388 . S
C276 C277 1.384 . S
C277 C276 1.384 . S
C277 C278 1.377 . S
C278 H258 0.953 . S
C278 C277 1.377 . S
C278 C279 1.369 . S
C279 H259 0.945 . S
C279 C274 1.385 . S
C279 C278 1.369 . S
C280 C272 1.457 . S
C280 C281 1.372 . S
C280 C285 1.364 . S
C281 H260 0.952 . S
C281 C280 1.372 . S
C281 C282 1.389 . S
C282 H261 0.949 . S
C282 C281 1.389 . S
C282 C283 1.387 . S
C283 C282 1.387 . S
C283 C284 1.372 . S
C284 H262 0.950 . S
C284 C283 1.372 . S
C284 C285 1.379 . S
C285 H263 0.948 . S
C285 C280 1.364 . S
C285 C284 1.379 . S
C286 C255 1.383 . S
C286 C273 1.479 . S
C286 C287 1.398 . S
C287 C252 1.382 . S
C287 H264 0.951 . S
C287 C286 1.398 . S
O288 Mn289 2.147 1_455 S
O288 C302 1.244 . S
Mn289 O288 2.147 1_655 S
Mn289 O292 2.172 1_545 S
Mn289 O293 2.173 1_655 S
Mn289 O295 2.161 1_645 S
Mn289 O297 2.168 . S
Mn289 O307 2.270 . S
O290 Mn291 2.087 . S
O290 C302 1.256 1_655 S
Mn291 O290 2.087 . S
Mn291 O298 2.089 . S
Mn291 O307 2.290 . S
Mn291 O308 2.251 . S
O292 Mn289 2.172 1_565 S
O292 C303 1.239 . S
O293 Mn289 2.173 1_455 S
O293 Mn294 2.290 1_545 S
O293 C304 1.278 . S
Mn294 O293 2.290 1_565 S
Mn294 O296 2.089 . S
Mn294 O299 2.251 . S
Mn294 O300 2.087 . S
O295 Mn289 2.161 1_465 S
O295 C305 1.244 . S
O296 Mn294 2.089 . S
O296 C303 1.256 1_455 S
O297 Mn289 2.168 . S
O297 C306 1.239 . S
O298 Mn291 2.089 . S
O298 C306 1.256 . S
O299 Mn294 2.251 . S
O299 C304 1.241 1_565 S
O300 Mn294 2.087 . S
O300 C305 1.256 . S
C301 O307 1.278 . S
C301 O308 1.241 . S
C302 O288 1.244 . S
C302 O290 1.256 1_455 S
C303 O292 1.239 . S
C303 O296 1.256 1_655 S
C304 O293 1.278 . S
C304 O299 1.241 1_545 S
C305 O295 1.244 . S
C305 O300 1.256 . S
C306 O297 1.239 . S
C306 O298 1.256 . S
O307 Mn289 2.270 . S
O307 Mn291 2.290 . S
O307 C301 1.278 . S
O308 Mn291 2.251 . S
O308 C301 1.241 . S
O309 Mn310 2.163 1_565 S
O309 C323 1.244 1_565 S
Mn310 O309 2.163 1_545 S
Mn310 O313 2.160 . S
Mn310 O314 2.221 1_545 S
Mn310 O316 2.163 . S
Mn310 O318 2.160 1_545 S
Mn310 O328 2.221 . S
O311 Mn312 2.087 . S
O311 C323 1.256 . S
Mn312 O311 2.087 . S
Mn312 O319 2.089 . S
Mn312 O328 2.290 . S
Mn312 O329 2.251 . S
O313 Mn310 2.160 . S
O313 C324 1.239 . S
O314 Mn310 2.221 1_565 S
O314 Mn315 2.290 . S
O314 C325 1.278 . S
Mn315 O314 2.290 . S
Mn315 O317 2.089 1_565 S
Mn315 O320 2.251 . S
Mn315 O321 2.087 1_565 S
O316 Mn310 2.163 . S
O316 C326 1.244 . S
O317 Mn315 2.089 1_545 S
O317 C324 1.256 . S
O318 Mn310 2.160 1_565 S
O318 C327 1.239 . S
O319 Mn312 2.089 . S
O319 C327 1.256 1_545 S
O320 Mn315 2.251 . S
O320 C325 1.241 . S
O321 Mn315 2.087 1_545 S
O321 C326 1.256 . S
C322 O328 1.278 . S
C322 O329 1.241 . S
C323 O309 1.244 1_545 S
C323 O311 1.256 . S
C324 O313 1.239 . S
C324 O317 1.256 . S
C325 O314 1.278 . S
C325 O320 1.241 . S
C326 O316 1.244 . S
C326 O321 1.256 . S
C327 O318 1.239 . S
C327 O319 1.256 1_565 S
O328 Mn310 2.221 . S
O328 Mn312 2.290 . S
O328 C322 1.278 . S
O329 Mn312 2.251 . S
O329 C322 1.241 . S
O330 Mn331 2.163 . S
O330 C344 1.244 . S
Mn331 O330 2.163 . S
Mn331 O334 2.160 . S
Mn331 O335 2.221 . S
Mn331 O337 2.163 . S
Mn331 O339 2.160 . S
Mn331 O349 2.221 . S
O332 Mn333 2.087 . S
O332 C344 1.256 . S
Mn333 O332 2.087 . S
Mn333 O340 2.089 . S
Mn333 O349 2.290 . S
Mn333 O350 2.251 . S
O334 Mn331 2.160 . S
O334 C345 1.239 . S
O335 Mn331 2.221 . S
O335 Mn336 2.290 . S
O335 C346 1.278 . S
Mn336 O335 2.290 . S
Mn336 O338 2.089 . S
Mn336 O341 2.251 . S
Mn336 O342 2.087 . S
O337 Mn331 2.163 . S
O337 C347 1.244 . S
O338 Mn336 2.089 . S
O338 C345 1.256 . S
O339 Mn331 2.160 . S
O339 C348 1.239 . S
O340 Mn333 2.089 . S
O340 C348 1.256 . S
O341 Mn336 2.251 . S
O341 C346 1.241 . S
O342 Mn336 2.087 . S
O342 C347 1.256 . S
C343 O349 1.278 . S
C343 O350 1.241 . S
C344 O330 1.244 . S
C344 O332 1.256 . S
C345 O334 1.239 . S
C345 O338 1.256 . S
C346 O335 1.278 . S
C346 O341 1.241 . S
C347 O337 1.244 . S
C347 O342 1.256 . S
C348 O339 1.239 . S
C348 O340 1.256 . S
O349 Mn331 2.221 . S
O349 Mn333 2.290 . S
O349 C343 1.278 . S
O350 Mn333 2.251 . S
O350 C343 1.241 . S
O351 Mn352 2.163 . S
O351 C365 1.244 . S
Mn352 O351 2.163 . S
Mn352 O355 2.160 1_455 S
Mn352 O356 2.221 1_455 S
Mn352 O358 2.163 1_455 S
Mn352 O360 2.160 . S
Mn352 O370 2.221 . S
O353 Mn354 2.087 . S
O353 C365 1.256 . S
Mn354 O353 2.087 . S
Mn354 O361 2.089 . S
Mn354 O370 2.290 . S
Mn354 O371 2.251 . S
O355 Mn352 2.160 1_655 S
O355 C366 1.239 . S
O356 Mn352 2.221 1_655 S
O356 Mn357 2.290 . S
O356 C367 1.278 . S
Mn357 O356 2.290 . S
Mn357 O359 2.089 . S
Mn357 O362 2.251 . S
Mn357 O363 2.087 . S
O358 Mn352 2.163 1_655 S
O358 C368 1.244 . S
O359 Mn357 2.089 . S
O359 C366 1.256 . S
O360 Mn352 2.160 . S
O360 C369 1.239 . S
O361 Mn354 2.089 . S
O361 C369 1.256 . S
O362 Mn357 2.251 . S
O362 C367 1.241 . S
O363 Mn357 2.087 . S
O363 C368 1.256 . S
C364 O370 1.278 . S
C364 O371 1.241 . S
C365 O351 1.244 . S
C365 O353 1.256 . S
C366 O355 1.239 . S
C366 O359 1.256 . S
C367 O356 1.278 . S
C367 O362 1.241 . S
C368 O358 1.244 . S
C368 O363 1.256 . S
C369 O360 1.239 . S
C369 O361 1.256 . S
O370 Mn352 2.221 . S
O370 Mn354 2.290 . S
O370 C364 1.278 . S
O371 Mn354 2.251 . S
O371 C364 1.241 . S
H372 C390 0.951 . S
H373 C392 0.951 . S
H374 C394 0.950 . S
H375 C395 0.950 . S
H376 C397 0.950 . S
H377 C400 0.950 . S
H378 C401 0.950 . S
H379 C403 0.950 . S
H380 C404 0.950 . S
H381 C405 0.951 . S
H382 C407 0.951 . S
H383 C409 0.950 . S
H384 C410 0.950 . S
H385 C412 0.950 . S
H386 C415 0.950 . S
H387 C416 0.950 . S
H388 C418 0.950 . S
H389 C419 0.950 . S
C390 H372 0.951 . S
C390 C391 1.366 . S
C390 C392 1.388 . S
C391 C390 1.366 . S
C391 C395 1.385 . S
C392 H373 0.951 . S
C392 C390 1.388 . S
C392 C393 1.366 . S
C393 C392 1.366 . S
C393 C394 1.414 . S
C393 C396 1.499 . S
C394 H374 0.950 . S
C394 C393 1.414 . S
C394 C395 1.374 . S
C395 H375 0.950 . S
C395 C391 1.385 . S
C395 C394 1.374 . S
C396 C393 1.499 . S
C396 C397 1.373 . S
C396 C398 1.389 . S
C397 H376 0.950 . S
C397 C396 1.373 . S
C397 C413 1.377 . S
C398 C396 1.389 . S
C398 C399 1.524 . S
C398 C412 1.377 . S
C399 C398 1.524 . S
C399 C400 1.397 . S
C399 C404 1.363 . S
C400 H377 0.950 . S
C400 C399 1.397 . S
C400 C401 1.334 . S
C401 H378 0.950 . S
C401 C400 1.334 . S
C401 C402 1.287 . S
C402 C401 1.287 . S
C402 C403 1.524 . S
C402 H421 0.913 . S
C403 H379 0.950 . S
C403 C402 1.524 . S
C403 C404 1.415 . S
C404 H380 0.950 . S
C404 C399 1.363 . S
C404 C403 1.415 . S
C405 H381 0.951 . S
C405 C406 1.366 . S
C405 C407 1.388 . S
C406 C405 1.366 . S
C406 C410 1.385 . S
C407 H382 0.951 . S
C407 C405 1.388 . S
C407 C408 1.366 . S
C408 C407 1.366 . S
C408 C409 1.414 . S
C408 C411 1.499 . S
C409 H383 0.950 . S
C409 C408 1.414 . S
C409 C410 1.374 . S
C410 H384 0.950 . S
C410 C406 1.385 . S
C410 C409 1.374 . S
C411 C408 1.499 . S
C411 C412 1.373 . S
C411 C413 1.389 . S
C412 H385 0.950 . S
C412 C398 1.377 . S
C412 C411 1.373 . S
C413 C397 1.377 . S
C413 C411 1.389 . S
C413 C414 1.524 . S
C414 C413 1.524 . S
C414 C415 1.397 . S
C414 C419 1.363 . S
C415 H386 0.950 . S
C415 C414 1.397 . S
C415 C416 1.334 1_545 S
C416 H387 0.950 . S
C416 C415 1.334 1_565 S
C416 C417 1.287 . S
C417 C416 1.287 . S
C417 C418 1.524 . S
C417 H420 0.999 . S
C418 H388 0.950 . S
C418 C417 1.524 . S
C418 C419 1.415 1_565 S
C419 H389 0.950 . S
C419 C414 1.363 . S
C419 C418 1.415 1_545 S
H420 C417 0.999 . S
H421 C402 0.913 . S
H422 C440 0.951 . S
H423 C442 0.951 . S
H424 C444 0.950 . S
H425 C445 0.950 . S
H426 C447 0.950 . S
H427 C450 0.950 . S
H428 C451 0.950 . S
H429 C453 0.950 . S
H430 C454 0.950 . S
H431 C455 0.951 . S
H432 C457 0.951 . S
H433 C459 0.950 . S
H434 C460 0.950 . S
H435 C462 0.950 . S
H436 C465 0.950 . S
H437 C466 0.950 . S
H438 C468 0.950 . S
H439 C469 0.950 . S
C440 H422 0.951 . S
C440 C441 1.366 . S
C440 C442 1.388 . S
C441 C440 1.366 . S
C441 C445 1.385 . S
C442 H423 0.951 . S
C442 C440 1.388 . S
C442 C443 1.366 . S
C443 C442 1.366 . S
C443 C444 1.414 . S
C443 C446 1.499 . S
C444 H424 0.950 . S
C444 C443 1.414 . S
C444 C445 1.374 . S
C445 H425 0.950 . S
C445 C441 1.385 . S
C445 C444 1.374 . S
C446 C443 1.499 . S
C446 C447 1.373 . S
C446 C448 1.389 . S
C447 H426 0.950 . S
C447 C446 1.373 . S
C447 C463 1.377 . S
C448 C446 1.389 . S
C448 C449 1.524 . S
C448 C462 1.377 . S
C449 C448 1.524 . S
C449 C450 1.397 . S
C449 C454 1.363 . S
C450 H427 0.950 . S
C450 C449 1.397 . S
C450 C451 1.334 . S
C451 H428 0.950 . S
C451 C450 1.334 . S
C451 C452 1.287 . S
C452 C451 1.287 . S
C452 C453 1.524 . S
C452 H471 0.913 . S
C453 H429 0.950 . S
C453 C452 1.524 . S
C453 C454 1.415 . S
C454 H430 0.950 . S
C454 C449 1.363 . S
C454 C453 1.415 . S
C455 H431 0.951 . S
C455 C456 1.366 . S
C455 C457 1.388 . S
C456 C455 1.366 . S
C456 C460 1.385 . S
C457 H432 0.951 . S
C457 C455 1.388 . S
C457 C458 1.366 . S
C458 C457 1.366 . S
C458 C459 1.414 . S
C458 C461 1.499 . S
C459 H433 0.950 . S
C459 C458 1.414 . S
C459 C460 1.374 . S
C460 H434 0.950 . S
C460 C456 1.385 . S
C460 C459 1.374 . S
C461 C458 1.499 . S
C461 C462 1.373 . S
C461 C463 1.389 . S
C462 H435 0.950 . S
C462 C448 1.377 . S
C462 C461 1.373 . S
C463 C447 1.377 . S
C463 C461 1.389 . S
C463 C464 1.524 . S
C464 C463 1.524 . S
C464 C465 1.397 . S
C464 C469 1.363 . S
C465 H436 0.950 . S
C465 C464 1.397 . S
C465 C466 1.334 . S
C466 H437 0.950 . S
C466 C465 1.334 . S
C466 C467 1.287 . S
C467 C466 1.287 . S
C467 C468 1.524 . S
C467 H470 0.999 . S
C468 H438 0.950 . S
C468 C467 1.524 . S
C468 C469 1.415 . S
C469 H439 0.950 . S
C469 C464 1.363 . S
C469 C468 1.415 . S
H470 C467 0.999 . S
H471 C452 0.913 . S
H472 C490 0.951 . S
H473 C492 0.951 . S
H474 C494 0.950 . S
H475 C495 0.950 . S
H476 C497 0.950 . S
H477 C500 0.950 . S
H478 C501 0.950 . S
H479 C503 0.950 . S
H480 C504 0.950 . S
H481 C505 0.951 . S
H482 C507 0.951 . S
H483 C509 0.950 . S
H484 C510 0.950 . S
H485 C512 0.950 . S
H486 C515 0.950 . S
H487 C516 0.950 . S
H488 C518 0.950 . S
H489 C519 0.950 . S
C490 H472 0.951 . S
C490 C491 1.366 . S
C490 C492 1.388 . S
C491 C490 1.366 . S
C491 C495 1.385 . S
C492 H473 0.951 . S
C492 C490 1.388 . S
C492 C493 1.366 . S
C493 C492 1.366 . S
C493 C494 1.414 . S
C493 C496 1.499 . S
C494 H474 0.950 . S
C494 C493 1.414 . S
C494 C495 1.374 . S
C495 H475 0.950 . S
C495 C491 1.385 . S
C495 C494 1.374 . S
C496 C493 1.499 . S
C496 C497 1.373 . S
C496 C498 1.389 . S
C497 H476 0.950 . S
C497 C496 1.373 . S
C497 C513 1.377 . S
C498 C496 1.389 . S
C498 C499 1.524 . S
C498 C512 1.377 . S
C499 C498 1.524 . S
C499 C500 1.397 . S
C499 C504 1.363 . S
C500 H477 0.950 . S
C500 C499 1.397 . S
C500 C501 1.334 . S
C501 H478 0.950 . S
C501 C500 1.334 . S
C501 C502 1.287 . S
C502 C501 1.287 . S
C502 C503 1.524 . S
C502 H521 0.913 . S
C503 H479 0.950 . S
C503 C502 1.524 . S
C503 C504 1.415 . S
C504 H480 0.950 . S
C504 C499 1.363 . S
C504 C503 1.415 . S
C505 H481 0.951 . S
C505 C506 1.366 . S
C505 C507 1.388 . S
C506 C505 1.366 . S
C506 C510 1.385 . S
C507 H482 0.951 . S
C507 C505 1.388 . S
C507 C508 1.366 . S
C508 C507 1.366 . S
C508 C509 1.414 . S
C508 C511 1.499 . S
C509 H483 0.950 . S
C509 C508 1.414 . S
C509 C510 1.374 . S
C510 H484 0.950 . S
C510 C506 1.385 . S
C510 C509 1.374 . S
C511 C508 1.499 . S
C511 C512 1.373 . S
C511 C513 1.389 . S
C512 H485 0.950 . S
C512 C498 1.377 . S
C512 C511 1.373 . S
C513 C497 1.377 . S
C513 C511 1.389 . S
C513 C514 1.524 . S
C514 C513 1.524 . S
C514 C515 1.397 . S
C514 C519 1.363 . S
C515 H486 0.950 . S
C515 C514 1.397 . S
C515 C516 1.334 . S
C516 H487 0.950 . S
C516 C515 1.334 . S
C516 C517 1.287 . S
C517 C516 1.287 . S
C517 C518 1.524 . S
C517 H520 0.999 . S
C518 H488 0.950 . S
C518 C517 1.524 . S
C518 C519 1.415 . S
C519 H489 0.950 . S
C519 C514 1.363 . S
C519 C518 1.415 . S
H520 C517 0.999 . S
H521 C502 0.913 . S
H522 C540 0.951 . S
H523 C542 0.951 . S
H524 C544 0.950 . S
H525 C545 0.950 . S
H526 C547 0.950 . S
H527 C550 0.950 1_655 S
H528 C551 0.950 . S
H529 C553 0.950 . S
H530 C554 0.950 . S
H531 C555 0.951 . S
H532 C557 0.951 . S
H533 C559 0.950 . S
H534 C560 0.950 . S
H535 C562 0.950 . S
H536 C565 0.950 . S
H537 C566 0.950 . S
H538 C568 0.950 . S
H539 C569 0.950 . S
C540 H522 0.951 . S
C540 C541 1.355 1_455 S
C540 C542 1.388 . S
C541 C540 1.355 1_655 S
C541 C545 1.395 . S
C542 H523 0.951 . S
C542 C540 1.388 . S
C542 C543 1.366 1_455 S
C543 C542 1.366 1_655 S
C543 C544 1.414 . S
C543 C546 1.499 . S
C544 H524 0.950 . S
C544 C543 1.414 . S
C544 C545 1.374 . S
C545 H525 0.950 . S
C545 C541 1.395 . S
C545 C544 1.374 . S
C546 C543 1.499 . S
C546 C547 1.373 . S
C546 C548 1.389 1_655 S
C547 H526 0.950 . S
C547 C546 1.373 . S
C547 C563 1.377 . S
C548 C546 1.389 1_455 S
C548 C549 1.524 . S
C548 C562 1.377 . S
C549 C548 1.524 . S
C549 C550 1.397 . S
C549 C554 1.363 . S
C550 H527 0.950 1_455 S
C550 C549 1.397 . S
C550 C551 1.334 . S
C551 H528 0.950 . S
C551 C550 1.334 . S
C551 C552 1.287 . S
C552 C551 1.287 . S
C552 C553 1.524 . S
C552 H571 0.913 . S
C553 H529 0.950 . S
C553 C552 1.524 . S
C553 C554 1.415 . S
C554 H530 0.950 . S
C554 C549 1.363 . S
C554 C553 1.415 . S
C555 H531 0.951 . S
C555 C556 1.366 . S
C555 C557 1.388 . S
C556 C555 1.366 . S
C556 C560 1.385 1_655 S
C557 H532 0.951 . S
C557 C555 1.388 . S
C557 C558 1.366 . S
C558 C557 1.366 . S
C558 C559 1.414 1_655 S
C558 C561 1.499 . S
C559 H533 0.950 . S
C559 C558 1.414 1_455 S
C559 C560 1.374 . S
C560 H534 0.950 . S
C560 C556 1.385 1_455 S
C560 C559 1.374 . S
C561 C558 1.499 . S
C561 C562 1.373 1_655 S
C561 C563 1.389 . S
C562 H535 0.950 . S
C562 C548 1.377 . S
C562 C561 1.373 1_455 S
C563 C547 1.377 . S
C563 C561 1.389 . S
C563 C564 1.524 . S
C564 C563 1.524 . S
C564 C565 1.397 . S
C564 C569 1.363 . S
C565 H536 0.950 . S
C565 C564 1.397 . S
C565 C566 1.334 . S
C566 H537 0.950 . S
C566 C565 1.334 . S
C566 C567 1.287 . S
C567 C566 1.287 . S
C567 C568 1.524 . S
C567 H570 0.999 . S
C568 H538 0.950 . S
C568 C567 1.524 . S
C568 C569 1.415 . S
C569 H539 0.950 . S
C569 C564 1.363 . S
C569 C568 1.415 . S
H570 C567 0.999 . S
H571 C552 0.913 . S
H572 C590 0.951 . S
H573 C592 0.951 . S
H574 C594 0.950 . S
H575 C595 0.950 . S
H576 C597 0.950 . S
H577 C600 0.950 . S
H578 C601 0.950 . S
H579 C603 0.950 . S
H580 C604 0.950 . S
H581 C605 0.951 . S
H582 C607 0.951 . S
H583 C609 0.950 . S
H584 C610 0.950 . S
H585 C612 0.950 . S
H586 C615 0.949 1_545 S
H587 C616 0.950 . S
H588 C618 0.950 . S
H589 C619 0.945 1_554 S
C590 H572 0.951 . S
C590 C591 1.366 1_556 S
C590 C592 1.388 . S
C591 C590 1.366 1_554 S
C591 C595 1.385 . S
C592 H573 0.951 . S
C592 C590 1.388 . S
C592 C593 1.366 . S
C593 C592 1.366 . S
C593 C594 1.414 1_556 S
C593 C596 1.499 . S
C594 H574 0.950 . S
C594 C593 1.414 1_554 S
C594 C595 1.374 . S
C595 H575 0.950 . S
C595 C591 1.385 . S
C595 C594 1.374 . S
C596 C593 1.499 . S
C596 C597 1.373 . S
C596 C598 1.389 . S
C597 H576 0.950 . S
C597 C596 1.373 . S
C597 C613 1.377 . S
C598 C596 1.389 . S
C598 C599 1.524 . S
C598 C612 1.377 . S
C599 C598 1.524 . S
C599 C600 1.397 . S
C599 C604 1.363 . S
C600 H577 0.950 . S
C600 C599 1.397 . S
C600 C601 1.334 . S
C601 H578 0.950 . S
C601 C600 1.334 . S
C601 C602 1.287 . S
C602 C601 1.287 . S
C602 C603 1.524 . S
C602 H621 0.913 . S
C603 H579 0.950 . S
C603 C602 1.524 . S
C603 C604 1.415 . S
C604 H580 0.950 . S
C604 C599 1.363 . S
C604 C603 1.415 . S
C605 H581 0.951 . S
C605 C606 1.366 . S
C605 C607 1.388 . S
C606 C605 1.366 . S
C606 C610 1.385 . S
C607 H582 0.951 . S
C607 C605 1.388 . S
C607 C608 1.366 . S
C608 C607 1.366 . S
C608 C609 1.414 . S
C608 C611 1.499 . S
C609 H583 0.950 . S
C609 C608 1.414 . S
C609 C610 1.374 . S
C610 H584 0.950 . S
C610 C606 1.385 . S
C610 C609 1.374 . S
C611 C608 1.499 . S
C611 C612 1.373 . S
C611 C613 1.389 . S
C612 H585 0.950 . S
C612 C598 1.377 . S
C612 C611 1.373 . S
C613 C597 1.377 . S
C613 C611 1.389 . S
C613 C614 1.524 . S
C614 C613 1.524 . S
C614 C615 1.397 . S
C614 C619 1.379 . S
C615 H586 0.949 1_565 S
C615 C614 1.397 . S
C615 C616 1.334 1_565 S
C616 H587 0.950 . S
C616 C615 1.334 1_545 S
C616 C617 1.287 1_556 S
C617 C616 1.287 1_554 S
C617 C618 1.524 1_545 S
C617 H620 0.999 . S
C618 H588 0.950 . S
C618 C617 1.524 1_565 S
C618 C619 1.405 1_554 S
C619 H589 0.945 1_556 S
C619 C614 1.379 . S
C619 C618 1.405 1_556 S
H620 C617 0.999 . S
H621 C602 0.913 . S
H622 C640 0.951 . S
H623 C642 0.951 . S
H624 C644 0.950 . S
H625 C645 0.950 . S
H626 C647 0.950 . S
H627 C650 0.950 . S
H628 C651 0.950 . S
H629 C653 0.950 . S
H630 C654 0.950 . S
H631 C655 0.951 . S
H632 C657 0.951 . S
H633 C659 0.950 . S
H634 C660 0.950 . S
H635 C662 0.950 . S
H636 C665 0.950 . S
H637 C666 0.950 . S
H638 C668 0.950 . S
H639 C669 0.950 . S
C640 H622 0.951 . S
C640 C641 1.366 . S
C640 C642 1.388 . S
C641 C640 1.366 . S
C641 C645 1.385 . S
C642 H623 0.951 . S
C642 C640 1.388 . S
C642 C643 1.366 1_554 S
C643 C642 1.366 1_556 S
C643 C644 1.414 . S
C643 C646 1.499 . S
C644 H624 0.950 . S
C644 C643 1.414 . S
C644 C645 1.374 1_556 S
C645 H625 0.950 . S
C645 C641 1.385 . S
C645 C644 1.374 1_554 S
C646 C643 1.499 . S
C646 C647 1.373 . S
C646 C648 1.389 . S
C647 H626 0.950 . S
C647 C646 1.373 . S
C647 C663 1.377 . S
C648 C646 1.389 . S
C648 C649 1.524 1_556 S
C648 C662 1.377 . S
C649 C648 1.524 1_554 S
C649 C650 1.397 . S
C649 C654 1.363 . S
C650 H627 0.950 . S
C650 C649 1.397 . S
C650 C651 1.334 . S
C651 H628 0.950 . S
C651 C650 1.334 . S
C651 C652 1.287 . S
C652 C651 1.287 . S
C652 C653 1.524 . S
C652 H671 0.913 . S
C653 H629 0.950 . S
C653 C652 1.524 . S
C653 C654 1.415 . S
C654 H630 0.950 . S
C654 C649 1.363 . S
C654 C653 1.415 . S
C655 H631 0.951 . S
C655 C656 1.366 . S
C655 C657 1.388 . S
C656 C655 1.366 . S
C656 C660 1.385 . S
C657 H632 0.951 . S
C657 C655 1.388 . S
C657 C658 1.366 . S
C658 C657 1.366 . S
C658 C659 1.414 . S
C658 C661 1.499 . S
C659 H633 0.950 . S
C659 C658 1.414 . S
C659 C660 1.374 . S
C660 H634 0.950 . S
C660 C656 1.385 . S
C660 C659 1.374 . S
C661 C658 1.499 . S
C661 C662 1.373 . S
C661 C663 1.389 . S
C662 H635 0.950 . S
C662 C648 1.377 . S
C662 C661 1.373 . S
C663 C647 1.377 . S
C663 C661 1.389 . S
C663 C664 1.524 . S
C664 C663 1.524 . S
C664 C665 1.397 . S
C664 C669 1.363 . S
C665 H636 0.950 . S
C665 C664 1.397 . S
C665 C666 1.334 . S
C666 H637 0.950 . S
C666 C665 1.334 . S
C666 C667 1.287 . S
C667 C666 1.287 . S
C667 C668 1.524 . S
C667 H670 0.999 . S
C668 H638 0.950 . S
C668 C667 1.524 . S
C668 C669 1.415 . S
C669 H639 0.950 . S
C669 C664 1.363 . S
C669 C668 1.415 . S
H670 C667 0.999 . S
H671 C652 0.913 . S
H672 C690 0.951 . S
H673 C692 0.951 . S
H674 C694 0.950 . S
H675 C695 0.950 . S
H676 C697 0.950 . S
H677 C700 0.950 . S
H678 C701 0.950 . S
H679 C703 0.950 . S
H680 C704 0.950 . S
H681 C705 0.951 . S
H682 C707 0.951 . S
H683 C709 0.950 . S
H684 C710 0.950 . S
H685 C712 0.950 . S
H686 C715 0.950 . S
H687 C716 0.950 . S
H688 C718 0.950 . S
H689 C719 0.950 . S
C690 H672 0.951 . S
C690 C691 1.366 . S
C690 C692 1.388 . S
C691 C690 1.366 . S
C691 C695 1.385 1_554 S
C692 H673 0.951 . S
C692 C690 1.388 . S
C692 C693 1.366 1_554 S
C693 C692 1.366 1_556 S
C693 C694 1.414 . S
C693 C696 1.499 . S
C694 H674 0.950 . S
C694 C693 1.414 . S
C694 C695 1.374 . S
C695 H675 0.950 . S
C695 C691 1.385 1_556 S
C695 C694 1.374 . S
C696 C693 1.499 . S
C696 C697 1.373 . S
C696 C698 1.389 . S
C697 H676 0.950 . S
C697 C696 1.373 . S
C697 C713 1.377 . S
C698 C696 1.389 . S
C698 C699 1.524 . S
C698 C712 1.377 . S
C699 C698 1.524 . S
C699 C700 1.397 . S
C699 C704 1.363 1_556 S
C700 H677 0.950 . S
C700 C699 1.397 . S
C700 C701 1.334 . S
C701 H678 0.950 . S
C701 C700 1.334 . S
C701 C702 1.287 1_556 S
C702 C701 1.287 1_554 S
C702 C703 1.524 . S
C702 H721 0.913 . S
C703 H679 0.950 . S
C703 C702 1.524 . S
C703 C704 1.415 . S
C704 H680 0.950 . S
C704 C699 1.363 1_554 S
C704 C703 1.415 . S
C705 H681 0.951 . S
C705 C706 1.366 . S
C705 C707 1.388 . S
C706 C705 1.366 . S
C706 C710 1.385 . S
C707 H682 0.951 . S
C707 C705 1.388 . S
C707 C708 1.366 . S
C708 C707 1.366 . S
C708 C709 1.414 . S
C708 C711 1.499 . S
C709 H683 0.950 . S
C709 C708 1.414 . S
C709 C710 1.374 . S
C710 H684 0.950 . S
C710 C706 1.385 . S
C710 C709 1.374 . S
C711 C708 1.499 . S
C711 C712 1.373 . S
C711 C713 1.389 . S
C712 H685 0.950 . S
C712 C698 1.377 . S
C712 C711 1.373 . S
C713 C697 1.377 . S
C713 C711 1.389 . S
C713 C714 1.524 . S
C714 C713 1.524 . S
C714 C715 1.397 . S
C714 C719 1.363 . S
C715 H686 0.950 . S
C715 C714 1.397 . S
C715 C716 1.334 . S
C716 H687 0.950 . S
C716 C715 1.334 . S
C716 C717 1.287 . S
C717 C716 1.287 . S
C717 C718 1.524 . S
C717 H720 0.999 . S
C718 H688 0.950 . S
C718 C717 1.524 . S
C718 C719 1.415 . S
C719 H689 0.950 . S
C719 C714 1.363 . S
C719 C718 1.415 . S
H720 C717 0.999 . S
H721 C702 0.913 . S
H722 C740 0.951 . S
H723 C742 0.951 . S
H724 C744 0.950 . S
H725 C745 0.950 . S
H726 C747 0.950 . S
H727 C750 0.950 1_556 S
H728 C751 0.950 . S
H729 C753 0.950 . S
H730 C754 0.950 . S
H731 C755 0.951 . S
H732 C757 0.951 . S
H733 C759 0.950 . S
H734 C760 0.953 . S
H735 C762 0.950 . S
H736 C765 0.950 . S
H737 C766 0.950 . S
H738 C768 0.950 . S
H739 C769 0.950 . S
C740 H722 0.951 . S
C740 C741 1.364 1_655 S
C740 C742 1.388 . S
C741 C740 1.364 1_455 S
C741 C745 1.386 1_554 S
C742 H723 0.951 . S
C742 C740 1.388 . S
C742 C743 1.366 1_654 S
C743 C742 1.366 1_456 S
C743 C744 1.414 . S
C743 C746 1.499 . S
C744 H724 0.950 . S
C744 C743 1.414 . S
C744 C745 1.374 . S
C745 H725 0.950 . S
C745 C741 1.386 1_556 S
C745 C744 1.374 . S
C746 C743 1.499 . S
C746 C747 1.373 1_455 S
C746 C748 1.389 . S
C747 H726 0.950 . S
C747 C746 1.373 1_655 S
C747 C763 1.377 . S
C748 C746 1.389 . S
C748 C749 1.524 1_556 S
C748 C762 1.377 . S
C749 C748 1.524 1_554 S
C749 C750 1.397 . S
C749 C754 1.363 . S
C750 H727 0.950 1_554 S
C750 C749 1.397 . S
C750 C751 1.334 . S
C751 H728 0.950 . S
C751 C750 1.334 . S
C751 C752 1.287 . S
C752 C751 1.287 . S
C752 C753 1.524 . S
C752 H771 0.913 . S
C753 H729 0.950 . S
C753 C752 1.524 . S
C753 C754 1.415 . S
C754 H730 0.950 . S
C754 C749 1.363 . S
C754 C753 1.415 . S
C755 H731 0.951 . S
C755 C756 1.366 . S
C755 C757 1.388 . S
C756 C755 1.366 . S
C756 C760 1.381 1_455 S
C757 H732 0.951 . S
C757 C755 1.388 . S
C757 C758 1.366 . S
C758 C757 1.366 . S
C758 C759 1.414 1_455 S
C758 C761 1.499 . S
C759 H733 0.950 . S
C759 C758 1.414 1_655 S
C759 C760 1.374 . S
C760 H734 0.953 . S
C760 C756 1.381 1_655 S
C760 C759 1.374 . S
C761 C758 1.499 . S
C761 C762 1.373 . S
C761 C763 1.389 1_455 S
C762 H735 0.950 . S
C762 C748 1.377 . S
C762 C761 1.373 . S
C763 C747 1.377 . S
C763 C761 1.389 1_655 S
C763 C764 1.524 . S
C764 C763 1.524 . S
C764 C765 1.397 . S
C764 C769 1.363 . S
C765 H736 0.950 . S
C765 C764 1.397 . S
C765 C766 1.334 . S
C766 H737 0.950 . S
C766 C765 1.334 . S
C766 C767 1.287 . S
C767 C766 1.287 . S
C767 C768 1.524 . S
C767 H770 0.999 . S
C768 H738 0.950 . S
C768 C767 1.524 . S
C768 C769 1.415 . S
C769 H739 0.950 . S
C769 C764 1.363 . S
C769 C768 1.415 . S
H770 C767 0.999 . S
H771 C752 0.913 . S
H772 C790 0.951 . S
H773 C792 0.951 . S
H774 C794 0.950 . S
H775 C795 0.950 . S
H776 C797 0.950 . S
H777 C800 0.950 . S
H778 C801 0.950 . S
H779 C803 0.950 . S
H780 C804 0.950 . S
H781 C805 0.951 . S
H782 C807 0.951 . S
H783 C809 0.950 . S
H784 C810 0.950 . S
H785 C812 0.950 . S
H786 C815 0.950 . S
H787 C816 0.950 . S
H788 C818 0.950 . S
H789 C819 0.950 . S
C790 H772 0.951 . S
C790 C791 1.366 . S
C790 C792 1.388 . S
C791 C790 1.366 . S
C791 C795 1.385 1_455 S
C792 H773 0.951 . S
C792 C790 1.388 . S
C792 C793 1.366 1_455 S
C793 C792 1.366 1_655 S
C793 C794 1.414 . S
C793 C796 1.499 . S
C794 H774 0.950 . S
C794 C793 1.414 . S
C794 C795 1.374 . S
C795 H775 0.950 . S
C795 C791 1.385 1_655 S
C795 C794 1.374 . S
C796 C793 1.499 . S
C796 C797 1.373 . S
C796 C798 1.389 1_655 S
C797 H776 0.950 . S
C797 C796 1.373 . S
C797 C813 1.377 . S
C798 C796 1.389 1_455 S
C798 C799 1.524 . S
C798 C812 1.377 . S
C799 C798 1.524 . S
C799 C800 1.397 . S
C799 C804 1.363 . S
C800 H777 0.950 . S
C800 C799 1.397 . S
C800 C801 1.334 . S
C801 H778 0.950 . S
C801 C800 1.334 . S
C801 C802 1.287 . S
C802 C801 1.287 . S
C802 C803 1.524 . S
C802 H821 0.913 . S
C803 H779 0.950 . S
C803 C802 1.524 . S
C803 C804 1.415 . S
C804 H780 0.950 . S
C804 C799 1.363 . S
C804 C803 1.415 . S
C805 H781 0.951 . S
C805 C806 1.366 . S
C805 C807 1.388 . S
C806 C805 1.366 . S
C806 C810 1.385 . S
C807 H782 0.951 . S
C807 C805 1.388 . S
C807 C808 1.366 . S
C808 C807 1.366 . S
C808 C809 1.414 . S
C808 C811 1.499 . S
C809 H783 0.950 . S
C809 C808 1.414 . S
C809 C810 1.374 . S
C810 H784 0.950 . S
C810 C806 1.385 . S
C810 C809 1.374 . S
C811 C808 1.499 . S
C811 C812 1.373 1_655 S
C811 C813 1.389 . S
C812 H785 0.950 . S
C812 C798 1.377 . S
C812 C811 1.373 1_455 S
C813 C797 1.377 . S
C813 C811 1.389 . S
C813 C814 1.524 . S
C814 C813 1.524 . S
C814 C815 1.397 . S
C814 C819 1.363 . S
C815 H786 0.950 . S
C815 C814 1.397 . S
C815 C816 1.334 . S
C816 H787 0.950 . S
C816 C815 1.334 . S
C816 C817 1.287 . S
C817 C816 1.287 . S
C817 C818 1.524 . S
C817 H820 0.999 . S
C818 H788 0.950 . S
C818 C817 1.524 . S
C818 C819 1.415 . S
C819 H789 0.950 . S
C819 C814 1.363 . S
C819 C818 1.415 . S
H820 C817 0.999 . S
H821 C802 0.913 . S
H822 C840 0.951 . S
H823 C842 0.951 . S
H824 C844 0.950 . S
H825 C845 0.950 . S
H826 C847 0.950 . S
H827 C850 0.950 . S
H828 C851 0.950 . S
H829 C853 0.950 . S
H830 C854 0.950 . S
H831 C855 0.951 . S
H832 C857 0.951 . S
H833 C859 0.950 . S
H834 C860 0.950 . S
H835 C862 0.950 . S
H836 C865 0.950 . S
H837 C866 0.950 . S
H838 C868 0.950 . S
H839 C869 0.950 . S
C840 H822 0.951 . S
C840 C841 1.366 . S
C840 C842 1.388 . S
C841 C840 1.366 . S
C841 C845 1.385 . S
C842 H823 0.951 . S
C842 C840 1.388 . S
C842 C843 1.366 . S
C843 C842 1.366 . S
C843 C844 1.414 . S
C843 C846 1.499 . S
C844 H824 0.950 . S
C844 C843 1.414 . S
C844 C845 1.374 . S
C845 H825 0.950 . S
C845 C841 1.385 . S
C845 C844 1.374 . S
C846 C843 1.499 . S
C846 C847 1.373 . S
C846 C848 1.389 . S
C847 H826 0.950 . S
C847 C846 1.373 . S
C847 C863 1.377 . S
C848 C846 1.389 . S
C848 C849 1.524 . S
C848 C862 1.377 . S
C849 C848 1.524 . S
C849 C850 1.397 . S
C849 C854 1.363 . S
C850 H827 0.950 . S
C850 C849 1.397 . S
C850 C851 1.334 . S
C851 H828 0.950 . S
C851 C850 1.334 . S
C851 C852 1.287 . S
C852 C851 1.287 . S
C852 C853 1.524 . S
C852 H871 0.913 . S
C853 H829 0.950 . S
C853 C852 1.524 . S
C853 C854 1.415 . S
C854 H830 0.950 . S
C854 C849 1.363 . S
C854 C853 1.415 . S
C855 H831 0.951 . S
C855 C856 1.366 . S
C855 C857 1.388 . S
C856 C855 1.366 . S
C856 C860 1.385 . S
C857 H832 0.951 . S
C857 C855 1.388 . S
C857 C858 1.366 . S
C858 C857 1.366 . S
C858 C859 1.414 . S
C858 C861 1.499 . S
C859 H833 0.950 . S
C859 C858 1.414 . S
C859 C860 1.374 . S
C860 H834 0.950 . S
C860 C856 1.385 . S
C860 C859 1.374 . S
C861 C858 1.499 . S
C861 C862 1.373 . S
C861 C863 1.389 . S
C862 H835 0.950 . S
C862 C848 1.377 . S
C862 C861 1.373 . S
C863 C847 1.377 . S
C863 C861 1.389 . S
C863 C864 1.524 . S
C864 C863 1.524 . S
C864 C865 1.397 . S
C864 C869 1.363 . S
C865 H836 0.950 . S
C865 C864 1.397 . S
C865 C866 1.334 1_545 S
C866 H837 0.950 . S
C866 C865 1.334 1_565 S
C866 C867 1.287 1_565 S
C867 C866 1.287 1_545 S
C867 C868 1.524 . S
C867 H870 0.999 1_545 S
C868 H838 0.950 . S
C868 C867 1.524 . S
C868 C869 1.415 . S
C869 H839 0.950 . S
C869 C864 1.363 . S
C869 C868 1.415 . S
H870 C867 0.999 1_565 S
H871 C852 0.913 . S
H872 C890 0.951 . S
H873 C892 0.951 . S
H874 C894 0.950 . S
H875 C895 0.950 . S
H876 C897 0.950 . S
H877 C900 0.950 . S
H878 C901 0.950 . S
H879 C903 0.950 . S
H880 C904 0.950 . S
H881 C905 0.951 . S
H882 C907 0.951 . S
H883 C909 0.950 . S
H884 C910 0.950 . S
H885 C912 0.950 . S
H886 C915 0.950 . S
H887 C916 0.950 . S
H888 C918 0.950 . S
H889 C919 0.950 . S
C890 H872 0.951 . S
C890 C891 1.366 . S
C890 C892 1.388 . S
C891 C890 1.366 . S
C891 C895 1.385 . S
C892 H873 0.951 . S
C892 C890 1.388 . S
C892 C893 1.366 . S
C893 C892 1.366 . S
C893 C894 1.414 . S
C893 C896 1.499 . S
C894 H874 0.950 . S
C894 C893 1.414 . S
C894 C895 1.374 . S
C895 H875 0.950 . S
C895 C891 1.385 . S
C895 C894 1.374 . S
C896 C893 1.499 . S
C896 C897 1.373 . S
C896 C898 1.389 . S
C897 H876 0.950 . S
C897 C896 1.373 . S
C897 C913 1.377 . S
C898 C896 1.389 . S
C898 C899 1.524 . S
C898 C912 1.377 . S
C899 C898 1.524 . S
C899 C900 1.397 . S
C899 C904 1.363 . S
C900 H877 0.950 . S
C900 C899 1.397 . S
C900 C901 1.334 . S
C901 H878 0.950 . S
C901 C900 1.334 . S
C901 C902 1.287 . S
C902 C901 1.287 . S
C902 C903 1.524 . S
C902 H921 0.913 . S
C903 H879 0.950 . S
C903 C902 1.524 . S
C903 C904 1.415 . S
C904 H880 0.950 . S
C904 C899 1.363 . S
C904 C903 1.415 . S
C905 H881 0.951 . S
C905 C906 1.366 . S
C905 C907 1.388 . S
C906 C905 1.366 . S
C906 C910 1.385 . S
C907 H882 0.951 . S
C907 C905 1.388 . S
C907 C908 1.366 . S
C908 C907 1.366 . S
C908 C909 1.414 . S
C908 C911 1.499 . S
C909 H883 0.950 . S
C909 C908 1.414 . S
C909 C910 1.374 . S
C910 H884 0.950 . S
C910 C906 1.385 . S
C910 C909 1.374 . S
C911 C908 1.499 . S
C911 C912 1.373 . S
C911 C913 1.389 . S
C912 H885 0.950 . S
C912 C898 1.377 . S
C912 C911 1.373 . S
C913 C897 1.377 . S
C913 C911 1.389 . S
C913 C914 1.524 . S
C914 C913 1.524 . S
C914 C915 1.397 . S
C914 C919 1.363 . S
C915 H886 0.950 . S
C915 C914 1.397 . S
C915 C916 1.334 . S
C916 H887 0.950 . S
C916 C915 1.334 . S
C916 C917 1.287 . S
C917 C916 1.287 . S
C917 C918 1.524 . S
C917 H920 0.999 . S
C918 H888 0.950 . S
C918 C917 1.524 . S
C918 C919 1.415 . S
C919 H889 0.950 . S
C919 C914 1.363 . S
C919 C918 1.415 . S
H920 C917 0.999 . S
H921 C902 0.913 . S
H922 C940 0.951 . S
H923 C942 0.951 . S
H924 C944 0.950 . S
H925 C945 0.950 . S
H926 C947 0.950 . S
H927 C950 0.950 . S
H928 C951 0.950 . S
H929 C953 0.950 . S
H930 C954 0.950 . S
H931 C955 0.951 . S
H932 C957 0.951 . S
H933 C959 0.950 . S
H934 C960 0.950 . S
H935 C962 0.950 . S
H936 C965 0.950 . S
H937 C966 0.950 . S
H938 C968 0.950 . S
H939 C969 0.950 . S
C940 H922 0.951 . S
C940 C941 1.366 . S
C940 C942 1.388 . S
C941 C940 1.366 . S
C941 C945 1.385 . S
C942 H923 0.951 . S
C942 C940 1.388 . S
C942 C943 1.366 . S
C943 C942 1.366 . S
C943 C944 1.414 . S
C943 C946 1.499 . S
C944 H924 0.950 . S
C944 C943 1.414 . S
C944 C945 1.374 . S
C945 H925 0.950 . S
C945 C941 1.385 . S
C945 C944 1.374 . S
C946 C943 1.499 . S
C946 C947 1.373 . S
C946 C948 1.389 . S
C947 H926 0.950 . S
C947 C946 1.373 . S
C947 C963 1.377 . S
C948 C946 1.389 . S
C948 C949 1.524 . S
C948 C962 1.377 . S
C949 C948 1.524 . S
C949 C950 1.397 . S
C949 C954 1.363 . S
C950 H927 0.950 . S
C950 C949 1.397 . S
C950 C951 1.334 . S
C951 H928 0.950 . S
C951 C950 1.334 . S
C951 C952 1.287 . S
C952 C951 1.287 . S
C952 C953 1.524 . S
C952 H971 0.913 . S
C953 H929 0.950 . S
C953 C952 1.524 . S
C953 C954 1.415 . S
C954 H930 0.950 . S
C954 C949 1.363 . S
C954 C953 1.415 . S
C955 H931 0.951 . S
C955 C956 1.366 . S
C955 C957 1.388 . S
C956 C955 1.366 . S
C956 C960 1.385 . S
C957 H932 0.951 . S
C957 C955 1.388 . S
C957 C958 1.366 . S
C958 C957 1.366 . S
C958 C959 1.414 . S
C958 C961 1.499 . S
C959 H933 0.950 . S
C959 C958 1.414 . S
C959 C960 1.374 . S
C960 H934 0.950 . S
C960 C956 1.385 . S
C960 C959 1.374 . S
C961 C958 1.499 . S
C961 C962 1.373 . S
C961 C963 1.389 . S
C962 H935 0.950 . S
C962 C948 1.377 . S
C962 C961 1.373 . S
C963 C947 1.377 . S
C963 C961 1.389 . S
C963 C964 1.524 . S
C964 C963 1.524 . S
C964 C965 1.397 . S
C964 C969 1.363 . S
C965 H936 0.950 . S
C965 C964 1.397 . S
C965 C966 1.334 . S
C966 H937 0.950 . S
C966 C965 1.334 . S
C966 C967 1.287 . S
C967 C966 1.287 . S
C967 C968 1.524 . S
C967 H970 0.999 . S
C968 H938 0.950 . S
C968 C967 1.524 . S
C968 C969 1.415 . S
C969 H939 0.950 . S
C969 C964 1.363 . S
C969 C968 1.415 . S
H970 C967 0.999 . S
H971 C952 0.913 . S
H972 C990 0.951 1_554 S
H973 C992 0.951 . S
H974 C994 0.950 . S
H975 C995 0.950 . S
H976 C997 0.950 . S
H977 C1000 0.950 . S
H978 C1001 0.950 . S
H979 C1003 0.950 1_554 S
H980 C1004 0.950 . S
H981 C1005 0.951 . S
H982 C1007 0.951 . S
H983 C1009 0.950 . S
H984 C1010 0.950 . S
H985 C1012 0.950 . S
H986 C1015 0.950 . S
H987 C1016 0.950 . S
H988 C1018 0.950 . S
H989 C1019 0.950 . S
C990 H972 0.951 1_556 S
C990 C991 1.366 . S
C990 C992 1.388 . S
C991 C990 1.366 . S
C991 C995 1.385 1_655 S
C992 H973 0.951 . S
C992 C990 1.388 . S
C992 C993 1.360 1_655 S
C993 C992 1.360 1_455 S
C993 C994 1.418 . S
C993 C996 1.505 . S
C994 H974 0.950 . S
C994 C993 1.418 . S
C994 C995 1.374 . S
C995 H975 0.950 . S
C995 C991 1.385 1_455 S
C995 C994 1.374 . S
C996 C993 1.505 . S
C996 C997 1.373 . S
C996 C998 1.389 1_455 S
C997 H976 0.950 . S
C997 C996 1.373 . S
C997 C1013 1.377 . S
C998 C996 1.389 1_655 S
C998 C999 1.524 . S
C998 C1012 1.377 . S
C999 C998 1.524 . S
C999 C1000 1.397 . S
C999 C1004 1.363 . S
C1000 H977 0.950 . S
C1000 C999 1.397 . S
C1000 C1001 1.334 . S
C1001 H978 0.950 . S
C1001 C1000 1.334 . S
C1001 C1002 1.287 . S
C1002 C1001 1.287 . S
C1002 C1003 1.524 . S
C1002 H1021 0.913 . S
C1003 H979 0.950 1_556 S
C1003 C1002 1.524 . S
C1003 C1004 1.415 . S
C1004 H980 0.950 . S
C1004 C999 1.363 . S
C1004 C1003 1.415 . S
C1005 H981 0.951 . S
C1005 C1006 1.366 . S
C1005 C1007 1.388 . S
C1006 C1005 1.366 . S
C1006 C1010 1.385 . S
C1007 H982 0.951 . S
C1007 C1005 1.388 . S
C1007 C1008 1.366 . S
C1008 C1007 1.366 . S
C1008 C1009 1.414 . S
C1008 C1011 1.499 . S
C1009 H983 0.950 . S
C1009 C1008 1.414 . S
C1009 C1010 1.374 . S
C1010 H984 0.950 . S
C1010 C1006 1.385 . S
C1010 C1009 1.374 . S
C1011 C1008 1.499 . S
C1011 C1012 1.373 1_455 S
C1011 C1013 1.389 . S
C1012 H985 0.950 . S
C1012 C998 1.377 . S
C1012 C1011 1.373 1_655 S
C1013 C997 1.377 . S
C1013 C1011 1.389 . S
C1013 C1014 1.524 . S
C1014 C1013 1.524 . S
C1014 C1015 1.397 . S
C1014 C1019 1.363 . S
C1015 H986 0.950 . S
C1015 C1014 1.397 . S
C1015 C1016 1.334 . S
C1016 H987 0.950 . S
C1016 C1015 1.334 . S
C1016 C1017 1.287 . S
C1017 C1016 1.287 . S
C1017 C1018 1.524 . S
C1017 H1020 0.999 . S
C1018 H988 0.950 . S
C1018 C1017 1.524 . S
C1018 C1019 1.415 . S
C1019 H989 0.950 . S
C1019 C1014 1.363 . S
C1019 C1018 1.415 . S
H1020 C1017 0.999 . S
H1021 C1002 0.913 . S
H1022 C1040 0.951 . S
H1023 C1042 0.951 . S
H1024 C1044 0.950 . S
H1025 C1045 0.950 . S
H1026 C1047 0.950 . S
H1027 C1050 0.950 . S
H1028 C1051 0.950 . S
H1029 C1053 0.950 . S
H1030 C1054 0.950 . S
H1031 C1055 0.951 . S
H1032 C1057 0.951 . S
H1033 C1059 0.950 1_545 S
H1034 C1060 0.950 . S
H1035 C1062 0.950 . S
H1036 C1065 0.950 . S
H1037 C1066 0.950 . S
H1038 C1068 0.950 . S
H1039 C1069 0.950 . S
C1040 H1022 0.951 . S
C1040 C1041 1.366 . S
C1040 C1042 1.388 . S
C1041 C1040 1.366 . S
C1041 C1045 1.385 . S
C1042 H1023 0.951 . S
C1042 C1040 1.388 . S
C1042 C1043 1.366 . S
C1043 C1042 1.366 . S
C1043 C1044 1.414 . S
C1043 C1046 1.499 . S
C1044 H1024 0.950 . S
C1044 C1043 1.414 . S
C1044 C1045 1.374 . S
C1045 H1025 0.950 . S
C1045 C1041 1.385 . S
C1045 C1044 1.374 . S
C1046 C1043 1.499 . S
C1046 C1047 1.373 . S
C1046 C1048 1.389 . S
C1047 H1026 0.950 . S
C1047 C1046 1.373 . S
C1047 C1063 1.377 . S
C1048 C1046 1.389 . S
C1048 C1049 1.524 . S
C1048 C1062 1.377 . S
C1049 C1048 1.524 . S
C1049 C1050 1.397 . S
C1049 C1054 1.363 . S
C1050 H1027 0.950 . S
C1050 C1049 1.397 . S
C1050 C1051 1.334 1_556 S
C1051 H1028 0.950 . S
C1051 C1050 1.334 1_554 S
C1051 C1052 1.287 . S
C1052 C1051 1.287 . S
C1052 C1053 1.524 . S
C1052 H1071 0.913 . S
C1053 H1029 0.950 . S
C1053 C1052 1.524 . S
C1053 C1054 1.415 1_554 S
C1054 H1030 0.950 . S
C1054 C1049 1.363 . S
C1054 C1053 1.415 1_556 S
C1055 H1031 0.951 . S
C1055 C1056 1.366 1_565 S
C1055 C1057 1.388 . S
C1056 C1055 1.366 1_545 S
C1056 C1060 1.385 . S
C1057 H1032 0.951 . S
C1057 C1055 1.388 . S
C1057 C1058 1.366 . S
C1058 C1057 1.366 . S
C1058 C1059 1.414 . S
C1058 C1061 1.499 . S
C1059 H1033 0.950 1_565 S
C1059 C1058 1.414 . S
C1059 C1060 1.374 1_565 S
C1060 H1034 0.950 . S
C1060 C1056 1.385 . S
C1060 C1059 1.374 1_545 S
C1061 C1058 1.499 . S
C1061 C1062 1.373 . S
C1061 C1063 1.389 . S
C1062 H1035 0.950 . S
C1062 C1048 1.377 . S
C1062 C1061 1.373 . S
C1063 C1047 1.377 . S
C1063 C1061 1.389 . S
C1063 C1064 1.524 . S
C1064 C1063 1.524 . S
C1064 C1065 1.397 . S
C1064 C1069 1.363 . S
C1065 H1036 0.950 . S
C1065 C1064 1.397 . S
C1065 C1066 1.334 . S
C1066 H1037 0.950 . S
C1066 C1065 1.334 . S
C1066 C1067 1.287 . S
C1067 C1066 1.287 . S
C1067 C1068 1.524 . S
C1067 H1070 0.999 . S
C1068 H1038 0.950 . S
C1068 C1067 1.524 . S
C1068 C1069 1.415 . S
C1069 H1039 0.950 . S
C1069 C1064 1.363 . S
C1069 C1068 1.415 . S
H1070 C1067 0.999 . S
H1071 C1052 0.913 . S
H1072 C1090 0.951 . S
H1073 C1092 0.951 . S
H1074 C1094 0.950 . S
H1075 C1095 0.950 1_554 S
H1076 C1097 0.950 . S
H1077 C1100 0.950 . S
H1078 C1101 0.950 . S
H1079 C1103 0.950 . S
H1080 C1104 0.950 . S
H1081 C1105 0.951 . S
H1082 C1107 0.951 . S
H1083 C1109 0.950 . S
H1084 C1110 0.950 . S
H1085 C1112 0.950 . S
H1086 C1115 0.950 . S
H1087 C1116 0.950 . S
H1088 C1118 0.950 . S
H1089 C1119 0.950 . S
C1090 H1072 0.951 . S
C1090 C1091 1.366 . S
C1090 C1092 1.388 . S
C1091 C1090 1.366 . S
C1091 C1095 1.385 . S
C1092 H1073 0.951 . S
C1092 C1090 1.388 . S
C1092 C1093 1.366 . S
C1093 C1092 1.366 . S
C1093 C1094 1.414 . S
C1093 C1096 1.499 . S
C1094 H1074 0.950 . S
C1094 C1093 1.414 . S
C1094 C1095 1.374 . S
C1095 H1075 0.950 1_556 S
C1095 C1091 1.385 . S
C1095 C1094 1.374 . S
C1096 C1093 1.499 . S
C1096 C1097 1.373 . S
C1096 C1098 1.389 . S
C1097 H1076 0.950 . S
C1097 C1096 1.373 . S
C1097 C1113 1.377 . S
C1098 C1096 1.389 . S
C1098 C1099 1.524 . S
C1098 C1112 1.377 . S
C1099 C1098 1.524 . S
C1099 C1100 1.397 . S
C1099 C1104 1.363 . S
C1100 H1077 0.950 . S
C1100 C1099 1.397 . S
C1100 C1101 1.334 . S
C1101 H1078 0.950 . S
C1101 C1100 1.334 . S
C1101 C1102 1.287 . S
C1102 C1101 1.287 . S
C1102 C1103 1.524 . S
C1102 H1121 0.913 . S
C1103 H1079 0.950 . S
C1103 C1102 1.524 . S
C1103 C1104 1.415 . S
C1104 H1080 0.950 . S
C1104 C1099 1.363 . S
C1104 C1103 1.415 . S
C1105 H1081 0.951 . S
C1105 C1106 1.366 . S
C1105 C1107 1.388 . S
C1106 C1105 1.366 . S
C1106 C1110 1.385 . S
C1107 H1082 0.951 . S
C1107 C1105 1.388 . S
C1107 C1108 1.366 . S
C1108 C1107 1.366 . S
C1108 C1109 1.414 . S
C1108 C1111 1.499 . S
C1109 H1083 0.950 . S
C1109 C1108 1.414 . S
C1109 C1110 1.374 . S
C1110 H1084 0.950 . S
C1110 C1106 1.385 . S
C1110 C1109 1.374 . S
C1111 C1108 1.499 . S
C1111 C1112 1.373 . S
C1111 C1113 1.389 . S
C1112 H1085 0.950 . S
C1112 C1098 1.377 . S
C1112 C1111 1.373 . S
C1113 C1097 1.377 . S
C1113 C1111 1.389 . S
C1113 C1114 1.524 . S
C1114 C1113 1.524 . S
C1114 C1115 1.397 . S
C1114 C1119 1.363 . S
C1115 H1086 0.950 . S
C1115 C1114 1.397 . S
C1115 C1116 1.334 . S
C1116 H1087 0.950 . S
C1116 C1115 1.334 . S
C1116 C1117 1.287 . S
C1117 C1116 1.287 . S
C1117 C1118 1.524 1_556 S
C1117 H1120 0.999 1_556 S
C1118 H1088 0.950 . S
C1118 C1117 1.524 1_554 S
C1118 C1119 1.415 1_554 S
C1119 H1089 0.950 . S
C1119 C1114 1.363 . S
C1119 C1118 1.415 1_556 S
H1120 C1117 0.999 1_554 S
H1121 C1102 0.913 . S
H1122 C1140 0.951 . S
H1123 C1142 0.951 . S
H1124 C1144 0.950 . S
H1125 C1145 0.950 . S
H1126 C1147 0.950 . S
H1127 C1150 0.950 . S
H1128 C1151 0.950 . S
H1129 C1153 0.950 . S
H1130 C1154 0.950 . S
H1131 C1155 0.951 . S
H1132 C1157 0.951 . S
H1133 C1159 0.950 . S
H1134 C1160 0.950 . S
H1135 C1162 0.950 . S
H1136 C1165 0.950 . S
H1137 C1166 0.950 . S
H1138 C1168 0.950 . S
H1139 C1169 0.950 . S
C1140 H1122 0.951 . S
C1140 C1141 1.366 . S
C1140 C1142 1.388 . S
C1141 C1140 1.366 . S
C1141 C1145 1.385 . S
C1142 H1123 0.951 . S
C1142 C1140 1.388 . S
C1142 C1143 1.366 . S
C1143 C1142 1.366 . S
C1143 C1144 1.414 . S
C1143 C1146 1.499 . S
C1144 H1124 0.950 . S
C1144 C1143 1.414 . S
C1144 C1145 1.374 . S
C1145 H1125 0.950 . S
C1145 C1141 1.385 . S
C1145 C1144 1.374 . S
C1146 C1143 1.499 . S
C1146 C1147 1.373 . S
C1146 C1148 1.389 . S
C1147 H1126 0.950 . S
C1147 C1146 1.373 . S
C1147 C1163 1.377 . S
C1148 C1146 1.389 . S
C1148 C1149 1.524 . S
C1148 C1162 1.377 . S
C1149 C1148 1.524 . S
C1149 C1150 1.397 . S
C1149 C1154 1.363 . S
C1150 H1127 0.950 . S
C1150 C1149 1.397 . S
C1150 C1151 1.334 . S
C1151 H1128 0.950 . S
C1151 C1150 1.334 . S
C1151 C1152 1.287 . S
C1152 C1151 1.287 . S
C1152 C1153 1.524 1_556 S
C1152 H1171 0.913 1_556 S
C1153 H1129 0.950 . S
C1153 C1152 1.524 1_554 S
C1153 C1154 1.415 1_554 S
C1154 H1130 0.950 . S
C1154 C1149 1.363 . S
C1154 C1153 1.415 1_556 S
C1155 H1131 0.951 . S
C1155 C1156 1.366 . S
C1155 C1157 1.388 . S
C1156 C1155 1.366 . S
C1156 C1160 1.385 . S
C1157 H1132 0.951 . S
C1157 C1155 1.388 . S
C1157 C1158 1.366 . S
C1158 C1157 1.366 . S
C1158 C1159 1.414 . S
C1158 C1161 1.499 . S
C1159 H1133 0.950 . S
C1159 C1158 1.414 . S
C1159 C1160 1.374 . S
C1160 H1134 0.950 . S
C1160 C1156 1.385 . S
C1160 C1159 1.374 . S
C1161 C1158 1.499 . S
C1161 C1162 1.373 . S
C1161 C1163 1.389 . S
C1162 H1135 0.950 . S
C1162 C1148 1.377 . S
C1162 C1161 1.373 . S
C1163 C1147 1.377 . S
C1163 C1161 1.389 . S
C1163 C1164 1.524 . S
C1164 C1163 1.524 . S
C1164 C1165 1.397 . S
C1164 C1169 1.363 . S
C1165 H1136 0.950 . S
C1165 C1164 1.397 . S
C1165 C1166 1.334 . S
C1166 H1137 0.950 . S
C1166 C1165 1.334 . S
C1166 C1167 1.287 . S
C1167 C1166 1.287 . S
C1167 C1168 1.524 . S
C1167 H1170 0.999 . S
C1168 H1138 0.950 . S
C1168 C1167 1.524 . S
C1168 C1169 1.415 . S
C1169 H1139 0.950 . S
C1169 C1164 1.363 . S
C1169 C1168 1.415 . S
H1170 C1167 0.999 . S
H1171 C1152 0.913 1_554 S
H1172 C1190 0.951 . S
H1173 C1192 0.951 . S
H1174 C1194 0.950 . S
H1175 C1195 0.950 . S
H1176 C1197 0.950 . S
H1177 C1200 0.950 . S
H1178 C1201 0.950 . S
H1179 C1203 0.950 1_554 S
H1180 C1204 0.950 . S
H1181 C1205 0.951 . S
H1182 C1207 0.951 . S
H1183 C1209 0.950 . S
H1184 C1210 0.950 . S
H1185 C1212 0.950 . S
H1186 C1215 0.950 . S
H1187 C1216 0.950 . S
H1188 C1218 0.950 . S
H1189 C1219 0.950 . S
C1190 H1172 0.951 . S
C1190 C1191 1.390 . S
C1190 C1192 1.388 . S
C1191 C1190 1.390 . S
C1191 C1195 1.362 1_455 S
C1192 H1173 0.951 . S
C1192 C1190 1.388 . S
C1192 C1193 1.366 . S
C1193 C1192 1.366 . S
C1193 C1194 1.414 1_454 S
C1193 C1196 1.499 1_554 S
C1194 H1174 0.950 . S
C1194 C1193 1.414 1_656 S
C1194 C1195 1.374 1_556 S
C1195 H1175 0.950 . S
C1195 C1191 1.362 1_655 S
C1195 C1194 1.374 1_554 S
C1196 C1193 1.499 1_556 S
C1196 C1197 1.373 1_455 S
C1196 C1198 1.389 . S
C1197 H1176 0.950 . S
C1197 C1196 1.373 1_655 S
C1197 C1213 1.377 . S
C1198 C1196 1.389 . S
C1198 C1199 1.524 . S
C1198 C1212 1.377 . S
C1199 C1198 1.524 . S
C1199 C1200 1.397 . S
C1199 C1204 1.363 . S
C1200 H1177 0.950 . S
C1200 C1199 1.397 . S
C1200 C1201 1.334 . S
C1201 H1178 0.950 . S
C1201 C1200 1.334 . S
C1201 C1202 1.287 . S
C1202 C1201 1.287 . S
C1202 C1203 1.524 . S
C1202 H1221 0.913 . S
C1203 H1179 0.950 1_556 S
C1203 C1202 1.524 . S
C1203 C1204 1.415 . S
C1204 H1180 0.950 . S
C1204 C1199 1.363 . S
C1204 C1203 1.415 . S
C1205 H1181 0.951 . S
C1205 C1206 1.366 1_655 S
C1205 C1207 1.388 . S
C1206 C1205 1.366 1_455 S
C1206 C1210 1.385 . S
C1207 H1182 0.951 . S
C1207 C1205 1.388 . S
C1207 C1208 1.366 1_655 S
C1208 C1207 1.366 1_455 S
C1208 C1209 1.414 . S
C1208 C1211 1.499 . S
C1209 H1183 0.950 . S
C1209 C1208 1.414 . S
C1209 C1210 1.374 . S
C1210 H1184 0.950 . S
C1210 C1206 1.385 . S
C1210 C1209 1.374 . S
C1211 C1208 1.499 . S
C1211 C1212 1.373 . S
C1211 C1213 1.389 1_455 S
C1212 H1185 0.950 . S
C1212 C1198 1.377 . S
C1212 C1211 1.373 . S
C1213 C1197 1.377 . S
C1213 C1211 1.389 1_655 S
C1213 C1214 1.524 . S
C1214 C1213 1.524 . S
C1214 C1215 1.397 . S
C1214 C1219 1.363 . S
C1215 H1186 0.950 . S
C1215 C1214 1.397 . S
C1215 C1216 1.334 . S
C1216 H1187 0.950 . S
C1216 C1215 1.334 . S
C1216 C1217 1.287 . S
C1217 C1216 1.287 . S
C1217 C1218 1.524 . S
C1217 H1220 0.999 . S
C1218 H1188 0.950 . S
C1218 C1217 1.524 . S
C1218 C1219 1.415 . S
C1219 H1189 0.950 . S
C1219 C1214 1.363 . S
C1219 C1218 1.415 . S
H1220 C1217 0.999 . S
H1221 C1202 0.913 . S
H1222 C1240 0.951 . S
H1223 C1242 0.951 . S
H1224 C1244 0.950 1_556 S
H1225 C1245 0.950 . S
H1226 C1247 0.950 . S
H1227 C1250 0.950 . S
H1228 C1251 0.950 . S
H1229 C1253 0.950 . S
H1230 C1254 0.950 . S
H1231 C1255 0.951 . S
H1232 C1257 0.951 . S
H1233 C1259 0.950 . S
H1234 C1260 0.950 . S
H1235 C1262 0.950 . S
H1236 C1265 0.950 . S
H1237 C1266 0.950 . S
H1238 C1268 0.950 . S
H1239 C1269 0.950 . S
C1240 H1222 0.951 . S
C1240 C1241 1.366 . S
C1240 C1242 1.388 . S
C1241 C1240 1.366 . S
C1241 C1245 1.385 . S
C1242 H1223 0.951 . S
C1242 C1240 1.388 . S
C1242 C1243 1.366 . S
C1243 C1242 1.366 . S
C1243 C1244 1.414 . S
C1243 C1246 1.499 1_554 S
C1244 H1224 0.950 1_554 S
C1244 C1243 1.414 . S
C1244 C1245 1.374 . S
C1245 H1225 0.950 . S
C1245 C1241 1.385 . S
C1245 C1244 1.374 . S
C1246 C1243 1.499 1_556 S
C1246 C1247 1.373 . S
C1246 C1248 1.389 1_556 S
C1247 H1226 0.950 . S
C1247 C1246 1.373 . S
C1247 C1263 1.377 . S
C1248 C1246 1.389 1_554 S
C1248 C1249 1.524 . S
C1248 C1262 1.377 1_554 S
C1249 C1248 1.524 . S
C1249 C1250 1.397 . S
C1249 C1254 1.363 . S
C1250 H1227 0.950 . S
C1250 C1249 1.397 . S
C1250 C1251 1.334 . S
C1251 H1228 0.950 . S
C1251 C1250 1.334 . S
C1251 C1252 1.287 . S
C1252 C1251 1.287 . S
C1252 C1253 1.524 . S
C1252 H1271 0.913 . S
C1253 H1229 0.950 . S
C1253 C1252 1.524 . S
C1253 C1254 1.415 . S
C1254 H1230 0.950 . S
C1254 C1249 1.363 . S
C1254 C1253 1.415 . S
C1255 H1231 0.951 . S
C1255 C1256 1.366 . S
C1255 C1257 1.388 . S
C1256 C1255 1.366 . S
C1256 C1260 1.385 . S
C1257 H1232 0.951 . S
C1257 C1255 1.388 . S
C1257 C1258 1.366 . S
C1258 C1257 1.366 . S
C1258 C1259 1.414 . S
C1258 C1261 1.499 . S
C1259 H1233 0.950 . S
C1259 C1258 1.414 . S
C1259 C1260 1.374 . S
C1260 H1234 0.950 . S
C1260 C1256 1.385 . S
C1260 C1259 1.374 . S
C1261 C1258 1.499 . S
C1261 C1262 1.373 . S
C1261 C1263 1.389 . S
C1262 H1235 0.950 . S
C1262 C1248 1.377 1_556 S
C1262 C1261 1.373 . S
C1263 C1247 1.377 . S
C1263 C1261 1.389 . S
C1263 C1264 1.524 . S
C1264 C1263 1.524 . S
C1264 C1265 1.397 . S
C1264 C1269 1.363 . S
C1265 H1236 0.950 . S
C1265 C1264 1.397 . S
C1265 C1266 1.334 . S
C1266 H1237 0.950 . S
C1266 C1265 1.334 . S
C1266 C1267 1.287 . S
C1267 C1266 1.287 . S
C1267 C1268 1.524 . S
C1267 H1270 0.999 . S
C1268 H1238 0.950 . S
C1268 C1267 1.524 . S
C1268 C1269 1.415 . S
C1269 H1239 0.950 . S
C1269 C1264 1.363 . S
C1269 C1268 1.415 . S
H1270 C1267 0.999 . S
H1271 C1252 0.913 . S
H1272 C1290 0.951 . S
H1273 C1292 0.951 . S
H1274 C1294 0.950 1_556 S
H1275 C1295 0.950 . S
H1276 C1297 0.950 1_554 S
H1277 C1300 0.950 . S
H1278 C1301 0.950 . S
H1279 C1303 0.950 . S
H1280 C1304 0.950 . S
H1281 C1305 0.951 . S
H1282 C1307 0.951 . S
H1283 C1309 0.950 . S
H1284 C1310 0.950 . S
H1285 C1312 0.950 . S
H1286 C1315 0.950 . S
H1287 C1316 0.950 . S
H1288 C1318 0.950 . S
H1289 C1319 0.950 . S
C1290 H1272 0.951 . S
C1290 C1291 1.366 . S
C1290 C1292 1.388 . S
C1291 C1290 1.366 . S
C1291 C1295 1.385 . S
C1292 H1273 0.951 . S
C1292 C1290 1.388 . S
C1292 C1293 1.365 . S
C1293 C1292 1.365 . S
C1293 C1294 1.414 . S
C1293 C1296 1.499 1_554 S
C1294 H1274 0.950 1_554 S
C1294 C1293 1.414 . S
C1294 C1295 1.374 . S
C1295 H1275 0.950 . S
C1295 C1291 1.385 . S
C1295 C1294 1.374 . S
C1296 C1293 1.499 1_556 S
C1296 C1297 1.373 . S
C1296 C1298 1.389 . S
C1297 H1276 0.950 1_556 S
C1297 C1296 1.373 . S
C1297 C1313 1.377 . S
C1298 C1296 1.389 . S
C1298 C1299 1.524 . S
C1298 C1312 1.377 . S
C1299 C1298 1.524 . S
C1299 C1300 1.397 . S
C1299 C1304 1.363 . S
C1300 H1277 0.950 . S
C1300 C1299 1.397 . S
C1300 C1301 1.334 . S
C1301 H1278 0.950 . S
C1301 C1300 1.334 . S
C1301 C1302 1.287 . S
C1302 C1301 1.287 . S
C1302 C1303 1.524 . S
C1302 H1321 0.913 . S
C1303 H1279 0.950 . S
C1303 C1302 1.524 . S
C1303 C1304 1.415 . S
C1304 H1280 0.950 . S
C1304 C1299 1.363 . S
C1304 C1303 1.415 . S
C1305 H1281 0.951 . S
C1305 C1306 1.366 . S
C1305 C1307 1.388 . S
C1306 C1305 1.366 . S
C1306 C1310 1.385 . S
C1307 H1282 0.951 . S
C1307 C1305 1.388 . S
C1307 C1308 1.366 . S
C1308 C1307 1.366 . S
C1308 C1309 1.414 . S
C1308 C1311 1.499 . S
C1309 H1283 0.950 . S
C1309 C1308 1.414 . S
C1309 C1310 1.374 . S
C1310 H1284 0.950 . S
C1310 C1306 1.385 . S
C1310 C1309 1.374 . S
C1311 C1308 1.499 . S
C1311 C1312 1.373 . S
C1311 C1313 1.389 . S
C1312 H1285 0.950 . S
C1312 C1298 1.377 . S
C1312 C1311 1.373 . S
C1313 C1297 1.377 . S
C1313 C1311 1.389 . S
C1313 C1314 1.524 . S
C1314 C1313 1.524 . S
C1314 C1315 1.397 . S
C1314 C1319 1.363 . S
C1315 H1286 0.950 . S
C1315 C1314 1.397 . S
C1315 C1316 1.334 1_556 S
C1316 H1287 0.950 . S
C1316 C1315 1.334 1_554 S
C1316 C1317 1.287 . S
C1317 C1316 1.287 . S
C1317 C1318 1.524 1_554 S
C1317 H1320 0.999 . S
C1318 H1288 0.950 . S
C1318 C1317 1.524 1_556 S
C1318 C1319 1.415 . S
C1319 H1289 0.950 . S
C1319 C1314 1.363 . S
C1319 C1318 1.415 . S
H1320 C1317 0.999 . S
H1321 C1302 0.913 . S
H1322 C1340 0.951 . S
H1323 C1342 0.951 . S
H1324 C1344 0.950 1_556 S
H1325 C1345 0.950 . S
H1326 C1347 0.950 . S
H1327 C1350 0.950 . S
H1328 C1351 0.950 . S
H1329 C1353 0.950 . S
H1330 C1354 0.950 . S
H1331 C1355 0.951 . S
H1332 C1357 0.951 . S
H1333 C1359 0.950 . S
H1334 C1360 0.950 . S
H1335 C1362 0.950 . S
H1336 C1365 0.950 . S
H1337 C1366 0.950 . S
H1338 C1368 0.950 . S
H1339 C1369 0.950 . S
C1340 H1322 0.951 . S
C1340 C1341 1.366 . S
C1340 C1342 1.388 . S
C1341 C1340 1.366 . S
C1341 C1345 1.385 . S
C1342 H1323 0.951 . S
C1342 C1340 1.388 . S
C1342 C1343 1.366 . S
C1343 C1342 1.366 . S
C1343 C1344 1.414 . S
C1343 C1346 1.499 1_554 S
C1344 H1324 0.950 1_554 S
C1344 C1343 1.414 . S
C1344 C1345 1.374 . S
C1345 H1325 0.950 . S
C1345 C1341 1.385 . S
C1345 C1344 1.374 . S
C1346 C1343 1.499 1_556 S
C1346 C1347 1.373 . S
C1346 C1348 1.389 1_556 S
C1347 H1326 0.950 . S
C1347 C1346 1.373 . S
C1347 C1363 1.377 . S
C1348 C1346 1.389 1_554 S
C1348 C1349 1.524 . S
C1348 C1362 1.377 1_554 S
C1349 C1348 1.524 . S
C1349 C1350 1.397 . S
C1349 C1354 1.363 . S
C1350 H1327 0.950 . S
C1350 C1349 1.397 . S
C1350 C1351 1.334 . S
C1351 H1328 0.950 . S
C1351 C1350 1.334 . S
C1351 C1352 1.287 . S
C1352 C1351 1.287 . S
C1352 C1353 1.524 . S
C1352 H1371 0.913 . S
C1353 H1329 0.950 . S
C1353 C1352 1.524 . S
C1353 C1354 1.415 . S
C1354 H1330 0.950 . S
C1354 C1349 1.363 . S
C1354 C1353 1.415 . S
C1355 H1331 0.951 . S
C1355 C1356 1.366 . S
C1355 C1357 1.388 . S
C1356 C1355 1.366 . S
C1356 C1360 1.385 . S
C1357 H1332 0.951 . S
C1357 C1355 1.388 . S
C1357 C1358 1.366 . S
C1358 C1357 1.366 . S
C1358 C1359 1.414 . S
C1358 C1361 1.499 . S
C1359 H1333 0.950 . S
C1359 C1358 1.414 . S
C1359 C1360 1.374 . S
C1360 H1334 0.950 . S
C1360 C1356 1.385 . S
C1360 C1359 1.374 . S
C1361 C1358 1.499 . S
C1361 C1362 1.373 . S
C1361 C1363 1.389 . S
C1362 H1335 0.950 . S
C1362 C1348 1.377 1_556 S
C1362 C1361 1.373 . S
C1363 C1347 1.377 . S
C1363 C1361 1.389 . S
C1363 C1364 1.524 . S
C1364 C1363 1.524 . S
C1364 C1365 1.397 . S
C1364 C1369 1.363 . S
C1365 H1336 0.950 . S
C1365 C1364 1.397 . S
C1365 C1366 1.334 . S
C1366 H1337 0.950 . S
C1366 C1365 1.334 . S
C1366 C1367 1.287 . S
C1367 C1366 1.287 . S
C1367 C1368 1.524 . S
C1367 H1370 0.999 . S
C1368 H1338 0.950 . S
C1368 C1367 1.524 . S
C1368 C1369 1.415 . S
C1369 H1339 0.950 . S
C1369 C1364 1.363 . S
C1369 C1368 1.415 . S
H1370 C1367 0.999 . S
H1371 C1352 0.913 . S
H1372 C1390 0.950 1_455 S
H1373 C1392 0.951 . S
H1374 C1394 0.950 . S
H1375 C1395 0.950 . S
H1376 C1397 0.950 . S
H1377 C1400 0.950 . S
H1378 C1401 0.950 . S
H1379 C1403 0.950 . S
H1380 C1404 0.950 . S
H1381 C1405 0.951 . S
H1382 C1407 0.951 . S
H1383 C1409 0.950 . S
H1384 C1410 0.950 . S
H1385 C1412 0.950 . S
H1386 C1415 0.950 . S
H1387 C1416 0.950 . S
H1388 C1418 0.950 . S
H1389 C1419 0.950 . S
C1390 H1372 0.950 1_655 S
C1390 C1391 1.366 . S
C1390 C1392 1.389 . S
C1391 C1390 1.366 . S
C1391 C1395 1.387 . S
C1392 H1373 0.951 . S
C1392 C1390 1.389 . S
C1392 C1393 1.366 . S
C1393 C1392 1.366 . S
C1393 C1394 1.414 . S
C1393 C1396 1.499 . S
C1394 H1374 0.950 . S
C1394 C1393 1.414 . S
C1394 C1395 1.374 . S
C1395 H1375 0.950 . S
C1395 C1391 1.387 . S
C1395 C1394 1.374 . S
C1396 C1393 1.499 . S
C1396 C1397 1.373 1_655 S
C1396 C1398 1.389 . S
C1397 H1376 0.950 . S
C1397 C1396 1.373 1_455 S
C1397 C1413 1.377 . S
C1398 C1396 1.389 . S
C1398 C1399 1.524 . S
C1398 C1412 1.377 . S
C1399 C1398 1.524 . S
C1399 C1400 1.397 . S
C1399 C1404 1.363 . S
C1400 H1377 0.950 . S
C1400 C1399 1.397 . S
C1400 C1401 1.334 . S
C1401 H1378 0.950 . S
C1401 C1400 1.334 . S
C1401 C1402 1.287 . S
C1402 C1401 1.287 . S
C1402 C1403 1.524 . S
C1402 H1421 0.913 . S
C1403 H1379 0.950 . S
C1403 C1402 1.524 . S
C1403 C1404 1.415 . S
C1404 H1380 0.950 . S
C1404 C1399 1.363 . S
C1404 C1403 1.415 . S
C1405 H1381 0.951 . S
C1405 C1406 1.366 . S
C1405 C1407 1.388 . S
C1406 C1405 1.366 . S
C1406 C1410 1.385 . S
C1407 H1382 0.951 . S
C1407 C1405 1.388 . S
C1407 C1408 1.366 . S
C1408 C1407 1.366 . S
C1408 C1409 1.414 . S
C1408 C1411 1.499 . S
C1409 H1383 0.950 . S
C1409 C1408 1.414 . S
C1409 C1410 1.374 . S
C1410 H1384 0.950 . S
C1410 C1406 1.385 . S
C1410 C1409 1.374 . S
C1411 C1408 1.499 . S
C1411 C1412 1.373 . S
C1411 C1413 1.389 1_655 S
C1412 H1385 0.950 . S
C1412 C1398 1.377 . S
C1412 C1411 1.373 . S
C1413 C1397 1.377 . S
C1413 C1411 1.389 1_455 S
C1413 C1414 1.524 . S
C1414 C1413 1.524 . S
C1414 C1415 1.397 . S
C1414 C1419 1.363 . S
C1415 H1386 0.950 . S
C1415 C1414 1.397 . S
C1415 C1416 1.334 . S
C1416 H1387 0.950 . S
C1416 C1415 1.334 . S
C1416 C1417 1.287 . S
C1417 C1416 1.287 . S
C1417 C1418 1.524 . S
C1417 H1420 0.999 . S
C1418 H1388 0.950 . S
C1418 C1417 1.524 . S
C1418 C1419 1.415 . S
C1419 H1389 0.950 . S
C1419 C1414 1.363 . S
C1419 C1418 1.415 . S
H1420 C1417 0.999 . S
H1421 C1402 0.913 . S
H1422 C1440 0.951 . S
H1423 C1442 0.951 . S
H1424 C1444 0.950 . S
H1425 C1445 0.950 . S
H1426 C1447 0.950 . S
H1427 C1450 0.950 . S
H1428 C1451 0.950 . S
H1429 C1453 0.950 . S
H1430 C1454 0.950 . S
H1431 C1455 0.951 . S
H1432 C1457 0.951 . S
H1433 C1459 0.950 . S
H1434 C1460 0.950 . S
H1435 C1462 0.950 . S
H1436 C1465 0.950 . S
H1437 C1466 0.950 1_545 S
H1438 C1468 0.950 . S
H1439 C1469 0.950 . S
C1440 H1422 0.951 . S
C1440 C1441 1.366 . S
C1440 C1442 1.388 . S
C1441 C1440 1.366 . S
C1441 C1445 1.385 . S
C1442 H1423 0.951 . S
C1442 C1440 1.388 . S
C1442 C1443 1.366 . S
C1443 C1442 1.366 . S
C1443 C1444 1.414 . S
C1443 C1446 1.499 . S
C1444 H1424 0.950 . S
C1444 C1443 1.414 . S
C1444 C1445 1.374 . S
C1445 H1425 0.950 . S
C1445 C1441 1.385 . S
C1445 C1444 1.374 . S
C1446 C1443 1.499 . S
C1446 C1447 1.373 . S
C1446 C1448 1.389 . S
C1447 H1426 0.950 . S
C1447 C1446 1.373 . S
C1447 C1463 1.377 . S
C1448 C1446 1.389 . S
C1448 C1449 1.524 . S
C1448 C1462 1.377 . S
C1449 C1448 1.524 . S
C1449 C1450 1.397 . S
C1449 C1454 1.363 . S
C1450 H1427 0.950 . S
C1450 C1449 1.397 . S
C1450 C1451 1.334 . S
C1451 H1428 0.950 . S
C1451 C1450 1.334 . S
C1451 C1452 1.287 . S
C1452 C1451 1.287 . S
C1452 C1453 1.524 . S
C1452 H1471 0.913 . S
C1453 H1429 0.950 . S
C1453 C1452 1.524 . S
C1453 C1454 1.415 . S
C1454 H1430 0.950 . S
C1454 C1449 1.363 . S
C1454 C1453 1.415 . S
C1455 H1431 0.951 . S
C1455 C1456 1.366 . S
C1455 C1457 1.388 . S
C1456 C1455 1.366 . S
C1456 C1460 1.385 . S
C1457 H1432 0.951 . S
C1457 C1455 1.388 . S
C1457 C1458 1.366 . S
C1458 C1457 1.366 . S
C1458 C1459 1.414 . S
C1458 C1461 1.499 . S
C1459 H1433 0.950 . S
C1459 C1458 1.414 . S
C1459 C1460 1.374 . S
C1460 H1434 0.950 . S
C1460 C1456 1.385 . S
C1460 C1459 1.374 . S
C1461 C1458 1.499 . S
C1461 C1462 1.373 . S
C1461 C1463 1.389 . S
C1462 H1435 0.950 . S
C1462 C1448 1.377 . S
C1462 C1461 1.373 . S
C1463 C1447 1.377 . S
C1463 C1461 1.389 . S
C1463 C1464 1.524 . S
C1464 C1463 1.524 . S
C1464 C1465 1.397 . S
C1464 C1469 1.363 . S
C1465 H1436 0.950 . S
C1465 C1464 1.397 . S
C1465 C1466 1.334 . S
C1466 H1437 0.950 1_565 S
C1466 C1465 1.334 . S
C1466 C1467 1.287 . S
C1467 C1466 1.287 . S
C1467 C1468 1.524 . S
C1467 H1470 0.999 . S
C1468 H1438 0.950 . S
C1468 C1467 1.524 . S
C1468 C1469 1.415 . S
C1469 H1439 0.950 . S
C1469 C1464 1.363 . S
C1469 C1468 1.415 . S
H1470 C1467 0.999 . S
H1471 C1452 0.913 . S
H1472 C1490 0.951 . S
H1473 C1492 0.951 . S
H1474 C1494 0.950 . S
H1475 C1495 0.950 . S
H1476 C1497 0.950 . S
H1477 C1500 0.950 . S
H1478 C1501 0.950 . S
H1479 C1503 0.950 . S
H1480 C1504 0.950 . S
H1481 C1505 0.951 . S
H1482 C1507 0.951 . S
H1483 C1509 0.950 . S
H1484 C1510 0.950 . S
H1485 C1512 0.950 . S
H1486 C1515 0.950 . S
H1487 C1516 0.950 . S
H1488 C1518 0.950 . S
H1489 C1519 0.950 . S
C1490 H1472 0.951 . S
C1490 C1491 1.366 . S
C1490 C1492 1.388 . S
C1491 C1490 1.366 . S
C1491 C1495 1.385 . S
C1492 H1473 0.951 . S
C1492 C1490 1.388 . S
C1492 C1493 1.366 . S
C1493 C1492 1.366 . S
C1493 C1494 1.414 . S
C1493 C1496 1.499 . S
C1494 H1474 0.950 . S
C1494 C1493 1.414 . S
C1494 C1495 1.374 . S
C1495 H1475 0.950 . S
C1495 C1491 1.385 . S
C1495 C1494 1.374 . S
C1496 C1493 1.499 . S
C1496 C1497 1.373 . S
C1496 C1498 1.389 . S
C1497 H1476 0.950 . S
C1497 C1496 1.373 . S
C1497 C1513 1.377 . S
C1498 C1496 1.389 . S
C1498 C1499 1.524 . S
C1498 C1512 1.377 . S
C1499 C1498 1.524 . S
C1499 C1500 1.397 . S
C1499 C1504 1.363 . S
C1500 H1477 0.950 . S
C1500 C1499 1.397 . S
C1500 C1501 1.334 . S
C1501 H1478 0.950 . S
C1501 C1500 1.334 . S
C1501 C1502 1.287 . S
C1502 C1501 1.287 . S
C1502 C1503 1.524 . S
C1502 H1521 0.913 . S
C1503 H1479 0.950 . S
C1503 C1502 1.524 . S
C1503 C1504 1.415 . S
C1504 H1480 0.950 . S
C1504 C1499 1.363 . S
C1504 C1503 1.415 . S
C1505 H1481 0.951 . S
C1505 C1506 1.366 . S
C1505 C1507 1.388 . S
C1506 C1505 1.366 . S
C1506 C1510 1.385 . S
C1507 H1482 0.951 . S
C1507 C1505 1.388 . S
C1507 C1508 1.366 . S
C1508 C1507 1.366 . S
C1508 C1509 1.414 . S
C1508 C1511 1.499 . S
C1509 H1483 0.950 . S
C1509 C1508 1.414 . S
C1509 C1510 1.374 . S
C1510 H1484 0.950 . S
C1510 C1506 1.385 . S
C1510 C1509 1.374 . S
C1511 C1508 1.499 . S
C1511 C1512 1.373 . S
C1511 C1513 1.389 . S
C1512 H1485 0.950 . S
C1512 C1498 1.377 . S
C1512 C1511 1.373 . S
C1513 C1497 1.377 . S
C1513 C1511 1.389 . S
C1513 C1514 1.524 . S
C1514 C1513 1.524 . S
C1514 C1515 1.397 . S
C1514 C1519 1.363 . S
C1515 H1486 0.950 . S
C1515 C1514 1.397 . S
C1515 C1516 1.334 . S
C1516 H1487 0.950 . S
C1516 C1515 1.334 . S
C1516 C1517 1.287 . S
C1517 C1516 1.287 . S
C1517 C1518 1.524 . S
C1517 H1520 0.999 . S
C1518 H1488 0.950 . S
C1518 C1517 1.524 . S
C1518 C1519 1.415 . S
C1519 H1489 0.950 . S
C1519 C1514 1.363 . S
C1519 C1518 1.415 . S
H1520 C1517 0.999 . S
H1521 C1502 0.913 . S
H1522 C1540 0.951 . S
H1523 C1542 0.951 . S
H1524 C1544 0.950 . S
H1525 C1545 0.950 . S
H1526 C1547 0.950 . S
H1527 C1550 0.950 . S
H1528 C1551 0.950 . S
H1529 C1553 0.950 . S
H1530 C1554 0.950 . S
H1531 C1555 0.951 . S
H1532 C1557 0.951 . S
H1533 C1559 0.950 . S
H1534 C1560 0.950 . S
H1535 C1562 0.950 . S
H1536 C1565 0.950 . S
H1537 C1566 0.950 . S
H1538 C1568 0.950 . S
H1539 C1569 0.950 . S
C1540 H1522 0.951 . S
C1540 C1541 1.366 . S
C1540 C1542 1.388 . S
C1541 C1540 1.366 . S
C1541 C1545 1.385 . S
C1542 H1523 0.951 . S
C1542 C1540 1.388 . S
C1542 C1543 1.366 . S
C1543 C1542 1.366 . S
C1543 C1544 1.414 . S
C1543 C1546 1.499 . S
C1544 H1524 0.950 . S
C1544 C1543 1.414 . S
C1544 C1545 1.374 . S
C1545 H1525 0.950 . S
C1545 C1541 1.385 . S
C1545 C1544 1.374 . S
C1546 C1543 1.499 . S
C1546 C1547 1.373 . S
C1546 C1548 1.389 . S
C1547 H1526 0.950 . S
C1547 C1546 1.373 . S
C1547 C1563 1.377 . S
C1548 C1546 1.389 . S
C1548 C1549 1.524 . S
C1548 C1562 1.377 . S
C1549 C1548 1.524 . S
C1549 C1550 1.397 . S
C1549 C1554 1.363 . S
C1550 H1527 0.950 . S
C1550 C1549 1.397 . S
C1550 C1551 1.334 . S
C1551 H1528 0.950 . S
C1551 C1550 1.334 . S
C1551 C1552 1.287 . S
C1552 C1551 1.287 . S
C1552 C1553 1.524 . S
C1552 H1571 0.913 . S
C1553 H1529 0.950 . S
C1553 C1552 1.524 . S
C1553 C1554 1.415 . S
C1554 H1530 0.950 . S
C1554 C1549 1.363 . S
C1554 C1553 1.415 . S
C1555 H1531 0.951 . S
C1555 C1556 1.366 . S
C1555 C1557 1.388 . S
C1556 C1555 1.366 . S
C1556 C1560 1.385 . S
C1557 H1532 0.951 . S
C1557 C1555 1.388 . S
C1557 C1558 1.366 . S
C1558 C1557 1.366 . S
C1558 C1559 1.414 . S
C1558 C1561 1.499 . S
C1559 H1533 0.950 . S
C1559 C1558 1.414 . S
C1559 C1560 1.374 . S
C1560 H1534 0.950 . S
C1560 C1556 1.385 . S
C1560 C1559 1.374 . S
C1561 C1558 1.499 . S
C1561 C1562 1.373 . S
C1561 C1563 1.389 . S
C1562 H1535 0.950 . S
C1562 C1548 1.377 . S
C1562 C1561 1.373 . S
C1563 C1547 1.377 . S
C1563 C1561 1.389 . S
C1563 C1564 1.524 . S
C1564 C1563 1.524 . S
C1564 C1565 1.397 . S
C1564 C1569 1.363 . S
C1565 H1536 0.950 . S
C1565 C1564 1.397 . S
C1565 C1566 1.334 . S
C1566 H1537 0.950 . S
C1566 C1565 1.334 . S
C1566 C1567 1.287 . S
C1567 C1566 1.287 . S
C1567 C1568 1.524 . S
C1567 H1570 0.999 . S
C1568 H1538 0.950 . S
C1568 C1567 1.524 . S
C1568 C1569 1.415 . S
C1569 H1539 0.950 . S
C1569 C1564 1.363 . S
C1569 C1568 1.415 . S
H1570 C1567 0.999 . S
H1571 C1552 0.913 . S
C391 C241 1.914 . S
C406 C304 1.806 . S
C456 C322 1.307 . S
C441 C277 1.495 . S
C506 C343 1.781 . S
C491 C169 1.895 . S
C556 C367 1.339 . S
C541 C205 1.491 1_655 S
C606 C301 1.710 1_565 S
C591 C97 1.756 . S
C641 C133 1.382 . S
C656 C325 1.214 . S
C691 C25 1.735 . S
C706 C346 1.683 . S
C741 C61 1.379 . S
C756 C364 1.245 . S
C806 C306 0.500 . S
C791 C211 0.446 . S
C856 C324 0.417 . S
C841 C247 0.460 . S
C906 C345 0.494 . S
C891 C253 0.360 . S
C941 C175 0.467 . S
C956 C369 0.418 . S
C991 C67 0.382 1_655 S
C1006 C305 0.328 . S
C1056 C323 0.382 . S
C1041 C103 0.571 . S
C1106 C344 0.328 . S
C1091 C109 0.253 . S
C1141 C31 0.573 . S
C1156 C368 0.368 . S
C1191 C181 1.834 . S
C1206 C302 1.820 . S
C1241 C217 2.111 . S
C1256 C326 2.101 . S
C1306 C347 1.786 . S
C1291 C283 1.772 . S
C1356 C365 2.129 . S
C1341 C145 2.138 . S
C1391 C37 1.693 1_655 S
C1406 C303 1.675 . S
C1456 C327 1.944 . S
C1441 C73 1.926 . S
C1506 C348 1.637 . S
C1491 C139 1.621 . S
C1541 C1 1.953 . S
C1556 C366 1.972 . S
