# Generated by pormake.
# Topology pyr, (3,6)-cn, num edge types: 1
# Building blocks:
#     Node 0, Type 0, BuildingBlock: BETDAH_clean_linker_0, # of connection points: 3
#     Node 1, Type 0, BuildingBlock: BETDAH_clean_linker_0, # of connection points: 3
#     Node 2, Type 0, BuildingBlock: BETDAH_clean_linker_0, # of connection points: 3
#     Node 3, Type 0, BuildingBlock: BETDAH_clean_linker_0, # of connection points: 3
#     Node 4, Type 0, BuildingBlock: BETDAH_clean_linker_0, # of connection points: 3
#     Node 5, Type 0, BuildingBlock: BETDAH_clean_linker_0, # of connection points: 3
#     Node 6, Type 0, BuildingBlock: BETDAH_clean_linker_0, # of connection points: 3
#     Node 7, Type 0, BuildingBlock: BETDAH_clean_linker_0, # of connection points: 3
#     Node 8, Type 1, BuildingBlock: GEDQOX_clean_sbu_0, # of connection points: 6
#     Node 9, Type 1, BuildingBlock: GEDQOX_clean_sbu_0, # of connection points: 6
#     Node 10, Type 1, BuildingBlock: GEDQOX_clean_sbu_0, # of connection points: 6
#     Node 11, Type 1, BuildingBlock: GEDQOX_clean_sbu_0, # of connection points: 6
#     Edge 12, Type (0, 1), BuildingBlock: EZIPEK_clean_linker_0, # of connection points: 2
#     Edge 13, Type (0, 1), BuildingBlock: EZIPEK_clean_linker_0, # of connection points: 2
#     Edge 14, Type (0, 1), BuildingBlock: EZIPEK_clean_linker_0, # of connection points: 2
#     Edge 15, Type (0, 1), BuildingBlock: EZIPEK_clean_linker_0, # of connection points: 2
#     Edge 16, Type (0, 1), BuildingBlock: EZIPEK_clean_linker_0, # of connection points: 2
#     Edge 17, Type (0, 1), BuildingBlock: EZIPEK_clean_linker_0, # of connection points: 2
#     Edge 18, Type (0, 1), BuildingBlock: EZIPEK_clean_linker_0, # of connection points: 2
#     Edge 19, Type (0, 1), BuildingBlock: EZIPEK_clean_linker_0, # of connection points: 2
#     Edge 20, Type (0, 1), BuildingBlock: EZIPEK_clean_linker_0, # of connection points: 2
#     Edge 21, Type (0, 1), BuildingBlock: EZIPEK_clean_linker_0, # of connection points: 2
#     Edge 22, Type (0, 1), BuildingBlock: EZIPEK_clean_linker_0, # of connection points: 2
#     Edge 23, Type (0, 1), BuildingBlock: EZIPEK_clean_linker_0, # of connection points: 2
#     Edge 24, Type (0, 1), BuildingBlock: EZIPEK_clean_linker_0, # of connection points: 2
#     Edge 25, Type (0, 1), BuildingBlock: EZIPEK_clean_linker_0, # of connection points: 2
#     Edge 26, Type (0, 1), BuildingBlock: EZIPEK_clean_linker_0, # of connection points: 2
#     Edge 27, Type (0, 1), BuildingBlock: EZIPEK_clean_linker_0, # of connection points: 2
#     Edge 28, Type (0, 1), BuildingBlock: EZIPEK_clean_linker_0, # of connection points: 2
#     Edge 29, Type (0, 1), BuildingBlock: EZIPEK_clean_linker_0, # of connection points: 2
#     Edge 30, Type (0, 1), BuildingBlock: EZIPEK_clean_linker_0, # of connection points: 2
#     Edge 31, Type (0, 1), BuildingBlock: EZIPEK_clean_linker_0, # of connection points: 2
#     Edge 32, Type (0, 1), BuildingBlock: EZIPEK_clean_linker_0, # of connection points: 2
#     Edge 33, Type (0, 1), BuildingBlock: EZIPEK_clean_linker_0, # of connection points: 2
#     Edge 34, Type (0, 1), BuildingBlock: EZIPEK_clean_linker_0, # of connection points: 2
#     Edge 35, Type (0, 1), BuildingBlock: EZIPEK_clean_linker_0, # of connection points: 2
# Relax obj value: 0.271
# Max RMSD: 0.209
# Mean RMSD: 0.155
data_MOF--net-pyr--node1-GEDQOX_clean_sbu_0--node2-BETDAH_clean_linker_0--edge1-EZIPEK_clean_linker_0
_symmetry_space_group_name_H-M    P1
_symmetry_Int_Tables_number       1
_symmetry_cell_setting            triclinic
loop_
_symmetry_equiv_pos_as_xyz
'x, y, z'
_cell_length_a     29.099108
_cell_length_b     29.155645
_cell_length_c     27.503779
_cell_angle_alpha  91.006911
_cell_angle_beta   94.64717
_cell_angle_gamma 93.443409
loop_
_atom_site_label
_atom_site_type_symbol
_atom_site_fract_x
_atom_site_fract_y
_atom_site_fract_z
_atom_type_partial_charge
H0 H 0.27036 0.10985 0.25177 0.0
H1 H 0.28406 0.21644 0.14549 0.0
H2 H 0.17656 0.22181 0.2453 0.0
C3 C 0.25912 0.14141 0.23593 0.0
C4 C 0.21945 0.16229 0.25655 0.0
C5 C 0.28472 0.15974 0.19552 0.0
C6 C 0.26654 0.20123 0.17509 0.0
C7 C 0.22703 0.22456 0.19059 0.0
C8 C 0.20501 0.20443 0.23193 0.0
N9 N 0.21373 0.26706 0.16272 0.0
C10 C 0.18328 0.30571 0.15343 0.0
H11 H 0.51675 0.81288 0.82739 0.0
H12 H 0.38083 0.83125 0.87389 0.0
H13 H 0.39751 0.73707 0.75605 0.0
C14 C 0.47988 0.80426 0.82414 0.0
C15 C 0.46059 0.77155 0.78844 0.0
C16 C 0.45099 0.82625 0.85509 0.0
C17 C 0.40335 0.81448 0.85055 0.0
C18 C 0.38403 0.78308 0.8146 0.0
C19 C 0.41263 0.76168 0.78371 0.0
N20 N 0.3355 0.77424 0.80934 0.0
C21 C 0.31062 0.77479 0.76411 0.0
H22 H 0.81924 0.40133 0.95539 0.0
H23 H 0.79963 0.5323 0.88852 0.0
H24 H 0.68364 0.43704 0.90097 0.0
C25 C 0.79703 0.42549 0.93735 0.0
C26 C 0.74974 0.41367 0.92757 0.0
C27 C 0.81563 0.4681 0.92266 0.0
C28 C 0.786 0.4991 0.89986 0.0
C29 C 0.73857 0.48849 0.89321 0.0
C30 C 0.72046 0.44549 0.90635 0.0
N31 N 0.7092 0.52237 0.87581 0.0
C32 C 0.68581 0.51819 0.82997 0.0
H33 H 0.83207 0.88592 0.38997 0.0
H34 H 0.87071 0.97351 0.27282 0.0
H35 H 0.78895 0.84827 0.24292 0.0
C36 C 0.82947 0.89626 0.3524 0.0
C37 C 0.80667 0.86474 0.31854 0.0
C38 C 0.84983 0.93868 0.33814 0.0
C39 C 0.85085 0.94533 0.28724 0.0
C40 C 0.82915 0.91321 0.25294 0.0
C41 C 0.80634 0.87317 0.26887 0.0
N42 N 0.83292 0.92043 0.20252 0.0
C43 C 0.83734 0.88341 0.17127 0.0
H44 H 0.98888 0.85064 0.82211 0.0
H45 H 0.88507 0.85356 0.92826 0.0
H46 H 0.89051 0.95631 0.81586 0.0
C47 C 0.95975 0.86623 0.83631 0.0
C48 C 0.94303 0.90676 0.81135 0.0
C49 C 0.9405 0.84521 0.87922 0.0
C50 C 0.90075 0.86786 0.89708 0.0
C51 C 0.8812 0.90858 0.87516 0.0
C52 C 0.90403 0.92619 0.83291 0.0
N53 N 0.84058 0.93411 0.89182 0.0
C54 C 0.80256 0.93874 0.9248 0.0
H55 H 0.7439 0.21139 0.3087 0.0
H56 H 0.7021 0.30707 0.41539 0.0
H57 H 0.60701 0.26031 0.29422 0.0
C58 C 0.71808 0.233 0.32144 0.0
C59 C 0.67426 0.23264 0.29573 0.0
C60 C 0.72782 0.25861 0.36528 0.0
C61 C 0.69456 0.28724 0.38171 0.0
C62 C 0.65107 0.28856 0.35537 0.0
C63 C 0.64108 0.26045 0.31337 0.0
N64 N 0.61553 0.31592 0.37034 0.0
C65 C 0.61949 0.35015 0.40685 0.0
H66 H 0.31264 0.71433 0.18442 0.0
H67 H 0.24619 0.60897 0.26652 0.0
H68 H 0.38091 0.66924 0.31744 0.0
C69 C 0.31246 0.69291 0.21626 0.0
C70 C 0.35072 0.69489 0.25058 0.0
C71 C 0.27481 0.66194 0.2218 0.0
C72 C 0.27504 0.63355 0.2626 0.0
C73 C 0.31302 0.63581 0.29758 0.0
C74 C 0.35094 0.66683 0.29127 0.0
N75 N 0.31284 0.606 0.33794 0.0
C76 C 0.35066 0.60443 0.37203 0.0
H77 H 0.29707 0.18937 0.66366 0.0
H78 H 0.2922 0.25984 0.79893 0.0
H79 H 0.23071 0.12349 0.78156 0.0
C80 C 0.28965 0.1869 0.70133 0.0
C81 C 0.26792 0.14674 0.71957 0.0
C82 C 0.29835 0.22709 0.72982 0.0
C83 C 0.28574 0.22824 0.7775 0.0
C84 C 0.26111 0.19041 0.79577 0.0
C85 C 0.25268 0.15011 0.76716 0.0
N86 N 0.23983 0.19421 0.84023 0.0
C87 C 0.22744 0.23664 0.8568 0.0
Nd88 Nd 0.08923 0.99507 0.51742 0.0
Nd89 Nd 0.05053 0.07399 0.53632 0.0
C90 C 0.10983 0.90856 0.50566 0.0
C91 C 0.13315 0.87868 0.5409 0.0
C92 C 0.14954 0.83685 0.52595 0.0
C93 C 0.17738 0.81205 0.55871 0.0
C94 C 0.18918 0.82926 0.60641 0.0
C95 C 0.17152 0.8703 0.62162 0.0
C96 C 0.14372 0.89484 0.58911 0.0
C97 C 0.15176 0.05024 0.5757 0.0
C98 C 1.02944 0.99431 0.62267 0.0
C99 C 1.019 0.15741 0.54446 0.0
C100 C 0.98004 0.1781 0.51681 0.0
C101 C 0.96409 0.22005 0.53218 0.0
C102 C 0.92444 0.23728 0.50833 0.0
C103 C 0.90011 0.21261 0.46899 0.0
C104 C 0.9166 0.17111 0.45311 0.0
C105 C 0.95625 0.15405 0.47675 0.0
C106 C 0.98845 1.01663 0.47953 0.0
C107 C 0.11853 0.07605 0.43699 0.0
O108 O 0.06885 0.92023 0.51544 0.0
O109 O 0.1358 0.94355 0.493 0.0
O110 O 0.16174 0.02597 0.53882 0.0
O111 O 0.10928 0.04546 0.5819 0.0
O112 O 0.04934 0.96966 0.58908 0.0
O113 O 1.02927 0.03927 0.61243 0.0
O114 O 0.0544 0.1488 0.52036 0.0
O115 O 1.00737 0.1232 0.57153 0.0
O116 O 0.97923 0.03854 0.51809 0.0
O117 O 1.03037 0.02386 0.47203 0.0
O118 O 0.09913 0.10077 0.47106 0.0
O119 O 0.11519 0.03063 0.44419 0.0
H120 H 0.14213 0.82423 0.48869 0.0
H121 H 0.19101 0.78046 0.5465 0.0
H122 H 0.18049 0.88406 0.65824 0.0
H123 H 0.13196 0.9274 0.60105 0.0
H124 H 0.9817 0.23894 0.56322 0.0
H125 H 0.91209 0.26926 0.52123 0.0
H126 H 0.89826 0.15149 0.42297 0.0
H127 H 0.96776 0.12148 0.46446 0.0
Nd128 Nd 0.54423 0.02183 0.09882 0.0
Nd129 Nd 0.54682 0.06626 0.03549 0.0
C130 C 0.53682 0.95604 0.16344 0.0
C131 C 0.53586 0.90728 0.17496 0.0
C132 C 0.51822 0.87401 0.13981 0.0
C133 C 0.49861 0.83223 0.15458 0.0
C134 C 0.49741 0.82355 0.20447 0.0
C135 C 0.52172 0.85372 0.23906 0.0
C136 C 0.54072 0.89573 0.22427 0.0
C137 C 0.46659 0.07966 0.1149 0.0
C138 C 0.50289 0.97436 0.99842 0.0
C139 C 0.54293 0.13908 0.97946 0.0
C140 C 0.57741 0.1749 0.96817 0.0
C141 C 0.56315 0.21751 0.95227 0.0
C142 C 0.59587 0.25348 0.94639 0.0
C143 C 0.64303 0.24701 0.95639 0.0
C144 C 0.65743 0.20415 0.97147 0.0
C145 C 0.62468 0.16823 0.97759 0.0
C146 C 0.6255 1.01205 1.01528 0.0
C147 C 0.60418 0.1083 0.13487 0.0
O148 O 0.57595 0.97828 0.15721 0.0
O149 O 0.50261 0.96911 0.13457 0.0
O150 O 0.50418 0.0759 0.14303 0.0
O151 O 0.47591 0.05881 0.07463 0.0
O152 O 0.53048 0.96634 0.03677 0.0
O153 O 0.49305 1.01697 0.99316 0.0
O154 O 0.53273 0.1393 0.02466 0.0
O155 O 0.54857 0.09789 0.96282 0.0
O156 O 0.59254 0.02486 0.98487 0.0
O157 O 0.61463 0.02652 0.05819 0.0
O158 O 0.59186 0.11693 0.08928 0.0
O159 O 0.59136 0.06814 0.1501 0.0
H160 H 0.5152 0.88222 0.10155 0.0
H161 H 0.48023 0.809 0.12749 0.0
H162 H 0.52115 0.84723 0.27768 0.0
H163 H 0.55442 0.92107 0.25181 0.0
H164 H 0.52675 0.22321 0.94551 0.0
H165 H 0.58449 0.28654 0.93471 0.0
H166 H 0.6938 0.1989 0.97935 0.0
H167 H 0.63611 0.13561 0.99064 0.0
Nd168 Nd 0.50118 0.5566 0.58808 0.0
Nd169 Nd 0.59488 0.6113 0.56396 0.0
C170 C 0.4161 0.52028 0.58474 0.0
C171 C 0.39568 0.47595 0.5994 0.0
C172 C 0.35674 0.47519 0.6263 0.0
C173 C 0.34045 0.4343 0.64631 0.0
C174 C 0.36274 0.39365 0.63928 0.0
C175 C 0.40088 0.39403 0.61116 0.0
C176 C 0.41753 0.43505 0.59164 0.0
C177 C 0.57368 0.53371 0.65319 0.0
C178 C 0.53054 0.65377 0.64518 0.0
C179 C 0.67361 0.65914 0.55583 0.0
C180 C 0.69639 0.67931 0.515 0.0
C181 C 0.72997 0.71554 0.524 0.0
C182 C 0.74786 0.73878 0.48511 0.0
C183 C 0.73222 0.72604 0.4369 0.0
C184 C 0.69998 0.68856 0.42777 0.0
C185 C 0.68201 0.66534 0.46672 0.0
C186 C 0.52 0.61407 0.49616 0.0
C187 C 0.57645 0.50596 0.52476 0.0
O188 O 0.43471 0.54671 0.62098 0.0
O189 O 0.44103 0.51986 0.54701 0.0
O190 O 0.53147 0.51681 0.65469 0.0
O191 O 0.5743 0.56055 0.61822 0.0
O192 O 0.49547 0.62583 0.6275 0.0
O193 O 0.57286 0.65111 0.63123 0.0
O194 O 0.67028 0.61417 0.55683 0.0
O195 O 0.6356 0.67789 0.56583 0.0
O196 O 0.56222 0.61488 0.48427 0.0
O197 O 0.51932 0.61595 0.54164 0.0
O198 O 0.60871 0.53757 0.54139 0.0
O199 O 0.53213 0.50955 0.53176 0.0
H200 H 0.33986 0.50653 0.63312 0.0
H201 H 0.31096 0.43444 0.66796 0.0
H202 H 0.41838 0.36286 0.60547 0.0
H203 H 0.44815 0.43499 0.57169 0.0
H204 H 0.74119 0.72682 0.56104 0.0
H205 H 0.77265 0.76778 0.49258 0.0
H206 H 0.68753 0.67854 0.39069 0.0
H207 H 0.65586 0.63753 0.45922 0.0
Nd208 Nd 1.03279 0.57683 0.05672 0.0
Nd209 Nd 0.09191 0.57577 0.98083 0.0
C210 C 0.95929 0.58347 0.1064 0.0
C211 C 0.92753 0.62059 0.10997 0.0
C212 C 0.91598 0.64712 0.0691 0.0
C213 C 0.89462 0.68821 0.07436 0.0
C214 C 0.88429 0.70321 0.1206 0.0
C215 C 0.8929 0.67542 0.16108 0.0
C216 C 0.91454 0.63428 0.15578 0.0
C217 C 0.1185 0.61183 0.0895 0.0
C218 C 1.02789 0.66877 0.97557 0.0
C219 C 0.1591 0.5622 0.92458 0.0
C220 C 0.17263 0.51729 0.90709 0.0
C221 C 0.21823 0.50452 0.91635 0.0
C222 C 0.22923 0.45925 0.90713 0.0
C223 C 0.19465 0.42643 0.88865 0.0
C224 C 0.14947 0.43942 0.87817 0.0
C225 C 0.13847 0.48436 0.88743 0.0
C226 C 1.00678 0.5345 0.95352 0.0
C227 C 0.0981 0.48374 0.06191 0.0
O228 O 0.95806 0.56167 0.06429 0.0
O229 O 1.00139 0.59376 0.12508 0.0
O230 O 0.093 0.58442 0.11402 0.0
O231 O 0.09858 0.6219 0.04845 0.0
O232 O 1.00969 0.64578 1.0124 0.0
O233 O 0.06487 0.65023 0.95892 0.0
O234 O 0.16662 0.56995 0.97147 0.0
O235 O 0.11853 0.57432 0.9076 0.0
O236 O 1.02816 0.5629 0.92636 0.0
O237 O 1.03018 0.52833 0.99309 0.0
O238 O 0.11337 0.50502 0.02249 0.0
O239 O 0.06352 0.5043 0.0815 0.0
H240 H 0.92575 0.63754 0.03353 0.0
H241 H 0.88853 0.70954 0.0429 0.0
H242 H 0.88539 0.68692 0.1971 0.0
H243 H 0.9235 0.61455 0.18782 0.0
H244 H 0.24487 0.52908 0.93233 0.0
H245 H 0.2643 0.44953 0.91542 0.0
H246 H 0.12244 0.41438 0.864 0.0
H247 H 0.10277 0.49275 0.88082 0.0
C248 C 0.14359 0.13694 0.3065 0.0
C249 C 0.19336 0.14018 0.30343 0.0
C250 C 0.1936 0.09739 0.38553 0.0
C251 C 0.1446 0.09905 0.39103 0.0
N252 N 0.07641 0.13217 0.35562 0.0
N253 N 0.26416 0.13082 0.35309 0.0
C254 C 0.12115 0.12262 0.35119 0.0
C255 C 0.2175 0.12196 0.34662 0.0
N256 N 0.11628 0.14458 0.26514 0.0
N257 N 0.21858 0.07213 0.41817 0.0
H258 H 0.2823 0.15095 0.32928 0.0
H259 H 0.28384 0.12335 0.38498 0.0
H260 H 0.20393 0.05573 0.4471 0.0
H261 H 0.25256 0.0644 0.41407 0.0
H262 H 0.0805 0.13861 0.26243 0.0
H263 H 0.12975 0.15109 0.23182 0.0
H264 H 0.05816 0.15306 0.33159 0.0
H265 H 0.05935 0.12311 0.38623 0.0
C266 C 0.46655 0.85571 0.94189 0.0
C267 C 0.4688 0.86341 0.89131 0.0
C268 C 0.49543 0.94394 0.91028 0.0
C269 C 0.48848 0.93739 0.96055 0.0
N270 N 0.45638 0.88918 1.02121 0.0
N271 N 0.47699 0.91728 0.82657 0.0
C272 C 0.47114 0.89375 0.97555 0.0
C273 C 0.48101 0.90818 0.87528 0.0
N274 N 0.4605 0.81184 0.95789 0.0
N275 N 0.51746 0.98341 0.8957 0.0
H276 H 0.46705 0.89222 0.79963 0.0
H277 H 0.47976 0.95041 0.81309 0.0
H278 H 0.5281 1.01108 0.919 0.0
H279 H 0.52874 0.98724 0.86092 0.0
H280 H 0.4631 0.80364 0.99469 0.0
H281 H 0.45743 0.78322 0.93425 0.0
H282 H 0.4394 0.85933 0.03273 0.0
H283 H 0.45657 0.91683 0.04585 0.0
C284 C 0.67561 0.55389 0.74964 0.0
C285 C 0.66348 0.5181 0.7811 0.0
C286 C 0.60794 0.48412 0.71755 0.0
C287 C 0.61215 0.525 0.69056 0.0
N288 N 0.65501 0.59728 0.67821 0.0
N289 N 0.61789 0.4489 0.79638 0.0
C290 C 0.64796 0.55917 0.70529 0.0
C291 C 0.62987 0.48287 0.76536 0.0
N292 N 0.71418 0.58228 0.76174 0.0
N293 N 0.58437 0.44588 0.69662 0.0
H294 H 0.63406 0.44635 0.83135 0.0
H295 H 0.58981 0.4253 0.78868 0.0
H296 H 0.57089 0.4448 0.66031 0.0
H297 H 0.58327 0.41393 0.71298 0.0
H298 H 0.72792 0.60591 0.73804 0.0
H299 H 0.73498 0.57954 0.79417 0.0
H300 H 0.67388 0.62696 0.69158 0.0
H301 H 0.64256 0.59928 0.64205 0.0
C302 C 0.81166 0.80528 0.1394 0.0
C303 C 0.84711 0.84061 0.14811 0.0
C304 C 0.90622 0.78655 0.13619 0.0
C305 C 0.87094 0.75084 0.12769 0.0
N306 N 0.79044 0.72649 0.11214 0.0
N307 N 0.92591 0.86857 0.14265 0.0
C308 C 0.82362 0.76035 0.12627 0.0
C309 C 0.89372 0.83239 0.1424 0.0
N310 N 0.76689 0.81452 0.1452 0.0
N311 N 0.95163 0.77634 0.14053 0.0
H312 H 0.91748 0.90262 0.14705 0.0
H313 H 0.95973 0.86538 0.13388 0.0
H314 H 0.96247 0.7433 0.13525 0.0
H315 H 0.97857 0.80001 0.15244 0.0
H316 H 0.73989 0.78944 0.14507 0.0
H317 H 0.75704 0.8477 0.15215 0.0
H318 H 0.75548 0.73201 0.10599 0.0
H319 H 0.79831 0.69306 0.10332 0.0
C320 C 0.33642 0.12977 0.1225 0.0
C321 C 0.33043 0.13697 0.17415 0.0
C322 C 0.40851 0.09893 0.18545 0.0
C323 C 0.41781 0.09772 0.13414 0.0
N324 N 0.38676 0.12066 0.05532 0.0
N325 N 0.37247 0.13506 0.25296 0.0
C326 C 0.38036 0.11561 0.10351 0.0
C327 C 0.36993 0.12321 0.2046 0.0
N328 N 0.29876 0.13395 0.09039 0.0
N329 N 0.43492 0.074 0.21716 0.0
H330 H 0.34744 0.15355 0.26821 0.0
H331 H 0.40185 0.13131 0.2765 0.0
H332 H 0.45951 0.05252 0.20597 0.0
H333 H 0.42779 0.06933 0.25333 0.0
H334 H 0.29796 0.1249 0.05352 0.0
H335 H 0.26662 0.14129 0.10171 0.0
H336 H 0.36463 0.13815 0.03155 0.0
H337 H 0.41653 0.11094 0.04023 0.0
C338 C 0.2379 0.75935 0.71184 0.0
C339 C 0.28304 0.78072 0.71856 0.0
C340 C 0.26991 0.82224 0.64256 0.0
C341 C 0.22263 0.8067 0.64025 0.0
N342 N 0.16063 0.76056 0.67136 0.0
N343 N 0.3433 0.832 0.69129 0.0
C344 C 0.20644 0.77468 0.67414 0.0
C345 C 0.29971 0.81151 0.68377 0.0
N346 N 0.22536 0.72442 0.74152 0.0
N347 N 0.28607 0.84734 0.60529 0.0
H348 H 0.36665 0.82361 0.72003 0.0
H349 H 0.35577 0.85891 0.67069 0.0
H350 H 0.26488 0.85633 0.57497 0.0
H351 H 0.3209 0.8561 0.60221 0.0
H352 H 0.19438 0.70455 0.73611 0.0
H353 H 0.24784 0.71272 0.76947 0.0
H354 H 0.14532 0.74158 0.69809 0.0
H355 H 0.13718 0.76975 0.643 0.0
C356 C 0.8779 0.52625 0.95393 0.0
C357 C 0.86555 0.48215 0.93277 0.0
C358 C 0.94788 0.46992 0.92885 0.0
C359 C 0.95852 0.51662 0.94268 0.0
N360 N 0.93007 0.59239 0.94896 0.0
N361 N 0.88975 0.41591 0.88915 0.0
C362 C 0.92255 0.54588 0.94937 0.0
C363 C 0.90079 0.45464 0.91735 0.0
N364 N 0.84754 0.54917 0.97921 0.0
N365 N 0.98242 0.44061 0.92558 0.0
H366 H 0.85595 0.40529 0.87675 0.0
H367 H 0.91447 0.39717 0.87367 0.0
H368 H 1.01733 0.45136 0.93152 0.0
H369 H 0.97611 0.40524 0.92018 0.0
H370 H 0.85683 0.58041 0.99751 0.0
H371 H 0.81532 0.53444 0.98654 0.0
H372 H 0.90328 0.61457 0.94975 0.0
H373 H 0.96135 0.60794 0.94048 0.0
C374 C 0.73687 0.82333 0.34731 0.0
C375 C 0.7836 0.82248 0.33664 0.0
C376 C 0.79076 0.7497 0.37894 0.0
C377 C 0.74694 0.75499 0.39662 0.0
N378 N 0.67747 0.79599 0.3985 0.0
N379 N 0.85513 0.78488 0.33907 0.0
C380 C 0.71931 0.79107 0.38026 0.0
C381 C 0.81039 0.78517 0.35085 0.0
N382 N 0.70962 0.85536 0.32626 0.0
N383 N 0.81329 0.71077 0.3892 0.0
H384 H 0.86954 0.80921 0.31641 0.0
H385 H 0.87849 0.76179 0.35291 0.0
H386 H 0.79951 0.68444 0.4099 0.0
H387 H 0.84364 0.70275 0.37432 0.0
H388 H 0.67409 0.85519 0.32863 0.0
H389 H 0.72188 0.88004 0.30271 0.0
H390 H 0.6582 0.82464 0.39288 0.0
H391 H 0.66285 0.77244 0.42179 0.0
C392 C 0.11464 0.36317 0.13622 0.0
C393 C 0.16128 0.35079 0.13102 0.0
C394 C 0.16795 0.42523 0.08201 0.0
C395 C 0.12004 0.43664 0.08452 0.0
N396 N 0.04675 0.40428 0.10714 0.0
N397 N 0.22965 0.37081 0.09113 0.0
C398 C 0.09361 0.40219 0.11024 0.0
C399 C 0.18668 0.38235 0.10173 0.0
N400 N 0.08966 0.33765 0.16708 0.0
N401 N 0.19742 0.45619 0.0619 0.0
H402 H 0.24509 0.34204 0.1054 0.0
H403 H 0.24861 0.38726 0.0653 0.0
H404 H 0.18678 0.48474 0.04337 0.0
H405 H 0.23321 0.45522 0.06601 0.0
H406 H 0.05809 0.34687 0.17831 0.0
H407 H 0.1027 0.30923 0.18479 0.0
H408 H 1.02445 0.37875 0.11976 0.0
H409 H 1.02957 0.42855 0.08651 0.0
C410 C 0.72485 0.33343 0.90067 0.0
C411 C 0.73014 0.36751 0.93843 0.0
C412 C 0.68798 0.31699 0.9918 0.0
C413 C 0.67711 0.28589 0.95172 0.0
N414 N 0.68352 0.26349 0.86789 0.0
N415 N 0.71718 0.39353 1.01951 0.0
C416 C 0.69557 0.29351 0.90622 0.0
C417 C 0.71235 0.35957 0.9842 0.0
N418 N 0.74802 0.33939 0.85968 0.0
N419 N 0.67506 0.30556 0.03698 0.0
H420 H 0.73639 0.42446 1.01573 0.0
H421 H 0.70042 0.39224 0.05152 0.0
H422 H 0.65642 0.2749 0.0435 0.0
H423 H 0.68566 0.32456 0.06871 0.0
H424 H 0.74932 0.31402 0.83282 0.0
H425 H 0.76924 0.36866 0.85425 0.0
H426 H 0.69114 0.26976 0.8322 0.0
H427 H 0.66349 0.23297 0.87119 0.0
C428 C 0.90522 1.00866 0.36433 0.0
C429 C 0.87516 0.97143 0.37644 0.0
C430 C 0.91377 0.97193 0.45846 0.0
C431 C 0.9506 1.00064 0.44269 0.0
N432 N 0.97855 0.05144 0.38098 0.0
N433 N 0.83211 0.95171 0.44482 0.0
C434 C 0.94571 0.0205 0.39564 0.0
C435 C 0.87349 0.96286 0.42671 0.0
N436 N 0.89047 0.03808 0.3292 0.0
N437 N 0.91754 0.9519 0.50304 0.0
H438 H 0.80125 0.95047 0.42245 0.0
H439 H 0.82819 0.94927 0.48206 0.0
H440 H 0.94707 0.95624 0.52722 0.0
H441 H 0.89283 0.92757 0.51378 0.0
H442 H 0.90872 0.0686 0.32161 0.0
H443 H 0.85654 0.0352 0.31331 0.0
H444 H 0.97889 0.06219 0.34505 0.0
H445 H 1.00631 0.06505 0.40391 0.0
C446 C 0.49047 0.7618 0.70587 0.0
C447 C 0.4892 0.74701 0.75468 0.0
C448 C 0.52683 0.67683 0.73326 0.0
C449 C 0.52179 0.68851 0.6833 0.0
N450 N 0.50058 0.74213 0.62119 0.0
N451 N 0.50543 0.69067 0.81565 0.0
C452 C 0.50459 0.73133 0.66944 0.0
C453 C 0.50792 0.70489 0.76878 0.0
N454 N 0.47822 0.80516 0.69468 0.0
N455 N 0.54981 0.63887 0.7466 0.0
H456 H 0.49346 0.71109 0.84289 0.0
H457 H 0.51304 0.65799 0.82719 0.0
H458 H 0.56331 0.61736 0.72137 0.0
H459 H 0.55877 0.63059 0.78264 0.0
H460 H 0.48161 0.81995 0.66092 0.0
H461 H 0.46784 0.82798 0.72071 0.0
H462 H 0.48343 0.76999 0.60738 0.0
H463 H 0.51325 0.72186 0.59431 0.0
C464 C 0.99213 0.9729 0.76378 0.0
C465 C 0.96593 0.92897 0.76295 0.0
C466 C 0.9832 0.92617 0.67178 0.0
C467 C 1.00757 0.9714 0.6717 0.0
N468 N 1.03177 0.03725 0.72365 0.0
N469 N 0.9335 0.86745 0.70986 0.0
C470 C 1.0105 0.99421 0.71956 0.0
C471 C 0.9614 0.90688 0.71508 0.0
N472 N 1.00196 0.99397 0.80845 0.0
N473 N 0.98023 0.9005 0.62957 0.0
H474 H 0.91813 0.8524 0.73914 0.0
H475 H 0.92247 0.85153 0.67647 0.0
H476 H 0.98911 0.91367 0.5965 0.0
H477 H 0.97082 0.86549 0.6275 0.0
H478 H 1.02501 0.02245 0.81518 0.0
H479 H 0.9896 0.98053 0.84013 0.0
H480 H 1.02937 0.05969 0.75302 0.0
H481 H 0.05083 0.05147 0.69663 0.0
C482 C 0.64313 0.22066 0.2072 0.0
C483 C 0.66204 0.20204 0.25131 0.0
C484 C 0.65807 0.12664 0.20969 0.0
C485 C 0.62926 0.14298 0.17031 0.0
N486 N 0.58845 0.20741 0.13701 0.0
N487 N 0.6785 0.13342 0.29635 0.0
C488 C 0.62048 0.19065 0.17003 0.0
C489 C 0.66737 0.15394 0.25307 0.0
N490 N 0.64723 0.26695 0.20034 0.0
N491 N 0.67739 0.08535 0.20555 0.0
H492 H 0.68216 0.15114 0.3298 0.0
H493 H 0.67874 0.09784 0.29948 0.0
H494 H 0.67418 0.06592 0.17308 0.0
H495 H 0.70126 0.07366 0.23212 0.0
H496 H 0.63767 0.28174 0.16707 0.0
H497 H 0.66497 0.28976 0.22595 0.0
H498 H 0.5782 0.24099 0.1391 0.0
H499 H 0.56834 0.18733 0.11089 0.0
C500 C 0.42251 0.56981 0.40333 0.0
C501 C 0.39286 0.60651 0.40414 0.0
C502 C 0.44717 0.64897 0.46397 0.0
C503 C 0.47796 0.61306 0.46165 0.0
N504 N 0.49896 0.54323 0.42277 0.0
N505 N 0.37814 0.68336 0.42953 0.0
C506 C 0.4669 0.57469 0.4293 0.0
C507 C 0.40543 0.64673 0.433 0.0
N508 N 0.40767 0.52979 0.37867 0.0
N509 N 0.4581 0.68545 0.49556 0.0
H510 H 0.34659 0.68236 0.40849 0.0
H511 H 0.38771 0.71569 0.44502 0.0
H512 H 0.49051 0.69116 0.51446 0.0
H513 H 0.43482 0.70944 0.50427 0.0
H514 H 0.42526 0.49976 0.38107 0.0
H515 H 0.37562 0.52537 0.35865 0.0
H516 H 0.49488 0.5173 0.396 0.0
H517 H 0.53158 0.5451 0.44135 0.0
C518 C 0.20633 0.31187 0.82541 0.0
C519 C 0.21674 0.28374 0.86583 0.0
C520 C 0.20926 0.34844 0.92173 0.0
C521 C 0.20479 0.37779 0.88119 0.0
N522 N 0.20649 0.38918 0.7947 0.0
N523 N 0.23302 0.2753 0.9524 0.0
C524 C 0.20555 0.36 0.83303 0.0
C525 C 0.21968 0.30201 0.91405 0.0
N526 N 0.19559 0.29249 0.77997 0.0
N527 N 0.20149 0.36428 0.96719 0.0
H528 H 0.23935 0.24066 0.9481 0.0
H529 H 0.24069 0.28825 0.98786 0.0
H530 H 0.19421 0.3982 0.97446 0.0
H531 H 0.19818 0.34276 0.99667 0.0
H532 H 0.18373 0.31098 0.74992 0.0
H533 H 0.1938 0.25707 0.77339 0.0
H534 H 0.212 0.37849 0.75941 0.0
H535 H 0.20606 0.42477 0.79901 0.0
C536 C 0.71122 0.9458 0.9299 0.0
C537 C 0.75808 0.95475 0.95097 0.0
C538 C 0.71964 1.00165 1.01612 0.0
C539 C 0.67245 0.99035 0.9964 0.0
N540 N 0.62763 0.93969 0.9381 0.0
N541 N 0.80309 0.98818 1.02102 0.0
C542 C 0.67005 0.9593 0.95418 0.0
C543 C 0.76068 0.98177 0.99608 0.0
N544 N 0.70535 0.9247 0.88497 0.0
N545 N 0.72606 0.0335 0.05331 0.0
H546 H 0.83266 0.97575 1.0077 0.0
H547 H 0.80844 1.00226 0.0562 0.0
H548 H 0.69855 0.04789 0.06871 0.0
H549 H 0.75826 0.04821 0.06637 0.0
H550 H 0.67398 0.92222 0.86372 0.0
H551 H 0.73292 0.91299 0.86721 0.0
H552 H 0.62263 0.91342 0.91173 0.0
H553 H 0.59785 0.94558 0.95529 0.0
C554 C 0.77119 0.21942 0.4341 0.0
C555 C 0.77155 0.25153 0.39582 0.0
C556 C 0.85643 0.25965 0.40649 0.0
C557 C 0.85591 0.22866 0.44575 0.0
N558 N 0.81314 0.18585 0.5032 0.0
N559 N 0.81298 0.30815 0.3508 0.0
C560 C 0.81331 0.21074 0.46152 0.0
C561 C 0.81381 0.27353 0.38368 0.0
N562 N 0.73084 0.19561 0.44279 0.0
N563 N 0.8977 0.27459 0.39002 0.0
H564 H 0.78234 0.31876 0.33338 0.0
H565 H 0.84197 0.32878 0.34362 0.0
H566 H 0.92947 0.26615 0.4067 0.0
H567 H 0.90059 0.29294 0.35818 0.0
H568 H 0.72913 0.16776 0.46589 0.0
H569 H 0.69909 0.2015 0.4243 0.0
H570 H 0.78324 0.1761 0.51974 0.0
H571 H 0.84331 0.17808 0.52372 0.0
C572 C 0.24229 0.62359 0.14386 0.0
C573 C 0.23743 0.65569 0.18198 0.0
C574 C 0.16023 0.6713 0.1457 0.0
C575 C 0.16225 0.63371 0.11274 0.0
N576 N 0.20372 0.57183 0.08235 0.0
N577 N 0.19326 0.71153 0.21986 0.0
C578 C 0.20323 0.60985 0.11172 0.0
C579 C 0.19697 0.68049 0.18278 0.0
N580 N 0.28415 0.60584 0.1387 0.0
N581 N 0.12288 0.69766 0.14158 0.0
H582 H 0.22017 0.71987 0.24655 0.0
H583 H 0.16305 0.72741 0.22571 0.0
H584 H 0.0958 0.69134 0.11457 0.0
H585 H 0.12034 0.72768 0.16194 0.0
H586 H 0.29121 0.58652 0.10829 0.0
H587 H 0.31325 0.61348 0.16281 0.0
H588 H 0.23044 0.5496 0.08393 0.0
H589 H 0.17552 0.56094 0.05866 0.0
C590 C 0.28537 0.29137 0.67212 0.0
C591 C 0.31507 0.27006 0.70723 0.0
C592 C 0.37422 0.33253 0.70151 0.0
C593 C 0.3466 0.3508 0.66242 0.0
N594 N 0.2796 0.34316 0.60446 0.0
N595 N 0.39012 0.26614 0.75049 0.0
C596 C 0.30317 0.32897 0.64598 0.0
C597 C 0.36023 0.28945 0.72062 0.0
N598 N 0.23976 0.2767 0.66492 0.0
N599 N 0.41285 0.3571 0.72156 0.0
H600 H 0.38095 0.23452 0.76531 0.0
H601 H 0.42503 0.27622 0.7573 0.0
H602 H 0.42394 0.38911 0.70901 0.0
H603 H 0.43157 0.34773 0.75334 0.0
H604 H 0.21554 0.2942 0.64369 0.0
H605 H 0.22506 0.24958 0.6838 0.0
H606 H 0.25016 0.32534 0.58795 0.0
H607 H 0.2918 0.37032 0.58387 0.0
C608 C 0.97722 0.79682 0.95606 0.0
C609 C 0.96222 0.79947 0.90464 0.0
C610 C 0.99307 0.71829 0.89918 0.0
C611 C 1.00506 0.71431 0.95112 0.0
N612 N 1.00034 0.7525 0.02855 0.0
N613 N 0.9493 0.75374 0.83078 0.0
C614 C 0.99421 0.75438 0.97897 0.0
C615 C 0.96897 0.75766 0.87755 0.0
N616 N 0.97807 0.83634 0.98353 0.0
N617 N 1.00427 0.68363 0.86921 0.0
H618 H 0.93046 0.77947 0.81445 0.0
H619 H 0.94718 0.72342 0.80996 0.0
H620 H 1.01712 0.65322 0.88226 0.0
H621 H 1.00352 0.68616 0.83145 0.0
H622 H 0.99308 0.83984 1.01916 0.0
H623 H 0.96789 0.86727 0.96901 0.0
H624 H 0.988 0.77653 0.05184 0.0
H625 H 1.01515 0.72517 0.04651 0.0
C626 C 0.43115 0.71048 0.22558 0.0
C627 C 0.39069 0.72696 0.24359 0.0
C628 C 0.42021 0.80619 0.23545 0.0
C629 C 0.46199 0.78991 0.22029 0.0
N630 N 0.51088 0.72762 0.2085 0.0
N631 N 0.35091 0.78914 0.27645 0.0
C632 C 0.46865 0.74227 0.21777 0.0
C633 C 0.38662 0.77445 0.25202 0.0
N634 N 0.43292 0.66483 0.21413 0.0
N635 N 0.41146 0.85164 0.23161 0.0
H636 H 0.32548 0.76669 0.2891 0.0
H637 H 0.34894 0.82307 0.28822 0.0
H638 H 0.4346 0.87638 0.21883 0.0
H639 H 0.37944 0.86424 0.23685 0.0
H640 H 0.45935 0.65151 0.19594 0.0
H641 H 0.40623 0.64048 0.21972 0.0
H642 H 0.51934 0.6935 0.21092 0.0
H643 H 0.53879 0.7503 0.20217 0.0
C644 C 0.2222 0.07001 0.69857 0.0
C645 C 0.25328 0.10594 0.68553 0.0
C646 C 0.22737 0.09308 0.59996 0.0
C647 C 0.18815 0.06658 0.61385 0.0
N648 N 0.15353 0.02095 0.67596 0.0
N649 N 0.30701 0.1165 0.62434 0.0
C650 C 0.18709 0.05208 0.66308 0.0
C651 C 0.26294 0.10686 0.63611 0.0
N652 N 0.23115 0.04846 0.7416 0.0
N653 N 0.22987 0.10741 0.55318 0.0
H654 H 0.33416 0.12234 0.65145 0.0
H655 H 0.31673 0.11367 0.58878 0.0
H656 H 0.20353 0.10037 0.52561 0.0
H657 H 0.25647 0.13001 0.5432 0.0
H658 H 0.21253 1.01906 0.7518 0.0
H659 H 0.2612 0.0572 0.76409 0.0
H660 H 0.14765 1.01441 0.71214 0.0
H661 H 0.13119 1.00198 0.65066 0.0
C662 C 0.63384 0.43237 0.43233 0.0
C663 C 0.61382 0.38812 0.44094 0.0
C664 C 0.5754 0.41994 0.50933 0.0
C665 C 0.59037 0.46523 0.49658 0.0
N666 N 0.62838 0.51465 0.44027 0.0
N667 N 0.5624 0.33949 0.48474 0.0
C668 C 0.61856 0.4715 0.45684 0.0
C669 C 0.58382 0.3818 0.47874 0.0
N670 N 0.66763 0.437 0.40069 0.0
N671 N 0.55481 0.41305 0.55176 0.0
H672 H 0.56938 0.31036 0.46468 0.0
H673 H 0.53569 0.33381 0.50736 0.0
H674 H 0.54891 0.43972 0.5757 0.0
H675 H 0.5475 0.38066 0.56564 0.0
H676 H 0.6871 0.46763 0.39657 0.0
H677 H 0.67917 0.40903 0.38194 0.0
H678 H 0.64438 0.52089 0.40832 0.0
H679 H 0.61662 0.54427 0.45549 0.0
loop_
_geom_bond_atom_site_label_1
_geom_bond_atom_site_label_2
_geom_bond_distance
_geom_bond_site_symmetry_2
_ccdc_geom_bond_type
H0 C3 0.929 . S
H1 C6 0.929 . S
H2 C8 0.930 . S
C3 H0 0.929 . S
C3 C4 1.398 . S
C3 C5 1.396 . S
C4 C3 1.398 . S
C4 C8 1.407 . S
C5 C3 1.396 . S
C5 C6 1.394 . S
C6 H1 0.929 . S
C6 C5 1.394 . S
C6 C7 1.382 . S
C7 C6 1.382 . S
C7 C8 1.392 . S
C7 N9 1.420 . S
C8 H2 0.930 . S
C8 C4 1.407 . S
C8 C7 1.392 . S
N9 C7 1.420 . S
N9 C10 1.244 . S
C10 N9 1.244 . S
H11 C14 0.929 . S
H12 C17 0.929 . S
H13 C19 0.930 . S
C14 H11 0.929 . S
C14 C15 1.398 . S
C14 C16 1.396 . S
C15 C14 1.398 . S
C15 C19 1.407 . S
C16 C14 1.396 . S
C16 C17 1.394 . S
C17 H12 0.929 . S
C17 C16 1.394 . S
C17 C18 1.382 . S
C18 C17 1.382 . S
C18 C19 1.392 . S
C18 N20 1.420 . S
C19 H13 0.930 . S
C19 C15 1.407 . S
C19 C18 1.392 . S
N20 C18 1.420 . S
N20 C21 1.244 . S
C21 N20 1.244 . S
H22 C25 0.929 . S
H23 C28 0.929 . S
H24 C30 0.930 . S
C25 H22 0.929 . S
C25 C26 1.398 . S
C25 C27 1.396 . S
C26 C25 1.398 . S
C26 C30 1.407 . S
C27 C25 1.396 . S
C27 C28 1.394 . S
C28 H23 0.929 . S
C28 C27 1.394 . S
C28 C29 1.382 . S
C29 C28 1.382 . S
C29 C30 1.392 . S
C29 N31 1.420 . S
C30 H24 0.930 . S
C30 C26 1.407 . S
C30 C29 1.392 . S
N31 C29 1.420 . S
N31 C32 1.244 . S
C32 N31 1.244 . S
H33 C36 0.929 . S
H34 C39 0.929 . S
H35 C41 0.930 . S
C36 H33 0.929 . S
C36 C37 1.398 . S
C36 C38 1.396 . S
C37 C36 1.398 . S
C37 C41 1.407 . S
C38 C36 1.396 . S
C38 C39 1.394 . S
C39 H34 0.929 . S
C39 C38 1.394 . S
C39 C40 1.382 . S
C40 C39 1.382 . S
C40 C41 1.392 . S
C40 N42 1.420 . S
C41 H35 0.930 . S
C41 C37 1.407 . S
C41 C40 1.392 . S
N42 C40 1.420 . S
N42 C43 1.244 . S
C43 N42 1.244 . S
H44 C47 0.929 . S
H45 C50 0.929 . S
H46 C52 0.930 . S
C47 H44 0.929 . S
C47 C48 1.398 . S
C47 C49 1.396 . S
C48 C47 1.398 . S
C48 C52 1.407 . S
C49 C47 1.396 . S
C49 C50 1.394 . S
C50 H45 0.929 . S
C50 C49 1.394 . S
C50 C51 1.382 . S
C51 C50 1.382 . S
C51 C52 1.392 . S
C51 N53 1.420 . S
C52 H46 0.930 . S
C52 C48 1.407 . S
C52 C51 1.392 . S
N53 C51 1.420 . S
N53 C54 1.244 . S
C54 N53 1.244 . S
H55 C58 0.929 . S
H56 C61 0.929 . S
H57 C63 0.930 . S
C58 H55 0.929 . S
C58 C59 1.398 . S
C58 C60 1.396 . S
C59 C58 1.398 . S
C59 C63 1.407 . S
C60 C58 1.396 . S
C60 C61 1.394 . S
C61 H56 0.929 . S
C61 C60 1.394 . S
C61 C62 1.382 . S
C62 C61 1.382 . S
C62 C63 1.392 . S
C62 N64 1.420 . S
C63 H57 0.930 . S
C63 C59 1.407 . S
C63 C62 1.392 . S
N64 C62 1.420 . S
N64 C65 1.244 . S
C65 N64 1.244 . S
H66 C69 0.929 . S
H67 C72 0.929 . S
H68 C74 0.930 . S
C69 H66 0.929 . S
C69 C70 1.398 . S
C69 C71 1.396 . S
C70 C69 1.398 . S
C70 C74 1.407 . S
C71 C69 1.396 . S
C71 C72 1.394 . S
C72 H67 0.929 . S
C72 C71 1.394 . S
C72 C73 1.382 . S
C73 C72 1.382 . S
C73 C74 1.392 . S
C73 N75 1.420 . S
C74 H68 0.930 . S
C74 C70 1.407 . S
C74 C73 1.392 . S
N75 C73 1.420 . S
N75 C76 1.244 . S
C76 N75 1.244 . S
H77 C80 0.929 . S
H78 C83 0.929 . S
H79 C85 0.930 . S
C80 H77 0.929 . S
C80 C81 1.398 . S
C80 C82 1.396 . S
C81 C80 1.398 . S
C81 C85 1.407 . S
C82 C80 1.396 . S
C82 C83 1.394 . S
C83 H78 0.929 . S
C83 C82 1.394 . S
C83 C84 1.382 . S
C84 C83 1.382 . S
C84 C85 1.392 . S
C84 N86 1.420 . S
C85 H79 0.930 . S
C85 C81 1.407 . S
C85 C84 1.392 . S
N86 C84 1.420 . S
N86 C87 1.244 . S
C87 N86 1.244 . S
Nd88 C90 2.836 . S
Nd88 O108 2.500 . S
Nd88 O109 2.492 . S
Nd88 O110 2.487 1_565 S
Nd88 O111 2.682 1_565 S
Nd88 O112 2.410 . S
Nd88 O117 2.414 1_455 S
Nd88 O119 2.424 1_565 S
Nd89 C99 2.836 . S
Nd89 O111 2.414 1_655 S
Nd89 O113 2.424 1_545 S
Nd89 O114 2.500 . S
Nd89 O115 2.492 . S
Nd89 O116 2.487 1_545 S
Nd89 O117 2.682 1_545 S
Nd89 O118 2.410 . S
C90 Nd88 2.836 . S
C90 C91 1.498 . S
C90 O108 1.258 . S
C90 O109 1.239 . S
C91 C90 1.498 . S
C91 C92 1.366 . S
C91 C96 1.407 . S
C92 C91 1.366 . S
C92 C93 1.392 . S
C92 H120 0.930 . S
C93 C92 1.392 . S
C93 C94 1.398 . S
C93 H121 0.929 . S
C94 C93 1.398 . S
C94 C95 1.352 . S
C95 C94 1.352 . S
C95 C96 1.384 . S
C95 H122 0.930 . S
C96 C91 1.407 . S
C96 C95 1.384 . S
C96 H123 0.929 . S
C97 O110 1.241 . S
C97 O111 1.273 . S
C98 O112 1.251 1_655 S
C98 O113 1.268 . S
C99 Nd89 2.836 . S
C99 C100 1.498 . S
C99 O114 1.258 . S
C99 O115 1.239 . S
C100 C99 1.498 . S
C100 C101 1.366 . S
C100 C105 1.407 . S
C101 C100 1.366 . S
C101 C102 1.392 . S
C101 H124 0.930 . S
C102 C101 1.392 . S
C102 C103 1.398 . S
C102 H125 0.929 . S
C103 C102 1.398 . S
C103 C104 1.352 . S
C104 C103 1.352 . S
C104 C105 1.384 . S
C104 H126 0.930 . S
C105 C100 1.407 . S
C105 C104 1.384 . S
C105 H127 0.929 . S
C106 O116 1.241 . S
C106 O117 1.273 . S
C107 O118 1.251 1_455 S
C107 O119 1.268 . S
O108 Nd88 2.500 . S
O108 C90 1.258 . S
O109 Nd88 2.492 . S
O109 C90 1.239 . S
O110 Nd88 2.487 1_545 S
O110 C97 1.241 . S
O111 Nd88 2.682 1_545 S
O111 Nd89 2.414 1_455 S
O111 C97 1.273 . S
O112 Nd88 2.410 . S
O112 C98 1.251 1_455 S
O113 Nd89 2.424 1_565 S
O113 C98 1.268 . S
O114 Nd89 2.500 . S
O114 C99 1.258 . S
O115 Nd89 2.492 . S
O115 C99 1.239 . S
O116 Nd89 2.487 1_565 S
O116 C106 1.241 . S
O117 Nd88 2.414 1_655 S
O117 Nd89 2.682 1_565 S
O117 C106 1.273 . S
O118 Nd89 2.410 . S
O118 C107 1.251 1_655 S
O119 Nd88 2.424 1_545 S
O119 C107 1.268 . S
H120 C92 0.930 . S
H121 C93 0.929 . S
H122 C95 0.930 . S
H123 C96 0.929 . S
H124 C101 0.930 . S
H125 C102 0.929 . S
H126 C104 0.930 . S
H127 C105 0.929 . S
Nd128 C130 2.836 . S
Nd128 O148 2.500 . S
Nd128 O149 2.492 . S
Nd128 O150 2.487 1_565 S
Nd128 O151 2.682 1_565 S
Nd128 O152 2.410 . S
Nd128 O157 2.414 . S
Nd128 O159 2.424 1_565 S
Nd129 C139 2.836 . S
Nd129 O151 2.414 1_556 S
Nd129 O153 2.424 1_545 S
Nd129 O154 2.500 . S
Nd129 O155 2.492 . S
Nd129 O156 2.487 . S
Nd129 O157 2.682 1_546 S
Nd129 O158 2.410 1_556 S
C130 Nd128 2.836 . S
C130 C131 1.498 . S
C130 O148 1.258 . S
C130 O149 1.239 . S
C131 C130 1.498 . S
C131 C132 1.366 . S
C131 C136 1.407 . S
C132 C131 1.366 . S
C132 C133 1.392 . S
C132 H160 0.930 . S
C133 C132 1.392 . S
C133 C134 1.398 . S
C133 H161 0.929 . S
C134 C133 1.398 . S
C134 C135 1.352 . S
C135 C134 1.352 . S
C135 C136 1.384 . S
C135 H162 0.930 . S
C136 C131 1.407 . S
C136 C135 1.384 . S
C136 H163 0.929 . S
C137 O150 1.241 . S
C137 O151 1.273 . S
C138 O152 1.251 1_556 S
C138 O153 1.268 . S
C139 Nd129 2.836 . S
C139 C140 1.498 . S
C139 O154 1.258 . S
C139 O155 1.239 . S
C140 C139 1.498 . S
C140 C141 1.366 . S
C140 C145 1.407 . S
C141 C140 1.366 . S
C141 C142 1.392 . S
C141 H164 0.930 1_556 S
C142 C141 1.392 . S
C142 C143 1.398 . S
C142 H165 0.929 . S
C143 C142 1.398 . S
C143 C144 1.352 . S
C144 C143 1.352 . S
C144 C145 1.384 . S
C144 H166 0.930 . S
C145 C140 1.407 . S
C145 C144 1.384 . S
C145 H167 0.929 . S
C146 O156 1.241 1_564 S
C146 O157 1.273 . S
C147 O158 1.251 . S
C147 O159 1.268 . S
O148 Nd128 2.500 . S
O148 C130 1.258 . S
O149 Nd128 2.492 . S
O149 C130 1.239 . S
O150 Nd128 2.487 1_545 S
O150 C137 1.241 . S
O151 Nd128 2.682 1_545 S
O151 Nd129 2.414 1_554 S
O151 C137 1.273 . S
O152 Nd128 2.410 . S
O152 C138 1.251 1_554 S
O153 Nd129 2.424 1_565 S
O153 C138 1.268 . S
O154 Nd129 2.500 . S
O154 C139 1.258 . S
O155 Nd129 2.492 . S
O155 C139 1.239 . S
O156 Nd129 2.487 . S
O156 C146 1.241 1_546 S
O157 Nd128 2.414 . S
O157 Nd129 2.682 1_564 S
O157 C146 1.273 . S
O158 Nd129 2.410 1_554 S
O158 C147 1.251 . S
O159 Nd128 2.424 1_545 S
O159 C147 1.268 . S
H160 C132 0.930 . S
H161 C133 0.929 . S
H162 C135 0.930 . S
H163 C136 0.929 . S
H164 C141 0.930 1_554 S
H165 C142 0.929 . S
H166 C144 0.930 . S
H167 C145 0.929 . S
Nd168 C170 2.836 . S
Nd168 O188 2.500 . S
Nd168 O189 2.492 . S
Nd168 O190 2.487 . S
Nd168 O191 2.682 . S
Nd168 O192 2.410 . S
Nd168 O197 2.414 . S
Nd168 O199 2.424 . S
Nd169 C179 2.836 . S
Nd169 O191 2.414 . S
Nd169 O193 2.424 . S
Nd169 O194 2.500 . S
Nd169 O195 2.492 . S
Nd169 O196 2.487 . S
Nd169 O197 2.682 . S
Nd169 O198 2.410 . S
C170 Nd168 2.836 . S
C170 C171 1.498 . S
C170 O188 1.258 . S
C170 O189 1.239 . S
C171 C170 1.498 . S
C171 C172 1.366 . S
C171 C176 1.407 . S
C172 C171 1.366 . S
C172 C173 1.392 . S
C172 H200 0.930 . S
C173 C172 1.392 . S
C173 C174 1.398 . S
C173 H201 0.929 . S
C174 C173 1.398 . S
C174 C175 1.352 . S
C175 C174 1.352 . S
C175 C176 1.384 . S
C175 H202 0.930 . S
C176 C171 1.407 . S
C176 C175 1.384 . S
C176 H203 0.929 . S
C177 O190 1.241 . S
C177 O191 1.273 . S
C178 O192 1.251 . S
C178 O193 1.268 . S
C179 Nd169 2.836 . S
C179 C180 1.498 . S
C179 O194 1.258 . S
C179 O195 1.239 . S
C180 C179 1.498 . S
C180 C181 1.366 . S
C180 C185 1.407 . S
C181 C180 1.366 . S
C181 C182 1.392 . S
C181 H204 0.930 . S
C182 C181 1.392 . S
C182 C183 1.398 . S
C182 H205 0.929 . S
C183 C182 1.398 . S
C183 C184 1.352 . S
C184 C183 1.352 . S
C184 C185 1.384 . S
C184 H206 0.930 . S
C185 C180 1.407 . S
C185 C184 1.384 . S
C185 H207 0.929 . S
C186 O196 1.241 . S
C186 O197 1.273 . S
C187 O198 1.251 . S
C187 O199 1.268 . S
O188 Nd168 2.500 . S
O188 C170 1.258 . S
O189 Nd168 2.492 . S
O189 C170 1.239 . S
O190 Nd168 2.487 . S
O190 C177 1.241 . S
O191 Nd168 2.682 . S
O191 Nd169 2.414 . S
O191 C177 1.273 . S
O192 Nd168 2.410 . S
O192 C178 1.251 . S
O193 Nd169 2.424 . S
O193 C178 1.268 . S
O194 Nd169 2.500 . S
O194 C179 1.258 . S
O195 Nd169 2.492 . S
O195 C179 1.239 . S
O196 Nd169 2.487 . S
O196 C186 1.241 . S
O197 Nd168 2.414 . S
O197 Nd169 2.682 . S
O197 C186 1.273 . S
O198 Nd169 2.410 . S
O198 C187 1.251 . S
O199 Nd168 2.424 . S
O199 C187 1.268 . S
H200 C172 0.930 . S
H201 C173 0.929 . S
H202 C175 0.930 . S
H203 C176 0.929 . S
H204 C181 0.930 . S
H205 C182 0.929 . S
H206 C184 0.930 . S
H207 C185 0.929 . S
Nd208 C210 2.836 1_455 S
Nd208 O228 2.500 1_455 S
Nd208 O229 2.492 . S
Nd208 O230 2.487 . S
Nd208 O231 2.682 . S
Nd208 O232 2.410 . S
Nd208 O237 2.414 1_454 S
Nd208 O239 2.424 . S
Nd209 C219 2.836 . S
Nd209 O231 2.414 1_556 S
Nd209 O233 2.424 . S
Nd209 O234 2.500 . S
Nd209 O235 2.492 . S
Nd209 O236 2.487 1_455 S
Nd209 O237 2.682 1_455 S
Nd209 O238 2.410 . S
C210 Nd208 2.836 1_655 S
C210 C211 1.498 . S
C210 O228 1.258 . S
C210 O229 1.239 1_655 S
C211 C210 1.498 . S
C211 C212 1.366 . S
C211 C216 1.407 . S
C212 C211 1.366 . S
C212 C213 1.392 . S
C212 H240 0.930 . S
C213 C212 1.392 . S
C213 C214 1.398 . S
C213 H241 0.929 . S
C214 C213 1.398 . S
C214 C215 1.352 . S
C215 C214 1.352 . S
C215 C216 1.384 . S
C215 H242 0.930 . S
C216 C211 1.407 . S
C216 C215 1.384 . S
C216 H243 0.929 1_655 S
C217 O230 1.241 . S
C217 O231 1.273 . S
C218 O232 1.251 1_556 S
C218 O233 1.268 . S
C219 Nd209 2.836 . S
C219 C220 1.498 . S
C219 O234 1.258 . S
C219 O235 1.239 . S
C220 C219 1.498 . S
C220 C221 1.366 . S
C220 C225 1.407 . S
C221 C220 1.366 . S
C221 C222 1.392 . S
C221 H244 0.930 . S
C222 C221 1.392 . S
C222 C223 1.398 . S
C222 H245 0.929 . S
C223 C222 1.398 . S
C223 C224 1.352 . S
C224 C223 1.352 . S
C224 C225 1.384 . S
C224 H246 0.930 . S
C225 C220 1.407 . S
C225 C224 1.384 . S
C225 H247 0.929 . S
C226 O236 1.241 . S
C226 O237 1.273 . S
C227 O238 1.251 1_554 S
C227 O239 1.268 . S
O228 Nd208 2.500 1_655 S
O228 C210 1.258 . S
O229 Nd208 2.492 . S
O229 C210 1.239 1_455 S
O230 Nd208 2.487 . S
O230 C217 1.241 . S
O231 Nd208 2.682 . S
O231 Nd209 2.414 1_554 S
O231 C217 1.273 . S
O232 Nd208 2.410 . S
O232 C218 1.251 1_554 S
O233 Nd209 2.424 . S
O233 C218 1.268 . S
O234 Nd209 2.500 . S
O234 C219 1.258 . S
O235 Nd209 2.492 . S
O235 C219 1.239 . S
O236 Nd209 2.487 1_655 S
O236 C226 1.241 . S
O237 Nd208 2.414 1_656 S
O237 Nd209 2.682 1_655 S
O237 C226 1.273 . S
O238 Nd209 2.410 . S
O238 C227 1.251 1_556 S
O239 Nd208 2.424 . S
O239 C227 1.268 . S
H240 C212 0.930 . S
H241 C213 0.929 . S
H242 C215 0.930 . S
H243 C216 0.929 1_455 S
H244 C221 0.930 . S
H245 C222 0.929 . S
H246 C224 0.930 . S
H247 C225 0.929 . S
C248 C249 1.363 . S
C248 C254 1.379 . S
C248 N256 1.356 . S
C249 C248 1.363 . S
C249 C255 1.363 . S
C250 C251 1.363 . S
C250 C255 1.379 . S
C250 N257 1.356 . S
C251 C250 1.363 . S
C251 C254 1.363 . S
N252 C254 1.356 . S
N252 H264 0.984 1_455 S
N252 H265 0.985 1_455 S
N253 C255 1.356 . S
N253 H258 0.984 . S
N253 H259 0.985 . S
C254 C248 1.379 . S
C254 C251 1.363 . S
C254 N252 1.356 . S
C255 C249 1.363 . S
C255 C250 1.379 . S
C255 N253 1.356 . S
N256 C248 1.356 . S
N256 H262 0.984 . S
N256 H263 0.984 . S
N257 C250 1.356 . S
N257 H260 0.984 . S
N257 H261 0.985 . S
H258 N253 0.984 . S
H259 N253 0.985 . S
H260 N257 0.984 . S
H261 N257 0.985 . S
H262 N256 0.984 . S
H263 N256 0.984 . S
H264 N252 0.984 1_655 S
H265 N252 0.985 1_655 S
C266 C267 1.363 . S
C266 C272 1.379 . S
C266 N274 1.356 . S
C267 C266 1.363 . S
C267 C273 1.363 . S
C268 C269 1.363 . S
C268 C273 1.379 . S
C268 N275 1.356 . S
C269 C268 1.363 . S
C269 C272 1.363 . S
N270 C272 1.356 1_554 S
N270 H282 0.984 . S
N270 H283 0.985 . S
N271 C273 1.356 . S
N271 H276 0.984 . S
N271 H277 0.985 . S
C272 C266 1.379 . S
C272 C269 1.363 . S
C272 N270 1.356 1_556 S
C273 C267 1.363 . S
C273 C268 1.379 . S
C273 N271 1.356 . S
N274 C266 1.356 . S
N274 H280 0.984 . S
N274 H281 0.984 . S
N275 C268 1.356 . S
N275 H278 0.984 . S
N275 H279 0.985 . S
H276 N271 0.984 . S
H277 N271 0.985 . S
H278 N275 0.984 . S
H279 N275 0.985 . S
H280 N274 0.984 . S
H281 N274 0.984 . S
H282 N270 0.984 . S
H283 N270 0.985 . S
C284 C285 1.363 . S
C284 C290 1.379 . S
C284 N292 1.356 . S
C285 C284 1.363 . S
C285 C291 1.363 . S
C286 C287 1.363 . S
C286 C291 1.379 . S
C286 N293 1.356 . S
C287 C286 1.363 . S
C287 C290 1.363 . S
N288 C290 1.356 . S
N288 H300 0.984 . S
N288 H301 0.985 . S
N289 C291 1.356 . S
N289 H294 0.984 . S
N289 H295 0.985 . S
C290 C284 1.379 . S
C290 C287 1.363 . S
C290 N288 1.356 . S
C291 C285 1.363 . S
C291 C286 1.379 . S
C291 N289 1.356 . S
N292 C284 1.356 . S
N292 H298 0.984 . S
N292 H299 0.984 . S
N293 C286 1.356 . S
N293 H296 0.984 . S
N293 H297 0.985 . S
H294 N289 0.984 . S
H295 N289 0.985 . S
H296 N293 0.984 . S
H297 N293 0.985 . S
H298 N292 0.984 . S
H299 N292 0.984 . S
H300 N288 0.984 . S
H301 N288 0.985 . S
C302 C303 1.363 . S
C302 C308 1.379 . S
C302 N310 1.356 . S
C303 C302 1.363 . S
C303 C309 1.363 . S
C304 C305 1.363 . S
C304 C309 1.379 . S
C304 N311 1.356 . S
C305 C304 1.363 . S
C305 C308 1.363 . S
N306 C308 1.356 . S
N306 H318 0.984 . S
N306 H319 0.985 . S
N307 C309 1.356 . S
N307 H312 0.984 . S
N307 H313 0.985 1_655 S
C308 C302 1.379 . S
C308 C305 1.363 . S
C308 N306 1.356 . S
C309 C303 1.363 . S
C309 C304 1.379 . S
C309 N307 1.356 . S
N310 C302 1.356 . S
N310 H316 0.984 . S
N310 H317 0.984 . S
N311 C304 1.356 . S
N311 H314 0.984 . S
N311 H315 0.985 1_655 S
H312 N307 0.984 . S
H313 N307 0.985 1_455 S
H314 N311 0.984 . S
H315 N311 0.985 1_455 S
H316 N310 0.984 . S
H317 N310 0.984 . S
H318 N306 0.984 . S
H319 N306 0.985 . S
C320 C321 1.363 . S
C320 C326 1.379 . S
C320 N328 1.356 . S
C321 C320 1.363 . S
C321 C327 1.363 . S
C322 C323 1.363 . S
C322 C327 1.379 . S
C322 N329 1.356 . S
C323 C322 1.363 . S
C323 C326 1.363 . S
N324 C326 1.356 . S
N324 H336 0.984 1_554 S
N324 H337 0.985 . S
N325 C327 1.356 . S
N325 H330 0.984 . S
N325 H331 0.985 . S
C326 C320 1.379 . S
C326 C323 1.363 . S
C326 N324 1.356 . S
C327 C321 1.363 . S
C327 C322 1.379 . S
C327 N325 1.356 . S
N328 C320 1.356 . S
N328 H334 0.984 . S
N328 H335 0.984 . S
N329 C322 1.356 . S
N329 H332 0.984 . S
N329 H333 0.985 . S
H330 N325 0.984 . S
H331 N325 0.985 . S
H332 N329 0.984 . S
H333 N329 0.985 . S
H334 N328 0.984 . S
H335 N328 0.984 . S
H336 N324 0.984 1_556 S
H337 N324 0.985 . S
C338 C339 1.363 . S
C338 C344 1.379 . S
C338 N346 1.356 . S
C339 C338 1.363 . S
C339 C345 1.363 . S
C340 C341 1.363 . S
C340 C345 1.379 . S
C340 N347 1.356 . S
C341 C340 1.363 . S
C341 C344 1.363 . S
N342 C344 1.356 . S
N342 H354 0.984 . S
N342 H355 0.985 . S
N343 C345 1.356 . S
N343 H348 0.984 . S
N343 H349 0.985 . S
C344 C338 1.379 . S
C344 C341 1.363 . S
C344 N342 1.356 . S
C345 C339 1.363 . S
C345 C340 1.379 . S
C345 N343 1.356 . S
N346 C338 1.356 . S
N346 H352 0.984 . S
N346 H353 0.984 . S
N347 C340 1.356 . S
N347 H350 0.984 . S
N347 H351 0.985 . S
H348 N343 0.984 . S
H349 N343 0.985 . S
H350 N347 0.984 . S
H351 N347 0.985 . S
H352 N346 0.984 . S
H353 N346 0.984 . S
H354 N342 0.984 . S
H355 N342 0.985 . S
C356 C357 1.363 . S
C356 C362 1.379 . S
C356 N364 1.356 . S
C357 C356 1.363 . S
C357 C363 1.363 . S
C358 C359 1.363 . S
C358 C363 1.379 . S
C358 N365 1.356 . S
C359 C358 1.363 . S
C359 C362 1.363 . S
N360 C362 1.356 . S
N360 H372 0.984 . S
N360 H373 0.985 . S
N361 C363 1.356 . S
N361 H366 0.984 . S
N361 H367 0.985 . S
C362 C356 1.379 . S
C362 C359 1.363 . S
C362 N360 1.356 . S
C363 C357 1.363 . S
C363 C358 1.379 . S
C363 N361 1.356 . S
N364 C356 1.356 . S
N364 H370 0.984 . S
N364 H371 0.984 . S
N365 C358 1.356 . S
N365 H368 0.986 . S
N365 H369 0.985 1_556 S
H366 N361 0.984 . S
H367 N361 0.985 . S
H368 N365 0.986 . S
H369 N365 0.985 1_554 S
H370 N364 0.984 . S
H371 N364 0.984 . S
H372 N360 0.984 . S
H373 N360 0.985 . S
C374 C375 1.363 . S
C374 C380 1.379 . S
C374 N382 1.356 . S
C375 C374 1.363 . S
C375 C381 1.363 . S
C376 C377 1.363 . S
C376 C381 1.379 . S
C376 N383 1.356 . S
C377 C376 1.363 . S
C377 C380 1.363 . S
N378 C380 1.356 . S
N378 H390 0.984 . S
N378 H391 0.985 . S
N379 C381 1.356 . S
N379 H384 0.984 . S
N379 H385 0.985 . S
C380 C374 1.379 . S
C380 C377 1.363 . S
C380 N378 1.356 . S
C381 C375 1.363 . S
C381 C376 1.379 . S
C381 N379 1.356 . S
N382 C374 1.356 . S
N382 H388 0.984 . S
N382 H389 0.984 . S
N383 C376 1.356 . S
N383 H386 0.984 . S
N383 H387 0.985 . S
H384 N379 0.984 . S
H385 N379 0.985 . S
H386 N383 0.984 . S
H387 N383 0.985 . S
H388 N382 0.984 . S
H389 N382 0.984 . S
H390 N378 0.984 . S
H391 N378 0.985 . S
C392 C393 1.363 . S
C392 C398 1.379 . S
C392 N400 1.356 . S
C393 C392 1.363 . S
C393 C399 1.363 . S
C394 C395 1.363 . S
C394 C399 1.379 . S
C394 N401 1.356 1_554 S
C395 C394 1.363 . S
C395 C398 1.363 . S
N396 C398 1.356 . S
N396 H408 0.984 . S
N396 H409 0.985 . S
N397 C399 1.356 . S
N397 H402 0.984 . S
N397 H403 0.985 1_554 S
C398 C392 1.379 . S
C398 C395 1.363 . S
C398 N396 1.356 . S
C399 C393 1.363 . S
C399 C394 1.379 . S
C399 N397 1.356 . S
N400 C392 1.356 . S
N400 H406 0.984 . S
N400 H407 0.984 . S
N401 C394 1.356 1_556 S
N401 H404 0.984 . S
N401 H405 0.985 . S
H402 N397 0.984 . S
H403 N397 0.985 1_556 S
H404 N401 0.984 . S
H405 N401 0.985 . S
H406 N400 0.984 . S
H407 N400 0.984 . S
H408 N396 0.984 . S
H409 N396 0.985 . S
C410 C411 1.363 . S
C410 C416 1.379 . S
C410 N418 1.356 . S
C411 C410 1.363 . S
C411 C417 1.363 . S
C412 C413 1.363 . S
C412 C417 1.379 . S
C412 N419 1.356 1_556 S
C413 C412 1.363 . S
C413 C416 1.363 . S
N414 C416 1.356 . S
N414 H426 0.984 . S
N414 H427 0.985 . S
N415 C417 1.356 . S
N415 H420 0.984 . S
N415 H421 1.002 . S
C416 C410 1.379 . S
C416 C413 1.363 . S
C416 N414 1.356 . S
C417 C411 1.363 . S
C417 C412 1.379 . S
C417 N415 1.356 . S
N418 C410 1.356 . S
N418 H424 0.984 . S
N418 H425 0.984 . S
N419 C412 1.356 1_554 S
N419 H422 0.984 . S
N419 H423 0.985 . S
H420 N415 0.984 . S
H421 N415 1.002 . S
H422 N419 0.984 . S
H423 N419 0.985 . S
H424 N418 0.984 . S
H425 N418 0.984 . S
H426 N414 0.984 . S
H427 N414 0.985 . S
C428 C429 1.363 . S
C428 C434 1.379 . S
C428 N436 1.356 . S
C429 C428 1.363 . S
C429 C435 1.363 . S
C430 C431 1.363 . S
C430 C435 1.379 . S
C430 N437 1.356 . S
C431 C430 1.363 . S
C431 C434 1.363 . S
N432 C434 1.356 . S
N432 H444 0.978 1_655 S
N432 H445 0.985 1_655 S
N433 C435 1.356 . S
N433 H438 0.984 . S
N433 H439 0.985 . S
C434 C428 1.379 . S
C434 C431 1.363 . S
C434 N432 1.356 . S
C435 C429 1.363 . S
C435 C430 1.379 . S
C435 N433 1.356 . S
N436 C428 1.356 . S
N436 H442 0.984 . S
N436 H443 0.984 . S
N437 C430 1.356 . S
N437 H440 0.984 . S
N437 H441 0.985 . S
H438 N433 0.984 . S
H439 N433 0.985 . S
H440 N437 0.984 . S
H441 N437 0.985 . S
H442 N436 0.984 . S
H443 N436 0.984 . S
H444 N432 0.978 1_455 S
H445 N432 0.985 1_455 S
C446 C447 1.363 . S
C446 C452 1.379 . S
C446 N454 1.356 . S
C447 C446 1.363 . S
C447 C453 1.363 . S
C448 C449 1.363 . S
C448 C453 1.379 . S
C448 N455 1.356 . S
C449 C448 1.363 . S
C449 C452 1.363 . S
N450 C452 1.356 . S
N450 H462 0.984 . S
N450 H463 0.985 . S
N451 C453 1.356 . S
N451 H456 0.984 . S
N451 H457 0.985 . S
C452 C446 1.379 . S
C452 C449 1.363 . S
C452 N450 1.356 . S
C453 C447 1.363 . S
C453 C448 1.379 . S
C453 N451 1.356 . S
N454 C446 1.356 . S
N454 H460 0.984 . S
N454 H461 0.984 . S
N455 C448 1.356 . S
N455 H458 0.984 . S
N455 H459 0.985 . S
H456 N451 0.984 . S
H457 N451 0.985 . S
H458 N455 0.984 . S
H459 N455 0.985 . S
H460 N454 0.984 . S
H461 N454 0.984 . S
H462 N450 0.984 . S
H463 N450 0.985 . S
C464 C465 1.363 . S
C464 C470 1.379 . S
C464 N472 1.356 . S
C465 C464 1.363 . S
C465 C471 1.363 . S
C466 C467 1.363 . S
C466 C471 1.379 . S
C466 N473 1.356 . S
C467 C466 1.363 . S
C467 C470 1.363 . S
N468 C470 1.356 1_545 S
N468 H480 0.984 . S
N468 H481 0.985 . S
N469 C471 1.356 . S
N469 H474 0.984 . S
N469 H475 0.985 . S
C470 C464 1.379 . S
C470 C467 1.363 . S
C470 N468 1.356 1_565 S
C471 C465 1.363 . S
C471 C466 1.379 . S
C471 N469 1.356 . S
N472 C464 1.356 . S
N472 H478 0.983 1_565 S
N472 H479 0.984 . S
N473 C466 1.356 . S
N473 H476 0.984 . S
N473 H477 0.985 . S
H474 N469 0.984 . S
H475 N469 0.985 . S
H476 N473 0.984 . S
H477 N473 0.985 . S
H478 N472 0.983 1_545 S
H479 N472 0.984 . S
H480 N468 0.984 . S
H481 N468 0.985 . S
C482 C483 1.363 . S
C482 C488 1.379 . S
C482 N490 1.356 . S
C483 C482 1.363 . S
C483 C489 1.363 . S
C484 C485 1.363 . S
C484 C489 1.379 . S
C484 N491 1.356 . S
C485 C484 1.363 . S
C485 C488 1.363 . S
N486 C488 1.356 . S
N486 H498 0.984 . S
N486 H499 0.985 . S
N487 C489 1.356 . S
N487 H492 0.984 . S
N487 H493 0.985 . S
C488 C482 1.379 . S
C488 C485 1.363 . S
C488 N486 1.356 . S
C489 C483 1.363 . S
C489 C484 1.379 . S
C489 N487 1.356 . S
N490 C482 1.356 . S
N490 H496 0.984 . S
N490 H497 0.984 . S
N491 C484 1.356 . S
N491 H494 0.984 . S
N491 H495 0.985 . S
H492 N487 0.984 . S
H493 N487 0.985 . S
H494 N491 0.984 . S
H495 N491 0.985 . S
H496 N490 0.984 . S
H497 N490 0.984 . S
H498 N486 0.984 . S
H499 N486 0.985 . S
C500 C501 1.363 . S
C500 C506 1.379 . S
C500 N508 1.356 . S
C501 C500 1.363 . S
C501 C507 1.363 . S
C502 C503 1.363 . S
C502 C507 1.379 . S
C502 N509 1.356 . S
C503 C502 1.363 . S
C503 C506 1.363 . S
N504 C506 1.356 . S
N504 H516 0.984 . S
N504 H517 0.985 . S
N505 C507 1.356 . S
N505 H510 0.984 . S
N505 H511 0.985 . S
C506 C500 1.379 . S
C506 C503 1.363 . S
C506 N504 1.356 . S
C507 C501 1.363 . S
C507 C502 1.379 . S
C507 N505 1.356 . S
N508 C500 1.356 . S
N508 H514 0.984 . S
N508 H515 0.984 . S
N509 C502 1.356 . S
N509 H512 0.984 . S
N509 H513 0.985 . S
H510 N505 0.984 . S
H511 N505 0.985 . S
H512 N509 0.984 . S
H513 N509 0.985 . S
H514 N508 0.984 . S
H515 N508 0.984 . S
H516 N504 0.984 . S
H517 N504 0.985 . S
C518 C519 1.363 . S
C518 C524 1.379 . S
C518 N526 1.356 . S
C519 C518 1.363 . S
C519 C525 1.363 . S
C520 C521 1.363 . S
C520 C525 1.379 . S
C520 N527 1.356 . S
C521 C520 1.363 . S
C521 C524 1.363 . S
N522 C524 1.356 . S
N522 H534 0.984 . S
N522 H535 0.985 . S
N523 C525 1.356 . S
N523 H528 0.984 . S
N523 H529 0.985 . S
C524 C518 1.379 . S
C524 C521 1.363 . S
C524 N522 1.356 . S
C525 C519 1.363 . S
C525 C520 1.379 . S
C525 N523 1.356 . S
N526 C518 1.356 . S
N526 H532 0.984 . S
N526 H533 0.984 . S
N527 C520 1.356 . S
N527 H530 0.984 . S
N527 H531 0.985 . S
H528 N523 0.984 . S
H529 N523 0.985 . S
H530 N527 0.984 . S
H531 N527 0.985 . S
H532 N526 0.984 . S
H533 N526 0.984 . S
H534 N522 0.984 . S
H535 N522 0.985 . S
C536 C537 1.363 . S
C536 C542 1.379 . S
C536 N544 1.356 . S
C537 C536 1.363 . S
C537 C543 1.363 . S
C538 C539 1.363 1_554 S
C538 C543 1.379 1_554 S
C538 N545 1.356 1_565 S
C539 C538 1.363 1_556 S
C539 C542 1.363 . S
N540 C542 1.356 . S
N540 H552 0.984 . S
N540 H553 0.985 . S
N541 C543 1.356 . S
N541 H546 0.984 . S
N541 H547 0.985 1_566 S
C542 C536 1.379 . S
C542 C539 1.363 . S
C542 N540 1.356 . S
C543 C537 1.363 . S
C543 C538 1.379 1_556 S
C543 N541 1.356 . S
N544 C536 1.356 . S
N544 H550 0.984 . S
N544 H551 0.984 . S
N545 C538 1.356 1_545 S
N545 H548 0.984 . S
N545 H549 0.985 . S
H546 N541 0.984 . S
H547 N541 0.985 1_544 S
H548 N545 0.984 . S
H549 N545 0.985 . S
H550 N544 0.984 . S
H551 N544 0.984 . S
H552 N540 0.984 . S
H553 N540 0.985 . S
C554 C555 1.363 . S
C554 C560 1.379 . S
C554 N562 1.356 . S
C555 C554 1.363 . S
C555 C561 1.363 . S
C556 C557 1.363 . S
C556 C561 1.379 . S
C556 N563 1.356 . S
C557 C556 1.363 . S
C557 C560 1.363 . S
N558 C560 1.356 . S
N558 H570 0.984 . S
N558 H571 0.985 . S
N559 C561 1.356 . S
N559 H564 0.984 . S
N559 H565 0.985 . S
C560 C554 1.379 . S
C560 C557 1.363 . S
C560 N558 1.356 . S
C561 C555 1.363 . S
C561 C556 1.379 . S
C561 N559 1.356 . S
N562 C554 1.356 . S
N562 H568 0.984 . S
N562 H569 0.984 . S
N563 C556 1.356 . S
N563 H566 0.984 . S
N563 H567 0.985 . S
H564 N559 0.984 . S
H565 N559 0.985 . S
H566 N563 0.984 . S
H567 N563 0.985 . S
H568 N562 0.984 . S
H569 N562 0.984 . S
H570 N558 0.984 . S
H571 N558 0.985 . S
C572 C573 1.363 . S
C572 C578 1.379 . S
C572 N580 1.356 . S
C573 C572 1.363 . S
C573 C579 1.363 . S
C574 C575 1.363 . S
C574 C579 1.379 . S
C574 N581 1.356 . S
C575 C574 1.363 . S
C575 C578 1.363 . S
N576 C578 1.356 . S
N576 H588 0.984 . S
N576 H589 0.985 . S
N577 C579 1.356 . S
N577 H582 0.984 . S
N577 H583 0.985 . S
C578 C572 1.379 . S
C578 C575 1.363 . S
C578 N576 1.356 . S
C579 C573 1.363 . S
C579 C574 1.379 . S
C579 N577 1.356 . S
N580 C572 1.356 . S
N580 H586 0.984 . S
N580 H587 0.984 . S
N581 C574 1.356 . S
N581 H584 0.984 . S
N581 H585 0.985 . S
H582 N577 0.984 . S
H583 N577 0.985 . S
H584 N581 0.984 . S
H585 N581 0.985 . S
H586 N580 0.984 . S
H587 N580 0.984 . S
H588 N576 0.984 . S
H589 N576 0.985 . S
C590 C591 1.363 . S
C590 C596 1.379 . S
C590 N598 1.356 . S
C591 C590 1.363 . S
C591 C597 1.363 . S
C592 C593 1.363 . S
C592 C597 1.379 . S
C592 N599 1.356 . S
C593 C592 1.363 . S
C593 C596 1.363 . S
N594 C596 1.356 . S
N594 H606 0.984 . S
N594 H607 0.985 . S
N595 C597 1.356 . S
N595 H600 0.984 . S
N595 H601 0.985 . S
C596 C590 1.379 . S
C596 C593 1.363 . S
C596 N594 1.356 . S
C597 C591 1.363 . S
C597 C592 1.379 . S
C597 N595 1.356 . S
N598 C590 1.356 . S
N598 H604 0.984 . S
N598 H605 0.984 . S
N599 C592 1.356 . S
N599 H602 0.984 . S
N599 H603 0.985 . S
H600 N595 0.984 . S
H601 N595 0.985 . S
H602 N599 0.984 . S
H603 N599 0.985 . S
H604 N598 0.984 . S
H605 N598 0.984 . S
H606 N594 0.984 . S
H607 N594 0.985 . S
C608 C609 1.363 . S
C608 C614 1.379 . S
C608 N616 1.356 . S
C609 C608 1.363 . S
C609 C615 1.363 . S
C610 C611 1.363 . S
C610 C615 1.379 . S
C610 N617 1.356 . S
C611 C610 1.363 . S
C611 C614 1.363 . S
N612 C614 1.356 1_454 S
N612 H624 0.984 . S
N612 H625 0.985 . S
N613 C615 1.356 . S
N613 H618 0.984 . S
N613 H619 0.985 . S
C614 C608 1.379 . S
C614 C611 1.363 . S
C614 N612 1.356 1_656 S
C615 C609 1.363 . S
C615 C610 1.379 . S
C615 N613 1.356 . S
N616 C608 1.356 . S
N616 H622 0.984 1_556 S
N616 H623 0.984 . S
N617 C610 1.356 . S
N617 H620 0.984 . S
N617 H621 0.985 . S
H618 N613 0.984 . S
H619 N613 0.985 . S
H620 N617 0.984 . S
H621 N617 0.985 . S
H622 N616 0.984 1_554 S
H623 N616 0.984 . S
H624 N612 0.984 . S
H625 N612 0.985 . S
C626 C627 1.363 . S
C626 C632 1.379 . S
C626 N634 1.356 . S
C627 C626 1.363 . S
C627 C633 1.363 . S
C628 C629 1.363 . S
C628 C633 1.379 . S
C628 N635 1.356 . S
C629 C628 1.363 . S
C629 C632 1.363 . S
N630 C632 1.356 . S
N630 H642 0.984 . S
N630 H643 0.985 . S
N631 C633 1.356 . S
N631 H636 0.984 . S
N631 H637 0.985 . S
C632 C626 1.379 . S
C632 C629 1.363 . S
C632 N630 1.356 . S
C633 C627 1.363 . S
C633 C628 1.379 . S
C633 N631 1.356 . S
N634 C626 1.356 . S
N634 H640 0.984 . S
N634 H641 0.984 . S
N635 C628 1.356 . S
N635 H638 0.984 . S
N635 H639 0.985 . S
H636 N631 0.984 . S
H637 N631 0.985 . S
H638 N635 0.984 . S
H639 N635 0.985 . S
H640 N634 0.984 . S
H641 N634 0.984 . S
H642 N630 0.984 . S
H643 N630 0.985 . S
C644 C645 1.363 . S
C644 C650 1.379 . S
C644 N652 1.356 . S
C645 C644 1.363 . S
C645 C651 1.363 . S
C646 C647 1.363 . S
C646 C651 1.379 . S
C646 N653 1.356 . S
C647 C646 1.363 . S
C647 C650 1.363 . S
N648 C650 1.356 . S
N648 H660 0.984 1_455 S
N648 H661 0.985 1_455 S
N649 C651 1.356 . S
N649 H654 0.984 . S
N649 H655 0.985 . S
C650 C644 1.379 . S
C650 C647 1.363 . S
C650 N648 1.356 . S
C651 C645 1.363 . S
C651 C646 1.379 . S
C651 N649 1.356 . S
N652 C644 1.356 . S
N652 H658 0.984 . S
N652 H659 0.984 . S
N653 C646 1.356 . S
N653 H656 0.984 . S
N653 H657 0.985 . S
H654 N649 0.984 . S
H655 N649 0.985 . S
H656 N653 0.984 . S
H657 N653 0.985 . S
H658 N652 0.984 . S
H659 N652 0.984 . S
H660 N648 0.984 1_655 S
H661 N648 0.985 1_655 S
C662 C663 1.363 . S
C662 C668 1.379 . S
C662 N670 1.356 . S
C663 C662 1.363 . S
C663 C669 1.363 . S
C664 C665 1.363 . S
C664 C669 1.379 . S
C664 N671 1.356 . S
C665 C664 1.363 . S
C665 C668 1.363 . S
N666 C668 1.356 . S
N666 H678 0.984 . S
N666 H679 0.985 . S
N667 C669 1.356 . S
N667 H672 0.984 . S
N667 H673 0.985 . S
C668 C662 1.379 . S
C668 C665 1.363 . S
C668 N666 1.356 . S
C669 C663 1.363 . S
C669 C664 1.379 . S
C669 N667 1.356 . S
N670 C662 1.356 . S
N670 H676 0.984 . S
N670 H677 0.984 . S
N671 C664 1.356 . S
N671 H674 0.984 . S
N671 H675 0.985 . S
H672 N667 0.984 . S
H673 N667 0.985 . S
H674 N671 0.984 . S
H675 N671 0.985 . S
H676 N670 0.984 . S
H677 N670 0.984 . S
H678 N666 0.984 . S
H679 N666 0.985 . S
C249 C4 3.065 . S
C251 C107 3.023 . S
C267 C16 2.347 . S
C269 C138 2.448 . S
C287 C177 1.128 . S
C285 C32 1.136 . S
C303 C43 0.709 . S
C305 C214 0.713 . S
C323 C137 3.157 . S
C321 C5 3.249 . S
C341 C94 1.156 . S
C339 C21 1.167 . S
C359 C226 1.381 . S
C357 C27 1.379 . S
C377 C183 1.230 . S
C375 C37 1.222 . S
C393 C10 2.447 . S
C395 C227 2.447 . S
C413 C143 1.445 . S
C411 C26 1.458 . S
C429 C38 0.695 . S
C431 C106 0.931 . S
C447 C15 2.348 . S
C449 C178 2.391 . S
C467 C98 3.011 . S
C465 C48 3.052 . S
C483 C59 2.113 . S
C485 C147 2.213 . S
C501 C76 1.417 . S
C503 C186 1.429 . S
C519 C87 0.789 . S
C521 C223 0.799 . S
C537 C54 2.739 . S
C539 C146 2.623 1_556 S
C557 C103 1.506 . S
C555 C60 1.496 . S
C575 C217 1.424 . S
C573 C71 1.465 . S
C593 C174 1.284 . S
C591 C82 1.315 . S
C609 C49 2.604 . S
C611 C218 2.603 1_655 S
C629 C134 1.342 . S
C627 C70 1.359 . S
C647 C97 0.638 . S
C645 C81 0.577 . S
C663 C65 2.169 . S
C665 C187 2.232 . S
