# Generated by pormake.
# Topology hwx, (6,3)-cn, num edge types: 1
# Building blocks:
#     Node 0, Type 0, BuildingBlock: IZENUY_clean_sbu_0, # of connection points: 6
#     Node 1, Type 0, BuildingBlock: IZENUY_clean_sbu_0, # of connection points: 6
#     Node 2, Type 0, BuildingBlock: IZENUY_clean_sbu_0, # of connection points: 6
#     Node 3, Type 0, BuildingBlock: IZENUY_clean_sbu_0, # of connection points: 6
#     Node 4, Type 1, BuildingBlock: BELTOD_clean_linker_0, # of connection points: 3
#     Node 5, Type 1, BuildingBlock: BELTOD_clean_linker_0, # of connection points: 3
#     Node 6, Type 1, BuildingBlock: BELTOD_clean_linker_0, # of connection points: 3
#     Node 7, Type 1, BuildingBlock: BELTOD_clean_linker_0, # of connection points: 3
#     Node 8, Type 1, BuildingBlock: BELTOD_clean_linker_0, # of connection points: 3
#     Node 9, Type 1, BuildingBlock: BELTOD_clean_linker_0, # of connection points: 3
#     Node 10, Type 1, BuildingBlock: BELTOD_clean_linker_0, # of connection points: 3
#     Node 11, Type 1, BuildingBlock: BELTOD_clean_linker_0, # of connection points: 3
#     Edge 12, Type (0, 1), BuildingBlock: XUDNAN_clean_linker_2, # of connection points: 2
#     Edge 13, Type (0, 1), BuildingBlock: XUDNAN_clean_linker_2, # of connection points: 2
#     Edge 14, Type (0, 1), BuildingBlock: XUDNAN_clean_linker_2, # of connection points: 2
#     Edge 15, Type (0, 1), BuildingBlock: XUDNAN_clean_linker_2, # of connection points: 2
#     Edge 16, Type (0, 1), BuildingBlock: XUDNAN_clean_linker_2, # of connection points: 2
#     Edge 17, Type (0, 1), BuildingBlock: XUDNAN_clean_linker_2, # of connection points: 2
#     Edge 18, Type (0, 1), BuildingBlock: XUDNAN_clean_linker_2, # of connection points: 2
#     Edge 19, Type (0, 1), BuildingBlock: XUDNAN_clean_linker_2, # of connection points: 2
#     Edge 20, Type (0, 1), BuildingBlock: XUDNAN_clean_linker_2, # of connection points: 2
#     Edge 21, Type (0, 1), BuildingBlock: XUDNAN_clean_linker_2, # of connection points: 2
#     Edge 22, Type (0, 1), BuildingBlock: XUDNAN_clean_linker_2, # of connection points: 2
#     Edge 23, Type (0, 1), BuildingBlock: XUDNAN_clean_linker_2, # of connection points: 2
#     Edge 24, Type (0, 1), BuildingBlock: XUDNAN_clean_linker_2, # of connection points: 2
#     Edge 25, Type (0, 1), BuildingBlock: XUDNAN_clean_linker_2, # of connection points: 2
#     Edge 26, Type (0, 1), BuildingBlock: XUDNAN_clean_linker_2, # of connection points: 2
#     Edge 27, Type (0, 1), BuildingBlock: XUDNAN_clean_linker_2, # of connection points: 2
#     Edge 28, Type (0, 1), BuildingBlock: XUDNAN_clean_linker_2, # of connection points: 2
#     Edge 29, Type (0, 1), BuildingBlock: XUDNAN_clean_linker_2, # of connection points: 2
#     Edge 30, Type (0, 1), BuildingBlock: XUDNAN_clean_linker_2, # of connection points: 2
#     Edge 31, Type (0, 1), BuildingBlock: XUDNAN_clean_linker_2, # of connection points: 2
#     Edge 32, Type (0, 1), BuildingBlock: XUDNAN_clean_linker_2, # of connection points: 2
#     Edge 33, Type (0, 1), BuildingBlock: XUDNAN_clean_linker_2, # of connection points: 2
#     Edge 34, Type (0, 1), BuildingBlock: XUDNAN_clean_linker_2, # of connection points: 2
#     Edge 35, Type (0, 1), BuildingBlock: XUDNAN_clean_linker_2, # of connection points: 2
# Relax obj value: 0.046
# Max RMSD: 0.072
# Mean RMSD: 0.062
data_MOF--net-hwx--node1-IZENUY_clean_sbu_0--node2-BELTOD_clean_linker_0--edge1-XUDNAN_clean_linker_2
_symmetry_space_group_name_H-M    P1
_symmetry_Int_Tables_number       1
_symmetry_cell_setting            triclinic
loop_
_symmetry_equiv_pos_as_xyz
'x, y, z'
_cell_length_a     54.045992
_cell_length_b     54.146242
_cell_length_c     25.791259
_cell_angle_alpha  89.397533
_cell_angle_beta   90.626838
_cell_angle_gamma 89.995734
loop_
_atom_site_label
_atom_site_type_symbol
_atom_site_fract_x
_atom_site_fract_y
_atom_site_fract_z
_atom_type_partial_charge
Fe0 Fe 0.23764 0.21025 0.08854 0.0
Fe1 Fe 0.24095 0.20305 0.97165 0.0
O2 O 0.23198 0.19183 0.03354 0.0
Fe3 Fe 0.21738 0.16261 0.04028 0.0
O4 O 0.1904 0.17584 0.07076 0.0
O5 O 0.21062 0.19972 0.12465 0.0
O6 O 0.21842 0.23491 0.06261 0.0
C7 C 0.22268 0.24578 0.02027 0.0
C8 C 0.25093 0.1648 0.12643 0.0
O9 O 0.2364 0.23586 0.98688 0.0
C10 C 0.25109 0.15169 0.96561 0.0
O11 O 0.26616 0.22403 0.06334 0.0
O12 O 0.2733 0.20418 0.99105 0.0
O13 O 0.23239 0.1551 0.1036 0.0
O14 O 0.25698 0.18686 0.1174 0.0
C15 C 0.19522 0.18406 0.94948 0.0
O16 O 0.24694 0.17248 0.9444 0.0
O17 O 0.24302 0.14684 0.0102 0.0
C18 C 0.28102 0.21608 0.02976 0.0
O19 O 0.20935 0.2026 0.94894 0.0
O20 O 0.19995 0.16536 0.97823 0.0
C21 C 0.19081 0.18941 0.11009 0.0
Fe22 Fe 0.25031 0.71907 0.5397 0.0
Fe23 Fe 0.27233 0.67684 0.47721 0.0
O24 O 0.25393 0.70376 0.48008 0.0
Fe25 Fe 0.23918 0.71528 0.42328 0.0
O26 O 0.25582 0.74419 0.42778 0.0
O27 O 0.24833 0.75015 0.51036 0.0
O28 O 0.28324 0.72424 0.54563 0.0
C29 C 0.29915 0.7073 0.54594 0.0
C30 C 0.20334 0.72262 0.50094 0.0
O31 O 0.29394 0.68602 0.52927 0.0
C32 C 0.2317 0.66605 0.4108 0.0
O33 O 0.2517 0.69062 0.57967 0.0
O34 O 0.2524 0.66093 0.52217 0.0
O35 O 0.21226 0.72792 0.45699 0.0
O36 O 0.2171 0.71497 0.53741 0.0
C37 C 0.28601 0.69948 0.38768 0.0
O38 O 0.25394 0.66262 0.42527 0.0
O39 O 0.22171 0.68697 0.4152 0.0
C40 C 0.2475 0.66844 0.56693 0.0
O41 O 0.29322 0.6913 0.43126 0.0
O42 O 0.26345 0.70469 0.37934 0.0
C43 C 0.25568 0.75808 0.46672 0.0
Fe44 Fe 0.75964 0.77947 0.95029 0.0
Fe45 Fe 0.74389 0.78577 0.06372 0.0
O46 O 0.75963 0.797 0.00813 0.0
Fe47 Fe 0.77534 0.8258 0.01018 0.0
O48 O 0.75602 0.83847 0.95796 0.0
O49 O 0.7598 0.80639 0.90705 0.0
O50 O 0.72628 0.78053 0.94575 0.0
C51 C 0.71148 0.77399 0.98069 0.0
C52 C 0.80729 0.79602 0.95077 0.0
O53 O 0.71885 0.7708 0.02704 0.0
C54 C 0.78827 0.80562 0.10469 0.0
O55 O 0.75926 0.74922 0.98302 0.0
O56 O 0.76234 0.75782 0.0658 0.0
O57 O 0.79952 0.81687 0.96509 0.0
O58 O 0.79319 0.77745 0.95009 0.0
C59 C 0.73219 0.83484 0.06836 0.0
O60 O 0.76607 0.79871 0.11 0.0
O61 O 0.79562 0.81499 0.06249 0.0
C62 C 0.76469 0.74287 0.02909 0.0
O63 O 0.72427 0.81297 0.06672 0.0
O64 O 0.7541 0.84006 0.05566 0.0
C65 C 0.75295 0.8284 0.9144 0.0
Fe66 Fe 0.70947 0.33315 0.50207 0.0
Fe67 Fe 0.73129 0.29039 0.56636 0.0
O68 O 0.72259 0.30322 0.50555 0.0
Fe69 Fe 0.72716 0.28599 0.44844 0.0
O70 O 0.74754 0.30939 0.42292 0.0
O71 O 0.72377 0.34133 0.43938 0.0
O72 O 0.73629 0.34687 0.53287 0.0
C73 C 0.7442 0.34092 0.57732 0.0
C74 C 0.68111 0.3101 0.4291 0.0
O75 O 0.73883 0.3201 0.59697 0.0
C76 C 0.71079 0.24969 0.51311 0.0
O77 O 0.69277 0.33007 0.5641 0.0
O78 O 0.69976 0.29151 0.58807 0.0
O79 O 0.70016 0.29896 0.41307 0.0
O80 O 0.68176 0.32168 0.47111 0.0
C81 C 0.77046 0.27638 0.50819 0.0
O82 O 0.72502 0.25835 0.54778 0.0
O83 O 0.7072 0.26124 0.47095 0.0
C84 C 0.68651 0.31062 0.58859 0.0
O85 O 0.76342 0.28838 0.54708 0.0
O86 O 0.75512 0.27016 0.47309 0.0
C87 C 0.74225 0.3319 0.41697 0.0
P88 P 0.25065 0.50592 0.00264 0.0
H89 H 0.27517 0.52647 0.09387 0.0
H90 H 0.25978 0.54844 0.16852 0.0
H91 H 0.18461 0.53672 0.11503 0.0
H92 H 0.20037 0.51548 0.03893 0.0
H93 H 0.27646 0.45928 0.02033 0.0
H94 H 0.26304 0.41628 0.01746 0.0
H95 H 0.18919 0.43989 0.97479 0.0
H96 H 0.2029 0.4831 0.97653 0.0
H97 H 0.2357 0.55764 0.98933 0.0
H98 H 0.24574 0.4938 0.89312 0.0
O99 O 0.28152 0.50671 0.00413 0.0
H100 H 0.22633 0.58277 0.91263 0.0
H101 H 0.23715 0.519 0.81596 0.0
C102 C 0.23892 0.51927 0.06095 0.0
C103 C 0.25537 0.52832 0.09842 0.0
C104 C 0.24648 0.54073 0.14148 0.0
C105 C 0.22089 0.54423 0.14805 0.0
C106 C 0.20441 0.53448 0.111 0.0
C107 C 0.21338 0.52213 0.06772 0.0
C108 C 0.24069 0.47434 0.99844 0.0
C109 C 0.25745 0.45527 0.00979 0.0
C110 C 0.24979 0.4307 0.00801 0.0
C111 C 0.22512 0.42482 0.99564 0.0
C112 C 0.20828 0.44398 0.98458 0.0
C113 C 0.21608 0.46861 0.98566 0.0
C114 C 0.24077 0.52369 0.94699 0.0
C115 C 0.23547 0.5489 0.95177 0.0
C116 C 0.23039 0.56335 0.90778 0.0
C117 C 0.23094 0.5529 0.85813 0.0
C118 C 0.23608 0.52754 0.85364 0.0
C119 C 0.24105 0.5131 0.89772 0.0
P120 P 0.96426 0.83748 0.52229 0.0
H121 H 0.98322 0.83217 0.62785 0.0
H122 H 0.96361 0.82253 0.71039 0.0
H123 H 0.89217 0.82124 0.6333 0.0
H124 H 0.91205 0.83005 0.55065 0.0
H125 H 0.01405 0.84762 0.48373 0.0
H126 H 0.05236 0.82356 0.48624 0.0
H127 H 0.01313 0.7624 0.55635 0.0
H128 H 0.97519 0.7868 0.55506 0.0
H129 H 0.93776 0.86807 0.4453 0.0
H130 H 0.9463 0.79057 0.48152 0.0
O131 O 0.97178 0.86736 0.51997 0.0
H132 H 0.90813 0.85797 0.37633 0.0
H133 H 0.91721 0.78033 0.41212 0.0
C134 C 0.94918 0.83133 0.58297 0.0
C135 C 0.96334 0.82964 0.6287 0.0
C136 C 0.95207 0.82428 0.67596 0.0
C137 C 0.92631 0.82091 0.67851 0.0
C138 C 0.91211 0.82314 0.63259 0.0
C139 C 0.92346 0.82836 0.58526 0.0
C140 C 0.99193 0.81912 0.51993 0.0
C141 C 0.01373 0.82902 0.49949 0.0
C142 C 0.03556 0.81517 0.50063 0.0
C143 C 0.03583 0.79113 0.52194 0.0
C144 C 0.01366 0.78101 0.5406 0.0
C145 C 0.99191 0.79488 0.53953 0.0
C146 C 0.94441 0.83005 0.46822 0.0
C147 C 0.9336 0.84886 0.43786 0.0
C148 C 0.91675 0.84307 0.39827 0.0
C149 C 0.9103 0.81835 0.38881 0.0
C150 C 0.92159 0.79956 0.41878 0.0
C151 C 0.93841 0.80538 0.45824 0.0
P152 P 0.83358 0.48621 0.00217 0.0
H153 H 0.8525 0.48737 0.89669 0.0
H154 H 0.83862 0.46795 0.81636 0.0
H155 H 0.77404 0.43982 0.89477 0.0
H156 H 0.78827 0.45906 0.97518 0.0
H157 H 0.85493 0.52458 0.06612 0.0
H158 H 0.8434 0.56737 0.08248 0.0
H159 H 0.78059 0.55994 0.97864 0.0
H160 H 0.79248 0.51707 0.96204 0.0
H161 H 0.84215 0.4344 0.02431 0.0
H162 H 0.80385 0.49474 0.09613 0.0
O163 O 0.86441 0.48507 1.00013 0.0
H164 H 0.83085 0.4072 0.09629 0.0
H165 H 0.7931 0.46784 0.16916 0.0
C166 C 0.82167 0.47422 0.94203 0.0
C167 C 0.83529 0.47713 0.89648 0.0
C168 C 0.82725 0.46612 0.85051 0.0
C169 C 0.80534 0.45209 0.84927 0.0
C170 C 0.79124 0.45007 0.89468 0.0
C171 C 0.79929 0.46116 0.94061 0.0
C172 C 0.82482 0.51785 0.01222 0.0
C173 C 0.83878 0.53222 0.0466 0.0
C174 C 0.83203 0.55661 0.05627 0.0
C175 C 0.81107 0.56708 0.03185 0.0
C176 C 0.79701 0.55252 0.99752 0.0
C177 C 0.80376 0.52801 0.98806 0.0
C178 C 0.82408 0.46659 0.05508 0.0
C179 C 0.83138 0.44179 0.05574 0.0
C180 C 0.82502 0.42632 0.0971 0.0
C181 C 0.81132 0.43541 0.13887 0.0
C182 C 0.80355 0.46022 0.13751 0.0
C183 C 0.80986 0.47569 0.09588 0.0
P184 P 0.03513 0.25252 0.53045 0.0
H185 H 0.05318 0.27923 0.43921 0.0
H186 H 0.07217 0.26548 0.35892 0.0
H187 H 0.06136 0.1895 0.40616 0.0
H188 H 0.0424 0.20341 0.4866 0.0
H189 H 0.99621 0.28985 0.53488 0.0
H190 H 0.95126 0.28754 0.52943 0.0
H191 H 0.95568 0.20801 0.52013 0.0
H192 H 0.00093 0.21053 0.52518 0.0
H193 H 0.08587 0.23679 0.54612 0.0
H194 H 0.01725 0.23134 0.62934 0.0
O195 O 0.04328 0.28197 0.53867 0.0
H196 H 0.10786 0.21779 0.61937 0.0
H197 H 0.03931 0.21227 0.70321 0.0
C198 C 0.04667 0.24233 0.46908 0.0
C199 C 0.05474 0.25962 0.43219 0.0
C200 C 0.06563 0.25174 0.38636 0.0
C201 C 0.06842 0.22641 0.37644 0.0
C202 C 0.05931 0.20913 0.41254 0.0
C203 C 0.04854 0.21705 0.45857 0.0
C204 C 0.00191 0.25034 0.53046 0.0
C205 C 0.98757 0.27188 0.53216 0.0
C206 C 0.9618 0.27053 0.52931 0.0
C207 C 0.94987 0.24759 0.52442 0.0
C208 C 0.96433 0.22598 0.52337 0.0
C209 C 0.99017 0.22737 0.52641 0.0
C210 C 0.04988 0.23509 0.5819 0.0
C211 C 0.07544 0.23105 0.57979 0.0
C212 C 0.08802 0.22036 0.62182 0.0
C213 C 0.0753 0.21364 0.66705 0.0
C214 C 0.04952 0.21703 0.66861 0.0
C215 C 0.03692 0.22793 0.62645 0.0
P216 P 0.73213 0.99254 0.47998 0.0
H217 H 0.74453 0.00037 0.37161 0.0
H218 H 0.73226 0.9793 0.2922 0.0
H219 H 0.68024 0.93504 0.37897 0.0
H220 H 0.69273 0.95626 0.4585 0.0
H221 H 0.74341 0.02817 0.55968 0.0
H222 H 0.72949 0.07033 0.57512 0.0
H223 H 0.68054 0.06614 0.44201 0.0
H224 H 0.69429 0.02364 0.42716 0.0
H225 H 0.74787 0.94191 0.49421 0.0
H226 H 0.70757 0.99562 0.58244 0.0
O227 O 0.76256 0.99605 0.4725 0.0
H228 H 0.74398 0.91204 0.56544 0.0
H229 H 0.70439 0.96597 0.6545 0.0
C230 C 0.71999 0.97946 0.42101 0.0
C231 C 0.73027 0.98635 0.37343 0.0
C232 C 0.72308 0.97439 0.32798 0.0
C233 C 0.70539 0.95533 0.32933 0.0
C234 C 0.69417 0.94939 0.37682 0.0
C235 C 0.70128 0.96152 0.42226 0.0
C236 C 0.7197 0.02268 0.49273 0.0
C237 C 0.72936 0.03616 0.53433 0.0
C238 C 0.72135 0.06021 0.54318 0.0
C239 C 0.7038 0.07144 0.50994 0.0
C240 C 0.69408 0.0579 0.46819 0.0
C241 C 0.70188 0.03361 0.45981 0.0
C242 C 0.72814 0.97101 0.53298 0.0
C243 C 0.73822 0.94728 0.52892 0.0
C244 C 0.73597 0.93025 0.56953 0.0
C245 C 0.72391 0.93678 0.61536 0.0
C246 C 0.71392 0.96061 0.61964 0.0
C247 C 0.71578 0.97755 0.57845 0.0
P248 P 0.51258 0.3439 0.99773 0.0
H249 H 0.52823 0.37424 0.90915 0.0
H250 H 0.55272 0.36519 0.83262 0.0
H251 H 0.56134 0.2897 0.8862 0.0
H252 H 0.53593 0.29863 0.96104 0.0
H253 H 0.47993 0.33553 0.08432 0.0
H254 H 0.44368 0.30954 0.09688 0.0
H255 H 0.45078 0.28224 0.94076 0.0
H256 H 0.48654 0.30919 0.92786 0.0
H257 H 0.53394 0.37992 0.0696 0.0
H258 H 0.53405 0.30082 0.05108 0.0
O259 O 0.50198 0.37282 0.99358 0.0
H260 H 0.55894 0.37534 0.14888 0.0
H261 H 0.55975 0.29627 0.12933 0.0
C262 C 0.53022 0.33709 0.94082 0.0
C263 C 0.53525 0.3557 0.90422 0.0
C264 C 0.54944 0.35055 0.86063 0.0
C265 C 0.559 0.3267 0.85309 0.0
C266 C 0.55395 0.30817 0.89017 0.0
C267 C 0.53964 0.31331 0.93347 0.0
C268 C 0.48629 0.32387 0.00568 0.0
C269 C 0.47377 0.32384 0.05289 0.0
C270 C 0.4531 0.30882 0.06009 0.0
C271 C 0.44448 0.29345 0.0201 0.0
C272 C 0.45686 0.29386 0.97235 0.0
C273 C 0.47751 0.30909 0.9651 0.0
C274 C 0.53222 0.34072 0.05427 0.0
C275 C 0.53952 0.3616 0.08221 0.0
C276 C 0.55376 0.35898 0.12751 0.0
C277 C 0.56126 0.33545 0.14504 0.0
C278 C 0.55442 0.31462 0.11629 0.0
C279 C 0.53981 0.31723 0.07151 0.0
P280 P 0.34006 0.00724 0.54351 0.0
H281 H 0.35435 0.99989 0.65184 0.0
H282 H 0.34051 0.01863 0.73244 0.0
H283 H 0.28458 0.0594 0.64645 0.0
H284 H 0.2988 0.04111 0.56638 0.0
H285 H 0.3582 0.96971 0.4749 0.0
H286 H 0.34296 0.92893 0.45084 0.0
H287 H 0.28158 0.93737 0.5552 0.0
H288 H 0.29719 0.97823 0.57955 0.0
H289 H 0.36905 0.04259 0.48306 0.0
H290 H 0.29432 0.01477 0.48342 0.0
O291 O 0.3708 0.00578 0.54976 0.0
H292 H 0.35871 0.06989 0.41057 0.0
H293 H 0.28322 0.04329 0.41286 0.0
C294 C 0.32797 0.01942 0.60291 0.0
C295 C 0.33906 0.01282 0.65044 0.0
C296 C 0.33103 0.02344 0.69653 0.0
C297 C 0.31163 0.04077 0.69583 0.0
C298 C 0.29993 0.04655 0.64824 0.0
C299 C 0.308 0.03594 0.60226 0.0
C300 C 0.32907 0.97672 0.52961 0.0
C301 C 0.3416 0.96266 0.49299 0.0
C302 C 0.33273 0.93947 0.47891 0.0
C303 C 0.31103 0.92996 0.50101 0.0
C304 C 0.29851 0.94411 0.53795 0.0
C305 C 0.30739 0.96744 0.55189 0.0
C306 C 0.33243 0.02677 0.48876 0.0
C307 C 0.35035 0.04243 0.46763 0.0
C308 C 0.34429 0.05825 0.42634 0.0
C309 C 0.31998 0.05916 0.40609 0.0
C310 C 0.30217 0.04299 0.42688 0.0
C311 C 0.30842 0.02681 0.46759 0.0
P312 P 0.44621 0.76975 0.98384 0.0
H313 H 0.43146 0.78493 0.08732 0.0
H314 H 0.40809 0.76388 0.15517 0.0
H315 H 0.41086 0.69619 0.06807 0.0
H316 H 0.434 0.71754 0.99995 0.0
H317 H 0.48188 0.80366 0.94001 0.0
H318 H 0.52661 0.80144 0.92854 0.0
H319 H 0.5284 0.73174 0.01142 0.0
H320 H 0.48337 0.73392 0.02238 0.0
H321 H 0.39587 0.75798 0.9516 0.0
H322 H 0.46862 0.75554 0.88438 0.0
O323 O 0.43711 0.79911 0.98787 0.0
H324 H 0.37773 0.74465 0.86917 0.0
H325 H 0.45059 0.74235 0.80223 0.0
C326 C 0.43383 0.75292 0.03812 0.0
C327 C 0.42739 0.76546 0.08325 0.0
C328 C 0.41419 0.75334 0.12222 0.0
C329 C 0.40732 0.72845 0.11662 0.0
C330 C 0.4155 0.71549 0.07302 0.0
C331 C 0.42875 0.72764 0.03415 0.0
C332 C 0.47943 0.76918 0.98279 0.0
C333 C 0.49193 0.78809 0.95648 0.0
C334 C 0.51741 0.78669 0.94948 0.0
C335 C 0.53086 0.76636 0.96888 0.0
C336 C 0.51841 0.74766 0.99639 0.0
C337 C 0.49276 0.74893 0.00277 0.0
C338 C 0.43358 0.75769 0.92436 0.0
C339 C 0.40796 0.75427 0.91938 0.0
C340 C 0.39764 0.74655 0.87236 0.0
C341 C 0.41277 0.74246 0.8293 0.0
C342 C 0.43848 0.74554 0.83468 0.0
C343 C 0.4488 0.75305 0.88183 0.0
H344 H 0.18322 0.22288 0.18664 0.0
H345 H 0.1479 0.16198 0.10652 0.0
H346 H 0.11166 0.16563 0.16388 0.0
H347 H 0.1639 0.20698 0.31287 0.0
H348 H 0.15919 0.23846 0.33262 0.0
H349 H 0.18162 0.23159 0.28378 0.0
H350 H 0.15993 0.26231 0.22026 0.0
H351 H 0.13742 0.2693 0.26898 0.0
H352 H 0.1274 0.25876 0.20611 0.0
H353 H 0.08035 0.1746 0.23438 0.0
H354 H 0.0561 0.18922 0.30907 0.0
H355 H 0.11219 0.24453 0.34051 0.0
C356 C 0.16785 0.21033 0.18089 0.0
C357 C 0.16846 0.19204 0.14226 0.0
C358 C 0.14784 0.17614 0.13585 0.0
C359 C 0.1272 0.17807 0.16826 0.0
C360 C 0.12738 0.19615 0.20641 0.0
C361 C 0.14712 0.21212 0.21245 0.0
C362 C 0.14307 0.22975 0.25664 0.0
C363 C 0.16313 0.22648 0.29897 0.0
C364 C 0.14188 0.25662 0.23679 0.0
C365 C 0.11811 0.22099 0.27522 0.0
C366 C 0.1093 0.20161 0.24586 0.0
C367 C 0.08699 0.18991 0.25729 0.0
C368 C 0.07341 0.19825 0.29986 0.0
C369 C 0.08216 0.21814 0.33023 0.0
C370 C 0.10476 0.22963 0.31737 0.0
H371 H 0.25764 0.66792 0.67125 0.0
H372 H 0.2196 0.62757 0.54976 0.0
H373 H 0.20804 0.59523 0.61325 0.0
H374 H 0.28402 0.61567 0.73145 0.0
H375 H 0.28145 0.62694 0.79668 0.0
H376 H 0.28408 0.64842 0.74333 0.0
H377 H 0.24349 0.66982 0.77095 0.0
H378 H 0.24071 0.64838 0.8245 0.0
H379 H 0.2157 0.65175 0.77815 0.0
H380 H 0.20272 0.56626 0.68812 0.0
H381 H 0.2055 0.54152 0.76889 0.0
H382 H 0.24901 0.5996 0.84049 0.0
C383 C 0.2464 0.65254 0.6584 0.0
C384 C 0.23925 0.65027 0.60589 0.0
C385 C 0.22517 0.62959 0.58998 0.0
C386 C 0.21844 0.61123 0.62573 0.0
C387 C 0.22611 0.61375 0.67711 0.0
C388 C 0.23986 0.63382 0.69345 0.0
C389 C 0.24758 0.63098 0.74981 0.0
C390 C 0.27596 0.63046 0.75563 0.0
C391 C 0.23618 0.65145 0.7828 0.0
C392 C 0.23628 0.60604 0.76231 0.0
C393 C 0.22371 0.59659 0.72004 0.0
C394 C 0.21242 0.57348 0.72161 0.0
C395 C 0.21425 0.5595 0.76751 0.0
C396 C 0.22747 0.56858 0.81105 0.0
C397 C 0.23838 0.5923 0.80831 0.0
H398 H 0.8322 0.83046 0.12342 0.0
H399 H 0.78227 0.7758 0.18878 0.0
H400 H 0.80888 0.77229 0.26639 0.0
H401 H 0.88946 0.80304 0.17374 0.0
H402 H 0.90362 0.83241 0.18764 0.0
H403 H 0.88133 0.82995 0.13547 0.0
H404 H 0.85506 0.86454 0.17643 0.0
H405 H 0.87722 0.86706 0.22876 0.0
H406 H 0.84512 0.86121 0.24264 0.0
H407 H 0.8396 0.7752 0.33763 0.0
H408 H 0.87281 0.78509 0.40012 0.0
H409 H 0.90334 0.83805 0.29054 0.0
C410 C 0.82703 0.81762 0.1539 0.0
C411 C 0.80512 0.80345 0.15006 0.0
C412 C 0.79886 0.787 0.19098 0.0
C413 C 0.8139 0.78477 0.23519 0.0
C414 C 0.83516 0.79915 0.23812 0.0
C415 C 0.84179 0.81529 0.19879 0.0
C416 C 0.86522 0.8292 0.21304 0.0
C417 C 0.88615 0.82329 0.17522 0.0
C418 C 0.86035 0.85716 0.21536 0.0
C419 C 0.87051 0.81843 0.26657 0.0
C420 C 0.85299 0.801 0.27994 0.0
C421 C 0.85359 0.78867 0.32754 0.0
C422 C 0.87261 0.79432 0.36265 0.0
C423 C 0.8908 0.81219 0.3501 0.0
C424 C 0.88966 0.82437 0.3013 0.0
H425 H 0.75266 0.33977 0.68257 0.0
H426 H 0.76307 0.38536 0.54501 0.0
H427 H 0.78047 0.41851 0.59936 0.0
H428 H 0.73324 0.388 0.76426 0.0
H429 H 0.74875 0.37613 0.82151 0.0
H430 H 0.73861 0.35529 0.77166 0.0
H431 H 0.78321 0.33823 0.7638 0.0
H432 H 0.79346 0.35885 0.81401 0.0
H433 H 0.80838 0.35932 0.75184 0.0
H434 H 0.79514 0.44738 0.66907 0.0
H435 H 0.80676 0.46953 0.74899 0.0
H436 H 0.78667 0.4051 0.84085 0.0
C437 C 0.75893 0.35656 0.66372 0.0
C438 C 0.75655 0.35992 0.60945 0.0
C439 C 0.76469 0.38235 0.58649 0.0
C440 C 0.77461 0.4013 0.61703 0.0
C441 C 0.77624 0.39756 0.67048 0.0
C442 C 0.76872 0.37572 0.69362 0.0
C443 C 0.77171 0.3767 0.75203 0.0
C444 C 0.74658 0.37387 0.77893 0.0
C445 C 0.7903 0.35712 0.77155 0.0
C446 C 0.78194 0.40256 0.75814 0.0
C447 C 0.78449 0.41426 0.71064 0.0
C448 C 0.79338 0.43835 0.70648 0.0
C449 C 0.80001 0.45075 0.75207 0.0
C450 C 0.79765 0.43908 0.80122 0.0
C451 C 0.78842 0.41466 0.80399 0.0
H452 H 0.67452 0.29441 0.32834 0.0
H453 H 0.63756 0.33273 0.45285 0.0
H454 H 0.60237 0.3418 0.39449 0.0
H455 H 0.65704 0.33541 0.22811 0.0
H456 H 0.65216 0.31208 0.17972 0.0
H457 H 0.67384 0.30668 0.23209 0.0
H458 H 0.65064 0.26654 0.25751 0.0
H459 H 0.62898 0.27169 0.20487 0.0
H460 H 0.61792 0.26774 0.27011 0.0
H461 H 0.57305 0.35027 0.32138 0.0
H462 H 0.54976 0.35472 0.23878 0.0
H463 H 0.60455 0.30994 0.16187 0.0
C464 C 0.65884 0.30432 0.34361 0.0
C465 C 0.65892 0.3129 0.39524 0.0
C466 C 0.63806 0.32599 0.41348 0.0
C467 C 0.61792 0.33125 0.38063 0.0
C468 C 0.61872 0.32312 0.32971 0.0
C469 C 0.63845 0.30966 0.31135 0.0
C470 C 0.6349 0.3038 0.25437 0.0
C471 C 0.65572 0.31518 0.22166 0.0
C472 C 0.63299 0.27578 0.24626 0.0
C473 C 0.61035 0.31649 0.2435 0.0
C474 C 0.60139 0.32754 0.28754 0.0
C475 C 0.57969 0.34144 0.28675 0.0
C476 C 0.56669 0.34401 0.23971 0.0
C477 C 0.57535 0.3326 0.19425 0.0
C478 C 0.5974 0.31857 0.19632 0.0
H479 H 0.26551 0.15409 0.86417 0.0
H480 H 0.26245 0.10427 0.99702 0.0
H481 H 0.27888 0.07059 0.94333 0.0
H482 H 0.24546 0.11123 0.77086 0.0
H483 H 0.26546 0.12257 0.72046 0.0
H484 H 0.2551 0.14311 0.77016 0.0
H485 H 0.30057 0.154 0.7933 0.0
H486 H 0.3111 0.13363 0.74335 0.0
H487 H 0.3221 0.12955 0.80911 0.0
H488 H 0.2938 0.04178 0.87335 0.0
H489 H 0.30642 0.02053 0.79343 0.0
H490 H 0.29978 0.08961 0.70752 0.0
C491 C 0.26855 0.13621 0.88232 0.0
C492 C 0.26269 0.13188 0.93492 0.0
C493 C 0.26681 0.10808 0.95684 0.0
C494 C 0.27614 0.08883 0.92665 0.0
C495 C 0.28131 0.09367 0.87468 0.0
C496 C 0.27776 0.11682 0.85282 0.0
C497 C 0.28396 0.1171 0.79574 0.0
C498 C 0.26113 0.1239 0.76236 0.0
C499 C 0.30573 0.1346 0.78475 0.0
C500 C 0.29127 0.09039 0.78866 0.0
C501 C 0.28975 0.07716 0.83462 0.0
C502 C 0.29523 0.05202 0.83724 0.0
C503 C 0.30246 0.04012 0.79169 0.0
C504 C 0.30406 0.05336 0.74413 0.0
C505 C 0.29844 0.07886 0.74301 0.0
H506 H 0.33439 0.7147 0.38298 0.0
H507 H 0.27493 0.68238 0.2921 0.0
H508 H 0.30185 0.68165 0.21546 0.0
H509 H 0.35407 0.75542 0.2847 0.0
H510 H 0.38659 0.75333 0.30034 0.0
H511 H 0.36402 0.74816 0.35005 0.0
H512 H 0.38332 0.70528 0.37033 0.0
H513 H 0.40596 0.71031 0.32049 0.0
H514 H 0.38657 0.68323 0.31895 0.0
H515 H 0.33363 0.68666 0.14797 0.0
H516 H 0.36708 0.70074 0.09083 0.0
H517 H 0.40595 0.73164 0.22332 0.0
C518 C 0.32732 0.70707 0.34709 0.0
C519 C 0.30276 0.69841 0.34321 0.0
C520 C 0.29375 0.68911 0.29556 0.0
C521 C 0.30894 0.68844 0.25203 0.0
C522 C 0.33299 0.69738 0.25672 0.0
C523 C 0.34213 0.70676 0.30279 0.0
C524 C 0.36777 0.71755 0.29565 0.0
C525 C 0.36812 0.74526 0.30843 0.0
C526 C 0.38704 0.70323 0.3283 0.0
C527 C 0.3713 0.71328 0.23818 0.0
C528 C 0.35122 0.70112 0.21688 0.0
C529 C 0.34962 0.69593 0.16422 0.0
C530 C 0.36881 0.70387 0.13212 0.0
C531 C 0.38924 0.71711 0.15263 0.0
C532 C 0.39061 0.72149 0.20658 0.0
H533 H 0.75486 0.87869 0.89436 0.0
H534 H 0.72809 0.80921 0.83277 0.0
H535 H 0.7138 0.83058 0.75335 0.0
H536 H 0.70542 0.91853 0.83521 0.0
H537 H 0.7267 0.94329 0.82125 0.0
H538 H 0.73208 0.92328 0.87654 0.0
H539 H 0.77577 0.91303 0.84247 0.0
H540 H 0.77052 0.93291 0.78711 0.0
H541 H 0.77896 0.90107 0.77791 0.0
H542 H 0.70655 0.85774 0.67754 0.0
H543 H 0.70647 0.88986 0.6089 0.0
H544 H 0.73753 0.94237 0.71747 0.0
C545 C 0.74547 0.86817 0.86459 0.0
C546 C 0.74257 0.84231 0.86966 0.0
C547 C 0.73063 0.82902 0.82952 0.0
C548 C 0.7223 0.841 0.78438 0.0
C549 C 0.72597 0.86634 0.77983 0.0
C550 C 0.73716 0.87987 0.81876 0.0
C551 C 0.74054 0.90658 0.80184 0.0
C552 C 0.72527 0.92395 0.83573 0.0
C553 C 0.76808 0.91381 0.80236 0.0
C554 C 0.73019 0.90566 0.74695 0.0
C555 C 0.72165 0.88227 0.73542 0.0
C556 C 0.7128 0.87624 0.68623 0.0
C557 C 0.71293 0.89452 0.64749 0.0
C558 C 0.72183 0.91852 0.65814 0.0
C559 C 0.73018 0.92426 0.70873 0.0
H560 H 0.81843 0.77266 0.86068 0.0
H561 H 0.84925 0.81972 0.97988 0.0
H562 H 0.88635 0.82673 0.92666 0.0
H563 H 0.87922 0.74731 0.81118 0.0
H564 H 0.86807 0.74856 0.74508 0.0
H565 H 0.84681 0.74267 0.79718 0.0
H566 H 0.81998 0.77962 0.76558 0.0
H567 H 0.8413 0.78595 0.71412 0.0
H568 H 0.83388 0.80978 0.75969 0.0
H569 H 0.91617 0.83432 0.85581 0.0
H570 H 0.93746 0.84113 0.77294 0.0
H571 H 0.88735 0.78951 0.69824 0.0
C572 C 0.83356 0.78344 0.87646 0.0
C573 C 0.83135 0.79527 0.92468 0.0
C574 C 0.8509 0.81024 0.94328 0.0
C575 C 0.87199 0.81431 0.91334 0.0
C576 C 0.87318 0.80333 0.86483 0.0
C577 C 0.85461 0.788 0.8466 0.0
C578 C 0.85891 0.78114 0.79058 0.0
C579 C 0.86354 0.75326 0.78573 0.0
C580 C 0.83723 0.78964 0.75546 0.0
C581 C 0.88217 0.79581 0.77962 0.0
C582 C 0.89032 0.80813 0.82321 0.0
C583 C 0.91034 0.8243 0.82171 0.0
C584 C 0.92236 0.82801 0.7744 0.0
C585 C 0.91424 0.81573 0.72903 0.0
C586 C 0.89402 0.79922 0.73211 0.0
H587 H 0.72789 0.37268 0.35915 0.0
H588 H 0.7902 0.32411 0.39164 0.0
H589 H 0.8151 0.34682 0.32744 0.0
H590 H 0.73687 0.37595 0.22315 0.0
H591 H 0.72792 0.4079 0.21632 0.0
H592 H 0.71545 0.3893 0.26807 0.0
H593 H 0.73143 0.42091 0.33532 0.0
H594 H 0.74393 0.43965 0.28372 0.0
H595 H 0.76372 0.42927 0.33626 0.0
H596 H 0.83282 0.37336 0.25824 0.0
H597 H 0.84214 0.40173 0.18583 0.0
H598 H 0.76799 0.43226 0.19438 0.0
C599 C 0.7469 0.36713 0.35326 0.0
C600 C 0.75718 0.34672 0.38048 0.0
C601 C 0.78195 0.33967 0.37109 0.0
C602 C 0.79628 0.3525 0.33487 0.0
C603 C 0.78554 0.37227 0.3081 0.0
C604 C 0.76143 0.37957 0.31661 0.0
C605 C 0.75403 0.40056 0.28022 0.0
C606 C 0.73229 0.39296 0.24485 0.0
C607 C 0.74792 0.42399 0.31071 0.0
C608 C 0.7777 0.4037 0.24975 0.0
C609 C 0.79565 0.38731 0.26687 0.0
C610 C 0.81892 0.38629 0.24439 0.0
C611 C 0.82396 0.40235 0.20297 0.0
C612 C 0.80576 0.41912 0.18403 0.0
C613 C 0.78238 0.41986 0.20821 0.0
H614 H 0.18597 0.21705 0.87114 0.0
H615 H 0.15685 0.15044 0.94301 0.0
H616 H 0.12198 0.1508 0.8796 0.0
H617 H 0.12792 0.24644 0.84336 0.0
H618 H 0.13817 0.25919 0.78244 0.0
H619 H 0.16015 0.25366 0.83424 0.0
H620 H 0.18639 0.22659 0.77333 0.0
H621 H 0.1645 0.232 0.72136 0.0
H622 H 0.1721 0.20083 0.74093 0.0
H623 H 0.08989 0.15927 0.80703 0.0
H624 H 0.06522 0.17383 0.73084 0.0
H625 H 0.11696 0.23405 0.70816 0.0
C626 C 0.17227 0.20252 0.87396 0.0
C627 C 0.17413 0.18374 0.91225 0.0
C628 C 0.15582 0.16501 0.91399 0.0
C629 C 0.13594 0.16512 0.87823 0.0
C630 C 0.13477 0.18398 0.84095 0.0
C631 C 0.15259 0.20225 0.83864 0.0
C632 C 0.14772 0.22021 0.79451 0.0
C633 C 0.14321 0.24642 0.81487 0.0
C634 C 0.16894 0.21987 0.75522 0.0
C635 C 0.12435 0.20924 0.77196 0.0
C636 C 0.11695 0.18846 0.79927 0.0
C637 C 0.09561 0.17548 0.78537 0.0
C638 C 0.08168 0.18389 0.74225 0.0
C639 C 0.08936 0.20488 0.71341 0.0
C640 C 0.11087 0.2177 0.72893 0.0
H641 H 0.24551 0.61798 0.40225 0.0
H642 H 0.19103 0.67108 0.34655 0.0
H643 H 0.17637 0.64107 0.28168 0.0
H644 H 0.2642 0.59923 0.28669 0.0
H645 H 0.26871 0.56706 0.30282 0.0
H646 H 0.27071 0.58982 0.35272 0.0
H647 H 0.23687 0.56702 0.40512 0.0
H648 H 0.23491 0.54388 0.35546 0.0
H649 H 0.2075 0.56021 0.37471 0.0
H650 H 0.17413 0.60947 0.21182 0.0
H651 H 0.18376 0.57884 0.14496 0.0
H652 H 0.23855 0.54543 0.24797 0.0
C653 C 0.22993 0.623 0.37758 0.0
C654 C 0.21946 0.64685 0.37933 0.0
C655 C 0.19925 0.65284 0.34612 0.0
C656 C 0.19076 0.63588 0.3092 0.0
C657 C 0.20235 0.6129 0.30679 0.0
C658 C 0.22123 0.6063 0.34079 0.0
C659 C 0.23277 0.58191 0.32627 0.0
C660 C 0.26073 0.5847 0.31653 0.0
C661 C 0.2277 0.56208 0.36787 0.0
C662 C 0.21863 0.57665 0.27674 0.0
C663 C 0.20077 0.59441 0.26668 0.0
C664 C 0.1875 0.59503 0.22004 0.0
C665 C 0.19306 0.57748 0.18227 0.0
C666 C 0.21188 0.55966 0.19124 0.0
C667 C 0.22408 0.55881 0.23991 0.0
H668 H 0.31055 0.68677 0.63925 0.0
H669 H 0.33716 0.73794 0.52242 0.0
H670 H 0.37268 0.74875 0.57945 0.0
H671 H 0.3215 0.72545 0.7426 0.0
H672 H 0.33039 0.70167 0.78855 0.0
H673 H 0.30997 0.69441 0.73535 0.0
H674 H 0.33974 0.65993 0.70627 0.0
H675 H 0.36029 0.66692 0.75964 0.0
H676 H 0.37175 0.66718 0.69426 0.0
H677 H 0.40263 0.75675 0.65168 0.0
H678 H 0.42367 0.76351 0.73575 0.0
H679 H 0.37615 0.70878 0.80785 0.0
C680 C 0.32443 0.69958 0.62524 0.0
C681 C 0.32182 0.71111 0.57628 0.0
C682 C 0.33942 0.72864 0.55958 0.0
C683 C 0.35955 0.73482 0.59162 0.0
C684 C 0.36147 0.72349 0.64033 0.0
C685 C 0.34432 0.7063 0.65721 0.0
C686 C 0.34883 0.69917 0.71347 0.0
C687 C 0.32634 0.70557 0.74694 0.0
C688 C 0.35556 0.67166 0.71869 0.0
C689 C 0.3708 0.71549 0.72599 0.0
C690 C 0.3781 0.72897 0.68298 0.0
C691 C 0.39731 0.74607 0.68547 0.0
C692 C 0.40919 0.74973 0.73332 0.0
C693 C 0.4016 0.73659 0.77817 0.0
C694 C 0.38233 0.71906 0.77416 0.0
H695 H 0.71546 0.83306 0.16708 0.0
H696 H 0.72005 0.88022 0.03106 0.0
H697 H 0.70541 0.91569 0.08204 0.0
H698 H 0.66212 0.86598 0.23344 0.0
H699 H 0.67676 0.86182 0.29606 0.0
H700 H 0.68084 0.83901 0.24641 0.0
H701 H 0.7284 0.84353 0.25569 0.0
H702 H 0.72451 0.86643 0.30479 0.0
H703 H 0.74229 0.8736 0.24784 0.0
H704 H 0.69781 0.947 0.14979 0.0
H705 H 0.69902 0.97203 0.22922 0.0
H706 H 0.70177 0.90502 0.32274 0.0
C707 C 0.71204 0.8506 0.14768 0.0
C708 C 0.71799 0.85393 0.09499 0.0
C709 C 0.71488 0.87735 0.07115 0.0
C710 C 0.70659 0.89753 0.09981 0.0
C711 C 0.70178 0.89398 0.15239 0.0
C712 C 0.70431 0.87105 0.17615 0.0
C713 C 0.70209 0.87297 0.23451 0.0
C714 C 0.67908 0.85912 0.25373 0.0
C715 C 0.72573 0.86359 0.26229 0.0
C716 C 0.69907 0.90063 0.24004 0.0
C717 C 0.69833 0.91234 0.19216 0.0
C718 C 0.6979 0.93801 0.18746 0.0
C719 C 0.69878 0.95209 0.23278 0.0
C720 C 0.70038 0.94049 0.28219 0.0
C721 C 0.69989 0.91442 0.28564 0.0
H722 H 0.66787 0.34764 0.64911 0.0
H723 H 0.65529 0.27212 0.60101 0.0
H724 H 0.61911 0.26936 0.65832 0.0
H725 H 0.65499 0.33654 0.7811 0.0
H726 H 0.64024 0.36586 0.79191 0.0
H727 H 0.66327 0.36315 0.74242 0.0
H728 H 0.63208 0.38017 0.6739 0.0
H729 H 0.60893 0.38296 0.72326 0.0
H730 H 0.60247 0.36529 0.66584 0.0
H731 H 0.58581 0.27387 0.72301 0.0
H732 H 0.55851 0.28452 0.79525 0.0
H733 H 0.59427 0.35615 0.80678 0.0
C734 C 0.65711 0.33077 0.64998 0.0
C735 C 0.66408 0.31016 0.62041 0.0
C736 C 0.6501 0.2881 0.62339 0.0
C737 C 0.6295 0.28639 0.65559 0.0
C738 C 0.62329 0.30684 0.68498 0.0
C739 C 0.63671 0.32858 0.68283 0.0
C740 C 0.62732 0.34696 0.72195 0.0
C741 C 0.64767 0.3535 0.76169 0.0
C742 C 0.61709 0.37023 0.69459 0.0
C743 C 0.60678 0.33202 0.74671 0.0
C744 C 0.60458 0.30909 0.72421 0.0
C745 C 0.58733 0.29177 0.74103 0.0
C746 C 0.57205 0.29793 0.78243 0.0
C747 C 0.57432 0.3211 0.80712 0.0
C748 C 0.5918 0.33841 0.78843 0.0
H749 H 0.24507 0.11643 0.16171 0.0
H750 H 0.28823 0.18319 0.18625 0.0
H751 H 0.31053 0.16299 0.25796 0.0
H752 H 0.23903 0.09977 0.29555 0.0
H753 H 0.24255 0.06704 0.28598 0.0
H754 H 0.22996 0.08622 0.23468 0.0
H755 H 0.26373 0.0707 0.17238 0.0
H756 H 0.27636 0.05137 0.22345 0.0
H757 H 0.29587 0.07346 0.19081 0.0
H758 H 0.32657 0.13744 0.32978 0.0
H759 H 0.33737 0.10644 0.3962 0.0
H760 H 0.28638 0.05451 0.32447 0.0
C761 C 0.2593 0.1267 0.18201 0.0
C762 C 0.26472 0.15148 0.16818 0.0
C763 C 0.28356 0.16424 0.1958 0.0
C764 C 0.29643 0.15295 0.2368 0.0
C765 C 0.2905 0.12874 0.24979 0.0
C766 C 0.2726 0.11559 0.22318 0.0
C767 C 0.27005 0.08973 0.24587 0.0
C768 C 0.24384 0.08545 0.26676 0.0
C769 C 0.27692 0.07016 0.20573 0.0
C770 C 0.28906 0.09071 0.28963 0.0
C771 C 0.30053 0.11346 0.29099 0.0
C772 C 0.31807 0.11936 0.3287 0.0
C773 C 0.32424 0.10147 0.36609 0.0
C774 C 0.31313 0.07774 0.36536 0.0
C775 C 0.29524 0.07241 0.32641 0.0
H776 H 0.24557 0.28109 0.9619 0.0
H777 H 0.18423 0.26956 0.0665 0.0
H778 H 0.17483 0.31427 0.06266 0.0
H779 H 0.26681 0.3343 0.0197 0.0
H780 H 0.27636 0.34946 0.96067 0.0
H781 H 0.27561 0.3163 0.96446 0.0
H782 H 0.24656 0.31502 0.8839 0.0
H783 H 0.2473 0.34826 0.87965 0.0
H784 H 0.21808 0.33236 0.88373 0.0
H785 H 0.17451 0.36059 0.05346 0.0
H786 H 0.18498 0.40493 0.04428 0.0
H787 H 0.24765 0.38593 0.94906 0.0
C788 C 0.22972 0.28787 0.98281 0.0
C789 C 0.21542 0.2719 0.014 0.0
C790 C 0.19531 0.28154 0.04214 0.0
C791 C 0.18978 0.30684 0.03999 0.0
C792 C 0.20461 0.32221 0.00974 0.0
C793 C 0.22422 0.31307 0.98177 0.0
C794 C 0.23902 0.33366 0.95699 0.0
C795 C 0.26604 0.33341 0.97666 0.0
C796 C 0.23765 0.33224 0.89754 0.0
C797 C 0.22512 0.35586 0.97657 0.0
C798 C 0.20501 0.3489 0.006 0.0
C799 C 0.19003 0.36626 0.03 0.0
C800 C 0.19605 0.39135 0.02449 0.0
C801 C 0.21707 0.39872 0.99597 0.0
C802 C 0.23147 0.38073 0.97108 0.0
H803 H 0.17044 0.74772 0.43817 0.0
H804 H 0.17711 0.7109 0.58813 0.0
H805 H 0.13416 0.72272 0.60795 0.0
H806 H 0.13644 0.79894 0.48125 0.0
H807 H 0.11719 0.80142 0.42392 0.0
H808 H 0.14779 0.78851 0.41976 0.0
H809 H 0.12961 0.74866 0.37956 0.0
H810 H 0.09894 0.76151 0.38333 0.0
H811 H 0.10569 0.732 0.41328 0.0
H812 H 0.09146 0.74045 0.61343 0.0
H813 H 0.05191 0.76289 0.60427 0.0
H814 H 0.07303 0.78783 0.45043 0.0
C815 C 0.16281 0.74184 0.47492 0.0
C816 C 0.17715 0.72836 0.51159 0.0
C817 C 0.16649 0.72127 0.55945 0.0
C818 C 0.1421 0.72784 0.57103 0.0
C819 C 0.12863 0.74145 0.53432 0.0
C820 C 0.13856 0.74832 0.4872 0.0
C821 C 0.12053 0.76381 0.45544 0.0
C822 C 0.13113 0.7897 0.44448 0.0
C823 C 0.11326 0.75071 0.40491 0.0
C824 C 0.09903 0.76488 0.49241 0.0
C825 C 0.10401 0.75172 0.53753 0.0
C826 C 0.08723 0.75058 0.57804 0.0
C827 C 0.06476 0.76328 0.57234 0.0
C828 C 0.05929 0.777 0.5265 0.0
C829 C 0.0767 0.77763 0.48603 0.0
H830 H 0.76914 0.70484 0.96016 0.0
H831 H 0.77728 0.72228 0.12349 0.0
H832 H 0.78939 0.67909 0.14212 0.0
H833 H 0.74356 0.64414 0.97796 0.0
H834 H 0.75974 0.63115 0.92392 0.0
H835 H 0.75171 0.66344 0.92338 0.0
H836 H 0.79768 0.67505 0.90909 0.0
H837 H 0.80584 0.6428 0.90938 0.0
H838 H 0.82097 0.66357 0.95375 0.0
H839 H 0.80071 0.634 0.14287 0.0
H840 H 0.81084 0.5904 0.12562 0.0
H841 H 0.79556 0.60258 0.96177 0.0
C842 C 0.77345 0.69964 0.99992 0.0
C843 C 0.77217 0.71701 0.04039 0.0
C844 C 0.77804 0.70935 0.09182 0.0
C845 C 0.78493 0.68484 0.1028 0.0
C846 C 0.78588 0.66821 0.06199 0.0
C847 C 0.78033 0.67529 0.01158 0.0
C848 C 0.78292 0.65387 0.97471 0.0
C849 C 0.758 0.6478 0.94846 0.0
C850 C 0.80305 0.65914 0.93436 0.0
C851 C 0.7908 0.63361 0.01227 0.0
C852 C 0.7924 0.64226 0.06241 0.0
C853 C 0.79957 0.62703 0.10375 0.0
C854 C 0.8054 0.60233 0.09352 0.0
C855 C 0.80405 0.59307 0.04234 0.0
C856 C 0.79649 0.609 0.00137 0.0
H857 H 0.81041 0.29117 0.56708 0.0
H858 H 0.78913 0.24183 0.44261 0.0
H859 H 0.8323 0.22753 0.43656 0.0
H860 H 0.86799 0.30932 0.51333 0.0
H861 H 0.88407 0.31068 0.57483 0.0
H862 H 0.85121 0.31604 0.57157 0.0
H863 H 0.84428 0.28127 0.63966 0.0
H864 H 0.87714 0.27578 0.64315 0.0
H865 H 0.85632 0.2508 0.62806 0.0
H866 H 0.87789 0.21932 0.44226 0.0
H867 H 0.92312 0.21917 0.45683 0.0
H868 H 0.91486 0.2739 0.57723 0.0
C869 C 0.81477 0.27717 0.53891 0.0
C870 C 0.79633 0.26753 0.50552 0.0
C871 C 0.80291 0.2495 0.46866 0.0
C872 C 0.82737 0.24118 0.46501 0.0
C873 C 0.8451 0.25111 0.49836 0.0
C874 C 0.83915 0.26877 0.53448 0.0
C875 C 0.86192 0.27719 0.56416 0.0
C876 C 0.86657 0.30495 0.55542 0.0
C877 C 0.85978 0.27087 0.6222 0.0
C878 C 0.8816 0.26167 0.53871 0.0
C879 C 0.87147 0.2466 0.50119 0.0
C880 C 0.88603 0.23092 0.47178 0.0
C881 C 0.91168 0.23085 0.48056 0.0
C882 C 0.92253 0.24646 0.51824 0.0
C883 C 0.90715 0.26187 0.54792 0.0
H884 H 0.70569 0.21419 0.43872 0.0
H885 H 0.69684 0.22757 0.60289 0.0
H886 H 0.68751 0.18343 0.61742 0.0
H887 H 0.65864 0.16298 0.42688 0.0
H888 H 0.67789 0.14612 0.3829 0.0
H889 H 0.67892 0.1794 0.3835 0.0
H890 H 0.72632 0.17777 0.3993 0.0
H891 H 0.72543 0.14459 0.399 0.0
H892 H 0.73844 0.16046 0.45402 0.0
H893 H 0.68521 0.13773 0.6166 0.0
H894 H 0.69085 0.0932 0.60071 0.0
H895 H 0.70224 0.10876 0.43743 0.0
C896 C 0.70088 0.20791 0.47732 0.0
C897 C 0.70164 0.22422 0.51966 0.0
C898 C 0.69618 0.2153 0.56999 0.0
C899 C 0.69074 0.19031 0.57854 0.0
C900 C 0.69091 0.17447 0.53634 0.0
C901 C 0.69576 0.18288 0.48663 0.0
C902 C 0.69788 0.16155 0.44931 0.0
C903 C 0.67709 0.16258 0.40822 0.0
C904 C 0.72354 0.16107 0.42395 0.0
C905 C 0.69445 0.13986 0.48617 0.0
C906 C 0.68999 0.14777 0.53599 0.0
C907 C 0.68825 0.13127 0.57761 0.0
C908 C 0.69161 0.10606 0.5683 0.0
C909 C 0.69682 0.09759 0.51784 0.0
C910 C 0.69769 0.1147 0.47614 0.0
H911 H 0.31137 0.2358 0.95548 0.0
H912 H 0.30922 0.21211 0.1164 0.0
H913 H 0.35247 0.22581 0.12884 0.0
H914 H 0.37723 0.22182 0.9313 0.0
H915 H 0.38165 0.24938 0.89269 0.0
H916 H 0.35174 0.23468 0.89428 0.0
H917 H 0.33184 0.27577 0.9232 0.0
H918 H 0.36164 0.29057 0.92177 0.0
H919 H 0.34366 0.29094 0.98021 0.0
H920 H 0.39472 0.24376 0.1253 0.0
H921 H 0.43265 0.26751 0.10818 0.0
H922 H 0.40651 0.28292 0.95125 0.0
C923 C 0.32032 0.233 0.99285 0.0
C924 C 0.30732 0.22257 0.03487 0.0
C925 C 0.31912 0.2199 0.08379 0.0
C926 C 0.34364 0.22753 0.09111 0.0
C927 C 0.35594 0.23812 0.04924 0.0
C928 C 0.34468 0.24108 0.00115 0.0
C929 C 0.36122 0.25532 0.9643 0.0
C930 C 0.36839 0.23934 0.9179 0.0
C931 C 0.34885 0.27959 0.94634 0.0
C932 C 0.38336 0.26012 0.99942 0.0
C933 C 0.38003 0.24968 0.04793 0.0
C934 C 0.39756 0.25205 0.08747 0.0
C935 C 0.41896 0.26578 0.07746 0.0
C936 C 0.42254 0.27734 0.02852 0.0
C937 C 0.40455 0.2741 0.98885 0.0
H938 H 0.26081 0.79267 0.54314 0.0
H939 H 0.26739 0.78278 0.37692 0.0
H940 H 0.28061 0.82618 0.3674 0.0
H941 H 0.23779 0.85563 0.53814 0.0
H942 H 0.25512 0.8649 0.59478 0.0
H943 H 0.24516 0.83332 0.58835 0.0
H944 H 0.29046 0.81842 0.60033 0.0
H945 H 0.30056 0.84993 0.60685 0.0
H946 H 0.31406 0.83055 0.55828 0.0
H947 H 0.2942 0.87018 0.37611 0.0
H948 H 0.30785 0.91172 0.40266 0.0
H949 H 0.293 0.89277 0.56328 0.0
C950 C 0.26479 0.79966 0.50463 0.0
C951 C 0.26291 0.78432 0.46074 0.0
C952 C 0.2686 0.79416 0.41114 0.0
C953 C 0.27609 0.81881 0.40529 0.0
C954 C 0.27782 0.83336 0.44939 0.0
C955 C 0.27236 0.82418 0.4981 0.0
C956 C 0.27651 0.84347 0.5394 0.0
C957 C 0.25219 0.8497 0.56677 0.0
C958 C 0.29659 0.83509 0.57851 0.0
C959 C 0.28531 0.86492 0.5063 0.0
C960 C 0.28585 0.85871 0.45448 0.0
C961 C 0.29384 0.87527 0.41656 0.0
C962 C 0.30168 0.89876 0.43205 0.0
C963 C 0.30155 0.90545 0.48504 0.0
C964 C 0.29302 0.8883 0.52245 0.0
H965 H 0.6737 0.7615 0.04625 0.0
H966 H 0.68955 0.77778 0.88466 0.0
H967 H 0.64516 0.77418 0.86321 0.0
H968 H 0.62302 0.71729 0.02222 0.0
H969 H 0.60541 0.72808 0.07644 0.0
H970 H 0.63872 0.72954 0.07837 0.0
H971 H 0.63653 0.77646 0.09653 0.0
H972 H 0.60327 0.77519 0.0945 0.0
H973 H 0.61948 0.79635 0.05248 0.0
H974 H 0.59906 0.77262 0.86042 0.0
H975 H 0.55408 0.77249 0.87645 0.0
H976 H 0.56803 0.75688 0.03944 0.0
C977 C 0.66793 0.76386 0.00618 0.0
C978 C 0.68517 0.7698 0.96712 0.0
C979 C 0.67675 0.77309 0.91527 0.0
C980 C 0.65156 0.77105 0.90263 0.0
C981 C 0.63505 0.76557 0.9422 0.0
C982 C 0.64287 0.76188 0.99286 0.0
C983 C 0.62116 0.75762 0.02854 0.0
C984 C 0.62214 0.73158 0.05281 0.0
C985 C 0.62005 0.7776 0.07047 0.0
C986 C 0.59989 0.76009 0.99018 0.0
C987 C 0.60834 0.76452 0.94054 0.0
C988 C 0.59221 0.76887 0.89898 0.0
C989 C 0.56675 0.7689 0.90848 0.0
C990 C 0.55771 0.76461 0.9591 0.0
C991 C 0.5745 0.75981 0.00026 0.0
loop_
_geom_bond_atom_site_label_1
_geom_bond_atom_site_label_2
_geom_bond_distance
_geom_bond_site_symmetry_2
_ccdc_geom_bond_type
Fe0 O2 1.918 . S
Fe0 O5 1.997 . S
Fe0 O6 2.002 . S
Fe0 O11 1.976 . S
Fe0 O14 1.996 . S
Fe1 O2 1.918 1_556 S
Fe1 O9 1.997 . S
Fe1 O12 1.996 . S
Fe1 O16 1.976 . S
Fe1 O19 2.002 . S
O2 Fe0 1.918 . S
O2 Fe1 1.918 1_554 S
O2 Fe3 1.918 . S
Fe3 O2 1.918 . S
Fe3 O4 2.002 . S
Fe3 O13 1.976 . S
Fe3 O17 1.996 1_554 S
Fe3 O20 1.997 1_554 S
O4 Fe3 2.002 . S
O4 C21 1.295 . S
O5 Fe0 1.997 . S
O5 C21 1.235 . S
O6 Fe0 2.002 . S
O6 C7 1.295 . S
C7 O6 1.295 . S
C7 O9 1.235 1_554 S
C8 O13 1.287 . S
C8 O14 1.255 . S
O9 Fe1 1.997 . S
O9 C7 1.235 1_556 S
C10 O16 1.287 . S
C10 O17 1.255 . S
O11 Fe0 1.976 . S
O11 C18 1.287 . S
O12 Fe1 1.996 . S
O12 C18 1.255 1_556 S
O13 Fe3 1.976 . S
O13 C8 1.287 . S
O14 Fe0 1.996 . S
O14 C8 1.255 . S
C15 O19 1.295 . S
C15 O20 1.235 . S
O16 Fe1 1.976 . S
O16 C10 1.287 . S
O17 Fe3 1.996 1_556 S
O17 C10 1.255 . S
C18 O11 1.287 . S
C18 O12 1.255 1_554 S
O19 Fe1 2.002 . S
O19 C15 1.295 . S
O20 Fe3 1.997 1_556 S
O20 C15 1.235 . S
C21 O4 1.295 . S
C21 O5 1.235 . S
Fe22 O24 1.918 . S
Fe22 O27 1.997 . S
Fe22 O28 2.002 . S
Fe22 O33 1.976 . S
Fe22 O36 1.996 . S
Fe23 O24 1.918 . S
Fe23 O31 1.997 . S
Fe23 O34 1.996 . S
Fe23 O38 1.976 . S
Fe23 O41 2.002 . S
O24 Fe22 1.918 . S
O24 Fe23 1.918 . S
O24 Fe25 1.918 . S
Fe25 O24 1.918 . S
Fe25 O26 2.002 . S
Fe25 O35 1.976 . S
Fe25 O39 1.996 . S
Fe25 O42 1.997 . S
O26 Fe25 2.002 . S
O26 C43 1.295 . S
O27 Fe22 1.997 . S
O27 C43 1.235 . S
O28 Fe22 2.002 . S
O28 C29 1.295 . S
C29 O28 1.295 . S
C29 O31 1.235 . S
C30 O35 1.287 . S
C30 O36 1.255 . S
O31 Fe23 1.997 . S
O31 C29 1.235 . S
C32 O38 1.287 . S
C32 O39 1.255 . S
O33 Fe22 1.976 . S
O33 C40 1.287 . S
O34 Fe23 1.996 . S
O34 C40 1.255 . S
O35 Fe25 1.976 . S
O35 C30 1.287 . S
O36 Fe22 1.996 . S
O36 C30 1.255 . S
C37 O41 1.295 . S
C37 O42 1.235 . S
O38 Fe23 1.976 . S
O38 C32 1.287 . S
O39 Fe25 1.996 . S
O39 C32 1.255 . S
C40 O33 1.287 . S
C40 O34 1.255 . S
O41 Fe23 2.002 . S
O41 C37 1.295 . S
O42 Fe25 1.997 . S
O42 C37 1.235 . S
C43 O26 1.295 . S
C43 O27 1.235 . S
Fe44 O46 1.918 1_556 S
Fe44 O49 1.997 . S
Fe44 O50 2.002 . S
Fe44 O55 1.976 . S
Fe44 O58 1.996 . S
Fe45 O46 1.918 . S
Fe45 O53 1.997 . S
Fe45 O56 1.996 . S
Fe45 O60 1.976 . S
Fe45 O63 2.002 . S
O46 Fe44 1.918 1_554 S
O46 Fe45 1.918 . S
O46 Fe47 1.918 . S
Fe47 O46 1.918 . S
Fe47 O48 2.002 1_554 S
Fe47 O57 1.976 1_554 S
Fe47 O61 1.996 . S
Fe47 O64 1.997 . S
O48 Fe47 2.002 1_556 S
O48 C65 1.295 . S
O49 Fe44 1.997 . S
O49 C65 1.235 . S
O50 Fe44 2.002 . S
O50 C51 1.295 1_556 S
C51 O50 1.295 1_554 S
C51 O53 1.235 . S
C52 O57 1.287 . S
C52 O58 1.255 . S
O53 Fe45 1.997 . S
O53 C51 1.235 . S
C54 O60 1.287 . S
C54 O61 1.255 . S
O55 Fe44 1.976 . S
O55 C62 1.287 1_556 S
O56 Fe45 1.996 . S
O56 C62 1.255 . S
O57 Fe47 1.976 1_556 S
O57 C52 1.287 . S
O58 Fe44 1.996 . S
O58 C52 1.255 . S
C59 O63 1.295 . S
C59 O64 1.235 . S
O60 Fe45 1.976 . S
O60 C54 1.287 . S
O61 Fe47 1.996 . S
O61 C54 1.255 . S
C62 O55 1.287 1_554 S
C62 O56 1.255 . S
O63 Fe45 2.002 . S
O63 C59 1.295 . S
O64 Fe47 1.997 . S
O64 C59 1.235 . S
C65 O48 1.295 . S
C65 O49 1.235 . S
Fe66 O68 1.918 . S
Fe66 O71 1.997 . S
Fe66 O72 2.002 . S
Fe66 O77 1.976 . S
Fe66 O80 1.996 . S
Fe67 O68 1.918 . S
Fe67 O75 1.997 . S
Fe67 O78 1.996 . S
Fe67 O82 1.976 . S
Fe67 O85 2.002 . S
O68 Fe66 1.918 . S
O68 Fe67 1.918 . S
O68 Fe69 1.918 . S
Fe69 O68 1.918 . S
Fe69 O70 2.002 . S
Fe69 O79 1.976 . S
Fe69 O83 1.996 . S
Fe69 O86 1.997 . S
O70 Fe69 2.002 . S
O70 C87 1.295 . S
O71 Fe66 1.997 . S
O71 C87 1.235 . S
O72 Fe66 2.002 . S
O72 C73 1.295 . S
C73 O72 1.295 . S
C73 O75 1.235 . S
C74 O79 1.287 . S
C74 O80 1.255 . S
O75 Fe67 1.997 . S
O75 C73 1.235 . S
C76 O82 1.287 . S
C76 O83 1.255 . S
O77 Fe66 1.976 . S
O77 C84 1.287 . S
O78 Fe67 1.996 . S
O78 C84 1.255 . S
O79 Fe69 1.976 . S
O79 C74 1.287 . S
O80 Fe66 1.996 . S
O80 C74 1.255 . S
C81 O85 1.295 . S
C81 O86 1.235 . S
O82 Fe67 1.976 . S
O82 C76 1.287 . S
O83 Fe69 1.996 . S
O83 C76 1.255 . S
C84 O77 1.287 . S
C84 O78 1.255 . S
O85 Fe67 2.002 . S
O85 C81 1.295 . S
O86 Fe69 1.997 . S
O86 C81 1.235 . S
C87 O70 1.295 . S
C87 O71 1.235 . S
P88 O99 1.490 . S
P88 C102 1.812 . S
P88 C108 1.803 . S
P88 C114 1.819 1_554 S
H89 C103 0.941 . S
H90 C104 0.939 . S
H91 C106 0.940 . S
H92 C107 0.940 . S
H93 C109 0.939 . S
H94 C110 0.942 . S
H95 C112 0.940 . S
H96 C113 0.939 . S
H97 C115 0.941 . S
H98 C119 0.939 . S
O99 P88 1.490 . S
H100 C116 0.939 . S
H101 C118 0.940 . S
C102 P88 1.812 . S
C102 C103 1.389 . S
C102 C107 1.391 . S
C103 H89 0.941 . S
C103 C102 1.389 . S
C103 C104 1.397 . S
C104 H90 0.939 . S
C104 C103 1.397 . S
C104 C105 1.378 . S
C105 C104 1.378 . S
C105 C106 1.378 . S
C106 H91 0.940 . S
C106 C105 1.378 . S
C106 C107 1.396 . S
C107 H92 0.940 . S
C107 C102 1.391 . S
C107 C106 1.396 . S
C108 P88 1.803 . S
C108 C109 1.378 1_554 S
C108 C113 1.400 . S
C109 H93 0.939 . S
C109 C108 1.378 1_556 S
C109 C110 1.361 . S
C110 H94 0.942 . S
C110 C109 1.361 . S
C110 C111 1.369 1_556 S
C111 C110 1.369 1_554 S
C111 C112 1.404 . S
C112 H95 0.940 . S
C112 C111 1.404 . S
C112 C113 1.389 . S
C113 H96 0.939 . S
C113 C108 1.400 . S
C113 C112 1.389 . S
C114 P88 1.819 1_556 S
C114 C115 1.391 . S
C114 C119 1.391 . S
C115 H97 0.941 . S
C115 C114 1.391 . S
C115 C116 1.396 . S
C116 H100 0.939 . S
C116 C115 1.396 . S
C116 C117 1.397 . S
C117 C116 1.397 . S
C117 C118 1.385 . S
C118 H101 0.940 . S
C118 C117 1.385 . S
C118 C119 1.388 . S
C119 H98 0.939 . S
C119 C114 1.391 . S
C119 C118 1.388 . S
P120 O131 1.490 . S
P120 C134 1.812 . S
P120 C140 1.803 1_655 S
P120 C146 1.819 . S
H121 C135 0.941 . S
H122 C136 0.939 . S
H123 C138 0.940 . S
H124 C139 0.940 . S
H125 C141 0.939 . S
H126 C142 0.942 . S
H127 C144 0.940 . S
H128 C145 0.938 1_655 S
H129 C147 0.941 . S
H130 C151 0.939 . S
O131 P120 1.490 . S
H132 C148 0.939 . S
H133 C150 0.940 . S
C134 P120 1.812 . S
C134 C135 1.389 . S
C134 C139 1.391 . S
C135 H121 0.941 . S
C135 C134 1.389 . S
C135 C136 1.397 . S
C136 H122 0.939 . S
C136 C135 1.397 . S
C136 C137 1.378 . S
C137 C136 1.378 . S
C137 C138 1.378 . S
C138 H123 0.940 . S
C138 C137 1.378 . S
C138 C139 1.396 . S
C139 H124 0.940 . S
C139 C134 1.391 . S
C139 C138 1.396 . S
C140 P120 1.803 1_455 S
C140 C141 1.378 . S
C140 C145 1.400 . S
C141 H125 0.939 . S
C141 C140 1.378 . S
C141 C142 1.361 . S
C142 H126 0.942 . S
C142 C141 1.361 . S
C142 C143 1.369 . S
C143 C142 1.369 . S
C143 C144 1.404 . S
C144 H127 0.940 . S
C144 C143 1.404 . S
C144 C145 1.389 . S
C145 H128 0.938 1_455 S
C145 C140 1.400 . S
C145 C144 1.389 . S
C146 P120 1.819 . S
C146 C147 1.391 . S
C146 C151 1.391 . S
C147 H129 0.941 . S
C147 C146 1.391 . S
C147 C148 1.396 . S
C148 H132 0.939 . S
C148 C147 1.396 . S
C148 C149 1.397 . S
C149 C148 1.397 . S
C149 C150 1.385 . S
C150 H133 0.940 . S
C150 C149 1.385 . S
C150 C151 1.388 . S
C151 H130 0.939 . S
C151 C146 1.391 . S
C151 C150 1.388 . S
P152 O163 1.490 . S
P152 C166 1.812 1_554 S
P152 C172 1.803 . S
P152 C178 1.819 . S
H153 C167 0.941 . S
H154 C168 0.939 . S
H155 C170 0.940 . S
H156 C171 0.940 . S
H157 C173 0.939 . S
H158 C174 0.942 . S
H159 C176 0.940 . S
H160 C177 0.939 . S
H161 C179 0.941 . S
H162 C183 0.939 . S
O163 P152 1.490 . S
H164 C180 0.939 . S
H165 C182 0.940 . S
C166 P152 1.812 1_556 S
C166 C167 1.389 . S
C166 C171 1.391 . S
C167 H153 0.941 . S
C167 C166 1.389 . S
C167 C168 1.397 . S
C168 H154 0.939 . S
C168 C167 1.397 . S
C168 C169 1.378 . S
C169 C168 1.378 . S
C169 C170 1.378 . S
C170 H155 0.940 . S
C170 C169 1.378 . S
C170 C171 1.396 . S
C171 H156 0.940 . S
C171 C166 1.391 . S
C171 C170 1.396 . S
C172 P152 1.803 . S
C172 C173 1.378 . S
C172 C177 1.400 1_554 S
C173 H157 0.939 . S
C173 C172 1.378 . S
C173 C174 1.361 . S
C174 H158 0.942 . S
C174 C173 1.361 . S
C174 C175 1.369 . S
C175 C174 1.369 . S
C175 C176 1.404 1_554 S
C176 H159 0.940 . S
C176 C175 1.404 1_556 S
C176 C177 1.389 . S
C177 H160 0.939 . S
C177 C172 1.400 1_556 S
C177 C176 1.389 . S
C178 P152 1.819 . S
C178 C179 1.391 . S
C178 C183 1.391 . S
C179 H161 0.941 . S
C179 C178 1.391 . S
C179 C180 1.396 . S
C180 H164 0.939 . S
C180 C179 1.396 . S
C180 C181 1.397 . S
C181 C180 1.397 . S
C181 C182 1.385 . S
C182 H165 0.940 . S
C182 C181 1.385 . S
C182 C183 1.388 . S
C183 H162 0.939 . S
C183 C178 1.391 . S
C183 C182 1.388 . S
P184 O195 1.490 . S
P184 C198 1.812 . S
P184 C204 1.803 1_455 S
P184 C210 1.819 . S
H185 C199 0.941 . S
H186 C200 0.939 . S
H187 C202 0.940 . S
H188 C203 0.940 . S
H189 C205 0.939 . S
H190 C206 0.942 . S
H191 C208 0.940 . S
H192 C209 0.939 . S
H193 C211 0.941 . S
H194 C215 0.939 . S
O195 P184 1.490 . S
H196 C212 0.939 . S
H197 C214 0.940 . S
C198 P184 1.812 . S
C198 C199 1.389 . S
C198 C203 1.391 . S
C199 H185 0.941 . S
C199 C198 1.389 . S
C199 C200 1.397 . S
C200 H186 0.939 . S
C200 C199 1.397 . S
C200 C201 1.378 . S
C201 C200 1.378 . S
C201 C202 1.378 . S
C202 H187 0.940 . S
C202 C201 1.378 . S
C202 C203 1.396 . S
C203 H188 0.940 . S
C203 C198 1.391 . S
C203 C202 1.396 . S
C204 P184 1.803 1_655 S
C204 C205 1.378 . S
C204 C209 1.400 . S
C205 H189 0.939 . S
C205 C204 1.378 . S
C205 C206 1.361 . S
C206 H190 0.942 . S
C206 C205 1.361 . S
C206 C207 1.369 . S
C207 C206 1.369 . S
C207 C208 1.404 . S
C208 H191 0.940 . S
C208 C207 1.404 . S
C208 C209 1.389 . S
C209 H192 0.939 . S
C209 C204 1.400 . S
C209 C208 1.389 . S
C210 P184 1.819 . S
C210 C211 1.391 . S
C210 C215 1.391 . S
C211 H193 0.941 . S
C211 C210 1.391 . S
C211 C212 1.396 . S
C212 H196 0.939 . S
C212 C211 1.396 . S
C212 C213 1.397 . S
C213 C212 1.397 . S
C213 C214 1.385 . S
C214 H197 0.940 . S
C214 C213 1.385 . S
C214 C215 1.388 . S
C215 H194 0.939 . S
C215 C210 1.391 . S
C215 C214 1.388 . S
P216 O227 1.488 1_565 S
P216 C230 1.812 . S
P216 C236 1.803 1_565 S
P216 C242 1.819 . S
H217 C231 0.941 . S
H218 C232 0.939 . S
H219 C234 0.940 . S
H220 C235 0.940 . S
H221 C237 0.939 . S
H222 C238 0.942 . S
H223 C240 0.940 . S
H224 C241 0.939 . S
H225 C243 0.941 . S
H226 C247 0.939 1_545 S
O227 P216 1.488 1_545 S
H228 C244 0.939 . S
H229 C246 0.940 . S
C230 P216 1.812 . S
C230 C231 1.389 . S
C230 C235 1.391 . S
C231 H217 0.941 . S
C231 C230 1.389 . S
C231 C232 1.397 . S
C232 H218 0.939 . S
C232 C231 1.397 . S
C232 C233 1.378 . S
C233 C232 1.378 . S
C233 C234 1.378 . S
C234 H219 0.940 . S
C234 C233 1.378 . S
C234 C235 1.396 . S
C235 H220 0.940 . S
C235 C230 1.391 . S
C235 C234 1.396 . S
C236 P216 1.803 1_545 S
C236 C237 1.378 . S
C236 C241 1.400 . S
C237 H221 0.939 . S
C237 C236 1.378 . S
C237 C238 1.361 . S
C238 H222 0.942 . S
C238 C237 1.361 . S
C238 C239 1.369 . S
C239 C238 1.369 . S
C239 C240 1.404 . S
C240 H223 0.940 . S
C240 C239 1.404 . S
C240 C241 1.389 . S
C241 H224 0.939 . S
C241 C236 1.400 . S
C241 C240 1.389 . S
C242 P216 1.819 . S
C242 C243 1.391 . S
C242 C247 1.391 . S
C243 H225 0.941 . S
C243 C242 1.391 . S
C243 C244 1.396 . S
C244 H228 0.939 . S
C244 C243 1.396 . S
C244 C245 1.397 . S
C245 C244 1.397 . S
C245 C246 1.385 . S
C246 H229 0.940 . S
C246 C245 1.385 . S
C246 C247 1.388 . S
C247 H226 0.939 1_565 S
C247 C242 1.391 . S
C247 C246 1.388 . S
P248 O259 1.490 . S
P248 C262 1.812 . S
P248 C268 1.803 . S
P248 C274 1.819 1_556 S
H249 C263 0.941 . S
H250 C264 0.939 . S
H251 C266 0.940 . S
H252 C267 0.940 . S
H253 C269 0.939 . S
H254 C270 0.942 . S
H255 C272 0.940 . S
H256 C273 0.939 . S
H257 C275 0.941 . S
H258 C279 0.939 . S
O259 P248 1.490 . S
H260 C276 0.939 . S
H261 C278 0.940 . S
C262 P248 1.812 . S
C262 C263 1.389 . S
C262 C267 1.391 . S
C263 H249 0.941 . S
C263 C262 1.389 . S
C263 C264 1.397 . S
C264 H250 0.939 . S
C264 C263 1.397 . S
C264 C265 1.378 . S
C265 C264 1.378 . S
C265 C266 1.378 . S
C266 H251 0.940 . S
C266 C265 1.378 . S
C266 C267 1.396 . S
C267 H252 0.940 . S
C267 C262 1.391 . S
C267 C266 1.396 . S
C268 P248 1.803 . S
C268 C269 1.378 1_556 S
C268 C273 1.400 . S
C269 H253 0.939 . S
C269 C268 1.378 1_554 S
C269 C270 1.361 . S
C270 H254 0.942 . S
C270 C269 1.361 . S
C270 C271 1.369 . S
C271 C270 1.369 . S
C271 C272 1.404 1_554 S
C272 H255 0.940 . S
C272 C271 1.404 1_556 S
C272 C273 1.389 . S
C273 H256 0.939 . S
C273 C268 1.400 . S
C273 C272 1.389 . S
C274 P248 1.819 1_554 S
C274 C275 1.391 . S
C274 C279 1.391 . S
C275 H257 0.941 . S
C275 C274 1.391 . S
C275 C276 1.396 . S
C276 H260 0.939 . S
C276 C275 1.396 . S
C276 C277 1.397 . S
C277 C276 1.397 . S
C277 C278 1.385 . S
C278 H261 0.940 . S
C278 C277 1.385 . S
C278 C279 1.388 . S
C279 H258 0.939 . S
C279 C274 1.391 . S
C279 C278 1.388 . S
P280 O291 1.490 . S
P280 C294 1.812 . S
P280 C300 1.803 1_545 S
P280 C306 1.819 . S
H281 C295 0.941 . S
H282 C296 0.939 . S
H283 C298 0.940 . S
H284 C299 0.940 . S
H285 C301 0.939 . S
H286 C302 0.942 . S
H287 C304 0.940 . S
H288 C305 0.939 . S
H289 C307 0.941 . S
H290 C311 0.932 1_565 S
O291 P280 1.490 . S
H292 C308 0.939 . S
H293 C310 0.940 . S
C294 P280 1.812 . S
C294 C295 1.389 . S
C294 C299 1.391 . S
C295 H281 0.941 . S
C295 C294 1.389 . S
C295 C296 1.397 . S
C296 H282 0.939 . S
C296 C295 1.397 . S
C296 C297 1.378 . S
C297 C296 1.378 . S
C297 C298 1.378 . S
C298 H283 0.940 . S
C298 C297 1.378 . S
C298 C299 1.396 . S
C299 H284 0.940 . S
C299 C294 1.391 . S
C299 C298 1.396 . S
C300 P280 1.803 1_565 S
C300 C301 1.378 . S
C300 C305 1.400 . S
C301 H285 0.939 . S
C301 C300 1.378 . S
C301 C302 1.361 . S
C302 H286 0.942 . S
C302 C301 1.361 . S
C302 C303 1.369 . S
C303 C302 1.369 . S
C303 C304 1.404 . S
C304 H287 0.940 . S
C304 C303 1.404 . S
C304 C305 1.389 . S
C305 H288 0.939 . S
C305 C300 1.400 . S
C305 C304 1.389 . S
C306 P280 1.819 . S
C306 C307 1.391 . S
C306 C311 1.391 . S
C307 H289 0.941 . S
C307 C306 1.391 . S
C307 C308 1.396 . S
C308 H292 0.939 . S
C308 C307 1.396 . S
C308 C309 1.397 . S
C309 C308 1.397 . S
C309 C310 1.385 . S
C310 H293 0.940 . S
C310 C309 1.385 . S
C310 C311 1.388 . S
C311 H290 0.932 1_545 S
C311 C306 1.391 . S
C311 C310 1.388 . S
P312 O323 1.490 . S
P312 C326 1.812 . S
P312 C332 1.803 . S
P312 C338 1.819 1_554 S
H313 C327 0.941 . S
H314 C328 0.939 . S
H315 C330 0.940 . S
H316 C331 0.940 . S
H317 C333 0.939 . S
H318 C334 0.942 . S
H319 C336 0.940 . S
H320 C337 0.939 . S
H321 C339 0.941 . S
H322 C343 0.939 . S
O323 P312 1.490 . S
H324 C340 0.939 . S
H325 C342 0.940 . S
C326 P312 1.812 . S
C326 C327 1.389 . S
C326 C331 1.391 . S
C327 H313 0.941 . S
C327 C326 1.389 . S
C327 C328 1.397 . S
C328 H314 0.939 . S
C328 C327 1.397 . S
C328 C329 1.378 . S
C329 C328 1.378 . S
C329 C330 1.378 . S
C330 H315 0.940 . S
C330 C329 1.378 . S
C330 C331 1.396 . S
C331 H316 0.940 . S
C331 C326 1.391 . S
C331 C330 1.396 . S
C332 P312 1.803 . S
C332 C333 1.378 1_554 S
C332 C337 1.400 . S
C333 H317 0.939 . S
C333 C332 1.378 1_556 S
C333 C334 1.361 . S
C334 H318 0.942 . S
C334 C333 1.361 . S
C334 C335 1.369 1_556 S
C335 C334 1.369 1_554 S
C335 C336 1.404 . S
C336 H319 0.940 . S
C336 C335 1.404 . S
C336 C337 1.389 . S
C337 H320 0.939 . S
C337 C332 1.400 . S
C337 C336 1.389 . S
C338 P312 1.819 1_556 S
C338 C339 1.391 . S
C338 C343 1.391 . S
C339 H321 0.941 . S
C339 C338 1.391 . S
C339 C340 1.396 . S
C340 H324 0.939 . S
C340 C339 1.396 . S
C340 C341 1.397 . S
C341 C340 1.397 . S
C341 C342 1.385 . S
C342 H325 0.940 . S
C342 C341 1.385 . S
C342 C343 1.388 . S
C343 H322 0.939 . S
C343 C338 1.391 . S
C343 C342 1.388 . S
H344 C356 0.930 . S
H345 C358 0.930 . S
H346 C359 0.930 . S
H347 C363 0.959 . S
H348 C363 0.959 . S
H349 C363 0.961 . S
H350 C364 0.960 . S
H351 C364 0.961 . S
H352 C364 0.959 . S
H353 C367 0.929 . S
H354 C368 0.931 . S
H355 C370 0.930 . S
C356 H344 0.930 . S
C356 C357 1.399 . S
C356 C361 1.399 . S
C357 C356 1.399 . S
C357 C358 1.376 . S
C358 H345 0.930 . S
C358 C357 1.376 . S
C358 C359 1.388 . S
C359 H346 0.930 . S
C359 C358 1.388 . S
C359 C360 1.390 . S
C360 C359 1.390 . S
C360 C361 1.394 . S
C360 C366 1.465 . S
C361 C356 1.399 . S
C361 C360 1.394 . S
C361 C362 1.516 . S
C362 C361 1.516 . S
C362 C363 1.502 . S
C362 C364 1.561 . S
C362 C365 1.526 . S
C363 H347 0.959 . S
C363 H348 0.959 . S
C363 H349 0.961 . S
C363 C362 1.502 . S
C364 H350 0.960 . S
C364 H351 0.961 . S
C364 H352 0.959 . S
C364 C362 1.561 . S
C365 C362 1.526 . S
C365 C366 1.396 . S
C365 C370 1.390 . S
C366 C360 1.465 . S
C366 C365 1.396 . S
C366 C367 1.399 . S
C367 H353 0.929 . S
C367 C366 1.399 . S
C367 C368 1.385 . S
C368 H354 0.931 . S
C368 C367 1.385 . S
C368 C369 1.389 . S
C369 C368 1.389 . S
C369 C370 1.387 . S
C370 H355 0.930 . S
C370 C365 1.390 . S
C370 C369 1.387 . S
H371 C383 0.930 . S
H372 C385 0.930 . S
H373 C386 0.930 . S
H374 C390 0.959 . S
H375 C390 0.959 . S
H376 C390 0.961 . S
H377 C391 0.960 . S
H378 C391 0.961 . S
H379 C391 0.959 . S
H380 C394 0.929 . S
H381 C395 0.931 . S
H382 C397 0.930 . S
C383 H371 0.930 . S
C383 C384 1.399 . S
C383 C388 1.399 . S
C384 C383 1.399 . S
C384 C385 1.376 . S
C385 H372 0.930 . S
C385 C384 1.376 . S
C385 C386 1.388 . S
C386 H373 0.930 . S
C386 C385 1.388 . S
C386 C387 1.390 . S
C387 C386 1.390 . S
C387 C388 1.394 . S
C387 C393 1.465 . S
C388 C383 1.399 . S
C388 C387 1.394 . S
C388 C389 1.516 . S
C389 C388 1.516 . S
C389 C390 1.502 . S
C389 C391 1.561 . S
C389 C392 1.526 . S
C390 H374 0.959 . S
C390 H375 0.959 . S
C390 H376 0.961 . S
C390 C389 1.502 . S
C391 H377 0.960 . S
C391 H378 0.961 . S
C391 H379 0.959 . S
C391 C389 1.561 . S
C392 C389 1.526 . S
C392 C393 1.396 . S
C392 C397 1.390 . S
C393 C387 1.465 . S
C393 C392 1.396 . S
C393 C394 1.399 . S
C394 H380 0.929 . S
C394 C393 1.399 . S
C394 C395 1.385 . S
C395 H381 0.931 . S
C395 C394 1.385 . S
C395 C396 1.389 . S
C396 C395 1.389 . S
C396 C397 1.387 . S
C397 H382 0.930 . S
C397 C392 1.390 . S
C397 C396 1.387 . S
H398 C410 0.930 . S
H399 C412 0.930 . S
H400 C413 0.930 . S
H401 C417 0.959 . S
H402 C417 0.959 . S
H403 C417 0.961 . S
H404 C418 0.960 . S
H405 C418 0.961 . S
H406 C418 0.959 . S
H407 C421 0.929 . S
H408 C422 0.931 . S
H409 C424 0.930 . S
C410 H398 0.930 . S
C410 C411 1.399 . S
C410 C415 1.399 . S
C411 C410 1.399 . S
C411 C412 1.376 . S
C412 H399 0.930 . S
C412 C411 1.376 . S
C412 C413 1.388 . S
C413 H400 0.930 . S
C413 C412 1.388 . S
C413 C414 1.390 . S
C414 C413 1.390 . S
C414 C415 1.394 . S
C414 C420 1.465 . S
C415 C410 1.399 . S
C415 C414 1.394 . S
C415 C416 1.516 . S
C416 C415 1.516 . S
C416 C417 1.502 . S
C416 C418 1.561 . S
C416 C419 1.526 . S
C417 H401 0.959 . S
C417 H402 0.959 . S
C417 H403 0.961 . S
C417 C416 1.502 . S
C418 H404 0.960 . S
C418 H405 0.961 . S
C418 H406 0.959 . S
C418 C416 1.561 . S
C419 C416 1.526 . S
C419 C420 1.396 . S
C419 C424 1.390 . S
C420 C414 1.465 . S
C420 C419 1.396 . S
C420 C421 1.399 . S
C421 H407 0.929 . S
C421 C420 1.399 . S
C421 C422 1.385 . S
C422 H408 0.931 . S
C422 C421 1.385 . S
C422 C423 1.389 . S
C423 C422 1.389 . S
C423 C424 1.387 . S
C424 H409 0.930 . S
C424 C419 1.390 . S
C424 C423 1.387 . S
H425 C437 0.930 . S
H426 C439 0.930 . S
H427 C440 0.930 . S
H428 C444 0.959 . S
H429 C444 0.959 . S
H430 C444 0.961 . S
H431 C445 0.960 . S
H432 C445 0.961 . S
H433 C445 0.959 . S
H434 C448 0.929 . S
H435 C449 0.931 . S
H436 C451 0.930 . S
C437 H425 0.930 . S
C437 C438 1.399 . S
C437 C442 1.399 . S
C438 C437 1.399 . S
C438 C439 1.376 . S
C439 H426 0.930 . S
C439 C438 1.376 . S
C439 C440 1.388 . S
C440 H427 0.930 . S
C440 C439 1.388 . S
C440 C441 1.390 . S
C441 C440 1.390 . S
C441 C442 1.394 . S
C441 C447 1.465 . S
C442 C437 1.399 . S
C442 C441 1.394 . S
C442 C443 1.516 . S
C443 C442 1.516 . S
C443 C444 1.502 . S
C443 C445 1.561 . S
C443 C446 1.526 . S
C444 H428 0.959 . S
C444 H429 0.959 . S
C444 H430 0.961 . S
C444 C443 1.502 . S
C445 H431 0.960 . S
C445 H432 0.961 . S
C445 H433 0.959 . S
C445 C443 1.561 . S
C446 C443 1.526 . S
C446 C447 1.396 . S
C446 C451 1.390 . S
C447 C441 1.465 . S
C447 C446 1.396 . S
C447 C448 1.399 . S
C448 H434 0.929 . S
C448 C447 1.399 . S
C448 C449 1.385 . S
C449 H435 0.931 . S
C449 C448 1.385 . S
C449 C450 1.389 . S
C450 C449 1.389 . S
C450 C451 1.387 . S
C451 H436 0.930 . S
C451 C446 1.390 . S
C451 C450 1.387 . S
H452 C464 0.930 . S
H453 C466 0.930 . S
H454 C467 0.930 . S
H455 C471 0.959 . S
H456 C471 0.959 . S
H457 C471 0.961 . S
H458 C472 0.960 . S
H459 C472 0.961 . S
H460 C472 0.959 . S
H461 C475 0.929 . S
H462 C476 0.931 . S
H463 C478 0.930 . S
C464 H452 0.930 . S
C464 C465 1.399 . S
C464 C469 1.399 . S
C465 C464 1.399 . S
C465 C466 1.376 . S
C466 H453 0.930 . S
C466 C465 1.376 . S
C466 C467 1.388 . S
C467 H454 0.930 . S
C467 C466 1.388 . S
C467 C468 1.390 . S
C468 C467 1.390 . S
C468 C469 1.394 . S
C468 C474 1.465 . S
C469 C464 1.399 . S
C469 C468 1.394 . S
C469 C470 1.516 . S
C470 C469 1.516 . S
C470 C471 1.502 . S
C470 C472 1.561 . S
C470 C473 1.526 . S
C471 H455 0.959 . S
C471 H456 0.959 . S
C471 H457 0.961 . S
C471 C470 1.502 . S
C472 H458 0.960 . S
C472 H459 0.961 . S
C472 H460 0.959 . S
C472 C470 1.561 . S
C473 C470 1.526 . S
C473 C474 1.396 . S
C473 C478 1.390 . S
C474 C468 1.465 . S
C474 C473 1.396 . S
C474 C475 1.399 . S
C475 H461 0.929 . S
C475 C474 1.399 . S
C475 C476 1.385 . S
C476 H462 0.931 . S
C476 C475 1.385 . S
C476 C477 1.389 . S
C477 C476 1.389 . S
C477 C478 1.387 . S
C478 H463 0.930 . S
C478 C473 1.390 . S
C478 C477 1.387 . S
H479 C491 0.930 . S
H480 C493 0.930 . S
H481 C494 0.930 . S
H482 C498 0.959 . S
H483 C498 0.959 . S
H484 C498 0.961 . S
H485 C499 0.960 . S
H486 C499 0.961 . S
H487 C499 0.959 . S
H488 C502 0.929 . S
H489 C503 0.931 . S
H490 C505 0.930 . S
C491 H479 0.930 . S
C491 C492 1.399 . S
C491 C496 1.399 . S
C492 C491 1.399 . S
C492 C493 1.376 . S
C493 H480 0.930 . S
C493 C492 1.376 . S
C493 C494 1.388 . S
C494 H481 0.930 . S
C494 C493 1.388 . S
C494 C495 1.390 . S
C495 C494 1.390 . S
C495 C496 1.394 . S
C495 C501 1.465 . S
C496 C491 1.399 . S
C496 C495 1.394 . S
C496 C497 1.516 . S
C497 C496 1.516 . S
C497 C498 1.502 . S
C497 C499 1.561 . S
C497 C500 1.526 . S
C498 H482 0.959 . S
C498 H483 0.959 . S
C498 H484 0.961 . S
C498 C497 1.502 . S
C499 H485 0.960 . S
C499 H486 0.961 . S
C499 H487 0.959 . S
C499 C497 1.561 . S
C500 C497 1.526 . S
C500 C501 1.396 . S
C500 C505 1.390 . S
C501 C495 1.465 . S
C501 C500 1.396 . S
C501 C502 1.399 . S
C502 H488 0.929 . S
C502 C501 1.399 . S
C502 C503 1.385 . S
C503 H489 0.931 . S
C503 C502 1.385 . S
C503 C504 1.389 . S
C504 C503 1.389 . S
C504 C505 1.387 . S
C505 H490 0.930 . S
C505 C500 1.390 . S
C505 C504 1.387 . S
H506 C518 0.930 . S
H507 C520 0.930 . S
H508 C521 0.930 . S
H509 C525 0.959 . S
H510 C525 0.959 . S
H511 C525 0.961 . S
H512 C526 0.960 . S
H513 C526 0.961 . S
H514 C526 0.959 . S
H515 C529 0.929 . S
H516 C530 0.931 . S
H517 C532 0.930 . S
C518 H506 0.930 . S
C518 C519 1.399 . S
C518 C523 1.399 . S
C519 C518 1.399 . S
C519 C520 1.376 . S
C520 H507 0.930 . S
C520 C519 1.376 . S
C520 C521 1.388 . S
C521 H508 0.930 . S
C521 C520 1.388 . S
C521 C522 1.390 . S
C522 C521 1.390 . S
C522 C523 1.394 . S
C522 C528 1.465 . S
C523 C518 1.399 . S
C523 C522 1.394 . S
C523 C524 1.516 . S
C524 C523 1.516 . S
C524 C525 1.502 . S
C524 C526 1.561 . S
C524 C527 1.526 . S
C525 H509 0.959 . S
C525 H510 0.959 . S
C525 H511 0.961 . S
C525 C524 1.502 . S
C526 H512 0.960 . S
C526 H513 0.961 . S
C526 H514 0.959 . S
C526 C524 1.561 . S
C527 C524 1.526 . S
C527 C528 1.396 . S
C527 C532 1.390 . S
C528 C522 1.465 . S
C528 C527 1.396 . S
C528 C529 1.399 . S
C529 H515 0.929 . S
C529 C528 1.399 . S
C529 C530 1.385 . S
C530 H516 0.931 . S
C530 C529 1.385 . S
C530 C531 1.389 . S
C531 C530 1.389 . S
C531 C532 1.387 . S
C532 H517 0.930 . S
C532 C527 1.390 . S
C532 C531 1.387 . S
H533 C545 0.930 . S
H534 C547 0.930 . S
H535 C548 0.930 . S
H536 C552 0.959 . S
H537 C552 0.959 . S
H538 C552 0.961 . S
H539 C553 0.960 . S
H540 C553 0.961 . S
H541 C553 0.959 . S
H542 C556 0.929 . S
H543 C557 0.931 . S
H544 C559 0.930 . S
C545 H533 0.930 . S
C545 C546 1.399 . S
C545 C550 1.399 . S
C546 C545 1.399 . S
C546 C547 1.376 . S
C547 H534 0.930 . S
C547 C546 1.376 . S
C547 C548 1.388 . S
C548 H535 0.930 . S
C548 C547 1.388 . S
C548 C549 1.390 . S
C549 C548 1.390 . S
C549 C550 1.394 . S
C549 C555 1.465 . S
C550 C545 1.399 . S
C550 C549 1.394 . S
C550 C551 1.516 . S
C551 C550 1.516 . S
C551 C552 1.502 . S
C551 C553 1.561 . S
C551 C554 1.526 . S
C552 H536 0.959 . S
C552 H537 0.959 . S
C552 H538 0.961 . S
C552 C551 1.502 . S
C553 H539 0.960 . S
C553 H540 0.961 . S
C553 H541 0.959 . S
C553 C551 1.561 . S
C554 C551 1.526 . S
C554 C555 1.396 . S
C554 C559 1.390 . S
C555 C549 1.465 . S
C555 C554 1.396 . S
C555 C556 1.399 . S
C556 H542 0.929 . S
C556 C555 1.399 . S
C556 C557 1.385 . S
C557 H543 0.931 . S
C557 C556 1.385 . S
C557 C558 1.389 . S
C558 C557 1.389 . S
C558 C559 1.387 . S
C559 H544 0.930 . S
C559 C554 1.390 . S
C559 C558 1.387 . S
H560 C572 0.930 . S
H561 C574 0.930 . S
H562 C575 0.930 . S
H563 C579 0.959 . S
H564 C579 0.959 . S
H565 C579 0.961 . S
H566 C580 0.960 . S
H567 C580 0.961 . S
H568 C580 0.959 . S
H569 C583 0.929 . S
H570 C584 0.931 . S
H571 C586 0.930 . S
C572 H560 0.930 . S
C572 C573 1.399 . S
C572 C577 1.399 . S
C573 C572 1.399 . S
C573 C574 1.376 . S
C574 H561 0.930 . S
C574 C573 1.376 . S
C574 C575 1.388 . S
C575 H562 0.930 . S
C575 C574 1.388 . S
C575 C576 1.390 . S
C576 C575 1.390 . S
C576 C577 1.394 . S
C576 C582 1.465 . S
C577 C572 1.399 . S
C577 C576 1.394 . S
C577 C578 1.516 . S
C578 C577 1.516 . S
C578 C579 1.502 . S
C578 C580 1.561 . S
C578 C581 1.526 . S
C579 H563 0.959 . S
C579 H564 0.959 . S
C579 H565 0.961 . S
C579 C578 1.502 . S
C580 H566 0.960 . S
C580 H567 0.961 . S
C580 H568 0.959 . S
C580 C578 1.561 . S
C581 C578 1.526 . S
C581 C582 1.396 . S
C581 C586 1.390 . S
C582 C576 1.465 . S
C582 C581 1.396 . S
C582 C583 1.399 . S
C583 H569 0.929 . S
C583 C582 1.399 . S
C583 C584 1.385 . S
C584 H570 0.931 . S
C584 C583 1.385 . S
C584 C585 1.389 . S
C585 C584 1.389 . S
C585 C586 1.387 . S
C586 H571 0.930 . S
C586 C581 1.390 . S
C586 C585 1.387 . S
H587 C599 0.930 . S
H588 C601 0.930 . S
H589 C602 0.930 . S
H590 C606 0.959 . S
H591 C606 0.959 . S
H592 C606 0.961 . S
H593 C607 0.960 . S
H594 C607 0.961 . S
H595 C607 0.959 . S
H596 C610 0.929 . S
H597 C611 0.931 . S
H598 C613 0.930 . S
C599 H587 0.930 . S
C599 C600 1.399 . S
C599 C604 1.399 . S
C600 C599 1.399 . S
C600 C601 1.376 . S
C601 H588 0.930 . S
C601 C600 1.376 . S
C601 C602 1.388 . S
C602 H589 0.930 . S
C602 C601 1.388 . S
C602 C603 1.390 . S
C603 C602 1.390 . S
C603 C604 1.394 . S
C603 C609 1.465 . S
C604 C599 1.399 . S
C604 C603 1.394 . S
C604 C605 1.516 . S
C605 C604 1.516 . S
C605 C606 1.502 . S
C605 C607 1.561 . S
C605 C608 1.526 . S
C606 H590 0.959 . S
C606 H591 0.959 . S
C606 H592 0.961 . S
C606 C605 1.502 . S
C607 H593 0.960 . S
C607 H594 0.961 . S
C607 H595 0.959 . S
C607 C605 1.561 . S
C608 C605 1.526 . S
C608 C609 1.396 . S
C608 C613 1.390 . S
C609 C603 1.465 . S
C609 C608 1.396 . S
C609 C610 1.399 . S
C610 H596 0.929 . S
C610 C609 1.399 . S
C610 C611 1.385 . S
C611 H597 0.931 . S
C611 C610 1.385 . S
C611 C612 1.389 . S
C612 C611 1.389 . S
C612 C613 1.387 . S
C613 H598 0.930 . S
C613 C608 1.390 . S
C613 C612 1.387 . S
H614 C626 0.930 . S
H615 C628 0.930 . S
H616 C629 0.930 . S
H617 C633 0.959 . S
H618 C633 0.959 . S
H619 C633 0.961 . S
H620 C634 0.960 . S
H621 C634 0.961 . S
H622 C634 0.959 . S
H623 C637 0.929 . S
H624 C638 0.931 . S
H625 C640 0.930 . S
C626 H614 0.930 . S
C626 C627 1.399 . S
C626 C631 1.399 . S
C627 C626 1.399 . S
C627 C628 1.376 . S
C628 H615 0.930 . S
C628 C627 1.376 . S
C628 C629 1.388 . S
C629 H616 0.930 . S
C629 C628 1.388 . S
C629 C630 1.390 . S
C630 C629 1.390 . S
C630 C631 1.394 . S
C630 C636 1.465 . S
C631 C626 1.399 . S
C631 C630 1.394 . S
C631 C632 1.516 . S
C632 C631 1.516 . S
C632 C633 1.502 . S
C632 C634 1.561 . S
C632 C635 1.526 . S
C633 H617 0.959 . S
C633 H618 0.959 . S
C633 H619 0.961 . S
C633 C632 1.502 . S
C634 H620 0.960 . S
C634 H621 0.961 . S
C634 H622 0.959 . S
C634 C632 1.561 . S
C635 C632 1.526 . S
C635 C636 1.396 . S
C635 C640 1.390 . S
C636 C630 1.465 . S
C636 C635 1.396 . S
C636 C637 1.399 . S
C637 H623 0.929 . S
C637 C636 1.399 . S
C637 C638 1.385 . S
C638 H624 0.931 . S
C638 C637 1.385 . S
C638 C639 1.389 . S
C639 C638 1.389 . S
C639 C640 1.387 . S
C640 H625 0.930 . S
C640 C635 1.390 . S
C640 C639 1.387 . S
H641 C653 0.930 . S
H642 C655 0.930 . S
H643 C656 0.930 . S
H644 C660 0.959 . S
H645 C660 0.959 . S
H646 C660 0.961 . S
H647 C661 0.960 . S
H648 C661 0.961 . S
H649 C661 0.959 . S
H650 C664 0.929 . S
H651 C665 0.931 . S
H652 C667 0.930 . S
C653 H641 0.930 . S
C653 C654 1.399 . S
C653 C658 1.399 . S
C654 C653 1.399 . S
C654 C655 1.376 . S
C655 H642 0.930 . S
C655 C654 1.376 . S
C655 C656 1.388 . S
C656 H643 0.930 . S
C656 C655 1.388 . S
C656 C657 1.390 . S
C657 C656 1.390 . S
C657 C658 1.394 . S
C657 C663 1.465 . S
C658 C653 1.399 . S
C658 C657 1.394 . S
C658 C659 1.516 . S
C659 C658 1.516 . S
C659 C660 1.502 . S
C659 C661 1.561 . S
C659 C662 1.526 . S
C660 H644 0.959 . S
C660 H645 0.959 . S
C660 H646 0.961 . S
C660 C659 1.502 . S
C661 H647 0.960 . S
C661 H648 0.961 . S
C661 H649 0.959 . S
C661 C659 1.561 . S
C662 C659 1.526 . S
C662 C663 1.396 . S
C662 C667 1.390 . S
C663 C657 1.465 . S
C663 C662 1.396 . S
C663 C664 1.399 . S
C664 H650 0.929 . S
C664 C663 1.399 . S
C664 C665 1.385 . S
C665 H651 0.931 . S
C665 C664 1.385 . S
C665 C666 1.389 . S
C666 C665 1.389 . S
C666 C667 1.387 . S
C667 H652 0.930 . S
C667 C662 1.390 . S
C667 C666 1.387 . S
H668 C680 0.930 . S
H669 C682 0.930 . S
H670 C683 0.930 . S
H671 C687 0.959 . S
H672 C687 0.959 . S
H673 C687 0.961 . S
H674 C688 0.960 . S
H675 C688 0.961 . S
H676 C688 0.959 . S
H677 C691 0.929 . S
H678 C692 0.931 . S
H679 C694 0.930 . S
C680 H668 0.930 . S
C680 C681 1.399 . S
C680 C685 1.399 . S
C681 C680 1.399 . S
C681 C682 1.376 . S
C682 H669 0.930 . S
C682 C681 1.376 . S
C682 C683 1.388 . S
C683 H670 0.930 . S
C683 C682 1.388 . S
C683 C684 1.390 . S
C684 C683 1.390 . S
C684 C685 1.394 . S
C684 C690 1.465 . S
C685 C680 1.399 . S
C685 C684 1.394 . S
C685 C686 1.516 . S
C686 C685 1.516 . S
C686 C687 1.502 . S
C686 C688 1.561 . S
C686 C689 1.526 . S
C687 H671 0.959 . S
C687 H672 0.959 . S
C687 H673 0.961 . S
C687 C686 1.502 . S
C688 H674 0.960 . S
C688 H675 0.961 . S
C688 H676 0.959 . S
C688 C686 1.561 . S
C689 C686 1.526 . S
C689 C690 1.396 . S
C689 C694 1.390 . S
C690 C684 1.465 . S
C690 C689 1.396 . S
C690 C691 1.399 . S
C691 H677 0.929 . S
C691 C690 1.399 . S
C691 C692 1.385 . S
C692 H678 0.931 . S
C692 C691 1.385 . S
C692 C693 1.389 . S
C693 C692 1.389 . S
C693 C694 1.387 . S
C694 H679 0.930 . S
C694 C689 1.390 . S
C694 C693 1.387 . S
H695 C707 0.930 . S
H696 C709 0.930 . S
H697 C710 0.930 . S
H698 C714 0.959 . S
H699 C714 0.959 . S
H700 C714 0.961 . S
H701 C715 0.960 . S
H702 C715 0.961 . S
H703 C715 0.959 . S
H704 C718 0.929 . S
H705 C719 0.931 . S
H706 C721 0.930 . S
C707 H695 0.930 . S
C707 C708 1.399 . S
C707 C712 1.399 . S
C708 C707 1.399 . S
C708 C709 1.376 . S
C709 H696 0.930 . S
C709 C708 1.376 . S
C709 C710 1.388 . S
C710 H697 0.930 . S
C710 C709 1.388 . S
C710 C711 1.390 . S
C711 C710 1.390 . S
C711 C712 1.394 . S
C711 C717 1.465 . S
C712 C707 1.399 . S
C712 C711 1.394 . S
C712 C713 1.516 . S
C713 C712 1.516 . S
C713 C714 1.502 . S
C713 C715 1.561 . S
C713 C716 1.526 . S
C714 H698 0.959 . S
C714 H699 0.959 . S
C714 H700 0.961 . S
C714 C713 1.502 . S
C715 H701 0.960 . S
C715 H702 0.961 . S
C715 H703 0.959 . S
C715 C713 1.561 . S
C716 C713 1.526 . S
C716 C717 1.396 . S
C716 C721 1.390 . S
C717 C711 1.465 . S
C717 C716 1.396 . S
C717 C718 1.399 . S
C718 H704 0.929 . S
C718 C717 1.399 . S
C718 C719 1.385 . S
C719 H705 0.931 . S
C719 C718 1.385 . S
C719 C720 1.389 . S
C720 C719 1.389 . S
C720 C721 1.387 . S
C721 H706 0.930 . S
C721 C716 1.390 . S
C721 C720 1.387 . S
H722 C734 0.930 . S
H723 C736 0.930 . S
H724 C737 0.930 . S
H725 C741 0.959 . S
H726 C741 0.959 . S
H727 C741 0.961 . S
H728 C742 0.960 . S
H729 C742 0.961 . S
H730 C742 0.959 . S
H731 C745 0.929 . S
H732 C746 0.931 . S
H733 C748 0.930 . S
C734 H722 0.930 . S
C734 C735 1.399 . S
C734 C739 1.399 . S
C735 C734 1.399 . S
C735 C736 1.376 . S
C736 H723 0.930 . S
C736 C735 1.376 . S
C736 C737 1.388 . S
C737 H724 0.930 . S
C737 C736 1.388 . S
C737 C738 1.390 . S
C738 C737 1.390 . S
C738 C739 1.394 . S
C738 C744 1.465 . S
C739 C734 1.399 . S
C739 C738 1.394 . S
C739 C740 1.516 . S
C740 C739 1.516 . S
C740 C741 1.502 . S
C740 C742 1.561 . S
C740 C743 1.526 . S
C741 H725 0.959 . S
C741 H726 0.959 . S
C741 H727 0.961 . S
C741 C740 1.502 . S
C742 H728 0.960 . S
C742 H729 0.961 . S
C742 H730 0.959 . S
C742 C740 1.561 . S
C743 C740 1.526 . S
C743 C744 1.396 . S
C743 C748 1.390 . S
C744 C738 1.465 . S
C744 C743 1.396 . S
C744 C745 1.399 . S
C745 H731 0.929 . S
C745 C744 1.399 . S
C745 C746 1.385 . S
C746 H732 0.931 . S
C746 C745 1.385 . S
C746 C747 1.389 . S
C747 C746 1.389 . S
C747 C748 1.387 . S
C748 H733 0.930 . S
C748 C743 1.390 . S
C748 C747 1.387 . S
H749 C761 0.930 . S
H750 C763 0.930 . S
H751 C764 0.930 . S
H752 C768 0.959 . S
H753 C768 0.959 . S
H754 C768 0.961 . S
H755 C769 0.960 . S
H756 C769 0.961 . S
H757 C769 0.959 . S
H758 C772 0.929 . S
H759 C773 0.931 . S
H760 C775 0.930 . S
C761 H749 0.930 . S
C761 C762 1.399 . S
C761 C766 1.399 . S
C762 C761 1.399 . S
C762 C763 1.376 . S
C763 H750 0.930 . S
C763 C762 1.376 . S
C763 C764 1.388 . S
C764 H751 0.930 . S
C764 C763 1.388 . S
C764 C765 1.390 . S
C765 C764 1.390 . S
C765 C766 1.394 . S
C765 C771 1.465 . S
C766 C761 1.399 . S
C766 C765 1.394 . S
C766 C767 1.516 . S
C767 C766 1.516 . S
C767 C768 1.502 . S
C767 C769 1.561 . S
C767 C770 1.526 . S
C768 H752 0.959 . S
C768 H753 0.959 . S
C768 H754 0.961 . S
C768 C767 1.502 . S
C769 H755 0.960 . S
C769 H756 0.961 . S
C769 H757 0.959 . S
C769 C767 1.561 . S
C770 C767 1.526 . S
C770 C771 1.396 . S
C770 C775 1.390 . S
C771 C765 1.465 . S
C771 C770 1.396 . S
C771 C772 1.399 . S
C772 H758 0.929 . S
C772 C771 1.399 . S
C772 C773 1.385 . S
C773 H759 0.931 . S
C773 C772 1.385 . S
C773 C774 1.389 . S
C774 C773 1.389 . S
C774 C775 1.387 . S
C775 H760 0.930 . S
C775 C770 1.390 . S
C775 C774 1.387 . S
H776 C788 0.930 . S
H777 C790 0.930 . S
H778 C791 0.930 . S
H779 C795 0.959 . S
H780 C795 0.959 . S
H781 C795 0.961 . S
H782 C796 0.960 . S
H783 C796 0.961 . S
H784 C796 0.959 . S
H785 C799 0.929 . S
H786 C800 0.931 . S
H787 C802 0.930 . S
C788 H776 0.930 . S
C788 C789 1.399 1_556 S
C788 C793 1.399 . S
C789 C788 1.399 1_554 S
C789 C790 1.376 . S
C790 H777 0.930 . S
C790 C789 1.376 . S
C790 C791 1.388 . S
C791 H778 0.930 . S
C791 C790 1.388 . S
C791 C792 1.390 . S
C792 C791 1.390 . S
C792 C793 1.394 1_554 S
C792 C798 1.465 . S
C793 C788 1.399 . S
C793 C792 1.394 1_556 S
C793 C794 1.516 . S
C794 C793 1.516 . S
C794 C795 1.502 . S
C794 C796 1.561 . S
C794 C797 1.526 . S
C795 H779 0.959 . S
C795 H780 0.959 . S
C795 H781 0.961 . S
C795 C794 1.502 . S
C796 H782 0.960 . S
C796 H783 0.961 . S
C796 H784 0.959 . S
C796 C794 1.561 . S
C797 C794 1.526 . S
C797 C798 1.396 1_556 S
C797 C802 1.390 . S
C798 C792 1.465 . S
C798 C797 1.396 1_554 S
C798 C799 1.399 . S
C799 H785 0.929 . S
C799 C798 1.399 . S
C799 C800 1.385 . S
C800 H786 0.931 . S
C800 C799 1.385 . S
C800 C801 1.389 . S
C801 C800 1.389 . S
C801 C802 1.387 1_554 S
C802 H787 0.930 . S
C802 C797 1.390 . S
C802 C801 1.387 1_556 S
H803 C815 0.930 . S
H804 C817 0.930 . S
H805 C818 0.930 . S
H806 C822 0.959 . S
H807 C822 0.959 . S
H808 C822 0.961 . S
H809 C823 0.960 . S
H810 C823 0.961 . S
H811 C823 0.959 . S
H812 C826 0.929 . S
H813 C827 0.931 . S
H814 C829 0.930 . S
C815 H803 0.930 . S
C815 C816 1.399 . S
C815 C820 1.399 . S
C816 C815 1.399 . S
C816 C817 1.376 . S
C817 H804 0.930 . S
C817 C816 1.376 . S
C817 C818 1.388 . S
C818 H805 0.930 . S
C818 C817 1.388 . S
C818 C819 1.390 . S
C819 C818 1.390 . S
C819 C820 1.394 . S
C819 C825 1.465 . S
C820 C815 1.399 . S
C820 C819 1.394 . S
C820 C821 1.516 . S
C821 C820 1.516 . S
C821 C822 1.502 . S
C821 C823 1.561 . S
C821 C824 1.526 . S
C822 H806 0.959 . S
C822 H807 0.959 . S
C822 H808 0.961 . S
C822 C821 1.502 . S
C823 H809 0.960 . S
C823 H810 0.961 . S
C823 H811 0.959 . S
C823 C821 1.561 . S
C824 C821 1.526 . S
C824 C825 1.396 . S
C824 C829 1.390 . S
C825 C819 1.465 . S
C825 C824 1.396 . S
C825 C826 1.399 . S
C826 H812 0.929 . S
C826 C825 1.399 . S
C826 C827 1.385 . S
C827 H813 0.931 . S
C827 C826 1.385 . S
C827 C828 1.389 . S
C828 C827 1.389 . S
C828 C829 1.387 . S
C829 H814 0.930 . S
C829 C824 1.390 . S
C829 C828 1.387 . S
H830 C842 0.930 . S
H831 C844 0.930 . S
H832 C845 0.930 . S
H833 C849 0.959 . S
H834 C849 0.959 . S
H835 C849 0.961 . S
H836 C850 0.960 . S
H837 C850 0.961 . S
H838 C850 0.959 . S
H839 C853 0.929 . S
H840 C854 0.931 . S
H841 C856 0.930 . S
C842 H830 0.930 . S
C842 C843 1.399 1_556 S
C842 C847 1.399 . S
C843 C842 1.399 1_554 S
C843 C844 1.376 . S
C844 H831 0.930 . S
C844 C843 1.376 . S
C844 C845 1.388 . S
C845 H832 0.930 . S
C845 C844 1.388 . S
C845 C846 1.390 . S
C846 C845 1.390 . S
C846 C847 1.394 1_554 S
C846 C852 1.465 . S
C847 C842 1.399 . S
C847 C846 1.394 1_556 S
C847 C848 1.516 . S
C848 C847 1.516 . S
C848 C849 1.502 . S
C848 C850 1.561 . S
C848 C851 1.526 . S
C849 H833 0.959 . S
C849 H834 0.959 . S
C849 H835 0.961 . S
C849 C848 1.502 . S
C850 H836 0.960 . S
C850 H837 0.961 . S
C850 H838 0.959 . S
C850 C848 1.561 . S
C851 C848 1.526 . S
C851 C852 1.396 1_556 S
C851 C856 1.390 . S
C852 C846 1.465 . S
C852 C851 1.396 1_554 S
C852 C853 1.399 . S
C853 H839 0.929 . S
C853 C852 1.399 . S
C853 C854 1.385 . S
C854 H840 0.931 . S
C854 C853 1.385 . S
C854 C855 1.389 . S
C855 C854 1.389 . S
C855 C856 1.387 1_554 S
C856 H841 0.930 . S
C856 C851 1.390 . S
C856 C855 1.387 1_556 S
H857 C869 0.930 . S
H858 C871 0.930 . S
H859 C872 0.930 . S
H860 C876 0.959 . S
H861 C876 0.959 . S
H862 C876 0.961 . S
H863 C877 0.960 . S
H864 C877 0.961 . S
H865 C877 0.959 . S
H866 C880 0.929 . S
H867 C881 0.931 . S
H868 C883 0.930 . S
C869 H857 0.930 . S
C869 C870 1.399 . S
C869 C874 1.399 . S
C870 C869 1.399 . S
C870 C871 1.376 . S
C871 H858 0.930 . S
C871 C870 1.376 . S
C871 C872 1.388 . S
C872 H859 0.930 . S
C872 C871 1.388 . S
C872 C873 1.390 . S
C873 C872 1.390 . S
C873 C874 1.394 . S
C873 C879 1.465 . S
C874 C869 1.399 . S
C874 C873 1.394 . S
C874 C875 1.516 . S
C875 C874 1.516 . S
C875 C876 1.502 . S
C875 C877 1.561 . S
C875 C878 1.526 . S
C876 H860 0.959 . S
C876 H861 0.959 . S
C876 H862 0.961 . S
C876 C875 1.502 . S
C877 H863 0.960 . S
C877 H864 0.961 . S
C877 H865 0.959 . S
C877 C875 1.561 . S
C878 C875 1.526 . S
C878 C879 1.396 . S
C878 C883 1.390 . S
C879 C873 1.465 . S
C879 C878 1.396 . S
C879 C880 1.399 . S
C880 H866 0.929 . S
C880 C879 1.399 . S
C880 C881 1.385 . S
C881 H867 0.931 . S
C881 C880 1.385 . S
C881 C882 1.389 . S
C882 C881 1.389 . S
C882 C883 1.387 . S
C883 H868 0.930 . S
C883 C878 1.390 . S
C883 C882 1.387 . S
H884 C896 0.930 . S
H885 C898 0.930 . S
H886 C899 0.930 . S
H887 C903 0.959 . S
H888 C903 0.959 . S
H889 C903 0.961 . S
H890 C904 0.960 . S
H891 C904 0.961 . S
H892 C904 0.959 . S
H893 C907 0.929 . S
H894 C908 0.931 . S
H895 C910 0.930 . S
C896 H884 0.930 . S
C896 C897 1.399 . S
C896 C901 1.399 . S
C897 C896 1.399 . S
C897 C898 1.376 . S
C898 H885 0.930 . S
C898 C897 1.376 . S
C898 C899 1.388 . S
C899 H886 0.930 . S
C899 C898 1.388 . S
C899 C900 1.390 . S
C900 C899 1.390 . S
C900 C901 1.394 . S
C900 C906 1.465 . S
C901 C896 1.399 . S
C901 C900 1.394 . S
C901 C902 1.516 . S
C902 C901 1.516 . S
C902 C903 1.502 . S
C902 C904 1.561 . S
C902 C905 1.526 . S
C903 H887 0.959 . S
C903 H888 0.959 . S
C903 H889 0.961 . S
C903 C902 1.502 . S
C904 H890 0.960 . S
C904 H891 0.961 . S
C904 H892 0.959 . S
C904 C902 1.561 . S
C905 C902 1.526 . S
C905 C906 1.396 . S
C905 C910 1.390 . S
C906 C900 1.465 . S
C906 C905 1.396 . S
C906 C907 1.399 . S
C907 H893 0.929 . S
C907 C906 1.399 . S
C907 C908 1.385 . S
C908 H894 0.931 . S
C908 C907 1.385 . S
C908 C909 1.389 . S
C909 C908 1.389 . S
C909 C910 1.387 . S
C910 H895 0.930 . S
C910 C905 1.390 . S
C910 C909 1.387 . S
H911 C923 0.930 . S
H912 C925 0.930 . S
H913 C926 0.930 . S
H914 C930 0.959 . S
H915 C930 0.959 . S
H916 C930 0.961 . S
H917 C931 0.960 . S
H918 C931 0.961 . S
H919 C931 0.959 . S
H920 C934 0.929 . S
H921 C935 0.931 . S
H922 C937 0.930 . S
C923 H911 0.930 . S
C923 C924 1.399 1_556 S
C923 C928 1.399 . S
C924 C923 1.399 1_554 S
C924 C925 1.376 . S
C925 H912 0.930 . S
C925 C924 1.376 . S
C925 C926 1.388 . S
C926 H913 0.930 . S
C926 C925 1.388 . S
C926 C927 1.390 . S
C927 C926 1.390 . S
C927 C928 1.394 1_554 S
C927 C933 1.465 . S
C928 C923 1.399 . S
C928 C927 1.394 1_556 S
C928 C929 1.516 . S
C929 C928 1.516 . S
C929 C930 1.502 . S
C929 C931 1.561 . S
C929 C932 1.526 . S
C930 H914 0.959 . S
C930 H915 0.959 . S
C930 H916 0.961 . S
C930 C929 1.502 . S
C931 H917 0.960 . S
C931 H918 0.961 . S
C931 H919 0.959 . S
C931 C929 1.561 . S
C932 C929 1.526 . S
C932 C933 1.396 1_556 S
C932 C937 1.390 . S
C933 C927 1.465 . S
C933 C932 1.396 1_554 S
C933 C934 1.399 . S
C934 H920 0.929 . S
C934 C933 1.399 . S
C934 C935 1.385 . S
C935 H921 0.931 . S
C935 C934 1.385 . S
C935 C936 1.389 . S
C936 C935 1.389 . S
C936 C937 1.387 1_554 S
C937 H922 0.930 . S
C937 C932 1.390 . S
C937 C936 1.387 1_556 S
H938 C950 0.930 . S
H939 C952 0.930 . S
H940 C953 0.930 . S
H941 C957 0.959 . S
H942 C957 0.959 . S
H943 C957 0.961 . S
H944 C958 0.960 . S
H945 C958 0.961 . S
H946 C958 0.959 . S
H947 C961 0.929 . S
H948 C962 0.931 . S
H949 C964 0.930 . S
C950 H938 0.930 . S
C950 C951 1.399 . S
C950 C955 1.399 . S
C951 C950 1.399 . S
C951 C952 1.376 . S
C952 H939 0.930 . S
C952 C951 1.376 . S
C952 C953 1.388 . S
C953 H940 0.930 . S
C953 C952 1.388 . S
C953 C954 1.390 . S
C954 C953 1.390 . S
C954 C955 1.394 . S
C954 C960 1.465 . S
C955 C950 1.399 . S
C955 C954 1.394 . S
C955 C956 1.516 . S
C956 C955 1.516 . S
C956 C957 1.502 . S
C956 C958 1.561 . S
C956 C959 1.526 . S
C957 H941 0.959 . S
C957 H942 0.959 . S
C957 H943 0.961 . S
C957 C956 1.502 . S
C958 H944 0.960 . S
C958 H945 0.961 . S
C958 H946 0.959 . S
C958 C956 1.561 . S
C959 C956 1.526 . S
C959 C960 1.396 . S
C959 C964 1.390 . S
C960 C954 1.465 . S
C960 C959 1.396 . S
C960 C961 1.399 . S
C961 H947 0.929 . S
C961 C960 1.399 . S
C961 C962 1.385 . S
C962 H948 0.931 . S
C962 C961 1.385 . S
C962 C963 1.389 . S
C963 C962 1.389 . S
C963 C964 1.387 . S
C964 H949 0.930 . S
C964 C959 1.390 . S
C964 C963 1.387 . S
H965 C977 0.930 . S
H966 C979 0.930 . S
H967 C980 0.930 . S
H968 C984 0.959 . S
H969 C984 0.959 . S
H970 C984 0.961 . S
H971 C985 0.960 . S
H972 C985 0.961 . S
H973 C985 0.959 . S
H974 C988 0.929 . S
H975 C989 0.931 . S
H976 C991 0.930 . S
C977 H965 0.930 . S
C977 C978 1.399 . S
C977 C982 1.399 . S
C978 C977 1.399 . S
C978 C979 1.376 1_554 S
C979 H966 0.930 . S
C979 C978 1.376 1_556 S
C979 C980 1.388 . S
C980 H967 0.930 . S
C980 C979 1.388 . S
C980 C981 1.390 . S
C981 C980 1.390 . S
C981 C982 1.394 1_556 S
C981 C987 1.465 . S
C982 C977 1.399 . S
C982 C981 1.394 1_554 S
C982 C983 1.516 . S
C983 C982 1.516 . S
C983 C984 1.502 . S
C983 C985 1.561 . S
C983 C986 1.526 . S
C984 H968 0.959 . S
C984 H969 0.959 . S
C984 H970 0.961 . S
C984 C983 1.502 . S
C985 H971 0.960 . S
C985 H972 0.961 . S
C985 H973 0.959 . S
C985 C983 1.561 . S
C986 C983 1.526 . S
C986 C987 1.396 1_554 S
C986 C991 1.390 . S
C987 C981 1.465 . S
C987 C986 1.396 1_556 S
C987 C988 1.399 . S
C988 H974 0.929 . S
C988 C987 1.399 . S
C988 C989 1.385 . S
C989 H975 0.931 . S
C989 C988 1.385 . S
C989 C990 1.389 1_556 S
C990 C989 1.389 1_554 S
C990 C991 1.387 . S
C991 H976 0.930 . S
C991 C986 1.390 . S
C991 C990 1.387 . S
C357 C21 1.556 . S
C369 C201 1.534 . S
C384 C40 1.649 . S
C396 C117 1.545 . S
C423 C149 1.539 . S
C411 C54 1.534 . S
C438 C73 1.682 . S
C450 C169 1.685 . S
C477 C277 1.539 . S
C465 C74 1.531 . S
C504 C297 1.646 . S
C492 C10 1.644 . S
C531 C329 1.450 . S
C519 C37 1.544 . S
C558 C245 1.508 . S
C546 C65 1.667 . S
C573 C52 1.518 . S
C585 C137 1.535 . S
C600 C87 1.685 . S
C612 C181 1.690 . S
C627 C15 1.540 . S
C639 C213 1.510 . S
C666 C105 1.532 . S
C654 C32 1.624 . S
C681 C29 1.589 . S
C693 C341 1.459 . S
C720 C233 1.556 . S
C708 C59 1.685 . S
C747 C265 1.534 . S
C735 C84 1.539 . S
C762 C8 1.631 . S
C774 C309 1.638 . S
C801 C111 1.642 . S
C789 C7 1.755 . S
C828 C143 1.631 . S
C816 C30 1.637 . S
C843 C62 1.762 . S
C855 C175 1.771 . S
C870 C81 1.590 . S
C882 C207 1.557 . S
C909 C239 1.609 . S
C897 C76 1.771 . S
C924 C18 1.613 . S
C936 C271 1.635 . S
C951 C43 1.752 . S
C963 C303 1.756 . S
C978 C51 1.630 . S
C990 C335 1.504 . S
