# Generated by pormake.
# Topology anh, (6,3)-cn, num edge types: 1
# Building blocks:
#     Node 0, Type 0, BuildingBlock: MIFKUJ_clean_sbu_0, # of connection points: 6
#     Node 1, Type 0, BuildingBlock: MIFKUJ_clean_sbu_0, # of connection points: 6
#     Node 2, Type 0, BuildingBlock: MIFKUJ_clean_sbu_0, # of connection points: 6
#     Node 3, Type 1, BuildingBlock: BELTOD_clean_linker_0, # of connection points: 3
#     Node 4, Type 1, BuildingBlock: BELTOD_clean_linker_0, # of connection points: 3
#     Node 5, Type 1, BuildingBlock: BELTOD_clean_linker_0, # of connection points: 3
#     Node 6, Type 1, BuildingBlock: BELTOD_clean_linker_0, # of connection points: 3
#     Node 7, Type 1, BuildingBlock: BELTOD_clean_linker_0, # of connection points: 3
#     Node 8, Type 1, BuildingBlock: BELTOD_clean_linker_0, # of connection points: 3
#     Edge 9, Type (0, 1), BuildingBlock: XIVTED_clean_linker_0, # of connection points: 2
#     Edge 10, Type (0, 1), BuildingBlock: XIVTED_clean_linker_0, # of connection points: 2
#     Edge 11, Type (0, 1), BuildingBlock: XIVTED_clean_linker_0, # of connection points: 2
#     Edge 12, Type (0, 1), BuildingBlock: XIVTED_clean_linker_0, # of connection points: 2
#     Edge 13, Type (0, 1), BuildingBlock: XIVTED_clean_linker_0, # of connection points: 2
#     Edge 14, Type (0, 1), BuildingBlock: XIVTED_clean_linker_0, # of connection points: 2
#     Edge 15, Type (0, 1), BuildingBlock: XIVTED_clean_linker_0, # of connection points: 2
#     Edge 16, Type (0, 1), BuildingBlock: XIVTED_clean_linker_0, # of connection points: 2
#     Edge 17, Type (0, 1), BuildingBlock: XIVTED_clean_linker_0, # of connection points: 2
#     Edge 18, Type (0, 1), BuildingBlock: XIVTED_clean_linker_0, # of connection points: 2
#     Edge 19, Type (0, 1), BuildingBlock: XIVTED_clean_linker_0, # of connection points: 2
#     Edge 20, Type (0, 1), BuildingBlock: XIVTED_clean_linker_0, # of connection points: 2
#     Edge 21, Type (0, 1), BuildingBlock: XIVTED_clean_linker_0, # of connection points: 2
#     Edge 22, Type (0, 1), BuildingBlock: XIVTED_clean_linker_0, # of connection points: 2
#     Edge 23, Type (0, 1), BuildingBlock: XIVTED_clean_linker_0, # of connection points: 2
#     Edge 24, Type (0, 1), BuildingBlock: XIVTED_clean_linker_0, # of connection points: 2
#     Edge 25, Type (0, 1), BuildingBlock: XIVTED_clean_linker_0, # of connection points: 2
#     Edge 26, Type (0, 1), BuildingBlock: XIVTED_clean_linker_0, # of connection points: 2
# Relax obj value: 0.123
# Max RMSD: 0.177
# Mean RMSD: 0.136
data_MOF--net-anh--node1-MIFKUJ_clean_sbu_0--node2-BELTOD_clean_linker_0--edge1-XIVTED_clean_linker_0
_symmetry_space_group_name_H-M    P1
_symmetry_Int_Tables_number       1
_symmetry_cell_setting            triclinic
loop_
_symmetry_equiv_pos_as_xyz
'x, y, z'
_cell_length_a     34.836288
_cell_length_b     34.777669
_cell_length_c     58.270079
_cell_angle_alpha  94.030735
_cell_angle_beta   90.671487
_cell_angle_gamma 119.91822
loop_
_atom_site_label
_atom_site_type_symbol
_atom_site_fract_x
_atom_site_fract_y
_atom_site_fract_z
_atom_type_partial_charge
Zn0 Zn 0.04313 0.58667 0.17172 0.0
Zn1 Zn 0.93569 0.48783 0.15954 0.0
C2 C 0.1256 0.59164 0.164 0.0
O3 O 0.12704 0.62121 0.15067 0.0
C4 C 0.89486 0.54388 0.15627 0.0
O5 O 0.91848 0.5577 0.13811 0.0
O6 O 0.07427 0.65344 0.17654 0.0
O7 O 0.02269 0.56838 0.13837 0.0
O8 O 0.96086 0.50466 0.12868 0.0
C9 C 0.08097 0.67871 0.16049 0.0
O10 O 0.06345 0.66099 0.13968 0.0
O11 O 0.09162 0.57095 0.1757 0.0
C12 C 0.86917 0.41026 0.17463 0.0
O13 O 0.87935 0.43966 0.19243 0.0
O14 O 0.89 0.42289 0.15639 0.0
O15 O 0.97655 0.4921 0.1857 0.0
O16 O 1.00099 0.56219 0.19725 0.0
O17 O 0.89977 0.51753 0.16846 0.0
C18 C 0.9951 0.53942 0.12319 0.0
C19 C 0.98899 0.52281 0.2019 0.0
Zn20 Zn 0.52164 0.05772 0.50102 0.0
Zn21 Zn 0.51525 0.95197 0.50068 0.0
C22 C 0.61942 0.11038 0.50865 0.0
O23 O 0.61324 0.08962 0.52742 0.0
C24 C 0.43903 0.88477 0.47318 0.0
O25 O 0.47036 0.8898 0.45929 0.0
O26 O 0.4944 0.09638 0.50094 0.0
O27 O 0.49447 0.01266 0.47325 0.0
O28 O 0.54519 0.99342 0.47618 0.0
C29 C 0.49691 0.11631 0.48309 0.0
O30 O 0.51312 0.10719 0.46458 0.0
O31 O 0.58621 0.1007 0.49521 0.0
C32 C 0.52167 0.87335 0.50498 0.0
O33 O 0.47962 0.85575 0.5094 0.0
O34 O 0.54379 0.9141 0.50109 0.0
O35 O 0.52164 0.9776 0.53316 0.0
O36 O 0.51758 0.03921 0.53349 0.0
O37 O 0.44978 0.91012 0.49178 0.0
C38 C 0.52025 0.00122 0.46372 0.0
C39 C 0.52008 0.00968 0.54403 0.0
Zn40 Zn 0.56075 0.52566 0.83814 0.0
Zn41 Zn 0.46539 0.51394 0.82681 0.0
C42 C 0.53777 0.43782 0.84755 0.0
O43 O 0.55624 0.46018 0.8675 0.0
C44 C 0.4758 0.59597 0.81447 0.0
O45 O 0.45095 0.56815 0.797 0.0
O46 O 0.62534 0.54655 0.84395 0.0
O47 O 0.55733 0.55482 0.81031 0.0
O48 O 0.49129 0.49995 0.79866 0.0
C49 C 0.64853 0.54922 0.82681 0.0
O50 O 0.63002 0.53957 0.80589 0.0
O51 O 0.53311 0.45845 0.83149 0.0
C52 C 0.36902 0.45798 0.8291 0.0
O53 O 0.37831 0.43769 0.84457 0.0
O54 O 0.40038 0.48861 0.81905 0.0
O55 O 0.46923 0.49237 0.85788 0.0
O56 O 0.53945 0.54026 0.86743 0.0
O57 O 0.48904 0.58113 0.83031 0.0
C58 C 0.52958 0.53037 0.794 0.0
C59 C 0.50033 0.51455 0.87323 0.0
P60 P 0.52912 0.9571 0.21261 0.0
H61 H 0.47099 0.89837 0.17351 0.0
H62 H 0.39345 0.87207 0.16241 0.0
H63 H 0.38901 0.9581 0.21836 0.0
H64 H 0.46578 0.98258 0.22991 0.0
H65 H 0.61595 0.99174 0.19267 0.0
H66 H 0.67162 0.06668 0.18369 0.0
H67 H 0.58278 0.11477 0.20343 0.0
H68 H 0.5281 0.04057 0.21278 0.0
H69 H 0.46765 0.9001 0.24515 0.0
H70 H 0.59662 0.01874 0.24832 0.0
O71 O 0.54129 0.91871 0.20224 0.0
H72 H 0.46749 0.90613 0.28722 0.0
H73 H 0.59665 0.02479 0.29035 0.0
C74 C 0.47379 0.94173 0.20275 0.0
C75 C 0.45335 0.91172 0.18327 0.0
C76 C 0.40913 0.89713 0.1768 0.0
C77 C 0.38485 0.91276 0.18961 0.0
C78 C 0.40645 0.94481 0.20836 0.0
C79 C 0.45046 0.95903 0.2149 0.0
C80 C 0.56763 0.01043 0.2031 0.0
C81 C 0.60824 0.0183 0.19469 0.0
C82 C 0.63996 0.06107 0.18951 0.0
C83 C 0.63158 0.09658 0.19293 0.0
C84 C 0.59039 0.08818 0.20086 0.0
C85 C 0.55885 0.04556 0.20601 0.0
C86 C 0.53159 0.95959 0.24359 0.0
C87 C 0.49595 0.9274 0.25489 0.0
C88 C 0.49581 0.93094 0.2789 0.0
C89 C 0.5318 0.96625 0.29202 0.0
C90 C 0.56846 0.99724 0.28067 0.0
C91 C 0.56834 0.99392 0.25662 0.0
P92 P 0.66677 0.56896 0.55647 0.0
H93 H 0.683 0.51524 0.5214 0.0
H94 H 0.63759 0.43851 0.50462 0.0
H95 H 0.52876 0.42437 0.54515 0.0
H96 H 0.57486 0.50034 0.56238 0.0
H97 H 0.72452 0.66129 0.54646 0.0
H98 H 0.70955 0.71496 0.52935 0.0
H99 H 0.57126 0.61355 0.51801 0.0
H100 H 0.58708 0.56013 0.53383 0.0
H101 H 0.69976 0.55207 0.59861 0.0
H102 H 0.60227 0.58761 0.57935 0.0
O103 O 0.72009 0.58329 0.5554 0.0
H104 H 0.67668 0.54737 0.63835 0.0
H105 H 0.57907 0.58278 0.61884 0.0
C106 C 0.63271 0.51305 0.54355 0.0
C107 C 0.64942 0.49551 0.5267 0.0
C108 C 0.62316 0.4518 0.51691 0.0
C109 C 0.57952 0.42515 0.52363 0.0
C110 C 0.56246 0.44363 0.53992 0.0
C111 C 0.58885 0.48715 0.5498 0.0
C112 C 0.65704 0.60664 0.5412 0.0
C113 C 0.69124 0.65049 0.53975 0.0
C114 C 0.6825 0.68125 0.53016 0.0
C115 C 0.63913 0.66877 0.52231 0.0
C116 C 0.60526 0.62433 0.52334 0.0
C117 C 0.61421 0.59359 0.53258 0.0
C118 C 0.65337 0.57099 0.5861 0.0
C119 C 0.67396 0.55961 0.603 0.0
C120 C 0.66071 0.55686 0.62566 0.0
C121 C 0.62604 0.56467 0.63164 0.0
C122 C 0.60564 0.57627 0.61467 0.0
C123 C 0.61924 0.57947 0.5921 0.0
P124 P 0.09054 0.63007 0.88232 0.0
H125 H 0.15701 0.64435 0.84885 0.0
H126 H 0.18664 0.59816 0.83325 0.0
H127 H 0.09282 0.48954 0.87063 0.0
H128 H 0.06456 0.53646 0.88675 0.0
H129 H 0.05708 0.68999 0.87412 0.0
H130 H 0.98431 0.67627 0.86029 0.0
H131 H 0.94061 0.53655 0.84623 0.0
H132 H 0.01362 0.55048 0.85949 0.0
H133 H 0.14138 0.67593 0.92572 0.0
H134 H 0.01489 0.56056 0.90433 0.0
O135 O 0.13017 0.68303 0.88109 0.0
H136 H 0.12589 0.66177 0.96596 0.0
H137 H 1.00019 0.54471 0.94418 0.0
C138 C 0.10935 0.59429 0.86941 0.0
C139 C 0.14278 0.61057 0.85366 0.0
C140 C 0.15933 0.58386 0.84453 0.0
C141 C 0.14229 0.54012 0.85079 0.0
C142 C 0.10729 0.52331 0.86578 0.0
C143 C 0.09102 0.55019 0.87501 0.0
C144 C 0.04089 0.62135 0.86762 0.0
C145 C 0.03231 0.65665 0.8674 0.0
C146 C 0.9908 0.64882 0.85953 0.0
C147 C 0.95705 0.60537 0.8523 0.0
C148 C 0.96619 0.57032 0.85178 0.0
C149 C 0.00794 0.57832 0.85926 0.0
C150 C 0.07913 0.61964 0.912 0.0
C151 C 0.11032 0.64748 0.92966 0.0
C152 C 0.10155 0.63904 0.95269 0.0
C153 C 0.06166 0.60208 0.95844 0.0
C154 C 0.03079 0.57402 0.94055 0.0
C155 C 0.03934 0.5829 0.91762 0.0
P156 P 0.05355 0.443 0.4387 0.0
H157 H 0.13747 0.48063 0.46563 0.0
H158 H 0.19738 0.55717 0.47426 0.0
H159 H 0.11367 0.60526 0.44876 0.0
H160 H 0.05344 0.52819 0.43997 0.0
H161 H 0.00997 0.35071 0.44933 0.0
H162 H 0.93936 0.30195 0.46518 0.0
H163 H 0.91467 0.4117 0.47575 0.0
H164 H 0.98683 0.46131 0.4602 0.0
H165 H 0.09024 0.43597 0.39489 0.0
H166 H 0.98703 0.46114 0.41815 0.0
O167 O 0.08169 0.41567 0.43733 0.0
H168 H 0.07455 0.44546 0.35542 0.0
H169 H 0.97145 0.47101 0.37866 0.0
C170 C 0.09114 0.4985 0.45169 0.0
C171 C 0.13141 0.50745 0.46233 0.0
C172 C 0.16581 0.55129 0.46718 0.0
C173 C 0.16047 0.58712 0.46174 0.0
C174 C 0.11874 0.57826 0.45306 0.0
C175 C 0.0843 0.53418 0.44802 0.0
C176 C 0.00405 0.4099 0.45373 0.0
C177 C 0.99009 0.36484 0.45551 0.0
C178 C 0.94952 0.3368 0.46461 0.0
C179 C 0.92143 0.35293 0.47177 0.0
C180 C 0.93559 0.3983 0.47028 0.0
C181 C 0.97682 0.42668 0.46148 0.0
C182 C 0.03931 0.44704 0.40948 0.0
C183 C 0.06378 0.44292 0.39151 0.0
C184 C 0.05478 0.44833 0.36893 0.0
C185 C 0.02163 0.45876 0.36396 0.0
C186 C 0.99729 0.46312 0.38201 0.0
C187 C 0.00599 0.45718 0.40458 0.0
P188 P 0.58583 0.05462 0.79572 0.0
H189 H 0.60771 0.11643 0.83674 0.0
H190 H 0.58547 0.17116 0.84781 0.0
H191 H 0.48492 0.11495 0.79199 0.0
H192 H 0.50786 0.06059 0.78086 0.0
H193 H 0.63656 0.01202 0.80678 0.0
H194 H 0.61544 0.93692 0.81567 0.0
H195 H 0.47838 0.90379 0.81679 0.0
H196 H 0.5001 0.97992 0.80793 0.0
H197 H 0.62173 0.11643 0.76031 0.0
H198 H 0.52707 0.97694 0.76319 0.0
O199 O 0.64042 0.08745 0.80105 0.0
H200 H 0.60849 0.10818 0.71848 0.0
H201 H 0.51309 0.96862 0.7216 0.0
C202 C 0.56 0.08487 0.80777 0.0
C203 C 0.58013 0.11513 0.82723 0.0
C204 C 0.56728 0.14649 0.83356 0.0
C205 C 0.53386 0.14811 0.82055 0.0
C206 C 0.51145 0.11538 0.80208 0.0
C207 C 0.5243 0.08395 0.79582 0.0
C208 C 0.57001 0.0019 0.80703 0.0
C209 C 0.60208 0.98914 0.80957 0.0
C210 C 0.58994 0.94599 0.81468 0.0
C211 C 0.54521 0.91421 0.81697 0.0
C212 C 0.51312 0.92741 0.81503 0.0
C213 C 0.52548 0.97098 0.81019 0.0
C214 C 0.57614 0.0472 0.76485 0.0
C215 C 0.59825 0.08399 0.75193 0.0
C216 C 0.5903 0.07931 0.72805 0.0
C217 C 0.55984 0.03767 0.71667 0.0
C218 C 0.53732 0.00098 0.72977 0.0
C219 C 0.54526 0.00574 0.75365 0.0
P220 P 0.45402 0.45955 0.11947 0.0
H221 H 0.49765 0.48232 0.16574 0.0
H222 H 0.57524 0.51185 0.1791 0.0
H223 H 0.6137 0.52784 0.10863 0.0
H224 H 0.53733 0.49901 0.09561 0.0
H225 H 0.36076 0.41271 0.12904 0.0
H226 H 0.31043 0.43778 0.14274 0.0
H227 H 0.42051 0.57258 0.15381 0.0
H228 H 0.47081 0.54699 0.13972 0.0
H229 H 0.43231 0.39722 0.07829 0.0
H230 H 0.46896 0.53471 0.09398 0.0
O231 O 0.43405 0.40594 0.12348 0.0
H232 H 0.43492 0.40732 0.03714 0.0
H233 H 0.47123 0.54497 0.05283 0.0
C234 C 0.51155 0.48915 0.12974 0.0
C235 C 0.52307 0.49327 0.15329 0.0
C236 C 0.56736 0.5098 0.16087 0.0
C237 C 0.60085 0.52243 0.14495 0.0
C238 C 0.58913 0.51941 0.12146 0.0
C239 C 0.54505 0.50273 0.11394 0.0
C240 C 0.41963 0.47785 0.13376 0.0
C241 C 0.3743 0.44749 0.13496 0.0
C242 C 0.34549 0.46191 0.14285 0.0
C243 C 0.36135 0.50721 0.14945 0.0
C244 C 0.40713 0.53749 0.14872 0.0
C245 C 0.43601 0.5229 0.14087 0.0
C246 C 0.45002 0.46512 0.08917 0.0
C247 C 0.44009 0.42936 0.07288 0.0
C248 C 0.44149 0.43515 0.04934 0.0
C249 C 0.45337 0.47698 0.04173 0.0
C250 C 0.46236 0.51247 0.05816 0.0
C251 C 0.46068 0.50655 0.08167 0.0
H252 H 0.20504 0.63621 0.14423 0.0
H253 H 0.28761 0.46773 0.17515 0.0
H254 H 0.13075 0.52548 0.18491 0.0
H255 H 0.36204 0.58199 0.13675 0.0
H256 H 0.23177 0.49013 0.18092 0.0
H257 H 0.26453 0.61871 0.14334 0.0
C258 C 0.20124 0.60822 0.15307 0.0
C259 C 0.16261 0.58211 0.16455 0.0
C260 C 0.26051 0.51049 0.17141 0.0
C261 C 0.23098 0.5617 0.16353 0.0
C262 C 0.29237 0.49766 0.16803 0.0
C263 C 0.32958 0.52287 0.15533 0.0
C264 C 0.26571 0.54874 0.16193 0.0
C265 C 0.33424 0.5617 0.14684 0.0
C266 C 0.23537 0.59827 0.15257 0.0
C267 C 0.15986 0.54645 0.1758 0.0
N268 N 0.30257 0.5732 0.15014 0.0
N269 N 0.19347 0.53711 0.17488 0.0
H270 H 0.69892 0.13431 0.53097 0.0
H271 H 0.84138 0.3444 0.45884 0.0
H272 H 0.64216 0.17003 0.47585 0.0
H273 H 0.8997 0.28909 0.50197 0.0
H274 H 0.76749 0.28661 0.46854 0.0
H275 H 0.7722 0.19587 0.52367 0.0
C276 C 0.70183 0.15502 0.5173 0.0
C277 C 0.66427 0.14678 0.50394 0.0
C278 C 0.79648 0.28729 0.47598 0.0
C279 C 0.74816 0.21774 0.49564 0.0
C280 C 0.83864 0.32051 0.47062 0.0
C281 C 0.87674 0.32146 0.47954 0.0
C282 C 0.79237 0.255 0.49054 0.0
C283 C 0.8712 0.28932 0.49452 0.0
C284 C 0.74371 0.1902 0.51315 0.0
C285 C 0.67017 0.1749 0.4865 0.0
N286 N 0.82988 0.25742 0.49951 0.0
N287 N 0.71125 0.20915 0.4829 0.0
H288 H 0.44146 0.63235 0.78655 0.0
H289 H 0.5856 0.88184 0.84444 0.0
H290 H 0.53201 0.66665 0.8456 0.0
H291 H 0.47601 0.83866 0.79479 0.0
H292 H 0.56826 0.80437 0.845 0.0
H293 H 0.45605 0.70865 0.78885 0.0
C294 C 0.46457 0.65595 0.80002 0.0
C295 C 0.48561 0.6429 0.81589 0.0
C296 C 0.5478 0.81182 0.83414 0.0
C297 C 0.50252 0.73102 0.81862 0.0
C298 C 0.55772 0.85605 0.83376 0.0
C299 C 0.53228 0.86691 0.81951 0.0
C300 C 0.51245 0.77811 0.81997 0.0
C301 C 0.49629 0.83197 0.80623 0.0
C302 C 0.47272 0.69962 0.80137 0.0
C303 C 0.51505 0.67518 0.833 0.0
N304 N 0.48774 0.78935 0.80664 0.0
N305 N 0.52279 0.71779 0.83385 0.0
H306 H 0.87458 0.59877 0.13393 0.0
H307 H 0.62853 0.48565 0.17691 0.0
H308 H 0.82832 0.50595 0.18628 0.0
H309 H 0.67889 0.58749 0.12926 0.0
H310 H 0.70368 0.49919 0.18416 0.0
H311 H 0.80601 0.60163 0.13541 0.0
C312 C 0.85031 0.57948 0.14599 0.0
C313 C 0.8571 0.55169 0.15981 0.0
C314 C 0.69841 0.519 0.17234 0.0
C315 C 0.77803 0.55435 0.16138 0.0
C316 C 0.65546 0.5115 0.1683 0.0
C317 C 0.64714 0.53507 0.15222 0.0
C318 C 0.73337 0.55015 0.16012 0.0
C319 C 0.68349 0.5678 0.14143 0.0
C320 C 0.81106 0.58107 0.14681 0.0
C321 C 0.82448 0.52765 0.1752 0.0
N322 N 0.72482 0.57399 0.14536 0.0
N323 N 0.78615 0.52907 0.17534 0.0
H324 H 0.36501 0.86257 0.49806 0.0
H325 H 0.24023 0.61147 0.44392 0.0
H326 H 0.41094 0.81522 0.44014 0.0
H327 H 0.16978 0.66631 0.4812 0.0
H328 H 0.30523 0.68579 0.44508 0.0
H329 H 0.29462 0.79148 0.49432 0.0
C330 C 0.36015 0.83754 0.4844 0.0
C331 C 0.39413 0.84486 0.46947 0.0
C332 C 0.27559 0.68175 0.45298 0.0
C333 C 0.31412 0.76338 0.4654 0.0
C334 C 0.23859 0.63925 0.45249 0.0
C335 C 0.19972 0.63268 0.46268 0.0
C336 C 0.27418 0.7182 0.464 0.0
C337 C 0.19918 0.67001 0.47318 0.0
C338 C 0.31999 0.797 0.4823 0.0
C339 C 0.3859 0.81118 0.4521 0.0
N340 N 0.23607 0.71123 0.47379 0.0
N341 N 0.34705 0.77183 0.45074 0.0
H342 H 0.51461 0.3851 0.80647 0.0
H343 H 0.53155 0.18919 0.8623 0.0
H344 H 0.53882 0.38385 0.87914 0.0
H345 H 0.51745 0.19418 0.78905 0.0
H346 H 0.52581 0.25627 0.86896 0.0
H347 H 0.50667 0.31096 0.79996 0.0
C348 C 0.51772 0.36907 0.82109 0.0
C349 C 0.52773 0.39097 0.84337 0.0
C350 C 0.5236 0.2425 0.85142 0.0
C351 C 0.51893 0.30616 0.83603 0.0
C352 C 0.52702 0.2042 0.84759 0.0
C353 C 0.52529 0.18595 0.82506 0.0
C354 C 0.51853 0.26306 0.83259 0.0
C355 C 0.51858 0.20663 0.80674 0.0
C356 C 0.51335 0.32678 0.81735 0.0
C357 C 0.53145 0.3685 0.86164 0.0
N358 N 0.51581 0.24417 0.8109 0.0
N359 N 0.52732 0.32759 0.85755 0.0
H360 H 0.60957 0.90084 0.51251 0.0
H361 H 0.57757 0.65802 0.48866 0.0
H362 H 0.48186 0.78346 0.49581 0.0
H363 H 0.67516 0.75637 0.53923 0.0
H364 H 0.55174 0.71 0.48153 0.0
H365 H 0.64325 0.85342 0.51299 0.0
C366 C 0.58875 0.86517 0.50875 0.0
C367 C 0.54286 0.84583 0.50435 0.0
C368 C 0.57916 0.72017 0.49397 0.0
C369 C 0.5811 0.79203 0.50441 0.0
C370 C 0.59383 0.69054 0.49817 0.0
C371 C 0.6281 0.70236 0.51493 0.0
C372 C 0.5994 0.76221 0.50629 0.0
C373 C 0.64883 0.74566 0.52609 0.0
C374 C 0.60793 0.83828 0.50906 0.0
C375 C 0.51729 0.79953 0.49957 0.0
N376 N 0.63395 0.77395 0.52166 0.0
N377 N 0.5368 0.77413 0.49967 0.0
H378 H 0.71386 0.58138 0.79617 0.0
H379 H 0.8823 0.54525 0.87145 0.0
H380 H 0.68831 0.54108 0.86533 0.0
H381 H 0.92862 0.64502 0.82276 0.0
H382 H 0.80713 0.53273 0.86525 0.0
H383 H 0.78992 0.59567 0.80183 0.0
C384 C 0.72432 0.57567 0.81255 0.0
C385 C 0.69492 0.56011 0.83034 0.0
C386 C 0.83375 0.55728 0.8559 0.0
C387 C 0.78109 0.57555 0.8367 0.0
C388 C 0.87642 0.56413 0.85926 0.0
C389 C 0.9114 0.59605 0.8475 0.0
C390 C 0.82596 0.58202 0.84039 0.0
C391 C 0.90235 0.62016 0.83214 0.0
C392 C 0.76763 0.58393 0.81576 0.0
C393 C 0.71007 0.55332 0.85123 0.0
N394 N 0.8603 0.61245 0.82888 0.0
N395 N 0.75204 0.56065 0.85376 0.0
H396 H 0.1269 0.7353 0.12784 0.0
H397 H 0.32089 0.89091 0.22097 0.0
H398 H 0.11738 0.72851 0.20139 0.0
H399 H 0.33775 0.88704 0.14769 0.0
H400 H 0.24102 0.84658 0.21351 0.0
H401 H 0.19754 0.80502 0.13448 0.0
C402 C 0.13905 0.74905 0.1454 0.0
C403 C 0.11679 0.72559 0.16411 0.0
C404 C 0.2621 0.85598 0.19902 0.0
C405 C 0.1976 0.80492 0.17177 0.0
C406 C 0.30784 0.88166 0.20325 0.0
C407 C 0.33627 0.89221 0.18493 0.0
C408 C 0.2445 0.84025 0.17633 0.0
C409 C 0.31717 0.87871 0.16237 0.0
C410 C 0.17951 0.78873 0.14916 0.0
C411 C 0.13393 0.74507 0.18646 0.0
N412 N 0.27247 0.85284 0.15871 0.0
N413 N 0.17367 0.78325 0.18967 0.0
H414 H 0.5151 0.17678 0.45127 0.0
H415 H 0.5247 0.35451 0.54759 0.0
H416 H 0.4671 0.1465 0.51938 0.0
H417 H 0.57441 0.38676 0.47992 0.0
H418 H 0.48928 0.27578 0.53459 0.0
H419 H 0.52226 0.25017 0.45837 0.0
C420 C 0.50518 0.18517 0.46754 0.0
C421 C 0.49151 0.15589 0.48498 0.0
C422 C 0.50742 0.30002 0.52246 0.0
C423 C 0.50009 0.23993 0.49329 0.0
C424 C 0.5275 0.34513 0.52984 0.0
C425 C 0.55319 0.37744 0.51493 0.0
C426 C 0.51341 0.28695 0.50006 0.0
C427 C 0.55591 0.36303 0.49219 0.0
C428 C 0.50942 0.22718 0.47161 0.0
C429 C 0.47862 0.16836 0.50561 0.0
N430 N 0.5368 0.31882 0.48554 0.0
N431 N 0.48395 0.20974 0.50934 0.0
H432 H 0.29939 0.41465 0.85664 0.0
H433 H 0.1749 0.53489 0.8086 0.0
H434 H 0.33716 0.49033 0.79707 0.0
H435 H 0.15847 0.48537 0.87582 0.0
H436 H 0.22017 0.50097 0.79898 0.0
H437 H 0.23295 0.42152 0.85807 0.0
C438 C 0.29324 0.43183 0.84354 0.0
C439 C 0.32435 0.4528 0.82701 0.0
C440 C 0.20603 0.49698 0.8157 0.0
C441 C 0.2487 0.46106 0.82869 0.0
C442 C 0.1804 0.51654 0.82126 0.0
C443 C 0.16349 0.51374 0.84322 0.0
C444 C 0.21482 0.47444 0.8322 0.0
C445 C 0.1707 0.48844 0.85867 0.0
C446 C 0.25541 0.43592 0.84444 0.0
C447 C 0.31446 0.47435 0.81038 0.0
N448 N 0.1963 0.47029 0.85297 0.0
N449 N 0.27782 0.47851 0.81185 0.0
H450 H 0.84273 0.33834 0.14268 0.0
H451 H 0.65456 0.17147 0.22114 0.0
H452 H 0.81592 0.37597 0.21021 0.0
H453 H 0.68822 0.1267 0.15757 0.0
H454 H 0.71164 0.24743 0.21597 0.0
H455 H 0.78456 0.26122 0.14646 0.0
C456 C 0.82461 0.33042 0.15826 0.0
C457 C 0.83419 0.3636 0.17617 0.0
C458 C 0.70665 0.22111 0.20309 0.0
C459 C 0.76785 0.27584 0.18056 0.0
C460 C 0.67379 0.17772 0.20596 0.0
C461 C 0.66641 0.14276 0.18967 0.0
C462 C 0.7325 0.22986 0.18377 0.0
C463 C 0.69302 0.15271 0.1706 0.0
C464 C 0.79152 0.28645 0.16041 0.0
C465 C 0.80977 0.35153 0.19597 0.0
N466 N 0.72489 0.19546 0.16812 0.0
N467 N 0.77778 0.30871 0.1976 0.0
H468 H 0.93644 0.50109 0.08553 0.0
H469 H 0.12031 0.61439 0.99408 0.0
H470 H 0.07411 0.59418 0.10507 0.0
H471 H 0.98149 0.56765 0.97877 0.0
H472 H 0.10398 0.59842 0.03405 0.0
H473 H 0.95244 0.5156 0.04514 0.0
C474 C 0.97001 0.52436 0.08132 0.0
C475 C 0.00396 0.54656 0.09867 0.0
C476 C 0.07716 0.59172 0.02189 0.0
C477 C 0.02244 0.563 0.05269 0.0
C478 C 0.08646 0.6011 -0.00093 0.0
C479 C 0.0523 0.59253 0.98289 0.0
C480 C 0.03331 0.57309 0.02859 0.0
C481 C 0.00888 0.57418 0.99043 0.0
C482 C 0.97905 0.53277 0.05833 0.0
C483 C 0.04686 0.57654 0.09227 0.0
N484 N 1.00062 0.56494 0.0127 0.0
N485 N 0.0549 0.58374 0.06979 0.0
H486 H 0.46309 0.00214 0.43123 0.0
H487 H 0.59751 0.98472 0.32451 0.0
H488 H 0.57995 0.9899 0.43847 0.0
H489 H 0.46343 0.95982 0.3172 0.0
H490 H 0.59489 0.99402 0.36639 0.0
H491 H 0.46574 0.99374 0.38927 0.0
C492 C 0.48932 0.99777 0.42401 0.0
C493 C 0.5213 0.99665 0.43837 0.0
C494 C 0.566 0.9864 0.35562 0.0
C495 C 0.52464 0.98727 0.39049 0.0
C496 C 0.56757 0.98132 0.33174 0.0
C497 C 0.53059 0.97135 0.31741 0.0
C498 C 0.52734 0.982 0.36522 0.0
C499 C 0.49249 0.96697 0.32767 0.0
C500 C 0.49074 0.99285 0.40009 0.0
C501 C 0.55452 0.99084 0.42807 0.0
N502 N 0.4919 0.9725 0.35096 0.0
N503 N 0.5554 0.98652 0.40478 0.0
H504 H 0.60995 0.59063 0.77903 0.0
H505 H 0.54059 0.5213 0.64505 0.0
H506 H 0.47964 0.48523 0.75407 0.0
H507 H 0.67635 0.597 0.67216 0.0
H508 H 0.51582 0.51355 0.68451 0.0
H509 H 0.63287 0.5993 0.73955 0.0
C510 C 0.58608 0.56921 0.76525 0.0
C511 C 0.54287 0.53676 0.76993 0.0
C512 C 0.55101 0.53181 0.6818 0.0
C513 C 0.56897 0.54698 0.72453 0.0
C514 C 0.56514 0.53648 0.65933 0.0
C515 C 0.61059 0.55986 0.65539 0.0
C516 C 0.58254 0.5511 0.70043 0.0
C517 C 0.64103 0.57841 0.67446 0.0
C518 C 0.59927 0.57422 0.74268 0.0
C519 C 0.51334 0.51046 0.75128 0.0
N520 N 0.62645 0.57378 0.69616 0.0
N521 N 0.52694 0.51616 0.72936 0.0
H522 H 0.52394 0.07634 0.57406 0.0
H523 H 0.54951 0.96885 0.68636 0.0
H524 H 0.52309 0.95155 0.57234 0.0
H525 H 0.55219 0.09452 0.68893 0.0
H526 H 0.53717 0.96099 0.64458 0.0
H527 H 0.53178 0.08271 0.61614 0.0
C528 C 0.52519 0.05018 0.58249 0.0
C529 C 0.52295 0.01339 0.56957 0.0
C530 C 0.54037 0.99028 0.65426 0.0
C531 C 0.53207 0.02059 0.61776 0.0
C532 C 0.54717 0.99467 0.67816 0.0
C533 C 0.5519 0.03241 0.69122 0.0
C534 C 0.53824 0.02386 0.64323 0.0
C535 C 0.54931 0.06513 0.67955 0.0
C536 C 0.52975 0.05389 0.60653 0.0
C537 C 0.5248 0.98058 0.58151 0.0
N538 N 0.54267 0.06011 0.65623 0.0
N539 N 0.52934 0.98502 0.60487 0.0
H540 H 0.42386 0.45444 0.89231 0.0
H541 H 0.52026 0.5472 0.02216 0.0
H542 H 0.55654 0.56287 0.91053 0.0
H543 H 0.39904 0.42292 0.00472 0.0
H544 H 0.53036 0.55741 0.98121 0.0
H545 H 0.41081 0.446 0.93332 0.0
C546 C 0.45021 0.47655 0.90491 0.0
C547 C 0.49142 0.50936 0.89794 0.0
C548 C 0.50148 0.52794 0.98631 0.0
C549 C 0.4766 0.49996 0.94487 0.0
C550 C 0.49551 0.52225 0.0097 0.0
C551 C 0.4587 0.48416 0.01688 0.0
C552 C 0.47033 0.49542 0.96988 0.0
C553 C 0.4281 0.45258 -7e-05 0.0
C554 C 0.44274 0.47164 0.92831 0.0
C555 C 0.52431 0.53702 0.91505 0.0
N556 N 0.43456 0.45893 0.97721 0.0
N557 N 0.51616 0.53172 0.93769 0.0
H558 H 0.00694 0.57823 0.24131 0.0
H559 H 0.01373 0.4081 0.32417 0.0
H560 H 0.97649 0.44512 0.21749 0.0
H561 H 0.01131 0.52643 0.34945 0.0
H562 H 0.00373 0.42281 0.28475 0.0
H563 H 0.01225 0.56163 0.28093 0.0
C564 C 0.00134 0.54551 0.2444 0.0
C565 C 0.99144 0.51308 0.22602 0.0
C566 C 0.00514 0.44544 0.29891 0.0
C567 C 0.99763 0.49396 0.27132 0.0
C568 C 0.01106 0.43717 0.32139 0.0
C569 C 0.01342 0.46614 0.34007 0.0
C570 C 0.00208 0.48326 0.29505 0.0
C571 C 0.00929 0.50306 0.33554 0.0
C572 C 0.00425 0.53603 0.26703 0.0
C573 C 0.98431 0.47119 0.23109 0.0
N574 N 0.00414 0.51075 0.31347 0.0
N575 N 0.9878 0.46294 0.25324 0.0
loop_
_geom_bond_atom_site_label_1
_geom_bond_atom_site_label_2
_geom_bond_distance
_geom_bond_site_symmetry_2
_ccdc_geom_bond_type
Zn0 O6 1.969 . S
Zn0 O7 1.965 . S
Zn0 O11 2.024 . S
Zn0 O16 1.969 . S
Zn1 O8 1.969 . S
Zn1 O14 1.969 . S
Zn1 O15 1.965 . S
Zn1 O17 2.024 . S
C2 O3 1.229 . S
C2 O11 1.058 . S
O3 C2 1.229 . S
C4 O5 1.229 . S
C4 O17 1.058 . S
O5 C4 1.229 . S
O6 Zn0 1.969 . S
O6 C9 1.267 . S
O7 Zn0 1.965 . S
O7 C18 1.260 1_455 S
O8 Zn1 1.969 . S
O8 C18 1.258 . S
C9 O6 1.267 . S
C9 O10 1.228 . S
O10 C9 1.228 . S
O11 Zn0 2.024 . S
O11 C2 1.058 . S
C12 O13 1.228 . S
C12 O14 1.267 . S
O13 C12 1.228 . S
O14 Zn1 1.969 . S
O14 C12 1.267 . S
O15 Zn1 1.965 . S
O15 C19 1.260 1_655 S
O16 Zn0 1.969 . S
O16 C19 1.258 . S
O17 Zn1 2.024 . S
O17 C4 1.058 . S
C18 O7 1.260 1_655 S
C18 O8 1.258 . S
C19 O15 1.260 1_455 S
C19 O16 1.258 . S
Zn20 O26 1.969 . S
Zn20 O27 1.965 . S
Zn20 O31 2.024 . S
Zn20 O36 1.969 . S
Zn21 O28 1.969 . S
Zn21 O34 1.969 . S
Zn21 O35 1.965 . S
Zn21 O37 2.024 . S
C22 O23 1.229 . S
C22 O31 1.058 . S
O23 C22 1.229 . S
C24 O25 1.229 . S
C24 O37 1.058 . S
O25 C24 1.229 . S
O26 Zn20 1.969 . S
O26 C29 1.267 . S
O27 Zn20 1.965 . S
O27 C38 1.260 . S
O28 Zn21 1.969 . S
O28 C38 1.258 1_565 S
C29 O26 1.267 . S
C29 O30 1.228 . S
O30 C29 1.228 . S
O31 Zn20 2.024 . S
O31 C22 1.058 . S
C32 O33 1.228 . S
C32 O34 1.267 . S
O33 C32 1.228 . S
O34 Zn21 1.969 . S
O34 C32 1.267 . S
O35 Zn21 1.965 . S
O35 C39 1.260 1_565 S
O36 Zn20 1.969 . S
O36 C39 1.258 . S
O37 Zn21 2.024 . S
O37 C24 1.058 . S
C38 O27 1.260 . S
C38 O28 1.258 1_545 S
C39 O35 1.260 1_545 S
C39 O36 1.258 . S
Zn40 O46 1.969 . S
Zn40 O47 1.965 . S
Zn40 O51 2.024 . S
Zn40 O56 1.969 . S
Zn41 O48 1.969 . S
Zn41 O54 1.969 . S
Zn41 O55 1.965 . S
Zn41 O57 2.024 . S
C42 O43 1.229 . S
C42 O51 1.058 . S
O43 C42 1.229 . S
C44 O45 1.229 . S
C44 O57 1.058 . S
O45 C44 1.229 . S
O46 Zn40 1.969 . S
O46 C49 1.267 . S
O47 Zn40 1.965 . S
O47 C58 1.260 . S
O48 Zn41 1.969 . S
O48 C58 1.258 . S
C49 O46 1.267 . S
C49 O50 1.228 . S
O50 C49 1.228 . S
O51 Zn40 2.024 . S
O51 C42 1.058 . S
C52 O53 1.228 . S
C52 O54 1.267 . S
O53 C52 1.228 . S
O54 Zn41 1.969 . S
O54 C52 1.267 . S
O55 Zn41 1.965 . S
O55 C59 1.260 . S
O56 Zn40 1.969 . S
O56 C59 1.258 . S
O57 Zn41 2.024 . S
O57 C44 1.058 . S
C58 O47 1.260 . S
C58 O48 1.258 . S
C59 O55 1.260 . S
C59 O56 1.258 . S
P60 O71 1.490 . S
P60 C74 1.812 . S
P60 C80 1.803 1_565 S
P60 C86 1.819 1_565 S
H61 C75 0.941 . S
H62 C76 0.939 . S
H63 C78 0.940 . S
H64 C79 0.940 . S
H65 C81 0.939 . S
H66 C82 0.942 . S
H67 C84 0.940 . S
H68 C85 0.939 . S
H69 C87 0.941 . S
H70 C91 0.939 . S
O71 P60 1.490 . S
H72 C88 0.939 . S
H73 C90 0.940 . S
C74 P60 1.812 . S
C74 C75 1.389 . S
C74 C79 1.391 . S
C75 H61 0.941 . S
C75 C74 1.389 . S
C75 C76 1.397 . S
C76 H62 0.939 . S
C76 C75 1.397 . S
C76 C77 1.378 . S
C77 C76 1.378 . S
C77 C78 1.378 . S
C78 H63 0.940 . S
C78 C77 1.378 . S
C78 C79 1.396 . S
C79 H64 0.940 . S
C79 C74 1.391 . S
C79 C78 1.396 . S
C80 P60 1.803 1_545 S
C80 C81 1.378 . S
C80 C85 1.400 . S
C81 H65 0.939 . S
C81 C80 1.378 . S
C81 C82 1.361 . S
C82 H66 0.942 . S
C82 C81 1.361 . S
C82 C83 1.369 . S
C83 C82 1.369 . S
C83 C84 1.404 . S
C84 H67 0.940 . S
C84 C83 1.404 . S
C84 C85 1.389 . S
C85 H68 0.939 . S
C85 C80 1.400 . S
C85 C84 1.389 . S
C86 P60 1.819 1_545 S
C86 C87 1.391 1_545 S
C86 C91 1.391 . S
C87 H69 0.941 . S
C87 C86 1.391 1_565 S
C87 C88 1.396 . S
C88 H72 0.939 . S
C88 C87 1.396 . S
C88 C89 1.397 1_565 S
C89 C88 1.397 1_545 S
C89 C90 1.385 . S
C90 H73 0.940 . S
C90 C89 1.385 . S
C90 C91 1.388 . S
C91 H70 0.939 . S
C91 C86 1.391 . S
C91 C90 1.388 . S
P92 O103 1.490 . S
P92 C106 1.812 . S
P92 C112 1.803 . S
P92 C118 1.819 . S
H93 C107 0.941 . S
H94 C108 0.939 . S
H95 C110 0.940 . S
H96 C111 0.940 . S
H97 C113 0.939 . S
H98 C114 0.942 . S
H99 C116 0.940 . S
H100 C117 0.939 . S
H101 C119 0.941 . S
H102 C123 0.939 . S
O103 P92 1.490 . S
H104 C120 0.939 . S
H105 C122 0.940 . S
C106 P92 1.812 . S
C106 C107 1.389 . S
C106 C111 1.391 . S
C107 H93 0.941 . S
C107 C106 1.389 . S
C107 C108 1.397 . S
C108 H94 0.939 . S
C108 C107 1.397 . S
C108 C109 1.378 . S
C109 C108 1.378 . S
C109 C110 1.378 . S
C110 H95 0.940 . S
C110 C109 1.378 . S
C110 C111 1.396 . S
C111 H96 0.940 . S
C111 C106 1.391 . S
C111 C110 1.396 . S
C112 P92 1.803 . S
C112 C113 1.378 . S
C112 C117 1.400 . S
C113 H97 0.939 . S
C113 C112 1.378 . S
C113 C114 1.361 . S
C114 H98 0.942 . S
C114 C113 1.361 . S
C114 C115 1.369 . S
C115 C114 1.369 . S
C115 C116 1.404 . S
C116 H99 0.940 . S
C116 C115 1.404 . S
C116 C117 1.389 . S
C117 H100 0.939 . S
C117 C112 1.400 . S
C117 C116 1.389 . S
C118 P92 1.819 . S
C118 C119 1.391 . S
C118 C123 1.391 . S
C119 H101 0.941 . S
C119 C118 1.391 . S
C119 C120 1.396 . S
C120 H104 0.939 . S
C120 C119 1.396 . S
C120 C121 1.397 . S
C121 C120 1.397 . S
C121 C122 1.385 . S
C122 H105 0.940 . S
C122 C121 1.385 . S
C122 C123 1.388 . S
C123 H102 0.939 . S
C123 C118 1.391 . S
C123 C122 1.388 . S
P124 O135 1.490 . S
P124 C138 1.812 . S
P124 C144 1.803 . S
P124 C150 1.819 . S
H125 C139 0.941 . S
H126 C140 0.939 . S
H127 C142 0.940 . S
H128 C143 0.940 . S
H129 C145 0.940 1_455 S
H130 C146 0.942 . S
H131 C148 0.940 . S
H132 C149 0.954 . S
H133 C151 0.941 . S
H134 C155 0.939 1_655 S
O135 P124 1.490 . S
H136 C152 0.939 . S
H137 C154 0.922 1_655 S
C138 P124 1.812 . S
C138 C139 1.389 . S
C138 C143 1.391 . S
C139 H125 0.941 . S
C139 C138 1.389 . S
C139 C140 1.397 . S
C140 H126 0.939 . S
C140 C139 1.397 . S
C140 C141 1.378 . S
C141 C140 1.378 . S
C141 C142 1.378 . S
C142 H127 0.940 . S
C142 C141 1.378 . S
C142 C143 1.396 . S
C143 H128 0.940 . S
C143 C138 1.391 . S
C143 C142 1.396 . S
C144 P124 1.803 . S
C144 C145 1.378 1_455 S
C144 C149 1.400 1_455 S
C145 H129 0.940 1_655 S
C145 C144 1.378 1_655 S
C145 C146 1.361 . S
C146 H130 0.942 . S
C146 C145 1.361 . S
C146 C147 1.369 . S
C147 C146 1.369 . S
C147 C148 1.404 . S
C148 H131 0.940 . S
C148 C147 1.404 . S
C148 C149 1.389 . S
C149 H132 0.954 . S
C149 C144 1.400 1_655 S
C149 C148 1.389 . S
C150 P124 1.819 . S
C150 C151 1.391 . S
C150 C155 1.391 . S
C151 H133 0.941 . S
C151 C150 1.391 . S
C151 C152 1.396 . S
C152 H136 0.939 . S
C152 C151 1.396 . S
C152 C153 1.397 . S
C153 C152 1.397 . S
C153 C154 1.403 . S
C154 H137 0.922 1_455 S
C154 C153 1.403 . S
C154 C155 1.388 . S
C155 H134 0.939 1_455 S
C155 C150 1.391 . S
C155 C154 1.388 . S
P156 O167 1.490 . S
P156 C170 1.812 . S
P156 C176 1.799 1_455 S
P156 C182 1.819 . S
H157 C171 0.941 . S
H158 C172 0.939 . S
H159 C174 0.940 . S
H160 C175 0.940 . S
H161 C177 0.939 . S
H162 C178 0.942 . S
H163 C180 0.940 . S
H164 C181 0.939 . S
H165 C183 0.941 . S
H166 C187 0.939 . S
O167 P156 1.490 . S
H168 C184 0.939 . S
H169 C186 0.940 . S
C170 P156 1.812 . S
C170 C171 1.389 . S
C170 C175 1.391 . S
C171 H157 0.941 . S
C171 C170 1.389 . S
C171 C172 1.397 . S
C172 H158 0.939 . S
C172 C171 1.397 . S
C172 C173 1.378 . S
C173 C172 1.378 . S
C173 C174 1.378 . S
C174 H159 0.940 . S
C174 C173 1.378 . S
C174 C175 1.396 . S
C175 H160 0.940 . S
C175 C170 1.391 . S
C175 C174 1.396 . S
C176 P156 1.799 1_655 S
C176 C177 1.378 . S
C176 C181 1.404 . S
C177 H161 0.939 . S
C177 C176 1.378 . S
C177 C178 1.361 . S
C178 H162 0.942 . S
C178 C177 1.361 . S
C178 C179 1.369 . S
C179 C178 1.369 . S
C179 C180 1.404 . S
C180 H163 0.940 . S
C180 C179 1.404 . S
C180 C181 1.389 . S
C181 H164 0.939 . S
C181 C176 1.404 . S
C181 C180 1.389 . S
C182 P156 1.819 . S
C182 C183 1.391 . S
C182 C187 1.391 1_455 S
C183 H165 0.941 . S
C183 C182 1.391 . S
C183 C184 1.396 . S
C184 H168 0.939 . S
C184 C183 1.396 . S
C184 C185 1.397 . S
C185 C184 1.397 . S
C185 C186 1.385 1_455 S
C186 H169 0.940 . S
C186 C185 1.385 1_655 S
C186 C187 1.388 . S
C187 H166 0.939 . S
C187 C182 1.391 1_655 S
C187 C186 1.388 . S
P188 O199 1.490 . S
P188 C202 1.812 . S
P188 C208 1.803 1_545 S
P188 C214 1.819 . S
H189 C203 0.941 . S
H190 C204 0.939 . S
H191 C206 0.940 . S
H192 C207 0.940 . S
H193 C209 0.939 . S
H194 C210 0.942 . S
H195 C212 0.940 . S
H196 C213 0.939 . S
H197 C215 0.941 . S
H198 C219 0.939 . S
O199 P188 1.490 . S
H200 C216 0.939 . S
H201 C218 0.940 . S
C202 P188 1.812 . S
C202 C203 1.389 . S
C202 C207 1.391 . S
C203 H189 0.941 . S
C203 C202 1.389 . S
C203 C204 1.397 . S
C204 H190 0.939 . S
C204 C203 1.397 . S
C204 C205 1.378 . S
C205 C204 1.378 . S
C205 C206 1.378 . S
C206 H191 0.940 . S
C206 C205 1.378 . S
C206 C207 1.396 . S
C207 H192 0.940 . S
C207 C202 1.391 . S
C207 C206 1.396 . S
C208 P188 1.803 1_565 S
C208 C209 1.378 . S
C208 C213 1.400 . S
C209 H193 0.939 . S
C209 C208 1.378 . S
C209 C210 1.361 . S
C210 H194 0.942 . S
C210 C209 1.361 . S
C210 C211 1.369 . S
C211 C210 1.369 . S
C211 C212 1.404 . S
C212 H195 0.940 . S
C212 C211 1.404 . S
C212 C213 1.389 . S
C213 H196 0.939 . S
C213 C208 1.400 . S
C213 C212 1.389 . S
C214 P188 1.819 . S
C214 C215 1.391 . S
C214 C219 1.391 1_545 S
C215 H197 0.941 . S
C215 C214 1.391 . S
C215 C216 1.396 . S
C216 H200 0.939 . S
C216 C215 1.396 . S
C216 C217 1.397 . S
C217 C216 1.397 . S
C217 C218 1.385 1_545 S
C218 H201 0.940 . S
C218 C217 1.385 1_565 S
C218 C219 1.388 . S
C219 H198 0.939 . S
C219 C214 1.391 1_565 S
C219 C218 1.388 . S
P220 O231 1.490 . S
P220 C234 1.812 . S
P220 C240 1.803 . S
P220 C246 1.819 . S
H221 C235 0.941 . S
H222 C236 0.939 . S
H223 C238 0.940 . S
H224 C239 0.940 . S
H225 C241 0.939 . S
H226 C242 0.942 . S
H227 C244 0.940 . S
H228 C245 0.939 . S
H229 C247 0.941 . S
H230 C251 0.939 . S
O231 P220 1.490 . S
H232 C248 0.939 . S
H233 C250 0.940 . S
C234 P220 1.812 . S
C234 C235 1.389 . S
C234 C239 1.391 . S
C235 H221 0.941 . S
C235 C234 1.389 . S
C235 C236 1.397 . S
C236 H222 0.939 . S
C236 C235 1.397 . S
C236 C237 1.378 . S
C237 C236 1.378 . S
C237 C238 1.378 . S
C238 H223 0.940 . S
C238 C237 1.378 . S
C238 C239 1.396 . S
C239 H224 0.940 . S
C239 C234 1.391 . S
C239 C238 1.396 . S
C240 P220 1.803 . S
C240 C241 1.378 . S
C240 C245 1.400 . S
C241 H225 0.939 . S
C241 C240 1.378 . S
C241 C242 1.361 . S
C242 H226 0.942 . S
C242 C241 1.361 . S
C242 C243 1.369 . S
C243 C242 1.369 . S
C243 C244 1.404 . S
C244 H227 0.940 . S
C244 C243 1.404 . S
C244 C245 1.389 . S
C245 H228 0.939 . S
C245 C240 1.400 . S
C245 C244 1.389 . S
C246 P220 1.819 . S
C246 C247 1.391 . S
C246 C251 1.391 . S
C247 H229 0.941 . S
C247 C246 1.391 . S
C247 C248 1.396 . S
C248 H232 0.939 . S
C248 C247 1.396 . S
C248 C249 1.397 . S
C249 C248 1.397 . S
C249 C250 1.385 . S
C250 H233 0.940 . S
C250 C249 1.385 . S
C250 C251 1.388 . S
C251 H230 0.939 . S
C251 C246 1.391 . S
C251 C250 1.388 . S
H252 C258 0.930 . S
H253 C262 0.930 . S
H254 C267 0.929 . S
H255 C265 0.929 . S
H256 C260 0.929 . S
H257 C266 0.929 . S
C258 H252 0.930 . S
C258 C259 1.367 . S
C258 C266 1.378 . S
C259 C258 1.367 . S
C259 C267 1.433 . S
C260 H256 0.929 . S
C260 C262 1.378 . S
C260 C264 1.350 . S
C261 C264 1.463 . S
C261 C266 1.350 . S
C261 N269 1.427 . S
C262 H253 0.930 . S
C262 C260 1.378 . S
C262 C263 1.367 . S
C263 C262 1.367 . S
C263 C265 1.433 . S
C264 C260 1.350 . S
C264 C261 1.463 . S
C264 N268 1.427 . S
C265 H255 0.929 . S
C265 C263 1.433 . S
C265 N268 1.384 . S
C266 H257 0.929 . S
C266 C258 1.378 . S
C266 C261 1.350 . S
C267 H254 0.929 . S
C267 C259 1.433 . S
C267 N269 1.384 . S
N268 C264 1.427 . S
N268 C265 1.384 . S
N269 C261 1.427 . S
N269 C267 1.384 . S
H270 C276 0.930 . S
H271 C280 0.930 . S
H272 C285 0.929 . S
H273 C283 0.929 . S
H274 C278 0.929 . S
H275 C284 0.929 . S
C276 H270 0.930 . S
C276 C277 1.367 . S
C276 C284 1.378 . S
C277 C276 1.367 . S
C277 C285 1.433 . S
C278 H274 0.929 . S
C278 C280 1.378 . S
C278 C282 1.350 . S
C279 C282 1.463 . S
C279 C284 1.350 . S
C279 N287 1.427 . S
C280 H271 0.930 . S
C280 C278 1.378 . S
C280 C281 1.367 . S
C281 C280 1.367 . S
C281 C283 1.433 . S
C282 C278 1.350 . S
C282 C279 1.463 . S
C282 N286 1.427 . S
C283 H273 0.929 . S
C283 C281 1.433 . S
C283 N286 1.384 . S
C284 H275 0.929 . S
C284 C276 1.378 . S
C284 C279 1.350 . S
C285 H272 0.929 . S
C285 C277 1.433 . S
C285 N287 1.384 . S
N286 C282 1.427 . S
N286 C283 1.384 . S
N287 C279 1.427 . S
N287 C285 1.384 . S
H288 C294 0.930 . S
H289 C298 0.930 . S
H290 C303 0.929 . S
H291 C301 0.929 . S
H292 C296 0.929 . S
H293 C302 0.929 . S
C294 H288 0.930 . S
C294 C295 1.367 . S
C294 C302 1.378 . S
C295 C294 1.367 . S
C295 C303 1.433 . S
C296 H292 0.929 . S
C296 C298 1.378 . S
C296 C300 1.350 . S
C297 C300 1.463 . S
C297 C302 1.350 . S
C297 N305 1.427 . S
C298 H289 0.930 . S
C298 C296 1.378 . S
C298 C299 1.367 . S
C299 C298 1.367 . S
C299 C301 1.433 . S
C300 C296 1.350 . S
C300 C297 1.463 . S
C300 N304 1.427 . S
C301 H291 0.929 . S
C301 C299 1.433 . S
C301 N304 1.384 . S
C302 H293 0.929 . S
C302 C294 1.378 . S
C302 C297 1.350 . S
C303 H290 0.929 . S
C303 C295 1.433 . S
C303 N305 1.384 . S
N304 C300 1.427 . S
N304 C301 1.384 . S
N305 C297 1.427 . S
N305 C303 1.384 . S
H306 C312 0.930 . S
H307 C316 0.930 . S
H308 C321 0.929 . S
H309 C319 0.929 . S
H310 C314 0.929 . S
H311 C320 0.929 . S
C312 H306 0.930 . S
C312 C313 1.367 . S
C312 C320 1.378 . S
C313 C312 1.367 . S
C313 C321 1.433 . S
C314 H310 0.929 . S
C314 C316 1.378 . S
C314 C318 1.350 . S
C315 C318 1.463 . S
C315 C320 1.350 . S
C315 N323 1.427 . S
C316 H307 0.930 . S
C316 C314 1.378 . S
C316 C317 1.367 . S
C317 C316 1.367 . S
C317 C319 1.433 . S
C318 C314 1.350 . S
C318 C315 1.463 . S
C318 N322 1.427 . S
C319 H309 0.929 . S
C319 C317 1.433 . S
C319 N322 1.384 . S
C320 H311 0.929 . S
C320 C312 1.378 . S
C320 C315 1.350 . S
C321 H308 0.929 . S
C321 C313 1.433 . S
C321 N323 1.384 . S
N322 C318 1.427 . S
N322 C319 1.384 . S
N323 C315 1.427 . S
N323 C321 1.384 . S
H324 C330 0.930 . S
H325 C334 0.930 . S
H326 C339 0.929 . S
H327 C337 0.929 . S
H328 C332 0.929 . S
H329 C338 0.929 . S
C330 H324 0.930 . S
C330 C331 1.367 . S
C330 C338 1.378 . S
C331 C330 1.367 . S
C331 C339 1.433 . S
C332 H328 0.929 . S
C332 C334 1.378 . S
C332 C336 1.350 . S
C333 C336 1.463 . S
C333 C338 1.350 . S
C333 N341 1.427 . S
C334 H325 0.930 . S
C334 C332 1.378 . S
C334 C335 1.367 . S
C335 C334 1.367 . S
C335 C337 1.433 . S
C336 C332 1.350 . S
C336 C333 1.463 . S
C336 N340 1.427 . S
C337 H327 0.929 . S
C337 C335 1.433 . S
C337 N340 1.384 . S
C338 H329 0.929 . S
C338 C330 1.378 . S
C338 C333 1.350 . S
C339 H326 0.929 . S
C339 C331 1.433 . S
C339 N341 1.384 . S
N340 C336 1.427 . S
N340 C337 1.384 . S
N341 C333 1.427 . S
N341 C339 1.384 . S
H342 C348 0.930 . S
H343 C352 0.930 . S
H344 C357 0.929 . S
H345 C355 0.929 . S
H346 C350 0.929 . S
H347 C356 0.929 . S
C348 H342 0.930 . S
C348 C349 1.367 . S
C348 C356 1.378 . S
C349 C348 1.367 . S
C349 C357 1.433 . S
C350 H346 0.929 . S
C350 C352 1.378 . S
C350 C354 1.350 . S
C351 C354 1.463 . S
C351 C356 1.350 . S
C351 N359 1.427 . S
C352 H343 0.930 . S
C352 C350 1.378 . S
C352 C353 1.367 . S
C353 C352 1.367 . S
C353 C355 1.433 . S
C354 C350 1.350 . S
C354 C351 1.463 . S
C354 N358 1.427 . S
C355 H345 0.929 . S
C355 C353 1.433 . S
C355 N358 1.384 . S
C356 H347 0.929 . S
C356 C348 1.378 . S
C356 C351 1.350 . S
C357 H344 0.929 . S
C357 C349 1.433 . S
C357 N359 1.384 . S
N358 C354 1.427 . S
N358 C355 1.384 . S
N359 C351 1.427 . S
N359 C357 1.384 . S
H360 C366 0.930 . S
H361 C370 0.930 . S
H362 C375 0.929 . S
H363 C373 0.929 . S
H364 C368 0.929 . S
H365 C374 0.929 . S
C366 H360 0.930 . S
C366 C367 1.367 . S
C366 C374 1.378 . S
C367 C366 1.367 . S
C367 C375 1.433 . S
C368 H364 0.929 . S
C368 C370 1.378 . S
C368 C372 1.350 . S
C369 C372 1.463 . S
C369 C374 1.350 . S
C369 N377 1.427 . S
C370 H361 0.930 . S
C370 C368 1.378 . S
C370 C371 1.367 . S
C371 C370 1.367 . S
C371 C373 1.433 . S
C372 C368 1.350 . S
C372 C369 1.463 . S
C372 N376 1.427 . S
C373 H363 0.929 . S
C373 C371 1.433 . S
C373 N376 1.384 . S
C374 H365 0.929 . S
C374 C366 1.378 . S
C374 C369 1.350 . S
C375 H362 0.929 . S
C375 C367 1.433 . S
C375 N377 1.384 . S
N376 C372 1.427 . S
N376 C373 1.384 . S
N377 C369 1.427 . S
N377 C375 1.384 . S
H378 C384 0.930 . S
H379 C388 0.930 . S
H380 C393 0.929 . S
H381 C391 0.929 . S
H382 C386 0.929 . S
H383 C392 0.929 . S
C384 H378 0.930 . S
C384 C385 1.367 . S
C384 C392 1.378 . S
C385 C384 1.367 . S
C385 C393 1.433 . S
C386 H382 0.929 . S
C386 C388 1.378 . S
C386 C390 1.350 . S
C387 C390 1.463 . S
C387 C392 1.350 . S
C387 N395 1.427 . S
C388 H379 0.930 . S
C388 C386 1.378 . S
C388 C389 1.367 . S
C389 C388 1.367 . S
C389 C391 1.433 . S
C390 C386 1.350 . S
C390 C387 1.463 . S
C390 N394 1.427 . S
C391 H381 0.929 . S
C391 C389 1.433 . S
C391 N394 1.384 . S
C392 H383 0.929 . S
C392 C384 1.378 . S
C392 C387 1.350 . S
C393 H380 0.929 . S
C393 C385 1.433 . S
C393 N395 1.384 . S
N394 C390 1.427 . S
N394 C391 1.384 . S
N395 C387 1.427 . S
N395 C393 1.384 . S
H396 C402 0.930 . S
H397 C406 0.930 . S
H398 C411 0.929 . S
H399 C409 0.929 . S
H400 C404 0.929 . S
H401 C410 0.929 . S
C402 H396 0.930 . S
C402 C403 1.367 . S
C402 C410 1.378 . S
C403 C402 1.367 . S
C403 C411 1.433 . S
C404 H400 0.929 . S
C404 C406 1.378 . S
C404 C408 1.350 . S
C405 C408 1.463 . S
C405 C410 1.350 . S
C405 N413 1.427 . S
C406 H397 0.930 . S
C406 C404 1.378 . S
C406 C407 1.367 . S
C407 C406 1.367 . S
C407 C409 1.433 . S
C408 C404 1.350 . S
C408 C405 1.463 . S
C408 N412 1.427 . S
C409 H399 0.929 . S
C409 C407 1.433 . S
C409 N412 1.384 . S
C410 H401 0.929 . S
C410 C402 1.378 . S
C410 C405 1.350 . S
C411 H398 0.929 . S
C411 C403 1.433 . S
C411 N413 1.384 . S
N412 C408 1.427 . S
N412 C409 1.384 . S
N413 C405 1.427 . S
N413 C411 1.384 . S
H414 C420 0.930 . S
H415 C424 0.930 . S
H416 C429 0.929 . S
H417 C427 0.929 . S
H418 C422 0.929 . S
H419 C428 0.929 . S
C420 H414 0.930 . S
C420 C421 1.367 . S
C420 C428 1.378 . S
C421 C420 1.367 . S
C421 C429 1.433 . S
C422 H418 0.929 . S
C422 C424 1.378 . S
C422 C426 1.350 . S
C423 C426 1.463 . S
C423 C428 1.350 . S
C423 N431 1.427 . S
C424 H415 0.930 . S
C424 C422 1.378 . S
C424 C425 1.367 . S
C425 C424 1.367 . S
C425 C427 1.433 . S
C426 C422 1.350 . S
C426 C423 1.463 . S
C426 N430 1.427 . S
C427 H417 0.929 . S
C427 C425 1.433 . S
C427 N430 1.384 . S
C428 H419 0.929 . S
C428 C420 1.378 . S
C428 C423 1.350 . S
C429 H416 0.929 . S
C429 C421 1.433 . S
C429 N431 1.384 . S
N430 C426 1.427 . S
N430 C427 1.384 . S
N431 C423 1.427 . S
N431 C429 1.384 . S
H432 C438 0.930 . S
H433 C442 0.930 . S
H434 C447 0.929 . S
H435 C445 0.929 . S
H436 C440 0.929 . S
H437 C446 0.929 . S
C438 H432 0.930 . S
C438 C439 1.367 . S
C438 C446 1.378 . S
C439 C438 1.367 . S
C439 C447 1.433 . S
C440 H436 0.929 . S
C440 C442 1.378 . S
C440 C444 1.350 . S
C441 C444 1.463 . S
C441 C446 1.350 . S
C441 N449 1.427 . S
C442 H433 0.930 . S
C442 C440 1.378 . S
C442 C443 1.367 . S
C443 C442 1.367 . S
C443 C445 1.433 . S
C444 C440 1.350 . S
C444 C441 1.463 . S
C444 N448 1.427 . S
C445 H435 0.929 . S
C445 C443 1.433 . S
C445 N448 1.384 . S
C446 H437 0.929 . S
C446 C438 1.378 . S
C446 C441 1.350 . S
C447 H434 0.929 . S
C447 C439 1.433 . S
C447 N449 1.384 . S
N448 C444 1.427 . S
N448 C445 1.384 . S
N449 C441 1.427 . S
N449 C447 1.384 . S
H450 C456 0.930 . S
H451 C460 0.930 . S
H452 C465 0.929 . S
H453 C463 0.929 . S
H454 C458 0.929 . S
H455 C464 0.929 . S
C456 H450 0.930 . S
C456 C457 1.367 . S
C456 C464 1.378 . S
C457 C456 1.367 . S
C457 C465 1.433 . S
C458 H454 0.929 . S
C458 C460 1.378 . S
C458 C462 1.350 . S
C459 C462 1.463 . S
C459 C464 1.350 . S
C459 N467 1.427 . S
C460 H451 0.930 . S
C460 C458 1.378 . S
C460 C461 1.367 . S
C461 C460 1.367 . S
C461 C463 1.433 . S
C462 C458 1.350 . S
C462 C459 1.463 . S
C462 N466 1.427 . S
C463 H453 0.929 . S
C463 C461 1.433 . S
C463 N466 1.384 . S
C464 H455 0.929 . S
C464 C456 1.378 . S
C464 C459 1.350 . S
C465 H452 0.929 . S
C465 C457 1.433 . S
C465 N467 1.384 . S
N466 C462 1.427 . S
N466 C463 1.384 . S
N467 C459 1.427 . S
N467 C465 1.384 . S
H468 C474 0.930 . S
H469 C478 0.930 1_556 S
H470 C483 0.929 . S
H471 C481 0.929 . S
H472 C476 0.929 . S
H473 C482 0.929 . S
C474 H468 0.930 . S
C474 C475 1.367 1_655 S
C474 C482 1.378 . S
C475 C474 1.367 1_455 S
C475 C483 1.433 . S
C476 H472 0.929 . S
C476 C478 1.378 . S
C476 C480 1.350 . S
C477 C480 1.463 . S
C477 C482 1.350 1_455 S
C477 N485 1.427 . S
C478 H469 0.930 1_554 S
C478 C476 1.378 . S
C478 C479 1.367 1_554 S
C479 C478 1.367 1_556 S
C479 C481 1.433 1_455 S
C480 C476 1.350 . S
C480 C477 1.463 . S
C480 N484 1.427 1_455 S
C481 H471 0.929 . S
C481 C479 1.433 1_655 S
C481 N484 1.384 1_556 S
C482 H473 0.929 . S
C482 C474 1.378 . S
C482 C477 1.350 1_655 S
C483 H470 0.929 . S
C483 C475 1.433 . S
C483 N485 1.384 . S
N484 C480 1.427 1_655 S
N484 C481 1.384 1_554 S
N485 C477 1.427 . S
N485 C483 1.384 . S
H486 C492 0.930 . S
H487 C496 0.930 . S
H488 C501 0.929 . S
H489 C499 0.929 . S
H490 C494 0.929 . S
H491 C500 0.929 . S
C492 H486 0.930 . S
C492 C493 1.367 1_565 S
C492 C500 1.378 . S
C493 C492 1.367 1_545 S
C493 C501 1.433 . S
C494 H490 0.929 . S
C494 C496 1.378 . S
C494 C498 1.350 . S
C495 C498 1.463 . S
C495 C500 1.350 1_545 S
C495 N503 1.427 . S
C496 H487 0.930 . S
C496 C494 1.378 . S
C496 C497 1.367 . S
C497 C496 1.367 . S
C497 C499 1.433 1_545 S
C498 C494 1.350 . S
C498 C495 1.463 . S
C498 N502 1.427 1_545 S
C499 H489 0.929 . S
C499 C497 1.433 1_565 S
C499 N502 1.384 . S
C500 H491 0.929 . S
C500 C492 1.378 . S
C500 C495 1.350 1_565 S
C501 H488 0.929 . S
C501 C493 1.433 . S
C501 N503 1.384 . S
N502 C498 1.427 1_565 S
N502 C499 1.384 . S
N503 C495 1.427 . S
N503 C501 1.384 . S
H504 C510 0.930 . S
H505 C514 0.930 . S
H506 C519 0.929 . S
H507 C517 0.929 . S
H508 C512 0.929 . S
H509 C518 0.929 . S
C510 H504 0.930 . S
C510 C511 1.367 . S
C510 C518 1.378 . S
C511 C510 1.367 . S
C511 C519 1.433 . S
C512 H508 0.929 . S
C512 C514 1.378 . S
C512 C516 1.350 . S
C513 C516 1.463 . S
C513 C518 1.350 . S
C513 N521 1.427 . S
C514 H505 0.930 . S
C514 C512 1.378 . S
C514 C515 1.367 . S
C515 C514 1.367 . S
C515 C517 1.433 . S
C516 C512 1.350 . S
C516 C513 1.463 . S
C516 N520 1.427 . S
C517 H507 0.929 . S
C517 C515 1.433 . S
C517 N520 1.384 . S
C518 H509 0.929 . S
C518 C510 1.378 . S
C518 C513 1.350 . S
C519 H506 0.929 . S
C519 C511 1.433 . S
C519 N521 1.384 . S
N520 C516 1.427 . S
N520 C517 1.384 . S
N521 C513 1.427 . S
N521 C519 1.384 . S
H522 C528 0.930 . S
H523 C532 0.930 . S
H524 C537 0.929 . S
H525 C535 0.929 . S
H526 C530 0.929 . S
H527 C536 0.929 . S
C528 H522 0.930 . S
C528 C529 1.367 . S
C528 C536 1.378 . S
C529 C528 1.367 . S
C529 C537 1.433 1_545 S
C530 H526 0.929 . S
C530 C532 1.378 . S
C530 C534 1.350 1_565 S
C531 C534 1.463 . S
C531 C536 1.350 . S
C531 N539 1.427 1_545 S
C532 H523 0.930 . S
C532 C530 1.378 . S
C532 C533 1.367 1_565 S
C533 C532 1.367 1_545 S
C533 C535 1.433 . S
C534 C530 1.350 1_545 S
C534 C531 1.463 . S
C534 N538 1.427 . S
C535 H525 0.929 . S
C535 C533 1.433 . S
C535 N538 1.384 . S
C536 H527 0.929 . S
C536 C528 1.378 . S
C536 C531 1.350 . S
C537 H524 0.929 . S
C537 C529 1.433 1_565 S
C537 N539 1.384 . S
N538 C534 1.427 . S
N538 C535 1.384 . S
N539 C531 1.427 1_565 S
N539 C537 1.384 . S
H540 C546 0.930 . S
H541 C550 0.930 1_554 S
H542 C555 0.929 . S
H543 C553 0.929 1_554 S
H544 C548 0.929 . S
H545 C554 0.929 . S
C546 H540 0.930 . S
C546 C547 1.367 . S
C546 C554 1.378 . S
C547 C546 1.367 . S
C547 C555 1.433 . S
C548 H544 0.929 . S
C548 C550 1.380 . S
C548 C552 1.350 . S
C549 C552 1.463 . S
C549 C554 1.350 . S
C549 N557 1.427 . S
C550 H541 0.930 1_556 S
C550 C548 1.380 . S
C550 C551 1.366 1_556 S
C551 C550 1.366 1_554 S
C551 C553 1.433 1_554 S
C552 C548 1.350 . S
C552 C549 1.463 . S
C552 N556 1.427 . S
C553 H543 0.929 1_556 S
C553 C551 1.433 1_556 S
C553 N556 1.384 . S
C554 H545 0.929 . S
C554 C546 1.378 . S
C554 C549 1.350 . S
C555 H542 0.929 . S
C555 C547 1.433 . S
C555 N557 1.384 . S
N556 C552 1.427 . S
N556 C553 1.384 . S
N557 C549 1.427 . S
N557 C555 1.384 . S
H558 C564 0.930 . S
H559 C568 0.930 . S
H560 C573 0.929 . S
H561 C571 0.929 . S
H562 C566 0.929 . S
H563 C572 0.929 . S
C564 H558 0.930 . S
C564 C565 1.374 . S
C564 C572 1.378 . S
C565 C564 1.374 . S
C565 C573 1.425 1_655 S
C566 H562 0.929 . S
C566 C568 1.378 . S
C566 C570 1.350 . S
C567 C570 1.463 . S
C567 C572 1.350 1_455 S
C567 N575 1.427 . S
C568 H559 0.930 . S
C568 C566 1.378 . S
C568 C569 1.367 . S
C569 C568 1.367 . S
C569 C571 1.433 . S
C570 C566 1.350 . S
C570 C567 1.463 . S
C570 N574 1.427 . S
C571 H561 0.929 . S
C571 C569 1.433 . S
C571 N574 1.384 . S
C572 H563 0.929 . S
C572 C564 1.378 . S
C572 C567 1.350 1_655 S
C573 H560 0.929 . S
C573 C565 1.425 1_455 S
C573 N575 1.384 . S
N574 C570 1.427 . S
N574 C571 1.384 . S
N575 C567 1.427 . S
N575 C573 1.384 . S
C259 C2 1.326 . S
C263 C243 1.382 . S
C277 C22 1.355 . S
C281 C179 1.410 . S
C295 C44 1.378 . S
C299 C211 1.448 . S
C313 C4 1.533 . S
C317 C237 1.600 . S
C335 C173 1.583 . S
C331 C24 1.538 . S
C353 C205 1.549 . S
C349 C42 1.465 . S
C367 C32 1.319 . S
C371 C115 1.327 . S
C385 C49 1.252 . S
C389 C147 1.247 . S
C403 C9 1.236 . S
C407 C77 1.232 . S
C425 C109 1.254 . S
C421 C29 1.204 . S
C443 C141 1.311 . S
C439 C52 1.257 . S
C457 C12 1.258 . S
C461 C83 1.272 . S
C479 C153 1.424 . S
C475 C18 1.435 1_455 S
C493 C38 1.422 . S
C497 C89 1.407 . S
C511 C58 1.425 . S
C515 C121 1.433 . S
C533 C217 1.473 . S
C529 C39 1.485 . S
C551 C249 1.470 . S
C547 C59 1.465 . S
C565 C19 1.474 1_655 S
C569 C185 1.462 . S
