# Generated by pormake.
# Topology pyr, (3,6)-cn, num edge types: 1
# Building blocks:
#     Node 0, Type 0, BuildingBlock: MIDCAF_clean_linker_0, # of connection points: 3
#     Node 1, Type 0, BuildingBlock: MIDCAF_clean_linker_0, # of connection points: 3
#     Node 2, Type 0, BuildingBlock: MIDCAF_clean_linker_0, # of connection points: 3
#     Node 3, Type 0, BuildingBlock: MIDCAF_clean_linker_0, # of connection points: 3
#     Node 4, Type 0, BuildingBlock: MIDCAF_clean_linker_0, # of connection points: 3
#     Node 5, Type 0, BuildingBlock: MIDCAF_clean_linker_0, # of connection points: 3
#     Node 6, Type 0, BuildingBlock: MIDCAF_clean_linker_0, # of connection points: 3
#     Node 7, Type 0, BuildingBlock: MIDCAF_clean_linker_0, # of connection points: 3
#     Node 8, Type 1, BuildingBlock: MIDCAF_clean_sbu_0, # of connection points: 6
#     Node 9, Type 1, BuildingBlock: MIDCAF_clean_sbu_0, # of connection points: 6
#     Node 10, Type 1, BuildingBlock: MIDCAF_clean_sbu_0, # of connection points: 6
#     Node 11, Type 1, BuildingBlock: MIDCAF_clean_sbu_0, # of connection points: 6
#     Edge 12, Type (0, 1), BuildingBlock: KIFKEQ_clean_linker_1, # of connection points: 2
#     Edge 13, Type (0, 1), BuildingBlock: KIFKEQ_clean_linker_1, # of connection points: 2
#     Edge 14, Type (0, 1), BuildingBlock: KIFKEQ_clean_linker_1, # of connection points: 2
#     Edge 15, Type (0, 1), BuildingBlock: KIFKEQ_clean_linker_1, # of connection points: 2
#     Edge 16, Type (0, 1), BuildingBlock: KIFKEQ_clean_linker_1, # of connection points: 2
#     Edge 17, Type (0, 1), BuildingBlock: KIFKEQ_clean_linker_1, # of connection points: 2
#     Edge 18, Type (0, 1), BuildingBlock: KIFKEQ_clean_linker_1, # of connection points: 2
#     Edge 19, Type (0, 1), BuildingBlock: KIFKEQ_clean_linker_1, # of connection points: 2
#     Edge 20, Type (0, 1), BuildingBlock: KIFKEQ_clean_linker_1, # of connection points: 2
#     Edge 21, Type (0, 1), BuildingBlock: KIFKEQ_clean_linker_1, # of connection points: 2
#     Edge 22, Type (0, 1), BuildingBlock: KIFKEQ_clean_linker_1, # of connection points: 2
#     Edge 23, Type (0, 1), BuildingBlock: KIFKEQ_clean_linker_1, # of connection points: 2
#     Edge 24, Type (0, 1), BuildingBlock: KIFKEQ_clean_linker_1, # of connection points: 2
#     Edge 25, Type (0, 1), BuildingBlock: KIFKEQ_clean_linker_1, # of connection points: 2
#     Edge 26, Type (0, 1), BuildingBlock: KIFKEQ_clean_linker_1, # of connection points: 2
#     Edge 27, Type (0, 1), BuildingBlock: KIFKEQ_clean_linker_1, # of connection points: 2
#     Edge 28, Type (0, 1), BuildingBlock: KIFKEQ_clean_linker_1, # of connection points: 2
#     Edge 29, Type (0, 1), BuildingBlock: KIFKEQ_clean_linker_1, # of connection points: 2
#     Edge 30, Type (0, 1), BuildingBlock: KIFKEQ_clean_linker_1, # of connection points: 2
#     Edge 31, Type (0, 1), BuildingBlock: KIFKEQ_clean_linker_1, # of connection points: 2
#     Edge 32, Type (0, 1), BuildingBlock: KIFKEQ_clean_linker_1, # of connection points: 2
#     Edge 33, Type (0, 1), BuildingBlock: KIFKEQ_clean_linker_1, # of connection points: 2
#     Edge 34, Type (0, 1), BuildingBlock: KIFKEQ_clean_linker_1, # of connection points: 2
#     Edge 35, Type (0, 1), BuildingBlock: KIFKEQ_clean_linker_1, # of connection points: 2
# Relax obj value: 0.019
# Max RMSD: 0.062
# Mean RMSD: 0.023
data_MOF--net-pyr--node1-MIDCAF_clean_sbu_0--node2-MIDCAF_clean_linker_0--edge1-KIFKEQ_clean_linker_1
_symmetry_space_group_name_H-M    P1
_symmetry_Int_Tables_number       1
_symmetry_cell_setting            triclinic
loop_
_symmetry_equiv_pos_as_xyz
'x, y, z'
_cell_length_a     44.157693
_cell_length_b     44.265598
_cell_length_c     44.253187
_cell_angle_alpha  89.869796
_cell_angle_beta   90.172503
_cell_angle_gamma 90.239644
loop_
_atom_site_label
_atom_site_type_symbol
_atom_site_fract_x
_atom_site_fract_y
_atom_site_fract_z
_atom_type_partial_charge
C0 C 0.17905 0.22502 0.33379 0.0
C1 C 0.18898 0.19709 0.34513 0.0
C2 C 0.21616 0.18497 0.33405 0.0
C3 C 0.2323 0.1998 0.31118 0.0
H4 H 0.30516 0.19014 0.25311 0.0
H5 H 0.34389 0.16237 0.22554 0.0
H6 H 0.34007 0.22828 0.15361 0.0
H7 H 0.30131 0.25594 0.18078 0.0
H8 H 0.24786 0.30256 0.17754 0.0
H9 H 0.21835 0.34074 0.15067 0.0
H10 H 0.16031 0.35018 0.2284 0.0
H11 H 0.18925 0.31192 0.25506 0.0
H12 H 0.18635 0.26102 0.30244 0.0
H13 H 0.15846 0.2352 0.34218 0.0
H14 H 0.22431 0.16336 0.34214 0.0
H15 H 0.2526 0.1893 0.30251 0.0
N16 N 0.2615 0.22852 0.25964 0.0
N17 N 0.26094 0.26509 0.22112 0.0
N18 N 0.22428 0.26609 0.25921 0.0
C19 C 0.27388 0.24037 0.23407 0.0
C20 C 0.23621 0.27819 0.23364 0.0
C21 C 0.23671 0.24135 0.27243 0.0
C22 C 0.29971 0.22513 0.21904 0.0
C23 C 0.31277 0.19894 0.23156 0.0
C24 C 0.33513 0.18308 0.21587 0.0
C25 C 0.3448 0.19298 0.18728 0.0
C26 C 0.33274 0.21984 0.1754 0.0
C27 C 0.31054 0.23574 0.19108 0.0
C28 C 0.22073 0.30378 0.21836 0.0
C29 C 0.22901 0.313 0.18904 0.0
C30 C 0.21218 0.33498 0.17364 0.0
C31 C 0.18673 0.34817 0.18724 0.0
C32 C 0.17939 0.33998 0.21704 0.0
C33 C 0.19612 0.31807 0.23238 0.0
C34 C 0.22164 0.22713 0.29891 0.0
C35 C 0.19518 0.23988 0.31103 0.0
C36 C 0.21809 0.86155 0.70774 0.0
C37 C 0.20726 0.85111 0.67974 0.0
C38 C 0.21793 0.82339 0.66868 0.0
C39 C 0.2398 0.80708 0.68461 0.0
H40 H 0.29711 0.73619 0.67443 0.0
H41 H 0.32271 0.6952 0.64841 0.0
H42 H 0.38835 0.69009 0.72077 0.0
H43 H 0.36259 0.73069 0.74712 0.0
H44 H 0.36596 0.78279 0.7951 0.0
H45 H 0.3912 0.80751 0.83748 0.0
H46 H 0.31923 0.87313 0.84148 0.0
H47 H 0.29374 0.84833 0.79952 0.0
H48 H 0.24847 0.85441 0.74479 0.0
H49 H 0.21047 0.88292 0.71678 0.0
H50 H 0.20966 0.81447 0.64741 0.0
H51 H 0.24789 0.78614 0.675 0.0
N52 N 0.28926 0.77711 0.71484 0.0
N53 N 0.32557 0.77503 0.75352 0.0
N54 N 0.28921 0.81349 0.75323 0.0
C55 C 0.31353 0.76334 0.72775 0.0
C56 C 0.31351 0.80003 0.76648 0.0
C57 C 0.27689 0.80214 0.72745 0.0
C58 C 0.32785 0.73698 0.71285 0.0
C59 C 0.31685 0.72621 0.68499 0.0
C60 C 0.3316 0.70277 0.66995 0.0
C61 C 0.35766 0.68947 0.68242 0.0
C62 C 0.36815 0.69961 0.71068 0.0
C63 C 0.35344 0.72308 0.7257 0.0
C64 C 0.32784 0.81363 0.79367 0.0
C65 C 0.35531 0.8023 0.80517 0.0
C66 C 0.3699 0.81655 0.8294 0.0
C67 C 0.35728 0.84233 0.84281 0.0
C68 C 0.32939 0.8531 0.83192 0.0
C69 C 0.31487 0.83896 0.80765 0.0
C70 C 0.25161 0.81808 0.71204 0.0
C71 C 0.24004 0.84524 0.7237 0.0
C72 C 0.70825 0.20333 0.85484 0.0
C73 C 0.68317 0.19022 0.84019 0.0
C74 C 0.67623 0.19949 0.81055 0.0
C75 C 0.69292 0.22244 0.79653 0.0
H76 H 0.70269 0.27647 0.71491 0.0
H77 H 0.67997 0.30172 0.67138 0.0
H78 H 0.71053 0.3879 0.70629 0.0
H79 H 0.73464 0.36246 0.74837 0.0
H80 H 0.79592 0.35743 0.79039 0.0
H81 H 0.83275 0.38457 0.82128 0.0
H82 H 0.83231 0.31148 0.88609 0.0
H83 H 0.79514 0.2845 0.85562 0.0
H84 H 0.7435 0.23651 0.85326 0.0
H85 H 0.71411 0.19695 0.87776 0.0
H86 H 0.6574 0.18945 0.79839 0.0
H87 H 0.68631 0.22957 0.77404 0.0
N88 N 0.72165 0.2763 0.77263 0.0
N89 N 0.7568 0.31592 0.77739 0.0
N90 N 0.75546 0.27725 0.81359 0.0
C91 C 0.73379 0.30247 0.76193 0.0
C92 C 0.76798 0.30332 0.8031 0.0
C93 C 0.73233 0.26355 0.79852 0.0
C94 C 0.72061 0.31744 0.73499 0.0
C95 C 0.70474 0.30079 0.71301 0.0
C96 C 0.69151 0.31536 0.68815 0.0
C97 C 0.69334 0.347 0.685 0.0
C98 C 0.70922 0.36349 0.70721 0.0
C99 C 0.72295 0.3489 0.73162 0.0
C100 C 0.79223 0.31884 0.8206 0.0
C101 C 0.80379 0.34698 0.81111 0.0
C102 C 0.82509 0.36251 0.82873 0.0
C103 C 0.83532 0.3503 0.85626 0.0
C104 C 0.82452 0.32175 0.86524 0.0
C105 C 0.80326 0.30621 0.84766 0.0
C106 C 0.71705 0.23666 0.81177 0.0
C107 C 0.72502 0.22623 0.84079 0.0
C108 C 0.70304 0.71543 0.35434 0.0
C109 C 0.69331 0.68758 0.34245 0.0
C110 C 0.707 0.67681 0.31597 0.0
C111 C 0.73018 0.69326 0.30198 0.0
H112 H 0.78849 0.69023 0.23037 0.0
H113 H 0.8162 0.66768 0.18876 0.0
H114 H 0.87822 0.74339 0.18853 0.0
H115 H 0.85094 0.76576 0.23055 0.0
H116 H 0.85038 0.81138 0.28313 0.0
H117 H 0.87875 0.84885 0.31164 0.0
H118 H 0.81921 0.83588 0.38782 0.0
H119 H 0.79031 0.79843 0.35914 0.0
H120 H 0.73352 0.75292 0.35058 0.0
H121 H 0.69323 0.72421 0.37491 0.0
H122 H 0.69982 0.65559 0.30608 0.0
H123 H 0.74038 0.68405 0.28179 0.0
N124 N 0.77859 0.72751 0.27408 0.0
N125 N 0.81501 0.76605 0.27617 0.0
N126 N 0.77873 0.76176 0.31451 0.0
C127 C 0.80292 0.74177 0.26176 0.0
C128 C 0.80311 0.77627 0.30249 0.0
C129 C 0.76622 0.73742 0.30035 0.0
C130 C 0.81764 0.72967 0.23418 0.0
C131 C 0.80781 0.70231 0.22128 0.0
C132 C 0.82361 0.68944 0.19721 0.0
C133 C 0.84958 0.70362 0.1854 0.0
C134 C 0.8586 0.73163 0.1974 0.0
C135 C 0.84284 0.7445 0.22148 0.0
C136 C 0.81822 0.80147 0.31891 0.0
C137 C 0.84303 0.8166 0.30585 0.0
C138 C 0.85943 0.83808 0.32224 0.0
C139 C 0.8515 0.84505 0.35214 0.0
C140 C 0.82582 0.83109 0.36478 0.0
C141 C 0.80935 0.8095 0.34835 0.0
C142 C 0.74042 0.72082 0.31424 0.0
C143 C 0.72633 0.73181 0.34046 0.0
C144 C 0.80883 0.97527 0.90581 0.0
C145 C 0.79274 0.96731 0.93201 0.0
C146 C 0.80395 0.9439 0.95039 0.0
C147 C 0.83041 0.9286 0.94262 0.0
H148 H 0.88272 0.85557 0.96742 0.0
H149 H 0.89812 0.81028 0.99495 0.0
H150 H 0.97173 0.79767 0.93221 0.0
H151 H 0.95697 0.84297 0.90522 0.0
H152 H 0.97008 0.89222 0.85464 0.0
H153 H 0.9951 0.90327 0.80665 0.0
H154 H 0.91905 0.95799 0.7794 0.0
H155 H 0.89398 0.94713 0.82717 0.0
H156 H 0.84704 0.96667 0.87758 0.0
H157 H 0.80097 0.99338 0.89133 0.0
H158 H 0.79187 0.93686 0.9705 0.0
H159 H 0.8381 0.9105 0.9572 0.0
N160 N 0.88374 0.89565 0.92445 0.0
N161 N 0.9236 0.8876 0.89058 0.0
N162 N 0.88915 0.92679 0.88183 0.0
C163 C 0.90858 0.87967 0.91618 0.0
C164 C 0.91406 0.9111 0.87329 0.0
C165 C 0.87392 0.91934 0.90746 0.0
C166 C 0.91853 0.853 0.934 0.0
C167 C 0.90235 0.84329 0.95964 0.0
C168 C 0.91107 0.81722 0.97536 0.0
C169 C 0.9362 0.80035 0.96586 0.0
C170 C 0.95259 0.81036 0.94052 0.0
C171 C 0.94392 0.83632 0.92486 0.0
C172 C 0.92993 0.9187 0.84476 0.0
C173 C 0.95869 0.90667 0.83846 0.0
C174 C 0.97312 0.91307 0.81105 0.0
C175 C 0.95891 0.93127 0.78925 0.0
C176 C 0.93035 0.94354 0.79566 0.0
C177 C 0.91609 0.93747 0.82314 0.0
C178 C 0.84636 0.9363 0.91623 0.0
C179 C 0.83535 0.95999 0.89804 0.0
C180 C 0.61276 0.09561 0.29673 0.0
C181 C 0.58416 0.10747 0.28959 0.0
C182 C 0.56917 0.12527 0.31103 0.0
C183 C 0.58289 0.13167 0.33884 0.0
H184 H 0.5862 0.1986 0.40246 0.0
H185 H 0.57055 0.24357 0.4291 0.0
H186 H 0.63672 0.22585 0.49899 0.0
H187 H 0.65314 0.18088 0.47177 0.0
H188 H 0.70178 0.12996 0.45989 0.0
H189 H 0.74763 0.10369 0.47475 0.0
H190 H 0.73706 0.04291 0.39917 0.0
H191 H 0.6914 0.06964 0.38376 0.0
H192 H 0.64847 0.09232 0.32927 0.0
H193 H 0.62465 0.0815 0.28073 0.0
H194 H 0.54712 0.13473 0.30605 0.0
H195 H 0.57092 0.1458 0.35476 0.0
N196 N 0.61693 0.15129 0.39159 0.0
N197 N 0.65561 0.14301 0.427 0.0
N198 N 0.65121 0.11169 0.38451 0.0
C199 C 0.63123 0.1592 0.41765 0.0
C200 C 0.6657 0.11914 0.41061 0.0
C201 C 0.62674 0.1276 0.3749 0.0
C202 C 0.62097 0.18598 0.4349 0.0
C203 C 0.59742 0.20406 0.42357 0.0
C204 C 0.58826 0.22985 0.43901 0.0
C205 C 0.6022 0.23824 0.46636 0.0
C206 C 0.62566 0.22015 0.47787 0.0
C207 C 0.63495 0.19428 0.46231 0.0
C208 C 0.69286 0.10208 0.42052 0.0
C209 C 0.70904 0.11092 0.44645 0.0
C210 C 0.73529 0.09567 0.45514 0.0
C211 C 0.74602 0.07112 0.43819 0.0
C212 C 0.72961 0.06194 0.41253 0.0
C213 C 0.70333 0.07722 0.40379 0.0
C214 C 0.61167 0.12002 0.34591 0.0
C215 C 0.6263 0.10165 0.32464 0.0
C216 C 0.30542 0.56583 0.13316 0.0
C217 C 0.28088 0.57982 0.11862 0.0
C218 C 0.28367 0.61008 0.10944 0.0
C219 C 0.31032 0.62619 0.1149 0.0
H220 H 0.37325 0.69056 0.07323 0.0
H221 H 0.38381 0.73793 0.04643 0.0
H222 H 0.43298 0.77096 0.12412 0.0
H223 H 0.42295 0.72369 0.15076 0.0
H224 H 0.44012 0.67574 0.20372 0.0
H225 H 0.47063 0.66095 0.24753 0.0
H226 H 0.44616 0.56764 0.23289 0.0
H227 H 0.41524 0.5823 0.18944 0.0
H228 H 0.35045 0.57095 0.15078 0.0
H229 H 0.3038 0.54248 0.14038 0.0
H230 H 0.26521 0.62127 0.0978 0.0
H231 H 0.31151 0.64957 0.10769 0.0
N232 N 0.36766 0.6569 0.12249 0.0
N233 N 0.41016 0.66577 0.15312 0.0
N234 N 0.38124 0.62167 0.15977 0.0
C235 C 0.39165 0.67458 0.1302 0.0
C236 C 0.40524 0.63925 0.16784 0.0
C237 C 0.36221 0.63048 0.13725 0.0
C238 C 0.39733 0.70337 0.1141 0.0
C239 C 0.38621 0.708 0.08463 0.0
C240 C 0.39229 0.735 0.06924 0.0
C241 C 0.40901 0.75807 0.08332 0.0
C242 C 0.41973 0.75362 0.1129 0.0
C243 C 0.41417 0.72648 0.12805 0.0
C244 C 0.42515 0.63017 0.19321 0.0
C245 C 0.44146 0.65203 0.20968 0.0
C246 C 0.45885 0.64364 0.23477 0.0
C247 C 0.46079 0.61319 0.24344 0.0
C248 C 0.44526 0.59125 0.22646 0.0
C249 C 0.42739 0.59967 0.20175 0.0
C250 C 0.33472 0.61255 0.13007 0.0
C251 C 0.33202 0.58215 0.13912 0.0
C252 C 0.13519 0.31264 0.56892 0.0
C253 C 0.10953 0.29583 0.57754 0.0
C254 C 0.09284 0.30538 0.60277 0.0
C255 C 0.10162 0.33093 0.61908 0.0
H256 H 0.07365 0.38736 0.68803 0.0
H257 H 0.04724 0.39911 0.73504 0.0
H258 H 0.12168 0.45649 0.76226 0.0
H259 H 0.1481 0.44494 0.71558 0.0
H260 H 0.19053 0.46988 0.65586 0.0
H261 H 0.23845 0.49543 0.64433 0.0
H262 H 0.26781 0.41725 0.59444 0.0
H263 H 0.22 0.39182 0.60549 0.0
H264 H 0.16401 0.35053 0.57808 0.0
H265 H 0.14838 0.30609 0.54943 0.0
H266 H 0.07328 0.2927 0.61042 0.0
H267 H 0.0883 0.33729 0.63855 0.0
N268 N 0.12095 0.38297 0.65323 0.0
N269 N 0.15608 0.42157 0.66308 0.0
N270 N 0.16326 0.38916 0.6219 0.0
C271 C 0.13018 0.40665 0.67048 0.0
C272 C 0.17272 0.41301 0.63882 0.0
C273 C 0.1373 0.3741 0.62884 0.0
C274 C 0.11313 0.41506 0.69804 0.0
C275 C 0.08435 0.40259 0.70397 0.0
C276 C 0.06913 0.40938 0.73081 0.0
C277 C 0.08255 0.42845 0.75239 0.0
C278 C 0.11099 0.44135 0.74621 0.0
C279 C 0.12604 0.43486 0.71932 0.0
C280 C 0.20145 0.4288 0.63158 0.0
C281 C 0.20722 0.45814 0.64243 0.0
C282 C 0.23455 0.47282 0.6358 0.0
C283 C 0.25684 0.45819 0.61873 0.0
C284 C 0.25112 0.42888 0.60796 0.0
C285 C 0.22364 0.41444 0.61411 0.0
C286 C 0.12746 0.34759 0.61072 0.0
C287 C 0.14404 0.33823 0.5853 0.0
Zn288 Zn 0.9907 0.0553 0.55401 0.0
Zn289 Zn 0.05755 0.98999 0.48369 0.0
Zn290 Zn 0.02452 0.02092 0.51863 0.0
C291 C 0.0694 0.04841 0.46814 0.0
C292 C 0.99922 0.971 0.47234 0.0
O293 O 0.02855 0.00347 0.56562 0.0
O294 O 0.00267 0.03644 0.5928 0.0
C295 C 0.03102 0.09411 0.52621 0.0
O296 O 0.0556 0.05169 0.49357 0.0
O297 O 0.07032 0.0228 0.45573 0.0
O298 O 0.02587 0.96108 0.47008 0.0
O299 O 0.99422 0.99548 0.48725 0.0
O300 O 0.00818 0.09502 0.54322 0.0
O301 O 0.04039 0.06874 0.51549 0.0
O302 O 0.97686 0.01683 0.50308 0.0
O303 O 0.95106 0.0439 0.53625 0.0
C304 C 0.95161 0.02722 0.51319 0.0
O305 O 0.05088 0.98942 0.54749 0.0
O306 O 0.08668 0.97657 0.51526 0.0
C307 C 0.01858 0.01288 0.59129 0.0
C308 C 0.0763 0.97645 0.54181 0.0
Zn309 Zn 0.47816 0.05329 0.98536 0.0
Zn310 Zn 0.55232 0.98452 0.05026 0.0
Zn311 Zn 0.5166 0.02062 0.01726 0.0
C312 C 0.58865 0.01332 0.00692 0.0
C313 C 0.50849 0.94742 0.02571 0.0
O314 O 0.49304 0.05221 0.0486 0.0
O315 O 0.45645 0.07097 0.01998 0.0
C316 C 0.53726 0.06805 0.96632 0.0
O317 O 0.56313 0.02497 0.99895 0.0
O318 O 0.59025 0.99533 0.02902 0.0
O319 O 0.53251 0.94547 0.0411 0.0
O320 O 0.49973 0.97323 0.01531 0.0
O321 O 0.51028 0.07737 0.96479 0.0
O322 O 0.544 0.04543 0.98343 0.0
O323 O 0.48428 0.99024 0.99341 0.0
O324 O 0.45745 0.02006 0.96347 0.0
C325 C 0.464 0.99388 0.97268 0.0
O326 O 0.51592 0.03685 0.06462 0.0
O327 O 0.54381 0.00362 0.08977 0.0
C328 C 0.46897 0.06834 0.0455 0.0
C329 C 0.52769 0.0271 0.0895 0.0
Zn330 Zn 0.56076 0.54799 0.5466 0.0
Zn331 Zn 0.48412 0.48043 0.48044 0.0
Zn332 Zn 0.52199 0.51457 0.51204 0.0
C333 C 0.52433 0.44125 0.50817 0.0
C334 C 0.51173 0.52005 0.43974 0.0
O335 O 0.49542 0.5398 0.54577 0.0
O336 O 0.52896 0.56365 0.5745 0.0
C337 C 0.57892 0.48774 0.55085 0.0
O338 O 0.536 0.46671 0.51627 0.0
O339 O 0.50011 0.4405 0.49298 0.0
O340 O 0.49484 0.49697 0.4403 0.0
O341 O 0.5236 0.53024 0.46437 0.0
O342 O 0.58724 0.51373 0.55925 0.0
O343 O 0.55533 0.48435 0.53395 0.0
O344 O 0.54558 0.54651 0.48132 0.0
O345 O 0.57411 0.57389 0.51225 0.0
C346 C 0.56489 0.56799 0.48584 0.0
O347 O 0.47565 0.51936 0.53083 0.0
O348 O 0.44603 0.49402 0.49931 0.0
C349 C 0.50173 0.55745 0.56808 0.0
C350 C 0.44914 0.51015 0.52259 0.0
Zn351 Zn 0.04977 0.55424 0.98407 0.0
Zn352 Zn 0.97818 0.49296 0.05912 0.0
Zn353 Zn 0.01368 0.52179 0.02011 0.0
C354 C 0.03735 0.47749 0.0739 0.0
C355 C 0.96327 0.47382 0.99979 0.0
O356 O 0.99996 0.57014 0.02098 0.0
O357 O 0.03364 0.59487 0.9932 0.0
C358 C 0.08687 0.52662 0.02699 0.0
O359 O 0.04261 0.49725 0.05309 0.0
O360 O 0.01047 0.47015 0.08035 0.0
O361 O 0.95357 0.47341 0.02664 0.0
O362 O 0.98721 0.48912 0.99299 0.0
O363 O 0.08865 0.54222 0.00313 0.0
O364 O 0.0609 0.51735 0.03663 0.0
O365 O 0.00948 0.50272 0.97394 0.0
O366 O 0.03716 0.53405 0.94615 0.0
C367 C 0.02021 0.51111 0.94816 0.0
O368 O 0.98296 0.5546 0.04269 0.0
O369 O 0.96163 0.52873 0.07991 0.0
C370 C 0.01046 0.59497 0.00977 0.0
C371 C 0.96592 0.55342 0.0663 0.0
H372 H 0.20716 0.16542 0.39542 0.0
H373 H 0.12773 0.189 0.3434 0.0
H374 H 0.17605 0.13291 0.42776 0.0
H375 H 0.09671 0.15708 0.37599 0.0
H376 H 0.06704 0.0615 0.40856 0.0
H377 H 0.09445 0.10105 0.38149 0.0
H378 H 0.13286 0.13246 0.46571 0.0
H379 H 0.10562 0.09214 0.4927 0.0
C380 C 0.18305 0.16391 0.3911 0.0
C381 C 0.16995 0.17967 0.36675 0.0
C382 C 0.1652 0.14556 0.4098 0.0
C383 C 0.13397 0.14237 0.40432 0.0
C384 C 0.12076 0.15892 0.38062 0.0
C385 C 0.13851 0.1774 0.36211 0.0
C386 C 0.08103 0.07713 0.4213 0.0
C387 C 0.08386 0.07424 0.45275 0.0
C388 C 0.09658 0.09987 0.40586 0.0
C389 C 0.11569 0.11998 0.42149 0.0
C390 C 0.11827 0.1173 0.45309 0.0
C391 C 0.10237 0.09462 0.4686 0.0
H392 H 0.33419 0.86714 0.89445 0.0
H393 H 0.41777 0.85571 0.84541 0.0
H394 H 0.36023 0.89983 0.93056 0.0
H395 H 0.44376 0.88842 0.8814 0.0
H396 H 0.48698 0.93799 0.95984 0.0
H397 H 0.4613 0.89651 0.93348 0.0
H398 H 0.38046 0.95082 0.92648 0.0
H399 H 0.40576 0.99153 0.95361 0.0
C400 C 0.35816 0.87145 0.89149 0.0
C401 C 0.37382 0.85909 0.86687 0.0
C402 C 0.37309 0.89015 0.91219 0.0
C403 C 0.40402 0.89697 0.90871 0.0
C404 C 0.42002 0.88337 0.88496 0.0
C405 C 0.40509 0.86464 0.86428 0.0
C406 C 0.46347 0.94062 0.95337 0.0
C407 C 0.44821 0.96777 0.95906 0.0
C408 C 0.44888 0.91706 0.93797 0.0
C409 C 0.4188 0.92033 0.9279 0.0
C410 C 0.40343 0.9473 0.93433 0.0
C411 C 0.41801 0.97076 0.94962 0.0
H412 H 0.71201 0.39863 0.65584 0.0
H413 H 0.64022 0.33191 0.65538 0.0
H414 H 0.68455 0.42842 0.61949 0.0
H415 H 0.61419 0.36014 0.61613 0.0
H416 H 0.55603 0.43963 0.58139 0.0
H417 H 0.58457 0.40177 0.60938 0.0
H418 H 0.66789 0.43781 0.57218 0.0
H419 H 0.6391 0.47712 0.54659 0.0
C420 C 0.69047 0.39005 0.64779 0.0
C421 C 0.67817 0.36305 0.65935 0.0
C422 C 0.67487 0.40694 0.62616 0.0
C423 C 0.64681 0.397 0.61459 0.0
C424 C 0.63533 0.36907 0.62484 0.0
C425 C 0.65062 0.35249 0.64711 0.0
C426 C 0.58043 0.43901 0.57902 0.0
C427 C 0.59552 0.46134 0.56228 0.0
C428 C 0.59693 0.41718 0.59491 0.0
C429 C 0.62887 0.41688 0.59382 0.0
C430 C 0.64354 0.43786 0.57475 0.0
C431 C 0.62708 0.46021 0.55969 0.0
H432 H 0.8308 0.6711 0.13587 0.0
H433 H 0.91132 0.70039 0.18337 0.0
H434 H 0.86184 0.63957 0.10306 0.0
H435 H 0.94227 0.66972 0.15003 0.0
H436 H 0.97262 0.57275 0.12342 0.0
H437 H 0.9466 0.61431 0.14808 0.0
H438 H 0.90276 0.63711 0.06366 0.0
H439 H 0.92871 0.59467 0.03914 0.0
C440 C 0.85514 0.67119 0.13901 0.0
C441 C 0.86851 0.68801 0.16249 0.0
C442 C 0.87295 0.65341 0.11997 0.0
C443 C 0.90449 0.65198 0.12413 0.0
C444 C 0.91799 0.67012 0.14648 0.0
C445 C 0.90023 0.68791 0.16543 0.0
C446 C 0.95784 0.58703 0.11006 0.0
C447 C 0.95292 0.58097 0.07937 0.0
C448 C 0.94308 0.61094 0.12408 0.0
C449 C 0.92271 0.62912 0.10779 0.0
C450 C 0.91832 0.62347 0.07678 0.0
C451 C 0.9334 0.59955 0.06265 0.0
H452 H 0.33856 0.17873 0.12794 0.0
H453 H 0.39739 0.16446 0.20476 0.0
H454 H 0.37074 0.1467 0.09726 0.0
H455 H 0.42976 0.13183 0.17376 0.0
H456 H 0.49273 0.10744 0.08744 0.0
H457 H 0.46438 0.13619 0.12545 0.0
H458 H 0.38209 0.09095 0.0977 0.0
H459 H 0.41047 0.06211 0.06053 0.0
C460 C 0.35856 0.16896 0.13821 0.0
C461 C 0.36548 0.17422 0.16875 0.0
C462 C 0.37683 0.15034 0.12071 0.0
C463 C 0.40259 0.13654 0.13322 0.0
C464 C 0.41002 0.1422 0.16359 0.0
C465 C 0.39144 0.16069 0.18131 0.0
C466 C 0.46889 0.10281 0.09054 0.0
C467 C 0.45383 0.08228 0.07156 0.0
C468 C 0.4526 0.11945 0.11197 0.0
C469 C 0.42098 0.11602 0.11425 0.0
C470 C 0.40635 0.09438 0.09615 0.0
C471 C 0.42257 0.0778 0.075 0.0
H472 H 0.21044 0.8619 0.61924 0.0
H473 H 0.15733 0.88312 0.69816 0.0
H474 H 0.17767 0.8935 0.58845 0.0
H475 H 0.12472 0.91561 0.6672 0.0
H476 H 0.05601 0.94098 0.58831 0.0
H477 H 0.08672 0.91204 0.62435 0.0
H478 H 0.16792 0.94778 0.58314 0.0
H479 H 0.13717 0.9768 0.54778 0.0
C480 C 0.19161 0.87316 0.63 0.0
C481 C 0.18645 0.86989 0.66115 0.0
C482 C 0.17304 0.8916 0.6124 0.0
C483 C 0.14879 0.9073 0.62545 0.0
C484 C 0.14322 0.90374 0.65652 0.0
C485 C 0.16199 0.88534 0.67425 0.0
C486 C 0.08032 0.94345 0.58787 0.0
C487 C 0.09417 0.96146 0.56571 0.0
C488 C 0.09796 0.92666 0.60821 0.0
C489 C 0.12976 0.9274 0.60638 0.0
C490 C 0.14349 0.9463 0.5848 0.0
C491 C 0.1259 0.96301 0.56465 0.0
H492 H 0.83169 0.3564 0.91744 0.0
H493 H 0.8851 0.38441 0.8406 0.0
H494 H 0.86386 0.38636 0.95058 0.0
H495 H 0.91693 0.41532 0.87389 0.0
H496 H 0.98445 0.44001 0.95278 0.0
H497 H 0.95466 0.41078 0.91614 0.0
H498 H 0.8725 0.44001 0.95984 0.0
H499 H 0.90236 0.46941 0.9957 0.0
C500 C 0.85046 0.36878 0.90763 0.0
C501 C 0.85583 0.36795 0.87636 0.0
C502 C 0.86869 0.38628 0.9266 0.0
C503 C 0.89278 0.40346 0.91483 0.0
C504 C 0.8986 0.40225 0.88364 0.0
C505 C 0.88022 0.38477 0.86457 0.0
C506 C 0.96008 0.44094 0.9537 0.0
C507 C 0.94575 0.45742 0.97653 0.0
C508 C 0.94298 0.42396 0.93304 0.0
C509 C 0.9112 0.42293 0.93521 0.0
C510 C 0.89694 0.4399 0.95784 0.0
C511 C 0.91402 0.45683 0.97831 0.0
H512 H 0.69328 0.62669 0.35333 0.0
H513 H 0.64048 0.70722 0.36787 0.0
H514 H 0.65767 0.59766 0.38389 0.0
H515 H 0.60463 0.67814 0.39821 0.0
H516 H 0.57965 0.62732 0.48615 0.0
H517 H 0.60685 0.65574 0.4477 0.0
H518 H 0.60674 0.57715 0.3899 0.0
H519 H 0.58022 0.54835 0.42922 0.0
C520 C 0.67371 0.63807 0.36252 0.0
C521 C 0.6699 0.66935 0.35843 0.0
C522 C 0.65321 0.6214 0.38 0.0
C523 C 0.62837 0.63559 0.39373 0.0
C524 C 0.62382 0.6666 0.38844 0.0
C525 C 0.64437 0.68329 0.37108 0.0
C526 C 0.58508 0.61624 0.46505 0.0
C527 C 0.57761 0.58573 0.46053 0.0
C528 C 0.60047 0.63259 0.44287 0.0
C529 C 0.60899 0.61879 0.41562 0.0
C530 C 0.60073 0.58841 0.41072 0.0
C531 C 0.58525 0.572 0.43304 0.0
H532 H 0.20275 0.39491 0.14915 0.0
H533 H 0.12519 0.34789 0.18584 0.0
H534 H 0.16878 0.42911 0.12169 0.0
H535 H 0.09159 0.38157 0.15856 0.0
H536 H 0.03773 0.46214 0.13298 0.0
H537 H 0.07588 0.4335 0.1604 0.0
H538 H 0.13107 0.43014 0.08 0.0
H539 H 0.09268 0.45938 0.05259 0.0
C540 C 0.1785 0.39181 0.15125 0.0
C541 C 0.16666 0.36897 0.17003 0.0
C542 C 0.15908 0.41136 0.13553 0.0
C543 C 0.12747 0.40836 0.13827 0.0
C544 C 0.11579 0.3851 0.15657 0.0
C545 C 0.13509 0.36573 0.17224 0.0
C546 C 0.05815 0.45553 0.12125 0.0
C547 C 0.06229 0.46296 0.09071 0.0
C548 C 0.07996 0.439 0.1369 0.0
C549 C 0.10632 0.42908 0.12227 0.0
C550 C 0.11109 0.43756 0.09197 0.0
C551 C 0.08917 0.45431 0.07628 0.0
H552 H 0.62143 0.18858 0.83907 0.0
H553 H 0.69875 0.14415 0.87916 0.0
H554 H 0.58768 0.15707 0.8689 0.0
H555 H 0.66468 0.11315 0.91 0.0
H556 H 0.58752 0.04508 0.93851 0.0
H557 H 0.62461 0.0726 0.90761 0.0
H558 H 0.57504 0.15516 0.92249 0.0
H559 H 0.53876 0.12778 0.95354 0.0
C560 C 0.63127 0.17181 0.85395 0.0
C561 C 0.66285 0.16897 0.85671 0.0
C562 C 0.61189 0.15399 0.87138 0.0
C563 C 0.62351 0.13291 0.89214 0.0
C564 C 0.65505 0.12919 0.89419 0.0
C565 C 0.67454 0.14713 0.87672 0.0
C566 C 0.58527 0.0692 0.93586 0.0
C567 C 0.56068 0.08433 0.94883 0.0
C568 C 0.60621 0.08493 0.91792 0.0
C569 C 0.60258 0.11603 0.91236 0.0
C570 C 0.57818 0.13113 0.92582 0.0
C571 C 0.55746 0.11546 0.94373 0.0
H572 H 0.91301 0.84461 0.35496 0.0
H573 H 0.83503 0.89039 0.3913 0.0
H574 H 0.94623 0.87612 0.38548 0.0
H575 H 0.86862 0.92183 0.4226 0.0
H576 H 0.94819 0.99221 0.44408 0.0
H577 H 0.9097 0.96258 0.41691 0.0
H578 H 0.95762 0.88078 0.43988 0.0
H579 H 0.99529 0.9103 0.46731 0.0
C580 C 0.90295 0.86159 0.36932 0.0
C581 C 0.87136 0.86506 0.37059 0.0
C582 C 0.92199 0.87943 0.3871 0.0
C583 C 0.91003 0.90128 0.40666 0.0
C584 C 0.87846 0.9052 0.40769 0.0
C585 C 0.85927 0.88709 0.38996 0.0
C586 C 0.94971 0.96788 0.44419 0.0
C587 C 0.97438 0.95357 0.45814 0.0
C588 C 0.92794 0.95091 0.4284 0.0
C589 C 0.93082 0.91935 0.42602 0.0
C590 C 0.95504 0.90508 0.44086 0.0
C591 C 0.97657 0.92198 0.45663 0.0
H592 H 0.38359 0.63758 0.70423 0.0
H593 H 0.3708 0.68898 0.62212 0.0
H594 H 0.41524 0.60181 0.67688 0.0
H595 H 0.40245 0.65342 0.59488 0.0
H596 H 0.44592 0.57488 0.54801 0.0
H597 H 0.40727 0.60238 0.57599 0.0
H598 H 0.46536 0.60285 0.65478 0.0
H599 H 0.50323 0.57417 0.62715 0.0
C600 C 0.38748 0.6412 0.68033 0.0
C601 C 0.37479 0.66622 0.6654 0.0
C602 C 0.4056 0.62071 0.66466 0.0
C603 C 0.4115 0.6248 0.6337 0.0
C604 C 0.39802 0.64929 0.61859 0.0
C605 C 0.37987 0.66973 0.63424 0.0
C606 C 0.44996 0.58006 0.57157 0.0
C607 C 0.47733 0.57194 0.58556 0.0
C608 C 0.42804 0.59622 0.58748 0.0
C609 C 0.43322 0.60491 0.61763 0.0
C610 C 0.46039 0.59617 0.63176 0.0
C611 C 0.48222 0.57995 0.61587 0.0
H612 H 0.01738 0.94906 0.77842 0.0
H613 H 0.93322 0.92726 0.73347 0.0
H614 H 0.03979 0.96308 0.7297 0.0
H615 H 0.95531 0.94147 0.6851 0.0
H616 H 0.00269 0.95428 0.59888 0.0
H617 H 0.99432 0.9285 0.64712 0.0
H618 H 0.02965 0.00634 0.69444 0.0
H619 H 0.03841 0.03172 0.64613 0.0
C620 C 0.00386 0.94685 0.75808 0.0
C621 C 0.97348 0.93737 0.7597 0.0
C622 C 0.01662 0.95497 0.73027 0.0
C623 C 0.99935 0.95331 0.70357 0.0
C624 C 0.96937 0.94261 0.70516 0.0
C625 C 0.95657 0.93484 0.73291 0.0
C626 C 0.00993 0.96521 0.61958 0.0
C627 C 0.0217 0.99467 0.61892 0.0
C628 C 0.00479 0.95067 0.64717 0.0
C629 C 0.01106 0.96551 0.67457 0.0
C630 C 0.02487 0.99418 0.67374 0.0
C631 C 0.02987 0.00873 0.64614 0.0
H632 H 0.52647 0.08808 0.27741 0.0
H633 H 0.61064 0.1129 0.23444 0.0
H634 H 0.50531 0.07383 0.22814 0.0
H635 H 0.58971 0.09858 0.18546 0.0
H636 H 0.54229 0.08589 0.09818 0.0
H637 H 0.55002 0.11105 0.14685 0.0
H638 H 0.51833 0.03089 0.19299 0.0
H639 H 0.51033 0.0061 0.1443 0.0
C640 C 0.54024 0.09091 0.25737 0.0
C641 C 0.57027 0.1013 0.2597 0.0
C642 C 0.52819 0.08268 0.22926 0.0
C643 C 0.54583 0.08516 0.20297 0.0
C644 C 0.57541 0.09678 0.20524 0.0
C645 C 0.58754 0.10463 0.2333 0.0
C646 C 0.53577 0.07425 0.11873 0.0
C647 C 0.52524 0.04437 0.11767 0.0
C648 C 0.54054 0.08845 0.14655 0.0
C649 C 0.53495 0.07286 0.17371 0.0
C650 C 0.52253 0.0436 0.17247 0.0
C651 C 0.518 0.02938 0.14467 0.0
H652 H 0.45457 0.6367 0.29977 0.0
H653 H 0.50369 0.56945 0.24966 0.0
H654 H 0.47521 0.61693 0.34686 0.0
H655 H 0.52575 0.5504 0.29658 0.0
H656 H 0.51174 0.49523 0.38398 0.0
H657 H 0.50668 0.52104 0.33596 0.0
H658 H 0.51478 0.60719 0.38132 0.0
H659 H 0.51788 0.58093 0.42989 0.0
C660 C 0.47054 0.61822 0.29885 0.0
C661 C 0.47726 0.60431 0.27122 0.0
C662 C 0.48258 0.60694 0.32584 0.0
C663 C 0.50194 0.58174 0.32571 0.0
C664 C 0.51033 0.56931 0.29769 0.0
C665 C 0.49784 0.58026 0.27078 0.0
C666 C 0.51298 0.51969 0.38363 0.0
C667 C 0.5153 0.53606 0.41066 0.0
C668 C 0.51038 0.53458 0.35598 0.0
C669 C 0.51014 0.56634 0.35458 0.0
C670 C 0.51439 0.58274 0.38154 0.0
C671 C 0.51665 0.56773 0.40935 0.0
H672 H 0.10772 0.42612 0.80845 0.0
H673 H 0.02349 0.44454 0.76232 0.0
H674 H 0.08491 0.44035 0.85628 0.0
H675 H 1.0003 0.45852 0.8106 0.0
H676 H 0.99893 0.52802 0.8932 0.0
H677 H 0.00834 0.50221 0.84538 0.0
H678 H 0.04663 0.42679 0.8942 0.0
H679 H 0.03779 0.45311 0.94186 0.0
C680 C 0.08419 0.43296 0.80864 0.0
C681 C 0.06748 0.43456 0.78165 0.0
C682 C 0.07097 0.44074 0.8361 0.0
C683 C 0.04073 0.45046 0.83726 0.0
C684 C 0.02367 0.45118 0.81038 0.0
C685 C 0.03688 0.44308 0.78282 0.0
C686 C 0.00822 0.5054 0.89363 0.0
C687 C 0.01707 0.49219 0.9211 0.0
C688 C 0.01362 0.4906 0.8663 0.0
C689 C 0.02848 0.46257 0.86601 0.0
C690 C 0.03538 0.44849 0.8937 0.0
C691 C 0.02994 0.4633 0.92099 0.0
H692 H 0.77336 0.98532 0.98775 0.0
H693 H 0.74653 0.98354 0.89382 0.0
H694 H 0.72369 0.00434 0.0014 0.0
H695 H 0.69708 0.00383 0.90735 0.0
H696 H 0.60299 0.98642 0.95439 0.0
H697 H 0.65353 0.98234 0.93268 0.0
H698 H 0.68769 0.04506 0.99947 0.0
H699 H 0.63697 0.04837 0.02145 0.0
C700 C 0.75696 0.98936 0.96996 0.0
C701 C 0.76379 0.9825 0.93976 0.0
C702 C 0.72858 1.00073 0.97772 0.0
C703 C 0.7063 0.00558 0.95547 0.0
C704 C 0.71362 1.00007 0.92507 0.0
C705 C 0.74206 0.98868 0.9173 0.0
C706 C 0.62116 1.00014 0.9636 0.0
C707 C 0.61624 0.01805 0.98917 0.0
C708 C 0.65013 0.99786 0.95123 0.0
C709 C 0.67479 0.01315 0.96451 0.0
C710 C 0.66928 0.03266 0.98896 0.0
C711 C 0.64027 0.03487 0.00134 0.0
H712 H 0.79137 0.05161 0.40087 0.0
H713 H 0.76606 0.0567 0.49494 0.0
H714 H 0.8408 0.03182 0.41541 0.0
H715 H 0.8158 0.03846 0.50951 0.0
H716 H 0.90257 0.99561 0.53218 0.0
H717 H 0.85142 0.99809 0.5109 0.0
H718 H 0.88509 0.05399 0.43799 0.0
H719 H 0.93613 0.0505 0.45897 0.0
C720 C 0.79616 0.0481 0.42463 0.0
C721 C 0.77486 0.05608 0.44677 0.0
C722 C 0.82462 0.03703 0.43297 0.0
C723 C 0.83243 0.03374 0.46363 0.0
C724 C 0.81055 0.04035 0.48567 0.0
C725 C 0.78212 0.05129 0.47733 0.0
C726 C 0.899 0.00747 0.51103 0.0
C727 C 0.92308 0.02249 0.49685 0.0
C728 C 0.86975 0.00919 0.499 0.0
C729 C 0.86402 0.02655 0.47292 0.0
C730 C 0.88864 0.04011 0.45786 0.0
C731 C 0.91788 0.03819 0.46983 0.0
H732 H 0.2237 0.59756 0.1321 0.0
H733 H 0.27382 0.52504 0.09103 0.0
H734 H 0.17634 0.57478 0.115 0.0
H735 H 0.2262 0.50199 0.07383 0.0
H736 H 0.14356 0.51759 0.00562 0.0
H737 H 0.19084 0.52175 0.03383 0.0
H738 H 0.1405 0.53051 0.11687 0.0
H739 H 0.093 0.52649 0.0884 0.0
C740 C 0.22447 0.57639 0.1199 0.0
C741 C 0.25235 0.56323 0.11253 0.0
C742 C 0.19735 0.56315 0.11038 0.0
C743 C 0.19756 0.53663 0.093 0.0
C744 C 0.2254 0.5225 0.0871 0.0
C745 C 0.25259 0.5356 0.09699 0.0
C746 C 0.14264 0.51953 0.03 0.0
C747 C 0.11471 0.52191 0.04484 0.0
C748 C 0.16971 0.5217 0.0462 0.0
C749 C 0.16937 0.52673 0.07753 0.0
C750 C 0.1414 0.52687 0.09269 0.0
C751 C 0.11426 0.5244 0.07646 0.0
H752 H 0.26541 0.51444 0.59459 0.0
H753 H 0.31367 0.43593 0.62641 0.0
H754 H 0.31315 0.53647 0.5766 0.0
H755 H 0.36121 0.45785 0.60863 0.0
H756 H 0.44547 0.50673 0.58398 0.0
H757 H 0.39887 0.50161 0.61361 0.0
H758 H 0.34583 0.51791 0.53311 0.0
H759 H 0.39221 0.52279 0.50369 0.0
C760 C 0.28632 0.50225 0.59832 0.0
C761 C 0.28591 0.47337 0.61156 0.0
C762 C 0.31355 0.5148 0.58801 0.0
C763 C 0.34087 0.49889 0.59125 0.0
C764 C 0.3406 0.47082 0.60615 0.0
C765 C 0.31337 0.45811 0.61602 0.0
C766 C 0.42384 0.51024 0.57294 0.0
C767 C 0.42229 0.51502 0.5416 0.0
C768 C 0.39723 0.50713 0.58981 0.0
C769 C 0.36876 0.5091 0.57559 0.0
C770 C 0.36741 0.51651 0.54474 0.0
C771 C 0.39393 0.51917 0.52786 0.0
H772 H 0.89889 0.75562 0.98774 0.0
H773 H 0.99321 0.78026 0.97888 0.0
H774 H 0.9136 0.70631 0.00762 0.0
H775 H 0.00788 0.73071 0.99701 0.0
H776 H 0.03208 0.64438 0.03871 0.0
H777 H 0.01113 0.69539 0.03683 0.0
H778 H 0.93426 0.66154 0.9862 0.0
H779 H 0.95491 0.61055 0.98934 0.0
C780 C 0.92275 0.75071 0.99044 0.0
C781 C 0.94488 0.77177 0.98133 0.0
C782 C 0.93119 0.7223 0.00153 0.0
C783 C 0.96193 0.71431 0.00371 0.0
C784 C 0.98399 0.73602 0.99603 0.0
C785 C 0.97557 0.76438 0.98514 0.0
C786 C 0.01023 0.6479 0.02808 0.0
C787 C 0.99486 0.62378 0.01441 0.0
C788 C 0.99835 0.67708 0.02671 0.0
C789 C 0.97122 0.68276 0.01092 0.0
C790 C 0.95501 0.65809 0.99883 0.0
C791 C 0.96679 0.62886 1.00054 0.0
H792 H 0.40061 0.81562 0.1029 0.0
H793 H 0.43448 0.76424 0.02754 0.0
H794 H 0.41953 0.86212 0.07975 0.0
H795 H 0.45365 0.81088 0.00433 0.0
H796 H 0.52736 0.88976 0.01813 0.0
H797 H 0.49718 0.84388 0.02417 0.0
H798 H 0.41649 0.89775 0.0338 0.0
H799 H 0.44685 0.94383 0.02748 0.0
C800 C 0.41163 0.81443 0.0811 0.0
C801 C 0.41636 0.78642 0.0671 0.0
C802 C 0.42219 0.84102 0.0677 0.0
C803 C 0.43807 0.84006 0.04025 0.0
C804 C 0.44149 0.8122 0.02551 0.0
C805 C 0.43049 0.7856 0.03872 0.0
C806 C 0.50305 0.89172 0.02066 0.0
C807 C 0.48941 0.92023 0.02254 0.0
C808 C 0.48575 0.86549 0.02393 0.0
C809 C 0.45455 0.8673 0.02967 0.0
C810 C 0.44055 0.89578 0.02955 0.0
C811 C 0.45785 0.92208 0.02581 0.0
H812 H 0.05234 0.27678 0.56305 0.0
H813 H 0.14633 0.2515 0.55482 0.0
H814 H 0.03707 0.2283 0.54255 0.0
H815 H 0.13106 0.20336 0.5326 0.0
H816 H 0.08715 0.10748 0.54668 0.0
H817 H 0.10911 0.15788 0.55166 0.0
H818 H 0.03393 0.19495 0.50107 0.0
H819 H 0.01163 0.14445 0.49734 0.0
C820 C 0.06979 0.261 0.55647 0.0
C821 C 0.10055 0.26788 0.56109 0.0
C822 C 0.06104 0.23329 0.54419 0.0
C823 C 0.08282 0.21173 0.53593 0.0
C824 C 0.11367 0.21924 0.53905 0.0
C825 C 0.12243 0.24699 0.55152 0.0
C826 C 0.076 0.12635 0.53575 0.0
C827 C 0.04796 0.12228 0.52141 0.0
C828 C 0.08852 0.15528 0.53857 0.0
C829 C 0.07308 0.18067 0.52717 0.0
C830 C 0.04612 0.17604 0.5107 0.0
C831 C 0.03349 0.14715 0.50821 0.0
H832 H 0.63759 0.2809 0.49491 0.0
H833 H 0.54459 0.25888 0.47354 0.0
H834 H 0.62141 0.32928 0.5157 0.0
H835 H 0.52871 0.30751 0.49217 0.0
H836 H 0.49907 0.39079 0.53174 0.0
H837 H 0.52047 0.34017 0.53197 0.0
H838 H 0.60456 0.37621 0.49682 0.0
H839 H 0.58347 0.42707 0.49872 0.0
C840 C 0.61367 0.2862 0.49498 0.0
C841 C 0.59242 0.26618 0.48214 0.0
C842 C 0.60442 0.3141 0.50659 0.0
C843 C 0.57375 0.3226 0.50551 0.0
C844 C 0.55247 0.30183 0.49394 0.0
C845 C 0.56165 0.27399 0.48266 0.0
C846 C 0.52244 0.38784 0.52498 0.0
C847 C 0.53958 0.41254 0.51485 0.0
C848 C 0.53466 0.35884 0.5248 0.0
C849 C 0.56393 0.35381 0.5134 0.0
C850 C 0.58195 0.37905 0.50573 0.0
C851 C 0.5699 0.40824 0.50668 0.0
loop_
_geom_bond_atom_site_label_1
_geom_bond_atom_site_label_2
_geom_bond_distance
_geom_bond_site_symmetry_2
_ccdc_geom_bond_type
C0 C1 1.384 . S
C0 H13 0.947 . S
C0 C35 1.382 . S
C1 C0 1.384 . S
C1 C2 1.378 . S
C2 C1 1.378 . S
C2 C3 1.378 . S
C2 H14 0.952 . S
C3 C2 1.378 . S
C3 H15 0.950 . S
C3 C34 1.383 . S
H4 C23 0.947 . S
H5 C24 0.946 . S
H6 C26 0.953 . S
H7 C27 0.945 . S
H8 C29 0.952 . S
H9 C30 0.949 . S
H10 C32 0.950 . S
H11 C33 0.948 . S
H12 C35 0.951 . S
H13 C0 0.947 . S
H14 C2 0.952 . S
H15 C3 0.950 . S
N16 C19 1.382 . S
N16 C21 1.363 . S
N17 C19 1.371 . S
N17 C20 1.372 . S
N18 C20 1.361 . S
N18 C21 1.377 . S
C19 N16 1.382 . S
C19 N17 1.371 . S
C19 C22 1.480 . S
C20 N17 1.372 . S
C20 N18 1.361 . S
C20 C28 1.457 . S
C21 N16 1.363 . S
C21 N18 1.377 . S
C21 C34 1.479 . S
C22 C19 1.480 . S
C22 C23 1.383 . S
C22 C27 1.385 . S
C23 H4 0.947 . S
C23 C22 1.383 . S
C23 C24 1.388 . S
C24 H5 0.946 . S
C24 C23 1.388 . S
C24 C25 1.384 . S
C25 C24 1.384 . S
C25 C26 1.377 . S
C26 H6 0.953 . S
C26 C25 1.377 . S
C26 C27 1.369 . S
C27 H7 0.945 . S
C27 C22 1.385 . S
C27 C26 1.369 . S
C28 C20 1.457 . S
C28 C29 1.372 . S
C28 C33 1.364 . S
C29 H8 0.952 . S
C29 C28 1.372 . S
C29 C30 1.389 . S
C30 H9 0.949 . S
C30 C29 1.389 . S
C30 C31 1.387 . S
C31 C30 1.387 . S
C31 C32 1.372 . S
C32 H10 0.950 . S
C32 C31 1.372 . S
C32 C33 1.379 . S
C33 H11 0.948 . S
C33 C28 1.364 . S
C33 C32 1.379 . S
C34 C3 1.383 . S
C34 C21 1.479 . S
C34 C35 1.398 . S
C35 C0 1.382 . S
C35 H12 0.951 . S
C35 C34 1.398 . S
C36 C37 1.384 . S
C36 H49 0.947 . S
C36 C71 1.382 . S
C37 C36 1.384 . S
C37 C38 1.378 . S
C38 C37 1.378 . S
C38 C39 1.378 . S
C38 H50 0.952 . S
C39 C38 1.378 . S
C39 H51 0.950 . S
C39 C70 1.383 . S
H40 C59 0.947 . S
H41 C60 0.946 . S
H42 C62 0.953 . S
H43 C63 0.945 . S
H44 C65 0.952 . S
H45 C66 0.949 . S
H46 C68 0.950 . S
H47 C69 0.948 . S
H48 C71 0.951 . S
H49 C36 0.947 . S
H50 C38 0.952 . S
H51 C39 0.950 . S
N52 C55 1.382 . S
N52 C57 1.363 . S
N53 C55 1.371 . S
N53 C56 1.372 . S
N54 C56 1.361 . S
N54 C57 1.377 . S
C55 N52 1.382 . S
C55 N53 1.371 . S
C55 C58 1.480 . S
C56 N53 1.372 . S
C56 N54 1.361 . S
C56 C64 1.457 . S
C57 N52 1.363 . S
C57 N54 1.377 . S
C57 C70 1.479 . S
C58 C55 1.480 . S
C58 C59 1.383 . S
C58 C63 1.385 . S
C59 H40 0.947 . S
C59 C58 1.383 . S
C59 C60 1.388 . S
C60 H41 0.946 . S
C60 C59 1.388 . S
C60 C61 1.384 . S
C61 C60 1.384 . S
C61 C62 1.377 . S
C62 H42 0.953 . S
C62 C61 1.377 . S
C62 C63 1.369 . S
C63 H43 0.945 . S
C63 C58 1.385 . S
C63 C62 1.369 . S
C64 C56 1.457 . S
C64 C65 1.372 . S
C64 C69 1.364 . S
C65 H44 0.952 . S
C65 C64 1.372 . S
C65 C66 1.389 . S
C66 H45 0.949 . S
C66 C65 1.389 . S
C66 C67 1.387 . S
C67 C66 1.387 . S
C67 C68 1.372 . S
C68 H46 0.950 . S
C68 C67 1.372 . S
C68 C69 1.379 . S
C69 H47 0.948 . S
C69 C64 1.364 . S
C69 C68 1.379 . S
C70 C39 1.383 . S
C70 C57 1.479 . S
C70 C71 1.398 . S
C71 C36 1.382 . S
C71 H48 0.951 . S
C71 C70 1.398 . S
C72 C73 1.384 . S
C72 H85 0.947 . S
C72 C107 1.382 . S
C73 C72 1.384 . S
C73 C74 1.378 . S
C74 C73 1.378 . S
C74 C75 1.378 . S
C74 H86 0.952 . S
C75 C74 1.378 . S
C75 H87 0.950 . S
C75 C106 1.383 . S
H76 C95 0.947 . S
H77 C96 0.946 . S
H78 C98 0.953 . S
H79 C99 0.945 . S
H80 C101 0.952 . S
H81 C102 0.949 . S
H82 C104 0.950 . S
H83 C105 0.948 . S
H84 C107 0.951 . S
H85 C72 0.947 . S
H86 C74 0.952 . S
H87 C75 0.950 . S
N88 C91 1.382 . S
N88 C93 1.363 . S
N89 C91 1.371 . S
N89 C92 1.372 . S
N90 C92 1.361 . S
N90 C93 1.377 . S
C91 N88 1.382 . S
C91 N89 1.371 . S
C91 C94 1.480 . S
C92 N89 1.372 . S
C92 N90 1.361 . S
C92 C100 1.457 . S
C93 N88 1.363 . S
C93 N90 1.377 . S
C93 C106 1.479 . S
C94 C91 1.480 . S
C94 C95 1.383 . S
C94 C99 1.385 . S
C95 H76 0.947 . S
C95 C94 1.383 . S
C95 C96 1.388 . S
C96 H77 0.946 . S
C96 C95 1.388 . S
C96 C97 1.384 . S
C97 C96 1.384 . S
C97 C98 1.377 . S
C98 H78 0.953 . S
C98 C97 1.377 . S
C98 C99 1.369 . S
C99 H79 0.945 . S
C99 C94 1.385 . S
C99 C98 1.369 . S
C100 C92 1.457 . S
C100 C101 1.372 . S
C100 C105 1.364 . S
C101 H80 0.952 . S
C101 C100 1.372 . S
C101 C102 1.389 . S
C102 H81 0.949 . S
C102 C101 1.389 . S
C102 C103 1.387 . S
C103 C102 1.387 . S
C103 C104 1.372 . S
C104 H82 0.950 . S
C104 C103 1.372 . S
C104 C105 1.379 . S
C105 H83 0.948 . S
C105 C100 1.364 . S
C105 C104 1.379 . S
C106 C75 1.383 . S
C106 C93 1.479 . S
C106 C107 1.398 . S
C107 C72 1.382 . S
C107 H84 0.951 . S
C107 C106 1.398 . S
C108 C109 1.384 . S
C108 H121 0.947 . S
C108 C143 1.382 . S
C109 C108 1.384 . S
C109 C110 1.378 . S
C110 C109 1.378 . S
C110 C111 1.378 . S
C110 H122 0.952 . S
C111 C110 1.378 . S
C111 H123 0.950 . S
C111 C142 1.383 . S
H112 C131 0.947 . S
H113 C132 0.946 . S
H114 C134 0.953 . S
H115 C135 0.945 . S
H116 C137 0.952 . S
H117 C138 0.949 . S
H118 C140 0.950 . S
H119 C141 0.948 . S
H120 C143 0.951 . S
H121 C108 0.947 . S
H122 C110 0.952 . S
H123 C111 0.950 . S
N124 C127 1.382 . S
N124 C129 1.363 . S
N125 C127 1.371 . S
N125 C128 1.372 . S
N126 C128 1.361 . S
N126 C129 1.377 . S
C127 N124 1.382 . S
C127 N125 1.371 . S
C127 C130 1.480 . S
C128 N125 1.372 . S
C128 N126 1.361 . S
C128 C136 1.457 . S
C129 N124 1.363 . S
C129 N126 1.377 . S
C129 C142 1.479 . S
C130 C127 1.480 . S
C130 C131 1.383 . S
C130 C135 1.385 . S
C131 H112 0.947 . S
C131 C130 1.383 . S
C131 C132 1.388 . S
C132 H113 0.946 . S
C132 C131 1.388 . S
C132 C133 1.384 . S
C133 C132 1.384 . S
C133 C134 1.377 . S
C134 H114 0.953 . S
C134 C133 1.377 . S
C134 C135 1.369 . S
C135 H115 0.945 . S
C135 C130 1.385 . S
C135 C134 1.369 . S
C136 C128 1.457 . S
C136 C137 1.372 . S
C136 C141 1.364 . S
C137 H116 0.952 . S
C137 C136 1.372 . S
C137 C138 1.389 . S
C138 H117 0.949 . S
C138 C137 1.389 . S
C138 C139 1.387 . S
C139 C138 1.387 . S
C139 C140 1.372 . S
C140 H118 0.950 . S
C140 C139 1.372 . S
C140 C141 1.379 . S
C141 H119 0.948 . S
C141 C136 1.364 . S
C141 C140 1.379 . S
C142 C111 1.383 . S
C142 C129 1.479 . S
C142 C143 1.398 . S
C143 C108 1.382 . S
C143 H120 0.951 . S
C143 C142 1.398 . S
C144 C145 1.384 . S
C144 H157 0.947 1_565 S
C144 C179 1.382 . S
C145 C144 1.384 . S
C145 C146 1.378 1_556 S
C146 C145 1.378 1_554 S
C146 C147 1.378 1_554 S
C146 H158 0.952 . S
C147 C146 1.378 1_556 S
C147 H159 0.950 1_556 S
C147 C178 1.383 . S
H148 C167 0.947 . S
H149 C168 0.946 1_554 S
H150 C170 0.981 . S
H151 C171 0.964 . S
H152 C173 0.952 . S
H153 C174 0.949 1_455 S
H154 C176 0.950 . S
H155 C177 0.956 . S
H156 C179 0.951 . S
H157 C144 0.947 1_545 S
H158 C146 0.952 . S
H159 C147 0.950 1_554 S
N160 C163 1.382 . S
N160 C165 1.363 . S
N161 C163 1.371 . S
N161 C164 1.372 . S
N162 C164 1.361 . S
N162 C165 1.377 . S
C163 N160 1.382 . S
C163 N161 1.371 . S
C163 C166 1.480 . S
C164 N161 1.372 . S
C164 N162 1.361 . S
C164 C172 1.457 . S
C165 N160 1.363 . S
C165 N162 1.377 . S
C165 C178 1.479 . S
C166 C163 1.480 . S
C166 C167 1.383 . S
C166 C171 1.385 . S
C167 H148 0.947 . S
C167 C166 1.383 . S
C167 C168 1.388 . S
C168 H149 0.946 1_556 S
C168 C167 1.388 . S
C168 C169 1.384 . S
C169 C168 1.384 . S
C169 C170 1.362 1_655 S
C170 H150 0.981 . S
C170 C169 1.362 1_455 S
C170 C171 1.356 1_455 S
C171 H151 0.964 . S
C171 C166 1.385 . S
C171 C170 1.356 1_655 S
C172 C164 1.457 . S
C172 C173 1.372 . S
C172 C177 1.364 . S
C173 H152 0.952 . S
C173 C172 1.372 . S
C173 C174 1.389 . S
C174 H153 0.949 1_655 S
C174 C173 1.389 . S
C174 C175 1.387 . S
C175 C174 1.387 . S
C175 C176 1.372 1_565 S
C176 H154 0.950 . S
C176 C175 1.372 1_545 S
C176 C177 1.379 1_545 S
C177 H155 0.956 . S
C177 C172 1.364 . S
C177 C176 1.379 1_565 S
C178 C147 1.383 . S
C178 C165 1.479 . S
C178 C179 1.398 . S
C179 C144 1.382 . S
C179 H156 0.951 . S
C179 C178 1.398 . S
C180 C181 1.384 . S
C180 H193 0.947 . S
C180 C215 1.382 . S
C181 C180 1.384 . S
C181 C182 1.378 . S
C182 C181 1.378 . S
C182 C183 1.378 . S
C182 H194 0.952 . S
C183 C182 1.378 . S
C183 H195 0.950 . S
C183 C214 1.383 . S
H184 C203 0.947 . S
H185 C204 0.946 . S
H186 C206 0.953 . S
H187 C207 0.945 . S
H188 C209 0.952 . S
H189 C210 0.949 . S
H190 C212 0.950 . S
H191 C213 0.948 . S
H192 C215 0.951 . S
H193 C180 0.947 . S
H194 C182 0.952 . S
H195 C183 0.950 . S
N196 C199 1.382 . S
N196 C201 1.363 . S
N197 C199 1.371 . S
N197 C200 1.372 . S
N198 C200 1.361 . S
N198 C201 1.377 . S
C199 N196 1.382 . S
C199 N197 1.371 . S
C199 C202 1.480 . S
C200 N197 1.372 . S
C200 N198 1.361 . S
C200 C208 1.457 . S
C201 N196 1.363 . S
C201 N198 1.377 . S
C201 C214 1.479 . S
C202 C199 1.480 . S
C202 C203 1.383 . S
C202 C207 1.385 . S
C203 H184 0.947 . S
C203 C202 1.383 . S
C203 C204 1.388 . S
C204 H185 0.946 . S
C204 C203 1.388 . S
C204 C205 1.384 . S
C205 C204 1.384 . S
C205 C206 1.377 . S
C206 H186 0.953 . S
C206 C205 1.377 . S
C206 C207 1.369 . S
C207 H187 0.945 . S
C207 C202 1.385 . S
C207 C206 1.369 . S
C208 C200 1.457 . S
C208 C209 1.372 . S
C208 C213 1.364 . S
C209 H188 0.952 . S
C209 C208 1.372 . S
C209 C210 1.389 . S
C210 H189 0.949 . S
C210 C209 1.389 . S
C210 C211 1.387 . S
C211 C210 1.387 . S
C211 C212 1.372 . S
C212 H190 0.950 . S
C212 C211 1.372 . S
C212 C213 1.379 . S
C213 H191 0.948 . S
C213 C208 1.364 . S
C213 C212 1.379 . S
C214 C183 1.383 . S
C214 C201 1.479 . S
C214 C215 1.398 . S
C215 C180 1.382 . S
C215 H192 0.951 . S
C215 C214 1.398 . S
C216 C217 1.384 . S
C216 H229 0.947 . S
C216 C251 1.382 . S
C217 C216 1.384 . S
C217 C218 1.378 . S
C218 C217 1.378 . S
C218 C219 1.378 . S
C218 H230 0.952 . S
C219 C218 1.378 . S
C219 H231 0.950 . S
C219 C250 1.383 . S
H220 C239 0.947 . S
H221 C240 0.946 . S
H222 C242 0.953 . S
H223 C243 0.945 . S
H224 C245 0.952 . S
H225 C246 0.949 . S
H226 C248 0.950 . S
H227 C249 0.948 . S
H228 C251 0.951 . S
H229 C216 0.947 . S
H230 C218 0.952 . S
H231 C219 0.950 . S
N232 C235 1.382 . S
N232 C237 1.363 . S
N233 C235 1.371 . S
N233 C236 1.372 . S
N234 C236 1.361 . S
N234 C237 1.377 . S
C235 N232 1.382 . S
C235 N233 1.371 . S
C235 C238 1.480 . S
C236 N233 1.372 . S
C236 N234 1.361 . S
C236 C244 1.457 . S
C237 N232 1.363 . S
C237 N234 1.377 . S
C237 C250 1.479 . S
C238 C235 1.480 . S
C238 C239 1.383 . S
C238 C243 1.385 . S
C239 H220 0.947 . S
C239 C238 1.383 . S
C239 C240 1.388 . S
C240 H221 0.946 . S
C240 C239 1.388 . S
C240 C241 1.384 . S
C241 C240 1.384 . S
C241 C242 1.377 . S
C242 H222 0.953 . S
C242 C241 1.377 . S
C242 C243 1.369 . S
C243 H223 0.945 . S
C243 C238 1.385 . S
C243 C242 1.369 . S
C244 C236 1.457 . S
C244 C245 1.372 . S
C244 C249 1.364 . S
C245 H224 0.952 . S
C245 C244 1.372 . S
C245 C246 1.389 . S
C246 H225 0.949 . S
C246 C245 1.389 . S
C246 C247 1.387 . S
C247 C246 1.387 . S
C247 C248 1.372 . S
C248 H226 0.950 . S
C248 C247 1.372 . S
C248 C249 1.379 . S
C249 H227 0.948 . S
C249 C244 1.364 . S
C249 C248 1.379 . S
C250 C219 1.383 . S
C250 C237 1.479 . S
C250 C251 1.398 . S
C251 C216 1.382 . S
C251 H228 0.951 . S
C251 C250 1.398 . S
C252 C253 1.384 . S
C252 H265 0.947 . S
C252 C287 1.382 . S
C253 C252 1.384 . S
C253 C254 1.378 . S
C254 C253 1.378 . S
C254 C255 1.378 . S
C254 H266 0.952 . S
C255 C254 1.378 . S
C255 H267 0.950 . S
C255 C286 1.383 . S
H256 C275 0.947 . S
H257 C276 0.946 . S
H258 C278 0.953 . S
H259 C279 0.945 . S
H260 C281 0.952 . S
H261 C282 0.949 . S
H262 C284 0.950 . S
H263 C285 0.948 . S
H264 C287 0.951 . S
H265 C252 0.947 . S
H266 C254 0.952 . S
H267 C255 0.950 . S
N268 C271 1.382 . S
N268 C273 1.363 . S
N269 C271 1.371 . S
N269 C272 1.372 . S
N270 C272 1.361 . S
N270 C273 1.377 . S
C271 N268 1.382 . S
C271 N269 1.371 . S
C271 C274 1.480 . S
C272 N269 1.372 . S
C272 N270 1.361 . S
C272 C280 1.457 . S
C273 N268 1.363 . S
C273 N270 1.377 . S
C273 C286 1.479 . S
C274 C271 1.480 . S
C274 C275 1.383 . S
C274 C279 1.385 . S
C275 H256 0.947 . S
C275 C274 1.383 . S
C275 C276 1.388 . S
C276 H257 0.946 . S
C276 C275 1.388 . S
C276 C277 1.384 . S
C277 C276 1.384 . S
C277 C278 1.377 . S
C278 H258 0.953 . S
C278 C277 1.377 . S
C278 C279 1.369 . S
C279 H259 0.945 . S
C279 C274 1.385 . S
C279 C278 1.369 . S
C280 C272 1.457 . S
C280 C281 1.372 . S
C280 C285 1.364 . S
C281 H260 0.952 . S
C281 C280 1.372 . S
C281 C282 1.389 . S
C282 H261 0.949 . S
C282 C281 1.389 . S
C282 C283 1.387 . S
C283 C282 1.387 . S
C283 C284 1.372 . S
C284 H262 0.950 . S
C284 C283 1.372 . S
C284 C285 1.379 . S
C285 H263 0.948 . S
C285 C280 1.364 . S
C285 C284 1.379 . S
C286 C255 1.383 . S
C286 C273 1.479 . S
C286 C287 1.398 . S
C287 C252 1.382 . S
C287 H264 0.951 . S
C287 C286 1.398 . S
Zn288 O294 1.920 . S
Zn288 O300 1.898 . S
Zn288 O303 1.905 . S
Zn289 O297 1.905 1_565 S
Zn289 O298 1.898 . S
Zn289 O306 1.920 . S
Zn290 O293 2.080 1_455 S
Zn290 O296 2.114 . S
Zn290 O299 2.120 1_445 S
Zn290 O301 2.120 . S
Zn290 O302 2.114 1_455 S
Zn290 O305 2.080 . S
C291 O296 1.166 . S
C291 O297 1.182 . S
C292 O298 1.167 1_655 S
C292 O299 1.299 . S
O293 Zn290 2.080 1_655 S
O293 C307 1.305 . S
O294 Zn288 1.920 . S
O294 C307 1.234 . S
C295 O300 1.167 1_455 S
C295 O301 1.299 . S
O296 Zn290 2.114 . S
O296 C291 1.166 . S
O297 Zn289 1.905 1_545 S
O297 C291 1.182 . S
O298 Zn289 1.898 . S
O298 C292 1.167 1_455 S
O299 Zn290 2.120 1_665 S
O299 C292 1.299 . S
O300 Zn288 1.898 . S
O300 C295 1.167 1_655 S
O301 Zn290 2.120 . S
O301 C295 1.299 . S
O302 Zn290 2.114 1_655 S
O302 C304 1.166 . S
O303 Zn288 1.905 . S
O303 C304 1.182 . S
C304 O302 1.166 . S
C304 O303 1.182 . S
O305 Zn290 2.080 . S
O305 C308 1.305 1_545 S
O306 Zn289 1.920 . S
O306 C308 1.234 . S
C307 O293 1.305 . S
C307 O294 1.234 . S
C308 O305 1.305 1_565 S
C308 O306 1.234 . S
Zn309 O315 1.920 1_556 S
Zn309 O321 1.898 . S
Zn309 O324 1.905 . S
Zn310 O318 1.905 . S
Zn310 O319 1.898 . S
Zn310 O327 1.920 . S
Zn311 O314 2.080 . S
Zn311 O317 2.114 1_545 S
Zn311 O320 2.120 1_545 S
Zn311 O322 2.120 . S
Zn311 O323 2.114 1_544 S
Zn311 O326 2.080 . S
C312 O317 1.166 . S
C312 O318 1.182 . S
C313 O319 1.167 . S
C313 O320 1.299 . S
O314 Zn311 2.080 . S
O314 C328 1.305 . S
O315 Zn309 1.920 1_554 S
O315 C328 1.234 . S
C316 O321 1.167 . S
C316 O322 1.299 1_556 S
O317 Zn311 2.114 1_565 S
O317 C312 1.166 . S
O318 Zn310 1.905 . S
O318 C312 1.182 . S
O319 Zn310 1.898 . S
O319 C313 1.167 . S
O320 Zn311 2.120 1_565 S
O320 C313 1.299 . S
O321 Zn309 1.898 . S
O321 C316 1.167 . S
O322 Zn311 2.120 . S
O322 C316 1.299 1_554 S
O323 Zn311 2.114 1_566 S
O323 C325 1.166 . S
O324 Zn309 1.905 . S
O324 C325 1.182 1_545 S
C325 O323 1.166 . S
C325 O324 1.182 1_565 S
O326 Zn311 2.080 . S
O326 C329 1.305 . S
O327 Zn310 1.920 . S
O327 C329 1.234 1_565 S
C328 O314 1.305 . S
C328 O315 1.234 . S
C329 O326 1.305 . S
C329 O327 1.234 1_545 S
Zn330 O336 1.920 . S
Zn330 O342 1.898 . S
Zn330 O345 1.905 . S
Zn331 O339 1.905 . S
Zn331 O340 1.898 . S
Zn331 O348 1.920 . S
Zn332 O335 2.080 . S
Zn332 O338 2.114 . S
Zn332 O341 2.120 . S
Zn332 O343 2.120 . S
Zn332 O344 2.114 . S
Zn332 O347 2.080 . S
C333 O338 1.166 . S
C333 O339 1.182 . S
C334 O340 1.167 . S
C334 O341 1.299 . S
O335 Zn332 2.080 . S
O335 C349 1.305 . S
O336 Zn330 1.920 . S
O336 C349 1.234 . S
C337 O342 1.167 . S
C337 O343 1.299 . S
O338 Zn332 2.114 . S
O338 C333 1.166 . S
O339 Zn331 1.905 . S
O339 C333 1.182 . S
O340 Zn331 1.898 . S
O340 C334 1.167 . S
O341 Zn332 2.120 . S
O341 C334 1.299 . S
O342 Zn330 1.898 . S
O342 C337 1.167 . S
O343 Zn332 2.120 . S
O343 C337 1.299 . S
O344 Zn332 2.114 . S
O344 C346 1.166 . S
O345 Zn330 1.905 . S
O345 C346 1.182 . S
C346 O344 1.166 . S
C346 O345 1.182 . S
O347 Zn332 2.080 . S
O347 C350 1.305 . S
O348 Zn331 1.920 . S
O348 C350 1.234 . S
C349 O335 1.305 . S
C349 O336 1.234 . S
C350 O347 1.305 . S
C350 O348 1.234 . S
Zn351 O357 1.920 . S
Zn351 O363 1.898 . S
Zn351 O366 1.905 . S
Zn352 O360 1.905 1_655 S
Zn352 O361 1.898 . S
Zn352 O369 1.920 . S
Zn353 O356 2.080 1_554 S
Zn353 O359 2.114 . S
Zn353 O362 2.120 1_454 S
Zn353 O364 2.120 . S
Zn353 O365 2.114 1_554 S
Zn353 O368 2.080 . S
C354 O359 1.166 . S
C354 O360 1.182 . S
C355 O361 1.167 1_556 S
C355 O362 1.299 . S
O356 Zn353 2.080 1_556 S
O356 C370 1.305 . S
O357 Zn351 1.920 . S
O357 C370 1.234 . S
C358 O363 1.167 1_554 S
C358 O364 1.299 . S
O359 Zn353 2.114 . S
O359 C354 1.166 . S
O360 Zn352 1.905 1_455 S
O360 C354 1.182 . S
O361 Zn352 1.898 . S
O361 C355 1.167 1_554 S
O362 Zn353 2.120 1_656 S
O362 C355 1.299 . S
O363 Zn351 1.898 . S
O363 C358 1.167 1_556 S
O364 Zn353 2.120 . S
O364 C358 1.299 . S
O365 Zn353 2.114 1_556 S
O365 C367 1.166 . S
O366 Zn351 1.905 . S
O366 C367 1.182 . S
C367 O365 1.166 . S
C367 O366 1.182 . S
O368 Zn353 2.080 . S
O368 C371 1.305 1_455 S
O369 Zn352 1.920 . S
O369 C371 1.234 . S
C370 O356 1.305 . S
C370 O357 1.234 . S
C371 O368 1.305 1_655 S
C371 O369 1.234 . S
H372 C380 0.950 . S
H373 C385 0.950 . S
H374 C382 0.950 . S
H375 C384 0.950 . S
H376 C386 0.950 . S
H377 C388 0.950 . S
H378 C390 0.950 . S
H379 C391 0.950 . S
C380 H372 0.950 . S
C380 C381 1.386 . S
C380 C382 1.391 . S
C381 C380 1.386 . S
C381 C385 1.393 . S
C382 H374 0.950 . S
C382 C380 1.391 . S
C382 C383 1.400 . S
C383 C382 1.400 . S
C383 C384 1.398 . S
C383 C389 1.491 . S
C384 H375 0.950 . S
C384 C383 1.398 . S
C384 C385 1.391 . S
C385 H373 0.950 . S
C385 C381 1.393 . S
C385 C384 1.391 . S
C386 H376 0.950 . S
C386 C387 1.386 . S
C386 C388 1.391 . S
C387 C386 1.386 . S
C387 C391 1.393 . S
C388 H377 0.950 . S
C388 C386 1.391 . S
C388 C389 1.400 . S
C389 C383 1.491 . S
C389 C388 1.400 . S
C389 C390 1.398 . S
C390 H378 0.950 . S
C390 C389 1.398 . S
C390 C391 1.391 . S
C391 H379 0.950 . S
C391 C387 1.393 . S
C391 C390 1.391 . S
H392 C400 0.950 . S
H393 C405 0.950 . S
H394 C402 0.950 . S
H395 C404 0.950 . S
H396 C406 0.950 . S
H397 C408 0.950 . S
H398 C410 0.950 . S
H399 C411 0.950 . S
C400 H392 0.950 . S
C400 C401 1.386 . S
C400 C402 1.391 . S
C401 C400 1.386 . S
C401 C405 1.393 . S
C402 H394 0.950 . S
C402 C400 1.391 . S
C402 C403 1.400 . S
C403 C402 1.400 . S
C403 C404 1.398 . S
C403 C409 1.491 . S
C404 H395 0.950 . S
C404 C403 1.398 . S
C404 C405 1.391 . S
C405 H393 0.950 . S
C405 C401 1.393 . S
C405 C404 1.391 . S
C406 H396 0.950 . S
C406 C407 1.386 . S
C406 C408 1.391 . S
C407 C406 1.386 . S
C407 C411 1.393 . S
C408 H397 0.950 . S
C408 C406 1.391 . S
C408 C409 1.400 . S
C409 C403 1.491 . S
C409 C408 1.400 . S
C409 C410 1.398 . S
C410 H398 0.950 . S
C410 C409 1.398 . S
C410 C411 1.391 . S
C411 H399 0.950 . S
C411 C407 1.393 . S
C411 C410 1.391 . S
H412 C420 0.950 . S
H413 C425 0.950 . S
H414 C422 0.950 . S
H415 C424 0.950 . S
H416 C426 0.950 . S
H417 C428 0.950 . S
H418 C430 0.950 . S
H419 C431 0.950 . S
C420 H412 0.950 . S
C420 C421 1.386 . S
C420 C422 1.391 . S
C421 C420 1.386 . S
C421 C425 1.393 . S
C422 H414 0.950 . S
C422 C420 1.391 . S
C422 C423 1.400 . S
C423 C422 1.400 . S
C423 C424 1.398 . S
C423 C429 1.491 . S
C424 H415 0.950 . S
C424 C423 1.398 . S
C424 C425 1.391 . S
C425 H413 0.950 . S
C425 C421 1.393 . S
C425 C424 1.391 . S
C426 H416 0.950 . S
C426 C427 1.386 . S
C426 C428 1.391 . S
C427 C426 1.386 . S
C427 C431 1.393 . S
C428 H417 0.950 . S
C428 C426 1.391 . S
C428 C429 1.400 . S
C429 C423 1.491 . S
C429 C428 1.400 . S
C429 C430 1.398 . S
C430 H418 0.950 . S
C430 C429 1.398 . S
C430 C431 1.391 . S
C431 H419 0.950 . S
C431 C427 1.393 . S
C431 C430 1.391 . S
H432 C440 0.950 . S
H433 C445 0.950 . S
H434 C442 0.950 . S
H435 C444 0.950 . S
H436 C446 0.950 1_455 S
H437 C448 0.950 . S
H438 C450 0.950 . S
H439 C451 0.950 . S
C440 H432 0.950 . S
C440 C441 1.386 . S
C440 C442 1.391 . S
C441 C440 1.386 . S
C441 C445 1.393 . S
C442 H434 0.950 . S
C442 C440 1.391 . S
C442 C443 1.400 . S
C443 C442 1.400 . S
C443 C444 1.398 . S
C443 C449 1.491 . S
C444 H435 0.950 . S
C444 C443 1.398 . S
C444 C445 1.391 . S
C445 H433 0.950 . S
C445 C441 1.393 . S
C445 C444 1.391 . S
C446 H436 0.950 1_655 S
C446 C447 1.386 . S
C446 C448 1.391 . S
C447 C446 1.386 . S
C447 C451 1.393 . S
C448 H437 0.950 . S
C448 C446 1.391 . S
C448 C449 1.400 . S
C449 C443 1.491 . S
C449 C448 1.400 . S
C449 C450 1.398 . S
C450 H438 0.950 . S
C450 C449 1.398 . S
C450 C451 1.391 . S
C451 H439 0.950 . S
C451 C447 1.393 . S
C451 C450 1.391 . S
H452 C460 0.950 . S
H453 C465 0.950 . S
H454 C462 0.950 . S
H455 C464 0.950 . S
H456 C466 0.950 . S
H457 C468 0.950 . S
H458 C470 0.950 . S
H459 C471 0.950 . S
C460 H452 0.950 . S
C460 C461 1.386 . S
C460 C462 1.391 . S
C461 C460 1.386 . S
C461 C465 1.393 . S
C462 H454 0.950 . S
C462 C460 1.391 . S
C462 C463 1.400 . S
C463 C462 1.400 . S
C463 C464 1.398 . S
C463 C469 1.491 . S
C464 H455 0.950 . S
C464 C463 1.398 . S
C464 C465 1.391 . S
C465 H453 0.950 . S
C465 C461 1.393 . S
C465 C464 1.391 . S
C466 H456 0.950 . S
C466 C467 1.386 . S
C466 C468 1.391 . S
C467 C466 1.386 . S
C467 C471 1.393 . S
C468 H457 0.950 . S
C468 C466 1.391 . S
C468 C469 1.400 . S
C469 C463 1.491 . S
C469 C468 1.400 . S
C469 C470 1.398 . S
C470 H458 0.950 . S
C470 C469 1.398 . S
C470 C471 1.391 . S
C471 H459 0.950 . S
C471 C467 1.393 . S
C471 C470 1.391 . S
H472 C480 0.950 . S
H473 C485 0.950 . S
H474 C482 0.950 . S
H475 C484 0.950 . S
H476 C486 0.950 . S
H477 C488 0.950 . S
H478 C490 0.950 . S
H479 C491 0.950 . S
C480 H472 0.950 . S
C480 C481 1.386 . S
C480 C482 1.391 . S
C481 C480 1.386 . S
C481 C485 1.393 . S
C482 H474 0.950 . S
C482 C480 1.391 . S
C482 C483 1.400 . S
C483 C482 1.400 . S
C483 C484 1.398 . S
C483 C489 1.491 . S
C484 H475 0.950 . S
C484 C483 1.398 . S
C484 C485 1.391 . S
C485 H473 0.950 . S
C485 C481 1.393 . S
C485 C484 1.391 . S
C486 H476 0.950 . S
C486 C487 1.386 . S
C486 C488 1.391 . S
C487 C486 1.386 . S
C487 C491 1.393 . S
C488 H477 0.950 . S
C488 C486 1.391 . S
C488 C489 1.400 . S
C489 C483 1.491 . S
C489 C488 1.400 . S
C489 C490 1.398 . S
C490 H478 0.950 . S
C490 C489 1.398 . S
C490 C491 1.391 . S
C491 H479 0.950 . S
C491 C487 1.393 . S
C491 C490 1.391 . S
H492 C500 0.950 . S
H493 C505 0.950 . S
H494 C502 0.950 . S
H495 C504 0.950 . S
H496 C506 0.950 . S
H497 C508 0.950 . S
H498 C510 0.950 . S
H499 C511 0.950 1_554 S
C500 H492 0.950 . S
C500 C501 1.386 . S
C500 C502 1.391 . S
C501 C500 1.386 . S
C501 C505 1.393 . S
C502 H494 0.950 . S
C502 C500 1.391 . S
C502 C503 1.400 . S
C503 C502 1.400 . S
C503 C504 1.398 . S
C503 C509 1.491 . S
C504 H495 0.950 . S
C504 C503 1.398 . S
C504 C505 1.391 . S
C505 H493 0.950 . S
C505 C501 1.393 . S
C505 C504 1.391 . S
C506 H496 0.950 . S
C506 C507 1.386 . S
C506 C508 1.391 . S
C507 C506 1.386 . S
C507 C511 1.393 . S
C508 H497 0.950 . S
C508 C506 1.391 . S
C508 C509 1.400 . S
C509 C503 1.491 . S
C509 C508 1.400 . S
C509 C510 1.398 . S
C510 H498 0.950 . S
C510 C509 1.398 . S
C510 C511 1.391 . S
C511 H499 0.950 1_556 S
C511 C507 1.393 . S
C511 C510 1.391 . S
H512 C520 0.950 . S
H513 C525 0.950 . S
H514 C522 0.950 . S
H515 C524 0.950 . S
H516 C526 0.950 . S
H517 C528 0.950 . S
H518 C530 0.950 . S
H519 C531 0.950 . S
C520 H512 0.950 . S
C520 C521 1.386 . S
C520 C522 1.391 . S
C521 C520 1.386 . S
C521 C525 1.393 . S
C522 H514 0.950 . S
C522 C520 1.391 . S
C522 C523 1.400 . S
C523 C522 1.400 . S
C523 C524 1.398 . S
C523 C529 1.491 . S
C524 H515 0.950 . S
C524 C523 1.398 . S
C524 C525 1.391 . S
C525 H513 0.950 . S
C525 C521 1.393 . S
C525 C524 1.391 . S
C526 H516 0.950 . S
C526 C527 1.386 . S
C526 C528 1.391 . S
C527 C526 1.386 . S
C527 C531 1.393 . S
C528 H517 0.950 . S
C528 C526 1.391 . S
C528 C529 1.400 . S
C529 C523 1.491 . S
C529 C528 1.400 . S
C529 C530 1.398 . S
C530 H518 0.950 . S
C530 C529 1.398 . S
C530 C531 1.391 . S
C531 H519 0.950 . S
C531 C527 1.393 . S
C531 C530 1.391 . S
H532 C540 0.950 . S
H533 C545 0.950 . S
H534 C542 0.950 . S
H535 C544 0.950 . S
H536 C546 0.950 . S
H537 C548 0.950 . S
H538 C550 0.950 . S
H539 C551 0.950 . S
C540 H532 0.950 . S
C540 C541 1.386 . S
C540 C542 1.391 . S
C541 C540 1.386 . S
C541 C545 1.393 . S
C542 H534 0.950 . S
C542 C540 1.391 . S
C542 C543 1.400 . S
C543 C542 1.400 . S
C543 C544 1.398 . S
C543 C549 1.491 . S
C544 H535 0.950 . S
C544 C543 1.398 . S
C544 C545 1.391 . S
C545 H533 0.950 . S
C545 C541 1.393 . S
C545 C544 1.391 . S
C546 H536 0.950 . S
C546 C547 1.386 . S
C546 C548 1.391 . S
C547 C546 1.386 . S
C547 C551 1.393 . S
C548 H537 0.950 . S
C548 C546 1.391 . S
C548 C549 1.400 . S
C549 C543 1.491 . S
C549 C548 1.400 . S
C549 C550 1.398 . S
C550 H538 0.950 . S
C550 C549 1.398 . S
C550 C551 1.391 . S
C551 H539 0.950 . S
C551 C547 1.393 . S
C551 C550 1.391 . S
H552 C560 0.950 . S
H553 C565 0.950 . S
H554 C562 0.950 . S
H555 C564 0.950 . S
H556 C566 0.950 . S
H557 C568 0.950 . S
H558 C570 0.950 . S
H559 C571 0.950 . S
C560 H552 0.950 . S
C560 C561 1.386 . S
C560 C562 1.391 . S
C561 C560 1.386 . S
C561 C565 1.393 . S
C562 H554 0.950 . S
C562 C560 1.391 . S
C562 C563 1.400 . S
C563 C562 1.400 . S
C563 C564 1.398 . S
C563 C569 1.491 . S
C564 H555 0.950 . S
C564 C563 1.398 . S
C564 C565 1.391 . S
C565 H553 0.950 . S
C565 C561 1.393 . S
C565 C564 1.391 . S
C566 H556 0.950 . S
C566 C567 1.386 . S
C566 C568 1.391 . S
C567 C566 1.386 . S
C567 C571 1.393 . S
C568 H557 0.950 . S
C568 C566 1.391 . S
C568 C569 1.400 . S
C569 C563 1.491 . S
C569 C568 1.400 . S
C569 C570 1.398 . S
C570 H558 0.950 . S
C570 C569 1.398 . S
C570 C571 1.391 . S
C571 H559 0.950 . S
C571 C567 1.393 . S
C571 C570 1.391 . S
H572 C580 0.950 . S
H573 C585 0.950 . S
H574 C582 0.950 . S
H575 C584 0.950 . S
H576 C586 0.950 . S
H577 C588 0.950 . S
H578 C590 0.950 . S
H579 C591 0.950 1_455 S
C580 H572 0.950 . S
C580 C581 1.386 . S
C580 C582 1.391 . S
C581 C580 1.386 . S
C581 C585 1.393 . S
C582 H574 0.950 . S
C582 C580 1.391 . S
C582 C583 1.400 . S
C583 C582 1.400 . S
C583 C584 1.398 . S
C583 C589 1.491 . S
C584 H575 0.950 . S
C584 C583 1.398 . S
C584 C585 1.391 . S
C585 H573 0.950 . S
C585 C581 1.393 . S
C585 C584 1.391 . S
C586 H576 0.950 . S
C586 C587 1.386 . S
C586 C588 1.391 . S
C587 C586 1.386 . S
C587 C591 1.393 . S
C588 H577 0.950 . S
C588 C586 1.391 . S
C588 C589 1.400 . S
C589 C583 1.491 . S
C589 C588 1.400 . S
C589 C590 1.398 . S
C590 H578 0.950 . S
C590 C589 1.398 . S
C590 C591 1.391 . S
C591 H579 0.950 1_655 S
C591 C587 1.393 . S
C591 C590 1.391 . S
H592 C600 0.950 . S
H593 C605 0.950 . S
H594 C602 0.950 . S
H595 C604 0.950 . S
H596 C606 0.950 . S
H597 C608 0.950 . S
H598 C610 0.950 . S
H599 C611 0.950 . S
C600 H592 0.950 . S
C600 C601 1.386 . S
C600 C602 1.391 . S
C601 C600 1.386 . S
C601 C605 1.393 . S
C602 H594 0.950 . S
C602 C600 1.391 . S
C602 C603 1.400 . S
C603 C602 1.400 . S
C603 C604 1.398 . S
C603 C609 1.491 . S
C604 H595 0.950 . S
C604 C603 1.398 . S
C604 C605 1.391 . S
C605 H593 0.950 . S
C605 C601 1.393 . S
C605 C604 1.391 . S
C606 H596 0.950 . S
C606 C607 1.386 . S
C606 C608 1.391 . S
C607 C606 1.386 . S
C607 C611 1.393 . S
C608 H597 0.950 . S
C608 C606 1.391 . S
C608 C609 1.400 . S
C609 C603 1.491 . S
C609 C608 1.400 . S
C609 C610 1.398 . S
C610 H598 0.950 . S
C610 C609 1.398 . S
C610 C611 1.391 . S
C611 H599 0.950 . S
C611 C607 1.393 . S
C611 C610 1.391 . S
H612 C620 0.950 . S
H613 C625 0.950 . S
H614 C622 0.950 . S
H615 C624 0.950 . S
H616 C626 0.950 . S
H617 C628 0.950 . S
H618 C630 0.950 . S
H619 C631 0.950 . S
C620 H612 0.950 . S
C620 C621 1.386 1_455 S
C620 C622 1.391 1_565 S
C621 C620 1.386 1_655 S
C621 C625 1.393 . S
C622 H614 0.950 . S
C622 C620 1.391 1_545 S
C622 C623 1.400 1_455 S
C623 C622 1.400 1_655 S
C623 C624 1.398 1_545 S
C623 C629 1.491 . S
C624 H615 0.950 . S
C624 C623 1.398 1_565 S
C624 C625 1.391 . S
C625 H613 0.950 . S
C625 C621 1.393 . S
C625 C624 1.391 . S
C626 H616 0.950 . S
C626 C627 1.386 . S
C626 C628 1.391 . S
C627 C626 1.386 . S
C627 C631 1.393 1_655 S
C628 H617 0.950 . S
C628 C626 1.391 . S
C628 C629 1.400 . S
C629 C623 1.491 . S
C629 C628 1.400 . S
C629 C630 1.398 1_655 S
C630 H618 0.950 . S
C630 C629 1.398 1_455 S
C630 C631 1.391 . S
C631 H619 0.950 . S
C631 C627 1.393 1_455 S
C631 C630 1.391 . S
H632 C640 0.950 . S
H633 C645 0.950 . S
H634 C642 0.950 . S
H635 C644 0.950 . S
H636 C646 0.950 . S
H637 C648 0.950 . S
H638 C650 0.950 . S
H639 C651 0.950 . S
C640 H632 0.950 . S
C640 C641 1.386 . S
C640 C642 1.391 . S
C641 C640 1.386 . S
C641 C645 1.393 . S
C642 H634 0.950 . S
C642 C640 1.391 . S
C642 C643 1.400 . S
C643 C642 1.400 . S
C643 C644 1.398 . S
C643 C649 1.491 . S
C644 H635 0.950 . S
C644 C643 1.398 . S
C644 C645 1.391 . S
C645 H633 0.950 . S
C645 C641 1.393 . S
C645 C644 1.391 . S
C646 H636 0.950 . S
C646 C647 1.386 . S
C646 C648 1.391 . S
C647 C646 1.386 . S
C647 C651 1.393 . S
C648 H637 0.950 . S
C648 C646 1.391 . S
C648 C649 1.400 . S
C649 C643 1.491 . S
C649 C648 1.400 . S
C649 C650 1.398 . S
C650 H638 0.950 . S
C650 C649 1.398 . S
C650 C651 1.391 . S
C651 H639 0.950 . S
C651 C647 1.393 . S
C651 C650 1.391 . S
H652 C660 0.950 . S
H653 C665 0.950 . S
H654 C662 0.950 . S
H655 C664 0.950 . S
H656 C666 0.950 . S
H657 C668 0.950 . S
H658 C670 0.950 . S
H659 C671 0.950 . S
C660 H652 0.950 . S
C660 C661 1.386 . S
C660 C662 1.391 . S
C661 C660 1.386 . S
C661 C665 1.393 . S
C662 H654 0.950 . S
C662 C660 1.391 . S
C662 C663 1.400 . S
C663 C662 1.400 . S
C663 C664 1.398 . S
C663 C669 1.491 . S
C664 H655 0.950 . S
C664 C663 1.398 . S
C664 C665 1.391 . S
C665 H653 0.950 . S
C665 C661 1.393 . S
C665 C664 1.391 . S
C666 H656 0.950 . S
C666 C667 1.386 . S
C666 C668 1.391 . S
C667 C666 1.386 . S
C667 C671 1.393 . S
C668 H657 0.950 . S
C668 C666 1.391 . S
C668 C669 1.400 . S
C669 C663 1.491 . S
C669 C668 1.400 . S
C669 C670 1.398 . S
C670 H658 0.950 . S
C670 C669 1.398 . S
C670 C671 1.391 . S
C671 H659 0.950 . S
C671 C667 1.393 . S
C671 C670 1.391 . S
H672 C680 0.950 . S
H673 C685 0.950 . S
H674 C682 0.950 . S
H675 C684 0.950 . S
H676 C686 0.950 . S
H677 C688 0.950 . S
H678 C690 0.950 . S
H679 C691 0.950 . S
C680 H672 0.950 . S
C680 C681 1.386 . S
C680 C682 1.391 . S
C681 C680 1.386 . S
C681 C685 1.393 . S
C682 H674 0.950 . S
C682 C680 1.391 . S
C682 C683 1.400 . S
C683 C682 1.400 . S
C683 C684 1.398 . S
C683 C689 1.491 . S
C684 H675 0.950 . S
C684 C683 1.398 . S
C684 C685 1.391 . S
C685 H673 0.950 . S
C685 C681 1.393 . S
C685 C684 1.391 . S
C686 H676 0.950 . S
C686 C687 1.386 . S
C686 C688 1.391 . S
C687 C686 1.386 . S
C687 C691 1.393 . S
C688 H677 0.950 . S
C688 C686 1.391 . S
C688 C689 1.400 . S
C689 C683 1.491 . S
C689 C688 1.400 . S
C689 C690 1.398 . S
C690 H678 0.950 . S
C690 C689 1.398 . S
C690 C691 1.391 . S
C691 H679 0.950 . S
C691 C687 1.393 . S
C691 C690 1.391 . S
H692 C700 0.950 . S
H693 C705 0.950 . S
H694 C702 0.950 . S
H695 C704 0.950 . S
H696 C706 0.950 . S
H697 C708 0.950 . S
H698 C710 0.950 . S
H699 C711 0.950 . S
C700 H692 0.950 . S
C700 C701 1.386 1_544 S
C700 C702 1.391 . S
C701 C700 1.386 1_566 S
C701 C705 1.393 . S
C702 H694 0.950 . S
C702 C700 1.391 . S
C702 C703 1.400 1_545 S
C703 C702 1.400 1_565 S
C703 C704 1.398 1_554 S
C703 C709 1.491 . S
C704 H695 0.950 . S
C704 C703 1.398 1_556 S
C704 C705 1.391 . S
C705 H693 0.950 . S
C705 C701 1.393 . S
C705 C704 1.391 . S
C706 H696 0.950 . S
C706 C707 1.386 1_556 S
C706 C708 1.391 . S
C707 C706 1.386 1_554 S
C707 C711 1.393 1_565 S
C708 H697 0.950 . S
C708 C706 1.391 . S
C708 C709 1.400 1_556 S
C709 C703 1.491 . S
C709 C708 1.400 1_554 S
C709 C710 1.398 1_565 S
C710 H698 0.950 . S
C710 C709 1.398 1_545 S
C710 C711 1.391 . S
C711 H699 0.950 . S
C711 C707 1.393 1_545 S
C711 C710 1.391 . S
H712 C720 0.950 . S
H713 C725 0.950 . S
H714 C722 0.950 . S
H715 C724 0.950 . S
H716 C726 0.950 . S
H717 C728 0.950 . S
H718 C730 0.950 . S
H719 C731 0.950 . S
C720 H712 0.950 . S
C720 C721 1.386 . S
C720 C722 1.391 . S
C721 C720 1.386 . S
C721 C725 1.393 . S
C722 H714 0.950 . S
C722 C720 1.391 . S
C722 C723 1.400 . S
C723 C722 1.400 . S
C723 C724 1.398 . S
C723 C729 1.491 . S
C724 H715 0.950 . S
C724 C723 1.398 . S
C724 C725 1.391 . S
C725 H713 0.950 . S
C725 C721 1.393 . S
C725 C724 1.391 . S
C726 H716 0.950 . S
C726 C727 1.386 . S
C726 C728 1.391 . S
C727 C726 1.386 . S
C727 C731 1.393 . S
C728 H717 0.950 . S
C728 C726 1.391 . S
C728 C729 1.400 . S
C729 C723 1.491 . S
C729 C728 1.400 . S
C729 C730 1.398 . S
C730 H718 0.950 . S
C730 C729 1.398 . S
C730 C731 1.391 . S
C731 H719 0.950 . S
C731 C727 1.393 . S
C731 C730 1.391 . S
H732 C740 0.950 . S
H733 C745 0.950 . S
H734 C742 0.950 . S
H735 C744 0.950 . S
H736 C746 0.950 . S
H737 C748 0.950 . S
H738 C750 0.950 . S
H739 C751 0.950 . S
C740 H732 0.950 . S
C740 C741 1.386 . S
C740 C742 1.391 . S
C741 C740 1.386 . S
C741 C745 1.393 . S
C742 H734 0.950 . S
C742 C740 1.391 . S
C742 C743 1.400 . S
C743 C742 1.400 . S
C743 C744 1.398 . S
C743 C749 1.491 . S
C744 H735 0.950 . S
C744 C743 1.398 . S
C744 C745 1.391 . S
C745 H733 0.950 . S
C745 C741 1.393 . S
C745 C744 1.391 . S
C746 H736 0.950 . S
C746 C747 1.386 . S
C746 C748 1.391 . S
C747 C746 1.386 . S
C747 C751 1.393 . S
C748 H737 0.950 . S
C748 C746 1.391 . S
C748 C749 1.400 . S
C749 C743 1.491 . S
C749 C748 1.400 . S
C749 C750 1.398 . S
C750 H738 0.950 . S
C750 C749 1.398 . S
C750 C751 1.391 . S
C751 H739 0.950 . S
C751 C747 1.393 . S
C751 C750 1.391 . S
H752 C760 0.950 . S
H753 C765 0.950 . S
H754 C762 0.950 . S
H755 C764 0.950 . S
H756 C766 0.950 . S
H757 C768 0.950 . S
H758 C770 0.950 . S
H759 C771 0.950 . S
C760 H752 0.950 . S
C760 C761 1.386 . S
C760 C762 1.391 . S
C761 C760 1.386 . S
C761 C765 1.393 . S
C762 H754 0.950 . S
C762 C760 1.391 . S
C762 C763 1.400 . S
C763 C762 1.400 . S
C763 C764 1.398 . S
C763 C769 1.491 . S
C764 H755 0.950 . S
C764 C763 1.398 . S
C764 C765 1.391 . S
C765 H753 0.950 . S
C765 C761 1.393 . S
C765 C764 1.391 . S
C766 H756 0.950 . S
C766 C767 1.386 . S
C766 C768 1.391 . S
C767 C766 1.386 . S
C767 C771 1.393 . S
C768 H757 0.950 . S
C768 C766 1.391 . S
C768 C769 1.400 . S
C769 C763 1.491 . S
C769 C768 1.400 . S
C769 C770 1.398 . S
C770 H758 0.950 . S
C770 C769 1.398 . S
C770 C771 1.391 . S
C771 H759 0.950 . S
C771 C767 1.393 . S
C771 C770 1.391 . S
H772 C780 0.950 . S
H773 C785 0.950 1_554 S
H774 C782 0.950 . S
H775 C784 0.950 1_554 S
H776 C786 0.950 . S
H777 C788 0.950 . S
H778 C790 0.950 . S
H779 C791 0.950 . S
C780 H772 0.950 . S
C780 C781 1.386 . S
C780 C782 1.391 . S
C781 C780 1.386 . S
C781 C785 1.393 1_655 S
C782 H774 0.950 . S
C782 C780 1.391 . S
C782 C783 1.400 1_655 S
C783 C782 1.400 1_455 S
C783 C784 1.398 . S
C783 C789 1.491 . S
C784 H775 0.950 1_556 S
C784 C783 1.398 . S
C784 C785 1.391 . S
C785 H773 0.950 1_556 S
C785 C781 1.393 1_455 S
C785 C784 1.391 . S
C786 H776 0.950 . S
C786 C787 1.386 1_554 S
C786 C788 1.391 . S
C787 C786 1.386 1_556 S
C787 C791 1.393 1_455 S
C788 H777 0.950 . S
C788 C786 1.391 . S
C788 C789 1.400 1_554 S
C789 C783 1.491 . S
C789 C788 1.400 1_556 S
C789 C790 1.398 1_455 S
C790 H778 0.950 . S
C790 C789 1.398 1_655 S
C790 C791 1.391 . S
C791 H779 0.950 . S
C791 C787 1.393 1_655 S
C791 C790 1.391 . S
H792 C800 0.950 . S
H793 C805 0.950 . S
H794 C802 0.950 . S
H795 C804 0.950 . S
H796 C806 0.950 . S
H797 C808 0.950 . S
H798 C810 0.950 . S
H799 C811 0.950 . S
C800 H792 0.950 . S
C800 C801 1.386 . S
C800 C802 1.391 . S
C801 C800 1.386 . S
C801 C805 1.393 . S
C802 H794 0.950 . S
C802 C800 1.391 . S
C802 C803 1.400 . S
C803 C802 1.400 . S
C803 C804 1.398 . S
C803 C809 1.491 . S
C804 H795 0.950 . S
C804 C803 1.398 . S
C804 C805 1.391 . S
C805 H793 0.950 . S
C805 C801 1.393 . S
C805 C804 1.391 . S
C806 H796 0.950 . S
C806 C807 1.386 . S
C806 C808 1.391 . S
C807 C806 1.386 . S
C807 C811 1.393 . S
C808 H797 0.950 . S
C808 C806 1.391 . S
C808 C809 1.400 . S
C809 C803 1.491 . S
C809 C808 1.400 . S
C809 C810 1.398 . S
C810 H798 0.950 . S
C810 C809 1.398 . S
C810 C811 1.391 . S
C811 H799 0.950 . S
C811 C807 1.393 . S
C811 C810 1.391 . S
H812 C820 0.950 1_655 S
H813 C825 0.950 . S
H814 C822 0.950 1_655 S
H815 C824 0.950 . S
H816 C826 0.950 . S
H817 C828 0.950 . S
H818 C830 0.923 1_655 S
H819 C831 0.950 . S
C820 H812 0.950 1_455 S
C820 C821 1.386 . S
C820 C822 1.391 . S
C821 C820 1.386 . S
C821 C825 1.393 . S
C822 H814 0.950 1_455 S
C822 C820 1.391 . S
C822 C823 1.400 . S
C823 C822 1.400 . S
C823 C824 1.398 . S
C823 C829 1.491 . S
C824 H815 0.950 . S
C824 C823 1.398 . S
C824 C825 1.391 . S
C825 H813 0.950 . S
C825 C821 1.393 . S
C825 C824 1.391 . S
C826 H816 0.950 . S
C826 C827 1.386 . S
C826 C828 1.391 . S
C827 C826 1.386 . S
C827 C831 1.393 1_455 S
C828 H817 0.950 . S
C828 C826 1.391 . S
C828 C829 1.400 . S
C829 C823 1.491 . S
C829 C828 1.400 . S
C829 C830 1.429 . S
C830 H818 0.923 1_455 S
C830 C829 1.429 . S
C830 C831 1.387 1_455 S
C831 H819 0.950 . S
C831 C827 1.393 1_655 S
C831 C830 1.387 1_655 S
H832 C840 0.950 . S
H833 C845 0.950 . S
H834 C842 0.950 . S
H835 C844 0.950 . S
H836 C846 0.950 . S
H837 C848 0.950 . S
H838 C850 0.950 . S
H839 C851 0.950 . S
C840 H832 0.950 . S
C840 C841 1.386 . S
C840 C842 1.391 . S
C841 C840 1.386 . S
C841 C845 1.393 . S
C842 H834 0.950 . S
C842 C840 1.391 . S
C842 C843 1.400 . S
C843 C842 1.400 . S
C843 C844 1.398 . S
C843 C849 1.491 . S
C844 H835 0.950 . S
C844 C843 1.398 . S
C844 C845 1.391 . S
C845 H833 0.950 . S
C845 C841 1.393 . S
C845 C844 1.391 . S
C846 H836 0.950 . S
C846 C847 1.386 . S
C846 C848 1.391 . S
C847 C846 1.386 . S
C847 C851 1.393 . S
C848 H837 0.950 . S
C848 C846 1.391 . S
C848 C849 1.400 . S
C849 C843 1.491 . S
C849 C848 1.400 . S
C849 C850 1.398 . S
C850 H838 0.950 . S
C850 C849 1.398 . S
C850 C851 1.391 . S
C851 H839 0.950 . S
C851 C847 1.393 . S
C851 C850 1.391 . S
C381 C1 1.533 . S
C387 C291 1.413 . S
C401 C67 1.516 . S
C407 C325 1.399 . S
C427 C337 1.368 . S
C421 C97 1.489 . S
C441 C133 1.513 . S
C447 C371 1.396 . S
C467 C328 1.426 . S
C461 C25 1.521 . S
C487 C308 1.412 . S
C481 C37 1.504 . S
C507 C355 1.394 . S
C501 C103 1.492 . S
C527 C346 1.419 . S
C521 C109 1.510 . S
C541 C31 1.535 . S
C547 C354 1.439 . S
C567 C316 1.400 . S
C561 C73 1.490 . S
C581 C139 1.521 . S
C587 C292 1.411 . S
C601 C61 1.506 . S
C607 C349 1.387 . S
C627 C307 1.614 . S
C621 C175 1.737 . S
C641 C181 1.665 . S
C647 C329 1.594 . S
C661 C247 1.751 . S
C667 C334 1.645 . S
C681 C277 1.757 . S
C687 C367 1.665 . S
C701 C145 1.738 . S
C707 C312 1.619 . S
C727 C304 1.661 . S
C721 C211 1.698 . S
C747 C358 1.643 . S
C741 C217 1.746 . S
C767 C350 1.616 . S
C761 C283 1.744 . S
C781 C169 1.718 . S
C787 C370 1.624 . S
C807 C313 1.634 . S
C801 C241 1.759 . S
C827 C295 1.607 . S
C821 C253 1.733 . S
C841 C205 1.677 . S
C847 C333 1.648 . S
