# Generated by pormake.
# Topology csq, (4,8)-cn, num edge types: 1
# Building blocks:
#     Node 0, Type 0, BuildingBlock: MUDLON_clean_linker_0, # of connection points: 4
#     Node 1, Type 0, BuildingBlock: MUDLON_clean_linker_0, # of connection points: 4
#     Node 2, Type 0, BuildingBlock: MUDLON_clean_linker_0, # of connection points: 4
#     Node 3, Type 0, BuildingBlock: MUDLON_clean_linker_0, # of connection points: 4
#     Node 4, Type 0, BuildingBlock: MUDLON_clean_linker_0, # of connection points: 4
#     Node 5, Type 0, BuildingBlock: MUDLON_clean_linker_0, # of connection points: 4
#     Node 6, Type 1, BuildingBlock: TAGTUT_clean_sbu_1, # of connection points: 8
#     Node 7, Type 1, BuildingBlock: TAGTUT_clean_sbu_1, # of connection points: 8
#     Node 8, Type 1, BuildingBlock: TAGTUT_clean_sbu_1, # of connection points: 8
#     Edge 9, Type (0, 1), BuildingBlock: CIFDUS_clean_linker_0, # of connection points: 2
#     Edge 10, Type (0, 1), BuildingBlock: CIFDUS_clean_linker_0, # of connection points: 2
#     Edge 11, Type (0, 1), BuildingBlock: CIFDUS_clean_linker_0, # of connection points: 2
#     Edge 12, Type (0, 1), BuildingBlock: CIFDUS_clean_linker_0, # of connection points: 2
#     Edge 13, Type (0, 1), BuildingBlock: CIFDUS_clean_linker_0, # of connection points: 2
#     Edge 14, Type (0, 1), BuildingBlock: CIFDUS_clean_linker_0, # of connection points: 2
#     Edge 15, Type (0, 1), BuildingBlock: CIFDUS_clean_linker_0, # of connection points: 2
#     Edge 16, Type (0, 1), BuildingBlock: CIFDUS_clean_linker_0, # of connection points: 2
#     Edge 17, Type (0, 1), BuildingBlock: CIFDUS_clean_linker_0, # of connection points: 2
#     Edge 18, Type (0, 1), BuildingBlock: CIFDUS_clean_linker_0, # of connection points: 2
#     Edge 19, Type (0, 1), BuildingBlock: CIFDUS_clean_linker_0, # of connection points: 2
#     Edge 20, Type (0, 1), BuildingBlock: CIFDUS_clean_linker_0, # of connection points: 2
#     Edge 21, Type (0, 1), BuildingBlock: CIFDUS_clean_linker_0, # of connection points: 2
#     Edge 22, Type (0, 1), BuildingBlock: CIFDUS_clean_linker_0, # of connection points: 2
#     Edge 23, Type (0, 1), BuildingBlock: CIFDUS_clean_linker_0, # of connection points: 2
#     Edge 24, Type (0, 1), BuildingBlock: CIFDUS_clean_linker_0, # of connection points: 2
#     Edge 25, Type (0, 1), BuildingBlock: CIFDUS_clean_linker_0, # of connection points: 2
#     Edge 26, Type (0, 1), BuildingBlock: CIFDUS_clean_linker_0, # of connection points: 2
#     Edge 27, Type (0, 1), BuildingBlock: CIFDUS_clean_linker_0, # of connection points: 2
#     Edge 28, Type (0, 1), BuildingBlock: CIFDUS_clean_linker_0, # of connection points: 2
#     Edge 29, Type (0, 1), BuildingBlock: CIFDUS_clean_linker_0, # of connection points: 2
#     Edge 30, Type (0, 1), BuildingBlock: CIFDUS_clean_linker_0, # of connection points: 2
#     Edge 31, Type (0, 1), BuildingBlock: CIFDUS_clean_linker_0, # of connection points: 2
#     Edge 32, Type (0, 1), BuildingBlock: CIFDUS_clean_linker_0, # of connection points: 2
# Relax obj value: 0.047
# Max RMSD: 0.133
# Mean RMSD: 0.092
data_MOF--net-csq--node1-TAGTUT_clean_sbu_1--node2-MUDLON_clean_linker_0--edge1-CIFDUS_clean_linker_0
_symmetry_space_group_name_H-M    P1
_symmetry_Int_Tables_number       1
_symmetry_cell_setting            triclinic
loop_
_symmetry_equiv_pos_as_xyz
'x, y, z'
_cell_length_a     64.206277
_cell_length_b     63.559783
_cell_length_c     21.65695
_cell_angle_alpha  92.85591
_cell_angle_beta   92.548686
_cell_angle_gamma 119.90459
loop_
_atom_site_label
_atom_site_type_symbol
_atom_site_fract_x
_atom_site_fract_y
_atom_site_fract_z
_atom_type_partial_charge
H0 H 0.35772 0.49937 0.14743 0.0
N1 N 0.3098 0.46428 0.13082 0.0
H2 H 0.38465 0.50855 0.23932 0.0
H3 H 0.29983 0.44174 0.23512 0.0
H4 H 0.3264 0.45194 0.32986 0.0
H5 H 0.31117 0.42775 0.06977 0.0
H6 H 0.32865 0.42803 0.97172 0.0
H7 H 0.32995 0.50252 0.05759 0.0
H8 H 0.34678 0.50283 0.95812 0.0
H9 H 0.31876 0.50556 0.20313 0.0
H10 H 0.26682 0.44826 0.07052 0.0
H11 H 0.29064 0.51939 0.22065 0.0
H12 H 0.2394 0.46392 0.08202 0.0
H13 H 0.18887 0.55561 0.27554 0.0
H14 H 0.16114 0.54558 0.35754 0.0
H15 H 0.14024 0.46974 0.32479 0.0
H16 H 0.1669 0.47964 0.24211 0.0
H17 H 0.15313 0.48864 0.13571 0.0
H18 H 0.1339 0.49141 0.03882 0.0
H19 H 0.18927 0.56685 0.03733 0.0
H20 H 0.20851 0.56383 0.13436 0.0
H21 H 0.24194 0.5513 0.21679 0.0
H22 H 0.27115 0.5388 0.1939 0.0
H23 H 0.21249 0.46556 0.14063 0.0
N24 N 0.19434 0.52513 0.1988 0.0
H25 H 0.184 0.47922 0.15577 0.0
C26 C 0.32673 0.46939 0.18366 0.0
C27 C 0.35077 0.48853 0.18632 0.0
C28 C 0.36612 0.49411 0.23983 0.0
C29 C 0.35775 0.48121 0.2928 0.0
C30 C 0.33366 0.46211 0.28999 0.0
C31 C 0.31841 0.45624 0.23591 0.0
C32 C 0.31915 0.46497 0.07093 0.0
C33 C 0.31876 0.44411 0.04528 0.0
C34 C 0.32859 0.44429 0.98888 0.0
C35 C 0.33904 0.46542 0.95648 0.0
C36 C 0.33908 0.48629 0.98187 0.0
C37 C 0.32931 0.48611 0.03859 0.0
C38 C 0.29477 0.47525 0.13628 0.0
C39 C 0.30142 0.49606 0.17676 0.0
C40 C 0.28523 0.50432 0.18619 0.0
C41 C 0.26228 0.49275 0.15354 0.0
C42 C 0.25636 0.4729 0.11014 0.0
C43 C 0.27222 0.46408 0.10253 0.0
C44 C 0.18016 0.51859 0.25205 0.0
C45 C 0.17855 0.53687 0.28682 0.0
C46 C 0.16281 0.53111 0.33405 0.0
C47 C 0.14829 0.50679 0.34772 0.0
C48 C 0.15084 0.48862 0.31494 0.0
C49 C 0.16638 0.49437 0.26737 0.0
C50 C 0.18229 0.52613 0.14224 0.0
C51 C 0.16125 0.5057 0.11435 0.0
C52 C 0.15036 0.50728 0.05873 0.0
C53 C 0.16016 0.52932 0.03027 0.0
C54 C 0.18125 0.54966 0.05827 0.0
C55 C 0.19222 0.548 0.11356 0.0
C56 C 0.21077 0.51613 0.19047 0.0
C57 C 0.23553 0.53253 0.20051 0.0
C58 C 0.25222 0.52519 0.18764 0.0
C59 C 0.2445 0.50093 0.16579 0.0
C60 C 0.21949 0.48448 0.15626 0.0
C61 C 0.2029 0.49212 0.16687 0.0
H62 H 0.69921 0.11789 0.20057 0.0
N63 N 0.71249 0.15578 0.13401 0.0
H64 H 0.67635 0.10869 0.2926 0.0
H65 H 0.69636 0.18392 0.19025 0.0
H66 H 0.67321 0.17478 0.28231 0.0
H67 H 0.6733 0.15944 0.09313 0.0
H68 H 0.65002 0.14309 0.99369 0.0
H69 H 0.7216 0.13441 0.03907 0.0
H70 H 0.69937 0.11941 0.93717 0.0
H71 H 0.75402 0.16409 0.18768 0.0
H72 H 0.72119 0.1985 0.08797 0.0
H73 H 0.7932 0.2012 0.19056 0.0
H74 H 0.76055 0.23529 0.08679 0.0
H75 H 0.91688 0.31146 0.18974 0.0
H76 H 0.94036 0.33678 0.28408 0.0
H77 H 0.88139 0.34804 0.32662 0.0
H78 H 0.85814 0.32285 0.23318 0.0
H79 H 0.86614 0.34279 0.1378 0.0
H80 H 0.88598 0.37695 0.07422 0.0
H81 H 0.91924 0.34094 0.98103 0.0
H82 H 0.89968 0.30695 0.04613 0.0
H83 H 0.86328 0.25868 0.12826 0.0
H84 H 0.82319 0.22276 0.12457 0.0
H85 H 0.79227 0.26937 0.14502 0.0
N86 N 0.87502 0.30482 0.14255 0.0
H87 H 0.83223 0.30497 0.14422 0.0
C88 C 0.69922 0.15134 0.18839 0.0
C89 C 0.69368 0.13042 0.21848 0.0
C90 C 0.68086 0.12536 0.27132 0.0
C91 C 0.67316 0.14113 0.29497 0.0
C92 C 0.67891 0.16231 0.26507 0.0
C93 C 0.69204 0.1675 0.21247 0.0
C94 C 0.69885 0.14746 0.07439 0.0
C95 C 0.67903 0.15055 0.0598 0.0
C96 C 0.66591 0.14151 0.00207 0.0
C97 C 0.67262 0.12969 0.95709 0.0
C98 C 0.69324 0.12782 0.97093 0.0
C99 C 0.70604 0.13644 0.02906 0.0
C100 C 0.73491 0.17845 0.13696 0.0
C101 C 0.7554 0.17971 0.16612 0.0
C102 C 0.77778 0.20086 0.16702 0.0
C103 C 0.78021 0.22116 0.13777 0.0
C104 C 0.7594 0.22009 0.11001 0.0
C105 C 0.73689 0.199 0.11015 0.0
C106 C 0.88588 0.31533 0.20405 0.0
C107 C 0.90882 0.31884 0.22048 0.0
C108 C 0.92217 0.33328 0.27417 0.0
C109 C 0.91275 0.34458 0.31194 0.0
C110 C 0.88916 0.33978 0.29764 0.0
C111 C 0.87578 0.32522 0.24425 0.0
C112 C 0.88154 0.32226 0.0968 0.0
C113 C 0.87712 0.34183 0.10265 0.0
C114 C 0.88855 0.36146 0.06627 0.0
C115 C 0.90455 0.36184 0.02356 0.0
C116 C 0.90744 0.34141 0.01463 0.0
C117 C 0.89607 0.32185 0.05106 0.0
C118 C 0.85085 0.28443 0.13737 0.0
C119 C 0.84776 0.26103 0.13134 0.0
C120 C 0.82484 0.24057 0.12999 0.0
C121 C 0.80443 0.24309 0.13573 0.0
C122 C 0.80751 0.26666 0.14022 0.0
C123 C 0.83049 0.28716 0.14047 0.0
H124 H 0.60197 0.89541 0.99233 0.0
N125 N 0.57128 0.85854 0.05186 0.0
H126 H 0.59201 0.91234 0.90523 0.0
H127 H 0.52988 0.83344 0.97303 0.0
H128 H 0.51989 0.84995 0.88477 0.0
H129 H 0.53186 0.86441 0.06062 0.0
H130 H 0.53106 0.89659 0.12216 0.0
H131 H 0.60155 0.88482 0.14915 0.0
H132 H 0.59969 0.91546 0.2173 0.0
H133 H 0.59681 0.83658 0.04229 0.0
H134 H 0.52687 0.82425 0.0852 0.0
H135 H 0.58369 0.79382 0.05475 0.0
H136 H 0.51333 0.78133 0.09607 0.0
H137 H 0.55737 0.68713 0.06596 0.0
H138 H 0.56642 0.66257 0.99326 0.0
H139 H 0.49216 0.62442 0.91788 0.0
H140 H 0.48322 0.64897 0.99113 0.0
H141 H 0.48129 0.63968 0.12266 0.0
H142 H 0.48853 0.61902 0.20411 0.0
H143 H 0.55735 0.68396 0.25805 0.0
H144 H 0.55086 0.70335 0.17103 0.0
H145 H 0.54211 0.71279 0.99716 0.0
H146 H 0.55608 0.75552 0.99629 0.0
H147 H 0.51877 0.75324 0.15903 0.0
N148 N 0.51283 0.68143 0.08147 0.0
H149 H 0.50412 0.70965 0.15987 0.0
C150 C 0.5668 0.86337 0.98978 0.0
C151 C 0.58433 0.88495 0.96751 0.0
C152 C 0.57851 0.89461 0.91776 0.0
C153 C 0.55498 0.88264 0.88869 0.0
C154 C 0.53801 0.85981 0.90711 0.0
C155 C 0.54387 0.85017 0.95718 0.0
C156 C 0.56724 0.87269 0.09894 0.0
C157 C 0.54677 0.8754 0.09466 0.0
C158 C 0.54623 0.89386 0.13074 0.0
C159 C 0.56563 0.90933 0.17405 0.0
C160 C 0.58489 0.90478 0.18259 0.0
C161 C 0.58581 0.88689 0.14472 0.0
C162 C 0.56289 0.83352 0.06245 0.0
C163 C 0.57864 0.82458 0.05451 0.0
C164 C 0.57106 0.80019 0.06133 0.0
C165 C 0.54741 0.78417 0.0759 0.0
C166 C 0.53173 0.79328 0.08541 0.0
C167 C 0.53941 0.81778 0.07882 0.0
C168 C 0.51954 0.66984 0.03358 0.0
C169 C 0.54314 0.67368 0.03326 0.0
C170 C 0.5483 0.6597 0.99173 0.0
C171 C 0.52992 0.64147 0.95057 0.0
C172 C 0.50657 0.63815 0.94983 0.0
C173 C 0.50147 0.65227 0.99096 0.0
C174 C 0.51536 0.67297 0.14051 0.0
C175 C 0.49768 0.6496 0.15306 0.0
C176 C 0.50193 0.63786 0.20036 0.0
C177 C 0.52374 0.64959 0.23834 0.0
C178 C 0.54065 0.67392 0.229 0.0
C179 C 0.53675 0.68533 0.17986 0.0
C180 C 0.52271 0.70758 0.0808 0.0
C181 C 0.53718 0.72109 0.03411 0.0
C182 C 0.54526 0.74587 0.03327 0.0
C183 C 0.53892 0.75788 0.07821 0.0
C184 C 0.52404 0.74449 0.12384 0.0
C185 C 0.51587 0.71961 0.12471 0.0
H186 H 0.86375 0.53318 0.11904 0.0
N187 N 0.82366 0.49478 0.05657 0.0
H188 H 0.88426 0.53223 0.21567 0.0
H189 H 0.81113 0.45721 0.12441 0.0
H190 H 0.83145 0.45611 0.22176 0.0
H191 H 0.83032 0.46501 0.98038 0.0
H192 H 0.85875 0.4759 0.89986 0.0
H193 H 0.85043 0.54044 0.01436 0.0
H194 H 0.87805 0.55126 0.93337 0.0
H195 H 0.83063 0.53963 0.09767 0.0
H196 H 0.77647 0.46628 0.03289 0.0
H197 H 0.79987 0.55068 0.10801 0.0
H198 H 0.74501 0.47631 0.04952 0.0
H199 H 0.69362 0.57737 0.17281 0.0
H200 H 0.67349 0.5731 0.26818 0.0
H201 H 0.65819 0.49868 0.2686 0.0
H202 H 0.67759 0.503 0.17142 0.0
H203 H 0.65385 0.50451 0.07233 0.0
H204 H 0.62813 0.49903 0.97946 0.0
H205 H 0.6827 0.56846 0.92386 0.0
H206 H 0.70806 0.57407 0.01829 0.0
H207 H 0.74037 0.56124 0.17398 0.0
H208 H 0.77035 0.54868 0.16513 0.0
H209 H 0.72495 0.49497 0.01584 0.0
N210 N 0.69842 0.54385 0.10735 0.0
H211 H 0.69438 0.50591 0.02932 0.0
C212 C 0.83594 0.49513 0.1143 0.0
C213 C 0.85645 0.51634 0.14129 0.0
C214 C 0.86808 0.51581 0.19691 0.0
C215 C 0.85947 0.49409 0.22651 0.0
C216 C 0.83867 0.47306 0.19988 0.0
C217 C 0.82703 0.47364 0.14442 0.0
C218 C 0.83811 0.50172 0.00392 0.0
C219 C 0.8404 0.48381 0.96948 0.0
C220 C 0.85654 0.49006 0.92315 0.0
C221 C 0.87082 0.51451 0.91025 0.0
C222 C 0.86759 0.5323 0.94263 0.0
C223 C 0.85155 0.52604 0.98914 0.0
C224 C 0.80592 0.50224 0.06212 0.0
C225 C 0.8121 0.52589 0.08489 0.0
C226 C 0.79423 0.53204 0.0924 0.0
C227 C 0.76964 0.51447 0.07979 0.0
C228 C 0.76361 0.49065 0.05825 0.0
C229 C 0.78157 0.48475 0.04899 0.0
C230 C 0.6872 0.54065 0.16518 0.0
C231 C 0.68601 0.56021 0.19379 0.0
C232 C 0.67468 0.55774 0.24872 0.0
C233 C 0.66432 0.53558 0.27679 0.0
C234 C 0.66575 0.51596 0.24822 0.0
C235 C 0.67697 0.51842 0.19281 0.0
C236 C 0.68277 0.53997 0.05271 0.0
C237 C 0.66021 0.51864 0.04047 0.0
C238 C 0.64566 0.51537 0.98674 0.0
C239 C 0.65336 0.53328 0.94398 0.0
C240 C 0.6761 0.55442 0.95605 0.0
C241 C 0.69061 0.55767 0.00985 0.0
C242 C 0.71512 0.53489 0.10229 0.0
C243 C 0.73681 0.54651 0.14001 0.0
C244 C 0.75412 0.53948 0.13411 0.0
C245 C 0.75049 0.52098 0.08891 0.0
C246 C 0.7285 0.50904 0.05182 0.0
C247 C 0.7109 0.51559 0.05907 0.0
H248 H 0.18147 0.68449 0.17606 0.0
N249 N 0.16541 0.71221 0.12262 0.0
H250 H 0.15955 0.65387 0.24905 0.0
H251 H 0.13054 0.70961 0.18782 0.0
H252 H 0.10841 0.67896 0.25997 0.0
H253 H 0.12672 0.707 0.05979 0.0
H254 H 0.1019 0.67563 0.9776 0.0
H255 H 0.17872 0.68305 0.05953 0.0
H256 H 0.15509 0.65276 0.9739 0.0
H257 H 0.20971 0.71634 0.11345 0.0
H258 H 0.1731 0.75702 0.13844 0.0
H259 H 0.24788 0.75419 0.10958 0.0
H260 H 0.21132 0.79509 0.13882 0.0
H261 H 0.35831 0.86635 0.16211 0.0
H262 H 0.38366 0.88748 0.25823 0.0
H263 H 0.33804 0.91768 0.29808 0.0
H264 H 0.31317 0.89685 0.20147 0.0
H265 H 0.33093 0.90866 0.05581 0.0
H266 H 0.35134 0.91972 0.96043 0.0
H267 H 0.35613 0.85413 0.95429 0.0
H268 H 0.33651 0.84388 0.05176 0.0
H269 H 0.3159 0.82866 0.16221 0.0
H270 H 0.27866 0.78982 0.16652 0.0
H271 H 0.23909 0.81854 0.06958 0.0
N272 N 0.31981 0.86973 0.1165 0.0
H273 H 0.2762 0.85762 0.0691 0.0
C274 C 0.15755 0.69929 0.17696 0.0
C275 C 0.1661 0.68397 0.19604 0.0
C276 C 0.15349 0.66641 0.23724 0.0
C277 C 0.13212 0.66389 0.25886 0.0
C278 C 0.12467 0.6804 0.2431 0.0
C279 C 0.13741 0.69804 0.20274 0.0
C280 C 0.15469 0.69768 0.06501 0.0
C281 C 0.13324 0.69559 0.03996 0.0
C282 C 0.1191 0.67758 0.99288 0.0
C283 C 0.12638 0.66148 0.96887 0.0
C284 C 0.14865 0.6645 0.9919 0.0
C285 C 0.16254 0.68225 0.04008 0.0
C286 C 0.18851 0.73397 0.1249 0.0
C287 C 0.20988 0.73342 0.1183 0.0
C288 C 0.2318 0.75517 0.11686 0.0
C289 C 0.23272 0.7778 0.12298 0.0
C290 C 0.21129 0.77809 0.13207 0.0
C291 C 0.18945 0.7564 0.13256 0.0
C292 C 0.3341 0.88042 0.17448 0.0
C293 C 0.35373 0.87738 0.19188 0.0
C294 C 0.36802 0.88926 0.2471 0.0
C295 C 0.36292 0.90435 0.28564 0.0
C296 C 0.34262 0.90643 0.26909 0.0
C297 C 0.32841 0.89458 0.21407 0.0
C298 C 0.33218 0.87553 0.06057 0.0
C299 C 0.33645 0.89675 0.03377 0.0
C300 C 0.34785 0.90282 0.97877 0.0
C301 C 0.3551 0.88764 0.94875 0.0
C302 C 0.3509 0.86632 0.97606 0.0
C303 C 0.33962 0.86036 0.03167 0.0
C304 C 0.29861 0.84612 0.11632 0.0
C305 C 0.29916 0.82657 0.14232 0.0
C306 C 0.27784 0.80428 0.1442 0.0
C307 C 0.25571 0.80106 0.11917 0.0
C308 C 0.25559 0.82049 0.091 0.0
C309 C 0.27678 0.84278 0.09004 0.0
H310 H 0.47507 0.29768 0.06843 0.0
N311 N 0.43626 0.27891 0.1401 0.0
H312 H 0.48233 0.32684 0.99178 0.0
H313 H 0.40355 0.28648 0.08356 0.0
H314 H 0.41095 0.31627 0.00878 0.0
H315 H 0.4088 0.27127 0.23464 0.0
H316 H 0.41269 0.3014 0.31593 0.0
H317 H 0.47493 0.32519 0.16533 0.0
H318 H 0.47763 0.3557 0.24074 0.0
H319 H 0.48177 0.29111 0.18753 0.0
H320 H 0.41433 0.23193 0.10332 0.0
H321 H 0.49681 0.26322 0.20155 0.0
H322 H 0.42972 0.20391 0.11441 0.0
H323 H 0.52903 0.14942 0.21919 0.0
H324 H 0.52482 0.11497 0.15417 0.0
H325 H 0.46333 0.11065 0.05083 0.0
H326 H 0.46633 0.14339 0.11946 0.0
H327 H 0.45784 0.12491 0.24404 0.0
H328 H 0.45127 0.10369 0.33813 0.0
H329 H 0.51802 0.16324 0.42514 0.0
H330 H 0.52447 0.18462 0.33044 0.0
H331 H 0.52417 0.21021 0.17947 0.0
H332 H 0.50989 0.23799 0.15127 0.0
H333 H 0.43826 0.18528 0.19652 0.0
N334 N 0.49897 0.16662 0.22173 0.0
H335 H 0.4523 0.15751 0.22144 0.0
C336 C 0.43867 0.28994 0.08225 0.0
C337 C 0.46059 0.30081 0.05387 0.0
C338 C 0.4649 0.31786 0.01068 0.0
C339 C 0.44746 0.32434 0.99526 0.0
C340 C 0.42479 0.31169 0.01924 0.0
C341 C 0.42043 0.29455 0.06189 0.0
C342 C 0.44119 0.29591 0.19314 0.0
C343 C 0.42419 0.28955 0.23718 0.0
C344 C 0.42627 0.30697 0.28287 0.0
C345 C 0.44518 0.33132 0.28441 0.0
C346 C 0.4629 0.33725 0.24205 0.0
C347 C 0.46121 0.31969 0.19787 0.0
C348 C 0.44659 0.26344 0.14544 0.0
C349 C 0.4702 0.27214 0.17164 0.0
C350 C 0.47894 0.25616 0.17896 0.0
C351 C 0.46441 0.23126 0.15958 0.0
C352 C 0.4412 0.22287 0.13108 0.0
C353 C 0.43241 0.23882 0.12434 0.0
C354 C 0.49818 0.14922 0.17465 0.0
C355 C 0.51481 0.14114 0.18196 0.0
C356 C 0.51237 0.12141 0.14449 0.0
C357 C 0.49354 0.10964 0.09729 0.0
C358 C 0.47762 0.11862 0.08785 0.0
C359 C 0.47962 0.13786 0.12664 0.0
C360 C 0.49183 0.15637 0.28028 0.0
C361 C 0.47058 0.13392 0.28413 0.0
C362 C 0.46678 0.12179 0.33803 0.0
C363 C 0.48424 0.13178 0.38851 0.0
C364 C 0.50437 0.15516 0.38655 0.0
C365 C 0.50807 0.16736 0.33275 0.0
C366 C 0.48954 0.18197 0.20341 0.0
C367 C 0.50537 0.20468 0.18274 0.0
C368 C 0.49719 0.22054 0.16705 0.0
C369 C 0.47294 0.21393 0.172 0.0
C370 C 0.45698 0.19088 0.19142 0.0
C371 C 0.46512 0.17501 0.2066 0.0
C372 C 0.99802 0.46577 0.83221 0.0
C373 C 0.06547 0.50615 0.75506 0.0
C374 C 0.03483 0.56799 0.69457 0.0
Mg375 Mg 0.0147 0.46937 0.69876 0.0
O376 O 0.00519 0.49291 0.70245 0.0
Mg377 Mg 0.02104 0.51995 0.77036 0.0
Mg378 Mg 0.01068 0.5124 0.63004 0.0
O379 O 0.01616 0.53167 0.55735 0.0
Mg380 Mg 0.00869 0.55658 0.55741 0.0
Mg381 Mg 0.00105 0.505 0.48864 0.0
C382 C 0.98663 0.45713 0.56386 0.0
C383 C 0.04869 0.50553 0.54713 0.0
O384 O 0.00473 0.4886 0.83706 0.0
O385 O -6e-05 0.45479 0.78345 0.0
O386 O 0.05605 0.51836 0.77613 0.0
O387 O 0.05335 0.48713 0.71765 0.0
O388 O 0.99592 0.45083 0.60813 0.0
O389 O 0.98791 0.47799 0.5661 0.0
C390 C 0.97272 0.51872 0.71414 0.0
O391 O 0.9771 0.51488 0.65856 0.0
O392 O 0.98666 0.52114 0.76131 0.0
O393 O 0.0192 0.53619 0.42218 0.0
O394 O 0.02742 0.571 0.47719 0.0
O395 O 0.96651 0.50749 0.47962 0.0
C396 C 0.02869 0.5595 0.42859 0.0
O397 O 0.97049 0.54049 0.53231 0.0
O398 O 0.02612 0.5743 0.64909 0.0
C399 C 0.95787 0.52088 0.49718 0.0
O400 O 0.03338 0.54704 0.69334 0.0
O401 O 0.04434 0.50985 0.60231 0.0
O402 O 0.03486 0.50299 0.49969 0.0
C403 C 0.49909 0.01756 0.85052 0.0
C404 C 0.45784 0.95342 0.72967 0.0
C405 C 0.5459 0.9717 0.65692 0.0
Mg406 Mg 0.48165 0.00768 0.71021 0.0
O407 O 0.51198 0.01017 0.7081 0.0
Mg408 Mg 0.51893 0.98818 0.75709 0.0
Mg409 Mg 0.52209 0.00501 0.62664 0.0
O410 O 0.53245 0.00044 0.54442 0.0
Mg411 Mg 0.5639 0.00605 0.54469 0.0
Mg412 Mg 0.52609 0.02349 0.49778 0.0
C413 C 0.50095 0.04133 0.59791 0.0
C414 C 0.47471 0.97781 0.52795 0.0
O415 O 0.51126 0.00663 0.84288 0.0
O416 O 0.48681 0.02001 0.80609 0.0
O417 O 0.47888 0.95787 0.74911 0.0
O418 O 0.45466 0.96956 0.70495 0.0
O419 O 0.48538 0.03262 0.63864 0.0
O420 O 0.51683 0.03495 0.5911 0.0
C421 C 0.56995 0.03288 0.72346 0.0
O422 O 0.56097 0.03234 0.66889 0.0
O423 O 0.55763 0.0182 0.76293 0.0
O424 O 0.53486 0.00686 0.41106 0.0
O425 O 0.56093 0.99554 0.4484 0.0
O426 O 0.56578 0.05468 0.50787 0.0
C427 C 0.54839 0.99745 0.40366 0.0
O428 O 0.5899 0.04422 0.55708 0.0
O429 O 0.56084 0.98191 0.61562 0.0
C430 C 0.58665 0.06 0.53098 0.0
O431 O 0.52797 0.97515 0.66411 0.0
O432 O 0.48313 0.97775 0.58291 0.0
O433 O 0.48755 0.99305 0.49005 0.0
C434 C 0.52922 0.55269 0.44838 0.0
C435 C 0.5639 0.51208 0.5048 0.0
C436 C 0.47091 0.44096 0.52838 0.0
Mg437 Mg 0.54528 0.54225 0.57469 0.0
O438 O 0.51362 0.51575 0.56075 0.0
Mg439 Mg 0.5045 0.49423 0.48216 0.0
Mg440 Mg 0.4986 0.49056 0.62042 0.0
O441 O 0.48282 0.46517 0.67904 0.0
Mg442 Mg 0.4496 0.44382 0.65735 0.0
Mg443 Mg 0.49093 0.48665 0.75735 0.0
C444 C 0.52567 0.54139 0.71007 0.0
C445 C 0.54069 0.49181 0.7128 0.0
O446 O 0.51675 0.52964 0.43352 0.0
O447 O 0.54147 0.56189 0.50075 0.0
O448 O 0.54234 0.49893 0.48022 0.0
O449 O 0.56947 0.52949 0.5463 0.0
O450 O 0.5417 0.55222 0.67131 0.0
O451 O 0.50749 0.51986 0.697 0.0
C452 C 0.45515 0.4881 0.53074 0.0
O453 O 0.46219 0.48762 0.58671 0.0
O454 O 0.46799 0.49031 0.48567 0.0
O455 O 0.47313 0.44964 0.80423 0.0
O456 O 0.44577 0.42167 0.73118 0.0
O457 O 0.45479 0.48569 0.75471 0.0
C458 C 0.45673 0.42762 0.78553 0.0
O459 O 0.42794 0.46034 0.67947 0.0
O460 O 0.4533 0.43203 0.56355 0.0
C461 C 0.43411 0.4763 0.72516 0.0
O462 O 0.49035 0.46137 0.54319 0.0
O463 O 0.53475 0.49352 0.65659 0.0
O464 O 0.52695 0.48856 0.75665 0.0
H465 H 0.14919 0.53065 0.45863 0.0
H466 H 0.1027 0.46791 0.33172 0.0
H467 H 0.06865 0.45929 0.39145 0.0
H468 H 0.0507 0.47284 0.46924 0.0
H469 H 0.09546 0.53648 0.59386 0.0
H470 H 0.13154 0.54125 0.54658 0.0
C471 C 0.13165 0.51497 0.44444 0.0
C472 C 0.12863 0.50008 0.39026 0.0
C473 C 0.11178 0.51031 0.47857 0.0
C474 C 0.1058 0.47958 0.37332 0.0
C475 C 0.08617 0.4747 0.40726 0.0
C476 C 0.06846 0.48736 0.4872 0.0
C477 C 0.07051 0.50438 0.5345 0.0
C478 C 0.0888 0.49035 0.45858 0.0
C479 C 0.09351 0.52306 0.55774 0.0
C480 C 0.11406 0.52596 0.53006 0.0
H481 H 0.67986 0.12454 0.40326 0.0
H482 H 0.63136 0.14197 0.30432 0.0
H483 H 0.60165 0.12279 0.37994 0.0
H484 H 0.58681 0.09464 0.46149 0.0
H485 H 0.63449 0.0751 0.5568 0.0
H486 H 0.66733 0.10217 0.49677 0.0
C487 C 0.66293 0.12448 0.39895 0.0
C488 C 0.65761 0.13423 0.34766 0.0
C489 C 0.64572 0.11294 0.44183 0.0
C490 C 0.63587 0.13454 0.34328 0.0
C491 C 0.6188 0.12343 0.38632 0.0
C492 C 0.60455 0.09677 0.47052 0.0
C493 C 0.60791 0.08223 0.51238 0.0
C494 C 0.62312 0.11163 0.4341 0.0
C495 C 0.6312 0.08571 0.52421 0.0
C496 C 0.64998 0.10103 0.48941 0.0
H497 H 0.49219 0.61122 0.30053 0.0
H498 H 0.56834 0.65623 0.27827 0.0
H499 H 0.57698 0.6313 0.34436 0.0
H500 H 0.56271 0.59479 0.40353 0.0
H501 H 0.48626 0.54639 0.40842 0.0
H502 H 0.47791 0.57382 0.35118 0.0
C503 C 0.5107 0.61547 0.30854 0.0
C504 C 0.52942 0.63572 0.2834 0.0
C505 C 0.51551 0.60004 0.34268 0.0
C506 C 0.55337 0.6412 0.29749 0.0
C507 C 0.5584 0.62666 0.33467 0.0
C508 C 0.5443 0.59029 0.39137 0.0
C509 C 0.52511 0.56865 0.40933 0.0
C510 C 0.53958 0.60577 0.3566 0.0
C511 C 0.50126 0.56284 0.3939 0.0
C512 C 0.49649 0.57859 0.36174 0.0
H513 H 0.87983 0.52714 0.32779 0.0
H514 H 0.86999 0.45857 0.25043 0.0
H515 H 0.89631 0.4587 0.3352 0.0
H516 H 0.92613 0.4807 0.42277 0.0
H517 H 0.93784 0.5503 0.49803 0.0
H518 H 0.90638 0.547 0.42376 0.0
C519 C 0.88333 0.51215 0.32981 0.0
C520 C 0.87314 0.49301 0.28239 0.0
C521 C 0.89883 0.5125 0.37836 0.0
C522 C 0.87747 0.47348 0.28634 0.0
C523 C 0.89264 0.47359 0.33469 0.0
C524 C 0.92151 0.49496 0.42395 0.0
C525 C 0.93471 0.51593 0.46532 0.0
C526 C 0.90396 0.49333 0.37987 0.0
C527 C 0.92814 0.534 0.46659 0.0
C528 C 0.91028 0.53225 0.42363 0.0
H529 H 0.38542 0.8917 0.37511 0.0
H530 H 0.37914 0.95226 0.31539 0.0
H531 H 0.41049 0.97962 0.39436 0.0
H532 H 0.44328 0.98747 0.47012 0.0
H533 H 0.45135 0.92814 0.52978 0.0
H534 H 0.41542 0.89905 0.46238 0.0
C535 C 0.39079 0.91084 0.37995 0.0
C536 C 0.38002 0.91992 0.33904 0.0
C537 C 0.40911 0.92667 0.42549 0.0
C538 C 0.38693 0.94471 0.34641 0.0
C539 C 0.40497 0.96044 0.39141 0.0
C540 C 0.43671 0.96806 0.46965 0.0
C541 C 0.44982 0.95985 0.5044 0.0
C542 C 0.41661 0.95175 0.4299 0.0
C543 C 0.4413 0.93477 0.50375 0.0
C544 C 0.421 0.91823 0.46456 0.0
H545 H 0.4849 0.37275 0.33803 0.0
H546 H 0.40696 0.33413 0.32777 0.0
H547 H 0.40805 0.36553 0.39891 0.0
H548 H 0.43105 0.40325 0.46663 0.0
H549 H 0.5087 0.44349 0.46966 0.0
H550 H 0.50758 0.41279 0.39517 0.0
C551 C 0.46804 0.37129 0.34993 0.0
C552 C 0.44589 0.3507 0.32775 0.0
C553 C 0.46869 0.38995 0.38875 0.0
C554 C 0.42437 0.34921 0.34537 0.0
C555 C 0.42491 0.36739 0.38542 0.0
C556 C 0.4477 0.40548 0.45025 0.0
C557 C 0.46991 0.42544 0.47412 0.0
C558 C 0.44697 0.38773 0.40774 0.0
C559 C 0.49134 0.4283 0.45192 0.0
C560 C 0.49074 0.41062 0.40984 0.0
H561 H 0.58093 0.90963 0.7984 0.0
H562 H 0.51316 0.88445 0.87966 0.0
H563 H 0.50396 0.90966 0.81487 0.0
H564 H 0.51641 0.94078 0.73888 0.0
H565 H 0.58568 0.96707 0.66398 0.0
H566 H 0.59324 0.94013 0.724 0.0
C567 C 0.56416 0.90967 0.80209 0.0
C568 C 0.54786 0.89528 0.84392 0.0
C569 C 0.55938 0.92476 0.76655 0.0
C570 C 0.52594 0.89514 0.84716 0.0
C571 C 0.52078 0.90979 0.81073 0.0
C572 C 0.53318 0.94067 0.73602 0.0
C573 C 0.55037 0.95596 0.69688 0.0
C574 C 0.53759 0.92503 0.77099 0.0
C575 C 0.572 0.95549 0.69347 0.0
C576 C 0.5764 0.94002 0.72771 0.0
H577 H 0.62439 0.49217 0.86746 0.0
H578 H 0.64559 0.56814 0.89721 0.0
H579 H 0.61541 0.56274 0.81605 0.0
H580 H 0.57892 0.53522 0.74875 0.0
H581 H 0.55527 0.45875 0.72542 0.0
H582 H 0.59057 0.46548 0.79087 0.0
C583 C 0.62252 0.50758 0.85586 0.0
C584 C 0.63709 0.53046 0.88905 0.0
C585 C 0.60469 0.50423 0.80999 0.0
C586 C 0.63476 0.55035 0.87241 0.0
C587 C 0.61738 0.54726 0.82616 0.0
C588 C 0.58216 0.52027 0.75599 0.0
C589 C 0.565 0.49665 0.73152 0.0
C590 C 0.60177 0.52415 0.79605 0.0
C591 C 0.56869 0.47716 0.74268 0.0
C592 C 0.58864 0.48098 0.78086 0.0
H593 H 0.09665 0.66166 0.87561 0.0
H594 H 0.11949 0.61504 0.95702 0.0
H595 H 0.09244 0.58158 0.88127 0.0
H596 H 0.06254 0.56572 0.79082 0.0
H597 H 0.03816 0.61216 0.71552 0.0
H598 H 0.06482 0.64511 0.79209 0.0
C599 C 0.0955 0.64411 0.8778 0.0
C600 C 0.11027 0.64108 0.92207 0.0
C601 C 0.07936 0.62473 0.8356 0.0
C602 C 0.1088 0.61822 0.92272 0.0
C603 C 0.09309 0.59892 0.87984 0.0
C604 C 0.06278 0.5829 0.79174 0.0
C605 C 0.04846 0.58642 0.74705 0.0
C606 C 0.07828 0.60197 0.83599 0.0
C607 C 0.04907 0.60889 0.74899 0.0
C608 C 0.0644 0.62786 0.79264 0.0
H609 H 0.52833 0.09957 0.06073 0.0
H610 H 0.45115 0.0701 0.04736 0.0
H611 H 0.44585 0.03706 0.97497 0.0
H612 H 0.46339 0.01895 0.90733 0.0
H613 H 0.53993 0.04639 0.92535 0.0
H614 H 0.54507 0.07709 0.00699 0.0
C615 C 0.51025 0.08568 0.04348 0.0
C616 C 0.49027 0.08798 0.05841 0.0
C617 C 0.50717 0.06616 0.00319 0.0
C618 C 0.46704 0.0696 0.03488 0.0
C619 C 0.4639 0.05041 0.99401 0.0
C620 C 0.48108 0.03124 0.93053 0.0
C621 C 0.50127 0.03063 0.9105 0.0
C622 C 0.48387 0.0489 0.97663 0.0
C623 C 0.52413 0.04647 0.94064 0.0
C624 C 0.52708 0.0642 0.98661 0.0
H625 H 0.38091 0.50261 0.92039 0.0
H626 H 0.32447 0.42923 0.86223 0.0
H627 H 0.34739 0.42762 0.77698 0.0
H628 H 0.38595 0.44503 0.7282 0.0
H629 H 0.4425 0.51802 0.78875 0.0
H630 H 0.41665 0.52216 0.86174 0.0
C631 C 0.37324 0.48648 0.88818 0.0
C632 C 0.35114 0.46592 0.89874 0.0
C633 C 0.38658 0.48562 0.8393 0.0
C634 C 0.34172 0.44513 0.85644 0.0
C635 C 0.35476 0.44423 0.80731 0.0
C636 C 0.39227 0.46214 0.75575 0.0
C637 C 0.41615 0.48114 0.75323 0.0
C638 C 0.37758 0.46408 0.7995 0.0
C639 C 0.4242 0.5031 0.78991 0.0
C640 C 0.4095 0.5054 0.83213 0.0
H641 H 0.95217 0.38245 0.00883 0.0
H642 H 0.89083 0.39152 0.96877 0.0
H643 H 0.91582 0.42751 0.91395 0.0
H644 H 0.9543 0.45399 0.86906 0.0
H645 H 0.01432 0.44243 0.90271 0.0
H646 H 0.99083 0.40994 0.96916 0.0
C647 C 0.94422 0.3922 0.98775 0.0
C648 C 0.9196 0.38409 0.99185 0.0
C649 C 0.95856 0.41255 0.95574 0.0
C650 C 0.90972 0.39736 0.96601 0.0
C651 C 0.92399 0.4179 0.93463 0.0
C652 C 0.96232 0.44475 0.89259 0.0
C653 C 0.98599 0.45065 0.88238 0.0
C654 C 0.94833 0.42542 0.92835 0.0
C655 C 0.9962 0.43827 0.91114 0.0
C656 C 0.98271 0.4196 0.94847 0.0
H657 H 0.87109 0.49185 0.79869 0.0
H658 H 0.91626 0.55334 0.93033 0.0
H659 H 0.95108 0.56265 0.873 0.0
H660 H 0.96988 0.55007 0.79533 0.0
H661 H 0.92625 0.48798 0.66508 0.0
H662 H 0.88966 0.48239 0.71102 0.0
C663 C 0.88851 0.50743 0.81437 0.0
C664 C 0.89096 0.52175 0.86916 0.0
C665 C 0.90878 0.51253 0.7815 0.0
C666 C 0.91364 0.54211 0.88819 0.0
C667 C 0.9337 0.54738 0.85564 0.0
C668 C 0.95227 0.5357 0.77594 0.0
C669 C 0.95067 0.51935 0.72736 0.0
C670 C 0.93161 0.5323 0.80355 0.0
C671 C 0.92785 0.50088 0.70225 0.0
C672 C 0.907 0.49752 0.7291 0.0
H673 H 0.39274 0.88216 0.91388 0.0
H674 H 0.34637 0.90941 0.8526 0.0
H675 H 0.37208 0.92855 0.76937 0.0
H676 H 0.41108 0.94312 0.72562 0.0
H677 H 0.45732 0.91568 0.78666 0.0
H678 H 0.42761 0.89006 0.85581 0.0
C679 C 0.38779 0.89165 0.88137 0.0
C680 C 0.36801 0.89494 0.89103 0.0
C681 C 0.40266 0.90263 0.83326 0.0
C682 C 0.36198 0.90732 0.84793 0.0
C683 C 0.37658 0.91814 0.79987 0.0
C684 C 0.41439 0.93098 0.75247 0.0
C685 C 0.43678 0.93194 0.75205 0.0
C686 C 0.39753 0.9168 0.79376 0.0
C687 C 0.44046 0.91572 0.78666 0.0
C688 C 0.42354 0.90118 0.82682 0.0
H689 H 0.41857 0.32895 0.9081 0.0
H690 H 0.48976 0.36799 0.00313 0.0
H691 H 0.49861 0.4041 0.94965 0.0
H692 H 0.48598 0.42467 0.87559 0.0
H693 H 0.41427 0.3854 0.78349 0.0
H694 H 0.40548 0.34968 0.83812 0.0
C695 C 0.43596 0.34539 0.91754 0.0
C696 C 0.45346 0.34566 0.95932 0.0
C697 C 0.44073 0.36624 0.88794 0.0
C698 C 0.47608 0.36706 0.97017 0.0
C699 C 0.48107 0.38786 0.94025 0.0
C700 C 0.46833 0.40842 0.86842 0.0
C701 C 0.45082 0.40766 0.82566 0.0
C702 C 0.46348 0.3877 0.89924 0.0
C703 C 0.4281 0.38639 0.81607 0.0
C704 C 0.42306 0.36591 0.84703 0.0
H705 H 0.14135 0.4978 0.92623 0.0
H706 H 0.15067 0.56561 0.0076 0.0
H707 H 0.12575 0.56688 0.92112 0.0
H708 H 0.09691 0.54593 0.83097 0.0
H709 H 0.08591 0.47715 0.75149 0.0
H710 H 0.11646 0.4795 0.82724 0.0
C711 C 0.13807 0.51294 0.92462 0.0
C712 C 0.14757 0.5314 0.97368 0.0
C713 C 0.12348 0.51343 0.87499 0.0
C714 C 0.14361 0.55118 0.97044 0.0
C715 C 0.12927 0.55188 0.9211 0.0
C716 C 0.10156 0.5317 0.82918 0.0
C717 C 0.08871 0.51115 0.78631 0.0
C718 C 0.11851 0.53273 0.8742 0.0
C719 C 0.09534 0.49312 0.7841 0.0
C720 C 0.11264 0.4943 0.82796 0.0
H721 H 0.66294 0.08687 0.89617 0.0
H722 H 0.64683 0.14502 0.88587 0.0
H723 H 0.61586 0.12144 0.80162 0.0
H724 H 0.58922 0.08163 0.74266 0.0
H725 H 0.60529 0.02376 0.75631 0.0
H726 H 0.64127 0.0504 0.82509 0.0
C727 C 0.65332 0.09488 0.87439 0.0
C728 C 0.657 0.11757 0.89853 0.0
C729 C 0.63555 0.08125 0.82604 0.0
C730 C 0.64395 0.1273 0.86968 0.0
C731 C 0.62632 0.1139 0.82109 0.0
C732 C 0.60127 0.07533 0.75869 0.0
C733 C 0.59493 0.05098 0.74441 0.0
C734 C 0.62136 0.09047 0.80045 0.0
C735 C 0.61015 0.04261 0.76642 0.0
C736 C 0.6305 0.05772 0.80632 0.0
H737 H 0.50377 0.59238 0.93264 0.0
H738 H 0.56729 0.65481 0.87717 0.0
H739 H 0.57361 0.62848 0.80335 0.0
H740 H 0.55868 0.58848 0.7478 0.0
H741 H 0.49423 0.5263 0.80126 0.0
H742 H 0.4909 0.55173 0.88337 0.0
C743 C 0.519 0.60017 0.90435 0.0
C744 C 0.53483 0.62546 0.90939 0.0
C745 C 0.52237 0.585 0.86186 0.0
C746 C 0.55485 0.63536 0.87381 0.0
C747 C 0.55841 0.62034 0.83158 0.0
C748 C 0.54412 0.58034 0.77799 0.0
C749 C 0.52652 0.55551 0.76753 0.0
C750 C 0.54197 0.59521 0.82429 0.0
C751 C 0.50793 0.54533 0.80768 0.0
C752 C 0.50592 0.55992 0.85457 0.0
H753 H 0.52021 0.12416 0.42357 0.0
H754 H 0.44699 0.10305 0.4578 0.0
H755 H 0.44562 0.07307 0.52726 0.0
H756 H 0.46503 0.05177 0.57415 0.0
H757 H 0.53791 0.07274 0.53465 0.0
H758 H 0.53958 0.1038 0.47089 0.0
C759 C 0.50414 0.11339 0.44739 0.0
C760 C 0.48388 0.116 0.43667 0.0
C761 C 0.50331 0.0959 0.48535 0.0
C762 C 0.46287 0.10142 0.46606 0.0
C763 C 0.46207 0.08425 0.50537 0.0
C764 C 0.48124 0.06317 0.55159 0.0
C765 C 0.5012 0.05971 0.55853 0.0
C766 C 0.4821 0.0811 0.51464 0.0
C767 C 0.52211 0.07464 0.52908 0.0
C768 C 0.5232 0.09259 0.49303 0.0
H769 H 0.35924 0.45042 0.3753 0.0
H770 H 0.39369 0.52644 0.34009 0.0
H771 H 0.42519 0.53616 0.42156 0.0
H772 H 0.44621 0.5221 0.49069 0.0
H773 H 0.4119 0.44664 0.52781 0.0
H774 H 0.37638 0.43783 0.46009 0.0
C775 C 0.37318 0.46923 0.38644 0.0
C776 C 0.3744 0.4875 0.34976 0.0
C777 C 0.39117 0.47485 0.43428 0.0
C778 C 0.39274 0.51178 0.36549 0.0
C779 C 0.41068 0.51746 0.41268 0.0
C780 C 0.43042 0.50399 0.48617 0.0
C781 C 0.43137 0.48507 0.51441 0.0
C782 C 0.41054 0.49902 0.44573 0.0
C783 C 0.41121 0.46153 0.5074 0.0
C784 C 0.39114 0.45645 0.46778 0.0
H785 H 0.91922 0.3897 0.3324 0.0
H786 H 0.94134 0.34106 0.40337 0.0
H787 H 0.96732 0.37227 0.48606 0.0
H788 H 0.98272 0.41286 0.53915 0.0
H789 H 0.96028 0.46132 0.46751 0.0
H790 H 0.93553 0.43067 0.38356 0.0
C791 C 0.92957 0.38588 0.3664 0.0
C792 C 0.92819 0.36308 0.36259 0.0
C793 C 0.94449 0.40388 0.4132 0.0
C794 C 0.94212 0.35851 0.40574 0.0
C795 C 0.95693 0.37631 0.45286 0.0
C796 C 0.97256 0.41682 0.50503 0.0
C797 C 0.97337 0.43939 0.50985 0.0
C798 C 0.95816 0.39902 0.45713 0.0
C799 C 0.96013 0.44418 0.46493 0.0
C800 C 0.94583 0.42661 0.41702 0.0
H801 H 0.52734 0.9137 0.21023 0.0
H802 H 0.60521 0.95353 0.2143 0.0
H803 H 0.60655 0.98656 0.27888 0.0
H804 H 0.58589 0.00192 0.34386 0.0
H805 H 0.5083 0.9639 0.33358 0.0
H806 H 0.50655 0.93305 0.25781 0.0
C807 C 0.54466 0.92978 0.22345 0.0
C808 C 0.56616 0.93049 0.20869 0.0
C809 C 0.54535 0.94928 0.25862 0.0
C810 C 0.58833 0.95171 0.22717 0.0
C811 C 0.58917 0.9709 0.26335 0.0
C812 C 0.56864 0.98733 0.32311 0.0
C813 C 0.54727 0.98496 0.34396 0.0
C814 C 0.56783 0.96956 0.2807 0.0
C815 C 0.52495 0.96611 0.31737 0.0
C816 C 0.52398 0.94829 0.27496 0.0
H817 H 0.62292 0.49573 0.30627 0.0
H818 H 0.67571 0.56924 0.37578 0.0
H819 H 0.65076 0.56712 0.4596 0.0
H820 H 0.61156 0.54633 0.50472 0.0
H821 H 0.55902 0.47282 0.43475 0.0
H822 H 0.58674 0.47272 0.36156 0.0
C823 C 0.62937 0.5111 0.34057 0.0
C824 C 0.651 0.5328 0.33352 0.0
C825 C 0.61493 0.50977 0.38892 0.0
C826 C 0.65882 0.55252 0.37865 0.0
C827 C 0.64462 0.55129 0.42702 0.0
C828 C 0.60645 0.53001 0.47486 0.0
C829 C 0.58308 0.50974 0.4748 0.0
C830 C 0.62227 0.53029 0.43145 0.0
C831 C 0.57679 0.48879 0.43547 0.0
C832 C 0.59258 0.48876 0.39319 0.0
H833 H 0.08518 0.63099 0.22973 0.0
H834 H 0.14433 0.65029 0.3656 0.0
H835 H 0.11739 0.61772 0.42784 0.0
H836 H 0.07639 0.58619 0.44724 0.0
H837 H 0.01724 0.56632 0.31125 0.0
H838 H 0.04481 0.59663 0.24438 0.0
C839 C 0.0921 0.62791 0.2729 0.0
C840 C 0.1165 0.64311 0.29395 0.0
C841 C 0.07656 0.60916 0.30794 0.0
C842 C 0.12555 0.63881 0.34903 0.0
C843 C 0.11017 0.62028 0.38449 0.0
C844 C 0.06974 0.5883 0.40236 0.0
C845 C 0.04506 0.57431 0.38359 0.0
C846 C 0.0856 0.60569 0.36491 0.0
C847 C 0.0363 0.57693 0.32586 0.0
C848 C 0.052 0.59431 0.28811 0.0
loop_
_geom_bond_atom_site_label_1
_geom_bond_atom_site_label_2
_geom_bond_distance
_geom_bond_site_symmetry_2
_ccdc_geom_bond_type
H0 C27 0.929 . S
N1 C26 1.433 . S
N1 C32 1.435 . S
N1 C38 1.423 . S
H2 C28 0.930 . S
H3 C31 0.931 . S
H4 C30 0.929 . S
H5 C33 0.930 . S
H6 C34 0.932 . S
H7 C37 0.929 . S
H8 C36 0.931 1_556 S
H9 C39 0.929 . S
H10 C43 0.932 . S
H11 C40 0.931 . S
H12 C42 0.929 . S
H13 C45 0.929 . S
H14 C46 0.930 . S
H15 C48 0.929 . S
H16 C49 0.931 . S
H17 C51 0.930 . S
H18 C52 0.932 . S
H19 C54 0.931 1_556 S
H20 C55 0.929 . S
H21 C57 0.929 . S
H22 C58 0.931 . S
H23 C60 0.929 . S
N24 C44 1.433 . S
N24 C50 1.435 . S
N24 C56 1.423 . S
H25 C61 0.932 . S
C26 N1 1.433 . S
C26 C27 1.363 . S
C26 C31 1.370 . S
C27 H0 0.929 . S
C27 C26 1.363 . S
C27 C28 1.385 . S
C28 H2 0.930 . S
C28 C27 1.385 . S
C28 C29 1.357 . S
C29 C28 1.357 . S
C29 C30 1.406 . S
C30 H4 0.929 . S
C30 C29 1.406 . S
C30 C31 1.391 . S
C31 H3 0.931 . S
C31 C26 1.370 . S
C31 C30 1.391 . S
C32 N1 1.435 . S
C32 C33 1.358 . S
C32 C37 1.371 . S
C33 H5 0.930 . S
C33 C32 1.358 . S
C33 C34 1.405 . S
C34 H6 0.932 . S
C34 C33 1.405 . S
C34 C35 1.383 . S
C35 C34 1.383 . S
C35 C36 1.393 . S
C36 H8 0.931 1_554 S
C36 C35 1.393 . S
C36 C37 1.382 . S
C37 H7 0.929 . S
C37 C32 1.371 . S
C37 C36 1.382 . S
C38 N1 1.423 . S
C38 C39 1.362 . S
C38 C43 1.388 . S
C39 H9 0.929 . S
C39 C38 1.362 . S
C39 C40 1.376 . S
C40 H11 0.931 . S
C40 C39 1.376 . S
C40 C41 1.396 . S
C41 C40 1.396 . S
C41 C42 1.348 . S
C41 C59 1.472 . S
C42 H12 0.929 . S
C42 C41 1.348 . S
C42 C43 1.443 . S
C43 H10 0.932 . S
C43 C38 1.388 . S
C43 C42 1.443 . S
C44 N24 1.433 . S
C44 C45 1.363 . S
C44 C49 1.370 . S
C45 H13 0.929 . S
C45 C44 1.363 . S
C45 C46 1.385 . S
C46 H14 0.930 . S
C46 C45 1.385 . S
C46 C47 1.357 . S
C47 C46 1.357 . S
C47 C48 1.406 . S
C48 H15 0.929 . S
C48 C47 1.406 . S
C48 C49 1.391 . S
C49 H16 0.931 . S
C49 C44 1.370 . S
C49 C48 1.391 . S
C50 N24 1.435 . S
C50 C51 1.358 . S
C50 C55 1.371 . S
C51 H17 0.930 . S
C51 C50 1.358 . S
C51 C52 1.405 . S
C52 H18 0.932 . S
C52 C51 1.405 . S
C52 C53 1.383 . S
C53 C52 1.383 . S
C53 C54 1.393 . S
C54 H19 0.931 1_554 S
C54 C53 1.393 . S
C54 C55 1.382 . S
C55 H20 0.929 . S
C55 C50 1.371 . S
C55 C54 1.382 . S
C56 N24 1.423 . S
C56 C57 1.362 . S
C56 C61 1.388 . S
C57 H21 0.929 . S
C57 C56 1.362 . S
C57 C58 1.376 . S
C58 H22 0.931 . S
C58 C57 1.376 . S
C58 C59 1.396 . S
C59 C41 1.472 . S
C59 C58 1.396 . S
C59 C60 1.348 . S
C60 H23 0.929 . S
C60 C59 1.348 . S
C60 C61 1.443 . S
C61 H25 0.932 . S
C61 C56 1.388 . S
C61 C60 1.443 . S
H62 C89 0.929 . S
N63 C88 1.433 . S
N63 C94 1.435 . S
N63 C100 1.423 . S
H64 C90 0.930 . S
H65 C93 0.931 . S
H66 C92 0.929 . S
H67 C95 0.930 . S
H68 C96 0.932 . S
H69 C99 0.929 . S
H70 C98 0.931 . S
H71 C101 0.929 . S
H72 C105 0.932 . S
H73 C102 0.931 . S
H74 C104 0.929 . S
H75 C107 0.929 . S
H76 C108 0.930 . S
H77 C110 0.929 . S
H78 C111 0.931 . S
H79 C113 0.930 . S
H80 C114 0.932 . S
H81 C116 0.931 1_556 S
H82 C117 0.929 . S
H83 C119 0.929 . S
H84 C120 0.931 . S
H85 C122 0.929 . S
N86 C106 1.433 . S
N86 C112 1.435 . S
N86 C118 1.423 . S
H87 C123 0.932 . S
C88 N63 1.433 . S
C88 C89 1.363 . S
C88 C93 1.370 . S
C89 H62 0.929 . S
C89 C88 1.363 . S
C89 C90 1.385 . S
C90 H64 0.930 . S
C90 C89 1.385 . S
C90 C91 1.357 . S
C91 C90 1.357 . S
C91 C92 1.406 . S
C92 H66 0.929 . S
C92 C91 1.406 . S
C92 C93 1.391 . S
C93 H65 0.931 . S
C93 C88 1.370 . S
C93 C92 1.391 . S
C94 N63 1.435 . S
C94 C95 1.358 . S
C94 C99 1.371 . S
C95 H67 0.930 . S
C95 C94 1.358 . S
C95 C96 1.405 . S
C96 H68 0.932 . S
C96 C95 1.405 . S
C96 C97 1.383 1_554 S
C97 C96 1.383 1_556 S
C97 C98 1.393 . S
C98 H70 0.931 . S
C98 C97 1.393 . S
C98 C99 1.382 1_556 S
C99 H69 0.929 . S
C99 C94 1.371 . S
C99 C98 1.382 1_554 S
C100 N63 1.423 . S
C100 C101 1.362 . S
C100 C105 1.388 . S
C101 H71 0.929 . S
C101 C100 1.362 . S
C101 C102 1.376 . S
C102 H73 0.931 . S
C102 C101 1.376 . S
C102 C103 1.396 . S
C103 C102 1.396 . S
C103 C104 1.348 . S
C103 C121 1.472 . S
C104 H74 0.929 . S
C104 C103 1.348 . S
C104 C105 1.443 . S
C105 H72 0.932 . S
C105 C100 1.388 . S
C105 C104 1.443 . S
C106 N86 1.433 . S
C106 C107 1.363 . S
C106 C111 1.370 . S
C107 H75 0.929 . S
C107 C106 1.363 . S
C107 C108 1.385 . S
C108 H76 0.930 . S
C108 C107 1.385 . S
C108 C109 1.357 . S
C109 C108 1.357 . S
C109 C110 1.406 . S
C110 H77 0.929 . S
C110 C109 1.406 . S
C110 C111 1.391 . S
C111 H78 0.931 . S
C111 C106 1.370 . S
C111 C110 1.391 . S
C112 N86 1.435 . S
C112 C113 1.358 . S
C112 C117 1.371 . S
C113 H79 0.930 . S
C113 C112 1.358 . S
C113 C114 1.405 . S
C114 H80 0.932 . S
C114 C113 1.405 . S
C114 C115 1.383 . S
C115 C114 1.383 . S
C115 C116 1.393 . S
C116 H81 0.931 1_554 S
C116 C115 1.393 . S
C116 C117 1.382 . S
C117 H82 0.929 . S
C117 C112 1.371 . S
C117 C116 1.382 . S
C118 N86 1.423 . S
C118 C119 1.362 . S
C118 C123 1.388 . S
C119 H83 0.929 . S
C119 C118 1.362 . S
C119 C120 1.376 . S
C120 H84 0.931 . S
C120 C119 1.376 . S
C120 C121 1.396 . S
C121 C103 1.472 . S
C121 C120 1.396 . S
C121 C122 1.348 . S
C122 H85 0.929 . S
C122 C121 1.348 . S
C122 C123 1.443 . S
C123 H87 0.932 . S
C123 C118 1.388 . S
C123 C122 1.443 . S
H124 C151 0.929 . S
N125 C150 1.433 1_554 S
N125 C156 1.435 . S
N125 C162 1.423 . S
H126 C152 0.930 . S
H127 C155 0.931 . S
H128 C154 0.929 . S
H129 C157 0.930 . S
H130 C158 0.932 . S
H131 C161 0.929 . S
H132 C160 0.931 . S
H133 C163 0.929 1_556 S
H134 C167 0.932 . S
H135 C164 0.931 1_556 S
H136 C166 0.929 . S
H137 C169 0.929 . S
H138 C170 0.930 . S
H139 C172 0.929 . S
H140 C173 0.931 . S
H141 C175 0.930 . S
H142 C176 0.932 . S
H143 C178 0.931 . S
H144 C179 0.929 . S
H145 C181 0.929 1_556 S
H146 C182 0.931 1_556 S
H147 C184 0.929 . S
N148 C168 1.433 1_554 S
N148 C174 1.435 . S
N148 C180 1.423 . S
H149 C185 0.932 . S
C150 N125 1.433 1_556 S
C150 C151 1.363 . S
C150 C155 1.370 . S
C151 H124 0.929 . S
C151 C150 1.363 . S
C151 C152 1.385 . S
C152 H126 0.930 . S
C152 C151 1.385 . S
C152 C153 1.357 . S
C153 C152 1.357 . S
C153 C154 1.406 . S
C154 H128 0.929 . S
C154 C153 1.406 . S
C154 C155 1.391 . S
C155 H127 0.931 . S
C155 C150 1.370 . S
C155 C154 1.391 . S
C156 N125 1.435 . S
C156 C157 1.358 . S
C156 C161 1.371 . S
C157 H129 0.930 . S
C157 C156 1.358 . S
C157 C158 1.405 . S
C158 H130 0.932 . S
C158 C157 1.405 . S
C158 C159 1.383 . S
C159 C158 1.383 . S
C159 C160 1.393 . S
C160 H132 0.931 . S
C160 C159 1.393 . S
C160 C161 1.382 . S
C161 H131 0.929 . S
C161 C156 1.371 . S
C161 C160 1.382 . S
C162 N125 1.423 . S
C162 C163 1.362 . S
C162 C167 1.388 . S
C163 H133 0.929 1_554 S
C163 C162 1.362 . S
C163 C164 1.376 . S
C164 H135 0.931 1_554 S
C164 C163 1.376 . S
C164 C165 1.396 . S
C165 C164 1.396 . S
C165 C166 1.348 . S
C165 C183 1.472 . S
C166 H136 0.929 . S
C166 C165 1.348 . S
C166 C167 1.443 . S
C167 H134 0.932 . S
C167 C162 1.388 . S
C167 C166 1.443 . S
C168 N148 1.433 1_556 S
C168 C169 1.363 . S
C168 C173 1.370 . S
C169 H137 0.929 . S
C169 C168 1.363 . S
C169 C170 1.385 . S
C170 H138 0.930 . S
C170 C169 1.385 . S
C170 C171 1.357 . S
C171 C170 1.357 . S
C171 C172 1.406 . S
C172 H139 0.929 . S
C172 C171 1.406 . S
C172 C173 1.391 . S
C173 H140 0.931 . S
C173 C168 1.370 . S
C173 C172 1.391 . S
C174 N148 1.435 . S
C174 C175 1.358 . S
C174 C179 1.371 . S
C175 H141 0.930 . S
C175 C174 1.358 . S
C175 C176 1.405 . S
C176 H142 0.932 . S
C176 C175 1.405 . S
C176 C177 1.383 . S
C177 C176 1.383 . S
C177 C178 1.393 . S
C178 H143 0.931 . S
C178 C177 1.393 . S
C178 C179 1.382 . S
C179 H144 0.929 . S
C179 C174 1.371 . S
C179 C178 1.382 . S
C180 N148 1.423 . S
C180 C181 1.362 . S
C180 C185 1.388 . S
C181 H145 0.929 1_554 S
C181 C180 1.362 . S
C181 C182 1.376 . S
C182 H146 0.931 1_554 S
C182 C181 1.376 . S
C182 C183 1.396 . S
C183 C165 1.472 . S
C183 C182 1.396 . S
C183 C184 1.348 . S
C184 H147 0.929 . S
C184 C183 1.348 . S
C184 C185 1.443 . S
C185 H149 0.932 . S
C185 C180 1.388 . S
C185 C184 1.443 . S
H186 C213 0.929 . S
N187 C212 1.433 . S
N187 C218 1.435 . S
N187 C224 1.423 . S
H188 C214 0.930 . S
H189 C217 0.931 . S
H190 C216 0.929 . S
H191 C219 0.930 . S
H192 C220 0.932 . S
H193 C223 0.929 . S
H194 C222 0.931 . S
H195 C225 0.929 . S
H196 C229 0.932 1_556 S
H197 C226 0.931 . S
H198 C228 0.929 1_556 S
H199 C231 0.929 . S
H200 C232 0.930 . S
H201 C234 0.929 . S
H202 C235 0.931 . S
H203 C237 0.930 . S
H204 C238 0.932 . S
H205 C240 0.931 . S
H206 C241 0.929 . S
H207 C243 0.929 . S
H208 C244 0.931 . S
H209 C246 0.929 1_556 S
N210 C230 1.433 . S
N210 C236 1.435 . S
N210 C242 1.423 . S
H211 C247 0.932 1_556 S
C212 N187 1.433 . S
C212 C213 1.363 . S
C212 C217 1.370 . S
C213 H186 0.929 . S
C213 C212 1.363 . S
C213 C214 1.385 . S
C214 H188 0.930 . S
C214 C213 1.385 . S
C214 C215 1.357 . S
C215 C214 1.357 . S
C215 C216 1.406 . S
C216 H190 0.929 . S
C216 C215 1.406 . S
C216 C217 1.391 . S
C217 H189 0.931 . S
C217 C212 1.370 . S
C217 C216 1.391 . S
C218 N187 1.435 . S
C218 C219 1.358 . S
C218 C223 1.371 1_554 S
C219 H191 0.930 . S
C219 C218 1.358 . S
C219 C220 1.405 1_554 S
C220 H192 0.932 . S
C220 C219 1.405 1_556 S
C220 C221 1.383 . S
C221 C220 1.383 . S
C221 C222 1.393 . S
C222 H194 0.931 . S
C222 C221 1.393 . S
C222 C223 1.382 . S
C223 H193 0.929 . S
C223 C218 1.371 1_556 S
C223 C222 1.382 . S
C224 N187 1.423 . S
C224 C225 1.362 . S
C224 C229 1.388 . S
C225 H195 0.929 . S
C225 C224 1.362 . S
C225 C226 1.376 . S
C226 H197 0.931 . S
C226 C225 1.376 . S
C226 C227 1.396 . S
C227 C226 1.396 . S
C227 C228 1.348 . S
C227 C245 1.472 . S
C228 H198 0.929 1_554 S
C228 C227 1.348 . S
C228 C229 1.443 . S
C229 H196 0.932 1_554 S
C229 C224 1.388 . S
C229 C228 1.443 . S
C230 N210 1.433 . S
C230 C231 1.363 . S
C230 C235 1.370 . S
C231 H199 0.929 . S
C231 C230 1.363 . S
C231 C232 1.385 . S
C232 H200 0.930 . S
C232 C231 1.385 . S
C232 C233 1.357 . S
C233 C232 1.357 . S
C233 C234 1.406 . S
C234 H201 0.929 . S
C234 C233 1.406 . S
C234 C235 1.391 . S
C235 H202 0.931 . S
C235 C230 1.370 . S
C235 C234 1.391 . S
C236 N210 1.435 . S
C236 C237 1.358 . S
C236 C241 1.371 1_554 S
C237 H203 0.930 . S
C237 C236 1.358 . S
C237 C238 1.405 1_554 S
C238 H204 0.932 . S
C238 C237 1.405 1_556 S
C238 C239 1.383 . S
C239 C238 1.383 . S
C239 C240 1.393 . S
C240 H205 0.931 . S
C240 C239 1.393 . S
C240 C241 1.382 . S
C241 H206 0.929 . S
C241 C236 1.371 1_556 S
C241 C240 1.382 . S
C242 N210 1.423 . S
C242 C243 1.362 . S
C242 C247 1.388 . S
C243 H207 0.929 . S
C243 C242 1.362 . S
C243 C244 1.376 . S
C244 H208 0.931 . S
C244 C243 1.376 . S
C244 C245 1.396 . S
C245 C227 1.472 . S
C245 C244 1.396 . S
C245 C246 1.348 . S
C246 H209 0.929 1_554 S
C246 C245 1.348 . S
C246 C247 1.443 . S
C247 H211 0.932 1_554 S
C247 C242 1.388 . S
C247 C246 1.443 . S
H248 C275 0.929 . S
N249 C274 1.433 . S
N249 C280 1.435 . S
N249 C286 1.423 . S
H250 C276 0.930 . S
H251 C279 0.931 . S
H252 C278 0.929 . S
H253 C281 0.930 . S
H254 C282 0.932 . S
H255 C285 0.929 . S
H256 C284 0.931 . S
H257 C287 0.929 . S
H258 C291 0.932 . S
H259 C288 0.931 . S
H260 C290 0.929 . S
H261 C293 0.929 . S
H262 C294 0.930 . S
H263 C296 0.929 . S
H264 C297 0.931 . S
H265 C299 0.930 . S
H266 C300 0.932 . S
H267 C302 0.931 . S
H268 C303 0.929 1_556 S
H269 C305 0.929 . S
H270 C306 0.931 . S
H271 C308 0.929 . S
N272 C292 1.433 . S
N272 C298 1.435 . S
N272 C304 1.423 . S
H273 C309 0.932 . S
C274 N249 1.433 . S
C274 C275 1.363 . S
C274 C279 1.370 . S
C275 H248 0.929 . S
C275 C274 1.363 . S
C275 C276 1.385 . S
C276 H250 0.930 . S
C276 C275 1.385 . S
C276 C277 1.357 . S
C277 C276 1.357 . S
C277 C278 1.406 . S
C278 H252 0.929 . S
C278 C277 1.406 . S
C278 C279 1.391 . S
C279 H251 0.931 . S
C279 C274 1.370 . S
C279 C278 1.391 . S
C280 N249 1.435 . S
C280 C281 1.358 . S
C280 C285 1.371 1_554 S
C281 H253 0.930 . S
C281 C280 1.358 . S
C281 C282 1.405 1_554 S
C282 H254 0.932 . S
C282 C281 1.405 1_556 S
C282 C283 1.383 . S
C283 C282 1.383 . S
C283 C284 1.393 . S
C284 H256 0.931 . S
C284 C283 1.393 . S
C284 C285 1.382 . S
C285 H255 0.929 . S
C285 C280 1.371 1_556 S
C285 C284 1.382 . S
C286 N249 1.423 . S
C286 C287 1.362 . S
C286 C291 1.388 . S
C287 H257 0.929 . S
C287 C286 1.362 . S
C287 C288 1.376 . S
C288 H259 0.931 . S
C288 C287 1.376 . S
C288 C289 1.396 . S
C289 C288 1.396 . S
C289 C290 1.348 . S
C289 C307 1.472 . S
C290 H260 0.929 . S
C290 C289 1.348 . S
C290 C291 1.443 . S
C291 H258 0.932 . S
C291 C286 1.388 . S
C291 C290 1.443 . S
C292 N272 1.433 . S
C292 C293 1.363 . S
C292 C297 1.370 . S
C293 H261 0.929 . S
C293 C292 1.363 . S
C293 C294 1.385 . S
C294 H262 0.930 . S
C294 C293 1.385 . S
C294 C295 1.357 . S
C295 C294 1.357 . S
C295 C296 1.406 . S
C296 H263 0.929 . S
C296 C295 1.406 . S
C296 C297 1.391 . S
C297 H264 0.931 . S
C297 C292 1.370 . S
C297 C296 1.391 . S
C298 N272 1.435 . S
C298 C299 1.358 . S
C298 C303 1.371 . S
C299 H265 0.930 . S
C299 C298 1.358 . S
C299 C300 1.405 . S
C300 H266 0.932 . S
C300 C299 1.405 . S
C300 C301 1.383 1_554 S
C301 C300 1.383 1_556 S
C301 C302 1.393 . S
C302 H267 0.931 . S
C302 C301 1.393 . S
C302 C303 1.382 1_556 S
C303 H268 0.929 1_554 S
C303 C298 1.371 . S
C303 C302 1.382 1_554 S
C304 N272 1.423 . S
C304 C305 1.362 . S
C304 C309 1.388 . S
C305 H269 0.929 . S
C305 C304 1.362 . S
C305 C306 1.376 . S
C306 H270 0.931 . S
C306 C305 1.376 . S
C306 C307 1.396 . S
C307 C289 1.472 . S
C307 C306 1.396 . S
C307 C308 1.348 . S
C308 H271 0.929 . S
C308 C307 1.348 . S
C308 C309 1.443 . S
C309 H273 0.932 . S
C309 C304 1.388 . S
C309 C308 1.443 . S
H310 C337 0.929 . S
N311 C336 1.433 . S
N311 C342 1.435 . S
N311 C348 1.423 . S
H312 C338 0.930 . S
H313 C341 0.931 . S
H314 C340 0.929 . S
H315 C343 0.930 . S
H316 C344 0.932 . S
H317 C347 0.929 . S
H318 C346 0.931 . S
H319 C349 0.929 . S
H320 C353 0.932 . S
H321 C350 0.931 . S
H322 C352 0.929 . S
H323 C355 0.929 . S
H324 C356 0.930 . S
H325 C358 0.929 . S
H326 C359 0.931 . S
H327 C361 0.930 . S
H328 C362 0.932 . S
H329 C364 0.931 . S
H330 C365 0.929 . S
H331 C367 0.929 . S
H332 C368 0.931 . S
H333 C370 0.929 . S
N334 C354 1.433 . S
N334 C360 1.435 . S
N334 C366 1.423 . S
H335 C371 0.932 . S
C336 N311 1.433 . S
C336 C337 1.363 . S
C336 C341 1.370 . S
C337 H310 0.929 . S
C337 C336 1.363 . S
C337 C338 1.385 . S
C338 H312 0.930 . S
C338 C337 1.385 . S
C338 C339 1.357 . S
C339 C338 1.357 . S
C339 C340 1.406 . S
C340 H314 0.929 . S
C340 C339 1.406 . S
C340 C341 1.391 . S
C341 H313 0.931 . S
C341 C336 1.370 . S
C341 C340 1.391 . S
C342 N311 1.435 . S
C342 C343 1.358 . S
C342 C347 1.371 . S
C343 H315 0.930 . S
C343 C342 1.358 . S
C343 C344 1.405 . S
C344 H316 0.932 . S
C344 C343 1.405 . S
C344 C345 1.383 . S
C345 C344 1.383 . S
C345 C346 1.393 . S
C346 H318 0.931 . S
C346 C345 1.393 . S
C346 C347 1.382 . S
C347 H317 0.929 . S
C347 C342 1.371 . S
C347 C346 1.382 . S
C348 N311 1.423 . S
C348 C349 1.362 . S
C348 C353 1.388 . S
C349 H319 0.929 . S
C349 C348 1.362 . S
C349 C350 1.376 . S
C350 H321 0.931 . S
C350 C349 1.376 . S
C350 C351 1.396 . S
C351 C350 1.396 . S
C351 C352 1.348 . S
C351 C369 1.472 . S
C352 H322 0.929 . S
C352 C351 1.348 . S
C352 C353 1.443 . S
C353 H320 0.932 . S
C353 C348 1.388 . S
C353 C352 1.443 . S
C354 N334 1.433 . S
C354 C355 1.363 . S
C354 C359 1.370 . S
C355 H323 0.929 . S
C355 C354 1.363 . S
C355 C356 1.385 . S
C356 H324 0.930 . S
C356 C355 1.385 . S
C356 C357 1.357 . S
C357 C356 1.357 . S
C357 C358 1.406 . S
C358 H325 0.929 . S
C358 C357 1.406 . S
C358 C359 1.391 . S
C359 H326 0.931 . S
C359 C354 1.370 . S
C359 C358 1.391 . S
C360 N334 1.435 . S
C360 C361 1.358 . S
C360 C365 1.371 . S
C361 H327 0.930 . S
C361 C360 1.358 . S
C361 C362 1.405 . S
C362 H328 0.932 . S
C362 C361 1.405 . S
C362 C363 1.383 . S
C363 C362 1.383 . S
C363 C364 1.393 . S
C364 H329 0.931 . S
C364 C363 1.393 . S
C364 C365 1.382 . S
C365 H330 0.929 . S
C365 C360 1.371 . S
C365 C364 1.382 . S
C366 N334 1.423 . S
C366 C367 1.362 . S
C366 C371 1.388 . S
C367 H331 0.929 . S
C367 C366 1.362 . S
C367 C368 1.376 . S
C368 H332 0.931 . S
C368 C367 1.376 . S
C368 C369 1.396 . S
C369 C351 1.472 . S
C369 C368 1.396 . S
C369 C370 1.348 . S
C370 H333 0.929 . S
C370 C369 1.348 . S
C370 C371 1.443 . S
C371 H335 0.932 . S
C371 C366 1.388 . S
C371 C370 1.443 . S
C372 O384 1.241 . S
C372 O385 1.280 . S
C373 O386 1.277 . S
C373 O387 1.245 . S
C374 O398 1.247 . S
C374 O400 1.289 . S
Mg375 O376 1.920 . S
Mg375 O385 1.984 . S
Mg375 O387 1.988 1_655 S
Mg375 O388 2.061 . S
O376 Mg375 1.920 . S
O376 Mg377 1.987 1_655 S
O376 Mg378 1.918 1_655 S
Mg377 O376 1.987 1_455 S
Mg377 O384 2.042 1_455 S
Mg377 O386 2.041 . S
Mg377 O392 2.038 1_455 S
Mg377 O400 2.238 . S
Mg378 O376 1.918 1_455 S
Mg378 O379 1.917 . S
Mg378 O389 2.106 1_455 S
Mg378 O391 2.079 1_455 S
Mg378 O400 2.106 . S
Mg378 O401 2.079 . S
O379 Mg378 1.917 . S
O379 Mg380 1.926 . S
O379 Mg381 1.986 . S
Mg380 O379 1.926 . S
Mg380 O394 1.984 . S
Mg380 O397 1.988 1_455 S
Mg380 O398 2.061 . S
Mg381 O379 1.986 . S
Mg381 O389 2.238 1_455 S
Mg381 O393 2.042 . S
Mg381 O395 2.041 1_455 S
Mg381 O402 2.038 . S
C382 O388 1.247 . S
C382 O389 1.289 . S
C383 O401 1.245 . S
C383 O402 1.274 . S
O384 C372 1.241 . S
O384 Mg377 2.042 1_655 S
O385 C372 1.280 . S
O385 Mg375 1.984 . S
O386 C373 1.277 . S
O386 Mg377 2.041 . S
O387 C373 1.245 . S
O387 Mg375 1.988 1_455 S
O388 Mg375 2.061 . S
O388 C382 1.247 . S
O389 Mg378 2.106 1_655 S
O389 Mg381 2.238 1_655 S
O389 C382 1.289 . S
C390 O391 1.245 . S
C390 O392 1.274 . S
O391 Mg378 2.079 1_655 S
O391 C390 1.245 . S
O392 Mg377 2.038 1_655 S
O392 C390 1.274 . S
O393 Mg381 2.042 . S
O393 C396 1.241 . S
O394 Mg380 1.984 . S
O394 C396 1.280 . S
O395 Mg381 2.041 1_655 S
O395 C399 1.277 . S
C396 O393 1.241 . S
C396 O394 1.280 . S
O397 Mg380 1.988 1_655 S
O397 C399 1.245 . S
O398 C374 1.247 . S
O398 Mg380 2.061 . S
C399 O395 1.277 . S
C399 O397 1.245 . S
O400 C374 1.289 . S
O400 Mg377 2.238 . S
O400 Mg378 2.106 . S
O401 Mg378 2.079 . S
O401 C383 1.245 . S
O402 Mg381 2.038 . S
O402 C383 1.274 . S
C403 O415 1.241 . S
C403 O416 1.280 . S
C404 O417 1.277 . S
C404 O418 1.245 . S
C405 O429 1.247 . S
C405 O431 1.289 . S
Mg406 O407 1.926 . S
Mg406 O416 1.984 . S
Mg406 O418 1.988 1_545 S
Mg406 O419 2.061 . S
O407 Mg406 1.926 . S
O407 Mg408 1.986 . S
O407 Mg409 1.917 . S
Mg408 O407 1.986 . S
Mg408 O415 2.042 . S
Mg408 O417 2.041 1_545 S
Mg408 O423 2.038 . S
Mg408 O431 2.238 1_545 S
Mg409 O407 1.917 . S
Mg409 O410 1.917 1_545 S
Mg409 O420 2.106 . S
Mg409 O422 2.079 . S
Mg409 O431 2.106 1_545 S
Mg409 O432 2.079 1_545 S
O410 Mg409 1.917 1_565 S
O410 Mg411 1.926 . S
O410 Mg412 1.986 1_565 S
Mg411 O410 1.926 . S
Mg411 O425 1.984 . S
Mg411 O428 1.988 1_565 S
Mg411 O429 2.061 . S
Mg412 O410 1.986 1_545 S
Mg412 O420 2.238 . S
Mg412 O424 2.042 1_545 S
Mg412 O426 2.041 . S
Mg412 O433 2.038 1_545 S
C413 O419 1.247 . S
C413 O420 1.289 . S
C414 O432 1.245 . S
C414 O433 1.274 . S
O415 C403 1.241 . S
O415 Mg408 2.042 . S
O416 C403 1.280 . S
O416 Mg406 1.984 . S
O417 C404 1.277 . S
O417 Mg408 2.041 1_565 S
O418 C404 1.245 . S
O418 Mg406 1.988 1_565 S
O419 Mg406 2.061 . S
O419 C413 1.247 . S
O420 Mg409 2.106 . S
O420 Mg412 2.238 . S
O420 C413 1.289 . S
C421 O422 1.245 . S
C421 O423 1.274 . S
O422 Mg409 2.079 . S
O422 C421 1.245 . S
O423 Mg408 2.038 . S
O423 C421 1.274 . S
O424 Mg412 2.042 1_565 S
O424 C427 1.241 . S
O425 Mg411 1.984 . S
O425 C427 1.280 . S
O426 Mg412 2.041 . S
O426 C430 1.277 . S
C427 O424 1.241 . S
C427 O425 1.280 . S
O428 Mg411 1.988 1_545 S
O428 C430 1.245 . S
O429 C405 1.247 . S
O429 Mg411 2.061 . S
C430 O426 1.277 . S
C430 O428 1.245 . S
O431 C405 1.289 . S
O431 Mg408 2.238 1_565 S
O431 Mg409 2.106 1_565 S
O432 Mg409 2.079 1_565 S
O432 C414 1.245 . S
O433 Mg412 2.038 1_565 S
O433 C414 1.274 . S
C434 O446 1.241 . S
C434 O447 1.280 . S
C435 O448 1.277 . S
C435 O449 1.245 . S
C436 O460 1.247 . S
C436 O462 1.289 . S
Mg437 O438 1.926 . S
Mg437 O447 1.984 . S
Mg437 O449 1.988 . S
Mg437 O450 2.061 . S
O438 Mg437 1.926 . S
O438 Mg439 1.986 . S
O438 Mg440 1.917 . S
Mg439 O438 1.986 . S
Mg439 O446 2.042 . S
Mg439 O448 2.041 . S
Mg439 O454 2.038 . S
Mg439 O462 2.238 . S
Mg440 O438 1.917 . S
Mg440 O441 1.917 . S
Mg440 O451 2.106 . S
Mg440 O453 2.079 . S
Mg440 O462 2.106 . S
Mg440 O463 2.079 . S
O441 Mg440 1.917 . S
O441 Mg442 1.926 . S
O441 Mg443 1.986 . S
Mg442 O441 1.926 . S
Mg442 O456 1.984 . S
Mg442 O459 1.988 . S
Mg442 O460 2.061 . S
Mg443 O441 1.986 . S
Mg443 O451 2.238 . S
Mg443 O455 2.042 . S
Mg443 O457 2.041 . S
Mg443 O464 2.038 . S
C444 O450 1.247 . S
C444 O451 1.289 . S
C445 O463 1.245 . S
C445 O464 1.274 . S
O446 C434 1.241 . S
O446 Mg439 2.042 . S
O447 C434 1.280 . S
O447 Mg437 1.984 . S
O448 C435 1.277 . S
O448 Mg439 2.041 . S
O449 C435 1.245 . S
O449 Mg437 1.988 . S
O450 Mg437 2.061 . S
O450 C444 1.247 . S
O451 Mg440 2.106 . S
O451 Mg443 2.238 . S
O451 C444 1.289 . S
C452 O453 1.245 . S
C452 O454 1.274 . S
O453 Mg440 2.079 . S
O453 C452 1.245 . S
O454 Mg439 2.038 . S
O454 C452 1.274 . S
O455 Mg443 2.042 . S
O455 C458 1.241 . S
O456 Mg442 1.984 . S
O456 C458 1.280 . S
O457 Mg443 2.041 . S
O457 C461 1.277 . S
C458 O455 1.241 . S
C458 O456 1.280 . S
O459 Mg442 1.988 . S
O459 C461 1.245 . S
O460 C436 1.247 . S
O460 Mg442 2.061 . S
C461 O457 1.277 . S
C461 O459 1.245 . S
O462 C436 1.289 . S
O462 Mg439 2.238 . S
O462 Mg440 2.106 . S
O463 Mg440 2.079 . S
O463 C445 1.245 . S
O464 Mg443 2.038 . S
O464 C445 1.274 . S
H465 C471 0.930 . S
H466 C474 0.930 . S
H467 C475 0.930 . S
H468 C476 0.930 . S
H469 C479 0.930 . S
H470 C480 0.930 . S
C471 H465 0.930 . S
C471 C472 1.355 . S
C471 C473 1.415 . S
C472 C471 1.355 . S
C472 C474 1.419 . S
C473 C471 1.415 . S
C473 C478 1.425 . S
C473 C480 1.409 . S
C474 H466 0.930 . S
C474 C472 1.419 . S
C474 C475 1.362 . S
C475 H467 0.930 . S
C475 C474 1.362 . S
C475 C478 1.409 . S
C476 H468 0.930 . S
C476 C477 1.355 . S
C476 C478 1.415 . S
C477 C476 1.355 . S
C477 C479 1.419 . S
C478 C473 1.425 . S
C478 C475 1.409 . S
C478 C476 1.415 . S
C479 H469 0.930 . S
C479 C477 1.419 . S
C479 C480 1.362 . S
C480 H470 0.930 . S
C480 C473 1.409 . S
C480 C479 1.362 . S
H481 C487 0.930 . S
H482 C490 0.930 . S
H483 C491 0.930 . S
H484 C492 0.930 . S
H485 C495 0.930 . S
H486 C496 0.930 . S
C487 H481 0.930 . S
C487 C488 1.355 . S
C487 C489 1.415 . S
C488 C487 1.355 . S
C488 C490 1.419 . S
C489 C487 1.415 . S
C489 C494 1.425 . S
C489 C496 1.409 . S
C490 H482 0.930 . S
C490 C488 1.419 . S
C490 C491 1.362 . S
C491 H483 0.930 . S
C491 C490 1.362 . S
C491 C494 1.409 . S
C492 H484 0.930 . S
C492 C493 1.355 . S
C492 C494 1.415 . S
C493 C492 1.355 . S
C493 C495 1.419 . S
C494 C489 1.425 . S
C494 C491 1.409 . S
C494 C492 1.415 . S
C495 H485 0.930 . S
C495 C493 1.419 . S
C495 C496 1.362 . S
C496 H486 0.930 . S
C496 C489 1.409 . S
C496 C495 1.362 . S
H497 C503 0.930 . S
H498 C506 0.930 . S
H499 C507 0.930 . S
H500 C508 0.930 . S
H501 C511 0.930 . S
H502 C512 0.930 . S
C503 H497 0.930 . S
C503 C504 1.355 . S
C503 C505 1.415 . S
C504 C503 1.355 . S
C504 C506 1.419 . S
C505 C503 1.415 . S
C505 C510 1.425 . S
C505 C512 1.409 . S
C506 H498 0.930 . S
C506 C504 1.419 . S
C506 C507 1.362 . S
C507 H499 0.930 . S
C507 C506 1.362 . S
C507 C510 1.409 . S
C508 H500 0.930 . S
C508 C509 1.355 . S
C508 C510 1.415 . S
C509 C508 1.355 . S
C509 C511 1.419 . S
C510 C505 1.425 . S
C510 C507 1.409 . S
C510 C508 1.415 . S
C511 H501 0.930 . S
C511 C509 1.419 . S
C511 C512 1.362 . S
C512 H502 0.930 . S
C512 C505 1.409 . S
C512 C511 1.362 . S
H513 C519 0.930 . S
H514 C522 0.930 . S
H515 C523 0.930 . S
H516 C524 0.930 . S
H517 C527 0.930 . S
H518 C528 0.930 . S
C519 H513 0.930 . S
C519 C520 1.355 . S
C519 C521 1.415 . S
C520 C519 1.355 . S
C520 C522 1.419 . S
C521 C519 1.415 . S
C521 C526 1.425 . S
C521 C528 1.409 . S
C522 H514 0.930 . S
C522 C520 1.419 . S
C522 C523 1.362 . S
C523 H515 0.930 . S
C523 C522 1.362 . S
C523 C526 1.409 . S
C524 H516 0.930 . S
C524 C525 1.355 . S
C524 C526 1.415 . S
C525 C524 1.355 . S
C525 C527 1.419 . S
C526 C521 1.425 . S
C526 C523 1.409 . S
C526 C524 1.415 . S
C527 H517 0.930 . S
C527 C525 1.419 . S
C527 C528 1.362 . S
C528 H518 0.930 . S
C528 C521 1.409 . S
C528 C527 1.362 . S
H529 C535 0.930 . S
H530 C538 0.930 . S
H531 C539 0.930 . S
H532 C540 0.930 . S
H533 C543 0.930 . S
H534 C544 0.930 . S
C535 H529 0.930 . S
C535 C536 1.355 . S
C535 C537 1.415 . S
C536 C535 1.355 . S
C536 C538 1.419 . S
C537 C535 1.415 . S
C537 C542 1.425 . S
C537 C544 1.409 . S
C538 H530 0.930 . S
C538 C536 1.419 . S
C538 C539 1.362 . S
C539 H531 0.930 . S
C539 C538 1.362 . S
C539 C542 1.409 . S
C540 H532 0.930 . S
C540 C541 1.355 . S
C540 C542 1.415 . S
C541 C540 1.355 . S
C541 C543 1.419 . S
C542 C537 1.425 . S
C542 C539 1.409 . S
C542 C540 1.415 . S
C543 H533 0.930 . S
C543 C541 1.419 . S
C543 C544 1.362 . S
C544 H534 0.930 . S
C544 C537 1.409 . S
C544 C543 1.362 . S
H545 C551 0.930 . S
H546 C554 0.930 . S
H547 C555 0.930 . S
H548 C556 0.930 . S
H549 C559 0.930 . S
H550 C560 0.930 . S
C551 H545 0.930 . S
C551 C552 1.355 . S
C551 C553 1.415 . S
C552 C551 1.355 . S
C552 C554 1.419 . S
C553 C551 1.415 . S
C553 C558 1.425 . S
C553 C560 1.409 . S
C554 H546 0.930 . S
C554 C552 1.419 . S
C554 C555 1.362 . S
C555 H547 0.930 . S
C555 C554 1.362 . S
C555 C558 1.409 . S
C556 H548 0.930 . S
C556 C557 1.355 . S
C556 C558 1.415 . S
C557 C556 1.355 . S
C557 C559 1.419 . S
C558 C553 1.425 . S
C558 C555 1.409 . S
C558 C556 1.415 . S
C559 H549 0.930 . S
C559 C557 1.419 . S
C559 C560 1.362 . S
C560 H550 0.930 . S
C560 C553 1.409 . S
C560 C559 1.362 . S
H561 C567 0.930 . S
H562 C570 0.930 . S
H563 C571 0.930 . S
H564 C572 0.930 . S
H565 C575 0.930 . S
H566 C576 0.930 . S
C567 H561 0.930 . S
C567 C568 1.355 . S
C567 C569 1.415 . S
C568 C567 1.355 . S
C568 C570 1.419 . S
C569 C567 1.415 . S
C569 C574 1.425 . S
C569 C576 1.409 . S
C570 H562 0.930 . S
C570 C568 1.419 . S
C570 C571 1.362 . S
C571 H563 0.930 . S
C571 C570 1.362 . S
C571 C574 1.409 . S
C572 H564 0.930 . S
C572 C573 1.355 . S
C572 C574 1.415 . S
C573 C572 1.355 . S
C573 C575 1.419 . S
C574 C569 1.425 . S
C574 C571 1.409 . S
C574 C572 1.415 . S
C575 H565 0.930 . S
C575 C573 1.419 . S
C575 C576 1.362 . S
C576 H566 0.930 . S
C576 C569 1.409 . S
C576 C575 1.362 . S
H577 C583 0.930 . S
H578 C586 0.930 . S
H579 C587 0.930 . S
H580 C588 0.930 . S
H581 C591 0.930 . S
H582 C592 0.930 . S
C583 H577 0.930 . S
C583 C584 1.355 . S
C583 C585 1.415 . S
C584 C583 1.355 . S
C584 C586 1.419 . S
C585 C583 1.415 . S
C585 C590 1.425 . S
C585 C592 1.409 . S
C586 H578 0.930 . S
C586 C584 1.419 . S
C586 C587 1.362 . S
C587 H579 0.930 . S
C587 C586 1.362 . S
C587 C590 1.409 . S
C588 H580 0.930 . S
C588 C589 1.355 . S
C588 C590 1.415 . S
C589 C588 1.355 . S
C589 C591 1.419 . S
C590 C585 1.425 . S
C590 C587 1.409 . S
C590 C588 1.415 . S
C591 H581 0.930 . S
C591 C589 1.419 . S
C591 C592 1.362 . S
C592 H582 0.930 . S
C592 C585 1.409 . S
C592 C591 1.362 . S
H593 C599 0.930 . S
H594 C602 0.930 . S
H595 C603 0.930 . S
H596 C604 0.930 . S
H597 C607 0.930 . S
H598 C608 0.930 . S
C599 H593 0.930 . S
C599 C600 1.355 . S
C599 C601 1.415 . S
C600 C599 1.355 . S
C600 C602 1.419 . S
C601 C599 1.415 . S
C601 C606 1.425 . S
C601 C608 1.409 . S
C602 H594 0.930 . S
C602 C600 1.419 . S
C602 C603 1.362 . S
C603 H595 0.930 . S
C603 C602 1.362 . S
C603 C606 1.409 . S
C604 H596 0.930 . S
C604 C605 1.355 . S
C604 C606 1.415 . S
C605 C604 1.355 . S
C605 C607 1.419 . S
C606 C601 1.425 . S
C606 C603 1.409 . S
C606 C604 1.415 . S
C607 H597 0.930 . S
C607 C605 1.419 . S
C607 C608 1.362 . S
C608 H598 0.930 . S
C608 C601 1.409 . S
C608 C607 1.362 . S
H609 C615 0.930 . S
H610 C618 0.930 . S
H611 C619 0.930 . S
H612 C620 0.930 . S
H613 C623 0.930 . S
H614 C624 0.930 . S
C615 H609 0.930 . S
C615 C616 1.355 . S
C615 C617 1.415 . S
C616 C615 1.355 . S
C616 C618 1.419 . S
C617 C615 1.415 . S
C617 C622 1.425 . S
C617 C624 1.409 . S
C618 H610 0.930 . S
C618 C616 1.419 . S
C618 C619 1.362 . S
C619 H611 0.930 . S
C619 C618 1.362 . S
C619 C622 1.409 . S
C620 H612 0.930 . S
C620 C621 1.355 . S
C620 C622 1.415 . S
C621 C620 1.355 . S
C621 C623 1.419 . S
C622 C617 1.425 . S
C622 C619 1.409 . S
C622 C620 1.415 . S
C623 H613 0.930 . S
C623 C621 1.419 . S
C623 C624 1.362 . S
C624 H614 0.930 . S
C624 C617 1.409 . S
C624 C623 1.362 . S
H625 C631 0.920 1_554 S
H626 C634 0.930 . S
H627 C635 0.930 . S
H628 C636 0.930 . S
H629 C639 0.930 . S
H630 C640 0.930 . S
C631 H625 0.920 1_556 S
C631 C632 1.355 . S
C631 C633 1.415 . S
C632 C631 1.355 . S
C632 C634 1.419 . S
C633 C631 1.415 . S
C633 C638 1.425 . S
C633 C640 1.409 . S
C634 H626 0.930 . S
C634 C632 1.419 . S
C634 C635 1.362 . S
C635 H627 0.930 . S
C635 C634 1.362 . S
C635 C638 1.409 . S
C636 H628 0.930 . S
C636 C637 1.355 . S
C636 C638 1.415 . S
C637 C636 1.355 . S
C637 C639 1.419 . S
C638 C633 1.425 . S
C638 C635 1.409 . S
C638 C636 1.415 . S
C639 H629 0.930 . S
C639 C637 1.419 . S
C639 C640 1.362 . S
C640 H630 0.930 . S
C640 C633 1.409 . S
C640 C639 1.362 . S
H641 C647 0.930 . S
H642 C650 0.935 . S
H643 C651 0.930 . S
H644 C652 0.930 . S
H645 C655 0.930 . S
H646 C656 0.930 . S
C647 H641 0.930 . S
C647 C648 1.355 . S
C647 C649 1.415 . S
C648 C647 1.355 . S
C648 C650 1.419 . S
C649 C647 1.415 . S
C649 C654 1.425 . S
C649 C656 1.409 . S
C650 H642 0.935 . S
C650 C648 1.419 . S
C650 C651 1.362 . S
C651 H643 0.930 . S
C651 C650 1.362 . S
C651 C654 1.409 . S
C652 H644 0.930 . S
C652 C653 1.355 . S
C652 C654 1.415 . S
C653 C652 1.355 . S
C653 C655 1.419 . S
C654 C649 1.425 . S
C654 C651 1.409 . S
C654 C652 1.415 . S
C655 H645 0.930 . S
C655 C653 1.419 . S
C655 C656 1.362 . S
C656 H646 0.930 . S
C656 C649 1.409 . S
C656 C655 1.362 . S
H657 C663 0.930 . S
H658 C666 0.930 . S
H659 C667 0.930 . S
H660 C668 0.930 . S
H661 C671 0.930 . S
H662 C672 0.930 . S
C663 H657 0.930 . S
C663 C664 1.355 . S
C663 C665 1.415 . S
C664 C663 1.355 . S
C664 C666 1.419 . S
C665 C663 1.415 . S
C665 C670 1.425 . S
C665 C672 1.409 . S
C666 H658 0.930 . S
C666 C664 1.419 . S
C666 C667 1.362 . S
C667 H659 0.930 . S
C667 C666 1.362 . S
C667 C670 1.409 . S
C668 H660 0.930 . S
C668 C669 1.355 . S
C668 C670 1.415 . S
C669 C668 1.355 . S
C669 C671 1.419 . S
C670 C665 1.425 . S
C670 C667 1.409 . S
C670 C668 1.415 . S
C671 H661 0.930 . S
C671 C669 1.419 . S
C671 C672 1.362 . S
C672 H662 0.930 . S
C672 C665 1.409 . S
C672 C671 1.362 . S
H673 C679 0.930 . S
H674 C682 0.930 . S
H675 C683 0.930 . S
H676 C684 0.930 . S
H677 C687 0.930 . S
H678 C688 0.930 . S
C679 H673 0.930 . S
C679 C680 1.355 . S
C679 C681 1.415 . S
C680 C679 1.355 . S
C680 C682 1.419 . S
C681 C679 1.415 . S
C681 C686 1.425 . S
C681 C688 1.409 . S
C682 H674 0.930 . S
C682 C680 1.419 . S
C682 C683 1.362 . S
C683 H675 0.930 . S
C683 C682 1.362 . S
C683 C686 1.409 . S
C684 H676 0.930 . S
C684 C685 1.355 . S
C684 C686 1.415 . S
C685 C684 1.355 . S
C685 C687 1.419 . S
C686 C681 1.425 . S
C686 C683 1.409 . S
C686 C684 1.415 . S
C687 H677 0.930 . S
C687 C685 1.419 . S
C687 C688 1.362 . S
C688 H678 0.930 . S
C688 C681 1.409 . S
C688 C687 1.362 . S
H689 C695 0.930 . S
H690 C698 0.930 . S
H691 C699 0.930 1_554 S
H692 C700 0.930 . S
H693 C703 0.930 . S
H694 C704 0.930 . S
C695 H689 0.930 . S
C695 C696 1.355 . S
C695 C697 1.415 . S
C696 C695 1.355 . S
C696 C698 1.419 1_556 S
C697 C695 1.415 . S
C697 C702 1.425 . S
C697 C704 1.409 . S
C698 H690 0.930 . S
C698 C696 1.419 1_554 S
C698 C699 1.362 1_554 S
C699 H691 0.930 1_556 S
C699 C698 1.362 1_556 S
C699 C702 1.409 . S
C700 H692 0.930 . S
C700 C701 1.355 . S
C700 C702 1.415 . S
C701 C700 1.355 . S
C701 C703 1.419 . S
C702 C697 1.425 . S
C702 C699 1.409 . S
C702 C700 1.415 . S
C703 H693 0.930 . S
C703 C701 1.419 . S
C703 C704 1.362 . S
C704 H694 0.930 . S
C704 C697 1.409 . S
C704 C703 1.362 . S
H705 C711 0.930 . S
H706 C714 0.930 . S
H707 C715 0.930 . S
H708 C716 0.930 . S
H709 C719 0.930 . S
H710 C720 0.930 . S
C711 H705 0.930 . S
C711 C712 1.355 . S
C711 C713 1.415 . S
C712 C711 1.355 . S
C712 C714 1.419 . S
C713 C711 1.415 . S
C713 C718 1.425 . S
C713 C720 1.409 . S
C714 H706 0.930 . S
C714 C712 1.419 . S
C714 C715 1.362 . S
C715 H707 0.930 . S
C715 C714 1.362 . S
C715 C718 1.409 . S
C716 H708 0.930 . S
C716 C717 1.355 . S
C716 C718 1.415 . S
C717 C716 1.355 . S
C717 C719 1.419 . S
C718 C713 1.425 . S
C718 C715 1.409 . S
C718 C716 1.415 . S
C719 H709 0.930 . S
C719 C717 1.419 . S
C719 C720 1.362 . S
C720 H710 0.930 . S
C720 C713 1.409 . S
C720 C719 1.362 . S
H721 C727 0.930 . S
H722 C730 0.930 . S
H723 C731 0.930 . S
H724 C732 0.930 . S
H725 C735 0.930 . S
H726 C736 0.930 . S
C727 H721 0.930 . S
C727 C728 1.355 . S
C727 C729 1.415 . S
C728 C727 1.355 . S
C728 C730 1.419 . S
C729 C727 1.415 . S
C729 C734 1.425 . S
C729 C736 1.409 . S
C730 H722 0.930 . S
C730 C728 1.419 . S
C730 C731 1.362 . S
C731 H723 0.930 . S
C731 C730 1.362 . S
C731 C734 1.409 . S
C732 H724 0.930 . S
C732 C733 1.355 . S
C732 C734 1.415 . S
C733 C732 1.355 . S
C733 C735 1.419 . S
C734 C729 1.425 . S
C734 C731 1.409 . S
C734 C732 1.415 . S
C735 H725 0.930 . S
C735 C733 1.419 . S
C735 C736 1.362 . S
C736 H726 0.930 . S
C736 C729 1.409 . S
C736 C735 1.362 . S
H737 C743 0.930 . S
H738 C746 0.930 . S
H739 C747 0.930 . S
H740 C748 0.930 . S
H741 C751 0.930 . S
H742 C752 0.930 . S
C743 H737 0.930 . S
C743 C744 1.355 . S
C743 C745 1.415 . S
C744 C743 1.355 . S
C744 C746 1.419 . S
C745 C743 1.415 . S
C745 C750 1.425 . S
C745 C752 1.409 . S
C746 H738 0.930 . S
C746 C744 1.419 . S
C746 C747 1.362 . S
C747 H739 0.930 . S
C747 C746 1.362 . S
C747 C750 1.409 . S
C748 H740 0.930 . S
C748 C749 1.355 . S
C748 C750 1.415 . S
C749 C748 1.355 . S
C749 C751 1.419 . S
C750 C745 1.425 . S
C750 C747 1.409 . S
C750 C748 1.415 . S
C751 H741 0.930 . S
C751 C749 1.419 . S
C751 C752 1.362 . S
C752 H742 0.930 . S
C752 C745 1.409 . S
C752 C751 1.362 . S
H753 C759 0.930 . S
H754 C762 0.930 . S
H755 C763 0.930 . S
H756 C764 0.930 . S
H757 C767 0.930 . S
H758 C768 0.930 . S
C759 H753 0.930 . S
C759 C760 1.355 . S
C759 C761 1.415 . S
C760 C759 1.355 . S
C760 C762 1.419 . S
C761 C759 1.415 . S
C761 C766 1.425 . S
C761 C768 1.409 . S
C762 H754 0.930 . S
C762 C760 1.419 . S
C762 C763 1.362 . S
C763 H755 0.930 . S
C763 C762 1.362 . S
C763 C766 1.409 . S
C764 H756 0.930 . S
C764 C765 1.355 . S
C764 C766 1.415 . S
C765 C764 1.355 . S
C765 C767 1.419 . S
C766 C761 1.425 . S
C766 C763 1.409 . S
C766 C764 1.415 . S
C767 H757 0.930 . S
C767 C765 1.419 . S
C767 C768 1.362 . S
C768 H758 0.930 . S
C768 C761 1.409 . S
C768 C767 1.362 . S
H769 C775 0.930 . S
H770 C778 0.930 . S
H771 C779 0.930 . S
H772 C780 0.930 . S
H773 C783 0.930 . S
H774 C784 0.930 . S
C775 H769 0.930 . S
C775 C776 1.355 . S
C775 C777 1.415 . S
C776 C775 1.355 . S
C776 C778 1.419 . S
C777 C775 1.415 . S
C777 C782 1.425 . S
C777 C784 1.409 . S
C778 H770 0.930 . S
C778 C776 1.419 . S
C778 C779 1.362 . S
C779 H771 0.930 . S
C779 C778 1.362 . S
C779 C782 1.409 . S
C780 H772 0.930 . S
C780 C781 1.355 . S
C780 C782 1.415 . S
C781 C780 1.355 . S
C781 C783 1.419 . S
C782 C777 1.425 . S
C782 C779 1.409 . S
C782 C780 1.415 . S
C783 H773 0.930 . S
C783 C781 1.419 . S
C783 C784 1.362 . S
C784 H774 0.930 . S
C784 C777 1.409 . S
C784 C783 1.362 . S
H785 C791 0.930 . S
H786 C794 0.930 . S
H787 C795 0.930 . S
H788 C796 0.930 . S
H789 C799 0.930 . S
H790 C800 0.930 . S
C791 H785 0.930 . S
C791 C792 1.355 . S
C791 C793 1.415 . S
C792 C791 1.355 . S
C792 C794 1.419 . S
C793 C791 1.415 . S
C793 C798 1.425 . S
C793 C800 1.409 . S
C794 H786 0.930 . S
C794 C792 1.419 . S
C794 C795 1.362 . S
C795 H787 0.930 . S
C795 C794 1.362 . S
C795 C798 1.409 . S
C796 H788 0.930 . S
C796 C797 1.355 . S
C796 C798 1.415 . S
C797 C796 1.355 . S
C797 C799 1.419 . S
C798 C793 1.425 . S
C798 C795 1.409 . S
C798 C796 1.415 . S
C799 H789 0.930 . S
C799 C797 1.419 . S
C799 C800 1.362 . S
C800 H790 0.930 . S
C800 C793 1.409 . S
C800 C799 1.362 . S
H801 C807 0.930 . S
H802 C810 0.930 . S
H803 C811 0.930 . S
H804 C812 0.930 . S
H805 C815 0.930 . S
H806 C816 0.930 . S
C807 H801 0.930 . S
C807 C808 1.355 . S
C807 C809 1.415 . S
C808 C807 1.355 . S
C808 C810 1.419 . S
C809 C807 1.415 . S
C809 C814 1.425 . S
C809 C816 1.409 . S
C810 H802 0.930 . S
C810 C808 1.419 . S
C810 C811 1.362 . S
C811 H803 0.930 . S
C811 C810 1.362 . S
C811 C814 1.409 . S
C812 H804 0.930 . S
C812 C813 1.355 . S
C812 C814 1.415 . S
C813 C812 1.355 . S
C813 C815 1.419 . S
C814 C809 1.425 . S
C814 C811 1.409 . S
C814 C812 1.415 . S
C815 H805 0.930 . S
C815 C813 1.419 . S
C815 C816 1.362 . S
C816 H806 0.930 . S
C816 C809 1.409 . S
C816 C815 1.362 . S
H817 C823 0.930 . S
H818 C826 0.930 . S
H819 C827 0.930 . S
H820 C828 0.930 . S
H821 C831 0.930 . S
H822 C832 0.930 . S
C823 H817 0.930 . S
C823 C824 1.355 . S
C823 C825 1.415 . S
C824 C823 1.355 . S
C824 C826 1.419 . S
C825 C823 1.415 . S
C825 C830 1.425 . S
C825 C832 1.409 . S
C826 H818 0.930 . S
C826 C824 1.419 . S
C826 C827 1.362 . S
C827 H819 0.930 . S
C827 C826 1.362 . S
C827 C830 1.409 . S
C828 H820 0.930 . S
C828 C829 1.355 . S
C828 C830 1.415 . S
C829 C828 1.355 . S
C829 C831 1.419 . S
C830 C825 1.425 . S
C830 C827 1.409 . S
C830 C828 1.415 . S
C831 H821 0.930 . S
C831 C829 1.419 . S
C831 C832 1.362 . S
C832 H822 0.930 . S
C832 C825 1.409 . S
C832 C831 1.362 . S
H833 C839 0.930 . S
H834 C842 0.930 . S
H835 C843 0.930 . S
H836 C844 0.930 . S
H837 C847 0.930 . S
H838 C848 0.930 . S
C839 H833 0.930 . S
C839 C840 1.355 . S
C839 C841 1.415 . S
C840 C839 1.355 . S
C840 C842 1.419 . S
C841 C839 1.415 . S
C841 C846 1.425 . S
C841 C848 1.409 . S
C842 H834 0.930 . S
C842 C840 1.419 . S
C842 C843 1.362 . S
C843 H835 0.930 . S
C843 C842 1.362 . S
C843 C846 1.409 . S
C844 H836 0.930 . S
C844 C845 1.355 . S
C844 C846 1.415 . S
C845 C844 1.355 . S
C845 C847 1.419 . S
C846 C841 1.425 . S
C846 C843 1.409 . S
C846 C844 1.415 . S
C847 H837 0.930 . S
C847 C845 1.419 . S
C847 C848 1.362 . S
C848 H838 0.930 . S
C848 C841 1.409 . S
C848 C847 1.362 . S
C472 C47 1.978 . S
C477 C383 2.156 . S
C488 C91 1.772 . S
C493 C430 1.877 . S
C509 C434 1.817 . S
C504 C177 1.897 . S
C525 C399 1.771 . S
C520 C215 1.698 . S
C536 C295 1.974 . S
C541 C414 1.989 . S
C557 C436 0.999 . S
C552 C345 0.974 . S
C573 C405 1.685 . S
C568 C153 1.620 . S
C584 C239 1.407 . S
C589 C445 1.356 . S
C605 C374 1.238 . S
C600 C283 1.318 . S
C616 C357 1.659 1_556 S
C621 C403 1.699 . S
C632 C35 1.946 1_556 S
C637 C461 1.838 . S
C653 C372 1.426 . S
C648 C115 1.494 1_556 S
C669 C390 1.760 . S
C664 C221 1.795 . S
C685 C404 1.540 . S
C680 C301 1.565 . S
C701 C458 2.048 . S
C696 C339 1.979 1_556 S
C717 C373 1.456 . S
C712 C53 1.552 1_556 S
C733 C421 1.668 . S
C728 C97 1.840 . S
C744 C171 1.244 . S
C749 C444 1.353 . S
C765 C413 1.374 . S
C760 C363 1.377 . S
C781 C452 1.688 . S
C776 C29 1.598 . S
C797 C382 1.609 . S
C792 C109 1.609 . S
C813 C427 1.467 . S
C808 C159 1.508 . S
C824 C233 2.138 . S
C829 C435 2.137 . S
C840 C277 1.663 . S
C845 C396 1.753 . S
