# Generated by pormake.
# Topology ctn, (3,4)-cn, num edge types: 1
# Building blocks:
#     Node 0, Type 0, BuildingBlock: CUQRIR_clean_linker_1, # of connection points: 3
#     Node 1, Type 0, BuildingBlock: CUQRIR_clean_linker_1, # of connection points: 3
#     Node 2, Type 0, BuildingBlock: CUQRIR_clean_linker_1, # of connection points: 3
#     Node 3, Type 0, BuildingBlock: CUQRIR_clean_linker_1, # of connection points: 3
#     Node 4, Type 0, BuildingBlock: CUQRIR_clean_linker_1, # of connection points: 3
#     Node 5, Type 0, BuildingBlock: CUQRIR_clean_linker_1, # of connection points: 3
#     Node 6, Type 0, BuildingBlock: CUQRIR_clean_linker_1, # of connection points: 3
#     Node 7, Type 0, BuildingBlock: CUQRIR_clean_linker_1, # of connection points: 3
#     Node 8, Type 0, BuildingBlock: CUQRIR_clean_linker_1, # of connection points: 3
#     Node 9, Type 0, BuildingBlock: CUQRIR_clean_linker_1, # of connection points: 3
#     Node 10, Type 0, BuildingBlock: CUQRIR_clean_linker_1, # of connection points: 3
#     Node 11, Type 0, BuildingBlock: CUQRIR_clean_linker_1, # of connection points: 3
#     Node 12, Type 0, BuildingBlock: CUQRIR_clean_linker_1, # of connection points: 3
#     Node 13, Type 0, BuildingBlock: CUQRIR_clean_linker_1, # of connection points: 3
#     Node 14, Type 0, BuildingBlock: CUQRIR_clean_linker_1, # of connection points: 3
#     Node 15, Type 0, BuildingBlock: CUQRIR_clean_linker_1, # of connection points: 3
#     Node 16, Type 1, BuildingBlock: QUQFOY_clean_sbu_1, # of connection points: 4
#     Node 17, Type 1, BuildingBlock: QUQFOY_clean_sbu_1, # of connection points: 4
#     Node 18, Type 1, BuildingBlock: QUQFOY_clean_sbu_1, # of connection points: 4
#     Node 19, Type 1, BuildingBlock: QUQFOY_clean_sbu_1, # of connection points: 4
#     Node 20, Type 1, BuildingBlock: QUQFOY_clean_sbu_1, # of connection points: 4
#     Node 21, Type 1, BuildingBlock: QUQFOY_clean_sbu_1, # of connection points: 4
#     Node 22, Type 1, BuildingBlock: QUQFOY_clean_sbu_1, # of connection points: 4
#     Node 23, Type 1, BuildingBlock: QUQFOY_clean_sbu_1, # of connection points: 4
#     Node 24, Type 1, BuildingBlock: QUQFOY_clean_sbu_1, # of connection points: 4
#     Node 25, Type 1, BuildingBlock: QUQFOY_clean_sbu_1, # of connection points: 4
#     Node 26, Type 1, BuildingBlock: QUQFOY_clean_sbu_1, # of connection points: 4
#     Node 27, Type 1, BuildingBlock: QUQFOY_clean_sbu_1, # of connection points: 4
#     Edge 28, Type (0, 1), BuildingBlock: XIVTED_clean_linker_0, # of connection points: 2
#     Edge 29, Type (0, 1), BuildingBlock: XIVTED_clean_linker_0, # of connection points: 2
#     Edge 30, Type (0, 1), BuildingBlock: XIVTED_clean_linker_0, # of connection points: 2
#     Edge 31, Type (0, 1), BuildingBlock: XIVTED_clean_linker_0, # of connection points: 2
#     Edge 32, Type (0, 1), BuildingBlock: XIVTED_clean_linker_0, # of connection points: 2
#     Edge 33, Type (0, 1), BuildingBlock: XIVTED_clean_linker_0, # of connection points: 2
#     Edge 34, Type (0, 1), BuildingBlock: XIVTED_clean_linker_0, # of connection points: 2
#     Edge 35, Type (0, 1), BuildingBlock: XIVTED_clean_linker_0, # of connection points: 2
#     Edge 36, Type (0, 1), BuildingBlock: XIVTED_clean_linker_0, # of connection points: 2
#     Edge 37, Type (0, 1), BuildingBlock: XIVTED_clean_linker_0, # of connection points: 2
#     Edge 38, Type (0, 1), BuildingBlock: XIVTED_clean_linker_0, # of connection points: 2
#     Edge 39, Type (0, 1), BuildingBlock: XIVTED_clean_linker_0, # of connection points: 2
#     Edge 40, Type (0, 1), BuildingBlock: XIVTED_clean_linker_0, # of connection points: 2
#     Edge 41, Type (0, 1), BuildingBlock: XIVTED_clean_linker_0, # of connection points: 2
#     Edge 42, Type (0, 1), BuildingBlock: XIVTED_clean_linker_0, # of connection points: 2
#     Edge 43, Type (0, 1), BuildingBlock: XIVTED_clean_linker_0, # of connection points: 2
#     Edge 44, Type (0, 1), BuildingBlock: XIVTED_clean_linker_0, # of connection points: 2
#     Edge 45, Type (0, 1), BuildingBlock: XIVTED_clean_linker_0, # of connection points: 2
#     Edge 46, Type (0, 1), BuildingBlock: XIVTED_clean_linker_0, # of connection points: 2
#     Edge 47, Type (0, 1), BuildingBlock: XIVTED_clean_linker_0, # of connection points: 2
#     Edge 48, Type (0, 1), BuildingBlock: XIVTED_clean_linker_0, # of connection points: 2
#     Edge 49, Type (0, 1), BuildingBlock: XIVTED_clean_linker_0, # of connection points: 2
#     Edge 50, Type (0, 1), BuildingBlock: XIVTED_clean_linker_0, # of connection points: 2
#     Edge 51, Type (0, 1), BuildingBlock: XIVTED_clean_linker_0, # of connection points: 2
#     Edge 52, Type (0, 1), BuildingBlock: XIVTED_clean_linker_0, # of connection points: 2
#     Edge 53, Type (0, 1), BuildingBlock: XIVTED_clean_linker_0, # of connection points: 2
#     Edge 54, Type (0, 1), BuildingBlock: XIVTED_clean_linker_0, # of connection points: 2
#     Edge 55, Type (0, 1), BuildingBlock: XIVTED_clean_linker_0, # of connection points: 2
#     Edge 56, Type (0, 1), BuildingBlock: XIVTED_clean_linker_0, # of connection points: 2
#     Edge 57, Type (0, 1), BuildingBlock: XIVTED_clean_linker_0, # of connection points: 2
#     Edge 58, Type (0, 1), BuildingBlock: XIVTED_clean_linker_0, # of connection points: 2
#     Edge 59, Type (0, 1), BuildingBlock: XIVTED_clean_linker_0, # of connection points: 2
#     Edge 60, Type (0, 1), BuildingBlock: XIVTED_clean_linker_0, # of connection points: 2
#     Edge 61, Type (0, 1), BuildingBlock: XIVTED_clean_linker_0, # of connection points: 2
#     Edge 62, Type (0, 1), BuildingBlock: XIVTED_clean_linker_0, # of connection points: 2
#     Edge 63, Type (0, 1), BuildingBlock: XIVTED_clean_linker_0, # of connection points: 2
#     Edge 64, Type (0, 1), BuildingBlock: XIVTED_clean_linker_0, # of connection points: 2
#     Edge 65, Type (0, 1), BuildingBlock: XIVTED_clean_linker_0, # of connection points: 2
#     Edge 66, Type (0, 1), BuildingBlock: XIVTED_clean_linker_0, # of connection points: 2
#     Edge 67, Type (0, 1), BuildingBlock: XIVTED_clean_linker_0, # of connection points: 2
#     Edge 68, Type (0, 1), BuildingBlock: XIVTED_clean_linker_0, # of connection points: 2
#     Edge 69, Type (0, 1), BuildingBlock: XIVTED_clean_linker_0, # of connection points: 2
#     Edge 70, Type (0, 1), BuildingBlock: XIVTED_clean_linker_0, # of connection points: 2
#     Edge 71, Type (0, 1), BuildingBlock: XIVTED_clean_linker_0, # of connection points: 2
#     Edge 72, Type (0, 1), BuildingBlock: XIVTED_clean_linker_0, # of connection points: 2
#     Edge 73, Type (0, 1), BuildingBlock: XIVTED_clean_linker_0, # of connection points: 2
#     Edge 74, Type (0, 1), BuildingBlock: XIVTED_clean_linker_0, # of connection points: 2
#     Edge 75, Type (0, 1), BuildingBlock: XIVTED_clean_linker_0, # of connection points: 2
# Relax obj value: 0.108
# Max RMSD: 0.206
# Mean RMSD: 0.154
data_MOF--net-ctn--node1-QUQFOY_clean_sbu_1--node2-CUQRIR_clean_linker_1--edge1-XIVTED_clean_linker_0
_symmetry_space_group_name_H-M    P1
_symmetry_Int_Tables_number       1
_symmetry_cell_setting            triclinic
loop_
_symmetry_equiv_pos_as_xyz
'x, y, z'
_cell_length_a     52.624226
_cell_length_b     48.53702
_cell_length_c     50.15803
_cell_angle_alpha  100.42651
_cell_angle_beta   88.613447
_cell_angle_gamma 98.292903
loop_
_atom_site_label
_atom_site_type_symbol
_atom_site_fract_x
_atom_site_fract_y
_atom_site_fract_z
_atom_type_partial_charge
C0 C 0.03535 0.07641 0.12128 0.0
N1 N 0.04602 0.07487 0.09626 0.0
N2 N 0.01859 0.09543 0.12531 0.0
C3 C 0.04007 0.05841 0.14162 0.0
C4 C 0.01974 0.10577 0.10198 0.0
N5 N 0.03659 0.09363 0.08448 0.0
C6 C 0.00172 0.12477 0.09492 0.0
H7 H 0.02521 0.03943 0.13916 0.0
H8 H 0.03848 0.07032 0.16253 0.0
H9 H 0.05935 0.05161 0.13887 0.0
H10 H 0.99411 0.13697 0.11352 0.0
H11 H 0.98537 0.1116 0.08305 0.0
H12 H 0.01162 0.13956 0.08226 0.0
C13 C 0.27876 0.75549 0.24445 0.0
N14 N 0.29039 0.74305 0.26192 0.0
N15 N 0.29225 0.78089 0.24235 0.0
C16 C 0.25471 0.74242 0.22866 0.0
C17 C 0.31259 0.78349 0.25911 0.0
N18 N 0.31127 0.7606 0.27138 0.0
C19 C 0.33427 0.80774 0.26247 0.0
H20 H 0.26011 0.72976 0.2092 0.0
H21 H 0.2438 0.75885 0.22397 0.0
H22 H 0.24215 0.72823 0.24005 0.0
H23 H 0.33085 0.82312 0.28096 0.0
H24 H 0.33559 0.81902 0.24505 0.0
H25 H 0.35283 0.80011 0.2649 0.0
C26 C 0.95939 0.50236 0.10216 0.0
N27 N 0.97217 0.48013 0.1026 0.0
N28 N 0.9397 0.49503 0.08415 0.0
C29 C 0.96499 0.53058 0.1207 0.0
C30 C 0.94092 0.46742 0.07381 0.0
N31 N 0.96039 0.45829 0.08534 0.0
C32 C 0.92511 0.45032 0.05025 0.0
H33 H 0.94738 0.54079 0.12454 0.0
H34 H 0.9795 0.54462 0.11109 0.0
H35 H 0.97289 0.52813 0.14032 0.0
H36 H 0.91945 0.46411 0.0367 0.0
H37 H 0.90746 0.43908 0.05813 0.0
H38 H 0.93582 0.43428 0.03814 0.0
C39 C 0.70089 0.74825 0.2513 0.0
N40 N 0.72066 0.76616 0.24351 0.0
N41 N 0.69309 0.75846 0.27665 0.0
C42 C 0.68977 0.72048 0.23443 0.0
C43 C 0.70867 0.7834 0.2838 0.0
N44 N 0.72568 0.78785 0.26382 0.0
C45 C 0.70511 0.80509 0.30873 0.0
H46 H 0.6747 0.72423 0.22096 0.0
H47 H 0.68101 0.70545 0.24744 0.0
H48 H 0.70479 0.71098 0.22148 0.0
H49 H 0.71692 0.80152 0.32548 0.0
H50 H 0.68473 0.80338 0.31523 0.0
H51 H 0.71128 0.8269 0.30502 0.0
C52 C 0.02908 0.00529 0.49949 0.0
N53 N 0.05225 0.00663 0.51125 0.0
N54 N 0.03178 0.01601 0.47632 0.0
C55 C 0.00407 0.99122 0.50926 0.0
C56 C 0.05742 0.02355 0.47416 0.0
N57 N 0.0699 0.01745 0.49519 0.0
C58 C 0.07006 0.03893 0.45274 0.0
H59 H 0.99016 0.98358 0.49236 0.0
H60 H 0.99567 0.00676 0.52467 0.0
H61 H 0.00717 0.97304 0.51878 0.0
H62 H 0.08685 0.05431 0.46118 0.0
H63 H 0.0564 0.05035 0.44406 0.0
H64 H 0.07694 0.0233 0.43621 0.0
C65 C 0.19501 0.75976 0.80499 0.0
N66 N 0.20892 0.74742 0.82058 0.0
N67 N 0.19801 0.74924 0.77842 0.0
C68 C 0.17739 0.78109 0.81571 0.0
C69 C 0.21435 0.73006 0.77839 0.0
N70 N 0.22139 0.72934 0.80405 0.0
C71 C 0.22194 0.71061 0.75354 0.0
H72 H 0.15774 0.76978 0.81768 0.0
H73 H 0.17647 0.79613 0.80171 0.0
H74 H 0.18386 0.79333 0.83585 0.0
H75 H 0.24241 0.71707 0.74894 0.0
H76 H 0.21036 0.71133 0.73557 0.0
H77 H 0.21987 0.68858 0.75738 0.0
C78 C 0.93813 0.56074 0.44959 0.0
N79 N 0.95638 0.58306 0.44811 0.0
N80 N 0.91807 0.5692 0.46465 0.0
C81 C 0.93962 0.53075 0.43599 0.0
C82 C 0.92474 0.59749 0.47223 0.0
N83 N 0.94793 0.60602 0.46182 0.0
C84 C 0.91036 0.6161 0.49283 0.0
H85 H 0.92011 0.51866 0.43197 0.0
H86 H 0.9499 0.5203 0.4495 0.0
H87 H 0.95038 0.53029 0.41665 0.0
H88 H 0.89694 0.6036 0.50499 0.0
H89 H 0.89921 0.62846 0.48205 0.0
H90 H 0.92387 0.63126 0.5069 0.0
C91 C 0.78654 0.81831 0.8371 0.0
N92 N 0.8065 0.80426 0.82852 0.0
N93 N 0.78156 0.8347 0.81929 0.0
C94 C 0.77117 0.81503 0.86232 0.0
C95 C 0.79918 0.83006 0.79946 0.0
N96 N 0.81418 0.81119 0.80486 0.0
C97 C 0.80354 0.84638 0.77651 0.0
H98 H 0.7701 0.79318 0.86641 0.0
H99 H 0.75142 0.81997 0.86046 0.0
H100 H 0.78076 0.82982 0.87984 0.0
H101 H 0.79685 0.86733 0.78189 0.0
H102 H 0.7926 0.83422 0.75849 0.0
H103 H 0.82418 0.84966 0.77107 0.0
C104 C 0.27747 0.31103 0.32236 0.0
N105 N 0.29909 0.29857 0.3188 0.0
N106 N 0.27384 0.32391 0.30117 0.0
C107 C 0.26018 0.31129 0.34677 0.0
C108 C 0.29399 0.31859 0.28463 0.0
N109 N 0.30927 0.30321 0.29528 0.0
C110 C 0.2987 0.32795 0.25771 0.0
H111 H 0.24265 0.2958 0.34127 0.0
H112 H 0.25426 0.33253 0.35316 0.0
H113 H 0.26932 0.30539 0.36415 0.0
H114 H 0.31213 0.34809 0.26055 0.0
H115 H 0.28052 0.33125 0.24879 0.0
H116 H 0.30775 0.31196 0.24341 0.0
C117 C 0.46636 0.0047 0.59353 0.0
N118 N 0.47762 0.98177 0.5957 0.0
N119 N 0.45211 0.99976 0.57056 0.0
C120 C 0.47109 0.03273 0.61253 0.0
C121 C 0.45514 0.97301 0.55884 0.0
N122 N 0.4707 0.96219 0.57405 0.0
C123 C 0.44237 0.95709 0.53296 0.0
H124 H 0.4566 0.03299 0.62898 0.0
H125 H 0.46934 0.05042 0.60176 0.0
H126 H 0.49047 0.03607 0.62182 0.0
H127 H 0.45513 0.96087 0.51566 0.0
H128 H 0.42378 0.96439 0.53001 0.0
H129 H 0.43904 0.93399 0.53291 0.0
C130 C 0.19634 0.25516 0.74635 0.0
N131 N 0.21742 0.27231 0.73994 0.0
N132 N 0.18409 0.26847 0.76788 0.0
C133 C 0.1865 0.22658 0.73013 0.0
C134 C 0.19827 0.29426 0.77422 0.0
N135 N 0.21835 0.29667 0.75718 0.0
C136 C 0.1919 0.31756 0.79641 0.0
H137 H 0.18769 0.22731 0.70814 0.0
H138 H 0.1664 0.21926 0.73551 0.0
H139 H 0.19882 0.21108 0.73419 0.0
H140 H 0.18008 0.30884 0.81239 0.0
H141 H 0.18086 0.33155 0.78756 0.0
H142 H 0.20964 0.33058 0.80566 0.0
C143 C 0.77594 0.24571 0.73398 0.0
N144 N 0.78595 0.23521 0.75396 0.0
N145 N 0.78941 0.27094 0.73139 0.0
C146 C 0.75237 0.23203 0.71766 0.0
C147 C 0.80803 0.27555 0.75046 0.0
N148 N 0.8058 0.25386 0.76447 0.0
C149 C 0.82956 0.29991 0.75363 0.0
H150 H 0.75809 0.21701 0.69991 0.0
H151 H 0.74283 0.2481 0.71011 0.0
H152 H 0.73851 0.22013 0.72995 0.0
H153 H 0.82448 0.31702 0.76983 0.0
H154 H 0.83269 0.30856 0.7346 0.0
H155 H 0.84765 0.29328 0.75945 0.0
C156 C 0.53909 0.57856 0.63217 0.0
N157 N 0.54946 0.57828 0.60713 0.0
N158 N 0.52144 0.59654 0.63693 0.0
C159 C 0.54505 0.56033 0.6518 0.0
C160 C 0.52159 0.60741 0.61396 0.0
N161 N 0.53875 0.59663 0.59598 0.0
C162 C 0.50234 0.62543 0.60767 0.0
H163 H 0.53132 0.5404 0.64857 0.0
H164 H 0.5427 0.57129 0.67295 0.0
H165 H 0.5649 0.55514 0.64894 0.0
H166 H 0.49529 0.63763 0.6266 0.0
H167 H 0.48574 0.61151 0.59691 0.0
H168 H 0.51092 0.64018 0.59431 0.0
C169 C 0.52609 0.50058 0.00577 0.0
N170 N 0.54959 0.50161 0.0167 0.0
N171 N 0.52805 0.5127 0.98341 0.0
C172 C 0.50151 0.48556 0.01548 0.0
C173 C 0.55355 0.52083 0.9809 0.0
N174 N 0.56669 0.51369 0.0009 0.0
C175 C 0.56544 0.53768 0.96019 0.0
H176 H 0.48723 0.47864 0.99884 0.0
H177 H 0.49328 0.50024 0.03186 0.0
H178 H 0.50514 0.46678 0.02377 0.0
H179 H 0.58222 0.55294 0.96885 0.0
H180 H 0.55135 0.54944 0.95269 0.0
H181 H 0.57218 0.52298 0.94277 0.0
C182 C 0.70107 0.25848 0.29591 0.0
N183 N 0.71665 0.24946 0.31256 0.0
N184 N 0.69755 0.23997 0.2722 0.0
C185 C 0.68686 0.28356 0.30399 0.0
C186 C 0.71114 0.21909 0.27523 0.0
N187 N 0.72272 0.22486 0.29978 0.0
C188 C 0.71294 0.19297 0.25441 0.0
H189 H 0.66798 0.28004 0.29362 0.0
H190 H 0.69847 0.30249 0.29813 0.0
H191 H 0.68359 0.28792 0.32619 0.0
H192 H 0.70853 0.19637 0.23383 0.0
H193 H 0.69894 0.17534 0.25955 0.0
H194 H 0.73241 0.18673 0.25456 0.0
C195 C 0.41822 0.05821 0.9362 0.0
N196 N 0.43731 0.08023 0.93734 0.0
N197 N 0.39756 0.06635 0.95035 0.0
C198 C 0.4198 0.0285 0.92185 0.0
C199 C 0.40475 0.0942 0.96014 0.0
N200 N 0.42888 0.10278 0.95196 0.0
C201 C 0.38998 0.11185 0.98117 0.0
H202 H 0.43228 0.0286 0.9037 0.0
H203 H 0.40038 0.01721 0.9157 0.0
H204 H 0.42814 0.01686 0.93579 0.0
H205 H 0.40278 0.12273 0.99829 0.0
H206 H 0.37339 0.09911 0.98926 0.0
H207 H 0.38278 0.12833 0.9719 0.0
O208 O 0.23082 0.85792 0.01978 0.0
Cd209 Cd 0.24174 0.89031 0.0517 0.0
Cd210 Cd 0.20327 0.91353 0.02549 0.0
O211 O 0.19791 0.87303 0.00316 0.0
O212 O 0.26701 0.87345 0.07025 0.0
O213 O 0.23181 0.88647 0.09031 0.0
C214 C 0.25266 0.8756 0.09142 0.0
C215 C 0.16828 0.93834 0.03543 0.0
C216 C 0.21244 0.8542 0.00296 0.0
C217 C 0.2588 0.94178 0.02717 0.0
O218 O 0.23616 0.93946 0.01807 0.0
O219 O 0.26448 0.92533 0.0424 0.0
O220 O 0.17732 0.93334 0.01124 0.0
O221 O 0.17828 0.92798 0.05401 0.0
O222 O 0.18505 0.55702 0.3155 0.0
Cd223 Cd 0.15742 0.52345 0.31992 0.0
Cd224 Cd 0.13341 0.53757 0.27873 0.0
O225 O 0.16974 0.55939 0.27558 0.0
O226 O 0.17296 0.4949 0.33543 0.0
O227 O 0.15847 0.4877 0.29312 0.0
C228 C 0.16948 0.4787 0.312 0.0
C229 C 0.11097 0.51932 0.23815 0.0
C230 C 0.1871 0.56695 0.29367 0.0
C231 C 0.10874 0.54603 0.33403 0.0
O232 O 0.10997 0.55203 0.31036 0.0
O233 O 0.12506 0.53216 0.34161 0.0
O234 O 0.11616 0.54609 0.24697 0.0
O235 O 0.11901 0.50243 0.25213 0.0
O236 O 0.79372 0.68978 0.98235 0.0
Cd237 Cd 0.7779 0.67201 0.01486 0.0
Cd238 Cd 0.79723 0.62626 0.98322 0.0
O239 O 0.8066 0.65294 0.9557 0.0
O240 O 0.76384 0.70425 0.03779 0.0
O241 O 0.79363 0.6829 0.05243 0.0
C242 C 0.77823 0.70166 0.05731 0.0
C243 C 0.82793 0.6067 0.003 0.0
C244 C 0.80381 0.67896 0.9603 0.0
C245 C 0.74215 0.6162 0.99786 0.0
O246 O 0.76036 0.60585 0.98446 0.0
O247 O 0.74557 0.64157 0.01059 0.0
O248 O 0.81947 0.59606 0.97884 0.0
O249 O 0.81975 0.62942 0.0156 0.0
O250 O 0.89496 0.02099 0.32437 0.0
Cd251 Cd 0.87035 0.02237 0.29334 0.0
Cd252 Cd 0.83984 0.03534 0.33542 0.0
O253 O 0.87164 0.03754 0.3591 0.0
O254 O 0.89248 0.01768 0.26075 0.0
O255 O 0.8759 0.057 0.27564 0.0
C256 C 0.89 0.04308 0.2583 0.0
C257 C 0.82065 0.07519 0.33411 0.0
C258 C 0.89237 0.02908 0.34973 0.0
C259 C 0.82358 0.98067 0.29833 0.0
O260 O 0.8202 0.99557 0.32137 0.0
O261 O 0.8414 0.9889 0.28286 0.0
O262 O 0.8155 0.06076 0.35333 0.0
O263 O 0.83693 0.06697 0.31571 0.0
O264 O 0.29592 0.19536 0.48364 0.0
Cd265 Cd 0.28172 0.17584 0.5156 0.0
Cd266 Cd 0.30067 0.13111 0.48332 0.0
O267 O 0.30799 0.15863 0.45626 0.0
O268 O 0.26899 0.20745 0.5408 0.0
O269 O 0.29857 0.18394 0.55259 0.0
C270 C 0.28381 0.20316 0.55921 0.0
C271 C 0.33394 0.11285 0.50039 0.0
C272 C 0.30508 0.1846 0.46107 0.0
C273 C 0.24592 0.12014 0.49857 0.0
O274 O 0.26423 0.10956 0.48549 0.0
O275 O 0.24925 0.1457 0.51084 0.0
O276 O 0.32514 0.10309 0.4762 0.0
O277 O 0.3241 0.13358 0.5148 0.0
O278 O 0.39044 0.52508 0.83515 0.0
Cd279 Cd 0.36662 0.52787 0.80387 0.0
Cd280 Cd 0.33575 0.53866 0.84635 0.0
O281 O 0.36727 0.54078 0.87032 0.0
O282 O 0.3893 0.52063 0.77202 0.0
O283 O 0.37502 0.56161 0.78497 0.0
C284 C 0.38856 0.54607 0.76846 0.0
C285 C 0.31729 0.57833 0.84261 0.0
C286 C 0.3879 0.53236 0.86061 0.0
C287 C 0.31946 0.48594 0.80757 0.0
O288 O 0.31661 0.49891 0.83157 0.0
O289 O 0.33674 0.49573 0.79233 0.0
O290 O 0.31142 0.56491 0.86246 0.0
O291 O 0.33403 0.56929 0.82511 0.0
O292 O 0.73339 0.36609 0.51228 0.0
Cd293 Cd 0.7469 0.39384 0.54671 0.0
Cd294 Cd 0.71345 0.42748 0.52615 0.0
O295 O 0.70943 0.3927 0.49541 0.0
O296 O 0.76832 0.37027 0.5625 0.0
O297 O 0.73584 0.38798 0.5845 0.0
C298 C 0.75438 0.37312 0.58395 0.0
C299 C 0.67817 0.45157 0.5378 0.0
C300 C 0.71917 0.36993 0.49357 0.0
C301 C 0.77002 0.44999 0.53282 0.0
O302 O 0.74762 0.45381 0.527 0.0
O303 O 0.77371 0.4276 0.541 0.0
O304 O 0.69007 0.45236 0.5152 0.0
O305 O 0.68567 0.43613 0.55367 0.0
O306 O 0.67598 0.05992 0.82283 0.0
Cd307 Cd 0.65124 0.02607 0.83231 0.0
Cd308 Cd 0.62433 0.03431 0.78777 0.0
O309 O 0.65928 0.05791 0.78245 0.0
O310 O 0.67168 0.00505 0.85225 0.0
O311 O 0.65485 0.98745 0.81156 0.0
C312 C 0.66867 0.98466 0.83162 0.0
C313 C 0.59889 0.01706 0.74902 0.0
C314 C 0.67682 0.06782 0.79999 0.0
C315 C 0.60115 0.04493 0.84484 0.0
O316 O 0.60157 0.04786 0.82019 0.0
O317 O 0.61874 0.03406 0.85428 0.0
O318 O 0.60307 0.04352 0.75933 0.0
O319 O 0.61024 -6e-05 0.75985 0.0
O320 O 0.96907 0.25801 0.96967 0.0
Cd321 Cd 0.96704 0.22266 0.93907 0.0
Cd322 Cd 0.99532 0.25771 0.91286 0.0
O323 O 0.00044 0.28271 0.95057 0.0
O324 O 0.96176 0.18813 0.95582 0.0
O325 O 0.99779 0.20222 0.9352 0.0
C326 C 0.98502 0.18462 0.94882 0.0
C327 C 0.03038 0.25415 0.88375 0.0
C328 C 0.98581 0.27989 0.9707 0.0
C329 C 0.94118 0.23729 0.89341 0.0
O330 O 0.96073 0.25604 0.89388 0.0
O331 O 0.94037 0.2187 0.9084 0.0
O332 O 0.0198 0.27685 0.88899 0.0
O333 O 0.02147 0.23338 0.89572 0.0
O334 O 0.47131 0.75478 0.4704 0.0
Cd335 Cd 0.47002 0.7187 0.44095 0.0
Cd336 Cd 0.50275 0.75025 0.41522 0.0
O337 O 0.50608 0.77556 0.45296 0.0
O338 O 0.46273 0.68455 0.45823 0.0
O339 O 0.50033 0.69809 0.44015 0.0
C340 C 0.48636 0.68092 0.4533 0.0
C341 C 0.54025 0.74307 0.39101 0.0
C342 C 0.48966 0.77515 0.47192 0.0
C343 C 0.44984 0.73338 0.39185 0.0
O344 O 0.47044 0.75082 0.39297 0.0
O345 O 0.44651 0.71553 0.40774 0.0
O346 O 0.53234 0.76737 0.39532 0.0
O347 O 0.52691 0.72251 0.4004 0.0
O348 O 0.98173 0.7921 0.68244 0.0
Cd349 Cd 0.01297 0.78856 0.65669 0.0
Cd350 Cd 0.99026 0.82542 0.63233 0.0
O351 O 0.96339 0.82122 0.66261 0.0
O352 O 0.03192 0.76307 0.6727 0.0
O353 O 0.04876 0.80662 0.66905 0.0
C354 C 0.05128 0.78284 0.67607 0.0
C355 C 0.01034 0.86962 0.6258 0.0
C356 C 0.96351 0.80635 0.68102 0.0
C357 C 0.99759 0.77155 0.59698 0.0
O358 O 0.98778 0.79417 0.59842 0.0
O359 O 0.00821 0.76629 0.6176 0.0
O360 O 0.98645 0.86116 0.61986 0.0
O361 O 0.02286 0.85328 0.63647 0.0
O362 O 0.47826 0.27459 0.1782 0.0
Cd363 Cd 0.50892 0.27148 0.15198 0.0
Cd364 Cd 0.49067 0.31474 0.13334 0.0
O365 O 0.46729 0.31322 0.1671 0.0
O366 O 0.5282 0.24467 0.16558 0.0
O367 O 0.54478 0.28888 0.16393 0.0
C368 C 0.54749 0.26453 0.16958 0.0
C369 C 0.51161 0.35837 0.12583 0.0
C370 C 0.46433 0.29423 0.18181 0.0
C371 C 0.4908 0.26077 0.09401 0.0
O372 O 0.48257 0.28454 0.09857 0.0
O373 O 0.50245 0.2527 0.1124 0.0
O374 O 0.48712 0.35154 0.12283 0.0
O375 O 0.52444 0.34059 0.13385 0.0
H376 H 0.16833 0.74119 0.85379 0.0
H377 H 0.24905 0.82071 0.98488 0.0
H378 H 0.25033 0.76483 0.85324 0.0
H379 H 0.17104 0.83182 0.96993 0.0
H380 H 0.24792 0.78593 0.94284 0.0
H381 H 0.16792 0.75978 0.90267 0.0
C382 C 0.18628 0.74986 0.86423 0.0
C383 C 0.20932 0.75231 0.8497 0.0
C384 C 0.23093 0.79562 0.94911 0.0
C385 C 0.20911 0.77304 0.90516 0.0
C386 C 0.23147 0.81536 0.97312 0.0
C387 C 0.21019 0.82948 0.9807 0.0
C388 C 0.20884 0.78965 0.93286 0.0
C389 C 0.18796 0.82171 0.96465 0.0
C390 C 0.18605 0.7604 0.89195 0.0
C391 C 0.23222 0.76297 0.86391 0.0
N392 N 0.18793 0.80244 0.94134 0.0
N393 N 0.23154 0.77337 0.89094 0.0
H394 H 0.9929 0.5529 0.45845 0.0
H395 H 0.07309 0.57987 0.32642 0.0
H396 H 0.97524 0.61093 0.40849 0.0
H397 H 0.09719 0.53264 0.38411 0.0
H398 H 0.03799 0.59278 0.35671 0.0
H399 H 0.03232 0.54674 0.43242 0.0
C400 C 0.99759 0.56445 0.44202 0.0
C401 C 0.98094 0.5821 0.43516 0.0
C402 C 0.05107 0.57976 0.36282 0.0
C403 C 0.02563 0.57524 0.40527 0.0
C404 C 0.07107 0.57228 0.34549 0.0
C405 C 0.08802 0.55495 0.35263 0.0
C406 C 0.04785 0.56966 0.38739 0.0
C407 C 0.08454 0.54592 0.37769 0.0
C408 C 0.02001 0.56105 0.42722 0.0
C409 C 0.98776 0.59708 0.41412 0.0
N410 N 0.06474 0.55321 0.39405 0.0
N411 N 0.0095 0.59305 0.39962 0.0
H412 H 0.80384 0.74754 0.81412 0.0
H413 H 0.81524 0.73643 0.96833 0.0
H414 H 0.831 0.81824 0.87628 0.0
H415 H 0.80963 0.66242 0.9053 0.0
H416 H 0.82392 0.76626 0.93405 0.0
H417 H 0.80965 0.71516 0.84537 0.0
C418 C 0.81196 0.75606 0.83404 0.0
C419 C 0.81701 0.78538 0.84285 0.0
C420 C 0.82111 0.74349 0.92763 0.0
C421 C 0.82286 0.74901 0.87883 0.0
C422 C 0.81601 0.72644 0.94724 0.0
C423 C 0.81146 0.69689 0.93966 0.0
C424 C 0.82118 0.73104 0.90006 0.0
C425 C 0.81297 0.68513 0.91201 0.0
C426 C 0.81504 0.73772 0.85195 0.0
C427 C 0.827 0.79567 0.86893 0.0
N428 N 0.81729 0.70225 0.89314 0.0
N429 N 0.82918 0.77757 0.88617 0.0
H430 H 0.98979 0.04142 0.4896 0.0
H431 H 0.93824 0.00983 0.33667 0.0
H432 H 0.02882 0.99719 0.42234 0.0
H433 H 0.8948 0.04604 0.40499 0.0
H434 H 0.97262 0.0074 0.36747 0.0
H435 H 0.9556 0.0455 0.45873 0.0
C436 C 0.99101 0.03256 0.46827 0.0
C437 C 0.01191 0.01893 0.45833 0.0
C438 C 0.95559 0.0159 0.37575 0.0
C439 C 0.9733 0.02361 0.42295 0.0
C440 C 0.93592 0.01734 0.35816 0.0
C441 C 0.91353 0.02811 0.36826 0.0
C442 C 0.95294 0.02535 0.40369 0.0
C443 C 0.91168 0.03753 0.39631 0.0
C444 C 0.97163 0.03492 0.45067 0.0
C445 C 0.01299 0.00801 0.43058 0.0
N446 N 0.93113 0.03591 0.41305 0.0
N447 N 0.99392 0.01056 0.41381 0.0
H448 H 0.22219 0.30091 0.69849 0.0
H449 H 0.29908 0.18839 0.60607 0.0
H450 H 0.24722 0.23094 0.72717 0.0
H451 H 0.26321 0.25157 0.57653 0.0
H452 H 0.2881 0.20905 0.65254 0.0
H453 H 0.24497 0.28864 0.65593 0.0
C454 C 0.23313 0.28341 0.696 0.0
C455 C 0.23321 0.2671 0.71628 0.0
C456 C 0.28298 0.21861 0.63588 0.0
C457 C 0.25858 0.25215 0.6674 0.0
C458 C 0.28939 0.20694 0.6094 0.0
C459 C 0.28178 0.2181 0.58742 0.0
C460 C 0.26905 0.24165 0.6403 0.0
C461 C 0.26917 0.24208 0.59286 0.0
C462 C 0.24589 0.27615 0.67162 0.0
C463 C 0.24686 0.24394 0.71184 0.0
N464 N 0.26303 0.25289 0.61869 0.0
N465 N 0.25889 0.23698 0.68774 0.0
H466 H 0.51429 0.62816 0.68605 0.0
H467 H 0.39914 0.51606 0.71972 0.0
H468 H 0.48002 0.5575 0.62741 0.0
H469 H 0.41289 0.59993 0.76782 0.0
H470 H 0.42904 0.53147 0.68579 0.0
H471 H 0.47798 0.61926 0.71701 0.0
C472 C 0.49889 0.611 0.67977 0.0
C473 C 0.49984 0.59331 0.65456 0.0
C474 C 0.42534 0.5467 0.70355 0.0
C475 C 0.45887 0.58293 0.68923 0.0
C476 C 0.4083 0.53788 0.72292 0.0
C477 C 0.4037 0.55676 0.74653 0.0
C478 C 0.4384 0.57448 0.70809 0.0
C479 C 0.41594 0.58482 0.74974 0.0
C480 C 0.47825 0.60597 0.69721 0.0
C481 C 0.47973 0.57133 0.6469 0.0
N482 N 0.43316 0.59278 0.73088 0.0
N483 N 0.46015 0.56657 0.66427 0.0
H484 H 0.79735 0.25551 0.67822 0.0
H485 H 0.73563 0.38205 0.63609 0.0
H486 H 0.77376 0.3223 0.73794 0.0
H487 H 0.7853 0.33282 0.58372 0.0
H488 H 0.74537 0.35833 0.67323 0.0
H489 H 0.7892 0.28149 0.6424 0.0
C490 C 0.79061 0.27584 0.6836 0.0
C491 C 0.78629 0.28707 0.71072 0.0
C492 C 0.75416 0.35289 0.6536 0.0
C493 C 0.77652 0.31665 0.67029 0.0
C494 C 0.74853 0.36627 0.63241 0.0
C495 C 0.75965 0.35936 0.6068 0.0
C496 C 0.77068 0.33221 0.6489 0.0
C497 C 0.77631 0.33886 0.60313 0.0
C498 C 0.78596 0.29065 0.66333 0.0
C499 C 0.77741 0.31331 0.71708 0.0
N500 N 0.78118 0.32592 0.62387 0.0
N501 N 0.77258 0.32723 0.69692 0.0
H502 H 0.52628 0.96896 0.59248 0.0
H503 H 0.55562 0.0387 0.74249 0.0
H504 H 0.46576 0.98934 0.64866 0.0
H505 H 0.59917 0.97301 0.70565 0.0
H506 H 0.52448 0.0241 0.70565 0.0
H507 H 0.55527 0.97176 0.63095 0.0
C508 C 0.51894 0.97322 0.61291 0.0
C509 C 0.4937 0.97898 0.61758 0.0
C510 C 0.54072 0.0127 0.70569 0.0
C511 C 0.5267 0.9832 0.66128 0.0
C512 C 0.55859 0.02115 0.72656 0.0
C513 C 0.57999 0.00709 0.72695 0.0
C514 C 0.54456 0.99048 0.68458 0.0
C515 C 0.58284 0.98431 0.70598 0.0
C516 C 0.53548 0.97499 0.63478 0.0
C517 C 0.48522 0.98513 0.64438 0.0
N518 N 0.56547 0.97694 0.68525 0.0
N519 N 0.50181 0.9876 0.66524 0.0
H520 H 0.82156 0.29173 0.80935 0.0
H521 H 0.90544 0.19318 0.8696 0.0
H522 H 0.8288 0.20781 0.76678 0.0
H523 H 0.92695 0.28352 0.87778 0.0
H524 H 0.87006 0.19595 0.83931 0.0
H525 H 0.85324 0.28681 0.84266 0.0
C526 C 0.82981 0.27227 0.80713 0.0
C527 C 0.82286 0.25027 0.78524 0.0
C528 C 0.88255 0.21509 0.8479 0.0
C529 C 0.85838 0.24416 0.82343 0.0
C530 C 0.90259 0.21355 0.86518 0.0
C531 C 0.91919 0.23813 0.87599 0.0
C532 C 0.8788 0.24147 0.84211 0.0
C533 C 0.91475 0.26403 0.86964 0.0
C534 C 0.84773 0.26941 0.82611 0.0
C535 C 0.83356 0.22515 0.78353 0.0
N536 N 0.8949 0.26504 0.85324 0.0
N537 N 0.85085 0.22272 0.80241 0.0
H538 H 0.51093 0.94902 0.54329 0.0
H539 H 0.4546 0.78624 0.51271 0.0
H540 H 0.44752 0.91358 0.58783 0.0
H541 H 0.52708 0.82101 0.48154 0.0
H542 H 0.45377 0.83106 0.54412 0.0
H543 H 0.51973 0.90123 0.52419 0.0
C544 C 0.49938 0.93096 0.54954 0.0
C545 C 0.47884 0.93485 0.56731 0.0
C546 C 0.47004 0.82868 0.5307 0.0
C547 C 0.48781 0.88023 0.5449 0.0
C548 C 0.47054 0.80308 0.51276 0.0
C549 C 0.49071 0.8 0.49411 0.0
C550 C 0.48977 0.85135 0.5298 0.0
C551 C 0.51091 0.82251 0.49523 0.0
C552 C 0.50421 0.90373 0.5386 0.0
C553 C 0.46378 0.91108 0.57443 0.0
N554 N 0.50973 0.8473 0.51245 0.0
N555 N 0.46831 0.88464 0.56288 0.0
H556 H 0.14104 0.28983 0.76149 0.0
H557 H 0.0634 0.21429 0.87419 0.0
H558 H 0.17167 0.2291 0.79953 0.0
H559 H 0.0455 0.28939 0.84824 0.0
H560 H 0.09914 0.21291 0.84168 0.0
H561 H 0.10107 0.2824 0.78687 0.0
C562 C 0.13893 0.27446 0.77488 0.0
C563 C 0.15932 0.26003 0.77866 0.0
C564 C 0.08725 0.22955 0.84309 0.0
C565 C 0.11425 0.2518 0.8082 0.0
C566 C 0.06691 0.23037 0.8616 0.0
C567 C 0.05165 0.25215 0.86408 0.0
C568 C 0.09202 0.25045 0.82682 0.0
C569 C 0.05693 0.27239 0.84724 0.0
C570 C 0.11634 0.27035 0.7895 0.0
C571 C 0.15611 0.24043 0.79621 0.0
N572 N 0.07664 0.27104 0.82939 0.0
N573 N 0.134 0.23705 0.81067 0.0
H574 H 0.57008 0.63384 0.57232 0.0
H575 H 0.46146 0.63415 0.47089 0.0
H576 H 0.50709 0.56609 0.55707 0.0
H577 H 0.53705 0.68011 0.46339 0.0
H578 H 0.47956 0.60528 0.49865 0.0
H579 H 0.56149 0.64749 0.52897 0.0
C580 C 0.55513 0.62117 0.55914 0.0
C581 C 0.53935 0.59879 0.56783 0.0
C582 C 0.49232 0.62125 0.49045 0.0
C583 C 0.52854 0.61479 0.51917 0.0
C584 C 0.48196 0.63778 0.47467 0.0
C585 C 0.49773 0.65978 0.46517 0.0
C586 C 0.51851 0.62724 0.49737 0.0
C587 C 0.52419 0.66346 0.47047 0.0
C588 C 0.55005 0.62901 0.53457 0.0
C589 C 0.51973 0.58331 0.55065 0.0
N590 N 0.53368 0.64779 0.48677 0.0
N591 N 0.51446 0.59198 0.52737 0.0
H592 H 0.8635 0.8153 0.82144 0.0
H593 H 0.91448 0.81501 0.67296 0.0
H594 H 0.81387 0.7885 0.75183 0.0
H595 H 0.96258 0.79321 0.73217 0.0
H596 H 0.87803 0.81071 0.70378 0.0
H597 H 0.90102 0.81053 0.7914 0.0
C598 C 0.86055 0.80765 0.79994 0.0
C599 C 0.83572 0.80245 0.78892 0.0
C600 C 0.89655 0.80676 0.70999 0.0
C601 C 0.87813 0.79801 0.75463 0.0
C602 C 0.91741 0.80946 0.69252 0.0
C603 C 0.94161 0.80452 0.70004 0.0
C604 C 0.89995 0.79968 0.73547 0.0
C605 C 0.94421 0.79714 0.72558 0.0
C606 C 0.88187 0.80517 0.78283 0.0
C607 C 0.8328 0.793 0.76092 0.0
N608 N 0.92367 0.79524 0.74257 0.0
N609 N 0.85374 0.79163 0.74466 0.0
H610 H 0.08102 0.96565 0.51469 0.0
H611 H 0.98991 0.91796 0.6264 0.0
H612 H 0.0327 0.0209 0.56107 0.0
H613 H 0.05927 0.88101 0.60691 0.0
H614 H 0.00782 0.95811 0.60543 0.0
H615 H 0.07743 0.93695 0.55065 0.0
C616 C 0.07046 0.97225 0.53297 0.0
C617 C 0.05681 0.99525 0.53497 0.0
C618 C 0.01944 0.94158 0.60622 0.0
C619 C 0.05195 0.96242 0.57556 0.0
C620 C 0.00917 0.91865 0.61815 0.0
C621 C 0.02311 0.89618 0.61822 0.0
C622 C 0.04351 0.94162 0.59346 0.0
C623 C 0.04797 0.89803 0.60728 0.0
C624 C 0.06825 0.95584 0.55338 0.0
C625 C 0.04317 0.00299 0.55881 0.0
N626 N 0.05718 0.92006 0.59471 0.0
N627 N 0.04055 0.98623 0.57792 0.0
H628 H 0.16075 0.7095 0.75481 0.0
H629 H 0.09564 0.82025 0.68885 0.0
H630 H 0.19679 0.79486 0.7549 0.0
H631 H 0.06212 0.73359 0.68861 0.0
H632 H 0.13489 0.81069 0.70879 0.0
H633 H 0.12692 0.71659 0.72518 0.0
C634 C 0.16171 0.72952 0.74791 0.0
C635 C 0.18132 0.75164 0.75705 0.0
C636 C 0.11897 0.79377 0.70418 0.0
C637 C 0.14251 0.76046 0.72408 0.0
C638 C 0.09657 0.79924 0.69289 0.0
C639 C 0.07549 0.77778 0.68736 0.0
C640 C 0.1202 0.76667 0.70989 0.0
C641 C 0.07777 0.75089 0.6928 0.0
C642 C 0.14238 0.73374 0.73127 0.0
C643 C 0.18181 0.77741 0.74809 0.0
N644 N 0.09963 0.74617 0.70386 0.0
N645 N 0.16243 0.78131 0.73233 0.0
H646 H 0.93749 0.65725 0.45575 0.0
H647 H 0.024 0.72653 0.5843 0.0
H648 H 0.99207 0.61546 0.48998 0.0
H649 H 0.96891 0.76921 0.5513 0.0
H650 H 0.01911 0.6897 0.54408 0.0
H651 H 0.95577 0.70234 0.48364 0.0
C652 C 0.95399 0.65793 0.46846 0.0
C653 C 0.9633 0.63288 0.47087 0.0
C654 C 0.00827 0.70724 0.54543 0.0
C655 C 0.98381 0.68374 0.50322 0.0
C656 C 0.01095 0.72825 0.5685 0.0
C657 C 0.99643 0.7507 0.57144 0.0
C658 C 0.99068 0.70841 0.52521 0.0
C659 C 0.98023 0.75209 0.55004 0.0
C660 C 0.96427 0.68349 0.48453 0.0
C661 C 0.98453 0.63447 0.48759 0.0
N662 N 0.97749 0.73097 0.52799 0.0
N663 N 0.99378 0.6594 0.50357 0.0
H664 H 0.76251 0.80816 0.30106 0.0
H665 H 0.81332 0.94996 0.24724 0.0
H666 H 0.73056 0.82409 0.22807 0.0
H667 H 0.80062 0.94644 0.33197 0.0
H668 H 0.79174 0.90083 0.23559 0.0
H669 H 0.78754 0.85558 0.30785 0.0
C670 C 0.76134 0.82153 0.28616 0.0
C671 C 0.74448 0.81253 0.26414 0.0
C672 C 0.79366 0.911 0.25666 0.0
C673 C 0.77278 0.86644 0.27165 0.0
C674 C 0.80586 0.93892 0.26334 0.0
C675 C 0.80861 0.95227 0.29061 0.0
C676 C 0.78493 0.89625 0.27747 0.0
C677 C 0.7987 0.93705 0.3107 0.0
C678 C 0.77536 0.84852 0.29011 0.0
C679 C 0.74354 0.83036 0.24519 0.0
N680 N 0.78757 0.90974 0.30373 0.0
N681 N 0.75742 0.85672 0.24945 0.0
H682 H 0.77403 0.22823 0.29628 0.0
H683 H 0.77786 0.09025 0.36166 0.0
H684 H 0.70661 0.18117 0.32493 0.0
H685 H 0.83384 0.11647 0.30357 0.0
H686 H 0.75514 0.12979 0.35717 0.0
H687 H 0.80002 0.19363 0.30784 0.0
C688 C 0.76496 0.21088 0.30562 0.0
C689 C 0.73846 0.20744 0.31013 0.0
C690 C 0.77249 0.12694 0.34555 0.0
C691 C 0.76752 0.168 0.32306 0.0
C692 C 0.7855 0.10446 0.34814 0.0
C693 C 0.80766 0.09996 0.33279 0.0
C694 C 0.7819 0.14528 0.3278 0.0
C695 C 0.81669 0.11904 0.31559 0.0
C696 C 0.7796 0.19112 0.31198 0.0
C697 C 0.72714 0.18449 0.32166 0.0
N698 N 0.80377 0.1409 0.31355 0.0
N699 N 0.74174 0.16557 0.32779 0.0
H700 H 0.34679 0.06487 0.94291 0.0
H701 H 0.31017 0.94991 0.0389 0.0
H702 H 0.4022 0.02763 0.98119 0.0
H703 H 0.25389 0.98021 0.99446 0.0
H704 H 0.34395 0.98074 0.02018 0.0
H705 H 0.31201 0.03568 0.96307 0.0
C706 C 0.35144 0.05025 0.95537 0.0
C707 C 0.37706 0.04814 0.9603 0.0
C708 C 0.3242 0.98072 0.01459 0.0
C709 C 0.33799 0.01528 0.98362 0.0
C710 C 0.30487 0.96321 0.02539 0.0
C711 C 0.27916 0.96234 0.01813 0.0
C712 C 0.31779 0.99753 0.99643 0.0
C713 C 0.27347 0.9801 0.00054 0.0
C714 C 0.33177 0.03375 0.96693 0.0
C715 C 0.38253 0.02933 0.97674 0.0
N716 N 0.29266 0.99689 0.99019 0.0
N717 N 0.36313 0.01362 0.98789 0.0
H718 H 0.22208 0.31519 0.30846 0.0
H719 H 0.1921 0.45515 0.26572 0.0
H720 H 0.28439 0.3767 0.28976 0.0
H721 H 0.17085 0.44136 0.34635 0.0
H722 H 0.21537 0.41394 0.25986 0.0
H723 H 0.19252 0.35033 0.30891 0.0
C724 C 0.22949 0.33594 0.30428 0.0
C725 C 0.25573 0.34311 0.29916 0.0
C726 C 0.20508 0.4197 0.27854 0.0
C727 C 0.22207 0.38241 0.29825 0.0
C728 C 0.19178 0.44299 0.28187 0.0
C729 C 0.17973 0.45158 0.30659 0.0
C730 C 0.20552 0.40455 0.29976 0.0
C731 C 0.18008 0.43539 0.32706 0.0
C732 C 0.21265 0.35575 0.30432 0.0
C733 C 0.26426 0.37009 0.29322 0.0
N734 N 0.1928 0.41253 0.3232 0.0
N735 N 0.24745 0.38875 0.29278 0.0
H736 H 0.1089 0.99853 0.4651 0.0
H737 H 0.20574 0.13292 0.53185 0.0
H738 H 0.0915 0.05548 0.5371 0.0
H739 H 0.2289 0.06684 0.47038 0.0
H740 H 0.16445 0.10372 0.53522 0.0
H741 H 0.15389 0.02092 0.46849 0.0
C742 C 0.11491 0.01527 0.48207 0.0
C743 C 0.09682 0.0253 0.5009 0.0
C744 C 0.1786 0.09549 0.52111 0.0
C745 C 0.14768 0.05158 0.50455 0.0
C746 C 0.20215 0.11227 0.519 0.0
C747 C 0.22078 0.10245 0.50059 0.0
C748 C 0.17341 0.06876 0.50449 0.0
C749 C 0.21508 0.07535 0.48473 0.0
C750 C 0.14043 0.02818 0.48393 0.0
C751 C 0.10512 0.04717 0.52239 0.0
N752 N 0.19182 0.05955 0.48688 0.0
N753 N 0.12992 0.05995 0.52342 0.0
H754 H 0.77118 0.22818 0.80456 0.0
H755 H 0.69361 0.07748 0.7503 0.0
H756 H 0.77866 0.18322 0.72321 0.0
H757 H 0.70725 0.10773 0.8358 0.0
H758 H 0.72523 0.11612 0.74029 0.0
H759 H 0.74884 0.18439 0.81744 0.0
C760 C 0.76844 0.20888 0.78962 0.0
C761 C 0.77625 0.20911 0.76277 0.0
C762 C 0.72157 0.11416 0.76126 0.0
C763 C 0.7506 0.15948 0.77695 0.0
C764 C 0.70342 0.09217 0.76698 0.0
C765 C 0.69767 0.08956 0.79391 0.0
C766 C 0.73373 0.13406 0.78263 0.0
C767 C 0.71113 0.10904 0.81473 0.0
C768 C 0.75571 0.184 0.79687 0.0
C769 C 0.77236 0.1838 0.74397 0.0
N770 N 0.72829 0.13079 0.80867 0.0
N771 N 0.75946 0.16006 0.7513 0.0
H772 H 0.454 0.01375 0.52073 0.0
H773 H 0.34787 0.11767 0.55354 0.0
H774 H 0.41665 0.02866 0.59828 0.0
H775 H 0.36538 0.0777 0.47247 0.0
H776 H 0.37871 0.0922 0.57143 0.0
H777 H 0.42697 0.04396 0.50371 0.0
C778 C 0.44004 0.02341 0.5341 0.0
C779 C 0.43726 0.01858 0.56079 0.0
C780 C 0.37586 0.08918 0.54973 0.0
C781 C 0.40674 0.0535 0.54182 0.0
C782 C 0.35839 0.10379 0.53951 0.0
C783 C 0.35397 0.09965 0.51149 0.0
C784 C 0.38921 0.07064 0.53177 0.0
C785 C 0.36806 0.08136 0.49422 0.0
C786 C 0.42473 0.0407 0.52449 0.0
C787 C 0.41937 0.03205 0.57761 0.0
N788 N 0.38505 0.06753 0.50463 0.0
N789 N 0.40472 0.04891 0.56785 0.0
H790 H 0.54208 0.52125 0.60209 0.0
H791 H 0.66932 0.4978 0.51766 0.0
H792 H 0.5938 0.59104 0.58078 0.0
H793 H 0.64031 0.44548 0.57579 0.0
H794 H 0.63646 0.52827 0.53212 0.0
H795 H 0.57271 0.48911 0.58375 0.0
C796 C 0.55994 0.52974 0.59354 0.0
C797 C 0.56585 0.55885 0.5935 0.0
C798 C 0.63726 0.51005 0.54158 0.0
C799 C 0.6004 0.52226 0.57174 0.0
C800 C 0.65588 0.49257 0.5333 0.0
C801 C 0.65754 0.4691 0.54561 0.0
C802 C 0.61984 0.50368 0.56191 0.0
C803 C 0.63974 0.46343 0.56587 0.0
C804 C 0.5773 0.51145 0.58302 0.0
C805 C 0.5887 0.56873 0.58121 0.0
N806 N 0.6215 0.48054 0.57332 0.0
N807 N 0.60527 0.55045 0.57084 0.0
H808 H 0.70574 0.22808 0.35844 0.0
H809 H 0.70863 0.37996 0.44366 0.0
H810 H 0.74071 0.30223 0.32846 0.0
H811 H 0.7261 0.31393 0.48457 0.0
H812 H 0.7118 0.34853 0.40021 0.0
H813 H 0.70737 0.256 0.40471 0.0
C814 C 0.71461 0.24995 0.3618 0.0
C815 C 0.72329 0.26301 0.33987 0.0
C816 C 0.71481 0.34093 0.41875 0.0
C817 C 0.72389 0.29507 0.39188 0.0
C818 C 0.71268 0.35868 0.44355 0.0
C819 C 0.71714 0.34954 0.46776 0.0
C820 C 0.72093 0.31365 0.41812 0.0
C821 C 0.7226 0.32179 0.46632 0.0
C822 C 0.71522 0.2659 0.38803 0.0
C823 C 0.73388 0.29161 0.34501 0.0
N824 N 0.72423 0.30466 0.44183 0.0
N825 N 0.7334 0.30689 0.37043 0.0
H826 H 0.46227 0.11155 0.90312 0.0
H827 H 0.58581 0.03092 0.89407 0.0
H828 H 0.47051 0.04666 0.94913 0.0
H829 H 0.56711 0.07906 0.83463 0.0
H830 H 0.54755 0.04305 0.91988 0.0
H831 H 0.50494 0.10667 0.88323 0.0
C832 C 0.47327 0.09642 0.90904 0.0
C833 C 0.46295 0.07903 0.92714 0.0
C834 C 0.55198 0.05108 0.90127 0.0
C835 C 0.51139 0.07332 0.90494 0.0
C836 C 0.57383 0.04424 0.8866 0.0
C837 C 0.57949 0.05373 0.86202 0.0
C838 C 0.5359 0.06773 0.89139 0.0
C839 C 0.56331 0.07098 0.8533 0.0
C840 C 0.49746 0.09354 0.89775 0.0
C841 C 0.47776 0.05987 0.93462 0.0
N842 N 0.54223 0.07734 0.86791 0.0
N843 N 0.50124 0.05739 0.92338 0.0
H844 H 0.29896 0.2423 0.31004 0.0
H845 H 0.31074 0.24235 0.46689 0.0
H846 H 0.32001 0.31835 0.36834 0.0
H847 H 0.31261 0.1669 0.40667 0.0
H848 H 0.31621 0.27062 0.43098 0.0
H849 H 0.30668 0.21407 0.34428 0.0
C850 C 0.30593 0.25294 0.32992 0.0
C851 C 0.3088 0.28247 0.33665 0.0
C852 C 0.31576 0.24792 0.42562 0.0
C853 C 0.3169 0.25071 0.37605 0.0
C854 C 0.31252 0.23173 0.44613 0.0
C855 C 0.31097 0.20216 0.43978 0.0
C856 C 0.31704 0.23445 0.39846 0.0
C857 C 0.31361 0.18962 0.41251 0.0
C858 C 0.31015 0.23693 0.3495 0.0
C859 C 0.31755 0.29553 0.36265 0.0
N860 N 0.31614 0.20578 0.39282 0.0
N861 N 0.32085 0.27956 0.38161 0.0
H862 H 0.48563 0.53673 0.99869 0.0
H863 H 0.43362 0.51338 0.84643 0.0
H864 H 0.5245 0.49628 0.9292 0.0
H865 H 0.39033 0.54659 0.91618 0.0
H866 H 0.46788 0.50899 0.87646 0.0
H867 H 0.45104 0.54224 0.96891 0.0
C868 C 0.48671 0.52897 0.97711 0.0
C869 C 0.50772 0.51607 0.9662 0.0
C870 C 0.45091 0.51726 0.88524 0.0
C871 C 0.4687 0.5224 0.93209 0.0
C872 C 0.43131 0.51983 0.86808 0.0
C873 C 0.409 0.53034 0.87879 0.0
C874 C 0.4483 0.5253 0.91337 0.0
C875 C 0.40716 0.53834 0.90703 0.0
C876 C 0.46712 0.53216 0.96014 0.0
C877 C 0.50861 0.50654 0.93819 0.0
N878 N 0.42657 0.53564 0.92336 0.0
N879 N 0.48936 0.5099 0.92206 0.0
H880 H 0.76889 0.75493 0.23206 0.0
H881 H 0.74691 0.74179 0.07263 0.0
H882 H 0.69985 0.7698 0.19628 0.0
H883 H 0.80176 0.69823 0.10488 0.0
H884 H 0.73631 0.76285 0.11865 0.0
H885 H 0.78749 0.74408 0.18629 0.0
C886 C 0.75795 0.75633 0.21447 0.0
C887 C 0.73295 0.76311 0.2175 0.0
C888 C 0.75087 0.74892 0.11567 0.0
C889 C 0.75373 0.75104 0.16573 0.0
C890 C 0.75702 0.73693 0.08938 0.0
C891 C 0.77502 0.71787 0.08488 0.0
C892 C 0.7628 0.74193 0.13775 0.0
C893 C 0.78763 0.71264 0.10743 0.0
C894 C 0.7684 0.75007 0.18852 0.0
C895 C 0.7192 0.76456 0.19443 0.0
N896 N 0.7811 0.7244 0.13298 0.0
N897 N 0.72974 0.75853 0.16947 0.0
H898 H 0.97323 0.06395 0.11252 0.0
H899 H 0.91347 0.09765 0.2608 0.0
H900 H 0.0147 0.12196 0.17726 0.0
H901 H 0.89885 0.01681 0.20737 0.0
H902 H 0.94262 0.11544 0.22652 0.0
H903 H 0.93732 0.05556 0.14352 0.0
C904 C 0.97439 0.07525 0.13326 0.0
C905 C 0.99663 0.09352 0.14266 0.0
C906 C 0.93264 0.09399 0.22226 0.0
C907 C 0.95613 0.08413 0.17804 0.0
C908 C 0.91596 0.08393 0.24162 0.0
C909 C 0.90398 0.05574 0.23678 0.0
C910 C 0.93669 0.07581 0.19787 0.0
C911 C 0.90792 0.03862 0.21184 0.0
C912 C 0.9541 0.07045 0.15088 0.0
C913 C 0.99768 0.10771 0.16958 0.0
N914 N 0.92396 0.04893 0.1933 0.0
N915 N 0.97766 0.1026 0.18655 0.0
H916 H 0.25498 0.8138 0.24349 0.0
H917 H 0.29626 0.85388 0.09902 0.0
H918 H 0.31969 0.78665 0.19742 0.0
H919 H 0.22568 0.87316 0.13892 0.0
H920 H 0.3073 0.83385 0.13751 0.0
H921 H 0.24594 0.84018 0.20803 0.0
C922 C 0.26738 0.81379 0.22595 0.0
C923 C 0.28809 0.79835 0.22312 0.0
C924 C 0.28943 0.84253 0.13797 0.0
C925 C 0.27805 0.82799 0.18271 0.0
C926 C 0.28308 0.85402 0.11596 0.0
C927 C 0.25989 0.86505 0.11564 0.0
C928 C 0.27247 0.84195 0.15995 0.0
C929 C 0.2437 0.86478 0.13828 0.0
C930 C 0.26225 0.82867 0.20576 0.0
C931 C 0.30367 0.79858 0.20018 0.0
N932 N 0.25025 0.85325 0.15951 0.0
N933 N 0.29831 0.81312 0.18079 0.0
H934 H 0.97992 0.44549 0.1374 0.0
H935 H 0.10552 0.54708 0.1968 0.0
H936 H 0.01642 0.51541 0.10193 0.0
H937 H 0.07973 0.46838 0.22404 0.0
H938 H 0.07466 0.53337 0.15975 0.0
H939 H 0.01757 0.45055 0.16709 0.0
C940 C 0.9961 0.4616 0.13568 0.0
C941 C 0.99512 0.48042 0.11773 0.0
C942 C 0.07587 0.51884 0.17356 0.0
C943 C 0.03783 0.48655 0.15138 0.0
C944 C 0.09351 0.5267 0.19476 0.0
C945 C 0.09501 0.50893 0.21361 0.0
C946 C 0.05916 0.49321 0.1714 0.0
C947 C 0.07914 0.48268 0.20989 0.0
C948 C 0.01749 0.46455 0.15257 0.0
C949 C 0.01638 0.50096 0.11603 0.0
N950 N 0.06152 0.47577 0.18943 0.0
N951 N 0.03674 0.50369 0.13285 0.0
H952 H 0.3299 0.79546 0.31694 0.0
H953 H 0.41222 0.69141 0.36819 0.0
H954 H 0.33458 0.71369 0.26803 0.0
H955 H 0.43996 0.78042 0.37413 0.0
H956 H 0.37706 0.69672 0.33876 0.0
H957 H 0.36382 0.78792 0.34642 0.0
C958 C 0.3381 0.77593 0.31248 0.0
C959 C 0.32973 0.75531 0.28994 0.0
C960 C 0.39096 0.71496 0.34654 0.0
C961 C 0.3677 0.74615 0.32388 0.0
C962 C 0.4109 0.71199 0.36329 0.0
C963 C 0.42904 0.7355 0.37343 0.0
C964 C 0.38883 0.74175 0.34072 0.0
C965 C 0.42652 0.76172 0.36653 0.0
C966 C 0.35728 0.7716 0.32929 0.0
C967 C 0.34039 0.72996 0.28539 0.0
N968 N 0.40661 0.76422 0.35085 0.0
N969 N 0.35884 0.726 0.3023 0.0
H970 H 0.93342 0.40805 0.09 0.0
H971 H 0.02196 0.32701 0.98167 0.0
H972 H 0.00537 0.44694 0.06216 0.0
H973 H 0.95196 0.28672 0.01311 0.0
H974 H 0.0199 0.36887 0.01638 0.0
H975 H 0.94345 0.36151 0.06797 0.0
C976 C 0.95165 0.4065 0.07975 0.0
C977 C 0.96862 0.43101 0.07767 0.0
C978 C 0.00517 0.35075 0.01596 0.0
C979 C 0.98007 0.37833 0.05193 0.0
C980 C 0.0063 0.3268 0.99609 0.0
C981 C 0.98685 0.30345 0.99416 0.0
C982 C 0.98429 0.35154 0.03391 0.0
C983 C 0.96724 0.30432 0.01364 0.0
C984 C 0.95735 0.38008 0.06709 0.0
C985 C 0.99194 0.42832 0.06417 0.0
N986 N 0.96625 0.32814 0.03244 0.0
N987 N 0.99684 0.40244 0.0514 0.0
H988 H 0.64408 0.74022 0.25946 0.0
H989 H 0.58657 0.77526 0.40049 0.0
H990 H 0.69369 0.75207 0.32889 0.0
H991 H 0.54738 0.703 0.34678 0.0
H992 H 0.62532 0.77184 0.37261 0.0
H993 H 0.60692 0.72937 0.2884 0.0
C994 C 0.64717 0.73979 0.28062 0.0
C995 C 0.67184 0.74725 0.29198 0.0
C996 C 0.60834 0.7565 0.36718 0.0
C997 C 0.62972 0.73602 0.32504 0.0
C998 C 0.58631 0.75852 0.38294 0.0
C999 C 0.56403 0.7393 0.37582 0.0
C1000 C 0.60767 0.73579 0.34366 0.0
C1001 C 0.56441 0.71802 0.35288 0.0
C1002 C 0.62604 0.73375 0.29708 0.0
C1003 C 0.67485 0.7469 0.3196 0.0
N1004 N 0.58584 0.71715 0.33715 0.0
N1005 N 0.65396 0.74211 0.3354 0.0
H1006 H 0.00602 0.06247 0.04495 0.0
H1007 H 0.03627 0.18408 0.9564 0.0
H1008 H 0.06844 0.13076 0.06121 0.0
H1009 H 0.96169 0.13615 0.96444 0.0
H1010 H 0.0551 0.15335 0.98192 0.0
H1011 H 0.99753 0.0775 0.00221 0.0
C1012 C 0.01868 0.0798 0.03872 0.0
C1013 C 0.03796 0.09543 0.05624 0.0
C1014 C 0.03472 0.14919 0.97749 0.0
C1015 C 0.02809 0.11325 0.00823 0.0
C1016 C 0.02398 0.16662 0.96287 0.0
C1017 C 0.99732 0.16289 0.95873 0.0
C1018 C 0.01871 0.12772 0.98763 0.0
C1019 C 0.98227 0.14 0.96758 0.0
C1020 C 0.01368 0.08861 0.01463 0.0
C1021 C 0.05356 0.11818 0.04791 0.0
N1022 N 0.99313 0.12346 0.98185 0.0
N1023 N 0.04804 0.12678 0.02464 0.0
H1024 H 0.34944 0.34419 0.29911 0.0
H1025 H 0.44069 0.24988 0.20451 0.0
H1026 H 0.32662 0.25536 0.26988 0.0
H1027 H 0.44161 0.33931 0.20668 0.0
H1028 H 0.40514 0.25061 0.23717 0.0
H1029 H 0.39033 0.34148 0.27492 0.0
C1030 C 0.35353 0.32395 0.28816 0.0
C1031 C 0.335 0.29993 0.28646 0.0
C1032 C 0.41332 0.27005 0.2306 0.0
C1033 C 0.3812 0.29663 0.25846 0.0
C1034 C 0.43361 0.26971 0.21206 0.0
C1035 C 0.444 0.29457 0.20273 0.0
C1036 C 0.40376 0.29553 0.24026 0.0
C1037 C 0.43404 0.31963 0.21313 0.0
C1038 C 0.37662 0.32244 0.27419 0.0
C1039 C 0.34072 0.27418 0.27181 0.0
N1040 N 0.41452 0.31947 0.23135 0.0
N1041 N 0.36335 0.27319 0.25811 0.0
H1042 H 0.57849 0.45992 0.01638 0.0
H1043 H 0.49264 0.40815 0.13112 0.0
H1044 H 0.53166 0.51324 0.06755 0.0
H1045 H 0.55892 0.36866 0.10261 0.0
H1046 H 0.50983 0.44916 0.11114 0.0
H1047 H 0.57618 0.42896 0.05039 0.0
C1048 C 0.56854 0.46559 0.03529 0.0
C1049 C 0.55496 0.48877 0.03924 0.0
C1050 C 0.52096 0.43184 0.10966 0.0
C1051 C 0.55155 0.4534 0.07765 0.0
C1052 C 0.51109 0.4084 0.12103 0.0
C1053 C 0.52432 0.38499 0.11831 0.0
C1054 C 0.54388 0.43156 0.0947 0.0
C1055 C 0.54818 0.38637 0.10512 0.0
C1056 C 0.56704 0.44789 0.05459 0.0
C1057 C 0.5421 0.49528 0.06382 0.0
N1058 N 0.55696 0.40902 0.09322 0.0
N1059 N 0.54021 0.47734 0.08186 0.0
H1060 H 0.69684 0.28181 0.24369 0.0
H1061 H 0.55829 0.21513 0.1821 0.0
H1062 H 0.65775 0.20016 0.25373 0.0
H1063 H 0.59203 0.30157 0.18154 0.0
H1064 H 0.59766 0.20676 0.20184 0.0
H1065 H 0.66196 0.28665 0.21396 0.0
C1066 C 0.68108 0.2647 0.23906 0.0
C1067 C 0.67992 0.24061 0.25101 0.0
C1068 C 0.59654 0.22753 0.19729 0.0
C1069 C 0.64006 0.24593 0.21757 0.0
C1070 C 0.57403 0.23237 0.18605 0.0
C1071 C 0.57177 0.25921 0.18046 0.0
C1072 C 0.617 0.24969 0.20305 0.0
C1073 C 0.59289 0.28063 0.18577 0.0
C1074 C 0.66119 0.26747 0.2223 0.0
C1075 C 0.65929 0.21891 0.24463 0.0
N1076 N 0.61461 0.27545 0.19696 0.0
N1077 N 0.64 0.22219 0.22852 0.0
H1078 H 0.47216 0.10706 0.98079 0.0
H1079 H 0.45856 0.26379 0.05244 0.0
H1080 H 0.42058 0.15647 0.95202 0.0
H1081 H 0.51361 0.21421 0.07515 0.0
H1082 H 0.44889 0.2283 0.01115 0.0
H1083 H 0.49298 0.14954 0.00999 0.0
C1084 C 0.46584 0.12714 0.97998 0.0
C1085 C 0.44474 0.12844 0.96407 0.0
C1086 C 0.46334 0.22545 0.02503 0.0
C1087 C 0.46747 0.17697 0.99844 0.0
C1088 C 0.46882 0.24566 0.0486 0.0
C1089 C 0.48651 0.24165 0.06753 0.0
C1090 C 0.47567 0.20117 0.02049 0.0
C1091 C 0.49943 0.21792 0.06143 0.0
C1092 C 0.47746 0.15138 0.99693 0.0
C1093 C 0.43675 0.1548 0.96427 0.0
N1094 N 0.49356 0.1985 0.03863 0.0
N1095 N 0.4478 0.17803 0.98164 0.0
H1096 H 0.26155 0.30849 0.78655 0.0
H1097 H 0.30325 0.46309 0.75592 0.0
H1098 H 0.21613 0.34123 0.73275 0.0
H1099 H 0.30231 0.44524 0.83716 0.0
H1100 H 0.28081 0.415 0.73991 0.0
H1101 H 0.2879 0.35534 0.7976 0.0
C1102 C 0.25791 0.32536 0.77632 0.0
C1103 C 0.23731 0.32117 0.75826 0.0
C1104 C 0.28556 0.42177 0.76121 0.0
C1105 C 0.26666 0.37426 0.77086 0.0
C1106 C 0.29822 0.44907 0.77034 0.0
C1107 C 0.30434 0.45809 0.79791 0.0
C1108 C 0.27986 0.40325 0.77966 0.0
C1109 C 0.2976 0.43916 0.81581 0.0
C1110 C 0.27257 0.35198 0.78283 0.0
C1111 C 0.23246 0.34368 0.7461 0.0
N1112 N 0.28595 0.41246 0.80631 0.0
N1113 N 0.24709 0.36942 0.75258 0.0
H1114 H 0.26991 0.72292 0.78851 0.0
H1115 H 0.27672 0.59787 0.8715 0.0
H1116 H 0.20798 0.69227 0.83792 0.0
H1117 H 0.32881 0.61452 0.80662 0.0
H1118 H 0.25448 0.63685 0.86435 0.0
H1119 H 0.29495 0.68762 0.7997 0.0
C1120 C 0.2617 0.7087 0.80176 0.0
C1121 C 0.23692 0.71019 0.81219 0.0
C1122 C 0.27084 0.63203 0.85176 0.0
C1123 C 0.2653 0.67014 0.82536 0.0
C1124 C 0.2836 0.60984 0.85586 0.0
C1125 C 0.30458 0.60283 0.83952 0.0
C1126 C 0.27923 0.64747 0.8313 0.0
C1127 C 0.31263 0.61908 0.81959 0.0
C1128 C 0.27593 0.68867 0.80821 0.0
C1129 C 0.22714 0.6918 0.82969 0.0
N1130 N 0.29993 0.64062 0.81601 0.0
N1131 N 0.24134 0.67243 0.83569 0.0
H1132 H 0.92109 0.52701 0.49216 0.0
H1133 H 0.76919 0.49953 0.51439 0.0
H1134 H 0.86774 0.57266 0.46087 0.0
H1135 H 0.82131 0.44679 0.53746 0.0
H1136 H 0.80559 0.52943 0.49876 0.0
H1137 H 0.88516 0.49922 0.51172 0.0
C1138 C 0.90167 0.53081 0.48919 0.0
C1139 C 0.89707 0.55174 0.47476 0.0
C1140 C 0.80909 0.51141 0.50739 0.0
C1141 C 0.85612 0.52079 0.49741 0.0
C1142 C 0.78832 0.49438 0.51647 0.0
C1143 C 0.79217 0.47043 0.52704 0.0
C1144 C 0.83393 0.50448 0.50887 0.0
C1145 C 0.81742 0.46495 0.52933 0.0
C1146 C 0.88125 0.51522 0.5005 0.0
C1147 C 0.8718 0.55653 0.47184 0.0
N1148 N 0.83735 0.48175 0.52011 0.0
N1149 N 0.8522 0.54117 0.48312 0.0
H1150 H 0.7765 0.87606 0.86199 0.0
H1151 H 0.66981 0.93958 0.78983 0.0
H1152 H 0.74581 0.83862 0.78284 0.0
H1153 H 0.69849 0.97314 0.87085 0.0
H1154 H 0.69564 0.90104 0.78736 0.0
H1155 H 0.74641 0.91062 0.86619 0.0
C1156 C 0.76316 0.87505 0.84563 0.0
C1157 C 0.76343 0.85457 0.82211 0.0
C1158 C 0.69612 0.91674 0.80574 0.0
C1159 C 0.72923 0.89415 0.82642 0.0
C1160 C 0.68133 0.9387 0.80719 0.0
C1161 C 0.6821 0.95971 0.83053 0.0
C1162 C 0.71181 0.91586 0.82776 0.0
C1163 C 0.69738 0.95751 0.85239 0.0
C1164 C 0.74607 0.89479 0.84792 0.0
C1165 C 0.74614 0.85429 0.80121 0.0
N1166 N 0.71171 0.93612 0.8504 0.0
N1167 N 0.72975 0.87388 0.80379 0.0
H1168 H 0.58891 0.55027 0.04342 0.0
H1169 H 0.72557 0.5631 0.96923 0.0
H1170 H 0.60518 0.49643 0.96892 0.0
H1171 H 0.70203 0.62798 0.03174 0.0
H1172 H 0.68448 0.53355 0.97384 0.0
H1173 H 0.63383 0.57317 0.04544 0.0
C1174 C 0.6023 0.54273 0.02802 0.0
C1175 C 0.59369 0.5216 0.00603 0.0
C1176 C 0.68838 0.55423 0.98659 0.0
C1177 C 0.64452 0.54784 0.00761 0.0
C1178 C 0.71179 0.57116 0.98391 0.0
C1179 C 0.71718 0.59821 -8e-05 0.0
C1180 C 0.6703 0.5643 0.00558 0.0
C1181 C 0.69862 0.60742 0.01875 0.0
C1182 C 0.62774 0.55596 0.02891 0.0
C1183 C 0.61139 0.51269 0.98619 0.0
N1184 N 0.67603 0.59052 0.02103 0.0
N1185 N 0.63597 0.52606 0.98726 0.0
H1186 H 0.27811 0.73024 0.31131 0.0
H1187 H 0.20661 0.57916 0.24582 0.0
H1188 H 0.2839 0.69356 0.22703 0.0
H1189 H 0.21602 0.60509 0.33235 0.0
H1190 H 0.23754 0.61973 0.23909 0.0
H1191 H 0.25825 0.68378 0.32058 0.0
C1192 C 0.2755 0.71219 0.29492 0.0
C1193 C 0.28206 0.71549 0.26836 0.0
C1194 C 0.23318 0.61643 0.25959 0.0
C1195 C 0.25938 0.66282 0.27847 0.0
C1196 C 0.21546 0.59327 0.26342 0.0
C1197 C 0.20859 0.58895 0.28968 0.0
C1198 C 0.24375 0.63582 0.28218 0.0
C1199 C 0.2208 0.60773 0.31176 0.0
C1200 C 0.26421 0.68579 0.30012 0.0
C1201 C 0.27851 0.69173 0.24766 0.0
N1202 N 0.2375 0.63069 0.30754 0.0
N1203 N 0.2671 0.66646 0.25307 0.0
H1204 H 0.88818 0.48348 0.07772 0.0
H1205 H 0.86503 0.62959 0.04141 0.0
H1206 H 0.95305 0.54718 0.0714 0.0
H1207 H 0.82934 0.55021 0.99535 0.0
H1208 H 0.89259 0.60349 0.06377 0.0
H1209 H 0.86056 0.51194 0.05884 0.0
C1210 C 0.89652 0.50355 0.07254 0.0
C1211 C 0.9229 0.51292 0.07586 0.0
C1212 C 0.87867 0.59197 0.04875 0.0
C1213 C 0.8915 0.54581 0.05528 0.0
C1214 C 0.86301 0.60674 0.03607 0.0
C1215 C 0.84512 0.59197 0.0164 0.0
C1216 C 0.87565 0.56232 0.04229 0.0
C1217 C 0.84312 0.56237 0.01019 0.0
C1218 C 0.88082 0.51973 0.06191 0.0
C1219 C 0.93275 0.53939 0.06943 0.0
N1220 N 0.85801 0.54847 0.02332 0.0
N1221 N 0.91701 0.55502 0.05946 0.0
H1222 H 0.03567 0.01816 0.09327 0.0
H1223 H 0.1588 0.97998 0.00889 0.0
H1224 H 0.09066 0.08371 0.06907 0.0
H1225 H 0.13283 0.93956 0.07647 0.0
H1226 H 0.12747 0.01299 0.02101 0.0
H1227 H 0.06472 0.98355 0.07698 0.0
C1228 C 0.0539 0.02521 0.08451 0.0
C1229 C 0.06126 0.05389 0.08324 0.0
C1230 C 0.12859 0.99676 0.03301 0.0
C1231 C 0.09391 0.0144 0.06362 0.0
C1232 C 0.14629 0.97784 0.02608 0.0
C1233 C 0.14836 0.95703 0.04175 0.0
C1234 C 0.11241 0.99433 0.0553 0.0
C1235 C 0.13187 0.95536 0.06395 0.0
C1236 C 0.07034 0.00549 0.07514 0.0
C1237 C 0.0845 0.0618 0.07056 0.0
N1238 N 0.1144 0.97367 0.06997 0.0
N1239 N 0.10013 0.04212 0.06125 0.0
loop_
_geom_bond_atom_site_label_1
_geom_bond_atom_site_label_2
_geom_bond_distance
_geom_bond_site_symmetry_2
_ccdc_geom_bond_type
C0 N1 1.317 . S
C0 N2 1.348 . S
C0 C3 1.485 . S
N1 C0 1.317 . S
N1 N5 1.370 . S
N2 C0 1.348 . S
N2 C4 1.346 . S
C3 C0 1.485 . S
C3 H7 0.960 . S
C3 H8 0.961 . S
C3 H9 0.960 . S
C4 N2 1.346 . S
C4 N5 1.307 . S
C4 C6 1.486 . S
N5 N1 1.370 . S
N5 C4 1.307 . S
C6 C4 1.486 . S
C6 H10 0.960 . S
C6 H11 0.960 . S
C6 H12 0.959 . S
H7 C3 0.960 . S
H8 C3 0.961 . S
H9 C3 0.960 . S
H10 C6 0.960 . S
H11 C6 0.960 . S
H12 C6 0.959 . S
C13 N14 1.317 . S
C13 N15 1.348 . S
C13 C16 1.485 . S
N14 C13 1.317 . S
N14 N18 1.370 . S
N15 C13 1.348 . S
N15 C17 1.346 . S
C16 C13 1.485 . S
C16 H20 0.960 . S
C16 H21 0.961 . S
C16 H22 0.960 . S
C17 N15 1.346 . S
C17 N18 1.307 . S
C17 C19 1.486 . S
N18 N14 1.370 . S
N18 C17 1.307 . S
C19 C17 1.486 . S
C19 H23 0.960 . S
C19 H24 0.960 . S
C19 H25 0.959 . S
H20 C16 0.960 . S
H21 C16 0.961 . S
H22 C16 0.960 . S
H23 C19 0.960 . S
H24 C19 0.960 . S
H25 C19 0.959 . S
C26 N27 1.317 . S
C26 N28 1.348 . S
C26 C29 1.485 . S
N27 C26 1.317 . S
N27 N31 1.370 . S
N28 C26 1.348 . S
N28 C30 1.346 . S
C29 C26 1.485 . S
C29 H33 0.960 . S
C29 H34 0.961 . S
C29 H35 0.960 . S
C30 N28 1.346 . S
C30 N31 1.307 . S
C30 C32 1.486 . S
N31 N27 1.370 . S
N31 C30 1.307 . S
C32 C30 1.486 . S
C32 H36 0.960 . S
C32 H37 0.960 . S
C32 H38 0.959 . S
H33 C29 0.960 . S
H34 C29 0.961 . S
H35 C29 0.960 . S
H36 C32 0.960 . S
H37 C32 0.960 . S
H38 C32 0.959 . S
C39 N40 1.317 . S
C39 N41 1.348 . S
C39 C42 1.485 . S
N40 C39 1.317 . S
N40 N44 1.370 . S
N41 C39 1.348 . S
N41 C43 1.346 . S
C42 C39 1.485 . S
C42 H46 0.960 . S
C42 H47 0.961 . S
C42 H48 0.960 . S
C43 N41 1.346 . S
C43 N44 1.307 . S
C43 C45 1.486 . S
N44 N40 1.370 . S
N44 C43 1.307 . S
C45 C43 1.486 . S
C45 H49 0.960 . S
C45 H50 0.960 . S
C45 H51 0.959 . S
H46 C42 0.960 . S
H47 C42 0.961 . S
H48 C42 0.960 . S
H49 C45 0.960 . S
H50 C45 0.960 . S
H51 C45 0.959 . S
C52 N53 1.317 . S
C52 N54 1.348 . S
C52 C55 1.485 . S
N53 C52 1.317 . S
N53 N57 1.370 . S
N54 C52 1.348 . S
N54 C56 1.346 . S
C55 C52 1.485 . S
C55 H59 0.960 . S
C55 H60 0.961 . S
C55 H61 0.960 . S
C56 N54 1.346 . S
C56 N57 1.307 . S
C56 C58 1.508 . S
N57 N53 1.370 . S
N57 C56 1.307 . S
C58 C56 1.508 . S
C58 H62 0.936 1_565 S
C58 H63 0.962 . S
C58 H64 0.959 1_565 S
H59 C55 0.960 . S
H60 C55 0.961 . S
H61 C55 0.960 . S
H62 C58 0.936 1_545 S
H63 C58 0.962 . S
H64 C58 0.959 1_545 S
C65 N66 1.317 . S
C65 N67 1.348 . S
C65 C68 1.485 . S
N66 C65 1.317 . S
N66 N70 1.370 . S
N67 C65 1.348 . S
N67 C69 1.346 . S
C68 C65 1.485 . S
C68 H72 0.960 . S
C68 H73 0.961 . S
C68 H74 0.960 . S
C69 N67 1.346 . S
C69 N70 1.307 . S
C69 C71 1.486 . S
N70 N66 1.370 . S
N70 C69 1.307 . S
C71 C69 1.486 . S
C71 H75 0.960 . S
C71 H76 0.960 . S
C71 H77 0.959 . S
H72 C68 0.960 . S
H73 C68 0.961 . S
H74 C68 0.960 . S
H75 C71 0.960 . S
H76 C71 0.960 . S
H77 C71 0.959 . S
C78 N79 1.317 . S
C78 N80 1.348 . S
C78 C81 1.485 . S
N79 C78 1.317 . S
N79 N83 1.370 . S
N80 C78 1.348 . S
N80 C82 1.346 . S
C81 C78 1.485 . S
C81 H85 0.960 . S
C81 H86 0.961 . S
C81 H87 0.960 . S
C82 N80 1.346 . S
C82 N83 1.307 . S
C82 C84 1.486 . S
N83 N79 1.370 . S
N83 C82 1.307 . S
C84 C82 1.486 . S
C84 H88 0.960 . S
C84 H89 0.960 . S
C84 H90 0.959 . S
H85 C81 0.960 . S
H86 C81 0.961 . S
H87 C81 0.960 . S
H88 C84 0.960 . S
H89 C84 0.960 . S
H90 C84 0.959 . S
C91 N92 1.317 . S
C91 N93 1.348 . S
C91 C94 1.485 . S
N92 C91 1.317 . S
N92 N96 1.370 . S
N93 C91 1.348 . S
N93 C95 1.346 . S
C94 C91 1.485 . S
C94 H98 0.960 . S
C94 H99 0.961 . S
C94 H100 0.960 . S
C95 N93 1.346 . S
C95 N96 1.307 . S
C95 C97 1.486 . S
N96 N92 1.370 . S
N96 C95 1.307 . S
C97 C95 1.486 . S
C97 H101 0.960 . S
C97 H102 0.960 . S
C97 H103 0.959 . S
H98 C94 0.960 . S
H99 C94 0.961 . S
H100 C94 0.960 . S
H101 C97 0.960 . S
H102 C97 0.960 . S
H103 C97 0.959 . S
C104 N105 1.317 . S
C104 N106 1.348 . S
C104 C107 1.485 . S
N105 C104 1.317 . S
N105 N109 1.370 . S
N106 C104 1.348 . S
N106 C108 1.346 . S
C107 C104 1.485 . S
C107 H111 0.960 . S
C107 H112 0.961 . S
C107 H113 0.960 . S
C108 N106 1.346 . S
C108 N109 1.307 . S
C108 C110 1.486 . S
N109 N105 1.370 . S
N109 C108 1.307 . S
C110 C108 1.486 . S
C110 H114 0.960 . S
C110 H115 0.960 . S
C110 H116 0.959 . S
H111 C107 0.960 . S
H112 C107 0.961 . S
H113 C107 0.960 . S
H114 C110 0.960 . S
H115 C110 0.960 . S
H116 C110 0.959 . S
C117 N118 1.317 . S
C117 N119 1.348 . S
C117 C120 1.485 . S
N118 C117 1.317 . S
N118 N122 1.370 . S
N119 C117 1.348 . S
N119 C121 1.346 . S
C120 C117 1.485 . S
C120 H124 0.960 . S
C120 H125 0.961 . S
C120 H126 0.960 . S
C121 N119 1.346 . S
C121 N122 1.307 . S
C121 C123 1.486 . S
N122 N118 1.370 . S
N122 C121 1.307 . S
C123 C121 1.486 . S
C123 H127 0.960 . S
C123 H128 0.960 . S
C123 H129 0.959 . S
H124 C120 0.960 . S
H125 C120 0.961 . S
H126 C120 0.960 . S
H127 C123 0.960 . S
H128 C123 0.960 . S
H129 C123 0.959 . S
C130 N131 1.317 . S
C130 N132 1.348 . S
C130 C133 1.485 . S
N131 C130 1.317 . S
N131 N135 1.370 . S
N132 C130 1.348 . S
N132 C134 1.346 . S
C133 C130 1.485 . S
C133 H137 0.960 . S
C133 H138 0.961 . S
C133 H139 0.960 . S
C134 N132 1.346 . S
C134 N135 1.307 . S
C134 C136 1.486 . S
N135 N131 1.370 . S
N135 C134 1.307 . S
C136 C134 1.486 . S
C136 H140 0.960 . S
C136 H141 0.960 . S
C136 H142 0.959 . S
H137 C133 0.960 . S
H138 C133 0.961 . S
H139 C133 0.960 . S
H140 C136 0.960 . S
H141 C136 0.960 . S
H142 C136 0.959 . S
C143 N144 1.317 . S
C143 N145 1.348 . S
C143 C146 1.485 . S
N144 C143 1.317 . S
N144 N148 1.370 . S
N145 C143 1.348 . S
N145 C147 1.346 . S
C146 C143 1.485 . S
C146 H150 0.960 . S
C146 H151 0.961 . S
C146 H152 0.960 . S
C147 N145 1.346 . S
C147 N148 1.307 . S
C147 C149 1.486 . S
N148 N144 1.370 . S
N148 C147 1.307 . S
C149 C147 1.486 . S
C149 H153 0.960 . S
C149 H154 0.960 . S
C149 H155 0.959 . S
H150 C146 0.960 . S
H151 C146 0.961 . S
H152 C146 0.960 . S
H153 C149 0.960 . S
H154 C149 0.960 . S
H155 C149 0.959 . S
C156 N157 1.317 . S
C156 N158 1.348 . S
C156 C159 1.485 . S
N157 C156 1.317 . S
N157 N161 1.370 . S
N158 C156 1.348 . S
N158 C160 1.346 . S
C159 C156 1.485 . S
C159 H163 0.960 . S
C159 H164 0.961 . S
C159 H165 0.960 . S
C160 N158 1.346 . S
C160 N161 1.307 . S
C160 C162 1.486 . S
N161 N157 1.370 . S
N161 C160 1.307 . S
C162 C160 1.486 . S
C162 H166 0.960 . S
C162 H167 0.960 . S
C162 H168 0.959 . S
H163 C159 0.960 . S
H164 C159 0.961 . S
H165 C159 0.960 . S
H166 C162 0.960 . S
H167 C162 0.960 . S
H168 C162 0.959 . S
C169 N170 1.317 . S
C169 N171 1.348 . S
C169 C172 1.485 . S
N170 C169 1.317 . S
N170 N174 1.370 . S
N171 C169 1.348 . S
N171 C173 1.346 . S
C172 C169 1.485 . S
C172 H176 0.960 . S
C172 H177 0.961 . S
C172 H178 0.960 . S
C173 N171 1.346 . S
C173 N174 1.307 . S
C173 C175 1.486 . S
N174 N170 1.370 . S
N174 C173 1.307 . S
C175 C173 1.486 . S
C175 H179 0.960 . S
C175 H180 0.960 . S
C175 H181 0.959 . S
H176 C172 0.960 . S
H177 C172 0.961 . S
H178 C172 0.960 . S
H179 C175 0.960 . S
H180 C175 0.960 . S
H181 C175 0.959 . S
C182 N183 1.317 . S
C182 N184 1.348 . S
C182 C185 1.485 . S
N183 C182 1.317 . S
N183 N187 1.370 . S
N184 C182 1.348 . S
N184 C186 1.346 . S
C185 C182 1.485 . S
C185 H189 0.960 . S
C185 H190 0.961 . S
C185 H191 0.960 . S
C186 N184 1.346 . S
C186 N187 1.307 . S
C186 C188 1.486 . S
N187 N183 1.370 . S
N187 C186 1.307 . S
C188 C186 1.486 . S
C188 H192 0.960 . S
C188 H193 0.960 . S
C188 H194 0.959 . S
H189 C185 0.960 . S
H190 C185 0.961 . S
H191 C185 0.960 . S
H192 C188 0.960 . S
H193 C188 0.960 . S
H194 C188 0.959 . S
C195 N196 1.317 . S
C195 N197 1.348 . S
C195 C198 1.485 . S
N196 C195 1.317 . S
N196 N200 1.370 . S
N197 C195 1.348 . S
N197 C199 1.346 . S
C198 C195 1.485 . S
C198 H202 0.960 . S
C198 H203 0.961 . S
C198 H204 0.960 . S
C199 N197 1.346 . S
C199 N200 1.307 . S
C199 C201 1.486 . S
N200 N196 1.370 . S
N200 C199 1.307 . S
C201 C199 1.486 . S
C201 H205 0.960 1_556 S
C201 H206 0.960 . S
C201 H207 0.959 . S
H202 C198 0.960 . S
H203 C198 0.961 . S
H204 C198 0.960 . S
H205 C201 0.960 1_554 S
H206 C201 0.960 . S
H207 C201 0.959 . S
O208 Cd209 2.223 . S
O208 C216 1.315 . S
Cd209 O208 2.223 . S
Cd209 O212 2.297 . S
Cd209 O213 2.439 . S
Cd209 O219 2.240 . S
Cd210 O211 2.240 . S
Cd210 O218 2.223 . S
Cd210 O220 2.297 . S
Cd210 O221 2.439 . S
O211 Cd210 2.240 . S
O211 C216 1.279 . S
O212 Cd209 2.297 . S
O212 C214 1.247 . S
O213 Cd209 2.439 . S
O213 C214 1.208 . S
C214 O212 1.247 . S
C214 O213 1.208 . S
C215 O220 1.247 . S
C215 O221 1.208 . S
C216 O208 1.315 . S
C216 O211 1.279 . S
C217 O218 1.315 . S
C217 O219 1.279 . S
O218 Cd210 2.223 . S
O218 C217 1.315 . S
O219 Cd209 2.240 . S
O219 C217 1.279 . S
O220 Cd210 2.297 . S
O220 C215 1.247 . S
O221 Cd210 2.439 . S
O221 C215 1.208 . S
O222 Cd223 2.223 . S
O222 C230 1.315 . S
Cd223 O222 2.223 . S
Cd223 O226 2.297 . S
Cd223 O227 2.439 . S
Cd223 O233 2.240 . S
Cd224 O225 2.240 . S
Cd224 O232 2.223 . S
Cd224 O234 2.297 . S
Cd224 O235 2.439 . S
O225 Cd224 2.240 . S
O225 C230 1.279 . S
O226 Cd223 2.297 . S
O226 C228 1.247 . S
O227 Cd223 2.439 . S
O227 C228 1.208 . S
C228 O226 1.247 . S
C228 O227 1.208 . S
C229 O234 1.247 . S
C229 O235 1.208 . S
C230 O222 1.315 . S
C230 O225 1.279 . S
C231 O232 1.315 . S
C231 O233 1.279 . S
O232 Cd224 2.223 . S
O232 C231 1.315 . S
O233 Cd223 2.240 . S
O233 C231 1.279 . S
O234 Cd224 2.297 . S
O234 C229 1.247 . S
O235 Cd224 2.439 . S
O235 C229 1.208 . S
O236 Cd237 2.223 1_556 S
O236 C244 1.315 . S
Cd237 O236 2.223 1_554 S
Cd237 O240 2.297 . S
Cd237 O241 2.439 . S
Cd237 O247 2.240 . S
Cd238 O239 2.240 . S
Cd238 O246 2.223 . S
Cd238 O248 2.297 . S
Cd238 O249 2.439 1_556 S
O239 Cd238 2.240 . S
O239 C244 1.279 . S
O240 Cd237 2.297 . S
O240 C242 1.247 . S
O241 Cd237 2.439 . S
O241 C242 1.208 . S
C242 O240 1.247 . S
C242 O241 1.208 . S
C243 O248 1.247 1_554 S
C243 O249 1.208 . S
C244 O236 1.315 . S
C244 O239 1.279 . S
C245 O246 1.315 . S
C245 O247 1.279 1_556 S
O246 Cd238 2.223 . S
O246 C245 1.315 . S
O247 Cd237 2.240 . S
O247 C245 1.279 1_554 S
O248 Cd238 2.297 . S
O248 C243 1.247 1_556 S
O249 Cd238 2.439 1_554 S
O249 C243 1.208 . S
O250 Cd251 2.223 . S
O250 C258 1.315 . S
Cd251 O250 2.223 . S
Cd251 O254 2.297 . S
Cd251 O255 2.439 . S
Cd251 O261 2.240 . S
Cd252 O253 2.240 . S
Cd252 O260 2.223 . S
Cd252 O262 2.297 . S
Cd252 O263 2.439 . S
O253 Cd252 2.240 . S
O253 C258 1.279 . S
O254 Cd251 2.297 . S
O254 C256 1.247 . S
O255 Cd251 2.439 . S
O255 C256 1.208 . S
C256 O254 1.247 . S
C256 O255 1.208 . S
C257 O262 1.247 . S
C257 O263 1.208 . S
C258 O250 1.315 . S
C258 O253 1.279 . S
C259 O260 1.315 . S
C259 O261 1.279 . S
O260 Cd252 2.223 . S
O260 C259 1.315 . S
O261 Cd251 2.240 . S
O261 C259 1.279 . S
O262 Cd252 2.297 . S
O262 C257 1.247 . S
O263 Cd252 2.439 . S
O263 C257 1.208 . S
O264 Cd265 2.223 . S
O264 C272 1.315 . S
Cd265 O264 2.223 . S
Cd265 O268 2.297 . S
Cd265 O269 2.439 . S
Cd265 O275 2.240 . S
Cd266 O267 2.240 . S
Cd266 O274 2.223 . S
Cd266 O276 2.297 . S
Cd266 O277 2.439 . S
O267 Cd266 2.240 . S
O267 C272 1.279 . S
O268 Cd265 2.297 . S
O268 C270 1.247 . S
O269 Cd265 2.439 . S
O269 C270 1.208 . S
C270 O268 1.247 . S
C270 O269 1.208 . S
C271 O276 1.247 . S
C271 O277 1.208 . S
C272 O264 1.315 . S
C272 O267 1.279 . S
C273 O274 1.315 . S
C273 O275 1.279 . S
O274 Cd266 2.223 . S
O274 C273 1.315 . S
O275 Cd265 2.240 . S
O275 C273 1.279 . S
O276 Cd266 2.297 . S
O276 C271 1.247 . S
O277 Cd266 2.439 . S
O277 C271 1.208 . S
O278 Cd279 2.223 . S
O278 C286 1.315 . S
Cd279 O278 2.223 . S
Cd279 O282 2.297 . S
Cd279 O283 2.439 . S
Cd279 O289 2.240 . S
Cd280 O281 2.240 . S
Cd280 O288 2.223 . S
Cd280 O290 2.297 . S
Cd280 O291 2.439 . S
O281 Cd280 2.240 . S
O281 C286 1.279 . S
O282 Cd279 2.297 . S
O282 C284 1.247 . S
O283 Cd279 2.439 . S
O283 C284 1.208 . S
C284 O282 1.247 . S
C284 O283 1.208 . S
C285 O290 1.247 . S
C285 O291 1.208 . S
C286 O278 1.315 . S
C286 O281 1.279 . S
C287 O288 1.315 . S
C287 O289 1.279 . S
O288 Cd280 2.223 . S
O288 C287 1.315 . S
O289 Cd279 2.240 . S
O289 C287 1.279 . S
O290 Cd280 2.297 . S
O290 C285 1.247 . S
O291 Cd280 2.439 . S
O291 C285 1.208 . S
O292 Cd293 2.223 . S
O292 C300 1.315 . S
Cd293 O292 2.223 . S
Cd293 O296 2.297 . S
Cd293 O297 2.439 . S
Cd293 O303 2.240 . S
Cd294 O295 2.240 . S
Cd294 O302 2.223 . S
Cd294 O304 2.297 . S
Cd294 O305 2.439 . S
O295 Cd294 2.240 . S
O295 C300 1.279 . S
O296 Cd293 2.297 . S
O296 C298 1.247 . S
O297 Cd293 2.439 . S
O297 C298 1.208 . S
C298 O296 1.247 . S
C298 O297 1.208 . S
C299 O304 1.247 . S
C299 O305 1.208 . S
C300 O292 1.315 . S
C300 O295 1.279 . S
C301 O302 1.315 . S
C301 O303 1.279 . S
O302 Cd294 2.223 . S
O302 C301 1.315 . S
O303 Cd293 2.240 . S
O303 C301 1.279 . S
O304 Cd294 2.297 . S
O304 C299 1.247 . S
O305 Cd294 2.439 . S
O305 C299 1.208 . S
O306 Cd307 2.223 1_545 S
O306 C314 1.315 . S
Cd307 O306 2.223 1_565 S
Cd307 O310 2.297 . S
Cd307 O311 2.439 . S
Cd307 O317 2.240 1_565 S
Cd308 O309 2.240 . S
Cd308 O316 2.223 . S
Cd308 O318 2.297 . S
Cd308 O319 2.439 1_545 S
O309 Cd308 2.240 . S
O309 C314 1.279 . S
O310 Cd307 2.297 . S
O310 C312 1.247 . S
O311 Cd307 2.439 . S
O311 C312 1.208 . S
C312 O310 1.247 . S
C312 O311 1.208 . S
C313 O318 1.247 1_565 S
C313 O319 1.208 . S
C314 O306 1.315 . S
C314 O309 1.279 . S
C315 O316 1.315 . S
C315 O317 1.279 . S
O316 Cd308 2.223 . S
O316 C315 1.315 . S
O317 Cd307 2.240 1_545 S
O317 C315 1.279 . S
O318 Cd308 2.297 . S
O318 C313 1.247 1_545 S
O319 Cd308 2.439 1_565 S
O319 C313 1.208 . S
O320 Cd321 2.223 . S
O320 C328 1.315 . S
Cd321 O320 2.223 . S
Cd321 O324 2.297 . S
Cd321 O325 2.439 1_655 S
Cd321 O331 2.240 . S
Cd322 O323 2.240 1_455 S
Cd322 O330 2.223 1_455 S
Cd322 O332 2.297 . S
Cd322 O333 2.439 . S
O323 Cd322 2.240 1_655 S
O323 C328 1.279 . S
O324 Cd321 2.297 . S
O324 C326 1.247 1_655 S
O325 Cd321 2.439 1_455 S
O325 C326 1.208 . S
C326 O324 1.247 1_455 S
C326 O325 1.208 . S
C327 O332 1.247 . S
C327 O333 1.208 . S
C328 O320 1.315 . S
C328 O323 1.279 . S
C329 O330 1.315 . S
C329 O331 1.279 . S
O330 Cd322 2.223 1_655 S
O330 C329 1.315 . S
O331 Cd321 2.240 . S
O331 C329 1.279 . S
O332 Cd322 2.297 . S
O332 C327 1.247 . S
O333 Cd322 2.439 . S
O333 C327 1.208 . S
O334 Cd335 2.223 . S
O334 C342 1.315 . S
Cd335 O334 2.223 . S
Cd335 O338 2.297 . S
Cd335 O339 2.439 . S
Cd335 O345 2.240 . S
Cd336 O337 2.240 . S
Cd336 O344 2.223 . S
Cd336 O346 2.297 . S
Cd336 O347 2.439 . S
O337 Cd336 2.240 . S
O337 C342 1.279 . S
O338 Cd335 2.297 . S
O338 C340 1.247 . S
O339 Cd335 2.439 . S
O339 C340 1.208 . S
C340 O338 1.247 . S
C340 O339 1.208 . S
C341 O346 1.247 . S
C341 O347 1.208 . S
C342 O334 1.315 . S
C342 O337 1.279 . S
C343 O344 1.315 . S
C343 O345 1.279 . S
O344 Cd336 2.223 . S
O344 C343 1.315 . S
O345 Cd335 2.240 . S
O345 C343 1.279 . S
O346 Cd336 2.297 . S
O346 C341 1.247 . S
O347 Cd336 2.439 . S
O347 C341 1.208 . S
O348 Cd349 2.223 1_655 S
O348 C356 1.315 . S
Cd349 O348 2.223 1_455 S
Cd349 O352 2.297 . S
Cd349 O353 2.439 . S
Cd349 O359 2.240 . S
Cd350 O351 2.240 . S
Cd350 O358 2.223 1_455 S
Cd350 O360 2.297 . S
Cd350 O361 2.439 . S
O351 Cd350 2.240 . S
O351 C356 1.279 1_455 S
O352 Cd349 2.297 . S
O352 C354 1.247 . S
O353 Cd349 2.439 . S
O353 C354 1.208 . S
C354 O352 1.247 . S
C354 O353 1.208 . S
C355 O360 1.247 . S
C355 O361 1.208 . S
C356 O348 1.315 . S
C356 O351 1.279 1_655 S
C357 O358 1.315 . S
C357 O359 1.279 1_655 S
O358 Cd350 2.223 1_655 S
O358 C357 1.315 . S
O359 Cd349 2.240 . S
O359 C357 1.279 1_455 S
O360 Cd350 2.297 . S
O360 C355 1.247 . S
O361 Cd350 2.439 . S
O361 C355 1.208 . S
O362 Cd363 2.223 . S
O362 C370 1.315 . S
Cd363 O362 2.223 . S
Cd363 O366 2.297 . S
Cd363 O367 2.439 . S
Cd363 O373 2.240 . S
Cd364 O365 2.240 . S
Cd364 O372 2.223 . S
Cd364 O374 2.297 . S
Cd364 O375 2.439 . S
O365 Cd364 2.240 . S
O365 C370 1.279 . S
O366 Cd363 2.297 . S
O366 C368 1.247 . S
O367 Cd363 2.439 . S
O367 C368 1.208 . S
C368 O366 1.247 . S
C368 O367 1.208 . S
C369 O374 1.247 . S
C369 O375 1.208 . S
C370 O362 1.315 . S
C370 O365 1.279 . S
C371 O372 1.315 . S
C371 O373 1.279 . S
O372 Cd364 2.223 . S
O372 C371 1.315 . S
O373 Cd363 2.240 . S
O373 C371 1.279 . S
O374 Cd364 2.297 . S
O374 C369 1.247 . S
O375 Cd364 2.439 . S
O375 C369 1.208 . S
H376 C382 0.930 . S
H377 C386 0.930 . S
H378 C391 0.929 . S
H379 C389 0.929 1_554 S
H380 C384 0.929 . S
H381 C390 0.929 . S
C382 H376 0.930 . S
C382 C383 1.367 . S
C382 C390 1.378 . S
C383 C382 1.367 . S
C383 C391 1.433 . S
C384 H380 0.929 . S
C384 C386 1.378 . S
C384 C388 1.350 . S
C385 C388 1.463 . S
C385 C390 1.350 . S
C385 N393 1.427 . S
C386 H377 0.930 . S
C386 C384 1.378 . S
C386 C387 1.367 . S
C387 C386 1.367 . S
C387 C389 1.433 . S
C388 C384 1.350 . S
C388 C385 1.463 . S
C388 N392 1.427 . S
C389 H379 0.929 1_556 S
C389 C387 1.433 . S
C389 N392 1.384 . S
C390 H381 0.929 . S
C390 C382 1.378 . S
C390 C385 1.350 . S
C391 H378 0.929 . S
C391 C383 1.433 . S
C391 N393 1.384 . S
N392 C388 1.427 . S
N392 C389 1.384 . S
N393 C385 1.427 . S
N393 C391 1.384 . S
H394 C400 0.930 . S
H395 C404 0.930 . S
H396 C409 0.929 . S
H397 C407 0.929 . S
H398 C402 0.929 . S
H399 C408 0.929 1_455 S
C400 H394 0.930 . S
C400 C401 1.367 . S
C400 C408 1.378 . S
C401 C400 1.367 . S
C401 C409 1.433 . S
C402 H398 0.929 . S
C402 C404 1.378 . S
C402 C406 1.350 . S
C403 C406 1.463 1_655 S
C403 C408 1.350 . S
C403 N411 1.427 . S
C404 H395 0.930 . S
C404 C402 1.378 . S
C404 C405 1.367 . S
C405 C404 1.367 . S
C405 C407 1.433 . S
C406 C402 1.350 . S
C406 C403 1.463 1_455 S
C406 N410 1.427 . S
C407 H397 0.929 . S
C407 C405 1.433 . S
C407 N410 1.384 . S
C408 H399 0.929 1_655 S
C408 C400 1.378 . S
C408 C403 1.350 . S
C409 H396 0.929 . S
C409 C401 1.433 . S
C409 N411 1.384 . S
N410 C406 1.427 . S
N410 C407 1.384 . S
N411 C403 1.427 . S
N411 C409 1.384 . S
H412 C418 0.930 . S
H413 C422 0.930 . S
H414 C427 0.929 . S
H415 C425 0.929 . S
H416 C420 0.929 . S
H417 C426 0.929 . S
C418 H412 0.930 . S
C418 C419 1.367 . S
C418 C426 1.378 . S
C419 C418 1.367 . S
C419 C427 1.433 . S
C420 H416 0.929 . S
C420 C422 1.378 . S
C420 C424 1.350 . S
C421 C424 1.463 . S
C421 C426 1.350 . S
C421 N429 1.427 . S
C422 H413 0.930 . S
C422 C420 1.378 . S
C422 C423 1.367 . S
C423 C422 1.367 . S
C423 C425 1.433 . S
C424 C420 1.350 . S
C424 C421 1.463 . S
C424 N428 1.427 . S
C425 H415 0.929 . S
C425 C423 1.433 . S
C425 N428 1.384 . S
C426 H417 0.929 . S
C426 C418 1.378 . S
C426 C421 1.350 . S
C427 H414 0.929 . S
C427 C419 1.433 . S
C427 N429 1.384 . S
N428 C424 1.427 . S
N428 C425 1.384 . S
N429 C421 1.427 . S
N429 C427 1.384 . S
H430 C436 0.930 1_545 S
H431 C440 0.938 . S
H432 C445 0.929 . S
H433 C443 0.929 . S
H434 C438 0.929 . S
H435 C444 0.929 . S
C436 H430 0.930 1_565 S
C436 C437 1.367 . S
C436 C444 1.378 1_565 S
C437 C436 1.367 . S
C437 C445 1.433 . S
C438 H434 0.929 . S
C438 C440 1.389 . S
C438 C442 1.350 1_565 S
C439 C442 1.463 1_565 S
C439 C444 1.350 1_665 S
C439 N447 1.427 . S
C440 H431 0.938 . S
C440 C438 1.389 . S
C440 C441 1.348 1_565 S
C441 C440 1.348 1_545 S
C441 C443 1.433 . S
C442 C438 1.350 1_545 S
C442 C439 1.463 1_545 S
C442 N446 1.427 . S
C443 H433 0.929 . S
C443 C441 1.433 . S
C443 N446 1.384 . S
C444 H435 0.929 . S
C444 C436 1.378 1_545 S
C444 C439 1.350 1_445 S
C445 H432 0.929 . S
C445 C437 1.433 . S
C445 N447 1.384 1_455 S
N446 C442 1.427 . S
N446 C443 1.384 . S
N447 C439 1.427 . S
N447 C445 1.384 1_655 S
H448 C454 0.930 . S
H449 C458 0.930 . S
H450 C463 0.929 . S
H451 C461 0.929 . S
H452 C456 0.929 . S
H453 C462 0.929 . S
C454 H448 0.930 . S
C454 C455 1.367 . S
C454 C462 1.378 . S
C455 C454 1.367 . S
C455 C463 1.433 . S
C456 H452 0.929 . S
C456 C458 1.378 . S
C456 C460 1.350 . S
C457 C460 1.463 . S
C457 C462 1.350 . S
C457 N465 1.427 . S
C458 H449 0.930 . S
C458 C456 1.378 . S
C458 C459 1.367 . S
C459 C458 1.367 . S
C459 C461 1.433 . S
C460 C456 1.350 . S
C460 C457 1.463 . S
C460 N464 1.427 . S
C461 H451 0.929 . S
C461 C459 1.433 . S
C461 N464 1.384 . S
C462 H453 0.929 . S
C462 C454 1.378 . S
C462 C457 1.350 . S
C463 H450 0.929 . S
C463 C455 1.433 . S
C463 N465 1.384 . S
N464 C460 1.427 . S
N464 C461 1.384 . S
N465 C457 1.427 . S
N465 C463 1.384 . S
H466 C472 0.930 . S
H467 C476 0.930 . S
H468 C481 0.929 . S
H469 C479 0.929 . S
H470 C474 0.929 . S
H471 C480 0.929 . S
C472 H466 0.930 . S
C472 C473 1.367 . S
C472 C480 1.378 . S
C473 C472 1.367 . S
C473 C481 1.433 . S
C474 H470 0.929 . S
C474 C476 1.378 . S
C474 C478 1.350 . S
C475 C478 1.463 . S
C475 C480 1.350 . S
C475 N483 1.427 . S
C476 H467 0.930 . S
C476 C474 1.378 . S
C476 C477 1.367 . S
C477 C476 1.367 . S
C477 C479 1.433 . S
C478 C474 1.350 . S
C478 C475 1.463 . S
C478 N482 1.427 . S
C479 H469 0.929 . S
C479 C477 1.433 . S
C479 N482 1.384 . S
C480 H471 0.929 . S
C480 C472 1.378 . S
C480 C475 1.350 . S
C481 H468 0.929 . S
C481 C473 1.433 . S
C481 N483 1.384 . S
N482 C478 1.427 . S
N482 C479 1.384 . S
N483 C475 1.427 . S
N483 C481 1.384 . S
H484 C490 0.930 . S
H485 C494 0.930 . S
H486 C499 0.929 . S
H487 C497 0.929 . S
H488 C492 0.929 . S
H489 C498 0.929 . S
C490 H484 0.930 . S
C490 C491 1.367 . S
C490 C498 1.378 . S
C491 C490 1.367 . S
C491 C499 1.433 . S
C492 H488 0.929 . S
C492 C494 1.378 . S
C492 C496 1.350 . S
C493 C496 1.463 . S
C493 C498 1.350 . S
C493 N501 1.427 . S
C494 H485 0.930 . S
C494 C492 1.378 . S
C494 C495 1.367 . S
C495 C494 1.367 . S
C495 C497 1.433 . S
C496 C492 1.350 . S
C496 C493 1.463 . S
C496 N500 1.427 . S
C497 H487 0.929 . S
C497 C495 1.433 . S
C497 N500 1.384 . S
C498 H489 0.929 . S
C498 C490 1.378 . S
C498 C493 1.350 . S
C499 H486 0.929 . S
C499 C491 1.433 . S
C499 N501 1.384 . S
N500 C496 1.427 . S
N500 C497 1.384 . S
N501 C493 1.427 . S
N501 C499 1.384 . S
H502 C508 0.930 . S
H503 C512 0.930 . S
H504 C517 0.929 . S
H505 C515 0.929 . S
H506 C510 0.929 . S
H507 C516 0.929 . S
C508 H502 0.930 . S
C508 C509 1.367 . S
C508 C516 1.378 . S
C509 C508 1.367 . S
C509 C517 1.433 . S
C510 H506 0.929 . S
C510 C512 1.378 . S
C510 C514 1.350 . S
C511 C514 1.463 . S
C511 C516 1.350 . S
C511 N519 1.427 . S
C512 H503 0.930 . S
C512 C510 1.378 . S
C512 C513 1.367 . S
C513 C512 1.367 . S
C513 C515 1.433 . S
C514 C510 1.350 . S
C514 C511 1.463 . S
C514 N518 1.427 . S
C515 H505 0.929 . S
C515 C513 1.433 . S
C515 N518 1.384 . S
C516 H507 0.929 . S
C516 C508 1.378 . S
C516 C511 1.350 . S
C517 H504 0.929 . S
C517 C509 1.433 . S
C517 N519 1.384 . S
N518 C514 1.427 . S
N518 C515 1.384 . S
N519 C511 1.427 . S
N519 C517 1.384 . S
H520 C526 0.930 . S
H521 C530 0.930 . S
H522 C535 0.929 . S
H523 C533 0.929 . S
H524 C528 0.929 . S
H525 C534 0.929 . S
C526 H520 0.930 . S
C526 C527 1.367 . S
C526 C534 1.378 . S
C527 C526 1.367 . S
C527 C535 1.433 . S
C528 H524 0.929 . S
C528 C530 1.378 . S
C528 C532 1.350 . S
C529 C532 1.463 . S
C529 C534 1.350 . S
C529 N537 1.427 . S
C530 H521 0.930 . S
C530 C528 1.378 . S
C530 C531 1.367 . S
C531 C530 1.367 . S
C531 C533 1.433 . S
C532 C528 1.350 . S
C532 C529 1.463 . S
C532 N536 1.427 . S
C533 H523 0.929 . S
C533 C531 1.433 . S
C533 N536 1.384 . S
C534 H525 0.929 . S
C534 C526 1.378 . S
C534 C529 1.350 . S
C535 H522 0.929 . S
C535 C527 1.433 . S
C535 N537 1.384 . S
N536 C532 1.427 . S
N536 C533 1.384 . S
N537 C529 1.427 . S
N537 C535 1.384 . S
H538 C544 0.930 . S
H539 C548 0.930 . S
H540 C553 0.929 . S
H541 C551 0.929 . S
H542 C546 0.929 . S
H543 C552 0.929 . S
C544 H538 0.930 . S
C544 C545 1.367 . S
C544 C552 1.378 . S
C545 C544 1.367 . S
C545 C553 1.433 . S
C546 H542 0.929 . S
C546 C548 1.378 . S
C546 C550 1.350 . S
C547 C550 1.463 . S
C547 C552 1.350 . S
C547 N555 1.427 . S
C548 H539 0.930 . S
C548 C546 1.378 . S
C548 C549 1.367 . S
C549 C548 1.367 . S
C549 C551 1.433 . S
C550 C546 1.350 . S
C550 C547 1.463 . S
C550 N554 1.427 . S
C551 H541 0.929 . S
C551 C549 1.433 . S
C551 N554 1.384 . S
C552 H543 0.929 . S
C552 C544 1.378 . S
C552 C547 1.350 . S
C553 H540 0.929 . S
C553 C545 1.433 . S
C553 N555 1.384 . S
N554 C550 1.427 . S
N554 C551 1.384 . S
N555 C547 1.427 . S
N555 C553 1.384 . S
H556 C562 0.930 . S
H557 C566 0.930 . S
H558 C571 0.929 . S
H559 C569 0.929 . S
H560 C564 0.929 . S
H561 C570 0.929 . S
C562 H556 0.930 . S
C562 C563 1.367 . S
C562 C570 1.378 . S
C563 C562 1.367 . S
C563 C571 1.433 . S
C564 H560 0.929 . S
C564 C566 1.378 . S
C564 C568 1.350 . S
C565 C568 1.463 . S
C565 C570 1.350 . S
C565 N573 1.427 . S
C566 H557 0.930 . S
C566 C564 1.378 . S
C566 C567 1.367 . S
C567 C566 1.367 . S
C567 C569 1.433 . S
C568 C564 1.350 . S
C568 C565 1.463 . S
C568 N572 1.427 . S
C569 H559 0.929 . S
C569 C567 1.433 . S
C569 N572 1.384 . S
C570 H561 0.929 . S
C570 C562 1.378 . S
C570 C565 1.350 . S
C571 H558 0.929 . S
C571 C563 1.433 . S
C571 N573 1.384 . S
N572 C568 1.427 . S
N572 C569 1.384 . S
N573 C565 1.427 . S
N573 C571 1.384 . S
H574 C580 0.930 . S
H575 C584 0.930 . S
H576 C589 0.929 . S
H577 C587 0.929 . S
H578 C582 0.929 . S
H579 C588 0.929 . S
C580 H574 0.930 . S
C580 C581 1.367 . S
C580 C588 1.378 . S
C581 C580 1.367 . S
C581 C589 1.433 . S
C582 H578 0.929 . S
C582 C584 1.378 . S
C582 C586 1.350 . S
C583 C586 1.463 . S
C583 C588 1.350 . S
C583 N591 1.427 . S
C584 H575 0.930 . S
C584 C582 1.378 . S
C584 C585 1.367 . S
C585 C584 1.367 . S
C585 C587 1.433 . S
C586 C582 1.350 . S
C586 C583 1.463 . S
C586 N590 1.427 . S
C587 H577 0.929 . S
C587 C585 1.433 . S
C587 N590 1.384 . S
C588 H579 0.929 . S
C588 C580 1.378 . S
C588 C583 1.350 . S
C589 H576 0.929 . S
C589 C581 1.433 . S
C589 N591 1.384 . S
N590 C586 1.427 . S
N590 C587 1.384 . S
N591 C583 1.427 . S
N591 C589 1.384 . S
H592 C598 0.930 . S
H593 C602 0.930 . S
H594 C607 0.929 . S
H595 C605 0.929 . S
H596 C600 0.929 . S
H597 C606 0.929 . S
C598 H592 0.930 . S
C598 C599 1.367 . S
C598 C606 1.378 . S
C599 C598 1.367 . S
C599 C607 1.433 . S
C600 H596 0.929 . S
C600 C602 1.378 . S
C600 C604 1.350 . S
C601 C604 1.463 . S
C601 C606 1.350 . S
C601 N609 1.427 . S
C602 H593 0.930 . S
C602 C600 1.378 . S
C602 C603 1.367 . S
C603 C602 1.367 . S
C603 C605 1.433 . S
C604 C600 1.350 . S
C604 C601 1.463 . S
C604 N608 1.427 . S
C605 H595 0.929 . S
C605 C603 1.433 . S
C605 N608 1.384 . S
C606 H597 0.929 . S
C606 C598 1.378 . S
C606 C601 1.350 . S
C607 H594 0.929 . S
C607 C599 1.433 . S
C607 N609 1.384 . S
N608 C604 1.427 . S
N608 C605 1.384 . S
N609 C601 1.427 . S
N609 C607 1.384 . S
H610 C616 0.930 . S
H611 C620 0.930 . S
H612 C625 0.929 . S
H613 C623 0.929 . S
H614 C618 0.929 . S
H615 C624 0.929 . S
C616 H610 0.930 . S
C616 C617 1.367 . S
C616 C624 1.378 . S
C617 C616 1.367 . S
C617 C625 1.433 . S
C618 H614 0.929 . S
C618 C620 1.378 . S
C618 C622 1.350 . S
C619 C622 1.463 . S
C619 C624 1.350 . S
C619 N627 1.427 . S
C620 H611 0.930 . S
C620 C618 1.378 . S
C620 C621 1.367 . S
C621 C620 1.367 . S
C621 C623 1.433 . S
C622 C618 1.350 . S
C622 C619 1.463 . S
C622 N626 1.427 . S
C623 H613 0.929 . S
C623 C621 1.433 . S
C623 N626 1.384 . S
C624 H615 0.929 . S
C624 C616 1.378 . S
C624 C619 1.350 . S
C625 H612 0.929 . S
C625 C617 1.433 . S
C625 N627 1.384 . S
N626 C622 1.427 . S
N626 C623 1.384 . S
N627 C619 1.427 . S
N627 C625 1.384 . S
H628 C634 0.930 . S
H629 C638 0.930 . S
H630 C643 0.929 . S
H631 C641 0.929 . S
H632 C636 0.929 . S
H633 C642 0.929 . S
C634 H628 0.930 . S
C634 C635 1.367 . S
C634 C642 1.378 . S
C635 C634 1.367 . S
C635 C643 1.433 . S
C636 H632 0.929 . S
C636 C638 1.378 . S
C636 C640 1.350 . S
C637 C640 1.463 . S
C637 C642 1.350 . S
C637 N645 1.427 . S
C638 H629 0.930 . S
C638 C636 1.378 . S
C638 C639 1.367 . S
C639 C638 1.367 . S
C639 C641 1.433 . S
C640 C636 1.350 . S
C640 C637 1.463 . S
C640 N644 1.427 . S
C641 H631 0.929 . S
C641 C639 1.433 . S
C641 N644 1.384 . S
C642 H633 0.929 . S
C642 C634 1.378 . S
C642 C637 1.350 . S
C643 H630 0.929 . S
C643 C635 1.433 . S
C643 N645 1.384 . S
N644 C640 1.427 . S
N644 C641 1.384 . S
N645 C637 1.427 . S
N645 C643 1.384 . S
H646 C652 0.930 . S
H647 C656 0.930 . S
H648 C661 0.929 . S
H649 C659 0.929 . S
H650 C654 0.929 . S
H651 C660 0.929 . S
C652 H646 0.930 . S
C652 C653 1.367 . S
C652 C660 1.378 . S
C653 C652 1.367 . S
C653 C661 1.433 . S
C654 H650 0.929 . S
C654 C656 1.378 . S
C654 C658 1.350 . S
C655 C658 1.463 . S
C655 C660 1.350 . S
C655 N663 1.427 . S
C656 H647 0.930 . S
C656 C654 1.378 . S
C656 C657 1.367 . S
C657 C656 1.367 . S
C657 C659 1.433 . S
C658 C654 1.350 . S
C658 C655 1.463 . S
C658 N662 1.427 . S
C659 H649 0.929 . S
C659 C657 1.433 . S
C659 N662 1.384 . S
C660 H651 0.929 . S
C660 C652 1.378 . S
C660 C655 1.350 . S
C661 H648 0.929 . S
C661 C653 1.433 . S
C661 N663 1.384 . S
N662 C658 1.427 . S
N662 C659 1.384 . S
N663 C655 1.427 . S
N663 C661 1.384 . S
H664 C670 0.930 . S
H665 C674 0.930 . S
H666 C679 0.929 . S
H667 C677 0.929 . S
H668 C672 0.929 . S
H669 C678 0.929 . S
C670 H664 0.930 . S
C670 C671 1.367 . S
C670 C678 1.378 . S
C671 C670 1.367 . S
C671 C679 1.433 . S
C672 H668 0.929 . S
C672 C674 1.378 . S
C672 C676 1.350 . S
C673 C676 1.463 . S
C673 C678 1.350 . S
C673 N681 1.427 . S
C674 H665 0.930 . S
C674 C672 1.378 . S
C674 C675 1.367 . S
C675 C674 1.367 . S
C675 C677 1.433 . S
C676 C672 1.350 . S
C676 C673 1.463 . S
C676 N680 1.427 . S
C677 H667 0.929 . S
C677 C675 1.433 . S
C677 N680 1.384 . S
C678 H669 0.929 . S
C678 C670 1.378 . S
C678 C673 1.350 . S
C679 H666 0.929 . S
C679 C671 1.433 . S
C679 N681 1.384 . S
N680 C676 1.427 . S
N680 C677 1.384 . S
N681 C673 1.427 . S
N681 C679 1.384 . S
H682 C688 0.930 . S
H683 C692 0.930 . S
H684 C697 0.929 . S
H685 C695 0.929 . S
H686 C690 0.929 . S
H687 C696 0.929 . S
C688 H682 0.930 . S
C688 C689 1.367 . S
C688 C696 1.378 . S
C689 C688 1.367 . S
C689 C697 1.433 . S
C690 H686 0.929 . S
C690 C692 1.378 . S
C690 C694 1.350 . S
C691 C694 1.463 . S
C691 C696 1.350 . S
C691 N699 1.427 . S
C692 H683 0.930 . S
C692 C690 1.378 . S
C692 C693 1.367 . S
C693 C692 1.367 . S
C693 C695 1.433 . S
C694 C690 1.350 . S
C694 C691 1.463 . S
C694 N698 1.427 . S
C695 H685 0.929 . S
C695 C693 1.433 . S
C695 N698 1.384 . S
C696 H687 0.929 . S
C696 C688 1.378 . S
C696 C691 1.350 . S
C697 H684 0.929 . S
C697 C689 1.433 . S
C697 N699 1.384 . S
N698 C694 1.427 . S
N698 C695 1.384 . S
N699 C691 1.427 . S
N699 C697 1.384 . S
H700 C706 0.930 . S
H701 C710 0.930 . S
H702 C715 0.929 . S
H703 C713 0.929 . S
H704 C708 0.929 . S
H705 C714 0.929 . S
C706 H700 0.930 . S
C706 C707 1.367 . S
C706 C714 1.378 . S
C707 C706 1.367 . S
C707 C715 1.433 . S
C708 H704 0.929 . S
C708 C710 1.378 . S
C708 C712 1.352 1_564 S
C709 C712 1.460 . S
C709 C714 1.350 . S
C709 N717 1.427 . S
C710 H701 0.930 . S
C710 C708 1.378 . S
C710 C711 1.367 . S
C711 C710 1.367 . S
C711 C713 1.433 . S
C712 C708 1.352 1_546 S
C712 C709 1.460 . S
C712 N716 1.428 1_556 S
C713 H703 0.929 . S
C713 C711 1.433 . S
C713 N716 1.399 1_565 S
C714 H705 0.929 . S
C714 C706 1.378 . S
C714 C709 1.350 . S
C715 H702 0.929 . S
C715 C707 1.433 . S
C715 N717 1.384 . S
N716 C712 1.428 1_554 S
N716 C713 1.399 1_545 S
N717 C709 1.427 . S
N717 C715 1.384 . S
H718 C724 0.930 . S
H719 C728 0.930 . S
H720 C733 0.929 . S
H721 C731 0.929 . S
H722 C726 0.929 . S
H723 C732 0.929 . S
C724 H718 0.930 . S
C724 C725 1.367 . S
C724 C732 1.378 . S
C725 C724 1.367 . S
C725 C733 1.433 . S
C726 H722 0.929 . S
C726 C728 1.378 . S
C726 C730 1.350 . S
C727 C730 1.463 . S
C727 C732 1.350 . S
C727 N735 1.427 . S
C728 H719 0.930 . S
C728 C726 1.378 . S
C728 C729 1.367 . S
C729 C728 1.367 . S
C729 C731 1.433 . S
C730 C726 1.350 . S
C730 C727 1.463 . S
C730 N734 1.427 . S
C731 H721 0.929 . S
C731 C729 1.433 . S
C731 N734 1.384 . S
C732 H723 0.929 . S
C732 C724 1.378 . S
C732 C727 1.350 . S
C733 H720 0.929 . S
C733 C725 1.433 . S
C733 N735 1.384 . S
N734 C730 1.427 . S
N734 C731 1.384 . S
N735 C727 1.427 . S
N735 C733 1.384 . S
H736 C742 0.930 . S
H737 C746 0.930 . S
H738 C751 0.929 . S
H739 C749 0.929 . S
H740 C744 0.929 . S
H741 C750 0.929 . S
C742 H736 0.930 . S
C742 C743 1.367 . S
C742 C750 1.378 1_565 S
C743 C742 1.367 . S
C743 C751 1.433 . S
C744 H740 0.929 . S
C744 C746 1.378 . S
C744 C748 1.350 . S
C745 C748 1.463 . S
C745 C750 1.350 . S
C745 N753 1.427 . S
C746 H737 0.930 . S
C746 C744 1.378 . S
C746 C747 1.367 . S
C747 C746 1.367 . S
C747 C749 1.433 . S
C748 C744 1.350 . S
C748 C745 1.463 . S
C748 N752 1.427 . S
C749 H739 0.929 . S
C749 C747 1.433 . S
C749 N752 1.384 . S
C750 H741 0.929 . S
C750 C742 1.378 1_545 S
C750 C745 1.350 . S
C751 H738 0.929 . S
C751 C743 1.433 . S
C751 N753 1.384 1_565 S
N752 C748 1.427 . S
N752 C749 1.384 . S
N753 C745 1.427 . S
N753 C751 1.384 1_545 S
H754 C760 0.930 . S
H755 C764 0.930 . S
H756 C769 0.929 . S
H757 C767 0.929 . S
H758 C762 0.929 . S
H759 C768 0.929 . S
C760 H754 0.930 . S
C760 C761 1.367 . S
C760 C768 1.378 . S
C761 C760 1.367 . S
C761 C769 1.433 . S
C762 H758 0.929 . S
C762 C764 1.378 . S
C762 C766 1.350 . S
C763 C766 1.463 . S
C763 C768 1.350 . S
C763 N771 1.427 . S
C764 H755 0.930 . S
C764 C762 1.378 . S
C764 C765 1.367 . S
C765 C764 1.367 . S
C765 C767 1.433 . S
C766 C762 1.350 . S
C766 C763 1.463 . S
C766 N770 1.427 . S
C767 H757 0.929 . S
C767 C765 1.433 . S
C767 N770 1.384 . S
C768 H759 0.929 . S
C768 C760 1.378 . S
C768 C763 1.350 . S
C769 H756 0.929 . S
C769 C761 1.433 . S
C769 N771 1.384 . S
N770 C766 1.427 . S
N770 C767 1.384 . S
N771 C763 1.427 . S
N771 C769 1.384 . S
H772 C778 0.930 . S
H773 C782 0.930 . S
H774 C787 0.929 . S
H775 C785 0.929 . S
H776 C780 0.929 . S
H777 C786 0.929 . S
C778 H772 0.930 . S
C778 C779 1.367 . S
C778 C786 1.378 1_565 S
C779 C778 1.367 . S
C779 C787 1.433 . S
C780 H776 0.929 . S
C780 C782 1.378 . S
C780 C784 1.350 . S
C781 C784 1.463 . S
C781 C786 1.350 . S
C781 N789 1.427 1_545 S
C782 H773 0.930 . S
C782 C780 1.378 . S
C782 C783 1.367 . S
C783 C782 1.367 . S
C783 C785 1.433 . S
C784 C780 1.350 . S
C784 C781 1.463 . S
C784 N788 1.427 . S
C785 H775 0.929 . S
C785 C783 1.433 . S
C785 N788 1.384 . S
C786 H777 0.929 . S
C786 C778 1.378 1_545 S
C786 C781 1.350 . S
C787 H774 0.929 . S
C787 C779 1.433 . S
C787 N789 1.384 . S
N788 C784 1.427 . S
N788 C785 1.384 . S
N789 C781 1.427 1_565 S
N789 C787 1.384 . S
H790 C796 0.930 . S
H791 C800 0.930 . S
H792 C805 0.929 . S
H793 C803 0.929 . S
H794 C798 0.929 . S
H795 C804 0.929 . S
C796 H790 0.930 . S
C796 C797 1.367 . S
C796 C804 1.378 . S
C797 C796 1.367 . S
C797 C805 1.433 . S
C798 H794 0.929 . S
C798 C800 1.378 . S
C798 C802 1.350 . S
C799 C802 1.463 . S
C799 C804 1.350 . S
C799 N807 1.427 . S
C800 H791 0.930 . S
C800 C798 1.378 . S
C800 C801 1.367 . S
C801 C800 1.367 . S
C801 C803 1.433 . S
C802 C798 1.350 . S
C802 C799 1.463 . S
C802 N806 1.427 . S
C803 H793 0.929 . S
C803 C801 1.433 . S
C803 N806 1.384 . S
C804 H795 0.929 . S
C804 C796 1.378 . S
C804 C799 1.350 . S
C805 H792 0.929 . S
C805 C797 1.433 . S
C805 N807 1.384 . S
N806 C802 1.427 . S
N806 C803 1.384 . S
N807 C799 1.427 . S
N807 C805 1.384 . S
H808 C814 0.930 . S
H809 C818 0.930 . S
H810 C823 0.929 . S
H811 C821 0.929 . S
H812 C816 0.929 . S
H813 C822 0.929 . S
C814 H808 0.930 . S
C814 C815 1.367 . S
C814 C822 1.378 . S
C815 C814 1.367 . S
C815 C823 1.433 . S
C816 H812 0.929 . S
C816 C818 1.378 . S
C816 C820 1.350 . S
C817 C820 1.463 . S
C817 C822 1.350 . S
C817 N825 1.427 . S
C818 H809 0.930 . S
C818 C816 1.378 . S
C818 C819 1.367 . S
C819 C818 1.367 . S
C819 C821 1.433 . S
C820 C816 1.350 . S
C820 C817 1.463 . S
C820 N824 1.427 . S
C821 H811 0.929 . S
C821 C819 1.433 . S
C821 N824 1.384 . S
C822 H813 0.929 . S
C822 C814 1.378 . S
C822 C817 1.350 . S
C823 H810 0.929 . S
C823 C815 1.433 . S
C823 N825 1.384 . S
N824 C820 1.427 . S
N824 C821 1.384 . S
N825 C817 1.427 . S
N825 C823 1.384 . S
H826 C832 0.930 . S
H827 C836 0.930 . S
H828 C841 0.929 . S
H829 C839 0.929 . S
H830 C834 0.929 . S
H831 C840 0.929 . S
C832 H826 0.930 . S
C832 C833 1.367 . S
C832 C840 1.378 . S
C833 C832 1.367 . S
C833 C841 1.433 . S
C834 H830 0.929 . S
C834 C836 1.378 . S
C834 C838 1.350 . S
C835 C838 1.463 . S
C835 C840 1.350 . S
C835 N843 1.427 . S
C836 H827 0.930 . S
C836 C834 1.378 . S
C836 C837 1.367 . S
C837 C836 1.367 . S
C837 C839 1.433 . S
C838 C834 1.350 . S
C838 C835 1.463 . S
C838 N842 1.427 . S
C839 H829 0.929 . S
C839 C837 1.433 . S
C839 N842 1.384 . S
C840 H831 0.929 . S
C840 C832 1.378 . S
C840 C835 1.350 . S
C841 H828 0.929 . S
C841 C833 1.433 . S
C841 N843 1.384 . S
N842 C838 1.427 . S
N842 C839 1.384 . S
N843 C835 1.427 . S
N843 C841 1.384 . S
H844 C850 0.930 . S
H845 C854 0.930 . S
H846 C859 0.929 . S
H847 C857 0.929 . S
H848 C852 0.929 . S
H849 C858 0.929 . S
C850 H844 0.930 . S
C850 C851 1.367 . S
C850 C858 1.378 . S
C851 C850 1.367 . S
C851 C859 1.433 . S
C852 H848 0.929 . S
C852 C854 1.378 . S
C852 C856 1.350 . S
C853 C856 1.463 . S
C853 C858 1.350 . S
C853 N861 1.427 . S
C854 H845 0.930 . S
C854 C852 1.378 . S
C854 C855 1.367 . S
C855 C854 1.367 . S
C855 C857 1.433 . S
C856 C852 1.350 . S
C856 C853 1.463 . S
C856 N860 1.427 . S
C857 H847 0.929 . S
C857 C855 1.433 . S
C857 N860 1.384 . S
C858 H849 0.929 . S
C858 C850 1.378 . S
C858 C853 1.350 . S
C859 H846 0.929 . S
C859 C851 1.433 . S
C859 N861 1.384 . S
N860 C856 1.427 . S
N860 C857 1.384 . S
N861 C853 1.427 . S
N861 C859 1.384 . S
H862 C868 0.930 . S
H863 C872 0.930 . S
H864 C877 0.929 . S
H865 C875 0.929 . S
H866 C870 0.929 . S
H867 C876 0.929 . S
C868 H862 0.930 . S
C868 C869 1.367 . S
C868 C876 1.378 . S
C869 C868 1.367 . S
C869 C877 1.433 . S
C870 H866 0.929 . S
C870 C872 1.378 . S
C870 C874 1.350 . S
C871 C874 1.463 . S
C871 C876 1.350 . S
C871 N879 1.427 . S
C872 H863 0.930 . S
C872 C870 1.378 . S
C872 C873 1.367 . S
C873 C872 1.367 . S
C873 C875 1.433 . S
C874 C870 1.350 . S
C874 C871 1.463 . S
C874 N878 1.427 . S
C875 H865 0.929 . S
C875 C873 1.433 . S
C875 N878 1.384 . S
C876 H867 0.929 . S
C876 C868 1.378 . S
C876 C871 1.350 . S
C877 H864 0.929 . S
C877 C869 1.433 . S
C877 N879 1.384 . S
N878 C874 1.427 . S
N878 C875 1.384 . S
N879 C871 1.427 . S
N879 C877 1.384 . S
H880 C886 0.930 . S
H881 C890 0.930 . S
H882 C895 0.929 . S
H883 C893 0.929 . S
H884 C888 0.929 . S
H885 C894 0.929 . S
C886 H880 0.930 . S
C886 C887 1.367 . S
C886 C894 1.378 . S
C887 C886 1.367 . S
C887 C895 1.433 . S
C888 H884 0.929 . S
C888 C890 1.378 . S
C888 C892 1.350 . S
C889 C892 1.463 . S
C889 C894 1.350 . S
C889 N897 1.427 . S
C890 H881 0.930 . S
C890 C888 1.378 . S
C890 C891 1.367 . S
C891 C890 1.367 . S
C891 C893 1.433 . S
C892 C888 1.350 . S
C892 C889 1.463 . S
C892 N896 1.427 . S
C893 H883 0.929 . S
C893 C891 1.433 . S
C893 N896 1.384 . S
C894 H885 0.929 . S
C894 C886 1.378 . S
C894 C889 1.350 . S
C895 H882 0.929 . S
C895 C887 1.433 . S
C895 N897 1.384 . S
N896 C892 1.427 . S
N896 C893 1.384 . S
N897 C889 1.427 . S
N897 C895 1.384 . S
H898 C904 0.930 . S
H899 C908 0.930 . S
H900 C913 0.929 . S
H901 C911 0.929 . S
H902 C906 0.929 1_455 S
H903 C912 0.929 1_655 S
C904 H898 0.930 . S
C904 C905 1.367 . S
C904 C912 1.378 . S
C905 C904 1.367 . S
C905 C913 1.433 . S
C906 H902 0.929 1_655 S
C906 C908 1.378 . S
C906 C910 1.350 . S
C907 C910 1.463 1_455 S
C907 C912 1.350 . S
C907 N915 1.427 . S
C908 H899 0.930 . S
C908 C906 1.378 . S
C908 C909 1.367 . S
C909 C908 1.367 . S
C909 C911 1.433 . S
C910 C906 1.350 . S
C910 C907 1.463 1_655 S
C910 N914 1.427 . S
C911 H901 0.929 . S
C911 C909 1.433 . S
C911 N914 1.384 . S
C912 H903 0.929 1_455 S
C912 C904 1.378 . S
C912 C907 1.350 . S
C913 H900 0.929 . S
C913 C905 1.433 . S
C913 N915 1.384 . S
N914 C910 1.427 . S
N914 C911 1.384 . S
N915 C907 1.427 . S
N915 C913 1.384 . S
H916 C922 0.930 . S
H917 C926 0.930 . S
H918 C931 0.929 . S
H919 C929 0.929 . S
H920 C924 0.929 . S
H921 C930 0.929 . S
C922 H916 0.930 . S
C922 C923 1.367 . S
C922 C930 1.378 . S
C923 C922 1.367 . S
C923 C931 1.433 . S
C924 H920 0.929 . S
C924 C926 1.378 . S
C924 C928 1.350 . S
C925 C928 1.463 . S
C925 C930 1.350 . S
C925 N933 1.427 . S
C926 H917 0.930 . S
C926 C924 1.378 . S
C926 C927 1.367 . S
C927 C926 1.367 . S
C927 C929 1.433 . S
C928 C924 1.350 . S
C928 C925 1.463 . S
C928 N932 1.427 . S
C929 H919 0.929 . S
C929 C927 1.433 . S
C929 N932 1.384 . S
C930 H921 0.929 . S
C930 C922 1.378 . S
C930 C925 1.350 . S
C931 H918 0.929 . S
C931 C923 1.433 . S
C931 N933 1.384 . S
N932 C928 1.427 . S
N932 C929 1.384 . S
N933 C925 1.427 . S
N933 C931 1.384 . S
H934 C940 0.930 . S
H935 C944 0.930 . S
H936 C949 0.929 . S
H937 C947 0.929 . S
H938 C942 0.929 1_655 S
H939 C948 0.929 . S
C940 H934 0.930 . S
C940 C941 1.367 . S
C940 C948 1.378 . S
C941 C940 1.367 . S
C941 C949 1.433 . S
C942 H938 0.929 1_455 S
C942 C944 1.378 . S
C942 C946 1.350 1_455 S
C943 C946 1.466 . S
C943 C948 1.350 . S
C943 N951 1.427 . S
C944 H935 0.930 . S
C944 C942 1.378 . S
C944 C945 1.367 . S
C945 C944 1.367 . S
C945 C947 1.433 . S
C946 C942 1.350 1_655 S
C946 C943 1.466 . S
C946 N950 1.425 1_655 S
C947 H937 0.929 . S
C947 C945 1.433 . S
C947 N950 1.384 . S
C948 H939 0.929 . S
C948 C940 1.378 . S
C948 C943 1.350 . S
C949 H936 0.929 . S
C949 C941 1.433 . S
C949 N951 1.384 . S
N950 C946 1.425 1_455 S
N950 C947 1.384 . S
N951 C943 1.427 . S
N951 C949 1.384 . S
H952 C958 0.930 . S
H953 C962 0.930 . S
H954 C967 0.929 . S
H955 C965 0.929 . S
H956 C960 0.929 . S
H957 C966 0.929 . S
C958 H952 0.930 . S
C958 C959 1.367 . S
C958 C966 1.378 . S
C959 C958 1.367 . S
C959 C967 1.433 . S
C960 H956 0.929 . S
C960 C962 1.378 . S
C960 C964 1.350 . S
C961 C964 1.463 . S
C961 C966 1.350 . S
C961 N969 1.427 . S
C962 H953 0.930 . S
C962 C960 1.378 . S
C962 C963 1.367 . S
C963 C962 1.367 . S
C963 C965 1.433 . S
C964 C960 1.350 . S
C964 C961 1.463 . S
C964 N968 1.427 . S
C965 H955 0.929 . S
C965 C963 1.433 . S
C965 N968 1.384 . S
C966 H957 0.929 . S
C966 C958 1.378 . S
C966 C961 1.350 . S
C967 H954 0.929 . S
C967 C959 1.433 . S
C967 N969 1.384 . S
N968 C964 1.427 . S
N968 C965 1.384 . S
N969 C961 1.427 . S
N969 C967 1.384 . S
H970 C976 0.930 . S
H971 C980 0.930 . S
H972 C985 0.929 . S
H973 C983 0.939 . S
H974 C978 0.929 . S
H975 C984 0.929 . S
C976 H970 0.930 . S
C976 C977 1.367 . S
C976 C984 1.378 . S
C977 C976 1.367 . S
C977 C985 1.433 . S
C978 H974 0.929 . S
C978 C980 1.378 . S
C978 C982 1.350 1_556 S
C979 C982 1.463 . S
C979 C984 1.350 . S
C979 N987 1.427 . S
C980 H971 0.930 . S
C980 C978 1.378 . S
C980 C981 1.367 . S
C981 C980 1.367 . S
C981 C983 1.410 1_556 S
C982 C978 1.350 1_554 S
C982 C979 1.463 . S
C982 N986 1.427 . S
C983 H973 0.939 . S
C983 C981 1.410 1_554 S
C983 N986 1.398 . S
C984 H975 0.929 . S
C984 C976 1.378 . S
C984 C979 1.350 . S
C985 H972 0.929 . S
C985 C977 1.433 . S
C985 N987 1.384 . S
N986 C982 1.427 . S
N986 C983 1.398 . S
N987 C979 1.427 . S
N987 C985 1.384 . S
H988 C994 0.930 . S
H989 C998 0.930 . S
H990 C1003 0.929 . S
H991 C1001 0.929 . S
H992 C996 0.929 . S
H993 C1002 0.929 . S
C994 H988 0.930 . S
C994 C995 1.367 . S
C994 C1002 1.378 . S
C995 C994 1.367 . S
C995 C1003 1.433 . S
C996 H992 0.929 . S
C996 C998 1.378 . S
C996 C1000 1.350 . S
C997 C1000 1.463 . S
C997 C1002 1.350 . S
C997 N1005 1.427 . S
C998 H989 0.930 . S
C998 C996 1.378 . S
C998 C999 1.367 . S
C999 C998 1.367 . S
C999 C1001 1.433 . S
C1000 C996 1.350 . S
C1000 C997 1.463 . S
C1000 N1004 1.427 . S
C1001 H991 0.929 . S
C1001 C999 1.433 . S
C1001 N1004 1.384 . S
C1002 H993 0.929 . S
C1002 C994 1.378 . S
C1002 C997 1.350 . S
C1003 H990 0.929 . S
C1003 C995 1.433 . S
C1003 N1005 1.384 . S
N1004 C1000 1.427 . S
N1004 C1001 1.384 . S
N1005 C997 1.427 . S
N1005 C1003 1.384 . S
H1006 C1012 0.930 . S
H1007 C1016 0.930 . S
H1008 C1021 0.929 . S
H1009 C1019 0.929 1_556 S
H1010 C1014 0.929 . S
H1011 C1020 0.929 . S
C1012 H1006 0.930 . S
C1012 C1013 1.367 . S
C1012 C1020 1.378 . S
C1013 C1012 1.367 . S
C1013 C1021 1.433 . S
C1014 H1010 0.929 . S
C1014 C1016 1.378 . S
C1014 C1018 1.350 . S
C1015 C1018 1.463 . S
C1015 C1020 1.350 . S
C1015 N1023 1.427 . S
C1016 H1007 0.930 . S
C1016 C1014 1.378 . S
C1016 C1017 1.367 1_554 S
C1017 C1016 1.367 1_556 S
C1017 C1019 1.433 1_556 S
C1018 C1014 1.350 . S
C1018 C1015 1.463 . S
C1018 N1022 1.427 . S
C1019 H1009 0.929 1_554 S
C1019 C1017 1.433 1_554 S
C1019 N1022 1.384 . S
C1020 H1011 0.929 . S
C1020 C1012 1.378 . S
C1020 C1015 1.350 . S
C1021 H1008 0.929 . S
C1021 C1013 1.433 . S
C1021 N1023 1.384 . S
N1022 C1018 1.427 . S
N1022 C1019 1.384 . S
N1023 C1015 1.427 . S
N1023 C1021 1.384 . S
H1024 C1030 0.930 . S
H1025 C1034 0.930 . S
H1026 C1039 0.929 . S
H1027 C1037 0.929 . S
H1028 C1032 0.929 . S
H1029 C1038 0.929 . S
C1030 H1024 0.930 . S
C1030 C1031 1.367 . S
C1030 C1038 1.378 . S
C1031 C1030 1.367 . S
C1031 C1039 1.433 . S
C1032 H1028 0.929 . S
C1032 C1034 1.378 . S
C1032 C1036 1.350 . S
C1033 C1036 1.463 . S
C1033 C1038 1.350 . S
C1033 N1041 1.427 . S
C1034 H1025 0.930 . S
C1034 C1032 1.378 . S
C1034 C1035 1.367 . S
C1035 C1034 1.367 . S
C1035 C1037 1.433 . S
C1036 C1032 1.350 . S
C1036 C1033 1.463 . S
C1036 N1040 1.427 . S
C1037 H1027 0.929 . S
C1037 C1035 1.433 . S
C1037 N1040 1.384 . S
C1038 H1029 0.929 . S
C1038 C1030 1.378 . S
C1038 C1033 1.350 . S
C1039 H1026 0.929 . S
C1039 C1031 1.433 . S
C1039 N1041 1.384 . S
N1040 C1036 1.427 . S
N1040 C1037 1.384 . S
N1041 C1033 1.427 . S
N1041 C1039 1.384 . S
H1042 C1048 0.930 . S
H1043 C1052 0.930 . S
H1044 C1057 0.929 . S
H1045 C1055 0.929 . S
H1046 C1050 0.929 . S
H1047 C1056 0.929 . S
C1048 H1042 0.930 . S
C1048 C1049 1.367 . S
C1048 C1056 1.378 . S
C1049 C1048 1.367 . S
C1049 C1057 1.433 . S
C1050 H1046 0.929 . S
C1050 C1052 1.378 . S
C1050 C1054 1.350 . S
C1051 C1054 1.463 1_556 S
C1051 C1056 1.350 . S
C1051 N1059 1.427 . S
C1052 H1043 0.930 . S
C1052 C1050 1.378 . S
C1052 C1053 1.367 . S
C1053 C1052 1.367 . S
C1053 C1055 1.433 . S
C1054 C1050 1.350 . S
C1054 C1051 1.463 1_554 S
C1054 N1058 1.427 . S
C1055 H1045 0.929 . S
C1055 C1053 1.433 . S
C1055 N1058 1.384 . S
C1056 H1047 0.929 . S
C1056 C1048 1.378 . S
C1056 C1051 1.350 . S
C1057 H1044 0.929 . S
C1057 C1049 1.433 . S
C1057 N1059 1.384 . S
N1058 C1054 1.427 . S
N1058 C1055 1.384 . S
N1059 C1051 1.427 . S
N1059 C1057 1.384 . S
H1060 C1066 0.930 . S
H1061 C1070 0.930 . S
H1062 C1075 0.929 . S
H1063 C1073 0.929 . S
H1064 C1068 0.929 . S
H1065 C1074 0.929 . S
C1066 H1060 0.930 . S
C1066 C1067 1.367 . S
C1066 C1074 1.378 . S
C1067 C1066 1.367 . S
C1067 C1075 1.433 . S
C1068 H1064 0.929 . S
C1068 C1070 1.378 . S
C1068 C1072 1.350 . S
C1069 C1072 1.463 . S
C1069 C1074 1.350 . S
C1069 N1077 1.427 . S
C1070 H1061 0.930 . S
C1070 C1068 1.378 . S
C1070 C1071 1.367 . S
C1071 C1070 1.367 . S
C1071 C1073 1.433 . S
C1072 C1068 1.350 . S
C1072 C1069 1.463 . S
C1072 N1076 1.427 . S
C1073 H1063 0.929 . S
C1073 C1071 1.433 . S
C1073 N1076 1.384 . S
C1074 H1065 0.929 . S
C1074 C1066 1.378 . S
C1074 C1069 1.350 . S
C1075 H1062 0.929 . S
C1075 C1067 1.433 . S
C1075 N1077 1.384 . S
N1076 C1072 1.427 . S
N1076 C1073 1.384 . S
N1077 C1069 1.427 . S
N1077 C1075 1.384 . S
H1078 C1084 0.930 . S
H1079 C1088 0.930 . S
H1080 C1093 0.929 . S
H1081 C1091 0.929 . S
H1082 C1086 0.929 . S
H1083 C1092 0.929 . S
C1084 H1078 0.930 . S
C1084 C1085 1.367 . S
C1084 C1092 1.378 1_556 S
C1085 C1084 1.367 . S
C1085 C1093 1.433 . S
C1086 H1082 0.929 . S
C1086 C1088 1.378 . S
C1086 C1090 1.350 . S
C1087 C1090 1.463 . S
C1087 C1092 1.350 . S
C1087 N1095 1.427 1_554 S
C1088 H1079 0.930 . S
C1088 C1086 1.378 . S
C1088 C1089 1.367 . S
C1089 C1088 1.367 . S
C1089 C1091 1.433 . S
C1090 C1086 1.350 . S
C1090 C1087 1.463 . S
C1090 N1094 1.427 . S
C1091 H1081 0.929 . S
C1091 C1089 1.433 . S
C1091 N1094 1.384 . S
C1092 H1083 0.929 . S
C1092 C1084 1.378 1_554 S
C1092 C1087 1.350 . S
C1093 H1080 0.929 . S
C1093 C1085 1.433 . S
C1093 N1095 1.384 . S
N1094 C1090 1.427 . S
N1094 C1091 1.384 . S
N1095 C1087 1.427 1_556 S
N1095 C1093 1.384 . S
H1096 C1102 0.930 . S
H1097 C1106 0.930 . S
H1098 C1111 0.929 . S
H1099 C1109 0.929 . S
H1100 C1104 0.929 . S
H1101 C1110 0.929 . S
C1102 H1096 0.930 . S
C1102 C1103 1.367 . S
C1102 C1110 1.378 . S
C1103 C1102 1.367 . S
C1103 C1111 1.433 . S
C1104 H1100 0.929 . S
C1104 C1106 1.378 . S
C1104 C1108 1.350 . S
C1105 C1108 1.463 . S
C1105 C1110 1.350 . S
C1105 N1113 1.427 . S
C1106 H1097 0.930 . S
C1106 C1104 1.378 . S
C1106 C1107 1.367 . S
C1107 C1106 1.367 . S
C1107 C1109 1.433 . S
C1108 C1104 1.350 . S
C1108 C1105 1.463 . S
C1108 N1112 1.427 . S
C1109 H1099 0.929 . S
C1109 C1107 1.433 . S
C1109 N1112 1.384 . S
C1110 H1101 0.929 . S
C1110 C1102 1.378 . S
C1110 C1105 1.350 . S
C1111 H1098 0.929 . S
C1111 C1103 1.433 . S
C1111 N1113 1.384 . S
N1112 C1108 1.427 . S
N1112 C1109 1.384 . S
N1113 C1105 1.427 . S
N1113 C1111 1.384 . S
H1114 C1120 0.930 . S
H1115 C1124 0.930 . S
H1116 C1129 0.929 . S
H1117 C1127 0.929 . S
H1118 C1122 0.929 . S
H1119 C1128 0.929 . S
C1120 H1114 0.930 . S
C1120 C1121 1.367 . S
C1120 C1128 1.378 . S
C1121 C1120 1.367 . S
C1121 C1129 1.433 . S
C1122 H1118 0.929 . S
C1122 C1124 1.378 . S
C1122 C1126 1.350 . S
C1123 C1126 1.463 . S
C1123 C1128 1.350 . S
C1123 N1131 1.427 . S
C1124 H1115 0.930 . S
C1124 C1122 1.378 . S
C1124 C1125 1.367 . S
C1125 C1124 1.367 . S
C1125 C1127 1.433 . S
C1126 C1122 1.350 . S
C1126 C1123 1.463 . S
C1126 N1130 1.427 . S
C1127 H1117 0.929 . S
C1127 C1125 1.433 . S
C1127 N1130 1.384 . S
C1128 H1119 0.929 . S
C1128 C1120 1.378 . S
C1128 C1123 1.350 . S
C1129 H1116 0.929 . S
C1129 C1121 1.433 . S
C1129 N1131 1.384 . S
N1130 C1126 1.427 . S
N1130 C1127 1.384 . S
N1131 C1123 1.427 . S
N1131 C1129 1.384 . S
H1132 C1138 0.930 . S
H1133 C1142 0.930 . S
H1134 C1147 0.929 . S
H1135 C1145 0.929 . S
H1136 C1140 0.929 . S
H1137 C1146 0.929 . S
C1138 H1132 0.930 . S
C1138 C1139 1.367 . S
C1138 C1146 1.378 . S
C1139 C1138 1.367 . S
C1139 C1147 1.433 . S
C1140 H1136 0.929 . S
C1140 C1142 1.378 . S
C1140 C1144 1.350 . S
C1141 C1144 1.463 . S
C1141 C1146 1.350 . S
C1141 N1149 1.427 . S
C1142 H1133 0.930 . S
C1142 C1140 1.378 . S
C1142 C1143 1.367 . S
C1143 C1142 1.367 . S
C1143 C1145 1.433 . S
C1144 C1140 1.350 . S
C1144 C1141 1.463 . S
C1144 N1148 1.427 . S
C1145 H1135 0.929 . S
C1145 C1143 1.433 . S
C1145 N1148 1.384 . S
C1146 H1137 0.929 . S
C1146 C1138 1.378 . S
C1146 C1141 1.350 . S
C1147 H1134 0.929 . S
C1147 C1139 1.433 . S
C1147 N1149 1.384 . S
N1148 C1144 1.427 . S
N1148 C1145 1.384 . S
N1149 C1141 1.427 . S
N1149 C1147 1.384 . S
H1150 C1156 0.930 . S
H1151 C1160 0.930 . S
H1152 C1165 0.929 . S
H1153 C1163 0.929 . S
H1154 C1158 0.929 . S
H1155 C1164 0.929 . S
C1156 H1150 0.930 . S
C1156 C1157 1.367 . S
C1156 C1164 1.378 . S
C1157 C1156 1.367 . S
C1157 C1165 1.433 . S
C1158 H1154 0.929 . S
C1158 C1160 1.378 . S
C1158 C1162 1.350 . S
C1159 C1162 1.463 . S
C1159 C1164 1.350 . S
C1159 N1167 1.427 . S
C1160 H1151 0.930 . S
C1160 C1158 1.378 . S
C1160 C1161 1.367 . S
C1161 C1160 1.367 . S
C1161 C1163 1.433 . S
C1162 C1158 1.350 . S
C1162 C1159 1.463 . S
C1162 N1166 1.427 . S
C1163 H1153 0.929 . S
C1163 C1161 1.433 . S
C1163 N1166 1.384 . S
C1164 H1155 0.929 . S
C1164 C1156 1.378 . S
C1164 C1159 1.350 . S
C1165 H1152 0.929 . S
C1165 C1157 1.433 . S
C1165 N1167 1.384 . S
N1166 C1162 1.427 . S
N1166 C1163 1.384 . S
N1167 C1159 1.427 . S
N1167 C1165 1.384 . S
H1168 C1174 0.930 . S
H1169 C1178 0.930 . S
H1170 C1183 0.929 . S
H1171 C1181 0.929 . S
H1172 C1176 0.929 . S
H1173 C1182 0.929 . S
C1174 H1168 0.930 . S
C1174 C1175 1.367 . S
C1174 C1182 1.378 . S
C1175 C1174 1.367 . S
C1175 C1183 1.433 . S
C1176 H1172 0.929 . S
C1176 C1178 1.378 . S
C1176 C1180 1.350 . S
C1177 C1180 1.463 . S
C1177 C1182 1.350 . S
C1177 N1185 1.427 . S
C1178 H1169 0.930 . S
C1178 C1176 1.378 . S
C1178 C1179 1.367 . S
C1179 C1178 1.367 . S
C1179 C1181 1.433 . S
C1180 C1176 1.350 . S
C1180 C1177 1.463 . S
C1180 N1184 1.427 . S
C1181 H1171 0.929 . S
C1181 C1179 1.433 . S
C1181 N1184 1.384 . S
C1182 H1173 0.929 . S
C1182 C1174 1.378 . S
C1182 C1177 1.350 . S
C1183 H1170 0.929 . S
C1183 C1175 1.433 . S
C1183 N1185 1.384 . S
N1184 C1180 1.427 . S
N1184 C1181 1.384 . S
N1185 C1177 1.427 . S
N1185 C1183 1.384 . S
H1186 C1192 0.930 . S
H1187 C1196 0.930 . S
H1188 C1201 0.929 . S
H1189 C1199 0.929 . S
H1190 C1194 0.929 . S
H1191 C1200 0.929 . S
C1192 H1186 0.930 . S
C1192 C1193 1.367 . S
C1192 C1200 1.378 . S
C1193 C1192 1.367 . S
C1193 C1201 1.433 . S
C1194 H1190 0.929 . S
C1194 C1196 1.378 . S
C1194 C1198 1.350 . S
C1195 C1198 1.463 . S
C1195 C1200 1.350 . S
C1195 N1203 1.427 . S
C1196 H1187 0.930 . S
C1196 C1194 1.378 . S
C1196 C1197 1.367 . S
C1197 C1196 1.367 . S
C1197 C1199 1.433 . S
C1198 C1194 1.350 . S
C1198 C1195 1.463 . S
C1198 N1202 1.427 . S
C1199 H1189 0.929 . S
C1199 C1197 1.433 . S
C1199 N1202 1.384 . S
C1200 H1191 0.929 . S
C1200 C1192 1.378 . S
C1200 C1195 1.350 . S
C1201 H1188 0.929 . S
C1201 C1193 1.433 . S
C1201 N1203 1.384 . S
N1202 C1198 1.427 . S
N1202 C1199 1.384 . S
N1203 C1195 1.427 . S
N1203 C1201 1.384 . S
H1204 C1210 0.930 . S
H1205 C1214 0.930 . S
H1206 C1219 0.929 . S
H1207 C1217 0.929 . S
H1208 C1212 0.929 . S
H1209 C1218 0.929 . S
C1210 H1204 0.930 . S
C1210 C1211 1.367 . S
C1210 C1218 1.378 . S
C1211 C1210 1.367 . S
C1211 C1219 1.433 . S
C1212 H1208 0.929 . S
C1212 C1214 1.378 . S
C1212 C1216 1.350 . S
C1213 C1216 1.463 . S
C1213 C1218 1.350 . S
C1213 N1221 1.427 . S
C1214 H1205 0.930 . S
C1214 C1212 1.378 . S
C1214 C1215 1.367 . S
C1215 C1214 1.367 . S
C1215 C1217 1.433 . S
C1216 C1212 1.350 . S
C1216 C1213 1.463 . S
C1216 N1220 1.427 . S
C1217 H1207 0.929 . S
C1217 C1215 1.433 . S
C1217 N1220 1.384 . S
C1218 H1209 0.929 . S
C1218 C1210 1.378 . S
C1218 C1213 1.350 . S
C1219 H1206 0.929 . S
C1219 C1211 1.433 . S
C1219 N1221 1.384 . S
N1220 C1216 1.427 . S
N1220 C1217 1.384 . S
N1221 C1213 1.427 . S
N1221 C1219 1.384 . S
H1222 C1228 0.930 . S
H1223 C1232 0.930 . S
H1224 C1237 0.929 . S
H1225 C1235 0.929 1_565 S
H1226 C1230 0.929 . S
H1227 C1236 0.929 . S
C1228 H1222 0.930 . S
C1228 C1229 1.367 . S
C1228 C1236 1.378 . S
C1229 C1228 1.367 . S
C1229 C1237 1.433 . S
C1230 H1226 0.929 . S
C1230 C1232 1.378 . S
C1230 C1234 1.350 . S
C1231 C1234 1.463 . S
C1231 C1236 1.350 . S
C1231 N1239 1.427 . S
C1232 H1223 0.930 . S
C1232 C1230 1.378 . S
C1232 C1233 1.367 . S
C1233 C1232 1.367 . S
C1233 C1235 1.433 . S
C1234 C1230 1.350 . S
C1234 C1231 1.463 . S
C1234 N1238 1.427 . S
C1235 H1225 0.929 1_545 S
C1235 C1233 1.433 . S
C1235 N1238 1.384 . S
C1236 H1227 0.929 . S
C1236 C1228 1.378 . S
C1236 C1231 1.350 . S
C1237 H1224 0.929 . S
C1237 C1229 1.433 . S
C1237 N1239 1.384 . S
N1238 C1234 1.427 . S
N1238 C1235 1.384 . S
N1239 C1231 1.427 . S
N1239 C1237 1.384 . S
C387 C216 1.434 1_556 S
C383 N66 1.423 . S
C405 C231 1.724 . S
C401 N79 1.735 . S
C419 N92 1.869 . S
C423 C244 1.899 . S
C441 C258 1.368 . S
C437 N54 1.428 . S
C459 C270 1.665 . S
C455 N131 1.765 . S
C477 C284 1.019 . S
C473 N158 1.038 . S
C491 N145 1.741 . S
C495 C298 1.701 . S
C513 C313 1.627 . S
C509 N118 1.645 . S
C527 N148 1.951 . S
C531 C329 1.913 . S
C549 C342 1.490 . S
C545 N122 1.471 . S
C563 N132 1.486 . S
C567 C327 1.415 . S
C585 C340 1.516 . S
C581 N161 1.487 . S
C599 N96 2.167 . S
C603 C356 2.186 . S
C617 N53 1.685 . S
C621 C355 1.650 . S
C635 N67 1.312 . S
C639 C354 1.253 . S
C653 N83 1.305 . S
C657 C357 1.333 . S
C671 N44 1.614 . S
C675 C259 1.647 1_565 S
C689 N187 1.454 . S
C693 C257 1.457 . S
C711 C217 1.259 . S
C707 N197 1.256 . S
C729 C228 1.493 . S
C725 N106 1.512 . S
C743 N57 1.872 . S
C747 C273 1.898 . S
C765 C314 1.826 . S
C761 N144 1.820 . S
C783 C271 1.411 . S
C779 N119 1.386 . S
C801 C299 1.654 . S
C797 N157 1.666 . S
C819 C300 1.436 . S
C815 N183 1.426 . S
C833 N196 1.739 . S
C837 C315 1.734 . S
C851 N105 1.876 . S
C855 C272 1.893 . S
C873 C286 1.372 . S
C869 N171 1.430 . S
C887 N40 1.759 . S
C891 C242 1.676 . S
C909 C256 1.025 . S
C905 N2 1.026 . S
C927 C214 1.706 . S
C923 N15 1.745 . S
C945 C229 1.623 . S
C941 N27 1.649 . S
C959 N18 1.951 . S
C963 C343 1.914 . S
C977 N31 1.479 . S
C981 C328 1.495 . S
C995 N41 1.481 . S
C999 C341 1.396 . S
C1013 N5 1.473 . S
C1017 C326 1.517 . S
C1035 C370 2.183 . S
C1031 N109 2.162 . S
C1053 C369 1.650 . S
C1049 N170 1.685 . S
C1071 C368 1.247 . S
C1067 N184 1.311 . S
C1085 N200 1.290 . S
C1089 C371 1.321 . S
C1103 N135 1.614 . S
C1107 C287 1.648 . S
C1125 C285 1.456 . S
C1121 N70 1.451 . S
C1143 C301 1.248 . S
C1139 N80 1.249 . S
C1161 C312 1.492 . S
C1157 N93 1.509 . S
C1175 N174 1.868 . S
C1179 C245 1.897 . S
C1197 C230 1.827 . S
C1193 N14 1.821 . S
C1211 N28 1.398 . S
C1215 C243 1.414 . S
C1233 C215 1.656 1_545 S
C1229 N1 1.666 . S
