# Generated by pormake.
# Topology zzz, (3,6)-cn, num edge types: 1
# Building blocks:
#     Node 0, Type 0, BuildingBlock: CUQRIR_clean_linker_1, # of connection points: 3
#     Node 1, Type 0, BuildingBlock: CUQRIR_clean_linker_1, # of connection points: 3
#     Node 2, Type 0, BuildingBlock: CUQRIR_clean_linker_1, # of connection points: 3
#     Node 3, Type 0, BuildingBlock: CUQRIR_clean_linker_1, # of connection points: 3
#     Node 4, Type 0, BuildingBlock: CUQRIR_clean_linker_1, # of connection points: 3
#     Node 5, Type 0, BuildingBlock: CUQRIR_clean_linker_1, # of connection points: 3
#     Node 6, Type 0, BuildingBlock: CUQRIR_clean_linker_1, # of connection points: 3
#     Node 7, Type 0, BuildingBlock: CUQRIR_clean_linker_1, # of connection points: 3
#     Node 8, Type 1, BuildingBlock: BETDEL_clean_sbu_0, # of connection points: 6
#     Node 9, Type 1, BuildingBlock: BETDEL_clean_sbu_0, # of connection points: 6
#     Node 10, Type 1, BuildingBlock: BETDEL_clean_sbu_0, # of connection points: 6
#     Node 11, Type 1, BuildingBlock: BETDEL_clean_sbu_0, # of connection points: 6
#     Edge 12, Type (0, 1), BuildingBlock: KIFKEQ_clean_linker_1, # of connection points: 2
#     Edge 13, Type (0, 1), BuildingBlock: KIFKEQ_clean_linker_1, # of connection points: 2
#     Edge 14, Type (0, 1), BuildingBlock: KIFKEQ_clean_linker_1, # of connection points: 2
#     Edge 15, Type (0, 1), BuildingBlock: KIFKEQ_clean_linker_1, # of connection points: 2
#     Edge 16, Type (0, 1), BuildingBlock: KIFKEQ_clean_linker_1, # of connection points: 2
#     Edge 17, Type (0, 1), BuildingBlock: KIFKEQ_clean_linker_1, # of connection points: 2
#     Edge 18, Type (0, 1), BuildingBlock: KIFKEQ_clean_linker_1, # of connection points: 2
#     Edge 19, Type (0, 1), BuildingBlock: KIFKEQ_clean_linker_1, # of connection points: 2
#     Edge 20, Type (0, 1), BuildingBlock: KIFKEQ_clean_linker_1, # of connection points: 2
#     Edge 21, Type (0, 1), BuildingBlock: KIFKEQ_clean_linker_1, # of connection points: 2
#     Edge 22, Type (0, 1), BuildingBlock: KIFKEQ_clean_linker_1, # of connection points: 2
#     Edge 23, Type (0, 1), BuildingBlock: KIFKEQ_clean_linker_1, # of connection points: 2
#     Edge 24, Type (0, 1), BuildingBlock: KIFKEQ_clean_linker_1, # of connection points: 2
#     Edge 25, Type (0, 1), BuildingBlock: KIFKEQ_clean_linker_1, # of connection points: 2
#     Edge 26, Type (0, 1), BuildingBlock: KIFKEQ_clean_linker_1, # of connection points: 2
#     Edge 27, Type (0, 1), BuildingBlock: KIFKEQ_clean_linker_1, # of connection points: 2
#     Edge 28, Type (0, 1), BuildingBlock: KIFKEQ_clean_linker_1, # of connection points: 2
#     Edge 29, Type (0, 1), BuildingBlock: KIFKEQ_clean_linker_1, # of connection points: 2
#     Edge 30, Type (0, 1), BuildingBlock: KIFKEQ_clean_linker_1, # of connection points: 2
#     Edge 31, Type (0, 1), BuildingBlock: KIFKEQ_clean_linker_1, # of connection points: 2
#     Edge 32, Type (0, 1), BuildingBlock: KIFKEQ_clean_linker_1, # of connection points: 2
#     Edge 33, Type (0, 1), BuildingBlock: KIFKEQ_clean_linker_1, # of connection points: 2
#     Edge 34, Type (0, 1), BuildingBlock: KIFKEQ_clean_linker_1, # of connection points: 2
#     Edge 35, Type (0, 1), BuildingBlock: KIFKEQ_clean_linker_1, # of connection points: 2
# Relax obj value: 0.172
# Max RMSD: 0.193
# Mean RMSD: 0.119
data_MOF--net-zzz--node1-BETDEL_clean_sbu_0--node2-CUQRIR_clean_linker_1--edge1-KIFKEQ_clean_linker_1
_symmetry_space_group_name_H-M    P1
_symmetry_Int_Tables_number       1
_symmetry_cell_setting            triclinic
loop_
_symmetry_equiv_pos_as_xyz
'x, y, z'
_cell_length_a     46.787603
_cell_length_b     47.914823
_cell_length_c     13.365707
_cell_angle_alpha  91.454071
_cell_angle_beta   88.689384
_cell_angle_gamma 95.141926
loop_
_atom_site_label
_atom_site_type_symbol
_atom_site_fract_x
_atom_site_fract_y
_atom_site_fract_z
_atom_type_partial_charge
C0 C 0.73644 0.51118 0.18608 0.0
N1 N 0.76451 0.50619 0.19004 0.0
N2 N 0.72483 0.50071 0.09887 0.0
C3 C 0.72083 0.5271 0.26468 0.0
C4 C 0.74703 0.48965 0.04994 0.0
N5 N 0.7709 0.49281 0.10549 0.0
C6 C 0.74566 0.47721 0.94542 0.0
H7 H 0.7297 0.5242 0.33964 0.0
H8 H 0.69752 0.52027 0.26484 0.0
H9 H 0.72372 0.54974 0.2478 0.0
H10 H 0.73508 0.49121 0.89578 0.0
H11 H 0.73244 0.45682 0.94662 0.0
H12 H 0.7672 0.4736 0.91415 0.0
C13 C 1.00645 0.74362 0.14775 0.0
N14 N 0.01392 0.77158 0.15484 0.0
N15 N 0.01731 0.73275 0.0616 0.0
C16 C 0.98695 0.72745 0.22031 0.0
C17 C 0.03117 0.75517 0.01633 0.0
N18 N 0.02927 0.77863 0.07323 0.0
C19 C 0.04434 0.75449 0.91281 0.0
H20 H 0.99144 0.70509 0.2195 0.0
H21 H 0.96441 0.72861 0.19786 0.0
H22 H 0.9894 0.73665 0.29701 0.0
H23 H 0.02708 0.75483 0.85739 0.0
H24 H 0.055 0.73492 0.89967 0.0
H25 H 0.0601 0.77291 0.90118 0.0
C26 C 0.78307 1.0087 0.18291 0.0
N27 N 0.75548 0.01545 0.18573 0.0
N28 N 0.79743 0.02001 0.10173 0.0
C29 C 0.79597 0.99149 0.25923 0.0
C30 C 0.77744 0.03356 0.05529 0.0
N31 N 0.75217 0.03093 0.10651 0.0
C32 C 0.78199 0.04734 0.95545 0.0
H33 H 0.7859 0.99475 0.33411 0.0
H34 H 0.81952 0.99677 0.26257 0.0
H35 H 0.79187 0.969 0.23754 0.0
H36 H 0.79858 0.03748 0.90956 0.0
H37 H 0.78932 0.06979 0.96814 0.0
H38 H 0.76177 0.04604 0.91313 0.0
C39 C 0.51912 0.78142 0.18198 0.0
N40 N 0.50995 0.75399 0.19399 0.0
N41 N 0.50676 0.79166 0.10113 0.0
C42 C 0.54256 0.79714 0.24078 0.0
C43 C 0.48992 0.76937 0.06485 0.0
N44 N 0.49185 0.74658 0.12091 0.0
C45 C 0.47246 0.76946 0.97181 0.0
H46 H 0.53641 0.81838 0.26159 0.0
H47 H 0.56231 0.79969 0.19315 0.0
H48 H 0.54713 0.78587 0.30933 0.0
H49 H 0.48598 0.76426 0.90588 0.0
H50 H 0.46489 0.79047 0.96125 0.0
H51 H 0.45378 0.75349 0.97597 0.0
C52 C 0.28806 0.50979 0.97034 0.0
N53 N 0.25899 0.50522 0.9693 0.0
N54 N 0.29814 0.50352 0.0611 0.0
C55 C 0.30616 0.52298 0.88738 0.0
C56 C 0.27411 0.49539 0.11491 0.0
N57 N 0.25048 0.49632 0.05942 0.0
C58 C 0.27373 0.48828 0.22387 0.0
H59 H 0.29687 0.51667 0.81368 0.0
H60 H 0.3285 0.51703 0.89057 0.0
H61 H 0.30659 0.54611 0.89595 0.0
H62 H 0.27464 0.50797 0.26967 0.0
H63 H 0.29277 0.47717 0.24123 0.0
H64 H 0.25385 0.47509 0.24445 0.0
C65 C 0.01434 0.27922 0.01085 0.0
N66 N 1.00744 0.25121 1.00205 0.0
N67 N 1.00171 0.28978 0.09431 0.0
C68 C 0.03503 0.29574 0.94297 0.0
C69 C 0.98735 0.26707 0.13639 0.0
N70 N 0.99074 0.2437 0.08022 0.0
C71 C 0.97247 0.26741 0.23724 0.0
H72 H 0.05712 0.29453 0.97002 0.0
H73 H 0.03049 0.31808 0.94351 0.0
H74 H 0.03393 0.28685 0.86552 0.0
H75 H 0.95912 0.28539 0.244 0.0
H76 H 0.98888 0.27014 0.29619 0.0
H77 H 0.95871 0.24767 0.24972 0.0
C78 C 0.25004 0.01996 0.97447 0.0
N79 N 0.27684 0.0111 0.97057 0.0
N80 N 0.23555 0.01064 0.05833 0.0
C81 C 0.23795 0.03744 0.89707 0.0
C82 C 0.25463 0.99625 0.10572 0.0
N83 N 0.27954 0.99648 0.05253 0.0
C84 C 0.24971 0.98392 0.20786 0.0
H85 H 0.21422 0.0336 0.89582 0.0
H86 H 0.24727 0.03291 0.82193 0.0
H87 H 0.24357 0.0599 0.91619 0.0
H88 H 0.24279 0.96126 0.19882 0.0
H89 H 0.23279 0.99408 0.25101 0.0
H90 H 0.26979 0.98608 0.25107 0.0
C91 C 0.50753 0.24692 0.97064 0.0
N92 N 0.51408 0.27501 0.96591 0.0
N93 N 0.52017 0.23649 0.05067 0.0
C94 C 0.48796 0.23003 0.9003 0.0
C95 C 0.53422 0.2594 0.09468 0.0
N96 N 0.53068 0.28265 0.04285 0.0
C97 C 0.54969 0.2592 0.19216 0.0
H98 H 0.46553 0.23041 0.92878 0.0
H99 H 0.4933 0.20793 0.89563 0.0
H100 H 0.4894 0.23921 0.82474 0.0
H101 H 0.56944 0.24824 0.18056 0.0
H102 H 0.53591 0.24744 0.24837 0.0
H103 H 0.55597 0.28065 0.22168 0.0
Dy104 Dy 0.03031 1.00119 0.66858 0.0
C105 C 1.00076 0.05246 0.30433 0.0
C106 C 0.04119 0.97071 0.83071 0.0
Dy107 Dy 1.0028 0.02416 0.47726 0.0
O108 O 0.05908 0.97645 0.75689 0.0
O109 O 0.01759 0.98233 0.81699 0.0
O110 O 0.07296 0.02146 0.61499 0.0
O111 O 0.04242 1.00578 0.51043 0.0
C112 C 0.06691 0.01883 0.52038 0.0
C113 C 0.9633 0.01842 0.62808 0.0
O114 O 1.00041 0.97859 0.4325 0.0
O115 O 1.01326 0.9616 0.58609 0.0
O116 O 0.97983 0.03559 0.3401 0.0
O117 O 0.02288 0.05292 0.36162 0.0
O118 O 0.95781 0.02754 0.54036 0.0
O119 O 0.9891 0.01288 0.62664 0.0
O120 O 0.02648 0.04536 0.72141 0.0
O121 O 0.01951 0.06314 0.56393 0.0
C122 C 1.00424 0.95756 0.49256 0.0
C123 C 0.02447 0.06671 0.66127 0.0
Dy124 Dy 0.50054 0.99592 0.49683 0.0
C125 C 0.57224 0.05605 0.78016 0.0
C126 C 0.46106 0.97132 0.36751 0.0
Dy127 Dy 0.53143 0.0323 0.65411 0.0
O128 O 0.48507 0.98514 0.34101 0.0
O129 O 0.45895 0.97073 0.46423 0.0
O130 O 0.54035 0.97394 0.46189 0.0
O131 O 0.54409 0.0162 0.50727 0.0
C132 C 0.55803 0.99535 0.4868 0.0
C133 C 0.47401 0.03358 0.66478 0.0
O134 O 0.53044 0.0644 0.53653 0.0
O135 O 0.49551 0.03953 0.44188 0.0
O136 O 0.54699 0.04518 0.80812 0.0
O137 O 0.57494 0.0542 0.68355 0.0
O138 O 0.4921 0.05453 0.69153 0.0
O139 O 0.48756 0.01246 0.64306 0.0
O140 O 0.50167 0.96354 0.61323 0.0
O141 O 0.53532 0.98884 0.71204 0.0
C142 C 0.51218 0.06284 0.46197 0.0
C143 C 0.5193 0.96533 0.68961 0.0
Dy144 Dy 0.49938 0.52766 0.68778 0.0
C145 C 0.52562 0.47405 0.29748 0.0
C146 C 0.49689 0.55562 0.86682 0.0
Dy147 Dy 0.52445 0.5019 0.47669 0.0
O148 O 0.4763 0.53833 0.83155 0.0
O149 O 0.51878 0.55695 0.80506 0.0
O150 O 0.45407 0.53049 0.63221 0.0
O151 O 0.48539 0.5162 0.53913 0.0
C152 C 0.45955 0.52153 0.54165 0.0
C153 C 0.5641 0.50693 0.62337 0.0
O154 O 0.52445 0.54757 0.44101 0.0
O155 O 0.51561 0.56613 0.60217 0.0
O156 O 0.54661 0.49111 0.33147 0.0
O157 O 0.50403 0.47291 0.36061 0.0
O158 O 0.56913 0.49697 0.53379 0.0
O159 O 0.53875 0.51382 0.62492 0.0
O160 O 0.50018 0.48203 0.7238 0.0
O161 O 0.50773 0.46357 0.56178 0.0
C162 C 0.52206 0.56912 0.50502 0.0
C163 C 0.50201 0.46049 0.65929 0.0
Dy164 Dy 1.00004 0.50073 0.67899 0.0
C165 C 0.05433 0.52044 0.30403 0.0
C166 C 0.96906 0.49531 0.85373 0.0
Dy167 Dy 0.02409 0.52192 0.48025 0.0
O168 O 0.97754 0.47462 0.79951 0.0
O169 O 0.97821 0.51889 0.81345 0.0
O170 O 0.01436 0.45814 0.63943 0.0
O171 O 1.00047 0.48332 0.52719 0.0
C172 C 1.01103 0.46062 0.54381 0.0
C173 C 1.01277 0.56234 0.6132 0.0
O174 O 0.97792 0.51949 0.43859 0.0
O175 O 0.96011 0.51203 0.60026 0.0
O176 O 0.05092 0.54309 0.35719 0.0
O177 O 0.04035 0.49912 0.34591 0.0
O178 O 1.01079 0.56502 0.51676 0.0
O179 O 0.02311 0.53961 0.63162 0.0
O180 O 0.04622 0.50712 0.72301 0.0
O181 O 0.06401 0.51143 0.56029 0.0
C182 C 0.95617 0.51709 0.5042 0.0
C183 C 0.06807 0.50869 0.65761 0.0
H184 H 0.21948 0.05933 0.1367 0.0
H185 H 0.18938 0.97345 0.07277 0.0
H186 H 0.17578 0.06529 0.23779 0.0
H187 H 0.14567 0.97901 0.17296 0.0
H188 H 0.0625 1.00069 0.32466 0.0
H189 H 0.10057 1.00221 0.19546 0.0
H190 H 0.15896 0.0467 0.40221 0.0
H191 H 0.12096 0.04515 0.53087 0.0
C192 C 0.20295 0.04207 0.14166 0.0
C193 C 0.20742 0.01608 0.09613 0.0
C194 C 0.17814 0.04529 0.20042 0.0
C195 C 0.15721 0.02257 0.21422 0.0
C196 C 0.16107 0.99704 0.16332 0.0
C197 C 0.186 0.99381 0.10566 0.0
C198 C 0.08337 0.01113 0.34196 0.0
C199 C 0.08879 0.02263 0.43826 0.0
C200 C 0.10523 0.0119 0.26805 0.0
C201 C 0.13293 0.02449 0.2883 0.0
C202 C 0.13787 0.03709 0.3834 0.0
C203 C 0.11612 0.03607 0.45749 0.0
H204 H 0.56283 0.20401 0.0824 0.0
H205 H 0.47124 0.20632 0.10987 0.0
H206 H 0.55974 0.16071 0.17671 0.0
H207 H 0.46779 0.16267 0.20422 0.0
H208 H 0.47466 0.0709 0.311 0.0
H209 H 0.47537 0.11101 0.20027 0.0
H210 H 0.54885 0.15069 0.35433 0.0
H211 H 0.54825 0.11097 0.46411 0.0
C212 C 0.54197 0.1949 0.10761 0.0
C213 C 0.51732 0.20848 0.08945 0.0
C214 C 0.54016 0.17023 0.16208 0.0
C215 C 0.51355 0.15841 0.19961 0.0
C216 C 0.4886 0.17114 0.17628 0.0
C217 C 0.4905 0.19602 0.12199 0.0
C218 C 0.4909 0.08823 0.32145 0.0
C219 C 0.51141 0.08758 0.39674 0.0
C220 C 0.49125 0.11125 0.25805 0.0
C221 C 0.51235 0.13398 0.2676 0.0
C222 C 0.5326 0.13337 0.34353 0.0
C223 C 0.53209 0.1106 0.40725 0.0
H224 H 0.34245 0.47106 0.05351 0.0
H225 H 0.31584 0.54942 0.16896 0.0
H226 H 0.38491 0.47662 0.1603 0.0
H227 H 0.35797 0.55529 0.27559 0.0
H228 H 0.40341 0.53025 0.5568 0.0
H229 H 0.36798 0.52836 0.42609 0.0
H230 H 0.43205 0.5064 0.20762 0.0
H231 H 0.46806 0.50904 0.33983 0.0
C232 C 0.34638 0.48996 0.09908 0.0
C233 C 0.32625 0.51004 0.10235 0.0
C234 C 0.37053 0.49313 0.16054 0.0
C235 C 0.37468 0.51624 0.22753 0.0
C236 C 0.35529 0.53707 0.22591 0.0
C237 C 0.33138 0.53397 0.16414 0.0
C238 C 0.41008 0.52502 0.48098 0.0
C239 C 0.43854 0.51937 0.45918 0.0
C240 C 0.38974 0.52413 0.40571 0.0
C241 C 0.39713 0.5174 0.30599 0.0
C242 C 0.42559 0.51149 0.28377 0.0
C243 C 0.44619 0.51277 0.35952 0.0
H244 H 0.04978 0.31239 0.18261 0.0
H245 H 0.96346 0.32817 0.11338 0.0
H246 H 0.055 0.35595 0.28432 0.0
H247 H 0.96819 0.3716 0.21491 0.0
H248 H 0.99218 0.45817 0.35143 0.0
H249 H 0.99287 0.41904 0.23067 0.0
H250 H 0.03456 0.37157 0.44612 0.0
H251 H 0.03412 0.41087 0.56633 0.0
C252 C 0.03221 0.32564 0.18765 0.0
C253 C 1.00634 0.31731 0.13997 0.0
C254 C 0.035 0.35035 0.24652 0.0
C255 C 1.01196 0.36726 0.2583 0.0
C256 C 0.98648 0.35932 0.20675 0.0
C257 C 0.98369 0.33453 0.14869 0.0
C258 C 1.00178 0.43949 0.37255 0.0
C259 C 1.01305 0.43756 0.4685 0.0
C260 C 1.00203 0.41699 0.30353 0.0
C261 C 0.0137 0.39208 0.32859 0.0
C262 C 0.02568 0.39052 0.42377 0.0
C263 C 0.02526 0.41296 0.493 0.0
H264 H 0.8225 0.97319 0.04426 0.0
H265 H 0.83759 0.06285 0.07606 0.0
H266 H 0.86731 0.97194 0.94425 0.0
H267 H 0.88206 0.06189 0.97646 0.0
H268 H 0.91879 0.04992 0.65305 0.0
H269 H 0.88311 0.04941 0.78827 0.0
H270 H 0.92461 0.98502 0.93378 0.0
H271 H 0.96111 0.9859 0.79717 0.0
C272 C 0.83602 0.99244 0.03296 0.0
C273 C 0.8267 0.01813 0.06739 0.0
C274 C 0.86156 0.9918 0.97559 0.0
C275 C 0.87801 0.01688 0.95131 0.0
C276 C 0.86972 0.04225 0.99287 0.0
C277 C 0.84441 0.04284 0.05032 0.0
C278 C 0.92055 0.03579 0.7142 0.0
C279 C 0.94288 0.01808 0.71476 0.0
C280 C 0.90016 0.03562 0.7921 0.0
C281 C 0.90112 0.01734 0.87228 0.0
C282 C 0.92339 0.9994 0.87314 0.0
C283 C 0.94434 1.00002 0.7955 0.0
H284 H 0.49871 0.84406 0.17025 0.0
H285 H 0.53067 0.79789 0.9175 0.0
H286 H 0.50452 0.88736 0.07354 0.0
H287 H 0.53614 0.84067 0.82014 0.0
H288 H 0.50012 0.91101 0.64461 0.0
H289 H 0.50041 0.87016 0.74929 0.0
H290 H 0.54105 0.9218 0.98413 0.0
H291 H 0.54094 0.96295 0.87871 0.0
C292 C 0.50753 0.84339 0.09473 0.0
C293 C 0.51411 0.81775 0.05087 0.0
C294 C 0.51079 0.86806 0.03922 0.0
C295 C 0.52044 0.8674 0.93856 0.0
C296 C 0.52819 0.84185 0.89675 0.0
C297 C 0.52518 0.8174 0.95238 0.0
C298 C 0.50926 0.91374 0.71832 0.0
C299 C 0.52057 0.94033 0.75293 0.0
C300 C 0.50956 0.89024 0.77825 0.0
C301 C 0.52085 0.89266 0.87506 0.0
C302 C 0.53209 0.91925 0.9101 0.0
C303 C 0.53219 0.94278 0.84939 0.0
H304 H 0.69995 0.54763 0.05377 0.0
H305 H 0.68671 0.45759 0.05013 0.0
H306 H 0.65728 0.54965 0.95055 0.0
H307 H 0.64432 0.45929 0.94729 0.0
H308 H 0.60726 0.47365 0.63726 0.0
H309 H 0.64223 0.47256 0.76862 0.0
H310 H 0.60254 0.53825 0.93187 0.0
H311 H 0.56722 0.53923 0.79866 0.0
C312 C 0.68731 0.52836 0.03351 0.0
C313 C 0.69655 0.50244 0.05948 0.0
C314 C 0.66297 0.52945 0.97418 0.0
C315 C 0.64761 0.5046 0.93921 0.0
C316 C 0.65589 0.47881 0.97134 0.0
C317 C 0.68001 0.47779 0.03072 0.0
C318 C 0.60576 0.48775 0.70147 0.0
C319 C 0.58419 0.50635 0.70791 0.0
C320 C 0.62575 0.48699 0.7773 0.0
C321 C 0.62511 0.50513 0.86156 0.0
C322 C 0.6036 0.52394 0.86815 0.0
C323 C 0.58318 0.52434 0.7924 0.0
H324 H 0.0527 0.69178 0.06322 0.0
H325 H 0.97145 0.71255 0.95635 0.0
H326 H 0.04882 0.64831 0.96175 0.0
H327 H 0.96697 0.66895 0.85498 0.0
H328 H 0.99305 0.61332 0.58376 0.0
H329 H 0.99094 0.65235 0.70397 0.0
H330 H 0.02326 0.60219 0.93292 0.0
H331 H 0.02575 0.56329 0.81186 0.0
C332 C 0.03359 0.68642 0.02007 0.0
C333 C 1.01217 0.70504 0.01815 0.0
C334 C 0.03131 0.66163 0.96182 0.0
C335 C 1.00763 0.65512 0.89953 0.0
C336 C 0.98564 0.67341 0.90106 0.0
C337 C 0.98794 0.69814 0.95978 0.0
C338 C 0.9995 0.61058 0.65995 0.0
C339 C 1.0097 0.5853 0.68816 0.0
C340 C 0.9981 0.63288 0.7292 0.0
C341 C 1.00695 0.63049 0.8284 0.0
C342 C 0.01656 0.6049 0.85702 0.0
C343 C 0.01785 0.58255 0.78778 0.0
H344 H 0.9576 0.2021 0.98893 0.0
H345 H 0.01401 0.22123 0.23617 0.0
H346 H 0.95861 0.1516 0.01799 0.0
H347 H 0.01496 0.17124 0.26631 0.0
H348 H 0.04287 0.08709 0.22027 0.0
H349 H 0.03698 0.133 0.15291 0.0
H350 H 0.94493 0.11501 0.16522 0.0
H351 H 0.95079 0.06877 0.2323 0.0
C352 C 0.96946 0.19536 0.05122 0.0
C353 C 0.98546 0.21521 0.11136 0.0
C354 C 0.97023 0.16668 0.06726 0.0
C355 C 0.98731 0.15769 0.14298 0.0
C356 C 1.00205 0.17769 0.2062 0.0
C357 C 1.00109 0.20619 0.19055 0.0
C358 C 0.02141 0.09251 0.2052 0.0
C359 C 0.99727 0.07471 0.23309 0.0
C360 C 0.01805 0.11882 0.16747 0.0
C361 C 0.9905 0.12769 0.15704 0.0
C362 C 0.96637 0.10863 0.17351 0.0
C363 C 0.96975 0.08219 0.21144 0.0
H364 H 0.2904 0.94442 0.10506 0.0
H365 H 0.32828 0.02928 0.07806 0.0
H366 H 0.33639 0.93019 0.16372 0.0
H367 H 0.37414 0.01525 0.13257 0.0
H368 H 0.45753 0.98357 0.17073 0.0
H369 H 0.41328 0.98372 0.07706 0.0
H370 H 0.36539 0.94409 0.32298 0.0
H371 H 0.40956 0.94392 0.41653 0.0
C372 C 0.30868 0.95985 0.11124 0.0
C373 C 0.30618 0.98781 0.08689 0.0
C374 C 0.33487 0.95176 0.14375 0.0
C375 C 0.35887 0.97153 0.15066 0.0
C376 C 0.35621 0.99943 0.12534 0.0
C377 C 0.33005 1.00752 0.09477 0.0
C378 C 0.43771 0.97402 0.20321 0.0
C379 C 0.43675 0.96418 0.30125 0.0
C380 C 0.41243 0.97421 0.14988 0.0
C381 C 0.38597 0.96434 0.19373 0.0
C382 C 0.38553 0.95176 0.28748 0.0
C383 C 0.41077 0.95176 0.34108 0.0
H384 H 0.50648 0.30676 0.20115 0.0
H385 H 0.56578 0.32279 0.954 0.0
H386 H 0.50672 0.35708 0.23609 0.0
H387 H 0.56601 0.37363 0.98779 0.0
H388 H 0.57515 0.45673 0.21497 0.0
H389 H 0.57964 0.4104 0.13739 0.0
H390 H 0.48732 0.39575 0.13014 0.0
H391 H 0.48281 0.44171 0.2084 0.0
C392 C 0.52024 0.32121 0.15652 0.0
C393 C 0.53645 0.31125 0.07629 0.0
C394 C 0.51997 0.34989 0.17484 0.0
C395 C 0.53593 0.36911 0.11307 0.0
C396 C 0.55345 0.35915 0.03592 0.0
C397 C 0.55354 0.33029 0.01728 0.0
C398 C 0.55589 0.44406 0.19281 0.0
C399 C 0.52863 0.45236 0.21938 0.0
C400 C 0.55847 0.41756 0.14885 0.0
C401 C 0.5338 0.39936 0.13108 0.0
C402 C 0.50663 0.40925 0.14567 0.0
C403 C 0.50406 0.43557 0.18965 0.0
H404 H 0.23018 0.52997 0.20178 0.0
H405 H 0.20531 0.46277 0.99296 0.0
H406 H 0.17987 0.53622 0.23868 0.0
H407 H 0.15465 0.46995 0.0242 0.0
H408 H 0.06994 0.47222 0.21746 0.0
H409 H 0.11729 0.46484 0.14914 0.0
H410 H 0.1401 0.55431 0.1595 0.0
H411 H 0.09294 0.56153 0.23236 0.0
C412 C 0.21376 0.51614 0.16566 0.0
C413 C 0.22132 0.49569 0.09579 0.0
C414 C 0.185 0.52019 0.18433 0.0
C415 C 0.16324 0.50405 0.13243 0.0
C416 C 0.17087 0.48273 0.06539 0.0
C417 C 0.19971 0.47849 0.04782 0.0
C418 C 0.08478 0.49038 0.20234 0.0
C419 C 0.07813 0.5174 0.23218 0.0
C420 C 0.11196 0.48614 0.16314 0.0
C421 C 0.13277 0.50892 0.15218 0.0
C422 C 0.12481 0.53625 0.17063 0.0
C423 C 0.0977 0.54046 0.21089 0.0
H424 H 1.00099 0.80456 0.93759 0.0
H425 H 0.07017 0.81634 0.14548 0.0
H426 H 1.00603 0.85482 0.90343 0.0
H427 H 0.07586 0.86689 0.11032 0.0
H428 H 0.08818 0.94255 0.86079 0.0
H429 H 0.08797 0.89639 0.93546 0.0
H430 H 0.99926 0.90012 0.02594 0.0
H431 H 0.99946 0.94635 0.9527 0.0
C432 C 0.0177 0.81801 0.97386 0.0
C433 C 0.03557 0.80697 0.04234 0.0
C434 C 0.02032 0.84663 0.95588 0.0
C435 C 0.04109 0.86456 0.00542 0.0
C436 C 0.05965 0.85337 0.07173 0.0
C437 C 0.05663 0.82468 0.09101 0.0
C438 C 0.06898 0.93394 0.89988 0.0
C439 C 0.04371 0.94772 0.89983 0.0
C440 C 0.06889 0.90759 0.94246 0.0
C441 C 0.04345 0.89472 0.98442 0.0
C442 C 0.019 0.90965 0.99276 0.0
C443 C 0.01919 0.9361 0.95138 0.0
H444 H 0.70457 0.99747 0.06756 0.0
H445 H 0.73987 0.08363 0.06874 0.0
H446 H 0.65877 0.01133 0.01169 0.0
H447 H 0.69421 0.09764 0.00584 0.0
H448 H 0.57449 0.04478 0.97806 0.0
H449 H 0.61807 0.04438 0.07556 0.0
H450 H 0.66824 0.08147 0.83013 0.0
H451 H 0.6248 0.08145 0.73184 0.0
C452 C 0.70216 0.01947 0.05822 0.0
C453 C 0.72526 0.0396 0.07468 0.0
C454 C 0.6761 0.02742 0.02583 0.0
C455 C 0.67294 0.0556 0.00632 0.0
C456 C 0.69614 0.07584 0.02173 0.0
C457 C 0.72211 0.06789 0.05683 0.0
C458 C 0.59468 0.0537 0.94629 0.0
C459 C 0.59647 0.06281 0.84721 0.0
C460 C 0.61954 0.05343 1.00193 0.0
C461 C 0.64636 0.06271 0.9597 0.0
C462 C 0.64774 0.07439 0.86434 0.0
C463 C 0.62294 0.07426 0.80812 0.0
H464 H 0.51255 0.722 0.95714 0.0
H465 H 0.45792 0.70673 0.21733 0.0
H466 H 0.51148 0.67168 0.92264 0.0
H467 H 0.45699 0.65577 0.18375 0.0
H468 H 0.44676 0.57224 0.94737 0.0
H469 H 0.44142 0.61834 0.02611 0.0
H470 H 0.53356 0.63411 0.03701 0.0
H471 H 0.53896 0.5884 0.95805 0.0
C472 C 0.4995 0.70776 0.00475 0.0
C473 C 0.48503 0.71797 0.08885 0.0
C474 C 0.49933 0.67907 0.98646 0.0
C475 C 0.48464 0.66003 0.05195 0.0
C476 C 0.46859 0.67015 0.13278 0.0
C477 C 0.46892 0.69908 0.15143 0.0
C478 C 0.4658 0.58508 0.97069 0.0
C479 C 0.49329 0.57718 0.94502 0.0
C480 C 0.46271 0.61142 0.01538 0.0
C481 C 0.48711 0.62983 0.03473 0.0
C482 C 0.51448 0.62035 0.02078 0.0
C483 C 0.51755 0.5942 0.97618 0.0
H484 H 0.8016 0.52263 0.96855 0.0
H485 H 0.80502 0.45577 0.17572 0.0
H486 H 0.85312 0.52227 0.93364 0.0
H487 H 0.85696 0.45523 0.14182 0.0
H488 H 0.9379 0.44737 0.91114 0.0
H489 H 0.88985 0.44476 0.98801 0.0
H490 H 0.89815 0.53451 0.03676 0.0
H491 H 0.94602 0.5372 0.95922 0.0
C492 C 0.81349 0.50746 0.0046 0.0
C493 C 0.79969 0.48887 0.0729 0.0
C494 C 0.84291 0.50756 0.98651 0.0
C495 C 0.859 0.48902 0.03651 0.0
C496 C 0.84498 0.46976 0.10271 0.0
C497 C 0.81546 0.46985 0.12133 0.0
C498 C 0.92985 0.46639 0.9416 0.0
C499 C 0.94529 0.49256 0.92755 0.0
C500 C 0.90237 0.46488 0.98545 0.0
C501 C 0.89015 0.48953 0.01551 0.0
C502 C 0.90696 0.5153 0.01187 0.0
C503 C 0.93438 0.5168 0.96824 0.0
H504 H 0.98696 0.23585 0.82131 0.0
H505 H 0.05116 0.21998 0.0324 0.0
H506 H 0.99475 0.19196 0.73118 0.0
H507 H 0.05946 0.17606 0.94298 0.0
H508 H 0.03019 0.08362 0.8585 0.0
H509 H 0.03123 0.13111 0.929 0.0
H510 H 0.02584 0.16357 0.63216 0.0
H511 H 0.02422 0.11607 0.56164 0.0
C512 C 1.00375 0.22352 0.84518 0.0
C513 C 0.01882 0.23138 0.93233 0.0
C514 C 1.00808 0.19823 0.79447 0.0
C515 C 0.02749 0.18018 0.83049 0.0
C516 C 0.04403 0.18917 0.9139 0.0
C517 C 0.03977 0.21454 0.96404 0.0
C518 C 0.02949 0.10086 0.80799 0.0
C519 C 0.02704 0.09584 0.70421 0.0
C520 C 0.03029 0.1282 0.84847 0.0
C521 C 0.02873 0.1513 0.78631 0.0
C522 C 0.02681 0.14632 0.68242 0.0
C523 C 0.026 0.119 0.64194 0.0
H524 H 0.30119 0.06078 0.90151 0.0
H525 H 0.30454 0.97151 0.87429 0.0
H526 H 0.34682 0.06792 0.80813 0.0
H527 H 0.35076 0.97804 0.78828 0.0
H528 H 0.43195 0.99283 0.61077 0.0
H529 H 0.38129 0.98936 0.65847 0.0
H530 H 0.39517 0.06665 0.83204 0.0
H531 H 0.44526 0.07092 0.77724 0.0
C532 C 0.31136 0.04269 0.87293 0.0
C533 C 0.29932 0.01559 0.89474 0.0
C534 C 0.33792 0.04668 0.82135 0.0
C535 C 0.35325 0.02362 0.7915 0.0
C536 C 0.33996 0.9965 0.80806 0.0
C537 C 0.31332 0.99262 0.85783 0.0
C538 C 0.42403 1.00929 0.65759 0.0
C539 C 0.44273 0.0321 0.69 0.0
C540 C 0.39488 1.0072 0.68627 0.0
C541 C 0.38364 0.02754 0.75066 0.0
C542 C 0.40245 0.0507 0.78123 0.0
C543 C 0.43144 0.05307 0.75053 0.0
H544 H 0.53557 0.29 0.78528 0.0
H545 H 0.47062 0.30687 0.00551 0.0
H546 H 0.5292 0.33425 0.70444 0.0
H547 H 0.46382 0.3512 0.92562 0.0
H548 H 0.50206 0.41093 0.55145 0.0
H549 H 0.4994 0.36343 0.6137 0.0
H550 H 0.49262 0.39593 0.91675 0.0
H551 H 0.49477 0.44352 0.85454 0.0
C552 C 0.51888 0.3026 0.81309 0.0
C553 C 0.50319 0.29485 0.90016 0.0
C554 C 0.51541 0.32815 0.76777 0.0
C555 C 0.49624 0.34663 0.80918 0.0
C556 C 0.47908 0.33779 0.8924 0.0
C557 C 0.48247 0.31216 0.93704 0.0
C558 C 0.49976 0.40806 0.63143 0.0
C559 C 0.49866 0.4313 0.69776 0.0
C560 C 0.49836 0.38069 0.66717 0.0
C561 C 0.49576 0.37567 0.77034 0.0
C562 C 0.49412 0.39885 0.83667 0.0
C563 C 0.49554 0.42626 0.80092 0.0
H564 H 0.24274 0.47441 0.80556 0.0
H565 H 0.22836 0.55006 0.97159 0.0
H566 H 0.1971 0.47655 0.71993 0.0
H567 H 0.18248 0.55213 0.88852 0.0
H568 H 0.08708 0.51727 0.84997 0.0
H569 H 0.13642 0.52008 0.90822 0.0
H570 H 0.16682 0.50424 0.60672 0.0
H571 H 0.11745 0.50166 0.54789 0.0
C572 C 0.23046 0.49224 0.81986 0.0
C573 C 0.23923 0.51226 0.89409 0.0
C574 C 0.2041 0.49329 0.77213 0.0
C575 C 0.18581 0.51421 0.79882 0.0
C576 C 0.1958 0.53551 0.86718 0.0
C577 C 0.22231 0.53468 0.91334 0.0
C578 C 0.10421 0.51432 0.79591 0.0
C579 C 0.09812 0.50923 0.69407 0.0
C580 C 0.13258 0.51619 0.82924 0.0
C581 C 0.15569 0.51267 0.76198 0.0
C582 C 0.14959 0.50708 0.66049 0.0
C583 C 0.12124 0.50564 0.62683 0.0
H584 H 0.04007 0.78896 0.32438 0.0
H585 H 0.96871 0.80178 0.1394 0.0
H586 H 0.03393 0.83313 0.41509 0.0
H587 H 0.96198 0.84597 0.22979 0.0
H588 H 0.9916 0.93946 0.30034 0.0
H589 H 0.98913 0.89167 0.23212 0.0
H590 H 1.00505 0.86101 0.52493 0.0
H591 H 1.00807 0.90881 0.59296 0.0
C592 C 0.02219 0.8007 0.30674 0.0
C593 C 1.00445 0.79183 0.22689 0.0
C594 C 0.01876 0.82613 0.35779 0.0
C595 C 0.99761 0.84337 0.32922 0.0
C596 C 0.97872 0.83348 0.25306 0.0
C597 C 0.98213 0.80797 0.20255 0.0
C598 C 0.99426 0.92255 0.35059 0.0
C599 C 1.00016 0.92818 0.45225 0.0
C600 C 0.99267 0.89503 0.31149 0.0
C601 C 0.99687 0.87235 0.37296 0.0
C602 C 1.00202 0.87792 0.4751 0.0
C603 C 1.00363 0.90542 0.5142 0.0
H604 H 0.72344 0.96635 0.20977 0.0
H605 H 0.73594 0.05113 0.32307 0.0
H606 H 0.67662 0.9605 0.2945 0.0
H607 H 0.69047 0.04514 0.41612 0.0
H608 H 0.5934 0.04233 0.44665 0.0
H609 H 0.64322 0.04533 0.39057 0.0
H610 H 0.64393 0.95567 0.42188 0.0
H611 H 0.59318 0.95279 0.47041 0.0
C612 C 0.71664 0.98325 0.25737 0.0
C613 C 0.73319 1.00912 0.26043 0.0
C614 C 0.68964 0.98008 0.306 0.0
C615 C 0.67887 1.00256 0.36131 0.0
C616 C 0.69705 0.02758 0.37161 0.0
C617 C 0.72356 0.03092 0.32043 0.0
C618 C 0.6043 0.0233 0.44199 0.0
C619 C 0.5893 0.99731 0.46236 0.0
C620 C 0.63319 0.02497 0.4106 0.0
C621 C 0.64831 1.00075 0.40122 0.0
C622 C 0.63331 0.97483 0.4255 0.0
C623 C 0.60415 0.97312 0.45441 0.0
H624 H 0.48974 0.73967 0.37667 0.0
H625 H 0.55243 0.72122 0.15034 0.0
H626 H 0.49632 0.69565 0.45858 0.0
H627 H 0.5596 0.67718 0.23162 0.0
H628 H 0.52885 0.58551 0.30929 0.0
H629 H 0.53115 0.63285 0.2454 0.0
H630 H 0.52585 0.66634 0.54761 0.0
H631 H 0.52291 0.61899 0.61158 0.0
C632 C 0.506 0.72674 0.34759 0.0
C633 C 0.52098 0.73398 0.25865 0.0
C634 C 0.50963 0.70134 0.39364 0.0
C635 C 0.52826 0.68252 0.35118 0.0
C636 C 0.54475 0.69085 0.26576 0.0
C637 C 0.54116 0.71631 0.22023 0.0
C638 C 0.52845 0.60293 0.3624 0.0
C639 C 0.5256 0.5982 0.46583 0.0
C640 C 0.52996 0.63021 0.32564 0.0
C641 C 0.52877 0.65361 0.39118 0.0
C642 C 0.52652 0.64891 0.49468 0.0
C643 C 0.52495 0.62164 0.53143 0.0
H644 H 0.77614 0.4797 0.35724 0.0
H645 H 0.80283 0.55123 0.17952 0.0
H646 H 0.82211 0.48495 0.44324 0.0
H647 H 0.84887 0.55686 0.26462 0.0
H648 H 0.93913 0.52805 0.3148 0.0
H649 H 0.89052 0.52958 0.25495 0.0
H650 H 0.8565 0.51231 0.55215 0.0
H651 H 0.90524 0.51042 0.61214 0.0
C652 C 0.79135 0.49743 0.3405 0.0
C653 C 0.78575 0.51542 0.26344 0.0
C654 C 0.81787 0.5003 0.38868 0.0
C655 C 0.83953 0.52109 0.35998 0.0
C656 C 0.83297 0.54034 0.28779 0.0
C657 C 0.80639 0.53755 0.24043 0.0
C658 C 0.92137 0.52474 0.36785 0.0
C659 C 0.92634 0.5191 0.46857 0.0
C660 C 0.89338 0.52584 0.33353 0.0
C661 C 0.86941 0.52129 0.39873 0.0
C662 C 0.87435 0.51579 0.49959 0.0
C663 C 0.9024 0.51481 0.53409 0.0
loop_
_geom_bond_atom_site_label_1
_geom_bond_atom_site_label_2
_geom_bond_distance
_geom_bond_site_symmetry_2
_ccdc_geom_bond_type
C0 N1 1.317 . S
C0 N2 1.348 . S
C0 C3 1.485 . S
N1 C0 1.317 . S
N1 N5 1.370 . S
N2 C0 1.348 . S
N2 C4 1.346 . S
C3 C0 1.485 . S
C3 H7 0.960 . S
C3 H8 0.961 . S
C3 H9 0.960 . S
C4 N2 1.346 . S
C4 N5 1.307 . S
C4 C6 1.486 1_554 S
N5 N1 1.370 . S
N5 C4 1.307 . S
C6 C4 1.486 1_556 S
C6 H10 0.960 . S
C6 H11 0.960 . S
C6 H12 0.959 . S
H7 C3 0.960 . S
H8 C3 0.961 . S
H9 C3 0.960 . S
H10 C6 0.960 . S
H11 C6 0.960 . S
H12 C6 0.959 . S
C13 N14 1.317 . S
C13 N15 1.351 . S
C13 C16 1.485 . S
N14 C13 1.317 . S
N14 N18 1.370 . S
N15 C13 1.351 . S
N15 C17 1.349 1_654 S
C16 C13 1.485 . S
C16 H20 0.960 1_655 S
C16 H21 0.961 . S
C16 H22 0.960 . S
C17 N15 1.349 1_456 S
C17 N18 1.306 1_456 S
C17 C19 1.486 . S
N18 N14 1.370 . S
N18 C17 1.306 1_654 S
C19 C17 1.486 . S
C19 H23 0.960 1_455 S
C19 H24 0.960 . S
C19 H25 0.959 . S
H20 C16 0.960 1_455 S
H21 C16 0.961 . S
H22 C16 0.960 . S
H23 C19 0.960 1_655 S
H24 C19 0.960 . S
H25 C19 0.959 . S
C26 N27 1.317 . S
C26 N28 1.348 . S
C26 C29 1.485 . S
N27 C26 1.317 . S
N27 N31 1.370 . S
N28 C26 1.348 . S
N28 C30 1.346 1_554 S
C29 C26 1.485 . S
C29 H33 0.960 . S
C29 H34 0.961 . S
C29 H35 0.960 . S
C30 N28 1.346 1_556 S
C30 N31 1.307 1_556 S
C30 C32 1.486 . S
N31 N27 1.370 . S
N31 C30 1.307 1_554 S
C32 C30 1.486 . S
C32 H36 0.960 . S
C32 H37 0.960 . S
C32 H38 0.959 . S
H33 C29 0.960 . S
H34 C29 0.961 . S
H35 C29 0.960 . S
H36 C32 0.960 . S
H37 C32 0.960 . S
H38 C32 0.959 . S
C39 N40 1.317 . S
C39 N41 1.348 . S
C39 C42 1.485 . S
N40 C39 1.317 . S
N40 N44 1.370 . S
N41 C39 1.348 . S
N41 C43 1.346 . S
C42 C39 1.485 . S
C42 H46 0.960 . S
C42 H47 0.961 . S
C42 H48 0.960 . S
C43 N41 1.346 . S
C43 N44 1.307 . S
C43 C45 1.486 1_554 S
N44 N40 1.370 . S
N44 C43 1.307 . S
C45 C43 1.486 1_556 S
C45 H49 0.960 . S
C45 H50 0.960 . S
C45 H51 0.959 . S
H46 C42 0.960 . S
H47 C42 0.961 . S
H48 C42 0.960 . S
H49 C45 0.960 . S
H50 C45 0.960 . S
H51 C45 0.959 . S
C52 N53 1.317 1_556 S
C52 N54 1.348 1_556 S
C52 C55 1.485 . S
N53 C52 1.317 1_554 S
N53 N57 1.379 . S
N54 C52 1.348 1_554 S
N54 C56 1.346 . S
C55 C52 1.485 . S
C55 H59 0.960 . S
C55 H60 0.961 . S
C55 H61 0.960 . S
C56 N54 1.346 . S
C56 N57 1.307 . S
C56 C58 1.486 . S
N57 N53 1.379 . S
N57 C56 1.307 . S
C58 C56 1.486 . S
C58 H62 0.960 . S
C58 H63 0.960 . S
C58 H64 0.959 . S
H59 C55 0.960 . S
H60 C55 0.961 . S
H61 C55 0.960 . S
H62 C58 0.960 . S
H63 C58 0.960 . S
H64 C58 0.959 . S
C65 N66 1.317 . S
C65 N67 1.349 . S
C65 C68 1.485 1_554 S
N66 C65 1.317 . S
N66 N70 1.371 . S
N67 C65 1.349 . S
N67 C69 1.342 1_655 S
C68 C65 1.485 1_556 S
C68 H72 0.960 1_655 S
C68 H73 0.961 . S
C68 H74 0.960 . S
C69 N67 1.342 1_455 S
C69 N70 1.308 1_455 S
C69 C71 1.487 . S
N70 N66 1.371 . S
N70 C69 1.308 1_655 S
C71 C69 1.487 . S
C71 H75 0.960 1_455 S
C71 H76 0.960 . S
C71 H77 0.959 . S
H72 C68 0.960 1_455 S
H73 C68 0.961 . S
H74 C68 0.960 . S
H75 C71 0.960 1_655 S
H76 C71 0.960 . S
H77 C71 0.959 . S
C78 N79 1.317 . S
C78 N80 1.348 . S
C78 C81 1.485 1_554 S
N79 C78 1.317 . S
N79 N83 1.370 . S
N80 C78 1.348 . S
N80 C82 1.346 . S
C81 C78 1.485 1_556 S
C81 H85 0.960 . S
C81 H86 0.961 . S
C81 H87 0.960 . S
C82 N80 1.346 . S
C82 N83 1.307 . S
C82 C84 1.486 . S
N83 N79 1.370 . S
N83 C82 1.307 . S
C84 C82 1.486 . S
C84 H88 0.960 . S
C84 H89 0.960 . S
C84 H90 0.959 . S
H85 C81 0.960 . S
H86 C81 0.961 . S
H87 C81 0.960 . S
H88 C84 0.960 . S
H89 C84 0.960 . S
H90 C84 0.959 . S
C91 N92 1.317 . S
C91 N93 1.348 1_556 S
C91 C94 1.485 . S
N92 C91 1.317 . S
N92 N96 1.370 1_556 S
N93 C91 1.348 1_554 S
N93 C95 1.346 . S
C94 C91 1.485 . S
C94 H98 0.960 . S
C94 H99 0.961 . S
C94 H100 0.960 . S
C95 N93 1.346 . S
C95 N96 1.307 . S
C95 C97 1.486 . S
N96 N92 1.370 1_554 S
N96 C95 1.307 . S
C97 C95 1.486 . S
C97 H101 0.960 . S
C97 H102 0.960 . S
C97 H103 0.959 . S
H98 C94 0.960 . S
H99 C94 0.961 . S
H100 C94 0.960 . S
H101 C97 0.960 . S
H102 C97 0.960 . S
H103 C97 0.959 . S
Dy104 O108 2.398 . S
Dy104 O109 2.491 1_455 S
Dy104 O110 2.403 . S
Dy104 O111 2.664 1_565 S
Dy104 O115 2.326 . S
Dy104 O119 2.310 1_455 S
Dy104 O120 2.351 1_565 S
C105 O116 1.185 . S
C105 O117 1.355 1_655 S
C106 O108 1.185 . S
C106 O109 1.355 1_455 S
Dy107 O111 2.310 1_655 S
Dy107 O114 2.351 1_545 S
Dy107 O116 2.398 . S
Dy107 O117 2.491 1_655 S
Dy107 O118 2.403 . S
Dy107 O119 2.664 1_545 S
Dy107 O121 2.326 . S
O108 Dy104 2.398 . S
O108 C106 1.185 . S
O109 Dy104 2.491 1_655 S
O109 C106 1.355 1_655 S
O110 Dy104 2.403 . S
O110 C112 1.254 1_565 S
O111 Dy104 2.664 1_545 S
O111 Dy107 2.310 1_455 S
O111 C112 1.268 . S
C112 O110 1.254 1_545 S
C112 O111 1.268 . S
C113 O118 1.254 1_565 S
C113 O119 1.268 . S
O114 Dy107 2.351 1_565 S
O114 C122 1.249 . S
O115 Dy104 2.326 . S
O115 C122 1.267 1_455 S
O116 C105 1.185 . S
O116 Dy107 2.398 . S
O117 C105 1.355 1_455 S
O117 Dy107 2.491 1_455 S
O118 Dy107 2.403 . S
O118 C113 1.254 1_545 S
O119 Dy104 2.310 1_655 S
O119 Dy107 2.664 1_565 S
O119 C113 1.268 . S
O120 Dy104 2.351 1_545 S
O120 C123 1.249 . S
O121 Dy107 2.326 . S
O121 C123 1.267 1_655 S
C122 O114 1.249 . S
C122 O115 1.267 1_655 S
C123 O120 1.249 . S
C123 O121 1.267 1_455 S
Dy124 O128 2.398 . S
Dy124 O129 2.491 1_565 S
Dy124 O130 2.403 . S
Dy124 O131 2.664 . S
Dy124 O135 2.326 1_565 S
Dy124 O139 2.310 1_565 S
Dy124 O140 2.351 . S
C125 O136 1.185 . S
C125 O137 1.355 1_545 S
C126 O128 1.185 1_545 S
C126 O129 1.355 . S
Dy127 O131 2.310 1_545 S
Dy127 O134 2.351 . S
Dy127 O136 2.398 . S
Dy127 O137 2.491 1_545 S
Dy127 O138 2.403 . S
Dy127 O139 2.664 . S
Dy127 O141 2.326 1_545 S
O128 Dy124 2.398 . S
O128 C126 1.185 1_565 S
O129 Dy124 2.491 1_545 S
O129 C126 1.355 . S
O130 Dy124 2.403 . S
O130 C132 1.254 . S
O131 Dy124 2.664 . S
O131 Dy127 2.310 1_565 S
O131 C132 1.268 . S
C132 O130 1.254 . S
C132 O131 1.268 . S
C133 O138 1.254 . S
C133 O139 1.268 . S
O134 Dy127 2.351 . S
O134 C142 1.249 . S
O135 Dy124 2.326 1_545 S
O135 C142 1.267 . S
O136 C125 1.185 . S
O136 Dy127 2.398 . S
O137 C125 1.355 1_565 S
O137 Dy127 2.491 1_565 S
O138 Dy127 2.403 . S
O138 C133 1.254 . S
O139 Dy124 2.310 1_545 S
O139 Dy127 2.664 . S
O139 C133 1.268 . S
O140 Dy124 2.351 . S
O140 C143 1.249 . S
O141 Dy127 2.326 1_565 S
O141 C143 1.267 . S
C142 O134 1.249 . S
C142 O135 1.267 . S
C143 O140 1.249 . S
C143 O141 1.267 . S
Dy144 O148 2.398 . S
Dy144 O149 2.491 . S
Dy144 O150 2.403 . S
Dy144 O151 2.664 . S
Dy144 O155 2.326 . S
Dy144 O159 2.310 . S
Dy144 O160 2.351 . S
C145 O156 1.185 . S
C145 O157 1.355 . S
C146 O148 1.185 . S
C146 O149 1.355 . S
Dy147 O151 2.310 . S
Dy147 O154 2.351 . S
Dy147 O156 2.398 . S
Dy147 O157 2.491 . S
Dy147 O158 2.403 . S
Dy147 O159 2.664 . S
Dy147 O161 2.326 . S
O148 Dy144 2.398 . S
O148 C146 1.185 . S
O149 Dy144 2.491 . S
O149 C146 1.355 . S
O150 Dy144 2.403 . S
O150 C152 1.254 . S
O151 Dy144 2.664 . S
O151 Dy147 2.310 . S
O151 C152 1.268 . S
C152 O150 1.254 . S
C152 O151 1.268 . S
C153 O158 1.254 . S
C153 O159 1.268 . S
O154 Dy147 2.351 . S
O154 C162 1.249 . S
O155 Dy144 2.326 . S
O155 C162 1.267 . S
O156 C145 1.185 . S
O156 Dy147 2.398 . S
O157 C145 1.355 . S
O157 Dy147 2.491 . S
O158 Dy147 2.403 . S
O158 C153 1.254 . S
O159 Dy144 2.310 . S
O159 Dy147 2.664 . S
O159 C153 1.268 . S
O160 Dy144 2.351 . S
O160 C163 1.249 . S
O161 Dy147 2.326 . S
O161 C163 1.267 . S
C162 O154 1.249 . S
C162 O155 1.267 . S
C163 O160 1.249 . S
C163 O161 1.267 . S
Dy164 O168 2.398 . S
Dy164 O169 2.491 . S
Dy164 O170 2.403 . S
Dy164 O171 2.664 1_655 S
Dy164 O175 2.326 . S
Dy164 O179 2.310 . S
Dy164 O180 2.351 1_655 S
C165 O176 1.185 . S
C165 O177 1.355 . S
C166 O168 1.185 . S
C166 O169 1.355 . S
Dy167 O171 2.310 . S
Dy167 O174 2.351 1_455 S
Dy167 O176 2.398 . S
Dy167 O177 2.491 . S
Dy167 O178 2.403 . S
Dy167 O179 2.664 1_455 S
Dy167 O181 2.326 . S
O168 Dy164 2.398 . S
O168 C166 1.185 . S
O169 Dy164 2.491 . S
O169 C166 1.355 . S
O170 Dy164 2.403 . S
O170 C172 1.254 . S
O171 Dy164 2.664 1_455 S
O171 Dy167 2.310 . S
O171 C172 1.268 1_455 S
C172 O170 1.254 . S
C172 O171 1.268 1_655 S
C173 O178 1.254 . S
C173 O179 1.268 1_455 S
O174 Dy167 2.351 1_655 S
O174 C182 1.249 . S
O175 Dy164 2.326 . S
O175 C182 1.267 . S
O176 C165 1.185 . S
O176 Dy167 2.398 . S
O177 C165 1.355 . S
O177 Dy167 2.491 . S
O178 Dy167 2.403 . S
O178 C173 1.254 . S
O179 Dy164 2.310 . S
O179 Dy167 2.664 1_655 S
O179 C173 1.268 1_655 S
O180 Dy164 2.351 1_455 S
O180 C183 1.249 . S
O181 Dy167 2.326 . S
O181 C183 1.267 . S
C182 O174 1.249 . S
C182 O175 1.267 . S
C183 O180 1.249 . S
C183 O181 1.267 . S
H184 C192 0.950 . S
H185 C197 0.950 . S
H186 C194 0.950 . S
H187 C196 0.950 . S
H188 C198 0.950 . S
H189 C200 0.950 . S
H190 C202 0.950 . S
H191 C203 0.950 . S
C192 H184 0.950 . S
C192 C193 1.386 . S
C192 C194 1.391 . S
C193 C192 1.386 . S
C193 C197 1.393 . S
C194 H186 0.950 . S
C194 C192 1.391 . S
C194 C195 1.400 . S
C195 C194 1.400 . S
C195 C196 1.398 . S
C195 C201 1.491 . S
C196 H187 0.950 . S
C196 C195 1.398 . S
C196 C197 1.391 . S
C197 H185 0.950 . S
C197 C193 1.393 . S
C197 C196 1.391 . S
C198 H188 0.950 . S
C198 C199 1.386 . S
C198 C200 1.391 . S
C199 C198 1.386 . S
C199 C203 1.393 . S
C200 H189 0.950 . S
C200 C198 1.391 . S
C200 C201 1.400 . S
C201 C195 1.491 . S
C201 C200 1.400 . S
C201 C202 1.398 . S
C202 H190 0.950 . S
C202 C201 1.398 . S
C202 C203 1.391 . S
C203 H191 0.950 . S
C203 C199 1.393 . S
C203 C202 1.391 . S
H204 C212 0.950 . S
H205 C217 0.950 . S
H206 C214 0.950 . S
H207 C216 0.950 . S
H208 C218 0.950 . S
H209 C220 0.950 . S
H210 C222 0.950 . S
H211 C223 0.950 . S
C212 H204 0.950 . S
C212 C213 1.386 . S
C212 C214 1.391 . S
C213 C212 1.386 . S
C213 C217 1.393 . S
C214 H206 0.950 . S
C214 C212 1.391 . S
C214 C215 1.400 . S
C215 C214 1.400 . S
C215 C216 1.398 . S
C215 C221 1.491 . S
C216 H207 0.950 . S
C216 C215 1.398 . S
C216 C217 1.391 . S
C217 H205 0.950 . S
C217 C213 1.393 . S
C217 C216 1.391 . S
C218 H208 0.950 . S
C218 C219 1.386 . S
C218 C220 1.391 . S
C219 C218 1.386 . S
C219 C223 1.393 . S
C220 H209 0.950 . S
C220 C218 1.391 . S
C220 C221 1.400 . S
C221 C215 1.491 . S
C221 C220 1.400 . S
C221 C222 1.398 . S
C222 H210 0.950 . S
C222 C221 1.398 . S
C222 C223 1.391 . S
C223 H211 0.950 . S
C223 C219 1.393 . S
C223 C222 1.391 . S
H224 C232 0.950 . S
H225 C237 0.950 . S
H226 C234 0.950 . S
H227 C236 0.950 . S
H228 C238 0.950 . S
H229 C240 0.950 . S
H230 C242 0.950 . S
H231 C243 0.950 . S
C232 H224 0.950 . S
C232 C233 1.386 . S
C232 C234 1.391 . S
C233 C232 1.386 . S
C233 C237 1.393 . S
C234 H226 0.950 . S
C234 C232 1.391 . S
C234 C235 1.400 . S
C235 C234 1.400 . S
C235 C236 1.398 . S
C235 C241 1.491 . S
C236 H227 0.950 . S
C236 C235 1.398 . S
C236 C237 1.391 . S
C237 H225 0.950 . S
C237 C233 1.393 . S
C237 C236 1.391 . S
C238 H228 0.950 . S
C238 C239 1.386 . S
C238 C240 1.391 . S
C239 C238 1.386 . S
C239 C243 1.393 . S
C240 H229 0.950 . S
C240 C238 1.391 . S
C240 C241 1.400 . S
C241 C235 1.491 . S
C241 C240 1.400 . S
C241 C242 1.398 . S
C242 H230 0.950 . S
C242 C241 1.398 . S
C242 C243 1.391 . S
C243 H231 0.950 . S
C243 C239 1.393 . S
C243 C242 1.391 . S
H244 C252 0.950 . S
H245 C257 0.950 . S
H246 C254 0.950 . S
H247 C256 0.950 . S
H248 C258 0.950 . S
H249 C260 0.950 . S
H250 C262 0.950 . S
H251 C263 0.950 . S
C252 H244 0.950 . S
C252 C253 1.398 . S
C252 C254 1.391 . S
C253 C252 1.398 . S
C253 C257 1.379 1_455 S
C254 H246 0.950 . S
C254 C252 1.391 . S
C254 C255 1.401 . S
C255 C254 1.401 . S
C255 C256 1.398 1_455 S
C255 C261 1.490 1_455 S
C256 H247 0.950 . S
C256 C255 1.398 1_655 S
C256 C257 1.391 . S
C257 H245 0.950 . S
C257 C253 1.379 1_655 S
C257 C256 1.391 . S
C258 H248 0.950 . S
C258 C259 1.386 . S
C258 C260 1.391 . S
C259 C258 1.386 . S
C259 C263 1.393 1_655 S
C260 H249 0.950 . S
C260 C258 1.391 . S
C260 C261 1.400 . S
C261 C255 1.490 1_655 S
C261 C260 1.400 . S
C261 C262 1.398 1_655 S
C262 H250 0.950 . S
C262 C261 1.398 1_455 S
C262 C263 1.391 . S
C263 H251 0.950 . S
C263 C259 1.393 1_455 S
C263 C262 1.391 . S
H264 C272 0.950 . S
H265 C277 0.950 . S
H266 C274 0.950 . S
H267 C276 0.950 . S
H268 C278 0.940 1_545 S
H269 C280 0.950 . S
H270 C282 0.950 . S
H271 C283 0.950 . S
C272 H264 0.950 . S
C272 C273 1.386 1_554 S
C272 C274 1.391 1_554 S
C273 C272 1.386 1_556 S
C273 C277 1.393 . S
C274 H266 0.950 . S
C274 C272 1.391 1_556 S
C274 C275 1.400 . S
C275 C274 1.400 . S
C275 C276 1.398 . S
C275 C281 1.491 . S
C276 H267 0.950 . S
C276 C275 1.398 . S
C276 C277 1.391 . S
C277 H265 0.950 . S
C277 C273 1.393 . S
C277 C276 1.391 . S
C278 H268 0.940 1_565 S
C278 C279 1.386 . S
C278 C280 1.391 . S
C279 C278 1.386 . S
C279 C283 1.393 . S
C280 H269 0.950 . S
C280 C278 1.391 . S
C280 C281 1.400 . S
C281 C275 1.491 . S
C281 C280 1.400 . S
C281 C282 1.398 . S
C282 H270 0.950 . S
C282 C281 1.398 . S
C282 C283 1.391 . S
C283 H271 0.950 . S
C283 C279 1.393 . S
C283 C282 1.391 . S
H284 C292 0.950 . S
H285 C297 0.950 . S
H286 C294 0.950 . S
H287 C296 0.950 . S
H288 C298 0.950 . S
H289 C300 0.950 . S
H290 C302 0.950 . S
H291 C303 0.950 . S
C292 H284 0.950 . S
C292 C293 1.386 . S
C292 C294 1.391 . S
C293 C292 1.386 . S
C293 C297 1.393 1_554 S
C294 H286 0.950 . S
C294 C292 1.391 . S
C294 C295 1.400 1_554 S
C295 C294 1.400 1_556 S
C295 C296 1.398 . S
C295 C301 1.491 . S
C296 H287 0.950 . S
C296 C295 1.398 . S
C296 C297 1.391 . S
C297 H285 0.950 . S
C297 C293 1.393 1_556 S
C297 C296 1.391 . S
C298 H288 0.950 . S
C298 C299 1.386 . S
C298 C300 1.391 . S
C299 C298 1.386 . S
C299 C303 1.393 . S
C300 H289 0.950 . S
C300 C298 1.391 . S
C300 C301 1.400 . S
C301 C295 1.491 . S
C301 C300 1.400 . S
C301 C302 1.398 . S
C302 H290 0.950 . S
C302 C301 1.398 . S
C302 C303 1.391 . S
C303 H291 0.950 . S
C303 C299 1.393 . S
C303 C302 1.391 . S
H304 C312 0.950 . S
H305 C317 0.950 . S
H306 C314 0.950 1_554 S
H307 C316 0.950 . S
H308 C318 0.950 . S
H309 C320 0.950 . S
H310 C322 0.950 . S
H311 C323 0.950 . S
C312 H304 0.950 . S
C312 C313 1.386 . S
C312 C314 1.391 1_554 S
C313 C312 1.386 . S
C313 C317 1.393 1_554 S
C314 H306 0.950 1_556 S
C314 C312 1.391 1_556 S
C314 C315 1.400 . S
C315 C314 1.400 . S
C315 C316 1.398 . S
C315 C321 1.491 . S
C316 H307 0.950 . S
C316 C315 1.398 . S
C316 C317 1.391 . S
C317 H305 0.950 . S
C317 C313 1.393 1_556 S
C317 C316 1.391 . S
C318 H308 0.950 . S
C318 C319 1.386 . S
C318 C320 1.391 . S
C319 C318 1.386 . S
C319 C323 1.393 . S
C320 H309 0.950 . S
C320 C318 1.391 . S
C320 C321 1.400 . S
C321 C315 1.491 . S
C321 C320 1.400 . S
C321 C322 1.398 . S
C322 H310 0.950 . S
C322 C321 1.398 . S
C322 C323 1.391 . S
C323 H311 0.950 . S
C323 C319 1.393 . S
C323 C322 1.391 . S
H324 C332 0.950 1_554 S
H325 C337 0.950 . S
H326 C334 0.950 . S
H327 C336 0.950 . S
H328 C338 0.950 . S
H329 C340 0.950 . S
H330 C342 0.950 . S
H331 C343 0.950 . S
C332 H324 0.950 1_556 S
C332 C333 1.378 1_456 S
C332 C334 1.391 . S
C333 C332 1.378 1_654 S
C333 C337 1.400 1_554 S
C334 H326 0.950 . S
C334 C332 1.391 . S
C334 C335 1.405 . S
C335 C334 1.405 . S
C335 C336 1.393 1_455 S
C335 C341 1.489 . S
C336 H327 0.950 . S
C336 C335 1.393 1_655 S
C336 C337 1.391 . S
C337 H325 0.950 . S
C337 C333 1.400 1_556 S
C337 C336 1.391 . S
C338 H328 0.950 . S
C338 C339 1.386 1_655 S
C338 C340 1.391 . S
C339 C338 1.386 1_455 S
C339 C343 1.393 . S
C340 H329 0.950 . S
C340 C338 1.391 . S
C340 C341 1.378 1_655 S
C341 C335 1.489 . S
C341 C340 1.378 1_455 S
C341 C342 1.423 . S
C342 H330 0.950 . S
C342 C341 1.423 . S
C342 C343 1.391 . S
C343 H331 0.950 . S
C343 C339 1.393 . S
C343 C342 1.391 . S
H344 C352 0.950 . S
H345 C357 0.950 . S
H346 C354 0.950 . S
H347 C356 0.950 . S
H348 C358 0.950 . S
H349 C360 0.950 . S
H350 C362 0.950 . S
H351 C363 0.950 . S
C352 H344 0.950 . S
C352 C353 1.374 1_655 S
C352 C354 1.391 . S
C353 C352 1.374 1_455 S
C353 C357 1.405 . S
C354 H346 0.950 . S
C354 C352 1.391 . S
C354 C355 1.400 . S
C355 C354 1.400 . S
C355 C356 1.398 1_655 S
C355 C361 1.491 . S
C356 H347 0.950 . S
C356 C355 1.398 1_455 S
C356 C357 1.391 . S
C357 H345 0.950 . S
C357 C353 1.405 . S
C357 C356 1.391 . S
C358 H348 0.950 . S
C358 C359 1.386 1_455 S
C358 C360 1.391 . S
C359 C358 1.386 1_655 S
C359 C363 1.393 . S
C360 H349 0.950 . S
C360 C358 1.391 . S
C360 C361 1.400 1_455 S
C361 C355 1.491 . S
C361 C360 1.400 1_655 S
C361 C362 1.398 . S
C362 H350 0.950 . S
C362 C361 1.398 . S
C362 C363 1.391 . S
C363 H351 0.950 . S
C363 C359 1.393 . S
C363 C362 1.391 . S
H364 C372 0.950 . S
H365 C377 0.950 . S
H366 C374 0.950 . S
H367 C376 0.950 . S
H368 C378 0.950 . S
H369 C380 0.950 . S
H370 C382 0.950 . S
H371 C383 0.950 1_565 S
C372 H364 0.950 . S
C372 C373 1.386 . S
C372 C374 1.391 . S
C373 C372 1.386 . S
C373 C377 1.393 . S
C374 H366 0.950 . S
C374 C372 1.391 . S
C374 C375 1.400 . S
C375 C374 1.400 . S
C375 C376 1.398 . S
C375 C381 1.491 . S
C376 H367 0.950 . S
C376 C375 1.398 . S
C376 C377 1.391 . S
C377 H365 0.950 . S
C377 C373 1.393 . S
C377 C376 1.391 . S
C378 H368 0.950 . S
C378 C379 1.386 . S
C378 C380 1.391 . S
C379 C378 1.386 . S
C379 C383 1.393 . S
C380 H369 0.950 . S
C380 C378 1.391 . S
C380 C381 1.400 . S
C381 C375 1.491 . S
C381 C380 1.400 . S
C381 C382 1.398 . S
C382 H370 0.950 . S
C382 C381 1.398 . S
C382 C383 1.391 . S
C383 H371 0.950 1_545 S
C383 C379 1.393 . S
C383 C382 1.391 . S
H384 C392 0.950 . S
H385 C397 0.950 . S
H386 C394 0.950 . S
H387 C396 0.950 . S
H388 C398 0.950 . S
H389 C400 0.950 . S
H390 C402 0.950 . S
H391 C403 0.950 . S
C392 H384 0.950 . S
C392 C393 1.386 . S
C392 C394 1.391 . S
C393 C392 1.386 . S
C393 C397 1.393 . S
C394 H386 0.950 . S
C394 C392 1.391 . S
C394 C395 1.400 . S
C395 C394 1.400 . S
C395 C396 1.398 . S
C395 C401 1.491 . S
C396 H387 0.950 . S
C396 C395 1.398 . S
C396 C397 1.391 . S
C397 H385 0.950 . S
C397 C393 1.393 . S
C397 C396 1.391 . S
C398 H388 0.950 . S
C398 C399 1.386 . S
C398 C400 1.391 . S
C399 C398 1.386 . S
C399 C403 1.393 . S
C400 H389 0.950 . S
C400 C398 1.391 . S
C400 C401 1.400 . S
C401 C395 1.491 . S
C401 C400 1.400 . S
C401 C402 1.398 . S
C402 H390 0.950 . S
C402 C401 1.398 . S
C402 C403 1.391 . S
C403 H391 0.950 . S
C403 C399 1.393 . S
C403 C402 1.391 . S
H404 C412 0.950 . S
H405 C417 0.950 . S
H406 C414 0.950 . S
H407 C416 0.950 . S
H408 C418 0.950 . S
H409 C420 0.950 . S
H410 C422 0.950 . S
H411 C423 0.950 . S
C412 H404 0.950 . S
C412 C413 1.386 . S
C412 C414 1.391 . S
C413 C412 1.386 . S
C413 C417 1.393 . S
C414 H406 0.950 . S
C414 C412 1.391 . S
C414 C415 1.400 . S
C415 C414 1.400 . S
C415 C416 1.398 . S
C415 C421 1.491 . S
C416 H407 0.950 . S
C416 C415 1.398 . S
C416 C417 1.391 . S
C417 H405 0.950 . S
C417 C413 1.393 . S
C417 C416 1.391 . S
C418 H408 0.950 . S
C418 C419 1.386 . S
C418 C420 1.391 . S
C419 C418 1.386 . S
C419 C423 1.393 . S
C420 H409 0.950 . S
C420 C418 1.391 . S
C420 C421 1.400 . S
C421 C415 1.491 . S
C421 C420 1.400 . S
C421 C422 1.398 . S
C422 H410 0.950 . S
C422 C421 1.398 . S
C422 C423 1.391 . S
C423 H411 0.950 . S
C423 C419 1.393 . S
C423 C422 1.391 . S
H424 C432 0.950 . S
H425 C437 0.950 . S
H426 C434 0.953 . S
H427 C436 0.950 . S
H428 C438 0.950 . S
H429 C440 0.950 . S
H430 C442 0.950 . S
H431 C443 0.937 1_655 S
C432 H424 0.950 . S
C432 C433 1.386 1_655 S
C432 C434 1.395 . S
C433 C432 1.386 1_455 S
C433 C437 1.393 1_554 S
C434 H426 0.953 . S
C434 C432 1.395 . S
C434 C435 1.393 1_654 S
C435 C434 1.393 1_456 S
C435 C436 1.398 . S
C435 C441 1.491 . S
C436 H427 0.950 . S
C436 C435 1.398 . S
C436 C437 1.391 . S
C437 H425 0.950 . S
C437 C433 1.393 1_556 S
C437 C436 1.391 . S
C438 H428 0.950 . S
C438 C439 1.386 . S
C438 C440 1.391 . S
C439 C438 1.386 . S
C439 C443 1.406 . S
C440 H429 0.950 . S
C440 C438 1.391 . S
C440 C441 1.400 . S
C441 C435 1.491 . S
C441 C440 1.400 . S
C441 C442 1.398 1_455 S
C442 H430 0.950 . S
C442 C441 1.398 1_655 S
C442 C443 1.391 1_655 S
C443 H431 0.937 1_455 S
C443 C439 1.406 . S
C443 C442 1.391 1_455 S
H444 C452 0.950 . S
H445 C457 0.950 . S
H446 C454 0.949 1_554 S
H447 C456 0.950 1_545 S
H448 C458 0.950 . S
H449 C460 0.950 . S
H450 C462 0.950 . S
H451 C463 0.950 . S
C452 H444 0.950 . S
C452 C453 1.386 1_554 S
C452 C454 1.391 1_554 S
C453 C452 1.386 1_556 S
C453 C457 1.393 . S
C454 H446 0.949 1_556 S
C454 C452 1.391 1_556 S
C454 C455 1.400 . S
C455 C454 1.400 . S
C455 C456 1.398 . S
C455 C461 1.491 . S
C456 H447 0.950 1_565 S
C456 C455 1.398 . S
C456 C457 1.391 . S
C457 H445 0.950 . S
C457 C453 1.393 . S
C457 C456 1.391 . S
C458 H448 0.950 . S
C458 C459 1.386 1_545 S
C458 C460 1.391 . S
C459 C458 1.386 1_565 S
C459 C463 1.393 . S
C460 H449 0.950 . S
C460 C458 1.391 . S
C460 C461 1.400 1_545 S
C461 C455 1.491 . S
C461 C460 1.400 1_565 S
C461 C462 1.398 . S
C462 H450 0.950 . S
C462 C461 1.398 . S
C462 C463 1.391 . S
C463 H451 0.950 . S
C463 C459 1.393 . S
C463 C462 1.391 . S
H464 C472 0.950 . S
H465 C477 0.950 . S
H466 C474 0.950 . S
H467 C476 0.950 . S
H468 C478 0.950 . S
H469 C480 0.950 . S
H470 C482 0.950 . S
H471 C483 0.950 . S
C472 H464 0.950 . S
C472 C473 1.386 . S
C472 C474 1.391 . S
C473 C472 1.386 . S
C473 C477 1.393 1_554 S
C474 H466 0.950 . S
C474 C472 1.391 . S
C474 C475 1.400 1_554 S
C475 C474 1.400 1_556 S
C475 C476 1.398 . S
C475 C481 1.491 . S
C476 H467 0.950 . S
C476 C475 1.398 . S
C476 C477 1.391 . S
C477 H465 0.950 . S
C477 C473 1.393 1_556 S
C477 C476 1.391 . S
C478 H468 0.950 . S
C478 C479 1.386 . S
C478 C480 1.391 . S
C479 C478 1.386 . S
C479 C483 1.393 . S
C480 H469 0.950 . S
C480 C478 1.391 . S
C480 C481 1.400 . S
C481 C475 1.491 . S
C481 C480 1.400 . S
C481 C482 1.398 . S
C482 H470 0.950 . S
C482 C481 1.398 . S
C482 C483 1.391 . S
C483 H471 0.950 . S
C483 C479 1.393 . S
C483 C482 1.391 . S
H484 C492 0.950 . S
H485 C497 0.950 . S
H486 C494 0.950 . S
H487 C496 0.950 . S
H488 C498 0.950 . S
H489 C500 0.950 . S
H490 C502 0.950 . S
H491 C503 0.950 . S
C492 H484 0.950 . S
C492 C493 1.386 . S
C492 C494 1.391 1_554 S
C493 C492 1.386 . S
C493 C497 1.393 . S
C494 H486 0.950 . S
C494 C492 1.391 1_556 S
C494 C495 1.400 . S
C495 C494 1.400 . S
C495 C496 1.398 . S
C495 C501 1.491 . S
C496 H487 0.950 . S
C496 C495 1.398 . S
C496 C497 1.391 1_556 S
C497 H485 0.950 . S
C497 C493 1.393 . S
C497 C496 1.391 1_554 S
C498 H488 0.950 . S
C498 C499 1.386 . S
C498 C500 1.391 . S
C499 C498 1.386 . S
C499 C503 1.393 . S
C500 H489 0.950 . S
C500 C498 1.391 . S
C500 C501 1.400 . S
C501 C495 1.491 . S
C501 C500 1.400 . S
C501 C502 1.398 . S
C502 H490 0.950 . S
C502 C501 1.398 . S
C502 C503 1.391 . S
C503 H491 0.950 . S
C503 C499 1.393 . S
C503 C502 1.391 . S
H504 C512 0.950 . S
H505 C517 0.950 . S
H506 C514 0.950 . S
H507 C516 0.950 . S
H508 C518 0.950 . S
H509 C520 0.950 . S
H510 C522 0.950 . S
H511 C523 0.950 . S
C512 H504 0.950 . S
C512 C513 1.386 1_655 S
C512 C514 1.391 . S
C513 C512 1.386 1_455 S
C513 C517 1.393 1_556 S
C514 H506 0.950 . S
C514 C512 1.391 . S
C514 C515 1.400 1_655 S
C515 C514 1.400 1_455 S
C515 C516 1.398 . S
C515 C521 1.491 . S
C516 H507 0.950 . S
C516 C515 1.398 . S
C516 C517 1.391 1_556 S
C517 H505 0.950 . S
C517 C513 1.393 1_554 S
C517 C516 1.391 1_554 S
C518 H508 0.950 . S
C518 C519 1.386 . S
C518 C520 1.391 . S
C519 C518 1.386 . S
C519 C523 1.393 1_455 S
C520 H509 0.950 . S
C520 C518 1.391 . S
C520 C521 1.400 . S
C521 C515 1.491 . S
C521 C520 1.400 . S
C521 C522 1.398 1_455 S
C522 H510 0.950 . S
C522 C521 1.398 1_655 S
C522 C523 1.391 . S
C523 H511 0.950 . S
C523 C519 1.393 1_655 S
C523 C522 1.391 . S
H524 C532 0.950 . S
H525 C537 0.950 1_554 S
H526 C534 0.950 . S
H527 C536 0.950 1_565 S
H528 C538 0.979 . S
H529 C540 0.950 1_565 S
H530 C542 0.950 . S
H531 C543 0.950 . S
C532 H524 0.950 . S
C532 C533 1.386 . S
C532 C534 1.391 . S
C533 C532 1.386 . S
C533 C537 1.393 . S
C534 H526 0.950 . S
C534 C532 1.391 . S
C534 C535 1.400 . S
C535 C534 1.400 . S
C535 C536 1.398 . S
C535 C541 1.491 . S
C536 H527 0.950 1_545 S
C536 C535 1.398 . S
C536 C537 1.391 . S
C537 H525 0.950 1_556 S
C537 C533 1.393 . S
C537 C536 1.391 . S
C538 H528 0.979 . S
C538 C539 1.364 1_565 S
C538 C540 1.385 1_565 S
C539 C538 1.364 1_545 S
C539 C543 1.393 . S
C540 H529 0.950 1_545 S
C540 C538 1.385 1_545 S
C540 C541 1.400 . S
C541 C535 1.491 . S
C541 C540 1.400 . S
C541 C542 1.398 . S
C542 H530 0.950 . S
C542 C541 1.398 . S
C542 C543 1.391 . S
C543 H531 0.950 . S
C543 C539 1.393 . S
C543 C542 1.391 . S
H544 C552 0.950 1_554 S
H545 C557 0.950 . S
H546 C554 0.950 . S
H547 C556 0.950 . S
H548 C558 0.950 . S
H549 C560 0.950 . S
H550 C562 0.950 . S
H551 C563 0.950 . S
C552 H544 0.950 1_556 S
C552 C553 1.386 . S
C552 C554 1.391 . S
C553 C552 1.386 . S
C553 C557 1.393 . S
C554 H546 0.950 . S
C554 C552 1.391 . S
C554 C555 1.400 . S
C555 C554 1.400 . S
C555 C556 1.398 . S
C555 C561 1.491 . S
C556 H547 0.950 . S
C556 C555 1.398 . S
C556 C557 1.391 . S
C557 H545 0.950 . S
C557 C553 1.393 . S
C557 C556 1.391 . S
C558 H548 0.950 . S
C558 C559 1.386 . S
C558 C560 1.391 . S
C559 C558 1.386 . S
C559 C563 1.393 . S
C560 H549 0.950 . S
C560 C558 1.391 . S
C560 C561 1.400 . S
C561 C555 1.491 . S
C561 C560 1.400 . S
C561 C562 1.398 . S
C562 H550 0.950 . S
C562 C561 1.398 . S
C562 C563 1.391 . S
C563 H551 0.950 . S
C563 C559 1.393 . S
C563 C562 1.391 . S
H564 C572 0.950 . S
H565 C577 0.950 1_554 S
H566 C574 0.950 . S
H567 C576 0.950 . S
H568 C578 0.950 . S
H569 C580 0.950 . S
H570 C582 0.950 . S
H571 C583 0.950 . S
C572 H564 0.950 . S
C572 C573 1.386 . S
C572 C574 1.391 . S
C573 C572 1.386 . S
C573 C577 1.393 . S
C574 H566 0.950 . S
C574 C572 1.391 . S
C574 C575 1.400 . S
C575 C574 1.400 . S
C575 C576 1.398 . S
C575 C581 1.491 . S
C576 H567 0.950 . S
C576 C575 1.398 . S
C576 C577 1.391 . S
C577 H565 0.950 1_556 S
C577 C573 1.393 . S
C577 C576 1.391 . S
C578 H568 0.950 . S
C578 C579 1.386 . S
C578 C580 1.391 . S
C579 C578 1.386 . S
C579 C583 1.393 . S
C580 H569 0.950 . S
C580 C578 1.391 . S
C580 C581 1.400 . S
C581 C575 1.491 . S
C581 C580 1.400 . S
C581 C582 1.398 . S
C582 H570 0.950 . S
C582 C581 1.398 . S
C582 C583 1.391 . S
C583 H571 0.950 . S
C583 C579 1.393 . S
C583 C582 1.391 . S
H584 C592 0.950 . S
H585 C597 0.950 . S
H586 C594 0.950 . S
H587 C596 0.950 . S
H588 C598 0.950 . S
H589 C600 0.950 . S
H590 C602 0.950 . S
H591 C603 0.950 . S
C592 H584 0.950 . S
C592 C593 1.386 1_455 S
C592 C594 1.391 . S
C593 C592 1.386 1_655 S
C593 C597 1.393 . S
C594 H586 0.950 . S
C594 C592 1.391 . S
C594 C595 1.400 1_455 S
C595 C594 1.400 1_655 S
C595 C596 1.398 . S
C595 C601 1.491 . S
C596 H587 0.950 . S
C596 C595 1.398 . S
C596 C597 1.391 . S
C597 H585 0.950 . S
C597 C593 1.393 . S
C597 C596 1.391 . S
C598 H588 0.950 . S
C598 C599 1.386 . S
C598 C600 1.391 . S
C599 C598 1.386 . S
C599 C603 1.393 1_655 S
C600 H589 0.950 . S
C600 C598 1.391 . S
C600 C601 1.400 . S
C601 C595 1.491 . S
C601 C600 1.400 . S
C601 C602 1.398 1_655 S
C602 H590 0.950 . S
C602 C601 1.398 1_455 S
C602 C603 1.391 . S
C603 H591 0.950 . S
C603 C599 1.393 1_455 S
C603 C602 1.391 . S
H604 C612 0.950 . S
H605 C617 0.950 . S
H606 C614 0.950 . S
H607 C616 0.950 . S
H608 C618 0.950 1_545 S
H609 C620 0.950 . S
H610 C622 0.950 . S
H611 C623 0.950 . S
C612 H604 0.950 . S
C612 C613 1.386 . S
C612 C614 1.391 . S
C613 C612 1.386 . S
C613 C617 1.393 . S
C614 H606 0.950 . S
C614 C612 1.391 . S
C614 C615 1.400 . S
C615 C614 1.400 . S
C615 C616 1.398 . S
C615 C621 1.491 . S
C616 H607 0.950 . S
C616 C615 1.398 . S
C616 C617 1.391 . S
C617 H605 0.950 . S
C617 C613 1.393 . S
C617 C616 1.391 . S
C618 H608 0.950 1_565 S
C618 C619 1.386 . S
C618 C620 1.391 . S
C619 C618 1.386 . S
C619 C623 1.393 . S
C620 H609 0.950 . S
C620 C618 1.391 . S
C620 C621 1.400 . S
C621 C615 1.491 . S
C621 C620 1.400 . S
C621 C622 1.398 . S
C622 H610 0.950 . S
C622 C621 1.398 . S
C622 C623 1.391 . S
C623 H611 0.950 . S
C623 C619 1.393 . S
C623 C622 1.391 . S
H624 C632 0.950 . S
H625 C637 0.950 . S
H626 C634 0.950 . S
H627 C636 0.950 . S
H628 C638 0.950 . S
H629 C640 0.950 . S
H630 C642 0.950 . S
H631 C643 0.950 . S
C632 H624 0.950 . S
C632 C633 1.386 . S
C632 C634 1.391 . S
C633 C632 1.386 . S
C633 C637 1.393 . S
C634 H626 0.950 . S
C634 C632 1.391 . S
C634 C635 1.400 . S
C635 C634 1.400 . S
C635 C636 1.398 . S
C635 C641 1.491 . S
C636 H627 0.950 . S
C636 C635 1.398 . S
C636 C637 1.391 . S
C637 H625 0.950 . S
C637 C633 1.393 . S
C637 C636 1.391 . S
C638 H628 0.950 . S
C638 C639 1.386 . S
C638 C640 1.391 . S
C639 C638 1.386 . S
C639 C643 1.393 . S
C640 H629 0.950 . S
C640 C638 1.391 . S
C640 C641 1.400 . S
C641 C635 1.491 . S
C641 C640 1.400 . S
C641 C642 1.398 . S
C642 H630 0.950 . S
C642 C641 1.398 . S
C642 C643 1.391 . S
C643 H631 0.950 . S
C643 C639 1.393 . S
C643 C642 1.391 . S
H644 C652 0.950 . S
H645 C657 0.950 . S
H646 C654 0.950 . S
H647 C656 0.950 . S
H648 C658 0.950 . S
H649 C660 0.950 . S
H650 C662 0.950 . S
H651 C663 0.950 . S
C652 H644 0.950 . S
C652 C653 1.386 . S
C652 C654 1.391 . S
C653 C652 1.386 . S
C653 C657 1.393 . S
C654 H646 0.950 . S
C654 C652 1.391 . S
C654 C655 1.400 . S
C655 C654 1.400 . S
C655 C656 1.398 . S
C655 C661 1.491 . S
C656 H647 0.950 . S
C656 C655 1.398 . S
C656 C657 1.391 . S
C657 H645 0.950 . S
C657 C653 1.393 . S
C657 C656 1.391 . S
C658 H648 0.950 . S
C658 C659 1.386 . S
C658 C660 1.391 . S
C659 C658 1.386 . S
C659 C663 1.393 . S
C660 H649 0.950 . S
C660 C658 1.391 . S
C660 C661 1.400 . S
C661 C655 1.491 . S
C661 C660 1.400 . S
C661 C662 1.398 . S
C662 H650 0.950 . S
C662 C661 1.398 . S
C662 C663 1.391 . S
C663 H651 0.950 . S
C663 C659 1.393 . S
C663 C662 1.391 . S
C193 N80 1.684 . S
C199 C112 1.690 . S
C219 C142 1.786 . S
C213 N93 1.763 . S
C239 C152 1.546 . S
C233 N54 1.521 . S
C259 C172 1.419 . S
C253 N67 1.417 1_455 S
C279 C113 1.696 . S
C273 N28 1.687 1_556 S
C293 N41 1.784 . S
C299 C143 1.793 . S
C313 N2 1.510 . S
C319 C153 1.541 . S
C333 N15 1.416 . S
C339 C173 1.422 . S
C359 C105 0.836 . S
C353 N70 0.829 1_455 S
C379 C126 0.553 . S
C373 N83 0.531 . S
C399 C145 0.948 . S
C393 N96 0.954 . S
C413 N57 0.725 . S
C419 C165 0.730 . S
C433 N18 0.824 1_455 S
C439 C106 0.825 . S
C459 C125 0.545 1_565 S
C453 N31 0.532 1_556 S
C479 C146 0.951 . S
C473 N44 0.945 . S
C493 N5 0.723 . S
C499 C166 0.737 . S
C513 N66 1.572 1_456 S
C519 C123 1.566 . S
C533 N79 1.417 1_556 S
C539 C133 1.465 . S
C559 C163 1.753 . S
C553 N92 1.730 . S
C579 C183 1.749 . S
C573 N53 1.735 1_556 S
C593 N14 1.556 . S
C599 C122 1.574 . S
C619 C132 1.457 . S
C613 N27 1.440 . S
C639 C162 1.746 . S
C633 N40 1.725 . S
C653 N1 1.741 . S
C659 C182 1.767 . S
