# Generated by pormake.
# Topology tsx, (6,3)-cn, num edge types: 1
# Building blocks:
#     Node 0, Type 0, BuildingBlock: MIDCAF_clean_sbu_0, # of connection points: 6
#     Node 1, Type 0, BuildingBlock: MIDCAF_clean_sbu_0, # of connection points: 6
#     Node 2, Type 1, BuildingBlock: BELTOD_clean_linker_0, # of connection points: 3
#     Node 3, Type 1, BuildingBlock: BELTOD_clean_linker_0, # of connection points: 3
#     Node 4, Type 1, BuildingBlock: BELTOD_clean_linker_0, # of connection points: 3
#     Node 5, Type 1, BuildingBlock: BELTOD_clean_linker_0, # of connection points: 3
#     Edge 6, Type (0, 1), BuildingBlock: CIFDUS_clean_linker_0, # of connection points: 2
#     Edge 7, Type (0, 1), BuildingBlock: CIFDUS_clean_linker_0, # of connection points: 2
#     Edge 8, Type (0, 1), BuildingBlock: CIFDUS_clean_linker_0, # of connection points: 2
#     Edge 9, Type (0, 1), BuildingBlock: CIFDUS_clean_linker_0, # of connection points: 2
#     Edge 10, Type (0, 1), BuildingBlock: CIFDUS_clean_linker_0, # of connection points: 2
#     Edge 11, Type (0, 1), BuildingBlock: CIFDUS_clean_linker_0, # of connection points: 2
#     Edge 12, Type (0, 1), BuildingBlock: CIFDUS_clean_linker_0, # of connection points: 2
#     Edge 13, Type (0, 1), BuildingBlock: CIFDUS_clean_linker_0, # of connection points: 2
#     Edge 14, Type (0, 1), BuildingBlock: CIFDUS_clean_linker_0, # of connection points: 2
#     Edge 15, Type (0, 1), BuildingBlock: CIFDUS_clean_linker_0, # of connection points: 2
#     Edge 16, Type (0, 1), BuildingBlock: CIFDUS_clean_linker_0, # of connection points: 2
#     Edge 17, Type (0, 1), BuildingBlock: CIFDUS_clean_linker_0, # of connection points: 2
# Relax obj value: 0.109
# Max RMSD: 0.178
# Mean RMSD: 0.105
data_MOF--net-tsx--node1-MIDCAF_clean_sbu_0--node2-BELTOD_clean_linker_0--edge1-CIFDUS_clean_linker_0
_symmetry_space_group_name_H-M    P1
_symmetry_Int_Tables_number       1
_symmetry_cell_setting            triclinic
loop_
_symmetry_equiv_pos_as_xyz
'x, y, z'
_cell_length_a     19.857359
_cell_length_b     20.539974
_cell_length_c     37.996604
_cell_angle_alpha  91.109397
_cell_angle_beta   94.253261
_cell_angle_gamma 89.71589
loop_
_atom_site_label
_atom_site_type_symbol
_atom_site_fract_x
_atom_site_fract_y
_atom_site_fract_z
_atom_type_partial_charge
Zn0 Zn 0.85551 0.03972 0.96519 0.0
Zn1 Zn 0.12467 0.96294 0.05114 0.0
Zn2 Zn 0.04032 0.01187 0.01339 0.0
C3 C 0.15337 0.09919 0.0436 0.0
C4 C 0.14535 0.90275 0.99037 0.0
O5 O 0.94169 0.96726 0.0277 0.0
O6 O 0.83409 0.98087 0.00437 0.0
C7 C 0.97122 0.12221 0.99625 0.0
O8 O 0.09265 0.10176 0.02959 0.0
O9 O 0.17835 0.04496 0.05312 0.0
O10 O 0.15593 0.89089 0.02268 0.0
O11 O 0.10642 0.95046 0.98056 0.0
O12 O 0.94667 0.07013 0.98294 0.0
O13 O 0.03021 0.11744 0.01153 0.0
O14 O 0.05091 0.97784 0.95957 0.0
O15 O 0.94518 0.00564 0.94778 0.0
C16 C 1.0003 0.98466 0.93702 0.0
O17 O 0.99499 0.97042 0.05971 0.0
O18 O 0.08341 0.93793 0.09328 0.0
C19 C 0.87732 0.95478 0.02647 0.0
C20 C 0.02065 0.94652 0.08879 0.0
Zn21 Zn 0.65168 0.49606 0.54377 0.0
Zn22 Zn 0.42637 0.50595 0.52737 0.0
Zn23 Zn 0.53827 0.49882 0.52685 0.0
C24 C 0.46957 0.51651 0.4581 0.0
C25 C 0.45346 0.62946 0.52339 0.0
O26 O 0.53291 0.51372 0.58236 0.0
O27 O 0.63549 0.47595 0.59387 0.0
C28 C 0.62641 0.38928 0.49802 0.0
O29 O 0.51383 0.54899 0.47783 0.0
O30 O 0.42532 0.48538 0.47328 0.0
O31 O 0.41632 0.59983 0.54337 0.0
O32 O 0.49889 0.59678 0.50806 0.0
O33 O 0.67378 0.42476 0.51128 0.0
O34 O 0.56495 0.40379 0.5033 0.0
O35 O 0.57213 0.58489 0.49821 0.0
O36 O 0.67108 0.58624 0.52902 0.0
C37 C 0.62958 0.61242 0.50669 0.0
O38 O 0.49455 0.39966 0.51882 0.0
O39 O 0.42675 0.43046 0.55897 0.0
C40 C 0.57907 0.49306 0.60448 0.0
C41 C 0.45228 0.38473 0.5415 0.0
P42 P 0.11232 0.09524 0.39596 0.0
H43 H 0.08483 0.20975 0.43928 0.0
H44 H 0.97893 0.26101 0.4535 0.0
H45 H 0.86878 0.09212 0.41247 0.0
H46 H 0.97517 0.04042 0.39829 0.0
H47 H 0.25655 0.07629 0.41373 0.0
H48 H 0.32265 0.98389 0.43692 0.0
H49 H 0.13867 0.87818 0.44869 0.0
H50 H 0.07224 0.97183 0.42661 0.0
H51 H 0.11195 0.16505 0.32987 0.0
H52 H 0.05163 0.97581 0.36303 0.0
O53 O 0.16379 0.15913 0.39478 0.0
H54 H 0.06706 0.13966 0.27005 0.0
H55 H 0.00204 0.95154 0.30377 0.0
C56 C 0.038 0.12192 0.41681 0.0
C57 C 0.03832 0.18282 0.43406 0.0
C58 C 0.97772 0.21222 0.44211 0.0
C59 C 0.91576 0.18098 0.4333 0.0
C60 C 0.9159 0.11728 0.4193 0.0
C61 C 0.97679 0.08788 0.4111 0.0
C62 C 0.15929 0.03089 0.41825 0.0
C63 C 0.23012 0.0339 0.42199 0.0
C64 C 0.26803 0.98114 0.43528 0.0
C65 C 0.2357 0.92392 0.44428 0.0
C66 C 0.16471 0.92172 0.44163 0.0
C67 C 0.12676 0.97509 0.429 0.0
C68 C 0.08597 0.07218 0.351 0.0
C69 C 0.08918 0.11784 0.32431 0.0
C70 C 0.06212 0.10359 0.29008 0.0
C71 C 0.02944 0.04385 0.28189 0.0
C72 C 0.02709 -0.00217 0.30877 0.0
C73 C 0.05547 0.01175 0.34289 0.0
P74 P 0.07357 0.92653 0.61109 0.0
H75 H 0.02912 0.84018 0.55266 0.0
H76 H 0.91894 0.81388 0.52461 0.0
H77 H 0.82962 0.96712 0.58587 0.0
H78 H 0.94111 0.99074 0.6153 0.0
H79 H 0.21151 0.92922 0.58836 0.0
H80 H 0.28306 0.01853 0.57171 0.0
H81 H 0.11426 0.15098 0.57585 0.0
H82 H 0.0427 0.06141 0.59237 0.0
H83 H 0.00413 0.85633 0.66337 0.0
H84 H 0.12316 0.03106 0.66113 0.0
O85 O 0.11565 0.8562 0.60883 0.0
H86 H 1.00025 0.86957 0.72728 0.0
H87 H 0.11783 0.04565 0.72471 0.0
C88 C 0.99292 0.91605 0.58674 0.0
C89 C 0.98596 0.86854 0.55988 0.0
C90 C 0.92254 0.85426 0.54336 0.0
C91 C 0.86447 0.88802 0.55293 0.0
C92 C 0.87269 0.93916 0.5782 0.0
C93 C 0.93644 0.95291 0.59502 0.0
C94 C 0.12185 0.98886 0.59182 0.0
C95 C 0.18933 0.9771 0.58481 0.0
C96 C 0.23018 0.02804 0.57506 0.0
C97 C 0.20432 0.09163 0.57272 0.0
C98 C 0.13551 0.10237 0.57763 0.0
C99 C 0.09459 0.05132 0.58704 0.0
C100 C 0.06357 0.94273 0.65733 0.0
C101 C 0.02838 0.89821 0.67653 0.0
C102 C 0.02606 0.90597 0.7131 0.0
C103 C 0.05911 0.95851 0.73126 0.0
C104 C 0.09281 0.00404 0.7117 0.0
C105 C 0.09526 0.99607 0.67514 0.0
P106 P 0.66514 0.63347 0.92053 0.0
H107 H 0.61917 0.7464 0.96028 0.0
H108 H 0.50557 0.7823 0.97223 0.0
H109 H 0.42589 0.5965 0.93416 0.0
H110 H 0.53982 0.56024 0.9231 0.0
H111 H 0.80246 0.59366 0.91237 0.0
H112 H 0.87283 0.50562 0.9368 0.0
H113 H 0.71042 0.44643 0.99879 0.0
H114 H 0.63973 0.53439 0.97353 0.0
H115 H 0.63453 0.71083 0.85819 0.0
H116 H 0.634 0.50792 0.88508 0.0
O117 O 0.71166 0.70097 0.92076 0.0
H118 H 0.59014 0.68319 0.79826 0.0
H119 H 0.58688 0.47978 0.8255 0.0
C120 C 0.58766 0.65111 0.94026 0.0
C121 C 0.57758 0.71277 0.95534 0.0
C122 C 0.51256 0.73353 0.96174 0.0
C123 C 0.45681 0.69287 0.95304 0.0
C124 C 0.46787 0.62903 0.94082 0.0
C125 C 0.533 0.60826 0.93455 0.0
C126 C 0.71624 0.57069 0.94129 0.0
C127 C 0.7823 0.56214 0.93153 0.0
C128 C 0.82268 0.51206 0.94577 0.0
C129 C 0.79757 0.46917 0.97 0.0
C130 C 0.73123 0.4784 0.98006 0.0
C131 C 0.69077 0.52877 0.96572 0.0
C132 C 0.63979 0.61122 0.87559 0.0
C133 C 0.62544 0.66017 0.85102 0.0
C134 C 0.59868 0.64436 0.81696 0.0
C135 C 0.58467 0.57921 0.80701 0.0
C136 C 0.59798 0.53032 0.83208 0.0
C137 C 0.62533 0.54625 0.86608 0.0
P138 P 0.56669 0.48179 0.1357 0.0
H139 H 0.53361 0.44511 0.06248 0.0
H140 H 0.42948 0.4049 0.03127 0.0
H141 H 0.32122 0.44657 0.12354 0.0
H142 H 0.42497 0.48824 0.1544 0.0
H143 H 0.69961 0.53529 0.15363 0.0
H144 H 0.75375 0.6362 0.13789 0.0
H145 H 0.57956 0.68144 0.0673 0.0
H146 H 0.52477 0.5826 0.08442 0.0
H147 H 0.56215 0.3923 0.19432 0.0
H148 H 0.54511 0.59923 0.17827 0.0
O149 O 0.61584 0.41662 0.13071 0.0
H150 H 0.54929 0.40983 0.25747 0.0
H151 H 0.53273 0.61705 0.24127 0.0
C152 C 0.48729 0.46752 0.11102 0.0
C153 C 0.48702 0.44745 0.07561 0.0
C154 C 0.42745 0.42535 0.05768 0.0
C155 C 0.36769 0.42202 0.07522 0.0
C156 C 0.36653 0.44898 0.1094 0.0
C157 C 0.42619 0.47163 0.12726 0.0
C158 C 0.60862 0.55131 0.12001 0.0
C159 C 0.67353 0.56681 0.13452 0.0
C160 C 0.70437 0.62437 0.12547 0.0
C161 C 0.67068 0.66709 0.10157 0.0
C162 C 0.60624 0.65026 0.08636 0.0
C163 C 0.5752 0.59312 0.09577 0.0
C164 C 0.55614 0.49457 0.18188 0.0
C165 C 0.55594 0.44145 0.20443 0.0
C166 C 0.54829 0.45151 0.2404 0.0
C167 C 0.54068 0.5149 0.25425 0.0
C168 C 0.53972 0.56785 0.23138 0.0
C169 C 0.54672 0.55767 0.19541 0.0
H170 H 0.12032 0.23035 0.04617 0.0
H171 H 0.28839 0.09562 0.04584 0.0
H172 H 0.36735 0.18472 0.05126 0.0
H173 H 0.39062 0.29842 0.05979 0.0
H174 H 0.22876 0.43753 0.06563 0.0
H175 H 0.14533 0.34973 0.05367 0.0
C176 C 0.17418 0.22094 0.04702 0.0
C177 C 0.1983 0.15632 0.04586 0.0
C178 C 0.22042 0.27306 0.05087 0.0
C179 C 0.26826 0.14467 0.04715 0.0
C180 C 0.31374 0.19562 0.05005 0.0
C181 C 0.33706 0.30994 0.05753 0.0
C182 C 0.31563 0.37411 0.0628 0.0
C183 C 0.29051 0.25962 0.05231 0.0
C184 C 0.24614 0.3882 0.06116 0.0
C185 C 0.1987 0.33804 0.05459 0.0
H186 H 0.16433 0.77412 0.98814 0.0
H187 H 0.22357 0.95262 0.94169 0.0
H188 H 0.32639 0.89986 0.92303 0.0
H189 H 0.40755 0.80891 0.92973 0.0
H190 H 0.3501 0.63299 0.97995 0.0
H191 H 0.23799 0.67848 0.98727 0.0
C192 C 0.19848 0.80046 0.97256 0.0
C193 C 0.18692 0.86683 0.96623 0.0
C194 C 0.25858 0.77079 0.96364 0.0
C195 C 0.2312 0.90112 0.94632 0.0
C196 C 0.29058 0.87131 0.93635 0.0
C197 C 0.37031 0.78056 0.94219 0.0
C198 C 0.38737 0.71833 0.95505 0.0
C199 C 0.3063 0.80728 0.9466 0.0
C200 C 0.33823 0.68119 0.97014 0.0
C201 C 0.27422 0.70715 0.97431 0.0
H202 H 0.75437 0.94361 0.05168 0.0
H203 H 0.94618 0.8454 0.04719 0.0
H204 H 0.90035 0.74881 0.0729 0.0
H205 H 0.80219 0.68814 0.08982 0.0
H206 H 0.60973 0.78582 0.09353 0.0
H207 H 0.65903 0.88626 0.07412 0.0
C208 C 0.78634 0.90138 0.05694 0.0
C209 C 0.85354 0.90175 0.04786 0.0
C210 C 0.75915 0.84542 0.07075 0.0
C211 C 0.89462 0.84684 0.05468 0.0
C212 C 0.86819 0.79123 0.06892 0.0
C213 C 0.77132 0.73171 0.08706 0.0
C214 C 0.70218 0.72921 0.09258 0.0
C215 C 0.80002 0.78939 0.0761 0.0
C216 C 0.66274 0.786 0.08857 0.0
C217 C 0.69096 0.8436 0.07776 0.0
H218 H 0.01504 0.24837 0.00222 0.0
H219 H 0.83439 0.13166 0.99375 0.0
H220 H 0.76491 0.22836 0.98664 0.0
H221 H 0.75517 0.34528 0.97783 0.0
H222 H 0.93349 0.46517 0.98947 0.0
H223 H 0.00369 0.36863 0.00097 0.0
C224 C 0.96048 0.24436 0.99921 0.0
C225 C 0.93027 0.18253 0.99685 0.0
C226 C 0.92018 0.30088 0.99571 0.0
C227 C 0.85942 0.17813 0.99362 0.0
C228 C 0.81931 0.23368 0.99009 0.0
C229 C 0.80916 0.35069 0.9837 0.0
C230 C 0.83899 0.41233 0.9823 0.0
C231 C 0.84916 0.29517 0.9902 0.0
C232 C 0.9093 0.41805 0.98963 0.0
C233 C 0.94952 0.36289 0.9963 0.0
H234 H 0.60735 0.71851 0.54528 0.0
H235 H 0.69095 0.6536 0.44941 0.0
H236 H 0.76373 0.74977 0.45104 0.0
H237 H 0.82318 0.83379 0.48821 0.0
H238 H 0.7505 0.8847 0.58961 0.0
H239 H 0.65267 0.81568 0.57674 0.0
C240 C 0.63893 0.72754 0.52377 0.0
C241 C 0.64393 0.67961 0.49722 0.0
C242 C 0.68417 0.77997 0.52654 0.0
C243 C 0.68584 0.69048 0.46983 0.0
C244 C 0.72831 0.74486 0.47119 0.0
C245 C 0.78556 0.8305 0.50736 0.0
C246 C 0.79606 0.86291 0.54041 0.0
C247 C 0.73135 0.78707 0.50083 0.0
C248 C 0.74483 0.8603 0.56407 0.0
C249 C 0.68884 0.82002 0.55691 0.0
H250 H 0.69207 0.39468 0.44015 0.0
H251 H 0.61299 0.25949 0.51149 0.0
H252 H 0.69373 0.17613 0.49373 0.0
H253 H 0.80262 0.15141 0.46725 0.0
H254 H 0.88671 0.29475 0.40173 0.0
H255 H 0.78945 0.36556 0.40807 0.0
C256 C 0.69054 0.34585 0.45053 0.0
C257 C 0.64671 0.33285 0.47683 0.0
C258 C 0.74016 0.30063 0.44224 0.0
C259 C 0.6456 0.27008 0.49071 0.0
C260 C 0.69286 0.22304 0.48113 0.0
C261 C 0.79867 0.19766 0.45395 0.0
C262 C 0.85215 0.21861 0.43463 0.0
C263 C 0.74299 0.23918 0.45848 0.0
C264 C 0.84671 0.2784 0.41732 0.0
C265 C 0.79096 0.31869 0.42074 0.0
H266 H 0.37686 0.34599 0.59258 0.0
H267 H 0.46024 0.27583 0.49724 0.0
H268 H 0.39187 0.17619 0.49879 0.0
H269 H 0.30044 0.1137 0.52541 0.0
H270 H 0.21334 0.19436 0.61758 0.0
H271 H 0.28978 0.28644 0.61843 0.0
C272 C 0.38076 0.30895 0.57207 0.0
C273 C 0.42326 0.31876 0.54464 0.0
C274 C 0.33928 0.2543 0.5722 0.0
C275 C 0.42812 0.2695 0.51873 0.0
C276 C 0.38842 0.21294 0.51944 0.0
C277 C 0.29849 0.15164 0.54556 0.0
C278 C 0.25066 0.14775 0.57117 0.0
C279 C 0.34243 0.20559 0.54563 0.0
C280 C 0.24864 0.19693 0.59722 0.0
C281 C 0.29277 0.24929 0.59794 0.0
H282 H 0.37103 0.64815 0.46619 0.0
H283 H 0.48065 0.75062 0.55196 0.0
H284 H 0.42537 0.8533 0.53366 0.0
H285 H 0.33847 0.91152 0.49562 0.0
H286 H 0.22305 0.80472 0.41318 0.0
H287 H 0.28732 0.70592 0.42775 0.0
C288 C 0.38356 0.69341 0.48036 0.0
C289 C 0.43016 0.69274 0.5099 0.0
C290 C 0.3496 0.751 0.47059 0.0
C291 C 0.44547 0.75077 0.52876 0.0
C292 C 0.41348 0.80911 0.51847 0.0
C293 C 0.32786 0.86655 0.48086 0.0
C294 C 0.27578 0.86494 0.45362 0.0
C295 C 0.36428 0.8095 0.48986 0.0
C296 C 0.2622 0.80662 0.43461 0.0
C297 C 0.29915 0.75032 0.44278 0.0
H298 H 0.95254 0.04284 0.11913 0.0
H299 H 0.01115 0.84196 0.13044 0.0
H300 H 0.01029 0.85266 0.19454 0.0
H301 H 0.02314 0.92647 0.24606 0.0
H302 H 0.96708 0.12895 0.2349 0.0
H303 H 0.93871 0.11079 0.17209 0.0
C304 C 0.96126 0.00058 0.13559 0.0
C305 C 0.98267 0.94199 0.12035 0.0
C306 C 0.96498 0.0084 0.17252 0.0
C307 C 0.99455 0.88757 0.14179 0.0
C308 C 0.99552 0.89413 0.17848 0.0
C309 C 0.00265 0.96637 0.23032 0.0
C310 C 0.99986 0.02961 0.24524 0.0
C311 C 0.98576 0.95556 0.1941 0.0
C312 C 0.97287 0.08032 0.22402 0.0
C313 C 0.9557 0.06987 0.18806 0.0
H314 H 0.10902 0.99538 0.89749 0.0
H315 H 0.89847 0.94257 0.89128 0.0
H316 H 0.89813 0.92887 0.82738 0.0
H317 H 0.95561 0.93722 0.77286 0.0
H318 H 0.16522 0.99338 0.77801 0.0
H319 H 0.16749 0.00205 0.84233 0.0
C320 C 0.06349 0.98 0.88209 0.0
C321 C 0.00397 0.9697 0.89903 0.0
C322 C 0.06306 0.97403 0.84505 0.0
C323 C 0.94493 0.95081 0.87879 0.0
C324 C 0.94459 0.94317 0.84223 0.0
C325 C 0.00203 0.9507 0.78803 0.0
C326 C 0.06009 0.96458 0.77049 0.0
C327 C 0.00304 0.95555 0.82501 0.0
C328 C 0.11944 0.98319 0.79069 0.0
C329 C 0.12099 0.98766 0.82755 0.0
H330 H 0.50278 0.57332 0.64376 0.0
H331 H 0.63598 0.40673 0.65025 0.0
H332 H 0.64138 0.41311 0.71443 0.0
H333 H 0.62381 0.4762 0.76774 0.0
H334 H 0.49306 0.64471 0.76267 0.0
H335 H 0.4714 0.62764 0.69899 0.0
C336 C 0.53161 0.53768 0.65935 0.0
C337 C 0.56997 0.49046 0.6425 0.0
C338 C 0.53613 0.54276 0.69643 0.0
C339 C 0.60708 0.44431 0.6628 0.0
C340 C 0.61027 0.44792 0.69947 0.0
C341 C 0.58899 0.50821 0.75301 0.0
C342 C 0.56126 0.56238 0.7699 0.0
C343 C 0.57739 0.49856 0.7165 0.0
C344 C 0.51661 0.60356 0.75016 0.0
C345 C 0.50394 0.5937 0.71375 0.0
H346 H 0.54674 0.58828 0.4168 0.0
H347 H 0.39631 0.43665 0.41236 0.0
H348 H 0.40525 0.42277 0.3491 0.0
H349 H 0.45786 0.45107 0.2952 0.0
H350 H 0.60667 0.6036 0.2986 0.0
H351 H 0.59596 0.62012 0.36194 0.0
C352 C 0.51547 0.5527 0.40189 0.0
C353 C 0.47089 0.51368 0.41928 0.0
C354 C 0.52073 0.5449 0.36534 0.0
C355 C 0.43072 0.46771 0.39961 0.0
C356 C 0.436 0.45941 0.36343 0.0
C357 C 0.48809 0.48773 0.30989 0.0
C358 C 0.53327 0.52573 0.29242 0.0
C359 C 0.48129 0.49722 0.3461 0.0
C360 C 0.57133 0.5739 0.31155 0.0
C361 C 0.56537 0.58323 0.34773 0.0
loop_
_geom_bond_atom_site_label_1
_geom_bond_atom_site_label_2
_geom_bond_distance
_geom_bond_site_symmetry_2
_ccdc_geom_bond_type
Zn0 O6 1.920 1_545 S
Zn0 O12 1.898 . S
Zn0 O15 1.905 1_545 S
Zn1 O9 1.905 . S
Zn1 O10 1.898 1_545 S
Zn1 O18 1.920 1_545 S
Zn2 O5 2.080 1_445 S
Zn2 O8 2.114 . S
Zn2 O11 2.120 1_545 S
Zn2 O13 2.120 1_455 S
Zn2 O14 2.114 1_554 S
Zn2 O17 2.080 . S
C3 O8 1.166 . S
C3 O9 1.182 . S
C4 O10 1.167 . S
C4 O11 1.299 . S
O5 Zn2 2.080 1_665 S
O5 C19 1.305 . S
O6 Zn0 1.920 1_565 S
O6 C19 1.234 1_556 S
C7 O12 1.167 . S
C7 O13 1.299 1_556 S
O8 Zn2 2.114 . S
O8 C3 1.166 . S
O9 Zn1 1.905 . S
O9 C3 1.182 . S
O10 Zn1 1.898 1_565 S
O10 C4 1.167 . S
O11 Zn2 2.120 1_565 S
O11 C4 1.299 . S
O12 Zn0 1.898 . S
O12 C7 1.167 . S
O13 Zn2 2.120 1_655 S
O13 C7 1.299 1_554 S
O14 Zn2 2.114 1_556 S
O14 C16 1.169 1_545 S
O15 Zn0 1.905 1_565 S
O15 C16 1.177 1_655 S
C16 O14 1.169 1_565 S
C16 O15 1.177 1_455 S
O17 Zn2 2.080 . S
O17 C20 1.305 1_545 S
O18 Zn1 1.920 1_565 S
O18 C20 1.234 . S
C19 O5 1.305 . S
C19 O6 1.234 1_554 S
C20 O17 1.305 1_565 S
C20 O18 1.234 . S
Zn21 O27 1.920 . S
Zn21 O33 1.898 . S
Zn21 O36 1.905 . S
Zn22 O30 1.905 . S
Zn22 O31 1.898 . S
Zn22 O39 1.920 . S
Zn23 O26 2.080 . S
Zn23 O29 2.114 . S
Zn23 O32 2.120 . S
Zn23 O34 2.120 . S
Zn23 O35 2.114 . S
Zn23 O38 2.080 . S
C24 O29 1.166 . S
C24 O30 1.182 . S
C25 O31 1.167 . S
C25 O32 1.299 . S
O26 Zn23 2.080 . S
O26 C40 1.305 . S
O27 Zn21 1.920 . S
O27 C40 1.234 . S
C28 O33 1.167 . S
C28 O34 1.299 . S
O29 Zn23 2.114 . S
O29 C24 1.166 . S
O30 Zn22 1.905 . S
O30 C24 1.182 . S
O31 Zn22 1.898 . S
O31 C25 1.167 . S
O32 Zn23 2.120 . S
O32 C25 1.299 . S
O33 Zn21 1.898 . S
O33 C28 1.167 . S
O34 Zn23 2.120 . S
O34 C28 1.299 . S
O35 Zn23 2.114 . S
O35 C37 1.166 . S
O36 Zn21 1.905 . S
O36 C37 1.182 . S
C37 O35 1.166 . S
C37 O36 1.182 . S
O38 Zn23 2.080 . S
O38 C41 1.305 . S
O39 Zn22 1.920 . S
O39 C41 1.234 . S
C40 O26 1.305 . S
C40 O27 1.234 . S
C41 O38 1.305 . S
C41 O39 1.234 . S
P42 O53 1.490 . S
P42 C56 1.812 . S
P42 C62 1.803 . S
P42 C68 1.819 . S
H43 C57 0.941 . S
H44 C58 0.939 . S
H45 C60 0.940 . S
H46 C61 0.940 . S
H47 C63 0.939 . S
H48 C64 0.942 . S
H49 C66 0.940 . S
H50 C67 0.939 . S
H51 C69 0.941 . S
H52 C73 0.939 1_565 S
O53 P42 1.490 . S
H54 C70 0.939 . S
H55 C72 0.934 1_565 S
C56 P42 1.812 . S
C56 C57 1.389 . S
C56 C61 1.391 . S
C57 H43 0.941 . S
C57 C56 1.389 . S
C57 C58 1.397 . S
C58 H44 0.939 . S
C58 C57 1.397 . S
C58 C59 1.378 1_455 S
C59 C58 1.378 1_655 S
C59 C60 1.378 . S
C60 H45 0.940 . S
C60 C59 1.378 . S
C60 C61 1.396 1_655 S
C61 H46 0.940 . S
C61 C56 1.391 . S
C61 C60 1.396 1_455 S
C62 P42 1.803 . S
C62 C63 1.378 . S
C62 C67 1.400 1_545 S
C63 H47 0.939 . S
C63 C62 1.378 . S
C63 C64 1.361 1_545 S
C64 H48 0.942 . S
C64 C63 1.361 1_565 S
C64 C65 1.369 . S
C65 C64 1.369 . S
C65 C66 1.404 . S
C66 H49 0.940 . S
C66 C65 1.404 . S
C66 C67 1.389 . S
C67 H50 0.939 . S
C67 C62 1.400 1_565 S
C67 C66 1.389 . S
C68 P42 1.819 . S
C68 C69 1.391 . S
C68 C73 1.391 . S
C69 H51 0.941 . S
C69 C68 1.391 . S
C69 C70 1.396 . S
C70 H54 0.939 . S
C70 C69 1.396 . S
C70 C71 1.397 . S
C71 C70 1.397 . S
C71 C72 1.389 . S
C72 H55 0.934 1_545 S
C72 C71 1.389 . S
C72 C73 1.390 . S
C73 H52 0.939 1_545 S
C73 C68 1.391 . S
C73 C72 1.390 . S
P74 O85 1.490 . S
P74 C88 1.812 1_455 S
P74 C94 1.803 1_565 S
P74 C100 1.819 . S
H75 C89 0.941 1_455 S
H76 C90 0.939 . S
H77 C92 0.940 . S
H78 C93 0.940 . S
H79 C95 0.939 . S
H80 C96 0.942 . S
H81 C98 0.940 . S
H82 C99 0.939 . S
H83 C101 0.941 . S
H84 C105 0.939 . S
O85 P74 1.490 . S
H86 C102 0.939 . S
H87 C104 0.940 . S
C88 P74 1.812 1_655 S
C88 C89 1.389 . S
C88 C93 1.391 . S
C89 H75 0.941 1_655 S
C89 C88 1.389 . S
C89 C90 1.397 . S
C90 H76 0.939 . S
C90 C89 1.397 . S
C90 C91 1.378 . S
C91 C90 1.378 . S
C91 C92 1.378 . S
C92 H77 0.940 . S
C92 C91 1.378 . S
C92 C93 1.396 . S
C93 H78 0.940 . S
C93 C88 1.391 . S
C93 C92 1.396 . S
C94 P74 1.803 1_545 S
C94 C95 1.378 . S
C94 C99 1.400 . S
C95 H79 0.939 . S
C95 C94 1.378 . S
C95 C96 1.361 . S
C96 H80 0.942 . S
C96 C95 1.361 . S
C96 C97 1.369 . S
C97 C96 1.369 . S
C97 C98 1.404 . S
C98 H81 0.940 . S
C98 C97 1.404 . S
C98 C99 1.389 . S
C99 H82 0.939 . S
C99 C94 1.400 . S
C99 C98 1.389 . S
C100 P74 1.819 . S
C100 C101 1.391 . S
C100 C105 1.391 1_565 S
C101 H83 0.941 . S
C101 C100 1.391 . S
C101 C102 1.396 . S
C102 H86 0.939 . S
C102 C101 1.396 . S
C102 C103 1.397 1_565 S
C103 C102 1.397 1_545 S
C103 C104 1.385 . S
C104 H87 0.940 . S
C104 C103 1.385 . S
C104 C105 1.388 . S
C105 H84 0.939 . S
C105 C100 1.391 1_545 S
C105 C104 1.388 . S
P106 O117 1.490 . S
P106 C120 1.812 . S
P106 C126 1.803 . S
P106 C132 1.819 . S
H107 C121 0.941 . S
H108 C122 0.939 . S
H109 C124 0.940 . S
H110 C125 0.940 . S
H111 C127 0.939 . S
H112 C128 0.942 . S
H113 C130 0.940 . S
H114 C131 0.939 . S
H115 C133 0.941 . S
H116 C137 0.939 . S
O117 P106 1.490 . S
H118 C134 0.939 . S
H119 C136 0.940 . S
C120 P106 1.812 . S
C120 C121 1.389 . S
C120 C125 1.391 . S
C121 H107 0.941 . S
C121 C120 1.389 . S
C121 C122 1.397 . S
C122 H108 0.939 . S
C122 C121 1.397 . S
C122 C123 1.378 . S
C123 C122 1.378 . S
C123 C124 1.378 . S
C124 H109 0.940 . S
C124 C123 1.378 . S
C124 C125 1.396 . S
C125 H110 0.940 . S
C125 C120 1.391 . S
C125 C124 1.396 . S
C126 P106 1.803 . S
C126 C127 1.378 . S
C126 C131 1.400 . S
C127 H111 0.939 . S
C127 C126 1.378 . S
C127 C128 1.361 . S
C128 H112 0.942 . S
C128 C127 1.361 . S
C128 C129 1.369 . S
C129 C128 1.369 . S
C129 C130 1.404 . S
C130 H113 0.940 . S
C130 C129 1.404 . S
C130 C131 1.389 . S
C131 H114 0.939 . S
C131 C126 1.400 . S
C131 C130 1.389 . S
C132 P106 1.819 . S
C132 C133 1.391 . S
C132 C137 1.391 . S
C133 H115 0.941 . S
C133 C132 1.391 . S
C133 C134 1.396 . S
C134 H118 0.939 . S
C134 C133 1.396 . S
C134 C135 1.397 . S
C135 C134 1.397 . S
C135 C136 1.385 . S
C136 H119 0.940 . S
C136 C135 1.385 . S
C136 C137 1.388 . S
C137 H116 0.939 . S
C137 C132 1.391 . S
C137 C136 1.388 . S
P138 O149 1.490 . S
P138 C152 1.812 . S
P138 C158 1.803 . S
P138 C164 1.819 . S
H139 C153 0.941 . S
H140 C154 0.939 . S
H141 C156 0.940 . S
H142 C157 0.940 . S
H143 C159 0.939 . S
H144 C160 0.942 . S
H145 C162 0.940 . S
H146 C163 0.939 . S
H147 C165 0.941 . S
H148 C169 0.939 . S
O149 P138 1.490 . S
H150 C166 0.939 . S
H151 C168 0.940 . S
C152 P138 1.812 . S
C152 C153 1.389 . S
C152 C157 1.391 . S
C153 H139 0.941 . S
C153 C152 1.389 . S
C153 C154 1.397 . S
C154 H140 0.939 . S
C154 C153 1.397 . S
C154 C155 1.378 . S
C155 C154 1.378 . S
C155 C156 1.378 . S
C156 H141 0.940 . S
C156 C155 1.378 . S
C156 C157 1.396 . S
C157 H142 0.940 . S
C157 C152 1.391 . S
C157 C156 1.396 . S
C158 P138 1.803 . S
C158 C159 1.378 . S
C158 C163 1.400 . S
C159 H143 0.939 . S
C159 C158 1.378 . S
C159 C160 1.361 . S
C160 H144 0.942 . S
C160 C159 1.361 . S
C160 C161 1.369 . S
C161 C160 1.369 . S
C161 C162 1.404 . S
C162 H145 0.940 . S
C162 C161 1.404 . S
C162 C163 1.389 . S
C163 H146 0.939 . S
C163 C158 1.400 . S
C163 C162 1.389 . S
C164 P138 1.819 . S
C164 C165 1.391 . S
C164 C169 1.391 . S
C165 H147 0.941 . S
C165 C164 1.391 . S
C165 C166 1.396 . S
C166 H150 0.939 . S
C166 C165 1.396 . S
C166 C167 1.397 . S
C167 C166 1.397 . S
C167 C168 1.385 . S
C168 H151 0.940 . S
C168 C167 1.385 . S
C168 C169 1.388 . S
C169 H148 0.939 . S
C169 C164 1.391 . S
C169 C168 1.388 . S
H170 C176 0.930 . S
H171 C179 0.930 . S
H172 C180 0.930 . S
H173 C181 0.930 . S
H174 C184 0.930 . S
H175 C185 0.930 . S
C176 H170 0.930 . S
C176 C177 1.355 . S
C176 C178 1.415 . S
C177 C176 1.355 . S
C177 C179 1.419 . S
C178 C176 1.415 . S
C178 C183 1.425 . S
C178 C185 1.409 . S
C179 H171 0.930 . S
C179 C177 1.419 . S
C179 C180 1.362 . S
C180 H172 0.930 . S
C180 C179 1.362 . S
C180 C183 1.409 . S
C181 H173 0.930 . S
C181 C182 1.355 . S
C181 C183 1.415 . S
C182 C181 1.355 . S
C182 C184 1.419 . S
C183 C178 1.425 . S
C183 C180 1.409 . S
C183 C181 1.415 . S
C184 H174 0.930 . S
C184 C182 1.419 . S
C184 C185 1.362 . S
C185 H175 0.930 . S
C185 C178 1.409 . S
C185 C184 1.362 . S
H186 C192 0.930 1_554 S
H187 C195 0.930 . S
H188 C196 0.930 . S
H189 C197 0.930 . S
H190 C200 0.930 . S
H191 C201 0.928 1_554 S
C192 H186 0.930 1_556 S
C192 C193 1.355 . S
C192 C194 1.415 . S
C193 C192 1.355 . S
C193 C195 1.419 . S
C194 C192 1.415 . S
C194 C199 1.425 . S
C194 C201 1.409 . S
C195 H187 0.930 . S
C195 C193 1.419 . S
C195 C196 1.362 . S
C196 H188 0.930 . S
C196 C195 1.362 . S
C196 C199 1.409 . S
C197 H189 0.930 . S
C197 C198 1.355 . S
C197 C199 1.415 . S
C198 C197 1.355 . S
C198 C200 1.419 . S
C199 C194 1.425 . S
C199 C196 1.409 . S
C199 C197 1.415 . S
C200 H190 0.930 . S
C200 C198 1.419 . S
C200 C201 1.362 . S
C201 H191 0.928 1_556 S
C201 C194 1.409 . S
C201 C200 1.362 . S
H202 C208 0.930 . S
H203 C211 0.930 . S
H204 C212 0.930 . S
H205 C213 0.930 . S
H206 C216 0.930 . S
H207 C217 0.930 . S
C208 H202 0.930 . S
C208 C209 1.355 . S
C208 C210 1.415 . S
C209 C208 1.355 . S
C209 C211 1.419 . S
C210 C208 1.415 . S
C210 C215 1.425 . S
C210 C217 1.409 . S
C211 H203 0.930 . S
C211 C209 1.419 . S
C211 C212 1.362 . S
C212 H204 0.930 . S
C212 C211 1.362 . S
C212 C215 1.409 . S
C213 H205 0.930 . S
C213 C214 1.355 . S
C213 C215 1.415 . S
C214 C213 1.355 . S
C214 C216 1.419 . S
C215 C210 1.425 . S
C215 C212 1.409 . S
C215 C213 1.415 . S
C216 H206 0.930 . S
C216 C214 1.419 . S
C216 C217 1.362 . S
C217 H207 0.930 . S
C217 C210 1.409 . S
C217 C216 1.362 . S
H218 C224 0.931 . S
H219 C227 0.930 . S
H220 C228 0.930 . S
H221 C229 0.930 . S
H222 C232 0.930 . S
H223 C233 0.930 . S
C224 H218 0.931 . S
C224 C225 1.355 . S
C224 C226 1.413 1_554 S
C225 C224 1.355 . S
C225 C227 1.418 1_554 S
C226 C224 1.413 1_556 S
C226 C231 1.425 . S
C226 C233 1.409 . S
C227 H219 0.930 . S
C227 C225 1.418 1_556 S
C227 C228 1.362 . S
C228 H220 0.930 . S
C228 C227 1.362 . S
C228 C231 1.409 . S
C229 H221 0.930 . S
C229 C230 1.355 . S
C229 C231 1.415 . S
C230 C229 1.355 . S
C230 C232 1.419 . S
C231 C226 1.425 . S
C231 C228 1.409 . S
C231 C229 1.415 . S
C232 H222 0.930 . S
C232 C230 1.419 . S
C232 C233 1.362 . S
C233 H223 0.930 . S
C233 C226 1.409 . S
C233 C232 1.362 . S
H234 C240 0.930 . S
H235 C243 0.930 . S
H236 C244 0.930 . S
H237 C245 0.930 . S
H238 C248 0.930 . S
H239 C249 0.930 . S
C240 H234 0.930 . S
C240 C241 1.355 . S
C240 C242 1.415 . S
C241 C240 1.355 . S
C241 C243 1.419 . S
C242 C240 1.415 . S
C242 C247 1.425 . S
C242 C249 1.409 . S
C243 H235 0.930 . S
C243 C241 1.419 . S
C243 C244 1.362 . S
C244 H236 0.930 . S
C244 C243 1.362 . S
C244 C247 1.409 . S
C245 H237 0.930 . S
C245 C246 1.355 . S
C245 C247 1.415 . S
C246 C245 1.355 . S
C246 C248 1.419 . S
C247 C242 1.425 . S
C247 C244 1.409 . S
C247 C245 1.415 . S
C248 H238 0.930 . S
C248 C246 1.419 . S
C248 C249 1.362 . S
C249 H239 0.930 . S
C249 C242 1.409 . S
C249 C248 1.362 . S
H250 C256 0.930 . S
H251 C259 0.930 . S
H252 C260 0.930 . S
H253 C261 0.930 . S
H254 C264 0.930 . S
H255 C265 0.930 . S
C256 H250 0.930 . S
C256 C257 1.355 . S
C256 C258 1.415 . S
C257 C256 1.355 . S
C257 C259 1.419 . S
C258 C256 1.415 . S
C258 C263 1.425 . S
C258 C265 1.409 . S
C259 H251 0.930 . S
C259 C257 1.419 . S
C259 C260 1.362 . S
C260 H252 0.930 . S
C260 C259 1.362 . S
C260 C263 1.409 . S
C261 H253 0.930 . S
C261 C262 1.355 . S
C261 C263 1.415 . S
C262 C261 1.355 . S
C262 C264 1.419 . S
C263 C258 1.425 . S
C263 C260 1.409 . S
C263 C261 1.415 . S
C264 H254 0.930 . S
C264 C262 1.419 . S
C264 C265 1.362 . S
C265 H255 0.930 . S
C265 C258 1.409 . S
C265 C264 1.362 . S
H266 C272 0.930 . S
H267 C275 0.930 . S
H268 C276 0.930 . S
H269 C277 0.930 . S
H270 C280 0.930 . S
H271 C281 0.930 . S
C272 H266 0.930 . S
C272 C273 1.355 . S
C272 C274 1.415 . S
C273 C272 1.355 . S
C273 C275 1.419 . S
C274 C272 1.415 . S
C274 C279 1.425 . S
C274 C281 1.409 . S
C275 H267 0.930 . S
C275 C273 1.419 . S
C275 C276 1.362 . S
C276 H268 0.930 . S
C276 C275 1.362 . S
C276 C279 1.409 . S
C277 H269 0.930 . S
C277 C278 1.355 . S
C277 C279 1.415 . S
C278 C277 1.355 . S
C278 C280 1.419 . S
C279 C274 1.425 . S
C279 C276 1.409 . S
C279 C277 1.415 . S
C280 H270 0.930 . S
C280 C278 1.419 . S
C280 C281 1.362 . S
C281 H271 0.930 . S
C281 C274 1.409 . S
C281 C280 1.362 . S
H282 C288 0.930 . S
H283 C291 0.930 . S
H284 C292 0.930 . S
H285 C293 0.930 . S
H286 C296 0.930 . S
H287 C297 0.930 . S
C288 H282 0.930 . S
C288 C289 1.355 . S
C288 C290 1.415 . S
C289 C288 1.355 . S
C289 C291 1.419 . S
C290 C288 1.415 . S
C290 C295 1.425 . S
C290 C297 1.409 . S
C291 H283 0.930 . S
C291 C289 1.419 . S
C291 C292 1.362 . S
C292 H284 0.930 . S
C292 C291 1.362 . S
C292 C295 1.409 . S
C293 H285 0.930 . S
C293 C294 1.355 . S
C293 C295 1.415 . S
C294 C293 1.355 . S
C294 C296 1.419 . S
C295 C290 1.425 . S
C295 C292 1.409 . S
C295 C293 1.415 . S
C296 H286 0.930 . S
C296 C294 1.419 . S
C296 C297 1.362 . S
C297 H287 0.930 . S
C297 C290 1.409 . S
C297 C296 1.362 . S
H298 C304 0.930 . S
H299 C307 0.930 . S
H300 C308 0.930 . S
H301 C309 0.930 . S
H302 C312 0.930 . S
H303 C313 0.930 . S
C304 H298 0.930 . S
C304 C305 1.355 1_545 S
C304 C306 1.415 . S
C305 C304 1.355 1_565 S
C305 C307 1.419 . S
C306 C304 1.415 . S
C306 C311 1.425 1_545 S
C306 C313 1.409 . S
C307 H299 0.930 . S
C307 C305 1.419 . S
C307 C308 1.362 . S
C308 H300 0.930 . S
C308 C307 1.362 . S
C308 C311 1.409 . S
C309 H301 0.930 . S
C309 C310 1.355 1_565 S
C309 C311 1.415 . S
C310 C309 1.355 1_545 S
C310 C312 1.419 . S
C311 C306 1.425 1_565 S
C311 C308 1.409 . S
C311 C309 1.415 . S
C312 H302 0.930 . S
C312 C310 1.419 . S
C312 C313 1.362 . S
C313 H303 0.930 . S
C313 C306 1.409 . S
C313 C312 1.362 . S
H314 C320 0.930 . S
H315 C323 0.930 . S
H316 C324 0.930 . S
H317 C325 0.930 . S
H318 C328 0.930 . S
H319 C329 0.930 . S
C320 H314 0.930 . S
C320 C321 1.355 1_545 S
C320 C322 1.415 . S
C321 C320 1.355 1_565 S
C321 C323 1.419 1_455 S
C322 C320 1.415 . S
C322 C327 1.425 1_445 S
C322 C329 1.409 . S
C323 H315 0.930 . S
C323 C321 1.419 1_655 S
C323 C324 1.362 . S
C324 H316 0.930 . S
C324 C323 1.362 . S
C324 C327 1.409 . S
C325 H317 0.930 . S
C325 C326 1.355 1_665 S
C325 C327 1.415 . S
C326 C325 1.355 1_445 S
C326 C328 1.419 . S
C327 C322 1.425 1_665 S
C327 C324 1.409 . S
C327 C325 1.415 . S
C328 H318 0.930 . S
C328 C326 1.419 . S
C328 C329 1.362 . S
C329 H319 0.930 . S
C329 C322 1.409 . S
C329 C328 1.362 . S
H330 C336 0.930 . S
H331 C339 0.930 . S
H332 C340 0.930 . S
H333 C341 0.930 . S
H334 C344 0.930 . S
H335 C345 0.930 . S
C336 H330 0.930 . S
C336 C337 1.355 . S
C336 C338 1.415 . S
C337 C336 1.355 . S
C337 C339 1.419 . S
C338 C336 1.415 . S
C338 C343 1.425 . S
C338 C345 1.409 . S
C339 H331 0.930 . S
C339 C337 1.419 . S
C339 C340 1.362 . S
C340 H332 0.930 . S
C340 C339 1.362 . S
C340 C343 1.409 . S
C341 H333 0.930 . S
C341 C342 1.355 . S
C341 C343 1.415 . S
C342 C341 1.355 . S
C342 C344 1.419 . S
C343 C338 1.425 . S
C343 C340 1.409 . S
C343 C341 1.415 . S
C344 H334 0.930 . S
C344 C342 1.419 . S
C344 C345 1.362 . S
C345 H335 0.930 . S
C345 C338 1.409 . S
C345 C344 1.362 . S
H346 C352 0.930 . S
H347 C355 0.930 . S
H348 C356 0.930 . S
H349 C357 0.930 . S
H350 C360 0.930 . S
H351 C361 0.930 . S
C352 H346 0.930 . S
C352 C353 1.355 . S
C352 C354 1.415 . S
C353 C352 1.355 . S
C353 C355 1.419 . S
C354 C352 1.415 . S
C354 C359 1.425 . S
C354 C361 1.409 . S
C355 H347 0.930 . S
C355 C353 1.419 . S
C355 C356 1.362 . S
C356 H348 0.930 . S
C356 C355 1.362 . S
C356 C359 1.409 . S
C357 H349 0.930 . S
C357 C358 1.355 . S
C357 C359 1.415 . S
C358 C357 1.355 . S
C358 C360 1.419 . S
C359 C354 1.425 . S
C359 C356 1.409 . S
C359 C357 1.415 . S
C360 H350 0.930 . S
C360 C358 1.419 . S
C360 C361 1.362 . S
C361 H351 0.930 . S
C361 C354 1.409 . S
C361 C360 1.362 . S
C182 C155 1.291 . S
C177 C3 1.089 . S
C193 C4 1.450 1_556 S
C198 C123 1.594 . S
C209 C19 1.521 . S
C214 C161 1.592 . S
C225 C7 1.104 1_554 S
C230 C129 1.240 . S
C241 C37 1.179 . S
C246 C91 1.249 . S
C257 C28 1.492 . S
C262 C59 1.554 . S
C278 C97 1.567 . S
C273 C41 1.476 . S
C294 C65 1.269 . S
C289 C25 1.222 . S
C305 C20 1.313 . S
C310 C71 1.480 . S
C321 C16 1.304 . S
C326 C103 1.442 . S
C342 C135 1.489 . S
C337 C40 1.272 . S
C353 C24 1.332 . S
C358 C167 1.462 . S
