# Generated by pormake.
# Topology anh, (6,3)-cn, num edge types: 1
# Building blocks:
#     Node 0, Type 0, BuildingBlock: BETFAJ_clean_sbu_0, # of connection points: 6
#     Node 1, Type 0, BuildingBlock: BETFAJ_clean_sbu_0, # of connection points: 6
#     Node 2, Type 0, BuildingBlock: BETFAJ_clean_sbu_0, # of connection points: 6
#     Node 3, Type 1, BuildingBlock: CUQRIR_clean_linker_1, # of connection points: 3
#     Node 4, Type 1, BuildingBlock: CUQRIR_clean_linker_1, # of connection points: 3
#     Node 5, Type 1, BuildingBlock: CUQRIR_clean_linker_1, # of connection points: 3
#     Node 6, Type 1, BuildingBlock: CUQRIR_clean_linker_1, # of connection points: 3
#     Node 7, Type 1, BuildingBlock: CUQRIR_clean_linker_1, # of connection points: 3
#     Node 8, Type 1, BuildingBlock: CUQRIR_clean_linker_1, # of connection points: 3
#     Edge 9, Type (0, 1), BuildingBlock: ZUJKAS_clean_linker_0, # of connection points: 2
#     Edge 10, Type (0, 1), BuildingBlock: ZUJKAS_clean_linker_0, # of connection points: 2
#     Edge 11, Type (0, 1), BuildingBlock: ZUJKAS_clean_linker_0, # of connection points: 2
#     Edge 12, Type (0, 1), BuildingBlock: ZUJKAS_clean_linker_0, # of connection points: 2
#     Edge 13, Type (0, 1), BuildingBlock: ZUJKAS_clean_linker_0, # of connection points: 2
#     Edge 14, Type (0, 1), BuildingBlock: ZUJKAS_clean_linker_0, # of connection points: 2
#     Edge 15, Type (0, 1), BuildingBlock: ZUJKAS_clean_linker_0, # of connection points: 2
#     Edge 16, Type (0, 1), BuildingBlock: ZUJKAS_clean_linker_0, # of connection points: 2
#     Edge 17, Type (0, 1), BuildingBlock: ZUJKAS_clean_linker_0, # of connection points: 2
#     Edge 18, Type (0, 1), BuildingBlock: ZUJKAS_clean_linker_0, # of connection points: 2
#     Edge 19, Type (0, 1), BuildingBlock: ZUJKAS_clean_linker_0, # of connection points: 2
#     Edge 20, Type (0, 1), BuildingBlock: ZUJKAS_clean_linker_0, # of connection points: 2
#     Edge 21, Type (0, 1), BuildingBlock: ZUJKAS_clean_linker_0, # of connection points: 2
#     Edge 22, Type (0, 1), BuildingBlock: ZUJKAS_clean_linker_0, # of connection points: 2
#     Edge 23, Type (0, 1), BuildingBlock: ZUJKAS_clean_linker_0, # of connection points: 2
#     Edge 24, Type (0, 1), BuildingBlock: ZUJKAS_clean_linker_0, # of connection points: 2
#     Edge 25, Type (0, 1), BuildingBlock: ZUJKAS_clean_linker_0, # of connection points: 2
#     Edge 26, Type (0, 1), BuildingBlock: ZUJKAS_clean_linker_0, # of connection points: 2
# Relax obj value: 0.167
# Max RMSD: 0.211
# Mean RMSD: 0.159
data_MOF--net-anh--node1-BETFAJ_clean_sbu_0--node2-CUQRIR_clean_linker_1--edge1-ZUJKAS_clean_linker_0
_symmetry_space_group_name_H-M    P1
_symmetry_Int_Tables_number       1
_symmetry_cell_setting            triclinic
loop_
_symmetry_equiv_pos_as_xyz
'x, y, z'
_cell_length_a     36.907517
_cell_length_b     44.556611
_cell_length_c     61.42868
_cell_angle_alpha  88.117204
_cell_angle_beta   88.380313
_cell_angle_gamma 128.27677
loop_
_atom_site_label
_atom_site_type_symbol
_atom_site_fract_x
_atom_site_fract_y
_atom_site_fract_z
_atom_type_partial_charge
Sm0 Sm 0.12358 0.48352 0.15537 0.0
Sm1 Sm 1.05745 0.50525 0.16472 0.0
C2 C 0.19046 0.48053 0.14419 0.0
C3 C 0.23276 0.49503 0.15558 0.0
C4 C 0.27119 0.53417 0.15375 0.0
C5 C 0.30843 0.54845 0.16682 0.0
C6 C 0.30803 0.52394 0.18201 0.0
C7 C 0.26992 0.48474 0.18356 0.0
C8 C 0.23294 0.47042 0.17039 0.0
C9 C 0.09782 0.47947 0.19849 0.0
C10 C 0.16817 0.57521 0.1604 0.0
C11 C 0.99368 0.5051 0.18483 0.0
C12 C 0.94428 0.4809 0.18114 0.0
C13 C 0.91203 0.47287 0.19769 0.0
C14 C 0.8647 0.44696 0.19455 0.0
C15 C 0.84908 0.42871 0.17482 0.0
C16 C 0.88179 0.43667 0.15842 0.0
C17 C 0.92887 0.46233 0.16162 0.0
C18 C 1.06622 0.49985 0.1202 0.0
C19 C 1.01439 0.41625 0.1561 0.0
O20 O 0.1878 0.50624 0.13535 0.0
O21 O 0.15159 0.45171 0.15439 0.0
O22 O 0.10789 0.50474 0.18414 0.0
O23 O 0.10464 0.45659 0.19065 0.0
O24 O 0.17434 0.55002 0.15486 0.0
O25 O 0.12696 0.56504 0.16632 0.0
O26 O 1.00723 0.48609 0.19275 0.0
O27 O 1.02156 0.53044 0.16884 0.0
O28 O 0.08361 0.49419 0.1354 0.0
O29 O 1.04191 0.50916 0.12851 0.0
O30 O 1.01041 0.43929 0.16697 0.0
O31 O 1.05407 0.42867 0.14612 0.0
H32 H 0.27223 0.55397 0.1425 0.0
H33 H 0.33775 0.57863 0.16484 0.0
H34 H 0.26836 0.46509 0.19517 0.0
H35 H 0.20384 0.44015 0.17225 0.0
H36 H 0.92342 0.48626 0.21307 0.0
H37 H 0.84034 0.44112 0.20759 0.0
H38 H 0.87115 0.42374 0.1429 0.0
H39 H 0.95332 0.4675 0.14884 0.0
Sm40 Sm 0.68326 0.04375 0.48595 0.0
Sm41 Sm 0.6232 0.06562 0.47398 0.0
C42 C 0.71906 0.01383 0.50481 0.0
C43 C 0.70782 0.97629 0.50985 0.0
C44 C 0.7256 0.97132 0.52823 0.0
C45 C 0.71656 0.93634 0.53316 0.0
C46 C 0.68967 0.90558 0.5197 0.0
C47 C 0.67114 0.9105 0.50145 0.0
C48 C 0.68004 0.94554 0.4966 0.0
C49 C 0.68359 0.05695 0.44188 0.0
C50 C 0.57313 0.97609 0.47737 0.0
C51 C 0.58775 0.09782 0.45817 0.0
C52 C 0.59491 0.13329 0.4626 0.0
C53 C 0.57311 0.14461 0.45055 0.0
C54 C 0.57898 0.17786 0.45527 0.0
C55 C 0.6067 0.20029 0.47217 0.0
C56 C 0.62886 0.18887 0.48402 0.0
C57 C 0.62308 0.15575 0.47924 0.0
C58 C 0.62403 0.05328 0.51806 0.0
C59 C 0.73501 0.1338 0.47975 0.0
O60 O 0.69426 0.02089 0.51557 0.0
O61 O 0.72779 0.02615 0.48426 0.0
O62 O 0.64838 0.03901 0.455 0.0
O63 O 0.71997 0.06671 0.45159 0.0
O64 O 0.60915 0.98552 0.48806 0.0
O65 O 0.57325 1.00247 0.46688 0.0
O66 O 0.623 0.10221 0.44857 0.0
O67 O 0.56773 0.07148 0.47427 0.0
O68 O 0.65894 0.07134 0.50478 0.0
O69 O 0.58741 0.04278 0.50841 0.0
O70 O 0.69675 0.12369 0.47117 0.0
O71 O 0.73743 0.1082 0.48931 0.0
H72 H 0.74674 0.99463 0.53876 0.0
H73 H 0.73057 0.93339 0.54759 0.0
H74 H 0.65059 0.8876 0.49064 0.0
H75 H 0.66568 0.94874 0.4824 0.0
H76 H 0.55139 0.12764 0.43758 0.0
H77 H 0.56194 0.18606 0.44561 0.0
H78 H 0.64989 0.20504 0.49734 0.0
H79 H 0.64016 0.14736 0.48873 0.0
Sm80 Sm 0.64139 0.6084 0.84093 0.0
Sm81 Sm 0.57294 0.51721 0.8504 0.0
C82 C 0.68487 0.68081 0.82734 0.0
C83 C 0.6758 0.70783 0.82098 0.0
C84 C 0.65366 0.70439 0.80189 0.0
C85 C 0.64751 0.73149 0.79584 0.0
C86 C 0.66339 0.76258 0.80875 0.0
C87 C 0.68494 0.76555 0.82797 0.0
C88 C 0.69124 0.73862 0.83394 0.0
C89 C 0.63117 0.58075 0.88287 0.0
C90 C 0.52654 0.56079 0.84854 0.0
C91 C 0.53183 0.44825 0.86907 0.0
C92 C 0.53536 0.41816 0.86386 0.0
C93 C 0.51651 0.3862 0.87839 0.0
C94 C 0.52205 0.35864 0.87368 0.0
C95 C 0.54666 0.36273 0.85436 0.0
C96 C 0.56514 0.3948 0.83981 0.0
C97 C 0.5597 0.42228 0.84456 0.0
C98 C 0.59161 0.53577 0.80587 0.0
C99 C 0.68742 0.56519 0.84192 0.0
O100 O 0.67355 0.65405 0.81413 0.0
O101 O 0.67674 0.66895 0.84798 0.0
O102 O 0.59895 0.56785 0.87021 0.0
O103 O 0.67068 0.61023 0.87393 0.0
O104 O 0.56788 0.59278 0.84145 0.0
O105 O 0.52035 0.52895 0.85464 0.0
O106 O 0.5695 0.47926 0.87608 0.0
O107 O 0.51226 0.45561 0.85465 0.0
O108 O 0.60656 0.55802 0.82105 0.0
O109 O 0.56383 0.50078 0.81421 0.0
O110 O 0.64687 0.53434 0.85053 0.0
O111 O 0.69297 0.59612 0.83429 0.0
H112 H 0.64154 0.68107 0.79148 0.0
H113 H 0.63122 0.72852 0.78081 0.0
H114 H 0.69687 0.78866 0.83852 0.0
H115 H 0.70855 0.74204 0.8487 0.0
H116 H 0.49801 0.38279 0.89347 0.0
H117 H 0.50783 0.33455 0.88536 0.0
H118 H 0.58362 0.39863 0.82464 0.0
H119 H 0.57479 0.44695 0.83321 0.0
C120 C 0.59152 0.99431 0.1839 0.0
N121 N 0.61857 0.02196 0.19786 0.0
N122 N 0.555 0.96184 0.19496 0.0
C123 C 0.59898 0.99963 0.15946 0.0
C124 C 0.56088 0.97063 0.21611 0.0
N125 N 0.59915 0.00725 0.21788 0.0
C126 C 0.5316 0.94226 0.23512 0.0
H127 H 0.61544 0.02966 0.1538 0.0
H128 H 0.56579 0.98002 0.15162 0.0
H129 H 0.62227 0.99301 0.1543 0.0
H130 H 0.51505 0.91252 0.23075 0.0
H131 H 0.50399 0.94426 0.23993 0.0
H132 H 0.55261 0.94848 0.24936 0.0
C133 C 0.64951 0.54703 0.54347 0.0
N134 N 0.65404 0.56926 0.55943 0.0
N135 N 0.65582 0.52184 0.55121 0.0
C136 C 0.64175 0.55138 0.52006 0.0
C137 C 0.66436 0.52953 0.57242 0.0
N138 N 0.6638 0.55863 0.57735 0.0
C139 C 0.66916 0.50641 0.58876 0.0
H140 H 0.60405 0.53421 0.51817 0.0
H141 H 0.65554 0.54092 0.50902 0.0
H142 H 0.65841 0.58176 0.51522 0.0
H143 H 0.70644 0.52064 0.59011 0.0
H144 H 0.65186 0.47696 0.58362 0.0
H145 H 0.6542 0.50469 0.60511 0.0
C146 C 0.10378 0.55856 0.85861 0.0
N147 N 0.12605 0.55196 0.87303 0.0
N148 N 1.06585 0.55224 0.86854 0.0
C149 C 0.11732 0.56896 0.83469 0.0
C150 C 1.06621 0.54198 0.88946 0.0
N151 N 0.10202 0.5413 0.89214 0.0
C152 C 1.03352 0.5356 0.90774 0.0
H153 H 0.14367 0.60053 0.83217 0.0
H154 H 0.08705 0.55978 0.82533 0.0
H155 H 0.13262 0.5557 0.82845 0.0
H156 H 1.0042 0.50452 0.9101 0.0
H157 H 1.01952 0.55103 0.90392 0.0
H158 H 1.05108 0.54542 0.92325 0.0
C159 C 0.15042 0.55758 0.45582 0.0
N160 N 0.12134 0.53133 0.44167 0.0
N161 N 0.17971 0.59284 0.44543 0.0
C162 C 0.14844 0.54939 0.47993 0.0
C163 C 0.16762 0.58711 0.42449 0.0
N164 N 0.1318 0.54985 0.42226 0.0
C165 C 0.19366 0.61724 0.40589 0.0
H166 H 0.16203 0.57531 0.48893 0.0
H167 H 0.17009 0.54045 0.48301 0.0
H168 H 0.11247 0.52582 0.48622 0.0
H169 H 0.19299 0.60441 0.39058 0.0
H170 H 0.23019 0.63978 0.40953 0.0
H171 H 0.17703 0.63086 0.40327 0.0
C172 C 0.62066 0.07635 0.783 0.0
N173 N 0.6228 0.05838 0.76623 0.0
N174 N 0.61488 0.10199 0.77552 0.0
C175 C 0.62408 0.06882 0.80659 0.0
C176 C 0.61312 0.09874 0.7537 0.0
N177 N 0.61758 0.07202 0.74807 0.0
C178 C 0.60794 0.12242 0.73808 0.0
H179 H 0.60896 0.07818 0.81761 0.0
H180 H 0.66107 0.08501 0.80989 0.0
H181 H 0.60642 0.03789 0.81021 0.0
H182 H 0.63946 0.15276 0.73783 0.0
H183 H 0.5783 0.12121 0.74392 0.0
H184 H 0.60293 0.11294 0.72123 0.0
C185 C 0.57184 0.47456 0.14647 0.0
N186 N 0.57334 0.46674 0.12552 0.0
N187 N 0.57666 0.50711 0.14727 0.0
C188 C 0.56925 0.45204 0.16611 0.0
C189 C 0.58071 0.5187 0.12608 0.0
N190 N 0.57979 0.49457 0.11277 0.0
C191 C 0.58062 0.55118 0.11862 0.0
H192 H 0.58171 0.46924 0.18067 0.0
H193 H 0.59008 0.44228 0.16283 0.0
H194 H 0.53277 0.42627 0.16967 0.0
H195 H 0.61669 0.57821 0.11719 0.0
H196 H 0.56063 0.55464 0.13064 0.0
H197 H 0.56543 0.54626 0.10254 0.0
H198 H 0.36191 0.59209 0.20213 0.0
H199 H 0.43517 0.61928 0.21901 0.0
H200 H 0.41799 0.51602 0.20819 0.0
H201 H 0.34612 0.4892 0.19135 0.0
H202 H 0.46268 0.55171 0.24831 0.0
H203 H 0.54365 0.65565 0.17574 0.0
H204 H 0.50451 0.65337 0.19525 0.0
H205 H 0.48243 0.61712 0.17592 0.0
C206 C 0.37363 0.57509 0.20366 0.0
C207 C 0.34852 0.53867 0.19512 0.0
C208 C 0.4152 0.59054 0.21348 0.0
C209 C 0.4321 0.56975 0.21479 0.0
C210 C 0.40533 0.53241 0.20767 0.0
H211 H 0.50791 0.4733 0.17831 0.0
H212 H 0.4972 0.5049 0.20631 0.0
C213 C 0.36414 0.51709 0.19792 0.0
C214 C 0.48062 0.58782 0.2192 0.0
H215 H 0.57209 0.62191 0.18363 0.0
C216 C 0.48818 0.5688 0.23484 0.0
C217 C 0.51538 0.61186 0.20248 0.0
C218 C 0.51154 0.63599 0.18642 0.0
C219 C 0.52323 0.56557 0.23095 0.0
C220 C 0.55008 0.58124 0.21094 0.0
C221 C 0.54999 0.6082 0.19849 0.0
C222 C 0.56382 0.56084 0.19913 0.0
C223 C 0.52712 0.54134 0.24682 0.0
C224 C 0.6049 0.58127 0.18572 0.0
C225 C 0.61028 0.56309 0.16928 0.0
C226 C 0.57488 0.52429 0.1662 0.0
C227 C 0.53565 0.50318 0.18064 0.0
C228 C 0.53001 0.52128 0.19688 0.0
H229 H 0.52585 0.54874 0.26377 0.0
H230 H 0.49716 0.51068 0.24571 0.0
H231 H 0.55966 0.54529 0.24362 0.0
H232 H 0.63126 0.6118 0.18693 0.0
H233 H 0.64098 0.57963 0.15829 0.0
H234 H 0.82281 0.16645 0.49194 0.0
H235 H 0.89058 0.23437 0.48799 0.0
H236 H 0.80772 0.26163 0.4598 0.0
H237 H 0.73997 0.19429 0.46389 0.0
H238 H 0.9307 0.28142 0.44913 0.0
H239 H 0.87188 0.33812 0.50713 0.0
H240 H 0.84497 0.28778 0.5069 0.0
H241 H 0.83086 0.30942 0.48728 0.0
C242 C 0.81891 0.18695 0.4851 0.0
C243 C 0.77591 0.17489 0.47828 0.0
C244 C 0.85768 0.22572 0.48282 0.0
C245 C 0.85401 0.25308 0.47389 0.0
C246 C 0.81113 0.24112 0.46714 0.0
H247 H 1.03212 0.49332 0.43315 0.0
H248 H 0.96832 0.42484 0.44128 0.0
C249 C 0.77247 0.20249 0.46937 0.0
C250 C 0.89525 0.29397 0.47069 0.0
H251 H 0.93681 0.38411 0.48274 0.0
C252 C 0.93235 0.30389 0.45667 0.0
C253 C 0.89718 0.32317 0.4805 0.0
C254 C 0.8593 0.31415 0.49646 0.0
C255 C 0.97067 0.34238 0.45159 0.0
C256 C 0.97217 0.37159 0.46109 0.0
C257 C 0.93546 0.36163 0.47542 0.0
C258 C 1.011 0.41275 0.45598 0.0
C259 C 1.00849 0.35153 0.43553 0.0
C260 C 1.05596 0.42861 0.46166 0.0
C261 C 0.09227 0.46756 0.45694 0.0
C262 C 0.08406 0.49122 0.44658 0.0
C263 C 1.03911 0.4754 0.44099 0.0
C264 C 1.00281 0.43649 0.44571 0.0
H265 H 0.99727 0.32655 0.42606 0.0
H266 H 1.01974 0.37593 0.42395 0.0
H267 H 1.03881 0.35983 0.44454 0.0
H268 H 1.0629 0.41091 0.46987 0.0
H269 H 0.12683 0.47926 0.46122 0.0
H270 H 0.72568 0.84019 0.81196 0.0
H271 H 0.71619 0.8885 0.80253 0.0
H272 H 0.58129 0.80109 0.77999 0.0
H273 H 0.58958 0.75219 0.79032 0.0
H274 H 0.70281 0.90995 0.76323 0.0
H275 H 0.55359 0.8538 0.82206 0.0
H276 H 0.5878 0.83757 0.82319 0.0
H277 H 0.54452 0.81963 0.80357 0.0
C278 C 0.69366 0.83106 0.80529 0.0
C279 C 0.65815 0.79215 0.80216 0.0
C280 C 0.68848 0.85882 0.79972 0.0
C281 C 0.64774 0.84837 0.79089 0.0
C282 C 0.61265 0.80973 0.78721 0.0
H283 H 0.56323 0.98691 0.75293 0.0
H284 H 0.56934 0.93506 0.75693 0.0
C285 C 0.6177 0.78186 0.79288 0.0
C286 C 0.64238 0.87812 0.78551 0.0
H287 H 0.57669 0.90598 0.79783 0.0
C288 C 0.6752 0.90906 0.77078 0.0
C289 C 0.60634 0.87693 0.79538 0.0
C290 C 0.57126 0.84542 0.81208 0.0
C291 C 0.67296 0.93881 0.76566 0.0
C292 C 0.63723 0.93777 0.77569 0.0
C293 C 0.60396 0.90658 0.79012 0.0
C294 C 0.63475 0.96949 0.77211 0.0
C295 C 0.70868 0.97105 0.74947 0.0
C296 C 0.66944 0.00588 0.77933 0.0
C297 C 0.66587 0.03527 0.77706 0.0
C298 C 0.62757 0.02869 0.76759 0.0
C299 C 0.59319 0.99251 0.76011 0.0
C300 C 0.5966 0.96301 0.76247 0.0
H301 H 0.72657 0.96305 0.73932 0.0
H302 H 0.69261 0.97961 0.73855 0.0
H303 H 0.73509 0.9963 0.75843 0.0
H304 H 0.69882 0.01132 0.78709 0.0
H305 H 0.6928 0.0631 0.78281 0.0
H306 H 0.78659 0.43991 0.18597 0.0
H307 H 0.70946 0.40662 0.1735 0.0
H308 H 0.72144 0.329 0.14031 0.0
H309 H 0.79931 0.36216 0.15318 0.0
H310 H 0.69986 0.36256 0.11294 0.0
H311 H 0.58056 0.30893 0.18495 0.0
H312 H 0.631 0.35581 0.19035 0.0
H313 H 0.6357 0.31837 0.18611 0.0
C314 C 0.77235 0.41485 0.17678 0.0
C315 C 0.79929 0.4039 0.17048 0.0
C316 C 0.72794 0.39561 0.1697 0.0
C317 C 0.70924 0.36483 0.15625 0.0
C318 C 0.73502 0.35243 0.15083 0.0
H319 H 0.50815 0.39027 0.13057 0.0
H320 H 0.52253 0.34341 0.12915 0.0
C321 C 0.77961 0.37164 0.15804 0.0
C322 C 0.66697 0.35122 0.14507 0.0
H323 H 0.57285 0.34627 0.15627 0.0
C324 C 0.67084 0.35732 0.12227 0.0
C325 C 0.62768 0.34227 0.15686 0.0
C326 C 0.61835 0.3305 0.18091 0.0
C327 C 0.64131 0.36199 0.11168 0.0
C328 C 0.6086 0.36178 0.1244 0.0
C329 C 0.59912 0.34814 0.14643 0.0
C330 C 0.59433 0.38513 0.11746 0.0
C331 C 0.64822 0.37047 0.08731 0.0
C332 C 0.62889 0.42369 0.11009 0.0
C333 C 0.62031 0.45002 0.11059 0.0
C334 C 0.57742 0.43841 0.11879 0.0
C335 C 0.54147 0.39947 0.12417 0.0
C336 C 0.54973 0.37286 0.12335 0.0
H337 H 0.65312 0.35109 0.07935 0.0
H338 H 0.61845 0.36702 0.08038 0.0
H339 H 0.68018 0.40021 0.08337 0.0
H340 H 0.66399 0.4345 0.10611 0.0
H341 H 0.64844 0.4801 0.10665 0.0
H342 H 0.56396 0.91292 0.49251 0.0
H343 H 0.49741 0.84543 0.48984 0.0
H344 H 0.42406 0.87941 0.45814 0.0
H345 H 0.49036 0.94667 0.46037 0.0
H346 H 0.405 0.80317 0.50581 0.0
H347 H 0.41848 0.80867 0.41546 0.0
H348 H 0.46438 0.84605 0.43102 0.0
H349 H 0.41554 0.84445 0.42564 0.0
C350 C 0.53366 0.90603 0.48496 0.0
C351 C 0.53265 0.93521 0.47646 0.0
C352 C 0.49567 0.86746 0.48349 0.0
C353 C 0.45615 0.85745 0.47345 0.0
C354 C 0.45463 0.88651 0.4655 0.0
H355 H 0.1894 0.6577 0.44312 0.0
H356 H 0.25712 0.72125 0.45253 0.0
C357 C 0.49255 0.92498 0.46687 0.0
C358 C 0.41643 0.81672 0.47109 0.0
H359 H 0.34834 0.75376 0.43314 0.0
C360 C 0.39281 0.79218 0.48993 0.0
C361 C 0.40088 0.80243 0.45034 0.0
C362 C 0.4264 0.82665 0.42945 0.0
C363 C 0.35285 0.75409 0.48857 0.0
C364 C 0.33649 0.74036 0.46785 0.0
C365 C 0.3608 0.76458 0.44902 0.0
C366 C 0.29349 0.70129 0.46511 0.0
C367 C 0.32751 0.72912 0.50922 0.0
C368 C 0.29125 0.66901 0.46947 0.0
C369 C 0.25262 0.63278 0.46403 0.0
C370 C 0.21601 0.62855 0.45411 0.0
C371 C 0.21746 0.66056 0.45069 0.0
C372 C 0.25597 0.69667 0.45606 0.0
H373 H 0.3404 0.74579 0.52401 0.0
H374 H 0.28987 0.71428 0.50877 0.0
H375 H 0.33223 0.70685 0.51058 0.0
H376 H 0.32017 0.67211 0.47615 0.0
H377 H 0.25222 0.60841 0.46654 0.0
H378 H 0.62433 0.37574 0.83626 0.0
H379 H 0.63392 0.32847 0.82595 0.0
H380 H 0.49503 0.23731 0.85165 0.0
H381 H 0.48435 0.28438 0.86117 0.0
H382 H 0.62873 0.27305 0.8505 0.0
H383 H 0.49399 0.20675 0.78994 0.0
H384 H 0.51569 0.25148 0.80139 0.0
H385 H 0.47374 0.20683 0.81684 0.0
C386 C 0.59556 0.34563 0.83951 0.0
C387 C 0.55331 0.33389 0.84929 0.0
C388 C 0.60128 0.31864 0.83377 0.0
C389 C 0.56495 0.27934 0.83768 0.0
C390 C 0.52322 0.26748 0.84807 0.0
H391 H 0.54218 0.07996 0.80209 0.0
H392 H 0.52994 0.12214 0.81974 0.0
C393 C 0.51737 0.29447 0.85374 0.0
C394 C 0.57086 0.25096 0.83064 0.0
H395 H 0.52924 0.17799 0.79687 0.0
C396 C 0.60692 0.25221 0.83881 0.0
C397 C 0.54242 0.22382 0.81535 0.0
C398 C 0.50454 0.22223 0.80519 0.0
C399 C 0.61527 0.22703 0.83211 0.0
C400 C 0.58711 0.20019 0.81668 0.0
C401 C 0.55062 0.1985 0.80879 0.0
C402 C 0.59606 0.17468 0.80773 0.0
C403 C 0.65398 0.22921 0.84167 0.0
C404 C 0.63722 0.19026 0.79522 0.0
C405 C 0.64406 0.16623 0.78525 0.0
C406 C 0.60991 0.12636 0.78765 0.0
C407 C 0.56908 0.1107 0.8004 0.0
C408 C 0.56211 0.1347 0.81033 0.0
H409 H 0.66413 0.24384 0.85721 0.0
H410 H 0.64394 0.20016 0.84472 0.0
H411 H 0.6847 0.24575 0.82994 0.0
H412 H 0.66344 0.221 0.79263 0.0
H413 H 0.67549 0.17865 0.77524 0.0
H414 H 0.61052 0.83196 0.51566 0.0
H415 H 0.59868 0.77207 0.5236 0.0
H416 H 0.73885 0.83614 0.54281 0.0
H417 H 0.75148 0.89602 0.53445 0.0
H418 H 0.6524 0.75028 0.50517 0.0
H419 H 0.65825 0.75696 0.59521 0.0
H420 H 0.64773 0.78449 0.5783 0.0
H421 H 0.70545 0.79988 0.57998 0.0
C422 C 0.63896 0.83336 0.52142 0.0
C423 C 0.68189 0.86891 0.52455 0.0
C424 C 0.63201 0.79909 0.52608 0.0
C425 C 0.66765 0.79971 0.53413 0.0
C426 C 0.71058 0.83503 0.53706 0.0
H427 H 0.72005 0.64177 0.56949 0.0
H428 H 0.72004 0.69657 0.56371 0.0
C429 C 0.71766 0.86925 0.53232 0.0
C430 C 0.66072 0.76359 0.53888 0.0
H431 H 0.66174 0.71047 0.57985 0.0
C432 C 0.65393 0.74127 0.52151 0.0
C433 C 0.66291 0.7521 0.56021 0.0
C434 C 0.66859 0.77437 0.57957 0.0
C435 C 0.65095 0.70842 0.52477 0.0
C436 C 0.65374 0.69716 0.54609 0.0
C437 C 0.65963 0.71914 0.56353 0.0
C438 C 0.65245 0.66353 0.55052 0.0
C439 C 0.64669 0.68699 0.50522 0.0
C440 C 0.61404 0.62666 0.54554 0.0
C441 C 0.61419 0.59552 0.5488 0.0
C442 C 0.65253 0.60073 0.55727 0.0
C443 C 0.69016 0.63726 0.56298 0.0
C444 C 0.69015 0.66843 0.55964 0.0
H445 H 0.65675 0.70462 0.48969 0.0
H446 H 0.66859 0.67785 0.50638 0.0
H447 H 0.61021 0.66098 0.50455 0.0
H448 H 0.58407 0.62201 0.53904 0.0
H449 H 0.58453 0.56737 0.54467 0.0
H450 H 0.68912 0.50606 0.85417 0.0
H451 H 0.75573 0.50659 0.85521 0.0
H452 H 0.84542 0.62448 0.83013 0.0
H453 H 0.77895 0.62434 0.8292 0.0
H454 H 0.81876 0.52009 0.8226 0.0
H455 H 0.91088 0.62929 0.88378 0.0
H456 H 0.85127 0.60608 0.87852 0.0
H457 H 0.897 0.64434 0.86013 0.0
C458 C 0.72295 0.53223 0.84886 0.0
C459 C 0.72827 0.56525 0.8417 0.0
C460 C 0.7612 0.53244 0.84945 0.0
C461 C 0.80614 0.56574 0.84311 0.0
C462 C 0.81151 0.59857 0.83558 0.0
H463 H 0.07766 0.61401 0.84951 0.0
H464 H 1.01615 0.61845 0.84081 0.0
C465 C 0.7732 0.59836 0.83491 0.0
C466 C 0.84694 0.56577 0.84426 0.0
H467 H 0.94972 0.60771 0.86828 0.0
C468 C 0.84736 0.53932 0.83259 0.0
C469 C 0.88475 0.5909 0.85717 0.0
C470 C 0.88601 0.61907 0.87078 0.0
C471 C 0.88414 0.53739 0.83339 0.0
C472 C 0.92151 0.56196 0.84666 0.0
C473 C 0.92145 0.58886 0.85804 0.0
C474 C 0.9595 0.55885 0.84991 0.0
C475 C 0.88278 0.5093 0.81965 0.0
C476 C 0.94881 0.52397 0.8577 0.0
C477 C 0.98391 0.52146 0.86241 0.0
C478 C 1.03086 0.55377 0.85969 0.0
C479 C 1.04188 0.58851 0.85138 0.0
C480 C 1.00662 0.59107 0.84664 0.0
H481 H 0.86178 0.5026 0.80531 0.0
H482 H 0.91806 0.52048 0.81375 0.0
H483 H 0.86652 0.48211 0.8296 0.0
H484 H 0.91313 0.49882 0.86097 0.0
H485 H 0.97439 0.49449 0.86909 0.0
H486 H 0.17145 0.63532 0.17301 0.0
H487 H 0.23952 0.70215 0.17477 0.0
H488 H 0.32655 0.67532 0.1504 0.0
H489 H 0.25872 0.60816 0.14895 0.0
H490 H 0.36077 0.71837 0.18567 0.0
H491 H 0.31556 0.78458 0.12601 0.0
H492 H 0.27089 0.75521 0.1472 0.0
H493 H 0.28581 0.73366 0.12847 0.0
C494 C 0.20496 0.64357 0.16785 0.0
C495 C 0.20941 0.61621 0.16076 0.0
C496 C 0.24391 0.68196 0.16872 0.0
C497 C 0.28815 0.694 0.16232 0.0
C498 C 0.29276 0.6668 0.15526 0.0
H499 H 0.56337 0.91686 0.17057 0.0
H500 H 0.50005 0.85194 0.16013 0.0
C501 C 0.25384 0.62835 0.15444 0.0
C502 C 0.32973 0.73454 0.16408 0.0
H503 H 0.37644 0.82716 0.1491 0.0
C504 C 0.36448 0.74214 0.17744 0.0
C505 C 0.33466 0.7656 0.15332 0.0
C506 C 0.29997 0.75941 0.13777 0.0
C507 C 0.40303 0.77986 0.18101 0.0
C508 C 0.40729 0.81088 0.17071 0.0
C509 C 0.37308 0.80334 0.15699 0.0
C510 C 0.44565 0.85125 0.17502 0.0
C511 C 0.43803 0.78627 0.19643 0.0
C512 C 0.43597 0.87284 0.1861 0.0
C513 C 0.47194 0.90974 0.19191 0.0
C514 C 0.51819 0.92582 0.18662 0.0
C515 C 0.52789 0.90497 0.1747 0.0
C516 C 0.49185 0.8679 0.16894 0.0
H517 H 0.42521 0.75963 0.20621 0.0
H518 H 0.4701 0.79635 0.18689 0.0
H519 H 0.44709 0.80862 0.20775 0.0
H520 H 0.40061 0.86064 0.19087 0.0
H521 H 0.46385 0.9255 0.20103 0.0
H522 H 0.68455 0.26907 0.48403 0.0
H523 H 0.69139 0.32434 0.49546 0.0
H524 H 0.54808 0.26625 0.48357 0.0
H525 H 0.54028 0.21016 0.47308 0.0
H526 H 0.67817 0.37133 0.47366 0.0
H527 H 0.55388 0.2955 0.54591 0.0
H528 H 0.57633 0.27515 0.5313 0.0
H529 H 0.53023 0.27357 0.52077 0.0
C530 C 0.6543 0.26782 0.48407 0.0
C531 C 0.61172 0.23492 0.47783 0.0
C532 C 0.65839 0.2996 0.49044 0.0
C533 C 0.62005 0.29918 0.49075 0.0
C534 C 0.57788 0.26691 0.4839 0.0
H535 H 0.58238 0.46498 0.53068 0.0
H536 H 0.57371 0.41157 0.51395 0.0
C537 C 0.57366 0.23503 0.47763 0.0
C538 C 0.62428 0.33248 0.49832 0.0
H539 H 0.58204 0.35895 0.53684 0.0
C540 C 0.65719 0.36864 0.48748 0.0
C541 C 0.59692 0.32893 0.51639 0.0
C542 C 0.56265 0.2913 0.52942 0.0
C543 C 0.66321 0.40127 0.49413 0.0
C544 C 0.6359 0.39767 0.5122 0.0
C545 C 0.60272 0.36152 0.52291 0.0
C546 C 0.64226 0.43124 0.52081 0.0
C547 C 0.69843 0.43929 0.48168 0.0
C548 C 0.68361 0.45989 0.53014 0.0
C549 C 0.68844 0.49017 0.53965 0.0
C550 C 0.65203 0.49226 0.53998 0.0
C551 C 0.61098 0.464 0.53033 0.0
C552 C 0.60601 0.43356 0.52092 0.0
H553 H 0.70836 0.43571 0.4653 0.0
H554 H 0.68496 0.45558 0.47967 0.0
H555 H 0.73005 0.45657 0.49094 0.0
H556 H 0.71171 0.45829 0.53055 0.0
H557 H 0.72029 0.51173 0.54707 0.0
H558 H 0.52274 0.61941 0.83722 0.0
H559 H 0.4562 0.61921 0.84078 0.0
H560 H 0.37074 0.502 0.86692 0.0
H561 H 0.4369 0.50202 0.86365 0.0
H562 H 0.37053 0.57492 0.82279 0.0
H563 H 0.3452 0.55122 0.91279 0.0
H564 H 0.39681 0.56466 0.89811 0.0
H565 H 0.34491 0.51568 0.89969 0.0
C566 C 0.48986 0.59355 0.84379 0.0
C567 C 0.48572 0.5608 0.85026 0.0
C568 C 0.45164 0.59347 0.84579 0.0
C569 C 0.4082 0.56082 0.85451 0.0
C570 C 0.40384 0.52794 0.86063 0.0
H571 H 0.13371 0.49659 0.88326 0.0
H572 H 0.20222 0.49978 0.87806 0.0
C573 C 0.44192 0.52794 0.8586 0.0
C574 C 0.36743 0.56088 0.85698 0.0
H575 H 0.28561 0.54533 0.89431 0.0
C576 C 0.3522 0.5687 0.83847 0.0
C577 C 0.34306 0.55275 0.87739 0.0
C578 C 0.35851 0.54596 0.89817 0.0
C579 C 0.31294 0.56751 0.83968 0.0
C580 C 0.28836 0.55909 0.86009 0.0
C581 C 0.30393 0.55165 0.87861 0.0
C582 C 0.2461 0.55718 0.86263 0.0
C583 C 0.29733 0.57402 0.81887 0.0
C584 C 0.24722 0.58834 0.85588 0.0
C585 C 0.20779 0.58643 0.85885 0.0
C586 C 0.16626 0.55348 0.86884 0.0
C587 C 0.16517 0.52243 0.87561 0.0
C588 C 0.20445 0.52427 0.87261 0.0
H589 H 0.31096 0.56898 0.80427 0.0
H590 H 0.25902 0.555 0.81889 0.0
H591 H 0.3105 0.60418 0.81733 0.0
H592 H 0.27892 0.61454 0.84869 0.0
H593 H 0.21006 0.61109 0.85383 0.0
H594 H 1.00895 0.35595 0.14118 0.0
H595 H 0.94182 0.28767 0.14478 0.0
H596 H 0.86083 0.31529 0.17633 0.0
H597 H 0.92679 0.38305 0.17245 0.0
H598 H 0.89518 0.24321 0.18269 0.0
H599 H 0.77421 0.24383 0.13186 0.0
H600 H 0.83528 0.28354 0.1309 0.0
H601 H 0.7969 0.27827 0.15223 0.0
C602 C 0.97663 0.34751 0.14857 0.0
C603 C 0.9734 0.37509 0.1565 0.0
C604 C 0.93833 0.30846 0.15068 0.0
C605 C 0.89601 0.29632 0.16055 0.0
C606 C 0.89266 0.32389 0.16821 0.0
H607 H 0.6332 0.0865 0.20905 0.0
H608 H 0.70217 0.15284 0.19941 0.0
C609 C 0.93073 0.36275 0.16611 0.0
C610 C 0.85605 0.25485 0.16415 0.0
H611 H 0.74065 0.18873 0.15659 0.0
C612 C 0.86155 0.23115 0.17672 0.0
C613 C 0.81206 0.23912 0.15644 0.0
C614 C 0.8043 0.26243 0.14193 0.0
C615 C 0.82396 0.19261 0.18247 0.0
C616 C 0.7798 0.1772 0.17519 0.0
C617 C 0.77447 0.20065 0.16226 0.0
C618 C 0.73846 0.137 0.18118 0.0
C619 C 0.83142 0.16905 0.19692 0.0
C620 C 0.73587 0.10611 0.17406 0.0
C621 C 0.6966 0.06835 0.17961 0.0
C622 C 0.65924 0.06085 0.19229 0.0
C623 C 0.66181 0.09171 0.19939 0.0
C624 C 0.70099 0.12946 0.19381 0.0
H625 H 0.86463 0.18723 0.20498 0.0
H626 H 0.80274 0.15162 0.20969 0.0
H627 H 0.83216 0.14916 0.18688 0.0
H628 H 0.76407 0.11122 0.16407 0.0
H629 H 0.69538 0.04492 0.1741 0.0
H630 H 1.02344 0.50518 0.08699 0.0
H631 H 1.04195 0.51082 0.04786 0.0
H632 H 0.15156 0.50468 0.06093 0.0
H633 H 0.13189 0.49764 0.10028 0.0
H634 H 0.12035 0.56686 0.02556 0.0
H635 H 0.08749 0.42878 0.01447 0.0
H636 H 1.06906 0.43799 0.03913 0.0
H637 H 0.1285 0.45772 0.03428 0.0
C638 C 1.05111 0.50454 0.08152 0.0
C639 C 0.07617 0.50089 0.09662 0.0
C640 C 1.06177 0.50787 0.05915 0.0
C641 C 0.09795 0.50789 0.05137 0.0
C642 C 0.1229 0.50395 0.06646 0.0
H643 H 0.18097 0.58864 0.91268 0.0
H644 H 0.19138 0.5812 0.95136 0.0
C645 C 0.11182 0.50014 0.08893 0.0
C646 C 0.11022 0.51379 0.02748 0.0
H647 H 0.1151 0.47144 0.98331 0.0
C648 C 0.11958 0.54614 0.01633 0.0
C649 C 0.10914 0.48671 0.01545 0.0
C650 C 0.09764 0.45066 0.02636 0.0
C651 C 0.12583 0.55139 0.99349 0.0
C652 C 0.12438 0.52417 0.98139 0.0
C653 C 0.11679 0.49252 0.99259 0.0
C654 C 0.12434 0.52546 0.95715 0.0
C655 C 0.13105 0.58485 0.98255 0.0
C656 C 0.08516 0.49533 0.94713 0.0
C657 C 0.07991 0.49924 0.92506 0.0
C658 C 0.11348 0.53342 0.91266 0.0
C659 C 0.15467 0.5621 0.92204 0.0
C660 C 0.16026 0.55802 0.94414 0.0
H661 H 0.12149 0.59812 0.99393 0.0
H662 H 0.16762 0.60715 0.97658 0.0
H663 H 0.10913 0.57578 0.96838 0.0
H664 H 1.05714 0.46979 0.95671 0.0
H665 H 1.04809 0.4767 0.91799 0.0
H666 H 0.75265 0.08297 0.41062 0.0
H667 H 0.74834 0.08591 0.37091 0.0
H668 H 0.60679 0.04263 0.37969 0.0
H669 H 0.61078 0.03946 0.41936 0.0
H670 H 0.68159 0.01997 0.3469 0.0
H671 H 0.6692 0.13736 0.33513 0.0
H672 H 0.69186 0.13132 0.35912 0.0
H673 H 0.63055 0.10129 0.35634 0.0
C674 C 0.72077 0.07443 0.40407 0.0
C675 C 0.68198 0.06085 0.41803 0.0
C676 C 0.71839 0.07617 0.38142 0.0
C677 C 0.67745 0.06492 0.37239 0.0
C678 C 0.63895 0.05204 0.38634 0.0
H679 H 0.55489 0.01524 0.2498 0.0
H680 H 0.58031 0.0348 0.28669 0.0
C681 C 0.64118 0.05001 0.40897 0.0
C682 C 0.67368 0.06379 0.34843 0.0
H683 H 0.65168 0.09898 0.305 0.0
C684 C 0.67569 0.03758 0.33762 0.0
C685 C 0.66574 0.08668 0.3365 0.0
C686 C 0.66455 0.11602 0.34727 0.0
C687 C 0.66796 0.0324 0.31533 0.0
C688 C 0.65935 0.05493 0.30338 0.0
C689 C 0.65855 0.0819 0.31412 0.0
C690 C 0.64722 0.04851 0.28023 0.0
C691 C 0.66671 1.00142 0.30512 0.0
C692 C 0.67712 0.05132 0.26407 0.0
C693 C 0.66226 0.03963 0.2431 0.0
C694 C 0.61762 0.02551 0.23797 0.0
C695 C 0.58922 0.02558 0.2536 0.0
C696 C 0.60381 0.03687 0.27458 0.0
H697 H 0.66301 0.98093 0.31761 0.0
H698 H 0.63765 0.9851 0.29422 0.0
H699 H 0.69949 0.01473 0.29522 0.0
H700 H 0.71122 0.06115 0.2679 0.0
H701 H 0.68467 0.03981 0.23125 0.0
H702 H 0.66064 0.60614 0.78562 0.0
H703 H 0.68088 0.62172 0.74621 0.0
H704 H 0.56802 0.50482 0.73387 0.0
H705 H 0.54825 0.48921 0.77298 0.0
H706 H 0.65032 0.53039 0.71347 0.0
H707 H 0.61657 0.63443 0.6974 0.0
H708 H 0.65453 0.64515 0.71879 0.0
H709 H 0.59483 0.60352 0.72206 0.0
C710 C 0.6398 0.58408 0.77442 0.0
C711 C 0.60276 0.54658 0.78229 0.0
C712 C 0.65129 0.59297 0.75194 0.0
C713 C 0.62563 0.5645 0.73708 0.0
C714 C 0.58823 0.52725 0.74502 0.0
H715 H 0.59653 0.5539 0.59957 0.0
H716 H 0.59346 0.56277 0.63867 0.0
C717 C 0.57696 0.51837 0.76737 0.0
C718 C 0.63891 0.57226 0.71336 0.0
H719 H 0.64572 0.62149 0.66749 0.0
C720 C 0.64967 0.55053 0.70343 0.0
C721 C 0.63773 0.59838 0.70032 0.0
C722 C 0.62497 0.62157 0.71007 0.0
C723 C 0.65808 0.55337 0.68079 0.0
C724 C 0.65695 0.57949 0.66768 0.0
C725 C 0.64705 0.60182 0.67761 0.0
C726 C 0.66239 0.58147 0.64354 0.0
C727 C 0.66603 0.52705 0.67103 0.0
C728 C 0.70288 0.59079 0.63316 0.0
C729 C 0.70436 0.5854 0.61096 0.0
C730 C 0.66571 0.57126 0.59882 0.0
C731 C 0.62668 0.56499 0.60874 0.0
C732 C 0.62498 0.57001 0.631 0.0
H733 H 0.65532 0.50292 0.68273 0.0
H734 H 0.64671 0.51499 0.6561 0.0
H735 H 0.70341 0.54349 0.66646 0.0
H736 H 0.73245 0.60039 0.64245 0.0
H737 H 0.73481 0.59057 0.60344 0.0
H738 H 0.55153 0.01748 0.54812 0.0
H739 H 0.55371 0.01614 0.58785 0.0
H740 H 0.70175 0.08098 0.58187 0.0
H741 H 0.6998 0.08222 0.54187 0.0
H742 H 0.65114 0.0165 0.6156 0.0
H743 H 0.6078 0.11538 0.62028 0.0
H744 H 0.56927 0.07419 0.60499 0.0
H745 H 0.62869 0.10927 0.59522 0.0
C746 C 0.58454 0.03126 0.55524 0.0
C747 C 0.62557 0.05037 0.54195 0.0
C748 C 0.58571 0.03048 0.57792 0.0
C749 C 0.62794 0.04892 0.58774 0.0
C750 C 0.66885 0.06672 0.57455 0.0
H751 H 0.69139 0.08841 0.72494 0.0
H752 H 0.69568 0.07966 0.68582 0.0
C753 C 0.6677 0.0675 0.55177 0.0
C754 C 0.62917 0.05114 0.61173 0.0
H755 H 0.60514 0.08577 0.65367 0.0
C756 C 0.64142 0.03181 0.62399 0.0
C757 C 0.61668 0.07133 0.62253 0.0
C758 C 0.60525 0.09404 0.61012 0.0
C759 C 0.63985 0.03105 0.64694 0.0
C760 C 0.62628 0.05053 0.65772 0.0
C761 C 0.61506 0.07051 0.64537 0.0
C762 C 0.62298 0.05071 0.68182 0.0
C763 C 0.65139 0.00857 0.65947 0.0
C764 C 0.58075 0.03702 0.69255 0.0
C765 C 0.57856 0.04229 0.71467 0.0
C766 C 0.61852 0.06141 0.72637 0.0
C767 C 0.66027 0.0734 0.71605 0.0
C768 C 0.66259 0.06827 0.69383 0.0
H769 H 0.65048 0.98808 0.64919 0.0
H770 H 0.68676 0.02868 0.66526 0.0
H771 H 0.62698 0.99245 0.67398 0.0
H772 H 0.54983 0.02349 0.68358 0.0
H773 H 0.54616 0.03294 0.72253 0.0
H774 H 0.57653 0.57732 0.91462 0.0
H775 H 0.56854 0.55749 0.95321 0.0
H776 H 0.65828 0.52797 0.93994 0.0
H777 H 0.66956 0.55138 0.90172 0.0
H778 H 0.53519 0.4964 0.97472 0.0
H779 H 0.72214 0.59119 0.98872 0.0
H780 H 0.70064 0.59403 0.96346 0.0
H781 H 0.70828 0.55817 0.96843 0.0
C782 C 0.59474 0.56685 0.92012 0.0
C783 C 0.62416 0.56631 0.90557 0.0
C784 C 0.59008 0.55536 0.94211 0.0
C785 C 0.61375 0.54207 0.94976 0.0
C786 C 0.64122 0.5396 0.93477 0.0
H787 H 0.53064 0.43848 0.0847 0.0
H788 H 0.54033 0.44552 0.04483 0.0
C789 C 0.6473 0.55255 0.91292 0.0
C790 C 0.60948 0.53111 0.97341 0.0
H791 H 0.67182 0.54596 0.0175 0.0
C792 C 0.56515 0.50749 0.98409 0.0
C793 C 0.64852 0.54572 0.98578 0.0
C794 C 0.69753 0.57399 0.97605 0.0
C795 C 0.55878 0.49922 0.00676 0.0
C796 C 0.59772 0.51286 0.01901 0.0
C797 C 0.64189 0.53529 0.00818 0.0
C798 C 0.5942 0.50709 0.04323 0.0
C799 C 0.51061 0.47775 0.01728 0.0
C800 C 0.6235 0.53868 0.05576 0.0
C801 C 0.61982 0.53421 0.07847 0.0
C802 C 0.58569 0.49835 0.08926 0.0
C803 C 0.55719 0.46649 0.07681 0.0
C804 C 0.56208 0.47067 0.054 0.0
H805 H 0.48823 0.48005 0.00683 0.0
H806 H 0.4944 0.44692 0.01969 0.0
H807 H 0.51121 0.48869 0.03335 0.0
H808 H 0.64897 0.56707 0.04798 0.0
H809 H 0.64335 0.55897 0.08765 0.0
H810 H 0.0861 0.52746 0.21772 0.0
H811 H 0.07853 0.53286 0.25685 0.0
H812 H 0.08569 0.44127 0.2712 0.0
H813 H 0.09144 0.43476 0.2321 0.0
H814 H 1.02246 0.43622 0.29875 0.0
H815 H 0.18891 0.58392 0.29375 0.0
H816 H 0.14712 0.57835 0.27636 0.0
H817 H 0.16984 0.5531 0.27138 0.0
C818 C 0.08548 0.50819 0.22924 0.0
C819 C 0.08975 0.48092 0.22193 0.0
C820 C 0.08148 0.51147 0.25157 0.0
C821 C 0.08263 0.48805 0.26694 0.0
C822 C 0.08499 0.45976 0.25963 0.0
H823 H 0.12645 0.49282 0.40448 0.0
H824 H 0.10589 0.47247 0.36711 0.0
C825 C 0.08843 0.45617 0.23731 0.0
C826 C 0.0836 0.49418 0.29057 0.0
H827 H 0.14596 0.56115 0.32775 0.0
C828 C 1.04943 0.46352 0.30511 0.0
C829 C 0.11913 0.52974 0.29885 0.0
C830 C 0.15859 0.56304 0.28432 0.0
C831 C 1.04958 0.46769 0.32771 0.0
C832 C 0.08477 0.50333 0.33584 0.0
C833 C 0.11876 0.53395 0.32134 0.0
C834 C 0.08832 0.50966 0.35942 0.0
C835 C 1.0121 0.4342 0.34274 0.0
C836 C 0.08424 0.53658 0.36751 0.0
C837 C 0.09568 0.54792 0.38876 0.0
C838 C 0.11193 0.5329 0.40209 0.0
C839 C 0.11356 0.50441 0.39445 0.0
C840 C 0.10186 0.49286 0.37319 0.0
H841 H 0.98285 0.411 0.33366 0.0
H842 H 1.02671 0.42231 0.35178 0.0
H843 H 0.99872 0.44358 0.35492 0.0
H844 H 0.07406 0.54996 0.35708 0.0
H845 H 0.094 0.56977 0.3945 0.0
loop_
_geom_bond_atom_site_label_1
_geom_bond_atom_site_label_2
_geom_bond_distance
_geom_bond_site_symmetry_2
_ccdc_geom_bond_type
Sm0 C2 2.846 . S
Sm0 O20 2.543 . S
Sm0 O21 2.450 . S
Sm0 O22 2.681 1_455 S
Sm0 O23 2.464 . S
Sm0 O24 2.396 . S
Sm0 O28 2.386 . S
Sm0 O31 2.408 1_455 S
Sm1 C11 2.846 . S
Sm1 O22 2.386 . S
Sm1 O25 2.408 1_655 S
Sm1 O26 2.543 . S
Sm1 O27 2.450 . S
Sm1 O28 2.681 1_655 S
Sm1 O29 2.464 . S
Sm1 O30 2.396 . S
C2 Sm0 2.846 . S
C2 C3 1.506 . S
C2 O20 1.261 . S
C2 O21 1.242 . S
C3 C2 1.506 . S
C3 C4 1.358 . S
C3 C8 1.382 . S
C4 C3 1.358 . S
C4 C5 1.385 . S
C4 H32 0.930 . S
C5 C4 1.385 . S
C5 C6 1.395 . S
C5 H33 0.929 . S
C6 C5 1.395 . S
C6 C7 1.335 . S
C7 C6 1.335 . S
C7 C8 1.398 . S
C7 H34 0.930 . S
C8 C3 1.382 . S
C8 C7 1.398 . S
C8 H35 0.929 . S
C9 O22 1.270 . S
C9 O23 1.254 1_655 S
C10 O24 1.252 . S
C10 O25 1.272 . S
C11 Sm1 2.846 . S
C11 C12 1.506 . S
C11 O26 1.261 . S
C11 O27 1.242 . S
C12 C11 1.506 . S
C12 C13 1.358 . S
C12 C17 1.382 . S
C13 C12 1.358 . S
C13 C14 1.385 . S
C13 H36 0.930 . S
C14 C13 1.385 . S
C14 C15 1.395 . S
C14 H37 0.929 . S
C15 C14 1.395 . S
C15 C16 1.335 . S
C16 C15 1.335 . S
C16 C17 1.398 . S
C16 H38 0.930 . S
C17 C12 1.382 . S
C17 C16 1.398 . S
C17 H39 0.929 . S
C18 O28 1.279 . S
C18 O29 1.236 1_455 S
C19 O30 1.252 . S
C19 O31 1.272 . S
O20 Sm0 2.543 . S
O20 C2 1.261 . S
O21 Sm0 2.450 . S
O21 C2 1.242 . S
O22 Sm0 2.681 1_655 S
O22 Sm1 2.386 . S
O22 C9 1.270 . S
O23 Sm0 2.464 . S
O23 C9 1.254 1_455 S
O24 Sm0 2.396 . S
O24 C10 1.252 . S
O25 Sm1 2.408 1_455 S
O25 C10 1.272 . S
O26 Sm1 2.543 . S
O26 C11 1.261 . S
O27 Sm1 2.450 . S
O27 C11 1.242 . S
O28 Sm0 2.386 . S
O28 Sm1 2.681 1_455 S
O28 C18 1.279 . S
O29 Sm1 2.464 . S
O29 C18 1.236 1_655 S
O30 Sm1 2.396 . S
O30 C19 1.252 . S
O31 Sm0 2.408 1_655 S
O31 C19 1.272 . S
H32 C4 0.930 . S
H33 C5 0.929 . S
H34 C7 0.930 . S
H35 C8 0.929 . S
H36 C13 0.930 . S
H37 C14 0.929 . S
H38 C16 0.930 . S
H39 C17 0.929 . S
Sm40 C42 2.846 1_545 S
Sm40 O60 2.543 1_545 S
Sm40 O61 2.450 1_545 S
Sm40 O62 2.681 . S
Sm40 O63 2.464 . S
Sm40 O64 2.396 1_545 S
Sm40 O68 2.386 . S
Sm40 O71 2.408 . S
Sm41 C51 2.846 . S
Sm41 O62 2.386 . S
Sm41 O65 2.408 1_545 S
Sm41 O66 2.543 . S
Sm41 O67 2.450 . S
Sm41 O68 2.681 . S
Sm41 O69 2.464 . S
Sm41 O70 2.396 . S
C42 Sm40 2.846 1_565 S
C42 C43 1.506 . S
C42 O60 1.261 . S
C42 O61 1.242 . S
C43 C42 1.506 . S
C43 C44 1.358 . S
C43 C48 1.382 . S
C44 C43 1.358 . S
C44 C45 1.385 . S
C44 H72 0.930 . S
C45 C44 1.385 . S
C45 C46 1.395 . S
C45 H73 0.929 . S
C46 C45 1.395 . S
C46 C47 1.335 . S
C47 C46 1.335 . S
C47 C48 1.398 . S
C47 H74 0.930 . S
C48 C43 1.382 . S
C48 C47 1.398 . S
C48 H75 0.929 . S
C49 O62 1.271 . S
C49 O63 1.251 . S
C50 O64 1.252 . S
C50 O65 1.272 . S
C51 Sm41 2.846 . S
C51 C52 1.506 . S
C51 O66 1.261 . S
C51 O67 1.242 . S
C52 C51 1.506 . S
C52 C53 1.358 . S
C52 C57 1.382 . S
C53 C52 1.358 . S
C53 C54 1.385 . S
C53 H76 0.930 . S
C54 C53 1.385 . S
C54 C55 1.395 . S
C54 H77 0.929 . S
C55 C54 1.395 . S
C55 C56 1.335 . S
C56 C55 1.335 . S
C56 C57 1.398 . S
C56 H78 0.930 . S
C57 C52 1.382 . S
C57 C56 1.398 . S
C57 H79 0.929 . S
C58 O68 1.271 . S
C58 O69 1.251 . S
C59 O70 1.252 . S
C59 O71 1.272 . S
O60 Sm40 2.543 1_565 S
O60 C42 1.261 . S
O61 Sm40 2.450 1_565 S
O61 C42 1.242 . S
O62 Sm40 2.681 . S
O62 Sm41 2.386 . S
O62 C49 1.271 . S
O63 Sm40 2.464 . S
O63 C49 1.251 . S
O64 Sm40 2.396 1_565 S
O64 C50 1.252 . S
O65 Sm41 2.408 1_565 S
O65 C50 1.272 . S
O66 Sm41 2.543 . S
O66 C51 1.261 . S
O67 Sm41 2.450 . S
O67 C51 1.242 . S
O68 Sm40 2.386 . S
O68 Sm41 2.681 . S
O68 C58 1.271 . S
O69 Sm41 2.464 . S
O69 C58 1.251 . S
O70 Sm41 2.396 . S
O70 C59 1.252 . S
O71 Sm40 2.408 . S
O71 C59 1.272 . S
H72 C44 0.930 . S
H73 C45 0.929 . S
H74 C47 0.930 . S
H75 C48 0.929 . S
H76 C53 0.930 . S
H77 C54 0.929 . S
H78 C56 0.930 . S
H79 C57 0.929 . S
Sm80 C82 2.846 . S
Sm80 O100 2.543 . S
Sm80 O101 2.450 . S
Sm80 O102 2.681 . S
Sm80 O103 2.464 . S
Sm80 O104 2.396 . S
Sm80 O108 2.386 . S
Sm80 O111 2.408 . S
Sm81 C91 2.846 . S
Sm81 O102 2.386 . S
Sm81 O105 2.408 . S
Sm81 O106 2.543 . S
Sm81 O107 2.450 . S
Sm81 O108 2.681 . S
Sm81 O109 2.464 . S
Sm81 O110 2.396 . S
C82 Sm80 2.846 . S
C82 C83 1.506 . S
C82 O100 1.261 . S
C82 O101 1.242 . S
C83 C82 1.506 . S
C83 C84 1.358 . S
C83 C88 1.382 . S
C84 C83 1.358 . S
C84 C85 1.385 . S
C84 H112 0.930 . S
C85 C84 1.385 . S
C85 C86 1.395 . S
C85 H113 0.929 . S
C86 C85 1.395 . S
C86 C87 1.335 . S
C87 C86 1.335 . S
C87 C88 1.398 . S
C87 H114 0.930 . S
C88 C83 1.382 . S
C88 C87 1.398 . S
C88 H115 0.929 . S
C89 O102 1.271 . S
C89 O103 1.251 . S
C90 O104 1.252 . S
C90 O105 1.272 . S
C91 Sm81 2.846 . S
C91 C92 1.506 . S
C91 O106 1.261 . S
C91 O107 1.242 . S
C92 C91 1.506 . S
C92 C93 1.358 . S
C92 C97 1.382 . S
C93 C92 1.358 . S
C93 C94 1.385 . S
C93 H116 0.930 . S
C94 C93 1.385 . S
C94 C95 1.395 . S
C94 H117 0.929 . S
C95 C94 1.395 . S
C95 C96 1.335 . S
C96 C95 1.335 . S
C96 C97 1.398 . S
C96 H118 0.930 . S
C97 C92 1.382 . S
C97 C96 1.398 . S
C97 H119 0.929 . S
C98 O108 1.271 . S
C98 O109 1.251 . S
C99 O110 1.252 . S
C99 O111 1.272 . S
O100 Sm80 2.543 . S
O100 C82 1.261 . S
O101 Sm80 2.450 . S
O101 C82 1.242 . S
O102 Sm80 2.681 . S
O102 Sm81 2.386 . S
O102 C89 1.271 . S
O103 Sm80 2.464 . S
O103 C89 1.251 . S
O104 Sm80 2.396 . S
O104 C90 1.252 . S
O105 Sm81 2.408 . S
O105 C90 1.272 . S
O106 Sm81 2.543 . S
O106 C91 1.261 . S
O107 Sm81 2.450 . S
O107 C91 1.242 . S
O108 Sm80 2.386 . S
O108 Sm81 2.681 . S
O108 C98 1.271 . S
O109 Sm81 2.464 . S
O109 C98 1.251 . S
O110 Sm81 2.396 . S
O110 C99 1.252 . S
O111 Sm80 2.408 . S
O111 C99 1.272 . S
H112 C84 0.930 . S
H113 C85 0.929 . S
H114 C87 0.930 . S
H115 C88 0.929 . S
H116 C93 0.930 . S
H117 C94 0.929 . S
H118 C96 0.930 . S
H119 C97 0.929 . S
C120 N121 1.317 1_565 S
C120 N122 1.348 . S
C120 C123 1.485 1_565 S
N121 C120 1.317 1_545 S
N121 N125 1.370 . S
N122 C120 1.348 . S
N122 C124 1.346 . S
C123 C120 1.485 1_545 S
C123 H127 0.960 . S
C123 H128 0.961 1_545 S
C123 H129 0.960 . S
C124 N122 1.346 . S
C124 N125 1.307 1_565 S
C124 C126 1.486 . S
N125 N121 1.370 . S
N125 C124 1.307 1_545 S
C126 C124 1.486 . S
C126 H130 0.960 . S
C126 H131 0.960 . S
C126 H132 0.959 . S
H127 C123 0.960 . S
H128 C123 0.961 1_565 S
H129 C123 0.960 . S
H130 C126 0.960 . S
H131 C126 0.960 . S
H132 C126 0.959 . S
C133 N134 1.317 . S
C133 N135 1.348 . S
C133 C136 1.485 . S
N134 C133 1.317 . S
N134 N138 1.370 . S
N135 C133 1.348 . S
N135 C137 1.346 . S
C136 C133 1.485 . S
C136 H140 0.960 . S
C136 H141 0.961 . S
C136 H142 0.960 . S
C137 N135 1.346 . S
C137 N138 1.307 . S
C137 C139 1.486 . S
N138 N134 1.370 . S
N138 C137 1.307 . S
C139 C137 1.486 . S
C139 H143 0.960 . S
C139 H144 0.960 . S
C139 H145 0.959 . S
H140 C136 0.960 . S
H141 C136 0.961 . S
H142 C136 0.960 . S
H143 C139 0.960 . S
H144 C139 0.960 . S
H145 C139 0.959 . S
C146 N147 1.317 . S
C146 N148 1.348 . S
C146 C149 1.485 . S
N147 C146 1.317 . S
N147 N151 1.370 . S
N148 C146 1.348 . S
N148 C150 1.346 . S
C149 C146 1.485 . S
C149 H153 0.960 . S
C149 H154 0.961 . S
C149 H155 0.960 . S
C150 N148 1.346 . S
C150 N151 1.307 . S
C150 C152 1.486 1_455 S
N151 N147 1.370 . S
N151 C150 1.307 . S
C152 C150 1.486 1_655 S
C152 H156 0.960 . S
C152 H157 0.960 . S
C152 H158 0.959 1_655 S
H153 C149 0.960 . S
H154 C149 0.961 . S
H155 C149 0.960 . S
H156 C152 0.960 . S
H157 C152 0.960 . S
H158 C152 0.959 1_455 S
C159 N160 1.317 . S
C159 N161 1.348 . S
C159 C162 1.485 . S
N160 C159 1.317 . S
N160 N164 1.370 . S
N161 C159 1.348 . S
N161 C163 1.346 . S
C162 C159 1.485 . S
C162 H166 0.960 . S
C162 H167 0.961 . S
C162 H168 0.960 . S
C163 N161 1.346 . S
C163 N164 1.307 . S
C163 C165 1.486 . S
N164 N160 1.370 . S
N164 C163 1.307 . S
C165 C163 1.486 . S
C165 H169 0.960 . S
C165 H170 0.960 . S
C165 H171 0.959 . S
H166 C162 0.960 . S
H167 C162 0.961 . S
H168 C162 0.960 . S
H169 C165 0.960 . S
H170 C165 0.960 . S
H171 C165 0.959 . S
C172 N173 1.317 . S
C172 N174 1.348 . S
C172 C175 1.485 . S
N173 C172 1.317 . S
N173 N177 1.370 . S
N174 C172 1.348 . S
N174 C176 1.346 . S
C175 C172 1.485 . S
C175 H179 0.960 . S
C175 H180 0.961 . S
C175 H181 0.960 . S
C176 N174 1.346 . S
C176 N177 1.307 . S
C176 C178 1.486 . S
N177 N173 1.370 . S
N177 C176 1.307 . S
C178 C176 1.486 . S
C178 H182 0.960 . S
C178 H183 0.960 . S
C178 H184 0.959 . S
H179 C175 0.960 . S
H180 C175 0.961 . S
H181 C175 0.960 . S
H182 C178 0.960 . S
H183 C178 0.960 . S
H184 C178 0.959 . S
C185 N186 1.317 . S
C185 N187 1.348 . S
C185 C188 1.485 . S
N186 C185 1.317 . S
N186 N190 1.370 . S
N187 C185 1.348 . S
N187 C189 1.346 . S
C188 C185 1.485 . S
C188 H192 0.960 . S
C188 H193 0.961 . S
C188 H194 0.960 . S
C189 N187 1.346 . S
C189 N190 1.307 . S
C189 C191 1.486 . S
N190 N186 1.370 . S
N190 C189 1.307 . S
C191 C189 1.486 . S
C191 H195 0.960 . S
C191 H196 0.960 . S
C191 H197 0.959 . S
H192 C188 0.960 . S
H193 C188 0.961 . S
H194 C188 0.960 . S
H195 C191 0.960 . S
H196 C191 0.960 . S
H197 C191 0.959 . S
H198 C206 0.929 . S
H199 C208 0.930 . S
H200 C210 0.930 . S
H201 C213 0.929 . S
H202 C216 0.930 . S
H203 C218 0.960 . S
H204 C218 0.960 . S
H205 C218 0.960 . S
C206 H198 0.929 . S
C206 C207 1.377 . S
C206 C208 1.384 . S
C207 C206 1.377 . S
C207 C213 1.390 . S
C208 H199 0.930 . S
C208 C206 1.384 . S
C208 C209 1.372 . S
C209 C208 1.372 . S
C209 C210 1.400 . S
C209 C214 1.490 . S
C210 H200 0.930 . S
C210 C209 1.400 . S
C210 C213 1.386 . S
H211 C227 0.930 . S
H212 C228 0.931 . S
C213 H201 0.929 . S
C213 C207 1.390 . S
C213 C210 1.386 . S
C214 C209 1.490 . S
C214 C216 1.395 . S
C214 C217 1.403 . S
H215 C221 0.930 . S
C216 H202 0.930 . S
C216 C214 1.395 . S
C216 C219 1.403 . S
C217 C214 1.403 . S
C217 C218 1.524 . S
C217 C221 1.400 . S
C218 H203 0.960 . S
C218 H204 0.960 . S
C218 H205 0.960 . S
C218 C217 1.524 . S
C219 C216 1.403 . S
C219 C220 1.392 . S
C219 C223 1.495 . S
C220 C219 1.392 . S
C220 C221 1.385 . S
C220 C222 1.478 . S
C221 H215 0.930 . S
C221 C217 1.400 . S
C221 C220 1.385 . S
C222 C220 1.478 . S
C222 C224 1.381 . S
C222 C228 1.383 . S
C223 C219 1.495 . S
C223 H229 0.959 . S
C223 H230 0.961 . S
C223 H231 0.960 . S
C224 C222 1.381 . S
C224 C225 1.394 . S
C224 H232 0.930 . S
C225 C224 1.394 . S
C225 C226 1.383 . S
C225 H233 0.929 . S
C226 C225 1.383 . S
C226 C227 1.377 . S
C227 H211 0.930 . S
C227 C226 1.377 . S
C227 C228 1.379 . S
C228 H212 0.931 . S
C228 C222 1.383 . S
C228 C227 1.379 . S
H229 C223 0.959 . S
H230 C223 0.961 . S
H231 C223 0.960 . S
H232 C224 0.930 . S
H233 C225 0.929 . S
H234 C242 0.929 . S
H235 C244 0.930 . S
H236 C246 0.930 . S
H237 C249 0.929 . S
H238 C252 0.930 . S
H239 C254 0.960 . S
H240 C254 0.960 . S
H241 C254 0.960 . S
C242 H234 0.929 . S
C242 C243 1.377 . S
C242 C244 1.384 . S
C243 C242 1.377 . S
C243 C249 1.390 . S
C244 H235 0.930 . S
C244 C242 1.384 . S
C244 C245 1.372 . S
C245 C244 1.372 . S
C245 C246 1.400 . S
C245 C250 1.490 . S
C246 H236 0.930 . S
C246 C245 1.400 . S
C246 C249 1.386 . S
H247 C263 0.930 . S
H248 C264 0.931 . S
C249 H237 0.929 . S
C249 C243 1.390 . S
C249 C246 1.386 . S
C250 C245 1.490 . S
C250 C252 1.395 . S
C250 C253 1.403 . S
H251 C257 0.930 . S
C252 H238 0.930 . S
C252 C250 1.395 . S
C252 C255 1.403 . S
C253 C250 1.403 . S
C253 C254 1.524 . S
C253 C257 1.400 . S
C254 H239 0.960 . S
C254 H240 0.960 . S
C254 H241 0.960 . S
C254 C253 1.524 . S
C255 C252 1.403 . S
C255 C256 1.392 . S
C255 C259 1.495 . S
C256 C255 1.392 . S
C256 C257 1.385 . S
C256 C258 1.478 . S
C257 H251 0.930 . S
C257 C253 1.400 . S
C257 C256 1.385 . S
C258 C256 1.478 . S
C258 C260 1.381 . S
C258 C264 1.383 . S
C259 C255 1.495 . S
C259 H265 0.959 . S
C259 H266 0.961 . S
C259 H267 0.960 . S
C260 C258 1.381 . S
C260 C261 1.394 . S
C260 H268 0.930 . S
C261 C260 1.394 . S
C261 C262 1.383 . S
C261 H269 0.929 1_655 S
C262 C261 1.383 . S
C262 C263 1.377 . S
C263 H247 0.930 . S
C263 C262 1.377 . S
C263 C264 1.379 . S
C264 H248 0.931 . S
C264 C258 1.383 . S
C264 C263 1.379 . S
H265 C259 0.959 . S
H266 C259 0.961 . S
H267 C259 0.960 . S
H268 C260 0.930 . S
H269 C261 0.929 1_455 S
H270 C278 0.929 . S
H271 C280 0.930 . S
H272 C282 0.930 . S
H273 C285 0.929 . S
H274 C288 0.930 . S
H275 C290 0.960 . S
H276 C290 0.960 . S
H277 C290 0.960 . S
C278 H270 0.929 . S
C278 C279 1.377 . S
C278 C280 1.384 . S
C279 C278 1.377 . S
C279 C285 1.390 . S
C280 H271 0.930 . S
C280 C278 1.384 . S
C280 C281 1.372 . S
C281 C280 1.372 . S
C281 C282 1.400 . S
C281 C286 1.490 . S
C282 H272 0.930 . S
C282 C281 1.400 . S
C282 C285 1.386 . S
H283 C299 0.930 . S
H284 C300 0.931 . S
C285 H273 0.929 . S
C285 C279 1.390 . S
C285 C282 1.386 . S
C286 C281 1.490 . S
C286 C288 1.395 . S
C286 C289 1.403 . S
H287 C293 0.930 . S
C288 H274 0.930 . S
C288 C286 1.395 . S
C288 C291 1.403 . S
C289 C286 1.403 . S
C289 C290 1.524 . S
C289 C293 1.400 . S
C290 H275 0.960 . S
C290 H276 0.960 . S
C290 H277 0.960 . S
C290 C289 1.524 . S
C291 C288 1.403 . S
C291 C292 1.392 . S
C291 C295 1.495 . S
C292 C291 1.392 . S
C292 C293 1.385 . S
C292 C294 1.478 . S
C293 H287 0.930 . S
C293 C289 1.400 . S
C293 C292 1.385 . S
C294 C292 1.478 . S
C294 C296 1.385 . S
C294 C300 1.383 . S
C295 C291 1.495 . S
C295 H301 0.959 . S
C295 H302 0.961 . S
C295 H303 0.960 . S
C296 C294 1.385 . S
C296 C297 1.389 1_565 S
C296 H304 0.931 1_565 S
C297 C296 1.389 1_545 S
C297 C298 1.383 . S
C297 H305 0.929 . S
C298 C297 1.383 . S
C298 C299 1.377 1_545 S
C299 H283 0.930 . S
C299 C298 1.377 1_565 S
C299 C300 1.379 . S
C300 H284 0.931 . S
C300 C294 1.383 . S
C300 C299 1.379 . S
H301 C295 0.959 . S
H302 C295 0.961 . S
H303 C295 0.960 . S
H304 C296 0.931 1_545 S
H305 C297 0.929 . S
H306 C314 0.929 . S
H307 C316 0.930 . S
H308 C318 0.930 . S
H309 C321 0.929 . S
H310 C324 0.930 . S
H311 C326 0.960 . S
H312 C326 0.960 . S
H313 C326 0.960 . S
C314 H306 0.929 . S
C314 C315 1.377 . S
C314 C316 1.384 . S
C315 C314 1.377 . S
C315 C321 1.390 . S
C316 H307 0.930 . S
C316 C314 1.384 . S
C316 C317 1.372 . S
C317 C316 1.372 . S
C317 C318 1.400 . S
C317 C322 1.490 . S
C318 H308 0.930 . S
C318 C317 1.400 . S
C318 C321 1.386 . S
H319 C335 0.930 . S
H320 C336 0.931 . S
C321 H309 0.929 . S
C321 C315 1.390 . S
C321 C318 1.386 . S
C322 C317 1.490 . S
C322 C324 1.395 . S
C322 C325 1.403 . S
H323 C329 0.930 . S
C324 H310 0.930 . S
C324 C322 1.395 . S
C324 C327 1.403 . S
C325 C322 1.403 . S
C325 C326 1.524 . S
C325 C329 1.400 . S
C326 H311 0.960 . S
C326 H312 0.960 . S
C326 H313 0.960 . S
C326 C325 1.524 . S
C327 C324 1.403 . S
C327 C328 1.392 . S
C327 C331 1.495 . S
C328 C327 1.392 . S
C328 C329 1.385 . S
C328 C330 1.478 . S
C329 H323 0.930 . S
C329 C325 1.400 . S
C329 C328 1.385 . S
C330 C328 1.478 . S
C330 C332 1.381 . S
C330 C336 1.383 . S
C331 C327 1.495 . S
C331 H337 0.959 . S
C331 H338 0.961 . S
C331 H339 0.960 . S
C332 C330 1.381 . S
C332 C333 1.394 . S
C332 H340 0.930 . S
C333 C332 1.394 . S
C333 C334 1.383 . S
C333 H341 0.929 . S
C334 C333 1.383 . S
C334 C335 1.377 . S
C335 H319 0.930 . S
C335 C334 1.377 . S
C335 C336 1.379 . S
C336 H320 0.931 . S
C336 C330 1.383 . S
C336 C335 1.379 . S
H337 C331 0.959 . S
H338 C331 0.961 . S
H339 C331 0.960 . S
H340 C332 0.930 . S
H341 C333 0.929 . S
H342 C350 0.929 . S
H343 C352 0.930 . S
H344 C354 0.930 . S
H345 C357 0.929 . S
H346 C360 0.930 . S
H347 C362 0.960 . S
H348 C362 0.960 . S
H349 C362 0.960 . S
C350 H342 0.929 . S
C350 C351 1.377 . S
C350 C352 1.384 . S
C351 C350 1.377 . S
C351 C357 1.390 . S
C352 H343 0.930 . S
C352 C350 1.384 . S
C352 C353 1.372 . S
C353 C352 1.372 . S
C353 C354 1.400 . S
C353 C358 1.490 . S
C354 H344 0.930 . S
C354 C353 1.400 . S
C354 C357 1.386 . S
H355 C371 0.930 . S
H356 C372 0.931 . S
C357 H345 0.929 . S
C357 C351 1.390 . S
C357 C354 1.386 . S
C358 C353 1.490 . S
C358 C360 1.395 . S
C358 C361 1.403 . S
H359 C365 0.930 . S
C360 H346 0.930 . S
C360 C358 1.395 . S
C360 C363 1.403 . S
C361 C358 1.403 . S
C361 C362 1.524 . S
C361 C365 1.400 . S
C362 H347 0.960 . S
C362 H348 0.960 . S
C362 H349 0.960 . S
C362 C361 1.524 . S
C363 C360 1.403 . S
C363 C364 1.392 . S
C363 C367 1.495 . S
C364 C363 1.392 . S
C364 C365 1.385 . S
C364 C366 1.478 . S
C365 H359 0.930 . S
C365 C361 1.400 . S
C365 C364 1.385 . S
C366 C364 1.478 . S
C366 C368 1.381 . S
C366 C372 1.383 . S
C367 C363 1.495 . S
C367 H373 0.959 . S
C367 H374 0.961 . S
C367 H375 0.960 . S
C368 C366 1.381 . S
C368 C369 1.394 . S
C368 H376 0.930 . S
C369 C368 1.394 . S
C369 C370 1.383 . S
C369 H377 0.929 . S
C370 C369 1.383 . S
C370 C371 1.377 . S
C371 H355 0.930 . S
C371 C370 1.377 . S
C371 C372 1.379 . S
C372 H356 0.931 . S
C372 C366 1.383 . S
C372 C371 1.379 . S
H373 C367 0.959 . S
H374 C367 0.961 . S
H375 C367 0.960 . S
H376 C368 0.930 . S
H377 C369 0.929 . S
H378 C386 0.929 . S
H379 C388 0.930 . S
H380 C390 0.930 . S
H381 C393 0.929 . S
H382 C396 0.930 . S
H383 C398 0.960 . S
H384 C398 0.960 . S
H385 C398 0.960 . S
C386 H378 0.929 . S
C386 C387 1.377 . S
C386 C388 1.384 . S
C387 C386 1.377 . S
C387 C393 1.390 . S
C388 H379 0.930 . S
C388 C386 1.384 . S
C388 C389 1.372 . S
C389 C388 1.372 . S
C389 C390 1.400 . S
C389 C394 1.490 . S
C390 H380 0.930 . S
C390 C389 1.400 . S
C390 C393 1.386 . S
H391 C407 0.930 . S
H392 C408 0.931 . S
C393 H381 0.929 . S
C393 C387 1.390 . S
C393 C390 1.386 . S
C394 C389 1.490 . S
C394 C396 1.395 . S
C394 C397 1.403 . S
H395 C401 0.930 . S
C396 H382 0.930 . S
C396 C394 1.395 . S
C396 C399 1.403 . S
C397 C394 1.403 . S
C397 C398 1.524 . S
C397 C401 1.400 . S
C398 H383 0.960 . S
C398 H384 0.960 . S
C398 H385 0.960 . S
C398 C397 1.524 . S
C399 C396 1.403 . S
C399 C400 1.392 . S
C399 C403 1.495 . S
C400 C399 1.392 . S
C400 C401 1.385 . S
C400 C402 1.478 . S
C401 H395 0.930 . S
C401 C397 1.400 . S
C401 C400 1.385 . S
C402 C400 1.478 . S
C402 C404 1.381 . S
C402 C408 1.383 . S
C403 C399 1.495 . S
C403 H409 0.959 . S
C403 H410 0.961 . S
C403 H411 0.960 . S
C404 C402 1.381 . S
C404 C405 1.394 . S
C404 H412 0.930 . S
C405 C404 1.394 . S
C405 C406 1.383 . S
C405 H413 0.929 . S
C406 C405 1.383 . S
C406 C407 1.377 . S
C407 H391 0.930 . S
C407 C406 1.377 . S
C407 C408 1.379 . S
C408 H392 0.931 . S
C408 C402 1.383 . S
C408 C407 1.379 . S
H409 C403 0.959 . S
H410 C403 0.961 . S
H411 C403 0.960 . S
H412 C404 0.930 . S
H413 C405 0.929 . S
H414 C422 0.929 . S
H415 C424 0.930 . S
H416 C426 0.930 . S
H417 C429 0.929 . S
H418 C432 0.930 . S
H419 C434 0.960 . S
H420 C434 0.960 . S
H421 C434 0.960 . S
C422 H414 0.929 . S
C422 C423 1.377 . S
C422 C424 1.384 . S
C423 C422 1.377 . S
C423 C429 1.390 . S
C424 H415 0.930 . S
C424 C422 1.384 . S
C424 C425 1.372 . S
C425 C424 1.372 . S
C425 C426 1.400 . S
C425 C430 1.490 . S
C426 H416 0.930 . S
C426 C425 1.400 . S
C426 C429 1.386 . S
H427 C443 0.930 . S
H428 C444 0.931 . S
C429 H417 0.929 . S
C429 C423 1.390 . S
C429 C426 1.386 . S
C430 C425 1.490 . S
C430 C432 1.395 . S
C430 C433 1.403 . S
H431 C437 0.930 . S
C432 H418 0.930 . S
C432 C430 1.395 . S
C432 C435 1.403 . S
C433 C430 1.403 . S
C433 C434 1.524 . S
C433 C437 1.400 . S
C434 H419 0.960 . S
C434 H420 0.960 . S
C434 H421 0.960 . S
C434 C433 1.524 . S
C435 C432 1.403 . S
C435 C436 1.392 . S
C435 C439 1.495 . S
C436 C435 1.392 . S
C436 C437 1.385 . S
C436 C438 1.478 . S
C437 H431 0.930 . S
C437 C433 1.400 . S
C437 C436 1.385 . S
C438 C436 1.478 . S
C438 C440 1.381 . S
C438 C444 1.383 . S
C439 C435 1.495 . S
C439 H445 0.959 . S
C439 H446 0.961 . S
C439 H447 0.960 . S
C440 C438 1.381 . S
C440 C441 1.394 . S
C440 H448 0.930 . S
C441 C440 1.394 . S
C441 C442 1.383 . S
C441 H449 0.929 . S
C442 C441 1.383 . S
C442 C443 1.377 . S
C443 H427 0.930 . S
C443 C442 1.377 . S
C443 C444 1.379 . S
C444 H428 0.931 . S
C444 C438 1.383 . S
C444 C443 1.379 . S
H445 C439 0.959 . S
H446 C439 0.961 . S
H447 C439 0.960 . S
H448 C440 0.930 . S
H449 C441 0.929 . S
H450 C458 0.929 . S
H451 C460 0.930 . S
H452 C462 0.930 . S
H453 C465 0.929 . S
H454 C468 0.930 . S
H455 C470 0.960 . S
H456 C470 0.960 . S
H457 C470 0.960 . S
C458 H450 0.929 . S
C458 C459 1.377 . S
C458 C460 1.384 . S
C459 C458 1.377 . S
C459 C465 1.390 . S
C460 H451 0.930 . S
C460 C458 1.384 . S
C460 C461 1.372 . S
C461 C460 1.372 . S
C461 C462 1.400 . S
C461 C466 1.490 . S
C462 H452 0.930 . S
C462 C461 1.400 . S
C462 C465 1.386 . S
H463 C479 0.930 . S
H464 C480 0.931 . S
C465 H453 0.929 . S
C465 C459 1.390 . S
C465 C462 1.386 . S
C466 C461 1.490 . S
C466 C468 1.395 . S
C466 C469 1.403 . S
H467 C473 0.930 . S
C468 H454 0.930 . S
C468 C466 1.395 . S
C468 C471 1.403 . S
C469 C466 1.403 . S
C469 C470 1.524 . S
C469 C473 1.400 . S
C470 H455 0.960 . S
C470 H456 0.960 . S
C470 H457 0.960 . S
C470 C469 1.524 . S
C471 C468 1.403 . S
C471 C472 1.392 . S
C471 C475 1.495 . S
C472 C471 1.392 . S
C472 C473 1.385 . S
C472 C474 1.478 . S
C473 H467 0.930 . S
C473 C469 1.400 . S
C473 C472 1.385 . S
C474 C472 1.478 . S
C474 C476 1.381 . S
C474 C480 1.383 . S
C475 C471 1.495 . S
C475 H481 0.959 . S
C475 H482 0.961 . S
C475 H483 0.960 . S
C476 C474 1.381 . S
C476 C477 1.394 . S
C476 H484 0.930 . S
C477 C476 1.394 . S
C477 C478 1.383 . S
C477 H485 0.929 . S
C478 C477 1.383 . S
C478 C479 1.377 . S
C479 H463 0.930 . S
C479 C478 1.377 . S
C479 C480 1.379 . S
C480 H464 0.931 . S
C480 C474 1.383 . S
C480 C479 1.379 . S
H481 C475 0.959 . S
H482 C475 0.961 . S
H483 C475 0.960 . S
H484 C476 0.930 . S
H485 C477 0.929 . S
H486 C494 0.929 . S
H487 C496 0.930 . S
H488 C498 0.930 . S
H489 C501 0.929 . S
H490 C504 0.930 . S
H491 C506 0.960 . S
H492 C506 0.960 . S
H493 C506 0.960 . S
C494 H486 0.929 . S
C494 C495 1.377 . S
C494 C496 1.384 . S
C495 C494 1.377 . S
C495 C501 1.390 . S
C496 H487 0.930 . S
C496 C494 1.384 . S
C496 C497 1.372 . S
C497 C496 1.372 . S
C497 C498 1.400 . S
C497 C502 1.490 . S
C498 H488 0.930 . S
C498 C497 1.400 . S
C498 C501 1.386 . S
H499 C515 0.930 . S
H500 C516 0.931 . S
C501 H489 0.929 . S
C501 C495 1.390 . S
C501 C498 1.386 . S
C502 C497 1.490 . S
C502 C504 1.395 . S
C502 C505 1.403 . S
H503 C509 0.930 . S
C504 H490 0.930 . S
C504 C502 1.395 . S
C504 C507 1.403 . S
C505 C502 1.403 . S
C505 C506 1.524 . S
C505 C509 1.400 . S
C506 H491 0.960 . S
C506 H492 0.960 . S
C506 H493 0.960 . S
C506 C505 1.524 . S
C507 C504 1.403 . S
C507 C508 1.392 . S
C507 C511 1.495 . S
C508 C507 1.392 . S
C508 C509 1.385 . S
C508 C510 1.478 . S
C509 H503 0.930 . S
C509 C505 1.400 . S
C509 C508 1.385 . S
C510 C508 1.478 . S
C510 C512 1.381 . S
C510 C516 1.383 . S
C511 C507 1.495 . S
C511 H517 0.959 . S
C511 H518 0.961 . S
C511 H519 0.960 . S
C512 C510 1.381 . S
C512 C513 1.394 . S
C512 H520 0.930 . S
C513 C512 1.394 . S
C513 C514 1.383 . S
C513 H521 0.929 . S
C514 C513 1.383 . S
C514 C515 1.377 . S
C515 H499 0.930 . S
C515 C514 1.377 . S
C515 C516 1.379 . S
C516 H500 0.931 . S
C516 C510 1.383 . S
C516 C515 1.379 . S
H517 C511 0.959 . S
H518 C511 0.961 . S
H519 C511 0.960 . S
H520 C512 0.930 . S
H521 C513 0.929 . S
H522 C530 0.929 . S
H523 C532 0.930 . S
H524 C534 0.930 . S
H525 C537 0.929 . S
H526 C540 0.930 . S
H527 C542 0.960 . S
H528 C542 0.960 . S
H529 C542 0.960 . S
C530 H522 0.929 . S
C530 C531 1.377 . S
C530 C532 1.384 . S
C531 C530 1.377 . S
C531 C537 1.390 . S
C532 H523 0.930 . S
C532 C530 1.384 . S
C532 C533 1.372 . S
C533 C532 1.372 . S
C533 C534 1.400 . S
C533 C538 1.490 . S
C534 H524 0.930 . S
C534 C533 1.400 . S
C534 C537 1.386 . S
H535 C551 0.930 . S
H536 C552 0.931 . S
C537 H525 0.929 . S
C537 C531 1.390 . S
C537 C534 1.386 . S
C538 C533 1.490 . S
C538 C540 1.395 . S
C538 C541 1.403 . S
H539 C545 0.930 . S
C540 H526 0.930 . S
C540 C538 1.395 . S
C540 C543 1.403 . S
C541 C538 1.403 . S
C541 C542 1.524 . S
C541 C545 1.400 . S
C542 H527 0.960 . S
C542 H528 0.960 . S
C542 H529 0.960 . S
C542 C541 1.524 . S
C543 C540 1.403 . S
C543 C544 1.392 . S
C543 C547 1.495 . S
C544 C543 1.392 . S
C544 C545 1.385 . S
C544 C546 1.478 . S
C545 H539 0.930 . S
C545 C541 1.400 . S
C545 C544 1.385 . S
C546 C544 1.478 . S
C546 C548 1.381 . S
C546 C552 1.383 . S
C547 C543 1.495 . S
C547 H553 0.959 . S
C547 H554 0.961 . S
C547 H555 0.960 . S
C548 C546 1.381 . S
C548 C549 1.394 . S
C548 H556 0.930 . S
C549 C548 1.394 . S
C549 C550 1.383 . S
C549 H557 0.929 . S
C550 C549 1.383 . S
C550 C551 1.377 . S
C551 H535 0.930 . S
C551 C550 1.377 . S
C551 C552 1.379 . S
C552 H536 0.931 . S
C552 C546 1.383 . S
C552 C551 1.379 . S
H553 C547 0.959 . S
H554 C547 0.961 . S
H555 C547 0.960 . S
H556 C548 0.930 . S
H557 C549 0.929 . S
H558 C566 0.929 . S
H559 C568 0.930 . S
H560 C570 0.930 . S
H561 C573 0.929 . S
H562 C576 0.930 . S
H563 C578 0.960 . S
H564 C578 0.960 . S
H565 C578 0.960 . S
C566 H558 0.929 . S
C566 C567 1.377 . S
C566 C568 1.384 . S
C567 C566 1.377 . S
C567 C573 1.390 . S
C568 H559 0.930 . S
C568 C566 1.384 . S
C568 C569 1.372 . S
C569 C568 1.372 . S
C569 C570 1.400 . S
C569 C574 1.490 . S
C570 H560 0.930 . S
C570 C569 1.400 . S
C570 C573 1.386 . S
H571 C587 0.930 . S
H572 C588 0.931 . S
C573 H561 0.929 . S
C573 C567 1.390 . S
C573 C570 1.386 . S
C574 C569 1.490 . S
C574 C576 1.395 . S
C574 C577 1.403 . S
H575 C581 0.930 . S
C576 H562 0.930 . S
C576 C574 1.395 . S
C576 C579 1.403 . S
C577 C574 1.403 . S
C577 C578 1.524 . S
C577 C581 1.400 . S
C578 H563 0.960 . S
C578 H564 0.960 . S
C578 H565 0.960 . S
C578 C577 1.524 . S
C579 C576 1.403 . S
C579 C580 1.392 . S
C579 C583 1.495 . S
C580 C579 1.392 . S
C580 C581 1.385 . S
C580 C582 1.478 . S
C581 H575 0.930 . S
C581 C577 1.400 . S
C581 C580 1.385 . S
C582 C580 1.478 . S
C582 C584 1.381 . S
C582 C588 1.383 . S
C583 C579 1.495 . S
C583 H589 0.959 . S
C583 H590 0.961 . S
C583 H591 0.960 . S
C584 C582 1.381 . S
C584 C585 1.394 . S
C584 H592 0.930 . S
C585 C584 1.394 . S
C585 C586 1.383 . S
C585 H593 0.929 . S
C586 C585 1.383 . S
C586 C587 1.377 . S
C587 H571 0.930 . S
C587 C586 1.377 . S
C587 C588 1.379 . S
C588 H572 0.931 . S
C588 C582 1.383 . S
C588 C587 1.379 . S
H589 C583 0.959 . S
H590 C583 0.961 . S
H591 C583 0.960 . S
H592 C584 0.930 . S
H593 C585 0.929 . S
H594 C602 0.929 . S
H595 C604 0.930 . S
H596 C606 0.930 . S
H597 C609 0.929 . S
H598 C612 0.930 . S
H599 C614 0.960 . S
H600 C614 0.960 . S
H601 C614 0.960 . S
C602 H594 0.929 . S
C602 C603 1.377 . S
C602 C604 1.384 . S
C603 C602 1.377 . S
C603 C609 1.390 . S
C604 H595 0.930 . S
C604 C602 1.384 . S
C604 C605 1.372 . S
C605 C604 1.372 . S
C605 C606 1.400 . S
C605 C610 1.490 . S
C606 H596 0.930 . S
C606 C605 1.400 . S
C606 C609 1.386 . S
H607 C623 0.930 . S
H608 C624 0.931 . S
C609 H597 0.929 . S
C609 C603 1.390 . S
C609 C606 1.386 . S
C610 C605 1.490 . S
C610 C612 1.395 . S
C610 C613 1.403 . S
H611 C617 0.930 . S
C612 H598 0.930 . S
C612 C610 1.395 . S
C612 C615 1.403 . S
C613 C610 1.403 . S
C613 C614 1.524 . S
C613 C617 1.400 . S
C614 H599 0.960 . S
C614 H600 0.960 . S
C614 H601 0.960 . S
C614 C613 1.524 . S
C615 C612 1.403 . S
C615 C616 1.392 . S
C615 C619 1.495 . S
C616 C615 1.392 . S
C616 C617 1.385 . S
C616 C618 1.478 . S
C617 H611 0.930 . S
C617 C613 1.400 . S
C617 C616 1.385 . S
C618 C616 1.478 . S
C618 C620 1.381 . S
C618 C624 1.383 . S
C619 C615 1.495 . S
C619 H625 0.959 . S
C619 H626 0.961 . S
C619 H627 0.960 . S
C620 C618 1.381 . S
C620 C621 1.394 . S
C620 H628 0.930 . S
C621 C620 1.394 . S
C621 C622 1.383 . S
C621 H629 0.929 . S
C622 C621 1.383 . S
C622 C623 1.377 . S
C623 H607 0.930 . S
C623 C622 1.377 . S
C623 C624 1.379 . S
C624 H608 0.931 . S
C624 C618 1.383 . S
C624 C623 1.379 . S
H625 C619 0.959 . S
H626 C619 0.961 . S
H627 C619 0.960 . S
H628 C620 0.930 . S
H629 C621 0.929 . S
H630 C638 0.929 . S
H631 C640 0.930 . S
H632 C642 0.930 . S
H633 C645 0.929 . S
H634 C648 0.930 . S
H635 C650 0.960 . S
H636 C650 0.960 1_655 S
H637 C650 0.960 . S
C638 H630 0.929 . S
C638 C639 1.377 1_655 S
C638 C640 1.384 . S
C639 C638 1.377 1_455 S
C639 C645 1.390 . S
C640 H631 0.930 . S
C640 C638 1.384 . S
C640 C641 1.372 1_655 S
C641 C640 1.372 1_455 S
C641 C642 1.400 . S
C641 C646 1.490 . S
C642 H632 0.930 . S
C642 C641 1.400 . S
C642 C645 1.386 . S
H643 C659 0.930 . S
H644 C660 0.931 . S
C645 H633 0.929 . S
C645 C639 1.390 . S
C645 C642 1.386 . S
C646 C641 1.490 . S
C646 C648 1.395 . S
C646 C649 1.403 . S
H647 C653 0.930 . S
C648 H634 0.930 . S
C648 C646 1.395 . S
C648 C651 1.402 1_554 S
C649 C646 1.403 . S
C649 C650 1.524 . S
C649 C653 1.400 1_554 S
C650 H635 0.960 . S
C650 H636 0.960 1_455 S
C650 H637 0.960 . S
C650 C649 1.524 . S
C651 C648 1.402 1_556 S
C651 C652 1.393 . S
C651 C655 1.496 . S
C652 C651 1.393 . S
C652 C653 1.385 . S
C652 C654 1.478 . S
C653 H647 0.930 . S
C653 C649 1.400 1_556 S
C653 C652 1.385 . S
C654 C652 1.478 . S
C654 C656 1.381 . S
C654 C660 1.383 . S
C655 C651 1.496 . S
C655 H661 0.959 1_556 S
C655 H662 0.961 . S
C655 H663 0.960 . S
C656 C654 1.381 . S
C656 C657 1.394 . S
C656 H664 0.930 1_455 S
C657 C656 1.394 . S
C657 C658 1.383 . S
C657 H665 0.918 1_455 S
C658 C657 1.383 . S
C658 C659 1.377 . S
C659 H643 0.930 . S
C659 C658 1.377 . S
C659 C660 1.379 . S
C660 H644 0.931 . S
C660 C654 1.383 . S
C660 C659 1.379 . S
H661 C655 0.959 1_554 S
H662 C655 0.961 . S
H663 C655 0.960 . S
H664 C656 0.930 1_655 S
H665 C657 0.918 1_655 S
H666 C674 0.929 . S
H667 C676 0.930 . S
H668 C678 0.930 1_565 S
H669 C681 0.929 1_565 S
H670 C684 0.930 . S
H671 C686 0.960 . S
H672 C686 0.960 . S
H673 C686 0.960 . S
C674 H666 0.929 . S
C674 C675 1.377 . S
C674 C676 1.384 . S
C675 C674 1.377 . S
C675 C681 1.390 . S
C676 H667 0.930 . S
C676 C674 1.384 . S
C676 C677 1.372 . S
C677 C676 1.372 . S
C677 C678 1.400 . S
C677 C682 1.490 . S
C678 H668 0.930 1_545 S
C678 C677 1.400 . S
C678 C681 1.386 . S
H679 C695 0.930 . S
H680 C696 0.931 . S
C681 H669 0.929 1_545 S
C681 C675 1.390 . S
C681 C678 1.386 . S
C682 C677 1.490 . S
C682 C684 1.395 . S
C682 C685 1.403 . S
H683 C689 0.930 . S
C684 H670 0.930 . S
C684 C682 1.395 . S
C684 C687 1.403 . S
C685 C682 1.403 . S
C685 C686 1.524 . S
C685 C689 1.400 . S
C686 H671 0.960 . S
C686 H672 0.960 . S
C686 H673 0.960 . S
C686 C685 1.524 . S
C687 C684 1.403 . S
C687 C688 1.392 . S
C687 C691 1.495 . S
C688 C687 1.392 . S
C688 C689 1.385 . S
C688 C690 1.478 . S
C689 H683 0.930 . S
C689 C685 1.400 . S
C689 C688 1.385 . S
C690 C688 1.478 . S
C690 C692 1.381 . S
C690 C696 1.383 1_545 S
C691 C687 1.495 . S
C691 H697 0.959 . S
C691 H698 0.961 1_545 S
C691 H699 0.960 . S
C692 C690 1.381 . S
C692 C693 1.394 . S
C692 H700 0.930 . S
C693 C692 1.394 . S
C693 C694 1.383 . S
C693 H701 0.929 . S
C694 C693 1.383 . S
C694 C695 1.377 1_545 S
C695 H679 0.930 . S
C695 C694 1.377 1_565 S
C695 C696 1.379 . S
C696 H680 0.931 . S
C696 C690 1.383 1_565 S
C696 C695 1.379 . S
H697 C691 0.959 . S
H698 C691 0.961 1_565 S
H699 C691 0.960 . S
H700 C692 0.930 . S
H701 C693 0.929 . S
H702 C710 0.929 . S
H703 C712 0.930 . S
H704 C714 0.930 . S
H705 C717 0.929 . S
H706 C720 0.930 . S
H707 C722 0.960 . S
H708 C722 0.960 . S
H709 C722 0.960 . S
C710 H702 0.929 . S
C710 C711 1.377 . S
C710 C712 1.384 . S
C711 C710 1.377 . S
C711 C717 1.390 . S
C712 H703 0.930 . S
C712 C710 1.384 . S
C712 C713 1.372 . S
C713 C712 1.372 . S
C713 C714 1.400 . S
C713 C718 1.490 . S
C714 H704 0.930 . S
C714 C713 1.400 . S
C714 C717 1.386 . S
H715 C731 0.930 . S
H716 C732 0.931 . S
C717 H705 0.929 . S
C717 C711 1.390 . S
C717 C714 1.386 . S
C718 C713 1.490 . S
C718 C720 1.395 . S
C718 C721 1.403 . S
H719 C725 0.930 . S
C720 H706 0.930 . S
C720 C718 1.395 . S
C720 C723 1.403 . S
C721 C718 1.403 . S
C721 C722 1.524 . S
C721 C725 1.400 . S
C722 H707 0.960 . S
C722 H708 0.960 . S
C722 H709 0.960 . S
C722 C721 1.524 . S
C723 C720 1.403 . S
C723 C724 1.392 . S
C723 C727 1.495 . S
C724 C723 1.392 . S
C724 C725 1.385 . S
C724 C726 1.478 . S
C725 H719 0.930 . S
C725 C721 1.400 . S
C725 C724 1.385 . S
C726 C724 1.478 . S
C726 C728 1.381 . S
C726 C732 1.383 . S
C727 C723 1.495 . S
C727 H733 0.959 . S
C727 H734 0.961 . S
C727 H735 0.960 . S
C728 C726 1.381 . S
C728 C729 1.394 . S
C728 H736 0.930 . S
C729 C728 1.394 . S
C729 C730 1.383 . S
C729 H737 0.929 . S
C730 C729 1.383 . S
C730 C731 1.377 . S
C731 H715 0.930 . S
C731 C730 1.377 . S
C731 C732 1.379 . S
C732 H716 0.931 . S
C732 C726 1.383 . S
C732 C731 1.379 . S
H733 C727 0.959 . S
H734 C727 0.961 . S
H735 C727 0.960 . S
H736 C728 0.930 . S
H737 C729 0.929 . S
H738 C746 0.929 . S
H739 C748 0.941 . S
H740 C750 0.930 . S
H741 C753 0.929 . S
H742 C756 0.930 . S
H743 C758 0.960 . S
H744 C758 0.960 . S
H745 C758 0.960 . S
C746 H738 0.929 . S
C746 C747 1.377 1_565 S
C746 C748 1.385 . S
C747 C746 1.377 1_545 S
C747 C753 1.390 . S
C748 H739 0.941 . S
C748 C746 1.385 . S
C748 C749 1.360 1_565 S
C749 C748 1.360 1_545 S
C749 C750 1.400 . S
C749 C754 1.490 . S
C750 H740 0.930 . S
C750 C749 1.400 . S
C750 C753 1.386 . S
H751 C767 0.930 . S
H752 C768 0.931 . S
C753 H741 0.929 . S
C753 C747 1.390 . S
C753 C750 1.386 . S
C754 C749 1.490 . S
C754 C756 1.395 . S
C754 C757 1.403 . S
H755 C761 0.930 . S
C756 H742 0.930 . S
C756 C754 1.395 . S
C756 C759 1.403 . S
C757 C754 1.403 . S
C757 C758 1.524 . S
C757 C761 1.400 . S
C758 H743 0.960 . S
C758 H744 0.960 . S
C758 H745 0.960 . S
C758 C757 1.524 . S
C759 C756 1.403 . S
C759 C760 1.392 . S
C759 C763 1.495 . S
C760 C759 1.392 . S
C760 C761 1.385 . S
C760 C762 1.478 . S
C761 H755 0.930 . S
C761 C757 1.400 . S
C761 C760 1.385 . S
C762 C760 1.478 . S
C762 C764 1.381 . S
C762 C768 1.383 . S
C763 C759 1.495 . S
C763 H769 0.959 . S
C763 H770 0.961 . S
C763 H771 0.960 . S
C764 C762 1.381 . S
C764 C765 1.394 . S
C764 H772 0.930 1_545 S
C765 C764 1.394 . S
C765 C766 1.383 . S
C765 H773 0.929 1_545 S
C766 C765 1.383 . S
C766 C767 1.377 . S
C767 H751 0.930 . S
C767 C766 1.377 . S
C767 C768 1.379 . S
C768 H752 0.931 . S
C768 C762 1.383 . S
C768 C767 1.379 . S
H769 C763 0.959 . S
H770 C763 0.961 . S
H771 C763 0.960 . S
H772 C764 0.930 1_565 S
H773 C765 0.929 1_565 S
H774 C782 0.929 . S
H775 C784 0.930 . S
H776 C786 0.930 . S
H777 C789 0.929 . S
H778 C792 0.930 . S
H779 C794 0.960 . S
H780 C794 0.960 . S
H781 C794 0.960 . S
C782 H774 0.929 . S
C782 C783 1.377 . S
C782 C784 1.384 . S
C783 C782 1.377 . S
C783 C789 1.390 . S
C784 H775 0.930 . S
C784 C782 1.384 . S
C784 C785 1.372 . S
C785 C784 1.372 . S
C785 C786 1.400 . S
C785 C790 1.490 . S
C786 H776 0.930 . S
C786 C785 1.400 . S
C786 C789 1.386 . S
H787 C803 0.930 . S
H788 C804 0.931 . S
C789 H777 0.929 . S
C789 C783 1.390 . S
C789 C786 1.386 . S
C790 C785 1.490 . S
C790 C792 1.395 . S
C790 C793 1.403 . S
H791 C797 0.930 . S
C792 H778 0.930 . S
C792 C790 1.395 . S
C792 C795 1.403 . S
C793 C790 1.403 . S
C793 C794 1.524 . S
C793 C797 1.400 1_556 S
C794 H779 0.960 . S
C794 H780 0.960 . S
C794 H781 0.960 . S
C794 C793 1.524 . S
C795 C792 1.403 . S
C795 C796 1.392 1_556 S
C795 C799 1.495 1_556 S
C796 C795 1.392 1_554 S
C796 C797 1.385 . S
C796 C798 1.478 . S
C797 H791 0.930 . S
C797 C793 1.400 1_554 S
C797 C796 1.385 . S
C798 C796 1.478 . S
C798 C800 1.381 . S
C798 C804 1.383 . S
C799 C795 1.495 1_554 S
C799 H805 0.959 1_554 S
C799 H806 0.961 . S
C799 H807 0.960 . S
C800 C798 1.381 . S
C800 C801 1.394 . S
C800 H808 0.930 . S
C801 C800 1.394 . S
C801 C802 1.383 . S
C801 H809 0.929 . S
C802 C801 1.383 . S
C802 C803 1.377 . S
C803 H787 0.930 . S
C803 C802 1.377 . S
C803 C804 1.379 . S
C804 H788 0.931 . S
C804 C798 1.383 . S
C804 C803 1.379 . S
H805 C799 0.959 1_556 S
H806 C799 0.961 . S
H807 C799 0.960 . S
H808 C800 0.930 . S
H809 C801 0.929 . S
H810 C818 0.929 . S
H811 C820 0.930 . S
H812 C822 0.930 . S
H813 C825 0.929 . S
H814 C828 0.930 . S
H815 C830 0.960 . S
H816 C830 0.960 . S
H817 C830 0.960 . S
C818 H810 0.929 . S
C818 C819 1.377 . S
C818 C820 1.384 . S
C819 C818 1.377 . S
C819 C825 1.390 1_655 S
C820 H811 0.930 . S
C820 C818 1.384 . S
C820 C821 1.372 1_655 S
C821 C820 1.372 1_455 S
C821 C822 1.400 . S
C821 C826 1.490 . S
C822 H812 0.930 . S
C822 C821 1.400 . S
C822 C825 1.386 . S
H823 C839 0.930 . S
H824 C840 0.931 . S
C825 H813 0.929 . S
C825 C819 1.390 1_455 S
C825 C822 1.386 . S
C826 C821 1.490 . S
C826 C828 1.395 1_455 S
C826 C829 1.403 . S
H827 C833 0.930 . S
C828 H814 0.930 . S
C828 C826 1.395 1_655 S
C828 C831 1.403 . S
C829 C826 1.403 . S
C829 C830 1.524 . S
C829 C833 1.400 . S
C830 H815 0.960 . S
C830 H816 0.960 . S
C830 H817 0.960 . S
C830 C829 1.524 . S
C831 C828 1.403 . S
C831 C832 1.392 1_655 S
C831 C835 1.495 . S
C832 C831 1.392 1_455 S
C832 C833 1.385 . S
C832 C834 1.478 . S
C833 H827 0.930 . S
C833 C829 1.400 . S
C833 C832 1.385 . S
C834 C832 1.478 . S
C834 C836 1.381 1_455 S
C834 C840 1.383 . S
C835 C831 1.495 . S
C835 H841 0.959 . S
C835 H842 0.961 . S
C835 H843 0.960 . S
C836 C834 1.381 1_655 S
C836 C837 1.394 . S
C836 H844 0.930 . S
C837 C836 1.394 . S
C837 C838 1.383 1_655 S
C837 H845 0.929 . S
C838 C837 1.383 1_455 S
C838 C839 1.377 . S
C839 H823 0.930 . S
C839 C838 1.377 . S
C839 C840 1.379 . S
C840 H824 0.931 . S
C840 C834 1.383 . S
C840 C839 1.379 . S
H841 C835 0.959 . S
H842 C835 0.961 . S
H843 C835 0.960 . S
H844 C836 0.930 . S
H845 C837 0.929 . S
C207 C6 0.262 . S
C226 N187 0.313 . S
C243 C59 1.759 . S
C262 N160 1.752 1_655 S
C279 C86 1.077 . S
C298 N173 1.060 . S
C315 C15 0.643 . S
C334 N186 0.621 . S
C370 N161 1.968 . S
C351 C50 1.964 . S
C406 N174 1.313 . S
C387 C95 1.300 . S
C423 C46 1.031 . S
C442 N134 1.020 . S
C459 C99 2.726 . S
C478 N148 2.677 1_655 S
C495 C10 1.976 . S
C514 N122 1.980 . S
C550 N135 1.360 . S
C531 C55 1.338 . S
C586 N147 3.303 . S
C567 C90 3.264 . S
C603 C19 1.757 . S
C622 N121 1.757 . S
C658 N151 1.715 . S
C639 C18 1.704 . S
C675 C49 1.475 . S
C694 N125 1.482 . S
C711 C98 1.509 . S
C730 N138 1.562 . S
C766 N177 1.548 . S
C747 C58 1.477 . S
C802 N190 1.270 . S
C783 C89 1.287 . S
C819 C9 1.451 . S
C838 N164 1.483 . S
