# Generated by pormake.
# Topology rtl, (3,6)-cn, num edge types: 1
# Building blocks:
#     Node 0, Type 0, BuildingBlock: CUQRIR_clean_linker_1, # of connection points: 3
#     Node 1, Type 0, BuildingBlock: CUQRIR_clean_linker_1, # of connection points: 3
#     Node 2, Type 0, BuildingBlock: CUQRIR_clean_linker_1, # of connection points: 3
#     Node 3, Type 0, BuildingBlock: CUQRIR_clean_linker_1, # of connection points: 3
#     Node 4, Type 1, BuildingBlock: KUMBOL_clean_sbu_1, # of connection points: 6
#     Node 5, Type 1, BuildingBlock: KUMBOL_clean_sbu_1, # of connection points: 6
#     Edge 6, Type (0, 1), BuildingBlock: TEMPAE_clean_linker_10, # of connection points: 2
#     Edge 7, Type (0, 1), BuildingBlock: TEMPAE_clean_linker_10, # of connection points: 2
#     Edge 8, Type (0, 1), BuildingBlock: TEMPAE_clean_linker_10, # of connection points: 2
#     Edge 9, Type (0, 1), BuildingBlock: TEMPAE_clean_linker_10, # of connection points: 2
#     Edge 10, Type (0, 1), BuildingBlock: TEMPAE_clean_linker_10, # of connection points: 2
#     Edge 11, Type (0, 1), BuildingBlock: TEMPAE_clean_linker_10, # of connection points: 2
#     Edge 12, Type (0, 1), BuildingBlock: TEMPAE_clean_linker_10, # of connection points: 2
#     Edge 13, Type (0, 1), BuildingBlock: TEMPAE_clean_linker_10, # of connection points: 2
#     Edge 14, Type (0, 1), BuildingBlock: TEMPAE_clean_linker_10, # of connection points: 2
#     Edge 15, Type (0, 1), BuildingBlock: TEMPAE_clean_linker_10, # of connection points: 2
#     Edge 16, Type (0, 1), BuildingBlock: TEMPAE_clean_linker_10, # of connection points: 2
#     Edge 17, Type (0, 1), BuildingBlock: TEMPAE_clean_linker_10, # of connection points: 2
# Relax obj value: 0.064
# Max RMSD: 0.226
# Mean RMSD: 0.176
data_MOF--net-rtl--node1-KUMBOL_clean_sbu_1--node2-CUQRIR_clean_linker_1--edge1-TEMPAE_clean_linker_10
_symmetry_space_group_name_H-M    P1
_symmetry_Int_Tables_number       1
_symmetry_cell_setting            triclinic
loop_
_symmetry_equiv_pos_as_xyz
'x, y, z'
_cell_length_a     33.446847
_cell_length_b     33.722329
_cell_length_c     25.281847
_cell_angle_alpha  76.651594
_cell_angle_beta   98.873123
_cell_angle_gamma 91.340697
loop_
_atom_site_label
_atom_site_type_symbol
_atom_site_fract_x
_atom_site_fract_y
_atom_site_fract_z
_atom_type_partial_charge
C0 C 0.23493 0.80475 0.98574 0.0
N1 N 0.20961 0.83181 0.99653 0.0
N2 N 0.25305 0.78012 0.0329 0.0
C3 C 0.24037 0.8004 0.92925 0.0
C4 C 0.23769 0.79239 0.07288 0.0
N5 N 0.21099 0.82355 0.0509 0.0
C6 C 0.24765 0.77313 0.13328 0.0
H7 H 0.21245 0.80961 0.89923 0.0
H8 H 0.24828 0.76856 0.92977 0.0
H9 H 0.26559 0.82 0.91535 0.0
H10 H 0.27655 0.7556 0.14287 0.0
H11 H 0.22303 0.75203 0.14566 0.0
H12 H 0.24944 0.79681 0.15759 0.0
C13 C 0.72409 0.72603 0.69301 0.0
N14 N 0.69539 0.69782 0.68431 0.0
N15 N 0.74116 0.74054 0.64729 0.0
C16 C 0.73924 0.73626 0.74746 0.0
C17 C 0.72269 0.72012 0.61058 0.0
N18 N 0.69504 0.69416 0.63274 0.0
C19 C 0.73222 0.72504 0.55317 0.0
H20 H 0.72242 0.76333 0.75079 0.0
H21 H 0.7718 0.74408 0.75048 0.0
H22 H 0.73514 0.71041 0.78226 0.0
H23 H 0.75573 0.7022 0.55374 0.0
H24 H 0.74406 0.75588 0.53776 0.0
H25 H 0.70497 0.71972 0.52466 0.0
C26 C 0.79393 0.22231 0.12384 0.0
N27 N 0.8206 0.19641 0.11356 0.0
N28 N 0.77008 0.24074 0.07694 0.0
C29 C 0.78873 0.22747 0.18002 0.0
C30 C 0.78254 0.225 0.03762 0.0
N31 N 0.81317 0.19768 0.05989 0.0
C32 C 0.76638 0.2383 0.97729 0.0
H33 H 0.75726 0.23691 0.18054 0.0
H34 H 0.8093 0.25163 0.19085 0.0
H35 H 0.79613 0.19874 0.21163 0.0
H36 H 0.75337 0.2696 0.9671 0.0
H37 H 0.74202 0.21732 0.96662 0.0
H38 H 0.79056 0.23727 0.95209 0.0
C39 C 0.29339 0.28965 0.42503 0.0
N40 N 0.32223 0.31736 0.43457 0.0
N41 N 0.27953 0.27134 0.47213 0.0
C42 C 0.28035 0.27832 0.37086 0.0
C43 C 0.30088 0.28838 0.5108 0.0
N44 N 0.32711 0.31604 0.48827 0.0
C45 C 0.29464 0.27939 0.57008 0.0
H46 H 0.25518 0.29887 0.34699 0.0
H47 H 0.26923 0.24657 0.37723 0.0
H48 H 0.30569 0.28145 0.34663 0.0
H49 H 0.31824 0.2573 0.59493 0.0
H50 H 0.26454 0.26591 0.57539 0.0
H51 H 0.2976 0.30756 0.58594 0.0
C52 C 0.94108 0.12743 0.50613 0.0
C53 C 0.87052 0.11613 0.47372 0.0
C54 C 0.90795 0.10204 0.50574 0.0
C55 C 0.86749 0.15559 0.43969 0.0
C56 C 0.93769 0.16769 0.47378 0.0
C57 C 0.90108 0.18125 0.43951 0.0
N58 N 0.97574 0.11361 0.5407 0.0
C59 C 1.0064 0.14001 0.54909 0.0
C60 C 0.9707 0.19359 0.47841 0.0
C61 C 1.00491 0.1799 0.51704 0.0
Gd62 Gd 0.03865 0.97085 0.52273 0.0
Gd63 Gd 0.97595 0.0448 0.58937 0.0
N64 N 0.91217 0.06361 0.53768 0.0
C65 C 0.83719 0.09023 0.47741 0.0
C66 C 0.87958 0.03868 0.54312 0.0
C67 C 0.84167 0.05146 0.51266 0.0
H68 H 0.88313 0.00878 0.57053 0.0
H69 H 0.81599 0.03143 0.5163 0.0
H70 H 0.12548 0.02306 0.50705 0.0
H71 H 0.03172 0.13087 0.58131 0.0
H72 H 0.19671 0.01774 0.55048 0.0
H73 H 0.80786 0.09998 0.45363 0.0
H74 H 0.83917 0.16677 0.41405 0.0
H75 H 0.99702 0.88159 0.57099 0.0
H76 H 0.96937 0.22469 0.45419 0.0
H77 H 0.02982 0.20029 0.52296 0.0
H78 H 0.20715 0.88619 0.67508 0.0
H79 H 0.89808 0.21191 0.41391 0.0
H80 H 0.08879 0.80321 0.67898 0.0
H81 H 0.01771 0.81509 0.63345 0.0
N82 N 0.05539 0.90734 0.58255 0.0
C83 C 0.09481 0.9011 0.6058 0.0
C84 C 0.02787 0.87693 0.5915 0.0
C85 C 0.07983 0.83246 0.65172 0.0
C86 C 0.03962 0.83911 0.62634 0.0
C87 C 0.10799 0.86366 0.64179 0.0
H88 H 0.15913 0.83037 0.69541 0.0
N89 N 0.1083 0.96777 0.55773 0.0
C90 C 0.12182 0.93259 0.59411 0.0
C91 C 0.18969 0.95898 0.60376 0.0
C92 C 0.16282 0.92738 0.61846 0.0
C93 C 0.13505 0.99729 0.54027 0.0
C94 C 0.17585 0.99383 0.56384 0.0
O95 O 0.95228 0.03379 0.50461 0.0
O96 O 0.0114 0.0302 0.47209 0.0
O97 O 0.07353 0.95995 0.46162 0.0
O98 O 0.012 0.93894 0.46045 0.0
O99 O 0.96146 0.97762 0.606 0.0
O100 O 0.97284 0.95533 0.52922 0.0
O101 O 0.03719 0.9564 0.61467 0.0
O102 O 0.03659 0.01916 0.63516 0.0
O103 O 0.94369 0.02287 0.65831 0.0
O104 O 0.96705 0.08379 0.6447 0.0
O105 O 0.0556 0.03776 0.50822 0.0
O106 O 0.04213 0.06069 0.58348 0.0
C107 C 0.97258 0.03785 0.46322 0.0
C108 C 0.95351 0.95351 0.57151 0.0
C109 C 0.05751 0.9024 0.42492 0.0
C110 C 0.08787 0.86978 0.36345 0.0
C111 C 0.06721 0.829 0.44731 0.0
C112 C 0.05389 0.8641 0.45998 0.0
C113 C 0.08419 0.83174 0.39952 0.0
C114 C 0.07427 0.90509 0.37645 0.0
C115 C 0.04494 0.93997 0.43854 0.0
C116 C 0.17586 0.89057 0.65564 0.0
C117 C 0.14855 0.85872 0.66707 0.0
H118 H 0.2214 0.9562 0.62159 0.0
C119 C 0.0475 0.98054 0.64845 0.0
C120 C 0.06256 0.06244 0.54221 0.0
C121 C 0.96378 0.04914 0.73662 0.0
C122 C 0.95789 0.0619 0.82666 0.0
C123 C 0.00906 0.01465 0.81778 0.0
C124 C 0.99544 0.02144 0.76147 0.0
C125 C 0.99067 0.03483 0.85018 0.0
C126 C 0.9449 0.06923 0.76929 0.0
C127 C 0.94927 0.05566 0.67714 0.0
H128 H 0.06432 0.79955 0.4746 0.0
H129 H 0.04074 0.8612 0.497 0.0
H130 H 0.09396 0.80399 0.39038 0.0
H131 H 0.07731 0.93468 0.34938 0.0
H132 H 0.03371 0.99338 0.8365 0.0
H133 H 0.00907 0.00467 0.73723 0.0
H134 H 1.00213 0.02913 0.89375 0.0
H135 H 0.91948 0.08958 0.75022 0.0
C136 C 0.61937 0.58617 0.07766 0.0
C137 C 0.59616 0.65599 0.06209 0.0
C138 C 0.58956 0.61376 0.07843 0.0
C139 C 0.63238 0.6698 0.0427 0.0
C140 C 0.65656 0.59982 0.06085 0.0
C141 C 0.66256 0.64177 0.04222 0.0
N142 N 0.61227 0.5458 0.09456 0.0
C143 C 0.64189 0.51743 0.09973 0.0
C144 C 0.68672 0.57085 0.06402 0.0
C145 C 0.67948 0.52949 0.0841 0.0
Gd146 Gd 0.46954 0.48617 1.00552 0.0
Gd147 Gd 0.54865 0.5279 0.11929 0.0
N148 N 0.55513 0.59935 0.09809 0.0
C149 C 0.56672 0.68304 0.06735 0.0
C150 C 0.52793 0.62561 0.10737 0.0
C151 C 0.53279 0.66776 0.091 0.0
H152 H 0.50268 0.61432 0.12812 0.0
H153 H 0.51064 0.68841 0.09733 0.0
H154 H 0.49299 0.38757 0.03796 0.0
H155 H 0.63622 0.4855 0.11531 0.0
H156 H 0.46272 0.32192 0.07898 0.0
H157 H 0.5706 0.71571 0.05521 0.0
H158 H 0.63779 0.70212 0.02937 0.0
H159 H 0.39195 0.55477 0.9715 0.0
H160 H 0.71576 0.58011 0.05163 0.0
H161 H 0.70276 0.50692 0.08733 0.0
H162 H 0.33479 0.361 0.11733 0.0
H163 H 0.6907 0.65288 0.02833 0.0
H164 H 0.29385 0.50125 0.05205 0.0
H165 H 0.32423 0.56083 0.99584 0.0
N166 N 0.40259 0.49443 0.02022 0.0
C167 C 0.38513 0.46042 0.04714 0.0
C168 C 0.38024 0.52942 0.999 0.0
C169 C 0.32423 0.49887 0.04306 0.0
C170 C 0.34131 0.53261 1.01151 0.0
C171 C 0.34562 0.46179 0.05976 0.0
H172 H 0.29806 0.42647 0.09725 0.0
N173 N 0.44365 0.42319 0.04575 0.0
C174 C 0.40579 0.42351 0.05884 0.0
C175 C 0.40856 0.35019 0.09059 0.0
C176 C 0.38758 0.38706 0.08289 0.0
C177 C 0.46362 0.38733 0.05088 0.0
C178 C 0.44655 0.3503 0.07391 0.0
O179 O 0.56472 0.53316 0.03366 0.0
O180 O 0.50365 0.54407 0.97611 0.0
O181 O 0.48556 0.45763 0.94274 0.0
O182 O 0.42755 0.48741 0.93018 0.0
O183 O 0.48439 0.55267 0.09839 0.0
O184 O 0.4633 0.55296 1.00685 0.0
O185 O 0.47932 0.45376 0.09674 0.0
O186 O 0.48689 0.50749 0.13728 0.0
O187 O 0.56869 0.54894 0.19512 0.0
O188 O 0.57345 0.48455 0.19385 0.0
O189 O 0.53341 0.46203 0.02045 0.0
O190 O 0.55864 0.46341 0.11094 0.0
C191 C 0.54304 0.54936 0.98573 0.0
C192 C 0.46271 0.5683 0.05022 0.0
C193 C 0.45624 0.48541 0.85114 0.0
C194 C 0.44765 0.47877 0.75562 0.0
C195 C 0.47821 0.53939 0.78067 0.0
C196 C 0.47358 0.52364 0.83545 0.0
C197 C 0.46536 0.51723 0.74096 0.0
C198 C 0.4433 0.46301 0.81123 0.0
C199 C 0.45211 0.46837 0.9091 0.0
C200 C 0.34902 0.38858 0.09787 0.0
C201 C 0.32817 0.4259 0.08659 0.0
H202 H 0.39554 0.3215 0.10881 0.0
C203 C 0.47435 0.47049 0.13742 0.0
C204 C 0.55856 0.44916 0.0665 0.0
C205 C 0.59639 0.50149 0.28191 0.0
C206 C 0.61089 0.5178 0.37256 0.0
C207 C 0.6255 0.44998 0.36196 0.0
C208 C 0.61107 0.46166 0.30584 0.0
C209 C 0.6253 0.47768 0.39515 0.0
C210 C 0.59677 0.52973 0.31548 0.0
C211 C 0.57883 0.51207 0.22282 0.0
H212 H 0.4916 0.56895 0.76876 0.0
H213 H 0.48338 0.5411 0.86573 0.0
H214 H 0.46867 0.53055 0.69861 0.0
H215 H 0.43029 0.43319 0.82365 0.0
H216 H 0.63678 0.41922 0.37988 0.0
H217 H 0.61119 0.43928 0.28125 0.0
H218 H 0.63702 0.46783 0.43856 0.0
H219 H 0.58524 0.56045 0.29766 0.0
C220 C 0.25826 0.20062 0.50251 0.0
C221 C 0.24819 0.24162 0.4796 0.0
C222 C 0.22796 0.17148 0.51264 0.0
C223 C 0.18674 0.18402 0.50049 0.0
C224 C 0.1766 0.22567 0.47747 0.0
C225 C 0.20756 0.25397 0.46692 0.0
C226 C 0.24003 0.12734 0.5363 0.0
C227 C 0.13313 0.24037 0.46464 0.0
C228 C 0.10619 0.1053 0.47982 0.0
C229 C 0.09366 0.09431 0.53171 0.0
C230 C 0.13656 0.13419 0.46928 0.0
C231 C 0.15425 0.15347 0.51118 0.0
C232 C 0.14119 0.1432 0.56334 0.0
C233 C 0.11141 0.11338 0.57319 0.0
C234 C 0.15005 0.14371 0.41342 0.0
C235 C 0.15878 0.16361 0.60879 0.0
H236 H 0.2899 0.19156 0.51246 0.0
H237 H 0.20026 0.28595 0.44973 0.0
H238 H 0.22945 0.11649 0.5766 0.0
H239 H 0.22531 0.10823 0.50869 0.0
H240 H 0.27331 0.12249 0.54213 0.0
H241 H 0.13042 0.27386 0.448 0.0
H242 H 0.11582 0.225 0.43417 0.0
H243 H 0.11876 0.2323 0.5024 0.0
H244 H 0.09248 0.09099 0.44732 0.0
H245 H 0.1022 0.10484 0.61352 0.0
H246 H 0.18295 0.13729 0.41799 0.0
H247 H 0.14514 0.17655 0.39376 0.0
H248 H 0.13361 0.12563 0.38552 0.0
H249 H 0.19168 0.1568 0.62016 0.0
H250 H 0.14416 0.15349 0.64616 0.0
H251 H 0.15518 0.19718 0.59434 0.0
C252 C 0.32387 0.75771 0.05032 0.0
C253 C 0.28288 0.74902 0.03859 0.0
C254 C 0.35367 0.72862 0.05227 0.0
C255 C 0.34186 0.69012 0.04206 0.0
C256 C 0.30023 0.68117 0.03082 0.0
C257 C 0.27115 0.7109 0.02923 0.0
C258 C 0.39772 0.73915 0.0647 0.0
C259 C 0.2865 0.6405 0.01973 0.0
C260 C 0.41854 0.62781 0.99807 0.0
C261 C 0.43236 0.60005 0.04763 0.0
C262 C 0.38896 0.65734 0.99555 0.0
C263 C 0.37307 0.65905 0.0438 0.0
C264 C 0.38709 0.63114 0.09395 0.0
C265 C 0.41657 0.60199 0.09525 0.0
C266 C 0.37466 0.68664 0.94134 0.0
C267 C 0.37078 0.63189 0.14621 0.0
H268 H 0.33239 0.78754 0.05715 0.0
H269 H 0.23919 0.70481 0.01984 0.0
H270 H 0.41269 0.71696 0.10158 0.0
H271 H 0.41348 0.73704 0.02989 0.0
H272 H 0.40176 0.77032 0.0721 0.0
H273 H 0.25302 0.63783 0.0139 0.0
H274 H 0.29749 0.63624 0.98217 0.0
H275 H 0.29966 0.61538 0.05427 0.0
H276 H 0.43086 0.62639 0.9613 0.0
H277 H 0.42688 0.58029 0.13359 0.0
H278 H 0.3803 0.71845 0.94532 0.0
H279 H 0.34155 0.68374 0.92966 0.0
H280 H 0.39004 0.68123 0.90765 0.0
H281 H 0.37604 0.66214 0.15613 0.0
H282 H 0.38504 0.60811 0.18185 0.0
H283 H 0.33761 0.62713 0.14042 0.0
C284 C 0.76352 0.81157 0.63366 0.0
C285 C 0.77241 0.77037 0.63936 0.0
C286 C 0.79298 0.84144 0.62232 0.0
C287 C 0.83246 0.82954 0.61775 0.0
C288 C 0.84167 0.78766 0.62467 0.0
C289 C 0.8113 0.75858 0.63479 0.0
C290 C 0.7817 0.88575 0.61432 0.0
C291 C 0.88353 0.77359 0.62133 0.0
C292 C 0.89974 0.90748 0.54006 0.0
C293 C 0.92304 0.92138 0.58301 0.0
C294 C 0.86992 0.87783 0.55071 0.0
C295 C 0.86407 0.86093 0.60572 0.0
C296 C 0.8882 0.87431 0.64927 0.0
C297 C 0.917 0.90473 0.63733 0.0
C298 C 0.84425 0.86505 0.50304 0.0
C299 C 0.88369 0.85639 0.70854 0.0
H300 H 0.73316 0.8203 0.63686 0.0
H301 H 0.81776 0.72653 0.63922 0.0
H302 H 0.80119 0.89932 0.64499 0.0
H303 H 0.78692 0.90295 0.57296 0.0
H304 H 0.74955 0.88994 0.61836 0.0
H305 H 0.88612 0.73986 0.62972 0.0
H306 H 0.89134 0.78667 0.57981 0.0
H307 H 0.90621 0.7847 0.65134 0.0
H308 H 0.90419 0.92049 0.49801 0.0
H309 H 0.93529 0.91509 0.67073 0.0
H310 H 0.81182 0.87094 0.50354 0.0
H311 H 0.8479 0.83184 0.507 0.0
H312 H 0.8522 0.8815 0.4627 0.0
H313 H 0.85271 0.8625 0.71548 0.0
H314 H 0.90581 0.86904 0.73768 0.0
H315 H 0.88792 0.8228 0.71811 0.0
C316 C 0.69866 0.26171 0.06029 0.0
C317 C 0.73953 0.27125 0.07087 0.0
C318 C 0.66845 0.29022 0.05922 0.0
C319 C 0.67973 0.32925 0.06799 0.0
C320 C 0.72121 0.33918 0.07738 0.0
C321 C 0.75067 0.30977 0.07931 0.0
C322 C 0.62458 0.27832 0.04997 0.0
C323 C 0.73444 0.38069 0.08583 0.0
C324 C 0.60195 0.41508 0.01802 0.0
C325 C 0.58927 0.41823 0.06725 0.0
C326 C 0.63153 0.3864 0.01771 0.0
C327 C 0.64821 0.35967 0.06771 0.0
C328 C 0.63521 0.36242 0.11752 0.0
C329 C 0.60618 0.39203 0.11677 0.0
C330 C 0.64529 0.38505 0.96398 0.0
C331 C 0.65186 0.33398 0.17152 0.0
H332 H 0.69056 0.23154 0.05445 0.0
H333 H 0.78253 0.31658 0.0877 0.0
H334 H 0.61008 0.28062 0.0858 0.0
H335 H 0.60809 0.29961 0.01337 0.0
H336 H 0.62095 0.24677 0.04387 0.0
H337 H 0.76784 0.38402 0.09033 0.0
H338 H 0.72039 0.40479 0.05053 0.0
H339 H 0.72403 0.38601 0.12323 0.0
H340 H 0.5893 0.43563 0.97968 0.0
H341 H 0.59628 0.39429 0.15485 0.0
H342 H 0.63972 0.35447 0.95526 0.0
H343 H 0.67836 0.3903 0.96695 0.0
H344 H 0.62955 0.40825 0.92879 0.0
H345 H 0.64679 0.30187 0.1686 0.0
H346 H 0.63769 0.3393 0.20628 0.0
H347 H 0.68502 0.33796 0.18088 0.0
C348 C 0.19803 0.87644 0.09891 0.0
C349 C 0.18612 0.84095 0.08145 0.0
C350 C 0.18001 0.88802 0.13992 0.0
C351 C 0.1496 0.86326 0.16379 0.0
C352 C 0.13568 0.82894 0.14317 0.0
C353 C 0.15439 0.81807 0.10253 0.0
C354 C 0.19567 0.92486 0.16055 0.0
C355 C 0.10322 0.80179 0.16698 0.0
C356 C 0.14127 0.84999 0.31481 0.0
C357 C 0.1058 0.87206 0.31251 0.0
C358 C 0.15678 0.84854 0.26679 0.0
C359 C 0.13621 0.8695 0.21495 0.0
C360 C 0.10128 0.89323 0.21244 0.0
C361 C 0.08653 0.89434 0.26134 0.0
C362 C 0.19439 0.82322 0.27148 0.0
C363 C 0.07847 0.91591 0.15804 0.0
H364 H 0.22312 0.89355 0.08295 0.0
H365 H 0.14584 0.79032 0.08915 0.0
H366 H 0.1703 0.9434 0.16599 0.0
H367 H 0.21474 0.91474 0.20133 0.0
H368 H 0.21422 0.9444 0.13214 0.0
H369 H 0.09243 0.77945 0.14197 0.0
H370 H 0.11539 0.78473 0.20925 0.0
H371 H 0.07701 0.82028 0.16991 0.0
H372 H 0.15664 0.83328 0.35433 0.0
H373 H 0.059 0.91133 0.25932 0.0
H374 H 0.21714 0.84164 0.24919 0.0
H375 H 0.18672 0.7971 0.25211 0.0
H376 H 0.20836 0.81115 0.31492 0.0
H377 H 0.09955 0.93406 0.13236 0.0
H378 H 0.05477 0.9366 0.16331 0.0
H379 H 0.06375 0.89374 0.13515 0.0
C380 C 0.66085 0.63534 0.72904 0.0
C381 C 0.66949 0.67697 0.72303 0.0
C382 C 0.63729 0.61505 0.7685 0.0
C383 C 0.62482 0.63588 0.80605 0.0
C384 C 0.63377 0.67771 0.80059 0.0
C385 C 0.654 0.69803 0.75752 0.0
C386 C 0.62643 0.57106 0.77066 0.0
C387 C 0.62345 0.70078 0.84143 0.0
C388 C 0.54183 0.59632 0.89218 0.0
C389 C 0.5639 0.57211 0.94003 0.0
C390 C 0.56101 0.61611 0.84761 0.0
C391 C 0.60368 0.6137 0.85208 0.0
C392 C 0.62629 0.59062 0.90114 0.0
C393 C 0.60606 0.56935 0.94372 0.0
C394 C 0.5355 0.63901 0.79539 0.0
C395 C 0.67198 0.58935 0.90953 0.0
H396 H 0.67315 0.61812 0.70407 0.0
H397 H 0.65887 0.73046 0.75199 0.0
H398 H 0.64391 0.55116 0.80774 0.0
H399 H 0.59381 0.56636 0.77368 0.0
H400 H 0.63299 0.5612 0.73383 0.0
H401 H 0.63692 0.73164 0.83527 0.0
H402 H 0.59021 0.70424 0.8376 0.0
H403 H 0.6345 0.68363 0.88408 0.0
H404 H 0.50939 0.59968 0.88931 0.0
H405 H 0.62343 0.55042 0.97996 0.0
H406 H 0.54245 0.62773 0.75984 0.0
H407 H 0.54269 0.67187 0.78749 0.0
H408 H 0.50258 0.63574 0.79719 0.0
H409 H 0.6832 0.58131 0.87428 0.0
H410 H 0.68489 0.56713 0.94773 0.0
H411 H 0.68361 0.62006 0.91206 0.0
C412 C 0.8746 0.18774 0.19311 0.0
C413 C 0.84999 0.1709 0.1541 0.0
C414 C 0.89685 0.16283 0.23993 0.0
C415 C 0.89626 0.12002 0.24626 0.0
C416 C 0.87475 0.10306 0.20405 0.0
C417 C 0.85111 0.12873 0.15884 0.0
C418 C 0.91863 0.18223 0.28435 0.0
C419 C 0.87483 0.05773 0.20809 0.0
C420 C 0.97525 0.06551 0.36294 0.0
C421 C 0.95237 0.05446 0.40613 0.0
C422 C 0.95692 0.08438 0.3095 0.0
C423 C 0.91496 0.0934 0.2994 0.0
C424 C 0.89143 0.08042 0.34213 0.0
C425 C 0.91035 0.06035 0.39462 0.0
C426 C 0.98273 0.09603 0.26443 0.0
C427 C 0.84665 0.08985 0.33348 0.0
H428 H 0.87447 0.22049 0.18842 0.0
H429 H 0.83209 0.11569 0.12863 0.0
H430 H 0.90519 0.17165 0.32261 0.0
H431 H 0.95096 0.17283 0.29401 0.0
H432 H 0.91677 0.21605 0.27244 0.0
H433 H 0.86344 0.05035 0.16785 0.0
H434 H 0.90578 0.04467 0.22297 0.0
H435 H 0.85513 0.04267 0.23816 0.0
H436 H 0.0077 0.06027 0.371 0.0
H437 H 0.89226 0.05011 0.42697 0.0
H438 H 0.98723 0.12946 0.25495 0.0
H439 H 0.96748 0.08799 0.22617 0.0
H440 H 0.01294 0.08079 0.27639 0.0
H441 H 0.84216 0.12297 0.3296 0.0
H442 H 0.8318 0.07279 0.36811 0.0
H443 H 0.83123 0.08244 0.29496 0.0
C444 C 0.38067 0.32411 0.56291 0.0
C445 C 0.35252 0.34179 0.51704 0.0
C446 C 0.39981 0.34748 0.59851 0.0
C447 C 0.39046 0.38961 0.58782 0.0
C448 C 0.36404 0.4081 0.5393 0.0
C449 C 0.34532 0.38385 0.50439 0.0
C450 C 0.42797 0.32653 0.64939 0.0
C451 C 0.35353 0.45293 0.52612 0.0
C452 C 0.39628 0.43525 0.71297 0.0
C453 C 0.4333 0.45565 0.71275 0.0
C454 C 0.38194 0.41403 0.67227 0.0
C455 C 0.40511 0.41315 0.6301 0.0
C456 C 0.44247 0.43372 0.62948 0.0
C457 C 0.45614 0.45464 0.67082 0.0
C458 C 0.34191 0.39248 0.67443 0.0
C459 C 0.46812 0.43336 0.5854 0.0
H460 H 0.38614 0.29151 0.57218 0.0
H461 H 0.32328 0.39723 0.46896 0.0
H462 H 0.45652 0.34369 0.65385 0.0
H463 H 0.41357 0.32575 0.68632 0.0
H464 H 0.43541 0.29476 0.6486 0.0
H465 H 0.3366 0.46349 0.4839 0.0
H466 H 0.3346 0.45891 0.55589 0.0
H467 H 0.38134 0.47125 0.53018 0.0
H468 H 0.37811 0.43638 0.74459 0.0
H469 H 0.48503 0.46988 0.67065 0.0
H470 H 0.34638 0.35941 0.678 0.0
H471 H 0.32089 0.40433 0.63575 0.0
H472 H 0.3274 0.39639 0.70961 0.0
H473 H 0.47744 0.40162 0.58742 0.0
H474 H 0.49573 0.45205 0.58957 0.0
H475 H 0.45028 0.4451 0.54411 0.0
C476 C 0.63463 0.67289 0.57759 0.0
C477 C 0.67393 0.66472 0.60608 0.0
C478 C 0.61764 0.64954 0.54032 0.0
C479 C 0.64083 0.61767 0.53135 0.0
C480 C 0.67981 0.60819 0.56246 0.0
C481 C 0.69588 0.63198 0.59917 0.0
C482 C 0.57594 0.66049 0.50832 0.0
C483 C 0.7056 0.57442 0.55469 0.0
C484 C 0.59912 0.53413 0.4609 0.0
C485 C 0.61192 0.54671 0.40929 0.0
C486 C 0.60582 0.55822 0.49988 0.0
C487 C 0.62609 0.59574 0.48717 0.0
C488 C 0.63676 0.60979 0.43387 0.0
C489 C 0.62941 0.58516 0.39548 0.0
C490 C 0.5934 0.54233 0.5558 0.0
C491 C 0.65836 0.64965 0.41855 0.0
H492 H 0.61822 0.69888 0.58227 0.0
H493 H 0.72658 0.62647 0.62071 0.0
H494 H 0.57847 0.67504 0.46491 0.0
H495 H 0.55749 0.63273 0.50823 0.0
H496 H 0.5598 0.68194 0.52537 0.0
H497 H 0.73409 0.56931 0.58458 0.0
H498 H 0.68856 0.54552 0.55928 0.0
H499 H 0.71348 0.58211 0.51247 0.0
H500 H 0.58498 0.50469 0.47148 0.0
H501 H 0.63947 0.59499 0.35579 0.0
H502 H 0.57791 0.5666 0.56839 0.0
H503 H 0.62076 0.53278 0.58679 0.0
H504 H 0.57301 0.51578 0.55661 0.0
H505 H 0.64228 0.67451 0.42907 0.0
H506 H 0.66087 0.65823 0.37405 0.0
H507 H 0.6893 0.64716 0.44249 0.0
C508 C 0.87702 0.17811 0.03464 0.0
C509 C 0.83488 0.1756 0.03055 0.0
C510 C 0.89811 0.15897 1.00321 0.0
C511 C 0.87635 0.13719 0.96653 0.0
C512 C 0.83379 0.13395 0.96323 0.0
C513 C 0.81365 0.15297 0.99561 0.0
C514 C 0.94353 0.16265 1.00851 0.0
C515 C 0.80942 0.11104 0.92476 0.0
C516 C 0.92332 0.12209 0.84451 0.0
C517 C 0.93699 0.08146 0.86237 0.0
C518 C 0.90373 0.14065 0.87807 0.0
C519 C 0.89789 0.1182 0.931 0.0
C520 C 0.91176 0.0773 0.94942 0.0
C521 C 0.93083 0.05938 0.91482 0.0
C522 C 0.8891 0.18428 0.8568 0.0
C523 C 0.9062 0.05235 1.0056 0.0
H524 H 0.89328 0.19585 0.06152 0.0
H525 H 0.78109 0.15064 0.99327 0.0
H526 H 0.95786 0.13193 0.01877 0.0
H527 H 0.95205 0.17922 0.96864 0.0
H528 H 0.95607 0.17905 0.04066 0.0
H529 H 0.7766 0.11102 0.9276 0.0
H530 H 0.81348 0.12503 0.8817 0.0
H531 H 0.82038 0.07902 0.93417 0.0
H532 H 0.92834 0.13961 0.80445 0.0
H533 H 0.94049 0.02775 0.92874 0.0
H534 H 0.90347 0.20326 0.88478 0.0
H535 H 0.85592 0.18598 0.85604 0.0
H536 H 0.89594 0.19755 0.81474 0.0
H537 H 0.91984 0.06816 0.03784 0.0
H538 H 0.92013 0.02146 0.01464 0.0
H539 H 0.87348 0.04905 1.00847 0.0
C540 C 0.38717 0.34388 0.40617 0.0
C541 C 0.34488 0.34215 0.39492 0.0
C542 C 0.40966 0.36582 0.36655 0.0
C543 C 0.38944 0.38551 0.3138 0.0
C544 C 0.34668 0.38427 0.30254 0.0
C545 C 0.32494 0.3633 0.34357 0.0
C546 C 0.4551 0.36728 0.38077 0.0
C547 C 0.32393 0.40411 0.24662 0.0
C548 C 0.44008 0.46944 0.21913 0.0
C549 C 0.45401 0.44824 0.18367 0.0
C550 C 0.41999 0.44926 0.26245 0.0
C551 C 0.41291 0.40691 0.27004 0.0
C552 C 0.42744 0.38523 0.23491 0.0
C553 C 0.44841 0.40605 0.19285 0.0
C554 C 0.40601 0.47338 0.29981 0.0
C555 C 0.41991 0.34023 0.24072 0.0
H556 H 0.40273 0.32726 0.44556 0.0
H557 H 0.29222 0.36283 0.33522 0.0
H558 H 0.46955 0.35114 0.35492 0.0
H559 H 0.46537 0.39934 0.37186 0.0
H560 H 0.46591 0.35301 0.42473 0.0
H561 H 0.29063 0.40105 0.24478 0.0
H562 H 0.33122 0.43695 0.23558 0.0
H563 H 0.3335 0.38991 0.21505 0.0
H564 H 0.44455 0.50204 0.21282 0.0
H565 H 0.46036 0.38924 0.16703 0.0
H566 H 0.41783 0.45909 0.34338 0.0
H567 H 0.3725 0.47315 0.29547 0.0
H568 H 0.41603 0.50555 0.29053 0.0
H569 H 0.4288 0.32332 0.28399 0.0
H570 H 0.4367 0.32703 0.21407 0.0
H571 H 0.38708 0.33536 0.22925 0.0
C572 C 0.2048 0.88715 0.91335 0.0
C573 C 0.18645 0.86373 0.95627 0.0
C574 C 0.18155 0.91005 0.86575 0.0
C575 C 0.13914 0.91267 0.86323 0.0
C576 C 0.12112 0.8938 0.90981 0.0
C577 C 0.1448 0.86831 0.95516 0.0
C578 C 0.20209 0.92864 0.81675 0.0
C579 C 0.07654 0.89896 0.91054 0.0
C580 C 0.08771 0.98922 0.7374 0.0
C581 C 0.07019 0.96345 0.70404 0.0
C582 C 0.10809 0.97325 0.79078 0.0
C583 C 0.11349 0.93053 0.80981 0.0
C584 C 0.09642 0.90444 0.77593 0.0
C585 C 0.07385 0.92121 0.72441 0.0
C586 C 0.12384 0.00241 0.82612 0.0
C587 C 0.10333 0.85883 0.79305 0.0
H588 H 0.23726 0.88496 0.91536 0.0
H589 H 0.13031 0.85051 0.98811 0.0
H590 H 0.18812 0.91723 0.7804 0.0
H591 H 0.19807 0.96219 0.80616 0.0
H592 H 0.23503 0.92149 0.82449 0.0
H593 H 0.06829 0.88665 0.95209 0.0
H594 H 0.06796 0.93174 0.89716 0.0
H595 H 0.05852 0.88306 0.88125 0.0
H596 H 0.08482 0.022 0.72231 0.0
H597 H 0.0592 0.90106 0.7 0.0
H598 H 0.15488 0.01173 0.81874 0.0
H599 H 0.12484 0.98841 0.87058 0.0
H600 H 0.10476 0.03051 0.8154 0.0
H601 H 0.13613 0.85201 0.79715 0.0
H602 H 0.08658 0.84273 0.76298 0.0
H603 H 0.09385 0.8462 0.83363 0.0
loop_
_geom_bond_atom_site_label_1
_geom_bond_atom_site_label_2
_geom_bond_distance
_geom_bond_site_symmetry_2
_ccdc_geom_bond_type
C0 N1 1.317 . S
C0 N2 1.348 1_556 S
C0 C3 1.485 . S
N1 C0 1.317 . S
N1 N5 1.370 1_556 S
N2 C0 1.348 1_554 S
N2 C4 1.346 . S
C3 C0 1.485 . S
C3 H7 0.960 . S
C3 H8 0.961 . S
C3 H9 0.960 . S
C4 N2 1.346 . S
C4 N5 1.307 . S
C4 C6 1.486 . S
N5 N1 1.370 1_554 S
N5 C4 1.307 . S
C6 C4 1.486 . S
C6 H10 0.960 . S
C6 H11 0.960 . S
C6 H12 0.959 . S
H7 C3 0.960 . S
H8 C3 0.961 . S
H9 C3 0.960 . S
H10 C6 0.960 . S
H11 C6 0.960 . S
H12 C6 0.959 . S
C13 N14 1.317 . S
C13 N15 1.348 . S
C13 C16 1.485 . S
N14 C13 1.317 . S
N14 N18 1.370 . S
N15 C13 1.348 . S
N15 C17 1.346 . S
C16 C13 1.485 . S
C16 H20 0.960 . S
C16 H21 0.961 . S
C16 H22 0.960 . S
C17 N15 1.346 . S
C17 N18 1.307 . S
C17 C19 1.486 . S
N18 N14 1.370 . S
N18 C17 1.307 . S
C19 C17 1.486 . S
C19 H23 0.960 . S
C19 H24 0.960 . S
C19 H25 0.959 . S
H20 C16 0.960 . S
H21 C16 0.961 . S
H22 C16 0.960 . S
H23 C19 0.960 . S
H24 C19 0.960 . S
H25 C19 0.959 . S
C26 N27 1.317 . S
C26 N28 1.348 . S
C26 C29 1.485 . S
N27 C26 1.317 . S
N27 N31 1.370 . S
N28 C26 1.348 . S
N28 C30 1.346 . S
C29 C26 1.485 . S
C29 H33 0.960 . S
C29 H34 0.961 . S
C29 H35 0.960 . S
C30 N28 1.346 . S
C30 N31 1.307 . S
C30 C32 1.486 1_554 S
N31 N27 1.370 . S
N31 C30 1.307 . S
C32 C30 1.486 1_556 S
C32 H36 0.960 . S
C32 H37 0.960 . S
C32 H38 0.959 . S
H33 C29 0.960 . S
H34 C29 0.961 . S
H35 C29 0.960 . S
H36 C32 0.960 . S
H37 C32 0.960 . S
H38 C32 0.959 . S
C39 N40 1.317 . S
C39 N41 1.348 . S
C39 C42 1.485 . S
N40 C39 1.317 . S
N40 N44 1.370 . S
N41 C39 1.348 . S
N41 C43 1.346 . S
C42 C39 1.485 . S
C42 H46 0.960 . S
C42 H47 0.961 . S
C42 H48 0.960 . S
C43 N41 1.346 . S
C43 N44 1.307 . S
C43 C45 1.486 . S
N44 N40 1.370 . S
N44 C43 1.307 . S
C45 C43 1.486 . S
C45 H49 0.960 . S
C45 H50 0.960 . S
C45 H51 0.959 . S
H46 C42 0.960 . S
H47 C42 0.961 . S
H48 C42 0.960 . S
H49 C45 0.960 . S
H50 C45 0.960 . S
H51 C45 0.959 . S
C52 C54 1.422 . S
C52 C56 1.415 . S
C52 N58 1.369 . S
C53 C54 1.421 . S
C53 C55 1.417 . S
C53 C65 1.422 . S
C54 C52 1.422 . S
C54 C53 1.421 . S
C54 N64 1.359 . S
C55 C53 1.417 . S
C55 C57 1.329 . S
C55 H74 0.930 . S
C56 C52 1.415 . S
C56 C57 1.437 . S
C56 C60 1.413 . S
C57 C55 1.329 . S
C57 C56 1.437 . S
C57 H79 0.929 . S
N58 C52 1.369 . S
N58 C59 1.338 1_655 S
N58 Gd63 2.622 . S
C59 N58 1.338 1_455 S
C59 C61 1.378 . S
C59 H71 0.929 . S
C60 C56 1.413 . S
C60 C61 1.348 1_655 S
C60 H76 0.931 . S
C61 C59 1.378 . S
C61 C60 1.348 1_455 S
C61 H77 0.930 . S
Gd62 N82 2.622 . S
Gd62 N89 2.570 . S
Gd62 O96 2.353 1_465 S
Gd62 O97 2.468 . S
Gd62 O98 2.427 . S
Gd62 O100 2.388 1_455 S
Gd62 O101 2.386 . S
Gd62 O105 2.307 1_565 S
Gd62 C115 2.805 . S
Gd63 N58 2.622 . S
Gd63 N64 2.570 . S
Gd63 O95 2.386 . S
Gd63 O99 2.307 1_545 S
Gd63 O102 2.353 1_655 S
Gd63 O103 2.468 . S
Gd63 O104 2.427 . S
Gd63 O106 2.388 1_655 S
Gd63 C127 2.805 . S
N64 C54 1.359 . S
N64 Gd63 2.570 . S
N64 C66 1.343 . S
C65 C53 1.422 . S
C65 C67 1.321 . S
C65 H73 0.931 . S
C66 N64 1.343 . S
C66 C67 1.390 . S
C66 H68 0.931 . S
C67 C65 1.321 . S
C67 C66 1.390 . S
C67 H69 0.930 . S
H68 C66 0.931 . S
H69 C67 0.930 . S
H70 C93 0.931 . S
H71 C59 0.929 . S
H72 C94 0.930 . S
H73 C65 0.931 . S
H74 C55 0.930 . S
H75 C84 0.929 1_655 S
H76 C60 0.931 . S
H77 C61 0.930 . S
H78 C116 0.930 . S
H79 C57 0.929 . S
H80 C85 0.931 . S
H81 C86 0.930 1_655 S
N82 Gd62 2.622 . S
N82 C83 1.369 . S
N82 C84 1.338 . S
C83 N82 1.369 . S
C83 C87 1.415 . S
C83 C90 1.422 . S
C84 H75 0.929 1_455 S
C84 N82 1.338 . S
C84 C86 1.378 . S
C85 H80 0.931 . S
C85 C86 1.348 . S
C85 C87 1.413 . S
C86 H81 0.930 1_455 S
C86 C84 1.378 . S
C86 C85 1.348 . S
C87 C83 1.415 . S
C87 C85 1.413 . S
C87 C117 1.437 . S
H88 C117 0.929 . S
N89 Gd62 2.570 . S
N89 C90 1.359 . S
N89 C93 1.343 . S
C90 C83 1.422 . S
C90 N89 1.359 . S
C90 C92 1.421 . S
C91 C92 1.422 . S
C91 C94 1.321 . S
C91 H118 0.931 . S
C92 C90 1.421 . S
C92 C91 1.422 . S
C92 C116 1.417 . S
C93 H70 0.931 . S
C93 N89 1.343 . S
C93 C94 1.390 . S
C94 H72 0.930 . S
C94 C91 1.321 . S
C94 C93 1.390 . S
O95 Gd63 2.386 . S
O95 C107 1.265 . S
O96 Gd62 2.353 1_645 S
O96 C107 1.242 . S
O97 Gd62 2.468 . S
O97 C115 1.263 . S
O98 Gd62 2.427 . S
O98 C115 1.252 . S
O99 Gd63 2.307 1_565 S
O99 C108 1.261 . S
O100 Gd62 2.388 1_655 S
O100 C108 1.252 . S
O101 Gd62 2.386 . S
O101 C119 1.265 . S
O102 Gd63 2.353 1_455 S
O102 C119 1.242 1_545 S
O103 Gd63 2.468 . S
O103 C127 1.263 . S
O104 Gd63 2.427 . S
O104 C127 1.252 . S
O105 Gd62 2.307 1_545 S
O105 C120 1.261 . S
O106 Gd63 2.388 1_455 S
O106 C120 1.252 . S
C107 O95 1.265 . S
C107 O96 1.242 . S
C108 O99 1.261 . S
C108 O100 1.252 . S
C109 C112 1.394 . S
C109 C114 1.370 . S
C109 C115 1.500 . S
C110 C113 1.383 . S
C110 C114 1.395 . S
C111 C112 1.396 . S
C111 C113 1.365 . S
C111 H128 0.929 . S
C112 C109 1.394 . S
C112 C111 1.396 . S
C112 H129 0.930 . S
C113 C110 1.383 . S
C113 C111 1.365 . S
C113 H130 0.931 . S
C114 C109 1.370 . S
C114 C110 1.395 . S
C114 H131 0.930 . S
C115 Gd62 2.805 . S
C115 O97 1.263 . S
C115 O98 1.252 . S
C115 C109 1.500 . S
C116 H78 0.930 . S
C116 C92 1.417 . S
C116 C117 1.329 . S
C117 C87 1.437 . S
C117 H88 0.929 . S
C117 C116 1.329 . S
H118 C91 0.931 . S
C119 O101 1.265 . S
C119 O102 1.242 1_565 S
C120 O105 1.261 . S
C120 O106 1.252 . S
C121 C124 1.394 . S
C121 C126 1.370 . S
C121 C127 1.500 . S
C122 C125 1.383 . S
C122 C126 1.395 . S
C123 C124 1.396 . S
C123 C125 1.365 . S
C123 H132 0.929 . S
C124 C121 1.394 . S
C124 C123 1.396 . S
C124 H133 0.930 . S
C125 C122 1.383 . S
C125 C123 1.365 . S
C125 H134 0.931 . S
C126 C121 1.370 . S
C126 C122 1.395 . S
C126 H135 0.930 . S
C127 Gd63 2.805 . S
C127 O103 1.263 . S
C127 O104 1.252 . S
C127 C121 1.500 . S
H128 C111 0.929 . S
H129 C112 0.930 . S
H130 C113 0.931 . S
H131 C114 0.930 . S
H132 C123 0.929 . S
H133 C124 0.930 . S
H134 C125 0.931 . S
H135 C126 0.930 . S
C136 C138 1.422 . S
C136 C140 1.415 . S
C136 N142 1.369 . S
C137 C138 1.421 . S
C137 C139 1.417 . S
C137 C149 1.422 . S
C138 C136 1.422 . S
C138 C137 1.421 . S
C138 N148 1.359 . S
C139 C137 1.417 . S
C139 C141 1.329 . S
C139 H158 0.930 . S
C140 C136 1.415 . S
C140 C141 1.437 . S
C140 C144 1.413 . S
C141 C139 1.329 . S
C141 C140 1.437 . S
C141 H163 0.929 . S
N142 C136 1.369 . S
N142 C143 1.338 . S
N142 Gd147 2.622 . S
C143 N142 1.338 . S
C143 C145 1.378 . S
C143 H155 0.929 . S
C144 C140 1.413 . S
C144 C145 1.348 . S
C144 H160 0.931 . S
C145 C143 1.378 . S
C145 C144 1.348 . S
C145 H161 0.930 . S
Gd146 N166 2.621 . S
Gd146 N173 2.570 1_556 S
Gd146 O180 2.353 . S
Gd146 O181 2.468 . S
Gd146 O182 2.427 . S
Gd146 O184 2.388 1_556 S
Gd146 O185 2.386 1_556 S
Gd146 O189 2.307 1_556 S
Gd146 C199 2.805 . S
Gd147 N142 2.622 . S
Gd147 N148 2.570 . S
Gd147 O179 2.386 . S
Gd147 O183 2.307 . S
Gd147 O186 2.353 . S
Gd147 O187 2.468 . S
Gd147 O188 2.427 . S
Gd147 O190 2.388 . S
Gd147 C211 2.805 . S
N148 C138 1.359 . S
N148 Gd147 2.570 . S
N148 C150 1.343 . S
C149 C137 1.422 . S
C149 C151 1.321 . S
C149 H157 0.931 . S
C150 N148 1.343 . S
C150 C151 1.390 . S
C150 H152 0.931 . S
C151 C149 1.321 . S
C151 C150 1.390 . S
C151 H153 0.930 . S
H152 C150 0.931 . S
H153 C151 0.930 . S
H154 C177 0.931 . S
H155 C143 0.929 . S
H156 C178 0.930 . S
H157 C149 0.931 . S
H158 C139 0.930 . S
H159 C168 0.929 . S
H160 C144 0.931 . S
H161 C145 0.930 . S
H162 C200 0.930 . S
H163 C141 0.929 . S
H164 C169 0.931 . S
H165 C170 0.930 . S
N166 Gd146 2.621 . S
N166 C167 1.369 1_556 S
N166 C168 1.338 . S
C167 N166 1.369 1_554 S
C167 C171 1.415 . S
C167 C174 1.422 . S
C168 H159 0.929 . S
C168 N166 1.338 . S
C168 C170 1.378 . S
C169 H164 0.931 . S
C169 C170 1.348 1_554 S
C169 C171 1.413 . S
C170 H165 0.930 . S
C170 C168 1.378 . S
C170 C169 1.348 1_556 S
C171 C167 1.415 . S
C171 C169 1.413 . S
C171 C201 1.437 . S
H172 C201 0.929 . S
N173 Gd146 2.570 1_554 S
N173 C174 1.359 . S
N173 C177 1.343 . S
C174 C167 1.422 . S
C174 N173 1.359 . S
C174 C176 1.421 . S
C175 C176 1.422 . S
C175 C178 1.321 . S
C175 H202 0.931 . S
C176 C174 1.421 . S
C176 C175 1.422 . S
C176 C200 1.417 . S
C177 H154 0.931 . S
C177 N173 1.343 . S
C177 C178 1.390 . S
C178 H156 0.930 . S
C178 C175 1.321 . S
C178 C177 1.390 . S
O179 Gd147 2.386 . S
O179 C191 1.265 1_554 S
O180 Gd146 2.353 . S
O180 C191 1.242 . S
O181 Gd146 2.468 . S
O181 C199 1.263 . S
O182 Gd146 2.427 . S
O182 C199 1.252 . S
O183 Gd147 2.307 . S
O183 C192 1.261 . S
O184 Gd146 2.388 1_554 S
O184 C192 1.252 . S
O185 Gd146 2.386 1_554 S
O185 C203 1.265 . S
O186 Gd147 2.353 . S
O186 C203 1.242 . S
O187 Gd147 2.468 . S
O187 C211 1.263 . S
O188 Gd147 2.427 . S
O188 C211 1.252 . S
O189 Gd146 2.307 1_554 S
O189 C204 1.261 . S
O190 Gd147 2.388 . S
O190 C204 1.252 . S
C191 O179 1.265 1_556 S
C191 O180 1.242 . S
C192 O183 1.261 . S
C192 O184 1.252 . S
C193 C196 1.394 . S
C193 C198 1.370 . S
C193 C199 1.500 . S
C194 C197 1.383 . S
C194 C198 1.395 . S
C195 C196 1.396 . S
C195 C197 1.365 . S
C195 H212 0.929 . S
C196 C193 1.394 . S
C196 C195 1.396 . S
C196 H213 0.930 . S
C197 C194 1.383 . S
C197 C195 1.365 . S
C197 H214 0.931 . S
C198 C193 1.370 . S
C198 C194 1.395 . S
C198 H215 0.930 . S
C199 Gd146 2.805 . S
C199 O181 1.263 . S
C199 O182 1.252 . S
C199 C193 1.500 . S
C200 H162 0.930 . S
C200 C176 1.417 . S
C200 C201 1.329 . S
C201 C171 1.437 . S
C201 H172 0.929 . S
C201 C200 1.329 . S
H202 C175 0.931 . S
C203 O185 1.265 . S
C203 O186 1.242 . S
C204 O189 1.261 . S
C204 O190 1.252 . S
C205 C208 1.394 . S
C205 C210 1.370 . S
C205 C211 1.500 . S
C206 C209 1.383 . S
C206 C210 1.395 . S
C207 C208 1.396 . S
C207 C209 1.365 . S
C207 H216 0.929 . S
C208 C205 1.394 . S
C208 C207 1.396 . S
C208 H217 0.930 . S
C209 C206 1.383 . S
C209 C207 1.365 . S
C209 H218 0.931 . S
C210 C205 1.370 . S
C210 C206 1.395 . S
C210 H219 0.930 . S
C211 Gd147 2.805 . S
C211 O187 1.263 . S
C211 O188 1.252 . S
C211 C205 1.500 . S
H212 C195 0.929 . S
H213 C196 0.930 . S
H214 C197 0.931 . S
H215 C198 0.930 . S
H216 C207 0.929 . S
H217 C208 0.930 . S
H218 C209 0.931 . S
H219 C210 0.930 . S
C220 C221 1.391 . S
C220 C222 1.394 . S
C220 H236 0.931 . S
C221 C220 1.391 . S
C221 C225 1.376 . S
C222 C220 1.394 . S
C222 C223 1.369 . S
C222 C226 1.531 . S
C223 C222 1.369 . S
C223 C224 1.410 . S
C223 C231 1.503 . S
C224 C223 1.410 . S
C224 C225 1.392 . S
C224 C227 1.511 . S
C225 C221 1.376 . S
C225 C224 1.392 . S
C225 H237 0.929 . S
C226 C222 1.531 . S
C226 H238 0.960 . S
C226 H239 0.962 . S
C226 H240 0.960 . S
C227 C224 1.511 . S
C227 H241 0.961 . S
C227 H242 0.961 . S
C227 H243 0.961 . S
C228 C229 1.370 . S
C228 C230 1.363 . S
C228 H244 0.931 . S
C229 C228 1.370 . S
C229 C233 1.408 . S
C230 C228 1.363 . S
C230 C231 1.370 . S
C230 C234 1.524 . S
C231 C223 1.503 . S
C231 C230 1.370 . S
C231 C232 1.403 . S
C232 C231 1.403 . S
C232 C233 1.404 . S
C232 C235 1.539 . S
C233 C229 1.408 . S
C233 C232 1.404 . S
C233 H245 0.930 . S
C234 C230 1.524 . S
C234 H246 0.956 . S
C234 H247 0.961 . S
C234 H248 0.961 . S
C235 C232 1.539 . S
C235 H249 0.958 . S
C235 H250 0.961 . S
C235 H251 0.960 . S
H236 C220 0.931 . S
H237 C225 0.929 . S
H238 C226 0.960 . S
H239 C226 0.962 . S
H240 C226 0.960 . S
H241 C227 0.961 . S
H242 C227 0.961 . S
H243 C227 0.961 . S
H244 C228 0.931 . S
H245 C233 0.930 . S
H246 C234 0.956 . S
H247 C234 0.961 . S
H248 C234 0.961 . S
H249 C235 0.958 . S
H250 C235 0.961 . S
H251 C235 0.960 . S
C252 C253 1.391 . S
C252 C254 1.394 . S
C252 H268 0.931 . S
C253 C252 1.391 . S
C253 C257 1.376 . S
C254 C252 1.394 . S
C254 C255 1.369 . S
C254 C258 1.531 . S
C255 C254 1.369 . S
C255 C256 1.410 . S
C255 C263 1.503 . S
C256 C255 1.410 . S
C256 C257 1.392 . S
C256 C259 1.511 . S
C257 C253 1.376 . S
C257 C256 1.392 . S
C257 H269 0.929 . S
C258 C254 1.531 . S
C258 H270 0.960 . S
C258 H271 0.962 . S
C258 H272 0.960 . S
C259 C256 1.511 . S
C259 H273 0.961 1_554 S
C259 H274 0.961 . S
C259 H275 0.961 . S
C260 C261 1.370 . S
C260 C262 1.363 . S
C260 H276 0.931 1_554 S
C261 C260 1.370 . S
C261 C265 1.408 . S
C262 C260 1.363 . S
C262 C263 1.370 . S
C262 C266 1.524 1_554 S
C263 C255 1.503 . S
C263 C262 1.370 . S
C263 C264 1.403 . S
C264 C263 1.403 . S
C264 C265 1.404 . S
C264 C267 1.539 . S
C265 C261 1.408 . S
C265 C264 1.404 . S
C265 H277 0.930 . S
C266 C262 1.524 1_556 S
C266 H278 0.956 . S
C266 H279 0.961 . S
C266 H280 0.961 . S
C267 C264 1.539 . S
C267 H281 0.958 . S
C267 H282 0.961 . S
C267 H283 0.960 . S
H268 C252 0.931 . S
H269 C257 0.929 . S
H270 C258 0.960 . S
H271 C258 0.962 . S
H272 C258 0.960 . S
H273 C259 0.961 1_556 S
H274 C259 0.961 . S
H275 C259 0.961 . S
H276 C260 0.931 1_556 S
H277 C265 0.930 . S
H278 C266 0.956 . S
H279 C266 0.961 . S
H280 C266 0.961 . S
H281 C267 0.958 . S
H282 C267 0.961 . S
H283 C267 0.960 . S
C284 C285 1.391 . S
C284 C286 1.394 . S
C284 H300 0.931 . S
C285 C284 1.391 . S
C285 C289 1.376 . S
C286 C284 1.394 . S
C286 C287 1.369 . S
C286 C290 1.531 . S
C287 C286 1.369 . S
C287 C288 1.410 . S
C287 C295 1.503 . S
C288 C287 1.410 . S
C288 C289 1.392 . S
C288 C291 1.511 . S
C289 C285 1.376 . S
C289 C288 1.392 . S
C289 H301 0.929 . S
C290 C286 1.531 . S
C290 H302 0.960 . S
C290 H303 0.962 . S
C290 H304 0.960 . S
C291 C288 1.511 . S
C291 H305 0.961 . S
C291 H306 0.961 . S
C291 H307 0.961 . S
C292 C293 1.370 . S
C292 C294 1.363 . S
C292 H308 0.931 . S
C293 C292 1.370 . S
C293 C297 1.408 . S
C294 C292 1.363 . S
C294 C295 1.370 . S
C294 C298 1.524 . S
C295 C287 1.503 . S
C295 C294 1.370 . S
C295 C296 1.403 . S
C296 C295 1.403 . S
C296 C297 1.404 . S
C296 C299 1.539 . S
C297 C293 1.408 . S
C297 C296 1.404 . S
C297 H309 0.930 . S
C298 C294 1.524 . S
C298 H310 0.956 . S
C298 H311 0.961 . S
C298 H312 0.961 . S
C299 C296 1.539 . S
C299 H313 0.958 . S
C299 H314 0.961 . S
C299 H315 0.960 . S
H300 C284 0.931 . S
H301 C289 0.929 . S
H302 C290 0.960 . S
H303 C290 0.962 . S
H304 C290 0.960 . S
H305 C291 0.961 . S
H306 C291 0.961 . S
H307 C291 0.961 . S
H308 C292 0.931 . S
H309 C297 0.930 . S
H310 C298 0.956 . S
H311 C298 0.961 . S
H312 C298 0.961 . S
H313 C299 0.958 . S
H314 C299 0.961 . S
H315 C299 0.960 . S
C316 C317 1.391 . S
C316 C318 1.394 . S
C316 H332 0.931 . S
C317 C316 1.391 . S
C317 C321 1.376 . S
C318 C316 1.394 . S
C318 C319 1.369 . S
C318 C322 1.531 . S
C319 C318 1.369 . S
C319 C320 1.410 . S
C319 C327 1.503 . S
C320 C319 1.410 . S
C320 C321 1.392 . S
C320 C323 1.511 . S
C321 C317 1.376 . S
C321 C320 1.392 . S
C321 H333 0.929 . S
C322 C318 1.531 . S
C322 H334 0.960 . S
C322 H335 0.962 1_554 S
C322 H336 0.960 . S
C323 C320 1.511 . S
C323 H337 0.961 . S
C323 H338 0.961 . S
C323 H339 0.961 . S
C324 C325 1.370 . S
C324 C326 1.363 . S
C324 H340 0.931 1_554 S
C325 C324 1.370 . S
C325 C329 1.408 . S
C326 C324 1.363 . S
C326 C327 1.370 . S
C326 C330 1.524 1_554 S
C327 C319 1.503 . S
C327 C326 1.370 . S
C327 C328 1.403 . S
C328 C327 1.403 . S
C328 C329 1.404 . S
C328 C331 1.539 . S
C329 C325 1.408 . S
C329 C328 1.404 . S
C329 H341 0.930 . S
C330 C326 1.524 1_556 S
C330 H342 0.956 . S
C330 H343 0.961 . S
C330 H344 0.961 . S
C331 C328 1.539 . S
C331 H345 0.958 . S
C331 H346 0.961 . S
C331 H347 0.960 . S
H332 C316 0.931 . S
H333 C321 0.929 . S
H334 C322 0.960 . S
H335 C322 0.962 1_556 S
H336 C322 0.960 . S
H337 C323 0.961 . S
H338 C323 0.961 . S
H339 C323 0.961 . S
H340 C324 0.931 1_556 S
H341 C329 0.930 . S
H342 C330 0.956 . S
H343 C330 0.961 . S
H344 C330 0.961 . S
H345 C331 0.958 . S
H346 C331 0.961 . S
H347 C331 0.960 . S
C348 C349 1.391 . S
C348 C350 1.394 . S
C348 H364 0.931 . S
C349 C348 1.391 . S
C349 C353 1.376 . S
C350 C348 1.394 . S
C350 C351 1.369 . S
C350 C354 1.531 . S
C351 C350 1.369 . S
C351 C352 1.410 . S
C351 C359 1.503 . S
C352 C351 1.410 . S
C352 C353 1.392 . S
C352 C355 1.511 . S
C353 C349 1.376 . S
C353 C352 1.392 . S
C353 H365 0.929 . S
C354 C350 1.531 . S
C354 H366 0.960 . S
C354 H367 0.962 . S
C354 H368 0.960 . S
C355 C352 1.511 . S
C355 H369 0.961 . S
C355 H370 0.961 . S
C355 H371 0.961 . S
C356 C357 1.370 . S
C356 C358 1.363 . S
C356 H372 0.931 . S
C357 C356 1.370 . S
C357 C361 1.408 . S
C358 C356 1.363 . S
C358 C359 1.370 . S
C358 C362 1.524 . S
C359 C351 1.503 . S
C359 C358 1.370 . S
C359 C360 1.403 . S
C360 C359 1.403 . S
C360 C361 1.404 . S
C360 C363 1.539 . S
C361 C357 1.408 . S
C361 C360 1.404 . S
C361 H373 0.930 . S
C362 C358 1.524 . S
C362 H374 0.956 . S
C362 H375 0.961 . S
C362 H376 0.961 . S
C363 C360 1.539 . S
C363 H377 0.958 . S
C363 H378 0.961 . S
C363 H379 0.960 . S
H364 C348 0.931 . S
H365 C353 0.929 . S
H366 C354 0.960 . S
H367 C354 0.962 . S
H368 C354 0.960 . S
H369 C355 0.961 . S
H370 C355 0.961 . S
H371 C355 0.961 . S
H372 C356 0.931 . S
H373 C361 0.930 . S
H374 C362 0.956 . S
H375 C362 0.961 . S
H376 C362 0.961 . S
H377 C363 0.958 . S
H378 C363 0.961 . S
H379 C363 0.960 . S
C380 C381 1.391 . S
C380 C382 1.394 . S
C380 H396 0.931 . S
C381 C380 1.391 . S
C381 C385 1.376 . S
C382 C380 1.394 . S
C382 C383 1.369 . S
C382 C386 1.531 . S
C383 C382 1.369 . S
C383 C384 1.410 . S
C383 C391 1.503 . S
C384 C383 1.410 . S
C384 C385 1.392 . S
C384 C387 1.511 . S
C385 C381 1.376 . S
C385 C384 1.392 . S
C385 H397 0.929 . S
C386 C382 1.531 . S
C386 H398 0.960 . S
C386 H399 0.962 . S
C386 H400 0.960 . S
C387 C384 1.511 . S
C387 H401 0.961 . S
C387 H402 0.961 . S
C387 H403 0.961 . S
C388 C389 1.370 . S
C388 C390 1.363 . S
C388 H404 0.931 . S
C389 C388 1.370 . S
C389 C393 1.408 . S
C390 C388 1.363 . S
C390 C391 1.370 . S
C390 C394 1.524 . S
C391 C383 1.503 . S
C391 C390 1.370 . S
C391 C392 1.403 . S
C392 C391 1.403 . S
C392 C393 1.404 . S
C392 C395 1.539 . S
C393 C389 1.408 . S
C393 C392 1.404 . S
C393 H405 0.930 . S
C394 C390 1.524 . S
C394 H406 0.956 . S
C394 H407 0.961 . S
C394 H408 0.961 . S
C395 C392 1.539 . S
C395 H409 0.958 . S
C395 H410 0.961 . S
C395 H411 0.960 . S
H396 C380 0.931 . S
H397 C385 0.929 . S
H398 C386 0.960 . S
H399 C386 0.962 . S
H400 C386 0.960 . S
H401 C387 0.961 . S
H402 C387 0.961 . S
H403 C387 0.961 . S
H404 C388 0.931 . S
H405 C393 0.930 . S
H406 C394 0.956 . S
H407 C394 0.961 . S
H408 C394 0.961 . S
H409 C395 0.958 . S
H410 C395 0.961 . S
H411 C395 0.960 . S
C412 C413 1.391 . S
C412 C414 1.394 . S
C412 H428 0.931 . S
C413 C412 1.391 . S
C413 C417 1.376 . S
C414 C412 1.394 . S
C414 C415 1.369 . S
C414 C418 1.531 . S
C415 C414 1.369 . S
C415 C416 1.410 . S
C415 C423 1.503 . S
C416 C415 1.410 . S
C416 C417 1.392 . S
C416 C419 1.511 . S
C417 C413 1.376 . S
C417 C416 1.392 . S
C417 H429 0.929 . S
C418 C414 1.531 . S
C418 H430 0.960 . S
C418 H431 0.962 . S
C418 H432 0.960 . S
C419 C416 1.511 . S
C419 H433 0.961 . S
C419 H434 0.961 . S
C419 H435 0.961 . S
C420 C421 1.370 . S
C420 C422 1.363 . S
C420 H436 0.931 . S
C421 C420 1.370 . S
C421 C425 1.408 . S
C422 C420 1.363 . S
C422 C423 1.370 . S
C422 C426 1.524 . S
C423 C415 1.503 . S
C423 C422 1.370 . S
C423 C424 1.403 . S
C424 C423 1.403 . S
C424 C425 1.404 . S
C424 C427 1.539 . S
C425 C421 1.408 . S
C425 C424 1.404 . S
C425 H437 0.930 . S
C426 C422 1.524 . S
C426 H438 0.956 . S
C426 H439 0.961 . S
C426 H440 0.961 . S
C427 C424 1.539 . S
C427 H441 0.958 . S
C427 H442 0.961 . S
C427 H443 0.960 . S
H428 C412 0.931 . S
H429 C417 0.929 . S
H430 C418 0.960 . S
H431 C418 0.962 . S
H432 C418 0.960 . S
H433 C419 0.961 . S
H434 C419 0.961 . S
H435 C419 0.961 . S
H436 C420 0.931 . S
H437 C425 0.930 . S
H438 C426 0.956 . S
H439 C426 0.961 . S
H440 C426 0.961 . S
H441 C427 0.958 . S
H442 C427 0.961 . S
H443 C427 0.960 . S
C444 C445 1.391 . S
C444 C446 1.394 . S
C444 H460 0.931 . S
C445 C444 1.391 . S
C445 C449 1.376 . S
C446 C444 1.394 . S
C446 C447 1.369 . S
C446 C450 1.531 . S
C447 C446 1.369 . S
C447 C448 1.410 . S
C447 C455 1.503 . S
C448 C447 1.410 . S
C448 C449 1.392 . S
C448 C451 1.511 . S
C449 C445 1.376 . S
C449 C448 1.392 . S
C449 H461 0.929 . S
C450 C446 1.531 . S
C450 H462 0.960 . S
C450 H463 0.962 . S
C450 H464 0.960 . S
C451 C448 1.511 . S
C451 H465 0.961 . S
C451 H466 0.961 . S
C451 H467 0.961 . S
C452 C453 1.370 . S
C452 C454 1.363 . S
C452 H468 0.931 . S
C453 C452 1.370 . S
C453 C457 1.408 . S
C454 C452 1.363 . S
C454 C455 1.370 . S
C454 C458 1.524 . S
C455 C447 1.503 . S
C455 C454 1.370 . S
C455 C456 1.403 . S
C456 C455 1.403 . S
C456 C457 1.404 . S
C456 C459 1.539 . S
C457 C453 1.408 . S
C457 C456 1.404 . S
C457 H469 0.930 . S
C458 C454 1.524 . S
C458 H470 0.956 . S
C458 H471 0.961 . S
C458 H472 0.961 . S
C459 C456 1.539 . S
C459 H473 0.958 . S
C459 H474 0.961 . S
C459 H475 0.960 . S
H460 C444 0.931 . S
H461 C449 0.929 . S
H462 C450 0.960 . S
H463 C450 0.962 . S
H464 C450 0.960 . S
H465 C451 0.961 . S
H466 C451 0.961 . S
H467 C451 0.961 . S
H468 C452 0.931 . S
H469 C457 0.930 . S
H470 C458 0.956 . S
H471 C458 0.961 . S
H472 C458 0.961 . S
H473 C459 0.958 . S
H474 C459 0.961 . S
H475 C459 0.960 . S
C476 C477 1.391 . S
C476 C478 1.394 . S
C476 H492 0.931 . S
C477 C476 1.391 . S
C477 C481 1.376 . S
C478 C476 1.394 . S
C478 C479 1.369 . S
C478 C482 1.531 . S
C479 C478 1.369 . S
C479 C480 1.410 . S
C479 C487 1.503 . S
C480 C479 1.410 . S
C480 C481 1.392 . S
C480 C483 1.511 . S
C481 C477 1.376 . S
C481 C480 1.392 . S
C481 H493 0.929 . S
C482 C478 1.531 . S
C482 H494 0.960 . S
C482 H495 0.962 . S
C482 H496 0.960 . S
C483 C480 1.511 . S
C483 H497 0.961 . S
C483 H498 0.961 . S
C483 H499 0.961 . S
C484 C485 1.370 . S
C484 C486 1.363 . S
C484 H500 0.931 . S
C485 C484 1.370 . S
C485 C489 1.408 . S
C486 C484 1.363 . S
C486 C487 1.370 . S
C486 C490 1.524 . S
C487 C479 1.503 . S
C487 C486 1.370 . S
C487 C488 1.403 . S
C488 C487 1.403 . S
C488 C489 1.404 . S
C488 C491 1.539 . S
C489 C485 1.408 . S
C489 C488 1.404 . S
C489 H501 0.930 . S
C490 C486 1.524 . S
C490 H502 0.956 . S
C490 H503 0.961 . S
C490 H504 0.961 . S
C491 C488 1.539 . S
C491 H505 0.958 . S
C491 H506 0.961 . S
C491 H507 0.960 . S
H492 C476 0.931 . S
H493 C481 0.929 . S
H494 C482 0.960 . S
H495 C482 0.962 . S
H496 C482 0.960 . S
H497 C483 0.961 . S
H498 C483 0.961 . S
H499 C483 0.961 . S
H500 C484 0.931 . S
H501 C489 0.930 . S
H502 C490 0.956 . S
H503 C490 0.961 . S
H504 C490 0.961 . S
H505 C491 0.958 . S
H506 C491 0.961 . S
H507 C491 0.960 . S
C508 C509 1.391 . S
C508 C510 1.394 1_554 S
C508 H524 0.931 . S
C509 C508 1.391 . S
C509 C513 1.376 1_554 S
C510 C508 1.394 1_556 S
C510 C511 1.369 . S
C510 C514 1.531 1_556 S
C511 C510 1.369 . S
C511 C512 1.410 . S
C511 C519 1.503 . S
C512 C511 1.410 . S
C512 C513 1.392 . S
C512 C515 1.511 . S
C513 C509 1.376 1_556 S
C513 C512 1.392 . S
C513 H525 0.929 . S
C514 C510 1.531 1_554 S
C514 H526 0.960 1_554 S
C514 H527 0.962 1_554 S
C514 H528 0.960 . S
C515 C512 1.511 . S
C515 H529 0.961 . S
C515 H530 0.961 . S
C515 H531 0.961 . S
C516 C517 1.370 . S
C516 C518 1.363 . S
C516 H532 0.931 . S
C517 C516 1.370 . S
C517 C521 1.408 . S
C518 C516 1.363 . S
C518 C519 1.370 . S
C518 C522 1.524 . S
C519 C511 1.503 . S
C519 C518 1.370 . S
C519 C520 1.403 . S
C520 C519 1.403 . S
C520 C521 1.404 . S
C520 C523 1.539 . S
C521 C517 1.408 . S
C521 C520 1.404 . S
C521 H533 0.930 . S
C522 C518 1.524 . S
C522 H534 0.956 . S
C522 H535 0.961 . S
C522 H536 0.961 . S
C523 C520 1.539 . S
C523 H537 0.955 1_545 S
C523 H538 0.961 1_545 S
C523 H539 0.960 . S
H524 C508 0.931 . S
H525 C513 0.929 . S
H526 C514 0.960 1_556 S
H527 C514 0.962 1_556 S
H528 C514 0.960 . S
H529 C515 0.961 . S
H530 C515 0.961 . S
H531 C515 0.961 . S
H532 C516 0.931 . S
H533 C521 0.930 . S
H534 C522 0.956 . S
H535 C522 0.961 . S
H536 C522 0.961 . S
H537 C523 0.955 1_565 S
H538 C523 0.961 1_565 S
H539 C523 0.960 . S
C540 C541 1.391 . S
C540 C542 1.394 . S
C540 H556 0.931 . S
C541 C540 1.391 . S
C541 C545 1.376 . S
C542 C540 1.394 . S
C542 C543 1.369 . S
C542 C546 1.531 . S
C543 C542 1.369 . S
C543 C544 1.410 . S
C543 C551 1.503 . S
C544 C543 1.410 . S
C544 C545 1.392 . S
C544 C547 1.511 . S
C545 C541 1.376 . S
C545 C544 1.392 . S
C545 H557 0.929 . S
C546 C542 1.531 . S
C546 H558 0.960 . S
C546 H559 0.962 . S
C546 H560 0.960 . S
C547 C544 1.511 . S
C547 H561 0.961 . S
C547 H562 0.961 . S
C547 H563 0.961 . S
C548 C549 1.370 . S
C548 C550 1.363 . S
C548 H564 0.931 . S
C549 C548 1.370 . S
C549 C553 1.408 . S
C550 C548 1.363 . S
C550 C551 1.370 . S
C550 C554 1.524 . S
C551 C543 1.503 . S
C551 C550 1.370 . S
C551 C552 1.403 . S
C552 C551 1.403 . S
C552 C553 1.404 . S
C552 C555 1.539 . S
C553 C549 1.408 . S
C553 C552 1.404 . S
C553 H565 0.930 . S
C554 C550 1.524 . S
C554 H566 0.956 . S
C554 H567 0.961 . S
C554 H568 0.961 . S
C555 C552 1.539 . S
C555 H569 0.958 . S
C555 H570 0.961 . S
C555 H571 0.960 . S
H556 C540 0.931 . S
H557 C545 0.929 . S
H558 C546 0.960 . S
H559 C546 0.962 . S
H560 C546 0.960 . S
H561 C547 0.961 . S
H562 C547 0.961 . S
H563 C547 0.961 . S
H564 C548 0.931 . S
H565 C553 0.930 . S
H566 C554 0.956 . S
H567 C554 0.961 . S
H568 C554 0.961 . S
H569 C555 0.958 . S
H570 C555 0.961 . S
H571 C555 0.960 . S
C572 C573 1.391 . S
C572 C574 1.394 . S
C572 H588 0.931 . S
C573 C572 1.391 . S
C573 C577 1.376 . S
C574 C572 1.394 . S
C574 C575 1.369 . S
C574 C578 1.531 . S
C575 C574 1.369 . S
C575 C576 1.410 . S
C575 C583 1.503 . S
C576 C575 1.410 . S
C576 C577 1.392 . S
C576 C579 1.511 . S
C577 C573 1.376 . S
C577 C576 1.392 . S
C577 H589 0.929 . S
C578 C574 1.531 . S
C578 H590 0.960 . S
C578 H591 0.962 . S
C578 H592 0.960 . S
C579 C576 1.511 . S
C579 H593 0.961 . S
C579 H594 0.961 . S
C579 H595 0.961 . S
C580 C581 1.370 . S
C580 C582 1.363 . S
C580 H596 0.931 1_565 S
C581 C580 1.370 . S
C581 C585 1.408 . S
C582 C580 1.363 . S
C582 C583 1.370 . S
C582 C586 1.524 . S
C583 C575 1.503 . S
C583 C582 1.370 . S
C583 C584 1.403 . S
C584 C583 1.403 . S
C584 C585 1.404 . S
C584 C587 1.539 . S
C585 C581 1.408 . S
C585 C584 1.404 . S
C585 H597 0.930 . S
C586 C582 1.524 . S
C586 H598 0.956 . S
C586 H599 0.961 . S
C586 H600 0.961 1_565 S
C587 C584 1.539 . S
C587 H601 0.958 . S
C587 H602 0.961 . S
C587 H603 0.960 . S
H588 C572 0.931 . S
H589 C577 0.929 . S
H590 C578 0.960 . S
H591 C578 0.962 . S
H592 C578 0.960 . S
H593 C579 0.961 . S
H594 C579 0.961 . S
H595 C579 0.961 . S
H596 C580 0.931 1_545 S
H597 C585 0.930 . S
H598 C586 0.956 . S
H599 C586 0.961 . S
H600 C586 0.961 1_545 S
H601 C587 0.958 . S
H602 C587 0.961 . S
H603 C587 0.960 . S
C229 C120 1.654 . S
C221 N41 1.681 . S
C253 N2 1.642 . S
C261 C192 1.632 . S
C285 N15 1.683 . S
C293 C108 1.667 . S
C317 N28 1.625 . S
C325 C204 1.619 . S
C357 C110 1.395 . S
C349 N5 1.601 . S
C389 C191 1.668 . S
C381 N14 1.644 . S
C413 N27 1.566 . S
C421 C107 1.611 . S
C445 N44 1.575 . S
C453 C194 1.437 . S
C485 C206 1.416 . S
C477 N18 1.556 . S
C517 C122 1.423 . S
C509 N31 1.600 . S
C549 C203 1.669 . S
C541 N40 1.658 . S
C573 N1 1.576 . S
C581 C119 1.610 . S
