# Generated by pormake.
# Topology tsx, (6,3)-cn, num edge types: 1
# Building blocks:
#     Node 0, Type 0, BuildingBlock: VOLQOD_clean_sbu_1, # of connection points: 6
#     Node 1, Type 0, BuildingBlock: VOLQOD_clean_sbu_1, # of connection points: 6
#     Node 2, Type 1, BuildingBlock: KAKCAD_clean_linker_0, # of connection points: 3
#     Node 3, Type 1, BuildingBlock: KAKCAD_clean_linker_0, # of connection points: 3
#     Node 4, Type 1, BuildingBlock: KAKCAD_clean_linker_0, # of connection points: 3
#     Node 5, Type 1, BuildingBlock: KAKCAD_clean_linker_0, # of connection points: 3
#     Edge 6, Type (0, 1), BuildingBlock: FUNLAD_clean_linker_0, # of connection points: 2
#     Edge 7, Type (0, 1), BuildingBlock: FUNLAD_clean_linker_0, # of connection points: 2
#     Edge 8, Type (0, 1), BuildingBlock: FUNLAD_clean_linker_0, # of connection points: 2
#     Edge 9, Type (0, 1), BuildingBlock: FUNLAD_clean_linker_0, # of connection points: 2
#     Edge 10, Type (0, 1), BuildingBlock: FUNLAD_clean_linker_0, # of connection points: 2
#     Edge 11, Type (0, 1), BuildingBlock: FUNLAD_clean_linker_0, # of connection points: 2
#     Edge 12, Type (0, 1), BuildingBlock: FUNLAD_clean_linker_0, # of connection points: 2
#     Edge 13, Type (0, 1), BuildingBlock: FUNLAD_clean_linker_0, # of connection points: 2
#     Edge 14, Type (0, 1), BuildingBlock: FUNLAD_clean_linker_0, # of connection points: 2
#     Edge 15, Type (0, 1), BuildingBlock: FUNLAD_clean_linker_0, # of connection points: 2
#     Edge 16, Type (0, 1), BuildingBlock: FUNLAD_clean_linker_0, # of connection points: 2
#     Edge 17, Type (0, 1), BuildingBlock: FUNLAD_clean_linker_0, # of connection points: 2
# Relax obj value: 0.075
# Max RMSD: 0.108
# Mean RMSD: 0.083
data_MOF--net-tsx--node1-VOLQOD_clean_sbu_1--node2-KAKCAD_clean_linker_0--edge1-FUNLAD_clean_linker_0
_symmetry_space_group_name_H-M    P1
_symmetry_Int_Tables_number       1
_symmetry_cell_setting            triclinic
loop_
_symmetry_equiv_pos_as_xyz
'x, y, z'
_cell_length_a     28.149122
_cell_length_b     29.130789
_cell_length_c     55.780872
_cell_angle_alpha  90.475942
_cell_angle_beta   89.944268
_cell_angle_gamma 90.257719
loop_
_atom_site_label
_atom_site_type_symbol
_atom_site_fract_x
_atom_site_fract_y
_atom_site_fract_z
_atom_type_partial_charge
O0 O 0.02386 0.9951 0.06867 0.0
Zn1 Zn 0.04383 0.9972 0.03409 0.0
O2 O 0.99062 0.01146 0.01305 0.0
Zn3 Zn 0.9789 0.95946 0.99131 0.0
Zn4 Zn 0.93443 0.02272 0.0327 0.0
Zn5 Zn 0.00528 0.06646 0.99447 0.0
O6 O 0.98332 0.97897 0.95672 0.0
O7 O 0.00612 0.05194 0.95913 0.0
O8 O 0.07288 0.93649 0.02565 0.0
O9 O 0.02777 0.90996 0.99599 0.0
O10 O 0.91468 0.93083 0.99739 0.0
O11 O 0.88412 0.97531 0.02595 0.0
O12 O 0.90665 0.08461 0.02627 0.0
O13 O 0.09526 0.04471 0.03119 0.0
O14 O 0.95587 0.11557 -0.00023 0.0
O15 O 0.06939 0.09262 0.00341 0.0
C16 C 0.98562 0.006 0.07945 0.0
C17 C 0.99576 0.01636 0.94675 0.0
C18 C 0.88102 0.94099 0.01174 0.0
C19 C 0.06278 0.90557 0.01022 0.0
C20 C 0.91882 0.11779 0.01286 0.0
C21 C 0.10097 0.0802 0.01832 0.0
O22 O 0.94914 0.019 0.06793 0.0
O23 O 0.53987 0.49195 0.56332 0.0
Zn24 Zn 0.55685 0.49013 0.52843 0.0
O25 O 0.50174 0.50308 0.50845 0.0
Zn26 Zn 0.48901 0.4505 0.48725 0.0
Zn27 Zn 0.44654 0.5144 0.52899 0.0
Zn28 Zn 0.51497 0.55748 0.48928 0.0
O29 O 0.49327 0.46854 0.45245 0.0
O30 O 0.51497 0.54188 0.45407 0.0
O31 O 0.58338 0.4278 0.52133 0.0
O32 O 0.53685 0.40027 0.49247 0.0
O33 O 0.42449 0.42293 0.49384 0.0
O34 O 0.39636 0.46613 0.52354 0.0
O35 O 0.41721 0.57582 0.52214 0.0
O36 O 0.60879 0.53668 0.52355 0.0
O37 O 0.46517 0.60565 0.4947 0.0
O38 O 0.57857 0.58548 0.4974 0.0
C39 C 0.50224 0.50184 0.57487 0.0
C40 C 0.50498 0.50573 0.44207 0.0
C41 C 0.39208 0.43239 0.50903 0.0
C42 C 0.57191 0.39594 0.50668 0.0
C43 C 0.42864 0.60834 0.50811 0.0
C44 C 0.61222 0.57291 0.51105 0.0
O45 O 0.46401 0.51224 0.56403 0.0
C46 C 0.98639 0.97281 0.31151 0.0
C47 C 0.97375 0.01444 0.30067 0.0
C48 C 0.98999 0.96965 0.33641 0.0
C49 C 0.98179 0.00822 0.35114 0.0
C50 C 0.96921 0.04986 0.34031 0.0
C51 C 0.96485 0.05282 0.31544 0.0
C52 C 0.98675 0.00515 0.37766 0.0
C53 C 0.02227 0.9778 0.38788 0.0
C54 C 0.02738 0.97489 0.41288 0.0
C55 C -0.00309 0.00033 0.4278 0.0
C56 C 0.96186 0.02847 0.41791 0.0
C57 C 0.95657 0.03021 0.39292 0.0
C58 C 0.93166 0.05748 0.4335 0.0
C59 C 0.90821 0.03898 0.45349 0.0
C60 C 0.92587 0.10413 0.4282 0.0
C61 C 0.89677 0.13174 0.44242 0.0
C62 C 0.87256 0.11321 0.46215 0.0
C63 C 0.06543 0.9461 0.42323 0.0
C64 C 0.07502 0.90253 0.41344 0.0
C65 C 0.09329 0.96239 0.44243 0.0
C66 C 0.1306 0.936 0.45131 0.0
C67 C 0.14083 0.8929 0.4411 0.0
C68 C 0.11232 0.87625 0.42226 0.0
C69 C 0.87856 0.06658 0.46761 0.0
H70 H 0.99421 0.94263 0.30078 0.0
H71 H -0.00095 0.93681 0.34408 0.0
H72 H 0.96327 0.08052 0.35098 0.0
H73 H 0.95429 0.0853 0.30784 0.0
H74 H 0.04703 0.95973 0.37635 0.0
H75 H 0.92841 0.05086 0.38542 0.0
H76 H 0.00081 -0.00127 0.44711 0.0
H77 H 0.91205 0.00304 0.45788 0.0
H78 H 0.94393 0.1193 0.41302 0.0
H79 H 0.89235 0.16742 0.43762 0.0
H80 H 0.05363 0.88869 0.39893 0.0
H81 H 0.08712 0.99606 0.45017 0.0
H82 H 0.86036 0.05154 0.48277 0.0
H83 H 0.11878 0.84277 0.41434 0.0
H84 H 0.15225 0.94987 0.46571 0.0
C85 C 0.01113 0.03522 0.71044 0.0
C86 C 0.01774 0.9957 0.72435 0.0
C87 C 0.01535 0.03308 0.68546 0.0
C88 C 0.02614 0.99136 0.6739 0.0
C89 C 0.03391 0.95217 0.68785 0.0
C90 C 0.02982 0.95433 0.71277 0.0
C91 C 0.0274 0.98809 0.64733 0.0
C92 C 0.05009 0.02195 0.63361 0.0
C93 C 0.05095 0.01876 0.60842 0.0
C94 C 0.02831 0.9814 0.59703 0.0
C95 C 0.0056 0.94728 0.61052 0.0
C96 C 0.00532 0.95092 0.63561 0.0
C97 C 0.98123 0.9081 0.59859 0.0
C98 C 0.95065 0.91533 0.57911 0.0
C99 C 0.98672 0.86341 0.60739 0.0
C100 C 0.96091 0.82693 0.59749 0.0
C101 C 0.92884 0.83435 0.57863 0.0
C102 C 0.07631 0.05391 0.59405 0.0
C103 C 0.0729 0.10075 0.60002 0.0
C104 C 0.10482 0.04074 0.57448 0.0
C105 C 0.12994 0.07358 0.56142 0.0
C106 C 0.12718 0.12036 0.56763 0.0
C107 C 0.09803 0.13361 0.58695 0.0
C108 C 0.92464 0.87881 0.56924 0.0
H109 H 0.00133 0.06752 0.71877 0.0
H110 H 0.00872 0.06374 0.67516 0.0
H111 H 0.04311 0.91972 0.67948 0.0
H112 H 0.03614 0.92349 0.72299 0.0
H113 H 0.06821 0.05011 0.6426 0.0
H114 H 0.98662 0.92533 0.64606 0.0
H115 H 0.02842 0.97876 0.57764 0.0
H116 H 0.94546 0.9495 0.57209 0.0
H117 H 0.01071 0.85673 0.62212 0.0
H118 H 0.96571 0.79293 0.6048 0.0
H119 H 0.05081 0.11204 0.61482 0.0
H120 H 0.10855 0.0049 0.56954 0.0
H121 H 0.89989 0.88578 0.55489 0.0
H122 H 0.09549 0.16932 0.59235 0.0
H123 H 0.15169 0.06229 0.54649 0.0
C124 C 0.50127 0.46699 0.81047 0.0
C125 C 0.49111 0.50604 0.79681 0.0
C126 C 0.50545 0.47036 0.8354 0.0
C127 C 0.49978 0.51291 0.84712 0.0
C128 C 0.4906 0.55207 0.83334 0.0
C129 C 0.48615 0.54864 0.80849 0.0
C130 C 0.50192 0.51639 0.87368 0.0
C131 C 0.5357 0.4917 0.88674 0.0
C132 C 0.53709 0.49454 0.91191 0.0
C133 C 0.50441 0.52274 0.92404 0.0
C134 C 0.47052 0.54772 0.91119 0.0
C135 C 0.46943 0.54415 0.88609 0.0
C136 C 0.43502 0.57675 0.92363 0.0
C137 C 0.40896 0.55982 0.94318 0.0
C138 C 0.42457 0.62054 0.91479 0.0
C139 C 0.38734 0.646 0.92449 0.0
C140 C 0.35964 0.62822 0.94324 0.0
C141 C 0.57243 0.46749 0.9254 0.0
C142 C 0.58037 0.4213 0.91929 0.0
C143 C 0.59893 0.48763 0.9441 0.0
C144 C 0.63327 0.46216 0.9562 0.0
C145 C 0.64134 0.41601 0.94997 0.0
C146 C 0.61438 0.39583 0.93146 0.0
C147 C 0.37152 0.58537 0.95291 0.0
H148 H 0.50489 0.43365 0.80195 0.0
H149 H 0.51194 0.43945 0.84552 0.0
H150 H 0.48695 0.58551 0.84177 0.0
H151 H 0.47917 0.57946 0.79836 0.0
H152 H 0.56155 0.47082 0.87729 0.0
H153 H 0.44215 0.56209 0.87623 0.0
H154 H 0.50511 0.52499 0.94344 0.0
H155 H 0.41612 0.52603 0.95024 0.0
H156 H 0.44468 0.63476 0.90002 0.0
H157 H 0.37975 0.6794 0.91705 0.0
H158 H 0.56016 0.40477 0.90511 0.0
H159 H 0.59371 0.52328 0.94906 0.0
H160 H 0.35068 0.57074 0.96731 0.0
H161 H 0.62019 0.3605 0.92605 0.0
H162 H 0.65338 0.47849 0.97048 0.0
C163 C 0.51333 0.52076 0.20602 0.0
C164 C 0.524 0.4818 0.21969 0.0
C165 C 0.51734 0.51949 0.18105 0.0
C166 C 0.532 0.47921 0.1692 0.0
C167 C 0.5434 0.4405 0.18288 0.0
C168 C 0.53949 0.44179 0.20784 0.0
C169 C 0.53372 0.47705 0.14261 0.0
C170 C 0.55231 0.51378 0.12936 0.0
C171 C 0.55248 0.5124 0.10415 0.0
C172 C 0.53344 0.47388 0.09221 0.0
C173 C 0.51483 0.43693 0.10522 0.0
C174 C 0.51539 0.4386 0.13036 0.0
C175 C 0.49228 0.39754 0.09274 0.0
C176 C 0.45725 0.40494 0.07534 0.0
C177 C 0.50336 0.35241 0.09926 0.0
C178 C 0.4787 0.31536 0.08914 0.0
C179 C 0.44192 0.32273 0.07255 0.0
C180 C 0.57269 0.55114 0.09035 0.0
C181 C 0.56258 0.59667 0.09698 0.0
C182 C 0.60304 0.54287 0.07078 0.0
C183 C 0.62392 0.57942 0.05852 0.0
C184 C 0.61474 0.62501 0.06553 0.0
C185 C 0.58328 0.6332 0.08467 0.0
C186 C 0.43213 0.36796 0.06544 0.0
H187 H 0.50069 0.55192 0.21456 0.0
H188 H 0.50768 0.54967 0.17098 0.0
H189 H 0.55546 0.40918 0.17427 0.0
H190 H 0.54882 0.41146 0.21786 0.0
H191 H 0.56751 0.54313 0.13869 0.0
H192 H 0.49968 0.41065 0.1404 0.0
H193 H 0.5327 0.47278 0.07279 0.0
H194 H 0.44776 0.43949 0.07019 0.0
H195 H 0.53068 0.34587 0.11245 0.0
H196 H 0.48794 0.28098 0.09464 0.0
H197 H 0.53864 0.60407 0.11172 0.0
H198 H 0.61181 0.50811 0.06541 0.0
H199 H 0.40363 0.3751 0.05302 0.0
H200 H 0.5748 0.66792 0.09024 0.0
H201 H 0.64848 0.57189 0.04408 0.0
C202 C 0.17861 0.09629 0.0386 0.0
C203 C 0.14514 0.10755 0.02095 0.0
C204 C 0.21978 0.12254 0.04162 0.0
C205 C 0.2288 0.16061 0.02685 0.0
C206 C 0.19547 0.17159 0.00909 0.0
C207 C 0.15414 0.14539 0.00613 0.0
C208 C 0.27062 0.19144 0.03029 0.0
C209 C 0.30845 0.18127 0.04402 0.0
C210 C 0.34586 0.21545 0.04992 0.0
C211 C 0.3665 0.21455 0.07277 0.0
C212 C 0.39861 0.24864 0.07987 0.0
C213 C 0.41155 0.28397 0.06407 0.0
H214 H 0.34613 0.2502 0.01564 0.0
C215 C 0.3928 0.28334 0.04069 0.0
C216 C 0.36018 0.2495 0.03369 0.0
H217 H 0.40292 0.30929 0.02785 0.0
H218 H 0.17271 0.06752 0.05044 0.0
H219 H 0.24341 0.11322 0.056 0.0
H220 H 0.20118 0.20086 0.99756 0.0
H221 H 0.12915 0.15502 0.99233 0.0
H222 H 0.269 0.22491 0.02188 0.0
H223 H 0.31073 0.14842 0.0529 0.0
H224 H 0.35621 0.18849 0.08554 0.0
H225 H 0.41174 0.2482 0.0981 0.0
C226 C 0.08218 0.82889 0.99209 0.0
C227 C 0.09373 0.8648 0.00805 0.0
C228 C 0.11335 0.79226 0.98861 0.0
C229 C 0.1571 0.7911 0.00081 0.0
C230 C 0.16741 0.82569 0.01768 0.0
C231 C 0.13616 0.86222 0.02125 0.0
C232 C 0.19365 0.75569 0.99572 0.0
C233 C 0.19722 0.7343 0.9743 0.0
C234 C 0.2379 0.70483 0.96724 0.0
C235 C 0.24749 0.69918 0.94272 0.0
C236 C 0.28672 0.67403 0.93504 0.0
C237 C 0.31723 0.65361 0.95173 0.0
H238 H 0.26053 0.68543 0.00305 0.0
C239 C 0.30684 0.65776 0.97629 0.0
C240 C 0.26749 0.68311 0.98402 0.0
H241 H 0.32959 0.64214 0.98955 0.0
H242 H 0.04936 0.82935 0.98197 0.0
H243 H 0.10313 0.76527 0.97619 0.0
H244 H 0.20055 0.82538 0.02755 0.0
H245 H 0.146 0.88907 0.03387 0.0
H246 H 0.22122 0.75112 0.00906 0.0
H247 H 0.17184 0.74219 0.9603 0.0
H248 H 0.22504 0.71502 0.92939 0.0
H249 H 0.29313 0.67051 0.91596 0.0
C250 C 0.83923 0.86675 0.00245 0.0
C251 C 0.83909 0.91032 0.01346 0.0
C252 C 0.8025 0.83542 0.00678 0.0
C253 C 0.76447 0.84726 0.02205 0.0
C254 C 0.76328 0.89168 0.032 0.0
C255 C 0.8001 0.92284 0.02779 0.0
C256 C 0.72821 0.81345 0.03018 0.0
C257 C 0.72247 0.77099 0.02083 0.0
C258 C 0.69191 0.73564 0.03225 0.0
C259 C 0.67387 0.69925 0.01829 0.0
C260 C 0.64789 0.66376 0.02891 0.0
C261 C 0.63984 0.66377 0.0538 0.0
H262 H 0.69853 0.76199 0.06873 0.0
C263 C 0.65781 0.70027 0.06774 0.0
C264 C 0.68364 0.73568 0.05715 0.0
H265 H 0.65336 0.70075 0.08703 0.0
H266 H 0.86879 0.85598 0.99133 0.0
H267 H 0.80554 0.80153 -0.00106 0.0
H268 H 0.73455 0.90188 0.04381 0.0
H269 H 0.79865 0.95625 0.03642 0.0
H270 H 0.70616 0.82381 0.04526 0.0
H271 H 0.74084 0.76113 0.0045 0.0
H272 H 0.68017 0.69811 -0.00087 0.0
H273 H 0.63427 0.63626 0.01765 0.0
C274 C 0.89655 0.19322 0.99473 0.0
C275 C 0.88776 0.15859 0.01158 0.0
C276 C 0.8646 0.22938 0.99196 0.0
C277 C 0.82329 0.23189 0.00619 0.0
C278 C 0.81547 0.19812 0.02356 0.0
C279 C 0.84733 0.16196 0.02629 0.0
C280 C 0.78523 0.26601 0.00185 0.0
C281 C 0.79138 0.30484 0.98926 0.0
C282 C 0.7512 0.33421 0.98163 0.0
C283 C 0.76007 0.38017 0.97562 0.0
C284 C 0.72396 0.40739 0.96615 0.0
C285 C 0.67841 0.3889 0.96221 0.0
H286 H 0.69706 0.28057 0.98191 0.0
C287 C 0.66925 0.34325 0.96871 0.0
C288 C 0.7052 0.31614 0.97822 0.0
H289 H 0.6344 0.32817 0.966 0.0
H290 H 0.92728 0.19161 0.98305 0.0
H291 H 0.87157 0.25391 0.97794 0.0
H292 H 0.7839 0.199 0.03469 0.0
H293 H 0.8395 0.13601 0.03954 0.0
H294 H 0.75031 0.25804 0.00903 0.0
H295 H 0.82684 0.31552 0.98399 0.0
H296 H 0.79527 0.3948 0.97781 0.0
H297 H 0.73218 0.44234 0.96105 0.0
C298 C 0.6944 0.58685 0.52676 0.0
C299 C 0.65536 0.60191 0.5133 0.0
C300 C 0.73371 0.61545 0.53042 0.0
C301 C 0.73459 0.66007 0.52094 0.0
C302 C 0.69661 0.67427 0.50654 0.0
C303 C 0.65734 0.64557 0.50278 0.0
C304 C 0.7737 0.69309 0.52621 0.0
C305 C 0.79991 0.69122 0.54639 0.0
C306 C 0.83484 0.72706 0.55367 0.0
C307 C 0.84612 0.73144 0.57807 0.0
C308 C 0.87707 0.7658 0.58606 0.0
C309 C 0.89793 0.79642 0.56976 0.0
H310 H 0.85017 0.75371 0.51815 0.0
C311 C 0.88776 0.79131 0.54521 0.0
C312 C 0.85666 0.75688 0.5372 0.0
H313 H 0.90399 0.81383 0.53217 0.0
H314 H 0.69445 0.55309 0.53476 0.0
H315 H 0.76311 0.60242 0.54078 0.0
H316 H 0.69661 0.70823 0.49876 0.0
H317 H 0.62805 0.65815 0.49215 0.0
H318 H 0.77769 0.72207 0.51426 0.0
H319 H 0.79269 0.66446 0.55934 0.0
H320 H 0.83004 0.70886 0.59115 0.0
H321 H 0.88362 0.76908 0.60513 0.0
C322 C 0.63743 0.3468 0.52245 0.0
C323 C 0.60065 0.35355 0.50582 0.0
C324 C 0.6664 0.30813 0.52087 0.0
C325 C 0.65954 0.27556 0.50241 0.0
C326 C 0.62146 0.28123 0.4865 0.0
C327 C 0.59237 0.31985 0.48812 0.0
C328 C 0.69229 0.23636 0.49856 0.0
C329 C 0.73831 0.23758 0.50518 0.0
C330 C 0.77328 0.20292 0.49698 0.0
C331 C 0.82047 0.21696 0.49339 0.0
C332 C 0.85329 0.18716 0.48293 0.0
C333 C 0.83969 0.14246 0.47618 0.0
H334 H 0.72467 0.14484 0.49484 0.0
C335 C 0.79335 0.1273 0.48125 0.0
C336 C 0.76036 0.15727 0.49157 0.0
H337 H 0.78201 0.09294 0.47628 0.0
H338 H 0.64425 0.37165 0.5366 0.0
H339 H 0.6942 0.30414 0.53406 0.0
H340 H 0.61506 0.25643 0.47227 0.0
H341 H 0.56408 0.32374 0.47515 0.0
H342 H 0.67945 0.20811 0.48748 0.0
H343 H 0.75236 0.2678 0.51427 0.0
H344 H 0.83151 0.25174 0.49771 0.0
H345 H 0.88905 0.19944 0.47958 0.0
C346 C 0.3466 0.36154 0.49703 0.0
C347 C 0.35018 0.40169 0.5111 0.0
C348 C 0.3098 0.33007 0.50089 0.0
C349 C 0.27593 0.33801 0.51902 0.0
C350 C 0.27792 0.37936 0.53207 0.0
C351 C 0.31471 0.41078 0.52825 0.0
C352 C 0.23924 0.30344 0.52554 0.0
C353 C 0.24567 0.25792 0.52254 0.0
C354 C 0.21321 0.22264 0.53265 0.0
C355 C 0.23154 0.17896 0.53746 0.0
C356 C 0.20341 0.14558 0.54843 0.0
C357 C 0.15604 0.155 0.55466 0.0
H358 H 0.14924 0.26425 0.53388 0.0
C359 C 0.13707 0.19817 0.54905 0.0
C360 C 0.16526 0.23161 0.53808 0.0
H361 H 0.10038 0.2061 0.55314 0.0
H362 H 0.37291 0.35376 0.48343 0.0
H363 H 0.30842 0.29943 0.48982 0.0
H364 H 0.25195 0.38664 0.54592 0.0
H365 H 0.31603 0.44157 0.53925 0.0
H366 H 0.20862 0.31574 0.53549 0.0
H367 H 0.27846 0.24564 0.51453 0.0
H368 H 0.26824 0.17098 0.53336 0.0
H369 H 0.21927 0.11283 0.55266 0.0
C370 C 0.41082 0.68628 0.49191 0.0
C371 C 0.39759 0.64905 0.50637 0.0
C372 C 0.37975 0.72283 0.48845 0.0
C373 C 0.33449 0.72269 0.49918 0.0
C374 C 0.32235 0.68681 0.51469 0.0
C375 C 0.35349 0.65026 0.51822 0.0
C376 C 0.29851 0.75831 0.49387 0.0
C377 C 0.29711 0.78027 0.47272 0.0
C378 C 0.25781 0.81093 0.46544 0.0
C379 C 0.24945 0.81687 0.44087 0.0
C380 C 0.21173 0.8437 0.43304 0.0
C381 C 0.18169 0.86561 0.44963 0.0
H382 H 0.23471 0.8313 0.5012 0.0
C383 C 0.19085 0.86096 0.47425 0.0
C384 C 0.22858 0.8339 0.48212 0.0
H385 H 0.16834 0.87757 0.48744 0.0
H386 H 0.4449 0.68689 0.48288 0.0
H387 H 0.39122 0.75082 0.47717 0.0
H388 H 0.28795 0.68617 0.52342 0.0
H389 H 0.34233 0.62235 0.52966 0.0
H390 H 0.26982 0.7628 0.50668 0.0
H391 H 0.32348 0.77226 0.45911 0.0
H392 H 0.27171 0.80004 0.42763 0.0
H393 H 0.20616 0.84741 0.41394 0.0
C394 C 0.94835 0.02686 0.11882 0.0
C395 C 0.98336 0.00293 0.10586 0.0
C396 C 0.94632 0.02395 0.14379 0.0
C397 C 0.97895 0.99662 0.15623 0.0
C398 C 0.01327 0.97202 0.14327 0.0
C399 C 0.01587 0.97556 0.11835 0.0
C400 C 0.97731 0.99232 0.18264 0.0
C401 C 0.96581 0.02763 0.19717 0.0
C402 C 0.96675 0.02381 0.22361 0.0
C403 C 0.98184 0.06152 0.23742 0.0
C404 C 0.98427 0.05849 0.26236 0.0
C405 C 0.97049 0.01793 0.27409 0.0
H406 H 0.9393 0.95419 0.22503 0.0
C407 C 0.95401 0.98061 0.26017 0.0
C408 C 0.95241 0.98341 0.2352 0.0
H409 H 0.94189 0.94926 0.26854 0.0
H410 H 0.92269 0.04809 0.10968 0.0
H411 H 0.91873 0.04249 0.15326 0.0
H412 H 0.03853 0.95045 0.15248 0.0
H413 H 0.04298 0.95637 0.10884 0.0
H414 H 0.98913 0.96019 0.19036 0.0
H415 H 0.95897 0.0612 0.18958 0.0
H416 H 0.9929 0.09307 0.22884 0.0
H417 H -0.00218 0.08773 0.27236 0.0
C418 C 0.98746 0.97988 0.90602 0.0
C419 C -0.00071 0.01831 0.92025 0.0
C420 C 0.99203 0.98138 0.88108 0.0
C421 C 0.00835 0.02153 0.86978 0.0
C422 C 0.02039 0.05978 0.88401 0.0
C423 C 0.01569 0.05834 0.90893 0.0
C424 C 0.01529 0.02419 0.84339 0.0
C425 C 0.99089 -0.00194 0.82755 0.0
C426 C -0.00163 -0.0009 0.80112 0.0
C427 C 0.98123 0.96209 0.78731 0.0
C428 C 0.98753 0.96104 0.76249 0.0
C429 C 0.01099 0.99718 0.75078 0.0
H430 H 0.03384 0.06562 0.79907 0.0
C431 C 0.02752 0.03466 0.76449 0.0
C432 C 0.02121 0.03574 0.78936 0.0
H433 H 0.0458 0.06303 0.75602 0.0
H434 H 0.97512 0.94835 0.91414 0.0
H435 H 0.98387 0.95061 0.87089 0.0
H436 H 0.03345 0.09099 0.87581 0.0
H437 H 0.02537 0.08854 0.9193 0.0
H438 H 0.0413 0.04887 0.83709 0.0
H439 H 0.96452 0.97393 0.83412 0.0
H440 H 0.96306 0.93362 0.79578 0.0
H441 H 0.97348 0.93207 0.75243 0.0
C442 C 0.46294 0.51353 0.61484 0.0
C443 C 0.50305 0.50071 0.6014 0.0
C444 C 0.46385 0.51226 0.63989 0.0
C445 C 0.50492 0.49772 0.65205 0.0
C446 C 0.545 0.48523 0.63855 0.0
C447 C 0.54412 0.48662 0.61356 0.0
C448 C 0.5084 0.49622 0.67866 0.0
C449 C 0.47098 0.49887 0.69367 0.0
C450 C 0.47628 0.49892 0.72013 0.0
C451 C 0.44313 0.523 0.73411 0.0
C452 C 0.44783 0.52512 0.75901 0.0
C453 C 0.48543 0.50256 0.77046 0.0
H454 H 0.53857 0.45512 0.72148 0.0
C455 C 0.51775 0.47716 0.75655 0.0
C456 C 0.51326 0.47532 0.73162 0.0
H457 H 0.547 0.45934 0.76491 0.0
H458 H 0.43083 0.52488 0.60605 0.0
H459 H 0.43247 0.52343 0.64939 0.0
H460 H 0.57723 0.47418 0.64736 0.0
H461 H 0.57573 0.47652 0.6038 0.0
H462 H 0.54383 0.49309 0.68614 0.0
H463 H 0.43533 0.50297 0.68673 0.0
H464 H 0.41399 0.54095 0.72572 0.0
H465 H 0.4219 0.54429 0.76933 0.0
C466 C 0.49728 0.46753 0.40174 0.0
C467 C 0.50808 0.5068 0.41555 0.0
C468 C 0.50148 0.46824 0.37678 0.0
C469 C 0.51637 0.50843 0.36502 0.0
C470 C 0.52733 0.54753 0.37884 0.0
C471 C 0.52303 0.54686 0.40378 0.0
C472 C 0.52285 0.51045 0.3386 0.0
C473 C 0.49974 0.48267 0.32302 0.0
C474 C 0.50672 0.4838 0.29657 0.0
C475 C 0.49278 0.44532 0.28295 0.0
C476 C 0.49855 0.4446 0.25808 0.0
C477 C 0.51818 0.48257 0.24618 0.0
H478 H 0.53573 0.5531 0.2942 0.0
C479 C 0.53159 0.52138 0.25973 0.0
C480 C 0.5258 0.52213 0.28462 0.0
H481 H 0.54693 0.55117 0.25112 0.0
H482 H 0.48607 0.43596 0.41022 0.0
H483 H 0.49416 0.43688 0.36693 0.0
H484 H 0.53924 0.57882 0.3703 0.0
H485 H 0.53186 0.57771 0.41382 0.0
H486 H 0.54745 0.53617 0.33199 0.0
H487 H 0.47495 0.45724 0.32978 0.0
H488 H 0.4775 0.41551 0.29159 0.0
H489 H 0.48698 0.41448 0.24814 0.0
loop_
_geom_bond_atom_site_label_1
_geom_bond_atom_site_label_2
_geom_bond_distance
_geom_bond_site_symmetry_2
_ccdc_geom_bond_type
O0 Zn1 1.953 . S
O0 C16 1.225 1_565 S
Zn1 O0 1.953 . S
Zn1 O2 1.949 1_565 S
Zn1 O8 1.919 . S
Zn1 O13 1.924 1_565 S
O2 Zn1 1.949 1_545 S
O2 Zn3 1.923 1_444 S
O2 Zn4 1.950 1_455 S
O2 Zn5 1.945 1_554 S
Zn3 O2 1.923 1_666 S
Zn3 O6 1.933 . S
Zn3 O9 1.941 1_655 S
Zn3 O10 1.974 . S
Zn4 O2 1.950 1_655 S
Zn4 O11 1.938 1_545 S
Zn4 O12 1.906 . S
Zn4 O22 1.953 . S
Zn5 O2 1.945 1_556 S
Zn5 O7 1.932 . S
Zn5 O14 1.977 1_455 S
Zn5 O15 1.910 1_556 S
O6 Zn3 1.933 . S
O6 C17 1.226 1_665 S
O7 Zn5 1.932 . S
O7 C17 1.307 . S
O8 Zn1 1.919 . S
O8 C19 1.253 . S
O9 Zn3 1.941 1_455 S
O9 C19 1.283 1_556 S
O10 Zn3 1.974 . S
O10 C18 1.275 1_556 S
O11 Zn4 1.938 1_565 S
O11 C18 1.247 . S
O12 Zn4 1.906 . S
O12 C20 1.304 . S
O13 Zn1 1.924 1_545 S
O13 C21 1.311 . S
O14 Zn5 1.977 1_655 S
O14 C20 1.272 1_556 S
O15 Zn5 1.910 1_554 S
O15 C21 1.231 . S
C16 O0 1.225 1_545 S
C16 O22 1.298 1_455 S
C17 O6 1.226 1_445 S
C17 O7 1.307 . S
C18 O10 1.275 1_554 S
C18 O11 1.247 . S
C19 O8 1.253 . S
C19 O9 1.283 1_554 S
C20 O12 1.304 . S
C20 O14 1.272 1_554 S
C21 O13 1.311 . S
C21 O15 1.231 . S
O22 Zn4 1.953 . S
O22 C16 1.298 1_655 S
O23 Zn24 1.953 . S
O23 C39 1.225 . S
Zn24 O23 1.953 . S
Zn24 O25 1.949 . S
Zn24 O31 1.919 . S
Zn24 O36 1.924 . S
O25 Zn24 1.949 . S
O25 Zn26 1.923 . S
O25 Zn27 1.950 . S
O25 Zn28 1.945 . S
Zn26 O25 1.923 . S
Zn26 O29 1.933 . S
Zn26 O32 1.941 . S
Zn26 O33 1.965 . S
Zn27 O25 1.950 . S
Zn27 O34 1.938 . S
Zn27 O35 1.906 . S
Zn27 O45 1.953 . S
Zn28 O25 1.945 . S
Zn28 O30 1.932 . S
Zn28 O37 1.977 . S
Zn28 O38 1.910 . S
O29 Zn26 1.933 . S
O29 C40 1.226 . S
O30 Zn28 1.932 . S
O30 C40 1.307 . S
O31 Zn24 1.919 . S
O31 C42 1.253 . S
O32 Zn26 1.941 . S
O32 C42 1.283 . S
O33 Zn26 1.965 . S
O33 C41 1.303 . S
O34 Zn27 1.938 . S
O34 C41 1.247 . S
O35 Zn27 1.906 . S
O35 C43 1.304 . S
O36 Zn24 1.924 . S
O36 C44 1.311 . S
O37 Zn28 1.977 . S
O37 C43 1.272 . S
O38 Zn28 1.910 . S
O38 C44 1.231 . S
C39 O23 1.225 . S
C39 O45 1.298 . S
C40 O29 1.226 . S
C40 O30 1.307 . S
C41 O33 1.303 . S
C41 O34 1.247 . S
C42 O31 1.253 . S
C42 O32 1.283 . S
C43 O35 1.304 . S
C43 O37 1.272 . S
C44 O36 1.311 . S
C44 O38 1.231 . S
O45 Zn27 1.953 . S
O45 C39 1.298 . S
C46 C47 1.389 1_455 S
C46 C48 1.397 . S
C46 H70 0.931 . S
C47 C46 1.389 1_655 S
C47 C51 1.394 1_665 S
C48 C46 1.397 . S
C48 C49 1.384 . S
C48 H71 0.930 . S
C49 C48 1.384 . S
C49 C50 1.377 1_565 S
C49 C52 1.481 . S
C50 C49 1.377 1_545 S
C50 C51 1.389 . S
C50 H72 0.929 . S
C51 C47 1.394 1_445 S
C51 C50 1.389 . S
C51 H73 0.931 . S
C52 C49 1.481 . S
C52 C53 1.394 . S
C52 C57 1.383 1_465 S
C53 C52 1.394 . S
C53 C54 1.401 . S
C53 H74 0.930 . S
C54 C53 1.401 . S
C54 C55 1.366 1_455 S
C54 C63 1.511 . S
C55 C54 1.366 1_655 S
C55 C56 1.402 1_565 S
C55 H76 0.932 . S
C56 C55 1.402 1_545 S
C56 C57 1.361 . S
C56 C58 1.500 . S
C57 C52 1.383 1_645 S
C57 C56 1.361 . S
C57 H75 0.931 . S
C58 C56 1.500 . S
C58 C59 1.371 . S
C58 C60 1.365 . S
C59 C58 1.371 . S
C59 C69 1.386 . S
C59 H77 0.931 . S
C60 C58 1.365 . S
C60 C61 1.409 . S
C60 H78 0.929 . S
C61 C60 1.409 . S
C61 C62 1.380 . S
C61 H79 0.930 . S
C62 C61 1.380 . S
C62 C69 1.357 . S
C63 C54 1.511 . S
C63 C64 1.341 . S
C63 C65 1.371 . S
C64 C63 1.341 . S
C64 C68 1.394 . S
C64 H80 0.930 . S
C65 C63 1.371 . S
C65 C66 1.392 . S
C65 H81 0.931 . S
C66 C65 1.392 . S
C66 C67 1.331 . S
C66 H84 0.932 . S
C67 C66 1.331 . S
C67 C68 1.336 . S
C68 C64 1.394 . S
C68 C67 1.336 . S
C68 H83 0.929 . S
C69 C59 1.386 . S
C69 C62 1.357 . S
C69 H82 0.928 . S
H70 C46 0.931 . S
H71 C48 0.930 . S
H72 C50 0.929 . S
H73 C51 0.931 . S
H74 C53 0.930 . S
H75 C57 0.931 . S
H76 C55 0.932 . S
H77 C59 0.931 . S
H78 C60 0.929 . S
H79 C61 0.930 . S
H80 C64 0.930 . S
H81 C65 0.931 . S
H82 C69 0.928 . S
H83 C68 0.929 . S
H84 C66 0.932 . S
C85 C86 1.386 . S
C85 C87 1.397 . S
C85 H109 0.931 . S
C86 C85 1.386 . S
C86 C90 1.397 1_545 S
C87 C85 1.397 . S
C87 C88 1.384 . S
C87 H110 0.930 . S
C88 C87 1.384 . S
C88 C89 1.377 1_545 S
C88 C91 1.481 . S
C89 C88 1.377 1_565 S
C89 C90 1.389 . S
C89 H111 0.929 . S
C90 C86 1.397 1_565 S
C90 C89 1.389 . S
C90 H112 0.931 . S
C91 C88 1.481 . S
C91 C92 1.387 . S
C91 C96 1.390 1_445 S
C92 C91 1.387 . S
C92 C93 1.401 . S
C92 H113 0.930 . S
C93 C92 1.401 . S
C93 C94 1.376 . S
C93 C102 1.511 . S
C94 C93 1.376 . S
C94 C95 1.392 1_445 S
C94 H115 0.931 . S
C95 C94 1.392 1_665 S
C95 C96 1.361 . S
C95 C97 1.500 . S
C96 C91 1.390 1_665 S
C96 C95 1.361 . S
C96 H114 0.931 . S
C97 C95 1.500 . S
C97 C98 1.371 . S
C97 C99 1.365 . S
C98 C97 1.371 . S
C98 C108 1.386 . S
C98 H116 0.931 . S
C99 C97 1.365 . S
C99 C100 1.409 . S
C99 H117 0.929 . S
C100 C99 1.409 . S
C100 C101 1.380 . S
C100 H118 0.930 . S
C101 C100 1.380 . S
C101 C108 1.357 . S
C102 C93 1.511 . S
C102 C103 1.341 . S
C102 C104 1.371 . S
C103 C102 1.341 . S
C103 C107 1.394 . S
C103 H119 0.930 . S
C104 C102 1.371 . S
C104 C105 1.392 . S
C104 H120 0.931 . S
C105 C104 1.392 . S
C105 C106 1.331 . S
C105 H123 0.932 . S
C106 C105 1.331 . S
C106 C107 1.336 . S
C107 C103 1.394 . S
C107 C106 1.336 . S
C107 H122 0.929 . S
C108 C98 1.386 . S
C108 C101 1.357 . S
C108 H121 0.928 . S
H109 C85 0.931 . S
H110 C87 0.930 . S
H111 C89 0.929 . S
H112 C90 0.931 . S
H113 C92 0.930 . S
H114 C96 0.931 . S
H115 C94 0.931 . S
H116 C98 0.931 . S
H117 C99 0.929 . S
H118 C100 0.930 . S
H119 C103 0.930 . S
H120 C104 0.931 . S
H121 C108 0.928 . S
H122 C107 0.929 . S
H123 C105 0.932 . S
C124 C125 1.386 . S
C124 C126 1.397 . S
C124 H148 0.931 . S
C125 C124 1.386 . S
C125 C129 1.397 . S
C126 C124 1.397 . S
C126 C127 1.384 . S
C126 H149 0.930 . S
C127 C126 1.384 . S
C127 C128 1.377 . S
C127 C130 1.481 . S
C128 C127 1.377 . S
C128 C129 1.389 . S
C128 H150 0.929 . S
C129 C125 1.397 . S
C129 C128 1.389 . S
C129 H151 0.931 . S
C130 C127 1.481 . S
C130 C131 1.387 . S
C130 C135 1.390 . S
C131 C130 1.387 . S
C131 C132 1.401 . S
C131 H152 0.930 . S
C132 C131 1.401 . S
C132 C133 1.376 . S
C132 C141 1.511 . S
C133 C132 1.376 . S
C133 C134 1.392 . S
C133 H154 0.931 . S
C134 C133 1.392 . S
C134 C135 1.361 . S
C134 C136 1.500 . S
C135 C130 1.390 . S
C135 C134 1.361 . S
C135 H153 0.931 . S
C136 C134 1.500 . S
C136 C137 1.371 . S
C136 C138 1.365 . S
C137 C136 1.371 . S
C137 C147 1.386 . S
C137 H155 0.931 . S
C138 C136 1.365 . S
C138 C139 1.409 . S
C138 H156 0.929 . S
C139 C138 1.409 . S
C139 C140 1.380 . S
C139 H157 0.930 . S
C140 C139 1.380 . S
C140 C147 1.357 . S
C141 C132 1.511 . S
C141 C142 1.341 . S
C141 C143 1.371 . S
C142 C141 1.341 . S
C142 C146 1.394 . S
C142 H158 0.930 . S
C143 C141 1.371 . S
C143 C144 1.392 . S
C143 H159 0.931 . S
C144 C143 1.392 . S
C144 C145 1.331 . S
C144 H162 0.932 . S
C145 C144 1.331 . S
C145 C146 1.336 . S
C146 C142 1.394 . S
C146 C145 1.336 . S
C146 H161 0.929 . S
C147 C137 1.386 . S
C147 C140 1.357 . S
C147 H160 0.928 . S
H148 C124 0.931 . S
H149 C126 0.930 . S
H150 C128 0.929 . S
H151 C129 0.931 . S
H152 C131 0.930 . S
H153 C135 0.931 . S
H154 C133 0.931 . S
H155 C137 0.931 . S
H156 C138 0.929 . S
H157 C139 0.930 . S
H158 C142 0.930 . S
H159 C143 0.931 . S
H160 C147 0.928 . S
H161 C146 0.929 . S
H162 C144 0.932 . S
C163 C164 1.386 . S
C163 C165 1.397 . S
C163 H187 0.931 . S
C164 C163 1.386 . S
C164 C168 1.397 . S
C165 C163 1.397 . S
C165 C166 1.384 . S
C165 H188 0.930 . S
C166 C165 1.384 . S
C166 C167 1.377 . S
C166 C169 1.481 . S
C167 C166 1.377 . S
C167 C168 1.389 . S
C167 H189 0.929 . S
C168 C164 1.397 . S
C168 C167 1.389 . S
C168 H190 0.931 . S
C169 C166 1.481 . S
C169 C170 1.387 . S
C169 C174 1.390 . S
C170 C169 1.387 . S
C170 C171 1.401 . S
C170 H191 0.930 . S
C171 C170 1.401 . S
C171 C172 1.376 . S
C171 C180 1.511 . S
C172 C171 1.376 . S
C172 C173 1.392 . S
C172 H193 0.931 . S
C173 C172 1.392 . S
C173 C174 1.361 . S
C173 C175 1.500 . S
C174 C169 1.390 . S
C174 C173 1.361 . S
C174 H192 0.931 . S
C175 C173 1.500 . S
C175 C176 1.371 . S
C175 C177 1.365 . S
C176 C175 1.371 . S
C176 C186 1.386 . S
C176 H194 0.931 . S
C177 C175 1.365 . S
C177 C178 1.409 . S
C177 H195 0.929 . S
C178 C177 1.409 . S
C178 C179 1.380 . S
C178 H196 0.930 . S
C179 C178 1.380 . S
C179 C186 1.357 . S
C180 C171 1.511 . S
C180 C181 1.341 . S
C180 C182 1.371 . S
C181 C180 1.341 . S
C181 C185 1.394 . S
C181 H197 0.930 . S
C182 C180 1.371 . S
C182 C183 1.392 . S
C182 H198 0.931 . S
C183 C182 1.392 . S
C183 C184 1.331 . S
C183 H201 0.932 . S
C184 C183 1.331 . S
C184 C185 1.336 . S
C185 C181 1.394 . S
C185 C184 1.336 . S
C185 H200 0.929 . S
C186 C176 1.386 . S
C186 C179 1.357 . S
C186 H199 0.928 . S
H187 C163 0.931 . S
H188 C165 0.930 . S
H189 C167 0.929 . S
H190 C168 0.931 . S
H191 C170 0.930 . S
H192 C174 0.931 . S
H193 C172 0.931 . S
H194 C176 0.931 . S
H195 C177 0.929 . S
H196 C178 0.930 . S
H197 C181 0.930 . S
H198 C182 0.931 . S
H199 C186 0.928 . S
H200 C185 0.929 . S
H201 C183 0.932 . S
C202 C203 1.386 . S
C202 C204 1.383 . S
C202 H218 0.951 . S
C203 C202 1.386 . S
C203 C207 1.383 . S
C204 C202 1.383 . S
C204 C205 1.402 . S
C204 H219 0.951 . S
C205 C204 1.402 . S
C205 C206 1.375 . S
C205 C208 1.481 . S
C206 C205 1.375 . S
C206 C207 1.367 . S
C206 H220 0.951 1_554 S
C207 C203 1.383 . S
C207 C206 1.367 . S
C207 H221 0.950 1_554 S
C208 C205 1.481 . S
C208 C209 1.297 . S
C208 H222 0.950 . S
C209 C208 1.297 . S
C209 C210 1.479 . S
C209 H223 0.950 . S
C210 C209 1.479 . S
C210 C211 1.375 . S
C210 C216 1.404 . S
C211 C210 1.375 . S
C211 C212 1.369 . S
C211 H224 0.950 . S
C212 C211 1.369 . S
C212 C213 1.392 . S
C212 H225 0.951 . S
C213 C212 1.392 . S
C213 C215 1.384 . S
H214 C216 0.949 . S
C215 C213 1.384 . S
C215 C216 1.385 . S
C215 H217 0.950 . S
C216 C210 1.404 . S
C216 H214 0.949 . S
C216 C215 1.385 . S
H217 C215 0.950 . S
H218 C202 0.951 . S
H219 C204 0.951 . S
H220 C206 0.951 1_556 S
H221 C207 0.950 1_556 S
H222 C208 0.950 . S
H223 C209 0.950 . S
H224 C211 0.950 . S
H225 C212 0.951 . S
C226 C227 1.386 . S
C226 C228 1.383 . S
C226 H242 0.951 . S
C227 C226 1.386 . S
C227 C231 1.383 1_556 S
C228 C226 1.383 . S
C228 C229 1.402 . S
C228 H243 0.951 . S
C229 C228 1.402 . S
C229 C230 1.375 1_556 S
C229 C232 1.481 . S
C230 C229 1.375 1_554 S
C230 C231 1.367 . S
C230 H244 0.951 . S
C231 C227 1.383 1_554 S
C231 C230 1.367 . S
C231 H245 0.950 . S
C232 C229 1.481 . S
C232 C233 1.297 . S
C232 H246 0.950 1_556 S
C233 C232 1.297 . S
C233 C234 1.479 . S
C233 H247 0.950 . S
C234 C233 1.479 . S
C234 C235 1.375 . S
C234 C240 1.404 . S
C235 C234 1.375 . S
C235 C236 1.369 . S
C235 H248 0.950 . S
C236 C235 1.369 . S
C236 C237 1.392 . S
C236 H249 0.951 . S
C237 C236 1.392 . S
C237 C239 1.384 . S
H238 C240 0.949 1_554 S
C239 C237 1.384 . S
C239 C240 1.385 . S
C239 H241 0.950 . S
C240 C234 1.404 . S
C240 H238 0.949 1_556 S
C240 C239 1.385 . S
H241 C239 0.950 . S
H242 C226 0.951 . S
H243 C228 0.951 . S
H244 C230 0.951 . S
H245 C231 0.950 . S
H246 C232 0.950 1_554 S
H247 C233 0.950 . S
H248 C235 0.950 . S
H249 C236 0.951 . S
C250 C251 1.386 . S
C250 C252 1.383 . S
C250 H266 0.951 1_554 S
C251 C250 1.386 . S
C251 C255 1.383 . S
C252 C250 1.383 . S
C252 C253 1.402 . S
C252 H267 0.951 . S
C253 C252 1.402 . S
C253 C254 1.375 . S
C253 C256 1.481 . S
C254 C253 1.375 . S
C254 C255 1.367 . S
C254 H268 0.951 . S
C255 C251 1.383 . S
C255 C254 1.367 . S
C255 H269 0.950 . S
C256 C253 1.481 . S
C256 C257 1.297 . S
C256 H270 0.950 . S
C257 C256 1.297 . S
C257 C258 1.479 . S
C257 H271 0.950 . S
C258 C257 1.479 . S
C258 C259 1.375 . S
C258 C264 1.404 . S
C259 C258 1.375 . S
C259 C260 1.369 . S
C259 H272 0.950 . S
C260 C259 1.369 . S
C260 C261 1.392 . S
C260 H273 0.951 . S
C261 C260 1.392 . S
C261 C263 1.384 . S
H262 C264 0.949 . S
C263 C261 1.384 . S
C263 C264 1.385 . S
C263 H265 0.950 . S
C264 C258 1.404 . S
C264 H262 0.949 . S
C264 C263 1.385 . S
H265 C263 0.950 . S
H266 C250 0.951 1_556 S
H267 C252 0.951 . S
H268 C254 0.951 . S
H269 C255 0.950 . S
H270 C256 0.950 . S
H271 C257 0.950 . S
H272 C259 0.950 . S
H273 C260 0.951 . S
C274 C275 1.386 1_554 S
C274 C276 1.383 1_554 S
C274 H290 0.951 . S
C275 C274 1.386 1_556 S
C275 C279 1.383 . S
C276 C274 1.383 1_556 S
C276 C277 1.402 . S
C276 H291 0.951 1_556 S
C277 C276 1.402 . S
C277 C278 1.375 . S
C277 C280 1.481 . S
C278 C277 1.375 . S
C278 C279 1.367 . S
C278 H292 0.951 . S
C279 C275 1.383 . S
C279 C278 1.367 . S
C279 H293 0.950 . S
C280 C277 1.481 . S
C280 C281 1.297 . S
C280 H294 0.950 . S
C281 C280 1.297 . S
C281 C282 1.479 . S
C281 H295 0.950 . S
C282 C281 1.479 . S
C282 C283 1.375 . S
C282 C288 1.404 . S
C283 C282 1.375 . S
C283 C284 1.369 . S
C283 H296 0.950 . S
C284 C283 1.369 . S
C284 C285 1.392 . S
C284 H297 0.951 . S
C285 C284 1.392 . S
C285 C287 1.384 . S
H286 C288 0.949 . S
C287 C285 1.384 . S
C287 C288 1.385 . S
C287 H289 0.950 . S
C288 C282 1.404 . S
C288 H286 0.949 . S
C288 C287 1.385 . S
H289 C287 0.950 . S
H290 C274 0.951 . S
H291 C276 0.951 1_554 S
H292 C278 0.951 . S
H293 C279 0.950 . S
H294 C280 0.950 . S
H295 C281 0.950 . S
H296 C283 0.950 . S
H297 C284 0.951 . S
C298 C299 1.386 . S
C298 C300 1.383 . S
C298 H314 0.951 . S
C299 C298 1.386 . S
C299 C303 1.383 . S
C300 C298 1.383 . S
C300 C301 1.402 . S
C300 H315 0.951 . S
C301 C300 1.402 . S
C301 C302 1.375 . S
C301 C304 1.481 . S
C302 C301 1.375 . S
C302 C303 1.367 . S
C302 H316 0.951 . S
C303 C299 1.383 . S
C303 C302 1.367 . S
C303 H317 0.950 . S
C304 C301 1.481 . S
C304 C305 1.297 . S
C304 H318 0.950 . S
C305 C304 1.297 . S
C305 C306 1.479 . S
C305 H319 0.950 . S
C306 C305 1.479 . S
C306 C307 1.375 . S
C306 C312 1.404 . S
C307 C306 1.375 . S
C307 C308 1.369 . S
C307 H320 0.950 . S
C308 C307 1.369 . S
C308 C309 1.392 . S
C308 H321 0.951 . S
C309 C308 1.392 . S
C309 C311 1.384 . S
H310 C312 0.949 . S
C311 C309 1.384 . S
C311 C312 1.385 . S
C311 H313 0.950 . S
C312 C306 1.404 . S
C312 H310 0.949 . S
C312 C311 1.385 . S
H313 C311 0.950 . S
H314 C298 0.951 . S
H315 C300 0.951 . S
H316 C302 0.951 . S
H317 C303 0.950 . S
H318 C304 0.950 . S
H319 C305 0.950 . S
H320 C307 0.950 . S
H321 C308 0.951 . S
C322 C323 1.386 . S
C322 C324 1.383 . S
C322 H338 0.951 . S
C323 C322 1.386 . S
C323 C327 1.383 . S
C324 C322 1.383 . S
C324 C325 1.402 . S
C324 H339 0.951 . S
C325 C324 1.402 . S
C325 C326 1.375 . S
C325 C328 1.481 . S
C326 C325 1.375 . S
C326 C327 1.367 . S
C326 H340 0.951 . S
C327 C323 1.383 . S
C327 C326 1.367 . S
C327 H341 0.950 . S
C328 C325 1.481 . S
C328 C329 1.297 . S
C328 H342 0.950 . S
C329 C328 1.297 . S
C329 C330 1.479 . S
C329 H343 0.950 . S
C330 C329 1.479 . S
C330 C331 1.375 . S
C330 C336 1.404 . S
C331 C330 1.375 . S
C331 C332 1.369 . S
C331 H344 0.950 . S
C332 C331 1.369 . S
C332 C333 1.392 . S
C332 H345 0.951 . S
C333 C332 1.392 . S
C333 C335 1.384 . S
H334 C336 0.949 . S
C335 C333 1.384 . S
C335 C336 1.385 . S
C335 H337 0.950 . S
C336 C330 1.404 . S
C336 H334 0.949 . S
C336 C335 1.385 . S
H337 C335 0.950 . S
H338 C322 0.951 . S
H339 C324 0.951 . S
H340 C326 0.951 . S
H341 C327 0.950 . S
H342 C328 0.950 . S
H343 C329 0.950 . S
H344 C331 0.950 . S
H345 C332 0.951 . S
C346 C347 1.386 . S
C346 C348 1.383 . S
C346 H362 0.951 . S
C347 C346 1.386 . S
C347 C351 1.383 . S
C348 C346 1.383 . S
C348 C349 1.402 . S
C348 H363 0.951 . S
C349 C348 1.402 . S
C349 C350 1.375 . S
C349 C352 1.481 . S
C350 C349 1.375 . S
C350 C351 1.367 . S
C350 H364 0.951 . S
C351 C347 1.383 . S
C351 C350 1.367 . S
C351 H365 0.950 . S
C352 C349 1.481 . S
C352 C353 1.297 . S
C352 H366 0.950 . S
C353 C352 1.297 . S
C353 C354 1.479 . S
C353 H367 0.950 . S
C354 C353 1.479 . S
C354 C355 1.375 . S
C354 C360 1.404 . S
C355 C354 1.375 . S
C355 C356 1.369 . S
C355 H368 0.950 . S
C356 C355 1.369 . S
C356 C357 1.392 . S
C356 H369 0.951 . S
C357 C356 1.392 . S
C357 C359 1.384 . S
H358 C360 0.949 . S
C359 C357 1.384 . S
C359 C360 1.385 . S
C359 H361 0.950 . S
C360 C354 1.404 . S
C360 H358 0.949 . S
C360 C359 1.385 . S
H361 C359 0.950 . S
H362 C346 0.951 . S
H363 C348 0.951 . S
H364 C350 0.951 . S
H365 C351 0.950 . S
H366 C352 0.950 . S
H367 C353 0.950 . S
H368 C355 0.950 . S
H369 C356 0.951 . S
C370 C371 1.386 . S
C370 C372 1.383 . S
C370 H386 0.951 . S
C371 C370 1.386 . S
C371 C375 1.383 . S
C372 C370 1.383 . S
C372 C373 1.402 . S
C372 H387 0.951 . S
C373 C372 1.402 . S
C373 C374 1.375 . S
C373 C376 1.481 . S
C374 C373 1.375 . S
C374 C375 1.367 . S
C374 H388 0.951 . S
C375 C371 1.383 . S
C375 C374 1.367 . S
C375 H389 0.950 . S
C376 C373 1.481 . S
C376 C377 1.297 . S
C376 H390 0.950 . S
C377 C376 1.297 . S
C377 C378 1.479 . S
C377 H391 0.950 . S
C378 C377 1.479 . S
C378 C379 1.375 . S
C378 C384 1.404 . S
C379 C378 1.375 . S
C379 C380 1.369 . S
C379 H392 0.950 . S
C380 C379 1.369 . S
C380 C381 1.392 . S
C380 H393 0.951 . S
C381 C380 1.392 . S
C381 C383 1.384 . S
H382 C384 0.949 . S
C383 C381 1.384 . S
C383 C384 1.385 . S
C383 H385 0.950 . S
C384 C378 1.404 . S
C384 H382 0.949 . S
C384 C383 1.385 . S
H385 C383 0.950 . S
H386 C370 0.951 . S
H387 C372 0.951 . S
H388 C374 0.951 . S
H389 C375 0.950 . S
H390 C376 0.950 . S
H391 C377 0.950 . S
H392 C379 0.950 . S
H393 C380 0.951 . S
C394 C395 1.386 . S
C394 C396 1.380 1_455 S
C394 H410 0.951 . S
C395 C394 1.386 . S
C395 C399 1.383 1_445 S
C396 C394 1.380 1_655 S
C396 C397 1.404 1_545 S
C396 H411 0.951 . S
C397 C396 1.404 1_565 S
C397 C398 1.375 . S
C397 C400 1.481 . S
C398 C397 1.375 . S
C398 C399 1.367 . S
C398 H412 0.951 . S
C399 C395 1.383 1_665 S
C399 C398 1.367 . S
C399 H413 0.950 . S
C400 C397 1.481 . S
C400 C401 1.297 1_565 S
C400 H414 0.950 . S
C401 C400 1.297 1_545 S
C401 C402 1.479 . S
C401 H415 0.950 . S
C402 C401 1.479 . S
C402 C403 1.375 . S
C402 C408 1.404 1_545 S
C403 C402 1.375 . S
C403 C404 1.369 . S
C403 H416 0.950 . S
C404 C403 1.369 . S
C404 C405 1.392 . S
C404 H417 0.951 1_655 S
C405 C404 1.392 . S
C405 C407 1.384 1_545 S
H406 C408 0.949 . S
C407 C405 1.384 1_565 S
C407 C408 1.385 . S
C407 H409 0.950 . S
C408 C402 1.404 1_565 S
C408 H406 0.949 . S
C408 C407 1.385 . S
H409 C407 0.950 . S
H410 C394 0.951 . S
H411 C396 0.951 . S
H412 C398 0.951 . S
H413 C399 0.950 . S
H414 C400 0.950 . S
H415 C401 0.950 . S
H416 C403 0.950 . S
H417 C404 0.951 1_455 S
C418 C419 1.386 1_665 S
C418 C420 1.383 . S
C418 H434 0.951 . S
C419 C418 1.386 1_445 S
C419 C423 1.383 . S
C420 C418 1.383 . S
C420 C421 1.402 1_665 S
C420 H435 0.951 . S
C421 C420 1.402 1_445 S
C421 C422 1.375 . S
C421 C424 1.481 . S
C422 C421 1.375 . S
C422 C423 1.367 . S
C422 H436 0.951 . S
C423 C419 1.383 . S
C423 C422 1.367 . S
C423 H437 0.950 . S
C424 C421 1.481 . S
C424 C425 1.297 1_455 S
C424 H438 0.950 . S
C425 C424 1.297 1_655 S
C425 C426 1.479 . S
C425 H439 0.950 1_545 S
C426 C425 1.479 . S
C426 C427 1.375 1_545 S
C426 C432 1.404 1_655 S
C427 C426 1.375 1_565 S
C427 C428 1.369 . S
C427 H440 0.950 . S
C428 C427 1.369 . S
C428 C429 1.392 1_665 S
C428 H441 0.951 . S
C429 C428 1.392 1_445 S
C429 C431 1.384 . S
H430 C432 0.949 . S
C431 C429 1.384 . S
C431 C432 1.385 . S
C431 H433 0.950 . S
C432 C426 1.404 1_455 S
C432 H430 0.949 . S
C432 C431 1.385 . S
H433 C431 0.950 . S
H434 C418 0.951 . S
H435 C420 0.951 . S
H436 C422 0.951 . S
H437 C423 0.950 . S
H438 C424 0.950 . S
H439 C425 0.950 1_565 S
H440 C427 0.950 . S
H441 C428 0.951 . S
C442 C443 1.386 . S
C442 C444 1.383 . S
C442 H458 0.951 . S
C443 C442 1.386 . S
C443 C447 1.383 . S
C444 C442 1.383 . S
C444 C445 1.402 . S
C444 H459 0.951 . S
C445 C444 1.402 . S
C445 C446 1.375 . S
C445 C448 1.481 . S
C446 C445 1.375 . S
C446 C447 1.367 . S
C446 H460 0.951 . S
C447 C443 1.383 . S
C447 C446 1.367 . S
C447 H461 0.950 . S
C448 C445 1.481 . S
C448 C449 1.297 . S
C448 H462 0.950 . S
C449 C448 1.297 . S
C449 C450 1.479 . S
C449 H463 0.950 . S
C450 C449 1.479 . S
C450 C451 1.375 . S
C450 C456 1.404 . S
C451 C450 1.375 . S
C451 C452 1.369 . S
C451 H464 0.950 . S
C452 C451 1.369 . S
C452 C453 1.392 . S
C452 H465 0.951 . S
C453 C452 1.392 . S
C453 C455 1.384 . S
H454 C456 0.949 . S
C455 C453 1.384 . S
C455 C456 1.385 . S
C455 H457 0.950 . S
C456 C450 1.404 . S
C456 H454 0.949 . S
C456 C455 1.385 . S
H457 C455 0.950 . S
H458 C442 0.951 . S
H459 C444 0.951 . S
H460 C446 0.951 . S
H461 C447 0.950 . S
H462 C448 0.950 . S
H463 C449 0.950 . S
H464 C451 0.950 . S
H465 C452 0.951 . S
C466 C467 1.386 . S
C466 C468 1.383 . S
C466 H482 0.951 . S
C467 C466 1.386 . S
C467 C471 1.383 . S
C468 C466 1.383 . S
C468 C469 1.402 . S
C468 H483 0.951 . S
C469 C468 1.402 . S
C469 C470 1.375 . S
C469 C472 1.481 . S
C470 C469 1.375 . S
C470 C471 1.367 . S
C470 H484 0.951 . S
C471 C467 1.383 . S
C471 C470 1.367 . S
C471 H485 0.950 . S
C472 C469 1.481 . S
C472 C473 1.297 . S
C472 H486 0.950 . S
C473 C472 1.297 . S
C473 C474 1.479 . S
C473 H487 0.950 . S
C474 C473 1.479 . S
C474 C475 1.375 . S
C474 C480 1.404 . S
C475 C474 1.375 . S
C475 C476 1.369 . S
C475 H488 0.950 . S
C476 C475 1.369 . S
C476 C477 1.392 . S
C476 H489 0.951 . S
C477 C476 1.392 . S
C477 C479 1.384 . S
H478 C480 0.949 . S
C479 C477 1.384 . S
C479 C480 1.385 . S
C479 H481 0.950 . S
C480 C474 1.404 . S
C480 H478 0.949 . S
C480 C479 1.385 . S
H481 C479 0.950 . S
H482 C466 0.951 . S
H483 C468 0.951 . S
H484 C470 0.951 . S
H485 C471 0.950 . S
H486 C472 0.950 . S
H487 C473 0.950 . S
H488 C475 0.950 . S
H489 C476 0.951 . S
C213 C179 1.411 . S
C203 C21 1.414 . S
C227 C19 1.411 1_556 S
C237 C140 1.408 . S
C251 C18 1.402 . S
C261 C184 1.394 . S
C275 C20 1.418 1_556 S
C285 C145 1.384 . S
C299 C44 1.414 . S
C309 C101 1.423 . S
C323 C42 1.402 . S
C333 C62 1.429 . S
C357 C106 1.360 . S
C347 C41 1.381 . S
C381 C67 1.387 . S
C371 C43 1.412 . S
C395 C16 1.487 . S
C405 C47 1.483 1_545 S
C419 C17 1.448 . S
C429 C86 1.440 . S
C453 C125 1.479 . S
C443 C39 1.485 . S
C467 C40 1.449 . S
C477 C164 1.439 . S
