# Generated by pormake.
# Topology zzz, (3,6)-cn, num edge types: 1
# Building blocks:
#     Node 0, Type 0, BuildingBlock: BETDIP_clean_linker_0, # of connection points: 3
#     Node 1, Type 0, BuildingBlock: BETDIP_clean_linker_0, # of connection points: 3
#     Node 2, Type 0, BuildingBlock: BETDIP_clean_linker_0, # of connection points: 3
#     Node 3, Type 0, BuildingBlock: BETDIP_clean_linker_0, # of connection points: 3
#     Node 4, Type 0, BuildingBlock: BETDIP_clean_linker_0, # of connection points: 3
#     Node 5, Type 0, BuildingBlock: BETDIP_clean_linker_0, # of connection points: 3
#     Node 6, Type 0, BuildingBlock: BETDIP_clean_linker_0, # of connection points: 3
#     Node 7, Type 0, BuildingBlock: BETDIP_clean_linker_0, # of connection points: 3
#     Node 8, Type 1, BuildingBlock: PAMTOO_clean_sbu_0, # of connection points: 6
#     Node 9, Type 1, BuildingBlock: PAMTOO_clean_sbu_0, # of connection points: 6
#     Node 10, Type 1, BuildingBlock: PAMTOO_clean_sbu_0, # of connection points: 6
#     Node 11, Type 1, BuildingBlock: PAMTOO_clean_sbu_0, # of connection points: 6
#     Edge 12, Type (0, 1), BuildingBlock: CIFDUS_clean_linker_0, # of connection points: 2
#     Edge 13, Type (0, 1), BuildingBlock: CIFDUS_clean_linker_0, # of connection points: 2
#     Edge 14, Type (0, 1), BuildingBlock: CIFDUS_clean_linker_0, # of connection points: 2
#     Edge 15, Type (0, 1), BuildingBlock: CIFDUS_clean_linker_0, # of connection points: 2
#     Edge 16, Type (0, 1), BuildingBlock: CIFDUS_clean_linker_0, # of connection points: 2
#     Edge 17, Type (0, 1), BuildingBlock: CIFDUS_clean_linker_0, # of connection points: 2
#     Edge 18, Type (0, 1), BuildingBlock: CIFDUS_clean_linker_0, # of connection points: 2
#     Edge 19, Type (0, 1), BuildingBlock: CIFDUS_clean_linker_0, # of connection points: 2
#     Edge 20, Type (0, 1), BuildingBlock: CIFDUS_clean_linker_0, # of connection points: 2
#     Edge 21, Type (0, 1), BuildingBlock: CIFDUS_clean_linker_0, # of connection points: 2
#     Edge 22, Type (0, 1), BuildingBlock: CIFDUS_clean_linker_0, # of connection points: 2
#     Edge 23, Type (0, 1), BuildingBlock: CIFDUS_clean_linker_0, # of connection points: 2
#     Edge 24, Type (0, 1), BuildingBlock: CIFDUS_clean_linker_0, # of connection points: 2
#     Edge 25, Type (0, 1), BuildingBlock: CIFDUS_clean_linker_0, # of connection points: 2
#     Edge 26, Type (0, 1), BuildingBlock: CIFDUS_clean_linker_0, # of connection points: 2
#     Edge 27, Type (0, 1), BuildingBlock: CIFDUS_clean_linker_0, # of connection points: 2
#     Edge 28, Type (0, 1), BuildingBlock: CIFDUS_clean_linker_0, # of connection points: 2
#     Edge 29, Type (0, 1), BuildingBlock: CIFDUS_clean_linker_0, # of connection points: 2
#     Edge 30, Type (0, 1), BuildingBlock: CIFDUS_clean_linker_0, # of connection points: 2
#     Edge 31, Type (0, 1), BuildingBlock: CIFDUS_clean_linker_0, # of connection points: 2
#     Edge 32, Type (0, 1), BuildingBlock: CIFDUS_clean_linker_0, # of connection points: 2
#     Edge 33, Type (0, 1), BuildingBlock: CIFDUS_clean_linker_0, # of connection points: 2
#     Edge 34, Type (0, 1), BuildingBlock: CIFDUS_clean_linker_0, # of connection points: 2
#     Edge 35, Type (0, 1), BuildingBlock: CIFDUS_clean_linker_0, # of connection points: 2
# Relax obj value: 0.245
# Max RMSD: 0.242
# Mean RMSD: 0.128
data_MOF--net-zzz--node1-PAMTOO_clean_sbu_0--node2-BETDIP_clean_linker_0--edge1-CIFDUS_clean_linker_0
_symmetry_space_group_name_H-M    P1
_symmetry_Int_Tables_number       1
_symmetry_cell_setting            triclinic
loop_
_symmetry_equiv_pos_as_xyz
'x, y, z'
_cell_length_a     49.715916
_cell_length_b     42.470483
_cell_length_c     13.72283
_cell_angle_alpha  92.267675
_cell_angle_beta   78.745796
_cell_angle_gamma 85.406485
loop_
_atom_site_label
_atom_site_type_symbol
_atom_site_fract_x
_atom_site_fract_y
_atom_site_fract_z
_atom_type_partial_charge
H0 H 0.82413 0.56781 0.66009 0.0
H1 H 0.81089 0.49836 0.44121 0.0
H2 H 0.87843 0.48238 0.59094 0.0
H3 H 0.81074 0.56226 0.37591 0.0
C4 C 0.7913 0.56149 0.42796 0.0
C5 C 0.82958 0.54481 0.62111 0.0
C6 C 0.85263 0.52552 0.63751 0.0
C7 C 0.81441 0.53487 0.55033 0.0
C8 C 0.82223 0.50563 0.49693 0.0
C9 C 0.84509 0.48637 0.512 0.0
C10 C 0.85973 0.49627 0.58356 0.0
N11 N 0.79214 0.55468 0.52829 0.0
H12 H 0.03614 0.73245 0.64929 0.0
H13 H 0.99061 0.72543 0.41319 0.0
H14 H 0.99653 0.81587 0.55483 0.0
H15 H 0.97924 0.67375 0.54755 0.0
C16 C 1.00028 0.66989 0.50566 0.0
C17 C 1.02271 0.74341 0.60448 0.0
C18 C 1.01643 0.77646 0.61233 0.0
C19 C 1.01206 0.72467 0.53597 0.0
C20 C 0.99663 0.73942 0.47182 0.0
C21 C 0.99124 0.77241 0.47705 0.0
C22 C 0.9999 0.79025 0.55135 0.0
N23 N 1.01951 0.69153 0.52291 0.0
H24 H 0.78463 1.00674 0.52778 0.0
H25 H 0.81372 0.97599 0.21813 0.0
H26 H 0.7286 0.97472 0.35073 0.0
H27 H 0.84893 0.94984 0.31145 0.0
C28 C 0.85308 0.97408 0.32741 0.0
C29 C 0.78079 0.99695 0.45825 0.0
C30 C 0.75356 0.99167 0.44893 0.0
C31 C 0.80299 0.98985 0.37564 0.0
C32 C 0.79741 0.97908 0.28378 0.0
C33 C 0.77072 0.97352 0.27492 0.0
C34 C 0.7494 0.97867 0.3584 0.0
N35 N 0.83071 0.99492 0.38181 0.0
H36 H 0.55727 0.77766 0.48522 0.0
H37 H 0.51563 0.75393 0.24768 0.0
H38 H 0.50943 0.6977 0.50248 0.0
H39 H 0.54689 0.78415 0.16409 0.0
C40 C 0.54491 0.80463 0.21581 0.0
C41 C 0.54373 0.76308 0.45431 0.0
C42 C 0.53474 0.736 0.5028 0.0
C43 C 0.53555 0.77089 0.36429 0.0
C44 C 0.52039 0.74958 0.31973 0.0
C45 C 0.51208 0.72208 0.3669 0.0
C46 C 0.51702 0.71776 0.4626 0.0
N47 N 0.54293 0.79975 0.31946 0.0
H48 H 0.27123 0.50036 0.99204 0.0
H49 H 0.28483 0.56689 0.21839 0.0
H50 H 0.20932 0.57612 0.11009 0.0
H51 H 0.33362 0.55305 0.05073 0.0
C52 C 0.33148 0.53327 0.0988 0.0
C53 C 0.26449 0.52157 0.03985 0.0
C54 C 0.2387 0.53813 0.03947 0.0
C55 C 0.2817 0.53284 0.10149 0.0
C56 C 0.27231 0.55942 0.16681 0.0
C57 C 0.2461 0.57487 0.17142 0.0
C58 C 0.22995 0.56483 0.10491 0.0
N59 N 0.30765 0.51646 0.10381 0.0
H60 H 0.0629 0.26991 0.10987 0.0
H61 H 1.00261 0.29951 0.37509 0.0
H62 H 0.99673 0.21276 0.21254 0.0
H63 H 1.0124 0.35096 0.26987 0.0
C64 C 1.03271 0.34608 0.28726 0.0
C65 C 0.04406 0.26635 0.16147 0.0
C66 C 1.03002 0.23937 0.14881 0.0
C67 C 1.03342 0.28896 0.24067 0.0
C68 C 1.00976 0.28333 0.31047 0.0
C69 C 0.99648 0.25581 0.30119 0.0
C70 C 1.00624 0.2347 0.21838 0.0
N71 N 0.04748 0.31619 0.25466 0.0
H72 H 0.304 0.03101 0.18037 0.0
H73 H 0.28817 0.96079 0.39864 0.0
H74 H 0.36788 0.95954 0.20878 0.0
H75 H 0.24445 0.96804 0.30219 0.0
C76 C 0.2422 0.99116 0.34141 0.0
C77 C 0.31083 1.01015 0.21492 0.0
C78 C 0.33811 0.99621 0.18401 0.0
C79 C 0.29231 0.99665 0.29036 0.0
C80 C 0.30171 0.97017 0.33699 0.0
C81 C 0.32888 0.95669 0.30753 0.0
C82 C 0.34661 0.96946 0.23004 0.0
N83 N 0.26471 1.01039 0.32315 0.0
H84 H 0.53509 0.27324 0.20347 0.0
H85 H 0.54134 0.29836 0.50636 0.0
H86 H 0.53786 0.37027 0.29758 0.0
H87 H 0.57435 0.25298 0.46014 0.0
C88 C 0.55888 0.23784 0.44452 0.0
C89 C 0.53592 0.29092 0.26161 0.0
C90 C 0.53482 0.32337 0.2414 0.0
C91 C 0.53904 0.28154 0.35729 0.0
C92 C 0.54002 0.30506 0.432 0.0
C93 C 0.53913 0.33717 0.41159 0.0
C94 C 0.53702 0.3457 0.31599 0.0
N95 N 0.54158 0.24878 0.37862 0.0
Dy96 Dy 1.02404 0.01691 0.72081 0.0
Dy97 Dy 0.05378 1.00386 0.90654 0.0
C98 C 0.09121 1.00877 0.68691 0.0
O99 O 0.0435 0.9676 0.68908 0.0
O100 O 0.04203 0.95706 0.85165 0.0
O101 O 1.02091 0.04105 0.5879 0.0
O102 O 0.98961 1.01068 0.64901 0.0
O103 O 1.00853 1.01522 0.96858 0.0
O104 O 0.99369 0.99519 0.83523 0.0
O105 O 0.05908 0.05463 0.87929 0.0
O106 O 1.0204 0.06233 0.81422 0.0
O107 O 0.05668 0.01564 0.0587 0.0
O108 O 0.07947 0.97344 0.98036 0.0
C109 C 0.04477 0.9473 0.75788 0.0
O110 O 0.06878 1.01422 0.65035 0.0
O111 O 0.09058 1.00432 0.78185 0.0
C112 C 0.97575 0.05705 0.57649 0.0
C113 C 0.94608 0.11417 0.54945 0.0
C114 C 0.94994 0.10657 0.64497 0.0
C115 C 0.96484 0.07827 0.65826 0.0
C116 C 0.96961 0.06299 0.48342 0.0
C117 C 0.95483 0.09127 0.46992 0.0
C118 C 0.9968 0.03161 0.58422 0.0
C119 C 0.98933 1.00282 0.93072 0.0
C120 C 0.03956 0.0737 0.85581 0.0
C121 C 0.05259 0.96723 0.13709 0.0
C122 C 1.01958 0.92029 0.22041 0.0
C123 C 1.00747 0.95037 0.20711 0.0
C124 C 1.02379 0.97361 0.16593 0.0
C125 C 0.06483 0.93788 0.15647 0.0
C126 C 0.04848 0.91463 0.1979 0.0
C127 C 0.06851 0.98754 0.06692 0.0
H128 H 0.9432 0.12346 0.70794 0.0
H129 H 0.96939 0.07393 0.73089 0.0
H130 H 0.97794 0.04683 0.41959 0.0
H131 H 0.95257 0.09631 0.39504 0.0
H132 H 0.98529 0.9555 0.22414 0.0
H133 H 1.0136 0.99592 0.15142 0.0
H134 H 0.08688 0.93227 0.13412 0.0
H135 H 0.05845 0.89191 0.2101 0.0
Dy136 Dy 0.53245 0.99661 0.7036 0.0
Dy137 Dy 0.55004 0.03261 0.8899 0.0
C138 C 0.53645 0.07227 0.70363 0.0
O139 O 0.57506 1.01075 0.64906 0.0
O140 O 0.58793 1.00593 0.79743 0.0
O141 O 0.50865 0.99372 0.58891 0.0
O142 O 0.53756 0.95441 0.6055 0.0
O143 O 0.53978 0.98501 0.94427 0.0
O144 O 0.54788 0.95842 0.79279 0.0
O145 O 0.50446 0.04473 0.91689 0.0
O146 O 0.49446 1.00246 0.82492 0.0
O147 O 0.54951 0.04043 0.04712 0.0
O148 O 0.57751 0.06396 0.9387 0.0
C149 C 0.59458 1.00826 0.70107 0.0
O150 O 0.52699 0.04731 0.66699 0.0
O151 O 0.54745 0.07124 0.78352 0.0
C152 C 0.49546 0.94329 0.56297 0.0
C153 C 0.44501 0.91789 0.56167 0.0
C154 C 0.4533 0.92425 0.65226 0.0
C155 C 0.47833 0.937 0.65288 0.0
C156 C 0.48866 0.93401 0.47267 0.0
C157 C 0.46367 0.92132 0.47187 0.0
C158 C 0.51741 0.96428 0.56305 0.0
C159 C 0.54442 0.95833 0.8901 0.0
C160 C 0.48668 0.02585 0.89315 0.0
C161 C 0.59636 0.03657 0.05547 0.0
C162 C 0.64695 1.00302 0.06385 0.0
C163 C 0.62558 0.98716 0.03715 0.0
C164 C 0.60059 1.00374 0.03326 0.0
C165 C 0.6174 0.05254 0.08387 0.0
C166 C 0.64248 0.03583 0.08879 0.0
C167 C 0.57247 0.05401 0.02847 0.0
H168 H 0.4396 0.92155 0.72258 0.0
H169 H 0.48338 0.94406 0.72345 0.0
H170 H 0.50163 0.93884 0.40273 0.0
H171 H 0.45799 0.9171 0.40054 0.0
H172 H 0.62838 0.96204 0.01672 0.0
H173 H 0.58496 0.99097 0.00851 0.0
H174 H 0.61475 0.07794 0.09907 0.0
H175 H 0.65839 0.04861 0.11181 0.0
Dy176 Dy 0.5644 0.52965 0.90413 0.0
Dy177 Dy 0.4999 0.53647 0.85033 0.0
C178 C 0.52317 0.47276 0.94529 0.0
O179 O 0.56385 0.49346 0.78311 0.0
O180 O 0.53304 0.52352 0.71781 0.0
O181 O 0.59045 0.51791 0.00741 0.0
O182 O 0.60868 0.53337 0.86192 0.0
O183 O 0.51319 0.58499 0.86392 0.0
O184 O 0.56009 0.57402 0.81893 0.0
O185 O 0.4923 0.55672 0.00668 0.0
O186 O 0.53734 0.55823 0.03051 0.0
O187 O 0.47537 0.55899 0.75539 0.0
O188 O 0.45812 0.5238 0.85337 0.0
C189 C 0.54972 0.49791 0.71323 0.0
O190 O 0.54576 0.48544 0.95716 0.0
O191 O 0.50417 0.48723 0.90366 0.0
C192 C 0.63381 0.53917 0.99486 0.0
C193 C 0.67603 0.55598 0.09468 0.0
C194 C 0.64808 0.56189 0.14106 0.0
C195 C 0.6272 0.55358 0.09175 0.0
C196 C 0.66158 0.53431 0.94733 0.0
C197 C 0.6824 0.54259 0.99638 0.0
C198 C 0.61294 0.52451 0.94833 0.0
C199 C 0.53778 0.59405 0.83049 0.0
C200 C 0.51051 0.56457 0.05925 0.0
C201 C 0.44097 0.53047 0.70298 0.0
C202 C 0.41196 0.5167 0.5496 0.0
C203 C 0.44047 0.51996 0.52726 0.0
C204 C 0.45476 0.5269 0.60293 0.0
C205 C 0.41283 0.52593 0.72592 0.0
C206 C 0.39849 0.51914 0.65034 0.0
C207 C 0.45451 0.54239 0.78262 0.0
H208 H 0.64233 0.57255 0.21601 0.0
H209 H 0.60596 0.55748 0.13074 0.0
H210 H 0.66728 0.52276 0.87347 0.0
H211 H 0.7036 0.5372 0.95842 0.0
H212 H 0.45171 0.51775 0.45097 0.0
H213 H 0.47639 0.53052 0.58269 0.0
H214 H 0.40164 0.52888 0.8023 0.0
H215 H 0.37655 0.51721 0.67081 0.0
Dy216 Dy 0.04773 0.55655 0.76655 0.0
Dy217 Dy 0.04567 0.49236 0.8915 0.0
C218 C 0.05084 0.48833 0.66137 0.0
O219 O 1.00262 0.55392 0.82509 0.0
O220 O 1.00374 0.50106 0.85539 0.0
O221 O 0.0567 0.57692 0.62416 0.0
O222 O 0.04062 0.60722 0.75725 0.0
O223 O 1.0305 0.53338 0.0033 0.0
O224 O 0.0543 0.57077 0.91733 0.0
O225 O 0.08792 0.50639 0.89141 0.0
O226 O 0.09219 0.53975 0.76171 0.0
O227 O 0.04227 0.4673 0.02707 0.0
O228 O 0.04631 0.44144 0.88556 0.0
C229 C 0.99016 0.52791 0.84186 0.0
O230 O 0.03815 0.51683 0.67095 0.0
O231 O 0.06336 0.47839 0.73139 0.0
C232 C 0.07243 0.62706 0.627 0.0
C233 C 0.12097 0.65224 0.5338 0.0
C234 C 0.09911 0.64922 0.48336 0.0
C235 C 0.07517 0.63668 0.52965 0.0
C236 C 0.09278 0.63304 0.68151 0.0
C237 C 0.11676 0.64595 0.63552 0.0
C238 C 0.05111 0.60591 0.66207 0.0
C239 C 0.04131 0.56071 1.00116 0.0
C240 C 0.10282 0.52345 0.82734 0.0
C241 C 1.01453 0.42518 0.02142 0.0
C242 C 0.96047 0.41244 0.106 0.0
C243 C 0.98007 0.41607 0.16619 0.0
C244 C 1.00687 0.42229 0.12414 0.0
C245 C 0.99587 0.41825 0.96012 0.0
C246 C 0.96912 0.41176 1.00212 0.0
C247 C 0.03974 0.44041 0.98191 0.0
H248 H 0.10142 0.65335 0.40495 0.0
H249 H 0.05984 0.63177 0.48638 0.0
H250 H 0.09107 0.62569 0.75702 0.0
H251 H 0.13287 0.64859 0.67738 0.0
H252 H 0.97409 0.41722 0.24651 0.0
H253 H 1.02091 0.42755 0.17257 0.0
H254 H 1.0012 0.42005 0.88028 0.0
H255 H 0.95464 0.40861 0.95368 0.0
H256 H 0.19325 0.96906 0.33927 0.0
H257 H 0.23215 0.03428 0.50326 0.0
H258 H 0.18918 0.04497 0.62773 0.0
H259 H 0.14031 0.03422 0.6926 0.0
H260 H 0.10148 0.97198 0.51776 0.0
H261 H 0.14441 0.96157 0.39562 0.0
C262 C 0.19221 0.98588 0.40181 0.0
C263 C 0.2158 1.00085 0.41203 0.0
C264 C 0.1674 0.99221 0.47174 0.0
C265 C 0.2142 0.02264 0.49321 0.0
C266 C 0.18966 0.02857 0.56475 0.0
C267 C 0.14139 0.01842 0.62767 0.0
C268 C 0.1178 1.00368 0.61454 0.0
C269 C 0.16613 1.01324 0.55542 0.0
C270 C 0.11932 0.98361 0.52942 0.0
C271 C 0.14387 0.97762 0.45952 0.0
H272 H 0.52663 0.18789 0.42537 0.0
H273 H 0.58497 0.22179 0.59059 0.0
H274 H 0.5824 0.17505 0.68785 0.0
H275 H 0.56457 0.12392 0.72523 0.0
H276 H 0.50759 0.08786 0.55791 0.0
H277 H 0.50859 0.1356 0.46356 0.0
C278 C 0.53869 0.185 0.48274 0.0
C279 C 0.55599 0.20844 0.50052 0.0
C280 C 0.53738 0.15753 0.53855 0.0
C281 C 0.57155 0.20416 0.57506 0.0
C282 C 0.57008 0.1774 0.63105 0.0
C283 C 0.55215 0.12653 0.66877 0.0
C284 C 0.53594 0.10218 0.64956 0.0
C285 C 0.55316 0.15385 0.61345 0.0
C286 C 0.5203 0.10608 0.57484 0.0
C287 C 0.52086 0.13346 0.52052 0.0
H288 H 0.32761 0.49702 0.26317 0.0
H289 H 0.37854 0.56089 0.09148 0.0
H290 H 0.40885 0.56004 0.21164 0.0
H291 H 0.41897 0.54458 0.37139 0.0
H292 H 0.36853 0.48058 0.54502 0.0
H293 H 0.33993 0.47836 0.41927 0.0
C294 C 0.34555 0.51037 0.25149 0.0
C295 C 0.35081 0.52905 0.16841 0.0
C296 C 0.36282 0.51012 0.32205 0.0
C297 C 0.37405 0.54637 0.15482 0.0
C298 C 0.39136 0.54597 0.22369 0.0
C299 C 0.4021 0.52958 0.38117 0.0
C300 C 0.39598 0.51292 0.46846 0.0
C301 C 0.3857 0.52839 0.30847 0.0
C302 C 0.37358 0.49412 0.47975 0.0
C303 C 0.35724 0.4927 0.40744 0.0
H304 H 1.0106 0.40544 0.3361 0.0
H305 H 0.07621 0.33939 0.38572 0.0
H306 H 0.08842 0.37798 0.50421 0.0
H307 H 0.07857 0.42999 0.60016 0.0
H308 H 1.01418 0.49633 0.5394 0.0
H309 H 1.00382 0.4585 0.4173 0.0
C310 C 1.02795 0.39975 0.37112 0.0
C311 C 0.04254 0.36975 0.35163 0.0
C312 C 0.03503 0.42216 0.43749 0.0
C313 C 0.06473 0.36243 0.39892 0.0
C314 C 0.07164 0.38447 0.46695 0.0
C315 C 0.06247 0.43625 0.55943 0.0
C316 C 0.04709 0.466 0.57978 0.0
C317 C 0.05669 0.41434 0.48783 0.0
C318 C 1.02642 0.47375 0.52564 0.0
C319 C 1.02034 0.45204 0.45586 0.0
H320 H 0.88206 0.94658 0.15637 0.0
H321 H 0.88075 0.02637 0.36137 0.0
H322 H 0.92358 0.0419 0.25909 0.0
H323 H 0.96167 0.03225 0.10921 0.0
H324 H 0.9593 0.95441 0.90001 0.0
H325 H 0.9178 0.93868 0.00554 0.0
C326 C 0.89113 0.96744 0.17865 0.0
C327 C 0.87837 0.98521 0.26648 0.0
C328 C 0.91516 0.97655 0.1183 0.0
C329 C 0.89016 1.01234 0.29394 0.0
C330 C 0.91468 0.02114 0.23548 0.0
C331 C 0.95197 1.01191 0.08692 0.0
C332 C 0.96363 0.99454 0.99649 0.0
C333 C 0.92742 1.00338 0.14725 0.0
C334 C 0.95072 0.96836 0.96845 0.0
C335 C 0.92699 0.95925 0.02902 0.0
H336 H 0.55113 0.81695 0.02246 0.0
H337 H 0.53868 0.86402 0.31381 0.0
H338 H 0.53774 0.91565 0.23928 0.0
H339 H 0.53984 0.94753 0.08981 0.0
H340 H 0.5521 0.89905 0.79971 0.0
H341 H 0.55376 0.84822 0.87509 0.0
C342 C 0.54831 0.83853 0.06976 0.0
C343 C 0.54507 0.83654 0.17354 0.0
C344 C 0.5477 0.86803 0.02638 0.0
C345 C 0.54135 0.86475 0.23372 0.0
C346 C 0.54075 0.89432 0.19099 0.0
C347 C 0.5429 0.92586 0.04301 0.0
C348 C 0.5458 0.92742 0.93866 0.0
C349 C 0.54381 0.8963 0.0872 0.0
C350 C 0.54981 0.89889 0.87981 0.0
C351 C 0.55075 0.86965 0.92296 0.0
H352 H 0.78588 0.57822 0.24571 0.0
H353 H 0.73935 0.54703 0.51791 0.0
H354 H 0.69904 0.54419 0.44044 0.0
H355 H 0.67815 0.5471 0.29079 0.0
H356 H 0.72508 0.57959 0.02045 0.0
H357 H 0.764 0.58522 0.10152 0.0
C358 C 0.76679 0.57115 0.28844 0.0
C359 C 0.76563 0.5628 0.38725 0.0
C360 C 0.74381 0.5695 0.2433 0.0
C361 C 0.74079 0.55369 0.44182 0.0
C362 C 0.71776 0.55194 0.3973 0.0
C363 C 0.69668 0.55596 0.24999 0.0
C364 C 0.69862 0.56248 0.14875 0.0
C365 C 0.71915 0.55934 0.29747 0.0
C366 C 0.72305 0.57367 0.09743 0.0
C367 C 0.74535 0.57709 0.14397 0.0
H368 H 0.0418 0.66558 0.34105 0.0
H369 H 0.97275 0.6183 0.48695 0.0
H370 H 0.98019 0.57871 0.34742 0.0
H371 H 1.00474 0.55934 0.17861 0.0
H372 H 0.07246 0.60864 0.03082 0.0
H373 H 0.06727 0.64523 0.1758 0.0
C374 C 1.02864 0.64636 0.34282 0.0
C375 C 1.00688 0.64468 0.42443 0.0
C376 C 1.03269 0.62407 0.26135 0.0
C377 C 0.98972 0.61994 0.42495 0.0
C378 C 0.99393 0.59735 0.34512 0.0
C379 C 1.0185 0.5779 0.17858 0.0
C380 C 0.03883 0.58125 0.09342 0.0
C381 C 1.01511 0.59941 0.26206 0.0
C382 C 0.05643 0.60559 0.09473 0.0
C383 C 0.05353 0.62659 0.17782 0.0
H384 H 0.94857 0.22943 0.29588 0.0
H385 H 1.00075 0.25647 0.49595 0.0
H386 H 0.98204 0.21818 0.612 0.0
H387 H 0.96308 0.16704 0.62698 0.0
H388 H 0.91416 0.13636 0.41961 0.0
H389 H 0.9192 0.18596 0.33653 0.0
C390 C 0.95497 0.22775 0.36684 0.0
C391 C 0.97667 0.2449 0.38574 0.0
C392 C 0.9454 0.20423 0.43034 0.0
C393 C 0.98432 0.24329 0.47887 0.0
C394 C 0.97391 0.22097 0.54476 0.0
C395 C 0.95236 0.17166 0.56669 0.0
C396 C 0.93912 0.14749 0.5272 0.0
C397 C 0.95623 0.19966 0.51709 0.0
C398 C 0.92523 0.15418 0.44937 0.0
C399 C 0.92817 0.18252 0.40166 0.0
H400 H 0.32983 0.9627 0.50243 0.0
H401 H 0.3565 0.8993 0.24261 0.0
H402 H 0.39262 0.87374 0.31791 0.0
H403 H 0.42378 0.88051 0.43398 0.0
H404 H 0.39976 0.94926 0.68243 0.0
H405 H 0.35511 0.96037 0.63872 0.0
C406 C 0.34268 0.94223 0.4647 0.0
C407 C 0.34099 0.93317 0.36678 0.0
C408 C 0.36438 0.929 0.50598 0.0
C409 C 0.35772 0.90674 0.31796 0.0
C410 C 0.37855 0.8924 0.36055 0.0
C411 C 0.40845 0.89726 0.48013 0.0
C412 C 0.41556 0.91479 0.55904 0.0
C413 C 0.38333 0.90504 0.45095 0.0
C414 C 0.39514 0.93556 0.62048 0.0
C415 C 0.36958 0.94231 0.59474 0.0
H416 H 0.51231 0.39584 0.43883 0.0
H417 H 0.57177 0.33556 0.55272 0.0
H418 H 0.58068 0.38032 0.65632 0.0
H419 H 0.57356 0.43742 0.70567 0.0
H420 H 0.51848 0.4978 0.57168 0.0
H421 H 0.50715 0.45229 0.47974 0.0
C422 C 0.52755 0.39243 0.48517 0.0
C423 C 0.54169 0.36245 0.48644 0.0
C424 C 0.53391 0.41847 0.53874 0.0
C425 C 0.56045 0.3583 0.55047 0.0
C426 C 0.56588 0.384 0.6085 0.0
C427 C 0.55942 0.44069 0.65514 0.0
C428 C 0.5468 0.47102 0.64586 0.0
C429 C 0.55321 0.41436 0.60126 0.0
C430 C 0.52841 0.47477 0.58053 0.0
C431 C 0.52177 0.44872 0.52835 0.0
H432 H 0.21603 0.63144 0.16991 0.0
H433 H 0.24625 0.56659 0.36631 0.0
H434 H 0.21314 0.59177 0.50743 0.0
H435 H 0.16875 0.6218 0.56322 0.0
H436 H 0.13715 0.68645 0.36873 0.0
H437 H 0.17791 0.67199 0.23904 0.0
C438 C 0.2159 0.62358 0.24426 0.0
C439 C 0.23309 0.59679 0.25735 0.0
C440 C 0.19619 0.63759 0.32494 0.0
C441 C 0.23317 0.58711 0.35409 0.0
C442 C 0.21401 0.6013 0.43485 0.0
C443 C 0.17113 0.63399 0.49455 0.0
C444 C 0.14924 0.6542 0.47451 0.0
C445 C 0.19433 0.62515 0.41978 0.0
C446 C 0.15317 0.66982 0.38484 0.0
C447 C 0.17648 0.66153 0.31044 0.0
H448 H 0.95521 0.82462 0.4844 0.0
H449 H 1.01225 0.75982 0.27915 0.0
H450 H 1.02216 0.80179 0.16537 0.0
H451 H 1.02559 0.85886 0.15145 0.0
H452 H 0.97443 0.92462 0.37201 0.0
H453 H 0.9517 0.88097 0.45294 0.0
C454 C 0.96891 0.81948 0.41266 0.0
C455 C 0.98396 0.78965 0.39246 0.0
C456 C 0.9767 0.84447 0.3527 0.0
C457 C 1.0008 0.78276 0.29789 0.0
C458 C 1.00703 0.80702 0.23365 0.0
C459 C 1.00922 0.86361 0.21657 0.0
C460 C 1.00234 0.89475 0.2578 0.0
C461 C 0.99702 0.83834 0.26491 0.0
C462 C 0.98039 0.90079 0.33973 0.0
C463 C 0.9674 0.87582 0.38613 0.0
H464 H 0.74077 0.92843 0.21782 0.0
H465 H 0.78185 1.00996 0.11595 0.0
H466 H 0.74736 0.02304 0.01618 0.0
H467 H 0.69875 0.02097 0.00532 0.0
H468 H 0.65441 0.94456 0.1355 0.0
H469 H 0.6963 0.91994 0.17663 0.0
C470 C 0.74284 0.94808 0.16946 0.0
C471 C 0.76291 0.96898 0.1772 0.0
C472 C 0.72137 0.95731 0.12137 0.0
C473 C 0.76615 0.99388 0.1127 0.0
C474 C 0.74601 1.00182 0.05757 0.0
C475 C 0.69839 0.99871 0.0415 0.0
C476 C 0.67335 0.98518 0.07014 0.0
C477 C 0.72229 0.98542 0.06937 0.0
C478 C 0.67334 0.95571 0.11346 0.0
C479 C 0.69731 0.9416 0.13736 0.0
H480 H 0.52288 0.65928 0.38865 0.0
H481 H 0.48084 0.72347 0.21901 0.0
H482 H 0.47163 0.67828 0.11776 0.0
H483 H 0.48098 0.62108 0.06601 0.0
H484 H 0.52309 0.55914 0.24012 0.0
H485 H 0.52455 0.60317 0.35798 0.0
C486 C 0.51044 0.66389 0.3333 0.0
C487 C 0.50248 0.6952 0.31277 0.0
C488 C 0.50478 0.63801 0.27731 0.0
C489 C 0.48767 0.69986 0.23616 0.0
C490 C 0.48215 0.67396 0.17873 0.0
C491 C 0.48935 0.61714 0.13226 0.0
C492 C 0.50182 0.58708 0.14534 0.0
C493 C 0.49128 0.64297 0.19711 0.0
C494 C 0.51319 0.5821 0.22972 0.0
C495 C 0.51438 0.60733 0.29603 0.0
H496 H 0.85122 0.48414 0.31154 0.0
H497 H 0.86725 0.42832 0.55322 0.0
H498 H 0.90149 0.39355 0.43714 0.0
H499 H 0.93421 0.38807 0.27671 0.0
H500 H 0.91987 0.44761 0.04072 0.0
H501 H 0.87683 0.47046 0.14294 0.0
C502 C 0.86125 0.46357 0.33843 0.0
C503 C 0.85732 0.45934 0.44114 0.0
C504 C 0.88155 0.44442 0.27196 0.0
C505 C 0.87049 0.43249 0.47457 0.0
C506 C 0.89014 0.41268 0.40831 0.0
C507 C 0.92125 0.40541 0.24683 0.0
C508 C 0.93073 0.41672 0.15239 0.0
C509 C 0.89712 0.41981 0.30812 0.0
C510 C 0.91331 0.43847 0.11329 0.0
C511 C 0.88875 0.45197 0.17237 0.0
H512 H 1.00326 0.21515 0.0136 0.0
H513 H 0.07973 0.20415 0.11662 0.0
H514 H 0.09086 0.15211 0.0272 0.0
H515 H 0.07545 0.10676 0.93988 0.0
H516 H 0.99814 0.11831 0.84061 0.0
H517 H 0.9908 0.17288 0.9081 0.0
C518 C 1.02277 0.20173 0.01372 0.0
C519 C 0.04069 0.21347 0.07138 0.0
C520 C 1.02856 0.17154 0.96473 0.0
C521 C 0.0658 0.19582 0.0717 0.0
C522 C 0.07194 0.16585 0.02178 0.0
C523 C 0.05715 0.12131 0.93191 0.0
C524 C 0.03716 0.10805 0.88658 0.0
C525 C 0.05294 0.15293 0.97133 0.0
C526 C 1.01377 0.12754 0.87595 0.0
C527 C 1.00951 0.15888 0.91456 0.0
H528 H 0.37513 0.03743 0.21182 0.0
H529 H 0.35021 0.97964 0.98638 0.0
H530 H 0.39385 0.98521 0.87204 0.0
H531 H 0.44154 1.00067 0.84494 0.0
H532 H 0.46644 0.05839 0.07189 0.0
H533 H 0.4206 0.05888 0.17612 0.0
C534 C 0.37884 0.02725 0.13612 0.0
C535 C 0.3592 1.00878 0.10667 0.0
C536 C 0.40435 0.02988 0.07184 0.0
C537 C 0.36466 0.99469 0.00966 0.0
C538 C 0.38983 0.99747 0.94491 0.0
C539 C 0.43686 1.01372 0.91665 0.0
C540 C 0.4577 0.02916 0.95067 0.0
C541 C 0.41025 1.01404 0.97649 0.0
C542 C 0.45101 0.04619 0.04353 0.0
C543 C 0.42472 0.04646 0.10351 0.0
H544 H 0.49072 0.35403 0.18716 0.0
H545 H 0.57705 0.326 0.08456 0.0
H546 H 0.58095 0.37013 0.97482 0.0
H547 H 0.5617 0.42263 0.93512 0.0
H548 H 0.47523 0.45074 0.03799 0.0
H549 H 0.46941 0.40096 0.12068 0.0
C550 C 0.51 0.35653 0.13636 0.0
C551 C 0.53351 0.33646 0.14334 0.0
C552 C 0.51228 0.38288 0.07674 0.0
C553 C 0.55854 0.34056 0.07909 0.0
C554 C 0.5609 0.36636 0.01815 0.0
C555 C 0.54151 0.4176 0.97443 0.0
C556 C 0.51902 0.44067 0.98229 0.0
C557 C 0.53826 0.38867 0.02083 0.0
C558 C 0.49289 0.43354 0.03153 0.0
C559 C 0.48957 0.40505 0.07888 0.0
H560 H 0.21407 0.57011 0.90808 0.0
H561 H 0.21765 0.48075 0.04503 0.0
H562 H 0.17683 0.46677 0.98342 0.0
H563 H 0.13674 0.48316 0.90943 0.0
H564 H 0.13382 0.57227 0.76957 0.0
H565 H 0.1778 0.58298 0.81221 0.0
C566 C 0.20631 0.54721 0.92195 0.0
C567 C 0.21884 0.52647 0.98104 0.0
C568 C 0.18269 0.53951 0.88694 0.0
C569 C 0.20857 0.49694 0.99889 0.0
C570 C 0.18503 0.48912 0.96457 0.0
C571 C 0.14595 0.50468 0.88678 0.0
C572 C 0.13174 0.52704 0.8373 0.0
C573 C 0.17138 0.51069 0.91143 0.0
C574 C 0.14419 0.55463 0.80758 0.0
C575 C 0.16933 0.56087 0.8325 0.0
H576 H 0.05617 0.8128 0.54001 0.0
H577 H 1.0028 0.7926 0.81236 0.0
H578 H 1.00995 0.84377 0.88878 0.0
H579 H 1.0244 0.89824 0.86565 0.0
H580 H 0.07255 0.91946 0.58264 0.0
H581 H 0.07428 0.86443 0.5224 0.0
C582 C 0.04715 0.81907 0.61764 0.0
C583 C 1.02937 0.7988 0.67109 0.0
C584 C 0.04963 0.84938 0.65774 0.0
C585 C 1.01707 0.80748 0.77057 0.0
C586 C 1.02071 0.83706 0.81337 0.0
C587 C 0.03568 0.89059 0.79155 0.0
C588 C 0.0481 0.913 0.72826 0.0
C589 C 0.03581 0.85888 0.75588 0.0
C590 C 0.0625 0.90281 0.63224 0.0
C591 C 0.06361 0.87128 0.59784 0.0
H592 H 0.70874 0.02817 0.42586 0.0
H593 H 0.74034 0.97374 0.64354 0.0
H594 H 0.69364 0.976 0.74671 0.0
H595 H 0.64258 0.98757 0.76264 0.0
H596 H 0.61245 0.0357 0.52849 0.0
H597 H 0.65944 0.04086 0.443 0.0
C598 C 0.70553 0.01729 0.49699 0.0
C599 C 0.72809 1.00073 0.52664 0.0
C600 C 0.67856 0.01663 0.55134 0.0
C601 C 0.72353 0.98691 0.61917 0.0
C602 C 0.69668 0.98772 0.67718 0.0
C603 C 0.64637 0.99923 0.69301 0.0
C604 C 0.62382 1.01088 0.65156 0.0
C605 C 0.67383 1.00144 0.64203 0.0
C606 C 0.6292 0.02603 0.56147 0.0
C607 C 0.65615 0.02924 0.51274 0.0
H608 H 0.50907 0.72916 0.69272 0.0
H609 H 0.58594 0.70651 0.48703 0.0
H610 H 0.59621 0.66057 0.58013 0.0
H611 H 0.5781 0.62049 0.69793 0.0
H612 H 0.49992 0.64343 0.89839 0.0
H613 H 0.49556 0.69512 0.83078 0.0
C614 C 0.52877 0.7152 0.67178 0.0
C615 C 0.54675 0.72141 0.58337 0.0
C616 C 0.53383 0.68789 0.72284 0.0
C617 C 0.57196 0.70264 0.55574 0.0
C618 C 0.57752 0.67585 0.60779 0.0
C619 C 0.56049 0.63712 0.72848 0.0
C620 C 0.53906 0.62754 0.8016 0.0
C621 C 0.55783 0.66715 0.688 0.0
C622 C 0.51647 0.64965 0.84057 0.0
C623 C 0.51393 0.67942 0.8021 0.0
H624 H 0.87397 0.49339 0.77635 0.0
H625 H 0.87672 0.58139 0.63055 0.0
H626 H 0.91839 0.59208 0.69182 0.0
H627 H 0.95798 0.57214 0.76429 0.0
H628 H 0.95577 0.48244 0.90211 0.0
H629 H 0.91021 0.47676 0.86674 0.0
C630 C 0.8833 0.51532 0.76024 0.0
C631 C 0.87228 0.53648 0.69848 0.0
C632 C 0.90779 0.52068 0.79261 0.0
C633 C 0.88455 0.56484 0.67858 0.0
C634 C 0.90865 0.57072 0.7125 0.0
C635 C 0.94732 0.55165 0.78841 0.0
C636 C 0.96062 0.52756 0.83469 0.0
C637 C 0.9211 0.54818 0.76612 0.0
C638 C 0.94634 0.5012 0.86527 0.0
C639 C 0.92019 0.49789 0.84508 0.0
loop_
_geom_bond_atom_site_label_1
_geom_bond_atom_site_label_2
_geom_bond_distance
_geom_bond_site_symmetry_2
_ccdc_geom_bond_type
H0 C5 0.930 . S
H1 C8 0.930 . S
H2 C10 0.930 . S
H3 C4 1.016 . S
C4 H3 1.016 . S
C4 N11 1.286 . S
C5 H0 0.930 . S
C5 C6 1.397 . S
C5 C7 1.361 . S
C6 C5 1.397 . S
C6 C10 1.390 . S
C7 C5 1.361 . S
C7 C8 1.393 . S
C7 N11 1.413 . S
C8 H1 0.930 . S
C8 C7 1.393 . S
C8 C9 1.399 . S
C9 C8 1.399 . S
C9 C10 1.381 . S
C10 H2 0.930 . S
C10 C6 1.390 . S
C10 C9 1.381 . S
N11 C4 1.286 . S
N11 C7 1.413 . S
H12 C17 0.930 . S
H13 C20 0.930 . S
H14 C22 0.930 . S
H15 C16 1.016 . S
C16 H15 1.016 . S
C16 N23 1.286 1_655 S
C17 H12 0.930 . S
C17 C18 1.399 . S
C17 C19 1.361 . S
C18 C17 1.399 . S
C18 C22 1.386 1_455 S
C19 C17 1.361 . S
C19 C20 1.393 . S
C19 N23 1.413 . S
C20 H13 0.930 . S
C20 C19 1.393 . S
C20 C21 1.399 1_455 S
C21 C20 1.399 1_655 S
C21 C22 1.381 . S
C22 H14 0.930 . S
C22 C18 1.386 1_655 S
C22 C21 1.381 . S
N23 C16 1.286 1_455 S
N23 C19 1.413 . S
H24 C29 0.930 . S
H25 C32 0.930 . S
H26 C34 0.930 . S
H27 C28 1.016 . S
C28 H27 1.016 . S
C28 N35 1.286 1_565 S
C29 H24 0.930 . S
C29 C30 1.397 . S
C29 C31 1.361 . S
C30 C29 1.397 . S
C30 C34 1.390 1_545 S
C31 C29 1.361 . S
C31 C32 1.393 . S
C31 N35 1.413 . S
C32 H25 0.930 . S
C32 C31 1.393 . S
C32 C33 1.405 . S
C33 C32 1.405 . S
C33 C34 1.377 1_545 S
C34 H26 0.930 . S
C34 C30 1.390 1_565 S
C34 C33 1.377 1_565 S
N35 C28 1.286 1_545 S
N35 C31 1.413 . S
H36 C41 0.930 . S
H37 C44 0.930 . S
H38 C46 0.930 . S
H39 C40 1.016 . S
C40 H39 1.016 . S
C40 N47 1.286 . S
C41 H36 0.930 . S
C41 C42 1.397 . S
C41 C43 1.361 . S
C42 C41 1.397 . S
C42 C46 1.390 . S
C43 C41 1.361 . S
C43 C44 1.393 . S
C43 N47 1.413 . S
C44 H37 0.930 . S
C44 C43 1.393 . S
C44 C45 1.399 . S
C45 C44 1.399 . S
C45 C46 1.381 . S
C46 H38 0.930 . S
C46 C42 1.390 . S
C46 C45 1.381 . S
N47 C40 1.286 . S
N47 C43 1.413 . S
H48 C53 0.930 . S
H49 C56 0.930 . S
H50 C58 0.930 . S
H51 C52 1.016 . S
C52 H51 1.016 . S
C52 N59 1.286 1_554 S
C53 H48 0.930 . S
C53 C54 1.397 . S
C53 C55 1.361 . S
C54 C53 1.397 . S
C54 C58 1.390 . S
C55 C53 1.361 . S
C55 C56 1.393 1_556 S
C55 N59 1.413 . S
C56 H49 0.930 . S
C56 C55 1.393 1_554 S
C56 C57 1.399 . S
C57 C56 1.399 . S
C57 C58 1.381 1_554 S
C58 H50 0.930 . S
C58 C54 1.390 . S
C58 C57 1.381 1_556 S
N59 C52 1.286 1_556 S
N59 C55 1.413 . S
H60 C65 0.930 1_556 S
H61 C68 0.930 . S
H62 C70 0.930 1_655 S
H63 C64 1.016 1_655 S
C64 H63 1.016 1_455 S
C64 N71 1.286 . S
C65 H60 0.930 1_554 S
C65 C66 1.397 . S
C65 C67 1.361 . S
C66 C65 1.397 . S
C66 C70 1.390 . S
C67 C65 1.361 . S
C67 C68 1.393 . S
C67 N71 1.413 . S
C68 H61 0.930 . S
C68 C67 1.393 . S
C68 C69 1.399 . S
C69 C68 1.399 . S
C69 C70 1.381 . S
C70 H62 0.930 1_455 S
C70 C66 1.390 . S
C70 C69 1.381 . S
N71 C64 1.286 . S
N71 C67 1.413 . S
H72 C77 0.930 . S
H73 C80 0.930 . S
H74 C82 0.930 . S
H75 C76 1.027 . S
C76 H75 1.027 . S
C76 N83 1.269 1_565 S
C77 H72 0.930 . S
C77 C78 1.397 . S
C77 C79 1.361 . S
C78 C77 1.397 . S
C78 C82 1.390 1_545 S
C79 C77 1.361 . S
C79 C80 1.393 . S
C79 N83 1.413 . S
C80 H73 0.930 . S
C80 C79 1.393 . S
C80 C81 1.401 . S
C81 C80 1.401 . S
C81 C82 1.381 1_545 S
C82 H74 0.930 . S
C82 C78 1.390 1_565 S
C82 C81 1.381 1_565 S
N83 C76 1.269 1_545 S
N83 C79 1.413 . S
H84 C89 0.930 . S
H85 C92 0.930 . S
H86 C94 0.930 . S
H87 C88 1.016 . S
C88 H87 1.016 . S
C88 N95 1.286 . S
C89 H84 0.930 . S
C89 C90 1.397 . S
C89 C91 1.361 . S
C90 C89 1.397 . S
C90 C94 1.390 . S
C91 C89 1.361 . S
C91 C92 1.393 . S
C91 N95 1.413 . S
C92 H85 0.930 . S
C92 C91 1.393 . S
C92 C93 1.399 . S
C93 C92 1.399 . S
C93 C94 1.381 . S
C94 H86 0.930 . S
C94 C90 1.390 . S
C94 C93 1.381 . S
N95 C88 1.286 . S
N95 C91 1.413 . S
Dy96 O99 2.307 1_545 S
Dy96 O101 2.395 1_655 S
Dy96 O102 2.379 . S
Dy96 O104 2.339 . S
Dy96 O106 2.298 . S
Dy96 O110 2.275 1_655 S
Dy96 C118 2.738 . S
Dy97 O100 2.298 . S
Dy97 O103 2.275 1_455 S
Dy97 O105 2.307 1_565 S
Dy97 O107 2.395 1_456 S
Dy97 O108 2.379 1_556 S
Dy97 O111 2.339 . S
Dy97 C127 2.738 1_556 S
C98 O110 1.254 1_565 S
C98 O111 1.257 . S
O99 Dy96 2.307 1_565 S
O99 C109 1.266 . S
O100 Dy97 2.298 . S
O100 C109 1.236 1_455 S
O101 Dy96 2.395 1_455 S
O101 C118 1.255 1_455 S
O102 Dy96 2.379 . S
O102 C118 1.249 . S
O103 Dy97 2.275 1_655 S
O103 C119 1.254 1_565 S
O104 Dy96 2.339 . S
O104 C119 1.257 . S
O105 Dy97 2.307 1_545 S
O105 C120 1.266 . S
O106 Dy96 2.298 . S
O106 C120 1.236 1_655 S
O107 Dy97 2.395 1_654 S
O107 C127 1.255 1_655 S
O108 Dy97 2.379 1_554 S
O108 C127 1.249 . S
C109 O99 1.266 . S
C109 O100 1.236 1_655 S
O110 Dy96 2.275 1_455 S
O110 C98 1.254 1_545 S
O111 Dy97 2.339 . S
O111 C98 1.257 . S
C112 C115 1.344 1_655 S
C112 C116 1.328 . S
C112 C118 1.516 . S
C113 C114 1.304 1_655 S
C113 C117 1.323 . S
C114 C113 1.304 1_455 S
C114 C115 1.371 . S
C114 H128 0.930 . S
C115 C112 1.344 1_455 S
C115 C114 1.371 . S
C115 H129 0.931 . S
C116 C112 1.328 . S
C116 C117 1.433 . S
C116 H130 0.931 . S
C117 C113 1.323 . S
C117 C116 1.433 . S
C117 H131 0.933 . S
C118 Dy96 2.738 . S
C118 O101 1.255 1_655 S
C118 O102 1.249 . S
C118 C112 1.516 . S
C119 O103 1.254 1_545 S
C119 O104 1.257 . S
C120 O105 1.266 . S
C120 O106 1.236 1_455 S
C121 C124 1.344 1_455 S
C121 C125 1.328 . S
C121 C127 1.516 . S
C122 C123 1.304 1_455 S
C122 C126 1.323 . S
C123 C122 1.304 1_655 S
C123 C124 1.371 . S
C123 H132 0.930 . S
C124 C121 1.344 1_655 S
C124 C123 1.371 . S
C124 H133 0.931 . S
C125 C121 1.328 . S
C125 C126 1.433 . S
C125 H134 0.931 . S
C126 C122 1.323 . S
C126 C125 1.433 . S
C126 H135 0.933 . S
C127 Dy97 2.738 1_554 S
C127 O107 1.255 1_455 S
C127 O108 1.249 . S
C127 C121 1.516 . S
H128 C114 0.930 . S
H129 C115 0.931 . S
H130 C116 0.931 . S
H131 C117 0.933 . S
H132 C123 0.930 . S
H133 C124 0.931 . S
H134 C125 0.931 . S
H135 C126 0.933 . S
Dy136 O139 2.307 . S
Dy136 O141 2.395 1_565 S
Dy136 O142 2.379 . S
Dy136 O144 2.339 . S
Dy136 O146 2.298 . S
Dy136 O150 2.275 1_565 S
Dy136 C158 2.738 . S
Dy137 O140 2.298 . S
Dy137 O143 2.275 1_545 S
Dy137 O145 2.307 . S
Dy137 O147 2.395 1_546 S
Dy137 O148 2.379 1_556 S
Dy137 O151 2.339 . S
Dy137 C167 2.738 1_556 S
C138 O150 1.254 . S
C138 O151 1.257 . S
O139 Dy136 2.307 . S
O139 C149 1.266 . S
O140 Dy137 2.298 . S
O140 C149 1.236 1_545 S
O141 Dy136 2.395 1_545 S
O141 C158 1.255 1_545 S
O142 Dy136 2.379 . S
O142 C158 1.249 . S
O143 Dy137 2.275 1_565 S
O143 C159 1.254 . S
O144 Dy136 2.339 . S
O144 C159 1.257 . S
O145 Dy137 2.307 . S
O145 C160 1.266 . S
O146 Dy136 2.298 . S
O146 C160 1.236 1_565 S
O147 Dy137 2.395 1_564 S
O147 C167 1.255 1_565 S
O148 Dy137 2.379 1_554 S
O148 C167 1.249 . S
C149 O139 1.266 . S
C149 O140 1.236 1_565 S
O150 Dy136 2.275 1_545 S
O150 C138 1.254 . S
O151 Dy137 2.339 . S
O151 C138 1.257 . S
C152 C155 1.344 1_565 S
C152 C156 1.328 . S
C152 C158 1.516 . S
C153 C154 1.288 1_565 S
C153 C157 1.323 . S
C154 C153 1.288 1_545 S
C154 C155 1.373 . S
C154 H168 0.946 . S
C155 C152 1.344 1_545 S
C155 C154 1.373 . S
C155 H169 0.931 . S
C156 C152 1.328 . S
C156 C157 1.433 . S
C156 H170 0.931 . S
C157 C153 1.323 . S
C157 C156 1.433 . S
C157 H171 0.933 . S
C158 Dy136 2.738 . S
C158 O141 1.255 1_565 S
C158 O142 1.249 . S
C158 C152 1.516 . S
C159 O143 1.254 . S
C159 O144 1.257 . S
C160 O145 1.266 . S
C160 O146 1.236 1_545 S
C161 C164 1.344 1_545 S
C161 C165 1.328 . S
C161 C167 1.516 . S
C162 C163 1.295 1_545 S
C162 C166 1.323 . S
C163 C162 1.295 1_565 S
C163 C164 1.372 . S
C163 H172 0.939 . S
C164 C161 1.344 1_565 S
C164 C163 1.372 . S
C164 H173 0.931 . S
C165 C161 1.328 . S
C165 C166 1.433 . S
C165 H174 0.931 . S
C166 C162 1.323 . S
C166 C165 1.433 . S
C166 H175 0.933 . S
C167 Dy137 2.738 1_554 S
C167 O147 1.255 1_545 S
C167 O148 1.249 . S
C167 C161 1.516 . S
H168 C154 0.946 . S
H169 C155 0.931 . S
H170 C156 0.931 . S
H171 C157 0.933 . S
H172 C163 0.939 . S
H173 C164 0.931 . S
H174 C165 0.931 . S
H175 C166 0.933 . S
Dy176 O179 2.307 . S
Dy176 O181 2.395 . S
Dy176 O182 2.379 . S
Dy176 O184 2.339 . S
Dy176 O186 2.298 . S
Dy176 O190 2.275 . S
Dy176 C198 2.738 . S
Dy177 O180 2.298 . S
Dy177 O183 2.275 . S
Dy177 O185 2.307 . S
Dy177 O187 2.395 . S
Dy177 O188 2.379 . S
Dy177 O191 2.339 . S
Dy177 C207 2.738 . S
C178 O190 1.254 . S
C178 O191 1.257 . S
O179 Dy176 2.307 . S
O179 C189 1.266 . S
O180 Dy177 2.298 . S
O180 C189 1.236 . S
O181 Dy176 2.395 . S
O181 C198 1.255 . S
O182 Dy176 2.379 . S
O182 C198 1.249 . S
O183 Dy177 2.275 . S
O183 C199 1.254 . S
O184 Dy176 2.339 . S
O184 C199 1.257 . S
O185 Dy177 2.307 . S
O185 C200 1.266 . S
O186 Dy176 2.298 . S
O186 C200 1.236 . S
O187 Dy177 2.395 . S
O187 C207 1.255 . S
O188 Dy177 2.379 . S
O188 C207 1.249 . S
C189 O179 1.266 . S
C189 O180 1.236 . S
O190 Dy176 2.275 . S
O190 C178 1.254 . S
O191 Dy177 2.339 . S
O191 C178 1.257 . S
C192 C195 1.347 . S
C192 C196 1.327 1_554 S
C192 C198 1.513 1_554 S
C193 C194 1.304 . S
C193 C197 1.323 . S
C194 C193 1.304 . S
C194 C195 1.371 . S
C194 H208 0.930 . S
C195 C192 1.347 . S
C195 C194 1.371 . S
C195 H209 0.931 . S
C196 C192 1.327 1_556 S
C196 C197 1.433 1_556 S
C196 H210 0.931 . S
C197 C193 1.323 . S
C197 C196 1.433 1_554 S
C197 H211 0.933 1_554 S
C198 Dy176 2.738 . S
C198 O181 1.255 . S
C198 O182 1.249 . S
C198 C192 1.513 1_556 S
C199 O183 1.254 . S
C199 O184 1.257 . S
C200 O185 1.266 . S
C200 O186 1.236 . S
C201 C204 1.344 . S
C201 C205 1.328 . S
C201 C207 1.516 . S
C202 C203 1.304 . S
C202 C206 1.323 . S
C203 C202 1.304 . S
C203 C204 1.371 . S
C203 H212 0.930 . S
C204 C201 1.344 . S
C204 C203 1.371 . S
C204 H213 0.931 . S
C205 C201 1.328 . S
C205 C206 1.433 . S
C205 H214 0.931 . S
C206 C202 1.323 . S
C206 C205 1.433 . S
C206 H215 0.933 . S
C207 Dy177 2.738 . S
C207 O187 1.255 . S
C207 O188 1.249 . S
C207 C201 1.516 . S
H208 C194 0.930 . S
H209 C195 0.931 . S
H210 C196 0.931 . S
H211 C197 0.933 1_556 S
H212 C203 0.930 . S
H213 C204 0.931 . S
H214 C205 0.931 . S
H215 C206 0.933 . S
Dy216 O219 2.307 1_455 S
Dy216 O221 2.395 . S
Dy216 O222 2.379 . S
Dy216 O224 2.339 . S
Dy216 O226 2.298 . S
Dy216 O230 2.275 . S
Dy216 C238 2.738 . S
Dy217 O220 2.298 . S
Dy217 O223 2.275 . S
Dy217 O225 2.307 1_655 S
Dy217 O227 2.395 1_556 S
Dy217 O228 2.379 1_556 S
Dy217 O231 2.339 . S
Dy217 C247 2.738 1_556 S
C218 O230 1.264 . S
C218 O231 1.246 1_455 S
O219 Dy216 2.307 1_655 S
O219 C229 1.266 . S
O220 Dy217 2.298 . S
O220 C229 1.236 . S
O221 Dy216 2.395 . S
O221 C238 1.255 . S
O222 Dy216 2.379 . S
O222 C238 1.249 . S
O223 Dy217 2.275 . S
O223 C239 1.254 1_655 S
O224 Dy216 2.339 . S
O224 C239 1.257 . S
O225 Dy217 2.307 1_455 S
O225 C240 1.266 . S
O226 Dy216 2.298 . S
O226 C240 1.236 . S
O227 Dy217 2.395 1_554 S
O227 C247 1.255 . S
O228 Dy217 2.379 1_554 S
O228 C247 1.249 . S
C229 O219 1.266 . S
C229 O220 1.236 . S
O230 Dy216 2.275 . S
O230 C218 1.264 . S
O231 Dy217 2.339 . S
O231 C218 1.246 1_655 S
C232 C235 1.344 . S
C232 C236 1.328 . S
C232 C238 1.516 . S
C233 C234 1.304 . S
C233 C237 1.323 . S
C234 C233 1.304 . S
C234 C235 1.371 . S
C234 H248 0.930 . S
C235 C232 1.344 . S
C235 C234 1.371 . S
C235 H249 0.931 . S
C236 C232 1.328 . S
C236 C237 1.433 . S
C236 H250 0.931 . S
C237 C233 1.323 . S
C237 C236 1.433 . S
C237 H251 0.933 . S
C238 Dy216 2.738 . S
C238 O221 1.255 . S
C238 O222 1.249 . S
C238 C232 1.516 . S
C239 O223 1.254 1_455 S
C239 O224 1.257 . S
C240 O225 1.266 . S
C240 O226 1.236 . S
C241 C244 1.344 . S
C241 C245 1.328 . S
C241 C247 1.516 . S
C242 C243 1.304 . S
C242 C246 1.323 . S
C243 C242 1.304 . S
C243 C244 1.371 . S
C243 H252 0.930 . S
C244 C241 1.344 . S
C244 C243 1.371 . S
C244 H253 0.931 . S
C245 C241 1.328 . S
C245 C246 1.433 . S
C245 H254 0.931 . S
C246 C242 1.323 . S
C246 C245 1.433 . S
C246 H255 0.933 . S
C247 Dy217 2.738 1_554 S
C247 O227 1.255 . S
C247 O228 1.249 . S
C247 C241 1.516 . S
H248 C234 0.930 . S
H249 C235 0.931 . S
H250 C236 0.931 . S
H251 C237 0.933 . S
H252 C243 0.930 . S
H253 C244 0.931 . S
H254 C245 0.931 . S
H255 C246 0.933 . S
H256 C262 0.930 . S
H257 C265 0.930 . S
H258 C266 0.930 . S
H259 C267 0.930 . S
H260 C270 0.930 . S
H261 C271 0.930 . S
C262 H256 0.930 . S
C262 C263 1.355 1_565 S
C262 C264 1.415 . S
C263 C262 1.355 1_545 S
C263 C265 1.419 . S
C264 C262 1.415 . S
C264 C269 1.425 1_565 S
C264 C271 1.409 . S
C265 H257 0.930 . S
C265 C263 1.419 . S
C265 C266 1.362 . S
C266 H258 0.930 . S
C266 C265 1.362 . S
C266 C269 1.409 . S
C267 H259 0.930 . S
C267 C268 1.343 1_545 S
C267 C269 1.415 . S
C268 C267 1.343 1_565 S
C268 C270 1.431 . S
C269 C264 1.425 1_545 S
C269 C266 1.409 . S
C269 C267 1.415 . S
C270 H260 0.930 . S
C270 C268 1.431 . S
C270 C271 1.362 . S
C271 H261 0.930 . S
C271 C264 1.409 . S
C271 C270 1.362 . S
H272 C278 0.930 . S
H273 C281 0.930 . S
H274 C282 0.930 . S
H275 C283 0.930 . S
H276 C286 0.930 . S
H277 C287 0.930 . S
C278 H272 0.930 . S
C278 C279 1.355 . S
C278 C280 1.415 . S
C279 C278 1.355 . S
C279 C281 1.419 . S
C280 C278 1.415 . S
C280 C285 1.425 . S
C280 C287 1.409 . S
C281 H273 0.930 . S
C281 C279 1.419 . S
C281 C282 1.362 . S
C282 H274 0.930 . S
C282 C281 1.362 . S
C282 C285 1.409 . S
C283 H275 0.930 . S
C283 C284 1.355 . S
C283 C285 1.415 . S
C284 C283 1.355 . S
C284 C286 1.419 . S
C285 C280 1.425 . S
C285 C282 1.409 . S
C285 C283 1.415 . S
C286 H276 0.930 . S
C286 C284 1.419 . S
C286 C287 1.362 . S
C287 H277 0.930 . S
C287 C280 1.409 . S
C287 C286 1.362 . S
H288 C294 0.930 . S
H289 C297 0.930 . S
H290 C298 0.930 . S
H291 C299 0.930 . S
H292 C302 0.930 . S
H293 C303 0.930 . S
C294 H288 0.930 . S
C294 C295 1.355 . S
C294 C296 1.415 . S
C295 C294 1.355 . S
C295 C297 1.419 . S
C296 C294 1.415 . S
C296 C301 1.425 . S
C296 C303 1.409 . S
C297 H289 0.930 . S
C297 C295 1.419 . S
C297 C298 1.362 . S
C298 H290 0.930 . S
C298 C297 1.362 . S
C298 C301 1.409 . S
C299 H291 0.930 . S
C299 C300 1.355 . S
C299 C301 1.415 . S
C300 C299 1.355 . S
C300 C302 1.419 . S
C301 C296 1.425 . S
C301 C298 1.409 . S
C301 C299 1.415 . S
C302 H292 0.930 . S
C302 C300 1.419 . S
C302 C303 1.362 . S
C303 H293 0.930 . S
C303 C296 1.409 . S
C303 C302 1.362 . S
H304 C310 0.930 . S
H305 C313 0.930 . S
H306 C314 0.930 . S
H307 C315 0.930 . S
H308 C318 0.930 . S
H309 C319 0.930 . S
C310 H304 0.930 . S
C310 C311 1.355 1_655 S
C310 C312 1.415 . S
C311 C310 1.355 1_455 S
C311 C313 1.419 . S
C312 C310 1.415 . S
C312 C317 1.425 1_655 S
C312 C319 1.409 . S
C313 H305 0.930 . S
C313 C311 1.419 . S
C313 C314 1.362 . S
C314 H306 0.930 . S
C314 C313 1.362 . S
C314 C317 1.409 . S
C315 H307 0.930 . S
C315 C316 1.355 . S
C315 C317 1.415 . S
C316 C315 1.355 . S
C316 C318 1.419 1_455 S
C317 C312 1.425 1_455 S
C317 C314 1.409 . S
C317 C315 1.415 . S
C318 H308 0.930 . S
C318 C316 1.419 1_655 S
C318 C319 1.362 . S
C319 H309 0.930 . S
C319 C312 1.409 . S
C319 C318 1.362 . S
H320 C326 0.930 . S
H321 C329 0.930 . S
H322 C330 0.930 . S
H323 C331 0.930 . S
H324 C334 0.930 . S
H325 C335 0.930 . S
C326 H320 0.930 . S
C326 C327 1.339 1_565 S
C326 C328 1.415 . S
C327 C326 1.339 1_545 S
C327 C329 1.444 . S
C328 C326 1.415 . S
C328 C333 1.425 1_565 S
C328 C335 1.409 . S
C329 H321 0.930 . S
C329 C327 1.444 . S
C329 C330 1.362 . S
C330 H322 0.930 . S
C330 C329 1.362 . S
C330 C333 1.409 . S
C331 H323 0.930 . S
C331 C332 1.355 1_545 S
C331 C333 1.415 . S
C332 C331 1.355 1_565 S
C332 C334 1.419 1_554 S
C333 C328 1.425 1_545 S
C333 C330 1.409 . S
C333 C331 1.415 . S
C334 H324 0.930 . S
C334 C332 1.419 1_556 S
C334 C335 1.362 1_556 S
C335 H325 0.930 . S
C335 C328 1.409 . S
C335 C334 1.362 1_554 S
H336 C342 0.930 . S
H337 C345 0.930 . S
H338 C346 0.930 . S
H339 C347 0.930 . S
H340 C350 0.930 . S
H341 C351 0.930 . S
C342 H336 0.930 . S
C342 C343 1.355 . S
C342 C344 1.415 . S
C343 C342 1.355 . S
C343 C345 1.419 . S
C344 C342 1.415 . S
C344 C349 1.425 . S
C344 C351 1.409 1_554 S
C345 H337 0.930 . S
C345 C343 1.419 . S
C345 C346 1.362 . S
C346 H338 0.930 . S
C346 C345 1.362 . S
C346 C349 1.409 . S
C347 H339 0.930 . S
C347 C348 1.355 1_554 S
C347 C349 1.415 . S
C348 C347 1.355 1_556 S
C348 C350 1.419 . S
C349 C344 1.425 . S
C349 C346 1.409 . S
C349 C347 1.415 . S
C350 H340 0.930 . S
C350 C348 1.419 . S
C350 C351 1.362 . S
C351 H341 0.930 . S
C351 C344 1.409 1_556 S
C351 C350 1.362 . S
H352 C358 0.930 . S
H353 C361 0.930 . S
H354 C362 0.930 . S
H355 C363 0.930 . S
H356 C366 0.930 . S
H357 C367 0.930 . S
C358 H352 0.930 . S
C358 C359 1.355 . S
C358 C360 1.415 . S
C359 C358 1.355 . S
C359 C361 1.419 . S
C360 C358 1.415 . S
C360 C365 1.425 . S
C360 C367 1.409 . S
C361 H353 0.930 . S
C361 C359 1.419 . S
C361 C362 1.362 . S
C362 H354 0.930 . S
C362 C361 1.362 . S
C362 C365 1.409 . S
C363 H355 0.930 . S
C363 C364 1.355 . S
C363 C365 1.415 . S
C364 C363 1.355 . S
C364 C366 1.419 . S
C365 C360 1.425 . S
C365 C362 1.409 . S
C365 C363 1.415 . S
C366 H356 0.930 . S
C366 C364 1.419 . S
C366 C367 1.362 . S
C367 H357 0.930 . S
C367 C360 1.409 . S
C367 C366 1.362 . S
H368 C374 0.930 . S
H369 C377 0.930 . S
H370 C378 0.930 . S
H371 C379 0.930 . S
H372 C382 0.930 1_556 S
H373 C383 0.930 . S
C374 H368 0.930 . S
C374 C375 1.355 1_455 S
C374 C376 1.415 . S
C375 C374 1.355 1_655 S
C375 C377 1.419 . S
C376 C374 1.415 . S
C376 C381 1.425 1_455 S
C376 C383 1.409 . S
C377 H369 0.930 . S
C377 C375 1.419 . S
C377 C378 1.362 . S
C378 H370 0.930 . S
C378 C377 1.362 . S
C378 C381 1.409 . S
C379 H371 0.930 . S
C379 C380 1.355 1_655 S
C379 C381 1.415 . S
C380 C379 1.355 1_455 S
C380 C382 1.419 . S
C381 C376 1.425 1_655 S
C381 C378 1.409 . S
C381 C379 1.415 . S
C382 H372 0.930 1_554 S
C382 C380 1.419 . S
C382 C383 1.362 . S
C383 H373 0.930 . S
C383 C376 1.409 . S
C383 C382 1.362 . S
H384 C390 0.930 . S
H385 C393 0.930 . S
H386 C394 0.930 . S
H387 C395 0.930 1_455 S
H388 C398 0.930 . S
H389 C399 0.930 . S
C390 H384 0.930 . S
C390 C391 1.355 1_655 S
C390 C392 1.415 . S
C391 C390 1.355 1_455 S
C391 C393 1.419 . S
C392 C390 1.415 . S
C392 C397 1.426 1_655 S
C392 C399 1.409 . S
C393 H385 0.930 . S
C393 C391 1.419 . S
C393 C394 1.362 . S
C394 H386 0.930 . S
C394 C393 1.362 . S
C394 C397 1.408 . S
C395 H387 0.930 1_655 S
C395 C396 1.355 . S
C395 C397 1.415 1_655 S
C396 C395 1.355 . S
C396 C398 1.419 . S
C397 C392 1.426 1_455 S
C397 C394 1.408 . S
C397 C395 1.415 1_455 S
C398 H388 0.930 . S
C398 C396 1.419 . S
C398 C399 1.362 . S
C399 H389 0.930 . S
C399 C392 1.409 . S
C399 C398 1.362 . S
H400 C406 0.930 . S
H401 C409 0.930 . S
H402 C410 0.930 . S
H403 C411 0.930 . S
H404 C414 0.930 . S
H405 C415 0.930 . S
C406 H400 0.930 . S
C406 C407 1.355 1_545 S
C406 C408 1.415 . S
C407 C406 1.355 1_565 S
C407 C409 1.419 . S
C408 C406 1.415 . S
C408 C413 1.425 1_545 S
C408 C415 1.409 . S
C409 H401 0.930 . S
C409 C407 1.419 . S
C409 C410 1.362 . S
C410 H402 0.930 . S
C410 C409 1.362 . S
C410 C413 1.409 . S
C411 H403 0.930 . S
C411 C412 1.355 . S
C411 C413 1.415 . S
C412 C411 1.355 . S
C412 C414 1.419 1_565 S
C413 C408 1.425 1_565 S
C413 C410 1.409 . S
C413 C411 1.415 . S
C414 H404 0.930 . S
C414 C412 1.419 1_545 S
C414 C415 1.362 . S
C415 H405 0.930 . S
C415 C408 1.409 . S
C415 C414 1.362 . S
H416 C422 0.930 . S
H417 C425 0.930 . S
H418 C426 0.930 . S
H419 C427 0.930 . S
H420 C430 0.930 . S
H421 C431 0.930 . S
C422 H416 0.930 . S
C422 C423 1.355 . S
C422 C424 1.415 . S
C423 C422 1.355 . S
C423 C425 1.419 . S
C424 C422 1.415 . S
C424 C429 1.425 . S
C424 C431 1.409 . S
C425 H417 0.930 . S
C425 C423 1.419 . S
C425 C426 1.362 . S
C426 H418 0.930 . S
C426 C425 1.362 . S
C426 C429 1.409 . S
C427 H419 0.930 . S
C427 C428 1.355 . S
C427 C429 1.415 . S
C428 C427 1.355 . S
C428 C430 1.419 . S
C429 C424 1.425 . S
C429 C426 1.409 . S
C429 C427 1.415 . S
C430 H420 0.930 . S
C430 C428 1.419 . S
C430 C431 1.362 . S
C431 H421 0.930 . S
C431 C424 1.409 . S
C431 C430 1.362 . S
H432 C438 0.930 . S
H433 C441 0.930 . S
H434 C442 0.930 . S
H435 C443 0.930 . S
H436 C446 0.930 . S
H437 C447 0.930 . S
C438 H432 0.930 . S
C438 C439 1.355 . S
C438 C440 1.415 . S
C439 C438 1.355 . S
C439 C441 1.419 . S
C440 C438 1.415 . S
C440 C445 1.425 . S
C440 C447 1.409 . S
C441 H433 0.930 . S
C441 C439 1.419 . S
C441 C442 1.362 . S
C442 H434 0.930 . S
C442 C441 1.362 . S
C442 C445 1.409 . S
C443 H435 0.930 . S
C443 C444 1.355 . S
C443 C445 1.415 . S
C444 C443 1.355 . S
C444 C446 1.419 . S
C445 C440 1.425 . S
C445 C442 1.409 . S
C445 C443 1.415 . S
C446 H436 0.930 . S
C446 C444 1.419 . S
C446 C447 1.362 . S
C447 H437 0.930 . S
C447 C440 1.409 . S
C447 C446 1.362 . S
H448 C454 0.930 . S
H449 C457 0.930 . S
H450 C458 0.930 . S
H451 C459 0.930 . S
H452 C462 0.930 . S
H453 C463 0.930 . S
C454 H448 0.930 . S
C454 C455 1.356 1_655 S
C454 C456 1.415 . S
C455 C454 1.356 1_455 S
C455 C457 1.417 . S
C456 C454 1.415 . S
C456 C461 1.425 1_655 S
C456 C463 1.409 . S
C457 H449 0.930 . S
C457 C455 1.417 . S
C457 C458 1.362 . S
C458 H450 0.930 . S
C458 C457 1.362 . S
C458 C461 1.409 . S
C459 H451 0.930 . S
C459 C460 1.355 . S
C459 C461 1.415 . S
C460 C459 1.355 . S
C460 C462 1.419 1_455 S
C461 C456 1.425 1_455 S
C461 C458 1.409 . S
C461 C459 1.415 . S
C462 H452 0.930 . S
C462 C460 1.419 1_655 S
C462 C463 1.362 . S
C463 H453 0.930 . S
C463 C456 1.409 . S
C463 C462 1.362 . S
H464 C470 0.930 . S
H465 C473 0.930 . S
H466 C474 0.930 . S
H467 C475 0.930 . S
H468 C478 0.930 . S
H469 C479 0.930 . S
C470 H464 0.930 . S
C470 C471 1.355 1_565 S
C470 C472 1.415 . S
C471 C470 1.355 1_545 S
C471 C473 1.419 . S
C472 C470 1.415 . S
C472 C477 1.423 1_565 S
C472 C479 1.410 . S
C473 H465 0.930 . S
C473 C471 1.419 . S
C473 C474 1.362 . S
C474 H466 0.930 . S
C474 C473 1.362 . S
C474 C477 1.409 . S
C475 H467 0.930 . S
C475 C476 1.355 . S
C475 C477 1.415 . S
C476 C475 1.355 . S
C476 C478 1.419 1_545 S
C477 C472 1.423 1_545 S
C477 C474 1.409 . S
C477 C475 1.415 . S
C478 H468 0.930 . S
C478 C476 1.419 1_565 S
C478 C479 1.362 . S
C479 H469 0.930 . S
C479 C472 1.410 . S
C479 C478 1.362 . S
H480 C486 0.930 . S
H481 C489 0.930 . S
H482 C490 0.930 . S
H483 C491 0.930 . S
H484 C494 0.930 . S
H485 C495 0.930 . S
C486 H480 0.930 . S
C486 C487 1.355 . S
C486 C488 1.415 . S
C487 C486 1.355 . S
C487 C489 1.419 . S
C488 C486 1.415 . S
C488 C493 1.425 . S
C488 C495 1.409 . S
C489 H481 0.930 . S
C489 C487 1.419 . S
C489 C490 1.362 . S
C490 H482 0.930 . S
C490 C489 1.362 . S
C490 C493 1.409 . S
C491 H483 0.930 . S
C491 C492 1.355 . S
C491 C493 1.415 . S
C492 C491 1.355 . S
C492 C494 1.419 . S
C493 C488 1.425 . S
C493 C490 1.409 . S
C493 C491 1.415 . S
C494 H484 0.930 . S
C494 C492 1.419 . S
C494 C495 1.362 . S
C495 H485 0.930 . S
C495 C488 1.409 . S
C495 C494 1.362 . S
H496 C502 0.930 . S
H497 C505 0.930 . S
H498 C506 0.930 . S
H499 C507 0.930 . S
H500 C510 0.930 . S
H501 C511 0.930 . S
C502 H496 0.930 . S
C502 C503 1.355 . S
C502 C504 1.415 . S
C503 C502 1.355 . S
C503 C505 1.419 . S
C504 C502 1.415 . S
C504 C509 1.425 . S
C504 C511 1.409 . S
C505 H497 0.930 . S
C505 C503 1.419 . S
C505 C506 1.362 . S
C506 H498 0.930 . S
C506 C505 1.362 . S
C506 C509 1.409 . S
C507 H499 0.930 . S
C507 C508 1.355 . S
C507 C509 1.415 . S
C508 C507 1.355 . S
C508 C510 1.419 . S
C509 C504 1.425 . S
C509 C506 1.409 . S
C509 C507 1.415 . S
C510 H500 0.930 . S
C510 C508 1.419 . S
C510 C511 1.362 . S
C511 H501 0.930 . S
C511 C504 1.409 . S
C511 C510 1.362 . S
H512 C518 0.930 . S
H513 C521 0.930 . S
H514 C522 0.930 . S
H515 C523 0.930 1_554 S
H516 C526 0.930 . S
H517 C527 0.930 . S
C518 H512 0.930 . S
C518 C519 1.355 1_655 S
C518 C520 1.415 . S
C519 C518 1.355 1_455 S
C519 C521 1.419 1_556 S
C520 C518 1.415 . S
C520 C525 1.425 1_655 S
C520 C527 1.409 . S
C521 H513 0.930 . S
C521 C519 1.419 1_554 S
C521 C522 1.362 . S
C522 H514 0.930 . S
C522 C521 1.362 . S
C522 C525 1.409 1_554 S
C523 H515 0.930 1_556 S
C523 C524 1.355 . S
C523 C525 1.415 . S
C524 C523 1.355 . S
C524 C526 1.419 1_455 S
C525 C520 1.425 1_455 S
C525 C522 1.409 1_556 S
C525 C523 1.415 . S
C526 H516 0.930 . S
C526 C524 1.419 1_655 S
C526 C527 1.362 . S
C527 H517 0.930 . S
C527 C520 1.409 . S
C527 C526 1.362 . S
H528 C534 0.930 . S
H529 C537 0.930 . S
H530 C538 0.930 . S
H531 C539 0.930 . S
H532 C542 0.930 . S
H533 C543 0.930 . S
C534 H528 0.930 . S
C534 C535 1.344 1_545 S
C534 C536 1.415 . S
C535 C534 1.344 1_565 S
C535 C537 1.430 . S
C536 C534 1.415 . S
C536 C541 1.425 1_544 S
C536 C543 1.409 . S
C537 H529 0.930 . S
C537 C535 1.430 . S
C537 C538 1.362 1_554 S
C538 H530 0.930 . S
C538 C537 1.362 1_556 S
C538 C541 1.409 . S
C539 H531 0.930 . S
C539 C540 1.355 1_565 S
C539 C541 1.415 . S
C540 C539 1.355 1_545 S
C540 C542 1.419 1_556 S
C541 C536 1.425 1_566 S
C541 C538 1.409 . S
C541 C539 1.415 . S
C542 H532 0.930 . S
C542 C540 1.419 1_554 S
C542 C543 1.362 . S
C543 H533 0.930 . S
C543 C536 1.409 . S
C543 C542 1.362 . S
H544 C550 0.930 . S
H545 C553 0.930 . S
H546 C554 0.930 . S
H547 C555 0.930 1_556 S
H548 C558 0.930 . S
H549 C559 0.930 . S
C550 H544 0.930 . S
C550 C551 1.355 . S
C550 C552 1.415 . S
C551 C550 1.355 . S
C551 C553 1.419 . S
C552 C550 1.415 . S
C552 C557 1.425 . S
C552 C559 1.409 . S
C553 H545 0.930 . S
C553 C551 1.419 . S
C553 C554 1.362 . S
C554 H546 0.930 . S
C554 C553 1.362 . S
C554 C557 1.409 . S
C555 H547 0.930 1_554 S
C555 C556 1.355 . S
C555 C557 1.415 . S
C556 C555 1.355 . S
C556 C558 1.419 . S
C557 C552 1.425 . S
C557 C554 1.409 . S
C557 C555 1.415 . S
C558 H548 0.930 . S
C558 C556 1.419 . S
C558 C559 1.362 . S
C559 H549 0.930 . S
C559 C552 1.409 . S
C559 C558 1.362 . S
H560 C566 0.930 . S
H561 C569 0.930 . S
H562 C570 0.930 . S
H563 C571 0.930 . S
H564 C574 0.930 . S
H565 C575 0.930 . S
C566 H560 0.930 . S
C566 C567 1.355 . S
C566 C568 1.415 . S
C567 C566 1.355 . S
C567 C569 1.419 . S
C568 C566 1.415 . S
C568 C573 1.425 . S
C568 C575 1.409 . S
C569 H561 0.930 . S
C569 C567 1.419 . S
C569 C570 1.362 . S
C570 H562 0.930 . S
C570 C569 1.362 . S
C570 C573 1.409 . S
C571 H563 0.930 . S
C571 C572 1.355 . S
C571 C573 1.415 . S
C572 C571 1.355 . S
C572 C574 1.419 . S
C573 C568 1.425 . S
C573 C570 1.409 . S
C573 C571 1.415 . S
C574 H564 0.930 . S
C574 C572 1.419 . S
C574 C575 1.362 . S
C575 H565 0.930 . S
C575 C568 1.409 . S
C575 C574 1.362 . S
H576 C582 0.928 . S
H577 C585 0.930 . S
H578 C586 0.930 . S
H579 C587 0.930 . S
H580 C590 0.930 . S
H581 C591 0.930 . S
C582 H576 0.928 . S
C582 C583 1.358 . S
C582 C584 1.415 . S
C583 C582 1.358 . S
C583 C585 1.413 . S
C584 C582 1.415 . S
C584 C589 1.425 . S
C584 C591 1.409 . S
C585 H577 0.930 . S
C585 C583 1.413 . S
C585 C586 1.362 . S
C586 H578 0.930 . S
C586 C585 1.362 . S
C586 C589 1.409 . S
C587 H579 0.930 . S
C587 C588 1.355 . S
C587 C589 1.415 . S
C588 C587 1.355 . S
C588 C590 1.419 . S
C589 C584 1.425 . S
C589 C586 1.409 . S
C589 C587 1.415 . S
C590 H580 0.930 . S
C590 C588 1.419 . S
C590 C591 1.362 . S
C591 H581 0.930 . S
C591 C584 1.409 . S
C591 C590 1.362 . S
H592 C598 0.930 . S
H593 C601 0.930 . S
H594 C602 0.930 . S
H595 C603 0.930 . S
H596 C606 0.930 . S
H597 C607 0.930 . S
C598 H592 0.930 . S
C598 C599 1.355 1_545 S
C598 C600 1.415 . S
C599 C598 1.355 1_565 S
C599 C601 1.419 . S
C600 C598 1.415 . S
C600 C605 1.425 1_545 S
C600 C607 1.409 . S
C601 H593 0.930 . S
C601 C599 1.419 . S
C601 C602 1.362 . S
C602 H594 0.930 . S
C602 C601 1.362 . S
C602 C605 1.409 . S
C603 H595 0.930 . S
C603 C604 1.355 . S
C603 C605 1.415 . S
C604 C603 1.355 . S
C604 C606 1.419 1_565 S
C605 C600 1.425 1_565 S
C605 C602 1.409 . S
C605 C603 1.415 . S
C606 H596 0.930 . S
C606 C604 1.419 1_545 S
C606 C607 1.362 . S
C607 H597 0.930 . S
C607 C600 1.409 . S
C607 C606 1.362 . S
H608 C614 0.930 . S
H609 C617 0.930 . S
H610 C618 0.930 . S
H611 C619 0.930 . S
H612 C622 0.930 . S
H613 C623 0.930 . S
C614 H608 0.930 . S
C614 C615 1.355 . S
C614 C616 1.415 . S
C615 C614 1.355 . S
C615 C617 1.419 . S
C616 C614 1.415 . S
C616 C621 1.425 . S
C616 C623 1.409 . S
C617 H609 0.930 . S
C617 C615 1.419 . S
C617 C618 1.362 . S
C618 H610 0.930 . S
C618 C617 1.362 . S
C618 C621 1.409 . S
C619 H611 0.930 . S
C619 C620 1.355 . S
C619 C621 1.415 . S
C620 C619 1.355 . S
C620 C622 1.419 . S
C621 C616 1.425 . S
C621 C618 1.409 . S
C621 C619 1.415 . S
C622 H612 0.930 . S
C622 C620 1.419 . S
C622 C623 1.362 . S
C623 H613 0.930 . S
C623 C616 1.409 . S
C623 C622 1.362 . S
H624 C630 0.930 . S
H625 C633 0.930 . S
H626 C634 0.930 . S
H627 C635 0.930 . S
H628 C638 0.930 . S
H629 C639 0.930 . S
C630 H624 0.930 . S
C630 C631 1.355 . S
C630 C632 1.415 . S
C631 C630 1.355 . S
C631 C633 1.419 . S
C632 C630 1.415 . S
C632 C637 1.425 . S
C632 C639 1.409 . S
C633 H625 0.930 . S
C633 C631 1.419 . S
C633 C634 1.362 . S
C634 H626 0.930 . S
C634 C633 1.362 . S
C634 C637 1.409 . S
C635 H627 0.930 . S
C635 C636 1.355 . S
C635 C637 1.415 . S
C636 C635 1.355 . S
C636 C638 1.419 . S
C637 C632 1.425 . S
C637 C634 1.409 . S
C637 C635 1.415 . S
C638 H628 0.930 . S
C638 C636 1.419 . S
C638 C639 1.362 . S
C639 H629 0.930 . S
C639 C632 1.409 . S
C639 C638 1.362 . S
C263 C76 2.004 1_545 S
C268 C98 2.117 . S
C284 C138 2.053 . S
C279 C88 1.959 . S
C300 C202 1.947 . S
C295 C52 1.785 . S
C316 C218 1.747 . S
C311 C64 1.522 . S
C332 C119 2.121 1_564 S
C327 C28 2.050 1_545 S
C343 C40 2.015 . S
C348 C159 2.038 . S
C359 C4 1.851 . S
C364 C193 1.983 . S
C375 C16 1.538 . S
C380 C239 1.755 1_554 S
C396 C113 0.579 . S
C391 C69 0.504 . S
C412 C153 0.732 . S
C407 C81 0.746 1_565 S
C428 C189 0.801 . S
C423 C93 0.810 . S
C439 C57 0.694 . S
C444 C233 0.670 . S
C455 C21 0.495 1_455 S
C460 C122 0.454 . S
C476 C162 0.781 . S
C471 C33 0.826 . S
C492 C200 0.883 1_554 S
C487 C45 0.883 . S
C503 C9 0.628 . S
C508 C242 0.638 . S
C519 C66 1.796 1_556 S
C524 C120 2.067 . S
C535 C78 1.975 1_565 S
C540 C160 2.154 . S
C556 C178 1.720 1_554 S
C551 C90 1.711 . S
C572 C240 2.493 . S
C567 C54 2.196 . S
C583 C18 1.900 1_655 S
C588 C109 2.103 . S
C604 C149 2.143 . S
C599 C30 1.992 1_565 S
C620 C199 1.682 . S
C615 C42 1.646 . S
C631 C6 2.242 . S
C636 C229 2.494 . S
