# Generated by pormake.
# Topology zzz, (3,6)-cn, num edge types: 1
# Building blocks:
#     Node 0, Type 0, BuildingBlock: BELTOD_clean_linker_0, # of connection points: 3
#     Node 1, Type 0, BuildingBlock: BELTOD_clean_linker_0, # of connection points: 3
#     Node 2, Type 0, BuildingBlock: BELTOD_clean_linker_0, # of connection points: 3
#     Node 3, Type 0, BuildingBlock: BELTOD_clean_linker_0, # of connection points: 3
#     Node 4, Type 0, BuildingBlock: BELTOD_clean_linker_0, # of connection points: 3
#     Node 5, Type 0, BuildingBlock: BELTOD_clean_linker_0, # of connection points: 3
#     Node 6, Type 0, BuildingBlock: BELTOD_clean_linker_0, # of connection points: 3
#     Node 7, Type 0, BuildingBlock: BELTOD_clean_linker_0, # of connection points: 3
#     Node 8, Type 1, BuildingBlock: BETDAH_clean_sbu_0, # of connection points: 6
#     Node 9, Type 1, BuildingBlock: BETDAH_clean_sbu_0, # of connection points: 6
#     Node 10, Type 1, BuildingBlock: BETDAH_clean_sbu_0, # of connection points: 6
#     Node 11, Type 1, BuildingBlock: BETDAH_clean_sbu_0, # of connection points: 6
#     Edge 12, Type (0, 1), BuildingBlock: ZUJKAS_clean_linker_0, # of connection points: 2
#     Edge 13, Type (0, 1), BuildingBlock: ZUJKAS_clean_linker_0, # of connection points: 2
#     Edge 14, Type (0, 1), BuildingBlock: ZUJKAS_clean_linker_0, # of connection points: 2
#     Edge 15, Type (0, 1), BuildingBlock: ZUJKAS_clean_linker_0, # of connection points: 2
#     Edge 16, Type (0, 1), BuildingBlock: ZUJKAS_clean_linker_0, # of connection points: 2
#     Edge 17, Type (0, 1), BuildingBlock: ZUJKAS_clean_linker_0, # of connection points: 2
#     Edge 18, Type (0, 1), BuildingBlock: ZUJKAS_clean_linker_0, # of connection points: 2
#     Edge 19, Type (0, 1), BuildingBlock: ZUJKAS_clean_linker_0, # of connection points: 2
#     Edge 20, Type (0, 1), BuildingBlock: ZUJKAS_clean_linker_0, # of connection points: 2
#     Edge 21, Type (0, 1), BuildingBlock: ZUJKAS_clean_linker_0, # of connection points: 2
#     Edge 22, Type (0, 1), BuildingBlock: ZUJKAS_clean_linker_0, # of connection points: 2
#     Edge 23, Type (0, 1), BuildingBlock: ZUJKAS_clean_linker_0, # of connection points: 2
#     Edge 24, Type (0, 1), BuildingBlock: ZUJKAS_clean_linker_0, # of connection points: 2
#     Edge 25, Type (0, 1), BuildingBlock: ZUJKAS_clean_linker_0, # of connection points: 2
#     Edge 26, Type (0, 1), BuildingBlock: ZUJKAS_clean_linker_0, # of connection points: 2
#     Edge 27, Type (0, 1), BuildingBlock: ZUJKAS_clean_linker_0, # of connection points: 2
#     Edge 28, Type (0, 1), BuildingBlock: ZUJKAS_clean_linker_0, # of connection points: 2
#     Edge 29, Type (0, 1), BuildingBlock: ZUJKAS_clean_linker_0, # of connection points: 2
#     Edge 30, Type (0, 1), BuildingBlock: ZUJKAS_clean_linker_0, # of connection points: 2
#     Edge 31, Type (0, 1), BuildingBlock: ZUJKAS_clean_linker_0, # of connection points: 2
#     Edge 32, Type (0, 1), BuildingBlock: ZUJKAS_clean_linker_0, # of connection points: 2
#     Edge 33, Type (0, 1), BuildingBlock: ZUJKAS_clean_linker_0, # of connection points: 2
#     Edge 34, Type (0, 1), BuildingBlock: ZUJKAS_clean_linker_0, # of connection points: 2
#     Edge 35, Type (0, 1), BuildingBlock: ZUJKAS_clean_linker_0, # of connection points: 2
# Relax obj value: 0.394
# Max RMSD: 0.263
# Mean RMSD: 0.245
data_MOF--net-zzz--node1-BETDAH_clean_sbu_0--node2-BELTOD_clean_linker_0--edge1-ZUJKAS_clean_linker_0
_symmetry_space_group_name_H-M    P1
_symmetry_Int_Tables_number       1
_symmetry_cell_setting            triclinic
loop_
_symmetry_equiv_pos_as_xyz
'x, y, z'
_cell_length_a     71.123183
_cell_length_b     71.119846
_cell_length_c     21.230789
_cell_angle_alpha  89.979488
_cell_angle_beta   90.009582
_cell_angle_gamma 90.002839
loop_
_atom_site_label
_atom_site_type_symbol
_atom_site_fract_x
_atom_site_fract_y
_atom_site_fract_z
_atom_type_partial_charge
P0 P 0.72572 0.47616 0.32368 0.0
H1 H 0.73695 0.48721 0.45142 0.0
H2 H 0.76666 0.49945 0.49124 0.0
H3 H 0.78447 0.51125 0.30075 0.0
H4 H 0.7548 0.49857 0.26115 0.0
H5 H 0.68777 0.46332 0.30086 0.0
H6 H 0.66296 0.4736 0.23004 0.0
H7 H 0.69681 0.52135 0.17505 0.0
H8 H 0.72188 0.51063 0.24584 0.0
H9 H 0.75545 0.44978 0.35257 0.0
H10 H 0.72509 0.46769 0.18719 0.0
O11 O 0.71668 0.46411 0.38397 0.0
H12 H 0.77847 0.43403 0.28632 0.0
H13 H 0.74755 0.45123 0.12058 0.0
C14 C 0.74357 0.49197 0.35322 0.0
C15 C 0.74692 0.49304 0.41823 0.0
C16 C 0.76402 0.50005 0.44105 0.0
C17 C 0.77814 0.50605 0.39918 0.0
C18 C 0.77405 0.50643 0.33429 0.0
C19 C 0.75693 0.49946 0.31158 0.0
C20 C 0.70654 0.48639 0.27972 0.0
C21 C 0.68971 0.47626 0.27478 0.0
C22 C 0.67547 0.4822 0.23412 0.0
C23 C 0.67776 0.4984 0.19687 0.0
C24 C 0.69459 0.50875 0.20271 0.0
C25 C 0.70889 0.50275 0.24365 0.0
C26 C 0.7386 0.45996 0.27501 0.0
C27 C 0.75333 0.44968 0.30203 0.0
C28 C 0.76647 0.44059 0.26391 0.0
C29 C 0.76503 0.44152 0.19787 0.0
C30 C 0.74931 0.45055 0.1712 0.0
C31 C 0.73631 0.45986 0.20942 0.0
P32 P 0.04031 0.7246 0.3305 0.0
H33 H 0.03772 0.73862 0.45904 0.0
H34 H 0.02609 0.76847 0.49965 0.0
H35 H 0.9987 0.77951 0.32231 0.0
H36 H 0.0108 0.7496 0.28075 0.0
H37 H 0.05832 0.69389 0.2677 0.0
H38 H 0.04751 0.66894 0.19875 0.0
H39 H 0.99032 0.68859 0.21947 0.0
H40 H 1.00155 0.71414 0.28814 0.0
H41 H 0.07173 0.74928 0.35958 0.0
H42 H 0.0404 0.73251 0.19493 0.0
O43 O 0.05364 0.71465 0.38596 0.0
H44 H 0.08753 0.77371 0.29787 0.0
H45 H 0.05615 0.75672 0.13323 0.0
C46 C 0.02492 0.74162 0.36699 0.0
C47 C 0.02857 0.74698 0.42942 0.0
C48 C 0.02207 0.76417 0.45258 0.0
C49 C 0.01163 0.77632 0.41397 0.0
C50 C 0.0066 0.77031 0.35317 0.0
C51 C 0.01336 0.75313 0.32962 0.0
C52 C 0.03076 0.70577 0.28338 0.0
C53 C 0.04341 0.69275 0.25798 0.0
C54 C 0.03715 0.67836 0.21872 0.0
C55 C 0.01797 0.6765 0.20395 0.0
C56 C 0.0052 0.68962 0.22963 0.0
C57 C 0.01156 0.70418 0.26914 0.0
C58 C 0.05519 0.73885 0.28158 0.0
C59 C 0.06875 0.75042 0.3097 0.0
C60 C 0.07767 0.76443 0.27455 0.0
C61 C 0.0731 0.76706 0.21075 0.0
C62 C 0.06022 0.75479 0.18199 0.0
C63 C 0.05118 0.74092 0.21731 0.0
P64 P 0.7768 0.02982 0.32242 0.0
H65 H 0.76523 0.01767 0.44867 0.0
H66 H 0.73525 0.00552 0.48649 0.0
H67 H 0.71768 0.99578 0.29447 0.0
H68 H 0.74765 0.00832 0.25691 0.0
H69 H 0.81446 0.04312 0.2979 0.0
H70 H 0.8391 0.03319 0.22596 0.0
H71 H 0.80562 0.98505 0.17227 0.0
H72 H 0.78068 0.99547 0.24398 0.0
H73 H 0.74708 0.05594 0.35394 0.0
H74 H 0.77785 0.03998 0.18724 0.0
O75 O 0.78597 0.04112 0.38411 0.0
H76 H 0.72419 0.07239 0.28913 0.0
H77 H 0.75556 0.05721 0.12219 0.0
C78 C 0.75876 0.01391 0.34988 0.0
C79 C 0.75525 0.01228 0.41467 0.0
C80 C 0.738 0.00533 0.43633 0.0
C81 C 0.72388 0.99997 0.39351 0.0
C82 C 0.72811 1.0001 0.32873 0.0
C83 C 0.74539 0.00699 0.30716 0.0
C84 C 0.79587 0.01987 0.27732 0.0
C85 C 0.81257 0.03018 0.27178 0.0
C86 C 0.82672 0.02443 0.23051 0.0
C87 C 0.82449 0.00821 0.19332 0.0
C88 C 0.8078 0.99767 0.19979 0.0
C89 C 0.79357 0.00351 0.24127 0.0
C90 C 0.76412 0.04666 0.2756 0.0
C91 C 0.74933 0.05663 0.30352 0.0
C92 C 0.73625 0.06613 0.26622 0.0
C93 C 0.73785 0.06595 0.20014 0.0
C94 C 0.75366 0.05729 0.1728 0.0
C95 C 0.76658 0.04755 0.21015 0.0
P96 P 0.46543 0.78177 0.3176 0.0
H97 H 0.47036 0.76856 0.44705 0.0
H98 H 0.48283 0.73928 0.48838 0.0
H99 H 0.50638 0.72642 0.3057 0.0
H100 H 0.49313 0.75563 0.26404 0.0
H101 H 0.44891 0.81656 0.27688 0.0
H102 H 0.45953 0.84196 0.20956 0.0
H103 H 0.51463 0.81641 0.19927 0.0
H104 H 0.50345 0.79044 0.26579 0.0
H105 H 0.43553 0.75442 0.33462 0.0
H106 H 0.46589 0.77911 0.17933 0.0
O107 O 0.45103 0.79002 0.37316 0.0
H108 H 0.42152 0.73149 0.26301 0.0
H109 H 0.45149 0.75671 0.10736 0.0
C110 C 0.48088 0.76445 0.35242 0.0
C111 C 0.47873 0.7598 0.41622 0.0
C112 C 0.48592 0.74291 0.43994 0.0
C113 C 0.49545 0.7302 0.40034 0.0
C114 C 0.4988 0.73561 0.33743 0.0
C115 C 0.49153 0.75253 0.3137 0.0
C116 C 0.47546 0.80178 0.27739 0.0
C117 C 0.46342 0.8166 0.26135 0.0
C118 C 0.46958 0.83123 0.22277 0.0
C119 C 0.48806 0.83147 0.19907 0.0
C120 C 0.50028 0.81668 0.2162 0.0
C121 C 0.49399 0.80189 0.25481 0.0
C122 C 0.45158 0.76858 0.26233 0.0
C123 C 0.43863 0.75535 0.28476 0.0
C124 C 0.43058 0.74229 0.24369 0.0
C125 C 0.43547 0.74222 0.17951 0.0
C126 C 0.4476 0.75628 0.15666 0.0
C127 C 0.45573 0.76922 0.19782 0.0
P128 P 0.28766 0.46011 0.0208 0.0
H129 H 0.27611 0.45886 0.88843 0.0
H130 H 0.24712 0.46918 0.83774 0.0
H131 H 0.23272 0.50129 0.00324 0.0
H132 H 0.26168 0.49068 0.05436 0.0
H133 H 0.32602 0.44733 0.03866 0.0
H134 H 0.35186 0.45886 0.10253 0.0
H135 H 0.32023 0.5092 0.14419 0.0
H136 H 0.29414 0.49739 0.07978 0.0
H137 H 0.25434 0.43688 0.01825 0.0
H138 H 0.28917 0.46274 0.16036 0.0
O139 O 0.29493 0.44218 0.97632 0.0
H140 H 0.23024 0.43077 0.09681 0.0
H141 H 0.26536 0.45616 0.23964 0.0
C142 C 0.27127 0.47407 0.97525 0.0
C143 C 0.26714 0.46868 0.91318 0.0
C144 C 0.2504 0.47443 0.88435 0.0
C145 C 0.23747 0.4858 0.91685 0.0
C146 C 0.24242 0.4926 0.97683 0.0
C147 C 0.25913 0.48669 0.00591 0.0
C148 C 0.30817 0.47158 0.05345 0.0
C149 C 0.32479 0.46114 0.05969 0.0
C150 C 0.33965 0.46778 0.09649 0.0
C151 C 0.33818 0.48497 0.12878 0.0
C152 C 0.32179 0.49583 0.12037 0.0
C153 C 0.30692 0.4892 0.08293 0.0
C154 C 0.27342 0.45052 0.08301 0.0
C155 C 0.25709 0.44063 0.06684 0.0
C156 C 0.24333 0.43706 0.11206 0.0
C157 C 0.24574 0.44322 0.1745 0.0
C158 C 0.26291 0.45159 0.19167 0.0
C159 C 0.27661 0.45531 0.14619 0.0
P160 P 0.05058 0.28495 0.03498 0.0
H161 H 0.05209 0.27164 0.90413 0.0
H162 H 0.04061 0.24282 0.85536 0.0
H163 H 0.00797 0.23076 0.02213 0.0
H164 H 0.02 0.25932 0.07136 0.0
H165 H 0.05977 0.32494 0.03014 0.0
H166 H 0.04866 0.35151 0.09186 0.0
H167 H 0.00376 0.31721 0.16652 0.0
H168 H 0.01516 0.29051 0.10489 0.0
H169 H 0.06558 0.24713 0.05143 0.0
H170 H 0.05636 0.29589 0.1685 0.0
O171 O 0.06889 0.29156 0.99103 0.0
H172 H 0.07014 0.22796 0.14478 0.0
H173 H 0.06139 0.27682 0.26232 0.0
C174 C 0.03685 0.26784 0.99144 0.0
C175 C 0.042 0.26315 0.92958 0.0
C176 C 0.03541 0.24655 0.90162 0.0
C177 C 0.02356 0.23423 0.93506 0.0
C178 C 0.01734 0.23971 0.99532 0.0
C179 C 0.02393 0.25631 0.02318 0.0
C180 C 0.03821 0.30568 0.06207 0.0
C181 C 0.04712 0.32325 0.05788 0.0
C182 C 0.04075 0.33851 0.09354 0.0
C183 C 0.02541 0.3365 0.13482 0.0
C184 C 0.01577 0.3192 0.13586 0.0
C185 C 0.02211 0.30395 0.0998 0.0
C186 C 0.05962 0.2727 0.10291 0.0
C187 C 0.06496 0.25383 0.0972 0.0
C188 C 0.0678 0.24289 0.15088 0.0
C189 C 0.06569 0.25077 0.21128 0.0
C190 C 0.06258 0.27023 0.21652 0.0
C191 C 0.05963 0.28114 0.16268 0.0
P192 P 0.21477 0.04299 0.00528 0.0
H193 H 0.2278 0.03589 0.87713 0.0
H194 H 0.25789 0.02411 0.84063 0.0
H195 H 0.26946 0.00233 0.02665 0.0
H196 H 0.23938 0.01468 0.06331 0.0
H197 H 0.18339 0.06271 0.05966 0.0
H198 H 0.15882 0.05407 0.13419 0.0
H199 H 0.18105 0.99759 0.14284 0.0
H200 H 0.20577 0.00645 0.06758 0.0
H201 H 0.23989 0.07252 0.96224 0.0
H202 H 0.22629 0.04493 0.13721 0.0
O203 O 0.20475 0.0551 0.94688 0.0
H204 H 0.27 0.08253 0.00605 0.0
H205 H 0.25632 0.05451 0.18079 0.0
C206 C 0.23107 0.02604 0.97294 0.0
C207 C 0.23633 0.02781 0.90954 0.0
C208 C 0.25375 0.02112 0.88867 0.0
C209 C 0.26638 0.01254 0.93089 0.0
C210 C 0.2603 0.0092 0.99303 0.0
C211 C 0.24283 0.01589 0.01381 0.0
C212 C 0.19634 0.03522 0.0577 0.0
C213 C 0.18289 0.0484 0.07704 0.0
C214 C 0.16877 0.04341 0.11956 0.0
C215 C 0.16784 0.02509 0.14427 0.0
C216 C 0.18142 0.01185 0.12494 0.0
C217 C 0.19554 0.01687 0.08178 0.0
C218 C 0.23078 0.05809 0.04657 0.0
C219 C 0.24292 0.06947 0.01119 0.0
C220 C 0.26027 0.07495 0.03597 0.0
C221 C 0.26572 0.069 0.09643 0.0
C222 C 0.25256 0.05947 0.13423 0.0
C223 C 0.23524 0.05401 0.10937 0.0
P224 P 0.45363 0.22332 0.03574 0.0
H225 H 0.4425 0.2403 0.91608 0.0
H226 H 0.45322 0.26835 0.86189 0.0
H227 H 0.50128 0.27128 0.98611 0.0
H228 H 0.48995 0.24347 0.04185 0.0
H229 H 0.44768 0.18282 0.0204 0.0
H230 H 0.45869 0.15621 0.08225 0.0
H231 H 0.49911 0.19216 0.17477 0.0
H232 H 0.48759 0.2189 0.11391 0.0
H233 H 0.44503 0.26322 0.0558 0.0
H234 H 0.44675 0.21261 0.16809 0.0
O235 O 0.43378 0.216 0.00174 0.0
H236 H 0.44273 0.28199 0.15078 0.0
H237 H 0.44433 0.23148 0.26389 0.0
C238 C 0.4655 0.23946 0.98278 0.0
C239 C 0.45569 0.24653 0.93053 0.0
C240 C 0.46188 0.26274 0.89939 0.0
C241 C 0.47808 0.27237 0.91973 0.0
C242 C 0.48856 0.26452 0.96964 0.0
C243 C 0.48228 0.24831 1.00099 0.0
C244 C 0.46681 0.20296 0.06205 0.0
C245 C 0.45935 0.18492 0.05233 0.0
C246 C 0.46569 0.16962 0.088 0.0
C247 C 0.4796 0.17204 0.13443 0.0
C248 C 0.48814 0.18983 0.14025 0.0
C249 C 0.48181 0.20512 0.1044 0.0
C250 C 0.44718 0.23657 0.10485 0.0
C251 C 0.4447 0.25607 0.10079 0.0
C252 C 0.4431 0.26683 0.15538 0.0
C253 C 0.44371 0.25823 0.21501 0.0
C254 C 0.44424 0.23851 0.21863 0.0
C255 C 0.44574 0.22774 0.16381 0.0
Ho256 Ho 0.00729 0.99865 0.74019 0.0
Ho257 Ho 0.98715 0.01197 0.61305 0.0
C258 C 0.99586 0.96833 0.63071 0.0
C259 C 0.0136 0.98514 0.85044 0.0
C260 C 0.02463 0.96905 0.87328 0.0
C261 C 0.02552 0.95231 0.83841 0.0
C262 C 0.03613 0.93715 0.86022 0.0
C263 C 0.04628 0.93849 0.91695 0.0
C264 C 0.04562 0.95545 0.95109 0.0
C265 C 0.03485 0.97058 0.92946 0.0
C266 C 0.03248 0.00247 0.64376 0.0
C267 C 0.00246 0.0429 0.71531 0.0
C268 C 0.97751 0.03008 0.51346 0.0
C269 C 0.98191 0.04961 0.49506 0.0
C270 C 0.99347 0.05306 0.44281 0.0
C271 C 1.00017 0.07119 0.43088 0.0
C272 C 0.9954 0.08619 0.471 0.0
C273 C 0.9831 0.08286 0.52147 0.0
C274 C 0.97643 0.06478 0.53344 0.0
C275 C 0.96484 1.00058 0.70881 0.0
O276 O 0.99871 0.97158 0.69169 0.0
O277 O 0.99332 0.98197 0.58892 0.0
O278 O 0.02342 0.99902 0.82646 0.0
O279 O 0.99853 0.98104 0.81738 0.0
O280 O 0.03705 0.99664 0.69962 0.0
O281 O 0.01515 0.00555 0.64481 0.0
O282 O 0.99797 0.03905 0.65599 0.0
O283 O 0.00461 0.02961 0.75846 0.0
O284 O 0.96638 0.02803 0.56214 0.0
O285 O 0.99186 0.01852 0.51472 0.0
O286 O 0.96104 0.99767 0.64972 0.0
O287 O 0.97972 0.01009 0.71353 0.0
H288 H 0.01791 0.95087 0.79446 0.0
H289 H 0.03603 0.92424 0.8332 0.0
H290 H 0.05347 0.95708 0.99446 0.0
H291 H 0.03452 0.98348 0.95653 0.0
H292 H 0.99788 0.04162 0.41252 0.0
H293 H 0.00932 0.0734 0.39078 0.0
H294 H 0.97928 0.09406 0.55359 0.0
H295 H 0.96764 0.06262 0.57445 0.0
Ho296 Ho 0.50312 0.01139 0.72879 0.0
Ho297 Ho 0.4888 0.99314 0.60968 0.0
C298 C 0.53432 0.9975 0.63255 0.0
C299 C 0.51235 0.02261 0.84023 0.0
C300 C 0.52977 0.03004 0.86799 0.0
C301 C 0.54739 0.02323 0.84878 0.0
C302 C 0.56385 0.03067 0.87453 0.0
C303 C 0.56299 0.04518 0.91937 0.0
C304 C 0.54534 0.05214 0.93789 0.0
C305 C 0.52885 0.04457 0.91251 0.0
C306 C 0.49982 0.03443 0.62809 0.0
C307 C 0.45837 0.00548 0.70907 0.0
C308 C 0.47979 0.98662 0.49392 0.0
C309 C 0.46406 0.99322 0.45503 0.0
C310 C 0.44763 0.99996 0.48367 0.0
C311 C 0.43308 0.00728 0.44711 0.0
C312 C 0.43472 0.00807 0.38119 0.0
C313 C 0.45126 1.00136 0.3526 0.0
C314 C 0.46583 0.99397 0.38936 0.0
C315 C 0.49244 0.96937 0.70812 0.0
O316 O 0.53122 0.00311 0.69094 0.0
O317 O 0.52034 0.99367 0.59322 0.0
O318 O 0.50422 0.03349 0.79877 0.0
O319 O 0.51265 0.00494 0.82292 0.0
O320 O 0.51347 0.03533 0.66842 0.0
O321 O 0.48824 0.02195 0.64456 0.0
O322 O 0.46162 0.00416 0.648 0.0
O323 O 0.47242 0.0058 0.7499 0.0
O324 O 0.47543 0.97533 0.54036 0.0
O325 O 0.49165 0.99973 0.51076 0.0
O326 O 0.47953 0.96783 0.6653 0.0
O327 O 0.50368 0.98237 0.69358 0.0
H328 H 0.54847 0.01222 0.81373 0.0
H329 H 0.57727 0.02521 0.85881 0.0
H330 H 0.54429 0.06323 0.97266 0.0
H331 H 0.51537 0.05008 0.92749 0.0
H332 H 0.44612 0.99977 0.53438 0.0
H333 H 0.42067 0.01263 0.47061 0.0
H334 H 0.45286 1.00169 0.30189 0.0
H335 H 0.47853 0.98901 0.3666 0.0
Ho336 Ho 0.49641 0.50794 0.73213 0.0
Ho337 Ho 0.51816 0.49548 0.60797 0.0
C338 C 0.50833 0.53894 0.62495 0.0
C339 C 0.4893 0.52052 0.84321 0.0
C340 C 0.47778 0.53592 0.86763 0.0
C341 C 0.4758 0.5383 0.93269 0.0
C342 C 0.46552 0.55346 0.95632 0.0
C343 C 0.45709 0.56648 0.9151 0.0
C344 C 0.45871 0.5637 0.84974 0.0
C345 C 0.469 0.54852 0.82619 0.0
C346 C 0.47213 0.50429 0.63328 0.0
C347 C 0.50213 0.46381 0.70651 0.0
C348 C 0.52996 0.47787 0.50989 0.0
C349 C 0.52713 0.45804 0.4916 0.0
C350 C 0.51572 0.45367 0.43975 0.0
C351 C 0.51015 0.43512 0.42878 0.0
C352 C 0.5159 0.4206 0.4695 0.0
C353 C 0.52829 0.42485 0.51899 0.0
C354 C 0.53384 0.44336 0.52998 0.0
C355 C 0.53915 0.50694 0.70691 0.0
O356 O 0.50458 0.53544 0.68528 0.0
O357 O 0.5119 0.52543 0.58354 0.0
O358 O 0.47997 0.50662 0.8174 0.0
O359 O 0.50406 0.52569 0.81032 0.0
O360 O 0.46702 0.5095 0.68929 0.0
O361 O 0.48954 0.50153 0.63518 0.0
O362 O 0.50766 0.46792 0.6484 0.0
O363 O 0.49894 0.47693 0.7494 0.0
O364 O 0.54043 0.48079 0.55965 0.0
O365 O 0.51483 0.48838 0.50945 0.0
O366 O 0.54337 0.51038 0.6485 0.0
O367 O 0.52448 0.49702 0.70938 0.0
H368 H 0.48242 0.52859 0.96518 0.0
H369 H 0.46432 0.55512 0.00688 0.0
H370 H 0.45259 0.57359 0.81683 0.0
H371 H 0.47041 0.54681 0.77568 0.0
H372 H 0.51045 0.4647 0.40927 0.0
H373 H 0.50097 0.43222 0.38926 0.0
H374 H 0.53289 0.41404 0.55146 0.0
H375 H 0.54263 0.44621 0.57053 0.0
Ho376 Ho 0.99997 0.49637 0.72962 0.0
Ho377 Ho 0.01298 0.51615 0.61234 0.0
C378 C 0.9678 0.51081 0.63775 0.0
C379 C 0.99161 0.48402 0.8405 0.0
C380 C 0.97419 0.47698 0.86943 0.0
C381 C 0.9568 0.48548 0.85634 0.0
C382 C 0.94029 0.47828 0.8825 0.0
C383 C 0.94085 0.46233 0.92154 0.0
C384 C 0.95824 0.45373 0.93406 0.0
C385 C 0.9748 0.46106 0.90837 0.0
C386 C 0.00258 0.47446 0.62604 0.0
C387 C 0.04459 0.50226 0.70518 0.0
C388 C 0.0217 0.5241 0.49763 0.0
C389 C 0.03759 0.51739 0.45866 0.0
C390 C 0.03668 0.49979 0.42858 0.0
C391 C 0.05278 0.49179 0.4023 0.0
C392 C 0.07002 0.50136 0.40455 0.0
C393 C 0.07064 0.51955 0.43026 0.0
C394 C 0.05457 0.5275 0.45708 0.0
C395 C 0.01 0.5387 0.71414 0.0
O396 O 0.97143 0.50467 0.69522 0.0
O397 O 0.98142 0.51525 0.5978 0.0
O398 O 0.99873 0.4734 0.79636 0.0
O399 O 0.992 0.50192 0.826 0.0
O400 O 0.98925 0.47308 0.6674 0.0
O401 O 0.01423 0.48685 0.6428 0.0
O402 O 0.04062 0.50478 0.64506 0.0
O403 O 0.03105 0.50108 0.74777 0.0
O404 O 0.02606 0.53495 0.54525 0.0
O405 O 0.00912 0.51144 0.51274 0.0
O406 O 0.02257 0.54077 0.67051 0.0
O407 O 0.99871 0.52582 0.69894 0.0
H408 H 0.95591 0.4976 0.82556 0.0
H409 H 0.92704 0.48503 0.87143 0.0
H410 H 0.95906 0.44148 0.9643 0.0
H411 H 0.98807 0.45423 0.91857 0.0
H412 H 0.02374 0.49177 0.42777 0.0
H413 H 0.05185 0.4779 0.38157 0.0
H414 H 0.08377 0.52725 0.43255 0.0
H415 H 0.05569 0.54118 0.47919 0.0
H416 H 0.17149 0.00462 0.25328 0.0
H417 H 0.14756 0.99901 0.33427 0.0
H418 H 0.10694 0.02961 0.22373 0.0
H419 H 0.13058 0.03486 0.14207 0.0
H420 H 0.12867 0.02684 0.40203 0.0
H421 H 0.07777 0.98226 0.27206 0.0
H422 H 0.10152 0.98609 0.2449 0.0
H423 H 0.08381 0.00373 0.23236 0.0
C424 C 0.15736 0.00981 0.24559 0.0
C425 C 0.15298 0.02022 0.19115 0.0
C426 C 0.14372 0.0067 0.29212 0.0
C427 C 0.12538 0.01372 0.28488 0.0
C428 C 0.12087 0.02377 0.23 0.0
H429 H 0.02683 0.02026 0.53044 0.0
H430 H 0.04907 0.02289 0.44232 0.0
C431 C 0.13449 0.02693 0.18362 0.0
C432 C 0.11133 0.01164 0.3364 0.0
H433 H 0.06766 0.99432 0.37097 0.0
C434 C 0.11539 0.01961 0.39535 0.0
C435 C 0.09391 0.00237 0.32752 0.0
C436 C 0.089 0.99297 0.26599 0.0
C437 C 0.10246 0.01879 0.44531 0.0
C438 C 0.08508 0.00943 0.4366 0.0
C439 C 0.08096 1.00152 0.37759 0.0
C440 C 0.07126 0.00734 0.48878 0.0
C441 C 0.10736 0.02831 0.50668 0.0
C442 C 0.07618 0.99748 0.54363 0.0
C443 C 0.06346 0.99589 0.59355 0.0
C444 C 0.04546 0.00394 0.58948 0.0
C445 C 0.04042 0.01359 0.53429 0.0
C446 C 0.05318 0.0152 0.48418 0.0
H447 H 0.1186 0.039 0.50044 0.0
H448 H 0.09484 0.03524 0.52757 0.0
H449 H 0.11254 0.01761 0.54056 0.0
H450 H 0.08991 0.99101 0.54789 0.0
H451 H 0.06774 0.98831 0.63545 0.0
H452 H 0.48274 0.13392 0.11288 0.0
H453 H 0.48591 0.10881 0.1914 0.0
H454 H 0.4888 0.15025 0.33916 0.0
H455 H 0.48511 0.17533 0.26163 0.0
H456 H 0.51401 0.10126 0.28186 0.0
H457 H 0.44542 0.11604 0.39549 0.0
H458 H 0.45177 0.12551 0.31951 0.0
H459 H 0.4605 0.13623 0.39043 0.0
C460 C 0.48405 0.1377 0.16209 0.0
C461 C 0.48361 0.15671 0.18074 0.0
C462 C 0.48593 0.12332 0.2069 0.0
C463 C 0.48724 0.12762 0.27131 0.0
C464 C 0.48746 0.14656 0.28986 0.0
H465 H 0.52401 0.06166 0.58906 0.0
H466 H 0.5207 0.08281 0.49889 0.0
C467 C 0.48562 0.16093 0.24522 0.0
C468 C 0.4882 0.11239 0.31938 0.0
H469 H 0.46604 0.0953 0.45035 0.0
C470 C 0.50346 0.09987 0.31846 0.0
C471 C 0.47425 0.11033 0.36649 0.0
C472 C 0.45696 0.12261 0.36789 0.0
C473 C 0.50552 0.08583 0.36472 0.0
C474 C 0.49207 0.08442 0.41372 0.0
C475 C 0.47645 0.09648 0.41323 0.0
C476 C 0.49429 0.07102 0.46719 0.0
C477 C 0.52204 0.0726 0.36056 0.0
C478 C 0.48035 0.05755 0.48037 0.0
C479 C 0.48216 0.0455 0.53237 0.0
C480 C 0.49787 0.04681 0.57233 0.0
C481 C 0.51178 0.06027 0.55902 0.0
C482 C 0.50997 0.07229 0.50716 0.0
H483 H 0.52766 0.0718 0.3118 0.0
H484 H 0.53347 0.07778 0.3916 0.0
H485 H 0.51811 0.05822 0.37616 0.0
H486 H 0.46807 0.05637 0.45045 0.0
H487 H 0.47121 0.03527 0.5415 0.0
H488 H 0.3334 0.50005 0.24647 0.0
H489 H 0.35734 0.50533 0.32724 0.0
H490 H 0.40032 0.4865 0.19874 0.0
H491 H 0.37655 0.48175 0.11703 0.0
H492 H 0.37987 0.4775 0.37734 0.0
H493 H 0.42418 0.53365 0.2728 0.0
H494 H 0.40092 0.52824 0.24385 0.0
H495 H 0.42058 0.51371 0.22236 0.0
C496 C 0.348 0.49754 0.23468 0.0
C497 C 0.35301 0.49048 0.17507 0.0
C498 C 0.36167 0.50041 0.28117 0.0
C499 C 0.38068 0.49645 0.26905 0.0
C500 C 0.38582 0.48997 0.20902 0.0
H501 H 0.48013 0.49207 0.51323 0.0
H502 H 0.45843 0.48994 0.42344 0.0
C503 C 0.37215 0.48708 0.16249 0.0
C504 C 0.39482 0.49768 0.32068 0.0
H505 H 0.43603 0.5187 0.36482 0.0
C506 C 0.39209 0.48659 0.37467 0.0
C507 C 0.41089 0.50938 0.31699 0.0
C508 C 0.4143 0.52206 0.26116 0.0
C509 C 0.40499 0.4868 0.42481 0.0
C510 C 0.42093 0.49867 0.42152 0.0
C511 C 0.42382 0.5096 0.36726 0.0
C512 C 0.43435 0.50035 0.47503 0.0
C513 C 0.40156 0.47408 0.48055 0.0
C514 C 0.42814 0.50716 0.53346 0.0
C515 C 0.44052 0.5084 0.58444 0.0
C516 C 0.45943 0.50299 0.57808 0.0
C517 C 0.46573 0.49642 0.51939 0.0
C518 C 0.45331 0.49519 0.46815 0.0
H519 H 0.39185 0.46238 0.46859 0.0
H520 H 0.41495 0.46804 0.49829 0.0
H521 H 0.39507 0.48236 0.51915 0.0
H522 H 0.41367 0.51154 0.53966 0.0
H523 H 0.43524 0.51363 0.62898 0.0
H524 H 0.01653 0.33279 0.25964 0.0
H525 H 0.01185 0.35767 0.33745 0.0
H526 H 0.02028 0.3996 0.19357 0.0
H527 H 0.02455 0.37476 0.1149 0.0
H528 H 0.03836 0.38545 0.36991 0.0
H529 H 0.97192 0.41732 0.28285 0.0
H530 H 0.97975 0.39429 0.25856 0.0
H531 H 0.99028 0.41497 0.22521 0.0
C532 C 0.01695 0.34729 0.24407 0.0
C533 C 0.02081 0.35173 0.18075 0.0
C534 C 0.01444 0.36151 0.28884 0.0
C535 C 0.01558 0.38052 0.27138 0.0
C536 C 0.01909 0.38505 0.20806 0.0
H537 H 0.03196 0.47266 0.54269 0.0
H538 H 0.03565 0.45092 0.45368 0.0
C539 C 0.02166 0.37082 0.16321 0.0
C540 C 0.01397 0.39547 0.32016 0.0
H541 H 0.98709 0.43273 0.36758 0.0
C542 C 0.02718 0.39582 0.36934 0.0
C543 C 0.99932 0.40893 0.31954 0.0
C544 C 0.98439 0.40886 0.26908 0.0
C545 C 0.02611 0.4092 0.41798 0.0
C546 C 0.01154 0.42276 0.41717 0.0
C547 C 0.99835 0.42244 0.3679 0.0
C548 C 0.00913 0.43667 0.46898 0.0
C549 C 0.04028 0.40836 0.47083 0.0
C550 C 0.9928 0.43626 0.50612 0.0
C551 C 0.99066 0.44868 0.5567 0.0
C552 C 0.00475 0.46186 0.57099 0.0
C553 C 0.02091 0.46259 0.53296 0.0
C554 C 0.02307 0.45011 0.4823 0.0
H555 H 0.04792 0.39473 0.47173 0.0
H556 H 0.05077 0.41974 0.46443 0.0
H557 H 0.03333 0.41046 0.51714 0.0
H558 H 0.98184 0.42607 0.49668 0.0
H559 H 0.97801 0.44785 0.58497 0.0
H560 H 0.8629 0.01069 0.20467 0.0
H561 H 0.88651 0.0063 0.12246 0.0
H562 H 0.84319 0.98902 0.9927 0.0
H563 H 0.81934 0.99431 0.07365 0.0
H564 H 0.89784 0.97663 0.05138 0.0
H565 H 0.8673 0.03181 0.89736 0.0
H566 H 0.85982 0.02844 0.97772 0.0
H567 H 0.85113 0.0133 0.9164 0.0
C568 C 0.85833 0.00606 0.15855 0.0
C569 C 0.83911 0.00316 0.1457 0.0
C570 C 0.8719 0.00341 0.11168 0.0
C571 C 0.86661 0.99776 0.05088 0.0
C572 C 0.84759 0.99385 0.03878 0.0
H573 H 0.92984 0.98513 0.7015 0.0
H574 H 0.90634 0.98268 0.78555 0.0
C575 C 0.83397 0.99663 0.08552 0.0
C576 C 0.88096 0.99655 0.99995 0.0
H577 H 0.89267 0.01433 0.85553 0.0
C578 C 0.8967 0.98487 0.00856 0.0
C579 C 0.87957 0.00741 0.94415 0.0
C580 C 0.86365 0.02109 0.93343 0.0
C581 C 0.91094 0.98362 0.96272 0.0
C582 C 0.90947 0.99443 0.90702 0.0
C583 C 0.8937 0.00598 0.89815 0.0
C584 C 0.92432 0.99439 0.85778 0.0
C585 C 0.92736 0.97062 0.97386 0.0
C586 C 0.94227 1.0017 0.87056 0.0
C587 C 0.95568 0.0032 0.82253 0.0
C588 C 0.95137 0.99742 0.76088 0.0
C589 C 0.93357 0.98967 0.74857 0.0
C590 C 0.92013 0.98828 0.7965 0.0
H591 H 0.92434 0.96018 0.01145 0.0
H592 H 0.93113 0.96301 0.92998 0.0
H593 H 0.93975 0.97903 0.98862 0.0
H594 H 0.9457 0.00678 0.91725 0.0
H595 H 0.96925 0.00934 0.8333 0.0
H596 H 0.51107 0.82856 0.09504 0.0
H597 H 0.51761 0.85259 0.01571 0.0
H598 H 0.48344 0.89218 0.11848 0.0
H599 H 0.47802 0.8688 0.20001 0.0
H600 H 0.4944 0.86793 0.93903 0.0
H601 H 0.52557 0.92592 0.07557 0.0
H602 H 0.52258 0.90272 0.10842 0.0
H603 H 0.50345 0.91939 0.10936 0.0
C604 C 0.50545 0.84256 0.10197 0.0
C605 C 0.4939 0.84661 0.15412 0.0
C606 C 0.50906 0.85628 0.05608 0.0
C607 C 0.50121 0.87437 0.06108 0.0
C608 C 0.4901 0.87857 0.11391 0.0
H609 H 0.46684 0.94441 0.75218 0.0
H610 H 0.47061 0.92157 0.83713 0.0
C611 C 0.48671 0.86498 0.16016 0.0
C612 C 0.50307 0.88824 0.00856 0.0
H613 H 0.51094 0.93473 0.97666 0.0
C614 C 0.49831 0.88247 0.9473 0.0
C615 C 0.50853 0.90719 0.01846 0.0
C616 C 0.51552 0.91409 0.08144 0.0
C617 C 0.49801 0.89518 0.89664 0.0
C618 C 0.50189 0.91445 0.90767 0.0
C619 C 0.50756 0.92008 0.96821 0.0
C620 C 0.49951 0.92898 0.85757 0.0
C621 C 0.49364 0.88771 0.83173 0.0
C622 C 0.51414 0.94155 0.84264 0.0
C623 C 0.51183 0.95497 0.79477 0.0
C624 C 0.49489 0.95597 0.76083 0.0
C625 C 0.48015 0.94375 0.77687 0.0
C626 C 0.48236 0.93057 0.82514 0.0
H627 H 0.49769 0.87268 0.82735 0.0
H628 H 0.47827 0.88867 0.82325 0.0
H629 H 0.50104 0.89583 0.79459 0.0
H630 H 0.52744 0.94078 0.86736 0.0
H631 H 0.5234 0.9643 0.78356 0.0
H632 H 0.68275 0.51163 0.07644 0.0
H633 H 0.6587 0.51721 0.99624 0.0
H634 H 0.61555 0.50134 0.1286 0.0
H635 H 0.63937 0.49659 0.2098 0.0
H636 H 0.63549 0.49125 0.94746 0.0
H637 H 0.59248 0.54786 0.05361 0.0
H638 H 0.61543 0.54164 0.08335 0.0
H639 H 0.59511 0.52798 0.10485 0.0
C640 C 0.66811 0.50984 0.08913 0.0
C641 C 0.66305 0.50364 0.14978 0.0
C642 C 0.65437 0.51289 0.04297 0.0
C643 C 0.63525 0.5099 0.05639 0.0
C644 C 0.63012 0.50413 0.11726 0.0
H645 H 0.53431 0.49673 0.83015 0.0
H646 H 0.55753 0.49871 0.91556 0.0
C647 C 0.64383 0.50117 0.1635 0.0
C648 C 0.62088 0.51133 0.00552 0.0
H649 H 0.57881 0.53154 0.96621 0.0
C650 C 0.62321 0.50023 0.95135 0.0
C651 C 0.60477 0.52296 0.0106 0.0
C652 C 0.60186 0.53592 0.06596 0.0
C653 C 0.60975 0.50013 0.90293 0.0
C654 C 0.59357 0.51157 0.90838 0.0
C655 C 0.59122 0.52274 0.96227 0.0
C656 C 0.57896 0.51194 0.85841 0.0
C657 C 0.61271 0.48743 0.84686 0.0
C658 C 0.58314 0.51919 0.79854 0.0
C659 C 0.56991 0.51815 0.74989 0.0
C660 C 0.55226 0.50981 0.7602 0.0
C661 C 0.54782 0.5032 0.82083 0.0
C662 C 0.56105 0.50432 0.86961 0.0
H663 H 0.62383 0.47678 0.85566 0.0
H664 H 0.59947 0.48004 0.83436 0.0
H665 H 0.61703 0.49604 0.80572 0.0
H666 H 0.59679 0.52533 0.78914 0.0
H667 H 0.57369 0.52344 0.70376 0.0
H668 H 0.03083 0.64022 0.19847 0.0
H669 H 0.02461 0.61679 0.11753 0.0
H670 H 0.98399 0.65379 0.03159 0.0
H671 H 0.99104 0.67791 0.11052 0.0
H672 H 0.99522 0.59718 0.07783 0.0
H673 H 0.01861 0.64481 0.88582 0.0
H674 H 0.02143 0.6507 0.9678 0.0
H675 H 0.99894 0.65345 0.93008 0.0
C676 C 0.02065 0.64349 0.16218 0.0
C677 C 0.0118 0.66121 0.1603 0.0
C678 C 0.01695 0.62995 0.11617 0.0
C679 C 0.00419 0.63365 0.0673 0.0
C680 C 0.99432 0.65079 0.06769 0.0
H681 H 0.97962 0.54279 0.79292 0.0
H682 H 0.97599 0.56569 0.87871 0.0
C683 C 0.99817 0.66449 0.11347 0.0
C684 C 1.00215 0.61986 0.01478 0.0
H685 H 0.00858 0.61462 0.85624 0.0
C686 C 0.99802 0.60101 0.02928 0.0
C687 C 0.00604 0.62478 0.95142 0.0
C688 C 0.01167 0.64448 0.9327 0.0
C689 C 0.99814 0.58692 0.98271 0.0
C690 C 1.00199 0.59187 0.91938 0.0
C691 C 0.00557 0.6108 0.90467 0.0
C692 C 0.00385 0.57761 0.86823 0.0
C693 C 0.99503 0.56677 0.00241 0.0
C694 C 0.02051 0.57688 0.83276 0.0
C695 C 0.02244 0.56411 0.78321 0.0
C696 C 0.0078 0.55167 0.76811 0.0
C697 C 0.99117 0.55216 0.80386 0.0
C698 C 0.98914 0.56516 0.85315 0.0
H699 H 0.99709 0.56481 0.05388 0.0
H700 H 0.98038 0.56263 0.99096 0.0
H701 H 0.00471 0.55715 0.97705 0.0
H702 H 0.03209 0.58627 0.84337 0.0
H703 H 0.03544 0.56401 0.75663 0.0
H704 H 0.08551 0.21869 0.24 0.0
H705 H 0.07517 0.19373 0.31138 0.0
H706 H 0.0306 0.22937 0.37955 0.0
H707 H 0.04028 0.25407 0.30704 0.0
H708 H 0.06422 0.18946 0.44828 0.0
H709 H 0.00548 0.18587 0.27479 0.0
H710 H 0.02684 0.19874 0.25922 0.0
H711 H 0.0095 0.20825 0.31177 0.0
C712 C 0.07379 0.22138 0.27125 0.0
C713 C 0.06348 0.23822 0.26671 0.0
C714 C 0.06801 0.20718 0.31237 0.0
C715 C 0.05195 0.20968 0.34968 0.0
C716 C 0.04296 0.2272 0.35062 0.0
H717 H 0.97808 0.12041 0.48248 0.0
H718 H 0.9919 0.1515 0.46609 0.0
C719 C 0.04863 0.24136 0.30931 0.0
C720 C 0.04272 0.19314 0.37802 0.0
H721 H 0.00581 0.16334 0.3549 0.0
C722 C 0.05136 0.1838 0.42847 0.0
C723 C 0.02595 0.18586 0.35174 0.0
C724 C 0.0164 0.19506 0.29612 0.0
C725 C 0.04368 0.16714 0.45309 0.0
C726 C 0.02724 0.15956 0.42536 0.0
C727 C 0.01837 0.16923 0.37612 0.0
C728 C 0.01961 0.14096 0.44311 0.0
C729 C 0.0532 0.15782 0.50837 0.0
C730 C 0.0306 0.12475 0.43549 0.0
C731 C 0.02278 0.10699 0.44506 0.0
C732 C 0.00374 0.1051 0.46176 0.0
C733 C 0.99282 0.12139 0.47016 0.0
C734 C 1.00068 0.13916 0.46079 0.0
H735 H 0.0615 0.1681 0.53627 0.0
H736 H 0.0428 0.15095 0.53989 0.0
H737 H 0.06302 0.1469 0.49077 0.0
H738 H 0.04511 0.1258 0.42034 0.0
H739 H 0.03164 0.09473 0.43919 0.0
H740 H 0.29639 0.06144 0.02343 0.0
H741 H 0.32839 0.05536 0.05918 0.0
H742 H 0.31239 0.06979 0.24903 0.0
H743 H 0.28041 0.07669 0.21319 0.0
H744 H 0.34928 0.08124 0.2168 0.0
H745 H 0.33562 0.00626 0.15708 0.0
H746 H 0.3334 0.02258 0.09295 0.0
H747 H 0.31723 0.02371 0.15784 0.0
C748 C 0.29979 0.06405 0.07238 0.0
C749 C 0.28579 0.06945 0.11564 0.0
C750 C 0.31807 0.06032 0.09283 0.0
C751 C 0.3226 0.06172 0.15691 0.0
C752 C 0.3091 0.0685 0.19938 0.0
H753 H 0.39717 1.0016 0.39477 0.0
H754 H 0.37135 0.01556 0.33501 0.0
C755 C 0.29083 0.07235 0.17893 0.0
C756 C 0.34065 0.05429 0.18099 0.0
H757 H 0.36481 0.01334 0.20304 0.0
C758 C 0.35283 0.06645 0.21327 0.0
C759 C 0.34505 0.03491 0.17676 0.0
C760 C 0.33211 0.02103 0.14477 0.0
C761 C 0.36919 0.05966 0.24253 0.0
C762 C 0.37346 0.04028 0.23879 0.0
C763 C 0.3615 0.02821 0.20535 0.0
C764 C 0.38936 0.03191 0.27379 0.0
C765 C 0.38137 0.0731 0.27941 0.0
C766 C 0.40804 0.03632 0.25851 0.0
C767 C 0.42285 0.0284 0.2928 0.0
C768 C 0.41918 0.01595 0.34284 0.0
C769 C 0.40044 0.01135 0.35713 0.0
C770 C 0.38569 0.01922 0.32284 0.0
H771 H 0.37445 0.08694 0.28642 0.0
H772 H 0.38491 0.06708 0.32621 0.0
H773 H 0.39473 0.07544 0.25358 0.0
H774 H 0.41114 0.04589 0.2202 0.0
H775 H 0.43715 0.03228 0.28096 0.0
H776 H 0.42619 0.29124 0.24639 0.0
H777 H 0.43792 0.31464 0.32109 0.0
H778 H 0.47978 0.27536 0.38635 0.0
H779 H 0.46853 0.25208 0.31072 0.0
H780 H 0.44838 0.31679 0.45808 0.0
H781 H 0.50831 0.31807 0.28855 0.0
H782 H 0.48633 0.30668 0.27015 0.0
H783 H 0.5025 0.29586 0.32405 0.0
C784 C 0.43757 0.28742 0.27782 0.0
C785 C 0.44669 0.26998 0.27178 0.0
C786 C 0.44415 0.30073 0.32076 0.0
C787 C 0.45989 0.29676 0.35823 0.0
C788 C 0.46769 0.27867 0.35734 0.0
H789 H 0.53442 0.38703 0.48377 0.0
H790 H 0.52143 0.35536 0.4724 0.0
C791 C 0.46115 0.26535 0.3143 0.0
C792 C 0.47 0.31242 0.38866 0.0
H793 H 0.50763 0.34131 0.36585 0.0
C794 C 0.4615 0.32203 0.43878 0.0
C795 C 0.48712 0.31913 0.36322 0.0
C796 C 0.49663 0.30954 0.3083 0.0
C797 C 0.46945 0.33858 0.46302 0.0
C798 C 0.486 0.34586 0.43509 0.0
C799 C 0.49495 0.3357 0.38712 0.0
C800 C 0.4933 0.36482 0.44988 0.0
C801 C 0.45994 0.34823 0.51764 0.0
C802 C 0.48181 0.38062 0.44067 0.0
C803 C 0.48915 0.39868 0.44742 0.0
C804 C 0.50821 0.40133 0.46265 0.0
C805 C 0.51966 0.38547 0.47246 0.0
C806 C 0.51226 0.36738 0.466 0.0
H807 H 0.45212 0.33799 0.54721 0.0
H808 H 0.47025 0.35577 0.54773 0.0
H809 H 0.44964 0.35859 0.49928 0.0
H810 H 0.46727 0.37901 0.4265 0.0
H811 H 0.47987 0.41059 0.44063 0.0
H812 H 0.23568 0.47126 0.2554 0.0
H813 H 0.20581 0.47494 0.30952 0.0
H814 H 0.18815 0.42036 0.24389 0.0
H815 H 0.21838 0.41629 0.19035 0.0
H816 H 0.16477 0.45018 0.20731 0.0
H817 H 0.17883 0.45285 0.46387 0.0
H818 H 0.19447 0.46735 0.41858 0.0
H819 H 0.19497 0.44225 0.40849 0.0
C820 C 0.22584 0.45965 0.25452 0.0
C821 C 0.22942 0.44349 0.21816 0.0
C822 C 0.2087 0.46181 0.28553 0.0
C823 C 0.19483 0.44788 0.28098 0.0
C824 C 0.19874 0.43124 0.24806 0.0
H825 H 0.08157 0.46584 0.43302 0.0
H826 H 0.11125 0.45069 0.4034 0.0
C827 C 0.21596 0.429 0.21725 0.0
C828 C 0.17549 0.45209 0.30205 0.0
H829 H 0.15003 0.46725 0.42844 0.0
C830 C 0.16144 0.45355 0.25588 0.0
C831 C 0.17123 0.4565 0.36536 0.0
C832 C 0.18563 0.4545 0.41707 0.0
C833 C 0.14346 0.46022 0.27086 0.0
C834 C 0.13952 0.46559 0.33345 0.0
C835 C 0.15323 0.46325 0.38032 0.0
C836 C 0.12152 0.47452 0.35034 0.0
C837 C 0.1289 0.46193 0.21948 0.0
C838 C 0.11764 0.4929 0.33021 0.0
C839 C 0.10077 0.50159 0.34706 0.0
C840 C 0.08752 0.49195 0.38398 0.0
C841 C 0.09143 0.47347 0.40369 0.0
C842 C 0.10838 0.46486 0.38729 0.0
H843 H 0.13284 0.45374 0.17692 0.0
H844 H 0.11497 0.45703 0.23647 0.0
H845 H 0.1275 0.47693 0.20577 0.0
H846 H 0.12774 0.50056 0.30196 0.0
H847 H 0.09808 0.51581 0.3312 0.0
H848 H 0.07305 0.80303 0.25351 0.0
H849 H 0.07763 0.8316 0.19201 0.0
H850 H 0.09206 0.7983 0.02922 0.0
H851 H 0.08702 0.76948 0.09053 0.0
H852 H 0.1055 0.84807 0.12234 0.0
H853 H 0.04575 0.826 0.96946 0.0
H854 H 0.05178 0.8136 0.04068 0.0
H855 H 0.06559 0.81041 0.97058 0.0
C856 C 0.07768 0.80177 0.20508 0.0
C857 C 0.07952 0.78404 0.17659 0.0
C858 C 0.08025 0.81812 0.16991 0.0
C859 C 0.08478 0.81706 0.10571 0.0
C860 C 0.0881 0.7994 0.07832 0.0
H861 H 0.06688 0.91254 0.85043 0.0
H862 H 0.08061 0.88329 0.89017 0.0
C863 C 0.0853 0.78298 0.11336 0.0
C864 C 0.08407 0.83439 0.06709 0.0
H865 H 0.05778 0.85619 0.95406 0.0
C866 C 0.09528 0.84977 0.08483 0.0
C867 C 0.07068 0.83659 0.01821 0.0
C868 C 0.05764 0.82086 0.99874 0.0
C869 C 0.09289 0.86749 0.05683 0.0
C870 C 0.07893 0.86983 0.0102 0.0
C871 C 0.06852 0.85425 0.9898 0.0
C872 C 0.0732 0.88859 0.98731 0.0
C873 C 0.10491 0.8837 0.07856 0.0
C874 C 0.06456 0.90122 0.02892 0.0
C875 C 0.0564 0.91774 0.00635 0.0
C876 C 0.05673 0.92195 0.94162 0.0
C877 C 0.06609 0.90958 0.9004 0.0
C878 C 0.07411 0.89296 0.92301 0.0
H879 H 0.11821 0.87872 0.1004 0.0
H880 H 0.10833 0.89324 0.03875 0.0
H881 H 0.09707 0.89191 0.11442 0.0
H882 H 0.06332 0.89785 0.07853 0.0
H883 H 0.04906 0.92673 0.03933 0.0
H884 H 0.72458 0.04949 0.09281 0.0
H885 H 0.69517 0.05586 0.03904 0.0
H886 H 0.68423 0.10208 0.16514 0.0
H887 H 0.71417 0.09617 0.21868 0.0
H888 H 0.65633 0.07439 0.16414 0.0
H889 H 0.67354 0.09586 0.92054 0.0
H890 H 0.68681 0.0757 0.94516 0.0
H891 H 0.69015 0.09784 0.9847 0.0
C892 C 0.71641 0.06153 0.10773 0.0
C893 C 0.72181 0.07228 0.16039 0.0
C894 C 0.69951 0.06514 0.07679 0.0
C895 C 0.6876 0.07955 0.0977 0.0
C896 C 0.6933 0.09095 0.1481 0.0
H897 H 0.57277 0.08209 0.93642 0.0
H898 H 0.60215 0.09434 0.98179 0.0
C899 C 0.71035 0.08746 0.17887 0.0
C900 C 0.66818 0.08054 0.07299 0.0
H901 H 0.64337 0.08039 0.93536 0.0
C902 C 0.6534 0.07624 0.11438 0.0
C903 C 0.66438 0.08299 0.00812 0.0
C904 C 0.67956 0.08854 0.96217 0.0
C905 C 0.63519 0.07288 0.0918 0.0
C906 C 0.63176 0.07386 0.02643 0.0
C907 C 0.64616 0.07952 0.98551 0.0
C908 C 0.61401 0.06685 0.99938 0.0
C909 C 0.61992 0.0673 0.13738 0.0
C910 C 0.61117 0.04742 0.99432 0.0
C911 C 0.59458 0.04042 0.96836 0.0
C912 C 0.5805 0.05277 0.9473 0.0
C913 C 0.58335 0.07228 0.95277 0.0
C914 C 0.60008 0.07929 0.97829 0.0
H915 H 0.62381 0.07054 0.18689 0.0
H916 H 0.60657 0.07464 0.12576 0.0
H917 H 0.61736 0.05195 0.13347 0.0
H918 H 0.62184 0.03766 0.0104 0.0
H919 H 0.59268 0.02534 0.96532 0.0
H920 H 0.40137 0.72402 0.17199 0.0
H921 H 0.39472 0.69447 0.11639 0.0
H922 H 0.45114 0.69436 0.04195 0.0
H923 H 0.45784 0.72359 0.09666 0.0
H924 H 0.4245 0.68228 0.95495 0.0
H925 H 0.41715 0.64576 0.18617 0.0
H926 H 0.40136 0.6649 0.17006 0.0
H927 H 0.42601 0.66945 0.18032 0.0
C928 C 0.41224 0.71778 0.14305 0.0
C929 C 0.43015 0.72611 0.13892 0.0
C930 C 0.40843 0.70093 0.11141 0.0
C931 C 0.42253 0.69213 0.07582 0.0
C932 C 0.44003 0.70097 0.06896 0.0
H933 H 0.46936 0.58901 0.0101 0.0
H934 H 0.45567 0.61844 0.04657 0.0
C935 C 0.44382 0.71775 0.10016 0.0
C936 C 0.42015 0.67293 0.05021 0.0
H937 H 0.4203 0.627 0.09669 0.0
C938 C 0.42311 0.67014 0.98553 0.0
C939 C 0.41842 0.65718 0.09055 0.0
C940 C 0.41566 0.65933 0.1607 0.0
C941 C 0.42583 0.65205 0.96077 0.0
C942 C 0.42518 0.63639 0.0018 0.0
C943 C 0.42076 0.63909 0.06555 0.0
C944 C 0.4321 0.61769 0.98208 0.0
C945 C 0.43085 0.64998 0.89204 0.0
C946 C 0.42318 0.60734 0.93444 0.0
C947 C 0.43103 0.59042 0.91336 0.0
C948 C 0.44781 0.58358 0.94008 0.0
C949 C 0.4563 0.59374 0.98916 0.0
C950 C 0.44852 0.6106 0.00992 0.0
H951 H 0.43328 0.66377 0.86884 0.0
H952 H 0.44371 0.64127 0.88663 0.0
H953 H 0.41921 0.64277 0.86701 0.0
H954 H 0.41033 0.61244 0.91308 0.0
H955 H 0.42406 0.58276 0.87598 0.0
H956 H 0.77874 0.45913 0.0932 0.0
H957 H 0.80822 0.45307 0.0394 0.0
H958 H 0.81832 0.40525 0.15956 0.0
H959 H 0.78833 0.41087 0.21308 0.0
H960 H 0.84656 0.43248 0.16298 0.0
H961 H 0.82961 0.41424 0.91625 0.0
H962 H 0.81662 0.43431 0.94322 0.0
H963 H 0.81282 0.41177 0.97964 0.0
C964 C 0.78674 0.44683 0.10674 0.0
C965 C 0.78111 0.43552 0.15778 0.0
C966 C 0.80368 0.4434 0.07579 0.0
C967 C 0.81537 0.42861 0.09508 0.0
C968 C 0.80942 0.41668 0.14378 0.0
H969 H 0.92885 0.42576 0.9249 0.0
H970 H 0.89924 0.41375 0.96923 0.0
C971 C 0.79235 0.42001 0.17456 0.0
C972 C 0.83484 0.42766 0.07075 0.0
H973 H 0.86003 0.42887 0.934 0.0
C974 C 0.84958 0.43118 0.11309 0.0
C975 C 0.83877 0.42588 0.00574 0.0
C976 C 0.82362 0.42115 0.95867 0.0
C977 C 0.86792 0.43441 0.09154 0.0
C978 C 0.87152 0.43415 0.02617 0.0
C979 C 0.85712 0.42923 0.98414 0.0
C980 C 0.88953 0.441 1.00046 0.0
C981 C 0.88318 0.43894 0.13849 0.0
C982 C 0.89367 0.46026 0.00323 0.0
C983 C 0.91038 0.46713 0.97779 0.0
C984 C 0.9233 0.45484 0.94938 0.0
C985 C 0.91918 0.4355 0.94705 0.0
C986 C 0.90231 0.42864 0.972 0.0
H987 H 0.87934 0.43434 0.18681 0.0
H988 H 0.89663 0.43215 0.12483 0.0
H989 H 0.88547 0.45438 0.13934 0.0
H990 H 0.88386 0.46999 0.0247 0.0
H991 H 0.91326 0.48207 0.98065 0.0
H992 H 0.01543 0.22395 0.81267 0.0
H993 H 0.01043 0.19217 0.77122 0.0
H994 H 0.01729 0.16933 0.95789 0.0
H995 H 0.02237 0.20087 0.99953 0.0
H996 H 0.03441 0.16178 0.77331 0.0
H997 H 0.96903 0.14411 0.90177 0.0
H998 H 0.97788 0.16784 0.89638 0.0
H999 H 0.98756 0.15172 0.95312 0.0
C1000 C 0.01578 0.21218 0.845 0.0
C1001 C 0.01913 0.21509 0.90968 0.0
C1002 C 0.01288 0.194 0.8212 0.0
C1003 C 0.01316 0.17832 0.86151 0.0
C1004 C 0.01648 0.18119 0.926 0.0
H1005 H 0.00835 0.05711 0.83396 0.0
H1006 H 0.01108 0.09006 0.86536 0.0
C1007 C 0.01936 0.19931 0.94981 0.0
C1008 C 0.01082 0.15889 0.8361 0.0
H1009 H 0.98528 0.11849 0.85373 0.0
C1010 C 0.02355 0.15236 0.79041 0.0
C1011 C 0.99664 0.14657 0.85827 0.0
C1012 C 0.98188 0.15295 0.90461 0.0
C1013 C 0.02292 0.13372 0.76811 0.0
C1014 C 0.00899 0.12128 0.79142 0.0
C1015 C 0.99605 0.12793 0.83616 0.0
C1016 C 0.00778 0.10122 0.77118 0.0
C1017 C 0.03759 0.12736 0.72138 0.0
C1018 C 0.00494 0.0964 0.70769 0.0
C1019 C 0.00349 0.07751 0.68949 0.0
C1020 C 0.00461 0.06297 0.73439 0.0
C1021 C 0.00744 0.06786 0.79794 0.0
C1022 C 0.00895 0.08674 0.81607 0.0
H1023 H 0.05 0.13685 0.72106 0.0
H1024 H 0.04242 0.11286 0.73196 0.0
H1025 H 0.03141 0.12744 0.67338 0.0
H1026 H 0.00361 0.10726 0.6722 0.0
H1027 H 1.00141 0.07433 0.64019 0.0
H1028 H 0.29838 0.0177 0.00141 0.0
H1029 H 0.33102 0.01508 0.96727 0.0
H1030 H 0.31259 0.99843 0.78202 0.0
H1031 H 0.27985 0.99999 0.81674 0.0
H1032 H 0.34261 0.9782 0.81844 0.0
H1033 H 0.3572 0.05373 0.8612 0.0
H1034 H 0.34943 0.04146 0.93027 0.0
H1035 H 0.33376 0.0441 0.86429 0.0
C1036 C 0.30119 0.01305 0.95377 0.0
C1037 C 0.28634 0.00911 0.91182 0.0
C1038 C 0.31994 0.01189 0.93396 0.0
C1039 C 0.32432 0.00706 0.8715 0.0
C1040 C 0.3096 0.0024 0.83024 0.0
H1041 H 0.42573 1.00179 0.64109 0.0
H1042 H 0.39341 1.00192 0.68074 0.0
C1043 C 0.29084 0.00341 0.85012 0.0
C1044 C 0.34418 0.00704 0.84878 0.0
H1045 H 0.38328 0.0347 0.83302 0.0
C1046 C 0.35146 0.99058 0.82146 0.0
C1047 C 0.35579 0.02322 0.85252 0.0
C1048 C 0.34862 0.04168 0.87808 0.0
C1049 C 0.37002 0.98978 0.79864 0.0
C1050 C 0.3816 0.00591 0.80257 0.0
C1051 C 0.3744 0.02234 0.83014 0.0
C1052 C 0.40123 0.00604 0.77824 0.0
C1053 C 0.37722 0.97155 0.77144 0.0
C1054 C 0.41639 0.00876 0.81959 0.0
C1055 C 0.4349 0.00871 0.79709 0.0
C1056 C 0.43867 0.00614 0.73255 0.0
C1057 C 0.4234 0.00377 0.69106 0.0
C1058 C 0.40489 0.00372 0.7137 0.0
H1059 H 0.36821 0.95943 0.78486 0.0
H1060 H 0.37733 0.97257 0.71929 0.0
H1061 H 0.39183 0.96874 0.78737 0.0
H1062 H 0.4139 0.01069 0.86951 0.0
H1063 H 0.44627 0.01063 0.83045 0.0
H1064 H 0.4925 0.30327 0.98107 0.0
H1065 H 0.49779 0.33481 0.93901 0.0
H1066 H 0.47912 0.3165 0.75607 0.0
H1067 H 0.47442 0.28464 0.79686 0.0
H1068 H 0.52068 0.34659 0.82009 0.0
H1069 H 0.44404 0.36276 0.81744 0.0
H1070 H 0.45389 0.34478 0.86777 0.0
H1071 H 0.45168 0.34065 0.78482 0.0
C1072 C 0.48993 0.30571 0.93149 0.0
C1073 C 0.48296 0.29123 0.89258 0.0
C1074 C 0.49283 0.32386 0.90766 0.0
C1075 C 0.48869 0.32805 0.8446 0.0
C1076 C 0.48224 0.31361 0.80508 0.0
H1077 H 0.50933 0.43238 0.63532 0.0
H1078 H 0.50644 0.39935 0.66644 0.0
C1079 C 0.47947 0.2954 0.82868 0.0
C1080 C 0.49046 0.34766 0.82096 0.0
H1081 H 0.46456 0.38647 0.78168 0.0
C1082 C 0.50843 0.3553 0.81132 0.0
C1083 C 0.47445 0.35901 0.81 0.0
C1084 C 0.45487 0.35154 0.82071 0.0
C1085 C 0.5108 0.37399 0.79087 0.0
C1086 C 0.49478 0.38535 0.78 0.0
C1087 C 0.47682 0.37772 0.78978 0.0
C1088 C 0.49644 0.40539 0.76049 0.0
C1089 C 0.5304 0.38166 0.7822 0.0
C1090 C 0.49153 0.41979 0.80259 0.0
C1091 C 0.49331 0.43871 0.78506 0.0
C1092 C 0.49986 0.44367 0.72469 0.0
C1093 C 0.50442 0.42915 0.68225 0.0
C1094 C 0.50279 0.41022 0.70001 0.0
H1095 H 0.54128 0.37203 0.80144 0.0
H1096 H 0.53317 0.3837 0.73121 0.0
H1097 H 0.53177 0.39556 0.80558 0.0
H1098 H 0.48652 0.41638 0.8494 0.0
H1099 H 0.48957 0.44943 0.81902 0.0
H1100 H 0.21709 0.51865 0.90943 0.0
H1101 H 0.18481 0.52265 0.87078 0.0
H1102 H 0.18167 0.46321 0.83156 0.0
H1103 H 0.21402 0.45934 0.86772 0.0
H1104 H 0.16627 0.48138 0.73953 0.0
H1105 H 0.13739 0.51052 0.96114 0.0
H1106 H 0.15608 0.5246 0.92973 0.0
H1107 H 0.16083 0.501 0.95618 0.0
C1108 C 0.20949 0.50648 0.89238 0.0
C1109 C 0.21815 0.48871 0.89138 0.0
C1110 C 0.19096 0.50873 0.87077 0.0
C1111 C 0.18053 0.49316 0.84933 0.0
C1112 C 0.18931 0.47547 0.84778 0.0
H1113 H 0.05854 0.48828 0.81607 0.0
H1114 H 0.09146 0.48595 0.84866 0.0
C1115 C 0.20787 0.47328 0.86831 0.0
C1116 C 0.16059 0.49512 0.82788 0.0
H1117 H 0.11713 0.51088 0.8723 0.0
C1118 C 0.15553 0.4878 0.76873 0.0
C1119 C 0.1464 0.5032 0.86617 0.0
C1120 C 0.15038 0.5101 0.93207 0.0
C1121 C 0.13686 0.4883 0.74689 0.0
C1122 C 0.1228 0.49704 0.78412 0.0
C1123 C 0.12785 0.50435 0.8433 0.0
C1124 C 0.10273 0.49835 0.76347 0.0
C1125 C 0.13236 0.47884 0.68505 0.0
C1126 C 0.09792 0.50624 0.70492 0.0
C1127 C 0.0791 0.50725 0.68567 0.0
C1128 C 0.06458 0.50083 0.72522 0.0
C1129 C 0.06935 0.49333 0.7844 0.0
C1130 C 0.08821 0.49203 0.80315 0.0
H1131 H 0.14294 0.4679 0.67316 0.0
H1132 H 0.11826 0.47214 0.68608 0.0
H1133 H 0.13257 0.48947 0.64682 0.0
H1134 H 0.1087 0.51181 0.67415 0.0
H1135 H 0.07591 0.51336 0.64016 0.0
H1136 H 0.97801 0.79495 0.4278 0.0
H1137 H 0.97327 0.82729 0.46563 0.0
H1138 H 0.03339 0.83442 0.48047 0.0
H1139 H 0.03797 0.80196 0.44624 0.0
H1140 H 0.01833 0.84821 0.57892 0.0
H1141 H 0.97803 0.87579 0.37576 0.0
H1142 H 0.9666 0.85622 0.41266 0.0
H1143 H 0.989 0.85295 0.37463 0.0
C1144 C 0.99013 0.80353 0.43908 0.0
C1145 C 0.00833 0.796 0.43444 0.0
C1146 C 0.98746 0.82206 0.46016 0.0
C1147 C 0.00297 0.83356 0.47506 0.0
C1148 C 0.02115 0.82596 0.46955 0.0
H1149 H 0.0032 0.9553 0.512 0.0
H1150 H 0.00448 0.92262 0.47647 0.0
C1151 C 0.02378 0.8074 0.44991 0.0
C1152 C 1.00056 0.85325 0.49848 0.0
H1153 H 0.9803 0.89573 0.46517 0.0
C1154 C 0.01004 0.85859 0.55378 0.0
C1155 C 0.98996 0.86699 0.46556 0.0
C1156 C 0.98049 0.86277 0.40355 0.0
C1157 C 0.00944 0.87713 0.57663 0.0
C1158 C 0.99829 0.89071 0.54504 0.0
C1159 C 0.98869 0.88536 0.48994 0.0
C1160 C 0.99698 0.91065 0.56688 0.0
C1161 C 0.02142 0.88205 0.633 0.0
C1162 C 0.99203 0.91501 0.62935 0.0
C1163 C 0.99172 0.93371 0.65013 0.0
C1164 C 0.99575 0.94853 0.6084 0.0
C1165 C 0.99999 0.94422 0.54534 0.0
C1166 C 1.0007 0.92551 0.52494 0.0
H1167 H 0.03333 0.87207 0.63862 0.0
H1168 H 0.02724 0.89649 0.6291 0.0
H1169 H 0.01273 0.8812 0.6763 0.0
H1170 H 0.98844 0.90396 0.66225 0.0
H1171 H 0.98814 0.93656 0.6988 0.0
H1172 H 0.69107 0.01228 0.34051 0.0
H1173 H 0.65921 0.00956 0.38243 0.0
H1174 H 0.68023 0.97788 0.54055 0.0
H1175 H 0.71226 0.98021 0.49823 0.0
H1176 H 0.64542 0.96364 0.48393 0.0
H1177 H 0.64256 0.03979 0.54118 0.0
H1178 H 0.64915 0.03442 0.46146 0.0
H1179 H 0.66435 0.02766 0.52515 0.0
C1180 C 0.68894 0.00437 0.38351 0.0
C1181 C 0.70429 0.99646 0.41596 0.0
C1182 C 0.67071 0.00302 0.40778 0.0
C1183 C 0.66738 0.99376 0.46506 0.0
C1184 C 0.6825 0.98519 0.49644 0.0
H1185 H 0.56677 0.00626 0.69601 0.0
H1186 H 0.59912 0.00416 0.65757 0.0
C1187 C 0.70081 0.98661 0.47231 0.0
C1188 C 0.64822 0.99364 0.49304 0.0
H1189 H 0.6142 0.02261 0.55212 0.0
C1190 C 0.63859 0.9765 0.49906 0.0
C1191 C 0.63944 0.01042 0.51349 0.0
C1192 C 0.64942 0.02913 0.51062 0.0
C1193 C 0.62021 0.97577 0.52358 0.0
C1194 C 0.61121 0.99265 0.54214 0.0
C1195 C 0.62104 0.00971 0.53747 0.0
C1196 C 0.59157 0.99299 0.56625 0.0
C1197 C 0.61064 0.95695 0.53004 0.0
C1198 C 0.57652 0.98749 0.52762 0.0
C1199 C 0.55797 0.98871 0.54937 0.0
C1200 C 0.55406 0.9955 0.61026 0.0
C1201 C 0.5692 1.00089 0.64898 0.0
C1202 C 0.58774 0.99973 0.62707 0.0
H1203 H 0.62091 0.94517 0.52886 0.0
H1204 H 0.60253 0.95615 0.57466 0.0
H1205 H 0.60068 0.95503 0.49033 0.0
H1206 H 0.57909 0.98258 0.48011 0.0
H1207 H 0.54669 0.98452 0.5181 0.0
H1208 H 0.49351 0.69692 0.3348 0.0
H1209 H 0.49809 0.66503 0.37481 0.0
H1210 H 0.5116 0.6872 0.55808 0.0
H1211 H 0.50769 0.71926 0.51817 0.0
H1212 H 0.53172 0.64833 0.44463 0.0
H1213 H 0.46479 0.6502 0.58042 0.0
H1214 H 0.46928 0.66587 0.51514 0.0
H1215 H 0.48062 0.66977 0.58945 0.0
C1216 C 0.49791 0.69514 0.38325 0.0
C1217 C 0.50016 0.71083 0.42316 0.0
C1218 C 0.50037 0.67683 0.40616 0.0
C1219 C 0.50495 0.67374 0.46957 0.0
C1220 C 0.50782 0.68927 0.50914 0.0
H1221 H 0.50687 0.57114 0.69623 0.0
H1222 H 0.50721 0.60375 0.65943 0.0
C1223 C 0.5055 0.70761 0.4862 0.0
C1224 C 0.50612 0.65424 0.49467 0.0
H1225 H 0.48296 0.62266 0.58795 0.0
C1226 C 0.5211 0.64268 0.47603 0.0
C1227 C 0.49229 0.64697 0.53587 0.0
C1228 C 0.47573 0.65872 0.55635 0.0
C1229 C 0.52272 0.62407 0.49796 0.0
C1230 C 0.50864 0.6166 0.53817 0.0
C1231 C 0.49375 0.62829 0.55715 0.0
C1232 C 0.50891 0.59667 0.56044 0.0
C1233 C 0.53974 0.61276 0.47887 0.0
C1234 C 0.50951 0.58172 0.51722 0.0
C1235 C 0.50949 0.56304 0.53816 0.0
C1236 C 0.50856 0.55882 0.60288 0.0
C1237 C 0.50765 0.57381 0.64607 0.0
C1238 C 0.50784 0.59251 0.62507 0.0
H1239 H 0.55171 0.62202 0.46584 0.0
H1240 H 0.54434 0.60322 0.51732 0.0
H1241 H 0.53619 0.60411 0.43704 0.0
H1242 H 0.50976 0.58447 0.46707 0.0
H1243 H 0.50997 0.55191 0.50341 0.0
H1244 H 0.78913 0.52491 0.5065 0.0
H1245 H 0.82103 0.5278 0.54928 0.0
H1246 H 0.84305 0.49827 0.3881 0.0
H1247 H 0.81131 0.49494 0.34582 0.0
H1248 H 0.85524 0.48378 0.50469 0.0
H1249 H 0.86546 0.56116 0.49129 0.0
H1250 H 0.84426 0.55353 0.5297 0.0
H1251 H 0.84743 0.54906 0.44715 0.0
C1252 C 0.80078 0.51916 0.47992 0.0
C1253 C 0.79761 0.50978 0.42247 0.0
C1254 C 0.81903 0.52095 0.50422 0.0
C1255 C 0.83447 0.5134 0.47162 0.0
C1256 C 0.83138 0.50431 0.4139 0.0
H1257 H 0.95457 0.52494 0.52603 0.0
H1258 H 0.92202 0.52599 0.48904 0.0
C1259 C 0.8132 0.50257 0.38949 0.0
C1260 C 0.85372 0.51396 0.499 0.0
H1261 H 0.88926 0.54361 0.54273 0.0
C1262 C 0.86266 0.49687 0.51313 0.0
C1263 C 0.86345 0.53103 0.50954 0.0
C1264 C 0.85478 0.54977 0.49324 0.0
C1265 C 0.88102 0.49636 0.53763 0.0
C1266 C 0.89067 0.51343 0.54895 0.0
C1267 C 0.88178 0.53054 0.53456 0.0
C1268 C 0.91026 0.51369 0.57345 0.0
C1269 C 0.89012 0.47754 0.54983 0.0
C1270 C 0.91446 0.50675 0.63377 0.0
C1271 C 0.93308 0.50615 0.65524 0.0
C1272 C 0.94791 0.51249 0.61675 0.0
C1273 C 0.94356 0.51987 0.55693 0.0
C1274 C 0.92494 0.52053 0.53567 0.0
H1275 H 0.88244 0.46589 0.52632 0.0
H1276 H 0.90492 0.4775 0.53318 0.0
H1277 H 0.89019 0.47475 0.60125 0.0
H1278 H 0.90332 0.50164 0.66409 0.0
H1279 H 0.93585 0.50044 0.70162 0.0
loop_
_geom_bond_atom_site_label_1
_geom_bond_atom_site_label_2
_geom_bond_distance
_geom_bond_site_symmetry_2
_ccdc_geom_bond_type
P0 O11 1.490 . S
P0 C14 1.812 . S
P0 C20 1.803 . S
P0 C26 1.819 . S
H1 C15 0.941 . S
H2 C16 0.939 . S
H3 C18 0.940 . S
H4 C19 0.940 . S
H5 C21 0.939 . S
H6 C22 0.942 . S
H7 C24 0.940 . S
H8 C25 0.939 . S
H9 C27 0.941 . S
H10 C31 0.939 . S
O11 P0 1.490 . S
H12 C28 0.939 . S
H13 C30 0.940 . S
C14 P0 1.812 . S
C14 C15 1.389 . S
C14 C19 1.391 . S
C15 H1 0.941 . S
C15 C14 1.389 . S
C15 C16 1.397 . S
C16 H2 0.939 . S
C16 C15 1.397 . S
C16 C17 1.378 . S
C17 C16 1.378 . S
C17 C18 1.378 . S
C18 H3 0.940 . S
C18 C17 1.378 . S
C18 C19 1.396 . S
C19 H4 0.940 . S
C19 C14 1.391 . S
C19 C18 1.396 . S
C20 P0 1.803 . S
C20 C21 1.378 . S
C20 C25 1.400 . S
C21 H5 0.939 . S
C21 C20 1.378 . S
C21 C22 1.361 . S
C22 H6 0.942 . S
C22 C21 1.361 . S
C22 C23 1.369 . S
C23 C22 1.369 . S
C23 C24 1.404 . S
C24 H7 0.940 . S
C24 C23 1.404 . S
C24 C25 1.389 . S
C25 H8 0.939 . S
C25 C20 1.400 . S
C25 C24 1.389 . S
C26 P0 1.819 . S
C26 C27 1.391 . S
C26 C31 1.391 . S
C27 H9 0.941 . S
C27 C26 1.391 . S
C27 C28 1.396 . S
C28 H12 0.939 . S
C28 C27 1.396 . S
C28 C29 1.397 . S
C29 C28 1.397 . S
C29 C30 1.385 . S
C30 H13 0.940 . S
C30 C29 1.385 . S
C30 C31 1.388 . S
C31 H10 0.939 . S
C31 C26 1.391 . S
C31 C30 1.388 . S
P32 O43 1.490 . S
P32 C46 1.812 . S
P32 C52 1.803 . S
P32 C58 1.819 . S
H33 C47 0.941 . S
H34 C48 0.939 . S
H35 C50 0.940 . S
H36 C51 0.940 . S
H37 C53 0.939 . S
H38 C54 0.942 . S
H39 C56 0.940 . S
H40 C57 0.939 . S
H41 C59 0.941 . S
H42 C63 0.939 1_655 S
O43 P32 1.490 . S
H44 C60 0.939 . S
H45 C62 0.940 . S
C46 P32 1.812 . S
C46 C47 1.389 . S
C46 C51 1.391 1_455 S
C47 H33 0.941 . S
C47 C46 1.389 . S
C47 C48 1.397 . S
C48 H34 0.939 . S
C48 C47 1.397 . S
C48 C49 1.414 . S
C49 C48 1.414 . S
C49 C50 1.356 1_455 S
C50 H35 0.940 . S
C50 C49 1.356 1_655 S
C50 C51 1.396 . S
C51 H36 0.940 . S
C51 C46 1.391 1_655 S
C51 C50 1.396 . S
C52 P32 1.803 . S
C52 C53 1.378 . S
C52 C57 1.400 1_455 S
C53 H37 0.939 . S
C53 C52 1.378 . S
C53 C54 1.361 . S
C54 H38 0.942 . S
C54 C53 1.361 . S
C54 C55 1.421 . S
C55 C54 1.421 . S
C55 C56 1.372 1_455 S
C56 H39 0.940 . S
C56 C55 1.372 1_655 S
C56 C57 1.389 . S
C57 H40 0.939 . S
C57 C52 1.400 1_655 S
C57 C56 1.389 . S
C58 P32 1.819 . S
C58 C59 1.391 . S
C58 C63 1.391 . S
C59 H41 0.941 . S
C59 C58 1.391 . S
C59 C60 1.396 . S
C60 H44 0.939 . S
C60 C59 1.396 . S
C60 C61 1.397 . S
C61 C60 1.397 . S
C61 C62 1.385 1_455 S
C62 H45 0.940 . S
C62 C61 1.385 1_655 S
C62 C63 1.388 1_655 S
C63 H42 0.939 1_455 S
C63 C58 1.391 . S
C63 C62 1.388 1_455 S
P64 O75 1.490 . S
P64 C78 1.812 . S
P64 C84 1.803 . S
P64 C90 1.819 . S
H65 C79 0.941 . S
H66 C80 0.939 . S
H67 C82 0.940 . S
H68 C83 0.940 . S
H69 C85 0.939 . S
H70 C86 0.942 . S
H71 C88 0.940 . S
H72 C89 0.939 . S
H73 C91 0.941 . S
H74 C95 0.939 1_565 S
O75 P64 1.490 . S
H76 C92 0.939 . S
H77 C94 0.940 . S
C78 P64 1.812 . S
C78 C79 1.389 . S
C78 C83 1.391 1_545 S
C79 H65 0.941 . S
C79 C78 1.389 . S
C79 C80 1.397 . S
C80 H66 0.939 . S
C80 C79 1.397 . S
C80 C81 1.378 . S
C81 C80 1.378 . S
C81 C82 1.378 1_545 S
C82 H67 0.940 . S
C82 C81 1.378 1_565 S
C82 C83 1.396 . S
C83 H68 0.940 . S
C83 C78 1.391 1_565 S
C83 C82 1.396 . S
C84 P64 1.803 . S
C84 C85 1.378 . S
C84 C89 1.400 1_545 S
C85 H69 0.939 . S
C85 C84 1.378 . S
C85 C86 1.361 . S
C86 H70 0.942 . S
C86 C85 1.361 . S
C86 C87 1.369 . S
C87 C86 1.369 . S
C87 C88 1.404 1_545 S
C88 H71 0.940 . S
C88 C87 1.404 1_565 S
C88 C89 1.389 . S
C89 H72 0.939 . S
C89 C84 1.400 1_565 S
C89 C88 1.389 . S
C90 P64 1.819 . S
C90 C91 1.391 . S
C90 C95 1.391 . S
C91 H73 0.941 . S
C91 C90 1.391 . S
C91 C92 1.396 . S
C92 H76 0.939 . S
C92 C91 1.396 . S
C92 C93 1.397 . S
C93 C92 1.397 . S
C93 C94 1.385 1_545 S
C94 H77 0.940 . S
C94 C93 1.385 1_565 S
C94 C95 1.388 1_565 S
C95 H74 0.939 1_545 S
C95 C90 1.391 . S
C95 C94 1.388 1_545 S
P96 O107 1.490 . S
P96 C110 1.812 . S
P96 C116 1.803 . S
P96 C122 1.819 . S
H97 C111 0.941 . S
H98 C112 0.939 . S
H99 C114 0.940 . S
H100 C115 0.940 . S
H101 C117 0.939 . S
H102 C118 0.942 . S
H103 C120 0.940 . S
H104 C121 0.939 . S
H105 C123 0.941 . S
H106 C127 0.939 . S
O107 P96 1.490 . S
H108 C124 0.939 . S
H109 C126 0.940 . S
C110 P96 1.812 . S
C110 C111 1.389 . S
C110 C115 1.391 . S
C111 H97 0.941 . S
C111 C110 1.389 . S
C111 C112 1.397 . S
C112 H98 0.939 . S
C112 C111 1.397 . S
C112 C113 1.378 . S
C113 C112 1.378 . S
C113 C114 1.378 . S
C114 H99 0.940 . S
C114 C113 1.378 . S
C114 C115 1.396 . S
C115 H100 0.940 . S
C115 C110 1.391 . S
C115 C114 1.396 . S
C116 P96 1.803 . S
C116 C117 1.378 . S
C116 C121 1.400 . S
C117 H101 0.939 . S
C117 C116 1.378 . S
C117 C118 1.361 . S
C118 H102 0.942 . S
C118 C117 1.361 . S
C118 C119 1.369 . S
C119 C118 1.369 . S
C119 C120 1.404 . S
C120 H103 0.940 . S
C120 C119 1.404 . S
C120 C121 1.389 . S
C121 H104 0.939 . S
C121 C116 1.400 . S
C121 C120 1.389 . S
C122 P96 1.819 . S
C122 C123 1.391 . S
C122 C127 1.391 . S
C123 H105 0.941 . S
C123 C122 1.391 . S
C123 C124 1.396 . S
C124 H108 0.939 . S
C124 C123 1.396 . S
C124 C125 1.397 . S
C125 C124 1.397 . S
C125 C126 1.385 . S
C126 H109 0.940 . S
C126 C125 1.385 . S
C126 C127 1.388 . S
C127 H106 0.939 . S
C127 C122 1.391 . S
C127 C126 1.388 . S
P128 O139 1.490 . S
P128 C142 1.812 1_554 S
P128 C148 1.803 . S
P128 C154 1.819 . S
H129 C143 0.941 . S
H130 C144 0.939 . S
H131 C146 0.940 . S
H132 C147 0.940 . S
H133 C149 0.939 . S
H134 C150 0.942 . S
H135 C152 0.940 . S
H136 C153 0.939 . S
H137 C155 0.941 . S
H138 C159 0.939 . S
O139 P128 1.490 . S
H140 C156 0.939 . S
H141 C158 0.940 . S
C142 P128 1.812 1_556 S
C142 C143 1.389 . S
C142 C147 1.391 . S
C143 H129 0.941 . S
C143 C142 1.389 . S
C143 C144 1.397 . S
C144 H130 0.939 . S
C144 C143 1.397 . S
C144 C145 1.378 . S
C145 C144 1.378 . S
C145 C146 1.378 . S
C146 H131 0.940 . S
C146 C145 1.378 . S
C146 C147 1.396 . S
C147 H132 0.940 . S
C147 C142 1.391 . S
C147 C146 1.396 . S
C148 P128 1.803 . S
C148 C149 1.378 . S
C148 C153 1.400 . S
C149 H133 0.939 . S
C149 C148 1.378 . S
C149 C150 1.361 . S
C150 H134 0.942 . S
C150 C149 1.361 . S
C150 C151 1.369 . S
C151 C150 1.369 . S
C151 C152 1.404 . S
C152 H135 0.940 . S
C152 C151 1.404 . S
C152 C153 1.389 . S
C153 H136 0.939 . S
C153 C148 1.400 . S
C153 C152 1.389 . S
C154 P128 1.819 . S
C154 C155 1.391 . S
C154 C159 1.391 . S
C155 H137 0.941 . S
C155 C154 1.391 . S
C155 C156 1.396 . S
C156 H140 0.939 . S
C156 C155 1.396 . S
C156 C157 1.397 . S
C157 C156 1.397 . S
C157 C158 1.385 . S
C158 H141 0.940 . S
C158 C157 1.385 . S
C158 C159 1.388 . S
C159 H138 0.939 . S
C159 C154 1.391 . S
C159 C158 1.388 . S
P160 O171 1.490 . S
P160 C174 1.812 1_554 S
P160 C180 1.803 . S
P160 C186 1.819 . S
H161 C175 0.941 . S
H162 C176 0.939 . S
H163 C178 0.940 . S
H164 C179 0.940 1_655 S
H165 C181 0.939 . S
H166 C182 0.942 . S
H167 C184 0.940 . S
H168 C185 0.939 1_655 S
H169 C187 0.941 . S
H170 C191 0.939 . S
O171 P160 1.490 . S
H172 C188 0.939 . S
H173 C190 0.929 1_655 S
C174 P160 1.812 1_556 S
C174 C175 1.389 . S
C174 C179 1.391 . S
C175 H161 0.941 . S
C175 C174 1.389 . S
C175 C176 1.397 . S
C176 H162 0.939 . S
C176 C175 1.397 . S
C176 C177 1.378 . S
C177 C176 1.378 . S
C177 C178 1.378 1_455 S
C178 H163 0.940 . S
C178 C177 1.378 1_655 S
C178 C179 1.396 1_655 S
C179 H164 0.940 1_455 S
C179 C174 1.391 . S
C179 C178 1.396 1_455 S
C180 P160 1.803 . S
C180 C181 1.378 . S
C180 C185 1.400 . S
C181 H165 0.939 . S
C181 C180 1.378 . S
C181 C182 1.361 . S
C182 H166 0.942 . S
C182 C181 1.361 . S
C182 C183 1.369 . S
C183 C182 1.369 . S
C183 C184 1.404 1_455 S
C184 H167 0.940 . S
C184 C183 1.404 1_655 S
C184 C185 1.389 1_655 S
C185 H168 0.939 1_455 S
C185 C180 1.400 . S
C185 C184 1.389 1_455 S
C186 P160 1.819 . S
C186 C187 1.391 . S
C186 C191 1.391 . S
C187 H169 0.941 . S
C187 C186 1.391 . S
C187 C188 1.396 . S
C188 H172 0.939 . S
C188 C187 1.396 . S
C188 C189 1.397 . S
C189 C188 1.397 . S
C189 C190 1.390 . S
C190 H173 0.929 1_455 S
C190 C189 1.390 . S
C190 C191 1.394 . S
C191 H170 0.939 . S
C191 C186 1.391 . S
C191 C190 1.394 . S
P192 O203 1.490 . S
P192 C206 1.812 1_554 S
P192 C212 1.803 . S
P192 C218 1.819 . S
H193 C207 0.941 . S
H194 C208 0.939 . S
H195 C210 0.940 . S
H196 C211 0.940 1_565 S
H197 C213 0.939 . S
H198 C214 0.942 . S
H199 C216 0.940 . S
H200 C217 0.939 1_565 S
H201 C219 0.941 . S
H202 C223 0.939 . S
O203 P192 1.490 . S
H204 C220 0.939 . S
H205 C222 0.940 1_565 S
C206 P192 1.812 1_556 S
C206 C207 1.389 . S
C206 C211 1.391 . S
C207 H193 0.941 . S
C207 C206 1.389 . S
C207 C208 1.397 . S
C208 H194 0.939 . S
C208 C207 1.397 . S
C208 C209 1.378 . S
C209 C208 1.378 . S
C209 C210 1.378 1_545 S
C210 H195 0.940 . S
C210 C209 1.378 1_565 S
C210 C211 1.396 1_565 S
C211 H196 0.940 1_545 S
C211 C206 1.391 . S
C211 C210 1.396 1_545 S
C212 P192 1.803 . S
C212 C213 1.378 . S
C212 C217 1.400 . S
C213 H197 0.939 . S
C213 C212 1.378 . S
C213 C214 1.361 . S
C214 H198 0.942 . S
C214 C213 1.361 . S
C214 C215 1.369 . S
C215 C214 1.369 . S
C215 C216 1.404 1_545 S
C216 H199 0.940 . S
C216 C215 1.404 1_565 S
C216 C217 1.389 1_565 S
C217 H200 0.939 1_545 S
C217 C212 1.400 . S
C217 C216 1.389 1_545 S
C218 P192 1.819 . S
C218 C219 1.391 . S
C218 C223 1.391 . S
C219 H201 0.941 . S
C219 C218 1.391 . S
C219 C220 1.396 . S
C220 H204 0.939 . S
C220 C219 1.396 . S
C220 C221 1.397 . S
C221 C220 1.397 . S
C221 C222 1.385 . S
C222 H205 0.940 1_545 S
C222 C221 1.385 . S
C222 C223 1.388 . S
C223 H202 0.939 . S
C223 C218 1.391 . S
C223 C222 1.388 . S
P224 O235 1.490 . S
P224 C238 1.812 1_554 S
P224 C244 1.803 . S
P224 C250 1.819 . S
H225 C239 0.941 . S
H226 C240 0.939 . S
H227 C242 0.940 . S
H228 C243 0.940 . S
H229 C245 0.939 . S
H230 C246 0.942 . S
H231 C248 0.940 . S
H232 C249 0.939 . S
H233 C251 0.941 . S
H234 C255 0.939 . S
O235 P224 1.490 . S
H236 C252 0.939 . S
H237 C254 0.940 . S
C238 P224 1.812 1_556 S
C238 C239 1.389 . S
C238 C243 1.391 . S
C239 H225 0.941 . S
C239 C238 1.389 . S
C239 C240 1.397 . S
C240 H226 0.939 . S
C240 C239 1.397 . S
C240 C241 1.378 . S
C241 C240 1.378 . S
C241 C242 1.378 . S
C242 H227 0.940 . S
C242 C241 1.378 . S
C242 C243 1.396 . S
C243 H228 0.940 . S
C243 C238 1.391 . S
C243 C242 1.396 . S
C244 P224 1.803 . S
C244 C245 1.378 . S
C244 C249 1.400 . S
C245 H229 0.939 . S
C245 C244 1.378 . S
C245 C246 1.361 . S
C246 H230 0.942 . S
C246 C245 1.361 . S
C246 C247 1.369 . S
C247 C246 1.369 . S
C247 C248 1.404 . S
C248 H231 0.940 . S
C248 C247 1.404 . S
C248 C249 1.389 . S
C249 H232 0.939 . S
C249 C244 1.400 . S
C249 C248 1.389 . S
C250 P224 1.819 . S
C250 C251 1.391 . S
C250 C255 1.391 . S
C251 H233 0.941 . S
C251 C250 1.391 . S
C251 C252 1.396 . S
C252 H236 0.939 . S
C252 C251 1.396 . S
C252 C253 1.397 . S
C253 C252 1.397 . S
C253 C254 1.385 . S
C254 H237 0.940 . S
C254 C253 1.385 . S
C254 C255 1.388 . S
C255 H234 0.939 . S
C255 C250 1.391 . S
C255 C254 1.388 . S
Ho256 C259 2.811 . S
Ho256 O276 2.322 . S
Ho256 O278 2.378 . S
Ho256 O279 2.529 . S
Ho256 O280 2.381 . S
Ho256 O281 2.669 1_565 S
Ho256 O283 2.346 1_565 S
Ho256 O287 2.305 1_455 S
Ho257 C268 2.811 . S
Ho257 O277 2.346 1_545 S
Ho257 O281 2.305 1_655 S
Ho257 O282 2.322 . S
Ho257 O284 2.378 . S
Ho257 O285 2.522 . S
Ho257 O286 2.381 . S
Ho257 O287 2.669 1_545 S
C258 O276 1.259 1_655 S
C258 O277 1.268 . S
C259 Ho256 2.811 . S
C259 C260 1.488 . S
C259 O278 1.215 . S
C259 O279 1.301 . S
C260 C259 1.488 . S
C260 C261 1.348 . S
C260 C265 1.413 . S
C261 C260 1.348 . S
C261 C262 1.442 . S
C261 H288 0.930 1_455 S
C262 C261 1.442 . S
C262 C263 1.381 . S
C262 H289 0.931 1_455 S
C263 C262 1.381 . S
C263 C264 1.321 . S
C264 C263 1.321 . S
C264 C265 1.403 . S
C264 H290 0.934 . S
C265 C260 1.413 . S
C265 C264 1.403 . S
C265 H291 0.930 . S
C266 O280 1.253 1_545 S
C266 O281 1.270 . S
C267 O282 1.259 1_455 S
C267 O283 1.268 . S
C268 Ho257 2.811 . S
C268 C269 1.488 . S
C268 O284 1.215 . S
C268 O285 1.285 . S
C269 C268 1.488 . S
C269 C270 1.348 . S
C269 C274 1.413 . S
C270 C269 1.348 . S
C270 C271 1.442 . S
C270 H292 0.930 1_655 S
C271 C270 1.442 . S
C271 C272 1.381 . S
C271 H293 0.931 1_655 S
C272 C271 1.381 . S
C272 C273 1.321 . S
C273 C272 1.321 . S
C273 C274 1.403 . S
C273 H294 0.934 . S
C274 C269 1.413 . S
C274 C273 1.403 . S
C274 H295 0.930 . S
C275 O286 1.275 . S
C275 O287 1.256 1_545 S
O276 Ho256 2.322 . S
O276 C258 1.259 1_455 S
O277 Ho257 2.346 1_565 S
O277 C258 1.268 . S
O278 Ho256 2.378 . S
O278 C259 1.215 . S
O279 Ho256 2.529 . S
O279 C259 1.301 . S
O280 Ho256 2.381 . S
O280 C266 1.253 1_565 S
O281 Ho256 2.669 1_545 S
O281 Ho257 2.305 1_455 S
O281 C266 1.270 . S
O282 Ho257 2.322 . S
O282 C267 1.259 1_655 S
O283 Ho256 2.346 1_545 S
O283 C267 1.268 . S
O284 Ho257 2.378 . S
O284 C268 1.215 . S
O285 Ho257 2.522 . S
O285 C268 1.285 . S
O286 Ho257 2.381 . S
O286 C275 1.275 . S
O287 Ho256 2.305 1_655 S
O287 Ho257 2.669 1_565 S
O287 C275 1.256 1_565 S
H288 C261 0.930 1_655 S
H289 C262 0.931 1_655 S
H290 C264 0.934 . S
H291 C265 0.930 . S
H292 C270 0.930 1_455 S
H293 C271 0.931 1_455 S
H294 C273 0.934 . S
H295 C274 0.930 . S
Ho296 C299 2.811 . S
Ho296 O316 2.322 . S
Ho296 O318 2.378 . S
Ho296 O319 2.524 . S
Ho296 O320 2.381 . S
Ho296 O321 2.669 . S
Ho296 O323 2.346 . S
Ho296 O327 2.305 1_545 S
Ho297 C308 2.811 . S
Ho297 O317 2.346 . S
Ho297 O321 2.305 1_565 S
Ho297 O322 2.322 . S
Ho297 O324 2.378 . S
Ho297 O325 2.524 1_565 S
Ho297 O326 2.381 . S
Ho297 O327 2.669 . S
C298 O316 1.259 1_565 S
C298 O317 1.268 . S
C299 Ho296 2.811 . S
C299 C300 1.488 . S
C299 O318 1.215 . S
C299 O319 1.289 . S
C300 C299 1.488 . S
C300 C301 1.348 . S
C300 C305 1.413 . S
C301 C300 1.348 . S
C301 C302 1.442 . S
C301 H328 0.930 1_545 S
C302 C301 1.442 . S
C302 C303 1.381 . S
C302 H329 0.931 1_545 S
C303 C302 1.381 . S
C303 C304 1.321 . S
C304 C303 1.321 . S
C304 C305 1.403 . S
C304 H330 0.934 . S
C305 C300 1.413 . S
C305 C304 1.403 . S
C305 H331 0.930 . S
C306 O320 1.275 . S
C306 O321 1.256 . S
C307 O322 1.259 1_545 S
C307 O323 1.268 . S
C308 Ho297 2.811 . S
C308 C309 1.488 . S
C308 O324 1.215 . S
C308 O325 1.289 1_565 S
C309 C308 1.488 . S
C309 C310 1.348 . S
C309 C314 1.413 . S
C310 C309 1.348 . S
C310 C311 1.442 . S
C310 H332 0.930 1_565 S
C311 C310 1.442 . S
C311 C312 1.381 . S
C311 H333 0.931 1_565 S
C312 C311 1.381 . S
C312 C313 1.321 . S
C313 C312 1.321 . S
C313 C314 1.403 . S
C313 H334 0.934 . S
C314 C309 1.413 . S
C314 C313 1.403 . S
C314 H335 0.930 . S
C315 O326 1.275 . S
C315 O327 1.256 . S
O316 Ho296 2.322 . S
O316 C298 1.259 1_545 S
O317 Ho297 2.346 . S
O317 C298 1.268 . S
O318 Ho296 2.378 . S
O318 C299 1.215 . S
O319 Ho296 2.524 . S
O319 C299 1.289 . S
O320 Ho296 2.381 . S
O320 C306 1.275 . S
O321 Ho296 2.669 . S
O321 Ho297 2.305 1_545 S
O321 C306 1.256 . S
O322 Ho297 2.322 . S
O322 C307 1.259 1_565 S
O323 Ho296 2.346 . S
O323 C307 1.268 . S
O324 Ho297 2.378 . S
O324 C308 1.215 . S
O325 Ho297 2.524 1_545 S
O325 C308 1.289 1_545 S
O326 Ho297 2.381 . S
O326 C315 1.275 . S
O327 Ho296 2.305 1_565 S
O327 Ho297 2.669 . S
O327 C315 1.256 . S
H328 C301 0.930 1_565 S
H329 C302 0.931 1_565 S
H330 C304 0.934 . S
H331 C305 0.930 . S
H332 C310 0.930 1_545 S
H333 C311 0.931 1_545 S
H334 C313 0.934 . S
H335 C314 0.930 . S
Ho336 C339 2.811 . S
Ho336 O356 2.322 . S
Ho336 O358 2.378 . S
Ho336 O359 2.524 . S
Ho336 O360 2.381 . S
Ho336 O361 2.669 . S
Ho336 O363 2.346 . S
Ho336 O367 2.305 . S
Ho337 C348 2.811 . S
Ho337 O357 2.346 . S
Ho337 O361 2.305 . S
Ho337 O362 2.322 . S
Ho337 O364 2.378 . S
Ho337 O365 2.524 . S
Ho337 O366 2.381 . S
Ho337 O367 2.669 . S
C338 O356 1.259 . S
C338 O357 1.268 . S
C339 Ho336 2.811 . S
C339 C340 1.488 . S
C339 O358 1.215 . S
C339 O359 1.289 . S
C340 C339 1.488 . S
C340 C341 1.348 . S
C340 C345 1.413 . S
C341 C340 1.348 . S
C341 C342 1.442 . S
C341 H368 0.930 . S
C342 C341 1.442 . S
C342 C343 1.381 . S
C342 H369 0.931 . S
C343 C342 1.381 . S
C343 C344 1.321 . S
C344 C343 1.321 . S
C344 C345 1.403 . S
C344 H370 0.934 . S
C345 C340 1.413 . S
C345 C344 1.403 . S
C345 H371 0.930 . S
C346 O360 1.275 . S
C346 O361 1.256 . S
C347 O362 1.259 . S
C347 O363 1.268 . S
C348 Ho337 2.811 . S
C348 C349 1.488 . S
C348 O364 1.215 . S
C348 O365 1.289 . S
C349 C348 1.488 . S
C349 C350 1.348 . S
C349 C354 1.413 . S
C350 C349 1.348 . S
C350 C351 1.442 . S
C350 H372 0.930 . S
C351 C350 1.442 . S
C351 C352 1.381 . S
C351 H373 0.931 . S
C352 C351 1.381 . S
C352 C353 1.321 . S
C353 C352 1.321 . S
C353 C354 1.403 . S
C353 H374 0.934 . S
C354 C349 1.413 . S
C354 C353 1.403 . S
C354 H375 0.930 . S
C355 O366 1.275 . S
C355 O367 1.256 . S
O356 Ho336 2.322 . S
O356 C338 1.259 . S
O357 Ho337 2.346 . S
O357 C338 1.268 . S
O358 Ho336 2.378 . S
O358 C339 1.215 . S
O359 Ho336 2.524 . S
O359 C339 1.289 . S
O360 Ho336 2.381 . S
O360 C346 1.275 . S
O361 Ho336 2.669 . S
O361 Ho337 2.305 . S
O361 C346 1.256 . S
O362 Ho337 2.322 . S
O362 C347 1.259 . S
O363 Ho336 2.346 . S
O363 C347 1.268 . S
O364 Ho337 2.378 . S
O364 C348 1.215 . S
O365 Ho337 2.524 . S
O365 C348 1.289 . S
O366 Ho337 2.381 . S
O366 C355 1.275 . S
O367 Ho336 2.305 . S
O367 Ho337 2.669 . S
O367 C355 1.256 . S
H368 C341 0.930 . S
H369 C342 0.931 . S
H370 C344 0.934 . S
H371 C345 0.930 . S
H372 C350 0.930 . S
H373 C351 0.931 . S
H374 C353 0.934 . S
H375 C354 0.930 . S
Ho376 C379 2.811 . S
Ho376 O396 2.322 . S
Ho376 O398 2.378 . S
Ho376 O399 2.524 . S
Ho376 O400 2.381 . S
Ho376 O401 2.669 1_655 S
Ho376 O403 2.346 1_655 S
Ho376 O407 2.305 . S
Ho377 C388 2.811 . S
Ho377 O397 2.346 1_455 S
Ho377 O401 2.305 . S
Ho377 O402 2.322 . S
Ho377 O404 2.378 . S
Ho377 O405 2.524 . S
Ho377 O406 2.381 . S
Ho377 O407 2.669 1_455 S
C378 O396 1.259 . S
C378 O397 1.268 . S
C379 Ho376 2.811 . S
C379 C380 1.488 . S
C379 O398 1.215 . S
C379 O399 1.289 . S
C380 C379 1.488 . S
C380 C381 1.348 . S
C380 C385 1.413 . S
C381 C380 1.348 . S
C381 C382 1.442 . S
C381 H408 0.930 . S
C382 C381 1.442 . S
C382 C383 1.381 . S
C382 H409 0.931 . S
C383 C382 1.381 . S
C383 C384 1.321 . S
C384 C383 1.321 . S
C384 C385 1.403 . S
C384 H410 0.934 . S
C385 C380 1.413 . S
C385 C384 1.403 . S
C385 H411 0.930 . S
C386 O400 1.292 . S
C386 O401 1.247 1_655 S
C387 O402 1.259 . S
C387 O403 1.268 . S
C388 Ho377 2.811 . S
C388 C389 1.488 . S
C388 O404 1.215 . S
C388 O405 1.289 . S
C389 C388 1.488 . S
C389 C390 1.348 . S
C389 C394 1.413 . S
C390 C389 1.348 . S
C390 C391 1.442 . S
C390 H412 0.930 . S
C391 C390 1.442 . S
C391 C392 1.381 . S
C391 H413 0.931 . S
C392 C391 1.381 . S
C392 C393 1.321 . S
C393 C392 1.321 . S
C393 C394 1.403 . S
C393 H414 0.934 . S
C394 C389 1.413 . S
C394 C393 1.403 . S
C394 H415 0.930 . S
C395 O406 1.301 . S
C395 O407 1.242 1_455 S
O396 Ho376 2.322 . S
O396 C378 1.259 . S
O397 Ho377 2.346 1_655 S
O397 C378 1.268 . S
O398 Ho376 2.378 . S
O398 C379 1.215 . S
O399 Ho376 2.524 . S
O399 C379 1.289 . S
O400 Ho376 2.381 . S
O400 C386 1.292 . S
O401 Ho376 2.669 1_455 S
O401 Ho377 2.305 . S
O401 C386 1.247 1_455 S
O402 Ho377 2.322 . S
O402 C387 1.259 . S
O403 Ho376 2.346 1_455 S
O403 C387 1.268 . S
O404 Ho377 2.378 . S
O404 C388 1.215 . S
O405 Ho377 2.524 . S
O405 C388 1.289 . S
O406 Ho377 2.381 . S
O406 C395 1.301 . S
O407 Ho376 2.305 . S
O407 Ho377 2.669 1_655 S
O407 C395 1.242 1_655 S
H408 C381 0.930 . S
H409 C382 0.931 . S
H410 C384 0.934 . S
H411 C385 0.930 . S
H412 C390 0.930 . S
H413 C391 0.931 . S
H414 C393 0.934 . S
H415 C394 0.930 . S
H416 C424 0.929 . S
H417 C426 0.930 . S
H418 C428 0.930 . S
H419 C431 0.929 . S
H420 C434 0.930 . S
H421 C436 0.960 . S
H422 C436 0.960 1_565 S
H423 C436 0.960 . S
C424 H416 0.929 . S
C424 C425 1.377 1_565 S
C424 C426 1.384 . S
C425 C424 1.377 1_545 S
C425 C431 1.390 . S
C426 H417 0.930 . S
C426 C424 1.384 . S
C426 C427 1.372 1_565 S
C427 C426 1.372 1_545 S
C427 C428 1.400 . S
C427 C432 1.490 . S
C428 H418 0.930 . S
C428 C427 1.400 . S
C428 C431 1.386 . S
H429 C445 0.930 . S
H430 C446 0.931 . S
C431 H419 0.929 . S
C431 C425 1.390 . S
C431 C428 1.386 . S
C432 C427 1.490 . S
C432 C434 1.395 . S
C432 C435 1.403 . S
H433 C439 0.930 . S
C434 H420 0.930 . S
C434 C432 1.395 . S
C434 C437 1.403 . S
C435 C432 1.403 . S
C435 C436 1.524 . S
C435 C439 1.400 . S
C436 H421 0.960 . S
C436 H422 0.960 1_545 S
C436 H423 0.960 . S
C436 C435 1.524 . S
C437 C434 1.403 . S
C437 C438 1.392 . S
C437 C441 1.495 . S
C438 C437 1.392 . S
C438 C439 1.385 . S
C438 C440 1.478 . S
C439 H433 0.930 . S
C439 C435 1.400 . S
C439 C438 1.385 . S
C440 C438 1.478 . S
C440 C442 1.381 1_545 S
C440 C446 1.383 . S
C441 C437 1.495 . S
C441 H447 0.963 . S
C441 H448 0.961 . S
C441 H449 0.960 1_545 S
C442 C440 1.381 1_565 S
C442 C443 1.394 . S
C442 H450 0.930 . S
C443 C442 1.394 . S
C443 C444 1.383 1_565 S
C443 H451 0.929 . S
C444 C443 1.383 1_545 S
C444 C445 1.377 . S
C445 H429 0.930 . S
C445 C444 1.377 . S
C445 C446 1.379 . S
C446 H430 0.931 . S
C446 C440 1.383 . S
C446 C445 1.379 . S
H447 C441 0.963 . S
H448 C441 0.961 . S
H449 C441 0.960 1_565 S
H450 C442 0.930 . S
H451 C443 0.929 . S
H452 C460 0.929 . S
H453 C462 0.930 . S
H454 C464 0.930 . S
H455 C467 0.929 . S
H456 C470 0.930 . S
H457 C472 0.960 . S
H458 C472 0.960 . S
H459 C472 0.960 . S
C460 H452 0.929 . S
C460 C461 1.377 . S
C460 C462 1.384 . S
C461 C460 1.377 . S
C461 C467 1.390 . S
C462 H453 0.930 . S
C462 C460 1.384 . S
C462 C463 1.372 . S
C463 C462 1.372 . S
C463 C464 1.400 . S
C463 C468 1.490 . S
C464 H454 0.930 . S
C464 C463 1.400 . S
C464 C467 1.386 . S
H465 C481 0.930 . S
H466 C482 0.931 . S
C467 H455 0.929 . S
C467 C461 1.390 . S
C467 C464 1.386 . S
C468 C463 1.490 . S
C468 C470 1.395 . S
C468 C471 1.403 . S
H469 C475 0.930 . S
C470 H456 0.930 . S
C470 C468 1.395 . S
C470 C473 1.403 . S
C471 C468 1.403 . S
C471 C472 1.524 . S
C471 C475 1.400 . S
C472 H457 0.960 . S
C472 H458 0.960 . S
C472 H459 0.960 . S
C472 C471 1.524 . S
C473 C470 1.403 . S
C473 C474 1.392 . S
C473 C477 1.495 . S
C474 C473 1.392 . S
C474 C475 1.385 . S
C474 C476 1.478 . S
C475 H469 0.930 . S
C475 C471 1.400 . S
C475 C474 1.385 . S
C476 C474 1.478 . S
C476 C478 1.381 . S
C476 C482 1.383 . S
C477 C473 1.495 . S
C477 H483 0.959 . S
C477 H484 0.961 . S
C477 H485 0.960 . S
C478 C476 1.381 . S
C478 C479 1.394 . S
C478 H486 0.930 . S
C479 C478 1.394 . S
C479 C480 1.383 . S
C479 H487 0.929 . S
C480 C479 1.383 . S
C480 C481 1.377 . S
C481 H465 0.930 . S
C481 C480 1.377 . S
C481 C482 1.379 . S
C482 H466 0.931 . S
C482 C476 1.383 . S
C482 C481 1.379 . S
H483 C477 0.959 . S
H484 C477 0.961 . S
H485 C477 0.960 . S
H486 C478 0.930 . S
H487 C479 0.929 . S
H488 C496 0.929 . S
H489 C498 0.930 . S
H490 C500 0.930 . S
H491 C503 0.929 . S
H492 C506 0.930 . S
H493 C508 0.960 . S
H494 C508 0.960 . S
H495 C508 0.960 . S
C496 H488 0.929 . S
C496 C497 1.377 . S
C496 C498 1.384 . S
C497 C496 1.377 . S
C497 C503 1.390 . S
C498 H489 0.930 . S
C498 C496 1.384 . S
C498 C499 1.372 . S
C499 C498 1.372 . S
C499 C500 1.400 . S
C499 C504 1.490 . S
C500 H490 0.930 . S
C500 C499 1.400 . S
C500 C503 1.386 . S
H501 C517 0.930 . S
H502 C518 0.931 . S
C503 H491 0.929 . S
C503 C497 1.390 . S
C503 C500 1.386 . S
C504 C499 1.490 . S
C504 C506 1.395 . S
C504 C507 1.403 . S
H505 C511 0.930 . S
C506 H492 0.930 . S
C506 C504 1.395 . S
C506 C509 1.403 . S
C507 C504 1.403 . S
C507 C508 1.524 . S
C507 C511 1.400 . S
C508 H493 0.960 . S
C508 H494 0.960 . S
C508 H495 0.960 . S
C508 C507 1.524 . S
C509 C506 1.403 . S
C509 C510 1.392 . S
C509 C513 1.495 . S
C510 C509 1.392 . S
C510 C511 1.385 . S
C510 C512 1.478 . S
C511 H505 0.930 . S
C511 C507 1.400 . S
C511 C510 1.385 . S
C512 C510 1.478 . S
C512 C514 1.381 . S
C512 C518 1.383 . S
C513 C509 1.495 . S
C513 H519 0.959 . S
C513 H520 0.961 . S
C513 H521 0.960 . S
C514 C512 1.381 . S
C514 C515 1.394 . S
C514 H522 0.930 . S
C515 C514 1.394 . S
C515 C516 1.383 . S
C515 H523 0.929 . S
C516 C515 1.383 . S
C516 C517 1.377 . S
C517 H501 0.930 . S
C517 C516 1.377 . S
C517 C518 1.379 . S
C518 H502 0.931 . S
C518 C512 1.383 . S
C518 C517 1.379 . S
H519 C513 0.959 . S
H520 C513 0.961 . S
H521 C513 0.960 . S
H522 C514 0.930 . S
H523 C515 0.929 . S
H524 C532 0.929 . S
H525 C534 0.930 . S
H526 C536 0.930 . S
H527 C539 0.929 . S
H528 C542 0.930 . S
H529 C544 0.960 . S
H530 C544 0.960 . S
H531 C544 0.960 1_455 S
C532 H524 0.929 . S
C532 C533 1.377 1_655 S
C532 C534 1.384 . S
C533 C532 1.377 1_455 S
C533 C539 1.390 . S
C534 H525 0.930 . S
C534 C532 1.384 . S
C534 C535 1.372 1_655 S
C535 C534 1.372 1_455 S
C535 C536 1.400 . S
C535 C540 1.490 . S
C536 H526 0.930 . S
C536 C535 1.400 . S
C536 C539 1.386 . S
H537 C553 0.930 . S
H538 C554 0.931 . S
C539 H527 0.929 . S
C539 C533 1.390 . S
C539 C536 1.386 . S
C540 C535 1.490 . S
C540 C542 1.395 . S
C540 C543 1.403 1_455 S
H541 C547 0.930 . S
C542 H528 0.930 . S
C542 C540 1.395 . S
C542 C545 1.403 . S
C543 C540 1.403 1_655 S
C543 C544 1.524 . S
C543 C547 1.400 . S
C544 H529 0.960 . S
C544 H530 0.960 . S
C544 H531 0.960 1_655 S
C544 C543 1.524 . S
C545 C542 1.403 . S
C545 C546 1.392 . S
C545 C549 1.495 . S
C546 C545 1.392 . S
C546 C547 1.385 1_455 S
C546 C548 1.478 . S
C547 H541 0.930 . S
C547 C543 1.400 . S
C547 C546 1.385 1_655 S
C548 C546 1.478 . S
C548 C550 1.381 1_455 S
C548 C554 1.383 . S
C549 C545 1.495 . S
C549 H555 0.959 . S
C549 H556 0.961 . S
C549 H557 0.970 . S
C550 C548 1.381 1_655 S
C550 C551 1.394 . S
C550 H558 0.930 . S
C551 C550 1.394 . S
C551 C552 1.383 1_655 S
C551 H559 0.929 . S
C552 C551 1.383 1_455 S
C552 C553 1.377 . S
C553 H537 0.930 . S
C553 C552 1.377 . S
C553 C554 1.379 . S
C554 H538 0.931 . S
C554 C548 1.383 . S
C554 C553 1.379 . S
H555 C549 0.959 . S
H556 C549 0.961 . S
H557 C549 0.970 . S
H558 C550 0.930 . S
H559 C551 0.929 . S
H560 C568 0.928 1_545 S
H561 C570 0.929 1_545 S
H562 C572 0.930 . S
H563 C575 0.929 . S
H564 C578 0.930 . S
H565 C580 0.960 1_556 S
H566 C580 0.960 . S
H567 C580 0.960 . S
C568 H560 0.928 1_565 S
C568 C569 1.377 . S
C568 C570 1.384 . S
C569 C568 1.377 . S
C569 C575 1.390 . S
C570 H561 0.929 1_565 S
C570 C568 1.384 . S
C570 C571 1.371 . S
C571 C570 1.371 . S
C571 C572 1.402 . S
C571 C576 1.492 . S
C572 H562 0.930 . S
C572 C571 1.402 . S
C572 C575 1.386 . S
H573 C589 0.930 . S
H574 C590 0.931 . S
C575 H563 0.929 . S
C575 C569 1.390 . S
C575 C572 1.386 . S
C576 C571 1.492 . S
C576 C578 1.395 . S
C576 C579 1.403 1_565 S
H577 C583 0.930 . S
C578 H564 0.930 . S
C578 C576 1.395 . S
C578 C581 1.403 1_554 S
C579 C576 1.403 1_545 S
C579 C580 1.524 . S
C579 C583 1.400 1_554 S
C580 H565 0.960 1_554 S
C580 H566 0.960 . S
C580 H567 0.960 . S
C580 C579 1.524 . S
C581 C578 1.403 1_556 S
C581 C582 1.392 . S
C581 C585 1.495 . S
C582 C581 1.392 . S
C582 C583 1.385 1_565 S
C582 C584 1.478 . S
C583 H577 0.930 . S
C583 C579 1.400 1_556 S
C583 C582 1.385 1_545 S
C584 C582 1.478 . S
C584 C586 1.387 . S
C584 C590 1.383 . S
C585 C581 1.495 . S
C585 H591 0.959 1_556 S
C585 H592 0.961 . S
C585 H593 0.960 . S
C586 C584 1.387 . S
C586 C587 1.391 1_565 S
C586 H594 0.926 1_565 S
C587 C586 1.391 1_545 S
C587 C588 1.379 1_545 S
C587 H595 0.937 . S
C588 C587 1.379 1_565 S
C588 C589 1.377 . S
C589 H573 0.930 . S
C589 C588 1.377 . S
C589 C590 1.379 . S
C590 H574 0.931 . S
C590 C584 1.383 . S
C590 C589 1.379 . S
H591 C585 0.959 1_554 S
H592 C585 0.961 . S
H593 C585 0.960 . S
H594 C586 0.926 1_545 S
H595 C587 0.937 . S
H596 C604 0.929 . S
H597 C606 0.930 . S
H598 C608 0.930 . S
H599 C611 0.929 . S
H600 C614 0.930 . S
H601 C616 0.960 . S
H602 C616 0.960 . S
H603 C616 0.960 . S
C604 H596 0.929 . S
C604 C605 1.377 . S
C604 C606 1.384 . S
C605 C604 1.377 . S
C605 C611 1.390 . S
C606 H597 0.930 . S
C606 C604 1.384 . S
C606 C607 1.372 . S
C607 C606 1.372 . S
C607 C608 1.400 . S
C607 C612 1.490 . S
C608 H598 0.930 . S
C608 C607 1.400 . S
C608 C611 1.386 . S
H609 C625 0.930 . S
H610 C626 0.931 . S
C611 H599 0.929 . S
C611 C605 1.390 . S
C611 C608 1.386 . S
C612 C607 1.490 . S
C612 C614 1.395 1_554 S
C612 C615 1.403 . S
H613 C619 0.930 . S
C614 H600 0.930 . S
C614 C612 1.395 1_556 S
C614 C617 1.403 . S
C615 C612 1.403 . S
C615 C616 1.524 . S
C615 C619 1.400 1_554 S
C616 H601 0.960 . S
C616 H602 0.960 . S
C616 H603 0.960 . S
C616 C615 1.524 . S
C617 C614 1.403 . S
C617 C618 1.392 . S
C617 C621 1.495 . S
C618 C617 1.392 . S
C618 C619 1.385 . S
C618 C620 1.478 . S
C619 H613 0.930 . S
C619 C615 1.400 1_556 S
C619 C618 1.385 . S
C620 C618 1.478 . S
C620 C622 1.381 . S
C620 C626 1.383 . S
C621 C617 1.495 . S
C621 H627 0.959 . S
C621 H628 0.961 . S
C621 H629 0.960 . S
C622 C620 1.381 . S
C622 C623 1.394 . S
C622 H630 0.930 . S
C623 C622 1.394 . S
C623 C624 1.383 . S
C623 H631 0.929 . S
C624 C623 1.383 . S
C624 C625 1.377 . S
C625 H609 0.930 . S
C625 C624 1.377 . S
C625 C626 1.379 . S
C626 H610 0.931 . S
C626 C620 1.383 . S
C626 C625 1.379 . S
H627 C621 0.959 . S
H628 C621 0.961 . S
H629 C621 0.960 . S
H630 C622 0.930 . S
H631 C623 0.929 . S
H632 C640 0.929 . S
H633 C642 0.930 . S
H634 C644 0.930 . S
H635 C647 0.929 . S
H636 C650 0.930 . S
H637 C652 0.960 . S
H638 C652 0.960 . S
H639 C652 0.960 . S
C640 H632 0.929 . S
C640 C641 1.377 . S
C640 C642 1.384 . S
C641 C640 1.377 . S
C641 C647 1.390 . S
C642 H633 0.930 . S
C642 C640 1.384 . S
C642 C643 1.372 . S
C643 C642 1.372 . S
C643 C644 1.400 . S
C643 C648 1.490 . S
C644 H634 0.930 . S
C644 C643 1.400 . S
C644 C647 1.386 . S
H645 C661 0.930 . S
H646 C662 0.931 . S
C647 H635 0.929 . S
C647 C641 1.390 . S
C647 C644 1.386 . S
C648 C643 1.490 . S
C648 C650 1.395 1_554 S
C648 C651 1.403 . S
H649 C655 0.930 . S
C650 H636 0.930 . S
C650 C648 1.395 1_556 S
C650 C653 1.403 . S
C651 C648 1.403 . S
C651 C652 1.524 . S
C651 C655 1.400 1_554 S
C652 H637 0.960 . S
C652 H638 0.960 . S
C652 H639 0.960 . S
C652 C651 1.524 . S
C653 C650 1.403 . S
C653 C654 1.392 . S
C653 C657 1.495 . S
C654 C653 1.392 . S
C654 C655 1.385 . S
C654 C656 1.478 . S
C655 H649 0.930 . S
C655 C651 1.400 1_556 S
C655 C654 1.385 . S
C656 C654 1.478 . S
C656 C658 1.381 . S
C656 C662 1.383 . S
C657 C653 1.495 . S
C657 H663 0.959 . S
C657 H664 0.961 . S
C657 H665 0.960 . S
C658 C656 1.381 . S
C658 C659 1.394 . S
C658 H666 0.930 . S
C659 C658 1.394 . S
C659 C660 1.383 . S
C659 H667 0.929 . S
C660 C659 1.383 . S
C660 C661 1.377 . S
C661 H645 0.930 . S
C661 C660 1.377 . S
C661 C662 1.379 . S
C662 H646 0.931 . S
C662 C656 1.383 . S
C662 C661 1.379 . S
H663 C657 0.959 . S
H664 C657 0.961 . S
H665 C657 0.960 . S
H666 C658 0.930 . S
H667 C659 0.929 . S
H668 C676 0.929 . S
H669 C678 0.930 . S
H670 C680 0.930 . S
H671 C683 0.929 . S
H672 C686 0.930 . S
H673 C688 0.960 . S
H674 C688 0.960 . S
H675 C688 0.960 1_554 S
C676 H668 0.929 . S
C676 C677 1.377 1_455 S
C676 C678 1.384 . S
C677 C676 1.377 1_655 S
C677 C683 1.390 . S
C678 H669 0.930 . S
C678 C676 1.384 . S
C678 C679 1.372 1_455 S
C679 C678 1.372 1_655 S
C679 C680 1.400 . S
C679 C684 1.493 . S
C680 H670 0.930 . S
C680 C679 1.400 . S
C680 C683 1.386 . S
H681 C697 0.930 . S
H682 C698 0.931 . S
C683 H671 0.929 . S
C683 C677 1.390 . S
C683 C680 1.386 . S
C684 C679 1.493 . S
C684 C686 1.367 1_655 S
C684 C687 1.430 1_554 S
H685 C691 0.930 . S
C686 H672 0.930 . S
C686 C684 1.367 1_455 S
C686 C689 1.403 . S
C687 C684 1.430 1_556 S
C687 C688 1.524 . S
C687 C691 1.400 . S
C688 H673 0.960 . S
C688 H674 0.960 . S
C688 H675 0.960 1_556 S
C688 C687 1.524 . S
C689 C686 1.403 . S
C689 C690 1.405 1_554 S
C689 C693 1.495 . S
C690 C689 1.405 1_556 S
C690 C691 1.372 1_455 S
C690 C692 1.477 . S
C691 H685 0.930 . S
C691 C687 1.400 . S
C691 C690 1.372 1_655 S
C692 C690 1.477 . S
C692 C694 1.391 . S
C692 C698 1.372 1_455 S
C693 C689 1.495 . S
C693 H699 0.959 . S
C693 H700 0.961 . S
C693 H701 0.960 1_554 S
C694 C692 1.391 . S
C694 C695 1.394 . S
C694 H702 0.930 . S
C695 C694 1.394 . S
C695 C696 1.334 1_455 S
C695 H703 0.929 . S
C696 C695 1.334 1_655 S
C696 C697 1.424 . S
C697 H681 0.930 . S
C697 C696 1.424 . S
C697 C698 1.379 . S
C698 H682 0.931 . S
C698 C692 1.372 1_655 S
C698 C697 1.379 . S
H699 C693 0.959 . S
H700 C693 0.961 . S
H701 C693 0.960 1_556 S
H702 C694 0.930 . S
H703 C695 0.929 . S
H704 C712 0.929 . S
H705 C714 0.930 . S
H706 C716 0.930 . S
H707 C719 0.929 . S
H708 C722 0.930 1_455 S
H709 C724 0.960 . S
H710 C724 0.960 . S
H711 C724 0.960 . S
C712 H704 0.929 . S
C712 C713 1.377 . S
C712 C714 1.384 . S
C713 C712 1.377 . S
C713 C719 1.390 1_455 S
C714 H705 0.930 . S
C714 C712 1.384 . S
C714 C715 1.372 1_455 S
C715 C714 1.372 1_655 S
C715 C716 1.400 . S
C715 C720 1.490 . S
C716 H706 0.930 . S
C716 C715 1.400 . S
C716 C719 1.386 . S
H717 C733 0.930 . S
H718 C734 0.931 . S
C719 H707 0.929 . S
C719 C713 1.390 1_655 S
C719 C716 1.386 . S
C720 C715 1.490 . S
C720 C722 1.395 . S
C720 C723 1.403 . S
H721 C727 0.930 . S
C722 H708 0.930 1_655 S
C722 C720 1.395 . S
C722 C725 1.403 . S
C723 C720 1.403 . S
C723 C724 1.524 . S
C723 C727 1.400 . S
C724 H709 0.960 . S
C724 H710 0.960 . S
C724 H711 0.960 . S
C724 C723 1.524 . S
C725 C722 1.403 . S
C725 C726 1.392 . S
C725 C729 1.495 . S
C726 C725 1.392 . S
C726 C727 1.385 . S
C726 C728 1.478 . S
C727 H721 0.930 . S
C727 C723 1.400 . S
C727 C726 1.385 . S
C728 C726 1.478 . S
C728 C730 1.381 . S
C728 C734 1.383 . S
C729 C725 1.495 . S
C729 H735 0.959 1_655 S
C729 H736 0.961 . S
C729 H737 0.960 1_655 S
C730 C728 1.381 . S
C730 C731 1.394 . S
C730 H738 0.930 1_655 S
C731 C730 1.394 . S
C731 C732 1.383 . S
C731 H739 0.885 1_655 S
C732 C731 1.383 . S
C732 C733 1.377 . S
C733 H717 0.930 . S
C733 C732 1.377 . S
C733 C734 1.379 . S
C734 H718 0.931 . S
C734 C728 1.383 . S
C734 C733 1.379 . S
H735 C729 0.959 1_455 S
H736 C729 0.961 . S
H737 C729 0.960 1_455 S
H738 C730 0.930 1_455 S
H739 C731 0.885 1_455 S
H740 C748 0.929 . S
H741 C750 0.930 . S
H742 C752 0.930 . S
H743 C755 0.929 . S
H744 C758 0.929 . S
H745 C760 0.960 . S
H746 C760 0.960 . S
H747 C760 0.960 . S
C748 H740 0.929 . S
C748 C749 1.377 1_565 S
C748 C750 1.384 . S
C749 C748 1.377 1_545 S
C749 C755 1.390 . S
C750 H741 0.930 . S
C750 C748 1.384 . S
C750 C751 1.372 . S
C751 C750 1.372 . S
C751 C752 1.400 1_565 S
C751 C756 1.490 . S
C752 H742 0.930 . S
C752 C751 1.400 1_545 S
C752 C755 1.386 . S
H753 C769 0.930 . S
H754 C770 0.951 . S
C755 H743 0.929 . S
C755 C749 1.390 . S
C755 C752 1.386 . S
C756 C751 1.490 . S
C756 C758 1.395 1_565 S
C756 C759 1.403 . S
H757 C763 0.930 . S
C758 H744 0.929 . S
C758 C756 1.395 1_545 S
C758 C761 1.404 1_545 S
C759 C756 1.403 . S
C759 C760 1.524 . S
C759 C763 1.400 . S
C760 H745 0.960 . S
C760 H746 0.960 . S
C760 H747 0.960 . S
C760 C759 1.524 . S
C761 C758 1.404 1_565 S
C761 C762 1.392 . S
C761 C765 1.495 1_565 S
C762 C761 1.392 . S
C762 C763 1.385 . S
C762 C764 1.478 . S
C763 H757 0.930 . S
C763 C759 1.400 . S
C763 C762 1.385 . S
C764 C762 1.478 . S
C764 C766 1.381 . S
C764 C770 1.383 . S
C765 C761 1.495 1_545 S
C765 H771 0.959 . S
C765 H772 0.961 . S
C765 H773 0.960 1_545 S
C766 C764 1.381 . S
C766 C767 1.394 . S
C766 H774 0.930 . S
C767 C766 1.394 . S
C767 C768 1.383 . S
C767 H775 0.929 . S
C768 C767 1.383 . S
C768 C769 1.377 . S
C769 H753 0.930 . S
C769 C768 1.377 . S
C769 C770 1.379 . S
C770 H754 0.951 . S
C770 C764 1.383 . S
C770 C769 1.379 . S
H771 C765 0.959 . S
H772 C765 0.961 . S
H773 C765 0.960 1_565 S
H774 C766 0.930 . S
H775 C767 0.929 . S
H776 C784 0.929 . S
H777 C786 0.930 . S
H778 C788 0.930 . S
H779 C791 0.929 . S
H780 C794 0.930 . S
H781 C796 0.960 . S
H782 C796 0.960 . S
H783 C796 0.960 . S
C784 H776 0.929 . S
C784 C785 1.377 . S
C784 C786 1.384 . S
C785 C784 1.377 . S
C785 C791 1.390 . S
C786 H777 0.930 . S
C786 C784 1.384 . S
C786 C787 1.372 . S
C787 C786 1.372 . S
C787 C788 1.400 . S
C787 C792 1.490 . S
C788 H778 0.930 . S
C788 C787 1.400 . S
C788 C791 1.386 . S
H789 C805 0.930 . S
H790 C806 0.931 . S
C791 H779 0.929 . S
C791 C785 1.390 . S
C791 C788 1.386 . S
C792 C787 1.490 . S
C792 C794 1.395 . S
C792 C795 1.403 . S
H793 C799 0.930 . S
C794 H780 0.930 . S
C794 C792 1.395 . S
C794 C797 1.403 . S
C795 C792 1.403 . S
C795 C796 1.524 . S
C795 C799 1.400 . S
C796 H781 0.960 . S
C796 H782 0.960 . S
C796 H783 0.960 . S
C796 C795 1.524 . S
C797 C794 1.403 . S
C797 C798 1.392 . S
C797 C801 1.495 . S
C798 C797 1.392 . S
C798 C799 1.385 . S
C798 C800 1.478 . S
C799 H793 0.930 . S
C799 C795 1.400 . S
C799 C798 1.385 . S
C800 C798 1.478 . S
C800 C802 1.381 . S
C800 C806 1.383 . S
C801 C797 1.495 . S
C801 H807 0.959 . S
C801 H808 0.961 . S
C801 H809 0.960 . S
C802 C800 1.381 . S
C802 C803 1.394 . S
C802 H810 0.930 . S
C803 C802 1.394 . S
C803 C804 1.383 . S
C803 H811 0.929 . S
C804 C803 1.383 . S
C804 C805 1.377 . S
C805 H789 0.930 . S
C805 C804 1.377 . S
C805 C806 1.379 . S
C806 H790 0.931 . S
C806 C800 1.383 . S
C806 C805 1.379 . S
H807 C801 0.959 . S
H808 C801 0.961 . S
H809 C801 0.960 . S
H810 C802 0.930 . S
H811 C803 0.929 . S
H812 C820 0.929 . S
H813 C822 0.930 . S
H814 C824 0.930 . S
H815 C827 0.929 . S
H816 C830 0.930 . S
H817 C832 0.960 . S
H818 C832 0.960 . S
H819 C832 0.960 . S
C820 H812 0.929 . S
C820 C821 1.377 . S
C820 C822 1.384 . S
C821 C820 1.377 . S
C821 C827 1.390 . S
C822 H813 0.930 . S
C822 C820 1.384 . S
C822 C823 1.372 . S
C823 C822 1.372 . S
C823 C824 1.400 . S
C823 C828 1.490 . S
C824 H814 0.930 . S
C824 C823 1.400 . S
C824 C827 1.386 . S
H825 C841 0.930 . S
H826 C842 0.931 . S
C827 H815 0.929 . S
C827 C821 1.390 . S
C827 C824 1.386 . S
C828 C823 1.490 . S
C828 C830 1.395 . S
C828 C831 1.403 . S
H829 C835 0.930 . S
C830 H816 0.930 . S
C830 C828 1.395 . S
C830 C833 1.403 . S
C831 C828 1.403 . S
C831 C832 1.524 . S
C831 C835 1.400 . S
C832 H817 0.960 . S
C832 H818 0.960 . S
C832 H819 0.960 . S
C832 C831 1.524 . S
C833 C830 1.403 . S
C833 C834 1.392 . S
C833 C837 1.495 . S
C834 C833 1.392 . S
C834 C835 1.385 . S
C834 C836 1.478 . S
C835 H829 0.930 . S
C835 C831 1.400 . S
C835 C834 1.385 . S
C836 C834 1.478 . S
C836 C838 1.381 . S
C836 C842 1.383 . S
C837 C833 1.495 . S
C837 H843 0.959 . S
C837 H844 0.961 . S
C837 H845 0.960 . S
C838 C836 1.381 . S
C838 C839 1.394 . S
C838 H846 0.930 . S
C839 C838 1.394 . S
C839 C840 1.383 . S
C839 H847 0.929 . S
C840 C839 1.383 . S
C840 C841 1.377 . S
C841 H825 0.930 . S
C841 C840 1.377 . S
C841 C842 1.379 . S
C842 H826 0.931 . S
C842 C836 1.383 . S
C842 C841 1.379 . S
H843 C837 0.959 . S
H844 C837 0.961 . S
H845 C837 0.960 . S
H846 C838 0.930 . S
H847 C839 0.929 . S
H848 C856 0.929 . S
H849 C858 0.930 . S
H850 C860 0.930 . S
H851 C863 0.929 . S
H852 C866 0.930 . S
H853 C868 0.960 . S
H854 C868 0.960 . S
H855 C868 0.960 . S
C856 H848 0.929 . S
C856 C857 1.377 1_455 S
C856 C858 1.384 . S
C857 C856 1.377 1_655 S
C857 C863 1.390 . S
C858 H849 0.930 . S
C858 C856 1.384 . S
C858 C859 1.372 . S
C859 C858 1.372 . S
C859 C860 1.400 1_455 S
C859 C864 1.490 . S
C860 H850 0.930 . S
C860 C859 1.400 1_655 S
C860 C863 1.386 . S
H861 C877 0.930 . S
H862 C878 0.931 . S
C863 H851 0.929 . S
C863 C857 1.390 . S
C863 C860 1.386 . S
C864 C859 1.490 . S
C864 C866 1.395 . S
C864 C867 1.403 1_455 S
H865 C871 0.911 1_655 S
C866 H852 0.930 . S
C866 C864 1.395 . S
C866 C869 1.403 . S
C867 C864 1.403 1_655 S
C867 C868 1.524 . S
C867 C871 1.392 1_654 S
C868 H853 0.960 . S
C868 H854 0.960 . S
C868 H855 0.960 . S
C868 C867 1.524 . S
C869 C866 1.403 . S
C869 C870 1.392 1_554 S
C869 C873 1.495 . S
C870 C869 1.392 1_556 S
C870 C871 1.412 . S
C870 C872 1.478 . S
C871 H865 0.911 1_455 S
C871 C867 1.392 1_456 S
C871 C870 1.412 . S
C872 C870 1.478 . S
C872 C874 1.381 . S
C872 C878 1.383 . S
C873 C869 1.495 . S
C873 H879 0.959 . S
C873 H880 0.961 1_554 S
C873 H881 0.960 . S
C874 C872 1.381 . S
C874 C875 1.394 . S
C874 H882 0.930 1_556 S
C875 C874 1.394 . S
C875 C876 1.383 . S
C875 H883 0.929 . S
C876 C875 1.383 . S
C876 C877 1.377 . S
C877 H861 0.930 . S
C877 C876 1.377 . S
C877 C878 1.379 . S
C878 H862 0.931 . S
C878 C872 1.383 . S
C878 C877 1.379 . S
H879 C873 0.959 . S
H880 C873 0.961 1_556 S
H881 C873 0.960 . S
H882 C874 0.930 1_554 S
H883 C875 0.929 . S
H884 C892 0.929 . S
H885 C894 0.930 . S
H886 C896 0.930 . S
H887 C899 0.929 . S
H888 C902 0.923 1_565 S
H889 C904 0.960 . S
H890 C904 0.960 . S
H891 C904 0.960 . S
C892 H884 0.929 . S
C892 C893 1.377 . S
C892 C894 1.384 . S
C893 C892 1.377 . S
C893 C899 1.390 1_565 S
C894 H885 0.930 . S
C894 C892 1.384 . S
C894 C895 1.372 1_565 S
C895 C894 1.372 1_545 S
C895 C896 1.400 . S
C895 C900 1.490 . S
C896 H886 0.930 . S
C896 C895 1.400 . S
C896 C899 1.386 . S
H897 C913 0.930 . S
H898 C914 0.931 . S
C899 H887 0.929 . S
C899 C893 1.390 1_545 S
C899 C896 1.386 . S
C900 C895 1.490 . S
C900 C902 1.395 . S
C900 C903 1.403 1_554 S
H901 C907 0.930 . S
C902 H888 0.923 1_545 S
C902 C900 1.395 . S
C902 C905 1.403 . S
C903 C900 1.403 1_556 S
C903 C904 1.524 . S
C903 C907 1.400 . S
C904 H889 0.960 . S
C904 H890 0.960 . S
C904 H891 0.960 . S
C904 C903 1.524 . S
C905 C902 1.403 . S
C905 C906 1.392 1_554 S
C905 C909 1.495 . S
C906 C905 1.392 1_556 S
C906 C907 1.385 . S
C906 C908 1.478 . S
C907 H901 0.930 . S
C907 C903 1.400 . S
C907 C906 1.385 . S
C908 C906 1.478 . S
C908 C910 1.381 . S
C908 C914 1.383 . S
C909 C905 1.495 . S
C909 H915 0.954 1_545 S
C909 H916 0.961 . S
C909 H917 0.960 1_545 S
C910 C908 1.381 . S
C910 C911 1.394 . S
C910 H918 0.930 1_545 S
C911 C910 1.394 . S
C911 C912 1.383 . S
C911 H919 0.965 . S
C912 C911 1.383 . S
C912 C913 1.377 . S
C913 H897 0.930 . S
C913 C912 1.377 . S
C913 C914 1.379 . S
C914 H898 0.931 . S
C914 C908 1.383 . S
C914 C913 1.379 . S
H915 C909 0.954 1_565 S
H916 C909 0.961 . S
H917 C909 0.960 1_565 S
H918 C910 0.930 1_565 S
H919 C911 0.965 . S
H920 C928 0.929 . S
H921 C930 0.930 . S
H922 C932 0.930 . S
H923 C935 0.929 . S
H924 C938 0.930 1_556 S
H925 C940 0.960 . S
H926 C940 0.960 . S
H927 C940 0.960 . S
C928 H920 0.929 . S
C928 C929 1.377 . S
C928 C930 1.384 . S
C929 C928 1.377 . S
C929 C935 1.390 . S
C930 H921 0.930 . S
C930 C928 1.384 . S
C930 C931 1.372 . S
C931 C930 1.372 . S
C931 C932 1.400 . S
C931 C936 1.490 . S
C932 H922 0.930 . S
C932 C931 1.400 . S
C932 C935 1.386 . S
H933 C949 0.930 . S
H934 C950 0.931 . S
C935 H923 0.929 . S
C935 C929 1.390 . S
C935 C932 1.386 . S
C936 C931 1.490 . S
C936 C938 1.394 . S
C936 C939 1.403 . S
H937 C943 0.930 . S
C938 H924 0.930 1_554 S
C938 C936 1.394 . S
C938 C941 1.404 1_554 S
C939 C936 1.403 . S
C939 C940 1.524 . S
C939 C943 1.400 . S
C940 H925 0.960 . S
C940 H926 0.960 . S
C940 H927 0.960 . S
C940 C939 1.524 . S
C941 C938 1.404 1_556 S
C941 C942 1.392 . S
C941 C945 1.495 . S
C942 C941 1.392 . S
C942 C943 1.385 1_556 S
C942 C944 1.478 . S
C943 H937 0.930 . S
C943 C939 1.400 . S
C943 C942 1.385 1_554 S
C944 C942 1.478 . S
C944 C946 1.381 . S
C944 C950 1.383 . S
C945 C941 1.495 . S
C945 H951 0.959 . S
C945 H952 0.961 . S
C945 H953 0.960 . S
C946 C944 1.381 . S
C946 C947 1.394 . S
C946 H954 0.930 . S
C947 C946 1.394 . S
C947 C948 1.383 . S
C947 H955 0.929 . S
C948 C947 1.383 . S
C948 C949 1.377 . S
C949 H933 0.930 . S
C949 C948 1.377 . S
C949 C950 1.379 . S
C950 H934 0.931 . S
C950 C944 1.383 . S
C950 C949 1.379 . S
H951 C945 0.959 . S
H952 C945 0.961 . S
H953 C945 0.960 . S
H954 C946 0.930 . S
H955 C947 0.929 . S
H956 C964 0.929 . S
H957 C966 0.930 . S
H958 C968 0.930 . S
H959 C971 0.929 . S
H960 C974 0.930 . S
H961 C976 0.960 . S
H962 C976 0.960 . S
H963 C976 0.960 . S
C964 H956 0.929 . S
C964 C965 1.377 . S
C964 C966 1.384 . S
C965 C964 1.377 . S
C965 C971 1.390 . S
C966 H957 0.930 . S
C966 C964 1.384 . S
C966 C967 1.372 . S
C967 C966 1.372 . S
C967 C968 1.400 . S
C967 C972 1.490 . S
C968 H958 0.930 . S
C968 C967 1.400 . S
C968 C971 1.386 . S
H969 C985 0.930 . S
H970 C986 0.931 . S
C971 H959 0.929 . S
C971 C965 1.390 . S
C971 C968 1.386 . S
C972 C967 1.490 . S
C972 C974 1.395 . S
C972 C975 1.403 1_554 S
H973 C979 0.930 . S
C974 H960 0.930 . S
C974 C972 1.395 . S
C974 C977 1.403 . S
C975 C972 1.403 1_556 S
C975 C976 1.524 . S
C975 C979 1.400 . S
C976 H961 0.960 . S
C976 H962 0.960 . S
C976 H963 0.960 . S
C976 C975 1.524 . S
C977 C974 1.403 . S
C977 C978 1.392 1_554 S
C977 C981 1.495 . S
C978 C977 1.392 1_556 S
C978 C979 1.385 . S
C978 C980 1.478 . S
C979 H973 0.930 . S
C979 C975 1.400 . S
C979 C978 1.385 . S
C980 C978 1.478 . S
C980 C982 1.381 . S
C980 C986 1.383 . S
C981 C977 1.495 . S
C981 H987 0.959 . S
C981 H988 0.961 . S
C981 H989 0.960 . S
C982 C980 1.381 . S
C982 C983 1.394 . S
C982 H990 0.930 . S
C983 C982 1.394 . S
C983 C984 1.383 . S
C983 H991 0.929 . S
C984 C983 1.383 . S
C984 C985 1.377 . S
C985 H969 0.930 . S
C985 C984 1.377 . S
C985 C986 1.379 . S
C986 H970 0.931 . S
C986 C980 1.383 . S
C986 C985 1.379 . S
H987 C981 0.959 . S
H988 C981 0.961 . S
H989 C981 0.960 . S
H990 C982 0.930 . S
H991 C983 0.929 . S
H992 C1000 0.929 . S
H993 C1002 0.930 . S
H994 C1004 0.930 . S
H995 C1007 0.932 . S
H996 C1010 0.930 . S
H997 C1012 0.960 . S
H998 C1012 0.960 . S
H999 C1012 0.960 . S
C1000 H992 0.929 . S
C1000 C1001 1.377 . S
C1000 C1002 1.384 . S
C1001 C1000 1.377 . S
C1001 C1007 1.390 . S
C1002 H993 0.930 . S
C1002 C1000 1.384 . S
C1002 C1003 1.372 . S
C1003 C1002 1.372 . S
C1003 C1004 1.400 . S
C1003 C1008 1.490 . S
C1004 H994 0.930 . S
C1004 C1003 1.400 . S
C1004 C1007 1.386 . S
H1005 C1021 0.930 . S
H1006 C1022 0.931 . S
C1007 H995 0.932 . S
C1007 C1001 1.390 . S
C1007 C1004 1.386 . S
C1008 C1003 1.490 . S
C1008 C1010 1.395 . S
C1008 C1011 1.403 1_455 S
H1009 C1015 0.930 . S
C1010 H996 0.930 . S
C1010 C1008 1.395 . S
C1010 C1013 1.403 . S
C1011 C1008 1.403 1_655 S
C1011 C1012 1.524 . S
C1011 C1015 1.400 . S
C1012 H997 0.960 . S
C1012 H998 0.960 . S
C1012 H999 0.960 . S
C1012 C1011 1.524 . S
C1013 C1010 1.403 . S
C1013 C1014 1.392 . S
C1013 C1017 1.495 . S
C1014 C1013 1.392 . S
C1014 C1015 1.385 1_455 S
C1014 C1016 1.478 . S
C1015 H1009 0.930 . S
C1015 C1011 1.400 . S
C1015 C1014 1.385 1_655 S
C1016 C1014 1.478 . S
C1016 C1018 1.381 . S
C1016 C1022 1.383 . S
C1017 C1013 1.495 . S
C1017 H1023 0.959 . S
C1017 H1024 0.961 . S
C1017 H1025 0.960 . S
C1018 C1016 1.381 . S
C1018 C1019 1.394 . S
C1018 H1026 0.930 . S
C1019 C1018 1.394 . S
C1019 C1020 1.383 . S
C1019 H1027 0.929 . S
C1020 C1019 1.383 . S
C1020 C1021 1.377 . S
C1021 H1005 0.930 . S
C1021 C1020 1.377 . S
C1021 C1022 1.379 . S
C1022 H1006 0.931 . S
C1022 C1016 1.383 . S
C1022 C1021 1.379 . S
H1023 C1017 0.959 . S
H1024 C1017 0.961 . S
H1025 C1017 0.960 . S
H1026 C1018 0.930 . S
H1027 C1019 0.929 . S
H1028 C1036 0.929 . S
H1029 C1038 0.955 . S
H1030 C1040 0.930 . S
H1031 C1043 0.929 . S
H1032 C1046 0.930 . S
H1033 C1048 0.960 . S
H1034 C1048 0.960 . S
H1035 C1048 0.960 . S
C1036 H1028 0.929 . S
C1036 C1037 1.377 1_565 S
C1036 C1038 1.386 . S
C1037 C1036 1.377 1_545 S
C1037 C1043 1.390 . S
C1038 H1029 0.955 . S
C1038 C1036 1.386 . S
C1038 C1039 1.350 1_565 S
C1039 C1038 1.350 1_545 S
C1039 C1040 1.400 . S
C1039 C1044 1.490 . S
C1040 H1030 0.930 . S
C1040 C1039 1.400 . S
C1040 C1043 1.386 . S
H1041 C1057 0.930 . S
H1042 C1058 0.931 . S
C1043 H1031 0.929 . S
C1043 C1037 1.390 . S
C1043 C1040 1.386 . S
C1044 C1039 1.490 . S
C1044 C1046 1.395 1_545 S
C1044 C1047 1.403 . S
H1045 C1051 0.930 . S
C1046 H1032 0.930 . S
C1046 C1044 1.395 1_565 S
C1046 C1049 1.403 . S
C1047 C1044 1.403 . S
C1047 C1048 1.524 . S
C1047 C1051 1.400 . S
C1048 H1033 0.960 . S
C1048 H1034 0.960 . S
C1048 H1035 0.960 . S
C1048 C1047 1.524 . S
C1049 C1046 1.403 . S
C1049 C1050 1.392 1_565 S
C1049 C1053 1.495 . S
C1050 C1049 1.392 1_545 S
C1050 C1051 1.385 . S
C1050 C1052 1.478 . S
C1051 H1045 0.930 . S
C1051 C1047 1.400 . S
C1051 C1050 1.385 . S
C1052 C1050 1.478 . S
C1052 C1054 1.381 . S
C1052 C1058 1.383 . S
C1053 C1049 1.495 . S
C1053 H1059 0.959 . S
C1053 H1060 0.961 . S
C1053 H1061 0.960 . S
C1054 C1052 1.381 . S
C1054 C1055 1.394 . S
C1054 H1062 0.930 1_545 S
C1055 C1054 1.394 . S
C1055 C1056 1.383 . S
C1055 H1063 0.931 . S
C1056 C1055 1.383 . S
C1056 C1057 1.377 . S
C1057 H1041 0.930 . S
C1057 C1056 1.377 . S
C1057 C1058 1.379 . S
C1058 H1042 0.931 . S
C1058 C1052 1.383 . S
C1058 C1057 1.379 . S
H1059 C1053 0.959 . S
H1060 C1053 0.961 . S
H1061 C1053 0.960 . S
H1062 C1054 0.930 1_565 S
H1063 C1055 0.931 . S
H1064 C1072 0.929 . S
H1065 C1074 0.930 . S
H1066 C1076 0.930 . S
H1067 C1079 0.929 . S
H1068 C1082 0.930 . S
H1069 C1084 0.960 . S
H1070 C1084 0.960 . S
H1071 C1084 0.960 . S
C1072 H1064 0.929 . S
C1072 C1073 1.377 . S
C1072 C1074 1.384 . S
C1073 C1072 1.377 . S
C1073 C1079 1.390 . S
C1074 H1065 0.930 . S
C1074 C1072 1.384 . S
C1074 C1075 1.372 . S
C1075 C1074 1.372 . S
C1075 C1076 1.400 . S
C1075 C1080 1.490 . S
C1076 H1066 0.930 . S
C1076 C1075 1.400 . S
C1076 C1079 1.386 . S
H1077 C1093 0.930 . S
H1078 C1094 0.931 . S
C1079 H1067 0.929 . S
C1079 C1073 1.390 . S
C1079 C1076 1.386 . S
C1080 C1075 1.490 . S
C1080 C1082 1.395 . S
C1080 C1083 1.403 . S
H1081 C1087 0.930 . S
C1082 H1068 0.930 . S
C1082 C1080 1.395 . S
C1082 C1085 1.403 . S
C1083 C1080 1.403 . S
C1083 C1084 1.524 . S
C1083 C1087 1.400 . S
C1084 H1069 0.960 . S
C1084 H1070 0.960 . S
C1084 H1071 0.960 . S
C1084 C1083 1.524 . S
C1085 C1082 1.403 . S
C1085 C1086 1.392 . S
C1085 C1089 1.495 . S
C1086 C1085 1.392 . S
C1086 C1087 1.385 . S
C1086 C1088 1.478 . S
C1087 H1081 0.930 . S
C1087 C1083 1.400 . S
C1087 C1086 1.385 . S
C1088 C1086 1.478 . S
C1088 C1090 1.381 . S
C1088 C1094 1.383 . S
C1089 C1085 1.495 . S
C1089 H1095 0.959 . S
C1089 H1096 0.961 . S
C1089 H1097 0.960 . S
C1090 C1088 1.381 . S
C1090 C1091 1.394 . S
C1090 H1098 0.930 . S
C1091 C1090 1.394 . S
C1091 C1092 1.383 . S
C1091 H1099 0.929 . S
C1092 C1091 1.383 . S
C1092 C1093 1.377 . S
C1093 H1077 0.930 . S
C1093 C1092 1.377 . S
C1093 C1094 1.379 . S
C1094 H1078 0.931 . S
C1094 C1088 1.383 . S
C1094 C1093 1.379 . S
H1095 C1089 0.959 . S
H1096 C1089 0.961 . S
H1097 C1089 0.960 . S
H1098 C1090 0.930 . S
H1099 C1091 0.929 . S
H1100 C1108 0.929 . S
H1101 C1110 0.930 . S
H1102 C1112 0.930 . S
H1103 C1115 0.929 . S
H1104 C1118 0.930 . S
H1105 C1120 0.960 . S
H1106 C1120 0.960 . S
H1107 C1120 0.960 . S
C1108 H1100 0.929 . S
C1108 C1109 1.377 . S
C1108 C1110 1.384 . S
C1109 C1108 1.377 . S
C1109 C1115 1.390 . S
C1110 H1101 0.930 . S
C1110 C1108 1.384 . S
C1110 C1111 1.372 . S
C1111 C1110 1.372 . S
C1111 C1112 1.400 . S
C1111 C1116 1.490 . S
C1112 H1102 0.930 . S
C1112 C1111 1.400 . S
C1112 C1115 1.386 . S
H1113 C1129 0.930 . S
H1114 C1130 0.931 . S
C1115 H1103 0.929 . S
C1115 C1109 1.390 . S
C1115 C1112 1.386 . S
C1116 C1111 1.490 . S
C1116 C1118 1.395 . S
C1116 C1119 1.403 . S
H1117 C1123 0.930 . S
C1118 H1104 0.930 . S
C1118 C1116 1.395 . S
C1118 C1121 1.403 . S
C1119 C1116 1.403 . S
C1119 C1120 1.524 . S
C1119 C1123 1.400 . S
C1120 H1105 0.960 . S
C1120 H1106 0.960 . S
C1120 H1107 0.960 . S
C1120 C1119 1.524 . S
C1121 C1118 1.403 . S
C1121 C1122 1.392 . S
C1121 C1125 1.495 . S
C1122 C1121 1.392 . S
C1122 C1123 1.385 . S
C1122 C1124 1.478 . S
C1123 H1117 0.930 . S
C1123 C1119 1.400 . S
C1123 C1122 1.385 . S
C1124 C1122 1.478 . S
C1124 C1126 1.381 . S
C1124 C1130 1.383 . S
C1125 C1121 1.495 . S
C1125 H1131 0.959 . S
C1125 H1132 0.961 . S
C1125 H1133 0.960 . S
C1126 C1124 1.381 . S
C1126 C1127 1.394 . S
C1126 H1134 0.930 . S
C1127 C1126 1.394 . S
C1127 C1128 1.383 . S
C1127 H1135 0.929 . S
C1128 C1127 1.383 . S
C1128 C1129 1.377 . S
C1129 H1113 0.930 . S
C1129 C1128 1.377 . S
C1129 C1130 1.379 . S
C1130 H1114 0.931 . S
C1130 C1124 1.383 . S
C1130 C1129 1.379 . S
H1131 C1125 0.959 . S
H1132 C1125 0.961 . S
H1133 C1125 0.960 . S
H1134 C1126 0.930 . S
H1135 C1127 0.929 . S
H1136 C1144 0.929 . S
H1137 C1146 0.930 . S
H1138 C1148 0.930 . S
H1139 C1151 0.929 . S
H1140 C1154 0.930 . S
H1141 C1156 0.960 . S
H1142 C1156 0.960 . S
H1143 C1156 0.960 . S
C1144 H1136 0.929 . S
C1144 C1145 1.377 . S
C1144 C1146 1.384 . S
C1145 C1144 1.377 . S
C1145 C1151 1.390 1_655 S
C1146 H1137 0.930 . S
C1146 C1144 1.384 . S
C1146 C1147 1.372 . S
C1147 C1146 1.372 . S
C1147 C1148 1.400 1_655 S
C1147 C1152 1.490 . S
C1148 H1138 0.930 . S
C1148 C1147 1.400 1_455 S
C1148 C1151 1.386 . S
H1149 C1165 0.930 . S
H1150 C1166 0.931 . S
C1151 H1139 0.929 . S
C1151 C1145 1.390 1_455 S
C1151 C1148 1.386 . S
C1152 C1147 1.490 . S
C1152 C1154 1.395 . S
C1152 C1155 1.403 . S
H1153 C1159 0.930 . S
C1154 H1140 0.930 . S
C1154 C1152 1.395 . S
C1154 C1157 1.403 . S
C1155 C1152 1.403 . S
C1155 C1156 1.524 . S
C1155 C1159 1.400 . S
C1156 H1141 0.960 . S
C1156 H1142 0.960 . S
C1156 H1143 0.960 . S
C1156 C1155 1.524 . S
C1157 C1154 1.403 . S
C1157 C1158 1.392 . S
C1157 C1161 1.495 . S
C1158 C1157 1.392 . S
C1158 C1159 1.385 . S
C1158 C1160 1.478 . S
C1159 H1153 0.930 . S
C1159 C1155 1.400 . S
C1159 C1158 1.385 . S
C1160 C1158 1.478 . S
C1160 C1162 1.381 . S
C1160 C1166 1.383 1_655 S
C1161 C1157 1.495 . S
C1161 H1167 0.959 . S
C1161 H1168 0.961 1_655 S
C1161 H1169 0.960 . S
C1162 C1160 1.381 . S
C1162 C1163 1.394 . S
C1162 H1170 0.930 . S
C1163 C1162 1.394 . S
C1163 C1164 1.383 . S
C1163 H1171 0.929 . S
C1164 C1163 1.383 . S
C1164 C1165 1.377 1_655 S
C1165 H1149 0.930 . S
C1165 C1164 1.377 1_455 S
C1165 C1166 1.379 . S
C1166 H1150 0.931 . S
C1166 C1160 1.383 1_455 S
C1166 C1165 1.379 . S
H1167 C1161 0.959 . S
H1168 C1161 0.961 1_455 S
H1169 C1161 0.960 . S
H1170 C1162 0.930 . S
H1171 C1163 0.929 . S
H1172 C1180 0.929 . S
H1173 C1182 0.930 . S
H1174 C1184 0.930 . S
H1175 C1187 0.929 . S
H1176 C1190 0.930 . S
H1177 C1192 0.960 . S
H1178 C1192 0.960 . S
H1179 C1192 0.960 . S
C1180 H1172 0.929 . S
C1180 C1181 1.377 . S
C1180 C1182 1.384 . S
C1181 C1180 1.377 . S
C1181 C1187 1.390 1_565 S
C1182 H1173 0.930 . S
C1182 C1180 1.384 . S
C1182 C1183 1.372 . S
C1183 C1182 1.372 . S
C1183 C1184 1.400 1_565 S
C1183 C1188 1.490 . S
C1184 H1174 0.930 . S
C1184 C1183 1.400 1_545 S
C1184 C1187 1.386 . S
H1185 C1201 0.930 1_545 S
H1186 C1202 0.926 1_545 S
C1187 H1175 0.929 . S
C1187 C1181 1.390 1_545 S
C1187 C1184 1.386 . S
C1188 C1183 1.490 . S
C1188 C1190 1.395 . S
C1188 C1191 1.403 1_565 S
H1189 C1195 0.930 . S
C1190 H1176 0.930 . S
C1190 C1188 1.395 . S
C1190 C1193 1.403 . S
C1191 C1188 1.403 1_545 S
C1191 C1192 1.524 . S
C1191 C1195 1.400 . S
C1192 H1177 0.960 . S
C1192 H1178 0.960 . S
C1192 H1179 0.960 . S
C1192 C1191 1.524 . S
C1193 C1190 1.403 . S
C1193 C1194 1.392 . S
C1193 C1197 1.495 . S
C1194 C1193 1.392 . S
C1194 C1195 1.385 1_565 S
C1194 C1196 1.478 . S
C1195 H1189 0.930 . S
C1195 C1191 1.400 . S
C1195 C1194 1.385 1_545 S
C1196 C1194 1.478 . S
C1196 C1198 1.381 . S
C1196 C1202 1.383 . S
C1197 C1193 1.495 . S
C1197 H1203 0.959 . S
C1197 H1204 0.961 . S
C1197 H1205 0.960 . S
C1198 C1196 1.381 . S
C1198 C1199 1.394 . S
C1198 H1206 0.930 . S
C1199 C1198 1.394 . S
C1199 C1200 1.383 . S
C1199 H1207 0.929 . S
C1200 C1199 1.383 . S
C1200 C1201 1.377 . S
C1201 H1185 0.930 1_565 S
C1201 C1200 1.377 . S
C1201 C1202 1.379 . S
C1202 H1186 0.926 1_565 S
C1202 C1196 1.383 . S
C1202 C1201 1.379 . S
H1203 C1197 0.959 . S
H1204 C1197 0.961 . S
H1205 C1197 0.960 . S
H1206 C1198 0.930 . S
H1207 C1199 0.929 . S
H1208 C1216 0.929 . S
H1209 C1218 0.930 . S
H1210 C1220 0.930 . S
H1211 C1223 0.929 . S
H1212 C1226 0.930 . S
H1213 C1228 0.960 . S
H1214 C1228 0.960 . S
H1215 C1228 0.960 . S
C1216 H1208 0.929 . S
C1216 C1217 1.377 . S
C1216 C1218 1.384 . S
C1217 C1216 1.377 . S
C1217 C1223 1.390 . S
C1218 H1209 0.930 . S
C1218 C1216 1.384 . S
C1218 C1219 1.372 . S
C1219 C1218 1.372 . S
C1219 C1220 1.400 . S
C1219 C1224 1.490 . S
C1220 H1210 0.930 . S
C1220 C1219 1.400 . S
C1220 C1223 1.386 . S
H1221 C1237 0.930 . S
H1222 C1238 0.931 . S
C1223 H1211 0.929 . S
C1223 C1217 1.390 . S
C1223 C1220 1.386 . S
C1224 C1219 1.490 . S
C1224 C1226 1.395 . S
C1224 C1227 1.403 . S
H1225 C1231 0.930 . S
C1226 H1212 0.930 . S
C1226 C1224 1.395 . S
C1226 C1229 1.403 . S
C1227 C1224 1.403 . S
C1227 C1228 1.524 . S
C1227 C1231 1.400 . S
C1228 H1213 0.960 . S
C1228 H1214 0.960 . S
C1228 H1215 0.960 . S
C1228 C1227 1.524 . S
C1229 C1226 1.403 . S
C1229 C1230 1.392 . S
C1229 C1233 1.495 . S
C1230 C1229 1.392 . S
C1230 C1231 1.385 . S
C1230 C1232 1.478 . S
C1231 H1225 0.930 . S
C1231 C1227 1.400 . S
C1231 C1230 1.385 . S
C1232 C1230 1.478 . S
C1232 C1234 1.381 . S
C1232 C1238 1.383 . S
C1233 C1229 1.495 . S
C1233 H1239 0.959 . S
C1233 H1240 0.961 . S
C1233 H1241 0.960 . S
C1234 C1232 1.381 . S
C1234 C1235 1.394 . S
C1234 H1242 0.930 . S
C1235 C1234 1.394 . S
C1235 C1236 1.383 . S
C1235 H1243 0.929 . S
C1236 C1235 1.383 . S
C1236 C1237 1.377 . S
C1237 H1221 0.930 . S
C1237 C1236 1.377 . S
C1237 C1238 1.379 . S
C1238 H1222 0.931 . S
C1238 C1232 1.383 . S
C1238 C1237 1.379 . S
H1239 C1233 0.959 . S
H1240 C1233 0.961 . S
H1241 C1233 0.960 . S
H1242 C1234 0.930 . S
H1243 C1235 0.929 . S
H1244 C1252 0.929 . S
H1245 C1254 0.930 . S
H1246 C1256 0.930 . S
H1247 C1259 0.929 . S
H1248 C1262 0.930 . S
H1249 C1264 0.960 . S
H1250 C1264 0.960 . S
H1251 C1264 0.960 . S
C1252 H1244 0.929 . S
C1252 C1253 1.377 . S
C1252 C1254 1.384 . S
C1253 C1252 1.377 . S
C1253 C1259 1.390 . S
C1254 H1245 0.930 . S
C1254 C1252 1.384 . S
C1254 C1255 1.372 . S
C1255 C1254 1.372 . S
C1255 C1256 1.400 . S
C1255 C1260 1.490 . S
C1256 H1246 0.930 . S
C1256 C1255 1.400 . S
C1256 C1259 1.386 . S
H1257 C1273 0.930 . S
H1258 C1274 0.931 . S
C1259 H1247 0.929 . S
C1259 C1253 1.390 . S
C1259 C1256 1.386 . S
C1260 C1255 1.490 . S
C1260 C1262 1.395 . S
C1260 C1263 1.403 . S
H1261 C1267 0.930 . S
C1262 H1248 0.930 . S
C1262 C1260 1.395 . S
C1262 C1265 1.403 . S
C1263 C1260 1.403 . S
C1263 C1264 1.524 . S
C1263 C1267 1.400 . S
C1264 H1249 0.960 . S
C1264 H1250 0.960 . S
C1264 H1251 0.960 . S
C1264 C1263 1.524 . S
C1265 C1262 1.403 . S
C1265 C1266 1.392 . S
C1265 C1269 1.495 . S
C1266 C1265 1.392 . S
C1266 C1267 1.385 . S
C1266 C1268 1.478 . S
C1267 H1261 0.930 . S
C1267 C1263 1.400 . S
C1267 C1266 1.385 . S
C1268 C1266 1.478 . S
C1268 C1270 1.381 . S
C1268 C1274 1.383 . S
C1269 C1265 1.495 . S
C1269 H1275 0.959 . S
C1269 H1276 0.961 . S
C1269 H1277 0.960 . S
C1270 C1268 1.381 . S
C1270 C1271 1.394 . S
C1270 H1278 0.930 . S
C1271 C1270 1.394 . S
C1271 C1272 1.383 . S
C1271 H1279 0.929 . S
C1272 C1271 1.383 . S
C1272 C1273 1.377 . S
C1273 H1257 0.930 . S
C1273 C1272 1.377 . S
C1273 C1274 1.379 . S
C1274 H1258 0.931 . S
C1274 C1268 1.383 . S
C1274 C1273 1.379 . S
H1275 C1269 0.959 . S
H1276 C1269 0.961 . S
H1277 C1269 0.960 . S
H1278 C1270 0.930 . S
H1279 C1271 0.929 . S
C425 C215 1.795 . S
C444 C266 1.895 . S
C480 C306 1.888 . S
C461 C247 1.787 . S
C516 C346 1.890 . S
C497 C151 1.796 . S
C552 C386 1.890 1_455 S
C533 C183 1.795 . S
C588 C275 1.899 1_565 S
C569 C87 1.788 1_565 S
C605 C119 1.793 . S
C624 C315 1.894 . S
C641 C23 1.794 . S
C660 C355 1.892 . S
C677 C55 1.775 1_655 S
C696 C395 1.884 1_655 S
C732 C272 0.290 . S
C713 C189 0.222 . S
C768 C312 0.232 . S
C749 C221 0.252 . S
C804 C352 0.275 . S
C785 C253 0.222 . S
C821 C157 0.254 . S
C840 C392 0.244 . S
C857 C61 0.450 1_655 S
C876 C263 0.377 . S
C912 C303 0.268 . S
C893 C93 0.466 1_565 S
C948 C343 0.352 . S
C929 C125 0.432 . S
C965 C29 0.467 . S
C984 C383 0.314 . S
C1001 C177 2.238 . S
C1020 C267 2.480 . S
C1037 C209 2.226 . S
C1056 C307 2.457 . S
C1092 C347 2.458 . S
C1073 C241 2.227 . S
C1128 C387 2.464 . S
C1109 C145 2.229 . S
C1145 C49 2.241 1_655 S
C1164 C258 2.467 . S
C1200 C298 2.480 . S
C1181 C81 2.241 1_565 S
C1236 C338 2.475 . S
C1217 C113 2.243 . S
C1253 C17 2.249 . S
C1272 C378 2.464 . S
