# Generated by pormake.
# Topology pyr, (3,6)-cn, num edge types: 1
# Building blocks:
#     Node 0, Type 0, BuildingBlock: BETDAH_clean_linker_0, # of connection points: 3
#     Node 1, Type 0, BuildingBlock: BETDAH_clean_linker_0, # of connection points: 3
#     Node 2, Type 0, BuildingBlock: BETDAH_clean_linker_0, # of connection points: 3
#     Node 3, Type 0, BuildingBlock: BETDAH_clean_linker_0, # of connection points: 3
#     Node 4, Type 0, BuildingBlock: BETDAH_clean_linker_0, # of connection points: 3
#     Node 5, Type 0, BuildingBlock: BETDAH_clean_linker_0, # of connection points: 3
#     Node 6, Type 0, BuildingBlock: BETDAH_clean_linker_0, # of connection points: 3
#     Node 7, Type 0, BuildingBlock: BETDAH_clean_linker_0, # of connection points: 3
#     Node 8, Type 1, BuildingBlock: BETDIP_clean_sbu_0, # of connection points: 6
#     Node 9, Type 1, BuildingBlock: BETDIP_clean_sbu_0, # of connection points: 6
#     Node 10, Type 1, BuildingBlock: BETDIP_clean_sbu_0, # of connection points: 6
#     Node 11, Type 1, BuildingBlock: BETDIP_clean_sbu_0, # of connection points: 6
#     Edge 12, Type (0, 1), BuildingBlock: UVAHIK_clean_linker_0, # of connection points: 2
#     Edge 13, Type (0, 1), BuildingBlock: UVAHIK_clean_linker_0, # of connection points: 2
#     Edge 14, Type (0, 1), BuildingBlock: UVAHIK_clean_linker_0, # of connection points: 2
#     Edge 15, Type (0, 1), BuildingBlock: UVAHIK_clean_linker_0, # of connection points: 2
#     Edge 16, Type (0, 1), BuildingBlock: UVAHIK_clean_linker_0, # of connection points: 2
#     Edge 17, Type (0, 1), BuildingBlock: UVAHIK_clean_linker_0, # of connection points: 2
#     Edge 18, Type (0, 1), BuildingBlock: UVAHIK_clean_linker_0, # of connection points: 2
#     Edge 19, Type (0, 1), BuildingBlock: UVAHIK_clean_linker_0, # of connection points: 2
#     Edge 20, Type (0, 1), BuildingBlock: UVAHIK_clean_linker_0, # of connection points: 2
#     Edge 21, Type (0, 1), BuildingBlock: UVAHIK_clean_linker_0, # of connection points: 2
#     Edge 22, Type (0, 1), BuildingBlock: UVAHIK_clean_linker_0, # of connection points: 2
#     Edge 23, Type (0, 1), BuildingBlock: UVAHIK_clean_linker_0, # of connection points: 2
#     Edge 24, Type (0, 1), BuildingBlock: UVAHIK_clean_linker_0, # of connection points: 2
#     Edge 25, Type (0, 1), BuildingBlock: UVAHIK_clean_linker_0, # of connection points: 2
#     Edge 26, Type (0, 1), BuildingBlock: UVAHIK_clean_linker_0, # of connection points: 2
#     Edge 27, Type (0, 1), BuildingBlock: UVAHIK_clean_linker_0, # of connection points: 2
#     Edge 28, Type (0, 1), BuildingBlock: UVAHIK_clean_linker_0, # of connection points: 2
#     Edge 29, Type (0, 1), BuildingBlock: UVAHIK_clean_linker_0, # of connection points: 2
#     Edge 30, Type (0, 1), BuildingBlock: UVAHIK_clean_linker_0, # of connection points: 2
#     Edge 31, Type (0, 1), BuildingBlock: UVAHIK_clean_linker_0, # of connection points: 2
#     Edge 32, Type (0, 1), BuildingBlock: UVAHIK_clean_linker_0, # of connection points: 2
#     Edge 33, Type (0, 1), BuildingBlock: UVAHIK_clean_linker_0, # of connection points: 2
#     Edge 34, Type (0, 1), BuildingBlock: UVAHIK_clean_linker_0, # of connection points: 2
#     Edge 35, Type (0, 1), BuildingBlock: UVAHIK_clean_linker_0, # of connection points: 2
# Relax obj value: 0.119
# Max RMSD: 0.209
# Mean RMSD: 0.135
data_MOF--net-pyr--node1-BETDIP_clean_sbu_0--node2-BETDAH_clean_linker_0--edge1-UVAHIK_clean_linker_0
_symmetry_space_group_name_H-M    P1
_symmetry_Int_Tables_number       1
_symmetry_cell_setting            triclinic
loop_
_symmetry_equiv_pos_as_xyz
'x, y, z'
_cell_length_a     44.639067
_cell_length_b     51.064232
_cell_length_c     51.716042
_cell_angle_alpha  88.719635
_cell_angle_beta   93.720451
_cell_angle_gamma 109.21314
loop_
_atom_site_label
_atom_site_type_symbol
_atom_site_fract_x
_atom_site_fract_y
_atom_site_fract_z
_atom_type_partial_charge
H0 H 0.32951 0.21871 0.2434 0.0
H1 H 0.38415 0.2829 0.19352 0.0
H2 H 0.30686 0.29396 0.23217 0.0
C3 C 0.33395 0.23884 0.23427 0.0
C4 C 0.31519 0.25512 0.23978 0.0
C5 C 0.35894 0.2486 0.21765 0.0
C6 C 0.36531 0.27516 0.20674 0.0
C7 C 0.34637 0.29135 0.2115 0.0
C8 C 0.32138 0.28137 0.22817 0.0
N9 N 0.35283 0.31742 0.19895 0.0
C10 C 0.32939 0.32909 0.1922 0.0
H11 H 0.26065 0.77848 0.73921 0.0
H12 H 0.18592 0.81452 0.73201 0.0
H13 H 0.18642 0.75137 0.67873 0.0
C14 C 0.23884 0.7796 0.72953 0.0
C15 C 0.22556 0.76287 0.70777 0.0
C16 C 0.22467 0.79821 0.73857 0.0
C17 C 0.19675 0.79991 0.72551 0.0
C18 C 0.18294 0.78293 0.70394 0.0
C19 C 0.19716 0.76427 0.69545 0.0
N20 N 0.15515 0.78458 0.69006 0.0
C21 C 0.14643 0.80829 0.68968 0.0
H22 H 0.67253 0.35721 0.91139 0.0
H23 H 0.67484 0.40876 0.84372 0.0
H24 H 0.60849 0.32565 0.8453 0.0
C25 C 0.66337 0.36028 0.89204 0.0
C26 C 0.63868 0.33855 0.8801 0.0
C27 C 0.67651 0.3858 0.87928 0.0
C28 C 0.66467 0.3894 0.8539 0.0
C29 C 0.63991 0.36759 0.84169 0.0
C30 C 0.62722 0.34245 0.85493 0.0
N31 N 0.628 0.36909 0.81571 0.0
C32 C 0.62926 0.39284 0.80137 0.0
H33 H 0.84743 0.73566 0.40436 0.0
H34 H 0.91579 0.76416 0.34658 0.0
H35 H 0.84848 0.68124 0.34198 0.0
C36 C 0.85748 0.73202 0.38679 0.0
C37 C 0.8449 0.70596 0.37456 0.0
C38 C 0.88299 0.75328 0.377 0.0
C39 C 0.8961 0.74799 0.35447 0.0
C40 C 0.88398 0.72227 0.34154 0.0
C41 C 0.858 0.70117 0.35157 0.0
N42 N 0.89921 0.71929 0.31878 0.0
C43 C 0.89325 0.69654 0.30223 0.0
H44 H 0.76091 0.81375 0.86212 0.0
H45 H 0.68275 0.77379 0.90929 0.0
H46 H 0.67585 0.83626 0.85448 0.0
C47 C 0.73744 0.81168 0.86816 0.0
C48 C 0.72008 0.82743 0.85582 0.0
C49 C 0.72435 0.79242 0.88759 0.0
C50 C 0.69322 0.78853 0.8943 0.0
C51 C 0.6759 0.80451 0.88273 0.0
C52 C 0.68938 0.82403 0.86355 0.0
N53 N 0.64497 0.80054 0.89079 0.0
C54 C 0.63261 0.8221 0.89182 0.0
H55 H 0.84282 0.24981 0.3596 0.0
H56 H 0.88417 0.30836 0.42116 0.0
H57 H 0.8172 0.32356 0.36425 0.0
C58 C 0.84568 0.2693 0.36904 0.0
C59 C 0.82847 0.28615 0.35884 0.0
C60 C 0.86564 0.27684 0.39164 0.0
C61 C 0.86846 0.30185 0.40394 0.0
C62 C 0.85066 0.31844 0.39454 0.0
C63 C 0.83044 0.31048 0.372 0.0
N64 N 0.85403 0.34319 0.40804 0.0
C65 C 0.83019 0.35506 0.40822 0.0
H66 H 0.35743 0.73632 0.1852 0.0
H67 H 0.34534 0.68679 0.25499 0.0
H68 H 0.40847 0.77115 0.25621 0.0
C69 C 0.36374 0.73372 0.20546 0.0
C70 C 0.38535 0.75633 0.21893 0.0
C71 C 0.34863 0.70859 0.21824 0.0
C72 C 0.35674 0.7059 0.24481 0.0
C73 C 0.37869 0.72846 0.25845 0.0
C74 C 0.39217 0.75365 0.24551 0.0
N75 N 0.38583 0.72756 0.28558 0.0
C76 C 0.38917 0.70489 0.29953 0.0
H77 H 0.18477 0.35854 0.69465 0.0
H78 H 0.18015 0.41793 0.75101 0.0
H79 H 0.11012 0.33638 0.74746 0.0
C80 C 0.17281 0.36404 0.71017 0.0
C81 C 0.14557 0.34408 0.71919 0.0
C82 C 0.1852 0.39097 0.72079 0.0
C83 C 0.17096 0.39744 0.74249 0.0
C84 C 0.14392 0.37737 0.75235 0.0
C85 C 0.13147 0.35117 0.74034 0.0
N86 N 0.12709 0.38224 0.77338 0.0
C87 C 0.13473 0.40451 0.79071 0.0
Tb88 Tb 0.98181 0.03315 0.55867 0.0
Tb89 Tb 0.05007 0.06144 0.54026 0.0
C90 C 0.92844 0.99819 0.56579 0.0
C91 C 0.91125 0.98653 0.58886 0.0
C92 C 0.88355 0.96346 0.58651 0.0
C93 C 0.8668 0.9525 0.60837 0.0
C94 C 0.87746 0.96454 0.63295 0.0
C95 C 0.90542 0.98765 0.63513 0.0
C96 C 0.92222 0.99846 0.6133 0.0
C97 C 0.01321 0.07797 0.58751 0.0
C98 C 0.04139 0.02216 0.58775 0.0
C99 C 0.10195 0.09454 0.52624 0.0
C100 C 0.11215 0.11021 0.50243 0.0
C101 C 0.14252 0.12998 0.50209 0.0
C102 C 0.15315 0.14389 0.47913 0.0
C103 C 0.13353 0.13818 0.45611 0.0
C104 C 0.10275 0.11877 0.45674 0.0
C105 C 0.09214 0.10491 0.47972 0.0
C106 C 0.0185 0.01145 0.52093 0.0
C107 C 0.99166 0.07652 0.51282 0.0
O108 O 0.95389 0.99144 0.56254 0.0
O109 O 0.93304 0.02463 0.56164 0.0
O110 O 0.02208 0.06744 0.56904 0.0
O111 O 0.98455 0.06193 0.59118 0.0
O112 O 0.01074 0.01205 0.58044 0.0
O113 O 0.06066 0.04504 0.57753 0.0
O114 O 0.08206 0.1021 0.5393 0.0
O115 O 0.09371 0.06759 0.52415 0.0
O116 O 0.00693 0.03027 0.52546 0.0
O117 O 0.049 0.02132 0.5255 0.0
O118 O 0.02279 0.08171 0.51554 0.0
O119 O 0.97117 0.05676 0.52591 0.0
H120 H 0.87488 0.95392 0.56778 0.0
H121 H 0.84569 0.93442 0.60603 0.0
H122 H 0.91413 0.99766 0.65365 0.0
H123 H 0.94365 0.01628 0.61547 0.0
H124 H 0.15826 0.13426 0.51946 0.0
H125 H 0.1771 0.15847 0.47922 0.0
H126 H 0.08696 0.11416 0.43942 0.0
H127 H 0.06854 0.08972 0.47967 0.0
Tb128 Tb 0.54702 0.06208 0.05847 0.0
Tb129 Tb 0.47814 0.03481 0.04443 0.0
C130 C 0.60111 0.09666 0.0693 0.0
C131 C 0.61571 0.11576 0.09081 0.0
C132 C 0.64466 0.13684 0.08776 0.0
C133 C 0.65954 0.15453 0.10837 0.0
C134 C 0.6457 0.15136 0.13243 0.0
C135 C 0.61611 0.13065 0.13513 0.0
C136 C 0.60122 0.11299 0.11446 0.0
C137 C 0.52072 0.01374 0.08103 0.0
C138 C 0.49502 0.07655 0.08969 0.0
C139 C 0.42403 1.00013 0.0341 0.0
C140 C 0.40813 0.98406 1.01105 0.0
C141 C 0.38144 0.96042 1.01362 0.0
C142 C 0.36586 0.94516 0.99173 0.0
C143 C 0.37669 0.95348 0.96695 0.0
C144 C 0.40367 0.97708 0.96452 0.0
C145 C 0.41938 0.99218 0.98643 0.0
C146 C 0.5042 0.08286 0.02112 0.0
C147 C 0.53041 0.02029 1.01317 0.0
O148 O 0.57888 0.10249 0.05501 0.0
O149 O 0.59332 0.07024 0.07485 0.0
O150 O 0.50851 0.03253 0.07709 0.0
O151 O 0.54956 0.02238 0.07375 0.0
O152 O 0.52444 0.08475 0.08209 0.0
O153 O 0.47343 0.05381 0.08028 0.0
O154 O 0.44784 0.99349 0.04497 0.0
O155 O 0.43041 0.02698 0.03218 0.0
O156 O 0.51662 0.06432 0.02579 0.0
O157 O 0.475 0.07367 0.02747 0.0
O158 O 0.5007 0.01258 0.02018 0.0
O159 O 0.55236 0.04257 0.02311 0.0
H160 H 0.65597 0.13941 0.06952 0.0
H161 H 0.68204 0.17056 0.10553 0.0
H162 H 0.60495 0.12749 0.15345 0.0
H163 H 0.57873 0.09685 0.11708 0.0
H164 H 0.37256 0.95387 0.03253 0.0
H165 H 0.34502 0.92715 0.99413 0.0
H166 H 0.41278 0.98371 0.9457 0.0
H167 H 0.44021 0.01025 0.98416 0.0
Tb168 Tb 0.52217 0.57769 0.55903 0.0
Tb169 Tb 0.5091 0.5213 0.53725 0.0
C170 C 0.51766 0.62374 0.57058 0.0
C171 C 0.49522 0.63328 0.58402 0.0
C172 C 0.47626 0.61676 0.60277 0.0
C173 C 0.45313 0.62521 0.61374 0.0
C174 C 0.44863 0.65032 0.60606 0.0
C175 C 0.4683 0.6671 0.58774 0.0
C176 C 0.49133 0.6586 0.57679 0.0
C177 C 0.55014 0.54663 0.58573 0.0
C178 C 0.45923 0.5278 0.57406 0.0
C179 C 0.51431 0.4757 0.52487 0.0
C180 C 0.53881 0.46743 0.51288 0.0
C181 C 0.5709 0.48397 0.51552 0.0
C182 C 0.59394 0.47618 0.50377 0.0
C183 C 0.58545 0.45144 0.48942 0.0
C184 C 0.55321 0.4349 0.48684 0.0
C185 C 0.53009 0.4429 0.49842 0.0
C186 C 0.48107 0.55241 0.51072 0.0
C187 C 0.57192 0.5713 0.52232 0.0
O188 O 0.50641 0.61103 0.54858 0.0
O189 O 0.53434 0.61129 0.5847 0.0
O190 O 0.52251 0.53882 0.5749 0.0
O191 O 0.56265 0.57326 0.5828 0.0
O192 O 0.47506 0.55487 0.5738 0.0
O193 O 0.4694 0.5099 0.56224 0.0
O194 O 0.52207 0.48657 0.54805 0.0
O195 O 0.49979 0.48934 0.50993 0.0
O196 O 0.50878 0.56011 0.52139 0.0
O197 O 0.4685 0.52579 0.51367 0.0
O198 O 0.55694 0.54416 0.52376 0.0
O199 O 0.56071 0.58914 0.53303 0.0
H200 H 0.479 0.59714 0.60858 0.0
H201 H 0.43822 0.61175 0.62766 0.0
H202 H 0.46579 0.68677 0.58176 0.0
H203 H 0.50579 0.67159 0.56233 0.0
H204 H 0.57826 0.50291 0.52672 0.0
H205 H 0.61842 0.48969 0.50583 0.0
H206 H 0.54585 0.41554 0.47625 0.0
H207 H 0.50542 0.42984 0.49621 0.0
Tb208 Tb 0.01617 0.57437 0.03078 0.0
Tb209 Tb 0.01109 0.52465 0.06297 0.0
C210 C 0.00708 0.6128 1.00349 0.0
C211 C 0.98443 0.62803 1.00032 0.0
C212 C 0.95663 0.62043 1.01392 0.0
C213 C 0.93376 0.63338 1.00835 0.0
C214 C 0.93835 0.65387 0.98897 0.0
C215 C 0.96678 0.66198 0.9761 0.0
C216 C 0.9896 0.64915 0.98175 0.0
C217 C 0.06966 0.57551 0.05678 0.0
C218 C 0.98708 0.56932 0.08654 0.0
C219 C 0.01997 0.48582 0.08972 0.0
C220 C 0.04251 0.47038 0.09204 0.0
C221 C 0.07379 0.4822 0.08456 0.0
C222 C 0.09583 0.46834 0.08967 0.0
C223 C 0.08687 0.44243 0.10227 0.0
C224 C 0.05509 0.43021 0.10865 0.0
C225 C 0.03315 0.44412 0.10362 0.0
C226 C 0.95764 0.52368 0.0369 0.0
C227 C 0.04057 0.52985 1.00737 0.0
O228 O 0.99572 0.58657 0.99717 0.0
O229 O 0.02535 0.61709 0.02486 0.0
O230 O 0.04207 0.56638 0.06469 0.0
O231 O 0.06813 0.58611 0.03396 0.0
O232 O 0.98789 0.57991 0.06277 0.0
O233 O 0.9982 0.54869 0.09188 0.0
O234 O 0.03148 0.51198 0.09633 0.0
O235 O 1.00118 0.48179 0.06866 0.0
O236 O 0.98526 0.5326 0.02904 0.0
O237 O 0.95915 0.51326 0.0598 0.0
O238 O 0.03958 0.51916 0.03111 0.0
O239 O 0.02946 0.55046 1.00199 0.0
H240 H 0.95221 0.60397 0.02821 0.0
H241 H 0.912 0.62664 0.01846 0.0
H242 H 0.97116 0.67799 0.96137 0.0
H243 H 0.01095 0.65521 0.97108 0.0
H244 H 0.08142 0.5025 0.07555 0.0
H245 H 0.12015 0.47841 0.08468 0.0
H246 H 0.04728 0.41007 0.11792 0.0
H247 H 0.00903 0.43467 0.1094 0.0
C248 C 0.26894 0.21727 0.25639 0.0
C249 C 0.28975 0.2447 0.25817 0.0
C250 C 0.24721 0.2064 0.27529 0.0
C251 C 0.20999 0.22519 0.33135 0.0
H252 H 0.20441 0.15108 0.35453 0.0
C253 C 0.16436 0.17955 0.43043 0.0
C254 C 0.14581 0.15137 0.43133 0.0
C255 C 0.17791 0.19134 0.40751 0.0
C256 C 0.20528 0.17162 0.34805 0.0
H257 H 0.30341 0.28261 0.28056 0.0
H258 H 0.26585 0.26354 0.3139 0.0
H259 H 0.23503 0.17101 0.31755 0.0
H260 H 0.12639 0.11362 0.4087 0.0
H261 H 0.14976 0.13426 0.36867 0.0
H262 H 0.18088 0.22592 0.36254 0.0
C263 C 0.2659 0.2505 0.2977 0.0
C264 C 0.22281 0.18307 0.32678 0.0
C265 C 0.28749 0.26144 0.27864 0.0
C266 C 0.14035 0.13544 0.40861 0.0
C267 C 0.154 0.14719 0.38574 0.0
C268 C 0.19254 0.21375 0.35277 0.0
C269 C 0.24598 0.22265 0.29655 0.0
C270 C 0.22559 0.21007 0.31824 0.0
C271 C 0.17333 0.17515 0.38504 0.0
C272 C 0.1902 0.18691 0.36145 0.0
H273 H 0.26983 0.20405 0.24056 0.0
H274 H 0.23172 0.18508 0.27347 0.0
H275 H 0.21129 0.2459 0.32509 0.0
H276 H 0.16872 0.19242 0.44755 0.0
H277 H 0.19287 0.21289 0.40763 0.0
C278 C 0.27263 0.82786 0.76483 0.0
C279 C 0.23939 0.816 0.76143 0.0
C280 C 0.28666 0.84321 0.787 0.0
C281 C 0.27215 0.88328 0.83976 0.0
H282 H 0.3425 0.86633 0.87589 0.0
C283 C 0.35281 0.95162 0.92158 0.0
C284 C 0.35982 0.93768 0.94368 0.0
C285 C 0.337 0.93676 0.89958 0.0
C286 C 0.32278 0.87117 0.86608 0.0
H287 H 0.19484 0.81156 0.7785 0.0
H288 H 0.21946 0.83894 0.81708 0.0
H289 H 0.31687 0.84074 0.83667 0.0
H290 H 0.35597 0.89736 0.9601 0.0
H291 H 0.32844 0.87135 0.92153 0.0
H292 H 0.27819 0.9138 0.86919 0.0
C293 C 0.23455 0.83622 0.8025 0.0
C294 C 0.30831 0.85673 0.84354 0.0
C295 C 0.22048 0.82062 0.78039 0.0
C296 C 0.35068 0.9086 0.94338 0.0
C297 C 0.33516 0.89376 0.92128 0.0
C298 C 0.28686 0.89795 0.86218 0.0
C299 C 0.26779 0.84733 0.80616 0.0
C300 C 0.28289 0.86265 0.83014 0.0
C301 C 0.32819 0.9077 0.89916 0.0
C302 C 0.3123 0.89201 0.87556 0.0
H303 H 0.28788 0.82529 0.75032 0.0
H304 H 0.31233 0.85197 0.78913 0.0
H305 H 0.25269 0.88833 0.82973 0.0
H306 H 0.35935 0.97401 0.92138 0.0
H307 H 0.33213 0.94803 0.88272 0.0
C308 C 0.59313 0.40406 0.76869 0.0
C309 C 0.62325 0.41151 0.78173 0.0
C310 C 0.58721 0.41958 0.74756 0.0
C311 C 0.61497 0.48749 0.7148 0.0
H312 H 0.56805 0.44564 0.65496 0.0
C313 C 0.5912 0.54196 0.61946 0.0
C314 C 0.5613 0.53058 0.60624 0.0
C315 C 0.60072 0.5277 0.64018 0.0
C316 C 0.58082 0.45774 0.67156 0.0
H317 H 0.67083 0.44114 0.78341 0.0
H318 H 0.66041 0.46886 0.74642 0.0
H319 H 0.58063 0.42127 0.6929 0.0
H320 H 0.51808 0.49517 0.60421 0.0
H321 H 0.53424 0.47054 0.64046 0.0
H322 H 0.61455 0.52398 0.69369 0.0
C323 C 0.6413 0.451 0.75261 0.0
C324 C 0.58813 0.44371 0.69335 0.0
C325 C 0.6473 0.43522 0.77375 0.0
C326 C 0.54137 0.50441 0.61387 0.0
C327 C 0.55077 0.49023 0.63466 0.0
C328 C 0.60741 0.50157 0.69303 0.0
C329 C 0.6113 0.44301 0.73894 0.0
C330 C 0.60501 0.45835 0.71537 0.0
C331 C 0.5805 0.50173 0.64831 0.0
C332 C 0.58994 0.48689 0.67114 0.0
H333 H 0.57427 0.38573 0.77446 0.0
H334 H 0.56372 0.41307 0.73781 0.0
H335 H 0.6278 0.4994 0.73149 0.0
H336 H 0.60713 0.56207 0.61397 0.0
H337 H 0.62398 0.53708 0.64982 0.0
C338 C 0.88986 0.68685 0.25515 0.0
C339 C 0.89532 0.67909 0.28079 0.0
C340 C 0.89723 0.67355 0.23411 0.0
C341 C 0.94774 0.63077 0.2181 0.0
H342 H 0.90051 0.62249 0.1515 0.0
C343 C 0.97528 0.57077 0.13353 0.0
C344 C 0.97424 0.58102 0.10807 0.0
C345 C 0.96449 0.58204 0.15412 0.0
C346 C 0.91424 0.62488 0.16986 0.0
H347 H 0.91256 0.65107 0.30453 0.0
H348 H 0.92448 0.62713 0.26799 0.0
H349 H 0.88289 0.6419 0.18802 0.0
H350 H 0.96037 0.61132 0.08462 0.0
H351 H 0.94153 0.631 0.12053 0.0
H352 H 0.97903 0.6137 0.19998 0.0
C353 C 0.91491 0.6438 0.26391 0.0
C354 C 0.90409 0.63608 0.19096 0.0
C355 C 0.90762 0.65723 0.28496 0.0
C356 C 0.96158 0.60277 0.10386 0.0
C357 C 0.9506 0.61401 0.12453 0.0
C358 C 0.95779 0.61948 0.19706 0.0
C359 C 0.91045 0.65207 0.23807 0.0
C360 C 0.92066 0.63928 0.21552 0.0
C361 C 0.95211 0.60397 0.15009 0.0
C362 C 0.94126 0.61631 0.17253 0.0
H363 H 0.88106 0.70406 0.25136 0.0
H364 H 0.89376 0.681 0.21476 0.0
H365 H 0.96177 0.63335 0.23632 0.0
H366 H 0.98471 0.55403 0.13774 0.0
H367 H 0.96564 0.5733 0.17328 0.0
C368 C 0.3618 0.20242 0.20514 0.0
C369 C 0.37743 0.23061 0.21075 0.0
C370 C 0.37869 0.18577 0.19702 0.0
C371 C 0.45075 0.19059 0.16446 0.0
H372 H 0.42902 0.11304 0.1838 0.0
C373 C 0.50794 0.11831 0.11827 0.0
C374 C 0.48614 0.09305 0.10911 0.0
C375 C 0.49857 0.13494 0.13496 0.0
C376 C 0.43533 0.13466 0.17821 0.0
H377 H 0.42325 0.26318 0.21321 0.0
H378 H 0.4528 0.23404 0.1989 0.0
H379 H 0.40544 0.14279 0.20551 0.0
H380 H 0.4378 0.06492 0.11111 0.0
H381 H 0.42148 0.09396 0.13995 0.0
H382 H 0.47992 0.18231 0.13665 0.0
C383 C 0.42739 0.22494 0.2005 0.0
C384 C 0.42182 0.15168 0.19062 0.0
C385 C 0.41048 0.24162 0.20866 0.0
C386 C 0.45518 0.08429 0.11774 0.0
C387 C 0.44587 0.10085 0.13445 0.0
C388 C 0.46428 0.17358 0.15207 0.0
C389 C 0.4116 0.19691 0.19429 0.0
C390 C 0.42882 0.17967 0.18345 0.0
C391 C 0.46728 0.12657 0.1429 0.0
C392 C 0.45615 0.14529 0.15839 0.0
H393 H 0.33629 0.1934 0.20617 0.0
H394 H 0.36571 0.16439 0.19195 0.0
H395 H 0.45635 0.21198 0.15826 0.0
H396 H 0.53205 0.12559 0.1121 0.0
H397 H 0.5157 0.15452 0.14138 0.0
C398 C 0.10674 0.83225 0.68575 0.0
C399 C 0.13855 0.83341 0.68734 0.0
C400 C 0.09901 0.85637 0.68092 0.0
C401 C 0.13031 0.92397 0.64941 0.0
H402 H 0.05931 0.93786 0.67894 0.0
C403 C 0.08774 0.0135 0.61215 0.0
C404 C 0.05477 1.00595 0.60646 0.0
C405 C 0.10048 0.99613 0.62716 0.0
C406 C 0.07918 0.93425 0.6705 0.0
H407 H 0.18742 0.86005 0.68604 0.0
H408 H 0.17405 0.90248 0.67768 0.0
H409 H 0.0771 0.90009 0.69596 0.0
H410 H 0.00922 0.97497 0.61338 0.0
H411 H 0.0314 0.94468 0.63911 0.0
H412 H 0.13173 0.95735 0.62334 0.0
C413 C 0.15501 0.88305 0.67996 0.0
C414 C 0.08936 0.91263 0.68024 0.0
C415 C 0.16268 0.85891 0.68485 0.0
C416 C 0.03475 0.9814 0.61724 0.0
C417 C 0.04747 0.96408 0.63222 0.0
C418 C 0.1201 0.94552 0.63964 0.0
C419 C 0.12304 0.88197 0.67749 0.0
C420 C 0.11459 0.90688 0.66942 0.0
C421 C 0.08052 0.97089 0.63683 0.0
C422 C 0.09396 0.95053 0.64967 0.0
H423 H 0.08785 0.81261 0.6875 0.0
H424 H 0.07417 0.85476 0.6788 0.0
H425 H 0.14955 0.91987 0.6404 0.0
H426 H 0.10385 0.03235 0.60429 0.0
H427 H 0.12603 1.00217 0.6307 0.0
C428 C 0.7015 0.41358 0.91903 0.0
C429 C 0.70322 0.40783 0.89281 0.0
C430 C 0.72821 0.43036 0.93341 0.0
C431 C 0.80954 0.48089 0.93021 0.0
H432 H 0.82322 0.44842 0.99654 0.0
C433 C 0.92936 0.51852 0.99273 0.0
C434 C 0.92815 0.51641 0.01981 0.0
C435 C 0.9015 0.50844 0.97662 0.0
C436 C 0.81963 0.45818 0.97834 0.0
H437 H 0.73391 0.41667 0.86071 0.0
H438 H 0.78084 0.44626 0.88593 0.0
H439 H 0.7756 0.42602 0.96943 0.0
H440 H 0.89679 0.50377 0.05131 0.0
H441 H 0.84821 0.48704 0.02344 0.0
H442 H 0.8538 0.51313 0.93925 0.0
C443 C 0.75869 0.43771 0.89531 0.0
C444 C 0.79224 0.44522 0.9627 0.0
C445 C 0.73181 0.42082 0.88084 0.0
C446 C 0.89846 0.50536 0.03049 0.0
C447 C 0.87064 0.49556 0.01445 0.0
C448 C 0.837 0.49405 0.94601 0.0
C449 C 0.75744 0.4419 0.922 0.0
C450 C 0.78673 0.45638 0.93846 0.0
C451 C 0.87179 0.49623 0.98727 0.0
C452 C 0.84239 0.48287 0.97035 0.0
H453 H 0.67966 0.40426 0.92869 0.0
H454 H 0.72618 0.4337 0.95374 0.0
H455 H 0.80596 0.4901 0.91169 0.0
H456 H 0.95195 0.52696 0.98395 0.0
H457 H 0.90347 0.50922 0.95585 0.0
C458 C 0.78807 0.67353 0.37417 0.0
C459 C 0.81836 0.68438 0.38691 0.0
C460 C 0.76174 0.658 0.38794 0.0
C461 C 0.73584 0.64962 0.4555 0.0
H462 H 0.66428 0.58878 0.42754 0.0
C463 C 0.61745 0.61088 0.50627 0.0
C464 C 0.6008 0.58222 0.50701 0.0
C465 C 0.64389 0.62157 0.49132 0.0
C466 C 0.68417 0.60561 0.43576 0.0
H467 H 0.84513 0.68593 0.42359 0.0
H468 H 0.79986 0.65842 0.44729 0.0
H469 H 0.71051 0.60913 0.40173 0.0
H470 H 0.59926 0.54237 0.4922 0.0
H471 H 0.64564 0.561 0.4663 0.0
H472 H 0.70991 0.64612 0.4895 0.0
C473 C 0.79597 0.66241 0.42691 0.0
C474 C 0.7106 0.61749 0.42081 0.0
C475 C 0.82207 0.67794 0.41325 0.0
C476 C 0.6115 0.56453 0.49229 0.0
C477 C 0.63799 0.57526 0.4772 0.0
C478 C 0.7095 0.63787 0.47033 0.0
C479 C 0.76518 0.65298 0.41475 0.0
C480 C 0.73688 0.63969 0.43048 0.0
C481 C 0.65464 0.60398 0.47653 0.0
C482 C 0.68314 0.61576 0.4607 0.0
H483 H 0.78441 0.67843 0.35397 0.0
H484 H 0.73847 0.6512 0.37786 0.0
H485 H 0.75525 0.66693 0.46359 0.0
H486 H 0.60996 0.62527 0.51716 0.0
H487 H 0.65564 0.6438 0.49106 0.0
C488 C 0.28014 0.33928 0.19854 0.0
C489 C 0.30519 0.34052 0.18311 0.0
C490 C 0.2562 0.34971 0.18919 0.0
C491 C 0.23907 0.39743 0.14014 0.0
H492 H 0.15119 0.35674 0.15274 0.0
C493 C 0.13489 0.42924 0.09369 0.0
C494 C 0.11088 0.42892 0.11011 0.0
C495 C 0.15817 0.41749 0.10173 0.0
C496 C 0.17565 0.36845 0.14924 0.0
H497 H 0.32543 0.35315 0.14614 0.0
H498 H 0.28351 0.37128 0.12956 0.0
H499 H 0.19294 0.33847 0.1689 0.0
H500 H 0.09275 0.41624 0.14797 0.0
H501 H 0.13315 0.3957 0.16186 0.0
H502 H 0.22178 0.42746 0.12055 0.0
C503 C 0.28239 0.36269 0.14896 0.0
C504 C 0.19957 0.35802 0.15854 0.0
C505 C 0.30626 0.35226 0.15834 0.0
C506 C 0.11051 0.41636 0.13462 0.0
C507 C 0.13371 0.40461 0.14262 0.0
C508 C 0.21515 0.40785 0.13082 0.0
C509 C 0.25703 0.3615 0.16426 0.0
C510 C 0.23156 0.37245 0.15419 0.0
C511 C 0.15791 0.40518 0.12634 0.0
C512 C 0.18319 0.39355 0.13537 0.0
H513 H 0.27902 0.3302 0.21774 0.0
H514 H 0.23721 0.34878 0.20157 0.0
H515 H 0.26353 0.40925 0.13676 0.0
H516 H 0.13561 0.43846 0.07458 0.0
H517 H 0.17628 0.41793 0.08861 0.0
C518 C 0.64505 0.29825 0.90606 0.0
C519 C 0.62507 0.31176 0.89393 0.0
C520 C 0.63227 0.27322 0.91935 0.0
C521 C 0.56299 0.23314 0.95415 0.0
H522 H 0.58975 0.16988 0.94153 0.0
C523 C 0.5006 0.12622 0.99975 0.0
C524 C 0.51854 0.10884 1.00656 0.0
C525 C 0.51378 0.15073 0.98585 0.0
C526 C 0.58233 0.18741 0.94571 0.0
H527 H 0.57606 0.30973 0.8864 0.0
H528 H 0.55372 0.26624 0.91009 0.0
H529 H 0.61262 0.21303 0.91792 0.0
H530 H 0.56432 0.10337 1.00395 0.0
H531 H 0.58797 0.14675 0.9809 0.0
H532 H 0.53354 0.20819 0.98248 0.0
C533 C 0.57927 0.27495 0.90912 0.0
C534 C 0.59537 0.21213 0.93201 0.0
C535 C 0.59202 0.29971 0.89543 0.0
C536 C 0.54999 0.11648 0.99919 0.0
C537 C 0.5634 0.14126 0.98564 0.0
C538 C 0.55034 0.20861 0.96817 0.0
C539 C 0.59925 0.26141 0.92121 0.0
C540 C 0.58569 0.23521 0.93595 0.0
C541 C 0.54548 0.15879 0.9787 0.0
C542 C 0.55961 0.18524 0.96406 0.0
H543 H 0.6706 0.30696 0.90509 0.0
H544 H 0.64826 0.26335 0.92858 0.0
H545 H 0.5554 0.25071 0.95788 0.0
H546 H 0.47618 0.12077 1.00497 0.0
H547 H 0.49883 0.16315 0.98046 0.0
C548 C 0.87536 0.79356 0.4002 0.0
C549 C 0.89592 0.78078 0.39058 0.0
C550 C 0.88733 0.81885 0.41363 0.0
C551 C 0.96212 0.87919 0.42682 0.0
H552 H 0.91677 0.89301 0.48366 0.0
C553 C 0.02014 0.96866 0.49935 0.0
C554 C 1.00215 0.98495 0.50679 0.0
C555 C 0.006 0.9443 0.485 0.0
C556 C 0.92958 0.88963 0.46767 0.0
H557 H 0.94546 0.78482 0.38791 0.0
H558 H 0.96637 0.82843 0.41164 0.0
H559 H 0.89504 0.84981 0.45921 0.0
H560 H 0.95482 0.98797 0.50534 0.0
H561 H 0.92979 0.94493 0.48042 0.0
H562 H 0.99699 0.91875 0.43572 0.0
C563 C 0.94087 0.81934 0.40832 0.0
C564 C 0.91707 0.86479 0.45352 0.0
C565 C 0.92887 0.79417 0.39468 0.0
C566 C 0.96934 0.97588 0.49993 0.0
C567 C 0.95502 0.9512 0.4857 0.0
C568 C 0.97472 0.90385 0.4411 0.0
C569 C 0.92032 0.83214 0.41809 0.0
C570 C 0.93323 0.85903 0.43293 0.0
C571 C 0.97329 0.93525 0.47776 0.0
C572 C 0.95879 0.90939 0.46186 0.0
H573 H 0.84985 0.7841 0.39712 0.0
H574 H 0.87059 0.82809 0.42025 0.0
H575 H 0.97505 0.87609 0.41081 0.0
H576 H 0.04543 0.97489 0.5044 0.0
H577 H 0.02077 0.93242 0.47969 0.0
C578 C 0.25814 0.73103 0.71321 0.0
C579 C 0.24283 0.7457 0.69686 0.0
C580 C 0.27763 0.71776 0.70309 0.0
C581 C 0.32624 0.72264 0.64747 0.0
H582 H 0.33166 0.65189 0.67193 0.0
C583 C 0.40443 0.67032 0.59996 0.0
C584 C 0.42301 0.65878 0.61651 0.0
C585 C 0.38085 0.67901 0.60968 0.0
C586 C 0.33057 0.67178 0.66509 0.0
H587 H 0.23506 0.75706 0.65693 0.0
H588 H 0.26839 0.73337 0.63923 0.0
H589 H 0.29219 0.66973 0.68876 0.0
H590 H 0.4311 0.64696 0.65621 0.0
H591 H 0.38981 0.66227 0.67326 0.0
H592 H 0.3647 0.72493 0.62402 0.0
C593 C 0.26574 0.73249 0.65993 0.0
C594 C 0.30797 0.68196 0.67469 0.0
C595 C 0.2463 0.74576 0.67004 0.0
C596 C 0.41702 0.65559 0.64295 0.0
C597 C 0.39336 0.66432 0.6527 0.0
C598 C 0.34876 0.71249 0.6379 0.0
C599 C 0.28222 0.71891 0.6764 0.0
C600 C 0.30553 0.70749 0.66593 0.0
C601 C 0.37525 0.67638 0.63619 0.0
C602 C 0.35117 0.68693 0.64654 0.0
H603 H 0.25562 0.73033 0.73393 0.0
H604 H 0.29008 0.70755 0.7163 0.0
H605 H 0.3255 0.74267 0.64076 0.0
H606 H 0.40798 0.67249 0.5794 0.0
H607 H 0.36688 0.68772 0.59637 0.0
C608 C 0.71487 0.84761 0.81164 0.0
C609 C 0.73372 0.84645 0.83422 0.0
C610 C 0.72844 0.86335 0.79032 0.0
C611 C 0.80131 0.9182 0.76971 0.0
H612 H 0.77506 0.88305 0.7025 0.0
C613 C 0.87577 0.95167 0.68018 0.0
C614 C 0.85956 0.95304 0.65621 0.0
C615 C 0.859 0.94077 0.702 0.0
C616 C 0.78237 0.89332 0.72108 0.0
H617 H 0.7813 0.8622 0.85256 0.0
H618 H 0.8051 0.8889 0.81521 0.0
H619 H 0.74803 0.86089 0.7406 0.0
H620 H 0.81284 0.94448 0.63663 0.0
H621 H 0.7836 0.925 0.67466 0.0
H622 H 0.8363 0.95024 0.75013 0.0
C623 C 0.77977 0.87789 0.81399 0.0
C624 C 0.76681 0.88067 0.74294 0.0
C625 C 0.76619 0.86227 0.83532 0.0
C626 C 0.82612 0.94329 0.65465 0.0
C627 C 0.80934 0.93223 0.67645 0.0
C628 C 0.81701 0.93076 0.74785 0.0
C629 C 0.76119 0.87824 0.79104 0.0
C630 C 0.77629 0.8928 0.76758 0.0
C631 C 0.82561 0.93081 0.70035 0.0
C632 C 0.8079 0.91831 0.72335 0.0
H633 H 0.68983 0.83556 0.81006 0.0
H634 H 0.71331 0.86351 0.77312 0.0
H635 H 0.80889 0.92837 0.7883 0.0
H636 H 0.9015 0.95854 0.68202 0.0
H637 H 0.8722 0.93956 0.72006 0.0
C638 C 0.77689 0.27671 0.33208 0.0
C639 C 0.80886 0.27791 0.33429 0.0
C640 C 0.75767 0.26537 0.30987 0.0
C641 C 0.7532 0.21553 0.25854 0.0
H642 H 0.69224 0.24489 0.22247 0.0
C643 C 0.69586 0.1738 0.15946 0.0
C644 C 0.66301 0.16845 0.15501 0.0
C645 C 0.71215 0.18851 0.18132 0.0
C646 C 0.70894 0.23633 0.23255 0.0
H647 H 0.84648 0.27037 0.31438 0.0
H648 H 0.81325 0.25094 0.27572 0.0
H649 H 0.72369 0.26907 0.26075 0.0
H650 H 0.62165 0.17509 0.1697 0.0
H651 H 0.65023 0.20058 0.20829 0.0
H652 H 0.73873 0.18289 0.23064 0.0
C653 C 0.80268 0.25795 0.29131 0.0
C654 C 0.72691 0.25015 0.25441 0.0
C655 C 0.82173 0.26915 0.31339 0.0
C656 C 0.64692 0.17865 0.17273 0.0
C657 C 0.6633 0.19346 0.19467 0.0
C658 C 0.73533 0.20179 0.23685 0.0
C659 C 0.77024 0.25515 0.2896 0.0
C660 C 0.74964 0.24012 0.26731 0.0
C661 C 0.69602 0.19817 0.19936 0.0
C662 C 0.71341 0.21225 0.22332 0.0
H663 H 0.76643 0.28333 0.34797 0.0
H664 H 0.73274 0.26347 0.30906 0.0
H665 H 0.76989 0.20685 0.26849 0.0
H666 H 0.70895 0.16599 0.1464 0.0
H667 H 0.73746 0.19216 0.18418 0.0
C668 C 0.4284 0.69516 0.33034 0.0
C669 C 0.39766 0.68667 0.31838 0.0
C670 C 0.43635 0.67991 0.35089 0.0
C671 C 0.41249 0.61147 0.38347 0.0
H672 H 0.46158 0.65356 0.44241 0.0
C673 C 0.43938 0.55723 0.47778 0.0
C674 C 0.46959 0.56854 0.4905 0.0
C675 C 0.42937 0.57152 0.45733 0.0
C676 C 0.44823 0.6414 0.42604 0.0
H677 H 0.35106 0.65554 0.31804 0.0
H678 H 0.36498 0.62841 0.35395 0.0
H679 H 0.44695 0.67776 0.40517 0.0
H680 H 0.51287 0.6039 0.49197 0.0
H681 H 0.49583 0.62861 0.45615 0.0
H682 H 0.41421 0.57511 0.40413 0.0
C683 C 0.38307 0.64681 0.34737 0.0
C684 C 0.43977 0.65533 0.40463 0.0
C685 C 0.37506 0.66226 0.32683 0.0
C686 C 0.48936 0.5947 0.48267 0.0
C687 C 0.47947 0.60892 0.46213 0.0
C688 C 0.42117 0.5975 0.40484 0.0
C689 C 0.41369 0.65575 0.35998 0.0
C690 C 0.42195 0.6406 0.38298 0.0
C691 C 0.44941 0.59745 0.44898 0.0
C692 C 0.43932 0.61226 0.42642 0.0
H693 H 0.44614 0.71407 0.32423 0.0
H694 H 0.46026 0.6872 0.35982 0.0
H695 H 0.39901 0.59946 0.36705 0.0
H696 H 0.42354 0.53715 0.48344 0.0
H697 H 0.40587 0.56218 0.44811 0.0
C698 C 0.12204 0.4443 0.80872 0.0
C699 C 0.13328 0.42177 0.81252 0.0
C700 C 0.11482 0.4575 0.82996 0.0
C701 C 0.12391 0.46318 0.90305 0.0
H702 H 0.05025 0.48733 0.89359 0.0
C703 C 0.06579 0.49621 0.98996 0.0
C704 C 0.05365 0.51829 0.98588 0.0
C705 C 0.07693 0.4851 0.96929 0.0
C706 C 0.07114 0.48105 0.89664 0.0
H707 H 0.14576 0.39537 0.84151 0.0
H708 H 0.13326 0.41811 0.87846 0.0
H709 H 0.06776 0.46805 0.85716 0.0
H710 H 0.04432 0.54605 0.95643 0.0
H711 H 0.06371 0.52704 0.92092 0.0
H712 H 0.12691 0.47594 0.94272 0.0
C713 C 0.13056 0.42622 0.85925 0.0
C714 C 0.08132 0.46997 0.87555 0.0
C715 C 0.13783 0.41312 0.83801 0.0
C716 C 0.05332 0.52902 0.96054 0.0
C717 C 0.0643 0.51791 0.93996 0.0
C718 C 0.11363 0.4742 0.9242 0.0
C719 C 0.1183 0.44833 0.85563 0.0
C720 C 0.10795 0.46084 0.87828 0.0
C721 C 0.07611 0.49562 0.94385 0.0
C722 C 0.08709 0.48342 0.92137 0.0
H723 H 0.11778 0.45113 0.78926 0.0
H724 H 0.10602 0.47468 0.82614 0.0
H725 H 0.14472 0.45681 0.90611 0.0
H726 H 0.06645 0.48729 1.00911 0.0
H727 H 0.08556 0.46783 0.97319 0.0
C728 C 0.58925 0.83936 0.90144 0.0
C729 C 0.62098 0.84472 0.89588 0.0
C730 C 0.57894 0.86099 0.9088 0.0
C731 C 0.61058 0.92866 0.9406 0.0
H732 H 0.52689 0.93337 0.92224 0.0
C733 C 0.57008 0.01251 0.98486 0.0
C734 C 0.53938 1.00352 0.99403 0.0
C735 C 0.57963 0.99557 0.9687 0.0
C736 C 0.55028 0.93224 0.92764 0.0
H737 H 0.66678 0.87632 0.89259 0.0
H738 H 0.64881 0.91441 0.90525 0.0
H739 H 0.54446 0.89921 0.90088 0.0
H740 H 0.49416 0.97012 0.99255 0.0
H741 H 0.51102 0.94034 0.96477 0.0
H742 H 0.61619 0.96095 0.96788 0.0
C743 C 0.63188 0.89359 0.90417 0.0
C744 C 0.56035 0.91272 0.91538 0.0
C745 C 0.64212 0.87193 0.89678 0.0
C746 C 0.518 0.97767 0.98585 0.0
C747 C 0.52762 0.96064 0.96978 0.0
C748 C 0.60052 0.94807 0.95288 0.0
C749 C 0.60034 0.88826 0.91084 0.0
C750 C 0.59048 0.91051 0.92196 0.0
C751 C 0.55877 0.96917 0.96145 0.0
C752 C 0.57011 0.9499 0.94679 0.0
H753 H 0.57273 0.81833 0.90102 0.0
H754 H 0.55462 0.85614 0.91409 0.0
H755 H 0.6337 0.92716 0.94649 0.0
H756 H 0.58705 0.03244 0.99055 0.0
H757 H 0.60358 1.003 0.96223 0.0
C758 C 0.89504 0.24305 0.38661 0.0
C759 C 0.88227 0.25792 0.40282 0.0
C760 C 0.90804 0.22338 0.39694 0.0
C761 C 0.90538 0.17904 0.45478 0.0
H762 H 0.97884 0.16769 0.42712 0.0
C763 C 0.94656 0.08841 0.49002 0.0
C764 C 0.97941 0.09446 0.49529 0.0
C765 C 0.93486 0.10717 0.47621 0.0
C766 C 0.9584 0.17069 0.43516 0.0
H767 H 0.87406 0.26427 0.44273 0.0
H768 H 0.89781 0.23078 0.46083 0.0
H769 H 0.9599 0.20447 0.40945 0.0
H770 H 0.02583 0.12447 0.48915 0.0
H771 H 0.00542 0.15736 0.46562 0.0
H772 H 0.9045 0.14605 0.48113 0.0
C773 C 0.89707 0.23383 0.44004 0.0
C774 C 0.94734 0.19159 0.42485 0.0
C775 C 0.88388 0.25337 0.42969 0.0
C776 C 1.00036 0.11911 0.48543 0.0
C777 C 0.98865 0.13797 0.4718 0.0
C778 C 0.91652 0.15829 0.46517 0.0
C779 C 0.90878 0.21823 0.42375 0.0
C780 C 0.92076 0.19609 0.43462 0.0
C781 C 0.95573 0.13252 0.46754 0.0
C782 C 0.94321 0.15387 0.45554 0.0
H783 H 0.89462 0.24635 0.36585 0.0
H784 H 0.91666 0.21165 0.3838 0.0
H785 H 0.88452 0.18159 0.4625 0.0
H786 H 0.92976 0.06948 0.4971 0.0
H787 H 0.90939 0.10201 0.47274 0.0
C788 C 0.29324 0.67385 0.21487 0.0
C789 C 0.32259 0.6866 0.20389 0.0
C790 C 0.26694 0.6572 0.19969 0.0
C791 C 0.23608 0.65037 0.13176 0.0
H792 H 0.17261 0.58309 0.1542 0.0
C793 C 0.12891 0.59325 0.06311 0.0
C794 C 0.0992 0.58231 0.07378 0.0
C795 C 0.15681 0.60238 0.07916 0.0
C796 C 0.18993 0.60201 0.1477 0.0
H797 H 0.34791 0.68987 0.16894 0.0
H798 H 0.3022 0.66099 0.14258 0.0
H799 H 0.22012 0.60508 0.18238 0.0
H800 H 0.07541 0.57136 0.1096 0.0
H801 H 0.12393 0.58801 0.13772 0.0
H802 H 0.20583 0.64815 0.09761 0.0
C803 C 0.29928 0.6643 0.16275 0.0
C804 C 0.21723 0.61455 0.16386 0.0
C805 C 0.32551 0.6808 0.17789 0.0
C806 C 0.09802 0.57972 0.10083 0.0
C807 C 0.12592 0.58916 0.11695 0.0
C808 C 0.20878 0.63805 0.11576 0.0
C809 C 0.26942 0.65301 0.17321 0.0
C810 C 0.24067 0.63887 0.15604 0.0
C811 C 0.15571 0.60116 0.10636 0.0
C812 C 0.18525 0.61365 0.12342 0.0
H813 H 0.29006 0.67804 0.23476 0.0
H814 H 0.24426 0.64888 0.20835 0.0
H815 H 0.25328 0.66943 0.12534 0.0
H816 H 0.13056 0.59521 0.04231 0.0
H817 H 0.17925 0.61075 0.07018 0.0
C818 C 0.23948 0.4289 0.72212 0.0
C819 C 0.21243 0.41162 0.70794 0.0
C820 C 0.26666 0.44465 0.70933 0.0
C821 C 0.3099 0.44013 0.65434 0.0
H822 H 0.34667 0.52014 0.65143 0.0
C823 C 0.40727 0.49133 0.58327 0.0
C824 C 0.43054 0.51693 0.58951 0.0
C825 C 0.38107 0.48026 0.59847 0.0
C826 C 0.33724 0.49775 0.65231 0.0
H827 H 0.1921 0.39955 0.66896 0.0
H828 H 0.23942 0.42596 0.64715 0.0
H829 H 0.30141 0.49874 0.67796 0.0
H830 H 0.44442 0.55084 0.61695 0.0
H831 H 0.39969 0.53122 0.64403 0.0
H832 H 0.34575 0.43853 0.62968 0.0
C833 C 0.23977 0.42717 0.66806 0.0
C834 C 0.31113 0.48554 0.66753 0.0
C835 C 0.21268 0.41194 0.68067 0.0
C836 C 0.42677 0.53126 0.61133 0.0
C837 C 0.40087 0.51992 0.6269 0.0
C838 C 0.33628 0.45221 0.63962 0.0
C839 C 0.26732 0.44321 0.6822 0.0
C840 C 0.2969 0.45659 0.66835 0.0
C841 C 0.3776 0.49406 0.62088 0.0
C842 C 0.35015 0.48129 0.63785 0.0
H843 H 0.2402 0.42921 0.74308 0.0
H844 H 0.28761 0.45693 0.72069 0.0
H845 H 0.29954 0.41774 0.65475 0.0
H846 H 0.40922 0.47982 0.56647 0.0
H847 H 0.36348 0.4608 0.59242 0.0
C848 C 0.73 0.74809 0.90567 0.0
C849 C 0.74343 0.77667 0.90099 0.0
C850 C 0.74835 0.73329 0.91779 0.0
C851 C 0.82215 0.7418 0.9585 0.0
H852 H 0.81853 0.67243 0.92723 0.0
C853 C 0.89696 0.67482 0.99968 0.0
C854 C 0.91308 0.66587 0.98111 0.0
C855 C 0.8737 0.68673 0.9919 0.0
C856 C 0.81975 0.69175 0.9362 0.0
H857 H 0.78627 0.8123 0.90602 0.0
H858 H 0.81837 0.78643 0.92689 0.0
H859 H 0.78282 0.69684 0.91016 0.0
H860 H 0.91681 0.66148 0.93995 0.0
H861 H 0.87652 0.68235 0.92641 0.0
H862 H 0.85978 0.73709 0.98404 0.0
C863 C 0.79365 0.77547 0.92133 0.0
C864 C 0.79911 0.70559 0.92659 0.0
C865 C 0.77538 0.79022 0.90909 0.0
C866 C 0.90507 0.66852 0.95469 0.0
C867 C 0.88173 0.68018 0.94694 0.0
C868 C 0.84269 0.72787 0.96822 0.0
C869 C 0.78041 0.74681 0.92565 0.0
C870 C 0.80045 0.731 0.93734 0.0
C871 C 0.86591 0.68955 0.96543 0.0
C872 C 0.84209 0.70295 0.95685 0.0
H873 H 0.70548 0.73707 0.89952 0.0
H874 H 0.73744 0.71125 0.92102 0.0
H875 H 0.82348 0.76121 0.96736 0.0
H876 H 0.90274 0.67308 0.02017 0.0
H877 H 0.86175 0.69364 1.00656 0.0
C878 C 0.41625 0.78377 0.18285 0.0
C879 C 0.39986 0.78301 0.20526 0.0
C880 C 0.42938 0.80875 0.16959 0.0
C881 C 0.4496 0.88604 0.17626 0.0
H882 H 0.45621 0.88422 0.10197 0.0
C883 C 0.47961 0.98365 0.1095 0.0
C884 C 0.50583 0.9872 0.09451 0.0
C885 C 0.46635 0.95882 0.12301 0.0
C886 C 0.45456 0.885 0.12273 0.0
H887 H 0.38384 0.80759 0.23119 0.0
H888 H 0.4052 0.85092 0.20752 0.0
H889 H 0.43324 0.84105 0.12542 0.0
H890 H 0.5382 0.96745 0.08131 0.0
H891 H 0.51427 0.92367 0.10421 0.0
H892 H 0.46981 0.93031 0.17303 0.0
C893 C 0.40919 0.8326 0.20053 0.0
C894 C 0.44163 0.8602 0.13633 0.0
C895 C 0.3967 0.80769 0.2141 0.0
C896 C 0.51808 0.96528 0.09281 0.0
C897 C 0.50434 0.94024 0.10581 0.0
C898 C 0.46186 0.91086 0.16254 0.0
C899 C 0.42581 0.83359 0.17803 0.0
C900 C 0.43916 0.86023 0.16339 0.0
C901 C 0.47856 0.93686 0.12125 0.0
C902 C 0.46468 0.91057 0.13568 0.0
H903 H 0.41921 0.76503 0.17574 0.0
H904 H 0.44258 0.8085 0.15283 0.0
H905 H 0.44886 0.88719 0.19707 0.0
H906 H 0.4697 1.00022 0.11113 0.0
H907 H 0.44637 0.95668 0.13467 0.0
C908 C 0.11692 0.29189 0.71993 0.0
C909 C 0.13177 0.31625 0.70598 0.0
C910 C 0.10459 0.26602 0.70743 0.0
C911 C 0.08203 0.23373 0.64099 0.0
H912 H 0.0828 0.16695 0.67773 0.0
C913 C 0.05142 0.12705 0.58933 0.0
C914 C 0.03007 0.10433 0.60156 0.0
C915 C 0.06477 0.15263 0.60218 0.0
C916 C 0.08228 0.1854 0.66721 0.0
H917 H 0.14415 0.3319 0.66733 0.0
H918 H 0.12457 0.28723 0.6461 0.0
H919 H 0.10371 0.21165 0.69971 0.0
H920 H 0.00607 0.09058 0.63691 0.0
H921 H 0.02988 0.13486 0.65958 0.0
H922 H 0.06126 0.20734 0.60832 0.0
C923 C 0.1217 0.28795 0.66667 0.0
C924 C 0.09413 0.21115 0.67989 0.0
C925 C 0.13361 0.31378 0.67907 0.0
C926 C 0.02272 0.10763 0.62706 0.0
C927 C 0.03643 0.133 0.64007 0.0
C928 C 0.07064 0.20804 0.62823 0.0
C929 C 0.10691 0.26355 0.68056 0.0
C930 C 0.09414 0.23583 0.66705 0.0
C931 C 0.05736 0.15598 0.62772 0.0
C932 C 0.07049 0.18349 0.64117 0.0
H933 H 0.11513 0.29265 0.74066 0.0
H934 H 0.09299 0.248 0.71893 0.0
H935 H 0.08079 0.2519 0.6304 0.0
H936 H 0.05678 0.12545 0.56948 0.0
H937 H 0.08081 0.16985 0.59207 0.0
C938 C 0.80974 0.38528 0.43265 0.0
C939 C 0.8061 0.36745 0.4117 0.0
C940 C 0.78575 0.39613 0.43745 0.0
C941 C 0.69971 0.38237 0.42542 0.0
H942 H 0.72065 0.4566 0.45322 0.0
C943 C 0.60453 0.42998 0.45317 0.0
C944 C 0.61028 0.44281 0.47764 0.0
C945 C 0.62801 0.42191 0.44228 0.0
C946 C 0.71446 0.4358 0.44552 0.0
H947 H 0.77533 0.34688 0.37901 0.0
H948 H 0.73319 0.36623 0.38705 0.0
H949 H 0.76274 0.44104 0.43843 0.0
H950 H 0.64512 0.45659 0.51003 0.0
H951 H 0.68608 0.443 0.49085 0.0
H952 H 0.65137 0.37719 0.43276 0.0
C953 C 0.75438 0.37168 0.39999 0.0
C954 C 0.73855 0.42685 0.43709 0.0
C955 C 0.77847 0.36076 0.39525 0.0
C956 C 0.64005 0.44735 0.49092 0.0
C957 C 0.66355 0.43951 0.47996 0.0
C958 C 0.67555 0.39141 0.43371 0.0
C959 C 0.75767 0.38934 0.42129 0.0
C960 C 0.73158 0.39982 0.42749 0.0
C961 C 0.65781 0.42671 0.45554 0.0
C962 C 0.68281 0.41801 0.44437 0.0
H963 H 0.83089 0.39041 0.44566 0.0
H964 H 0.78887 0.40921 0.45429 0.0
H965 H 0.69353 0.36133 0.41838 0.0
H966 H 0.58203 0.4265 0.44224 0.0
H967 H 0.62303 0.41224 0.42334 0.0
loop_
_geom_bond_atom_site_label_1
_geom_bond_atom_site_label_2
_geom_bond_distance
_geom_bond_site_symmetry_2
_ccdc_geom_bond_type
H0 C3 0.929 . S
H1 C6 0.929 . S
H2 C8 0.930 . S
C3 H0 0.929 . S
C3 C4 1.398 . S
C3 C5 1.396 . S
C4 C3 1.398 . S
C4 C8 1.407 . S
C5 C3 1.396 . S
C5 C6 1.394 . S
C6 H1 0.929 . S
C6 C5 1.394 . S
C6 C7 1.382 . S
C7 C6 1.382 . S
C7 C8 1.392 . S
C7 N9 1.420 . S
C8 H2 0.930 . S
C8 C4 1.407 . S
C8 C7 1.392 . S
N9 C7 1.420 . S
N9 C10 1.244 . S
C10 N9 1.244 . S
H11 C14 0.929 . S
H12 C17 0.929 . S
H13 C19 0.930 . S
C14 H11 0.929 . S
C14 C15 1.398 . S
C14 C16 1.396 . S
C15 C14 1.398 . S
C15 C19 1.407 . S
C16 C14 1.396 . S
C16 C17 1.394 . S
C17 H12 0.929 . S
C17 C16 1.394 . S
C17 C18 1.382 . S
C18 C17 1.382 . S
C18 C19 1.392 . S
C18 N20 1.420 . S
C19 H13 0.930 . S
C19 C15 1.407 . S
C19 C18 1.392 . S
N20 C18 1.420 . S
N20 C21 1.244 . S
C21 N20 1.244 . S
H22 C25 0.929 . S
H23 C28 0.929 . S
H24 C30 0.930 . S
C25 H22 0.929 . S
C25 C26 1.398 . S
C25 C27 1.396 . S
C26 C25 1.398 . S
C26 C30 1.407 . S
C27 C25 1.396 . S
C27 C28 1.394 . S
C28 H23 0.929 . S
C28 C27 1.394 . S
C28 C29 1.382 . S
C29 C28 1.382 . S
C29 C30 1.392 . S
C29 N31 1.420 . S
C30 H24 0.930 . S
C30 C26 1.407 . S
C30 C29 1.392 . S
N31 C29 1.420 . S
N31 C32 1.244 . S
C32 N31 1.244 . S
H33 C36 0.929 . S
H34 C39 0.929 . S
H35 C41 0.930 . S
C36 H33 0.929 . S
C36 C37 1.398 . S
C36 C38 1.396 . S
C37 C36 1.398 . S
C37 C41 1.407 . S
C38 C36 1.396 . S
C38 C39 1.394 . S
C39 H34 0.929 . S
C39 C38 1.394 . S
C39 C40 1.382 . S
C40 C39 1.382 . S
C40 C41 1.392 . S
C40 N42 1.420 . S
C41 H35 0.930 . S
C41 C37 1.407 . S
C41 C40 1.392 . S
N42 C40 1.420 . S
N42 C43 1.244 . S
C43 N42 1.244 . S
H44 C47 0.929 . S
H45 C50 0.929 . S
H46 C52 0.930 . S
C47 H44 0.929 . S
C47 C48 1.398 . S
C47 C49 1.396 . S
C48 C47 1.398 . S
C48 C52 1.407 . S
C49 C47 1.396 . S
C49 C50 1.394 . S
C50 H45 0.929 . S
C50 C49 1.394 . S
C50 C51 1.382 . S
C51 C50 1.382 . S
C51 C52 1.392 . S
C51 N53 1.420 . S
C52 H46 0.930 . S
C52 C48 1.407 . S
C52 C51 1.392 . S
N53 C51 1.420 . S
N53 C54 1.244 . S
C54 N53 1.244 . S
H55 C58 0.929 . S
H56 C61 0.929 . S
H57 C63 0.930 . S
C58 H55 0.929 . S
C58 C59 1.398 . S
C58 C60 1.396 . S
C59 C58 1.398 . S
C59 C63 1.407 . S
C60 C58 1.396 . S
C60 C61 1.394 . S
C61 H56 0.929 . S
C61 C60 1.394 . S
C61 C62 1.382 . S
C62 C61 1.382 . S
C62 C63 1.392 . S
C62 N64 1.420 . S
C63 H57 0.930 . S
C63 C59 1.407 . S
C63 C62 1.392 . S
N64 C62 1.420 . S
N64 C65 1.244 . S
C65 N64 1.244 . S
H66 C69 0.929 . S
H67 C72 0.929 . S
H68 C74 0.930 . S
C69 H66 0.929 . S
C69 C70 1.398 . S
C69 C71 1.396 . S
C70 C69 1.398 . S
C70 C74 1.407 . S
C71 C69 1.396 . S
C71 C72 1.394 . S
C72 H67 0.929 . S
C72 C71 1.394 . S
C72 C73 1.382 . S
C73 C72 1.382 . S
C73 C74 1.392 . S
C73 N75 1.420 . S
C74 H68 0.930 . S
C74 C70 1.407 . S
C74 C73 1.392 . S
N75 C73 1.420 . S
N75 C76 1.244 . S
C76 N75 1.244 . S
H77 C80 0.929 . S
H78 C83 0.929 . S
H79 C85 0.930 . S
C80 H77 0.929 . S
C80 C81 1.398 . S
C80 C82 1.396 . S
C81 C80 1.398 . S
C81 C85 1.407 . S
C82 C80 1.396 . S
C82 C83 1.394 . S
C83 H78 0.929 . S
C83 C82 1.394 . S
C83 C84 1.382 . S
C84 C83 1.382 . S
C84 C85 1.392 . S
C84 N86 1.420 . S
C85 H79 0.930 . S
C85 C81 1.407 . S
C85 C84 1.392 . S
N86 C84 1.420 . S
N86 C87 1.244 . S
C87 N86 1.244 . S
Tb88 C90 2.809 1_545 S
Tb88 O108 2.484 1_545 S
Tb88 O109 2.440 . S
Tb88 O110 2.658 1_655 S
Tb88 O111 2.409 1_655 S
Tb88 O112 2.378 1_655 S
Tb88 O116 2.325 1_545 S
Tb88 O119 2.341 . S
Tb89 C99 2.809 . S
Tb89 O110 2.325 . S
Tb89 O113 2.341 . S
Tb89 O114 2.484 . S
Tb89 O115 2.440 . S
Tb89 O116 2.658 1_445 S
Tb89 O117 2.409 1_545 S
Tb89 O118 2.378 . S
C90 Tb88 2.809 1_565 S
C90 C91 1.514 . S
C90 O108 1.248 . S
C90 O109 1.266 1_565 S
C91 C90 1.514 . S
C91 C92 1.359 . S
C91 C96 1.348 . S
C92 C91 1.359 . S
C92 C93 1.380 . S
C92 H120 0.929 . S
C93 C92 1.380 . S
C93 C94 1.347 . S
C93 H121 0.931 . S
C94 C93 1.347 . S
C94 C95 1.369 . S
C95 C94 1.369 . S
C95 C96 1.408 . S
C95 H122 0.930 . S
C96 C91 1.348 . S
C96 C95 1.408 . S
C96 H123 0.930 . S
C97 O110 1.281 . S
C97 O111 1.254 . S
C98 O112 1.236 1_565 S
C98 O113 1.266 1_565 S
C99 Tb89 2.809 . S
C99 C100 1.514 . S
C99 O114 1.248 . S
C99 O115 1.266 . S
C100 C99 1.514 . S
C100 C101 1.359 . S
C100 C105 1.348 . S
C101 C100 1.359 . S
C101 C102 1.380 . S
C101 H124 0.929 . S
C102 C101 1.380 . S
C102 C103 1.347 . S
C102 H125 0.931 . S
C103 C102 1.347 . S
C103 C104 1.369 . S
C104 C103 1.369 . S
C104 C105 1.408 . S
C104 H126 0.930 . S
C105 C100 1.348 . S
C105 C104 1.408 . S
C105 H127 0.930 . S
C106 O116 1.281 . S
C106 O117 1.254 1_655 S
C107 O118 1.236 1_655 S
C107 O119 1.266 . S
O108 Tb88 2.484 1_565 S
O108 C90 1.248 . S
O109 Tb88 2.440 . S
O109 C90 1.266 1_545 S
O110 Tb88 2.658 1_455 S
O110 Tb89 2.325 . S
O110 C97 1.281 . S
O111 Tb88 2.409 1_455 S
O111 C97 1.254 . S
O112 Tb88 2.378 1_455 S
O112 C98 1.236 1_545 S
O113 Tb89 2.341 . S
O113 C98 1.266 1_545 S
O114 Tb89 2.484 . S
O114 C99 1.248 . S
O115 Tb89 2.440 . S
O115 C99 1.266 . S
O116 Tb88 2.325 1_565 S
O116 Tb89 2.658 1_665 S
O116 C106 1.281 . S
O117 Tb89 2.409 1_565 S
O117 C106 1.254 1_455 S
O118 Tb89 2.378 . S
O118 C107 1.236 1_455 S
O119 Tb88 2.341 . S
O119 C107 1.266 . S
H120 C92 0.929 . S
H121 C93 0.931 . S
H122 C95 0.930 . S
H123 C96 0.930 . S
H124 C101 0.929 . S
H125 C102 0.931 . S
H126 C104 0.930 . S
H127 C105 0.930 . S
Tb128 C130 2.809 . S
Tb128 O148 2.484 . S
Tb128 O149 2.440 . S
Tb128 O150 2.658 1_545 S
Tb128 O151 2.409 1_545 S
Tb128 O152 2.378 . S
Tb128 O156 2.325 . S
Tb128 O159 2.341 . S
Tb129 C139 2.809 1_544 S
Tb129 O150 2.325 1_545 S
Tb129 O153 2.341 . S
Tb129 O154 2.484 1_545 S
Tb129 O155 2.443 1_554 S
Tb129 O156 2.658 . S
Tb129 O157 2.409 . S
Tb129 O158 2.378 . S
C130 Tb128 2.809 . S
C130 C131 1.514 . S
C130 O148 1.248 . S
C130 O149 1.266 . S
C131 C130 1.514 . S
C131 C132 1.359 . S
C131 C136 1.348 . S
C132 C131 1.359 . S
C132 C133 1.380 . S
C132 H160 0.929 . S
C133 C132 1.380 . S
C133 C134 1.347 . S
C133 H161 0.931 . S
C134 C133 1.347 . S
C134 C135 1.369 . S
C135 C134 1.369 . S
C135 C136 1.408 . S
C135 H162 0.930 . S
C136 C131 1.348 . S
C136 C135 1.408 . S
C136 H163 0.930 . S
C137 O150 1.281 . S
C137 O151 1.254 . S
C138 O152 1.236 . S
C138 O153 1.266 . S
C139 Tb129 2.809 1_566 S
C139 C140 1.514 . S
C139 O154 1.248 1_556 S
C139 O155 1.254 1_565 S
C140 C139 1.514 . S
C140 C141 1.359 . S
C140 C145 1.348 . S
C141 C140 1.359 . S
C141 C142 1.380 . S
C141 H164 0.929 . S
C142 C141 1.380 . S
C142 C143 1.347 . S
C142 H165 0.931 . S
C143 C142 1.347 . S
C143 C144 1.369 . S
C144 C143 1.369 . S
C144 C145 1.408 . S
C144 H166 0.930 . S
C145 C140 1.348 . S
C145 C144 1.408 . S
C145 H167 0.930 . S
C146 O156 1.281 . S
C146 O157 1.253 . S
C147 O158 1.236 1_565 S
C147 O159 1.266 1_565 S
O148 Tb128 2.484 . S
O148 C130 1.248 . S
O149 Tb128 2.440 . S
O149 C130 1.266 . S
O150 Tb128 2.658 1_565 S
O150 Tb129 2.325 1_565 S
O150 C137 1.281 . S
O151 Tb128 2.409 1_565 S
O151 C137 1.254 . S
O152 Tb128 2.378 . S
O152 C138 1.236 . S
O153 Tb129 2.341 . S
O153 C138 1.266 . S
O154 Tb129 2.484 1_565 S
O154 C139 1.248 1_554 S
O155 Tb129 2.443 1_556 S
O155 C139 1.254 1_545 S
O156 Tb128 2.325 . S
O156 Tb129 2.658 . S
O156 C146 1.281 . S
O157 Tb129 2.409 . S
O157 C146 1.253 . S
O158 Tb129 2.378 . S
O158 C147 1.236 1_545 S
O159 Tb128 2.341 . S
O159 C147 1.266 1_545 S
H160 C132 0.929 . S
H161 C133 0.931 . S
H162 C135 0.930 . S
H163 C136 0.930 . S
H164 C141 0.929 . S
H165 C142 0.931 . S
H166 C144 0.930 . S
H167 C145 0.930 . S
Tb168 C170 2.809 . S
Tb168 O188 2.484 . S
Tb168 O189 2.440 . S
Tb168 O190 2.658 . S
Tb168 O191 2.409 . S
Tb168 O192 2.378 . S
Tb168 O196 2.325 . S
Tb168 O199 2.341 . S
Tb169 C179 2.809 . S
Tb169 O190 2.325 . S
Tb169 O193 2.341 . S
Tb169 O194 2.484 . S
Tb169 O195 2.440 . S
Tb169 O196 2.658 . S
Tb169 O197 2.409 . S
Tb169 O198 2.378 . S
C170 Tb168 2.809 . S
C170 C171 1.514 . S
C170 O188 1.248 . S
C170 O189 1.266 . S
C171 C170 1.514 . S
C171 C172 1.359 . S
C171 C176 1.348 . S
C172 C171 1.359 . S
C172 C173 1.380 . S
C172 H200 0.929 . S
C173 C172 1.380 . S
C173 C174 1.347 . S
C173 H201 0.931 . S
C174 C173 1.347 . S
C174 C175 1.369 . S
C175 C174 1.369 . S
C175 C176 1.408 . S
C175 H202 0.930 . S
C176 C171 1.348 . S
C176 C175 1.408 . S
C176 H203 0.930 . S
C177 O190 1.281 . S
C177 O191 1.254 . S
C178 O192 1.236 . S
C178 O193 1.266 . S
C179 Tb169 2.809 . S
C179 C180 1.514 . S
C179 O194 1.248 . S
C179 O195 1.266 . S
C180 C179 1.514 . S
C180 C181 1.359 . S
C180 C185 1.348 . S
C181 C180 1.359 . S
C181 C182 1.380 . S
C181 H204 0.929 . S
C182 C181 1.380 . S
C182 C183 1.347 . S
C182 H205 0.931 . S
C183 C182 1.347 . S
C183 C184 1.369 . S
C184 C183 1.369 . S
C184 C185 1.408 . S
C184 H206 0.930 . S
C185 C180 1.348 . S
C185 C184 1.408 . S
C185 H207 0.930 . S
C186 O196 1.281 . S
C186 O197 1.254 . S
C187 O198 1.236 . S
C187 O199 1.266 . S
O188 Tb168 2.484 . S
O188 C170 1.248 . S
O189 Tb168 2.440 . S
O189 C170 1.266 . S
O190 Tb168 2.658 . S
O190 Tb169 2.325 . S
O190 C177 1.281 . S
O191 Tb168 2.409 . S
O191 C177 1.254 . S
O192 Tb168 2.378 . S
O192 C178 1.236 . S
O193 Tb169 2.341 . S
O193 C178 1.266 . S
O194 Tb169 2.484 . S
O194 C179 1.248 . S
O195 Tb169 2.440 . S
O195 C179 1.266 . S
O196 Tb168 2.325 . S
O196 Tb169 2.658 . S
O196 C186 1.281 . S
O197 Tb169 2.409 . S
O197 C186 1.254 . S
O198 Tb169 2.378 . S
O198 C187 1.236 . S
O199 Tb168 2.341 . S
O199 C187 1.266 . S
H200 C172 0.929 . S
H201 C173 0.931 . S
H202 C175 0.930 . S
H203 C176 0.930 . S
H204 C181 0.929 . S
H205 C182 0.931 . S
H206 C184 0.930 . S
H207 C185 0.930 . S
Tb208 C210 2.809 1_455 S
Tb208 O228 2.484 1_455 S
Tb208 O229 2.440 . S
Tb208 O230 2.658 1_556 S
Tb208 O231 2.409 1_556 S
Tb208 O232 2.378 1_556 S
Tb208 O236 2.325 1_455 S
Tb208 O239 2.341 . S
Tb209 C219 2.809 . S
Tb209 O230 2.325 . S
Tb209 O233 2.359 . S
Tb209 O234 2.484 . S
Tb209 O235 2.440 . S
Tb209 O236 2.658 1_454 S
Tb209 O237 2.409 1_455 S
Tb209 O238 2.378 1_554 S
C210 Tb208 2.809 1_655 S
C210 C211 1.514 . S
C210 O228 1.248 . S
C210 O229 1.266 1_655 S
C211 C210 1.514 . S
C211 C212 1.359 . S
C211 C216 1.348 . S
C212 C211 1.359 . S
C212 C213 1.380 . S
C212 H240 0.929 . S
C213 C212 1.380 . S
C213 C214 1.347 . S
C213 H241 0.931 . S
C214 C213 1.347 . S
C214 C215 1.369 . S
C215 C214 1.369 . S
C215 C216 1.408 . S
C215 H242 0.930 . S
C216 C211 1.348 . S
C216 C215 1.408 . S
C216 H243 0.930 1_655 S
C217 O230 1.281 . S
C217 O231 1.254 . S
C218 O232 1.236 1_655 S
C218 O233 1.256 1_655 S
C219 Tb209 2.809 . S
C219 C220 1.514 . S
C219 O234 1.248 . S
C219 O235 1.266 . S
C220 C219 1.514 . S
C220 C221 1.359 . S
C220 C225 1.348 . S
C221 C220 1.359 . S
C221 C222 1.380 . S
C221 H244 0.929 . S
C222 C221 1.380 . S
C222 C223 1.347 . S
C222 H245 0.931 . S
C223 C222 1.347 . S
C223 C224 1.369 . S
C224 C223 1.369 . S
C224 C225 1.408 . S
C224 H246 0.930 . S
C225 C220 1.348 . S
C225 C224 1.408 . S
C225 H247 0.930 . S
C226 O236 1.281 . S
C226 O237 1.254 1_556 S
C227 O238 1.236 . S
C227 O239 1.266 . S
O228 Tb208 2.484 1_655 S
O228 C210 1.248 . S
O229 Tb208 2.440 . S
O229 C210 1.266 1_455 S
O230 Tb208 2.658 1_554 S
O230 Tb209 2.325 . S
O230 C217 1.281 . S
O231 Tb208 2.409 1_554 S
O231 C217 1.254 . S
O232 Tb208 2.378 1_554 S
O232 C218 1.236 1_455 S
O233 Tb209 2.359 . S
O233 C218 1.256 1_455 S
O234 Tb209 2.484 . S
O234 C219 1.248 . S
O235 Tb209 2.440 . S
O235 C219 1.266 . S
O236 Tb208 2.325 1_655 S
O236 Tb209 2.658 1_656 S
O236 C226 1.281 . S
O237 Tb209 2.409 1_655 S
O237 C226 1.254 1_554 S
O238 Tb209 2.378 1_556 S
O238 C227 1.236 . S
O239 Tb208 2.341 . S
O239 C227 1.266 . S
H240 C212 0.929 . S
H241 C213 0.931 . S
H242 C215 0.930 . S
H243 C216 0.930 1_455 S
H244 C221 0.929 . S
H245 C222 0.931 . S
H246 C224 0.930 . S
H247 C225 0.930 . S
C248 C249 1.349 . S
C248 C250 1.327 . S
C248 H273 0.950 . S
C249 C248 1.349 . S
C249 C265 1.349 . S
C250 C248 1.327 . S
C250 C269 1.429 . S
C250 H274 0.950 . S
C251 C268 1.574 . S
C251 C270 1.368 . S
C251 H275 0.949 . S
H252 C256 0.949 . S
C253 C254 1.349 . S
C253 C255 1.327 . S
C253 H276 0.950 . S
C254 C253 1.349 . S
C254 C266 1.349 . S
C255 C253 1.327 . S
C255 C271 1.429 . S
C255 H277 0.950 . S
C256 H252 0.949 . S
C256 C264 1.574 . S
C256 C272 1.368 . S
H257 C265 0.950 . S
H258 C263 0.950 . S
H259 C264 0.949 . S
H260 C266 0.950 . S
H261 C267 0.950 . S
H262 C268 0.949 . S
C263 H258 0.950 . S
C263 C265 1.327 . S
C263 C269 1.429 . S
C264 C256 1.574 . S
C264 H259 0.949 . S
C264 C270 1.368 . S
C265 C249 1.349 . S
C265 H257 0.950 . S
C265 C263 1.327 . S
C266 C254 1.349 . S
C266 H260 0.950 . S
C266 C267 1.327 . S
C267 H261 0.950 . S
C267 C266 1.327 . S
C267 C271 1.429 . S
C268 C251 1.574 . S
C268 H262 0.949 . S
C268 C272 1.368 . S
C269 C250 1.429 . S
C269 C263 1.429 . S
C269 C270 1.523 . S
C270 C251 1.368 . S
C270 C264 1.368 . S
C270 C269 1.523 . S
C271 C255 1.429 . S
C271 C267 1.429 . S
C271 C272 1.523 . S
C272 C256 1.368 . S
C272 C268 1.368 . S
C272 C271 1.523 . S
H273 C248 0.950 . S
H274 C250 0.950 . S
H275 C251 0.949 . S
H276 C253 0.950 . S
H277 C255 0.950 . S
C278 C279 1.349 . S
C278 C280 1.327 . S
C278 H303 0.950 . S
C279 C278 1.349 . S
C279 C295 1.349 . S
C280 C278 1.327 . S
C280 C299 1.429 . S
C280 H304 0.950 . S
C281 C298 1.574 . S
C281 C300 1.368 . S
C281 H305 0.949 . S
H282 C286 0.949 . S
C283 C284 1.349 . S
C283 C285 1.327 . S
C283 H306 0.950 . S
C284 C283 1.349 . S
C284 C296 1.349 . S
C285 C283 1.327 . S
C285 C301 1.429 . S
C285 H307 0.950 . S
C286 H282 0.949 . S
C286 C294 1.574 . S
C286 C302 1.368 . S
H287 C295 0.950 . S
H288 C293 0.950 . S
H289 C294 0.949 . S
H290 C296 0.950 . S
H291 C297 0.950 . S
H292 C298 0.949 . S
C293 H288 0.950 . S
C293 C295 1.327 . S
C293 C299 1.429 . S
C294 C286 1.574 . S
C294 H289 0.949 . S
C294 C300 1.368 . S
C295 C279 1.349 . S
C295 H287 0.950 . S
C295 C293 1.327 . S
C296 C284 1.349 . S
C296 H290 0.950 . S
C296 C297 1.327 . S
C297 H291 0.950 . S
C297 C296 1.327 . S
C297 C301 1.429 . S
C298 C281 1.574 . S
C298 H292 0.949 . S
C298 C302 1.368 . S
C299 C280 1.429 . S
C299 C293 1.429 . S
C299 C300 1.523 . S
C300 C281 1.368 . S
C300 C294 1.368 . S
C300 C299 1.523 . S
C301 C285 1.429 . S
C301 C297 1.429 . S
C301 C302 1.523 . S
C302 C286 1.368 . S
C302 C298 1.368 . S
C302 C301 1.523 . S
H303 C278 0.950 . S
H304 C280 0.950 . S
H305 C281 0.949 . S
H306 C283 0.950 . S
H307 C285 0.950 . S
C308 C309 1.349 . S
C308 C310 1.327 . S
C308 H333 0.950 . S
C309 C308 1.349 . S
C309 C325 1.349 . S
C310 C308 1.327 . S
C310 C329 1.429 . S
C310 H334 0.950 . S
C311 C328 1.574 . S
C311 C330 1.368 . S
C311 H335 0.949 . S
H312 C316 0.949 . S
C313 C314 1.349 . S
C313 C315 1.327 . S
C313 H336 0.950 . S
C314 C313 1.349 . S
C314 C326 1.349 . S
C315 C313 1.327 . S
C315 C331 1.429 . S
C315 H337 0.950 . S
C316 H312 0.949 . S
C316 C324 1.574 . S
C316 C332 1.368 . S
H317 C325 0.950 . S
H318 C323 0.950 . S
H319 C324 0.949 . S
H320 C326 0.950 . S
H321 C327 0.950 . S
H322 C328 0.949 . S
C323 H318 0.950 . S
C323 C325 1.327 . S
C323 C329 1.429 . S
C324 C316 1.574 . S
C324 H319 0.949 . S
C324 C330 1.368 . S
C325 C309 1.349 . S
C325 H317 0.950 . S
C325 C323 1.327 . S
C326 C314 1.349 . S
C326 H320 0.950 . S
C326 C327 1.327 . S
C327 H321 0.950 . S
C327 C326 1.327 . S
C327 C331 1.429 . S
C328 C311 1.574 . S
C328 H322 0.949 . S
C328 C332 1.368 . S
C329 C310 1.429 . S
C329 C323 1.429 . S
C329 C330 1.523 . S
C330 C311 1.368 . S
C330 C324 1.368 . S
C330 C329 1.523 . S
C331 C315 1.429 . S
C331 C327 1.429 . S
C331 C332 1.523 . S
C332 C316 1.368 . S
C332 C328 1.368 . S
C332 C331 1.523 . S
H333 C308 0.950 . S
H334 C310 0.950 . S
H335 C311 0.949 . S
H336 C313 0.950 . S
H337 C315 0.950 . S
C338 C339 1.349 . S
C338 C340 1.327 . S
C338 H363 0.950 . S
C339 C338 1.349 . S
C339 C355 1.349 . S
C340 C338 1.327 . S
C340 C359 1.429 . S
C340 H364 0.950 . S
C341 C358 1.574 . S
C341 C360 1.368 . S
C341 H365 0.949 . S
H342 C346 0.949 . S
C343 C344 1.349 . S
C343 C345 1.327 . S
C343 H366 0.950 . S
C344 C343 1.349 . S
C344 C356 1.349 . S
C345 C343 1.327 . S
C345 C361 1.429 . S
C345 H367 0.950 . S
C346 H342 0.949 . S
C346 C354 1.574 . S
C346 C362 1.368 . S
H347 C355 0.950 . S
H348 C353 0.950 . S
H349 C354 0.949 . S
H350 C356 0.950 . S
H351 C357 0.950 . S
H352 C358 0.949 . S
C353 H348 0.950 . S
C353 C355 1.327 . S
C353 C359 1.429 . S
C354 C346 1.574 . S
C354 H349 0.949 . S
C354 C360 1.368 . S
C355 C339 1.349 . S
C355 H347 0.950 . S
C355 C353 1.327 . S
C356 C344 1.349 . S
C356 H350 0.950 . S
C356 C357 1.327 . S
C357 H351 0.950 . S
C357 C356 1.327 . S
C357 C361 1.429 . S
C358 C341 1.574 . S
C358 H352 0.949 . S
C358 C362 1.368 . S
C359 C340 1.429 . S
C359 C353 1.429 . S
C359 C360 1.523 . S
C360 C341 1.368 . S
C360 C354 1.368 . S
C360 C359 1.523 . S
C361 C345 1.429 . S
C361 C357 1.429 . S
C361 C362 1.523 . S
C362 C346 1.368 . S
C362 C358 1.368 . S
C362 C361 1.523 . S
H363 C338 0.950 . S
H364 C340 0.950 . S
H365 C341 0.949 . S
H366 C343 0.950 . S
H367 C345 0.950 . S
C368 C369 1.349 . S
C368 C370 1.327 . S
C368 H393 0.950 . S
C369 C368 1.349 . S
C369 C385 1.349 . S
C370 C368 1.327 . S
C370 C389 1.429 . S
C370 H394 0.950 . S
C371 C388 1.574 . S
C371 C390 1.368 . S
C371 H395 0.949 . S
H372 C376 0.949 . S
C373 C374 1.349 . S
C373 C375 1.327 . S
C373 H396 0.950 . S
C374 C373 1.349 . S
C374 C386 1.349 . S
C375 C373 1.327 . S
C375 C391 1.429 . S
C375 H397 0.950 . S
C376 H372 0.949 . S
C376 C384 1.574 . S
C376 C392 1.368 . S
H377 C385 0.950 . S
H378 C383 0.950 . S
H379 C384 0.949 . S
H380 C386 0.950 . S
H381 C387 0.950 . S
H382 C388 0.949 . S
C383 H378 0.950 . S
C383 C385 1.327 . S
C383 C389 1.429 . S
C384 C376 1.574 . S
C384 H379 0.949 . S
C384 C390 1.368 . S
C385 C369 1.349 . S
C385 H377 0.950 . S
C385 C383 1.327 . S
C386 C374 1.349 . S
C386 H380 0.950 . S
C386 C387 1.327 . S
C387 H381 0.950 . S
C387 C386 1.327 . S
C387 C391 1.429 . S
C388 C371 1.574 . S
C388 H382 0.949 . S
C388 C392 1.368 . S
C389 C370 1.429 . S
C389 C383 1.429 . S
C389 C390 1.523 . S
C390 C371 1.368 . S
C390 C384 1.368 . S
C390 C389 1.523 . S
C391 C375 1.429 . S
C391 C387 1.429 . S
C391 C392 1.523 . S
C392 C376 1.368 . S
C392 C388 1.368 . S
C392 C391 1.523 . S
H393 C368 0.950 . S
H394 C370 0.950 . S
H395 C371 0.949 . S
H396 C373 0.950 . S
H397 C375 0.950 . S
C398 C399 1.349 . S
C398 C400 1.327 . S
C398 H423 0.950 . S
C399 C398 1.349 . S
C399 C415 1.349 . S
C400 C398 1.327 . S
C400 C419 1.429 . S
C400 H424 0.950 . S
C401 C418 1.574 . S
C401 C420 1.368 . S
C401 H425 0.949 . S
H402 C406 0.949 . S
C403 C404 1.349 . S
C403 C405 1.327 . S
C403 H426 0.950 . S
C404 C403 1.349 . S
C404 C416 1.349 . S
C405 C403 1.327 . S
C405 C421 1.429 . S
C405 H427 0.950 . S
C406 H402 0.949 . S
C406 C414 1.574 . S
C406 C422 1.368 . S
H407 C415 0.950 . S
H408 C413 0.950 . S
H409 C414 0.949 . S
H410 C416 0.950 . S
H411 C417 0.950 . S
H412 C418 0.949 . S
C413 H408 0.950 . S
C413 C415 1.327 . S
C413 C419 1.429 . S
C414 C406 1.574 . S
C414 H409 0.949 . S
C414 C420 1.368 . S
C415 C399 1.349 . S
C415 H407 0.950 . S
C415 C413 1.327 . S
C416 C404 1.349 . S
C416 H410 0.950 . S
C416 C417 1.327 . S
C417 H411 0.950 . S
C417 C416 1.327 . S
C417 C421 1.429 . S
C418 C401 1.574 . S
C418 H412 0.949 . S
C418 C422 1.368 . S
C419 C400 1.429 . S
C419 C413 1.429 . S
C419 C420 1.523 . S
C420 C401 1.368 . S
C420 C414 1.368 . S
C420 C419 1.523 . S
C421 C405 1.429 . S
C421 C417 1.429 . S
C421 C422 1.523 . S
C422 C406 1.368 . S
C422 C418 1.368 . S
C422 C421 1.523 . S
H423 C398 0.950 . S
H424 C400 0.950 . S
H425 C401 0.949 . S
H426 C403 0.950 . S
H427 C405 0.950 . S
C428 C429 1.349 . S
C428 C430 1.327 . S
C428 H453 0.950 . S
C429 C428 1.349 . S
C429 C445 1.349 . S
C430 C428 1.327 . S
C430 C449 1.429 . S
C430 H454 0.950 . S
C431 C448 1.574 . S
C431 C450 1.368 . S
C431 H455 0.949 . S
H432 C436 0.949 . S
C433 C434 1.349 . S
C433 C435 1.327 . S
C433 H456 0.950 . S
C434 C433 1.349 . S
C434 C446 1.349 . S
C435 C433 1.327 . S
C435 C451 1.429 . S
C435 H457 0.950 . S
C436 H432 0.949 . S
C436 C444 1.574 . S
C436 C452 1.368 . S
H437 C445 0.950 . S
H438 C443 0.950 . S
H439 C444 0.949 . S
H440 C446 0.950 1_554 S
H441 C447 0.950 . S
H442 C448 0.949 . S
C443 H438 0.950 . S
C443 C445 1.327 . S
C443 C449 1.429 . S
C444 C436 1.574 . S
C444 H439 0.949 . S
C444 C450 1.368 . S
C445 C429 1.349 . S
C445 H437 0.950 . S
C445 C443 1.327 . S
C446 C434 1.349 . S
C446 H440 0.950 1_556 S
C446 C447 1.327 . S
C447 H441 0.950 . S
C447 C446 1.327 . S
C447 C451 1.429 . S
C448 C431 1.574 . S
C448 H442 0.949 . S
C448 C452 1.368 . S
C449 C430 1.429 . S
C449 C443 1.429 . S
C449 C450 1.523 . S
C450 C431 1.368 . S
C450 C444 1.368 . S
C450 C449 1.523 . S
C451 C435 1.429 . S
C451 C447 1.429 . S
C451 C452 1.523 . S
C452 C436 1.368 . S
C452 C448 1.368 . S
C452 C451 1.523 . S
H453 C428 0.950 . S
H454 C430 0.950 . S
H455 C431 0.949 . S
H456 C433 0.950 . S
H457 C435 0.950 . S
C458 C459 1.349 . S
C458 C460 1.327 . S
C458 H483 0.950 . S
C459 C458 1.349 . S
C459 C475 1.349 . S
C460 C458 1.327 . S
C460 C479 1.429 . S
C460 H484 0.950 . S
C461 C478 1.574 . S
C461 C480 1.368 . S
C461 H485 0.949 . S
H462 C466 0.949 . S
C463 C464 1.349 . S
C463 C465 1.327 . S
C463 H486 0.950 . S
C464 C463 1.349 . S
C464 C476 1.349 . S
C465 C463 1.327 . S
C465 C481 1.429 . S
C465 H487 0.950 . S
C466 H462 0.949 . S
C466 C474 1.574 . S
C466 C482 1.368 . S
H467 C475 0.950 . S
H468 C473 0.950 . S
H469 C474 0.949 . S
H470 C476 0.950 . S
H471 C477 0.950 . S
H472 C478 0.949 . S
C473 H468 0.950 . S
C473 C475 1.327 . S
C473 C479 1.429 . S
C474 C466 1.574 . S
C474 H469 0.949 . S
C474 C480 1.368 . S
C475 C459 1.349 . S
C475 H467 0.950 . S
C475 C473 1.327 . S
C476 C464 1.349 . S
C476 H470 0.950 . S
C476 C477 1.327 . S
C477 H471 0.950 . S
C477 C476 1.327 . S
C477 C481 1.429 . S
C478 C461 1.574 . S
C478 H472 0.949 . S
C478 C482 1.368 . S
C479 C460 1.429 . S
C479 C473 1.429 . S
C479 C480 1.523 . S
C480 C461 1.368 . S
C480 C474 1.368 . S
C480 C479 1.523 . S
C481 C465 1.429 . S
C481 C477 1.429 . S
C481 C482 1.523 . S
C482 C466 1.368 . S
C482 C478 1.368 . S
C482 C481 1.523 . S
H483 C458 0.950 . S
H484 C460 0.950 . S
H485 C461 0.949 . S
H486 C463 0.950 . S
H487 C465 0.950 . S
C488 C489 1.349 . S
C488 C490 1.327 . S
C488 H513 0.950 . S
C489 C488 1.349 . S
C489 C505 1.349 . S
C490 C488 1.327 . S
C490 C509 1.429 . S
C490 H514 0.950 . S
C491 C508 1.574 . S
C491 C510 1.368 . S
C491 H515 0.949 . S
H492 C496 0.949 . S
C493 C494 1.349 . S
C493 C495 1.327 . S
C493 H516 0.950 . S
C494 C493 1.349 . S
C494 C506 1.349 . S
C495 C493 1.327 . S
C495 C511 1.429 . S
C495 H517 0.950 . S
C496 H492 0.949 . S
C496 C504 1.574 . S
C496 C512 1.368 . S
H497 C505 0.950 . S
H498 C503 0.950 . S
H499 C504 0.949 . S
H500 C506 0.950 . S
H501 C507 0.950 . S
H502 C508 0.949 . S
C503 H498 0.950 . S
C503 C505 1.327 . S
C503 C509 1.429 . S
C504 C496 1.574 . S
C504 H499 0.949 . S
C504 C510 1.368 . S
C505 C489 1.349 . S
C505 H497 0.950 . S
C505 C503 1.327 . S
C506 C494 1.349 . S
C506 H500 0.950 . S
C506 C507 1.327 . S
C507 H501 0.950 . S
C507 C506 1.327 . S
C507 C511 1.429 . S
C508 C491 1.574 . S
C508 H502 0.949 . S
C508 C512 1.368 . S
C509 C490 1.429 . S
C509 C503 1.429 . S
C509 C510 1.523 . S
C510 C491 1.368 . S
C510 C504 1.368 . S
C510 C509 1.523 . S
C511 C495 1.429 . S
C511 C507 1.429 . S
C511 C512 1.523 . S
C512 C496 1.368 . S
C512 C508 1.368 . S
C512 C511 1.523 . S
H513 C488 0.950 . S
H514 C490 0.950 . S
H515 C491 0.949 . S
H516 C493 0.950 . S
H517 C495 0.950 . S
C518 C519 1.349 . S
C518 C520 1.327 . S
C518 H543 0.950 . S
C519 C518 1.349 . S
C519 C535 1.349 . S
C520 C518 1.327 . S
C520 C539 1.429 . S
C520 H544 0.950 . S
C521 C538 1.574 . S
C521 C540 1.368 . S
C521 H545 0.949 . S
H522 C526 0.949 . S
C523 C524 1.349 . S
C523 C525 1.327 . S
C523 H546 0.950 1_556 S
C524 C523 1.349 . S
C524 C536 1.349 . S
C525 C523 1.327 . S
C525 C541 1.429 . S
C525 H547 0.950 . S
C526 H522 0.949 . S
C526 C534 1.574 . S
C526 C542 1.368 . S
H527 C535 0.950 . S
H528 C533 0.950 . S
H529 C534 0.949 . S
H530 C536 0.950 . S
H531 C537 0.950 . S
H532 C538 0.949 . S
C533 H528 0.950 . S
C533 C535 1.327 . S
C533 C539 1.429 . S
C534 C526 1.574 . S
C534 H529 0.949 . S
C534 C540 1.368 . S
C535 C519 1.349 . S
C535 H527 0.950 . S
C535 C533 1.327 . S
C536 C524 1.349 . S
C536 H530 0.950 . S
C536 C537 1.327 . S
C537 H531 0.950 . S
C537 C536 1.327 . S
C537 C541 1.429 . S
C538 C521 1.574 . S
C538 H532 0.949 . S
C538 C542 1.368 . S
C539 C520 1.429 . S
C539 C533 1.429 . S
C539 C540 1.523 . S
C540 C521 1.368 . S
C540 C534 1.368 . S
C540 C539 1.523 . S
C541 C525 1.429 . S
C541 C537 1.429 . S
C541 C542 1.523 . S
C542 C526 1.368 . S
C542 C538 1.368 . S
C542 C541 1.523 . S
H543 C518 0.950 . S
H544 C520 0.950 . S
H545 C521 0.949 . S
H546 C523 0.950 1_554 S
H547 C525 0.950 . S
C548 C549 1.349 . S
C548 C550 1.327 . S
C548 H573 0.950 . S
C549 C548 1.349 . S
C549 C565 1.349 . S
C550 C548 1.327 . S
C550 C569 1.429 . S
C550 H574 0.950 . S
C551 C568 1.574 . S
C551 C570 1.368 . S
C551 H575 0.949 . S
H552 C556 0.949 . S
C553 C554 1.349 . S
C553 C555 1.327 . S
C553 H576 0.950 . S
C554 C553 1.349 . S
C554 C566 1.349 . S
C555 C553 1.327 . S
C555 C571 1.429 . S
C555 H577 0.950 . S
C556 H552 0.949 . S
C556 C564 1.574 . S
C556 C572 1.368 . S
H557 C565 0.950 . S
H558 C563 0.950 . S
H559 C564 0.949 . S
H560 C566 0.950 . S
H561 C567 0.950 . S
H562 C568 0.949 . S
C563 H558 0.950 . S
C563 C565 1.327 . S
C563 C569 1.429 . S
C564 C556 1.574 . S
C564 H559 0.949 . S
C564 C570 1.368 . S
C565 C549 1.349 . S
C565 H557 0.950 . S
C565 C563 1.327 . S
C566 C554 1.349 . S
C566 H560 0.950 . S
C566 C567 1.327 . S
C567 H561 0.950 . S
C567 C566 1.327 . S
C567 C571 1.429 . S
C568 C551 1.574 . S
C568 H562 0.949 . S
C568 C572 1.368 . S
C569 C550 1.429 . S
C569 C563 1.429 . S
C569 C570 1.523 . S
C570 C551 1.368 . S
C570 C564 1.368 . S
C570 C569 1.523 . S
C571 C555 1.429 . S
C571 C567 1.429 . S
C571 C572 1.523 . S
C572 C556 1.368 . S
C572 C568 1.368 . S
C572 C571 1.523 . S
H573 C548 0.950 . S
H574 C550 0.950 . S
H575 C551 0.949 . S
H576 C553 0.950 . S
H577 C555 0.950 . S
C578 C579 1.349 . S
C578 C580 1.327 . S
C578 H603 0.950 . S
C579 C578 1.349 . S
C579 C595 1.349 . S
C580 C578 1.327 . S
C580 C599 1.429 . S
C580 H604 0.950 . S
C581 C598 1.574 . S
C581 C600 1.368 . S
C581 H605 0.949 . S
H582 C586 0.949 . S
C583 C584 1.349 . S
C583 C585 1.327 . S
C583 H606 0.950 . S
C584 C583 1.349 . S
C584 C596 1.349 . S
C585 C583 1.327 . S
C585 C601 1.429 . S
C585 H607 0.950 . S
C586 H582 0.949 . S
C586 C594 1.574 . S
C586 C602 1.368 . S
H587 C595 0.950 . S
H588 C593 0.950 . S
H589 C594 0.949 . S
H590 C596 0.950 . S
H591 C597 0.950 . S
H592 C598 0.949 . S
C593 H588 0.950 . S
C593 C595 1.327 . S
C593 C599 1.429 . S
C594 C586 1.574 . S
C594 H589 0.949 . S
C594 C600 1.368 . S
C595 C579 1.349 . S
C595 H587 0.950 . S
C595 C593 1.327 . S
C596 C584 1.349 . S
C596 H590 0.950 . S
C596 C597 1.327 . S
C597 H591 0.950 . S
C597 C596 1.327 . S
C597 C601 1.429 . S
C598 C581 1.574 . S
C598 H592 0.949 . S
C598 C602 1.368 . S
C599 C580 1.429 . S
C599 C593 1.429 . S
C599 C600 1.523 . S
C600 C581 1.368 . S
C600 C594 1.368 . S
C600 C599 1.523 . S
C601 C585 1.429 . S
C601 C597 1.429 . S
C601 C602 1.523 . S
C602 C586 1.368 . S
C602 C598 1.368 . S
C602 C601 1.523 . S
H603 C578 0.950 . S
H604 C580 0.950 . S
H605 C581 0.949 . S
H606 C583 0.950 . S
H607 C585 0.950 . S
C608 C609 1.349 . S
C608 C610 1.327 . S
C608 H633 0.950 . S
C609 C608 1.349 . S
C609 C625 1.349 . S
C610 C608 1.327 . S
C610 C629 1.429 . S
C610 H634 0.950 . S
C611 C628 1.574 . S
C611 C630 1.368 . S
C611 H635 0.949 . S
H612 C616 0.949 . S
C613 C614 1.349 . S
C613 C615 1.327 . S
C613 H636 0.950 . S
C614 C613 1.349 . S
C614 C626 1.349 . S
C615 C613 1.327 . S
C615 C631 1.429 . S
C615 H637 0.950 . S
C616 H612 0.949 . S
C616 C624 1.574 . S
C616 C632 1.368 . S
H617 C625 0.950 . S
H618 C623 0.950 . S
H619 C624 0.949 . S
H620 C626 0.950 . S
H621 C627 0.950 . S
H622 C628 0.949 . S
C623 H618 0.950 . S
C623 C625 1.327 . S
C623 C629 1.429 . S
C624 C616 1.574 . S
C624 H619 0.949 . S
C624 C630 1.368 . S
C625 C609 1.349 . S
C625 H617 0.950 . S
C625 C623 1.327 . S
C626 C614 1.349 . S
C626 H620 0.950 . S
C626 C627 1.327 . S
C627 H621 0.950 . S
C627 C626 1.327 . S
C627 C631 1.429 . S
C628 C611 1.574 . S
C628 H622 0.949 . S
C628 C632 1.368 . S
C629 C610 1.429 . S
C629 C623 1.429 . S
C629 C630 1.523 . S
C630 C611 1.368 . S
C630 C624 1.368 . S
C630 C629 1.523 . S
C631 C615 1.429 . S
C631 C627 1.429 . S
C631 C632 1.523 . S
C632 C616 1.368 . S
C632 C628 1.368 . S
C632 C631 1.523 . S
H633 C608 0.950 . S
H634 C610 0.950 . S
H635 C611 0.949 . S
H636 C613 0.950 . S
H637 C615 0.950 . S
C638 C639 1.349 . S
C638 C640 1.327 . S
C638 H663 0.950 . S
C639 C638 1.349 . S
C639 C655 1.349 . S
C640 C638 1.327 . S
C640 C659 1.429 . S
C640 H664 0.950 . S
C641 C658 1.574 . S
C641 C660 1.368 . S
C641 H665 0.949 . S
H642 C646 0.949 . S
C643 C644 1.349 . S
C643 C645 1.327 . S
C643 H666 0.950 . S
C644 C643 1.349 . S
C644 C656 1.349 . S
C645 C643 1.327 . S
C645 C661 1.429 . S
C645 H667 0.950 . S
C646 H642 0.949 . S
C646 C654 1.574 . S
C646 C662 1.368 . S
H647 C655 0.950 . S
H648 C653 0.950 . S
H649 C654 0.949 . S
H650 C656 0.950 . S
H651 C657 0.950 . S
H652 C658 0.949 . S
C653 H648 0.950 . S
C653 C655 1.327 . S
C653 C659 1.429 . S
C654 C646 1.574 . S
C654 H649 0.949 . S
C654 C660 1.368 . S
C655 C639 1.349 . S
C655 H647 0.950 . S
C655 C653 1.327 . S
C656 C644 1.349 . S
C656 H650 0.950 . S
C656 C657 1.327 . S
C657 H651 0.950 . S
C657 C656 1.327 . S
C657 C661 1.429 . S
C658 C641 1.574 . S
C658 H652 0.949 . S
C658 C662 1.368 . S
C659 C640 1.429 . S
C659 C653 1.429 . S
C659 C660 1.523 . S
C660 C641 1.368 . S
C660 C654 1.368 . S
C660 C659 1.523 . S
C661 C645 1.429 . S
C661 C657 1.429 . S
C661 C662 1.523 . S
C662 C646 1.368 . S
C662 C658 1.368 . S
C662 C661 1.523 . S
H663 C638 0.950 . S
H664 C640 0.950 . S
H665 C641 0.949 . S
H666 C643 0.950 . S
H667 C645 0.950 . S
C668 C669 1.349 . S
C668 C670 1.327 . S
C668 H693 0.950 . S
C669 C668 1.349 . S
C669 C685 1.349 . S
C670 C668 1.327 . S
C670 C689 1.429 . S
C670 H694 0.950 . S
C671 C688 1.574 . S
C671 C690 1.368 . S
C671 H695 0.949 . S
H672 C676 0.949 . S
C673 C674 1.349 . S
C673 C675 1.327 . S
C673 H696 0.950 . S
C674 C673 1.349 . S
C674 C686 1.349 . S
C675 C673 1.327 . S
C675 C691 1.429 . S
C675 H697 0.950 . S
C676 H672 0.949 . S
C676 C684 1.574 . S
C676 C692 1.368 . S
H677 C685 0.950 . S
H678 C683 0.950 . S
H679 C684 0.949 . S
H680 C686 0.950 . S
H681 C687 0.950 . S
H682 C688 0.949 . S
C683 H678 0.950 . S
C683 C685 1.327 . S
C683 C689 1.429 . S
C684 C676 1.574 . S
C684 H679 0.949 . S
C684 C690 1.368 . S
C685 C669 1.349 . S
C685 H677 0.950 . S
C685 C683 1.327 . S
C686 C674 1.349 . S
C686 H680 0.950 . S
C686 C687 1.327 . S
C687 H681 0.950 . S
C687 C686 1.327 . S
C687 C691 1.429 . S
C688 C671 1.574 . S
C688 H682 0.949 . S
C688 C692 1.368 . S
C689 C670 1.429 . S
C689 C683 1.429 . S
C689 C690 1.523 . S
C690 C671 1.368 . S
C690 C684 1.368 . S
C690 C689 1.523 . S
C691 C675 1.429 . S
C691 C687 1.429 . S
C691 C692 1.523 . S
C692 C676 1.368 . S
C692 C688 1.368 . S
C692 C691 1.523 . S
H693 C668 0.950 . S
H694 C670 0.950 . S
H695 C671 0.949 . S
H696 C673 0.950 . S
H697 C675 0.950 . S
C698 C699 1.349 . S
C698 C700 1.327 . S
C698 H723 0.950 . S
C699 C698 1.349 . S
C699 C715 1.349 . S
C700 C698 1.327 . S
C700 C719 1.429 . S
C700 H724 0.950 . S
C701 C718 1.574 . S
C701 C720 1.368 . S
C701 H725 0.949 . S
H702 C706 0.949 . S
C703 C704 1.349 . S
C703 C705 1.327 . S
C703 H726 0.950 . S
C704 C703 1.349 . S
C704 C716 1.349 . S
C705 C703 1.327 . S
C705 C721 1.429 . S
C705 H727 0.950 . S
C706 H702 0.949 . S
C706 C714 1.574 . S
C706 C722 1.368 . S
H707 C715 0.950 . S
H708 C713 0.950 . S
H709 C714 0.949 . S
H710 C716 0.950 . S
H711 C717 0.950 . S
H712 C718 0.949 . S
C713 H708 0.950 . S
C713 C715 1.327 . S
C713 C719 1.429 . S
C714 C706 1.574 . S
C714 H709 0.949 . S
C714 C720 1.368 . S
C715 C699 1.349 . S
C715 H707 0.950 . S
C715 C713 1.327 . S
C716 C704 1.349 . S
C716 H710 0.950 . S
C716 C717 1.327 . S
C717 H711 0.950 . S
C717 C716 1.327 . S
C717 C721 1.429 . S
C718 C701 1.574 . S
C718 H712 0.949 . S
C718 C722 1.368 . S
C719 C700 1.429 . S
C719 C713 1.429 . S
C719 C720 1.523 . S
C720 C701 1.368 . S
C720 C714 1.368 . S
C720 C719 1.523 . S
C721 C705 1.429 . S
C721 C717 1.429 . S
C721 C722 1.523 . S
C722 C706 1.368 . S
C722 C718 1.368 . S
C722 C721 1.523 . S
H723 C698 0.950 . S
H724 C700 0.950 . S
H725 C701 0.949 . S
H726 C703 0.950 . S
H727 C705 0.950 . S
C728 C729 1.349 . S
C728 C730 1.327 . S
C728 H753 0.950 . S
C729 C728 1.349 . S
C729 C745 1.349 . S
C730 C728 1.327 . S
C730 C749 1.429 . S
C730 H754 0.950 . S
C731 C748 1.574 . S
C731 C750 1.368 . S
C731 H755 0.949 . S
H732 C736 0.949 . S
C733 C734 1.349 . S
C733 C735 1.327 . S
C733 H756 0.950 . S
C734 C733 1.349 . S
C734 C746 1.349 1_554 S
C735 C733 1.327 . S
C735 C751 1.429 1_554 S
C735 H757 0.950 . S
C736 H732 0.949 . S
C736 C744 1.574 . S
C736 C752 1.368 . S
H737 C745 0.950 . S
H738 C743 0.950 . S
H739 C744 0.949 . S
H740 C746 0.950 . S
H741 C747 0.950 . S
H742 C748 0.949 . S
C743 H738 0.950 . S
C743 C745 1.327 . S
C743 C749 1.429 . S
C744 C736 1.574 . S
C744 H739 0.949 . S
C744 C750 1.368 . S
C745 C729 1.349 . S
C745 H737 0.950 . S
C745 C743 1.327 . S
C746 C734 1.349 1_556 S
C746 H740 0.950 . S
C746 C747 1.327 . S
C747 H741 0.950 . S
C747 C746 1.327 . S
C747 C751 1.429 . S
C748 C731 1.574 . S
C748 H742 0.949 . S
C748 C752 1.368 . S
C749 C730 1.429 . S
C749 C743 1.429 . S
C749 C750 1.523 . S
C750 C731 1.368 . S
C750 C744 1.368 . S
C750 C749 1.523 . S
C751 C735 1.429 1_556 S
C751 C747 1.429 . S
C751 C752 1.523 . S
C752 C736 1.368 . S
C752 C748 1.368 . S
C752 C751 1.523 . S
H753 C728 0.950 . S
H754 C730 0.950 . S
H755 C731 0.949 . S
H756 C733 0.950 . S
H757 C735 0.950 . S
C758 C759 1.349 . S
C758 C760 1.327 . S
C758 H783 0.950 . S
C759 C758 1.349 . S
C759 C775 1.349 . S
C760 C758 1.327 . S
C760 C779 1.429 . S
C760 H784 0.950 . S
C761 C778 1.574 . S
C761 C780 1.368 . S
C761 H785 0.949 . S
H762 C766 0.949 . S
C763 C764 1.349 . S
C763 C765 1.327 . S
C763 H786 0.950 . S
C764 C763 1.349 . S
C764 C776 1.349 . S
C765 C763 1.327 . S
C765 C781 1.429 . S
C765 H787 0.950 . S
C766 H762 0.949 . S
C766 C774 1.574 . S
C766 C782 1.368 . S
H767 C775 0.950 . S
H768 C773 0.950 . S
H769 C774 0.949 . S
H770 C776 0.950 . S
H771 C777 0.950 . S
H772 C778 0.949 . S
C773 H768 0.950 . S
C773 C775 1.327 . S
C773 C779 1.429 . S
C774 C766 1.574 . S
C774 H769 0.949 . S
C774 C780 1.368 . S
C775 C759 1.349 . S
C775 H767 0.950 . S
C775 C773 1.327 . S
C776 C764 1.349 . S
C776 H770 0.950 . S
C776 C777 1.327 . S
C777 H771 0.950 . S
C777 C776 1.327 . S
C777 C781 1.429 . S
C778 C761 1.574 . S
C778 H772 0.949 . S
C778 C782 1.368 . S
C779 C760 1.429 . S
C779 C773 1.429 . S
C779 C780 1.523 . S
C780 C761 1.368 . S
C780 C774 1.368 . S
C780 C779 1.523 . S
C781 C765 1.429 . S
C781 C777 1.429 . S
C781 C782 1.523 . S
C782 C766 1.368 . S
C782 C778 1.368 . S
C782 C781 1.523 . S
H783 C758 0.950 . S
H784 C760 0.950 . S
H785 C761 0.949 . S
H786 C763 0.950 . S
H787 C765 0.950 . S
C788 C789 1.349 . S
C788 C790 1.327 . S
C788 H813 0.950 . S
C789 C788 1.349 . S
C789 C805 1.349 . S
C790 C788 1.327 . S
C790 C809 1.429 . S
C790 H814 0.950 . S
C791 C808 1.574 . S
C791 C810 1.368 . S
C791 H815 0.949 . S
H792 C796 0.949 . S
C793 C794 1.349 . S
C793 C795 1.327 . S
C793 H816 0.950 . S
C794 C793 1.349 . S
C794 C806 1.349 . S
C795 C793 1.327 . S
C795 C811 1.429 . S
C795 H817 0.950 . S
C796 H792 0.949 . S
C796 C804 1.574 . S
C796 C812 1.368 . S
H797 C805 0.950 . S
H798 C803 0.950 . S
H799 C804 0.949 . S
H800 C806 0.950 . S
H801 C807 0.950 . S
H802 C808 0.949 . S
C803 H798 0.950 . S
C803 C805 1.327 . S
C803 C809 1.429 . S
C804 C796 1.574 . S
C804 H799 0.949 . S
C804 C810 1.368 . S
C805 C789 1.349 . S
C805 H797 0.950 . S
C805 C803 1.327 . S
C806 C794 1.349 . S
C806 H800 0.950 . S
C806 C807 1.327 . S
C807 H801 0.950 . S
C807 C806 1.327 . S
C807 C811 1.429 . S
C808 C791 1.574 . S
C808 H802 0.949 . S
C808 C812 1.368 . S
C809 C790 1.429 . S
C809 C803 1.429 . S
C809 C810 1.523 . S
C810 C791 1.368 . S
C810 C804 1.368 . S
C810 C809 1.523 . S
C811 C795 1.429 . S
C811 C807 1.429 . S
C811 C812 1.523 . S
C812 C796 1.368 . S
C812 C808 1.368 . S
C812 C811 1.523 . S
H813 C788 0.950 . S
H814 C790 0.950 . S
H815 C791 0.949 . S
H816 C793 0.950 . S
H817 C795 0.950 . S
C818 C819 1.349 . S
C818 C820 1.327 . S
C818 H843 0.950 . S
C819 C818 1.349 . S
C819 C835 1.349 . S
C820 C818 1.327 . S
C820 C839 1.429 . S
C820 H844 0.950 . S
C821 C838 1.574 . S
C821 C840 1.368 . S
C821 H845 0.949 . S
H822 C826 0.949 . S
C823 C824 1.349 . S
C823 C825 1.327 . S
C823 H846 0.950 . S
C824 C823 1.349 . S
C824 C836 1.349 . S
C825 C823 1.327 . S
C825 C841 1.429 . S
C825 H847 0.950 . S
C826 H822 0.949 . S
C826 C834 1.574 . S
C826 C842 1.368 . S
H827 C835 0.950 . S
H828 C833 0.950 . S
H829 C834 0.949 . S
H830 C836 0.950 . S
H831 C837 0.950 . S
H832 C838 0.949 . S
C833 H828 0.950 . S
C833 C835 1.327 . S
C833 C839 1.429 . S
C834 C826 1.574 . S
C834 H829 0.949 . S
C834 C840 1.368 . S
C835 C819 1.349 . S
C835 H827 0.950 . S
C835 C833 1.327 . S
C836 C824 1.349 . S
C836 H830 0.950 . S
C836 C837 1.327 . S
C837 H831 0.950 . S
C837 C836 1.327 . S
C837 C841 1.429 . S
C838 C821 1.574 . S
C838 H832 0.949 . S
C838 C842 1.368 . S
C839 C820 1.429 . S
C839 C833 1.429 . S
C839 C840 1.523 . S
C840 C821 1.368 . S
C840 C834 1.368 . S
C840 C839 1.523 . S
C841 C825 1.429 . S
C841 C837 1.429 . S
C841 C842 1.523 . S
C842 C826 1.368 . S
C842 C838 1.368 . S
C842 C841 1.523 . S
H843 C818 0.950 . S
H844 C820 0.950 . S
H845 C821 0.949 . S
H846 C823 0.950 . S
H847 C825 0.950 . S
C848 C849 1.349 . S
C848 C850 1.327 . S
C848 H873 0.950 . S
C849 C848 1.349 . S
C849 C865 1.349 . S
C850 C848 1.327 . S
C850 C869 1.429 . S
C850 H874 0.950 . S
C851 C868 1.574 . S
C851 C870 1.368 . S
C851 H875 0.949 . S
H852 C856 0.949 . S
C853 C854 1.349 . S
C853 C855 1.327 . S
C853 H876 0.950 . S
C854 C853 1.349 . S
C854 C866 1.349 . S
C855 C853 1.327 . S
C855 C871 1.429 . S
C855 H877 0.950 . S
C856 H852 0.949 . S
C856 C864 1.574 . S
C856 C872 1.368 . S
H857 C865 0.950 . S
H858 C863 0.950 . S
H859 C864 0.949 . S
H860 C866 0.950 . S
H861 C867 0.950 . S
H862 C868 0.949 . S
C863 H858 0.950 . S
C863 C865 1.327 . S
C863 C869 1.429 . S
C864 C856 1.574 . S
C864 H859 0.949 . S
C864 C870 1.368 . S
C865 C849 1.349 . S
C865 H857 0.950 . S
C865 C863 1.327 . S
C866 C854 1.349 . S
C866 H860 0.950 . S
C866 C867 1.327 . S
C867 H861 0.950 . S
C867 C866 1.327 . S
C867 C871 1.429 . S
C868 C851 1.574 . S
C868 H862 0.949 . S
C868 C872 1.368 . S
C869 C850 1.429 . S
C869 C863 1.429 . S
C869 C870 1.523 . S
C870 C851 1.368 . S
C870 C864 1.368 . S
C870 C869 1.523 . S
C871 C855 1.429 . S
C871 C867 1.429 . S
C871 C872 1.523 . S
C872 C856 1.368 . S
C872 C868 1.368 . S
C872 C871 1.523 . S
H873 C848 0.950 . S
H874 C850 0.950 . S
H875 C851 0.949 . S
H876 C853 0.950 . S
H877 C855 0.950 . S
C878 C879 1.349 . S
C878 C880 1.327 . S
C878 H903 0.950 . S
C879 C878 1.349 . S
C879 C895 1.349 . S
C880 C878 1.327 . S
C880 C899 1.429 . S
C880 H904 0.950 . S
C881 C898 1.574 . S
C881 C900 1.368 . S
C881 H905 0.949 . S
H882 C886 0.949 . S
C883 C884 1.349 . S
C883 C885 1.327 . S
C883 H906 0.950 . S
C884 C883 1.349 . S
C884 C896 1.349 . S
C885 C883 1.327 . S
C885 C901 1.429 . S
C885 H907 0.950 . S
C886 H882 0.949 . S
C886 C894 1.574 . S
C886 C902 1.368 . S
H887 C895 0.950 . S
H888 C893 0.950 . S
H889 C894 0.949 . S
H890 C896 0.950 . S
H891 C897 0.950 . S
H892 C898 0.949 . S
C893 H888 0.950 . S
C893 C895 1.327 . S
C893 C899 1.429 . S
C894 C886 1.574 . S
C894 H889 0.949 . S
C894 C900 1.368 . S
C895 C879 1.349 . S
C895 H887 0.950 . S
C895 C893 1.327 . S
C896 C884 1.349 . S
C896 H890 0.950 . S
C896 C897 1.327 . S
C897 H891 0.950 . S
C897 C896 1.327 . S
C897 C901 1.429 . S
C898 C881 1.574 . S
C898 H892 0.949 . S
C898 C902 1.368 . S
C899 C880 1.429 . S
C899 C893 1.429 . S
C899 C900 1.523 . S
C900 C881 1.368 . S
C900 C894 1.368 . S
C900 C899 1.523 . S
C901 C885 1.429 . S
C901 C897 1.429 . S
C901 C902 1.523 . S
C902 C886 1.368 . S
C902 C898 1.368 . S
C902 C901 1.523 . S
H903 C878 0.950 . S
H904 C880 0.950 . S
H905 C881 0.949 . S
H906 C883 0.950 . S
H907 C885 0.950 . S
C908 C909 1.349 . S
C908 C910 1.327 . S
C908 H933 0.950 . S
C909 C908 1.349 . S
C909 C925 1.349 . S
C910 C908 1.327 . S
C910 C929 1.429 . S
C910 H934 0.950 . S
C911 C928 1.574 . S
C911 C930 1.368 . S
C911 H935 0.949 . S
H912 C916 0.949 . S
C913 C914 1.349 . S
C913 C915 1.327 . S
C913 H936 0.950 . S
C914 C913 1.349 . S
C914 C926 1.349 . S
C915 C913 1.327 . S
C915 C931 1.429 . S
C915 H937 0.950 . S
C916 H912 0.949 . S
C916 C924 1.574 . S
C916 C932 1.368 . S
H917 C925 0.950 . S
H918 C923 0.950 . S
H919 C924 0.949 . S
H920 C926 0.950 . S
H921 C927 0.950 . S
H922 C928 0.949 . S
C923 H918 0.950 . S
C923 C925 1.327 . S
C923 C929 1.429 . S
C924 C916 1.574 . S
C924 H919 0.949 . S
C924 C930 1.368 . S
C925 C909 1.349 . S
C925 H917 0.950 . S
C925 C923 1.327 . S
C926 C914 1.349 . S
C926 H920 0.950 . S
C926 C927 1.327 . S
C927 H921 0.950 . S
C927 C926 1.327 . S
C927 C931 1.429 . S
C928 C911 1.574 . S
C928 H922 0.949 . S
C928 C932 1.368 . S
C929 C910 1.429 . S
C929 C923 1.429 . S
C929 C930 1.523 . S
C930 C911 1.368 . S
C930 C924 1.368 . S
C930 C929 1.523 . S
C931 C915 1.429 . S
C931 C927 1.429 . S
C931 C932 1.523 . S
C932 C916 1.368 . S
C932 C928 1.368 . S
C932 C931 1.523 . S
H933 C908 0.950 . S
H934 C910 0.950 . S
H935 C911 0.949 . S
H936 C913 0.950 . S
H937 C915 0.950 . S
C938 C939 1.349 . S
C938 C940 1.327 . S
C938 H963 0.950 . S
C939 C938 1.349 . S
C939 C955 1.349 . S
C940 C938 1.327 . S
C940 C959 1.429 . S
C940 H964 0.950 . S
C941 C958 1.574 . S
C941 C960 1.368 . S
C941 H965 0.949 . S
H942 C946 0.949 . S
C943 C944 1.349 . S
C943 C945 1.327 . S
C943 H966 0.950 . S
C944 C943 1.349 . S
C944 C956 1.349 . S
C945 C943 1.327 . S
C945 C961 1.429 . S
C945 H967 0.950 . S
C946 H942 0.949 . S
C946 C954 1.574 . S
C946 C962 1.368 . S
H947 C955 0.950 . S
H948 C953 0.950 . S
H949 C954 0.949 . S
H950 C956 0.950 . S
H951 C957 0.950 . S
H952 C958 0.949 . S
C953 H948 0.950 . S
C953 C955 1.327 . S
C953 C959 1.429 . S
C954 C946 1.574 . S
C954 H949 0.949 . S
C954 C960 1.368 . S
C955 C939 1.349 . S
C955 H947 0.950 . S
C955 C953 1.327 . S
C956 C944 1.349 . S
C956 H950 0.950 . S
C956 C957 1.327 . S
C957 H951 0.950 . S
C957 C956 1.327 . S
C957 C961 1.429 . S
C958 C941 1.574 . S
C958 H952 0.949 . S
C958 C962 1.368 . S
C959 C940 1.429 . S
C959 C953 1.429 . S
C959 C960 1.523 . S
C960 C941 1.368 . S
C960 C954 1.368 . S
C960 C959 1.523 . S
C961 C945 1.429 . S
C961 C957 1.429 . S
C961 C962 1.523 . S
C962 C946 1.368 . S
C962 C958 1.368 . S
C962 C961 1.523 . S
H963 C938 0.950 . S
H964 C940 0.950 . S
H965 C941 0.949 . S
H966 C943 0.950 . S
H967 C945 0.950 . S
C249 C4 1.298 . S
C254 C103 1.307 . S
C279 C16 1.284 . S
C284 C143 1.318 . S
C314 C177 1.727 . S
C309 C32 1.708 . S
C339 C43 2.523 . S
C344 C218 2.483 . S
C374 C138 2.019 . S
C369 C5 1.984 . S
C404 C98 1.734 . S
C399 C21 1.666 . S
C434 C226 1.348 . S
C429 C27 1.383 . S
C464 C187 1.636 . S
C459 C37 1.688 . S
C489 C10 1.110 . S
C494 C223 1.109 . S
C524 C146 2.176 1_556 S
C519 C26 2.238 . S
C549 C38 2.079 . S
C554 C106 2.036 . S
C579 C15 1.704 . S
C584 C174 1.744 . S
C614 C94 1.504 . S
C609 C48 1.498 . S
C639 C59 0.979 . S
C644 C134 0.987 . S
C669 C76 2.051 . S
C674 C186 2.011 . S
C699 C87 2.228 . S
C704 C227 2.181 . S
C729 C54 1.170 . S
C734 C147 1.184 . S
C764 C107 2.543 . S
C759 C60 2.477 . S
C794 C217 1.388 . S
C789 C71 1.349 . S
C824 C178 1.623 . S
C819 C82 1.649 . S
C849 C49 1.523 . S
C854 C214 1.554 . S
C884 C137 1.548 . S
C879 C70 1.584 . S
C914 C97 2.526 . S
C909 C81 2.608 . S
C939 C65 1.407 . S
C944 C183 1.430 . S
