# Generated by pormake.
# Topology ctn, (3,4)-cn, num edge types: 1
# Building blocks:
#     Node 0, Type 0, BuildingBlock: QEWDON_clean_linker_0, # of connection points: 3
#     Node 1, Type 0, BuildingBlock: QEWDON_clean_linker_0, # of connection points: 3
#     Node 2, Type 0, BuildingBlock: QEWDON_clean_linker_0, # of connection points: 3
#     Node 3, Type 0, BuildingBlock: QEWDON_clean_linker_0, # of connection points: 3
#     Node 4, Type 0, BuildingBlock: QEWDON_clean_linker_0, # of connection points: 3
#     Node 5, Type 0, BuildingBlock: QEWDON_clean_linker_0, # of connection points: 3
#     Node 6, Type 0, BuildingBlock: QEWDON_clean_linker_0, # of connection points: 3
#     Node 7, Type 0, BuildingBlock: QEWDON_clean_linker_0, # of connection points: 3
#     Node 8, Type 0, BuildingBlock: QEWDON_clean_linker_0, # of connection points: 3
#     Node 9, Type 0, BuildingBlock: QEWDON_clean_linker_0, # of connection points: 3
#     Node 10, Type 0, BuildingBlock: QEWDON_clean_linker_0, # of connection points: 3
#     Node 11, Type 0, BuildingBlock: QEWDON_clean_linker_0, # of connection points: 3
#     Node 12, Type 0, BuildingBlock: QEWDON_clean_linker_0, # of connection points: 3
#     Node 13, Type 0, BuildingBlock: QEWDON_clean_linker_0, # of connection points: 3
#     Node 14, Type 0, BuildingBlock: QEWDON_clean_linker_0, # of connection points: 3
#     Node 15, Type 0, BuildingBlock: QEWDON_clean_linker_0, # of connection points: 3
#     Node 16, Type 1, BuildingBlock: TATPOV_clean_sbu_0, # of connection points: 4
#     Node 17, Type 1, BuildingBlock: TATPOV_clean_sbu_0, # of connection points: 4
#     Node 18, Type 1, BuildingBlock: TATPOV_clean_sbu_0, # of connection points: 4
#     Node 19, Type 1, BuildingBlock: TATPOV_clean_sbu_0, # of connection points: 4
#     Node 20, Type 1, BuildingBlock: TATPOV_clean_sbu_0, # of connection points: 4
#     Node 21, Type 1, BuildingBlock: TATPOV_clean_sbu_0, # of connection points: 4
#     Node 22, Type 1, BuildingBlock: TATPOV_clean_sbu_0, # of connection points: 4
#     Node 23, Type 1, BuildingBlock: TATPOV_clean_sbu_0, # of connection points: 4
#     Node 24, Type 1, BuildingBlock: TATPOV_clean_sbu_0, # of connection points: 4
#     Node 25, Type 1, BuildingBlock: TATPOV_clean_sbu_0, # of connection points: 4
#     Node 26, Type 1, BuildingBlock: TATPOV_clean_sbu_0, # of connection points: 4
#     Node 27, Type 1, BuildingBlock: TATPOV_clean_sbu_0, # of connection points: 4
#     Edge 28, Type (0, 1), BuildingBlock: AJUNOK_clean_linker_0, # of connection points: 2
#     Edge 29, Type (0, 1), BuildingBlock: AJUNOK_clean_linker_0, # of connection points: 2
#     Edge 30, Type (0, 1), BuildingBlock: AJUNOK_clean_linker_0, # of connection points: 2
#     Edge 31, Type (0, 1), BuildingBlock: AJUNOK_clean_linker_0, # of connection points: 2
#     Edge 32, Type (0, 1), BuildingBlock: AJUNOK_clean_linker_0, # of connection points: 2
#     Edge 33, Type (0, 1), BuildingBlock: AJUNOK_clean_linker_0, # of connection points: 2
#     Edge 34, Type (0, 1), BuildingBlock: AJUNOK_clean_linker_0, # of connection points: 2
#     Edge 35, Type (0, 1), BuildingBlock: AJUNOK_clean_linker_0, # of connection points: 2
#     Edge 36, Type (0, 1), BuildingBlock: AJUNOK_clean_linker_0, # of connection points: 2
#     Edge 37, Type (0, 1), BuildingBlock: AJUNOK_clean_linker_0, # of connection points: 2
#     Edge 38, Type (0, 1), BuildingBlock: AJUNOK_clean_linker_0, # of connection points: 2
#     Edge 39, Type (0, 1), BuildingBlock: AJUNOK_clean_linker_0, # of connection points: 2
#     Edge 40, Type (0, 1), BuildingBlock: AJUNOK_clean_linker_0, # of connection points: 2
#     Edge 41, Type (0, 1), BuildingBlock: AJUNOK_clean_linker_0, # of connection points: 2
#     Edge 42, Type (0, 1), BuildingBlock: AJUNOK_clean_linker_0, # of connection points: 2
#     Edge 43, Type (0, 1), BuildingBlock: AJUNOK_clean_linker_0, # of connection points: 2
#     Edge 44, Type (0, 1), BuildingBlock: AJUNOK_clean_linker_0, # of connection points: 2
#     Edge 45, Type (0, 1), BuildingBlock: AJUNOK_clean_linker_0, # of connection points: 2
#     Edge 46, Type (0, 1), BuildingBlock: AJUNOK_clean_linker_0, # of connection points: 2
#     Edge 47, Type (0, 1), BuildingBlock: AJUNOK_clean_linker_0, # of connection points: 2
#     Edge 48, Type (0, 1), BuildingBlock: AJUNOK_clean_linker_0, # of connection points: 2
#     Edge 49, Type (0, 1), BuildingBlock: AJUNOK_clean_linker_0, # of connection points: 2
#     Edge 50, Type (0, 1), BuildingBlock: AJUNOK_clean_linker_0, # of connection points: 2
#     Edge 51, Type (0, 1), BuildingBlock: AJUNOK_clean_linker_0, # of connection points: 2
#     Edge 52, Type (0, 1), BuildingBlock: AJUNOK_clean_linker_0, # of connection points: 2
#     Edge 53, Type (0, 1), BuildingBlock: AJUNOK_clean_linker_0, # of connection points: 2
#     Edge 54, Type (0, 1), BuildingBlock: AJUNOK_clean_linker_0, # of connection points: 2
#     Edge 55, Type (0, 1), BuildingBlock: AJUNOK_clean_linker_0, # of connection points: 2
#     Edge 56, Type (0, 1), BuildingBlock: AJUNOK_clean_linker_0, # of connection points: 2
#     Edge 57, Type (0, 1), BuildingBlock: AJUNOK_clean_linker_0, # of connection points: 2
#     Edge 58, Type (0, 1), BuildingBlock: AJUNOK_clean_linker_0, # of connection points: 2
#     Edge 59, Type (0, 1), BuildingBlock: AJUNOK_clean_linker_0, # of connection points: 2
#     Edge 60, Type (0, 1), BuildingBlock: AJUNOK_clean_linker_0, # of connection points: 2
#     Edge 61, Type (0, 1), BuildingBlock: AJUNOK_clean_linker_0, # of connection points: 2
#     Edge 62, Type (0, 1), BuildingBlock: AJUNOK_clean_linker_0, # of connection points: 2
#     Edge 63, Type (0, 1), BuildingBlock: AJUNOK_clean_linker_0, # of connection points: 2
#     Edge 64, Type (0, 1), BuildingBlock: AJUNOK_clean_linker_0, # of connection points: 2
#     Edge 65, Type (0, 1), BuildingBlock: AJUNOK_clean_linker_0, # of connection points: 2
#     Edge 66, Type (0, 1), BuildingBlock: AJUNOK_clean_linker_0, # of connection points: 2
#     Edge 67, Type (0, 1), BuildingBlock: AJUNOK_clean_linker_0, # of connection points: 2
#     Edge 68, Type (0, 1), BuildingBlock: AJUNOK_clean_linker_0, # of connection points: 2
#     Edge 69, Type (0, 1), BuildingBlock: AJUNOK_clean_linker_0, # of connection points: 2
#     Edge 70, Type (0, 1), BuildingBlock: AJUNOK_clean_linker_0, # of connection points: 2
#     Edge 71, Type (0, 1), BuildingBlock: AJUNOK_clean_linker_0, # of connection points: 2
#     Edge 72, Type (0, 1), BuildingBlock: AJUNOK_clean_linker_0, # of connection points: 2
#     Edge 73, Type (0, 1), BuildingBlock: AJUNOK_clean_linker_0, # of connection points: 2
#     Edge 74, Type (0, 1), BuildingBlock: AJUNOK_clean_linker_0, # of connection points: 2
#     Edge 75, Type (0, 1), BuildingBlock: AJUNOK_clean_linker_0, # of connection points: 2
# Relax obj value: 0.120
# Max RMSD: 0.276
# Mean RMSD: 0.150
data_MOF--net-ctn--node1-TATPOV_clean_sbu_0--node2-QEWDON_clean_linker_0--edge1-AJUNOK_clean_linker_0
_symmetry_space_group_name_H-M    P1
_symmetry_Int_Tables_number       1
_symmetry_cell_setting            triclinic
loop_
_symmetry_equiv_pos_as_xyz
'x, y, z'
_cell_length_a     38.098184
_cell_length_b     40.377425
_cell_length_c     42.958973
_cell_angle_alpha  99.765307
_cell_angle_beta   93.199275
_cell_angle_gamma 97.153497
loop_
_atom_site_label
_atom_site_type_symbol
_atom_site_fract_x
_atom_site_fract_y
_atom_site_fract_z
_atom_type_partial_charge
H0 H 0.11517 0.01821 0.03091 0.0
C1 C 0.10055 0.0155 0.05145 0.0
C2 C 0.10379 0.98794 0.06723 0.0
C3 C 0.07988 0.0407 0.06293 0.0
H4 H 0.08701 0.96459 0.10672 0.0
C5 C 0.0843 0.98525 0.09401 0.0
C6 C 0.06272 0.00999 0.10547 0.0
C7 C 0.06063 0.03738 0.08944 0.0
C8 C 0.083 0.07332 0.05104 0.0
H9 H 0.04429 0.05669 0.09778 0.0
C10 C 0.0717 0.07565 0.01964 0.0
C11 C 0.07514 0.10757 0.00995 0.0
C12 C 0.0979 0.1029 0.0721 0.0
H13 H 0.10689 0.10168 0.09622 0.0
C14 C 0.10172 0.13423 0.06231 0.0
H15 H 0.05992 0.0531 1.00321 0.0
C16 C 0.09039 0.13659 0.03148 0.0
H17 H 0.09323 0.16126 0.02443 0.0
H18 H 0.11335 0.1568 0.07874 0.0
H19 H 0.36269 0.7555 0.25417 0.0
C20 C 0.34098 0.7356 0.25484 0.0
C21 C 0.34769 0.70536 0.26488 0.0
C22 C 0.30623 0.74071 0.24644 0.0
H23 H 0.32382 0.65693 0.27395 0.0
C24 C 0.31899 0.68033 0.26636 0.0
C25 C 0.284 0.68549 0.25841 0.0
C26 C 0.27793 0.71561 0.24809 0.0
C27 C 0.29902 0.7731 0.2377 0.0
H28 H 0.25114 0.71965 0.24139 0.0
C29 C 0.29707 0.77714 0.20583 0.0
C30 C 0.28932 0.80792 0.19756 0.0
C31 C 0.2931 0.79983 0.26137 0.0
H32 H 0.29434 0.79699 0.28602 0.0
C33 C 0.28549 0.83039 0.25335 0.0
H34 H 0.30144 0.75632 0.18757 0.0
C35 C 0.28372 0.83453 0.22169 0.0
H36 H 0.2787 0.85879 0.21618 0.0
H37 H 0.28119 0.85104 0.27174 0.0
H38 H 1.00655 0.42196 0.08135 0.0
C39 C 1.00007 0.44451 0.07295 0.0
C40 C 0.0107 0.47666 0.09154 0.0
C41 C 0.98023 0.44096 0.04406 0.0
H42 H 0.01111 0.53079 0.09398 0.0
C43 C 1.00284 0.50581 0.07993 0.0
C44 C 0.98383 0.50235 0.05014 0.0
C45 C 0.97208 0.46975 0.03274 0.0
C46 C 0.96769 0.40691 0.02593 0.0
H47 H 0.95654 0.46674 0.01025 0.0
C48 C 0.99199 0.38717 0.01139 0.0
C49 C 0.98028 0.35471 0.99376 0.0
C50 C 0.93155 0.39399 0.02335 0.0
H51 H 0.91254 0.409 0.03459 0.0
C52 C 0.91983 0.36145 1.00642 0.0
H53 H 0.01989 0.3974 0.01324 0.0
C54 C 0.94398 0.34191 0.99155 0.0
H55 H 0.93408 0.31731 0.97745 0.0
H56 H 0.89191 0.35154 1.00439 0.0
H57 H 0.81936 0.79468 0.24892 0.0
C58 C 0.82573 0.78517 0.22506 0.0
C59 C 0.84402 0.8073 0.20739 0.0
C60 C 0.81651 0.75052 0.21252 0.0
H61 H 0.86695 0.81034 0.16271 0.0
C62 C 0.85204 0.79417 0.17644 0.0
C63 C 0.84119 0.75996 0.16309 0.0
C64 C 0.82403 0.73828 0.18144 0.0
C65 C 0.79973 0.7266 0.2318 0.0
H66 H 0.81662 0.71161 0.17149 0.0
C67 C 0.76952 0.73343 0.24784 0.0
C68 C 0.75211 0.70943 0.26415 0.0
C69 C 0.81316 0.69594 0.23308 0.0
H70 H 0.83657 0.69018 0.22117 0.0
C71 C 0.79641 0.67232 0.24955 0.0
H72 H 0.75904 0.75703 0.24688 0.0
C73 C 0.76588 0.67877 0.26469 0.0
H74 H 0.75257 0.65933 0.27608 0.0
H75 H 0.80676 0.64863 0.25009 0.0
H76 H 0.18361 0.98074 0.46791 0.0
C77 C 0.16066 0.9866 0.45485 0.0
C78 C 0.16425 0.01427 0.43897 0.0
C79 C 0.1279 0.96605 0.45362 0.0
H80 H 0.13771 0.04263 0.40897 0.0
C81 C 0.1348 0.02135 0.42143 0.0
C82 C 0.10195 1.00049 0.41915 0.0
C83 C 0.09852 0.97325 0.43597 0.0
C84 C 0.12615 0.93472 0.46745 0.0
H85 H 0.07357 0.95659 0.43394 0.0
C86 C 0.10494 0.92961 0.4926 0.0
C87 C 0.10564 0.9002 0.50632 0.0
C88 C 0.14739 0.91009 0.45584 0.0
H89 H 0.16385 0.91355 0.43654 0.0
C90 C 0.14764 0.88082 0.46889 0.0
H91 H 0.08902 0.94886 0.50203 0.0
C92 C 0.12704 0.8759 0.49394 0.0
H93 H 0.12768 0.85284 0.50356 0.0
H94 H 0.16398 0.86191 0.45964 0.0
H95 H 0.30809 0.68025 0.75345 0.0
C96 C 0.30228 0.69299 0.7765 0.0
C97 C 0.3166 0.68342 0.80395 0.0
C98 C 0.28082 0.71902 0.7783 0.0
H99 H 0.32265 0.69542 0.85498 0.0
C100 C 0.31031 0.70159 0.83378 0.0
C101 C 0.28861 0.72784 0.83623 0.0
C102 C 0.27358 0.73581 0.80816 0.0
C103 C 0.26754 0.72961 0.74878 0.0
H104 H 0.25697 0.75585 0.80947 0.0
C105 C 0.23194 0.73507 0.74388 0.0
C106 C 0.21974 0.74454 0.71546 0.0
C107 C 0.29084 0.73425 0.72515 0.0
H108 H 0.31845 0.73074 0.72844 0.0
C109 C 0.27896 0.74389 0.69719 0.0
H110 H 0.2138 0.73182 0.76201 0.0
C111 C 0.24371 0.74895 0.69229 0.0
H112 H 0.23504 0.75597 0.67015 0.0
H113 H 0.29716 0.74737 0.67917 0.0
H114 H 0.95478 0.64237 0.48091 0.0
C115 C 0.94272 0.61813 0.48569 0.0
C116 C 0.93481 0.61503 0.51659 0.0
C117 C 0.93561 0.59024 0.46097 0.0
H118 H 0.91234 0.5814 0.54656 0.0
C119 C 0.91922 0.58369 0.5228 0.0
C120 C 0.91092 0.55578 0.49791 0.0
C121 C 0.91969 0.55905 0.46711 0.0
C122 C 0.94469 0.59434 0.42881 0.0
H123 H 0.91359 0.53752 0.44789 0.0
C124 C 0.97019 0.5763 0.41391 0.0
C125 C 0.98156 0.58291 0.38472 0.0
C126 C 0.92986 0.61835 0.41397 0.0
H127 H 0.91031 0.63262 0.42525 0.0
C128 C 0.94031 0.62422 0.38455 0.0
H129 H 0.98219 0.55824 0.42561 0.0
C130 C 0.96612 0.60672 0.37 0.0
H131 H 0.97396 0.61171 0.3472 0.0
H132 H 0.92865 0.64262 0.37313 0.0
H133 H 0.8754 0.85831 0.80852 0.0
C134 C 0.87841 0.8377 0.82125 0.0
C135 C 0.90129 0.81403 0.81089 0.0
C136 C 0.85982 0.83544 0.84822 0.0
H137 H 0.92225 0.76888 0.81997 0.0
C138 C 0.90538 0.78777 0.8281 0.0
C139 C 0.88721 0.78541 0.8555 0.0
C140 C 0.86433 0.80928 0.86516 0.0
C141 C 0.83598 0.8607 0.85905 0.0
H142 H 0.8491 0.80696 0.88544 0.0
C143 C 0.81059 0.86922 0.83769 0.0
C144 C 0.78843 0.89352 0.8482 0.0
C145 C 0.83875 0.87659 0.891 0.0
H146 H 0.85818 0.87059 0.90784 0.0
C147 C 0.81695 0.90086 0.9014 0.0
H148 H 0.80805 0.85699 0.81302 0.0
C149 C 0.79202 0.9094 0.88016 0.0
H150 H 0.7752 0.92817 0.88876 0.0
H151 H 0.81941 0.91312 0.92602 0.0
H152 H 0.37576 0.36689 0.30849 0.0
C153 C 0.37742 0.34675 0.32208 0.0
C154 C 0.39528 0.3193 0.31073 0.0
C155 C 0.36223 0.34887 0.35117 0.0
H156 H 0.40972 0.27161 0.31924 0.0
C157 C 0.39763 0.29362 0.3289 0.0
C158 C 0.38322 0.29565 0.35862 0.0
C159 C 0.36591 0.32376 0.3696 0.0
C160 C 0.3421 0.3772 0.36214 0.0
H161 H 0.35465 0.32592 0.39235 0.0
C162 C 0.31472 0.38483 0.3422 0.0
C163 C 0.29524 0.41141 0.35278 0.0
C164 C 0.34992 0.39651 0.39269 0.0
H165 H 0.37091 0.39114 0.40839 0.0
C166 C 0.33103 0.42323 0.40308 0.0
H167 H 0.30843 0.36994 0.31862 0.0
C168 C 0.30391 0.43071 0.38329 0.0
H169 H 0.28926 0.45127 0.39202 0.0
H170 H 0.33733 0.43812 0.42661 0.0
H171 H 0.50969 0.92897 0.57231 0.0
C172 C 0.50309 0.95267 0.56645 0.0
C173 C 0.51535 0.9835 0.58687 0.0
C174 C 0.48163 0.95191 0.53887 0.0
H175 H 0.51585 0.03815 0.59397 0.0
C176 C 0.50684 0.01413 0.5785 0.0
C177 C 0.48622 0.01343 0.55003 0.0
C178 C 0.47329 0.98217 0.53074 0.0
C179 C 0.4676 0.91931 0.5186 0.0
H180 H 0.45679 0.98141 0.50914 0.0
C181 C 0.49076 0.89941 0.50239 0.0
C182 C 0.47739 0.8688 0.4822 0.0
C183 C 0.43098 0.90825 0.51509 0.0
H184 H 0.41281 0.92343 0.52747 0.0
C185 C 0.41767 0.87733 0.49578 0.0
H186 H 0.51905 0.90809 0.50504 0.0
C187 C 0.44069 0.85767 0.47937 0.0
H188 H 0.42976 0.83421 0.4638 0.0
H189 H 0.38941 0.8688 0.49322 0.0
H190 H 0.32099 0.29947 0.75436 0.0
C191 C 0.32538 0.29037 0.72986 0.0
C192 C 0.34104 0.31297 0.71129 0.0
C193 C 0.31672 0.25565 0.71736 0.0
H194 H 0.35895 0.31749 0.66517 0.0
C195 C 0.34761 0.30027 0.67989 0.0
C196 C 0.33933 0.26555 0.66723 0.0
C197 C 0.32387 0.2435 0.68613 0.0
C198 C 0.30037 0.23158 0.73663 0.0
H199 H 0.31748 0.21664 0.67652 0.0
C200 C 0.2684 0.2367 0.7504 0.0
C201 C 0.25058 0.21178 0.76547 0.0
C202 C 0.31541 0.20209 0.7394 0.0
H203 H 0.34006 0.19764 0.72904 0.0
C204 C 0.29869 0.17799 0.75541 0.0
H205 H 0.25701 0.25964 0.74855 0.0
C206 C 0.26637 0.1826 0.76816 0.0
H207 H 0.25333 0.16294 0.77948 0.0
H208 H 0.31046 0.15531 0.75739 0.0
H209 H 0.85091 0.25858 0.74682 0.0
C210 C 0.83208 0.23728 0.75014 0.0
C211 C 0.84387 0.21028 0.76317 0.0
C212 C 0.79577 0.23762 0.74271 0.0
H213 H 0.82671 0.1632 0.77916 0.0
C214 C 0.81859 0.18335 0.76787 0.0
C215 C 0.78236 0.18318 0.75969 0.0
C216 C 0.77136 0.21014 0.74686 0.0
C217 C 0.78205 0.26738 0.73293 0.0
H218 H 0.74342 0.20995 0.74025 0.0
C219 C 0.79197 0.27906 0.7052 0.0
C220 C 0.77479 0.30437 0.69403 0.0
C221 C 0.75602 0.2822 0.75023 0.0
H222 H 0.74805 0.27368 0.77171 0.0
C223 C 0.73928 0.30738 0.73958 0.0
H224 H 0.8121 0.26766 0.6919 0.0
C225 C 0.74803 0.31796 0.71144 0.0
H226 H 0.73304 0.33614 0.70294 0.0
H227 H 0.71872 0.3181 0.75275 0.0
H228 H 0.62637 0.53172 0.5417 0.0
C229 C 0.60767 0.52633 0.55892 0.0
C230 C 0.60898 0.49746 0.57308 0.0
C231 C 0.58402 0.54942 0.56825 0.0
H232 H 0.58702 0.46992 0.60824 0.0
C233 C 0.58568 0.49164 0.59668 0.0
C234 C 0.56139 0.51452 0.60596 0.0
C235 C 0.56094 0.54327 0.59158 0.0
C236 C 0.58749 0.58272 0.55779 0.0
H237 H 0.54343 0.5617 0.59946 0.0
C238 C 0.57787 0.58603 0.52635 0.0
C239 C 0.58227 0.61832 0.51744 0.0
C240 C 0.6013 0.61173 0.58 0.0
H241 H 0.60887 0.60967 0.60423 0.0
C242 C 0.60595 0.64352 0.57114 0.0
H243 H 0.56705 0.56379 0.50908 0.0
C244 C 0.59662 0.64683 0.54011 0.0
H245 H 0.6001 0.67187 0.53387 0.0
H246 H 0.61676 0.6657 0.58843 0.0
H247 H 0.68394 0.475 0.97217 0.0
C248 C 0.66039 0.48078 0.95994 0.0
C249 C 0.66281 0.50897 0.94473 0.0
C250 C 0.62808 0.45961 0.95903 0.0
H251 H 0.63469 0.53726 0.91578 0.0
C252 C 0.63261 0.51586 0.92809 0.0
C253 C 0.60008 0.49463 0.92639 0.0
C254 C 0.5979 0.46671 0.94237 0.0
C255 C 0.62762 0.42789 0.97214 0.0
H256 H 0.57337 0.44946 0.94039 0.0
C257 C 0.60758 0.42185 0.99778 0.0
C258 C 0.61006 0.39245 0.01112 0.0
C259 C 0.64916 0.40398 0.95948 0.0
H260 H 0.66474 0.40814 0.9398 0.0
C261 C 0.65081 0.3745 0.97197 0.0
H262 H 0.59115 0.44035 0.00787 0.0
C263 C 0.63147 0.36874 0.99756 0.0
H264 H 0.63303 0.34548 1.00664 0.0
H265 H 0.66727 0.3561 0.96184 0.0
H266 H 0.80287 0.17886 0.25622 0.0
C267 C 0.79847 0.19266 0.2793 0.0
C268 C 0.80999 0.18129 0.30673 0.0
C269 C 0.78119 0.22166 0.28131 0.0
H270 H 0.81415 0.19172 0.35782 0.0
C271 C 0.80451 0.19986 0.33653 0.0
C272 C 0.78782 0.22948 0.33914 0.0
C273 C 0.77575 0.23983 0.31118 0.0
C274 C 0.77223 0.23472 0.25208 0.0
H275 H 0.76419 0.26318 0.31252 0.0
C276 C 0.73691 0.23762 0.24245 0.0
C277 C 0.72903 0.24872 0.21371 0.0
C278 C 0.79955 0.24362 0.2332 0.0
H279 H 0.82686 0.24165 0.24026 0.0
C280 C 0.79195 0.25528 0.20519 0.0
H281 H 0.71567 0.2301 0.25663 0.0
C282 C 0.75701 0.25773 0.19543 0.0
H283 H 0.7518 0.26671 0.17347 0.0
H284 H 0.81322 0.26225 0.19087 0.0
H285 H 0.46435 0.13256 0.98375 0.0
C286 C 0.45306 0.10796 0.98827 0.0
C287 C 0.44409 0.10458 0.01882 0.0
C288 C 0.4477 0.07999 0.96351 0.0
H289 H 0.42142 0.07048 0.04818 0.0
C290 C 0.42902 0.07293 0.02465 0.0
C291 C 0.42282 0.04471 0.99983 0.0
C292 C 0.43302 0.04827 0.96945 0.0
C293 C 0.45614 0.08478 0.9313 0.0
H294 H 0.42798 0.02677 0.95012 0.0
C295 C 0.48002 0.06586 0.91481 0.0
C296 C 0.49035 0.07287 0.88543 0.0
C297 C 0.44175 0.10991 0.9177 0.0
H298 H 0.42324 0.1247 0.93002 0.0
C299 C 0.4512 0.1162 0.88813 0.0
H300 H 0.49163 0.0468 0.92538 0.0
C301 C 0.4755 0.09793 0.87211 0.0
H302 H 0.48271 0.10332 0.84926 0.0
H303 H 0.43992 0.13551 0.87776 0.0
Zn304 Zn 0.33533 0.84351 0.0142 0.0
Zn305 Zn 0.27341 0.86992 0.01355 0.0
O306 O 0.27571 0.85002 0.05523 0.0
O307 O 0.32726 0.83089 0.05664 0.0
O308 O 0.2301 0.89605 0.01734 0.0
O309 O 0.36332 0.88871 0.01131 0.0
O310 O 0.31283 0.9098 0.01306 0.0
C311 C 0.29877 0.83609 0.0693 0.0
C312 C 0.28744 0.81231 0.95978 0.0
O313 O 0.26759 0.83426 0.97078 0.0
O314 O 0.31665 0.8106 0.97455 0.0
C315 C 0.20201 0.889 0.03112 0.0
O316 O 0.19696 0.86014 0.04153 0.0
C317 C 0.34643 0.91387 0.01189 0.0
Zn318 Zn 0.09957 0.45107 0.27182 0.0
Zn319 Zn 0.13964 0.50941 0.26712 0.0
O320 O 0.10698 0.52592 0.30082 0.0
O321 O 0.07524 0.47828 0.30664 0.0
O322 O 0.17417 0.54997 0.26336 0.0
O323 O 0.14305 0.42924 0.28296 0.0
O324 O 0.17392 0.47834 0.28095 0.0
C325 C 0.08253 0.51028 0.31404 0.0
C326 C 0.08829 0.47298 0.21131 0.0
O327 O 0.11235 0.49724 0.22338 0.0
O328 O 0.07933 0.44942 0.22659 0.0
C329 C 0.16784 0.58047 0.26804 0.0
O330 O 0.13614 0.58704 0.27545 0.0
C331 C 0.17262 0.44816 0.28628 0.0
Zn332 Zn 0.87431 0.60092 0.92933 0.0
Zn333 Zn 0.86085 0.64194 0.98208 0.0
O334 O 0.89924 0.61589 0.99854 0.0
O335 O 0.91342 0.585 0.95503 0.0
O336 O 0.85015 0.67231 0.02156 0.0
O337 O 0.88396 0.64179 0.90752 0.0
O338 O 0.87507 0.67499 0.9517 0.0
C339 C 0.91785 0.59446 0.98483 0.0
C340 C 0.8026 0.58656 0.94714 0.0
O341 O 0.81298 0.61196 0.96902 0.0
O342 O 0.82392 0.57611 0.92726 0.0
C343 C 0.87299 0.69476 0.03842 0.0
O344 O 0.90549 0.69913 0.02966 0.0
C345 C 0.88276 0.67128 0.9229 0.0
Zn346 Zn 0.90467 1.00227 0.32 0.0
Zn347 Zn 0.94042 0.0161 0.27149 0.0
O348 O 0.90857 0.05597 0.27939 0.0
O349 O 0.8774 0.04125 0.31765 0.0
O350 O 0.96989 0.02343 0.23341 0.0
O351 O 0.94873 0.00854 0.34898 0.0
O352 O 0.97933 0.01635 0.3083 0.0
C353 C 0.88436 0.06136 0.29854 0.0
C354 C 0.89269 0.94706 0.26885 0.0
O355 O 0.91168 0.96813 0.25558 0.0
O356 O 0.88608 0.95515 0.29745 0.0
C357 C 0.98057 0.99829 0.21597 0.0
O358 O 0.97238 0.96782 0.22259 0.0
C359 C 0.97838 0.01333 0.33744 0.0
Zn360 Zn 0.37687 0.1129 0.43265 0.0
Zn361 Zn 0.35768 0.15043 0.48525 0.0
O362 O 0.39793 0.12611 0.50174 0.0
O363 O 0.41555 0.09731 0.45866 0.0
O364 O 0.34594 0.17923 0.52531 0.0
O365 O 0.38738 0.15514 0.41302 0.0
O366 O 0.36887 0.18484 0.45538 0.0
C367 C 0.41841 0.10623 0.48851 0.0
C368 C 0.30381 0.0938 0.44748 0.0
O369 O 0.31173 0.11827 0.47073 0.0
O370 O 0.32668 0.08641 0.42798 0.0
C371 C 0.36958 0.20153 0.54139 0.0
O372 O 0.40118 0.20602 0.53077 0.0
C373 C 0.3806 0.18314 0.428 0.0
Zn374 Zn 0.40556 0.50831 0.82245 0.0
Zn375 Zn 0.44843 0.51669 0.77565 0.0
O376 O 0.41974 0.55881 0.77991 0.0
O377 O 0.38712 0.55232 0.81997 0.0
O378 O 0.48069 0.52009 0.73869 0.0
O379 O 0.44817 0.50734 0.85204 0.0
O380 O 0.48362 0.51589 0.81463 0.0
C381 C 0.39717 0.5692 0.79907 0.0
C382 C 0.39192 0.4528 0.77086 0.0
O383 O 0.41785 0.46982 0.76052 0.0
O384 O 0.38027 0.46432 0.79698 0.0
C385 C 0.4683 0.5104 0.7099 0.0
O386 O 0.43422 0.49953 0.70415 0.0
C387 C 0.47923 0.51138 0.84301 0.0
Zn388 Zn 0.83673 0.35531 0.51995 0.0
Zn389 Zn 0.77168 0.37404 0.51448 0.0
O390 O 0.77687 0.35649 0.55714 0.0
O391 O 0.82825 0.33689 0.55978 0.0
O392 O 0.72418 0.39365 0.51872 0.0
O393 O 0.85994 0.40349 0.52176 0.0
O394 O 0.80672 0.41665 0.51143 0.0
C395 C 0.79936 0.34224 0.57149 0.0
C396 C 0.79404 0.32036 0.46216 0.0
O397 O 0.76926 0.33675 0.47301 0.0
O398 O 0.82399 0.32483 0.47776 0.0
C399 C 0.72559 0.41922 0.54106 0.0
O400 O 0.75593 0.42998 0.55796 0.0
C401 C 0.84027 0.425 0.51566 0.0
Zn402 Zn 0.60099 0.94251 0.76204 0.0
Zn403 Zn 0.6441 1.00102 0.76213 0.0
O404 O 0.61128 0.01577 0.79615 0.0
O405 O 0.57675 0.96834 0.79802 0.0
O406 O 0.68005 0.04173 0.76223 0.0
O407 O 0.64338 0.91858 0.77245 0.0
O408 O 0.67625 0.96757 0.77408 0.0
C409 C 0.58571 0.99989 0.80785 0.0
C410 C 0.59391 0.97007 0.70371 0.0
O411 O 0.61824 0.99298 0.71792 0.0
O412 O 0.58297 0.94532 0.71695 0.0
C413 C 0.67298 0.07194 0.76813 0.0
O414 O 0.6404 0.07721 0.77368 0.0
C415 C 0.67348 0.93667 0.77745 0.0
Zn416 Zn 0.05866 0.26575 0.83414 0.0
Zn417 Zn 0.05197 0.20867 0.85636 0.0
O418 O 0.09891 0.21046 0.83314 0.0
O419 O 0.10087 0.25579 0.81077 0.0
O420 O 0.05487 0.16898 0.87992 0.0
O421 O 0.06344 0.29496 0.87722 0.0
O422 O 0.04875 0.24704 0.89381 0.0
C423 C 0.11398 0.22972 0.81565 0.0
C424 C 0.99136 0.22271 0.81375 0.0
O425 O 1.00443 0.20087 0.82768 0.0
O426 O 1.00928 0.25131 0.81372 0.0
C427 C 0.03296 0.16182 0.89992 0.0
O428 O 1.00483 0.17762 0.90241 0.0
C429 C 0.05437 0.27932 0.89927 0.0
Zn430 Zn 0.55652 0.76342 0.32523 0.0
Zn431 Zn 0.5558 0.71336 0.3585 0.0
O432 O 0.60259 0.71472 0.33522 0.0
O433 O 0.60257 0.75584 0.30751 0.0
O434 O 0.56252 0.67891 0.38726 0.0
O435 O 0.55379 0.79758 0.36475 0.0
O436 O 0.55005 0.7553 0.3911 0.0
C437 C 0.61739 0.73228 0.31625 0.0
C438 C 0.49453 0.71249 0.30922 0.0
O439 O 0.50819 0.69835 0.33057 0.0
O440 O 0.51082 0.73918 0.30216 0.0
C441 C 0.53891 0.66497 0.40254 0.0
O442 O 0.50593 0.67058 0.39812 0.0
C443 C 0.54969 0.78667 0.39042 0.0
Zn444 Zn 0.9628 0.81469 0.62405 0.0
Zn445 Zn 0.02279 0.79589 0.64644 0.0
O446 O 0.03776 0.83192 0.61876 0.0
O447 O 0.9892 0.84941 0.60155 0.0
O448 O 0.07031 0.78669 0.66396 0.0
O449 O 0.94748 0.82547 0.66864 0.0
O450 O 0.99596 0.80813 0.68638 0.0
C451 C 0.0226 0.85048 0.60238 0.0
C452 C 0.97063 0.7435 0.60233 0.0
O453 O 0.99995 0.75078 0.61938 0.0
O454 O 0.95079 0.76621 0.60045 0.0
C455 C 0.07448 0.76357 0.68005 0.0
O456 O 0.04642 0.7439 0.68597 0.0
C457 C 0.9664 0.81898 0.69148 0.0
Zn458 Zn 0.46379 0.3048 0.12332 0.0
Zn459 Zn 0.52168 0.28729 0.15115 0.0
O460 O 0.54006 0.32249 0.12357 0.0
O461 O 0.49292 0.33883 0.10213 0.0
O462 O 0.56698 0.27832 0.17369 0.0
O463 O 0.44397 0.31715 0.16573 0.0
O464 O 0.49079 0.30121 0.18811 0.0
C465 C 0.52635 0.3404 0.10558 0.0
C466 C 0.4729 0.23368 0.10455 0.0
O467 O 0.50067 0.24159 0.12367 0.0
O468 O 0.45334 0.25603 0.10046 0.0
C469 C 0.58868 0.26134 0.15875 0.0
O470 O 0.58094 0.24916 0.12845 0.0
C471 C 0.46075 0.31196 0.19033 0.0
C472 C 0.28447 0.78409 0.87115 0.0
C473 C 0.28319 0.74849 0.86773 0.0
C474 C 0.28241 0.80454 0.9008 0.0
C475 C 0.27928 0.7903 0.92831 0.0
H476 H 0.28882 0.7966 0.85103 0.0
H477 H 0.28561 0.83184 0.90249 0.0
S478 S 0.27062 0.69877 0.93249 0.0
N479 N 0.27454 0.69995 0.89458 0.0
N480 N 0.27269 0.73864 0.95032 0.0
C481 C 0.2765 0.75486 0.92522 0.0
C482 C 0.27796 0.73392 0.895 0.0
C483 C 1.00585 0.52949 0.36392 0.0
C484 C 0.00957 0.56507 0.36954 0.0
C485 C 0.03047 0.51203 0.34715 0.0
C486 C 0.05988 0.52952 0.3355 0.0
H487 H 0.98305 0.515 0.37154 0.0
H488 H 0.02567 0.48457 0.34246 0.0
S489 S 0.08388 0.62316 0.348 0.0
N490 N 0.04637 0.6174 0.36506 0.0
N491 N 0.09286 0.58482 0.33369 0.0
C492 C 0.06485 0.56525 0.34258 0.0
C493 C 0.03961 0.58296 0.35949 0.0
C494 C 0.8864 0.72337 0.85681 0.0
C495 C 0.89022 0.75701 0.8732 0.0
C496 C 0.88525 0.69596 0.8731 0.0
C497 C 0.8877 0.70102 0.90649 0.0
H498 H 0.88291 0.71805 0.83117 0.0
H499 H 0.88117 0.67053 0.85929 0.0
S500 S 0.90262 0.78447 0.96053 0.0
N501 N 0.90008 0.79405 0.92468 0.0
N502 N 0.89723 0.74263 0.9553 0.0
C503 C 0.89307 0.73464 0.92316 0.0
C504 C 0.89448 0.76256 0.90655 0.0
C505 C 0.03795 0.0071 0.40976 0.0
C506 C 0.0716 0.00612 0.39818 0.0
C507 C 1.00849 0.01063 0.39015 0.0
C508 C 0.01125 0.01306 0.35794 0.0
H509 H 0.03428 1.00494 0.4342 0.0
H510 H 0.98315 0.01082 0.40038 0.0
S511 S 0.09381 0.01177 0.316 0.0
N512 N 0.10629 0.00798 0.35252 0.0
N513 N 0.05094 0.01469 0.31561 0.0
C514 C 0.04499 0.01275 0.34619 0.0
C515 C 0.0751 0.00924 0.36628 0.0
C516 C 0.32087 0.22972 0.61401 0.0
C517 C 0.34709 0.25181 0.6344 0.0
C518 C 0.32817 0.21435 0.58375 0.0
C519 C 0.36208 0.22033 0.57264 0.0
H520 H 0.2945 0.224 0.62163 0.0
H521 H 0.30712 0.19717 0.56921 0.0
S522 S 0.43991 0.27678 0.61688 0.0
N523 N 0.40814 0.27933 0.64144 0.0
N524 N 0.42197 0.25083 0.58445 0.0
C525 C 0.38836 0.24308 0.59259 0.0
C526 C 0.38084 0.25873 0.62345 0.0
C527 C 0.55121 0.51128 0.66304 0.0
C528 C 0.53737 0.51015 0.63173 0.0
C529 C 0.52889 0.51162 0.68823 0.0
C530 C 0.49179 0.51038 0.68303 0.0
H531 H 0.57959 0.51297 0.66824 0.0
H532 H 0.54084 0.51285 0.71194 0.0
S533 S 0.44251 0.50621 0.60495 0.0
N534 N 0.48443 0.50726 0.59681 0.0
N535 N 0.44252 0.50734 0.64355 0.0
C536 C 0.47773 0.50854 0.65159 0.0
C537 C 0.50046 0.50859 0.62615 0.0
C538 C 0.78771 0.29053 0.63682 0.0
C539 C 0.7827 0.31498 0.66322 0.0
C540 C 0.79306 0.29953 0.60712 0.0
C541 C 0.79263 0.33309 0.60254 0.0
H542 H 0.78684 0.26408 0.63887 0.0
H543 H 0.79697 0.28001 0.58747 0.0
S544 S 0.78421 0.40737 0.66386 0.0
N545 N 0.7812 0.37505 0.68298 0.0
N546 N 0.78892 0.3912 0.62661 0.0
C547 C 0.78809 0.35785 0.62851 0.0
C548 C 0.78368 0.34899 0.65897 0.0
C549 C 0.52311 0.95826 0.63558 0.0
C550 C 0.53563 0.98236 0.61724 0.0
C551 C 0.5426 0.95406 0.66285 0.0
C552 C 0.57544 0.97402 0.67336 0.0
H553 H 0.49789 0.94232 0.62872 0.0
H554 H 0.53141 0.93521 0.67603 0.0
S555 S 0.62028 0.04076 0.63373 0.0
N556 N 0.58316 0.02627 0.6112 0.0
N557 N 0.61967 0.01907 0.66307 0.0
C558 C 0.58821 0.99857 0.65544 0.0
C559 C 0.56831 1.00266 0.62736 0.0
C560 C 0.90006 0.24305 0.79134 0.0
C561 C 0.88187 0.21203 0.77489 0.0
C562 C 0.93525 0.24577 0.80363 0.0
C563 C 0.95388 0.21753 0.80058 0.0
H564 H 0.88686 0.26548 0.79533 0.0
H565 H 0.94782 0.27033 0.81615 0.0
S566 S 0.91938 0.13063 0.75883 0.0
N567 N 0.88594 0.15246 0.75511 0.0
N568 N 0.95194 0.15759 0.7796 0.0
C569 C 0.93621 0.18622 0.7845 0.0
C570 C 0.90031 0.18349 0.77134 0.0
C571 C 0.49971 0.81426 0.46169 0.0
C572 C 0.50112 0.84933 0.46249 0.0
C573 C 0.51808 0.79448 0.43992 0.0
C574 C 0.53807 0.80902 0.41781 0.0
H575 H 0.48329 0.80185 0.47729 0.0
H576 H 0.51472 0.76731 0.43918 0.0
S577 S 0.55315 0.90045 0.41253 0.0
N578 N 0.52632 0.89832 0.44122 0.0
N579 N 0.56092 0.86122 0.40025 0.0
C580 C 0.54147 0.84444 0.41976 0.0
C581 C 0.52295 0.86458 0.4421 0.0
C582 C 0.20722 0.20723 0.8072 0.0
C583 C 0.21506 0.21546 0.77749 0.0
C584 C 0.17395 0.21061 0.81898 0.0
C585 C 0.14749 0.22279 0.80167 0.0
H586 H 0.22718 0.19871 0.82176 0.0
H587 H 0.16935 0.20475 0.84223 0.0
S588 S 0.15279 0.24407 0.72124 0.0
N589 N 0.192 0.23306 0.72979 0.0
N590 N 0.13021 0.24076 0.75252 0.0
C591 C 0.15458 0.23027 0.77167 0.0
C592 C 0.18816 0.22632 0.75945 0.0
C593 C 0.59629 0.64021 0.46787 0.0
C594 C 0.57146 0.62357 0.48502 0.0
C595 C 0.58574 0.65164 0.44018 0.0
C596 C 0.54975 0.64746 0.42875 0.0
H597 H 0.62399 0.64564 0.47667 0.0
H598 H 0.60586 0.66542 0.42862 0.0
S599 S 0.4747 0.60267 0.46368 0.0
N600 N 0.50978 0.60115 0.48753 0.0
N601 N 0.48963 0.62283 0.43565 0.0
C602 C 0.52488 0.62921 0.44484 0.0
C603 C 0.5358 0.61721 0.4729 0.0
C604 C 0.90008 0.82227 0.75439 0.0
C605 C 0.91942 0.81628 0.78127 0.0
C606 C 0.91593 0.82433 0.72603 0.0
C607 C 0.95185 0.82024 0.72308 0.0
H608 H 0.87212 0.82474 0.755 0.0
H609 H 0.89942 0.82828 0.70599 0.0
S610 S 0.01501 0.80642 0.7872 0.0
N611 N 0.97708 0.80832 0.80382 0.0
N612 N 1.0068 0.81135 0.75023 0.0
C613 C 0.97178 0.81487 0.74999 0.0
C614 C 0.95559 0.813 0.77906 0.0
C615 C 0.10074 0.88255 0.55927 0.0
C616 C 0.08455 0.89393 0.5335 0.0
C617 C 0.08074 0.87058 0.5825 0.0
C618 C 0.04358 0.86948 0.58107 0.0
H619 H 0.12908 0.88167 0.56087 0.0
H620 H 0.09448 0.86079 0.601 0.0
S621 S 0.98871 0.89971 0.52006 0.0
N622 N 0.02954 0.90575 0.50913 0.0
N623 N 0.99179 0.8838 0.55293 0.0
C624 C 0.02732 0.88298 0.55654 0.0
C625 C 0.04781 0.89508 0.53277 0.0
C626 C 0.17468 0.7788 0.69745 0.0
C627 C 0.18218 0.74984 0.70933 0.0
C628 C 0.13984 0.78317 0.68863 0.0
C629 C 0.11087 0.75878 0.69133 0.0
H630 H 0.19605 0.79817 0.6946 0.0
H631 H 0.13571 0.80581 0.6793 0.0
S632 S 0.11621 0.67837 0.72139 0.0
N633 N 0.15783 0.69639 0.72353 0.0
N634 N 0.09218 0.70468 0.70737 0.0
C635 C 0.1179 0.73 0.7039 0.0
C636 C 0.15354 0.72554 0.71283 0.0
C637 C 0.92357 0.67331 0.5383 0.0
C638 C 0.94141 0.64558 0.54152 0.0
C639 C 0.93252 0.70441 0.5588 0.0
C640 C 0.96007 0.70916 0.58307 0.0
H641 H 0.90313 0.67117 0.51921 0.0
H642 H 0.91841 0.72518 0.55478 0.0
S643 S 0.01358 0.64333 0.60219 0.0
N644 N 0.98654 0.6238 0.57135 0.0
N645 N 1.00389 0.6825 0.61003 0.0
C646 C 0.9774 0.68112 0.58713 0.0
C647 C 0.9679 0.64925 0.56633 0.0
C648 C 0.86989 0.85152 0.25398 0.0
C649 C 0.8562 0.84351 0.22205 0.0
C650 C 0.88133 0.88507 0.26873 0.0
C651 C 0.88044 0.91208 0.25206 0.0
H652 H 0.87217 0.83167 0.26775 0.0
H653 H 0.89154 0.88985 0.29336 0.0
S654 S 0.84606 0.90571 0.16861 0.0
N655 N 0.84091 0.86615 0.1747 0.0
N656 N 0.8645 0.92909 0.20221 0.0
C657 C 0.86731 0.90472 0.22013 0.0
C658 C 0.85473 0.87051 0.20519 0.0
C659 C 0.85692 0.14645 0.28504 0.0
C660 C 0.82827 0.15031 0.30419 0.0
C661 C 0.87469 0.11759 0.28286 0.0
C662 C 0.86441 0.09129 0.29963 0.0
H663 H 0.86609 0.1662 0.27203 0.0
H664 H 0.89692 0.11614 0.26827 0.0
S665 S 0.78861 0.0879 0.35076 0.0
N666 N 0.78905 0.12452 0.33853 0.0
N667 N 0.82183 0.07057 0.33469 0.0
C668 C 0.83508 0.09463 0.31823 0.0
C669 C 0.81724 0.124 0.32047 0.0
C670 C 0.41836 0.98176 0.99605 0.0
C671 C 0.40378 0.01195 1.00489 0.0
C672 C 0.39989 0.9503 0.99898 0.0
C673 C 0.36584 0.94775 0.01035 0.0
H674 H 0.44423 0.98249 0.9867 0.0
H675 H 0.41218 0.92774 0.99165 0.0
S676 S 0.31612 0.01964 0.03673 0.0
N677 N 0.35357 0.03761 0.02564 0.0
N678 N 0.31863 0.97854 0.03101 0.0
C679 C 0.35108 0.97789 0.01946 0.0
C680 C 0.37012 0.00995 0.01681 0.0
C681 C 0.26429 0.4524 0.32759 0.0
C682 C 0.26545 0.41902 0.33254 0.0
C683 C 0.23488 0.4611 0.31128 0.0
C684 C 0.20512 0.43686 0.29959 0.0
H685 H 0.28608 0.47212 0.33693 0.0
H686 H 0.23506 0.48739 0.30888 0.0
S687 S 0.19598 0.34536 0.30493 0.0
N688 N 0.23523 0.36121 0.32331 0.0
N689 N 0.17974 0.37743 0.29275 0.0
C690 C 0.20652 0.40306 0.30344 0.0
C691 C 0.23672 0.39417 0.31985 0.0
C692 C 0.2052 0.0689 0.45425 0.0
C693 C 0.19944 0.03465 0.43953 0.0
C694 C 0.23903 0.08791 0.45661 0.0
C695 C 0.26807 0.0735 0.44374 0.0
H696 H 0.1836 0.08081 0.46462 0.0
H697 H 0.24243 0.1141 0.46858 0.0
S698 S 0.26601 0.9848 0.4019 0.0
N699 N 0.22491 0.98712 0.41151 0.0
N700 N 0.2883 0.02281 0.41524 0.0
C701 C 0.26226 0.03938 0.42832 0.0
C702 C 0.228 0.01997 0.42642 0.0
C703 C 0.75965 0.12135 0.75234 0.0
C704 C 0.75556 0.15504 0.7646 0.0
C705 C 0.73299 0.09462 0.754 0.0
C706 C 0.70122 0.10063 0.76794 0.0
H707 H 0.78315 0.11571 0.74051 0.0
H708 H 0.73704 0.06914 0.7436 0.0
S709 S 0.67961 0.18413 0.80694 0.0
N710 N 0.71894 0.19282 0.79368 0.0
N711 N 0.66858 0.14269 0.79648 0.0
C712 C 0.69741 0.13416 0.78131 0.0
C713 C 0.72464 0.16132 0.77975 0.0
C714 C 0.45066 0.06187 0.55372 0.0
C715 C 0.47699 0.0445 0.53937 0.0
C716 C 0.4337 0.08433 0.53828 0.0
C717 C 0.44228 0.08976 0.50784 0.0
H718 H 0.44126 0.05611 0.57579 0.0
H719 H 0.41192 0.09541 0.54919 0.0
S720 S 0.5138 0.05454 0.463 0.0
N721 N 0.51408 0.03746 0.49531 0.0
N722 N 0.48243 0.07942 0.46623 0.0
C723 C 0.47078 0.07474 0.49471 0.0
C724 C 0.48805 0.05215 0.51048 0.0
C725 C 0.67322 0.49076 0.57161 0.0
C726 C 0.63758 0.476 0.56533 0.0
C727 C 0.70109 0.47209 0.5635 0.0
C728 C 0.69466 0.4379 0.54816 0.0
H729 H 0.67964 0.51708 0.58301 0.0
H730 H 0.72802 0.4848 0.56909 0.0
S731 S 0.60582 0.38742 0.52619 0.0
N732 N 0.59712 0.42515 0.54302 0.0
N733 N 0.64953 0.39005 0.52709 0.0
C734 C 0.65904 0.42282 0.54151 0.0
C735 C 0.63054 0.44182 0.55033 0.0
C736 C 0.81762 0.25829 0.39187 0.0
C737 C 0.78697 0.25151 0.37085 0.0
C738 C 0.81898 0.27999 0.42111 0.0
C739 C 0.78979 0.29637 0.43105 0.0
H740 H 0.84133 0.24735 0.38541 0.0
H741 H 0.84368 0.28422 0.43586 0.0
S742 S 0.70226 0.28609 0.38544 0.0
N743 N 0.72589 0.2619 0.36246 0.0
N744 N 0.72863 0.30329 0.41746 0.0
C745 C 0.75863 0.28954 0.41048 0.0
C746 C 0.75722 0.26713 0.38044 0.0
C747 C 0.51104 0.01895 0.86039 0.0
C748 C 0.51694 0.05446 0.86863 0.0
C749 C 0.53421 1.00138 0.84174 0.0
C750 C 0.56428 0.0187 0.83086 0.0
H751 H 0.48766 1.00478 0.86741 0.0
H752 H 0.52783 0.9741 0.83506 0.0
S753 S 0.59362 0.11169 0.84987 0.0
N754 N 0.55628 0.10622 0.86724 0.0
N755 N 0.60018 0.07346 0.83257 0.0
C756 C 0.57138 0.05419 0.84055 0.0
C757 C 0.5476 0.072 0.85929 0.0
C758 C 0.35451 0.25765 0.39353 0.0
C759 C 0.3843 0.2678 0.37755 0.0
C760 C 0.35418 0.23116 0.41088 0.0
C761 C 0.38321 0.21308 0.41228 0.0
H762 H 0.33075 0.26968 0.39209 0.0
H763 H 0.33045 0.22394 0.42228 0.0
S764 S 0.46879 0.23057 0.37731 0.0
N765 N 0.44497 0.25901 0.36695 0.0
N766 N 0.4431 0.2077 0.39776 0.0
C767 C 0.41328 0.22292 0.39687 0.0
C768 C 0.41412 0.25057 0.37993 0.0
C769 C 0.57332 0.50492 0.87464 0.0
C770 C 0.56919 0.50038 0.9061 0.0
C771 C 0.54437 0.50913 0.85462 0.0
C772 C 0.51006 0.50909 0.86525 0.0
H773 H 0.59905 0.50446 0.86515 0.0
H774 H 0.5489 0.51185 0.83046 0.0
S775 S 0.48589 0.50085 0.94666 0.0
N776 N 0.52876 0.49803 0.94755 0.0
N777 N 0.47431 0.50586 0.91033 0.0
C778 C 0.50585 0.50543 0.89705 0.0
C779 C 0.53535 0.50104 0.91731 0.0
C780 C 0.88297 0.74975 0.12047 0.0
C781 C 0.84827 0.74618 0.13013 0.0
C782 C 0.89058 0.73385 0.09041 0.0
C783 C 0.86373 0.71383 0.06891 0.0
H784 H 0.90458 0.76395 0.13667 0.0
H785 H 0.91789 0.73653 0.0844 0.0
S786 S 0.7677 0.70022 0.08174 0.0
N787 N 0.78636 0.72388 0.1151 0.0
N788 N 0.80039 0.69393 0.05871 0.0
C789 C 0.82861 0.71143 0.07789 0.0
C790 C 0.82096 0.72759 0.10846 0.0
C791 C 0.02353 0.97669 0.1381 0.0
C792 C 0.04278 0.0077 0.13442 0.0
C793 C 1.00359 0.97412 0.16439 0.0
C794 C 1.00172 1.00245 0.18821 0.0
H795 H 0.02338 0.95425 0.12022 0.0
H796 H 0.98915 0.94962 0.1658 0.0
S797 S 0.04965 0.08895 0.19152 0.0
N798 N 0.06066 0.06698 0.15833 0.0
N799 N 0.02244 0.06225 0.20707 0.0
C800 C 0.02117 0.03354 0.1851 0.0
C801 C 0.04183 0.03612 0.15846 0.0
C802 C 0.31756 0.80445 0.14618 0.0
C803 C 0.28921 0.81304 0.16406 0.0
C804 C 0.31978 0.81132 0.11544 0.0
C805 C 0.29371 0.82707 0.10112 0.0
H806 H 0.33885 0.79324 0.15637 0.0
H807 H 0.34264 0.80472 0.10308 0.0
S808 S 0.21229 0.8519 0.13705 0.0
N809 N 0.23313 0.83597 0.16461 0.0
N810 N 0.23742 0.84929 0.10687 0.0
C811 C 0.26453 0.8348 0.1184 0.0
C812 C 0.2623 0.82776 0.14983 0.0
C813 C 0.06294 0.49695 0.13163 0.0
C814 C 0.02897 0.47849 0.12333 0.0
C815 C 0.08218 0.4949 0.16002 0.0
C816 C 0.06821 0.4741 0.1809 0.0
H817 H 0.07509 0.51224 0.11567 0.0
H818 H 0.10839 0.50934 0.16539 0.0
S819 S 0.97851 0.4237 0.17127 0.0
N820 N 0.98091 0.44118 0.13928 0.0
N821 N 0.01695 0.43675 0.19208 0.0
C822 C 0.03375 0.45636 0.17313 0.0
C823 C 0.01417 0.45876 0.14455 0.0
C824 C 0.41212 0.70878 0.25532 0.0
C825 C 0.38468 0.70068 0.27444 0.0
C826 C 0.44775 0.70943 0.26568 0.0
C827 C 0.45746 0.70186 0.29553 0.0
H828 H 0.40608 0.71595 0.23263 0.0
H829 H 0.46798 0.71768 0.25083 0.0
S830 S 0.39573 0.67653 0.3537 0.0
N831 N 0.36954 0.68291 0.32395 0.0
N832 N 0.43663 0.6837 0.34318 0.0
C833 C 0.43026 0.6914 0.31398 0.0
C834 C 0.39384 0.69097 0.30351 0.0
C835 C 0.02616 0.35237 0.95465 0.0
C836 C 1.00511 0.33586 0.97477 0.0
C837 C 0.04491 0.33415 0.93212 0.0
C838 C 0.04319 0.29866 0.92874 0.0
H839 H 0.02636 0.37927 0.95486 0.0
H840 H 0.05889 0.34782 0.91589 0.0
S841 S 0.99784 0.24473 0.98053 0.0
N842 N 0.98809 0.28314 0.99354 0.0
N843 N 0.02325 0.24858 0.95109 0.0
C844 C 0.02501 0.28236 0.95087 0.0
C845 C 1.00583 0.30101 0.9738 0.0
C846 C 0.69203 0.72823 0.26163 0.0
C847 C 0.71827 0.71533 0.27857 0.0
C848 C 0.65956 0.73336 0.27404 0.0
C849 C 0.65169 0.72538 0.30374 0.0
H850 H 0.69635 0.73403 0.23831 0.0
H851 H 0.64027 0.74337 0.26 0.0
S852 S 0.71181 0.69258 0.3585 0.0
N853 N 0.73478 0.69619 0.32747 0.0
N854 N 0.67308 0.7048 0.35028 0.0
C855 C 0.67754 0.71239 0.321 0.0
C856 C 0.71095 0.70762 0.30856 0.0
C857 C 0.02781 0.12079 0.97338 0.0
C858 C 0.06211 0.11224 0.97801 0.0
C859 C 0.01789 0.13471 0.94689 0.0
C860 C 0.04198 0.14087 0.92406 0.0
H861 H 1.00925 0.11868 0.99139 0.0
H862 H 0.99167 0.14233 0.94526 0.0
S863 S 0.13426 0.11986 0.92433 0.0
N864 N 0.11944 0.10864 0.95695 0.0
N865 N 0.10106 0.13436 0.90694 0.0
C866 C 0.07572 0.1303 0.92753 0.0
C867 C 0.08574 0.11622 0.9546 0.0
C868 C 0.44672 0.31114 0.27742 0.0
C869 C 0.41143 0.31756 0.27983 0.0
C870 C 0.46272 0.31019 0.24866 0.0
C871 C 0.44405 0.31559 0.2211 0.0
H872 H 0.46223 0.30709 0.29803 0.0
H873 H 0.48989 0.30494 0.24806 0.0
S874 S 0.35016 0.33194 0.21474 0.0
N875 N 0.35781 0.3282 0.25208 0.0
N876 N 0.38771 0.32701 0.19826 0.0
C877 C 0.40861 0.32204 0.22329 0.0
C878 C 0.39237 0.32286 0.25255 0.0
C879 C 0.55301 0.38496 0.03735 0.0
C880 C 0.58998 0.38531 0.03858 0.0
C881 C 0.53286 0.37228 0.06025 0.0
C882 C 0.54889 0.35941 0.08531 0.0
H883 H 0.53931 0.39276 0.0176 0.0
H884 H 0.50428 0.37103 0.05729 0.0
S885 S 0.64574 0.36026 0.10199 0.0
N886 N 0.64239 0.37595 0.06903 0.0
N887 N 0.60473 0.35189 0.11184 0.0
C888 C 0.58617 0.36199 0.08799 0.0
C889 C 0.60663 0.37495 0.06471 0.0
C890 C 0.68053 0.23552 0.16996 0.0
C891 C 0.69189 0.24999 0.20162 0.0
C892 C 0.64694 0.23872 0.15673 0.0
C893 C 0.62314 0.25664 0.17452 0.0
H894 H 0.698 0.22187 0.15509 0.0
H895 H 0.63992 0.22744 0.1321 0.0
S896 S 0.63963 0.29839 0.25903 0.0
N897 N 0.67646 0.28219 0.25079 0.0
N898 N 0.61309 0.28813 0.22613 0.0
C899 C 0.63379 0.27049 0.20657 0.0
C900 C 0.66814 0.26713 0.22006 0.0
C901 C 0.4296 0.16183 0.04014 0.0
C902 C 0.44886 0.13513 0.04375 0.0
C903 C 0.43682 0.19305 0.06068 0.0
C904 C 0.464 0.19902 0.08543 0.0
H905 H 0.4094 0.15879 0.02071 0.0
H906 H 0.42163 0.213 0.05634 0.0
S907 S 0.5209 0.13611 0.10554 0.0
N908 N 0.49497 0.11555 0.07436 0.0
N909 N 0.5091 0.17451 0.11313 0.0
C910 C 0.48272 0.17196 0.08988 0.0
C911 C 0.475 0.13994 0.069 0.0
C912 C 0.386 0.36536 0.71992 0.0
C913 C 0.35224 0.34948 0.725 0.0
C914 C 0.39807 0.39916 0.73385 0.0
C915 C 0.37704 0.41838 0.75371 0.0
H916 H 0.40372 0.35127 0.70576 0.0
H917 H 0.42461 0.40989 0.72988 0.0
S918 S 0.285 0.39011 0.77163 0.0
N919 N 0.29667 0.3567 0.74884 0.0
N920 N 0.31967 0.41987 0.77574 0.0
C921 C 0.34277 0.40321 0.75816 0.0
C922 C 0.33034 0.36888 0.74369 0.0
C923 C 0.37067 0.6574 0.81957 0.0
C924 C 0.33831 0.65461 0.80106 0.0
C925 C 0.39097 0.6303 0.81739 0.0
C926 C 0.38 0.59961 0.7963 0.0
H927 H 0.38026 0.68058 0.83606 0.0
H928 H 0.41493 0.63304 0.83295 0.0
S929 S 0.29694 0.57822 0.74382 0.0
N930 N 0.29584 0.61757 0.76182 0.0
N931 N 0.33453 0.56746 0.75737 0.0
C932 C 0.34807 0.59652 0.77752 0.0
C933 C 0.32717 0.62381 0.77992 0.0
C934 C 0.90812 0.50391 0.52269 0.0
C935 C 0.89177 0.5235 0.50365 0.0
C936 C 0.89103 0.47226 0.52678 0.0
C937 C 0.85673 0.45942 0.51244 0.0
H938 H 0.9346 0.51275 0.53387 0.0
H939 H 0.90491 0.45768 0.54119 0.0
S940 S 0.80213 0.50235 0.46156 0.0
N941 N 0.83936 0.52877 0.47108 0.0
N942 N 0.80676 0.46967 0.47919 0.0
C943 C 0.83977 0.47943 0.49408 0.0
C944 C 0.85744 0.51136 0.48954 0.0
C945 C 0.76156 0.93682 0.82323 0.0
C946 C 0.76134 0.90273 0.82627 0.0
C947 C 0.73398 0.94708 0.80584 0.0
C948 C 0.70466 0.92374 0.79121 0.0
H949 H 0.78284 0.95587 0.83509 0.0
H950 H 0.73501 0.97387 0.80512 0.0
S951 S 0.69297 0.83088 0.79037 0.0
N952 N 0.73088 0.84517 0.81179 0.0
N953 N 0.67854 0.86437 0.77933 0.0
C954 C 0.70492 0.88924 0.793 0.0
C955 C 0.73338 0.87876 0.81046 0.0
C956 C 0.72575 0.5148 0.93094 0.0
C957 C 0.69762 0.52981 0.94463 0.0
C958 C 0.75931 0.53361 0.93122 0.0
C959 C 0.7662 0.568 0.94578 0.0
H960 H 0.72174 0.48827 0.91992 0.0
H961 H 0.78021 0.52083 0.92056 0.0
S962 S 0.70095 0.61903 0.98473 0.0
N963 N 0.67827 0.58096 0.97256 0.0
N964 N 0.74157 0.61637 0.97383 0.0
C965 C 0.7381 0.58333 0.95945 0.0
C966 C 0.70374 0.56423 0.95865 0.0
C967 C 0.25491 0.62525 0.24784 0.0
C968 C 0.25377 0.65938 0.26097 0.0
C969 C 0.22686 0.60007 0.25007 0.0
C970 C 0.19648 0.60803 0.26543 0.0
H971 H 0.27758 0.61795 0.23553 0.0
H972 H 0.22903 0.57414 0.23951 0.0
S973 S 0.18135 0.69352 0.30525 0.0
N974 N 0.22053 0.69979 0.29102 0.0
N975 N 0.16744 0.65252 0.29477 0.0
C976 C 0.195 0.64211 0.27871 0.0
C977 C 0.22372 0.66775 0.27659 0.0
C978 C 0.9512 0.55279 0.05171 0.0
C979 C 0.97448 0.53194 0.03673 0.0
C980 C 0.93488 0.57508 0.03555 0.0
C981 C 0.94117 0.57705 1.0038 0.0
H982 H 0.94367 0.55016 0.07521 0.0
H983 H 0.91544 0.58908 0.04732 0.0
S984 S 1.00514 0.53209 0.95638 0.0
N985 N 1.00678 0.51797 0.99025 0.0
N986 N 0.97633 0.5596 0.95984 0.0
C987 C 0.96678 0.55839 0.98969 0.0
C988 C 0.98336 0.53589 1.00615 0.0
C989 C 0.11886 0.92795 0.05544 0.0
C990 C 0.1289 0.963 0.05682 0.0
C991 C 0.14231 0.90426 0.04654 0.0
C992 C 0.17683 0.91446 0.03832 0.0
H993 H 0.09257 0.91865 0.06128 0.0
H994 H 0.13328 0.87767 0.04619 0.0
S995 S 0.21725 1.0034 0.03995 0.0
N996 N 0.17679 0.00674 0.05079 0.0
N997 N 0.22015 0.9624 0.03313 0.0
C998 C 0.1872 0.94942 0.03948 0.0
C999 C 0.16349 0.97357 0.04893 0.0
loop_
_geom_bond_atom_site_label_1
_geom_bond_atom_site_label_2
_geom_bond_distance
_geom_bond_site_symmetry_2
_ccdc_geom_bond_type
H0 C1 0.949 . S
C1 H0 0.949 . S
C1 C2 1.385 1_545 S
C1 C3 1.391 . S
C2 C1 1.385 1_565 S
C2 C5 1.393 . S
C3 C1 1.391 . S
C3 C7 1.387 . S
C3 C8 1.491 . S
H4 C5 0.950 . S
C5 C2 1.393 . S
C5 H4 0.950 . S
C5 C6 1.378 1_565 S
C6 C5 1.378 1_545 S
C6 C7 1.409 . S
C7 C3 1.387 . S
C7 C6 1.409 . S
C7 H9 0.951 . S
C8 C3 1.491 . S
C8 C10 1.382 . S
C8 C12 1.404 . S
H9 C7 0.951 . S
C10 C8 1.382 . S
C10 C11 1.390 1_554 S
C10 H15 0.949 1_554 S
C11 C10 1.390 1_556 S
C11 C16 1.399 1_556 S
C12 C8 1.404 . S
C12 H13 0.950 . S
C12 C14 1.375 . S
H13 C12 0.950 . S
C14 C12 1.375 . S
C14 C16 1.382 . S
C14 H18 0.950 . S
H15 C10 0.949 1_556 S
C16 C11 1.399 1_554 S
C16 C14 1.382 . S
C16 H17 0.952 1_554 S
H17 C16 0.952 1_556 S
H18 C14 0.950 . S
H19 C20 0.949 . S
C20 H19 0.949 . S
C20 C21 1.395 . S
C20 C22 1.391 . S
C21 C20 1.395 . S
C21 C24 1.390 . S
C22 C20 1.391 . S
C22 C26 1.387 . S
C22 C27 1.491 . S
H23 C24 0.950 . S
C24 C21 1.390 . S
C24 H23 0.950 . S
C24 C25 1.378 . S
C25 C24 1.378 . S
C25 C26 1.409 . S
C26 C22 1.387 . S
C26 C25 1.409 . S
C26 H28 0.951 . S
C27 C22 1.491 . S
C27 C29 1.382 . S
C27 C31 1.404 . S
H28 C26 0.951 . S
C29 C27 1.382 . S
C29 C30 1.390 . S
C29 H34 0.949 . S
C30 C29 1.390 . S
C30 C35 1.399 . S
C31 C27 1.404 . S
C31 H32 0.950 . S
C31 C33 1.375 . S
H32 C31 0.950 . S
C33 C31 1.375 . S
C33 C35 1.382 . S
C33 H37 0.950 . S
H34 C29 0.949 . S
C35 C30 1.399 . S
C35 C33 1.382 . S
C35 H36 0.952 . S
H36 C35 0.952 . S
H37 C33 0.950 . S
H38 C39 0.949 1_455 S
C39 H38 0.949 1_655 S
C39 C40 1.395 . S
C39 C41 1.391 . S
C40 C39 1.395 . S
C40 C43 1.390 . S
C41 C39 1.391 . S
C41 C45 1.387 . S
C41 C46 1.491 1_554 S
H42 C43 0.950 . S
C43 C40 1.390 . S
C43 H42 0.950 . S
C43 C44 1.378 . S
C44 C43 1.378 . S
C44 C45 1.409 . S
C45 C41 1.387 . S
C45 C44 1.409 . S
C45 H47 0.951 . S
C46 C41 1.491 1_556 S
C46 C48 1.382 . S
C46 C50 1.404 . S
H47 C45 0.951 . S
C48 C46 1.382 . S
C48 C49 1.390 . S
C48 H53 0.949 1_556 S
C49 C48 1.390 . S
C49 C54 1.399 . S
C50 C46 1.404 . S
C50 H51 0.950 . S
C50 C52 1.375 . S
H51 C50 0.950 . S
C52 C50 1.375 . S
C52 C54 1.382 . S
C52 H56 0.950 . S
H53 C48 0.949 1_554 S
C54 C49 1.399 . S
C54 C52 1.382 . S
C54 H55 0.952 . S
H55 C54 0.952 . S
H56 C52 0.950 . S
H57 C58 0.949 . S
C58 H57 0.949 . S
C58 C59 1.395 . S
C58 C60 1.391 . S
C59 C58 1.395 . S
C59 C62 1.390 . S
C60 C58 1.391 . S
C60 C64 1.387 . S
C60 C65 1.491 . S
H61 C62 0.950 . S
C62 C59 1.390 . S
C62 H61 0.950 . S
C62 C63 1.378 . S
C63 C62 1.378 . S
C63 C64 1.409 . S
C64 C60 1.387 . S
C64 C63 1.409 . S
C64 H66 0.951 . S
C65 C60 1.491 . S
C65 C67 1.382 . S
C65 C69 1.404 . S
H66 C64 0.951 . S
C67 C65 1.382 . S
C67 C68 1.390 . S
C67 H72 0.949 . S
C68 C67 1.390 . S
C68 C73 1.399 . S
C69 C65 1.404 . S
C69 H70 0.950 . S
C69 C71 1.375 . S
H70 C69 0.950 . S
C71 C69 1.375 . S
C71 C73 1.382 . S
C71 H75 0.950 . S
H72 C67 0.949 . S
C73 C68 1.399 . S
C73 C71 1.382 . S
C73 H74 0.952 . S
H74 C73 0.952 . S
H75 C71 0.950 . S
H76 C77 0.949 . S
C77 H76 0.949 . S
C77 C78 1.395 . S
C77 C79 1.391 . S
C78 C77 1.395 . S
C78 C81 1.388 1_565 S
C79 C77 1.391 . S
C79 C83 1.387 . S
C79 C84 1.491 . S
H80 C81 0.955 . S
C81 C78 1.388 1_545 S
C81 H80 0.955 . S
C81 C82 1.376 1_545 S
C82 C81 1.376 1_565 S
C82 C83 1.409 . S
C83 C79 1.387 . S
C83 C82 1.409 . S
C83 H85 0.951 . S
C84 C79 1.491 . S
C84 C86 1.382 . S
C84 C88 1.404 . S
H85 C83 0.951 . S
C86 C84 1.382 . S
C86 C87 1.390 . S
C86 H91 0.949 . S
C87 C86 1.390 . S
C87 C92 1.399 . S
C88 C84 1.404 . S
C88 H89 0.950 . S
C88 C90 1.375 . S
H89 C88 0.950 . S
C90 C88 1.375 . S
C90 C92 1.382 . S
C90 H94 0.950 . S
H91 C86 0.949 . S
C92 C87 1.399 . S
C92 C90 1.382 . S
C92 H93 0.952 . S
H93 C92 0.952 . S
H94 C90 0.950 . S
H95 C96 0.949 . S
C96 H95 0.949 . S
C96 C97 1.395 . S
C96 C98 1.391 . S
C97 C96 1.395 . S
C97 C100 1.390 . S
C98 C96 1.391 . S
C98 C102 1.387 . S
C98 C103 1.491 . S
H99 C100 0.950 . S
C100 C97 1.390 . S
C100 H99 0.950 . S
C100 C101 1.378 . S
C101 C100 1.378 . S
C101 C102 1.409 . S
C102 C98 1.387 . S
C102 C101 1.409 . S
C102 H104 0.951 . S
C103 C98 1.491 . S
C103 C105 1.382 . S
C103 C107 1.404 . S
H104 C102 0.951 . S
C105 C103 1.382 . S
C105 C106 1.390 . S
C105 H110 0.949 . S
C106 C105 1.390 . S
C106 C111 1.399 . S
C107 C103 1.404 . S
C107 H108 0.950 . S
C107 C109 1.375 . S
H108 C107 0.950 . S
C109 C107 1.375 . S
C109 C111 1.382 . S
C109 H113 0.950 . S
H110 C105 0.949 . S
C111 C106 1.399 . S
C111 C109 1.382 . S
C111 H112 0.952 . S
H112 C111 0.952 . S
H113 C109 0.950 . S
H114 C115 0.949 . S
C115 H114 0.949 . S
C115 C116 1.395 . S
C115 C117 1.391 . S
C116 C115 1.395 . S
C116 C119 1.390 . S
C117 C115 1.391 . S
C117 C121 1.387 . S
C117 C122 1.491 . S
H118 C119 0.950 . S
C119 C116 1.390 . S
C119 H118 0.950 . S
C119 C120 1.378 . S
C120 C119 1.378 . S
C120 C121 1.409 . S
C121 C117 1.387 . S
C121 C120 1.409 . S
C121 H123 0.951 . S
C122 C117 1.491 . S
C122 C124 1.382 1_655 S
C122 C126 1.404 . S
H123 C121 0.951 . S
C124 C122 1.382 1_455 S
C124 C125 1.390 . S
C124 H129 0.949 . S
C125 C124 1.390 . S
C125 C130 1.399 1_455 S
C126 C122 1.404 . S
C126 H127 0.950 . S
C126 C128 1.375 . S
H127 C126 0.950 . S
C128 C126 1.375 . S
C128 C130 1.382 . S
C128 H132 0.950 . S
H129 C124 0.949 . S
C130 C125 1.399 1_655 S
C130 C128 1.382 . S
C130 H131 0.952 . S
H131 C130 0.952 . S
H132 C128 0.950 . S
H133 C134 0.949 . S
C134 H133 0.949 . S
C134 C135 1.395 . S
C134 C136 1.391 . S
C135 C134 1.395 . S
C135 C138 1.390 . S
C136 C134 1.391 . S
C136 C140 1.387 . S
C136 C141 1.491 . S
H137 C138 0.950 . S
C138 C135 1.390 . S
C138 H137 0.950 . S
C138 C139 1.378 . S
C139 C138 1.378 . S
C139 C140 1.409 . S
C140 C136 1.387 . S
C140 C139 1.409 . S
C140 H142 0.951 . S
C141 C136 1.491 . S
C141 C143 1.382 . S
C141 C145 1.404 . S
H142 C140 0.951 . S
C143 C141 1.382 . S
C143 C144 1.390 . S
C143 H148 0.949 . S
C144 C143 1.390 . S
C144 C149 1.399 . S
C145 C141 1.404 . S
C145 H146 0.950 . S
C145 C147 1.375 . S
H146 C145 0.950 . S
C147 C145 1.375 . S
C147 C149 1.382 . S
C147 H151 0.950 . S
H148 C143 0.949 . S
C149 C144 1.399 . S
C149 C147 1.382 . S
C149 H150 0.952 . S
H150 C149 0.952 . S
H151 C147 0.950 . S
H152 C153 0.949 . S
C153 H152 0.949 . S
C153 C154 1.395 . S
C153 C155 1.391 . S
C154 C153 1.395 . S
C154 C157 1.390 . S
C155 C153 1.391 . S
C155 C159 1.387 . S
C155 C160 1.491 . S
H156 C157 0.950 . S
C157 C154 1.390 . S
C157 H156 0.950 . S
C157 C158 1.378 . S
C158 C157 1.378 . S
C158 C159 1.409 . S
C159 C155 1.387 . S
C159 C158 1.409 . S
C159 H161 0.951 . S
C160 C155 1.491 . S
C160 C162 1.382 . S
C160 C164 1.404 . S
H161 C159 0.951 . S
C162 C160 1.382 . S
C162 C163 1.390 . S
C162 H167 0.949 . S
C163 C162 1.390 . S
C163 C168 1.399 . S
C164 C160 1.404 . S
C164 H165 0.950 . S
C164 C166 1.375 . S
H165 C164 0.950 . S
C166 C164 1.375 . S
C166 C168 1.382 . S
C166 H170 0.950 . S
H167 C162 0.949 . S
C168 C163 1.399 . S
C168 C166 1.382 . S
C168 H169 0.952 . S
H169 C168 0.952 . S
H170 C166 0.950 . S
H171 C172 0.949 . S
C172 H171 0.949 . S
C172 C173 1.395 . S
C172 C174 1.391 . S
C173 C172 1.395 . S
C173 C176 1.390 1_565 S
C174 C172 1.391 . S
C174 C178 1.387 . S
C174 C179 1.491 . S
H175 C176 0.950 . S
C176 C173 1.390 1_545 S
C176 H175 0.950 . S
C176 C177 1.378 . S
C177 C176 1.378 . S
C177 C178 1.409 1_545 S
C178 C174 1.387 . S
C178 C177 1.409 1_565 S
C178 H180 0.951 . S
C179 C174 1.491 . S
C179 C181 1.382 . S
C179 C183 1.404 . S
H180 C178 0.951 . S
C181 C179 1.382 . S
C181 C182 1.390 . S
C181 H186 0.949 . S
C182 C181 1.390 . S
C182 C187 1.399 . S
C183 C179 1.404 . S
C183 H184 0.950 . S
C183 C185 1.375 . S
H184 C183 0.950 . S
C185 C183 1.375 . S
C185 C187 1.382 . S
C185 H189 0.950 . S
H186 C181 0.949 . S
C187 C182 1.399 . S
C187 C185 1.382 . S
C187 H188 0.952 . S
H188 C187 0.952 . S
H189 C185 0.950 . S
H190 C191 0.949 . S
C191 H190 0.949 . S
C191 C192 1.395 . S
C191 C193 1.391 . S
C192 C191 1.395 . S
C192 C195 1.390 . S
C193 C191 1.391 . S
C193 C197 1.387 . S
C193 C198 1.491 . S
H194 C195 0.950 . S
C195 C192 1.390 . S
C195 H194 0.950 . S
C195 C196 1.378 . S
C196 C195 1.378 . S
C196 C197 1.409 . S
C197 C193 1.387 . S
C197 C196 1.409 . S
C197 H199 0.951 . S
C198 C193 1.491 . S
C198 C200 1.382 . S
C198 C202 1.404 . S
H199 C197 0.951 . S
C200 C198 1.382 . S
C200 C201 1.390 . S
C200 H205 0.949 . S
C201 C200 1.390 . S
C201 C206 1.399 . S
C202 C198 1.404 . S
C202 H203 0.950 . S
C202 C204 1.375 . S
H203 C202 0.950 . S
C204 C202 1.375 . S
C204 C206 1.382 . S
C204 H208 0.950 . S
H205 C200 0.949 . S
C206 C201 1.399 . S
C206 C204 1.382 . S
C206 H207 0.952 . S
H207 C206 0.952 . S
H208 C204 0.950 . S
H209 C210 0.949 . S
C210 H209 0.949 . S
C210 C211 1.395 . S
C210 C212 1.391 . S
C211 C210 1.395 . S
C211 C214 1.390 . S
C212 C210 1.391 . S
C212 C216 1.387 . S
C212 C217 1.491 . S
H213 C214 0.950 . S
C214 C211 1.390 . S
C214 H213 0.950 . S
C214 C215 1.378 . S
C215 C214 1.378 . S
C215 C216 1.409 . S
C216 C212 1.387 . S
C216 C215 1.409 . S
C216 H218 0.951 . S
C217 C212 1.491 . S
C217 C219 1.382 . S
C217 C221 1.404 . S
H218 C216 0.951 . S
C219 C217 1.382 . S
C219 C220 1.390 . S
C219 H224 0.949 . S
C220 C219 1.390 . S
C220 C225 1.399 . S
C221 C217 1.404 . S
C221 H222 0.950 . S
C221 C223 1.375 . S
H222 C221 0.950 . S
C223 C221 1.375 . S
C223 C225 1.382 . S
C223 H227 0.950 . S
H224 C219 0.949 . S
C225 C220 1.399 . S
C225 C223 1.382 . S
C225 H226 0.952 . S
H226 C225 0.952 . S
H227 C223 0.950 . S
H228 C229 0.949 . S
C229 H228 0.949 . S
C229 C230 1.395 . S
C229 C231 1.391 . S
C230 C229 1.395 . S
C230 C233 1.390 . S
C231 C229 1.391 . S
C231 C235 1.387 . S
C231 C236 1.491 . S
H232 C233 0.950 . S
C233 C230 1.390 . S
C233 H232 0.950 . S
C233 C234 1.378 . S
C234 C233 1.378 . S
C234 C235 1.409 . S
C235 C231 1.387 . S
C235 C234 1.409 . S
C235 H237 0.951 . S
C236 C231 1.491 . S
C236 C238 1.382 . S
C236 C240 1.404 . S
H237 C235 0.951 . S
C238 C236 1.382 . S
C238 C239 1.390 . S
C238 H243 0.949 . S
C239 C238 1.390 . S
C239 C244 1.399 . S
C240 C236 1.404 . S
C240 H241 0.950 . S
C240 C242 1.375 . S
H241 C240 0.950 . S
C242 C240 1.375 . S
C242 C244 1.382 . S
C242 H246 0.950 . S
H243 C238 0.949 . S
C244 C239 1.399 . S
C244 C242 1.382 . S
C244 H245 0.952 . S
H245 C244 0.952 . S
H246 C242 0.950 . S
H247 C248 0.949 1_554 S
C248 H247 0.949 1_556 S
C248 C249 1.395 . S
C248 C250 1.391 . S
C249 C248 1.395 . S
C249 C252 1.390 . S
C250 C248 1.391 . S
C250 C254 1.387 . S
C250 C255 1.491 . S
H251 C252 0.950 . S
C252 C249 1.390 . S
C252 H251 0.950 . S
C252 C253 1.378 . S
C253 C252 1.378 . S
C253 C254 1.409 . S
C254 C250 1.387 . S
C254 C253 1.409 . S
C254 H256 0.951 . S
C255 C250 1.491 . S
C255 C257 1.382 1_556 S
C255 C259 1.404 . S
H256 C254 0.951 . S
C257 C255 1.382 1_554 S
C257 C258 1.390 . S
C257 H262 0.949 . S
C258 C257 1.390 . S
C258 C263 1.399 . S
C259 C255 1.404 . S
C259 H260 0.950 . S
C259 C261 1.375 . S
H260 C259 0.950 . S
C261 C259 1.375 . S
C261 C263 1.382 1_556 S
C261 H265 0.950 . S
H262 C257 0.949 . S
C263 C258 1.399 . S
C263 C261 1.382 1_554 S
C263 H264 0.952 . S
H264 C263 0.952 . S
H265 C261 0.950 . S
H266 C267 0.949 . S
C267 H266 0.949 . S
C267 C268 1.395 . S
C267 C269 1.391 . S
C268 C267 1.395 . S
C268 C271 1.390 . S
C269 C267 1.391 . S
C269 C273 1.387 . S
C269 C274 1.491 . S
H270 C271 0.950 . S
C271 C268 1.390 . S
C271 H270 0.950 . S
C271 C272 1.378 . S
C272 C271 1.378 . S
C272 C273 1.409 . S
C273 C269 1.387 . S
C273 C272 1.409 . S
C273 H275 0.951 . S
C274 C269 1.491 . S
C274 C276 1.382 . S
C274 C278 1.404 . S
H275 C273 0.951 . S
C276 C274 1.382 . S
C276 C277 1.390 . S
C276 H281 0.949 . S
C277 C276 1.390 . S
C277 C282 1.399 . S
C278 C274 1.404 . S
C278 H279 0.950 . S
C278 C280 1.375 . S
H279 C278 0.950 . S
C280 C278 1.375 . S
C280 C282 1.382 . S
C280 H284 0.950 . S
H281 C276 0.949 . S
C282 C277 1.399 . S
C282 C280 1.382 . S
C282 H283 0.952 . S
H283 C282 0.952 . S
H284 C280 0.950 . S
H285 C286 0.949 . S
C286 H285 0.949 . S
C286 C287 1.395 . S
C286 C288 1.391 . S
C287 C286 1.395 . S
C287 C290 1.390 . S
C288 C286 1.391 . S
C288 C292 1.387 . S
C288 C293 1.491 . S
H289 C290 0.950 1_554 S
C290 C287 1.390 . S
C290 H289 0.950 1_556 S
C290 C291 1.378 . S
C291 C290 1.378 . S
C291 C292 1.409 . S
C292 C288 1.387 . S
C292 C291 1.409 . S
C292 H294 0.951 . S
C293 C288 1.491 . S
C293 C295 1.382 . S
C293 C297 1.404 . S
H294 C292 0.951 . S
C295 C293 1.382 . S
C295 C296 1.390 . S
C295 H300 0.949 . S
C296 C295 1.390 . S
C296 C301 1.399 . S
C297 C293 1.404 . S
C297 H298 0.950 . S
C297 C299 1.375 . S
H298 C297 0.950 . S
C299 C297 1.375 . S
C299 C301 1.382 . S
C299 H303 0.950 . S
H300 C295 0.949 . S
C301 C296 1.399 . S
C301 C299 1.382 . S
C301 H302 0.952 . S
H302 C301 0.952 . S
H303 C299 0.950 . S
Zn304 O307 2.031 . S
Zn304 O309 2.049 . S
Zn304 O314 2.067 1_554 S
Zn305 O306 1.962 . S
Zn305 O308 1.986 . S
Zn305 O310 1.996 . S
Zn305 O313 1.943 . S
O306 Zn305 1.962 . S
O306 C311 1.254 . S
O307 Zn304 2.031 . S
O307 C311 1.269 . S
O308 Zn305 1.986 . S
O308 C315 1.262 . S
O309 Zn304 2.049 . S
O309 C317 1.260 . S
O310 Zn305 1.996 . S
O310 C317 1.257 . S
C311 O306 1.254 . S
C311 O307 1.269 . S
C312 O313 1.249 1_556 S
C312 O314 1.270 . S
O313 Zn305 1.943 . S
O313 C312 1.249 1_554 S
O314 Zn304 2.067 1_556 S
O314 C312 1.270 . S
C315 O308 1.262 . S
C315 O316 1.232 . S
O316 C315 1.232 . S
C317 O309 1.260 . S
C317 O310 1.257 . S
Zn318 O321 2.031 . S
Zn318 O323 2.049 . S
Zn318 O328 2.067 . S
Zn319 O320 1.962 . S
Zn319 O322 1.986 . S
Zn319 O324 1.996 . S
Zn319 O327 1.943 . S
O320 Zn319 1.962 . S
O320 C325 1.254 . S
O321 Zn318 2.031 . S
O321 C325 1.269 . S
O322 Zn319 1.986 . S
O322 C329 1.262 . S
O323 Zn318 2.049 . S
O323 C331 1.260 . S
O324 Zn319 1.996 . S
O324 C331 1.257 . S
C325 O320 1.254 . S
C325 O321 1.269 . S
C326 O327 1.249 . S
C326 O328 1.270 . S
O327 Zn319 1.943 . S
O327 C326 1.249 . S
O328 Zn318 2.067 . S
O328 C326 1.270 . S
C329 O322 1.262 . S
C329 O330 1.232 . S
O330 C329 1.232 . S
C331 O323 1.260 . S
C331 O324 1.257 . S
Zn332 O335 2.031 . S
Zn332 O337 2.049 . S
Zn332 O342 2.067 . S
Zn333 O334 1.962 . S
Zn333 O336 1.986 . S
Zn333 O338 1.996 1_554 S
Zn333 O341 1.943 . S
O334 Zn333 1.962 . S
O334 C339 1.254 . S
O335 Zn332 2.031 . S
O335 C339 1.269 1_556 S
O336 Zn333 1.986 . S
O336 C343 1.262 . S
O337 Zn332 2.049 . S
O337 C345 1.260 . S
O338 Zn333 1.996 1_556 S
O338 C345 1.257 . S
C339 O334 1.254 . S
C339 O335 1.269 1_554 S
C340 O341 1.249 1_556 S
C340 O342 1.270 . S
O341 Zn333 1.943 . S
O341 C340 1.249 1_554 S
O342 Zn332 2.067 . S
O342 C340 1.270 . S
C343 O336 1.262 . S
C343 O344 1.232 . S
O344 C343 1.232 . S
C345 O337 1.260 . S
C345 O338 1.257 . S
Zn346 O349 2.031 . S
Zn346 O351 2.049 . S
Zn346 O356 2.067 1_545 S
Zn347 O348 1.962 . S
Zn347 O350 1.986 1_655 S
Zn347 O352 1.996 . S
Zn347 O355 1.943 1_545 S
O348 Zn347 1.962 . S
O348 C353 1.254 . S
O349 Zn346 2.031 . S
O349 C353 1.269 . S
O350 Zn347 1.986 1_455 S
O350 C357 1.262 . S
O351 Zn346 2.049 . S
O351 C359 1.260 1_655 S
O352 Zn347 1.996 . S
O352 C359 1.257 1_655 S
C353 O348 1.254 . S
C353 O349 1.269 . S
C354 O355 1.249 . S
C354 O356 1.270 . S
O355 Zn347 1.943 1_565 S
O355 C354 1.249 . S
O356 Zn346 2.067 1_565 S
O356 C354 1.270 . S
C357 O350 1.262 . S
C357 O358 1.232 1_455 S
O358 C357 1.232 1_655 S
C359 O351 1.260 1_455 S
C359 O352 1.257 1_455 S
Zn360 O363 2.031 . S
Zn360 O365 2.049 . S
Zn360 O370 2.067 . S
Zn361 O362 1.962 . S
Zn361 O364 1.986 . S
Zn361 O366 1.996 . S
Zn361 O369 1.943 . S
O362 Zn361 1.962 . S
O362 C367 1.254 . S
O363 Zn360 2.031 . S
O363 C367 1.269 . S
O364 Zn361 1.986 . S
O364 C371 1.262 . S
O365 Zn360 2.049 . S
O365 C373 1.260 . S
O366 Zn361 1.996 . S
O366 C373 1.257 . S
C367 O362 1.254 . S
C367 O363 1.269 . S
C368 O369 1.249 . S
C368 O370 1.270 . S
O369 Zn361 1.943 . S
O369 C368 1.249 . S
O370 Zn360 2.067 . S
O370 C368 1.270 . S
C371 O364 1.262 . S
C371 O372 1.232 . S
O372 C371 1.232 . S
C373 O365 1.260 . S
C373 O366 1.257 . S
Zn374 O377 2.031 . S
Zn374 O379 2.049 . S
Zn374 O384 2.067 . S
Zn375 O376 1.962 . S
Zn375 O378 1.986 . S
Zn375 O380 1.996 . S
Zn375 O383 1.943 . S
O376 Zn375 1.962 . S
O376 C381 1.254 . S
O377 Zn374 2.031 . S
O377 C381 1.269 . S
O378 Zn375 1.986 . S
O378 C385 1.262 . S
O379 Zn374 2.049 . S
O379 C387 1.260 . S
O380 Zn375 1.996 . S
O380 C387 1.257 . S
C381 O376 1.254 . S
C381 O377 1.269 . S
C382 O383 1.249 . S
C382 O384 1.270 . S
O383 Zn375 1.943 . S
O383 C382 1.249 . S
O384 Zn374 2.067 . S
O384 C382 1.270 . S
C385 O378 1.262 . S
C385 O386 1.232 . S
O386 C385 1.232 . S
C387 O379 1.260 . S
C387 O380 1.257 . S
Zn388 O391 2.031 . S
Zn388 O393 2.049 . S
Zn388 O398 2.067 . S
Zn389 O390 1.962 . S
Zn389 O392 1.986 . S
Zn389 O394 1.996 . S
Zn389 O397 1.943 . S
O390 Zn389 1.962 . S
O390 C395 1.254 . S
O391 Zn388 2.031 . S
O391 C395 1.269 . S
O392 Zn389 1.986 . S
O392 C399 1.262 . S
O393 Zn388 2.049 . S
O393 C401 1.260 . S
O394 Zn389 1.996 . S
O394 C401 1.257 . S
C395 O390 1.254 . S
C395 O391 1.269 . S
C396 O397 1.249 . S
C396 O398 1.270 . S
O397 Zn389 1.943 . S
O397 C396 1.249 . S
O398 Zn388 2.067 . S
O398 C396 1.270 . S
C399 O392 1.262 . S
C399 O400 1.232 . S
O400 C399 1.232 . S
C401 O393 1.260 . S
C401 O394 1.257 . S
Zn402 O405 2.031 1_565 S
Zn402 O407 2.049 . S
Zn402 O412 2.067 . S
Zn403 O404 1.962 . S
Zn403 O406 1.986 . S
Zn403 O408 1.996 1_545 S
Zn403 O411 1.943 . S
O404 Zn403 1.962 . S
O404 C409 1.254 . S
O405 Zn402 2.031 1_545 S
O405 C409 1.269 . S
O406 Zn403 1.986 . S
O406 C413 1.262 . S
O407 Zn402 2.049 . S
O407 C415 1.260 . S
O408 Zn403 1.996 1_565 S
O408 C415 1.257 . S
C409 O404 1.254 . S
C409 O405 1.269 . S
C410 O411 1.249 1_565 S
C410 O412 1.270 . S
O411 Zn403 1.943 . S
O411 C410 1.249 1_545 S
O412 Zn402 2.067 . S
O412 C410 1.270 . S
C413 O406 1.262 . S
C413 O414 1.232 . S
O414 C413 1.232 . S
C415 O407 1.260 . S
C415 O408 1.257 . S
Zn416 O419 2.031 . S
Zn416 O421 2.049 1_455 S
Zn416 O426 2.067 1_455 S
Zn417 O418 1.962 . S
Zn417 O420 1.986 . S
Zn417 O422 1.996 . S
Zn417 O425 1.943 1_455 S
O418 Zn417 1.962 . S
O418 C423 1.254 . S
O419 Zn416 2.031 . S
O419 C423 1.269 . S
O420 Zn417 1.986 . S
O420 C427 1.262 . S
O421 Zn416 2.049 1_655 S
O421 C429 1.260 1_655 S
O422 Zn417 1.996 . S
O422 C429 1.257 . S
C423 O418 1.254 . S
C423 O419 1.269 . S
C424 O425 1.249 . S
C424 O426 1.270 . S
O425 Zn417 1.943 1_655 S
O425 C424 1.249 . S
O426 Zn416 2.067 1_655 S
O426 C424 1.270 . S
C427 O420 1.262 . S
C427 O428 1.232 . S
O428 C427 1.232 . S
C429 O421 1.260 1_455 S
C429 O422 1.257 . S
Zn430 O433 2.031 . S
Zn430 O435 2.049 . S
Zn430 O440 2.067 . S
Zn431 O432 1.962 . S
Zn431 O434 1.986 . S
Zn431 O436 1.996 . S
Zn431 O439 1.943 . S
O432 Zn431 1.962 . S
O432 C437 1.254 . S
O433 Zn430 2.031 . S
O433 C437 1.269 . S
O434 Zn431 1.986 . S
O434 C441 1.262 . S
O435 Zn430 2.049 . S
O435 C443 1.260 . S
O436 Zn431 1.996 . S
O436 C443 1.257 . S
C437 O432 1.254 . S
C437 O433 1.269 . S
C438 O439 1.249 . S
C438 O440 1.270 . S
O439 Zn431 1.943 . S
O439 C438 1.249 . S
O440 Zn430 2.067 . S
O440 C438 1.270 . S
C441 O434 1.262 . S
C441 O442 1.232 . S
O442 C441 1.232 . S
C443 O435 1.260 . S
C443 O436 1.257 . S
Zn444 O447 2.031 1_655 S
Zn444 O449 2.049 . S
Zn444 O454 2.067 . S
Zn445 O446 1.962 . S
Zn445 O448 1.986 . S
Zn445 O450 1.996 1_455 S
Zn445 O453 1.943 . S
O446 Zn445 1.962 . S
O446 C451 1.254 . S
O447 Zn444 2.031 1_455 S
O447 C451 1.269 . S
O448 Zn445 1.986 . S
O448 C455 1.262 . S
O449 Zn444 2.049 . S
O449 C457 1.260 . S
O450 Zn445 1.996 1_655 S
O450 C457 1.257 . S
C451 O446 1.254 . S
C451 O447 1.269 . S
C452 O453 1.249 1_655 S
C452 O454 1.270 . S
O453 Zn445 1.943 . S
O453 C452 1.249 1_455 S
O454 Zn444 2.067 . S
O454 C452 1.270 . S
C455 O448 1.262 . S
C455 O456 1.232 . S
O456 C455 1.232 . S
C457 O449 1.260 . S
C457 O450 1.257 . S
Zn458 O461 2.031 . S
Zn458 O463 2.049 . S
Zn458 O468 2.067 . S
Zn459 O460 1.962 . S
Zn459 O462 1.986 . S
Zn459 O464 1.996 . S
Zn459 O467 1.943 . S
O460 Zn459 1.962 . S
O460 C465 1.254 . S
O461 Zn458 2.031 . S
O461 C465 1.269 . S
O462 Zn459 1.986 . S
O462 C469 1.262 . S
O463 Zn458 2.049 . S
O463 C471 1.260 . S
O464 Zn459 1.996 . S
O464 C471 1.257 . S
C465 O460 1.254 . S
C465 O461 1.269 . S
C466 O467 1.249 . S
C466 O468 1.270 . S
O467 Zn459 1.943 . S
O467 C466 1.249 . S
O468 Zn458 2.067 . S
O468 C466 1.270 . S
C469 O462 1.262 . S
C469 O470 1.232 . S
O470 C469 1.232 . S
C471 O463 1.260 . S
C471 O464 1.257 . S
C472 C473 1.369 . S
C472 C474 1.419 . S
C472 H476 0.930 . S
C473 C472 1.369 . S
C473 C482 1.429 . S
C474 C472 1.419 . S
C474 C475 1.363 . S
C474 H477 0.929 . S
C475 C474 1.363 . S
C475 C481 1.428 . S
H476 C472 0.930 . S
H477 C474 0.929 . S
S478 N479 1.613 . S
S478 N480 1.610 . S
N479 S478 1.613 . S
N479 C482 1.350 . S
N480 S478 1.610 . S
N480 C481 1.351 . S
C481 C475 1.428 . S
C481 N480 1.351 . S
C481 C482 1.434 . S
C482 C473 1.429 . S
C482 N479 1.350 . S
C482 C481 1.434 . S
C483 C484 1.369 . S
C483 C485 1.419 . S
C483 H487 0.930 . S
C484 C483 1.369 . S
C484 C493 1.429 . S
C485 C483 1.419 . S
C485 C486 1.363 . S
C485 H488 0.929 . S
C486 C485 1.363 . S
C486 C492 1.428 . S
H487 C483 0.930 . S
H488 C485 0.929 . S
S489 N490 1.613 . S
S489 N491 1.610 . S
N490 S489 1.613 . S
N490 C493 1.350 . S
N491 S489 1.610 . S
N491 C492 1.351 . S
C492 C486 1.428 . S
C492 N491 1.351 . S
C492 C493 1.434 . S
C493 C484 1.429 . S
C493 N490 1.350 . S
C493 C492 1.434 . S
C494 C495 1.369 . S
C494 C496 1.419 . S
C494 H498 0.930 . S
C495 C494 1.369 . S
C495 C504 1.429 . S
C496 C494 1.419 . S
C496 C497 1.363 . S
C496 H499 0.929 . S
C497 C496 1.363 . S
C497 C503 1.428 . S
H498 C494 0.930 . S
H499 C496 0.929 . S
S500 N501 1.613 . S
S500 N502 1.610 . S
N501 S500 1.613 . S
N501 C504 1.350 . S
N502 S500 1.610 . S
N502 C503 1.351 . S
C503 C497 1.428 . S
C503 N502 1.351 . S
C503 C504 1.434 . S
C504 C495 1.429 . S
C504 N501 1.350 . S
C504 C503 1.434 . S
C505 C506 1.369 . S
C505 C507 1.419 1_565 S
C505 H509 0.930 . S
C506 C505 1.369 . S
C506 C515 1.429 . S
C507 C505 1.419 1_545 S
C507 C508 1.363 . S
C507 H510 0.899 1_455 S
C508 C507 1.363 . S
C508 C514 1.428 . S
H509 C505 0.930 . S
H510 C507 0.899 1_655 S
S511 N512 1.615 . S
S511 N513 1.609 1_565 S
N512 S511 1.615 . S
N512 C515 1.350 . S
N513 S511 1.609 1_545 S
N513 C514 1.351 . S
C514 C508 1.428 . S
C514 N513 1.351 . S
C514 C515 1.434 1_545 S
C515 C506 1.429 . S
C515 N512 1.350 . S
C515 C514 1.434 1_565 S
C516 C517 1.369 . S
C516 C518 1.419 . S
C516 H520 0.930 . S
C517 C516 1.369 . S
C517 C526 1.429 . S
C518 C516 1.419 . S
C518 C519 1.363 . S
C518 H521 0.929 . S
C519 C518 1.363 . S
C519 C525 1.428 . S
H520 C516 0.930 . S
H521 C518 0.929 . S
S522 N523 1.613 . S
S522 N524 1.610 . S
N523 S522 1.613 . S
N523 C526 1.350 . S
N524 S522 1.610 . S
N524 C525 1.351 . S
C525 C519 1.428 . S
C525 N524 1.351 . S
C525 C526 1.434 . S
C526 C517 1.429 . S
C526 N523 1.350 . S
C526 C525 1.434 . S
C527 C528 1.369 . S
C527 C529 1.419 . S
C527 H531 0.930 . S
C528 C527 1.369 . S
C528 C537 1.429 . S
C529 C527 1.419 . S
C529 C530 1.363 . S
C529 H532 0.929 . S
C530 C529 1.363 . S
C530 C536 1.428 . S
H531 C527 0.930 . S
H532 C529 0.929 . S
S533 N534 1.613 . S
S533 N535 1.610 . S
N534 S533 1.613 . S
N534 C537 1.350 . S
N535 S533 1.610 . S
N535 C536 1.351 . S
C536 C530 1.428 . S
C536 N535 1.351 . S
C536 C537 1.434 . S
C537 C528 1.429 . S
C537 N534 1.350 . S
C537 C536 1.434 . S
C538 C539 1.369 . S
C538 C540 1.419 . S
C538 H542 0.930 . S
C539 C538 1.369 . S
C539 C548 1.429 . S
C540 C538 1.419 . S
C540 C541 1.363 . S
C540 H543 0.929 . S
C541 C540 1.363 . S
C541 C547 1.428 . S
H542 C538 0.930 . S
H543 C540 0.929 . S
S544 N545 1.613 . S
S544 N546 1.610 . S
N545 S544 1.613 . S
N545 C548 1.350 . S
N546 S544 1.610 . S
N546 C547 1.351 . S
C547 C541 1.428 . S
C547 N546 1.351 . S
C547 C548 1.434 . S
C548 C539 1.429 . S
C548 N545 1.350 . S
C548 C547 1.434 . S
C549 C550 1.369 . S
C549 C551 1.419 . S
C549 H553 0.930 . S
C550 C549 1.369 . S
C550 C559 1.429 . S
C551 C549 1.419 . S
C551 C552 1.363 . S
C551 H554 0.929 . S
C552 C551 1.363 . S
C552 C558 1.428 . S
H553 C549 0.930 . S
H554 C551 0.929 . S
S555 N556 1.613 . S
S555 N557 1.610 . S
N556 S555 1.613 . S
N556 C559 1.350 . S
N557 S555 1.610 . S
N557 C558 1.351 . S
C558 C552 1.428 . S
C558 N557 1.351 . S
C558 C559 1.434 . S
C559 C550 1.429 . S
C559 N556 1.350 . S
C559 C558 1.434 . S
C560 C561 1.369 . S
C560 C562 1.419 . S
C560 H564 0.930 . S
C561 C560 1.369 . S
C561 C570 1.429 . S
C562 C560 1.419 . S
C562 C563 1.363 . S
C562 H565 0.929 . S
C563 C562 1.363 . S
C563 C569 1.428 . S
H564 C560 0.930 . S
H565 C562 0.929 . S
S566 N567 1.613 . S
S566 N568 1.610 . S
N567 S566 1.613 . S
N567 C570 1.350 . S
N568 S566 1.610 . S
N568 C569 1.351 . S
C569 C563 1.428 . S
C569 N568 1.351 . S
C569 C570 1.434 . S
C570 C561 1.429 . S
C570 N567 1.350 . S
C570 C569 1.434 . S
C571 C572 1.369 . S
C571 C573 1.419 . S
C571 H575 0.930 . S
C572 C571 1.369 . S
C572 C581 1.429 . S
C573 C571 1.419 . S
C573 C574 1.363 . S
C573 H576 0.929 . S
C574 C573 1.363 . S
C574 C580 1.428 . S
H575 C571 0.930 . S
H576 C573 0.929 . S
S577 N578 1.613 . S
S577 N579 1.610 . S
N578 S577 1.613 . S
N578 C581 1.350 . S
N579 S577 1.610 . S
N579 C580 1.351 . S
C580 C574 1.428 . S
C580 N579 1.351 . S
C580 C581 1.434 . S
C581 C572 1.429 . S
C581 N578 1.350 . S
C581 C580 1.434 . S
C582 C583 1.369 . S
C582 C584 1.419 . S
C582 H586 0.930 . S
C583 C582 1.369 . S
C583 C592 1.429 . S
C584 C582 1.419 . S
C584 C585 1.363 . S
C584 H587 0.929 . S
C585 C584 1.363 . S
C585 C591 1.428 . S
H586 C582 0.930 . S
H587 C584 0.929 . S
S588 N589 1.613 . S
S588 N590 1.610 . S
N589 S588 1.613 . S
N589 C592 1.350 . S
N590 S588 1.610 . S
N590 C591 1.351 . S
C591 C585 1.428 . S
C591 N590 1.351 . S
C591 C592 1.434 . S
C592 C583 1.429 . S
C592 N589 1.350 . S
C592 C591 1.434 . S
C593 C594 1.369 . S
C593 C595 1.419 . S
C593 H597 0.930 . S
C594 C593 1.369 . S
C594 C603 1.429 . S
C595 C593 1.419 . S
C595 C596 1.363 . S
C595 H598 0.929 . S
C596 C595 1.363 . S
C596 C602 1.428 . S
H597 C593 0.930 . S
H598 C595 0.929 . S
S599 N600 1.613 . S
S599 N601 1.610 . S
N600 S599 1.613 . S
N600 C603 1.350 . S
N601 S599 1.610 . S
N601 C602 1.351 . S
C602 C596 1.428 . S
C602 N601 1.351 . S
C602 C603 1.434 . S
C603 C594 1.429 . S
C603 N600 1.350 . S
C603 C602 1.434 . S
C604 C605 1.369 . S
C604 C606 1.419 . S
C604 H608 0.930 . S
C605 C604 1.369 . S
C605 C614 1.429 . S
C606 C604 1.419 . S
C606 C607 1.363 . S
C606 H609 0.929 . S
C607 C606 1.363 . S
C607 C613 1.428 . S
H608 C604 0.930 . S
H609 C606 0.929 . S
S610 N611 1.613 . S
S610 N612 1.610 . S
N611 S610 1.613 . S
N611 C614 1.350 . S
N612 S610 1.610 . S
N612 C613 1.351 . S
C613 C607 1.428 . S
C613 N612 1.351 . S
C613 C614 1.434 . S
C614 C605 1.429 . S
C614 N611 1.350 . S
C614 C613 1.434 . S
C615 C616 1.369 . S
C615 C617 1.419 . S
C615 H619 0.930 . S
C616 C615 1.369 . S
C616 C625 1.429 . S
C617 C615 1.419 . S
C617 C618 1.363 . S
C617 H620 0.929 . S
C618 C617 1.363 . S
C618 C624 1.428 . S
H619 C615 0.930 . S
H620 C617 0.929 . S
S621 N622 1.613 . S
S621 N623 1.610 . S
N622 S621 1.613 . S
N622 C625 1.350 . S
N623 S621 1.610 . S
N623 C624 1.351 . S
C624 C618 1.428 . S
C624 N623 1.351 . S
C624 C625 1.434 . S
C625 C616 1.429 . S
C625 N622 1.350 . S
C625 C624 1.434 . S
C626 C627 1.369 . S
C626 C628 1.419 . S
C626 H630 0.930 . S
C627 C626 1.369 . S
C627 C636 1.429 . S
C628 C626 1.419 . S
C628 C629 1.363 . S
C628 H631 0.929 . S
C629 C628 1.363 . S
C629 C635 1.428 . S
H630 C626 0.930 . S
H631 C628 0.929 . S
S632 N633 1.613 . S
S632 N634 1.610 . S
N633 S632 1.613 . S
N633 C636 1.350 . S
N634 S632 1.610 . S
N634 C635 1.351 . S
C635 C629 1.428 . S
C635 N634 1.351 . S
C635 C636 1.434 . S
C636 C627 1.429 . S
C636 N633 1.350 . S
C636 C635 1.434 . S
C637 C638 1.369 . S
C637 C639 1.419 . S
C637 H641 0.930 . S
C638 C637 1.369 . S
C638 C647 1.429 . S
C639 C637 1.419 . S
C639 C640 1.363 . S
C639 H642 0.929 1_655 S
C640 C639 1.363 . S
C640 C646 1.428 . S
H641 C637 0.930 . S
H642 C639 0.929 1_455 S
S643 N644 1.613 . S
S643 N645 1.610 . S
N644 S643 1.613 . S
N644 C647 1.350 . S
N645 S643 1.610 . S
N645 C646 1.351 . S
C646 C640 1.428 . S
C646 N645 1.351 . S
C646 C647 1.434 . S
C647 C638 1.429 . S
C647 N644 1.350 . S
C647 C646 1.434 . S
C648 C649 1.369 . S
C648 C650 1.419 . S
C648 H652 0.930 . S
C649 C648 1.369 . S
C649 C658 1.429 . S
C650 C648 1.419 . S
C650 C651 1.363 . S
C650 H653 0.929 . S
C651 C650 1.363 . S
C651 C657 1.428 . S
H652 C648 0.930 . S
H653 C650 0.929 . S
S654 N655 1.613 . S
S654 N656 1.610 . S
N655 S654 1.613 . S
N655 C658 1.350 . S
N656 S654 1.610 . S
N656 C657 1.351 . S
C657 C651 1.428 . S
C657 N656 1.351 . S
C657 C658 1.434 . S
C658 C649 1.429 . S
C658 N655 1.350 . S
C658 C657 1.434 . S
C659 C660 1.369 . S
C659 C661 1.419 . S
C659 H663 0.930 . S
C660 C659 1.369 . S
C660 C669 1.429 . S
C661 C659 1.419 . S
C661 C662 1.363 . S
C661 H664 0.929 . S
C662 C661 1.363 . S
C662 C668 1.428 . S
H663 C659 0.930 . S
H664 C661 0.929 . S
S665 N666 1.613 . S
S665 N667 1.610 . S
N666 S665 1.613 . S
N666 C669 1.350 . S
N667 S665 1.610 . S
N667 C668 1.351 . S
C668 C662 1.428 . S
C668 N667 1.351 . S
C668 C669 1.434 . S
C669 C660 1.429 . S
C669 N666 1.350 . S
C669 C668 1.434 . S
C670 C671 1.369 1_554 S
C670 C672 1.419 1_545 S
C670 H674 0.930 . S
C671 C670 1.369 1_556 S
C671 C680 1.429 1_545 S
C672 C670 1.419 1_565 S
C672 C673 1.363 . S
C672 H675 0.929 . S
C673 C672 1.363 . S
C673 C679 1.428 1_554 S
H674 C670 0.930 . S
H675 C672 0.929 . S
S676 N677 1.613 . S
S676 N678 1.610 . S
N677 S676 1.613 . S
N677 C680 1.350 . S
N678 S676 1.610 . S
N678 C679 1.351 . S
C679 C673 1.428 1_556 S
C679 N678 1.351 . S
C679 C680 1.434 . S
C680 C671 1.429 1_565 S
C680 N677 1.350 . S
C680 C679 1.434 . S
C681 C682 1.369 . S
C681 C683 1.419 . S
C681 H685 0.930 . S
C682 C681 1.369 . S
C682 C691 1.429 . S
C683 C681 1.419 . S
C683 C684 1.363 . S
C683 H686 0.929 . S
C684 C683 1.363 . S
C684 C690 1.428 . S
H685 C681 0.930 . S
H686 C683 0.929 . S
S687 N688 1.613 . S
S687 N689 1.610 . S
N688 S687 1.613 . S
N688 C691 1.350 . S
N689 S687 1.610 . S
N689 C690 1.351 . S
C690 C684 1.428 . S
C690 N689 1.351 . S
C690 C691 1.434 . S
C691 C682 1.429 . S
C691 N688 1.350 . S
C691 C690 1.434 . S
C692 C693 1.369 . S
C692 C694 1.419 . S
C692 H696 0.930 . S
C693 C692 1.369 . S
C693 C702 1.429 . S
C694 C692 1.419 . S
C694 C695 1.363 . S
C694 H697 0.929 . S
C695 C694 1.363 . S
C695 C701 1.428 . S
H696 C692 0.930 . S
H697 C694 0.929 . S
S698 N699 1.613 . S
S698 N700 1.610 . S
N699 S698 1.613 . S
N699 C702 1.350 . S
N700 S698 1.610 . S
N700 C701 1.351 . S
C701 C695 1.428 . S
C701 N700 1.351 . S
C701 C702 1.434 . S
C702 C693 1.429 . S
C702 N699 1.350 . S
C702 C701 1.434 . S
C703 C704 1.369 . S
C703 C705 1.419 . S
C703 H707 0.930 . S
C704 C703 1.369 . S
C704 C713 1.429 . S
C705 C703 1.419 . S
C705 C706 1.363 . S
C705 H708 0.929 . S
C706 C705 1.363 . S
C706 C712 1.428 . S
H707 C703 0.930 . S
H708 C705 0.929 . S
S709 N710 1.613 . S
S709 N711 1.610 . S
N710 S709 1.613 . S
N710 C713 1.350 . S
N711 S709 1.610 . S
N711 C712 1.351 . S
C712 C706 1.428 . S
C712 N711 1.351 . S
C712 C713 1.434 . S
C713 C704 1.429 . S
C713 N710 1.350 . S
C713 C712 1.434 . S
C714 C715 1.369 . S
C714 C716 1.419 . S
C714 H718 0.930 . S
C715 C714 1.369 . S
C715 C724 1.429 . S
C716 C714 1.419 . S
C716 C717 1.363 . S
C716 H719 0.929 . S
C717 C716 1.363 . S
C717 C723 1.428 . S
H718 C714 0.930 . S
H719 C716 0.929 . S
S720 N721 1.613 . S
S720 N722 1.610 . S
N721 S720 1.613 . S
N721 C724 1.350 . S
N722 S720 1.610 . S
N722 C723 1.351 . S
C723 C717 1.428 . S
C723 N722 1.351 . S
C723 C724 1.434 . S
C724 C715 1.429 . S
C724 N721 1.350 . S
C724 C723 1.434 . S
C725 C726 1.369 . S
C725 C727 1.419 . S
C725 H729 0.930 . S
C726 C725 1.369 . S
C726 C735 1.429 . S
C727 C725 1.419 . S
C727 C728 1.363 . S
C727 H730 0.929 . S
C728 C727 1.363 . S
C728 C734 1.428 . S
H729 C725 0.930 . S
H730 C727 0.929 . S
S731 N732 1.613 . S
S731 N733 1.610 . S
N732 S731 1.613 . S
N732 C735 1.350 . S
N733 S731 1.610 . S
N733 C734 1.351 . S
C734 C728 1.428 . S
C734 N733 1.351 . S
C734 C735 1.434 . S
C735 C726 1.429 . S
C735 N732 1.350 . S
C735 C734 1.434 . S
C736 C737 1.369 . S
C736 C738 1.419 . S
C736 H740 0.930 . S
C737 C736 1.369 . S
C737 C746 1.429 . S
C738 C736 1.419 . S
C738 C739 1.363 . S
C738 H741 0.929 . S
C739 C738 1.363 . S
C739 C745 1.428 . S
H740 C736 0.930 . S
H741 C738 0.929 . S
S742 N743 1.613 . S
S742 N744 1.610 . S
N743 S742 1.613 . S
N743 C746 1.350 . S
N744 S742 1.610 . S
N744 C745 1.351 . S
C745 C739 1.428 . S
C745 N744 1.351 . S
C745 C746 1.434 . S
C746 C737 1.429 . S
C746 N743 1.350 . S
C746 C745 1.434 . S
C747 C748 1.369 . S
C747 C749 1.419 . S
C747 H751 0.930 . S
C748 C747 1.369 . S
C748 C757 1.429 . S
C749 C747 1.419 . S
C749 C750 1.363 . S
C749 H752 0.929 . S
C750 C749 1.363 . S
C750 C756 1.428 . S
H751 C747 0.930 . S
H752 C749 0.929 . S
S753 N754 1.613 . S
S753 N755 1.610 . S
N754 S753 1.613 . S
N754 C757 1.350 . S
N755 S753 1.610 . S
N755 C756 1.351 . S
C756 C750 1.428 . S
C756 N755 1.351 . S
C756 C757 1.434 . S
C757 C748 1.429 . S
C757 N754 1.350 . S
C757 C756 1.434 . S
C758 C759 1.369 . S
C758 C760 1.419 . S
C758 H762 0.930 . S
C759 C758 1.369 . S
C759 C768 1.429 . S
C760 C758 1.419 . S
C760 C761 1.363 . S
C760 H763 0.929 . S
C761 C760 1.363 . S
C761 C767 1.428 . S
H762 C758 0.930 . S
H763 C760 0.929 . S
S764 N765 1.613 . S
S764 N766 1.610 . S
N765 S764 1.613 . S
N765 C768 1.350 . S
N766 S764 1.610 . S
N766 C767 1.351 . S
C767 C761 1.428 . S
C767 N766 1.351 . S
C767 C768 1.434 . S
C768 C759 1.429 . S
C768 N765 1.350 . S
C768 C767 1.434 . S
C769 C770 1.369 . S
C769 C771 1.419 . S
C769 H773 0.930 . S
C770 C769 1.369 . S
C770 C779 1.429 . S
C771 C769 1.419 . S
C771 C772 1.363 . S
C771 H774 0.929 . S
C772 C771 1.363 . S
C772 C778 1.428 . S
H773 C769 0.930 . S
H774 C771 0.929 . S
S775 N776 1.613 . S
S775 N777 1.610 . S
N776 S775 1.613 . S
N776 C779 1.350 . S
N777 S775 1.610 . S
N777 C778 1.351 . S
C778 C772 1.428 . S
C778 N777 1.351 . S
C778 C779 1.434 . S
C779 C770 1.429 . S
C779 N776 1.350 . S
C779 C778 1.434 . S
C780 C781 1.369 . S
C780 C782 1.419 . S
C780 H784 0.930 . S
C781 C780 1.369 . S
C781 C790 1.429 . S
C782 C780 1.419 . S
C782 C783 1.363 . S
C782 H785 0.929 . S
C783 C782 1.363 . S
C783 C789 1.428 . S
H784 C780 0.930 . S
H785 C782 0.929 . S
S786 N787 1.613 . S
S786 N788 1.610 . S
N787 S786 1.613 . S
N787 C790 1.350 . S
N788 S786 1.610 . S
N788 C789 1.351 . S
C789 C783 1.428 . S
C789 N788 1.351 . S
C789 C790 1.434 . S
C790 C781 1.429 . S
C790 N787 1.350 . S
C790 C789 1.434 . S
C791 C792 1.369 1_565 S
C791 C793 1.419 1_565 S
C791 H795 0.930 . S
C792 C791 1.369 1_545 S
C792 C801 1.429 . S
C793 C791 1.419 1_545 S
C793 C794 1.363 . S
C793 H796 0.929 1_545 S
C794 C793 1.363 . S
C794 C800 1.428 . S
H795 C791 0.930 . S
H796 C793 0.929 1_565 S
S797 N798 1.613 . S
S797 N799 1.610 . S
N798 S797 1.613 . S
N798 C801 1.350 . S
N799 S797 1.610 . S
N799 C800 1.351 . S
C800 C794 1.428 . S
C800 N799 1.351 . S
C800 C801 1.434 . S
C801 C792 1.429 . S
C801 N798 1.350 . S
C801 C800 1.434 . S
C802 C803 1.369 . S
C802 C804 1.419 . S
C802 H806 0.930 . S
C803 C802 1.369 . S
C803 C812 1.429 . S
C804 C802 1.419 . S
C804 C805 1.363 . S
C804 H807 0.929 . S
C805 C804 1.363 . S
C805 C811 1.428 . S
H806 C802 0.930 . S
H807 C804 0.929 . S
S808 N809 1.613 . S
S808 N810 1.610 . S
N809 S808 1.613 . S
N809 C812 1.350 . S
N810 S808 1.610 . S
N810 C811 1.351 . S
C811 C805 1.428 . S
C811 N810 1.351 . S
C811 C812 1.434 . S
C812 C803 1.429 . S
C812 N809 1.350 . S
C812 C811 1.434 . S
C813 C814 1.369 . S
C813 C815 1.419 . S
C813 H817 0.930 . S
C814 C813 1.369 . S
C814 C823 1.429 . S
C815 C813 1.419 . S
C815 C816 1.363 . S
C815 H818 0.929 . S
C816 C815 1.363 . S
C816 C822 1.428 . S
H817 C813 0.930 . S
H818 C815 0.929 . S
S819 N820 1.613 . S
S819 N821 1.610 . S
N820 S819 1.613 . S
N820 C823 1.350 . S
N821 S819 1.610 . S
N821 C822 1.351 . S
C822 C816 1.428 . S
C822 N821 1.351 . S
C822 C823 1.434 . S
C823 C814 1.429 . S
C823 N820 1.350 . S
C823 C822 1.434 . S
C824 C825 1.369 . S
C824 C826 1.419 . S
C824 H828 0.930 . S
C825 C824 1.369 . S
C825 C834 1.429 . S
C826 C824 1.419 . S
C826 C827 1.363 . S
C826 H829 0.929 . S
C827 C826 1.363 . S
C827 C833 1.428 . S
H828 C824 0.930 . S
H829 C826 0.929 . S
S830 N831 1.613 . S
S830 N832 1.610 . S
N831 S830 1.613 . S
N831 C834 1.350 . S
N832 S830 1.610 . S
N832 C833 1.351 . S
C833 C827 1.428 . S
C833 N832 1.351 . S
C833 C834 1.434 . S
C834 C825 1.429 . S
C834 N831 1.350 . S
C834 C833 1.434 . S
C835 C836 1.369 1_455 S
C835 C837 1.419 . S
C835 H839 0.930 . S
C836 C835 1.369 1_655 S
C836 C845 1.429 . S
C837 C835 1.419 . S
C837 C838 1.363 1_455 S
C837 H840 0.929 . S
C838 C837 1.363 1_655 S
C838 C844 1.428 . S
H839 C835 0.930 . S
H840 C837 0.929 . S
S841 N842 1.613 . S
S841 N843 1.610 . S
N842 S841 1.613 . S
N842 C845 1.350 . S
N843 S841 1.610 . S
N843 C844 1.351 . S
C844 C838 1.428 . S
C844 N843 1.351 . S
C844 C845 1.434 . S
C845 C836 1.429 . S
C845 N842 1.350 . S
C845 C844 1.434 . S
C846 C847 1.369 . S
C846 C848 1.419 . S
C846 H850 0.930 . S
C847 C846 1.369 . S
C847 C856 1.429 . S
C848 C846 1.419 . S
C848 C849 1.363 . S
C848 H851 0.929 . S
C849 C848 1.363 . S
C849 C855 1.428 . S
H850 C846 0.930 . S
H851 C848 0.929 . S
S852 N853 1.613 . S
S852 N854 1.610 . S
N853 S852 1.613 . S
N853 C856 1.350 . S
N854 S852 1.610 . S
N854 C855 1.351 . S
C855 C849 1.428 . S
C855 N854 1.351 . S
C855 C856 1.434 . S
C856 C847 1.429 . S
C856 N853 1.350 . S
C856 C855 1.434 . S
C857 C858 1.369 . S
C857 C859 1.419 . S
C857 H861 0.930 1_455 S
C858 C857 1.369 . S
C858 C867 1.429 . S
C859 C857 1.419 . S
C859 C860 1.363 . S
C859 H862 0.929 1_455 S
C860 C859 1.363 . S
C860 C866 1.428 . S
H861 C857 0.930 1_655 S
H862 C859 0.929 1_655 S
S863 N864 1.613 . S
S863 N865 1.610 . S
N864 S863 1.613 . S
N864 C867 1.350 . S
N865 S863 1.610 . S
N865 C866 1.351 . S
C866 C860 1.428 . S
C866 N865 1.351 . S
C866 C867 1.434 . S
C867 C858 1.429 . S
C867 N864 1.350 . S
C867 C866 1.434 . S
C868 C869 1.369 . S
C868 C870 1.419 . S
C868 H872 0.930 . S
C869 C868 1.369 . S
C869 C878 1.429 . S
C870 C868 1.419 . S
C870 C871 1.363 . S
C870 H873 0.929 . S
C871 C870 1.363 . S
C871 C877 1.428 . S
H872 C868 0.930 . S
H873 C870 0.929 . S
S874 N875 1.613 . S
S874 N876 1.610 . S
N875 S874 1.613 . S
N875 C878 1.350 . S
N876 S874 1.610 . S
N876 C877 1.351 . S
C877 C871 1.428 . S
C877 N876 1.351 . S
C877 C878 1.434 . S
C878 C869 1.429 . S
C878 N875 1.350 . S
C878 C877 1.434 . S
C879 C880 1.369 . S
C879 C881 1.419 . S
C879 H883 0.930 . S
C880 C879 1.369 . S
C880 C889 1.429 . S
C881 C879 1.419 . S
C881 C882 1.363 . S
C881 H884 0.929 . S
C882 C881 1.363 . S
C882 C888 1.428 . S
H883 C879 0.930 . S
H884 C881 0.929 . S
S885 N886 1.613 . S
S885 N887 1.610 . S
N886 S885 1.613 . S
N886 C889 1.350 . S
N887 S885 1.610 . S
N887 C888 1.351 . S
C888 C882 1.428 . S
C888 N887 1.351 . S
C888 C889 1.434 . S
C889 C880 1.429 . S
C889 N886 1.350 . S
C889 C888 1.434 . S
C890 C891 1.369 . S
C890 C892 1.419 . S
C890 H894 0.930 . S
C891 C890 1.369 . S
C891 C900 1.429 . S
C892 C890 1.419 . S
C892 C893 1.363 . S
C892 H895 0.929 . S
C893 C892 1.363 . S
C893 C899 1.428 . S
H894 C890 0.930 . S
H895 C892 0.929 . S
S896 N897 1.613 . S
S896 N898 1.610 . S
N897 S896 1.613 . S
N897 C900 1.350 . S
N898 S896 1.610 . S
N898 C899 1.351 . S
C899 C893 1.428 . S
C899 N898 1.351 . S
C899 C900 1.434 . S
C900 C891 1.429 . S
C900 N897 1.350 . S
C900 C899 1.434 . S
C901 C902 1.369 . S
C901 C903 1.419 . S
C901 H905 0.930 . S
C902 C901 1.369 . S
C902 C911 1.429 . S
C903 C901 1.419 . S
C903 C904 1.363 . S
C903 H906 0.929 . S
C904 C903 1.363 . S
C904 C910 1.428 . S
H905 C901 0.930 . S
H906 C903 0.929 . S
S907 N908 1.613 . S
S907 N909 1.610 . S
N908 S907 1.613 . S
N908 C911 1.350 . S
N909 S907 1.610 . S
N909 C910 1.351 . S
C910 C904 1.428 . S
C910 N909 1.351 . S
C910 C911 1.434 . S
C911 C902 1.429 . S
C911 N908 1.350 . S
C911 C910 1.434 . S
C912 C913 1.369 . S
C912 C914 1.419 . S
C912 H916 0.930 . S
C913 C912 1.369 . S
C913 C922 1.429 . S
C914 C912 1.419 . S
C914 C915 1.363 . S
C914 H917 0.929 . S
C915 C914 1.363 . S
C915 C921 1.428 . S
H916 C912 0.930 . S
H917 C914 0.929 . S
S918 N919 1.613 . S
S918 N920 1.610 . S
N919 S918 1.613 . S
N919 C922 1.350 . S
N920 S918 1.610 . S
N920 C921 1.351 . S
C921 C915 1.428 . S
C921 N920 1.351 . S
C921 C922 1.434 . S
C922 C913 1.429 . S
C922 N919 1.350 . S
C922 C921 1.434 . S
C923 C924 1.369 . S
C923 C925 1.419 . S
C923 H927 0.930 . S
C924 C923 1.369 . S
C924 C933 1.429 . S
C925 C923 1.419 . S
C925 C926 1.363 . S
C925 H928 0.929 . S
C926 C925 1.363 . S
C926 C932 1.428 . S
H927 C923 0.930 . S
H928 C925 0.929 . S
S929 N930 1.613 . S
S929 N931 1.610 . S
N930 S929 1.613 . S
N930 C933 1.350 . S
N931 S929 1.610 . S
N931 C932 1.351 . S
C932 C926 1.428 . S
C932 N931 1.351 . S
C932 C933 1.434 . S
C933 C924 1.429 . S
C933 N930 1.350 . S
C933 C932 1.434 . S
C934 C935 1.369 . S
C934 C936 1.419 . S
C934 H938 0.930 . S
C935 C934 1.369 . S
C935 C944 1.429 . S
C936 C934 1.419 . S
C936 C937 1.363 . S
C936 H939 0.929 . S
C937 C936 1.363 . S
C937 C943 1.428 . S
H938 C934 0.930 . S
H939 C936 0.929 . S
S940 N941 1.613 . S
S940 N942 1.610 . S
N941 S940 1.613 . S
N941 C944 1.350 . S
N942 S940 1.610 . S
N942 C943 1.351 . S
C943 C937 1.428 . S
C943 N942 1.351 . S
C943 C944 1.434 . S
C944 C935 1.429 . S
C944 N941 1.350 . S
C944 C943 1.434 . S
C945 C946 1.369 . S
C945 C947 1.419 . S
C945 H949 0.930 . S
C946 C945 1.369 . S
C946 C955 1.429 . S
C947 C945 1.419 . S
C947 C948 1.363 . S
C947 H950 0.929 . S
C948 C947 1.363 . S
C948 C954 1.428 . S
H949 C945 0.930 . S
H950 C947 0.929 . S
S951 N952 1.613 . S
S951 N953 1.610 . S
N952 S951 1.613 . S
N952 C955 1.350 . S
N953 S951 1.610 . S
N953 C954 1.351 . S
C954 C948 1.428 . S
C954 N953 1.351 . S
C954 C955 1.434 . S
C955 C946 1.429 . S
C955 N952 1.350 . S
C955 C954 1.434 . S
C956 C957 1.369 . S
C956 C958 1.419 . S
C956 H960 0.930 . S
C957 C956 1.369 . S
C957 C966 1.429 . S
C958 C956 1.419 . S
C958 C959 1.363 . S
C958 H961 0.929 . S
C959 C958 1.363 . S
C959 C965 1.428 . S
H960 C956 0.930 . S
H961 C958 0.929 . S
S962 N963 1.613 . S
S962 N964 1.610 . S
N963 S962 1.613 . S
N963 C966 1.350 . S
N964 S962 1.610 . S
N964 C965 1.351 . S
C965 C959 1.428 . S
C965 N964 1.351 . S
C965 C966 1.434 . S
C966 C957 1.429 . S
C966 N963 1.350 . S
C966 C965 1.434 . S
C967 C968 1.369 . S
C967 C969 1.419 . S
C967 H971 0.930 . S
C968 C967 1.369 . S
C968 C977 1.429 . S
C969 C967 1.419 . S
C969 C970 1.363 . S
C969 H972 0.929 . S
C970 C969 1.363 . S
C970 C976 1.428 . S
H971 C967 0.930 . S
H972 C969 0.929 . S
S973 N974 1.613 . S
S973 N975 1.610 . S
N974 S973 1.613 . S
N974 C977 1.350 . S
N975 S973 1.610 . S
N975 C976 1.351 . S
C976 C970 1.428 . S
C976 N975 1.351 . S
C976 C977 1.434 . S
C977 C968 1.429 . S
C977 N974 1.350 . S
C977 C976 1.434 . S
C978 C979 1.369 . S
C978 C980 1.419 . S
C978 H982 0.930 . S
C979 C978 1.369 . S
C979 C988 1.429 . S
C980 C978 1.419 . S
C980 C981 1.363 . S
C980 H983 0.929 . S
C981 C980 1.363 . S
C981 C987 1.428 1_554 S
H982 C978 0.930 . S
H983 C980 0.929 . S
S984 N985 1.613 . S
S984 N986 1.610 . S
N985 S984 1.613 . S
N985 C988 1.350 1_556 S
N986 S984 1.610 . S
N986 C987 1.351 . S
C987 C981 1.428 1_556 S
C987 N986 1.351 . S
C987 C988 1.434 1_556 S
C988 C979 1.429 . S
C988 N985 1.350 1_554 S
C988 C987 1.434 1_554 S
C989 C990 1.369 . S
C989 C991 1.419 . S
C989 H993 0.930 . S
C990 C989 1.369 . S
C990 C999 1.429 . S
C991 C989 1.419 . S
C991 C992 1.363 . S
C991 H994 0.929 . S
C992 C991 1.363 . S
C992 C998 1.428 . S
H993 C989 0.930 . S
H994 C991 0.929 . S
S995 N996 1.613 1_556 S
S995 N997 1.610 1_546 S
N996 S995 1.613 1_554 S
N996 C999 1.350 1_545 S
N997 S995 1.610 1_564 S
N997 C998 1.351 . S
C998 C992 1.428 . S
C998 N997 1.351 . S
C998 C999 1.434 . S
C999 C990 1.429 . S
C999 N996 1.350 1_565 S
C999 C998 1.434 . S
C475 C312 1.871 . S
C473 C101 1.904 . S
C486 C325 1.252 . S
C484 C125 1.178 . S
C495 C139 2.032 . S
C497 C345 1.878 . S
C508 C359 1.530 . S
C506 C82 1.651 . S
C519 C371 1.628 . S
C517 C196 1.648 . S
C530 C385 1.774 . S
C528 C234 1.775 . S
C539 C220 0.929 . S
C541 C395 1.023 . S
C552 C410 1.702 . S
C550 C173 1.714 . S
C561 C211 1.182 . S
C563 C424 1.136 . S
C574 C443 1.074 . S
C572 C182 1.036 . S
C583 C201 1.314 . S
C585 C423 1.451 . S
C596 C441 1.367 . S
C594 C239 1.288 . S
C605 C135 1.789 . S
C607 C457 1.716 . S
C616 C87 1.688 . S
C618 C451 1.833 . S
C627 C106 1.202 . S
C629 C455 1.381 . S
C638 C116 1.313 . S
C640 C452 1.325 . S
C649 C59 1.821 . S
C651 C354 1.810 . S
C660 C268 2.045 . S
C662 C353 2.030 . S
C673 C317 1.339 . S
C671 C291 1.338 . S
C684 C331 1.458 . S
C682 C163 1.461 . S
C693 C78 1.933 1_545 S
C695 C368 1.951 . S
C706 C413 1.311 . S
C704 C215 1.304 . S
C717 C367 1.629 . S
C715 C177 1.635 . S
C728 C399 1.736 . S
C726 C230 1.723 . S
C739 C396 1.874 . S
C737 C272 1.899 . S
C748 C296 1.181 . S
C750 C409 1.253 . S
C759 C158 2.034 . S
C761 C373 1.871 . S
C772 C387 1.522 . S
C770 C253 1.651 . S
C781 C63 1.648 . S
C783 C343 1.629 . S
C794 C357 1.776 . S
C792 C6 1.774 . S
C805 C311 1.017 . S
C803 C30 0.944 . S
C816 C326 1.701 . S
C814 C40 1.715 1_455 S
C825 C21 1.184 . S
C827 C438 1.127 . S
C836 C49 1.055 . S
C838 C429 1.086 1_655 S
C847 C68 1.302 . S
C849 C437 1.455 . S
C858 C11 1.277 . S
C860 C427 1.363 . S
C871 C471 1.713 . S
C869 C154 1.791 . S
C882 C465 1.833 . S
C880 C258 1.679 . S
C893 C469 1.383 . S
C891 C277 1.215 . S
C902 C287 1.315 1_554 S
C904 C466 1.329 . S
C913 C192 1.824 . S
C915 C382 1.808 . S
C926 C381 2.031 . S
C924 C97 2.046 . S
C937 C401 1.340 . S
C935 C120 1.338 . S
C948 C415 1.457 . S
C946 C144 1.459 . S
C957 C249 1.931 . S
C959 C340 1.952 . S
C970 C329 1.311 . S
C968 C25 1.304 . S
C979 C44 1.630 . S
C981 C339 1.630 . S
C992 C315 1.737 . S
C990 C2 1.730 . S
