# Generated by pormake.
# Topology anh, (6,3)-cn, num edge types: 1
# Building blocks:
#     Node 0, Type 0, BuildingBlock: BETDIP_clean_sbu_0, # of connection points: 6
#     Node 1, Type 0, BuildingBlock: BETDIP_clean_sbu_0, # of connection points: 6
#     Node 2, Type 0, BuildingBlock: BETDIP_clean_sbu_0, # of connection points: 6
#     Node 3, Type 1, BuildingBlock: BETDIP_clean_linker_0, # of connection points: 3
#     Node 4, Type 1, BuildingBlock: BETDIP_clean_linker_0, # of connection points: 3
#     Node 5, Type 1, BuildingBlock: BETDIP_clean_linker_0, # of connection points: 3
#     Node 6, Type 1, BuildingBlock: BETDIP_clean_linker_0, # of connection points: 3
#     Node 7, Type 1, BuildingBlock: BETDIP_clean_linker_0, # of connection points: 3
#     Node 8, Type 1, BuildingBlock: BETDIP_clean_linker_0, # of connection points: 3
#     Edge 9, Type (0, 1), BuildingBlock: OJICUG_clean_linker_0, # of connection points: 2
#     Edge 10, Type (0, 1), BuildingBlock: OJICUG_clean_linker_0, # of connection points: 2
#     Edge 11, Type (0, 1), BuildingBlock: OJICUG_clean_linker_0, # of connection points: 2
#     Edge 12, Type (0, 1), BuildingBlock: OJICUG_clean_linker_0, # of connection points: 2
#     Edge 13, Type (0, 1), BuildingBlock: OJICUG_clean_linker_0, # of connection points: 2
#     Edge 14, Type (0, 1), BuildingBlock: OJICUG_clean_linker_0, # of connection points: 2
#     Edge 15, Type (0, 1), BuildingBlock: OJICUG_clean_linker_0, # of connection points: 2
#     Edge 16, Type (0, 1), BuildingBlock: OJICUG_clean_linker_0, # of connection points: 2
#     Edge 17, Type (0, 1), BuildingBlock: OJICUG_clean_linker_0, # of connection points: 2
#     Edge 18, Type (0, 1), BuildingBlock: OJICUG_clean_linker_0, # of connection points: 2
#     Edge 19, Type (0, 1), BuildingBlock: OJICUG_clean_linker_0, # of connection points: 2
#     Edge 20, Type (0, 1), BuildingBlock: OJICUG_clean_linker_0, # of connection points: 2
#     Edge 21, Type (0, 1), BuildingBlock: OJICUG_clean_linker_0, # of connection points: 2
#     Edge 22, Type (0, 1), BuildingBlock: OJICUG_clean_linker_0, # of connection points: 2
#     Edge 23, Type (0, 1), BuildingBlock: OJICUG_clean_linker_0, # of connection points: 2
#     Edge 24, Type (0, 1), BuildingBlock: OJICUG_clean_linker_0, # of connection points: 2
#     Edge 25, Type (0, 1), BuildingBlock: OJICUG_clean_linker_0, # of connection points: 2
#     Edge 26, Type (0, 1), BuildingBlock: OJICUG_clean_linker_0, # of connection points: 2
# Relax obj value: 0.393
# Max RMSD: 0.194
# Mean RMSD: 0.139
data_MOF--net-anh--node1-BETDIP_clean_sbu_0--node2-BETDIP_clean_linker_0--edge1-OJICUG_clean_linker_0
_symmetry_space_group_name_H-M    P1
_symmetry_Int_Tables_number       1
_symmetry_cell_setting            triclinic
loop_
_symmetry_equiv_pos_as_xyz
'x, y, z'
_cell_length_a     21.819205
_cell_length_b     21.728597
_cell_length_c     36.059638
_cell_angle_alpha  94.682951
_cell_angle_beta   86.95442
_cell_angle_gamma 120.34024
loop_
_atom_site_label
_atom_site_type_symbol
_atom_site_fract_x
_atom_site_fract_y
_atom_site_fract_z
_atom_type_partial_charge
Tb0 Tb 0.27201 0.70576 0.1435 0.0
Tb1 Tb 0.20566 0.55245 0.15069 0.0
C2 C 0.34598 0.83899 0.15292 0.0
C3 C 0.41729 0.89896 0.14482 0.0
C4 C 0.47389 0.91865 0.16867 0.0
C5 C 0.53472 0.98582 0.16729 0.0
C6 C 0.53969 1.03458 0.14222 0.0
C7 C 0.48702 1.01118 0.11526 0.0
C8 C 0.42596 0.94409 0.11676 0.0
C9 C 0.22973 0.63094 0.07961 0.0
C10 C 0.37021 0.63152 0.13866 0.0
C11 C 1.11705 0.42124 0.15036 0.0
C12 C 1.03923 0.39033 0.15003 0.0
C13 C 1.00848 0.40766 0.12227 0.0
C14 C 0.94843 0.41373 0.13057 0.0
C15 C 0.91899 0.40305 0.16669 0.0
C16 C 0.94071 0.37088 0.19134 0.0
C17 C 1.0006 0.36461 0.18305 0.0
C18 C 0.24925 0.63184 0.21379 0.0
C19 C 1.10898 0.62486 0.14378 0.0
O20 O 0.34014 0.79518 0.17763 0.0
O21 O 0.30424 0.80617 0.12457 0.0
O22 O 0.25691 0.61795 0.10571 0.0
O23 O 0.2314 0.69082 0.0877 0.0
O24 O 0.36623 0.69103 0.1427 0.0
O25 O 0.31151 0.5678 0.13757 0.0
O26 O 1.15225 0.45264 0.12068 0.0
O27 O 1.14704 0.46066 0.18056 0.0
O28 O 0.21664 0.63959 0.18831 0.0
O29 O 0.25877 0.57866 0.20403 0.0
O30 O 1.1166 0.56822 0.13639 0.0
O31 O 1.16427 0.68638 0.15496 0.0
H32 H 0.46903 0.88486 0.19045 0.0
H33 H 0.57406 1.00198 0.18862 0.0
H34 H 0.48995 1.04719 0.09525 0.0
H35 H 0.38329 0.93004 0.0978 0.0
H36 H 1.03553 0.42545 0.09587 0.0
H37 H 0.93042 0.43421 0.10997 0.0
H38 H 0.91593 0.35715 0.21856 0.0
H39 H 1.02188 0.34879 0.2045 0.0
Tb40 Tb 0.71703 0.1436 0.48686 0.0
Tb41 Tb 0.62439 0.20734 0.48222 0.0
C42 C 0.77977 1.08246 0.50588 0.0
C43 C 0.81678 1.04623 0.51695 0.0
C44 C 0.84337 1.05896 0.55304 0.0
C45 C 0.88853 1.03443 0.56191 0.0
C46 C 0.90747 0.99626 0.53488 0.0
C47 C 0.87754 0.9803 0.49934 0.0
C48 C 0.83287 1.00535 0.49041 0.0
C49 C 0.70345 0.17401 0.42012 0.0
C50 C 0.54575 1.04011 0.47882 0.0
C51 C 0.57115 0.27938 0.46407 0.0
C52 C 0.60451 0.35399 0.45398 0.0
C53 C 0.66132 0.38197 0.42823 0.0
C54 C 0.70696 0.45577 0.42783 0.0
C55 C 0.69732 0.50229 0.45377 0.0
C56 C 0.63465 0.47424 0.47565 0.0
C57 C 0.58858 0.40069 0.47563 0.0
C58 C 0.6438 0.18438 0.55045 0.0
C59 C 0.79592 0.30817 0.47998 0.0
O60 O 0.7491 1.10715 0.53006 0.0
O61 O 0.77275 1.09008 0.471 0.0
O62 O 0.65577 0.14827 0.4448 0.0
O63 O 0.76137 0.17959 0.43174 0.0
O64 O 0.60838 1.04697 0.48611 0.0
O65 O 0.53983 1.0966 0.47398 0.0
O66 O 0.58043 0.23528 0.44082 0.0
O67 O 0.58071 0.272 0.49857 0.0
O68 O 0.68986 0.20724 0.52466 0.0
O69 O 0.58497 0.17618 0.53848 0.0
O70 O 0.73264 0.29824 0.47176 0.0
O71 O 0.80187 0.25571 0.49236 0.0
H72 H 0.83209 1.09082 0.57392 0.0
H73 H 0.91094 1.04809 0.58948 0.0
H74 H 0.88959 0.94947 0.47818 0.0
H75 H 0.81259 0.99446 0.46241 0.0
H76 H 0.67428 0.3471 0.41072 0.0
H77 H 0.7535 0.47575 0.40979 0.0
H78 H 0.62489 0.5079 0.496 0.0
H79 H 0.54457 0.38016 0.49538 0.0
Tb80 Tb 0.66243 0.66097 0.81644 0.0
Tb81 Tb 0.81663 0.7539 0.81597 0.0
C82 C 0.53309 0.59693 0.83318 0.0
C83 C 0.46274 0.58725 0.82687 0.0
C84 C 0.4228 0.58964 0.85803 0.0
C85 C 0.34911 0.55531 0.85614 0.0
C86 C 0.31431 0.51775 0.82301 0.0
C87 C 0.35501 0.52359 0.79059 0.0
C88 C 0.42892 0.55828 0.79247 0.0
C89 C 0.72115 0.68274 0.74963 0.0
C90 C 0.7302 0.83231 0.81201 0.0
C91 C 0.94639 0.80108 0.80517 0.0
C92 C 0.9828 0.76288 0.81488 0.0
C93 C 0.98335 0.71061 0.78931 0.0
C94 C 0.98444 0.65216 0.80204 0.0
C95 C 0.98494 0.64552 0.8404 0.0
C96 C 0.99687 0.70372 0.86516 0.0
C97 C 0.99653 0.76234 0.85246 0.0
C98 C 0.75769 0.72871 0.88348 0.0
C99 C 0.74704 0.58191 0.81192 0.0
O100 O 0.57993 0.65452 0.85215 0.0
O101 O 0.56124 0.5755 0.80595 0.0
O102 O 0.73756 0.72743 0.77681 0.0
O103 O 0.66508 0.62382 0.75809 0.0
O104 O 0.67345 0.76922 0.819 0.0
O105 O 0.79316 0.83784 0.80557 0.0
O106 O 0.89966 0.76904 0.77871 0.0
O107 O 0.92122 0.82385 0.83336 0.0
O108 O 0.74199 0.68417 0.85596 0.0
O109 O 0.8097 0.78939 0.87384 0.0
O110 O 0.80205 0.64467 0.80348 0.0
O111 O 0.68837 0.57885 0.82548 0.0
H112 H 0.44773 0.61154 0.88482 0.0
H113 H 0.31949 0.55188 0.88172 0.0
H114 H 0.32956 0.49647 0.76453 0.0
H115 H 0.45868 0.55647 0.7678 0.0
H116 H 0.97459 0.71043 0.75999 0.0
H117 H 0.97783 0.6092 0.78215 0.0
H118 H 1.00148 0.70178 0.89476 0.0
H119 H 0.99886 0.80298 0.87281 0.0
H120 H 0.66373 0.37101 0.20124 0.0
H121 H 0.70556 0.4149 0.31873 0.0
H122 H 0.67492 0.218 0.26426 0.0
H123 H 0.73355 0.55479 0.21693 0.0
C124 C 0.74328 0.51484 0.227 0.0
C125 C 0.67269 0.35568 0.22735 0.0
C126 C 0.67081 0.29061 0.22855 0.0
C127 C 0.68802 0.40214 0.25945 0.0
C128 C 0.69516 0.38008 0.29372 0.0
C129 C 0.68993 0.31318 0.29525 0.0
C130 C 0.67935 0.26976 0.26267 0.0
N131 N 0.70072 0.4726 0.25658 0.0
H132 H 1.00093 0.77306 0.52335 0.0
H133 H 0.99442 0.79371 0.64285 0.0
H134 H 0.80056 0.66872 0.5818 0.0
H135 H 1.16023 0.93236 0.55585 0.0
C136 C 1.1057 0.90547 0.56601 0.0
C137 C 0.97068 0.76021 0.54922 0.0
C138 C 0.89663 0.71687 0.54862 0.0
C139 C 1.0058 0.78833 0.58326 0.0
C140 C 0.96692 0.77114 0.61673 0.0
C141 C 0.89252 0.72889 0.61636 0.0
C142 C 0.85796 0.70188 0.58223 0.0
N143 N 1.07911 0.8404 0.58378 0.0
H144 H 0.94078 0.32835 0.87367 0.0
H145 H 1.0829 0.35729 0.9593 0.0
H146 H 0.99304 0.49444 0.95937 0.0
H147 H 1.02577 0.23216 0.84524 0.0
C148 C 1.04193 0.28331 0.86026 0.0
C149 C 0.96538 0.3542 0.90012 0.0
C150 C 0.96383 0.41518 0.91431 0.0
C151 C 1.00711 0.33258 0.91712 0.0
C152 C 1.0462 0.37127 0.94894 0.0
C153 C 1.04401 0.43212 0.96406 0.0
C154 C 0.99746 0.44923 0.94802 0.0
N155 N 1.02057 0.28073 0.89841 0.0
H156 H 0.23382 0.72693 0.47987 0.0
H157 H 1.14129 0.60902 0.37614 0.0
H158 H 0.34883 0.7956 0.37623 0.0
H159 H 1.03931 0.59219 0.41004 0.0
C160 C 1.04826 0.57118 0.43425 0.0
C161 C 0.23692 0.71987 0.44989 0.0
C162 C 0.29866 0.76911 0.43038 0.0
C163 C 1.17905 0.66154 0.43057 0.0
C164 C 1.18392 0.65396 0.39146 0.0
C165 C 0.24484 0.70185 0.37181 0.0
C166 C 0.30201 0.75848 0.39147 0.0
N167 N 1.11759 0.60978 0.45036 0.0
H168 H 0.75366 0.27232 0.81343 0.0
H169 H 0.71092 1.13629 0.71259 0.0
H170 H 0.71509 0.3357 0.71085 0.0
H171 H 0.64286 1.05175 0.76224 0.0
C172 C 0.6914 1.06934 0.77734 0.0
C173 C 0.74202 0.26189 0.784 0.0
C174 C 0.73616 0.31274 0.76431 0.0
C175 C 0.73184 0.197 0.76563 0.0
C176 C 0.71755 0.18481 0.72724 0.0
C177 C 0.71142 0.23445 0.70749 0.0
C178 C 0.72039 0.29774 0.72617 0.0
N179 N 0.73675 0.14472 0.78538 0.0
H180 H 0.68355 0.63012 0.14446 0.0
H181 H 0.80504 0.65758 0.04213 0.0
H182 H 0.61525 0.67022 0.04355 0.0
H183 H 0.82757 0.57768 0.06985 0.0
C184 C 0.84569 0.60704 0.09663 0.0
C185 C 0.69105 0.63931 0.11507 0.0
C186 C 0.64111 0.64915 0.09622 0.0
C187 C 0.75092 0.64159 0.09578 0.0
C188 C 0.75924 0.65364 0.05742 0.0
C189 C 0.7106 0.66403 0.03872 0.0
C190 C 0.65253 0.66218 0.05825 0.0
N191 N 0.80342 0.63455 0.11499 0.0
C192 C 0.50324 0.70307 0.12596 0.0
C193 C 0.44184 0.63698 0.13247 0.0
H194 H 0.61379 0.75862 0.10995 0.0
C195 C 0.44954 0.57606 0.13127 0.0
H196 H 0.50015 0.75134 0.12653 0.0
C197 C 0.51564 0.58072 0.12249 0.0
C198 C 0.57604 0.64634 0.11444 0.0
H199 H 0.40394 0.52417 0.13614 0.0
H200 H 0.51863 0.53229 0.12009 0.0
C201 C 0.56889 0.70748 0.11674 0.0
C202 C 0.92835 0.40104 0.4868 0.0
C203 C 0.86151 0.37727 0.47092 0.0
H204 H 1.03997 0.48149 0.48874 0.0
C205 C 0.8581 0.4187 0.44402 0.0
H206 H 0.93341 0.3703 0.50737 0.0
C207 C 0.91883 0.48086 0.43293 0.0
C208 C 0.98538 0.50544 0.44885 0.0
H209 H 0.80851 0.40197 0.43052 0.0
H210 H 0.91352 0.50996 0.41149 0.0
C211 C 0.98951 0.46487 0.47618 0.0
C212 C 0.65343 0.88489 0.79998 0.0
C213 C 0.72107 0.89521 0.80655 0.0
H214 H 0.59207 0.93122 0.78545 0.0
C215 C 0.77969 0.96555 0.80574 0.0
H216 H 0.60698 0.83194 0.80008 0.0
C217 C 0.77078 1.02339 0.79804 0.0
C218 C 0.70318 1.01204 0.79021 0.0
H219 H 0.83269 0.97583 0.81062 0.0
H220 H 0.81702 1.07629 0.79689 0.0
C221 C 0.64485 0.94208 0.79154 0.0
C222 C 1.01225 0.65939 0.15437 0.0
C223 C 1.04056 0.62075 0.13397 0.0
H224 H 0.92798 0.68494 0.15971 0.0
C225 C 1.00385 0.57882 0.10222 0.0
H226 H 1.03938 0.69291 0.1788 0.0
C227 C 0.94098 0.57463 0.09129 0.0
C228 C 0.91178 0.61223 0.11155 0.0
H229 H 1.02454 0.54977 0.08519 0.0
H230 H 0.91519 0.54181 0.06641 0.0
C231 C 0.94821 0.65468 0.1435 0.0
C232 C 0.48818 0.90776 0.45942 0.0
C233 C 0.48144 0.96722 0.47197 0.0
H234 H 0.43594 0.79893 0.43631 0.0
C235 C 0.41243 0.95776 0.47447 0.0
H236 H 0.54018 0.91281 0.45673 0.0
C237 C 0.35245 0.89182 0.4636 0.0
C238 C 0.35974 0.83367 0.44926 0.0
H239 H 0.40486 1.00211 0.48394 0.0
H240 H 0.30072 0.88749 0.46454 0.0
C241 C 0.42834 0.84231 0.44774 0.0
C242 C 0.69166 0.44738 0.81472 0.0
C243 C 0.74901 0.51357 0.80422 0.0
H244 H 0.64316 0.33258 0.81099 0.0
C245 C 0.80507 0.51246 0.78353 0.0
H246 H 0.64687 0.44536 0.83025 0.0
C247 C 0.803 0.44758 0.77276 0.0
C248 C 0.74483 0.38154 0.78237 0.0
H249 H 0.84901 0.56154 0.774 0.0
H250 H 0.84576 0.4488 0.75553 0.0
C251 C 0.68961 0.38243 0.80395 0.0
C252 C 1.01168 0.98037 0.51661 0.0
C253 C 0.9601 0.97538 0.54333 0.0
H254 H 1.09892 0.96268 0.50322 0.0
C255 C 0.96018 0.9517 0.57842 0.0
H256 H 1.01424 1.00012 0.48962 0.0
C257 C 1.00968 0.93219 0.58632 0.0
C258 C 1.05894 0.9342 0.55906 0.0
H259 H 0.92133 0.94715 0.59964 0.0
H260 H 1.00885 0.91475 0.61371 0.0
C261 C 1.06082 0.96007 0.52448 0.0
C262 C 0.99528 0.5354 0.83844 0.0
C263 C 0.96728 0.57669 0.85509 0.0
H264 H 1.01276 0.44844 0.8436 0.0
C265 C 0.92309 0.55272 0.8868 0.0
H266 H 1.02855 0.55182 0.81368 0.0
C267 C 0.91406 0.4935 0.90404 0.0
C268 C 0.94864 0.45694 0.88969 0.0
H269 H 0.89807 0.58173 0.89932 0.0
H270 H 0.88467 0.47968 0.93013 0.0
C271 C 0.98561 0.47567 0.85548 0.0
C272 C 0.65488 1.13683 0.16611 0.0
C273 C 0.58768 1.11196 0.15103 0.0
H274 H 0.73546 0.21542 0.2026 0.0
C275 C 0.55887 0.15736 0.15361 0.0
H276 H 0.67911 1.10373 0.16382 0.0
C277 C 0.59094 0.22094 0.17577 0.0
C278 C 0.65224 0.23998 0.19555 0.0
H279 H 0.50717 0.14007 0.14239 0.0
H280 H 0.56334 0.25065 0.18068 0.0
C281 C 0.68694 0.2005 0.18835 0.0
C282 C 0.82547 0.58045 0.46911 0.0
C283 C 0.75837 0.57359 0.46521 0.0
H284 H 0.92317 0.63296 0.49874 0.0
C285 C 0.74686 0.62817 0.48127 0.0
H286 H 0.83644 0.53971 0.45737 0.0
C287 C 0.7964 0.68114 0.50574 0.0
C288 C 0.85867 0.68108 0.51372 0.0
H289 H 0.69664 0.62579 0.47797 0.0
H290 H 0.78317 0.71808 0.52097 0.0
C291 C 0.87538 0.63395 0.4931 0.0
C292 C 0.21529 0.39284 0.80909 0.0
C293 C 0.23822 0.46237 0.82477 0.0
H294 H 1.13477 0.28234 0.80818 0.0
C295 C 1.19141 0.47458 0.84792 0.0
H296 H 0.25028 0.38135 0.79125 0.0
C297 C 1.12636 0.41765 0.85846 0.0
C298 C 1.10563 0.34693 0.84554 0.0
H299 H 0.20687 0.52784 0.85972 0.0
H300 H 1.0948 0.4309 0.87746 0.0
C301 C 1.14937 0.33584 0.81917 0.0
C302 C 0.83037 0.44331 0.15748 0.0
C303 C 0.87625 0.43637 0.1807 0.0
H304 H 0.75398 0.47734 0.15383 0.0
C305 C 0.88553 0.46662 0.21748 0.0
H306 H 0.82224 0.42148 0.12894 0.0
C307 C 0.84627 0.49778 0.23151 0.0
C308 C 0.7978 0.50088 0.20898 0.0
H309 H 0.92281 0.46587 0.23582 0.0
H310 H 0.85141 0.51667 0.26057 0.0
C311 C 0.792 0.47617 0.17147 0.0
C312 C 1.16009 0.60388 0.0226 0.0
C313 C 1.18994 0.58147 0.04797 0.0
H314 H 1.0971 0.57801 0.97513 0.0
C315 C 1.17757 0.51142 0.04369 0.0
H316 H 1.17081 0.65846 0.02425 0.0
C317 C 1.12928 0.46214 0.01722 0.0
C318 C 1.09606 0.48345 0.99275 0.0
H319 H 0.20437 0.49447 0.06106 0.0
H320 H 1.11784 0.4075 0.01646 0.0
C321 C 1.1156 0.55635 -0.00516 0.0
C322 C 0.63481 0.19007 0.3729 0.0
C323 C 0.7003 0.21161 0.3889 0.0
H324 H 0.58043 0.2074 0.33082 0.0
C325 C 0.76213 0.27061 0.37567 0.0
H326 H 0.58663 0.14444 0.38257 0.0
C327 C 0.75834 0.30752 0.34668 0.0
C328 C 0.69284 0.28512 0.3304 0.0
H329 H 0.81325 0.28821 0.38774 0.0
H330 H 0.80667 0.35163 0.33604 0.0
C331 C 0.63114 0.22641 0.34375 0.0
C332 C 0.75027 0.63663 0.68969 0.0
C333 C 0.76397 0.69406 0.71533 0.0
H334 H 0.78146 0.60248 0.63836 0.0
C335 C 0.82072 0.76254 0.70865 0.0
H336 H 0.70701 0.58327 0.6944 0.0
C337 C 0.86358 0.77345 0.67693 0.0
C338 C 0.85 0.71613 0.65117 0.0
H339 H 0.83201 0.80779 0.72795 0.0
H340 H 0.90633 0.82702 0.67213 0.0
C341 C 0.79292 0.6476 0.6578 0.0
C342 C 0.72608 0.20535 0.60266 0.0
C343 C 0.66052 0.19372 0.59067 0.0
H344 H 0.79296 0.22592 0.64928 0.0
C345 C 0.61172 0.19457 0.61755 0.0
H346 H 0.76518 0.20602 0.58268 0.0
C347 C 0.62854 0.20813 0.65539 0.0
C348 C 0.69382 0.21945 0.66732 0.0
H349 H 0.56094 0.18628 0.6093 0.0
H350 H 0.59041 0.20958 0.67543 0.0
C351 C 0.74215 0.21709 0.6407 0.0
C352 C 0.75194 0.7635 0.95081 0.0
C353 C 0.74139 0.71022 0.92285 0.0
H354 H 0.74942 0.79004 0.00938 0.0
C355 C 0.71979 0.64102 0.93323 0.0
H356 H 0.76867 0.81725 0.9436 0.0
C357 C 0.71066 0.62604 0.97094 0.0
C358 C 0.72143 0.67956 -0.0012 0.0
H359 H 0.71179 0.59903 0.91228 0.0
H360 H 0.69489 0.57266 0.97838 0.0
C361 C 0.74123 0.7481 0.98837 0.0
C362 C 1.20043 0.6731 0.26884 0.0
C363 C 0.25263 0.65875 0.25317 0.0
H364 H 1.15618 0.69653 0.31905 0.0
C365 C 0.3045 0.66299 0.27641 0.0
H366 H 1.15942 0.66952 0.25161 0.0
C367 C 0.30355 0.67988 0.31469 0.0
C368 C 0.2495 0.69089 0.3307 0.0
H369 H 0.34515 0.65192 0.26503 0.0
H370 H 0.34349 0.68157 0.33204 0.0
C371 C 1.19831 0.68804 0.30737 0.0
loop_
_geom_bond_atom_site_label_1
_geom_bond_atom_site_label_2
_geom_bond_distance
_geom_bond_site_symmetry_2
_ccdc_geom_bond_type
Tb0 C2 2.809 . S
Tb0 O20 2.484 . S
Tb0 O21 2.440 . S
Tb0 O22 2.658 . S
Tb0 O23 2.409 . S
Tb0 O24 2.378 . S
Tb0 O28 2.325 . S
Tb0 O31 2.341 1_455 S
Tb1 C11 2.809 . S
Tb1 O22 2.325 1_655 S
Tb1 O25 2.341 1_655 S
Tb1 O26 2.484 . S
Tb1 O27 2.440 . S
Tb1 O28 2.658 1_655 S
Tb1 O29 2.409 1_655 S
Tb1 O30 2.378 . S
C2 Tb0 2.809 . S
C2 C3 1.514 . S
C2 O20 1.248 . S
C2 O21 1.266 . S
C3 C2 1.514 . S
C3 C4 1.359 . S
C3 C8 1.348 . S
C4 C3 1.359 . S
C4 C5 1.380 . S
C4 H32 0.929 . S
C5 C4 1.380 . S
C5 C6 1.347 . S
C5 H33 0.931 . S
C6 C5 1.347 . S
C6 C7 1.369 . S
C7 C6 1.369 . S
C7 C8 1.408 . S
C7 H34 0.930 . S
C8 C3 1.348 . S
C8 C7 1.408 . S
C8 H35 0.930 . S
C9 O22 1.281 . S
C9 O23 1.254 . S
C10 O24 1.236 . S
C10 O25 1.266 . S
C11 Tb1 2.809 . S
C11 C12 1.514 . S
C11 O26 1.248 . S
C11 O27 1.266 . S
C12 C11 1.514 . S
C12 C13 1.359 . S
C12 C17 1.348 . S
C13 C12 1.359 . S
C13 C14 1.380 . S
C13 H36 0.929 . S
C14 C13 1.380 . S
C14 C15 1.347 . S
C14 H37 0.931 . S
C15 C14 1.347 . S
C15 C16 1.369 . S
C16 C15 1.369 . S
C16 C17 1.408 . S
C16 H38 0.930 . S
C17 C12 1.348 . S
C17 C16 1.408 . S
C17 H39 0.930 . S
C18 O28 1.281 . S
C18 O29 1.254 . S
C19 O30 1.236 . S
C19 O31 1.266 . S
O20 Tb0 2.484 . S
O20 C2 1.248 . S
O21 Tb0 2.440 . S
O21 C2 1.266 . S
O22 Tb0 2.658 . S
O22 Tb1 2.325 1_455 S
O22 C9 1.281 . S
O23 Tb0 2.409 . S
O23 C9 1.254 . S
O24 Tb0 2.378 . S
O24 C10 1.236 . S
O25 Tb1 2.341 1_455 S
O25 C10 1.266 . S
O26 Tb1 2.484 . S
O26 C11 1.248 . S
O27 Tb1 2.440 . S
O27 C11 1.266 . S
O28 Tb0 2.325 . S
O28 Tb1 2.658 1_455 S
O28 C18 1.281 . S
O29 Tb1 2.409 1_455 S
O29 C18 1.254 . S
O30 Tb1 2.378 . S
O30 C19 1.236 . S
O31 Tb0 2.341 1_655 S
O31 C19 1.266 . S
H32 C4 0.929 . S
H33 C5 0.931 . S
H34 C7 0.930 . S
H35 C8 0.930 . S
H36 C13 0.929 . S
H37 C14 0.931 . S
H38 C16 0.930 . S
H39 C17 0.930 . S
Tb40 C42 2.790 1_545 S
Tb40 O60 2.469 1_545 S
Tb40 O61 2.423 1_545 S
Tb40 O62 2.674 . S
Tb40 O63 2.413 . S
Tb40 O64 2.376 1_545 S
Tb40 O68 2.334 . S
Tb40 O71 2.357 . S
Tb41 C51 2.809 . S
Tb41 O62 2.325 . S
Tb41 O65 2.341 1_545 S
Tb41 O66 2.484 . S
Tb41 O67 2.440 . S
Tb41 O68 2.658 . S
Tb41 O69 2.409 . S
Tb41 O70 2.378 . S
C42 Tb40 2.790 1_565 S
C42 C43 1.514 . S
C42 O60 1.248 . S
C42 O61 1.266 . S
C43 C42 1.514 . S
C43 C44 1.359 . S
C43 C48 1.348 . S
C44 C43 1.359 . S
C44 C45 1.380 . S
C44 H72 0.929 . S
C45 C44 1.380 . S
C45 C46 1.347 . S
C45 H73 0.931 . S
C46 C45 1.347 . S
C46 C47 1.369 . S
C47 C46 1.369 . S
C47 C48 1.408 . S
C47 H74 0.930 . S
C48 C43 1.348 . S
C48 C47 1.408 . S
C48 H75 0.930 . S
C49 O62 1.281 . S
C49 O63 1.254 . S
C50 O64 1.236 . S
C50 O65 1.266 . S
C51 Tb41 2.809 . S
C51 C52 1.514 . S
C51 O66 1.248 . S
C51 O67 1.266 . S
C52 C51 1.514 . S
C52 C53 1.359 . S
C52 C57 1.348 . S
C53 C52 1.359 . S
C53 C54 1.380 . S
C53 H76 0.929 . S
C54 C53 1.380 . S
C54 C55 1.347 . S
C54 H77 0.931 . S
C55 C54 1.347 . S
C55 C56 1.369 . S
C56 C55 1.369 . S
C56 C57 1.408 . S
C56 H78 0.930 . S
C57 C52 1.348 . S
C57 C56 1.408 . S
C57 H79 0.930 . S
C58 O68 1.281 . S
C58 O69 1.254 . S
C59 O70 1.236 . S
C59 O71 1.266 . S
O60 Tb40 2.469 1_565 S
O60 C42 1.248 . S
O61 Tb40 2.423 1_565 S
O61 C42 1.266 . S
O62 Tb40 2.674 . S
O62 Tb41 2.325 . S
O62 C49 1.281 . S
O63 Tb40 2.413 . S
O63 C49 1.254 . S
O64 Tb40 2.376 1_565 S
O64 C50 1.236 . S
O65 Tb41 2.341 1_565 S
O65 C50 1.266 . S
O66 Tb41 2.484 . S
O66 C51 1.248 . S
O67 Tb41 2.440 . S
O67 C51 1.266 . S
O68 Tb40 2.334 . S
O68 Tb41 2.658 . S
O68 C58 1.281 . S
O69 Tb41 2.409 . S
O69 C58 1.254 . S
O70 Tb41 2.378 . S
O70 C59 1.236 . S
O71 Tb40 2.357 . S
O71 C59 1.266 . S
H72 C44 0.929 . S
H73 C45 0.931 . S
H74 C47 0.930 . S
H75 C48 0.930 . S
H76 C53 0.929 . S
H77 C54 0.931 . S
H78 C56 0.930 . S
H79 C57 0.930 . S
Tb80 C82 2.809 . S
Tb80 O100 2.484 . S
Tb80 O101 2.440 . S
Tb80 O102 2.658 . S
Tb80 O103 2.409 . S
Tb80 O104 2.378 . S
Tb80 O108 2.325 . S
Tb80 O111 2.341 . S
Tb81 C91 2.809 . S
Tb81 O102 2.325 . S
Tb81 O105 2.341 . S
Tb81 O106 2.484 . S
Tb81 O107 2.440 . S
Tb81 O108 2.658 . S
Tb81 O109 2.409 . S
Tb81 O110 2.378 . S
C82 Tb80 2.809 . S
C82 C83 1.514 . S
C82 O100 1.248 . S
C82 O101 1.266 . S
C83 C82 1.514 . S
C83 C84 1.359 . S
C83 C88 1.348 . S
C84 C83 1.359 . S
C84 C85 1.380 . S
C84 H112 0.929 . S
C85 C84 1.380 . S
C85 C86 1.347 . S
C85 H113 0.931 . S
C86 C85 1.347 . S
C86 C87 1.369 . S
C87 C86 1.369 . S
C87 C88 1.408 . S
C87 H114 0.930 . S
C88 C83 1.348 . S
C88 C87 1.408 . S
C88 H115 0.930 . S
C89 O102 1.281 . S
C89 O103 1.254 . S
C90 O104 1.236 . S
C90 O105 1.266 . S
C91 Tb81 2.809 . S
C91 C92 1.514 . S
C91 O106 1.248 . S
C91 O107 1.266 . S
C92 C91 1.514 . S
C92 C93 1.359 . S
C92 C97 1.348 . S
C93 C92 1.359 . S
C93 C94 1.380 . S
C93 H116 0.929 . S
C94 C93 1.380 . S
C94 C95 1.347 . S
C94 H117 0.931 . S
C95 C94 1.347 . S
C95 C96 1.369 . S
C96 C95 1.369 . S
C96 C97 1.408 . S
C96 H118 0.930 . S
C97 C92 1.348 . S
C97 C96 1.408 . S
C97 H119 0.930 . S
C98 O108 1.281 . S
C98 O109 1.254 . S
C99 O110 1.236 . S
C99 O111 1.266 . S
O100 Tb80 2.484 . S
O100 C82 1.248 . S
O101 Tb80 2.440 . S
O101 C82 1.266 . S
O102 Tb80 2.658 . S
O102 Tb81 2.325 . S
O102 C89 1.281 . S
O103 Tb80 2.409 . S
O103 C89 1.254 . S
O104 Tb80 2.378 . S
O104 C90 1.236 . S
O105 Tb81 2.341 . S
O105 C90 1.266 . S
O106 Tb81 2.484 . S
O106 C91 1.248 . S
O107 Tb81 2.440 . S
O107 C91 1.266 . S
O108 Tb80 2.325 . S
O108 Tb81 2.658 . S
O108 C98 1.281 . S
O109 Tb81 2.409 . S
O109 C98 1.254 . S
O110 Tb81 2.378 . S
O110 C99 1.236 . S
O111 Tb80 2.341 . S
O111 C99 1.266 . S
H112 C84 0.929 . S
H113 C85 0.931 . S
H114 C87 0.930 . S
H115 C88 0.930 . S
H116 C93 0.929 . S
H117 C94 0.931 . S
H118 C96 0.930 . S
H119 C97 0.930 . S
H120 C125 0.930 . S
H121 C128 0.930 . S
H122 C130 0.930 1_565 S
H123 C124 1.016 . S
C124 H123 1.016 . S
C124 N131 1.286 . S
C125 H120 0.930 . S
C125 C126 1.397 1_545 S
C125 C127 1.361 . S
C126 C125 1.397 1_565 S
C126 C130 1.390 1_565 S
C127 C125 1.361 . S
C127 C128 1.393 . S
C127 N131 1.413 . S
C128 H121 0.930 . S
C128 C127 1.393 . S
C128 C129 1.399 . S
C129 C128 1.399 . S
C129 C130 1.381 . S
C130 H122 0.930 1_545 S
C130 C126 1.390 1_545 S
C130 C129 1.381 . S
N131 C124 1.286 . S
N131 C127 1.413 . S
H132 C137 0.930 . S
H133 C140 0.930 . S
H134 C142 0.930 . S
H135 C136 1.016 . S
C136 H135 1.016 . S
C136 N143 1.286 . S
C137 H132 0.930 . S
C137 C138 1.397 . S
C137 C139 1.361 . S
C138 C137 1.397 . S
C138 C142 1.390 . S
C139 C137 1.361 . S
C139 C140 1.393 . S
C139 N143 1.413 . S
C140 H133 0.930 . S
C140 C139 1.393 . S
C140 C141 1.399 . S
C141 C140 1.399 . S
C141 C142 1.381 . S
C142 H134 0.930 . S
C142 C138 1.390 . S
C142 C141 1.381 . S
N143 C136 1.286 . S
N143 C139 1.413 . S
H144 C149 0.930 . S
H145 C152 0.930 . S
H146 C154 0.930 . S
H147 C148 1.016 . S
C148 H147 1.016 . S
C148 N155 1.286 . S
C149 H144 0.930 . S
C149 C150 1.397 . S
C149 C151 1.361 1_655 S
C150 C149 1.397 . S
C150 C154 1.390 . S
C151 C149 1.361 1_455 S
C151 C152 1.393 . S
C151 N155 1.413 . S
C152 H145 0.930 . S
C152 C151 1.393 . S
C152 C153 1.399 1_455 S
C153 C152 1.399 1_655 S
C153 C154 1.381 . S
C154 H146 0.930 . S
C154 C150 1.390 . S
C154 C153 1.381 . S
N155 C148 1.286 . S
N155 C151 1.413 . S
H156 C161 0.930 . S
H157 C164 0.934 . S
H158 C166 0.930 . S
H159 C160 1.016 . S
C160 H159 1.016 . S
C160 N167 1.286 . S
C161 H156 0.930 . S
C161 C162 1.397 . S
C161 C163 1.361 . S
C162 C161 1.397 . S
C162 C166 1.390 . S
C163 C161 1.361 . S
C163 C164 1.392 1_455 S
C163 N167 1.413 1_455 S
C164 H157 0.934 . S
C164 C163 1.392 1_655 S
C164 C165 1.396 1_655 S
C165 C164 1.396 1_455 S
C165 C166 1.381 . S
C166 H158 0.930 . S
C166 C162 1.390 . S
C166 C165 1.381 . S
N167 C160 1.286 . S
N167 C163 1.413 1_655 S
H168 C173 0.930 . S
H169 C176 0.930 . S
H170 C178 0.930 . S
H171 C172 1.016 . S
C172 H171 1.016 . S
C172 N179 1.286 . S
C173 H168 0.930 . S
C173 C174 1.397 . S
C173 C175 1.372 . S
C174 C173 1.397 . S
C174 C178 1.390 . S
C175 C173 1.372 . S
C175 C176 1.393 1_545 S
C175 N179 1.403 1_545 S
C176 H169 0.930 . S
C176 C175 1.393 1_565 S
C176 C177 1.399 1_565 S
C177 C176 1.399 1_545 S
C177 C178 1.381 . S
C178 H170 0.930 . S
C178 C174 1.390 . S
C178 C177 1.381 . S
N179 C172 1.286 . S
N179 C175 1.403 1_565 S
H180 C185 0.930 . S
H181 C188 0.930 . S
H182 C190 0.930 . S
H183 C184 1.016 . S
C184 H183 1.016 . S
C184 N191 1.286 . S
C185 H180 0.930 . S
C185 C186 1.397 . S
C185 C187 1.361 . S
C186 C185 1.397 . S
C186 C190 1.390 . S
C187 C185 1.361 . S
C187 C188 1.393 . S
C187 N191 1.413 . S
C188 H181 0.930 . S
C188 C187 1.393 . S
C188 C189 1.399 . S
C189 C188 1.399 . S
C189 C190 1.381 . S
C190 H182 0.930 . S
C190 C186 1.390 . S
C190 C189 1.381 . S
N191 C184 1.286 . S
N191 C187 1.413 . S
C192 C193 1.387 . S
C192 H196 0.950 . S
C192 C201 1.390 . S
C193 C192 1.387 . S
C193 C195 1.387 . S
H194 C201 0.950 . S
C195 C193 1.387 . S
C195 C197 1.390 . S
C195 H199 0.950 . S
H196 C192 0.950 . S
C197 C195 1.390 . S
C197 C198 1.387 . S
C197 H200 0.950 . S
C198 C197 1.387 . S
C198 C201 1.387 . S
H199 C195 0.950 . S
H200 C197 0.950 . S
C201 C192 1.390 . S
C201 H194 0.950 . S
C201 C198 1.387 . S
C202 C203 1.387 . S
C202 H206 0.950 . S
C202 C211 1.390 . S
C203 C202 1.387 . S
C203 C205 1.387 . S
H204 C211 0.950 . S
C205 C203 1.387 . S
C205 C207 1.390 . S
C205 H209 0.950 . S
H206 C202 0.950 . S
C207 C205 1.390 . S
C207 C208 1.387 . S
C207 H210 0.950 . S
C208 C207 1.387 . S
C208 C211 1.387 . S
H209 C205 0.950 . S
H210 C207 0.950 . S
C211 C202 1.390 . S
C211 H204 0.950 . S
C211 C208 1.387 . S
C212 C213 1.387 . S
C212 H216 0.950 . S
C212 C221 1.390 . S
C213 C212 1.387 . S
C213 C215 1.387 . S
H214 C221 0.950 . S
C215 C213 1.387 . S
C215 C217 1.390 . S
C215 H219 0.950 . S
H216 C212 0.950 . S
C217 C215 1.390 . S
C217 C218 1.387 . S
C217 H220 0.950 . S
C218 C217 1.387 . S
C218 C221 1.387 . S
H219 C215 0.950 . S
H220 C217 0.950 . S
C221 C212 1.390 . S
C221 H214 0.950 . S
C221 C218 1.387 . S
C222 C223 1.387 . S
C222 H226 0.950 . S
C222 C231 1.390 . S
C223 C222 1.387 . S
C223 C225 1.387 . S
H224 C231 0.950 . S
C225 C223 1.387 . S
C225 C227 1.390 . S
C225 H229 0.950 . S
H226 C222 0.950 . S
C227 C225 1.390 . S
C227 C228 1.387 . S
C227 H230 0.950 . S
C228 C227 1.387 . S
C228 C231 1.387 . S
H229 C225 0.950 . S
H230 C227 0.950 . S
C231 C222 1.390 . S
C231 H224 0.950 . S
C231 C228 1.387 . S
C232 C233 1.387 . S
C232 H236 0.950 . S
C232 C241 1.390 . S
C233 C232 1.387 . S
C233 C235 1.387 . S
H234 C241 0.950 . S
C235 C233 1.387 . S
C235 C237 1.390 . S
C235 H239 0.950 . S
H236 C232 0.950 . S
C237 C235 1.390 . S
C237 C238 1.387 . S
C237 H240 0.950 . S
C238 C237 1.387 . S
C238 C241 1.387 . S
H239 C235 0.950 . S
H240 C237 0.950 . S
C241 C232 1.390 . S
C241 H234 0.950 . S
C241 C238 1.387 . S
C242 C243 1.387 . S
C242 H246 0.950 . S
C242 C251 1.390 . S
C243 C242 1.387 . S
C243 C245 1.387 . S
H244 C251 0.950 . S
C245 C243 1.387 . S
C245 C247 1.390 . S
C245 H249 0.950 . S
H246 C242 0.950 . S
C247 C245 1.390 . S
C247 C248 1.387 . S
C247 H250 0.950 . S
C248 C247 1.387 . S
C248 C251 1.387 . S
H249 C245 0.950 . S
H250 C247 0.950 . S
C251 C242 1.390 . S
C251 H244 0.950 . S
C251 C248 1.387 . S
C252 C253 1.387 . S
C252 H256 0.950 . S
C252 C261 1.390 . S
C253 C252 1.387 . S
C253 C255 1.387 . S
H254 C261 0.950 . S
C255 C253 1.387 . S
C255 C257 1.390 . S
C255 H259 0.950 . S
H256 C252 0.950 . S
C257 C255 1.390 . S
C257 C258 1.387 . S
C257 H260 0.950 . S
C258 C257 1.387 . S
C258 C261 1.387 . S
H259 C255 0.950 . S
H260 C257 0.950 . S
C261 C252 1.390 . S
C261 H254 0.950 . S
C261 C258 1.387 . S
C262 C263 1.387 . S
C262 H266 0.950 . S
C262 C271 1.390 . S
C263 C262 1.387 . S
C263 C265 1.387 . S
H264 C271 0.950 . S
C265 C263 1.387 . S
C265 C267 1.390 . S
C265 H269 0.950 . S
H266 C262 0.950 . S
C267 C265 1.390 . S
C267 C268 1.387 . S
C267 H270 0.950 . S
C268 C267 1.387 . S
C268 C271 1.387 . S
H269 C265 0.950 . S
H270 C267 0.950 . S
C271 C262 1.390 . S
C271 H264 0.950 . S
C271 C268 1.387 . S
C272 C273 1.387 . S
C272 H276 0.950 . S
C272 C281 1.390 . S
C273 C272 1.387 . S
C273 C275 1.387 . S
H274 C281 0.950 . S
C275 C273 1.387 . S
C275 C277 1.390 . S
C275 H279 0.950 . S
H276 C272 0.950 . S
C277 C275 1.390 . S
C277 C278 1.387 . S
C277 H280 0.950 . S
C278 C277 1.387 . S
C278 C281 1.387 . S
H279 C275 0.950 . S
H280 C277 0.950 . S
C281 C272 1.390 . S
C281 H274 0.950 . S
C281 C278 1.387 . S
C282 C283 1.387 . S
C282 H286 0.950 . S
C282 C291 1.390 . S
C283 C282 1.387 . S
C283 C285 1.387 . S
H284 C291 0.950 . S
C285 C283 1.387 . S
C285 C287 1.390 . S
C285 H289 0.950 . S
H286 C282 0.950 . S
C287 C285 1.390 . S
C287 C288 1.387 . S
C287 H290 0.950 . S
C288 C287 1.387 . S
C288 C291 1.387 . S
H289 C285 0.950 . S
H290 C287 0.950 . S
C291 C282 1.390 . S
C291 H284 0.950 . S
C291 C288 1.387 . S
C292 C293 1.387 . S
C292 H296 0.950 . S
C292 C301 1.390 . S
C293 C292 1.387 . S
C293 C295 1.387 . S
H294 C301 0.950 . S
C295 C293 1.387 . S
C295 C297 1.390 . S
C295 H299 0.950 . S
H296 C292 0.950 . S
C297 C295 1.390 . S
C297 C298 1.387 . S
C297 H300 0.950 . S
C298 C297 1.387 . S
C298 C301 1.387 . S
H299 C295 0.950 . S
H300 C297 0.950 . S
C301 C292 1.390 . S
C301 H294 0.950 . S
C301 C298 1.387 . S
C302 C303 1.387 . S
C302 H306 0.950 . S
C302 C311 1.390 . S
C303 C302 1.387 . S
C303 C305 1.387 . S
H304 C311 0.950 . S
C305 C303 1.387 . S
C305 C307 1.390 . S
C305 H309 0.950 . S
H306 C302 0.950 . S
C307 C305 1.390 . S
C307 C308 1.387 . S
C307 H310 0.950 . S
C308 C307 1.387 . S
C308 C311 1.387 . S
H309 C305 0.950 . S
H310 C307 0.950 . S
C311 C302 1.390 . S
C311 H304 0.950 . S
C311 C308 1.387 . S
C312 C313 1.387 . S
C312 H316 0.951 1_455 S
C312 C321 1.390 1_454 S
C313 C312 1.387 . S
C313 C315 1.387 . S
H314 C321 0.950 . S
C315 C313 1.387 . S
C315 C317 1.390 . S
C315 H319 0.950 . S
H316 C312 0.951 1_655 S
C317 C315 1.390 . S
C317 C318 1.387 1_454 S
C317 H320 0.950 1_554 S
C318 C317 1.387 1_656 S
C318 C321 1.387 . S
H319 C315 0.950 . S
H320 C317 0.950 1_556 S
C321 C312 1.390 1_656 S
C321 H314 0.950 . S
C321 C318 1.387 . S
C322 C323 1.387 . S
C322 H326 0.950 . S
C322 C331 1.390 . S
C323 C322 1.387 . S
C323 C325 1.382 1_545 S
H324 C331 0.950 . S
C325 C323 1.382 1_565 S
C325 C327 1.389 1_565 S
C325 H329 0.956 . S
H326 C322 0.950 . S
C327 C325 1.389 1_545 S
C327 C328 1.387 . S
C327 H330 0.950 1_545 S
C328 C327 1.387 . S
C328 C331 1.387 . S
H329 C325 0.956 . S
H330 C327 0.950 1_565 S
C331 C322 1.390 . S
C331 H324 0.950 . S
C331 C328 1.387 . S
C332 C333 1.387 . S
C332 H336 0.950 . S
C332 C341 1.390 . S
C333 C332 1.387 . S
C333 C335 1.387 . S
H334 C341 0.950 . S
C335 C333 1.387 . S
C335 C337 1.390 . S
C335 H339 0.950 . S
H336 C332 0.950 . S
C337 C335 1.390 . S
C337 C338 1.387 . S
C337 H340 0.950 . S
C338 C337 1.387 . S
C338 C341 1.387 . S
H339 C335 0.950 . S
H340 C337 0.950 . S
C341 C332 1.390 . S
C341 H334 0.950 . S
C341 C338 1.387 . S
C342 C343 1.387 . S
C342 H346 0.950 . S
C342 C351 1.390 . S
C343 C342 1.387 . S
C343 C345 1.387 1_545 S
H344 C351 0.950 . S
C345 C343 1.387 1_565 S
C345 C347 1.390 . S
C345 H349 0.950 . S
H346 C342 0.950 . S
C347 C345 1.390 . S
C347 C348 1.387 1_565 S
C347 H350 0.950 . S
C348 C347 1.387 1_545 S
C348 C351 1.387 . S
H349 C345 0.950 . S
H350 C347 0.950 . S
C351 C342 1.390 . S
C351 H344 0.950 . S
C351 C348 1.387 . S
C352 C353 1.387 . S
C352 H356 0.950 . S
C352 C361 1.390 . S
C353 C352 1.387 . S
C353 C355 1.387 . S
H354 C361 0.950 1_554 S
C355 C353 1.387 . S
C355 C357 1.390 . S
C355 H359 0.950 . S
H356 C352 0.950 . S
C357 C355 1.390 . S
C357 C358 1.387 1_556 S
C357 H360 0.950 1_556 S
C358 C357 1.387 1_554 S
C358 C361 1.387 1_554 S
H359 C355 0.950 . S
H360 C357 0.950 1_554 S
C361 C352 1.390 . S
C361 H354 0.950 1_556 S
C361 C358 1.387 1_556 S
C362 C363 1.387 1_655 S
C362 H366 0.950 . S
C362 C371 1.390 . S
C363 C362 1.387 1_455 S
C363 C365 1.387 . S
H364 C371 0.950 . S
C365 C363 1.387 . S
C365 C367 1.390 . S
C365 H369 0.950 . S
H366 C362 0.950 . S
C367 C365 1.390 . S
C367 C368 1.387 . S
C367 H370 0.950 . S
C368 C367 1.387 . S
C368 C371 1.387 1_455 S
H369 C365 0.950 . S
H370 C367 0.950 . S
C371 C362 1.390 . S
C371 H364 0.950 . S
C371 C368 1.387 1_655 S
C193 C10 3.247 . S
C198 C186 3.261 . S
C203 C59 3.165 . S
C208 C160 3.073 . S
C213 C90 3.098 . S
C218 C172 3.020 . S
C223 C19 2.951 . S
C228 C184 2.824 . S
C238 C162 2.975 . S
C233 C50 3.007 . S
C248 C174 3.015 . S
C243 C99 3.054 . S
C253 C46 0.856 . S
C258 C136 0.888 . S
C263 C95 0.826 . S
C268 C150 0.863 . S
C273 C6 0.555 . S
C278 C126 0.475 . S
C288 C138 0.625 . S
C283 C55 0.674 . S
C298 C148 0.457 . S
C293 C86 0.560 . S
C303 C15 0.743 . S
C308 C124 0.735 . S
C318 C153 1.141 . S
C313 C9 1.127 . S
C323 C49 1.070 . S
C328 C129 1.109 . S
C333 C89 1.169 . S
C338 C141 1.165 . S
C348 C177 1.773 . S
C343 C58 1.728 . S
C358 C189 1.860 . S
C353 C98 1.782 . S
C363 C18 1.707 . S
C368 C165 1.821 . S
