# Generated by pormake.
# Topology ftw, (4,12)-cn, num edge types: 1
# Building blocks:
#     Node 0, Type 0, BuildingBlock: AZAVOO_clean_linker_0, # of connection points: 4
#     Node 1, Type 0, BuildingBlock: AZAVOO_clean_linker_0, # of connection points: 4
#     Node 2, Type 0, BuildingBlock: AZAVOO_clean_linker_0, # of connection points: 4
#     Node 3, Type 1, BuildingBlock: QEWDON_clean_sbu_0, # of connection points: 12
#     Edge 4, Type (0, 1), BuildingBlock: CIFDUS_clean_linker_0, # of connection points: 2
#     Edge 5, Type (0, 1), BuildingBlock: CIFDUS_clean_linker_0, # of connection points: 2
#     Edge 6, Type (0, 1), BuildingBlock: CIFDUS_clean_linker_0, # of connection points: 2
#     Edge 7, Type (0, 1), BuildingBlock: CIFDUS_clean_linker_0, # of connection points: 2
#     Edge 8, Type (0, 1), BuildingBlock: CIFDUS_clean_linker_0, # of connection points: 2
#     Edge 9, Type (0, 1), BuildingBlock: CIFDUS_clean_linker_0, # of connection points: 2
#     Edge 10, Type (0, 1), BuildingBlock: CIFDUS_clean_linker_0, # of connection points: 2
#     Edge 11, Type (0, 1), BuildingBlock: CIFDUS_clean_linker_0, # of connection points: 2
#     Edge 12, Type (0, 1), BuildingBlock: CIFDUS_clean_linker_0, # of connection points: 2
#     Edge 13, Type (0, 1), BuildingBlock: CIFDUS_clean_linker_0, # of connection points: 2
#     Edge 14, Type (0, 1), BuildingBlock: CIFDUS_clean_linker_0, # of connection points: 2
#     Edge 15, Type (0, 1), BuildingBlock: CIFDUS_clean_linker_0, # of connection points: 2
# Relax obj value: 0.080
# Max RMSD: 0.223
# Mean RMSD: 0.193
data_MOF--net-ftw--node1-QEWDON_clean_sbu_0--node2-AZAVOO_clean_linker_0--edge1-CIFDUS_clean_linker_0
_symmetry_space_group_name_H-M    P1
_symmetry_Int_Tables_number       1
_symmetry_cell_setting            triclinic
loop_
_symmetry_equiv_pos_as_xyz
'x, y, z'
_cell_length_a     25.127143
_cell_length_b     24.915952
_cell_length_c     25.964851
_cell_angle_alpha  91.674635
_cell_angle_beta   88.382513
_cell_angle_gamma 91.763416
loop_
_atom_site_label
_atom_site_type_symbol
_atom_site_fract_x
_atom_site_fract_y
_atom_site_fract_z
_atom_type_partial_charge
H0 H 0.04735 0.15596 0.41593 0.0
H1 H 0.96877 0.59997 0.84201 0.0
H2 H 0.0928 0.44298 0.39891 0.0
H3 H 0.08468 0.39088 0.3181 0.0
H4 H 0.91677 0.4247 0.31783 0.0
H5 H 0.92641 0.47893 0.39672 0.0
H6 H 0.08734 0.37396 0.49855 0.0
H7 H 0.08572 0.27986 0.46859 0.0
H8 H 0.92004 0.29186 0.43077 0.0
H9 H 0.92216 0.38577 0.46136 0.0
H10 H 0.0845 0.42932 0.61251 0.0
H11 H 0.07531 0.36712 0.68375 0.0
H12 H 0.90938 0.33877 0.64894 0.0
H13 H 0.91935 0.40041 0.57733 0.0
H14 H 0.09663 0.55358 0.61706 0.0
H15 H 0.09811 0.58607 0.70685 0.0
H16 H 0.93006 0.54561 0.7242 0.0
H17 H 0.92897 0.51419 0.63399 0.0
H18 H 0.10457 0.61869 0.51989 0.0
H19 H 0.12286 0.69869 0.57411 0.0
H20 H 0.95832 0.69648 0.62747 0.0
H21 H 0.94016 0.61796 0.57163 0.0
H22 H 0.09976 0.55184 0.40568 0.0
H23 H 0.11358 0.61952 0.34023 0.0
H24 H 0.96237 0.68779 0.38444 0.0
H25 H 0.94799 0.61824 0.44888 0.0
O26 O 0.04678 0.19286 0.42862 0.0
O27 O 0.96159 0.20104 0.41007 0.0
O28 O 0.05558 0.60773 0.79531 0.0
O29 O 0.96942 0.58686 0.80654 0.0
C30 C 0.01166 0.48358 0.45832 0.0
C31 C 0.00732 0.44451 0.49689 0.0
C32 C 0.00714 0.46035 0.54939 0.0
C33 C 0.01125 0.51535 0.56356 0.0
C34 C 0.01497 0.55481 0.52521 0.0
C35 C 0.0156 0.53895 0.47234 0.0
C36 C 0.01026 0.46503 0.40345 0.0
C37 C 0.05483 0.44084 0.38008 0.0
C38 C 0.0498 0.41024 0.33433 0.0
C39 C -0.00018 0.40246 0.31155 0.0
C40 C 0.9561 0.43002 0.33348 0.0
C41 C 0.96142 0.46127 0.37875 0.0
C42 C 0.00492 0.38653 0.48199 0.0
C43 C 0.05064 0.35596 0.48424 0.0
C44 C 0.04963 0.30233 0.4669 0.0
C45 C 0.00281 0.27839 0.44704 0.0
C46 C 0.95679 0.30907 0.4457 0.0
C47 C 0.95784 0.36266 0.46318 0.0
C48 C 0.00257 0.41939 0.58989 0.0
C49 C 0.04635 0.40922 0.62007 0.0
C50 C 0.0409 0.37394 0.66089 0.0
C51 C 0.99151 0.34814 0.67228 0.0
C52 C 0.94811 0.3574 0.64091 0.0
C53 C 0.95364 0.39272 0.60009 0.0
C54 C 0.01265 0.53181 0.61903 0.0
C55 C 0.06021 0.55174 0.64036 0.0
C56 C 0.06094 0.57022 0.69165 0.0
C57 C 0.01414 0.56857 0.72269 0.0
C58 C 0.96676 0.54756 0.70136 0.0
C59 C 0.96604 0.52938 0.64995 0.0
C60 C 0.02115 0.61219 0.54213 0.0
C61 C 0.07196 0.63706 0.54135 0.0
C62 C 0.08248 0.68227 0.57309 0.0
C63 C 0.04239 0.70317 0.60629 0.0
C64 C 0.99018 0.68165 0.6025 0.0
C65 C 0.97963 0.63673 0.57043 0.0
C66 C 0.02278 0.57985 0.43195 0.0
C67 C 0.06928 0.58095 0.40084 0.0
C68 C 0.07733 0.62009 0.36379 0.0
C69 C 0.03926 0.65946 0.35727 0.0
C70 C 0.99228 0.65786 0.38811 0.0
C71 C 0.98417 0.61842 0.42518 0.0
C72 C 0.00225 0.2218 0.42748 0.0
C73 C 0.01453 0.5889 0.77699 0.0
H74 H 0.59204 0.96021 0.17562 0.0
H75 H 0.17448 0.08208 0.62656 0.0
H76 H 0.60362 0.91332 0.46218 0.0
H77 H 0.68558 0.90569 0.40992 0.0
H78 H 0.71114 0.07784 0.42158 0.0
H79 H 0.62889 0.08495 0.4744 0.0
H80 H 0.5099 0.92564 0.38567 0.0
H81 H 0.53951 0.92435 0.29494 0.0
H82 H 0.58304 0.09337 0.30879 0.0
H83 H 0.55281 0.09408 0.39928 0.0
H84 H 0.39247 0.93532 0.43329 0.0
H85 H 0.32172 0.94569 0.37125 0.0
H86 H 0.36652 0.11389 0.35974 0.0
H87 H 0.4362 0.10322 0.42227 0.0
H88 H 0.37558 0.93117 0.5418 0.0
H89 H 0.28402 0.93786 0.57573 0.0
H90 H 0.30185 0.11114 0.57897 0.0
H91 H 0.39342 0.10372 0.54516 0.0
H92 H 0.45336 0.92438 0.61805 0.0
H93 H 0.39999 0.92979 0.69843 0.0
H94 H 0.42805 0.10172 0.70562 0.0
H95 H 0.48104 0.09586 0.62527 0.0
H96 H 0.58719 0.91141 0.56665 0.0
H97 H 0.6589 0.89803 0.62622 0.0
H98 H 0.66162 0.06755 0.66686 0.0
H99 H 0.58914 0.08033 0.60722 0.0
O100 O 0.57952 0.96179 0.21121 0.0
O101 O 0.603 0.04818 0.22104 0.0
O102 O 0.20333 0.98905 0.61036 0.0
O103 O 0.21024 0.07828 0.61238 0.0
C104 C 0.55484 0.00503 0.49126 0.0
C105 C 0.51474 0.00963 0.45459 0.0
C106 C 0.46099 0.01295 0.47082 0.0
C107 C 0.44735 0.01261 0.52379 0.0
C108 C 0.48741 0.0088 0.5607 0.0
C109 C 0.54129 0.00448 0.54447 0.0
C110 C 0.61069 0.99958 0.47242 0.0
C111 C 0.62804 0.94911 0.45518 0.0
C112 C 0.67474 0.94491 0.42512 0.0
C113 C 0.70457 0.99126 0.41134 0.0
C114 C 0.6887 0.04154 0.43127 0.0
C115 C 0.6422 0.04561 0.4619 0.0
C116 C 0.52931 0.00991 0.39883 0.0
C117 C 0.52537 0.9624 0.3688 0.0
C118 C 0.5425 0.96177 0.3171 0.0
C119 C 0.56388 0.00872 0.29466 0.0
C120 C 0.56691 0.05649 0.32487 0.0
C121 C 0.5496 0.05706 0.37648 0.0
C122 C 0.41911 0.01862 0.43236 0.0
C123 C 0.38683 0.97432 0.41726 0.0
C124 C 0.34676 0.98025 0.38164 0.0
C125 C 0.33831 0.03068 0.36079 0.0
C126 C 0.37142 0.07471 0.37567 0.0
C127 C 0.41141 0.06871 0.41113 0.0
C128 C 0.39085 0.01697 0.54104 0.0
C129 C 0.35939 0.97049 0.54951 0.0
C130 C 0.30723 0.97445 0.56902 0.0
C131 C 0.28565 0.02507 0.5802 0.0
C132 C 0.31723 0.07157 0.57085 0.0
C133 C 0.36942 0.06751 0.55139 0.0
C134 C 0.47129 0.00969 0.61607 0.0
C135 C 0.4498 0.96285 0.63819 0.0
C136 C 0.41881 0.96612 0.68369 0.0
C137 C 0.40932 0.01626 0.70796 0.0
C138 C 0.43495 0.06249 0.68807 0.0
C139 C 0.46551 0.05922 0.64232 0.0
C140 C 0.58313 0.9968 0.58254 0.0
C141 C 0.6032 0.9456 0.58853 0.0
C142 C 0.6444 0.93816 0.62237 0.0
C143 C 0.66643 0.98183 0.65101 0.0
C144 C 0.64537 0.03304 0.64566 0.0
C145 C 0.60412 0.04045 0.61156 0.0
C146 C 0.5833 0.00765 0.24012 0.0
C147 C 0.23059 0.02949 0.60183 0.0
H148 H 0.19655 0.23544 0.96508 0.0
H149 H 0.79972 0.35315 0.0504 0.0
H150 H 0.35652 0.5323 0.96771 0.0
H151 H 0.26 0.52323 0.9615 0.0
H152 H 0.2515 0.45785 0.11454 0.0
H153 H 0.34596 0.47247 0.12156 0.0
H154 H 0.35865 0.40779 0.95357 0.0
H155 H 0.28383 0.34328 0.94547 0.0
H156 H 0.3064 0.29412 0.1015 0.0
H157 H 0.38147 0.35888 0.10905 0.0
H158 H 0.44817 0.32946 0.96025 0.0
H159 H 0.47652 0.23661 0.95635 0.0
H160 H 0.55321 0.26331 0.1027 0.0
H161 H 0.5199 0.35341 0.10828 0.0
H162 H 0.56195 0.38638 0.94948 0.0
H163 H 0.65125 0.34995 0.94231 0.0
H164 H 0.68618 0.41791 0.09322 0.0
H165 H 0.59647 0.4534 0.10023 0.0
H166 H 0.57186 0.50985 0.94507 0.0
H167 H 0.65273 0.56557 0.93386 0.0
H168 H 0.63263 0.6283 0.09004 0.0
H169 H 0.5527 0.57049 0.10151 0.0
H170 H 0.4844 0.5952 0.96629 0.0
H171 H 0.46672 0.69074 0.97156 0.0
H172 H 0.38771 0.66884 0.12026 0.0
H173 H 0.41123 0.5751 0.11692 0.0
O174 O 0.22479 0.26217 0.97007 0.0
O175 O 0.22765 0.24857 0.05425 0.0
O176 O 0.74414 0.33287 0.97487 0.0
O177 O 0.76423 0.36725 0.05216 0.0
C178 C 0.41371 0.4824 0.03947 0.0
C179 C 0.42172 0.42635 0.03559 0.0
C180 C 0.47369 0.40688 0.03316 0.0
C181 C 0.51782 0.44325 0.03021 0.0
C182 C 0.50984 0.49921 0.03118 0.0
C183 C 0.45775 0.51909 0.03733 0.0
C184 C 0.35818 0.50086 0.04429 0.0
C185 C 0.33309 0.51911 1.00091 0.0
C186 C 0.27781 0.51272 0.99715 0.0
C187 C 0.24767 0.48577 0.03577 0.0
C188 C 0.27232 0.47742 0.08296 0.0
C189 C 0.32709 0.48565 0.0873 0.0
C190 C 0.37547 0.38786 0.03183 0.0
C191 C 0.34724 0.38319 0.98602 0.0
C192 C 0.30464 0.34621 0.98146 0.0
C193 C 0.28936 0.31337 0.02275 0.0
C194 C 0.31722 0.31882 0.06898 0.0
C195 C 0.36013 0.35561 0.07337 0.0
C196 C 0.48263 0.34833 0.03427 0.0
C197 C 0.46924 0.31432 0.99235 0.0
C198 C 0.48618 0.26139 0.98993 0.0
C199 C 0.51841 0.24225 0.02855 0.0
C200 C 0.52807 0.27561 0.0723 0.0
C201 C 0.50971 0.32777 0.07536 0.0
C202 C 0.57273 0.42247 0.02539 0.0
C203 C 0.58893 0.39326 0.98098 0.0
C204 C 0.63998 0.37258 0.97696 0.0
C205 C 0.67587 0.381 0.01724 0.0
C206 C 0.65957 0.41068 0.06151 0.0
C207 C 0.60842 0.43116 0.06555 0.0
C208 C 0.55651 0.53628 0.02406 0.0
C209 C 0.585 0.53566 0.97684 0.0
C210 C 0.63103 0.56763 0.97047 0.0
C211 C 0.64918 0.60123 0.01111 0.0
C212 C 0.62014 0.60217 0.05829 0.0
C213 C 0.57417 0.56981 0.06474 0.0
C214 C 0.44894 0.57789 0.04113 0.0
C215 C 0.46461 0.61146 1.00063 0.0
C216 C 0.45368 0.66616 1.00346 0.0
C217 C 0.42499 0.68817 0.04607 0.0
C218 C 0.41067 0.65434 0.08712 0.0
C219 C 0.42319 0.60014 0.08494 0.0
C220 C 0.24529 0.27286 0.01694 0.0
C221 C 0.73006 0.35886 0.01327 0.0
Zn222 Zn 0.09349 0.1191 0.96698 0.0
Zn223 Zn 0.05647 0.1158 0.08674 0.0
O224 O 0.06488 0.07019 0.02253 0.0
H225 H 0.05091 0.034 0.01705 0.0
C226 C 0.91459 0.14416 0.89688 0.0
O227 O 0.93378 0.16153 0.94108 0.0
Zn228 Zn 0.94931 0.89964 0.09234 0.0
Zn229 Zn 0.9171 0.91701 0.973 0.0
O230 O 0.94542 0.95458 0.03735 0.0
H231 H 0.96754 0.98692 0.03721 0.0
Zn232 Zn 0.86599 0.0641 0.965 0.0
O233 O 0.91701 0.07668 0.02311 0.0
Zn234 Zn 0.87584 0.06947 0.09007 0.0
H235 H 0.95441 0.0857 0.01813 0.0
Zn236 Zn 0.12946 0.93614 0.94365 0.0
O237 O 0.08254 0.92719 0.0084 0.0
H238 H 0.04493 0.91796 0.00875 0.0
Zn239 Zn 0.13019 0.93913 0.06912 0.0
C240 C 0.06546 0.90865 0.84838 0.0
O241 O 0.03385 0.94705 0.86452 0.0
O242 O 0.09136 0.19932 0.98871 0.0
O243 O 0.07052 0.19477 0.07239 0.0
O244 O 0.88958 0.8408 0.9883 0.0
O245 O 0.91296 0.8291 0.06919 0.0
O246 O 0.78835 0.06609 0.9919 0.0
O247 O 0.79637 0.07267 0.07717 0.0
C248 C 0.12909 0.04573 0.13552 0.0
O249 O 0.20761 0.92288 0.95995 0.0
O250 O 0.20686 0.92519 0.04572 0.0
O251 O 0.87129 0.95749 0.92148 0.0
C252 C 0.08221 0.22209 0.03258 0.0
O253 O 0.15683 0.09315 0.92009 0.0
C254 C 0.88992 0.97093 0.15862 0.0
O255 O 0.88444 0.10222 0.89602 0.0
C256 C 0.89058 0.81205 0.02802 0.0
O257 O 0.10554 0.89812 0.8748 0.0
C258 C 0.9508 0.13871 0.13738 0.0
O259 O 0.10755 0.09133 0.13925 0.0
O260 O 0.11709 0.01476 0.09737 0.0
C261 C 0.7677 0.07035 0.03723 0.0
O262 O 0.91154 0.9255 0.15773 0.0
O263 O 0.895 0.99859 0.11832 0.0
C264 C 0.06121 0.87324 0.13256 0.0
O265 O 0.90071 0.12999 0.1377 0.0
O266 O 0.97998 0.10737 0.11029 0.0
C267 C 0.23139 0.91864 1.00231 0.0
O268 O 0.10998 0.8859 0.12435 0.0
O269 O 0.02749 0.89431 0.10437 0.0
C270 C 0.87159 0.93966 0.87508 0.0
O271 O 0.90257 0.89964 0.86213 0.0
C272 C 0.20451 0.10248 0.93374 0.0
O273 O 0.213 0.12803 0.97787 0.0
H274 H 0.04941 0.30668 0.29515 0.0
H275 H 0.9318 0.40635 0.23062 0.0
H276 H 0.90799 0.33415 0.16947 0.0
H277 H 0.91489 0.23984 0.13947 0.0
H278 H 0.03623 0.14253 0.19948 0.0
H279 H 0.06551 0.21741 0.25619 0.0
C280 C 0.01963 0.31354 0.26687 0.0
C281 C 0.9918 0.36197 0.26855 0.0
C282 C 0.00668 0.27211 0.231 0.0
C283 C 0.9529 0.36917 0.23157 0.0
C284 C 0.9394 0.32795 0.19625 0.0
C285 C 0.94825 0.23546 0.16449 0.0
C286 C 0.97332 0.1859 0.16569 0.0
C287 C 0.96497 0.27876 0.19659 0.0
C288 C 0.01678 0.18057 0.1977 0.0
C289 C 0.03317 0.22322 0.23037 0.0
H290 H 0.72323 0.05265 0.32739 0.0
H291 H 0.78445 0.91942 0.40756 0.0
H292 H 0.85002 0.90434 0.33778 0.0
H293 H 0.88485 0.92427 0.25144 0.0
H294 H 0.82351 0.05662 0.1702 0.0
H295 H 0.76368 0.07743 0.24333 0.0
C296 C 0.75175 0.02112 0.3301 0.0
C297 C 0.74891 0.98706 0.37253 0.0
C298 C 0.78898 0.0123 0.28952 0.0
C299 C 0.78554 0.94581 0.3751 0.0
C300 C 0.82302 0.93721 0.33525 0.0
C301 C 0.85879 0.95806 0.24977 0.0
C302 C 0.85829 0.98845 0.20489 0.0
C303 C 0.82426 0.96941 0.29179 0.0
C304 C 0.82464 0.03237 0.20388 0.0
C305 C 0.79026 0.04421 0.24577 0.0
H306 H 0.96953 0.70249 0.29117 0.0
H307 H 0.13286 0.71445 0.33884 0.0
H308 H 0.15303 0.78173 0.27454 0.0
H309 H 0.12571 0.83527 0.20358 0.0
H310 H 0.96266 0.82648 0.15567 0.0
H311 H 0.9408 0.7606 0.22172 0.0
C312 C 0.00937 0.72024 0.28783 0.0
C313 C 0.04978 0.70268 0.31945 0.0
C314 C 0.02081 0.75947 0.25071 0.0
C315 C 0.10125 0.7261 0.31434 0.0
C316 C 0.1128 0.76492 0.27776 0.0
C317 C 0.08525 0.81912 0.20746 0.0
C318 C 0.04599 0.83552 0.17414 0.0
C319 C 0.07311 0.78144 0.24543 0.0
C320 C 0.99374 0.81447 0.1804 0.0
C321 C 0.98126 0.7767 0.21825 0.0
H322 H 0.30855 0.96538 0.27917 0.0
H323 H 0.26919 0.11262 0.36138 0.0
H324 H 0.2 0.12849 0.30023 0.0
H325 H 0.15298 0.10279 0.2223 0.0
H326 H 0.19098 0.95614 0.13887 0.0
H327 H 0.25768 0.9373 0.20204 0.0
C328 C 0.28441 0.00061 0.28397 0.0
C329 C 0.2945 0.03808 0.32453 0.0
C330 C 0.24447 0.0096 0.24849 0.0
C331 C 0.26304 0.0837 0.32999 0.0
C332 C 0.22323 0.09267 0.2952 0.0
C333 C 0.17558 0.06646 0.21781 0.0
C334 C 0.16703 0.03108 0.17534 0.0
C335 C 0.21405 0.05626 0.25403 0.0
C336 C 0.19661 0.98415 0.17078 0.0
C337 C 0.23494 0.97344 0.20699 0.0
H338 H 0.98594 0.78904 0.64457 0.0
H339 H 0.12933 0.70225 0.66648 0.0
H340 H 0.14971 0.75901 0.74154 0.0
H341 H 0.12528 0.83021 0.80358 0.0
H342 H 0.98127 0.91661 0.78416 0.0
H343 H 0.96241 0.86266 0.70624 0.0
C344 C 0.02172 0.78269 0.66567 0.0
C345 C 0.05627 0.74164 0.64928 0.0
C346 C 0.03288 0.81503 0.70971 0.0
C347 C 0.1026 0.73424 0.67715 0.0
C348 C 0.11406 0.76634 0.72059 0.0
C349 C 0.08977 0.83745 0.78233 0.0
C350 C 0.05456 0.8772 0.80011 0.0
C351 C 0.07926 0.80644 0.73753 0.0
C352 C 0.00894 0.88608 0.7717 0.0
C353 C -0.00184 0.85526 0.727 0.0
H354 H 0.41519 0.0751 0.79807 0.0
H355 H 0.3098 0.97011 0.71033 0.0
H356 H 0.23781 0.98536 0.77363 0.0
H357 H 0.20301 0.03301 0.85095 0.0
H358 H 0.30803 0.13828 0.93893 0.0
H359 H 0.38171 0.11851 0.87865 0.0
C360 C 0.37654 0.05531 0.79311 0.0
C361 C 0.36796 0.02141 0.74968 0.0
C362 C 0.33508 0.06463 0.82949 0.0
C363 C 0.31776 0.99572 0.74385 0.0
C364 C 0.27638 0.00481 0.77978 0.0
C365 C 0.24207 0.05148 0.85704 0.0
C366 C 0.24983 0.08748 0.89909 0.0
C367 C 0.28433 0.03985 0.8223 0.0
C368 C 0.30089 0.11049 0.90683 0.0
C369 C 0.34307 0.09931 0.87229 0.0
H370 H 0.93559 0.25271 0.6798 0.0
H371 H 0.03169 0.36653 0.76806 0.0
H372 H 0.01832 0.31235 0.84431 0.0
H373 H 0.9767 0.23469 0.88695 0.0
H374 H 0.87864 0.12165 0.79977 0.0
H375 H 0.89506 0.17377 0.72233 0.0
C376 C 0.9534 0.26579 0.71577 0.0
C377 C 0.98465 0.31367 0.71804 0.0
C378 C 0.94503 0.23472 0.75979 0.0
C379 C 0.0081 0.32952 0.76487 0.0
C380 C 0.00015 0.29876 0.80868 0.0
C381 C 0.95899 0.22128 0.85101 0.0
C382 C 0.92627 0.17442 0.84933 0.0
C383 C 0.96837 0.25153 0.80669 0.0
C384 C 0.90388 0.15762 0.80228 0.0
C385 C 0.91322 0.18744 0.75794 0.0
H386 H 0.6818 0.02459 0.74812 0.0
H387 H 0.75327 0.92072 0.63136 0.0
H388 H 0.82451 0.90134 0.6892 0.0
H389 H 0.86401 0.90977 0.77415 0.0
H390 H 0.79343 0.01329 0.89168 0.0
H391 H 0.72524 0.03782 0.832 0.0
C392 C 0.71334 0.99829 0.73511 0.0
C393 C 0.71164 0.97357 0.68562 0.0
C394 C 0.75443 0.98721 0.76871 0.0
C395 C 0.75282 0.93937 0.66957 0.0
C396 C 0.79382 0.92848 0.70253 0.0
C397 C 0.83398 0.93802 0.78672 0.0
C398 C 0.83363 0.9592 0.83756 0.0
C399 C 0.79456 0.95145 0.75243 0.0
C400 C 0.79461 0.99616 0.85287 0.0
C401 C 0.75544 0.01009 0.81877 0.0
H402 H 0.16533 0.45068 0.10077 0.0
H403 H 0.21688 0.44667 0.94019 0.0
H404 H 0.15818 0.3704 0.92373 0.0
H405 H 0.11113 0.29182 0.95775 0.0
H406 H 0.07293 0.28526 0.12066 0.0
H407 H 0.10806 0.37701 0.13319 0.0
C408 C 0.16393 0.43342 0.06205 0.0
C409 C 0.19806 0.45387 0.02268 0.0
C410 C 0.13338 0.38604 0.05333 0.0
C411 C 0.19216 0.43262 0.97207 0.0
C412 C 0.15893 0.38787 0.96245 0.0
C413 C 0.10966 0.31063 0.99595 0.0
C414 C 0.09127 0.28095 0.03844 0.0
C415 C 0.13243 0.36218 1.00336 0.0
C416 C 0.08816 0.30666 0.08737 0.0
C417 C 0.10835 0.35917 0.0946 0.0
H418 H 0.3981 0.74536 0.96255 0.0
H419 H 0.40678 0.75853 0.12854 0.0
H420 H 0.35386 0.8388 0.12912 0.0
H421 H 0.29248 0.89496 0.08367 0.0
H422 H 0.2886 0.88361 0.91743 0.0
H423 H 0.35526 0.8149 0.91606 0.0
C424 C 0.39046 0.76645 0.99895 0.0
C425 C 0.40495 0.74408 0.04561 0.0
C426 C 0.36075 0.81321 0.99908 0.0
C427 C 0.39415 0.77295 0.09205 0.0
C428 C 0.36425 0.81935 0.09247 0.0
C429 C 0.30733 0.87868 0.047 0.0
C430 C 0.28398 0.8931 1.0009 0.0
C431 C 0.34516 0.83827 0.04638 0.0
C432 C 0.30482 0.87251 0.95371 0.0
C433 C 0.34277 0.83278 0.95283 0.0
H434 H 0.55154 0.17226 0.10015 0.0
H435 H 0.5567 0.20004 0.93637 0.0
H436 H 0.62708 0.13654 0.92405 0.0
H437 H 0.70045 0.09108 0.96113 0.0
H438 H 0.70597 0.07549 0.12611 0.0
H439 H 0.6192 0.11675 0.13644 0.0
C440 C 0.56778 0.16435 0.06165 0.0
C441 C 0.54947 0.19261 0.01968 0.0
C442 C 0.61137 0.13074 0.05509 0.0
C443 C 0.56943 0.17943 0.96978 0.0
C444 C 0.61055 0.14347 0.9626 0.0
C445 C 0.68225 0.09546 0.99935 0.0
C446 C 0.71033 0.08153 0.04287 0.0
C447 C 0.63388 0.12161 1.00527 0.0
C448 C 0.68566 0.08679 0.09198 0.0
C449 C 0.63608 0.1105 0.09795 0.0
H450 H 0.72881 0.62246 0.07867 0.0
H451 H 0.67754 0.65896 0.92658 0.0
H452 H 0.75353 0.72091 0.9155 0.0
H453 H 0.82853 0.77125 0.95188 0.0
H454 H 0.877 0.74073 0.10637 0.0
H455 H 0.80849 0.66929 0.11325 0.0
C456 C 0.73428 0.64405 0.04316 0.0
C457 C 0.69731 0.63636 1.00369 0.0
C458 C 0.77754 0.68059 0.0374 0.0
C459 C 0.70557 0.66375 0.95743 0.0
C460 C 0.74888 0.69943 0.95113 0.0
C461 C 0.82488 0.74851 0.98686 0.0
C462 C 0.85749 0.76189 0.02877 0.0
C463 C 0.7844 0.70895 0.99123 0.0
C464 C 0.85225 0.73155 0.07357 0.0
C465 C 0.81283 0.69093 0.07769 0.0
loop_
_geom_bond_atom_site_label_1
_geom_bond_atom_site_label_2
_geom_bond_distance
_geom_bond_site_symmetry_2
_ccdc_geom_bond_type
H0 O26 0.856 . S
H1 O29 0.854 . S
H2 C37 0.930 . S
H3 C38 0.930 . S
H4 C40 0.930 . S
H5 C41 0.930 . S
H6 C43 0.931 . S
H7 C44 0.930 . S
H8 C46 0.930 . S
H9 C47 0.929 . S
H10 C49 0.930 . S
H11 C50 0.931 . S
H12 C52 0.930 . S
H13 C53 0.929 . S
H14 C55 0.931 . S
H15 C56 0.930 . S
H16 C58 0.930 . S
H17 C59 0.932 . S
H18 C61 0.930 . S
H19 C62 0.929 . S
H20 C64 0.931 . S
H21 C65 0.930 . S
H22 C67 0.929 . S
H23 C68 0.931 . S
H24 C70 0.930 . S
H25 C71 0.929 . S
O26 H0 0.856 . S
O26 C72 1.300 1_455 S
O27 C72 1.209 . S
O28 C73 1.199 1_455 S
O29 H1 0.854 . S
O29 C73 1.297 . S
C30 C31 1.404 1_455 S
C30 C35 1.397 . S
C30 C36 1.494 . S
C31 C30 1.404 1_655 S
C31 C32 1.396 . S
C31 C42 1.492 . S
C32 C31 1.396 . S
C32 C33 1.397 . S
C32 C48 1.509 . S
C33 C32 1.397 . S
C33 C34 1.412 1_655 S
C33 C54 1.485 . S
C34 C33 1.412 1_455 S
C34 C35 1.388 . S
C34 C60 1.490 . S
C35 C30 1.397 . S
C35 C34 1.388 . S
C35 C66 1.519 . S
C36 C30 1.494 . S
C36 C37 1.363 . S
C36 C41 1.390 1_455 S
C37 H2 0.930 . S
C37 C36 1.363 . S
C37 C38 1.372 . S
C38 H3 0.930 . S
C38 C37 1.372 . S
C38 C39 1.383 . S
C39 C38 1.383 . S
C39 C40 1.395 1_455 S
C40 H4 0.930 . S
C40 C39 1.395 1_655 S
C40 C41 1.362 . S
C41 H5 0.930 . S
C41 C36 1.390 1_655 S
C41 C40 1.362 . S
C42 C31 1.492 . S
C42 C43 1.377 1_655 S
C42 C47 1.397 . S
C43 H6 0.931 . S
C43 C42 1.377 1_455 S
C43 C44 1.376 . S
C44 H7 0.930 . S
C44 C43 1.376 . S
C44 C45 1.376 1_455 S
C45 C44 1.376 1_655 S
C45 C46 1.378 . S
C45 C72 1.486 . S
C46 H8 0.930 . S
C46 C45 1.378 . S
C46 C47 1.376 . S
C47 H9 0.929 . S
C47 C42 1.397 . S
C47 C46 1.376 . S
C48 C32 1.509 . S
C48 C49 1.391 1_655 S
C48 C53 1.386 . S
C49 H10 0.930 . S
C49 C48 1.391 1_455 S
C49 C50 1.375 . S
C50 H11 0.931 . S
C50 C49 1.375 . S
C50 C51 1.375 1_455 S
C51 C50 1.375 1_655 S
C51 C52 1.361 . S
C52 H12 0.930 . S
C52 C51 1.361 . S
C52 C53 1.399 . S
C53 H13 0.929 . S
C53 C48 1.386 . S
C53 C52 1.399 . S
C54 C33 1.485 . S
C54 C55 1.394 1_655 S
C54 C59 1.360 . S
C55 H14 0.931 . S
C55 C54 1.394 1_455 S
C55 C56 1.372 . S
C56 H15 0.930 . S
C56 C55 1.372 . S
C56 C57 1.397 1_455 S
C57 C56 1.397 1_655 S
C57 C58 1.390 . S
C57 C73 1.476 . S
C58 H16 0.930 . S
C58 C57 1.390 . S
C58 C59 1.366 . S
C59 H17 0.932 . S
C59 C54 1.360 . S
C59 C58 1.366 . S
C60 C34 1.490 . S
C60 C61 1.380 . S
C60 C65 1.386 1_455 S
C61 H18 0.930 . S
C61 C60 1.380 . S
C61 C62 1.381 . S
C62 H19 0.929 . S
C62 C61 1.381 . S
C62 C63 1.371 . S
C63 C62 1.371 . S
C63 C64 1.380 1_455 S
C64 H20 0.931 . S
C64 C63 1.380 1_655 S
C64 C65 1.387 . S
C65 H21 0.930 . S
C65 C60 1.386 1_655 S
C65 C64 1.387 . S
C66 C35 1.519 . S
C66 C67 1.381 . S
C66 C71 1.356 1_455 S
C67 H22 0.929 . S
C67 C66 1.381 . S
C67 C68 1.386 . S
C68 H23 0.931 . S
C68 C67 1.386 . S
C68 C69 1.363 1_455 S
C69 C68 1.363 1_655 S
C69 C70 1.385 . S
C70 H24 0.930 . S
C70 C69 1.385 . S
C70 C71 1.396 . S
C71 H25 0.929 . S
C71 C66 1.356 1_655 S
C71 C70 1.396 . S
C72 O26 1.300 1_655 S
C72 O27 1.209 . S
C72 C45 1.486 . S
C73 O28 1.199 1_655 S
C73 O29 1.297 . S
C73 C57 1.476 . S
H74 O100 0.859 . S
H75 O103 0.854 . S
H76 C111 0.930 . S
H77 C112 0.930 . S
H78 C114 0.930 . S
H79 C115 0.930 . S
H80 C117 0.931 . S
H81 C118 0.930 . S
H82 C120 0.930 . S
H83 C121 0.929 . S
H84 C123 0.930 . S
H85 C124 0.931 . S
H86 C126 0.930 . S
H87 C127 0.929 . S
H88 C129 0.931 . S
H89 C130 0.930 . S
H90 C132 0.930 . S
H91 C133 0.932 . S
H92 C135 0.930 . S
H93 C136 0.929 . S
H94 C138 0.931 . S
H95 C139 0.930 . S
H96 C141 0.929 . S
H97 C142 0.931 . S
H98 C144 0.930 . S
H99 C145 0.929 . S
O100 H74 0.859 . S
O100 C146 1.300 1_565 S
O101 C146 1.209 . S
O102 C147 1.199 1_565 S
O103 H75 0.854 . S
O103 C147 1.297 . S
C104 C105 1.404 . S
C104 C109 1.397 . S
C104 C110 1.492 . S
C105 C104 1.404 . S
C105 C106 1.396 . S
C105 C116 1.492 . S
C106 C105 1.396 . S
C106 C107 1.397 . S
C106 C122 1.509 . S
C107 C106 1.397 . S
C107 C108 1.412 . S
C107 C128 1.485 . S
C108 C107 1.412 . S
C108 C109 1.388 . S
C108 C134 1.490 . S
C109 C104 1.397 . S
C109 C108 1.388 . S
C109 C140 1.519 . S
C110 C104 1.492 . S
C110 C111 1.363 1_545 S
C110 C115 1.390 . S
C111 H76 0.930 . S
C111 C110 1.363 1_565 S
C111 C112 1.372 . S
C112 H77 0.930 . S
C112 C111 1.372 . S
C112 C113 1.383 . S
C113 C112 1.383 . S
C113 C114 1.395 1_565 S
C114 H78 0.930 . S
C114 C113 1.395 1_545 S
C114 C115 1.362 . S
C115 H79 0.930 . S
C115 C110 1.390 . S
C115 C114 1.362 . S
C116 C105 1.492 . S
C116 C117 1.377 1_545 S
C116 C121 1.397 . S
C117 H80 0.931 . S
C117 C116 1.377 1_565 S
C117 C118 1.376 . S
C118 H81 0.930 . S
C118 C117 1.376 . S
C118 C119 1.376 1_565 S
C119 C118 1.376 1_545 S
C119 C120 1.378 . S
C119 C146 1.486 . S
C120 H82 0.930 . S
C120 C119 1.378 . S
C120 C121 1.376 . S
C121 H83 0.929 . S
C121 C116 1.397 . S
C121 C120 1.376 . S
C122 C106 1.509 . S
C122 C123 1.391 1_545 S
C122 C127 1.386 . S
C123 H84 0.930 . S
C123 C122 1.391 1_565 S
C123 C124 1.375 . S
C124 H85 0.931 . S
C124 C123 1.375 . S
C124 C125 1.375 1_565 S
C125 C124 1.375 1_545 S
C125 C126 1.361 . S
C126 H86 0.930 . S
C126 C125 1.361 . S
C126 C127 1.399 . S
C127 H87 0.929 . S
C127 C122 1.386 . S
C127 C126 1.399 . S
C128 C107 1.485 . S
C128 C129 1.394 1_545 S
C128 C133 1.360 . S
C129 H88 0.931 . S
C129 C128 1.394 1_565 S
C129 C130 1.372 . S
C130 H89 0.930 . S
C130 C129 1.372 . S
C130 C131 1.397 1_565 S
C131 C130 1.397 1_545 S
C131 C132 1.390 . S
C131 C147 1.476 . S
C132 H90 0.930 . S
C132 C131 1.390 . S
C132 C133 1.366 . S
C133 H91 0.932 . S
C133 C128 1.360 . S
C133 C132 1.366 . S
C134 C108 1.490 . S
C134 C135 1.380 1_545 S
C134 C139 1.386 . S
C135 H92 0.930 . S
C135 C134 1.380 1_565 S
C135 C136 1.381 . S
C136 H93 0.929 . S
C136 C135 1.381 . S
C136 C137 1.371 . S
C137 C136 1.371 . S
C137 C138 1.380 1_565 S
C138 H94 0.931 . S
C138 C137 1.380 1_545 S
C138 C139 1.387 . S
C139 H95 0.930 . S
C139 C134 1.386 . S
C139 C138 1.387 . S
C140 C109 1.519 . S
C140 C141 1.377 1_545 S
C140 C145 1.361 . S
C141 H96 0.929 . S
C141 C140 1.377 1_565 S
C141 C142 1.386 . S
C142 H97 0.931 . S
C142 C141 1.386 . S
C142 C143 1.363 1_565 S
C143 C142 1.363 1_545 S
C143 C144 1.385 . S
C144 H98 0.930 . S
C144 C143 1.385 . S
C144 C145 1.396 . S
C145 H99 0.929 . S
C145 C140 1.361 . S
C145 C144 1.396 . S
C146 O100 1.300 1_545 S
C146 O101 1.209 . S
C146 C119 1.486 . S
C147 O102 1.199 1_545 S
C147 O103 1.297 . S
C147 C131 1.476 . S
H148 O174 0.856 1_554 S
H149 O177 0.854 . S
H150 C185 0.930 . S
H151 C186 0.930 . S
H152 C188 0.930 . S
H153 C189 0.930 . S
H154 C191 0.931 . S
H155 C192 0.930 . S
H156 C194 0.930 . S
H157 C195 0.929 . S
H158 C197 0.930 . S
H159 C198 0.931 . S
H160 C200 0.930 . S
H161 C201 0.929 . S
H162 C203 0.931 . S
H163 C204 0.930 . S
H164 C206 0.930 . S
H165 C207 0.932 . S
H166 C209 0.930 . S
H167 C210 0.929 . S
H168 C212 0.931 . S
H169 C213 0.930 . S
H170 C215 0.929 . S
H171 C216 0.931 . S
H172 C218 0.930 . S
H173 C219 0.929 . S
O174 H148 0.856 1_556 S
O174 C220 1.300 1_556 S
O175 C220 1.209 . S
O176 C221 1.199 1_556 S
O177 H149 0.854 . S
O177 C221 1.297 . S
C178 C179 1.404 . S
C178 C183 1.397 . S
C178 C184 1.492 . S
C179 C178 1.404 . S
C179 C180 1.396 . S
C179 C190 1.492 . S
C180 C179 1.396 . S
C180 C181 1.397 . S
C180 C196 1.509 . S
C181 C180 1.397 . S
C181 C182 1.412 . S
C181 C202 1.485 . S
C182 C181 1.412 . S
C182 C183 1.388 . S
C182 C208 1.490 . S
C183 C178 1.397 . S
C183 C182 1.388 . S
C183 C214 1.519 . S
C184 C178 1.492 . S
C184 C185 1.363 1_554 S
C184 C189 1.390 . S
C185 H150 0.930 . S
C185 C184 1.363 1_556 S
C185 C186 1.372 . S
C186 H151 0.930 . S
C186 C185 1.372 . S
C186 C187 1.383 . S
C187 C186 1.383 . S
C187 C188 1.395 1_556 S
C188 H152 0.930 . S
C188 C187 1.395 1_554 S
C188 C189 1.362 . S
C189 H153 0.930 . S
C189 C184 1.390 . S
C189 C188 1.362 . S
C190 C179 1.492 . S
C190 C191 1.377 1_554 S
C190 C195 1.397 . S
C191 H154 0.931 . S
C191 C190 1.377 1_556 S
C191 C192 1.376 . S
C192 H155 0.930 . S
C192 C191 1.376 . S
C192 C193 1.376 1_556 S
C193 C192 1.376 1_554 S
C193 C194 1.378 . S
C193 C220 1.486 . S
C194 H156 0.930 . S
C194 C193 1.378 . S
C194 C195 1.376 . S
C195 H157 0.929 . S
C195 C190 1.397 . S
C195 C194 1.376 . S
C196 C180 1.509 . S
C196 C197 1.391 1_554 S
C196 C201 1.386 . S
C197 H158 0.930 . S
C197 C196 1.391 1_556 S
C197 C198 1.375 . S
C198 H159 0.931 . S
C198 C197 1.375 . S
C198 C199 1.375 1_556 S
C199 C198 1.375 1_554 S
C199 C200 1.361 . S
C200 H160 0.930 . S
C200 C199 1.361 . S
C200 C201 1.399 . S
C201 H161 0.929 . S
C201 C196 1.386 . S
C201 C200 1.399 . S
C202 C181 1.485 . S
C202 C203 1.394 1_554 S
C202 C207 1.360 . S
C203 H162 0.931 . S
C203 C202 1.394 1_556 S
C203 C204 1.372 . S
C204 H163 0.930 . S
C204 C203 1.372 . S
C204 C205 1.397 1_556 S
C205 C204 1.397 1_554 S
C205 C206 1.390 . S
C205 C221 1.476 . S
C206 H164 0.930 . S
C206 C205 1.390 . S
C206 C207 1.366 . S
C207 H165 0.932 . S
C207 C202 1.360 . S
C207 C206 1.366 . S
C208 C182 1.490 . S
C208 C209 1.380 1_554 S
C208 C213 1.386 . S
C209 H166 0.930 . S
C209 C208 1.380 1_556 S
C209 C210 1.381 . S
C210 H167 0.929 . S
C210 C209 1.381 . S
C210 C211 1.371 . S
C211 C210 1.371 . S
C211 C212 1.380 1_556 S
C212 H168 0.931 . S
C212 C211 1.380 1_554 S
C212 C213 1.387 . S
C213 H169 0.930 . S
C213 C208 1.386 . S
C213 C212 1.387 . S
C214 C183 1.519 . S
C214 C215 1.377 1_554 S
C214 C219 1.361 . S
C215 H170 0.929 . S
C215 C214 1.377 1_556 S
C215 C216 1.386 . S
C216 H171 0.931 . S
C216 C215 1.386 . S
C216 C217 1.363 1_556 S
C217 C216 1.363 1_554 S
C217 C218 1.385 . S
C218 H172 0.930 . S
C218 C217 1.385 . S
C218 C219 1.396 . S
C219 H173 0.929 . S
C219 C214 1.361 . S
C219 C218 1.396 . S
C220 O174 1.300 1_554 S
C220 O175 1.209 . S
C220 C193 1.486 . S
C221 O176 1.199 1_554 S
C221 O177 1.297 . S
C221 C205 1.476 . S
Zn222 O224 1.933 1_556 S
Zn222 O242 1.985 . S
Zn222 O253 1.955 . S
Zn223 O224 1.911 . S
Zn223 O243 1.970 . S
Zn223 O259 1.945 . S
Zn223 O266 1.981 . S
O224 Zn222 1.933 1_554 S
O224 Zn223 1.911 . S
O224 H225 0.841 . S
H225 O224 0.841 . S
C226 O227 1.246 . S
C226 O255 1.276 1_455 S
O227 C226 1.246 . S
Zn228 O230 1.911 . S
Zn228 O245 1.970 . S
Zn228 O262 1.945 . S
Zn228 O269 1.981 . S
Zn229 O230 1.933 1_556 S
Zn229 O244 1.985 . S
Zn229 O251 1.955 . S
O230 Zn228 1.911 . S
O230 Zn229 1.933 1_554 S
O230 H231 0.841 . S
H231 O230 0.841 . S
Zn232 O233 1.933 1_556 S
Zn232 O246 1.985 . S
Zn232 O255 1.955 . S
O233 Zn232 1.933 1_554 S
O233 Zn234 1.911 . S
O233 H235 0.841 . S
Zn234 O233 1.911 . S
Zn234 O247 1.970 . S
Zn234 O263 1.981 . S
Zn234 O265 1.945 . S
H235 O233 0.841 . S
Zn236 O237 1.933 1_556 S
Zn236 O249 1.985 . S
Zn236 O257 1.955 . S
O237 Zn236 1.933 1_554 S
O237 H238 0.841 . S
O237 Zn239 1.911 . S
H238 O237 0.841 . S
Zn239 O237 1.911 . S
Zn239 O250 1.970 . S
Zn239 O260 1.981 . S
Zn239 O268 1.945 . S
C240 O241 1.246 . S
C240 O257 1.276 1_655 S
O241 C240 1.246 . S
O242 Zn222 1.985 . S
O242 C252 1.245 1_556 S
O243 Zn223 1.970 . S
O243 C252 1.263 . S
O244 Zn229 1.985 . S
O244 C256 1.245 1_556 S
O245 Zn228 1.970 . S
O245 C256 1.263 . S
O246 Zn232 1.985 . S
O246 C261 1.245 1_556 S
O247 Zn234 1.970 . S
O247 C261 1.263 . S
C248 O259 1.262 . S
C248 O260 1.245 1_545 S
O249 Zn236 1.985 . S
O249 C267 1.245 1_556 S
O250 Zn239 1.970 . S
O250 C267 1.263 . S
O251 Zn229 1.955 . S
O251 C270 1.276 1_565 S
C252 O242 1.245 1_554 S
C252 O243 1.263 . S
O253 Zn222 1.955 . S
O253 C272 1.276 . S
C254 O262 1.262 1_545 S
C254 O263 1.245 . S
O255 C226 1.276 1_655 S
O255 Zn232 1.955 . S
C256 O244 1.245 1_554 S
C256 O245 1.263 . S
O257 Zn236 1.955 . S
O257 C240 1.276 1_455 S
C258 O265 1.240 1_455 S
C258 O266 1.257 . S
O259 Zn223 1.945 . S
O259 C248 1.262 . S
O260 Zn239 1.981 . S
O260 C248 1.245 1_565 S
C261 O246 1.245 1_554 S
C261 O247 1.263 . S
O262 Zn228 1.945 . S
O262 C254 1.262 1_565 S
O263 Zn234 1.981 . S
O263 C254 1.245 . S
C264 O268 1.262 1_655 S
C264 O269 1.245 . S
O265 Zn234 1.945 . S
O265 C258 1.240 1_655 S
O266 Zn223 1.981 . S
O266 C258 1.257 . S
C267 O249 1.245 1_554 S
C267 O250 1.263 . S
O268 Zn239 1.945 . S
O268 C264 1.262 1_455 S
O269 Zn228 1.981 . S
O269 C264 1.245 . S
C270 O251 1.276 1_545 S
C270 O271 1.246 . S
O271 C270 1.246 . S
C272 O253 1.276 . S
C272 O273 1.246 1_545 S
O273 C272 1.246 1_565 S
H274 C280 0.930 1_655 S
H275 C283 0.930 . S
H276 C284 0.930 . S
H277 C285 0.930 . S
H278 C288 0.930 . S
H279 C289 0.930 . S
C280 H274 0.930 1_455 S
C280 C281 1.355 . S
C280 C282 1.415 . S
C281 C280 1.355 . S
C281 C283 1.419 . S
C282 C280 1.415 . S
C282 C287 1.425 . S
C282 C289 1.409 1_455 S
C283 H275 0.930 . S
C283 C281 1.419 . S
C283 C284 1.362 . S
C284 H276 0.930 . S
C284 C283 1.362 . S
C284 C287 1.409 . S
C285 H277 0.930 . S
C285 C286 1.355 . S
C285 C287 1.415 . S
C286 C285 1.355 . S
C286 C288 1.419 1_455 S
C287 C282 1.425 . S
C287 C284 1.409 . S
C287 C285 1.415 . S
C288 H278 0.930 . S
C288 C286 1.419 1_655 S
C288 C289 1.362 . S
C289 H279 0.930 . S
C289 C282 1.409 1_655 S
C289 C288 1.362 . S
H290 C296 0.930 . S
H291 C299 0.930 . S
H292 C300 0.930 . S
H293 C301 0.930 . S
H294 C304 0.930 . S
H295 C305 0.930 . S
C296 H290 0.930 . S
C296 C297 1.355 1_545 S
C296 C298 1.415 . S
C297 C296 1.355 1_565 S
C297 C299 1.419 . S
C298 C296 1.415 . S
C298 C303 1.425 1_545 S
C298 C305 1.409 . S
C299 H291 0.930 . S
C299 C297 1.419 . S
C299 C300 1.362 . S
C300 H292 0.930 . S
C300 C299 1.362 . S
C300 C303 1.409 . S
C301 H293 0.930 . S
C301 C302 1.355 1_565 S
C301 C303 1.415 . S
C302 C301 1.355 1_545 S
C302 C304 1.419 . S
C303 C298 1.425 1_565 S
C303 C300 1.409 . S
C303 C301 1.415 . S
C304 H294 0.930 . S
C304 C302 1.419 . S
C304 C305 1.362 . S
C305 H295 0.930 . S
C305 C298 1.409 . S
C305 C304 1.362 . S
H306 C312 0.930 . S
H307 C315 0.930 1_455 S
H308 C316 0.930 1_455 S
H309 C317 0.930 . S
H310 C320 0.930 . S
H311 C321 0.930 . S
C312 H306 0.930 . S
C312 C313 1.355 . S
C312 C314 1.415 . S
C313 C312 1.355 . S
C313 C315 1.419 . S
C314 C312 1.415 . S
C314 C319 1.425 . S
C314 C321 1.409 . S
C315 H307 0.930 1_655 S
C315 C313 1.419 . S
C315 C316 1.362 . S
C316 H308 0.930 1_655 S
C316 C315 1.362 . S
C316 C319 1.409 . S
C317 H309 0.930 . S
C317 C318 1.355 . S
C317 C319 1.415 . S
C318 C317 1.355 . S
C318 C320 1.419 . S
C319 C314 1.425 . S
C319 C316 1.409 . S
C319 C317 1.415 . S
C320 H310 0.930 . S
C320 C318 1.419 . S
C320 C321 1.362 . S
C321 H311 0.930 . S
C321 C314 1.409 . S
C321 C320 1.362 . S
H322 C328 0.923 1_565 S
H323 C331 0.930 . S
H324 C332 0.930 . S
H325 C333 0.930 . S
H326 C336 0.930 . S
H327 C337 0.930 . S
C328 H322 0.923 1_545 S
C328 C329 1.361 . S
C328 C330 1.415 1_545 S
C329 C328 1.361 . S
C329 C331 1.419 . S
C330 C328 1.415 1_565 S
C330 C335 1.425 1_565 S
C330 C337 1.409 . S
C331 H323 0.930 . S
C331 C329 1.419 . S
C331 C332 1.362 . S
C332 H324 0.930 . S
C332 C331 1.362 . S
C332 C335 1.409 . S
C333 H325 0.930 . S
C333 C334 1.355 1_545 S
C333 C335 1.415 . S
C334 C333 1.355 1_565 S
C334 C336 1.419 . S
C335 C330 1.425 1_545 S
C335 C332 1.409 . S
C335 C333 1.415 . S
C336 H326 0.930 . S
C336 C334 1.419 . S
C336 C337 1.362 . S
C337 H327 0.930 . S
C337 C330 1.409 . S
C337 C336 1.362 . S
H338 C344 0.930 . S
H339 C347 0.930 . S
H340 C348 0.930 . S
H341 C349 0.930 . S
H342 C352 0.930 . S
H343 C353 0.930 . S
C344 H338 0.930 . S
C344 C345 1.355 1_655 S
C344 C346 1.415 . S
C345 C344 1.355 1_455 S
C345 C347 1.419 . S
C346 C344 1.415 . S
C346 C351 1.425 1_655 S
C346 C353 1.409 . S
C347 H339 0.930 . S
C347 C345 1.419 . S
C347 C348 1.362 . S
C348 H340 0.930 . S
C348 C347 1.362 . S
C348 C351 1.409 . S
C349 H341 0.930 . S
C349 C350 1.355 1_455 S
C349 C351 1.415 . S
C350 C349 1.355 1_655 S
C350 C352 1.419 . S
C351 C346 1.425 1_455 S
C351 C348 1.409 . S
C351 C349 1.415 . S
C352 H342 0.930 . S
C352 C350 1.419 . S
C352 C353 1.362 . S
C353 H343 0.930 . S
C353 C346 1.409 . S
C353 C352 1.362 . S
H354 C360 0.930 1_545 S
H355 C363 0.930 . S
H356 C364 0.930 . S
H357 C365 0.930 . S
H358 C368 0.930 . S
H359 C369 0.930 . S
C360 H354 0.930 1_565 S
C360 C361 1.355 . S
C360 C362 1.415 . S
C361 C360 1.355 . S
C361 C363 1.419 . S
C362 C360 1.415 . S
C362 C367 1.425 . S
C362 C369 1.409 1_565 S
C363 H355 0.930 . S
C363 C361 1.419 . S
C363 C364 1.362 . S
C364 H356 0.930 . S
C364 C363 1.362 . S
C364 C367 1.409 . S
C365 H357 0.930 . S
C365 C366 1.355 . S
C365 C367 1.415 . S
C366 C365 1.355 . S
C366 C368 1.419 1_565 S
C367 C362 1.425 . S
C367 C364 1.409 . S
C367 C365 1.415 . S
C368 H358 0.930 . S
C368 C366 1.419 1_545 S
C368 C369 1.362 . S
C369 H359 0.930 . S
C369 C362 1.409 1_545 S
C369 C368 1.362 . S
H370 C376 0.930 . S
H371 C379 0.930 . S
H372 C380 0.930 . S
H373 C381 0.930 . S
H374 C384 0.930 . S
H375 C385 0.930 . S
C376 H370 0.930 . S
C376 C377 1.355 . S
C376 C378 1.415 . S
C377 C376 1.355 . S
C377 C379 1.419 1_655 S
C378 C376 1.415 . S
C378 C383 1.425 1_655 S
C378 C385 1.409 . S
C379 H371 0.930 . S
C379 C377 1.419 1_455 S
C379 C380 1.362 . S
C380 H372 0.930 . S
C380 C379 1.362 . S
C380 C383 1.409 . S
C381 H373 0.930 . S
C381 C382 1.355 . S
C381 C383 1.415 . S
C382 C381 1.355 . S
C382 C384 1.419 1_455 S
C383 C378 1.425 1_455 S
C383 C380 1.409 . S
C383 C381 1.415 . S
C384 H374 0.930 . S
C384 C382 1.419 1_655 S
C384 C385 1.362 . S
C385 H375 0.930 . S
C385 C378 1.409 . S
C385 C384 1.362 . S
H386 C392 0.930 . S
H387 C395 0.930 . S
H388 C396 0.930 . S
H389 C397 0.930 . S
H390 C400 0.930 . S
H391 C401 0.930 . S
C392 H386 0.930 . S
C392 C393 1.355 . S
C392 C394 1.415 . S
C393 C392 1.355 . S
C393 C395 1.419 1_545 S
C394 C392 1.415 . S
C394 C399 1.425 . S
C394 C401 1.409 . S
C395 H387 0.930 . S
C395 C393 1.419 1_565 S
C395 C396 1.362 . S
C396 H388 0.930 . S
C396 C395 1.362 . S
C396 C399 1.409 1_565 S
C397 H389 0.930 . S
C397 C398 1.355 1_565 S
C397 C399 1.415 1_565 S
C398 C397 1.355 1_545 S
C398 C400 1.419 . S
C399 C394 1.425 . S
C399 C396 1.409 1_545 S
C399 C397 1.415 1_545 S
C400 H390 0.930 . S
C400 C398 1.419 . S
C400 C401 1.362 . S
C401 H391 0.930 . S
C401 C394 1.409 . S
C401 C400 1.362 . S
H402 C408 0.930 . S
H403 C411 0.930 . S
H404 C412 0.930 . S
H405 C413 0.930 . S
H406 C416 0.930 . S
H407 C417 0.930 . S
C408 H402 0.930 . S
C408 C409 1.355 1_554 S
C408 C410 1.415 . S
C409 C408 1.355 1_556 S
C409 C411 1.419 . S
C410 C408 1.415 . S
C410 C415 1.425 1_554 S
C410 C417 1.409 . S
C411 H403 0.930 . S
C411 C409 1.419 . S
C411 C412 1.362 . S
C412 H404 0.930 . S
C412 C411 1.362 . S
C412 C415 1.409 . S
C413 H405 0.930 . S
C413 C414 1.355 1_556 S
C413 C415 1.415 . S
C414 C413 1.355 1_554 S
C414 C416 1.419 . S
C415 C410 1.425 1_556 S
C415 C412 1.409 . S
C415 C413 1.415 . S
C416 H406 0.930 . S
C416 C414 1.419 . S
C416 C417 1.362 . S
C417 H407 0.930 . S
C417 C410 1.409 . S
C417 C416 1.362 . S
H418 C424 0.930 1_556 S
H419 C427 0.930 . S
H420 C428 0.930 . S
H421 C429 0.930 . S
H422 C432 0.930 . S
H423 C433 0.930 . S
C424 H418 0.930 1_554 S
C424 C425 1.355 . S
C424 C426 1.415 . S
C425 C424 1.355 . S
C425 C427 1.419 . S
C426 C424 1.415 . S
C426 C431 1.425 . S
C426 C433 1.409 1_554 S
C427 H419 0.930 . S
C427 C425 1.419 . S
C427 C428 1.362 . S
C428 H420 0.930 . S
C428 C427 1.362 . S
C428 C431 1.409 . S
C429 H421 0.930 . S
C429 C430 1.355 . S
C429 C431 1.415 . S
C430 C429 1.355 . S
C430 C432 1.419 1_554 S
C431 C426 1.425 . S
C431 C428 1.409 . S
C431 C429 1.415 . S
C432 H422 0.930 . S
C432 C430 1.419 1_556 S
C432 C433 1.362 . S
C433 H423 0.930 . S
C433 C426 1.409 1_556 S
C433 C432 1.362 . S
H434 C440 0.930 . S
H435 C443 0.930 . S
H436 C444 0.930 . S
H437 C445 0.930 . S
H438 C448 0.930 . S
H439 C449 0.930 . S
C440 H434 0.930 . S
C440 C441 1.355 . S
C440 C442 1.415 . S
C441 C440 1.355 . S
C441 C443 1.419 . S
C442 C440 1.415 . S
C442 C447 1.425 . S
C442 C449 1.409 1_554 S
C443 H435 0.930 . S
C443 C441 1.419 . S
C443 C444 1.362 . S
C444 H436 0.930 . S
C444 C443 1.362 . S
C444 C447 1.409 . S
C445 H437 0.930 . S
C445 C446 1.355 . S
C445 C447 1.415 . S
C446 C445 1.355 . S
C446 C448 1.419 1_554 S
C447 C442 1.425 . S
C447 C444 1.409 . S
C447 C445 1.415 . S
C448 H438 0.930 . S
C448 C446 1.419 1_556 S
C448 C449 1.362 . S
C449 H439 0.930 . S
C449 C442 1.409 1_556 S
C449 C448 1.362 . S
H450 C456 0.930 . S
H451 C459 0.930 . S
H452 C460 0.930 . S
H453 C461 0.930 . S
H454 C464 0.930 . S
H455 C465 0.930 . S
C456 H450 0.930 . S
C456 C457 1.355 1_554 S
C456 C458 1.415 . S
C457 C456 1.355 1_556 S
C457 C459 1.419 . S
C458 C456 1.415 . S
C458 C463 1.425 1_554 S
C458 C465 1.409 . S
C459 H451 0.930 . S
C459 C457 1.419 . S
C459 C460 1.362 . S
C460 H452 0.930 . S
C460 C459 1.362 . S
C460 C463 1.409 . S
C461 H453 0.930 . S
C461 C462 1.355 1_556 S
C461 C463 1.415 . S
C462 C461 1.355 1_554 S
C462 C464 1.419 . S
C463 C458 1.425 1_556 S
C463 C460 1.409 . S
C463 C461 1.415 . S
C464 H454 0.930 . S
C464 C462 1.419 . S
C464 C465 1.362 . S
C465 H455 0.930 . S
C465 C458 1.409 . S
C465 C464 1.362 . S
C286 C258 1.762 . S
C281 C39 1.788 . S
C302 C254 1.957 . S
C297 C113 1.862 . S
C318 C264 2.098 . S
C313 C69 2.202 . S
C334 C248 1.036 1_565 S
C329 C125 1.066 . S
C345 C63 1.920 . S
C350 C240 1.974 . S
C366 C272 1.781 1_565 S
C361 C137 1.838 . S
C377 C51 1.157 . S
C382 C226 1.113 . S
C393 C143 2.325 . S
C398 C270 2.208 . S
C409 C187 1.051 . S
C414 C252 1.205 . S
C425 C217 1.583 . S
C430 C267 1.526 . S
C446 C261 0.552 . S
C441 C199 0.474 . S
C462 C256 1.344 . S
C457 C211 1.317 . S
