# Generated by pormake.
# Topology ptr, (4,4)-cn, num edge types: 1
# Building blocks:
#     Node 0, Type 0, BuildingBlock: TATPOV_clean_sbu_0, # of connection points: 4
#     Node 1, Type 0, BuildingBlock: TATPOV_clean_sbu_0, # of connection points: 4
#     Node 2, Type 0, BuildingBlock: TATPOV_clean_sbu_0, # of connection points: 4
#     Node 3, Type 0, BuildingBlock: TATPOV_clean_sbu_0, # of connection points: 4
#     Node 4, Type 0, BuildingBlock: TATPOV_clean_sbu_0, # of connection points: 4
#     Node 5, Type 0, BuildingBlock: TATPOV_clean_sbu_0, # of connection points: 4
#     Node 6, Type 0, BuildingBlock: TATPOV_clean_sbu_0, # of connection points: 4
#     Node 7, Type 0, BuildingBlock: TATPOV_clean_sbu_0, # of connection points: 4
#     Node 8, Type 0, BuildingBlock: TATPOV_clean_sbu_0, # of connection points: 4
#     Node 9, Type 0, BuildingBlock: TATPOV_clean_sbu_0, # of connection points: 4
#     Node 10, Type 0, BuildingBlock: TATPOV_clean_sbu_0, # of connection points: 4
#     Node 11, Type 0, BuildingBlock: TATPOV_clean_sbu_0, # of connection points: 4
#     Node 12, Type 0, BuildingBlock: TATPOV_clean_sbu_0, # of connection points: 4
#     Node 13, Type 0, BuildingBlock: TATPOV_clean_sbu_0, # of connection points: 4
#     Node 14, Type 0, BuildingBlock: TATPOV_clean_sbu_0, # of connection points: 4
#     Node 15, Type 0, BuildingBlock: TATPOV_clean_sbu_0, # of connection points: 4
#     Node 16, Type 0, BuildingBlock: TATPOV_clean_sbu_0, # of connection points: 4
#     Node 17, Type 0, BuildingBlock: TATPOV_clean_sbu_0, # of connection points: 4
#     Node 18, Type 1, BuildingBlock: MIFKUJ_clean_linker_1, # of connection points: 4
#     Node 19, Type 1, BuildingBlock: MIFKUJ_clean_linker_1, # of connection points: 4
#     Node 20, Type 1, BuildingBlock: MIFKUJ_clean_linker_1, # of connection points: 4
#     Node 21, Type 1, BuildingBlock: MIFKUJ_clean_linker_1, # of connection points: 4
#     Node 22, Type 1, BuildingBlock: MIFKUJ_clean_linker_1, # of connection points: 4
#     Node 23, Type 1, BuildingBlock: MIFKUJ_clean_linker_1, # of connection points: 4
#     Node 24, Type 1, BuildingBlock: MIFKUJ_clean_linker_1, # of connection points: 4
#     Node 25, Type 1, BuildingBlock: MIFKUJ_clean_linker_1, # of connection points: 4
#     Node 26, Type 1, BuildingBlock: MIFKUJ_clean_linker_1, # of connection points: 4
#     Node 27, Type 1, BuildingBlock: MIFKUJ_clean_linker_1, # of connection points: 4
#     Node 28, Type 1, BuildingBlock: MIFKUJ_clean_linker_1, # of connection points: 4
#     Node 29, Type 1, BuildingBlock: MIFKUJ_clean_linker_1, # of connection points: 4
#     Node 30, Type 1, BuildingBlock: MIFKUJ_clean_linker_1, # of connection points: 4
#     Node 31, Type 1, BuildingBlock: MIFKUJ_clean_linker_1, # of connection points: 4
#     Node 32, Type 1, BuildingBlock: MIFKUJ_clean_linker_1, # of connection points: 4
#     Node 33, Type 1, BuildingBlock: MIFKUJ_clean_linker_1, # of connection points: 4
#     Node 34, Type 1, BuildingBlock: MIFKUJ_clean_linker_1, # of connection points: 4
#     Node 35, Type 1, BuildingBlock: MIFKUJ_clean_linker_1, # of connection points: 4
#     Edge 36, Type (0, 1), BuildingBlock: KIFKEQ_clean_linker_1, # of connection points: 2
#     Edge 37, Type (0, 1), BuildingBlock: KIFKEQ_clean_linker_1, # of connection points: 2
#     Edge 38, Type (0, 1), BuildingBlock: KIFKEQ_clean_linker_1, # of connection points: 2
#     Edge 39, Type (0, 1), BuildingBlock: KIFKEQ_clean_linker_1, # of connection points: 2
#     Edge 40, Type (0, 1), BuildingBlock: KIFKEQ_clean_linker_1, # of connection points: 2
#     Edge 41, Type (0, 1), BuildingBlock: KIFKEQ_clean_linker_1, # of connection points: 2
#     Edge 42, Type (0, 1), BuildingBlock: KIFKEQ_clean_linker_1, # of connection points: 2
#     Edge 43, Type (0, 1), BuildingBlock: KIFKEQ_clean_linker_1, # of connection points: 2
#     Edge 44, Type (0, 1), BuildingBlock: KIFKEQ_clean_linker_1, # of connection points: 2
#     Edge 45, Type (0, 1), BuildingBlock: KIFKEQ_clean_linker_1, # of connection points: 2
#     Edge 46, Type (0, 1), BuildingBlock: KIFKEQ_clean_linker_1, # of connection points: 2
#     Edge 47, Type (0, 1), BuildingBlock: KIFKEQ_clean_linker_1, # of connection points: 2
#     Edge 48, Type (0, 1), BuildingBlock: KIFKEQ_clean_linker_1, # of connection points: 2
#     Edge 49, Type (0, 1), BuildingBlock: KIFKEQ_clean_linker_1, # of connection points: 2
#     Edge 50, Type (0, 1), BuildingBlock: KIFKEQ_clean_linker_1, # of connection points: 2
#     Edge 51, Type (0, 1), BuildingBlock: KIFKEQ_clean_linker_1, # of connection points: 2
#     Edge 52, Type (0, 1), BuildingBlock: KIFKEQ_clean_linker_1, # of connection points: 2
#     Edge 53, Type (0, 1), BuildingBlock: KIFKEQ_clean_linker_1, # of connection points: 2
#     Edge 54, Type (0, 1), BuildingBlock: KIFKEQ_clean_linker_1, # of connection points: 2
#     Edge 55, Type (0, 1), BuildingBlock: KIFKEQ_clean_linker_1, # of connection points: 2
#     Edge 56, Type (0, 1), BuildingBlock: KIFKEQ_clean_linker_1, # of connection points: 2
#     Edge 57, Type (0, 1), BuildingBlock: KIFKEQ_clean_linker_1, # of connection points: 2
#     Edge 58, Type (0, 1), BuildingBlock: KIFKEQ_clean_linker_1, # of connection points: 2
#     Edge 59, Type (0, 1), BuildingBlock: KIFKEQ_clean_linker_1, # of connection points: 2
#     Edge 60, Type (0, 1), BuildingBlock: KIFKEQ_clean_linker_1, # of connection points: 2
#     Edge 61, Type (0, 1), BuildingBlock: KIFKEQ_clean_linker_1, # of connection points: 2
#     Edge 62, Type (0, 1), BuildingBlock: KIFKEQ_clean_linker_1, # of connection points: 2
#     Edge 63, Type (0, 1), BuildingBlock: KIFKEQ_clean_linker_1, # of connection points: 2
#     Edge 64, Type (0, 1), BuildingBlock: KIFKEQ_clean_linker_1, # of connection points: 2
#     Edge 65, Type (0, 1), BuildingBlock: KIFKEQ_clean_linker_1, # of connection points: 2
#     Edge 66, Type (0, 1), BuildingBlock: KIFKEQ_clean_linker_1, # of connection points: 2
#     Edge 67, Type (0, 1), BuildingBlock: KIFKEQ_clean_linker_1, # of connection points: 2
#     Edge 68, Type (0, 1), BuildingBlock: KIFKEQ_clean_linker_1, # of connection points: 2
#     Edge 69, Type (0, 1), BuildingBlock: KIFKEQ_clean_linker_1, # of connection points: 2
#     Edge 70, Type (0, 1), BuildingBlock: KIFKEQ_clean_linker_1, # of connection points: 2
#     Edge 71, Type (0, 1), BuildingBlock: KIFKEQ_clean_linker_1, # of connection points: 2
#     Edge 72, Type (0, 1), BuildingBlock: KIFKEQ_clean_linker_1, # of connection points: 2
#     Edge 73, Type (0, 1), BuildingBlock: KIFKEQ_clean_linker_1, # of connection points: 2
#     Edge 74, Type (0, 1), BuildingBlock: KIFKEQ_clean_linker_1, # of connection points: 2
#     Edge 75, Type (0, 1), BuildingBlock: KIFKEQ_clean_linker_1, # of connection points: 2
#     Edge 76, Type (0, 1), BuildingBlock: KIFKEQ_clean_linker_1, # of connection points: 2
#     Edge 77, Type (0, 1), BuildingBlock: KIFKEQ_clean_linker_1, # of connection points: 2
#     Edge 78, Type (0, 1), BuildingBlock: KIFKEQ_clean_linker_1, # of connection points: 2
#     Edge 79, Type (0, 1), BuildingBlock: KIFKEQ_clean_linker_1, # of connection points: 2
#     Edge 80, Type (0, 1), BuildingBlock: KIFKEQ_clean_linker_1, # of connection points: 2
#     Edge 81, Type (0, 1), BuildingBlock: KIFKEQ_clean_linker_1, # of connection points: 2
#     Edge 82, Type (0, 1), BuildingBlock: KIFKEQ_clean_linker_1, # of connection points: 2
#     Edge 83, Type (0, 1), BuildingBlock: KIFKEQ_clean_linker_1, # of connection points: 2
#     Edge 84, Type (0, 1), BuildingBlock: KIFKEQ_clean_linker_1, # of connection points: 2
#     Edge 85, Type (0, 1), BuildingBlock: KIFKEQ_clean_linker_1, # of connection points: 2
#     Edge 86, Type (0, 1), BuildingBlock: KIFKEQ_clean_linker_1, # of connection points: 2
#     Edge 87, Type (0, 1), BuildingBlock: KIFKEQ_clean_linker_1, # of connection points: 2
#     Edge 88, Type (0, 1), BuildingBlock: KIFKEQ_clean_linker_1, # of connection points: 2
#     Edge 89, Type (0, 1), BuildingBlock: KIFKEQ_clean_linker_1, # of connection points: 2
#     Edge 90, Type (0, 1), BuildingBlock: KIFKEQ_clean_linker_1, # of connection points: 2
#     Edge 91, Type (0, 1), BuildingBlock: KIFKEQ_clean_linker_1, # of connection points: 2
#     Edge 92, Type (0, 1), BuildingBlock: KIFKEQ_clean_linker_1, # of connection points: 2
#     Edge 93, Type (0, 1), BuildingBlock: KIFKEQ_clean_linker_1, # of connection points: 2
#     Edge 94, Type (0, 1), BuildingBlock: KIFKEQ_clean_linker_1, # of connection points: 2
#     Edge 95, Type (0, 1), BuildingBlock: KIFKEQ_clean_linker_1, # of connection points: 2
#     Edge 96, Type (0, 1), BuildingBlock: KIFKEQ_clean_linker_1, # of connection points: 2
#     Edge 97, Type (0, 1), BuildingBlock: KIFKEQ_clean_linker_1, # of connection points: 2
#     Edge 98, Type (0, 1), BuildingBlock: KIFKEQ_clean_linker_1, # of connection points: 2
#     Edge 99, Type (0, 1), BuildingBlock: KIFKEQ_clean_linker_1, # of connection points: 2
#     Edge 100, Type (0, 1), BuildingBlock: KIFKEQ_clean_linker_1, # of connection points: 2
#     Edge 101, Type (0, 1), BuildingBlock: KIFKEQ_clean_linker_1, # of connection points: 2
#     Edge 102, Type (0, 1), BuildingBlock: KIFKEQ_clean_linker_1, # of connection points: 2
#     Edge 103, Type (0, 1), BuildingBlock: KIFKEQ_clean_linker_1, # of connection points: 2
#     Edge 104, Type (0, 1), BuildingBlock: KIFKEQ_clean_linker_1, # of connection points: 2
#     Edge 105, Type (0, 1), BuildingBlock: KIFKEQ_clean_linker_1, # of connection points: 2
#     Edge 106, Type (0, 1), BuildingBlock: KIFKEQ_clean_linker_1, # of connection points: 2
#     Edge 107, Type (0, 1), BuildingBlock: KIFKEQ_clean_linker_1, # of connection points: 2
# Relax obj value: 0.067
# Max RMSD: 0.225
# Mean RMSD: 0.107
data_MOF--net-ptr--node1-TATPOV_clean_sbu_0--node2-MIFKUJ_clean_linker_1--edge1-KIFKEQ_clean_linker_1
_symmetry_space_group_name_H-M    P1
_symmetry_Int_Tables_number       1
_symmetry_cell_setting            triclinic
loop_
_symmetry_equiv_pos_as_xyz
'x, y, z'
_cell_length_a     90.800371
_cell_length_b     92.011087
_cell_length_c     61.431045
_cell_angle_alpha  89.720075
_cell_angle_beta   90.770836
_cell_angle_gamma 121.39821
loop_
_atom_site_label
_atom_site_type_symbol
_atom_site_fract_x
_atom_site_fract_y
_atom_site_fract_z
_atom_type_partial_charge
Zn0 Zn 0.95708 0.35148 0.02305 0.0
Zn1 Zn 0.98866 0.3564 0.02549 0.0
O2 O 0.97211 0.3307 0.01897 0.0
O3 O 0.94585 0.32613 0.0201 0.0
O4 O 0.01137 0.35772 0.03067 0.0
O5 O 0.95988 0.36255 0.05224 0.0
O6 O 0.98589 0.36644 0.05422 0.0
C7 C 0.95582 0.32053 0.01756 0.0
C8 C 0.98044 0.37309 0.98872 0.0
O9 O 0.9918 0.37133 0.99877 0.0
O10 O 0.96512 0.3658 0.99568 0.0
C11 C 0.01542 0.34844 0.02018 0.0
O12 O 0.00527 0.33881 0.00425 0.0
C13 C 0.97404 0.36813 0.06243 0.0
Zn14 Zn 0.64333 0.60999 0.9995 0.0
Zn15 Zn 0.64706 0.64008 0.00741 0.0
O16 O 0.67093 0.64625 0.99564 0.0
O17 O 0.6667 0.62137 0.98586 0.0
O18 O 0.65043 0.66287 0.01555 0.0
O19 O 0.64079 0.60414 0.03139 0.0
O20 O 0.63938 0.62706 0.03659 0.0
C21 C 0.6764 0.6374 0.98701 0.0
C22 C 0.61882 0.61551 0.97603 0.0
O23 O 0.62776 0.63046 0.98404 0.0
O24 O 0.6223 0.60424 0.98105 0.0
C25 C 0.6633 0.6729 0.02751 0.0
O26 O 0.67416 0.66825 0.0337 0.0
C27 C 0.63829 0.61354 0.04384 0.0
Zn28 Zn 0.34997 0.96955 0.02612 0.0
Zn29 Zn 0.3556 0.00119 0.02416 0.0
O30 O 0.32982 0.98611 0.03207 0.0
O31 O 0.32513 0.96013 0.03353 0.0
O32 O 0.3583 0.02406 0.01805 0.0
O33 O 0.3566 0.97003 0.99494 0.0
O34 O 0.36317 0.99666 0.99463 0.0
C35 C 0.31965 0.97021 0.03519 0.0
C36 C 0.37602 0.99385 0.05711 0.0
O37 O 0.37229 0.00447 0.0494 0.0
O38 O 0.36851 0.97877 0.04971 0.0
C39 C 0.34971 0.02961 0.02724 0.0
O40 O 0.33937 0.02085 0.04324 0.0
C41 C 0.3626 0.98409 0.98513 0.0
Zn42 Zn 0.04554 0.65319 0.01023 0.0
Zn43 Zn 0.01348 0.64768 0.00835 0.0
O44 O 0.02934 0.6733 0.01503 0.0
O45 O 0.05578 0.67825 0.0161 0.0
O46 O 0.99038 0.64553 0.00319 0.0
O47 O 0.04354 0.64433 0.97981 0.0
O48 O 0.01674 0.6384 0.97926 0.0
C49 C 0.04549 0.68357 0.01775 0.0
C50 C 0.02187 0.62953 0.04301 0.0
O51 O 0.01087 0.63269 0.03475 0.0
O52 O 0.03693 0.63642 0.03527 0.0
C53 C 0.98594 0.65478 0.013 0.0
O54 O 0.99595 0.66506 0.02857 0.0
C55 C 0.02908 0.63802 0.97014 0.0
Zn56 Zn 0.34977 0.38972 0.02819 0.0
Zn57 Zn 0.35106 0.36292 0.01532 0.0
O58 O 0.32562 0.35335 0.02446 0.0
O59 O 0.32425 0.37596 0.03214 0.0
O60 O 0.34965 0.34156 0.00411 0.0
O61 O 0.35899 0.40127 0.99965 0.0
O62 O 0.35974 0.37898 0.98845 0.0
C63 C 0.31693 0.35999 0.03006 0.0
C64 C 0.3726 0.38355 0.05471 0.0
O65 O 0.36859 0.3716 0.04107 0.0
O66 O 0.36593 0.39266 0.05298 0.0
C67 C 0.36153 0.33814 0.00499 0.0
O68 O 0.37647 0.34914 0.014 0.0
C69 C 0.36218 0.39376 0.98493 0.0
Zn70 Zn 0.64993 0.0318 0.00305 0.0
Zn71 Zn 0.64454 0.00092 0.01091 0.0
O72 O 0.67062 0.01591 0.00417 0.0
O73 O 0.67546 0.0419 0.00148 0.0
O74 O 0.6423 0.9787 0.0195 0.0
O75 O 0.6392 0.03181 0.03152 0.0
O76 O 0.63597 0.00685 0.03853 0.0
C77 C 0.68102 0.03183 0.00146 0.0
C78 C 0.62712 0.00601 0.97163 0.0
O79 O 0.62857 0.99571 0.98414 0.0
O80 O 0.63532 0.02181 0.9758 0.0
C81 C 0.64867 0.97168 0.00844 0.0
O82 O 0.65606 0.97848 0.98983 0.0
C83 C 0.6344 0.01929 0.04421 0.0
Zn84 Zn 0.62794 0.69136 0.34598 0.0
Zn85 Zn 0.65874 0.69419 0.35211 0.0
O86 O 0.64208 0.66897 0.34404 0.0
O87 O 0.61673 0.66626 0.33918 0.0
O88 O 0.68078 0.69477 0.35961 0.0
O89 O 0.62839 0.69944 0.37653 0.0
O90 O 0.65424 0.70316 0.38063 0.0
C91 C 0.62608 0.65978 0.33928 0.0
C92 C 0.65492 0.71491 0.31633 0.0
O93 O 0.6643 0.71027 0.32603 0.0
O94 O 0.63944 0.70895 0.32207 0.0
C95 C 0.68518 0.6854 0.35005 0.0
O96 O 0.67576 0.67583 0.33362 0.0
C97 C 0.64184 0.70434 0.38806 0.0
Zn98 Zn 0.31194 0.94617 0.32767 0.0
Zn99 Zn 0.31318 0.97369 0.34347 0.0
O100 O 0.33804 0.98237 0.33277 0.0
O101 O 0.33657 0.95968 0.31866 0.0
O102 O 0.31586 0.9952 0.35614 0.0
O103 O 0.30544 0.93511 0.35716 0.0
O104 O 0.30507 0.95726 0.36975 0.0
C105 C 0.34515 0.97543 0.323 0.0
C106 C 0.28876 0.95388 0.30534 0.0
O107 O 0.2948 0.96631 0.31873 0.0
O108 O 0.29389 0.94346 0.30611 0.0
C109 C 0.3039 0.99847 0.35724 0.0
O110 O 0.28844 0.98732 0.34968 0.0
C111 C 0.30291 0.94254 0.37265 0.0
Zn112 Zn 0.02741 0.31019 0.37033 0.0
Zn113 Zn 0.02815 0.33854 0.3592 0.0
O114 O 0.00282 0.32229 0.36848 0.0
O115 O 0.00186 0.29817 0.37424 0.0
O116 O 0.0283 0.3594 0.34861 0.0
O117 O 0.03684 0.3091 0.34135 0.0
O118 O 0.03567 0.3315 0.33157 0.0
C119 C 0.99434 0.30651 0.37332 0.0
C120 C 0.04985 0.33888 0.39788 0.0
O121 O 0.04593 0.34707 0.38458 0.0
O122 O 0.04323 0.32297 0.39567 0.0
C123 C 0.02082 0.36591 0.35833 0.0
O124 O 0.01294 0.35921 0.37675 0.0
C125 C 0.03882 0.31988 0.32702 0.0
Zn126 Zn 0.71074 0.981 0.3432 0.0
Zn127 Zn 0.67979 0.97764 0.33929 0.0
O128 O 0.69636 0.00293 0.34738 0.0
O129 O 0.72198 0.00596 0.35021 0.0
O130 O 0.65755 0.97691 0.33275 0.0
O131 O 0.70985 0.97314 0.31255 0.0
O132 O 0.68368 0.96884 0.31015 0.0
C133 C 0.71251 0.01225 0.35127 0.0
C134 C 0.68514 0.95731 0.37412 0.0
O135 O 0.67516 0.9616 0.36531 0.0
O136 O 0.70039 0.96354 0.3673 0.0
C137 C 0.65289 0.98567 0.34332 0.0
O138 O 0.66209 0.9945 0.36033 0.0
C139 C 0.69601 0.96801 0.30179 0.0
Zn140 Zn 0.01661 0.7253 0.36111 0.0
Zn141 Zn 0.01801 0.69818 0.35002 0.0
O142 O 0.99264 0.68866 0.3593 0.0
O143 O 0.99109 0.71139 0.36527 0.0
O144 O 0.01695 0.67677 0.33989 0.0
O145 O 0.0258 0.73615 0.33215 0.0
O146 O 0.02642 0.71347 0.32252 0.0
C147 C 0.98388 0.69538 0.36421 0.0
C148 C 0.03964 0.71994 0.38855 0.0
O149 O 0.03567 0.70763 0.37554 0.0
O150 O 0.03287 0.72891 0.38611 0.0
C151 C 0.02954 0.67437 0.33993 0.0
O152 O 0.04468 0.68642 0.34735 0.0
C153 C 0.0289 0.72815 0.31806 0.0
Zn154 Zn 0.31236 0.36439 0.33561 0.0
Zn155 Zn 0.31031 0.33495 0.34369 0.0
O156 O 0.33589 0.35136 0.33525 0.0
O157 O 0.33787 0.37616 0.33216 0.0
O158 O 0.31003 0.31383 0.35323 0.0
O159 O 0.30275 0.3646 0.36482 0.0
O160 O 0.30167 0.34056 0.37152 0.0
C161 C 0.34488 0.36736 0.33178 0.0
C162 C 0.29015 0.33705 0.3054 0.0
O163 O 0.29335 0.32777 0.31765 0.0
O164 O 0.29693 0.35278 0.30937 0.0
C165 C 0.31675 0.30688 0.34276 0.0
O166 O 0.32372 0.3131 0.32376 0.0
C167 C 0.29931 0.35242 0.37757 0.0
Zn168 Zn 0.2911 0.01988 0.68127 0.0
Zn169 Zn 0.32282 0.02482 0.68718 0.0
O170 O 0.30685 0.99924 0.68021 0.0
O171 O 0.28054 0.99454 0.67766 0.0
O172 O 0.34541 0.02643 0.69433 0.0
O173 O 0.29246 0.03026 0.71074 0.0
O174 O 0.31835 0.03416 0.71526 0.0
C175 C 0.29073 0.98904 0.67704 0.0
C176 C 0.31666 0.04224 0.64921 0.0
O177 O 0.32723 0.04001 0.66045 0.0
O178 O 0.30096 0.03501 0.65465 0.0
C179 C 0.35001 0.01726 0.68465 0.0
O180 O 0.34052 0.00749 0.66841 0.0
C181 C 0.30601 0.0356 0.72225 0.0
Zn182 Zn 0.9837 0.27916 0.66997 0.0
Zn183 Zn 0.98099 0.30535 0.68124 0.0
O184 O 0.00677 0.31594 0.67266 0.0
O185 O 0.00918 0.29373 0.66643 0.0
O186 O 0.9803 0.32598 0.69099 0.0
O187 O 0.97446 0.26784 0.6986 0.0
O188 O 0.97258 0.28976 0.70858 0.0
C189 C 0.01598 0.30967 0.66787 0.0
C190 C 0.96036 0.28345 0.64211 0.0
O191 O 0.96376 0.29553 0.65526 0.0
O192 O 0.96761 0.27493 0.6446 0.0
C193 C 0.99155 0.33595 0.70485 0.0
O194 O 0.00293 0.33235 0.71226 0.0
C195 C 0.97069 0.27527 0.71277 0.0
Zn196 Zn 0.68266 0.63673 0.69722 0.0
Zn197 Zn 0.68766 0.66741 0.68866 0.0
O198 O 0.66186 0.65273 0.69675 0.0
O199 O 0.65722 0.62685 0.70012 0.0
O200 O 0.68988 0.68951 0.67933 0.0
O201 O 0.69239 0.63598 0.66826 0.0
O202 O 0.69489 0.66054 0.66067 0.0
C203 C 0.65161 0.63687 0.70014 0.0
C204 C 0.70666 0.66321 0.72702 0.0
O205 O 0.70469 0.67319 0.7145 0.0
O206 O 0.69828 0.64731 0.72349 0.0
C207 C 0.68312 0.69656 0.6895 0.0
O208 O 0.67523 0.68993 0.70793 0.0
C209 C 0.69642 0.64807 0.65508 0.0
Zn210 Zn 0.37558 0.31781 0.68175 0.0
Zn211 Zn 0.34347 0.31177 0.67744 0.0
O212 O 0.35935 0.33759 0.68347 0.0
O213 O 0.38598 0.34307 0.6845 0.0
O214 O 0.32055 0.30989 0.67153 0.0
O215 O 0.37368 0.307 0.6526 0.0
O216 O 0.34735 0.30215 0.64909 0.0
C217 C 0.3755 0.34818 0.68562 0.0
C218 C 0.35156 0.29556 0.71513 0.0
O219 O 0.34025 0.29699 0.70441 0.0
O220 O 0.3671 0.30329 0.7089 0.0
C221 C 0.31633 0.319 0.68213 0.0
O222 O 0.32625 0.32839 0.69836 0.0
C223 C 0.3598 0.30108 0.64166 0.0
Zn224 Zn 0.68647 0.0585 0.6929 0.0
Zn225 Zn 0.68696 0.03104 0.682 0.0
O226 O 0.66126 0.02177 0.68973 0.0
O227 O 0.66082 0.04522 0.69482 0.0
O228 O 0.68659 0.01003 0.67152 0.0
O229 O 0.69712 0.07012 0.66488 0.0
O230 O 0.69626 0.04676 0.65487 0.0
C231 C 0.65297 0.02917 0.69358 0.0
C232 C 0.70746 0.05176 0.72194 0.0
O233 O 0.70377 0.03973 0.70855 0.0
O234 O 0.70118 0.06113 0.71918 0.0
C235 C 0.67783 0.99558 0.68064 0.0
O236 O 0.66907 0.99417 0.69818 0.0
C237 C 0.69972 0.06182 0.65069 0.0
Zn238 Zn 0.98299 0.69937 0.67047 0.0
Zn239 Zn 0.97937 0.66873 0.67465 0.0
O240 O 0.00447 0.68459 0.66427 0.0
O241 O 0.0074 0.70977 0.66079 0.0
O242 O 0.97864 0.64675 0.68072 0.0
O243 O 0.97841 0.70016 0.70216 0.0
O244 O 0.973 0.67393 0.70468 0.0
C245 C 0.01368 0.70035 0.65957 0.0
C246 C 0.95592 0.67278 0.64286 0.0
O247 O 0.96091 0.66324 0.65095 0.0
O248 O 0.9631 0.68821 0.64881 0.0
C249 C 0.99066 0.64811 0.69308 0.0
O250 O 0.00231 0.66325 0.70053 0.0
C251 C 0.97369 0.68687 0.71328 0.0
H252 H 0.14087 0.33629 0.18395 0.0
H253 H 0.12059 0.3382 0.20742 0.0
H254 H 0.07803 0.29684 0.17194 0.0
H255 H 0.0986 0.29464 0.14881 0.0
H256 H 0.14508 0.31013 0.18179 0.0
H257 H 0.13098 0.34136 0.13342 0.0
H258 H 0.11211 0.34774 0.11236 0.0
H259 H 0.09562 0.30289 0.07295 0.0
H260 H 0.11398 0.29614 0.09489 0.0
H261 H 0.15852 0.29094 0.0971 0.0
H262 H 0.18276 0.29292 0.07709 0.0
H263 H 0.21855 0.33494 0.11806 0.0
H264 H 0.19447 0.33347 0.13729 0.0
H265 H 0.14851 0.31344 0.1013 0.0
H266 H 0.17121 0.2881 0.15313 0.0
H267 H 0.1946 0.28967 0.17562 0.0
H268 H 0.19987 0.33326 0.20939 0.0
H269 H 0.1773 0.33213 0.1865 0.0
C270 C 0.12126 0.31526 0.16472 0.0
C271 C 0.12717 0.32771 0.18109 0.0
C272 C 0.11552 0.32892 0.19436 0.0
C273 C 0.09765 0.31769 0.19157 0.0
C274 C 0.09172 0.30558 0.17463 0.0
C275 C 0.10344 0.30438 0.16131 0.0
C276 C 0.13395 0.31318 0.15231 0.0
C277 C 0.14587 0.31089 0.16417 0.0
C278 C 0.13481 0.31401 0.12933 0.0
C279 C 0.12362 0.31806 0.11605 0.0
C280 C 0.12313 0.33277 0.12043 0.0
C281 C 0.1125 0.33654 0.10813 0.0
C282 C 0.1023 0.32583 0.09093 0.0
C283 C 0.10309 0.31128 0.08628 0.0
C284 C 0.11367 0.30746 0.0987 0.0
C285 C 0.17466 0.31179 0.11905 0.0
C286 C 0.17159 0.30057 0.10176 0.0
C287 C 0.1854 0.30167 0.0904 0.0
C288 C 0.20248 0.31389 0.09631 0.0
C289 C 0.20551 0.32515 0.11352 0.0
C290 C 0.19175 0.32428 0.12455 0.0
C291 C 0.16004 0.31089 0.13088 0.0
C292 C 0.14756 0.31235 0.11888 0.0
C293 C 0.15916 0.31015 0.15391 0.0
C294 C 0.1726 0.3101 0.16796 0.0
C295 C 0.17749 0.29802 0.16533 0.0
C296 C 0.19075 0.29885 0.17829 0.0
C297 C 0.19925 0.31173 0.1941 0.0
C298 C 0.1939 0.32342 0.19705 0.0
C299 C 0.18082 0.32266 0.18411 0.0
H300 H 0.70945 0.87888 0.16139 0.0
H301 H 0.71036 0.90158 0.18295 0.0
H302 H 0.65718 0.88299 0.16546 0.0
H303 H 0.65632 0.86013 0.144 0.0
H304 H 0.68753 0.84441 0.16914 0.0
H305 H 0.69968 0.88437 0.11164 0.0
H306 H 0.69402 0.90394 0.09143 0.0
H307 H 0.64438 0.86169 0.07089 0.0
H308 H 0.65 0.84215 0.09144 0.0
H309 H 0.65331 0.80036 0.09454 0.0
H310 H 0.65122 0.77541 0.07738 0.0
H311 H 0.70173 0.79032 0.10302 0.0
H312 H 0.70379 0.81529 0.12003 0.0
H313 H 0.67382 0.83334 0.09033 0.0
H314 H 0.66053 0.79339 0.14729 0.0
H315 H 0.66128 0.77448 0.17479 0.0
H316 H 0.70992 0.81588 0.19932 0.0
H317 H 0.70942 0.83468 0.17138 0.0
C318 C 0.68285 0.86787 0.15106 0.0
C319 C 0.69805 0.8798 0.16202 0.0
C320 C 0.69858 0.89284 0.17419 0.0
C321 C 0.68385 0.8941 0.17585 0.0
C322 C 0.6687 0.88229 0.16455 0.0
C323 C 0.66822 0.8693 0.1522 0.0
C324 C 0.68209 0.85336 0.13955 0.0
C325 C 0.6849 0.84212 0.15181 0.0
C326 C 0.67794 0.85013 0.11713 0.0
C327 C 0.67513 0.86182 0.10339 0.0
C328 C 0.68754 0.87931 0.10286 0.0
C329 C 0.6843 0.89049 0.0913 0.0
C330 C 0.66868 0.88437 0.07976 0.0
C331 C 0.65656 0.86676 0.07955 0.0
C332 C 0.65975 0.85559 0.09129 0.0
C333 C 0.67861 0.8096 0.10881 0.0
C334 C 0.664 0.79834 0.09631 0.0
C335 C 0.66283 0.78409 0.08648 0.0
C336 C 0.67627 0.78083 0.08895 0.0
C337 C 0.69104 0.79232 0.10112 0.0
C338 C 0.69223 0.8066 0.11084 0.0
C339 C 0.67952 0.82437 0.11992 0.0
C340 C 0.67668 0.83565 0.10761 0.0
C341 C 0.68348 0.82756 0.14243 0.0
C342 C 0.68497 0.81547 0.15713 0.0
C343 C 0.67165 0.79829 0.15809 0.0
C344 C 0.67206 0.78749 0.17385 0.0
C345 C 0.68564 0.79375 0.18921 0.0
C346 C 0.69925 0.81077 0.18776 0.0
C347 C 0.69896 0.8215 0.17182 0.0
H348 H 0.10333 0.84197 0.1771 0.0
H349 H 0.08344 0.81836 0.20036 0.0
H350 H 0.10407 0.78841 0.17684 0.0
H351 H 0.12428 0.81228 0.15409 0.0
H352 H 0.13901 0.85879 0.18023 0.0
H353 H 0.09465 0.82401 0.12424 0.0
H354 H 0.07732 0.79822 0.10213 0.0
H355 H 0.12403 0.80099 0.08151 0.0
H356 H 0.14111 0.82651 0.10342 0.0
H357 H 0.17628 0.86617 0.1026 0.0
H358 H 0.2017 0.88715 0.08308 0.0
H359 H 0.19671 0.92751 0.11043 0.0
H360 H 0.17073 0.90624 0.12976 0.0
H361 H 0.14492 0.85648 0.10046 0.0
H362 H 0.1879 0.88052 0.15469 0.0
H363 H 0.21071 0.90117 0.17868 0.0
H364 H 0.17519 0.91365 0.20652 0.0
H365 H 0.15227 0.89291 0.18209 0.0
C366 C 0.11514 0.82882 0.16369 0.0
C367 C 0.10343 0.83025 0.1768 0.0
C368 C 0.09199 0.81669 0.18996 0.0
C369 C 0.09213 0.80146 0.1904 0.0
C370 C 0.10371 0.79999 0.17698 0.0
C371 C 0.11515 0.81356 0.16381 0.0
C372 C 0.12818 0.84371 0.15115 0.0
C373 C 0.14009 0.85849 0.16269 0.0
C374 C 0.13008 0.84293 0.12845 0.0
C375 C 0.11919 0.82722 0.11545 0.0
C376 C 0.1011 0.81899 0.115 0.0
C377 C 0.09123 0.80428 0.10236 0.0
C378 C 0.09932 0.79768 0.08986 0.0
C379 C 0.11741 0.80594 0.09052 0.0
C380 C 0.1272 0.82052 0.10313 0.0
C381 C 0.1715 0.88456 0.11763 0.0
C382 C 0.18041 0.87949 0.10418 0.0
C383 C 0.19497 0.89152 0.09299 0.0
C384 C 0.20107 0.90896 0.09505 0.0
C385 C 0.19226 0.91414 0.10857 0.0
C386 C 0.17747 0.90201 0.11963 0.0
C387 C 0.15614 0.87137 0.12958 0.0
C388 C 0.14364 0.85702 0.11793 0.0
C389 C 0.15443 0.87205 0.15237 0.0
C390 C 0.16844 0.88541 0.16623 0.0
C391 C 0.18508 0.88797 0.16555 0.0
C392 C 0.19814 0.89982 0.17931 0.0
C393 C 0.19482 0.90921 0.19435 0.0
C394 C 0.17814 0.90661 0.1951 0.0
C395 C 0.16506 0.8948 0.18115 0.0
H396 H 0.30023 0.17587 0.85916 0.0
H397 H 0.30258 0.19661 0.83202 0.0
H398 H 0.35511 0.23147 0.85314 0.0
H399 H 0.35283 0.21067 0.8798 0.0
H400 H 0.31919 0.16108 0.85937 0.0
H401 H 0.30878 0.19393 0.90973 0.0
H402 H 0.31414 0.22021 0.92674 0.0
H403 H 0.36416 0.23085 0.94907 0.0
H404 H 0.35861 0.20441 0.9322 0.0
H405 H 0.35697 0.16126 0.9359 0.0
H406 H 0.36112 0.14159 0.95811 0.0
H407 H 0.31086 0.1002 0.93767 0.0
H408 H 0.30643 0.12013 0.91641 0.0
H409 H 0.33545 0.17174 0.9376 0.0
H410 H 0.3478 0.14158 0.88341 0.0
H411 H 0.34507 0.11862 0.86037 0.0
H412 H 0.29309 0.10475 0.84271 0.0
H413 H 0.2958 0.12743 0.86607 0.0
C414 C 0.32632 0.19175 0.8716 0.0
C415 C 0.31216 0.18808 0.85811 0.0
C416 C 0.31349 0.19995 0.8427 0.0
C417 C 0.32907 0.2156 0.84037 0.0
C418 C 0.343 0.21944 0.85441 0.0
C419 C 0.34166 0.20763 0.86981 0.0
C420 C 0.32573 0.1785 0.8861 0.0
C421 C 0.32232 0.1632 0.87662 0.0
C422 C 0.33034 0.18156 0.90843 0.0
C423 C 0.33335 0.19724 0.91951 0.0
C424 C 0.32092 0.20194 0.91825 0.0
C425 C 0.32403 0.21702 0.92793 0.0
C426 C 0.33964 0.22774 0.93917 0.0
C427 C 0.35193 0.22283 0.94076 0.0
C428 C 0.3488 0.20772 0.93108 0.0
C429 C 0.33147 0.14218 0.92426 0.0
C430 C 0.34678 0.14797 0.93633 0.0
C431 C 0.34921 0.13665 0.94887 0.0
C432 C 0.33638 0.11925 0.94961 0.0
C433 C 0.32096 0.11352 0.93769 0.0
C434 C 0.31849 0.12488 0.92526 0.0
C435 C 0.32913 0.15432 0.91077 0.0
C436 C 0.33201 0.16945 0.92045 0.0
C437 C 0.32414 0.15116 0.88853 0.0
C438 C 0.32195 0.13615 0.87658 0.0
C439 C 0.3357 0.13335 0.87494 0.0
C440 C 0.33417 0.12033 0.8616 0.0
C441 C 0.31888 0.10987 0.84965 0.0
C442 C 0.30497 0.1124 0.85189 0.0
C443 C 0.30653 0.12544 0.86514 0.0
H444 H 0.84146 0.11075 0.84924 0.0
H445 H 0.8175 0.09342 0.82381 0.0
H446 H 0.78603 0.10852 0.85731 0.0
H447 H 0.80997 0.12607 0.88209 0.0
H448 H 0.85743 0.14466 0.85259 0.0
H449 H 0.82712 0.0982 0.90273 0.0
H450 H 0.80219 0.07667 0.92334 0.0
H451 H 0.79844 0.1166 0.95445 0.0
H452 H 0.82291 0.13788 0.93374 0.0
H453 H 0.85702 0.17805 0.92774 0.0
H454 H 0.87398 0.20455 0.9478 0.0
H455 H 0.92092 0.2077 0.92741 0.0
H456 H 0.90367 0.1806 0.90763 0.0
H457 H 0.85405 0.14821 0.93263 0.0
H458 H 0.87401 0.1914 0.87532 0.0
H459 H 0.8936 0.21344 0.8499 0.0
H460 H 0.91403 0.18204 0.8319 0.0
H461 H 0.89423 0.16001 0.85701 0.0
C462 C 0.82749 0.11958 0.86774 0.0
C463 C 0.82929 0.11008 0.85129 0.0
C464 C 0.81558 0.10013 0.83685 0.0
C465 C 0.79994 0.09973 0.83848 0.0
C466 C 0.79799 0.10872 0.85549 0.0
C467 C 0.81162 0.11861 0.86986 0.0
C468 C 0.84256 0.13209 0.88109 0.0
C469 C 0.85689 0.14517 0.87019 0.0
C470 C 0.84176 0.13295 0.90402 0.0
C471 C 0.82695 0.11969 0.91668 0.0
C472 C 0.82088 0.10229 0.91396 0.0
C473 C 0.80669 0.09001 0.92577 0.0
C474 C 0.79851 0.09497 0.94069 0.0
C475 C 0.80471 0.11239 0.94345 0.0
C476 C 0.81871 0.12458 0.93157 0.0
C477 C 0.87904 0.17733 0.91611 0.0
C478 C 0.87096 0.18433 0.92766 0.0
C479 C 0.88069 0.1996 0.93897 0.0
C480 C 0.89881 0.20833 0.939 0.0
C481 C 0.90698 0.20122 0.92771 0.0
C482 C 0.89715 0.18584 0.9163 0.0
C483 C 0.86813 0.1612 0.90394 0.0
C484 C 0.85477 0.14736 0.91511 0.0
C485 C 0.86949 0.15988 0.88124 0.0
C486 C 0.88275 0.17412 0.86808 0.0
C487 C 0.88296 0.18944 0.86618 0.0
C488 C 0.89417 0.20203 0.85167 0.0
C489 C 0.90526 0.19943 0.83871 0.0
C490 C 0.90544 0.18432 0.84134 0.0
C491 C 0.89422 0.17175 0.85577 0.0
H492 H 0.82601 0.66881 0.83804 0.0
H493 H 0.80352 0.66752 0.8147 0.0
H494 H 0.80496 0.70797 0.85198 0.0
H495 H 0.82827 0.70982 0.87472 0.0
H496 H 0.85765 0.69078 0.84612 0.0
H497 H 0.80733 0.66123 0.88886 0.0
H498 H 0.78074 0.65678 0.90437 0.0
H499 H 0.81009 0.70312 0.94191 0.0
H500 H 0.83686 0.70737 0.92639 0.0
H501 H 0.88638 0.704 0.93401 0.0
H502 H 0.90533 0.69771 0.95564 0.0
H503 H 0.88856 0.65248 0.91699 0.0
H504 H 0.86974 0.6588 0.89562 0.0
H505 H 0.85038 0.68474 0.92622 0.0
H506 H 0.90261 0.71024 0.87934 0.0
H507 H 0.92527 0.70994 0.8582 0.0
H508 H 0.88674 0.66298 0.82738 0.0
H509 H 0.8642 0.66351 0.84814 0.0
C510 C 0.82876 0.68929 0.85832 0.0
C511 C 0.8217 0.67759 0.84105 0.0
C512 C 0.80866 0.67673 0.82785 0.0
C513 C 0.80221 0.68745 0.83167 0.0
C514 C 0.80964 0.69955 0.84856 0.0
C515 C 0.82285 0.7005 0.86171 0.0
C516 C 0.84189 0.68921 0.873 0.0
C517 C 0.85604 0.68952 0.86364 0.0
C518 C 0.83991 0.68759 0.89589 0.0
C519 C 0.82401 0.68475 0.90626 0.0
C520 C 0.80804 0.67046 0.9004 0.0
C521 C 0.79284 0.668 0.90918 0.0
C522 C 0.79326 0.67976 0.92411 0.0
C523 C 0.80934 0.69384 0.93046 0.0
C524 C 0.82462 0.69629 0.92162 0.0
C525 C 0.87695 0.68208 0.91291 0.0
C526 C 0.88678 0.69271 0.9303 0.0
C527 C 0.89753 0.68907 0.94267 0.0
C528 C 0.89858 0.67469 0.93786 0.0
C529 C 0.88833 0.66384 0.92081 0.0
C530 C 0.87758 0.66745 0.90857 0.0
C531 C 0.86595 0.68607 0.8992 0.0
C532 C 0.85223 0.68652 0.90878 0.0
C533 C 0.86789 0.6877 0.87638 0.0
C534 C 0.88178 0.68694 0.86516 0.0
C535 C 0.89912 0.69982 0.86818 0.0
C536 C 0.912 0.69963 0.85615 0.0
C537 C 0.90771 0.6864 0.84127 0.0
C538 C 0.8904 0.67321 0.83893 0.0
C539 C 0.87753 0.67357 0.85062 0.0
H540 H 0.80611 0.66996 0.5199 0.0
H541 H 0.78477 0.67088 0.54234 0.0
H542 H 0.74391 0.63158 0.50247 0.0
H543 H 0.76551 0.63023 0.48052 0.0
H544 H 0.81085 0.64458 0.51653 0.0
H545 H 0.79922 0.67755 0.46836 0.0
H546 H 0.78092 0.68476 0.4473 0.0
H547 H 0.76358 0.6401 0.40726 0.0
H548 H 0.78192 0.63287 0.42857 0.0
H549 H 0.82587 0.62675 0.43212 0.0
H550 H 0.85018 0.62869 0.4124 0.0
H551 H 0.88582 0.66934 0.45521 0.0
H552 H 0.86168 0.66786 0.47425 0.0
H553 H 0.81667 0.64967 0.43633 0.0
H554 H 0.83682 0.62232 0.48945 0.0
H555 H 0.85725 0.62145 0.51544 0.0
H556 H 0.86357 0.66595 0.54785 0.0
H557 H 0.84355 0.66688 0.52206 0.0
C558 C 0.78743 0.64996 0.49861 0.0
C559 C 0.79256 0.6616 0.51589 0.0
C560 C 0.7803 0.66226 0.52856 0.0
C561 C 0.76258 0.65131 0.52423 0.0
C562 C 0.75745 0.64006 0.5064 0.0
C563 C 0.76977 0.63937 0.49372 0.0
C564 C 0.80065 0.64837 0.48671 0.0
C565 C 0.81219 0.64577 0.49897 0.0
C566 C 0.80228 0.64982 0.46383 0.0
C567 C 0.79167 0.65448 0.45032 0.0
C568 C 0.79139 0.66923 0.45515 0.0
C569 C 0.78093 0.67335 0.44309 0.0
C570 C 0.77068 0.66291 0.42575 0.0
C571 C 0.7714 0.64843 0.42046 0.0
C572 C 0.78182 0.64426 0.43265 0.0
C573 C 0.84191 0.64691 0.45498 0.0
C574 C 0.83893 0.63603 0.4373 0.0
C575 C 0.85278 0.63712 0.42608 0.0
C576 C 0.86984 0.649 0.4325 0.0
C577 C 0.8728 0.65981 0.45024 0.0
C578 C 0.85899 0.65892 0.46118 0.0
C579 C 0.82722 0.64626 0.46628 0.0
C580 C 0.81522 0.64822 0.45384 0.0
C581 C 0.82573 0.64517 0.48923 0.0
C582 C 0.83856 0.64461 0.5039 0.0
C583 C 0.84274 0.63194 0.50208 0.0
C584 C 0.85437 0.63144 0.5169 0.0
C585 C 0.86175 0.64345 0.53388 0.0
C586 C 0.85778 0.65627 0.53528 0.0
C587 C 0.84636 0.65684 0.5205 0.0
H588 H 0.37206 0.20908 0.50076 0.0
H589 H 0.37396 0.23163 0.52374 0.0
H590 H 0.32167 0.21624 0.5055 0.0
H591 H 0.31977 0.1935 0.48278 0.0
H592 H 0.34967 0.17512 0.5065 0.0
H593 H 0.36262 0.21624 0.45074 0.0
H594 H 0.35881 0.23694 0.43029 0.0
H595 H 0.3082 0.19675 0.40918 0.0
H596 H 0.31194 0.1761 0.42996 0.0
H597 H 0.30951 0.13196 0.43481 0.0
H598 H 0.30364 0.10558 0.41746 0.0
H599 H 0.35457 0.11682 0.43636 0.0
H600 H 0.36023 0.14305 0.45392 0.0
H601 H 0.33306 0.16498 0.4283 0.0
H602 H 0.31716 0.12559 0.48685 0.0
H603 H 0.3168 0.10513 0.51248 0.0
H604 H 0.37017 0.14101 0.52947 0.0
H605 H 0.37028 0.1616 0.50398 0.0
C606 C 0.34582 0.19967 0.48997 0.0
C607 C 0.36108 0.21068 0.50154 0.0
C608 C 0.36217 0.22364 0.51454 0.0
C609 C 0.34796 0.22573 0.51642 0.0
C610 C 0.33279 0.21488 0.50449 0.0
C611 C 0.33174 0.20198 0.49137 0.0
C612 C 0.34423 0.18505 0.47772 0.0
C613 C 0.34642 0.1731 0.48927 0.0
C614 C 0.33941 0.18215 0.45542 0.0
C615 C 0.33745 0.19463 0.44219 0.0
C616 C 0.35064 0.21189 0.44186 0.0
C617 C 0.34847 0.2237 0.43014 0.0
C618 C 0.33317 0.21847 0.41823 0.0
C619 C 0.32018 0.20113 0.41806 0.0
C620 C 0.3223 0.18933 0.42995 0.0
C621 C 0.33525 0.13941 0.44583 0.0
C622 C 0.31945 0.12878 0.43508 0.0
C623 C 0.31613 0.11372 0.42512 0.0
C624 C 0.3286 0.10901 0.42558 0.0
C625 C 0.34455 0.11987 0.43603 0.0
C626 C 0.34784 0.13491 0.44602 0.0
C627 C 0.33843 0.15504 0.45716 0.0
C628 C 0.33656 0.16716 0.44544 0.0
C629 C 0.34335 0.15804 0.4794 0.0
C630 C 0.34378 0.14507 0.49338 0.0
C631 C 0.32888 0.12893 0.49578 0.0
C632 C 0.32873 0.11722 0.51044 0.0
C633 C 0.34348 0.12139 0.52307 0.0
C634 C 0.35853 0.13745 0.52022 0.0
C635 C 0.35864 0.1492 0.50559 0.0
H636 H 0.77188 0.17325 0.50679 0.0
H637 H 0.75211 0.14979 0.53031 0.0
H638 H 0.77284 0.1198 0.50721 0.0
H639 H 0.79299 0.14357 0.48433 0.0
H640 H 0.80805 0.18934 0.51087 0.0
H641 H 0.76366 0.15523 0.45338 0.0
H642 H 0.74681 0.12787 0.43406 0.0
H643 H 0.79416 0.13118 0.41536 0.0
H644 H 0.81076 0.15804 0.43487 0.0
H645 H 0.84583 0.19564 0.43529 0.0
H646 H 0.87362 0.21588 0.41954 0.0
H647 H 0.87045 0.25762 0.44569 0.0
H648 H 0.84223 0.23717 0.46134 0.0
H649 H 0.8146 0.18803 0.43106 0.0
H650 H 0.85535 0.20558 0.486 0.0
H651 H 0.87877 0.22235 0.51177 0.0
H652 H 0.84901 0.24155 0.54045 0.0
H653 H 0.82555 0.22491 0.514 0.0
C654 C 0.78373 0.16008 0.49361 0.0
C655 C 0.77198 0.16153 0.5066 0.0
C656 C 0.76062 0.14805 0.51992 0.0
C657 C 0.76085 0.13288 0.5206 0.0
C658 C 0.7724 0.13134 0.50718 0.0
C659 C 0.78379 0.14485 0.49391 0.0
C660 C 0.79696 0.17501 0.48133 0.0
C661 C 0.80917 0.18935 0.4933 0.0
C662 C 0.79906 0.17443 0.45863 0.0
C663 C 0.78847 0.15865 0.44566 0.0
C664 C 0.77036 0.15006 0.44502 0.0
C665 C 0.76077 0.13451 0.43391 0.0
C666 C 0.76919 0.12733 0.42342 0.0
C667 C 0.7873 0.13625 0.42358 0.0
C668 C 0.79682 0.15171 0.43455 0.0
C669 C 0.84194 0.21487 0.44954 0.0
C670 C 0.8509 0.20914 0.43734 0.0
C671 C 0.86687 0.22071 0.42852 0.0
C672 C 0.87423 0.23828 0.43162 0.0
C673 C 0.865 0.24412 0.44306 0.0
C674 C 0.84897 0.23248 0.45206 0.0
C675 C 0.82585 0.20222 0.46064 0.0
C676 C 0.81303 0.18843 0.44849 0.0
C677 C 0.82406 0.20251 0.48346 0.0
C678 C 0.8388 0.2142 0.49782 0.0
C679 C 0.85399 0.21372 0.49742 0.0
C680 C 0.8673 0.22316 0.51236 0.0
C681 C 0.86566 0.23315 0.52824 0.0
C682 C 0.85066 0.23404 0.52829 0.0
C683 C 0.83725 0.22452 0.51327 0.0
H684 H 0.97713 0.51403 0.18945 0.0
H685 H 0.97883 0.53427 0.16241 0.0
H686 H 0.02741 0.57319 0.19079 0.0
H687 H 0.02637 0.55249 0.2164 0.0
H688 H 0.99612 0.50159 0.19229 0.0
H689 H 0.98309 0.53228 0.24369 0.0
H690 H 0.98726 0.55789 0.26156 0.0
H691 H 0.03752 0.56976 0.28461 0.0
H692 H 0.0334 0.54429 0.26635 0.0
H693 H 0.03232 0.49984 0.26887 0.0
H694 H 0.03547 0.47921 0.29048 0.0
H695 H 0.98424 0.43954 0.27038 0.0
H696 H 0.98093 0.46036 0.24953 0.0
H697 H 0.01045 0.51108 0.2711 0.0
H698 H 0.02386 0.48151 0.21636 0.0
H699 H 0.02039 0.45763 0.19453 0.0
H700 H 0.96831 0.44385 0.17774 0.0
H701 H 0.97181 0.46757 0.19966 0.0
C702 C 0.00158 0.53166 0.20511 0.0
C703 C 0.98813 0.52695 0.1899 0.0
C704 C 0.98902 0.53865 0.17456 0.0
C705 C 0.00333 0.55543 0.1742 0.0
C706 C 0.01635 0.56032 0.19019 0.0
C707 C 0.01562 0.54853 0.20521 0.0
C708 C 0.0017 0.51859 0.21938 0.0
C709 C 0.99887 0.50355 0.20963 0.0
C710 C 0.00577 0.52127 0.24192 0.0
C711 C 0.00799 0.53643 0.25352 0.0
C712 C 0.99502 0.54041 0.25256 0.0
C713 C 0.99737 0.55498 0.26292 0.0
C714 C 0.01275 0.56588 0.27446 0.0
C715 C 0.02562 0.56174 0.27564 0.0
C716 C 0.02322 0.54711 0.26537 0.0
C717 C 0.00647 0.48162 0.25737 0.0
C718 C 0.02172 0.48672 0.26927 0.0
C719 C 0.02356 0.47488 0.28146 0.0
C720 C 0.01014 0.45768 0.28207 0.0
C721 C 0.99476 0.45269 0.27044 0.0
C722 C 0.99293 0.46455 0.2583 0.0
C723 C 0.00481 0.49416 0.24393 0.0
C724 C 0.00744 0.50909 0.25383 0.0
C725 C 0.00042 0.49136 0.22153 0.0
C726 C 0.99806 0.47625 0.2097 0.0
C727 C 0.01163 0.47318 0.20822 0.0
C728 C 0.00967 0.45961 0.19565 0.0
C729 C 0.99406 0.44884 0.18446 0.0
C730 C 0.9804 0.45176 0.1864 0.0
C731 C 0.98242 0.46538 0.19879 0.0
H732 H 0.50975 0.44921 0.17855 0.0
H733 H 0.4862 0.42889 0.1545 0.0
H734 H 0.45296 0.44478 0.18113 0.0
H735 H 0.4764 0.46491 0.20491 0.0
H736 H 0.52467 0.48426 0.1801 0.0
H737 H 0.49192 0.43668 0.23102 0.0
H738 H 0.46462 0.4161 0.24855 0.0
H739 H 0.46084 0.45771 0.274 0.0
H740 H 0.48761 0.47801 0.25619 0.0
H741 H 0.52513 0.51656 0.25788 0.0
H742 H 0.54327 0.5419 0.27959 0.0
H743 H 0.58852 0.54163 0.25926 0.0
H744 H 0.57008 0.51601 0.23725 0.0
H745 H 0.51923 0.48569 0.26009 0.0
H746 H 0.54613 0.53243 0.21113 0.0
H747 H 0.5681 0.55585 0.18998 0.0
H748 H 0.57751 0.52052 0.15559 0.0
H749 H 0.55716 0.49768 0.17885 0.0
C750 C 0.49474 0.45834 0.19383 0.0
C751 C 0.49733 0.44818 0.17928 0.0
C752 C 0.48389 0.43662 0.16552 0.0
C753 C 0.46764 0.43507 0.16605 0.0
C754 C 0.46516 0.44532 0.18065 0.0
C755 C 0.47857 0.45687 0.19428 0.0
C756 C 0.50911 0.47117 0.2078 0.0
C757 C 0.52379 0.48442 0.19768 0.0
C758 C 0.50754 0.4716 0.23062 0.0
C759 C 0.49174 0.45888 0.24219 0.0
C760 C 0.48518 0.44131 0.24041 0.0
C761 C 0.46968 0.42959 0.25052 0.0
C762 C 0.46054 0.43532 0.26242 0.0
C763 C 0.46744 0.45291 0.26463 0.0
C764 C 0.48284 0.46454 0.25463 0.0
C765 C 0.54621 0.51434 0.24594 0.0
C766 C 0.53893 0.52179 0.25827 0.0
C767 C 0.54935 0.53628 0.27077 0.0
C768 C 0.56735 0.54371 0.27135 0.0
C769 C 0.57469 0.53624 0.25907 0.0
C770 C 0.56419 0.5216 0.24653 0.0
C771 C 0.53467 0.49916 0.23238 0.0
C772 C 0.52054 0.48536 0.24259 0.0
C773 C 0.53641 0.49869 0.20953 0.0
C774 C 0.55025 0.51327 0.19713 0.0
C775 C 0.55343 0.52983 0.19968 0.0
C776 C 0.5658 0.54324 0.18707 0.0
C777 C 0.57476 0.5403 0.1708 0.0
C778 C 0.57138 0.52361 0.16822 0.0
C779 C 0.55947 0.51036 0.18136 0.0
H780 H 0.5562 0.0471 0.18931 0.0
H781 H 0.5764 0.04551 0.16506 0.0
H782 H 0.55868 0.99449 0.18765 0.0
H783 H 0.53821 0.99609 0.2117 0.0
H784 H 0.52031 0.02495 0.18687 0.0
H785 H 0.56725 0.03968 0.23951 0.0
H786 H 0.58688 0.03315 0.25874 0.0
H787 H 0.54314 0.98782 0.28533 0.0
H788 H 0.52363 0.99411 0.26547 0.0
H789 H 0.4864 0.0018 0.27066 0.0
H790 H 0.46237 0.0011 0.28902 0.0
H791 H 0.47228 0.04604 0.25393 0.0
H792 H 0.49672 0.04704 0.23599 0.0
H793 H 0.51873 0.02053 0.26737 0.0
H794 H 0.47206 0.00171 0.21938 0.0
H795 H 0.44879 0.99927 0.19659 0.0
H796 H 0.48603 0.04159 0.15769 0.0
H797 H 0.50912 0.04489 0.18182 0.0
C798 C 0.5458 0.02177 0.20237 0.0
C799 C 0.5568 0.03564 0.18919 0.0
C800 C 0.56842 0.03475 0.17547 0.0
C801 C 0.56919 0.01989 0.17449 0.0
C802 C 0.55833 0.00607 0.18797 0.0
C803 C 0.54673 0.00701 0.20181 0.0
C804 C 0.53264 0.02248 0.21554 0.0
C805 C 0.52012 0.02438 0.20452 0.0
C806 C 0.53188 0.0206 0.23843 0.0
C807 C 0.54396 0.01728 0.25085 0.0
C808 C 0.5619 0.02829 0.24939 0.0
C809 C 0.57311 0.02462 0.26057 0.0
C810 C 0.56658 0.00991 0.27352 0.0
C811 C 0.5486 0.9991 0.27524 0.0
C812 C 0.53743 0.00277 0.26406 0.0
C813 C 0.49322 0.0243 0.25164 0.0
C814 C 0.48371 0.01177 0.26728 0.0
C815 C 0.46998 0.01139 0.27781 0.0
C816 C 0.46543 0.02348 0.27281 0.0
C817 C 0.47544 0.03649 0.25793 0.0
C818 C 0.48934 0.03701 0.24762 0.0
C819 C 0.50652 0.0235 0.23875 0.0
C820 C 0.519 0.02145 0.24975 0.0
C821 C 0.50673 0.02438 0.21568 0.0
C822 C 0.49241 0.02365 0.20259 0.0
C823 C 0.47521 0.01083 0.20638 0.0
C824 C 0.46188 0.00925 0.19302 0.0
C825 C 0.46545 0.0201 0.17503 0.0
C826 C 0.48267 0.03313 0.1715 0.0
C827 C 0.49597 0.03492 0.18517 0.0
H828 H 0.47638 0.01346 0.84386 0.0
H829 H 0.45606 0.01627 0.86629 0.0
H830 H 0.4159 0.96511 0.84821 0.0
H831 H 0.43619 0.96301 0.82458 0.0
H832 H 0.48224 0.98407 0.84991 0.0
H833 H 0.46806 0.01448 0.80001 0.0
H834 H 0.44857 0.02033 0.77939 0.0
H835 H 0.42918 0.97328 0.74382 0.0
H836 H 0.44862 0.96734 0.76489 0.0
H837 H 0.49671 0.96428 0.76614 0.0
H838 H 0.52152 0.96854 0.74525 0.0
H839 H 0.5552 0.01302 0.78418 0.0
H840 H 0.53045 0.00912 0.80423 0.0
H841 H 0.48467 0.9862 0.76926 0.0
H842 H 0.50877 0.96243 0.81985 0.0
H843 H 0.53219 0.96382 0.84195 0.0
H844 H 0.53674 0.00637 0.87766 0.0
H845 H 0.51415 0.00548 0.85501 0.0
C846 C 0.45773 0.98803 0.83268 0.0
C847 C 0.46311 0.00297 0.84454 0.0
C848 C 0.45148 0.00447 0.85751 0.0
C849 C 0.43432 0.99082 0.85944 0.0
C850 C 0.4289 0.97599 0.847 0.0
C851 C 0.44049 0.97467 0.8336 0.0
C852 C 0.47052 0.98615 0.82041 0.0
C853 C 0.48282 0.98448 0.83226 0.0
C854 C 0.47106 0.98665 0.79745 0.0
C855 C 0.45946 0.99024 0.7844 0.0
C856 C 0.45942 0.00528 0.78803 0.0
C857 C 0.44833 0.00865 0.77617 0.0
C858 C 0.43722 0.99719 0.76014 0.0
C859 C 0.43763 0.98237 0.75603 0.0
C860 C 0.44867 0.97893 0.76808 0.0
C861 C 0.51175 0.98627 0.7869 0.0
C862 C 0.50947 0.9749 0.77016 0.0
C863 C 0.52366 0.97727 0.75837 0.0
C864 C 0.54031 0.99115 0.76301 0.0
C865 C 0.54252 0.00234 0.77999 0.0
C866 C 0.52839 1.00001 0.79166 0.0
C867 C 0.49676 0.98439 0.79879 0.0
C868 C 0.4839 0.98527 0.78687 0.0
C869 C 0.49615 0.98389 0.82185 0.0
C870 C 0.50978 0.98395 0.8356 0.0
C871 C 0.51494 0.97213 0.83234 0.0
C872 C 0.52821 0.97284 0.84511 0.0
C873 C 0.53648 0.98533 0.86143 0.0
C874 C 0.53095 0.99683 0.86494 0.0
C875 C 0.51784 0.99619 0.85214 0.0
H876 H 0.03411 0.53975 0.83517 0.0
H877 H 0.0369 0.56359 0.85619 0.0
H878 H 0.98469 0.54856 0.83812 0.0
H879 H 0.98197 0.52464 0.81708 0.0
H880 H 0.00956 0.50526 0.84296 0.0
H881 H 0.02666 0.54614 0.78516 0.0
H882 H 0.02398 0.56747 0.76475 0.0
H883 H 0.97271 0.52865 0.74351 0.0
H884 H 0.97527 0.50744 0.76473 0.0
H885 H 0.97578 0.4626 0.76633 0.0
H886 H 0.97365 0.43774 0.7487 0.0
H887 H 0.02221 0.45012 0.77861 0.0
H888 H 0.02458 0.47521 0.79535 0.0
H889 H 0.9976 0.49578 0.76359 0.0
H890 H 0.97838 0.45562 0.82093 0.0
H891 H 0.97607 0.43484 0.84776 0.0
H892 H 0.02739 0.47099 0.87171 0.0
H893 H 0.02972 0.49174 0.84461 0.0
C894 C 0.00787 0.53049 0.82453 0.0
C895 C 0.02333 0.5417 0.83557 0.0
C896 C 0.02493 0.55537 0.84743 0.0
C897 C 0.01102 0.55796 0.84874 0.0
C898 C 0.99559 0.54683 0.83745 0.0
C899 C 0.99406 0.53324 0.82536 0.0
C900 C 0.00596 0.51542 0.81313 0.0
C901 C 0.00727 0.50332 0.82553 0.0
C902 C 0.00223 0.51261 0.79058 0.0
C903 C 0.00107 0.52525 0.77673 0.0
C904 C 0.01483 0.54222 0.77614 0.0
C905 C 0.01334 0.55438 0.76425 0.0
C906 C 0.99811 0.54979 0.75249 0.0
C907 C 0.98452 0.53266 0.75261 0.0
C908 C 0.98602 0.52049 0.76457 0.0
C909 C 0.00025 0.4707 0.78236 0.0
C910 C 0.98602 0.46002 0.76892 0.0
C911 C 0.98475 0.44572 0.75902 0.0
C912 C 0.99773 0.44188 0.76226 0.0
C913 C 0.01206 0.45276 0.77551 0.0
C914 C 0.01334 0.46704 0.78533 0.0
C915 C 0.00147 0.48564 0.79342 0.0
C916 C 1.00001 0.49773 0.78099 0.0
C917 C 0.0048 0.48836 0.81609 0.0
C918 C 0.00424 0.47521 0.83072 0.0
C919 C 0.98927 0.45897 0.83165 0.0
C920 C 0.98792 0.44716 0.84709 0.0
C921 C 0.00151 0.45136 0.8619 0.0
C922 C 0.01676 0.46738 0.86041 0.0
C923 C 0.01807 0.47926 0.84504 0.0
H924 H 0.43596 0.50895 0.84 0.0
H925 H 0.41637 0.4868 0.86513 0.0
H926 H 0.43629 0.45529 0.84559 0.0
H927 H 0.4557 0.47746 0.82017 0.0
H928 H 0.47177 0.52436 0.84432 0.0
H929 H 0.42703 0.49003 0.78916 0.0
H930 H 0.40894 0.46428 0.76728 0.0
H931 H 0.45471 0.46562 0.74563 0.0
H932 H 0.47257 0.49105 0.76744 0.0
H933 H 0.50895 0.53162 0.76597 0.0
H934 H 0.53393 0.55289 0.74598 0.0
H935 H 0.52842 0.59273 0.77401 0.0
H936 H 0.50292 0.57119 0.79383 0.0
H937 H 0.47746 0.52135 0.76466 0.0
H938 H 0.52126 0.54691 0.8177 0.0
H939 H 0.54344 0.56615 0.84358 0.0
H940 H 0.5068 0.57596 0.87378 0.0
H941 H 0.48465 0.55702 0.84733 0.0
C942 C 0.44722 0.49482 0.82819 0.0
C943 C 0.43589 0.49714 0.84086 0.0
C944 C 0.42479 0.48452 0.85531 0.0
C945 C 0.42494 0.46937 0.85756 0.0
C946 C 0.43577 0.46674 0.84412 0.0
C947 C 0.44687 0.4794 0.8296 0.0
C948 C 0.46065 0.50924 0.81539 0.0
C949 C 0.47284 0.52394 0.82679 0.0
C950 C 0.46251 0.50817 0.79277 0.0
C951 C 0.45117 0.49248 0.77995 0.0
C952 C 0.43313 0.48469 0.7798 0.0
C953 C 0.42281 0.47002 0.76727 0.0
C954 C 0.43042 0.46306 0.75453 0.0
C955 C 0.44847 0.47088 0.75485 0.0
C956 C 0.4587 0.4854 0.7674 0.0
C957 C 0.50399 0.54976 0.78142 0.0
C958 C 0.51289 0.54489 0.76762 0.0
C959 C 0.52718 0.55707 0.75615 0.0
C960 C 0.53301 0.57445 0.75827 0.0
C961 C 0.52418 0.57941 0.77211 0.0
C962 C 0.50968 0.56713 0.78346 0.0
C963 C 0.48888 0.53646 0.7936 0.0
C964 C 0.47627 0.52204 0.78212 0.0
C965 C 0.48728 0.53731 0.81639 0.0
C966 C 0.50129 0.55067 0.8303 0.0
C967 C 0.5181 0.55364 0.82935 0.0
C968 C 0.53079 0.56462 0.84422 0.0
C969 C 0.52684 0.57256 0.86067 0.0
C970 C 0.51016 0.56995 0.8613 0.0
C971 C 0.49753 0.55915 0.8462 0.0
H972 H 0.63339 0.84119 0.52073 0.0
H973 H 0.636 0.8617 0.49349 0.0
H974 H 0.68357 0.90035 0.52422 0.0
H975 H 0.6816 0.87943 0.55021 0.0
H976 H 0.65283 0.82919 0.52425 0.0
H977 H 0.63782 0.85885 0.5745 0.0
H978 H 0.64105 0.88379 0.59311 0.0
H979 H 0.68963 0.89425 0.62086 0.0
H980 H 0.6866 0.86965 0.6016 0.0
H981 H 0.68736 0.82748 0.60267 0.0
H982 H 0.69152 0.80709 0.62341 0.0
H983 H 0.64216 0.76608 0.59997 0.0
H984 H 0.63793 0.78653 0.57955 0.0
H985 H 0.66457 0.83702 0.60369 0.0
H986 H 0.68119 0.81005 0.54904 0.0
H987 H 0.67947 0.78733 0.52635 0.0
H988 H 0.62751 0.77232 0.50692 0.0
H989 H 0.62925 0.79483 0.52976 0.0
C990 C 0.65727 0.85868 0.53763 0.0
C991 C 0.64432 0.85413 0.5217 0.0
C992 C 0.64575 0.86597 0.50622 0.0
C993 C 0.66009 0.88273 0.50642 0.0
C994 C 0.67252 0.8875 0.52319 0.0
C995 C 0.67125 0.87557 0.5384 0.0
C996 C 0.6571 0.84542 0.5518 0.0
C997 C 0.65499 0.83077 0.54172 0.0
C998 C 0.66044 0.84764 0.57453 0.0
C999 C 0.66205 0.86244 0.58645 0.0
C1000 C 0.64922 0.86657 0.58449 0.0
C1001 C 0.65101 0.88075 0.59532 0.0
C1002 C 0.66563 0.89107 0.60845 0.0
C1003 C 0.67833 0.88675 0.61064 0.0
C1004 C 0.67654 0.87257 0.5998 0.0
C1005 C 0.66245 0.80853 0.58927 0.0
C1006 C 0.67736 0.81412 0.60215 0.0
C1007 C 0.67971 0.80246 0.61402 0.0
C1008 C 0.66722 0.78497 0.6132 0.0
C1009 C 0.65214 0.77944 0.60064 0.0
C1010 C 0.64972 0.79112 0.58894 0.0
C1011 C 0.66037 0.82093 0.57603 0.0
C1012 C 0.66212 0.8354 0.58628 0.0
C1013 C 0.65667 0.81858 0.55343 0.0
C1014 C 0.65531 0.80406 0.54116 0.0
C1015 C 0.66935 0.80167 0.54015 0.0
C1016 C 0.66839 0.78877 0.52708 0.0
C1017 C 0.65335 0.77801 0.51486 0.0
C1018 C 0.63919 0.78022 0.51635 0.0
C1019 C 0.6402 0.79316 0.52927 0.0
H1020 H 0.17709 0.77968 0.51132 0.0
H1021 H 0.15295 0.76273 0.48589 0.0
H1022 H 0.12311 0.78048 0.51787 0.0
H1023 H 0.1472 0.79757 0.54267 0.0
H1024 H 0.19458 0.81422 0.51491 0.0
H1025 H 0.16226 0.76737 0.56403 0.0
H1026 H 0.13625 0.74612 0.58317 0.0
H1027 H 0.1329 0.7866 0.61337 0.0
H1028 H 0.15859 0.80761 0.59428 0.0
H1029 H 0.19452 0.84714 0.5912 0.0
H1030 H 0.21203 0.87248 0.61321 0.0
H1031 H 0.25811 0.87368 0.59332 0.0
H1032 H 0.24033 0.84799 0.57113 0.0
H1033 H 0.18983 0.81672 0.59487 0.0
H1034 H 0.2128 0.86107 0.53919 0.0
H1035 H 0.23271 0.8828 0.5137 0.0
H1036 H 0.25082 0.8497 0.49445 0.0
H1037 H 0.23073 0.828 0.51969 0.0
C1038 C 0.1639 0.78975 0.52907 0.0
C1039 C 0.16525 0.77971 0.51298 0.0
C1040 C 0.15144 0.76999 0.49856 0.0
C1041 C 0.1362 0.77038 0.49982 0.0
C1042 C 0.13476 0.78006 0.51635 0.0
C1043 C 0.14846 0.78969 0.53071 0.0
C1044 C 0.17898 0.80164 0.54286 0.0
C1045 C 0.19377 0.81451 0.53249 0.0
C1046 C 0.17778 0.80218 0.56574 0.0
C1047 C 0.16242 0.78911 0.57774 0.0
C1048 C 0.1559 0.77163 0.57481 0.0
C1049 C 0.14107 0.75951 0.58574 0.0
C1050 C 0.13263 0.76469 0.59994 0.0
C1051 C 0.13931 0.78219 0.60294 0.0
C1052 C 0.15401 0.79423 0.59198 0.0
C1053 C 0.21607 0.84558 0.57956 0.0
C1054 C 0.20838 0.85274 0.59165 0.0
C1055 C 0.21842 0.86722 0.60433 0.0
C1056 C 0.23644 0.87496 0.60526 0.0
C1057 C 0.24424 0.86799 0.59289 0.0
C1058 C 0.23411 0.85335 0.5802 0.0
C1059 C 0.20481 0.82987 0.56674 0.0
C1060 C 0.19089 0.81614 0.57736 0.0
C1061 C 0.20655 0.8288 0.54406 0.0
C1062 C 0.22036 0.84296 0.53137 0.0
C1063 C 0.22137 0.85868 0.52985 0.0
C1064 C 0.23275 0.87109 0.51528 0.0
C1065 C 0.24322 0.8679 0.50189 0.0
C1066 C 0.24272 0.85243 0.50425 0.0
C1067 C 0.23133 0.84006 0.51876 0.0
H1068 H 0.16089 0.3456 0.50965 0.0
H1069 H 0.14195 0.34988 0.48555 0.0
H1070 H 0.14644 0.38914 0.52821 0.0
H1071 H 0.16632 0.38553 0.55196 0.0
H1072 H 0.1918 0.36295 0.5202 0.0
H1073 H 0.13986 0.33965 0.55995 0.0
H1074 H 0.1155 0.33814 0.5785 0.0
H1075 H 0.15058 0.37614 0.62463 0.0
H1076 H 0.17507 0.37795 0.60561 0.0
H1077 H 0.22197 0.37457 0.60351 0.0
H1078 H 0.24015 0.36764 0.62552 0.0
H1079 H 0.21684 0.31863 0.59349 0.0
H1080 H 0.19802 0.32527 0.5728 0.0
H1081 H 0.18343 0.35458 0.59989 0.0
H1082 H 0.23245 0.38206 0.53801 0.0
H1083 H 0.2518 0.37945 0.51329 0.0
H1084 H 0.21635 0.32489 0.51077 0.0
H1085 H 0.1966 0.32795 0.53407 0.0
C1086 C 0.16503 0.36516 0.53277 0.0
C1087 C 0.15811 0.35537 0.51373 0.0
C1088 C 0.14727 0.3578 0.49994 0.0
C1089 C 0.14286 0.36989 0.50501 0.0
C1090 C 0.14969 0.37973 0.52401 0.0
C1091 C 0.16092 0.37758 0.53762 0.0
C1092 C 0.1765 0.36218 0.54725 0.0
C1093 C 0.1898 0.36105 0.53761 0.0
C1094 C 0.17411 0.35977 0.57007 0.0
C1095 C 0.15934 0.35913 0.58114 0.0
C1096 C 0.14237 0.34793 0.57377 0.0
C1097 C 0.12845 0.34708 0.58438 0.0
C1098 C 0.13116 0.35715 0.60288 0.0
C1099 C 0.14813 0.36825 0.61039 0.0
C1100 C 0.1621 0.36926 0.59958 0.0
C1101 C 0.20898 0.35061 0.58613 0.0
C1102 C 0.22076 0.36231 0.60138 0.0
C1103 C 0.23124 0.35836 0.61381 0.0
C1104 C 0.23016 0.34262 0.61118 0.0
C1105 C 0.21801 0.33081 0.59616 0.0
C1106 C 0.20742 0.33471 0.58396 0.0
C1107 C 0.1982 0.35496 0.57257 0.0
C1108 C 0.1853 0.35661 0.58249 0.0
C1109 C 0.20037 0.35714 0.54987 0.0
C1110 C 0.2133 0.35516 0.53814 0.0
C1111 C 0.22907 0.36954 0.53237 0.0
C1112 C 0.24015 0.36797 0.51831 0.0
C1113 C 0.23568 0.35193 0.50987 0.0
C1114 C 0.22014 0.33748 0.51655 0.0
C1115 C 0.20894 0.33914 0.53022 0.0
H1116 H 0.00364 0.38435 0.08754 0.0
H1117 H 0.95133 0.37365 0.08403 0.0
H1118 H 0.00909 0.40211 0.11969 0.0
H1119 H 0.95687 0.3916 0.11558 0.0
H1120 H 0.96673 0.41612 0.18087 0.0
H1121 H 0.96232 0.39474 0.15398 0.0
H1122 H 0.01267 0.42952 0.12758 0.0
H1123 H 0.01714 0.45075 0.15472 0.0
C1124 C 0.99327 0.38565 0.09371 0.0
C1125 C 0.97707 0.37762 0.08312 0.0
C1126 C 0.99642 0.39592 0.11205 0.0
C1127 C 0.98345 0.39835 0.12022 0.0
C1128 C 0.96711 0.38986 0.11 0.0
C1129 C 0.96396 0.37962 0.09174 0.0
C1130 C 0.9769 0.41912 0.16942 0.0
C1131 C 0.99222 0.43516 0.16979 0.0
C1132 C 0.97437 0.40689 0.15398 0.0
C1133 C 0.98705 0.41046 0.13842 0.0
C1134 C 0.0027 0.42625 0.13943 0.0
C1135 C 0.00526 0.43844 0.15498 0.0
H1136 H 0.65274 0.60326 0.07452 0.0
H1137 H 0.60966 0.60973 0.06235 0.0
H1138 H 0.64019 0.58926 0.10891 0.0
H1139 H 0.59605 0.59425 0.09539 0.0
H1140 H 0.57386 0.56855 0.15726 0.0
H1141 H 0.59214 0.58992 0.13129 0.0
H1142 H 0.61994 0.56397 0.12189 0.0
H1143 H 0.60335 0.54413 0.15011 0.0
C1144 C 0.64058 0.60172 0.07939 0.0
C1145 C 0.63214 0.60755 0.06598 0.0
C1146 C 0.63319 0.59345 0.09895 0.0
C1147 C 0.61678 0.59012 0.10502 0.0
C1148 C 0.60876 0.59667 0.09178 0.0
C1149 C 0.6165 0.60552 0.07266 0.0
C1150 C 0.58424 0.56766 0.1503 0.0
C1151 C 0.5868 0.55425 0.15582 0.0
C1152 C 0.59458 0.57984 0.13486 0.0
C1153 C 0.60744 0.57869 0.12384 0.0
C1154 C 0.61039 0.56562 0.12994 0.0
C1155 C 0.60046 0.55382 0.14593 0.0
H1156 H 0.39263 0.97751 0.06856 0.0
H1157 H 0.38954 0.02146 0.08487 0.0
H1158 H 0.41384 0.98467 0.09725 0.0
H1159 H 0.41051 0.02835 0.11454 0.0
H1160 H 0.46156 0.04365 0.15165 0.0
H1161 H 0.44017 0.0381 0.12331 0.0
H1162 H 0.41562 0.98409 0.13528 0.0
H1163 H 0.43758 0.98947 0.16215 0.0
C1164 C 0.39637 0.98866 0.07845 0.0
C1165 C 0.38926 0.99883 0.07452 0.0
C1166 C 0.40849 0.99271 0.09508 0.0
C1167 C 0.41372 0.00693 0.10856 0.0
C1168 C 0.40685 0.01734 0.10443 0.0
C1169 C 0.39479 0.01337 0.0875 0.0
C1170 C 0.45169 0.03058 0.1481 0.0
C1171 C 0.45147 0.01703 0.1592 0.0
C1172 C 0.43926 0.02741 0.13202 0.0
C1173 C 0.42624 0.01063 0.12676 0.0
C1174 C 0.42565 0.99717 0.13848 0.0
C1175 C 0.43815 1.0003 0.15428 0.0
H1176 H 0.38602 0.01377 0.96518 0.0
H1177 H 0.35689 0.95917 0.95628 0.0
H1178 H 0.40212 0.01686 0.93213 0.0
H1179 H 0.37286 0.96234 0.92314 0.0
H1180 H 0.39906 0.97674 0.85623 0.0
H1181 H 0.37982 0.97609 0.88422 0.0
H1182 H 0.42365 0.00657 0.92647 0.0
H1183 H 0.44278 0.00654 0.89933 0.0
C1184 C 0.38278 0.00247 0.95592 0.0
C1185 C 0.37033 0.98621 0.96344 0.0
C1186 C 0.39203 0.00425 0.93707 0.0
C1187 C 0.38876 0.98983 0.92521 0.0
C1188 C 0.37555 0.97366 0.93193 0.0
C1189 C 0.3665 0.97186 0.95096 0.0
C1190 C 0.40463 0.98325 0.8715 0.0
C1191 C 0.42256 0.99166 0.87542 0.0
C1192 C 0.3936 0.98298 0.88742 0.0
C1193 C 0.4003 0.99138 0.90738 0.0
C1194 C 0.41819 1.00025 0.91104 0.0
C1195 C 0.42916 1.00027 0.89537 0.0
H1196 H 0.01204 0.39977 0.97601 0.0
H1197 H 0.9584 0.37 0.95642 0.0
H1198 H 0.0179 0.41859 0.94474 0.0
H1199 H 0.96428 0.38813 0.92495 0.0
H1200 H 0.97406 0.43478 0.8886 0.0
H1201 H 0.97001 0.41577 0.9185 0.0
H1202 H 0.01971 0.422 0.90575 0.0
H1203 H 0.02394 0.44161 0.876 0.0
C1204 C 0.00159 0.3971 0.96484 0.0
C1205 C 0.98473 0.3836 0.96884 0.0
C1206 C 0.00493 0.40783 0.94689 0.0
C1207 C 0.99149 0.40508 0.93249 0.0
C1208 C 0.97485 0.39099 0.93601 0.0
C1209 C 0.97149 0.38051 0.95402 0.0
C1210 C 0.98405 0.43197 0.89204 0.0
C1211 C 0.99922 0.43952 0.87982 0.0
C1212 C 0.98173 0.42101 0.90917 0.0
C1213 C 0.99443 0.41712 0.91441 0.0
C1214 C 0.00972 0.4248 0.90228 0.0
C1215 C 0.01212 0.43596 0.8852 0.0
H1216 H 0.61433 0.63682 0.9491 0.0
H1217 H 0.59091 0.58411 0.96802 0.0
H1218 H 0.59135 0.62866 0.92167 0.0
H1219 H 0.56799 0.5761 0.94108 0.0
H1220 H 0.52143 0.56914 0.90434 0.0
H1221 H 0.54308 0.58156 0.93353 0.0
H1222 H 0.58276 0.60949 0.88612 0.0
H1223 H 0.56107 0.597 0.8568 0.0
C1224 C 0.60417 0.62357 0.94761 0.0
C1225 C 0.60443 0.61109 0.96062 0.0
C1226 C 0.59111 0.61891 0.9319 0.0
C1227 C 0.57791 0.60177 0.92937 0.0
C1228 C 0.57792 0.58942 0.94285 0.0
C1229 C 0.5911 0.594 0.95817 0.0
C1230 C 0.5347 0.57824 0.90017 0.0
C1231 C 0.53959 0.58207 0.8783 0.0
C1232 C 0.54708 0.58525 0.91686 0.0
C1233 C 0.56456 0.5964 0.91203 0.0
C1234 C 0.56934 0.601 0.89027 0.0
C1235 C 0.55698 0.59378 0.87352 0.0
H1236 H 0.05247 0.63426 0.94738 0.0
H1237 H 0.9993 0.62108 0.94546 0.0
H1238 H 0.04729 0.61658 0.91568 0.0
H1239 H 0.9942 0.60366 0.91309 0.0
H1240 H 0.98773 0.55562 0.87836 0.0
H1241 H 0.99164 0.57691 0.90505 0.0
H1242 H 0.04135 0.61261 0.8777 0.0
H1243 H 0.03754 0.59111 0.85137 0.0
C1244 C 0.03972 0.62784 0.93995 0.0
C1245 C 0.02627 0.62899 0.94913 0.0
C1246 C 0.03677 0.61775 0.92159 0.0
C1247 C 0.02029 0.60861 0.91179 0.0
C1248 C 0.00699 0.61032 0.92041 0.0
C1249 C 0.00994 0.6204 0.93888 0.0
C1250 C 0.99933 0.56813 0.8778 0.0
C1251 C 0.0124 0.57165 0.86293 0.0
C1252 C 0.00158 0.58038 0.89308 0.0
C1253 C 0.0169 0.59646 0.89372 0.0
C1254 C 0.02955 0.60025 0.87801 0.0
C1255 C 0.02737 0.58796 0.86288 0.0
H1256 H 0.36127 0.42091 0.96932 0.0
H1257 H 0.37899 0.38689 0.95334 0.0
H1258 H 0.37519 0.43776 0.93725 0.0
H1259 H 0.39341 0.40417 0.92116 0.0
H1260 H 0.40607 0.43431 0.85566 0.0
H1261 H 0.38959 0.41448 0.88503 0.0
H1262 H 0.40515 0.45707 0.92832 0.0
H1263 H 0.42142 0.47667 0.89929 0.0
C1264 C 0.36813 0.41699 0.95891 0.0
C1265 C 0.36923 0.40269 0.96406 0.0
C1266 C 0.37617 0.42671 0.94054 0.0
C1267 C 0.3857 0.42251 0.92688 0.0
C1268 C 0.38615 0.40772 0.93137 0.0
C1269 C 0.37794 0.39786 0.94981 0.0
C1270 C 0.40596 0.43937 0.87149 0.0
C1271 C 0.41482 0.45707 0.87505 0.0
C1272 C 0.39656 0.42803 0.88829 0.0
C1273 C 0.39587 0.43421 0.90892 0.0
C1274 C 0.40502 0.45189 0.91248 0.0
C1275 C 0.41434 0.46315 0.89579 0.0
H1276 H 0.63283 0.02117 0.93231 0.0
H1277 H 0.59505 0.97725 0.96809 0.0
H1278 H 0.61216 0.01412 0.90266 0.0
H1279 H 0.57381 0.97063 0.93894 0.0
H1280 H 0.53983 0.95953 0.87886 0.0
H1281 H 0.56304 0.96232 0.90258 0.0
H1282 H 0.5884 0.01714 0.89858 0.0
H1283 H 0.56602 0.0143 0.87405 0.0
C1284 C 0.62008 0.0099 0.93369 0.0
C1285 C 0.61543 0.99985 0.95252 0.0
C1286 C 0.60816 0.00591 0.9168 0.0
C1287 C 0.59112 0.99206 0.9186 0.0
C1288 C 0.5868 0.98136 0.93691 0.0
C1289 C 0.59893 0.98515 0.95366 0.0
C1290 C 0.55058 0.97214 0.88273 0.0
C1291 C 0.55097 0.9867 0.87473 0.0
C1292 C 0.56378 0.97376 0.89652 0.0
C1293 C 0.57765 0.98995 0.90258 0.0
C1294 C 0.57816 0.00443 0.89406 0.0
C1295 C 0.56511 0.00282 0.88023 0.0
H1296 H 0.63172 0.0448 0.06226 0.0
H1297 H 0.61928 0.99326 0.07393 0.0
H1298 H 0.61747 0.04415 0.09572 0.0
H1299 H 0.60513 0.99273 0.1078 0.0
H1300 H 0.5615 0.99305 0.1478 0.0
H1301 H 0.57882 0.99243 0.11821 0.0
H1302 H 0.61987 0.04331 0.1352 0.0
H1303 H 0.60254 0.04394 0.16475 0.0
C1304 C 0.62608 0.03337 0.07207 0.0
C1305 C 0.62658 0.01905 0.06533 0.0
C1306 C 0.61802 0.03305 0.09138 0.0
C1307 C 0.6102 0.01841 0.10447 0.0
C1308 C 0.61093 0.00416 0.09797 0.0
C1309 C 0.61909 0.00449 0.07863 0.0
C1310 C 0.57437 0.00396 0.14552 0.0
C1311 C 0.58058 0.01862 0.15847 0.0
C1312 C 0.5843 0.00359 0.12856 0.0
C1313 C 0.60064 0.01789 0.12419 0.0
C1314 C 0.60718 0.03222 0.13787 0.0
C1315 C 0.59727 0.03258 0.15479 0.0
H1316 H 0.03691 0.61176 0.05452 0.0
H1317 H 0.99699 0.62106 0.07387 0.0
H1318 H 0.03149 0.59403 0.08627 0.0
H1319 H 0.99199 0.60377 0.10654 0.0
H1320 H 0.97814 0.55857 0.15286 0.0
H1321 H 0.98151 0.57583 0.12092 0.0
H1322 H 0.03664 0.59725 0.12381 0.0
H1323 H 0.03319 0.57914 0.15432 0.0
C1324 C 0.02701 0.61008 0.06569 0.0
C1325 C 0.01748 0.61793 0.0618 0.0
C1326 C 0.02398 0.6 0.08405 0.0
C1327 C 0.01155 0.59773 0.09931 0.0
C1328 C 0.00163 0.60519 0.09512 0.0
C1329 C 0.00451 0.61513 0.07645 0.0
C1330 C 0.99097 0.56685 0.14656 0.0
C1331 C 0.00536 0.56728 0.15621 0.0
C1332 C 0.99292 0.57693 0.12838 0.0
C1333 C 0.00932 0.58779 0.11953 0.0
C1334 C 0.02374 0.58874 0.12978 0.0
C1335 C 0.02178 0.57853 0.14767 0.0
H1336 H 0.39785 0.37552 0.05713 0.0
H1337 H 0.37636 0.40065 0.0922 0.0
H1338 H 0.42061 0.38483 0.08513 0.0
H1339 H 0.39883 0.40982 0.11986 0.0
H1340 H 0.4333 0.41453 0.17489 0.0
H1341 H 0.40959 0.39882 0.14898 0.0
H1342 H 0.44606 0.4136 0.09681 0.0
H1343 H 0.46984 0.42947 0.1227 0.0
C1344 C 0.39784 0.3828 0.07093 0.0
C1345 C 0.38538 0.38744 0.0724 0.0
C1346 C 0.41089 0.38819 0.08687 0.0
C1347 C 0.41149 0.39803 0.10471 0.0
C1348 C 0.39863 0.40208 0.10649 0.0
C1349 C 0.3858 0.39692 0.09052 0.0
C1350 C 0.43629 0.41434 0.15792 0.0
C1351 C 0.45346 0.42349 0.15082 0.0
C1352 C 0.4227 0.4053 0.1431 0.0
C1353 C 0.42595 0.40513 0.12082 0.0
C1354 C 0.44315 0.41338 0.11389 0.0
C1355 C 0.45677 0.42249 0.12874 0.0
H1356 H 0.61747 0.7079 0.40866 0.0
H1357 H 0.66996 0.71957 0.41577 0.0
H1358 H 0.62088 0.72401 0.44145 0.0
H1359 H 0.67326 0.73547 0.44909 0.0
H1360 H 0.67815 0.78196 0.48652 0.0
H1361 H 0.67563 0.76224 0.45829 0.0
H1362 H 0.6244 0.72529 0.48031 0.0
H1363 H 0.62688 0.74515 0.50838 0.0
C1364 C 0.62968 0.71368 0.41741 0.0
C1365 C 0.64349 0.71253 0.40945 0.0
C1366 C 0.6316 0.72285 0.43637 0.0
C1367 C 0.64737 0.7311 0.44794 0.0
C1368 C 0.66101 0.72945 0.44042 0.0
C1369 C 0.65908 0.72024 0.4214 0.0
C1370 C 0.66649 0.76949 0.48562 0.0
C1371 C 0.65264 0.76518 0.49955 0.0
C1372 C 0.66505 0.75816 0.46944 0.0
C1373 C 0.64974 0.74222 0.46687 0.0
C1374 C 0.63624 0.7376 0.48154 0.0
C1375 C 0.63765 0.74896 0.49764 0.0
H1376 H 0.28794 0.94976 0.40616 0.0
H1377 H 0.30384 0.91496 0.38668 0.0
H1378 H 0.27475 0.93264 0.43875 0.0
H1379 H 0.29119 0.89825 0.41932 0.0
H1380 H 0.24615 0.86006 0.46018 0.0
H1381 H 0.26208 0.87928 0.43069 0.0
H1382 H 0.27929 0.92235 0.47371 0.0
H1383 H 0.2631 0.90291 0.50348 0.0
C1384 C 0.28887 0.93864 0.40901 0.0
C1385 C 0.2967 0.93357 0.39368 0.0
C1386 C 0.28138 0.92887 0.42772 0.0
C1387 C 0.28168 0.91392 0.43146 0.0
C1388 C 0.29033 0.90943 0.41666 0.0
C1389 C 0.29766 0.91908 0.39798 0.0
C1390 C 0.25355 0.8736 0.46351 0.0
C1391 C 0.25351 0.87993 0.48426 0.0
C1392 C 0.2627 0.88466 0.44656 0.0
C1393 C 0.27214 0.90238 0.44987 0.0
C1394 C 0.27207 0.90878 0.4706 0.0
C1395 C 0.26283 0.89765 0.48764 0.0
H1396 H 0.07844 0.37112 0.39803 0.0
H1397 H 0.04993 0.3262 0.43767 0.0
H1398 H 0.10168 0.3834 0.42566 0.0
H1399 H 0.07278 0.33851 0.46524 0.0
H1400 H 0.11262 0.36704 0.51662 0.0
H1401 H 0.08949 0.36363 0.49207 0.0
H1402 H 0.12196 0.37227 0.43683 0.0
H1403 H 0.14493 0.37548 0.46133 0.0
C1404 C 0.07696 0.3641 0.41287 0.0
C1405 C 0.06251 0.34767 0.41568 0.0
C1406 C 0.09023 0.37108 0.4286 0.0
C1407 C 0.08899 0.3619 0.44757 0.0
C1408 C 0.07401 0.34596 0.45091 0.0
C1409 C 0.06099 0.33885 0.43506 0.0
C1410 C 0.11493 0.3687 0.49928 0.0
C1411 C 0.13044 0.37139 0.49079 0.0
C1412 C 0.10172 0.36669 0.48526 0.0
C1413 C 0.10394 0.36764 0.46257 0.0
C1414 C 0.11996 0.37164 0.45424 0.0
C1415 C 0.13304 0.37336 0.46822 0.0
H1416 H 0.04759 0.29737 0.31291 0.0
H1417 H 0.0441 0.34035 0.29164 0.0
H1418 H 0.0591 0.29653 0.27787 0.0
H1419 H 0.05529 0.33921 0.25613 0.0
H1420 H 0.09875 0.34528 0.21014 0.0
H1421 H 0.0824 0.3453 0.24122 0.0
H1422 H 0.0524 0.29029 0.23992 0.0
H1423 H 0.06935 0.29027 0.20959 0.0
C1424 C 0.0491 0.30654 0.30066 0.0
C1425 C 0.04502 0.319 0.30517 0.0
C1426 C 0.05555 0.30595 0.28044 0.0
C1427 C 0.05805 0.31775 0.2641 0.0
C1428 C 0.05366 0.33002 0.26842 0.0
C1429 C 0.04721 0.33065 0.28875 0.0
C1430 C 0.08859 0.33319 0.2164 0.0
C1431 C 0.08557 0.31777 0.20759 0.0
C1432 C 0.07907 0.3332 0.23409 0.0
C1433 C 0.06625 0.31779 0.24329 0.0
C1434 C 0.06243 0.30239 0.2335 0.0
C1435 C 0.072 0.30238 0.21589 0.0
H1436 H 0.6806 0.72116 0.2878 0.0
H1437 H 0.64473 0.73675 0.3043 0.0
H1438 H 0.69057 0.74095 0.25679 0.0
H1439 H 0.65494 0.75663 0.27389 0.0
H1440 H 0.6902 0.8025 0.23201 0.0
H1441 H 0.68513 0.7841 0.26337 0.0
H1442 H 0.67347 0.74244 0.2203 0.0
H1443 H 0.67838 0.76085 0.18873 0.0
C1444 C 0.67501 0.72893 0.28495 0.0
C1445 C 0.66186 0.7274 0.29839 0.0
C1446 C 0.68065 0.74015 0.26722 0.0
C1447 C 0.67354 0.7503 0.26309 0.0
C1448 C 0.66071 0.74903 0.27685 0.0
C1449 C 0.65483 0.7376 0.29417 0.0
C1450 C 0.68691 0.78952 0.22922 0.0
C1451 C 0.68465 0.78308 0.20795 0.0
C1452 C 0.68393 0.779 0.24715 0.0
C1453 C 0.6789 0.7619 0.24418 0.0
C1454 C 0.67746 0.75563 0.22296 0.0
C1455 C 0.68015 0.7661 0.20497 0.0
H1456 H 0.28417 0.93875 0.26622 0.0
H1457 H 0.26444 0.96322 0.30609 0.0
H1458 H 0.26193 0.93211 0.239 0.0
H1459 H 0.24173 0.95631 0.27854 0.0
H1460 H 0.19201 0.91264 0.23816 0.0
H1461 H 0.21559 0.92759 0.26464 0.0
H1462 H 0.25231 0.94656 0.21241 0.0
H1463 H 0.22881 0.93179 0.18594 0.0
C1464 C 0.27512 0.94284 0.26908 0.0
C1465 C 0.27597 0.95141 0.28834 0.0
C1466 C 0.26246 0.93916 0.25337 0.0
C1467 C 0.25014 0.94376 0.25659 0.0
C1468 C 0.2511 0.95264 0.27568 0.0
C1469 C 0.26408 0.95663 0.29135 0.0
C1470 C 0.20507 0.92042 0.23228 0.0
C1471 C 0.20859 0.92078 0.20999 0.0
C1472 C 0.21856 0.929 0.24746 0.0
C1473 C 0.23578 0.93803 0.24058 0.0
C1474 C 0.23916 0.93946 0.21817 0.0
C1475 C 0.22572 0.93096 0.20304 0.0
H1476 H 0.66686 0.95155 0.27591 0.0
H1477 H 0.7204 0.96599 0.27893 0.0
H1478 H 0.66299 0.93567 0.24235 0.0
H1479 H 0.71646 0.94994 0.24595 0.0
H1480 H 0.70889 0.92776 0.17983 0.0
H1481 H 0.71115 0.94787 0.20738 0.0
H1482 H 0.66184 0.90945 0.23307 0.0
H1483 H 0.65951 0.88948 0.20532 0.0
C1484 C 0.67784 0.95151 0.26931 0.0
C1485 C 0.69391 0.95995 0.28021 0.0
C1486 C 0.6756 0.94232 0.25016 0.0
C1487 C 0.68939 0.94146 0.24148 0.0
C1488 C 0.7056 0.95049 0.25195 0.0
C1489 C 0.70783 0.95962 0.27103 0.0
C1490 C 0.69846 0.9237 0.19123 0.0
C1491 C 0.68411 0.907 0.19055 0.0
C1492 C 0.69975 0.9352 0.20703 0.0
C1493 C 0.68678 0.93022 0.22262 0.0
C1494 C 0.67199 0.91379 0.2212 0.0
C1495 C 0.67066 0.90231 0.2053 0.0
H1496 H 0.02995 0.75608 0.30137 0.0
H1497 H 0.04383 0.71887 0.28669 0.0
H1498 H 0.0435 0.77126 0.26814 0.0
H1499 H 0.05737 0.73414 0.25299 0.0
H1500 H 0.10064 0.7823 0.21576 0.0
H1501 H 0.08342 0.76209 0.24409 0.0
H1502 H 0.04113 0.76928 0.22841 0.0
H1503 H 0.05833 0.78948 0.20001 0.0
C1504 C 0.03574 0.75102 0.29092 0.0
C1505 C 0.03591 0.73632 0.29677 0.0
C1506 C 0.0434 0.75967 0.27173 0.0
C1507 C 0.05149 0.7539 0.2579 0.0
C1508 C 0.05132 0.73895 0.26342 0.0
C1509 C 0.0435 0.73017 0.28263 0.0
C1510 C 0.08753 0.77928 0.21801 0.0
C1511 C 0.08092 0.78765 0.20578 0.0
C1512 C 0.07765 0.76768 0.23424 0.0
C1513 C 0.06097 0.76421 0.23863 0.0
C1514 C 0.05406 0.77192 0.22567 0.0
C1515 C 0.06392 0.78351 0.20944 0.0
H1516 H 0.29592 0.35011 0.26491 0.0
H1517 H 0.25814 0.30812 0.30334 0.0
H1518 H 0.27528 0.34154 0.23489 0.0
H1519 H 0.23687 0.30003 0.27378 0.0
H1520 H 0.20249 0.28646 0.21359 0.0
H1521 H 0.22583 0.29005 0.2378 0.0
H1522 H 0.25171 0.34462 0.22949 0.0
H1523 H 0.22919 0.34093 0.20461 0.0
C1524 C 0.28317 0.33891 0.26678 0.0
C1525 C 0.2785 0.32985 0.2864 0.0
C1526 C 0.27127 0.33406 0.24968 0.0
C1527 C 0.2542 0.32037 0.25207 0.0
C1528 C 0.24988 0.31061 0.27128 0.0
C1529 C 0.26201 0.31524 0.28826 0.0
C1530 C 0.21339 0.29917 0.21664 0.0
C1531 C 0.21388 0.31343 0.20739 0.0
C1532 C 0.22667 0.30125 0.23068 0.0
C1533 C 0.24071 0.31763 0.23569 0.0
C1534 C 0.24134 0.33177 0.22582 0.0
C1535 C 0.22822 0.32969 0.21177 0.0
H1536 H 0.30162 0.3789 0.40028 0.0
H1537 H 0.28055 0.32464 0.4036 0.0
H1538 H 0.28777 0.37775 0.43455 0.0
H1539 H 0.26646 0.32351 0.43784 0.0
H1540 H 0.22465 0.33024 0.47479 0.0
H1541 H 0.24176 0.32941 0.44533 0.0
H1542 H 0.28803 0.37015 0.47557 0.0
H1543 H 0.27107 0.37053 0.50587 0.0
C1544 C 0.29414 0.36675 0.40842 0.0
C1545 C 0.29207 0.35184 0.39919 0.0
C1546 C 0.28633 0.36613 0.42811 0.0
C1547 C 0.27606 0.35055 0.43878 0.0
C1548 C 0.27429 0.33568 0.42986 0.0
C1549 C 0.28238 0.33634 0.41033 0.0
C1550 C 0.23852 0.33869 0.47567 0.0
C1551 C 0.24641 0.35049 0.49285 0.0
C1552 C 0.2483 0.33824 0.45866 0.0
C1553 C 0.26618 0.34973 0.45819 0.0
C1554 C 0.27422 0.36124 0.47551 0.0
C1555 C 0.26447 0.36151 0.49277 0.0
H1556 H 0.65936 0.94963 0.40335 0.0
H1557 H 0.69817 0.93797 0.38683 0.0
H1558 H 0.65257 0.93207 0.43615 0.0
H1559 H 0.69104 0.92008 0.41876 0.0
H1560 H 0.69072 0.906 0.4878 0.0
H1561 H 0.69548 0.92402 0.45667 0.0
H1562 H 0.64065 0.90365 0.45077 0.0
H1563 H 0.63592 0.88636 0.48319 0.0
C1564 C 0.66623 0.94311 0.40655 0.0
C1565 C 0.67945 0.94535 0.39268 0.0
C1566 C 0.66234 0.93304 0.4253 0.0
C1567 C 0.6715 0.92492 0.43037 0.0
C1568 C 0.68411 0.92657 0.41582 0.0
C1569 C 0.68811 0.93674 0.39737 0.0
C1570 C 0.67965 0.90561 0.48033 0.0
C1571 C 0.6629 0.89463 0.48816 0.0
C1572 C 0.68237 0.91576 0.46212 0.0
C1573 C 0.66842 0.91506 0.45087 0.0
C1574 C 0.6517 0.90452 0.45901 0.0
C1575 C 0.64897 0.89444 0.47748 0.0
H1576 H 0.04326 0.73778 0.42526 0.0
H1577 H 0.06528 0.71248 0.39177 0.0
H1578 H 0.06617 0.74832 0.45246 0.0
H1579 H 0.08877 0.72358 0.4189 0.0
H1580 H 0.12141 0.73782 0.48353 0.0
H1581 H 0.09735 0.72368 0.45727 0.0
H1582 H 0.09613 0.7699 0.45206 0.0
H1583 H 0.11971 0.78373 0.47827 0.0
C1584 C 0.05301 0.73444 0.42373 0.0
C1585 C 0.05259 0.72449 0.40619 0.0
C1586 C 0.06623 0.74057 0.43928 0.0
C1587 C 0.07955 0.73714 0.4376 0.0
C1588 C 0.0787 0.72646 0.42066 0.0
C1589 C 0.06529 0.72013 0.40511 0.0
C1590 C 0.11598 0.7449 0.47665 0.0
C1591 C 0.12222 0.76177 0.48322 0.0
C1592 C 0.10224 0.73683 0.46161 0.0
C1593 C 0.0946 0.74556 0.45286 0.0
C1594 C 0.10133 0.76261 0.45896 0.0
C1595 C 0.11489 0.77057 0.47397 0.0
H1596 H 0.28206 0.0405 0.74175 0.0
H1597 H 0.33394 0.05067 0.75019 0.0
H1598 H 0.2856 0.05693 0.77433 0.0
H1599 H 0.33735 0.0669 0.78321 0.0
H1600 H 0.34337 0.11356 0.82095 0.0
H1601 H 0.34038 0.09402 0.79222 0.0
H1602 H 0.28868 0.05782 0.81347 0.0
H1603 H 0.29166 0.07745 0.84217 0.0
C1604 C 0.29416 0.04605 0.75071 0.0
C1605 C 0.30775 0.04433 0.74323 0.0
C1606 C 0.29615 0.0554 0.76953 0.0
C1607 C 0.31178 0.06328 0.78141 0.0
C1608 C 0.32522 0.06117 0.77429 0.0
C1609 C 0.32323 0.05179 0.75543 0.0
C1610 C 0.33149 0.10129 0.81979 0.0
C1611 C 0.31771 0.09712 0.83378 0.0
C1612 C 0.32978 0.09006 0.80329 0.0
C1613 C 0.31424 0.07438 0.8004 0.0
C1614 C 0.30071 0.06993 0.81496 0.0
C1615 C 0.30242 0.08117 0.83143 0.0
H1616 H 0.95284 0.28188 0.74312 0.0
H1617 H 0.97201 0.24866 0.72961 0.0
H1618 H 0.93779 0.26458 0.77503 0.0
H1619 H 0.95741 0.23177 0.76141 0.0
H1620 H 0.9238 0.23449 0.84072 0.0
H1621 H 0.94096 0.25445 0.81181 0.0
H1622 H 0.92707 0.21205 0.76886 0.0
H1623 H 0.91005 0.19231 0.79741 0.0
C1624 C 0.95408 0.27109 0.74716 0.0
C1625 C 0.96338 0.26648 0.73364 0.0
C1626 C 0.94551 0.26122 0.76544 0.0
C1627 C 0.94616 0.24662 0.77049 0.0
C1628 C 0.95629 0.24267 0.75764 0.0
C1629 C 0.96472 0.25241 0.73944 0.0
C1630 C 0.9244 0.22949 0.82505 0.0
C1631 C 0.91577 0.2118 0.82147 0.0
C1632 C 0.9342 0.24091 0.80853 0.0
C1633 C 0.93556 0.23483 0.78815 0.0
C1634 C 0.92667 0.21716 0.78454 0.0
C1635 C 0.91692 0.20582 0.80095 0.0
H1636 H 0.70337 0.64829 0.76611 0.0
H1637 H 0.73836 0.6927 0.72883 0.0
H1638 H 0.72557 0.65604 0.79391 0.0
H1639 H 0.76109 0.70012 0.75621 0.0
H1640 H 0.79709 0.71247 0.81529 0.0
H1641 H 0.77294 0.70869 0.79261 0.0
H1642 H 0.75036 0.65415 0.79481 0.0
H1643 H 0.77372 0.65787 0.8182 0.0
C1644 C 0.71583 0.65983 0.764 0.0
C1645 C 0.71925 0.6698 0.74524 0.0
C1646 C 0.72861 0.66421 0.77983 0.0
C1647 C 0.7453 0.67845 0.77705 0.0
C1648 C 0.74839 0.68908 0.75893 0.0
C1649 C 0.73541 0.68484 0.74321 0.0
C1650 C 0.78679 0.69968 0.81118 0.0
C1651 C 0.78742 0.68548 0.81843 0.0
C1652 C 0.77305 0.69752 0.79801 0.0
C1653 C 0.75963 0.68112 0.7919 0.0
C1654 C 0.76024 0.66698 0.79945 0.0
C1655 C 0.77384 0.66912 0.81261 0.0
H1656 H 0.70412 0.62501 0.63994 0.0
H1657 H 0.70475 0.67072 0.62146 0.0
H1658 H 0.71759 0.62562 0.60586 0.0
H1659 H 0.7178 0.67103 0.58683 0.0
H1660 H 0.76322 0.67813 0.54454 0.0
H1661 H 0.74515 0.67684 0.57425 0.0
H1662 H 0.71414 0.6221 0.56747 0.0
H1663 H 0.73286 0.62331 0.53866 0.0
C1664 C 0.7069 0.63508 0.62845 0.0
C1665 C 0.70346 0.64789 0.63353 0.0
C1666 C 0.71451 0.63534 0.60876 0.0
C1667 C 0.71878 0.64836 0.59352 0.0
C1668 C 0.71488 0.66093 0.59831 0.0
C1669 C 0.70734 0.66072 0.61812 0.0
C1670 C 0.75251 0.66582 0.54934 0.0
C1671 C 0.7497 0.65081 0.53944 0.0
C1672 C 0.74199 0.66509 0.56622 0.0
C1673 C 0.72831 0.64934 0.5735 0.0
C1674 C 0.72479 0.63443 0.56259 0.0
C1675 C 0.73539 0.63514 0.54582 0.0
H1676 H 0.3497 0.06667 0.63777 0.0
H1677 H 0.29651 0.0425 0.6163 0.0
H1678 H 0.35852 0.08547 0.60592 0.0
H1679 H 0.3053 0.06107 0.58473 0.0
H1680 H 0.32713 0.08659 0.52075 0.0
H1681 H 0.32243 0.06688 0.55032 0.0
H1682 H 0.35348 0.10928 0.59343 0.0
H1683 H 0.35787 0.12906 0.5641 0.0
C1684 C 0.33994 0.06527 0.62619 0.0
C1685 C 0.32241 0.05317 0.62961 0.0
C1686 C 0.34497 0.07605 0.60804 0.0
C1687 C 0.33259 0.07466 0.59282 0.0
C1688 C 0.31515 0.06229 0.59602 0.0
C1689 C 0.31011 0.05175 0.61423 0.0
C1690 C 0.333 0.09174 0.53651 0.0
C1691 C 0.34268 0.10943 0.54009 0.0
C1692 C 0.33037 0.08044 0.55339 0.0
C1693 C 0.33748 0.08656 0.5742 0.0
C1694 C 0.34797 0.10421 0.57751 0.0
C1695 C 0.3505 0.11553 0.56066 0.0
H1696 H 0.93493 0.29113 0.63765 0.0
H1697 H 0.95675 0.26486 0.60612 0.0
H1698 H 0.91179 0.27997 0.61004 0.0
H1699 H 0.93415 0.25421 0.5785 0.0
H1700 H 0.88086 0.21931 0.55165 0.0
H1701 H 0.90389 0.23297 0.57862 0.0
H1702 H 0.90419 0.27983 0.57103 0.0
H1703 H 0.88071 0.2659 0.54396 0.0
C1704 C 0.93495 0.28322 0.62466 0.0
C1705 C 0.9475 0.27866 0.62426 0.0
C1706 C 0.92173 0.27687 0.60883 0.0
C1707 C 0.92093 0.26592 0.59232 0.0
C1708 C 0.93408 0.26219 0.59134 0.0
C1709 C 0.94711 0.26839 0.60714 0.0
C1710 C 0.88589 0.23256 0.55561 0.0
C1711 C 0.87918 0.24162 0.54542 0.0
C1712 C 0.89913 0.24042 0.57105 0.0
C1713 C 0.90613 0.2576 0.57669 0.0
C1714 C 0.89906 0.26657 0.56705 0.0
C1715 C 0.88566 0.25863 0.55156 0.0
H1716 H 0.33126 0.28458 0.61476 0.0
H1717 H 0.38408 0.29714 0.62148 0.0
H1718 H 0.32786 0.26805 0.58201 0.0
H1719 H 0.38056 0.28041 0.58931 0.0
H1720 H 0.37431 0.25869 0.52258 0.0
H1721 H 0.37675 0.27864 0.55049 0.0
H1722 H 0.3259 0.2414 0.57334 0.0
H1723 H 0.32341 0.22159 0.54526 0.0
C1724 C 0.34217 0.28392 0.60919 0.0
C1725 C 0.35791 0.29213 0.62083 0.0
C1726 C 0.34019 0.27437 0.5905 0.0
C1727 C 0.35392 0.27286 0.58303 0.0
C1728 C 0.36978 0.28148 0.59435 0.0
C1729 C 0.37176 0.291 0.61297 0.0
C1730 C 0.36362 0.25483 0.53348 0.0
C1731 C 0.34872 0.23852 0.53182 0.0
C1732 C 0.36501 0.26624 0.5495 0.0
C1733 C 0.35159 0.26158 0.56432 0.0
C1734 C 0.33641 0.24551 0.56206 0.0
C1735 C 0.33498 0.23413 0.54597 0.0
H1736 H 0.71369 0.0517 0.61903 0.0
H1737 H 0.70183 0.0903 0.63422 0.0
H1738 H 0.72676 0.06639 0.58483 0.0
H1739 H 0.71483 0.10483 0.60044 0.0
H1740 H 0.72726 0.12106 0.5312 0.0
H1741 H 0.71073 0.10151 0.56049 0.0
H1742 H 0.7532 0.09436 0.57501 0.0
H1743 H 0.76982 0.11403 0.54591 0.0
C1744 C 0.71374 0.0632 0.61501 0.0
C1745 C 0.70682 0.06988 0.6294 0.0
C1746 C 0.72126 0.07162 0.5955 0.0
C1747 C 0.72175 0.08672 0.58992 0.0
C1748 C 0.71443 0.0931 0.60409 0.0
C1749 C 0.70711 0.08483 0.62358 0.0
C1750 C 0.73303 0.11525 0.54056 0.0
C1751 C 0.74993 0.11928 0.53638 0.0
C1752 C 0.72355 0.10402 0.55728 0.0
C1753 C 0.73073 0.09653 0.57016 0.0
C1754 C 0.74725 0.09981 0.56523 0.0
C1755 C 0.75677 0.11109 0.54854 0.0
H1756 H 0.93742 0.68715 0.63132 0.0
H1757 H 0.9416 0.6433 0.61842 0.0
H1758 H 0.91357 0.6767 0.60551 0.0
H1759 H 0.91748 0.63284 0.5921 0.0
H1760 H 0.8895 0.63971 0.52734 0.0
H1761 H 0.91163 0.64407 0.55441 0.0
H1762 H 0.88267 0.65062 0.60449 0.0
H1763 H 0.86065 0.64616 0.57773 0.0
C1764 C 0.93327 0.67526 0.62295 0.0
C1765 C 0.94141 0.66604 0.62697 0.0
C1766 C 0.91951 0.66923 0.60825 0.0
C1767 C 0.9136 0.65389 0.59698 0.0
C1768 C 0.92182 0.6447 0.60064 0.0
C1769 C 0.93553 0.65064 0.61572 0.0
C1770 C 0.88769 0.64164 0.54424 0.0
C1771 C 0.87356 0.64295 0.55038 0.0
C1772 C 0.90032 0.64412 0.55969 0.0
C1773 C 0.89895 0.64795 0.58142 0.0
C1774 C 0.88417 0.64798 0.58777 0.0
C1775 C 0.87161 0.64547 0.57244 0.0
H1776 H 0.94825 0.65925 0.73454 0.0
H1777 H 0.98536 0.71293 0.74222 0.0
H1778 H 0.93471 0.6593 0.76845 0.0
H1779 H 0.97268 0.7129 0.77688 0.0
H1780 H 0.92988 0.71269 0.81571 0.0
H1781 H 0.94827 0.71253 0.78755 0.0
H1782 H 0.93388 0.66136 0.80602 0.0
H1783 H 0.91468 0.66137 0.8335 0.0
C1784 C 0.95383 0.67094 0.74388 0.0
C1785 C 0.96767 0.68613 0.73566 0.0
C1786 C 0.94613 0.671 0.76343 0.0
C1787 C 0.95237 0.68619 0.77538 0.0
C1788 C 0.96712 0.70107 0.76786 0.0
C1789 C 0.97452 0.70109 0.74808 0.0
C1790 C 0.93093 0.70155 0.81399 0.0
C1791 C 0.92085 0.68703 0.82668 0.0
C1792 C 0.94156 0.70144 0.79788 0.0
C1793 C 0.94261 0.68689 0.79431 0.0
C1794 C 0.93316 0.67266 0.8079 0.0
C1795 C 0.92226 0.67268 0.82377 0.0
H1796 H 0.37314 0.29784 0.74763 0.0
H1797 H 0.31964 0.26899 0.7272 0.0
H1798 H 0.36674 0.27907 0.77851 0.0
H1799 H 0.31324 0.24961 0.75801 0.0
H1800 H 0.30707 0.22614 0.82705 0.0
H1801 H 0.31148 0.24602 0.79754 0.0
H1802 H 0.36026 0.25072 0.78322 0.0
H1803 H 0.356 0.23133 0.81272 0.0
C1804 C 0.35997 0.28743 0.74972 0.0
C1805 C 0.34693 0.28476 0.7348 0.0
C1806 C 0.35631 0.27659 0.7674 0.0
C1807 C 0.33955 0.26259 0.77052 0.0
C1808 C 0.32629 0.26028 0.75611 0.0
C1809 C 0.32995 0.27133 0.73843 0.0
C1810 C 0.3187 0.23147 0.81753 0.0
C1811 C 0.33132 0.22741 0.8224 0.0
C1812 C 0.32121 0.2428 0.80061 0.0
C1813 C 0.33634 0.25018 0.78819 0.0
C1814 C 0.34869 0.2457 0.79282 0.0
C1815 C 0.34625 0.23455 0.80973 0.0
H1816 H 0.70854 0.06709 0.75991 0.0
H1817 H 0.73357 0.04502 0.72586 0.0
H1818 H 0.73016 0.07674 0.78874 0.0
H1819 H 0.75582 0.05531 0.7546 0.0
H1820 H 0.78666 0.06793 0.82021 0.0
H1821 H 0.76336 0.05411 0.79289 0.0
H1822 H 0.75964 0.09905 0.79095 0.0
H1823 H 0.78243 0.11252 0.8182 0.0
C1824 C 0.71868 0.06426 0.75863 0.0
C1825 C 0.7195 0.05551 0.74048 0.0
C1826 C 0.73116 0.06989 0.77511 0.0
C1827 C 0.74499 0.06719 0.77375 0.0
C1828 C 0.74534 0.05761 0.75616 0.0
C1829 C 0.73263 0.05174 0.73969 0.0
C1830 C 0.7808 0.07478 0.81386 0.0
C1831 C 0.78615 0.09119 0.82161 0.0
C1832 C 0.76751 0.0669 0.79821 0.0
C1833 C 0.75941 0.07534 0.78999 0.0
C1834 C 0.76517 0.09193 0.79739 0.0
C1835 C 0.77829 0.0997 0.81301 0.0
H1836 H 0.02424 0.32589 0.00599 0.0
H1837 H 0.03955 0.36704 0.05173 0.0
H1838 H 0.04631 0.32106 0.02114 0.0
H1839 H 0.06153 0.36211 0.06693 0.0
H1840 H 0.1086 0.35704 0.07743 0.0
H1841 H 0.0889 0.36347 0.05842 0.0
H1842 H 0.05007 0.30987 0.05631 0.0
H1843 H 0.06959 0.30343 0.07564 0.0
C1844 C 0.03243 0.33404 0.0191 0.0
C1845 C 0.03006 0.3468 0.02772 0.0
C1846 C 0.045 0.33118 0.02787 0.0
C1847 C 0.05557 0.34111 0.04534 0.0
C1848 C 0.05367 0.35432 0.05338 0.0
C1849 C 0.04102 0.3571 0.04471 0.0
C1850 C 0.09583 0.34662 0.07303 0.0
C1851 C 0.09067 0.32971 0.0782 0.0
C1852 C 0.08457 0.35032 0.06207 0.0
C1853 C 0.06793 0.33719 0.05587 0.0
C1854 C 0.0629 0.32026 0.06059 0.0
C1855 C 0.07411 0.31657 0.07166 0.0
H1856 H 0.69043 0.69784 0.05096 0.0
H1857 H 0.64157 0.68495 0.02158 0.0
H1858 H 0.694 0.72424 0.06482 0.0
H1859 H 0.64492 0.71119 0.03596 0.0
H1860 H 0.66418 0.76739 0.04831 0.0
H1861 H 0.66148 0.74178 0.03257 0.0
H1862 H 0.68199 0.73354 0.09209 0.0
H1863 H 0.68485 0.75919 0.10766 0.0
C1864 C 0.68042 0.70062 0.04747 0.0
C1865 C 0.66569 0.68924 0.03521 0.0
C1866 C 0.68242 0.71573 0.05555 0.0
C1867 C 0.6697 0.71982 0.05165 0.0
C1868 C 0.65507 0.70855 0.03908 0.0
C1869 C 0.6531 0.69345 0.03092 0.0
C1870 C 0.66804 0.76005 0.05804 0.0
C1871 C 0.67477 0.76534 0.07921 0.0
C1872 C 0.66647 0.74536 0.04904 0.0
C1873 C 0.67154 0.73559 0.06103 0.0
C1874 C 0.67826 0.74091 0.08222 0.0
C1875 C 0.67988 0.75562 0.09117 0.0
H1876 H 0.29332 0.93727 0.03286 0.0
H1877 H 0.3049 0.98746 0.05135 0.0
H1878 H 0.26388 0.92516 0.04504 0.0
H1879 H 0.27512 0.97517 0.06369 0.0
H1880 H 0.20903 0.90804 0.05274 0.0
H1881 H 0.23712 0.92518 0.03576 0.0
H1882 H 0.25736 0.95509 0.09456 0.0
H1883 H 0.22913 0.93788 0.1116 0.0
C1884 C 0.28953 0.94576 0.03937 0.0
C1885 C 0.30147 0.96332 0.04122 0.0
C1886 C 0.2726 0.93882 0.04619 0.0
C1887 C 0.26717 0.94923 0.05522 0.0
C1888 C 0.27899 0.96686 0.05682 0.0
C1889 C 0.29598 0.97388 0.04969 0.0
C1890 C 0.21941 0.91845 0.06191 0.0
C1891 C 0.21701 0.92145 0.0836 0.0
C1892 C 0.23547 0.92825 0.0522 0.0
C1893 C 0.24948 0.94128 0.06397 0.0
C1894 C 0.24676 0.94517 0.08508 0.0
C1895 C 0.23062 0.93532 0.09484 0.0
H1896 H 0.36618 0.04782 0.99089 0.0
H1897 H 0.33287 0.04496 0.04244 0.0
H1898 H 0.36352 0.07009 0.97339 0.0
H1899 H 0.33062 0.0677 0.02524 0.0
H1900 H 0.31287 0.09213 0.97406 0.0
H1901 H 0.31714 0.07162 0.99388 0.0
H1902 H 0.37075 0.0989 0.97538 0.0
H1903 H 0.36623 0.11883 0.95454 0.0
C1904 C 0.35852 0.05214 0.99871 0.0
C1905 C 0.34966 0.04452 0.01803 0.0
C1906 C 0.35705 0.06501 0.9887 0.0
C1907 C 0.34677 0.07067 0.99781 0.0
C1908 C 0.33839 0.06345 0.01755 0.0
C1909 C 0.3398 0.0505 0.02752 0.0
C1910 C 0.32553 0.09367 0.97404 0.0
C1911 C 0.33917 0.10712 0.96256 0.0
C1912 C 0.32806 0.08204 0.9857 0.0
C1913 C 0.34431 0.08357 0.98628 0.0
C1914 C 0.35801 0.09718 0.9751 0.0
C1915 C 0.35546 0.10876 0.96335 0.0
H1916 H 0.97296 0.30567 0.00139 0.0
H1917 H 0.92199 0.2951 0.01681 0.0
H1918 H 0.96012 0.27802 0.98314 0.0
H1919 H 0.90929 0.26755 0.99895 0.0
H1920 H 0.89295 0.23445 0.93861 0.0
H1921 H 0.9074 0.2605 0.95998 0.0
H1922 H 0.94206 0.24603 0.98711 0.0
H1923 H 0.92739 0.21965 0.96561 0.0
C1924 C 0.95906 0.29732 0.00132 0.0
C1925 C 0.94849 0.30271 0.01026 0.0
C1926 C 0.95172 0.28149 0.99088 0.0
C1927 C 0.93369 0.27079 0.98922 0.0
C1928 C 0.92322 0.27571 0.99949 0.0
C1929 C 0.93052 0.29147 0.00986 0.0
C1930 C 0.90359 0.23674 0.9492 0.0
C1931 C 0.90885 0.22486 0.95067 0.0
C1932 C 0.91185 0.25166 0.9615 0.0
C1933 C 0.92564 0.25515 0.97557 0.0
C1934 C 0.93143 0.24365 0.97644 0.0
C1935 C 0.92308 0.2286 0.96409 0.0
H1936 H 0.70413 0.66972 0.99455 0.0
H1937 H 0.68822 0.62351 0.95848 0.0
H1938 H 0.73315 0.68259 0.97912 0.0
H1939 H 0.71685 0.63633 0.94314 0.0
H1940 H 0.76303 0.6692 0.90211 0.0
H1941 H 0.73509 0.66099 0.91727 0.0
H1942 H 0.75833 0.67624 0.98127 0.0
H1943 H 0.78639 0.68418 0.9662 0.0
C1944 C 0.70679 0.66237 0.9833 0.0
C1945 C 0.69391 0.6456 0.97775 0.0
C1946 C 0.72336 0.6697 0.97456 0.0
C1947 C 0.72715 0.66048 0.95984 0.0
C1948 C 0.71422 0.64381 0.95423 0.0
C1949 C 0.69784 0.63643 0.96315 0.0
C1950 C 0.76222 0.67084 0.91942 0.0
C1951 C 0.77687 0.67701 0.93302 0.0
C1952 C 0.74624 0.66622 0.92805 0.0
C1953 C 0.74455 0.66781 0.95045 0.0
C1954 C 0.75933 0.67497 0.96391 0.0
C1955 C 0.77537 0.6795 0.95528 0.0
H1956 H 0.96191 0.63462 0.98224 0.0
H1957 H 0.97649 0.67741 0.02482 0.0
H1958 H 0.93966 0.63843 0.96557 0.0
H1959 H 0.95456 0.68151 0.00773 0.0
H1960 H 0.90461 0.67667 0.98197 0.0
H1961 H 0.92415 0.67041 0.00191 0.0
H1962 H 0.93931 0.6587 0.94122 0.0
H1963 H 0.91974 0.66476 0.92147 0.0
C1964 C 0.96029 0.64476 0.98816 0.0
C1965 C 0.97108 0.65578 0.00475 0.0
C1966 C 0.94761 0.64703 0.97848 0.0
C1967 C 0.94547 0.66044 0.98507 0.0
C1968 C 0.95576 0.67099 0.00233 0.0
C1969 C 0.96839 0.66867 0.01209 0.0
C1970 C 0.91218 0.67282 0.97293 0.0
C1971 C 0.91056 0.67112 0.95015 0.0
C1972 C 0.92337 0.66922 0.98434 0.0
C1973 C 0.93321 0.66391 0.97321 0.0
C1974 C 0.93164 0.66235 0.95041 0.0
C1975 C 0.92044 0.66588 0.93905 0.0
H1976 H 0.33259 0.31343 0.98382 0.0
H1977 H 0.38351 0.32607 0.00503 0.0
H1978 H 0.32751 0.28688 0.9683 0.0
H1979 H 0.37847 0.29953 0.98918 0.0
H1980 H 0.35527 0.24188 0.97845 0.0
H1981 H 0.36081 0.26854 0.99443 0.0
H1982 H 0.3374 0.27714 0.93808 0.0
H1983 H 0.33198 0.2506 0.92204 0.0
C1984 C 0.34274 0.31058 0.98515 0.0
C1985 C 0.35848 0.32193 0.99567 0.0
C1986 C 0.33985 0.29538 0.97612 0.0
C1987 C 0.3526 0.2911 0.97742 0.0
C1988 C 0.36831 0.30237 0.98808 0.0
C1989 C 0.37123 0.31763 0.99706 0.0
C1990 C 0.35145 0.24954 0.96937 0.0
C1991 C 0.34311 0.24404 0.94897 0.0
C1992 C 0.35463 0.26482 0.97854 0.0
C1993 C 0.3495 0.27496 0.96757 0.0
C1994 C 0.34125 0.2695 0.94714 0.0
C1995 C 0.33812 0.25426 0.93795 0.0
H1996 H 0.69612 0.01491 0.98555 0.0
H1997 H 0.70746 0.06442 0.00685 0.0
H1998 H 0.72605 0.02759 0.97363 0.0
H1999 H 0.73706 0.07696 0.99506 0.0
H2000 H 0.79176 0.09544 0.98371 0.0
H2001 H 0.76433 0.07762 0.00196 0.0
H2002 H 0.74279 0.04804 0.94314 0.0
H2003 H 0.77028 0.06589 0.92486 0.0
C2004 C 0.70507 0.0284 0.98806 0.0
C2005 C 0.69944 0.03871 0.99698 0.0
C2006 C 0.72214 0.03566 0.98114 0.0
C2007 C 0.73388 0.05326 0.98342 0.0
C2008 C 0.7284 0.06333 0.99333 0.0
C2009 C 0.71138 0.05616 0.99994 0.0
C2010 C 0.78123 0.08497 0.97479 0.0
C2011 C 0.78305 0.08224 0.95275 0.0
C2012 C 0.76556 0.07477 0.98524 0.0
C2013 C 0.75135 0.0616 0.97388 0.0
C2014 C 0.75355 0.05802 0.95235 0.0
C2015 C 0.76927 0.06826 0.94187 0.0
H2016 H 0.66112 0.95341 0.98937 0.0
H2017 H 0.63815 0.95722 0.04858 0.0
H2018 H 0.66497 0.93144 0.00611 0.0
H2019 H 0.64193 0.93526 0.06517 0.0
H2020 H 0.67363 0.91421 0.09562 0.0
H2021 H 0.66751 0.93419 0.07759 0.0
H2022 H 0.64858 0.90161 0.02088 0.0
H2023 H 0.65498 0.88166 0.03887 0.0
C2024 C 0.65671 0.94944 0.00585 0.0
C2025 C 0.64944 0.95717 0.01768 0.0
C2026 C 0.65886 0.93681 0.0154 0.0
C2027 C 0.65389 0.93174 0.03702 0.0
C2028 C 0.64612 0.93908 0.04859 0.0
C2029 C 0.64386 0.9516 0.03901 0.0
C2030 C 0.66827 0.91136 0.07925 0.0
C2031 C 0.66485 0.89641 0.06863 0.0
C2032 C 0.66458 0.92271 0.06902 0.0
C2033 C 0.65749 0.91943 0.04785 0.0
C2034 C 0.65412 0.90451 0.03715 0.0
C2035 C 0.65766 0.89305 0.0475 0.0
H2036 H 0.02709 0.69775 0.03148 0.0
H2037 H 0.07907 0.70966 0.01984 0.0
H2038 H 0.03853 0.72626 0.04657 0.0
H2039 H 0.09041 0.73798 0.03495 0.0
H2040 H 0.10611 0.79196 0.04866 0.0
H2041 H 0.09182 0.7652 0.02847 0.0
H2042 H 0.05525 0.74125 0.0804 0.0
H2043 H 0.06965 0.76804 0.10074 0.0
C2044 C 0.04093 0.7065 0.03186 0.0
C2045 C 0.05218 0.70139 0.02455 0.0
C2046 C 0.04746 0.72278 0.04063 0.0
C2047 C 0.06536 0.73433 0.04201 0.0
C2048 C 0.07655 0.72944 0.03391 0.0
C2049 C 0.07004 0.71315 0.02535 0.0
C2050 C 0.09497 0.781 0.05574 0.0
C2051 C 0.08917 0.78205 0.07645 0.0
C2052 C 0.08678 0.7657 0.04415 0.0
C2053 C 0.07254 0.75109 0.05295 0.0
C2054 C 0.06612 0.75234 0.07312 0.0
C2055 C 0.07437 0.76768 0.08477 0.0
H2056 H 0.29983 0.32813 0.04809 0.0
H2057 H 0.29247 0.3681 0.02397 0.0
H2058 H 0.27016 0.31285 0.06176 0.0
H2059 H 0.26293 0.35276 0.03712 0.0
H2060 H 0.23121 0.31524 0.11261 0.0
H2061 H 0.25745 0.32254 0.09296 0.0
H2062 H 0.23342 0.32441 0.03276 0.0
H2063 H 0.20708 0.31693 0.05242 0.0
C2064 C 0.29173 0.3334 0.04523 0.0
C2065 C 0.29842 0.34932 0.03514 0.0
C2066 C 0.27484 0.32472 0.0531 0.0
C2067 C 0.2643 0.33164 0.05046 0.0
C2068 C 0.27071 0.34705 0.03918 0.0
C2069 C 0.28764 0.35587 0.03178 0.0
C2070 C 0.23145 0.31687 0.09511 0.0
C2071 C 0.21722 0.31566 0.08401 0.0
C2072 C 0.24638 0.3209 0.08386 0.0
C2073 C 0.24743 0.32406 0.06137 0.0
C2074 C 0.2329 0.32204 0.05011 0.0
C2075 C 0.21786 0.31773 0.06132 0.0
H2076 H 0.70829 0.70442 0.38227 0.0
H2077 H 0.69435 0.66257 0.33826 0.0
H2078 H 0.73004 0.70002 0.3993 0.0
H2079 H 0.71574 0.65784 0.35572 0.0
H2080 H 0.76518 0.66195 0.38163 0.0
H2081 H 0.74594 0.66872 0.36193 0.0
H2082 H 0.73037 0.67947 0.42299 0.0
H2083 H 0.74971 0.67295 0.44251 0.0
C2084 C 0.70991 0.69433 0.37616 0.0
C2085 C 0.6995 0.68379 0.35899 0.0
C2086 C 0.7223 0.69172 0.38603 0.0
C2087 C 0.72452 0.67844 0.37907 0.0
C2088 C 0.71451 0.66828 0.36139 0.0
C2089 C 0.70217 0.67095 0.35143 0.0
C2090 C 0.75759 0.66572 0.3908 0.0
C2091 C 0.75901 0.66698 0.41362 0.0
C2092 C 0.74656 0.66959 0.37953 0.0
C2093 C 0.73665 0.67474 0.39084 0.0
C2094 C 0.73807 0.67593 0.41368 0.0
C2095 C 0.74913 0.67214 0.42491 0.0
H2096 H 0.33386 0.02325 0.37652 0.0
H2097 H 0.28199 0.01046 0.36026 0.0
H2098 H 0.33976 0.04991 0.39273 0.0
H2099 H 0.28787 0.03709 0.37675 0.0
H2100 H 0.31158 0.09476 0.38704 0.0
H2101 H 0.30545 0.06806 0.37056 0.0
H2102 H 0.33126 0.05984 0.42448 0.0
H2103 H 0.33725 0.08641 0.44108 0.0
C2104 C 0.32369 0.0261 0.37643 0.0
C2105 C 0.30744 0.01469 0.36709 0.0
C2106 C 0.32705 0.04135 0.38585 0.0
C2107 C 0.31428 0.04561 0.38608 0.0
C2108 C 0.29804 0.03426 0.37664 0.0
C2109 C 0.29465 0.01895 0.3673 0.0
C2110 C 0.31581 0.08719 0.3955 0.0
C2111 C 0.32494 0.09278 0.41539 0.0
C2112 C 0.3123 0.07188 0.38603 0.0
C2113 C 0.31788 0.06183 0.39619 0.0
C2114 C 0.32701 0.06741 0.41607 0.0
C2115 C 0.33047 0.08267 0.42556 0.0
H2116 H 0.97132 0.27255 0.37269 0.0
H2117 H 0.9757 0.32062 0.38679 0.0
H2118 H 0.94207 0.25745 0.38621 0.0
H2119 H 0.94622 0.30531 0.40096 0.0
H2120 H 0.8859 0.26753 0.40772 0.0
H2121 H 0.91472 0.28532 0.39201 0.0
H2122 H 0.93095 0.25356 0.42292 0.0
H2123 H 0.90239 0.23588 0.43814 0.0
C2124 C 0.96599 0.27991 0.37862 0.0
C2125 C 0.9759 0.29777 0.37898 0.0
C2126 C 0.94924 0.27124 0.38648 0.0
C2127 C 0.94199 0.28019 0.39515 0.0
C2128 C 0.9515 0.29809 0.39443 0.0
C2129 C 0.96835 0.30684 0.38635 0.0
C2130 C 0.89575 0.26454 0.41125 0.0
C2131 C 0.89189 0.25018 0.42377 0.0
C2132 C 0.9122 0.27469 0.4023 0.0
C2133 C 0.92496 0.27061 0.40585 0.0
C2134 C 0.92125 0.25675 0.41933 0.0
C2135 C 0.90491 0.24664 0.42811 0.0
H2136 H 0.00571 0.38274 0.37428 0.0
H2137 H 0.03447 0.38153 0.31955 0.0
H2138 H 0.00381 0.40564 0.35696 0.0
H2139 H 0.03222 0.4041 0.30207 0.0
H2140 H 0.03882 0.4551 0.28501 0.0
H2141 H 0.04219 0.43398 0.30477 0.0
H2142 H 0.98943 0.40982 0.3262 0.0
H2143 H 0.9863 0.43141 0.30722 0.0
C2144 C 0.01164 0.38736 0.35858 0.0
C2145 C 0.02022 0.38028 0.34831 0.0
C2146 C 0.01046 0.40042 0.34859 0.0
C2147 C 0.01783 0.40669 0.32809 0.0
C2148 C 0.0266 0.39975 0.31798 0.0
C2149 C 0.0278 0.38672 0.32797 0.0
C2150 C 0.02801 0.44544 0.2942 0.0
C2151 C 0.01228 0.44496 0.2945 0.0
C2152 C 0.02988 0.4332 0.30533 0.0
C2153 C 0.01606 0.42015 0.31701 0.0
C2154 C 0.0004 0.41979 0.31755 0.0
C2155 C 0.99853 0.43204 0.30643 0.0
H2156 H 0.64308 0.64371 0.3274 0.0
H2157 H 0.59199 0.63525 0.33559 0.0
H2158 H 0.63039 0.61473 0.31318 0.0
H2159 H 0.57942 0.60643 0.32148 0.0
H2160 H 0.5612 0.55119 0.31199 0.0
H2161 H 0.57652 0.57854 0.3308 0.0
H2162 H 0.61347 0.59947 0.27887 0.0
H2163 H 0.59797 0.57213 0.25978 0.0
C2164 C 0.62916 0.63562 0.32643 0.0
C2165 C 0.61854 0.6418 0.33256 0.0
C2166 C 0.62193 0.61908 0.31818 0.0
C2167 C 0.60393 0.60833 0.31623 0.0
C2168 C 0.59333 0.61435 0.32301 0.0
C2169 C 0.60054 0.6309 0.33098 0.0
C2170 C 0.57263 0.5616 0.3046 0.0
C2171 C 0.5782 0.55955 0.2842 0.0
C2172 C 0.58142 0.57724 0.31541 0.0
C2173 C 0.59606 0.59118 0.30619 0.0
C2174 C 0.60227 0.58891 0.28643 0.0
C2175 C 0.5934 0.57324 0.27552 0.0
H2176 H 0.35891 0.96924 0.28813 0.0
H2177 H 0.37209 0.00441 0.34162 0.0
H2178 H 0.38883 0.98472 0.2766 0.0
H2179 H 0.40244 0.0198 0.3302 0.0
H2180 H 0.45418 0.01743 0.31489 0.0
H2181 H 0.42531 0.00908 0.32755 0.0
H2182 H 0.41123 0.01577 0.26255 0.0
H2183 H 0.44 0.02417 0.24991 0.0
C2184 C 0.36823 0.98034 0.29739 0.0
C2185 C 0.36322 0.9856 0.31582 0.0
C2186 C 0.38532 0.98926 0.29068 0.0
C2187 C 0.39786 0.00347 0.30247 0.0
C2188 C 0.39293 0.00888 0.32085 0.0
C2189 C 0.37564 1.00013 0.32732 0.0
C2190 C 0.44501 0.01746 0.30346 0.0
C2191 C 0.44926 0.02135 0.28141 0.0
C2192 C 0.42859 0.01282 0.31073 0.0
C2193 C 0.41611 0.01174 0.29597 0.0
C2194 C 0.42066 0.01651 0.27421 0.0
C2195 C 0.43712 0.02138 0.26702 0.0
H2196 H 0.64101 0.0051 0.36021 0.0
H2197 H 0.63254 0.97071 0.30726 0.0
H2198 H 0.6193 0.01022 0.34454 0.0
H2199 H 0.61111 0.9761 0.2914 0.0
H2200 H 0.56322 0.97868 0.27776 0.0
H2201 H 0.58268 0.97177 0.29637 0.0
H2202 H 0.61664 0.02483 0.31302 0.0
H2203 H 0.59683 0.03163 0.29516 0.0
C2204 C 0.63444 0.99854 0.34531 0.0
C2205 C 0.63857 0.98754 0.33496 0.0
C2206 C 0.62209 0.00158 0.33624 0.0
C2207 C 0.61356 0.99368 0.31662 0.0
C2208 C 0.61731 0.98228 0.30664 0.0
C2209 C 0.62966 0.97924 0.3157 0.0
C2210 C 0.57472 0.98884 0.28565 0.0
C2211 C 0.57845 0.00572 0.28497 0.0
C2212 C 0.58597 0.98491 0.29612 0.0
C2213 C 0.60123 0.99774 0.30618 0.0
C2214 C 0.6049 0.0146 0.30567 0.0
C2215 C 0.59365 0.01854 0.29518 0.0
H2216 H 0.05294 0.66407 0.3396 0.0
H2217 H 0.00071 0.64819 0.32037 0.0
H2218 H 0.04897 0.63767 0.32484 0.0
H2219 H 0.9969 0.62209 0.30511 0.0
H2220 H 0.98973 0.56963 0.29842 0.0
H2221 H 0.99391 0.59553 0.31509 0.0
H2222 H 0.04593 0.6237 0.29068 0.0
H2223 H 0.04179 0.59772 0.27429 0.0
C2224 C 0.04063 0.65498 0.33218 0.0
C2225 C 0.02715 0.65826 0.33119 0.0
C2226 C 0.03838 0.63988 0.32359 0.0
C2227 C 0.02261 0.62771 0.31375 0.0
C2228 C 0.00913 0.63101 0.31286 0.0
C2229 C 0.01135 0.64606 0.3215 0.0
C2230 C 0.00204 0.58137 0.29656 0.0
C2231 C 0.01542 0.58162 0.285 0.0
C2232 C 0.00444 0.59624 0.30609 0.0
C2233 C 0.02025 0.61176 0.3042 0.0
C2234 C 0.03368 0.61195 0.29277 0.0
C2235 C 0.0313 0.59706 0.28333 0.0
H2236 H 0.36217 0.35285 0.31478 0.0
H2237 H 0.36888 0.40102 0.33433 0.0
H2238 H 0.39087 0.36802 0.29825 0.0
H2239 H 0.39731 0.41595 0.31822 0.0
H2240 H 0.43157 0.43687 0.26003 0.0
H2241 H 0.4045 0.41918 0.27873 0.0
H2242 H 0.4237 0.38852 0.30526 0.0
H2243 H 0.45113 0.40646 0.28638 0.0
C2244 C 0.36991 0.36661 0.31599 0.0
C2245 C 0.36318 0.37578 0.32549 0.0
C2246 C 0.38629 0.37526 0.30653 0.0
C2247 C 0.3961 0.39316 0.30653 0.0
C2248 C 0.38983 0.40217 0.31749 0.0
C2249 C 0.37357 0.3936 0.3268 0.0
C2250 C 0.43007 0.42638 0.26987 0.0
C2251 C 0.44357 0.42324 0.2721 0.0
C2252 C 0.41458 0.41626 0.2806 0.0
C2253 C 0.41216 0.40272 0.29384 0.0
C2254 C 0.42528 0.39894 0.29522 0.0
C2255 C 0.44092 0.40916 0.28442 0.0
H2256 H 0.32922 0.28822 0.32481 0.0
H2257 H 0.3071 0.29388 0.38368 0.0
H2258 H 0.33289 0.26644 0.34258 0.0
H2259 H 0.31072 0.27215 0.40127 0.0
H2260 H 0.3402 0.24938 0.43302 0.0
H2261 H 0.33573 0.27016 0.41406 0.0
H2262 H 0.31553 0.23688 0.35807 0.0
H2263 H 0.32026 0.21614 0.37697 0.0
C2264 C 0.32502 0.28474 0.34145 0.0
C2265 C 0.31794 0.29285 0.35284 0.0
C2266 C 0.32707 0.27223 0.35159 0.0
C2267 C 0.32221 0.26769 0.37337 0.0
C2268 C 0.31482 0.27556 0.38458 0.0
C2269 C 0.31265 0.28794 0.37443 0.0
C2270 C 0.33494 0.24656 0.4166 0.0
C2271 C 0.3306 0.23114 0.40648 0.0
C2272 C 0.33222 0.25838 0.40583 0.0
C2273 C 0.3252 0.25511 0.38461 0.0
C2274 C 0.32103 0.23978 0.37437 0.0
C2275 C 0.32361 0.22787 0.38524 0.0
H2276 H 0.7466 0.03654 0.35526 0.0
H2277 H 0.69565 0.02822 0.36447 0.0
H2278 H 0.75932 0.06457 0.37171 0.0
H2279 H 0.70848 0.0563 0.3815 0.0
H2280 H 0.74119 0.11488 0.39564 0.0
H2281 H 0.72679 0.0875 0.37628 0.0
H2282 H 0.76069 0.07421 0.40867 0.0
H2283 H 0.77502 0.10137 0.42765 0.0
C2284 C 0.7381 0.04073 0.36069 0.0
C2285 C 0.7201 0.03005 0.35878 0.0
C2286 C 0.7454 0.05678 0.37026 0.0
C2287 C 0.7349 0.06253 0.37832 0.0
C2288 C 0.71691 0.05224 0.37544 0.0
C2289 C 0.70958 0.03614 0.36572 0.0
C2290 C 0.7454 0.10599 0.39869 0.0
C2291 C 0.75939 0.11034 0.41288 0.0
C2292 C 0.73719 0.09035 0.38762 0.0
C2293 C 0.74282 0.07882 0.39062 0.0
C2294 C 0.75636 0.08299 0.40548 0.0
C2295 C 0.76455 0.09854 0.41643 0.0
H2296 H 0.96716 0.66382 0.38311 0.0
H2297 H 0.95922 0.70328 0.35843 0.0
H2298 H 0.9377 0.64863 0.39742 0.0
H2299 H 0.92991 0.68806 0.37228 0.0
H2300 H 0.89881 0.65054 0.44844 0.0
H2301 H 0.925 0.65806 0.42851 0.0
H2302 H 0.90056 0.65992 0.36867 0.0
H2303 H 0.87433 0.65232 0.38859 0.0
C2304 C 0.95899 0.66901 0.38029 0.0
C2305 C 0.96546 0.68476 0.36982 0.0
C2306 C 0.94221 0.66038 0.38854 0.0
C2307 C 0.93157 0.66719 0.38594 0.0
C2308 C 0.93776 0.68243 0.37433 0.0
C2309 C 0.95457 0.6912 0.36653 0.0
C2310 C 0.89896 0.65225 0.43096 0.0
C2311 C 0.88464 0.65099 0.42005 0.0
C2312 C 0.91386 0.6564 0.41955 0.0
C2313 C 0.91479 0.65961 0.39708 0.0
C2314 C 0.90017 0.65755 0.386 0.0
C2315 C 0.88517 0.65314 0.39737 0.0
H2316 H 0.35896 0.99414 0.67365 0.0
H2317 H 0.37383 0.03727 0.7157 0.0
H2318 H 0.38064 0.98985 0.69105 0.0
H2319 H 0.39594 0.03335 0.73263 0.0
H2320 H 0.41682 0.00796 0.77671 0.0
H2321 H 0.397 0.01382 0.75717 0.0
H2322 H 0.41068 0.00046 0.69653 0.0
H2323 H 0.43029 0.99425 0.7163 0.0
C2324 C 0.36707 0.00291 0.68634 0.0
C2325 C 0.36457 0.01597 0.69341 0.0
C2326 C 0.37957 0.00049 0.69628 0.0
C2327 C 0.38996 0.01115 0.71342 0.0
C2328 C 0.38792 0.02466 0.71982 0.0
C2329 C 0.37533 0.027 0.71 0.0
C2330 C 0.41568 0.0064 0.75918 0.0
C2331 C 0.42513 0.00068 0.74803 0.0
C2332 C 0.40437 0.00983 0.74794 0.0
C2333 C 0.4023 0.00775 0.72521 0.0
C2334 C 0.41178 0.00202 0.71404 0.0
C2335 C 0.42303 0.99846 0.72535 0.0
H2336 H 0.01569 0.36094 0.73138 0.0
H2337 H 0.96859 0.34613 0.69565 0.0
H2338 H 0.01676 0.38647 0.74412 0.0
H2339 H 0.96977 0.37189 0.70833 0.0
H2340 H 0.9689 0.40994 0.75762 0.0
H2341 H 0.96707 0.38447 0.74274 0.0
H2342 H 0.02162 0.41352 0.72938 0.0
H2343 H 0.02344 0.43899 0.74396 0.0
C2344 C 0.00557 0.36313 0.72619 0.0
C2345 C 0.99205 0.35147 0.71247 0.0
C2346 C 0.00625 0.37785 0.7334 0.0
C2347 C 0.9934 0.38126 0.72717 0.0
C2348 C 0.9798 0.36956 0.71355 0.0
C2349 C 0.97917 0.35485 0.7062 0.0
C2350 C 0.98046 0.41096 0.75121 0.0
C2351 C 0.99635 0.42651 0.75215 0.0
C2352 C 0.9794 0.39635 0.74271 0.0
C2353 C 0.99423 0.39694 0.73504 0.0
C2354 C 0.01002 0.41257 0.73554 0.0
C2355 C 0.01107 0.42716 0.74393 0.0
H2356 H 0.63639 0.65401 0.71507 0.0
H2357 H 0.62534 0.60405 0.69632 0.0
H2358 H 0.60635 0.64151 0.7265 0.0
H2359 H 0.59566 0.59173 0.7076 0.0
H2360 H 0.54078 0.5737 0.71579 0.0
H2361 H 0.56869 0.5913 0.69852 0.0
H2362 H 0.58879 0.62136 0.75723 0.0
H2363 H 0.56078 0.6037 0.77454 0.0
C2364 C 0.62751 0.64044 0.71308 0.0
C2365 C 0.63322 0.62998 0.70493 0.0
C2366 C 0.61038 0.63331 0.7197 0.0
C2367 C 0.59867 0.61567 0.71787 0.0
C2368 C 0.60429 0.60539 0.70893 0.0
C2369 C 0.62136 0.61244 0.70263 0.0
C2370 C 0.55109 0.58424 0.72488 0.0
C2371 C 0.54873 0.58716 0.74662 0.0
C2372 C 0.56703 0.59432 0.715 0.0
C2373 C 0.58097 0.60752 0.72665 0.0
C2374 C 0.57825 0.61131 0.74782 0.0
C2375 C 0.56223 0.6012 0.75774 0.0
H2376 H 0.69443 0.71043 0.64925 0.0
H2377 H 0.67032 0.7151 0.7068 0.0
H2378 H 0.69126 0.73237 0.63139 0.0
H2379 H 0.66709 0.73704 0.68879 0.0
H2380 H 0.67924 0.78713 0.65493 0.0
H2381 H 0.6843 0.76669 0.67402 0.0
H2382 H 0.66649 0.73416 0.61723 0.0
H2383 H 0.66171 0.75467 0.59807 0.0
C2384 C 0.68858 0.71622 0.65818 0.0
C2385 C 0.68256 0.71094 0.67944 0.0
C2386 C 0.68666 0.72872 0.64787 0.0
C2387 C 0.67879 0.73632 0.65861 0.0
C2388 C 0.67329 0.73147 0.68013 0.0
C2389 C 0.67509 0.71886 0.69042 0.0
C2390 C 0.6765 0.77565 0.64652 0.0
C2391 C 0.67006 0.77249 0.62501 0.0
C2392 C 0.67928 0.7639 0.6575 0.0
C2393 C 0.67585 0.74885 0.64711 0.0
C2394 C 0.66944 0.74573 0.62559 0.0
C2395 C 0.66653 0.75739 0.6147 0.0
H2396 H 0.25713 0.96303 0.67486 0.0
H2397 H 0.30912 0.9746 0.66427 0.0
H2398 H 0.24578 0.93463 0.66002 0.0
H2399 H 0.29766 0.94601 0.64941 0.0
H2400 H 0.22965 0.88064 0.64645 0.0
H2401 H 0.24411 0.90731 0.66681 0.0
H2402 H 0.28117 0.93104 0.61535 0.0
H2403 H 0.2666 0.90431 0.59484 0.0
C2404 C 0.26615 0.95944 0.66967 0.0
C2405 C 0.28402 0.97113 0.67066 0.0
C2406 C 0.25964 0.94311 0.66125 0.0
C2407 C 0.27083 0.9381 0.65348 0.0
C2408 C 0.28873 0.94957 0.65511 0.0
C2409 C 0.29527 0.9659 0.66375 0.0
C2410 C 0.24095 0.89152 0.63953 0.0
C2411 C 0.24681 0.89045 0.61887 0.0
C2412 C 0.24924 0.90678 0.65121 0.0
C2413 C 0.26364 0.92132 0.64256 0.0
C2414 C 0.27016 0.92001 0.6225 0.0
C2415 C 0.26182 0.90471 0.61075 0.0
H2416 H 0.04099 0.30253 0.6751 0.0
H2417 H 0.03257 0.34135 0.64914 0.0
H2418 H 0.07051 0.31813 0.66211 0.0
H2419 H 0.06232 0.35699 0.63573 0.0
H2420 H 0.12584 0.35329 0.64667 0.0
H2421 H 0.0994 0.34578 0.66591 0.0
H2422 H 0.0761 0.34856 0.60554 0.0
H2423 H 0.10259 0.35619 0.58631 0.0
C2424 C 0.04558 0.31458 0.66692 0.0
C2425 C 0.03449 0.32069 0.66299 0.0
C2426 C 0.06252 0.32357 0.65961 0.0
C2427 C 0.06869 0.33875 0.64787 0.0
C2428 C 0.05784 0.34528 0.6447 0.0
C2429 C 0.0409 0.33641 0.65244 0.0
C2430 C 0.11523 0.35272 0.63762 0.0
C2431 C 0.11619 0.35515 0.61497 0.0
C2432 C 0.10009 0.34835 0.64861 0.0
C2433 C 0.08569 0.34651 0.63719 0.0
C2434 C 0.08704 0.35002 0.61478 0.0
C2435 C 0.10212 0.35421 0.60375 0.0
H2436 H 0.29136 0.29967 0.65171 0.0
H2437 H 0.30877 0.34277 0.69478 0.0
H2438 H 0.26954 0.30484 0.63626 0.0
H2439 H 0.28703 0.34792 0.67924 0.0
H2440 H 0.26412 0.36439 0.62259 0.0
H2441 H 0.28349 0.35776 0.64188 0.0
H2442 H 0.24252 0.30513 0.64662 0.0
H2443 H 0.22283 0.31179 0.628 0.0
C2444 C 0.2904 0.31011 0.65806 0.0
C2445 C 0.30185 0.32084 0.67441 0.0
C2446 C 0.27787 0.31303 0.64926 0.0
C2447 C 0.27669 0.32686 0.65645 0.0
C2448 C 0.28779 0.33728 0.67323 0.0
C2449 C 0.30016 0.33424 0.68221 0.0
C2450 C 0.25907 0.35146 0.6281 0.0
C2451 C 0.24185 0.33865 0.62366 0.0
C2452 C 0.27023 0.34766 0.6391 0.0
C2453 C 0.26451 0.33093 0.64573 0.0
C2454 C 0.24731 0.31811 0.64148 0.0
C2455 C 0.23607 0.32194 0.63071 0.0
H2456 H 0.65983 0.96273 0.69543 0.0
H2457 H 0.69337 0.99387 0.64367 0.0
H2458 H 0.6573 0.93754 0.67867 0.0
H2459 H 0.69055 0.96865 0.62671 0.0
H2460 H 0.69505 0.92246 0.61311 0.0
H2461 H 0.69851 0.94749 0.63151 0.0
H2462 H 0.64426 0.91958 0.64683 0.0
H2463 H 0.64095 0.89434 0.62918 0.0
C2464 C 0.66668 0.96422 0.68049 0.0
C2465 C 0.6768 0.98034 0.6709 0.0
C2466 C 0.66513 0.94974 0.6708 0.0
C2467 C 0.67367 0.95103 0.65129 0.0
C2468 C 0.68396 0.9672 0.64186 0.0
C2469 C 0.68551 0.98167 0.65154 0.0
C2470 C 0.6839 0.92159 0.62063 0.0
C2471 C 0.66772 0.90636 0.61968 0.0
C2472 C 0.68584 0.93601 0.63097 0.0
C2473 C 0.67166 0.93558 0.64063 0.0
C2474 C 0.6555 0.92032 0.63977 0.0
C2475 C 0.65355 0.9059 0.62941 0.0
H2476 H 0.03867 0.73383 0.65991 0.0
H2477 H 0.02962 0.6841 0.64395 0.0
H2478 H 0.0682 0.74692 0.64756 0.0
H2479 H 0.05948 0.69741 0.6313 0.0
H2480 H 0.10484 0.73579 0.58279 0.0
H2481 H 0.07656 0.71798 0.59939 0.0
H2482 H 0.09564 0.74766 0.65848 0.0
H2483 H 0.1239 0.76528 0.64209 0.0
C2484 C 0.04302 0.72567 0.65383 0.0
C2485 C 0.0318 0.70793 0.65282 0.0
C2486 C 0.05999 0.73318 0.64692 0.0
C2487 C 0.06613 0.72316 0.63861 0.0
C2488 C 0.05501 0.70539 0.63765 0.0
C2489 C 0.038 0.69781 0.64493 0.0
C2490 C 0.10312 0.7382 0.59952 0.0
C2491 C 0.11649 0.75212 0.61101 0.0
C2492 C 0.08694 0.72801 0.60901 0.0
C2493 C 0.08389 0.73163 0.63008 0.0
C2494 C 0.0976 0.74479 0.64206 0.0
C2495 C 0.11373 0.7549 0.63266 0.0
H2496 H 0.96646 0.61432 0.68604 0.0
H2497 H 0.01679 0.64781 0.71485 0.0
H2498 H 0.96783 0.58963 0.69812 0.0
H2499 H 0.01807 0.62329 0.72694 0.0
H2500 H 0.0224 0.5766 0.7285 0.0
H2501 H 0.02028 0.59964 0.71213 0.0
H2502 H 0.96758 0.57596 0.7335 0.0
H2503 H 0.96973 0.55298 0.75012 0.0
C2504 C 0.97783 0.61641 0.69483 0.0
C2505 C 0.9915 0.63302 0.69951 0.0
C2506 C 0.97857 0.60229 0.70183 0.0
C2507 C 0.99307 0.60451 0.71343 0.0
C2508 C 0.00682 0.62113 0.71779 0.0
C2509 C 0.00602 0.6352 0.71097 0.0
C2510 C 0.01036 0.5763 0.72974 0.0
C2511 C 0.99629 0.563 0.74082 0.0
C2512 C 0.00914 0.58949 0.72032 0.0
C2513 C 0.9938 0.58968 0.72166 0.0
C2514 C 0.97951 0.57608 0.73201 0.0
C2515 C 0.98075 0.5629 0.74152 0.0
H2516 H 0.40885 0.3747 0.68553 0.0
H2517 H 0.35697 0.36229 0.69915 0.0
H2518 H 0.42017 0.40331 0.69953 0.0
H2519 H 0.36841 0.39114 0.71312 0.0
H2520 H 0.43616 0.4571 0.71295 0.0
H2521 H 0.42125 0.43024 0.693 0.0
H2522 H 0.38578 0.40681 0.74613 0.0
H2523 H 0.40075 0.43373 0.76615 0.0
C2524 C 0.39983 0.37816 0.6912 0.0
C2525 C 0.38202 0.36617 0.69136 0.0
C2526 C 0.40632 0.39461 0.69911 0.0
C2527 C 0.39518 0.39947 0.70749 0.0
C2528 C 0.37731 0.3877 0.70693 0.0
C2529 C 0.37077 0.37123 0.69881 0.0
C2530 C 0.4251 0.44624 0.7203 0.0
C2531 C 0.41979 0.44745 0.74127 0.0
C2532 C 0.41655 0.43088 0.70886 0.0
C2533 C 0.40248 0.41636 0.7181 0.0
C2534 C 0.39651 0.41781 0.73851 0.0
C2535 C 0.40509 0.43322 0.74999 0.0
H2536 H 0.62951 0.03687 0.67986 0.0
H2537 H 0.63465 1.0 0.71746 0.0
H2538 H 0.60029 0.02503 0.69301 0.0
H2539 H 0.60552 0.98853 0.73163 0.0
H2540 H 0.54877 0.9683 0.74794 0.0
H2541 H 0.57416 0.97457 0.72685 0.0
H2542 H 0.59121 0.02806 0.72786 0.0
H2543 H 0.56576 0.02175 0.74783 0.0
C2544 C 0.62422 0.02602 0.69072 0.0
C2545 C 0.63432 0.01944 0.69788 0.0
C2546 C 0.60754 0.01932 0.6984 0.0
C2547 C 0.60074 0.00616 0.71387 0.0
C2548 C 0.61036 0.99867 0.71973 0.0
C2549 C 0.62704 0.00522 0.71166 0.0
C2550 C 0.55786 0.98135 0.74333 0.0
C2551 C 0.55532 0.99455 0.74969 0.0
C2552 C 0.57245 0.98494 0.73142 0.0
C2553 C 0.58468 0.00179 0.72552 0.0
C2554 C 0.58193 0.01489 0.7317 0.0
C2555 C 0.56744 0.01131 0.7435 0.0
loop_
_geom_bond_atom_site_label_1
_geom_bond_atom_site_label_2
_geom_bond_distance
_geom_bond_site_symmetry_2
_ccdc_geom_bond_type
Zn0 O3 2.031 1_554 S
Zn0 O5 2.049 . S
Zn0 O10 2.067 1_554 S
Zn1 O2 1.962 1_455 S
Zn1 O4 1.986 . S
Zn1 O6 1.996 1_455 S
Zn1 O9 1.943 1_554 S
O2 Zn1 1.962 1_655 S
O2 C7 1.279 . S
O3 Zn0 2.031 1_556 S
O3 C7 1.258 1_556 S
O4 Zn1 1.986 . S
O4 C11 1.262 . S
O5 Zn0 2.049 . S
O5 C13 1.260 . S
O6 Zn1 1.996 1_655 S
O6 C13 1.257 . S
C7 O2 1.279 . S
C7 O3 1.258 1_554 S
C8 O9 1.249 . S
C8 O10 1.270 1_455 S
O9 Zn1 1.943 1_556 S
O9 C8 1.249 . S
O10 Zn0 2.067 1_556 S
O10 C8 1.270 1_655 S
C11 O4 1.262 . S
C11 O12 1.232 . S
O12 C11 1.232 . S
C13 O5 1.260 . S
C13 O6 1.257 . S
Zn14 O17 2.031 1_554 S
Zn14 O19 2.049 . S
Zn14 O24 2.067 1_554 S
Zn15 O16 1.962 . S
Zn15 O18 1.986 . S
Zn15 O20 1.996 . S
Zn15 O23 1.943 1_554 S
O16 Zn15 1.962 . S
O16 C21 1.228 1_554 S
O17 Zn14 2.031 1_556 S
O17 C21 1.283 . S
O18 Zn15 1.986 . S
O18 C25 1.262 . S
O19 Zn14 2.049 . S
O19 C27 1.260 . S
O20 Zn15 1.996 . S
O20 C27 1.257 . S
C21 O16 1.228 1_556 S
C21 O17 1.283 . S
C22 O23 1.249 . S
C22 O24 1.270 . S
O23 Zn15 1.943 1_556 S
O23 C22 1.249 . S
O24 Zn14 2.067 1_556 S
O24 C22 1.270 . S
C25 O18 1.262 . S
C25 O26 1.232 . S
O26 C25 1.232 . S
C27 O19 1.260 . S
C27 O20 1.257 . S
Zn28 O31 2.031 . S
Zn28 O33 2.049 1_554 S
Zn28 O38 2.067 . S
Zn29 O30 1.962 1_545 S
Zn29 O32 1.986 1_554 S
Zn29 O34 1.996 1_544 S
Zn29 O37 1.943 . S
O30 Zn29 1.962 1_565 S
O30 C35 1.254 . S
O31 Zn28 2.031 . S
O31 C35 1.269 . S
O32 Zn29 1.986 1_556 S
O32 C39 1.262 . S
O33 Zn28 2.049 1_556 S
O33 C41 1.260 . S
O34 Zn29 1.996 1_566 S
O34 C41 1.257 . S
C35 O30 1.254 . S
C35 O31 1.269 . S
C36 O37 1.249 . S
C36 O38 1.270 1_545 S
O37 Zn29 1.943 . S
O37 C36 1.249 . S
O38 Zn28 2.067 . S
O38 C36 1.270 1_565 S
C39 O32 1.262 . S
C39 O40 1.232 1_556 S
O40 C39 1.232 1_554 S
C41 O33 1.260 . S
C41 O34 1.257 . S
Zn42 O45 2.031 . S
Zn42 O47 2.049 1_554 S
Zn42 O52 2.067 . S
Zn43 O44 1.962 1_655 S
Zn43 O46 1.986 1_554 S
Zn43 O48 1.996 1_654 S
Zn43 O51 1.943 . S
O44 Zn43 1.962 1_455 S
O44 C49 1.254 . S
O45 Zn42 2.031 . S
O45 C49 1.269 . S
O46 Zn43 1.986 1_556 S
O46 C53 1.295 . S
O47 Zn42 2.049 1_556 S
O47 C55 1.260 . S
O48 Zn43 1.996 1_456 S
O48 C55 1.257 . S
C49 O44 1.254 . S
C49 O45 1.269 . S
C50 O51 1.249 . S
C50 O52 1.270 1_655 S
O51 Zn43 1.943 . S
O51 C50 1.249 . S
O52 Zn42 2.067 . S
O52 C50 1.270 1_455 S
C53 O46 1.295 . S
C53 O54 1.183 1_556 S
O54 C53 1.183 1_554 S
C55 O47 1.260 . S
C55 O48 1.257 . S
Zn56 O59 2.031 . S
Zn56 O61 2.049 1_554 S
Zn56 O66 2.067 . S
Zn57 O58 1.962 . S
Zn57 O60 1.986 1_554 S
Zn57 O62 1.996 1_554 S
Zn57 O65 1.943 . S
O58 Zn57 1.962 . S
O58 C63 1.254 . S
O59 Zn56 2.031 . S
O59 C63 1.269 . S
O60 Zn57 1.986 1_556 S
O60 C67 1.262 . S
O61 Zn56 2.049 1_556 S
O61 C69 1.260 . S
O62 Zn57 1.996 1_556 S
O62 C69 1.257 . S
C63 O58 1.254 . S
C63 O59 1.269 . S
C64 O65 1.249 . S
C64 O66 1.270 . S
O65 Zn57 1.943 . S
O65 C64 1.249 . S
O66 Zn56 2.067 . S
O66 C64 1.270 . S
C67 O60 1.262 . S
C67 O68 1.232 1_556 S
O68 C67 1.232 1_554 S
C69 O61 1.260 . S
C69 O62 1.257 . S
Zn70 O73 2.031 1_554 S
Zn70 O75 2.049 . S
Zn70 O80 2.067 1_554 S
Zn71 O72 1.962 1_565 S
Zn71 O74 1.986 . S
Zn71 O76 1.996 1_565 S
Zn71 O79 1.949 . S
O72 Zn71 1.962 1_545 S
O72 C77 1.254 . S
O73 Zn70 2.031 1_556 S
O73 C77 1.269 1_556 S
O74 Zn71 1.986 . S
O74 C81 1.262 . S
O75 Zn70 2.049 . S
O75 C83 1.260 . S
O76 Zn71 1.996 1_545 S
O76 C83 1.257 . S
C77 O72 1.254 . S
C77 O73 1.269 1_554 S
C78 O79 1.245 1_556 S
C78 O80 1.270 1_565 S
O79 Zn71 1.949 . S
O79 C78 1.245 1_554 S
O80 Zn70 2.067 1_556 S
O80 C78 1.270 1_545 S
C81 O74 1.262 . S
C81 O82 1.232 . S
O82 C81 1.232 . S
C83 O75 1.260 . S
C83 O76 1.257 . S
Zn84 O87 2.031 . S
Zn84 O89 2.049 . S
Zn84 O94 2.067 . S
Zn85 O86 1.962 . S
Zn85 O88 1.986 . S
Zn85 O90 1.996 . S
Zn85 O93 1.943 . S
O86 Zn85 1.962 . S
O86 C91 1.254 . S
O87 Zn84 2.031 . S
O87 C91 1.269 . S
O88 Zn85 1.986 . S
O88 C95 1.262 . S
O89 Zn84 2.049 . S
O89 C97 1.260 . S
O90 Zn85 1.996 . S
O90 C97 1.257 . S
C91 O86 1.254 . S
C91 O87 1.269 . S
C92 O93 1.249 . S
C92 O94 1.270 . S
O93 Zn85 1.943 . S
O93 C92 1.249 . S
O94 Zn84 2.067 . S
O94 C92 1.270 . S
C95 O88 1.262 . S
C95 O96 1.232 . S
O96 C95 1.232 . S
C97 O89 1.260 . S
C97 O90 1.257 . S
Zn98 O101 2.031 . S
Zn98 O103 2.049 . S
Zn98 O108 2.067 . S
Zn99 O100 1.962 . S
Zn99 O102 1.986 1_565 S
Zn99 O104 1.996 . S
Zn99 O107 1.943 . S
O100 Zn99 1.962 . S
O100 C105 1.254 . S
O101 Zn98 2.031 . S
O101 C105 1.269 . S
O102 Zn99 1.986 1_545 S
O102 C109 1.262 . S
O103 Zn98 2.049 . S
O103 C111 1.260 . S
O104 Zn99 1.996 . S
O104 C111 1.257 . S
C105 O100 1.254 . S
C105 O101 1.269 . S
C106 O107 1.249 . S
C106 O108 1.270 . S
O107 Zn99 1.943 . S
O107 C106 1.249 . S
O108 Zn98 2.067 . S
O108 C106 1.270 . S
C109 O102 1.262 . S
C109 O110 1.232 . S
O110 C109 1.232 . S
C111 O103 1.260 . S
C111 O104 1.257 . S
Zn112 O115 2.031 . S
Zn112 O117 2.049 . S
Zn112 O122 2.067 . S
Zn113 O114 1.962 1_455 S
Zn113 O116 1.986 . S
Zn113 O118 1.996 . S
Zn113 O121 1.943 . S
O114 Zn113 1.962 1_655 S
O114 C119 1.254 . S
O115 Zn112 2.031 . S
O115 C119 1.269 1_455 S
O116 Zn113 1.986 . S
O116 C123 1.262 . S
O117 Zn112 2.049 . S
O117 C125 1.260 . S
O118 Zn113 1.996 . S
O118 C125 1.257 . S
C119 O114 1.254 . S
C119 O115 1.269 1_655 S
C120 O121 1.249 . S
C120 O122 1.270 . S
O121 Zn113 1.943 . S
O121 C120 1.249 . S
O122 Zn112 2.067 . S
O122 C120 1.270 . S
C123 O116 1.262 . S
C123 O124 1.232 . S
O124 C123 1.232 . S
C125 O117 1.260 . S
C125 O118 1.257 . S
Zn126 O129 2.031 . S
Zn126 O131 2.049 . S
Zn126 O136 2.067 . S
Zn127 O128 1.962 1_565 S
Zn127 O130 1.986 . S
Zn127 O132 1.996 . S
Zn127 O135 1.943 . S
O128 Zn127 1.962 1_545 S
O128 C133 1.254 . S
O129 Zn126 2.031 . S
O129 C133 1.269 1_565 S
O130 Zn127 1.986 . S
O130 C137 1.262 . S
O131 Zn126 2.049 . S
O131 C139 1.260 . S
O132 Zn127 1.996 . S
O132 C139 1.257 . S
C133 O128 1.254 . S
C133 O129 1.269 1_545 S
C134 O135 1.249 . S
C134 O136 1.270 . S
O135 Zn127 1.943 . S
O135 C134 1.249 . S
O136 Zn126 2.067 . S
O136 C134 1.270 . S
C137 O130 1.262 . S
C137 O138 1.232 . S
O138 C137 1.232 . S
C139 O131 1.260 . S
C139 O132 1.257 . S
Zn140 O143 2.031 . S
Zn140 O145 2.049 . S
Zn140 O150 2.067 . S
Zn141 O142 1.962 1_455 S
Zn141 O144 1.986 . S
Zn141 O146 1.996 . S
Zn141 O149 1.943 . S
O142 Zn141 1.962 1_655 S
O142 C147 1.254 . S
O143 Zn140 2.031 . S
O143 C147 1.269 1_455 S
O144 Zn141 1.986 . S
O144 C151 1.262 . S
O145 Zn140 2.049 . S
O145 C153 1.260 . S
O146 Zn141 1.996 . S
O146 C153 1.257 . S
C147 O142 1.254 . S
C147 O143 1.269 1_655 S
C148 O149 1.249 . S
C148 O150 1.270 . S
O149 Zn141 1.943 . S
O149 C148 1.249 . S
O150 Zn140 2.067 . S
O150 C148 1.270 . S
C151 O144 1.262 . S
C151 O152 1.232 . S
O152 C151 1.232 . S
C153 O145 1.260 . S
C153 O146 1.257 . S
Zn154 O157 2.031 . S
Zn154 O159 2.049 . S
Zn154 O164 2.067 . S
Zn155 O156 1.962 . S
Zn155 O158 1.986 . S
Zn155 O160 1.996 . S
Zn155 O163 1.943 . S
O156 Zn155 1.962 . S
O156 C161 1.254 . S
O157 Zn154 2.031 . S
O157 C161 1.269 . S
O158 Zn155 1.986 . S
O158 C165 1.262 . S
O159 Zn154 2.049 . S
O159 C167 1.260 . S
O160 Zn155 1.996 . S
O160 C167 1.257 . S
C161 O156 1.254 . S
C161 O157 1.269 . S
C162 O163 1.249 . S
C162 O164 1.270 . S
O163 Zn155 1.943 . S
O163 C162 1.249 . S
O164 Zn154 2.067 . S
O164 C162 1.270 . S
C165 O158 1.262 . S
C165 O166 1.232 . S
O166 C165 1.232 . S
C167 O159 1.260 . S
C167 O160 1.257 . S
Zn168 O171 2.031 . S
Zn168 O173 2.049 . S
Zn168 O178 2.067 . S
Zn169 O170 1.962 1_545 S
Zn169 O172 1.986 . S
Zn169 O174 1.996 . S
Zn169 O177 1.943 . S
O170 Zn169 1.962 1_565 S
O170 C175 1.254 . S
O171 Zn168 2.031 . S
O171 C175 1.269 1_545 S
O172 Zn169 1.986 . S
O172 C179 1.262 . S
O173 Zn168 2.049 . S
O173 C181 1.260 . S
O174 Zn169 1.996 . S
O174 C181 1.257 . S
C175 O170 1.254 . S
C175 O171 1.269 1_565 S
C176 O177 1.249 . S
C176 O178 1.270 . S
O177 Zn169 1.943 . S
O177 C176 1.249 . S
O178 Zn168 2.067 . S
O178 C176 1.270 . S
C179 O172 1.262 . S
C179 O180 1.232 . S
O180 C179 1.232 . S
C181 O173 1.260 . S
C181 O174 1.257 . S
Zn182 O185 2.049 . S
Zn182 O187 2.049 . S
Zn182 O192 2.067 . S
Zn183 O184 1.962 1_655 S
Zn183 O186 1.986 . S
Zn183 O188 1.996 . S
Zn183 O191 1.943 . S
O184 Zn183 1.962 1_455 S
O184 C189 1.254 . S
O185 Zn182 2.049 . S
O185 C189 1.250 1_655 S
O186 Zn183 1.986 . S
O186 C193 1.262 . S
O187 Zn182 2.049 . S
O187 C195 1.260 . S
O188 Zn183 1.996 . S
O188 C195 1.257 . S
C189 O184 1.254 . S
C189 O185 1.250 1_455 S
C190 O191 1.249 . S
C190 O192 1.270 . S
O191 Zn183 1.943 . S
O191 C190 1.249 . S
O192 Zn182 2.067 . S
O192 C190 1.270 . S
C193 O186 1.262 . S
C193 O194 1.232 . S
O194 C193 1.232 . S
C195 O187 1.260 . S
C195 O188 1.257 . S
Zn196 O199 2.031 . S
Zn196 O201 2.049 . S
Zn196 O206 2.067 . S
Zn197 O198 1.962 . S
Zn197 O200 1.986 . S
Zn197 O202 1.996 . S
Zn197 O205 1.943 . S
O198 Zn197 1.962 . S
O198 C203 1.254 . S
O199 Zn196 2.031 . S
O199 C203 1.269 . S
O200 Zn197 1.986 . S
O200 C207 1.262 . S
O201 Zn196 2.049 . S
O201 C209 1.260 . S
O202 Zn197 1.996 . S
O202 C209 1.257 . S
C203 O198 1.254 . S
C203 O199 1.269 . S
C204 O205 1.249 . S
C204 O206 1.270 . S
O205 Zn197 1.943 . S
O205 C204 1.249 . S
O206 Zn196 2.067 . S
O206 C204 1.270 . S
C207 O200 1.262 . S
C207 O208 1.232 . S
O208 C207 1.232 . S
C209 O201 1.260 . S
C209 O202 1.257 . S
Zn210 O213 2.031 . S
Zn210 O215 2.049 . S
Zn210 O220 2.067 . S
Zn211 O212 1.962 . S
Zn211 O214 1.986 . S
Zn211 O216 1.996 . S
Zn211 O219 1.943 . S
O212 Zn211 1.962 . S
O212 C217 1.254 . S
O213 Zn210 2.031 . S
O213 C217 1.269 . S
O214 Zn211 1.986 . S
O214 C221 1.262 . S
O215 Zn210 2.049 . S
O215 C223 1.260 . S
O216 Zn211 1.996 . S
O216 C223 1.257 . S
C217 O212 1.254 . S
C217 O213 1.269 . S
C218 O219 1.249 . S
C218 O220 1.270 . S
O219 Zn211 1.943 . S
O219 C218 1.249 . S
O220 Zn210 2.067 . S
O220 C218 1.270 . S
C221 O214 1.262 . S
C221 O222 1.232 . S
O222 C221 1.232 . S
C223 O215 1.260 . S
C223 O216 1.257 . S
Zn224 O227 2.031 . S
Zn224 O229 2.049 . S
Zn224 O234 2.067 . S
Zn225 O226 1.962 . S
Zn225 O228 1.986 1_545 S
Zn225 O230 1.996 . S
Zn225 O233 1.943 . S
O226 Zn225 1.962 . S
O226 C231 1.254 . S
O227 Zn224 2.031 . S
O227 C231 1.269 . S
O228 Zn225 1.986 1_565 S
O228 C235 1.262 . S
O229 Zn224 2.049 . S
O229 C237 1.260 . S
O230 Zn225 1.996 . S
O230 C237 1.257 . S
C231 O226 1.254 . S
C231 O227 1.269 . S
C232 O233 1.249 . S
C232 O234 1.270 . S
O233 Zn225 1.943 . S
O233 C232 1.249 . S
O234 Zn224 2.067 . S
O234 C232 1.270 . S
C235 O228 1.262 . S
C235 O236 1.232 . S
O236 C235 1.232 . S
C237 O229 1.260 . S
C237 O230 1.257 . S
Zn238 O241 2.031 . S
Zn238 O243 2.049 . S
Zn238 O248 2.067 . S
Zn239 O240 1.962 1_655 S
Zn239 O242 1.986 . S
Zn239 O244 1.996 . S
Zn239 O247 1.943 . S
O240 Zn239 1.962 1_455 S
O240 C245 1.254 . S
O241 Zn238 2.031 . S
O241 C245 1.269 1_655 S
O242 Zn239 1.986 . S
O242 C249 1.262 . S
O243 Zn238 2.049 . S
O243 C251 1.260 . S
O244 Zn239 1.996 . S
O244 C251 1.257 . S
C245 O240 1.254 . S
C245 O241 1.269 1_455 S
C246 O247 1.249 . S
C246 O248 1.270 . S
O247 Zn239 1.943 . S
O247 C246 1.249 . S
O248 Zn238 2.067 . S
O248 C246 1.270 . S
C249 O242 1.262 . S
C249 O250 1.232 . S
O250 C249 1.232 . S
C251 O243 1.260 . S
C251 O244 1.257 . S
H252 C271 0.949 . S
H253 C272 0.950 . S
H254 C274 0.950 . S
H255 C275 0.950 . S
H256 C277 0.950 . S
H257 C280 0.950 . S
H258 C281 0.950 . S
H259 C283 0.951 . S
H260 C284 0.949 . S
H261 C286 0.949 . S
H262 C287 0.950 . S
H263 C289 0.950 . S
H264 C290 0.950 . S
H265 C292 0.950 . S
H266 C295 0.950 . S
H267 C296 0.950 . S
H268 C298 0.951 . S
H269 C299 0.949 . S
C270 C271 1.376 . S
C270 C275 1.386 . S
C270 C276 1.483 . S
C271 H252 0.949 . S
C271 C270 1.376 . S
C271 C272 1.397 . S
C272 H253 0.950 . S
C272 C271 1.397 . S
C272 C273 1.391 . S
C273 C272 1.391 . S
C273 C274 1.405 . S
C274 H254 0.950 . S
C274 C273 1.405 . S
C274 C275 1.367 . S
C275 H255 0.950 . S
C275 C270 1.386 . S
C275 C274 1.367 . S
C276 C270 1.483 . S
C276 C277 1.382 . S
C276 C278 1.403 . S
C277 H256 0.950 . S
C277 C276 1.382 . S
C277 C293 1.411 . S
C278 C276 1.403 . S
C278 C279 1.489 . S
C278 C292 1.411 . S
C279 C278 1.489 . S
C279 C280 1.383 . S
C279 C284 1.382 . S
C280 H257 0.950 . S
C280 C279 1.383 . S
C280 C281 1.395 . S
C281 H258 0.950 . S
C281 C280 1.395 . S
C281 C282 1.288 . S
C282 C281 1.288 . S
C282 C283 1.392 . S
C283 H259 0.951 . S
C283 C282 1.392 . S
C283 C284 1.392 . S
C284 H260 0.949 . S
C284 C279 1.382 . S
C284 C283 1.392 . S
C285 C286 1.376 . S
C285 C290 1.386 . S
C285 C291 1.483 . S
C286 H261 0.949 . S
C286 C285 1.376 . S
C286 C287 1.397 . S
C287 H262 0.950 . S
C287 C286 1.397 . S
C287 C288 1.391 . S
C288 C287 1.391 . S
C288 C289 1.405 . S
C289 H263 0.950 . S
C289 C288 1.405 . S
C289 C290 1.367 . S
C290 H264 0.950 . S
C290 C285 1.386 . S
C290 C289 1.367 . S
C291 C285 1.483 . S
C291 C292 1.382 . S
C291 C293 1.403 . S
C292 H265 0.950 . S
C292 C278 1.411 . S
C292 C291 1.382 . S
C293 C277 1.411 . S
C293 C291 1.403 . S
C293 C294 1.489 . S
C294 C293 1.489 . S
C294 C295 1.383 . S
C294 C299 1.382 . S
C295 H266 0.950 . S
C295 C294 1.383 . S
C295 C296 1.395 . S
C296 H267 0.950 . S
C296 C295 1.395 . S
C296 C297 1.288 . S
C297 C296 1.288 . S
C297 C298 1.392 . S
C298 H268 0.951 . S
C298 C297 1.392 . S
C298 C299 1.392 . S
C299 H269 0.949 . S
C299 C294 1.382 . S
C299 C298 1.392 . S
H300 C319 0.949 . S
H301 C320 0.950 . S
H302 C322 0.950 . S
H303 C323 0.950 . S
H304 C325 0.950 . S
H305 C328 0.950 . S
H306 C329 0.950 . S
H307 C331 0.951 . S
H308 C332 0.949 . S
H309 C334 0.949 . S
H310 C335 0.950 . S
H311 C337 0.950 . S
H312 C338 0.950 . S
H313 C340 0.950 . S
H314 C343 0.950 . S
H315 C344 0.950 . S
H316 C346 0.951 . S
H317 C347 0.949 . S
C318 C319 1.376 . S
C318 C323 1.386 . S
C318 C324 1.483 . S
C319 H300 0.949 . S
C319 C318 1.376 . S
C319 C320 1.397 . S
C320 H301 0.950 . S
C320 C319 1.397 . S
C320 C321 1.391 . S
C321 C320 1.391 . S
C321 C322 1.405 . S
C322 H302 0.950 . S
C322 C321 1.405 . S
C322 C323 1.367 . S
C323 H303 0.950 . S
C323 C318 1.386 . S
C323 C322 1.367 . S
C324 C318 1.483 . S
C324 C325 1.382 . S
C324 C326 1.403 . S
C325 H304 0.950 . S
C325 C324 1.382 . S
C325 C341 1.411 . S
C326 C324 1.403 . S
C326 C327 1.489 . S
C326 C340 1.411 . S
C327 C326 1.489 . S
C327 C328 1.383 . S
C327 C332 1.382 . S
C328 H305 0.950 . S
C328 C327 1.383 . S
C328 C329 1.395 . S
C329 H306 0.950 . S
C329 C328 1.395 . S
C329 C330 1.288 . S
C330 C329 1.288 . S
C330 C331 1.392 . S
C331 H307 0.951 . S
C331 C330 1.392 . S
C331 C332 1.392 . S
C332 H308 0.949 . S
C332 C327 1.382 . S
C332 C331 1.392 . S
C333 C334 1.376 . S
C333 C338 1.386 . S
C333 C339 1.483 . S
C334 H309 0.949 . S
C334 C333 1.376 . S
C334 C335 1.397 . S
C335 H310 0.950 . S
C335 C334 1.397 . S
C335 C336 1.391 . S
C336 C335 1.391 . S
C336 C337 1.405 . S
C337 H311 0.950 . S
C337 C336 1.405 . S
C337 C338 1.367 . S
C338 H312 0.950 . S
C338 C333 1.386 . S
C338 C337 1.367 . S
C339 C333 1.483 . S
C339 C340 1.382 . S
C339 C341 1.403 . S
C340 H313 0.950 . S
C340 C326 1.411 . S
C340 C339 1.382 . S
C341 C325 1.411 . S
C341 C339 1.403 . S
C341 C342 1.489 . S
C342 C341 1.489 . S
C342 C343 1.383 . S
C342 C347 1.382 . S
C343 H314 0.950 . S
C343 C342 1.383 . S
C343 C344 1.395 . S
C344 H315 0.950 . S
C344 C343 1.395 . S
C344 C345 1.288 . S
C345 C344 1.288 . S
C345 C346 1.392 . S
C346 H316 0.951 . S
C346 C345 1.392 . S
C346 C347 1.392 . S
C347 H317 0.949 . S
C347 C342 1.382 . S
C347 C346 1.392 . S
H348 C367 0.949 . S
H349 C368 0.950 . S
H350 C370 0.950 . S
H351 C371 0.950 . S
H352 C373 0.950 . S
H353 C376 0.950 . S
H354 C377 0.950 . S
H355 C379 0.951 . S
H356 C380 0.949 . S
H357 C382 0.949 . S
H358 C383 0.950 . S
H359 C385 0.950 . S
H360 C386 0.950 . S
H361 C388 0.950 . S
H362 C391 0.950 . S
H363 C392 0.950 . S
H364 C394 0.951 . S
H365 C395 0.949 . S
C366 C367 1.376 . S
C366 C371 1.386 . S
C366 C372 1.483 . S
C367 H348 0.949 . S
C367 C366 1.376 . S
C367 C368 1.397 . S
C368 H349 0.950 . S
C368 C367 1.397 . S
C368 C369 1.391 . S
C369 C368 1.391 . S
C369 C370 1.405 . S
C370 H350 0.950 . S
C370 C369 1.405 . S
C370 C371 1.367 . S
C371 H351 0.950 . S
C371 C366 1.386 . S
C371 C370 1.367 . S
C372 C366 1.483 . S
C372 C373 1.382 . S
C372 C374 1.403 . S
C373 H352 0.950 . S
C373 C372 1.382 . S
C373 C389 1.411 . S
C374 C372 1.403 . S
C374 C375 1.489 . S
C374 C388 1.411 . S
C375 C374 1.489 . S
C375 C376 1.383 . S
C375 C380 1.382 . S
C376 H353 0.950 . S
C376 C375 1.383 . S
C376 C377 1.395 . S
C377 H354 0.950 . S
C377 C376 1.395 . S
C377 C378 1.288 . S
C378 C377 1.288 . S
C378 C379 1.392 . S
C379 H355 0.951 . S
C379 C378 1.392 . S
C379 C380 1.392 . S
C380 H356 0.949 . S
C380 C375 1.382 . S
C380 C379 1.392 . S
C381 C382 1.376 . S
C381 C386 1.386 . S
C381 C387 1.483 . S
C382 H357 0.949 . S
C382 C381 1.376 . S
C382 C383 1.397 . S
C383 H358 0.950 . S
C383 C382 1.397 . S
C383 C384 1.391 . S
C384 C383 1.391 . S
C384 C385 1.405 . S
C385 H359 0.950 . S
C385 C384 1.405 . S
C385 C386 1.367 . S
C386 H360 0.950 . S
C386 C381 1.386 . S
C386 C385 1.367 . S
C387 C381 1.483 . S
C387 C388 1.382 . S
C387 C389 1.403 . S
C388 H361 0.950 . S
C388 C374 1.411 . S
C388 C387 1.382 . S
C389 C373 1.411 . S
C389 C387 1.403 . S
C389 C390 1.489 . S
C390 C389 1.489 . S
C390 C391 1.383 . S
C390 C395 1.382 . S
C391 H362 0.950 . S
C391 C390 1.383 . S
C391 C392 1.395 . S
C392 H363 0.950 . S
C392 C391 1.395 . S
C392 C393 1.288 . S
C393 C392 1.288 . S
C393 C394 1.392 . S
C394 H364 0.951 . S
C394 C393 1.392 . S
C394 C395 1.392 . S
C395 H365 0.949 . S
C395 C390 1.382 . S
C395 C394 1.392 . S
H396 C415 0.949 . S
H397 C416 0.950 . S
H398 C418 0.950 . S
H399 C419 0.950 . S
H400 C421 0.950 . S
H401 C424 0.950 . S
H402 C425 0.950 . S
H403 C427 0.951 . S
H404 C428 0.949 . S
H405 C430 0.949 . S
H406 C431 0.950 . S
H407 C433 0.950 . S
H408 C434 0.950 . S
H409 C436 0.950 . S
H410 C439 0.950 . S
H411 C440 0.950 . S
H412 C442 0.951 . S
H413 C443 0.949 . S
C414 C415 1.376 . S
C414 C419 1.386 . S
C414 C420 1.483 . S
C415 H396 0.949 . S
C415 C414 1.376 . S
C415 C416 1.397 . S
C416 H397 0.950 . S
C416 C415 1.397 . S
C416 C417 1.391 . S
C417 C416 1.391 . S
C417 C418 1.405 . S
C418 H398 0.950 . S
C418 C417 1.405 . S
C418 C419 1.367 . S
C419 H399 0.950 . S
C419 C414 1.386 . S
C419 C418 1.367 . S
C420 C414 1.483 . S
C420 C421 1.382 . S
C420 C422 1.403 . S
C421 H400 0.950 . S
C421 C420 1.382 . S
C421 C437 1.411 . S
C422 C420 1.403 . S
C422 C423 1.489 . S
C422 C436 1.411 . S
C423 C422 1.489 . S
C423 C424 1.383 . S
C423 C428 1.382 . S
C424 H401 0.950 . S
C424 C423 1.383 . S
C424 C425 1.395 . S
C425 H402 0.950 . S
C425 C424 1.395 . S
C425 C426 1.288 . S
C426 C425 1.288 . S
C426 C427 1.392 . S
C427 H403 0.951 . S
C427 C426 1.392 . S
C427 C428 1.392 . S
C428 H404 0.949 . S
C428 C423 1.382 . S
C428 C427 1.392 . S
C429 C430 1.376 . S
C429 C434 1.386 . S
C429 C435 1.483 . S
C430 H405 0.949 . S
C430 C429 1.376 . S
C430 C431 1.397 . S
C431 H406 0.950 . S
C431 C430 1.397 . S
C431 C432 1.391 . S
C432 C431 1.391 . S
C432 C433 1.405 . S
C433 H407 0.950 . S
C433 C432 1.405 . S
C433 C434 1.367 . S
C434 H408 0.950 . S
C434 C429 1.386 . S
C434 C433 1.367 . S
C435 C429 1.483 . S
C435 C436 1.382 . S
C435 C437 1.403 . S
C436 H409 0.950 . S
C436 C422 1.411 . S
C436 C435 1.382 . S
C437 C421 1.411 . S
C437 C435 1.403 . S
C437 C438 1.489 . S
C438 C437 1.489 . S
C438 C439 1.383 . S
C438 C443 1.382 . S
C439 H410 0.950 . S
C439 C438 1.383 . S
C439 C440 1.395 . S
C440 H411 0.950 . S
C440 C439 1.395 . S
C440 C441 1.288 . S
C441 C440 1.288 . S
C441 C442 1.392 . S
C442 H412 0.951 . S
C442 C441 1.392 . S
C442 C443 1.392 . S
C443 H413 0.949 . S
C443 C438 1.382 . S
C443 C442 1.392 . S
H444 C463 0.949 . S
H445 C464 0.950 . S
H446 C466 0.950 . S
H447 C467 0.950 . S
H448 C469 0.950 . S
H449 C472 0.950 . S
H450 C473 0.950 . S
H451 C475 0.951 . S
H452 C476 0.949 . S
H453 C478 0.949 . S
H454 C479 0.950 . S
H455 C481 0.950 . S
H456 C482 0.950 . S
H457 C484 0.950 . S
H458 C487 0.950 . S
H459 C488 0.950 . S
H460 C490 0.951 . S
H461 C491 0.949 . S
C462 C463 1.376 . S
C462 C467 1.386 . S
C462 C468 1.483 . S
C463 H444 0.949 . S
C463 C462 1.376 . S
C463 C464 1.397 . S
C464 H445 0.950 . S
C464 C463 1.397 . S
C464 C465 1.391 . S
C465 C464 1.391 . S
C465 C466 1.405 . S
C466 H446 0.950 . S
C466 C465 1.405 . S
C466 C467 1.367 . S
C467 H447 0.950 . S
C467 C462 1.386 . S
C467 C466 1.367 . S
C468 C462 1.483 . S
C468 C469 1.382 . S
C468 C470 1.403 . S
C469 H448 0.950 . S
C469 C468 1.382 . S
C469 C485 1.411 . S
C470 C468 1.403 . S
C470 C471 1.489 . S
C470 C484 1.411 . S
C471 C470 1.489 . S
C471 C472 1.383 . S
C471 C476 1.382 . S
C472 H449 0.950 . S
C472 C471 1.383 . S
C472 C473 1.395 . S
C473 H450 0.950 . S
C473 C472 1.395 . S
C473 C474 1.288 . S
C474 C473 1.288 . S
C474 C475 1.392 . S
C475 H451 0.951 . S
C475 C474 1.392 . S
C475 C476 1.392 . S
C476 H452 0.949 . S
C476 C471 1.382 . S
C476 C475 1.392 . S
C477 C478 1.376 . S
C477 C482 1.386 . S
C477 C483 1.483 . S
C478 H453 0.949 . S
C478 C477 1.376 . S
C478 C479 1.397 . S
C479 H454 0.950 . S
C479 C478 1.397 . S
C479 C480 1.391 . S
C480 C479 1.391 . S
C480 C481 1.405 . S
C481 H455 0.950 . S
C481 C480 1.405 . S
C481 C482 1.367 . S
C482 H456 0.950 . S
C482 C477 1.386 . S
C482 C481 1.367 . S
C483 C477 1.483 . S
C483 C484 1.382 . S
C483 C485 1.403 . S
C484 H457 0.950 . S
C484 C470 1.411 . S
C484 C483 1.382 . S
C485 C469 1.411 . S
C485 C483 1.403 . S
C485 C486 1.489 . S
C486 C485 1.489 . S
C486 C487 1.383 . S
C486 C491 1.382 . S
C487 H458 0.950 . S
C487 C486 1.383 . S
C487 C488 1.395 . S
C488 H459 0.950 . S
C488 C487 1.395 . S
C488 C489 1.288 . S
C489 C488 1.288 . S
C489 C490 1.392 . S
C490 H460 0.951 . S
C490 C489 1.392 . S
C490 C491 1.392 . S
C491 H461 0.949 . S
C491 C486 1.382 . S
C491 C490 1.392 . S
H492 C511 0.949 . S
H493 C512 0.950 . S
H494 C514 0.950 . S
H495 C515 0.950 . S
H496 C517 0.950 . S
H497 C520 0.950 . S
H498 C521 0.950 . S
H499 C523 0.951 . S
H500 C524 0.949 . S
H501 C526 0.949 . S
H502 C527 0.950 . S
H503 C529 0.950 . S
H504 C530 0.950 . S
H505 C532 0.950 . S
H506 C535 0.950 . S
H507 C536 0.950 . S
H508 C538 0.951 . S
H509 C539 0.949 . S
C510 C511 1.376 . S
C510 C515 1.386 . S
C510 C516 1.483 . S
C511 H492 0.949 . S
C511 C510 1.376 . S
C511 C512 1.397 . S
C512 H493 0.950 . S
C512 C511 1.397 . S
C512 C513 1.391 . S
C513 C512 1.391 . S
C513 C514 1.405 . S
C514 H494 0.950 . S
C514 C513 1.405 . S
C514 C515 1.367 . S
C515 H495 0.950 . S
C515 C510 1.386 . S
C515 C514 1.367 . S
C516 C510 1.483 . S
C516 C517 1.382 . S
C516 C518 1.403 . S
C517 H496 0.950 . S
C517 C516 1.382 . S
C517 C533 1.411 . S
C518 C516 1.403 . S
C518 C519 1.489 . S
C518 C532 1.411 . S
C519 C518 1.489 . S
C519 C520 1.383 . S
C519 C524 1.382 . S
C520 H497 0.950 . S
C520 C519 1.383 . S
C520 C521 1.395 . S
C521 H498 0.950 . S
C521 C520 1.395 . S
C521 C522 1.288 . S
C522 C521 1.288 . S
C522 C523 1.392 . S
C523 H499 0.951 . S
C523 C522 1.392 . S
C523 C524 1.392 . S
C524 H500 0.949 . S
C524 C519 1.382 . S
C524 C523 1.392 . S
C525 C526 1.376 . S
C525 C530 1.386 . S
C525 C531 1.483 . S
C526 H501 0.949 . S
C526 C525 1.376 . S
C526 C527 1.397 . S
C527 H502 0.950 . S
C527 C526 1.397 . S
C527 C528 1.391 . S
C528 C527 1.391 . S
C528 C529 1.405 . S
C529 H503 0.950 . S
C529 C528 1.405 . S
C529 C530 1.367 . S
C530 H504 0.950 . S
C530 C525 1.386 . S
C530 C529 1.367 . S
C531 C525 1.483 . S
C531 C532 1.382 . S
C531 C533 1.403 . S
C532 H505 0.950 . S
C532 C518 1.411 . S
C532 C531 1.382 . S
C533 C517 1.411 . S
C533 C531 1.403 . S
C533 C534 1.489 . S
C534 C533 1.489 . S
C534 C535 1.383 . S
C534 C539 1.382 . S
C535 H506 0.950 . S
C535 C534 1.383 . S
C535 C536 1.395 . S
C536 H507 0.950 . S
C536 C535 1.395 . S
C536 C537 1.288 . S
C537 C536 1.288 . S
C537 C538 1.392 . S
C538 H508 0.951 . S
C538 C537 1.392 . S
C538 C539 1.392 . S
C539 H509 0.949 . S
C539 C534 1.382 . S
C539 C538 1.392 . S
H540 C559 0.949 . S
H541 C560 0.950 . S
H542 C562 0.950 . S
H543 C563 0.950 . S
H544 C565 0.950 . S
H545 C568 0.950 . S
H546 C569 0.950 . S
H547 C571 0.951 . S
H548 C572 0.949 . S
H549 C574 0.949 . S
H550 C575 0.950 . S
H551 C577 0.950 . S
H552 C578 0.950 . S
H553 C580 0.950 . S
H554 C583 0.950 . S
H555 C584 0.950 . S
H556 C586 0.951 . S
H557 C587 0.949 . S
C558 C559 1.376 . S
C558 C563 1.386 . S
C558 C564 1.483 . S
C559 H540 0.949 . S
C559 C558 1.376 . S
C559 C560 1.397 . S
C560 H541 0.950 . S
C560 C559 1.397 . S
C560 C561 1.391 . S
C561 C560 1.391 . S
C561 C562 1.405 . S
C562 H542 0.950 . S
C562 C561 1.405 . S
C562 C563 1.367 . S
C563 H543 0.950 . S
C563 C558 1.386 . S
C563 C562 1.367 . S
C564 C558 1.483 . S
C564 C565 1.382 . S
C564 C566 1.403 . S
C565 H544 0.950 . S
C565 C564 1.382 . S
C565 C581 1.411 . S
C566 C564 1.403 . S
C566 C567 1.489 . S
C566 C580 1.411 . S
C567 C566 1.489 . S
C567 C568 1.383 . S
C567 C572 1.382 . S
C568 H545 0.950 . S
C568 C567 1.383 . S
C568 C569 1.395 . S
C569 H546 0.950 . S
C569 C568 1.395 . S
C569 C570 1.288 . S
C570 C569 1.288 . S
C570 C571 1.392 . S
C571 H547 0.951 . S
C571 C570 1.392 . S
C571 C572 1.392 . S
C572 H548 0.949 . S
C572 C567 1.382 . S
C572 C571 1.392 . S
C573 C574 1.376 . S
C573 C578 1.386 . S
C573 C579 1.483 . S
C574 H549 0.949 . S
C574 C573 1.376 . S
C574 C575 1.397 . S
C575 H550 0.950 . S
C575 C574 1.397 . S
C575 C576 1.391 . S
C576 C575 1.391 . S
C576 C577 1.405 . S
C577 H551 0.950 . S
C577 C576 1.405 . S
C577 C578 1.367 . S
C578 H552 0.950 . S
C578 C573 1.386 . S
C578 C577 1.367 . S
C579 C573 1.483 . S
C579 C580 1.382 . S
C579 C581 1.403 . S
C580 H553 0.950 . S
C580 C566 1.411 . S
C580 C579 1.382 . S
C581 C565 1.411 . S
C581 C579 1.403 . S
C581 C582 1.489 . S
C582 C581 1.489 . S
C582 C583 1.383 . S
C582 C587 1.382 . S
C583 H554 0.950 . S
C583 C582 1.383 . S
C583 C584 1.395 . S
C584 H555 0.950 . S
C584 C583 1.395 . S
C584 C585 1.288 . S
C585 C584 1.288 . S
C585 C586 1.392 . S
C586 H556 0.951 . S
C586 C585 1.392 . S
C586 C587 1.392 . S
C587 H557 0.949 . S
C587 C582 1.382 . S
C587 C586 1.392 . S
H588 C607 0.949 . S
H589 C608 0.950 . S
H590 C610 0.950 . S
H591 C611 0.950 . S
H592 C613 0.950 . S
H593 C616 0.950 . S
H594 C617 0.950 . S
H595 C619 0.951 . S
H596 C620 0.949 . S
H597 C622 0.949 . S
H598 C623 0.950 . S
H599 C625 0.950 . S
H600 C626 0.950 . S
H601 C628 0.950 . S
H602 C631 0.950 . S
H603 C632 0.950 . S
H604 C634 0.951 . S
H605 C635 0.949 . S
C606 C607 1.376 . S
C606 C611 1.386 . S
C606 C612 1.483 . S
C607 H588 0.949 . S
C607 C606 1.376 . S
C607 C608 1.397 . S
C608 H589 0.950 . S
C608 C607 1.397 . S
C608 C609 1.391 . S
C609 C608 1.391 . S
C609 C610 1.405 . S
C610 H590 0.950 . S
C610 C609 1.405 . S
C610 C611 1.367 . S
C611 H591 0.950 . S
C611 C606 1.386 . S
C611 C610 1.367 . S
C612 C606 1.483 . S
C612 C613 1.382 . S
C612 C614 1.403 . S
C613 H592 0.950 . S
C613 C612 1.382 . S
C613 C629 1.411 . S
C614 C612 1.403 . S
C614 C615 1.489 . S
C614 C628 1.411 . S
C615 C614 1.489 . S
C615 C616 1.383 . S
C615 C620 1.382 . S
C616 H593 0.950 . S
C616 C615 1.383 . S
C616 C617 1.395 . S
C617 H594 0.950 . S
C617 C616 1.395 . S
C617 C618 1.288 . S
C618 C617 1.288 . S
C618 C619 1.392 . S
C619 H595 0.951 . S
C619 C618 1.392 . S
C619 C620 1.392 . S
C620 H596 0.949 . S
C620 C615 1.382 . S
C620 C619 1.392 . S
C621 C622 1.376 . S
C621 C626 1.386 . S
C621 C627 1.483 . S
C622 H597 0.949 . S
C622 C621 1.376 . S
C622 C623 1.397 . S
C623 H598 0.950 . S
C623 C622 1.397 . S
C623 C624 1.391 . S
C624 C623 1.391 . S
C624 C625 1.405 . S
C625 H599 0.950 . S
C625 C624 1.405 . S
C625 C626 1.367 . S
C626 H600 0.950 . S
C626 C621 1.386 . S
C626 C625 1.367 . S
C627 C621 1.483 . S
C627 C628 1.382 . S
C627 C629 1.403 . S
C628 H601 0.950 . S
C628 C614 1.411 . S
C628 C627 1.382 . S
C629 C613 1.411 . S
C629 C627 1.403 . S
C629 C630 1.489 . S
C630 C629 1.489 . S
C630 C631 1.383 . S
C630 C635 1.382 . S
C631 H602 0.950 . S
C631 C630 1.383 . S
C631 C632 1.395 . S
C632 H603 0.950 . S
C632 C631 1.395 . S
C632 C633 1.288 . S
C633 C632 1.288 . S
C633 C634 1.392 . S
C634 H604 0.951 . S
C634 C633 1.392 . S
C634 C635 1.392 . S
C635 H605 0.949 . S
C635 C630 1.382 . S
C635 C634 1.392 . S
H636 C655 0.949 . S
H637 C656 0.950 . S
H638 C658 0.950 . S
H639 C659 0.950 . S
H640 C661 0.950 . S
H641 C664 0.950 . S
H642 C665 0.950 . S
H643 C667 0.951 . S
H644 C668 0.949 . S
H645 C670 0.949 . S
H646 C671 0.950 . S
H647 C673 0.950 . S
H648 C674 0.950 . S
H649 C676 0.950 . S
H650 C679 0.950 . S
H651 C680 0.950 . S
H652 C682 0.951 . S
H653 C683 0.949 . S
C654 C655 1.376 . S
C654 C659 1.386 . S
C654 C660 1.483 . S
C655 H636 0.949 . S
C655 C654 1.376 . S
C655 C656 1.397 . S
C656 H637 0.950 . S
C656 C655 1.397 . S
C656 C657 1.391 . S
C657 C656 1.391 . S
C657 C658 1.405 . S
C658 H638 0.950 . S
C658 C657 1.405 . S
C658 C659 1.367 . S
C659 H639 0.950 . S
C659 C654 1.386 . S
C659 C658 1.367 . S
C660 C654 1.483 . S
C660 C661 1.382 . S
C660 C662 1.403 . S
C661 H640 0.950 . S
C661 C660 1.382 . S
C661 C677 1.411 . S
C662 C660 1.403 . S
C662 C663 1.489 . S
C662 C676 1.411 . S
C663 C662 1.489 . S
C663 C664 1.383 . S
C663 C668 1.382 . S
C664 H641 0.950 . S
C664 C663 1.383 . S
C664 C665 1.395 . S
C665 H642 0.950 . S
C665 C664 1.395 . S
C665 C666 1.288 . S
C666 C665 1.288 . S
C666 C667 1.392 . S
C667 H643 0.951 . S
C667 C666 1.392 . S
C667 C668 1.392 . S
C668 H644 0.949 . S
C668 C663 1.382 . S
C668 C667 1.392 . S
C669 C670 1.376 . S
C669 C674 1.386 . S
C669 C675 1.483 . S
C670 H645 0.949 . S
C670 C669 1.376 . S
C670 C671 1.397 . S
C671 H646 0.950 . S
C671 C670 1.397 . S
C671 C672 1.391 . S
C672 C671 1.391 . S
C672 C673 1.405 . S
C673 H647 0.950 . S
C673 C672 1.405 . S
C673 C674 1.367 . S
C674 H648 0.950 . S
C674 C669 1.386 . S
C674 C673 1.367 . S
C675 C669 1.483 . S
C675 C676 1.382 . S
C675 C677 1.403 . S
C676 H649 0.950 . S
C676 C662 1.411 . S
C676 C675 1.382 . S
C677 C661 1.411 . S
C677 C675 1.403 . S
C677 C678 1.489 . S
C678 C677 1.489 . S
C678 C679 1.383 . S
C678 C683 1.382 . S
C679 H650 0.950 . S
C679 C678 1.383 . S
C679 C680 1.395 . S
C680 H651 0.950 . S
C680 C679 1.395 . S
C680 C681 1.288 . S
C681 C680 1.288 . S
C681 C682 1.392 . S
C682 H652 0.951 . S
C682 C681 1.392 . S
C682 C683 1.392 . S
C683 H653 0.949 . S
C683 C678 1.382 . S
C683 C682 1.392 . S
H684 C703 0.949 . S
H685 C704 0.950 . S
H686 C706 0.950 . S
H687 C707 0.950 . S
H688 C709 0.950 . S
H689 C712 0.950 . S
H690 C713 0.950 . S
H691 C715 0.951 . S
H692 C716 0.949 . S
H693 C718 0.949 . S
H694 C719 0.950 . S
H695 C721 0.950 . S
H696 C722 0.950 . S
H697 C724 0.950 . S
H698 C727 0.950 . S
H699 C728 0.950 . S
H700 C730 0.951 . S
H701 C731 0.949 . S
C702 C703 1.376 . S
C702 C707 1.386 1_655 S
C702 C708 1.483 . S
C703 H684 0.949 . S
C703 C702 1.376 . S
C703 C704 1.397 . S
C704 H685 0.950 . S
C704 C703 1.397 . S
C704 C705 1.391 . S
C705 C704 1.391 . S
C705 C706 1.405 1_655 S
C706 H686 0.950 . S
C706 C705 1.405 1_455 S
C706 C707 1.367 . S
C707 H687 0.950 . S
C707 C702 1.386 1_455 S
C707 C706 1.367 . S
C708 C702 1.483 . S
C708 C709 1.382 . S
C708 C710 1.403 1_655 S
C709 H688 0.950 . S
C709 C708 1.382 . S
C709 C725 1.411 . S
C710 C708 1.403 1_455 S
C710 C711 1.489 . S
C710 C724 1.411 . S
C711 C710 1.489 . S
C711 C712 1.383 1_455 S
C711 C716 1.382 . S
C712 H689 0.950 . S
C712 C711 1.383 1_655 S
C712 C713 1.395 . S
C713 H690 0.950 . S
C713 C712 1.395 . S
C713 C714 1.288 1_655 S
C714 C713 1.288 1_455 S
C714 C715 1.392 . S
C715 H691 0.951 . S
C715 C714 1.392 . S
C715 C716 1.392 . S
C716 H692 0.949 . S
C716 C711 1.382 . S
C716 C715 1.392 . S
C717 C718 1.376 . S
C717 C722 1.386 1_455 S
C717 C723 1.483 . S
C718 H693 0.949 . S
C718 C717 1.376 . S
C718 C719 1.397 . S
C719 H694 0.950 . S
C719 C718 1.397 . S
C719 C720 1.391 . S
C720 C719 1.391 . S
C720 C721 1.405 1_455 S
C721 H695 0.950 . S
C721 C720 1.405 1_655 S
C721 C722 1.367 . S
C722 H696 0.950 . S
C722 C717 1.386 1_655 S
C722 C721 1.367 . S
C723 C717 1.483 . S
C723 C724 1.382 . S
C723 C725 1.403 1_455 S
C724 H697 0.950 . S
C724 C710 1.411 . S
C724 C723 1.382 . S
C725 C709 1.411 . S
C725 C723 1.403 1_655 S
C725 C726 1.489 . S
C726 C725 1.489 . S
C726 C727 1.383 1_655 S
C726 C731 1.382 . S
C727 H698 0.950 . S
C727 C726 1.383 1_455 S
C727 C728 1.395 . S
C728 H699 0.950 . S
C728 C727 1.395 . S
C728 C729 1.288 1_455 S
C729 C728 1.288 1_655 S
C729 C730 1.392 . S
C730 H700 0.951 . S
C730 C729 1.392 . S
C730 C731 1.392 . S
C731 H701 0.949 . S
C731 C726 1.382 . S
C731 C730 1.392 . S
H732 C751 0.949 . S
H733 C752 0.950 . S
H734 C754 0.950 . S
H735 C755 0.950 . S
H736 C757 0.950 . S
H737 C760 0.950 . S
H738 C761 0.950 . S
H739 C763 0.951 . S
H740 C764 0.949 . S
H741 C766 0.949 . S
H742 C767 0.950 . S
H743 C769 0.950 . S
H744 C770 0.950 . S
H745 C772 0.950 . S
H746 C775 0.950 . S
H747 C776 0.950 . S
H748 C778 0.951 . S
H749 C779 0.949 . S
C750 C751 1.376 . S
C750 C755 1.386 . S
C750 C756 1.483 . S
C751 H732 0.949 . S
C751 C750 1.376 . S
C751 C752 1.397 . S
C752 H733 0.950 . S
C752 C751 1.397 . S
C752 C753 1.391 . S
C753 C752 1.391 . S
C753 C754 1.405 . S
C754 H734 0.950 . S
C754 C753 1.405 . S
C754 C755 1.367 . S
C755 H735 0.950 . S
C755 C750 1.386 . S
C755 C754 1.367 . S
C756 C750 1.483 . S
C756 C757 1.382 . S
C756 C758 1.403 . S
C757 H736 0.950 . S
C757 C756 1.382 . S
C757 C773 1.411 . S
C758 C756 1.403 . S
C758 C759 1.489 . S
C758 C772 1.411 . S
C759 C758 1.489 . S
C759 C760 1.383 . S
C759 C764 1.382 . S
C760 H737 0.950 . S
C760 C759 1.383 . S
C760 C761 1.395 . S
C761 H738 0.950 . S
C761 C760 1.395 . S
C761 C762 1.288 . S
C762 C761 1.288 . S
C762 C763 1.392 . S
C763 H739 0.951 . S
C763 C762 1.392 . S
C763 C764 1.392 . S
C764 H740 0.949 . S
C764 C759 1.382 . S
C764 C763 1.392 . S
C765 C766 1.376 . S
C765 C770 1.386 . S
C765 C771 1.483 . S
C766 H741 0.949 . S
C766 C765 1.376 . S
C766 C767 1.397 . S
C767 H742 0.950 . S
C767 C766 1.397 . S
C767 C768 1.391 . S
C768 C767 1.391 . S
C768 C769 1.405 . S
C769 H743 0.950 . S
C769 C768 1.405 . S
C769 C770 1.367 . S
C770 H744 0.950 . S
C770 C765 1.386 . S
C770 C769 1.367 . S
C771 C765 1.483 . S
C771 C772 1.382 . S
C771 C773 1.403 . S
C772 H745 0.950 . S
C772 C758 1.411 . S
C772 C771 1.382 . S
C773 C757 1.411 . S
C773 C771 1.403 . S
C773 C774 1.489 . S
C774 C773 1.489 . S
C774 C775 1.383 . S
C774 C779 1.382 . S
C775 H746 0.950 . S
C775 C774 1.383 . S
C775 C776 1.395 . S
C776 H747 0.950 . S
C776 C775 1.395 . S
C776 C777 1.288 . S
C777 C776 1.288 . S
C777 C778 1.392 . S
C778 H748 0.951 . S
C778 C777 1.392 . S
C778 C779 1.392 . S
C779 H749 0.949 . S
C779 C774 1.382 . S
C779 C778 1.392 . S
H780 C799 0.949 . S
H781 C800 0.950 . S
H782 C802 0.950 . S
H783 C803 0.950 . S
H784 C805 0.950 . S
H785 C808 0.950 . S
H786 C809 0.950 . S
H787 C811 0.951 . S
H788 C812 0.949 . S
H789 C814 0.949 . S
H790 C815 0.950 . S
H791 C817 0.950 . S
H792 C818 0.950 . S
H793 C820 0.950 . S
H794 C823 0.950 . S
H795 C824 0.950 . S
H796 C826 0.951 . S
H797 C827 0.949 . S
C798 C799 1.376 . S
C798 C803 1.386 1_545 S
C798 C804 1.483 . S
C799 H780 0.949 . S
C799 C798 1.376 . S
C799 C800 1.397 . S
C800 H781 0.950 . S
C800 C799 1.397 . S
C800 C801 1.391 . S
C801 C800 1.391 . S
C801 C802 1.405 1_545 S
C802 H782 0.950 . S
C802 C801 1.405 1_565 S
C802 C803 1.367 . S
C803 H783 0.950 . S
C803 C798 1.386 1_565 S
C803 C802 1.367 . S
C804 C798 1.483 . S
C804 C805 1.382 . S
C804 C806 1.403 1_545 S
C805 H784 0.950 . S
C805 C804 1.382 . S
C805 C821 1.411 . S
C806 C804 1.403 1_565 S
C806 C807 1.489 . S
C806 C820 1.411 . S
C807 C806 1.489 . S
C807 C808 1.383 1_565 S
C807 C812 1.382 . S
C808 H785 0.950 . S
C808 C807 1.383 1_545 S
C808 C809 1.395 . S
C809 H786 0.950 . S
C809 C808 1.395 . S
C809 C810 1.288 1_545 S
C810 C809 1.288 1_565 S
C810 C811 1.392 . S
C811 H787 0.951 . S
C811 C810 1.392 . S
C811 C812 1.392 . S
C812 H788 0.949 . S
C812 C807 1.382 . S
C812 C811 1.392 . S
C813 C814 1.376 . S
C813 C818 1.386 1_565 S
C813 C819 1.483 . S
C814 H789 0.949 . S
C814 C813 1.376 . S
C814 C815 1.397 . S
C815 H790 0.950 . S
C815 C814 1.397 . S
C815 C816 1.391 . S
C816 C815 1.391 . S
C816 C817 1.405 1_565 S
C817 H791 0.950 . S
C817 C816 1.405 1_545 S
C817 C818 1.367 . S
C818 H792 0.950 . S
C818 C813 1.386 1_545 S
C818 C817 1.367 . S
C819 C813 1.483 . S
C819 C820 1.382 . S
C819 C821 1.403 1_565 S
C820 H793 0.950 . S
C820 C806 1.411 . S
C820 C819 1.382 . S
C821 C805 1.411 . S
C821 C819 1.403 1_545 S
C821 C822 1.489 . S
C822 C821 1.489 . S
C822 C823 1.383 1_545 S
C822 C827 1.382 . S
C823 H794 0.950 . S
C823 C822 1.383 1_565 S
C823 C824 1.395 . S
C824 H795 0.950 . S
C824 C823 1.395 . S
C824 C825 1.288 1_565 S
C825 C824 1.288 1_545 S
C825 C826 1.392 . S
C826 H796 0.951 . S
C826 C825 1.392 . S
C826 C827 1.392 . S
C827 H797 0.949 . S
C827 C822 1.382 . S
C827 C826 1.392 . S
H828 C847 0.949 . S
H829 C848 0.950 . S
H830 C850 0.950 . S
H831 C851 0.950 . S
H832 C853 0.950 . S
H833 C856 0.950 . S
H834 C857 0.950 . S
H835 C859 0.951 . S
H836 C860 0.949 . S
H837 C862 0.949 . S
H838 C863 0.950 . S
H839 C865 0.950 . S
H840 C866 0.950 . S
H841 C868 0.950 . S
H842 C871 0.950 . S
H843 C872 0.950 . S
H844 C874 0.951 . S
H845 C875 0.949 . S
C846 C847 1.411 . S
C846 C851 1.371 1_545 S
C846 C852 1.498 . S
C847 H828 0.949 . S
C847 C846 1.411 . S
C847 C848 1.397 . S
C848 H829 0.950 . S
C848 C847 1.397 . S
C848 C849 1.391 1_545 S
C849 C848 1.391 1_565 S
C849 C850 1.405 . S
C850 H830 0.950 . S
C850 C849 1.405 . S
C850 C851 1.367 . S
C851 H831 0.950 . S
C851 C846 1.371 1_565 S
C851 C850 1.367 . S
C852 C846 1.498 . S
C852 C853 1.349 . S
C852 C854 1.398 1_545 S
C853 H832 0.950 . S
C853 C852 1.349 . S
C853 C869 1.438 . S
C854 C852 1.398 1_565 S
C854 C855 1.476 . S
C854 C868 1.428 . S
C855 C854 1.476 . S
C855 C856 1.381 1_565 S
C855 C860 1.383 . S
C856 H833 0.950 . S
C856 C855 1.381 1_545 S
C856 C857 1.395 . S
C857 H834 0.950 . S
C857 C856 1.395 . S
C857 C858 1.288 . S
C858 C857 1.288 . S
C858 C859 1.392 1_545 S
C859 H835 0.951 . S
C859 C858 1.392 1_565 S
C859 C860 1.392 . S
C860 H836 0.949 . S
C860 C855 1.383 . S
C860 C859 1.392 . S
C861 C862 1.398 . S
C861 C866 1.377 1_565 S
C861 C867 1.498 . S
C862 H837 0.949 . S
C862 C861 1.398 . S
C862 C863 1.397 . S
C863 H838 0.950 . S
C863 C862 1.397 . S
C863 C864 1.391 1_565 S
C864 C863 1.391 1_545 S
C864 C865 1.405 . S
C865 H839 0.950 . S
C865 C864 1.405 . S
C865 C866 1.367 . S
C866 H840 0.950 . S
C866 C861 1.377 1_545 S
C866 C865 1.367 . S
C867 C861 1.498 . S
C867 C868 1.356 . S
C867 C869 1.398 1_565 S
C868 H841 0.950 . S
C868 C854 1.428 . S
C868 C867 1.356 . S
C869 C853 1.438 . S
C869 C867 1.398 1_545 S
C869 C870 1.476 . S
C870 C869 1.476 . S
C870 C871 1.363 1_545 S
C870 C875 1.392 . S
C871 H842 0.950 . S
C871 C870 1.363 1_565 S
C871 C872 1.395 . S
C872 H843 0.950 . S
C872 C871 1.395 . S
C872 C873 1.288 . S
C873 C872 1.288 . S
C873 C874 1.392 1_565 S
C874 H844 0.951 . S
C874 C873 1.392 1_545 S
C874 C875 1.392 . S
C875 H845 0.949 . S
C875 C870 1.392 . S
C875 C874 1.392 . S
H876 C895 0.949 . S
H877 C896 0.950 . S
H878 C898 0.950 . S
H879 C899 0.950 . S
H880 C901 0.950 . S
H881 C904 0.950 . S
H882 C905 0.950 . S
H883 C907 0.951 . S
H884 C908 0.949 . S
H885 C910 0.949 . S
H886 C911 0.950 . S
H887 C913 0.950 . S
H888 C914 0.950 . S
H889 C916 0.950 . S
H890 C919 0.950 . S
H891 C920 0.950 . S
H892 C922 0.951 . S
H893 C923 0.949 . S
C894 C895 1.376 . S
C894 C899 1.386 1_455 S
C894 C900 1.483 . S
C895 H876 0.949 . S
C895 C894 1.376 . S
C895 C896 1.397 . S
C896 H877 0.950 . S
C896 C895 1.397 . S
C896 C897 1.391 . S
C897 C896 1.391 . S
C897 C898 1.405 1_455 S
C898 H878 0.950 . S
C898 C897 1.405 1_655 S
C898 C899 1.367 . S
C899 H879 0.950 . S
C899 C894 1.386 1_655 S
C899 C898 1.367 . S
C900 C894 1.483 . S
C900 C901 1.382 . S
C900 C902 1.403 1_455 S
C901 H880 0.950 . S
C901 C900 1.382 . S
C901 C917 1.411 . S
C902 C900 1.403 1_655 S
C902 C903 1.489 . S
C902 C916 1.411 . S
C903 C902 1.489 . S
C903 C904 1.383 1_655 S
C903 C908 1.382 . S
C904 H881 0.950 . S
C904 C903 1.383 1_455 S
C904 C905 1.395 . S
C905 H882 0.950 . S
C905 C904 1.395 . S
C905 C906 1.288 1_455 S
C906 C905 1.288 1_655 S
C906 C907 1.392 . S
C907 H883 0.951 . S
C907 C906 1.392 . S
C907 C908 1.392 . S
C908 H884 0.949 . S
C908 C903 1.382 . S
C908 C907 1.392 . S
C909 C910 1.376 . S
C909 C914 1.386 1_655 S
C909 C915 1.483 . S
C910 H885 0.949 . S
C910 C909 1.376 . S
C910 C911 1.397 . S
C911 H886 0.950 . S
C911 C910 1.397 . S
C911 C912 1.391 . S
C912 C911 1.391 . S
C912 C913 1.405 1_655 S
C913 H887 0.950 . S
C913 C912 1.405 1_455 S
C913 C914 1.367 . S
C914 H888 0.950 . S
C914 C909 1.386 1_455 S
C914 C913 1.367 . S
C915 C909 1.483 . S
C915 C916 1.382 . S
C915 C917 1.403 1_655 S
C916 H889 0.950 . S
C916 C902 1.411 . S
C916 C915 1.382 . S
C917 C901 1.411 . S
C917 C915 1.403 1_455 S
C917 C918 1.489 . S
C918 C917 1.489 . S
C918 C919 1.383 1_455 S
C918 C923 1.382 . S
C919 H890 0.950 . S
C919 C918 1.383 1_655 S
C919 C920 1.395 . S
C920 H891 0.950 . S
C920 C919 1.395 . S
C920 C921 1.288 1_655 S
C921 C920 1.288 1_455 S
C921 C922 1.392 . S
C922 H892 0.951 . S
C922 C921 1.392 . S
C922 C923 1.392 . S
C923 H893 0.949 . S
C923 C918 1.382 . S
C923 C922 1.392 . S
H924 C943 0.949 . S
H925 C944 0.950 . S
H926 C946 0.950 . S
H927 C947 0.950 . S
H928 C949 0.950 . S
H929 C952 0.950 . S
H930 C953 0.950 . S
H931 C955 0.951 . S
H932 C956 0.949 . S
H933 C958 0.949 . S
H934 C959 0.950 . S
H935 C961 0.950 . S
H936 C962 0.950 . S
H937 C964 0.950 . S
H938 C967 0.950 . S
H939 C968 0.950 . S
H940 C970 0.951 . S
H941 C971 0.949 . S
C942 C943 1.376 . S
C942 C947 1.386 . S
C942 C948 1.483 . S
C943 H924 0.949 . S
C943 C942 1.376 . S
C943 C944 1.397 . S
C944 H925 0.950 . S
C944 C943 1.397 . S
C944 C945 1.391 . S
C945 C944 1.391 . S
C945 C946 1.405 . S
C946 H926 0.950 . S
C946 C945 1.405 . S
C946 C947 1.367 . S
C947 H927 0.950 . S
C947 C942 1.386 . S
C947 C946 1.367 . S
C948 C942 1.483 . S
C948 C949 1.382 . S
C948 C950 1.403 . S
C949 H928 0.950 . S
C949 C948 1.382 . S
C949 C965 1.411 . S
C950 C948 1.403 . S
C950 C951 1.489 . S
C950 C964 1.411 . S
C951 C950 1.489 . S
C951 C952 1.383 . S
C951 C956 1.382 . S
C952 H929 0.950 . S
C952 C951 1.383 . S
C952 C953 1.395 . S
C953 H930 0.950 . S
C953 C952 1.395 . S
C953 C954 1.288 . S
C954 C953 1.288 . S
C954 C955 1.392 . S
C955 H931 0.951 . S
C955 C954 1.392 . S
C955 C956 1.392 . S
C956 H932 0.949 . S
C956 C951 1.382 . S
C956 C955 1.392 . S
C957 C958 1.376 . S
C957 C962 1.386 . S
C957 C963 1.483 . S
C958 H933 0.949 . S
C958 C957 1.376 . S
C958 C959 1.397 . S
C959 H934 0.950 . S
C959 C958 1.397 . S
C959 C960 1.391 . S
C960 C959 1.391 . S
C960 C961 1.405 . S
C961 H935 0.950 . S
C961 C960 1.405 . S
C961 C962 1.367 . S
C962 H936 0.950 . S
C962 C957 1.386 . S
C962 C961 1.367 . S
C963 C957 1.483 . S
C963 C964 1.382 . S
C963 C965 1.403 . S
C964 H937 0.950 . S
C964 C950 1.411 . S
C964 C963 1.382 . S
C965 C949 1.411 . S
C965 C963 1.403 . S
C965 C966 1.489 . S
C966 C965 1.489 . S
C966 C967 1.383 . S
C966 C971 1.382 . S
C967 H938 0.950 . S
C967 C966 1.383 . S
C967 C968 1.395 . S
C968 H939 0.950 . S
C968 C967 1.395 . S
C968 C969 1.288 . S
C969 C968 1.288 . S
C969 C970 1.392 . S
C970 H940 0.951 . S
C970 C969 1.392 . S
C970 C971 1.392 . S
C971 H941 0.949 . S
C971 C966 1.382 . S
C971 C970 1.392 . S
H972 C991 0.949 . S
H973 C992 0.950 . S
H974 C994 0.950 . S
H975 C995 0.950 . S
H976 C997 0.950 . S
H977 C1000 0.950 . S
H978 C1001 0.950 . S
H979 C1003 0.951 . S
H980 C1004 0.949 . S
H981 C1006 0.949 . S
H982 C1007 0.950 . S
H983 C1009 0.950 . S
H984 C1010 0.950 . S
H985 C1012 0.950 . S
H986 C1015 0.950 . S
H987 C1016 0.950 . S
H988 C1018 0.951 . S
H989 C1019 0.949 . S
C990 C991 1.376 . S
C990 C995 1.386 . S
C990 C996 1.483 . S
C991 H972 0.949 . S
C991 C990 1.376 . S
C991 C992 1.397 . S
C992 H973 0.950 . S
C992 C991 1.397 . S
C992 C993 1.391 . S
C993 C992 1.391 . S
C993 C994 1.405 . S
C994 H974 0.950 . S
C994 C993 1.405 . S
C994 C995 1.367 . S
C995 H975 0.950 . S
C995 C990 1.386 . S
C995 C994 1.367 . S
C996 C990 1.483 . S
C996 C997 1.382 . S
C996 C998 1.403 . S
C997 H976 0.950 . S
C997 C996 1.382 . S
C997 C1013 1.411 . S
C998 C996 1.403 . S
C998 C999 1.489 . S
C998 C1012 1.411 . S
C999 C998 1.489 . S
C999 C1000 1.383 . S
C999 C1004 1.382 . S
C1000 H977 0.950 . S
C1000 C999 1.383 . S
C1000 C1001 1.395 . S
C1001 H978 0.950 . S
C1001 C1000 1.395 . S
C1001 C1002 1.288 . S
C1002 C1001 1.288 . S
C1002 C1003 1.392 . S
C1003 H979 0.951 . S
C1003 C1002 1.392 . S
C1003 C1004 1.392 . S
C1004 H980 0.949 . S
C1004 C999 1.382 . S
C1004 C1003 1.392 . S
C1005 C1006 1.376 . S
C1005 C1010 1.386 . S
C1005 C1011 1.483 . S
C1006 H981 0.949 . S
C1006 C1005 1.376 . S
C1006 C1007 1.397 . S
C1007 H982 0.950 . S
C1007 C1006 1.397 . S
C1007 C1008 1.391 . S
C1008 C1007 1.391 . S
C1008 C1009 1.405 . S
C1009 H983 0.950 . S
C1009 C1008 1.405 . S
C1009 C1010 1.367 . S
C1010 H984 0.950 . S
C1010 C1005 1.386 . S
C1010 C1009 1.367 . S
C1011 C1005 1.483 . S
C1011 C1012 1.382 . S
C1011 C1013 1.403 . S
C1012 H985 0.950 . S
C1012 C998 1.411 . S
C1012 C1011 1.382 . S
C1013 C997 1.411 . S
C1013 C1011 1.403 . S
C1013 C1014 1.489 . S
C1014 C1013 1.489 . S
C1014 C1015 1.383 . S
C1014 C1019 1.382 . S
C1015 H986 0.950 . S
C1015 C1014 1.383 . S
C1015 C1016 1.395 . S
C1016 H987 0.950 . S
C1016 C1015 1.395 . S
C1016 C1017 1.288 . S
C1017 C1016 1.288 . S
C1017 C1018 1.392 . S
C1018 H988 0.951 . S
C1018 C1017 1.392 . S
C1018 C1019 1.392 . S
C1019 H989 0.949 . S
C1019 C1014 1.382 . S
C1019 C1018 1.392 . S
H1020 C1039 0.949 . S
H1021 C1040 0.950 . S
H1022 C1042 0.950 . S
H1023 C1043 0.950 . S
H1024 C1045 0.950 . S
H1025 C1048 0.950 . S
H1026 C1049 0.950 . S
H1027 C1051 0.951 . S
H1028 C1052 0.949 . S
H1029 C1054 0.949 . S
H1030 C1055 0.950 . S
H1031 C1057 0.950 . S
H1032 C1058 0.950 . S
H1033 C1060 0.950 . S
H1034 C1063 0.950 . S
H1035 C1064 0.950 . S
H1036 C1066 0.951 . S
H1037 C1067 0.949 . S
C1038 C1039 1.376 . S
C1038 C1043 1.386 . S
C1038 C1044 1.483 . S
C1039 H1020 0.949 . S
C1039 C1038 1.376 . S
C1039 C1040 1.397 . S
C1040 H1021 0.950 . S
C1040 C1039 1.397 . S
C1040 C1041 1.391 . S
C1041 C1040 1.391 . S
C1041 C1042 1.405 . S
C1042 H1022 0.950 . S
C1042 C1041 1.405 . S
C1042 C1043 1.367 . S
C1043 H1023 0.950 . S
C1043 C1038 1.386 . S
C1043 C1042 1.367 . S
C1044 C1038 1.483 . S
C1044 C1045 1.382 . S
C1044 C1046 1.403 . S
C1045 H1024 0.950 . S
C1045 C1044 1.382 . S
C1045 C1061 1.411 . S
C1046 C1044 1.403 . S
C1046 C1047 1.489 . S
C1046 C1060 1.411 . S
C1047 C1046 1.489 . S
C1047 C1048 1.383 . S
C1047 C1052 1.382 . S
C1048 H1025 0.950 . S
C1048 C1047 1.383 . S
C1048 C1049 1.395 . S
C1049 H1026 0.950 . S
C1049 C1048 1.395 . S
C1049 C1050 1.288 . S
C1050 C1049 1.288 . S
C1050 C1051 1.392 . S
C1051 H1027 0.951 . S
C1051 C1050 1.392 . S
C1051 C1052 1.392 . S
C1052 H1028 0.949 . S
C1052 C1047 1.382 . S
C1052 C1051 1.392 . S
C1053 C1054 1.376 . S
C1053 C1058 1.386 . S
C1053 C1059 1.483 . S
C1054 H1029 0.949 . S
C1054 C1053 1.376 . S
C1054 C1055 1.397 . S
C1055 H1030 0.950 . S
C1055 C1054 1.397 . S
C1055 C1056 1.391 . S
C1056 C1055 1.391 . S
C1056 C1057 1.405 . S
C1057 H1031 0.950 . S
C1057 C1056 1.405 . S
C1057 C1058 1.367 . S
C1058 H1032 0.950 . S
C1058 C1053 1.386 . S
C1058 C1057 1.367 . S
C1059 C1053 1.483 . S
C1059 C1060 1.382 . S
C1059 C1061 1.403 . S
C1060 H1033 0.950 . S
C1060 C1046 1.411 . S
C1060 C1059 1.382 . S
C1061 C1045 1.411 . S
C1061 C1059 1.403 . S
C1061 C1062 1.489 . S
C1062 C1061 1.489 . S
C1062 C1063 1.383 . S
C1062 C1067 1.382 . S
C1063 H1034 0.950 . S
C1063 C1062 1.383 . S
C1063 C1064 1.395 . S
C1064 H1035 0.950 . S
C1064 C1063 1.395 . S
C1064 C1065 1.288 . S
C1065 C1064 1.288 . S
C1065 C1066 1.392 . S
C1066 H1036 0.951 . S
C1066 C1065 1.392 . S
C1066 C1067 1.392 . S
C1067 H1037 0.949 . S
C1067 C1062 1.382 . S
C1067 C1066 1.392 . S
H1068 C1087 0.949 . S
H1069 C1088 0.950 . S
H1070 C1090 0.950 . S
H1071 C1091 0.950 . S
H1072 C1093 0.950 . S
H1073 C1096 0.950 . S
H1074 C1097 0.950 . S
H1075 C1099 0.951 . S
H1076 C1100 0.949 . S
H1077 C1102 0.949 . S
H1078 C1103 0.950 . S
H1079 C1105 0.950 . S
H1080 C1106 0.950 . S
H1081 C1108 0.950 . S
H1082 C1111 0.950 . S
H1083 C1112 0.950 . S
H1084 C1114 0.951 . S
H1085 C1115 0.949 . S
C1086 C1087 1.376 . S
C1086 C1091 1.386 . S
C1086 C1092 1.483 . S
C1087 H1068 0.949 . S
C1087 C1086 1.376 . S
C1087 C1088 1.397 . S
C1088 H1069 0.950 . S
C1088 C1087 1.397 . S
C1088 C1089 1.391 . S
C1089 C1088 1.391 . S
C1089 C1090 1.405 . S
C1090 H1070 0.950 . S
C1090 C1089 1.405 . S
C1090 C1091 1.367 . S
C1091 H1071 0.950 . S
C1091 C1086 1.386 . S
C1091 C1090 1.367 . S
C1092 C1086 1.483 . S
C1092 C1093 1.382 . S
C1092 C1094 1.403 . S
C1093 H1072 0.950 . S
C1093 C1092 1.382 . S
C1093 C1109 1.411 . S
C1094 C1092 1.403 . S
C1094 C1095 1.489 . S
C1094 C1108 1.411 . S
C1095 C1094 1.489 . S
C1095 C1096 1.383 . S
C1095 C1100 1.382 . S
C1096 H1073 0.950 . S
C1096 C1095 1.383 . S
C1096 C1097 1.395 . S
C1097 H1074 0.950 . S
C1097 C1096 1.395 . S
C1097 C1098 1.288 . S
C1098 C1097 1.288 . S
C1098 C1099 1.392 . S
C1099 H1075 0.951 . S
C1099 C1098 1.392 . S
C1099 C1100 1.392 . S
C1100 H1076 0.949 . S
C1100 C1095 1.382 . S
C1100 C1099 1.392 . S
C1101 C1102 1.376 . S
C1101 C1106 1.386 . S
C1101 C1107 1.483 . S
C1102 H1077 0.949 . S
C1102 C1101 1.376 . S
C1102 C1103 1.397 . S
C1103 H1078 0.950 . S
C1103 C1102 1.397 . S
C1103 C1104 1.391 . S
C1104 C1103 1.391 . S
C1104 C1105 1.405 . S
C1105 H1079 0.950 . S
C1105 C1104 1.405 . S
C1105 C1106 1.367 . S
C1106 H1080 0.950 . S
C1106 C1101 1.386 . S
C1106 C1105 1.367 . S
C1107 C1101 1.483 . S
C1107 C1108 1.382 . S
C1107 C1109 1.403 . S
C1108 H1081 0.950 . S
C1108 C1094 1.411 . S
C1108 C1107 1.382 . S
C1109 C1093 1.411 . S
C1109 C1107 1.403 . S
C1109 C1110 1.489 . S
C1110 C1109 1.489 . S
C1110 C1111 1.383 . S
C1110 C1115 1.382 . S
C1111 H1082 0.950 . S
C1111 C1110 1.383 . S
C1111 C1112 1.395 . S
C1112 H1083 0.950 . S
C1112 C1111 1.395 . S
C1112 C1113 1.288 . S
C1113 C1112 1.288 . S
C1113 C1114 1.392 . S
C1114 H1084 0.951 . S
C1114 C1113 1.392 . S
C1114 C1115 1.392 . S
C1115 H1085 0.949 . S
C1115 C1110 1.382 . S
C1115 C1114 1.392 . S
H1116 C1124 0.950 . S
H1117 C1129 0.950 . S
H1118 C1126 0.950 . S
H1119 C1128 0.950 . S
H1120 C1130 0.950 . S
H1121 C1132 0.950 . S
H1122 C1134 0.950 . S
H1123 C1135 0.950 . S
C1124 H1116 0.950 . S
C1124 C1125 1.386 1_455 S
C1124 C1126 1.391 . S
C1125 C1124 1.386 1_655 S
C1125 C1129 1.393 . S
C1126 H1118 0.950 . S
C1126 C1124 1.391 . S
C1126 C1127 1.400 1_455 S
C1127 C1126 1.400 1_655 S
C1127 C1128 1.398 . S
C1127 C1133 1.491 . S
C1128 H1119 0.950 . S
C1128 C1127 1.398 . S
C1128 C1129 1.391 . S
C1129 H1117 0.950 . S
C1129 C1125 1.393 . S
C1129 C1128 1.391 . S
C1130 H1120 0.950 . S
C1130 C1131 1.386 . S
C1130 C1132 1.391 . S
C1131 C1130 1.386 . S
C1131 C1135 1.393 1_655 S
C1132 H1121 0.950 . S
C1132 C1130 1.391 . S
C1132 C1133 1.400 . S
C1133 C1127 1.491 . S
C1133 C1132 1.400 . S
C1133 C1134 1.398 1_655 S
C1134 H1122 0.950 . S
C1134 C1133 1.398 1_455 S
C1134 C1135 1.391 . S
C1135 H1123 0.950 . S
C1135 C1131 1.393 1_455 S
C1135 C1134 1.391 . S
H1136 C1144 0.950 . S
H1137 C1149 0.950 . S
H1138 C1146 0.950 . S
H1139 C1148 0.950 . S
H1140 C1150 0.950 . S
H1141 C1152 0.950 . S
H1142 C1154 0.950 . S
H1143 C1155 0.950 . S
C1144 H1136 0.950 . S
C1144 C1145 1.386 . S
C1144 C1146 1.391 . S
C1145 C1144 1.386 . S
C1145 C1149 1.393 . S
C1146 H1138 0.950 . S
C1146 C1144 1.391 . S
C1146 C1147 1.400 . S
C1147 C1146 1.400 . S
C1147 C1148 1.398 . S
C1147 C1153 1.491 . S
C1148 H1139 0.950 . S
C1148 C1147 1.398 . S
C1148 C1149 1.391 . S
C1149 H1137 0.950 . S
C1149 C1145 1.393 . S
C1149 C1148 1.391 . S
C1150 H1140 0.950 . S
C1150 C1151 1.386 . S
C1150 C1152 1.391 . S
C1151 C1150 1.386 . S
C1151 C1155 1.393 . S
C1152 H1141 0.950 . S
C1152 C1150 1.391 . S
C1152 C1153 1.400 . S
C1153 C1147 1.491 . S
C1153 C1152 1.400 . S
C1153 C1154 1.398 . S
C1154 H1142 0.950 . S
C1154 C1153 1.398 . S
C1154 C1155 1.391 . S
C1155 H1143 0.950 . S
C1155 C1151 1.393 . S
C1155 C1154 1.391 . S
H1156 C1164 0.950 1_565 S
H1157 C1169 0.950 . S
H1158 C1166 0.950 1_565 S
H1159 C1168 0.950 . S
H1160 C1170 0.950 . S
H1161 C1172 0.950 . S
H1162 C1174 0.950 . S
H1163 C1175 0.950 . S
C1164 H1156 0.950 1_545 S
C1164 C1165 1.386 . S
C1164 C1166 1.391 . S
C1165 C1164 1.386 . S
C1165 C1169 1.393 . S
C1166 H1158 0.950 1_545 S
C1166 C1164 1.391 . S
C1166 C1167 1.400 . S
C1167 C1166 1.400 . S
C1167 C1168 1.398 . S
C1167 C1173 1.491 . S
C1168 H1159 0.950 . S
C1168 C1167 1.398 . S
C1168 C1169 1.391 . S
C1169 H1157 0.950 . S
C1169 C1165 1.393 . S
C1169 C1168 1.391 . S
C1170 H1160 0.950 . S
C1170 C1171 1.386 . S
C1170 C1172 1.391 . S
C1171 C1170 1.386 . S
C1171 C1175 1.393 1_545 S
C1172 H1161 0.950 . S
C1172 C1170 1.391 . S
C1172 C1173 1.400 . S
C1173 C1167 1.491 . S
C1173 C1172 1.400 . S
C1173 C1174 1.398 1_545 S
C1174 H1162 0.950 . S
C1174 C1173 1.398 1_565 S
C1174 C1175 1.391 . S
C1175 H1163 0.950 . S
C1175 C1171 1.393 1_565 S
C1175 C1174 1.391 . S
H1176 C1184 0.950 . S
H1177 C1189 0.950 . S
H1178 C1186 0.950 . S
H1179 C1188 0.950 . S
H1180 C1190 0.950 . S
H1181 C1192 0.950 . S
H1182 C1194 0.950 . S
H1183 C1195 0.950 . S
C1184 H1176 0.950 . S
C1184 C1185 1.386 1_545 S
C1184 C1186 1.391 . S
C1185 C1184 1.386 1_565 S
C1185 C1189 1.393 . S
C1186 H1178 0.950 . S
C1186 C1184 1.391 . S
C1186 C1187 1.400 1_545 S
C1187 C1186 1.400 1_565 S
C1187 C1188 1.398 . S
C1187 C1193 1.491 . S
C1188 H1179 0.950 . S
C1188 C1187 1.398 . S
C1188 C1189 1.391 . S
C1189 H1177 0.950 . S
C1189 C1185 1.393 . S
C1189 C1188 1.391 . S
C1190 H1180 0.950 . S
C1190 C1191 1.386 . S
C1190 C1192 1.391 . S
C1191 C1190 1.386 . S
C1191 C1195 1.393 1_565 S
C1192 H1181 0.950 . S
C1192 C1190 1.391 . S
C1192 C1193 1.400 . S
C1193 C1187 1.491 . S
C1193 C1192 1.400 . S
C1193 C1194 1.398 1_565 S
C1194 H1182 0.950 . S
C1194 C1193 1.398 1_545 S
C1194 C1195 1.391 . S
C1195 H1183 0.950 . S
C1195 C1191 1.393 1_545 S
C1195 C1194 1.391 . S
H1196 C1204 0.950 . S
H1197 C1209 0.950 . S
H1198 C1206 0.950 . S
H1199 C1208 0.950 . S
H1200 C1210 0.950 . S
H1201 C1212 0.950 . S
H1202 C1214 0.950 . S
H1203 C1215 0.950 . S
C1204 H1196 0.950 . S
C1204 C1205 1.386 . S
C1204 C1206 1.391 . S
C1205 C1204 1.386 . S
C1205 C1209 1.393 1_455 S
C1206 H1198 0.950 . S
C1206 C1204 1.391 . S
C1206 C1207 1.400 . S
C1207 C1206 1.400 . S
C1207 C1208 1.398 1_455 S
C1207 C1213 1.491 . S
C1208 H1199 0.950 . S
C1208 C1207 1.398 1_655 S
C1208 C1209 1.391 . S
C1209 H1197 0.950 . S
C1209 C1205 1.393 1_655 S
C1209 C1208 1.391 . S
C1210 H1200 0.950 . S
C1210 C1211 1.386 1_655 S
C1210 C1212 1.391 . S
C1211 C1210 1.386 1_455 S
C1211 C1215 1.393 . S
C1212 H1201 0.950 . S
C1212 C1210 1.391 . S
C1212 C1213 1.400 1_655 S
C1213 C1207 1.491 . S
C1213 C1212 1.400 1_455 S
C1213 C1214 1.398 . S
C1214 H1202 0.950 . S
C1214 C1213 1.398 . S
C1214 C1215 1.391 . S
C1215 H1203 0.950 . S
C1215 C1211 1.393 . S
C1215 C1214 1.391 . S
H1216 C1224 0.950 . S
H1217 C1229 0.950 . S
H1218 C1226 0.950 . S
H1219 C1228 0.950 . S
H1220 C1230 0.950 . S
H1221 C1232 0.950 . S
H1222 C1234 0.950 . S
H1223 C1235 0.950 . S
C1224 H1216 0.950 . S
C1224 C1225 1.386 . S
C1224 C1226 1.391 . S
C1225 C1224 1.386 . S
C1225 C1229 1.393 . S
C1226 H1218 0.950 . S
C1226 C1224 1.391 . S
C1226 C1227 1.400 . S
C1227 C1226 1.400 . S
C1227 C1228 1.398 . S
C1227 C1233 1.491 . S
C1228 H1219 0.950 . S
C1228 C1227 1.398 . S
C1228 C1229 1.391 . S
C1229 H1217 0.950 . S
C1229 C1225 1.393 . S
C1229 C1228 1.391 . S
C1230 H1220 0.950 . S
C1230 C1231 1.386 . S
C1230 C1232 1.391 . S
C1231 C1230 1.386 . S
C1231 C1235 1.393 . S
C1232 H1221 0.950 . S
C1232 C1230 1.391 . S
C1232 C1233 1.400 . S
C1233 C1227 1.491 . S
C1233 C1232 1.400 . S
C1233 C1234 1.398 . S
C1234 H1222 0.950 . S
C1234 C1233 1.398 . S
C1234 C1235 1.391 . S
C1235 H1223 0.950 . S
C1235 C1231 1.393 . S
C1235 C1234 1.391 . S
H1236 C1244 0.950 . S
H1237 C1249 0.950 . S
H1238 C1246 0.950 . S
H1239 C1248 0.950 . S
H1240 C1250 0.950 . S
H1241 C1252 0.950 . S
H1242 C1254 0.950 . S
H1243 C1255 0.950 . S
C1244 H1236 0.950 . S
C1244 C1245 1.386 . S
C1244 C1246 1.391 . S
C1245 C1244 1.386 . S
C1245 C1249 1.393 1_455 S
C1246 H1238 0.950 . S
C1246 C1244 1.391 . S
C1246 C1247 1.400 . S
C1247 C1246 1.400 . S
C1247 C1248 1.398 1_455 S
C1247 C1253 1.491 . S
C1248 H1239 0.950 . S
C1248 C1247 1.398 1_655 S
C1248 C1249 1.391 . S
C1249 H1237 0.950 . S
C1249 C1245 1.393 1_655 S
C1249 C1248 1.391 . S
C1250 H1240 0.950 . S
C1250 C1251 1.386 1_655 S
C1250 C1252 1.391 . S
C1251 C1250 1.386 1_455 S
C1251 C1255 1.393 . S
C1252 H1241 0.950 . S
C1252 C1250 1.391 . S
C1252 C1253 1.400 1_655 S
C1253 C1247 1.491 . S
C1253 C1252 1.400 1_455 S
C1253 C1254 1.398 . S
C1254 H1242 0.950 . S
C1254 C1253 1.398 . S
C1254 C1255 1.391 . S
C1255 H1243 0.950 . S
C1255 C1251 1.393 . S
C1255 C1254 1.391 . S
H1256 C1264 0.950 . S
H1257 C1269 0.950 . S
H1258 C1266 0.950 . S
H1259 C1268 0.950 . S
H1260 C1270 0.950 . S
H1261 C1272 0.950 . S
H1262 C1274 0.950 . S
H1263 C1275 0.950 . S
C1264 H1256 0.950 . S
C1264 C1265 1.386 . S
C1264 C1266 1.391 . S
C1265 C1264 1.386 . S
C1265 C1269 1.393 . S
C1266 H1258 0.950 . S
C1266 C1264 1.391 . S
C1266 C1267 1.400 . S
C1267 C1266 1.400 . S
C1267 C1268 1.398 . S
C1267 C1273 1.491 . S
C1268 H1259 0.950 . S
C1268 C1267 1.398 . S
C1268 C1269 1.391 . S
C1269 H1257 0.950 . S
C1269 C1265 1.393 . S
C1269 C1268 1.391 . S
C1270 H1260 0.950 . S
C1270 C1271 1.386 . S
C1270 C1272 1.391 . S
C1271 C1270 1.386 . S
C1271 C1275 1.393 . S
C1272 H1261 0.950 . S
C1272 C1270 1.391 . S
C1272 C1273 1.400 . S
C1273 C1267 1.491 . S
C1273 C1272 1.400 . S
C1273 C1274 1.398 . S
C1274 H1262 0.950 . S
C1274 C1273 1.398 . S
C1274 C1275 1.391 . S
C1275 H1263 0.950 . S
C1275 C1271 1.393 . S
C1275 C1274 1.391 . S
H1276 C1284 0.950 . S
H1277 C1289 0.950 . S
H1278 C1286 0.950 . S
H1279 C1288 0.950 . S
H1280 C1290 0.950 . S
H1281 C1292 0.950 . S
H1282 C1294 0.950 . S
H1283 C1295 0.950 . S
C1284 H1276 0.950 . S
C1284 C1285 1.386 1_545 S
C1284 C1286 1.391 . S
C1285 C1284 1.386 1_565 S
C1285 C1289 1.393 . S
C1286 H1278 0.950 . S
C1286 C1284 1.391 . S
C1286 C1287 1.400 1_545 S
C1287 C1286 1.400 1_565 S
C1287 C1288 1.398 . S
C1287 C1293 1.491 . S
C1288 H1279 0.950 . S
C1288 C1287 1.398 . S
C1288 C1289 1.391 . S
C1289 H1277 0.950 . S
C1289 C1285 1.393 . S
C1289 C1288 1.391 . S
C1290 H1280 0.950 . S
C1290 C1291 1.386 . S
C1290 C1292 1.391 . S
C1291 C1290 1.386 . S
C1291 C1295 1.393 1_565 S
C1292 H1281 0.950 . S
C1292 C1290 1.391 . S
C1292 C1293 1.400 . S
C1293 C1287 1.491 . S
C1293 C1292 1.400 . S
C1293 C1294 1.398 1_565 S
C1294 H1282 0.950 . S
C1294 C1293 1.398 1_545 S
C1294 C1295 1.391 . S
C1295 H1283 0.950 . S
C1295 C1291 1.393 1_545 S
C1295 C1294 1.391 . S
H1296 C1304 0.950 . S
H1297 C1309 0.950 . S
H1298 C1306 0.950 . S
H1299 C1308 0.950 . S
H1300 C1310 0.950 . S
H1301 C1312 0.950 . S
H1302 C1314 0.950 . S
H1303 C1315 0.950 . S
C1304 H1296 0.950 . S
C1304 C1305 1.386 . S
C1304 C1306 1.391 . S
C1305 C1304 1.386 . S
C1305 C1309 1.393 1_545 S
C1306 H1298 0.950 . S
C1306 C1304 1.391 . S
C1306 C1307 1.400 . S
C1307 C1306 1.400 . S
C1307 C1308 1.398 1_545 S
C1307 C1313 1.491 . S
C1308 H1299 0.950 . S
C1308 C1307 1.398 1_565 S
C1308 C1309 1.391 . S
C1309 H1297 0.950 . S
C1309 C1305 1.393 1_565 S
C1309 C1308 1.391 . S
C1310 H1300 0.950 . S
C1310 C1311 1.386 1_565 S
C1310 C1312 1.391 . S
C1311 C1310 1.386 1_545 S
C1311 C1315 1.393 . S
C1312 H1301 0.950 . S
C1312 C1310 1.391 . S
C1312 C1313 1.400 1_565 S
C1313 C1307 1.491 . S
C1313 C1312 1.400 1_545 S
C1313 C1314 1.398 . S
C1314 H1302 0.950 . S
C1314 C1313 1.398 . S
C1314 C1315 1.391 . S
C1315 H1303 0.950 . S
C1315 C1311 1.393 . S
C1315 C1314 1.391 . S
H1316 C1324 0.950 . S
H1317 C1329 0.950 . S
H1318 C1326 0.950 . S
H1319 C1328 0.950 . S
H1320 C1330 0.950 . S
H1321 C1332 0.950 . S
H1322 C1334 0.950 . S
H1323 C1335 0.950 . S
C1324 H1316 0.950 . S
C1324 C1325 1.386 1_455 S
C1324 C1326 1.391 . S
C1325 C1324 1.386 1_655 S
C1325 C1329 1.393 . S
C1326 H1318 0.950 . S
C1326 C1324 1.391 . S
C1326 C1327 1.400 1_455 S
C1327 C1326 1.400 1_655 S
C1327 C1328 1.398 . S
C1327 C1333 1.491 . S
C1328 H1319 0.950 . S
C1328 C1327 1.398 . S
C1328 C1329 1.391 . S
C1329 H1317 0.950 . S
C1329 C1325 1.393 . S
C1329 C1328 1.391 . S
C1330 H1320 0.950 . S
C1330 C1331 1.386 . S
C1330 C1332 1.391 . S
C1331 C1330 1.386 . S
C1331 C1335 1.393 1_655 S
C1332 H1321 0.950 . S
C1332 C1330 1.391 . S
C1332 C1333 1.400 . S
C1333 C1327 1.491 . S
C1333 C1332 1.400 . S
C1333 C1334 1.398 1_655 S
C1334 H1322 0.950 . S
C1334 C1333 1.398 1_455 S
C1334 C1335 1.391 . S
C1335 H1323 0.950 . S
C1335 C1331 1.393 1_455 S
C1335 C1334 1.391 . S
H1336 C1344 0.950 . S
H1337 C1349 0.950 . S
H1338 C1346 0.950 . S
H1339 C1348 0.950 . S
H1340 C1350 0.950 . S
H1341 C1352 0.950 . S
H1342 C1354 0.950 . S
H1343 C1355 0.950 . S
C1344 H1336 0.950 . S
C1344 C1345 1.386 . S
C1344 C1346 1.391 . S
C1345 C1344 1.386 . S
C1345 C1349 1.393 . S
C1346 H1338 0.950 . S
C1346 C1344 1.391 . S
C1346 C1347 1.400 . S
C1347 C1346 1.400 . S
C1347 C1348 1.398 . S
C1347 C1353 1.491 . S
C1348 H1339 0.950 . S
C1348 C1347 1.398 . S
C1348 C1349 1.391 . S
C1349 H1337 0.950 . S
C1349 C1345 1.393 . S
C1349 C1348 1.391 . S
C1350 H1340 0.950 . S
C1350 C1351 1.386 . S
C1350 C1352 1.391 . S
C1351 C1350 1.386 . S
C1351 C1355 1.393 . S
C1352 H1341 0.950 . S
C1352 C1350 1.391 . S
C1352 C1353 1.400 . S
C1353 C1347 1.491 . S
C1353 C1352 1.400 . S
C1353 C1354 1.398 . S
C1354 H1342 0.950 . S
C1354 C1353 1.398 . S
C1354 C1355 1.391 . S
C1355 H1343 0.950 . S
C1355 C1351 1.393 . S
C1355 C1354 1.391 . S
H1356 C1364 0.950 . S
H1357 C1369 0.950 . S
H1358 C1366 0.950 . S
H1359 C1368 0.950 . S
H1360 C1370 0.950 . S
H1361 C1372 0.950 . S
H1362 C1374 0.950 . S
H1363 C1375 0.950 . S
C1364 H1356 0.950 . S
C1364 C1365 1.386 . S
C1364 C1366 1.391 . S
C1365 C1364 1.386 . S
C1365 C1369 1.393 . S
C1366 H1358 0.950 . S
C1366 C1364 1.391 . S
C1366 C1367 1.400 . S
C1367 C1366 1.400 . S
C1367 C1368 1.398 . S
C1367 C1373 1.491 . S
C1368 H1359 0.950 . S
C1368 C1367 1.398 . S
C1368 C1369 1.391 . S
C1369 H1357 0.950 . S
C1369 C1365 1.393 . S
C1369 C1368 1.391 . S
C1370 H1360 0.950 . S
C1370 C1371 1.386 . S
C1370 C1372 1.391 . S
C1371 C1370 1.386 . S
C1371 C1375 1.393 . S
C1372 H1361 0.950 . S
C1372 C1370 1.391 . S
C1372 C1373 1.400 . S
C1373 C1367 1.491 . S
C1373 C1372 1.400 . S
C1373 C1374 1.398 . S
C1374 H1362 0.950 . S
C1374 C1373 1.398 . S
C1374 C1375 1.391 . S
C1375 H1363 0.950 . S
C1375 C1371 1.393 . S
C1375 C1374 1.391 . S
H1376 C1384 0.950 . S
H1377 C1389 0.950 . S
H1378 C1386 0.950 . S
H1379 C1388 0.950 . S
H1380 C1390 0.950 . S
H1381 C1392 0.950 . S
H1382 C1394 0.950 . S
H1383 C1395 0.950 . S
C1384 H1376 0.950 . S
C1384 C1385 1.386 . S
C1384 C1386 1.391 . S
C1385 C1384 1.386 . S
C1385 C1389 1.393 . S
C1386 H1378 0.950 . S
C1386 C1384 1.391 . S
C1386 C1387 1.400 . S
C1387 C1386 1.400 . S
C1387 C1388 1.398 . S
C1387 C1393 1.491 . S
C1388 H1379 0.950 . S
C1388 C1387 1.398 . S
C1388 C1389 1.391 . S
C1389 H1377 0.950 . S
C1389 C1385 1.393 . S
C1389 C1388 1.391 . S
C1390 H1380 0.950 . S
C1390 C1391 1.386 . S
C1390 C1392 1.391 . S
C1391 C1390 1.386 . S
C1391 C1395 1.393 . S
C1392 H1381 0.950 . S
C1392 C1390 1.391 . S
C1392 C1393 1.400 . S
C1393 C1387 1.491 . S
C1393 C1392 1.400 . S
C1393 C1394 1.398 . S
C1394 H1382 0.950 . S
C1394 C1393 1.398 . S
C1394 C1395 1.391 . S
C1395 H1383 0.950 . S
C1395 C1391 1.393 . S
C1395 C1394 1.391 . S
H1396 C1404 0.950 . S
H1397 C1409 0.950 . S
H1398 C1406 0.950 . S
H1399 C1408 0.950 . S
H1400 C1410 0.950 . S
H1401 C1412 0.950 . S
H1402 C1414 0.950 . S
H1403 C1415 0.950 . S
C1404 H1396 0.950 . S
C1404 C1405 1.386 . S
C1404 C1406 1.391 . S
C1405 C1404 1.386 . S
C1405 C1409 1.393 . S
C1406 H1398 0.950 . S
C1406 C1404 1.391 . S
C1406 C1407 1.400 . S
C1407 C1406 1.400 . S
C1407 C1408 1.398 . S
C1407 C1413 1.491 . S
C1408 H1399 0.950 . S
C1408 C1407 1.398 . S
C1408 C1409 1.391 . S
C1409 H1397 0.950 . S
C1409 C1405 1.393 . S
C1409 C1408 1.391 . S
C1410 H1400 0.950 . S
C1410 C1411 1.386 . S
C1410 C1412 1.391 . S
C1411 C1410 1.386 . S
C1411 C1415 1.393 . S
C1412 H1401 0.950 . S
C1412 C1410 1.391 . S
C1412 C1413 1.400 . S
C1413 C1407 1.491 . S
C1413 C1412 1.400 . S
C1413 C1414 1.398 . S
C1414 H1402 0.950 . S
C1414 C1413 1.398 . S
C1414 C1415 1.391 . S
C1415 H1403 0.950 . S
C1415 C1411 1.393 . S
C1415 C1414 1.391 . S
H1416 C1424 0.950 . S
H1417 C1429 0.950 . S
H1418 C1426 0.950 . S
H1419 C1428 0.950 . S
H1420 C1430 0.950 . S
H1421 C1432 0.950 . S
H1422 C1434 0.950 . S
H1423 C1435 0.950 . S
C1424 H1416 0.950 . S
C1424 C1425 1.386 . S
C1424 C1426 1.391 . S
C1425 C1424 1.386 . S
C1425 C1429 1.393 . S
C1426 H1418 0.950 . S
C1426 C1424 1.391 . S
C1426 C1427 1.400 . S
C1427 C1426 1.400 . S
C1427 C1428 1.398 . S
C1427 C1433 1.491 . S
C1428 H1419 0.950 . S
C1428 C1427 1.398 . S
C1428 C1429 1.391 . S
C1429 H1417 0.950 . S
C1429 C1425 1.393 . S
C1429 C1428 1.391 . S
C1430 H1420 0.950 . S
C1430 C1431 1.386 . S
C1430 C1432 1.391 . S
C1431 C1430 1.386 . S
C1431 C1435 1.393 . S
C1432 H1421 0.950 . S
C1432 C1430 1.391 . S
C1432 C1433 1.400 . S
C1433 C1427 1.491 . S
C1433 C1432 1.400 . S
C1433 C1434 1.398 . S
C1434 H1422 0.950 . S
C1434 C1433 1.398 . S
C1434 C1435 1.391 . S
C1435 H1423 0.950 . S
C1435 C1431 1.393 . S
C1435 C1434 1.391 . S
H1436 C1444 0.950 . S
H1437 C1449 0.950 . S
H1438 C1446 0.950 . S
H1439 C1448 0.950 . S
H1440 C1450 0.950 . S
H1441 C1452 0.950 . S
H1442 C1454 0.950 . S
H1443 C1455 0.950 . S
C1444 H1436 0.950 . S
C1444 C1445 1.386 . S
C1444 C1446 1.391 . S
C1445 C1444 1.386 . S
C1445 C1449 1.393 . S
C1446 H1438 0.950 . S
C1446 C1444 1.391 . S
C1446 C1447 1.400 . S
C1447 C1446 1.400 . S
C1447 C1448 1.398 . S
C1447 C1453 1.491 . S
C1448 H1439 0.950 . S
C1448 C1447 1.398 . S
C1448 C1449 1.391 . S
C1449 H1437 0.950 . S
C1449 C1445 1.393 . S
C1449 C1448 1.391 . S
C1450 H1440 0.950 . S
C1450 C1451 1.386 . S
C1450 C1452 1.391 . S
C1451 C1450 1.386 . S
C1451 C1455 1.393 . S
C1452 H1441 0.950 . S
C1452 C1450 1.391 . S
C1452 C1453 1.400 . S
C1453 C1447 1.491 . S
C1453 C1452 1.400 . S
C1453 C1454 1.398 . S
C1454 H1442 0.950 . S
C1454 C1453 1.398 . S
C1454 C1455 1.391 . S
C1455 H1443 0.950 . S
C1455 C1451 1.393 . S
C1455 C1454 1.391 . S
H1456 C1464 0.950 . S
H1457 C1469 0.950 . S
H1458 C1466 0.950 . S
H1459 C1468 0.950 . S
H1460 C1470 0.950 . S
H1461 C1472 0.950 . S
H1462 C1474 0.950 . S
H1463 C1475 0.950 . S
C1464 H1456 0.950 . S
C1464 C1465 1.386 . S
C1464 C1466 1.391 . S
C1465 C1464 1.386 . S
C1465 C1469 1.393 . S
C1466 H1458 0.950 . S
C1466 C1464 1.391 . S
C1466 C1467 1.400 . S
C1467 C1466 1.400 . S
C1467 C1468 1.398 . S
C1467 C1473 1.491 . S
C1468 H1459 0.950 . S
C1468 C1467 1.398 . S
C1468 C1469 1.391 . S
C1469 H1457 0.950 . S
C1469 C1465 1.393 . S
C1469 C1468 1.391 . S
C1470 H1460 0.950 . S
C1470 C1471 1.386 . S
C1470 C1472 1.391 . S
C1471 C1470 1.386 . S
C1471 C1475 1.393 . S
C1472 H1461 0.950 . S
C1472 C1470 1.391 . S
C1472 C1473 1.400 . S
C1473 C1467 1.491 . S
C1473 C1472 1.400 . S
C1473 C1474 1.398 . S
C1474 H1462 0.950 . S
C1474 C1473 1.398 . S
C1474 C1475 1.391 . S
C1475 H1463 0.950 . S
C1475 C1471 1.393 . S
C1475 C1474 1.391 . S
H1476 C1484 0.950 . S
H1477 C1489 0.950 . S
H1478 C1486 0.950 . S
H1479 C1488 0.950 . S
H1480 C1490 0.950 . S
H1481 C1492 0.950 . S
H1482 C1494 0.950 . S
H1483 C1495 0.950 . S
C1484 H1476 0.950 . S
C1484 C1485 1.386 . S
C1484 C1486 1.391 . S
C1485 C1484 1.386 . S
C1485 C1489 1.393 . S
C1486 H1478 0.950 . S
C1486 C1484 1.391 . S
C1486 C1487 1.400 . S
C1487 C1486 1.400 . S
C1487 C1488 1.398 . S
C1487 C1493 1.491 . S
C1488 H1479 0.950 . S
C1488 C1487 1.398 . S
C1488 C1489 1.391 . S
C1489 H1477 0.950 . S
C1489 C1485 1.393 . S
C1489 C1488 1.391 . S
C1490 H1480 0.950 . S
C1490 C1491 1.386 . S
C1490 C1492 1.391 . S
C1491 C1490 1.386 . S
C1491 C1495 1.393 . S
C1492 H1481 0.950 . S
C1492 C1490 1.391 . S
C1492 C1493 1.400 . S
C1493 C1487 1.491 . S
C1493 C1492 1.400 . S
C1493 C1494 1.398 . S
C1494 H1482 0.950 . S
C1494 C1493 1.398 . S
C1494 C1495 1.391 . S
C1495 H1483 0.950 . S
C1495 C1491 1.393 . S
C1495 C1494 1.391 . S
H1496 C1504 0.950 . S
H1497 C1509 0.950 . S
H1498 C1506 0.950 . S
H1499 C1508 0.950 . S
H1500 C1510 0.950 . S
H1501 C1512 0.950 . S
H1502 C1514 0.950 . S
H1503 C1515 0.950 . S
C1504 H1496 0.950 . S
C1504 C1505 1.386 . S
C1504 C1506 1.391 . S
C1505 C1504 1.386 . S
C1505 C1509 1.393 . S
C1506 H1498 0.950 . S
C1506 C1504 1.391 . S
C1506 C1507 1.400 . S
C1507 C1506 1.400 . S
C1507 C1508 1.398 . S
C1507 C1513 1.491 . S
C1508 H1499 0.950 . S
C1508 C1507 1.398 . S
C1508 C1509 1.391 . S
C1509 H1497 0.950 . S
C1509 C1505 1.393 . S
C1509 C1508 1.391 . S
C1510 H1500 0.950 . S
C1510 C1511 1.386 . S
C1510 C1512 1.391 . S
C1511 C1510 1.386 . S
C1511 C1515 1.393 . S
C1512 H1501 0.950 . S
C1512 C1510 1.391 . S
C1512 C1513 1.400 . S
C1513 C1507 1.491 . S
C1513 C1512 1.400 . S
C1513 C1514 1.398 . S
C1514 H1502 0.950 . S
C1514 C1513 1.398 . S
C1514 C1515 1.391 . S
C1515 H1503 0.950 . S
C1515 C1511 1.393 . S
C1515 C1514 1.391 . S
H1516 C1524 0.950 . S
H1517 C1529 0.950 . S
H1518 C1526 0.950 . S
H1519 C1528 0.950 . S
H1520 C1530 0.950 . S
H1521 C1532 0.950 . S
H1522 C1534 0.950 . S
H1523 C1535 0.950 . S
C1524 H1516 0.950 . S
C1524 C1525 1.386 . S
C1524 C1526 1.391 . S
C1525 C1524 1.386 . S
C1525 C1529 1.393 . S
C1526 H1518 0.950 . S
C1526 C1524 1.391 . S
C1526 C1527 1.400 . S
C1527 C1526 1.400 . S
C1527 C1528 1.398 . S
C1527 C1533 1.491 . S
C1528 H1519 0.950 . S
C1528 C1527 1.398 . S
C1528 C1529 1.391 . S
C1529 H1517 0.950 . S
C1529 C1525 1.393 . S
C1529 C1528 1.391 . S
C1530 H1520 0.950 . S
C1530 C1531 1.386 . S
C1530 C1532 1.391 . S
C1531 C1530 1.386 . S
C1531 C1535 1.393 . S
C1532 H1521 0.950 . S
C1532 C1530 1.391 . S
C1532 C1533 1.400 . S
C1533 C1527 1.491 . S
C1533 C1532 1.400 . S
C1533 C1534 1.398 . S
C1534 H1522 0.950 . S
C1534 C1533 1.398 . S
C1534 C1535 1.391 . S
C1535 H1523 0.950 . S
C1535 C1531 1.393 . S
C1535 C1534 1.391 . S
H1536 C1544 0.950 . S
H1537 C1549 0.950 . S
H1538 C1546 0.950 . S
H1539 C1548 0.950 . S
H1540 C1550 0.950 . S
H1541 C1552 0.950 . S
H1542 C1554 0.950 . S
H1543 C1555 0.950 . S
C1544 H1536 0.950 . S
C1544 C1545 1.386 . S
C1544 C1546 1.391 . S
C1545 C1544 1.386 . S
C1545 C1549 1.393 . S
C1546 H1538 0.950 . S
C1546 C1544 1.391 . S
C1546 C1547 1.400 . S
C1547 C1546 1.400 . S
C1547 C1548 1.398 . S
C1547 C1553 1.491 . S
C1548 H1539 0.950 . S
C1548 C1547 1.398 . S
C1548 C1549 1.391 . S
C1549 H1537 0.950 . S
C1549 C1545 1.393 . S
C1549 C1548 1.391 . S
C1550 H1540 0.950 . S
C1550 C1551 1.386 . S
C1550 C1552 1.391 . S
C1551 C1550 1.386 . S
C1551 C1555 1.393 . S
C1552 H1541 0.950 . S
C1552 C1550 1.391 . S
C1552 C1553 1.400 . S
C1553 C1547 1.491 . S
C1553 C1552 1.400 . S
C1553 C1554 1.398 . S
C1554 H1542 0.950 . S
C1554 C1553 1.398 . S
C1554 C1555 1.391 . S
C1555 H1543 0.950 . S
C1555 C1551 1.393 . S
C1555 C1554 1.391 . S
H1556 C1564 0.950 . S
H1557 C1569 0.950 . S
H1558 C1566 0.950 . S
H1559 C1568 0.950 . S
H1560 C1570 0.950 . S
H1561 C1572 0.950 . S
H1562 C1574 0.950 . S
H1563 C1575 0.950 . S
C1564 H1556 0.950 . S
C1564 C1565 1.386 . S
C1564 C1566 1.391 . S
C1565 C1564 1.386 . S
C1565 C1569 1.393 . S
C1566 H1558 0.950 . S
C1566 C1564 1.391 . S
C1566 C1567 1.400 . S
C1567 C1566 1.400 . S
C1567 C1568 1.398 . S
C1567 C1573 1.491 . S
C1568 H1559 0.950 . S
C1568 C1567 1.398 . S
C1568 C1569 1.391 . S
C1569 H1557 0.950 . S
C1569 C1565 1.393 . S
C1569 C1568 1.391 . S
C1570 H1560 0.950 . S
C1570 C1571 1.386 . S
C1570 C1572 1.391 . S
C1571 C1570 1.386 . S
C1571 C1575 1.393 . S
C1572 H1561 0.950 . S
C1572 C1570 1.391 . S
C1572 C1573 1.400 . S
C1573 C1567 1.491 . S
C1573 C1572 1.400 . S
C1573 C1574 1.398 . S
C1574 H1562 0.950 . S
C1574 C1573 1.398 . S
C1574 C1575 1.391 . S
C1575 H1563 0.950 . S
C1575 C1571 1.393 . S
C1575 C1574 1.391 . S
H1576 C1584 0.950 . S
H1577 C1589 0.950 . S
H1578 C1586 0.950 . S
H1579 C1588 0.950 . S
H1580 C1590 0.950 . S
H1581 C1592 0.950 . S
H1582 C1594 0.950 . S
H1583 C1595 0.950 . S
C1584 H1576 0.950 . S
C1584 C1585 1.386 . S
C1584 C1586 1.391 . S
C1585 C1584 1.386 . S
C1585 C1589 1.393 . S
C1586 H1578 0.950 . S
C1586 C1584 1.391 . S
C1586 C1587 1.400 . S
C1587 C1586 1.400 . S
C1587 C1588 1.398 . S
C1587 C1593 1.491 . S
C1588 H1579 0.950 . S
C1588 C1587 1.398 . S
C1588 C1589 1.391 . S
C1589 H1577 0.950 . S
C1589 C1585 1.393 . S
C1589 C1588 1.391 . S
C1590 H1580 0.950 . S
C1590 C1591 1.386 . S
C1590 C1592 1.391 . S
C1591 C1590 1.386 . S
C1591 C1595 1.393 . S
C1592 H1581 0.950 . S
C1592 C1590 1.391 . S
C1592 C1593 1.400 . S
C1593 C1587 1.491 . S
C1593 C1592 1.400 . S
C1593 C1594 1.398 . S
C1594 H1582 0.950 . S
C1594 C1593 1.398 . S
C1594 C1595 1.391 . S
C1595 H1583 0.950 . S
C1595 C1591 1.393 . S
C1595 C1594 1.391 . S
H1596 C1604 0.950 . S
H1597 C1609 0.950 . S
H1598 C1606 0.950 . S
H1599 C1608 0.950 . S
H1600 C1610 0.950 . S
H1601 C1612 0.950 . S
H1602 C1614 0.950 . S
H1603 C1615 0.950 . S
C1604 H1596 0.950 . S
C1604 C1605 1.386 . S
C1604 C1606 1.391 . S
C1605 C1604 1.386 . S
C1605 C1609 1.393 . S
C1606 H1598 0.950 . S
C1606 C1604 1.391 . S
C1606 C1607 1.400 . S
C1607 C1606 1.400 . S
C1607 C1608 1.398 . S
C1607 C1613 1.491 . S
C1608 H1599 0.950 . S
C1608 C1607 1.398 . S
C1608 C1609 1.391 . S
C1609 H1597 0.950 . S
C1609 C1605 1.393 . S
C1609 C1608 1.391 . S
C1610 H1600 0.950 . S
C1610 C1611 1.386 . S
C1610 C1612 1.391 . S
C1611 C1610 1.386 . S
C1611 C1615 1.393 . S
C1612 H1601 0.950 . S
C1612 C1610 1.391 . S
C1612 C1613 1.400 . S
C1613 C1607 1.491 . S
C1613 C1612 1.400 . S
C1613 C1614 1.398 . S
C1614 H1602 0.950 . S
C1614 C1613 1.398 . S
C1614 C1615 1.391 . S
C1615 H1603 0.950 . S
C1615 C1611 1.393 . S
C1615 C1614 1.391 . S
H1616 C1624 0.950 . S
H1617 C1629 0.950 . S
H1618 C1626 0.950 . S
H1619 C1628 0.950 . S
H1620 C1630 0.950 . S
H1621 C1632 0.950 . S
H1622 C1634 0.950 . S
H1623 C1635 0.950 . S
C1624 H1616 0.950 . S
C1624 C1625 1.386 . S
C1624 C1626 1.391 . S
C1625 C1624 1.386 . S
C1625 C1629 1.393 . S
C1626 H1618 0.950 . S
C1626 C1624 1.391 . S
C1626 C1627 1.400 . S
C1627 C1626 1.400 . S
C1627 C1628 1.398 . S
C1627 C1633 1.491 . S
C1628 H1619 0.950 . S
C1628 C1627 1.398 . S
C1628 C1629 1.391 . S
C1629 H1617 0.950 . S
C1629 C1625 1.393 . S
C1629 C1628 1.391 . S
C1630 H1620 0.950 . S
C1630 C1631 1.386 . S
C1630 C1632 1.391 . S
C1631 C1630 1.386 . S
C1631 C1635 1.393 . S
C1632 H1621 0.950 . S
C1632 C1630 1.391 . S
C1632 C1633 1.400 . S
C1633 C1627 1.491 . S
C1633 C1632 1.400 . S
C1633 C1634 1.398 . S
C1634 H1622 0.950 . S
C1634 C1633 1.398 . S
C1634 C1635 1.391 . S
C1635 H1623 0.950 . S
C1635 C1631 1.393 . S
C1635 C1634 1.391 . S
H1636 C1644 0.950 . S
H1637 C1649 0.950 . S
H1638 C1646 0.950 . S
H1639 C1648 0.950 . S
H1640 C1650 0.950 . S
H1641 C1652 0.950 . S
H1642 C1654 0.950 . S
H1643 C1655 0.950 . S
C1644 H1636 0.950 . S
C1644 C1645 1.386 . S
C1644 C1646 1.391 . S
C1645 C1644 1.386 . S
C1645 C1649 1.393 . S
C1646 H1638 0.950 . S
C1646 C1644 1.391 . S
C1646 C1647 1.400 . S
C1647 C1646 1.400 . S
C1647 C1648 1.398 . S
C1647 C1653 1.491 . S
C1648 H1639 0.950 . S
C1648 C1647 1.398 . S
C1648 C1649 1.391 . S
C1649 H1637 0.950 . S
C1649 C1645 1.393 . S
C1649 C1648 1.391 . S
C1650 H1640 0.950 . S
C1650 C1651 1.386 . S
C1650 C1652 1.391 . S
C1651 C1650 1.386 . S
C1651 C1655 1.393 . S
C1652 H1641 0.950 . S
C1652 C1650 1.391 . S
C1652 C1653 1.400 . S
C1653 C1647 1.491 . S
C1653 C1652 1.400 . S
C1653 C1654 1.398 . S
C1654 H1642 0.950 . S
C1654 C1653 1.398 . S
C1654 C1655 1.391 . S
C1655 H1643 0.950 . S
C1655 C1651 1.393 . S
C1655 C1654 1.391 . S
H1656 C1664 0.950 . S
H1657 C1669 0.950 . S
H1658 C1666 0.950 . S
H1659 C1668 0.950 . S
H1660 C1670 0.950 . S
H1661 C1672 0.950 . S
H1662 C1674 0.950 . S
H1663 C1675 0.950 . S
C1664 H1656 0.950 . S
C1664 C1665 1.386 . S
C1664 C1666 1.391 . S
C1665 C1664 1.386 . S
C1665 C1669 1.393 . S
C1666 H1658 0.950 . S
C1666 C1664 1.391 . S
C1666 C1667 1.400 . S
C1667 C1666 1.400 . S
C1667 C1668 1.398 . S
C1667 C1673 1.491 . S
C1668 H1659 0.950 . S
C1668 C1667 1.398 . S
C1668 C1669 1.391 . S
C1669 H1657 0.950 . S
C1669 C1665 1.393 . S
C1669 C1668 1.391 . S
C1670 H1660 0.950 . S
C1670 C1671 1.386 . S
C1670 C1672 1.391 . S
C1671 C1670 1.386 . S
C1671 C1675 1.393 . S
C1672 H1661 0.950 . S
C1672 C1670 1.391 . S
C1672 C1673 1.400 . S
C1673 C1667 1.491 . S
C1673 C1672 1.400 . S
C1673 C1674 1.398 . S
C1674 H1662 0.950 . S
C1674 C1673 1.398 . S
C1674 C1675 1.391 . S
C1675 H1663 0.950 . S
C1675 C1671 1.393 . S
C1675 C1674 1.391 . S
H1676 C1684 0.950 . S
H1677 C1689 0.950 . S
H1678 C1686 0.950 . S
H1679 C1688 0.950 . S
H1680 C1690 0.950 . S
H1681 C1692 0.950 . S
H1682 C1694 0.950 . S
H1683 C1695 0.950 . S
C1684 H1676 0.950 . S
C1684 C1685 1.386 . S
C1684 C1686 1.391 . S
C1685 C1684 1.386 . S
C1685 C1689 1.393 . S
C1686 H1678 0.950 . S
C1686 C1684 1.391 . S
C1686 C1687 1.400 . S
C1687 C1686 1.400 . S
C1687 C1688 1.398 . S
C1687 C1693 1.491 . S
C1688 H1679 0.950 . S
C1688 C1687 1.398 . S
C1688 C1689 1.391 . S
C1689 H1677 0.950 . S
C1689 C1685 1.393 . S
C1689 C1688 1.391 . S
C1690 H1680 0.950 . S
C1690 C1691 1.386 . S
C1690 C1692 1.391 . S
C1691 C1690 1.386 . S
C1691 C1695 1.393 . S
C1692 H1681 0.950 . S
C1692 C1690 1.391 . S
C1692 C1693 1.400 . S
C1693 C1687 1.491 . S
C1693 C1692 1.400 . S
C1693 C1694 1.398 . S
C1694 H1682 0.950 . S
C1694 C1693 1.398 . S
C1694 C1695 1.391 . S
C1695 H1683 0.950 . S
C1695 C1691 1.393 . S
C1695 C1694 1.391 . S
H1696 C1704 0.950 . S
H1697 C1709 0.950 . S
H1698 C1706 0.950 . S
H1699 C1708 0.950 . S
H1700 C1710 0.950 . S
H1701 C1712 0.950 . S
H1702 C1714 0.950 . S
H1703 C1715 0.950 . S
C1704 H1696 0.950 . S
C1704 C1705 1.386 . S
C1704 C1706 1.391 . S
C1705 C1704 1.386 . S
C1705 C1709 1.393 . S
C1706 H1698 0.950 . S
C1706 C1704 1.391 . S
C1706 C1707 1.400 . S
C1707 C1706 1.400 . S
C1707 C1708 1.398 . S
C1707 C1713 1.491 . S
C1708 H1699 0.950 . S
C1708 C1707 1.398 . S
C1708 C1709 1.391 . S
C1709 H1697 0.950 . S
C1709 C1705 1.393 . S
C1709 C1708 1.391 . S
C1710 H1700 0.950 . S
C1710 C1711 1.386 . S
C1710 C1712 1.391 . S
C1711 C1710 1.386 . S
C1711 C1715 1.393 . S
C1712 H1701 0.950 . S
C1712 C1710 1.391 . S
C1712 C1713 1.400 . S
C1713 C1707 1.491 . S
C1713 C1712 1.400 . S
C1713 C1714 1.398 . S
C1714 H1702 0.950 . S
C1714 C1713 1.398 . S
C1714 C1715 1.391 . S
C1715 H1703 0.950 . S
C1715 C1711 1.393 . S
C1715 C1714 1.391 . S
H1716 C1724 0.950 . S
H1717 C1729 0.950 . S
H1718 C1726 0.950 . S
H1719 C1728 0.950 . S
H1720 C1730 0.950 . S
H1721 C1732 0.950 . S
H1722 C1734 0.950 . S
H1723 C1735 0.950 . S
C1724 H1716 0.950 . S
C1724 C1725 1.386 . S
C1724 C1726 1.391 . S
C1725 C1724 1.386 . S
C1725 C1729 1.393 . S
C1726 H1718 0.950 . S
C1726 C1724 1.391 . S
C1726 C1727 1.400 . S
C1727 C1726 1.400 . S
C1727 C1728 1.398 . S
C1727 C1733 1.491 . S
C1728 H1719 0.950 . S
C1728 C1727 1.398 . S
C1728 C1729 1.391 . S
C1729 H1717 0.950 . S
C1729 C1725 1.393 . S
C1729 C1728 1.391 . S
C1730 H1720 0.950 . S
C1730 C1731 1.386 . S
C1730 C1732 1.391 . S
C1731 C1730 1.386 . S
C1731 C1735 1.393 . S
C1732 H1721 0.950 . S
C1732 C1730 1.391 . S
C1732 C1733 1.400 . S
C1733 C1727 1.491 . S
C1733 C1732 1.400 . S
C1733 C1734 1.398 . S
C1734 H1722 0.950 . S
C1734 C1733 1.398 . S
C1734 C1735 1.391 . S
C1735 H1723 0.950 . S
C1735 C1731 1.393 . S
C1735 C1734 1.391 . S
H1736 C1744 0.950 . S
H1737 C1749 0.950 . S
H1738 C1746 0.950 . S
H1739 C1748 0.950 . S
H1740 C1750 0.950 . S
H1741 C1752 0.950 . S
H1742 C1754 0.950 . S
H1743 C1755 0.950 . S
C1744 H1736 0.950 . S
C1744 C1745 1.386 . S
C1744 C1746 1.391 . S
C1745 C1744 1.386 . S
C1745 C1749 1.393 . S
C1746 H1738 0.950 . S
C1746 C1744 1.391 . S
C1746 C1747 1.400 . S
C1747 C1746 1.400 . S
C1747 C1748 1.398 . S
C1747 C1753 1.491 . S
C1748 H1739 0.950 . S
C1748 C1747 1.398 . S
C1748 C1749 1.391 . S
C1749 H1737 0.950 . S
C1749 C1745 1.393 . S
C1749 C1748 1.391 . S
C1750 H1740 0.950 . S
C1750 C1751 1.386 . S
C1750 C1752 1.391 . S
C1751 C1750 1.386 . S
C1751 C1755 1.393 . S
C1752 H1741 0.950 . S
C1752 C1750 1.391 . S
C1752 C1753 1.400 . S
C1753 C1747 1.491 . S
C1753 C1752 1.400 . S
C1753 C1754 1.398 . S
C1754 H1742 0.950 . S
C1754 C1753 1.398 . S
C1754 C1755 1.391 . S
C1755 H1743 0.950 . S
C1755 C1751 1.393 . S
C1755 C1754 1.391 . S
H1756 C1764 0.950 . S
H1757 C1769 0.950 . S
H1758 C1766 0.950 . S
H1759 C1768 0.950 . S
H1760 C1770 0.950 . S
H1761 C1772 0.950 . S
H1762 C1774 0.950 . S
H1763 C1775 0.950 . S
C1764 H1756 0.950 . S
C1764 C1765 1.386 . S
C1764 C1766 1.391 . S
C1765 C1764 1.386 . S
C1765 C1769 1.393 . S
C1766 H1758 0.950 . S
C1766 C1764 1.391 . S
C1766 C1767 1.400 . S
C1767 C1766 1.400 . S
C1767 C1768 1.398 . S
C1767 C1773 1.491 . S
C1768 H1759 0.950 . S
C1768 C1767 1.398 . S
C1768 C1769 1.391 . S
C1769 H1757 0.950 . S
C1769 C1765 1.393 . S
C1769 C1768 1.391 . S
C1770 H1760 0.950 . S
C1770 C1771 1.386 . S
C1770 C1772 1.391 . S
C1771 C1770 1.386 . S
C1771 C1775 1.393 . S
C1772 H1761 0.950 . S
C1772 C1770 1.391 . S
C1772 C1773 1.400 . S
C1773 C1767 1.491 . S
C1773 C1772 1.400 . S
C1773 C1774 1.398 . S
C1774 H1762 0.950 . S
C1774 C1773 1.398 . S
C1774 C1775 1.391 . S
C1775 H1763 0.950 . S
C1775 C1771 1.393 . S
C1775 C1774 1.391 . S
H1776 C1784 0.950 . S
H1777 C1789 0.950 . S
H1778 C1786 0.950 . S
H1779 C1788 0.950 . S
H1780 C1790 0.950 . S
H1781 C1792 0.950 . S
H1782 C1794 0.950 . S
H1783 C1795 0.950 . S
C1784 H1776 0.950 . S
C1784 C1785 1.386 . S
C1784 C1786 1.391 . S
C1785 C1784 1.386 . S
C1785 C1789 1.393 . S
C1786 H1778 0.950 . S
C1786 C1784 1.391 . S
C1786 C1787 1.400 . S
C1787 C1786 1.400 . S
C1787 C1788 1.398 . S
C1787 C1793 1.491 . S
C1788 H1779 0.950 . S
C1788 C1787 1.398 . S
C1788 C1789 1.391 . S
C1789 H1777 0.950 . S
C1789 C1785 1.393 . S
C1789 C1788 1.391 . S
C1790 H1780 0.950 . S
C1790 C1791 1.386 . S
C1790 C1792 1.391 . S
C1791 C1790 1.386 . S
C1791 C1795 1.393 . S
C1792 H1781 0.950 . S
C1792 C1790 1.391 . S
C1792 C1793 1.400 . S
C1793 C1787 1.491 . S
C1793 C1792 1.400 . S
C1793 C1794 1.398 . S
C1794 H1782 0.950 . S
C1794 C1793 1.398 . S
C1794 C1795 1.391 . S
C1795 H1783 0.950 . S
C1795 C1791 1.393 . S
C1795 C1794 1.391 . S
H1796 C1804 0.950 . S
H1797 C1809 0.950 . S
H1798 C1806 0.950 . S
H1799 C1808 0.950 . S
H1800 C1810 0.950 . S
H1801 C1812 0.950 . S
H1802 C1814 0.950 . S
H1803 C1815 0.950 . S
C1804 H1796 0.950 . S
C1804 C1805 1.386 . S
C1804 C1806 1.391 . S
C1805 C1804 1.386 . S
C1805 C1809 1.393 . S
C1806 H1798 0.950 . S
C1806 C1804 1.391 . S
C1806 C1807 1.400 . S
C1807 C1806 1.400 . S
C1807 C1808 1.398 . S
C1807 C1813 1.491 . S
C1808 H1799 0.950 . S
C1808 C1807 1.398 . S
C1808 C1809 1.391 . S
C1809 H1797 0.950 . S
C1809 C1805 1.393 . S
C1809 C1808 1.391 . S
C1810 H1800 0.950 . S
C1810 C1811 1.386 . S
C1810 C1812 1.391 . S
C1811 C1810 1.386 . S
C1811 C1815 1.393 . S
C1812 H1801 0.950 . S
C1812 C1810 1.391 . S
C1812 C1813 1.400 . S
C1813 C1807 1.491 . S
C1813 C1812 1.400 . S
C1813 C1814 1.398 . S
C1814 H1802 0.950 . S
C1814 C1813 1.398 . S
C1814 C1815 1.391 . S
C1815 H1803 0.950 . S
C1815 C1811 1.393 . S
C1815 C1814 1.391 . S
H1816 C1824 0.950 . S
H1817 C1829 0.950 . S
H1818 C1826 0.950 . S
H1819 C1828 0.950 . S
H1820 C1830 0.950 . S
H1821 C1832 0.950 . S
H1822 C1834 0.950 . S
H1823 C1835 0.950 . S
C1824 H1816 0.950 . S
C1824 C1825 1.386 . S
C1824 C1826 1.391 . S
C1825 C1824 1.386 . S
C1825 C1829 1.393 . S
C1826 H1818 0.950 . S
C1826 C1824 1.391 . S
C1826 C1827 1.400 . S
C1827 C1826 1.400 . S
C1827 C1828 1.398 . S
C1827 C1833 1.491 . S
C1828 H1819 0.950 . S
C1828 C1827 1.398 . S
C1828 C1829 1.391 . S
C1829 H1817 0.950 . S
C1829 C1825 1.393 . S
C1829 C1828 1.391 . S
C1830 H1820 0.950 . S
C1830 C1831 1.386 . S
C1830 C1832 1.391 . S
C1831 C1830 1.386 . S
C1831 C1835 1.393 . S
C1832 H1821 0.950 . S
C1832 C1830 1.391 . S
C1832 C1833 1.400 . S
C1833 C1827 1.491 . S
C1833 C1832 1.400 . S
C1833 C1834 1.398 . S
C1834 H1822 0.950 . S
C1834 C1833 1.398 . S
C1834 C1835 1.391 . S
C1835 H1823 0.950 . S
C1835 C1831 1.393 . S
C1835 C1834 1.391 . S
H1836 C1844 0.950 . S
H1837 C1849 0.950 . S
H1838 C1846 0.950 . S
H1839 C1848 0.950 . S
H1840 C1850 0.950 . S
H1841 C1852 0.950 . S
H1842 C1854 0.950 . S
H1843 C1855 0.950 . S
C1844 H1836 0.950 . S
C1844 C1845 1.386 . S
C1844 C1846 1.391 . S
C1845 C1844 1.386 . S
C1845 C1849 1.393 . S
C1846 H1838 0.950 . S
C1846 C1844 1.391 . S
C1846 C1847 1.400 . S
C1847 C1846 1.400 . S
C1847 C1848 1.398 . S
C1847 C1853 1.491 . S
C1848 H1839 0.950 . S
C1848 C1847 1.398 . S
C1848 C1849 1.391 . S
C1849 H1837 0.950 . S
C1849 C1845 1.393 . S
C1849 C1848 1.391 . S
C1850 H1840 0.950 . S
C1850 C1851 1.386 . S
C1850 C1852 1.391 . S
C1851 C1850 1.386 . S
C1851 C1855 1.393 . S
C1852 H1841 0.950 . S
C1852 C1850 1.391 . S
C1852 C1853 1.400 . S
C1853 C1847 1.491 . S
C1853 C1852 1.400 . S
C1853 C1854 1.398 . S
C1854 H1842 0.950 . S
C1854 C1853 1.398 . S
C1854 C1855 1.391 . S
C1855 H1843 0.950 . S
C1855 C1851 1.393 . S
C1855 C1854 1.391 . S
H1856 C1864 0.950 . S
H1857 C1869 0.950 . S
H1858 C1866 0.950 . S
H1859 C1868 0.950 . S
H1860 C1870 0.950 . S
H1861 C1872 0.950 . S
H1862 C1874 0.950 . S
H1863 C1875 0.950 . S
C1864 H1856 0.950 . S
C1864 C1865 1.386 . S
C1864 C1866 1.391 . S
C1865 C1864 1.386 . S
C1865 C1869 1.393 . S
C1866 H1858 0.950 . S
C1866 C1864 1.391 . S
C1866 C1867 1.400 . S
C1867 C1866 1.400 . S
C1867 C1868 1.398 . S
C1867 C1873 1.491 . S
C1868 H1859 0.950 . S
C1868 C1867 1.398 . S
C1868 C1869 1.391 . S
C1869 H1857 0.950 . S
C1869 C1865 1.393 . S
C1869 C1868 1.391 . S
C1870 H1860 0.950 . S
C1870 C1871 1.386 . S
C1870 C1872 1.391 . S
C1871 C1870 1.386 . S
C1871 C1875 1.393 . S
C1872 H1861 0.950 . S
C1872 C1870 1.391 . S
C1872 C1873 1.400 . S
C1873 C1867 1.491 . S
C1873 C1872 1.400 . S
C1873 C1874 1.398 . S
C1874 H1862 0.950 . S
C1874 C1873 1.398 . S
C1874 C1875 1.391 . S
C1875 H1863 0.950 . S
C1875 C1871 1.393 . S
C1875 C1874 1.391 . S
H1876 C1884 0.950 . S
H1877 C1889 0.950 . S
H1878 C1886 0.950 . S
H1879 C1888 0.950 . S
H1880 C1890 0.950 . S
H1881 C1892 0.950 . S
H1882 C1894 0.950 . S
H1883 C1895 0.950 . S
C1884 H1876 0.950 . S
C1884 C1885 1.386 . S
C1884 C1886 1.391 . S
C1885 C1884 1.386 . S
C1885 C1889 1.393 . S
C1886 H1878 0.950 . S
C1886 C1884 1.391 . S
C1886 C1887 1.400 . S
C1887 C1886 1.400 . S
C1887 C1888 1.398 . S
C1887 C1893 1.491 . S
C1888 H1879 0.950 . S
C1888 C1887 1.398 . S
C1888 C1889 1.391 . S
C1889 H1877 0.950 . S
C1889 C1885 1.393 . S
C1889 C1888 1.391 . S
C1890 H1880 0.950 . S
C1890 C1891 1.386 . S
C1890 C1892 1.391 . S
C1891 C1890 1.386 . S
C1891 C1895 1.393 . S
C1892 H1881 0.950 . S
C1892 C1890 1.391 . S
C1892 C1893 1.400 . S
C1893 C1887 1.491 . S
C1893 C1892 1.400 . S
C1893 C1894 1.398 . S
C1894 H1882 0.950 . S
C1894 C1893 1.398 . S
C1894 C1895 1.391 . S
C1895 H1883 0.950 . S
C1895 C1891 1.393 . S
C1895 C1894 1.391 . S
H1896 C1904 0.950 . S
H1897 C1909 0.950 1_554 S
H1898 C1906 0.950 . S
H1899 C1908 0.950 . S
H1900 C1910 0.950 . S
H1901 C1912 0.950 . S
H1902 C1914 0.950 . S
H1903 C1915 0.950 . S
C1904 H1896 0.950 . S
C1904 C1905 1.386 . S
C1904 C1906 1.391 . S
C1905 C1904 1.386 . S
C1905 C1909 1.393 . S
C1906 H1898 0.950 . S
C1906 C1904 1.391 . S
C1906 C1907 1.400 . S
C1907 C1906 1.400 . S
C1907 C1908 1.398 . S
C1907 C1913 1.491 . S
C1908 H1899 0.950 . S
C1908 C1907 1.398 . S
C1908 C1909 1.391 . S
C1909 H1897 0.950 1_556 S
C1909 C1905 1.393 . S
C1909 C1908 1.391 . S
C1910 H1900 0.950 . S
C1910 C1911 1.386 . S
C1910 C1912 1.391 . S
C1911 C1910 1.386 . S
C1911 C1915 1.393 . S
C1912 H1901 0.950 . S
C1912 C1910 1.391 . S
C1912 C1913 1.400 . S
C1913 C1907 1.491 . S
C1913 C1912 1.400 . S
C1913 C1914 1.398 . S
C1914 H1902 0.950 . S
C1914 C1913 1.398 . S
C1914 C1915 1.391 . S
C1915 H1903 0.950 . S
C1915 C1911 1.393 . S
C1915 C1914 1.391 . S
H1916 C1924 0.950 1_554 S
H1917 C1929 0.950 . S
H1918 C1926 0.950 . S
H1919 C1928 0.950 . S
H1920 C1930 0.950 . S
H1921 C1932 0.950 . S
H1922 C1934 0.950 . S
H1923 C1935 0.950 . S
C1924 H1916 0.950 1_556 S
C1924 C1925 1.386 . S
C1924 C1926 1.391 . S
C1925 C1924 1.386 . S
C1925 C1929 1.393 . S
C1926 H1918 0.950 . S
C1926 C1924 1.391 . S
C1926 C1927 1.400 . S
C1927 C1926 1.400 . S
C1927 C1928 1.398 . S
C1927 C1933 1.491 . S
C1928 H1919 0.950 . S
C1928 C1927 1.398 . S
C1928 C1929 1.391 . S
C1929 H1917 0.950 . S
C1929 C1925 1.393 . S
C1929 C1928 1.391 . S
C1930 H1920 0.950 . S
C1930 C1931 1.386 . S
C1930 C1932 1.391 . S
C1931 C1930 1.386 . S
C1931 C1935 1.393 . S
C1932 H1921 0.950 . S
C1932 C1930 1.391 . S
C1932 C1933 1.400 . S
C1933 C1927 1.491 . S
C1933 C1932 1.400 . S
C1933 C1934 1.398 . S
C1934 H1922 0.950 . S
C1934 C1933 1.398 . S
C1934 C1935 1.391 . S
C1935 H1923 0.950 . S
C1935 C1931 1.393 . S
C1935 C1934 1.391 . S
H1936 C1944 0.950 . S
H1937 C1949 0.950 . S
H1938 C1946 0.944 1_554 S
H1939 C1948 0.950 . S
H1940 C1950 0.950 . S
H1941 C1952 0.950 . S
H1942 C1954 0.950 . S
H1943 C1955 0.950 . S
C1944 H1936 0.950 . S
C1944 C1945 1.386 1_554 S
C1944 C1946 1.391 1_554 S
C1945 C1944 1.386 1_556 S
C1945 C1949 1.393 . S
C1946 H1938 0.944 1_556 S
C1946 C1944 1.391 1_556 S
C1946 C1947 1.400 . S
C1947 C1946 1.400 . S
C1947 C1948 1.398 . S
C1947 C1953 1.491 . S
C1948 H1939 0.950 . S
C1948 C1947 1.398 . S
C1948 C1949 1.391 . S
C1949 H1937 0.950 . S
C1949 C1945 1.393 . S
C1949 C1948 1.391 . S
C1950 H1940 0.950 . S
C1950 C1951 1.386 . S
C1950 C1952 1.391 . S
C1951 C1950 1.386 . S
C1951 C1955 1.393 . S
C1952 H1941 0.950 . S
C1952 C1950 1.391 . S
C1952 C1953 1.400 . S
C1953 C1947 1.491 . S
C1953 C1952 1.400 . S
C1953 C1954 1.398 . S
C1954 H1942 0.950 . S
C1954 C1953 1.398 . S
C1954 C1955 1.391 . S
C1955 H1943 0.950 . S
C1955 C1951 1.393 . S
C1955 C1954 1.391 . S
H1956 C1964 0.950 . S
H1957 C1969 0.950 . S
H1958 C1966 0.950 . S
H1959 C1968 0.950 1_554 S
H1960 C1970 0.950 . S
H1961 C1972 0.950 . S
H1962 C1974 0.950 . S
H1963 C1975 0.950 . S
C1964 H1956 0.950 . S
C1964 C1965 1.386 . S
C1964 C1966 1.391 . S
C1965 C1964 1.386 . S
C1965 C1969 1.393 1_556 S
C1966 H1958 0.950 . S
C1966 C1964 1.391 . S
C1966 C1967 1.400 . S
C1967 C1966 1.400 . S
C1967 C1968 1.398 . S
C1967 C1973 1.491 . S
C1968 H1959 0.950 1_556 S
C1968 C1967 1.398 . S
C1968 C1969 1.391 1_556 S
C1969 H1957 0.950 . S
C1969 C1965 1.393 1_554 S
C1969 C1968 1.391 1_554 S
C1970 H1960 0.950 . S
C1970 C1971 1.386 . S
C1970 C1972 1.391 . S
C1971 C1970 1.386 . S
C1971 C1975 1.393 . S
C1972 H1961 0.950 . S
C1972 C1970 1.391 . S
C1972 C1973 1.400 . S
C1973 C1967 1.491 . S
C1973 C1972 1.400 . S
C1973 C1974 1.398 . S
C1974 H1962 0.950 . S
C1974 C1973 1.398 . S
C1974 C1975 1.391 . S
C1975 H1963 0.950 . S
C1975 C1971 1.393 . S
C1975 C1974 1.391 . S
H1976 C1984 0.950 . S
H1977 C1989 0.910 1_554 S
H1978 C1986 0.950 . S
H1979 C1988 0.950 . S
H1980 C1990 0.950 . S
H1981 C1992 0.950 . S
H1982 C1994 0.950 . S
H1983 C1995 0.950 . S
C1984 H1976 0.950 . S
C1984 C1985 1.386 . S
C1984 C1986 1.391 . S
C1985 C1984 1.386 . S
C1985 C1989 1.413 . S
C1986 H1978 0.950 . S
C1986 C1984 1.391 . S
C1986 C1987 1.400 . S
C1987 C1986 1.400 . S
C1987 C1988 1.398 . S
C1987 C1993 1.491 . S
C1988 H1979 0.950 . S
C1988 C1987 1.398 . S
C1988 C1989 1.411 . S
C1989 H1977 0.910 1_556 S
C1989 C1985 1.413 . S
C1989 C1988 1.411 . S
C1990 H1980 0.950 . S
C1990 C1991 1.386 . S
C1990 C1992 1.391 . S
C1991 C1990 1.386 . S
C1991 C1995 1.393 . S
C1992 H1981 0.950 . S
C1992 C1990 1.391 . S
C1992 C1993 1.400 . S
C1993 C1987 1.491 . S
C1993 C1992 1.400 . S
C1993 C1994 1.398 . S
C1994 H1982 0.950 . S
C1994 C1993 1.398 . S
C1994 C1995 1.391 . S
C1995 H1983 0.950 . S
C1995 C1991 1.393 . S
C1995 C1994 1.391 . S
H1996 C2004 0.950 . S
H1997 C2009 0.950 1_554 S
H1998 C2006 0.950 . S
H1999 C2008 0.950 . S
H2000 C2010 0.950 . S
H2001 C2012 0.950 . S
H2002 C2014 0.950 . S
H2003 C2015 0.950 . S
C2004 H1996 0.950 . S
C2004 C2005 1.386 . S
C2004 C2006 1.391 . S
C2005 C2004 1.386 . S
C2005 C2009 1.393 . S
C2006 H1998 0.950 . S
C2006 C2004 1.391 . S
C2006 C2007 1.400 . S
C2007 C2006 1.400 . S
C2007 C2008 1.398 . S
C2007 C2013 1.491 . S
C2008 H1999 0.950 . S
C2008 C2007 1.398 . S
C2008 C2009 1.391 . S
C2009 H1997 0.950 1_556 S
C2009 C2005 1.393 . S
C2009 C2008 1.391 . S
C2010 H2000 0.950 . S
C2010 C2011 1.386 . S
C2010 C2012 1.391 . S
C2011 C2010 1.386 . S
C2011 C2015 1.393 . S
C2012 H2001 0.950 . S
C2012 C2010 1.391 . S
C2012 C2013 1.400 . S
C2013 C2007 1.491 . S
C2013 C2012 1.400 . S
C2013 C2014 1.398 . S
C2014 H2002 0.950 . S
C2014 C2013 1.398 . S
C2014 C2015 1.391 . S
C2015 H2003 0.950 . S
C2015 C2011 1.393 . S
C2015 C2014 1.391 . S
H2016 C2024 0.950 . S
H2017 C2029 0.950 . S
H2018 C2026 0.950 . S
H2019 C2028 0.950 . S
H2020 C2030 0.950 . S
H2021 C2032 0.950 . S
H2022 C2034 0.950 . S
H2023 C2035 0.950 . S
C2024 H2016 0.950 . S
C2024 C2025 1.386 . S
C2024 C2026 1.391 . S
C2025 C2024 1.386 . S
C2025 C2029 1.393 . S
C2026 H2018 0.950 . S
C2026 C2024 1.391 . S
C2026 C2027 1.400 . S
C2027 C2026 1.400 . S
C2027 C2028 1.398 . S
C2027 C2033 1.491 . S
C2028 H2019 0.950 . S
C2028 C2027 1.398 . S
C2028 C2029 1.391 . S
C2029 H2017 0.950 . S
C2029 C2025 1.393 . S
C2029 C2028 1.391 . S
C2030 H2020 0.950 . S
C2030 C2031 1.386 . S
C2030 C2032 1.391 . S
C2031 C2030 1.386 . S
C2031 C2035 1.393 . S
C2032 H2021 0.950 . S
C2032 C2030 1.391 . S
C2032 C2033 1.400 . S
C2033 C2027 1.491 . S
C2033 C2032 1.400 . S
C2033 C2034 1.398 . S
C2034 H2022 0.950 . S
C2034 C2033 1.398 . S
C2034 C2035 1.391 . S
C2035 H2023 0.950 . S
C2035 C2031 1.393 . S
C2035 C2034 1.391 . S
H2036 C2044 0.950 . S
H2037 C2049 0.950 . S
H2038 C2046 0.950 . S
H2039 C2048 0.950 . S
H2040 C2050 0.950 . S
H2041 C2052 0.950 . S
H2042 C2054 0.950 . S
H2043 C2055 0.950 . S
C2044 H2036 0.950 . S
C2044 C2045 1.386 . S
C2044 C2046 1.391 . S
C2045 C2044 1.386 . S
C2045 C2049 1.393 . S
C2046 H2038 0.950 . S
C2046 C2044 1.391 . S
C2046 C2047 1.400 . S
C2047 C2046 1.400 . S
C2047 C2048 1.398 . S
C2047 C2053 1.491 . S
C2048 H2039 0.950 . S
C2048 C2047 1.398 . S
C2048 C2049 1.391 . S
C2049 H2037 0.950 . S
C2049 C2045 1.393 . S
C2049 C2048 1.391 . S
C2050 H2040 0.950 . S
C2050 C2051 1.386 . S
C2050 C2052 1.391 . S
C2051 C2050 1.386 . S
C2051 C2055 1.393 . S
C2052 H2041 0.950 . S
C2052 C2050 1.391 . S
C2052 C2053 1.400 . S
C2053 C2047 1.491 . S
C2053 C2052 1.400 . S
C2053 C2054 1.398 . S
C2054 H2042 0.950 . S
C2054 C2053 1.398 . S
C2054 C2055 1.391 . S
C2055 H2043 0.950 . S
C2055 C2051 1.393 . S
C2055 C2054 1.391 . S
H2056 C2064 0.950 . S
H2057 C2069 0.950 . S
H2058 C2066 0.950 . S
H2059 C2068 0.950 . S
H2060 C2070 0.950 . S
H2061 C2072 0.950 . S
H2062 C2074 0.950 . S
H2063 C2075 0.950 . S
C2064 H2056 0.950 . S
C2064 C2065 1.386 . S
C2064 C2066 1.391 . S
C2065 C2064 1.386 . S
C2065 C2069 1.393 . S
C2066 H2058 0.950 . S
C2066 C2064 1.391 . S
C2066 C2067 1.400 . S
C2067 C2066 1.400 . S
C2067 C2068 1.398 . S
C2067 C2073 1.491 . S
C2068 H2059 0.950 . S
C2068 C2067 1.398 . S
C2068 C2069 1.391 . S
C2069 H2057 0.950 . S
C2069 C2065 1.393 . S
C2069 C2068 1.391 . S
C2070 H2060 0.950 . S
C2070 C2071 1.386 . S
C2070 C2072 1.391 . S
C2071 C2070 1.386 . S
C2071 C2075 1.393 . S
C2072 H2061 0.950 . S
C2072 C2070 1.391 . S
C2072 C2073 1.400 . S
C2073 C2067 1.491 . S
C2073 C2072 1.400 . S
C2073 C2074 1.398 . S
C2074 H2062 0.950 . S
C2074 C2073 1.398 . S
C2074 C2075 1.391 . S
C2075 H2063 0.950 . S
C2075 C2071 1.393 . S
C2075 C2074 1.391 . S
H2076 C2084 0.950 . S
H2077 C2089 0.950 . S
H2078 C2086 0.950 . S
H2079 C2088 0.950 . S
H2080 C2090 0.950 . S
H2081 C2092 0.950 . S
H2082 C2094 0.950 . S
H2083 C2095 0.950 . S
C2084 H2076 0.950 . S
C2084 C2085 1.386 . S
C2084 C2086 1.391 . S
C2085 C2084 1.386 . S
C2085 C2089 1.393 . S
C2086 H2078 0.950 . S
C2086 C2084 1.391 . S
C2086 C2087 1.400 . S
C2087 C2086 1.400 . S
C2087 C2088 1.398 . S
C2087 C2093 1.491 . S
C2088 H2079 0.950 . S
C2088 C2087 1.398 . S
C2088 C2089 1.391 . S
C2089 H2077 0.950 . S
C2089 C2085 1.393 . S
C2089 C2088 1.391 . S
C2090 H2080 0.950 . S
C2090 C2091 1.386 . S
C2090 C2092 1.391 . S
C2091 C2090 1.386 . S
C2091 C2095 1.393 . S
C2092 H2081 0.950 . S
C2092 C2090 1.391 . S
C2092 C2093 1.400 . S
C2093 C2087 1.491 . S
C2093 C2092 1.400 . S
C2093 C2094 1.398 . S
C2094 H2082 0.950 . S
C2094 C2093 1.398 . S
C2094 C2095 1.391 . S
C2095 H2083 0.950 . S
C2095 C2091 1.393 . S
C2095 C2094 1.391 . S
H2096 C2104 0.950 . S
H2097 C2109 0.950 . S
H2098 C2106 0.950 . S
H2099 C2108 0.950 . S
H2100 C2110 0.950 . S
H2101 C2112 0.950 . S
H2102 C2114 0.950 . S
H2103 C2115 0.950 . S
C2104 H2096 0.950 . S
C2104 C2105 1.386 . S
C2104 C2106 1.391 . S
C2105 C2104 1.386 . S
C2105 C2109 1.393 . S
C2106 H2098 0.950 . S
C2106 C2104 1.391 . S
C2106 C2107 1.400 . S
C2107 C2106 1.400 . S
C2107 C2108 1.398 . S
C2107 C2113 1.491 . S
C2108 H2099 0.950 . S
C2108 C2107 1.398 . S
C2108 C2109 1.391 . S
C2109 H2097 0.950 . S
C2109 C2105 1.393 . S
C2109 C2108 1.391 . S
C2110 H2100 0.950 . S
C2110 C2111 1.386 . S
C2110 C2112 1.391 . S
C2111 C2110 1.386 . S
C2111 C2115 1.393 . S
C2112 H2101 0.950 . S
C2112 C2110 1.391 . S
C2112 C2113 1.400 . S
C2113 C2107 1.491 . S
C2113 C2112 1.400 . S
C2113 C2114 1.398 . S
C2114 H2102 0.950 . S
C2114 C2113 1.398 . S
C2114 C2115 1.391 . S
C2115 H2103 0.950 . S
C2115 C2111 1.393 . S
C2115 C2114 1.391 . S
H2116 C2124 0.950 . S
H2117 C2129 0.950 . S
H2118 C2126 0.950 . S
H2119 C2128 0.950 . S
H2120 C2130 0.950 . S
H2121 C2132 0.950 . S
H2122 C2134 0.950 . S
H2123 C2135 0.950 . S
C2124 H2116 0.950 . S
C2124 C2125 1.386 . S
C2124 C2126 1.391 . S
C2125 C2124 1.386 . S
C2125 C2129 1.393 . S
C2126 H2118 0.950 . S
C2126 C2124 1.391 . S
C2126 C2127 1.400 . S
C2127 C2126 1.400 . S
C2127 C2128 1.398 . S
C2127 C2133 1.491 . S
C2128 H2119 0.950 . S
C2128 C2127 1.398 . S
C2128 C2129 1.391 . S
C2129 H2117 0.950 . S
C2129 C2125 1.393 . S
C2129 C2128 1.391 . S
C2130 H2120 0.950 . S
C2130 C2131 1.386 . S
C2130 C2132 1.391 . S
C2131 C2130 1.386 . S
C2131 C2135 1.393 . S
C2132 H2121 0.950 . S
C2132 C2130 1.391 . S
C2132 C2133 1.400 . S
C2133 C2127 1.491 . S
C2133 C2132 1.400 . S
C2133 C2134 1.398 . S
C2134 H2122 0.950 . S
C2134 C2133 1.398 . S
C2134 C2135 1.391 . S
C2135 H2123 0.950 . S
C2135 C2131 1.393 . S
C2135 C2134 1.391 . S
H2136 C2144 0.935 1_655 S
H2137 C2149 0.950 . S
H2138 C2146 0.950 . S
H2139 C2148 0.950 . S
H2140 C2150 0.950 . S
H2141 C2152 0.950 . S
H2142 C2154 0.950 . S
H2143 C2155 0.950 . S
C2144 H2136 0.935 1_455 S
C2144 C2145 1.422 . S
C2144 C2146 1.371 1_455 S
C2145 C2144 1.422 . S
C2145 C2149 1.393 . S
C2146 H2138 0.950 . S
C2146 C2144 1.371 1_655 S
C2146 C2147 1.400 1_655 S
C2147 C2146 1.400 1_455 S
C2147 C2148 1.398 . S
C2147 C2153 1.491 . S
C2148 H2139 0.950 . S
C2148 C2147 1.398 . S
C2148 C2149 1.391 . S
C2149 H2137 0.950 . S
C2149 C2145 1.393 . S
C2149 C2148 1.391 . S
C2150 H2140 0.950 . S
C2150 C2151 1.386 . S
C2150 C2152 1.391 . S
C2151 C2150 1.386 . S
C2151 C2155 1.393 1_455 S
C2152 H2141 0.950 . S
C2152 C2150 1.391 . S
C2152 C2153 1.400 . S
C2153 C2147 1.491 . S
C2153 C2152 1.400 . S
C2153 C2154 1.398 1_455 S
C2154 H2142 0.950 . S
C2154 C2153 1.398 1_655 S
C2154 C2155 1.391 . S
C2155 H2143 0.950 . S
C2155 C2151 1.393 1_655 S
C2155 C2154 1.391 . S
H2156 C2164 0.950 . S
H2157 C2169 0.950 . S
H2158 C2166 0.950 . S
H2159 C2168 0.950 . S
H2160 C2170 0.950 . S
H2161 C2172 0.950 . S
H2162 C2174 0.950 . S
H2163 C2175 0.950 . S
C2164 H2156 0.950 . S
C2164 C2165 1.386 . S
C2164 C2166 1.391 . S
C2165 C2164 1.386 . S
C2165 C2169 1.393 . S
C2166 H2158 0.950 . S
C2166 C2164 1.391 . S
C2166 C2167 1.400 . S
C2167 C2166 1.400 . S
C2167 C2168 1.398 . S
C2167 C2173 1.491 . S
C2168 H2159 0.950 . S
C2168 C2167 1.398 . S
C2168 C2169 1.391 . S
C2169 H2157 0.950 . S
C2169 C2165 1.393 . S
C2169 C2168 1.391 . S
C2170 H2160 0.950 . S
C2170 C2171 1.386 . S
C2170 C2172 1.391 . S
C2171 C2170 1.386 . S
C2171 C2175 1.393 . S
C2172 H2161 0.950 . S
C2172 C2170 1.391 . S
C2172 C2173 1.400 . S
C2173 C2167 1.491 . S
C2173 C2172 1.400 . S
C2173 C2174 1.398 . S
C2174 H2162 0.950 . S
C2174 C2173 1.398 . S
C2174 C2175 1.391 . S
C2175 H2163 0.950 . S
C2175 C2171 1.393 . S
C2175 C2174 1.391 . S
H2176 C2184 0.950 . S
H2177 C2189 0.950 . S
H2178 C2186 0.932 1_545 S
H2179 C2188 0.950 . S
H2180 C2190 0.950 . S
H2181 C2192 0.950 . S
H2182 C2194 0.950 1_545 S
H2183 C2195 0.964 . S
C2184 H2176 0.950 . S
C2184 C2185 1.386 . S
C2184 C2186 1.391 . S
C2185 C2184 1.386 . S
C2185 C2189 1.393 . S
C2186 H2178 0.932 1_565 S
C2186 C2184 1.391 . S
C2186 C2187 1.400 . S
C2187 C2186 1.400 . S
C2187 C2188 1.398 . S
C2187 C2193 1.491 . S
C2188 H2179 0.950 . S
C2188 C2187 1.398 . S
C2188 C2189 1.391 . S
C2189 H2177 0.950 . S
C2189 C2185 1.393 . S
C2189 C2188 1.391 . S
C2190 H2180 0.950 . S
C2190 C2191 1.386 . S
C2190 C2192 1.391 . S
C2191 C2190 1.386 . S
C2191 C2195 1.361 1_565 S
C2192 H2181 0.950 . S
C2192 C2190 1.391 . S
C2192 C2193 1.400 . S
C2193 C2187 1.491 . S
C2193 C2192 1.400 . S
C2193 C2194 1.398 . S
C2194 H2182 0.950 1_565 S
C2194 C2193 1.398 . S
C2194 C2195 1.410 1_565 S
C2195 H2183 0.964 . S
C2195 C2191 1.361 1_545 S
C2195 C2194 1.410 1_545 S
H2196 C2204 0.950 1_545 S
H2197 C2209 0.950 . S
H2198 C2206 0.950 1_545 S
H2199 C2208 0.950 . S
H2200 C2210 0.950 . S
H2201 C2212 0.950 . S
H2202 C2214 0.958 . S
H2203 C2215 0.950 . S
C2204 H2196 0.950 1_565 S
C2204 C2205 1.386 . S
C2204 C2206 1.391 . S
C2205 C2204 1.386 . S
C2205 C2209 1.393 . S
C2206 H2198 0.950 1_565 S
C2206 C2204 1.391 . S
C2206 C2207 1.400 . S
C2207 C2206 1.400 . S
C2207 C2208 1.398 . S
C2207 C2213 1.491 . S
C2208 H2199 0.950 . S
C2208 C2207 1.398 . S
C2208 C2209 1.391 . S
C2209 H2197 0.950 . S
C2209 C2205 1.393 . S
C2209 C2208 1.391 . S
C2210 H2200 0.950 . S
C2210 C2211 1.386 . S
C2210 C2212 1.391 . S
C2211 C2210 1.386 . S
C2211 C2215 1.393 1_565 S
C2212 H2201 0.950 . S
C2212 C2210 1.391 . S
C2212 C2213 1.400 . S
C2213 C2207 1.491 . S
C2213 C2212 1.400 . S
C2213 C2214 1.374 1_565 S
C2214 H2202 0.958 . S
C2214 C2213 1.374 1_545 S
C2214 C2215 1.407 . S
C2215 H2203 0.950 . S
C2215 C2211 1.393 1_545 S
C2215 C2214 1.407 . S
H2216 C2224 0.950 . S
H2217 C2229 0.950 . S
H2218 C2226 0.950 . S
H2219 C2228 0.950 . S
H2220 C2230 0.950 . S
H2221 C2232 0.950 . S
H2222 C2234 0.950 . S
H2223 C2235 0.950 . S
C2224 H2216 0.950 . S
C2224 C2225 1.386 . S
C2224 C2226 1.391 . S
C2225 C2224 1.386 . S
C2225 C2229 1.393 1_455 S
C2226 H2218 0.950 . S
C2226 C2224 1.391 . S
C2226 C2227 1.400 . S
C2227 C2226 1.400 . S
C2227 C2228 1.398 1_455 S
C2227 C2233 1.491 . S
C2228 H2219 0.950 . S
C2228 C2227 1.398 1_655 S
C2228 C2229 1.391 . S
C2229 H2217 0.950 . S
C2229 C2225 1.393 1_655 S
C2229 C2228 1.391 . S
C2230 H2220 0.950 . S
C2230 C2231 1.386 1_655 S
C2230 C2232 1.391 . S
C2231 C2230 1.386 1_455 S
C2231 C2235 1.393 . S
C2232 H2221 0.950 . S
C2232 C2230 1.391 . S
C2232 C2233 1.400 1_655 S
C2233 C2227 1.491 . S
C2233 C2232 1.400 1_455 S
C2233 C2234 1.398 . S
C2234 H2222 0.950 . S
C2234 C2233 1.398 . S
C2234 C2235 1.391 . S
C2235 H2223 0.950 . S
C2235 C2231 1.393 . S
C2235 C2234 1.391 . S
H2236 C2244 0.950 . S
H2237 C2249 0.950 . S
H2238 C2246 0.950 . S
H2239 C2248 0.950 . S
H2240 C2250 0.950 . S
H2241 C2252 0.950 . S
H2242 C2254 0.950 . S
H2243 C2255 0.950 . S
C2244 H2236 0.950 . S
C2244 C2245 1.386 . S
C2244 C2246 1.391 . S
C2245 C2244 1.386 . S
C2245 C2249 1.393 . S
C2246 H2238 0.950 . S
C2246 C2244 1.391 . S
C2246 C2247 1.400 . S
C2247 C2246 1.400 . S
C2247 C2248 1.398 . S
C2247 C2253 1.491 . S
C2248 H2239 0.950 . S
C2248 C2247 1.398 . S
C2248 C2249 1.391 . S
C2249 H2237 0.950 . S
C2249 C2245 1.393 . S
C2249 C2248 1.391 . S
C2250 H2240 0.950 . S
C2250 C2251 1.386 . S
C2250 C2252 1.391 . S
C2251 C2250 1.386 . S
C2251 C2255 1.393 . S
C2252 H2241 0.950 . S
C2252 C2250 1.391 . S
C2252 C2253 1.400 . S
C2253 C2247 1.491 . S
C2253 C2252 1.400 . S
C2253 C2254 1.398 . S
C2254 H2242 0.950 . S
C2254 C2253 1.398 . S
C2254 C2255 1.391 . S
C2255 H2243 0.950 . S
C2255 C2251 1.393 . S
C2255 C2254 1.391 . S
H2256 C2264 0.950 . S
H2257 C2269 0.950 . S
H2258 C2266 0.950 . S
H2259 C2268 0.950 . S
H2260 C2270 0.950 . S
H2261 C2272 0.950 . S
H2262 C2274 0.950 . S
H2263 C2275 0.950 . S
C2264 H2256 0.950 . S
C2264 C2265 1.386 . S
C2264 C2266 1.391 . S
C2265 C2264 1.386 . S
C2265 C2269 1.393 . S
C2266 H2258 0.950 . S
C2266 C2264 1.391 . S
C2266 C2267 1.400 . S
C2267 C2266 1.400 . S
C2267 C2268 1.398 . S
C2267 C2273 1.491 . S
C2268 H2259 0.950 . S
C2268 C2267 1.398 . S
C2268 C2269 1.391 . S
C2269 H2257 0.950 . S
C2269 C2265 1.393 . S
C2269 C2268 1.391 . S
C2270 H2260 0.950 . S
C2270 C2271 1.386 . S
C2270 C2272 1.391 . S
C2271 C2270 1.386 . S
C2271 C2275 1.393 . S
C2272 H2261 0.950 . S
C2272 C2270 1.391 . S
C2272 C2273 1.400 . S
C2273 C2267 1.491 . S
C2273 C2272 1.400 . S
C2273 C2274 1.398 . S
C2274 H2262 0.950 . S
C2274 C2273 1.398 . S
C2274 C2275 1.391 . S
C2275 H2263 0.950 . S
C2275 C2271 1.393 . S
C2275 C2274 1.391 . S
H2276 C2284 0.950 . S
H2277 C2289 0.950 . S
H2278 C2286 0.950 . S
H2279 C2288 0.950 . S
H2280 C2290 0.950 . S
H2281 C2292 0.950 . S
H2282 C2294 0.950 . S
H2283 C2295 0.950 . S
C2284 H2276 0.950 . S
C2284 C2285 1.386 . S
C2284 C2286 1.391 . S
C2285 C2284 1.386 . S
C2285 C2289 1.393 . S
C2286 H2278 0.950 . S
C2286 C2284 1.391 . S
C2286 C2287 1.400 . S
C2287 C2286 1.400 . S
C2287 C2288 1.398 . S
C2287 C2293 1.491 . S
C2288 H2279 0.950 . S
C2288 C2287 1.398 . S
C2288 C2289 1.391 . S
C2289 H2277 0.950 . S
C2289 C2285 1.393 . S
C2289 C2288 1.391 . S
C2290 H2280 0.950 . S
C2290 C2291 1.386 . S
C2290 C2292 1.391 . S
C2291 C2290 1.386 . S
C2291 C2295 1.393 . S
C2292 H2281 0.950 . S
C2292 C2290 1.391 . S
C2292 C2293 1.400 . S
C2293 C2287 1.491 . S
C2293 C2292 1.400 . S
C2293 C2294 1.398 . S
C2294 H2282 0.950 . S
C2294 C2293 1.398 . S
C2294 C2295 1.391 . S
C2295 H2283 0.950 . S
C2295 C2291 1.393 . S
C2295 C2294 1.391 . S
H2296 C2304 0.950 . S
H2297 C2309 0.950 . S
H2298 C2306 0.950 . S
H2299 C2308 0.950 . S
H2300 C2310 0.950 . S
H2301 C2312 0.950 . S
H2302 C2314 0.950 . S
H2303 C2315 0.950 . S
C2304 H2296 0.950 . S
C2304 C2305 1.386 . S
C2304 C2306 1.391 . S
C2305 C2304 1.386 . S
C2305 C2309 1.393 . S
C2306 H2298 0.950 . S
C2306 C2304 1.391 . S
C2306 C2307 1.400 . S
C2307 C2306 1.400 . S
C2307 C2308 1.398 . S
C2307 C2313 1.491 . S
C2308 H2299 0.950 . S
C2308 C2307 1.398 . S
C2308 C2309 1.391 . S
C2309 H2297 0.950 . S
C2309 C2305 1.393 . S
C2309 C2308 1.391 . S
C2310 H2300 0.950 . S
C2310 C2311 1.386 . S
C2310 C2312 1.391 . S
C2311 C2310 1.386 . S
C2311 C2315 1.393 . S
C2312 H2301 0.950 . S
C2312 C2310 1.391 . S
C2312 C2313 1.400 . S
C2313 C2307 1.491 . S
C2313 C2312 1.400 . S
C2313 C2314 1.398 . S
C2314 H2302 0.950 . S
C2314 C2313 1.398 . S
C2314 C2315 1.391 . S
C2315 H2303 0.950 . S
C2315 C2311 1.393 . S
C2315 C2314 1.391 . S
H2316 C2324 0.950 1_565 S
H2317 C2329 0.950 . S
H2318 C2326 0.950 1_565 S
H2319 C2328 0.950 . S
H2320 C2330 0.950 . S
H2321 C2332 0.950 . S
H2322 C2334 0.950 . S
H2323 C2335 0.950 . S
C2324 H2316 0.950 1_545 S
C2324 C2325 1.386 . S
C2324 C2326 1.391 . S
C2325 C2324 1.386 . S
C2325 C2329 1.393 . S
C2326 H2318 0.950 1_545 S
C2326 C2324 1.391 . S
C2326 C2327 1.400 . S
C2327 C2326 1.400 . S
C2327 C2328 1.398 . S
C2327 C2333 1.491 . S
C2328 H2319 0.950 . S
C2328 C2327 1.398 . S
C2328 C2329 1.391 . S
C2329 H2317 0.950 . S
C2329 C2325 1.393 . S
C2329 C2328 1.391 . S
C2330 H2320 0.950 . S
C2330 C2331 1.386 . S
C2330 C2332 1.391 . S
C2331 C2330 1.386 . S
C2331 C2335 1.393 1_545 S
C2332 H2321 0.950 . S
C2332 C2330 1.391 . S
C2332 C2333 1.400 . S
C2333 C2327 1.491 . S
C2333 C2332 1.400 . S
C2333 C2334 1.398 1_545 S
C2334 H2322 0.950 . S
C2334 C2333 1.398 1_565 S
C2334 C2335 1.391 . S
C2335 H2323 0.950 . S
C2335 C2331 1.393 1_565 S
C2335 C2334 1.391 . S
H2336 C2344 0.950 . S
H2337 C2349 0.950 . S
H2338 C2346 0.950 . S
H2339 C2348 0.950 . S
H2340 C2350 0.950 . S
H2341 C2352 0.950 . S
H2342 C2354 0.950 . S
H2343 C2355 0.950 . S
C2344 H2336 0.950 . S
C2344 C2345 1.386 1_455 S
C2344 C2346 1.391 . S
C2345 C2344 1.386 1_655 S
C2345 C2349 1.393 . S
C2346 H2338 0.950 . S
C2346 C2344 1.391 . S
C2346 C2347 1.400 1_455 S
C2347 C2346 1.400 1_655 S
C2347 C2348 1.398 . S
C2347 C2353 1.491 . S
C2348 H2339 0.950 . S
C2348 C2347 1.398 . S
C2348 C2349 1.391 . S
C2349 H2337 0.950 . S
C2349 C2345 1.393 . S
C2349 C2348 1.391 . S
C2350 H2340 0.950 . S
C2350 C2351 1.386 . S
C2350 C2352 1.391 . S
C2351 C2350 1.386 . S
C2351 C2355 1.393 1_655 S
C2352 H2341 0.950 . S
C2352 C2350 1.391 . S
C2352 C2353 1.400 . S
C2353 C2347 1.491 . S
C2353 C2352 1.400 . S
C2353 C2354 1.398 1_655 S
C2354 H2342 0.950 . S
C2354 C2353 1.398 1_455 S
C2354 C2355 1.391 . S
C2355 H2343 0.950 . S
C2355 C2351 1.393 1_455 S
C2355 C2354 1.391 . S
H2356 C2364 0.950 . S
H2357 C2369 0.950 . S
H2358 C2366 0.950 . S
H2359 C2368 0.950 . S
H2360 C2370 0.950 . S
H2361 C2372 0.950 . S
H2362 C2374 0.950 . S
H2363 C2375 0.950 . S
C2364 H2356 0.950 . S
C2364 C2365 1.386 . S
C2364 C2366 1.391 . S
C2365 C2364 1.386 . S
C2365 C2369 1.393 . S
C2366 H2358 0.950 . S
C2366 C2364 1.391 . S
C2366 C2367 1.400 . S
C2367 C2366 1.400 . S
C2367 C2368 1.398 . S
C2367 C2373 1.491 . S
C2368 H2359 0.950 . S
C2368 C2367 1.398 . S
C2368 C2369 1.391 . S
C2369 H2357 0.950 . S
C2369 C2365 1.393 . S
C2369 C2368 1.391 . S
C2370 H2360 0.950 . S
C2370 C2371 1.386 . S
C2370 C2372 1.391 . S
C2371 C2370 1.386 . S
C2371 C2375 1.393 . S
C2372 H2361 0.950 . S
C2372 C2370 1.391 . S
C2372 C2373 1.400 . S
C2373 C2367 1.491 . S
C2373 C2372 1.400 . S
C2373 C2374 1.398 . S
C2374 H2362 0.950 . S
C2374 C2373 1.398 . S
C2374 C2375 1.391 . S
C2375 H2363 0.950 . S
C2375 C2371 1.393 . S
C2375 C2374 1.391 . S
H2376 C2384 0.950 . S
H2377 C2389 0.950 . S
H2378 C2386 0.950 . S
H2379 C2388 0.950 . S
H2380 C2390 0.950 . S
H2381 C2392 0.950 . S
H2382 C2394 0.950 . S
H2383 C2395 0.950 . S
C2384 H2376 0.950 . S
C2384 C2385 1.386 . S
C2384 C2386 1.391 . S
C2385 C2384 1.386 . S
C2385 C2389 1.393 . S
C2386 H2378 0.950 . S
C2386 C2384 1.391 . S
C2386 C2387 1.400 . S
C2387 C2386 1.400 . S
C2387 C2388 1.398 . S
C2387 C2393 1.491 . S
C2388 H2379 0.950 . S
C2388 C2387 1.398 . S
C2388 C2389 1.391 . S
C2389 H2377 0.950 . S
C2389 C2385 1.393 . S
C2389 C2388 1.391 . S
C2390 H2380 0.950 . S
C2390 C2391 1.386 . S
C2390 C2392 1.391 . S
C2391 C2390 1.386 . S
C2391 C2395 1.393 . S
C2392 H2381 0.950 . S
C2392 C2390 1.391 . S
C2392 C2393 1.400 . S
C2393 C2387 1.491 . S
C2393 C2392 1.400 . S
C2393 C2394 1.398 . S
C2394 H2382 0.950 . S
C2394 C2393 1.398 . S
C2394 C2395 1.391 . S
C2395 H2383 0.950 . S
C2395 C2391 1.393 . S
C2395 C2394 1.391 . S
H2396 C2404 0.950 . S
H2397 C2409 0.950 . S
H2398 C2406 0.950 . S
H2399 C2408 0.950 . S
H2400 C2410 0.950 . S
H2401 C2412 0.950 . S
H2402 C2414 0.950 . S
H2403 C2415 0.950 . S
C2404 H2396 0.950 . S
C2404 C2405 1.386 . S
C2404 C2406 1.391 . S
C2405 C2404 1.386 . S
C2405 C2409 1.393 . S
C2406 H2398 0.950 . S
C2406 C2404 1.391 . S
C2406 C2407 1.400 . S
C2407 C2406 1.400 . S
C2407 C2408 1.398 . S
C2407 C2413 1.491 . S
C2408 H2399 0.950 . S
C2408 C2407 1.398 . S
C2408 C2409 1.391 . S
C2409 H2397 0.950 . S
C2409 C2405 1.393 . S
C2409 C2408 1.391 . S
C2410 H2400 0.950 . S
C2410 C2411 1.386 . S
C2410 C2412 1.391 . S
C2411 C2410 1.386 . S
C2411 C2415 1.393 . S
C2412 H2401 0.950 . S
C2412 C2410 1.391 . S
C2412 C2413 1.400 . S
C2413 C2407 1.491 . S
C2413 C2412 1.400 . S
C2413 C2414 1.398 . S
C2414 H2402 0.950 . S
C2414 C2413 1.398 . S
C2414 C2415 1.391 . S
C2415 H2403 0.950 . S
C2415 C2411 1.393 . S
C2415 C2414 1.391 . S
H2416 C2424 0.950 . S
H2417 C2429 0.950 . S
H2418 C2426 0.950 . S
H2419 C2428 0.950 . S
H2420 C2430 0.950 . S
H2421 C2432 0.950 . S
H2422 C2434 0.950 . S
H2423 C2435 0.950 . S
C2424 H2416 0.950 . S
C2424 C2425 1.386 . S
C2424 C2426 1.391 . S
C2425 C2424 1.386 . S
C2425 C2429 1.393 . S
C2426 H2418 0.950 . S
C2426 C2424 1.391 . S
C2426 C2427 1.400 . S
C2427 C2426 1.400 . S
C2427 C2428 1.398 . S
C2427 C2433 1.491 . S
C2428 H2419 0.950 . S
C2428 C2427 1.398 . S
C2428 C2429 1.391 . S
C2429 H2417 0.950 . S
C2429 C2425 1.393 . S
C2429 C2428 1.391 . S
C2430 H2420 0.950 . S
C2430 C2431 1.386 . S
C2430 C2432 1.391 . S
C2431 C2430 1.386 . S
C2431 C2435 1.393 . S
C2432 H2421 0.950 . S
C2432 C2430 1.391 . S
C2432 C2433 1.400 . S
C2433 C2427 1.491 . S
C2433 C2432 1.400 . S
C2433 C2434 1.398 . S
C2434 H2422 0.950 . S
C2434 C2433 1.398 . S
C2434 C2435 1.391 . S
C2435 H2423 0.950 . S
C2435 C2431 1.393 . S
C2435 C2434 1.391 . S
H2436 C2444 0.950 . S
H2437 C2449 0.950 . S
H2438 C2446 0.950 . S
H2439 C2448 0.950 . S
H2440 C2450 0.950 . S
H2441 C2452 0.950 . S
H2442 C2454 0.950 . S
H2443 C2455 0.950 . S
C2444 H2436 0.950 . S
C2444 C2445 1.386 . S
C2444 C2446 1.391 . S
C2445 C2444 1.386 . S
C2445 C2449 1.393 . S
C2446 H2438 0.950 . S
C2446 C2444 1.391 . S
C2446 C2447 1.400 . S
C2447 C2446 1.400 . S
C2447 C2448 1.398 . S
C2447 C2453 1.491 . S
C2448 H2439 0.950 . S
C2448 C2447 1.398 . S
C2448 C2449 1.391 . S
C2449 H2437 0.950 . S
C2449 C2445 1.393 . S
C2449 C2448 1.391 . S
C2450 H2440 0.950 . S
C2450 C2451 1.386 . S
C2450 C2452 1.391 . S
C2451 C2450 1.386 . S
C2451 C2455 1.393 . S
C2452 H2441 0.950 . S
C2452 C2450 1.391 . S
C2452 C2453 1.400 . S
C2453 C2447 1.491 . S
C2453 C2452 1.400 . S
C2453 C2454 1.398 . S
C2454 H2442 0.950 . S
C2454 C2453 1.398 . S
C2454 C2455 1.391 . S
C2455 H2443 0.950 . S
C2455 C2451 1.393 . S
C2455 C2454 1.391 . S
H2456 C2464 0.950 . S
H2457 C2469 0.950 . S
H2458 C2466 0.950 . S
H2459 C2468 0.950 . S
H2460 C2470 0.950 . S
H2461 C2472 0.950 . S
H2462 C2474 0.950 . S
H2463 C2475 0.950 . S
C2464 H2456 0.950 . S
C2464 C2465 1.386 . S
C2464 C2466 1.391 . S
C2465 C2464 1.386 . S
C2465 C2469 1.393 . S
C2466 H2458 0.950 . S
C2466 C2464 1.391 . S
C2466 C2467 1.400 . S
C2467 C2466 1.400 . S
C2467 C2468 1.398 . S
C2467 C2473 1.491 . S
C2468 H2459 0.950 . S
C2468 C2467 1.398 . S
C2468 C2469 1.391 . S
C2469 H2457 0.950 . S
C2469 C2465 1.393 . S
C2469 C2468 1.391 . S
C2470 H2460 0.950 . S
C2470 C2471 1.386 . S
C2470 C2472 1.391 . S
C2471 C2470 1.386 . S
C2471 C2475 1.393 . S
C2472 H2461 0.950 . S
C2472 C2470 1.391 . S
C2472 C2473 1.400 . S
C2473 C2467 1.491 . S
C2473 C2472 1.400 . S
C2473 C2474 1.398 . S
C2474 H2462 0.950 . S
C2474 C2473 1.398 . S
C2474 C2475 1.391 . S
C2475 H2463 0.950 . S
C2475 C2471 1.393 . S
C2475 C2474 1.391 . S
H2476 C2484 0.950 . S
H2477 C2489 0.950 . S
H2478 C2486 0.950 . S
H2479 C2488 0.950 . S
H2480 C2490 0.950 . S
H2481 C2492 0.950 . S
H2482 C2494 0.950 . S
H2483 C2495 0.950 . S
C2484 H2476 0.950 . S
C2484 C2485 1.386 . S
C2484 C2486 1.391 . S
C2485 C2484 1.386 . S
C2485 C2489 1.393 . S
C2486 H2478 0.950 . S
C2486 C2484 1.391 . S
C2486 C2487 1.400 . S
C2487 C2486 1.400 . S
C2487 C2488 1.398 . S
C2487 C2493 1.491 . S
C2488 H2479 0.950 . S
C2488 C2487 1.398 . S
C2488 C2489 1.391 . S
C2489 H2477 0.950 . S
C2489 C2485 1.393 . S
C2489 C2488 1.391 . S
C2490 H2480 0.950 . S
C2490 C2491 1.386 . S
C2490 C2492 1.391 . S
C2491 C2490 1.386 . S
C2491 C2495 1.393 . S
C2492 H2481 0.950 . S
C2492 C2490 1.391 . S
C2492 C2493 1.400 . S
C2493 C2487 1.491 . S
C2493 C2492 1.400 . S
C2493 C2494 1.398 . S
C2494 H2482 0.950 . S
C2494 C2493 1.398 . S
C2494 C2495 1.391 . S
C2495 H2483 0.950 . S
C2495 C2491 1.393 . S
C2495 C2494 1.391 . S
H2496 C2504 0.950 . S
H2497 C2509 0.950 . S
H2498 C2506 0.950 . S
H2499 C2508 0.950 . S
H2500 C2510 0.950 . S
H2501 C2512 0.950 . S
H2502 C2514 0.950 . S
H2503 C2515 0.950 . S
C2504 H2496 0.950 . S
C2504 C2505 1.386 . S
C2504 C2506 1.391 . S
C2505 C2504 1.386 . S
C2505 C2509 1.393 1_655 S
C2506 H2498 0.950 . S
C2506 C2504 1.391 . S
C2506 C2507 1.400 . S
C2507 C2506 1.400 . S
C2507 C2508 1.398 1_655 S
C2507 C2513 1.491 . S
C2508 H2499 0.950 . S
C2508 C2507 1.398 1_455 S
C2508 C2509 1.391 . S
C2509 H2497 0.950 . S
C2509 C2505 1.393 1_455 S
C2509 C2508 1.391 . S
C2510 H2500 0.950 . S
C2510 C2511 1.386 1_455 S
C2510 C2512 1.391 . S
C2511 C2510 1.386 1_655 S
C2511 C2515 1.393 . S
C2512 H2501 0.950 . S
C2512 C2510 1.391 . S
C2512 C2513 1.400 1_455 S
C2513 C2507 1.491 . S
C2513 C2512 1.400 1_655 S
C2513 C2514 1.398 . S
C2514 H2502 0.950 . S
C2514 C2513 1.398 . S
C2514 C2515 1.391 . S
C2515 H2503 0.950 . S
C2515 C2511 1.393 . S
C2515 C2514 1.391 . S
H2516 C2524 0.950 . S
H2517 C2529 0.950 . S
H2518 C2526 0.950 . S
H2519 C2528 0.950 . S
H2520 C2530 0.950 . S
H2521 C2532 0.950 . S
H2522 C2534 0.950 . S
H2523 C2535 0.950 . S
C2524 H2516 0.950 . S
C2524 C2525 1.386 . S
C2524 C2526 1.391 . S
C2525 C2524 1.386 . S
C2525 C2529 1.393 . S
C2526 H2518 0.950 . S
C2526 C2524 1.391 . S
C2526 C2527 1.400 . S
C2527 C2526 1.400 . S
C2527 C2528 1.398 . S
C2527 C2533 1.491 . S
C2528 H2519 0.950 . S
C2528 C2527 1.398 . S
C2528 C2529 1.391 . S
C2529 H2517 0.950 . S
C2529 C2525 1.393 . S
C2529 C2528 1.391 . S
C2530 H2520 0.950 . S
C2530 C2531 1.386 . S
C2530 C2532 1.391 . S
C2531 C2530 1.386 . S
C2531 C2535 1.393 . S
C2532 H2521 0.950 . S
C2532 C2530 1.391 . S
C2532 C2533 1.400 . S
C2533 C2527 1.491 . S
C2533 C2532 1.400 . S
C2533 C2534 1.398 . S
C2534 H2522 0.950 . S
C2534 C2533 1.398 . S
C2534 C2535 1.391 . S
C2535 H2523 0.950 . S
C2535 C2531 1.393 . S
C2535 C2534 1.391 . S
H2536 C2544 0.950 . S
H2537 C2549 0.950 . S
H2538 C2546 0.950 . S
H2539 C2548 0.950 . S
H2540 C2550 0.950 . S
H2541 C2552 0.950 . S
H2542 C2554 0.950 . S
H2543 C2555 0.950 . S
C2544 H2536 0.950 . S
C2544 C2545 1.386 . S
C2544 C2546 1.391 . S
C2545 C2544 1.386 . S
C2545 C2549 1.393 1_545 S
C2546 H2538 0.950 . S
C2546 C2544 1.391 . S
C2546 C2547 1.400 . S
C2547 C2546 1.400 . S
C2547 C2548 1.398 1_545 S
C2547 C2553 1.491 . S
C2548 H2539 0.950 . S
C2548 C2547 1.398 1_565 S
C2548 C2549 1.391 . S
C2549 H2537 0.950 . S
C2549 C2545 1.393 1_565 S
C2549 C2548 1.391 . S
C2550 H2540 0.950 . S
C2550 C2551 1.386 1_565 S
C2550 C2552 1.391 . S
C2551 C2550 1.386 1_545 S
C2551 C2555 1.393 . S
C2552 H2541 0.950 . S
C2552 C2550 1.391 . S
C2552 C2553 1.400 1_565 S
C2553 C2547 1.491 . S
C2553 C2552 1.400 1_545 S
C2553 C2554 1.398 . S
C2554 H2542 0.950 . S
C2554 C2553 1.398 . S
C2554 C2555 1.391 . S
C2555 H2543 0.950 . S
C2555 C2551 1.393 . S
C2555 C2554 1.391 . S
C1125 C13 1.426 . S
C1131 C729 1.510 . S
C1145 C27 1.371 . S
C1151 C777 1.429 . S
C1171 C825 1.489 . S
C1165 C36 1.396 . S
C1185 C41 1.405 . S
C1191 C849 1.501 . S
C1205 C8 1.488 . S
C1211 C921 1.584 . S
C1225 C22 1.427 . S
C1231 C969 1.523 . S
C1245 C55 1.428 . S
C1251 C897 1.507 . S
C1271 C945 1.440 . S
C1265 C69 1.356 . S
C1291 C873 1.491 . S
C1285 C78 1.431 . S
C1305 C83 1.407 . S
C1311 C801 1.486 . S
C1331 C705 1.608 . S
C1325 C50 1.507 . S
C1345 C64 1.433 . S
C1351 C753 1.524 . S
C1365 C97 1.560 . S
C1371 C1017 1.646 . S
C1385 C111 1.399 . S
C1391 C1065 1.493 . S
C1411 C1089 1.580 . S
C1405 C120 1.534 . S
C1425 C125 1.469 . S
C1431 C273 1.550 . S
C1445 C92 1.665 . S
C1451 C345 1.728 . S
C1465 C106 1.486 . S
C1471 C393 1.567 . S
C1485 C139 1.511 . S
C1491 C321 1.594 . S
C1505 C153 1.387 . S
C1511 C369 1.478 . S
C1531 C297 1.561 . S
C1525 C162 1.545 . S
C1551 C1113 1.584 . S
C1545 C167 1.499 . S
C1571 C993 1.720 . S
C1565 C134 1.656 . S
C1591 C1041 1.581 . S
C1585 C148 1.534 . S
C1605 C181 1.515 . S
C1611 C441 1.595 . S
C1625 C195 1.379 . S
C1631 C489 1.462 . S
C1645 C204 1.519 . S
C1651 C513 1.597 . S
C1665 C209 1.508 . S
C1671 C561 1.603 . S
C1691 C633 1.728 . S
C1685 C176 1.682 . S
C1711 C681 1.577 . S
C1705 C190 1.528 . S
C1731 C609 1.661 . S
C1725 C223 1.570 . S
C1751 C657 1.500 . S
C1745 C237 1.423 . S
C1765 C246 1.528 . S
C1771 C585 1.550 . S
C1791 C537 1.520 . S
C1785 C251 1.467 . S
C1805 C218 1.675 . S
C1811 C417 1.725 . S
C1831 C465 1.571 . S
C1825 C232 1.520 . S
C1851 C282 1.478 . S
C1845 C11 1.459 . S
C1865 C25 1.335 . S
C1871 C336 1.322 . S
C1891 C384 1.426 . S
C1885 C35 1.456 . S
C1911 C432 1.454 . S
C1905 C39 1.450 . S
C1931 C480 1.525 . S
C1925 C7 1.543 1_556 S
C1951 C522 1.417 . S
C1945 C21 1.435 . S
C1965 C53 1.497 . S
C1971 C528 1.490 . S
C1985 C67 1.340 . S
C1991 C426 1.326 . S
C2005 C77 1.431 1_556 S
C2011 C474 1.402 . S
C2025 C81 1.469 . S
C2031 C330 1.461 . S
C2051 C378 1.522 . S
C2045 C49 1.551 . S
C2065 C63 1.420 . S
C2071 C288 1.405 . S
C2091 C570 1.438 . S
C2085 C95 1.416 . S
C2105 C109 1.409 . S
C2111 C624 1.392 . S
C2125 C119 1.512 . S
C2131 C672 1.491 . S
C2151 C720 1.272 . S
C2145 C123 1.280 . S
C2165 C91 1.506 . S
C2171 C768 1.476 . S
C2185 C105 1.269 . S
C2191 C816 1.262 . S
C2205 C137 1.305 . S
C2211 C810 1.299 . S
C2225 C151 1.175 . S
C2231 C714 1.170 . S
C2251 C762 1.389 . S
C2245 C161 1.413 . S
C2265 C165 1.443 . S
C2271 C618 1.419 . S
C2285 C133 1.582 . S
C2291 C666 1.540 . S
C2311 C576 1.484 . S
C2305 C147 1.506 . S
C2331 C858 1.323 . S
C2325 C179 1.322 . S
C2345 C193 1.173 . S
C2351 C912 1.167 . S
C2365 C203 1.413 . S
C2371 C960 1.385 . S
C2391 C1008 1.420 . S
C2385 C207 1.429 . S
C2411 C1056 1.550 . S
C2405 C175 1.587 . S
C2425 C189 1.507 . S
C2431 C1098 1.499 . S
C2445 C221 1.438 . S
C2451 C1104 1.437 . S
C2465 C235 1.406 . S
C2471 C1002 1.387 . S
C2491 C1050 1.456 . S
C2485 C245 1.493 . S
C2511 C906 1.252 . S
C2505 C249 1.257 . S
C2531 C954 1.493 . S
C2525 C217 1.513 . S
C2545 C231 1.285 . S
C2551 C864 1.282 . S
