# Generated by pormake.
# Topology pyr, (3,6)-cn, num edge types: 1
# Building blocks:
#     Node 0, Type 0, BuildingBlock: BETDAH_clean_linker_0, # of connection points: 3
#     Node 1, Type 0, BuildingBlock: BETDAH_clean_linker_0, # of connection points: 3
#     Node 2, Type 0, BuildingBlock: BETDAH_clean_linker_0, # of connection points: 3
#     Node 3, Type 0, BuildingBlock: BETDAH_clean_linker_0, # of connection points: 3
#     Node 4, Type 0, BuildingBlock: BETDAH_clean_linker_0, # of connection points: 3
#     Node 5, Type 0, BuildingBlock: BETDAH_clean_linker_0, # of connection points: 3
#     Node 6, Type 0, BuildingBlock: BETDAH_clean_linker_0, # of connection points: 3
#     Node 7, Type 0, BuildingBlock: BETDAH_clean_linker_0, # of connection points: 3
#     Node 8, Type 1, BuildingBlock: INOVEN_clean_sbu_0, # of connection points: 6
#     Node 9, Type 1, BuildingBlock: INOVEN_clean_sbu_0, # of connection points: 6
#     Node 10, Type 1, BuildingBlock: INOVEN_clean_sbu_0, # of connection points: 6
#     Node 11, Type 1, BuildingBlock: INOVEN_clean_sbu_0, # of connection points: 6
#     Edge 12, Type (0, 1), BuildingBlock: UVAHIK_clean_linker_0, # of connection points: 2
#     Edge 13, Type (0, 1), BuildingBlock: UVAHIK_clean_linker_0, # of connection points: 2
#     Edge 14, Type (0, 1), BuildingBlock: UVAHIK_clean_linker_0, # of connection points: 2
#     Edge 15, Type (0, 1), BuildingBlock: UVAHIK_clean_linker_0, # of connection points: 2
#     Edge 16, Type (0, 1), BuildingBlock: UVAHIK_clean_linker_0, # of connection points: 2
#     Edge 17, Type (0, 1), BuildingBlock: UVAHIK_clean_linker_0, # of connection points: 2
#     Edge 18, Type (0, 1), BuildingBlock: UVAHIK_clean_linker_0, # of connection points: 2
#     Edge 19, Type (0, 1), BuildingBlock: UVAHIK_clean_linker_0, # of connection points: 2
#     Edge 20, Type (0, 1), BuildingBlock: UVAHIK_clean_linker_0, # of connection points: 2
#     Edge 21, Type (0, 1), BuildingBlock: UVAHIK_clean_linker_0, # of connection points: 2
#     Edge 22, Type (0, 1), BuildingBlock: UVAHIK_clean_linker_0, # of connection points: 2
#     Edge 23, Type (0, 1), BuildingBlock: UVAHIK_clean_linker_0, # of connection points: 2
#     Edge 24, Type (0, 1), BuildingBlock: UVAHIK_clean_linker_0, # of connection points: 2
#     Edge 25, Type (0, 1), BuildingBlock: UVAHIK_clean_linker_0, # of connection points: 2
#     Edge 26, Type (0, 1), BuildingBlock: UVAHIK_clean_linker_0, # of connection points: 2
#     Edge 27, Type (0, 1), BuildingBlock: UVAHIK_clean_linker_0, # of connection points: 2
#     Edge 28, Type (0, 1), BuildingBlock: UVAHIK_clean_linker_0, # of connection points: 2
#     Edge 29, Type (0, 1), BuildingBlock: UVAHIK_clean_linker_0, # of connection points: 2
#     Edge 30, Type (0, 1), BuildingBlock: UVAHIK_clean_linker_0, # of connection points: 2
#     Edge 31, Type (0, 1), BuildingBlock: UVAHIK_clean_linker_0, # of connection points: 2
#     Edge 32, Type (0, 1), BuildingBlock: UVAHIK_clean_linker_0, # of connection points: 2
#     Edge 33, Type (0, 1), BuildingBlock: UVAHIK_clean_linker_0, # of connection points: 2
#     Edge 34, Type (0, 1), BuildingBlock: UVAHIK_clean_linker_0, # of connection points: 2
#     Edge 35, Type (0, 1), BuildingBlock: UVAHIK_clean_linker_0, # of connection points: 2
# Relax obj value: 0.110
# Max RMSD: 0.189
# Mean RMSD: 0.141
data_MOF--net-pyr--node1-INOVEN_clean_sbu_0--node2-BETDAH_clean_linker_0--edge1-UVAHIK_clean_linker_0
_symmetry_space_group_name_H-M    P1
_symmetry_Int_Tables_number       1
_symmetry_cell_setting            triclinic
loop_
_symmetry_equiv_pos_as_xyz
'x, y, z'
_cell_length_a     49.256935
_cell_length_b     51.431799
_cell_length_c     47.471228
_cell_angle_alpha  91.544515
_cell_angle_beta   89.551811
_cell_angle_gamma 105.1424
loop_
_atom_site_label
_atom_site_type_symbol
_atom_site_fract_x
_atom_site_fract_y
_atom_site_fract_z
_atom_type_partial_charge
H0 H 0.32223 0.25215 0.26295 0.0
H1 H 0.36846 0.31423 0.20913 0.0
H2 H 0.29261 0.32244 0.24946 0.0
C3 C 0.32441 0.27129 0.25298 0.0
C4 C 0.30438 0.28592 0.25829 0.0
C5 C 0.34728 0.28095 0.23489 0.0
C6 C 0.35104 0.30648 0.22331 0.0
C7 C 0.33149 0.32153 0.22846 0.0
C8 C 0.30806 0.31111 0.24585 0.0
N9 N 0.33556 0.34669 0.21523 0.0
C10 C 0.314 0.35903 0.21117 0.0
H11 H 0.36422 0.90603 0.66712 0.0
H12 H 0.32987 0.97485 0.66318 0.0
H13 H 0.35069 0.93748 0.58702 0.0
C14 C 0.35746 0.92081 0.65506 0.0
C15 C 0.35869 0.91942 0.62556 0.0
C16 C 0.34726 0.94077 0.66906 0.0
C17 C 0.33744 0.95901 0.65295 0.0
C18 C 0.33875 0.95775 0.62342 0.0
C19 C 0.3495 0.93813 0.60983 0.0
N20 N 0.33043 0.97687 0.60711 0.0
C21 C 0.30275 0.97834 0.60687 0.0
H22 H 0.69403 0.37336 0.93626 0.0
H23 H 0.68678 0.4312 0.87416 0.0
H24 H 0.61979 0.35964 0.88537 0.0
C25 C 0.68248 0.37956 0.91949 0.0
C26 C 0.6556 0.36336 0.91247 0.0
C27 C 0.69417 0.40414 0.90593 0.0
C28 C 0.67823 0.41248 0.88484 0.0
C29 C 0.65126 0.39623 0.87752 0.0
C30 C 0.64039 0.37202 0.89143 0.0
N31 N 0.63367 0.40293 0.85671 0.0
C32 C 0.63944 0.42427 0.83817 0.0
H33 H 0.8085 0.73217 0.43206 0.0
H34 H 0.87057 0.72316 0.37057 0.0
H35 H 0.79721 0.65799 0.38418 0.0
C36 C 0.81554 0.7202 0.41583 0.0
C37 C 0.79921 0.69396 0.4095 0.0
C38 C 0.84134 0.73097 0.40207 0.0
C39 C 0.85051 0.71535 0.3809 0.0
C40 C 0.83455 0.6888 0.37476 0.0
C41 C 0.80923 0.67842 0.38917 0.0
N42 N 0.84419 0.6707 0.35654 0.0
C43 C 0.86074 0.67681 0.33246 0.0
H44 H 0.7531 0.79978 0.86757 0.0
H45 H 0.68982 0.77465 0.93127 0.0
H46 H 0.6859 0.83852 0.87601 0.0
C47 C 0.73369 0.80123 0.87762 0.0
C48 C 0.72038 0.82057 0.86853 0.0
C49 C 0.72302 0.78461 0.90026 0.0
C50 C 0.69852 0.78744 0.91387 0.0
C51 C 0.68526 0.80702 0.90555 0.0
C52 C 0.6963 0.82365 0.88287 0.0
N53 N 0.66085 0.80933 0.92041 0.0
C54 C 0.65072 0.83213 0.92035 0.0
H55 H 0.78364 0.22074 0.42189 0.0
H56 H 0.84171 0.27837 0.47461 0.0
H57 H 0.77592 0.30189 0.43133 0.0
C58 C 0.79077 0.24084 0.43121 0.0
C59 C 0.77699 0.26054 0.42447 0.0
C60 C 0.81416 0.247 0.44921 0.0
C61 C 0.82398 0.27335 0.46027 0.0
C62 C 0.81004 0.29301 0.45439 0.0
C63 C 0.78662 0.28665 0.43625 0.0
N64 N 0.81952 0.31879 0.46764 0.0
C65 C 0.80107 0.33399 0.47533 0.0
H66 H 0.33108 0.76839 0.1934 0.0
H67 H 0.33829 0.70333 0.24633 0.0
H68 H 0.40327 0.77741 0.24633 0.0
C69 C 0.34265 0.76 0.20843 0.0
C70 C 0.36855 0.77615 0.21842 0.0
C71 C 0.33141 0.73344 0.21781 0.0
C72 C 0.34614 0.72366 0.23894 0.0
C73 C 0.37193 0.73986 0.24947 0.0
C74 C 0.38293 0.76564 0.2388 0.0
N75 N 0.38879 0.73089 0.26938 0.0
C76 C 0.38078 0.70974 0.28804 0.0
H77 H 0.18101 0.3684 0.67985 0.0
H78 H 0.18383 0.42047 0.75329 0.0
H79 H 0.12545 0.34217 0.74956 0.0
C80 C 0.17275 0.37255 0.70022 0.0
C81 C 0.15126 0.35251 0.71247 0.0
C82 C 0.1849 0.39714 0.71468 0.0
C83 C 0.1746 0.40185 0.74172 0.0
C84 C 0.15304 0.38191 0.75419 0.0
C85 C 0.14186 0.35742 0.7396 0.0
N86 N 0.14372 0.38435 0.78233 0.0
C87 C 0.1408 0.40769 0.79622 0.0
Gd88 Gd 0.00463 0.05699 0.5168 0.0
Gd89 Gd 0.99301 0.03467 0.57488 0.0
C90 C 0.02873 0.09521 0.57167 0.0
C91 C 0.0102 0.08549 0.47202 0.0
C92 C 0.03343 0.10577 0.45934 0.0
C93 C 0.06144 0.10581 0.46462 0.0
C94 C 0.02773 0.12475 0.44121 0.0
C95 C 0.07779 0.14241 0.43215 0.0
C96 C 0.04978 0.14306 0.42778 0.0
C97 C 0.08341 0.12386 0.451 0.0
C98 C 0.04362 0.03308 0.53568 0.0
C99 C 0.9715 0.99587 0.5198 0.0
C100 C 0.98591 1.00768 0.6208 0.0
C101 C 0.96134 0.99256 0.63658 0.0
C102 C 0.93476 0.99695 0.63226 0.0
C103 C 0.96462 0.97453 0.65703 0.0
C104 C 0.91516 0.96643 0.66995 0.0
C105 C 0.94173 0.9615 0.67353 0.0
C106 C 0.91189 0.98408 0.64886 0.0
C107 C 0.95402 0.05825 0.55532 0.0
O108 O 0.01933 0.09414 0.54551 0.0
O109 O 0.0258 0.0729 0.58587 0.0
O110 O 0.01336 0.06103 0.47226 0.0
O111 O 0.00012 0.09262 0.49571 0.0
O112 O 0.03663 0.03313 0.50948 0.0
O113 O 0.03184 0.04775 0.55018 0.0
O114 O 0.98103 0.99743 0.54599 0.0
O115 O 0.97338 1.01793 0.50546 0.0
O116 O 0.98894 0.03365 0.62016 0.0
O117 O 0.99063 0.99733 0.59638 0.0
O118 O 0.96083 0.0587 0.58157 0.0
O119 O 0.96611 0.04354 0.54144 0.0
H120 H 0.06628 0.09151 0.47884 0.0
H121 H 0.00623 0.12506 0.43703 0.0
H122 H 0.04488 0.15708 0.41326 0.0
H123 H 0.10483 0.12318 0.45501 0.0
H124 H 0.93184 1.01082 0.61649 0.0
H125 H 0.98499 0.97083 0.66052 0.0
H126 H 0.94489 0.94764 0.68918 0.0
H127 H 0.89186 0.98858 0.64568 0.0
Gd128 Gd 0.54476 0.08116 0.08248 0.0
Gd129 Gd 0.48732 0.061 0.05879 0.0
C130 C 0.49326 0.10104 0.11081 0.0
C131 C 0.5916 0.10985 0.10366 0.0
C132 C 0.6006 0.12433 0.13077 0.0
C133 C 0.61276 0.11208 0.1516 0.0
C134 C 0.59734 0.1504 0.13615 0.0
C135 C 0.6175 0.15122 0.1829 0.0
C136 C 0.60576 0.16373 0.16196 0.0
C137 C 0.62097 0.1253 0.17741 0.0
C138 C 0.51481 0.03366 0.10363 0.0
C139 C 0.53933 0.0415 0.03017 0.0
C140 C 0.43937 0.03242 0.03973 0.0
C141 C 0.4284 1.01931 1.01289 0.0
C142 C 0.44599 1.02107 0.9893 0.0
C143 C 0.39991 1.0056 1.01059 0.0
C144 C 0.40632 0.99612 0.96083 0.0
C145 C 0.38892 0.99407 0.98475 0.0
C146 C 0.43504 1.00958 0.96345 0.0
C147 C 0.51703 0.10857 0.03758 0.0
O148 O 0.52049 0.10703 0.10547 0.0
O149 O 0.47592 0.07993 0.09856 0.0
O150 O 0.58376 0.08354 0.10435 0.0
O151 O 0.5756 0.11968 0.08739 0.0
O152 O 0.54154 0.03947 0.09847 0.0
O153 O 0.50543 0.05369 0.09889 0.0
O154 O 0.51193 0.03578 0.03495 0.0
O155 O 0.55676 0.06213 0.04312 0.0
O156 O 0.44693 0.05873 0.03989 0.0
O157 O 0.45734 1.02213 0.05264 0.0
O158 O 0.49024 0.10245 0.04242 0.0
O159 O 0.52657 0.08862 0.04232 0.0
H160 H 0.61594 0.0922 0.14797 0.0
H161 H 0.58822 0.16052 0.1205 0.0
H162 H 0.60281 0.18368 0.16566 0.0
H163 H 0.63045 0.11537 0.19295 0.0
H164 H 0.46806 0.0317 0.99078 0.0
H165 H 0.38611 1.00405 0.0287 0.0
H166 H 0.36681 0.98357 0.9835 0.0
H167 H 0.44893 1.01185 0.94537 0.0
Gd168 Gd 0.49437 0.5331 0.54791 0.0
Gd169 Gd 0.48817 0.57716 0.58631 0.0
C170 C 0.51878 0.53681 0.61168 0.0
C171 C 0.51187 0.4976 0.51864 0.0
C172 C 0.53488 0.48445 0.5206 0.0
C173 C 0.54236 0.47553 0.54642 0.0
C174 C 0.55035 0.48178 0.49632 0.0
C175 C 0.58087 0.46172 0.52356 0.0
C176 C 0.57317 0.47054 0.49777 0.0
C177 C 0.56513 0.46413 0.54786 0.0
C178 C 0.44367 0.52384 0.57369 0.0
C179 C 0.46648 0.57556 0.52059 0.0
C180 C 0.46855 0.61178 0.61446 0.0
C181 C 0.46152 0.63689 0.60714 0.0
C182 C 0.48111 0.65767 0.59356 0.0
C183 C 0.43442 0.63968 0.61273 0.0
C184 C 0.4466 0.68378 0.59166 0.0
C185 C 0.42696 0.66288 0.60494 0.0
C186 C 0.47375 0.68099 0.58606 0.0
C187 C 0.53878 0.58759 0.5602 0.0
O188 O 0.52276 0.53074 0.58495 0.0
O189 O 0.50137 0.55163 0.61831 0.0
O190 O 0.49181 0.49132 0.53743 0.0
O191 O 0.51956 0.52336 0.51364 0.0
O192 O 0.44709 0.51769 0.54748 0.0
O193 O 0.46717 0.53393 0.58522 0.0
O194 O 0.46693 0.58611 0.54642 0.0
O195 O 0.47773 0.55535 0.5151 0.0
O196 O 0.49523 0.61216 0.61428 0.0
O197 O 0.45245 0.58969 0.60312 0.0
O198 O 0.53515 0.59512 0.58593 0.0
O199 O 0.51533 0.57647 0.54903 0.0
H200 H 0.5308 0.47757 0.56549 0.0
H201 H 0.54491 0.4886 0.47625 0.0
H202 H 0.58468 0.46858 0.47864 0.0
H203 H 0.57075 0.45767 0.56803 0.0
H204 H 0.50207 0.65591 0.58859 0.0
H205 H 0.41897 0.62384 0.62304 0.0
H206 H 0.40599 0.66468 0.60978 0.0
H207 H 0.4892 0.69676 0.57566 0.0
Gd208 Gd 0.015 0.54264 0.06848 0.0
Gd209 Gd 0.01652 0.59506 0.04275 0.0
C210 C 0.06916 0.59452 0.08064 0.0
C211 C 0.0255 0.49865 0.0848 0.0
C212 C 0.04833 0.49031 0.09868 0.0
C213 C 0.0418 0.46696 0.1146 0.0
C214 C 0.07656 0.50476 0.0955 0.0
C215 C 0.09162 0.47154 0.12276 0.0
C216 C 0.09803 0.49543 0.10741 0.0
C217 C 0.06321 0.45767 0.12659 0.0
C218 C 0.98663 0.57281 0.09806 0.0
C219 C 0.96243 0.54343 0.03111 0.0
C220 C 0.00485 0.63821 0.02569 0.0
C221 C 0.97947 0.64534 1.01599 0.0
C222 C 0.98159 0.66297 0.99361 0.0
C223 C 0.9531 0.63449 0.02845 0.0
C224 C 0.93138 0.65931 0.99647 0.0
C225 C 0.92927 0.64157 1.01888 0.0
C226 C 0.95775 0.66985 0.98387 0.0
C227 C 0.04463 0.56471 1.01295 0.0
O228 O 0.05862 0.56804 0.08104 0.0
O229 O 0.05554 0.61024 0.06864 0.0
O230 O 0.01184 0.51242 0.10029 0.0
O231 O 0.03072 0.50786 0.05936 0.0
O232 O 0.9778 0.54685 0.09453 0.0
O233 O 0.01028 0.58144 0.08642 0.0
O234 O 0.97179 0.57001 0.03332 0.0
O235 O 0.97754 0.52775 0.04045 0.0
O236 O 0.01442 0.62204 1.00896 0.0
O237 O 0.00551 0.63237 0.0523 0.0
O238 O 0.05339 0.5907 1.01617 0.0
O239 O 0.02107 0.55627 1.02483 0.0
H240 H 0.02011 0.45566 0.11743 0.0
H241 H 0.08204 0.52291 0.08334 0.0
H242 H 0.11965 0.50648 0.10384 0.0
H243 H 0.05748 0.43952 0.13873 0.0
H244 H 0.00173 0.67147 0.98368 0.0
H245 H 0.95089 0.62055 0.04555 0.0
H246 H 0.90916 0.63294 0.02878 0.0
H247 H 0.96004 0.68377 0.96675 0.0
C248 C 0.26686 0.24638 0.27519 0.0
C249 C 0.27949 0.2743 0.27632 0.0
C250 C 0.24501 0.23488 0.29346 0.0
C251 C 0.187 0.24499 0.33449 0.0
H252 H 0.19971 0.18822 0.38067 0.0
C253 C 0.10349 0.1876 0.41372 0.0
C254 C 0.10104 0.15991 0.41599 0.0
C255 C 0.12565 0.20385 0.3984 0.0
C256 C 0.1956 0.20378 0.36772 0.0
H257 H 0.27795 0.31211 0.29689 0.0
H258 H 0.23874 0.29185 0.32822 0.0
H259 H 0.23691 0.21244 0.34977 0.0
H260 H 0.11917 0.1273 0.40332 0.0
H261 H 0.15712 0.15519 0.37602 0.0
H262 H 0.14521 0.23552 0.35133 0.0
C263 C 0.24634 0.27904 0.31333 0.0
C264 C 0.21702 0.21776 0.35021 0.0
C265 C 0.26867 0.29059 0.29532 0.0
C266 C 0.12087 0.1487 0.40237 0.0
C267 C 0.14272 0.16477 0.38682 0.0
C268 C 0.1653 0.23065 0.35172 0.0
C269 C 0.2348 0.25103 0.3129 0.0
C270 C 0.21277 0.23817 0.33315 0.0
C271 C 0.1456 0.19262 0.38479 0.0
C272 C 0.16918 0.20951 0.36818 0.0
H273 H 0.27396 0.23326 0.26027 0.0
H274 H 0.23607 0.21326 0.29246 0.0
H275 H 0.18329 0.26063 0.32139 0.0
H276 H 0.08851 0.19675 0.42414 0.0
H277 H 0.12733 0.22522 0.39755 0.0
C278 C 0.32624 0.94958 0.71585 0.0
C279 C 0.34812 0.94305 0.70035 0.0
C280 C 0.32756 0.95185 0.7453 0.0
C281 C 0.36278 0.93241 0.80672 0.0
H282 H 0.3505 0.99687 0.84287 0.0
C283 C 0.40965 0.97227 0.91464 0.0
C284 C 0.39447 0.98514 0.933 0.0
C285 C 0.39951 0.96369 0.88768 0.0
C286 C 0.35346 0.97847 0.83325 0.0
H287 H 0.38882 0.93439 0.70373 0.0
H288 H 0.39085 0.93795 0.75479 0.0
H289 H 0.34044 0.98815 0.79278 0.0
H290 H 0.35633 0.99848 0.93763 0.0
H291 H 0.33833 0.98298 0.89071 0.0
H292 H 0.37633 0.92295 0.84699 0.0
C293 C 0.37246 0.94086 0.74428 0.0
C294 C 0.34772 0.97351 0.80454 0.0
C295 C 0.37126 0.93881 0.71497 0.0
C296 C 0.36845 0.98846 0.92408 0.0
C297 C 0.35827 0.97985 0.89709 0.0
C298 C 0.36841 0.93729 0.83543 0.0
C299 C 0.35068 0.94744 0.75977 0.0
C300 C 0.35304 0.9508 0.79084 0.0
C301 C 0.37389 0.96772 0.87843 0.0
C302 C 0.36452 0.96074 0.84887 0.0
H303 H 0.308 0.9527 0.70526 0.0
H304 H 0.31043 0.95686 0.75676 0.0
H305 H 0.3666 0.91448 0.79679 0.0
H306 H 0.42958 0.96909 0.92101 0.0
H307 H 0.41224 0.9547 0.87376 0.0
C308 C 0.64355 0.43673 0.78803 0.0
C309 C 0.63617 0.44196 0.81579 0.0
C310 C 0.63453 0.44942 0.76541 0.0
C311 C 0.60158 0.50493 0.74718 0.0
H312 H 0.57471 0.45911 0.68162 0.0
C313 C 0.53009 0.53333 0.66297 0.0
C314 C 0.53417 0.52707 0.63445 0.0
C315 C 0.5445 0.52424 0.68442 0.0
C316 C 0.58243 0.47237 0.69955 0.0
H317 H 0.61396 0.46469 0.84191 0.0
H318 H 0.59825 0.48697 0.80271 0.0
H319 H 0.59736 0.44208 0.71982 0.0
H320 H 0.55706 0.50643 0.60636 0.0
H321 H 0.58212 0.49062 0.64366 0.0
H322 H 0.5862 0.53507 0.72702 0.0
C323 C 0.61143 0.47351 0.79814 0.0
C324 C 0.59555 0.46259 0.72155 0.0
C325 C 0.62049 0.46081 0.82071 0.0
C326 C 0.55316 0.51151 0.62803 0.0
C327 C 0.56751 0.50234 0.64951 0.0
C328 C 0.5884 0.51469 0.72519 0.0
C329 C 0.61766 0.46748 0.77005 0.0
C330 C 0.60517 0.47863 0.74583 0.0
C331 C 0.56341 0.50856 0.67806 0.0
C332 C 0.57842 0.49849 0.70112 0.0
H333 H 0.65521 0.42188 0.78367 0.0
H334 H 0.6402 0.44454 0.74422 0.0
H335 H 0.60904 0.5181 0.76524 0.0
H336 H 0.51564 0.54522 0.66882 0.0
H337 H 0.54041 0.52917 0.70609 0.0
C338 C 0.90242 0.6865 0.30048 0.0
C339 C 0.87397 0.67406 0.30554 0.0
C340 C 0.91551 0.6802 0.27571 0.0
C341 C 0.89963 0.6443 0.20502 0.0
H342 H 0.97576 0.63715 0.21109 0.0
C343 C 0.94655 0.57796 0.12852 0.0
C344 C 0.9741 0.58854 0.11868 0.0
C345 C 0.93507 0.59186 0.14923 0.0
C346 C 0.9546 0.63935 0.20895 0.0
H347 H 0.8368 0.64552 0.28915 0.0
H348 H 0.85934 0.63405 0.2466 0.0
H349 H 0.95457 0.65556 0.25097 0.0
H350 H 0.01113 0.62219 0.12257 0.0
H351 H 0.99124 0.64624 0.15933 0.0
H352 H 0.89934 0.62685 0.16343 0.0
C353 C 0.87169 0.64926 0.26089 0.0
C354 C 0.94242 0.65005 0.23181 0.0
C355 C 0.85869 0.65573 0.28541 0.0
C356 C 0.98982 0.61354 0.12974 0.0
C357 C 0.9785 0.62724 0.15087 0.0
C358 C 0.91165 0.63325 0.18238 0.0
C359 C 0.90042 0.66109 0.25573 0.0
C360 C 0.91454 0.65227 0.2304 0.0
C361 C 0.95102 0.61648 0.16095 0.0
C362 C 0.93913 0.63028 0.18419 0.0
H363 H 0.91469 0.70051 0.31594 0.0
H364 H 0.93753 0.69005 0.27244 0.0
H365 H 0.87843 0.64628 0.20266 0.0
H366 H 0.93393 0.55876 0.12038 0.0
H367 H 0.91393 0.58292 0.15667 0.0
C368 C 0.354 0.23586 0.22069 0.0
C369 C 0.36585 0.26339 0.22671 0.0
C370 C 0.3709 0.2191 0.21244 0.0
C371 C 0.43896 0.22003 0.17988 0.0
H372 H 0.42074 0.14623 0.20476 0.0
C373 C 0.49925 0.14381 0.13949 0.0
C374 C 0.48193 0.11892 0.12986 0.0
C375 C 0.48792 0.16184 0.15523 0.0
C376 C 0.42606 0.16677 0.1976 0.0
H377 H 0.4049 0.29488 0.22885 0.0
H378 H 0.43463 0.26544 0.21428 0.0
H379 H 0.39602 0.17759 0.22518 0.0
H380 H 0.43939 0.09304 0.13013 0.0
H381 H 0.41971 0.12441 0.1576 0.0
H382 H 0.46865 0.20899 0.1519 0.0
C383 C 0.41212 0.25694 0.21587 0.0
C384 C 0.41189 0.18473 0.20926 0.0
C385 C 0.39512 0.27379 0.22419 0.0
C386 C 0.4533 0.11204 0.13719 0.0
C387 C 0.44205 0.12997 0.15308 0.0
C388 C 0.45322 0.20206 0.16828 0.0
C389 C 0.40016 0.22939 0.20991 0.0
C390 C 0.41767 0.21138 0.20003 0.0
C391 C 0.45912 0.15524 0.16188 0.0
C392 C 0.44644 0.17507 0.17655 0.0
H393 H 0.33146 0.2273 0.22174 0.0
H394 H 0.3609 0.19815 0.20734 0.0
H395 H 0.44375 0.24034 0.17212 0.0
H396 H 0.52142 0.14973 0.13424 0.0
H397 H 0.50164 0.18106 0.16196 0.0
C398 C 0.25879 0.96533 0.58025 0.0
C399 C 0.27403 0.97908 0.6033 0.0
C400 C 0.23172 0.96766 0.57497 0.0
C401 C 0.17125 0.98799 0.60587 0.0
H402 H 0.1586 1.00473 0.52869 0.0
C403 C 0.07856 0.03014 0.57249 0.0
C404 C 0.06687 1.0227 0.54567 0.0
C405 C 0.10207 1.02192 0.58099 0.0
C406 C 0.16148 0.99958 0.55023 0.0
H407 H 0.2734 1.00524 0.6396 0.0
H408 H 0.22574 1.0095 0.6304 0.0
H409 H 0.20266 0.99526 0.54123 0.0
H410 H 0.06932 0.99968 0.5073 0.0
H411 H 0.10982 0.98466 0.52232 0.0
H412 H 0.12996 0.99238 0.61483 0.0
C413 C 0.23455 0.99677 0.61649 0.0
C414 C 0.18682 0.99422 0.55743 0.0
C415 C 0.26175 0.99448 0.62169 0.0
C416 C 0.07822 1.00598 0.52795 0.0
C417 C 0.1015 0.99752 0.53653 0.0
C418 C 0.14571 0.99317 0.59861 0.0
C419 C 0.21951 0.98381 0.59273 0.0
C420 C 0.19204 0.98848 0.58531 0.0
C421 C 0.11411 1.00588 0.56289 0.0
C422 C 0.1406 0.99915 0.5707 0.0
H423 H 0.26805 0.95327 0.56593 0.0
H424 H 0.22048 0.95715 0.55674 0.0
H425 H 0.17466 0.98342 0.62749 0.0
H426 H 0.07011 0.04299 0.58658 0.0
H427 H 0.11136 0.02894 0.60131 0.0
C428 C 0.74414 0.40815 0.92071 0.0
C429 C 0.72279 0.42078 0.91463 0.0
C430 C 0.76988 0.42285 0.93205 0.0
C431 C 0.81724 0.49146 0.94335 0.0
H432 H 0.84562 0.45755 1.00448 0.0
C433 C 0.91673 0.54646 1.00903 0.0
C434 C 0.93467 0.53084 1.01755 0.0
C435 C 0.89069 0.53427 0.99623 0.0
C436 C 0.83833 0.46727 0.9872 0.0
H437 H 0.71262 0.45931 0.91466 0.0
H438 H 0.75787 0.48513 0.93428 0.0
H439 H 0.80154 0.43449 0.98182 0.0
H440 H 0.93919 0.49004 1.01871 0.0
H441 H 0.89449 0.46905 0.99619 0.0
H442 H 0.85432 0.52418 0.94864 0.0
C443 C 0.75451 0.4637 0.93027 0.0
C444 C 0.81289 0.45399 0.97419 0.0
C445 C 0.72856 0.4489 0.91894 0.0
C446 C 0.92593 0.50278 1.01273 0.0
C447 C 0.90006 0.49065 0.99989 0.0
C448 C 0.84287 0.50475 0.95633 0.0
C449 C 0.77528 0.45073 0.9376 0.0
C450 C 0.80207 0.46571 0.95187 0.0
C451 C 0.88189 0.50612 0.99157 0.0
C452 C 0.85397 0.49271 0.97828 0.0
H453 H 0.7408 0.38667 0.91706 0.0
H454 H 0.78558 0.41224 0.9367 0.0
H455 H 0.80965 0.50107 0.92616 0.0
H456 H 0.92271 0.56813 1.01238 0.0
H457 H 0.87727 0.5469 0.99041 0.0
C458 C 0.76474 0.65559 0.43315 0.0
C459 C 0.77213 0.68254 0.42461 0.0
C460 C 0.73938 0.64489 0.44729 0.0
C461 C 0.68437 0.66498 0.4897 0.0
H462 H 0.64044 0.59203 0.47259 0.0
C463 C 0.56705 0.59114 0.51549 0.0
C464 C 0.56556 0.59678 0.54451 0.0
C465 C 0.59221 0.60092 0.50062 0.0
C466 C 0.65235 0.6125 0.47751 0.0
H467 H 0.75818 0.71917 0.42404 0.0
H468 H 0.71407 0.70057 0.44878 0.0
H469 H 0.68392 0.61071 0.44673 0.0
H470 H 0.58938 0.61653 0.58081 0.0
H471 H 0.63321 0.63343 0.55502 0.0
H472 H 0.65267 0.66694 0.5202 0.0
C473 C 0.72809 0.68779 0.44484 0.0
C474 C 0.67746 0.62313 0.46288 0.0
C475 C 0.75343 0.69848 0.43065 0.0
C476 C 0.58982 0.61199 0.55842 0.0
C477 C 0.61491 0.62182 0.54358 0.0
C478 C 0.65935 0.65433 0.50439 0.0
C479 C 0.72072 0.66084 0.45338 0.0
C480 C 0.69383 0.64952 0.46879 0.0
C481 C 0.61641 0.61663 0.51443 0.0
C482 C 0.64301 0.62793 0.49855 0.0
H483 H 0.77879 0.64282 0.42934 0.0
H484 H 0.73465 0.6242 0.45394 0.0
H485 H 0.69652 0.68527 0.49504 0.0
H486 H 0.54867 0.5795 0.50419 0.0
H487 H 0.59251 0.59669 0.47816 0.0
C488 C 0.26543 0.35413 0.19584 0.0
C489 C 0.2912 0.37071 0.20516 0.0
C490 C 0.24371 0.36541 0.18828 0.0
C491 C 0.21812 0.42662 0.19612 0.0
H492 H 0.17747 0.39926 0.12733 0.0
C493 C 0.13905 0.47758 0.14541 0.0
C494 C 0.1144 0.46048 0.13376 0.0
C495 C 0.16069 0.46704 0.15496 0.0
C496 C 0.18835 0.40693 0.14678 0.0
H497 H 0.31491 0.4117 0.21448 0.0
H498 H 0.27687 0.43167 0.2012 0.0
H499 H 0.21475 0.37996 0.14295 0.0
H500 H 0.09336 0.41886 0.12295 0.0
H501 H 0.1306 0.4005 0.14027 0.0
H502 H 0.19158 0.45355 0.19997 0.0
C503 C 0.27325 0.40998 0.19991 0.0
C504 C 0.20974 0.39586 0.15573 0.0
C505 C 0.29501 0.39864 0.2074 0.0
C506 C 0.11185 0.43261 0.13212 0.0
C507 C 0.13341 0.4221 0.14171 0.0
C508 C 0.19661 0.43767 0.18721 0.0
C509 C 0.24746 0.39349 0.18994 0.0
C510 C 0.22481 0.40549 0.18055 0.0
C511 C 0.15819 0.43917 0.15307 0.0
C512 C 0.18138 0.42785 0.16248 0.0
H513 H 0.26221 0.33248 0.19407 0.0
H514 H 0.22398 0.35214 0.18107 0.0
H515 H 0.22919 0.43431 0.21547 0.0
H516 H 0.1416 0.49912 0.14723 0.0
H517 H 0.17958 0.48079 0.16339 0.0
C518 C 0.61446 0.33015 0.93439 0.0
C519 C 0.64312 0.33743 0.92699 0.0
C520 C 0.60222 0.30537 0.94665 0.0
C521 C 0.6184 0.24845 0.9841 0.0
H522 H 0.54309 0.21068 0.95999 0.0
C523 C 0.56184 0.13936 1.01897 0.0
C524 C 0.53302 0.13433 0.02526 0.0
C525 C 0.57643 0.16382 1.00707 0.0
C526 C 0.56401 0.22102 0.96724 0.0
H527 H 0.68144 0.3242 0.92727 0.0
H528 H 0.66009 0.28087 0.94866 0.0
H529 H 0.56625 0.25367 0.93958 0.0
H530 H 0.49708 0.1512 1.0245 0.0
H531 H 0.52231 0.19361 1.00405 0.0
H532 H 0.616 0.21559 1.01181 0.0
C533 C 0.64709 0.29452 0.94516 0.0
C534 C 0.57734 0.24579 0.95551 0.0
C535 C 0.65937 0.31941 0.93287 0.0
C536 C 0.51922 0.15433 1.01969 0.0
C537 C 0.5337 0.17864 1.00778 0.0
C538 C 0.60502 0.22357 0.99586 0.0
C539 C 0.61824 0.287 0.95192 0.0
C540 C 0.6046 0.26006 0.96396 0.0
C541 C 0.56247 0.18373 1.00111 0.0
C542 C 0.57749 0.20965 0.98781 0.0
H543 H 0.60137 0.34371 0.93078 0.0
H544 H 0.58013 0.30068 0.95215 0.0
H545 H 0.63929 0.25889 0.99133 0.0
H546 H 0.57307 0.12434 1.02309 0.0
H547 H 0.59851 0.16692 1.00208 0.0
C548 C 0.86435 0.76335 0.44046 0.0
C549 C 0.85901 0.75788 0.41156 0.0
C550 C 0.8788 0.78909 0.45021 0.0
C551 C 0.89409 0.86045 0.43246 0.0
H552 H 0.94908 0.86987 0.4924 0.0
C553 C 0.95287 0.96641 0.47731 0.0
C554 C 0.95881 0.969 0.50635 0.0
C555 C 0.94195 0.94098 0.46446 0.0
C556 C 0.93351 0.86766 0.47593 0.0
H557 H 0.86519 0.77501 0.37012 0.0
H558 H 0.89042 0.82041 0.38723 0.0
H559 H 0.92886 0.82513 0.47191 0.0
H560 H 0.95734 0.9467 0.5447 0.0
H561 H 0.93767 0.90261 0.52258 0.0
H562 H 0.8981 0.90284 0.43694 0.0
C563 C 0.8833 0.80464 0.40232 0.0
C564 C 0.92202 0.84195 0.46405 0.0
C565 C 0.86909 0.77865 0.39249 0.0
C566 C 0.9532 0.94552 0.52226 0.0
C567 C 0.9421 0.92013 0.50947 0.0
C568 C 0.90541 0.88619 0.4445 0.0
C569 C 0.88813 0.81019 0.43136 0.0
C570 C 0.90195 0.83794 0.44237 0.0
C571 C 0.9365 0.91741 0.48032 0.0
C572 C 0.92509 0.89015 0.46665 0.0
H573 H 0.85697 0.74771 0.45565 0.0
H574 H 0.8819 0.79265 0.4727 0.0
H575 H 0.87843 0.85804 0.41602 0.0
H576 H 0.95708 0.98403 0.46434 0.0
H577 H 0.93831 0.93982 0.44194 0.0
C578 C 0.39538 0.89425 0.61983 0.0
C579 C 0.36955 0.89826 0.61146 0.0
C580 C 0.40449 0.87264 0.60864 0.0
C581 C 0.37612 0.80442 0.58366 0.0
H582 H 0.45361 0.808 0.56423 0.0
C583 C 0.41344 0.70785 0.57136 0.0
C584 C 0.43906 0.70886 0.58468 0.0
C585 C 0.40545 0.73153 0.56679 0.0
C586 C 0.4319 0.80663 0.56968 0.0
H587 H 0.33337 0.8836 0.58428 0.0
H588 H 0.34913 0.84525 0.56499 0.0
H589 H 0.43879 0.84955 0.57036 0.0
H590 H 0.47669 0.73527 0.60309 0.0
H591 H 0.46251 0.77647 0.59595 0.0
H592 H 0.36945 0.76177 0.58486 0.0
C593 C 0.36235 0.85899 0.58004 0.0
C594 C 0.42342 0.83041 0.57301 0.0
C595 C 0.35342 0.8809 0.59095 0.0
C596 C 0.45694 0.73397 0.59254 0.0
C597 C 0.44883 0.7576 0.58827 0.0
C598 C 0.38465 0.78066 0.58067 0.0
C599 C 0.38776 0.85446 0.58914 0.0
C600 C 0.39565 0.82952 0.58078 0.0
C601 C 0.42277 0.75666 0.57576 0.0
C602 C 0.41284 0.78152 0.57445 0.0
H603 H 0.40821 0.9075 0.63552 0.0
H604 H 0.42401 0.86944 0.61626 0.0
H605 H 0.35464 0.80319 0.58996 0.0
H606 H 0.39948 0.68871 0.56474 0.0
H607 H 0.38547 0.73009 0.55664 0.0
C608 C 0.73592 0.86571 0.84579 0.0
C609 C 0.73248 0.83771 0.84446 0.0
C610 C 0.75069 0.88203 0.82459 0.0
C611 C 0.78123 0.87976 0.75249 0.0
H612 H 0.83669 0.94354 0.77958 0.0
C613 C 0.86368 0.94483 0.67808 0.0
C614 C 0.89123 0.95386 0.68869 0.0
C615 C 0.84128 0.93318 0.69586 0.0
C616 C 0.82139 0.92574 0.77166 0.0
H617 H 0.73998 0.80468 0.81893 0.0
H618 H 0.76623 0.83297 0.78257 0.0
H619 H 0.80187 0.91823 0.81204 0.0
H620 H 0.9166 0.95819 0.72655 0.0
H621 H 0.87789 0.937 0.75719 0.0
H622 H 0.80181 0.88637 0.71251 0.0
C623 C 0.75746 0.84249 0.79971 0.0
C624 C 0.8011 0.91144 0.7902 0.0
C625 C 0.74269 0.82625 0.82078 0.0
C626 C 0.89576 0.95109 0.71753 0.0
C627 C 0.87343 0.93933 0.73524 0.0
C628 C 0.80166 0.89396 0.73399 0.0
C629 C 0.76224 0.87065 0.80164 0.0
C630 C 0.78117 0.8879 0.78102 0.0
C631 C 0.84589 0.9302 0.72466 0.0
C632 C 0.8224 0.91677 0.74351 0.0
H633 H 0.72831 0.87513 0.86379 0.0
H634 H 0.75362 0.90361 0.82652 0.0
H635 H 0.76591 0.86198 0.74457 0.0
H636 H 0.85944 0.94644 0.65594 0.0
H637 H 0.82032 0.92659 0.68702 0.0
C638 C 0.73192 0.22954 0.40729 0.0
C639 C 0.75313 0.25359 0.40444 0.0
C640 C 0.71184 0.22068 0.38618 0.0
C641 C 0.68242 0.23988 0.32028 0.0
H642 H 0.67327 0.16452 0.30015 0.0
C643 C 0.64287 0.19212 0.21127 0.0
C644 C 0.62673 0.16519 0.21027 0.0
C645 C 0.6539 0.20434 0.23686 0.0
C646 C 0.67508 0.18546 0.30573 0.0
H647 H 0.76904 0.28806 0.37816 0.0
H648 H 0.73414 0.27239 0.34092 0.0
H649 H 0.69987 0.18362 0.34189 0.0
H650 H 0.60785 0.13054 0.23541 0.0
H651 H 0.62681 0.15189 0.28007 0.0
H652 H 0.65809 0.24169 0.28345 0.0
C653 C 0.73281 0.26051 0.35962 0.0
C654 C 0.69037 0.19645 0.32974 0.0
C655 C 0.75283 0.26948 0.3809 0.0
C656 C 0.62069 0.15116 0.23549 0.0
C657 C 0.63157 0.16339 0.26105 0.0
C658 C 0.66704 0.22884 0.29615 0.0
C659 C 0.71266 0.23556 0.36163 0.0
C660 C 0.69444 0.22383 0.33721 0.0
C661 C 0.6489 0.18988 0.26194 0.0
C662 C 0.66343 0.20153 0.28849 0.0
H663 H 0.73141 0.21715 0.42548 0.0
H664 H 0.69618 0.2017 0.38868 0.0
H665 H 0.68499 0.261 0.3256 0.0
H666 H 0.64799 0.20337 0.19212 0.0
H667 H 0.66738 0.22468 0.23676 0.0
C668 C 0.38901 0.66765 0.30595 0.0
C669 C 0.38078 0.6915 0.3109 0.0
C670 C 0.39492 0.65295 0.32857 0.0
C671 C 0.3885 0.64581 0.40704 0.0
H672 H 0.45425 0.61831 0.39776 0.0
C673 C 0.44319 0.60984 0.5015 0.0
C674 C 0.45419 0.5874 0.49696 0.0
C675 C 0.43245 0.62132 0.479 0.0
C676 C 0.43561 0.6255 0.4007 0.0
H677 H 0.37188 0.71861 0.34313 0.0
H678 H 0.38208 0.69311 0.38265 0.0
H679 H 0.43772 0.63934 0.35843 0.0
H680 H 0.46198 0.5593 0.46494 0.0
H681 H 0.44315 0.57904 0.42604 0.0
H682 H 0.38669 0.63221 0.44952 0.0
C683 C 0.38354 0.6853 0.36144 0.0
C684 C 0.42603 0.63757 0.378 0.0
C685 C 0.37761 0.69994 0.3388 0.0
C686 C 0.45385 0.57662 0.46935 0.0
C687 C 0.44316 0.5881 0.4469 0.0
C688 C 0.39812 0.63373 0.42979 0.0
C689 C 0.39298 0.66192 0.35669 0.0
C690 C 0.40235 0.64799 0.38078 0.0
C691 C 0.43246 0.61074 0.45129 0.0
C692 C 0.42187 0.62343 0.427 0.0
H693 H 0.39203 0.66097 0.28459 0.0
H694 H 0.40165 0.63486 0.32396 0.0
H695 H 0.37002 0.65325 0.41 0.0
H696 H 0.44312 0.61877 0.52242 0.0
H697 H 0.4247 0.63889 0.48326 0.0
C698 C 0.10633 0.41702 0.82982 0.0
C699 C 0.13207 0.42611 0.81579 0.0
C700 C 0.09824 0.43291 0.85097 0.0
C701 C 0.11054 0.50234 0.88026 0.0
H702 H 0.07732 0.46581 0.94754 0.0
C703 C 0.08168 0.56072 0.97769 0.0
C704 C 0.0566 0.5488 0.99198 0.0
C705 C 0.09225 0.54624 0.95676 0.0
C706 C 0.08621 0.47636 0.92881 0.0
H707 H 0.16956 0.45899 0.81235 0.0
H708 H 0.15529 0.48726 0.84938 0.0
H709 H 0.09297 0.44044 0.90958 0.0
H710 H 0.02309 0.5122 0.99573 0.0
H711 H 0.04118 0.48704 0.95906 0.0
H712 H 0.10337 0.53822 0.89933 0.0
C713 C 0.14126 0.46781 0.84393 0.0
C714 C 0.09528 0.46177 0.907 0.0
C715 C 0.14947 0.45171 0.82277 0.0
C716 C 0.04254 0.52193 0.98519 0.0
C717 C 0.05304 0.50746 0.96421 0.0
C718 C 0.10131 0.51696 0.90206 0.0
C719 C 0.11572 0.45837 0.85864 0.0
C720 C 0.10732 0.47447 0.8823 0.0
C721 C 0.07798 0.51944 0.94952 0.0
C722 C 0.08878 0.50413 0.92659 0.0
H723 H 0.09263 0.39727 0.82483 0.0
H724 H 0.07825 0.42515 0.86144 0.0
H725 H 0.1195 0.51274 0.86147 0.0
H726 H 0.09308 0.58137 0.98253 0.0
H727 H 0.11172 0.55607 0.94635 0.0
C728 C 0.61111 0.85269 0.92579 0.0
C729 C 0.64008 0.85562 0.92323 0.0
C730 C 0.60089 0.87516 0.93186 0.0
C731 C 0.62308 0.94183 0.96664 0.0
H732 H 0.55342 0.95121 0.93646 0.0
C733 C 0.5797 0.03005 1.00485 0.0
C734 C 0.55082 0.02367 1.01115 0.0
C735 C 0.59112 1.01183 0.98959 0.0
C736 C 0.57283 0.9488 0.9452 0.0
H737 H 0.68123 0.88378 0.92395 0.0
H738 H 0.66347 0.92332 0.93436 0.0
H739 H 0.57259 0.91501 0.91765 0.0
H740 H 0.51108 0.99357 1.00525 0.0
H741 H 0.53108 0.9616 0.97912 0.0
H742 H 0.62302 0.97496 0.99474 0.0
C743 C 0.64858 0.90375 0.93197 0.0
C744 C 0.58383 0.92808 0.93439 0.0
C745 C 0.65875 0.88125 0.92585 0.0
C746 C 0.53343 0.99913 1.00078 0.0
C747 C 0.54489 0.98083 0.98564 0.0
C748 C 0.61207 0.96245 0.97749 0.0
C749 C 0.61955 0.90089 0.93559 0.0
C750 C 0.60892 0.92418 0.94523 0.0
C751 C 0.57399 0.9867 0.9804 0.0
C752 C 0.58664 0.96602 0.96715 0.0
H753 H 0.59645 0.83294 0.92401 0.0
H754 H 0.57847 0.87219 0.93482 0.0
H755 H 0.64217 0.93911 0.97583 0.0
H756 H 0.59367 0.04889 1.01227 0.0
H757 H 0.61352 1.01725 0.98544 0.0
C758 C 0.81098 0.20005 0.46432 0.0
C759 C 0.82761 0.22567 0.45725 0.0
C760 C 0.82348 0.18021 0.47301 0.0
C761 C 0.89032 0.16056 0.47245 0.0
H762 H 0.85892 0.1202 0.53824 0.0
C763 C 0.92585 0.09182 0.56055 0.0
C764 C 0.93697 0.07468 0.54314 0.0
C765 C 0.911 0.10859 0.54888 0.0
C766 C 0.86795 0.13135 0.51988 0.0
H767 H 0.87038 0.25038 0.45304 0.0
H768 H 0.89226 0.21578 0.46865 0.0
H769 H 0.8364 0.15308 0.51965 0.0
H770 H 0.94096 0.06107 0.50007 0.0
H771 H 0.91491 0.0904 0.4796 0.0
H772 H 0.92231 0.13931 0.47317 0.0
C773 C 0.86955 0.21101 0.46725 0.0
C774 C 0.8549 0.14997 0.50907 0.0
C775 C 0.85703 0.23089 0.45861 0.0
C776 C 0.93263 0.0742 0.51392 0.0
C777 C 0.91787 0.09106 0.50222 0.0
C778 C 0.90333 0.14187 0.48322 0.0
C779 C 0.85288 0.18555 0.47478 0.0
C780 C 0.86609 0.16494 0.48539 0.0
C781 C 0.90708 0.10855 0.51958 0.0
C782 C 0.89242 0.12727 0.50722 0.0
H783 H 0.78824 0.1955 0.46374 0.0
H784 H 0.81011 0.16069 0.47842 0.0
H785 H 0.89925 0.17163 0.45402 0.0
H786 H 0.92901 0.09261 0.58315 0.0
H787 H 0.90322 0.12209 0.56276 0.0
C788 C 0.28506 0.69699 0.22026 0.0
C789 C 0.30476 0.71623 0.20472 0.0
C790 C 0.25966 0.6821 0.20791 0.0
C791 C 0.20845 0.68712 0.15542 0.0
H792 H 0.18629 0.60919 0.1489 0.0
C793 C 0.11249 0.63281 0.08759 0.0
C794 C 0.09653 0.60699 0.09481 0.0
C795 C 0.13782 0.64501 0.10144 0.0
C796 C 0.19171 0.63094 0.15092 0.0
H797 H 0.31329 0.73318 0.16305 0.0
H798 H 0.26872 0.70851 0.14246 0.0
H799 H 0.22977 0.63201 0.17346 0.0
H800 H 0.09482 0.57375 0.12244 0.0
H801 H 0.13812 0.5954 0.14754 0.0
H802 H 0.17032 0.68654 0.13411 0.0
C803 C 0.27296 0.70509 0.16422 0.0
C804 C 0.21681 0.64398 0.16494 0.0
C805 C 0.29848 0.71946 0.17626 0.0
C806 C 0.10666 0.59362 0.11621 0.0
C807 C 0.13173 0.60607 0.13053 0.0
C808 C 0.18312 0.67415 0.14201 0.0
C809 C 0.25316 0.68642 0.17991 0.0
C810 C 0.22562 0.67223 0.16696 0.0
C811 C 0.14775 0.63208 0.1235 0.0
C812 C 0.17445 0.64581 0.13904 0.0
H813 H 0.28885 0.69388 0.24219 0.0
H814 H 0.24471 0.66781 0.22049 0.0
H815 H 0.2146 0.70894 0.15692 0.0
H816 H 0.10551 0.64358 0.07098 0.0
H817 H 0.14966 0.6646 0.09456 0.0
C818 C 0.23381 0.42843 0.71791 0.0
C819 C 0.20959 0.4166 0.7019 0.0
C820 C 0.25847 0.44328 0.70485 0.0
C821 C 0.29373 0.44798 0.63568 0.0
H822 H 0.34434 0.51289 0.66707 0.0
C823 C 0.39155 0.50433 0.57393 0.0
C824 C 0.41655 0.51517 0.58896 0.0
C825 C 0.36605 0.49463 0.58812 0.0
C826 C 0.33061 0.49461 0.65814 0.0
H827 H 0.19179 0.4129 0.65989 0.0
H828 H 0.23458 0.43866 0.63724 0.0
H829 H 0.30025 0.49236 0.69134 0.0
H830 H 0.43437 0.525 0.63068 0.0
H831 H 0.38996 0.50748 0.65561 0.0
H832 H 0.32404 0.44963 0.60291 0.0
C833 C 0.23478 0.43599 0.65978 0.0
C834 C 0.30528 0.48288 0.67205 0.0
C835 C 0.2102 0.42126 0.6728 0.0
C836 C 0.41542 0.51672 0.61853 0.0
C837 C 0.38989 0.5068 0.6328 0.0
C838 C 0.31903 0.45955 0.62191 0.0
C839 C 0.25948 0.44657 0.67548 0.0
C840 C 0.28644 0.45948 0.6609 0.0
C841 C 0.36487 0.49526 0.61779 0.0
C842 C 0.33784 0.48312 0.63281 0.0
H843 H 0.23418 0.42507 0.74031 0.0
H844 H 0.27712 0.45106 0.71758 0.0
H845 H 0.28007 0.42963 0.62678 0.0
H846 H 0.3917 0.50313 0.55112 0.0
H847 H 0.34722 0.48654 0.57574 0.0
C848 C 0.7508 0.75076 0.89078 0.0
C849 C 0.73853 0.76539 0.91026 0.0
C850 C 0.76846 0.73543 0.8999 0.0
C851 C 0.79093 0.70427 0.96176 0.0
H852 H 0.86207 0.7177 0.92191 0.0
C853 C 0.88807 0.67525 1.0057 0.0
C854 C 0.9063 0.66722 0.98644 0.0
C855 C 0.86549 0.68439 0.99614 0.0
C856 C 0.84217 0.71326 0.93301 0.0
H857 H 0.73418 0.77433 0.95471 0.0
H858 H 0.76486 0.74728 0.97067 0.0
H859 H 0.82572 0.73781 0.9057 0.0
H860 H 0.91443 0.66117 0.94216 0.0
H861 H 0.87474 0.67651 0.92542 0.0
H862 H 0.80746 0.67971 0.98913 0.0
C863 C 0.76072 0.74767 0.94833 0.0
C864 C 0.82132 0.72487 0.92371 0.0
C865 C 0.74311 0.76314 0.93919 0.0
C866 C 0.90098 0.66767 0.95747 0.0
C867 C 0.87828 0.67654 0.94791 0.0
C868 C 0.81176 0.69245 0.97097 0.0
C869 C 0.77416 0.73424 0.92872 0.0
C870 C 0.79554 0.72064 0.93805 0.0
C871 C 0.86051 0.68546 0.9671 0.0
C872 C 0.83773 0.69695 0.95679 0.0
H873 H 0.74723 0.75163 0.86838 0.0
H874 H 0.7781 0.72488 0.88433 0.0
H875 H 0.77118 0.70049 0.9731 0.0
H876 H 0.89183 0.67533 0.02816 0.0
H877 H 0.85251 0.69142 1.01153 0.0
C878 C 0.39583 0.82495 0.22487 0.0
C879 C 0.3811 0.80365 0.20708 0.0
C880 C 0.40887 0.85027 0.21407 0.0
C881 C 0.41032 0.89376 0.15227 0.0
H882 H 0.48466 0.93019 0.18017 0.0
C883 C 0.4694 1.00291 0.12076 0.0
C884 C 0.4984 1.00782 0.11548 0.0
C885 C 0.45421 0.97836 0.13198 0.0
C886 C 0.46397 0.92027 0.172 0.0
H887 H 0.36852 0.79276 0.16375 0.0
H888 H 0.39105 0.8369 0.14499 0.0
H889 H 0.4598 0.88697 0.19928 0.0
H890 H 0.53412 0.99073 0.11756 0.0
H891 H 0.50781 0.94811 0.13701 0.0
H892 H 0.4148 0.92695 0.12462 0.0
C893 C 0.39229 0.83405 0.16742 0.0
C894 C 0.44953 0.89556 0.18323 0.0
C895 C 0.37931 0.80868 0.17822 0.0
C896 C 0.51183 0.98765 0.12154 0.0
C897 C 0.49674 0.96323 0.13286 0.0
C898 C 0.42473 0.91859 0.14113 0.0
C899 C 0.40752 0.85514 0.18514 0.0
C900 C 0.42255 0.88185 0.17347 0.0
C901 C 0.46773 0.95822 0.13833 0.0
C902 C 0.45186 0.93212 0.15071 0.0
H903 H 0.39727 0.82209 0.24728 0.0
H904 H 0.41993 0.86611 0.22848 0.0
H905 H 0.38949 0.88396 0.14439 0.0
H906 H 0.45845 1.01806 0.11628 0.0
H907 H 0.43197 0.97533 0.13611 0.0
C908 C 0.13372 0.30183 0.71184 0.0
C909 C 0.13927 0.32616 0.69734 0.0
C910 C 0.12234 0.27713 0.69778 0.0
C911 C 0.11149 0.24448 0.62623 0.0
H912 H 0.05642 0.18905 0.66495 0.0
C913 C 0.04747 0.14568 0.57016 0.0
C914 C 0.04291 0.1217 0.58517 0.0
C915 C 0.05981 0.17069 0.5833 0.0
C916 C 0.072 0.20418 0.6539 0.0
H917 H 0.13698 0.34343 0.65656 0.0
H918 H 0.11691 0.30041 0.63208 0.0
H919 H 0.07641 0.23232 0.68867 0.0
H920 H 0.04817 0.10535 0.62582 0.0
H921 H 0.06971 0.14879 0.64861 0.0
H922 H 0.10681 0.21627 0.59135 0.0
C923 C 0.12179 0.30036 0.65427 0.0
C924 C 0.08353 0.22906 0.66755 0.0
C925 C 0.13327 0.32508 0.66833 0.0
C926 C 0.05128 0.12335 0.61357 0.0
C927 C 0.06348 0.14834 0.62673 0.0
C928 C 0.09986 0.21959 0.61253 0.0
C929 C 0.11608 0.276 0.66881 0.0
C930 C 0.10354 0.24956 0.65398 0.0
C931 C 0.06775 0.17238 0.61185 0.0
C932 C 0.08005 0.19905 0.62624 0.0
H933 H 0.13856 0.3018 0.73405 0.0
H934 H 0.11882 0.25884 0.70963 0.0
H935 H 0.12711 0.25957 0.61519 0.0
H936 H 0.04127 0.14522 0.54827 0.0
H937 H 0.06254 0.18877 0.57124 0.0
C938 C 0.78212 0.37377 0.47588 0.0
C939 C 0.78045 0.34761 0.48449 0.0
C940 C 0.76155 0.38658 0.48442 0.0
C941 C 0.68814 0.37155 0.50871 0.0
H942 H 0.70716 0.44797 0.52775 0.0
C943 C 0.60329 0.42603 0.53922 0.0
C944 C 0.60524 0.44997 0.52485 0.0
C945 C 0.62565 0.41397 0.53855 0.0
C946 C 0.70155 0.42662 0.52243 0.0
H947 H 0.75692 0.31411 0.5087 0.0
H948 H 0.72094 0.33651 0.52395 0.0
H949 H 0.74464 0.42585 0.51825 0.0
H950 H 0.63249 0.4808 0.49975 0.0
H951 H 0.67136 0.45965 0.49833 0.0
H952 H 0.64508 0.37241 0.51238 0.0
C953 C 0.7378 0.34713 0.51044 0.0
C954 C 0.72298 0.41398 0.51692 0.0
C955 C 0.75836 0.33438 0.50187 0.0
C956 C 0.6303 0.46215 0.51071 0.0
C957 C 0.65266 0.4502 0.51017 0.0
C958 C 0.66673 0.38418 0.51426 0.0
C959 C 0.73906 0.37332 0.50166 0.0
C960 C 0.71648 0.3864 0.50955 0.0
C961 C 0.65042 0.42577 0.52369 0.0
C962 C 0.6732 0.41194 0.52071 0.0
H963 H 0.7991 0.38416 0.46235 0.0
H964 H 0.76289 0.4066 0.47697 0.0
H965 H 0.68242 0.35035 0.50274 0.0
H966 H 0.58417 0.41618 0.55021 0.0
H967 H 0.62344 0.39526 0.54938 0.0
loop_
_geom_bond_atom_site_label_1
_geom_bond_atom_site_label_2
_geom_bond_distance
_geom_bond_site_symmetry_2
_ccdc_geom_bond_type
H0 C3 0.929 . S
H1 C6 0.929 . S
H2 C8 0.930 . S
C3 H0 0.929 . S
C3 C4 1.398 . S
C3 C5 1.396 . S
C4 C3 1.398 . S
C4 C8 1.407 . S
C5 C3 1.396 . S
C5 C6 1.394 . S
C6 H1 0.929 . S
C6 C5 1.394 . S
C6 C7 1.382 . S
C7 C6 1.382 . S
C7 C8 1.392 . S
C7 N9 1.420 . S
C8 H2 0.930 . S
C8 C4 1.407 . S
C8 C7 1.392 . S
N9 C7 1.420 . S
N9 C10 1.244 . S
C10 N9 1.244 . S
H11 C14 0.929 . S
H12 C17 0.929 . S
H13 C19 0.930 . S
C14 H11 0.929 . S
C14 C15 1.398 . S
C14 C16 1.396 . S
C15 C14 1.398 . S
C15 C19 1.407 . S
C16 C14 1.396 . S
C16 C17 1.394 . S
C17 H12 0.929 . S
C17 C16 1.394 . S
C17 C18 1.382 . S
C18 C17 1.382 . S
C18 C19 1.392 . S
C18 N20 1.420 . S
C19 H13 0.930 . S
C19 C15 1.407 . S
C19 C18 1.392 . S
N20 C18 1.420 . S
N20 C21 1.244 . S
C21 N20 1.244 . S
H22 C25 0.929 . S
H23 C28 0.929 . S
H24 C30 0.930 . S
C25 H22 0.929 . S
C25 C26 1.398 . S
C25 C27 1.396 . S
C26 C25 1.398 . S
C26 C30 1.407 . S
C27 C25 1.396 . S
C27 C28 1.394 . S
C28 H23 0.929 . S
C28 C27 1.394 . S
C28 C29 1.382 . S
C29 C28 1.382 . S
C29 C30 1.392 . S
C29 N31 1.420 . S
C30 H24 0.930 . S
C30 C26 1.407 . S
C30 C29 1.392 . S
N31 C29 1.420 . S
N31 C32 1.244 . S
C32 N31 1.244 . S
H33 C36 0.929 . S
H34 C39 0.929 . S
H35 C41 0.930 . S
C36 H33 0.929 . S
C36 C37 1.398 . S
C36 C38 1.396 . S
C37 C36 1.398 . S
C37 C41 1.407 . S
C38 C36 1.396 . S
C38 C39 1.394 . S
C39 H34 0.929 . S
C39 C38 1.394 . S
C39 C40 1.382 . S
C40 C39 1.382 . S
C40 C41 1.392 . S
C40 N42 1.420 . S
C41 H35 0.930 . S
C41 C37 1.407 . S
C41 C40 1.392 . S
N42 C40 1.420 . S
N42 C43 1.244 . S
C43 N42 1.244 . S
H44 C47 0.929 . S
H45 C50 0.929 . S
H46 C52 0.930 . S
C47 H44 0.929 . S
C47 C48 1.398 . S
C47 C49 1.396 . S
C48 C47 1.398 . S
C48 C52 1.407 . S
C49 C47 1.396 . S
C49 C50 1.394 . S
C50 H45 0.929 . S
C50 C49 1.394 . S
C50 C51 1.382 . S
C51 C50 1.382 . S
C51 C52 1.392 . S
C51 N53 1.420 . S
C52 H46 0.930 . S
C52 C48 1.407 . S
C52 C51 1.392 . S
N53 C51 1.420 . S
N53 C54 1.244 . S
C54 N53 1.244 . S
H55 C58 0.929 . S
H56 C61 0.929 . S
H57 C63 0.930 . S
C58 H55 0.929 . S
C58 C59 1.398 . S
C58 C60 1.396 . S
C59 C58 1.398 . S
C59 C63 1.407 . S
C60 C58 1.396 . S
C60 C61 1.394 . S
C61 H56 0.929 . S
C61 C60 1.394 . S
C61 C62 1.382 . S
C62 C61 1.382 . S
C62 C63 1.392 . S
C62 N64 1.420 . S
C63 H57 0.930 . S
C63 C59 1.407 . S
C63 C62 1.392 . S
N64 C62 1.420 . S
N64 C65 1.244 . S
C65 N64 1.244 . S
H66 C69 0.929 . S
H67 C72 0.929 . S
H68 C74 0.930 . S
C69 H66 0.929 . S
C69 C70 1.398 . S
C69 C71 1.396 . S
C70 C69 1.398 . S
C70 C74 1.407 . S
C71 C69 1.396 . S
C71 C72 1.394 . S
C72 H67 0.929 . S
C72 C71 1.394 . S
C72 C73 1.382 . S
C73 C72 1.382 . S
C73 C74 1.392 . S
C73 N75 1.420 . S
C74 H68 0.930 . S
C74 C70 1.407 . S
C74 C73 1.392 . S
N75 C73 1.420 . S
N75 C76 1.244 . S
C76 N75 1.244 . S
H77 C80 0.929 . S
H78 C83 0.929 . S
H79 C85 0.930 . S
C80 H77 0.929 . S
C80 C81 1.398 . S
C80 C82 1.396 . S
C81 C80 1.398 . S
C81 C85 1.407 . S
C82 C80 1.396 . S
C82 C83 1.394 . S
C83 H78 0.929 . S
C83 C82 1.394 . S
C83 C84 1.382 . S
C84 C83 1.382 . S
C84 C85 1.392 . S
C84 N86 1.420 . S
C85 H79 0.930 . S
C85 C81 1.407 . S
C85 C84 1.392 . S
N86 C84 1.420 . S
N86 C87 1.244 . S
C87 N86 1.244 . S
Gd88 C91 2.818 . S
Gd88 O108 2.377 . S
Gd88 O110 2.448 . S
Gd88 O111 2.506 . S
Gd88 O112 2.435 . S
Gd88 O113 2.717 . S
Gd88 O115 2.395 1_545 S
Gd88 O119 2.327 1_455 S
Gd89 C100 2.818 1_545 S
Gd89 O109 2.395 1_655 S
Gd89 O113 2.327 1_655 S
Gd89 O114 2.377 1_545 S
Gd89 O116 2.443 1_545 S
Gd89 O117 2.506 1_545 S
Gd89 O118 2.435 . S
Gd89 O119 2.717 . S
C90 O108 1.240 . S
C90 O109 1.240 . S
C91 Gd88 2.818 . S
C91 C92 1.510 . S
C91 O110 1.249 . S
C91 O111 1.252 . S
C92 C91 1.510 . S
C92 C93 1.404 . S
C92 C94 1.352 . S
C93 C92 1.404 . S
C93 C97 1.389 . S
C93 H120 0.930 . S
C94 C92 1.352 . S
C94 C96 1.374 . S
C94 H121 0.931 . S
C95 C96 1.359 . S
C95 C97 1.364 . S
C96 C94 1.374 . S
C96 C95 1.359 . S
C96 H122 0.931 . S
C97 C93 1.389 . S
C97 C95 1.364 . S
C97 H123 0.931 . S
C98 O112 1.256 . S
C98 O113 1.257 . S
C99 O114 1.240 . S
C99 O115 1.240 1_655 S
C100 Gd89 2.818 1_565 S
C100 C101 1.510 . S
C100 O116 1.263 . S
C100 O117 1.252 . S
C101 C100 1.510 . S
C101 C102 1.404 . S
C101 C103 1.352 . S
C102 C101 1.404 . S
C102 C106 1.389 . S
C102 H124 0.930 . S
C103 C101 1.352 . S
C103 C105 1.374 . S
C103 H125 0.931 . S
C104 C105 1.359 . S
C104 C106 1.364 . S
C105 C103 1.374 . S
C105 C104 1.359 . S
C105 H126 0.931 . S
C106 C102 1.389 . S
C106 C104 1.364 . S
C106 H127 0.931 . S
C107 O118 1.256 . S
C107 O119 1.257 . S
O108 Gd88 2.377 . S
O108 C90 1.240 . S
O109 Gd89 2.395 1_455 S
O109 C90 1.240 . S
O110 Gd88 2.448 . S
O110 C91 1.249 . S
O111 Gd88 2.506 . S
O111 C91 1.252 . S
O112 Gd88 2.435 . S
O112 C98 1.256 . S
O113 Gd88 2.717 . S
O113 Gd89 2.327 1_455 S
O113 C98 1.257 . S
O114 Gd89 2.377 1_565 S
O114 C99 1.240 . S
O115 Gd88 2.395 1_565 S
O115 C99 1.240 1_455 S
O116 Gd89 2.443 1_565 S
O116 C100 1.263 . S
O117 Gd89 2.506 1_565 S
O117 C100 1.252 . S
O118 Gd89 2.435 . S
O118 C107 1.256 . S
O119 Gd88 2.327 1_655 S
O119 Gd89 2.717 . S
O119 C107 1.257 . S
H120 C93 0.930 . S
H121 C94 0.931 . S
H122 C96 0.931 . S
H123 C97 0.931 . S
H124 C102 0.930 . S
H125 C103 0.931 . S
H126 C105 0.931 . S
H127 C106 0.931 . S
Gd128 C131 2.818 . S
Gd128 O148 2.377 . S
Gd128 O150 2.448 . S
Gd128 O151 2.506 . S
Gd128 O152 2.435 1_545 S
Gd128 O153 2.717 . S
Gd128 O155 2.395 . S
Gd128 O159 2.327 . S
Gd129 C140 2.818 1_544 S
Gd129 O149 2.395 . S
Gd129 O153 2.327 . S
Gd129 O154 2.377 . S
Gd129 O156 2.448 1_554 S
Gd129 O157 2.506 1_544 S
Gd129 O158 2.432 1_554 S
Gd129 O159 2.717 . S
C130 O148 1.240 . S
C130 O149 1.240 . S
C131 Gd128 2.818 . S
C131 C132 1.510 . S
C131 O150 1.249 . S
C131 O151 1.252 . S
C132 C131 1.510 . S
C132 C133 1.404 . S
C132 C134 1.352 . S
C133 C132 1.404 . S
C133 C137 1.389 . S
C133 H160 0.930 . S
C134 C132 1.352 . S
C134 C136 1.374 . S
C134 H161 0.931 . S
C135 C136 1.359 . S
C135 C137 1.364 . S
C136 C134 1.374 . S
C136 C135 1.359 . S
C136 H162 0.931 . S
C137 C133 1.389 . S
C137 C135 1.364 . S
C137 H163 0.931 . S
C138 O152 1.256 . S
C138 O153 1.257 1_565 S
C139 O154 1.240 1_565 S
C139 O155 1.240 1_565 S
C140 Gd129 2.818 1_566 S
C140 C141 1.510 . S
C140 O156 1.249 1_565 S
C140 O157 1.252 . S
C141 C140 1.510 . S
C141 C142 1.404 . S
C141 C143 1.352 . S
C142 C141 1.404 . S
C142 C146 1.389 . S
C142 H164 0.930 1_565 S
C143 C141 1.352 . S
C143 C145 1.374 . S
C143 H165 0.931 . S
C144 C145 1.359 . S
C144 C146 1.364 . S
C145 C143 1.374 . S
C145 C144 1.359 . S
C145 H166 0.931 . S
C146 C142 1.389 . S
C146 C144 1.364 . S
C146 H167 0.931 . S
C147 O158 1.250 1_554 S
C147 O159 1.257 . S
O148 Gd128 2.377 . S
O148 C130 1.240 . S
O149 Gd129 2.395 . S
O149 C130 1.240 . S
O150 Gd128 2.448 . S
O150 C131 1.249 . S
O151 Gd128 2.506 . S
O151 C131 1.252 . S
O152 Gd128 2.435 1_565 S
O152 C138 1.256 . S
O153 Gd128 2.717 . S
O153 Gd129 2.327 . S
O153 C138 1.257 1_545 S
O154 Gd129 2.377 . S
O154 C139 1.240 1_545 S
O155 Gd128 2.395 . S
O155 C139 1.240 1_545 S
O156 Gd129 2.448 1_556 S
O156 C140 1.249 1_545 S
O157 Gd129 2.506 1_566 S
O157 C140 1.252 . S
O158 Gd129 2.432 1_556 S
O158 C147 1.250 1_556 S
O159 Gd128 2.327 . S
O159 Gd129 2.717 . S
O159 C147 1.257 . S
H160 C133 0.930 . S
H161 C134 0.931 . S
H162 C136 0.931 . S
H163 C137 0.931 . S
H164 C142 0.930 1_545 S
H165 C143 0.931 . S
H166 C145 0.931 . S
H167 C146 0.931 . S
Gd168 C171 2.818 . S
Gd168 O188 2.377 . S
Gd168 O190 2.448 . S
Gd168 O191 2.506 . S
Gd168 O192 2.435 . S
Gd168 O193 2.717 . S
Gd168 O195 2.395 . S
Gd168 O199 2.327 . S
Gd169 C180 2.818 . S
Gd169 O189 2.395 . S
Gd169 O193 2.327 . S
Gd169 O194 2.377 . S
Gd169 O196 2.448 . S
Gd169 O197 2.506 . S
Gd169 O198 2.435 . S
Gd169 O199 2.717 . S
C170 O188 1.240 . S
C170 O189 1.240 . S
C171 Gd168 2.818 . S
C171 C172 1.510 . S
C171 O190 1.249 . S
C171 O191 1.252 . S
C172 C171 1.510 . S
C172 C173 1.404 . S
C172 C174 1.352 . S
C173 C172 1.404 . S
C173 C177 1.389 . S
C173 H200 0.930 . S
C174 C172 1.352 . S
C174 C176 1.374 . S
C174 H201 0.931 . S
C175 C176 1.359 . S
C175 C177 1.364 . S
C176 C174 1.374 . S
C176 C175 1.359 . S
C176 H202 0.931 . S
C177 C173 1.389 . S
C177 C175 1.364 . S
C177 H203 0.931 . S
C178 O192 1.256 . S
C178 O193 1.257 . S
C179 O194 1.240 . S
C179 O195 1.240 . S
C180 Gd169 2.818 . S
C180 C181 1.510 . S
C180 O196 1.249 . S
C180 O197 1.252 . S
C181 C180 1.510 . S
C181 C182 1.404 . S
C181 C183 1.352 . S
C182 C181 1.404 . S
C182 C186 1.389 . S
C182 H204 0.930 . S
C183 C181 1.352 . S
C183 C185 1.374 . S
C183 H205 0.931 . S
C184 C185 1.359 . S
C184 C186 1.364 . S
C185 C183 1.374 . S
C185 C184 1.359 . S
C185 H206 0.931 . S
C186 C182 1.389 . S
C186 C184 1.364 . S
C186 H207 0.931 . S
C187 O198 1.256 . S
C187 O199 1.257 . S
O188 Gd168 2.377 . S
O188 C170 1.240 . S
O189 Gd169 2.395 . S
O189 C170 1.240 . S
O190 Gd168 2.448 . S
O190 C171 1.249 . S
O191 Gd168 2.506 . S
O191 C171 1.252 . S
O192 Gd168 2.435 . S
O192 C178 1.256 . S
O193 Gd168 2.717 . S
O193 Gd169 2.327 . S
O193 C178 1.257 . S
O194 Gd169 2.377 . S
O194 C179 1.240 . S
O195 Gd168 2.395 . S
O195 C179 1.240 . S
O196 Gd169 2.448 . S
O196 C180 1.249 . S
O197 Gd169 2.506 . S
O197 C180 1.252 . S
O198 Gd169 2.435 . S
O198 C187 1.256 . S
O199 Gd168 2.327 . S
O199 Gd169 2.717 . S
O199 C187 1.257 . S
H200 C173 0.930 . S
H201 C174 0.931 . S
H202 C176 0.931 . S
H203 C177 0.931 . S
H204 C182 0.930 . S
H205 C183 0.931 . S
H206 C185 0.931 . S
H207 C186 0.931 . S
Gd208 C211 2.818 . S
Gd208 O228 2.377 . S
Gd208 O230 2.448 . S
Gd208 O231 2.506 . S
Gd208 O232 2.435 . S
Gd208 O233 2.717 . S
Gd208 O235 2.395 1_455 S
Gd208 O239 2.327 1_554 S
Gd209 C220 2.818 1_455 S
Gd209 O229 2.395 1_556 S
Gd209 O233 2.327 1_556 S
Gd209 O234 2.377 1_455 S
Gd209 O236 2.448 . S
Gd209 O237 2.506 1_455 S
Gd209 O238 2.435 . S
Gd209 O239 2.717 . S
C210 O228 1.240 . S
C210 O229 1.240 . S
C211 Gd208 2.818 . S
C211 C212 1.510 . S
C211 O230 1.249 . S
C211 O231 1.252 . S
C212 C211 1.510 . S
C212 C213 1.404 . S
C212 C214 1.352 . S
C213 C212 1.404 . S
C213 C217 1.389 . S
C213 H240 0.930 . S
C214 C212 1.352 . S
C214 C216 1.374 . S
C214 H241 0.931 . S
C215 C216 1.359 . S
C215 C217 1.364 . S
C216 C214 1.374 . S
C216 C215 1.359 . S
C216 H242 0.931 . S
C217 C213 1.389 . S
C217 C215 1.364 . S
C217 H243 0.931 . S
C218 O232 1.256 . S
C218 O233 1.257 . S
C219 O234 1.240 . S
C219 O235 1.240 1_556 S
C220 Gd209 2.818 1_655 S
C220 C221 1.510 . S
C220 O236 1.249 1_655 S
C220 O237 1.252 . S
C221 C220 1.510 . S
C221 C222 1.404 . S
C221 C223 1.352 . S
C222 C221 1.404 . S
C222 C226 1.389 . S
C222 H244 0.930 . S
C223 C221 1.352 . S
C223 C225 1.374 . S
C223 H245 0.931 . S
C224 C225 1.359 . S
C224 C226 1.364 . S
C225 C223 1.374 . S
C225 C224 1.359 . S
C225 H246 0.931 . S
C226 C222 1.389 . S
C226 C224 1.364 . S
C226 H247 0.931 . S
C227 O238 1.256 . S
C227 O239 1.257 . S
O228 Gd208 2.377 . S
O228 C210 1.240 . S
O229 Gd209 2.395 1_554 S
O229 C210 1.240 . S
O230 Gd208 2.448 . S
O230 C211 1.249 . S
O231 Gd208 2.506 . S
O231 C211 1.252 . S
O232 Gd208 2.435 . S
O232 C218 1.256 . S
O233 Gd208 2.717 . S
O233 Gd209 2.327 1_554 S
O233 C218 1.257 . S
O234 Gd209 2.377 1_655 S
O234 C219 1.240 . S
O235 Gd208 2.395 1_655 S
O235 C219 1.240 1_554 S
O236 Gd209 2.448 . S
O236 C220 1.249 1_455 S
O237 Gd209 2.506 1_655 S
O237 C220 1.252 . S
O238 Gd209 2.435 . S
O238 C227 1.256 . S
O239 Gd208 2.327 1_556 S
O239 Gd209 2.717 . S
O239 C227 1.257 . S
H240 C213 0.930 . S
H241 C214 0.931 . S
H242 C216 0.931 . S
H243 C217 0.931 . S
H244 C222 0.930 . S
H245 C223 0.931 . S
H246 C225 0.931 . S
H247 C226 0.931 . S
C248 C249 1.349 . S
C248 C250 1.327 . S
C248 H273 0.950 . S
C249 C248 1.349 . S
C249 C265 1.349 . S
C250 C248 1.327 . S
C250 C269 1.429 . S
C250 H274 0.950 . S
C251 C268 1.574 . S
C251 C270 1.368 . S
C251 H275 0.949 . S
H252 C256 0.949 . S
C253 C254 1.349 . S
C253 C255 1.327 . S
C253 H276 0.950 . S
C254 C253 1.349 . S
C254 C266 1.349 . S
C255 C253 1.327 . S
C255 C271 1.429 . S
C255 H277 0.950 . S
C256 H252 0.949 . S
C256 C264 1.574 . S
C256 C272 1.368 . S
H257 C265 0.950 . S
H258 C263 0.950 . S
H259 C264 0.949 . S
H260 C266 0.950 . S
H261 C267 0.950 . S
H262 C268 0.949 . S
C263 H258 0.950 . S
C263 C265 1.327 . S
C263 C269 1.429 . S
C264 C256 1.574 . S
C264 H259 0.949 . S
C264 C270 1.368 . S
C265 C249 1.349 . S
C265 H257 0.950 . S
C265 C263 1.327 . S
C266 C254 1.349 . S
C266 H260 0.950 . S
C266 C267 1.327 . S
C267 H261 0.950 . S
C267 C266 1.327 . S
C267 C271 1.429 . S
C268 C251 1.574 . S
C268 H262 0.949 . S
C268 C272 1.368 . S
C269 C250 1.429 . S
C269 C263 1.429 . S
C269 C270 1.523 . S
C270 C251 1.368 . S
C270 C264 1.368 . S
C270 C269 1.523 . S
C271 C255 1.429 . S
C271 C267 1.429 . S
C271 C272 1.523 . S
C272 C256 1.368 . S
C272 C268 1.368 . S
C272 C271 1.523 . S
H273 C248 0.950 . S
H274 C250 0.950 . S
H275 C251 0.949 . S
H276 C253 0.950 . S
H277 C255 0.950 . S
C278 C279 1.349 . S
C278 C280 1.327 . S
C278 H303 0.950 . S
C279 C278 1.349 . S
C279 C295 1.349 . S
C280 C278 1.327 . S
C280 C299 1.429 . S
C280 H304 0.950 . S
C281 C298 1.574 . S
C281 C300 1.368 . S
C281 H305 0.949 . S
H282 C286 0.949 . S
C283 C284 1.349 . S
C283 C285 1.327 . S
C283 H306 0.950 . S
C284 C283 1.349 . S
C284 C296 1.349 . S
C285 C283 1.327 . S
C285 C301 1.429 . S
C285 H307 0.950 . S
C286 H282 0.949 . S
C286 C294 1.574 . S
C286 C302 1.368 . S
H287 C295 0.950 . S
H288 C293 0.950 . S
H289 C294 0.949 . S
H290 C296 0.950 . S
H291 C297 0.950 . S
H292 C298 0.949 . S
C293 H288 0.950 . S
C293 C295 1.327 . S
C293 C299 1.429 . S
C294 C286 1.574 . S
C294 H289 0.949 . S
C294 C300 1.368 . S
C295 C279 1.349 . S
C295 H287 0.950 . S
C295 C293 1.327 . S
C296 C284 1.349 . S
C296 H290 0.950 . S
C296 C297 1.327 . S
C297 H291 0.950 . S
C297 C296 1.327 . S
C297 C301 1.429 . S
C298 C281 1.574 . S
C298 H292 0.949 . S
C298 C302 1.368 . S
C299 C280 1.429 . S
C299 C293 1.429 . S
C299 C300 1.523 . S
C300 C281 1.368 . S
C300 C294 1.368 . S
C300 C299 1.523 . S
C301 C285 1.429 . S
C301 C297 1.429 . S
C301 C302 1.523 . S
C302 C286 1.368 . S
C302 C298 1.368 . S
C302 C301 1.523 . S
H303 C278 0.950 . S
H304 C280 0.950 . S
H305 C281 0.949 . S
H306 C283 0.950 . S
H307 C285 0.950 . S
C308 C309 1.349 . S
C308 C310 1.327 . S
C308 H333 0.950 . S
C309 C308 1.349 . S
C309 C325 1.349 . S
C310 C308 1.327 . S
C310 C329 1.429 . S
C310 H334 0.950 . S
C311 C328 1.574 . S
C311 C330 1.368 . S
C311 H335 0.949 . S
H312 C316 0.949 . S
C313 C314 1.349 . S
C313 C315 1.327 . S
C313 H336 0.950 . S
C314 C313 1.349 . S
C314 C326 1.349 . S
C315 C313 1.327 . S
C315 C331 1.429 . S
C315 H337 0.950 . S
C316 H312 0.949 . S
C316 C324 1.574 . S
C316 C332 1.368 . S
H317 C325 0.950 . S
H318 C323 0.950 . S
H319 C324 0.949 . S
H320 C326 0.950 . S
H321 C327 0.950 . S
H322 C328 0.949 . S
C323 H318 0.950 . S
C323 C325 1.327 . S
C323 C329 1.429 . S
C324 C316 1.574 . S
C324 H319 0.949 . S
C324 C330 1.368 . S
C325 C309 1.349 . S
C325 H317 0.950 . S
C325 C323 1.327 . S
C326 C314 1.349 . S
C326 H320 0.950 . S
C326 C327 1.327 . S
C327 H321 0.950 . S
C327 C326 1.327 . S
C327 C331 1.429 . S
C328 C311 1.574 . S
C328 H322 0.949 . S
C328 C332 1.368 . S
C329 C310 1.429 . S
C329 C323 1.429 . S
C329 C330 1.523 . S
C330 C311 1.368 . S
C330 C324 1.368 . S
C330 C329 1.523 . S
C331 C315 1.429 . S
C331 C327 1.429 . S
C331 C332 1.523 . S
C332 C316 1.368 . S
C332 C328 1.368 . S
C332 C331 1.523 . S
H333 C308 0.950 . S
H334 C310 0.950 . S
H335 C311 0.949 . S
H336 C313 0.950 . S
H337 C315 0.950 . S
C338 C339 1.349 . S
C338 C340 1.327 . S
C338 H363 0.950 . S
C339 C338 1.349 . S
C339 C355 1.349 . S
C340 C338 1.327 . S
C340 C359 1.429 . S
C340 H364 0.950 . S
C341 C358 1.574 . S
C341 C360 1.368 . S
C341 H365 0.949 . S
H342 C346 0.949 . S
C343 C344 1.349 . S
C343 C345 1.327 . S
C343 H366 0.950 . S
C344 C343 1.349 . S
C344 C356 1.349 . S
C345 C343 1.327 . S
C345 C361 1.429 . S
C345 H367 0.950 . S
C346 H342 0.949 . S
C346 C354 1.574 . S
C346 C362 1.368 . S
H347 C355 0.950 . S
H348 C353 0.950 . S
H349 C354 0.949 . S
H350 C356 0.950 1_455 S
H351 C357 0.950 . S
H352 C358 0.949 . S
C353 H348 0.950 . S
C353 C355 1.327 . S
C353 C359 1.429 . S
C354 C346 1.574 . S
C354 H349 0.949 . S
C354 C360 1.368 . S
C355 C339 1.349 . S
C355 H347 0.950 . S
C355 C353 1.327 . S
C356 C344 1.349 . S
C356 H350 0.950 1_655 S
C356 C357 1.327 . S
C357 H351 0.950 . S
C357 C356 1.327 . S
C357 C361 1.429 . S
C358 C341 1.574 . S
C358 H352 0.949 . S
C358 C362 1.368 . S
C359 C340 1.429 . S
C359 C353 1.429 . S
C359 C360 1.523 . S
C360 C341 1.368 . S
C360 C354 1.368 . S
C360 C359 1.523 . S
C361 C345 1.429 . S
C361 C357 1.429 . S
C361 C362 1.523 . S
C362 C346 1.368 . S
C362 C358 1.368 . S
C362 C361 1.523 . S
H363 C338 0.950 . S
H364 C340 0.950 . S
H365 C341 0.949 . S
H366 C343 0.950 . S
H367 C345 0.950 . S
C368 C369 1.349 . S
C368 C370 1.327 . S
C368 H393 0.950 . S
C369 C368 1.349 . S
C369 C385 1.349 . S
C370 C368 1.327 . S
C370 C389 1.429 . S
C370 H394 0.950 . S
C371 C388 1.574 . S
C371 C390 1.368 . S
C371 H395 0.949 . S
H372 C376 0.949 . S
C373 C374 1.349 . S
C373 C375 1.327 . S
C373 H396 0.950 . S
C374 C373 1.349 . S
C374 C386 1.349 . S
C375 C373 1.327 . S
C375 C391 1.429 . S
C375 H397 0.950 . S
C376 H372 0.949 . S
C376 C384 1.574 . S
C376 C392 1.368 . S
H377 C385 0.950 . S
H378 C383 0.950 . S
H379 C384 0.949 . S
H380 C386 0.950 . S
H381 C387 0.950 . S
H382 C388 0.949 . S
C383 H378 0.950 . S
C383 C385 1.327 . S
C383 C389 1.429 . S
C384 C376 1.574 . S
C384 H379 0.949 . S
C384 C390 1.368 . S
C385 C369 1.349 . S
C385 H377 0.950 . S
C385 C383 1.327 . S
C386 C374 1.349 . S
C386 H380 0.950 . S
C386 C387 1.327 . S
C387 H381 0.950 . S
C387 C386 1.327 . S
C387 C391 1.429 . S
C388 C371 1.574 . S
C388 H382 0.949 . S
C388 C392 1.368 . S
C389 C370 1.429 . S
C389 C383 1.429 . S
C389 C390 1.523 . S
C390 C371 1.368 . S
C390 C384 1.368 . S
C390 C389 1.523 . S
C391 C375 1.429 . S
C391 C387 1.429 . S
C391 C392 1.523 . S
C392 C376 1.368 . S
C392 C388 1.368 . S
C392 C391 1.523 . S
H393 C368 0.950 . S
H394 C370 0.950 . S
H395 C371 0.949 . S
H396 C373 0.950 . S
H397 C375 0.950 . S
C398 C399 1.349 . S
C398 C400 1.327 . S
C398 H423 0.950 . S
C399 C398 1.349 . S
C399 C415 1.349 . S
C400 C398 1.327 . S
C400 C419 1.429 . S
C400 H424 0.950 . S
C401 C418 1.574 . S
C401 C420 1.368 . S
C401 H425 0.949 . S
H402 C406 0.949 . S
C403 C404 1.349 . S
C403 C405 1.327 1_545 S
C403 H426 0.950 . S
C404 C403 1.349 . S
C404 C416 1.349 1_545 S
C405 C403 1.327 1_565 S
C405 C421 1.429 . S
C405 H427 0.950 . S
C406 H402 0.949 . S
C406 C414 1.574 . S
C406 C422 1.368 . S
H407 C415 0.950 . S
H408 C413 0.950 . S
H409 C414 0.949 . S
H410 C416 0.950 . S
H411 C417 0.950 . S
H412 C418 0.949 . S
C413 H408 0.950 . S
C413 C415 1.327 . S
C413 C419 1.429 . S
C414 C406 1.574 . S
C414 H409 0.949 . S
C414 C420 1.368 . S
C415 C399 1.349 . S
C415 H407 0.950 . S
C415 C413 1.327 . S
C416 C404 1.349 1_565 S
C416 H410 0.950 . S
C416 C417 1.327 . S
C417 H411 0.950 . S
C417 C416 1.327 . S
C417 C421 1.429 . S
C418 C401 1.574 . S
C418 H412 0.949 . S
C418 C422 1.368 . S
C419 C400 1.429 . S
C419 C413 1.429 . S
C419 C420 1.523 . S
C420 C401 1.368 . S
C420 C414 1.368 . S
C420 C419 1.523 . S
C421 C405 1.429 . S
C421 C417 1.429 . S
C421 C422 1.523 . S
C422 C406 1.368 . S
C422 C418 1.368 . S
C422 C421 1.523 . S
H423 C398 0.950 . S
H424 C400 0.950 . S
H425 C401 0.949 . S
H426 C403 0.950 . S
H427 C405 0.950 . S
C428 C429 1.349 . S
C428 C430 1.327 . S
C428 H453 0.950 . S
C429 C428 1.349 . S
C429 C445 1.349 . S
C430 C428 1.327 . S
C430 C449 1.429 . S
C430 H454 0.950 . S
C431 C448 1.574 . S
C431 C450 1.368 . S
C431 H455 0.949 . S
H432 C436 0.949 . S
C433 C434 1.349 . S
C433 C435 1.327 . S
C433 H456 0.950 . S
C434 C433 1.349 . S
C434 C446 1.349 . S
C435 C433 1.327 . S
C435 C451 1.429 . S
C435 H457 0.950 . S
C436 H432 0.949 . S
C436 C444 1.574 . S
C436 C452 1.368 . S
H437 C445 0.950 . S
H438 C443 0.950 . S
H439 C444 0.949 . S
H440 C446 0.950 . S
H441 C447 0.950 . S
H442 C448 0.949 . S
C443 H438 0.950 . S
C443 C445 1.327 . S
C443 C449 1.429 . S
C444 C436 1.574 . S
C444 H439 0.949 . S
C444 C450 1.368 . S
C445 C429 1.349 . S
C445 H437 0.950 . S
C445 C443 1.327 . S
C446 C434 1.349 . S
C446 H440 0.950 . S
C446 C447 1.327 . S
C447 H441 0.950 . S
C447 C446 1.327 . S
C447 C451 1.429 . S
C448 C431 1.574 . S
C448 H442 0.949 . S
C448 C452 1.368 . S
C449 C430 1.429 . S
C449 C443 1.429 . S
C449 C450 1.523 . S
C450 C431 1.368 . S
C450 C444 1.368 . S
C450 C449 1.523 . S
C451 C435 1.429 . S
C451 C447 1.429 . S
C451 C452 1.523 . S
C452 C436 1.368 . S
C452 C448 1.368 . S
C452 C451 1.523 . S
H453 C428 0.950 . S
H454 C430 0.950 . S
H455 C431 0.949 . S
H456 C433 0.950 . S
H457 C435 0.950 . S
C458 C459 1.349 . S
C458 C460 1.327 . S
C458 H483 0.950 . S
C459 C458 1.349 . S
C459 C475 1.349 . S
C460 C458 1.327 . S
C460 C479 1.429 . S
C460 H484 0.950 . S
C461 C478 1.574 . S
C461 C480 1.368 . S
C461 H485 0.949 . S
H462 C466 0.949 . S
C463 C464 1.349 . S
C463 C465 1.327 . S
C463 H486 0.950 . S
C464 C463 1.349 . S
C464 C476 1.349 . S
C465 C463 1.327 . S
C465 C481 1.429 . S
C465 H487 0.950 . S
C466 H462 0.949 . S
C466 C474 1.574 . S
C466 C482 1.368 . S
H467 C475 0.950 . S
H468 C473 0.950 . S
H469 C474 0.949 . S
H470 C476 0.950 . S
H471 C477 0.950 . S
H472 C478 0.949 . S
C473 H468 0.950 . S
C473 C475 1.327 . S
C473 C479 1.429 . S
C474 C466 1.574 . S
C474 H469 0.949 . S
C474 C480 1.368 . S
C475 C459 1.349 . S
C475 H467 0.950 . S
C475 C473 1.327 . S
C476 C464 1.349 . S
C476 H470 0.950 . S
C476 C477 1.327 . S
C477 H471 0.950 . S
C477 C476 1.327 . S
C477 C481 1.429 . S
C478 C461 1.574 . S
C478 H472 0.949 . S
C478 C482 1.368 . S
C479 C460 1.429 . S
C479 C473 1.429 . S
C479 C480 1.523 . S
C480 C461 1.368 . S
C480 C474 1.368 . S
C480 C479 1.523 . S
C481 C465 1.429 . S
C481 C477 1.429 . S
C481 C482 1.523 . S
C482 C466 1.368 . S
C482 C478 1.368 . S
C482 C481 1.523 . S
H483 C458 0.950 . S
H484 C460 0.950 . S
H485 C461 0.949 . S
H486 C463 0.950 . S
H487 C465 0.950 . S
C488 C489 1.349 . S
C488 C490 1.327 . S
C488 H513 0.950 . S
C489 C488 1.349 . S
C489 C505 1.349 . S
C490 C488 1.327 . S
C490 C509 1.429 . S
C490 H514 0.950 . S
C491 C508 1.574 . S
C491 C510 1.368 . S
C491 H515 0.949 . S
H492 C496 0.949 . S
C493 C494 1.349 . S
C493 C495 1.327 . S
C493 H516 0.950 . S
C494 C493 1.349 . S
C494 C506 1.349 . S
C495 C493 1.327 . S
C495 C511 1.429 . S
C495 H517 0.950 . S
C496 H492 0.949 . S
C496 C504 1.574 . S
C496 C512 1.368 . S
H497 C505 0.950 . S
H498 C503 0.950 . S
H499 C504 0.949 . S
H500 C506 0.950 . S
H501 C507 0.950 . S
H502 C508 0.949 . S
C503 H498 0.950 . S
C503 C505 1.327 . S
C503 C509 1.429 . S
C504 C496 1.574 . S
C504 H499 0.949 . S
C504 C510 1.368 . S
C505 C489 1.349 . S
C505 H497 0.950 . S
C505 C503 1.327 . S
C506 C494 1.349 . S
C506 H500 0.950 . S
C506 C507 1.327 . S
C507 H501 0.950 . S
C507 C506 1.327 . S
C507 C511 1.429 . S
C508 C491 1.574 . S
C508 H502 0.949 . S
C508 C512 1.368 . S
C509 C490 1.429 . S
C509 C503 1.429 . S
C509 C510 1.523 . S
C510 C491 1.368 . S
C510 C504 1.368 . S
C510 C509 1.523 . S
C511 C495 1.429 . S
C511 C507 1.429 . S
C511 C512 1.523 . S
C512 C496 1.368 . S
C512 C508 1.368 . S
C512 C511 1.523 . S
H513 C488 0.950 . S
H514 C490 0.950 . S
H515 C491 0.949 . S
H516 C493 0.950 . S
H517 C495 0.950 . S
C518 C519 1.349 . S
C518 C520 1.327 . S
C518 H543 0.950 . S
C519 C518 1.349 . S
C519 C535 1.349 . S
C520 C518 1.327 . S
C520 C539 1.429 . S
C520 H544 0.950 . S
C521 C538 1.574 . S
C521 C540 1.368 . S
C521 H545 0.949 . S
H522 C526 0.949 . S
C523 C524 1.364 . S
C523 C525 1.327 . S
C523 H546 0.950 . S
C524 C523 1.364 . S
C524 C536 1.344 1_556 S
C525 C523 1.327 . S
C525 C541 1.429 . S
C525 H547 0.950 . S
C526 H522 0.949 . S
C526 C534 1.574 . S
C526 C542 1.368 . S
H527 C535 0.950 . S
H528 C533 0.950 . S
H529 C534 0.949 . S
H530 C536 0.950 . S
H531 C537 0.950 1_554 S
H532 C538 0.949 . S
C533 H528 0.950 . S
C533 C535 1.327 . S
C533 C539 1.429 . S
C534 C526 1.574 . S
C534 H529 0.949 . S
C534 C540 1.368 . S
C535 C519 1.349 . S
C535 H527 0.950 . S
C535 C533 1.327 . S
C536 C524 1.344 1_554 S
C536 H530 0.950 . S
C536 C537 1.327 1_554 S
C537 H531 0.950 1_556 S
C537 C536 1.327 1_556 S
C537 C541 1.429 . S
C538 C521 1.574 . S
C538 H532 0.949 . S
C538 C542 1.368 . S
C539 C520 1.429 . S
C539 C533 1.429 . S
C539 C540 1.523 . S
C540 C521 1.368 . S
C540 C534 1.368 . S
C540 C539 1.523 . S
C541 C525 1.429 . S
C541 C537 1.429 . S
C541 C542 1.523 . S
C542 C526 1.368 . S
C542 C538 1.368 . S
C542 C541 1.523 . S
H543 C518 0.950 . S
H544 C520 0.950 . S
H545 C521 0.949 . S
H546 C523 0.950 . S
H547 C525 0.950 . S
C548 C549 1.349 . S
C548 C550 1.327 . S
C548 H573 0.950 . S
C549 C548 1.349 . S
C549 C565 1.349 . S
C550 C548 1.327 . S
C550 C569 1.429 . S
C550 H574 0.950 . S
C551 C568 1.574 . S
C551 C570 1.368 . S
C551 H575 0.949 . S
H552 C556 0.949 . S
C553 C554 1.349 . S
C553 C555 1.327 . S
C553 H576 0.950 . S
C554 C553 1.349 . S
C554 C566 1.349 . S
C555 C553 1.327 . S
C555 C571 1.429 . S
C555 H577 0.950 . S
C556 H552 0.949 . S
C556 C564 1.574 . S
C556 C572 1.368 . S
H557 C565 0.950 . S
H558 C563 0.950 . S
H559 C564 0.949 . S
H560 C566 0.950 . S
H561 C567 0.950 . S
H562 C568 0.949 . S
C563 H558 0.950 . S
C563 C565 1.327 . S
C563 C569 1.429 . S
C564 C556 1.574 . S
C564 H559 0.949 . S
C564 C570 1.368 . S
C565 C549 1.349 . S
C565 H557 0.950 . S
C565 C563 1.327 . S
C566 C554 1.349 . S
C566 H560 0.950 . S
C566 C567 1.327 . S
C567 H561 0.950 . S
C567 C566 1.327 . S
C567 C571 1.429 . S
C568 C551 1.574 . S
C568 H562 0.949 . S
C568 C572 1.368 . S
C569 C550 1.429 . S
C569 C563 1.429 . S
C569 C570 1.523 . S
C570 C551 1.368 . S
C570 C564 1.368 . S
C570 C569 1.523 . S
C571 C555 1.429 . S
C571 C567 1.429 . S
C571 C572 1.523 . S
C572 C556 1.368 . S
C572 C568 1.368 . S
C572 C571 1.523 . S
H573 C548 0.950 . S
H574 C550 0.950 . S
H575 C551 0.949 . S
H576 C553 0.950 . S
H577 C555 0.950 . S
C578 C579 1.349 . S
C578 C580 1.327 . S
C578 H603 0.950 . S
C579 C578 1.349 . S
C579 C595 1.349 . S
C580 C578 1.327 . S
C580 C599 1.429 . S
C580 H604 0.950 . S
C581 C598 1.574 . S
C581 C600 1.368 . S
C581 H605 0.949 . S
H582 C586 0.949 . S
C583 C584 1.349 . S
C583 C585 1.327 . S
C583 H606 0.950 . S
C584 C583 1.349 . S
C584 C596 1.349 . S
C585 C583 1.327 . S
C585 C601 1.429 . S
C585 H607 0.950 . S
C586 H582 0.949 . S
C586 C594 1.574 . S
C586 C602 1.368 . S
H587 C595 0.950 . S
H588 C593 0.950 . S
H589 C594 0.949 . S
H590 C596 0.950 . S
H591 C597 0.950 . S
H592 C598 0.949 . S
C593 H588 0.950 . S
C593 C595 1.327 . S
C593 C599 1.429 . S
C594 C586 1.574 . S
C594 H589 0.949 . S
C594 C600 1.368 . S
C595 C579 1.349 . S
C595 H587 0.950 . S
C595 C593 1.327 . S
C596 C584 1.349 . S
C596 H590 0.950 . S
C596 C597 1.327 . S
C597 H591 0.950 . S
C597 C596 1.327 . S
C597 C601 1.429 . S
C598 C581 1.574 . S
C598 H592 0.949 . S
C598 C602 1.368 . S
C599 C580 1.429 . S
C599 C593 1.429 . S
C599 C600 1.523 . S
C600 C581 1.368 . S
C600 C594 1.368 . S
C600 C599 1.523 . S
C601 C585 1.429 . S
C601 C597 1.429 . S
C601 C602 1.523 . S
C602 C586 1.368 . S
C602 C598 1.368 . S
C602 C601 1.523 . S
H603 C578 0.950 . S
H604 C580 0.950 . S
H605 C581 0.949 . S
H606 C583 0.950 . S
H607 C585 0.950 . S
C608 C609 1.349 . S
C608 C610 1.327 . S
C608 H633 0.950 . S
C609 C608 1.349 . S
C609 C625 1.349 . S
C610 C608 1.327 . S
C610 C629 1.429 . S
C610 H634 0.950 . S
C611 C628 1.574 . S
C611 C630 1.368 . S
C611 H635 0.949 . S
H612 C616 0.949 . S
C613 C614 1.349 . S
C613 C615 1.327 . S
C613 H636 0.950 . S
C614 C613 1.349 . S
C614 C626 1.349 . S
C615 C613 1.327 . S
C615 C631 1.429 . S
C615 H637 0.950 . S
C616 H612 0.949 . S
C616 C624 1.574 . S
C616 C632 1.368 . S
H617 C625 0.950 . S
H618 C623 0.950 . S
H619 C624 0.949 . S
H620 C626 0.950 . S
H621 C627 0.950 . S
H622 C628 0.949 . S
C623 H618 0.950 . S
C623 C625 1.327 . S
C623 C629 1.429 . S
C624 C616 1.574 . S
C624 H619 0.949 . S
C624 C630 1.368 . S
C625 C609 1.349 . S
C625 H617 0.950 . S
C625 C623 1.327 . S
C626 C614 1.349 . S
C626 H620 0.950 . S
C626 C627 1.327 . S
C627 H621 0.950 . S
C627 C626 1.327 . S
C627 C631 1.429 . S
C628 C611 1.574 . S
C628 H622 0.949 . S
C628 C632 1.368 . S
C629 C610 1.429 . S
C629 C623 1.429 . S
C629 C630 1.523 . S
C630 C611 1.368 . S
C630 C624 1.368 . S
C630 C629 1.523 . S
C631 C615 1.429 . S
C631 C627 1.429 . S
C631 C632 1.523 . S
C632 C616 1.368 . S
C632 C628 1.368 . S
C632 C631 1.523 . S
H633 C608 0.950 . S
H634 C610 0.950 . S
H635 C611 0.949 . S
H636 C613 0.950 . S
H637 C615 0.950 . S
C638 C639 1.349 . S
C638 C640 1.327 . S
C638 H663 0.950 . S
C639 C638 1.349 . S
C639 C655 1.349 . S
C640 C638 1.327 . S
C640 C659 1.429 . S
C640 H664 0.950 . S
C641 C658 1.574 . S
C641 C660 1.368 . S
C641 H665 0.949 . S
H642 C646 0.949 . S
C643 C644 1.349 . S
C643 C645 1.327 . S
C643 H666 0.950 . S
C644 C643 1.349 . S
C644 C656 1.349 . S
C645 C643 1.327 . S
C645 C661 1.429 . S
C645 H667 0.950 . S
C646 H642 0.949 . S
C646 C654 1.574 . S
C646 C662 1.368 . S
H647 C655 0.950 . S
H648 C653 0.950 . S
H649 C654 0.949 . S
H650 C656 0.950 . S
H651 C657 0.950 . S
H652 C658 0.949 . S
C653 H648 0.950 . S
C653 C655 1.327 . S
C653 C659 1.429 . S
C654 C646 1.574 . S
C654 H649 0.949 . S
C654 C660 1.368 . S
C655 C639 1.349 . S
C655 H647 0.950 . S
C655 C653 1.327 . S
C656 C644 1.349 . S
C656 H650 0.950 . S
C656 C657 1.327 . S
C657 H651 0.950 . S
C657 C656 1.327 . S
C657 C661 1.429 . S
C658 C641 1.574 . S
C658 H652 0.949 . S
C658 C662 1.368 . S
C659 C640 1.429 . S
C659 C653 1.429 . S
C659 C660 1.523 . S
C660 C641 1.368 . S
C660 C654 1.368 . S
C660 C659 1.523 . S
C661 C645 1.429 . S
C661 C657 1.429 . S
C661 C662 1.523 . S
C662 C646 1.368 . S
C662 C658 1.368 . S
C662 C661 1.523 . S
H663 C638 0.950 . S
H664 C640 0.950 . S
H665 C641 0.949 . S
H666 C643 0.950 . S
H667 C645 0.950 . S
C668 C669 1.349 . S
C668 C670 1.327 . S
C668 H693 0.950 . S
C669 C668 1.349 . S
C669 C685 1.349 . S
C670 C668 1.327 . S
C670 C689 1.429 . S
C670 H694 0.950 . S
C671 C688 1.574 . S
C671 C690 1.368 . S
C671 H695 0.949 . S
H672 C676 0.949 . S
C673 C674 1.349 . S
C673 C675 1.327 . S
C673 H696 0.950 . S
C674 C673 1.349 . S
C674 C686 1.349 . S
C675 C673 1.327 . S
C675 C691 1.429 . S
C675 H697 0.950 . S
C676 H672 0.949 . S
C676 C684 1.574 . S
C676 C692 1.368 . S
H677 C685 0.950 . S
H678 C683 0.950 . S
H679 C684 0.949 . S
H680 C686 0.950 . S
H681 C687 0.950 . S
H682 C688 0.949 . S
C683 H678 0.950 . S
C683 C685 1.327 . S
C683 C689 1.429 . S
C684 C676 1.574 . S
C684 H679 0.949 . S
C684 C690 1.368 . S
C685 C669 1.349 . S
C685 H677 0.950 . S
C685 C683 1.327 . S
C686 C674 1.349 . S
C686 H680 0.950 . S
C686 C687 1.327 . S
C687 H681 0.950 . S
C687 C686 1.327 . S
C687 C691 1.429 . S
C688 C671 1.574 . S
C688 H682 0.949 . S
C688 C692 1.368 . S
C689 C670 1.429 . S
C689 C683 1.429 . S
C689 C690 1.523 . S
C690 C671 1.368 . S
C690 C684 1.368 . S
C690 C689 1.523 . S
C691 C675 1.429 . S
C691 C687 1.429 . S
C691 C692 1.523 . S
C692 C676 1.368 . S
C692 C688 1.368 . S
C692 C691 1.523 . S
H693 C668 0.950 . S
H694 C670 0.950 . S
H695 C671 0.949 . S
H696 C673 0.950 . S
H697 C675 0.950 . S
C698 C699 1.349 . S
C698 C700 1.327 . S
C698 H723 0.950 . S
C699 C698 1.349 . S
C699 C715 1.349 . S
C700 C698 1.327 . S
C700 C719 1.429 . S
C700 H724 0.950 . S
C701 C718 1.574 . S
C701 C720 1.368 . S
C701 H725 0.949 . S
H702 C706 0.949 . S
C703 C704 1.349 . S
C703 C705 1.327 . S
C703 H726 0.950 . S
C704 C703 1.349 . S
C704 C716 1.349 . S
C705 C703 1.327 . S
C705 C721 1.429 . S
C705 H727 0.950 . S
C706 H702 0.949 . S
C706 C714 1.574 . S
C706 C722 1.368 . S
H707 C715 0.950 . S
H708 C713 0.950 . S
H709 C714 0.949 . S
H710 C716 0.950 . S
H711 C717 0.950 . S
H712 C718 0.949 . S
C713 H708 0.950 . S
C713 C715 1.327 . S
C713 C719 1.429 . S
C714 C706 1.574 . S
C714 H709 0.949 . S
C714 C720 1.368 . S
C715 C699 1.349 . S
C715 H707 0.950 . S
C715 C713 1.327 . S
C716 C704 1.349 . S
C716 H710 0.950 . S
C716 C717 1.327 . S
C717 H711 0.950 . S
C717 C716 1.327 . S
C717 C721 1.429 . S
C718 C701 1.574 . S
C718 H712 0.949 . S
C718 C722 1.368 . S
C719 C700 1.429 . S
C719 C713 1.429 . S
C719 C720 1.523 . S
C720 C701 1.368 . S
C720 C714 1.368 . S
C720 C719 1.523 . S
C721 C705 1.429 . S
C721 C717 1.429 . S
C721 C722 1.523 . S
C722 C706 1.368 . S
C722 C718 1.368 . S
C722 C721 1.523 . S
H723 C698 0.950 . S
H724 C700 0.950 . S
H725 C701 0.949 . S
H726 C703 0.950 . S
H727 C705 0.950 . S
C728 C729 1.349 . S
C728 C730 1.327 . S
C728 H753 0.950 . S
C729 C728 1.349 . S
C729 C745 1.349 . S
C730 C728 1.327 . S
C730 C749 1.429 . S
C730 H754 0.950 . S
C731 C748 1.574 . S
C731 C750 1.368 . S
C731 H755 0.949 . S
H732 C736 0.949 . S
C733 C734 1.359 . S
C733 C735 1.337 . S
C733 H756 0.930 1_556 S
C734 C733 1.359 . S
C734 C746 1.349 . S
C735 C733 1.337 . S
C735 C751 1.429 . S
C735 H757 0.950 . S
C736 H732 0.949 . S
C736 C744 1.574 . S
C736 C752 1.368 . S
H737 C745 0.950 . S
H738 C743 0.950 . S
H739 C744 0.949 . S
H740 C746 0.950 . S
H741 C747 0.950 . S
H742 C748 0.949 . S
C743 H738 0.950 . S
C743 C745 1.327 . S
C743 C749 1.429 . S
C744 C736 1.574 . S
C744 H739 0.949 . S
C744 C750 1.368 . S
C745 C729 1.349 . S
C745 H737 0.950 . S
C745 C743 1.327 . S
C746 C734 1.349 . S
C746 H740 0.950 . S
C746 C747 1.327 . S
C747 H741 0.950 . S
C747 C746 1.327 . S
C747 C751 1.429 . S
C748 C731 1.574 . S
C748 H742 0.949 . S
C748 C752 1.368 . S
C749 C730 1.429 . S
C749 C743 1.429 . S
C749 C750 1.523 . S
C750 C731 1.368 . S
C750 C744 1.368 . S
C750 C749 1.523 . S
C751 C735 1.429 . S
C751 C747 1.429 . S
C751 C752 1.523 . S
C752 C736 1.368 . S
C752 C748 1.368 . S
C752 C751 1.523 . S
H753 C728 0.950 . S
H754 C730 0.950 . S
H755 C731 0.949 . S
H756 C733 0.930 1_554 S
H757 C735 0.950 . S
C758 C759 1.349 . S
C758 C760 1.327 . S
C758 H783 0.950 . S
C759 C758 1.349 . S
C759 C775 1.349 . S
C760 C758 1.327 . S
C760 C779 1.429 . S
C760 H784 0.950 . S
C761 C778 1.574 . S
C761 C780 1.368 . S
C761 H785 0.949 . S
H762 C766 0.949 . S
C763 C764 1.349 . S
C763 C765 1.327 . S
C763 H786 0.950 . S
C764 C763 1.349 . S
C764 C776 1.349 . S
C765 C763 1.327 . S
C765 C781 1.429 . S
C765 H787 0.950 . S
C766 H762 0.949 . S
C766 C774 1.574 . S
C766 C782 1.368 . S
H767 C775 0.950 . S
H768 C773 0.950 . S
H769 C774 0.949 . S
H770 C776 0.950 . S
H771 C777 0.950 . S
H772 C778 0.949 . S
C773 H768 0.950 . S
C773 C775 1.327 . S
C773 C779 1.429 . S
C774 C766 1.574 . S
C774 H769 0.949 . S
C774 C780 1.368 . S
C775 C759 1.349 . S
C775 H767 0.950 . S
C775 C773 1.327 . S
C776 C764 1.349 . S
C776 H770 0.950 . S
C776 C777 1.327 . S
C777 H771 0.950 . S
C777 C776 1.327 . S
C777 C781 1.429 . S
C778 C761 1.574 . S
C778 H772 0.949 . S
C778 C782 1.368 . S
C779 C760 1.429 . S
C779 C773 1.429 . S
C779 C780 1.523 . S
C780 C761 1.368 . S
C780 C774 1.368 . S
C780 C779 1.523 . S
C781 C765 1.429 . S
C781 C777 1.429 . S
C781 C782 1.523 . S
C782 C766 1.368 . S
C782 C778 1.368 . S
C782 C781 1.523 . S
H783 C758 0.950 . S
H784 C760 0.950 . S
H785 C761 0.949 . S
H786 C763 0.950 . S
H787 C765 0.950 . S
C788 C789 1.349 . S
C788 C790 1.327 . S
C788 H813 0.950 . S
C789 C788 1.349 . S
C789 C805 1.349 . S
C790 C788 1.327 . S
C790 C809 1.429 . S
C790 H814 0.950 . S
C791 C808 1.574 . S
C791 C810 1.368 . S
C791 H815 0.949 . S
H792 C796 0.949 . S
C793 C794 1.349 . S
C793 C795 1.327 . S
C793 H816 0.950 . S
C794 C793 1.349 . S
C794 C806 1.349 . S
C795 C793 1.327 . S
C795 C811 1.429 . S
C795 H817 0.950 . S
C796 H792 0.949 . S
C796 C804 1.574 . S
C796 C812 1.368 . S
H797 C805 0.950 . S
H798 C803 0.950 . S
H799 C804 0.949 . S
H800 C806 0.950 . S
H801 C807 0.950 . S
H802 C808 0.949 . S
C803 H798 0.950 . S
C803 C805 1.327 . S
C803 C809 1.429 . S
C804 C796 1.574 . S
C804 H799 0.949 . S
C804 C810 1.368 . S
C805 C789 1.349 . S
C805 H797 0.950 . S
C805 C803 1.327 . S
C806 C794 1.349 . S
C806 H800 0.950 . S
C806 C807 1.327 . S
C807 H801 0.950 . S
C807 C806 1.327 . S
C807 C811 1.429 . S
C808 C791 1.574 . S
C808 H802 0.949 . S
C808 C812 1.368 . S
C809 C790 1.429 . S
C809 C803 1.429 . S
C809 C810 1.523 . S
C810 C791 1.368 . S
C810 C804 1.368 . S
C810 C809 1.523 . S
C811 C795 1.429 . S
C811 C807 1.429 . S
C811 C812 1.523 . S
C812 C796 1.368 . S
C812 C808 1.368 . S
C812 C811 1.523 . S
H813 C788 0.950 . S
H814 C790 0.950 . S
H815 C791 0.949 . S
H816 C793 0.950 . S
H817 C795 0.950 . S
C818 C819 1.349 . S
C818 C820 1.327 . S
C818 H843 0.950 . S
C819 C818 1.349 . S
C819 C835 1.349 . S
C820 C818 1.327 . S
C820 C839 1.429 . S
C820 H844 0.950 . S
C821 C838 1.574 . S
C821 C840 1.368 . S
C821 H845 0.949 . S
H822 C826 0.949 . S
C823 C824 1.349 . S
C823 C825 1.327 . S
C823 H846 0.950 . S
C824 C823 1.349 . S
C824 C836 1.349 . S
C825 C823 1.327 . S
C825 C841 1.429 . S
C825 H847 0.950 . S
C826 H822 0.949 . S
C826 C834 1.574 . S
C826 C842 1.368 . S
H827 C835 0.950 . S
H828 C833 0.950 . S
H829 C834 0.949 . S
H830 C836 0.950 . S
H831 C837 0.950 . S
H832 C838 0.949 . S
C833 H828 0.950 . S
C833 C835 1.327 . S
C833 C839 1.429 . S
C834 C826 1.574 . S
C834 H829 0.949 . S
C834 C840 1.368 . S
C835 C819 1.349 . S
C835 H827 0.950 . S
C835 C833 1.327 . S
C836 C824 1.349 . S
C836 H830 0.950 . S
C836 C837 1.327 . S
C837 H831 0.950 . S
C837 C836 1.327 . S
C837 C841 1.429 . S
C838 C821 1.574 . S
C838 H832 0.949 . S
C838 C842 1.368 . S
C839 C820 1.429 . S
C839 C833 1.429 . S
C839 C840 1.523 . S
C840 C821 1.368 . S
C840 C834 1.368 . S
C840 C839 1.523 . S
C841 C825 1.429 . S
C841 C837 1.429 . S
C841 C842 1.523 . S
C842 C826 1.368 . S
C842 C838 1.368 . S
C842 C841 1.523 . S
H843 C818 0.950 . S
H844 C820 0.950 . S
H845 C821 0.949 . S
H846 C823 0.950 . S
H847 C825 0.950 . S
C848 C849 1.349 . S
C848 C850 1.327 . S
C848 H873 0.950 . S
C849 C848 1.349 . S
C849 C865 1.349 . S
C850 C848 1.327 . S
C850 C869 1.429 . S
C850 H874 0.950 . S
C851 C868 1.574 . S
C851 C870 1.368 . S
C851 H875 0.949 . S
H852 C856 0.949 . S
C853 C854 1.349 . S
C853 C855 1.327 . S
C853 H876 0.950 . S
C854 C853 1.349 . S
C854 C866 1.349 . S
C855 C853 1.327 . S
C855 C871 1.429 . S
C855 H877 0.950 . S
C856 H852 0.949 . S
C856 C864 1.574 . S
C856 C872 1.368 . S
H857 C865 0.950 . S
H858 C863 0.950 . S
H859 C864 0.949 . S
H860 C866 0.950 . S
H861 C867 0.950 . S
H862 C868 0.949 . S
C863 H858 0.950 . S
C863 C865 1.327 . S
C863 C869 1.429 . S
C864 C856 1.574 . S
C864 H859 0.949 . S
C864 C870 1.368 . S
C865 C849 1.349 . S
C865 H857 0.950 . S
C865 C863 1.327 . S
C866 C854 1.349 . S
C866 H860 0.950 . S
C866 C867 1.327 . S
C867 H861 0.950 . S
C867 C866 1.327 . S
C867 C871 1.429 . S
C868 C851 1.574 . S
C868 H862 0.949 . S
C868 C872 1.368 . S
C869 C850 1.429 . S
C869 C863 1.429 . S
C869 C870 1.523 . S
C870 C851 1.368 . S
C870 C864 1.368 . S
C870 C869 1.523 . S
C871 C855 1.429 . S
C871 C867 1.429 . S
C871 C872 1.523 . S
C872 C856 1.368 . S
C872 C868 1.368 . S
C872 C871 1.523 . S
H873 C848 0.950 . S
H874 C850 0.950 . S
H875 C851 0.949 . S
H876 C853 0.950 . S
H877 C855 0.950 . S
C878 C879 1.349 . S
C878 C880 1.327 . S
C878 H903 0.950 . S
C879 C878 1.349 . S
C879 C895 1.349 . S
C880 C878 1.327 . S
C880 C899 1.429 . S
C880 H904 0.950 . S
C881 C898 1.574 . S
C881 C900 1.368 . S
C881 H905 0.949 . S
H882 C886 0.949 . S
C883 C884 1.349 . S
C883 C885 1.327 . S
C883 H906 0.950 . S
C884 C883 1.349 . S
C884 C896 1.349 . S
C885 C883 1.327 . S
C885 C901 1.429 . S
C885 H907 0.950 . S
C886 H882 0.949 . S
C886 C894 1.574 . S
C886 C902 1.368 . S
H887 C895 0.950 . S
H888 C893 0.950 . S
H889 C894 0.949 . S
H890 C896 0.950 . S
H891 C897 0.950 . S
H892 C898 0.949 . S
C893 H888 0.950 . S
C893 C895 1.327 . S
C893 C899 1.429 . S
C894 C886 1.574 . S
C894 H889 0.949 . S
C894 C900 1.368 . S
C895 C879 1.349 . S
C895 H887 0.950 . S
C895 C893 1.327 . S
C896 C884 1.349 . S
C896 H890 0.950 . S
C896 C897 1.327 . S
C897 H891 0.950 . S
C897 C896 1.327 . S
C897 C901 1.429 . S
C898 C881 1.574 . S
C898 H892 0.949 . S
C898 C902 1.368 . S
C899 C880 1.429 . S
C899 C893 1.429 . S
C899 C900 1.523 . S
C900 C881 1.368 . S
C900 C894 1.368 . S
C900 C899 1.523 . S
C901 C885 1.429 . S
C901 C897 1.429 . S
C901 C902 1.523 . S
C902 C886 1.368 . S
C902 C898 1.368 . S
C902 C901 1.523 . S
H903 C878 0.950 . S
H904 C880 0.950 . S
H905 C881 0.949 . S
H906 C883 0.950 . S
H907 C885 0.950 . S
C908 C909 1.349 . S
C908 C910 1.327 . S
C908 H933 0.950 . S
C909 C908 1.349 . S
C909 C925 1.349 . S
C910 C908 1.327 . S
C910 C929 1.429 . S
C910 H934 0.950 . S
C911 C928 1.574 . S
C911 C930 1.368 . S
C911 H935 0.949 . S
H912 C916 0.949 . S
C913 C914 1.349 . S
C913 C915 1.327 . S
C913 H936 0.950 . S
C914 C913 1.349 . S
C914 C926 1.349 . S
C915 C913 1.327 . S
C915 C931 1.429 . S
C915 H937 0.950 . S
C916 H912 0.949 . S
C916 C924 1.574 . S
C916 C932 1.368 . S
H917 C925 0.950 . S
H918 C923 0.950 . S
H919 C924 0.949 . S
H920 C926 0.950 . S
H921 C927 0.950 . S
H922 C928 0.949 . S
C923 H918 0.950 . S
C923 C925 1.327 . S
C923 C929 1.429 . S
C924 C916 1.574 . S
C924 H919 0.949 . S
C924 C930 1.368 . S
C925 C909 1.349 . S
C925 H917 0.950 . S
C925 C923 1.327 . S
C926 C914 1.349 . S
C926 H920 0.950 . S
C926 C927 1.327 . S
C927 H921 0.950 . S
C927 C926 1.327 . S
C927 C931 1.429 . S
C928 C911 1.574 . S
C928 H922 0.949 . S
C928 C932 1.368 . S
C929 C910 1.429 . S
C929 C923 1.429 . S
C929 C930 1.523 . S
C930 C911 1.368 . S
C930 C924 1.368 . S
C930 C929 1.523 . S
C931 C915 1.429 . S
C931 C927 1.429 . S
C931 C932 1.523 . S
C932 C916 1.368 . S
C932 C928 1.368 . S
C932 C931 1.523 . S
H933 C908 0.950 . S
H934 C910 0.950 . S
H935 C911 0.949 . S
H936 C913 0.950 . S
H937 C915 0.950 . S
C938 C939 1.349 . S
C938 C940 1.327 . S
C938 H963 0.950 . S
C939 C938 1.349 . S
C939 C955 1.349 . S
C940 C938 1.327 . S
C940 C959 1.429 . S
C940 H964 0.950 . S
C941 C958 1.574 . S
C941 C960 1.368 . S
C941 H965 0.949 . S
H942 C946 0.949 . S
C943 C944 1.349 . S
C943 C945 1.327 . S
C943 H966 0.950 . S
C944 C943 1.349 . S
C944 C956 1.349 . S
C945 C943 1.327 . S
C945 C961 1.429 . S
C945 H967 0.950 . S
C946 H942 0.949 . S
C946 C954 1.574 . S
C946 C962 1.368 . S
H947 C955 0.950 . S
H948 C953 0.950 . S
H949 C954 0.949 . S
H950 C956 0.950 . S
H951 C957 0.950 . S
H952 C958 0.949 . S
C953 H948 0.950 . S
C953 C955 1.327 . S
C953 C959 1.429 . S
C954 C946 1.574 . S
C954 H949 0.949 . S
C954 C960 1.368 . S
C955 C939 1.349 . S
C955 H947 0.950 . S
C955 C953 1.327 . S
C956 C944 1.349 . S
C956 H950 0.950 . S
C956 C957 1.327 . S
C957 H951 0.950 . S
C957 C956 1.327 . S
C957 C961 1.429 . S
C958 C941 1.574 . S
C958 H952 0.949 . S
C958 C962 1.368 . S
C959 C940 1.429 . S
C959 C953 1.429 . S
C959 C960 1.523 . S
C960 C941 1.368 . S
C960 C954 1.368 . S
C960 C959 1.523 . S
C961 C945 1.429 . S
C961 C957 1.429 . S
C961 C962 1.523 . S
C962 C946 1.368 . S
C962 C958 1.368 . S
C962 C961 1.523 . S
H963 C938 0.950 . S
H964 C940 0.950 . S
H965 C941 0.949 . S
H966 C943 0.950 . S
H967 C945 0.950 . S
C249 C4 1.129 . S
C254 C95 1.152 . S
C279 C16 1.292 . S
C284 C144 1.301 . S
C314 C170 1.916 . S
C309 C32 1.929 . S
C339 C43 2.165 . S
C344 C218 2.116 1_655 S
C374 C130 2.819 . S
C369 C5 2.735 . S
C404 C98 0.543 . S
C399 C21 0.530 . S
C434 C219 1.794 . S
C429 C27 1.819 . S
C464 C187 1.399 . S
C459 C37 1.410 . S
C489 C10 1.541 . S
C494 C215 1.559 . S
C524 C147 2.509 1_556 S
C519 C26 2.590 . S
C549 C38 2.035 . S
C554 C99 2.035 . S
C579 C15 0.949 . S
C584 C184 0.949 . S
C614 C104 1.366 . S
C609 C48 1.347 . S
C639 C59 1.033 . S
C644 C135 1.033 . S
C669 C76 2.382 . S
C674 C179 2.355 . S
C699 C87 1.970 . S
C704 C227 1.945 . S
C729 C54 1.990 . S
C734 C139 2.048 1_556 S
C764 C107 1.573 . S
C759 C60 1.614 . S
C794 C210 1.668 . S
C789 C71 1.682 . S
C824 C178 1.373 . S
C819 C82 1.414 . S
C849 C49 1.826 . S
C854 C224 1.894 . S
C884 C138 1.915 . S
C879 C70 1.978 . S
C914 C90 2.542 . S
C909 C81 2.551 . S
C939 C65 0.792 . S
C944 C175 0.792 . S
