# Generated by pormake.
# Topology nom, (4,4)-cn, num edge types: 1
# Building blocks:
#     Node 0, Type 0, BuildingBlock: MUDLON_clean_linker_0, # of connection points: 4
#     Node 1, Type 0, BuildingBlock: MUDLON_clean_linker_0, # of connection points: 4
#     Node 2, Type 0, BuildingBlock: MUDLON_clean_linker_0, # of connection points: 4
#     Node 3, Type 0, BuildingBlock: MUDLON_clean_linker_0, # of connection points: 4
#     Node 4, Type 0, BuildingBlock: MUDLON_clean_linker_0, # of connection points: 4
#     Node 5, Type 0, BuildingBlock: MUDLON_clean_linker_0, # of connection points: 4
#     Node 6, Type 1, BuildingBlock: QUQFOY_clean_sbu_3, # of connection points: 4
#     Node 7, Type 1, BuildingBlock: QUQFOY_clean_sbu_3, # of connection points: 4
#     Node 8, Type 1, BuildingBlock: QUQFOY_clean_sbu_3, # of connection points: 4
#     Node 9, Type 1, BuildingBlock: QUQFOY_clean_sbu_3, # of connection points: 4
#     Node 10, Type 1, BuildingBlock: QUQFOY_clean_sbu_3, # of connection points: 4
#     Node 11, Type 1, BuildingBlock: QUQFOY_clean_sbu_3, # of connection points: 4
#     Edge 12, Type (0, 1), BuildingBlock: XIVTED_clean_linker_0, # of connection points: 2
#     Edge 13, Type (0, 1), BuildingBlock: XIVTED_clean_linker_0, # of connection points: 2
#     Edge 14, Type (0, 1), BuildingBlock: XIVTED_clean_linker_0, # of connection points: 2
#     Edge 15, Type (0, 1), BuildingBlock: XIVTED_clean_linker_0, # of connection points: 2
#     Edge 16, Type (0, 1), BuildingBlock: XIVTED_clean_linker_0, # of connection points: 2
#     Edge 17, Type (0, 1), BuildingBlock: XIVTED_clean_linker_0, # of connection points: 2
#     Edge 18, Type (0, 1), BuildingBlock: XIVTED_clean_linker_0, # of connection points: 2
#     Edge 19, Type (0, 1), BuildingBlock: XIVTED_clean_linker_0, # of connection points: 2
#     Edge 20, Type (0, 1), BuildingBlock: XIVTED_clean_linker_0, # of connection points: 2
#     Edge 21, Type (0, 1), BuildingBlock: XIVTED_clean_linker_0, # of connection points: 2
#     Edge 22, Type (0, 1), BuildingBlock: XIVTED_clean_linker_0, # of connection points: 2
#     Edge 23, Type (0, 1), BuildingBlock: XIVTED_clean_linker_0, # of connection points: 2
#     Edge 24, Type (0, 1), BuildingBlock: XIVTED_clean_linker_0, # of connection points: 2
#     Edge 25, Type (0, 1), BuildingBlock: XIVTED_clean_linker_0, # of connection points: 2
#     Edge 26, Type (0, 1), BuildingBlock: XIVTED_clean_linker_0, # of connection points: 2
#     Edge 27, Type (0, 1), BuildingBlock: XIVTED_clean_linker_0, # of connection points: 2
#     Edge 28, Type (0, 1), BuildingBlock: XIVTED_clean_linker_0, # of connection points: 2
#     Edge 29, Type (0, 1), BuildingBlock: XIVTED_clean_linker_0, # of connection points: 2
#     Edge 30, Type (0, 1), BuildingBlock: XIVTED_clean_linker_0, # of connection points: 2
#     Edge 31, Type (0, 1), BuildingBlock: XIVTED_clean_linker_0, # of connection points: 2
#     Edge 32, Type (0, 1), BuildingBlock: XIVTED_clean_linker_0, # of connection points: 2
#     Edge 33, Type (0, 1), BuildingBlock: XIVTED_clean_linker_0, # of connection points: 2
#     Edge 34, Type (0, 1), BuildingBlock: XIVTED_clean_linker_0, # of connection points: 2
#     Edge 35, Type (0, 1), BuildingBlock: XIVTED_clean_linker_0, # of connection points: 2
# Relax obj value: 0.007
# Max RMSD: 0.104
# Mean RMSD: 0.061
data_MOF--net-nom--node1-QUQFOY_clean_sbu_3--node2-MUDLON_clean_linker_0--edge1-XIVTED_clean_linker_0
_symmetry_space_group_name_H-M    P1
_symmetry_Int_Tables_number       1
_symmetry_cell_setting            triclinic
loop_
_symmetry_equiv_pos_as_xyz
'x, y, z'
_cell_length_a     61.161034
_cell_length_b     63.537288
_cell_length_c     61.547357
_cell_angle_alpha  90.422693
_cell_angle_beta   89.714314
_cell_angle_gamma 120.69442
loop_
_atom_site_label
_atom_site_type_symbol
_atom_site_fract_x
_atom_site_fract_y
_atom_site_fract_z
_atom_type_partial_charge
H0 H 0.1335 0.54197 0.31114 0.0
N1 N 0.09078 0.54188 0.31927 0.0
H2 H 0.16878 0.57049 0.28826 0.0
H3 H 0.08847 0.57174 0.28767 0.0
H4 H 0.12288 0.59911 0.26411 0.0
H5 H 0.11373 0.59069 0.32982 0.0
H6 H 0.13585 0.60969 0.36367 0.0
H7 H 0.08997 0.51926 0.35582 0.0
H8 H 0.11165 0.53837 0.39015 0.0
H9 H 0.05486 0.49801 0.30531 0.0
H10 H 0.06729 0.56862 0.32471 0.0
H11 H 0.01026 0.48416 0.29752 0.0
H12 H 0.02347 0.5555 0.31619 0.0
H13 H 0.89146 0.45028 0.26699 0.0
H14 H 0.87283 0.43188 0.23174 0.0
H15 H 0.89852 0.50395 0.20598 0.0
H16 H 0.91718 0.52206 0.2412 0.0
H17 H 0.8904 0.52275 0.28449 0.0
H18 H 0.85426 0.51125 0.3087 0.0
H19 H 0.85791 0.44837 0.32981 0.0
H20 H 0.89402 0.46002 0.30528 0.0
H21 H 0.94415 0.48119 0.2595 0.0
H22 H 0.98556 0.49024 0.27157 0.0
H23 H 0.9808 0.53052 0.32647 0.0
N24 N 0.91494 0.49898 0.27756 0.0
H25 H 0.93973 0.52261 0.31372 0.0
C26 C 0.10829 0.55465 0.3016 0.0
C27 C 0.13087 0.55401 0.30051 0.0
C28 C 0.15104 0.57035 0.28735 0.0
C29 C 0.14892 0.58753 0.27462 0.0
C30 C 0.12549 0.58667 0.2742 0.0
C31 C 0.1055 0.57065 0.28766 0.0
C32 C 0.1005 0.55342 0.34015 0.0
C33 C 0.11284 0.57902 0.34293 0.0
C34 C 0.12549 0.58992 0.36227 0.0
C35 C 0.12555 0.57546 0.37935 0.0
C36 C 0.11176 0.54986 0.37718 0.0
C37 C 0.09945 0.53896 0.35765 0.0
C38 C 0.06445 0.53425 0.31555 0.0
C39 C 0.04793 0.51048 0.30789 0.0
C40 C 0.02253 0.50269 0.30333 0.0
C41 C 0.01318 0.5187 0.30619 0.0
C42 C 0.02975 0.54246 0.31419 0.0
C43 C 0.05501 0.5501 0.31898 0.0
C44 C 0.90562 0.4876 0.25664 0.0
C45 C 0.89313 0.46206 0.25371 0.0
C46 C 0.88247 0.45158 0.23357 0.0
C47 C 0.88418 0.46644 0.21605 0.0
C48 C 0.89721 0.49199 0.219 0.0
C49 C 0.90778 0.5024 0.2391 0.0
C50 C 0.89476 0.49228 0.29309 0.0
C51 C 0.88348 0.50663 0.29451 0.0
C52 C 0.86296 0.50008 0.30843 0.0
C53 C 0.85326 0.47892 0.32123 0.0
C54 C 0.86481 0.46464 0.32 0.0
C55 C 0.88544 0.47128 0.30606 0.0
C56 C 0.93805 0.50081 0.28586 0.0
C57 C 0.95147 0.49161 0.27436 0.0
C58 C 0.97542 0.49675 0.28136 0.0
C59 C 0.98666 0.51119 0.29998 0.0
C60 C 0.97297 0.51968 0.31184 0.0
C61 C 0.94922 0.51484 0.30471 0.0
H62 H 0.4516 0.9012 0.45689 0.0
N63 N 0.42286 0.92165 0.44707 0.0
H64 H 0.44084 0.86873 0.48295 0.0
H65 H 0.38502 0.90373 0.47564 0.0
H66 H 0.37296 0.86993 0.50074 0.0
H67 H 0.38191 0.89016 0.42485 0.0
H68 H 0.38018 0.87001 0.39022 0.0
H69 H 0.46387 0.93028 0.42175 0.0
H70 H 0.46212 0.91084 0.38681 0.0
H71 H 0.47166 0.94287 0.46314 0.0
H72 H 0.41562 0.95848 0.4384 0.0
H73 H 0.50158 0.98629 0.4677 0.0
H74 H 0.44601 0.00244 0.44233 0.0
H75 H 0.57433 0.09293 0.50589 0.0
H76 H 0.5776 0.1084 0.54322 0.0
H77 H 0.52764 0.13504 0.52641 0.0
H78 H 0.52366 0.11897 0.48969 0.0
H79 H 0.51884 0.11026 0.45069 0.0
H80 H 0.53238 0.14923 0.43309 0.0
H81 H 0.61094 0.1696 0.44155 0.0
H82 H 0.59708 0.131 0.46025 0.0
H83 H 0.55843 0.0654 0.45407 0.0
H84 H 0.52728 0.02241 0.44642 0.0
H85 H 0.4673 0.03362 0.47009 0.0
N86 N 0.55022 0.09849 0.47254 0.0
H87 H 0.49842 0.0766 0.47704 0.0
C88 C 0.41919 0.90512 0.46451 0.0
C89 C 0.43495 0.89516 0.46701 0.0
C90 C 0.42849 0.87622 0.48171 0.0
C91 C 0.40577 0.86632 0.49379 0.0
C92 C 0.39074 0.87718 0.49199 0.0
C93 C 0.3975 0.89644 0.47756 0.0
C94 C 0.42287 0.91196 0.4258 0.0
C95 C 0.39947 0.89489 0.41653 0.0
C96 C 0.39852 0.88332 0.3969 0.0
C97 C 0.42103 0.88894 0.38598 0.0
C98 C 0.44453 0.90637 0.39494 0.0
C99 C 0.4455 0.91756 0.41487 0.0
C100 C 0.44109 0.94727 0.4506 0.0
C101 C 0.46564 0.95554 0.45873 0.0
C102 C 0.48297 0.98055 0.46109 0.0
C103 C 0.47627 -0.00211 0.45527 0.0
C104 C 0.45171 0.98958 0.44719 0.0
C105 C 0.43436 0.96453 0.44487 0.0
C106 C 0.54924 0.10514 0.49484 0.0
C107 C 0.56371 0.10166 0.51044 0.0
C108 C 0.56548 0.11039 0.53166 0.0
C109 C 0.553 0.123 0.53747 0.0
C110 C 0.53755 0.12549 0.52219 0.0
C111 C 0.5354 0.11638 0.50114 0.0
C112 C 0.55705 0.11791 0.45717 0.0
C113 C 0.53895 0.12284 0.44837 0.0
C114 C 0.54677 0.1452 0.43817 0.0
C115 C 0.5728 0.16288 0.43634 0.0
C116 C 0.59075 0.15676 0.44325 0.0
C117 C 0.5829 0.13459 0.45368 0.0
C118 C 0.53087 0.07415 0.4662 0.0
C119 C 0.53849 0.05858 0.45727 0.0
C120 C 0.5207 0.03402 0.45313 0.0
C121 C 0.49482 0.02449 0.45794 0.0
C122 C 0.48704 0.04039 0.46609 0.0
C123 C 0.50488 0.06501 0.47016 0.0
H124 H 0.44398 0.56401 0.66576 0.0
N125 N 0.41902 0.51592 0.67836 0.0
H126 H 0.4296 0.58198 0.63858 0.0
H127 H 0.37958 0.49257 0.65192 0.0
H128 H 0.36452 0.51044 0.62511 0.0
H129 H 0.38008 0.49808 0.70559 0.0
H130 H 0.37831 0.51396 0.74149 0.0
H131 H 0.45842 0.55528 0.69889 0.0
H132 H 0.45685 0.57145 0.73482 0.0
H133 H 0.46596 0.54252 0.65898 0.0
H134 H 0.4144 0.47371 0.68948 0.0
H135 H 0.4961 0.52892 0.65244 0.0
H136 H 0.44509 0.46037 0.68423 0.0
H137 H 0.59014 0.47771 0.63249 0.0
H138 H 0.60047 0.47128 0.59559 0.0
H139 H 0.52172 0.44021 0.57727 0.0
H140 H 0.51144 0.44578 0.61416 0.0
H141 H 0.5136 0.4133 0.63872 0.0
H142 H 0.51732 0.37967 0.65308 0.0
H143 H 0.57417 0.42919 0.69859 0.0
H144 H 0.57036 0.46306 0.68407 0.0
H145 H 0.55507 0.5065 0.66049 0.0
H146 H 0.52534 0.52044 0.66883 0.0
H147 H 0.4624 0.44704 0.65736 0.0
N148 N 0.54431 0.46189 0.64914 0.0
H149 H 0.49212 0.43321 0.65032 0.0
C150 C 0.41278 0.52683 0.66083 0.0
C151 C 0.4269 0.5521 0.65669 0.0
C152 C 0.41852 0.56241 0.64123 0.0
C153 C 0.3958 0.54771 0.62973 0.0
C154 C 0.38227 0.52231 0.6334 0.0
C155 C 0.39074 0.51203 0.64878 0.0
C156 C 0.41924 0.52547 0.69965 0.0
C157 C 0.39691 0.514 0.71199 0.0
C158 C 0.396 0.52305 0.73247 0.0
C159 C 0.41748 0.54391 0.74097 0.0
C160 C 0.43996 0.55546 0.72858 0.0
C161 C 0.4409 0.54623 0.7081 0.0
C162 C 0.43762 0.50886 0.67438 0.0
C163 C 0.46109 0.52448 0.66432 0.0
C164 C 0.47852 0.51674 0.66084 0.0
C165 C 0.47307 0.49344 0.66771 0.0
C166 C 0.44978 0.47818 0.67823 0.0
C167 C 0.43225 0.48579 0.68139 0.0
C168 C 0.55014 0.46233 0.6263 0.0
C169 C 0.57526 0.47005 0.62034 0.0
C170 C 0.5811 0.46638 0.59921 0.0
C171 C 0.56185 0.45496 0.58347 0.0
C172 C 0.53691 0.4486 0.58909 0.0
C173 C 0.53106 0.4521 0.61027 0.0
C174 C 0.54191 0.44089 0.66027 0.0
C175 C 0.52633 0.41694 0.65221 0.0
C176 C 0.52857 0.39768 0.66033 0.0
C177 C 0.54625 0.40191 0.67675 0.0
C178 C 0.5603 0.4254 0.686 0.0
C179 C 0.55818 0.44474 0.67774 0.0
C180 C 0.52598 0.46893 0.65476 0.0
C181 C 0.53483 0.49345 0.66003 0.0
C182 C 0.51777 0.50139 0.66456 0.0
C183 C 0.49137 0.48492 0.66366 0.0
C184 C 0.48255 0.46022 0.65858 0.0
C185 C 0.49963 0.45225 0.65437 0.0
H186 H 0.12187 0.57003 0.79143 0.0
N187 N 0.09305 0.5217 0.77944 0.0
H188 H 0.15525 0.58701 0.81888 0.0
H189 H 0.1055 0.49724 0.80646 0.0
H190 H 0.13935 0.51408 0.83364 0.0
H191 H 0.1116 0.50222 0.75225 0.0
H192 H 0.1309 0.51753 0.71659 0.0
H193 H 0.09698 0.56151 0.75879 0.0
H194 H 0.11632 0.57705 0.72312 0.0
H195 H 0.07707 0.55105 0.798 0.0
H196 H 0.05129 0.47995 0.7697 0.0
H197 H 0.03323 0.5398 0.80516 0.0
H198 H 0.00718 0.46888 0.77568 0.0
H199 H 0.88048 0.48956 0.82292 0.0
H200 H 0.86151 0.48287 0.85904 0.0
H201 H 0.91264 0.45971 0.88179 0.0
H202 H 0.93067 0.46539 0.84574 0.0
H203 H 0.88864 0.42897 0.82281 0.0
H204 H 0.85176 0.39425 0.80589 0.0
H205 H 0.85677 0.43994 0.75234 0.0
H206 H 0.89346 0.47521 0.76976 0.0
H207 H 0.95088 0.52021 0.79676 0.0
H208 H -0.00507 0.53204 0.78875 0.0
H209 H 0.97715 0.45851 0.80362 0.0
N210 N 0.91298 0.47659 0.80874 0.0
H211 H 0.93323 0.44675 0.81053 0.0
C212 C 0.11116 0.53225 0.79691 0.0
C213 C 0.12524 0.55764 0.80078 0.0
C214 C 0.1445 0.56737 0.81642 0.0
C215 C 0.15009 0.55194 0.82841 0.0
C216 C 0.13535 0.5265 0.82495 0.0
C217 C 0.11609 0.51681 0.80937 0.0
C218 C 0.10297 0.53069 0.75811 0.0
C219 C 0.11241 0.51844 0.74584 0.0
C220 C 0.12331 0.52716 0.72549 0.0
C221 C 0.1251 0.54849 0.71707 0.0
C222 C 0.1154 0.5607 0.72931 0.0
C223 C 0.1043 0.55181 0.74964 0.0
C224 C 0.06745 0.51608 0.78363 0.0
C225 C 0.062 0.53302 0.79327 0.0
C226 C 0.03679 0.52662 0.79714 0.0
C227 C 0.01655 0.50334 0.79113 0.0
C228 C 0.0222 0.48674 0.78102 0.0
C229 C 0.04737 0.49305 0.77743 0.0
C230 C 0.90687 0.4779 0.83129 0.0
C231 C 0.88802 0.48364 0.83587 0.0
C232 C 0.87722 0.47982 0.85657 0.0
C233 C 0.88526 0.47034 0.87327 0.0
C234 C 0.90555 0.46644 0.86916 0.0
C235 C 0.91614 0.47 0.8484 0.0
C236 C 0.89361 0.45494 0.79768 0.0
C237 C 0.88206 0.43164 0.80737 0.0
C238 C 0.86098 0.41176 0.79772 0.0
C239 C 0.85144 0.4146 0.77798 0.0
C240 C 0.86389 0.43739 0.76758 0.0
C241 C 0.88474 0.45746 0.77747 0.0
C242 C 0.93874 0.48271 0.80421 0.0
C243 C 0.95658 0.5067 0.79816 0.0
C244 C 0.98177 0.51343 0.79376 0.0
C245 C -0.01031 0.49625 0.79555 0.0
C246 C 0.97171 0.47215 0.80166 0.0
C247 C 0.94649 0.46539 0.80577 0.0
H248 H 0.5109 0.13153 0.97403 0.0
N249 N 0.52445 0.10083 0.95866 0.0
H250 H 0.53677 0.16842 -0.00433 0.0
H251 H 0.56822 0.11173 0.98022 0.0
H252 H 0.5951 0.14937 0.00061 0.0
H253 H 0.57294 0.12113 0.9423 0.0
H254 H 0.5868 0.13754 0.90592 0.0
H255 H 0.49533 0.09734 0.92522 0.0
H256 H 0.50923 0.11301 0.88818 0.0
H257 H 0.48 0.06842 0.97541 0.0
H258 H 0.55104 0.07707 0.95323 0.0
H259 H 0.46299 0.02464 0.98051 0.0
H260 H 0.53396 0.03313 0.95754 0.0
H261 H 0.40783 0.90584 0.00125 0.0
H262 H 0.3994 0.88653 0.03701 0.0
H263 H 0.47498 0.89689 0.03726 0.0
H264 H 0.4834 0.91679 0.00216 0.0
H265 H 0.49123 0.91903 0.965 0.0
H266 H 0.49033 0.88479 0.94561 0.0
H267 H 0.4103 0.85391 0.93285 0.0
H268 H 0.41115 0.88767 0.953 0.0
H269 H 0.42917 0.94571 0.96034 0.0
H270 H 0.44912 0.99004 0.95673 0.0
H271 H 0.51894 -0.0007 0.98302 0.0
N272 N 0.44908 0.92104 0.97689 0.0
H273 H 0.49897 0.95486 0.98587 0.0
C274 C 0.5378 0.1192 0.97515 0.0
C275 C 0.52894 0.13501 0.98039 0.0
C276 C 0.54394 0.15623 -0.00748 0.0
C277 C 0.56844 0.16235 -0.00068 0.0
C278 C 0.5764 0.14537 -0.00438 0.0
C279 C 0.5611 0.12384 0.98379 0.0
C280 C 0.53302 0.10843 0.93669 0.0
C281 C 0.55879 0.11926 0.93078 0.0
C282 C 0.56675 0.12857 0.90993 0.0
C283 C 0.54906 0.12662 0.89445 0.0
C284 C 0.52317 0.11466 0.89992 0.0
C285 C 0.51526 0.10579 0.92097 0.0
C286 C 0.51657 0.0759 0.96382 0.0
C287 C 0.49196 0.06083 0.97184 0.0
C288 C 0.48223 0.03581 0.97449 0.0
C289 C 0.49694 0.02528 0.96901 0.0
C290 C 0.52214 0.04065 0.96193 0.0
C291 C 0.53192 0.06579 0.9594 0.0
C292 C 0.44608 0.91264 -0.00104 0.0
C293 C 0.42267 0.90432 0.0093 0.0
C294 C 0.41785 0.89311 0.0296 0.0
C295 C 0.43641 0.88987 0.03991 0.0
C296 C 0.46032 0.89925 0.02993 0.0
C297 C 0.46514 0.91058 0.00968 0.0
C298 C 0.45103 0.90554 0.96081 0.0
C299 C 0.47362 0.90519 0.95769 0.0
C300 C 0.47313 0.88567 0.94653 0.0
C301 C 0.4502 0.86663 0.93791 0.0
C302 C 0.42827 0.86841 0.93918 0.0
C303 C 0.42869 0.88764 0.95068 0.0
C304 C 0.46244 0.94701 0.97342 0.0
C305 C 0.44886 0.95736 0.96507 0.0
C306 C 0.46023 0.98268 0.96328 0.0
C307 C 0.48552 -0.00173 0.96996 0.0
C308 C 0.49945 0.98782 0.9777 0.0
C309 C 0.48802 0.96236 0.9794 0.0
H310 H 0.51837 0.39242 0.15059 0.0
N311 N 0.51686 0.43076 0.1659 0.0
H312 H 0.55053 0.3925 0.12696 0.0
H313 H 0.55487 0.4708 0.14461 0.0
H314 H 0.58634 0.47098 0.1201 0.0
H315 H 0.56455 0.45733 0.18382 0.0
H316 H 0.577 0.4523 0.22014 0.0
H317 H 0.48663 0.40254 0.1977 0.0
H318 H 0.49905 0.39826 0.23466 0.0
H319 H 0.47678 0.42086 0.14199 0.0
H320 H 0.53515 0.47726 0.18211 0.0
H321 H 0.45801 0.44634 0.13652 0.0
H322 H 0.51575 0.50229 0.17784 0.0
H323 H 0.39204 0.52015 0.12586 0.0
H324 H 0.38665 0.5329 0.08996 0.0
H325 H 0.46749 0.56666 0.07849 0.0
H326 H 0.47271 0.55464 0.11472 0.0
H327 H 0.47136 0.57989 0.14638 0.0
H328 H 0.46751 0.6113 0.16608 0.0
H329 H 0.40095 0.5549 0.19918 0.0
H330 H 0.40433 0.52367 0.1785 0.0
H331 H 0.41342 0.48345 0.15042 0.0
H332 H 0.43409 0.45966 0.15582 0.0
H333 H 0.50754 0.52638 0.15382 0.0
N334 N 0.43515 0.53119 0.14527 0.0
H335 H 0.48638 0.55002 0.1497 0.0
C336 C 0.53402 0.43144 0.14933 0.0
C337 C 0.53294 0.40955 0.14366 0.0
C338 C 0.55132 0.40966 0.13006 0.0
C339 C 0.57118 0.43178 0.12163 0.0
C340 C 0.57161 0.45365 0.12657 0.0
C341 C 0.55335 0.45354 0.1404 0.0
C342 C 0.5246 0.42981 0.18784 0.0
C343 C 0.55007 0.44426 0.19464 0.0
C344 C 0.5572 0.44148 0.21543 0.0
C345 C 0.53897 0.42478 0.22997 0.0
C346 C 0.51339 0.41123 0.22362 0.0
C347 C 0.50632 0.41362 0.20262 0.0
C348 C 0.507 0.44685 0.16269 0.0
C349 C 0.4854 0.43868 0.14973 0.0
C350 C 0.47461 0.45322 0.14682 0.0
C351 C 0.48508 0.47626 0.15705 0.0
C352 C 0.50721 0.48473 0.16962 0.0
C353 C 0.5182 0.47027 0.17228 0.0
C354 C 0.43261 0.53624 0.12295 0.0
C355 C 0.40847 0.52994 0.1154 0.0
C356 C 0.40548 0.53719 0.09483 0.0
C357 C 0.42666 0.55084 0.08127 0.0
C358 C 0.45082 0.55645 0.0886 0.0
C359 C 0.4538 0.54933 0.10929 0.0
C360 C 0.43773 0.54944 0.1607 0.0
C361 C 0.45633 0.57428 0.15826 0.0
C362 C 0.45415 0.59226 0.16966 0.0
C363 C 0.43353 0.58564 0.18383 0.0
C364 C 0.41665 0.56065 0.18794 0.0
C365 C 0.41868 0.54276 0.17635 0.0
C366 C 0.44832 0.51832 0.14947 0.0
C367 C 0.43397 0.49285 0.15134 0.0
C368 C 0.44588 0.47933 0.15417 0.0
C369 C 0.47257 0.49102 0.1549 0.0
C370 C 0.48697 0.51674 0.15345 0.0
C371 C 0.47493 0.53031 0.15091 0.0
C372 C 0.68877 0.43128 0.39595 0.0
O373 O 0.68498 0.44836 0.40189 0.0
Cd374 Cd 0.64564 0.44213 0.4164 0.0
O375 O 0.67112 0.40894 0.39746 0.0
Cd376 Cd 0.62628 0.38491 0.40995 0.0
C377 C 0.60696 0.41202 0.37329 0.0
O378 O 0.63302 0.40986 0.44197 0.0
O379 O 0.59399 0.38234 0.43605 0.0
O380 O 0.63566 0.35384 0.42195 0.0
C381 C 0.61012 0.39935 0.4482 0.0
O382 O 0.61663 0.43087 0.38554 0.0
C383 C 0.61691 0.33605 0.41237 0.0
O384 O 0.6093 0.39372 0.37772 0.0
O385 O 0.6024 0.34097 0.40164 0.0
C386 C 0.29249 0.60245 0.54965 0.0
O387 O 0.27382 0.58626 0.53875 0.0
Cd388 Cd 0.23884 0.59064 0.52826 0.0
O389 O 0.29422 0.62289 0.55405 0.0
Cd390 Cd 0.27107 0.64476 0.54568 0.0
C391 C 0.22363 0.60558 0.57807 0.0
O392 O 0.25561 0.6285 0.50945 0.0
O393 O 0.23619 0.64447 0.52575 0.0
O394 O 0.31165 0.67961 0.53523 0.0
C395 C 0.23957 0.63545 0.50851 0.0
O396 O 0.21791 0.59046 0.56238 0.0
C397 C 0.30936 0.6955 0.54598 0.0
O398 O 0.24334 0.62688 0.57712 0.0
O399 O 0.28934 0.68773 0.5574 0.0
C400 C 0.68786 0.27489 0.72169 0.0
O401 O 0.68705 0.25569 0.71461 0.0
Cd402 Cd 0.64787 0.21986 0.70428 0.0
O403 O 0.66772 0.27611 0.72271 0.0
Cd404 Cd 0.6221 0.25027 0.713 0.0
C405 C 0.61261 0.20827 0.75068 0.0
O406 O 0.62767 0.23346 0.67936 0.0
O407 O 0.58945 0.21466 0.69222 0.0
O408 O 0.62237 0.28516 0.69685 0.0
C409 C 0.60436 0.21786 0.67655 0.0
O410 O 0.62319 0.20072 0.73741 0.0
C411 C 0.6048 0.28419 0.70862 0.0
O412 O 0.61127 0.22716 0.7465 0.0
O413 O 0.5953 0.26754 0.72292 0.0
C414 C 0.30986 0.6006 0.90866 0.0
O415 O 0.30989 0.58261 0.91751 0.0
Cd416 Cd 0.3464 0.58165 0.92964 0.0
O417 O 0.33051 0.62106 0.90627 0.0
Cd418 Cd 0.37668 0.64009 0.91528 0.0
C419 C 0.38184 0.59975 0.88208 0.0
O420 O 0.37018 0.61882 0.94887 0.0
O421 O 0.40921 0.63876 0.93837 0.0
O422 O 0.38064 0.6773 0.93018 0.0
C423 C 0.39308 0.62522 0.95254 0.0
O424 O 0.36908 0.5835 0.8963 0.0
C425 C 0.39615 0.69164 0.91603 0.0
O426 O 0.3865 0.62163 0.88438 0.0
O427 O 0.40243 0.68204 0.9009 0.0
C428 C 0.71729 0.42577 0.05412 0.0
O429 O 0.73756 0.44486 0.0481 0.0
Cd430 Cd 0.77363 0.44394 0.03361 0.0
O431 O 0.71527 0.40482 0.05288 0.0
Cd432 Cd 0.73988 0.38551 0.0413 0.0
C433 C 0.78742 0.41894 0.07711 0.0
O434 O 0.75721 0.41025 0.00887 0.0
O435 O 0.77219 0.38695 0.01628 0.0
O436 O 0.69927 0.35284 0.02812 0.0
C437 C 0.77183 0.40241 0.00361 0.0
O438 O 0.79384 0.43689 0.06438 0.0
C439 C 0.70035 0.33539 0.03688 0.0
O440 O 0.76734 0.39831 0.07366 0.0
O441 O 0.72009 0.34111 0.04803 0.0
C442 C 0.31187 0.72889 0.21859 0.0
O443 O 0.31237 0.74813 0.21231 0.0
Cd444 Cd 0.35045 0.78366 0.19984 0.0
O445 O 0.33214 0.72787 0.21879 0.0
Cd446 Cd 0.37802 0.75374 0.20988 0.0
C447 C 0.38648 0.79785 0.24597 0.0
O448 O 0.37019 0.76818 0.17619 0.0
O449 O 0.40958 0.78588 0.1854 0.0
O450 O 0.37253 0.71444 0.19973 0.0
C451 C 0.39314 0.78324 0.17148 0.0
O452 O 0.37555 0.80422 0.23215 0.0
C453 C 0.39273 0.71765 0.20852 0.0
O454 O 0.38827 0.77895 0.24282 0.0
O455 O 0.40666 0.73805 0.21803 0.0
H456 H 0.16156 0.63535 0.27024 0.0
H457 H 0.30175 0.68239 0.22684 0.0
H458 H 0.18873 0.58623 0.25453 0.0
H459 H 0.2664 0.72636 0.22601 0.0
H460 H 0.2613 0.64726 0.23846 0.0
H461 H 0.20028 0.66903 0.25498 0.0
C462 C 0.17541 0.63147 0.26324 0.0
C463 C 0.17166 0.60773 0.26365 0.0
C464 C 0.2624 0.66457 0.23563 0.0
C465 C 0.21667 0.64668 0.2467 0.0
C466 C 0.28551 0.68468 0.22911 0.0
C467 C 0.28751 0.70741 0.22552 0.0
C468 C 0.24121 0.66727 0.23882 0.0
C469 C 0.26577 0.70922 0.22859 0.0
C470 C 0.19769 0.65085 0.25469 0.0
C471 C 0.19084 0.6042 0.25487 0.0
N472 N 0.24359 0.68946 0.23518 0.0
N473 N 0.21258 0.62349 0.24689 0.0
H474 H 0.55242 0.17868 0.40486 0.0
H475 H 0.64413 0.32031 0.43503 0.0
H476 H 0.61185 0.2055 0.45315 0.0
H477 H 0.57867 0.29427 0.39332 0.0
H478 H 0.6351 0.27841 0.4386 0.0
H479 H 0.5642 0.22099 0.39728 0.0
C480 C 0.56802 0.19339 0.41377 0.0
C481 C 0.58114 0.18839 0.42967 0.0
C482 C 0.62272 0.28182 0.42861 0.0
C483 C 0.59478 0.23685 0.42099 0.0
C484 C 0.62788 0.30578 0.42656 0.0
C485 C 0.61204 0.31079 0.41397 0.0
C486 C 0.60155 0.26265 0.41799 0.0
C487 C 0.59131 0.29121 0.40329 0.0
C488 C 0.57476 0.21755 0.40939 0.0
C489 C 0.60141 0.20831 0.44048 0.0
N490 N 0.58661 0.26797 0.4056 0.0
N491 N 0.6075 0.23156 0.43601 0.0
H492 H 0.39594 0.59061 0.63572 0.0
H493 H 0.29777 0.56317 0.5399 0.0
H494 H 0.37108 0.53018 0.59072 0.0
H495 H 0.33046 0.62886 0.5792 0.0
H496 H 0.32651 0.55218 0.55683 0.0
H497 H 0.37458 0.60647 0.61369 0.0
C498 C 0.38637 0.58086 0.62101 0.0
C499 C 0.38519 0.55888 0.61519 0.0
C500 C 0.32758 0.56911 0.56163 0.0
C501 C 0.36016 0.57675 0.59009 0.0
C502 C 0.31112 0.5754 0.55198 0.0
C503 C 0.31151 0.59686 0.55829 0.0
C504 C 0.34443 0.58427 0.57787 0.0
C505 C 0.3294 0.61207 0.5739 0.0
C506 C 0.37401 0.58988 0.6085 0.0
C507 C 0.3721 0.54692 0.5961 0.0
N508 N 0.34496 0.60535 0.58332 0.0
N509 N 0.35992 0.55588 0.58436 0.0
H510 H 0.80576 0.39066 0.79835 0.0
H511 H 0.73593 0.28646 0.70983 0.0
H512 H 0.84271 0.39268 0.73792 0.0
H513 H 0.69534 0.31104 0.75026 0.0
H514 H 0.77622 0.32122 0.7228 0.0
H515 H 0.7657 0.35697 0.78397 0.0
C516 C 0.80537 0.38387 0.78207 0.0
C517 C 0.82741 0.39428 0.76925 0.0
C518 C 0.75845 0.31898 0.72871 0.0
C519 C 0.78196 0.35581 0.75286 0.0
C520 C 0.73551 0.29915 0.72144 0.0
C521 C 0.71229 0.2959 0.72901 0.0
C522 C 0.75811 0.33527 0.74402 0.0
C523 C 0.71281 0.31293 0.74395 0.0
C524 C 0.78257 0.36482 0.77385 0.0
C525 C 0.82601 0.38507 0.74821 0.0
N526 N 0.73537 0.33176 0.75115 0.0
N527 N 0.80364 0.36612 0.74069 0.0
H528 H 0.42832 0.83968 0.9008 0.0
H529 H 0.40424 0.71816 0.95292 0.0
H530 H 0.46568 0.83983 0.9601 0.0
H531 H 0.41258 0.72563 0.88329 0.0
H532 H 0.42171 0.76227 0.95618 0.0
H533 H 0.41819 0.79744 0.89362 0.0
C534 C 0.4348 0.83098 0.91204 0.0
C535 C 0.44792 0.84321 0.93102 0.0
C536 C 0.41985 0.75427 0.94019 0.0
C537 C 0.43583 0.79508 0.92327 0.0
C538 C 0.40973 0.72913 0.93831 0.0
C539 C 0.40696 0.71832 0.9178 0.0
C540 C 0.42662 0.76865 0.92142 0.0
C541 C 0.41452 0.73337 0.89939 0.0
C542 C 0.42905 0.80699 0.90794 0.0
C543 C 0.45577 0.83114 0.94517 0.0
N544 N 0.4237 0.75784 0.90159 0.0
N545 N 0.44919 0.80758 0.94122 0.0
H546 H 0.56836 0.39768 0.0921 0.0
H547 H 0.71759 0.46696 0.06818 0.0
H548 H 0.62212 0.46648 0.12243 0.0
H549 H 0.66781 0.38911 0.05915 0.0
H550 H 0.68166 0.4695 0.0827 0.0
H551 H 0.6037 0.39677 0.0744 0.0
C552 C 0.58753 0.41262 0.09505 0.0
C553 C 0.59217 0.43209 0.10899 0.0
C554 C 0.67865 0.45189 0.07749 0.0
C555 C 0.63267 0.43131 0.0884 0.0
C556 C 0.69911 0.45043 0.06916 0.0
C557 C 0.69573 0.42776 0.06256 0.0
C558 C 0.65459 0.43061 0.07893 0.0
C559 C 0.67134 0.40693 0.06421 0.0
C560 C 0.60768 0.41211 0.08485 0.0
C561 C 0.61747 0.45122 0.11167 0.0
N562 N 0.65168 0.40887 0.07218 0.0
N563 N 0.63675 0.45031 0.10152 0.0
H564 H 0.37823 0.85214 0.53214 0.0
H565 H 0.3544 0.71634 0.52405 0.0
H566 H 0.41127 0.82718 0.48358 0.0
H567 H 0.30696 0.73475 0.56213 0.0
H568 H 0.38204 0.75948 0.51543 0.0
H569 H 0.35816 0.81164 0.54895 0.0
C570 C 0.38149 0.83832 0.52509 0.0
C571 C 0.39637 0.84319 0.50622 0.0
C572 C 0.36573 0.75416 0.52585 0.0
C573 C 0.37376 0.79696 0.52564 0.0
C574 C 0.34995 0.72951 0.53083 0.0
C575 C 0.32811 0.72188 0.54357 0.0
C576 C 0.35964 0.77139 0.53357 0.0
C577 C 0.32349 0.73982 0.55209 0.0
C578 C 0.37011 0.81524 0.53478 0.0
C579 C 0.40031 0.82461 0.49819 0.0
N580 N 0.33897 0.76376 0.54672 0.0
N581 N 0.38895 0.80236 0.50784 0.0
H582 H 0.55544 0.37436 0.64842 0.0
H583 H 0.5761 0.29477 0.73614 0.0
H584 H 0.5517 0.38652 0.71705 0.0
H585 H 0.61196 0.31211 0.67302 0.0
H586 H 0.56033 0.32281 0.72913 0.0
H587 H 0.56869 0.34504 0.65679 0.0
C588 C 0.55705 0.37057 0.66529 0.0
C589 C 0.55235 0.38278 0.68209 0.0
C590 C 0.57171 0.32044 0.7169 0.0
C591 C 0.56774 0.34939 0.69175 0.0
C592 C 0.58063 0.30445 0.72084 0.0
C593 C 0.59539 0.30118 0.70514 0.0
C594 C 0.57717 0.33272 0.69697 0.0
C595 C 0.60076 0.31417 0.68562 0.0
C596 C 0.56485 0.35402 0.67003 0.0
C597 C 0.55521 0.3775 0.70365 0.0
N598 N 0.5915 0.32921 0.68202 0.0
N599 N 0.56266 0.36108 0.70791 0.0
H600 H 0.15364 0.53451 0.86814 0.0
H601 H 0.3028 0.62999 0.88052 0.0
H602 H 0.19717 0.59287 0.82275 0.0
H603 H 0.26174 0.56291 0.91691 0.0
H604 H 0.26281 0.62101 0.86347 0.0
H605 H 0.19175 0.54906 0.89032 0.0
C606 C 0.17116 0.55045 0.86288 0.0
C607 C 0.17222 0.56228 0.84339 0.0
C608 C 0.26257 0.6084 0.87534 0.0
C609 C 0.21592 0.57917 0.86883 0.0
C610 C 0.28537 0.61355 0.88513 0.0
C611 C 0.28567 0.59703 0.89998 0.0
C612 C 0.23994 0.58668 0.88055 0.0
C613 C 0.26248 0.57603 0.90535 0.0
C614 C 0.1929 0.55881 0.8756 0.0
C615 C 0.19537 0.58322 0.83768 0.0
N616 N 0.24061 0.5714 0.89556 0.0
N617 N 0.21634 0.59087 0.85024 0.0
H618 H 0.60554 0.17646 0.03094 0.0
H619 H 0.65618 0.31908 0.01463 0.0
H620 H 0.57308 0.20562 0.98673 0.0
H621 H 0.69737 0.29319 0.05181 0.0
H622 H 0.62298 0.27694 0.00782 0.0
H623 H 0.637 0.21842 0.04201 0.0
C624 C 0.60488 0.19158 0.02364 0.0
C625 C 0.58645 0.18734 0.00791 0.0
C626 C 0.63922 0.28038 0.01752 0.0
C627 C 0.62227 0.23533 0.02063 0.0
C628 C 0.65823 0.30451 0.02143 0.0
C629 C 0.6797 0.3097 0.03368 0.0
C630 C 0.64159 0.26113 0.02587 0.0
C631 C 0.68117 0.29 0.04219 0.0
C632 C 0.62281 0.21551 0.03002 0.0
C633 C 0.58645 0.20774 -0.00078 0.0
N634 N 0.6624 0.26653 0.03804 0.0
N635 N 0.60405 0.23072 0.00565 0.0
H636 H 0.38684 0.58124 0.18652 0.0
H637 H 0.43781 0.72071 0.21979 0.0
H638 H 0.46635 0.63291 0.1983 0.0
H639 H 0.36265 0.67047 0.19518 0.0
H640 H 0.44808 0.68809 0.21681 0.0
H641 H 0.37705 0.61279 0.19535 0.0
C642 C 0.40226 0.59911 0.19139 0.0
C643 C 0.4275 0.60432 0.19171 0.0
C644 C 0.42934 0.68427 0.21215 0.0
C645 C 0.41637 0.64101 0.20127 0.0
C646 C 0.42346 0.70283 0.21386 0.0
C647 C 0.39939 0.69832 0.20759 0.0
C648 C 0.4109 0.66106 0.20433 0.0
C649 C 0.38151 0.67484 0.20005 0.0
C650 C 0.39665 0.61726 0.19618 0.0
C651 C 0.44665 0.62811 0.19763 0.0
N652 N 0.38763 0.65716 0.19864 0.0
N653 N 0.44071 0.64564 0.20209 0.0
H654 H 0.84268 0.50809 0.3468 0.0
H655 H 0.70314 0.40008 0.37895 0.0
H656 H 0.81207 0.43283 0.32716 0.0
H657 H 0.73158 0.47658 0.39235 0.0
H658 H 0.74426 0.41104 0.36297 0.0
H659 H 0.80349 0.49612 0.36675 0.0
C660 C 0.82772 0.48902 0.34673 0.0
C661 C 0.83058 0.47147 0.33511 0.0
C662 C 0.74151 0.4254 0.36948 0.0
C663 C 0.78565 0.4576 0.35804 0.0
C664 C 0.71803 0.41917 0.37862 0.0
C665 C 0.71381 0.43746 0.3869 0.0
C666 C 0.76094 0.45008 0.36866 0.0
C667 C 0.73387 0.46187 0.38607 0.0
C668 C 0.80538 0.48218 0.35818 0.0
C669 C 0.81077 0.44695 0.33598 0.0
N670 N 0.75651 0.46746 0.37706 0.0
N671 N 0.78906 0.44076 0.34711 0.0
H672 H 0.17606 0.60896 0.37934 0.0
H673 H 0.19124 0.62758 0.50739 0.0
H674 H 0.11252 0.56805 0.42248 0.0
H675 H 0.24985 0.62962 0.46658 0.0
H676 H 0.16278 0.61476 0.47577 0.0
H677 H 0.20417 0.62604 0.41091 0.0
C678 C 0.16802 0.60387 0.3955 0.0
C679 C 0.14202 0.58712 0.39843 0.0
C680 C 0.18194 0.61819 0.47381 0.0
C681 C 0.17389 0.6066 0.4344 0.0
C682 C 0.19818 0.62561 0.49173 0.0
C683 C 0.22284 0.62954 0.48951 0.0
C684 C 0.19071 0.61532 0.45355 0.0
C685 C 0.23091 0.62661 0.46894 0.0
C686 C 0.18404 0.61348 0.41343 0.0
C687 C 0.13252 0.58086 0.41965 0.0
N688 N 0.2149 0.61978 0.45169 0.0
N689 N 0.14847 0.5907 0.43692 0.0
H690 H 0.54608 0.10363 0.57833 0.0
H691 H 0.62601 0.23138 0.6367 0.0
H692 H 0.57211 0.17142 0.54424 0.0
H693 H 0.56288 0.17192 0.67037 0.0
H694 H 0.61179 0.20764 0.60294 0.0
H695 H 0.55697 0.12641 0.61305 0.0
C696 C 0.55397 0.12326 0.57824 0.0
C697 C 0.55815 0.13577 0.55858 0.0
C698 C 0.60104 0.19984 0.61773 0.0
C699 C 0.57102 0.16168 0.5977 0.0
C700 C 0.60917 0.21328 0.63696 0.0
C701 C 0.59553 0.20355 0.65626 0.0
C702 C 0.57949 0.17627 0.6179 0.0
C703 C 0.5738 0.18006 0.65574 0.0
C704 C 0.56006 0.13615 0.59792 0.0
C705 C 0.56845 0.16117 0.55913 0.0
N706 N 0.56654 0.16701 0.63683 0.0
N707 N 0.57483 0.17335 0.57839 0.0
H708 H 0.43495 0.59161 0.75291 0.0
H709 H 0.37638 0.55523 0.87268 0.0
H710 H 0.39668 0.51812 0.77819 0.0
H711 H 0.40686 0.62779 0.84635 0.0
H712 H 0.38812 0.54267 0.83934 0.0
H713 H 0.42934 0.60648 0.78818 0.0
C714 C 0.42563 0.57866 0.76596 0.0
C715 C 0.41607 0.55357 0.76259 0.0
C716 C 0.39235 0.56138 0.84083 0.0
C717 C 0.40946 0.57037 0.80282 0.0
C718 C 0.38565 0.5686 0.85992 0.0
C719 C 0.39043 0.59258 0.8623 0.0
C720 C 0.40392 0.57819 0.82387 0.0
C721 C 0.40268 0.60908 0.8452 0.0
C722 C 0.42231 0.58713 0.78602 0.0
C723 C 0.40398 0.53756 0.77998 0.0
N724 N 0.40888 0.60154 0.82664 0.0
N725 N 0.40096 0.54622 0.79928 0.0
H726 H 0.86395 0.49247 0.89682 0.0
H727 H 0.80329 0.38745 0.98695 0.0
H728 H 0.87339 0.42958 0.89706 0.0
H729 H 0.78065 0.44099 0.97806 0.0
H730 H 0.83274 0.40526 0.95637 0.0
H731 H 0.83709 0.47654 0.92915 0.0
C732 C 0.86049 0.47538 0.90368 0.0
C733 C 0.87097 0.46237 0.89412 0.0
C734 C 0.82132 0.4131 0.96111 0.0
C735 C 0.84038 0.44413 0.93121 0.0
C736 C 0.80451 0.40294 0.97855 0.0
C737 C 0.78943 0.41269 0.98498 0.0
C738 C 0.82319 0.43327 0.95012 0.0
C739 C 0.79182 0.43281 0.97356 0.0
C740 C 0.84519 0.46633 0.92216 0.0
C741 C 0.86611 0.4405 0.90399 0.0
N742 N 0.80841 0.44246 0.9567 0.0
N743 N 0.85113 0.43206 0.92192 0.0
H744 H 0.46715 0.89793 0.07535 0.0
H745 H 0.36153 0.77986 0.1389 0.0
H746 H 0.39188 0.84826 0.05054 0.0
H747 H 0.43972 0.82208 0.15978 0.0
H748 H 0.37203 0.80633 0.10739 0.0
H749 H 0.45715 0.87202 0.10742 0.0
C750 C 0.44853 0.88161 0.07662 0.0
C751 C 0.43032 0.87533 0.06018 0.0
C752 C 0.38695 0.80982 0.11881 0.0
C753 C 0.41873 0.84571 0.09692 0.0
C754 C 0.38096 0.79469 0.13682 0.0
C755 C 0.39979 0.79877 0.15199 0.0
C756 C 0.41195 0.8293 0.11592 0.0
C757 C 0.42464 0.81827 0.14845 0.0
C758 C 0.44283 0.86687 0.09496 0.0
C759 C 0.40639 0.85413 0.0629 0.0
N760 N 0.43 0.83288 0.13079 0.0
N761 N 0.40134 0.84011 0.08087 0.0
H762 H 0.57267 0.4101 0.23821 0.0
H763 H 0.58524 0.43936 0.36383 0.0
H764 H 0.5235 0.43084 0.27008 0.0
H765 H 0.59947 0.38462 0.33667 0.0
H766 H 0.5663 0.44065 0.32919 0.0
H767 H 0.587 0.40489 0.27384 0.0
C768 C 0.56492 0.41351 0.25278 0.0
C769 C 0.54698 0.42092 0.25139 0.0
C770 C 0.57339 0.42823 0.33095 0.0
C771 C 0.56339 0.41534 0.29195 0.0
C772 C 0.58427 0.42755 0.35062 0.0
C773 C 0.59399 0.4119 0.35308 0.0
C774 C 0.57279 0.41359 0.31352 0.0
C775 C 0.59215 0.3969 0.33549 0.0
C776 C 0.57296 0.41043 0.27303 0.0
C777 C 0.53733 0.42504 0.27063 0.0
N778 N 0.58206 0.39835 0.31635 0.0
N779 N 0.54591 0.42247 0.29021 0.0
H780 H 0.44171 0.90945 0.34677 0.0
H781 H 0.39306 0.78204 0.28532 0.0
H782 H 0.39752 0.83983 0.37861 0.0
H783 H 0.40109 0.84573 0.25312 0.0
H784 H 0.40478 0.80486 0.31978 0.0
H785 H 0.43683 0.88784 0.31219 0.0
C786 C 0.43124 0.88963 0.34646 0.0
C787 C 0.41982 0.87631 0.36539 0.0
C788 C 0.40417 0.81383 0.30509 0.0
C789 C 0.41447 0.85166 0.32627 0.0
C790 C 0.39763 0.80091 0.28545 0.0
C791 C 0.39591 0.81198 0.2664 0.0
C792 C 0.40951 0.8381 0.30555 0.0
C793 C 0.40194 0.83645 0.26749 0.0
C794 C 0.42839 0.87736 0.32681 0.0
C795 C 0.40637 0.85067 0.36425 0.0
N796 N 0.4085 0.84872 0.28675 0.0
N797 N 0.40409 0.83913 0.34499 0.0
H798 H 0.53225 0.41279 0.5602 0.0
H799 H 0.64002 0.43996 0.47275 0.0
H800 H 0.60434 0.48068 0.55782 0.0
H801 H 0.56308 0.37908 0.46733 0.0
H802 H 0.62748 0.45461 0.50447 0.0
H803 H 0.54305 0.39997 0.5264 0.0
C804 C 0.55019 0.42521 0.55243 0.0
C805 C 0.56741 0.4479 0.56196 0.0
C806 C 0.6133 0.43809 0.49632 0.0
C807 C 0.58015 0.43295 0.52342 0.0
C808 C 0.62047 0.42965 0.47826 0.0
C809 C 0.60257 0.40821 0.46743 0.0
C810 C 0.58809 0.42491 0.50377 0.0
C811 C 0.57749 0.39567 0.47522 0.0
C812 C 0.55642 0.41775 0.53318 0.0
C813 C 0.59062 0.46289 0.55129 0.0
N814 N 0.571 0.40415 0.49299 0.0
N815 N 0.59636 0.45508 0.53269 0.0
H816 H 0.15966 0.59599 0.7063 0.0
H817 H 0.18131 0.56106 0.58609 0.0
H818 H 0.11919 0.52287 0.67951 0.0
H819 H 0.22887 0.63246 0.61495 0.0
H820 H 0.15567 0.54799 0.61906 0.0
H821 H 0.18229 0.6109 0.67174 0.0
C822 C 0.15534 0.58313 0.69306 0.0
C823 C 0.13764 0.55813 0.69581 0.0
C824 C 0.17167 0.56655 0.61819 0.0
C825 C 0.16356 0.57499 0.65636 0.0
C826 C 0.18635 0.57406 0.59933 0.0
C827 C 0.20742 0.59788 0.59776 0.0
C828 C 0.17801 0.58294 0.63568 0.0
C829 C 0.21289 0.61389 0.61547 0.0
C830 C 0.16837 0.59162 0.67341 0.0
C831 C 0.13296 0.54223 0.6782 0.0
N832 N 0.19832 0.6061 0.63373 0.0
N833 N 0.14588 0.55092 0.65927 0.0
H834 H 0.58258 0.17454 0.88655 0.0
H835 H 0.59635 0.16041 0.7602 0.0
H836 H 0.5356 0.10538 0.85413 0.0
H837 H 0.60544 0.22684 0.78834 0.0
H838 H 0.57979 0.13978 0.79515 0.0
H839 H 0.59738 0.19423 0.8511 0.0
C840 C 0.57549 0.16355 0.8719 0.0
C841 C 0.55792 0.13839 0.87309 0.0
C842 C 0.58535 0.15884 0.79355 0.0
C843 C 0.57488 0.16059 0.83273 0.0
C844 C 0.59489 0.17064 0.77372 0.0
C845 C 0.60226 0.19536 0.77141 0.0
C846 C 0.58379 0.17206 0.81125 0.0
C847 C 0.59986 0.20774 0.7894 0.0
C848 C 0.5838 0.17476 0.85176 0.0
C849 C 0.54912 0.12487 0.85374 0.0
N850 N 0.59108 0.19603 0.80864 0.0
N851 N 0.55789 0.13612 0.83426 0.0
H852 H 0.38759 0.52793 0.05195 0.0
H853 H 0.44033 0.63978 0.96919 0.0
H854 H 0.45861 0.59549 0.06246 0.0
H855 H 0.36082 0.58542 0.97651 0.0
H856 H 0.45022 0.62068 -0.00078 0.0
H857 H 0.38054 0.54558 0.01956 0.0
C858 C 0.40175 0.54645 0.04746 0.0
C859 C 0.42357 0.56032 0.06019 0.0
C860 C 0.43064 0.61299 -0.00584 0.0
C861 C 0.41575 0.58048 0.02288 0.0
C862 C 0.42501 0.62383 0.97707 0.0
C863 C 0.39972 0.61425 0.97049 0.0
C864 C 0.41088 0.59222 0.00437 0.0
C865 C 0.38056 0.59354 0.98119 0.0
C866 C 0.39773 0.55647 0.02893 0.0
C867 C 0.44158 0.58401 0.05313 0.0
N868 N 0.38655 0.58318 -0.00247 0.0
N869 N 0.43721 0.5934 0.03499 0.0
H870 H 0.83713 0.42571 0.20919 0.0
H871 H 0.83629 0.45549 0.08397 0.0
H872 H 0.90217 0.48237 0.17496 0.0
H873 H 0.77487 0.39128 0.1143 0.0
H874 H 0.86132 0.46401 0.1169 0.0
H875 H 0.81481 0.41094 0.17452 0.0
C876 C 0.84688 0.43481 0.19436 0.0
C877 C 0.87148 0.45552 0.19502 0.0
C878 C 0.84246 0.44793 0.11637 0.0
C879 C 0.84588 0.43893 0.15536 0.0
C880 C 0.82809 0.44308 0.09756 0.0
C881 C 0.80332 0.42277 0.09645 0.0
C882 C 0.83195 0.43256 0.13443 0.0
C883 C 0.79385 0.40719 0.11449 0.0
C884 C 0.83407 0.42644 0.17459 0.0
C885 C 0.88305 0.4667 0.1753 0.0
N886 N 0.80808 0.41257 0.13286 0.0
N887 N 0.87008 0.45841 0.15634 0.0
loop_
_geom_bond_atom_site_label_1
_geom_bond_atom_site_label_2
_geom_bond_distance
_geom_bond_site_symmetry_2
_ccdc_geom_bond_type
H0 C27 0.929 . S
N1 C26 1.433 . S
N1 C32 1.435 . S
N1 C38 1.423 . S
H2 C28 0.930 . S
H3 C31 0.931 . S
H4 C30 0.929 . S
H5 C33 0.930 . S
H6 C34 0.932 . S
H7 C37 0.929 . S
H8 C36 0.931 . S
H9 C39 0.929 . S
H10 C43 0.932 . S
H11 C40 0.931 . S
H12 C42 0.929 . S
H13 C45 0.929 . S
H14 C46 0.930 . S
H15 C48 0.929 . S
H16 C49 0.931 . S
H17 C51 0.930 . S
H18 C52 0.932 . S
H19 C54 0.931 . S
H20 C55 0.929 . S
H21 C57 0.929 . S
H22 C58 0.931 . S
H23 C60 0.929 . S
N24 C44 1.433 . S
N24 C50 1.435 . S
N24 C56 1.423 . S
H25 C61 0.932 . S
C26 N1 1.433 . S
C26 C27 1.363 . S
C26 C31 1.370 . S
C27 H0 0.929 . S
C27 C26 1.363 . S
C27 C28 1.385 . S
C28 H2 0.930 . S
C28 C27 1.385 . S
C28 C29 1.357 . S
C29 C28 1.357 . S
C29 C30 1.406 . S
C30 H4 0.929 . S
C30 C29 1.406 . S
C30 C31 1.391 . S
C31 H3 0.931 . S
C31 C26 1.370 . S
C31 C30 1.391 . S
C32 N1 1.435 . S
C32 C33 1.358 . S
C32 C37 1.371 . S
C33 H5 0.930 . S
C33 C32 1.358 . S
C33 C34 1.405 . S
C34 H6 0.932 . S
C34 C33 1.405 . S
C34 C35 1.383 . S
C35 C34 1.383 . S
C35 C36 1.393 . S
C36 H8 0.931 . S
C36 C35 1.393 . S
C36 C37 1.382 . S
C37 H7 0.929 . S
C37 C32 1.371 . S
C37 C36 1.382 . S
C38 N1 1.423 . S
C38 C39 1.362 . S
C38 C43 1.388 . S
C39 H9 0.929 . S
C39 C38 1.362 . S
C39 C40 1.376 . S
C40 H11 0.931 . S
C40 C39 1.376 . S
C40 C41 1.396 . S
C41 C40 1.396 . S
C41 C42 1.348 . S
C41 C59 1.472 1_455 S
C42 H12 0.929 . S
C42 C41 1.348 . S
C42 C43 1.443 . S
C43 H10 0.932 . S
C43 C38 1.388 . S
C43 C42 1.443 . S
C44 N24 1.433 . S
C44 C45 1.363 . S
C44 C49 1.370 . S
C45 H13 0.929 . S
C45 C44 1.363 . S
C45 C46 1.385 . S
C46 H14 0.930 . S
C46 C45 1.385 . S
C46 C47 1.357 . S
C47 C46 1.357 . S
C47 C48 1.406 . S
C48 H15 0.929 . S
C48 C47 1.406 . S
C48 C49 1.391 . S
C49 H16 0.931 . S
C49 C44 1.370 . S
C49 C48 1.391 . S
C50 N24 1.435 . S
C50 C51 1.358 . S
C50 C55 1.371 . S
C51 H17 0.930 . S
C51 C50 1.358 . S
C51 C52 1.405 . S
C52 H18 0.932 . S
C52 C51 1.405 . S
C52 C53 1.383 . S
C53 C52 1.383 . S
C53 C54 1.393 . S
C54 H19 0.931 . S
C54 C53 1.393 . S
C54 C55 1.382 . S
C55 H20 0.929 . S
C55 C50 1.371 . S
C55 C54 1.382 . S
C56 N24 1.423 . S
C56 C57 1.362 . S
C56 C61 1.388 . S
C57 H21 0.929 . S
C57 C56 1.362 . S
C57 C58 1.376 . S
C58 H22 0.931 . S
C58 C57 1.376 . S
C58 C59 1.396 . S
C59 C41 1.472 1_655 S
C59 C58 1.396 . S
C59 C60 1.348 . S
C60 H23 0.929 . S
C60 C59 1.348 . S
C60 C61 1.443 . S
C61 H25 0.932 . S
C61 C56 1.388 . S
C61 C60 1.443 . S
H62 C89 0.929 . S
N63 C88 1.433 . S
N63 C94 1.435 . S
N63 C100 1.423 . S
H64 C90 0.930 . S
H65 C93 0.931 . S
H66 C92 0.929 . S
H67 C95 0.930 . S
H68 C96 0.932 . S
H69 C99 0.929 . S
H70 C98 0.931 . S
H71 C101 0.929 . S
H72 C105 0.932 . S
H73 C102 0.931 . S
H74 C104 0.929 1_545 S
H75 C107 0.929 . S
H76 C108 0.930 . S
H77 C110 0.929 . S
H78 C111 0.931 . S
H79 C113 0.930 . S
H80 C114 0.932 . S
H81 C116 0.931 . S
H82 C117 0.929 . S
H83 C119 0.929 . S
H84 C120 0.931 . S
H85 C122 0.929 . S
N86 C106 1.433 . S
N86 C112 1.435 . S
N86 C118 1.423 . S
H87 C123 0.932 . S
C88 N63 1.433 . S
C88 C89 1.363 . S
C88 C93 1.370 . S
C89 H62 0.929 . S
C89 C88 1.363 . S
C89 C90 1.385 . S
C90 H64 0.930 . S
C90 C89 1.385 . S
C90 C91 1.357 . S
C91 C90 1.357 . S
C91 C92 1.406 . S
C92 H66 0.929 . S
C92 C91 1.406 . S
C92 C93 1.391 . S
C93 H65 0.931 . S
C93 C88 1.370 . S
C93 C92 1.391 . S
C94 N63 1.435 . S
C94 C95 1.358 . S
C94 C99 1.371 . S
C95 H67 0.930 . S
C95 C94 1.358 . S
C95 C96 1.405 . S
C96 H68 0.932 . S
C96 C95 1.405 . S
C96 C97 1.383 . S
C97 C96 1.383 . S
C97 C98 1.393 . S
C98 H70 0.931 . S
C98 C97 1.393 . S
C98 C99 1.382 . S
C99 H69 0.929 . S
C99 C94 1.371 . S
C99 C98 1.382 . S
C100 N63 1.423 . S
C100 C101 1.362 . S
C100 C105 1.388 . S
C101 H71 0.929 . S
C101 C100 1.362 . S
C101 C102 1.376 . S
C102 H73 0.931 . S
C102 C101 1.376 . S
C102 C103 1.396 1_565 S
C103 C102 1.396 1_545 S
C103 C104 1.348 1_545 S
C103 C121 1.472 . S
C104 H74 0.929 1_565 S
C104 C103 1.348 1_565 S
C104 C105 1.443 . S
C105 H72 0.932 . S
C105 C100 1.388 . S
C105 C104 1.443 . S
C106 N86 1.433 . S
C106 C107 1.363 . S
C106 C111 1.370 . S
C107 H75 0.929 . S
C107 C106 1.363 . S
C107 C108 1.385 . S
C108 H76 0.930 . S
C108 C107 1.385 . S
C108 C109 1.357 . S
C109 C108 1.357 . S
C109 C110 1.406 . S
C110 H77 0.929 . S
C110 C109 1.406 . S
C110 C111 1.391 . S
C111 H78 0.931 . S
C111 C106 1.370 . S
C111 C110 1.391 . S
C112 N86 1.435 . S
C112 C113 1.358 . S
C112 C117 1.371 . S
C113 H79 0.930 . S
C113 C112 1.358 . S
C113 C114 1.405 . S
C114 H80 0.932 . S
C114 C113 1.405 . S
C114 C115 1.383 . S
C115 C114 1.383 . S
C115 C116 1.393 . S
C116 H81 0.931 . S
C116 C115 1.393 . S
C116 C117 1.382 . S
C117 H82 0.929 . S
C117 C112 1.371 . S
C117 C116 1.382 . S
C118 N86 1.423 . S
C118 C119 1.362 . S
C118 C123 1.388 . S
C119 H83 0.929 . S
C119 C118 1.362 . S
C119 C120 1.376 . S
C120 H84 0.931 . S
C120 C119 1.376 . S
C120 C121 1.396 . S
C121 C103 1.472 . S
C121 C120 1.396 . S
C121 C122 1.348 . S
C122 H85 0.929 . S
C122 C121 1.348 . S
C122 C123 1.443 . S
C123 H87 0.932 . S
C123 C118 1.388 . S
C123 C122 1.443 . S
H124 C151 0.929 . S
N125 C150 1.433 . S
N125 C156 1.435 . S
N125 C162 1.423 . S
H126 C152 0.930 . S
H127 C155 0.931 . S
H128 C154 0.929 . S
H129 C157 0.930 . S
H130 C158 0.932 . S
H131 C161 0.929 . S
H132 C160 0.931 . S
H133 C163 0.929 . S
H134 C167 0.932 . S
H135 C164 0.931 . S
H136 C166 0.929 . S
H137 C169 0.929 . S
H138 C170 0.930 . S
H139 C172 0.929 . S
H140 C173 0.931 . S
H141 C175 0.930 . S
H142 C176 0.932 . S
H143 C178 0.931 . S
H144 C179 0.929 . S
H145 C181 0.929 . S
H146 C182 0.931 . S
H147 C184 0.929 . S
N148 C168 1.433 . S
N148 C174 1.435 . S
N148 C180 1.423 . S
H149 C185 0.932 . S
C150 N125 1.433 . S
C150 C151 1.363 . S
C150 C155 1.370 . S
C151 H124 0.929 . S
C151 C150 1.363 . S
C151 C152 1.385 . S
C152 H126 0.930 . S
C152 C151 1.385 . S
C152 C153 1.357 . S
C153 C152 1.357 . S
C153 C154 1.406 . S
C154 H128 0.929 . S
C154 C153 1.406 . S
C154 C155 1.391 . S
C155 H127 0.931 . S
C155 C150 1.370 . S
C155 C154 1.391 . S
C156 N125 1.435 . S
C156 C157 1.358 . S
C156 C161 1.371 . S
C157 H129 0.930 . S
C157 C156 1.358 . S
C157 C158 1.405 . S
C158 H130 0.932 . S
C158 C157 1.405 . S
C158 C159 1.383 . S
C159 C158 1.383 . S
C159 C160 1.393 . S
C160 H132 0.931 . S
C160 C159 1.393 . S
C160 C161 1.382 . S
C161 H131 0.929 . S
C161 C156 1.371 . S
C161 C160 1.382 . S
C162 N125 1.423 . S
C162 C163 1.362 . S
C162 C167 1.388 . S
C163 H133 0.929 . S
C163 C162 1.362 . S
C163 C164 1.376 . S
C164 H135 0.931 . S
C164 C163 1.376 . S
C164 C165 1.396 . S
C165 C164 1.396 . S
C165 C166 1.348 . S
C165 C183 1.472 . S
C166 H136 0.929 . S
C166 C165 1.348 . S
C166 C167 1.443 . S
C167 H134 0.932 . S
C167 C162 1.388 . S
C167 C166 1.443 . S
C168 N148 1.433 . S
C168 C169 1.363 . S
C168 C173 1.370 . S
C169 H137 0.929 . S
C169 C168 1.363 . S
C169 C170 1.385 . S
C170 H138 0.930 . S
C170 C169 1.385 . S
C170 C171 1.357 . S
C171 C170 1.357 . S
C171 C172 1.406 . S
C172 H139 0.929 . S
C172 C171 1.406 . S
C172 C173 1.391 . S
C173 H140 0.931 . S
C173 C168 1.370 . S
C173 C172 1.391 . S
C174 N148 1.435 . S
C174 C175 1.358 . S
C174 C179 1.371 . S
C175 H141 0.930 . S
C175 C174 1.358 . S
C175 C176 1.405 . S
C176 H142 0.932 . S
C176 C175 1.405 . S
C176 C177 1.383 . S
C177 C176 1.383 . S
C177 C178 1.393 . S
C178 H143 0.931 . S
C178 C177 1.393 . S
C178 C179 1.382 . S
C179 H144 0.929 . S
C179 C174 1.371 . S
C179 C178 1.382 . S
C180 N148 1.423 . S
C180 C181 1.362 . S
C180 C185 1.388 . S
C181 H145 0.929 . S
C181 C180 1.362 . S
C181 C182 1.376 . S
C182 H146 0.931 . S
C182 C181 1.376 . S
C182 C183 1.396 . S
C183 C165 1.472 . S
C183 C182 1.396 . S
C183 C184 1.348 . S
C184 H147 0.929 . S
C184 C183 1.348 . S
C184 C185 1.443 . S
C185 H149 0.932 . S
C185 C180 1.388 . S
C185 C184 1.443 . S
H186 C213 0.929 . S
N187 C212 1.433 . S
N187 C218 1.435 . S
N187 C224 1.423 . S
H188 C214 0.930 . S
H189 C217 0.931 . S
H190 C216 0.929 . S
H191 C219 0.930 . S
H192 C220 0.932 . S
H193 C223 0.929 . S
H194 C222 0.931 . S
H195 C225 0.929 . S
H196 C229 0.932 . S
H197 C226 0.931 . S
H198 C228 0.929 . S
H199 C231 0.929 . S
H200 C232 0.930 . S
H201 C234 0.929 . S
H202 C235 0.931 . S
H203 C237 0.930 . S
H204 C238 0.932 . S
H205 C240 0.931 . S
H206 C241 0.929 . S
H207 C243 0.929 . S
H208 C244 0.931 . S
H209 C246 0.929 . S
N210 C230 1.433 . S
N210 C236 1.435 . S
N210 C242 1.423 . S
H211 C247 0.932 . S
C212 N187 1.433 . S
C212 C213 1.363 . S
C212 C217 1.370 . S
C213 H186 0.929 . S
C213 C212 1.363 . S
C213 C214 1.385 . S
C214 H188 0.930 . S
C214 C213 1.385 . S
C214 C215 1.357 . S
C215 C214 1.357 . S
C215 C216 1.406 . S
C216 H190 0.929 . S
C216 C215 1.406 . S
C216 C217 1.391 . S
C217 H189 0.931 . S
C217 C212 1.370 . S
C217 C216 1.391 . S
C218 N187 1.435 . S
C218 C219 1.358 . S
C218 C223 1.371 . S
C219 H191 0.930 . S
C219 C218 1.358 . S
C219 C220 1.405 . S
C220 H192 0.932 . S
C220 C219 1.405 . S
C220 C221 1.383 . S
C221 C220 1.383 . S
C221 C222 1.393 . S
C222 H194 0.931 . S
C222 C221 1.393 . S
C222 C223 1.382 . S
C223 H193 0.929 . S
C223 C218 1.371 . S
C223 C222 1.382 . S
C224 N187 1.423 . S
C224 C225 1.362 . S
C224 C229 1.388 . S
C225 H195 0.929 . S
C225 C224 1.362 . S
C225 C226 1.376 . S
C226 H197 0.931 . S
C226 C225 1.376 . S
C226 C227 1.396 . S
C227 C226 1.396 . S
C227 C228 1.348 . S
C227 C245 1.472 1_455 S
C228 H198 0.929 . S
C228 C227 1.348 . S
C228 C229 1.443 . S
C229 H196 0.932 . S
C229 C224 1.388 . S
C229 C228 1.443 . S
C230 N210 1.433 . S
C230 C231 1.363 . S
C230 C235 1.370 . S
C231 H199 0.929 . S
C231 C230 1.363 . S
C231 C232 1.385 . S
C232 H200 0.930 . S
C232 C231 1.385 . S
C232 C233 1.357 . S
C233 C232 1.357 . S
C233 C234 1.406 . S
C234 H201 0.929 . S
C234 C233 1.406 . S
C234 C235 1.391 . S
C235 H202 0.931 . S
C235 C230 1.370 . S
C235 C234 1.391 . S
C236 N210 1.435 . S
C236 C237 1.358 . S
C236 C241 1.371 . S
C237 H203 0.930 . S
C237 C236 1.358 . S
C237 C238 1.405 . S
C238 H204 0.932 . S
C238 C237 1.405 . S
C238 C239 1.383 . S
C239 C238 1.383 . S
C239 C240 1.393 . S
C240 H205 0.931 . S
C240 C239 1.393 . S
C240 C241 1.382 . S
C241 H206 0.929 . S
C241 C236 1.371 . S
C241 C240 1.382 . S
C242 N210 1.423 . S
C242 C243 1.362 . S
C242 C247 1.388 . S
C243 H207 0.929 . S
C243 C242 1.362 . S
C243 C244 1.376 . S
C244 H208 0.931 . S
C244 C243 1.376 . S
C244 C245 1.396 . S
C245 C227 1.472 1_655 S
C245 C244 1.396 . S
C245 C246 1.348 . S
C246 H209 0.929 . S
C246 C245 1.348 . S
C246 C247 1.443 . S
C247 H211 0.932 . S
C247 C242 1.388 . S
C247 C246 1.443 . S
H248 C275 0.929 . S
N249 C274 1.433 . S
N249 C280 1.435 . S
N249 C286 1.423 . S
H250 C276 0.930 . S
H251 C279 0.931 . S
H252 C278 0.929 . S
H253 C281 0.930 . S
H254 C282 0.932 . S
H255 C285 0.929 . S
H256 C284 0.931 . S
H257 C287 0.929 . S
H258 C291 0.932 . S
H259 C288 0.931 . S
H260 C290 0.929 . S
H261 C293 0.929 . S
H262 C294 0.930 . S
H263 C296 0.929 . S
H264 C297 0.931 . S
H265 C299 0.930 1_554 S
H266 C300 0.932 . S
H267 C302 0.931 . S
H268 C303 0.929 . S
H269 C305 0.929 . S
H270 C306 0.931 1_554 S
H271 C308 0.929 . S
N272 C292 1.433 . S
N272 C298 1.435 1_554 S
N272 C304 1.423 1_554 S
H273 C309 0.932 . S
C274 N249 1.433 . S
C274 C275 1.363 . S
C274 C279 1.370 . S
C275 H248 0.929 . S
C275 C274 1.363 . S
C275 C276 1.385 . S
C276 H250 0.930 . S
C276 C275 1.385 . S
C276 C277 1.357 1_556 S
C277 C276 1.357 1_554 S
C277 C278 1.406 . S
C278 H252 0.929 . S
C278 C277 1.406 . S
C278 C279 1.391 1_554 S
C279 H251 0.931 . S
C279 C274 1.370 . S
C279 C278 1.391 1_556 S
C280 N249 1.435 . S
C280 C281 1.358 . S
C280 C285 1.371 . S
C281 H253 0.930 . S
C281 C280 1.358 . S
C281 C282 1.405 . S
C282 H254 0.932 . S
C282 C281 1.405 . S
C282 C283 1.383 . S
C283 C282 1.383 . S
C283 C284 1.393 . S
C284 H256 0.931 . S
C284 C283 1.393 . S
C284 C285 1.382 . S
C285 H255 0.929 . S
C285 C280 1.371 . S
C285 C284 1.382 . S
C286 N249 1.423 . S
C286 C287 1.362 . S
C286 C291 1.388 . S
C287 H257 0.929 . S
C287 C286 1.362 . S
C287 C288 1.376 . S
C288 H259 0.931 . S
C288 C287 1.376 . S
C288 C289 1.396 . S
C289 C288 1.396 . S
C289 C290 1.348 . S
C289 C307 1.472 1_545 S
C290 H260 0.929 . S
C290 C289 1.348 . S
C290 C291 1.443 . S
C291 H258 0.932 . S
C291 C286 1.388 . S
C291 C290 1.443 . S
C292 N272 1.433 . S
C292 C293 1.363 . S
C292 C297 1.370 . S
C293 H261 0.929 . S
C293 C292 1.363 . S
C293 C294 1.385 . S
C294 H262 0.930 . S
C294 C293 1.385 . S
C294 C295 1.357 . S
C295 C294 1.357 . S
C295 C296 1.406 . S
C296 H263 0.929 . S
C296 C295 1.406 . S
C296 C297 1.391 . S
C297 H264 0.931 . S
C297 C292 1.370 . S
C297 C296 1.391 . S
C298 N272 1.435 1_556 S
C298 C299 1.358 . S
C298 C303 1.371 . S
C299 H265 0.930 1_556 S
C299 C298 1.358 . S
C299 C300 1.405 . S
C300 H266 0.932 . S
C300 C299 1.405 . S
C300 C301 1.383 . S
C301 C300 1.383 . S
C301 C302 1.393 . S
C302 H267 0.931 . S
C302 C301 1.393 . S
C302 C303 1.382 . S
C303 H268 0.929 . S
C303 C298 1.371 . S
C303 C302 1.382 . S
C304 N272 1.423 1_556 S
C304 C305 1.362 1_556 S
C304 C309 1.388 . S
C305 H269 0.929 . S
C305 C304 1.362 1_554 S
C305 C306 1.376 1_554 S
C306 H270 0.931 1_556 S
C306 C305 1.376 1_556 S
C306 C307 1.396 . S
C307 C289 1.472 1_565 S
C307 C306 1.396 . S
C307 C308 1.348 . S
C308 H271 0.929 . S
C308 C307 1.348 . S
C308 C309 1.443 . S
C309 H273 0.932 . S
C309 C304 1.388 . S
C309 C308 1.443 . S
H310 C337 0.929 . S
N311 C336 1.433 . S
N311 C342 1.435 . S
N311 C348 1.423 . S
H312 C338 0.930 . S
H313 C341 0.931 . S
H314 C340 0.929 . S
H315 C343 0.930 . S
H316 C344 0.932 . S
H317 C347 0.929 . S
H318 C346 0.931 . S
H319 C349 0.929 . S
H320 C353 0.932 . S
H321 C350 0.931 . S
H322 C352 0.929 . S
H323 C355 0.929 . S
H324 C356 0.930 . S
H325 C358 0.929 . S
H326 C359 0.931 . S
H327 C361 0.930 . S
H328 C362 0.932 . S
H329 C364 0.931 . S
H330 C365 0.929 . S
H331 C367 0.929 . S
H332 C368 0.931 . S
H333 C370 0.929 . S
N334 C354 1.433 . S
N334 C360 1.435 . S
N334 C366 1.423 . S
H335 C371 0.932 . S
C336 N311 1.433 . S
C336 C337 1.363 . S
C336 C341 1.370 . S
C337 H310 0.929 . S
C337 C336 1.363 . S
C337 C338 1.385 . S
C338 H312 0.930 . S
C338 C337 1.385 . S
C338 C339 1.357 . S
C339 C338 1.357 . S
C339 C340 1.406 . S
C340 H314 0.929 . S
C340 C339 1.406 . S
C340 C341 1.391 . S
C341 H313 0.931 . S
C341 C336 1.370 . S
C341 C340 1.391 . S
C342 N311 1.435 . S
C342 C343 1.358 . S
C342 C347 1.371 . S
C343 H315 0.930 . S
C343 C342 1.358 . S
C343 C344 1.405 . S
C344 H316 0.932 . S
C344 C343 1.405 . S
C344 C345 1.383 . S
C345 C344 1.383 . S
C345 C346 1.393 . S
C346 H318 0.931 . S
C346 C345 1.393 . S
C346 C347 1.382 . S
C347 H317 0.929 . S
C347 C342 1.371 . S
C347 C346 1.382 . S
C348 N311 1.423 . S
C348 C349 1.362 . S
C348 C353 1.388 . S
C349 H319 0.929 . S
C349 C348 1.362 . S
C349 C350 1.376 . S
C350 H321 0.931 . S
C350 C349 1.376 . S
C350 C351 1.396 . S
C351 C350 1.396 . S
C351 C352 1.348 . S
C351 C369 1.472 . S
C352 H322 0.929 . S
C352 C351 1.348 . S
C352 C353 1.443 . S
C353 H320 0.932 . S
C353 C348 1.388 . S
C353 C352 1.443 . S
C354 N334 1.433 . S
C354 C355 1.363 . S
C354 C359 1.370 . S
C355 H323 0.929 . S
C355 C354 1.363 . S
C355 C356 1.385 . S
C356 H324 0.930 . S
C356 C355 1.385 . S
C356 C357 1.357 . S
C357 C356 1.357 . S
C357 C358 1.406 . S
C358 H325 0.929 . S
C358 C357 1.406 . S
C358 C359 1.391 . S
C359 H326 0.931 . S
C359 C354 1.370 . S
C359 C358 1.391 . S
C360 N334 1.435 . S
C360 C361 1.358 . S
C360 C365 1.371 . S
C361 H327 0.930 . S
C361 C360 1.358 . S
C361 C362 1.405 . S
C362 H328 0.932 . S
C362 C361 1.405 . S
C362 C363 1.383 . S
C363 C362 1.383 . S
C363 C364 1.393 . S
C364 H329 0.931 . S
C364 C363 1.393 . S
C364 C365 1.382 . S
C365 H330 0.929 . S
C365 C360 1.371 . S
C365 C364 1.382 . S
C366 N334 1.423 . S
C366 C367 1.362 . S
C366 C371 1.388 . S
C367 H331 0.929 . S
C367 C366 1.362 . S
C367 C368 1.376 . S
C368 H332 0.931 . S
C368 C367 1.376 . S
C368 C369 1.396 . S
C369 C351 1.472 . S
C369 C368 1.396 . S
C369 C370 1.348 . S
C370 H333 0.929 . S
C370 C369 1.348 . S
C370 C371 1.443 . S
C371 H335 0.932 . S
C371 C366 1.388 . S
C371 C370 1.443 . S
C372 O373 1.306 . S
C372 O375 1.160 . S
O373 C372 1.306 . S
O373 Cd374 2.228 . S
Cd374 O373 2.228 . S
Cd374 O378 2.273 . S
Cd374 O382 2.277 . S
O375 C372 1.160 . S
O375 Cd376 2.203 . S
Cd376 O375 2.203 . S
Cd376 O378 2.411 . S
Cd376 O379 2.333 . S
Cd376 O380 2.352 . S
Cd376 O384 2.277 . S
Cd376 O385 2.356 . S
C377 O382 1.209 . S
C377 O384 1.226 . S
O378 Cd374 2.273 . S
O378 Cd376 2.411 . S
O378 C381 1.320 . S
O379 Cd376 2.333 . S
O379 C381 1.214 . S
O380 Cd376 2.352 . S
O380 C383 1.258 . S
C381 O378 1.320 . S
C381 O379 1.214 . S
O382 Cd374 2.277 . S
O382 C377 1.209 . S
C383 O380 1.258 . S
C383 O385 1.282 . S
O384 Cd376 2.277 . S
O384 C377 1.226 . S
O385 Cd376 2.356 . S
O385 C383 1.282 . S
C386 O387 1.306 . S
C386 O389 1.160 . S
O387 C386 1.306 . S
O387 Cd388 2.228 . S
Cd388 O387 2.228 . S
Cd388 O392 2.273 . S
Cd388 O396 2.277 . S
O389 C386 1.160 . S
O389 Cd390 2.203 . S
Cd390 O389 2.203 . S
Cd390 O392 2.411 . S
Cd390 O393 2.333 . S
Cd390 O394 2.352 . S
Cd390 O398 2.277 . S
Cd390 O399 2.356 . S
C391 O396 1.209 . S
C391 O398 1.226 . S
O392 Cd388 2.273 . S
O392 Cd390 2.411 . S
O392 C395 1.320 . S
O393 Cd390 2.333 . S
O393 C395 1.214 . S
O394 Cd390 2.352 . S
O394 C397 1.258 . S
C395 O392 1.320 . S
C395 O393 1.214 . S
O396 Cd388 2.277 . S
O396 C391 1.209 . S
C397 O394 1.258 . S
C397 O399 1.282 . S
O398 Cd390 2.277 . S
O398 C391 1.226 . S
O399 Cd390 2.356 . S
O399 C397 1.282 . S
C400 O401 1.306 . S
C400 O403 1.160 . S
O401 C400 1.306 . S
O401 Cd402 2.228 . S
Cd402 O401 2.228 . S
Cd402 O406 2.273 . S
Cd402 O410 2.277 . S
O403 C400 1.160 . S
O403 Cd404 2.203 . S
Cd404 O403 2.203 . S
Cd404 O406 2.411 . S
Cd404 O407 2.333 . S
Cd404 O408 2.352 . S
Cd404 O412 2.277 . S
Cd404 O413 2.356 . S
C405 O410 1.209 . S
C405 O412 1.226 . S
O406 Cd402 2.273 . S
O406 Cd404 2.411 . S
O406 C409 1.320 . S
O407 Cd404 2.333 . S
O407 C409 1.214 . S
O408 Cd404 2.352 . S
O408 C411 1.258 . S
C409 O406 1.320 . S
C409 O407 1.214 . S
O410 Cd402 2.277 . S
O410 C405 1.209 . S
C411 O408 1.258 . S
C411 O413 1.282 . S
O412 Cd404 2.277 . S
O412 C405 1.226 . S
O413 Cd404 2.356 . S
O413 C411 1.282 . S
C414 O415 1.306 . S
C414 O417 1.160 . S
O415 C414 1.306 . S
O415 Cd416 2.228 . S
Cd416 O415 2.228 . S
Cd416 O420 2.273 . S
Cd416 O424 2.277 . S
O417 C414 1.160 . S
O417 Cd418 2.203 . S
Cd418 O417 2.203 . S
Cd418 O420 2.411 . S
Cd418 O421 2.333 . S
Cd418 O422 2.352 . S
Cd418 O426 2.277 . S
Cd418 O427 2.356 . S
C419 O424 1.209 . S
C419 O426 1.226 . S
O420 Cd416 2.273 . S
O420 Cd418 2.411 . S
O420 C423 1.320 . S
O421 Cd418 2.333 . S
O421 C423 1.214 . S
O422 Cd418 2.352 . S
O422 C425 1.258 . S
C423 O420 1.320 . S
C423 O421 1.214 . S
O424 Cd416 2.277 . S
O424 C419 1.209 . S
C425 O422 1.258 . S
C425 O427 1.282 . S
O426 Cd418 2.277 . S
O426 C419 1.226 . S
O427 Cd418 2.356 . S
O427 C425 1.282 . S
C428 O429 1.306 . S
C428 O431 1.160 . S
O429 C428 1.306 . S
O429 Cd430 2.228 . S
Cd430 O429 2.228 . S
Cd430 O434 2.273 . S
Cd430 O438 2.277 . S
O431 C428 1.160 . S
O431 Cd432 2.203 . S
Cd432 O431 2.203 . S
Cd432 O434 2.411 . S
Cd432 O435 2.333 . S
Cd432 O436 2.352 . S
Cd432 O440 2.277 . S
Cd432 O441 2.356 . S
C433 O438 1.209 . S
C433 O440 1.226 . S
O434 Cd430 2.273 . S
O434 Cd432 2.411 . S
O434 C437 1.320 . S
O435 Cd432 2.333 . S
O435 C437 1.214 . S
O436 Cd432 2.352 . S
O436 C439 1.258 . S
C437 O434 1.320 . S
C437 O435 1.214 . S
O438 Cd430 2.277 . S
O438 C433 1.209 . S
C439 O436 1.258 . S
C439 O441 1.282 . S
O440 Cd432 2.277 . S
O440 C433 1.226 . S
O441 Cd432 2.356 . S
O441 C439 1.282 . S
C442 O443 1.306 . S
C442 O445 1.160 . S
O443 C442 1.306 . S
O443 Cd444 2.228 . S
Cd444 O443 2.228 . S
Cd444 O448 2.273 . S
Cd444 O452 2.277 . S
O445 C442 1.160 . S
O445 Cd446 2.203 . S
Cd446 O445 2.203 . S
Cd446 O448 2.411 . S
Cd446 O449 2.333 . S
Cd446 O450 2.352 . S
Cd446 O454 2.277 . S
Cd446 O455 2.356 . S
C447 O452 1.209 . S
C447 O454 1.226 . S
O448 Cd444 2.273 . S
O448 Cd446 2.411 . S
O448 C451 1.320 . S
O449 Cd446 2.333 . S
O449 C451 1.214 . S
O450 Cd446 2.352 . S
O450 C453 1.258 . S
C451 O448 1.320 . S
C451 O449 1.214 . S
O452 Cd444 2.277 . S
O452 C447 1.209 . S
C453 O450 1.258 . S
C453 O455 1.282 . S
O454 Cd446 2.277 . S
O454 C447 1.226 . S
O455 Cd446 2.356 . S
O455 C453 1.282 . S
H456 C462 0.930 . S
H457 C466 0.930 . S
H458 C471 0.929 . S
H459 C469 0.929 . S
H460 C464 0.929 . S
H461 C470 0.929 . S
C462 H456 0.930 . S
C462 C463 1.367 . S
C462 C470 1.378 . S
C463 C462 1.367 . S
C463 C471 1.433 . S
C464 H460 0.929 . S
C464 C466 1.378 . S
C464 C468 1.350 . S
C465 C468 1.463 . S
C465 C470 1.350 . S
C465 N473 1.427 . S
C466 H457 0.930 . S
C466 C464 1.378 . S
C466 C467 1.367 . S
C467 C466 1.367 . S
C467 C469 1.433 . S
C468 C464 1.350 . S
C468 C465 1.463 . S
C468 N472 1.427 . S
C469 H459 0.929 . S
C469 C467 1.433 . S
C469 N472 1.384 . S
C470 H461 0.929 . S
C470 C462 1.378 . S
C470 C465 1.350 . S
C471 H458 0.929 . S
C471 C463 1.433 . S
C471 N473 1.384 . S
N472 C468 1.427 . S
N472 C469 1.384 . S
N473 C465 1.427 . S
N473 C471 1.384 . S
H474 C480 0.930 . S
H475 C484 0.930 . S
H476 C489 0.929 . S
H477 C487 0.929 . S
H478 C482 0.929 . S
H479 C488 0.929 . S
C480 H474 0.930 . S
C480 C481 1.367 . S
C480 C488 1.378 . S
C481 C480 1.367 . S
C481 C489 1.433 . S
C482 H478 0.929 . S
C482 C484 1.378 . S
C482 C486 1.350 . S
C483 C486 1.463 . S
C483 C488 1.350 . S
C483 N491 1.427 . S
C484 H475 0.930 . S
C484 C482 1.378 . S
C484 C485 1.367 . S
C485 C484 1.367 . S
C485 C487 1.433 . S
C486 C482 1.350 . S
C486 C483 1.463 . S
C486 N490 1.427 . S
C487 H477 0.929 . S
C487 C485 1.433 . S
C487 N490 1.384 . S
C488 H479 0.929 . S
C488 C480 1.378 . S
C488 C483 1.350 . S
C489 H476 0.929 . S
C489 C481 1.433 . S
C489 N491 1.384 . S
N490 C486 1.427 . S
N490 C487 1.384 . S
N491 C483 1.427 . S
N491 C489 1.384 . S
H492 C498 0.930 . S
H493 C502 0.930 . S
H494 C507 0.929 . S
H495 C505 0.929 . S
H496 C500 0.929 . S
H497 C506 0.929 . S
C498 H492 0.930 . S
C498 C499 1.367 . S
C498 C506 1.378 . S
C499 C498 1.367 . S
C499 C507 1.433 . S
C500 H496 0.929 . S
C500 C502 1.378 . S
C500 C504 1.350 . S
C501 C504 1.463 . S
C501 C506 1.350 . S
C501 N509 1.427 . S
C502 H493 0.930 . S
C502 C500 1.378 . S
C502 C503 1.367 . S
C503 C502 1.367 . S
C503 C505 1.433 . S
C504 C500 1.350 . S
C504 C501 1.463 . S
C504 N508 1.427 . S
C505 H495 0.929 . S
C505 C503 1.433 . S
C505 N508 1.384 . S
C506 H497 0.929 . S
C506 C498 1.378 . S
C506 C501 1.350 . S
C507 H494 0.929 . S
C507 C499 1.433 . S
C507 N509 1.384 . S
N508 C504 1.427 . S
N508 C505 1.384 . S
N509 C501 1.427 . S
N509 C507 1.384 . S
H510 C516 0.930 . S
H511 C520 0.930 . S
H512 C525 0.929 . S
H513 C523 0.929 . S
H514 C518 0.929 . S
H515 C524 0.929 . S
C516 H510 0.930 . S
C516 C517 1.367 . S
C516 C524 1.378 . S
C517 C516 1.367 . S
C517 C525 1.433 . S
C518 H514 0.929 . S
C518 C520 1.378 . S
C518 C522 1.350 . S
C519 C522 1.463 . S
C519 C524 1.350 . S
C519 N527 1.427 . S
C520 H511 0.930 . S
C520 C518 1.378 . S
C520 C521 1.367 . S
C521 C520 1.367 . S
C521 C523 1.433 . S
C522 C518 1.350 . S
C522 C519 1.463 . S
C522 N526 1.427 . S
C523 H513 0.929 . S
C523 C521 1.433 . S
C523 N526 1.384 . S
C524 H515 0.929 . S
C524 C516 1.378 . S
C524 C519 1.350 . S
C525 H512 0.929 . S
C525 C517 1.433 . S
C525 N527 1.384 . S
N526 C522 1.427 . S
N526 C523 1.384 . S
N527 C519 1.427 . S
N527 C525 1.384 . S
H528 C534 0.930 . S
H529 C538 0.930 . S
H530 C543 0.929 . S
H531 C541 0.929 . S
H532 C536 0.929 . S
H533 C542 0.929 . S
C534 H528 0.930 . S
C534 C535 1.367 . S
C534 C542 1.378 . S
C535 C534 1.367 . S
C535 C543 1.433 . S
C536 H532 0.929 . S
C536 C538 1.378 . S
C536 C540 1.350 . S
C537 C540 1.463 . S
C537 C542 1.350 . S
C537 N545 1.427 . S
C538 H529 0.930 . S
C538 C536 1.378 . S
C538 C539 1.367 . S
C539 C538 1.367 . S
C539 C541 1.433 . S
C540 C536 1.350 . S
C540 C537 1.463 . S
C540 N544 1.427 . S
C541 H531 0.929 . S
C541 C539 1.433 . S
C541 N544 1.384 . S
C542 H533 0.929 . S
C542 C534 1.378 . S
C542 C537 1.350 . S
C543 H530 0.929 . S
C543 C535 1.433 . S
C543 N545 1.384 . S
N544 C540 1.427 . S
N544 C541 1.384 . S
N545 C537 1.427 . S
N545 C543 1.384 . S
H546 C552 0.930 . S
H547 C556 0.930 . S
H548 C561 0.929 . S
H549 C559 0.929 . S
H550 C554 0.929 . S
H551 C560 0.929 . S
C552 H546 0.930 . S
C552 C553 1.367 . S
C552 C560 1.378 . S
C553 C552 1.367 . S
C553 C561 1.433 . S
C554 H550 0.929 . S
C554 C556 1.378 . S
C554 C558 1.350 . S
C555 C558 1.463 . S
C555 C560 1.350 . S
C555 N563 1.427 . S
C556 H547 0.930 . S
C556 C554 1.378 . S
C556 C557 1.367 . S
C557 C556 1.367 . S
C557 C559 1.433 . S
C558 C554 1.350 . S
C558 C555 1.463 . S
C558 N562 1.427 . S
C559 H549 0.929 . S
C559 C557 1.433 . S
C559 N562 1.384 . S
C560 H551 0.929 . S
C560 C552 1.378 . S
C560 C555 1.350 . S
C561 H548 0.929 . S
C561 C553 1.433 . S
C561 N563 1.384 . S
N562 C558 1.427 . S
N562 C559 1.384 . S
N563 C555 1.427 . S
N563 C561 1.384 . S
H564 C570 0.930 . S
H565 C574 0.930 . S
H566 C579 0.929 . S
H567 C577 0.929 . S
H568 C572 0.929 . S
H569 C578 0.929 . S
C570 H564 0.930 . S
C570 C571 1.367 . S
C570 C578 1.378 . S
C571 C570 1.367 . S
C571 C579 1.433 . S
C572 H568 0.929 . S
C572 C574 1.378 . S
C572 C576 1.350 . S
C573 C576 1.463 . S
C573 C578 1.350 . S
C573 N581 1.427 . S
C574 H565 0.930 . S
C574 C572 1.378 . S
C574 C575 1.367 . S
C575 C574 1.367 . S
C575 C577 1.433 . S
C576 C572 1.350 . S
C576 C573 1.463 . S
C576 N580 1.427 . S
C577 H567 0.929 . S
C577 C575 1.433 . S
C577 N580 1.384 . S
C578 H569 0.929 . S
C578 C570 1.378 . S
C578 C573 1.350 . S
C579 H566 0.929 . S
C579 C571 1.433 . S
C579 N581 1.384 . S
N580 C576 1.427 . S
N580 C577 1.384 . S
N581 C573 1.427 . S
N581 C579 1.384 . S
H582 C588 0.930 . S
H583 C592 0.930 . S
H584 C597 0.929 . S
H585 C595 0.929 . S
H586 C590 0.929 . S
H587 C596 0.929 . S
C588 H582 0.930 . S
C588 C589 1.367 . S
C588 C596 1.378 . S
C589 C588 1.367 . S
C589 C597 1.433 . S
C590 H586 0.929 . S
C590 C592 1.378 . S
C590 C594 1.350 . S
C591 C594 1.463 . S
C591 C596 1.350 . S
C591 N599 1.427 . S
C592 H583 0.930 . S
C592 C590 1.378 . S
C592 C593 1.367 . S
C593 C592 1.367 . S
C593 C595 1.433 . S
C594 C590 1.350 . S
C594 C591 1.463 . S
C594 N598 1.427 . S
C595 H585 0.929 . S
C595 C593 1.433 . S
C595 N598 1.384 . S
C596 H587 0.929 . S
C596 C588 1.378 . S
C596 C591 1.350 . S
C597 H584 0.929 . S
C597 C589 1.433 . S
C597 N599 1.384 . S
N598 C594 1.427 . S
N598 C595 1.384 . S
N599 C591 1.427 . S
N599 C597 1.384 . S
H600 C606 0.930 . S
H601 C610 0.930 . S
H602 C615 0.929 . S
H603 C613 0.929 . S
H604 C608 0.929 . S
H605 C614 0.929 . S
C606 H600 0.930 . S
C606 C607 1.367 . S
C606 C614 1.378 . S
C607 C606 1.367 . S
C607 C615 1.433 . S
C608 H604 0.929 . S
C608 C610 1.378 . S
C608 C612 1.350 . S
C609 C612 1.463 . S
C609 C614 1.350 . S
C609 N617 1.427 . S
C610 H601 0.930 . S
C610 C608 1.378 . S
C610 C611 1.367 . S
C611 C610 1.367 . S
C611 C613 1.433 . S
C612 C608 1.350 . S
C612 C609 1.463 . S
C612 N616 1.427 . S
C613 H603 0.929 . S
C613 C611 1.433 . S
C613 N616 1.384 . S
C614 H605 0.929 . S
C614 C606 1.378 . S
C614 C609 1.350 . S
C615 H602 0.929 . S
C615 C607 1.433 . S
C615 N617 1.384 . S
N616 C612 1.427 . S
N616 C613 1.384 . S
N617 C609 1.427 . S
N617 C615 1.384 . S
H618 C624 0.930 . S
H619 C628 0.930 . S
H620 C633 0.929 1_556 S
H621 C631 0.929 . S
H622 C626 0.929 . S
H623 C632 0.929 . S
C624 H618 0.930 . S
C624 C625 1.367 . S
C624 C632 1.378 . S
C625 C624 1.367 . S
C625 C633 1.433 . S
C626 H622 0.929 . S
C626 C628 1.378 . S
C626 C630 1.350 . S
C627 C630 1.463 . S
C627 C632 1.350 . S
C627 N635 1.427 . S
C628 H619 0.930 . S
C628 C626 1.378 . S
C628 C629 1.367 . S
C629 C628 1.367 . S
C629 C631 1.433 . S
C630 C626 1.350 . S
C630 C627 1.463 . S
C630 N634 1.427 . S
C631 H621 0.929 . S
C631 C629 1.433 . S
C631 N634 1.384 . S
C632 H623 0.929 . S
C632 C624 1.378 . S
C632 C627 1.350 . S
C633 H620 0.929 1_554 S
C633 C625 1.433 . S
C633 N635 1.384 . S
N634 C630 1.427 . S
N634 C631 1.384 . S
N635 C627 1.427 . S
N635 C633 1.384 . S
H636 C642 0.930 . S
H637 C646 0.930 . S
H638 C651 0.929 . S
H639 C649 0.929 . S
H640 C644 0.929 . S
H641 C650 0.929 . S
C642 H636 0.930 . S
C642 C643 1.367 . S
C642 C650 1.378 . S
C643 C642 1.367 . S
C643 C651 1.433 . S
C644 H640 0.929 . S
C644 C646 1.378 . S
C644 C648 1.350 . S
C645 C648 1.463 . S
C645 C650 1.350 . S
C645 N653 1.427 . S
C646 H637 0.930 . S
C646 C644 1.378 . S
C646 C647 1.367 . S
C647 C646 1.367 . S
C647 C649 1.433 . S
C648 C644 1.350 . S
C648 C645 1.463 . S
C648 N652 1.427 . S
C649 H639 0.929 . S
C649 C647 1.433 . S
C649 N652 1.384 . S
C650 H641 0.929 . S
C650 C642 1.378 . S
C650 C645 1.350 . S
C651 H638 0.929 . S
C651 C643 1.433 . S
C651 N653 1.384 . S
N652 C648 1.427 . S
N652 C649 1.384 . S
N653 C645 1.427 . S
N653 C651 1.384 . S
H654 C660 0.930 . S
H655 C664 0.930 . S
H656 C669 0.929 . S
H657 C667 0.929 . S
H658 C662 0.929 . S
H659 C668 0.929 . S
C660 H654 0.930 . S
C660 C661 1.367 . S
C660 C668 1.378 . S
C661 C660 1.367 . S
C661 C669 1.433 . S
C662 H658 0.929 . S
C662 C664 1.378 . S
C662 C666 1.350 . S
C663 C666 1.463 . S
C663 C668 1.350 . S
C663 N671 1.427 . S
C664 H655 0.930 . S
C664 C662 1.378 . S
C664 C665 1.367 . S
C665 C664 1.367 . S
C665 C667 1.433 . S
C666 C662 1.350 . S
C666 C663 1.463 . S
C666 N670 1.427 . S
C667 H657 0.929 . S
C667 C665 1.433 . S
C667 N670 1.384 . S
C668 H659 0.929 . S
C668 C660 1.378 . S
C668 C663 1.350 . S
C669 H656 0.929 . S
C669 C661 1.433 . S
C669 N671 1.384 . S
N670 C666 1.427 . S
N670 C667 1.384 . S
N671 C663 1.427 . S
N671 C669 1.384 . S
H672 C678 0.930 . S
H673 C682 0.930 . S
H674 C687 0.929 . S
H675 C685 0.929 . S
H676 C680 0.929 . S
H677 C686 0.929 . S
C678 H672 0.930 . S
C678 C679 1.367 . S
C678 C686 1.378 . S
C679 C678 1.367 . S
C679 C687 1.433 . S
C680 H676 0.929 . S
C680 C682 1.378 . S
C680 C684 1.350 . S
C681 C684 1.463 . S
C681 C686 1.350 . S
C681 N689 1.427 . S
C682 H673 0.930 . S
C682 C680 1.378 . S
C682 C683 1.367 . S
C683 C682 1.367 . S
C683 C685 1.433 . S
C684 C680 1.350 . S
C684 C681 1.463 . S
C684 N688 1.427 . S
C685 H675 0.929 . S
C685 C683 1.433 . S
C685 N688 1.384 . S
C686 H677 0.929 . S
C686 C678 1.378 . S
C686 C681 1.350 . S
C687 H674 0.929 . S
C687 C679 1.433 . S
C687 N689 1.384 . S
N688 C684 1.427 . S
N688 C685 1.384 . S
N689 C681 1.427 . S
N689 C687 1.384 . S
H690 C696 0.930 . S
H691 C700 0.930 . S
H692 C705 0.929 . S
H693 C703 0.929 . S
H694 C698 0.929 . S
H695 C704 0.929 . S
C696 H690 0.930 . S
C696 C697 1.367 . S
C696 C704 1.378 . S
C697 C696 1.367 . S
C697 C705 1.433 . S
C698 H694 0.929 . S
C698 C700 1.378 . S
C698 C702 1.350 . S
C699 C702 1.463 . S
C699 C704 1.350 . S
C699 N707 1.427 . S
C700 H691 0.930 . S
C700 C698 1.378 . S
C700 C701 1.367 . S
C701 C700 1.367 . S
C701 C703 1.433 . S
C702 C698 1.350 . S
C702 C699 1.463 . S
C702 N706 1.427 . S
C703 H693 0.929 . S
C703 C701 1.433 . S
C703 N706 1.384 . S
C704 H695 0.929 . S
C704 C696 1.378 . S
C704 C699 1.350 . S
C705 H692 0.929 . S
C705 C697 1.433 . S
C705 N707 1.384 . S
N706 C702 1.427 . S
N706 C703 1.384 . S
N707 C699 1.427 . S
N707 C705 1.384 . S
H708 C714 0.930 . S
H709 C718 0.930 . S
H710 C723 0.929 . S
H711 C721 0.929 . S
H712 C716 0.929 . S
H713 C722 0.929 . S
C714 H708 0.930 . S
C714 C715 1.367 . S
C714 C722 1.378 . S
C715 C714 1.367 . S
C715 C723 1.433 . S
C716 H712 0.929 . S
C716 C718 1.378 . S
C716 C720 1.350 . S
C717 C720 1.463 . S
C717 C722 1.350 . S
C717 N725 1.427 . S
C718 H709 0.930 . S
C718 C716 1.378 . S
C718 C719 1.367 . S
C719 C718 1.367 . S
C719 C721 1.433 . S
C720 C716 1.350 . S
C720 C717 1.463 . S
C720 N724 1.427 . S
C721 H711 0.929 . S
C721 C719 1.433 . S
C721 N724 1.384 . S
C722 H713 0.929 . S
C722 C714 1.378 . S
C722 C717 1.350 . S
C723 H710 0.929 . S
C723 C715 1.433 . S
C723 N725 1.384 . S
N724 C720 1.427 . S
N724 C721 1.384 . S
N725 C717 1.427 . S
N725 C723 1.384 . S
H726 C732 0.930 . S
H727 C736 0.930 . S
H728 C741 0.929 . S
H729 C739 0.929 . S
H730 C734 0.929 . S
H731 C740 0.929 . S
C732 H726 0.930 . S
C732 C733 1.367 . S
C732 C740 1.378 . S
C733 C732 1.367 . S
C733 C741 1.433 . S
C734 H730 0.929 . S
C734 C736 1.378 1_556 S
C734 C738 1.350 . S
C735 C738 1.463 . S
C735 C740 1.350 . S
C735 N743 1.427 . S
C736 H727 0.930 . S
C736 C734 1.378 1_554 S
C736 C737 1.367 . S
C737 C736 1.367 . S
C737 C739 1.433 . S
C738 C734 1.350 . S
C738 C735 1.463 . S
C738 N742 1.427 . S
C739 H729 0.929 . S
C739 C737 1.433 . S
C739 N742 1.384 1_554 S
C740 H731 0.929 . S
C740 C732 1.378 . S
C740 C735 1.350 . S
C741 H728 0.929 . S
C741 C733 1.433 . S
C741 N743 1.384 . S
N742 C738 1.427 . S
N742 C739 1.384 1_556 S
N743 C735 1.427 . S
N743 C741 1.384 . S
H744 C750 0.930 . S
H745 C754 0.930 . S
H746 C759 0.929 . S
H747 C757 0.929 . S
H748 C752 0.929 . S
H749 C758 0.929 . S
C750 H744 0.930 . S
C750 C751 1.367 . S
C750 C758 1.378 . S
C751 C750 1.367 . S
C751 C759 1.433 . S
C752 H748 0.929 . S
C752 C754 1.378 . S
C752 C756 1.350 . S
C753 C756 1.463 . S
C753 C758 1.350 . S
C753 N761 1.427 . S
C754 H745 0.930 . S
C754 C752 1.378 . S
C754 C755 1.367 . S
C755 C754 1.367 . S
C755 C757 1.433 . S
C756 C752 1.350 . S
C756 C753 1.463 . S
C756 N760 1.427 . S
C757 H747 0.929 . S
C757 C755 1.433 . S
C757 N760 1.384 . S
C758 H749 0.929 . S
C758 C750 1.378 . S
C758 C753 1.350 . S
C759 H746 0.929 . S
C759 C751 1.433 . S
C759 N761 1.384 . S
N760 C756 1.427 . S
N760 C757 1.384 . S
N761 C753 1.427 . S
N761 C759 1.384 . S
H762 C768 0.930 . S
H763 C772 0.930 . S
H764 C777 0.929 . S
H765 C775 0.929 . S
H766 C770 0.929 . S
H767 C776 0.929 . S
C768 H762 0.930 . S
C768 C769 1.367 . S
C768 C776 1.378 . S
C769 C768 1.367 . S
C769 C777 1.433 . S
C770 H766 0.929 . S
C770 C772 1.378 . S
C770 C774 1.350 . S
C771 C774 1.463 . S
C771 C776 1.350 . S
C771 N779 1.427 . S
C772 H763 0.930 . S
C772 C770 1.378 . S
C772 C773 1.367 . S
C773 C772 1.367 . S
C773 C775 1.433 . S
C774 C770 1.350 . S
C774 C771 1.463 . S
C774 N778 1.427 . S
C775 H765 0.929 . S
C775 C773 1.433 . S
C775 N778 1.384 . S
C776 H767 0.929 . S
C776 C768 1.378 . S
C776 C771 1.350 . S
C777 H764 0.929 . S
C777 C769 1.433 . S
C777 N779 1.384 . S
N778 C774 1.427 . S
N778 C775 1.384 . S
N779 C771 1.427 . S
N779 C777 1.384 . S
H780 C786 0.930 . S
H781 C790 0.930 . S
H782 C795 0.929 . S
H783 C793 0.929 . S
H784 C788 0.929 . S
H785 C794 0.929 . S
C786 H780 0.930 . S
C786 C787 1.367 . S
C786 C794 1.378 . S
C787 C786 1.367 . S
C787 C795 1.433 . S
C788 H784 0.929 . S
C788 C790 1.378 . S
C788 C792 1.350 . S
C789 C792 1.463 . S
C789 C794 1.350 . S
C789 N797 1.427 . S
C790 H781 0.930 . S
C790 C788 1.378 . S
C790 C791 1.367 . S
C791 C790 1.367 . S
C791 C793 1.433 . S
C792 C788 1.350 . S
C792 C789 1.463 . S
C792 N796 1.427 . S
C793 H783 0.929 . S
C793 C791 1.433 . S
C793 N796 1.384 . S
C794 H785 0.929 . S
C794 C786 1.378 . S
C794 C789 1.350 . S
C795 H782 0.929 . S
C795 C787 1.433 . S
C795 N797 1.384 . S
N796 C792 1.427 . S
N796 C793 1.384 . S
N797 C789 1.427 . S
N797 C795 1.384 . S
H798 C804 0.930 . S
H799 C808 0.930 . S
H800 C813 0.929 . S
H801 C811 0.929 . S
H802 C806 0.929 . S
H803 C812 0.929 . S
C804 H798 0.930 . S
C804 C805 1.367 . S
C804 C812 1.378 . S
C805 C804 1.367 . S
C805 C813 1.433 . S
C806 H802 0.929 . S
C806 C808 1.378 . S
C806 C810 1.350 . S
C807 C810 1.463 . S
C807 C812 1.350 . S
C807 N815 1.427 . S
C808 H799 0.930 . S
C808 C806 1.378 . S
C808 C809 1.367 . S
C809 C808 1.367 . S
C809 C811 1.433 . S
C810 C806 1.350 . S
C810 C807 1.463 . S
C810 N814 1.427 . S
C811 H801 0.929 . S
C811 C809 1.433 . S
C811 N814 1.384 . S
C812 H803 0.929 . S
C812 C804 1.378 . S
C812 C807 1.350 . S
C813 H800 0.929 . S
C813 C805 1.433 . S
C813 N815 1.384 . S
N814 C810 1.427 . S
N814 C811 1.384 . S
N815 C807 1.427 . S
N815 C813 1.384 . S
H816 C822 0.930 . S
H817 C826 0.930 . S
H818 C831 0.929 . S
H819 C829 0.929 . S
H820 C824 0.929 . S
H821 C830 0.929 . S
C822 H816 0.930 . S
C822 C823 1.367 . S
C822 C830 1.378 . S
C823 C822 1.367 . S
C823 C831 1.433 . S
C824 H820 0.929 . S
C824 C826 1.378 . S
C824 C828 1.350 . S
C825 C828 1.463 . S
C825 C830 1.350 . S
C825 N833 1.427 . S
C826 H817 0.930 . S
C826 C824 1.378 . S
C826 C827 1.367 . S
C827 C826 1.367 . S
C827 C829 1.433 . S
C828 C824 1.350 . S
C828 C825 1.463 . S
C828 N832 1.427 . S
C829 H819 0.929 . S
C829 C827 1.433 . S
C829 N832 1.384 . S
C830 H821 0.929 . S
C830 C822 1.378 . S
C830 C825 1.350 . S
C831 H818 0.929 . S
C831 C823 1.433 . S
C831 N833 1.384 . S
N832 C828 1.427 . S
N832 C829 1.384 . S
N833 C825 1.427 . S
N833 C831 1.384 . S
H834 C840 0.930 . S
H835 C844 0.930 . S
H836 C849 0.929 . S
H837 C847 0.929 . S
H838 C842 0.929 . S
H839 C848 0.929 . S
C840 H834 0.930 . S
C840 C841 1.367 . S
C840 C848 1.378 . S
C841 C840 1.367 . S
C841 C849 1.433 . S
C842 H838 0.929 . S
C842 C844 1.378 . S
C842 C846 1.350 . S
C843 C846 1.463 . S
C843 C848 1.350 . S
C843 N851 1.427 . S
C844 H835 0.930 . S
C844 C842 1.378 . S
C844 C845 1.367 . S
C845 C844 1.367 . S
C845 C847 1.433 . S
C846 C842 1.350 . S
C846 C843 1.463 . S
C846 N850 1.427 . S
C847 H837 0.929 . S
C847 C845 1.433 . S
C847 N850 1.384 . S
C848 H839 0.929 . S
C848 C840 1.378 . S
C848 C843 1.350 . S
C849 H836 0.929 . S
C849 C841 1.433 . S
C849 N851 1.384 . S
N850 C846 1.427 . S
N850 C847 1.384 . S
N851 C843 1.427 . S
N851 C849 1.384 . S
H852 C858 0.930 . S
H853 C862 0.930 . S
H854 C867 0.929 . S
H855 C865 0.929 . S
H856 C860 0.929 . S
H857 C866 0.929 . S
C858 H852 0.930 . S
C858 C859 1.367 . S
C858 C866 1.378 . S
C859 C858 1.367 . S
C859 C867 1.433 . S
C860 H856 0.929 . S
C860 C862 1.378 . S
C860 C864 1.350 . S
C861 C864 1.463 1_554 S
C861 C866 1.350 . S
C861 N869 1.427 1_554 S
C862 H853 0.930 . S
C862 C860 1.378 . S
C862 C863 1.367 . S
C863 C862 1.367 . S
C863 C865 1.433 . S
C864 C860 1.350 . S
C864 C861 1.463 1_556 S
C864 N868 1.427 . S
C865 H855 0.929 . S
C865 C863 1.433 . S
C865 N868 1.384 . S
C866 H857 0.929 . S
C866 C858 1.378 . S
C866 C861 1.350 . S
C867 H854 0.929 . S
C867 C859 1.433 . S
C867 N869 1.384 1_554 S
N868 C864 1.427 . S
N868 C865 1.384 . S
N869 C861 1.427 1_556 S
N869 C867 1.384 1_556 S
H870 C876 0.930 . S
H871 C880 0.930 . S
H872 C885 0.929 . S
H873 C883 0.929 . S
H874 C878 0.929 . S
H875 C884 0.929 . S
C876 H870 0.930 . S
C876 C877 1.367 . S
C876 C884 1.378 . S
C877 C876 1.367 . S
C877 C885 1.433 . S
C878 H874 0.929 . S
C878 C880 1.378 . S
C878 C882 1.350 . S
C879 C882 1.463 . S
C879 C884 1.350 . S
C879 N887 1.427 . S
C880 H871 0.930 . S
C880 C878 1.378 . S
C880 C881 1.367 . S
C881 C880 1.367 . S
C881 C883 1.433 . S
C882 C878 1.350 . S
C882 C879 1.463 . S
C882 N886 1.427 . S
C883 H873 0.929 . S
C883 C881 1.433 . S
C883 N886 1.384 . S
C884 H875 0.929 . S
C884 C876 1.378 . S
C884 C879 1.350 . S
C885 H872 0.929 . S
C885 C877 1.433 . S
C885 N887 1.384 . S
N886 C882 1.427 . S
N886 C883 1.384 . S
N887 C879 1.427 . S
N887 C885 1.384 . S
C467 C442 1.680 . S
C463 C29 1.569 . S
C481 C115 1.558 . S
C485 C383 1.585 . S
C499 C153 1.557 . S
C503 C386 1.670 . S
C517 C239 1.542 . S
C521 C400 1.571 . S
C539 C425 1.627 . S
C535 C301 1.599 . S
C553 C339 1.798 . S
C557 C428 1.930 . S
C571 C91 1.566 . S
C575 C397 1.666 . S
C589 C177 1.531 . S
C593 C411 1.558 . S
C607 C215 1.551 . S
C611 C414 1.646 . S
C629 C439 1.917 . S
C625 C277 1.797 . S
C647 C453 1.607 . S
C643 C363 1.581 . S
C665 C372 1.530 . S
C661 C53 1.501 . S
C679 C35 1.533 . S
C683 C395 1.561 . S
C697 C109 1.412 . S
C701 C409 1.512 . S
C719 C419 1.467 . S
C715 C159 1.447 . S
C733 C233 1.583 . S
C737 C437 1.701 . S
C755 C451 1.539 . S
C751 C295 1.417 . S
C773 C377 1.416 . S
C769 C345 1.394 . S
C791 C447 1.486 . S
C787 C97 1.471 . S
C805 C171 1.406 . S
C809 C381 1.526 . S
C827 C391 1.587 . S
C823 C221 1.550 . S
C841 C283 1.408 . S
C845 C405 1.430 . S
C859 C357 1.408 . S
C863 C423 1.553 . S
C877 C47 1.600 . S
C881 C433 1.737 . S
