# Generated by pormake.
# Topology pyr, (3,6)-cn, num edge types: 1
# Building blocks:
#     Node 0, Type 0, BuildingBlock: KAKCAD_clean_linker_0, # of connection points: 3
#     Node 1, Type 0, BuildingBlock: KAKCAD_clean_linker_0, # of connection points: 3
#     Node 2, Type 0, BuildingBlock: KAKCAD_clean_linker_0, # of connection points: 3
#     Node 3, Type 0, BuildingBlock: KAKCAD_clean_linker_0, # of connection points: 3
#     Node 4, Type 0, BuildingBlock: KAKCAD_clean_linker_0, # of connection points: 3
#     Node 5, Type 0, BuildingBlock: KAKCAD_clean_linker_0, # of connection points: 3
#     Node 6, Type 0, BuildingBlock: KAKCAD_clean_linker_0, # of connection points: 3
#     Node 7, Type 0, BuildingBlock: KAKCAD_clean_linker_0, # of connection points: 3
#     Node 8, Type 1, BuildingBlock: PAMTUU_clean_sbu_0, # of connection points: 6
#     Node 9, Type 1, BuildingBlock: PAMTUU_clean_sbu_0, # of connection points: 6
#     Node 10, Type 1, BuildingBlock: PAMTUU_clean_sbu_0, # of connection points: 6
#     Node 11, Type 1, BuildingBlock: PAMTUU_clean_sbu_0, # of connection points: 6
#     Edge 12, Type (0, 1), BuildingBlock: TEMPAE_clean_linker_10, # of connection points: 2
#     Edge 13, Type (0, 1), BuildingBlock: TEMPAE_clean_linker_10, # of connection points: 2
#     Edge 14, Type (0, 1), BuildingBlock: TEMPAE_clean_linker_10, # of connection points: 2
#     Edge 15, Type (0, 1), BuildingBlock: TEMPAE_clean_linker_10, # of connection points: 2
#     Edge 16, Type (0, 1), BuildingBlock: TEMPAE_clean_linker_10, # of connection points: 2
#     Edge 17, Type (0, 1), BuildingBlock: TEMPAE_clean_linker_10, # of connection points: 2
#     Edge 18, Type (0, 1), BuildingBlock: TEMPAE_clean_linker_10, # of connection points: 2
#     Edge 19, Type (0, 1), BuildingBlock: TEMPAE_clean_linker_10, # of connection points: 2
#     Edge 20, Type (0, 1), BuildingBlock: TEMPAE_clean_linker_10, # of connection points: 2
#     Edge 21, Type (0, 1), BuildingBlock: TEMPAE_clean_linker_10, # of connection points: 2
#     Edge 22, Type (0, 1), BuildingBlock: TEMPAE_clean_linker_10, # of connection points: 2
#     Edge 23, Type (0, 1), BuildingBlock: TEMPAE_clean_linker_10, # of connection points: 2
#     Edge 24, Type (0, 1), BuildingBlock: TEMPAE_clean_linker_10, # of connection points: 2
#     Edge 25, Type (0, 1), BuildingBlock: TEMPAE_clean_linker_10, # of connection points: 2
#     Edge 26, Type (0, 1), BuildingBlock: TEMPAE_clean_linker_10, # of connection points: 2
#     Edge 27, Type (0, 1), BuildingBlock: TEMPAE_clean_linker_10, # of connection points: 2
#     Edge 28, Type (0, 1), BuildingBlock: TEMPAE_clean_linker_10, # of connection points: 2
#     Edge 29, Type (0, 1), BuildingBlock: TEMPAE_clean_linker_10, # of connection points: 2
#     Edge 30, Type (0, 1), BuildingBlock: TEMPAE_clean_linker_10, # of connection points: 2
#     Edge 31, Type (0, 1), BuildingBlock: TEMPAE_clean_linker_10, # of connection points: 2
#     Edge 32, Type (0, 1), BuildingBlock: TEMPAE_clean_linker_10, # of connection points: 2
#     Edge 33, Type (0, 1), BuildingBlock: TEMPAE_clean_linker_10, # of connection points: 2
#     Edge 34, Type (0, 1), BuildingBlock: TEMPAE_clean_linker_10, # of connection points: 2
#     Edge 35, Type (0, 1), BuildingBlock: TEMPAE_clean_linker_10, # of connection points: 2
# Relax obj value: 0.084
# Max RMSD: 0.122
# Mean RMSD: 0.051
data_MOF--net-pyr--node1-PAMTUU_clean_sbu_0--node2-KAKCAD_clean_linker_0--edge1-TEMPAE_clean_linker_10
_symmetry_space_group_name_H-M    P1
_symmetry_Int_Tables_number       1
_symmetry_cell_setting            triclinic
loop_
_symmetry_equiv_pos_as_xyz
'x, y, z'
_cell_length_a     47.131415
_cell_length_b     48.243267
_cell_length_c     46.838827
_cell_angle_alpha  90.207615
_cell_angle_beta   89.162844
_cell_angle_gamma 100.01319
loop_
_atom_site_label
_atom_site_type_symbol
_atom_site_fract_x
_atom_site_fract_y
_atom_site_fract_z
_atom_type_partial_charge
C0 C 0.2659 0.23577 0.30514 0.0
C1 C 0.28377 0.22661 0.32544 0.0
C2 C 0.27728 0.24705 0.27927 0.0
C3 C 0.307 0.24999 0.27316 0.0
C4 C 0.3251 0.2419 0.29409 0.0
C5 C 0.31354 0.23006 0.3199 0.0
C6 C 0.31823 0.25919 0.24415 0.0
C7 C 0.30497 0.278 0.22844 0.0
C8 C 0.31095 0.28242 0.19924 0.0
C9 C 0.33219 0.26956 0.18602 0.0
C10 C 0.34655 0.25144 0.2016 0.0
C11 C 0.33947 0.24642 0.23062 0.0
C12 C 0.36616 0.23484 0.18698 0.0
C13 C 0.35768 0.22045 0.16154 0.0
C14 C 0.39233 0.23147 0.19939 0.0
C15 C 0.4094 0.21359 0.18689 0.0
C16 C 0.40036 0.19849 0.16199 0.0
C17 C 0.29197 0.29713 0.18214 0.0
C18 C 0.26197 0.28897 0.18491 0.0
C19 C 0.30317 0.31893 0.16319 0.0
C20 C 0.28452 0.33284 0.14783 0.0
C21 C 0.25448 0.32469 0.15083 0.0
C22 C 0.24347 0.30253 0.16941 0.0
C23 C 0.37455 0.20239 0.14924 0.0
H24 H 0.24278 0.23278 0.30861 0.0
H25 H 0.26238 0.25214 0.26356 0.0
H26 H 0.34811 0.24416 0.29033 0.0
H27 H 0.32774 0.22313 0.3353 0.0
H28 H 0.2888 0.28835 0.23855 0.0
H29 H 0.34904 0.2309 0.24198 0.0
H30 H 0.33652 0.27254 0.16334 0.0
H31 H 0.33746 0.22235 0.15168 0.0
H32 H 0.39936 0.24237 0.21899 0.0
H33 H 0.42918 0.2109 0.19715 0.0
H34 H 0.25278 0.27197 0.1991 0.0
H35 H 0.32624 0.3255 0.16067 0.0
H36 H 0.36725 0.19121 0.12986 0.0
H37 H 0.22044 0.29603 0.17243 0.0
H38 H 0.29351 0.34985 0.13359 0.0
C39 C 0.21886 0.81877 0.81174 0.0
C40 C 0.24901 0.82128 0.81256 0.0
C41 C 0.20327 0.80369 0.78977 0.0
C42 C 0.21753 0.79093 0.76811 0.0
C43 C 0.24759 0.79282 0.7695 0.0
C44 C 0.26306 0.80758 0.79153 0.0
C45 C 0.20161 0.77719 0.74317 0.0
C46 C 0.18035 0.78969 0.73011 0.0
C47 C 0.1674 0.77886 0.70453 0.0
C48 C 0.17647 0.75523 0.69195 0.0
C49 C 0.19831 0.74303 0.7043 0.0
C50 C 0.20993 0.75347 0.73038 0.0
C51 C 0.21281 0.72296 0.68798 0.0
C52 C 0.22136 0.69991 0.70164 0.0
C53 C 0.22255 0.72966 0.65993 0.0
C54 C 0.24234 0.71516 0.64675 0.0
C55 C 0.25257 0.69354 0.66125 0.0
C56 C 0.14677 0.79408 0.68975 0.0
C57 C 0.12899 0.80935 0.7055 0.0
C58 C 0.14606 0.79517 0.65974 0.0
C59 C 0.12893 0.81177 0.646 0.0
C60 C 0.11272 0.82857 0.66179 0.0
C61 C 0.11262 0.82669 0.69178 0.0
C62 C 0.241 0.68523 0.68832 0.0
H63 H 0.20738 0.8292 0.82752 0.0
H64 H 0.1801 0.80241 0.78951 0.0
H65 H 0.25945 0.78371 0.75301 0.0
H66 H 0.28621 0.80866 0.7918 0.0
H67 H 0.17533 0.80905 0.73897 0.0
H68 H 0.22691 0.74417 0.73982 0.0
H69 H 0.16729 0.74667 0.67206 0.0
H70 H 0.21408 0.69426 0.72323 0.0
H71 H 0.21657 0.74748 0.64896 0.0
H72 H 0.25073 0.72176 0.62573 0.0
H73 H 0.12819 0.80855 0.7286 0.0
H74 H 0.15951 0.78409 0.64662 0.0
H75 H 0.24858 0.66866 0.69999 0.0
H76 H 0.10075 0.83934 0.70492 0.0
H77 H 0.129 0.81181 0.6229 0.0
C78 C 0.75478 0.43612 0.89011 0.0
C79 C 0.77776 0.42171 0.89549 0.0
C80 C 0.72985 0.4228 0.8759 0.0
C81 C 0.72683 0.39446 0.86719 0.0
C82 C 0.74982 0.3801 0.87258 0.0
C83 C 0.77493 0.39355 0.88623 0.0
C84 C 0.69959 0.37944 0.8535 0.0
C85 C 0.68677 0.39146 0.83055 0.0
C86 C 0.66153 0.37704 0.8172 0.0
C87 C 0.64884 0.35019 0.82821 0.0
C88 C 0.66108 0.33769 0.85138 0.0
C89 C 0.68647 0.35269 0.86354 0.0
C90 C 0.64778 0.30902 0.8632 0.0
C91 C 0.61769 0.30057 0.86617 0.0
C92 C 0.66532 0.29011 0.87281 0.0
C93 C 0.65337 0.26415 0.88538 0.0
C94 C 0.62332 0.25586 0.88888 0.0
C95 C 0.6489 0.38985 0.7916 0.0
C96 C 0.66675 0.40668 0.7715 0.0
C97 C 0.61893 0.38551 0.78679 0.0
C98 C 0.60737 0.3975 0.76305 0.0
C99 C 0.62525 0.41439 0.743 0.0
C100 C 0.65521 0.41868 0.74782 0.0
C101 C 0.60569 0.27454 0.87885 0.0
H102 H 0.75616 0.45784 0.89672 0.0
H103 H 0.71261 0.43453 0.87233 0.0
H104 H 0.74844 0.35833 0.86611 0.0
H105 H 0.79197 0.38164 0.89008 0.0
H106 H 0.6967 0.41212 0.82301 0.0
H107 H 0.69583 0.34383 0.88163 0.0
H108 H 0.62989 0.33852 0.81815 0.0
H109 H 0.60331 0.31438 0.85929 0.0
H110 H 0.68854 0.29535 0.87067 0.0
H111 H 0.66793 0.25081 0.89293 0.0
H112 H 0.68992 0.41042 0.77377 0.0
H113 H 0.60415 0.37303 0.8016 0.0
H114 H 0.58247 0.26904 0.88067 0.0
H115 H 0.66998 0.4317 0.73342 0.0
H116 H 0.58426 0.39317 0.7603 0.0
C117 C 0.87811 0.63161 0.25255 0.0
C118 C 0.90806 0.63437 0.24764 0.0
C119 C 0.86692 0.64392 0.27655 0.0
C120 C 0.88519 0.65944 0.29676 0.0
C121 C 0.91516 0.66232 0.29183 0.0
C122 C 0.92638 0.65001 0.26776 0.0
C123 C 0.87288 0.67228 0.32273 0.0
C124 C 0.84737 0.65818 0.33631 0.0
C125 C 0.83481 0.67 0.35999 0.0
C126 C 0.84822 0.69663 0.36997 0.0
C127 C 0.87392 0.71109 0.35746 0.0
C128 C 0.88619 0.69863 0.33397 0.0
C129 C 0.88749 0.73927 0.36927 0.0
C130 C 0.87067 0.76019 0.37484 0.0
C131 C 0.91677 0.74496 0.3767 0.0
C132 C 0.92863 0.7705 0.39009 0.0
C133 C 0.9117 0.79132 0.39589 0.0
C134 C 0.80775 0.65472 0.37446 0.0
C135 C 0.78549 0.63847 0.35876 0.0
C136 C 0.8037 0.6566 0.40425 0.0
C137 C 0.77823 0.64315 0.41777 0.0
C138 C 0.75586 0.62707 0.40209 0.0
C139 C 0.76004 0.62486 0.37233 0.0
C140 C 0.88262 0.78587 0.3877 0.0
H141 H 0.86309 0.61957 0.23799 0.0
H142 H 0.84374 0.64142 0.27904 0.0
H143 H 0.93012 0.67381 0.3068 0.0
H144 H 0.94953 0.65306 0.26482 0.0
H145 H 0.83761 0.6375 0.32885 0.0
H146 H 0.90558 0.70999 0.32391 0.0
H147 H 0.83867 0.70628 0.38775 0.0
H148 H 0.84808 0.75663 0.36935 0.0
H149 H 0.93033 0.72931 0.37293 0.0
H150 H 0.95114 0.77399 0.39587 0.0
H151 H 0.78746 0.63658 0.33581 0.0
H152 H 0.82033 0.66841 0.41735 0.0
H153 H 0.86884 0.80123 0.39191 0.0
H154 H 0.74368 0.61243 0.35939 0.0
H155 H 0.77596 0.64583 0.4406 0.0
C156 C 0.72702 0.77227 0.71267 0.0
C157 C 0.72874 0.80073 0.70531 0.0
C158 C 0.71442 0.7621 0.73871 0.0
C159 C 0.70375 0.78034 0.75809 0.0
C160 C 0.70407 0.80841 0.74976 0.0
C161 C 0.71623 0.81838 0.7237 0.0
C162 C 0.69594 0.77173 0.78815 0.0
C163 C 0.71205 0.75465 0.80291 0.0
C164 C 0.70927 0.7514 0.83264 0.0
C165 C 0.69063 0.76607 0.84791 0.0
C166 C 0.67377 0.78286 0.83348 0.0
C167 C 0.67557 0.78415 0.80346 0.0
C168 C 0.6566 0.80134 0.84946 0.0
C169 C 0.64363 0.79346 0.87616 0.0
C170 C 0.65406 0.8279 0.8384 0.0
C171 C 0.639 0.84588 0.85333 0.0
C172 C 0.62676 0.83845 0.88036 0.0
C173 C 0.72826 0.73482 0.84753 0.0
C174 C 0.73088 0.70787 0.8376 0.0
C175 C 0.74585 0.74679 0.86988 0.0
C176 C 0.76665 0.73261 0.88114 0.0
C177 C 0.77011 0.70605 0.87045 0.0
C178 C 0.75143 0.69357 0.84905 0.0
C179 C 0.62909 0.81186 0.89151 0.0
H180 H 0.73634 0.75815 0.69876 0.0
H181 H 0.71408 0.74024 0.74411 0.0
H182 H 0.69675 0.8234 0.76413 0.0
H183 H 0.71767 0.84055 0.71892 0.0
H184 H 0.72836 0.74539 0.79167 0.0
H185 H 0.662 0.79605 0.79191 0.0
H186 H 0.69003 0.76498 0.871 0.0
H187 H 0.64478 0.77314 0.88535 0.0
H188 H 0.66426 0.83534 0.81835 0.0
H189 H 0.63719 0.86579 0.84357 0.0
H190 H 0.71739 0.6981 0.82053 0.0
H191 H 0.7445 0.76769 0.87768 0.0
H192 H 0.62023 0.8054 0.91238 0.0
H193 H 0.753 0.6729 0.84075 0.0
H194 H 0.78084 0.74306 0.89735 0.0
C195 C 0.78834 0.21403 0.25619 0.0
C196 C 0.7799 0.23193 0.23567 0.0
C197 C 0.80587 0.22499 0.2786 0.0
C198 C 0.81527 0.25416 0.28111 0.0
C199 C 0.80765 0.27209 0.25998 0.0
C200 C 0.79025 0.26098 0.23721 0.0
C201 C 0.83008 0.26542 0.3075 0.0
C202 C 0.85076 0.2516 0.31964 0.0
C203 C 0.85921 0.25657 0.34813 0.0
C204 C 0.84802 0.27727 0.36389 0.0
C205 C 0.82846 0.29242 0.35139 0.0
C206 C 0.81977 0.28646 0.32315 0.0
C207 C 0.81346 0.31144 0.36857 0.0
C208 C 0.79862 0.30166 0.39378 0.0
C209 C 0.81034 0.33781 0.35771 0.0
C210 C 0.79141 0.35336 0.37085 0.0
C211 C 0.77485 0.34267 0.39488 0.0
C212 C 0.87693 0.23784 0.362 0.0
C213 C 0.87235 0.20895 0.35533 0.0
C214 C 0.89785 0.24816 0.3823 0.0
C215 C 0.91364 0.22993 0.3957 0.0
C216 C 0.90885 0.20102 0.38902 0.0
C217 C 0.88825 0.19091 0.36841 0.0
C218 C 0.77941 0.31707 0.40675 0.0
H219 H 0.78076 0.19151 0.25524 0.0
H220 H 0.81092 0.21064 0.29475 0.0
H221 H 0.8146 0.29465 0.26145 0.0
H222 H 0.78397 0.27511 0.22151 0.0
H223 H 0.85913 0.23575 0.30719 0.0
H224 H 0.803 0.2965 0.31428 0.0
H225 H 0.85346 0.28076 0.38616 0.0
H226 H 0.80037 0.28122 0.40238 0.0
H227 H 0.8217 0.34585 0.33837 0.0
H228 H 0.78897 0.37331 0.36153 0.0
H229 H 0.856 0.19998 0.34033 0.0
H230 H 0.90203 0.27029 0.38785 0.0
H231 H 0.76687 0.30803 0.42505 0.0
H232 H 0.88425 0.16889 0.36238 0.0
H233 H 0.92915 0.23839 0.4117 0.0
C234 C 0.2575 0.62878 0.17931 0.0
C235 C 0.25579 0.62865 0.14922 0.0
C236 C 0.28301 0.64095 0.1933 0.0
C237 C 0.30762 0.65372 0.17771 0.0
C238 C 0.306 0.65321 0.14765 0.0
C239 C 0.28065 0.64089 0.13369 0.0
C240 C 0.33441 0.66869 0.19242 0.0
C241 C 0.34561 0.65738 0.21684 0.0
C242 C 0.37071 0.67158 0.23076 0.0
C243 C 0.38451 0.69784 0.21901 0.0
C244 C 0.37412 0.70941 0.19419 0.0
C245 C 0.34888 0.69463 0.18164 0.0
C246 C 0.38919 0.73678 0.18076 0.0
C247 C 0.40182 0.76008 0.19728 0.0
C248 C 0.39009 0.74015 0.1508 0.0
C249 C 0.40237 0.76582 0.13791 0.0
C250 C 0.41462 0.78933 0.15432 0.0
C251 C 0.38252 0.65878 0.2571 0.0
C252 C 0.36461 0.63947 0.2751 0.0
C253 C 0.41189 0.66537 0.26462 0.0
C254 C 0.42269 0.65343 0.28884 0.0
C255 C 0.40486 0.63376 0.30657 0.0
C256 C 0.37553 0.62706 0.29893 0.0
C257 C 0.41425 0.78587 0.18431 0.0
H258 H 0.23908 0.61934 0.19216 0.0
H259 H 0.28319 0.64097 0.21642 0.0
H260 H 0.32444 0.66247 0.13473 0.0
H261 H 0.28039 0.64155 0.1106 0.0
H262 H 0.33502 0.63698 0.22435 0.0
H263 H 0.33991 0.70378 0.16351 0.0
H264 H 0.4035 0.70939 0.229 0.0
H265 H 0.40158 0.75866 0.22034 0.0
H266 H 0.38119 0.72283 0.13704 0.0
H267 H 0.40168 0.76727 0.11488 0.0
H268 H 0.3418 0.63383 0.27113 0.0
H269 H 0.42701 0.67961 0.25166 0.0
H270 H 0.42371 0.80309 0.19793 0.0
H271 H 0.36065 0.61184 0.3111 0.0
H272 H 0.44523 0.66003 0.29361 0.0
C273 C 0.14481 0.25935 0.66717 0.0
C274 C 0.11473 0.25207 0.66419 0.0
C275 C 0.15743 0.28539 0.67878 0.0
C276 C 0.14052 0.30528 0.68783 0.0
C277 C 0.11037 0.29788 0.68538 0.0
C278 C 0.0977 0.27175 0.67366 0.0
C279 C 0.15458 0.33384 0.69866 0.0
C280 C 0.18023 0.34777 0.68555 0.0
C281 C 0.19451 0.37418 0.69519 0.0
C282 C 0.18242 0.38696 0.71854 0.0
C283 C 0.15665 0.37372 0.73232 0.0
C284 C 0.14288 0.34718 0.72192 0.0
C285 C 0.14447 0.38743 0.75778 0.0
C286 C 0.16271 0.40206 0.77853 0.0
C287 C 0.11454 0.38611 0.76167 0.0
C288 C 0.1033 0.3991 0.78529 0.0
C289 C 0.12155 0.41379 0.80605 0.0
C290 C 0.22207 0.38805 0.68065 0.0
C291 C 0.24298 0.37201 0.67192 0.0
C292 C 0.22748 0.41709 0.67455 0.0
C293 C 0.25271 0.42953 0.65975 0.0
C294 C 0.27348 0.41339 0.65082 0.0
C295 C 0.26822 0.38445 0.65733 0.0
C296 C 0.15149 0.41491 0.80219 0.0
H297 H 0.15884 0.24513 0.65995 0.0
H298 H 0.18066 0.28995 0.68061 0.0
H299 H 0.09654 0.31254 0.69192 0.0
H300 H 0.07446 0.26696 0.67213 0.0
H301 H 0.18888 0.33825 0.66713 0.0
H302 H 0.12352 0.33644 0.73254 0.0
H303 H 0.19321 0.40728 0.72605 0.0
H304 H 0.18582 0.40323 0.77679 0.0
H305 H 0.09967 0.37545 0.74613 0.0
H306 H 0.0802 0.39798 0.78692 0.0
H307 H 0.23989 0.34968 0.67644 0.0
H308 H 0.21191 0.43016 0.68069 0.0
H309 H 0.16644 0.42539 0.81775 0.0
H310 H 0.28342 0.37117 0.65069 0.0
H311 H 0.25602 0.45191 0.65547 0.0
Tb312 Tb 0.04345 0.02316 0.51506 0.0
Tb313 Tb 0.98242 1.01723 0.55063 0.0
C314 C 0.99132 0.97423 0.50104 0.0
C315 C 0.11204 0.05108 0.47615 0.0
C316 C 0.15209 0.09421 0.45052 0.0
C317 C 0.16157 0.07305 0.46645 0.0
C318 C 0.14168 0.0516 0.47907 0.0
C319 C 0.10244 0.07254 0.4608 0.0
C320 C 0.12234 0.09386 0.44793 0.0
C321 C 0.09165 0.0282 0.48959 0.0
O322 O 0.01613 0.04526 0.48951 0.0
O323 O 0.98468 0.05457 0.52474 0.0
O324 O 0.01371 0.04822 0.57385 0.0
O325 O 0.04547 0.06325 0.53726 0.0
O326 O 0.93796 1.01747 0.55114 0.0
O327 O 0.96045 1.01168 0.59001 0.0
O328 O 1.0011 0.98091 0.56189 0.0
O329 O 0.04791 1.00189 0.55527 0.0
O330 O 0.01946 0.98197 0.5027 0.0
O331 O 0.97348 0.98847 0.51418 0.0
C332 C 0.99651 0.0593 0.49932 0.0
O333 O 0.0886 0.03004 0.51716 0.0
O334 O 0.06699 0.02047 0.47707 0.0
C335 C 0.03462 0.06707 0.56272 0.0
C336 C 0.91315 0.9872 0.5858 0.0
C337 C 0.87109 0.94118 0.60265 0.0
C338 C 0.86837 0.9688 0.61048 0.0
C339 C 0.88926 0.9916 0.60215 0.0
C340 C 0.91572 0.95981 0.57728 0.0
C341 C 0.89479 0.93693 0.58561 0.0
C342 C 0.93546 1.01125 0.57824 0.0
C343 C 0.02855 0.98188 0.56627 0.0
H344 H 0.18437 0.07271 0.46856 0.0
H345 H 0.14944 0.03529 0.49098 0.0
H346 H 0.07962 0.07276 0.45863 0.0
H347 H 0.11449 0.1101 0.43599 0.0
H348 H 0.85012 0.97278 0.62321 0.0
H349 H 0.88692 1.01265 0.60872 0.0
H350 H 0.93411 0.95613 0.56457 0.0
H351 H 0.89757 0.91591 0.57942 0.0
Tb352 Tb 0.54854 0.02663 0.04189 0.0
Tb353 Tb 0.49068 0.01978 1.00277 0.0
C354 C 0.53874 0.98387 0.98989 0.0
C355 C 0.61328 0.0587 0.08282 0.0
C356 C 0.65072 0.10447 0.10686 0.0
C357 C 0.66169 0.08396 0.09074 0.0
C358 C 0.64314 0.06125 0.07896 0.0
C359 C 0.60208 0.07951 0.09819 0.0
C360 C 0.62067 0.10214 0.11023 0.0
C361 C 0.59442 0.03447 0.07011 0.0
O362 O 0.55205 0.0663 1.0182 0.0
O363 O 0.52293 0.05108 0.98052 0.0
O364 O 0.4912 0.05696 0.02891 0.0
O365 O 0.51715 0.04531 0.06646 0.0
O366 O 0.4706 1.01678 0.96301 0.0
O367 O 0.44596 1.01894 1.00206 0.0
O368 O 0.48004 0.98872 0.03747 0.0
O369 O 0.52515 0.98484 0.0534 0.0
O370 O 0.55687 1.00129 1.00531 0.0
O371 O 0.51126 0.98525 0.98868 0.0
C372 C 0.54297 0.07003 0.99225 0.0
O373 O 0.56884 0.02691 0.08153 0.0
O374 O 0.59372 0.03427 0.04233 0.0
C375 C 0.49909 0.06007 0.05557 0.0
C376 C 0.42259 0.99191 0.96442 0.0
C377 C 0.37889 0.95023 0.94241 0.0
C378 C 0.37184 0.97314 0.95797 0.0
C379 C 0.3935 0.99383 0.96876 0.0
C380 C 0.42975 0.96857 0.94979 0.0
C381 C 0.40812 0.948 0.93878 0.0
C382 C 0.44495 1.01487 0.97453 0.0
C383 C 0.4972 0.97545 0.05234 0.0
H384 H 0.68467 0.08538 0.0873 0.0
H385 H 0.65214 0.04559 0.06684 0.0
H386 H 0.57904 0.07815 0.10116 0.0
H387 H 0.61151 0.11739 0.12277 0.0
H388 H 0.34957 0.97527 0.96156 0.0
H389 H 0.38754 1.01159 0.98017 0.0
H390 H 0.45206 0.96647 0.9463 0.0
H391 H 0.41437 0.93087 0.92659 0.0
Tb392 Tb 0.51309 0.49191 0.50694 0.0
Tb393 Tb 0.51372 0.55001 0.54246 0.0
C394 C 0.4862 0.5427 0.48041 0.0
C395 C 0.54463 0.43657 0.47093 0.0
C396 C 0.59628 0.41689 0.45722 0.0
C397 C 0.59155 0.44309 0.44711 0.0
C398 C 0.56611 0.45288 0.45398 0.0
C399 C 0.54904 0.41019 0.48064 0.0
C400 C 0.57462 0.40046 0.47393 0.0
C401 C 0.51859 0.44761 0.48011 0.0
O402 O 0.55731 0.51477 0.50253 0.0
O403 O 0.55141 0.55967 0.51431 0.0
O404 O 0.54388 0.52794 0.56491 0.0
O405 O 0.5238 0.48354 0.5513 0.0
O406 O 0.51528 0.59379 0.54423 0.0
O407 O 0.51133 0.56901 0.58263 0.0
O408 O 0.47599 0.52072 0.55796 0.0
O409 O 0.46848 0.4877 0.52222 0.0
O410 O 0.49812 0.52025 0.47604 0.0
O411 O 0.48602 0.5543 0.50593 0.0
C412 C 0.56666 0.54212 0.50263 0.0
O413 O 0.51402 0.4484 0.50753 0.0
O414 O 0.5142 0.47062 0.46787 0.0
C415 C 0.53995 0.50053 0.56897 0.0
C416 C 0.48322 0.60415 0.57972 0.0
C417 C 0.43229 0.62305 0.59668 0.0
C418 C 0.45909 0.63583 0.60761 0.0
C419 C 0.48441 0.62642 0.59916 0.0
C420 C 0.45655 0.59135 0.5688 0.0
C421 C 0.43133 0.60073 0.57717 0.0
C422 C 0.50932 0.59324 0.57148 0.0
C423 C 0.45972 0.4993 0.54548 0.0
H424 H 0.60749 0.45606 0.43375 0.0
H425 H 0.5635 0.4734 0.44623 0.0
H426 H 0.53291 0.39734 0.49391 0.0
H427 H 0.57766 0.38033 0.48235 0.0
H428 H 0.4605 0.65322 0.62251 0.0
H429 H 0.50483 0.63639 0.60788 0.0
H430 H 0.45522 0.57389 0.55398 0.0
H431 H 0.411 0.59017 0.56872 0.0
Tb432 Tb 0.01529 0.55724 1.00828 0.0
Tb433 Tb 0.01383 0.49806 0.04124 0.0
C434 C 0.03974 0.50716 0.97922 0.0
C435 C 0.99136 0.61318 0.96561 0.0
C436 C 0.94476 0.63094 0.93809 0.0
C437 C 0.94943 0.60299 0.93527 0.0
C438 C 0.97245 0.59415 0.94905 0.0
C439 C 0.98746 0.64124 0.9676 0.0
C440 C 0.96439 0.65005 0.95404 0.0
C441 C 1.01251 0.60346 0.98414 0.0
O442 O 0.97142 0.53455 1.00113 0.0
O443 O 0.97608 0.48951 1.01372 0.0
O444 O 0.98429 0.52015 0.06533 0.0
O445 O 1.00763 0.56401 0.05383 0.0
O446 O 1.0117 0.45426 0.03946 0.0
O447 O 0.01564 0.47626 0.07971 0.0
O448 O 0.0516 0.52599 0.05803 0.0
O449 O 0.05942 0.56098 1.02416 0.0
O450 O 0.02422 0.52703 0.97561 0.0
O451 O 0.04387 0.49825 1.00507 0.0
C452 C 0.96162 0.50723 1.00155 0.0
O453 O 1.00294 0.59685 1.00982 0.0
O454 O 0.02704 0.58498 0.97373 0.0
C455 C 0.99002 0.54728 0.07081 0.0
C456 C 0.04237 0.44012 0.07324 0.0
C457 C 0.09129 0.4167 0.08645 0.0
C458 C 0.06362 0.40348 0.09552 0.0
C459 C 0.03933 0.41512 0.08893 0.0
C460 C 0.06988 0.45337 0.0641 0.0
C461 C 0.09413 0.44175 0.07062 0.0
C462 C 0.0171 0.45271 0.06655 0.0
C463 C 0.06791 0.54825 0.04659 0.0
H464 H 0.935 0.58782 0.92284 0.0
H465 H 0.97492 0.57228 0.94753 0.0
H466 H 1.00156 0.65609 0.9807 0.0
H467 H 0.96127 0.67157 0.95714 0.0
H468 H 0.06074 0.384 0.10749 0.0
H469 H 0.01823 0.40466 0.0961 0.0
H470 H 0.07259 0.47279 0.05203 0.0
H471 H 0.11515 0.45261 0.06366 0.0
C472 C 0.24926 0.22105 0.36682 0.0
C473 C 0.27046 0.2108 0.35065 0.0
C474 C 0.23215 0.20384 0.38679 0.0
C475 C 0.23614 0.17564 0.39028 0.0
C476 C 0.25888 0.16585 0.37545 0.0
C477 C 0.27591 0.18365 0.35587 0.0
C478 C 0.20849 0.21521 0.4026 0.0
C479 C 0.26372 0.13588 0.37846 0.0
C480 C 0.19739 0.13018 0.44992 0.0
C481 C 0.17319 0.1159 0.43566 0.0
C482 C 0.21795 0.15009 0.4356 0.0
C483 C 0.21431 0.15545 0.40632 0.0
C484 C 0.18982 0.14115 0.39191 0.0
C485 C 0.16948 0.12166 0.40681 0.0
C486 C 0.24356 0.16528 0.45172 0.0
C487 C 0.1853 0.14608 0.36059 0.0
H488 H 0.24523 0.24215 0.36291 0.0
H489 H 0.29214 0.17563 0.34318 0.0
H490 H 0.18732 0.20579 0.39363 0.0
H491 H 0.20809 0.20942 0.42552 0.0
H492 H 0.21101 0.23848 0.40084 0.0
H493 H 0.28433 0.13262 0.36829 0.0
H494 H 0.26381 0.1299 0.40129 0.0
H495 H 0.24581 0.12146 0.36823 0.0
H496 H 0.20013 0.12588 0.47231 0.0
H497 H 0.15097 0.11037 0.39568 0.0
H498 H 0.24456 0.18837 0.45011 0.0
H499 H 0.26377 0.16043 0.44207 0.0
H500 H 0.24274 0.15934 0.47465 0.0
H501 H 0.18441 0.1686 0.35685 0.0
H502 H 0.16514 0.13318 0.35258 0.0
H503 H 0.20373 0.14093 0.34783 0.0
C504 C 0.25656 0.83949 0.86279 0.0
C505 C 0.26609 0.83924 0.83427 0.0
C506 C 0.27272 0.85664 0.8832 0.0
C507 C 0.29905 0.87373 0.87487 0.0
C508 C 0.30874 0.87355 0.84615 0.0
C509 C 0.29206 0.85649 0.82621 0.0
C510 C 0.26166 0.85653 0.91361 0.0
C511 C 0.33671 0.89148 0.8364 0.0
C512 C 0.33317 0.93911 0.9148 0.0
C513 C 0.35611 0.92972 0.92838 0.0
C514 C 0.31329 0.92063 0.89872 0.0
C515 C 0.31662 0.89217 0.89585 0.0
C516 C 0.33885 0.88223 0.91061 0.0
C517 C 0.35824 0.90111 0.92683 0.0
C518 C 0.2897 0.93197 0.88349 0.0
C519 C 0.34312 0.85201 0.90801 0.0
H520 H 0.23662 0.82608 0.86921 0.0
H521 H 0.29926 0.85695 0.80411 0.0
H522 H 0.27752 0.84989 0.92824 0.0
H523 H 0.25903 0.87812 0.92001 0.0
H524 H 0.24067 0.84221 0.91658 0.0
H525 H 0.34147 0.88841 0.81342 0.0
H526 H 0.33582 0.91405 0.84001 0.0
H527 H 0.35483 0.88639 0.84908 0.0
H528 H 0.33147 0.96121 0.91559 0.0
H529 H 0.37554 0.89357 0.93774 0.0
H530 H 0.26865 0.91794 0.88692 0.0
H531 H 0.29431 0.93266 0.86018 0.0
H532 H 0.2878 0.95352 0.89078 0.0
H533 H 0.32254 0.83746 0.91213 0.0
H534 H 0.35953 0.84697 0.92302 0.0
H535 H 0.3502 0.848 0.88591 0.0
C536 C 0.62789 0.43096 0.69097 0.0
C537 C 0.61287 0.42737 0.71735 0.0
C538 C 0.61672 0.4431 0.66697 0.0
C539 C 0.58957 0.45204 0.6688 0.0
C540 C 0.57425 0.44849 0.69527 0.0
C541 C 0.58597 0.43638 0.71898 0.0
C542 C 0.63402 0.44622 0.63945 0.0
C543 C 0.54531 0.45754 0.69859 0.0
C544 C 0.57066 0.50553 0.61383 0.0
C545 C 0.55313 0.4883 0.59435 0.0
C546 C 0.58262 0.49414 0.63786 0.0
C547 C 0.57706 0.46464 0.64302 0.0
C548 C 0.55944 0.44717 0.62339 0.0
C549 C 0.54785 0.45908 0.59953 0.0
C550 C 0.60127 0.51379 0.65785 0.0
C551 C 0.55266 0.41571 0.62767 0.0
H552 H 0.64837 0.42384 0.6888 0.0
H553 H 0.57407 0.43436 0.73903 0.0
H554 H 0.62158 0.43395 0.62228 0.0
H555 H 0.63818 0.46859 0.63266 0.0
H556 H 0.65499 0.43892 0.64145 0.0
H557 H 0.53596 0.45344 0.72039 0.0
H558 H 0.54741 0.48036 0.694 0.0
H559 H 0.53003 0.44621 0.68293 0.0
H560 H 0.57506 0.52807 0.61036 0.0
H561 H 0.53441 0.44532 0.58491 0.0
H562 H 0.62292 0.50784 0.65907 0.0
H563 H 0.59173 0.51192 0.6797 0.0
H564 H 0.60382 0.53612 0.65098 0.0
H565 H 0.57291 0.40695 0.62803 0.0
H566 H 0.53872 0.40489 0.61063 0.0
H567 H 0.54162 0.41084 0.64859 0.0
C568 C 0.90586 0.61955 0.19533 0.0
C569 C 0.91998 0.62105 0.22175 0.0
C570 C 0.9166 0.60706 0.17102 0.0
C571 C 0.94235 0.59568 0.17269 0.0
C572 C 0.95674 0.59707 0.19921 0.0
C573 C 0.94546 0.6096 0.22324 0.0
C574 C 0.90044 0.60625 0.14336 0.0
C575 C 0.98421 0.58534 0.20222 0.0
C576 C 0.95828 0.54248 0.11556 0.0
C577 C 0.97757 0.55937 0.09691 0.0
C578 C 0.94671 0.5539 0.14014 0.0
C579 C 0.95455 0.58301 0.14657 0.0
C580 C 0.97404 0.60012 0.12784 0.0
C581 C 0.98518 0.5882 0.10342 0.0
C582 C 0.92599 0.53475 0.15926 0.0
C583 C 0.98322 0.63117 0.1336 0.0
H584 H 0.88649 0.6286 0.19343 0.0
H585 H 0.95651 0.61006 0.24339 0.0
H586 H 0.91435 0.61828 0.12672 0.0
H587 H 0.89479 0.58423 0.13567 0.0
H588 H 0.88034 0.61521 0.14562 0.0
H589 H 0.99279 0.5878 0.22422 0.0
H590 H 0.98036 0.56265 0.19658 0.0
H591 H 1.00088 0.59615 0.18716 0.0
H592 H 0.95212 0.52023 0.11096 0.0
H593 H 1.00004 0.60164 0.08939 0.0
H594 H 0.90511 0.54238 0.16064 0.0
H595 H 0.93459 0.53513 0.18121 0.0
H596 H 0.92199 0.51265 0.1515 0.0
H597 H 0.96408 0.64169 0.13422 0.0
H598 H 0.99862 0.64165 0.11717 0.0
H599 H 0.99351 0.63431 0.1548 0.0
C600 C 0.40319 0.15096 0.14218 0.0
C601 C 0.41719 0.17799 0.14966 0.0
C602 C 0.41831 0.13164 0.12913 0.0
C603 C 0.44813 0.13967 0.12315 0.0
C604 C 0.4626 0.16667 0.13142 0.0
C605 C 0.44694 0.1855 0.14475 0.0
C606 C 0.40216 0.10294 0.12095 0.0
C607 C 0.49431 0.17607 0.12515 0.0
C608 C 0.48927 0.08104 0.10306 0.0
C609 C 0.4878 0.08136 0.07318 0.0
C610 C 0.47705 0.10036 0.11973 0.0
C611 C 0.46342 0.12059 0.10613 0.0
C612 C 0.46282 0.12161 0.07596 0.0
C613 C 0.47485 0.10191 0.05989 0.0
C614 C 0.47792 0.09855 0.15186 0.0
C615 C 0.44881 0.14308 0.06061 0.0
H616 H 0.38026 0.14496 0.14641 0.0
H617 H 0.45777 0.20644 0.15047 0.0
H618 H 0.40182 0.10087 0.09736 0.0
H619 H 0.41324 0.08624 0.12935 0.0
H620 H 0.37957 0.09921 0.12912 0.0
H621 H 0.50282 0.19676 0.13501 0.0
H622 H 0.50682 0.16027 0.13306 0.0
H623 H 0.49798 0.17778 0.10172 0.0
H624 H 0.49927 0.06524 0.11346 0.0
H625 H 0.47396 0.10256 0.0368 0.0
H626 H 0.45568 0.09254 0.16057 0.0
H627 H 0.48699 0.11938 0.16105 0.0
H628 H 0.49095 0.08287 0.15912 0.0
H629 H 0.42536 0.13937 0.06553 0.0
H630 H 0.45184 0.14222 0.03707 0.0
H631 H 0.45784 0.16461 0.06809 0.0
C632 C 0.10881 0.86236 0.62178 0.0
C633 C 0.09746 0.84914 0.64719 0.0
C634 C 0.09568 0.88276 0.60852 0.0
C635 C 0.07123 0.89112 0.6215 0.0
C636 C 0.05948 0.87791 0.64698 0.0
C637 C 0.07236 0.85671 0.65919 0.0
C638 C 0.10838 0.89578 0.58086 0.0
C639 C 0.03382 0.88676 0.66182 0.0
C640 C 0.06065 0.96467 0.60129 0.0
C641 C 0.03807 0.95889 0.58193 0.0
C642 C 0.07075 0.94275 0.61534 0.0
C643 C 0.05875 0.91445 0.60887 0.0
C644 C 0.03587 0.90858 0.58929 0.0
C645 C 0.02541 0.93096 0.57644 0.0
C646 C 0.09452 0.94986 0.63681 0.0
C647 C 0.02328 0.87875 0.58098 0.0
H648 H 0.12848 0.85741 0.61246 0.0
H649 H 0.06284 0.84632 0.67836 0.0
H650 H 0.09131 0.89506 0.56467 0.0
H651 H 0.11774 0.91823 0.5844 0.0
H652 H 0.12555 0.88494 0.57205 0.0
H653 H 0.02724 0.87438 0.6815 0.0
H654 H 0.03903 0.90938 0.66764 0.0
H655 H 0.01522 0.88429 0.64724 0.0
H656 H 0.07026 0.98635 0.60555 0.0
H657 H 1.00815 0.9266 0.56113 0.0
H658 H 0.11437 0.94295 0.62865 0.0
H659 H 0.08832 0.93849 0.65712 0.0
H660 H 0.09958 0.9728 0.64136 0.0
H661 H 0.04024 0.86865 0.57068 0.0
H662 H 1.00509 0.87779 0.56598 0.0
H663 H 0.01554 0.86619 0.60021 0.0
C664 C 0.83209 0.43298 0.90085 0.0
C665 C 0.80443 0.4357 0.91089 0.0
C666 C 0.85727 0.44548 0.91532 0.0
C667 C 0.85508 0.46073 0.94102 0.0
C668 C 0.82721 0.46354 0.95128 0.0
C669 C 0.8024 0.45133 0.93603 0.0
C670 C 0.88631 0.44232 0.90303 0.0
C671 C 0.82352 0.47901 0.97876 0.0
C672 C 0.91946 0.46805 0.99185 0.0
C673 C 0.93363 0.49582 0.98703 0.0
C674 C 0.89377 0.45669 0.97759 0.0
C675 C 0.88187 0.47315 0.95737 0.0
C676 C 0.896 0.50126 0.95249 0.0
C677 C 0.92139 0.51226 0.96745 0.0
C678 C 0.87938 0.42689 0.98411 0.0
C679 C 0.88464 0.51963 0.93094 0.0
H680 H 0.83409 0.42126 0.88135 0.0
H681 H 0.78125 0.4534 0.94424 0.0
H682 H 0.89983 0.46336 0.89987 0.0
H683 H 0.8977 0.43064 0.91821 0.0
H684 H 0.88455 0.43096 0.88229 0.0
H685 H 0.80053 0.47947 0.98394 0.0
H686 H 0.83293 0.46877 0.99664 0.0
H687 H 0.83529 0.50097 0.97734 0.0
H688 H 0.92842 0.45505 1.00693 0.0
H689 H 0.93202 0.53366 0.96328 0.0
H690 H 0.87926 0.41371 0.96465 0.0
H691 H 0.85659 0.4265 0.99067 0.0
H692 H 0.89039 0.41726 1.00133 0.0
H693 H 0.88483 0.50994 0.90943 0.0
H694 H 0.89756 0.54119 0.93002 0.0
H695 H 0.86196 0.52124 0.9362 0.0
C696 C 0.72856 0.602 0.44446 0.0
C697 C 0.72832 0.61306 0.4167 0.0
C698 C 0.70289 0.58975 0.45878 0.0
C699 C 0.67601 0.58808 0.4451 0.0
C700 C 0.67558 0.59868 0.41693 0.0
C701 C 0.70155 0.61109 0.40321 0.0
C702 C 0.70454 0.57883 0.48877 0.0
C703 C 0.64755 0.59726 0.40135 0.0
C704 C 0.61059 0.53602 0.4731 0.0
C705 C 0.5952 0.5536 0.48879 0.0
C706 C 0.63683 0.54683 0.45895 0.0
C707 C 0.64831 0.576 0.4605 0.0
C708 C 0.6331 0.59377 0.47664 0.0
C709 C 0.60683 0.58244 0.49042 0.0
C710 C 0.65207 0.52703 0.44195 0.0
C711 C 0.64452 0.62489 0.47924 0.0
H712 H 0.74893 0.60275 0.4551 0.0
H713 H 0.70072 0.6198 0.38202 0.0
H714 H 0.69196 0.59017 0.5036 0.0
H715 H 0.6948 0.5562 0.48975 0.0
H716 H 0.72704 0.5814 0.49642 0.0
H717 H 0.65085 0.60526 0.37913 0.0
H718 H 0.63588 0.57522 0.40072 0.0
H719 H 0.63351 0.60988 0.41295 0.0
H720 H 0.60195 0.51375 0.47151 0.0
H721 H 0.59534 0.59633 0.50244 0.0
H722 H 0.67451 0.52842 0.44939 0.0
H723 H 0.65327 0.53323 0.41911 0.0
H724 H 0.64099 0.50479 0.44365 0.0
H725 H 0.66652 0.62829 0.48821 0.0
H726 H 0.63058 0.6358 0.49309 0.0
H727 H 0.64618 0.63479 0.45781 0.0
C728 C 0.23742 0.36903 0.13704 0.0
C729 C 0.23421 0.33963 0.13573 0.0
C730 C 0.21589 0.38302 0.12671 0.0
C731 C 0.19074 0.36715 0.11472 0.0
C732 C 0.18825 0.33762 0.11182 0.0
C733 C 0.21001 0.32422 0.12242 0.0
C734 C 0.21931 0.41454 0.13011 0.0
C735 C 0.16193 0.31999 0.09889 0.0
C736 C 0.12016 0.39442 0.1213 0.0
C737 C 0.11713 0.40456 0.09371 0.0
C738 C 0.14429 0.38266 0.12849 0.0
C739 C 0.1659 0.38094 0.10755 0.0
C740 C 0.16316 0.39142 0.07974 0.0
C741 C 0.13879 0.40314 0.07314 0.0
C742 C 0.1465 0.37182 0.15844 0.0
C743 C 0.1857 0.38982 0.05684 0.0
H744 H 0.25604 0.38097 0.14748 0.0
H745 H 0.2077 0.3015 0.12106 0.0
H746 H 0.21473 0.42445 0.10974 0.0
H747 H 0.20354 0.41962 0.14628 0.0
H748 H 0.24131 0.42407 0.13703 0.0
H749 H 0.16455 0.29773 0.09577 0.0
H750 H 0.14295 0.32039 0.11308 0.0
H751 H 0.15722 0.32878 0.07798 0.0
H752 H 0.10371 0.39588 0.13739 0.0
H753 H 0.13641 0.41073 0.05171 0.0
H754 H 0.16693 0.38226 0.16818 0.0
H755 H 0.14691 0.3489 0.15784 0.0
H756 H 0.12825 0.37545 0.17241 0.0
H757 H 0.2072 0.40012 0.06431 0.0
H758 H 0.18095 0.39998 0.03663 0.0
H759 H 0.187 0.36748 0.05234 0.0
C760 C 0.62345 0.20399 0.89932 0.0
C761 C 0.61071 0.22812 0.90317 0.0
C762 C 0.61253 0.17822 0.91318 0.0
C763 C 0.58802 0.17601 0.93156 0.0
C764 C 0.57483 0.20013 0.93535 0.0
C765 C 0.58623 0.22567 0.92123 0.0
C766 C 0.62739 0.1533 0.90821 0.0
C767 C 0.54876 0.19907 0.95466 0.0
C768 C 0.54471 0.10243 0.94921 0.0
C769 C 0.55479 0.0969 0.9764 0.0
C770 C 0.55521 0.12786 0.93451 0.0
C771 C 0.57647 0.14866 0.94705 0.0
C772 C 0.58678 0.14317 0.97444 0.0
C773 C 0.5759 0.11759 0.98867 0.0
C774 C 0.54343 0.1325 0.90547 0.0
C775 C 0.60939 0.16442 0.98884 0.0
H776 H 0.642 0.2051 0.88517 0.0
H777 H 0.57621 0.24397 0.9249 0.0
H778 H 0.63513 0.14628 0.92878 0.0
H779 H 0.61192 0.1354 0.8995 0.0
H780 H 0.64603 0.15818 0.89318 0.0
H781 H 0.5405 0.21927 0.95495 0.0
H782 H 0.53127 0.18208 0.94763 0.0
H783 H 0.55427 0.19403 0.97678 0.0
H784 H 0.52841 0.08687 0.93935 0.0
H785 H 0.58399 0.11388 1.0096 0.0
H786 H 0.56121 0.13595 0.8894 0.0
H787 H 0.53347 0.15172 0.9058 0.0
H788 H 0.52705 0.11443 0.89851 0.0
H789 H 0.62911 0.16874 0.97521 0.0
H790 H 0.61527 0.15716 1.01008 0.0
H791 H 0.60144 0.18462 0.99162 0.0
C792 C 0.94073 0.81827 0.43541 0.0
C793 C 0.92399 0.81837 0.41083 0.0
C794 C 0.95147 0.8434 0.45024 0.0
C795 C 0.94594 0.86962 0.44009 0.0
C796 C 0.9294 0.86988 0.41503 0.0
C797 C 0.91845 0.84438 0.40096 0.0
C798 C 0.96846 0.84184 0.47708 0.0
C799 C 0.92336 0.89719 0.40295 0.0
C800 C 0.95156 0.93304 0.49097 0.0
C801 C 0.97942 0.94785 0.485 0.0
C802 C 0.94057 0.90757 0.47682 0.0
C803 C 0.95746 0.89671 0.45558 0.0
C804 C 0.98545 0.9118 0.4492 0.0
C805 C 0.99615 0.93686 0.46414 0.0
C806 C 0.91092 0.8921 0.4849 0.0
C807 C 1.00413 0.90151 0.42645 0.0
H808 H 0.9449 0.79836 0.44348 0.0
H809 H 0.90579 0.84483 0.38189 0.0
H810 H 0.99037 0.85447 0.4745 0.0
H811 H 0.95786 0.85099 0.49527 0.0
H812 H 0.97051 0.8199 0.48254 0.0
H813 H 0.91081 0.89401 0.38296 0.0
H814 H 0.91116 0.90775 0.41883 0.0
H815 H 0.94395 0.91164 0.39846 0.0
H816 H 0.93848 0.94105 0.50721 0.0
H817 H 0.01764 0.94806 0.45921 0.0
H818 H 0.91221 0.8704 0.49187 0.0
H819 H 0.89672 0.89028 0.46607 0.0
H820 H 0.90078 0.9028 0.50236 0.0
H821 H 1.00857 0.88043 0.43224 0.0
H822 H 0.025 0.91599 0.42336 0.0
H823 H 0.99264 0.89926 0.40583 0.0
C824 C 0.27765 0.65306 0.64941 0.0
C825 C 0.27759 0.68209 0.64972 0.0
C826 C 0.30214 0.64243 0.64012 0.0
C827 C 0.32719 0.66136 0.63143 0.0
C828 C 0.32713 0.69067 0.63157 0.0
C829 C 0.30228 0.70066 0.64058 0.0
C830 C 0.30133 0.61101 0.63988 0.0
C831 C 0.35353 0.71154 0.62281 0.0
C832 C 0.40016 0.63842 0.63446 0.0
C833 C 0.4053 0.63274 0.60565 0.0
C834 C 0.3746 0.64734 0.64321 0.0
C835 C 0.35373 0.65067 0.62264 0.0
C836 C 0.35873 0.64482 0.59356 0.0
C837 C 0.38447 0.63595 0.58541 0.0
C838 C 0.37002 0.6534 0.67444 0.0
C839 C 0.33703 0.64826 0.57101 0.0
H840 H 0.25854 0.63871 0.65645 0.0
H841 H 0.30246 0.72316 0.64131 0.0
H842 H 0.30681 0.60403 0.6182 0.0
H843 H 0.31771 0.60554 0.65462 0.0
H844 H 0.27988 0.59912 0.64636 0.0
H845 H 0.34976 0.73363 0.6237 0.0
H846 H 0.37166 0.70954 0.63708 0.0
H847 H 0.36035 0.70699 0.60077 0.0
H848 H 0.41601 0.63559 0.65023 0.0
H849 H 0.38849 0.63188 0.56307 0.0
H850 H 0.3498 0.64029 0.68242 0.0
H851 H 0.36769 0.67575 0.67724 0.0
H852 H 0.38811 0.64924 0.68779 0.0
H853 H 0.31575 0.63555 0.57662 0.0
H854 H 0.34369 0.64179 0.54949 0.0
H855 H 0.33418 0.67058 0.57002 0.0
C856 C 0.77529 0.80853 0.67798 0.0
C857 C 0.74691 0.81339 0.68097 0.0
C858 C 0.79532 0.82584 0.66049 0.0
C859 C 0.78668 0.84847 0.64572 0.0
C860 C 0.75736 0.85157 0.64634 0.0
C861 C 0.73779 0.83396 0.664 0.0
C862 C 0.82633 0.82165 0.66021 0.0
C863 C 0.74717 0.8752 0.63064 0.0
C864 C 0.84044 0.91651 0.64189 0.0
C865 C 0.84983 0.91695 0.61335 0.0
C866 C 0.82008 0.89423 0.65257 0.0
C867 C 0.80883 0.87166 0.63429 0.0
C868 C 0.81847 0.87168 0.60552 0.0
C869 C 0.83893 0.89437 0.59536 0.0
C870 C 0.81053 0.89495 0.68347 0.0
C871 C 0.80694 0.84797 0.58547 0.0
H872 H 0.78251 0.79273 0.69113 0.0
H873 H 0.71574 0.83747 0.66595 0.0
H874 H 0.8358 0.82442 0.63837 0.0
H875 H 0.83909 0.83769 0.67413 0.0
H876 H 0.82851 0.80047 0.66817 0.0
H877 H 0.7233 0.87186 0.62927 0.0
H878 H 0.75448 0.89532 0.64207 0.0
H879 H 0.75651 0.87745 0.60873 0.0
H880 H 0.84923 0.9336 0.65603 0.0
H881 H 0.84604 0.8947 0.57323 0.0
H882 H 0.81495 0.87602 0.69477 0.0
H883 H 0.78695 0.89463 0.6848 0.0
H884 H 0.82159 0.91395 0.69486 0.0
H885 H 0.81001 0.82753 0.5946 0.0
H886 H 0.81761 0.85052 0.56411 0.0
H887 H 0.78344 0.84697 0.58279 0.0
C888 C 0.73307 0.20322 0.22245 0.0
C889 C 0.75911 0.21985 0.21379 0.0
C890 C 0.71469 0.18801 0.20255 0.0
C891 C 0.72274 0.18928 0.17329 0.0
C892 C 0.74821 0.20741 0.16422 0.0
C893 C 0.76613 0.22266 0.18468 0.0
C894 C 0.68757 0.1692 0.2131 0.0
C895 C 0.75745 0.20928 0.13321 0.0
C896 C 0.69523 0.12116 0.1348 0.0
C897 C 0.6706 0.12726 0.12143 0.0
C898 C 0.71321 0.1417 0.15046 0.0
C899 C 0.70628 0.16899 0.15312 0.0
C900 C 0.68206 0.17566 0.13888 0.0
C901 C 0.66449 0.15469 0.12315 0.0
C902 C 0.73888 0.13374 0.16533 0.0
C903 C 0.67405 0.20455 0.14123 0.0
H904 H 0.72758 0.2014 0.24501 0.0
H905 H 0.78633 0.23555 0.1781 0.0
H906 H 0.66882 0.17259 0.20037 0.0
H907 H 0.68988 0.14683 0.21044 0.0
H908 H 0.68291 0.17292 0.23598 0.0
H909 H 0.7753 0.2272 0.12916 0.0
H910 H 0.76488 0.18953 0.1268 0.0
H911 H 0.73907 0.2116 0.11943 0.0
H912 H 0.69991 0.09996 0.13397 0.0
H913 H 0.64576 0.15967 0.11249 0.0
H914 H 0.73532 0.13402 0.18879 0.0
H915 H 0.75859 0.14925 0.16037 0.0
H916 H 0.74274 0.11246 0.15905 0.0
H917 H 0.66662 0.20794 0.16335 0.0
H918 H 0.65662 0.20729 0.12634 0.0
H919 H 0.6931 0.22105 0.13677 0.0
C920 C 0.39863 0.60972 0.35586 0.0
C921 C 0.41664 0.62037 0.33257 0.0
C922 C 0.40911 0.59675 0.37975 0.0
C923 C 0.43876 0.59481 0.38149 0.0
C924 C 0.45722 0.60586 0.35848 0.0
C925 C 0.44602 0.61795 0.33443 0.0
C926 C 0.38824 0.58494 0.40321 0.0
C927 C 0.48904 0.60497 0.35924 0.0
C928 C 0.47018 0.58432 0.45584 0.0
C929 C 0.47314 0.55576 0.4555 0.0
C930 C 0.45941 0.59722 0.43207 0.0
C931 C 0.45041 0.58124 0.40722 0.0
C932 C 0.45278 0.55225 0.40702 0.0
C933 C 0.4644 0.54008 0.43077 0.0
C934 C 0.45818 0.62824 0.43338 0.0
C935 C 0.44288 0.53392 0.38166 0.0
H936 H 0.37611 0.61165 0.3558 0.0
H937 H 0.46057 0.62522 0.3169 0.0
H938 H 0.38938 0.56242 0.40675 0.0
H939 H 0.3942 0.59621 0.42351 0.0
H940 H 0.36565 0.58672 0.39825 0.0
H941 H 0.50094 0.61574 0.34061 0.0
H942 H 0.49843 0.6151 0.37908 0.0
H943 H 0.49247 0.5828 0.35952 0.0
H944 H 0.47702 0.5969 0.47452 0.0
H945 H 0.46636 0.51804 0.43004 0.0
H946 H 0.43568 0.63159 0.43076 0.0
H947 H 0.47114 0.63933 0.41555 0.0
H948 H 0.46641 0.63797 0.45385 0.0
H949 H 0.42006 0.535 0.37707 0.0
H950 H 0.44481 0.51157 0.38516 0.0
H951 H 0.45582 0.54172 0.36245 0.0
C952 C 0.0831 0.41596 0.84455 0.0
C953 C 0.10953 0.42782 0.83148 0.0
C954 C 0.07171 0.42882 0.8683 0.0
C955 C 0.08697 0.45428 0.87979 0.0
C956 C 0.11363 0.46637 0.8668 0.0
C957 C 0.12445 0.45317 0.84296 0.0
C958 C 0.04324 0.41501 0.88121 0.0
C959 C 0.13083 0.4934 0.87811 0.0
C960 C 0.04595 0.50118 0.92572 0.0
C961 C 0.05236 0.49415 0.95375 0.0
C962 C 0.05697 0.48847 0.90166 0.0
C963 C 0.07513 0.46818 0.90536 0.0
C964 C 0.08186 0.46116 0.93359 0.0
C965 C 0.07041 0.47407 0.95727 0.0
C966 C 0.04895 0.49665 0.87217 0.0
C967 C 0.10119 0.43988 0.93884 0.0
H968 H 0.07137 0.39625 0.83649 0.0
H969 H 0.14457 0.46305 0.83307 0.0
H970 H 0.04617 0.40958 0.90384 0.0
H971 H 0.02774 0.42988 0.88098 0.0
H972 H 0.03369 0.39556 0.86963 0.0
H973 H 0.1513 0.50004 0.86598 0.0
H974 H 0.11788 0.51049 0.87703 0.0
H975 H 0.13595 0.49082 0.90089 0.0
H976 H 0.032 0.5165 0.9225 0.0
H977 H 0.07564 0.46832 0.97866 0.0
H978 H 0.03774 0.4778 0.86072 0.0
H979 H 0.06869 0.50506 0.85961 0.0
H980 H 0.03473 0.51275 0.87273 0.0
H981 H 0.09161 0.41929 0.92946 0.0
H982 H 0.10471 0.43689 0.96194 0.0
H983 H 0.1224 0.44672 0.92815 0.0
C984 C 0.62275 0.88787 0.89481 0.0
C985 C 0.61237 0.8588 0.89688 0.0
C986 C 0.60924 0.90748 0.90947 0.0
C987 C 0.58529 0.8979 0.92756 0.0
C988 C 0.57491 0.86866 0.93026 0.0
C989 C 0.58833 0.84948 0.91463 0.0
C990 C 0.62077 0.93851 0.90569 0.0
C991 C 0.54982 0.85765 0.9499 0.0
C992 C 0.57273 0.94992 0.98529 0.0
C993 C 0.54977 0.96126 0.97421 0.0
C994 C 0.58366 0.92844 0.97088 0.0
C995 C 0.5719 0.91864 0.94432 0.0
C996 C 0.54855 0.92989 0.93311 0.0
C997 C 0.53745 0.95082 0.94844 0.0
C998 C 0.60804 0.91647 0.98395 0.0
C999 C 0.53592 0.92049 0.90451 0.0
H1000 H 0.64174 0.89546 0.8819 0.0
H1001 H 0.57981 0.82718 0.91621 0.0
H1002 H 0.60318 0.94969 0.89931 0.0
H1003 H 0.62925 0.94774 0.92623 0.0
H1004 H 0.6383 0.94254 0.88933 0.0
H1005 H 0.54458 0.83429 0.9499 0.0
H1006 H 0.55482 0.86497 0.97204 0.0
H1007 H 0.53045 0.86607 0.9434 0.0
H1008 H 0.58197 0.95765 1.00548 0.0
H1009 H 0.51969 0.95959 0.93986 0.0
H1010 H 0.6277 0.9217 0.97037 0.0
H1011 H 0.60246 0.89318 0.98503 0.0
H1012 H 0.61314 0.92475 1.00579 0.0
H1013 H 0.55263 0.92576 0.88752 0.0
H1014 H 0.51719 0.9306 0.89925 0.0
H1015 H 0.52894 0.89733 0.90423 0.0
C1016 C 0.9097 0.15433 0.41187 0.0
C1017 C 0.92441 0.18112 0.40399 0.0
C1018 C 0.92378 0.13508 0.42583 0.0
C1019 C 0.95324 0.14289 0.43259 0.0
C1020 C 0.96833 0.16983 0.42472 0.0
C1021 C 0.95375 0.18861 0.41041 0.0
C1022 C 0.90689 0.10655 0.43386 0.0
C1023 C 0.9997 0.17895 0.43184 0.0
C1024 C 0.97524 0.10287 0.4955 0.0
C1025 C 0.9879 0.08195 0.482 0.0
C1026 C 0.96519 0.12366 0.47968 0.0
C1027 C 0.96748 0.12334 0.44954 0.0
C1028 C 0.98114 0.10287 0.43578 0.0
C1029 C 0.99142 0.08248 0.45224 0.0
C1030 C 0.95116 0.14535 0.49521 0.0
C1031 C 0.98376 0.10177 0.40366 0.0
H1032 H 0.88691 0.1485 0.40757 0.0
H1033 H 0.96537 0.20912 0.40412 0.0
H1034 H 0.91802 0.08965 0.42558 0.0
H1035 H 0.90557 0.10448 0.45745 0.0
H1036 H 0.88464 0.1031 0.42544 0.0
H1037 H 1.00863 0.20017 0.42326 0.0
H1038 H 1.00231 0.17933 0.45535 0.0
H1039 H 1.0126 0.16363 0.4231 0.0
H1040 H 0.97291 0.10289 0.51856 0.0
H1041 H 1.00126 0.0664 0.44173 0.0
H1042 H 0.92787 0.14206 0.49023 0.0
H1043 H 0.96077 0.16685 0.48797 0.0
H1044 H 0.95341 0.14423 0.51874 0.0
H1045 H 0.962 0.09597 0.39439 0.0
H1046 H 0.99713 0.0862 0.39639 0.0
H1047 H 0.99335 0.12276 0.39508 0.0
C1048 C 0.20115 0.61994 0.14476 0.0
C1049 C 0.2283 0.61625 0.13402 0.0
C1050 C 0.17537 0.6091 0.13034 0.0
C1051 C 0.17634 0.59387 0.10444 0.0
C1052 C 0.20363 0.58987 0.0936 0.0
C1053 C 0.22907 0.60109 0.10835 0.0
C1054 C 0.147 0.61416 0.14279 0.0
C1055 C 0.20598 0.57357 0.06636 0.0
C1056 C 0.10763 0.54398 0.08135 0.0
C1057 C 0.0963 0.55967 0.06039 0.0
C1058 C 0.13358 0.55463 0.09547 0.0
C1059 C 0.14888 0.58193 0.0889 0.0
C1060 C 0.13771 0.5978 0.0676 0.0
C1061 C 0.1118 0.58651 0.05359 0.0
C1062 C 0.14455 0.53663 0.11764 0.0
C1063 C 0.15299 0.62698 0.05982 0.0
H1064 H 0.20001 0.63185 0.16427 0.0
H1065 H 0.24968 0.59762 0.09986 0.0
H1066 H 0.1359 0.62563 0.12716 0.0
H1067 H 0.13273 0.59375 0.14716 0.0
H1068 H 0.14973 0.62651 0.16293 0.0
H1069 H 0.22866 0.57221 0.06064 0.0
H1070 H 0.19357 0.55191 0.0686 0.0
H1071 H 0.19647 0.58369 0.04848 0.0
H1072 H 0.09615 0.52318 0.08686 0.0
H1073 H 0.10342 0.599 0.0376 0.0
H1074 H 0.14532 0.54728 0.13872 0.0
H1075 H 0.16684 0.53384 0.11208 0.0
H1076 H 0.13081 0.51553 0.11969 0.0
H1077 H 0.15446 0.64079 0.07893 0.0
H1078 H 0.14181 0.63663 0.04274 0.0
H1079 H 0.17533 0.62624 0.0525 0.0
C1080 C 0.32708 0.41844 0.64034 0.0
C1081 C 0.30041 0.42647 0.63469 0.0
C1082 C 0.35244 0.43021 0.62523 0.0
C1083 C 0.35143 0.45055 0.60364 0.0
C1084 C 0.3246 0.45874 0.59777 0.0
C1085 C 0.29958 0.44673 0.61334 0.0
C1086 C 0.38045 0.42098 0.63257 0.0
C1087 C 0.32231 0.48019 0.57493 0.0
C1088 C 0.4218 0.49995 0.58402 0.0
C1089 C 0.43122 0.48738 0.55927 0.0
C1090 C 0.39589 0.48846 0.59832 0.0
C1091 C 0.37854 0.46367 0.58777 0.0
C1092 C 0.38758 0.45115 0.5625 0.0
C1093 C 0.4137 0.46307 0.54862 0.0
C1094 C 0.38734 0.50267 0.62509 0.0
C1095 C 0.36979 0.42487 0.55028 0.0
H1096 H 0.32826 0.40316 0.65698 0.0
H1097 H 0.27918 0.45292 0.6084 0.0
H1098 H 0.38981 0.41233 0.61333 0.0
H1099 H 0.39625 0.43937 0.63979 0.0
H1100 H 0.37769 0.40475 0.64962 0.0
H1101 H 0.29991 0.48408 0.57259 0.0
H1102 H 0.33645 0.50041 0.58007 0.0
H1103 H 0.32986 0.47292 0.55411 0.0
H1104 H 0.43488 0.51877 0.59256 0.0
H1105 H 0.42055 0.45308 0.52958 0.0
H1106 H 0.38636 0.48807 0.64346 0.0
H1107 H 0.36553 0.508 0.62277 0.0
H1108 H 0.40266 0.52224 0.63011 0.0
H1109 H 0.36827 0.40739 0.56587 0.0
H1110 H 0.37905 0.41825 0.52995 0.0
H1111 H 0.34752 0.42838 0.54639 0.0
C1112 C 0.80245 0.69387 0.90904 0.0
C1113 C 0.79414 0.69223 0.88035 0.0
C1114 C 0.82632 0.68256 0.91813 0.0
C1115 C 0.84211 0.669 0.89811 0.0
C1116 C 0.83337 0.66652 0.86931 0.0
C1117 C 0.80965 0.67831 0.86075 0.0
C1118 C 0.83505 0.68571 0.94902 0.0
C1119 C 0.8495 0.65202 0.84737 0.0
C1120 C 0.9204 0.667 0.91451 0.0
C1121 C 0.91874 0.63991 0.92595 0.0
C1122 C 0.89566 0.67662 0.90523 0.0
C1123 C 0.86858 0.6586 0.90702 0.0
C1124 C 0.86681 0.63093 0.91771 0.0
C1125 C 0.89187 0.62197 0.9272 0.0
C1126 C 0.89845 0.7063 0.89399 0.0
C1127 C 0.83837 0.61098 0.91965 0.0
H1128 H 0.79039 0.70417 0.92444 0.0
H1129 H 0.80379 0.67729 0.83844 0.0
H1130 H 0.83587 0.66479 0.95838 0.0
H1131 H 0.857 0.69841 0.95047 0.0
H1132 H 0.82001 0.69607 0.96207 0.0
H1133 H 0.83877 0.65014 0.82632 0.0
H1134 H 0.87167 0.66399 0.84447 0.0
H1135 H 0.85145 0.63064 0.85485 0.0
H1136 H 0.9411 0.68084 0.91297 0.0
H1137 H 0.89022 0.60115 0.93636 0.0
H1138 H 0.88529 0.71839 0.9074 0.0
H1139 H 0.89008 0.70599 0.87196 0.0
H1140 H 0.92111 0.71757 0.89378 0.0
H1141 H 0.82372 0.61942 0.93484 0.0
H1142 H 0.84091 0.58965 0.92688 0.0
H1143 H 0.82779 0.60908 0.89856 0.0
C1144 C 0.42526 0.84315 0.15297 0.0
C1145 C 0.42731 0.81711 0.14009 0.0
C1146 C 0.43635 0.86912 0.13948 0.0
C1147 C 0.44988 0.86954 0.11214 0.0
C1148 C 0.45215 0.84342 0.09906 0.0
C1149 C 0.44109 0.81779 0.1131 0.0
C1150 C 0.43343 0.89622 0.15449 0.0
C1151 C 0.46631 0.84248 0.07004 0.0
C1152 C 0.4559 0.93564 0.06469 0.0
C1153 C 0.48477 0.9487 0.06812 0.0
C1154 C 0.44432 0.91017 0.07885 0.0
C1155 C 0.46177 0.89716 0.09727 0.0
C1156 C 0.49083 0.91038 0.10104 0.0
C1157 C 0.50192 0.9357 0.08646 0.0
C1158 C 0.41335 0.89698 0.07381 0.0
C1159 C 0.51038 0.89769 0.12048 0.0
H1160 H 0.41445 0.84335 0.17351 0.0
H1161 H 0.44354 0.79817 0.10287 0.0
H1162 H 0.455 0.90942 0.15712 0.0
H1163 H 0.42055 0.90841 0.14135 0.0
H1164 H 0.42293 0.89255 0.17585 0.0
H1165 H 0.46608 0.82061 0.06243 0.0
H1166 H 0.45511 0.85365 0.05421 0.0
H1167 H 0.48899 0.85353 0.07078 0.0
H1168 H 0.44229 0.94516 0.05061 0.0
H1169 H 0.5242 0.94536 0.08952 0.0
H1170 H 0.40124 0.89451 0.0944 0.0
H1171 H 0.41235 0.87563 0.06457 0.0
H1172 H 0.40243 0.90968 0.05916 0.0
H1173 H 0.5008 0.89514 0.14229 0.0
H1174 H 0.53219 0.91076 0.12179 0.0
H1175 H 0.51262 0.87642 0.11269 0.0
C1176 C 0.11285 0.19971 0.65589 0.0
C1177 C 0.10148 0.22435 0.65084 0.0
C1178 C 0.10158 0.1739 0.64257 0.0
C1179 C 0.07816 0.17228 0.62359 0.0
C1180 C 0.06623 0.19689 0.61876 0.0
C1181 C 0.07795 0.22246 0.63235 0.0
C1182 C 0.11504 0.14837 0.64857 0.0
C1183 C 0.04134 0.19635 0.59873 0.0
C1184 C 0.06817 0.11382 0.56697 0.0
C1185 C 0.04582 0.09374 0.5787 0.0
C1186 C 0.07875 0.13925 0.58126 0.0
C1187 C 0.06685 0.14514 0.60813 0.0
C1188 C 0.04432 0.125 0.62014 0.0
C1189 C 0.03413 0.09966 0.60537 0.0
C1190 C 0.10278 0.15987 0.5675 0.0
C1191 C 0.03088 0.13025 0.64865 0.0
H1192 H 0.13064 0.20053 0.67043 0.0
H1193 H 0.06906 0.24121 0.62786 0.0
H1194 H 0.09842 0.13096 0.65676 0.0
H1195 H 0.12399 0.1409 0.62849 0.0
H1196 H 0.13259 0.15278 0.66438 0.0
H1197 H 0.03366 0.21684 0.59808 0.0
H1198 H 0.04795 0.19108 0.57682 0.0
H1199 H 0.0231 0.17974 0.60534 0.0
H1200 H 0.07749 0.10973 0.54643 0.0
H1201 H 0.01686 0.08452 0.61475 0.0
H1202 H 0.12164 0.16371 0.58179 0.0
H1203 H 0.09569 0.18038 0.56426 0.0
H1204 H 0.10976 0.15229 0.54656 0.0
H1205 H 0.04761 0.13329 0.66534 0.0
H1206 H 0.01358 0.11263 0.65518 0.0
H1207 H 0.02164 0.14986 0.64774 0.0
C1208 C 0.74449 0.35725 0.43506 0.0
C1209 C 0.75103 0.35666 0.40575 0.0
C1210 C 0.72034 0.36801 0.4451 0.0
C1211 C 0.70242 0.37861 0.42538 0.0
C1212 C 0.70941 0.37893 0.39589 0.0
C1213 C 0.73349 0.36783 0.38644 0.0
C1214 C 0.71352 0.3673 0.47671 0.0
C1215 C 0.69093 0.39019 0.37418 0.0
C1216 C 0.62361 0.37848 0.44349 0.0
C1217 C 0.62371 0.40683 0.45032 0.0
C1218 C 0.64921 0.3689 0.4361 0.0
C1219 C 0.67555 0.38817 0.43526 0.0
C1220 C 0.67592 0.41673 0.44252 0.0
C1221 C 0.65003 0.42568 0.45009 0.0
C1222 C 0.64795 0.33824 0.42857 0.0
C1223 C 0.70356 0.43793 0.44176 0.0
H1224 H 0.75809 0.34899 0.45017 0.0
H1225 H 0.73794 0.36702 0.36372 0.0
H1226 H 0.71128 0.3886 0.48439 0.0
H1227 H 0.69261 0.35325 0.48083 0.0
H1228 H 0.73037 0.35968 0.48937 0.0
H1229 H 0.70034 0.39059 0.35227 0.0
H1230 H 0.66921 0.37691 0.37399 0.0
H1231 H 0.68807 0.41185 0.38003 0.0
H1232 H 0.60339 0.36383 0.44325 0.0
H1233 H 0.65042 0.44753 0.45585 0.0
H1234 H 0.6633 0.32902 0.44177 0.0
H1235 H 0.65449 0.33631 0.4059 0.0
H1236 H 0.62604 0.32569 0.43179 0.0
H1237 H 0.7198 0.43087 0.45562 0.0
H1238 H 0.70032 0.45917 0.44886 0.0
H1239 H 0.71264 0.43959 0.41972 0.0
loop_
_geom_bond_atom_site_label_1
_geom_bond_atom_site_label_2
_geom_bond_distance
_geom_bond_site_symmetry_2
_ccdc_geom_bond_type
C0 C1 1.386 . S
C0 C2 1.397 . S
C0 H24 0.931 . S
C1 C0 1.386 . S
C1 C5 1.397 . S
C2 C0 1.397 . S
C2 C3 1.384 . S
C2 H25 0.930 . S
C3 C2 1.384 . S
C3 C4 1.377 . S
C3 C6 1.481 . S
C4 C3 1.377 . S
C4 C5 1.389 . S
C4 H26 0.929 . S
C5 C1 1.397 . S
C5 C4 1.389 . S
C5 H27 0.931 . S
C6 C3 1.481 . S
C6 C7 1.387 . S
C6 C11 1.390 . S
C7 C6 1.387 . S
C7 C8 1.401 . S
C7 H28 0.930 . S
C8 C7 1.401 . S
C8 C9 1.376 . S
C8 C17 1.511 . S
C9 C8 1.376 . S
C9 C10 1.392 . S
C9 H30 0.931 . S
C10 C9 1.392 . S
C10 C11 1.361 . S
C10 C12 1.500 . S
C11 C6 1.390 . S
C11 C10 1.361 . S
C11 H29 0.931 . S
C12 C10 1.500 . S
C12 C13 1.371 . S
C12 C14 1.365 . S
C13 C12 1.371 . S
C13 C23 1.386 . S
C13 H31 0.931 . S
C14 C12 1.365 . S
C14 C15 1.409 . S
C14 H32 0.929 . S
C15 C14 1.409 . S
C15 C16 1.380 . S
C15 H33 0.930 . S
C16 C15 1.380 . S
C16 C23 1.357 . S
C17 C8 1.511 . S
C17 C18 1.341 . S
C17 C19 1.371 . S
C18 C17 1.341 . S
C18 C22 1.394 . S
C18 H34 0.930 . S
C19 C17 1.371 . S
C19 C20 1.392 . S
C19 H35 0.931 . S
C20 C19 1.392 . S
C20 C21 1.331 . S
C20 H38 0.932 . S
C21 C20 1.331 . S
C21 C22 1.336 . S
C22 C18 1.394 . S
C22 C21 1.336 . S
C22 H37 0.929 . S
C23 C13 1.386 . S
C23 C16 1.357 . S
C23 H36 0.928 . S
H24 C0 0.931 . S
H25 C2 0.930 . S
H26 C4 0.929 . S
H27 C5 0.931 . S
H28 C7 0.930 . S
H29 C11 0.931 . S
H30 C9 0.931 . S
H31 C13 0.931 . S
H32 C14 0.929 . S
H33 C15 0.930 . S
H34 C18 0.930 . S
H35 C19 0.931 . S
H36 C23 0.928 . S
H37 C22 0.929 . S
H38 C20 0.932 . S
C39 C40 1.386 . S
C39 C41 1.397 . S
C39 H63 0.931 . S
C40 C39 1.386 . S
C40 C44 1.397 . S
C41 C39 1.397 . S
C41 C42 1.384 . S
C41 H64 0.930 . S
C42 C41 1.384 . S
C42 C43 1.377 . S
C42 C45 1.481 . S
C43 C42 1.377 . S
C43 C44 1.389 . S
C43 H65 0.929 . S
C44 C40 1.397 . S
C44 C43 1.389 . S
C44 H66 0.931 . S
C45 C42 1.481 . S
C45 C46 1.387 . S
C45 C50 1.390 . S
C46 C45 1.387 . S
C46 C47 1.401 . S
C46 H67 0.930 . S
C47 C46 1.401 . S
C47 C48 1.376 . S
C47 C56 1.511 . S
C48 C47 1.376 . S
C48 C49 1.392 . S
C48 H69 0.931 . S
C49 C48 1.392 . S
C49 C50 1.361 . S
C49 C51 1.500 . S
C50 C45 1.390 . S
C50 C49 1.361 . S
C50 H68 0.931 . S
C51 C49 1.500 . S
C51 C52 1.371 . S
C51 C53 1.365 . S
C52 C51 1.371 . S
C52 C62 1.386 . S
C52 H70 0.931 . S
C53 C51 1.365 . S
C53 C54 1.409 . S
C53 H71 0.929 . S
C54 C53 1.409 . S
C54 C55 1.380 . S
C54 H72 0.930 . S
C55 C54 1.380 . S
C55 C62 1.357 . S
C56 C47 1.511 . S
C56 C57 1.341 . S
C56 C58 1.371 . S
C57 C56 1.341 . S
C57 C61 1.394 . S
C57 H73 0.930 . S
C58 C56 1.371 . S
C58 C59 1.392 . S
C58 H74 0.931 . S
C59 C58 1.392 . S
C59 C60 1.331 . S
C59 H77 0.932 . S
C60 C59 1.331 . S
C60 C61 1.336 . S
C61 C57 1.394 . S
C61 C60 1.336 . S
C61 H76 0.929 . S
C62 C52 1.386 . S
C62 C55 1.357 . S
C62 H75 0.928 . S
H63 C39 0.931 . S
H64 C41 0.930 . S
H65 C43 0.929 . S
H66 C44 0.931 . S
H67 C46 0.930 . S
H68 C50 0.931 . S
H69 C48 0.931 . S
H70 C52 0.931 . S
H71 C53 0.929 . S
H72 C54 0.930 . S
H73 C57 0.930 . S
H74 C58 0.931 . S
H75 C62 0.928 . S
H76 C61 0.929 . S
H77 C59 0.932 . S
C78 C79 1.386 . S
C78 C80 1.397 . S
C78 H102 0.931 . S
C79 C78 1.386 . S
C79 C83 1.397 . S
C80 C78 1.397 . S
C80 C81 1.384 . S
C80 H103 0.930 . S
C81 C80 1.384 . S
C81 C82 1.377 . S
C81 C84 1.481 . S
C82 C81 1.377 . S
C82 C83 1.389 . S
C82 H104 0.929 . S
C83 C79 1.397 . S
C83 C82 1.389 . S
C83 H105 0.931 . S
C84 C81 1.481 . S
C84 C85 1.387 . S
C84 C89 1.390 . S
C85 C84 1.387 . S
C85 C86 1.401 . S
C85 H106 0.930 . S
C86 C85 1.401 . S
C86 C87 1.376 . S
C86 C95 1.511 . S
C87 C86 1.376 . S
C87 C88 1.392 . S
C87 H108 0.931 . S
C88 C87 1.392 . S
C88 C89 1.361 . S
C88 C90 1.500 . S
C89 C84 1.390 . S
C89 C88 1.361 . S
C89 H107 0.931 . S
C90 C88 1.500 . S
C90 C91 1.371 . S
C90 C92 1.365 . S
C91 C90 1.371 . S
C91 C101 1.386 . S
C91 H109 0.931 . S
C92 C90 1.365 . S
C92 C93 1.409 . S
C92 H110 0.929 . S
C93 C92 1.409 . S
C93 C94 1.380 . S
C93 H111 0.930 . S
C94 C93 1.380 . S
C94 C101 1.357 . S
C95 C86 1.511 . S
C95 C96 1.341 . S
C95 C97 1.371 . S
C96 C95 1.341 . S
C96 C100 1.394 . S
C96 H112 0.930 . S
C97 C95 1.371 . S
C97 C98 1.392 . S
C97 H113 0.931 . S
C98 C97 1.392 . S
C98 C99 1.331 . S
C98 H116 0.932 . S
C99 C98 1.331 . S
C99 C100 1.336 . S
C100 C96 1.394 . S
C100 C99 1.336 . S
C100 H115 0.929 . S
C101 C91 1.386 . S
C101 C94 1.357 . S
C101 H114 0.928 . S
H102 C78 0.931 . S
H103 C80 0.930 . S
H104 C82 0.929 . S
H105 C83 0.931 . S
H106 C85 0.930 . S
H107 C89 0.931 . S
H108 C87 0.931 . S
H109 C91 0.931 . S
H110 C92 0.929 . S
H111 C93 0.930 . S
H112 C96 0.930 . S
H113 C97 0.931 . S
H114 C101 0.928 . S
H115 C100 0.929 . S
H116 C98 0.932 . S
C117 C118 1.386 . S
C117 C119 1.397 . S
C117 H141 0.931 . S
C118 C117 1.386 . S
C118 C122 1.397 . S
C119 C117 1.397 . S
C119 C120 1.384 . S
C119 H142 0.930 . S
C120 C119 1.384 . S
C120 C121 1.377 . S
C120 C123 1.481 . S
C121 C120 1.377 . S
C121 C122 1.389 . S
C121 H143 0.929 . S
C122 C118 1.397 . S
C122 C121 1.389 . S
C122 H144 0.931 . S
C123 C120 1.481 . S
C123 C124 1.387 . S
C123 C128 1.390 . S
C124 C123 1.387 . S
C124 C125 1.401 . S
C124 H145 0.930 . S
C125 C124 1.401 . S
C125 C126 1.376 . S
C125 C134 1.511 . S
C126 C125 1.376 . S
C126 C127 1.392 . S
C126 H147 0.931 . S
C127 C126 1.392 . S
C127 C128 1.361 . S
C127 C129 1.500 . S
C128 C123 1.390 . S
C128 C127 1.361 . S
C128 H146 0.931 . S
C129 C127 1.500 . S
C129 C130 1.371 . S
C129 C131 1.365 . S
C130 C129 1.371 . S
C130 C140 1.386 . S
C130 H148 0.931 . S
C131 C129 1.365 . S
C131 C132 1.409 . S
C131 H149 0.929 . S
C132 C131 1.409 . S
C132 C133 1.380 . S
C132 H150 0.930 . S
C133 C132 1.380 . S
C133 C140 1.357 . S
C134 C125 1.511 . S
C134 C135 1.341 . S
C134 C136 1.371 . S
C135 C134 1.341 . S
C135 C139 1.394 . S
C135 H151 0.930 . S
C136 C134 1.371 . S
C136 C137 1.392 . S
C136 H152 0.931 . S
C137 C136 1.392 . S
C137 C138 1.331 . S
C137 H155 0.932 . S
C138 C137 1.331 . S
C138 C139 1.336 . S
C139 C135 1.394 . S
C139 C138 1.336 . S
C139 H154 0.929 . S
C140 C130 1.386 . S
C140 C133 1.357 . S
C140 H153 0.928 . S
H141 C117 0.931 . S
H142 C119 0.930 . S
H143 C121 0.929 . S
H144 C122 0.931 . S
H145 C124 0.930 . S
H146 C128 0.931 . S
H147 C126 0.931 . S
H148 C130 0.931 . S
H149 C131 0.929 . S
H150 C132 0.930 . S
H151 C135 0.930 . S
H152 C136 0.931 . S
H153 C140 0.928 . S
H154 C139 0.929 . S
H155 C137 0.932 . S
C156 C157 1.386 . S
C156 C158 1.397 . S
C156 H180 0.931 . S
C157 C156 1.386 . S
C157 C161 1.397 . S
C158 C156 1.397 . S
C158 C159 1.384 . S
C158 H181 0.930 . S
C159 C158 1.384 . S
C159 C160 1.377 . S
C159 C162 1.481 . S
C160 C159 1.377 . S
C160 C161 1.389 . S
C160 H182 0.929 . S
C161 C157 1.397 . S
C161 C160 1.389 . S
C161 H183 0.931 . S
C162 C159 1.481 . S
C162 C163 1.387 . S
C162 C167 1.390 . S
C163 C162 1.387 . S
C163 C164 1.401 . S
C163 H184 0.930 . S
C164 C163 1.401 . S
C164 C165 1.376 . S
C164 C173 1.511 . S
C165 C164 1.376 . S
C165 C166 1.392 . S
C165 H186 0.931 . S
C166 C165 1.392 . S
C166 C167 1.361 . S
C166 C168 1.500 . S
C167 C162 1.390 . S
C167 C166 1.361 . S
C167 H185 0.931 . S
C168 C166 1.500 . S
C168 C169 1.371 . S
C168 C170 1.365 . S
C169 C168 1.371 . S
C169 C179 1.386 . S
C169 H187 0.931 . S
C170 C168 1.365 . S
C170 C171 1.409 . S
C170 H188 0.929 . S
C171 C170 1.409 . S
C171 C172 1.380 . S
C171 H189 0.930 . S
C172 C171 1.380 . S
C172 C179 1.357 . S
C173 C164 1.511 . S
C173 C174 1.341 . S
C173 C175 1.371 . S
C174 C173 1.341 . S
C174 C178 1.394 . S
C174 H190 0.930 . S
C175 C173 1.371 . S
C175 C176 1.392 . S
C175 H191 0.931 . S
C176 C175 1.392 . S
C176 C177 1.331 . S
C176 H194 0.932 . S
C177 C176 1.331 . S
C177 C178 1.336 . S
C178 C174 1.394 . S
C178 C177 1.336 . S
C178 H193 0.929 . S
C179 C169 1.386 . S
C179 C172 1.357 . S
C179 H192 0.928 . S
H180 C156 0.931 . S
H181 C158 0.930 . S
H182 C160 0.929 . S
H183 C161 0.931 . S
H184 C163 0.930 . S
H185 C167 0.931 . S
H186 C165 0.931 . S
H187 C169 0.931 . S
H188 C170 0.929 . S
H189 C171 0.930 . S
H190 C174 0.930 . S
H191 C175 0.931 . S
H192 C179 0.928 . S
H193 C178 0.929 . S
H194 C176 0.932 . S
C195 C196 1.386 . S
C195 C197 1.397 . S
C195 H219 0.931 . S
C196 C195 1.386 . S
C196 C200 1.397 . S
C197 C195 1.397 . S
C197 C198 1.384 . S
C197 H220 0.930 . S
C198 C197 1.384 . S
C198 C199 1.377 . S
C198 C201 1.481 . S
C199 C198 1.377 . S
C199 C200 1.389 . S
C199 H221 0.929 . S
C200 C196 1.397 . S
C200 C199 1.389 . S
C200 H222 0.931 . S
C201 C198 1.481 . S
C201 C202 1.387 . S
C201 C206 1.390 . S
C202 C201 1.387 . S
C202 C203 1.401 . S
C202 H223 0.930 . S
C203 C202 1.401 . S
C203 C204 1.376 . S
C203 C212 1.511 . S
C204 C203 1.376 . S
C204 C205 1.392 . S
C204 H225 0.931 . S
C205 C204 1.392 . S
C205 C206 1.361 . S
C205 C207 1.500 . S
C206 C201 1.390 . S
C206 C205 1.361 . S
C206 H224 0.931 . S
C207 C205 1.500 . S
C207 C208 1.371 . S
C207 C209 1.365 . S
C208 C207 1.371 . S
C208 C218 1.386 . S
C208 H226 0.931 . S
C209 C207 1.365 . S
C209 C210 1.409 . S
C209 H227 0.929 . S
C210 C209 1.409 . S
C210 C211 1.380 . S
C210 H228 0.930 . S
C211 C210 1.380 . S
C211 C218 1.357 . S
C212 C203 1.511 . S
C212 C213 1.341 . S
C212 C214 1.371 . S
C213 C212 1.341 . S
C213 C217 1.394 . S
C213 H229 0.930 . S
C214 C212 1.371 . S
C214 C215 1.392 . S
C214 H230 0.931 . S
C215 C214 1.392 . S
C215 C216 1.331 . S
C215 H233 0.932 . S
C216 C215 1.331 . S
C216 C217 1.336 . S
C217 C213 1.394 . S
C217 C216 1.336 . S
C217 H232 0.929 . S
C218 C208 1.386 . S
C218 C211 1.357 . S
C218 H231 0.928 . S
H219 C195 0.931 . S
H220 C197 0.930 . S
H221 C199 0.929 . S
H222 C200 0.931 . S
H223 C202 0.930 . S
H224 C206 0.931 . S
H225 C204 0.931 . S
H226 C208 0.931 . S
H227 C209 0.929 . S
H228 C210 0.930 . S
H229 C213 0.930 . S
H230 C214 0.931 . S
H231 C218 0.928 . S
H232 C217 0.929 . S
H233 C215 0.932 . S
C234 C235 1.386 . S
C234 C236 1.397 . S
C234 H258 0.931 . S
C235 C234 1.386 . S
C235 C239 1.397 . S
C236 C234 1.397 . S
C236 C237 1.384 . S
C236 H259 0.930 . S
C237 C236 1.384 . S
C237 C238 1.377 . S
C237 C240 1.481 . S
C238 C237 1.377 . S
C238 C239 1.389 . S
C238 H260 0.929 . S
C239 C235 1.397 . S
C239 C238 1.389 . S
C239 H261 0.931 . S
C240 C237 1.481 . S
C240 C241 1.387 . S
C240 C245 1.390 . S
C241 C240 1.387 . S
C241 C242 1.401 . S
C241 H262 0.930 . S
C242 C241 1.401 . S
C242 C243 1.376 . S
C242 C251 1.511 . S
C243 C242 1.376 . S
C243 C244 1.392 . S
C243 H264 0.931 . S
C244 C243 1.392 . S
C244 C245 1.361 . S
C244 C246 1.500 . S
C245 C240 1.390 . S
C245 C244 1.361 . S
C245 H263 0.931 . S
C246 C244 1.500 . S
C246 C247 1.371 . S
C246 C248 1.365 . S
C247 C246 1.371 . S
C247 C257 1.386 . S
C247 H265 0.931 . S
C248 C246 1.365 . S
C248 C249 1.409 . S
C248 H266 0.929 . S
C249 C248 1.409 . S
C249 C250 1.380 . S
C249 H267 0.930 . S
C250 C249 1.380 . S
C250 C257 1.357 . S
C251 C242 1.511 . S
C251 C252 1.341 . S
C251 C253 1.371 . S
C252 C251 1.341 . S
C252 C256 1.394 . S
C252 H268 0.930 . S
C253 C251 1.371 . S
C253 C254 1.392 . S
C253 H269 0.931 . S
C254 C253 1.392 . S
C254 C255 1.331 . S
C254 H272 0.932 . S
C255 C254 1.331 . S
C255 C256 1.336 . S
C256 C252 1.394 . S
C256 C255 1.336 . S
C256 H271 0.929 . S
C257 C247 1.386 . S
C257 C250 1.357 . S
C257 H270 0.928 . S
H258 C234 0.931 . S
H259 C236 0.930 . S
H260 C238 0.929 . S
H261 C239 0.931 . S
H262 C241 0.930 . S
H263 C245 0.931 . S
H264 C243 0.931 . S
H265 C247 0.931 . S
H266 C248 0.929 . S
H267 C249 0.930 . S
H268 C252 0.930 . S
H269 C253 0.931 . S
H270 C257 0.928 . S
H271 C256 0.929 . S
H272 C254 0.932 . S
C273 C274 1.386 . S
C273 C275 1.397 . S
C273 H297 0.931 . S
C274 C273 1.386 . S
C274 C278 1.397 . S
C275 C273 1.397 . S
C275 C276 1.384 . S
C275 H298 0.930 . S
C276 C275 1.384 . S
C276 C277 1.377 . S
C276 C279 1.481 . S
C277 C276 1.377 . S
C277 C278 1.389 . S
C277 H299 0.929 . S
C278 C274 1.397 . S
C278 C277 1.389 . S
C278 H300 0.931 . S
C279 C276 1.481 . S
C279 C280 1.387 . S
C279 C284 1.390 . S
C280 C279 1.387 . S
C280 C281 1.401 . S
C280 H301 0.930 . S
C281 C280 1.401 . S
C281 C282 1.376 . S
C281 C290 1.511 . S
C282 C281 1.376 . S
C282 C283 1.392 . S
C282 H303 0.931 . S
C283 C282 1.392 . S
C283 C284 1.361 . S
C283 C285 1.500 . S
C284 C279 1.390 . S
C284 C283 1.361 . S
C284 H302 0.931 . S
C285 C283 1.500 . S
C285 C286 1.371 . S
C285 C287 1.365 . S
C286 C285 1.371 . S
C286 C296 1.386 . S
C286 H304 0.931 . S
C287 C285 1.365 . S
C287 C288 1.409 . S
C287 H305 0.929 . S
C288 C287 1.409 . S
C288 C289 1.380 . S
C288 H306 0.930 . S
C289 C288 1.380 . S
C289 C296 1.357 . S
C290 C281 1.511 . S
C290 C291 1.341 . S
C290 C292 1.371 . S
C291 C290 1.341 . S
C291 C295 1.394 . S
C291 H307 0.930 . S
C292 C290 1.371 . S
C292 C293 1.392 . S
C292 H308 0.931 . S
C293 C292 1.392 . S
C293 C294 1.331 . S
C293 H311 0.932 . S
C294 C293 1.331 . S
C294 C295 1.336 . S
C295 C291 1.394 . S
C295 C294 1.336 . S
C295 H310 0.929 . S
C296 C286 1.386 . S
C296 C289 1.357 . S
C296 H309 0.928 . S
H297 C273 0.931 . S
H298 C275 0.930 . S
H299 C277 0.929 . S
H300 C278 0.931 . S
H301 C280 0.930 . S
H302 C284 0.931 . S
H303 C282 0.931 . S
H304 C286 0.931 . S
H305 C287 0.929 . S
H306 C288 0.930 . S
H307 C291 0.930 . S
H308 C292 0.931 . S
H309 C296 0.928 . S
H310 C295 0.929 . S
H311 C293 0.932 . S
Tb312 C321 2.764 . S
Tb312 O322 2.325 1_455 S
Tb312 O325 2.303 . S
Tb312 O329 2.322 1_545 S
Tb312 O330 2.349 1_545 S
Tb312 O333 2.415 . S
Tb312 O334 2.399 . S
Tb313 O323 2.342 . S
Tb313 O324 2.373 . S
Tb313 O326 2.390 1_545 S
Tb313 O327 2.396 1_545 S
Tb313 O328 2.308 1_645 S
Tb313 O331 2.285 1_545 S
Tb313 C342 2.748 1_545 S
C314 O330 1.261 1_655 S
C314 O331 1.257 . S
C315 C318 1.358 . S
C315 C319 1.332 . S
C315 C321 1.504 . S
C316 C317 1.373 . S
C316 C320 1.308 . S
C317 C316 1.373 . S
C317 C318 1.429 . S
C317 H344 0.932 . S
C318 C315 1.358 . S
C318 C317 1.429 . S
C318 H345 0.930 . S
C319 C315 1.332 . S
C319 C320 1.394 . S
C319 H346 0.932 . S
C320 C316 1.308 . S
C320 C319 1.394 . S
C320 H347 0.929 . S
C321 Tb312 2.764 . S
C321 C315 1.504 . S
C321 O333 1.239 . S
C321 O334 1.263 . S
O322 Tb312 2.325 1_655 S
O322 C332 1.236 . S
O323 Tb313 2.342 . S
O323 C332 1.257 . S
O324 Tb313 2.373 . S
O324 C335 1.261 1_655 S
O325 Tb312 2.303 . S
O325 C335 1.257 . S
O326 Tb313 2.390 1_565 S
O326 C342 1.239 . S
O327 Tb313 2.396 1_565 S
O327 C342 1.263 . S
O328 Tb313 2.308 1_465 S
O328 C343 1.236 . S
O329 Tb312 2.322 1_565 S
O329 C343 1.257 . S
O330 Tb312 2.349 1_565 S
O330 C314 1.261 1_455 S
O331 Tb313 2.285 1_565 S
O331 C314 1.257 . S
C332 O322 1.236 . S
C332 O323 1.257 . S
O333 Tb312 2.415 . S
O333 C321 1.239 . S
O334 Tb312 2.399 . S
O334 C321 1.263 . S
C335 O324 1.261 1_455 S
C335 O325 1.257 . S
C336 C339 1.358 . S
C336 C340 1.332 . S
C336 C342 1.504 . S
C337 C338 1.373 . S
C337 C341 1.308 . S
C338 C337 1.373 . S
C338 C339 1.429 . S
C338 H348 0.932 . S
C339 C336 1.358 . S
C339 C338 1.429 . S
C339 H349 0.930 . S
C340 C336 1.332 . S
C340 C341 1.394 . S
C340 H350 0.932 . S
C341 C337 1.308 . S
C341 C340 1.394 . S
C341 H351 0.929 . S
C342 Tb313 2.748 1_565 S
C342 O326 1.239 . S
C342 O327 1.263 . S
C342 C336 1.504 . S
C343 O328 1.236 . S
C343 O329 1.257 . S
H344 C317 0.932 . S
H345 C318 0.930 . S
H346 C319 0.932 . S
H347 C320 0.929 . S
H348 C338 0.932 . S
H349 C339 0.930 . S
H350 C340 0.932 . S
H351 C341 0.929 . S
Tb352 C361 2.764 . S
Tb352 O362 2.325 1_554 S
Tb352 O365 2.303 . S
Tb352 O369 2.322 1_545 S
Tb352 O370 2.334 1_544 S
Tb352 O373 2.415 . S
Tb352 O374 2.399 . S
Tb353 O363 2.322 1_565 S
Tb353 O364 2.349 1_566 S
Tb353 O366 2.415 . S
Tb353 O367 2.399 . S
Tb353 O368 2.325 1_556 S
Tb353 O371 2.303 . S
Tb353 C382 2.764 . S
C354 O370 1.282 . S
C354 O371 1.257 . S
C355 C358 1.358 . S
C355 C359 1.332 . S
C355 C361 1.504 . S
C356 C357 1.373 . S
C356 C360 1.308 . S
C357 C356 1.373 . S
C357 C358 1.429 . S
C357 H384 0.932 . S
C358 C355 1.358 . S
C358 C357 1.429 . S
C358 H385 0.930 . S
C359 C355 1.332 . S
C359 C360 1.394 . S
C359 H386 0.932 . S
C360 C356 1.308 . S
C360 C359 1.394 . S
C360 H387 0.929 . S
C361 Tb352 2.764 . S
C361 C355 1.504 . S
C361 O373 1.239 . S
C361 O374 1.263 . S
O362 Tb352 2.325 1_556 S
O362 C372 1.236 . S
O363 Tb353 2.322 1_545 S
O363 C372 1.257 . S
O364 Tb353 2.349 1_544 S
O364 C375 1.261 . S
O365 Tb352 2.303 . S
O365 C375 1.257 . S
O366 Tb353 2.415 . S
O366 C382 1.239 . S
O367 Tb353 2.399 . S
O367 C382 1.263 . S
O368 Tb353 2.325 1_554 S
O368 C383 1.236 . S
O369 Tb352 2.322 1_565 S
O369 C383 1.257 . S
O370 Tb352 2.334 1_566 S
O370 C354 1.282 . S
O371 Tb353 2.303 . S
O371 C354 1.257 . S
C372 O362 1.236 . S
C372 O363 1.257 . S
O373 Tb352 2.415 . S
O373 C361 1.239 . S
O374 Tb352 2.399 . S
O374 C361 1.263 . S
C375 O364 1.261 . S
C375 O365 1.257 . S
C376 C379 1.358 . S
C376 C380 1.332 . S
C376 C382 1.504 . S
C377 C378 1.373 . S
C377 C381 1.308 . S
C378 C377 1.373 . S
C378 C379 1.429 . S
C378 H388 0.932 . S
C379 C376 1.358 . S
C379 C378 1.429 . S
C379 H389 0.930 . S
C380 C376 1.332 . S
C380 C381 1.394 . S
C380 H390 0.932 . S
C381 C377 1.308 . S
C381 C380 1.394 . S
C381 H391 0.929 . S
C382 Tb353 2.764 . S
C382 O366 1.239 . S
C382 O367 1.263 . S
C382 C376 1.504 . S
C383 O368 1.236 . S
C383 O369 1.257 . S
H384 C357 0.932 . S
H385 C358 0.930 . S
H386 C359 0.932 . S
H387 C360 0.929 . S
H388 C378 0.932 . S
H389 C379 0.930 . S
H390 C380 0.932 . S
H391 C381 0.929 . S
Tb392 C401 2.764 . S
Tb392 O402 2.325 . S
Tb392 O405 2.303 . S
Tb392 O409 2.322 . S
Tb392 O410 2.349 . S
Tb392 O413 2.415 . S
Tb392 O414 2.399 . S
Tb393 O403 2.322 . S
Tb393 O404 2.349 . S
Tb393 O406 2.415 . S
Tb393 O407 2.399 . S
Tb393 O408 2.325 . S
Tb393 O411 2.303 . S
Tb393 C422 2.764 . S
C394 O410 1.261 . S
C394 O411 1.257 . S
C395 C398 1.358 . S
C395 C399 1.332 . S
C395 C401 1.504 . S
C396 C397 1.373 . S
C396 C400 1.308 . S
C397 C396 1.373 . S
C397 C398 1.429 . S
C397 H424 0.932 . S
C398 C395 1.358 . S
C398 C397 1.429 . S
C398 H425 0.930 . S
C399 C395 1.332 . S
C399 C400 1.394 . S
C399 H426 0.932 . S
C400 C396 1.308 . S
C400 C399 1.394 . S
C400 H427 0.929 . S
C401 Tb392 2.764 . S
C401 C395 1.504 . S
C401 O413 1.239 . S
C401 O414 1.263 . S
O402 Tb392 2.325 . S
O402 C412 1.236 . S
O403 Tb393 2.322 . S
O403 C412 1.257 . S
O404 Tb393 2.349 . S
O404 C415 1.261 . S
O405 Tb392 2.303 . S
O405 C415 1.257 . S
O406 Tb393 2.415 . S
O406 C422 1.239 . S
O407 Tb393 2.399 . S
O407 C422 1.263 . S
O408 Tb393 2.325 . S
O408 C423 1.236 . S
O409 Tb392 2.322 . S
O409 C423 1.257 . S
O410 Tb392 2.349 . S
O410 C394 1.261 . S
O411 Tb393 2.303 . S
O411 C394 1.257 . S
C412 O402 1.236 . S
C412 O403 1.257 . S
O413 Tb392 2.415 . S
O413 C401 1.239 . S
O414 Tb392 2.399 . S
O414 C401 1.263 . S
C415 O404 1.261 . S
C415 O405 1.257 . S
C416 C419 1.358 . S
C416 C420 1.332 . S
C416 C422 1.504 . S
C417 C418 1.373 . S
C417 C421 1.308 . S
C418 C417 1.373 . S
C418 C419 1.429 . S
C418 H428 0.932 . S
C419 C416 1.358 . S
C419 C418 1.429 . S
C419 H429 0.930 . S
C420 C416 1.332 . S
C420 C421 1.394 . S
C420 H430 0.932 . S
C421 C417 1.308 . S
C421 C420 1.394 . S
C421 H431 0.929 . S
C422 Tb393 2.764 . S
C422 O406 1.239 . S
C422 O407 1.263 . S
C422 C416 1.504 . S
C423 O408 1.236 . S
C423 O409 1.257 . S
H424 C397 0.932 . S
H425 C398 0.930 . S
H426 C399 0.932 . S
H427 C400 0.929 . S
H428 C418 0.932 . S
H429 C419 0.930 . S
H430 C420 0.932 . S
H431 C421 0.929 . S
Tb432 C441 2.764 . S
Tb432 O442 2.325 . S
Tb432 O445 2.303 1_556 S
Tb432 O449 2.322 1_655 S
Tb432 O450 2.349 1_655 S
Tb432 O453 2.415 . S
Tb432 O454 2.399 . S
Tb433 O443 2.322 1_455 S
Tb433 O444 2.349 1_455 S
Tb433 O446 2.415 . S
Tb433 O447 2.399 . S
Tb433 O448 2.325 . S
Tb433 O451 2.303 1_554 S
Tb433 C462 2.764 . S
C434 O450 1.261 . S
C434 O451 1.257 . S
C435 C438 1.358 . S
C435 C439 1.332 . S
C435 C441 1.504 . S
C436 C437 1.373 . S
C436 C440 1.308 . S
C437 C436 1.373 . S
C437 C438 1.429 . S
C437 H464 0.932 . S
C438 C435 1.358 . S
C438 C437 1.429 . S
C438 H465 0.930 . S
C439 C435 1.332 . S
C439 C440 1.394 . S
C439 H466 0.932 . S
C440 C436 1.308 . S
C440 C439 1.394 . S
C440 H467 0.929 . S
C441 Tb432 2.764 . S
C441 C435 1.504 . S
C441 O453 1.239 . S
C441 O454 1.263 . S
O442 Tb432 2.325 . S
O442 C452 1.236 . S
O443 Tb433 2.322 1_655 S
O443 C452 1.257 1_554 S
O444 Tb433 2.349 1_655 S
O444 C455 1.261 . S
O445 Tb432 2.303 1_554 S
O445 C455 1.257 . S
O446 Tb433 2.415 . S
O446 C462 1.239 . S
O447 Tb433 2.399 . S
O447 C462 1.263 . S
O448 Tb433 2.325 . S
O448 C463 1.236 . S
O449 Tb432 2.322 1_455 S
O449 C463 1.258 1_556 S
O450 Tb432 2.349 1_455 S
O450 C434 1.261 . S
O451 Tb433 2.303 1_556 S
O451 C434 1.257 . S
C452 O442 1.236 . S
C452 O443 1.257 1_556 S
O453 Tb432 2.415 . S
O453 C441 1.239 . S
O454 Tb432 2.399 . S
O454 C441 1.263 . S
C455 O444 1.261 . S
C455 O445 1.257 . S
C456 C459 1.358 . S
C456 C460 1.332 . S
C456 C462 1.504 . S
C457 C458 1.373 . S
C457 C461 1.308 . S
C458 C457 1.373 . S
C458 C459 1.429 . S
C458 H468 0.932 . S
C459 C456 1.358 . S
C459 C458 1.429 . S
C459 H469 0.930 . S
C460 C456 1.332 . S
C460 C461 1.394 . S
C460 H470 0.932 . S
C461 C457 1.308 . S
C461 C460 1.394 . S
C461 H471 0.929 . S
C462 Tb433 2.764 . S
C462 O446 1.239 . S
C462 O447 1.263 . S
C462 C456 1.504 . S
C463 O448 1.236 . S
C463 O449 1.258 1_554 S
H464 C437 0.932 . S
H465 C438 0.930 . S
H466 C439 0.932 . S
H467 C440 0.929 . S
H468 C458 0.932 . S
H469 C459 0.930 . S
H470 C460 0.932 . S
H471 C461 0.929 . S
C472 C473 1.391 . S
C472 C474 1.394 . S
C472 H488 0.931 . S
C473 C472 1.391 . S
C473 C477 1.376 . S
C474 C472 1.394 . S
C474 C475 1.369 . S
C474 C478 1.531 . S
C475 C474 1.369 . S
C475 C476 1.410 . S
C475 C483 1.503 . S
C476 C475 1.410 . S
C476 C477 1.392 . S
C476 C479 1.511 . S
C477 C473 1.376 . S
C477 C476 1.392 . S
C477 H489 0.929 . S
C478 C474 1.531 . S
C478 H490 0.960 . S
C478 H491 0.962 . S
C478 H492 0.960 . S
C479 C476 1.511 . S
C479 H493 0.961 . S
C479 H494 0.961 . S
C479 H495 0.961 . S
C480 C481 1.370 . S
C480 C482 1.363 . S
C480 H496 0.931 . S
C481 C480 1.370 . S
C481 C485 1.408 . S
C482 C480 1.363 . S
C482 C483 1.370 . S
C482 C486 1.524 . S
C483 C475 1.503 . S
C483 C482 1.370 . S
C483 C484 1.403 . S
C484 C483 1.403 . S
C484 C485 1.404 . S
C484 C487 1.539 . S
C485 C481 1.408 . S
C485 C484 1.404 . S
C485 H497 0.930 . S
C486 C482 1.524 . S
C486 H498 0.956 . S
C486 H499 0.961 . S
C486 H500 0.961 . S
C487 C484 1.539 . S
C487 H501 0.958 . S
C487 H502 0.961 . S
C487 H503 0.960 . S
H488 C472 0.931 . S
H489 C477 0.929 . S
H490 C478 0.960 . S
H491 C478 0.962 . S
H492 C478 0.960 . S
H493 C479 0.961 . S
H494 C479 0.961 . S
H495 C479 0.961 . S
H496 C480 0.931 . S
H497 C485 0.930 . S
H498 C486 0.956 . S
H499 C486 0.961 . S
H500 C486 0.961 . S
H501 C487 0.958 . S
H502 C487 0.961 . S
H503 C487 0.960 . S
C504 C505 1.391 . S
C504 C506 1.394 . S
C504 H520 0.931 . S
C505 C504 1.391 . S
C505 C509 1.376 . S
C506 C504 1.394 . S
C506 C507 1.369 . S
C506 C510 1.531 . S
C507 C506 1.369 . S
C507 C508 1.410 . S
C507 C515 1.503 . S
C508 C507 1.410 . S
C508 C509 1.392 . S
C508 C511 1.511 . S
C509 C505 1.376 . S
C509 C508 1.392 . S
C509 H521 0.929 . S
C510 C506 1.531 . S
C510 H522 0.960 . S
C510 H523 0.962 . S
C510 H524 0.960 . S
C511 C508 1.511 . S
C511 H525 0.961 . S
C511 H526 0.961 . S
C511 H527 0.961 . S
C512 C513 1.370 . S
C512 C514 1.363 . S
C512 H528 0.931 . S
C513 C512 1.370 . S
C513 C517 1.408 . S
C514 C512 1.363 . S
C514 C515 1.370 . S
C514 C518 1.524 . S
C515 C507 1.503 . S
C515 C514 1.370 . S
C515 C516 1.403 . S
C516 C515 1.403 . S
C516 C517 1.404 . S
C516 C519 1.539 . S
C517 C513 1.408 . S
C517 C516 1.404 . S
C517 H529 0.930 . S
C518 C514 1.524 . S
C518 H530 0.956 . S
C518 H531 0.961 . S
C518 H532 0.961 . S
C519 C516 1.539 . S
C519 H533 0.958 . S
C519 H534 0.961 . S
C519 H535 0.960 . S
H520 C504 0.931 . S
H521 C509 0.929 . S
H522 C510 0.960 . S
H523 C510 0.962 . S
H524 C510 0.960 . S
H525 C511 0.961 . S
H526 C511 0.961 . S
H527 C511 0.961 . S
H528 C512 0.931 . S
H529 C517 0.930 . S
H530 C518 0.956 . S
H531 C518 0.961 . S
H532 C518 0.961 . S
H533 C519 0.958 . S
H534 C519 0.961 . S
H535 C519 0.960 . S
C536 C537 1.391 . S
C536 C538 1.394 . S
C536 H552 0.931 . S
C537 C536 1.391 . S
C537 C541 1.376 . S
C538 C536 1.394 . S
C538 C539 1.369 . S
C538 C542 1.531 . S
C539 C538 1.369 . S
C539 C540 1.410 . S
C539 C547 1.503 . S
C540 C539 1.410 . S
C540 C541 1.392 . S
C540 C543 1.511 . S
C541 C537 1.376 . S
C541 C540 1.392 . S
C541 H553 0.929 . S
C542 C538 1.531 . S
C542 H554 0.960 . S
C542 H555 0.962 . S
C542 H556 0.960 . S
C543 C540 1.511 . S
C543 H557 0.961 . S
C543 H558 0.961 . S
C543 H559 0.961 . S
C544 C545 1.370 . S
C544 C546 1.363 . S
C544 H560 0.931 . S
C545 C544 1.370 . S
C545 C549 1.408 . S
C546 C544 1.363 . S
C546 C547 1.370 . S
C546 C550 1.524 . S
C547 C539 1.503 . S
C547 C546 1.370 . S
C547 C548 1.403 . S
C548 C547 1.403 . S
C548 C549 1.404 . S
C548 C551 1.539 . S
C549 C545 1.408 . S
C549 C548 1.404 . S
C549 H561 0.930 . S
C550 C546 1.524 . S
C550 H562 0.956 . S
C550 H563 0.961 . S
C550 H564 0.961 . S
C551 C548 1.539 . S
C551 H565 0.958 . S
C551 H566 0.961 . S
C551 H567 0.960 . S
H552 C536 0.931 . S
H553 C541 0.929 . S
H554 C542 0.960 . S
H555 C542 0.962 . S
H556 C542 0.960 . S
H557 C543 0.961 . S
H558 C543 0.961 . S
H559 C543 0.961 . S
H560 C544 0.931 . S
H561 C549 0.930 . S
H562 C550 0.956 . S
H563 C550 0.961 . S
H564 C550 0.961 . S
H565 C551 0.958 . S
H566 C551 0.961 . S
H567 C551 0.960 . S
C568 C569 1.391 . S
C568 C570 1.394 . S
C568 H584 0.931 . S
C569 C568 1.391 . S
C569 C573 1.376 . S
C570 C568 1.394 . S
C570 C571 1.369 . S
C570 C574 1.531 . S
C571 C570 1.369 . S
C571 C572 1.410 . S
C571 C579 1.503 . S
C572 C571 1.410 . S
C572 C573 1.392 . S
C572 C575 1.511 . S
C573 C569 1.376 . S
C573 C572 1.392 . S
C573 H585 0.929 . S
C574 C570 1.531 . S
C574 H586 0.960 . S
C574 H587 0.962 . S
C574 H588 0.960 . S
C575 C572 1.511 . S
C575 H589 0.961 . S
C575 H590 0.961 . S
C575 H591 0.961 . S
C576 C577 1.370 . S
C576 C578 1.363 . S
C576 H592 0.931 . S
C577 C576 1.370 . S
C577 C581 1.408 . S
C578 C576 1.363 . S
C578 C579 1.370 . S
C578 C582 1.524 . S
C579 C571 1.503 . S
C579 C578 1.370 . S
C579 C580 1.403 . S
C580 C579 1.403 . S
C580 C581 1.404 . S
C580 C583 1.539 . S
C581 C577 1.408 . S
C581 C580 1.404 . S
C581 H593 0.956 . S
C582 C578 1.524 . S
C582 H594 0.956 . S
C582 H595 0.961 . S
C582 H596 0.961 . S
C583 C580 1.539 . S
C583 H597 0.958 . S
C583 H598 0.961 1_655 S
C583 H599 0.960 . S
H584 C568 0.931 . S
H585 C573 0.929 . S
H586 C574 0.960 . S
H587 C574 0.962 . S
H588 C574 0.960 . S
H589 C575 0.961 . S
H590 C575 0.961 . S
H591 C575 0.961 . S
H592 C576 0.931 . S
H593 C581 0.956 . S
H594 C582 0.956 . S
H595 C582 0.961 . S
H596 C582 0.961 . S
H597 C583 0.958 . S
H598 C583 0.961 1_455 S
H599 C583 0.960 . S
C600 C601 1.391 . S
C600 C602 1.394 . S
C600 H616 0.931 . S
C601 C600 1.391 . S
C601 C605 1.376 . S
C602 C600 1.394 . S
C602 C603 1.369 . S
C602 C606 1.531 . S
C603 C602 1.369 . S
C603 C604 1.410 . S
C603 C611 1.503 . S
C604 C603 1.410 . S
C604 C605 1.392 . S
C604 C607 1.511 . S
C605 C601 1.376 . S
C605 C604 1.392 . S
C605 H617 0.929 . S
C606 C602 1.531 . S
C606 H618 0.960 . S
C606 H619 0.962 . S
C606 H620 0.960 . S
C607 C604 1.511 . S
C607 H621 0.961 . S
C607 H622 0.961 . S
C607 H623 0.961 . S
C608 C609 1.370 . S
C608 C610 1.363 . S
C608 H624 0.931 . S
C609 C608 1.370 . S
C609 C613 1.408 . S
C610 C608 1.363 . S
C610 C611 1.370 . S
C610 C614 1.524 . S
C611 C603 1.503 . S
C611 C610 1.370 . S
C611 C612 1.403 . S
C612 C611 1.403 . S
C612 C613 1.404 . S
C612 C615 1.539 . S
C613 C609 1.408 . S
C613 C612 1.404 . S
C613 H625 0.930 . S
C614 C610 1.524 . S
C614 H626 0.956 . S
C614 H627 0.961 . S
C614 H628 0.961 . S
C615 C612 1.539 . S
C615 H629 0.958 . S
C615 H630 0.961 . S
C615 H631 0.960 . S
H616 C600 0.931 . S
H617 C605 0.929 . S
H618 C606 0.960 . S
H619 C606 0.962 . S
H620 C606 0.960 . S
H621 C607 0.961 . S
H622 C607 0.961 . S
H623 C607 0.961 . S
H624 C608 0.931 . S
H625 C613 0.930 . S
H626 C614 0.956 . S
H627 C614 0.961 . S
H628 C614 0.961 . S
H629 C615 0.958 . S
H630 C615 0.961 . S
H631 C615 0.960 . S
C632 C633 1.391 . S
C632 C634 1.394 . S
C632 H648 0.931 . S
C633 C632 1.391 . S
C633 C637 1.376 . S
C634 C632 1.394 . S
C634 C635 1.369 . S
C634 C638 1.531 . S
C635 C634 1.369 . S
C635 C636 1.410 . S
C635 C643 1.503 . S
C636 C635 1.410 . S
C636 C637 1.392 . S
C636 C639 1.511 . S
C637 C633 1.376 . S
C637 C636 1.392 . S
C637 H649 0.929 . S
C638 C634 1.531 . S
C638 H650 0.960 . S
C638 H651 0.962 . S
C638 H652 0.960 . S
C639 C636 1.511 . S
C639 H653 0.961 . S
C639 H654 0.961 . S
C639 H655 0.961 1_455 S
C640 C641 1.370 . S
C640 C642 1.363 . S
C640 H656 0.931 . S
C641 C640 1.370 . S
C641 C645 1.408 . S
C642 C640 1.363 . S
C642 C643 1.370 . S
C642 C646 1.524 . S
C643 C635 1.503 . S
C643 C642 1.370 . S
C643 C644 1.403 . S
C644 C643 1.403 . S
C644 C645 1.404 . S
C644 C647 1.563 . S
C645 C641 1.408 . S
C645 C644 1.404 . S
C645 H657 0.930 . S
C646 C642 1.524 . S
C646 H658 0.956 . S
C646 H659 0.961 . S
C646 H660 0.961 . S
C647 C644 1.563 . S
C647 H661 0.973 . S
C647 H662 0.922 1_455 S
C647 H663 0.962 . S
H648 C632 0.931 . S
H649 C637 0.929 . S
H650 C638 0.960 . S
H651 C638 0.962 . S
H652 C638 0.960 . S
H653 C639 0.961 . S
H654 C639 0.961 . S
H655 C639 0.961 1_655 S
H656 C640 0.931 . S
H657 C645 0.930 . S
H658 C646 0.956 . S
H659 C646 0.961 . S
H660 C646 0.961 . S
H661 C647 0.973 . S
H662 C647 0.922 1_655 S
H663 C647 0.962 . S
C664 C665 1.391 . S
C664 C666 1.394 . S
C664 H680 0.931 . S
C665 C664 1.391 . S
C665 C669 1.376 . S
C666 C664 1.394 . S
C666 C667 1.369 . S
C666 C670 1.531 . S
C667 C666 1.369 . S
C667 C668 1.410 . S
C667 C675 1.503 . S
C668 C667 1.410 . S
C668 C669 1.392 . S
C668 C671 1.511 . S
C669 C665 1.376 . S
C669 C668 1.392 . S
C669 H681 0.929 . S
C670 C666 1.531 . S
C670 H682 0.960 . S
C670 H683 0.962 . S
C670 H684 0.960 . S
C671 C668 1.511 . S
C671 H685 0.961 . S
C671 H686 0.961 . S
C671 H687 0.961 . S
C672 C673 1.370 . S
C672 C674 1.363 . S
C672 H688 0.931 . S
C673 C672 1.370 . S
C673 C677 1.408 . S
C674 C672 1.363 . S
C674 C675 1.370 . S
C674 C678 1.524 . S
C675 C667 1.503 . S
C675 C674 1.370 . S
C675 C676 1.403 . S
C676 C675 1.403 . S
C676 C677 1.404 . S
C676 C679 1.539 . S
C677 C673 1.408 . S
C677 C676 1.404 . S
C677 H689 0.930 . S
C678 C674 1.524 . S
C678 H690 0.956 . S
C678 H691 0.961 . S
C678 H692 0.961 . S
C679 C676 1.539 . S
C679 H693 0.958 . S
C679 H694 0.961 . S
C679 H695 0.960 . S
H680 C664 0.931 . S
H681 C669 0.929 . S
H682 C670 0.960 . S
H683 C670 0.962 . S
H684 C670 0.960 . S
H685 C671 0.961 . S
H686 C671 0.961 . S
H687 C671 0.961 . S
H688 C672 0.931 . S
H689 C677 0.930 . S
H690 C678 0.956 . S
H691 C678 0.961 . S
H692 C678 0.961 . S
H693 C679 0.958 . S
H694 C679 0.961 . S
H695 C679 0.960 . S
C696 C697 1.391 . S
C696 C698 1.394 . S
C696 H712 0.931 . S
C697 C696 1.391 . S
C697 C701 1.376 . S
C698 C696 1.394 . S
C698 C699 1.369 . S
C698 C702 1.531 . S
C699 C698 1.369 . S
C699 C700 1.410 . S
C699 C707 1.503 . S
C700 C699 1.410 . S
C700 C701 1.392 . S
C700 C703 1.511 . S
C701 C697 1.376 . S
C701 C700 1.392 . S
C701 H713 0.929 . S
C702 C698 1.531 . S
C702 H714 0.960 . S
C702 H715 0.962 . S
C702 H716 0.960 . S
C703 C700 1.511 . S
C703 H717 0.961 . S
C703 H718 0.961 . S
C703 H719 0.961 . S
C704 C705 1.370 . S
C704 C706 1.363 . S
C704 H720 0.931 . S
C705 C704 1.370 . S
C705 C709 1.408 . S
C706 C704 1.363 . S
C706 C707 1.370 . S
C706 C710 1.524 . S
C707 C699 1.503 . S
C707 C706 1.370 . S
C707 C708 1.403 . S
C708 C707 1.403 . S
C708 C709 1.404 . S
C708 C711 1.539 . S
C709 C705 1.408 . S
C709 C708 1.404 . S
C709 H721 0.930 . S
C710 C706 1.524 . S
C710 H722 0.956 . S
C710 H723 0.961 . S
C710 H724 0.961 . S
C711 C708 1.539 . S
C711 H725 0.958 . S
C711 H726 0.961 . S
C711 H727 0.960 . S
H712 C696 0.931 . S
H713 C701 0.929 . S
H714 C702 0.960 . S
H715 C702 0.962 . S
H716 C702 0.960 . S
H717 C703 0.961 . S
H718 C703 0.961 . S
H719 C703 0.961 . S
H720 C704 0.931 . S
H721 C709 0.930 . S
H722 C710 0.956 . S
H723 C710 0.961 . S
H724 C710 0.961 . S
H725 C711 0.958 . S
H726 C711 0.961 . S
H727 C711 0.960 . S
C728 C729 1.391 . S
C728 C730 1.394 . S
C728 H744 0.931 . S
C729 C728 1.391 . S
C729 C733 1.376 . S
C730 C728 1.394 . S
C730 C731 1.369 . S
C730 C734 1.531 . S
C731 C730 1.369 . S
C731 C732 1.410 . S
C731 C739 1.503 . S
C732 C731 1.410 . S
C732 C733 1.392 . S
C732 C735 1.511 . S
C733 C729 1.376 . S
C733 C732 1.392 . S
C733 H745 0.929 . S
C734 C730 1.531 . S
C734 H746 0.960 . S
C734 H747 0.962 . S
C734 H748 0.960 . S
C735 C732 1.511 . S
C735 H749 0.961 . S
C735 H750 0.961 . S
C735 H751 0.961 . S
C736 C737 1.370 . S
C736 C738 1.363 . S
C736 H752 0.931 . S
C737 C736 1.370 . S
C737 C741 1.408 . S
C738 C736 1.363 . S
C738 C739 1.370 . S
C738 C742 1.524 . S
C739 C731 1.503 . S
C739 C738 1.370 . S
C739 C740 1.403 . S
C740 C739 1.403 . S
C740 C741 1.404 . S
C740 C743 1.539 . S
C741 C737 1.408 . S
C741 C740 1.404 . S
C741 H753 0.930 . S
C742 C738 1.524 . S
C742 H754 0.956 . S
C742 H755 0.961 . S
C742 H756 0.961 . S
C743 C740 1.539 . S
C743 H757 0.958 . S
C743 H758 0.961 . S
C743 H759 0.960 . S
H744 C728 0.931 . S
H745 C733 0.929 . S
H746 C734 0.960 . S
H747 C734 0.962 . S
H748 C734 0.960 . S
H749 C735 0.961 . S
H750 C735 0.961 . S
H751 C735 0.961 . S
H752 C736 0.931 . S
H753 C741 0.930 . S
H754 C742 0.956 . S
H755 C742 0.961 . S
H756 C742 0.961 . S
H757 C743 0.958 . S
H758 C743 0.961 . S
H759 C743 0.960 . S
C760 C761 1.391 . S
C760 C762 1.394 . S
C760 H776 0.931 . S
C761 C760 1.391 . S
C761 C765 1.376 . S
C762 C760 1.394 . S
C762 C763 1.369 . S
C762 C766 1.531 . S
C763 C762 1.369 . S
C763 C764 1.410 . S
C763 C771 1.503 . S
C764 C763 1.410 . S
C764 C765 1.392 . S
C764 C767 1.511 . S
C765 C761 1.376 . S
C765 C764 1.392 . S
C765 H777 0.929 . S
C766 C762 1.531 . S
C766 H778 0.960 . S
C766 H779 0.962 . S
C766 H780 0.960 . S
C767 C764 1.511 . S
C767 H781 0.961 . S
C767 H782 0.961 . S
C767 H783 0.961 . S
C768 C769 1.370 . S
C768 C770 1.363 . S
C768 H784 0.931 . S
C769 C768 1.370 . S
C769 C773 1.408 . S
C770 C768 1.363 . S
C770 C771 1.370 . S
C770 C774 1.524 . S
C771 C763 1.503 . S
C771 C770 1.370 . S
C771 C772 1.403 . S
C772 C771 1.403 . S
C772 C773 1.404 . S
C772 C775 1.539 . S
C773 C769 1.408 . S
C773 C772 1.404 . S
C773 H785 0.930 1_556 S
C774 C770 1.524 . S
C774 H786 0.956 . S
C774 H787 0.961 . S
C774 H788 0.961 . S
C775 C772 1.539 . S
C775 H789 0.958 1_556 S
C775 H790 0.961 1_556 S
C775 H791 0.960 . S
H776 C760 0.931 . S
H777 C765 0.929 . S
H778 C766 0.960 . S
H779 C766 0.962 . S
H780 C766 0.960 . S
H781 C767 0.961 . S
H782 C767 0.961 . S
H783 C767 0.961 . S
H784 C768 0.931 . S
H785 C773 0.930 1_554 S
H786 C774 0.956 . S
H787 C774 0.961 . S
H788 C774 0.961 . S
H789 C775 0.958 1_554 S
H790 C775 0.961 1_554 S
H791 C775 0.960 . S
C792 C793 1.391 . S
C792 C794 1.394 . S
C792 H808 0.931 . S
C793 C792 1.391 . S
C793 C797 1.376 . S
C794 C792 1.394 . S
C794 C795 1.369 . S
C794 C798 1.531 . S
C795 C794 1.369 . S
C795 C796 1.410 . S
C795 C803 1.503 . S
C796 C795 1.410 . S
C796 C797 1.392 . S
C796 C799 1.511 . S
C797 C793 1.376 . S
C797 C796 1.392 . S
C797 H809 0.929 . S
C798 C794 1.531 . S
C798 H810 0.960 . S
C798 H811 0.962 . S
C798 H812 0.949 1_655 S
C799 C796 1.511 . S
C799 H813 0.961 . S
C799 H814 0.961 . S
C799 H815 0.961 . S
C800 C801 1.370 . S
C800 C802 1.363 . S
C800 H816 0.931 . S
C801 C800 1.370 . S
C801 C805 1.408 . S
C802 C800 1.363 . S
C802 C803 1.370 . S
C802 C806 1.524 . S
C803 C795 1.503 . S
C803 C802 1.370 . S
C803 C804 1.403 . S
C804 C803 1.403 . S
C804 C805 1.404 . S
C804 C807 1.539 . S
C805 C801 1.408 . S
C805 C804 1.404 . S
C805 H817 0.930 . S
C806 C802 1.524 . S
C806 H818 0.956 . S
C806 H819 0.961 . S
C806 H820 0.961 . S
C807 C804 1.539 . S
C807 H821 0.958 . S
C807 H822 0.961 . S
C807 H823 0.960 . S
H808 C792 0.931 . S
H809 C797 0.929 . S
H810 C798 0.960 . S
H811 C798 0.962 . S
H812 C798 0.949 1_455 S
H813 C799 0.961 . S
H814 C799 0.961 . S
H815 C799 0.961 . S
H816 C800 0.931 . S
H817 C805 0.930 . S
H818 C806 0.956 . S
H819 C806 0.961 . S
H820 C806 0.961 . S
H821 C807 0.958 . S
H822 C807 0.961 . S
H823 C807 0.960 . S
C824 C825 1.391 . S
C824 C826 1.394 . S
C824 H840 0.931 . S
C825 C824 1.391 . S
C825 C829 1.376 . S
C826 C824 1.394 . S
C826 C827 1.369 . S
C826 C830 1.531 . S
C827 C826 1.369 . S
C827 C828 1.410 . S
C827 C835 1.503 . S
C828 C827 1.410 . S
C828 C829 1.392 . S
C828 C831 1.511 . S
C829 C825 1.376 . S
C829 C828 1.392 . S
C829 H841 0.929 . S
C830 C826 1.531 . S
C830 H842 0.960 . S
C830 H843 0.962 . S
C830 H844 0.960 . S
C831 C828 1.511 . S
C831 H845 0.961 . S
C831 H846 0.961 . S
C831 H847 0.961 . S
C832 C833 1.370 . S
C832 C834 1.363 . S
C832 H848 0.931 . S
C833 C832 1.370 . S
C833 C837 1.408 . S
C834 C832 1.363 . S
C834 C835 1.370 . S
C834 C838 1.524 . S
C835 C827 1.503 . S
C835 C834 1.370 . S
C835 C836 1.403 . S
C836 C835 1.403 . S
C836 C837 1.404 . S
C836 C839 1.539 . S
C837 C833 1.408 . S
C837 C836 1.404 . S
C837 H849 0.930 . S
C838 C834 1.524 . S
C838 H850 0.956 . S
C838 H851 0.961 . S
C838 H852 0.961 . S
C839 C836 1.539 . S
C839 H853 0.958 . S
C839 H854 0.961 . S
C839 H855 0.960 . S
H840 C824 0.931 . S
H841 C829 0.929 . S
H842 C830 0.960 . S
H843 C830 0.962 . S
H844 C830 0.960 . S
H845 C831 0.961 . S
H846 C831 0.961 . S
H847 C831 0.961 . S
H848 C832 0.931 . S
H849 C837 0.930 . S
H850 C838 0.956 . S
H851 C838 0.961 . S
H852 C838 0.961 . S
H853 C839 0.958 . S
H854 C839 0.961 . S
H855 C839 0.960 . S
C856 C857 1.391 . S
C856 C858 1.394 . S
C856 H872 0.931 . S
C857 C856 1.391 . S
C857 C861 1.376 . S
C858 C856 1.394 . S
C858 C859 1.369 . S
C858 C862 1.531 . S
C859 C858 1.369 . S
C859 C860 1.410 . S
C859 C867 1.503 . S
C860 C859 1.410 . S
C860 C861 1.392 . S
C860 C863 1.511 . S
C861 C857 1.376 . S
C861 C860 1.392 . S
C861 H873 0.929 . S
C862 C858 1.531 . S
C862 H874 0.960 . S
C862 H875 0.962 . S
C862 H876 0.960 . S
C863 C860 1.511 . S
C863 H877 0.961 . S
C863 H878 0.961 . S
C863 H879 0.961 . S
C864 C865 1.370 . S
C864 C866 1.363 . S
C864 H880 0.931 . S
C865 C864 1.370 . S
C865 C869 1.408 . S
C866 C864 1.363 . S
C866 C867 1.370 . S
C866 C870 1.524 . S
C867 C859 1.503 . S
C867 C866 1.370 . S
C867 C868 1.403 . S
C868 C867 1.403 . S
C868 C869 1.404 . S
C868 C871 1.539 . S
C869 C865 1.408 . S
C869 C868 1.404 . S
C869 H881 0.930 . S
C870 C866 1.524 . S
C870 H882 0.956 . S
C870 H883 0.961 . S
C870 H884 0.961 . S
C871 C868 1.539 . S
C871 H885 0.958 . S
C871 H886 0.961 . S
C871 H887 0.960 . S
H872 C856 0.931 . S
H873 C861 0.929 . S
H874 C862 0.960 . S
H875 C862 0.962 . S
H876 C862 0.960 . S
H877 C863 0.961 . S
H878 C863 0.961 . S
H879 C863 0.961 . S
H880 C864 0.931 . S
H881 C869 0.930 . S
H882 C870 0.956 . S
H883 C870 0.961 . S
H884 C870 0.961 . S
H885 C871 0.958 . S
H886 C871 0.961 . S
H887 C871 0.960 . S
C888 C889 1.391 . S
C888 C890 1.394 . S
C888 H904 0.931 . S
C889 C888 1.391 . S
C889 C893 1.376 . S
C890 C888 1.394 . S
C890 C891 1.369 . S
C890 C894 1.531 . S
C891 C890 1.369 . S
C891 C892 1.410 . S
C891 C899 1.503 . S
C892 C891 1.410 . S
C892 C893 1.392 . S
C892 C895 1.511 . S
C893 C889 1.376 . S
C893 C892 1.392 . S
C893 H905 0.929 . S
C894 C890 1.531 . S
C894 H906 0.960 . S
C894 H907 0.962 . S
C894 H908 0.960 . S
C895 C892 1.511 . S
C895 H909 0.961 . S
C895 H910 0.961 . S
C895 H911 0.961 . S
C896 C897 1.370 . S
C896 C898 1.363 . S
C896 H912 0.931 . S
C897 C896 1.370 . S
C897 C901 1.408 . S
C898 C896 1.363 . S
C898 C899 1.370 . S
C898 C902 1.524 . S
C899 C891 1.503 . S
C899 C898 1.370 . S
C899 C900 1.403 . S
C900 C899 1.403 . S
C900 C901 1.404 . S
C900 C903 1.539 . S
C901 C897 1.408 . S
C901 C900 1.404 . S
C901 H913 0.930 . S
C902 C898 1.524 . S
C902 H914 0.956 . S
C902 H915 0.961 . S
C902 H916 0.961 . S
C903 C900 1.539 . S
C903 H917 0.958 . S
C903 H918 0.961 . S
C903 H919 0.960 . S
H904 C888 0.931 . S
H905 C893 0.929 . S
H906 C894 0.960 . S
H907 C894 0.962 . S
H908 C894 0.960 . S
H909 C895 0.961 . S
H910 C895 0.961 . S
H911 C895 0.961 . S
H912 C896 0.931 . S
H913 C901 0.930 . S
H914 C902 0.956 . S
H915 C902 0.961 . S
H916 C902 0.961 . S
H917 C903 0.958 . S
H918 C903 0.961 . S
H919 C903 0.960 . S
C920 C921 1.391 . S
C920 C922 1.394 . S
C920 H936 0.931 . S
C921 C920 1.391 . S
C921 C925 1.376 . S
C922 C920 1.394 . S
C922 C923 1.369 . S
C922 C926 1.531 . S
C923 C922 1.369 . S
C923 C924 1.410 . S
C923 C931 1.503 . S
C924 C923 1.410 . S
C924 C925 1.392 . S
C924 C927 1.511 . S
C925 C921 1.376 . S
C925 C924 1.392 . S
C925 H937 0.929 . S
C926 C922 1.531 . S
C926 H938 0.960 . S
C926 H939 0.962 . S
C926 H940 0.960 . S
C927 C924 1.511 . S
C927 H941 0.961 . S
C927 H942 0.961 . S
C927 H943 0.961 . S
C928 C929 1.370 . S
C928 C930 1.363 . S
C928 H944 0.931 . S
C929 C928 1.370 . S
C929 C933 1.408 . S
C930 C928 1.363 . S
C930 C931 1.370 . S
C930 C934 1.524 . S
C931 C923 1.503 . S
C931 C930 1.370 . S
C931 C932 1.403 . S
C932 C931 1.403 . S
C932 C933 1.404 . S
C932 C935 1.539 . S
C933 C929 1.408 . S
C933 C932 1.404 . S
C933 H945 0.930 . S
C934 C930 1.524 . S
C934 H946 0.956 . S
C934 H947 0.961 . S
C934 H948 0.961 . S
C935 C932 1.539 . S
C935 H949 0.958 . S
C935 H950 0.961 . S
C935 H951 0.960 . S
H936 C920 0.931 . S
H937 C925 0.929 . S
H938 C926 0.960 . S
H939 C926 0.962 . S
H940 C926 0.960 . S
H941 C927 0.961 . S
H942 C927 0.961 . S
H943 C927 0.961 . S
H944 C928 0.931 . S
H945 C933 0.930 . S
H946 C934 0.956 . S
H947 C934 0.961 . S
H948 C934 0.961 . S
H949 C935 0.958 . S
H950 C935 0.961 . S
H951 C935 0.960 . S
C952 C953 1.391 . S
C952 C954 1.394 . S
C952 H968 0.931 . S
C953 C952 1.391 . S
C953 C957 1.376 . S
C954 C952 1.394 . S
C954 C955 1.369 . S
C954 C958 1.531 . S
C955 C954 1.369 . S
C955 C956 1.410 . S
C955 C963 1.503 . S
C956 C955 1.410 . S
C956 C957 1.392 . S
C956 C959 1.511 . S
C957 C953 1.376 . S
C957 C956 1.392 . S
C957 H969 0.929 . S
C958 C954 1.531 . S
C958 H970 0.960 . S
C958 H971 0.962 . S
C958 H972 0.960 . S
C959 C956 1.511 . S
C959 H973 0.961 . S
C959 H974 0.961 . S
C959 H975 0.961 . S
C960 C961 1.370 . S
C960 C962 1.363 . S
C960 H976 0.931 . S
C961 C960 1.370 . S
C961 C965 1.408 . S
C962 C960 1.363 . S
C962 C963 1.370 . S
C962 C966 1.524 . S
C963 C955 1.503 . S
C963 C962 1.370 . S
C963 C964 1.403 . S
C964 C963 1.403 . S
C964 C965 1.404 . S
C964 C967 1.539 . S
C965 C961 1.408 . S
C965 C964 1.404 . S
C965 H977 0.930 . S
C966 C962 1.524 . S
C966 H978 0.956 . S
C966 H979 0.961 . S
C966 H980 0.961 . S
C967 C964 1.539 . S
C967 H981 0.958 . S
C967 H982 0.961 . S
C967 H983 0.960 . S
H968 C952 0.931 . S
H969 C957 0.929 . S
H970 C958 0.960 . S
H971 C958 0.962 . S
H972 C958 0.960 . S
H973 C959 0.961 . S
H974 C959 0.961 . S
H975 C959 0.961 . S
H976 C960 0.931 . S
H977 C965 0.930 . S
H978 C966 0.956 . S
H979 C966 0.961 . S
H980 C966 0.961 . S
H981 C967 0.958 . S
H982 C967 0.961 . S
H983 C967 0.960 . S
C984 C985 1.391 . S
C984 C986 1.394 . S
C984 H1000 0.931 . S
C985 C984 1.391 . S
C985 C989 1.376 . S
C986 C984 1.394 . S
C986 C987 1.369 . S
C986 C990 1.531 . S
C987 C986 1.369 . S
C987 C988 1.410 . S
C987 C995 1.503 . S
C988 C987 1.410 . S
C988 C989 1.392 . S
C988 C991 1.511 . S
C989 C985 1.376 . S
C989 C988 1.392 . S
C989 H1001 0.929 . S
C990 C986 1.531 . S
C990 H1002 0.960 . S
C990 H1003 0.962 . S
C990 H1004 0.960 . S
C991 C988 1.511 . S
C991 H1005 0.961 . S
C991 H1006 0.961 . S
C991 H1007 0.961 . S
C992 C993 1.370 . S
C992 C994 1.363 . S
C992 H1008 0.931 . S
C993 C992 1.370 . S
C993 C997 1.408 . S
C994 C992 1.363 . S
C994 C995 1.370 . S
C994 C998 1.524 . S
C995 C987 1.503 . S
C995 C994 1.370 . S
C995 C996 1.403 . S
C996 C995 1.403 . S
C996 C997 1.404 . S
C996 C999 1.539 . S
C997 C993 1.408 . S
C997 C996 1.404 . S
C997 H1009 0.930 . S
C998 C994 1.524 . S
C998 H1010 0.956 . S
C998 H1011 0.961 . S
C998 H1012 0.961 . S
C999 C996 1.539 . S
C999 H1013 0.958 . S
C999 H1014 0.961 . S
C999 H1015 0.960 . S
H1000 C984 0.931 . S
H1001 C989 0.929 . S
H1002 C990 0.960 . S
H1003 C990 0.962 . S
H1004 C990 0.960 . S
H1005 C991 0.961 . S
H1006 C991 0.961 . S
H1007 C991 0.961 . S
H1008 C992 0.931 . S
H1009 C997 0.930 . S
H1010 C998 0.956 . S
H1011 C998 0.961 . S
H1012 C998 0.961 . S
H1013 C999 0.958 . S
H1014 C999 0.961 . S
H1015 C999 0.960 . S
C1016 C1017 1.391 . S
C1016 C1018 1.394 . S
C1016 H1032 0.931 . S
C1017 C1016 1.391 . S
C1017 C1021 1.376 . S
C1018 C1016 1.394 . S
C1018 C1019 1.369 . S
C1018 C1022 1.531 . S
C1019 C1018 1.369 . S
C1019 C1020 1.410 . S
C1019 C1027 1.503 . S
C1020 C1019 1.410 . S
C1020 C1021 1.392 . S
C1020 C1023 1.511 . S
C1021 C1017 1.376 . S
C1021 C1020 1.392 . S
C1021 H1033 0.929 . S
C1022 C1018 1.531 . S
C1022 H1034 0.960 . S
C1022 H1035 0.962 . S
C1022 H1036 0.960 . S
C1023 C1020 1.511 . S
C1023 H1037 0.960 1_655 S
C1023 H1038 0.961 . S
C1023 H1039 0.961 1_655 S
C1024 C1025 1.370 . S
C1024 C1026 1.363 . S
C1024 H1040 0.931 . S
C1025 C1024 1.370 . S
C1025 C1029 1.408 . S
C1026 C1024 1.363 . S
C1026 C1027 1.370 . S
C1026 C1030 1.524 . S
C1027 C1019 1.503 . S
C1027 C1026 1.370 . S
C1027 C1028 1.403 . S
C1028 C1027 1.403 . S
C1028 C1029 1.404 . S
C1028 C1031 1.539 . S
C1029 C1025 1.408 . S
C1029 C1028 1.404 . S
C1029 H1041 0.930 . S
C1030 C1026 1.524 . S
C1030 H1042 0.956 . S
C1030 H1043 0.961 . S
C1030 H1044 0.961 . S
C1031 C1028 1.539 . S
C1031 H1045 0.958 . S
C1031 H1046 0.961 1_655 S
C1031 H1047 0.960 . S
H1032 C1016 0.931 . S
H1033 C1021 0.929 . S
H1034 C1022 0.960 . S
H1035 C1022 0.962 . S
H1036 C1022 0.960 . S
H1037 C1023 0.960 1_455 S
H1038 C1023 0.961 . S
H1039 C1023 0.961 1_455 S
H1040 C1024 0.931 . S
H1041 C1029 0.930 . S
H1042 C1030 0.956 . S
H1043 C1030 0.961 . S
H1044 C1030 0.961 . S
H1045 C1031 0.958 . S
H1046 C1031 0.961 1_455 S
H1047 C1031 0.960 . S
C1048 C1049 1.391 . S
C1048 C1050 1.394 . S
C1048 H1064 0.931 . S
C1049 C1048 1.391 . S
C1049 C1053 1.376 . S
C1050 C1048 1.394 . S
C1050 C1051 1.369 . S
C1050 C1054 1.531 . S
C1051 C1050 1.369 . S
C1051 C1052 1.410 . S
C1051 C1059 1.503 . S
C1052 C1051 1.410 . S
C1052 C1053 1.392 . S
C1052 C1055 1.511 . S
C1053 C1049 1.376 . S
C1053 C1052 1.392 . S
C1053 H1065 0.929 . S
C1054 C1050 1.531 . S
C1054 H1066 0.960 . S
C1054 H1067 0.962 . S
C1054 H1068 0.960 . S
C1055 C1052 1.511 . S
C1055 H1069 0.961 . S
C1055 H1070 0.961 . S
C1055 H1071 0.961 . S
C1056 C1057 1.370 . S
C1056 C1058 1.363 . S
C1056 H1072 0.931 . S
C1057 C1056 1.370 . S
C1057 C1061 1.408 . S
C1058 C1056 1.363 . S
C1058 C1059 1.370 . S
C1058 C1062 1.524 . S
C1059 C1051 1.503 . S
C1059 C1058 1.370 . S
C1059 C1060 1.403 . S
C1060 C1059 1.403 . S
C1060 C1061 1.404 . S
C1060 C1063 1.539 . S
C1061 C1057 1.408 . S
C1061 C1060 1.404 . S
C1061 H1073 0.930 1_554 S
C1062 C1058 1.524 . S
C1062 H1074 0.956 . S
C1062 H1075 0.961 . S
C1062 H1076 0.961 . S
C1063 C1060 1.539 . S
C1063 H1077 0.963 . S
C1063 H1078 0.961 1_554 S
C1063 H1079 0.960 . S
H1064 C1048 0.931 . S
H1065 C1053 0.929 . S
H1066 C1054 0.960 . S
H1067 C1054 0.962 . S
H1068 C1054 0.960 . S
H1069 C1055 0.961 . S
H1070 C1055 0.961 . S
H1071 C1055 0.961 . S
H1072 C1056 0.931 . S
H1073 C1061 0.930 1_556 S
H1074 C1062 0.956 . S
H1075 C1062 0.961 . S
H1076 C1062 0.961 . S
H1077 C1063 0.963 . S
H1078 C1063 0.961 1_556 S
H1079 C1063 0.960 . S
C1080 C1081 1.391 . S
C1080 C1082 1.394 . S
C1080 H1096 0.931 . S
C1081 C1080 1.391 . S
C1081 C1085 1.376 . S
C1082 C1080 1.394 . S
C1082 C1083 1.369 . S
C1082 C1086 1.531 . S
C1083 C1082 1.369 . S
C1083 C1084 1.410 . S
C1083 C1091 1.503 . S
C1084 C1083 1.410 . S
C1084 C1085 1.392 . S
C1084 C1087 1.511 . S
C1085 C1081 1.376 . S
C1085 C1084 1.392 . S
C1085 H1097 0.929 . S
C1086 C1082 1.531 . S
C1086 H1098 0.960 . S
C1086 H1099 0.962 . S
C1086 H1100 0.960 . S
C1087 C1084 1.511 . S
C1087 H1101 0.961 . S
C1087 H1102 0.961 . S
C1087 H1103 0.961 . S
C1088 C1089 1.370 . S
C1088 C1090 1.363 . S
C1088 H1104 0.931 . S
C1089 C1088 1.370 . S
C1089 C1093 1.408 . S
C1090 C1088 1.363 . S
C1090 C1091 1.370 . S
C1090 C1094 1.524 . S
C1091 C1083 1.503 . S
C1091 C1090 1.370 . S
C1091 C1092 1.403 . S
C1092 C1091 1.403 . S
C1092 C1093 1.404 . S
C1092 C1095 1.539 . S
C1093 C1089 1.408 . S
C1093 C1092 1.404 . S
C1093 H1105 0.930 . S
C1094 C1090 1.524 . S
C1094 H1106 0.956 . S
C1094 H1107 0.961 . S
C1094 H1108 0.961 . S
C1095 C1092 1.539 . S
C1095 H1109 0.958 . S
C1095 H1110 0.961 . S
C1095 H1111 0.960 . S
H1096 C1080 0.931 . S
H1097 C1085 0.929 . S
H1098 C1086 0.960 . S
H1099 C1086 0.962 . S
H1100 C1086 0.960 . S
H1101 C1087 0.961 . S
H1102 C1087 0.961 . S
H1103 C1087 0.961 . S
H1104 C1088 0.931 . S
H1105 C1093 0.930 . S
H1106 C1094 0.956 . S
H1107 C1094 0.961 . S
H1108 C1094 0.961 . S
H1109 C1095 0.958 . S
H1110 C1095 0.961 . S
H1111 C1095 0.960 . S
C1112 C1113 1.391 . S
C1112 C1114 1.394 . S
C1112 H1128 0.931 . S
C1113 C1112 1.391 . S
C1113 C1117 1.376 . S
C1114 C1112 1.394 . S
C1114 C1115 1.369 . S
C1114 C1118 1.531 . S
C1115 C1114 1.369 . S
C1115 C1116 1.410 . S
C1115 C1123 1.503 . S
C1116 C1115 1.410 . S
C1116 C1117 1.392 . S
C1116 C1119 1.511 . S
C1117 C1113 1.376 . S
C1117 C1116 1.392 . S
C1117 H1129 0.929 . S
C1118 C1114 1.531 . S
C1118 H1130 0.960 . S
C1118 H1131 0.962 . S
C1118 H1132 0.960 . S
C1119 C1116 1.511 . S
C1119 H1133 0.961 . S
C1119 H1134 0.961 . S
C1119 H1135 0.961 . S
C1120 C1121 1.370 . S
C1120 C1122 1.363 . S
C1120 H1136 0.931 . S
C1121 C1120 1.370 . S
C1121 C1125 1.408 . S
C1122 C1120 1.363 . S
C1122 C1123 1.370 . S
C1122 C1126 1.524 . S
C1123 C1115 1.503 . S
C1123 C1122 1.370 . S
C1123 C1124 1.403 . S
C1124 C1123 1.403 . S
C1124 C1125 1.404 . S
C1124 C1127 1.539 . S
C1125 C1121 1.408 . S
C1125 C1124 1.404 . S
C1125 H1137 0.930 . S
C1126 C1122 1.524 . S
C1126 H1138 0.956 . S
C1126 H1139 0.961 . S
C1126 H1140 0.961 . S
C1127 C1124 1.539 . S
C1127 H1141 0.958 . S
C1127 H1142 0.961 . S
C1127 H1143 0.960 . S
H1128 C1112 0.931 . S
H1129 C1117 0.929 . S
H1130 C1118 0.960 . S
H1131 C1118 0.962 . S
H1132 C1118 0.960 . S
H1133 C1119 0.961 . S
H1134 C1119 0.961 . S
H1135 C1119 0.961 . S
H1136 C1120 0.931 . S
H1137 C1125 0.930 . S
H1138 C1126 0.956 . S
H1139 C1126 0.961 . S
H1140 C1126 0.961 . S
H1141 C1127 0.958 . S
H1142 C1127 0.961 . S
H1143 C1127 0.960 . S
C1144 C1145 1.391 . S
C1144 C1146 1.394 . S
C1144 H1160 0.931 . S
C1145 C1144 1.391 . S
C1145 C1149 1.376 . S
C1146 C1144 1.394 . S
C1146 C1147 1.369 . S
C1146 C1150 1.531 . S
C1147 C1146 1.369 . S
C1147 C1148 1.410 . S
C1147 C1155 1.503 . S
C1148 C1147 1.410 . S
C1148 C1149 1.392 . S
C1148 C1151 1.511 . S
C1149 C1145 1.376 . S
C1149 C1148 1.392 . S
C1149 H1161 0.929 . S
C1150 C1146 1.531 . S
C1150 H1162 0.960 . S
C1150 H1163 0.962 . S
C1150 H1164 0.960 . S
C1151 C1148 1.511 . S
C1151 H1165 0.961 . S
C1151 H1166 0.961 . S
C1151 H1167 0.961 . S
C1152 C1153 1.370 . S
C1152 C1154 1.363 . S
C1152 H1168 0.931 . S
C1153 C1152 1.370 . S
C1153 C1157 1.408 . S
C1154 C1152 1.363 . S
C1154 C1155 1.370 . S
C1154 C1158 1.524 . S
C1155 C1147 1.503 . S
C1155 C1154 1.370 . S
C1155 C1156 1.403 . S
C1156 C1155 1.403 . S
C1156 C1157 1.404 . S
C1156 C1159 1.539 . S
C1157 C1153 1.408 . S
C1157 C1156 1.404 . S
C1157 H1169 0.930 . S
C1158 C1154 1.524 . S
C1158 H1170 0.956 . S
C1158 H1171 0.961 . S
C1158 H1172 0.961 . S
C1159 C1156 1.539 . S
C1159 H1173 0.958 . S
C1159 H1174 0.961 . S
C1159 H1175 0.960 . S
H1160 C1144 0.931 . S
H1161 C1149 0.929 . S
H1162 C1150 0.960 . S
H1163 C1150 0.962 . S
H1164 C1150 0.960 . S
H1165 C1151 0.961 . S
H1166 C1151 0.961 . S
H1167 C1151 0.961 . S
H1168 C1152 0.931 . S
H1169 C1157 0.930 . S
H1170 C1158 0.956 . S
H1171 C1158 0.961 . S
H1172 C1158 0.961 . S
H1173 C1159 0.958 . S
H1174 C1159 0.961 . S
H1175 C1159 0.960 . S
C1176 C1177 1.391 . S
C1176 C1178 1.394 . S
C1176 H1192 0.931 . S
C1177 C1176 1.391 . S
C1177 C1181 1.376 . S
C1178 C1176 1.394 . S
C1178 C1179 1.369 . S
C1178 C1182 1.531 . S
C1179 C1178 1.369 . S
C1179 C1180 1.410 . S
C1179 C1187 1.503 . S
C1180 C1179 1.410 . S
C1180 C1181 1.392 . S
C1180 C1183 1.511 . S
C1181 C1177 1.376 . S
C1181 C1180 1.392 . S
C1181 H1193 0.929 . S
C1182 C1178 1.531 . S
C1182 H1194 0.960 . S
C1182 H1195 0.962 . S
C1182 H1196 0.960 . S
C1183 C1180 1.511 . S
C1183 H1197 0.961 . S
C1183 H1198 0.961 . S
C1183 H1199 0.961 . S
C1184 C1185 1.370 . S
C1184 C1186 1.363 . S
C1184 H1200 0.931 . S
C1185 C1184 1.370 . S
C1185 C1189 1.408 . S
C1186 C1184 1.363 . S
C1186 C1187 1.370 . S
C1186 C1190 1.524 . S
C1187 C1179 1.503 . S
C1187 C1186 1.370 . S
C1187 C1188 1.403 . S
C1188 C1187 1.403 . S
C1188 C1189 1.404 . S
C1188 C1191 1.539 . S
C1189 C1185 1.408 . S
C1189 C1188 1.404 . S
C1189 H1201 0.930 . S
C1190 C1186 1.524 . S
C1190 H1202 0.956 . S
C1190 H1203 0.961 . S
C1190 H1204 0.961 . S
C1191 C1188 1.539 . S
C1191 H1205 0.958 . S
C1191 H1206 0.961 . S
C1191 H1207 0.960 . S
H1192 C1176 0.931 . S
H1193 C1181 0.929 . S
H1194 C1182 0.960 . S
H1195 C1182 0.962 . S
H1196 C1182 0.960 . S
H1197 C1183 0.961 . S
H1198 C1183 0.961 . S
H1199 C1183 0.961 . S
H1200 C1184 0.931 . S
H1201 C1189 0.930 . S
H1202 C1190 0.956 . S
H1203 C1190 0.961 . S
H1204 C1190 0.961 . S
H1205 C1191 0.958 . S
H1206 C1191 0.961 . S
H1207 C1191 0.960 . S
C1208 C1209 1.391 . S
C1208 C1210 1.394 . S
C1208 H1224 0.931 . S
C1209 C1208 1.391 . S
C1209 C1213 1.376 . S
C1210 C1208 1.394 . S
C1210 C1211 1.369 . S
C1210 C1214 1.531 . S
C1211 C1210 1.369 . S
C1211 C1212 1.410 . S
C1211 C1219 1.503 . S
C1212 C1211 1.410 . S
C1212 C1213 1.392 . S
C1212 C1215 1.511 . S
C1213 C1209 1.376 . S
C1213 C1212 1.392 . S
C1213 H1225 0.929 . S
C1214 C1210 1.531 . S
C1214 H1226 0.960 . S
C1214 H1227 0.962 . S
C1214 H1228 0.960 . S
C1215 C1212 1.511 . S
C1215 H1229 0.961 . S
C1215 H1230 0.961 . S
C1215 H1231 0.961 . S
C1216 C1217 1.370 . S
C1216 C1218 1.363 . S
C1216 H1232 0.931 . S
C1217 C1216 1.370 . S
C1217 C1221 1.408 . S
C1218 C1216 1.363 . S
C1218 C1219 1.370 . S
C1218 C1222 1.524 . S
C1219 C1211 1.503 . S
C1219 C1218 1.370 . S
C1219 C1220 1.403 . S
C1220 C1219 1.403 . S
C1220 C1221 1.404 . S
C1220 C1223 1.539 . S
C1221 C1217 1.408 . S
C1221 C1220 1.404 . S
C1221 H1233 0.930 . S
C1222 C1218 1.524 . S
C1222 H1234 0.956 . S
C1222 H1235 0.961 . S
C1222 H1236 0.961 . S
C1223 C1220 1.539 . S
C1223 H1237 0.958 . S
C1223 H1238 0.961 . S
C1223 H1239 0.960 . S
H1224 C1208 0.931 . S
H1225 C1213 0.929 . S
H1226 C1214 0.960 . S
H1227 C1214 0.962 . S
H1228 C1214 0.960 . S
H1229 C1215 0.961 . S
H1230 C1215 0.961 . S
H1231 C1215 0.961 . S
H1232 C1216 0.931 . S
H1233 C1221 0.930 . S
H1234 C1222 0.956 . S
H1235 C1222 0.961 . S
H1236 C1222 0.961 . S
H1237 C1223 0.958 . S
H1238 C1223 0.961 . S
H1239 C1223 0.960 . S
C473 C1 0.883 . S
C481 C316 0.957 . S
C505 C40 1.215 . S
C513 C377 1.247 . S
C545 C415 2.512 . S
C537 C99 2.564 . S
C569 C118 2.332 . S
C577 C455 2.281 . S
C609 C375 1.291 . S
C601 C16 1.287 . S
C641 C343 2.153 . S
C633 C60 2.083 . S
C673 C452 1.743 . S
C665 C79 1.760 . S
C705 C412 1.821 . S
C697 C138 1.822 . S
C729 C21 1.118 . S
C737 C457 1.107 . S
C769 C372 2.404 . S
C761 C94 2.398 . S
C793 C133 2.164 . S
C801 C314 2.124 . S
C825 C55 1.498 . S
C833 C417 1.592 . S
C865 C337 0.936 . S
C857 C157 0.981 . S
C889 C196 1.207 . S
C897 C356 1.247 . S
C921 C255 2.560 . S
C929 C394 2.505 . S
C953 C289 2.322 . S
C961 C434 2.287 . S
C985 C172 1.266 . S
C993 C354 1.302 . S
C1025 C332 2.153 . S
C1017 C216 2.054 . S
C1057 C463 1.750 . S
C1049 C235 1.749 . S
C1089 C423 1.826 . S
C1081 C294 1.829 . S
C1113 C177 1.108 . S
C1121 C436 1.115 . S
C1153 C383 2.402 . S
C1145 C250 2.400 . S
C1185 C335 2.128 . S
C1177 C274 2.163 . S
C1209 C211 1.559 . S
C1217 C396 1.579 . S
