# Generated by pormake.
# Topology cml, (3,6)-cn, num edge types: 1
# Building blocks:
#     Node 0, Type 0, BuildingBlock: KAKCAD_clean_linker_0, # of connection points: 3
#     Node 1, Type 0, BuildingBlock: KAKCAD_clean_linker_0, # of connection points: 3
#     Node 2, Type 0, BuildingBlock: KAKCAD_clean_linker_0, # of connection points: 3
#     Node 3, Type 0, BuildingBlock: KAKCAD_clean_linker_0, # of connection points: 3
#     Node 4, Type 0, BuildingBlock: KAKCAD_clean_linker_0, # of connection points: 3
#     Node 5, Type 0, BuildingBlock: KAKCAD_clean_linker_0, # of connection points: 3
#     Node 6, Type 0, BuildingBlock: KAKCAD_clean_linker_0, # of connection points: 3
#     Node 7, Type 0, BuildingBlock: KAKCAD_clean_linker_0, # of connection points: 3
#     Node 8, Type 1, BuildingBlock: IZENUY_clean_sbu_0, # of connection points: 6
#     Node 9, Type 1, BuildingBlock: IZENUY_clean_sbu_0, # of connection points: 6
#     Node 10, Type 1, BuildingBlock: IZENUY_clean_sbu_0, # of connection points: 6
#     Node 11, Type 1, BuildingBlock: IZENUY_clean_sbu_0, # of connection points: 6
#     Edge 12, Type (0, 1), BuildingBlock: AJUNOK_clean_linker_0, # of connection points: 2
#     Edge 13, Type (0, 1), BuildingBlock: AJUNOK_clean_linker_0, # of connection points: 2
#     Edge 14, Type (0, 1), BuildingBlock: AJUNOK_clean_linker_0, # of connection points: 2
#     Edge 15, Type (0, 1), BuildingBlock: AJUNOK_clean_linker_0, # of connection points: 2
#     Edge 16, Type (0, 1), BuildingBlock: AJUNOK_clean_linker_0, # of connection points: 2
#     Edge 17, Type (0, 1), BuildingBlock: AJUNOK_clean_linker_0, # of connection points: 2
#     Edge 18, Type (0, 1), BuildingBlock: AJUNOK_clean_linker_0, # of connection points: 2
#     Edge 19, Type (0, 1), BuildingBlock: AJUNOK_clean_linker_0, # of connection points: 2
#     Edge 20, Type (0, 1), BuildingBlock: AJUNOK_clean_linker_0, # of connection points: 2
#     Edge 21, Type (0, 1), BuildingBlock: AJUNOK_clean_linker_0, # of connection points: 2
#     Edge 22, Type (0, 1), BuildingBlock: AJUNOK_clean_linker_0, # of connection points: 2
#     Edge 23, Type (0, 1), BuildingBlock: AJUNOK_clean_linker_0, # of connection points: 2
#     Edge 24, Type (0, 1), BuildingBlock: AJUNOK_clean_linker_0, # of connection points: 2
#     Edge 25, Type (0, 1), BuildingBlock: AJUNOK_clean_linker_0, # of connection points: 2
#     Edge 26, Type (0, 1), BuildingBlock: AJUNOK_clean_linker_0, # of connection points: 2
#     Edge 27, Type (0, 1), BuildingBlock: AJUNOK_clean_linker_0, # of connection points: 2
#     Edge 28, Type (0, 1), BuildingBlock: AJUNOK_clean_linker_0, # of connection points: 2
#     Edge 29, Type (0, 1), BuildingBlock: AJUNOK_clean_linker_0, # of connection points: 2
#     Edge 30, Type (0, 1), BuildingBlock: AJUNOK_clean_linker_0, # of connection points: 2
#     Edge 31, Type (0, 1), BuildingBlock: AJUNOK_clean_linker_0, # of connection points: 2
#     Edge 32, Type (0, 1), BuildingBlock: AJUNOK_clean_linker_0, # of connection points: 2
#     Edge 33, Type (0, 1), BuildingBlock: AJUNOK_clean_linker_0, # of connection points: 2
#     Edge 34, Type (0, 1), BuildingBlock: AJUNOK_clean_linker_0, # of connection points: 2
#     Edge 35, Type (0, 1), BuildingBlock: AJUNOK_clean_linker_0, # of connection points: 2
# Relax obj value: 0.055
# Max RMSD: 0.071
# Mean RMSD: 0.068
data_MOF--net-cml--node1-IZENUY_clean_sbu_0--node2-KAKCAD_clean_linker_0--edge1-AJUNOK_clean_linker_0
_symmetry_space_group_name_H-M    P1
_symmetry_Int_Tables_number       1
_symmetry_cell_setting            triclinic
loop_
_symmetry_equiv_pos_as_xyz
'x, y, z'
_cell_length_a     34.09073
_cell_length_b     39.411552
_cell_length_c     36.741409
_cell_angle_alpha  89.904905
_cell_angle_beta   90.032044
_cell_angle_gamma 89.866077
loop_
_atom_site_label
_atom_site_type_symbol
_atom_site_fract_x
_atom_site_fract_y
_atom_site_fract_z
_atom_type_partial_charge
C0 C 0.32334 0.49362 0.93419 0.0
C1 C 0.36326 0.49256 0.92489 0.0
C2 C 0.30603 0.46617 0.9523 0.0
C3 C 0.32873 0.4378 0.96206 0.0
C4 C 0.36855 0.43673 0.95245 0.0
C5 C 0.3856 0.46377 0.93377 0.0
C6 C 0.31176 0.40996 0.98388 0.0
C7 C 0.27963 0.39133 0.97102 0.0
C8 C 0.2654 0.36348 0.99096 0.0
C9 C 0.28256 0.35531 0.02469 0.0
C10 C 0.31421 0.37428 0.03813 0.0
C11 C 0.32887 0.40131 0.01733 0.0
C12 C 0.33233 0.36612 0.07376 0.0
C13 C 0.30904 0.36182 0.10499 0.0
C14 C 0.37334 0.36425 0.07704 0.0
C15 C 0.39078 0.35902 0.11095 0.0
C16 C 0.36761 0.35588 0.14234 0.0
C17 C 0.23408 0.34184 0.97561 0.0
C18 C 0.19901 0.35625 0.96265 0.0
C19 C 0.2397 0.3066 0.97285 0.0
C20 C 0.211 0.28619 0.95691 0.0
C21 C 0.176 0.30062 0.94405 0.0
C22 C 0.16997 0.3357 0.94733 0.0
C23 C 0.32656 0.35692 0.13907 0.0
H24 H 0.30573 0.51573 0.9277 0.0
H25 H 0.2753 0.46753 0.95969 0.0
H26 H 0.38655 0.41505 0.95972 0.0
H27 H 0.41654 0.46265 0.92714 0.0
H28 H 0.26691 0.39754 0.94478 0.0
H29 H 0.35333 0.41611 0.02746 0.0
H30 H 0.27158 0.33395 0.04024 0.0
H31 H 0.27737 0.36329 0.1032 0.0
H32 H 0.39195 0.36715 0.05335 0.0
H33 H 0.42249 0.35832 0.1128 0.0
H34 H 0.19402 0.38334 0.96457 0.0
H35 H 0.26665 0.29496 0.98236 0.0
H36 H 0.30811 0.3542 0.16288 0.0
H37 H 0.14307 0.34722 0.93753 0.0
H38 H 0.21606 0.25912 0.95467 0.0
C39 C 0.68851 0.52188 0.42967 0.0
C40 C 0.64787 0.51686 0.4325 0.0
C41 C 0.70632 0.54915 0.44758 0.0
C42 C 0.68369 0.57181 0.46848 0.0
C43 C 0.64283 0.56734 0.46997 0.0
C44 C 0.62518 0.54009 0.45234 0.0
C45 C 0.70243 0.5993 0.4899 0.0
C46 C 0.73277 0.61897 0.47508 0.0
C47 C 0.74974 0.64556 0.49519 0.0
C48 C 0.73617 0.65206 0.53073 0.0
C49 C 0.70555 0.63282 0.54563 0.0
C50 C 0.68917 0.6064 0.52524 0.0
C51 C 0.68888 0.64103 0.58176 0.0
C52 C 0.71273 0.64276 0.61291 0.0
C53 C 0.64826 0.64597 0.58527 0.0
C54 C 0.63167 0.65227 0.61926 0.0
C55 C 0.6553 0.65345 0.65051 0.0
C56 C 0.78025 0.66741 0.4783 0.0
C57 C 0.80962 0.6532 0.45612 0.0
C58 C 0.7795 0.70278 0.48328 0.0
C59 C 0.80727 0.72345 0.46628 0.0
C60 C 0.83618 0.70923 0.44374 0.0
C61 C 0.83728 0.67391 0.43901 0.0
C62 C 0.69596 0.64856 0.64719 0.0
H63 H 0.70658 0.50409 0.41469 0.0
H64 H 0.73789 0.55183 0.44607 0.0
H65 H 0.62444 0.58478 0.48508 0.0
H66 H 0.5937 0.53693 0.45451 0.0
H67 H 0.74212 0.61439 0.44733 0.0
H68 H 0.66606 0.59115 0.53717 0.0
H69 H 0.74882 0.67248 0.54656 0.0
H70 H 0.74411 0.63882 0.61083 0.0
H71 H 0.62928 0.64487 0.56163 0.0
H72 H 0.60019 0.65564 0.62126 0.0
H73 H 0.81141 0.62601 0.45217 0.0
H74 H 0.75695 0.71463 0.49969 0.0
H75 H 0.71464 0.6493 0.67103 0.0
H76 H 0.85982 0.66226 0.42239 0.0
H77 H 0.80578 0.75065 0.47028 0.0
C78 C 0.67151 0.4764 0.92514 0.0
C79 C 0.65955 0.5047 0.94569 0.0
C80 C 0.68912 0.44836 0.94195 0.0
C81 C 0.69562 0.44801 0.97975 0.0
C82 C 0.68535 0.47704 0.99999 0.0
C83 C 0.66719 0.50484 0.98326 0.0
C84 C 0.7109 0.41692 0.99836 0.0
C85 C 0.73889 0.39576 0.98161 0.0
C86 C 0.75231 0.36601 0.99894 0.0
C87 C 0.73795 0.35784 0.03376 0.0
C88 C 0.71011 0.37864 0.05101 0.0
C89 C 0.69646 0.40777 0.03283 0.0
C90 C 0.69463 0.37002 0.08779 0.0
C91 C 0.68573 0.3363 0.09733 0.0
C92 C 0.68725 0.39584 0.11327 0.0
C93 C 0.67022 0.38838 0.14686 0.0
C94 C 0.66073 0.3548 0.1562 0.0
C95 C 0.78105 0.34325 0.98059 0.0
C96 C 0.77698 0.33533 0.94346 0.0
C97 C 0.81235 0.32876 1.00019 0.0
C98 C 0.83897 0.30696 0.98308 0.0
C99 C 0.83499 0.29918 0.94595 0.0
C100 C 0.80358 0.31345 0.92637 0.0
C101 C 0.66895 0.32879 0.13117 0.0
H102 H 0.6663 0.47554 0.89607 0.0
H103 H 0.69622 0.42649 0.92541 0.0
H104 H 0.69058 0.47809 0.02904 0.0
H105 H 0.65775 0.52583 1.00011 0.0
H106 H 0.7508 0.40267 0.95531 0.0
H107 H 0.67353 0.42289 0.04524 0.0
H108 H 0.74832 0.33513 0.04737 0.0
H109 H 0.6906 0.31581 0.07825 0.0
H110 H 0.69418 0.42203 0.10708 0.0
H111 H 0.66332 0.40917 0.16501 0.0
H112 H 0.7528 0.34557 0.92774 0.0
H113 H 0.81658 0.3346 0.02872 0.0
H114 H 0.66183 0.30268 0.13754 0.0
H115 H 0.79925 0.30736 0.89792 0.0
H116 H 0.86305 0.29652 0.9988 0.0
C117 C 0.32909 0.66787 0.63959 0.0
C118 C 0.36984 0.66408 0.64343 0.0
C119 C 0.31117 0.66209 0.6058 0.0
C120 C 0.33382 0.65244 0.57549 0.0
C121 C 0.3748 0.65059 0.57915 0.0
C122 C 0.39256 0.65621 0.61274 0.0
C123 C 0.3151 0.6423 0.54065 0.0
C124 C 0.28445 0.66146 0.52538 0.0
C125 C 0.2678 0.65223 0.49174 0.0
C126 C 0.2818 0.62304 0.47373 0.0
C127 C 0.31251 0.60372 0.48869 0.0
C128 C 0.3287 0.61343 0.52217 0.0
C129 C 0.32928 0.57415 0.46905 0.0
C130 C 0.30523 0.54805 0.45565 0.0
C131 C 0.3701 0.57153 0.46465 0.0
C132 C 0.38663 0.54337 0.44751 0.0
C133 C 0.36279 0.51696 0.4347 0.0
C134 C 0.23702 0.67396 0.4748 0.0
C135 C 0.20667 0.68793 0.49599 0.0
C136 C 0.23843 0.6817 0.43745 0.0
C137 C 0.21012 0.70281 0.42165 0.0
C138 C 0.17962 0.7165 0.44278 0.0
C139 C 0.17832 0.70901 0.48015 0.0
C140 C 0.3219 0.5195 0.43884 0.0
H141 H 0.31099 0.67367 0.663 0.0
H142 H 0.27952 0.66366 0.6038 0.0
H143 H 0.39315 0.644 0.55614 0.0
H144 H 0.4241 0.65347 0.61502 0.0
H145 H 0.27464 0.68431 0.53903 0.0
H146 H 0.3519 0.59814 0.53405 0.0
H147 H 0.26933 0.61568 0.44778 0.0
H148 H 0.27368 0.54942 0.45884 0.0
H149 H 0.38932 0.59139 0.47444 0.0
H150 H 0.41823 0.54201 0.44466 0.0
H151 H 0.20459 0.68227 0.52478 0.0
H152 H 0.26187 0.67197 0.42051 0.0
H153 H 0.30292 0.49957 0.42886 0.0
H154 H 0.15501 0.71908 0.49704 0.0
H155 H 0.21237 0.70876 0.39294 0.0
C156 C 0.81957 0.99672 0.93324 0.0
C157 C 0.85991 0.99565 0.92549 0.0
C158 C 0.80151 0.96947 0.95105 0.0
C159 C 0.82379 0.9412 0.96192 0.0
C160 C 0.86389 0.93989 0.95338 0.0
C161 C 0.88172 0.96676 0.93504 0.0
C162 C 0.80626 0.91401 0.98427 0.0
C163 C 0.77444 0.89495 0.97146 0.0
C164 C 0.75991 0.86759 0.99202 0.0
C165 C 0.77652 0.86035 0.02625 0.0
C166 C 0.80787 0.87977 0.03961 0.0
C167 C 0.82269 0.90635 0.01827 0.0
C168 C 0.82606 0.87214 0.07538 0.0
C169 C 0.8029 0.8677 0.10669 0.0
C170 C 0.86709 0.87059 0.07857 0.0
C171 C 0.88466 0.86498 0.11234 0.0
C172 C 0.86161 0.86084 0.14367 0.0
C173 C 0.72887 0.84549 0.97682 0.0
C174 C 0.69414 0.85954 0.96266 0.0
C175 C 0.73439 0.81017 0.97546 0.0
C176 C 0.70589 0.78929 0.95985 0.0
C177 C 0.6711 0.80333 0.94599 0.0
C178 C 0.66531 0.83857 0.94766 0.0
C179 C 0.82058 0.86238 0.14066 0.0
H180 H 0.80226 0.01881 0.926 0.0
H181 H 0.77056 0.97099 0.95754 0.0
H182 H 0.88156 0.91826 0.96145 0.0
H183 H 0.9129 0.96551 0.92947 0.0
H184 H 0.76224 0.90043 0.94482 0.0
H185 H 0.84693 0.92147 0.02831 0.0
H186 H 0.76543 0.83929 0.04221 0.0
H187 H 0.77121 0.86909 0.105 0.0
H188 H 0.88565 0.87374 0.05489 0.0
H189 H 0.91638 0.86428 0.11405 0.0
H190 H 0.68923 0.8867 0.96343 0.0
H191 H 0.7611 0.79877 0.98585 0.0
H192 H 0.80228 0.85929 0.16453 0.0
H193 H 0.63868 0.84987 0.93696 0.0
H194 H 0.71086 0.76215 0.95881 0.0
C195 C 0.18144 0.02759 0.42294 0.0
C196 C 0.14127 0.02115 0.42708 0.0
C197 C 0.19864 0.05529 0.44063 0.0
C198 C 0.17578 0.07697 0.46255 0.0
C199 C 0.1352 0.07102 0.46523 0.0
C200 C 0.11821 0.04327 0.44788 0.0
C201 C 0.1941 0.10485 0.48383 0.0
C202 C 0.22391 0.12502 0.46882 0.0
C203 C 0.24078 0.15164 0.48895 0.0
C204 C 0.22745 0.15788 0.52461 0.0
C205 C 0.19739 0.13815 0.53982 0.0
C206 C 0.18129 0.11155 0.51943 0.0
C207 C 0.18151 0.14564 0.57653 0.0
C208 C 0.20646 0.15 0.60664 0.0
C209 C 0.14074 0.14739 0.58171 0.0
C210 C 0.12514 0.15276 0.61629 0.0
C211 C 0.14992 0.15625 0.64658 0.0
C212 C 0.27145 0.17344 0.47223 0.0
C213 C 0.30112 0.15911 0.4505 0.0
C214 C 0.2709 0.20881 0.47729 0.0
C215 C 0.29922 0.22935 0.46087 0.0
C216 C 0.32854 0.215 0.43887 0.0
C217 C 0.32937 0.17967 0.43403 0.0
C218 C 0.19076 0.15506 0.64148 0.0
H219 H 0.19965 0.01059 0.40709 0.0
H220 H 0.22999 0.05902 0.43818 0.0
H221 H 0.11655 0.08762 0.48114 0.0
H222 H 0.08708 0.0387 0.45119 0.0
H223 H 0.23311 0.12069 0.44098 0.0
H224 H 0.15891 0.09571 0.53165 0.0
H225 H 0.24006 0.17835 0.54039 0.0
H226 H 0.238 0.14868 0.60337 0.0
H227 H 0.12083 0.14448 0.55893 0.0
H228 H 0.09356 0.15349 0.61951 0.0
H229 H 0.30278 0.13192 0.44655 0.0
H230 H 0.24816 0.22073 0.49342 0.0
H231 H 0.21045 0.15802 0.6644 0.0
H232 H 0.3522 0.16788 0.41789 0.0
H233 H 0.29791 0.25655 0.46498 0.0
C234 C 0.15463 0.97022 0.9283 0.0
C235 C 0.15737 1.00264 0.94422 0.0
C236 C 0.17274 0.94211 0.94447 0.0
C237 C 0.19307 0.94557 0.97743 0.0
C238 C 0.19588 0.9778 0.99348 0.0
C239 C 0.1785 1.00608 0.97691 0.0
C240 C 0.20885 0.91523 0.99633 0.0
C241 C 0.23472 0.8929 0.97867 0.0
C242 C 0.2489 0.86374 0.99661 0.0
C243 C 0.23599 0.85675 0.03223 0.0
C244 C 0.20973 0.87866 0.05005 0.0
C245 C 0.19669 0.90802 0.03194 0.0
C246 C 0.19424 0.87037 0.08684 0.0
C247 C 0.18198 0.83719 0.09539 0.0
C248 C 0.18868 0.89621 0.11269 0.0
C249 C 0.16918 0.88953 0.14529 0.0
C250 C 0.15525 0.85684 0.15286 0.0
C251 C 0.27732 0.84062 0.97838 0.0
C252 C 0.27271 0.83175 0.94156 0.0
C253 C 0.30933 0.82715 0.99783 0.0
C254 C 0.33613 0.80545 0.98088 0.0
C255 C 0.33166 0.79677 0.94405 0.0
C256 C 0.29954 0.80998 0.92461 0.0
C257 C 0.16258 0.8305 0.1282 0.0
H258 H 0.13743 0.96624 0.90391 0.0
H259 H 0.16955 0.91739 0.93195 0.0
H260 H 0.2114 0.98104 0.01898 0.0
H261 H 0.18133 0.03062 0.98986 0.0
H262 H 0.24443 0.89871 0.95127 0.0
H263 H 0.17566 0.92472 0.04496 0.0
H264 H 0.24618 0.83407 0.04606 0.0
H265 H 0.18547 0.81679 0.07594 0.0
H266 H 0.19834 0.92188 0.10722 0.0
H267 H 0.16353 0.91019 0.164 0.0
H268 H 0.24803 0.84124 0.92597 0.0
H269 H 0.31405 0.8338 0.02609 0.0
H270 H 0.15151 0.80522 0.13345 0.0
H271 H 0.2949 0.80318 0.89638 0.0
H272 H 0.36077 0.79585 0.99646 0.0
C273 C 0.82602 0.16559 0.6428 0.0
C274 C 0.86677 0.16152 0.64647 0.0
C275 C 0.80783 0.15966 0.60916 0.0
C276 C 0.83023 0.14955 0.57886 0.0
C277 C 0.8712 0.14743 0.58232 0.0
C278 C 0.88922 0.15323 0.61574 0.0
C279 C 0.81131 0.13916 0.54421 0.0
C280 C 0.78127 0.15856 0.52844 0.0
C281 C 0.76463 0.14911 0.49485 0.0
C282 C 0.77882 0.11987 0.47699 0.0
C283 C 0.80893 0.10008 0.49256 0.0
C284 C 0.82427 0.10973 0.52647 0.0
C285 C 0.82531 0.06966 0.47367 0.0
C286 C 0.80113 0.04729 0.45398 0.0
C287 C 0.86568 0.06231 0.47618 0.0
C288 C 0.88121 0.03296 0.46064 0.0
C289 C 0.85701 0.0105 0.44151 0.0
C290 C 0.73314 0.17039 0.47827 0.0
C291 C 0.70362 0.1847 0.50021 0.0
C292 C 0.73283 0.17733 0.44068 0.0
C293 C 0.70406 0.19848 0.42556 0.0
C294 C 0.67521 0.21334 0.44772 0.0
C295 C 0.67503 0.20594 0.48511 0.0
C296 C 0.81692 0.01804 0.43785 0.0
H297 H 0.80814 0.17176 0.66625 0.0
H298 H 0.77619 0.16145 0.60726 0.0
H299 H 0.88933 0.14046 0.55929 0.0
H300 H 0.92076 0.15031 0.61787 0.0
H301 H 0.77174 0.18164 0.5418 0.0
H302 H 0.84636 0.09404 0.53947 0.0
H303 H 0.7666 0.11268 0.45092 0.0
H304 H 0.76991 0.05193 0.45169 0.0
H305 H 0.88552 0.07932 0.49014 0.0
H306 H 0.91235 0.02794 0.46323 0.0
H307 H 0.70247 0.17937 0.52911 0.0
H308 H 0.75535 0.16709 0.42304 0.0
H309 H 0.79776 1.00102 0.42309 0.0
H310 H 0.65258 0.21645 0.50267 0.0
H311 H 0.70485 0.20382 0.39664 0.0
Fe312 Fe 0.00409 0.81165 0.32151 0.0
Fe313 Fe 1.00308 0.85266 0.3925 0.0
O314 O 1.00203 0.85127 0.34426 0.0
Fe315 Fe 0.99891 0.88934 0.31868 0.0
O316 O 0.95343 0.87615 0.29708 0.0
O317 O 0.974 0.82516 0.28278 0.0
O318 O 0.95923 0.79767 0.34335 0.0
C319 C 0.95391 0.79653 0.37731 0.0
C320 C 0.05147 0.8487 0.27717 0.0
O321 O 0.97611 0.81283 0.39868 0.0
C322 C 0.05071 0.90844 0.37188 0.0
O323 O 0.0346 0.79066 0.35597 0.0
O324 O 0.05026 0.83109 0.39413 0.0
O325 O 0.02809 0.87347 0.28056 0.0
O326 O 0.04908 0.82312 0.29779 0.0
C327 C 0.94825 0.90194 0.37843 0.0
O328 O 0.02997 0.89271 0.39489 0.0
O329 O 0.04422 0.90539 0.33821 0.0
C330 C 0.05715 0.80248 0.38014 0.0
O331 O 0.95612 0.87454 0.39473 0.0
O332 O 0.96906 0.91209 0.35211 0.0
C333 C 0.95043 0.84962 0.2781 0.0
Fe334 Fe 0.0057 0.15933 0.89442 0.0
Fe335 Fe 0.01199 0.12324 0.82035 0.0
O336 O 0.00826 0.16101 0.84618 0.0
Fe337 Fe 0.00713 0.20077 0.82346 0.0
O338 O 0.05186 0.21385 0.846 0.0
O339 O 0.03357 0.19879 0.90121 0.0
O340 O 0.05202 0.13654 0.89807 0.0
C341 C 0.06026 0.10935 0.88163 0.0
C342 C 0.95307 0.21043 0.88108 0.0
O343 O 0.04075 0.09993 0.8542 0.0
C344 C 0.9593 0.16401 0.77908 0.0
O345 O 0.97752 0.11978 0.89586 0.0
O346 O 0.96631 0.10702 0.83846 0.0
O347 O 0.97644 0.22213 0.85751 0.0
O348 O 0.95903 0.1816 0.89491 0.0
C349 C 0.06186 0.16319 0.78139 0.0
O350 O 0.98355 0.13971 0.78185 0.0
O351 O 0.96233 0.18979 0.79929 0.0
C352 C 0.95804 0.1042 0.87178 0.0
O353 O 0.05816 0.13657 0.80015 0.0
O354 O 0.03759 0.18729 0.78494 0.0
C355 C 0.05663 0.21455 0.88005 0.0
Fe356 Fe 0.50615 0.31032 0.32295 0.0
Fe357 Fe 0.50271 0.35394 0.39215 0.0
O358 O 0.50553 0.35077 0.34415 0.0
Fe359 Fe 0.50757 0.38812 0.3174 0.0
O360 O 0.46272 0.37702 0.29378 0.0
O361 O 0.47937 0.32425 0.28215 0.0
O362 O 0.45908 0.2993 0.34259 0.0
C363 C 0.45139 0.29947 0.37615 0.0
C364 C 0.56027 0.34372 0.2816 0.0
O365 O 0.47291 0.31565 0.39817 0.0
C366 C 0.55603 0.40633 0.37306 0.0
O367 O 0.5333 0.28919 0.35993 0.0
O368 O 0.54806 0.33041 0.39762 0.0
O369 O 0.53813 0.36949 0.28163 0.0
O370 O 0.5532 0.31839 0.30149 0.0
C371 C 0.45356 0.40588 0.37327 0.0
O372 O 0.53207 0.39275 0.39498 0.0
O373 O 0.55259 0.40179 0.33925 0.0
C374 C 0.55467 0.30121 0.38502 0.0
O375 O 0.45714 0.37804 0.39 0.0
O376 O 0.47747 0.41376 0.3483 0.0
C377 C 0.45774 0.34988 0.27624 0.0
Fe378 Fe 0.50443 0.65833 0.89377 0.0
Fe379 Fe 0.51111 0.62334 0.81939 0.0
O380 O 0.50747 0.6608 0.84566 0.0
Fe381 Fe 0.50703 0.70083 0.82361 0.0
O382 O 0.55126 0.71374 0.84729 0.0
O383 O 0.53173 0.69783 0.90181 0.0
O384 O 0.55105 0.63577 0.89706 0.0
C385 C 0.55832 0.60814 0.88102 0.0
C386 C 0.4517 0.70938 0.88048 0.0
O387 O 0.53851 0.59922 0.85358 0.0
C388 C 0.46008 0.66494 0.77752 0.0
O389 O 0.47643 0.61854 0.89424 0.0
O390 O 0.46477 0.60766 0.83652 0.0
O391 O 0.47535 0.72153 0.85737 0.0
O392 O 0.45767 0.68045 0.89416 0.0
C393 C 0.56241 0.66327 0.78207 0.0
O394 O 0.48401 0.64046 0.78047 0.0
O395 O 0.46279 0.69037 0.79822 0.0
C396 C 0.457 0.6034 0.86976 0.0
O397 O 0.55791 0.63637 0.80027 0.0
O398 O 0.53851 0.68764 0.7857 0.0
C399 C 0.55476 0.71444 0.88146 0.0
C400 C 0.10988 0.27363 0.94478 0.0
C401 C 0.14584 0.27899 0.92709 0.0
C402 C 0.08126 0.25246 0.92952 0.0
C403 C 0.08737 0.23657 0.89568 0.0
H404 H 0.1041 0.28557 0.97078 0.0
H405 H 0.05398 0.24886 0.94412 0.0
S406 S 0.17684 0.24284 0.83864 0.0
N407 N 0.18637 0.2668 0.87441 0.0
N408 N 0.13226 0.22765 0.84512 0.0
C409 C 0.12316 0.24208 0.87762 0.0
C410 C 0.15252 0.26311 0.89351 0.0
C411 C 0.88689 0.75476 0.44665 0.0
C412 C 0.8656 0.7313 0.42583 0.0
C413 C 0.91521 0.77564 0.43062 0.0
C414 C 0.92326 0.77411 0.39302 0.0
H415 H 0.88196 0.7567 0.4757 0.0
H416 H 0.93089 0.79316 0.44801 0.0
S417 S 0.87385 0.71778 0.32627 0.0
N418 N 0.85323 0.70829 0.36564 0.0
N419 N 0.9065 0.7475 0.33525 0.0
C420 C 0.90167 0.75097 0.37178 0.0
C421 C 0.87293 0.72955 0.38825 0.0
C422 C 0.87399 0.24514 0.94416 0.0
C423 C 0.86374 0.27627 0.9279 0.0
C424 C 0.90208 0.22363 0.92839 0.0
C425 C 0.9214 0.23255 0.89586 0.0
H426 H 0.86019 0.23732 0.96936 0.0
H427 H 0.90918 0.20013 0.94227 0.0
S428 S 0.90436 0.31116 0.84201 0.0
N429 N 0.87464 0.31481 0.87724 0.0
N430 N 0.92706 0.27445 0.84731 0.0
C431 C 0.91083 0.26341 0.87897 0.0
C432 C 0.88212 0.28522 0.89502 0.0
C433 C 0.1391 0.76978 0.44163 0.0
C434 C 0.14902 0.73839 0.42589 0.0
C435 C 0.10995 0.79062 0.42634 0.0
C436 C 0.08928 0.78075 0.39487 0.0
H437 H 0.15414 0.77839 0.46588 0.0
H438 H 0.10332 0.81447 0.43963 0.0
S439 S 0.10416 0.70048 0.3435 0.0
N440 N 0.13579 0.69819 0.37743 0.0
N441 N 0.08143 0.73721 0.34837 0.0
C442 C 0.09923 0.74939 0.37877 0.0
C443 C 0.12895 0.72829 0.39433 0.0
C444 C 0.64957 0.76212 0.89838 0.0
C445 C 0.64093 0.78113 0.92973 0.0
C446 C 0.62128 0.74095 0.88253 0.0
C447 C 0.58382 0.73744 0.8981 0.0
H448 H 0.67827 0.7639 0.88588 0.0
H449 H 0.62899 0.72677 0.85831 0.0
S450 S 0.54686 0.78198 0.98013 0.0
N451 N 0.59237 0.7956 0.97546 0.0
N452 N 0.53948 0.75512 0.94636 0.0
C453 C 0.57497 0.75623 0.92957 0.0
C454 C 0.60347 0.77829 0.9452 0.0
C455 C 0.37959 0.26025 0.44312 0.0
C456 C 0.35879 0.23685 0.42178 0.0
C457 C 0.40911 0.28048 0.42798 0.0
C458 C 0.41895 0.27829 0.39079 0.0
H459 H 0.37347 0.26253 0.47195 0.0
H460 H 0.42445 0.29786 0.44578 0.0
S461 S 0.37105 0.22232 0.32273 0.0
N462 N 0.34848 0.21359 0.36136 0.0
N463 N 0.40403 0.2515 0.33268 0.0
C464 C 0.39767 0.25541 0.36895 0.0
C465 C 0.36768 0.23469 0.3845 0.0
C466 C 0.37202 0.74352 0.94313 0.0
C467 C 0.36074 0.77407 0.92621 0.0
C468 C 0.40066 0.72236 0.92772 0.0
C469 C 0.41951 0.73107 0.8949 0.0
H470 H 0.35865 0.73593 0.96861 0.0
H471 H 0.4086 0.69934 0.94212 0.0
S472 S 0.39975 0.80811 0.8393 0.0
N473 N 0.37012 0.81181 0.8746 0.0
N474 N 0.42362 0.77206 0.84535 0.0
C475 C 0.40791 0.76132 0.87735 0.0
C476 C 0.37862 0.78277 0.89302 0.0
C477 C 0.62301 0.22615 0.40166 0.0
C478 C 0.64525 0.23645 0.43187 0.0
C479 C 0.59391 0.24724 0.38679 0.0
C480 C 0.58605 0.27964 0.40135 0.0
H481 H 0.62772 0.20134 0.38975 0.0
H482 H 0.57742 0.23792 0.36369 0.0
S483 S 0.63835 0.31927 0.47924 0.0
N484 N 0.65896 0.28155 0.47496 0.0
N485 N 0.60445 0.32134 0.4472 0.0
C486 C 0.60875 0.29045 0.43127 0.0
C487 C 0.63823 0.26883 0.44648 0.0
C488 C 0.38596 0.5526 0.92737 0.0
C489 C 0.38264 0.52209 0.90791 0.0
C490 C 0.40908 0.5793 0.91418 0.0
C491 C 0.42905 0.57661 0.88078 0.0
H492 H 0.372 0.55524 0.95371 0.0
H493 H 0.41202 0.60195 0.93064 0.0
S494 S 0.42746 0.50249 0.81857 0.0
N495 N 0.39957 0.491 0.85318 0.0
N496 N 0.44237 0.54138 0.8278 0.0
C497 C 0.4244 0.54673 0.8603 0.0
C498 C 0.40141 0.51937 0.87407 0.0
C499 C 0.60598 0.46577 0.43928 0.0
C500 C 0.62876 0.48662 0.4167 0.0
C501 C 0.58415 0.43897 0.42498 0.0
C502 C 0.5838 0.4321 0.38734 0.0
H503 H 0.60441 0.47065 0.46827 0.0
H504 H 0.56645 0.42422 0.44364 0.0
S505 S 0.64109 0.47822 0.31695 0.0
N506 N 0.65185 0.49781 0.35538 0.0
N507 N 0.61051 0.44744 0.32802 0.0
C508 C 0.60793 0.45197 0.36459 0.0
C509 C 0.63048 0.47923 0.37938 0.0
C510 C 0.60528 0.52362 0.90459 0.0
C511 C 0.6359 0.53228 0.92847 0.0
C512 C 0.58102 0.54843 0.88917 0.0
C513 C 0.58592 0.5831 0.89718 0.0
H514 H 0.59927 0.49729 0.89834 0.0
H515 H 0.55755 0.54011 0.87142 0.0
S516 S 0.66336 0.61969 0.95608 0.0
N517 N 0.67129 0.57835 0.95777 0.0
N518 N 0.6248 0.62503 0.92941 0.0
C519 C 0.61667 0.59232 0.92066 0.0
C520 C 0.64181 0.56694 0.93615 0.0
C521 C 0.4073 0.49253 0.38771 0.0
C522 C 0.38133 0.48725 0.41679 0.0
C523 C 0.42896 0.46573 0.37286 0.0
C524 C 0.42603 0.43245 0.3868 0.0
H525 H 0.41157 0.51783 0.37684 0.0
H526 H 0.44923 0.47157 0.35106 0.0
S527 S 0.35987 0.40497 0.4615 0.0
N528 N 0.35197 0.44621 0.45786 0.0
N529 N 0.39288 0.39555 0.43018 0.0
C530 C 0.39885 0.42658 0.41501 0.0
C531 C 0.37645 0.45401 0.42993 0.0
C532 C 0.90159 0.02165 0.87706 0.0
C533 C 0.88029 0.02523 0.90957 0.0
C534 C 0.92518 0.04807 0.86393 0.0
C535 C 0.92898 0.07862 0.88339 0.0
H536 H 0.90071 0.99796 0.86217 0.0
H537 H 0.94197 0.04391 0.8393 0.0
S538 S 0.87749 0.1011 0.96896 0.0
N539 N 0.86275 0.06211 0.95991 0.0
N540 N 0.90771 0.1116 0.93569 0.0
C541 C 0.90683 0.08284 0.91534 0.0
C542 C 0.88229 0.05618 0.92832 0.0
C543 C 0.11399 0.98785 0.37501 0.0
C544 C 0.12331 0.99017 0.41213 0.0
C545 C 0.09199 0.96043 0.36167 0.0
C546 C 0.0786 0.93456 0.38514 0.0
H547 H 0.12239 0.00799 0.3565 0.0
H548 H 0.0841 0.9603 0.33311 0.0
S549 S 0.10015 0.92753 0.48408 0.0
N550 N 0.12085 0.96352 0.47155 0.0
N551 N 0.08015 0.91173 0.44687 0.0
C552 C 0.0899 0.9359 0.42204 0.0
C553 C 0.11204 0.96382 0.43546 0.0
C554 C 0.11512 0.05486 0.95017 0.0
C555 C 0.13644 0.0323 0.92785 0.0
C556 C 0.09217 0.08103 0.93517 0.0
C557 C 0.08922 0.08533 0.89727 0.0
H558 H 0.11485 0.05148 0.97942 0.0
H559 H 0.07511 0.09689 0.95331 0.0
S560 S 0.14314 0.03638 0.82709 0.0
N561 N 0.15665 0.01893 0.86601 0.0
N562 N 0.11209 0.06695 0.83789 0.0
C563 C 0.11163 0.064 0.87475 0.0
C564 C 0.13554 0.03779 0.88999 0.0
C565 C 0.89437 0.95612 0.44724 0.0
C566 C 0.87448 0.9797 0.42508 0.0
C567 C 0.91604 0.92937 0.43199 0.0
C568 C 0.91925 0.9258 0.39402 0.0
H569 H 0.89418 0.95905 0.47656 0.0
H570 H 0.93221 0.91264 0.45001 0.0
S571 S 0.87031 0.97942 0.32434 0.0
N572 N 0.85712 0.99646 0.36354 0.0
N573 N 0.89851 0.94666 0.33472 0.0
C574 C 0.89809 0.94837 0.37166 0.0
C575 C 0.87551 0.97521 0.38723 0.0
C576 C 0.41557 0.32748 0.18384 0.0
C577 C 0.38681 0.35256 0.17836 0.0
C578 C 0.43712 0.32595 0.21625 0.0
C579 C 0.43116 0.34979 0.24426 0.0
H580 H 0.42196 0.30927 0.16258 0.0
H581 H 0.45966 0.30666 0.21871 0.0
S582 S 0.35766 0.41946 0.24389 0.0
N583 N 0.35215 0.40086 0.20398 0.0
N584 N 0.39274 0.39818 0.265 0.0
C585 C 0.40152 0.37436 0.23955 0.0
C586 C 0.3793 0.37567 0.2066 0.0
C587 C 0.63868 0.63363 0.71336 0.0
C588 C 0.6367 0.6589 0.68641 0.0
C589 C 0.61596 0.63595 0.74515 0.0
C590 C 0.59067 0.66376 0.75118 0.0
H591 H 0.65642 0.61115 0.70903 0.0
H592 H 0.61721 0.61517 0.76445 0.0
S593 S 0.57933 0.73871 0.69028 0.0
N594 N 0.61064 0.7138 0.66883 0.0
N595 N 0.56836 0.71877 0.72847 0.0
C596 C 0.59056 0.69023 0.72522 0.0
C597 C 0.6134 0.68761 0.69283 0.0
C598 C 0.60527 0.32723 0.18979 0.0
C599 C 0.63922 0.34756 0.19059 0.0
C600 C 0.58102 0.32418 0.22045 0.0
C601 C 0.58996 0.3413 0.25285 0.0
H602 H 0.59615 0.3151 0.16476 0.0
H603 H 0.55403 0.30985 0.21819 0.0
S604 S 0.67748 0.39397 0.27095 0.0
N605 N 0.68249 0.38199 0.22813 0.0
N606 N 0.636 0.37695 0.28526 0.0
C607 C 0.6246 0.36021 0.25475 0.0
C608 C 0.64952 0.36312 0.22374 0.0
C609 C 0.41062 0.63616 0.69069 0.0
C610 C 0.38886 0.66462 0.67966 0.0
C611 C 0.43203 0.63629 0.72305 0.0
C612 C 0.433 0.66507 0.74577 0.0
H613 H 0.41161 0.61367 0.67377 0.0
H614 H 0.44879 0.61373 0.72972 0.0
S615 S 0.37839 0.74546 0.7301 0.0
N616 N 0.36733 0.72169 0.69455 0.0
N617 N 0.408 0.72229 0.75573 0.0
C618 C 0.40994 0.69335 0.73577 0.0
C619 C 0.38778 0.69304 0.70265 0.0
C620 C 0.87421 0.8777 0.20839 0.0
C621 C 0.88089 0.85526 0.17933 0.0
C622 C 0.89584 0.87507 0.24084 0.0
C623 C 0.92456 0.84963 0.24549 0.0
H624 H 0.85326 0.89824 0.20548 0.0
H625 H 0.89065 0.8936 0.26206 0.0
S626 S 0.95035 0.78285 0.17804 0.0
N627 N 0.91608 0.80569 0.15776 0.0
N628 N 0.95658 0.80029 0.21842 0.0
C629 C 0.93006 0.82609 0.217 0.0
C630 C 0.90832 0.82905 0.184 0.0
C631 C 0.10363 0.18548 0.68879 0.0
C632 C 0.13238 0.16044 0.68323 0.0
C633 C 0.08258 0.1872 0.72142 0.0
C634 C 0.089 0.16361 0.74972 0.0
H635 H 0.09659 0.20334 0.66729 0.0
H636 H 0.05987 0.20634 0.7237 0.0
S637 S 0.16374 0.09495 0.74971 0.0
N638 N 0.16829 0.11302 0.70935 0.0
N639 N 0.12865 0.11608 0.77089 0.0
C640 C 0.11909 0.13944 0.74514 0.0
C641 C 0.1408 0.13792 0.71188 0.0
C642 C 0.1405 0.8362 0.21613 0.0
C643 C 0.12815 0.85184 0.18365 0.0
C644 C 0.11519 0.83414 0.24633 0.0
C645 C 0.07709 0.84794 0.24476 0.0
H646 H 0.17008 0.82633 0.21845 0.0
H647 H 0.12586 0.82275 0.27131 0.0
S648 S 0.02972 0.88727 0.16394 0.0
N649 N 0.07477 0.87838 0.15045 0.0
N650 N 0.02719 0.87452 0.20669 0.0
C651 C 0.06411 0.8622 0.21171 0.0
C652 C 0.08969 0.86417 0.18126 0.0
C653 C 0.90797 0.134 0.69369 0.0
C654 C 0.8861 0.16237 0.68254 0.0
C655 C 0.92999 0.13454 0.72571 0.0
C656 C 0.93145 0.16364 0.74793 0.0
H657 H 0.90866 0.1113 0.67709 0.0
H658 H 0.94686 0.11207 0.73245 0.0
S659 S 0.87665 0.24388 0.73189 0.0
N660 N 0.86492 0.21965 0.69688 0.0
N661 N 0.90666 0.22101 0.75741 0.0
C662 C 0.9082 0.19179 0.73788 0.0
C663 C 0.88545 0.19108 0.70512 0.0
loop_
_geom_bond_atom_site_label_1
_geom_bond_atom_site_label_2
_geom_bond_distance
_geom_bond_site_symmetry_2
_ccdc_geom_bond_type
C0 C1 1.386 . S
C0 C2 1.397 . S
C0 H24 0.931 . S
C1 C0 1.386 . S
C1 C5 1.397 . S
C2 C0 1.397 . S
C2 C3 1.384 . S
C2 H25 0.930 . S
C3 C2 1.384 . S
C3 C4 1.377 . S
C3 C6 1.481 . S
C4 C3 1.377 . S
C4 C5 1.389 . S
C4 H26 0.929 . S
C5 C1 1.397 . S
C5 C4 1.389 . S
C5 H27 0.931 . S
C6 C3 1.481 . S
C6 C7 1.387 . S
C6 C11 1.390 1_556 S
C7 C6 1.387 . S
C7 C8 1.401 . S
C7 H28 0.930 . S
C8 C7 1.401 . S
C8 C9 1.376 1_556 S
C8 C17 1.511 . S
C9 C8 1.376 1_554 S
C9 C10 1.392 . S
C9 H30 0.931 . S
C10 C9 1.392 . S
C10 C11 1.361 . S
C10 C12 1.500 . S
C11 C6 1.390 1_554 S
C11 C10 1.361 . S
C11 H29 0.931 . S
C12 C10 1.500 . S
C12 C13 1.371 . S
C12 C14 1.365 . S
C13 C12 1.371 . S
C13 C23 1.386 . S
C13 H31 0.931 . S
C14 C12 1.365 . S
C14 C15 1.409 . S
C14 H32 0.929 . S
C15 C14 1.409 . S
C15 C16 1.380 . S
C15 H33 0.930 . S
C16 C15 1.380 . S
C16 C23 1.357 . S
C17 C8 1.511 . S
C17 C18 1.341 . S
C17 C19 1.371 . S
C18 C17 1.341 . S
C18 C22 1.394 . S
C18 H34 0.930 . S
C19 C17 1.371 . S
C19 C20 1.392 . S
C19 H35 0.931 1_556 S
C20 C19 1.392 . S
C20 C21 1.331 . S
C20 H38 0.932 . S
C21 C20 1.331 . S
C21 C22 1.336 . S
C22 C18 1.394 . S
C22 C21 1.336 . S
C22 H37 0.929 . S
C23 C13 1.386 . S
C23 C16 1.357 . S
C23 H36 0.928 . S
H24 C0 0.931 . S
H25 C2 0.930 . S
H26 C4 0.929 . S
H27 C5 0.931 . S
H28 C7 0.930 . S
H29 C11 0.931 . S
H30 C9 0.931 . S
H31 C13 0.931 . S
H32 C14 0.929 . S
H33 C15 0.930 . S
H34 C18 0.930 . S
H35 C19 0.931 1_554 S
H36 C23 0.928 . S
H37 C22 0.929 . S
H38 C20 0.932 . S
C39 C40 1.386 . S
C39 C41 1.397 . S
C39 H63 0.931 . S
C40 C39 1.386 . S
C40 C44 1.397 . S
C41 C39 1.397 . S
C41 C42 1.384 . S
C41 H64 0.930 . S
C42 C41 1.384 . S
C42 C43 1.377 . S
C42 C45 1.481 . S
C43 C42 1.377 . S
C43 C44 1.389 . S
C43 H65 0.929 . S
C44 C40 1.397 . S
C44 C43 1.389 . S
C44 H66 0.931 . S
C45 C42 1.481 . S
C45 C46 1.387 . S
C45 C50 1.390 . S
C46 C45 1.387 . S
C46 C47 1.401 . S
C46 H67 0.930 . S
C47 C46 1.401 . S
C47 C48 1.376 . S
C47 C56 1.511 . S
C48 C47 1.376 . S
C48 C49 1.392 . S
C48 H69 0.931 . S
C49 C48 1.392 . S
C49 C50 1.361 . S
C49 C51 1.500 . S
C50 C45 1.390 . S
C50 C49 1.361 . S
C50 H68 0.931 . S
C51 C49 1.500 . S
C51 C52 1.371 . S
C51 C53 1.365 . S
C52 C51 1.371 . S
C52 C62 1.386 . S
C52 H70 0.931 . S
C53 C51 1.365 . S
C53 C54 1.409 . S
C53 H71 0.929 . S
C54 C53 1.409 . S
C54 C55 1.380 . S
C54 H72 0.930 . S
C55 C54 1.380 . S
C55 C62 1.357 . S
C56 C47 1.511 . S
C56 C57 1.341 . S
C56 C58 1.371 . S
C57 C56 1.341 . S
C57 C61 1.394 . S
C57 H73 0.930 . S
C58 C56 1.371 . S
C58 C59 1.392 . S
C58 H74 0.931 . S
C59 C58 1.392 . S
C59 C60 1.331 . S
C59 H77 0.932 . S
C60 C59 1.331 . S
C60 C61 1.336 . S
C61 C57 1.394 . S
C61 C60 1.336 . S
C61 H76 0.929 . S
C62 C52 1.386 . S
C62 C55 1.357 . S
C62 H75 0.928 . S
H63 C39 0.931 . S
H64 C41 0.930 . S
H65 C43 0.929 . S
H66 C44 0.931 . S
H67 C46 0.930 . S
H68 C50 0.931 . S
H69 C48 0.931 . S
H70 C52 0.931 . S
H71 C53 0.929 . S
H72 C54 0.930 . S
H73 C57 0.930 . S
H74 C58 0.931 . S
H75 C62 0.928 . S
H76 C61 0.929 . S
H77 C59 0.932 . S
C78 C79 1.386 . S
C78 C80 1.397 . S
C78 H102 0.931 . S
C79 C78 1.386 . S
C79 C83 1.397 . S
C80 C78 1.397 . S
C80 C81 1.384 . S
C80 H103 0.930 . S
C81 C80 1.384 . S
C81 C82 1.377 . S
C81 C84 1.481 . S
C82 C81 1.377 . S
C82 C83 1.389 . S
C82 H104 0.929 1_556 S
C83 C79 1.397 . S
C83 C82 1.389 . S
C83 H105 0.931 . S
C84 C81 1.481 . S
C84 C85 1.387 . S
C84 C89 1.390 1_556 S
C85 C84 1.387 . S
C85 C86 1.401 . S
C85 H106 0.930 . S
C86 C85 1.401 . S
C86 C87 1.376 1_556 S
C86 C95 1.511 . S
C87 C86 1.376 1_554 S
C87 C88 1.392 . S
C87 H108 0.931 . S
C88 C87 1.392 . S
C88 C89 1.361 . S
C88 C90 1.500 . S
C89 C84 1.390 1_554 S
C89 C88 1.361 . S
C89 H107 0.931 . S
C90 C88 1.500 . S
C90 C91 1.371 . S
C90 C92 1.365 . S
C91 C90 1.371 . S
C91 C101 1.386 . S
C91 H109 0.931 . S
C92 C90 1.365 . S
C92 C93 1.409 . S
C92 H110 0.929 . S
C93 C92 1.409 . S
C93 C94 1.380 . S
C93 H111 0.930 . S
C94 C93 1.380 . S
C94 C101 1.357 . S
C95 C86 1.511 . S
C95 C96 1.341 . S
C95 C97 1.371 . S
C96 C95 1.341 . S
C96 C100 1.394 . S
C96 H112 0.930 . S
C97 C95 1.371 . S
C97 C98 1.392 . S
C97 H113 0.931 1_556 S
C98 C97 1.392 . S
C98 C99 1.331 . S
C98 H116 0.932 . S
C99 C98 1.331 . S
C99 C100 1.336 . S
C100 C96 1.394 . S
C100 C99 1.336 . S
C100 H115 0.929 . S
C101 C91 1.386 . S
C101 C94 1.357 . S
C101 H114 0.928 . S
H102 C78 0.931 . S
H103 C80 0.930 . S
H104 C82 0.929 1_554 S
H105 C83 0.931 . S
H106 C85 0.930 . S
H107 C89 0.931 . S
H108 C87 0.931 . S
H109 C91 0.931 . S
H110 C92 0.929 . S
H111 C93 0.930 . S
H112 C96 0.930 . S
H113 C97 0.931 1_554 S
H114 C101 0.928 . S
H115 C100 0.929 . S
H116 C98 0.932 . S
C117 C118 1.386 . S
C117 C119 1.397 . S
C117 H141 0.931 . S
C118 C117 1.386 . S
C118 C122 1.397 . S
C119 C117 1.397 . S
C119 C120 1.384 . S
C119 H142 0.930 . S
C120 C119 1.384 . S
C120 C121 1.377 . S
C120 C123 1.481 . S
C121 C120 1.377 . S
C121 C122 1.389 . S
C121 H143 0.929 . S
C122 C118 1.397 . S
C122 C121 1.389 . S
C122 H144 0.931 . S
C123 C120 1.481 . S
C123 C124 1.387 . S
C123 C128 1.390 . S
C124 C123 1.387 . S
C124 C125 1.401 . S
C124 H145 0.930 . S
C125 C124 1.401 . S
C125 C126 1.376 . S
C125 C134 1.511 . S
C126 C125 1.376 . S
C126 C127 1.392 . S
C126 H147 0.931 . S
C127 C126 1.392 . S
C127 C128 1.361 . S
C127 C129 1.500 . S
C128 C123 1.390 . S
C128 C127 1.361 . S
C128 H146 0.931 . S
C129 C127 1.500 . S
C129 C130 1.371 . S
C129 C131 1.365 . S
C130 C129 1.371 . S
C130 C140 1.386 . S
C130 H148 0.931 . S
C131 C129 1.365 . S
C131 C132 1.409 . S
C131 H149 0.929 . S
C132 C131 1.409 . S
C132 C133 1.380 . S
C132 H150 0.930 . S
C133 C132 1.380 . S
C133 C140 1.357 . S
C134 C125 1.511 . S
C134 C135 1.341 . S
C134 C136 1.371 . S
C135 C134 1.341 . S
C135 C139 1.394 . S
C135 H151 0.930 . S
C136 C134 1.371 . S
C136 C137 1.392 . S
C136 H152 0.931 . S
C137 C136 1.392 . S
C137 C138 1.331 . S
C137 H155 0.932 . S
C138 C137 1.331 . S
C138 C139 1.336 . S
C139 C135 1.394 . S
C139 C138 1.336 . S
C139 H154 0.929 . S
C140 C130 1.386 . S
C140 C133 1.357 . S
C140 H153 0.928 . S
H141 C117 0.931 . S
H142 C119 0.930 . S
H143 C121 0.929 . S
H144 C122 0.931 . S
H145 C124 0.930 . S
H146 C128 0.931 . S
H147 C126 0.931 . S
H148 C130 0.931 . S
H149 C131 0.929 . S
H150 C132 0.930 . S
H151 C135 0.930 . S
H152 C136 0.931 . S
H153 C140 0.928 . S
H154 C139 0.929 . S
H155 C137 0.932 . S
C156 C157 1.392 . S
C156 C158 1.373 1_545 S
C156 H180 0.950 . S
C157 C156 1.392 . S
C157 C161 1.397 1_545 S
C158 C156 1.373 1_565 S
C158 C159 1.384 . S
C158 H181 0.930 . S
C159 C158 1.384 . S
C159 C160 1.377 . S
C159 C162 1.481 . S
C160 C159 1.377 . S
C160 C161 1.389 . S
C160 H182 0.929 . S
C161 C157 1.397 1_565 S
C161 C160 1.389 . S
C161 H183 0.931 . S
C162 C159 1.481 . S
C162 C163 1.387 . S
C162 C167 1.390 1_556 S
C163 C162 1.387 . S
C163 C164 1.401 . S
C163 H184 0.930 . S
C164 C163 1.401 . S
C164 C165 1.376 1_556 S
C164 C173 1.511 . S
C165 C164 1.376 1_554 S
C165 C166 1.392 . S
C165 H186 0.931 . S
C166 C165 1.392 . S
C166 C167 1.361 . S
C166 C168 1.500 . S
C167 C162 1.390 1_554 S
C167 C166 1.361 . S
C167 H185 0.931 . S
C168 C166 1.500 . S
C168 C169 1.371 . S
C168 C170 1.365 . S
C169 C168 1.371 . S
C169 C179 1.386 . S
C169 H187 0.931 . S
C170 C168 1.365 . S
C170 C171 1.409 . S
C170 H188 0.929 . S
C171 C170 1.409 . S
C171 C172 1.380 . S
C171 H189 0.930 . S
C172 C171 1.380 . S
C172 C179 1.357 . S
C173 C164 1.511 . S
C173 C174 1.341 . S
C173 C175 1.371 . S
C174 C173 1.341 . S
C174 C178 1.394 . S
C174 H190 0.930 . S
C175 C173 1.371 . S
C175 C176 1.392 . S
C175 H191 0.931 1_556 S
C176 C175 1.392 . S
C176 C177 1.331 . S
C176 H194 0.932 . S
C177 C176 1.331 . S
C177 C178 1.336 . S
C178 C174 1.394 . S
C178 C177 1.336 . S
C178 H193 0.929 . S
C179 C169 1.386 . S
C179 C172 1.357 . S
C179 H192 0.928 . S
H180 C156 0.950 . S
H181 C158 0.930 . S
H182 C160 0.929 . S
H183 C161 0.931 . S
H184 C163 0.930 . S
H185 C167 0.931 . S
H186 C165 0.931 . S
H187 C169 0.931 . S
H188 C170 0.929 . S
H189 C171 0.930 . S
H190 C174 0.930 . S
H191 C175 0.931 1_554 S
H192 C179 0.928 . S
H193 C178 0.929 . S
H194 C176 0.932 . S
C195 C196 1.392 . S
C195 C197 1.373 1_565 S
C195 H219 0.950 . S
C196 C195 1.392 . S
C196 C200 1.397 1_565 S
C197 C195 1.373 1_545 S
C197 C198 1.384 . S
C197 H220 0.930 . S
C198 C197 1.384 . S
C198 C199 1.377 . S
C198 C201 1.481 . S
C199 C198 1.377 . S
C199 C200 1.389 . S
C199 H221 0.929 . S
C200 C196 1.397 1_545 S
C200 C199 1.389 . S
C200 H222 0.931 . S
C201 C198 1.481 . S
C201 C202 1.387 . S
C201 C206 1.390 . S
C202 C201 1.387 . S
C202 C203 1.401 . S
C202 H223 0.930 . S
C203 C202 1.401 . S
C203 C204 1.376 . S
C203 C212 1.511 . S
C204 C203 1.376 . S
C204 C205 1.392 . S
C204 H225 0.931 . S
C205 C204 1.392 . S
C205 C206 1.361 . S
C205 C207 1.500 . S
C206 C201 1.390 . S
C206 C205 1.361 . S
C206 H224 0.931 . S
C207 C205 1.500 . S
C207 C208 1.371 . S
C207 C209 1.365 . S
C208 C207 1.371 . S
C208 C218 1.386 . S
C208 H226 0.931 . S
C209 C207 1.365 . S
C209 C210 1.409 . S
C209 H227 0.929 . S
C210 C209 1.409 . S
C210 C211 1.380 . S
C210 H228 0.930 . S
C211 C210 1.380 . S
C211 C218 1.357 . S
C212 C203 1.511 . S
C212 C213 1.341 . S
C212 C214 1.371 . S
C213 C212 1.341 . S
C213 C217 1.394 . S
C213 H229 0.930 . S
C214 C212 1.371 . S
C214 C215 1.392 . S
C214 H230 0.931 . S
C215 C214 1.392 . S
C215 C216 1.331 . S
C215 H233 0.932 . S
C216 C215 1.331 . S
C216 C217 1.336 . S
C217 C213 1.394 . S
C217 C216 1.336 . S
C217 H232 0.929 . S
C218 C208 1.386 . S
C218 C211 1.357 . S
C218 H231 0.928 . S
H219 C195 0.950 . S
H220 C197 0.930 . S
H221 C199 0.929 . S
H222 C200 0.931 . S
H223 C202 0.930 . S
H224 C206 0.931 . S
H225 C204 0.931 . S
H226 C208 0.931 . S
H227 C209 0.929 . S
H228 C210 0.930 . S
H229 C213 0.930 . S
H230 C214 0.931 . S
H231 C218 0.928 . S
H232 C217 0.929 . S
H233 C215 0.932 . S
C234 C235 1.386 1_565 S
C234 C236 1.397 . S
C234 H258 0.931 . S
C235 C234 1.386 1_545 S
C235 C239 1.397 . S
C236 C234 1.397 . S
C236 C237 1.384 . S
C236 H259 0.930 . S
C237 C236 1.384 . S
C237 C238 1.377 . S
C237 C240 1.481 . S
C238 C237 1.377 . S
C238 C239 1.389 1_565 S
C238 H260 0.929 1_556 S
C239 C235 1.397 . S
C239 C238 1.389 1_545 S
C239 H261 0.931 . S
C240 C237 1.481 . S
C240 C241 1.387 . S
C240 C245 1.390 1_556 S
C241 C240 1.387 . S
C241 C242 1.401 . S
C241 H262 0.930 . S
C242 C241 1.401 . S
C242 C243 1.376 1_556 S
C242 C251 1.511 . S
C243 C242 1.376 1_554 S
C243 C244 1.392 . S
C243 H264 0.931 . S
C244 C243 1.392 . S
C244 C245 1.361 . S
C244 C246 1.500 . S
C245 C240 1.390 1_554 S
C245 C244 1.361 . S
C245 H263 0.931 . S
C246 C244 1.500 . S
C246 C247 1.371 . S
C246 C248 1.365 . S
C247 C246 1.371 . S
C247 C257 1.386 . S
C247 H265 0.931 . S
C248 C246 1.365 . S
C248 C249 1.409 . S
C248 H266 0.929 . S
C249 C248 1.409 . S
C249 C250 1.380 . S
C249 H267 0.930 . S
C250 C249 1.380 . S
C250 C257 1.357 . S
C251 C242 1.511 . S
C251 C252 1.341 . S
C251 C253 1.371 . S
C252 C251 1.341 . S
C252 C256 1.394 . S
C252 H268 0.930 . S
C253 C251 1.371 . S
C253 C254 1.392 . S
C253 H269 0.931 1_556 S
C254 C253 1.392 . S
C254 C255 1.331 . S
C254 H272 0.932 . S
C255 C254 1.331 . S
C255 C256 1.336 . S
C256 C252 1.394 . S
C256 C255 1.336 . S
C256 H271 0.929 . S
C257 C247 1.386 . S
C257 C250 1.357 . S
C257 H270 0.928 . S
H258 C234 0.931 . S
H259 C236 0.930 . S
H260 C238 0.929 1_554 S
H261 C239 0.931 . S
H262 C241 0.930 . S
H263 C245 0.931 . S
H264 C243 0.931 . S
H265 C247 0.931 . S
H266 C248 0.929 . S
H267 C249 0.930 . S
H268 C252 0.930 . S
H269 C253 0.931 1_554 S
H270 C257 0.928 . S
H271 C256 0.929 . S
H272 C254 0.932 . S
C273 C274 1.386 . S
C273 C275 1.397 . S
C273 H297 0.931 . S
C274 C273 1.386 . S
C274 C278 1.397 . S
C275 C273 1.397 . S
C275 C276 1.384 . S
C275 H298 0.930 . S
C276 C275 1.384 . S
C276 C277 1.377 . S
C276 C279 1.481 . S
C277 C276 1.377 . S
C277 C278 1.389 . S
C277 H299 0.929 . S
C278 C274 1.397 . S
C278 C277 1.389 . S
C278 H300 0.931 . S
C279 C276 1.481 . S
C279 C280 1.387 . S
C279 C284 1.390 . S
C280 C279 1.387 . S
C280 C281 1.401 . S
C280 H301 0.930 . S
C281 C280 1.401 . S
C281 C282 1.376 . S
C281 C290 1.511 . S
C282 C281 1.376 . S
C282 C283 1.392 . S
C282 H303 0.931 . S
C283 C282 1.392 . S
C283 C284 1.361 . S
C283 C285 1.500 . S
C284 C279 1.390 . S
C284 C283 1.361 . S
C284 H302 0.931 . S
C285 C283 1.500 . S
C285 C286 1.371 . S
C285 C287 1.365 . S
C286 C285 1.371 . S
C286 C296 1.386 1_545 S
C286 H304 0.931 . S
C287 C285 1.365 . S
C287 C288 1.409 . S
C287 H305 0.929 . S
C288 C287 1.409 . S
C288 C289 1.380 1_545 S
C288 H306 0.930 1_545 S
C289 C288 1.380 1_565 S
C289 C296 1.357 . S
C290 C281 1.511 . S
C290 C291 1.341 . S
C290 C292 1.371 . S
C291 C290 1.341 . S
C291 C295 1.394 . S
C291 H307 0.930 . S
C292 C290 1.371 . S
C292 C293 1.392 . S
C292 H308 0.931 . S
C293 C292 1.392 . S
C293 C294 1.331 . S
C293 H311 0.932 . S
C294 C293 1.331 . S
C294 C295 1.336 . S
C295 C291 1.394 . S
C295 C294 1.336 . S
C295 H310 0.929 . S
C296 C286 1.386 1_565 S
C296 C289 1.357 . S
C296 H309 0.928 . S
H297 C273 0.931 . S
H298 C275 0.930 . S
H299 C277 0.929 . S
H300 C278 0.931 . S
H301 C280 0.930 . S
H302 C284 0.931 . S
H303 C282 0.931 . S
H304 C286 0.931 . S
H305 C287 0.929 . S
H306 C288 0.930 1_565 S
H307 C291 0.930 . S
H308 C292 0.931 . S
H309 C296 0.928 . S
H310 C295 0.929 . S
H311 C293 0.932 . S
Fe312 O314 1.918 . S
Fe312 O317 1.997 1_455 S
Fe312 O318 2.002 1_455 S
Fe312 O323 1.976 . S
Fe312 O326 1.996 . S
Fe313 O314 1.918 . S
Fe313 O321 1.997 1_455 S
Fe313 O324 1.996 . S
Fe313 O328 1.976 . S
Fe313 O331 2.002 1_455 S
O314 Fe312 1.918 . S
O314 Fe313 1.918 . S
O314 Fe315 1.918 . S
Fe315 O314 1.918 . S
Fe315 O316 2.002 1_455 S
Fe315 O325 1.976 . S
Fe315 O329 1.996 . S
Fe315 O332 1.997 1_455 S
O316 Fe315 2.002 1_655 S
O316 C333 1.295 . S
O317 Fe312 1.997 1_655 S
O317 C333 1.235 . S
O318 Fe312 2.002 1_655 S
O318 C319 1.295 . S
C319 O318 1.295 . S
C319 O321 1.235 . S
C320 O325 1.287 . S
C320 O326 1.255 . S
O321 Fe313 1.997 1_655 S
O321 C319 1.235 . S
C322 O328 1.287 . S
C322 O329 1.255 . S
O323 Fe312 1.976 . S
O323 C330 1.287 . S
O324 Fe313 1.996 . S
O324 C330 1.255 . S
O325 Fe315 1.976 . S
O325 C320 1.287 . S
O326 Fe312 1.996 . S
O326 C320 1.255 . S
C327 O331 1.295 . S
C327 O332 1.235 . S
O328 Fe313 1.976 . S
O328 C322 1.287 . S
O329 Fe315 1.996 . S
O329 C322 1.255 . S
C330 O323 1.287 . S
C330 O324 1.255 . S
O331 Fe313 2.002 1_655 S
O331 C327 1.295 . S
O332 Fe315 1.997 1_655 S
O332 C327 1.235 . S
C333 O316 1.295 . S
C333 O317 1.235 . S
Fe334 O336 1.918 . S
Fe334 O339 1.997 1_655 S
Fe334 O340 2.002 1_655 S
Fe334 O345 1.976 . S
Fe334 O348 1.996 . S
Fe335 O336 1.918 . S
Fe335 O343 1.997 1_655 S
Fe335 O346 1.996 . S
Fe335 O350 1.976 . S
Fe335 O353 2.002 1_655 S
O336 Fe334 1.918 . S
O336 Fe335 1.918 . S
O336 Fe337 1.918 . S
Fe337 O336 1.918 . S
Fe337 O338 2.002 1_655 S
Fe337 O347 1.976 . S
Fe337 O351 1.996 . S
Fe337 O354 1.997 1_655 S
O338 Fe337 2.002 1_455 S
O338 C355 1.295 . S
O339 Fe334 1.997 1_455 S
O339 C355 1.235 . S
O340 Fe334 2.002 1_455 S
O340 C341 1.295 . S
C341 O340 1.295 . S
C341 O343 1.235 . S
C342 O347 1.287 . S
C342 O348 1.255 . S
O343 Fe335 1.997 1_455 S
O343 C341 1.235 . S
C344 O350 1.287 . S
C344 O351 1.255 . S
O345 Fe334 1.976 . S
O345 C352 1.287 . S
O346 Fe335 1.996 . S
O346 C352 1.255 . S
O347 Fe337 1.976 . S
O347 C342 1.287 . S
O348 Fe334 1.996 . S
O348 C342 1.255 . S
C349 O353 1.295 . S
C349 O354 1.235 . S
O350 Fe335 1.976 . S
O350 C344 1.287 . S
O351 Fe337 1.996 . S
O351 C344 1.255 . S
C352 O345 1.287 . S
C352 O346 1.255 . S
O353 Fe335 2.002 1_455 S
O353 C349 1.295 . S
O354 Fe337 1.997 1_455 S
O354 C349 1.235 . S
C355 O338 1.295 . S
C355 O339 1.235 . S
Fe356 O358 1.918 . S
Fe356 O361 1.997 . S
Fe356 O362 2.002 . S
Fe356 O367 1.976 . S
Fe356 O370 1.996 . S
Fe357 O358 1.918 . S
Fe357 O365 1.997 . S
Fe357 O368 1.996 . S
Fe357 O372 1.976 . S
Fe357 O375 2.002 . S
O358 Fe356 1.918 . S
O358 Fe357 1.918 . S
O358 Fe359 1.918 . S
Fe359 O358 1.918 . S
Fe359 O360 2.002 . S
Fe359 O369 1.976 . S
Fe359 O373 1.996 . S
Fe359 O376 1.997 . S
O360 Fe359 2.002 . S
O360 C377 1.295 . S
O361 Fe356 1.997 . S
O361 C377 1.235 . S
O362 Fe356 2.002 . S
O362 C363 1.295 . S
C363 O362 1.295 . S
C363 O365 1.235 . S
C364 O369 1.287 . S
C364 O370 1.255 . S
O365 Fe357 1.997 . S
O365 C363 1.235 . S
C366 O372 1.287 . S
C366 O373 1.255 . S
O367 Fe356 1.976 . S
O367 C374 1.287 . S
O368 Fe357 1.996 . S
O368 C374 1.255 . S
O369 Fe359 1.976 . S
O369 C364 1.287 . S
O370 Fe356 1.996 . S
O370 C364 1.255 . S
C371 O375 1.295 . S
C371 O376 1.235 . S
O372 Fe357 1.976 . S
O372 C366 1.287 . S
O373 Fe359 1.996 . S
O373 C366 1.255 . S
C374 O367 1.287 . S
C374 O368 1.255 . S
O375 Fe357 2.002 . S
O375 C371 1.295 . S
O376 Fe359 1.997 . S
O376 C371 1.235 . S
C377 O360 1.295 . S
C377 O361 1.235 . S
Fe378 O380 1.918 . S
Fe378 O383 1.997 . S
Fe378 O384 2.002 . S
Fe378 O389 1.976 . S
Fe378 O392 1.996 . S
Fe379 O380 1.918 . S
Fe379 O387 1.997 . S
Fe379 O390 1.996 . S
Fe379 O394 1.976 . S
Fe379 O397 2.002 . S
O380 Fe378 1.918 . S
O380 Fe379 1.918 . S
O380 Fe381 1.918 . S
Fe381 O380 1.918 . S
Fe381 O382 2.002 . S
Fe381 O391 1.976 . S
Fe381 O395 1.996 . S
Fe381 O398 1.997 . S
O382 Fe381 2.002 . S
O382 C399 1.295 . S
O383 Fe378 1.997 . S
O383 C399 1.235 . S
O384 Fe378 2.002 . S
O384 C385 1.295 . S
C385 O384 1.295 . S
C385 O387 1.235 . S
C386 O391 1.287 . S
C386 O392 1.255 . S
O387 Fe379 1.997 . S
O387 C385 1.235 . S
C388 O394 1.287 . S
C388 O395 1.255 . S
O389 Fe378 1.976 . S
O389 C396 1.287 . S
O390 Fe379 1.996 . S
O390 C396 1.255 . S
O391 Fe381 1.976 . S
O391 C386 1.287 . S
O392 Fe378 1.996 . S
O392 C386 1.255 . S
C393 O397 1.295 . S
C393 O398 1.235 . S
O394 Fe379 1.976 . S
O394 C388 1.287 . S
O395 Fe381 1.996 . S
O395 C388 1.255 . S
C396 O389 1.287 . S
C396 O390 1.255 . S
O397 Fe379 2.002 . S
O397 C393 1.295 . S
O398 Fe381 1.997 . S
O398 C393 1.235 . S
C399 O382 1.295 . S
C399 O383 1.235 . S
C400 C401 1.369 . S
C400 C402 1.419 . S
C400 H404 0.930 . S
C401 C400 1.369 . S
C401 C410 1.429 . S
C402 C400 1.419 . S
C402 C403 1.363 . S
C402 H405 0.929 . S
C403 C402 1.363 . S
C403 C409 1.428 . S
H404 C400 0.930 . S
H405 C402 0.929 . S
S406 N407 1.613 . S
S406 N408 1.610 . S
N407 S406 1.613 . S
N407 C410 1.350 . S
N408 S406 1.610 . S
N408 C409 1.351 . S
C409 C403 1.428 . S
C409 N408 1.351 . S
C409 C410 1.434 . S
C410 C401 1.429 . S
C410 N407 1.350 . S
C410 C409 1.434 . S
C411 C412 1.369 . S
C411 C413 1.419 . S
C411 H415 0.930 . S
C412 C411 1.369 . S
C412 C421 1.429 . S
C413 C411 1.419 . S
C413 C414 1.363 . S
C413 H416 0.929 . S
C414 C413 1.363 . S
C414 C420 1.428 . S
H415 C411 0.930 . S
H416 C413 0.929 . S
S417 N418 1.613 . S
S417 N419 1.610 . S
N418 S417 1.613 . S
N418 C421 1.350 . S
N419 S417 1.610 . S
N419 C420 1.351 . S
C420 C414 1.428 . S
C420 N419 1.351 . S
C420 C421 1.434 . S
C421 C412 1.429 . S
C421 N418 1.350 . S
C421 C420 1.434 . S
C422 C423 1.369 . S
C422 C424 1.419 . S
C422 H426 0.930 . S
C423 C422 1.369 . S
C423 C432 1.429 . S
C424 C422 1.419 . S
C424 C425 1.363 . S
C424 H427 0.929 . S
C425 C424 1.363 . S
C425 C431 1.428 . S
H426 C422 0.930 . S
H427 C424 0.929 . S
S428 N429 1.613 . S
S428 N430 1.610 . S
N429 S428 1.613 . S
N429 C432 1.350 . S
N430 S428 1.610 . S
N430 C431 1.351 . S
C431 C425 1.428 . S
C431 N430 1.351 . S
C431 C432 1.434 . S
C432 C423 1.429 . S
C432 N429 1.350 . S
C432 C431 1.434 . S
C433 C434 1.369 . S
C433 C435 1.419 . S
C433 H437 0.930 . S
C434 C433 1.369 . S
C434 C443 1.429 . S
C435 C433 1.419 . S
C435 C436 1.363 . S
C435 H438 0.929 . S
C436 C435 1.363 . S
C436 C442 1.428 . S
H437 C433 0.930 . S
H438 C435 0.929 . S
S439 N440 1.613 . S
S439 N441 1.610 . S
N440 S439 1.613 . S
N440 C443 1.350 . S
N441 S439 1.610 . S
N441 C442 1.351 . S
C442 C436 1.428 . S
C442 N441 1.351 . S
C442 C443 1.434 . S
C443 C434 1.429 . S
C443 N440 1.350 . S
C443 C442 1.434 . S
C444 C445 1.369 . S
C444 C446 1.419 . S
C444 H448 0.930 . S
C445 C444 1.369 . S
C445 C454 1.429 . S
C446 C444 1.419 . S
C446 C447 1.363 . S
C446 H449 0.929 . S
C447 C446 1.363 . S
C447 C453 1.428 . S
H448 C444 0.930 . S
H449 C446 0.929 . S
S450 N451 1.613 . S
S450 N452 1.610 . S
N451 S450 1.613 . S
N451 C454 1.350 . S
N452 S450 1.610 . S
N452 C453 1.351 . S
C453 C447 1.428 . S
C453 N452 1.351 . S
C453 C454 1.434 . S
C454 C445 1.429 . S
C454 N451 1.350 . S
C454 C453 1.434 . S
C455 C456 1.369 . S
C455 C457 1.419 . S
C455 H459 0.930 . S
C456 C455 1.369 . S
C456 C465 1.429 . S
C457 C455 1.419 . S
C457 C458 1.363 . S
C457 H460 0.929 . S
C458 C457 1.363 . S
C458 C464 1.428 . S
H459 C455 0.930 . S
H460 C457 0.929 . S
S461 N462 1.613 . S
S461 N463 1.610 . S
N462 S461 1.613 . S
N462 C465 1.350 . S
N463 S461 1.610 . S
N463 C464 1.351 . S
C464 C458 1.428 . S
C464 N463 1.351 . S
C464 C465 1.434 . S
C465 C456 1.429 . S
C465 N462 1.350 . S
C465 C464 1.434 . S
C466 C467 1.369 . S
C466 C468 1.419 . S
C466 H470 0.930 . S
C467 C466 1.369 . S
C467 C476 1.429 . S
C468 C466 1.419 . S
C468 C469 1.363 . S
C468 H471 0.929 . S
C469 C468 1.363 . S
C469 C475 1.428 . S
H470 C466 0.930 . S
H471 C468 0.929 . S
S472 N473 1.613 . S
S472 N474 1.610 . S
N473 S472 1.613 . S
N473 C476 1.350 . S
N474 S472 1.610 . S
N474 C475 1.351 . S
C475 C469 1.428 . S
C475 N474 1.351 . S
C475 C476 1.434 . S
C476 C467 1.429 . S
C476 N473 1.350 . S
C476 C475 1.434 . S
C477 C478 1.369 . S
C477 C479 1.419 . S
C477 H481 0.930 . S
C478 C477 1.369 . S
C478 C487 1.429 . S
C479 C477 1.419 . S
C479 C480 1.363 . S
C479 H482 0.929 . S
C480 C479 1.363 . S
C480 C486 1.428 . S
H481 C477 0.930 . S
H482 C479 0.929 . S
S483 N484 1.613 . S
S483 N485 1.610 . S
N484 S483 1.613 . S
N484 C487 1.350 . S
N485 S483 1.610 . S
N485 C486 1.351 . S
C486 C480 1.428 . S
C486 N485 1.351 . S
C486 C487 1.434 . S
C487 C478 1.429 . S
C487 N484 1.350 . S
C487 C486 1.434 . S
C488 C489 1.369 . S
C488 C490 1.419 . S
C488 H492 0.930 . S
C489 C488 1.369 . S
C489 C498 1.429 . S
C490 C488 1.419 . S
C490 C491 1.363 . S
C490 H493 0.929 . S
C491 C490 1.363 . S
C491 C497 1.428 . S
H492 C488 0.930 . S
H493 C490 0.929 . S
S494 N495 1.613 . S
S494 N496 1.610 . S
N495 S494 1.613 . S
N495 C498 1.350 . S
N496 S494 1.610 . S
N496 C497 1.351 . S
C497 C491 1.428 . S
C497 N496 1.351 . S
C497 C498 1.434 . S
C498 C489 1.429 . S
C498 N495 1.350 . S
C498 C497 1.434 . S
C499 C500 1.369 . S
C499 C501 1.419 . S
C499 H503 0.930 . S
C500 C499 1.369 . S
C500 C509 1.429 . S
C501 C499 1.419 . S
C501 C502 1.363 . S
C501 H504 0.929 . S
C502 C501 1.363 . S
C502 C508 1.428 . S
H503 C499 0.930 . S
H504 C501 0.929 . S
S505 N506 1.613 . S
S505 N507 1.610 . S
N506 S505 1.613 . S
N506 C509 1.350 . S
N507 S505 1.610 . S
N507 C508 1.351 . S
C508 C502 1.428 . S
C508 N507 1.351 . S
C508 C509 1.434 . S
C509 C500 1.429 . S
C509 N506 1.350 . S
C509 C508 1.434 . S
C510 C511 1.369 . S
C510 C512 1.419 . S
C510 H514 0.930 . S
C511 C510 1.369 . S
C511 C520 1.429 . S
C512 C510 1.419 . S
C512 C513 1.363 . S
C512 H515 0.929 . S
C513 C512 1.363 . S
C513 C519 1.428 . S
H514 C510 0.930 . S
H515 C512 0.929 . S
S516 N517 1.613 . S
S516 N518 1.610 . S
N517 S516 1.613 . S
N517 C520 1.350 . S
N518 S516 1.610 . S
N518 C519 1.351 . S
C519 C513 1.428 . S
C519 N518 1.351 . S
C519 C520 1.434 . S
C520 C511 1.429 . S
C520 N517 1.350 . S
C520 C519 1.434 . S
C521 C522 1.369 . S
C521 C523 1.419 . S
C521 H525 0.930 . S
C522 C521 1.369 . S
C522 C531 1.429 . S
C523 C521 1.419 . S
C523 C524 1.363 . S
C523 H526 0.929 . S
C524 C523 1.363 . S
C524 C530 1.428 . S
H525 C521 0.930 . S
H526 C523 0.929 . S
S527 N528 1.613 . S
S527 N529 1.610 . S
N528 S527 1.613 . S
N528 C531 1.350 . S
N529 S527 1.610 . S
N529 C530 1.351 . S
C530 C524 1.428 . S
C530 N529 1.351 . S
C530 C531 1.434 . S
C531 C522 1.429 . S
C531 N528 1.350 . S
C531 C530 1.434 . S
C532 C533 1.369 . S
C532 C534 1.419 . S
C532 H536 0.930 . S
C533 C532 1.369 . S
C533 C542 1.429 . S
C534 C532 1.419 . S
C534 C535 1.363 . S
C534 H537 0.929 . S
C535 C534 1.363 . S
C535 C541 1.428 . S
H536 C532 0.930 . S
H537 C534 0.929 . S
S538 N539 1.613 . S
S538 N540 1.610 . S
N539 S538 1.613 . S
N539 C542 1.350 . S
N540 S538 1.610 . S
N540 C541 1.351 . S
C541 C535 1.428 . S
C541 N540 1.351 . S
C541 C542 1.434 . S
C542 C533 1.429 . S
C542 N539 1.350 . S
C542 C541 1.434 . S
C543 C544 1.369 . S
C543 C545 1.419 . S
C543 H547 0.930 . S
C544 C543 1.369 . S
C544 C553 1.429 . S
C545 C543 1.419 . S
C545 C546 1.363 . S
C545 H548 0.929 . S
C546 C545 1.363 . S
C546 C552 1.428 . S
H547 C543 0.930 . S
H548 C545 0.929 . S
S549 N550 1.613 . S
S549 N551 1.610 . S
N550 S549 1.613 . S
N550 C553 1.350 . S
N551 S549 1.610 . S
N551 C552 1.351 . S
C552 C546 1.428 . S
C552 N551 1.351 . S
C552 C553 1.434 . S
C553 C544 1.429 . S
C553 N550 1.350 . S
C553 C552 1.434 . S
C554 C555 1.369 . S
C554 C556 1.419 . S
C554 H558 0.930 . S
C555 C554 1.369 . S
C555 C564 1.429 . S
C556 C554 1.419 . S
C556 C557 1.363 . S
C556 H559 0.929 . S
C557 C556 1.363 . S
C557 C563 1.428 . S
H558 C554 0.930 . S
H559 C556 0.929 . S
S560 N561 1.613 . S
S560 N562 1.610 . S
N561 S560 1.613 . S
N561 C564 1.350 . S
N562 S560 1.610 . S
N562 C563 1.351 . S
C563 C557 1.428 . S
C563 N562 1.351 . S
C563 C564 1.434 . S
C564 C555 1.429 . S
C564 N561 1.350 . S
C564 C563 1.434 . S
C565 C566 1.369 . S
C565 C567 1.419 . S
C565 H569 0.930 . S
C566 C565 1.369 . S
C566 C575 1.429 . S
C567 C565 1.419 . S
C567 C568 1.363 . S
C567 H570 0.929 . S
C568 C567 1.363 . S
C568 C574 1.428 . S
H569 C565 0.930 . S
H570 C567 0.929 . S
S571 N572 1.613 . S
S571 N573 1.610 1_545 S
N572 S571 1.613 . S
N572 C575 1.350 1_545 S
N573 S571 1.610 1_565 S
N573 C574 1.351 . S
C574 C568 1.428 . S
C574 N573 1.351 . S
C574 C575 1.434 . S
C575 C566 1.429 . S
C575 N572 1.350 1_565 S
C575 C574 1.434 . S
C576 C577 1.369 . S
C576 C578 1.419 . S
C576 H580 0.930 . S
C577 C576 1.369 . S
C577 C586 1.429 . S
C578 C576 1.419 . S
C578 C579 1.363 . S
C578 H581 0.929 . S
C579 C578 1.363 . S
C579 C585 1.428 . S
H580 C576 0.930 . S
H581 C578 0.929 . S
S582 N583 1.613 . S
S582 N584 1.610 . S
N583 S582 1.613 . S
N583 C586 1.350 . S
N584 S582 1.610 . S
N584 C585 1.351 . S
C585 C579 1.428 . S
C585 N584 1.351 . S
C585 C586 1.434 . S
C586 C577 1.429 . S
C586 N583 1.350 . S
C586 C585 1.434 . S
C587 C588 1.369 . S
C587 C589 1.419 . S
C587 H591 0.930 . S
C588 C587 1.369 . S
C588 C597 1.429 . S
C589 C587 1.419 . S
C589 C590 1.363 . S
C589 H592 0.929 . S
C590 C589 1.363 . S
C590 C596 1.428 . S
H591 C587 0.930 . S
H592 C589 0.929 . S
S593 N594 1.613 . S
S593 N595 1.610 . S
N594 S593 1.613 . S
N594 C597 1.350 . S
N595 S593 1.610 . S
N595 C596 1.351 . S
C596 C590 1.428 . S
C596 N595 1.351 . S
C596 C597 1.434 . S
C597 C588 1.429 . S
C597 N594 1.350 . S
C597 C596 1.434 . S
C598 C599 1.369 . S
C598 C600 1.419 . S
C598 H602 0.930 . S
C599 C598 1.369 . S
C599 C608 1.429 . S
C600 C598 1.419 . S
C600 C601 1.363 . S
C600 H603 0.929 . S
C601 C600 1.363 . S
C601 C607 1.428 . S
H602 C598 0.930 . S
H603 C600 0.929 . S
S604 N605 1.613 . S
S604 N606 1.610 . S
N605 S604 1.613 . S
N605 C608 1.350 . S
N606 S604 1.610 . S
N606 C607 1.351 . S
C607 C601 1.428 . S
C607 N606 1.351 . S
C607 C608 1.434 . S
C608 C599 1.429 . S
C608 N605 1.350 . S
C608 C607 1.434 . S
C609 C610 1.369 . S
C609 C611 1.419 . S
C609 H613 0.930 . S
C610 C609 1.369 . S
C610 C619 1.429 . S
C611 C609 1.419 . S
C611 C612 1.363 . S
C611 H614 0.929 . S
C612 C611 1.363 . S
C612 C618 1.428 . S
H613 C609 0.930 . S
H614 C611 0.929 . S
S615 N616 1.613 . S
S615 N617 1.610 . S
N616 S615 1.613 . S
N616 C619 1.350 . S
N617 S615 1.610 . S
N617 C618 1.351 . S
C618 C612 1.428 . S
C618 N617 1.351 . S
C618 C619 1.434 . S
C619 C610 1.429 . S
C619 N616 1.350 . S
C619 C618 1.434 . S
C620 C621 1.369 . S
C620 C622 1.419 . S
C620 H624 0.930 . S
C621 C620 1.369 . S
C621 C630 1.429 . S
C622 C620 1.419 . S
C622 C623 1.363 . S
C622 H625 0.929 . S
C623 C622 1.363 . S
C623 C629 1.428 . S
H624 C620 0.930 . S
H625 C622 0.929 . S
S626 N627 1.613 . S
S626 N628 1.610 . S
N627 S626 1.613 . S
N627 C630 1.350 . S
N628 S626 1.610 . S
N628 C629 1.351 . S
C629 C623 1.428 . S
C629 N628 1.351 . S
C629 C630 1.434 . S
C630 C621 1.429 . S
C630 N627 1.350 . S
C630 C629 1.434 . S
C631 C632 1.369 . S
C631 C633 1.419 . S
C631 H635 0.930 . S
C632 C631 1.369 . S
C632 C641 1.429 . S
C633 C631 1.419 . S
C633 C634 1.363 . S
C633 H636 0.929 . S
C634 C633 1.363 . S
C634 C640 1.428 . S
H635 C631 0.930 . S
H636 C633 0.929 . S
S637 N638 1.613 . S
S637 N639 1.610 . S
N638 S637 1.613 . S
N638 C641 1.350 . S
N639 S637 1.610 . S
N639 C640 1.351 . S
C640 C634 1.428 . S
C640 N639 1.351 . S
C640 C641 1.434 . S
C641 C632 1.429 . S
C641 N638 1.350 . S
C641 C640 1.434 . S
C642 C643 1.369 . S
C642 C644 1.419 . S
C642 H646 0.930 . S
C643 C642 1.369 . S
C643 C652 1.429 . S
C644 C642 1.419 . S
C644 C645 1.363 . S
C644 H647 0.929 . S
C645 C644 1.363 . S
C645 C651 1.428 . S
H646 C642 0.930 . S
H647 C644 0.929 . S
S648 N649 1.613 . S
S648 N650 1.610 . S
N649 S648 1.613 . S
N649 C652 1.350 . S
N650 S648 1.610 . S
N650 C651 1.351 . S
C651 C645 1.428 . S
C651 N650 1.351 . S
C651 C652 1.434 . S
C652 C643 1.429 . S
C652 N649 1.350 . S
C652 C651 1.434 . S
C653 C654 1.369 . S
C653 C655 1.419 . S
C653 H657 0.930 . S
C654 C653 1.369 . S
C654 C663 1.429 . S
C655 C653 1.419 . S
C655 C656 1.363 . S
C655 H658 0.929 . S
C656 C655 1.363 . S
C656 C662 1.428 . S
H657 C653 0.930 . S
H658 C655 0.929 . S
S659 N660 1.613 . S
S659 N661 1.610 . S
N660 S659 1.613 . S
N660 C663 1.350 . S
N661 S659 1.610 . S
N661 C662 1.351 . S
C662 C656 1.428 . S
C662 N661 1.351 . S
C662 C663 1.434 . S
C663 C654 1.429 . S
C663 N660 1.350 . S
C663 C662 1.434 . S
C401 C21 1.577 . S
C403 C355 1.557 . S
C414 C319 1.554 . S
C412 C60 1.579 . S
C425 C342 1.556 . S
C423 C99 1.552 . S
C436 C330 1.550 . S
C434 C138 1.554 . S
C447 C399 1.551 . S
C445 C177 1.582 . S
C458 C363 1.553 . S
C456 C216 1.580 . S
C467 C255 1.553 . S
C469 C386 1.556 . S
C480 C374 1.547 . S
C478 C294 1.557 . S
C489 C1 1.542 . S
C491 C396 1.579 . S
C502 C366 1.577 . S
C500 C40 1.547 . S
C511 C79 1.575 . S
C513 C385 1.613 . S
C522 C133 1.564 . S
C524 C371 1.603 . S
C535 C352 1.578 . S
C533 C157 1.549 . S
C544 C196 1.546 . S
C546 C322 1.578 . S
C557 C341 1.613 . S
C555 C235 1.575 . S
C568 C327 1.603 . S
C566 C289 1.562 . S
C579 C377 1.586 . S
C577 C16 1.553 . S
C590 C393 1.587 . S
C588 C55 1.549 . S
C599 C94 1.534 . S
C601 C364 1.565 . S
C612 C388 1.567 . S
C610 C118 1.535 . S
C623 C333 1.587 . S
C621 C172 1.550 . S
C632 C211 1.554 . S
C634 C349 1.586 . S
C643 C250 1.528 . S
C645 C320 1.565 . S
C654 C274 1.533 . S
C656 C344 1.568 . S
