# Generated by pormake.
# Topology rtl, (3,6)-cn, num edge types: 1
# Building blocks:
#     Node 0, Type 0, BuildingBlock: KAKCAD_clean_linker_0, # of connection points: 3
#     Node 1, Type 0, BuildingBlock: KAKCAD_clean_linker_0, # of connection points: 3
#     Node 2, Type 0, BuildingBlock: KAKCAD_clean_linker_0, # of connection points: 3
#     Node 3, Type 0, BuildingBlock: KAKCAD_clean_linker_0, # of connection points: 3
#     Node 4, Type 1, BuildingBlock: KUMBOL_clean_sbu_1, # of connection points: 6
#     Node 5, Type 1, BuildingBlock: KUMBOL_clean_sbu_1, # of connection points: 6
#     Edge 6, Type (0, 1), BuildingBlock: UVAHIK_clean_linker_0, # of connection points: 2
#     Edge 7, Type (0, 1), BuildingBlock: UVAHIK_clean_linker_0, # of connection points: 2
#     Edge 8, Type (0, 1), BuildingBlock: UVAHIK_clean_linker_0, # of connection points: 2
#     Edge 9, Type (0, 1), BuildingBlock: UVAHIK_clean_linker_0, # of connection points: 2
#     Edge 10, Type (0, 1), BuildingBlock: UVAHIK_clean_linker_0, # of connection points: 2
#     Edge 11, Type (0, 1), BuildingBlock: UVAHIK_clean_linker_0, # of connection points: 2
#     Edge 12, Type (0, 1), BuildingBlock: UVAHIK_clean_linker_0, # of connection points: 2
#     Edge 13, Type (0, 1), BuildingBlock: UVAHIK_clean_linker_0, # of connection points: 2
#     Edge 14, Type (0, 1), BuildingBlock: UVAHIK_clean_linker_0, # of connection points: 2
#     Edge 15, Type (0, 1), BuildingBlock: UVAHIK_clean_linker_0, # of connection points: 2
#     Edge 16, Type (0, 1), BuildingBlock: UVAHIK_clean_linker_0, # of connection points: 2
#     Edge 17, Type (0, 1), BuildingBlock: UVAHIK_clean_linker_0, # of connection points: 2
# Relax obj value: 0.017
# Max RMSD: 0.086
# Mean RMSD: 0.053
data_MOF--net-rtl--node1-KUMBOL_clean_sbu_1--node2-KAKCAD_clean_linker_0--edge1-UVAHIK_clean_linker_0
_symmetry_space_group_name_H-M    P1
_symmetry_Int_Tables_number       1
_symmetry_cell_setting            triclinic
loop_
_symmetry_equiv_pos_as_xyz
'x, y, z'
_cell_length_a     49.280629
_cell_length_b     49.759567
_cell_length_c     42.766695
_cell_angle_alpha  81.901048
_cell_angle_beta   99.660174
_cell_angle_gamma 90.259017
loop_
_atom_site_label
_atom_site_type_symbol
_atom_site_fract_x
_atom_site_fract_y
_atom_site_fract_z
_atom_type_partial_charge
C0 C 0.18114 0.8749 0.90834 0.0
C1 C 0.17226 0.90222 0.90053 0.0
C2 C 0.19563 0.86515 0.93872 0.0
C3 C 0.20213 0.88252 0.96205 0.0
C4 C 0.19377 0.90998 0.95406 0.0
C5 C 0.17889 0.91967 0.92377 0.0
C6 C 0.21675 0.87173 0.99481 0.0
C7 C 0.23696 0.85105 0.99926 0.0
C8 C 0.2492 0.83913 0.03015 0.0
C9 C 0.2418 0.84887 0.05689 0.0
C10 C 0.22201 0.86986 0.05298 0.0
C11 C 0.20954 0.88105 0.02191 0.0
C12 C 0.21301 0.8791 0.08124 0.0
C13 C 0.20772 0.86015 0.10702 0.0
C14 C 0.20842 0.90685 0.08196 0.0
C15 C 0.19811 0.91541 0.10752 0.0
C16 C 0.19213 0.89639 0.13291 0.0
C17 C 0.2685 0.8155 0.03435 0.0
C18 C 0.26277 0.79483 0.01506 0.0
C19 C 0.29232 0.81303 0.05791 0.0
C20 C 0.30997 0.79037 0.06207 0.0
C21 C 0.30411 0.76965 0.04285 0.0
C22 C 0.28036 0.77225 0.01921 0.0
C23 C 0.19739 0.86869 0.13255 0.0
H24 H 0.17695 0.86092 0.89097 0.0
H25 H 0.20129 0.84379 0.94403 0.0
H26 H 0.19867 0.92407 0.97122 0.0
H27 H 0.17221 0.94076 0.91883 0.0
H28 H 0.2432 0.84411 0.97859 0.0
H29 H 0.19327 0.89623 0.01893 0.0
H30 H 0.25101 0.83973 0.08081 0.0
H31 H 0.21065 0.8386 0.10695 0.0
H32 H 0.21266 0.92197 0.06264 0.0
H33 H 0.19472 0.93692 0.10732 0.0
H34 H 0.24441 0.79589 0.99698 0.0
H35 H 0.29741 0.82869 0.07302 0.0
H36 H 0.19262 0.85347 0.15146 0.0
H37 H 0.27541 0.75689 0.00366 0.0
H38 H 0.32801 0.7889 0.08063 0.0
C39 C 0.62744 0.68868 0.69254 0.0
C40 C 0.62403 0.66048 0.69898 0.0
C41 C 0.63594 0.70023 0.66407 0.0
C42 C 0.64086 0.68384 0.6413 0.0
C43 C 0.63734 0.65567 0.64773 0.0
C44 C 0.62912 0.64412 0.67627 0.0
C45 C 0.64976 0.6959 0.61094 0.0
C46 C 0.6709 0.715 0.61118 0.0
C47 C 0.68044 0.72525 0.58273 0.0
C48 C 0.66817 0.7166 0.55383 0.0
C49 C 0.64679 0.69779 0.55299 0.0
C50 C 0.63774 0.68756 0.58174 0.0
C51 C 0.63474 0.68825 0.52222 0.0
C52 C 0.63064 0.70635 0.49336 0.0
C53 C 0.62842 0.66074 0.5212 0.0
C54 C 0.61908 0.65145 0.49197 0.0
C55 C 0.61605 0.6694 0.46308 0.0
C56 C 0.70369 0.74441 0.583 0.0
C57 C 0.70493 0.76649 0.60039 0.0
C58 C 0.72454 0.74107 0.56505 0.0
C59 C 0.74568 0.75974 0.56371 0.0
C60 C 0.74655 0.78226 0.58032 0.0
C61 C 0.72614 0.78524 0.59905 0.0
C62 C 0.62155 0.69701 0.46413 0.0
H63 H 0.62384 0.70178 0.70969 0.0
H64 H 0.63835 0.72202 0.65968 0.0
H65 H 0.64124 0.64249 0.6308 0.0
H66 H 0.62642 0.62237 0.6804 0.0
H67 H 0.68069 0.72104 0.6337 0.0
H68 H 0.62106 0.67328 0.58139 0.0
H69 H 0.67559 0.72433 0.5319 0.0
H70 H 0.6347 0.72777 0.49327 0.0
H71 H 0.63164 0.64616 0.54287 0.0
H72 H 0.61527 0.63 0.49186 0.0
H73 H 0.68908 0.76969 0.6143 0.0
H74 H 0.72455 0.72394 0.55197 0.0
H75 H 0.61901 0.71137 0.44228 0.0
H76 H 0.72611 0.80247 0.61195 0.0
H77 H 0.76141 0.75649 0.54966 0.0
C78 C 0.80449 0.09869 0.14222 0.0
C79 C 0.83325 0.09508 0.14961 0.0
C80 C 0.79171 0.10875 0.11108 0.0
C81 C 0.80741 0.11539 0.08659 0.0
C82 C 0.83612 0.11133 0.09384 0.0
C83 C 0.84889 0.10131 0.12498 0.0
C84 C 0.7941 0.12754 0.05388 0.0
C85 C 0.77377 0.14798 0.04983 0.0
C86 C 0.76208 0.16077 0.01912 0.0
C87 C 0.77124 0.15301 0.9922 0.0
C88 C 0.7916 0.13252 0.9957 0.0
C89 C 0.80256 0.11968 0.0267 0.0
C90 C 0.80223 0.12522 0.96725 0.0
C91 C 0.78472 0.12517 0.93766 0.0
C92 C 0.83029 0.11871 0.96937 0.0
C93 C 0.84057 0.11243 0.94272 0.0
C94 C 0.82322 0.11298 0.91294 0.0
C95 C 0.74114 0.18296 0.01557 0.0
C96 C 0.72075 0.18099 0.03515 0.0
C97 C 0.74201 0.2067 0.99363 0.0
C98 C 0.7234 0.22822 0.99192 0.0
C99 C 0.70361 0.22653 0.01224 0.0
C100 C 0.70228 0.20254 0.03357 0.0
C101 C 0.7951 0.11928 0.91082 0.0
H102 H 0.7918 0.09368 0.16052 0.0
H103 H 0.76952 0.1113 0.10615 0.0
H104 H 0.84885 0.11665 0.07565 0.0
H105 H 0.87111 0.09917 0.12992 0.0
H106 H 0.7678 0.15471 0.07077 0.0
H107 H 0.81771 0.1034 0.02978 0.0
H108 H 0.76273 0.16321 0.96854 0.0
H109 H 0.76292 0.12968 0.93515 0.0
H110 H 0.84458 0.1189 0.99152 0.0
H111 H 0.86223 0.10718 0.94557 0.0
H112 H 0.71915 0.1628 0.05188 0.0
H113 H 0.75765 0.20906 0.97848 0.0
H114 H 0.78111 0.12019 0.88827 0.0
H115 H 0.68696 0.20044 0.04915 0.0
H116 H 0.72511 0.24655 0.97546 0.0
C117 C 0.3649 0.33415 0.35495 0.0
C118 C 0.39305 0.33425 0.35242 0.0
C119 C 0.35611 0.32205 0.38298 0.0
C120 C 0.37528 0.31019 0.4093 0.0
C121 C 0.4033 0.30994 0.40682 0.0
C122 C 0.41206 0.32157 0.37862 0.0
C123 C 0.36623 0.29908 0.43976 0.0
C124 C 0.3451 0.28004 0.44017 0.0
C125 C 0.33632 0.26973 0.46909 0.0
C126 C 0.34864 0.27918 0.49751 0.0
C127 C 0.36957 0.29844 0.49746 0.0
C128 C 0.37845 0.30805 0.46846 0.0
C129 C 0.38147 0.30903 0.52758 0.0
C130 C 0.36438 0.31457 0.54923 0.0
C131 C 0.40983 0.31385 0.53487 0.0
C132 C 0.42079 0.32399 0.56314 0.0
C133 C 0.40365 0.32937 0.58478 0.0
C134 C 0.31404 0.24944 0.46993 0.0
C135 C 0.29071 0.25154 0.44564 0.0
C136 C 0.31545 0.22839 0.49587 0.0
C137 C 0.29368 0.21059 0.49815 0.0
C138 C 0.27011 0.21314 0.47434 0.0
C139 C 0.26902 0.23347 0.44777 0.0
C140 C 0.37535 0.32451 0.57752 0.0
H141 H 0.34964 0.34406 0.33562 0.0
H142 H 0.3344 0.3227 0.38447 0.0
H143 H 0.41844 0.30066 0.42673 0.0
H144 H 0.4338 0.32057 0.37744 0.0
H145 H 0.33598 0.27288 0.41806 0.0
H146 H 0.3942 0.32331 0.46791 0.0
H147 H 0.34174 0.27168 0.51982 0.0
H148 H 0.34238 0.31169 0.54408 0.0
H149 H 0.42362 0.30951 0.51891 0.0
H150 H 0.44272 0.32738 0.56822 0.0
H151 H 0.28879 0.26764 0.42549 0.0
H152 H 0.33336 0.22572 0.5146 0.0
H153 H 0.36153 0.32898 0.59339 0.0
H154 H 0.251 0.23597 0.42915 0.0
H155 H 0.29527 0.19478 0.51861 0.0
C156 C 0.94559 0.06876 0.4819 0.0
C157 C 0.89999 0.04976 0.47587 0.0
C158 C 0.92753 0.04919 0.49175 0.0
C159 C 0.89136 0.06949 0.44914 0.0
C160 C 0.93677 0.0893 0.45598 0.0
C161 C 0.9097 0.08926 0.43926 0.0
N162 N 0.97192 0.06768 0.49778 0.0
C163 C 0.98991 0.08772 0.49092 0.0
C164 C 0.95546 0.10929 0.44776 0.0
C165 C 0.98204 0.10868 0.46558 0.0
Gd166 Gd 0.02373 0.97196 0.50913 0.0
Gd167 Gd 0.98373 0.03177 0.53955 0.0
N168 N 0.93652 0.03046 0.51779 0.0
C169 C 0.88174 0.03102 0.48794 0.0
C170 C 0.91817 0.01389 0.53127 0.0
C171 C 0.89076 0.01337 0.51614 0.0
H172 H 0.92436 0.00137 0.55406 0.0
H173 H 0.8765 0.99966 0.52654 0.0
H174 H 0.08922 0.98912 0.52222 0.0
H175 H 0.01045 0.08715 0.50469 0.0
H176 H 0.13304 0.97163 0.5564 0.0
H177 H 0.86043 0.03075 0.47642 0.0
H178 H 0.87037 0.07003 0.43642 0.0
H179 H 0.98081 0.91875 0.51032 0.0
H180 H 0.94948 0.12543 0.42799 0.0
H181 H 0.99648 0.12427 0.45972 0.0
H182 H 0.1078 0.88855 0.61569 0.0
H183 H 0.90263 0.10463 0.41896 0.0
H184 H 0.01642 0.85693 0.58562 0.0
H185 H 0.97757 0.87439 0.54315 0.0
N186 N 0.01946 0.92807 0.53665 0.0
C187 C 0.04173 0.91805 0.55833 0.0
C188 C 0.99721 0.91212 0.52996 0.0
C189 C 0.01755 0.87685 0.57197 0.0
C190 C 0.99557 0.88665 0.54806 0.0
C191 C 0.04136 0.89223 0.57672 0.0
H192 H 0.0651 0.86246 0.6127 0.0
N193 N 0.0656 0.95693 0.54113 0.0
C194 C 0.06572 0.93273 0.56021 0.0
C195 C 0.11443 0.93648 0.57914 0.0
C196 C 0.09005 0.92203 0.58021 0.0
C197 C 0.08947 0.97048 0.53868 0.0
C198 C 0.11421 0.96061 0.55789 0.0
O199 O 0.989 0.03237 0.48773 0.0
O200 O 0.98302 0.98816 0.48129 0.0
O201 O 0.04204 0.98278 0.46647 0.0
O202 O 0.03098 0.94124 0.4799 0.0
O203 O 0.97153 0.98841 0.55494 0.0
O204 O 0.97843 0.96684 0.51248 0.0
O205 O 0.04069 0.98521 0.55719 0.0
O206 O 0.00187 0.99649 0.57592 0.0
O207 O 0.9593 0.05026 0.56958 0.0
O208 O 0.00239 0.06112 0.56913 0.0
O209 O 0.03989 0.01453 0.49964 0.0
O210 O 0.02901 0.03856 0.53891 0.0
C211 C 0.97905 0.01391 0.47019 0.0
C212 C 0.96613 0.9688 0.53717 0.0
C213 C 0.02762 0.95729 0.42484 0.0
C214 C 0.0339 0.95368 0.37018 0.0
C215 C 0.98796 0.95947 0.38244 0.0
C216 C 0.99907 0.95974 0.41465 0.0
C217 C 0.0052 0.95644 0.36029 0.0
C218 C 0.04492 0.95434 0.40263 0.0
C219 C 0.0398 0.95857 0.45831 0.0
C220 C 0.08941 0.89697 0.59982 0.0
C221 C 0.06508 0.88213 0.59815 0.0
H222 H 0.13358 0.92889 0.59405 0.0
C223 C 0.02756 0.98781 0.58098 0.0
C224 C 0.04422 0.03426 0.51744 0.0
C225 C 0.97832 0.08427 0.60283 0.0
C226 C 0.95764 0.09989 0.64525 0.0
C227 C 0.99327 0.12618 0.62275 0.0
C228 C 0.99524 0.10704 0.6023 0.0
C229 C 0.97454 0.12273 0.64403 0.0
C230 C 0.9596 0.08067 0.62449 0.0
C231 C 0.97986 0.06487 0.58014 0.0
H232 H 0.96591 0.96145 0.37466 0.0
H233 H 0.98545 0.96183 0.43156 0.0
H234 H 0.99603 0.95576 0.33557 0.0
H235 H 0.067 0.95286 0.41064 0.0
H236 H 0.0063 0.14375 0.62211 0.0
H237 H 0.00974 0.11026 0.58575 0.0
H238 H 0.97358 0.13769 0.65996 0.0
H239 H 0.94651 0.0631 0.62508 0.0
C240 C 0.58539 0.54442 0.01687 0.0
C241 C 0.57291 0.59234 0.00504 0.0
C242 C 0.56761 0.5657 0.01855 0.0
C243 C 0.59549 0.59709 0.98899 0.0
C244 C 0.60831 0.54919 1.00124 0.0
C245 C 0.61315 0.5756 0.98712 0.0
N246 N 0.57963 0.51882 0.02953 0.0
C247 C 0.59656 0.49734 0.02898 0.0
C248 C 0.62552 0.52718 0.99992 0.0
C249 C 0.61969 0.50117 0.01401 0.0
Gd250 Gd 0.47434 0.49187 0.99286 0.0
Gd251 Gd 0.54078 0.51453 0.05436 0.0
N252 N 0.5456 0.56048 0.03388 0.0
C253 C 0.5557 0.61356 0.00867 0.0
C254 C 0.53041 0.58145 0.03992 0.0
C255 C 0.5347 0.60814 0.02672 0.0
H256 H 0.51564 0.57802 0.05586 0.0
H257 H 0.52218 0.62459 0.03107 0.0
H258 H 0.49171 0.42542 1.00001 0.0
H259 H 0.59201 0.47726 0.03989 0.0
H260 H 0.47228 0.38125 0.0168 0.0
H261 H 0.5591 0.6343 0.99869 0.0
H262 H 0.5997 0.61741 0.97828 0.0
H263 H 0.42507 0.5384 0.99208 0.0
H264 H 0.64333 0.53004 0.9881 0.0
H265 H 0.63296 0.48409 0.01325 0.0
H266 H 0.38328 0.40349 0.03841 0.0
H267 H 0.63054 0.57964 0.97478 0.0
H268 H 0.35593 0.49733 0.02348 0.0
H269 H 0.37848 0.54 0.00578 0.0
N270 N 0.42974 0.49569 0.00432 0.0
C271 C 0.4173 0.47192 0.01268 0.0
C272 C 0.41592 0.51986 1.0011 0.0
C273 C 0.37658 0.4966 0.018 0.0
C274 C 0.38929 0.52074 0.0082 0.0
C275 C 0.39047 0.47176 0.02011 0.0
H276 H 0.35785 0.44645 0.03535 0.0
N277 N 0.45772 0.44841 0.00764 0.0
C278 C 0.43162 0.44759 0.01423 0.0
C279 C 0.43452 0.39859 0.02485 0.0
C280 C 0.41949 0.42264 0.02348 0.0
C281 C 0.47194 0.42497 0.00752 0.0
C282 C 0.46075 0.39977 0.01654 0.0
O283 O 0.54146 0.51328 1.0017 0.0
O284 O 0.49847 0.52919 0.98063 0.0
O285 O 0.47802 0.47778 0.9468 0.0
O286 O 0.44301 0.50291 0.95199 0.0
O287 O 0.49904 0.53225 0.05719 0.0
O288 O 0.47694 0.53449 0.00507 0.0
O289 O 0.47364 0.47573 0.04493 0.0
O290 O 0.51205 0.48797 0.07973 0.0
O291 O 0.55494 0.53525 0.09571 0.0
O292 O 0.5746 0.49701 0.09089 0.0
O293 O 0.51477 0.46868 0.99774 0.0
O294 O 0.5383 0.47003 0.04946 0.0
C295 C 0.5244 0.52705 0.97829 0.0
C296 C 0.47894 0.5415 0.03384 0.0
C297 C 0.44289 0.49269 0.89891 0.0
C298 C 0.43893 0.47742 0.84669 0.0
C299 C 0.41384 0.51778 0.85247 0.0
C300 C 0.42472 0.51451 0.88505 0.0
C301 C 0.42101 0.49945 0.83331 0.0
C302 C 0.44977 0.47394 0.87963 0.0
C303 C 0.45499 0.49044 0.93315 0.0
C304 C 0.39287 0.42246 0.03115 0.0
C305 C 0.3784 0.44694 0.02943 0.0
H306 H 0.42594 0.37902 0.03188 0.0
C307 C 0.48847 0.4756 0.07363 0.0
C308 C 0.5328 0.45859 0.02317 0.0
C309 C 0.59284 0.51783 0.13806 0.0
C310 C 0.60587 0.53639 0.18827 0.0
C311 C 0.63608 0.50394 0.17293 0.0
C312 C 0.61741 0.50234 0.14489 0.0
C313 C 0.63047 0.52095 0.19442 0.0
C314 C 0.58701 0.53469 0.16004 0.0
C315 C 0.57383 0.51674 0.10772 0.0
H316 H 0.39993 0.53465 0.84201 0.0
H317 H 0.41913 0.52929 0.89931 0.0
H318 H 0.41237 0.5023 0.80802 0.0
H319 H 0.46371 0.45703 0.88999 0.0
H320 H 0.65504 0.49203 0.17795 0.0
H321 H 0.62238 0.48924 0.12837 0.0
H322 H 0.64522 0.52186 0.21608 0.0
H323 H 0.56809 0.54672 0.15506 0.0
C324 C 0.23361 0.18223 0.45224 0.0
C325 C 0.24646 0.1951 0.47787 0.0
C326 C 0.21154 0.16495 0.45596 0.0
C327 C 0.15652 0.15031 0.50351 0.0
H328 H 0.1569 0.07891 0.47717 0.0
C329 C 0.07683 0.07011 0.53521 0.0
C330 C 0.06723 0.05279 0.51266 0.0
C331 C 0.09862 0.08751 0.53069 0.0
C332 C 0.15618 0.09893 0.48421 0.0
H333 H 0.24597 0.20051 0.52719 0.0
H334 H 0.20728 0.17053 0.53358 0.0
H335 H 0.19457 0.1096 0.46894 0.0
H336 H 0.07277 0.04045 0.46742 0.0
H337 H 0.11009 0.0713 0.45906 0.0
H338 H 0.11796 0.14006 0.5182 0.0
C339 C 0.21434 0.17369 0.5107 0.0
C340 C 0.17785 0.11646 0.47956 0.0
C341 C 0.2366 0.19065 0.50713 0.0
C342 C 0.07979 0.05337 0.48541 0.0
C343 C 0.10136 0.07099 0.48071 0.0
C344 C 0.13468 0.13294 0.50781 0.0
C345 C 0.20166 0.16057 0.48522 0.0
C346 C 0.17831 0.14226 0.48933 0.0
C347 C 0.11114 0.08826 0.50332 0.0
C348 C 0.13427 0.10693 0.49838 0.0
H349 H 0.24088 0.18523 0.42949 0.0
H350 H 0.20202 0.15521 0.43587 0.0
H351 H 0.1562 0.17023 0.51093 0.0
H352 H 0.06773 0.07004 0.55659 0.0
H353 H 0.10587 0.10012 0.54893 0.0
C354 C 0.31148 0.71952 0.04491 0.0
C355 C 0.32259 0.74539 0.04712 0.0
C356 C 0.32865 0.69692 0.04677 0.0
C357 C 0.40019 0.67078 0.07217 0.0
H358 H 0.37906 0.6237 0.00755 0.0
C359 C 0.45752 0.56934 0.06829 0.0
C360 C 0.46208 0.56492 0.03784 0.0
C361 C 0.44101 0.59129 0.07156 0.0
C362 C 0.38528 0.63669 0.0257 0.0
H363 H 0.3606 0.76762 0.05388 0.0
H364 H 0.39065 0.72802 0.05728 0.0
H365 H 0.3493 0.66203 0.00992 0.0
H366 H 0.4542 0.58087 0.98717 0.0
H367 H 0.42526 0.61871 0.99285 0.0
H368 H 0.43648 0.64548 0.08752 0.0
C369 C 0.3686 0.72527 0.05431 0.0
C370 C 0.36809 0.65849 0.02728 0.0
C371 C 0.35138 0.74795 0.05235 0.0
C372 C 0.45053 0.5833 0.0109 0.0
C373 C 0.43394 0.60501 0.01413 0.0
C374 C 0.41734 0.64878 0.07073 0.0
C375 C 0.35738 0.69959 0.05101 0.0
C376 C 0.37541 0.67589 0.05038 0.0
C377 C 0.42875 0.6091 0.04441 0.0
C378 C 0.41017 0.63169 0.04724 0.0
H379 H 0.28942 0.71672 0.04159 0.0
H380 H 0.31941 0.67731 0.04473 0.0
H381 H 0.40627 0.68374 0.09037 0.0
H382 H 0.46635 0.55561 0.08948 0.0
H383 H 0.43732 0.59395 0.09521 0.0
C384 C 0.78151 0.8141 0.6041 0.0
C385 C 0.76833 0.80281 0.57731 0.0
C386 C 0.80232 0.83307 0.60105 0.0
C387 C 0.83028 0.8813 0.54071 0.0
H388 H 0.89698 0.87529 0.60413 0.0
C389 C 0.92843 0.93836 0.51779 0.0
C390 C 0.94352 0.95016 0.54306 0.0
C391 C 0.90668 0.92117 0.52306 0.0
C392 C 0.87834 0.87745 0.58642 0.0
H393 H 0.76625 0.80317 0.52618 0.0
H394 H 0.80273 0.83573 0.521 0.0
H395 H 0.85939 0.84414 0.61148 0.0
H396 H 0.94775 0.95327 0.59366 0.0
H397 H 0.90953 0.92329 0.60291 0.0
H398 H 0.84926 0.9144 0.51549 0.0
C399 C 0.79692 0.83012 0.54434 0.0
C400 C 0.85679 0.85962 0.59065 0.0
C401 C 0.77622 0.81117 0.54739 0.0
C402 C 0.93646 0.94441 0.57376 0.0
C403 C 0.91471 0.92713 0.57907 0.0
C404 C 0.85179 0.89908 0.53648 0.0
C405 C 0.81028 0.84128 0.57111 0.0
C406 C 0.83262 0.86114 0.56765 0.0
C407 C 0.8995 0.9154 0.55374 0.0
C408 C 0.8762 0.89719 0.55909 0.0
H409 H 0.77604 0.80796 0.62752 0.0
H410 H 0.81204 0.84146 0.62209 0.0
H411 H 0.81174 0.88338 0.52285 0.0
H412 H 0.93324 0.94262 0.4938 0.0
H413 H 0.89563 0.9122 0.50311 0.0
C414 C 0.67224 0.26516 0.98326 0.0
C415 C 0.68516 0.25007 0.01218 0.0
C416 C 0.65529 0.28761 0.98349 0.0
C417 C 0.64253 0.33845 0.03425 0.0
H418 H 0.57148 0.3489 0.97883 0.0
C419 C 0.56477 0.41976 0.04905 0.0
C420 C 0.54931 0.43424 0.02124 0.0
C421 C 0.58095 0.39723 0.04721 0.0
C422 C 0.59142 0.3465 0.99417 0.0
H423 H 0.69063 0.24685 0.06396 0.0
H424 H 0.66101 0.28588 0.06434 0.0
H425 H 0.60065 0.30991 0.97656 0.0
H426 H 0.53875 0.43634 0.9696 0.0
H427 H 0.56735 0.39736 0.96633 0.0
H428 H 0.63364 0.37508 0.05166 0.0
C429 C 0.66402 0.28041 0.0415 0.0
C430 C 0.60809 0.32413 0.99288 0.0
C431 C 0.68075 0.25789 0.04128 0.0
C432 C 0.55027 0.42555 0.99154 0.0
C433 C 0.56659 0.4031 0.98967 0.0
C434 C 0.62598 0.36089 0.03539 0.0
C435 C 0.65116 0.29557 0.01263 0.0
C436 C 0.63373 0.31975 0.01312 0.0
C437 C 0.58226 0.38872 0.01748 0.0
C438 C 0.60009 0.3651 0.01558 0.0
H439 H 0.67512 0.25952 0.96047 0.0
H440 H 0.64578 0.299 0.96086 0.0
H441 H 0.6624 0.33589 0.04975 0.0
H442 H 0.56435 0.42575 0.07235 0.0
H443 H 0.59229 0.38636 0.0692 0.0
C444 C 0.18705 0.89286 0.19085 0.0
C445 C 0.17928 0.90519 0.15894 0.0
C446 C 0.17354 0.89978 0.21491 0.0
C447 C 0.12803 0.95184 0.23435 0.0
H448 H 0.10648 0.89213 0.29312 0.0
C449 C 0.0476 0.96417 0.31575 0.0
C450 C 0.0523 0.94969 0.34692 0.0
C451 C 0.06464 0.95993 0.29377 0.0
C452 C 0.11267 0.9091 0.27723 0.0
H453 H 0.15142 0.9348 0.12743 0.0
H454 H 0.12795 0.94692 0.1694 0.0
H455 H 0.13404 0.88299 0.25349 0.0
H456 H 0.07865 0.9194 0.37938 0.0
H457 H 0.10868 0.9125 0.34135 0.0
H458 H 0.10642 0.97793 0.25801 0.0
C459 C 0.14471 0.93212 0.17589 0.0
C460 C 0.12849 0.90385 0.2545 0.0
C461 C 0.15819 0.92517 0.15182 0.0
C462 C 0.0746 0.9311 0.35568 0.0
C463 C 0.09163 0.9269 0.33375 0.0
C464 C 0.11223 0.95711 0.25716 0.0
C465 C 0.15196 0.91922 0.20762 0.0
C466 C 0.13623 0.92512 0.23268 0.0
C467 C 0.08675 0.94112 0.30245 0.0
C468 C 0.10423 0.93577 0.27876 0.0
H469 H 0.20352 0.87773 0.19723 0.0
H470 H 0.17991 0.88981 0.23923 0.0
H471 H 0.13395 0.9687 0.21811 0.0
H472 H 0.03081 0.97887 0.30834 0.0
H473 H 0.06014 0.97104 0.26977 0.0
C474 C 0.59319 0.65955 0.74033 0.0
C475 C 0.61506 0.64803 0.72915 0.0
C476 C 0.58399 0.64707 0.76797 0.0
C477 C 0.58541 0.58048 0.81983 0.0
H478 H 0.56014 0.623 0.87906 0.0
C479 C 0.55916 0.53185 0.94161 0.0
C480 C 0.5348 0.54101 0.94995 0.0
C481 C 0.56941 0.54535 0.91525 0.0
C482 C 0.56694 0.61088 0.86259 0.0
H483 H 0.64512 0.61497 0.73885 0.0
H484 H 0.62949 0.59347 0.78731 0.0
H485 H 0.57765 0.64598 0.83239 0.0
H486 H 0.50198 0.57142 0.93733 0.0
H487 H 0.51981 0.59498 0.89104 0.0
H488 H 0.57492 0.54539 0.85023 0.0
C489 C 0.61888 0.61173 0.77432 0.0
C490 C 0.57693 0.62403 0.8358 0.0
C491 C 0.62792 0.62409 0.74658 0.0
C492 C 0.52077 0.56387 0.93135 0.0
C493 C 0.53111 0.57749 0.90507 0.0
C494 C 0.57561 0.56735 0.84671 0.0
C495 C 0.5966 0.62288 0.78521 0.0
C496 C 0.58625 0.60899 0.81402 0.0
C497 C 0.55551 0.56833 0.89668 0.0
C498 C 0.5662 0.58239 0.86834 0.0
H499 H 0.58269 0.67784 0.72721 0.0
H500 H 0.56655 0.65606 0.77534 0.0
H501 H 0.59188 0.56821 0.80331 0.0
H502 H 0.57028 0.51416 0.9554 0.0
H503 H 0.58839 0.53795 0.90958 0.0
C504 C 0.86944 0.06709 0.18911 0.0
C505 C 0.84703 0.08556 0.183 0.0
C506 C 0.88298 0.0589 0.22042 0.0
C507 C 0.89465 0.07997 0.30098 0.0
H508 H 0.91993 0.00535 0.32841 0.0
C509 C 0.96896 0.04664 0.41959 0.0
C510 C 0.9636 0.022 0.43763 0.0
C511 C 0.95413 0.05435 0.38881 0.0
C512 C 0.9128 0.02622 0.32121 0.0
H513 H 0.82129 0.10986 0.20513 0.0
H514 H 0.8445 0.0951 0.25979 0.0
H515 H 0.89444 0.01845 0.27442 0.0
H516 H 0.93868 0.98603 0.43787 0.0
H517 H 0.91281 0.99936 0.38401 0.0
H518 H 0.91262 0.08761 0.34798 0.0
C519 C 0.85182 0.0872 0.24031 0.0
C520 C 0.89847 0.0338 0.29014 0.0
C521 C 0.83829 0.09539 0.209 0.0
C522 C 0.94333 0.00507 0.42432 0.0
C523 C 0.92857 0.01269 0.3935 0.0
C524 C 0.90898 0.07238 0.33205 0.0
C525 C 0.87443 0.06897 0.24639 0.0
C526 C 0.88928 0.06078 0.27962 0.0
C527 C 0.9338 0.03743 0.37538 0.0
C528 C 0.91828 0.04544 0.34249 0.0
H529 H 0.87652 0.05891 0.16967 0.0
H530 H 0.90048 0.04504 0.2242 0.0
H531 H 0.88814 0.10098 0.29355 0.0
H532 H 0.98479 0.05985 0.42916 0.0
H533 H 0.95893 0.07335 0.37532 0.0
C534 C 0.43331 0.36246 0.61343 0.0
C535 C 0.41491 0.34083 0.61441 0.0
C536 C 0.44193 0.37486 0.64067 0.0
C537 C 0.44592 0.36699 0.72875 0.0
H538 H 0.4382 0.44544 0.71431 0.0
C539 C 0.43653 0.43158 0.82912 0.0
C540 C 0.44582 0.45834 0.82566 0.0
C541 C 0.43828 0.41523 0.80541 0.0
C542 C 0.44113 0.42359 0.71887 0.0
H543 H 0.39227 0.3143 0.64512 0.0
H544 H 0.40715 0.33612 0.69264 0.0
H545 H 0.43137 0.42048 0.66893 0.0
H546 H 0.46595 0.48853 0.79645 0.0
H547 H 0.4702 0.45975 0.75575 0.0
H548 H 0.45536 0.37015 0.77886 0.0
C549 C 0.41496 0.34344 0.67084 0.0
C550 C 0.43711 0.40927 0.69275 0.0
C551 C 0.4062 0.33115 0.64355 0.0
C552 C 0.45855 0.46794 0.79942 0.0
C553 C 0.4607 0.45153 0.77602 0.0
C554 C 0.45017 0.38137 0.75499 0.0
C555 C 0.43247 0.36579 0.66952 0.0
C556 C 0.43912 0.38081 0.69738 0.0
C557 C 0.4496 0.42535 0.77803 0.0
C558 C 0.4475 0.40987 0.75038 0.0
H559 H 0.44026 0.37045 0.5913 0.0
H560 H 0.45564 0.3919 0.63903 0.0
H561 H 0.44782 0.34505 0.73301 0.0
H562 H 0.42643 0.42392 0.84911 0.0
H563 H 0.42933 0.39529 0.80769 0.0
C564 C 0.58757 0.64041 0.42687 0.0
C565 C 0.60878 0.65909 0.43186 0.0
C566 C 0.58185 0.62976 0.39792 0.0
C567 C 0.59676 0.63948 0.31406 0.0
H568 H 0.5812 0.5627 0.31862 0.0
C569 C 0.61997 0.57307 0.22158 0.0
C570 C 0.60029 0.55423 0.2115 0.0
C571 C 0.61611 0.58831 0.24556 0.0
C572 C 0.58509 0.58426 0.31688 0.0
H573 H 0.64068 0.68116 0.41053 0.0
H574 H 0.63132 0.66219 0.36058 0.0
H575 H 0.58379 0.58458 0.36653 0.0
H576 H 0.56091 0.53685 0.21796 0.0
H577 H 0.55439 0.56321 0.2607 0.0
H578 H 0.5995 0.63861 0.26471 0.0
C579 C 0.61843 0.65628 0.37845 0.0
C580 C 0.58652 0.59688 0.34433 0.0
C581 C 0.62392 0.66713 0.4072 0.0
C582 C 0.5763 0.55136 0.22528 0.0
C583 C 0.57266 0.56629 0.24976 0.0
C584 C 0.59569 0.62676 0.28676 0.0
C585 C 0.59744 0.6373 0.37344 0.0
C586 C 0.59295 0.62455 0.34347 0.0
C587 C 0.59269 0.58471 0.26033 0.0
C588 C 0.59035 0.59892 0.28805 0.0
H589 H 0.57539 0.63406 0.44537 0.0
H590 H 0.56525 0.61554 0.39479 0.0
H591 H 0.60105 0.66095 0.31221 0.0
H592 H 0.63859 0.57568 0.21123 0.0
H593 H 0.63199 0.60218 0.25343 0.0
C594 C 0.86121 0.11637 0.88004 0.0
C595 C 0.83467 0.10764 0.88419 0.0
C596 C 0.87216 0.11139 0.85331 0.0
C597 C 0.85331 0.10114 0.77017 0.0
H598 H 0.92848 0.07405 0.78079 0.0
C599 C 0.92141 0.11764 0.67199 0.0
C600 C 0.9386 0.09609 0.66882 0.0
C601 C 0.90554 0.11515 0.69638 0.0
C602 C 0.90735 0.08129 0.77743 0.0
H603 H 0.79894 0.08666 0.8631 0.0
H604 H 0.81786 0.07888 0.81574 0.0
H605 H 0.90734 0.07698 0.82798 0.0
H606 H 0.95208 0.05478 0.68793 0.0
H607 H 0.92454 0.05053 0.73103 0.0
H608 H 0.8537 0.10635 0.71959 0.0
C609 C 0.83012 0.08942 0.83352 0.0
C610 C 0.89535 0.08317 0.80442 0.0
C611 C 0.81927 0.09404 0.86057 0.0
C612 C 0.9389 0.07164 0.6898 0.0
C613 C 0.92331 0.06928 0.71452 0.0
C614 C 0.86546 0.0996 0.74314 0.0
C615 C 0.85673 0.09794 0.82976 0.0
C616 C 0.86838 0.09352 0.80107 0.0
C617 C 0.90681 0.09118 0.71834 0.0
C618 C 0.89274 0.09003 0.74654 0.0
H619 H 0.87347 0.12751 0.89717 0.0
H620 H 0.89254 0.11862 0.8507 0.0
H621 H 0.83252 0.10929 0.76694 0.0
H622 H 0.92069 0.13664 0.65598 0.0
H623 H 0.89319 0.13242 0.69889 0.0
C624 C 0.38644 0.34847 0.29253 0.0
C625 C 0.40263 0.34809 0.32302 0.0
C626 C 0.39518 0.36211 0.26517 0.0
C627 C 0.44514 0.41405 0.24018 0.0
H628 H 0.42814 0.38614 0.15905 0.0
C629 C 0.49596 0.45366 0.13095 0.0
C630 C 0.47815 0.46031 0.1015 0.0
C631 C 0.48632 0.43978 0.15752 0.0
C632 C 0.43286 0.39422 0.18154 0.0
H633 H 0.44088 0.36207 0.34826 0.0
H634 H 0.45677 0.38422 0.30071 0.0
H635 H 0.41258 0.36191 0.20633 0.0
H636 H 0.43604 0.45794 0.07745 0.0
H637 H 0.41942 0.43301 0.12352 0.0
H638 H 0.46617 0.44589 0.21539 0.0
C639 C 0.43689 0.37468 0.2979 0.0
C640 C 0.42385 0.38044 0.20864 0.0
C641 C 0.42797 0.36144 0.32527 0.0
C642 C 0.45049 0.45258 0.09932 0.0
C643 C 0.44091 0.43842 0.12582 0.0
C644 C 0.4545 0.42755 0.21322 0.0
C645 C 0.42054 0.37542 0.26746 0.0
C646 C 0.4299 0.39015 0.23839 0.0
C647 C 0.4587 0.43205 0.15523 0.0
C648 C 0.44848 0.41777 0.18366 0.0
H649 H 0.367 0.33813 0.28964 0.0
H650 H 0.3818 0.36246 0.24228 0.0
H651 H 0.44967 0.4226 0.26236 0.0
H652 H 0.51744 0.45911 0.13357 0.0
H653 H 0.50054 0.43488 0.17985 0.0
C654 C 0.1595 0.93872 0.85298 0.0
C655 C 0.15604 0.91228 0.86835 0.0
C656 C 0.1446 0.94782 0.82252 0.0
C657 C 0.11237 0.9235 0.74947 0.0
H658 H 0.07092 0.99165 0.73015 0.0
C659 C 0.07039 0.97478 0.62089 0.0
C660 C 0.04199 0.98069 0.61442 0.0
C661 C 0.08383 0.96684 0.65223 0.0
C662 C 0.0824 0.97257 0.73532 0.0
H663 H 0.13326 0.87513 0.86384 0.0
H664 H 0.10824 0.89073 0.81026 0.0
H665 H 0.09542 0.97697 0.78479 0.0
H666 H 0.00567 0.98435 0.63622 0.0
H667 H 0.02953 0.97145 0.69126 0.0
H668 H 0.09986 0.91933 0.69994 0.0
C669 C 0.12255 0.9043 0.82192 0.0
C670 C 0.09648 0.96428 0.7664 0.0
C671 C 0.13707 0.89534 0.85254 0.0
C672 C 0.02754 0.9797 0.64027 0.0
C673 C 0.04114 0.97236 0.67177 0.0
C674 C 0.09876 0.93203 0.71831 0.0
C675 C 0.12625 0.93056 0.80661 0.0
C676 C 0.11147 0.93961 0.77375 0.0
C677 C 0.06932 0.96549 0.67792 0.0
C678 C 0.08359 0.95658 0.711 0.0
H679 H 0.17417 0.95224 0.86411 0.0
H680 H 0.14795 0.96811 0.81104 0.0
H681 H 0.12393 0.90447 0.75452 0.0
H682 H 0.08234 0.97644 0.60181 0.0
H683 H 0.10569 0.96206 0.65643 0.0
loop_
_geom_bond_atom_site_label_1
_geom_bond_atom_site_label_2
_geom_bond_distance
_geom_bond_site_symmetry_2
_ccdc_geom_bond_type
C0 C1 1.386 . S
C0 C2 1.397 . S
C0 H24 0.931 . S
C1 C0 1.386 . S
C1 C5 1.397 . S
C2 C0 1.397 . S
C2 C3 1.384 . S
C2 H25 0.930 . S
C3 C2 1.384 . S
C3 C4 1.377 . S
C3 C6 1.481 . S
C4 C3 1.377 . S
C4 C5 1.389 . S
C4 H26 0.929 . S
C5 C1 1.397 . S
C5 C4 1.389 . S
C5 H27 0.931 . S
C6 C3 1.481 . S
C6 C7 1.387 . S
C6 C11 1.390 1_556 S
C7 C6 1.387 . S
C7 C8 1.401 1_556 S
C7 H28 0.930 . S
C8 C7 1.401 1_554 S
C8 C9 1.376 . S
C8 C17 1.511 . S
C9 C8 1.376 . S
C9 C10 1.392 . S
C9 H30 0.931 . S
C10 C9 1.392 . S
C10 C11 1.361 . S
C10 C12 1.500 . S
C11 C6 1.390 1_554 S
C11 C10 1.361 . S
C11 H29 0.931 . S
C12 C10 1.500 . S
C12 C13 1.371 . S
C12 C14 1.365 . S
C13 C12 1.371 . S
C13 C23 1.386 . S
C13 H31 0.931 . S
C14 C12 1.365 . S
C14 C15 1.409 . S
C14 H32 0.929 . S
C15 C14 1.409 . S
C15 C16 1.380 . S
C15 H33 0.930 . S
C16 C15 1.380 . S
C16 C23 1.357 . S
C17 C8 1.511 . S
C17 C18 1.341 . S
C17 C19 1.371 . S
C18 C17 1.341 . S
C18 C22 1.394 . S
C18 H34 0.930 1_554 S
C19 C17 1.371 . S
C19 C20 1.392 . S
C19 H35 0.931 . S
C20 C19 1.392 . S
C20 C21 1.331 . S
C20 H38 0.932 . S
C21 C20 1.331 . S
C21 C22 1.336 . S
C22 C18 1.394 . S
C22 C21 1.336 . S
C22 H37 0.929 1_554 S
C23 C13 1.386 . S
C23 C16 1.357 . S
C23 H36 0.928 . S
H24 C0 0.931 . S
H25 C2 0.930 . S
H26 C4 0.929 . S
H27 C5 0.931 . S
H28 C7 0.930 . S
H29 C11 0.931 . S
H30 C9 0.931 . S
H31 C13 0.931 . S
H32 C14 0.929 . S
H33 C15 0.930 . S
H34 C18 0.930 1_556 S
H35 C19 0.931 . S
H36 C23 0.928 . S
H37 C22 0.929 1_556 S
H38 C20 0.932 . S
C39 C40 1.386 . S
C39 C41 1.397 . S
C39 H63 0.931 . S
C40 C39 1.386 . S
C40 C44 1.397 . S
C41 C39 1.397 . S
C41 C42 1.384 . S
C41 H64 0.930 . S
C42 C41 1.384 . S
C42 C43 1.377 . S
C42 C45 1.481 . S
C43 C42 1.377 . S
C43 C44 1.389 . S
C43 H65 0.929 . S
C44 C40 1.397 . S
C44 C43 1.389 . S
C44 H66 0.931 . S
C45 C42 1.481 . S
C45 C46 1.387 . S
C45 C50 1.390 . S
C46 C45 1.387 . S
C46 C47 1.401 . S
C46 H67 0.930 . S
C47 C46 1.401 . S
C47 C48 1.376 . S
C47 C56 1.511 . S
C48 C47 1.376 . S
C48 C49 1.392 . S
C48 H69 0.931 . S
C49 C48 1.392 . S
C49 C50 1.361 . S
C49 C51 1.500 . S
C50 C45 1.390 . S
C50 C49 1.361 . S
C50 H68 0.931 . S
C51 C49 1.500 . S
C51 C52 1.371 . S
C51 C53 1.365 . S
C52 C51 1.371 . S
C52 C62 1.386 . S
C52 H70 0.931 . S
C53 C51 1.365 . S
C53 C54 1.409 . S
C53 H71 0.929 . S
C54 C53 1.409 . S
C54 C55 1.380 . S
C54 H72 0.930 . S
C55 C54 1.380 . S
C55 C62 1.357 . S
C56 C47 1.511 . S
C56 C57 1.341 . S
C56 C58 1.371 . S
C57 C56 1.341 . S
C57 C61 1.394 . S
C57 H73 0.930 . S
C58 C56 1.371 . S
C58 C59 1.392 . S
C58 H74 0.931 . S
C59 C58 1.392 . S
C59 C60 1.331 . S
C59 H77 0.932 . S
C60 C59 1.331 . S
C60 C61 1.336 . S
C61 C57 1.394 . S
C61 C60 1.336 . S
C61 H76 0.929 . S
C62 C52 1.386 . S
C62 C55 1.357 . S
C62 H75 0.928 . S
H63 C39 0.931 . S
H64 C41 0.930 . S
H65 C43 0.929 . S
H66 C44 0.931 . S
H67 C46 0.930 . S
H68 C50 0.931 . S
H69 C48 0.931 . S
H70 C52 0.931 . S
H71 C53 0.929 . S
H72 C54 0.930 . S
H73 C57 0.930 . S
H74 C58 0.931 . S
H75 C62 0.928 . S
H76 C61 0.929 . S
H77 C59 0.932 . S
C78 C79 1.386 . S
C78 C80 1.397 . S
C78 H102 0.931 . S
C79 C78 1.386 . S
C79 C83 1.397 . S
C80 C78 1.397 . S
C80 C81 1.384 . S
C80 H103 0.930 . S
C81 C80 1.384 . S
C81 C82 1.377 . S
C81 C84 1.481 . S
C82 C81 1.377 . S
C82 C83 1.389 . S
C82 H104 0.929 . S
C83 C79 1.397 . S
C83 C82 1.389 . S
C83 H105 0.931 . S
C84 C81 1.481 . S
C84 C85 1.387 . S
C84 C89 1.390 . S
C85 C84 1.387 . S
C85 C86 1.401 . S
C85 H106 0.930 . S
C86 C85 1.401 . S
C86 C87 1.376 1_554 S
C86 C95 1.511 . S
C87 C86 1.376 1_556 S
C87 C88 1.392 . S
C87 H108 0.931 . S
C88 C87 1.392 . S
C88 C89 1.361 1_556 S
C88 C90 1.500 . S
C89 C84 1.390 . S
C89 C88 1.361 1_554 S
C89 H107 0.931 . S
C90 C88 1.500 . S
C90 C91 1.371 . S
C90 C92 1.365 . S
C91 C90 1.371 . S
C91 C101 1.386 . S
C91 H109 0.931 . S
C92 C90 1.365 . S
C92 C93 1.409 . S
C92 H110 0.929 . S
C93 C92 1.409 . S
C93 C94 1.380 . S
C93 H111 0.930 . S
C94 C93 1.380 . S
C94 C101 1.357 . S
C95 C86 1.511 . S
C95 C96 1.341 . S
C95 C97 1.371 1_554 S
C96 C95 1.341 . S
C96 C100 1.394 . S
C96 H112 0.930 . S
C97 C95 1.371 1_556 S
C97 C98 1.392 . S
C97 H113 0.931 . S
C98 C97 1.392 . S
C98 C99 1.331 1_556 S
C98 H116 0.932 . S
C99 C98 1.331 1_554 S
C99 C100 1.336 . S
C100 C96 1.394 . S
C100 C99 1.336 . S
C100 H115 0.929 . S
C101 C91 1.386 . S
C101 C94 1.357 . S
C101 H114 0.928 . S
H102 C78 0.931 . S
H103 C80 0.930 . S
H104 C82 0.929 . S
H105 C83 0.931 . S
H106 C85 0.930 . S
H107 C89 0.931 . S
H108 C87 0.931 . S
H109 C91 0.931 . S
H110 C92 0.929 . S
H111 C93 0.930 . S
H112 C96 0.930 . S
H113 C97 0.931 . S
H114 C101 0.928 . S
H115 C100 0.929 . S
H116 C98 0.932 . S
C117 C118 1.386 . S
C117 C119 1.397 . S
C117 H141 0.931 . S
C118 C117 1.386 . S
C118 C122 1.397 . S
C119 C117 1.397 . S
C119 C120 1.384 . S
C119 H142 0.930 . S
C120 C119 1.384 . S
C120 C121 1.377 . S
C120 C123 1.481 . S
C121 C120 1.377 . S
C121 C122 1.389 . S
C121 H143 0.929 . S
C122 C118 1.397 . S
C122 C121 1.389 . S
C122 H144 0.931 . S
C123 C120 1.481 . S
C123 C124 1.387 . S
C123 C128 1.390 . S
C124 C123 1.387 . S
C124 C125 1.401 . S
C124 H145 0.930 . S
C125 C124 1.401 . S
C125 C126 1.376 . S
C125 C134 1.511 . S
C126 C125 1.376 . S
C126 C127 1.392 . S
C126 H147 0.931 . S
C127 C126 1.392 . S
C127 C128 1.361 . S
C127 C129 1.500 . S
C128 C123 1.390 . S
C128 C127 1.361 . S
C128 H146 0.931 . S
C129 C127 1.500 . S
C129 C130 1.371 . S
C129 C131 1.365 . S
C130 C129 1.371 . S
C130 C140 1.386 . S
C130 H148 0.931 . S
C131 C129 1.365 . S
C131 C132 1.409 . S
C131 H149 0.929 . S
C132 C131 1.409 . S
C132 C133 1.380 . S
C132 H150 0.930 . S
C133 C132 1.380 . S
C133 C140 1.357 . S
C134 C125 1.511 . S
C134 C135 1.341 . S
C134 C136 1.371 . S
C135 C134 1.341 . S
C135 C139 1.394 . S
C135 H151 0.930 . S
C136 C134 1.371 . S
C136 C137 1.392 . S
C136 H152 0.931 . S
C137 C136 1.392 . S
C137 C138 1.331 . S
C137 H155 0.932 . S
C138 C137 1.331 . S
C138 C139 1.336 . S
C139 C135 1.394 . S
C139 C138 1.336 . S
C139 H154 0.929 . S
C140 C130 1.386 . S
C140 C133 1.357 . S
C140 H153 0.928 . S
H141 C117 0.931 . S
H142 C119 0.930 . S
H143 C121 0.929 . S
H144 C122 0.931 . S
H145 C124 0.930 . S
H146 C128 0.931 . S
H147 C126 0.931 . S
H148 C130 0.931 . S
H149 C131 0.929 . S
H150 C132 0.930 . S
H151 C135 0.930 . S
H152 C136 0.931 . S
H153 C140 0.928 . S
H154 C139 0.929 . S
H155 C137 0.932 . S
C156 C158 1.422 . S
C156 C160 1.415 . S
C156 N162 1.369 . S
C157 C158 1.421 . S
C157 C159 1.417 . S
C157 C169 1.422 . S
C158 C156 1.422 . S
C158 C157 1.421 . S
C158 N168 1.359 . S
C159 C157 1.417 . S
C159 C161 1.329 . S
C159 H178 0.930 . S
C160 C156 1.415 . S
C160 C161 1.437 . S
C160 C164 1.413 . S
C161 C159 1.329 . S
C161 C160 1.437 . S
C161 H183 0.929 . S
N162 C156 1.369 . S
N162 C163 1.338 1_655 S
N162 Gd167 2.622 . S
C163 N162 1.338 1_455 S
C163 C165 1.378 . S
C163 H175 0.929 . S
C164 C160 1.413 . S
C164 C165 1.345 1_655 S
C164 H180 0.931 . S
C165 C163 1.378 . S
C165 C164 1.345 1_455 S
C165 H181 0.933 . S
Gd166 N186 2.622 . S
Gd166 N193 2.570 . S
Gd166 O200 2.353 1_455 S
Gd166 O201 2.468 . S
Gd166 O202 2.427 . S
Gd166 O204 2.388 1_455 S
Gd166 O205 2.386 . S
Gd166 O209 2.307 1_565 S
Gd166 C219 2.805 . S
Gd167 N162 2.622 . S
Gd167 N168 2.570 . S
Gd167 O199 2.386 . S
Gd167 O203 2.307 1_545 S
Gd167 O206 2.353 1_655 S
Gd167 O207 2.468 . S
Gd167 O208 2.427 . S
Gd167 O210 2.388 1_655 S
Gd167 C231 2.805 . S
N168 C158 1.359 . S
N168 Gd167 2.570 . S
N168 C170 1.343 . S
C169 C157 1.422 . S
C169 C171 1.321 . S
C169 H177 0.931 . S
C170 N168 1.343 . S
C170 C171 1.390 . S
C170 H172 0.931 . S
C171 C169 1.321 . S
C171 C170 1.390 . S
C171 H173 0.930 . S
H172 C170 0.931 . S
H173 C171 0.930 . S
H174 C197 0.931 . S
H175 C163 0.929 . S
H176 C198 0.930 . S
H177 C169 0.931 . S
H178 C159 0.930 . S
H179 C188 0.929 1_655 S
H180 C164 0.931 . S
H181 C165 0.933 . S
H182 C220 0.930 . S
H183 C161 0.929 . S
H184 C189 0.931 . S
H185 C190 0.930 1_655 S
N186 Gd166 2.622 . S
N186 C187 1.369 . S
N186 C188 1.338 . S
C187 N186 1.369 . S
C187 C191 1.415 . S
C187 C194 1.422 . S
C188 H179 0.929 1_455 S
C188 N186 1.338 . S
C188 C190 1.378 . S
C189 H184 0.931 . S
C189 C190 1.348 . S
C189 C191 1.413 . S
C190 H185 0.930 1_455 S
C190 C188 1.378 . S
C190 C189 1.348 . S
C191 C187 1.415 . S
C191 C189 1.413 . S
C191 C221 1.437 . S
H192 C221 0.929 . S
N193 Gd166 2.570 . S
N193 C194 1.359 . S
N193 C197 1.343 . S
C194 C187 1.422 . S
C194 N193 1.359 . S
C194 C196 1.421 . S
C195 C196 1.422 . S
C195 C198 1.321 . S
C195 H222 0.931 . S
C196 C194 1.421 . S
C196 C195 1.422 . S
C196 C220 1.417 . S
C197 H174 0.931 . S
C197 N193 1.343 . S
C197 C198 1.390 . S
C198 H176 0.930 . S
C198 C195 1.321 . S
C198 C197 1.390 . S
O199 Gd167 2.386 . S
O199 C211 1.265 . S
O200 Gd166 2.353 1_655 S
O200 C211 1.242 1_565 S
O201 Gd166 2.468 . S
O201 C219 1.263 . S
O202 Gd166 2.427 . S
O202 C219 1.252 . S
O203 Gd167 2.307 1_565 S
O203 C212 1.261 . S
O204 Gd166 2.388 1_655 S
O204 C212 1.252 . S
O205 Gd166 2.386 . S
O205 C223 1.265 . S
O206 Gd167 2.353 1_455 S
O206 C223 1.242 1_545 S
O207 Gd167 2.468 . S
O207 C231 1.263 . S
O208 Gd167 2.427 . S
O208 C231 1.252 . S
O209 Gd166 2.307 1_545 S
O209 C224 1.261 . S
O210 Gd167 2.388 1_455 S
O210 C224 1.252 . S
C211 O199 1.265 . S
C211 O200 1.242 1_545 S
C212 O203 1.261 . S
C212 O204 1.252 . S
C213 C216 1.394 . S
C213 C218 1.370 . S
C213 C219 1.500 . S
C214 C217 1.383 . S
C214 C218 1.395 . S
C215 C216 1.396 . S
C215 C217 1.365 . S
C215 H232 0.929 . S
C216 C213 1.394 . S
C216 C215 1.396 . S
C216 H233 0.930 . S
C217 C214 1.383 . S
C217 C215 1.365 . S
C217 H234 0.931 . S
C218 C213 1.370 . S
C218 C214 1.395 . S
C218 H235 0.930 . S
C219 Gd166 2.805 . S
C219 O201 1.263 . S
C219 O202 1.252 . S
C219 C213 1.500 . S
C220 H182 0.930 . S
C220 C196 1.417 . S
C220 C221 1.329 . S
C221 C191 1.437 . S
C221 H192 0.929 . S
C221 C220 1.329 . S
H222 C195 0.931 . S
C223 O205 1.265 . S
C223 O206 1.242 1_565 S
C224 O209 1.261 . S
C224 O210 1.252 . S
C225 C228 1.394 . S
C225 C230 1.370 . S
C225 C231 1.500 . S
C226 C229 1.383 . S
C226 C230 1.395 . S
C227 C228 1.396 . S
C227 C229 1.365 . S
C227 H236 0.929 . S
C228 C225 1.394 . S
C228 C227 1.396 . S
C228 H237 0.930 . S
C229 C226 1.383 . S
C229 C227 1.365 . S
C229 H238 0.931 . S
C230 C225 1.370 . S
C230 C226 1.395 . S
C230 H239 0.930 . S
C231 Gd167 2.805 . S
C231 O207 1.263 . S
C231 O208 1.252 . S
C231 C225 1.500 . S
H232 C215 0.929 . S
H233 C216 0.930 . S
H234 C217 0.931 . S
H235 C218 0.930 . S
H236 C227 0.929 . S
H237 C228 0.930 . S
H238 C229 0.931 . S
H239 C230 0.930 . S
C240 C242 1.422 . S
C240 C244 1.415 . S
C240 N246 1.369 . S
C241 C242 1.421 . S
C241 C243 1.417 . S
C241 C253 1.422 . S
C242 C240 1.422 . S
C242 C241 1.421 . S
C242 N252 1.359 . S
C243 C241 1.417 . S
C243 C245 1.329 . S
C243 H262 0.930 . S
C244 C240 1.415 . S
C244 C245 1.437 . S
C244 C248 1.413 . S
C245 C243 1.329 . S
C245 C244 1.437 . S
C245 H267 0.929 . S
N246 C240 1.369 . S
N246 C247 1.338 . S
N246 Gd251 2.622 . S
C247 N246 1.338 . S
C247 C249 1.378 . S
C247 H259 0.929 . S
C248 C244 1.413 . S
C248 C249 1.348 . S
C248 H264 0.931 . S
C249 C247 1.378 . S
C249 C248 1.348 . S
C249 H265 0.930 . S
Gd250 N270 2.622 . S
Gd250 N277 2.570 1_556 S
Gd250 O284 2.353 . S
Gd250 O285 2.468 . S
Gd250 O286 2.427 . S
Gd250 O288 2.388 . S
Gd250 O289 2.386 1_556 S
Gd250 O293 2.307 1_556 S
Gd250 C303 2.805 . S
Gd251 N246 2.622 . S
Gd251 N252 2.570 . S
Gd251 O283 2.386 1_554 S
Gd251 O287 2.307 . S
Gd251 O290 2.353 . S
Gd251 O291 2.468 . S
Gd251 O292 2.427 . S
Gd251 O294 2.388 . S
Gd251 C315 2.805 . S
N252 C242 1.359 . S
N252 Gd251 2.570 . S
N252 C254 1.343 . S
C253 C241 1.422 . S
C253 C255 1.321 . S
C253 H261 0.931 . S
C254 N252 1.343 . S
C254 C255 1.390 . S
C254 H256 0.931 . S
C255 C253 1.321 . S
C255 C254 1.390 . S
C255 H257 0.930 . S
H256 C254 0.931 . S
H257 C255 0.930 . S
H258 C281 0.931 . S
H259 C247 0.929 . S
H260 C282 0.930 . S
H261 C253 0.931 . S
H262 C243 0.930 . S
H263 C272 0.929 . S
H264 C248 0.931 . S
H265 C249 0.930 . S
H266 C304 0.930 . S
H267 C245 0.929 . S
H268 C273 0.931 . S
H269 C274 0.930 . S
N270 Gd250 2.622 . S
N270 C271 1.369 1_556 S
N270 C272 1.338 . S
C271 N270 1.369 1_554 S
C271 C275 1.415 . S
C271 C278 1.422 . S
C272 H263 0.929 . S
C272 N270 1.338 . S
C272 C274 1.378 . S
C273 H268 0.931 . S
C273 C274 1.348 1_554 S
C273 C275 1.413 . S
C274 H269 0.930 . S
C274 C272 1.378 . S
C274 C273 1.348 1_556 S
C275 C271 1.415 . S
C275 C273 1.413 . S
C275 C305 1.437 . S
H276 C305 0.929 . S
N277 Gd250 2.570 1_554 S
N277 C278 1.359 . S
N277 C281 1.343 . S
C278 C271 1.422 . S
C278 N277 1.359 . S
C278 C280 1.421 . S
C279 C280 1.422 . S
C279 C282 1.321 . S
C279 H306 0.931 . S
C280 C278 1.421 . S
C280 C279 1.422 . S
C280 C304 1.417 . S
C281 H258 0.931 . S
C281 N277 1.343 . S
C281 C282 1.390 . S
C282 H260 0.930 . S
C282 C279 1.321 . S
C282 C281 1.390 . S
O283 Gd251 2.386 1_556 S
O283 C295 1.265 . S
O284 Gd250 2.353 . S
O284 C295 1.242 . S
O285 Gd250 2.468 . S
O285 C303 1.263 . S
O286 Gd250 2.427 . S
O286 C303 1.252 . S
O287 Gd251 2.307 . S
O287 C296 1.261 . S
O288 Gd250 2.388 . S
O288 C296 1.252 1_556 S
O289 Gd250 2.386 1_554 S
O289 C307 1.265 . S
O290 Gd251 2.353 . S
O290 C307 1.242 . S
O291 Gd251 2.468 . S
O291 C315 1.263 . S
O292 Gd251 2.427 . S
O292 C315 1.252 . S
O293 Gd250 2.307 1_554 S
O293 C308 1.261 . S
O294 Gd251 2.388 . S
O294 C308 1.252 . S
C295 O283 1.265 . S
C295 O284 1.242 . S
C296 O287 1.261 . S
C296 O288 1.252 1_554 S
C297 C300 1.394 . S
C297 C302 1.370 . S
C297 C303 1.500 . S
C298 C301 1.383 . S
C298 C302 1.395 . S
C299 C300 1.396 . S
C299 C301 1.365 . S
C299 H316 0.929 . S
C300 C297 1.394 . S
C300 C299 1.396 . S
C300 H317 0.930 . S
C301 C298 1.383 . S
C301 C299 1.365 . S
C301 H318 0.931 . S
C302 C297 1.370 . S
C302 C298 1.395 . S
C302 H319 0.930 . S
C303 Gd250 2.805 . S
C303 O285 1.263 . S
C303 O286 1.252 . S
C303 C297 1.500 . S
C304 H266 0.930 . S
C304 C280 1.417 . S
C304 C305 1.329 . S
C305 C275 1.437 . S
C305 H276 0.929 . S
C305 C304 1.329 . S
H306 C279 0.931 . S
C307 O289 1.265 . S
C307 O290 1.242 . S
C308 O293 1.261 . S
C308 O294 1.252 . S
C309 C312 1.394 . S
C309 C314 1.370 . S
C309 C315 1.500 . S
C310 C313 1.383 . S
C310 C314 1.395 . S
C311 C312 1.396 . S
C311 C313 1.365 . S
C311 H320 0.929 . S
C312 C309 1.394 . S
C312 C311 1.396 . S
C312 H321 0.930 . S
C313 C310 1.383 . S
C313 C311 1.365 . S
C313 H322 0.931 . S
C314 C309 1.370 . S
C314 C310 1.395 . S
C314 H323 0.930 . S
C315 Gd251 2.805 . S
C315 O291 1.263 . S
C315 O292 1.252 . S
C315 C309 1.500 . S
H316 C299 0.929 . S
H317 C300 0.930 . S
H318 C301 0.931 . S
H319 C302 0.930 . S
H320 C311 0.929 . S
H321 C312 0.930 . S
H322 C313 0.931 . S
H323 C314 0.930 . S
C324 C325 1.349 . S
C324 C326 1.327 . S
C324 H349 0.950 . S
C325 C324 1.349 . S
C325 C341 1.349 . S
C326 C324 1.327 . S
C326 C345 1.429 . S
C326 H350 0.950 . S
C327 C344 1.574 . S
C327 C346 1.368 . S
C327 H351 0.949 . S
H328 C332 0.949 . S
C329 C330 1.349 . S
C329 C331 1.327 . S
C329 H352 0.950 . S
C330 C329 1.349 . S
C330 C342 1.349 . S
C331 C329 1.327 . S
C331 C347 1.429 . S
C331 H353 0.950 . S
C332 H328 0.949 . S
C332 C340 1.574 . S
C332 C348 1.368 . S
H333 C341 0.950 . S
H334 C339 0.950 . S
H335 C340 0.949 . S
H336 C342 0.950 . S
H337 C343 0.950 . S
H338 C344 0.949 . S
C339 H334 0.950 . S
C339 C341 1.327 . S
C339 C345 1.429 . S
C340 C332 1.574 . S
C340 H335 0.949 . S
C340 C346 1.368 . S
C341 C325 1.349 . S
C341 H333 0.950 . S
C341 C339 1.327 . S
C342 C330 1.349 . S
C342 H336 0.950 . S
C342 C343 1.327 . S
C343 H337 0.950 . S
C343 C342 1.327 . S
C343 C347 1.429 . S
C344 C327 1.574 . S
C344 H338 0.949 . S
C344 C348 1.368 . S
C345 C326 1.429 . S
C345 C339 1.429 . S
C345 C346 1.523 . S
C346 C327 1.368 . S
C346 C340 1.368 . S
C346 C345 1.523 . S
C347 C331 1.429 . S
C347 C343 1.429 . S
C347 C348 1.523 . S
C348 C332 1.368 . S
C348 C344 1.368 . S
C348 C347 1.523 . S
H349 C324 0.950 . S
H350 C326 0.950 . S
H351 C327 0.949 . S
H352 C329 0.950 . S
H353 C331 0.950 . S
C354 C355 1.349 . S
C354 C356 1.327 . S
C354 H379 0.950 1_554 S
C355 C354 1.349 . S
C355 C371 1.349 . S
C356 C354 1.327 . S
C356 C375 1.429 . S
C356 H380 0.950 1_554 S
C357 C374 1.574 . S
C357 C376 1.368 . S
C357 H381 0.949 . S
H358 C362 0.949 1_556 S
C359 C360 1.349 . S
C359 C361 1.327 . S
C359 H382 0.950 . S
C360 C359 1.349 . S
C360 C372 1.359 . S
C361 C359 1.327 . S
C361 C377 1.429 . S
C361 H383 0.950 . S
C362 H358 0.949 1_554 S
C362 C370 1.574 . S
C362 C378 1.368 . S
H363 C371 0.950 . S
H364 C369 0.950 . S
H365 C370 0.949 1_556 S
H366 C372 0.935 1_556 S
H367 C373 0.950 1_556 S
H368 C374 0.949 . S
C369 H364 0.950 . S
C369 C371 1.327 . S
C369 C375 1.429 . S
C370 C362 1.574 . S
C370 H365 0.949 1_554 S
C370 C376 1.368 . S
C371 C355 1.349 . S
C371 H363 0.950 . S
C371 C369 1.327 . S
C372 C360 1.359 . S
C372 H366 0.935 1_554 S
C372 C373 1.331 . S
C373 H367 0.950 1_554 S
C373 C372 1.331 . S
C373 C377 1.429 . S
C374 C357 1.574 . S
C374 H368 0.949 . S
C374 C378 1.368 . S
C375 C356 1.429 . S
C375 C369 1.429 . S
C375 C376 1.523 . S
C376 C357 1.368 . S
C376 C370 1.368 . S
C376 C375 1.523 . S
C377 C361 1.429 . S
C377 C373 1.429 . S
C377 C378 1.523 . S
C378 C362 1.368 . S
C378 C374 1.368 . S
C378 C377 1.523 . S
H379 C354 0.950 1_556 S
H380 C356 0.950 1_556 S
H381 C357 0.949 . S
H382 C359 0.950 . S
H383 C361 0.950 . S
C384 C385 1.349 . S
C384 C386 1.327 . S
C384 H409 0.950 . S
C385 C384 1.349 . S
C385 C401 1.349 . S
C386 C384 1.327 . S
C386 C405 1.429 . S
C386 H410 0.950 . S
C387 C404 1.574 . S
C387 C406 1.368 . S
C387 H411 0.949 . S
H388 C392 0.949 . S
C389 C390 1.349 . S
C389 C391 1.327 . S
C389 H412 0.950 . S
C390 C389 1.349 . S
C390 C402 1.349 . S
C391 C389 1.327 . S
C391 C407 1.429 . S
C391 H413 0.950 . S
C392 H388 0.949 . S
C392 C400 1.574 . S
C392 C408 1.368 . S
H393 C401 0.950 . S
H394 C399 0.950 . S
H395 C400 0.949 . S
H396 C402 0.950 . S
H397 C403 0.950 . S
H398 C404 0.949 . S
C399 H394 0.950 . S
C399 C401 1.327 . S
C399 C405 1.429 . S
C400 C392 1.574 . S
C400 H395 0.949 . S
C400 C406 1.368 . S
C401 C385 1.349 . S
C401 H393 0.950 . S
C401 C399 1.327 . S
C402 C390 1.349 . S
C402 H396 0.950 . S
C402 C403 1.327 . S
C403 H397 0.950 . S
C403 C402 1.327 . S
C403 C407 1.429 . S
C404 C387 1.574 . S
C404 H398 0.949 . S
C404 C408 1.368 . S
C405 C386 1.429 . S
C405 C399 1.429 . S
C405 C406 1.523 . S
C406 C387 1.368 . S
C406 C400 1.368 . S
C406 C405 1.523 . S
C407 C391 1.429 . S
C407 C403 1.429 . S
C407 C408 1.523 . S
C408 C392 1.368 . S
C408 C404 1.368 . S
C408 C407 1.523 . S
H409 C384 0.950 . S
H410 C386 0.950 . S
H411 C387 0.949 . S
H412 C389 0.950 . S
H413 C391 0.950 . S
C414 C415 1.349 1_556 S
C414 C416 1.327 . S
C414 H439 0.950 . S
C415 C414 1.349 1_554 S
C415 C431 1.349 . S
C416 C414 1.327 . S
C416 C435 1.429 1_556 S
C416 H440 0.950 . S
C417 C434 1.574 . S
C417 C436 1.368 . S
C417 H441 0.949 . S
H418 C422 0.949 . S
C419 C420 1.349 . S
C419 C421 1.327 . S
C419 H442 0.950 . S
C420 C419 1.349 . S
C420 C432 1.349 1_554 S
C421 C419 1.327 . S
C421 C437 1.429 . S
C421 H443 0.950 . S
C422 H418 0.949 . S
C422 C430 1.574 . S
C422 C438 1.368 1_556 S
H423 C431 0.950 . S
H424 C429 0.950 . S
H425 C430 0.949 . S
H426 C432 0.950 . S
H427 C433 0.950 . S
H428 C434 0.949 . S
C429 H424 0.950 . S
C429 C431 1.327 . S
C429 C435 1.429 . S
C430 C422 1.574 . S
C430 H425 0.949 . S
C430 C436 1.368 1_556 S
C431 C415 1.349 . S
C431 H423 0.950 . S
C431 C429 1.327 . S
C432 C420 1.349 1_556 S
C432 H426 0.950 . S
C432 C433 1.327 . S
C433 H427 0.950 . S
C433 C432 1.327 . S
C433 C437 1.429 1_556 S
C434 C417 1.574 . S
C434 H428 0.949 . S
C434 C438 1.368 . S
C435 C416 1.429 1_554 S
C435 C429 1.429 . S
C435 C436 1.523 . S
C436 C417 1.368 . S
C436 C430 1.368 1_554 S
C436 C435 1.523 . S
C437 C421 1.429 . S
C437 C433 1.429 1_554 S
C437 C438 1.523 . S
C438 C422 1.368 1_554 S
C438 C434 1.368 . S
C438 C437 1.523 . S
H439 C414 0.950 . S
H440 C416 0.950 . S
H441 C417 0.949 . S
H442 C419 0.950 . S
H443 C421 0.950 . S
C444 C445 1.349 . S
C444 C446 1.327 . S
C444 H469 0.950 . S
C445 C444 1.349 . S
C445 C461 1.349 . S
C446 C444 1.327 . S
C446 C465 1.429 . S
C446 H470 0.950 . S
C447 C464 1.574 . S
C447 C466 1.368 . S
C447 H471 0.949 . S
H448 C452 0.949 . S
C449 C450 1.349 . S
C449 C451 1.327 . S
C449 H472 0.980 . S
C450 C449 1.349 . S
C450 C462 1.349 . S
C451 C449 1.327 . S
C451 C467 1.429 . S
C451 H473 0.950 . S
C452 H448 0.949 . S
C452 C460 1.574 . S
C452 C468 1.368 . S
H453 C461 0.950 . S
H454 C459 0.950 . S
H455 C460 0.949 . S
H456 C462 0.950 . S
H457 C463 0.950 . S
H458 C464 0.949 . S
C459 H454 0.950 . S
C459 C461 1.327 . S
C459 C465 1.429 . S
C460 C452 1.574 . S
C460 H455 0.949 . S
C460 C466 1.368 . S
C461 C445 1.349 . S
C461 H453 0.950 . S
C461 C459 1.327 . S
C462 C450 1.349 . S
C462 H456 0.950 . S
C462 C463 1.327 . S
C463 H457 0.950 . S
C463 C462 1.327 . S
C463 C467 1.429 . S
C464 C447 1.574 . S
C464 H458 0.949 . S
C464 C468 1.368 . S
C465 C446 1.429 . S
C465 C459 1.429 . S
C465 C466 1.523 . S
C466 C447 1.368 . S
C466 C460 1.368 . S
C466 C465 1.523 . S
C467 C451 1.429 . S
C467 C463 1.429 . S
C467 C468 1.523 . S
C468 C452 1.368 . S
C468 C464 1.368 . S
C468 C467 1.523 . S
H469 C444 0.950 . S
H470 C446 0.950 . S
H471 C447 0.949 . S
H472 C449 0.980 . S
H473 C451 0.950 . S
C474 C475 1.349 . S
C474 C476 1.327 . S
C474 H499 0.950 . S
C475 C474 1.349 . S
C475 C491 1.349 . S
C476 C474 1.327 . S
C476 C495 1.429 . S
C476 H500 0.950 . S
C477 C494 1.574 . S
C477 C496 1.368 . S
C477 H501 0.949 . S
H478 C482 0.949 . S
C479 C480 1.349 . S
C479 C481 1.327 . S
C479 H502 0.950 . S
C480 C479 1.349 . S
C480 C492 1.349 . S
C481 C479 1.327 . S
C481 C497 1.429 . S
C481 H503 0.950 . S
C482 H478 0.949 . S
C482 C490 1.574 . S
C482 C498 1.368 . S
H483 C491 0.950 . S
H484 C489 0.950 . S
H485 C490 0.949 . S
H486 C492 0.950 . S
H487 C493 0.950 . S
H488 C494 0.949 . S
C489 H484 0.950 . S
C489 C491 1.327 . S
C489 C495 1.429 . S
C490 C482 1.574 . S
C490 H485 0.949 . S
C490 C496 1.368 . S
C491 C475 1.349 . S
C491 H483 0.950 . S
C491 C489 1.327 . S
C492 C480 1.349 . S
C492 H486 0.950 . S
C492 C493 1.327 . S
C493 H487 0.950 . S
C493 C492 1.327 . S
C493 C497 1.429 . S
C494 C477 1.574 . S
C494 H488 0.949 . S
C494 C498 1.368 . S
C495 C476 1.429 . S
C495 C489 1.429 . S
C495 C496 1.523 . S
C496 C477 1.368 . S
C496 C490 1.368 . S
C496 C495 1.523 . S
C497 C481 1.429 . S
C497 C493 1.429 . S
C497 C498 1.523 . S
C498 C482 1.368 . S
C498 C494 1.368 . S
C498 C497 1.523 . S
H499 C474 0.950 . S
H500 C476 0.950 . S
H501 C477 0.949 . S
H502 C479 0.950 . S
H503 C481 0.950 . S
C504 C505 1.349 . S
C504 C506 1.327 . S
C504 H529 0.950 . S
C505 C504 1.349 . S
C505 C521 1.349 . S
C506 C504 1.327 . S
C506 C525 1.429 . S
C506 H530 0.950 . S
C507 C524 1.574 . S
C507 C526 1.368 . S
C507 H531 0.949 . S
H508 C512 0.949 . S
C509 C510 1.349 . S
C509 C511 1.327 . S
C509 H532 0.950 . S
C510 C509 1.349 . S
C510 C522 1.349 . S
C511 C509 1.327 . S
C511 C527 1.429 . S
C511 H533 0.950 . S
C512 H508 0.949 . S
C512 C520 1.574 . S
C512 C528 1.368 . S
H513 C521 0.950 . S
H514 C519 0.950 . S
H515 C520 0.949 . S
H516 C522 0.950 1_565 S
H517 C523 0.950 . S
H518 C524 0.949 . S
C519 H514 0.950 . S
C519 C521 1.327 . S
C519 C525 1.429 . S
C520 C512 1.574 . S
C520 H515 0.949 . S
C520 C526 1.368 . S
C521 C505 1.349 . S
C521 H513 0.950 . S
C521 C519 1.327 . S
C522 C510 1.349 . S
C522 H516 0.950 1_545 S
C522 C523 1.327 . S
C523 H517 0.950 . S
C523 C522 1.327 . S
C523 C527 1.429 . S
C524 C507 1.574 . S
C524 H518 0.949 . S
C524 C528 1.368 . S
C525 C506 1.429 . S
C525 C519 1.429 . S
C525 C526 1.523 . S
C526 C507 1.368 . S
C526 C520 1.368 . S
C526 C525 1.523 . S
C527 C511 1.429 . S
C527 C523 1.429 . S
C527 C528 1.523 . S
C528 C512 1.368 . S
C528 C524 1.368 . S
C528 C527 1.523 . S
H529 C504 0.950 . S
H530 C506 0.950 . S
H531 C507 0.949 . S
H532 C509 0.950 . S
H533 C511 0.950 . S
C534 C535 1.349 . S
C534 C536 1.327 . S
C534 H559 0.950 . S
C535 C534 1.349 . S
C535 C551 1.349 . S
C536 C534 1.327 . S
C536 C555 1.429 . S
C536 H560 0.950 . S
C537 C554 1.574 . S
C537 C556 1.368 . S
C537 H561 0.949 . S
H538 C542 0.949 . S
C539 C540 1.349 . S
C539 C541 1.327 . S
C539 H562 0.950 . S
C540 C539 1.349 . S
C540 C552 1.349 . S
C541 C539 1.327 . S
C541 C557 1.429 . S
C541 H563 0.950 . S
C542 H538 0.949 . S
C542 C550 1.574 . S
C542 C558 1.368 . S
H543 C551 0.950 . S
H544 C549 0.950 . S
H545 C550 0.949 . S
H546 C552 0.950 . S
H547 C553 0.950 . S
H548 C554 0.949 . S
C549 H544 0.950 . S
C549 C551 1.327 . S
C549 C555 1.429 . S
C550 C542 1.574 . S
C550 H545 0.949 . S
C550 C556 1.368 . S
C551 C535 1.349 . S
C551 H543 0.950 . S
C551 C549 1.327 . S
C552 C540 1.349 . S
C552 H546 0.950 . S
C552 C553 1.327 . S
C553 H547 0.950 . S
C553 C552 1.327 . S
C553 C557 1.429 . S
C554 C537 1.574 . S
C554 H548 0.949 . S
C554 C558 1.368 . S
C555 C536 1.429 . S
C555 C549 1.429 . S
C555 C556 1.523 . S
C556 C537 1.368 . S
C556 C550 1.368 . S
C556 C555 1.523 . S
C557 C541 1.429 . S
C557 C553 1.429 . S
C557 C558 1.523 . S
C558 C542 1.368 . S
C558 C554 1.368 . S
C558 C557 1.523 . S
H559 C534 0.950 . S
H560 C536 0.950 . S
H561 C537 0.949 . S
H562 C539 0.950 . S
H563 C541 0.950 . S
C564 C565 1.349 . S
C564 C566 1.327 . S
C564 H589 0.950 . S
C565 C564 1.349 . S
C565 C581 1.349 . S
C566 C564 1.327 . S
C566 C585 1.429 . S
C566 H590 0.950 . S
C567 C584 1.574 . S
C567 C586 1.368 . S
C567 H591 0.949 . S
H568 C572 0.949 . S
C569 C570 1.349 . S
C569 C571 1.327 . S
C569 H592 0.950 . S
C570 C569 1.349 . S
C570 C582 1.349 . S
C571 C569 1.327 . S
C571 C587 1.429 . S
C571 H593 0.950 . S
C572 H568 0.949 . S
C572 C580 1.574 . S
C572 C588 1.368 . S
H573 C581 0.950 . S
H574 C579 0.950 . S
H575 C580 0.949 . S
H576 C582 0.950 . S
H577 C583 0.950 . S
H578 C584 0.949 . S
C579 H574 0.950 . S
C579 C581 1.327 . S
C579 C585 1.429 . S
C580 C572 1.574 . S
C580 H575 0.949 . S
C580 C586 1.368 . S
C581 C565 1.349 . S
C581 H573 0.950 . S
C581 C579 1.327 . S
C582 C570 1.349 . S
C582 H576 0.950 . S
C582 C583 1.327 . S
C583 H577 0.950 . S
C583 C582 1.327 . S
C583 C587 1.429 . S
C584 C567 1.574 . S
C584 H578 0.949 . S
C584 C588 1.368 . S
C585 C566 1.429 . S
C585 C579 1.429 . S
C585 C586 1.523 . S
C586 C567 1.368 . S
C586 C580 1.368 . S
C586 C585 1.523 . S
C587 C571 1.429 . S
C587 C583 1.429 . S
C587 C588 1.523 . S
C588 C572 1.368 . S
C588 C584 1.368 . S
C588 C587 1.523 . S
H589 C564 0.950 . S
H590 C566 0.950 . S
H591 C567 0.949 . S
H592 C569 0.950 . S
H593 C571 0.950 . S
C594 C595 1.349 . S
C594 C596 1.327 . S
C594 H619 0.950 . S
C595 C594 1.349 . S
C595 C611 1.349 . S
C596 C594 1.327 . S
C596 C615 1.429 . S
C596 H620 0.950 . S
C597 C614 1.574 . S
C597 C616 1.368 . S
C597 H621 0.949 . S
H598 C602 0.949 . S
C599 C600 1.349 . S
C599 C601 1.327 . S
C599 H622 0.950 . S
C600 C599 1.349 . S
C600 C612 1.349 . S
C601 C599 1.327 . S
C601 C617 1.429 . S
C601 H623 0.950 . S
C602 H598 0.949 . S
C602 C610 1.574 . S
C602 C618 1.368 . S
H603 C611 0.950 . S
H604 C609 0.950 . S
H605 C610 0.949 . S
H606 C612 0.950 . S
H607 C613 0.950 . S
H608 C614 0.949 . S
C609 H604 0.950 . S
C609 C611 1.327 . S
C609 C615 1.429 . S
C610 C602 1.574 . S
C610 H605 0.949 . S
C610 C616 1.368 . S
C611 C595 1.349 . S
C611 H603 0.950 . S
C611 C609 1.327 . S
C612 C600 1.349 . S
C612 H606 0.950 . S
C612 C613 1.327 . S
C613 H607 0.950 . S
C613 C612 1.327 . S
C613 C617 1.429 . S
C614 C597 1.574 . S
C614 H608 0.949 . S
C614 C618 1.368 . S
C615 C596 1.429 . S
C615 C609 1.429 . S
C615 C616 1.523 . S
C616 C597 1.368 . S
C616 C610 1.368 . S
C616 C615 1.523 . S
C617 C601 1.429 . S
C617 C613 1.429 . S
C617 C618 1.523 . S
C618 C602 1.368 . S
C618 C614 1.368 . S
C618 C617 1.523 . S
H619 C594 0.950 . S
H620 C596 0.950 . S
H621 C597 0.949 . S
H622 C599 0.950 . S
H623 C601 0.950 . S
C624 C625 1.349 . S
C624 C626 1.327 . S
C624 H649 0.950 . S
C625 C624 1.349 . S
C625 C641 1.349 . S
C626 C624 1.327 . S
C626 C645 1.429 . S
C626 H650 0.950 . S
C627 C644 1.574 . S
C627 C646 1.368 . S
C627 H651 0.949 . S
H628 C632 0.949 . S
C629 C630 1.349 . S
C629 C631 1.327 . S
C629 H652 0.950 . S
C630 C629 1.349 . S
C630 C642 1.349 . S
C631 C629 1.327 . S
C631 C647 1.429 . S
C631 H653 0.950 . S
C632 H628 0.949 . S
C632 C640 1.574 . S
C632 C648 1.368 . S
H633 C641 0.950 . S
H634 C639 0.950 . S
H635 C640 0.949 . S
H636 C642 0.950 . S
H637 C643 0.950 . S
H638 C644 0.949 . S
C639 H634 0.950 . S
C639 C641 1.327 . S
C639 C645 1.429 . S
C640 C632 1.574 . S
C640 H635 0.949 . S
C640 C646 1.368 . S
C641 C625 1.349 . S
C641 H633 0.950 . S
C641 C639 1.327 . S
C642 C630 1.349 . S
C642 H636 0.950 . S
C642 C643 1.327 . S
C643 H637 0.950 . S
C643 C642 1.327 . S
C643 C647 1.429 . S
C644 C627 1.574 . S
C644 H638 0.949 . S
C644 C648 1.368 . S
C645 C626 1.429 . S
C645 C639 1.429 . S
C645 C646 1.523 . S
C646 C627 1.368 . S
C646 C640 1.368 . S
C646 C645 1.523 . S
C647 C631 1.429 . S
C647 C643 1.429 . S
C647 C648 1.523 . S
C648 C632 1.368 . S
C648 C644 1.368 . S
C648 C647 1.523 . S
H649 C624 0.950 . S
H650 C626 0.950 . S
H651 C627 0.949 . S
H652 C629 0.950 . S
H653 C631 0.950 . S
C654 C655 1.349 . S
C654 C656 1.327 . S
C654 H679 0.950 . S
C655 C654 1.349 . S
C655 C671 1.349 . S
C656 C654 1.327 . S
C656 C675 1.429 . S
C656 H680 0.950 . S
C657 C674 1.574 . S
C657 C676 1.368 . S
C657 H681 0.949 . S
H658 C662 0.949 . S
C659 C660 1.349 . S
C659 C661 1.327 . S
C659 H682 0.950 . S
C660 C659 1.349 . S
C660 C672 1.349 . S
C661 C659 1.327 . S
C661 C677 1.429 . S
C661 H683 0.950 . S
C662 H658 0.949 . S
C662 C670 1.574 . S
C662 C678 1.368 . S
H663 C671 0.950 . S
H664 C669 0.950 . S
H665 C670 0.949 . S
H666 C672 0.950 1_545 S
H667 C673 0.950 1_545 S
H668 C674 0.949 . S
C669 H664 0.950 . S
C669 C671 1.327 . S
C669 C675 1.429 . S
C670 C662 1.574 . S
C670 H665 0.949 . S
C670 C676 1.368 . S
C671 C655 1.349 . S
C671 H663 0.950 . S
C671 C669 1.327 . S
C672 C660 1.349 . S
C672 H666 0.950 1_565 S
C672 C673 1.327 . S
C673 H667 0.950 1_565 S
C673 C672 1.327 . S
C673 C677 1.429 . S
C674 C657 1.574 . S
C674 H668 0.949 . S
C674 C678 1.368 . S
C675 C656 1.429 . S
C675 C669 1.429 . S
C675 C676 1.523 . S
C676 C657 1.368 . S
C676 C670 1.368 . S
C676 C675 1.523 . S
C677 C661 1.429 . S
C677 C673 1.429 . S
C677 C678 1.523 . S
C678 C662 1.368 . S
C678 C674 1.368 . S
C678 C677 1.523 . S
H679 C654 0.950 . S
H680 C656 0.950 . S
H681 C657 0.949 . S
H682 C659 0.950 . S
H683 C661 0.950 . S
C330 C224 1.621 . S
C325 C138 1.622 . S
C355 C21 1.610 . S
C360 C296 1.607 . S
C385 C60 1.628 . S
C390 C212 1.621 . S
C415 C99 1.618 . S
C420 C308 1.607 . S
C450 C214 1.412 . S
C445 C16 1.560 . S
C480 C295 1.609 . S
C475 C40 1.603 . S
C505 C79 1.590 . S
C510 C211 1.602 . S
C535 C133 1.545 . S
C540 C298 1.401 . S
C570 C310 1.401 . S
C565 C55 1.544 . S
C600 C226 1.412 . S
C595 C94 1.558 . S
C630 C307 1.609 . S
C625 C118 1.600 . S
C655 C1 1.586 . S
C660 C223 1.602 . S
