# Generated by pormake.
# Topology pyr, (3,6)-cn, num edge types: 1
# Building blocks:
#     Node 0, Type 0, BuildingBlock: QEWDON_clean_linker_0, # of connection points: 3
#     Node 1, Type 0, BuildingBlock: QEWDON_clean_linker_0, # of connection points: 3
#     Node 2, Type 0, BuildingBlock: QEWDON_clean_linker_0, # of connection points: 3
#     Node 3, Type 0, BuildingBlock: QEWDON_clean_linker_0, # of connection points: 3
#     Node 4, Type 0, BuildingBlock: QEWDON_clean_linker_0, # of connection points: 3
#     Node 5, Type 0, BuildingBlock: QEWDON_clean_linker_0, # of connection points: 3
#     Node 6, Type 0, BuildingBlock: QEWDON_clean_linker_0, # of connection points: 3
#     Node 7, Type 0, BuildingBlock: QEWDON_clean_linker_0, # of connection points: 3
#     Node 8, Type 1, BuildingBlock: BETDEL_clean_sbu_0, # of connection points: 6
#     Node 9, Type 1, BuildingBlock: BETDEL_clean_sbu_0, # of connection points: 6
#     Node 10, Type 1, BuildingBlock: BETDEL_clean_sbu_0, # of connection points: 6
#     Node 11, Type 1, BuildingBlock: BETDEL_clean_sbu_0, # of connection points: 6
#     Edge 12, Type (0, 1), BuildingBlock: KIFKEQ_clean_linker_1, # of connection points: 2
#     Edge 13, Type (0, 1), BuildingBlock: KIFKEQ_clean_linker_1, # of connection points: 2
#     Edge 14, Type (0, 1), BuildingBlock: KIFKEQ_clean_linker_1, # of connection points: 2
#     Edge 15, Type (0, 1), BuildingBlock: KIFKEQ_clean_linker_1, # of connection points: 2
#     Edge 16, Type (0, 1), BuildingBlock: KIFKEQ_clean_linker_1, # of connection points: 2
#     Edge 17, Type (0, 1), BuildingBlock: KIFKEQ_clean_linker_1, # of connection points: 2
#     Edge 18, Type (0, 1), BuildingBlock: KIFKEQ_clean_linker_1, # of connection points: 2
#     Edge 19, Type (0, 1), BuildingBlock: KIFKEQ_clean_linker_1, # of connection points: 2
#     Edge 20, Type (0, 1), BuildingBlock: KIFKEQ_clean_linker_1, # of connection points: 2
#     Edge 21, Type (0, 1), BuildingBlock: KIFKEQ_clean_linker_1, # of connection points: 2
#     Edge 22, Type (0, 1), BuildingBlock: KIFKEQ_clean_linker_1, # of connection points: 2
#     Edge 23, Type (0, 1), BuildingBlock: KIFKEQ_clean_linker_1, # of connection points: 2
#     Edge 24, Type (0, 1), BuildingBlock: KIFKEQ_clean_linker_1, # of connection points: 2
#     Edge 25, Type (0, 1), BuildingBlock: KIFKEQ_clean_linker_1, # of connection points: 2
#     Edge 26, Type (0, 1), BuildingBlock: KIFKEQ_clean_linker_1, # of connection points: 2
#     Edge 27, Type (0, 1), BuildingBlock: KIFKEQ_clean_linker_1, # of connection points: 2
#     Edge 28, Type (0, 1), BuildingBlock: KIFKEQ_clean_linker_1, # of connection points: 2
#     Edge 29, Type (0, 1), BuildingBlock: KIFKEQ_clean_linker_1, # of connection points: 2
#     Edge 30, Type (0, 1), BuildingBlock: KIFKEQ_clean_linker_1, # of connection points: 2
#     Edge 31, Type (0, 1), BuildingBlock: KIFKEQ_clean_linker_1, # of connection points: 2
#     Edge 32, Type (0, 1), BuildingBlock: KIFKEQ_clean_linker_1, # of connection points: 2
#     Edge 33, Type (0, 1), BuildingBlock: KIFKEQ_clean_linker_1, # of connection points: 2
#     Edge 34, Type (0, 1), BuildingBlock: KIFKEQ_clean_linker_1, # of connection points: 2
#     Edge 35, Type (0, 1), BuildingBlock: KIFKEQ_clean_linker_1, # of connection points: 2
# Relax obj value: 0.120
# Max RMSD: 0.262
# Mean RMSD: 0.190
data_MOF--net-pyr--node1-BETDEL_clean_sbu_0--node2-QEWDON_clean_linker_0--edge1-KIFKEQ_clean_linker_1
_symmetry_space_group_name_H-M    P1
_symmetry_Int_Tables_number       1
_symmetry_cell_setting            triclinic
loop_
_symmetry_equiv_pos_as_xyz
'x, y, z'
_cell_length_a     37.156623
_cell_length_b     39.156486
_cell_length_c     38.347816
_cell_angle_alpha  91.950552
_cell_angle_beta   90.029566
_cell_angle_gamma 104.27544
loop_
_atom_site_label
_atom_site_type_symbol
_atom_site_fract_x
_atom_site_fract_y
_atom_site_fract_z
_atom_type_partial_charge
H0 H 0.27658 0.24015 0.16289 0.0
C1 C 0.25716 0.22819 0.18272 0.0
C2 C 0.25877 0.19552 0.19562 0.0
C3 C 0.23129 0.24614 0.19542 0.0
H4 H 0.23595 0.15614 0.23262 0.0
C5 C 0.23343 0.18047 0.22142 0.0
C6 C 0.20662 0.1977 0.23429 0.0
C7 C 0.20548 0.23042 0.22047 0.0
C8 C 0.23442 0.28289 0.18496 0.0
H9 H 0.18545 0.24439 0.22995 0.0
C10 C 0.20376 0.29387 0.17186 0.0
C11 C 0.20849 0.3285 0.16022 0.0
C12 C 0.26928 0.30717 0.18746 0.0
H13 H 0.29315 0.29951 0.19785 0.0
C14 C 0.27378 0.34156 0.17676 0.0
H15 H 0.17685 0.27527 0.16955 0.0
C16 C 0.24372 0.35216 0.1631 0.0
H17 H 0.24798 0.37909 0.15497 0.0
H18 H 0.30073 0.36005 0.17892 0.0
H19 H 0.28555 0.88974 0.7737 0.0
C20 C 0.30015 0.87247 0.76032 0.0
C21 C 0.33434 0.86862 0.77354 0.0
C22 C 0.28375 0.85299 0.73047 0.0
H23 H 0.37714 0.84039 0.7666 0.0
C24 C 0.35197 0.84513 0.75577 0.0
C25 C 0.33652 0.82608 0.72524 0.0
C26 C 0.30221 0.83026 0.71291 0.0
C27 C 0.24447 0.85099 0.72148 0.0
H28 H 0.2892 0.81526 0.69002 0.0
C29 C 0.23361 0.87681 0.70193 0.0
C30 C 0.19584 0.87236 0.69252 0.0
C31 C 0.21743 0.82156 0.73221 0.0
H32 H 0.22526 0.80154 0.74725 0.0
C33 C 0.18018 0.81757 0.72364 0.0
H34 H 0.25439 0.8994 0.69321 0.0
C35 C 0.16944 0.84262 0.70386 0.0
H36 H 0.14029 0.83874 0.69736 0.0
H37 H 0.15955 0.79479 0.73212 0.0
H38 H 0.66319 0.45137 0.92633 0.0
C39 C 0.65382 0.4248 0.93558 0.0
C40 C 0.67958 0.40778 0.94931 0.0
C41 C 0.6158 0.40824 0.93499 0.0
H42 H 0.68685 0.3601 0.97158 0.0
C43 C 0.66699 0.37336 0.96127 0.0
C44 C 0.62897 0.35628 0.96075 0.0
C45 C 0.60354 0.37421 0.94783 0.0
C46 C 0.58854 0.42755 0.92357 0.0
H47 H 0.57401 0.36195 0.94813 0.0
C48 C 0.58964 0.44078 0.88976 0.0
C49 C 0.56334 0.45907 0.87925 0.0
C50 C 0.5613 0.43296 0.94695 0.0
H51 H 0.56013 0.42312 0.97311 0.0
C52 C 0.53582 0.45169 0.93706 0.0
H53 H 0.61022 0.43588 0.87154 0.0
C54 C 0.53684 0.46477 0.90361 0.0
H55 H 0.51691 0.47959 0.89696 0.0
H56 H 0.51521 0.45618 0.95543 0.0
H57 H 0.86201 0.7629 0.34723 0.0
C58 C 0.84263 0.74789 0.36552 0.0
C59 C 0.84475 0.75829 0.40106 0.0
C60 C 0.8145 0.71911 0.35324 0.0
H61 H 0.81939 0.74817 0.45139 0.0
C62 C 0.81876 0.73916 0.42431 0.0
C63 C 0.79037 0.71026 0.41244 0.0
C64 C 0.78872 0.70032 0.37675 0.0
C65 C 0.80935 0.71093 0.31538 0.0
H66 H 0.76703 0.67819 0.36695 0.0
C67 C 0.83627 0.69937 0.29561 0.0
C68 C 0.83059 0.69144 0.25955 0.0
C69 C 0.7769 0.71475 0.29893 0.0
H70 H 0.75589 0.72365 0.31375 0.0
C71 C 0.77143 0.70748 0.26322 0.0
H72 H 0.86127 0.69625 0.30831 0.0
C73 C 0.79801 0.69589 0.24362 0.0
H74 H 0.79262 0.68958 0.21609 0.0
H75 H 0.74634 0.71054 0.25073 0.0
H76 H 0.83341 0.83712 0.94339 0.0
C77 C 0.84755 0.8527 0.92234 0.0
C78 C 0.88247 0.84901 0.9113 0.0
C79 C 0.82979 0.87528 0.90559 0.0
H80 H 0.92576 0.86469 0.8735 0.0
C81 C 0.89974 0.86881 0.88321 0.0
C82 C 0.8823 0.89185 0.86608 0.0
C83 C 0.84742 0.89527 0.87807 0.0
C84 C 0.79022 0.87263 0.91264 0.0
H85 H 0.83311 0.91241 0.86525 0.0
C86 C 0.77853 0.8975 0.93436 0.0
C87 C 0.74061 0.8923 0.9425 0.0
C88 C 0.76392 0.84336 0.89847 0.0
H89 H 0.77257 0.82401 0.88177 0.0
C90 C 0.72638 0.83861 0.90594 0.0
H91 H 0.79879 0.91995 0.94565 0.0
C92 C 0.71477 0.86276 0.92795 0.0
H93 H 0.68544 0.85843 0.93357 0.0
H94 H 0.70626 0.81596 0.89491 0.0
H95 H 0.77523 0.21619 0.48207 0.0
C96 C 0.76243 0.21053 0.45643 0.0
C97 C 0.7759 0.18875 0.43243 0.0
C98 C 0.73168 0.22397 0.44856 0.0
H99 H 0.76907 0.16537 0.38015 0.0
C100 C 0.75973 0.18267 0.39881 0.0
C101 C 0.72941 0.19659 0.39009 0.0
C102 C 0.71557 0.21713 0.41513 0.0
C103 C 0.71419 0.24131 0.47686 0.0
H104 H 0.69132 0.22661 0.40898 0.0
C105 C 0.70212 0.27241 0.4718 0.0
C106 C 0.6872 0.28862 0.49994 0.0
C107 C 0.70959 0.22614 0.50984 0.0
H108 H 0.71758 0.20185 0.51438 0.0
C109 C 0.69432 0.24177 0.53733 0.0
H110 H 0.70541 0.28449 0.44662 0.0
C111 C 0.68343 0.27283 0.53255 0.0
H112 H 0.6716 0.28442 0.55441 0.0
H113 H 0.69096 0.22976 0.56252 0.0
H114 H 0.43342 0.74838 0.21093 0.0
C115 C 0.4043 0.73896 0.20392 0.0
C116 C 0.38574 0.76126 0.18721 0.0
C117 C 0.38583 0.70391 0.21022 0.0
H118 H 0.33413 0.76432 0.16301 0.0
C119 C 0.34841 0.74798 0.17714 0.0
C120 C 0.32977 0.71307 0.18349 0.0
C121 C 0.34846 0.69122 0.20037 0.0
C122 C 0.40708 0.67889 0.22121 0.0
H123 H 0.33464 0.66374 0.20389 0.0
C124 C 0.41427 0.67471 0.25663 0.0
C125 C 0.4346 0.65039 0.2662 0.0
C126 C 0.42 0.65868 0.19548 0.0
H127 H 0.41454 0.66158 0.16812 0.0
C128 C 0.44002 0.63459 0.20481 0.0
H129 H 0.40433 0.69043 0.27647 0.0
C130 C 0.4473 0.63041 0.23987 0.0
H131 H 0.46244 0.61111 0.2464 0.0
H132 H 0.44981 0.61899 0.18482 0.0
H133 H 0.24297 0.42937 0.75107 0.0
C134 C 0.22321 0.40776 0.73788 0.0
C135 C 0.22574 0.40174 0.70172 0.0
C136 C 0.19699 0.38442 0.75764 0.0
H137 H 0.2027 0.36763 0.65765 0.0
C138 C 0.20072 0.37265 0.68546 0.0
C139 C 0.17465 0.34881 0.705 0.0
C140 C 0.17293 0.35498 0.74122 0.0
C141 C 0.19802 0.38834 0.79599 0.0
H142 H 0.15342 0.33656 0.75681 0.0
C143 C 0.1798 0.41129 0.81347 0.0
C144 C 0.18201 0.41548 0.85011 0.0
C145 C 0.21816 0.36935 0.81518 0.0
H146 H 0.23233 0.35156 0.80201 0.0
C147 C 0.22045 0.37343 0.85145 0.0
H148 H 0.16436 0.42606 0.79859 0.0
C149 C 0.20261 0.39641 0.86886 0.0
H150 H 0.20448 0.39889 0.89707 0.0
H151 H 0.23608 0.35874 0.86612 0.0
Dy152 Dy 0.04225 0.06683 0.5105 0.0
C153 C 0.98349 0.01032 0.64432 0.0
C154 C 0.07241 0.09849 0.45115 0.0
Dy155 Dy 1.00096 0.03896 0.58075 0.0
O156 O 0.09062 0.08773 0.47564 0.0
O157 O 0.03742 0.09245 0.45921 0.0
O158 O 0.07577 0.02689 0.51587 0.0
O159 O 0.05769 0.04921 0.56107 0.0
C160 C 0.0742 0.02652 0.54969 0.0
C161 C 0.95588 0.06487 0.5389 0.0
O162 O 0.035 0.09197 0.59863 0.0
O163 O 0.05462 0.11613 0.54488 0.0
O164 O 0.97589 0.03902 0.63395 0.0
O165 O 1.00096 0.99713 0.61991 0.0
O166 O 0.9456 0.05065 0.56856 0.0
O167 O 0.98892 0.06335 0.53392 0.0
O168 O 1.0027 0.01672 0.49144 0.0
O169 O 0.98901 0.9907 0.54542 0.0
C170 C 0.05107 0.11893 0.57931 0.0
C171 C 0.98828 0.98913 0.51073 0.0
Dy172 Dy 0.54624 0.07595 0.11188 0.0
C173 C 0.45675 0.99527 0.99535 0.0
C174 C 0.58625 0.11673 0.16494 0.0
Dy175 Dy 0.4948 0.03885 0.04763 0.0
O176 O 0.5988 0.11278 0.13374 0.0
O177 O 0.55177 0.09917 0.16668 0.0
O178 O 0.54631 0.02315 0.13248 0.0
O179 O 0.50065 0.02846 0.1031 0.0
C180 C 0.51537 0.00665 0.11741 0.0
C181 C 0.53242 0.10519 0.03272 0.0
O182 O 0.45377 0.06134 0.07735 0.0
O183 O 0.49603 0.09857 0.11597 0.0
O184 O 0.49171 0.01126 0.99533 0.0
O185 O 0.44208 1.00214 0.0249 0.0
O186 O 0.50875 0.08476 0.01162 0.0
O187 O 0.53354 0.08887 0.06008 0.0
O188 O 0.58708 0.0594 0.07604 0.0
O189 O 0.5431 0.01425 0.048 0.0
C190 C 0.46203 0.08659 0.1023 0.0
C191 C 0.57805 0.03005 0.05619 0.0
Dy192 Dy 0.52684 0.53597 0.5574 0.0
C193 C 0.46785 0.64949 0.61706 0.0
C194 C 0.56476 0.48844 0.53249 0.0
Dy195 Dy 0.50476 0.60145 0.59112 0.0
O196 O 0.58001 0.5199 0.54523 0.0
O197 O 0.52884 0.48305 0.53332 0.0
O198 O 0.4669 0.50765 0.5519 0.0
O199 O 0.48417 0.54435 0.59347 0.0
C200 C 0.45627 0.52478 0.57797 0.0
C201 C 0.57495 0.61188 0.56817 0.0
O202 O 0.52064 0.57817 0.63939 0.0
O203 O 0.54819 0.53667 0.61279 0.0
O204 O 0.50123 0.65721 0.60446 0.0
O205 O 0.45461 0.61551 0.6154 0.0
O206 O 0.5658 0.62944 0.59477 0.0
O207 O 0.54613 0.59248 0.55437 0.0
O208 O 0.51298 0.56151 0.50961 0.0
O209 O 0.47959 0.59775 0.53699 0.0
C210 C 0.53997 0.55391 0.64102 0.0
C211 C 0.49012 0.58276 0.50837 0.0
Dy212 Dy 0.01561 0.53027 0.06241 0.0
C213 C 0.9873 0.6597 0.01439 0.0
C214 C 0.03945 0.47228 0.07997 0.0
Dy215 Dy 0.00852 0.60059 0.03276 0.0
O216 O 0.02818 0.49338 0.10184 0.0
O217 O 0.03733 0.48266 0.04838 0.0
O218 O 0.96984 0.5316 0.10003 0.0
O219 O 1.00538 0.57923 0.0846 0.0
C220 C 0.97652 0.56583 0.10151 0.0
C221 C 0.0468 0.56411 0.99356 0.0
O222 O 0.05597 0.62027 0.06986 0.0
O223 O 0.07231 0.56685 0.07076 0.0
O224 O 0.01567 0.6497 1.00193 0.0
O225 O 0.97061 0.63753 0.03718 0.0
O226 O 0.05413 0.5983 0.99475 0.0
O227 O 0.01803 0.55161 0.01074 0.0
O228 O 0.96363 0.50933 0.03142 0.0
O229 O 0.95311 0.56388 0.01864 0.0
C230 C 0.08009 0.60146 0.07681 0.0
C231 C 0.94246 0.52887 0.01878 0.0
H232 H 0.17644 0.12782 0.24817 0.0
H233 H 0.18063 0.23346 0.28817 0.0
H234 H 0.14199 0.10384 0.29967 0.0
H235 H 0.14402 0.20895 0.33822 0.0
H236 H 0.04501 0.13747 0.40438 0.0
H237 H 0.07425 0.16167 0.34991 0.0
H238 H 0.16595 0.11517 0.36897 0.0
H239 H 0.13763 0.09215 0.42363 0.0
C240 C 0.16996 0.14602 0.26763 0.0
C241 C 0.18189 0.18276 0.26381 0.0
C242 C 0.14988 0.13216 0.29697 0.0
C243 C 0.14039 0.15459 0.32277 0.0
C244 C 0.15071 0.19112 0.31845 0.0
C245 C 0.17154 0.20508 0.28952 0.0
C246 C 0.07143 0.13256 0.39686 0.0
C247 C 0.08916 0.11308 0.4182 0.0
C248 C 0.0881 0.14637 0.36584 0.0
C249 C 0.12218 0.14003 0.35529 0.0
C250 C 0.13954 0.12017 0.37643 0.0
C251 C 0.12342 0.10719 0.40775 0.0
H252 H 0.40831 0.89376 0.79039 0.0
H253 H 0.29886 0.88702 0.83225 0.0
H254 H 0.43588 0.92102 0.84457 0.0
H255 H 0.32674 0.91793 0.88547 0.0
H256 H 0.38821 0.94744 0.9908 0.0
H257 H 0.35789 0.9162 0.93793 0.0
H258 H 0.44999 0.97229 0.87654 0.0
H259 H 0.48069 1.00095 0.92908 0.0
C260 C 0.38994 0.89817 0.81104 0.0
C261 C 0.35114 0.88776 0.80654 0.0
C262 C 0.40592 0.91462 0.84219 0.0
C263 C 0.38378 0.92231 0.86976 0.0
C264 C 0.34492 0.91225 0.86523 0.0
C265 C 0.32885 0.89502 0.83421 0.0
C266 C 0.40186 0.95267 0.96591 0.0
C267 C 0.43699 0.97624 0.96412 0.0
C268 C 0.38442 0.93504 0.93548 0.0
C269 C 0.40148 0.94119 0.90256 0.0
C270 C 0.43625 0.96564 0.90116 0.0
C271 C 0.45387 0.98246 0.93144 0.0
H272 H 0.50257 0.45971 0.8392 0.0
H273 H 0.6226 0.48701 0.83673 0.0
H274 H 0.50084 0.48448 0.78217 0.0
H275 H 0.6205 0.51063 0.77855 0.0
H276 H 0.58562 0.51095 0.65749 0.0
H277 H 0.5943 0.4881 0.71484 0.0
H278 H 0.52233 0.54825 0.76063 0.0
H279 H 0.51384 0.57131 0.70393 0.0
C280 C 0.52866 0.47113 0.82665 0.0
C281 C 0.56276 0.47189 0.84306 0.0
C282 C 0.52758 0.48516 0.79383 0.0
C283 C 0.56053 0.49985 0.77616 0.0
C284 C 0.59469 0.49943 0.79166 0.0
C285 C 0.59582 0.48577 0.82491 0.0
C286 C 0.57203 0.51965 0.67988 0.0
C287 C 0.54886 0.54284 0.676 0.0
C288 C 0.57712 0.50663 0.71268 0.0
C289 C 0.55867 0.51615 0.74203 0.0
C290 C 0.53654 0.54017 0.73834 0.0
C291 C 0.53187 0.55352 0.70581 0.0
H292 H 0.86382 0.63924 0.27677 0.0
H293 H 0.85714 0.71023 0.19464 0.0
H294 H 0.90193 0.61063 0.23954 0.0
H295 H 0.89464 0.68123 0.15719 0.0
H296 H 0.98914 0.63744 0.11027 0.0
H297 H 0.95751 0.67029 0.15025 0.0
H298 H 0.88899 0.57214 0.18593 0.0
H299 H 0.92053 0.53948 0.1461 0.0
C300 C 0.87098 0.64908 0.25098 0.0
C301 C 0.85732 0.67685 0.23857 0.0
C302 C 0.89246 0.63246 0.22952 0.0
C303 C 0.90098 0.64345 0.19529 0.0
C304 C 0.88869 0.67224 0.18345 0.0
C305 C 0.86699 0.68867 0.20481 0.0
C306 C 0.96726 0.62297 0.12663 0.0
C307 C 0.95722 0.58593 0.12508 0.0
C308 C 0.94915 0.64175 0.14948 0.0
C309 C 0.92092 0.6238 0.17143 0.0
C310 C 0.91102 0.58674 0.1698 0.0
C311 C 0.92888 0.56802 0.14679 0.0
H312 H 0.33191 0.2269 0.18451 0.0
H313 H 0.25281 0.12544 0.17896 0.0
H314 H 0.37989 0.20016 0.16166 0.0
H315 H 0.30151 0.09823 0.15721 0.0
H316 H 0.38855 0.07074 0.08209 0.0
H317 H 0.33932 0.09597 0.10545 0.0
H318 H 0.41762 0.16161 0.17813 0.0
H319 H 0.46687 0.13711 0.15444 0.0
C320 C 0.32473 0.19882 0.1784 0.0
C321 C 0.28836 0.17838 0.18328 0.0
C322 C 0.35244 0.18338 0.16567 0.0
C323 C 0.34467 0.14699 0.15757 0.0
C324 C 0.30838 0.1264 0.1628 0.0
C325 C 0.28056 0.1419 0.17562 0.0
C326 C 0.39533 0.09062 0.10299 0.0
C327 C 0.43186 0.10198 0.11617 0.0
C328 C 0.36698 0.1049 0.11658 0.0
C329 C 0.37445 0.1309 0.14366 0.0
C330 C 0.41092 0.14205 0.15693 0.0
C331 C 0.43921 0.12783 0.14337 0.0
H332 H 0.15433 0.85638 0.6333 0.0
H333 H 0.20721 0.94437 0.70142 0.0
H334 H 0.12612 0.89479 0.59977 0.0
H335 H 0.17901 0.98342 0.66741 0.0
H336 H 0.08247 0.02791 0.62123 0.0
H337 H 0.11523 0.99274 0.6554 0.0
H338 H 0.14275 0.94327 0.56011 0.0
H339 H 0.10989 0.97777 0.52638 0.0
C340 C 0.16026 0.88414 0.64083 0.0
C341 C 0.18301 0.89736 0.66998 0.0
C342 C 0.14417 0.90623 0.62153 0.0
C343 C 0.15015 0.94224 0.63089 0.0
C344 C 0.17354 0.95574 0.6597 0.0
C345 C 0.19005 0.93354 0.67891 0.0
C346 C 0.0955 0.00944 0.60772 0.0
C347 C 0.0934 0.00544 0.57114 0.0
C348 C 0.11454 0.98953 0.62723 0.0
C349 C 0.13162 0.9651 0.61052 0.0
C350 C 0.1296 0.96146 0.57391 0.0
C351 C 0.11079 0.98135 0.55454 0.0
H352 H 0.74107 0.38309 0.93496 0.0
H353 H 0.70757 0.47506 0.97442 0.0
H354 H 0.8059 0.41262 0.94777 0.0
H355 H 0.77206 0.50441 0.98754 0.0
H356 H 0.89382 0.55869 0.98464 0.0
H357 H 0.83179 0.52996 0.96302 0.0
H358 H 0.84465 0.43025 0.99911 0.0
H359 H 0.90706 0.45876 0.01994 0.0
C360 C 0.7476 0.40966 0.94624 0.0
C361 C 0.71924 0.42674 0.95373 0.0
C362 C 0.78469 0.42654 0.95367 0.0
C363 C 0.79418 0.46082 0.96885 0.0
C364 C 0.76585 0.47823 0.97537 0.0
C365 C 0.72883 0.46141 0.96784 0.0
C366 C 0.88356 0.53059 0.9878 0.0
C367 C 0.9054 0.51108 1.00422 0.0
C368 C 0.84789 0.51415 0.9755 0.0
C369 C 0.83314 0.47783 0.97947 0.0
C370 C 0.8553 0.45818 0.99521 0.0
C371 C 0.89105 0.4746 0.00738 0.0
H372 H 0.71586 0.68599 0.39906 0.0
H373 H 0.79767 0.69475 0.48127 0.0
H374 H 0.6672 0.65895 0.43891 0.0
H375 H 0.74832 0.66848 0.52157 0.0
H376 H 0.63728 0.6638 0.58592 0.0
H377 H 0.6921 0.68497 0.54958 0.0
H378 H 0.64699 0.60342 0.47164 0.0
H379 H 0.59256 0.58256 0.50754 0.0
C380 C 0.72365 0.68166 0.42545 0.0
C381 C 0.76088 0.69238 0.43675 0.0
C382 C 0.69564 0.66627 0.44838 0.0
C383 C 0.70397 0.66146 0.48334 0.0
C384 C 0.74108 0.67209 0.49482 0.0
C385 C 0.76928 0.6872 0.47172 0.0
C386 C 0.63949 0.65011 0.56129 0.0
C387 C 0.61052 0.62179 0.5494 0.0
C388 C 0.67084 0.66214 0.54055 0.0
C389 C 0.67354 0.64612 0.50756 0.0
C390 C 0.6454 0.61666 0.49665 0.0
C391 C 0.61431 0.6046 0.51735 0.0
H392 H 0.13797 0.32129 0.18542 0.0
H393 H 0.20915 0.36372 0.1003 0.0
H394 H 0.09045 0.34928 0.16388 0.0
H395 H 0.16257 0.39228 0.07935 0.0
H396 H 0.0674 0.42841 0.03695 0.0
H397 H 0.102 0.38587 0.05383 0.0
H398 H 0.08537 0.41008 0.16253 0.0
H399 H 0.05011 0.45187 0.14553 0.0
C400 C 0.14315 0.33606 0.16179 0.0
C401 C 0.17738 0.34068 0.14476 0.0
C402 C 0.11614 0.35235 0.14963 0.0
C403 C 0.12278 0.3733 0.12003 0.0
C404 C 0.15626 0.37614 0.10199 0.0
C405 C 0.18317 0.36005 0.1142 0.0
C406 C 0.07064 0.42413 0.06442 0.0
C407 C 0.05637 0.44359 0.08995 0.0
C408 C 0.09059 0.3999 0.07412 0.0
C409 C 0.09678 0.39474 0.10957 0.0
C410 C 0.08084 0.41304 0.13502 0.0
C411 C 0.06085 0.43721 0.1253 0.0
H412 H 0.65477 0.3272 0.0172 0.0
H413 H 0.57319 0.30266 0.9338 0.0
H414 H 0.63503 0.26655 0.03606 0.0
H415 H 0.5519 0.24317 0.95402 0.0
H416 H 0.54734 0.13071 0.96908 0.0
H417 H 0.57295 0.19124 0.9534 0.0
H418 H 0.58561 0.22314 0.06271 0.0
H419 H 0.56118 0.16133 0.07835 0.0
C420 C 0.63261 0.30895 1.00289 0.0
C421 C 0.61584 0.31986 0.9737 0.0
C422 C 0.62096 0.27429 0.01405 0.0
C423 C 0.59214 0.24977 0.99638 0.0
C424 C 0.57476 0.26103 0.96784 0.0
C425 C 0.5866 0.29544 0.95652 0.0
C426 C 0.55598 0.15059 0.98979 0.0
C427 C 0.55205 0.14154 0.02488 0.0
C428 C 0.57034 0.1854 0.98082 0.0
C429 C 0.58047 0.21233 0.00674 0.0
C430 C 0.57806 0.20306 0.04206 0.0
C431 C 0.5641 0.16779 0.05108 0.0
H432 H 0.88958 0.76742 0.45878 0.0
H433 H 0.85985 0.82309 0.37237 0.0
H434 H 0.92806 0.82264 0.4835 0.0
H435 H 0.89747 0.87852 0.39741 0.0
H436 H 0.98798 0.97086 0.44088 0.0
H437 H 0.95808 0.91425 0.41238 0.0
H438 H 0.91716 0.87385 0.51214 0.0
H439 H 0.94778 0.92969 0.54059 0.0
C440 C 0.8915 0.7915 0.445 0.0
C441 C 0.87165 0.791 0.41374 0.0
C442 C 0.91334 0.82318 0.45922 0.0
C443 C 0.91551 0.85518 0.44272 0.0
C444 C 0.89681 0.8544 0.41068 0.0
C445 C 0.8752 0.82262 0.3963 0.0
C446 C 0.9727 0.94983 0.45671 0.0
C447 C 0.97033 0.95489 0.49304 0.0
C448 C 0.95544 0.9174 0.44035 0.0
C449 C 0.9353 0.88935 0.45993 0.0
C450 C 0.93306 0.89452 0.49625 0.0
C451 C 0.95043 0.92676 0.51259 0.0
H452 H 0.41143 0.83298 0.71638 0.0
H453 H 0.30491 0.76114 0.6938 0.0
H454 H 0.44247 0.79051 0.69071 0.0
H455 H 0.3359 0.7197 0.66589 0.0
H456 H 0.40219 0.63623 0.65211 0.0
H457 H 0.37066 0.67881 0.67748 0.0
H458 H 0.45705 0.76402 0.63877 0.0
H459 H 0.48917 0.72127 0.61484 0.0
C460 C 0.39452 0.80819 0.70583 0.0
C461 C 0.3555 0.80066 0.70747 0.0
C462 C 0.41241 0.78391 0.69055 0.0
C463 C 0.39188 0.7514 0.67606 0.0
C464 C 0.35283 0.74411 0.67717 0.0
C465 C 0.33494 0.76827 0.69275 0.0
C466 C 0.41437 0.66409 0.64907 0.0
C467 C 0.44819 0.67541 0.63158 0.0
C468 C 0.39616 0.6886 0.6634 0.0
C469 C 0.41111 0.72513 0.6603 0.0
C470 C 0.44486 0.73628 0.64236 0.0
C471 C 0.46323 0.71175 0.62836 0.0
H472 H 0.95637 0.91932 0.85136 0.0
H473 H 0.84616 0.90521 0.80746 0.0
H474 H 0.98293 0.94771 0.79813 0.0
H475 H 0.87281 0.93516 0.75559 0.0
H476 H 0.93434 0.02775 0.68954 0.0
H477 H 0.91153 0.99956 0.74382 0.0
H478 H 0.9832 0.92867 0.72996 0.0
H479 H 1.00566 0.95657 0.67496 0.0
C480 C 0.93775 0.92217 0.83054 0.0
C481 C 0.89896 0.91013 0.83413 0.0
C482 C 0.95304 0.93854 0.80013 0.0
C483 C 0.92988 0.94379 0.77293 0.0
C484 C 0.89127 0.93188 0.77641 0.0
C485 C 0.87602 0.91498 0.8064 0.0
C486 C 0.94537 0.00625 0.69812 0.0
C487 C 0.97162 0.9942 0.67801 0.0
C488 C 0.93223 0.99009 0.72911 0.0
C489 C 0.94554 0.96191 0.74097 0.0
C490 C 0.97264 0.95046 0.72142 0.0
C491 C 0.98533 0.96628 0.68997 0.0
H492 H 0.65689 0.16317 0.3796 0.0
H493 H 0.75744 0.20773 0.32422 0.0
H494 H 0.62373 0.1462 0.32463 0.0
H495 H 0.72393 0.19299 0.26864 0.0
H496 H 0.6614 0.12962 0.17427 0.0
H497 H 0.69677 0.14979 0.22789 0.0
H498 H 0.59683 0.16431 0.2777 0.0
H499 H 0.56151 0.1417 0.22486 0.0
C500 C 0.67172 0.16978 0.35546 0.0
C501 C 0.70965 0.18683 0.35612 0.0
C502 C 0.65264 0.16038 0.32376 0.0
C503 C 0.67074 0.16849 0.29166 0.0
C504 C 0.7089 0.18574 0.29251 0.0
C505 C 0.72819 0.19444 0.32437 0.0
C506 C 0.64722 0.13749 0.19668 0.0
C507 C 0.60871 0.13393 0.19551 0.0
C508 C 0.66751 0.14922 0.22753 0.0
C509 C 0.64985 0.15837 0.25778 0.0
C510 C 0.6115 0.15648 0.25565 0.0
C511 C 0.59116 0.14395 0.22513 0.0
H512 H 0.50008 0.64498 0.29461 0.0
H513 H 0.38696 0.64359 0.32171 0.0
H514 H 0.51178 0.62957 0.35376 0.0
H515 H 0.39866 0.62795 0.38126 0.0
H516 H 0.44839 0.62961 0.49349 0.0
H517 H 0.43445 0.64859 0.436 0.0
H518 H 0.49223 0.57661 0.38743 0.0
H519 H 0.5066 0.55807 0.44446 0.0
C520 C 0.4777 0.6414 0.31328 0.0
C521 C 0.44246 0.64504 0.30336 0.0
C522 C 0.48436 0.63247 0.34716 0.0
C523 C 0.45596 0.6269 0.37207 0.0
C524 C 0.42114 0.63213 0.36269 0.0
C525 C 0.41445 0.64113 0.32863 0.0
C526 C 0.45793 0.61769 0.47053 0.0
C527 C 0.47888 0.59248 0.47368 0.0
C528 C 0.44984 0.62852 0.43759 0.0
C529 C 0.46265 0.61446 0.40716 0.0
C530 C 0.48264 0.58855 0.41037 0.0
C531 C 0.49066 0.57772 0.44315 0.0
H532 H 0.11005 0.41932 0.84209 0.0
H533 H 0.21027 0.465 0.90121 0.0
H534 H 0.07719 0.45606 0.87611 0.0
H535 H 0.17748 0.50161 0.93522 0.0
H536 H 0.11378 0.58672 0.96233 0.0
H537 H 0.14674 0.55186 0.92607 0.0
H538 H 0.05747 0.45914 0.93969 0.0
H539 H 0.02458 0.49399 0.97598 0.0
C540 C 0.1251 0.43747 0.8621 0.0
C541 C 0.16266 0.43928 0.86909 0.0
C542 C 0.10625 0.45824 0.88174 0.0
C543 C 0.12477 0.48157 0.90838 0.0
C544 C 0.16257 0.484 0.91473 0.0
C545 C 0.18125 0.46292 0.89544 0.0
C546 C 0.10126 0.55889 0.95754 0.0
C547 C 0.06673 0.54299 0.97196 0.0
C548 C 0.12015 0.53895 0.93692 0.0
C549 C 0.1046 0.50283 0.92999 0.0
C550 C 0.06992 0.487 0.9443 0.0
C551 C 0.05125 0.50686 0.96526 0.0
H552 H 0.70049 0.87562 1.00107 0.0
H553 H 0.7493 0.96355 0.9374 0.0
H554 H 0.66672 0.91201 0.03381 0.0
H555 H 0.7148 1.00019 0.96994 0.0
H556 H 0.65376 0.05803 0.05144 0.0
H557 H 0.70023 0.02777 0.02904 0.0
H558 H 0.61356 0.93256 0.01109 0.0
H559 H 0.56786 0.96215 0.03315 0.0
C560 C 0.70449 0.90302 0.99458 0.0
C561 C 0.72703 0.91672 0.96649 0.0
C562 C 0.6851 0.92382 0.01321 0.0
C563 C 0.68753 0.95874 1.00398 0.0
C564 C 0.71243 0.97338 0.97767 0.0
C565 C 0.73212 0.95247 0.95905 0.0
C566 C 0.64485 0.03058 0.0429 0.0
C567 C 0.6071 0.01255 0.04399 0.0
C568 C 0.67137 0.01335 0.02999 0.0
C569 C 0.66058 0.9777 0.01864 0.0
C570 C 0.62293 0.95983 0.02019 0.0
C571 C 0.59661 0.97698 0.03258 0.0
H572 H 0.77918 0.15916 0.49534 0.0
H573 H 0.83576 0.17432 0.39659 0.0
H574 H 0.82403 0.12927 0.51641 0.0
H575 H 0.88038 0.14232 0.41747 0.0
H576 H 0.97476 0.11599 0.48932 0.0
H577 H 0.93209 0.14522 0.45991 0.0
H578 H 0.83905 0.07437 0.50794 0.0
H579 H 0.8813 0.04664 0.53783 0.0
C580 C 0.80137 0.15631 0.47804 0.0
C581 C 0.80392 0.16972 0.4443 0.0
C582 C 0.82691 0.1385 0.49002 0.0
C583 C 0.85577 0.13286 0.46859 0.0
C584 C 0.85862 0.14626 0.43477 0.0
C585 C 0.83285 0.16433 0.42269 0.0
C586 C 0.94512 0.10648 0.493 0.0
C587 C 0.93135 0.07933 0.51616 0.0
C588 C 0.92065 0.12316 0.47619 0.0
C589 C 0.88205 0.11276 0.48214 0.0
C590 C 0.86855 0.08396 0.50351 0.0
C591 C 0.89281 0.0678 0.52049 0.0
H592 H 0.26642 0.68288 0.21826 0.0
H593 H 0.30927 0.70989 0.11554 0.0
H594 H 0.20442 0.6572 0.19268 0.0
H595 H 0.24778 0.68339 0.09003 0.0
H596 H 0.14467 0.58106 0.071 0.0
H597 H 0.20488 0.60974 0.0977 0.0
H598 H 0.15733 0.68939 0.14593 0.0
H599 H 0.09708 0.66136 0.11843 0.0
C600 C 0.26244 0.68332 0.1903 0.0
C601 C 0.29226 0.69836 0.16876 0.0
C602 C 0.22719 0.66884 0.17578 0.0
C603 C 0.22173 0.66854 0.13954 0.0
C604 C 0.25156 0.68349 0.11806 0.0
C605 C 0.2865 0.69863 0.1326 0.0
C606 C 0.14706 0.60471 0.08726 0.0
C607 C 0.11632 0.61908 0.09263 0.0
C608 C 0.18141 0.62104 0.10241 0.0
C609 C 0.18533 0.6515 0.12381 0.0
C610 C 0.15466 0.66578 0.12955 0.0
C611 C 0.12043 0.6499 0.11371 0.0
H612 H 0.26812 0.37863 0.65269 0.0
H613 H 0.2545 0.47369 0.70579 0.0
H614 H 0.32043 0.4128 0.62107 0.0
H615 H 0.30762 0.50819 0.67399 0.0
H616 H 0.39457 0.482 0.54818 0.0
H617 H 0.33575 0.45623 0.57622 0.0
H618 H 0.37575 0.51552 0.67153 0.0
H619 H 0.43447 0.54192 0.64306 0.0
C620 C 0.27579 0.40697 0.65712 0.0
C621 C 0.25677 0.42344 0.68152 0.0
C622 C 0.30591 0.42661 0.63896 0.0
C623 C 0.318 0.46329 0.64473 0.0
C624 C 0.29905 0.47994 0.66909 0.0
C625 C 0.26868 0.4602 0.68728 0.0
C626 C 0.39056 0.48993 0.57495 0.0
C627 C 0.41917 0.51355 0.59361 0.0
C628 C 0.35696 0.47506 0.59107 0.0
C629 C 0.35132 0.48336 0.62629 0.0
C630 C 0.37917 0.50867 0.64434 0.0
C631 C 0.41283 0.52369 0.62811 0.0
H632 H 0.84751 0.78226 0.92976 0.0
H633 H 0.9556 0.8554 0.92901 0.0
H634 H 0.87426 0.7389 0.95689 0.0
H635 H 0.98257 0.8116 0.95609 0.0
H636 H 0.01929 0.70662 0.9658 0.0
H637 H 0.99524 0.75386 0.94215 0.0
H638 H 0.902 0.72843 0.01205 0.0
H639 H 0.92587 0.68088 0.03529 0.0
C640 C 0.87695 0.7893 0.9358 0.0
C641 C 0.89934 0.82252 0.92752 0.0
C642 C 0.8923 0.76437 0.95138 0.0
C643 C 0.9305 0.77186 0.95897 0.0
C644 C 0.95306 0.80492 0.95038 0.0
C645 C 0.93764 0.82999 0.93483 0.0
C646 C 0.99382 0.71137 0.97629 0.0
C647 C 0.97431 0.69002 1.00223 0.0
C648 C 0.98014 0.73853 0.96287 0.0
C649 C 0.94658 0.7448 0.97504 0.0
C650 C 0.92764 0.72395 1.00172 0.0
C651 C 0.94139 0.69687 0.01519 0.0
H652 H 0.45539 0.78243 0.15989 0.0
H653 H 0.36093 0.82152 0.19159 0.0
H654 H 0.48656 0.84081 0.14028 0.0
H655 H 0.39208 0.87991 0.17183 0.0
H656 H 0.44373 0.97098 0.10145 0.0
H657 H 0.41246 0.91089 0.11746 0.0
H658 H 0.51423 0.89964 0.16492 0.0
H659 H 0.54531 0.95909 0.14855 0.0
C660 C 0.4415 0.8036 0.16315 0.0
C661 C 0.40574 0.79735 0.17743 0.0
C662 C 0.45928 0.83701 0.15173 0.0
C663 C 0.44169 0.86494 0.1543 0.0
C664 C 0.40608 0.85879 0.16887 0.0
C665 C 0.38833 0.82539 0.18035 0.0
C666 C 0.45937 0.95542 0.11497 0.0
C667 C 0.49682 0.96964 0.12394 0.0
C668 C 0.44147 0.92119 0.12437 0.0
C669 C 0.46083 0.9006 0.14266 0.0
C670 C 0.4986 0.91464 0.1506 0.0
C671 C 0.51636 0.94877 0.14137 0.0
H672 H 0.1374 0.34126 0.64238 0.0
H673 H 0.16146 0.28182 0.72843 0.0
H674 H 0.10514 0.28645 0.6119 0.0
H675 H 0.12957 0.22718 0.69801 0.0
H676 H 0.04363 0.13671 0.64801 0.0
H677 H 0.06974 0.19278 0.67848 0.0
H678 H 0.11998 0.23575 0.58277 0.0
H679 H 0.09306 0.17974 0.55192 0.0
C680 C 0.13568 0.31649 0.65482 0.0
C681 C 0.15194 0.3159 0.68785 0.0
C682 C 0.11733 0.28509 0.63731 0.0
C683 C 0.11488 0.25237 0.65241 0.0
C684 C 0.13042 0.2519 0.6858 0.0
C685 C 0.14867 0.28326 0.70331 0.0
C686 C 0.06016 0.15807 0.63333 0.0
C687 C 0.0664 0.15356 0.59748 0.0
C688 C 0.07528 0.19025 0.65091 0.0
C689 C 0.09715 0.21876 0.63317 0.0
C690 C 0.10291 0.21447 0.59718 0.0
C691 C 0.08766 0.18226 0.57952 0.0
H692 H 0.70825 0.34822 0.5408 0.0
H693 H 0.63848 0.30377 0.45245 0.0
H694 H 0.68077 0.39857 0.54333 0.0
H695 H 0.61102 0.3548 0.45447 0.0
H696 H 0.53554 0.42097 0.50811 0.0
H697 H 0.56861 0.37563 0.49392 0.0
H698 H 0.67308 0.45092 0.51615 0.0
H699 H 0.63979 0.49601 0.53095 0.0
C700 C 0.68752 0.34968 0.5214 0.0
C701 C 0.67537 0.322 0.49653 0.0
C702 C 0.67185 0.37867 0.52271 0.0
C703 C 0.64342 0.38075 0.49927 0.0
C704 C 0.63253 0.35385 0.47321 0.0
C705 C 0.6485 0.32483 0.47175 0.0
C706 C 0.5656 0.42789 0.50962 0.0
C707 C 0.58507 0.46193 0.52096 0.0
C708 C 0.58461 0.40197 0.50122 0.0
C709 C 0.62358 0.40948 0.504 0.0
C710 C 0.64306 0.44401 0.51416 0.0
C711 C 0.62402 0.46992 0.52254 0.0
loop_
_geom_bond_atom_site_label_1
_geom_bond_atom_site_label_2
_geom_bond_distance
_geom_bond_site_symmetry_2
_ccdc_geom_bond_type
H0 C1 0.949 . S
C1 H0 0.949 . S
C1 C2 1.395 . S
C1 C3 1.391 . S
C2 C1 1.395 . S
C2 C5 1.390 . S
C3 C1 1.391 . S
C3 C7 1.387 . S
C3 C8 1.491 . S
H4 C5 0.950 . S
C5 C2 1.390 . S
C5 H4 0.950 . S
C5 C6 1.378 . S
C6 C5 1.378 . S
C6 C7 1.409 . S
C7 C3 1.387 . S
C7 C6 1.409 . S
C7 H9 0.951 . S
C8 C3 1.491 . S
C8 C10 1.382 . S
C8 C12 1.404 . S
H9 C7 0.951 . S
C10 C8 1.382 . S
C10 C11 1.390 . S
C10 H15 0.949 . S
C11 C10 1.390 . S
C11 C16 1.399 . S
C12 C8 1.404 . S
C12 H13 0.950 . S
C12 C14 1.375 . S
H13 C12 0.950 . S
C14 C12 1.375 . S
C14 C16 1.382 . S
C14 H18 0.950 . S
H15 C10 0.949 . S
C16 C11 1.399 . S
C16 C14 1.382 . S
C16 H17 0.952 . S
H17 C16 0.952 . S
H18 C14 0.950 . S
H19 C20 0.949 . S
C20 H19 0.949 . S
C20 C21 1.395 . S
C20 C22 1.391 . S
C21 C20 1.395 . S
C21 C24 1.390 . S
C22 C20 1.391 . S
C22 C26 1.387 . S
C22 C27 1.491 . S
H23 C24 0.950 . S
C24 C21 1.390 . S
C24 H23 0.950 . S
C24 C25 1.378 . S
C25 C24 1.378 . S
C25 C26 1.409 . S
C26 C22 1.387 . S
C26 C25 1.409 . S
C26 H28 0.951 . S
C27 C22 1.491 . S
C27 C29 1.382 . S
C27 C31 1.404 . S
H28 C26 0.951 . S
C29 C27 1.382 . S
C29 C30 1.390 . S
C29 H34 0.949 . S
C30 C29 1.390 . S
C30 C35 1.399 . S
C31 C27 1.404 . S
C31 H32 0.950 . S
C31 C33 1.375 . S
H32 C31 0.950 . S
C33 C31 1.375 . S
C33 C35 1.382 . S
C33 H37 0.950 . S
H34 C29 0.949 . S
C35 C30 1.399 . S
C35 C33 1.382 . S
C35 H36 0.952 . S
H36 C35 0.952 . S
H37 C33 0.950 . S
H38 C39 0.949 . S
C39 H38 0.949 . S
C39 C40 1.395 . S
C39 C41 1.391 . S
C40 C39 1.395 . S
C40 C43 1.390 . S
C41 C39 1.391 . S
C41 C45 1.387 . S
C41 C46 1.491 . S
H42 C43 0.950 . S
C43 C40 1.390 . S
C43 H42 0.950 . S
C43 C44 1.378 . S
C44 C43 1.378 . S
C44 C45 1.409 . S
C45 C41 1.387 . S
C45 C44 1.409 . S
C45 H47 0.951 . S
C46 C41 1.491 . S
C46 C48 1.382 . S
C46 C50 1.404 . S
H47 C45 0.951 . S
C48 C46 1.382 . S
C48 C49 1.390 . S
C48 H53 0.949 . S
C49 C48 1.390 . S
C49 C54 1.399 . S
C50 C46 1.404 . S
C50 H51 0.950 . S
C50 C52 1.375 . S
H51 C50 0.950 . S
C52 C50 1.375 . S
C52 C54 1.382 . S
C52 H56 0.950 . S
H53 C48 0.949 . S
C54 C49 1.399 . S
C54 C52 1.382 . S
C54 H55 0.952 . S
H55 C54 0.952 . S
H56 C52 0.950 . S
H57 C58 0.949 . S
C58 H57 0.949 . S
C58 C59 1.395 . S
C58 C60 1.391 . S
C59 C58 1.395 . S
C59 C62 1.390 . S
C60 C58 1.391 . S
C60 C64 1.387 . S
C60 C65 1.491 . S
H61 C62 0.950 . S
C62 C59 1.390 . S
C62 H61 0.950 . S
C62 C63 1.378 . S
C63 C62 1.378 . S
C63 C64 1.409 . S
C64 C60 1.387 . S
C64 C63 1.409 . S
C64 H66 0.951 . S
C65 C60 1.491 . S
C65 C67 1.382 . S
C65 C69 1.404 . S
H66 C64 0.951 . S
C67 C65 1.382 . S
C67 C68 1.390 . S
C67 H72 0.949 . S
C68 C67 1.390 . S
C68 C73 1.399 . S
C69 C65 1.404 . S
C69 H70 0.950 . S
C69 C71 1.375 . S
H70 C69 0.950 . S
C71 C69 1.375 . S
C71 C73 1.382 . S
C71 H75 0.950 . S
H72 C67 0.949 . S
C73 C68 1.399 . S
C73 C71 1.382 . S
C73 H74 0.952 . S
H74 C73 0.952 . S
H75 C71 0.950 . S
H76 C77 0.949 . S
C77 H76 0.949 . S
C77 C78 1.395 . S
C77 C79 1.391 . S
C78 C77 1.395 . S
C78 C81 1.390 . S
C79 C77 1.391 . S
C79 C83 1.387 . S
C79 C84 1.491 . S
H80 C81 0.950 . S
C81 C78 1.390 . S
C81 H80 0.950 . S
C81 C82 1.378 . S
C82 C81 1.378 . S
C82 C83 1.409 . S
C83 C79 1.387 . S
C83 C82 1.409 . S
C83 H85 0.951 . S
C84 C79 1.491 . S
C84 C86 1.382 . S
C84 C88 1.404 . S
H85 C83 0.951 . S
C86 C84 1.382 . S
C86 C87 1.390 . S
C86 H91 0.949 . S
C87 C86 1.390 . S
C87 C92 1.399 . S
C88 C84 1.404 . S
C88 H89 0.950 . S
C88 C90 1.375 . S
H89 C88 0.950 . S
C90 C88 1.375 . S
C90 C92 1.382 . S
C90 H94 0.950 . S
H91 C86 0.949 . S
C92 C87 1.399 . S
C92 C90 1.382 . S
C92 H93 0.952 . S
H93 C92 0.952 . S
H94 C90 0.950 . S
H95 C96 0.949 . S
C96 H95 0.949 . S
C96 C97 1.395 . S
C96 C98 1.391 . S
C97 C96 1.395 . S
C97 C100 1.390 . S
C98 C96 1.391 . S
C98 C102 1.387 . S
C98 C103 1.491 . S
H99 C100 0.950 . S
C100 C97 1.390 . S
C100 H99 0.950 . S
C100 C101 1.378 . S
C101 C100 1.378 . S
C101 C102 1.409 . S
C102 C98 1.387 . S
C102 C101 1.409 . S
C102 H104 0.951 . S
C103 C98 1.491 . S
C103 C105 1.382 . S
C103 C107 1.404 . S
H104 C102 0.951 . S
C105 C103 1.382 . S
C105 C106 1.390 . S
C105 H110 0.949 . S
C106 C105 1.390 . S
C106 C111 1.399 . S
C107 C103 1.404 . S
C107 H108 0.950 . S
C107 C109 1.375 . S
H108 C107 0.950 . S
C109 C107 1.375 . S
C109 C111 1.382 . S
C109 H113 0.950 . S
H110 C105 0.949 . S
C111 C106 1.399 . S
C111 C109 1.382 . S
C111 H112 0.952 . S
H112 C111 0.952 . S
H113 C109 0.950 . S
H114 C115 0.949 . S
C115 H114 0.949 . S
C115 C116 1.395 . S
C115 C117 1.391 . S
C116 C115 1.395 . S
C116 C119 1.390 . S
C117 C115 1.391 . S
C117 C121 1.387 . S
C117 C122 1.491 . S
H118 C119 0.950 . S
C119 C116 1.390 . S
C119 H118 0.950 . S
C119 C120 1.378 . S
C120 C119 1.378 . S
C120 C121 1.409 . S
C121 C117 1.387 . S
C121 C120 1.409 . S
C121 H123 0.951 . S
C122 C117 1.491 . S
C122 C124 1.382 . S
C122 C126 1.404 . S
H123 C121 0.951 . S
C124 C122 1.382 . S
C124 C125 1.390 . S
C124 H129 0.949 . S
C125 C124 1.390 . S
C125 C130 1.399 . S
C126 C122 1.404 . S
C126 H127 0.950 . S
C126 C128 1.375 . S
H127 C126 0.950 . S
C128 C126 1.375 . S
C128 C130 1.382 . S
C128 H132 0.950 . S
H129 C124 0.949 . S
C130 C125 1.399 . S
C130 C128 1.382 . S
C130 H131 0.952 . S
H131 C130 0.952 . S
H132 C128 0.950 . S
H133 C134 0.949 . S
C134 H133 0.949 . S
C134 C135 1.395 . S
C134 C136 1.391 . S
C135 C134 1.395 . S
C135 C138 1.390 . S
C136 C134 1.391 . S
C136 C140 1.387 . S
C136 C141 1.491 . S
H137 C138 0.950 . S
C138 C135 1.390 . S
C138 H137 0.950 . S
C138 C139 1.378 . S
C139 C138 1.378 . S
C139 C140 1.409 . S
C140 C136 1.387 . S
C140 C139 1.409 . S
C140 H142 0.951 . S
C141 C136 1.491 . S
C141 C143 1.382 . S
C141 C145 1.404 . S
H142 C140 0.951 . S
C143 C141 1.382 . S
C143 C144 1.390 . S
C143 H148 0.949 . S
C144 C143 1.390 . S
C144 C149 1.399 . S
C145 C141 1.404 . S
C145 H146 0.950 . S
C145 C147 1.375 . S
H146 C145 0.950 . S
C147 C145 1.375 . S
C147 C149 1.382 . S
C147 H151 0.950 . S
H148 C143 0.949 . S
C149 C144 1.399 . S
C149 C147 1.382 . S
C149 H150 0.952 . S
H150 C149 0.952 . S
H151 C147 0.950 . S
Dy152 O156 2.398 . S
Dy152 O157 2.491 . S
Dy152 O158 2.403 . S
Dy152 O159 2.664 . S
Dy152 O163 2.326 . S
Dy152 O167 2.310 1_455 S
Dy152 O168 2.351 1_445 S
C153 O164 1.185 . S
C153 O165 1.355 . S
C154 O156 1.185 . S
C154 O157 1.355 . S
Dy155 O159 2.310 1_655 S
Dy155 O162 2.351 1_655 S
Dy155 O164 2.398 1_545 S
Dy155 O165 2.491 1_545 S
Dy155 O166 2.403 . S
Dy155 O167 2.664 . S
Dy155 O169 2.326 1_545 S
O156 Dy152 2.398 . S
O156 C154 1.185 . S
O157 Dy152 2.491 . S
O157 C154 1.355 . S
O158 Dy152 2.403 . S
O158 C160 1.254 . S
O159 Dy152 2.664 . S
O159 Dy155 2.310 1_455 S
O159 C160 1.268 . S
C160 O158 1.254 . S
C160 O159 1.268 . S
C161 O166 1.254 . S
C161 O167 1.268 . S
O162 Dy155 2.351 1_455 S
O162 C170 1.249 . S
O163 Dy152 2.326 . S
O163 C170 1.267 . S
O164 C153 1.185 . S
O164 Dy155 2.398 1_565 S
O165 C153 1.355 . S
O165 Dy155 2.491 1_565 S
O166 Dy155 2.403 . S
O166 C161 1.254 . S
O167 Dy152 2.310 1_655 S
O167 Dy155 2.664 . S
O167 C161 1.268 . S
O168 Dy152 2.351 1_665 S
O168 C171 1.249 . S
O169 Dy155 2.326 1_565 S
O169 C171 1.267 . S
C170 O162 1.249 . S
C170 O163 1.267 . S
C171 O168 1.249 . S
C171 O169 1.267 . S
Dy172 O176 2.398 . S
Dy172 O177 2.491 . S
Dy172 O178 2.403 1_545 S
Dy172 O179 2.664 1_545 S
Dy172 O183 2.326 . S
Dy172 O187 2.310 . S
Dy172 O188 2.351 . S
C173 O184 1.185 1_565 S
C173 O185 1.355 1_556 S
C174 O176 1.185 . S
C174 O177 1.355 . S
Dy175 O179 2.310 1_545 S
Dy175 O182 2.351 . S
Dy175 O184 2.398 1_554 S
Dy175 O185 2.491 1_545 S
Dy175 O186 2.403 . S
Dy175 O187 2.664 . S
Dy175 O189 2.326 . S
O176 Dy172 2.398 . S
O176 C174 1.185 . S
O177 Dy172 2.491 . S
O177 C174 1.355 . S
O178 Dy172 2.403 1_565 S
O178 C180 1.254 . S
O179 Dy172 2.664 1_565 S
O179 Dy175 2.310 1_565 S
O179 C180 1.268 . S
C180 O178 1.254 . S
C180 O179 1.268 . S
C181 O186 1.254 . S
C181 O187 1.268 . S
O182 Dy175 2.351 . S
O182 C190 1.249 . S
O183 Dy172 2.326 . S
O183 C190 1.267 . S
O184 C173 1.185 1_545 S
O184 Dy175 2.398 1_556 S
O185 C173 1.355 1_554 S
O185 Dy175 2.491 1_565 S
O186 Dy175 2.403 . S
O186 C181 1.254 . S
O187 Dy172 2.310 . S
O187 Dy175 2.664 . S
O187 C181 1.268 . S
O188 Dy172 2.351 . S
O188 C191 1.249 1_545 S
O189 Dy175 2.326 . S
O189 C191 1.267 1_545 S
C190 O182 1.249 . S
C190 O183 1.267 . S
C191 O188 1.249 1_565 S
C191 O189 1.267 1_565 S
Dy192 O196 2.398 . S
Dy192 O197 2.491 . S
Dy192 O198 2.403 . S
Dy192 O199 2.664 . S
Dy192 O203 2.326 . S
Dy192 O207 2.310 . S
Dy192 O208 2.351 . S
C193 O204 1.185 . S
C193 O205 1.355 . S
C194 O196 1.185 . S
C194 O197 1.355 . S
Dy195 O199 2.310 . S
Dy195 O202 2.351 . S
Dy195 O204 2.398 . S
Dy195 O205 2.491 . S
Dy195 O206 2.403 . S
Dy195 O207 2.664 . S
Dy195 O209 2.326 . S
O196 Dy192 2.398 . S
O196 C194 1.185 . S
O197 Dy192 2.491 . S
O197 C194 1.355 . S
O198 Dy192 2.403 . S
O198 C200 1.254 . S
O199 Dy192 2.664 . S
O199 Dy195 2.310 . S
O199 C200 1.268 . S
C200 O198 1.254 . S
C200 O199 1.268 . S
C201 O206 1.254 . S
C201 O207 1.268 . S
O202 Dy195 2.351 . S
O202 C210 1.249 . S
O203 Dy192 2.326 . S
O203 C210 1.267 . S
O204 C193 1.185 . S
O204 Dy195 2.398 . S
O205 C193 1.355 . S
O205 Dy195 2.491 . S
O206 Dy195 2.403 . S
O206 C201 1.254 . S
O207 Dy192 2.310 . S
O207 Dy195 2.664 . S
O207 C201 1.268 . S
O208 Dy192 2.351 . S
O208 C211 1.249 . S
O209 Dy195 2.326 . S
O209 C211 1.267 . S
C210 O202 1.249 . S
C210 O203 1.267 . S
C211 O208 1.249 . S
C211 O209 1.267 . S
Dy212 O216 2.398 . S
Dy212 O217 2.491 . S
Dy212 O218 2.403 . S
Dy212 O219 2.664 . S
Dy212 O223 2.326 . S
Dy212 O227 2.281 1_554 S
Dy212 O228 2.351 1_455 S
C213 O224 1.185 . S
C213 O225 1.355 1_556 S
C214 O216 1.185 . S
C214 O217 1.355 . S
Dy215 O219 2.310 . S
Dy215 O222 2.351 . S
Dy215 O224 2.398 1_454 S
Dy215 O225 2.491 1_455 S
Dy215 O226 2.403 1_554 S
Dy215 O227 2.664 1_554 S
Dy215 O229 2.326 1_454 S
O216 Dy212 2.398 . S
O216 C214 1.185 . S
O217 Dy212 2.491 . S
O217 C214 1.355 . S
O218 Dy212 2.403 . S
O218 C220 1.254 1_455 S
O219 Dy212 2.664 . S
O219 Dy215 2.310 . S
O219 C220 1.268 1_455 S
C220 O218 1.254 1_655 S
C220 O219 1.268 1_655 S
C221 O226 1.254 . S
C221 O227 1.301 . S
O222 Dy215 2.351 . S
O222 C230 1.249 . S
O223 Dy212 2.326 . S
O223 C230 1.267 . S
O224 C213 1.185 . S
O224 Dy215 2.398 1_656 S
O225 C213 1.355 1_554 S
O225 Dy215 2.491 1_655 S
O226 Dy215 2.403 1_556 S
O226 C221 1.254 . S
O227 Dy212 2.281 1_556 S
O227 Dy215 2.664 1_556 S
O227 C221 1.301 . S
O228 Dy212 2.351 1_655 S
O228 C231 1.249 1_554 S
O229 Dy215 2.326 1_656 S
O229 C231 1.267 . S
C230 O222 1.249 . S
C230 O223 1.267 . S
C231 O228 1.249 1_556 S
C231 O229 1.267 . S
H232 C240 0.950 . S
H233 C245 0.950 . S
H234 C242 0.950 . S
H235 C244 0.950 . S
H236 C246 0.950 . S
H237 C248 0.950 . S
H238 C250 0.950 . S
H239 C251 0.950 . S
C240 H232 0.950 . S
C240 C241 1.386 . S
C240 C242 1.391 . S
C241 C240 1.386 . S
C241 C245 1.393 . S
C242 H234 0.950 . S
C242 C240 1.391 . S
C242 C243 1.400 . S
C243 C242 1.400 . S
C243 C244 1.398 . S
C243 C249 1.491 . S
C244 H235 0.950 . S
C244 C243 1.398 . S
C244 C245 1.391 . S
C245 H233 0.950 . S
C245 C241 1.393 . S
C245 C244 1.391 . S
C246 H236 0.950 . S
C246 C247 1.386 . S
C246 C248 1.391 . S
C247 C246 1.386 . S
C247 C251 1.393 . S
C248 H237 0.950 . S
C248 C246 1.391 . S
C248 C249 1.400 . S
C249 C243 1.491 . S
C249 C248 1.400 . S
C249 C250 1.398 . S
C250 H238 0.950 . S
C250 C249 1.398 . S
C250 C251 1.391 . S
C251 H239 0.950 . S
C251 C247 1.393 . S
C251 C250 1.391 . S
H252 C260 0.950 . S
H253 C265 0.950 . S
H254 C262 0.950 . S
H255 C264 0.950 . S
H256 C266 0.950 . S
H257 C268 0.950 . S
H258 C270 0.950 . S
H259 C271 0.950 . S
C260 H252 0.950 . S
C260 C261 1.386 . S
C260 C262 1.391 . S
C261 C260 1.386 . S
C261 C265 1.393 . S
C262 H254 0.950 . S
C262 C260 1.391 . S
C262 C263 1.400 . S
C263 C262 1.400 . S
C263 C264 1.398 . S
C263 C269 1.491 . S
C264 H255 0.950 . S
C264 C263 1.398 . S
C264 C265 1.391 . S
C265 H253 0.950 . S
C265 C261 1.393 . S
C265 C264 1.391 . S
C266 H256 0.950 . S
C266 C267 1.386 . S
C266 C268 1.391 . S
C267 C266 1.386 . S
C267 C271 1.393 . S
C268 H257 0.950 . S
C268 C266 1.391 . S
C268 C269 1.400 . S
C269 C263 1.491 . S
C269 C268 1.400 . S
C269 C270 1.398 . S
C270 H258 0.950 . S
C270 C269 1.398 . S
C270 C271 1.391 . S
C271 H259 0.950 . S
C271 C267 1.393 . S
C271 C270 1.391 . S
H272 C280 0.950 . S
H273 C285 0.950 . S
H274 C282 0.950 . S
H275 C284 0.950 . S
H276 C286 0.950 . S
H277 C288 0.950 . S
H278 C290 0.950 . S
H279 C291 0.950 . S
C280 H272 0.950 . S
C280 C281 1.386 . S
C280 C282 1.391 . S
C281 C280 1.386 . S
C281 C285 1.393 . S
C282 H274 0.950 . S
C282 C280 1.391 . S
C282 C283 1.400 . S
C283 C282 1.400 . S
C283 C284 1.398 . S
C283 C289 1.491 . S
C284 H275 0.950 . S
C284 C283 1.398 . S
C284 C285 1.391 . S
C285 H273 0.950 . S
C285 C281 1.393 . S
C285 C284 1.391 . S
C286 H276 0.950 . S
C286 C287 1.386 . S
C286 C288 1.391 . S
C287 C286 1.386 . S
C287 C291 1.393 . S
C288 H277 0.950 . S
C288 C286 1.391 . S
C288 C289 1.400 . S
C289 C283 1.491 . S
C289 C288 1.400 . S
C289 C290 1.398 . S
C290 H278 0.950 . S
C290 C289 1.398 . S
C290 C291 1.391 . S
C291 H279 0.950 . S
C291 C287 1.393 . S
C291 C290 1.391 . S
H292 C300 0.950 . S
H293 C305 0.950 . S
H294 C302 0.950 . S
H295 C304 0.950 . S
H296 C306 0.950 1_455 S
H297 C308 0.950 . S
H298 C310 0.950 . S
H299 C311 0.950 . S
C300 H292 0.950 . S
C300 C301 1.386 . S
C300 C302 1.391 . S
C301 C300 1.386 . S
C301 C305 1.393 . S
C302 H294 0.950 . S
C302 C300 1.391 . S
C302 C303 1.400 . S
C303 C302 1.400 . S
C303 C304 1.398 . S
C303 C309 1.491 . S
C304 H295 0.950 . S
C304 C303 1.398 . S
C304 C305 1.391 . S
C305 H293 0.950 . S
C305 C301 1.393 . S
C305 C304 1.391 . S
C306 H296 0.950 1_655 S
C306 C307 1.386 . S
C306 C308 1.391 . S
C307 C306 1.386 . S
C307 C311 1.393 . S
C308 H297 0.950 . S
C308 C306 1.391 . S
C308 C309 1.400 . S
C309 C303 1.491 . S
C309 C308 1.400 . S
C309 C310 1.398 . S
C310 H298 0.950 . S
C310 C309 1.398 . S
C310 C311 1.391 . S
C311 H299 0.950 . S
C311 C307 1.393 . S
C311 C310 1.391 . S
H312 C320 0.950 . S
H313 C325 0.950 . S
H314 C322 0.950 . S
H315 C324 0.950 . S
H316 C326 0.950 . S
H317 C328 0.950 . S
H318 C330 0.950 . S
H319 C331 0.950 . S
C320 H312 0.950 . S
C320 C321 1.386 . S
C320 C322 1.391 . S
C321 C320 1.386 . S
C321 C325 1.393 . S
C322 H314 0.950 . S
C322 C320 1.391 . S
C322 C323 1.400 . S
C323 C322 1.400 . S
C323 C324 1.398 . S
C323 C329 1.491 . S
C324 H315 0.950 . S
C324 C323 1.398 . S
C324 C325 1.391 . S
C325 H313 0.950 . S
C325 C321 1.393 . S
C325 C324 1.391 . S
C326 H316 0.950 . S
C326 C327 1.386 . S
C326 C328 1.391 . S
C327 C326 1.386 . S
C327 C331 1.393 . S
C328 H317 0.950 . S
C328 C326 1.391 . S
C328 C329 1.400 . S
C329 C323 1.491 . S
C329 C328 1.400 . S
C329 C330 1.398 . S
C330 H318 0.950 . S
C330 C329 1.398 . S
C330 C331 1.391 . S
C331 H319 0.950 . S
C331 C327 1.393 . S
C331 C330 1.391 . S
H332 C340 0.950 . S
H333 C345 0.950 . S
H334 C342 0.950 1_545 S
H335 C344 0.950 . S
H336 C346 0.950 . S
H337 C348 0.950 . S
H338 C350 0.950 . S
H339 C351 0.950 . S
C340 H332 0.950 . S
C340 C341 1.386 . S
C340 C342 1.391 . S
C341 C340 1.386 . S
C341 C345 1.393 . S
C342 H334 0.950 1_565 S
C342 C340 1.391 . S
C342 C343 1.400 . S
C343 C342 1.400 . S
C343 C344 1.398 . S
C343 C349 1.491 . S
C344 H335 0.950 . S
C344 C343 1.398 . S
C344 C345 1.391 . S
C345 H333 0.950 . S
C345 C341 1.393 . S
C345 C344 1.391 . S
C346 H336 0.950 . S
C346 C347 1.386 1_565 S
C346 C348 1.391 . S
C347 C346 1.386 1_545 S
C347 C351 1.393 . S
C348 H337 0.950 . S
C348 C346 1.391 . S
C348 C349 1.400 . S
C349 C343 1.491 . S
C349 C348 1.400 . S
C349 C350 1.398 1_565 S
C350 H338 0.950 . S
C350 C349 1.398 1_545 S
C350 C351 1.391 . S
C351 H339 0.950 . S
C351 C347 1.393 . S
C351 C350 1.391 . S
H352 C360 0.950 . S
H353 C365 0.950 . S
H354 C362 0.950 . S
H355 C364 0.950 . S
H356 C366 0.950 . S
H357 C368 0.950 . S
H358 C370 0.950 1_554 S
H359 C371 0.950 . S
C360 H352 0.950 . S
C360 C361 1.386 . S
C360 C362 1.391 . S
C361 C360 1.386 . S
C361 C365 1.393 . S
C362 H354 0.950 . S
C362 C360 1.391 . S
C362 C363 1.400 . S
C363 C362 1.400 . S
C363 C364 1.398 . S
C363 C369 1.491 . S
C364 H355 0.950 . S
C364 C363 1.398 . S
C364 C365 1.391 . S
C365 H353 0.950 . S
C365 C361 1.393 . S
C365 C364 1.391 . S
C366 H356 0.950 . S
C366 C367 1.386 . S
C366 C368 1.391 . S
C367 C366 1.386 . S
C367 C371 1.393 1_556 S
C368 H357 0.950 . S
C368 C366 1.391 . S
C368 C369 1.400 . S
C369 C363 1.491 . S
C369 C368 1.400 . S
C369 C370 1.398 . S
C370 H358 0.950 1_556 S
C370 C369 1.398 . S
C370 C371 1.391 1_556 S
C371 H359 0.950 . S
C371 C367 1.393 1_554 S
C371 C370 1.391 1_554 S
H372 C380 0.950 . S
H373 C385 0.950 . S
H374 C382 0.950 . S
H375 C384 0.950 . S
H376 C386 0.950 . S
H377 C388 0.950 . S
H378 C390 0.950 . S
H379 C391 0.950 . S
C380 H372 0.950 . S
C380 C381 1.386 . S
C380 C382 1.391 . S
C381 C380 1.386 . S
C381 C385 1.393 . S
C382 H374 0.950 . S
C382 C380 1.391 . S
C382 C383 1.400 . S
C383 C382 1.400 . S
C383 C384 1.398 . S
C383 C389 1.491 . S
C384 H375 0.950 . S
C384 C383 1.398 . S
C384 C385 1.391 . S
C385 H373 0.950 . S
C385 C381 1.393 . S
C385 C384 1.391 . S
C386 H376 0.950 . S
C386 C387 1.386 . S
C386 C388 1.391 . S
C387 C386 1.386 . S
C387 C391 1.393 . S
C388 H377 0.950 . S
C388 C386 1.391 . S
C388 C389 1.400 . S
C389 C383 1.491 . S
C389 C388 1.400 . S
C389 C390 1.398 . S
C390 H378 0.950 . S
C390 C389 1.398 . S
C390 C391 1.391 . S
C391 H379 0.950 . S
C391 C387 1.393 . S
C391 C390 1.391 . S
H392 C400 0.950 . S
H393 C405 0.950 . S
H394 C402 0.950 . S
H395 C404 0.950 . S
H396 C406 0.950 . S
H397 C408 0.950 . S
H398 C410 0.950 . S
H399 C411 0.950 . S
C400 H392 0.950 . S
C400 C401 1.386 . S
C400 C402 1.391 . S
C401 C400 1.386 . S
C401 C405 1.393 . S
C402 H394 0.950 . S
C402 C400 1.391 . S
C402 C403 1.400 . S
C403 C402 1.400 . S
C403 C404 1.398 . S
C403 C409 1.491 . S
C404 H395 0.950 . S
C404 C403 1.398 . S
C404 C405 1.391 . S
C405 H393 0.950 . S
C405 C401 1.393 . S
C405 C404 1.391 . S
C406 H396 0.950 . S
C406 C407 1.386 . S
C406 C408 1.391 . S
C407 C406 1.386 . S
C407 C411 1.393 . S
C408 H397 0.950 . S
C408 C406 1.391 . S
C408 C409 1.400 . S
C409 C403 1.491 . S
C409 C408 1.400 . S
C409 C410 1.398 . S
C410 H398 0.950 . S
C410 C409 1.398 . S
C410 C411 1.391 . S
C411 H399 0.950 . S
C411 C407 1.393 . S
C411 C410 1.391 . S
H412 C420 0.950 1_554 S
H413 C425 0.950 . S
H414 C422 0.950 . S
H415 C424 0.950 . S
H416 C426 0.950 . S
H417 C428 0.950 . S
H418 C430 0.950 . S
H419 C431 0.950 . S
C420 H412 0.950 1_556 S
C420 C421 1.386 . S
C420 C422 1.391 1_556 S
C421 C420 1.386 . S
C421 C425 1.393 . S
C422 H414 0.950 . S
C422 C420 1.391 1_554 S
C422 C423 1.400 1_554 S
C423 C422 1.400 1_556 S
C423 C424 1.398 . S
C423 C429 1.491 1_556 S
C424 H415 0.950 . S
C424 C423 1.398 . S
C424 C425 1.391 . S
C425 H413 0.950 . S
C425 C421 1.393 . S
C425 C424 1.391 . S
C426 H416 0.950 . S
C426 C427 1.386 1_556 S
C426 C428 1.391 . S
C427 C426 1.386 1_554 S
C427 C431 1.393 . S
C428 H417 0.950 . S
C428 C426 1.391 . S
C428 C429 1.400 1_556 S
C429 C423 1.491 1_554 S
C429 C428 1.400 1_554 S
C429 C430 1.398 . S
C430 H418 0.950 . S
C430 C429 1.398 . S
C430 C431 1.391 . S
C431 H419 0.950 . S
C431 C427 1.393 . S
C431 C430 1.391 . S
H432 C440 0.950 . S
H433 C445 0.950 . S
H434 C442 0.950 . S
H435 C444 0.950 . S
H436 C446 0.950 . S
H437 C448 0.950 . S
H438 C450 0.950 . S
H439 C451 0.950 . S
C440 H432 0.950 . S
C440 C441 1.386 . S
C440 C442 1.391 . S
C441 C440 1.386 . S
C441 C445 1.393 . S
C442 H434 0.950 . S
C442 C440 1.391 . S
C442 C443 1.400 . S
C443 C442 1.400 . S
C443 C444 1.398 . S
C443 C449 1.491 . S
C444 H435 0.950 . S
C444 C443 1.398 . S
C444 C445 1.391 . S
C445 H433 0.950 . S
C445 C441 1.393 . S
C445 C444 1.391 . S
C446 H436 0.950 . S
C446 C447 1.386 . S
C446 C448 1.391 . S
C447 C446 1.386 . S
C447 C451 1.393 . S
C448 H437 0.950 . S
C448 C446 1.391 . S
C448 C449 1.400 . S
C449 C443 1.491 . S
C449 C448 1.400 . S
C449 C450 1.398 . S
C450 H438 0.950 . S
C450 C449 1.398 . S
C450 C451 1.391 . S
C451 H439 0.950 . S
C451 C447 1.393 . S
C451 C450 1.391 . S
H452 C460 0.950 . S
H453 C465 0.950 . S
H454 C462 0.950 . S
H455 C464 0.950 . S
H456 C466 0.950 . S
H457 C468 0.950 . S
H458 C470 0.950 . S
H459 C471 0.950 . S
C460 H452 0.950 . S
C460 C461 1.386 . S
C460 C462 1.391 . S
C461 C460 1.386 . S
C461 C465 1.393 . S
C462 H454 0.950 . S
C462 C460 1.391 . S
C462 C463 1.400 . S
C463 C462 1.400 . S
C463 C464 1.398 . S
C463 C469 1.491 . S
C464 H455 0.950 . S
C464 C463 1.398 . S
C464 C465 1.391 . S
C465 H453 0.950 . S
C465 C461 1.393 . S
C465 C464 1.391 . S
C466 H456 0.950 . S
C466 C467 1.386 . S
C466 C468 1.391 . S
C467 C466 1.386 . S
C467 C471 1.393 . S
C468 H457 0.950 . S
C468 C466 1.391 . S
C468 C469 1.400 . S
C469 C463 1.491 . S
C469 C468 1.400 . S
C469 C470 1.398 . S
C470 H458 0.950 . S
C470 C469 1.398 . S
C470 C471 1.391 . S
C471 H459 0.950 . S
C471 C467 1.393 . S
C471 C470 1.391 . S
H472 C480 0.950 . S
H473 C485 0.950 . S
H474 C482 0.950 . S
H475 C484 0.950 . S
H476 C486 0.950 . S
H477 C488 0.950 . S
H478 C490 0.950 . S
H479 C491 0.950 . S
C480 H472 0.950 . S
C480 C481 1.386 . S
C480 C482 1.391 . S
C481 C480 1.386 . S
C481 C485 1.393 . S
C482 H474 0.950 . S
C482 C480 1.391 . S
C482 C483 1.400 . S
C483 C482 1.400 . S
C483 C484 1.398 . S
C483 C489 1.491 . S
C484 H475 0.950 . S
C484 C483 1.398 . S
C484 C485 1.391 . S
C485 H473 0.950 . S
C485 C481 1.393 . S
C485 C484 1.391 . S
C486 H476 0.950 . S
C486 C487 1.386 . S
C486 C488 1.391 . S
C487 C486 1.386 . S
C487 C491 1.393 . S
C488 H477 0.950 . S
C488 C486 1.391 . S
C488 C489 1.400 . S
C489 C483 1.491 . S
C489 C488 1.400 . S
C489 C490 1.398 . S
C490 H478 0.950 . S
C490 C489 1.398 . S
C490 C491 1.391 . S
C491 H479 0.950 . S
C491 C487 1.393 . S
C491 C490 1.391 . S
H492 C500 0.950 . S
H493 C505 0.950 . S
H494 C502 0.950 . S
H495 C504 0.950 . S
H496 C506 0.950 . S
H497 C508 0.950 . S
H498 C510 0.950 . S
H499 C511 0.950 . S
C500 H492 0.950 . S
C500 C501 1.386 . S
C500 C502 1.391 . S
C501 C500 1.386 . S
C501 C505 1.393 . S
C502 H494 0.950 . S
C502 C500 1.391 . S
C502 C503 1.400 . S
C503 C502 1.400 . S
C503 C504 1.398 . S
C503 C509 1.491 . S
C504 H495 0.950 . S
C504 C503 1.398 . S
C504 C505 1.391 . S
C505 H493 0.950 . S
C505 C501 1.393 . S
C505 C504 1.391 . S
C506 H496 0.950 . S
C506 C507 1.386 . S
C506 C508 1.391 . S
C507 C506 1.386 . S
C507 C511 1.393 . S
C508 H497 0.950 . S
C508 C506 1.391 . S
C508 C509 1.400 . S
C509 C503 1.491 . S
C509 C508 1.400 . S
C509 C510 1.398 . S
C510 H498 0.950 . S
C510 C509 1.398 . S
C510 C511 1.391 . S
C511 H499 0.950 . S
C511 C507 1.393 . S
C511 C510 1.391 . S
H512 C520 0.950 . S
H513 C525 0.950 . S
H514 C522 0.950 . S
H515 C524 0.950 . S
H516 C526 0.950 . S
H517 C528 0.950 . S
H518 C530 0.950 . S
H519 C531 0.950 . S
C520 H512 0.950 . S
C520 C521 1.386 . S
C520 C522 1.391 . S
C521 C520 1.386 . S
C521 C525 1.393 . S
C522 H514 0.950 . S
C522 C520 1.391 . S
C522 C523 1.400 . S
C523 C522 1.400 . S
C523 C524 1.398 . S
C523 C529 1.491 . S
C524 H515 0.950 . S
C524 C523 1.398 . S
C524 C525 1.391 . S
C525 H513 0.950 . S
C525 C521 1.393 . S
C525 C524 1.391 . S
C526 H516 0.950 . S
C526 C527 1.386 . S
C526 C528 1.391 . S
C527 C526 1.386 . S
C527 C531 1.393 . S
C528 H517 0.950 . S
C528 C526 1.391 . S
C528 C529 1.400 . S
C529 C523 1.491 . S
C529 C528 1.400 . S
C529 C530 1.398 . S
C530 H518 0.950 . S
C530 C529 1.398 . S
C530 C531 1.391 . S
C531 H519 0.950 . S
C531 C527 1.393 . S
C531 C530 1.391 . S
H532 C540 0.950 . S
H533 C545 0.950 . S
H534 C542 0.950 . S
H535 C544 0.950 . S
H536 C546 0.950 . S
H537 C548 0.950 . S
H538 C550 0.950 . S
H539 C551 0.950 . S
C540 H532 0.950 . S
C540 C541 1.386 . S
C540 C542 1.391 . S
C541 C540 1.386 . S
C541 C545 1.393 . S
C542 H534 0.950 . S
C542 C540 1.391 . S
C542 C543 1.400 . S
C543 C542 1.400 . S
C543 C544 1.398 . S
C543 C549 1.491 . S
C544 H535 0.950 . S
C544 C543 1.398 . S
C544 C545 1.391 . S
C545 H533 0.950 . S
C545 C541 1.393 . S
C545 C544 1.391 . S
C546 H536 0.950 . S
C546 C547 1.386 . S
C546 C548 1.391 . S
C547 C546 1.386 . S
C547 C551 1.393 . S
C548 H537 0.950 . S
C548 C546 1.391 . S
C548 C549 1.400 . S
C549 C543 1.491 . S
C549 C548 1.400 . S
C549 C550 1.398 . S
C550 H538 0.950 . S
C550 C549 1.398 . S
C550 C551 1.391 . S
C551 H539 0.950 . S
C551 C547 1.393 . S
C551 C550 1.391 . S
H552 C560 0.950 . S
H553 C565 0.950 . S
H554 C562 0.950 . S
H555 C564 0.950 . S
H556 C566 0.950 . S
H557 C568 0.950 . S
H558 C570 0.950 . S
H559 C571 0.950 . S
C560 H552 0.950 . S
C560 C561 1.386 . S
C560 C562 1.391 . S
C561 C560 1.386 . S
C561 C565 1.393 . S
C562 H554 0.950 . S
C562 C560 1.391 . S
C562 C563 1.400 . S
C563 C562 1.400 . S
C563 C564 1.398 . S
C563 C569 1.491 . S
C564 H555 0.950 . S
C564 C563 1.398 . S
C564 C565 1.391 . S
C565 H553 0.950 . S
C565 C561 1.393 . S
C565 C564 1.391 . S
C566 H556 0.950 . S
C566 C567 1.386 . S
C566 C568 1.391 . S
C567 C566 1.386 . S
C567 C571 1.393 1_554 S
C568 H557 0.950 . S
C568 C566 1.391 . S
C568 C569 1.400 1_554 S
C569 C563 1.491 . S
C569 C568 1.400 1_556 S
C569 C570 1.398 . S
C570 H558 0.950 . S
C570 C569 1.398 . S
C570 C571 1.391 . S
C571 H559 0.950 . S
C571 C567 1.393 1_556 S
C571 C570 1.391 . S
H572 C580 0.950 . S
H573 C585 0.950 . S
H574 C582 0.950 . S
H575 C584 0.950 . S
H576 C586 0.950 . S
H577 C588 0.950 . S
H578 C590 0.950 . S
H579 C591 0.950 . S
C580 H572 0.950 . S
C580 C581 1.386 . S
C580 C582 1.391 . S
C581 C580 1.386 . S
C581 C585 1.393 . S
C582 H574 0.950 . S
C582 C580 1.391 . S
C582 C583 1.400 . S
C583 C582 1.400 . S
C583 C584 1.398 . S
C583 C589 1.491 . S
C584 H575 0.950 . S
C584 C583 1.398 . S
C584 C585 1.391 . S
C585 H573 0.950 . S
C585 C581 1.393 . S
C585 C584 1.391 . S
C586 H576 0.950 . S
C586 C587 1.386 . S
C586 C588 1.391 . S
C587 C586 1.386 . S
C587 C591 1.393 . S
C588 H577 0.950 . S
C588 C586 1.391 . S
C588 C589 1.400 . S
C589 C583 1.491 . S
C589 C588 1.400 . S
C589 C590 1.398 . S
C590 H578 0.950 . S
C590 C589 1.398 . S
C590 C591 1.391 . S
C591 H579 0.950 . S
C591 C587 1.393 . S
C591 C590 1.391 . S
H592 C600 0.950 . S
H593 C605 0.950 . S
H594 C602 0.950 . S
H595 C604 0.950 . S
H596 C606 0.950 . S
H597 C608 0.950 . S
H598 C610 0.950 . S
H599 C611 0.950 . S
C600 H592 0.950 . S
C600 C601 1.386 . S
C600 C602 1.391 . S
C601 C600 1.386 . S
C601 C605 1.393 . S
C602 H594 0.950 . S
C602 C600 1.391 . S
C602 C603 1.400 . S
C603 C602 1.400 . S
C603 C604 1.398 . S
C603 C609 1.491 . S
C604 H595 0.950 . S
C604 C603 1.398 . S
C604 C605 1.391 . S
C605 H593 0.950 . S
C605 C601 1.393 . S
C605 C604 1.391 . S
C606 H596 0.950 . S
C606 C607 1.386 . S
C606 C608 1.391 . S
C607 C606 1.386 . S
C607 C611 1.393 . S
C608 H597 0.950 . S
C608 C606 1.391 . S
C608 C609 1.400 . S
C609 C603 1.491 . S
C609 C608 1.400 . S
C609 C610 1.398 . S
C610 H598 0.950 . S
C610 C609 1.398 . S
C610 C611 1.391 . S
C611 H599 0.950 . S
C611 C607 1.393 . S
C611 C610 1.391 . S
H612 C620 0.950 . S
H613 C625 0.950 . S
H614 C622 0.950 . S
H615 C624 0.950 . S
H616 C626 0.950 . S
H617 C628 0.950 . S
H618 C630 0.950 . S
H619 C631 0.950 . S
C620 H612 0.950 . S
C620 C621 1.386 . S
C620 C622 1.391 . S
C621 C620 1.386 . S
C621 C625 1.393 . S
C622 H614 0.950 . S
C622 C620 1.391 . S
C622 C623 1.400 . S
C623 C622 1.400 . S
C623 C624 1.398 . S
C623 C629 1.491 . S
C624 H615 0.950 . S
C624 C623 1.398 . S
C624 C625 1.391 . S
C625 H613 0.950 . S
C625 C621 1.393 . S
C625 C624 1.391 . S
C626 H616 0.950 . S
C626 C627 1.386 . S
C626 C628 1.391 . S
C627 C626 1.386 . S
C627 C631 1.393 . S
C628 H617 0.950 . S
C628 C626 1.391 . S
C628 C629 1.400 . S
C629 C623 1.491 . S
C629 C628 1.400 . S
C629 C630 1.398 . S
C630 H618 0.950 . S
C630 C629 1.398 . S
C630 C631 1.391 . S
C631 H619 0.950 . S
C631 C627 1.393 . S
C631 C630 1.391 . S
H632 C640 0.950 . S
H633 C645 0.950 . S
H634 C642 0.950 . S
H635 C644 0.950 . S
H636 C646 0.950 . S
H637 C648 0.950 . S
H638 C650 0.950 . S
H639 C651 0.950 . S
C640 H632 0.950 . S
C640 C641 1.386 . S
C640 C642 1.391 . S
C641 C640 1.386 . S
C641 C645 1.393 . S
C642 H634 0.950 . S
C642 C640 1.391 . S
C642 C643 1.400 . S
C643 C642 1.400 . S
C643 C644 1.398 . S
C643 C649 1.491 . S
C644 H635 0.950 . S
C644 C643 1.398 . S
C644 C645 1.391 . S
C645 H633 0.950 . S
C645 C641 1.393 . S
C645 C644 1.391 . S
C646 H636 0.950 . S
C646 C647 1.386 . S
C646 C648 1.391 . S
C647 C646 1.386 . S
C647 C651 1.393 . S
C648 H637 0.950 . S
C648 C646 1.391 . S
C648 C649 1.400 . S
C649 C643 1.491 . S
C649 C648 1.400 . S
C649 C650 1.398 . S
C650 H638 0.950 . S
C650 C649 1.398 . S
C650 C651 1.391 . S
C651 H639 0.950 . S
C651 C647 1.393 . S
C651 C650 1.391 . S
H652 C660 0.950 . S
H653 C665 0.950 . S
H654 C662 0.950 . S
H655 C664 0.950 . S
H656 C666 0.950 . S
H657 C668 0.950 . S
H658 C670 0.950 . S
H659 C671 0.950 . S
C660 H652 0.950 . S
C660 C661 1.386 . S
C660 C662 1.391 . S
C661 C660 1.386 . S
C661 C665 1.393 . S
C662 H654 0.950 . S
C662 C660 1.391 . S
C662 C663 1.400 . S
C663 C662 1.400 . S
C663 C664 1.398 . S
C663 C669 1.491 . S
C664 H655 0.950 . S
C664 C663 1.398 . S
C664 C665 1.391 . S
C665 H653 0.950 . S
C665 C661 1.393 . S
C665 C664 1.391 . S
C666 H656 0.950 . S
C666 C667 1.386 . S
C666 C668 1.391 . S
C667 C666 1.386 . S
C667 C671 1.393 . S
C668 H657 0.950 . S
C668 C666 1.391 . S
C668 C669 1.400 . S
C669 C663 1.491 . S
C669 C668 1.400 . S
C669 C670 1.398 . S
C670 H658 0.950 . S
C670 C669 1.398 . S
C670 C671 1.391 . S
C671 H659 0.950 . S
C671 C667 1.393 . S
C671 C670 1.391 . S
H672 C680 0.950 . S
H673 C685 0.950 . S
H674 C682 0.950 . S
H675 C684 0.950 . S
H676 C686 0.950 . S
H677 C688 0.950 . S
H678 C690 0.950 . S
H679 C691 0.950 . S
C680 H672 0.950 . S
C680 C681 1.386 . S
C680 C682 1.391 . S
C681 C680 1.386 . S
C681 C685 1.393 . S
C682 H674 0.950 . S
C682 C680 1.391 . S
C682 C683 1.400 . S
C683 C682 1.400 . S
C683 C684 1.398 . S
C683 C689 1.491 . S
C684 H675 0.950 . S
C684 C683 1.398 . S
C684 C685 1.391 . S
C685 H673 0.950 . S
C685 C681 1.393 . S
C685 C684 1.391 . S
C686 H676 0.950 . S
C686 C687 1.386 . S
C686 C688 1.391 . S
C687 C686 1.386 . S
C687 C691 1.393 . S
C688 H677 0.950 . S
C688 C686 1.391 . S
C688 C689 1.400 . S
C689 C683 1.491 . S
C689 C688 1.400 . S
C689 C690 1.398 . S
C690 H678 0.950 . S
C690 C689 1.398 . S
C690 C691 1.391 . S
C691 H679 0.950 . S
C691 C687 1.393 . S
C691 C690 1.391 . S
H692 C700 0.950 . S
H693 C705 0.950 . S
H694 C702 0.950 . S
H695 C704 0.950 . S
H696 C706 0.950 . S
H697 C708 0.950 . S
H698 C710 0.950 . S
H699 C711 0.950 . S
C700 H692 0.950 . S
C700 C701 1.386 . S
C700 C702 1.391 . S
C701 C700 1.386 . S
C701 C705 1.393 . S
C702 H694 0.950 . S
C702 C700 1.391 . S
C702 C703 1.400 . S
C703 C702 1.400 . S
C703 C704 1.398 . S
C703 C709 1.491 . S
C704 H695 0.950 . S
C704 C703 1.398 . S
C704 C705 1.391 . S
C705 H693 0.950 . S
C705 C701 1.393 . S
C705 C704 1.391 . S
C706 H696 0.950 . S
C706 C707 1.386 . S
C706 C708 1.391 . S
C707 C706 1.386 . S
C707 C711 1.393 . S
C708 H697 0.950 . S
C708 C706 1.391 . S
C708 C709 1.400 . S
C709 C703 1.491 . S
C709 C708 1.400 . S
C709 C710 1.398 . S
C710 H698 0.950 . S
C710 C709 1.398 . S
C710 C711 1.391 . S
C711 H699 0.950 . S
C711 C707 1.393 . S
C711 C710 1.391 . S
C241 C6 1.621 . S
C247 C154 1.597 . S
C261 C21 1.815 . S
C267 C173 1.791 . S
C287 C210 1.189 . S
C281 C49 1.145 . S
C301 C68 1.359 . S
C307 C220 1.420 . S
C327 C190 2.589 . S
C321 C2 2.537 . S
C347 C160 1.154 . S
C341 C30 1.059 . S
C367 C231 1.425 . S
C361 C40 1.445 . S
C387 C201 1.230 . S
C381 C63 1.245 . S
C401 C11 1.545 . S
C407 C214 1.686 . S
C427 C181 1.892 . S
C421 C44 1.945 . S
C441 C59 1.479 . S
C447 C171 1.472 . S
C461 C25 1.446 . S
C467 C193 1.430 . S
C487 C153 1.796 . S
C481 C82 1.827 . S
C501 C101 1.603 . S
C507 C174 1.569 . S
C521 C125 1.530 . S
C527 C211 1.595 . S
C541 C144 1.136 . S
C547 C221 1.227 . S
C561 C87 1.584 . S
C567 C191 1.676 . S
C587 C161 2.127 . S
C581 C97 2.191 . S
C607 C230 1.264 . S
C601 C120 1.303 . S
C627 C200 1.239 . S
C621 C135 1.283 . S
C641 C78 1.957 . S
C647 C213 2.015 . S
C667 C180 1.331 . S
C661 C116 1.376 . S
C687 C170 1.974 . S
C681 C139 1.978 . S
C701 C106 1.209 . S
C707 C194 1.321 . S
