# Generated by pormake.
# Topology anh, (6,3)-cn, num edge types: 1
# Building blocks:
#     Node 0, Type 0, BuildingBlock: HISSIN_clean_sbu_0, # of connection points: 6
#     Node 1, Type 0, BuildingBlock: HISSIN_clean_sbu_0, # of connection points: 6
#     Node 2, Type 0, BuildingBlock: HISSIN_clean_sbu_0, # of connection points: 6
#     Node 3, Type 1, BuildingBlock: MIDCAF_clean_linker_0, # of connection points: 3
#     Node 4, Type 1, BuildingBlock: MIDCAF_clean_linker_0, # of connection points: 3
#     Node 5, Type 1, BuildingBlock: MIDCAF_clean_linker_0, # of connection points: 3
#     Node 6, Type 1, BuildingBlock: MIDCAF_clean_linker_0, # of connection points: 3
#     Node 7, Type 1, BuildingBlock: MIDCAF_clean_linker_0, # of connection points: 3
#     Node 8, Type 1, BuildingBlock: MIDCAF_clean_linker_0, # of connection points: 3
#     Edge 9, Type (0, 1), BuildingBlock: UVAHIK_clean_linker_0, # of connection points: 2
#     Edge 10, Type (0, 1), BuildingBlock: UVAHIK_clean_linker_0, # of connection points: 2
#     Edge 11, Type (0, 1), BuildingBlock: UVAHIK_clean_linker_0, # of connection points: 2
#     Edge 12, Type (0, 1), BuildingBlock: UVAHIK_clean_linker_0, # of connection points: 2
#     Edge 13, Type (0, 1), BuildingBlock: UVAHIK_clean_linker_0, # of connection points: 2
#     Edge 14, Type (0, 1), BuildingBlock: UVAHIK_clean_linker_0, # of connection points: 2
#     Edge 15, Type (0, 1), BuildingBlock: UVAHIK_clean_linker_0, # of connection points: 2
#     Edge 16, Type (0, 1), BuildingBlock: UVAHIK_clean_linker_0, # of connection points: 2
#     Edge 17, Type (0, 1), BuildingBlock: UVAHIK_clean_linker_0, # of connection points: 2
#     Edge 18, Type (0, 1), BuildingBlock: UVAHIK_clean_linker_0, # of connection points: 2
#     Edge 19, Type (0, 1), BuildingBlock: UVAHIK_clean_linker_0, # of connection points: 2
#     Edge 20, Type (0, 1), BuildingBlock: UVAHIK_clean_linker_0, # of connection points: 2
#     Edge 21, Type (0, 1), BuildingBlock: UVAHIK_clean_linker_0, # of connection points: 2
#     Edge 22, Type (0, 1), BuildingBlock: UVAHIK_clean_linker_0, # of connection points: 2
#     Edge 23, Type (0, 1), BuildingBlock: UVAHIK_clean_linker_0, # of connection points: 2
#     Edge 24, Type (0, 1), BuildingBlock: UVAHIK_clean_linker_0, # of connection points: 2
#     Edge 25, Type (0, 1), BuildingBlock: UVAHIK_clean_linker_0, # of connection points: 2
#     Edge 26, Type (0, 1), BuildingBlock: UVAHIK_clean_linker_0, # of connection points: 2
# Relax obj value: 0.203
# Max RMSD: 0.183
# Mean RMSD: 0.150
data_MOF--net-anh--node1-HISSIN_clean_sbu_0--node2-MIDCAF_clean_linker_0--edge1-UVAHIK_clean_linker_0
_symmetry_space_group_name_H-M    P1
_symmetry_Int_Tables_number       1
_symmetry_cell_setting            triclinic
loop_
_symmetry_equiv_pos_as_xyz
'x, y, z'
_cell_length_a     45.198352
_cell_length_b     45.128225
_cell_length_c     81.539173
_cell_angle_alpha  92.864087
_cell_angle_beta   90.396326
_cell_angle_gamma 120.03535
loop_
_atom_site_label
_atom_site_type_symbol
_atom_site_fract_x
_atom_site_fract_y
_atom_site_fract_z
_atom_type_partial_charge
Eu0 Eu 1.05021 0.50962 0.17081 0.0
Eu1 Eu 0.09432 0.59305 0.17553 0.0
C2 C 0.07045 0.54778 0.20627 0.0
C3 C 0.97153 0.42676 0.16257 0.0
C4 C 0.94971 0.43254 0.17276 0.0
C5 C 0.92487 0.39745 0.14206 0.0
C6 C 0.91627 0.42161 0.16754 0.0
C7 C 0.95861 0.40852 0.1473 0.0
C8 C 0.90369 0.40469 0.152 0.0
C9 C 1.00851 0.44402 0.16683 0.0
O10 O 0.13432 0.57656 0.17717 0.0
O11 O 0.10428 0.52021 0.16705 0.0
C12 C 0.13331 0.54805 0.17168 0.0
O13 O 1.04918 0.52998 0.14629 0.0
O14 O 0.12978 0.63883 0.19052 0.0
O15 O 0.11121 0.64384 0.16682 0.0
O16 O 0.10058 0.57919 0.14954 0.0
C17 C 0.07568 0.5556 0.14003 0.0
O18 O 1.01008 0.52538 0.17481 0.0
O19 O 1.04053 0.58269 0.16995 0.0
O20 O 0.07037 0.57354 0.19962 0.0
O21 O 1.02872 0.46186 0.15538 0.0
O22 O 1.01806 0.46045 0.18126 0.0
O23 O 0.07123 0.52364 0.197 0.0
C24 C 0.17029 0.67972 0.17355 0.0
C25 C 0.17747 0.68987 0.15733 0.0
C26 C 0.23063 0.70004 0.17881 0.0
C27 C 0.21082 0.70428 0.15182 0.0
C28 C 0.19743 0.68592 0.18434 0.0
C29 C 0.23753 0.70866 0.16241 0.0
C30 C 0.13456 0.65902 0.17864 0.0
C31 C 1.01127 0.55443 0.17194 0.0
H32 H 0.95868 0.4466 0.18458 0.0
H33 H 0.91573 0.38424 0.13006 0.0
H34 H 0.90029 0.42673 0.17568 0.0
H35 H 0.97498 0.40399 0.13917 0.0
H36 H 0.15717 0.6856 0.14871 0.0
H37 H 0.25093 0.70406 0.18736 0.0
H38 H 0.21553 0.71098 0.13916 0.0
H39 H 0.1929 0.67877 0.19695 0.0
Eu40 Eu 0.59285 1.03765 0.5023 0.0
Eu41 Eu 0.54983 0.07759 0.50479 0.0
C42 C 0.56955 0.05298 0.53755 0.0
C43 C 0.61108 0.96478 0.5004 0.0
C44 C 0.5866 0.94612 0.5119 0.0
C45 C 0.60903 0.91258 0.48991 0.0
C46 C 0.57363 0.91088 0.51248 0.0
C47 C 0.62226 0.94785 0.48946 0.0
C48 C 0.58452 0.89378 0.50138 0.0
C49 C 0.62243 1.00101 0.49853 0.0
O50 O 0.60435 0.11844 0.49968 0.0
O51 O 0.63426 0.09295 0.50819 0.0
C52 C 0.63341 0.12035 0.50402 0.0
O53 O 0.59957 0.06333 0.47859 0.0
O54 O 0.54295 0.11935 0.51491 0.0
O55 O 0.50936 0.08555 0.49498 0.0
O56 O 0.54745 0.05894 0.47843 0.0
C57 C 0.57409 0.06265 0.47059 0.0
O58 O 0.53687 0.99711 0.49707 0.0
O59 O 0.50981 1.02312 0.50966 0.0
O60 O 0.56402 0.07597 0.53113 0.0
O61 O 0.60678 1.0065 0.4866 0.0
O62 O 0.62607 1.01987 0.51192 0.0
O63 O 0.57535 1.03177 0.52837 0.0
C64 C 0.53483 0.14512 0.49266 0.0
C65 C 0.55175 0.14505 0.47825 0.0
C66 C 0.55967 0.20669 0.49188 0.0
C67 C 0.57365 0.17568 0.47118 0.0
C68 C 0.53784 0.17595 0.49904 0.0
C69 C 0.579 0.20692 0.47837 0.0
C70 C 0.52192 0.11548 0.50288 0.0
C71 C 0.50915 0.99546 0.50317 0.0
H72 H 0.5771 0.95866 0.52022 0.0
H73 H 0.61816 0.90003 0.48138 0.0
H74 H 0.55465 0.89688 0.52138 0.0
H75 H 0.64079 0.96183 0.48038 0.0
H76 H 0.55028 0.12168 0.47317 0.0
H77 H 0.56358 0.23051 0.49775 0.0
H78 H 0.58808 0.17515 0.46072 0.0
H79 H 0.52552 0.17665 0.51029 0.0
Eu80 Eu 0.54042 0.52828 0.83445 0.0
Eu81 Eu 0.62303 0.5717 0.8382 0.0
C82 C 0.57783 0.55278 0.87018 0.0
C83 C 0.45555 0.51997 0.83282 0.0
C84 C 0.46132 0.54137 0.84704 0.0
C85 C 0.42718 0.54661 0.8196 0.0
C86 C 0.45088 0.56569 0.84737 0.0
C87 C 0.43735 0.52201 0.81933 0.0
C88 C 0.43483 0.56946 0.83345 0.0
C89 C 0.47476 0.5017 0.83063 0.0
O90 O 0.60974 0.51657 0.83155 0.0
O91 O 0.55402 0.4874 0.83942 0.0
C92 C 0.58233 0.48779 0.83521 0.0
O93 O 0.56 0.5197 0.81037 0.0
O94 O 0.67169 0.58589 0.85056 0.0
O95 O 0.67137 0.60804 0.82773 0.0
O96 O 0.60748 0.5723 0.81209 0.0
C97 C 0.58527 0.54496 0.8033 0.0
O98 O 0.55622 0.58354 0.82989 0.0
O99 O 0.60794 0.61205 0.84391 0.0
O100 O 0.6056 0.55598 0.86364 0.0
O101 O 0.49546 0.51179 0.81846 0.0
O102 O 0.48908 0.49814 0.8438 0.0
O103 O 0.55205 0.5489 0.86097 0.0
C104 C 0.7123 0.59136 0.83112 0.0
C105 C 0.74016 0.61377 0.82209 0.0
C106 C 0.72485 0.54591 0.82429 0.0
C107 C 0.76034 0.60235 0.81421 0.0
C108 C 0.70464 0.55727 0.83205 0.0
C109 C 0.75296 0.56829 0.81527 0.0
C110 C 0.68959 0.60267 0.83831 0.0
C111 C 0.58158 0.61201 0.83689 0.0
H112 H 0.47559 0.54072 0.85761 0.0
H113 H 0.41496 0.54885 0.80864 0.0
H114 H 0.45632 0.58223 0.8584 0.0
H115 H 0.43307 0.50615 0.80815 0.0
H116 H 0.74607 0.63999 0.82098 0.0
H117 H 0.71878 0.51973 0.82566 0.0
H118 H 0.7816 0.62015 0.80724 0.0
H119 H 0.68296 0.53928 0.83875 0.0
C120 C 0.53813 0.9637 0.2037 0.0
C121 C 0.53956 0.96477 0.1865 0.0
C122 C 0.55293 0.99658 0.1795 0.0
C123 C 0.5625 1.02633 0.18938 0.0
H124 H 0.55009 0.1116 0.1874 0.0
H125 H 0.56674 0.16057 0.17087 0.0
H126 H 0.62556 0.22897 0.21235 0.0
H127 H 0.6083 0.17984 0.22907 0.0
H128 H 0.60265 0.14087 0.26456 0.0
H129 H 0.60449 0.14072 0.29459 0.0
H130 H 0.54655 1.03009 0.29127 0.0
H131 H 0.54497 1.03001 0.26137 0.0
H132 H 0.54506 0.9916 0.22676 0.0
H133 H 0.52758 0.93951 0.20947 0.0
H134 H 0.55479 0.99827 0.16631 0.0
H135 H 0.57166 0.05024 0.18348 0.0
N136 N 0.5687 0.08352 0.20921 0.0
N137 N 0.57629 0.11297 0.2348 0.0
N138 N 0.56683 0.05667 0.23328 0.0
C139 C 0.574 0.11202 0.21813 0.0
C140 C 0.5724 0.08515 0.24245 0.0
C141 C 0.56533 0.05586 0.21662 0.0
C142 C 0.57863 0.1419 0.20942 0.0
C143 C 0.56602 0.13712 0.19311 0.0
C144 C 0.57544 0.16514 0.18364 0.0
C145 C 0.5979 0.19853 0.19022 0.0
C146 C 0.60805 0.20353 0.20696 0.0
C147 C 0.59837 0.17539 0.21652 0.0
C148 C 0.57367 0.08545 0.26059 0.0
C149 C 0.5903 0.11653 0.27025 0.0
C150 C 0.59152 0.11648 0.2874 0.0
C151 C 0.57558 0.0854 0.29518 0.0
C152 C 0.55882 0.0544 0.28555 0.0
C153 C 0.55811 0.0544 0.26844 0.0
C154 C 0.55904 1.02497 0.2065 0.0
C155 C 0.54785 0.99353 0.21362 0.0
C156 C 0.75673 0.51285 0.54378 0.0
C157 C 0.76391 0.52274 0.52753 0.0
C158 C 0.76271 0.55169 0.52294 0.0
C159 C 0.75082 0.56799 0.53374 0.0
H160 H 0.68209 0.5991 0.52603 0.0
H161 H 0.64892 0.6189 0.5112 0.0
H162 H 0.60003 0.6225 0.55598 0.0
H163 H 0.63269 0.60229 0.57083 0.0
H164 H 0.67396 0.60614 0.60447 0.0
H165 H 0.66265 0.5983 0.63343 0.0
H166 H 0.69418 0.52236 0.63242 0.0
H167 H 0.70567 0.53019 0.60308 0.0
H168 H 0.73711 0.5195 0.56667 0.0
H169 H 0.75727 0.4905 0.54764 0.0
H170 H 0.76863 0.5602 0.51058 0.0
H171 H 0.74809 0.58886 0.52944 0.0
N172 N 0.70195 0.57945 0.55079 0.0
N173 N 0.6777 0.58441 0.57521 0.0
N174 N 0.71585 0.56337 0.57536 0.0
C175 C 0.68076 0.58782 0.55881 0.0
C176 C 0.69516 0.5724 0.5836 0.0
C177 C 0.71967 0.56737 0.55893 0.0
C178 C 0.66031 0.59937 0.54968 0.0
C179 C 0.66415 0.60392 0.53273 0.0
C180 C 0.64516 0.61525 0.5242 0.0
C181 C 0.62185 0.62216 0.53242 0.0
C182 C 0.61743 0.61688 0.54926 0.0
C183 C 0.63647 0.60566 0.55781 0.0
C184 C 0.69064 0.56871 0.60146 0.0
C185 C 0.67869 0.58785 0.61037 0.0
C186 C 0.67242 0.58355 0.62701 0.0
C187 C 0.67765 0.55981 0.63517 0.0
C188 C 0.68985 0.54076 0.62637 0.0
C189 C 0.69661 0.54541 0.60966 0.0
C190 C 0.74009 0.55578 0.54938 0.0
C191 C 0.74497 0.52933 0.55466 0.0
C192 C 1.00739 0.52595 0.86842 0.0
C193 C 1.00757 0.53651 0.85246 0.0
C194 C 1.03631 0.56668 0.84776 0.0
C195 C 1.06365 0.58638 0.85888 0.0
H196 H 0.1598 0.67244 0.86257 0.0
H197 H 0.21488 0.70379 0.84987 0.0
H198 H 0.26575 0.70317 0.89481 0.0
H199 H 0.21088 0.67279 0.90765 0.0
H200 H 0.16469 0.63864 0.93833 0.0
H201 H 0.15861 0.62851 0.96743 0.0
H202 H 1.04917 0.56491 0.95948 0.0
H203 H 1.05532 0.57411 0.93025 0.0
H204 H 1.03344 0.53731 0.8919 0.0
H205 H 0.98586 0.5026 0.87238 0.0
H206 H 1.03714 0.57605 0.83571 0.0
H207 H 0.08497 0.60989 0.8549 0.0
N208 N 0.12108 0.62408 0.88165 0.0
N209 N 0.14418 0.63835 0.9086 0.0
N210 N 0.08789 0.59334 0.90328 0.0
C211 C 0.14766 0.64407 0.89234 0.0
C212 C 0.11422 0.61322 0.91418 0.0
C213 C 0.09119 0.59859 0.88699 0.0
C214 C 0.18095 0.66933 0.88598 0.0
C215 C 0.18283 0.67973 0.86987 0.0
C216 C 0.21437 0.69774 0.86259 0.0
C217 C 0.24464 0.70535 0.87119 0.0
C218 C 0.24298 0.6979 0.88783 0.0
C219 C 0.21142 0.68018 0.89518 0.0
C220 C 0.11049 0.60721 0.93193 0.0
C221 C 0.1393 0.6225 0.94276 0.0
C222 C 0.1358 0.61683 0.95949 0.0
C223 C 0.10338 0.59598 0.96583 0.0
C224 C 0.07457 0.58069 0.95499 0.0
C225 C 0.0781 0.58614 0.93822 0.0
C226 C 1.06284 0.57661 0.87504 0.0
C227 C 1.03465 0.54587 0.87962 0.0
C228 C 0.19266 0.64212 0.47089 0.0
C229 C 0.19171 0.66501 0.48297 0.0
C230 C 0.15978 0.65564 0.4899 0.0
C231 C 0.12973 0.62502 0.48444 0.0
H232 H 1.02762 0.5083 0.49364 0.0
H233 H 0.97484 0.45961 0.50328 0.0
H234 H 0.93499 0.43091 0.45319 0.0
H235 H 0.98552 0.47885 0.44386 0.0
H236 H 1.01857 0.51856 0.41473 0.0
H237 H 1.01948 0.51797 0.38493 0.0
H238 H 0.12993 0.57824 0.38778 0.0
H239 H 0.12882 0.58013 0.41765 0.0
H240 H 0.16479 0.59599 0.4556 0.0
H241 H 0.21624 0.6482 0.46497 0.0
H242 H 0.15786 0.67227 0.49934 0.0
H243 H 0.10546 0.61943 0.48944 0.0
N244 N 0.07083 0.55139 0.47039 0.0
N245 N 1.04496 0.52668 0.44433 0.0
N246 N 0.09994 0.57411 0.44613 0.0
C247 C 1.04332 0.52651 0.46098 0.0
C248 C 0.07285 0.55013 0.43681 0.0
C249 C 0.09941 0.57537 0.46282 0.0
C250 C 1.01134 0.49813 0.46793 0.0
C251 C 1.00736 0.49178 0.48476 0.0
C252 C 0.9771 0.46359 0.49027 0.0
C253 C 0.95 0.44114 0.47909 0.0
C254 C 0.95439 0.44772 0.46236 0.0
C255 C 0.98408 0.47553 0.45695 0.0
C256 C 0.07362 0.54943 0.41861 0.0
C257 C 1.04308 0.53169 0.40901 0.0
C258 C 1.04363 0.53116 0.39186 0.0
C259 C 0.07479 0.54795 0.38381 0.0
C260 C 0.10538 0.56551 0.39346 0.0
C261 C 0.10478 0.56644 0.41063 0.0
C262 C 0.13085 0.60321 0.47182 0.0
C263 C 0.16289 0.61195 0.46544 0.0
C264 C 0.61188 0.1682 0.80065 0.0
C265 C 0.59035 0.16808 0.81306 0.0
C266 C 0.56925 0.13667 0.82029 0.0
C267 C 0.56915 0.10629 0.8149 0.0
H268 H 0.56184 0.99089 0.82193 0.0
H269 H 0.56018 0.93864 0.83085 0.0
H270 H 0.61433 0.9365 0.78781 0.0
H271 H 0.61527 0.98726 0.77893 0.0
H272 H 0.5962 1.00728 0.7456 0.0
H273 H 0.59352 1.00624 0.71561 0.0
H274 H 0.56033 0.08085 0.71845 0.0
H275 H 0.56315 0.08217 0.74839 0.0
H276 H 0.6276 0.1393 0.78518 0.0
H277 H 0.62812 0.19138 0.79451 0.0
H278 H 0.55246 0.13543 0.82997 0.0
H279 H 0.55173 0.0824 0.82022 0.0
N280 N 0.58643 0.04868 0.8013 0.0
N281 N 0.58346 1.02098 0.77551 0.0
N282 N 0.5834 0.07267 0.77672 0.0
C283 C 0.58555 1.02169 0.7922 0.0
C284 C 0.58203 0.04601 0.76768 0.0
C285 C 0.58567 0.07456 0.7934 0.0
C286 C 0.58826 0.99323 0.79958 0.0
C287 C 0.57374 0.97942 0.81454 0.0
C288 C 0.57276 0.94936 0.81962 0.0
C289 C 0.58638 0.9325 0.80988 0.0
C290 C 0.60247 0.94768 0.79543 0.0
C291 C 0.60325 0.97722 0.79038 0.0
C292 C 0.57991 1.04483 0.74944 0.0
C293 C 0.58824 1.02341 0.73985 0.0
C294 C 0.58691 1.02294 0.72267 0.0
C295 C 0.57671 1.04345 0.71469 0.0
C296 C 0.56803 0.06456 0.72426 0.0
C297 C 0.56984 0.06544 0.74142 0.0
C298 C 0.58983 0.10658 0.80202 0.0
C299 C 0.61152 0.1381 0.79522 0.0
C300 C 0.69161 0.57301 0.12962 0.0
C301 C 0.69376 0.56209 0.1452 0.0
C302 C 0.6646 0.55036 0.15498 0.0
C303 C 0.63441 0.54941 0.14918 0.0
H304 H 0.53298 0.56509 0.15783 0.0
H305 H 0.48029 0.56211 0.16801 0.0
H306 H 0.43166 0.52221 0.11991 0.0
H307 H 0.48192 0.52311 0.11039 0.0
H308 H 0.51726 0.53374 0.07927 0.0
H309 H 0.51661 0.53352 0.04944 0.0
H310 H 0.62614 0.57566 0.05048 0.0
H311 H 0.62657 0.57462 0.08028 0.0
H312 H 0.66232 0.58101 0.11179 0.0
H313 H 0.71258 0.58138 0.12136 0.0
H314 H 0.66503 0.5419 0.16712 0.0
H315 H 0.61239 0.53963 0.15684 0.0
N316 N 0.57245 0.55235 0.13402 0.0
N317 N 0.54494 0.5496 0.10881 0.0
N318 N 0.59963 0.557 0.10889 0.0
C319 C 0.54432 0.54893 0.12547 0.0
C320 C 0.57222 0.55362 0.10043 0.0
C321 C 0.60047 0.55641 0.12555 0.0
C322 C 0.51222 0.54445 0.13323 0.0
C323 C 0.51069 0.55499 0.14962 0.0
C324 C 0.48047 0.55366 0.15537 0.0
C325 C 0.451 0.54168 0.1449 0.0
C326 C 0.45285 0.53076 0.12868 0.0
C327 C 0.48242 0.53176 0.12307 0.0
C328 C 0.57196 0.55411 0.08222 0.0
C329 C 0.54124 0.54299 0.07315 0.0
C330 C 0.5409 0.54307 0.056 0.0
C331 C 0.57132 0.55459 0.04744 0.0
C332 C 0.60209 0.566 0.05656 0.0
C333 C 0.60238 0.56559 0.07371 0.0
C334 C 0.63257 0.56005 0.13342 0.0
C335 C 0.66203 0.57233 0.12397 0.0
C336 C 0.1669 0.51694 0.1716 0.0
C337 C 0.1662 0.54757 0.17048 0.0
C338 C 0.19768 0.51642 0.17034 0.0
C339 C 0.29448 0.57496 0.16827 0.0
H340 H 0.28919 0.48903 0.15475 0.0
C341 C 0.41898 0.56567 0.16168 0.0
C342 C 0.41853 0.54091 0.15026 0.0
C343 C 0.3887 0.56619 0.16534 0.0
C344 C 0.29168 0.51362 0.15825 0.0
H345 H 0.19777 0.60177 0.1669 0.0
H346 H 0.25069 0.60072 0.16366 0.0
H347 H 0.23747 0.49125 0.15745 0.0
H348 H 0.38426 0.49591 0.13457 0.0
H349 H 0.33332 0.49837 0.13979 0.0
H350 H 0.34894 0.59776 0.16782 0.0
C351 C 0.22794 0.57703 0.16624 0.0
C352 C 0.26137 0.51474 0.16023 0.0
C353 C 0.19727 0.57768 0.16797 0.0
C354 C 0.38648 0.51619 0.14306 0.0
C355 C 0.35656 0.51715 0.14641 0.0
C356 C 0.3249 0.57402 0.16587 0.0
C357 C 0.22893 0.54635 0.1674 0.0
C358 C 0.26193 0.54538 0.16533 0.0
C359 C 0.35684 0.54222 0.15757 0.0
C360 C 0.32422 0.54331 0.16074 0.0
H361 H 0.1436 0.49329 0.17371 0.0
H362 H 0.19668 0.49228 0.17187 0.0
H363 H 0.29684 0.59915 0.17253 0.0
H364 H 0.44285 0.58529 0.16754 0.0
H365 H 0.39054 0.58562 0.17428 0.0
C366 C 0.66593 0.18512 0.50405 0.0
C367 C 0.66609 0.15398 0.50332 0.0
C368 C 0.6964 0.21669 0.50312 0.0
C369 C 0.79359 0.25666 0.50293 0.0
H370 H 0.78798 0.33367 0.4878 0.0
C371 C 0.91688 0.39047 0.49705 0.0
C372 C 0.91727 0.41071 0.48434 0.0
C373 C 0.88651 0.36042 0.50072 0.0
C374 C 0.79044 0.31249 0.49181 0.0
H375 H 0.69887 0.13199 0.50066 0.0
H376 H 0.75134 0.1862 0.49806 0.0
H377 H 0.73636 0.27984 0.49061 0.0
H378 H 0.88463 0.41535 0.46621 0.0
H379 H 0.83317 0.3631 0.47187 0.0
H380 H 0.84806 0.28915 0.50321 0.0
C381 C 0.7281 0.18691 0.50012 0.0
C382 C 0.76026 0.28122 0.49375 0.0
C383 C 0.69769 0.1554 0.50148 0.0
C384 C 0.88599 0.40035 0.47583 0.0
C385 C 0.85592 0.37029 0.47933 0.0
C386 C 0.82388 0.28783 0.5007 0.0
C387 C 0.72824 0.21838 0.50094 0.0
C388 C 0.76101 0.25242 0.49926 0.0
C389 C 0.85546 0.34945 0.49176 0.0
C390 C 0.82297 0.31636 0.49496 0.0
H391 H 0.64216 0.18518 0.50554 0.0
H392 H 0.69465 0.23973 0.50427 0.0
H393 H 0.79605 0.23597 0.50761 0.0
H394 H 0.94023 0.39728 0.50391 0.0
H395 H 0.88755 0.3458 0.5106 0.0
C396 C 0.55039 0.64417 0.83127 0.0
C397 C 0.58072 0.64479 0.83609 0.0
C398 C 0.54965 0.6747 0.82973 0.0
C399 C 0.59969 0.77037 0.84008 0.0
H400 H 0.54071 0.7713 0.80567 0.0
C401 C 0.58652 0.89149 0.83043 0.0
C402 C 0.58324 0.89881 0.81412 0.0
C403 C 0.58504 0.86045 0.83396 0.0
C404 C 0.55763 0.77182 0.81528 0.0
H405 H 0.63405 0.67869 0.84325 0.0
H406 H 0.63307 0.73176 0.84022 0.0
H407 H 0.54143 0.71885 0.80994 0.0
H408 H 0.57435 0.87773 0.78888 0.0
H409 H 0.57273 0.82493 0.7949 0.0
H410 H 0.61673 0.82385 0.84498 0.0
C411 C 0.60951 0.70764 0.8379 0.0
C412 C 0.55766 0.74129 0.81793 0.0
C413 C 0.61016 0.67702 0.83958 0.0
C414 C 0.57768 0.87368 0.80158 0.0
C415 C 0.57622 0.84285 0.80509 0.0
C416 C 0.59974 0.80103 0.83739 0.0
C417 C 0.57929 0.7071 0.83281 0.0
C418 C 0.5788 0.73992 0.83032 0.0
C419 C 0.57998 0.83558 0.82133 0.0
C420 C 0.5789 0.80242 0.82484 0.0
H421 H 0.52701 0.61996 0.82865 0.0
H422 H 0.5256 0.67275 0.82617 0.0
H423 H 0.61603 0.77064 0.84991 0.0
H424 H 0.59092 0.91003 0.84046 0.0
H425 H 0.58765 0.85591 0.84666 0.0
C426 C 0.94753 0.52546 0.16559 0.0
C427 C 0.97845 0.55511 0.17071 0.0
C428 C 0.91695 0.52635 0.16387 0.0
C429 C 0.88343 0.58868 0.16287 0.0
H430 H 0.79587 0.50518 0.16405 0.0
C431 C 0.75826 0.58754 0.14505 0.0
C432 C 0.72626 0.56268 0.15062 0.0
C433 C 0.78821 0.58652 0.14841 0.0
C434 C 0.81991 0.52902 0.16392 0.0
H435 H 1.00085 0.60877 0.17853 0.0
H436 H 0.94779 0.61001 0.17665 0.0
H437 H 0.84801 0.50359 0.16869 0.0
H438 H 0.70202 0.5179 0.16501 0.0
H439 H 0.7544 0.51733 0.17177 0.0
H440 H 0.8555 0.61455 0.15922 0.0
C441 C 0.94693 0.58617 0.17312 0.0
C442 C 0.85033 0.528 0.16628 0.0
C443 C 0.97767 0.58548 0.1744 0.0
C444 C 0.72587 0.53764 0.16045 0.0
C445 C 0.75616 0.53699 0.1641 0.0
C446 C 0.8531 0.58983 0.16089 0.0
C447 C 0.91585 0.5567 0.16764 0.0
C448 C 0.88287 0.55777 0.16563 0.0
C449 C 0.78798 0.56117 0.15794 0.0
C450 C 0.82059 0.55998 0.1611 0.0
H451 H 0.94709 0.50162 0.16247 0.0
H452 H 0.89433 0.50318 0.15923 0.0
H453 H 0.90737 0.61234 0.16194 0.0
H454 H 0.76038 0.60797 0.13784 0.0
H455 H 0.81147 0.60547 0.14307 0.0
C456 C 0.44472 0.95966 0.50538 0.0
C457 C 0.47625 0.96167 0.50219 0.0
C458 C 0.41386 0.92802 0.50397 0.0
C459 C 0.37628 0.83713 0.486 0.0
H460 H 0.30088 0.82005 0.51386 0.0
C461 C 0.2562 0.70164 0.48747 0.0
C462 C 0.2237 0.69892 0.48746 0.0
C463 C 0.28634 0.73356 0.4899 0.0
C464 C 0.32154 0.82443 0.50587 0.0
H465 H 0.49963 0.93121 0.49538 0.0
H466 H 0.44648 0.8764 0.49339 0.0
H467 H 0.35413 0.87503 0.51689 0.0
H468 H 0.19826 0.72867 0.49058 0.0
H469 H 0.25076 0.78417 0.49515 0.0
H470 H 0.34382 0.78635 0.47516 0.0
C471 C 0.44519 0.8993 0.49652 0.0
C472 C 0.35226 0.85618 0.50756 0.0
C473 C 0.47595 0.93094 0.49779 0.0
C474 C 0.22254 0.72934 0.49065 0.0
C475 C 0.2528 0.76135 0.49321 0.0
C476 C 0.34574 0.80535 0.48441 0.0
C477 C 0.41345 0.89719 0.49945 0.0
C478 C 0.3803 0.86317 0.49767 0.0
C479 C 0.28525 0.76406 0.49258 0.0
C480 C 0.31783 0.79837 0.49433 0.0
H481 H 0.44374 0.98268 0.50872 0.0
H482 H 0.39024 0.92796 0.50612 0.0
H483 H 0.39661 0.84136 0.47781 0.0
H484 H 0.2585 0.67899 0.48548 0.0
H485 H 0.31065 0.73429 0.4897 0.0
C486 C 0.61323 0.45443 0.83015 0.0
C487 C 0.58299 0.45475 0.83388 0.0
C488 C 0.61376 0.4235 0.82862 0.0
C489 C 0.56381 0.33026 0.83814 0.0
H490 H 0.62284 0.32143 0.80646 0.0
C491 C 0.55832 0.19959 0.82094 0.0
C492 C 0.58931 0.20042 0.81766 0.0
C493 C 0.5572 0.23014 0.82361 0.0
C494 C 0.60644 0.32343 0.81553 0.0
H495 H 0.52944 0.422 0.83886 0.0
H496 H 0.53014 0.36833 0.83589 0.0
H497 H 0.62151 0.37463 0.80949 0.0
H498 H 0.6438 0.23486 0.8156 0.0
H499 H 0.64182 0.28752 0.82015 0.0
H500 H 0.54847 0.2787 0.84397 0.0
C501 C 0.55379 0.39206 0.83445 0.0
C502 C 0.60571 0.35422 0.81731 0.0
C503 C 0.55331 0.42303 0.83606 0.0
C504 C 0.61925 0.23286 0.81769 0.0
C505 C 0.61812 0.26328 0.82029 0.0
C506 C 0.56442 0.29935 0.83629 0.0
C507 C 0.58401 0.39165 0.83065 0.0
C508 C 0.5845 0.35835 0.8287 0.0
C509 C 0.58703 0.26255 0.82305 0.0
C510 C 0.58588 0.29544 0.825 0.0
H511 H 0.63669 0.47816 0.82841 0.0
H512 H 0.63778 0.42473 0.82599 0.0
H513 H 0.54746 0.33224 0.84724 0.0
H514 H 0.53461 0.17532 0.82087 0.0
H515 H 0.53269 0.2283 0.82559 0.0
C516 C 0.57145 0.8428 0.51706 0.0
C517 C 0.57134 0.85661 0.50205 0.0
C518 C 0.56313 0.80864 0.51748 0.0
C519 C 0.5663 0.74276 0.49068 0.0
H520 H 0.53576 0.69247 0.53006 0.0
C521 C 0.62295 0.66496 0.51386 0.0
C522 C 0.60432 0.63756 0.52385 0.0
C523 C 0.60819 0.68295 0.50764 0.0
C524 C 0.54357 0.70553 0.51875 0.0
H525 H 0.55989 0.84515 0.47589 0.0
H526 H 0.54455 0.78509 0.47661 0.0
H527 H 0.52617 0.7401 0.52631 0.0
H528 H 0.55483 0.60579 0.53414 0.0
H529 H 0.52878 0.63714 0.5231 0.0
H530 H 0.58396 0.70839 0.4832 0.0
C531 C 0.55197 0.80083 0.48802 0.0
C532 C 0.53851 0.73323 0.51672 0.0
C533 C 0.56071 0.83516 0.48758 0.0
C534 C 0.56993 0.62719 0.52668 0.0
C535 C 0.55505 0.64511 0.52036 0.0
C536 C 0.57094 0.7148 0.49261 0.0
C537 C 0.55415 0.78745 0.5029 0.0
C538 C 0.55149 0.7533 0.5031 0.0
C539 C 0.57436 0.67386 0.51118 0.0
C540 C 0.56135 0.69708 0.50709 0.0
H541 H 0.57976 0.85889 0.52836 0.0
H542 H 0.56572 0.79953 0.52913 0.0
H543 H 0.57665 0.75751 0.48001 0.0
H544 H 0.64962 0.67384 0.51164 0.0
H545 H 0.62412 0.70532 0.50091 0.0
C546 C 0.76233 0.52272 0.80141 0.0
C547 C 0.77574 0.55656 0.80811 0.0
C548 C 0.78405 0.50992 0.79749 0.0
C549 C 0.8327 0.48607 0.80844 0.0
H550 H 0.927 0.54412 0.79704 0.0
C551 C 0.94414 0.50747 0.84785 0.0
C552 C 0.97654 0.51877 0.84139 0.0
C553 C 0.91581 0.498 0.83747 0.0
C554 C 0.90061 0.52685 0.79983 0.0
H555 H 0.82262 0.60418 0.8147 0.0
H556 H 0.86026 0.58211 0.80782 0.0
H557 H 0.88382 0.55743 0.78801 0.0
H558 H 1.00372 0.52491 0.81882 0.0
H559 H 0.95416 0.50911 0.80065 0.0
H560 H 0.84989 0.45677 0.82114 0.0
C561 C 0.83304 0.56541 0.80544 0.0
C562 C 0.87591 0.53474 0.79478 0.0
C563 C 0.81138 0.57812 0.80946 0.0
C564 C 0.97927 0.5172 0.82421 0.0
C565 C 0.95089 0.50795 0.81379 0.0
C566 C 0.85738 0.47812 0.81344 0.0
C567 C 0.81958 0.53081 0.80005 0.0
C568 C 0.84225 0.51585 0.80003 0.0
C569 C 0.91923 0.49978 0.82036 0.0
C570 C 0.89196 0.49989 0.81018 0.0
H571 H 0.73497 0.50569 0.79984 0.0
H572 H 0.773 0.48327 0.79319 0.0
H573 H 0.80693 0.47086 0.81263 0.0
H574 H 0.94101 0.50858 0.86098 0.0
H575 H 0.89194 0.49228 0.84299 0.0
C576 C 0.29259 0.70824 0.1611 0.0
C577 C 0.27277 0.7228 0.15665 0.0
C578 C 0.32738 0.72457 0.15792 0.0
C579 C 0.39767 0.79876 0.13791 0.0
H580 H 0.44453 0.81429 0.18015 0.0
C581 C 0.50024 0.92896 0.16299 0.0
C582 C 0.5226 0.93248 0.17595 0.0
C583 C 0.47821 0.89685 0.15531 0.0
C584 C 0.43252 0.80971 0.16804 0.0
H585 H 0.273 0.76422 0.14421 0.0
H586 H 0.3338 0.79312 0.1389 0.0
H587 H 0.38694 0.76688 0.17583 0.0
H588 H 0.54231 0.90584 0.18973 0.0
H589 H 0.50393 0.8495 0.17616 0.0
H590 H 0.44285 0.84308 0.13051 0.0
C591 C 0.32252 0.76886 0.14465 0.0
C592 C 0.39922 0.78237 0.16557 0.0
C593 C 0.28769 0.75245 0.14778 0.0
C594 C 0.52482 0.90373 0.17999 0.0
C595 C 0.50288 0.87152 0.17221 0.0
C596 C 0.43118 0.82606 0.14034 0.0
C597 C 0.343 0.75583 0.15028 0.0
C598 C 0.38076 0.77783 0.15083 0.0
C599 C 0.47807 0.86745 0.16039 0.0
C600 C 0.44816 0.83308 0.1558 0.0
H601 H 0.28145 0.68488 0.16761 0.0
H602 H 0.3424 0.71365 0.16218 0.0
H603 H 0.38427 0.7954 0.12629 0.0
H604 H 0.49764 0.95051 0.15965 0.0
H605 H 0.45928 0.89484 0.14643 0.0
C606 C 0.60498 0.26858 0.47194 0.0
C607 C 0.60832 0.2396 0.47362 0.0
C608 C 0.63398 0.30073 0.47054 0.0
C609 C 0.71622 0.34647 0.48884 0.0
H610 H 0.72797 0.4197 0.46193 0.0
C611 C 0.78375 0.4821 0.51749 0.0
C612 C 0.76542 0.49906 0.51475 0.0
C613 C 0.7786 0.45433 0.50695 0.0
C614 C 0.72511 0.39963 0.46962 0.0
H615 H 0.64432 0.22107 0.47424 0.0
H616 H 0.69493 0.27744 0.47194 0.0
H617 H 0.68837 0.36019 0.45263 0.0
H618 H 0.72908 0.50171 0.49827 0.0
H619 H 0.71901 0.45322 0.48055 0.0
H620 H 0.74925 0.3851 0.50678 0.0
C621 C 0.66993 0.27513 0.4716 0.0
C622 C 0.7027 0.36557 0.46416 0.0
C623 C 0.64094 0.24295 0.47281 0.0
C624 C 0.74393 0.48946 0.50063 0.0
C625 C 0.73829 0.46146 0.49033 0.0
C626 C 0.73778 0.38046 0.49455 0.0
C627 C 0.66675 0.3044 0.47103 0.0
C628 C 0.69691 0.33889 0.47411 0.0
C629 C 0.75431 0.44243 0.49373 0.0
C630 C 0.7409 0.40758 0.48546 0.0
H631 H 0.58012 0.26662 0.47247 0.0
H632 H 0.63095 0.32305 0.47029 0.0
H633 H 0.71212 0.32623 0.49674 0.0
H634 H 0.80082 0.4893 0.52819 0.0
H635 H 0.79225 0.44106 0.50972 0.0
C636 C 0.39688 0.59275 0.82565 0.0
C637 C 0.42722 0.59787 0.83325 0.0
C638 C 0.38903 0.619 0.8262 0.0
C639 C 0.3843 0.68388 0.82463 0.0
H640 H 0.37875 0.71089 0.86985 0.0
C641 C 0.30881 0.73632 0.86969 0.0
C642 C 0.27631 0.7146 0.86222 0.0
C643 C 0.33786 0.73759 0.86304 0.0
C644 C 0.38104 0.70483 0.85708 0.0
H645 H 0.47418 0.63545 0.84645 0.0
H646 H 0.45965 0.68083 0.84794 0.0
H647 H 0.41119 0.68253 0.8636 0.0
H648 H 0.24933 0.67961 0.84111 0.0
H649 H 0.29915 0.6814 0.82979 0.0
H650 H 0.35305 0.70501 0.81813 0.0
C651 C 0.44208 0.65645 0.84157 0.0
C652 C 0.39957 0.68834 0.85352 0.0
C653 C 0.45013 0.63032 0.84086 0.0
C654 C 0.27393 0.6969 0.84715 0.0
C655 C 0.30279 0.69801 0.84058 0.0
C656 C 0.36618 0.70088 0.82815 0.0
C657 C 0.4112 0.65083 0.83447 0.0
C658 C 0.39976 0.67606 0.83739 0.0
C659 C 0.33484 0.71692 0.84889 0.0
C660 C 0.36257 0.70963 0.84453 0.0
H661 H 0.37854 0.56806 0.8198 0.0
H662 H 0.36474 0.6138 0.82088 0.0
H663 H 0.38461 0.67514 0.81204 0.0
H664 H 0.31153 0.75078 0.88116 0.0
H665 H 0.3623 0.7531 0.86954 0.0
C666 C 0.85537 0.41651 0.15001 0.0
C667 C 0.86826 0.39431 0.14663 0.0
C668 C 0.82045 0.40466 0.1482 0.0
C669 C 0.73635 0.3308 0.13406 0.0
H670 H 0.71059 0.34087 0.17833 0.0
C671 C 0.62917 0.22136 0.1647 0.0
C672 C 0.61539 0.22691 0.17913 0.0
C673 C 0.65212 0.24886 0.15594 0.0
C674 C 0.71667 0.33842 0.1657 0.0
H675 H 0.85527 0.3434 0.13708 0.0
H676 H 0.79413 0.32257 0.13393 0.0
H677 H 0.76838 0.37817 0.17032 0.0
H678 H 0.61188 0.26523 0.19471 0.0
H679 H 0.65139 0.31355 0.17909 0.0
H680 H 0.68478 0.29012 0.12963 0.0
C681 C 0.81106 0.3492 0.13793 0.0
C682 C 0.7501 0.35989 0.16112 0.0
C683 C 0.84606 0.36106 0.13981 0.0
C684 C 0.62258 0.26031 0.18377 0.0
C685 C 0.64528 0.28793 0.17483 0.0
C686 C 0.70262 0.30966 0.13854 0.0
C687 C 0.79778 0.37042 0.14288 0.0
C688 C 0.76075 0.35494 0.14559 0.0
C689 C 0.66175 0.2827 0.1613 0.0
C690 C 0.69299 0.3117 0.15478 0.0
H691 H 0.87209 0.44253 0.15491 0.0
H692 H 0.81092 0.42164 0.15193 0.0
H693 H 0.74384 0.32687 0.12191 0.0
H694 H 0.62448 0.19599 0.16087 0.0
H695 H 0.66441 0.24352 0.14579 0.0
C696 C 0.10334 0.58808 0.1154 0.0
C697 C 0.07763 0.5582 0.12203 0.0
C698 C 0.10548 0.59073 0.09843 0.0
C699 C 1.05525 0.55352 0.05933 0.0
H700 H 0.14486 0.59978 0.04055 0.0
C701 C 0.07611 0.55813 0.98923 0.0
C702 C 0.09969 0.5904 0.98369 0.0
C703 C 0.07282 0.55298 0.00604 0.0
C704 C 0.11968 0.58699 0.04564 0.0
H705 H 1.03404 0.5076 0.11606 0.0
H706 H 1.03821 0.51196 0.08636 0.0
H707 H 0.14025 0.59249 0.07 0.0
H708 H 0.13774 0.64273 0.99154 0.0
H709 H 0.13241 0.63349 0.0208 0.0
H710 H 1.03481 0.5478 0.03484 0.0
C711 C 1.05636 0.53359 0.09431 0.0
C712 C 0.11701 0.58288 0.06251 0.0
C713 C 1.05406 0.53102 0.11132 0.0
C714 C 0.11983 0.61738 0.99535 0.0
C715 C 0.11673 0.61214 0.01212 0.0
C716 C 1.05794 0.55741 0.04241 0.0
C717 C 0.08214 0.56347 0.08766 0.0
C718 C 0.08478 0.56644 0.0696 0.0
C719 C 0.09324 0.5799 0.01763 0.0
C720 C 0.0902 0.5745 0.03544 0.0
H721 H 0.12175 0.60962 0.12331 0.0
H722 H 0.12524 0.61438 0.09376 0.0
H723 H 1.03006 0.54111 0.0644 0.0
H724 H 1.06055 0.53665 0.9806 0.0
H725 H 1.05474 0.52777 0.00996 0.0
C726 C 0.5451 0.05623 0.44337 0.0
C727 C 0.57522 0.06589 0.45265 0.0
C728 C 0.54598 0.0589 0.42638 0.0
C729 C 0.60092 0.10503 0.39339 0.0
H730 H 0.53764 1.02584 0.36538 0.0
C731 C 0.60714 0.1034 0.3225 0.0
C732 C 0.57619 0.08507 0.3133 0.0
C733 C 0.60775 0.10164 0.33956 0.0
C734 C 0.55513 0.04842 0.37299 0.0
H735 H 0.62998 0.08659 0.45147 0.0
H736 H 0.63154 0.09187 0.42171 0.0
H737 H 0.53714 1.02198 0.39506 0.0
H738 H 0.5215 0.0516 0.31465 0.0
H739 H 0.52219 0.04951 0.34442 0.0
H740 H 0.61829 0.13193 0.37145 0.0
C741 C 0.60728 0.08197 0.42764 0.0
C742 C 0.55493 0.04608 0.38999 0.0
C743 C 0.60633 0.07876 0.44462 0.0
C744 C 0.54576 0.06562 0.32147 0.0
C745 C 0.54626 0.06427 0.33853 0.0
C746 C 0.6008 0.10758 0.37637 0.0
C747 C 0.57707 0.07182 0.41837 0.0
C748 C 0.57777 0.07435 0.40034 0.0
C749 C 0.57731 0.0819 0.3478 0.0
C750 C 0.57782 0.07931 0.36594 0.0
H751 H 0.52075 0.04625 0.44921 0.0
H752 H 0.52238 0.05116 0.41949 0.0
H753 H 0.61861 0.12728 0.40115 0.0
H754 H 0.63099 0.11835 0.31644 0.0
H755 H 0.6322 0.11517 0.34623 0.0
C756 C 0.57314 0.51143 0.77615 0.0
C757 C 0.58968 0.54295 0.78544 0.0
C758 C 0.57943 0.50984 0.75943 0.0
C759 C 0.61072 0.56333 0.72398 0.0
H760 H 0.63773 0.4987 0.70727 0.0
C761 C 0.67967 0.58324 0.66378 0.0
C762 C 0.66928 0.5547 0.65269 0.0
C763 C 0.66839 0.57898 0.67981 0.0
C764 C 0.62979 0.51658 0.7117 0.0
H765 H 0.62513 0.59753 0.78446 0.0
H766 H 0.63572 0.59476 0.75543 0.0
H767 H 0.61829 0.49571 0.73542 0.0
H768 H 0.64005 0.49922 0.64981 0.0
H769 H 0.62008 0.49168 0.67797 0.0
H770 H 0.62232 0.58445 0.70046 0.0
C771 C 0.61793 0.57131 0.76099 0.0
C772 C 0.61862 0.51482 0.72778 0.0
C773 C 0.61198 0.57284 0.77766 0.0
C774 C 0.6486 0.52164 0.65817 0.0
C775 C 0.63713 0.51735 0.67425 0.0
C776 C 0.6217 0.56501 0.70796 0.0
C777 C 0.60193 0.53981 0.75172 0.0
C778 C 0.60973 0.53871 0.73417 0.0
C779 C 0.64628 0.54607 0.68511 0.0
C780 C 0.63216 0.5422 0.70175 0.0
H781 H 0.55594 0.48795 0.78187 0.0
H782 H 0.56669 0.48525 0.75251 0.0
H783 H 0.60343 0.58168 0.72851 0.0
H784 H 0.69607 0.60898 0.65995 0.0
H785 H 0.67667 0.60158 0.68801 0.0
C786 C 0.57202 0.0782 0.566 0.0
C787 C 0.56947 0.05108 0.55567 0.0
C788 C 0.57261 0.07681 0.58309 0.0
C789 C 0.58664 1.03072 0.61636 0.0
H790 H 0.54484 0.07258 0.64282 0.0
C791 C 0.60265 0.04567 0.6873 0.0
C792 C 0.5753 1.04304 0.69645 0.0
C793 C 0.60167 0.04616 0.67016 0.0
C794 C 0.55629 0.06034 0.63566 0.0
H795 H 0.56504 1.00093 0.55526 0.0
H796 H 0.56486 0.99792 0.585 0.0
H797 H 0.5424 0.07319 0.61312 0.0
H798 H 0.5251 1.03794 0.6948 0.0
H799 H 0.52279 1.03766 0.66492 0.0
H800 H 0.59924 1.01659 0.63888 0.0
C801 C 0.56739 1.02078 0.57996 0.0
C802 C 0.55539 0.0612 0.61855 0.0
C803 C 0.56725 1.02238 0.56285 0.0
C804 C 0.54675 1.04044 0.68808 0.0
C805 C 0.54555 1.04046 0.67093 0.0
C806 C 0.58719 1.02951 0.63347 0.0
C807 C 0.5702 0.04804 0.59035 0.0
C808 C 0.5707 0.04657 0.60863 0.0
C809 C 0.5731 1.04357 0.6617 0.0
C810 C 0.57215 1.04443 0.6434 0.0
H811 H 0.57411 0.10085 0.5609 0.0
H812 H 0.57551 0.09863 0.59061 0.0
H813 H 0.59913 1.01955 0.60922 0.0
H814 H 0.62516 0.04811 0.69344 0.0
H815 H 0.62367 0.04923 0.66359 0.0
C816 C 0.60017 0.55072 0.89803 0.0
C817 C 0.5757 0.55314 0.88833 0.0
C818 C 0.59817 0.55039 0.91511 0.0
C819 C 0.5645 0.57622 0.95033 0.0
H820 H 0.57695 0.50908 0.9726 0.0
C821 C 0.54875 0.56213 0.0205 0.0
C822 C 0.57092 0.55443 0.02912 0.0
C823 C 0.54812 0.56154 0.00332 0.0
C824 C 0.5739 0.52835 0.96665 0.0
H825 H 0.53007 0.55754 0.88908 0.0
H826 H 0.52686 0.5574 0.91906 0.0
H827 H 0.57815 0.50914 0.94276 0.0
H828 H 0.60972 0.53984 0.02618 0.0
H829 H 0.60968 0.54025 0.99642 0.0
H830 H 0.56111 0.59604 0.9742 0.0
C831 C 0.54754 0.55567 0.91334 0.0
C832 C 0.57443 0.52825 0.94951 0.0
C833 C 0.54931 0.55559 0.89618 0.0
C834 C 0.5926 0.54636 0.02006 0.0
C835 C 0.59218 0.54606 0.0029 0.0
C836 C 0.56432 0.57657 0.96752 0.0
C837 C 0.57184 0.55282 0.92297 0.0
C838 C 0.56993 0.55228 0.94116 0.0
C839 C 0.56982 0.55347 0.99426 0.0
C840 C 0.56921 0.55274 0.97593 0.0
H841 H 0.62084 0.54876 0.89243 0.0
H842 H 0.61749 0.54857 0.9222 0.0
H843 H 0.5613 0.59527 0.94424 0.0
H844 H 0.53199 0.56893 0.02702 0.0
H845 H 0.53028 0.56704 0.99714 0.0
C846 C 1.06106 0.56694 0.23411 0.0
C847 C 0.07031 0.54649 0.22439 0.0
C848 C 1.0615 0.56637 0.25123 0.0
C849 C 1.06459 0.51582 0.28539 0.0
H850 H 0.09001 0.60001 0.31132 0.0
C851 C 1.05126 0.51812 0.35585 0.0
C852 C 0.07529 0.54728 0.36548 0.0
C853 C 1.05114 0.51778 0.33869 0.0
C854 C 0.08328 0.57632 0.30433 0.0
H855 H 0.08743 0.50946 0.22502 0.0
H856 H 0.08939 0.5093 0.25489 0.0
H857 H 0.08985 0.60003 0.28158 0.0
H858 H 0.11823 0.59901 0.36432 0.0
H859 H 0.11914 0.59778 0.33454 0.0
H860 H 1.05953 0.49249 0.30817 0.0
C861 C 0.08087 0.52515 0.24933 0.0
C862 C 0.0826 0.57619 0.28718 0.0
C863 C 0.07993 0.52536 0.23217 0.0
C864 C 0.09955 0.57589 0.35741 0.0
C865 C 0.09972 0.57539 0.34024 0.0
C866 C 1.0657 0.51605 0.30256 0.0
C867 C 0.07173 0.54572 0.25912 0.0
C868 C 0.07302 0.54589 0.27744 0.0
C869 C 0.07534 0.54643 0.33062 0.0
C870 C 0.07487 0.54627 0.31229 0.0
H871 H 1.05319 0.58328 0.2285 0.0
H872 H 1.05351 0.58198 0.25826 0.0
H873 H 1.05669 0.49186 0.27838 0.0
H874 H 1.0325 0.49533 0.36154 0.0
H875 H 1.03166 0.49514 0.33178 0.0
loop_
_geom_bond_atom_site_label_1
_geom_bond_atom_site_label_2
_geom_bond_distance
_geom_bond_site_symmetry_2
_ccdc_geom_bond_type
Eu0 C9 2.828 . S
Eu0 O11 2.392 1_655 S
Eu0 O13 2.418 . S
Eu0 O18 2.373 . S
Eu0 O21 2.488 . S
Eu0 O22 2.471 . S
Eu0 O23 2.349 . S
Eu1 O10 2.373 . S
Eu1 O14 2.488 . S
Eu1 O15 2.471 . S
Eu1 O16 2.349 . S
Eu1 O19 2.392 1_455 S
Eu1 O20 2.418 . S
Eu1 C30 2.828 . S
C2 O20 1.244 . S
C2 O23 1.265 1_455 S
C3 C4 1.379 . S
C3 C7 1.373 . S
C3 C9 1.505 . S
C4 C3 1.379 . S
C4 C6 1.369 . S
C4 H32 0.930 . S
C5 C7 1.383 . S
C5 C8 1.382 . S
C5 H33 0.930 . S
C6 C4 1.369 . S
C6 C8 1.392 . S
C6 H34 0.930 . S
C7 C3 1.373 . S
C7 C5 1.383 . S
C7 H35 0.931 . S
C8 C5 1.382 . S
C8 C6 1.392 . S
C9 Eu0 2.828 . S
C9 C3 1.505 . S
C9 O21 1.249 . S
C9 O22 1.244 . S
O10 Eu1 2.373 . S
O10 C12 1.258 . S
O11 Eu0 2.392 1_455 S
O11 C12 1.242 . S
C12 O10 1.258 . S
C12 O11 1.242 . S
O13 Eu0 2.418 . S
O13 C17 1.241 1_655 S
O14 Eu1 2.488 . S
O14 C30 1.249 . S
O15 Eu1 2.471 . S
O15 C30 1.244 . S
O16 Eu1 2.349 . S
O16 C17 1.267 . S
C17 O13 1.241 1_455 S
C17 O16 1.267 . S
O18 Eu0 2.373 . S
O18 C31 1.258 . S
O19 Eu1 2.392 1_655 S
O19 C31 1.242 . S
O20 Eu1 2.418 . S
O20 C2 1.244 . S
O21 Eu0 2.488 . S
O21 C9 1.249 . S
O22 Eu0 2.471 . S
O22 C9 1.244 . S
O23 Eu0 2.349 . S
O23 C2 1.265 1_655 S
C24 C25 1.379 . S
C24 C28 1.373 . S
C24 C30 1.505 . S
C25 C24 1.379 . S
C25 C27 1.369 . S
C25 H36 0.930 . S
C26 C28 1.383 . S
C26 C29 1.382 . S
C26 H37 0.930 . S
C27 C25 1.369 . S
C27 C29 1.392 . S
C27 H38 0.930 . S
C28 C24 1.373 . S
C28 C26 1.383 . S
C28 H39 0.931 . S
C29 C26 1.382 . S
C29 C27 1.392 . S
C30 Eu1 2.828 . S
C30 O14 1.249 . S
C30 O15 1.244 . S
C30 C24 1.505 . S
C31 O18 1.258 . S
C31 O19 1.242 . S
H32 C4 0.930 . S
H33 C5 0.930 . S
H34 C6 0.930 . S
H35 C7 0.931 . S
H36 C25 0.930 . S
H37 C26 0.930 . S
H38 C27 0.930 . S
H39 C28 0.931 . S
Eu40 C49 2.828 . S
Eu40 O51 2.392 1_565 S
Eu40 O53 2.418 . S
Eu40 O58 2.373 . S
Eu40 O61 2.488 . S
Eu40 O62 2.471 . S
Eu40 O63 2.349 1_565 S
Eu41 O50 2.373 . S
Eu41 O54 2.488 . S
Eu41 O55 2.471 . S
Eu41 O56 2.349 . S
Eu41 O59 2.392 1_545 S
Eu41 O60 2.418 . S
Eu41 C70 2.828 . S
C42 O60 1.244 . S
C42 O63 1.265 . S
C43 C44 1.379 . S
C43 C47 1.373 . S
C43 C49 1.505 . S
C44 C43 1.379 . S
C44 C46 1.369 . S
C44 H72 0.930 . S
C45 C47 1.383 . S
C45 C48 1.382 . S
C45 H73 0.930 . S
C46 C44 1.369 . S
C46 C48 1.392 . S
C46 H74 0.930 . S
C47 C43 1.373 . S
C47 C45 1.383 . S
C47 H75 0.931 . S
C48 C45 1.382 . S
C48 C46 1.392 . S
C49 Eu40 2.828 . S
C49 C43 1.505 . S
C49 O61 1.249 . S
C49 O62 1.244 . S
O50 Eu41 2.373 . S
O50 C52 1.258 . S
O51 Eu40 2.392 1_545 S
O51 C52 1.242 . S
C52 O50 1.258 . S
C52 O51 1.242 . S
O53 Eu40 2.418 . S
O53 C57 1.244 1_565 S
O54 Eu41 2.488 . S
O54 C70 1.249 . S
O55 Eu41 2.471 . S
O55 C70 1.244 . S
O56 Eu41 2.349 . S
O56 C57 1.265 . S
C57 O53 1.244 1_545 S
C57 O56 1.265 . S
O58 Eu40 2.373 . S
O58 C71 1.258 . S
O59 Eu41 2.392 1_565 S
O59 C71 1.242 . S
O60 Eu41 2.418 . S
O60 C42 1.244 . S
O61 Eu40 2.488 . S
O61 C49 1.249 . S
O62 Eu40 2.471 . S
O62 C49 1.244 . S
O63 Eu40 2.349 1_545 S
O63 C42 1.265 . S
C64 C65 1.379 . S
C64 C68 1.373 . S
C64 C70 1.505 . S
C65 C64 1.379 . S
C65 C67 1.369 . S
C65 H76 0.930 . S
C66 C68 1.383 . S
C66 C69 1.382 . S
C66 H77 0.930 . S
C67 C65 1.369 . S
C67 C69 1.392 . S
C67 H78 0.930 . S
C68 C64 1.373 . S
C68 C66 1.383 . S
C68 H79 0.931 . S
C69 C66 1.382 . S
C69 C67 1.392 . S
C70 Eu41 2.828 . S
C70 O54 1.249 . S
C70 O55 1.244 . S
C70 C64 1.505 . S
C71 O58 1.258 . S
C71 O59 1.242 . S
H72 C44 0.930 . S
H73 C45 0.930 . S
H74 C46 0.930 . S
H75 C47 0.931 . S
H76 C65 0.930 . S
H77 C66 0.930 . S
H78 C67 0.930 . S
H79 C68 0.931 . S
Eu80 C89 2.828 . S
Eu80 O91 2.392 . S
Eu80 O93 2.418 . S
Eu80 O98 2.373 . S
Eu80 O101 2.488 . S
Eu80 O102 2.471 . S
Eu80 O103 2.349 . S
Eu81 O90 2.373 . S
Eu81 O94 2.488 . S
Eu81 O95 2.471 . S
Eu81 O96 2.349 . S
Eu81 O99 2.392 . S
Eu81 O100 2.418 . S
Eu81 C110 2.828 . S
C82 O100 1.244 . S
C82 O103 1.265 . S
C83 C84 1.379 . S
C83 C87 1.373 . S
C83 C89 1.505 . S
C84 C83 1.379 . S
C84 C86 1.369 . S
C84 H112 0.930 . S
C85 C87 1.383 . S
C85 C88 1.382 . S
C85 H113 0.930 . S
C86 C84 1.369 . S
C86 C88 1.392 . S
C86 H114 0.930 . S
C87 C83 1.373 . S
C87 C85 1.383 . S
C87 H115 0.931 . S
C88 C85 1.382 . S
C88 C86 1.392 . S
C89 Eu80 2.828 . S
C89 C83 1.505 . S
C89 O101 1.249 . S
C89 O102 1.244 . S
O90 Eu81 2.373 . S
O90 C92 1.258 . S
O91 Eu80 2.392 . S
O91 C92 1.242 . S
C92 O90 1.258 . S
C92 O91 1.242 . S
O93 Eu80 2.418 . S
O93 C97 1.244 . S
O94 Eu81 2.488 . S
O94 C110 1.249 . S
O95 Eu81 2.471 . S
O95 C110 1.244 . S
O96 Eu81 2.349 . S
O96 C97 1.265 . S
C97 O93 1.244 . S
C97 O96 1.265 . S
O98 Eu80 2.373 . S
O98 C111 1.258 . S
O99 Eu81 2.392 . S
O99 C111 1.242 . S
O100 Eu81 2.418 . S
O100 C82 1.244 . S
O101 Eu80 2.488 . S
O101 C89 1.249 . S
O102 Eu80 2.471 . S
O102 C89 1.244 . S
O103 Eu80 2.349 . S
O103 C82 1.265 . S
C104 C105 1.379 . S
C104 C108 1.373 . S
C104 C110 1.505 . S
C105 C104 1.379 . S
C105 C107 1.369 . S
C105 H116 0.930 . S
C106 C108 1.383 . S
C106 C109 1.382 . S
C106 H117 0.930 . S
C107 C105 1.369 . S
C107 C109 1.392 . S
C107 H118 0.930 . S
C108 C104 1.373 . S
C108 C106 1.383 . S
C108 H119 0.931 . S
C109 C106 1.382 . S
C109 C107 1.392 . S
C110 Eu81 2.828 . S
C110 O94 1.249 . S
C110 O95 1.244 . S
C110 C104 1.505 . S
C111 O98 1.258 . S
C111 O99 1.242 . S
H112 C84 0.930 . S
H113 C85 0.930 . S
H114 C86 0.930 . S
H115 C87 0.931 . S
H116 C105 0.930 . S
H117 C106 0.930 . S
H118 C107 0.930 . S
H119 C108 0.931 . S
C120 C121 1.384 . S
C120 H133 0.947 . S
C120 C155 1.382 . S
C121 C120 1.384 . S
C121 C122 1.378 . S
C122 C121 1.378 . S
C122 C123 1.378 . S
C122 H134 0.952 . S
C123 C122 1.378 . S
C123 H135 0.950 . S
C123 C154 1.383 . S
H124 C143 0.947 . S
H125 C144 0.946 . S
H126 C146 0.953 . S
H127 C147 0.945 . S
H128 C149 0.952 . S
H129 C150 0.949 . S
H130 C152 0.950 . S
H131 C153 0.948 . S
H132 C155 0.951 . S
H133 C120 0.947 . S
H134 C122 0.952 . S
H135 C123 0.950 . S
N136 C139 1.382 . S
N136 C141 1.363 1_545 S
N137 C139 1.371 . S
N137 C140 1.372 . S
N138 C140 1.361 1_565 S
N138 C141 1.377 . S
C139 N136 1.382 . S
C139 N137 1.371 . S
C139 C142 1.480 . S
C140 N137 1.372 . S
C140 N138 1.361 1_545 S
C140 C148 1.457 . S
C141 N136 1.363 1_565 S
C141 N138 1.377 . S
C141 C154 1.479 . S
C142 C139 1.480 . S
C142 C143 1.383 . S
C142 C147 1.385 . S
C143 H124 0.947 . S
C143 C142 1.383 . S
C143 C144 1.388 . S
C144 H125 0.946 . S
C144 C143 1.388 . S
C144 C145 1.384 . S
C145 C144 1.384 . S
C145 C146 1.377 . S
C146 H126 0.953 . S
C146 C145 1.377 . S
C146 C147 1.369 . S
C147 H127 0.945 . S
C147 C142 1.385 . S
C147 C146 1.369 . S
C148 C140 1.457 . S
C148 C149 1.372 . S
C148 C153 1.364 1_545 S
C149 H128 0.952 . S
C149 C148 1.372 . S
C149 C150 1.389 . S
C150 H129 0.949 . S
C150 C149 1.389 . S
C150 C151 1.387 . S
C151 C150 1.387 . S
C151 C152 1.372 1_545 S
C152 H130 0.950 . S
C152 C151 1.372 1_565 S
C152 C153 1.379 . S
C153 H131 0.948 . S
C153 C148 1.364 1_565 S
C153 C152 1.379 . S
C154 C123 1.383 . S
C154 C141 1.479 . S
C154 C155 1.398 . S
C155 C120 1.382 . S
C155 H132 0.951 . S
C155 C154 1.398 . S
C156 C157 1.384 . S
C156 H169 0.947 . S
C156 C191 1.382 . S
C157 C156 1.384 . S
C157 C158 1.378 . S
C158 C157 1.378 . S
C158 C159 1.378 . S
C158 H170 0.952 . S
C159 C158 1.378 . S
C159 H171 0.950 . S
C159 C190 1.383 . S
H160 C179 0.947 . S
H161 C180 0.946 . S
H162 C182 0.953 . S
H163 C183 0.945 . S
H164 C185 0.952 . S
H165 C186 0.949 . S
H166 C188 0.950 . S
H167 C189 0.948 . S
H168 C191 0.951 . S
H169 C156 0.947 . S
H170 C158 0.952 . S
H171 C159 0.950 . S
N172 C175 1.382 . S
N172 C177 1.363 . S
N173 C175 1.371 . S
N173 C176 1.372 . S
N174 C176 1.361 . S
N174 C177 1.377 . S
C175 N172 1.382 . S
C175 N173 1.371 . S
C175 C178 1.480 . S
C176 N173 1.372 . S
C176 N174 1.361 . S
C176 C184 1.457 . S
C177 N172 1.363 . S
C177 N174 1.377 . S
C177 C190 1.479 . S
C178 C175 1.480 . S
C178 C179 1.383 . S
C178 C183 1.385 . S
C179 H160 0.947 . S
C179 C178 1.383 . S
C179 C180 1.388 . S
C180 H161 0.946 . S
C180 C179 1.388 . S
C180 C181 1.384 . S
C181 C180 1.384 . S
C181 C182 1.377 . S
C182 H162 0.953 . S
C182 C181 1.377 . S
C182 C183 1.369 . S
C183 H163 0.945 . S
C183 C178 1.385 . S
C183 C182 1.369 . S
C184 C176 1.457 . S
C184 C185 1.372 . S
C184 C189 1.364 . S
C185 H164 0.952 . S
C185 C184 1.372 . S
C185 C186 1.389 . S
C186 H165 0.949 . S
C186 C185 1.389 . S
C186 C187 1.387 . S
C187 C186 1.387 . S
C187 C188 1.372 . S
C188 H166 0.950 . S
C188 C187 1.372 . S
C188 C189 1.379 . S
C189 H167 0.948 . S
C189 C184 1.364 . S
C189 C188 1.379 . S
C190 C159 1.383 . S
C190 C177 1.479 . S
C190 C191 1.398 . S
C191 C156 1.382 . S
C191 H168 0.951 . S
C191 C190 1.398 . S
C192 C193 1.384 . S
C192 H205 0.947 . S
C192 C227 1.382 . S
C193 C192 1.384 . S
C193 C194 1.378 . S
C194 C193 1.378 . S
C194 C195 1.378 . S
C194 H206 0.952 . S
C195 C194 1.378 . S
C195 H207 0.950 . S
C195 C226 1.383 . S
H196 C215 0.947 . S
H197 C216 0.946 . S
H198 C218 0.953 . S
H199 C219 0.945 . S
H200 C221 0.952 . S
H201 C222 0.949 . S
H202 C224 0.950 1_655 S
H203 C225 0.948 1_655 S
H204 C227 0.951 . S
H205 C192 0.947 . S
H206 C194 0.952 . S
H207 C195 0.950 . S
N208 C211 1.382 . S
N208 C213 1.363 . S
N209 C211 1.371 . S
N209 C212 1.372 . S
N210 C212 1.361 . S
N210 C213 1.377 . S
C211 N208 1.382 . S
C211 N209 1.371 . S
C211 C214 1.480 . S
C212 N209 1.372 . S
C212 N210 1.361 . S
C212 C220 1.457 . S
C213 N208 1.363 . S
C213 N210 1.377 . S
C213 C226 1.479 1_455 S
C214 C211 1.480 . S
C214 C215 1.383 . S
C214 C219 1.385 . S
C215 H196 0.947 . S
C215 C214 1.383 . S
C215 C216 1.388 . S
C216 H197 0.946 . S
C216 C215 1.388 . S
C216 C217 1.384 . S
C217 C216 1.384 . S
C217 C218 1.377 . S
C218 H198 0.953 . S
C218 C217 1.377 . S
C218 C219 1.369 . S
C219 H199 0.945 . S
C219 C214 1.385 . S
C219 C218 1.369 . S
C220 C212 1.457 . S
C220 C221 1.372 . S
C220 C225 1.364 . S
C221 H200 0.952 . S
C221 C220 1.372 . S
C221 C222 1.389 . S
C222 H201 0.949 . S
C222 C221 1.389 . S
C222 C223 1.387 . S
C223 C222 1.387 . S
C223 C224 1.372 . S
C224 H202 0.950 1_455 S
C224 C223 1.372 . S
C224 C225 1.379 . S
C225 H203 0.948 1_455 S
C225 C220 1.364 . S
C225 C224 1.379 . S
C226 C195 1.383 . S
C226 C213 1.479 1_655 S
C226 C227 1.398 . S
C227 C192 1.382 . S
C227 H204 0.951 . S
C227 C226 1.398 . S
C228 C229 1.384 . S
C228 H241 0.947 . S
C228 C263 1.382 . S
C229 C228 1.384 . S
C229 C230 1.378 . S
C230 C229 1.378 . S
C230 C231 1.378 . S
C230 H242 0.952 . S
C231 C230 1.378 . S
C231 H243 0.950 . S
C231 C262 1.383 . S
H232 C251 0.947 . S
H233 C252 0.946 . S
H234 C254 0.953 . S
H235 C255 0.945 . S
H236 C257 0.952 . S
H237 C258 0.949 . S
H238 C260 0.950 . S
H239 C261 0.948 . S
H240 C263 0.951 . S
H241 C228 0.947 . S
H242 C230 0.952 . S
H243 C231 0.950 . S
N244 C247 1.382 . S
N244 C249 1.363 . S
N245 C247 1.371 1_655 S
N245 C248 1.372 1_655 S
N246 C248 1.361 . S
N246 C249 1.377 . S
C247 N244 1.382 . S
C247 N245 1.371 1_455 S
C247 C250 1.480 1_455 S
C248 N245 1.372 1_455 S
C248 N246 1.361 . S
C248 C256 1.457 . S
C249 N244 1.363 . S
C249 N246 1.377 . S
C249 C262 1.479 . S
C250 C247 1.480 1_655 S
C250 C251 1.383 . S
C250 C255 1.385 . S
C251 H232 0.947 . S
C251 C250 1.383 . S
C251 C252 1.388 . S
C252 H233 0.946 . S
C252 C251 1.388 . S
C252 C253 1.384 . S
C253 C252 1.384 . S
C253 C254 1.377 . S
C254 H234 0.953 . S
C254 C253 1.377 . S
C254 C255 1.369 . S
C255 H235 0.945 . S
C255 C250 1.385 . S
C255 C254 1.369 . S
C256 C248 1.457 . S
C256 C257 1.372 1_455 S
C256 C261 1.364 . S
C257 H236 0.952 . S
C257 C256 1.372 1_655 S
C257 C258 1.389 . S
C258 H237 0.949 . S
C258 C257 1.389 . S
C258 C259 1.387 1_655 S
C259 C258 1.387 1_455 S
C259 C260 1.372 . S
C260 H238 0.950 . S
C260 C259 1.372 . S
C260 C261 1.379 . S
C261 H239 0.948 . S
C261 C256 1.364 . S
C261 C260 1.379 . S
C262 C231 1.383 . S
C262 C249 1.479 . S
C262 C263 1.398 . S
C263 C228 1.382 . S
C263 H240 0.951 . S
C263 C262 1.398 . S
C264 C265 1.384 . S
C264 H277 0.947 . S
C264 C299 1.382 . S
C265 C264 1.384 . S
C265 C266 1.378 . S
C266 C265 1.378 . S
C266 C267 1.378 . S
C266 H278 0.952 . S
C267 C266 1.378 . S
C267 H279 0.950 . S
C267 C298 1.383 . S
H268 C287 0.947 . S
H269 C288 0.946 . S
H270 C290 0.953 . S
H271 C291 0.945 . S
H272 C293 0.952 . S
H273 C294 0.949 . S
H274 C296 0.950 . S
H275 C297 0.948 . S
H276 C299 0.951 . S
H277 C264 0.947 . S
H278 C266 0.952 . S
H279 C267 0.950 . S
N280 C283 1.382 1_545 S
N280 C285 1.363 . S
N281 C283 1.371 . S
N281 C284 1.372 1_565 S
N282 C284 1.361 . S
N282 C285 1.377 . S
C283 N280 1.382 1_565 S
C283 N281 1.371 . S
C283 C286 1.480 . S
C284 N281 1.372 1_545 S
C284 N282 1.361 . S
C284 C292 1.457 . S
C285 N280 1.363 . S
C285 N282 1.377 . S
C285 C298 1.479 . S
C286 C283 1.480 . S
C286 C287 1.383 . S
C286 C291 1.385 . S
C287 H268 0.947 . S
C287 C286 1.383 . S
C287 C288 1.388 . S
C288 H269 0.946 . S
C288 C287 1.388 . S
C288 C289 1.384 . S
C289 C288 1.384 . S
C289 C290 1.377 . S
C290 H270 0.953 . S
C290 C289 1.377 . S
C290 C291 1.369 . S
C291 H271 0.945 . S
C291 C286 1.385 . S
C291 C290 1.369 . S
C292 C284 1.457 . S
C292 C293 1.372 1_545 S
C292 C297 1.364 . S
C293 H272 0.952 . S
C293 C292 1.372 1_565 S
C293 C294 1.389 . S
C294 H273 0.949 . S
C294 C293 1.389 . S
C294 C295 1.387 1_565 S
C295 C294 1.387 1_545 S
C295 C296 1.372 . S
C296 H274 0.950 . S
C296 C295 1.372 . S
C296 C297 1.379 . S
C297 H275 0.948 . S
C297 C292 1.364 . S
C297 C296 1.379 . S
C298 C267 1.383 . S
C298 C285 1.479 . S
C298 C299 1.398 . S
C299 C264 1.382 . S
C299 H276 0.951 . S
C299 C298 1.398 . S
C300 C301 1.384 . S
C300 H313 0.947 . S
C300 C335 1.382 . S
C301 C300 1.384 . S
C301 C302 1.378 . S
C302 C301 1.378 . S
C302 C303 1.378 . S
C302 H314 0.952 . S
C303 C302 1.378 . S
C303 H315 0.950 . S
C303 C334 1.383 . S
H304 C323 0.947 . S
H305 C324 0.946 . S
H306 C326 0.953 . S
H307 C327 0.945 . S
H308 C329 0.952 . S
H309 C330 0.949 . S
H310 C332 0.950 . S
H311 C333 0.948 . S
H312 C335 0.951 . S
H313 C300 0.947 . S
H314 C302 0.952 . S
H315 C303 0.950 . S
N316 C319 1.382 . S
N316 C321 1.363 . S
N317 C319 1.371 . S
N317 C320 1.372 . S
N318 C320 1.361 . S
N318 C321 1.377 . S
C319 N316 1.382 . S
C319 N317 1.371 . S
C319 C322 1.480 . S
C320 N317 1.372 . S
C320 N318 1.361 . S
C320 C328 1.457 . S
C321 N316 1.363 . S
C321 N318 1.377 . S
C321 C334 1.479 . S
C322 C319 1.480 . S
C322 C323 1.383 . S
C322 C327 1.385 . S
C323 H304 0.947 . S
C323 C322 1.383 . S
C323 C324 1.388 . S
C324 H305 0.946 . S
C324 C323 1.388 . S
C324 C325 1.384 . S
C325 C324 1.384 . S
C325 C326 1.377 . S
C326 H306 0.953 . S
C326 C325 1.377 . S
C326 C327 1.369 . S
C327 H307 0.945 . S
C327 C322 1.385 . S
C327 C326 1.369 . S
C328 C320 1.457 . S
C328 C329 1.372 . S
C328 C333 1.364 . S
C329 H308 0.952 . S
C329 C328 1.372 . S
C329 C330 1.389 . S
C330 H309 0.949 . S
C330 C329 1.389 . S
C330 C331 1.387 . S
C331 C330 1.387 . S
C331 C332 1.372 . S
C332 H310 0.950 . S
C332 C331 1.372 . S
C332 C333 1.379 . S
C333 H311 0.948 . S
C333 C328 1.364 . S
C333 C332 1.379 . S
C334 C303 1.383 . S
C334 C321 1.479 . S
C334 C335 1.398 . S
C335 C300 1.382 . S
C335 H312 0.951 . S
C335 C334 1.398 . S
C336 C337 1.349 . S
C336 C338 1.327 . S
C336 H361 0.950 . S
C337 C336 1.349 . S
C337 C353 1.349 . S
C338 C336 1.327 . S
C338 C357 1.429 . S
C338 H362 0.950 . S
C339 C356 1.574 . S
C339 C358 1.368 . S
C339 H363 0.949 . S
H340 C344 0.949 . S
C341 C342 1.349 . S
C341 C343 1.327 . S
C341 H364 0.950 . S
C342 C341 1.349 . S
C342 C354 1.349 . S
C343 C341 1.327 . S
C343 C359 1.429 . S
C343 H365 0.950 . S
C344 H340 0.949 . S
C344 C352 1.574 . S
C344 C360 1.368 . S
H345 C353 0.950 . S
H346 C351 0.950 . S
H347 C352 0.949 . S
H348 C354 0.950 . S
H349 C355 0.950 . S
H350 C356 0.949 . S
C351 H346 0.950 . S
C351 C353 1.327 . S
C351 C357 1.429 . S
C352 C344 1.574 . S
C352 H347 0.949 . S
C352 C358 1.368 . S
C353 C337 1.349 . S
C353 H345 0.950 . S
C353 C351 1.327 . S
C354 C342 1.349 . S
C354 H348 0.950 . S
C354 C355 1.327 . S
C355 H349 0.950 . S
C355 C354 1.327 . S
C355 C359 1.429 . S
C356 C339 1.574 . S
C356 H350 0.949 . S
C356 C360 1.368 . S
C357 C338 1.429 . S
C357 C351 1.429 . S
C357 C358 1.523 . S
C358 C339 1.368 . S
C358 C352 1.368 . S
C358 C357 1.523 . S
C359 C343 1.429 . S
C359 C355 1.429 . S
C359 C360 1.523 . S
C360 C344 1.368 . S
C360 C356 1.368 . S
C360 C359 1.523 . S
H361 C336 0.950 . S
H362 C338 0.950 . S
H363 C339 0.949 . S
H364 C341 0.950 . S
H365 C343 0.950 . S
C366 C367 1.349 . S
C366 C368 1.327 . S
C366 H391 0.950 . S
C367 C366 1.349 . S
C367 C383 1.349 . S
C368 C366 1.327 . S
C368 C387 1.429 . S
C368 H392 0.950 . S
C369 C386 1.574 . S
C369 C388 1.368 . S
C369 H393 0.949 . S
H370 C374 0.949 . S
C371 C372 1.349 . S
C371 C373 1.327 . S
C371 H394 0.950 . S
C372 C371 1.349 . S
C372 C384 1.349 . S
C373 C371 1.327 . S
C373 C389 1.429 . S
C373 H395 0.950 . S
C374 H370 0.949 . S
C374 C382 1.574 . S
C374 C390 1.368 . S
H375 C383 0.950 . S
H376 C381 0.950 . S
H377 C382 0.949 . S
H378 C384 0.950 . S
H379 C385 0.950 . S
H380 C386 0.949 . S
C381 H376 0.950 . S
C381 C383 1.327 . S
C381 C387 1.429 . S
C382 C374 1.574 . S
C382 H377 0.949 . S
C382 C388 1.368 . S
C383 C367 1.349 . S
C383 H375 0.950 . S
C383 C381 1.327 . S
C384 C372 1.349 . S
C384 H378 0.950 . S
C384 C385 1.327 . S
C385 H379 0.950 . S
C385 C384 1.327 . S
C385 C389 1.429 . S
C386 C369 1.574 . S
C386 H380 0.949 . S
C386 C390 1.368 . S
C387 C368 1.429 . S
C387 C381 1.429 . S
C387 C388 1.523 . S
C388 C369 1.368 . S
C388 C382 1.368 . S
C388 C387 1.523 . S
C389 C373 1.429 . S
C389 C385 1.429 . S
C389 C390 1.523 . S
C390 C374 1.368 . S
C390 C386 1.368 . S
C390 C389 1.523 . S
H391 C366 0.950 . S
H392 C368 0.950 . S
H393 C369 0.949 . S
H394 C371 0.950 . S
H395 C373 0.950 . S
C396 C397 1.349 . S
C396 C398 1.327 . S
C396 H421 0.950 . S
C397 C396 1.349 . S
C397 C413 1.349 . S
C398 C396 1.327 . S
C398 C417 1.429 . S
C398 H422 0.950 . S
C399 C416 1.574 . S
C399 C418 1.368 . S
C399 H423 0.949 . S
H400 C404 0.949 . S
C401 C402 1.349 . S
C401 C403 1.327 . S
C401 H424 0.950 . S
C402 C401 1.349 . S
C402 C414 1.349 . S
C403 C401 1.327 . S
C403 C419 1.429 . S
C403 H425 0.950 . S
C404 H400 0.949 . S
C404 C412 1.574 . S
C404 C420 1.368 . S
H405 C413 0.950 . S
H406 C411 0.950 . S
H407 C412 0.949 . S
H408 C414 0.950 . S
H409 C415 0.950 . S
H410 C416 0.949 . S
C411 H406 0.950 . S
C411 C413 1.327 . S
C411 C417 1.429 . S
C412 C404 1.574 . S
C412 H407 0.949 . S
C412 C418 1.368 . S
C413 C397 1.349 . S
C413 H405 0.950 . S
C413 C411 1.327 . S
C414 C402 1.349 . S
C414 H408 0.950 . S
C414 C415 1.327 . S
C415 H409 0.950 . S
C415 C414 1.327 . S
C415 C419 1.429 . S
C416 C399 1.574 . S
C416 H410 0.949 . S
C416 C420 1.368 . S
C417 C398 1.429 . S
C417 C411 1.429 . S
C417 C418 1.523 . S
C418 C399 1.368 . S
C418 C412 1.368 . S
C418 C417 1.523 . S
C419 C403 1.429 . S
C419 C415 1.429 . S
C419 C420 1.523 . S
C420 C404 1.368 . S
C420 C416 1.368 . S
C420 C419 1.523 . S
H421 C396 0.950 . S
H422 C398 0.950 . S
H423 C399 0.949 . S
H424 C401 0.950 . S
H425 C403 0.950 . S
C426 C427 1.349 . S
C426 C428 1.327 . S
C426 H451 0.950 . S
C427 C426 1.349 . S
C427 C443 1.349 . S
C428 C426 1.327 . S
C428 C447 1.429 . S
C428 H452 0.950 . S
C429 C446 1.574 . S
C429 C448 1.368 . S
C429 H453 0.949 . S
H430 C434 0.949 . S
C431 C432 1.349 . S
C431 C433 1.327 . S
C431 H454 0.950 . S
C432 C431 1.349 . S
C432 C444 1.349 . S
C433 C431 1.327 . S
C433 C449 1.429 . S
C433 H455 0.950 . S
C434 H430 0.949 . S
C434 C442 1.574 . S
C434 C450 1.368 . S
H435 C443 0.950 . S
H436 C441 0.950 . S
H437 C442 0.949 . S
H438 C444 0.950 . S
H439 C445 0.950 . S
H440 C446 0.949 . S
C441 H436 0.950 . S
C441 C443 1.327 . S
C441 C447 1.429 . S
C442 C434 1.574 . S
C442 H437 0.949 . S
C442 C448 1.368 . S
C443 C427 1.349 . S
C443 H435 0.950 . S
C443 C441 1.327 . S
C444 C432 1.349 . S
C444 H438 0.950 . S
C444 C445 1.327 . S
C445 H439 0.950 . S
C445 C444 1.327 . S
C445 C449 1.429 . S
C446 C429 1.574 . S
C446 H440 0.949 . S
C446 C450 1.368 . S
C447 C428 1.429 . S
C447 C441 1.429 . S
C447 C448 1.523 . S
C448 C429 1.368 . S
C448 C442 1.368 . S
C448 C447 1.523 . S
C449 C433 1.429 . S
C449 C445 1.429 . S
C449 C450 1.523 . S
C450 C434 1.368 . S
C450 C446 1.368 . S
C450 C449 1.523 . S
H451 C426 0.950 . S
H452 C428 0.950 . S
H453 C429 0.949 . S
H454 C431 0.950 . S
H455 C433 0.950 . S
C456 C457 1.349 . S
C456 C458 1.327 . S
C456 H481 0.950 . S
C457 C456 1.349 . S
C457 C473 1.349 . S
C458 C456 1.327 . S
C458 C477 1.429 . S
C458 H482 0.950 . S
C459 C476 1.574 . S
C459 C478 1.368 . S
C459 H483 0.949 . S
H460 C464 0.949 . S
C461 C462 1.349 . S
C461 C463 1.327 . S
C461 H484 0.950 . S
C462 C461 1.349 . S
C462 C474 1.349 . S
C463 C461 1.327 . S
C463 C479 1.429 . S
C463 H485 0.950 . S
C464 H460 0.949 . S
C464 C472 1.574 . S
C464 C480 1.368 . S
H465 C473 0.950 . S
H466 C471 0.950 . S
H467 C472 0.949 . S
H468 C474 0.950 . S
H469 C475 0.950 . S
H470 C476 0.949 . S
C471 H466 0.950 . S
C471 C473 1.327 . S
C471 C477 1.429 . S
C472 C464 1.574 . S
C472 H467 0.949 . S
C472 C478 1.368 . S
C473 C457 1.349 . S
C473 H465 0.950 . S
C473 C471 1.327 . S
C474 C462 1.349 . S
C474 H468 0.950 . S
C474 C475 1.327 . S
C475 H469 0.950 . S
C475 C474 1.327 . S
C475 C479 1.429 . S
C476 C459 1.574 . S
C476 H470 0.949 . S
C476 C480 1.368 . S
C477 C458 1.429 . S
C477 C471 1.429 . S
C477 C478 1.523 . S
C478 C459 1.368 . S
C478 C472 1.368 . S
C478 C477 1.523 . S
C479 C463 1.429 . S
C479 C475 1.429 . S
C479 C480 1.523 . S
C480 C464 1.368 . S
C480 C476 1.368 . S
C480 C479 1.523 . S
H481 C456 0.950 . S
H482 C458 0.950 . S
H483 C459 0.949 . S
H484 C461 0.950 . S
H485 C463 0.950 . S
C486 C487 1.349 . S
C486 C488 1.327 . S
C486 H511 0.950 . S
C487 C486 1.349 . S
C487 C503 1.349 . S
C488 C486 1.327 . S
C488 C507 1.429 . S
C488 H512 0.950 . S
C489 C506 1.574 . S
C489 C508 1.368 . S
C489 H513 0.949 . S
H490 C494 0.949 . S
C491 C492 1.349 . S
C491 C493 1.327 . S
C491 H514 0.950 . S
C492 C491 1.349 . S
C492 C504 1.349 . S
C493 C491 1.327 . S
C493 C509 1.429 . S
C493 H515 0.950 . S
C494 H490 0.949 . S
C494 C502 1.574 . S
C494 C510 1.368 . S
H495 C503 0.950 . S
H496 C501 0.950 . S
H497 C502 0.949 . S
H498 C504 0.950 . S
H499 C505 0.950 . S
H500 C506 0.949 . S
C501 H496 0.950 . S
C501 C503 1.327 . S
C501 C507 1.429 . S
C502 C494 1.574 . S
C502 H497 0.949 . S
C502 C508 1.368 . S
C503 C487 1.349 . S
C503 H495 0.950 . S
C503 C501 1.327 . S
C504 C492 1.349 . S
C504 H498 0.950 . S
C504 C505 1.327 . S
C505 H499 0.950 . S
C505 C504 1.327 . S
C505 C509 1.429 . S
C506 C489 1.574 . S
C506 H500 0.949 . S
C506 C510 1.368 . S
C507 C488 1.429 . S
C507 C501 1.429 . S
C507 C508 1.523 . S
C508 C489 1.368 . S
C508 C502 1.368 . S
C508 C507 1.523 . S
C509 C493 1.429 . S
C509 C505 1.429 . S
C509 C510 1.523 . S
C510 C494 1.368 . S
C510 C506 1.368 . S
C510 C509 1.523 . S
H511 C486 0.950 . S
H512 C488 0.950 . S
H513 C489 0.949 . S
H514 C491 0.950 . S
H515 C493 0.950 . S
C516 C517 1.349 . S
C516 C518 1.327 . S
C516 H541 0.950 . S
C517 C516 1.349 . S
C517 C533 1.349 . S
C518 C516 1.327 . S
C518 C537 1.429 . S
C518 H542 0.950 . S
C519 C536 1.574 . S
C519 C538 1.368 . S
C519 H543 0.949 . S
H520 C524 0.949 . S
C521 C522 1.349 . S
C521 C523 1.327 . S
C521 H544 0.950 . S
C522 C521 1.349 . S
C522 C534 1.349 . S
C523 C521 1.327 . S
C523 C539 1.429 . S
C523 H545 0.950 . S
C524 H520 0.949 . S
C524 C532 1.574 . S
C524 C540 1.368 . S
H525 C533 0.950 . S
H526 C531 0.950 . S
H527 C532 0.949 . S
H528 C534 0.950 . S
H529 C535 0.950 . S
H530 C536 0.949 . S
C531 H526 0.950 . S
C531 C533 1.327 . S
C531 C537 1.429 . S
C532 C524 1.574 . S
C532 H527 0.949 . S
C532 C538 1.368 . S
C533 C517 1.349 . S
C533 H525 0.950 . S
C533 C531 1.327 . S
C534 C522 1.349 . S
C534 H528 0.950 . S
C534 C535 1.327 . S
C535 H529 0.950 . S
C535 C534 1.327 . S
C535 C539 1.429 . S
C536 C519 1.574 . S
C536 H530 0.949 . S
C536 C540 1.368 . S
C537 C518 1.429 . S
C537 C531 1.429 . S
C537 C538 1.523 . S
C538 C519 1.368 . S
C538 C532 1.368 . S
C538 C537 1.523 . S
C539 C523 1.429 . S
C539 C535 1.429 . S
C539 C540 1.523 . S
C540 C524 1.368 . S
C540 C536 1.368 . S
C540 C539 1.523 . S
H541 C516 0.950 . S
H542 C518 0.950 . S
H543 C519 0.949 . S
H544 C521 0.950 . S
H545 C523 0.950 . S
C546 C547 1.349 . S
C546 C548 1.327 . S
C546 H571 0.950 . S
C547 C546 1.349 . S
C547 C563 1.349 . S
C548 C546 1.327 . S
C548 C567 1.429 . S
C548 H572 0.950 . S
C549 C566 1.574 . S
C549 C568 1.368 . S
C549 H573 0.949 . S
H550 C554 0.949 . S
C551 C552 1.349 . S
C551 C553 1.327 . S
C551 H574 0.950 . S
C552 C551 1.349 . S
C552 C564 1.349 . S
C553 C551 1.327 . S
C553 C569 1.429 . S
C553 H575 0.950 . S
C554 H550 0.949 . S
C554 C562 1.574 . S
C554 C570 1.368 . S
H555 C563 0.950 . S
H556 C561 0.950 . S
H557 C562 0.949 . S
H558 C564 0.950 . S
H559 C565 0.950 . S
H560 C566 0.949 . S
C561 H556 0.950 . S
C561 C563 1.327 . S
C561 C567 1.429 . S
C562 C554 1.574 . S
C562 H557 0.949 . S
C562 C568 1.368 . S
C563 C547 1.349 . S
C563 H555 0.950 . S
C563 C561 1.327 . S
C564 C552 1.349 . S
C564 H558 0.950 . S
C564 C565 1.327 . S
C565 H559 0.950 . S
C565 C564 1.327 . S
C565 C569 1.429 . S
C566 C549 1.574 . S
C566 H560 0.949 . S
C566 C570 1.368 . S
C567 C548 1.429 . S
C567 C561 1.429 . S
C567 C568 1.523 . S
C568 C549 1.368 . S
C568 C562 1.368 . S
C568 C567 1.523 . S
C569 C553 1.429 . S
C569 C565 1.429 . S
C569 C570 1.523 . S
C570 C554 1.368 . S
C570 C566 1.368 . S
C570 C569 1.523 . S
H571 C546 0.950 . S
H572 C548 0.950 . S
H573 C549 0.949 . S
H574 C551 0.950 . S
H575 C553 0.950 . S
C576 C577 1.349 . S
C576 C578 1.327 . S
C576 H601 0.950 . S
C577 C576 1.349 . S
C577 C593 1.349 . S
C578 C576 1.327 . S
C578 C597 1.429 . S
C578 H602 0.950 . S
C579 C596 1.574 . S
C579 C598 1.368 . S
C579 H603 0.949 . S
H580 C584 0.949 . S
C581 C582 1.349 . S
C581 C583 1.327 . S
C581 H604 0.950 . S
C582 C581 1.349 . S
C582 C594 1.349 . S
C583 C581 1.327 . S
C583 C599 1.429 . S
C583 H605 0.950 . S
C584 H580 0.949 . S
C584 C592 1.574 . S
C584 C600 1.368 . S
H585 C593 0.950 . S
H586 C591 0.950 . S
H587 C592 0.949 . S
H588 C594 0.950 . S
H589 C595 0.950 . S
H590 C596 0.949 . S
C591 H586 0.950 . S
C591 C593 1.327 . S
C591 C597 1.429 . S
C592 C584 1.574 . S
C592 H587 0.949 . S
C592 C598 1.368 . S
C593 C577 1.349 . S
C593 H585 0.950 . S
C593 C591 1.327 . S
C594 C582 1.349 . S
C594 H588 0.950 . S
C594 C595 1.327 . S
C595 H589 0.950 . S
C595 C594 1.327 . S
C595 C599 1.429 . S
C596 C579 1.574 . S
C596 H590 0.949 . S
C596 C600 1.368 . S
C597 C578 1.429 . S
C597 C591 1.429 . S
C597 C598 1.523 . S
C598 C579 1.368 . S
C598 C592 1.368 . S
C598 C597 1.523 . S
C599 C583 1.429 . S
C599 C595 1.429 . S
C599 C600 1.523 . S
C600 C584 1.368 . S
C600 C596 1.368 . S
C600 C599 1.523 . S
H601 C576 0.950 . S
H602 C578 0.950 . S
H603 C579 0.949 . S
H604 C581 0.950 . S
H605 C583 0.950 . S
C606 C607 1.349 . S
C606 C608 1.327 . S
C606 H631 0.950 . S
C607 C606 1.349 . S
C607 C623 1.349 . S
C608 C606 1.327 . S
C608 C627 1.429 . S
C608 H632 0.950 . S
C609 C626 1.574 . S
C609 C628 1.368 . S
C609 H633 0.949 . S
H610 C614 0.949 . S
C611 C612 1.349 . S
C611 C613 1.327 . S
C611 H634 0.950 . S
C612 C611 1.349 . S
C612 C624 1.349 . S
C613 C611 1.327 . S
C613 C629 1.429 . S
C613 H635 0.950 . S
C614 H610 0.949 . S
C614 C622 1.574 . S
C614 C630 1.368 . S
H615 C623 0.950 . S
H616 C621 0.950 . S
H617 C622 0.949 . S
H618 C624 0.950 . S
H619 C625 0.950 . S
H620 C626 0.949 . S
C621 H616 0.950 . S
C621 C623 1.327 . S
C621 C627 1.429 . S
C622 C614 1.574 . S
C622 H617 0.949 . S
C622 C628 1.368 . S
C623 C607 1.349 . S
C623 H615 0.950 . S
C623 C621 1.327 . S
C624 C612 1.349 . S
C624 H618 0.950 . S
C624 C625 1.327 . S
C625 H619 0.950 . S
C625 C624 1.327 . S
C625 C629 1.429 . S
C626 C609 1.574 . S
C626 H620 0.949 . S
C626 C630 1.368 . S
C627 C608 1.429 . S
C627 C621 1.429 . S
C627 C628 1.523 . S
C628 C609 1.368 . S
C628 C622 1.368 . S
C628 C627 1.523 . S
C629 C613 1.429 . S
C629 C625 1.429 . S
C629 C630 1.523 . S
C630 C614 1.368 . S
C630 C626 1.368 . S
C630 C629 1.523 . S
H631 C606 0.950 . S
H632 C608 0.950 . S
H633 C609 0.949 . S
H634 C611 0.950 . S
H635 C613 0.950 . S
C636 C637 1.349 . S
C636 C638 1.327 . S
C636 H661 0.950 . S
C637 C636 1.349 . S
C637 C653 1.349 . S
C638 C636 1.327 . S
C638 C657 1.429 . S
C638 H662 0.950 . S
C639 C656 1.574 . S
C639 C658 1.368 . S
C639 H663 0.949 . S
H640 C644 0.949 . S
C641 C642 1.349 . S
C641 C643 1.327 . S
C641 H664 0.950 . S
C642 C641 1.349 . S
C642 C654 1.349 . S
C643 C641 1.327 . S
C643 C659 1.429 . S
C643 H665 0.950 . S
C644 H640 0.949 . S
C644 C652 1.574 . S
C644 C660 1.368 . S
H645 C653 0.950 . S
H646 C651 0.950 . S
H647 C652 0.949 . S
H648 C654 0.950 . S
H649 C655 0.950 . S
H650 C656 0.949 . S
C651 H646 0.950 . S
C651 C653 1.327 . S
C651 C657 1.429 . S
C652 C644 1.574 . S
C652 H647 0.949 . S
C652 C658 1.368 . S
C653 C637 1.349 . S
C653 H645 0.950 . S
C653 C651 1.327 . S
C654 C642 1.349 . S
C654 H648 0.950 . S
C654 C655 1.327 . S
C655 H649 0.950 . S
C655 C654 1.327 . S
C655 C659 1.429 . S
C656 C639 1.574 . S
C656 H650 0.949 . S
C656 C660 1.368 . S
C657 C638 1.429 . S
C657 C651 1.429 . S
C657 C658 1.523 . S
C658 C639 1.368 . S
C658 C652 1.368 . S
C658 C657 1.523 . S
C659 C643 1.429 . S
C659 C655 1.429 . S
C659 C660 1.523 . S
C660 C644 1.368 . S
C660 C656 1.368 . S
C660 C659 1.523 . S
H661 C636 0.950 . S
H662 C638 0.950 . S
H663 C639 0.949 . S
H664 C641 0.950 . S
H665 C643 0.950 . S
C666 C667 1.349 . S
C666 C668 1.327 . S
C666 H691 0.950 . S
C667 C666 1.349 . S
C667 C683 1.349 . S
C668 C666 1.327 . S
C668 C687 1.429 . S
C668 H692 0.950 . S
C669 C686 1.574 . S
C669 C688 1.368 . S
C669 H693 0.949 . S
H670 C674 0.949 . S
C671 C672 1.349 . S
C671 C673 1.327 . S
C671 H694 0.950 . S
C672 C671 1.349 . S
C672 C684 1.349 . S
C673 C671 1.327 . S
C673 C689 1.429 . S
C673 H695 0.950 . S
C674 H670 0.949 . S
C674 C682 1.574 . S
C674 C690 1.368 . S
H675 C683 0.950 . S
H676 C681 0.950 . S
H677 C682 0.949 . S
H678 C684 0.950 . S
H679 C685 0.950 . S
H680 C686 0.949 . S
C681 H676 0.950 . S
C681 C683 1.327 . S
C681 C687 1.429 . S
C682 C674 1.574 . S
C682 H677 0.949 . S
C682 C688 1.368 . S
C683 C667 1.349 . S
C683 H675 0.950 . S
C683 C681 1.327 . S
C684 C672 1.349 . S
C684 H678 0.950 . S
C684 C685 1.327 . S
C685 H679 0.950 . S
C685 C684 1.327 . S
C685 C689 1.429 . S
C686 C669 1.574 . S
C686 H680 0.949 . S
C686 C690 1.368 . S
C687 C668 1.429 . S
C687 C681 1.429 . S
C687 C688 1.523 . S
C688 C669 1.368 . S
C688 C682 1.368 . S
C688 C687 1.523 . S
C689 C673 1.429 . S
C689 C685 1.429 . S
C689 C690 1.523 . S
C690 C674 1.368 . S
C690 C686 1.368 . S
C690 C689 1.523 . S
H691 C666 0.950 . S
H692 C668 0.950 . S
H693 C669 0.949 . S
H694 C671 0.950 . S
H695 C673 0.950 . S
C696 C697 1.349 . S
C696 C698 1.327 . S
C696 H721 0.950 . S
C697 C696 1.349 . S
C697 C713 1.349 1_455 S
C698 C696 1.327 . S
C698 C717 1.429 . S
C698 H722 0.950 . S
C699 C716 1.574 . S
C699 C718 1.368 1_655 S
C699 H723 0.949 . S
H700 C704 0.949 . S
C701 C702 1.349 . S
C701 C703 1.330 1_556 S
C701 H724 0.950 1_455 S
C702 C701 1.349 . S
C702 C714 1.349 . S
C703 C701 1.330 1_554 S
C703 C719 1.446 . S
C703 H725 0.930 1_455 S
C704 H700 0.949 . S
C704 C712 1.574 . S
C704 C720 1.368 . S
H705 C713 0.950 . S
H706 C711 0.950 . S
H707 C712 0.949 . S
H708 C714 0.950 . S
H709 C715 0.950 . S
H710 C716 0.949 . S
C711 H706 0.950 . S
C711 C713 1.327 . S
C711 C717 1.429 1_655 S
C712 C704 1.574 . S
C712 H707 0.949 . S
C712 C718 1.368 . S
C713 C697 1.349 1_655 S
C713 H705 0.950 . S
C713 C711 1.327 . S
C714 C702 1.349 . S
C714 H708 0.950 . S
C714 C715 1.327 1_556 S
C715 H709 0.950 . S
C715 C714 1.327 1_554 S
C715 C719 1.429 . S
C716 C699 1.574 . S
C716 H710 0.949 . S
C716 C720 1.368 1_655 S
C717 C698 1.429 . S
C717 C711 1.429 1_455 S
C717 C718 1.523 . S
C718 C699 1.368 1_455 S
C718 C712 1.368 . S
C718 C717 1.523 . S
C719 C703 1.446 . S
C719 C715 1.429 . S
C719 C720 1.523 . S
C720 C704 1.368 . S
C720 C716 1.368 1_455 S
C720 C719 1.523 . S
H721 C696 0.950 . S
H722 C698 0.950 . S
H723 C699 0.949 . S
H724 C701 0.950 1_655 S
H725 C703 0.930 1_655 S
C726 C727 1.349 1_565 S
C726 C728 1.327 . S
C726 H751 0.950 . S
C727 C726 1.349 1_545 S
C727 C743 1.349 . S
C728 C726 1.327 . S
C728 C747 1.429 1_565 S
C728 H752 0.950 . S
C729 C746 1.574 . S
C729 C748 1.368 . S
C729 H753 0.949 . S
H730 C734 0.949 . S
C731 C732 1.349 . S
C731 C733 1.327 . S
C731 H754 0.950 . S
C732 C731 1.349 . S
C732 C744 1.349 . S
C733 C731 1.327 . S
C733 C749 1.429 . S
C733 H755 0.950 . S
C734 H730 0.949 . S
C734 C742 1.574 . S
C734 C750 1.368 1_565 S
H735 C743 0.950 . S
H736 C741 0.950 . S
H737 C742 0.949 . S
H738 C744 0.950 1_565 S
H739 C745 0.954 . S
H740 C746 0.949 . S
C741 H736 0.950 . S
C741 C743 1.327 . S
C741 C747 1.429 . S
C742 C734 1.574 . S
C742 H737 0.949 . S
C742 C748 1.368 1_565 S
C743 C727 1.349 . S
C743 H735 0.950 . S
C743 C741 1.327 . S
C744 C732 1.349 . S
C744 H738 0.950 1_545 S
C744 C745 1.325 1_545 S
C745 H739 0.954 . S
C745 C744 1.325 1_565 S
C745 C749 1.426 1_565 S
C746 C729 1.574 . S
C746 H740 0.949 . S
C746 C750 1.368 . S
C747 C728 1.429 1_545 S
C747 C741 1.429 . S
C747 C748 1.523 . S
C748 C729 1.368 . S
C748 C742 1.368 1_545 S
C748 C747 1.523 . S
C749 C733 1.429 . S
C749 C745 1.426 1_545 S
C749 C750 1.523 . S
C750 C734 1.368 1_545 S
C750 C746 1.368 . S
C750 C749 1.523 . S
H751 C726 0.950 . S
H752 C728 0.950 . S
H753 C729 0.949 . S
H754 C731 0.950 . S
H755 C733 0.950 . S
C756 C757 1.349 . S
C756 C758 1.327 . S
C756 H781 0.950 . S
C757 C756 1.349 . S
C757 C773 1.349 . S
C758 C756 1.327 . S
C758 C777 1.429 . S
C758 H782 0.950 . S
C759 C776 1.574 . S
C759 C778 1.368 . S
C759 H783 0.949 . S
H760 C764 0.949 . S
C761 C762 1.349 . S
C761 C763 1.327 . S
C761 H784 0.950 . S
C762 C761 1.349 . S
C762 C774 1.349 . S
C763 C761 1.327 . S
C763 C779 1.429 . S
C763 H785 0.950 . S
C764 H760 0.949 . S
C764 C772 1.574 . S
C764 C780 1.368 . S
H765 C773 0.950 . S
H766 C771 0.950 . S
H767 C772 0.949 . S
H768 C774 0.950 . S
H769 C775 0.950 . S
H770 C776 0.949 . S
C771 H766 0.950 . S
C771 C773 1.327 . S
C771 C777 1.429 . S
C772 C764 1.574 . S
C772 H767 0.949 . S
C772 C778 1.368 . S
C773 C757 1.349 . S
C773 H765 0.950 . S
C773 C771 1.327 . S
C774 C762 1.349 . S
C774 H768 0.950 . S
C774 C775 1.327 . S
C775 H769 0.950 . S
C775 C774 1.327 . S
C775 C779 1.429 . S
C776 C759 1.574 . S
C776 H770 0.949 . S
C776 C780 1.368 . S
C777 C758 1.429 . S
C777 C771 1.429 . S
C777 C778 1.523 . S
C778 C759 1.368 . S
C778 C772 1.368 . S
C778 C777 1.523 . S
C779 C763 1.429 . S
C779 C775 1.429 . S
C779 C780 1.523 . S
C780 C764 1.368 . S
C780 C776 1.368 . S
C780 C779 1.523 . S
H781 C756 0.950 . S
H782 C758 0.950 . S
H783 C759 0.949 . S
H784 C761 0.950 . S
H785 C763 0.950 . S
C786 C787 1.349 . S
C786 C788 1.327 . S
C786 H811 0.950 . S
C787 C786 1.349 . S
C787 C803 1.349 1_545 S
C788 C786 1.327 . S
C788 C807 1.429 . S
C788 H812 0.950 . S
C789 C806 1.574 . S
C789 C808 1.368 1_565 S
C789 H813 0.949 . S
H790 C794 0.949 . S
C791 C792 1.349 1_565 S
C791 C793 1.327 . S
C791 H814 0.950 . S
C792 C791 1.349 1_545 S
C792 C804 1.349 . S
C793 C791 1.327 . S
C793 C809 1.429 1_565 S
C793 H815 0.950 . S
C794 H790 0.949 . S
C794 C802 1.574 . S
C794 C810 1.368 . S
H795 C803 0.950 . S
H796 C801 0.950 . S
H797 C802 0.949 . S
H798 C804 0.950 . S
H799 C805 0.950 . S
H800 C806 0.949 . S
C801 H796 0.950 . S
C801 C803 1.327 . S
C801 C807 1.429 1_565 S
C802 C794 1.574 . S
C802 H797 0.949 . S
C802 C808 1.368 . S
C803 C787 1.349 1_565 S
C803 H795 0.950 . S
C803 C801 1.327 . S
C804 C792 1.349 . S
C804 H798 0.950 . S
C804 C805 1.327 . S
C805 H799 0.950 . S
C805 C804 1.327 . S
C805 C809 1.429 . S
C806 C789 1.574 . S
C806 H800 0.949 . S
C806 C810 1.368 1_565 S
C807 C788 1.429 . S
C807 C801 1.429 1_545 S
C807 C808 1.523 . S
C808 C789 1.368 1_545 S
C808 C802 1.368 . S
C808 C807 1.523 . S
C809 C793 1.429 1_545 S
C809 C805 1.429 . S
C809 C810 1.523 . S
C810 C794 1.368 . S
C810 C806 1.368 1_545 S
C810 C809 1.523 . S
H811 C786 0.950 . S
H812 C788 0.950 . S
H813 C789 0.949 . S
H814 C791 0.950 . S
H815 C793 0.950 . S
C816 C817 1.349 . S
C816 C818 1.327 . S
C816 H841 0.950 . S
C817 C816 1.349 . S
C817 C833 1.349 . S
C818 C816 1.327 . S
C818 C837 1.429 . S
C818 H842 0.950 . S
C819 C836 1.574 . S
C819 C838 1.368 . S
C819 H843 0.949 . S
H820 C824 0.949 . S
C821 C822 1.349 . S
C821 C823 1.327 1_554 S
C821 H844 0.950 . S
C822 C821 1.349 . S
C822 C834 1.349 . S
C823 C821 1.327 1_556 S
C823 C839 1.429 . S
C823 H845 0.950 . S
C824 H820 0.949 . S
C824 C832 1.574 . S
C824 C840 1.368 . S
H825 C833 0.950 . S
H826 C831 0.950 . S
H827 C832 0.949 . S
H828 C834 0.950 . S
H829 C835 0.950 . S
H830 C836 0.949 . S
C831 H826 0.950 . S
C831 C833 1.327 . S
C831 C837 1.429 . S
C832 C824 1.574 . S
C832 H827 0.949 . S
C832 C838 1.368 . S
C833 C817 1.349 . S
C833 H825 0.950 . S
C833 C831 1.327 . S
C834 C822 1.349 . S
C834 H828 0.950 . S
C834 C835 1.327 1_554 S
C835 H829 0.950 . S
C835 C834 1.327 1_556 S
C835 C839 1.429 . S
C836 C819 1.574 . S
C836 H830 0.949 . S
C836 C840 1.368 . S
C837 C818 1.429 . S
C837 C831 1.429 . S
C837 C838 1.523 . S
C838 C819 1.368 . S
C838 C832 1.368 . S
C838 C837 1.523 . S
C839 C823 1.429 . S
C839 C835 1.429 . S
C839 C840 1.523 . S
C840 C824 1.368 . S
C840 C836 1.368 . S
C840 C839 1.523 . S
H841 C816 0.950 . S
H842 C818 0.950 . S
H843 C819 0.949 . S
H844 C821 0.950 . S
H845 C823 0.950 . S
C846 C847 1.349 . S
C846 C848 1.327 . S
C846 H871 0.950 . S
C847 C846 1.349 . S
C847 C863 1.349 1_455 S
C848 C846 1.327 . S
C848 C867 1.429 . S
C848 H872 0.950 . S
C849 C866 1.574 1_655 S
C849 C868 1.368 1_655 S
C849 H873 0.949 . S
H850 C854 0.949 . S
C851 C852 1.349 . S
C851 C853 1.327 . S
C851 H874 0.950 . S
C852 C851 1.349 . S
C852 C864 1.349 . S
C853 C851 1.327 . S
C853 C869 1.429 . S
C853 H875 0.957 1_455 S
C854 H850 0.949 . S
C854 C862 1.574 . S
C854 C870 1.368 . S
H855 C863 0.950 . S
H856 C861 0.950 . S
H857 C862 0.949 . S
H858 C864 0.950 . S
H859 C865 0.950 . S
H860 C866 0.949 1_655 S
C861 H856 0.950 . S
C861 C863 1.327 . S
C861 C867 1.429 1_655 S
C862 C854 1.574 . S
C862 H857 0.949 . S
C862 C868 1.368 . S
C863 C847 1.349 1_655 S
C863 H855 0.950 . S
C863 C861 1.327 . S
C864 C852 1.349 . S
C864 H858 0.950 . S
C864 C865 1.327 . S
C865 H859 0.950 . S
C865 C864 1.327 . S
C865 C869 1.429 . S
C866 C849 1.574 1_455 S
C866 H860 0.949 1_455 S
C866 C870 1.368 . S
C867 C848 1.429 . S
C867 C861 1.429 1_455 S
C867 C868 1.523 . S
C868 C849 1.368 1_455 S
C868 C862 1.368 . S
C868 C867 1.523 . S
C869 C853 1.429 . S
C869 C865 1.429 . S
C869 C870 1.523 . S
C870 C854 1.368 . S
C870 C866 1.368 . S
C870 C869 1.523 . S
H871 C846 0.950 . S
H872 C848 0.950 . S
H873 C849 0.949 . S
H874 C851 0.950 . S
H875 C853 0.957 1_655 S
C337 C12 2.862 . S
C342 C325 2.800 . S
C367 C52 2.851 . S
C372 C253 2.792 . S
C397 C111 2.916 . S
C402 C289 2.851 . S
C427 C31 3.078 . S
C432 C301 3.037 . S
C462 C229 3.045 . S
C457 C71 3.089 . S
C492 C265 2.980 . S
C487 C92 3.019 . S
C517 C48 0.400 . S
C522 C181 0.376 . S
C547 C109 0.429 . S
C552 C193 0.343 . S
C577 C29 0.405 . S
C582 C121 0.319 . S
C612 C157 0.227 . S
C607 C69 0.343 . S
C642 C217 0.327 . S
C637 C88 0.250 . S
C667 C8 0.254 . S
C672 C145 0.311 . S
C702 C223 1.095 . S
C697 C17 1.084 . S
C727 C57 1.083 . S
C732 C151 1.093 . S
C757 C97 1.087 . S
C762 C187 1.106 . S
C792 C295 1.770 . S
C787 C42 1.712 . S
C822 C331 1.765 . S
C817 C82 1.720 . S
C847 C2 1.725 . S
C852 C259 1.769 . S
