# Generated by pormake.
# Topology ctn, (3,4)-cn, num edge types: 1
# Building blocks:
#     Node 0, Type 0, BuildingBlock: BETDIP_clean_linker_0, # of connection points: 3
#     Node 1, Type 0, BuildingBlock: BETDIP_clean_linker_0, # of connection points: 3
#     Node 2, Type 0, BuildingBlock: BETDIP_clean_linker_0, # of connection points: 3
#     Node 3, Type 0, BuildingBlock: BETDIP_clean_linker_0, # of connection points: 3
#     Node 4, Type 0, BuildingBlock: BETDIP_clean_linker_0, # of connection points: 3
#     Node 5, Type 0, BuildingBlock: BETDIP_clean_linker_0, # of connection points: 3
#     Node 6, Type 0, BuildingBlock: BETDIP_clean_linker_0, # of connection points: 3
#     Node 7, Type 0, BuildingBlock: BETDIP_clean_linker_0, # of connection points: 3
#     Node 8, Type 0, BuildingBlock: BETDIP_clean_linker_0, # of connection points: 3
#     Node 9, Type 0, BuildingBlock: BETDIP_clean_linker_0, # of connection points: 3
#     Node 10, Type 0, BuildingBlock: BETDIP_clean_linker_0, # of connection points: 3
#     Node 11, Type 0, BuildingBlock: BETDIP_clean_linker_0, # of connection points: 3
#     Node 12, Type 0, BuildingBlock: BETDIP_clean_linker_0, # of connection points: 3
#     Node 13, Type 0, BuildingBlock: BETDIP_clean_linker_0, # of connection points: 3
#     Node 14, Type 0, BuildingBlock: BETDIP_clean_linker_0, # of connection points: 3
#     Node 15, Type 0, BuildingBlock: BETDIP_clean_linker_0, # of connection points: 3
#     Node 16, Type 1, BuildingBlock: QUQFOY_clean_sbu_1, # of connection points: 4
#     Node 17, Type 1, BuildingBlock: QUQFOY_clean_sbu_1, # of connection points: 4
#     Node 18, Type 1, BuildingBlock: QUQFOY_clean_sbu_1, # of connection points: 4
#     Node 19, Type 1, BuildingBlock: QUQFOY_clean_sbu_1, # of connection points: 4
#     Node 20, Type 1, BuildingBlock: QUQFOY_clean_sbu_1, # of connection points: 4
#     Node 21, Type 1, BuildingBlock: QUQFOY_clean_sbu_1, # of connection points: 4
#     Node 22, Type 1, BuildingBlock: QUQFOY_clean_sbu_1, # of connection points: 4
#     Node 23, Type 1, BuildingBlock: QUQFOY_clean_sbu_1, # of connection points: 4
#     Node 24, Type 1, BuildingBlock: QUQFOY_clean_sbu_1, # of connection points: 4
#     Node 25, Type 1, BuildingBlock: QUQFOY_clean_sbu_1, # of connection points: 4
#     Node 26, Type 1, BuildingBlock: QUQFOY_clean_sbu_1, # of connection points: 4
#     Node 27, Type 1, BuildingBlock: QUQFOY_clean_sbu_1, # of connection points: 4
#     Edge 28, Type (0, 1), BuildingBlock: EZIPEK_clean_linker_0, # of connection points: 2
#     Edge 29, Type (0, 1), BuildingBlock: EZIPEK_clean_linker_0, # of connection points: 2
#     Edge 30, Type (0, 1), BuildingBlock: EZIPEK_clean_linker_0, # of connection points: 2
#     Edge 31, Type (0, 1), BuildingBlock: EZIPEK_clean_linker_0, # of connection points: 2
#     Edge 32, Type (0, 1), BuildingBlock: EZIPEK_clean_linker_0, # of connection points: 2
#     Edge 33, Type (0, 1), BuildingBlock: EZIPEK_clean_linker_0, # of connection points: 2
#     Edge 34, Type (0, 1), BuildingBlock: EZIPEK_clean_linker_0, # of connection points: 2
#     Edge 35, Type (0, 1), BuildingBlock: EZIPEK_clean_linker_0, # of connection points: 2
#     Edge 36, Type (0, 1), BuildingBlock: EZIPEK_clean_linker_0, # of connection points: 2
#     Edge 37, Type (0, 1), BuildingBlock: EZIPEK_clean_linker_0, # of connection points: 2
#     Edge 38, Type (0, 1), BuildingBlock: EZIPEK_clean_linker_0, # of connection points: 2
#     Edge 39, Type (0, 1), BuildingBlock: EZIPEK_clean_linker_0, # of connection points: 2
#     Edge 40, Type (0, 1), BuildingBlock: EZIPEK_clean_linker_0, # of connection points: 2
#     Edge 41, Type (0, 1), BuildingBlock: EZIPEK_clean_linker_0, # of connection points: 2
#     Edge 42, Type (0, 1), BuildingBlock: EZIPEK_clean_linker_0, # of connection points: 2
#     Edge 43, Type (0, 1), BuildingBlock: EZIPEK_clean_linker_0, # of connection points: 2
#     Edge 44, Type (0, 1), BuildingBlock: EZIPEK_clean_linker_0, # of connection points: 2
#     Edge 45, Type (0, 1), BuildingBlock: EZIPEK_clean_linker_0, # of connection points: 2
#     Edge 46, Type (0, 1), BuildingBlock: EZIPEK_clean_linker_0, # of connection points: 2
#     Edge 47, Type (0, 1), BuildingBlock: EZIPEK_clean_linker_0, # of connection points: 2
#     Edge 48, Type (0, 1), BuildingBlock: EZIPEK_clean_linker_0, # of connection points: 2
#     Edge 49, Type (0, 1), BuildingBlock: EZIPEK_clean_linker_0, # of connection points: 2
#     Edge 50, Type (0, 1), BuildingBlock: EZIPEK_clean_linker_0, # of connection points: 2
#     Edge 51, Type (0, 1), BuildingBlock: EZIPEK_clean_linker_0, # of connection points: 2
#     Edge 52, Type (0, 1), BuildingBlock: EZIPEK_clean_linker_0, # of connection points: 2
#     Edge 53, Type (0, 1), BuildingBlock: EZIPEK_clean_linker_0, # of connection points: 2
#     Edge 54, Type (0, 1), BuildingBlock: EZIPEK_clean_linker_0, # of connection points: 2
#     Edge 55, Type (0, 1), BuildingBlock: EZIPEK_clean_linker_0, # of connection points: 2
#     Edge 56, Type (0, 1), BuildingBlock: EZIPEK_clean_linker_0, # of connection points: 2
#     Edge 57, Type (0, 1), BuildingBlock: EZIPEK_clean_linker_0, # of connection points: 2
#     Edge 58, Type (0, 1), BuildingBlock: EZIPEK_clean_linker_0, # of connection points: 2
#     Edge 59, Type (0, 1), BuildingBlock: EZIPEK_clean_linker_0, # of connection points: 2
#     Edge 60, Type (0, 1), BuildingBlock: EZIPEK_clean_linker_0, # of connection points: 2
#     Edge 61, Type (0, 1), BuildingBlock: EZIPEK_clean_linker_0, # of connection points: 2
#     Edge 62, Type (0, 1), BuildingBlock: EZIPEK_clean_linker_0, # of connection points: 2
#     Edge 63, Type (0, 1), BuildingBlock: EZIPEK_clean_linker_0, # of connection points: 2
#     Edge 64, Type (0, 1), BuildingBlock: EZIPEK_clean_linker_0, # of connection points: 2
#     Edge 65, Type (0, 1), BuildingBlock: EZIPEK_clean_linker_0, # of connection points: 2
#     Edge 66, Type (0, 1), BuildingBlock: EZIPEK_clean_linker_0, # of connection points: 2
#     Edge 67, Type (0, 1), BuildingBlock: EZIPEK_clean_linker_0, # of connection points: 2
#     Edge 68, Type (0, 1), BuildingBlock: EZIPEK_clean_linker_0, # of connection points: 2
#     Edge 69, Type (0, 1), BuildingBlock: EZIPEK_clean_linker_0, # of connection points: 2
#     Edge 70, Type (0, 1), BuildingBlock: EZIPEK_clean_linker_0, # of connection points: 2
#     Edge 71, Type (0, 1), BuildingBlock: EZIPEK_clean_linker_0, # of connection points: 2
#     Edge 72, Type (0, 1), BuildingBlock: EZIPEK_clean_linker_0, # of connection points: 2
#     Edge 73, Type (0, 1), BuildingBlock: EZIPEK_clean_linker_0, # of connection points: 2
#     Edge 74, Type (0, 1), BuildingBlock: EZIPEK_clean_linker_0, # of connection points: 2
#     Edge 75, Type (0, 1), BuildingBlock: EZIPEK_clean_linker_0, # of connection points: 2
# Relax obj value: 0.098
# Max RMSD: 0.198
# Mean RMSD: 0.137
data_MOF--net-ctn--node1-QUQFOY_clean_sbu_1--node2-BETDIP_clean_linker_0--edge1-EZIPEK_clean_linker_0
_symmetry_space_group_name_H-M    P1
_symmetry_Int_Tables_number       1
_symmetry_cell_setting            triclinic
loop_
_symmetry_equiv_pos_as_xyz
'x, y, z'
_cell_length_a     38.016534
_cell_length_b     38.158709
_cell_length_c     42.67215
_cell_angle_alpha  97.460229
_cell_angle_beta   94.308195
_cell_angle_gamma 98.637614
loop_
_atom_site_label
_atom_site_type_symbol
_atom_site_fract_x
_atom_site_fract_y
_atom_site_fract_z
_atom_type_partial_charge
H0 H 0.01838 0.09804 0.09045 0.0
H1 H 0.09304 0.05301 0.03228 0.0
H2 H 0.06087 0.00515 0.11335 0.0
H3 H 0.07305 0.08365 0.99617 0.0
C4 C 0.06253 0.10614 0.00806 0.0
C5 C 0.03532 0.07799 0.08518 0.0
C6 C 0.03746 0.05163 0.10496 0.0
C7 C 0.05447 0.07839 0.05839 0.0
C8 C 0.0769 0.05262 0.05207 0.0
C9 C 0.07918 0.0262 0.07184 0.0
C10 C 0.05912 0.02553 0.09805 0.0
N11 N 0.05074 0.10538 0.03886 0.0
H12 H 0.22456 0.71653 0.23223 0.0
H13 H 0.33128 0.77653 0.25029 0.0
H14 H 0.3016 0.68577 0.29806 0.0
H15 H 0.30043 0.82218 0.23561 0.0
C16 C 0.28516 0.80625 0.21467 0.0
C17 C 0.25122 0.72093 0.24448 0.0
C18 C 0.26019 0.69811 0.26594 0.0
C19 C 0.27642 0.74963 0.23897 0.0
C20 C 0.31112 0.75495 0.25467 0.0
C21 C 0.32019 0.73177 0.27579 0.0
C22 C 0.29469 0.70344 0.28143 0.0
N23 N 0.26667 0.77148 0.21637 0.0
H24 H 0.9633 0.54206 0.0207 0.0
H25 H 0.01912 0.49742 0.09333 0.0
H26 H 0.97151 0.59124 0.11831 0.0
H27 H 0.05213 0.48252 0.05179 0.0
C28 C 0.03111 0.47336 0.03255 0.0
C29 C 0.97266 0.54278 0.04545 0.0
C30 C 0.96487 0.56957 0.06843 0.0
C31 C 0.9931 0.51737 0.05403 0.0
C32 C 0.00445 0.51774 0.08613 0.0
C33 C 0.99661 0.54417 0.10932 0.0
C34 C 0.97729 0.57053 0.10044 0.0
N35 N 0.00099 0.49117 0.03001 0.0
H36 H 0.72814 0.73997 0.20089 0.0
H37 H 0.75103 0.83257 0.27304 0.0
H38 H 0.79743 0.83486 0.18485 0.0
H39 H 0.74249 0.78381 0.3046 0.0
C40 C 0.71637 0.77323 0.29206 0.0
C41 C 0.7415 0.76713 0.20901 0.0
C42 C 0.76327 0.78547 0.1891 0.0
C43 C 0.73683 0.78386 0.23936 0.0
C44 C 0.75438 0.81903 0.24984 0.0
C45 C 0.7765 0.83708 0.23032 0.0
C46 C 0.78038 0.82058 0.19991 0.0
N47 N 0.71313 0.76571 0.25837 0.0
H48 H 0.0432 0.95929 0.43692 0.0
H49 H 0.14602 0.99712 0.4899 0.0
H50 H 0.10505 0.05936 0.42345 0.0
H51 H 0.13771 0.9483 0.51105 0.0
C52 C 0.10977 0.93632 0.50733 0.0
C53 C 0.06717 0.97916 0.44253 0.0
C54 C 0.07108 0.00975 0.42716 0.0
C55 C 0.09349 0.9745 0.4658 0.0
C56 C 0.12493 -4e-05 0.47247 0.0
C57 C 0.12917 0.03031 0.45695 0.0
C58 C 0.10189 0.03553 0.43501 0.0
N59 N 0.08632 0.94511 0.48302 0.0
H60 H 0.23457 0.78859 0.84948 0.0
H61 H 0.27192 0.70876 0.78517 0.0
H62 H 0.30682 0.72323 0.88491 0.0
H63 H 0.23285 0.72203 0.74859 0.0
C64 C 0.21809 0.74198 0.75917 0.0
C65 C 0.25059 0.76751 0.84521 0.0
C66 C 0.27035 0.7577 0.87068 0.0
C67 C 0.25068 0.75015 0.81436 0.0
C68 C 0.27131 0.72265 0.80883 0.0
C69 C 0.29174 0.71305 0.83428 0.0
C70 C 0.29121 0.73063 0.86522 0.0
N71 N 0.22857 0.76071 0.79019 0.0
H72 H 0.00751 0.60956 0.51398 0.0
H73 H 0.94311 0.50554 0.48671 0.0
H74 H 0.90518 0.58519 0.5499 0.0
H75 H 0.99249 0.48934 0.4696 0.0
C76 C 0.0073 0.51303 0.46236 0.0
C77 C 0.9834 0.59084 0.51532 0.0
C78 C 0.95696 0.60137 0.53407 0.0
C79 C 0.97888 0.55639 0.49812 0.0
C80 C 0.94766 0.53216 0.50006 0.0
C81 C 0.92135 0.54246 0.51895 0.0
C82 C 0.92571 0.57721 0.53547 0.0
N83 N 0.00533 0.54782 0.47794 0.0
H84 H 0.80754 0.89729 0.79071 0.0
H85 H 0.86887 0.8315 0.83954 0.0
H86 H 0.77224 0.85911 0.87552 0.0
H87 H 0.91422 0.88194 0.81944 0.0
C88 C 0.90273 0.87236 0.79524 0.0
C89 C 0.81132 0.88224 0.81023 0.0
C90 C 0.7868 0.88088 0.83318 0.0
C91 C 0.84128 0.86521 0.81281 0.0
C92 C 0.84632 0.84574 0.83807 0.0
C93 C 0.8211 0.84291 0.86039 0.0
C94 C 0.79153 0.86086 0.8581 0.0
N95 N 0.86497 0.86627 0.78876 0.0
H96 H 0.30625 0.37803 0.2729 0.0
H97 H 0.36256 0.31014 0.32393 0.0
H98 H 0.27061 0.34825 0.36062 0.0
H99 H 0.41041 0.35607 0.30438 0.0
C100 C 0.3993 0.34927 0.27976 0.0
C101 C 0.30903 0.36363 0.29301 0.0
C102 C 0.28534 0.3658 0.31658 0.0
C103 C 0.33746 0.34461 0.29606 0.0
C104 C 0.34122 0.32589 0.32202 0.0
C105 C 0.31671 0.32658 0.34501 0.0
C106 C 0.28914 0.34707 0.34254 0.0
N107 N 0.36169 0.34429 0.27246 0.0
H108 H 0.45148 0.03238 0.50792 0.0
H109 H 0.51425 0.98724 0.57572 0.0
H110 H 0.4795 0.08769 0.60323 0.0
H111 H 0.48631 0.93573 0.54669 0.0
C112 C 0.48719 0.94171 0.52254 0.0
C113 C 0.46486 0.03395 0.53153 0.0
C114 C 0.46354 0.06342 0.55462 0.0
C115 C 0.48249 0.00599 0.539 0.0
C116 C 0.49965 0.00807 0.56962 0.0
C117 C 0.49845 0.03726 0.59274 0.0
C118 C 0.48072 0.06521 0.58522 0.0
N119 N 0.48286 0.97625 0.51536 0.0
H120 H 0.2175 0.26924 0.68771 0.0
H121 H 0.23737 0.36417 0.75686 0.0
H122 H 0.30781 0.35063 0.68366 0.0
H123 H 0.22151 0.32183 0.7901 0.0
C124 C 0.19715 0.30851 0.7758 0.0
C125 C 0.2339 0.29459 0.69753 0.0
C126 C 0.26289 0.30852 0.68185 0.0
C127 C 0.226 0.31351 0.72581 0.0
C128 C 0.24539 0.34786 0.73678 0.0
C129 C 0.2756 0.36119 0.72238 0.0
C130 C 0.28475 0.34066 0.69534 0.0
N131 N 0.19818 0.2981 0.74269 0.0
H132 H 0.72374 0.21594 0.74231 0.0
H133 H 0.82577 0.28548 0.76018 0.0
H134 H 0.80111 0.20105 0.81615 0.0
H135 H 0.79762 0.32183 0.73262 0.0
C136 C 0.78061 0.30284 0.71453 0.0
C137 C 0.74952 0.22441 0.75598 0.0
C138 C 0.75966 0.20553 0.78033 0.0
C139 C 0.77279 0.25367 0.74868 0.0
C140 C 0.80669 0.26381 0.76596 0.0
C141 C 0.81676 0.24481 0.79028 0.0
C142 C 0.79315 0.21592 0.79753 0.0
N143 N 0.76223 0.27042 0.72242 0.0
H144 H 0.52102 0.59632 0.5883 0.0
H145 H 0.59125 0.5428 0.53105 0.0
H146 H 0.56345 0.5063 0.61819 0.0
H147 H 0.57399 0.57239 0.49375 0.0
C148 C 0.56313 0.59542 0.5041 0.0
C149 C 0.53739 0.57552 0.58423 0.0
C150 C 0.54025 0.55177 0.60641 0.0
C151 C 0.55515 0.57242 0.55666 0.0
C152 C 0.57646 0.54542 0.55165 0.0
C153 C 0.5794 0.52159 0.57378 0.0
C154 C 0.56125 0.52477 0.60112 0.0
N155 N 0.55114 0.59718 0.53496 0.0
H156 H 0.56057 0.45088 0.92857 0.0
H157 H 0.66135 0.50032 0.98046 0.0
H158 H 0.62001 0.54559 0.90168 0.0
H159 H 0.65127 0.46231 0.01283 0.0
C160 C 0.62635 0.44417 0.00598 0.0
C161 C 0.58427 0.47119 0.93175 0.0
C162 C 0.58706 0.4984 0.91236 0.0
C163 C 0.61065 0.47152 0.95668 0.0
C164 C 0.6407 0.49879 0.96131 0.0
C165 C 0.64435 0.52511 0.94117 0.0
C166 C 0.61768 0.52456 0.9166 0.0
N167 N 0.60473 0.44544 0.97756 0.0
H168 H 0.69092 0.25836 0.33447 0.0
H169 H 0.73785 0.17913 0.27825 0.0
H170 H 0.78582 0.22407 0.37235 0.0
H171 H 0.71501 0.20343 0.23686 0.0
C172 C 0.69268 0.21586 0.24459 0.0
C173 C 0.71149 0.24164 0.33183 0.0
C174 C 0.73761 0.24274 0.35695 0.0
C175 C 0.71252 0.22029 0.30287 0.0
C176 C 0.73832 0.19755 0.29987 0.0
C177 C 0.76501 0.19856 0.3249 0.0
C178 C 0.76513 0.22237 0.35304 0.0
N179 N 0.6876 0.22318 0.27728 0.0
H180 H 0.45505 0.13756 0.94399 0.0
H181 H 0.39224 0.03306 0.94072 0.0
H182 H 0.39851 0.11096 0.02354 0.0
H183 H 0.4141 0.01835 0.89533 0.0
C184 C 0.43811 0.03767 0.89531 0.0
C185 C 0.4367 0.11892 0.95451 0.0
C186 C 0.42763 0.1285 0.98539 0.0
C187 C 0.425 0.08425 0.93842 0.0
C188 C 0.4018 0.05999 0.95253 0.0
C189 C 0.39177 0.06988 0.98295 0.0
C190 C 0.4051 0.1039 -0.00053 0.0
N191 N 0.44072 0.07359 0.91031 0.0
O192 O 0.2753 0.85268 0.01046 0.0
Cd193 Cd 0.27679 0.88989 0.05036 0.0
Cd194 Cd 0.22736 0.91075 0.01387 0.0
O195 O 0.22671 0.86364 0.98422 0.0
O196 O 0.30388 0.87033 0.08372 0.0
O197 O 0.24761 0.87877 0.08622 0.0
C198 C 0.2755 0.86807 0.09851 0.0
C199 C 0.17897 0.93274 0.0341 0.0
C200 C 0.25221 0.84575 0.98647 0.0
C201 C 0.29785 0.95839 0.02704 0.0
O202 O 0.26885 0.94992 0.00912 0.0
O203 O 0.30506 0.93989 0.04863 0.0
O204 O 0.18377 0.93195 0.00442 0.0
O205 O 0.19996 0.91812 0.05183 0.0
O206 O 0.17001 0.55198 0.29823 0.0
Cd207 Cd 0.14417 0.50514 0.31097 0.0
Cd208 Cd 0.08474 0.54057 0.28587 0.0
O209 O 0.12578 0.58269 0.29113 0.0
O210 O 0.18524 0.48804 0.33257 0.0
O211 O 0.15482 0.45833 0.28853 0.0
C212 C 0.18081 0.46106 0.31044 0.0
C213 C 0.05223 0.5346 0.23695 0.0
C214 C 0.15878 0.5806 0.29313 0.0
C215 C 0.07869 0.51344 0.348 0.0
O216 O 0.06288 0.52563 0.3255 0.0
O217 O 0.10987 0.50551 0.34637 0.0
O218 O 0.04695 0.5579 0.26006 0.0
O219 O 0.07426 0.51283 0.24215 0.0
O220 O 0.80673 0.74886 0.97547 0.0
Cd221 Cd 0.79369 0.71316 0.0072 0.0
Cd222 Cd 0.83819 0.67795 0.97419 0.0
O223 O 0.84708 0.72219 0.95125 0.0
O224 O 0.76619 0.73948 0.03767 0.0
O225 O 0.81463 0.71803 0.05253 0.0
C226 C 0.78827 0.73399 0.06023 0.0
C227 C 0.87931 0.65759 0.00711 0.0
C228 C 0.82917 0.74775 0.95485 0.0
C229 C 0.76384 0.64108 0.96944 0.0
O230 O 0.79327 0.64154 0.9572 0.0
O231 O 0.75954 0.66629 0.99061 0.0
O232 O 0.87962 0.65176 0.97662 0.0
O233 O 0.85722 0.67712 0.01894 0.0
O234 O 0.96761 0.0174 0.30164 0.0
Cd235 Cd 0.93644 0.01789 0.26017 0.0
Cd236 Cd 0.89374 0.0462 0.30435 0.0
O237 O 0.93735 0.04588 0.33612 0.0
O238 O 0.96764 0.00542 0.22642 0.0
O239 O 0.94561 0.0562 0.23197 0.0
C240 C 0.96439 0.03542 0.21673 0.0
C241 C 0.863 0.09526 0.31052 0.0
C242 C 0.96407 0.03064 0.32992 0.0
C243 C 0.86615 0.97413 0.26503 0.0
O244 O 0.86201 0.99751 0.28784 0.0
O245 O 0.89339 0.97797 0.24967 0.0
O246 O 0.85882 0.07024 0.32808 0.0
O247 O 0.88575 0.0929 0.28967 0.0
O248 O 0.29628 0.24681 0.46751 0.0
Cd249 Cd 0.28384 0.21754 0.50361 0.0
Cd250 Cd 0.32839 0.17581 0.47748 0.0
O251 O 0.33509 0.21441 0.44748 0.0
O252 O 0.25914 0.24721 0.53362 0.0
O253 O 0.31014 0.22916 0.54731 0.0
C254 C 0.28409 0.24556 0.55529 0.0
C255 C 0.37476 0.1565 0.50513 0.0
C256 C 0.31805 0.24065 0.44707 0.0
C257 C 0.25254 0.14174 0.47809 0.0
O258 O 0.28299 0.13767 0.46929 0.0
O259 O 0.24742 0.17157 0.49227 0.0
O260 O 0.36821 0.1476 0.47481 0.0
O261 O 0.35678 0.17879 0.51954 0.0
O262 O 0.4678 0.51698 0.79792 0.0
Cd263 Cd 0.4368 0.53621 0.76327 0.0
Cd264 Cd 0.4087 0.5525 0.81557 0.0
O265 O 0.45804 0.55493 0.83838 0.0
O266 O 0.45567 0.51604 0.72386 0.0
O267 O 0.46047 0.57433 0.7395 0.0
C268 C 0.46645 0.54832 0.71912 0.0
C269 C 0.37745 0.60005 0.81931 0.0
C270 C 0.47575 0.53169 0.8266 0.0
C271 C 0.36943 0.49564 0.77071 0.0
O272 O 0.38177 0.50141 0.7996 0.0
O273 O 0.38268 0.51689 0.75276 0.0
O274 O 0.37785 0.57985 0.84137 0.0
O275 O 0.39548 0.59365 0.79525 0.0
O276 O 0.75298 0.3288 0.49884 0.0
Cd277 Cd 0.76679 0.36387 0.54023 0.0
Cd278 Cd 0.72232 0.40208 0.51343 0.0
O279 O 0.71656 0.36043 0.47634 0.0
O280 O 0.78898 0.3377 0.5717 0.0
O281 O 0.73971 0.36123 0.57869 0.0
C282 C 0.76403 0.34434 0.58937 0.0
C283 C 0.675 0.42527 0.53475 0.0
C284 C 0.73242 0.3333 0.47535 0.0
C285 C 0.79891 0.43579 0.52664 0.0
O286 O 0.7677 0.43931 0.51626 0.0
O287 O 0.80458 0.40758 0.53761 0.0
O288 O 0.68355 0.43068 0.50692 0.0
O289 O 0.69163 0.40432 0.54971 0.0
O290 O 0.66612 0.05996 0.81869 0.0
Cd291 Cd 0.63736 0.00987 0.81976 0.0
Cd292 Cd 0.5924 0.03592 0.76856 0.0
O293 O 0.63671 0.07451 0.77675 0.0
O294 O 0.66986 0.9887 0.84804 0.0
O295 O 0.65603 0.96783 0.79697 0.0
C296 C 0.67423 0.96679 0.82355 0.0
C297 C 0.56458 0.03201 0.71757 0.0
C298 C 0.66256 0.08086 0.79826 0.0
C299 C 0.56064 0.0163 0.82901 0.0
O300 O 0.5584 0.02926 0.80314 0.0
O301 O 0.58882 0.00523 0.83888 0.0
O302 O 0.56304 0.05855 0.73896 0.0
O303 O 0.58142 0.00686 0.72502 0.0
O304 O 0.00736 0.31558 0.95182 0.0
Cd305 Cd 0.99799 0.26631 0.92416 0.0
Cd306 Cd 0.03002 0.30231 0.88082 0.0
O307 O 0.03862 0.34352 0.91823 0.0
O308 O 0.99152 0.22996 0.95352 0.0
O309 O 0.0363 0.23545 0.92294 0.0
C310 C 0.02026 0.21962 0.94415 0.0
C311 C 0.07707 0.29516 0.85005 0.0
C312 C 0.02546 0.3437 0.94473 0.0
C313 C 0.95279 0.27022 0.86516 0.0
O314 O 0.97971 0.28969 0.85708 0.0
O315 O 0.95441 0.25674 0.89082 0.0
O316 O 0.05994 0.32169 0.84897 0.0
O317 O 0.06749 0.27225 0.86881 0.0
O318 O 0.50192 0.79631 0.43726 0.0
Cd319 Cd 0.49991 0.74804 0.40913 0.0
Cd320 Cd 0.53112 0.78922 0.36966 0.0
O321 O 0.53043 0.83031 0.40596 0.0
O322 O 0.49111 0.71127 0.43796 0.0
O323 O 0.5401 0.71976 0.41289 0.0
C324 C 0.52184 0.70296 0.43225 0.0
C325 C 0.58457 0.78078 0.34953 0.0
C326 C 0.51566 0.82687 0.43135 0.0
C327 C 0.45771 0.75018 0.34775 0.0
O328 O 0.48377 0.77225 0.34143 0.0
O329 O 0.4591 0.73613 0.37312 0.0
O330 O 0.56827 0.80639 0.34233 0.0
O331 O 0.57053 0.75979 0.36827 0.0
O332 O 0.00152 0.80127 0.69633 0.0
Cd333 Cd 0.03672 0.78046 0.66735 0.0
Cd334 Cd 0.00625 0.81927 0.62715 0.0
O335 O 0.98804 0.84252 0.66796 0.0
O336 O 0.06236 0.7535 0.69577 0.0
O337 O 0.08971 0.79908 0.67493 0.0
C338 C 0.09146 0.77409 0.69242 0.0
C339 C 0.03989 0.85362 0.59578 0.0
C340 C 0.98631 0.82823 0.69319 0.0
C341 C 0.99265 0.74079 0.60891 0.0
O342 O 0.98074 0.76947 0.60507 0.0
O343 O 0.01716 0.74073 0.63072 0.0
O344 O 0.00574 0.85254 0.59502 0.0
O345 O 0.05526 0.83593 0.61516 0.0
O346 O 0.49321 0.28701 0.17356 0.0
Cd347 Cd 0.52699 0.26739 0.14286 0.0
Cd348 Cd 0.51206 0.32196 0.11279 0.0
O349 O 0.49162 0.33808 0.15495 0.0
O350 O 0.55039 0.23401 0.16614 0.0
O351 O 0.5799 0.28337 0.15207 0.0
C352 C 0.58006 0.25534 0.16609 0.0
C353 C 0.553 0.35951 0.09022 0.0
C354 C 0.48388 0.31773 0.17562 0.0
C355 C 0.48725 0.24852 0.07858 0.0
O356 O 0.48356 0.28118 0.07999 0.0
O357 O 0.50571 0.23798 0.10045 0.0
O358 O 0.51988 0.36351 0.08926 0.0
O359 O 0.56351 0.33539 0.10569 0.0
C360 C 0.24227 0.765 0.92187 0.0
C361 C 0.26942 0.77715 0.90292 0.0
C362 C 0.28809 0.83178 0.94109 0.0
C363 C 0.25882 0.82115 0.95858 0.0
N364 N 0.20738 0.77897 0.96601 0.0
N365 N 0.31776 0.82155 0.89303 0.0
C366 C 0.23578 0.788 0.94916 0.0
C367 C 0.29257 0.81019 0.91238 0.0
N368 N 0.22302 0.73132 0.91376 0.0
N369 N 0.31135 0.86282 0.95173 0.0
H370 H 0.32301 0.80562 0.87268 0.0
H371 H 0.33254 0.8472 0.89607 0.0
H372 H 0.30735 0.88135 0.97079 0.0
H373 H 0.33565 0.86982 0.94264 0.0
H374 H 0.2049 0.71929 0.92778 0.0
H375 H 0.227 0.71409 0.89374 0.0
H376 H 0.18723 0.75715 0.95877 0.0
H377 H 0.20295 0.79445 0.98692 0.0
C378 C 0.00933 0.49013 0.40473 0.0
C379 C 0.02694 0.50948 0.43376 0.0
C380 C 0.07816 0.53167 0.40641 0.0
C381 C 0.0615 0.51081 0.37769 0.0
N382 N 0.01503 0.46438 0.35069 0.0
N383 N 0.08154 0.54033 0.4638 0.0
C384 C 0.02819 0.48823 0.37719 0.0
C385 C 0.06243 0.52774 0.43508 0.0
N386 N 0.97411 0.47512 0.40302 0.0
N387 N 0.10799 0.55659 0.40616 0.0
H388 H 0.07124 0.53673 0.48536 0.0
H389 H 0.1087 0.55078 0.46622 0.0
H390 H 0.12005 0.56111 0.38559 0.0
H391 H 0.11881 0.57518 0.42588 0.0
H392 H 0.95882 0.46439 0.38172 0.0
H393 H 0.95922 0.47581 0.42257 0.0
H394 H 0.99274 0.44465 0.35003 0.0
H395 H 0.02829 0.46212 0.33017 0.0
C396 C 0.84201 0.83221 0.91526 0.0
C397 C 0.82414 0.81868 0.88468 0.0
C398 C 0.80898 0.75928 0.90069 0.0
C399 C 0.82874 0.77217 0.93061 0.0
N400 N 0.86729 0.81909 0.96572 0.0
N401 N 0.79479 0.76876 0.84642 0.0
C402 C 0.84616 0.8082 0.93776 0.0
C403 C 0.8089 0.782 0.87685 0.0
N404 N 0.85435 0.8681 0.92287 0.0
N405 N 0.78892 0.72575 0.89555 0.0
H406 H 0.79274 0.78476 0.82854 0.0
H407 H 0.78737 0.74155 0.8382 0.0
H408 H 0.78841 0.70796 0.91218 0.0
H409 H 0.77052 0.71641 0.87583 0.0
H410 H 0.8643 0.88046 0.94565 0.0
H411 H 0.85265 0.88615 0.90664 0.0
H412 H 0.88361 0.84393 0.97128 0.0
H413 H 0.8704 0.80215 0.98271 0.0
C414 C 0.05268 0.02035 0.37174 0.0
C415 C 0.04323 0.01502 0.40252 0.0
C416 C 0.98079 0.01668 0.385 0.0
C417 C 0.99122 0.02716 0.3558 0.0
N418 N 0.0396 0.04876 0.3259 0.0
N419 N -0.00072 0.01751 0.44055 0.0
C420 C 0.02795 0.03194 0.35048 0.0
C421 C 0.00757 0.01604 0.40986 0.0
N422 N 0.08467 0.0131 0.36225 0.0
N423 N 0.94569 0.0053 0.38863 0.0
H424 H 0.01836 0.01857 0.45968 0.0
H425 H 0.97421 0.02158 0.44721 0.0
H426 H 0.92518 0.00258 0.37045 0.0
H427 H 0.93755 0.99444 0.40861 0.0
H428 H 0.09129 0.01375 0.33904 0.0
H429 H 0.10271 0.00245 0.37643 0.0
H430 H 0.06662 0.05537 0.32283 0.0
H431 H 0.02279 0.06 0.311 0.0
C432 C 0.26243 0.30974 0.62339 0.0
C433 C 0.26873 0.29159 0.64972 0.0
C434 C 0.28449 0.24188 0.61406 0.0
C435 C 0.28207 0.26205 0.58839 0.0
N436 N 0.27781 0.3191 0.5709 0.0
N437 N 0.29191 0.24334 0.6712 0.0
C438 C 0.27379 0.2972 0.59376 0.0
C439 C 0.2817 0.25853 0.64542 0.0
N440 N 0.24421 0.33808 0.6263 0.0
N441 N 0.28732 0.20637 0.60848 0.0
H442 H 0.29 0.25472 0.69448 0.0
H443 H 0.30506 0.2212 0.66957 0.0
H444 H 0.28813 0.1926 0.58587 0.0
H445 H 0.28539 0.18969 0.62598 0.0
H446 H 0.23612 0.35016 0.60704 0.0
H447 H 0.23365 0.34686 0.64723 0.0
H448 H 0.27523 0.34609 0.57482 0.0
H449 H 0.28767 0.31145 0.54932 0.0
C450 C 0.53872 0.57138 0.66466 0.0
C451 C 0.52048 0.55458 0.63505 0.0
C452 C 0.46503 0.54211 0.66022 0.0
C453 C 0.48434 0.55458 0.69033 0.0
N454 N 0.54005 0.57837 0.72208 0.0
N455 N 0.46733 0.52105 0.60445 0.0
C456 C 0.52127 0.56892 0.69283 0.0
C457 C 0.48382 0.53935 0.6327 0.0
N458 N 0.57256 0.58999 0.66573 0.0
N459 N 0.42859 0.53363 0.65796 0.0
H460 H 0.48002 0.5189 0.5836 0.0
H461 H 0.44192 0.50578 0.60208 0.0
H462 H 0.41398 0.53578 0.67769 0.0
H463 H 0.41257 0.52775 0.63647 0.0
H464 H 0.58595 0.60593 0.68603 0.0
H465 H 0.58627 0.59185 0.64557 0.0
H466 H 0.56778 0.58493 0.72549 0.0
H467 H 0.52814 0.57735 0.74325 0.0
C468 C 0.76622 0.34755 0.67922 0.0
C469 C 0.77384 0.31283 0.68238 0.0
C470 C 0.76674 0.29711 0.62452 0.0
C471 C 0.76419 0.33319 0.62135 0.0
N472 N 0.76749 0.39448 0.64605 0.0
N473 N 0.7891 0.25708 0.65769 0.0
C474 C 0.76529 0.35893 0.64878 0.0
C475 C 0.776 0.28812 0.65496 0.0
N476 N 0.75891 0.36938 0.70512 0.0
N477 N 0.75961 0.27124 0.59853 0.0
H478 H 0.79842 0.25032 0.67934 0.0
H479 H 0.7945 0.23995 0.6382 0.0
H480 H 0.75183 0.2767 0.57593 0.0
H481 H 0.7577 0.24399 0.60004 0.0
H482 H 0.74954 0.39345 0.70357 0.0
H483 H 0.75881 0.36187 0.72776 0.0
H484 H 0.77241 0.41466 0.66552 0.0
H485 H 0.76775 0.40426 0.62436 0.0
C486 C 0.5515 0.05274 0.63331 0.0
C487 C 0.51511 0.03736 0.62522 0.0
C488 C 0.51283 0.01427 0.67616 0.0
C489 C 0.54844 0.0317 0.68506 0.0
N490 N 0.60097 0.07057 0.67441 0.0
N491 N 0.45946 0.00716 0.63942 0.0
C492 C 0.56762 0.0518 0.66426 0.0
C493 C 0.49527 0.01912 0.64681 0.0
N494 N 0.57084 0.06735 0.61106 0.0
N495 N 0.4961 0.9927 0.69563 0.0
H496 H 0.44586 0.00976 0.6179 0.0
H497 H 0.44256 0.99698 0.65531 0.0
H498 H 0.50806 0.98916 0.71757 0.0
H499 H 0.47151 0.97627 0.68925 0.0
H500 H 0.59844 0.07519 0.61408 0.0
H501 H 0.55955 0.0697 0.58853 0.0
H502 H 0.61468 0.08913 0.66197 0.0
H503 H 0.61434 0.06916 0.69637 0.0
C504 C 0.85722 0.27684 0.8375 0.0
C505 C 0.85262 0.2541 0.80796 0.0
C506 C 0.9136 0.24122 0.81621 0.0
C507 C 0.91857 0.26492 0.84522 0.0
N508 N 0.89833 0.31022 0.88114 0.0
N509 N 0.87696 0.2186 0.76656 0.0
C510 C 0.89127 0.28416 0.85524 0.0
C511 C 0.88108 0.23757 0.79645 0.0
N512 N 0.82874 0.29063 0.84893 0.0
N513 N 0.93946 0.22123 0.80823 0.0
H514 H 0.85314 0.21455 0.75179 0.0
H515 H 0.89773 0.20901 0.75539 0.0
H516 H 0.96378 0.22357 0.82202 0.0
H517 H 0.93606 0.2006 0.78922 0.0
H518 H 0.82908 0.3037 0.87196 0.0
H519 H 0.80379 0.28719 0.83594 0.0
H520 H 0.88093 0.32789 0.88768 0.0
H521 H 0.92292 0.31615 0.89489 0.0
C522 C 0.52614 0.89729 0.50441 0.0
C523 C 0.49604 0.91413 0.498 0.0
C524 C 0.48383 0.87848 0.44523 0.0
C525 C 0.51132 0.85887 0.45314 0.0
N526 N 0.55674 0.84678 0.4909 0.0
N527 N 0.44225 0.91632 0.46488 0.0
C528 C 0.53196 0.86746 0.48295 0.0
C529 C 0.47396 0.90386 0.46896 0.0
N530 N 0.54989 0.91065 0.53042 0.0
N531 N 0.46684 0.87258 0.41517 0.0
H532 H 0.43311 0.93363 0.48223 0.0
H533 H 0.42323 0.90674 0.44564 0.0
H534 H 0.47232 0.85329 0.39737 0.0
H535 H 0.44941 0.88879 0.40708 0.0
H536 H 0.57423 0.90189 0.53463 0.0
H537 H 0.54687 0.93281 0.54648 0.0
H538 H 0.56951 0.8489 0.51368 0.0
H539 H 0.56304 0.8259 0.4751 0.0
C540 C 0.16909 0.28733 0.82249 0.0
C541 C 0.16483 0.29901 0.79237 0.0
C542 C 0.10084 0.29601 0.79724 0.0
C543 C 0.10652 0.29154 0.82961 0.0
N544 N 0.14785 0.28742 0.87447 0.0
N545 N 0.12693 0.3211 0.7537 0.0
C546 C 0.14104 0.28793 0.84264 0.0
C547 C 0.13071 0.30475 0.78013 0.0
N548 N 0.19975 0.27521 0.83171 0.0
N549 N 0.06686 0.29165 0.78275 0.0
H550 H 0.14827 0.33063 0.74155 0.0
H551 H 0.10302 0.3289 0.74595 0.0
H552 H 0.04432 0.28405 0.79434 0.0
H553 H 0.06139 0.29155 0.75843 0.0
H554 H 0.20285 0.26329 0.85216 0.0
H555 H 0.22053 0.27348 0.81723 0.0
H556 H 0.17354 0.28889 0.88549 0.0
H557 H 0.12855 0.28885 0.89044 0.0
C558 C 0.56673 0.65984 0.49633 0.0
C559 C 0.55603 0.62307 0.48405 0.0
C560 C 0.53022 0.6396 0.43465 0.0
C561 C 0.5363 0.67589 0.44889 0.0
N562 N 0.55809 0.72111 0.49384 0.0
N563 N 0.52484 0.57736 0.4426 0.0
C564 C 0.55402 0.68621 0.47988 0.0
C565 C 0.53745 0.61271 0.45329 0.0
N566 N 0.59033 0.66957 0.52294 0.0
N567 N 0.5176 0.63091 0.40331 0.0
H568 H 0.52916 0.55675 0.45551 0.0
H569 H 0.50765 0.56849 0.42201 0.0
H570 H 0.51136 0.64996 0.38924 0.0
H571 H 0.51616 0.60545 0.39059 0.0
H572 H 0.60181 0.69597 0.53134 0.0
H573 H 0.60138 0.65101 0.53486 0.0
H574 H 0.5668 0.72948 0.51773 0.0
H575 H 0.55061 0.74152 0.482 0.0
C576 C 0.95848 0.85145 0.77614 0.0
C577 C 0.92615 0.86474 0.76949 0.0
C578 C 0.93237 0.8528 0.71263 0.0
C579 C 0.96634 0.84271 0.7193 0.0
N580 N 0.01614 0.84387 0.75843 0.0
N581 N 0.89088 0.89066 0.73176 0.0
C582 C 0.98081 0.84552 0.75139 0.0
C583 C 0.91561 0.86929 0.73785 0.0
N584 N 0.9674 0.84288 0.8055 0.0
N585 N 0.91498 0.84512 0.68275 0.0
H586 H 0.88067 0.90623 0.74972 0.0
H587 H 0.88447 0.89667 0.70908 0.0
H588 H 0.92472 0.83068 0.66381 0.0
H589 H 0.88882 0.84944 0.67781 0.0
H590 H 0.98888 0.82968 0.81022 0.0
H591 H 0.95161 0.84555 0.82431 0.0
H592 H 0.02849 0.84888 0.78157 0.0
H593 H 0.03402 0.84189 0.74115 0.0
C594 C 0.10018 0.92663 0.56341 0.0
C595 C 0.09491 0.91358 0.53039 0.0
C596 C 0.05426 0.86096 0.54044 0.0
C597 C 0.06041 0.87331 0.57357 0.0
N598 N 0.09345 0.91449 0.61727 0.0
N599 N 0.07462 0.86458 0.48831 0.0
C600 C 0.08497 0.90495 0.58528 0.0
C601 C 0.07408 0.87967 0.51911 0.0
N602 N 0.11785 0.96061 0.57374 0.0
N603 N 0.02924 0.83148 0.52927 0.0
H604 H 0.08993 0.87698 0.47232 0.0
H605 H 0.06296 0.83837 0.47942 0.0
H606 H 0.0156 0.81571 0.54407 0.0
H607 H 0.02033 0.82388 0.50532 0.0
H608 H 0.11892 0.97327 0.59699 0.0
H609 H 0.12927 0.97749 0.5586 0.0
H610 H 0.11422 0.93481 0.62717 0.0
H611 H 0.08135 0.90051 0.63409 0.0
C612 C 0.15445 0.75221 0.75679 0.0
C613 C 0.18592 0.74995 0.74127 0.0
C614 C 0.15524 0.76275 0.69239 0.0
C615 C 0.12544 0.76911 0.70925 0.0
N616 N 0.1008 0.77877 0.7596 0.0
N617 N 0.2184 0.75856 0.69566 0.0
C618 C 0.12635 0.76661 0.74212 0.0
C619 C 0.18697 0.75676 0.7094 0.0
N620 N 0.15033 0.73862 0.78464 0.0
N621 N 0.15278 0.76064 0.66006 0.0
H622 H 0.24216 0.75425 0.70729 0.0
H623 H 0.22158 0.76728 0.67374 0.0
H624 H 0.12993 0.76432 0.64662 0.0
H625 H 0.17227 0.75217 0.64633 0.0
H626 H 0.12648 0.73682 0.79531 0.0
H627 H 0.16901 0.72511 0.79499 0.0
H628 H 0.10224 0.78055 0.78426 0.0
H629 H 0.08042 0.7908 0.74994 0.0
C630 C 0.96561 0.66835 0.53721 0.0
C631 C 0.96243 0.63759 0.55288 0.0
C632 C 0.96806 0.67595 0.60405 0.0
C633 C 0.97779 0.70639 0.58885 0.0
N634 N 0.99078 0.73092 0.54072 0.0
N635 N 0.96694 0.61231 0.60187 0.0
C636 C 0.97756 0.70259 0.55528 0.0
C637 C 0.96514 0.64137 0.58652 0.0
N638 N 0.95675 0.66493 0.50521 0.0
N639 N 0.96107 0.68012 0.63515 0.0
H640 H 0.96662 0.5866 0.59 0.0
H641 H 0.97251 0.61438 0.62639 0.0
H642 H 0.96173 0.70522 0.64845 0.0
H643 H 0.9508 0.6588 0.64654 0.0
H644 H 0.95537 0.6868 0.49312 0.0
H645 H 0.94732 0.64026 0.49129 0.0
H646 H 0.99475 0.72847 0.51669 0.0
H647 H 0.00089 0.75619 0.5531 0.0
C648 C 0.83103 0.87499 0.26 0.0
C649 C 0.79752 0.87279 0.2422 0.0
C650 C 0.80664 0.93802 0.24374 0.0
C651 C 0.8415 0.93977 0.25885 0.0
N652 N 0.88767 0.91121 0.28185 0.0
N653 N 0.75302 0.90067 0.21607 0.0
C654 C 0.85384 0.9086 0.26729 0.0
C655 C 0.78505 0.90395 0.23399 0.0
N656 N 0.84076 0.84489 0.27012 0.0
N657 N 0.79432 0.96894 0.23882 0.0
H658 H 0.73588 0.87629 0.20978 0.0
H659 H 0.74394 0.92153 0.20613 0.0
H660 H 0.80999 0.9942 0.24455 0.0
H661 H 0.76804 0.97007 0.23083 0.0
H662 H 0.86288 0.84501 0.28604 0.0
H663 H 0.82547 0.81949 0.26411 0.0
H664 H 0.90023 0.88935 0.28503 0.0
H665 H 0.90418 0.93561 0.28992 0.0
C666 C 0.7995 0.15327 0.34595 0.0
C667 C 0.79241 0.17426 0.32179 0.0
C668 C 0.83068 0.14244 0.2885 0.0
C669 C 0.84148 0.12507 0.31442 0.0
N670 N 0.84539 0.12689 0.37163 0.0
N671 N 0.81184 0.19649 0.27429 0.0
C672 C 0.82885 0.13453 0.34439 0.0
C673 C 0.81141 0.17139 0.29439 0.0
N674 N 0.77748 0.14949 0.36955 0.0
N675 N 0.83629 0.13036 0.25802 0.0
H676 H 0.79986 0.21927 0.27878 0.0
H677 H 0.82767 0.19668 0.25536 0.0
H678 H 0.84675 0.10713 0.25147 0.0
H679 H 0.82608 0.14103 0.23863 0.0
H680 H 0.78075 0.13218 0.38619 0.0
H681 H 0.75369 0.15992 0.37016 0.0
H682 H 0.83795 0.13547 0.39404 0.0
H683 H 0.86934 0.11668 0.37215 0.0
C684 C 0.33383 0.04811 0.00414 0.0
C685 C 0.36918 0.04341 0.99836 0.0
C686 C 0.35884 0.98344 0.01355 0.0
C687 C 0.32404 0.98879 0.02092 0.0
N688 N 0.28194 0.02931 0.03113 0.0
N689 N 0.4185 0.01133 0.00603 0.0
C690 C 0.31267 0.02219 0.01875 0.0
C691 C 0.38274 0.01259 0.00589 0.0
N692 N 0.31986 0.07631 0.99437 0.0
N693 N 0.36841 0.95013 0.01164 0.0
H694 H 0.43692 0.03249 0.0009 0.0
H695 H 0.43026 0.99091 0.01434 0.0
H696 H 0.35154 0.92747 0.01594 0.0
H697 H 0.392 0.94428 0.0028 0.0
H698 H 0.29299 0.07879 0.99487 0.0
H699 H 0.33437 0.09576 0.98325 0.0
H700 H 0.27405 0.05442 0.03288 0.0
H701 H 0.26628 0.0111 0.04265 0.0
C702 C 0.22105 0.37492 0.30868 0.0
C703 C 0.25791 0.38958 0.31473 0.0
C704 C 0.24372 0.44953 0.31158 0.0
C705 C 0.20672 0.43562 0.30961 0.0
N706 N 0.15997 0.38563 0.31101 0.0
N707 N 0.30381 0.44162 0.32832 0.0
C708 C 0.19522 0.39839 0.30928 0.0
C709 C 0.26911 0.42714 0.318 0.0
N710 N 0.21077 0.33869 0.30156 0.0
N711 N 0.25469 0.4838 0.30606 0.0
H712 H 0.32321 0.42622 0.334 0.0
H713 H 0.31249 0.46908 0.33427 0.0
H714 H 0.23692 0.5007 0.29993 0.0
H715 H 0.28129 0.49408 0.30411 0.0
H716 H 0.18461 0.32668 0.29367 0.0
H717 H 0.22894 0.32071 0.3009 0.0
H718 H 0.15066 0.3594 0.31433 0.0
H719 H 0.1403 0.40196 0.31187 0.0
C720 C 0.17109 0.0783 0.49332 0.0
C721 C 0.16251 0.05683 0.46325 0.0
C722 C 0.21252 0.09167 0.44229 0.0
C723 C 0.22282 0.11122 0.47304 0.0
N724 N 0.21754 0.11626 0.5295 0.0
N725 N 0.18034 0.03693 0.41167 0.0
C726 C 0.20379 0.10249 0.49912 0.0
C727 C 0.18491 0.06159 0.43849 0.0
N728 N 0.14749 0.07673 0.51594 0.0
N729 N 0.22764 0.10278 0.41646 0.0
H730 H 0.16105 0.01392 0.40852 0.0
H731 H 0.19804 0.03737 0.39417 0.0
H732 H 0.24709 0.12546 0.41792 0.0
H733 H 0.21832 0.09154 0.3932 0.0
H734 H 0.15092 0.09461 0.53699 0.0
H735 H 0.12289 0.05979 0.51249 0.0
H736 H 0.20634 0.10804 0.54943 0.0
H737 H 0.24225 0.13288 0.53489 0.0
C738 C 0.70628 0.17787 0.80466 0.0
C739 C 0.73587 0.17357 0.787 0.0
C740 C 0.72158 0.1084 0.78383 0.0
C741 C 0.68971 0.11263 0.7981 0.0
N742 N 0.64997 0.15041 0.82074 0.0
N743 N 0.7702 0.13543 0.75675 0.0
C744 C 0.68161 0.14713 0.80826 0.0
C745 C 0.74333 0.139 0.77597 0.0
N746 N 0.70237 0.21124 0.8186 0.0
N747 N 0.73092 0.0751 0.77771 0.0
H748 H 0.78676 0.15722 0.75042 0.0
H749 H 0.77443 0.11098 0.745 0.0
H750 H 0.71505 0.05189 0.78224 0.0
H751 H 0.75565 0.07068 0.77055 0.0
H752 H 0.68353 0.21585 0.83448 0.0
H753 H 0.71986 0.23437 0.81622 0.0
H754 H 0.64039 0.17458 0.82502 0.0
H755 H 0.63223 0.12847 0.8254 0.0
C756 C 0.40682 0.08942 0.55452 0.0
C757 C 0.44262 0.09151 0.54671 0.0
C758 C 0.43595 0.14288 0.51884 0.0
C759 C 0.39901 0.13762 0.52303 0.0
N760 N 0.34805 0.1045 0.54267 0.0
N761 N 0.49199 0.11954 0.52167 0.0
C762 C 0.38418 0.11095 0.54077 0.0
C763 C 0.45752 0.1183 0.52915 0.0
N764 N 0.39436 0.0666 0.57487 0.0
N765 N 0.45034 0.17177 0.50547 0.0
H766 H 0.50903 0.10317 0.53025 0.0
H767 H 0.50335 0.1355 0.50589 0.0
H768 H 0.43505 0.19022 0.49797 0.0
H769 H 0.47759 0.17922 0.50413 0.0
H770 H 0.37001 0.06684 0.58448 0.0
H771 H 0.40948 0.04907 0.58419 0.0
H772 H 0.335 0.0825 0.55162 0.0
H773 H 0.33039 0.11974 0.53329 0.0
C774 C 0.58863 0.46178 0.54682 0.0
C775 C 0.60214 0.49345 0.56815 0.0
C776 C 0.66063 0.47412 0.57438 0.0
C777 C 0.64854 0.44514 0.54965 0.0
N778 N 0.60159 0.4105 0.51223 0.0
N779 N 0.65071 0.53115 0.60176 0.0
C780 C 0.61255 0.43854 0.53602 0.0
C781 C 0.63793 0.49973 0.58223 0.0
N782 N 0.55283 0.45387 0.53728 0.0
N783 N 0.69398 0.47748 0.59002 0.0
H784 H 0.63469 0.55015 0.60867 0.0
H785 H 0.67758 0.53961 0.60969 0.0
H786 H 0.71218 0.46045 0.58403 0.0
H787 H 0.70288 0.49555 0.61051 0.0
H788 H 0.54051 0.42971 0.52409 0.0
H789 H 0.53474 0.47052 0.54471 0.0
H790 H 0.57716 0.40658 0.4985 0.0
H791 H 0.61777 0.39162 0.50531 0.0
C792 C 0.75254 0.30223 0.3914 0.0
C793 C 0.73616 0.26585 0.38737 0.0
C794 C 0.71385 0.27462 0.43988 0.0
C795 C 0.73236 0.31027 0.44473 0.0
N796 N 0.77412 0.35666 0.42782 0.0
N797 N 0.70423 0.21578 0.40813 0.0
C798 C 0.75291 0.3238 0.42117 0.0
C799 C 0.71764 0.25154 0.41175 0.0
N800 N 0.76726 0.31631 0.36656 0.0
N801 N 0.69192 0.26329 0.46178 0.0
H802 H 0.70543 0.19836 0.38742 0.0
H803 H 0.69389 0.20279 0.42623 0.0
H804 H 0.68889 0.27958 0.4827 0.0
H805 H 0.67478 0.23886 0.45836 0.0
H806 H 0.77566 0.34359 0.3667 0.0
H807 H 0.76886 0.30101 0.34475 0.0
H808 H 0.79286 0.36628 0.41313 0.0
H809 H 0.77521 0.3734 0.44934 0.0
C810 C 0.46468 0.00817 0.84849 0.0
C811 C 0.46913 0.02647 0.87999 0.0
C812 C 0.53411 0.03472 0.87959 0.0
C813 C 0.52986 0.01584 0.84827 0.0
N814 N 0.49196 0.97632 0.80632 0.0
N815 N 0.50738 0.04509 0.9289 0.0
C816 C 0.49533 -0.00015 0.83381 0.0
C817 C 0.50366 0.03596 0.89664 0.0
N818 N 0.43156 0.00035 0.83202 0.0
N819 N 0.56661 0.05339 0.8925 0.0
H820 H 0.48558 0.04428 0.94241 0.0
H821 H 0.53197 0.0492 0.9425 0.0
H822 H 0.58971 0.05423 0.88075 0.0
H823 H 0.56995 0.0708 0.91383 0.0
H824 H 0.42735 0.99083 0.80782 0.0
H825 H 0.40839 0.00578 0.84195 0.0
H826 H 0.46769 0.96128 0.79618 0.0
H827 H 0.51399 0.96913 0.79538 0.0
C828 C 0.33817 0.31901 0.40053 0.0
C829 C 0.31877 0.30423 0.37088 0.0
C830 C 0.30335 0.24646 0.39002 0.0
C831 C 0.32037 0.26205 0.42049 0.0
N832 N 0.3517 0.31331 0.45605 0.0
N833 N 0.27994 0.25559 0.3377 0.0
C834 C 0.33719 0.29841 0.42611 0.0
C835 C 0.30073 0.26832 0.36564 0.0
N836 N 0.35808 0.35249 0.40393 0.0
N837 N 0.28959 0.21071 0.38441 0.0
H838 H 0.27809 0.27041 0.31892 0.0
H839 H 0.26258 0.23129 0.33368 0.0
H840 H 0.28873 0.19413 0.40201 0.0
H841 H 0.28088 0.19673 0.3619 0.0
H842 H 0.37583 0.36358 0.4237 0.0
H843 H 0.3587 0.36854 0.38589 0.0
H844 H 0.36066 0.34058 0.46276 0.0
H845 H 0.35317 0.29852 0.47488 0.0
C846 C 0.52386 0.50878 0.90031 0.0
C847 C 0.55689 0.50205 0.88936 0.0
C848 C 0.53743 0.51589 0.83693 0.0
C849 C 0.5033 0.5195 0.84723 0.0
N850 N 0.46106 0.50716 0.88563 0.0
N851 N 0.59142 0.49031 0.84512 0.0
C852 C 0.49555 0.51215 0.87797 0.0
C853 C 0.56244 0.50265 0.8569 0.0
N854 N 0.51988 0.51405 0.93207 0.0
N855 N 0.54689 0.52697 0.8091 0.0
H856 H 0.60985 0.47978 0.85905 0.0
H857 H 0.59505 0.48715 0.82102 0.0
H858 H 0.53015 0.53845 0.79439 0.0
H859 H 0.57272 0.52814 0.80222 0.0
H860 H 0.49732 0.52257 0.94098 0.0
H861 H 0.54034 0.51371 0.94964 0.0
H862 H 0.45403 0.49869 0.90691 0.0
H863 H 0.43917 0.50716 0.86935 0.0
C864 C 0.74022 0.75629 0.13329 0.0
C865 C 0.76923 0.76831 0.15699 0.0
C866 C 0.81126 0.75986 0.11697 0.0
C867 C 0.78227 0.74442 0.09396 0.0
N868 N 0.71993 0.71714 0.08419 0.0
N869 N 0.83206 0.77109 0.17284 0.0
C870 C 0.74692 0.73933 0.10327 0.0
C871 C 0.8047 0.76665 0.1493 0.0
N872 N 0.70653 0.76239 0.13865 0.0
N873 N 0.8446 0.77016 0.10806 0.0
H874 H 0.82804 0.77482 0.1969 0.0
H875 H 0.85788 0.76709 0.16846 0.0
H876 H 0.85032 0.76827 0.08446 0.0
H877 H 0.86561 0.78448 0.12392 0.0
H878 H 0.68536 0.75704 0.12081 0.0
H879 H 0.7005 0.77614 0.1598 0.0
H880 H 0.69444 0.71053 0.09136 0.0
H881 H 0.72407 0.70183 0.06312 0.0
C882 C 0.98194 0.03103 0.12999 0.0
C883 C 0.01686 0.05116 0.13313 0.0
C884 C 0.01344 0.06775 0.19024 0.0
C885 C 0.9804 0.04427 0.18766 0.0
N886 N 0.93287 0.0028 0.15604 0.0
N887 N 0.06705 0.08773 0.16558 0.0
C888 C 0.96441 0.0259 0.15772 0.0
C889 C 0.03284 0.06958 0.16306 0.0
N890 N 0.96548 0.0172 0.10041 0.0
N891 N 0.02616 0.08821 0.2187 0.0
H892 H 0.08158 0.09058 0.14602 0.0
H893 H 0.08192 0.09834 0.18709 0.0
H894 H 0.01293 0.08679 0.23916 0.0
H895 H 0.0483 0.10841 0.22169 0.0
H896 H 0.93873 0.00546 0.09606 0.0
H897 H 0.97791 0.01967 0.07966 0.0
H898 H 0.92191 0.98515 0.13582 0.0
H899 H 0.91819 3e-05 0.17552 0.0
C900 C 0.28925 0.80298 0.15609 0.0
C901 C 0.28145 0.82198 0.18489 0.0
C902 C 0.27006 0.87218 0.15719 0.0
C903 C 0.2749 0.85177 0.12805 0.0
N904 N 0.2809 0.79484 0.09872 0.0
N905 N 0.25874 0.87195 0.21234 0.0
C906 C 0.282 0.81626 0.12719 0.0
C907 C 0.27025 0.85587 0.18533 0.0
N908 N 0.30553 0.77339 0.15644 0.0
N909 N 0.26685 0.90751 0.15824 0.0
H910 H 0.25842 0.8608 0.2334 0.0
H911 H 0.24665 0.89476 0.21315 0.0
H912 H 0.26653 0.92039 0.13814 0.0
H913 H 0.26733 0.92479 0.17933 0.0
H914 H 0.31513 0.76077 0.13645 0.0
H915 H 0.31299 0.76366 0.17725 0.0
H916 H 0.28224 0.76758 0.09681 0.0
H917 H 0.27496 0.80338 0.07695 0.0
C918 C 0.98767 0.52516 0.16267 0.0
C919 C 0.00972 0.54408 0.14291 0.0
C920 C 0.05876 0.55808 0.18552 0.0
C921 C 0.03766 0.53685 0.20437 0.0
N922 N 0.98376 0.49768 0.21091 0.0
N923 N 0.06685 0.57596 0.13368 0.0
C924 C 0.00248 0.51978 0.193 0.0
C925 C 0.04543 0.55992 0.15387 0.0
N926 N 0.9525 0.51272 0.15244 0.0
N927 N 0.09117 0.57727 0.19826 0.0
H928 H 0.05753 0.57956 0.11088 0.0
H929 H 0.09432 0.58396 0.13869 0.0
H930 H 0.1024 0.57587 0.22104 0.0
H931 H 0.10603 0.59647 0.18722 0.0
H932 H 0.93394 0.50181 0.16667 0.0
H933 H 0.94108 0.51548 0.13007 0.0
H934 H 0.9594 0.48149 0.20291 0.0
H935 H 0.99381 0.49368 0.23338 0.0
C936 C 0.38387 0.72145 0.28004 0.0
C937 C 0.35615 0.73784 0.29326 0.0
C938 C 0.39636 0.7649 0.34044 0.0
C939 C 0.42312 0.74601 0.32852 0.0
N940 N 0.44246 0.70422 0.28882 0.0
N941 N 0.33397 0.77193 0.33697 0.0
C942 C 0.41701 0.72382 0.2987 0.0
C943 C 0.36184 0.75873 0.32372 0.0
N944 N 0.37853 0.70406 0.24954 0.0
N945 N 0.40438 0.78968 0.36723 0.0
H946 H 0.30857 0.7693 0.32496 0.0
H947 H 0.33521 0.78344 0.3606 0.0
H948 H 0.42925 0.79472 0.3805 0.0
H949 H 0.38746 0.80734 0.37505 0.0
H950 H 0.39863 0.69461 0.23727 0.0
H951 H 0.35425 0.70107 0.23556 0.0
H952 H 0.43844 0.68466 0.26893 0.0
H953 H 0.46719 0.70589 0.3018 0.0
C954 C 0.02445 0.4411 0.97687 0.0
C955 C 0.03306 0.44107 0.00976 0.0
C956 C 0.04364 0.37906 -0.00121 0.0
C957 C 0.02948 0.37756 0.96683 0.0
N958 N -0.00023 0.40558 0.92696 0.0
N959 N 0.04675 0.40852 0.0529 0.0
C960 C 0.01817 0.40817 0.95618 0.0
C961 C 0.04182 0.40972 0.02101 0.0
N962 N 0.02368 0.47266 0.96513 0.0
N963 N 0.05973 0.3517 0.0077 0.0
H964 H 0.04536 0.43016 0.07013 0.0
H965 H 0.04917 0.38506 0.06234 0.0
H966 H 0.06223 0.32914 0.9919 0.0
H967 H 0.07368 0.35299 0.02989 0.0
H968 H 0.02072 0.47426 0.94091 0.0
H969 H 0.03024 0.49757 0.97931 0.0
H970 H 0.98782 0.42637 0.9196 0.0
H971 H 0.99313 0.38168 0.91136 0.0
C972 C 0.68029 0.80416 0.33082 0.0
C973 C 0.68389 0.77339 0.30936 0.0
C974 C 0.62234 0.74654 0.31513 0.0
C975 C 0.6193 0.7767 0.33735 0.0
N976 N 0.64755 0.82988 0.37218 0.0
N977 N 0.66199 0.71173 0.28766 0.0
C978 C 0.64898 0.80419 0.34699 0.0
C979 C 0.65595 0.74349 0.30341 0.0
N980 N 0.7058 0.83414 0.33462 0.0
N981 N 0.59284 0.72153 0.30427 0.0
H982 H 0.68672 0.70813 0.27985 0.0
H983 H 0.64379 0.68803 0.28528 0.0
H984 H 0.56783 0.72264 0.31253 0.0
H985 H 0.59249 0.7012 0.28538 0.0
H986 H 0.70229 0.8587 0.34671 0.0
H987 H 0.72944 0.83562 0.32371 0.0
H988 H 0.66967 0.84834 0.38259 0.0
H989 H 0.62508 0.83063 0.38473 0.0
C990 C 0.03593 0.12717 0.95937 0.0
C991 C 0.05511 0.13543 0.99001 0.0
C992 C 0.05338 0.19935 0.98955 0.0
C993 C 0.03502 0.19115 0.95867 0.0
N994 N 0.01501 0.1489 0.91143 0.0
N995 N 0.09013 0.1795 0.03051 0.0
C996 C 0.02848 0.15555 0.94262 0.0
C997 C 0.06614 0.1716 0.00407 0.0
N998 N 0.02294 0.09232 0.94706 0.0
N999 N 0.05818 0.2336 0.0052 0.0
H1000 H 0.10115 0.15993 0.04106 0.0
H1001 H 0.10191 0.20547 0.04012 0.0
H1002 H 0.05101 0.25505 0.99471 0.0
H1003 H 0.06733 0.24042 0.02916 0.0
H1004 H 0.00532 0.08482 0.92658 0.0
H1005 H 0.02738 0.07068 0.95856 0.0
H1006 H 0.01323 0.12415 0.89737 0.0
H1007 H 0.00826 0.16895 0.89877 0.0
C1008 C 0.45371 0.32799 0.25856 0.0
C1009 C 0.42328 0.34492 0.25403 0.0
C1010 C 0.43236 0.34419 0.19778 0.0
C1011 C 0.46422 0.32963 0.20277 0.0
N1012 N 0.51061 0.31823 0.24023 0.0
N1013 N 0.39232 0.38072 0.22199 0.0
C1014 C 0.4766 0.32477 0.23391 0.0
C1015 C 0.41515 0.35657 0.22444 0.0
N1016 N 0.46006 0.31343 0.28566 0.0
N1017 N 0.41732 0.34465 0.16777 0.0
H1018 H 0.3816 0.39288 0.24157 0.0
H1019 H 0.3879 0.39211 0.20141 0.0
H1020 H 0.42784 0.33428 0.14736 0.0
H1021 H 0.39224 0.35189 0.16328 0.0
H1022 H 0.47975 0.29748 0.28841 0.0
H1023 H 0.44375 0.31429 0.3042 0.0
H1024 H 0.52196 0.31776 0.26315 0.0
H1025 H 0.52883 0.31741 0.22316 0.0
C1026 C 0.6076 0.4374 0.06038 0.0
C1027 C 0.61202 0.42143 0.02923 0.0
C1028 C 0.58124 0.36359 0.03964 0.0
C1029 C 0.57706 0.37949 0.0708 0.0
N1030 N 0.59232 0.42854 0.11341 0.0
N1031 N 0.61143 0.36819 0.9919 0.0
C1032 C 0.59231 0.4155 0.08202 0.0
C1033 C 0.60133 0.38412 0.01965 0.0
N1034 N 0.61608 0.47371 0.0687 0.0
N1035 N 0.56485 0.32927 0.02875 0.0
H1036 H 0.62685 0.38238 0.97705 0.0
H1037 H 0.60753 0.34058 0.98506 0.0
H1038 H 0.55098 0.31287 0.04302 0.0
H1039 H 0.5631 0.31772 0.00509 0.0
H1040 H 0.60969 0.48738 0.08969 0.0
H1041 H 0.6273 0.49078 0.05362 0.0
H1042 H 0.60609 0.45346 0.12391 0.0
H1043 H 0.58102 0.41303 0.12964 0.0
C1044 C 0.66113 0.26343 0.22594 0.0
C1045 C 0.66823 0.22781 0.22093 0.0
C1046 C 0.62461 0.21457 0.17405 0.0
C1047 C 0.61304 0.24786 0.18272 0.0
N1048 N 0.61787 0.30287 0.21913 0.0
N1049 N 0.65636 0.16857 0.1908 0.0
C1050 C 0.63089 0.27226 0.20903 0.0
C1051 C 0.65026 0.20321 0.19483 0.0
N1052 N 0.68394 0.2891 0.24615 0.0
N1053 N 0.6115 0.1942 0.14565 0.0
H1054 H 0.67533 0.15938 0.20523 0.0
H1055 H 0.641 0.14835 0.1745 0.0
H1056 H 0.59311 0.20214 0.12971 0.0
H1057 H 0.62131 0.17131 0.13655 0.0
H1058 H 0.68189 0.31622 0.24849 0.0
H1059 H 0.70728 0.28388 0.25784 0.0
H1060 H 0.62744 0.31933 0.24041 0.0
H1061 H 0.59553 0.31038 0.20776 0.0
C1062 C 0.42157 0.18774 0.01547 0.0
C1063 C 0.44394 0.16307 0.00457 0.0
C1064 C 0.4956 0.20187 0.03474 0.0
C1065 C 0.4723 0.22245 0.05036 0.0
N1066 N 0.41225 0.23349 0.0575 0.0
N1067 N 0.50194 0.14407 0.00746 0.0
C1068 C 0.43503 0.21543 0.04097 0.0
C1069 C 0.48101 0.16956 0.01485 0.0
N1070 N 0.38754 0.18464 0.00138 0.0
N1071 N 0.53167 0.21345 0.03867 0.0
H1072 H 0.49236 0.11932 0.99382 0.0
H1073 H 0.52819 0.14615 0.01739 0.0
H1074 H 0.54321 0.23767 0.05242 0.0
H1075 H 0.5496 0.20108 0.02554 0.0
H1076 H 0.37106 0.20373 0.00636 0.0
H1077 H 0.3771 0.16473 0.98245 0.0
H1078 H 0.38454 0.22654 0.05387 0.0
H1079 H 0.42089 0.25363 0.07663 0.0
C1080 C 0.30804 0.4215 0.71396 0.0
C1081 C 0.29715 0.39702 0.735 0.0
C1082 C 0.32366 0.44301 0.77897 0.0
C1083 C 0.34256 0.46308 0.7578 0.0
N1084 N 0.35868 0.46175 0.70309 0.0
N1085 N 0.30427 0.38277 0.78872 0.0
C1086 C 0.33649 0.4499 0.72458 0.0
C1087 C 0.30772 0.40715 0.76796 0.0
N1088 N 0.29119 0.41826 0.68411 0.0
N1089 N 0.31933 0.45805 0.80895 0.0
H1090 H 0.29597 0.35543 0.78144 0.0
H1091 H 0.31396 0.38939 0.81262 0.0
H1092 H 0.32587 0.48547 0.81672 0.0
H1093 H 0.30414 0.44406 0.8241 0.0
H1094 H 0.29739 0.43717 0.66893 0.0
H1095 H 0.26828 0.39955 0.67639 0.0
H1096 H 0.35494 0.4507 0.67916 0.0
H1097 H 0.38353 0.47766 0.70915 0.0
C1098 C 0.29718 0.64786 0.82731 0.0
C1099 C 0.3135 0.68405 0.8287 0.0
C1100 C 0.37216 0.66538 0.82435 0.0
C1101 C 0.35551 0.62906 0.82119 0.0
N1102 N 0.30172 0.58519 0.8132 0.0
N1103 N 0.36498 0.72742 0.82349 0.0
C1104 C 0.31785 0.62013 0.82086 0.0
C1105 C 0.35058 0.69285 0.82564 0.0
N1106 N 0.26215 0.64006 0.83303 0.0
N1107 N 0.40863 0.67368 0.8276 0.0
H1108 H 0.35008 0.74831 0.82497 0.0
H1109 H 0.39092 0.73498 0.81779 0.0
H1110 H 0.42533 0.65432 0.82679 0.0
H1111 H 0.42247 0.69969 0.83355 0.0
H1112 H 0.24986 0.6146 0.83605 0.0
H1113 H 0.24589 0.65959 0.83714 0.0
H1114 H 0.27414 0.57731 0.80925 0.0
H1115 H 0.31592 0.56415 0.80788 0.0
C1116 C 0.86334 0.50566 0.49484 0.0
C1117 C 0.88905 0.51648 0.52145 0.0
C1118 C 0.85246 0.47874 0.5528 0.0
C1119 C 0.82923 0.4644 0.52505 0.0
N1120 N 0.81644 0.45938 0.46805 0.0
N1121 N 0.91158 0.50886 0.57415 0.0
C1122 C 0.83556 0.47663 0.49559 0.0
C1123 C 0.8846 0.50184 0.55006 0.0
N1124 N 0.86508 0.52355 0.4691 0.0
N1125 N 0.84325 0.47136 0.58189 0.0
H1126 H 0.93587 0.52514 0.57283 0.0
H1127 H 0.91116 0.49588 0.59418 0.0
H1128 H 0.81933 0.45541 0.58501 0.0
H1129 H 0.85755 0.48399 0.60316 0.0
H1130 H 0.8449 0.51917 0.45044 0.0
H1131 H 0.88504 0.54514 0.46776 0.0
H1132 H 0.82271 0.46485 0.44565 0.0
H1133 H 0.79656 0.4372 0.46719 0.0
C1134 C 0.76507 0.9398 0.8405 0.0
C1135 C 0.75719 0.90215 0.83169 0.0
C1136 C 0.6939 0.9062 0.81935 0.0
C1137 C 0.70253 0.94411 0.82544 0.0
N1138 N 0.74751 0.99722 0.83513 0.0
N1139 N 0.71549 0.84946 0.80881 0.0
C1140 C 0.73845 0.961 0.83424 0.0
C1141 C 0.72194 0.88527 0.82002 0.0
N1142 N 0.79781 0.95526 0.85555 0.0
N1143 N 0.6589 0.89023 0.81407 0.0
H1144 H 0.73526 0.83326 0.80944 0.0
H1145 H 0.69129 0.8363 0.79682 0.0
H1146 H 0.63777 0.90476 0.81339 0.0
H1147 H 0.65064 0.86277 0.81284 0.0
H1148 H 0.80373 0.98207 0.86565 0.0
H1149 H 0.81811 0.94064 0.86057 0.0
H1150 H 0.77384 0.01043 0.83799 0.0
H1151 H 0.72907 0.01377 0.82981 0.0
C1152 C 0.66946 0.59068 0.95339 0.0
C1153 C 0.67528 0.5547 0.94695 0.0
C1154 C 0.73979 0.57488 0.95678 0.0
C1155 C 0.73396 0.61106 0.95941 0.0
N1156 N 0.69303 0.65235 0.95047 0.0
N1157 N 0.71638 0.5135 0.93458 0.0
C1158 C 0.69871 0.61868 0.95472 0.0
C1159 C 0.7106 0.54704 0.94613 0.0
N1160 N 0.63647 0.59828 0.95964 0.0
N1161 N 0.7724 0.56672 0.96615 0.0
H1162 H 0.69565 0.4926 0.9257 0.0
H1163 H 0.74174 0.50757 0.93079 0.0
H1164 H 0.79423 0.5859 0.97586 0.0
H1165 H 0.77664 0.54057 0.96751 0.0
H1166 H 0.63197 0.62417 0.96729 0.0
H1167 H 0.61456 0.57856 0.96063 0.0
H1168 H 0.66774 0.65828 0.94434 0.0
H1169 H 0.71381 0.67321 0.94925 0.0
C1170 C 0.22681 0.63577 0.25132 0.0
C1171 C 0.23335 0.6684 0.27246 0.0
C1172 C 0.19259 0.64269 0.30836 0.0
C1173 C 0.18432 0.61092 0.28618 0.0
N1174 N 0.18799 0.57907 0.23412 0.0
N1175 N 0.21928 0.70544 0.31856 0.0
C1176 C 0.19989 0.60793 0.25695 0.0
C1177 C 0.21528 0.67262 0.30029 0.0
N1178 N 0.24705 0.63106 0.22639 0.0
N1179 N 0.1797 0.64376 0.33748 0.0
H1180 H 0.23608 0.72786 0.31356 0.0
H1181 H 0.20401 0.71125 0.33723 0.0
H1182 H 0.16275 0.62235 0.34403 0.0
H1183 H 0.18782 0.66469 0.35601 0.0
H1184 H 0.24639 0.60649 0.21233 0.0
H1185 H 0.26663 0.65112 0.22114 0.0
H1186 H 0.19538 0.57736 0.21103 0.0
H1187 H 0.16828 0.55802 0.23732 0.0
C1188 C 0.90616 0.59092 0.05978 0.0
C1189 C 0.94367 0.59651 0.05822 0.0
C1190 C 0.93921 0.64796 0.02987 0.0
C1191 C 0.90146 0.63925 0.02766 0.0
N1192 N 0.84829 0.60131 0.03856 0.0
N1193 N 0.99666 0.62981 0.04219 0.0
C1194 C 0.88469 0.61081 0.04257 0.0
C1195 C 0.96047 0.62514 0.04362 0.0
N1196 N 0.89108 0.56637 0.07757 0.0
N1197 N 0.95458 0.67849 0.01936 0.0
H1198 H 0.01321 0.61493 0.05361 0.0
H1199 H 0.01021 0.64722 0.02864 0.0
H1200 H 0.93956 0.69573 0.00938 0.0
H1201 H 0.98183 0.68837 0.02279 0.0
H1202 H 0.86453 0.56378 0.08263 0.0
H1203 H 0.90578 0.55033 0.08949 0.0
H1204 H 0.83472 0.57808 0.04523 0.0
H1205 H 0.83142 0.61534 0.02654 0.0
C1206 C 0.09176 0.96836 0.04294 0.0
C1207 C 0.10347 -0.00037 0.06531 0.0
C1208 C 0.16412 0.9851 0.06975 0.0
C1209 C 0.15232 0.95341 0.04776 0.0
N1210 N 0.10412 0.91092 0.01843 0.0
N1211 N 0.14824 0.0343 0.10488 0.0
C1212 C 0.11582 0.94385 0.03586 0.0
C1213 C 0.13882 0.00675 0.08039 0.0
N1214 N 0.0579 0.96261 0.02793 0.0
N1215 N 0.1998 0.99589 0.07887 0.0
H1216 H 0.13091 0.05167 0.11253 0.0
H1217 H 0.17224 0.03826 0.11931 0.0
H1218 H 0.21945 0.98102 0.07192 0.0
H1219 H 0.21042 0.02096 0.09143 0.0
H1220 H 0.04897 0.9427 0.00872 0.0
H1221 H 0.0391 0.97914 0.03356 0.0
H1222 H 0.07732 0.90077 0.01145 0.0
H1223 H 0.12111 0.89229 0.01329 0.0
loop_
_geom_bond_atom_site_label_1
_geom_bond_atom_site_label_2
_geom_bond_distance
_geom_bond_site_symmetry_2
_ccdc_geom_bond_type
H0 C5 0.930 . S
H1 C8 0.930 . S
H2 C10 0.930 . S
H3 C4 1.016 . S
C4 H3 1.016 . S
C4 N11 1.286 . S
C5 H0 0.930 . S
C5 C6 1.397 . S
C5 C7 1.361 . S
C6 C5 1.397 . S
C6 C10 1.390 . S
C7 C5 1.361 . S
C7 C8 1.393 . S
C7 N11 1.413 . S
C8 H1 0.930 . S
C8 C7 1.393 . S
C8 C9 1.399 . S
C9 C8 1.399 . S
C9 C10 1.381 . S
C10 H2 0.930 . S
C10 C6 1.390 . S
C10 C9 1.381 . S
N11 C4 1.286 . S
N11 C7 1.413 . S
H12 C17 0.930 . S
H13 C20 0.930 . S
H14 C22 0.930 . S
H15 C16 1.016 . S
C16 H15 1.016 . S
C16 N23 1.286 . S
C17 H12 0.930 . S
C17 C18 1.397 . S
C17 C19 1.361 . S
C18 C17 1.397 . S
C18 C22 1.390 . S
C19 C17 1.361 . S
C19 C20 1.393 . S
C19 N23 1.413 . S
C20 H13 0.930 . S
C20 C19 1.393 . S
C20 C21 1.399 . S
C21 C20 1.399 . S
C21 C22 1.381 . S
C22 H14 0.930 . S
C22 C18 1.390 . S
C22 C21 1.381 . S
N23 C16 1.286 . S
N23 C19 1.413 . S
H24 C29 0.930 . S
H25 C32 0.930 . S
H26 C34 0.930 . S
H27 C28 1.016 . S
C28 H27 1.016 . S
C28 N35 1.286 . S
C29 H24 0.930 . S
C29 C30 1.397 . S
C29 C31 1.361 . S
C30 C29 1.397 . S
C30 C34 1.390 . S
C31 C29 1.361 . S
C31 C32 1.393 . S
C31 N35 1.413 . S
C32 H25 0.930 . S
C32 C31 1.393 . S
C32 C33 1.399 . S
C33 C32 1.399 . S
C33 C34 1.381 . S
C34 H26 0.930 . S
C34 C30 1.390 . S
C34 C33 1.381 . S
N35 C28 1.286 . S
N35 C31 1.413 . S
H36 C41 0.930 . S
H37 C44 0.930 . S
H38 C46 0.930 . S
H39 C40 1.016 . S
C40 H39 1.016 . S
C40 N47 1.286 . S
C41 H36 0.930 . S
C41 C42 1.397 . S
C41 C43 1.361 . S
C42 C41 1.397 . S
C42 C46 1.390 . S
C43 C41 1.361 . S
C43 C44 1.393 . S
C43 N47 1.413 . S
C44 H37 0.930 . S
C44 C43 1.393 . S
C44 C45 1.399 . S
C45 C44 1.399 . S
C45 C46 1.381 . S
C46 H38 0.930 . S
C46 C42 1.390 . S
C46 C45 1.381 . S
N47 C40 1.286 . S
N47 C43 1.413 . S
H48 C53 0.930 . S
H49 C56 0.930 . S
H50 C58 0.930 . S
H51 C52 1.016 . S
C52 H51 1.016 . S
C52 N59 1.286 . S
C53 H48 0.930 . S
C53 C54 1.397 . S
C53 C55 1.361 . S
C54 C53 1.397 . S
C54 C58 1.390 1_565 S
C55 C53 1.361 . S
C55 C56 1.393 . S
C55 N59 1.413 . S
C56 H49 0.930 . S
C56 C55 1.393 . S
C56 C57 1.399 1_565 S
C57 C56 1.399 1_545 S
C57 C58 1.381 . S
C58 H50 0.930 . S
C58 C54 1.390 1_545 S
C58 C57 1.381 . S
N59 C52 1.286 . S
N59 C55 1.413 . S
H60 C65 0.930 . S
H61 C68 0.930 . S
H62 C70 0.930 . S
H63 C64 1.016 . S
C64 H63 1.016 . S
C64 N71 1.286 . S
C65 H60 0.930 . S
C65 C66 1.397 . S
C65 C67 1.361 . S
C66 C65 1.397 . S
C66 C70 1.390 . S
C67 C65 1.361 . S
C67 C68 1.393 . S
C67 N71 1.413 . S
C68 H61 0.930 . S
C68 C67 1.393 . S
C68 C69 1.399 . S
C69 C68 1.399 . S
C69 C70 1.381 . S
C70 H62 0.930 . S
C70 C66 1.390 . S
C70 C69 1.381 . S
N71 C64 1.286 . S
N71 C67 1.413 . S
H72 C77 0.930 . S
H73 C80 0.930 . S
H74 C82 0.930 . S
H75 C76 1.016 . S
C76 H75 1.016 . S
C76 N83 1.286 . S
C77 H72 0.930 . S
C77 C78 1.397 . S
C77 C79 1.361 . S
C78 C77 1.397 . S
C78 C82 1.390 . S
C79 C77 1.361 . S
C79 C80 1.393 . S
C79 N83 1.413 . S
C80 H73 0.930 . S
C80 C79 1.393 . S
C80 C81 1.399 . S
C81 C80 1.399 . S
C81 C82 1.381 . S
C82 H74 0.930 . S
C82 C78 1.390 . S
C82 C81 1.381 . S
N83 C76 1.286 . S
N83 C79 1.413 . S
H84 C89 0.930 . S
H85 C92 0.930 . S
H86 C94 0.930 . S
H87 C88 1.016 . S
C88 H87 1.016 . S
C88 N95 1.286 . S
C89 H84 0.930 . S
C89 C90 1.397 . S
C89 C91 1.361 . S
C90 C89 1.397 . S
C90 C94 1.390 . S
C91 C89 1.361 . S
C91 C92 1.393 . S
C91 N95 1.413 . S
C92 H85 0.930 . S
C92 C91 1.393 . S
C92 C93 1.399 . S
C93 C92 1.399 . S
C93 C94 1.381 . S
C94 H86 0.930 . S
C94 C90 1.390 . S
C94 C93 1.381 . S
N95 C88 1.286 . S
N95 C91 1.413 . S
H96 C101 0.930 . S
H97 C104 0.930 . S
H98 C106 0.930 . S
H99 C100 1.016 . S
C100 H99 1.016 . S
C100 N107 1.286 . S
C101 H96 0.930 . S
C101 C102 1.397 . S
C101 C103 1.361 . S
C102 C101 1.397 . S
C102 C106 1.390 . S
C103 C101 1.361 . S
C103 C104 1.393 . S
C103 N107 1.413 . S
C104 H97 0.930 . S
C104 C103 1.393 . S
C104 C105 1.399 . S
C105 C104 1.399 . S
C105 C106 1.381 . S
C106 H98 0.930 . S
C106 C102 1.390 . S
C106 C105 1.381 . S
N107 C100 1.286 . S
N107 C103 1.413 . S
H108 C113 0.930 . S
H109 C116 0.930 . S
H110 C118 0.930 . S
H111 C112 1.016 . S
C112 H111 1.016 . S
C112 N119 1.286 . S
C113 H108 0.930 . S
C113 C114 1.397 . S
C113 C115 1.361 . S
C114 C113 1.397 . S
C114 C118 1.390 . S
C115 C113 1.361 . S
C115 C116 1.393 . S
C115 N119 1.413 . S
C116 H109 0.930 . S
C116 C115 1.393 . S
C116 C117 1.399 . S
C117 C116 1.399 . S
C117 C118 1.381 . S
C118 H110 0.930 . S
C118 C114 1.390 . S
C118 C117 1.381 . S
N119 C112 1.286 . S
N119 C115 1.413 . S
H120 C125 0.930 . S
H121 C128 0.930 . S
H122 C130 0.930 . S
H123 C124 1.016 . S
C124 H123 1.016 . S
C124 N131 1.286 . S
C125 H120 0.930 . S
C125 C126 1.397 . S
C125 C127 1.361 . S
C126 C125 1.397 . S
C126 C130 1.390 . S
C127 C125 1.361 . S
C127 C128 1.393 . S
C127 N131 1.413 . S
C128 H121 0.930 . S
C128 C127 1.393 . S
C128 C129 1.399 . S
C129 C128 1.399 . S
C129 C130 1.381 . S
C130 H122 0.930 . S
C130 C126 1.390 . S
C130 C129 1.381 . S
N131 C124 1.286 . S
N131 C127 1.413 . S
H132 C137 0.930 . S
H133 C140 0.930 . S
H134 C142 0.930 . S
H135 C136 1.016 . S
C136 H135 1.016 . S
C136 N143 1.286 . S
C137 H132 0.930 . S
C137 C138 1.397 . S
C137 C139 1.361 . S
C138 C137 1.397 . S
C138 C142 1.390 . S
C139 C137 1.361 . S
C139 C140 1.393 . S
C139 N143 1.413 . S
C140 H133 0.930 . S
C140 C139 1.393 . S
C140 C141 1.399 . S
C141 C140 1.399 . S
C141 C142 1.381 . S
C142 H134 0.930 . S
C142 C138 1.390 . S
C142 C141 1.381 . S
N143 C136 1.286 . S
N143 C139 1.413 . S
H144 C149 0.930 . S
H145 C152 0.930 . S
H146 C154 0.930 . S
H147 C148 1.016 . S
C148 H147 1.016 . S
C148 N155 1.286 . S
C149 H144 0.930 . S
C149 C150 1.397 . S
C149 C151 1.361 . S
C150 C149 1.397 . S
C150 C154 1.390 . S
C151 C149 1.361 . S
C151 C152 1.393 . S
C151 N155 1.413 . S
C152 H145 0.930 . S
C152 C151 1.393 . S
C152 C153 1.399 . S
C153 C152 1.399 . S
C153 C154 1.381 . S
C154 H146 0.930 . S
C154 C150 1.390 . S
C154 C153 1.381 . S
N155 C148 1.286 . S
N155 C151 1.413 . S
H156 C161 0.930 . S
H157 C164 0.930 . S
H158 C166 0.930 . S
H159 C160 1.016 . S
C160 H159 1.016 . S
C160 N167 1.286 . S
C161 H156 0.930 . S
C161 C162 1.397 . S
C161 C163 1.361 . S
C162 C161 1.397 . S
C162 C166 1.390 . S
C163 C161 1.361 . S
C163 C164 1.393 . S
C163 N167 1.413 . S
C164 H157 0.930 . S
C164 C163 1.393 . S
C164 C165 1.399 . S
C165 C164 1.399 . S
C165 C166 1.381 . S
C166 H158 0.930 . S
C166 C162 1.390 . S
C166 C165 1.381 . S
N167 C160 1.286 . S
N167 C163 1.413 . S
H168 C173 0.930 . S
H169 C176 0.930 . S
H170 C178 0.930 . S
H171 C172 1.016 . S
C172 H171 1.016 . S
C172 N179 1.286 . S
C173 H168 0.930 . S
C173 C174 1.397 . S
C173 C175 1.361 . S
C174 C173 1.397 . S
C174 C178 1.390 . S
C175 C173 1.361 . S
C175 C176 1.393 . S
C175 N179 1.413 . S
C176 H169 0.930 . S
C176 C175 1.393 . S
C176 C177 1.399 . S
C177 C176 1.399 . S
C177 C178 1.381 . S
C178 H170 0.930 . S
C178 C174 1.390 . S
C178 C177 1.381 . S
N179 C172 1.286 . S
N179 C175 1.413 . S
H180 C185 0.930 . S
H181 C188 0.930 . S
H182 C190 0.930 1_554 S
H183 C184 1.016 . S
C184 H183 1.016 . S
C184 N191 1.286 . S
C185 H180 0.930 . S
C185 C186 1.397 . S
C185 C187 1.361 . S
C186 C185 1.397 . S
C186 C190 1.390 . S
C187 C185 1.361 . S
C187 C188 1.393 . S
C187 N191 1.413 . S
C188 H181 0.930 . S
C188 C187 1.393 . S
C188 C189 1.399 . S
C189 C188 1.399 . S
C189 C190 1.381 . S
C190 H182 0.930 1_556 S
C190 C186 1.390 . S
C190 C189 1.381 . S
N191 C184 1.286 . S
N191 C187 1.413 . S
O192 Cd193 2.223 . S
O192 C200 1.315 . S
Cd193 O192 2.223 . S
Cd193 O196 2.297 . S
Cd193 O197 2.439 . S
Cd193 O203 2.240 . S
Cd194 O195 2.240 . S
Cd194 O202 2.223 . S
Cd194 O204 2.297 1_565 S
Cd194 O205 2.439 . S
O195 Cd194 2.240 . S
O195 C200 1.279 . S
O196 Cd193 2.297 . S
O196 C198 1.247 . S
O197 Cd193 2.439 . S
O197 C198 1.208 . S
C198 O196 1.247 . S
C198 O197 1.208 . S
C199 O204 1.247 . S
C199 O205 1.208 1_545 S
C200 O192 1.315 . S
C200 O195 1.279 . S
C201 O202 1.315 . S
C201 O203 1.279 . S
O202 Cd194 2.223 . S
O202 C201 1.315 . S
O203 Cd193 2.240 . S
O203 C201 1.279 . S
O204 Cd194 2.297 1_545 S
O204 C199 1.247 . S
O205 Cd194 2.439 . S
O205 C199 1.208 1_565 S
O206 Cd207 2.223 . S
O206 C214 1.315 . S
Cd207 O206 2.223 . S
Cd207 O210 2.297 . S
Cd207 O211 2.439 . S
Cd207 O217 2.240 . S
Cd208 O209 2.240 . S
Cd208 O216 2.223 . S
Cd208 O218 2.297 . S
Cd208 O219 2.439 . S
O209 Cd208 2.240 . S
O209 C214 1.279 . S
O210 Cd207 2.297 . S
O210 C212 1.247 . S
O211 Cd207 2.439 . S
O211 C212 1.208 . S
C212 O210 1.247 . S
C212 O211 1.208 . S
C213 O218 1.247 . S
C213 O219 1.208 . S
C214 O206 1.315 . S
C214 O209 1.279 . S
C215 O216 1.315 . S
C215 O217 1.279 . S
O216 Cd208 2.223 . S
O216 C215 1.315 . S
O217 Cd207 2.240 . S
O217 C215 1.279 . S
O218 Cd208 2.297 . S
O218 C213 1.247 . S
O219 Cd208 2.439 . S
O219 C213 1.208 . S
O220 Cd221 2.223 1_556 S
O220 C228 1.315 . S
Cd221 O220 2.223 1_554 S
Cd221 O224 2.297 . S
Cd221 O225 2.439 . S
Cd221 O231 2.240 . S
Cd222 O223 2.240 . S
Cd222 O230 2.223 . S
Cd222 O232 2.297 1_556 S
Cd222 O233 2.439 1_556 S
O223 Cd222 2.240 . S
O223 C228 1.279 . S
O224 Cd221 2.297 . S
O224 C226 1.247 . S
O225 Cd221 2.439 . S
O225 C226 1.208 . S
C226 O224 1.247 . S
C226 O225 1.208 . S
C227 O232 1.247 . S
C227 O233 1.208 . S
C228 O220 1.315 . S
C228 O223 1.279 . S
C229 O230 1.315 . S
C229 O231 1.279 1_556 S
O230 Cd222 2.223 . S
O230 C229 1.315 . S
O231 Cd221 2.240 . S
O231 C229 1.279 1_554 S
O232 Cd222 2.297 1_554 S
O232 C227 1.247 . S
O233 Cd222 2.439 1_554 S
O233 C227 1.208 . S
O234 Cd235 2.223 . S
O234 C242 1.315 . S
Cd235 O234 2.223 . S
Cd235 O238 2.297 1_655 S
Cd235 O239 2.439 . S
Cd235 O245 2.240 . S
Cd236 O237 2.240 . S
Cd236 O244 2.223 . S
Cd236 O246 2.297 . S
Cd236 O247 2.439 . S
O237 Cd236 2.240 . S
O237 C242 1.279 . S
O238 Cd235 2.297 1_455 S
O238 C240 1.247 . S
O239 Cd235 2.439 . S
O239 C240 1.208 1_655 S
C240 O238 1.247 . S
C240 O239 1.208 1_455 S
C241 O246 1.247 . S
C241 O247 1.208 . S
C242 O234 1.315 . S
C242 O237 1.279 . S
C243 O244 1.315 . S
C243 O245 1.279 . S
O244 Cd236 2.223 . S
O244 C243 1.315 . S
O245 Cd235 2.240 . S
O245 C243 1.279 . S
O246 Cd236 2.297 . S
O246 C241 1.247 . S
O247 Cd236 2.439 . S
O247 C241 1.208 . S
O248 Cd249 2.223 . S
O248 C256 1.315 . S
Cd249 O248 2.223 . S
Cd249 O252 2.297 . S
Cd249 O253 2.439 . S
Cd249 O259 2.240 . S
Cd250 O251 2.240 . S
Cd250 O258 2.223 . S
Cd250 O260 2.297 . S
Cd250 O261 2.439 . S
O251 Cd250 2.240 . S
O251 C256 1.279 . S
O252 Cd249 2.297 . S
O252 C254 1.247 . S
O253 Cd249 2.439 . S
O253 C254 1.208 . S
C254 O252 1.247 . S
C254 O253 1.208 . S
C255 O260 1.247 . S
C255 O261 1.208 . S
C256 O248 1.315 . S
C256 O251 1.279 . S
C257 O258 1.315 . S
C257 O259 1.279 . S
O258 Cd250 2.223 . S
O258 C257 1.315 . S
O259 Cd249 2.240 . S
O259 C257 1.279 . S
O260 Cd250 2.297 . S
O260 C255 1.247 . S
O261 Cd250 2.439 . S
O261 C255 1.208 . S
O262 Cd263 2.223 . S
O262 C270 1.315 . S
Cd263 O262 2.223 . S
Cd263 O266 2.297 . S
Cd263 O267 2.439 . S
Cd263 O273 2.240 . S
Cd264 O265 2.240 . S
Cd264 O272 2.223 . S
Cd264 O274 2.297 . S
Cd264 O275 2.439 . S
O265 Cd264 2.240 . S
O265 C270 1.279 . S
O266 Cd263 2.297 . S
O266 C268 1.247 . S
O267 Cd263 2.439 . S
O267 C268 1.208 . S
C268 O266 1.247 . S
C268 O267 1.208 . S
C269 O274 1.247 . S
C269 O275 1.208 . S
C270 O262 1.315 . S
C270 O265 1.279 . S
C271 O272 1.315 . S
C271 O273 1.279 . S
O272 Cd264 2.223 . S
O272 C271 1.315 . S
O273 Cd263 2.240 . S
O273 C271 1.279 . S
O274 Cd264 2.297 . S
O274 C269 1.247 . S
O275 Cd264 2.439 . S
O275 C269 1.208 . S
O276 Cd277 2.223 . S
O276 C284 1.315 . S
Cd277 O276 2.223 . S
Cd277 O280 2.297 . S
Cd277 O281 2.439 . S
Cd277 O287 2.240 . S
Cd278 O279 2.240 . S
Cd278 O286 2.223 . S
Cd278 O288 2.297 . S
Cd278 O289 2.439 . S
O279 Cd278 2.240 . S
O279 C284 1.279 . S
O280 Cd277 2.297 . S
O280 C282 1.247 . S
O281 Cd277 2.439 . S
O281 C282 1.208 . S
C282 O280 1.247 . S
C282 O281 1.208 . S
C283 O288 1.247 . S
C283 O289 1.208 . S
C284 O276 1.315 . S
C284 O279 1.279 . S
C285 O286 1.315 . S
C285 O287 1.279 . S
O286 Cd278 2.223 . S
O286 C285 1.315 . S
O287 Cd277 2.240 . S
O287 C285 1.279 . S
O288 Cd278 2.297 . S
O288 C283 1.247 . S
O289 Cd278 2.439 . S
O289 C283 1.208 . S
O290 Cd291 2.223 1_545 S
O290 C298 1.315 . S
Cd291 O290 2.223 1_565 S
Cd291 O294 2.297 . S
Cd291 O295 2.439 . S
Cd291 O301 2.240 1_565 S
Cd292 O293 2.240 . S
Cd292 O300 2.223 . S
Cd292 O302 2.297 . S
Cd292 O303 2.439 1_545 S
O293 Cd292 2.240 . S
O293 C298 1.279 . S
O294 Cd291 2.297 . S
O294 C296 1.247 . S
O295 Cd291 2.439 . S
O295 C296 1.208 . S
C296 O294 1.247 . S
C296 O295 1.208 . S
C297 O302 1.247 1_565 S
C297 O303 1.208 . S
C298 O290 1.315 . S
C298 O293 1.279 . S
C299 O300 1.315 . S
C299 O301 1.279 . S
O300 Cd292 2.223 . S
O300 C299 1.315 . S
O301 Cd291 2.240 1_545 S
O301 C299 1.279 . S
O302 Cd292 2.297 . S
O302 C297 1.247 1_545 S
O303 Cd292 2.439 1_565 S
O303 C297 1.208 . S
O304 Cd305 2.223 . S
O304 C312 1.315 . S
Cd305 O304 2.223 . S
Cd305 O308 2.297 1_655 S
Cd305 O309 2.439 1_655 S
Cd305 O315 2.240 . S
Cd306 O307 2.240 . S
Cd306 O314 2.223 1_455 S
Cd306 O316 2.297 . S
Cd306 O317 2.439 . S
O307 Cd306 2.240 . S
O307 C312 1.279 1_455 S
O308 Cd305 2.297 1_455 S
O308 C310 1.247 . S
O309 Cd305 2.439 1_455 S
O309 C310 1.208 . S
C310 O308 1.247 . S
C310 O309 1.208 . S
C311 O316 1.247 . S
C311 O317 1.208 . S
C312 O304 1.315 . S
C312 O307 1.279 1_655 S
C313 O314 1.315 . S
C313 O315 1.279 . S
O314 Cd306 2.223 1_655 S
O314 C313 1.315 . S
O315 Cd305 2.240 . S
O315 C313 1.279 . S
O316 Cd306 2.297 . S
O316 C311 1.247 . S
O317 Cd306 2.439 . S
O317 C311 1.208 . S
O318 Cd319 2.223 . S
O318 C326 1.315 . S
Cd319 O318 2.223 . S
Cd319 O322 2.297 . S
Cd319 O323 2.439 . S
Cd319 O329 2.240 . S
Cd320 O321 2.240 . S
Cd320 O328 2.223 . S
Cd320 O330 2.297 . S
Cd320 O331 2.439 . S
O321 Cd320 2.240 . S
O321 C326 1.279 . S
O322 Cd319 2.297 . S
O322 C324 1.247 . S
O323 Cd319 2.439 . S
O323 C324 1.208 . S
C324 O322 1.247 . S
C324 O323 1.208 . S
C325 O330 1.247 . S
C325 O331 1.208 . S
C326 O318 1.315 . S
C326 O321 1.279 . S
C327 O328 1.315 . S
C327 O329 1.279 . S
O328 Cd320 2.223 . S
O328 C327 1.315 . S
O329 Cd319 2.240 . S
O329 C327 1.279 . S
O330 Cd320 2.297 . S
O330 C325 1.247 . S
O331 Cd320 2.439 . S
O331 C325 1.208 . S
O332 Cd333 2.223 1_655 S
O332 C340 1.315 . S
Cd333 O332 2.223 1_455 S
Cd333 O336 2.297 . S
Cd333 O337 2.439 . S
Cd333 O343 2.240 . S
Cd334 O335 2.239 1_455 S
Cd334 O342 2.213 1_455 S
Cd334 O344 2.307 . S
Cd334 O345 2.465 . S
O335 Cd334 2.239 1_655 S
O335 C340 1.279 . S
O336 Cd333 2.297 . S
O336 C338 1.247 . S
O337 Cd333 2.439 . S
O337 C338 1.208 . S
C338 O336 1.247 . S
C338 O337 1.208 . S
C339 O344 1.247 . S
C339 O345 1.208 . S
C340 O332 1.315 . S
C340 O335 1.279 . S
C341 O342 1.315 . S
C341 O343 1.279 1_655 S
O342 Cd334 2.213 1_655 S
O342 C341 1.315 . S
O343 Cd333 2.240 . S
O343 C341 1.279 1_455 S
O344 Cd334 2.307 . S
O344 C339 1.247 . S
O345 Cd334 2.465 . S
O345 C339 1.208 . S
O346 Cd347 2.223 . S
O346 C354 1.315 . S
Cd347 O346 2.223 . S
Cd347 O350 2.297 . S
Cd347 O351 2.439 . S
Cd347 O357 2.240 . S
Cd348 O349 2.240 . S
Cd348 O356 2.223 . S
Cd348 O358 2.297 . S
Cd348 O359 2.439 . S
O349 Cd348 2.240 . S
O349 C354 1.279 . S
O350 Cd347 2.297 . S
O350 C352 1.247 . S
O351 Cd347 2.439 . S
O351 C352 1.208 . S
C352 O350 1.247 . S
C352 O351 1.208 . S
C353 O358 1.247 . S
C353 O359 1.208 . S
C354 O346 1.315 . S
C354 O349 1.279 . S
C355 O356 1.315 . S
C355 O357 1.279 . S
O356 Cd348 2.223 . S
O356 C355 1.315 . S
O357 Cd347 2.240 . S
O357 C355 1.279 . S
O358 Cd348 2.297 . S
O358 C353 1.247 . S
O359 Cd348 2.439 . S
O359 C353 1.208 . S
C360 C361 1.363 . S
C360 C366 1.379 . S
C360 N368 1.356 . S
C361 C360 1.363 . S
C361 C367 1.363 . S
C362 C363 1.363 . S
C362 C367 1.379 . S
C362 N369 1.356 . S
C363 C362 1.363 . S
C363 C366 1.363 . S
N364 C366 1.356 1_554 S
N364 H376 0.984 . S
N364 H377 0.985 . S
N365 C367 1.356 . S
N365 H370 0.984 . S
N365 H371 0.985 . S
C366 C360 1.379 . S
C366 C363 1.363 . S
C366 N364 1.356 1_556 S
C367 C361 1.363 . S
C367 C362 1.379 . S
C367 N365 1.356 . S
N368 C360 1.356 . S
N368 H374 0.984 . S
N368 H375 0.984 . S
N369 C362 1.356 . S
N369 H372 0.984 . S
N369 H373 0.985 . S
H370 N365 0.984 . S
H371 N365 0.985 . S
H372 N369 0.984 . S
H373 N369 0.985 . S
H374 N368 0.984 . S
H375 N368 0.984 . S
H376 N364 0.984 . S
H377 N364 0.985 . S
C378 C379 1.363 . S
C378 C384 1.379 1_655 S
C378 N386 1.356 . S
C379 C378 1.363 . S
C379 C385 1.363 1_655 S
C380 C381 1.363 . S
C380 C385 1.379 . S
C380 N387 1.356 . S
C381 C380 1.363 . S
C381 C384 1.363 . S
N382 C384 1.356 . S
N382 H394 0.984 . S
N382 H395 0.985 . S
N383 C385 1.356 . S
N383 H388 0.984 1_455 S
N383 H389 0.985 . S
C384 C378 1.379 1_455 S
C384 C381 1.363 . S
C384 N382 1.356 . S
C385 C379 1.363 1_455 S
C385 C380 1.379 . S
C385 N383 1.356 . S
N386 C378 1.356 . S
N386 H392 0.984 . S
N386 H393 0.984 . S
N387 C380 1.356 . S
N387 H390 0.984 . S
N387 H391 0.985 . S
H388 N383 0.984 1_655 S
H389 N383 0.985 . S
H390 N387 0.984 . S
H391 N387 0.985 . S
H392 N386 0.984 . S
H393 N386 0.984 . S
H394 N382 0.984 . S
H395 N382 0.985 . S
C396 C397 1.363 . S
C396 C402 1.379 . S
C396 N404 1.356 . S
C397 C396 1.363 . S
C397 C403 1.363 . S
C398 C399 1.363 . S
C398 C403 1.379 . S
C398 N405 1.356 . S
C399 C398 1.363 . S
C399 C402 1.363 . S
N400 C402 1.356 . S
N400 H412 0.984 . S
N400 H413 0.985 . S
N401 C403 1.356 . S
N401 H406 0.984 . S
N401 H407 0.985 . S
C402 C396 1.379 . S
C402 C399 1.363 . S
C402 N400 1.356 . S
C403 C397 1.363 . S
C403 C398 1.379 . S
C403 N401 1.356 . S
N404 C396 1.356 . S
N404 H410 0.984 . S
N404 H411 0.984 . S
N405 C398 1.356 . S
N405 H408 0.984 . S
N405 H409 0.985 . S
H406 N401 0.984 . S
H407 N401 0.985 . S
H408 N405 0.984 . S
H409 N405 0.985 . S
H410 N404 0.984 . S
H411 N404 0.984 . S
H412 N400 0.984 . S
H413 N400 0.985 . S
C414 C415 1.366 . S
C414 C420 1.366 1_565 S
C414 N422 1.369 . S
C415 C414 1.366 . S
C415 C421 1.364 1_565 S
C416 C417 1.363 . S
C416 C421 1.379 . S
C416 N423 1.356 1_455 S
C417 C416 1.363 . S
C417 C420 1.363 . S
N418 C420 1.356 . S
N418 H430 0.984 . S
N418 H431 0.985 . S
N419 C421 1.356 . S
N419 H424 0.977 1_545 S
N419 H425 0.985 . S
C420 C414 1.366 1_545 S
C420 C417 1.363 . S
C420 N418 1.356 . S
C421 C415 1.364 1_545 S
C421 C416 1.379 . S
C421 N419 1.356 . S
N422 C414 1.369 . S
N422 H428 0.984 . S
N422 H429 0.984 . S
N423 C416 1.356 1_655 S
N423 H426 0.984 . S
N423 H427 0.985 . S
H424 N419 0.977 1_565 S
H425 N419 0.985 . S
H426 N423 0.984 . S
H427 N423 0.985 . S
H428 N422 0.984 . S
H429 N422 0.984 . S
H430 N418 0.984 . S
H431 N418 0.985 . S
C432 C433 1.363 . S
C432 C438 1.379 . S
C432 N440 1.356 . S
C433 C432 1.363 . S
C433 C439 1.363 . S
C434 C435 1.363 . S
C434 C439 1.379 . S
C434 N441 1.356 . S
C435 C434 1.363 . S
C435 C438 1.363 . S
N436 C438 1.356 . S
N436 H448 0.984 . S
N436 H449 0.985 . S
N437 C439 1.356 . S
N437 H442 0.984 . S
N437 H443 0.985 . S
C438 C432 1.379 . S
C438 C435 1.363 . S
C438 N436 1.356 . S
C439 C433 1.363 . S
C439 C434 1.379 . S
C439 N437 1.356 . S
N440 C432 1.356 . S
N440 H446 0.984 . S
N440 H447 0.984 . S
N441 C434 1.356 . S
N441 H444 0.984 . S
N441 H445 0.985 . S
H442 N437 0.984 . S
H443 N437 0.985 . S
H444 N441 0.984 . S
H445 N441 0.985 . S
H446 N440 0.984 . S
H447 N440 0.984 . S
H448 N436 0.984 . S
H449 N436 0.985 . S
C450 C451 1.363 . S
C450 C456 1.379 . S
C450 N458 1.356 . S
C451 C450 1.363 . S
C451 C457 1.363 . S
C452 C453 1.363 . S
C452 C457 1.379 . S
C452 N459 1.356 . S
C453 C452 1.363 . S
C453 C456 1.363 . S
N454 C456 1.356 . S
N454 H466 0.984 . S
N454 H467 0.985 . S
N455 C457 1.356 . S
N455 H460 0.984 . S
N455 H461 0.985 . S
C456 C450 1.379 . S
C456 C453 1.363 . S
C456 N454 1.356 . S
C457 C451 1.363 . S
C457 C452 1.379 . S
C457 N455 1.356 . S
N458 C450 1.356 . S
N458 H464 0.984 . S
N458 H465 0.984 . S
N459 C452 1.356 . S
N459 H462 0.984 . S
N459 H463 0.985 . S
H460 N455 0.984 . S
H461 N455 0.985 . S
H462 N459 0.984 . S
H463 N459 0.985 . S
H464 N458 0.984 . S
H465 N458 0.984 . S
H466 N454 0.984 . S
H467 N454 0.985 . S
C468 C469 1.363 . S
C468 C474 1.379 . S
C468 N476 1.356 . S
C469 C468 1.363 . S
C469 C475 1.363 . S
C470 C471 1.363 . S
C470 C475 1.379 . S
C470 N477 1.356 . S
C471 C470 1.363 . S
C471 C474 1.363 . S
N472 C474 1.356 . S
N472 H484 0.984 . S
N472 H485 0.985 . S
N473 C475 1.356 . S
N473 H478 0.984 . S
N473 H479 0.985 . S
C474 C468 1.379 . S
C474 C471 1.363 . S
C474 N472 1.356 . S
C475 C469 1.363 . S
C475 C470 1.379 . S
C475 N473 1.356 . S
N476 C468 1.356 . S
N476 H482 0.984 . S
N476 H483 0.984 . S
N477 C470 1.356 . S
N477 H480 0.984 . S
N477 H481 0.985 . S
H478 N473 0.984 . S
H479 N473 0.985 . S
H480 N477 0.984 . S
H481 N477 0.985 . S
H482 N476 0.984 . S
H483 N476 0.984 . S
H484 N472 0.984 . S
H485 N472 0.985 . S
C486 C487 1.363 . S
C486 C492 1.379 . S
C486 N494 1.356 . S
C487 C486 1.363 . S
C487 C493 1.363 . S
C488 C489 1.363 . S
C488 C493 1.379 . S
C488 N495 1.356 . S
C489 C488 1.363 . S
C489 C492 1.363 . S
N490 C492 1.356 1_545 S
N490 H502 0.984 . S
N490 H503 0.985 1_545 S
N491 C493 1.356 . S
N491 H496 0.984 . S
N491 H497 0.985 . S
C492 C486 1.379 . S
C492 C489 1.363 . S
C492 N490 1.356 1_565 S
C493 C487 1.363 . S
C493 C488 1.379 . S
C493 N491 1.356 . S
N494 C486 1.356 . S
N494 H500 0.984 1_565 S
N494 H501 0.984 . S
N495 C488 1.356 . S
N495 H498 0.984 . S
N495 H499 0.985 . S
H496 N491 0.984 . S
H497 N491 0.985 . S
H498 N495 0.984 . S
H499 N495 0.985 . S
H500 N494 0.984 1_545 S
H501 N494 0.984 . S
H502 N490 0.984 . S
H503 N490 0.985 1_565 S
C504 C505 1.363 . S
C504 C510 1.379 . S
C504 N512 1.356 . S
C505 C504 1.363 . S
C505 C511 1.363 . S
C506 C507 1.363 . S
C506 C511 1.379 . S
C506 N513 1.356 . S
C507 C506 1.363 . S
C507 C510 1.363 . S
N508 C510 1.356 . S
N508 H520 0.984 . S
N508 H521 0.985 . S
N509 C511 1.356 . S
N509 H514 0.984 . S
N509 H515 0.985 . S
C510 C504 1.379 . S
C510 C507 1.363 . S
C510 N508 1.356 . S
C511 C505 1.363 . S
C511 C506 1.379 . S
C511 N509 1.356 . S
N512 C504 1.356 . S
N512 H518 0.984 . S
N512 H519 0.984 . S
N513 C506 1.356 . S
N513 H516 0.984 . S
N513 H517 0.985 . S
H514 N509 0.984 . S
H515 N509 0.985 . S
H516 N513 0.984 . S
H517 N513 0.985 . S
H518 N512 0.984 . S
H519 N512 0.984 . S
H520 N508 0.984 . S
H521 N508 0.985 . S
C522 C523 1.363 . S
C522 C528 1.379 . S
C522 N530 1.356 . S
C523 C522 1.363 . S
C523 C529 1.363 . S
C524 C525 1.363 . S
C524 C529 1.379 . S
C524 N531 1.356 . S
C525 C524 1.363 . S
C525 C528 1.363 . S
N526 C528 1.356 . S
N526 H538 0.984 . S
N526 H539 0.985 . S
N527 C529 1.356 . S
N527 H532 0.984 . S
N527 H533 0.985 . S
C528 C522 1.379 . S
C528 C525 1.363 . S
C528 N526 1.356 . S
C529 C523 1.363 . S
C529 C524 1.379 . S
C529 N527 1.356 . S
N530 C522 1.356 . S
N530 H536 0.984 . S
N530 H537 0.984 . S
N531 C524 1.356 . S
N531 H534 0.984 . S
N531 H535 0.985 . S
H532 N527 0.984 . S
H533 N527 0.985 . S
H534 N531 0.984 . S
H535 N531 0.985 . S
H536 N530 0.984 . S
H537 N530 0.984 . S
H538 N526 0.984 . S
H539 N526 0.985 . S
C540 C541 1.363 . S
C540 C546 1.379 . S
C540 N548 1.356 . S
C541 C540 1.363 . S
C541 C547 1.363 . S
C542 C543 1.363 . S
C542 C547 1.379 . S
C542 N549 1.356 . S
C543 C542 1.363 . S
C543 C546 1.363 . S
N544 C546 1.356 . S
N544 H556 0.984 . S
N544 H557 0.985 . S
N545 C547 1.356 . S
N545 H550 0.984 . S
N545 H551 0.985 . S
C546 C540 1.379 . S
C546 C543 1.363 . S
C546 N544 1.356 . S
C547 C541 1.363 . S
C547 C542 1.379 . S
C547 N545 1.356 . S
N548 C540 1.356 . S
N548 H554 0.984 . S
N548 H555 0.984 . S
N549 C542 1.356 . S
N549 H552 0.984 . S
N549 H553 0.985 . S
H550 N545 0.984 . S
H551 N545 0.985 . S
H552 N549 0.984 . S
H553 N549 0.985 . S
H554 N548 0.984 . S
H555 N548 0.984 . S
H556 N544 0.984 . S
H557 N544 0.985 . S
C558 C559 1.363 . S
C558 C564 1.379 . S
C558 N566 1.356 . S
C559 C558 1.363 . S
C559 C565 1.363 . S
C560 C561 1.363 . S
C560 C565 1.379 . S
C560 N567 1.356 . S
C561 C560 1.363 . S
C561 C564 1.363 . S
N562 C564 1.356 . S
N562 H574 0.984 . S
N562 H575 0.985 . S
N563 C565 1.356 . S
N563 H568 0.984 . S
N563 H569 0.985 . S
C564 C558 1.379 . S
C564 C561 1.363 . S
C564 N562 1.356 . S
C565 C559 1.363 . S
C565 C560 1.379 . S
C565 N563 1.356 . S
N566 C558 1.356 . S
N566 H572 0.984 . S
N566 H573 0.984 . S
N567 C560 1.356 . S
N567 H570 0.984 . S
N567 H571 0.985 . S
H568 N563 0.984 . S
H569 N563 0.985 . S
H570 N567 0.984 . S
H571 N567 0.985 . S
H572 N566 0.984 . S
H573 N566 0.984 . S
H574 N562 0.984 . S
H575 N562 0.985 . S
C576 C577 1.363 . S
C576 C582 1.379 . S
C576 N584 1.356 . S
C577 C576 1.363 . S
C577 C583 1.363 . S
C578 C579 1.363 . S
C578 C583 1.379 . S
C578 N585 1.356 . S
C579 C578 1.363 . S
C579 C582 1.363 . S
N580 C582 1.356 . S
N580 H592 0.984 . S
N580 H593 0.985 . S
N581 C583 1.356 . S
N581 H586 0.984 . S
N581 H587 0.985 . S
C582 C576 1.379 . S
C582 C579 1.363 . S
C582 N580 1.356 . S
C583 C577 1.363 . S
C583 C578 1.379 . S
C583 N581 1.356 . S
N584 C576 1.356 . S
N584 H590 0.984 . S
N584 H591 0.984 . S
N585 C578 1.356 . S
N585 H588 0.984 . S
N585 H589 0.985 . S
H586 N581 0.984 . S
H587 N581 0.985 . S
H588 N585 0.984 . S
H589 N585 0.985 . S
H590 N584 0.984 . S
H591 N584 0.984 . S
H592 N580 0.984 . S
H593 N580 0.985 . S
C594 C595 1.363 . S
C594 C600 1.379 . S
C594 N602 1.356 . S
C595 C594 1.363 . S
C595 C601 1.363 . S
C596 C597 1.363 . S
C596 C601 1.379 . S
C596 N603 1.356 . S
C597 C596 1.363 . S
C597 C600 1.363 . S
N598 C600 1.356 . S
N598 H610 0.984 . S
N598 H611 0.985 . S
N599 C601 1.356 . S
N599 H604 0.984 . S
N599 H605 0.985 . S
C600 C594 1.379 . S
C600 C597 1.363 . S
C600 N598 1.356 . S
C601 C595 1.363 . S
C601 C596 1.379 . S
C601 N599 1.356 . S
N602 C594 1.356 . S
N602 H608 0.984 . S
N602 H609 0.984 . S
N603 C596 1.356 . S
N603 H606 0.984 . S
N603 H607 0.985 . S
H604 N599 0.984 . S
H605 N599 0.985 . S
H606 N603 0.984 . S
H607 N603 0.985 . S
H608 N602 0.984 . S
H609 N602 0.984 . S
H610 N598 0.984 . S
H611 N598 0.985 . S
C612 C613 1.363 . S
C612 C618 1.379 . S
C612 N620 1.356 . S
C613 C612 1.363 . S
C613 C619 1.363 . S
C614 C615 1.363 . S
C614 C619 1.379 . S
C614 N621 1.356 . S
C615 C614 1.363 . S
C615 C618 1.363 . S
N616 C618 1.356 . S
N616 H628 0.984 . S
N616 H629 0.985 . S
N617 C619 1.356 . S
N617 H622 0.984 . S
N617 H623 0.985 . S
C618 C612 1.379 . S
C618 C615 1.363 . S
C618 N616 1.356 . S
C619 C613 1.363 . S
C619 C614 1.379 . S
C619 N617 1.356 . S
N620 C612 1.356 . S
N620 H626 0.984 . S
N620 H627 0.984 . S
N621 C614 1.356 . S
N621 H624 0.984 . S
N621 H625 0.985 . S
H622 N617 0.984 . S
H623 N617 0.985 . S
H624 N621 0.984 . S
H625 N621 0.985 . S
H626 N620 0.984 . S
H627 N620 0.984 . S
H628 N616 0.984 . S
H629 N616 0.985 . S
C630 C631 1.363 . S
C630 C636 1.379 . S
C630 N638 1.356 . S
C631 C630 1.363 . S
C631 C637 1.363 . S
C632 C633 1.363 . S
C632 C637 1.379 . S
C632 N639 1.356 . S
C633 C632 1.363 . S
C633 C636 1.363 . S
N634 C636 1.356 1_455 S
N634 H646 0.984 . S
N634 H647 0.985 . S
N635 C637 1.356 . S
N635 H640 0.984 . S
N635 H641 0.985 . S
C636 C630 1.379 . S
C636 C633 1.363 . S
C636 N634 1.356 1_655 S
C637 C631 1.363 . S
C637 C632 1.379 . S
C637 N635 1.356 . S
N638 C630 1.356 . S
N638 H644 0.984 . S
N638 H645 0.984 . S
N639 C632 1.356 . S
N639 H642 0.984 . S
N639 H643 0.985 . S
H640 N635 0.984 . S
H641 N635 0.985 . S
H642 N639 0.984 . S
H643 N639 0.985 . S
H644 N638 0.984 . S
H645 N638 0.984 . S
H646 N634 0.984 . S
H647 N634 0.985 . S
C648 C649 1.363 . S
C648 C654 1.379 . S
C648 N656 1.356 . S
C649 C648 1.363 . S
C649 C655 1.363 . S
C650 C651 1.363 . S
C650 C655 1.379 . S
C650 N657 1.356 1_565 S
C651 C650 1.363 . S
C651 C654 1.363 . S
N652 C654 1.356 . S
N652 H664 0.984 . S
N652 H665 0.985 . S
N653 C655 1.356 . S
N653 H658 0.984 . S
N653 H659 0.985 . S
C654 C648 1.379 . S
C654 C651 1.363 . S
C654 N652 1.356 . S
C655 C649 1.363 . S
C655 C650 1.379 . S
C655 N653 1.356 . S
N656 C648 1.356 . S
N656 H662 0.984 . S
N656 H663 0.984 . S
N657 C650 1.356 1_545 S
N657 H660 0.984 . S
N657 H661 0.985 . S
H658 N653 0.984 . S
H659 N653 0.985 . S
H660 N657 0.984 . S
H661 N657 0.985 . S
H662 N656 0.984 . S
H663 N656 0.984 . S
H664 N652 0.984 . S
H665 N652 0.985 . S
C666 C667 1.363 . S
C666 C672 1.379 . S
C666 N674 1.356 . S
C667 C666 1.363 . S
C667 C673 1.363 . S
C668 C669 1.363 . S
C668 C673 1.379 . S
C668 N675 1.356 . S
C669 C668 1.363 . S
C669 C672 1.363 . S
N670 C672 1.356 . S
N670 H682 0.984 . S
N670 H683 0.985 . S
N671 C673 1.356 . S
N671 H676 0.984 . S
N671 H677 0.985 . S
C672 C666 1.379 . S
C672 C669 1.363 . S
C672 N670 1.356 . S
C673 C667 1.363 . S
C673 C668 1.379 . S
C673 N671 1.356 . S
N674 C666 1.356 . S
N674 H680 0.984 . S
N674 H681 0.984 . S
N675 C668 1.356 . S
N675 H678 0.984 . S
N675 H679 0.985 . S
H676 N671 0.984 . S
H677 N671 0.985 . S
H678 N675 0.984 . S
H679 N675 0.985 . S
H680 N674 0.984 . S
H681 N674 0.984 . S
H682 N670 0.984 . S
H683 N670 0.985 . S
C684 C685 1.363 1_554 S
C684 C690 1.379 . S
C684 N692 1.356 . S
C685 C684 1.363 1_556 S
C685 C691 1.363 . S
C686 C687 1.363 1_566 S
C686 C691 1.379 1_565 S
C686 N693 1.356 . S
C687 C686 1.363 1_544 S
C687 C690 1.363 . S
N688 C690 1.356 . S
N688 H700 0.984 . S
N688 H701 0.985 . S
N689 C691 1.356 . S
N689 H694 0.984 . S
N689 H695 0.985 1_545 S
C690 C684 1.379 . S
C690 C687 1.363 . S
C690 N688 1.356 . S
C691 C685 1.363 . S
C691 C686 1.379 1_545 S
C691 N689 1.356 . S
N692 C684 1.356 . S
N692 H698 0.984 . S
N692 H699 0.984 1_554 S
N693 C686 1.356 . S
N693 H696 1.005 . S
N693 H697 0.985 . S
H694 N689 0.984 . S
H695 N689 0.985 1_565 S
H696 N693 1.005 . S
H697 N693 0.985 . S
H698 N692 0.984 . S
H699 N692 0.984 1_556 S
H700 N688 0.984 . S
H701 N688 0.985 . S
C702 C703 1.363 . S
C702 C708 1.379 . S
C702 N710 1.356 . S
C703 C702 1.363 . S
C703 C709 1.363 . S
C704 C705 1.363 . S
C704 C709 1.379 . S
C704 N711 1.356 . S
C705 C704 1.363 . S
C705 C708 1.363 . S
N706 C708 1.356 . S
N706 H718 0.984 . S
N706 H719 0.985 . S
N707 C709 1.356 . S
N707 H712 0.984 . S
N707 H713 0.985 . S
C708 C702 1.379 . S
C708 C705 1.363 . S
C708 N706 1.356 . S
C709 C703 1.363 . S
C709 C704 1.379 . S
C709 N707 1.356 . S
N710 C702 1.356 . S
N710 H716 0.984 . S
N710 H717 0.984 . S
N711 C704 1.356 . S
N711 H714 0.984 . S
N711 H715 0.985 . S
H712 N707 0.984 . S
H713 N707 0.985 . S
H714 N711 0.984 . S
H715 N711 0.985 . S
H716 N710 0.984 . S
H717 N710 0.984 . S
H718 N706 0.984 . S
H719 N706 0.985 . S
C720 C721 1.363 . S
C720 C726 1.379 . S
C720 N728 1.356 . S
C721 C720 1.363 . S
C721 C727 1.363 . S
C722 C723 1.363 . S
C722 C727 1.379 . S
C722 N729 1.356 . S
C723 C722 1.363 . S
C723 C726 1.363 . S
N724 C726 1.356 . S
N724 H736 0.984 . S
N724 H737 0.985 . S
N725 C727 1.356 . S
N725 H730 0.984 . S
N725 H731 0.985 . S
C726 C720 1.379 . S
C726 C723 1.363 . S
C726 N724 1.356 . S
C727 C721 1.363 . S
C727 C722 1.379 . S
C727 N725 1.356 . S
N728 C720 1.356 . S
N728 H734 0.984 . S
N728 H735 0.984 . S
N729 C722 1.356 . S
N729 H732 0.984 . S
N729 H733 0.985 . S
H730 N725 0.984 . S
H731 N725 0.985 . S
H732 N729 0.984 . S
H733 N729 0.985 . S
H734 N728 0.984 . S
H735 N728 0.984 . S
H736 N724 0.984 . S
H737 N724 0.985 . S
C738 C739 1.363 . S
C738 C744 1.379 . S
C738 N746 1.356 . S
C739 C738 1.363 . S
C739 C745 1.363 . S
C740 C741 1.363 . S
C740 C745 1.379 . S
C740 N747 1.356 . S
C741 C740 1.363 . S
C741 C744 1.363 . S
N742 C744 1.356 . S
N742 H754 0.984 . S
N742 H755 0.985 . S
N743 C745 1.356 . S
N743 H748 0.984 . S
N743 H749 0.985 . S
C744 C738 1.379 . S
C744 C741 1.363 . S
C744 N742 1.356 . S
C745 C739 1.363 . S
C745 C740 1.379 . S
C745 N743 1.356 . S
N746 C738 1.356 . S
N746 H752 0.984 . S
N746 H753 0.984 . S
N747 C740 1.356 . S
N747 H750 0.984 . S
N747 H751 0.985 . S
H748 N743 0.984 . S
H749 N743 0.985 . S
H750 N747 0.984 . S
H751 N747 0.985 . S
H752 N746 0.984 . S
H753 N746 0.984 . S
H754 N742 0.984 . S
H755 N742 0.985 . S
C756 C757 1.363 . S
C756 C762 1.379 . S
C756 N764 1.356 1_545 S
C757 C756 1.363 . S
C757 C763 1.363 . S
C758 C759 1.363 . S
C758 C763 1.379 . S
C758 N765 1.356 . S
C759 C758 1.363 . S
C759 C762 1.363 . S
N760 C762 1.356 . S
N760 H772 0.984 . S
N760 H773 0.985 . S
N761 C763 1.356 . S
N761 H766 0.973 1_545 S
N761 H767 0.985 . S
C762 C756 1.379 . S
C762 C759 1.363 . S
C762 N760 1.356 . S
C763 C757 1.363 . S
C763 C758 1.379 . S
C763 N761 1.356 . S
N764 C756 1.356 1_565 S
N764 H770 0.984 . S
N764 H771 0.984 . S
N765 C758 1.356 . S
N765 H768 0.984 . S
N765 H769 0.985 . S
H766 N761 0.973 1_565 S
H767 N761 0.985 . S
H768 N765 0.984 . S
H769 N765 0.985 . S
H770 N764 0.984 . S
H771 N764 0.984 . S
H772 N760 0.984 . S
H773 N760 0.985 . S
C774 C775 1.363 . S
C774 C780 1.379 . S
C774 N782 1.356 . S
C775 C774 1.363 . S
C775 C781 1.363 . S
C776 C777 1.363 . S
C776 C781 1.379 . S
C776 N783 1.356 . S
C777 C776 1.363 . S
C777 C780 1.363 . S
N778 C780 1.356 . S
N778 H790 0.984 . S
N778 H791 0.985 . S
N779 C781 1.356 . S
N779 H784 0.984 . S
N779 H785 0.985 . S
C780 C774 1.379 . S
C780 C777 1.363 . S
C780 N778 1.356 . S
C781 C775 1.363 . S
C781 C776 1.379 . S
C781 N779 1.356 . S
N782 C774 1.356 . S
N782 H788 0.984 . S
N782 H789 0.984 . S
N783 C776 1.356 . S
N783 H786 0.984 . S
N783 H787 0.985 . S
H784 N779 0.984 . S
H785 N779 0.985 . S
H786 N783 0.984 . S
H787 N783 0.985 . S
H788 N782 0.984 . S
H789 N782 0.984 . S
H790 N778 0.984 . S
H791 N778 0.985 . S
C792 C793 1.363 . S
C792 C798 1.379 . S
C792 N800 1.356 . S
C793 C792 1.363 . S
C793 C799 1.363 . S
C794 C795 1.363 . S
C794 C799 1.379 . S
C794 N801 1.356 . S
C795 C794 1.363 . S
C795 C798 1.363 . S
N796 C798 1.356 . S
N796 H808 0.984 . S
N796 H809 0.985 . S
N797 C799 1.356 . S
N797 H802 0.984 . S
N797 H803 0.985 . S
C798 C792 1.379 . S
C798 C795 1.363 . S
C798 N796 1.356 . S
C799 C793 1.363 . S
C799 C794 1.379 . S
C799 N797 1.356 . S
N800 C792 1.356 . S
N800 H806 0.984 . S
N800 H807 0.984 . S
N801 C794 1.356 . S
N801 H804 0.984 . S
N801 H805 0.985 . S
H802 N797 0.984 . S
H803 N797 0.985 . S
H804 N801 0.984 . S
H805 N801 0.985 . S
H806 N800 0.984 . S
H807 N800 0.984 . S
H808 N796 0.984 . S
H809 N796 0.985 . S
C810 C811 1.363 . S
C810 C816 1.379 . S
C810 N818 1.356 . S
C811 C810 1.363 . S
C811 C817 1.363 . S
C812 C813 1.363 . S
C812 C817 1.379 . S
C812 N819 1.356 . S
C813 C812 1.363 . S
C813 C816 1.363 . S
N814 C816 1.356 . S
N814 H826 0.984 . S
N814 H827 0.985 . S
N815 C817 1.356 . S
N815 H820 0.984 . S
N815 H821 0.985 . S
C816 C810 1.379 . S
C816 C813 1.363 . S
C816 N814 1.356 . S
C817 C811 1.363 . S
C817 C812 1.379 . S
C817 N815 1.356 . S
N818 C810 1.356 . S
N818 H824 0.984 . S
N818 H825 0.984 . S
N819 C812 1.356 . S
N819 H822 0.984 . S
N819 H823 0.985 . S
H820 N815 0.984 . S
H821 N815 0.985 . S
H822 N819 0.984 . S
H823 N819 0.985 . S
H824 N818 0.984 . S
H825 N818 0.984 . S
H826 N814 0.984 . S
H827 N814 0.985 . S
C828 C829 1.363 . S
C828 C834 1.379 . S
C828 N836 1.356 . S
C829 C828 1.363 . S
C829 C835 1.363 . S
C830 C831 1.363 . S
C830 C835 1.379 . S
C830 N837 1.356 . S
C831 C830 1.363 . S
C831 C834 1.363 . S
N832 C834 1.356 . S
N832 H844 0.984 . S
N832 H845 0.985 . S
N833 C835 1.356 . S
N833 H838 0.984 . S
N833 H839 0.985 . S
C834 C828 1.379 . S
C834 C831 1.363 . S
C834 N832 1.356 . S
C835 C829 1.363 . S
C835 C830 1.379 . S
C835 N833 1.356 . S
N836 C828 1.356 . S
N836 H842 0.984 . S
N836 H843 0.984 . S
N837 C830 1.356 . S
N837 H840 0.984 . S
N837 H841 0.985 . S
H838 N833 0.984 . S
H839 N833 0.985 . S
H840 N837 0.984 . S
H841 N837 0.985 . S
H842 N836 0.984 . S
H843 N836 0.984 . S
H844 N832 0.984 . S
H845 N832 0.985 . S
C846 C847 1.363 . S
C846 C852 1.379 . S
C846 N854 1.356 . S
C847 C846 1.363 . S
C847 C853 1.363 . S
C848 C849 1.363 . S
C848 C853 1.379 . S
C848 N855 1.356 . S
C849 C848 1.363 . S
C849 C852 1.363 . S
N850 C852 1.356 . S
N850 H862 0.984 . S
N850 H863 0.985 . S
N851 C853 1.356 . S
N851 H856 0.984 . S
N851 H857 0.985 . S
C852 C846 1.379 . S
C852 C849 1.363 . S
C852 N850 1.356 . S
C853 C847 1.363 . S
C853 C848 1.379 . S
C853 N851 1.356 . S
N854 C846 1.356 . S
N854 H860 0.984 . S
N854 H861 0.984 . S
N855 C848 1.356 . S
N855 H858 0.984 . S
N855 H859 0.985 . S
H856 N851 0.984 . S
H857 N851 0.985 . S
H858 N855 0.984 . S
H859 N855 0.985 . S
H860 N854 0.984 . S
H861 N854 0.984 . S
H862 N850 0.984 . S
H863 N850 0.985 . S
C864 C865 1.363 . S
C864 C870 1.379 . S
C864 N872 1.356 . S
C865 C864 1.363 . S
C865 C871 1.363 . S
C866 C867 1.363 . S
C866 C871 1.379 . S
C866 N873 1.356 . S
C867 C866 1.363 . S
C867 C870 1.363 . S
N868 C870 1.356 . S
N868 H880 0.984 . S
N868 H881 0.985 . S
N869 C871 1.356 . S
N869 H874 0.984 . S
N869 H875 0.985 . S
C870 C864 1.379 . S
C870 C867 1.363 . S
C870 N868 1.356 . S
C871 C865 1.363 . S
C871 C866 1.379 . S
C871 N869 1.356 . S
N872 C864 1.356 . S
N872 H878 0.984 . S
N872 H879 0.984 . S
N873 C866 1.356 . S
N873 H876 0.984 . S
N873 H877 0.985 . S
H874 N869 0.984 . S
H875 N869 0.985 . S
H876 N873 0.984 . S
H877 N873 0.985 . S
H878 N872 0.984 . S
H879 N872 0.984 . S
H880 N868 0.984 . S
H881 N868 0.985 . S
C882 C883 1.363 . S
C882 C888 1.379 . S
C882 N890 1.356 . S
C883 C882 1.363 . S
C883 C889 1.363 . S
C884 C885 1.363 . S
C884 C889 1.379 . S
C884 N891 1.356 . S
C885 C884 1.363 . S
C885 C888 1.363 . S
N886 C888 1.356 . S
N886 H898 0.984 . S
N886 H899 0.985 . S
N887 C889 1.356 . S
N887 H892 0.984 . S
N887 H893 0.985 . S
C888 C882 1.379 . S
C888 C885 1.363 . S
C888 N886 1.356 . S
C889 C883 1.363 . S
C889 C884 1.379 . S
C889 N887 1.356 . S
N890 C882 1.356 . S
N890 H896 0.984 . S
N890 H897 0.984 . S
N891 C884 1.356 . S
N891 H894 0.984 . S
N891 H895 0.985 . S
H892 N887 0.984 . S
H893 N887 0.985 . S
H894 N891 0.984 . S
H895 N891 0.985 . S
H896 N890 0.984 . S
H897 N890 0.984 . S
H898 N886 0.984 . S
H899 N886 0.985 . S
C900 C901 1.363 . S
C900 C906 1.379 . S
C900 N908 1.356 . S
C901 C900 1.363 . S
C901 C907 1.363 . S
C902 C903 1.363 . S
C902 C907 1.379 . S
C902 N909 1.356 . S
C903 C902 1.363 . S
C903 C906 1.363 . S
N904 C906 1.356 . S
N904 H916 0.984 . S
N904 H917 0.985 . S
N905 C907 1.356 . S
N905 H910 0.984 . S
N905 H911 0.985 . S
C906 C900 1.379 . S
C906 C903 1.363 . S
C906 N904 1.356 . S
C907 C901 1.363 . S
C907 C902 1.379 . S
C907 N905 1.356 . S
N908 C900 1.356 . S
N908 H914 0.984 . S
N908 H915 0.984 . S
N909 C902 1.356 . S
N909 H912 0.984 . S
N909 H913 0.985 . S
H910 N905 0.984 . S
H911 N905 0.985 . S
H912 N909 0.984 . S
H913 N909 0.985 . S
H914 N908 0.984 . S
H915 N908 0.984 . S
H916 N904 0.984 . S
H917 N904 0.985 . S
C918 C919 1.363 . S
C918 C924 1.379 . S
C918 N926 1.356 . S
C919 C918 1.363 . S
C919 C925 1.363 . S
C920 C921 1.363 . S
C920 C925 1.379 1_455 S
C920 N927 1.356 . S
C921 C920 1.363 . S
C921 C924 1.363 1_455 S
N922 C924 1.356 . S
N922 H934 0.984 . S
N922 H935 0.985 1_655 S
N923 C925 1.356 . S
N923 H928 0.984 . S
N923 H929 0.985 . S
C924 C918 1.379 . S
C924 C921 1.363 1_655 S
C924 N922 1.356 . S
C925 C919 1.363 . S
C925 C920 1.379 1_655 S
C925 N923 1.356 . S
N926 C918 1.356 . S
N926 H932 0.984 . S
N926 H933 0.984 . S
N927 C920 1.356 . S
N927 H930 0.984 . S
N927 H931 0.985 . S
H928 N923 0.984 . S
H929 N923 0.985 . S
H930 N927 0.984 . S
H931 N927 0.985 . S
H932 N926 0.984 . S
H933 N926 0.984 . S
H934 N922 0.984 . S
H935 N922 0.985 1_455 S
C936 C937 1.363 . S
C936 C942 1.379 . S
C936 N944 1.356 . S
C937 C936 1.363 . S
C937 C943 1.363 . S
C938 C939 1.363 . S
C938 C943 1.379 . S
C938 N945 1.356 . S
C939 C938 1.363 . S
C939 C942 1.363 . S
N940 C942 1.356 . S
N940 H952 0.984 . S
N940 H953 0.985 . S
N941 C943 1.356 . S
N941 H946 0.984 . S
N941 H947 0.985 . S
C942 C936 1.379 . S
C942 C939 1.363 . S
C942 N940 1.356 . S
C943 C937 1.363 . S
C943 C938 1.379 . S
C943 N941 1.356 . S
N944 C936 1.356 . S
N944 H950 0.984 . S
N944 H951 0.984 . S
N945 C938 1.356 . S
N945 H948 0.984 . S
N945 H949 0.985 . S
H946 N941 0.984 . S
H947 N941 0.985 . S
H948 N945 0.984 . S
H949 N945 0.985 . S
H950 N944 0.984 . S
H951 N944 0.984 . S
H952 N940 0.984 . S
H953 N940 0.985 . S
C954 C955 1.329 1_556 S
C954 C960 1.379 . S
C954 N962 1.356 . S
C955 C954 1.329 1_554 S
C955 C961 1.371 . S
C956 C957 1.363 . S
C956 C961 1.379 1_556 S
C956 N963 1.356 . S
C957 C956 1.363 . S
C957 C960 1.363 . S
N958 C960 1.356 . S
N958 H970 0.984 . S
N958 H971 0.985 . S
N959 C961 1.356 . S
N959 H964 0.984 . S
N959 H965 0.985 . S
C960 C954 1.379 . S
C960 C957 1.363 . S
C960 N958 1.356 . S
C961 C955 1.371 . S
C961 C956 1.379 1_554 S
C961 N959 1.356 . S
N962 C954 1.356 . S
N962 H968 0.984 . S
N962 H969 0.984 . S
N963 C956 1.356 . S
N963 H966 0.972 1_655 S
N963 H967 0.980 1_656 S
H964 N959 0.984 . S
H965 N959 0.985 . S
H966 N963 0.972 1_455 S
H967 N963 0.980 1_454 S
H968 N962 0.984 . S
H969 N962 0.984 . S
H970 N958 0.984 . S
H971 N958 0.985 . S
C972 C973 1.363 . S
C972 C978 1.379 . S
C972 N980 1.356 . S
C973 C972 1.363 . S
C973 C979 1.363 . S
C974 C975 1.363 . S
C974 C979 1.379 . S
C974 N981 1.356 . S
C975 C974 1.363 . S
C975 C978 1.363 . S
N976 C978 1.356 . S
N976 H988 0.984 . S
N976 H989 0.985 . S
N977 C979 1.356 . S
N977 H982 0.984 . S
N977 H983 0.985 . S
C978 C972 1.379 . S
C978 C975 1.363 . S
C978 N976 1.356 . S
C979 C973 1.363 . S
C979 C974 1.379 . S
C979 N977 1.356 . S
N980 C972 1.356 . S
N980 H986 0.984 . S
N980 H987 0.984 . S
N981 C974 1.356 . S
N981 H984 0.984 . S
N981 H985 0.985 . S
H982 N977 0.984 . S
H983 N977 0.985 . S
H984 N981 0.984 . S
H985 N981 0.985 . S
H986 N980 0.984 . S
H987 N980 0.984 . S
H988 N976 0.984 . S
H989 N976 0.985 . S
C990 C991 1.363 . S
C990 C996 1.379 1_554 S
C990 N998 1.356 . S
C991 C990 1.363 . S
C991 C997 1.363 . S
C992 C993 1.363 1_554 S
C992 C997 1.379 . S
C992 N999 1.356 1_554 S
C993 C992 1.363 1_556 S
C993 C996 1.363 . S
N994 C996 1.356 . S
N994 H1006 0.984 . S
N994 H1007 0.985 . S
N995 C997 1.356 . S
N995 H1000 0.984 . S
N995 H1001 0.985 . S
C996 C990 1.379 1_556 S
C996 C993 1.363 . S
C996 N994 1.356 . S
C997 C991 1.363 . S
C997 C992 1.379 . S
C997 N995 1.356 . S
N998 C990 1.356 . S
N998 H1004 0.984 . S
N998 H1005 0.984 . S
N999 C992 1.356 1_556 S
N999 H1002 0.984 . S
N999 H1003 0.985 1_556 S
H1000 N995 0.984 . S
H1001 N995 0.985 . S
H1002 N999 0.984 . S
H1003 N999 0.985 1_554 S
H1004 N998 0.984 . S
H1005 N998 0.984 . S
H1006 N994 0.984 . S
H1007 N994 0.985 . S
C1008 C1009 1.363 . S
C1008 C1014 1.379 . S
C1008 N1016 1.356 . S
C1009 C1008 1.363 . S
C1009 C1015 1.363 . S
C1010 C1011 1.363 . S
C1010 C1015 1.379 . S
C1010 N1017 1.356 . S
C1011 C1010 1.363 . S
C1011 C1014 1.363 . S
N1012 C1014 1.356 . S
N1012 H1024 0.984 . S
N1012 H1025 0.985 . S
N1013 C1015 1.356 . S
N1013 H1018 0.984 . S
N1013 H1019 0.985 . S
C1014 C1008 1.379 . S
C1014 C1011 1.363 . S
C1014 N1012 1.356 . S
C1015 C1009 1.363 . S
C1015 C1010 1.379 . S
C1015 N1013 1.356 . S
N1016 C1008 1.356 . S
N1016 H1022 0.984 . S
N1016 H1023 0.984 . S
N1017 C1010 1.356 . S
N1017 H1020 0.984 . S
N1017 H1021 0.985 . S
H1018 N1013 0.984 . S
H1019 N1013 0.985 . S
H1020 N1017 0.984 . S
H1021 N1017 0.985 . S
H1022 N1016 0.984 . S
H1023 N1016 0.984 . S
H1024 N1012 0.984 . S
H1025 N1012 0.985 . S
C1026 C1027 1.363 1_554 S
C1026 C1032 1.379 . S
C1026 N1034 1.356 . S
C1027 C1026 1.363 1_556 S
C1027 C1033 1.363 . S
C1028 C1029 1.363 . S
C1028 C1033 1.379 1_554 S
C1028 N1035 1.356 . S
C1029 C1028 1.363 . S
C1029 C1032 1.363 . S
N1030 C1032 1.356 . S
N1030 H1042 0.984 . S
N1030 H1043 0.985 . S
N1031 C1033 1.356 . S
N1031 H1036 0.984 . S
N1031 H1037 0.985 . S
C1032 C1026 1.379 . S
C1032 C1029 1.363 . S
C1032 N1030 1.356 . S
C1033 C1027 1.363 . S
C1033 C1028 1.379 1_556 S
C1033 N1031 1.356 . S
N1034 C1026 1.356 . S
N1034 H1040 0.984 . S
N1034 H1041 0.984 1_554 S
N1035 C1028 1.356 . S
N1035 H1038 0.984 . S
N1035 H1039 0.985 . S
H1036 N1031 0.984 . S
H1037 N1031 0.985 . S
H1038 N1035 0.984 . S
H1039 N1035 0.985 . S
H1040 N1034 0.984 . S
H1041 N1034 0.984 1_556 S
H1042 N1030 0.984 . S
H1043 N1030 0.985 . S
C1044 C1045 1.363 . S
C1044 C1050 1.379 . S
C1044 N1052 1.356 . S
C1045 C1044 1.363 . S
C1045 C1051 1.363 . S
C1046 C1047 1.363 . S
C1046 C1051 1.379 . S
C1046 N1053 1.356 . S
C1047 C1046 1.363 . S
C1047 C1050 1.363 . S
N1048 C1050 1.356 . S
N1048 H1060 0.984 . S
N1048 H1061 0.985 . S
N1049 C1051 1.356 . S
N1049 H1054 0.984 . S
N1049 H1055 0.985 . S
C1050 C1044 1.379 . S
C1050 C1047 1.363 . S
C1050 N1048 1.356 . S
C1051 C1045 1.363 . S
C1051 C1046 1.379 . S
C1051 N1049 1.356 . S
N1052 C1044 1.356 . S
N1052 H1058 0.984 . S
N1052 H1059 0.984 . S
N1053 C1046 1.356 . S
N1053 H1056 0.984 . S
N1053 H1057 0.985 . S
H1054 N1049 0.984 . S
H1055 N1049 0.985 . S
H1056 N1053 0.984 . S
H1057 N1053 0.985 . S
H1058 N1052 0.984 . S
H1059 N1052 0.984 . S
H1060 N1048 0.984 . S
H1061 N1048 0.985 . S
C1062 C1063 1.363 . S
C1062 C1068 1.379 . S
C1062 N1070 1.356 1_554 S
C1063 C1062 1.363 . S
C1063 C1069 1.363 . S
C1064 C1065 1.363 . S
C1064 C1069 1.379 . S
C1064 N1071 1.356 . S
C1065 C1064 1.363 . S
C1065 C1068 1.363 . S
N1066 C1068 1.356 . S
N1066 H1078 0.984 . S
N1066 H1079 0.985 . S
N1067 C1069 1.356 1_556 S
N1067 H1072 0.985 . S
N1067 H1073 0.984 1_556 S
C1068 C1062 1.379 . S
C1068 C1065 1.363 . S
C1068 N1066 1.356 . S
C1069 C1063 1.363 . S
C1069 C1064 1.379 . S
C1069 N1067 1.356 1_554 S
N1070 C1062 1.356 1_556 S
N1070 H1076 0.984 1_556 S
N1070 H1077 0.984 . S
N1071 C1064 1.356 . S
N1071 H1074 0.984 . S
N1071 H1075 0.985 . S
H1072 N1067 0.985 . S
H1073 N1067 0.984 1_554 S
H1074 N1071 0.984 . S
H1075 N1071 0.985 . S
H1076 N1070 0.984 1_554 S
H1077 N1070 0.984 . S
H1078 N1066 0.984 . S
H1079 N1066 0.985 . S
C1080 C1081 1.363 . S
C1080 C1086 1.379 . S
C1080 N1088 1.356 . S
C1081 C1080 1.363 . S
C1081 C1087 1.363 . S
C1082 C1083 1.363 . S
C1082 C1087 1.379 . S
C1082 N1089 1.356 . S
C1083 C1082 1.363 . S
C1083 C1086 1.363 . S
N1084 C1086 1.356 . S
N1084 H1096 0.984 . S
N1084 H1097 0.985 . S
N1085 C1087 1.356 . S
N1085 H1090 0.984 . S
N1085 H1091 0.985 . S
C1086 C1080 1.379 . S
C1086 C1083 1.363 . S
C1086 N1084 1.356 . S
C1087 C1081 1.363 . S
C1087 C1082 1.379 . S
C1087 N1085 1.356 . S
N1088 C1080 1.356 . S
N1088 H1094 0.984 . S
N1088 H1095 0.984 . S
N1089 C1082 1.356 . S
N1089 H1092 0.984 . S
N1089 H1093 0.985 . S
H1090 N1085 0.984 . S
H1091 N1085 0.985 . S
H1092 N1089 0.984 . S
H1093 N1089 0.985 . S
H1094 N1088 0.984 . S
H1095 N1088 0.984 . S
H1096 N1084 0.984 . S
H1097 N1084 0.985 . S
C1098 C1099 1.363 . S
C1098 C1104 1.379 . S
C1098 N1106 1.356 . S
C1099 C1098 1.363 . S
C1099 C1105 1.363 . S
C1100 C1101 1.363 . S
C1100 C1105 1.379 . S
C1100 N1107 1.356 . S
C1101 C1100 1.363 . S
C1101 C1104 1.363 . S
N1102 C1104 1.356 . S
N1102 H1114 0.984 . S
N1102 H1115 0.985 . S
N1103 C1105 1.356 . S
N1103 H1108 0.984 . S
N1103 H1109 0.985 . S
C1104 C1098 1.379 . S
C1104 C1101 1.363 . S
C1104 N1102 1.356 . S
C1105 C1099 1.363 . S
C1105 C1100 1.379 . S
C1105 N1103 1.356 . S
N1106 C1098 1.356 . S
N1106 H1112 0.984 . S
N1106 H1113 0.984 . S
N1107 C1100 1.356 . S
N1107 H1110 0.984 . S
N1107 H1111 0.985 . S
H1108 N1103 0.984 . S
H1109 N1103 0.985 . S
H1110 N1107 0.984 . S
H1111 N1107 0.985 . S
H1112 N1106 0.984 . S
H1113 N1106 0.984 . S
H1114 N1102 0.984 . S
H1115 N1102 0.985 . S
C1116 C1117 1.363 . S
C1116 C1122 1.379 . S
C1116 N1124 1.356 . S
C1117 C1116 1.363 . S
C1117 C1123 1.363 . S
C1118 C1119 1.363 . S
C1118 C1123 1.379 . S
C1118 N1125 1.356 . S
C1119 C1118 1.363 . S
C1119 C1122 1.363 . S
N1120 C1122 1.356 . S
N1120 H1132 0.984 . S
N1120 H1133 0.985 . S
N1121 C1123 1.356 . S
N1121 H1126 0.984 . S
N1121 H1127 0.985 . S
C1122 C1116 1.379 . S
C1122 C1119 1.363 . S
C1122 N1120 1.356 . S
C1123 C1117 1.363 . S
C1123 C1118 1.379 . S
C1123 N1121 1.356 . S
N1124 C1116 1.356 . S
N1124 H1130 0.984 . S
N1124 H1131 0.984 . S
N1125 C1118 1.356 . S
N1125 H1128 0.984 . S
N1125 H1129 0.985 . S
H1126 N1121 0.984 . S
H1127 N1121 0.985 . S
H1128 N1125 0.984 . S
H1129 N1125 0.985 . S
H1130 N1124 0.984 . S
H1131 N1124 0.984 . S
H1132 N1120 0.984 . S
H1133 N1120 0.985 . S
C1134 C1135 1.363 . S
C1134 C1140 1.379 . S
C1134 N1142 1.356 . S
C1135 C1134 1.363 . S
C1135 C1141 1.363 . S
C1136 C1137 1.363 . S
C1136 C1141 1.379 . S
C1136 N1143 1.356 . S
C1137 C1136 1.363 . S
C1137 C1140 1.363 . S
N1138 C1140 1.356 . S
N1138 H1150 0.984 . S
N1138 H1151 0.985 . S
N1139 C1141 1.356 . S
N1139 H1144 0.984 . S
N1139 H1145 0.985 . S
C1140 C1134 1.379 . S
C1140 C1137 1.363 . S
C1140 N1138 1.356 . S
C1141 C1135 1.363 . S
C1141 C1136 1.379 . S
C1141 N1139 1.356 . S
N1142 C1134 1.356 . S
N1142 H1148 0.984 . S
N1142 H1149 0.984 . S
N1143 C1136 1.356 . S
N1143 H1146 0.984 . S
N1143 H1147 0.985 . S
H1144 N1139 0.984 . S
H1145 N1139 0.985 . S
H1146 N1143 0.984 . S
H1147 N1143 0.985 . S
H1148 N1142 0.984 . S
H1149 N1142 0.984 . S
H1150 N1138 0.984 . S
H1151 N1138 0.985 . S
C1152 C1153 1.363 . S
C1152 C1158 1.379 . S
C1152 N1160 1.356 . S
C1153 C1152 1.363 . S
C1153 C1159 1.363 . S
C1154 C1155 1.363 . S
C1154 C1159 1.379 . S
C1154 N1161 1.356 . S
C1155 C1154 1.363 . S
C1155 C1158 1.363 . S
N1156 C1158 1.356 . S
N1156 H1168 0.984 . S
N1156 H1169 0.985 . S
N1157 C1159 1.356 . S
N1157 H1162 0.984 . S
N1157 H1163 0.985 . S
C1158 C1152 1.379 . S
C1158 C1155 1.363 . S
C1158 N1156 1.356 . S
C1159 C1153 1.363 . S
C1159 C1154 1.379 . S
C1159 N1157 1.356 . S
N1160 C1152 1.356 . S
N1160 H1166 0.984 . S
N1160 H1167 0.984 . S
N1161 C1154 1.356 . S
N1161 H1164 0.984 . S
N1161 H1165 0.985 . S
H1162 N1157 0.984 . S
H1163 N1157 0.985 . S
H1164 N1161 0.984 . S
H1165 N1161 0.985 . S
H1166 N1160 0.984 . S
H1167 N1160 0.984 . S
H1168 N1156 0.984 . S
H1169 N1156 0.985 . S
C1170 C1171 1.363 . S
C1170 C1176 1.379 . S
C1170 N1178 1.356 . S
C1171 C1170 1.363 . S
C1171 C1177 1.363 . S
C1172 C1173 1.363 . S
C1172 C1177 1.379 . S
C1172 N1179 1.356 . S
C1173 C1172 1.363 . S
C1173 C1176 1.363 . S
N1174 C1176 1.356 . S
N1174 H1186 0.984 . S
N1174 H1187 0.985 . S
N1175 C1177 1.356 . S
N1175 H1180 0.984 . S
N1175 H1181 0.985 . S
C1176 C1170 1.379 . S
C1176 C1173 1.363 . S
C1176 N1174 1.356 . S
C1177 C1171 1.363 . S
C1177 C1172 1.379 . S
C1177 N1175 1.356 . S
N1178 C1170 1.356 . S
N1178 H1184 0.984 . S
N1178 H1185 0.984 . S
N1179 C1172 1.356 . S
N1179 H1182 0.984 . S
N1179 H1183 0.985 . S
H1180 N1175 0.984 . S
H1181 N1175 0.985 . S
H1182 N1179 0.984 . S
H1183 N1179 0.985 . S
H1184 N1178 0.984 . S
H1185 N1178 0.984 . S
H1186 N1174 0.984 . S
H1187 N1174 0.985 . S
C1188 C1189 1.363 . S
C1188 C1194 1.379 . S
C1188 N1196 1.356 . S
C1189 C1188 1.363 . S
C1189 C1195 1.363 . S
C1190 C1191 1.363 . S
C1190 C1195 1.379 . S
C1190 N1197 1.356 . S
C1191 C1190 1.363 . S
C1191 C1194 1.363 . S
N1192 C1194 1.356 . S
N1192 H1204 0.984 . S
N1192 H1205 0.985 . S
N1193 C1195 1.356 . S
N1193 H1198 0.984 . S
N1193 H1199 0.985 . S
C1194 C1188 1.379 . S
C1194 C1191 1.363 . S
C1194 N1192 1.356 . S
C1195 C1189 1.363 . S
C1195 C1190 1.379 . S
C1195 N1193 1.356 . S
N1196 C1188 1.356 . S
N1196 H1202 0.984 . S
N1196 H1203 0.984 . S
N1197 C1190 1.356 . S
N1197 H1200 0.984 . S
N1197 H1201 0.985 . S
H1198 N1193 0.984 . S
H1199 N1193 0.985 . S
H1200 N1197 0.984 . S
H1201 N1197 0.985 . S
H1202 N1196 0.984 . S
H1203 N1196 0.984 . S
H1204 N1192 0.984 . S
H1205 N1192 0.985 . S
C1206 C1207 1.363 . S
C1206 C1212 1.379 . S
C1206 N1214 1.356 . S
C1207 C1206 1.363 . S
C1207 C1213 1.363 . S
C1208 C1209 1.363 . S
C1208 C1213 1.379 . S
C1208 N1215 1.356 . S
C1209 C1208 1.363 . S
C1209 C1212 1.363 . S
N1210 C1212 1.356 . S
N1210 H1222 0.984 . S
N1210 H1223 1.007 . S
N1211 C1213 1.356 . S
N1211 H1216 0.984 . S
N1211 H1217 0.985 . S
C1212 C1206 1.379 . S
C1212 C1209 1.363 . S
C1212 N1210 1.356 . S
C1213 C1207 1.363 . S
C1213 C1208 1.379 . S
C1213 N1211 1.356 . S
N1214 C1206 1.356 . S
N1214 H1220 0.984 . S
N1214 H1221 0.984 . S
N1215 C1208 1.356 . S
N1215 H1218 0.984 . S
N1215 H1219 0.985 . S
H1216 N1211 0.984 . S
H1217 N1211 0.985 . S
H1218 N1215 0.984 . S
H1219 N1215 0.985 . S
H1220 N1214 0.984 . S
H1221 N1214 0.984 . S
H1222 N1210 0.984 . S
H1223 N1210 1.007 . S
C363 C200 1.759 1_556 S
C361 C66 1.772 . S
C381 C215 1.491 . S
C379 C76 1.510 . S
C397 C93 1.973 . S
C399 C228 1.954 . S
C417 C242 1.461 1_455 S
C415 C54 1.463 . S
C435 C254 1.617 . S
C433 C126 1.733 . S
C453 C268 1.565 . S
C451 C150 1.592 . S
C469 C136 1.415 . S
C471 C282 1.424 . S
C489 C297 1.644 . S
C487 C117 1.728 . S
C505 C141 1.418 . S
C507 C313 1.396 . S
C525 C326 1.419 . S
C523 C112 1.405 . S
C541 C124 1.634 . S
C543 C311 1.548 . S
C561 C324 1.487 . S
C559 C148 1.443 . S
C577 C88 1.613 . S
C579 C340 1.600 . S
C595 C52 1.580 . S
C597 C339 1.582 . S
C613 C64 1.473 . S
C615 C338 1.421 . S
C631 C78 1.413 . S
C633 C341 1.385 . S
C649 C45 1.898 . S
C651 C243 1.879 1_565 S
C667 C177 1.720 . S
C669 C241 1.674 . S
C687 C201 1.387 1_545 S
C685 C189 1.434 . S
C705 C212 1.760 . S
C703 C102 1.803 . S
C721 C57 1.651 . S
C723 C257 1.635 . S
C741 C298 1.816 . S
C739 C138 1.819 . S
C759 C255 1.823 . S
C757 C114 1.844 1_545 S
C777 C283 1.591 . S
C775 C153 1.588 . S
C795 C284 1.759 . S
C793 C174 1.772 . S
C811 C184 1.510 . S
C813 C299 1.491 . S
C829 C105 1.973 . S
C831 C256 1.954 . S
C849 C270 1.461 . S
C847 C162 1.464 . S
C865 C42 1.733 . S
C867 C226 1.617 . S
C885 C240 1.565 . S
C883 C6 1.592 . S
C903 C198 1.424 . S
C901 C16 1.415 . S
C921 C213 1.644 . S
C919 C33 1.728 . S
C937 C21 1.418 . S
C939 C327 1.396 . S
C955 C28 1.431 . S
C957 C312 1.419 . S
C973 C40 1.634 . S
C975 C325 1.548 . S
C991 C4 1.443 . S
C993 C310 1.487 . S
C1011 C354 1.600 . S
C1009 C100 1.613 . S
C1029 C353 1.582 . S
C1027 C160 1.580 . S
C1047 C352 1.421 . S
C1045 C172 1.473 . S
C1063 C186 1.413 1_554 S
C1065 C355 1.385 . S
C1081 C129 1.898 . S
C1083 C271 1.879 . S
C1101 C269 1.674 . S
C1099 C69 1.720 . S
C1119 C285 1.387 . S
C1117 C81 1.434 . S
C1137 C296 1.760 . S
C1135 C90 1.803 . S
C1153 C165 1.651 . S
C1155 C229 1.635 . S
C1173 C214 1.816 . S
C1171 C18 1.819 . S
C1189 C30 1.844 . S
C1191 C227 1.823 . S
C1209 C199 1.591 . S
C1207 C9 1.588 . S
