# Generated by pormake.
# Topology ptr, (4,4)-cn, num edge types: 1
# Building blocks:
#     Node 0, Type 0, BuildingBlock: TATPOV_clean_sbu_0, # of connection points: 4
#     Node 1, Type 0, BuildingBlock: TATPOV_clean_sbu_0, # of connection points: 4
#     Node 2, Type 0, BuildingBlock: TATPOV_clean_sbu_0, # of connection points: 4
#     Node 3, Type 0, BuildingBlock: TATPOV_clean_sbu_0, # of connection points: 4
#     Node 4, Type 0, BuildingBlock: TATPOV_clean_sbu_0, # of connection points: 4
#     Node 5, Type 0, BuildingBlock: TATPOV_clean_sbu_0, # of connection points: 4
#     Node 6, Type 0, BuildingBlock: TATPOV_clean_sbu_0, # of connection points: 4
#     Node 7, Type 0, BuildingBlock: TATPOV_clean_sbu_0, # of connection points: 4
#     Node 8, Type 0, BuildingBlock: TATPOV_clean_sbu_0, # of connection points: 4
#     Node 9, Type 0, BuildingBlock: TATPOV_clean_sbu_0, # of connection points: 4
#     Node 10, Type 0, BuildingBlock: TATPOV_clean_sbu_0, # of connection points: 4
#     Node 11, Type 0, BuildingBlock: TATPOV_clean_sbu_0, # of connection points: 4
#     Node 12, Type 0, BuildingBlock: TATPOV_clean_sbu_0, # of connection points: 4
#     Node 13, Type 0, BuildingBlock: TATPOV_clean_sbu_0, # of connection points: 4
#     Node 14, Type 0, BuildingBlock: TATPOV_clean_sbu_0, # of connection points: 4
#     Node 15, Type 0, BuildingBlock: TATPOV_clean_sbu_0, # of connection points: 4
#     Node 16, Type 0, BuildingBlock: TATPOV_clean_sbu_0, # of connection points: 4
#     Node 17, Type 0, BuildingBlock: TATPOV_clean_sbu_0, # of connection points: 4
#     Node 18, Type 1, BuildingBlock: NAHDIM_clean_linker_0, # of connection points: 4
#     Node 19, Type 1, BuildingBlock: NAHDIM_clean_linker_0, # of connection points: 4
#     Node 20, Type 1, BuildingBlock: NAHDIM_clean_linker_0, # of connection points: 4
#     Node 21, Type 1, BuildingBlock: NAHDIM_clean_linker_0, # of connection points: 4
#     Node 22, Type 1, BuildingBlock: NAHDIM_clean_linker_0, # of connection points: 4
#     Node 23, Type 1, BuildingBlock: NAHDIM_clean_linker_0, # of connection points: 4
#     Node 24, Type 1, BuildingBlock: NAHDIM_clean_linker_0, # of connection points: 4
#     Node 25, Type 1, BuildingBlock: NAHDIM_clean_linker_0, # of connection points: 4
#     Node 26, Type 1, BuildingBlock: NAHDIM_clean_linker_0, # of connection points: 4
#     Node 27, Type 1, BuildingBlock: NAHDIM_clean_linker_0, # of connection points: 4
#     Node 28, Type 1, BuildingBlock: NAHDIM_clean_linker_0, # of connection points: 4
#     Node 29, Type 1, BuildingBlock: NAHDIM_clean_linker_0, # of connection points: 4
#     Node 30, Type 1, BuildingBlock: NAHDIM_clean_linker_0, # of connection points: 4
#     Node 31, Type 1, BuildingBlock: NAHDIM_clean_linker_0, # of connection points: 4
#     Node 32, Type 1, BuildingBlock: NAHDIM_clean_linker_0, # of connection points: 4
#     Node 33, Type 1, BuildingBlock: NAHDIM_clean_linker_0, # of connection points: 4
#     Node 34, Type 1, BuildingBlock: NAHDIM_clean_linker_0, # of connection points: 4
#     Node 35, Type 1, BuildingBlock: NAHDIM_clean_linker_0, # of connection points: 4
#     Edge 36, Type (0, 1), BuildingBlock: ZUJKAS_clean_linker_0, # of connection points: 2
#     Edge 37, Type (0, 1), BuildingBlock: ZUJKAS_clean_linker_0, # of connection points: 2
#     Edge 38, Type (0, 1), BuildingBlock: ZUJKAS_clean_linker_0, # of connection points: 2
#     Edge 39, Type (0, 1), BuildingBlock: ZUJKAS_clean_linker_0, # of connection points: 2
#     Edge 40, Type (0, 1), BuildingBlock: ZUJKAS_clean_linker_0, # of connection points: 2
#     Edge 41, Type (0, 1), BuildingBlock: ZUJKAS_clean_linker_0, # of connection points: 2
#     Edge 42, Type (0, 1), BuildingBlock: ZUJKAS_clean_linker_0, # of connection points: 2
#     Edge 43, Type (0, 1), BuildingBlock: ZUJKAS_clean_linker_0, # of connection points: 2
#     Edge 44, Type (0, 1), BuildingBlock: ZUJKAS_clean_linker_0, # of connection points: 2
#     Edge 45, Type (0, 1), BuildingBlock: ZUJKAS_clean_linker_0, # of connection points: 2
#     Edge 46, Type (0, 1), BuildingBlock: ZUJKAS_clean_linker_0, # of connection points: 2
#     Edge 47, Type (0, 1), BuildingBlock: ZUJKAS_clean_linker_0, # of connection points: 2
#     Edge 48, Type (0, 1), BuildingBlock: ZUJKAS_clean_linker_0, # of connection points: 2
#     Edge 49, Type (0, 1), BuildingBlock: ZUJKAS_clean_linker_0, # of connection points: 2
#     Edge 50, Type (0, 1), BuildingBlock: ZUJKAS_clean_linker_0, # of connection points: 2
#     Edge 51, Type (0, 1), BuildingBlock: ZUJKAS_clean_linker_0, # of connection points: 2
#     Edge 52, Type (0, 1), BuildingBlock: ZUJKAS_clean_linker_0, # of connection points: 2
#     Edge 53, Type (0, 1), BuildingBlock: ZUJKAS_clean_linker_0, # of connection points: 2
#     Edge 54, Type (0, 1), BuildingBlock: ZUJKAS_clean_linker_0, # of connection points: 2
#     Edge 55, Type (0, 1), BuildingBlock: ZUJKAS_clean_linker_0, # of connection points: 2
#     Edge 56, Type (0, 1), BuildingBlock: ZUJKAS_clean_linker_0, # of connection points: 2
#     Edge 57, Type (0, 1), BuildingBlock: ZUJKAS_clean_linker_0, # of connection points: 2
#     Edge 58, Type (0, 1), BuildingBlock: ZUJKAS_clean_linker_0, # of connection points: 2
#     Edge 59, Type (0, 1), BuildingBlock: ZUJKAS_clean_linker_0, # of connection points: 2
#     Edge 60, Type (0, 1), BuildingBlock: ZUJKAS_clean_linker_0, # of connection points: 2
#     Edge 61, Type (0, 1), BuildingBlock: ZUJKAS_clean_linker_0, # of connection points: 2
#     Edge 62, Type (0, 1), BuildingBlock: ZUJKAS_clean_linker_0, # of connection points: 2
#     Edge 63, Type (0, 1), BuildingBlock: ZUJKAS_clean_linker_0, # of connection points: 2
#     Edge 64, Type (0, 1), BuildingBlock: ZUJKAS_clean_linker_0, # of connection points: 2
#     Edge 65, Type (0, 1), BuildingBlock: ZUJKAS_clean_linker_0, # of connection points: 2
#     Edge 66, Type (0, 1), BuildingBlock: ZUJKAS_clean_linker_0, # of connection points: 2
#     Edge 67, Type (0, 1), BuildingBlock: ZUJKAS_clean_linker_0, # of connection points: 2
#     Edge 68, Type (0, 1), BuildingBlock: ZUJKAS_clean_linker_0, # of connection points: 2
#     Edge 69, Type (0, 1), BuildingBlock: ZUJKAS_clean_linker_0, # of connection points: 2
#     Edge 70, Type (0, 1), BuildingBlock: ZUJKAS_clean_linker_0, # of connection points: 2
#     Edge 71, Type (0, 1), BuildingBlock: ZUJKAS_clean_linker_0, # of connection points: 2
#     Edge 72, Type (0, 1), BuildingBlock: ZUJKAS_clean_linker_0, # of connection points: 2
#     Edge 73, Type (0, 1), BuildingBlock: ZUJKAS_clean_linker_0, # of connection points: 2
#     Edge 74, Type (0, 1), BuildingBlock: ZUJKAS_clean_linker_0, # of connection points: 2
#     Edge 75, Type (0, 1), BuildingBlock: ZUJKAS_clean_linker_0, # of connection points: 2
#     Edge 76, Type (0, 1), BuildingBlock: ZUJKAS_clean_linker_0, # of connection points: 2
#     Edge 77, Type (0, 1), BuildingBlock: ZUJKAS_clean_linker_0, # of connection points: 2
#     Edge 78, Type (0, 1), BuildingBlock: ZUJKAS_clean_linker_0, # of connection points: 2
#     Edge 79, Type (0, 1), BuildingBlock: ZUJKAS_clean_linker_0, # of connection points: 2
#     Edge 80, Type (0, 1), BuildingBlock: ZUJKAS_clean_linker_0, # of connection points: 2
#     Edge 81, Type (0, 1), BuildingBlock: ZUJKAS_clean_linker_0, # of connection points: 2
#     Edge 82, Type (0, 1), BuildingBlock: ZUJKAS_clean_linker_0, # of connection points: 2
#     Edge 83, Type (0, 1), BuildingBlock: ZUJKAS_clean_linker_0, # of connection points: 2
#     Edge 84, Type (0, 1), BuildingBlock: ZUJKAS_clean_linker_0, # of connection points: 2
#     Edge 85, Type (0, 1), BuildingBlock: ZUJKAS_clean_linker_0, # of connection points: 2
#     Edge 86, Type (0, 1), BuildingBlock: ZUJKAS_clean_linker_0, # of connection points: 2
#     Edge 87, Type (0, 1), BuildingBlock: ZUJKAS_clean_linker_0, # of connection points: 2
#     Edge 88, Type (0, 1), BuildingBlock: ZUJKAS_clean_linker_0, # of connection points: 2
#     Edge 89, Type (0, 1), BuildingBlock: ZUJKAS_clean_linker_0, # of connection points: 2
#     Edge 90, Type (0, 1), BuildingBlock: ZUJKAS_clean_linker_0, # of connection points: 2
#     Edge 91, Type (0, 1), BuildingBlock: ZUJKAS_clean_linker_0, # of connection points: 2
#     Edge 92, Type (0, 1), BuildingBlock: ZUJKAS_clean_linker_0, # of connection points: 2
#     Edge 93, Type (0, 1), BuildingBlock: ZUJKAS_clean_linker_0, # of connection points: 2
#     Edge 94, Type (0, 1), BuildingBlock: ZUJKAS_clean_linker_0, # of connection points: 2
#     Edge 95, Type (0, 1), BuildingBlock: ZUJKAS_clean_linker_0, # of connection points: 2
#     Edge 96, Type (0, 1), BuildingBlock: ZUJKAS_clean_linker_0, # of connection points: 2
#     Edge 97, Type (0, 1), BuildingBlock: ZUJKAS_clean_linker_0, # of connection points: 2
#     Edge 98, Type (0, 1), BuildingBlock: ZUJKAS_clean_linker_0, # of connection points: 2
#     Edge 99, Type (0, 1), BuildingBlock: ZUJKAS_clean_linker_0, # of connection points: 2
#     Edge 100, Type (0, 1), BuildingBlock: ZUJKAS_clean_linker_0, # of connection points: 2
#     Edge 101, Type (0, 1), BuildingBlock: ZUJKAS_clean_linker_0, # of connection points: 2
#     Edge 102, Type (0, 1), BuildingBlock: ZUJKAS_clean_linker_0, # of connection points: 2
#     Edge 103, Type (0, 1), BuildingBlock: ZUJKAS_clean_linker_0, # of connection points: 2
#     Edge 104, Type (0, 1), BuildingBlock: ZUJKAS_clean_linker_0, # of connection points: 2
#     Edge 105, Type (0, 1), BuildingBlock: ZUJKAS_clean_linker_0, # of connection points: 2
#     Edge 106, Type (0, 1), BuildingBlock: ZUJKAS_clean_linker_0, # of connection points: 2
#     Edge 107, Type (0, 1), BuildingBlock: ZUJKAS_clean_linker_0, # of connection points: 2
# Relax obj value: 0.076
# Max RMSD: 0.284
# Mean RMSD: 0.115
data_MOF--net-ptr--node1-TATPOV_clean_sbu_0--node2-NAHDIM_clean_linker_0--edge1-ZUJKAS_clean_linker_0
_symmetry_space_group_name_H-M    P1
_symmetry_Int_Tables_number       1
_symmetry_cell_setting            triclinic
loop_
_symmetry_equiv_pos_as_xyz
'x, y, z'
_cell_length_a     113.84648
_cell_length_b     115.19319
_cell_length_c     96.151225
_cell_angle_alpha  90.539944
_cell_angle_beta   90.769051
_cell_angle_gamma 121.67193
loop_
_atom_site_label
_atom_site_type_symbol
_atom_site_fract_x
_atom_site_fract_y
_atom_site_fract_z
_atom_type_partial_charge
Zn0 Zn 0.97294 0.3439 0.01029 0.0
Zn1 Zn 0.9971 0.34533 0.01427 0.0
O2 O 0.98317 0.32559 0.0077 0.0
O3 O 0.96321 0.324 0.00457 0.0
O4 O 0.01368 0.34399 0.01908 0.0
O5 O 0.97323 0.34985 0.03015 0.0
O6 O 0.99365 0.3523 0.03268 0.0
C7 C 0.97042 0.31859 0.00418 0.0
C8 C 0.99544 0.36322 0.9925 0.0
O9 O 0.00263 0.35913 0.99855 0.0
O10 O 0.98298 0.3584 0.9958 0.0
C11 C 0.02367 0.35244 0.02698 0.0
O12 O 0.02407 0.36343 0.03152 0.0
C13 C 0.98393 0.35345 0.03754 0.0
Zn14 Zn 0.6522 0.62604 0.00989 0.0
Zn15 Zn 0.65295 0.64799 0.0208 0.0
O16 O 0.67255 0.65528 0.0136 0.0
O17 O 0.6726 0.63722 0.00608 0.0
O18 O 0.65523 0.66464 0.03061 0.0
O19 O 0.64504 0.61587 0.02781 0.0
O20 O 0.64619 0.63413 0.03666 0.0
C21 C 0.67889 0.64999 0.00826 0.0
C22 C 0.63416 0.63337 0.99572 0.0
O23 O 0.63844 0.64274 0.00507 0.0
O24 O 0.63865 0.62536 0.99555 0.0
C25 C 0.66022 0.67614 0.02484 0.0
O26 O 0.6632 0.67717 0.01158 0.0
C27 C 0.64336 0.62192 0.03794 0.0
Zn28 Zn 0.34932 0.97863 0.01158 0.0
Zn29 Zn 0.34982 0.00196 0.00738 0.0
O30 O 0.32976 0.98735 0.01188 0.0
O31 O 0.32862 0.96779 0.01381 0.0
O32 O 0.34751 0.01771 0.00271 0.0
O33 O 0.35814 0.98046 0.99294 0.0
O34 O 0.35823 0.99938 0.98966 0.0
C35 C 0.32276 0.97457 0.01402 0.0
C36 C 0.36624 0.00077 0.03176 0.0
O37 O 0.36297 0.00787 0.02442 0.0
O38 O 0.36157 0.98837 0.02853 0.0
C39 C 0.35609 0.02836 0.99626 0.0
O40 O 0.36807 0.03012 0.99291 0.0
C41 C 0.36106 0.99061 0.98549 0.0
Zn42 Zn 0.03371 0.66384 0.01936 0.0
Zn43 Zn 0.00838 0.65901 0.01192 0.0
O44 O 0.02019 0.67934 0.0171 0.0
O45 O 0.04103 0.68395 0.02264 0.0
O46 O 0.99107 0.6579 0.00494 0.0
O47 O 0.03489 0.65648 0.00046 0.0
O48 O 0.01418 0.65237 0.99507 0.0
C49 C 0.03258 0.68785 0.02104 0.0
C50 C 0.01081 0.64433 0.03673 0.0
O51 O 0.00314 0.64631 0.02855 0.0
O52 O 0.02375 0.6506 0.03498 0.0
C53 C 0.98487 0.66203 0.01253 0.0
O54 O 0.98904 0.66566 0.02552 0.0
C55 C 0.02477 0.65194 0.99193 0.0
Zn56 Zn 0.34567 0.38115 0.03108 0.0
Zn57 Zn 0.34587 0.3596 0.01937 0.0
O58 O 0.32639 0.35165 0.02683 0.0
O59 O 0.32565 0.36866 0.0364 0.0
O60 O 0.34422 0.34304 0.01005 0.0
O61 O 0.3504 0.39026 0.01228 0.0
O62 O 0.35113 0.37298 0.00337 0.0
C63 C 0.31978 0.35609 0.03324 0.0
C64 C 0.36582 0.37557 0.04344 0.0
O65 O 0.36097 0.36582 0.03449 0.0
O66 O 0.36108 0.38337 0.04398 0.0
C67 C 0.33865 0.33178 0.01638 0.0
O68 O 0.33501 0.33142 0.02936 0.0
C69 C 0.35242 0.38458 0.00202 0.0
Zn70 Zn 0.66571 0.0355 0.00465 0.0
Zn71 Zn 0.66181 0.01049 0.00945 0.0
O72 O 0.68197 0.0225 0.00372 0.0
O73 O 0.68558 0.0428 0.99934 0.0
O74 O 0.66098 0.99329 0.01532 0.0
O75 O 0.66068 0.03685 0.02451 0.0
O76 O 0.65598 0.0159 0.02727 0.0
C77 C 0.68996 0.03473 0.99989 0.0
C78 C 0.64443 0.01291 0.98699 0.0
O79 O 0.64795 0.00545 0.99325 0.0
O80 O 0.65019 0.02549 0.99017 0.0
C81 C 0.6674 0.98864 0.00891 0.0
O82 O 0.67359 0.99436 0.99729 0.0
C83 C 0.65621 0.0264 0.03196 0.0
Zn84 Zn 0.64494 0.69067 0.33048 0.0
Zn85 Zn 0.66495 0.68926 0.34395 0.0
O86 O 0.6523 0.67003 0.33528 0.0
O87 O 0.63528 0.67073 0.32506 0.0
O88 O 0.67883 0.68691 0.35482 0.0
O89 O 0.64048 0.69699 0.3482 0.0
O90 O 0.65642 0.69505 0.35924 0.0
C91 C 0.64099 0.66417 0.32825 0.0
C92 C 0.6723 0.70892 0.31988 0.0
O93 O 0.67624 0.70426 0.32968 0.0
O94 O 0.65958 0.70455 0.31804 0.0
C95 C 0.6864 0.68327 0.34901 0.0
O96 O 0.6857 0.68167 0.33542 0.0
C97 C 0.64703 0.69793 0.35932 0.0
Zn98 Zn 0.30185 0.95642 0.34449 0.0
Zn99 Zn 0.30913 0.98077 0.35556 0.0
O100 O 0.32683 0.98408 0.34621 0.0
O101 O 0.32093 0.96412 0.33704 0.0
O102 O 0.3154 0.99916 0.36445 0.0
O103 O 0.29721 0.94805 0.36334 0.0
O104 O 0.30266 0.96791 0.37242 0.0
C105 C 0.32992 0.9766 0.33928 0.0
C106 C 0.28584 0.96719 0.33352 0.0
O107 O 0.29359 0.97733 0.34159 0.0
O108 O 0.28726 0.957 0.33304 0.0
C109 C 0.32569 0.00416 0.37288 0.0
O110 O 0.33157 0.99714 0.3754 0.0
C111 C 0.29833 0.95529 0.37384 0.0
Zn112 Zn 0.02629 0.31336 0.3576 0.0
Zn113 Zn 0.0275 0.33562 0.34731 0.0
O114 O 0.00755 0.32399 0.35418 0.0
O115 O 0.00621 0.30545 0.36201 0.0
O116 O 0.02794 0.35164 0.33853 0.0
O117 O 0.03174 0.30943 0.33907 0.0
O118 O 0.03282 0.32774 0.33093 0.0
C119 C 0.00062 0.3123 0.35968 0.0
C120 C 0.04644 0.33869 0.37174 0.0
O121 O 0.0422 0.34405 0.36303 0.0
O122 O 0.04125 0.3259 0.37155 0.0
C123 C 0.02458 0.35908 0.34505 0.0
O124 O 0.02093 0.35646 0.35809 0.0
C125 C 0.03413 0.3175 0.32917 0.0
Zn126 Zn 0.7 0.97998 0.36922 0.0
Zn127 Zn 0.67744 0.97854 0.35734 0.0
O128 O 0.68935 0.99818 0.36475 0.0
O129 O 0.70759 0.9998 0.37493 0.0
O130 O 0.66165 0.97897 0.3482 0.0
O131 O 0.70444 0.97531 0.35038 0.0
O132 O 0.68558 0.97327 0.34127 0.0
C133 C 0.70075 0.00519 0.37147 0.0
C134 C 0.67381 0.95962 0.38115 0.0
O135 O 0.66866 0.96414 0.37249 0.0
O136 O 0.68673 0.96452 0.38164 0.0
C137 C 0.65061 0.96848 0.34363 0.0
O138 O 0.64902 0.9564 0.345 0.0
C139 C 0.69633 0.97258 0.34002 0.0
Zn140 Zn 0.02588 0.72419 0.36053 0.0
Zn141 Zn 0.02586 0.70337 0.34717 0.0
O142 O 0.00616 0.69498 0.35437 0.0
O143 O 0.0058 0.7116 0.36539 0.0
O144 O 0.02428 0.68718 0.33705 0.0
O145 O 0.031 0.73447 0.34247 0.0
O146 O 0.03143 0.71766 0.33192 0.0
C147 C 0.99969 0.69924 0.36136 0.0
C148 C 0.0455 0.71785 0.37212 0.0
O149 O 0.04067 0.70865 0.36256 0.0
O150 O 0.04094 0.72575 0.37335 0.0
C151 C 0.03395 0.68485 0.33562 0.0
O152 O 0.04628 0.69359 0.34087 0.0
C153 C 0.03296 0.72944 0.33162 0.0
Zn154 Zn 0.31682 0.36411 0.32871 0.0
Zn155 Zn 0.31649 0.34269 0.34052 0.0
O156 O 0.3359 0.3543 0.3325 0.0
O157 O 0.33635 0.37151 0.32222 0.0
O158 O 0.31783 0.32785 0.34999 0.0
O159 O 0.31317 0.36953 0.34756 0.0
O160 O 0.31192 0.35145 0.35662 0.0
C161 C 0.34226 0.36514 0.32545 0.0
C162 C 0.29586 0.33758 0.31703 0.0
O163 O 0.30092 0.33294 0.32568 0.0
O164 O 0.30072 0.35031 0.31652 0.0
C165 C 0.32158 0.32082 0.34326 0.0
O166 O 0.32376 0.32281 0.32986 0.0
C167 C 0.31111 0.36203 0.35793 0.0
Zn168 Zn 0.31079 0.02658 0.65903 0.0
Zn169 Zn 0.33218 0.02651 0.67166 0.0
O170 O 0.31968 0.00685 0.66392 0.0
O171 O 0.30214 0.00666 0.65375 0.0
O172 O 0.34781 0.02629 0.68175 0.0
O173 O 0.30647 0.03225 0.67725 0.0
O174 O 0.32363 0.03173 0.68743 0.0
C175 C 0.30823 0.0005 0.65715 0.0
C176 C 0.33727 0.046 0.64767 0.0
O177 O 0.34186 0.04136 0.65686 0.0
O178 O 0.32442 0.04121 0.64644 0.0
C179 C 0.35122 0.01763 0.67902 0.0
O180 O 0.34473 0.00863 0.6689 0.0
C181 C 0.31366 0.03374 0.68805 0.0
Zn182 Zn 0.98257 0.28289 0.66544 0.0
Zn183 Zn 0.98242 0.3046 0.67625 0.0
O184 O 0.00236 0.31295 0.66961 0.0
O185 O 0.00264 0.29549 0.66054 0.0
O186 O 0.9822 0.32052 0.68482 0.0
O187 O 0.97718 0.2738 0.68416 0.0
O188 O 0.97665 0.29136 0.69251 0.0
C189 C 0.00878 0.30812 0.66347 0.0
C190 C 0.96295 0.28801 0.65184 0.0
O191 O 0.96782 0.29798 0.66052 0.0
O192 O 0.96748 0.28004 0.65184 0.0
C193 C 0.9887 0.33239 0.67973 0.0
O194 O 0.99587 0.33447 0.66844 0.0
C195 C 0.975 0.27963 0.69415 0.0
Zn196 Zn 0.68987 0.65199 0.69188 0.0
Zn197 Zn 0.68872 0.67288 0.68099 0.0
O198 O 0.66938 0.66006 0.68884 0.0
O199 O 0.66966 0.64228 0.69653 0.0
O200 O 0.68672 0.68766 0.67225 0.0
O201 O 0.69592 0.64876 0.67335 0.0
O202 O 0.69387 0.66514 0.66435 0.0
C203 C 0.66326 0.64838 0.69443 0.0
C204 C 0.70883 0.67821 0.70513 0.0
O205 O 0.70418 0.68278 0.69594 0.0
O206 O 0.70414 0.66552 0.7057 0.0
C207 C 0.67983 0.69204 0.67817 0.0
O208 O 0.67461 0.68734 0.69042 0.0
C209 C 0.69662 0.6558 0.663 0.0
Zn210 Zn 0.36448 0.31565 0.70225 0.0
Zn211 Zn 0.34247 0.31545 0.69056 0.0
O212 O 0.35509 0.33478 0.69869 0.0
O213 O 0.37308 0.33549 0.70835 0.0
O214 O 0.32746 0.31721 0.68135 0.0
O215 O 0.36856 0.3108 0.68327 0.0
O216 O 0.35027 0.31004 0.67431 0.0
C217 C 0.36657 0.34133 0.70537 0.0
C218 C 0.33775 0.29583 0.71392 0.0
O219 O 0.33291 0.30057 0.70514 0.0
O220 O 0.35062 0.30053 0.71463 0.0
C221 C 0.32236 0.32318 0.68782 0.0
O222 O 0.32622 0.32712 0.70082 0.0
C223 C 0.36063 0.30872 0.67292 0.0
Zn224 Zn 0.69404 0.05671 0.68947 0.0
Zn225 Zn 0.68942 0.03291 0.67865 0.0
O226 O 0.67079 0.02795 0.68695 0.0
O227 O 0.67425 0.04722 0.69577 0.0
O228 O 0.68494 0.01496 0.67 0.0
O229 O 0.6991 0.06505 0.67042 0.0
O230 O 0.69567 0.04569 0.66187 0.0
C231 C 0.66632 0.03455 0.69338 0.0
C232 C 0.71128 0.04774 0.70182 0.0
O233 O 0.70474 0.03767 0.69332 0.0
O234 O 0.70865 0.05715 0.7021 0.0
C235 C 0.68364 0.00514 0.67716 0.0
O236 O 0.68578 0.00681 0.69069 0.0
C237 C 0.69908 0.05803 0.66018 0.0
Zn238 Zn 0.97391 0.69427 0.66564 0.0
Zn239 Zn 0.97078 0.67139 0.677 0.0
O240 O 0.99054 0.68148 0.6697 0.0
O241 O 0.99368 0.70048 0.66098 0.0
O242 O 0.96961 0.65519 0.68623 0.0
O243 O 0.96962 0.69951 0.68419 0.0
O244 O 0.96699 0.68078 0.69311 0.0
C245 C 0.99822 0.69279 0.66374 0.0
C246 C 0.95214 0.66891 0.65253 0.0
O247 O 0.95579 0.66331 0.66157 0.0
O248 O 0.95822 0.68181 0.65216 0.0
C249 C 0.97112 0.64661 0.67934 0.0
O250 O 0.9729 0.64806 0.66585 0.0
C251 C 0.96689 0.69175 0.69446 0.0
C252 C 0.1737 0.24853 0.0603 0.0
C253 C 0.17832 0.26158 0.06877 0.0
C254 C 0.17207 0.26451 0.09198 0.0
C255 C 0.1782 0.27872 0.09265 0.0
C256 C 0.17357 0.28477 0.10206 0.0
C257 C 0.16229 0.2764 0.11066 0.0
C258 C 0.15611 0.26203 0.10999 0.0
C259 C 0.16139 0.25633 0.10092 0.0
C260 C 0.18065 0.30012 0.10264 0.0
C261 C 0.1437 0.2526 0.11849 0.0
C262 C 0.09195 0.30947 0.07863 0.0
C263 C 0.09783 0.30162 0.08451 0.0
C264 C 0.11802 0.30515 0.09769 0.0
C265 C 0.11216 0.29135 0.10107 0.0
C266 C 0.11975 0.28704 0.1087 0.0
C267 C 0.1335 0.29669 0.11297 0.0
C268 C 0.13943 0.31057 0.1096 0.0
C269 C 0.13156 0.31463 0.10206 0.0
C270 C 0.11309 0.27216 0.11221 0.0
C271 C 0.15409 0.3211 0.11392 0.0
C272 C 0.11413 0.29642 0.20254 0.0
C273 C 0.10943 0.28417 0.195 0.0
C274 C 0.11867 0.2818 0.1879 0.0
C275 C 0.13289 0.29203 0.18798 0.0
C276 C 0.13771 0.30427 0.1957 0.0
C277 C 0.12826 0.30624 0.20299 0.0
C278 C 0.11317 0.2684 0.18013 0.0
C279 C 0.15278 0.31538 0.19601 0.0
C280 C 0.20085 0.25127 0.20113 0.0
C281 C 0.20038 0.26402 0.2045 0.0
C282 C 0.18023 0.26591 0.19993 0.0
C283 C 0.1661 0.25762 0.19704 0.0
C284 C 0.15887 0.26271 0.19007 0.0
C285 C 0.16595 0.27657 0.18621 0.0
C286 C 0.18017 0.28518 0.18963 0.0
C287 C 0.18719 0.27975 0.19643 0.0
C288 C 0.1437 0.25323 0.18669 0.0
C289 C 0.18793 0.30009 0.18605 0.0
C290 C 0.15633 0.28255 0.11961 0.0
C291 C 0.14858 0.28722 0.11305 0.0
C292 C 0.14175 0.29218 0.12073 0.0
C293 C 0.14239 0.29227 0.13543 0.0
C294 C 0.13519 0.29667 0.14348 0.0
C295 C 0.13541 0.29617 0.15792 0.0
C296 C 0.14288 0.29129 0.16487 0.0
C297 C 0.14252 0.29002 0.1795 0.0
C298 C 0.15043 0.28558 0.18614 0.0
C299 C 0.15846 0.28197 0.17851 0.0
C300 C 0.15855 0.2827 0.16381 0.0
C301 C 0.1661 0.2787 0.15575 0.0
C302 C 0.16565 0.27893 0.14128 0.0
C303 C 0.15754 0.28305 0.13431 0.0
C304 C 0.1503 0.28766 0.14223 0.0
C305 C 0.15069 0.28735 0.15699 0.0
C306 C 0.08629 0.2951 0.19503 0.0
C307 C 0.09119 0.29202 0.20864 0.0
O308 O 0.17615 0.25843 0.08274 0.0
O309 O 0.18674 0.26022 0.2062 0.0
O310 O 0.10551 0.29925 0.20942 0.0
O311 O 0.111 0.30971 0.09029 0.0
H312 H 0.17169 0.26552 0.06524 0.0
H313 H 0.16257 0.24107 0.06196 0.0
H314 H 0.17966 0.24382 0.06352 0.0
H315 H 0.17517 0.25078 0.04902 0.0
H316 H 0.18667 0.28509 0.0859 0.0
H317 H 0.15679 0.24537 0.10033 0.0
H318 H 0.17397 0.30318 0.09739 0.0
H319 H 0.19075 0.30518 0.09738 0.0
H320 H 0.18233 0.30388 0.1136 0.0
H321 H 0.13846 0.24187 0.1146 0.0
H322 H 0.1361 0.25587 0.1184 0.0
H323 H 0.14703 0.25287 0.12944 0.0
H324 H 0.09683 0.29329 0.0776 0.0
H325 H 0.09076 0.30709 0.06713 0.0
H326 H 0.10085 0.32029 0.07754 0.0
H327 H 0.07509 0.30422 0.09133 0.0
H328 H 0.10167 0.28387 0.09782 0.0
H329 H 0.13601 0.32525 0.09945 0.0
H330 H 0.11366 0.2711 0.12363 0.0
H331 H 0.11879 0.2679 0.10721 0.0
H332 H 0.1021 0.26603 0.1087 0.0
H333 H 0.1573 0.33145 0.11024 0.0
H334 H 0.16122 0.31816 0.1097 0.0
H335 H 0.15516 0.32148 0.12544 0.0
H336 H 0.08708 0.2809 0.20912 0.0
H337 H 0.09858 0.27638 0.1945 0.0
H338 H 0.13183 0.31563 0.20887 0.0
H339 H 0.11327 0.27009 0.16878 0.0
H340 H 0.10243 0.26071 0.18302 0.0
H341 H 0.11982 0.26418 0.18223 0.0
H342 H 0.15478 0.3246 0.20193 0.0
H343 H 0.15644 0.31833 0.18523 0.0
H344 H 0.15894 0.3115 0.20087 0.0
H345 H 0.20484 0.27081 0.19541 0.0
H346 H 0.21169 0.25404 0.19964 0.0
H347 H 0.19488 0.24636 0.19136 0.0
H348 H 0.19631 0.24379 0.20963 0.0
H349 H 0.16079 0.24701 0.19998 0.0
H350 H 0.19804 0.28635 0.19912 0.0
H351 H 0.14169 0.25353 0.1754 0.0
H352 H 0.13765 0.25668 0.19243 0.0
H353 H 0.13995 0.24252 0.18951 0.0
H354 H 0.19867 0.30565 0.19032 0.0
H355 H 0.18245 0.30499 0.19014 0.0
H356 H 0.18828 0.30111 0.17457 0.0
H357 H 0.14763 0.28676 0.10178 0.0
H358 H 0.12913 0.30037 0.1387 0.0
H359 H 0.12956 0.29957 0.16357 0.0
H360 H 0.15001 0.28452 0.19735 0.0
H361 H 0.17233 0.27519 0.16053 0.0
H362 H 0.17162 0.27568 0.13561 0.0
H363 H 0.07482 0.28943 0.19445 0.0
H364 H 0.08992 0.29189 0.18597 0.0
H365 H 0.09037 0.3062 0.1943 0.0
C366 C 0.72545 0.92974 0.10055 0.0
C367 C 0.71564 0.91794 0.09064 0.0
C368 C 0.70764 0.89776 0.10527 0.0
C369 C 0.69644 0.88771 0.1126 0.0
C370 C 0.69753 0.87808 0.12043 0.0
C371 C 0.7102 0.87857 0.12097 0.0
C372 C 0.72157 0.88861 0.11349 0.0
C373 C 0.72018 0.89808 0.10567 0.0
C374 C 0.68517 0.86743 0.1282 0.0
C375 C 0.73523 0.88939 0.11386 0.0
C376 C 0.70355 0.78422 0.08634 0.0
C377 C 0.70976 0.79798 0.09301 0.0
C378 C 0.70305 0.81166 0.10648 0.0
C379 C 0.71661 0.82265 0.1091 0.0
C380 C 0.71912 0.83414 0.11688 0.0
C381 C 0.70788 0.83458 0.12234 0.0
C382 C 0.69424 0.82345 0.11992 0.0
C383 C 0.69202 0.81217 0.11196 0.0
C384 C 0.73378 0.84589 0.11916 0.0
C385 C 0.68202 0.82354 0.12567 0.0
C386 C 0.72702 0.82552 0.21173 0.0
C387 C 0.73902 0.83714 0.20694 0.0
C388 C 0.73817 0.84695 0.19916 0.0
C389 C 0.72512 0.84525 0.19635 0.0
C390 C 0.71308 0.8338 0.20155 0.0
C391 C 0.71421 0.82404 0.20908 0.0
C392 C 0.75123 0.85909 0.19384 0.0
C393 C 0.69901 0.8318 0.19904 0.0
C394 C 0.73783 0.94609 0.20331 0.0
C395 C 0.72907 0.93261 0.2108 0.0
C396 C 0.73373 0.91436 0.20709 0.0
C397 C 0.74461 0.91296 0.20283 0.0
C398 C 0.74211 0.90085 0.19643 0.0
C399 C 0.72836 0.88976 0.19457 0.0
C400 C 0.71733 0.89086 0.19953 0.0
C401 C 0.72012 0.90317 0.20574 0.0
C402 C 0.75414 0.89999 0.19142 0.0
C403 C 0.70258 0.87909 0.19811 0.0
C404 C 0.7116 0.86862 0.12944 0.0
C405 C 0.70926 0.8567 0.12285 0.0
C406 C 0.71035 0.84688 0.13018 0.0
C407 C 0.71378 0.8489 0.14456 0.0
C408 C 0.71486 0.83919 0.15229 0.0
C409 C 0.71831 0.84131 0.16643 0.0
C410 C 0.72067 0.85316 0.17342 0.0
C411 C 0.72402 0.85535 0.18782 0.0
C412 C 0.72637 0.86728 0.1944 0.0
C413 C 0.72552 0.87721 0.18699 0.0
C414 C 0.72216 0.8752 0.17259 0.0
C415 C 0.72129 0.885 0.1648 0.0
C416 C 0.71784 0.88288 0.15068 0.0
C417 C 0.7152 0.8709 0.14377 0.0
C418 C 0.71621 0.86096 0.15137 0.0
C419 C 0.71967 0.8631 0.16581 0.0
C420 C 0.74347 0.81022 0.20959 0.0
C421 C 0.73849 0.81443 0.22234 0.0
O422 O 0.70587 0.9069 0.09811 0.0
O423 O 0.73676 0.92655 0.2126 0.0
O424 O 0.72721 0.81543 0.21879 0.0
O425 O 0.70016 0.80049 0.0987 0.0
H426 H 0.7217 0.91485 0.08432 0.0
H427 H 0.73119 0.9267 0.10749 0.0
H428 H 0.71959 0.93287 0.10714 0.0
H429 H 0.73311 0.93866 0.09452 0.0
H430 H 0.68681 0.88749 0.11222 0.0
H431 H 0.72897 0.90569 0.10002 0.0
H432 H 0.68274 0.85708 0.12506 0.0
H433 H 0.67588 0.86807 0.12628 0.0
H434 H 0.68759 0.86871 0.13954 0.0
H435 H 0.74321 0.89802 0.10776 0.0
H436 H 0.73383 0.87974 0.10961 0.0
H437 H 0.73903 0.89058 0.12479 0.0
H438 H 0.71756 0.80655 0.08663 0.0
H439 H 0.71088 0.77443 0.09884 0.0
H440 H 0.70605 0.78621 0.07499 0.0
H441 H 0.69222 0.78021 0.0847 0.0
H442 H 0.72528 0.8224 0.10502 0.0
H443 H 0.6816 0.80365 0.10994 0.0
H444 H 0.73641 0.8473 0.13045 0.0
H445 H 0.73481 0.85547 0.11541 0.0
H446 H 0.74135 0.84425 0.11371 0.0
H447 H 0.67217 0.81369 0.12375 0.0
H448 H 0.68122 0.83179 0.12078 0.0
H449 H 0.68351 0.82572 0.13705 0.0
H450 H 0.74702 0.82442 0.22654 0.0
H451 H 0.74906 0.8386 0.20909 0.0
H452 H 0.70502 0.81511 0.21289 0.0
H453 H 0.75024 0.85995 0.18244 0.0
H454 H 0.76047 0.85843 0.196 0.0
H455 H 0.75285 0.86856 0.19885 0.0
H456 H 0.69085 0.82307 0.2049 0.0
H457 H 0.69629 0.82989 0.18778 0.0
H458 H 0.69915 0.84118 0.20212 0.0
H459 H 0.71981 0.92615 0.204 0.0
H460 H 0.73188 0.95114 0.20166 0.0
H461 H 0.7408 0.94413 0.19299 0.0
H462 H 0.7474 0.95308 0.20945 0.0
H463 H 0.75509 0.92158 0.20418 0.0
H464 H 0.7117 0.90401 0.2096 0.0
H465 H 0.75277 0.89731 0.18014 0.0
H466 H 0.75448 0.89177 0.19698 0.0
H467 H 0.76417 0.90971 0.19314 0.0
H468 H 0.6953 0.88114 0.20357 0.0
H469 H 0.70164 0.86971 0.20236 0.0
H470 H 0.6995 0.87706 0.18693 0.0
H471 H 0.70658 0.85507 0.11183 0.0
H472 H 0.71308 0.82984 0.1475 0.0
H473 H 0.71905 0.8335 0.17182 0.0
H474 H 0.72892 0.86889 0.20544 0.0
H475 H 0.72322 0.89443 0.16953 0.0
H476 H 0.71728 0.89077 0.14524 0.0
H477 H 0.75228 0.80909 0.21258 0.0
H478 H 0.74702 0.81804 0.20144 0.0
H479 H 0.73502 0.80038 0.20505 0.0
C480 C 0.18012 0.90986 0.06998 0.0
C481 C 0.19199 0.91717 0.08075 0.0
C482 C 0.18136 0.90214 0.10077 0.0
C483 C 0.17185 0.90604 0.10383 0.0
C484 C 0.16137 0.89878 0.11344 0.0
C485 C 0.16047 0.8875 0.12021 0.0
C486 C 0.17044 0.88398 0.11766 0.0
C487 C 0.18078 0.89139 0.10799 0.0
C488 C 0.15098 0.90287 0.11605 0.0
C489 C 0.16986 0.87209 0.1248 0.0
C490 C 0.05896 0.8121 0.09853 0.0
C491 C 0.07113 0.81291 0.09097 0.0
C492 C 0.09128 0.82468 0.10706 0.0
C493 C 0.10077 0.82296 0.11467 0.0
C494 C 0.11197 0.83395 0.12182 0.0
C495 C 0.1135 0.84695 0.12158 0.0
C496 C 0.10392 0.8488 0.11392 0.0
C497 C 0.09294 0.83766 0.10665 0.0
C498 C 0.12214 0.83164 0.12964 0.0
C499 C 0.10524 0.86253 0.11352 0.0
C500 C 0.08766 0.83623 0.20872 0.0
C501 C 0.09795 0.83338 0.20581 0.0
C502 C 0.11025 0.84315 0.19954 0.0
C503 C 0.1122 0.85596 0.19603 0.0
C504 C 0.10215 0.85908 0.19964 0.0
C505 C 0.09006 0.8492 0.20612 0.0
C506 C 0.12098 0.83965 0.19631 0.0
C507 C 0.10397 0.87269 0.19623 0.0
C508 C 0.20058 0.95235 0.20897 0.0
C509 C 0.19417 0.94246 0.22103 0.0
C510 C 0.18096 0.91951 0.21 0.0
C511 C 0.18054 0.90725 0.20817 0.0
C512 C 0.16964 0.8962 0.20075 0.0
C513 C 0.15892 0.8975 0.19497 0.0
C514 C 0.15925 0.90988 0.19674 0.0
C515 C 0.17027 0.92077 0.20423 0.0
C516 C 0.16959 0.88314 0.19906 0.0
C517 C 0.14797 0.91159 0.19066 0.0
C518 C 0.14837 0.87857 0.12883 0.0
C519 C 0.13688 0.86762 0.12208 0.0
C520 C 0.12511 0.85859 0.12939 0.0
C521 C 0.12468 0.86049 0.14388 0.0
C522 C 0.11291 0.85168 0.1515 0.0
C523 C 0.11271 0.85339 0.16581 0.0
C524 C 0.12425 0.864 0.17305 0.0
C525 C 0.12422 0.86563 0.18765 0.0
C526 C 0.13569 0.87655 0.19446 0.0
C527 C 0.14731 0.88592 0.18709 0.0
C528 C 0.14768 0.88425 0.17253 0.0
C529 C 0.15931 0.89329 0.16481 0.0
C530 C 0.15959 0.89147 0.1505 0.0
C531 C 0.1482 0.8806 0.14335 0.0
C532 C 0.13632 0.87146 0.15089 0.0
C533 C 0.13608 0.87325 0.1655 0.0
C534 C 0.05367 0.8087 0.20534 0.0
C535 C 0.06805 0.81289 0.21086 0.0
O536 O 0.19105 0.90818 0.09081 0.0
O537 O 0.19189 0.92977 0.21729 0.0
O538 O 0.07533 0.82676 0.21403 0.0
O539 O 0.08067 0.8135 0.1005 0.0
H540 H 0.1916 0.92569 0.08579 0.0
H541 H 0.17001 0.90609 0.07488 0.0
H542 H 0.18004 0.901 0.06517 0.0
H543 H 0.18126 0.917 0.06167 0.0
H544 H 0.17234 0.91455 0.0986 0.0
H545 H 0.18825 0.88855 0.10571 0.0
H546 H 0.14058 0.89454 0.11242 0.0
H547 H 0.15354 0.91237 0.11062 0.0
H548 H 0.15043 0.90442 0.12738 0.0
H549 H 0.17892 0.87125 0.12245 0.0
H550 H 0.16033 0.86247 0.1214 0.0
H551 H 0.16939 0.87315 0.13624 0.0
H552 H 0.07608 0.82214 0.08441 0.0
H553 H 0.05122 0.81142 0.09086 0.0
H554 H 0.06253 0.82133 0.10517 0.0
H555 H 0.05391 0.80303 0.10528 0.0
H556 H 0.09941 0.81291 0.11492 0.0
H557 H 0.08567 0.83918 0.10085 0.0
H558 H 0.12131 0.83289 0.14098 0.0
H559 H 0.13285 0.83935 0.12668 0.0
H560 H 0.12028 0.82129 0.12761 0.0
H561 H 0.09642 0.86209 0.10791 0.0
H562 H 0.11492 0.86992 0.10826 0.0
H563 H 0.1059 0.86646 0.12427 0.0
H564 H 0.0731 0.81053 0.20238 0.0
H565 H 0.09637 0.82354 0.20839 0.0
H566 H 0.08215 0.85138 0.20868 0.0
H567 H 0.12119 0.83826 0.1849 0.0
H568 H 0.11883 0.83013 0.20141 0.0
H569 H 0.13139 0.84813 0.19972 0.0
H570 H 0.09501 0.87339 0.19939 0.0
H571 H 0.1054 0.87442 0.18487 0.0
H572 H 0.1134 0.88098 0.20162 0.0
H573 H 0.18425 0.94151 0.22379 0.0
H574 H 0.20257 0.96256 0.21204 0.0
H575 H 0.19347 0.9486 0.19977 0.0
H576 H 0.21046 0.95337 0.20593 0.0
H577 H 0.18883 0.90636 0.21262 0.0
H578 H 0.17043 0.9302 0.20543 0.0
H579 H 0.16949 0.88075 0.18783 0.0
H580 H 0.16007 0.87456 0.20355 0.0
H581 H 0.1787 0.88374 0.20419 0.0
H582 H 0.14971 0.92186 0.19294 0.0
H583 H 0.13787 0.90377 0.19491 0.0
H584 H 0.14732 0.90997 0.17921 0.0
H585 H 0.13715 0.86604 0.11097 0.0
H586 H 0.10373 0.84331 0.14651 0.0
H587 H 0.10336 0.84624 0.17111 0.0
H588 H 0.13555 0.87781 0.20565 0.0
H589 H 0.16837 0.90183 0.16978 0.0
H590 H 0.16883 0.89869 0.14509 0.0
H591 H 0.048 0.81089 0.21323 0.0
H592 H 0.04763 0.79763 0.20261 0.0
H593 H 0.05458 0.81448 0.19582 0.0
C594 C 0.2982 0.11232 0.95311 0.0
C595 C 0.30058 0.10561 0.9405 0.0
C596 C 0.30432 0.12209 0.92231 0.0
C597 C 0.29043 0.11826 0.92063 0.0
C598 C 0.28674 0.12577 0.91219 0.0
C599 C 0.29712 0.1374 0.90533 0.0
C600 C 0.31107 0.14117 0.9068 0.0
C601 C 0.31447 0.13338 0.9152 0.0
C602 C 0.27173 0.12138 0.91073 0.0
C603 C 0.32239 0.15351 0.89963 0.0
C604 C 0.26763 0.20612 0.92803 0.0
C605 C 0.27996 0.20706 0.93581 0.0
C606 C 0.28853 0.19645 0.91974 0.0
C607 C 0.29949 0.1991 0.91125 0.0
C608 C 0.29957 0.18856 0.90391 0.0
C609 C 0.28826 0.17501 0.90498 0.0
C610 C 0.27709 0.1722 0.91355 0.0
C611 C 0.27736 0.18293 0.92091 0.0
C612 C 0.31174 0.19192 0.895 0.0
C613 C 0.26485 0.15786 0.91486 0.0
C614 C 0.25756 0.17528 0.81843 0.0
C615 C 0.27176 0.18174 0.82139 0.0
C616 C 0.27722 0.17466 0.82788 0.0
C617 C 0.26821 0.16097 0.83186 0.0
C618 C 0.25394 0.15435 0.82852 0.0
C619 C 0.24885 0.16155 0.82161 0.0
C620 C 0.29259 0.18187 0.83061 0.0
C621 C 0.244 0.13975 0.83247 0.0
C622 C 0.28892 0.08325 0.82399 0.0
C623 C 0.28334 0.08579 0.81051 0.0
C624 C 0.2863 0.10816 0.81606 0.0
C625 C 0.29574 0.12218 0.81527 0.0
C626 C 0.29389 0.13158 0.82276 0.0
C627 C 0.28205 0.12682 0.83097 0.0
C628 C 0.27214 0.11266 0.8314 0.0
C629 C 0.27446 0.10345 0.82411 0.0
C630 C 0.30468 0.14659 0.82204 0.0
C631 C 0.25916 0.10725 0.83966 0.0
C632 C 0.29334 0.14582 0.89703 0.0
C633 C 0.29252 0.15607 0.904 0.0
C634 C 0.28816 0.16381 0.89708 0.0
C635 C 0.28419 0.1611 0.88286 0.0
C636 C 0.27898 0.16815 0.87579 0.0
C637 C 0.27528 0.16555 0.86174 0.0
C638 C 0.27693 0.15602 0.85413 0.0
C639 C 0.27363 0.15363 0.83973 0.0
C640 C 0.27534 0.14403 0.83254 0.0
C641 C 0.28023 0.13665 0.83934 0.0
C642 C 0.28354 0.13887 0.85374 0.0
C643 C 0.28846 0.13161 0.86092 0.0
C644 C 0.29151 0.13373 0.87512 0.0
C645 C 0.29013 0.14347 0.88262 0.0
C646 C 0.28543 0.15107 0.87554 0.0
C647 C 0.28195 0.14865 0.86113 0.0
C648 C 0.24315 0.19622 0.81736 0.0
C649 C 0.25601 0.19541 0.81542 0.0
O650 O 0.30843 0.11535 0.93074 0.0
O651 O 0.28909 0.09969 0.80887 0.0
O652 O 0.25196 0.18198 0.81253 0.0
O653 O 0.2892 0.20724 0.92645 0.0
H654 H 0.29047 0.09781 0.93571 0.0
H655 H 0.2924 0.11721 0.94997 0.0
H656 H 0.30822 0.12026 0.95794 0.0
H657 H 0.29206 0.10455 0.961 0.0
H658 H 0.28237 0.10949 0.9259 0.0
H659 H 0.32514 0.13625 0.91647 0.0
H660 H 0.27026 0.12949 0.91505 0.0
H661 H 0.26481 0.11174 0.91618 0.0
H662 H 0.26861 0.11997 0.89955 0.0
H663 H 0.33275 0.15511 0.90184 0.0
H664 H 0.32241 0.16275 0.90308 0.0
H665 H 0.32041 0.15234 0.88822 0.0
H666 H 0.27618 0.19814 0.94272 0.0
H667 H 0.26034 0.2062 0.93556 0.0
H668 H 0.26196 0.19653 0.92176 0.0
H669 H 0.27114 0.21483 0.92091 0.0
H670 H 0.30806 0.20953 0.91041 0.0
H671 H 0.26876 0.18064 0.92742 0.0
H672 H 0.30835 0.1898 0.8839 0.0
H673 H 0.31583 0.18534 0.89777 0.0
H674 H 0.3202 0.20278 0.89616 0.0
H675 H 0.25654 0.15748 0.92114 0.0
H676 H 0.26824 0.15142 0.91986 0.0
H677 H 0.26057 0.15337 0.90438 0.0
H678 H 0.26196 0.19888 0.82548 0.0
H679 H 0.27859 0.19228 0.81854 0.0
H680 H 0.23793 0.15663 0.81909 0.0
H681 H 0.29483 0.18438 0.84187 0.0
H682 H 0.29835 0.1915 0.82476 0.0
H683 H 0.29648 0.17514 0.8277 0.0
H684 H 0.23307 0.13654 0.83035 0.0
H685 H 0.24529 0.1384 0.8437 0.0
H686 H 0.24628 0.1329 0.82649 0.0
H687 H 0.27191 0.08054 0.81086 0.0
H688 H 0.28434 0.07214 0.82547 0.0
H689 H 0.28622 0.08734 0.83308 0.0
H690 H 0.30034 0.08834 0.82371 0.0
H691 H 0.30479 0.12572 0.80896 0.0
H692 H 0.26695 0.09265 0.82474 0.0
H693 H 0.30816 0.15101 0.8327 0.0
H694 H 0.30013 0.15201 0.81698 0.0
H695 H 0.31382 0.14854 0.81607 0.0
H696 H 0.25161 0.09628 0.83736 0.0
H697 H 0.25416 0.11314 0.83741 0.0
H698 H 0.26182 0.10849 0.85094 0.0
H699 H 0.29529 0.15802 0.91499 0.0
H700 H 0.27762 0.1757 0.88106 0.0
H701 H 0.27123 0.17121 0.85689 0.0
H702 H 0.27286 0.14228 0.82149 0.0
H703 H 0.28993 0.12413 0.85567 0.0
H704 H 0.29512 0.12776 0.88012 0.0
H705 H 0.24613 0.20688 0.81984 0.0
H706 H 0.23707 0.18968 0.8261 0.0
H707 H 0.23651 0.19264 0.80779 0.0
C708 C 0.82882 0.06526 0.95791 0.0
C709 C 0.82458 0.0741 0.95025 0.0
C710 C 0.8297 0.08242 0.92675 0.0
C711 C 0.82483 0.09133 0.92645 0.0
C712 C 0.83026 0.10221 0.91718 0.0
C713 C 0.84112 0.10445 0.90836 0.0
C714 C 0.84595 0.09533 0.90861 0.0
C715 C 0.83986 0.08419 0.91755 0.0
C716 C 0.8246 0.11148 0.91707 0.0
C717 C 0.85786 0.09756 0.89985 0.0
C718 C 0.91733 0.2064 0.94676 0.0
C719 C 0.91127 0.19315 0.93906 0.0
C720 C 0.89044 0.17721 0.92547 0.0
C721 C 0.89565 0.16938 0.92025 0.0
C722 C 0.88741 0.15787 0.91167 0.0
C723 C 0.87372 0.15412 0.90826 0.0
C724 C 0.86852 0.16208 0.91334 0.0
C725 C 0.87698 0.17355 0.92187 0.0
C726 C 0.89328 0.14961 0.90636 0.0
C727 C 0.85397 0.15836 0.90987 0.0
C728 C 0.89225 0.17636 0.81892 0.0
C729 C 0.89653 0.16839 0.82573 0.0
C730 C 0.88701 0.15642 0.83252 0.0
C731 C 0.87298 0.15252 0.83291 0.0
C732 C 0.86859 0.1604 0.82594 0.0
C733 C 0.87828 0.17214 0.81891 0.0
C734 C 0.89205 0.14805 0.83942 0.0
C735 C 0.85372 0.15655 0.82613 0.0
C736 C 0.79838 0.04177 0.8154 0.0
C737 C 0.80062 0.05596 0.81353 0.0
C738 C 0.82192 0.07784 0.81859 0.0
C739 C 0.83597 0.08336 0.82131 0.0
C740 C 0.84396 0.09588 0.82847 0.0
C741 C 0.83774 0.10318 0.83274 0.0
C742 C 0.82366 0.09796 0.82943 0.0
C743 C 0.81586 0.0853 0.82242 0.0
C744 C 0.85897 0.10118 0.8317 0.0
C745 C 0.81683 0.10569 0.83346 0.0
C746 C 0.84825 0.11699 0.89992 0.0
C747 C 0.85697 0.12934 0.90701 0.0
C748 C 0.86463 0.14152 0.89989 0.0
C749 C 0.86384 0.14146 0.88521 0.0
C750 C 0.87164 0.1535 0.87771 0.0
C751 C 0.87121 0.15324 0.86324 0.0
C752 C 0.86296 0.14093 0.85572 0.0
C753 C 0.86307 0.14045 0.84101 0.0
C754 C 0.85448 0.12811 0.83384 0.0
C755 C 0.84592 0.11609 0.84098 0.0
C756 C 0.84594 0.11631 0.8557 0.0
C757 C 0.8377 0.10437 0.86325 0.0
C758 C 0.83818 0.10461 0.87774 0.0
C759 C 0.84707 0.11675 0.88523 0.0
C760 C 0.85509 0.12901 0.87785 0.0
C761 C 0.85457 0.12877 0.86308 0.0
C762 C 0.92055 0.20324 0.82702 0.0
C763 C 0.91546 0.19539 0.81312 0.0
O764 O 0.82497 0.07222 0.93604 0.0
O765 O 0.81462 0.06533 0.81227 0.0
O766 O 0.90114 0.18813 0.81233 0.0
O767 O 0.89797 0.18827 0.93402 0.0
H768 H 0.83233 0.08492 0.95324 0.0
H769 H 0.83942 0.06819 0.95494 0.0
H770 H 0.82166 0.05429 0.9552 0.0
H771 H 0.8288 0.06675 0.96934 0.0
H772 H 0.81677 0.08977 0.93345 0.0
H773 H 0.84348 0.07717 0.91788 0.0
H774 H 0.83194 0.12114 0.92273 0.0
H775 H 0.81446 0.10678 0.92221 0.0
H776 H 0.82342 0.11406 0.90625 0.0
H777 H 0.86206 0.09125 0.90332 0.0
H778 H 0.86633 0.10845 0.90023 0.0
H779 H 0.8543 0.09474 0.88886 0.0
H780 H 0.91239 0.18521 0.94439 0.0
H781 H 0.91889 0.20405 0.95772 0.0
H782 H 0.90851 0.20779 0.94937 0.0
H783 H 0.93374 0.22002 0.93438 0.0
H784 H 0.90609 0.17214 0.92287 0.0
H785 H 0.87308 0.17968 0.92589 0.0
H786 H 0.89257 0.14898 0.89482 0.0
H787 H 0.8871 0.13904 0.91025 0.0
H788 H 0.90423 0.15405 0.90967 0.0
H789 H 0.85159 0.16582 0.91431 0.0
H790 H 0.84654 0.14811 0.91395 0.0
H791 H 0.85239 0.15782 0.8984 0.0
H792 H 0.91924 0.18827 0.81217 0.0
H793 H 0.90725 0.17137 0.82587 0.0
H794 H 0.87503 0.17827 0.81359 0.0
H795 H 0.89233 0.14949 0.85088 0.0
H796 H 0.90257 0.15105 0.83612 0.0
H797 H 0.88491 0.13702 0.837 0.0
H798 H 0.85212 0.1642 0.82094 0.0
H799 H 0.85025 0.15548 0.83704 0.0
H800 H 0.84711 0.14651 0.82077 0.0
H801 H 0.7967 0.0582 0.82312 0.0
H802 H 0.78721 0.03406 0.81645 0.0
H803 H 0.80391 0.0417 0.82498 0.0
H804 H 0.80239 0.03886 0.8064 0.0
H805 H 0.84059 0.07761 0.81812 0.0
H806 H 0.80509 0.08131 0.8199 0.0
H807 H 0.86104 0.10309 0.84308 0.0
H808 H 0.86552 0.11105 0.82647 0.0
H809 H 0.86208 0.09397 0.82823 0.0
H810 H 0.80612 0.1008 0.82919 0.0
H811 H 0.82295 0.11631 0.82968 0.0
H812 H 0.81653 0.10626 0.84497 0.0
H813 H 0.85793 0.12945 0.91826 0.0
H814 H 0.8783 0.16323 0.88295 0.0
H815 H 0.87753 0.16281 0.85803 0.0
H816 H 0.85475 0.12778 0.82257 0.0
H817 H 0.83085 0.09466 0.85804 0.0
H818 H 0.83163 0.09511 0.88299 0.0
H819 H 0.93202 0.20915 0.82764 0.0
H820 H 0.91669 0.19605 0.8358 0.0
H821 H 0.91682 0.21037 0.82821 0.0
C822 C 0.82188 0.72876 0.95463 0.0
C823 C 0.81085 0.72537 0.94328 0.0
C824 C 0.82131 0.71979 0.92402 0.0
C825 C 0.83239 0.73312 0.92173 0.0
C826 C 0.84334 0.73541 0.91325 0.0
C827 C 0.8431 0.72418 0.90683 0.0
C828 C 0.83157 0.71085 0.90848 0.0
C829 C 0.8208 0.70885 0.91703 0.0
C830 C 0.85539 0.74977 0.91149 0.0
C831 C 0.83087 0.69866 0.90162 0.0
C832 C 0.907 0.72456 0.96472 0.0
C833 C 0.90585 0.71466 0.95329 0.0
C834 C 0.9035 0.72279 0.93091 0.0
C835 C 0.89216 0.71115 0.92475 0.0
C836 C 0.88381 0.71235 0.91472 0.0
C837 C 0.88684 0.72547 0.9109 0.0
C838 C 0.89858 0.73723 0.91677 0.0
C839 C 0.90692 0.73571 0.92657 0.0
C840 C 0.87156 0.69959 0.90846 0.0
C841 C 0.90207 0.75137 0.91303 0.0
C842 C 0.92256 0.74233 0.82649 0.0
C843 C 0.91105 0.72901 0.82737 0.0
C844 C 0.89851 0.72668 0.83251 0.0
C845 C 0.89751 0.7379 0.83685 0.0
C846 C 0.90889 0.75134 0.83534 0.0
C847 C 0.92124 0.75337 0.83004 0.0
C848 C 0.88642 0.71224 0.83361 0.0
C849 C 0.90813 0.76355 0.83968 0.0
C850 C 0.81485 0.74932 0.81774 0.0
C851 C 0.81933 0.74464 0.80496 0.0
C852 C 0.83182 0.73473 0.81588 0.0
C853 C 0.83086 0.72244 0.81898 0.0
C854 C 0.84105 0.72218 0.82709 0.0
C855 C 0.85247 0.73457 0.8323 0.0
C856 C 0.85369 0.7471 0.82897 0.0
C857 C 0.8434 0.74707 0.82072 0.0
C858 C 0.83951 0.70865 0.83026 0.0
C859 C 0.8658 0.76049 0.83431 0.0
C860 C 0.85544 0.72619 0.89958 0.0
C861 C 0.86537 0.7255 0.9076 0.0
C862 C 0.87711 0.72683 0.90162 0.0
C863 C 0.87916 0.72905 0.88719 0.0
C864 C 0.89087 0.73046 0.88082 0.0
C865 C 0.89282 0.73273 0.86662 0.0
C866 C 0.88301 0.73341 0.85818 0.0
C867 C 0.88486 0.7356 0.84371 0.0
C868 C 0.87479 0.73598 0.83559 0.0
C869 C 0.8629 0.73437 0.84157 0.0
C870 C 0.86099 0.73244 0.85607 0.0
C871 C 0.84928 0.73104 0.86247 0.0
C872 C 0.84744 0.72904 0.87672 0.0
C873 C 0.85725 0.72834 0.88512 0.0
C874 C 0.86917 0.72979 0.87891 0.0
C875 C 0.87106 0.73188 0.86438 0.0
C876 C 0.95494 0.74501 0.83002 0.0
C877 C 0.94031 0.73659 0.82379 0.0
O878 O 0.81105 0.71693 0.93302 0.0
O879 O 0.82127 0.73408 0.80836 0.0
O880 O 0.93506 0.74498 0.82227 0.0
O881 O 0.91121 0.72176 0.94112 0.0
H882 H 0.81274 0.73496 0.93852 0.0
H883 H 0.82116 0.73496 0.96312 0.0
H884 H 0.82051 0.71926 0.95907 0.0
H885 H 0.83241 0.73477 0.95039 0.0
H886 H 0.83271 0.74174 0.92671 0.0
H887 H 0.81211 0.69863 0.91869 0.0
H888 H 0.86482 0.75079 0.91628 0.0
H889 H 0.85362 0.7575 0.91636 0.0
H890 H 0.85735 0.75198 0.90025 0.0
H891 H 0.82077 0.68909 0.90312 0.0
H892 H 0.83916 0.69736 0.90603 0.0
H893 H 0.83264 0.70035 0.89029 0.0
H894 H 0.8947 0.70672 0.9518 0.0
H895 H 0.90267 0.71906 0.97456 0.0
H896 H 0.90108 0.72932 0.96154 0.0
H897 H 0.91796 0.73277 0.96661 0.0
H898 H 0.88983 0.70115 0.92784 0.0
H899 H 0.91582 0.74462 0.93131 0.0
H900 H 0.87127 0.70038 0.89697 0.0
H901 H 0.86192 0.69841 0.91252 0.0
H902 H 0.87174 0.69029 0.911 0.0
H903 H 0.91132 0.75946 0.91884 0.0
H904 H 0.89319 0.75253 0.91527 0.0
H905 H 0.904 0.7529 0.90172 0.0
H906 H 0.93415 0.72836 0.83131 0.0
H907 H 0.91182 0.72042 0.82407 0.0
H908 H 0.93011 0.76362 0.82907 0.0
H909 H 0.8841 0.7097 0.84473 0.0
H910 H 0.88846 0.70471 0.82871 0.0
H911 H 0.8771 0.71126 0.82856 0.0
H912 H 0.91793 0.77334 0.83789 0.0
H913 H 0.90569 0.76294 0.85089 0.0
H914 H 0.89967 0.76351 0.83376 0.0
H915 H 0.82909 0.75336 0.80097 0.0
H916 H 0.81298 0.75755 0.81488 0.0
H917 H 0.82298 0.75341 0.82603 0.0
H918 H 0.80524 0.74067 0.82203 0.0
H919 H 0.82195 0.71298 0.81512 0.0
H920 H 0.84444 0.7567 0.81825 0.0
H921 H 0.83816 0.70684 0.84161 0.0
H922 H 0.84901 0.70882 0.82737 0.0
H923 H 0.83052 0.7 0.82465 0.0
H924 H 0.86508 0.76935 0.83113 0.0
H925 H 0.87552 0.76182 0.83031 0.0
H926 H 0.86641 0.76045 0.84585 0.0
H927 H 0.86385 0.72375 0.91869 0.0
H928 H 0.8987 0.72991 0.88677 0.0
H929 H 0.9021 0.73385 0.86233 0.0
H930 H 0.87623 0.73756 0.82449 0.0
H931 H 0.84138 0.73148 0.85652 0.0
H932 H 0.83824 0.72801 0.88109 0.0
H933 H 0.95938 0.7385 0.83148 0.0
H934 H 0.95467 0.74929 0.84034 0.0
H935 H 0.96173 0.75359 0.82315 0.0
C936 C 0.86344 0.60175 0.42519 0.0
C937 C 0.86541 0.61474 0.41867 0.0
C938 C 0.85492 0.62353 0.43467 0.0
C939 C 0.85797 0.63458 0.44334 0.0
C940 C 0.8475 0.63538 0.44992 0.0
C941 C 0.8336 0.62461 0.44803 0.0
C942 C 0.83039 0.61338 0.4392 0.0
C943 C 0.84108 0.61299 0.43249 0.0
C944 C 0.85133 0.64772 0.45896 0.0
C945 C 0.81568 0.60169 0.43703 0.0
C946 C 0.75213 0.64167 0.40963 0.0
C947 C 0.75869 0.63493 0.4166 0.0
C948 C 0.77946 0.64043 0.43 0.0
C949 C 0.77468 0.62686 0.43355 0.0
C950 C 0.78288 0.62364 0.44169 0.0
C951 C 0.79606 0.6342 0.44653 0.0
C952 C 0.80087 0.64788 0.44307 0.0
C953 C 0.7925 0.6508 0.43481 0.0
C954 C 0.77747 0.60892 0.44508 0.0
C955 C 0.81483 0.65938 0.44815 0.0
C956 C 0.76939 0.62904 0.53504 0.0
C957 C 0.76431 0.61709 0.52688 0.0
C958 C 0.77338 0.61427 0.52003 0.0
C959 C 0.78778 0.6238 0.52097 0.0
C960 C 0.79291 0.63575 0.52932 0.0
C961 C 0.78363 0.6381 0.53639 0.0
C962 C 0.76755 0.60115 0.51166 0.0
C963 C 0.80818 0.64616 0.53059 0.0
C964 C 0.85701 0.58443 0.53628 0.0
C965 C 0.85613 0.59698 0.53941 0.0
C966 C 0.83574 0.59841 0.53511 0.0
C967 C 0.82182 0.58984 0.53139 0.0
C968 C 0.81459 0.59487 0.5243 0.0
C969 C 0.8214 0.60892 0.52126 0.0
C970 C 0.8353 0.61779 0.52571 0.0
C971 C 0.84238 0.61242 0.53248 0.0
C972 C 0.79976 0.5851 0.51982 0.0
C973 C 0.84272 0.63292 0.52316 0.0
C974 C 0.82254 0.62506 0.45556 0.0
C975 C 0.81467 0.62921 0.44832 0.0
C976 C 0.8048 0.63083 0.45508 0.0
C977 C 0.80304 0.62872 0.46956 0.0
C978 C 0.79388 0.63112 0.47686 0.0
C979 C 0.79218 0.62896 0.4911 0.0
C980 C 0.79935 0.62402 0.49854 0.0
C981 C 0.79744 0.62147 0.51296 0.0
C982 C 0.80481 0.61665 0.52004 0.0
C983 C 0.81407 0.61423 0.51312 0.0
C984 C 0.81607 0.61667 0.49869 0.0
C985 C 0.82519 0.61423 0.49134 0.0
C986 C 0.82732 0.61695 0.47723 0.0
C987 C 0.82025 0.62202 0.46985 0.0
C988 C 0.81066 0.62412 0.47693 0.0
C989 C 0.80869 0.6216 0.4914 0.0
C990 C 0.74518 0.63287 0.52568 0.0
C991 C 0.74711 0.62712 0.53924 0.0
O992 O 0.86571 0.62346 0.42888 0.0
O993 O 0.84241 0.59283 0.54123 0.0
O994 O 0.76104 0.63229 0.54179 0.0
O995 O 0.77185 0.64391 0.422 0.0
H996 H 0.8568 0.61193 0.4111 0.0
H997 H 0.85343 0.59614 0.43055 0.0
H998 H 0.87181 0.60428 0.43294 0.0
H999 H 0.86346 0.5949 0.41699 0.0
H1000 H 0.86866 0.64267 0.44492 0.0
H1001 H 0.83853 0.60436 0.42579 0.0
H1002 H 0.84462 0.65176 0.45635 0.0
H1003 H 0.86229 0.656 0.45778 0.0
H1004 H 0.84972 0.64474 0.47003 0.0
H1005 H 0.81498 0.59322 0.43071 0.0
H1006 H 0.80961 0.6054 0.43166 0.0
H1007 H 0.81088 0.59768 0.44723 0.0
H1008 H 0.75799 0.62626 0.41055 0.0
H1009 H 0.73532 0.63684 0.42221 0.0
H1010 H 0.75084 0.63832 0.39838 0.0
H1011 H 0.76068 0.65249 0.4077 0.0
H1012 H 0.76459 0.61869 0.42999 0.0
H1013 H 0.7961 0.66124 0.43207 0.0
H1014 H 0.785 0.60609 0.44192 0.0
H1015 H 0.76737 0.60181 0.43983 0.0
H1016 H 0.77619 0.60756 0.45649 0.0
H1017 H 0.81676 0.66954 0.44521 0.0
H1018 H 0.82302 0.65808 0.44369 0.0
H1019 H 0.81565 0.65909 0.45965 0.0
H1020 H 0.74141 0.61581 0.53844 0.0
H1021 H 0.75333 0.60985 0.52583 0.0
H1022 H 0.78745 0.64723 0.54279 0.0
H1023 H 0.7685 0.60344 0.5004 0.0
H1024 H 0.75648 0.59387 0.51381 0.0
H1025 H 0.77344 0.59616 0.51396 0.0
H1026 H 0.81042 0.65544 0.53653 0.0
H1027 H 0.81266 0.64919 0.5201 0.0
H1028 H 0.81344 0.64157 0.53597 0.0
H1029 H 0.86028 0.60364 0.53018 0.0
H1030 H 0.86791 0.58748 0.53463 0.0
H1031 H 0.85092 0.57917 0.52667 0.0
H1032 H 0.85283 0.57715 0.54499 0.0
H1033 H 0.81675 0.57908 0.53366 0.0
H1034 H 0.85304 0.61916 0.53579 0.0
H1035 H 0.79845 0.58597 0.50849 0.0
H1036 H 0.79298 0.58781 0.52531 0.0
H1037 H 0.79628 0.57434 0.52209 0.0
H1038 H 0.85278 0.63864 0.52891 0.0
H1039 H 0.83622 0.63702 0.52633 0.0
H1040 H 0.84466 0.63476 0.51189 0.0
H1041 H 0.81625 0.63122 0.43729 0.0
H1042 H 0.78801 0.63482 0.47166 0.0
H1043 H 0.7851 0.63114 0.49617 0.0
H1044 H 0.80329 0.61472 0.53109 0.0
H1045 H 0.83087 0.61027 0.49644 0.0
H1046 H 0.83453 0.61495 0.47215 0.0
H1047 H 0.75074 0.64419 0.52637 0.0
H1048 H 0.73405 0.62877 0.52349 0.0
H1049 H 0.74928 0.62991 0.51681 0.0
C1050 C 0.37359 0.23571 0.39736 0.0
C1051 C 0.36382 0.23581 0.40808 0.0
C1052 C 0.37183 0.23221 0.43012 0.0
C1053 C 0.36013 0.22063 0.43524 0.0
C1054 C 0.36144 0.21194 0.4444 0.0
C1055 C 0.37476 0.21484 0.44836 0.0
C1056 C 0.3866 0.22673 0.44342 0.0
C1057 C 0.38495 0.2354 0.43453 0.0
C1058 C 0.34859 0.19954 0.44966 0.0
C1059 C 0.40096 0.2301 0.44728 0.0
C1060 C 0.36869 0.11847 0.41997 0.0
C1061 C 0.37492 0.13296 0.42457 0.0
C1062 C 0.36837 0.14753 0.43658 0.0
C1063 C 0.38189 0.1589 0.43815 0.0
C1064 C 0.38445 0.1708 0.44514 0.0
C1065 C 0.37331 0.17131 0.45078 0.0
C1066 C 0.35971 0.15987 0.44926 0.0
C1067 C 0.35743 0.14815 0.44212 0.0
C1068 C 0.39906 0.18284 0.44655 0.0
C1069 C 0.3476 0.16001 0.45522 0.0
C1070 C 0.39202 0.16313 0.53984 0.0
C1071 C 0.40378 0.17538 0.53576 0.0
C1072 C 0.40248 0.18503 0.52817 0.0
C1073 C 0.38918 0.18251 0.52484 0.0
C1074 C 0.37735 0.17043 0.52939 0.0
C1075 C 0.37895 0.16085 0.53671 0.0
C1076 C 0.41532 0.19784 0.52354 0.0
C1077 C 0.363 0.16754 0.52636 0.0
C1078 C 0.39441 0.27898 0.53296 0.0
C1079 C 0.38676 0.26601 0.54148 0.0
C1080 C 0.39284 0.24892 0.53647 0.0
C1081 C 0.40432 0.24867 0.53199 0.0
C1082 C 0.40279 0.23717 0.52505 0.0
C1083 C 0.38943 0.22553 0.52284 0.0
C1084 C 0.37779 0.22552 0.52785 0.0
C1085 C 0.37961 0.23722 0.53465 0.0
C1086 C 0.41544 0.2375 0.51997 0.0
C1087 C 0.36343 0.21313 0.52601 0.0
C1088 C 0.37628 0.20515 0.45716 0.0
C1089 C 0.37466 0.19345 0.45069 0.0
C1090 C 0.37582 0.18379 0.45826 0.0
C1091 C 0.37891 0.1859 0.4727 0.0
C1092 C 0.38042 0.17653 0.48058 0.0
C1093 C 0.38342 0.17866 0.49478 0.0
C1094 C 0.38482 0.19015 0.50172 0.0
C1095 C 0.38763 0.19228 0.51621 0.0
C1096 C 0.38898 0.20382 0.52276 0.0
C1097 C 0.38764 0.2134 0.51522 0.0
C1098 C 0.38481 0.21144 0.50072 0.0
C1099 C 0.38336 0.22085 0.49281 0.0
C1100 C 0.3805 0.21879 0.47857 0.0
C1101 C 0.37911 0.20731 0.47165 0.0
C1102 C 0.3805 0.19767 0.47942 0.0
C1103 C 0.38337 0.19976 0.49396 0.0
C1104 C 0.41091 0.15011 0.53893 0.0
C1105 C 0.40433 0.15321 0.5511 0.0
O1106 O 0.37069 0.24038 0.42085 0.0
O1107 O 0.39497 0.26046 0.54286 0.0
O1108 O 0.39269 0.15316 0.54659 0.0
O1109 O 0.36541 0.13582 0.42986 0.0
H1110 H 0.35482 0.22519 0.40889 0.0
H1111 H 0.37702 0.22873 0.40068 0.0
H1112 H 0.38285 0.24611 0.39629 0.0
H1113 H 0.36825 0.23206 0.38706 0.0
H1114 H 0.34997 0.21842 0.4321 0.0
H1115 H 0.39392 0.24447 0.43058 0.0
H1116 H 0.34741 0.19024 0.44468 0.0
H1117 H 0.33915 0.19979 0.44728 0.0
H1118 H 0.34945 0.19872 0.46108 0.0
H1119 H 0.40905 0.23911 0.44169 0.0
H1120 H 0.40201 0.22124 0.44488 0.0
H1121 H 0.40282 0.23224 0.45863 0.0
H1122 H 0.38201 0.14066 0.417 0.0
H1123 H 0.37029 0.11889 0.40841 0.0
H1124 H 0.35721 0.11397 0.41898 0.0
H1125 H 0.37751 0.11101 0.43374 0.0
H1126 H 0.39048 0.15857 0.43393 0.0
H1127 H 0.34705 0.13934 0.44089 0.0
H1128 H 0.3997 0.19202 0.44211 0.0
H1129 H 0.40656 0.18102 0.44121 0.0
H1130 H 0.40209 0.18509 0.45773 0.0
H1131 H 0.33773 0.1501 0.45364 0.0
H1132 H 0.3466 0.16811 0.45021 0.0
H1133 H 0.34936 0.16246 0.46653 0.0
H1134 H 0.412 0.16337 0.55575 0.0
H1135 H 0.414 0.17745 0.53825 0.0
H1136 H 0.36993 0.15143 0.53998 0.0
H1137 H 0.41477 0.19896 0.51213 0.0
H1138 H 0.42488 0.19787 0.52611 0.0
H1139 H 0.416 0.20685 0.52867 0.0
H1140 H 0.355 0.15853 0.532 0.0
H1141 H 0.36068 0.16561 0.51503 0.0
H1142 H 0.36236 0.17654 0.52929 0.0
H1143 H 0.37697 0.25891 0.53569 0.0
H1144 H 0.38802 0.2836 0.53163 0.0
H1145 H 0.39657 0.27646 0.52248 0.0
H1146 H 0.40438 0.28655 0.53815 0.0
H1147 H 0.4145 0.25767 0.53369 0.0
H1148 H 0.37073 0.23711 0.5387 0.0
H1149 H 0.41436 0.23518 0.50862 0.0
H1150 H 0.41643 0.22951 0.52524 0.0
H1151 H 0.42505 0.24754 0.52198 0.0
H1152 H 0.35552 0.21449 0.53111 0.0
H1153 H 0.36306 0.20407 0.53041 0.0
H1154 H 0.36077 0.21101 0.51475 0.0
H1155 H 0.37234 0.19178 0.43961 0.0
H1156 H 0.37934 0.16744 0.47585 0.0
H1157 H 0.38456 0.17114 0.50027 0.0
H1158 H 0.39114 0.20538 0.53387 0.0
H1159 H 0.38439 0.22991 0.49756 0.0
H1160 H 0.37942 0.22633 0.47304 0.0
H1161 H 0.40336 0.14018 0.5338 0.0
H1162 H 0.41997 0.14972 0.54271 0.0
H1163 H 0.41454 0.15815 0.53101 0.0
C1164 C 0.85343 0.24633 0.40024 0.0
C1165 C 0.86343 0.25123 0.41283 0.0
C1166 C 0.85006 0.23211 0.42872 0.0
C1167 C 0.83995 0.23515 0.432 0.0
C1168 C 0.82834 0.22601 0.43965 0.0
C1169 C 0.82686 0.21365 0.44414 0.0
C1170 C 0.83725 0.21079 0.44123 0.0
C1171 C 0.84874 0.22011 0.43362 0.0
C1172 C 0.81753 0.22942 0.44275 0.0
C1173 C 0.83603 0.19774 0.44591 0.0
C1174 C 0.74378 0.15028 0.38401 0.0
C1175 C 0.75159 0.14757 0.3953 0.0
C1176 C 0.75883 0.15836 0.41829 0.0
C1177 C 0.76982 0.15636 0.42069 0.0
C1178 C 0.78003 0.16412 0.43087 0.0
C1179 C 0.77932 0.17424 0.43864 0.0
C1180 C 0.76807 0.17607 0.43641 0.0
C1181 C 0.7578 0.16786 0.42645 0.0
C1182 C 0.79168 0.16166 0.43316 0.0
C1183 C 0.76708 0.18694 0.44422 0.0
C1184 C 0.74867 0.14775 0.52478 0.0
C1185 C 0.75953 0.14555 0.52257 0.0
C1186 C 0.77204 0.15584 0.51703 0.0
C1187 C 0.77371 0.16858 0.51377 0.0
C1188 C 0.76299 0.17098 0.51655 0.0
C1189 C 0.75064 0.16054 0.52212 0.0
C1190 C 0.7834 0.15308 0.51448 0.0
C1191 C 0.76451 0.18451 0.5134 0.0
C1192 C 0.86034 0.26242 0.53815 0.0
C1193 C 0.85575 0.25156 0.54937 0.0
C1194 C 0.84247 0.22984 0.53607 0.0
C1195 C 0.84261 0.2184 0.53137 0.0
C1196 C 0.83175 0.20824 0.52309 0.0
C1197 C 0.82054 0.20966 0.51929 0.0
C1198 C 0.82017 0.22108 0.52421 0.0
C1199 C 0.83109 0.23102 0.53262 0.0
C1200 C 0.83238 0.19609 0.51819 0.0
C1201 C 0.80833 0.22288 0.52037 0.0
C1202 C 0.81409 0.20332 0.45112 0.0
C1203 C 0.80294 0.19397 0.44268 0.0
C1204 C 0.79079 0.18349 0.4484 0.0
C1205 C 0.78972 0.18217 0.46301 0.0
C1206 C 0.77785 0.17148 0.46913 0.0
C1207 C 0.77677 0.17047 0.48353 0.0
C1208 C 0.78756 0.18005 0.49236 0.0
C1209 C 0.78646 0.17924 0.50701 0.0
C1210 C 0.7974 0.18892 0.51548 0.0
C1211 C 0.80946 0.19951 0.50972 0.0
C1212 C 0.81074 0.20051 0.4951 0.0
C1213 C 0.82272 0.21107 0.48895 0.0
C1214 C 0.82388 0.21197 0.47456 0.0
C1215 C 0.81305 0.20246 0.46575 0.0
C1216 C 0.80083 0.1918 0.47171 0.0
C1217 C 0.79973 0.19076 0.4864 0.0
C1218 C 0.71559 0.11805 0.52165 0.0
C1219 C 0.73004 0.12392 0.52803 0.0
O1220 O 0.86113 0.24025 0.42076 0.0
O1221 O 0.85357 0.23946 0.5437 0.0
O1222 O 0.73622 0.13794 0.52961 0.0
O1223 O 0.74915 0.15143 0.40811 0.0
H1224 H 0.86203 0.25843 0.41934 0.0
H1225 H 0.84259 0.24135 0.40363 0.0
H1226 H 0.85448 0.23887 0.3938 0.0
H1227 H 0.85558 0.25512 0.39371 0.0
H1228 H 0.84094 0.24452 0.42853 0.0
H1229 H 0.85665 0.21791 0.43115 0.0
H1230 H 0.80766 0.22188 0.4374 0.0
H1231 H 0.82058 0.2398 0.43931 0.0
H1232 H 0.81562 0.22873 0.4541 0.0
H1233 H 0.84509 0.19711 0.44296 0.0
H1234 H 0.82657 0.18885 0.44121 0.0
H1235 H 0.83503 0.19698 0.45738 0.0
H1236 H 0.76277 0.15402 0.39287 0.0
H1237 H 0.74568 0.1474 0.3736 0.0
H1238 H 0.74741 0.16131 0.38402 0.0
H1239 H 0.7325 0.14439 0.38589 0.0
H1240 H 0.77044 0.14873 0.41461 0.0
H1241 H 0.74919 0.16922 0.42458 0.0
H1242 H 0.79354 0.16122 0.44446 0.0
H1243 H 0.80129 0.17025 0.42884 0.0
H1244 H 0.78955 0.15204 0.42802 0.0
H1245 H 0.75863 0.18814 0.44005 0.0
H1246 H 0.77697 0.19691 0.4437 0.0
H1247 H 0.7651 0.18423 0.45535 0.0
H1248 H 0.7358 0.12134 0.52062 0.0
H1249 H 0.75835 0.13589 0.52522 0.0
H1250 H 0.74228 0.16221 0.5241 0.0
H1251 H 0.78561 0.15385 0.5032 0.0
H1252 H 0.78069 0.14281 0.51798 0.0
H1253 H 0.79302 0.1609 0.52002 0.0
H1254 H 0.75528 0.18483 0.51637 0.0
H1255 H 0.7662 0.18651 0.50211 0.0
H1256 H 0.77369 0.19284 0.51907 0.0
H1257 H 0.84605 0.24978 0.55403 0.0
H1258 H 0.86245 0.2722 0.54284 0.0
H1259 H 0.85216 0.25918 0.53001 0.0
H1260 H 0.86983 0.26415 0.53307 0.0
H1261 H 0.85136 0.21752 0.53414 0.0
H1262 H 0.83069 0.23971 0.53626 0.0
H1263 H 0.8333 0.1963 0.5067 0.0
H1264 H 0.82269 0.1865 0.52078 0.0
H1265 H 0.84126 0.19596 0.52292 0.0
H1266 H 0.80977 0.23254 0.52467 0.0
H1267 H 0.79857 0.21421 0.52436 0.0
H1268 H 0.8072 0.22281 0.50888 0.0
H1269 H 0.80376 0.19484 0.43145 0.0
H1270 H 0.76924 0.1638 0.46285 0.0
H1271 H 0.76734 0.16207 0.48763 0.0
H1272 H 0.79645 0.18828 0.5267 0.0
H1273 H 0.83137 0.21875 0.4952 0.0
H1274 H 0.83335 0.22029 0.47041 0.0
H1275 H 0.7104 0.10682 0.52013 0.0
H1276 H 0.71633 0.12266 0.51136 0.0
H1277 H 0.70918 0.12029 0.52847 0.0
C1278 C 0.0126 0.47254 0.29034 0.0
C1279 C 0.0071 0.46086 0.27957 0.0
C1280 C 0.01031 0.47273 0.25779 0.0
C1281 C 0.9966 0.46847 0.25427 0.0
C1282 C 0.9936 0.47617 0.24532 0.0
C1283 C 0.00454 0.48834 0.23976 0.0
C1284 C 0.01837 0.49237 0.24284 0.0
C1285 C 0.02108 0.48438 0.25171 0.0
C1286 C 0.97873 0.4714 0.24194 0.0
C1287 C 0.03026 0.50525 0.23702 0.0
C1288 C 0.98593 0.54356 0.29257 0.0
C1289 C 0.99559 0.55265 0.28122 0.0
C1290 C 0.99035 0.54127 0.25868 0.0
C1291 C 0.00352 0.54519 0.25402 0.0
C1292 C 0.00531 0.53691 0.24458 0.0
C1293 C 0.99368 0.52442 0.23981 0.0
C1294 C 0.98031 0.52072 0.2441 0.0
C1295 C 0.97881 0.52935 0.25333 0.0
C1296 C 0.01967 0.54132 0.24 0.0
C1297 C 0.9677 0.50743 0.23934 0.0
C1298 C 0.973 0.53163 0.15173 0.0
C1299 C 0.98724 0.53771 0.15421 0.0
C1300 C 0.9925 0.53041 0.16061 0.0
C1301 C 0.9833 0.51681 0.16467 0.0
C1302 C 0.969 0.51049 0.16159 0.0
C1303 C 0.96407 0.51796 0.15499 0.0
C1304 C 0.00784 0.5373 0.16329 0.0
C1305 C 0.95891 0.49594 0.16559 0.0
C1306 C 0.01625 0.44663 0.16155 0.0
C1307 C 0.00437 0.44387 0.15166 0.0
C1308 C 0.00371 0.46468 0.15166 0.0
C1309 C 0.01362 0.47863 0.15214 0.0
C1310 C 0.01091 0.48792 0.15861 0.0
C1311 C 0.99783 0.48312 0.16445 0.0
C1312 C 0.98747 0.46911 0.16323 0.0
C1313 C 0.99053 0.46001 0.15686 0.0
C1314 C 0.02214 0.50281 0.15959 0.0
C1315 C 0.97326 0.46372 0.16893 0.0
C1316 C 0.00143 0.49718 0.23133 0.0
C1317 C 0.99928 0.5065 0.23844 0.0
C1318 C 0.99566 0.51475 0.23136 0.0
C1319 C 0.99399 0.51362 0.21671 0.0
C1320 C 0.99008 0.52154 0.20925 0.0
C1321 C 0.98816 0.5201 0.19487 0.0
C1322 C 0.9904 0.51092 0.18734 0.0
C1323 C 0.98847 0.50938 0.1727 0.0
C1324 C 0.99102 0.50032 0.16554 0.0
C1325 C 0.99529 0.49257 0.17262 0.0
C1326 C 0.99702 0.49378 0.18727 0.0
C1327 C 0.00106 0.48595 0.19474 0.0
C1328 C 0.00245 0.48699 0.20917 0.0
C1329 C 1.00011 0.49609 0.21667 0.0
C1330 C 0.99627 0.50427 0.20934 0.0
C1331 C 0.9946 0.50302 0.19463 0.0
C1332 C 0.95967 0.55129 0.15823 0.0
C1333 C 0.97133 0.55181 0.14999 0.0
O1334 O 0.01349 0.46583 0.26696 0.0
O1335 O 0.0071 0.45604 0.14594 0.0
O1336 O 0.96758 0.53864 0.14615 0.0
O1337 O 0.98857 0.54871 0.26849 0.0
H1338 H 0.99578 0.45627 0.27841 0.0
H1339 H 0.01012 0.48021 0.28688 0.0
H1340 H 0.02398 0.47767 0.29167 0.0
H1341 H 0.0077 0.46862 0.30054 0.0
H1342 H 0.9882 0.4591 0.25838 0.0
H1343 H 0.03163 0.48746 0.25432 0.0
H1344 H 0.97632 0.4789 0.24618 0.0
H1345 H 0.97143 0.46125 0.24634 0.0
H1346 H 0.97705 0.47082 0.23049 0.0
H1347 H 0.04044 0.50693 0.24034 0.0
H1348 H 0.02968 0.51416 0.24049 0.0
H1349 H 0.02955 0.50477 0.22548 0.0
H1350 H 0.00451 0.55118 0.28122 0.0
H1351 H 0.99135 0.54659 0.30288 0.0
H1352 H 0.98259 0.53276 0.29035 0.0
H1353 H 0.9766 0.54431 0.29301 0.0
H1354 H 0.01239 0.55467 0.25788 0.0
H1355 H 0.96867 0.52653 0.25691 0.0
H1356 H 0.01982 0.54036 0.22851 0.0
H1357 H 0.02282 0.53453 0.24462 0.0
H1358 H 0.02738 0.55201 0.24325 0.0
H1359 H 0.95809 0.50586 0.24397 0.0
H1360 H 0.96889 0.49878 0.2422 0.0
H1361 H 0.96659 0.50723 0.22784 0.0
H1362 H 0.98058 0.5566 0.15706 0.0
H1363 H 0.99424 0.54814 0.15112 0.0
H1364 H 0.95312 0.51331 0.15277 0.0
H1365 H 0.01004 0.53879 0.17467 0.0
H1366 H 0.01373 0.54739 0.15828 0.0
H1367 H 0.01158 0.53072 0.15937 0.0
H1368 H 0.94808 0.49264 0.1628 0.0
H1369 H 0.95969 0.49484 0.17697 0.0
H1370 H 0.96153 0.48903 0.16027 0.0
H1371 H 0.9948 0.43921 0.15781 0.0
H1372 H 0.01427 0.43695 0.16611 0.0
H1373 H 0.01718 0.45357 0.17017 0.0
H1374 H 0.02618 0.45152 0.15598 0.0
H1375 H 0.02367 0.48214 0.14782 0.0
H1376 H 0.98259 0.44931 0.15588 0.0
H1377 H 0.02455 0.50611 0.17068 0.0
H1378 H 0.01849 0.50905 0.15461 0.0
H1379 H 0.03176 0.50493 0.15449 0.0
H1380 H 0.96596 0.45286 0.16592 0.0
H1381 H 0.96903 0.4699 0.16513 0.0
H1382 H 0.97395 0.46462 0.18045 0.0
H1383 H 0.00034 0.50729 0.2497 0.0
H1384 H 0.98831 0.52883 0.21449 0.0
H1385 H 0.98495 0.52634 0.18973 0.0
H1386 H 0.98955 0.4992 0.15432 0.0
H1387 H 0.0031 0.47883 0.18954 0.0
H1388 H 0.00545 0.48061 0.21437 0.0
H1389 H 0.96239 0.56177 0.16126 0.0
H1390 H 0.958 0.5454 0.16786 0.0
H1391 H 0.94986 0.54625 0.15202 0.0
C1392 C 0.48297 0.39841 0.29133 0.0
C1393 C 0.48051 0.40883 0.28432 0.0
C1394 C 0.48926 0.42027 0.26241 0.0
C1395 C 0.48529 0.4299 0.26289 0.0
C1396 C 0.49182 0.44155 0.25463 0.0
C1397 C 0.50286 0.44381 0.24609 0.0
C1398 C 0.50698 0.43414 0.24577 0.0
C1399 C 0.49981 0.42228 0.25363 0.0
C1400 C 0.48695 0.45146 0.25516 0.0
C1401 C 0.51908 0.43636 0.23737 0.0
C1402 C 0.58328 0.54681 0.28216 0.0
C1403 C 0.57649 0.53305 0.27541 0.0
C1404 C 0.55448 0.51648 0.26393 0.0
C1405 C 0.55923 0.50851 0.25802 0.0
C1406 C 0.55043 0.49699 0.24967 0.0
C1407 C 0.53663 0.49338 0.24718 0.0
C1408 C 0.53183 0.50139 0.25308 0.0
C1409 C 0.54085 0.51285 0.26139 0.0
C1410 C 0.55586 0.48864 0.24353 0.0
C1411 C 0.51717 0.49782 0.25061 0.0
C1412 C 0.54809 0.51965 0.15812 0.0
C1413 C 0.55412 0.51239 0.16273 0.0
C1414 C 0.54622 0.49995 0.16955 0.0
C1415 C 0.53208 0.49479 0.17193 0.0
C1416 C 0.52592 0.50193 0.16692 0.0
C1417 C 0.534 0.5142 0.1599 0.0
C1418 C 0.55301 0.49235 0.17426 0.0
C1419 C 0.51086 0.4967 0.16917 0.0
C1420 C 0.46282 0.38342 0.15388 0.0
C1421 C 0.46373 0.39701 0.15185 0.0
C1422 C 0.4844 0.41955 0.15617 0.0
C1423 C 0.4986 0.42565 0.15838 0.0
C1424 C 0.5063 0.43812 0.16569 0.0
C1425 C 0.49964 0.44478 0.1706 0.0
C1426 C 0.48538 0.43902 0.16772 0.0
C1427 C 0.47787 0.42641 0.16057 0.0
C1428 C 0.52151 0.44403 0.16843 0.0
C1429 C 0.47807 0.4461 0.17239 0.0
C1430 C 0.51048 0.45658 0.23803 0.0
C1431 C 0.51943 0.46868 0.24541 0.0
C1432 C 0.52714 0.48106 0.23861 0.0
C1433 C 0.52604 0.48148 0.22399 0.0
C1434 C 0.5336 0.49379 0.21684 0.0
C1435 C 0.5327 0.49405 0.20241 0.0
C1436 C 0.52434 0.48198 0.19456 0.0
C1437 C 0.52377 0.48206 0.17985 0.0
C1438 C 0.51543 0.46986 0.17237 0.0
C1439 C 0.50752 0.45749 0.17918 0.0
C1440 C 0.50781 0.45724 0.19389 0.0
C1441 C 0.49981 0.44503 0.20111 0.0
C1442 C 0.50037 0.44484 0.21557 0.0
C1443 C 0.50926 0.45678 0.22337 0.0
C1444 C 0.51719 0.46926 0.21633 0.0
C1445 C 0.51639 0.46951 0.20159 0.0
C1446 C 0.5658 0.55184 0.16569 0.0
C1447 C 0.56816 0.54266 0.15601 0.0
O1448 O 0.48306 0.40894 0.27025 0.0
O1449 O 0.47739 0.40709 0.14976 0.0
O1450 O 0.55549 0.53169 0.1515 0.0
O1451 O 0.56267 0.5277 0.27207 0.0
H1452 H 0.48801 0.41901 0.28912 0.0
H1453 H 0.49372 0.40107 0.28959 0.0
H1454 H 0.47576 0.388 0.28696 0.0
H1455 H 0.48147 0.3984 0.30273 0.0
H1456 H 0.47696 0.42821 0.26955 0.0
H1457 H 0.50275 0.41473 0.25335 0.0
H1458 H 0.49458 0.46072 0.2612 0.0
H1459 H 0.47678 0.44704 0.26019 0.0
H1460 H 0.48613 0.45467 0.24451 0.0
H1461 H 0.52285 0.42966 0.24075 0.0
H1462 H 0.52777 0.44714 0.23823 0.0
H1463 H 0.5159 0.43401 0.22624 0.0
H1464 H 0.57842 0.52559 0.28065 0.0
H1465 H 0.5979 0.55955 0.26767 0.0
H1466 H 0.58626 0.5454 0.29295 0.0
H1467 H 0.57474 0.54827 0.28574 0.0
H1468 H 0.56977 0.51119 0.25989 0.0
H1469 H 0.53728 0.51907 0.26596 0.0
H1470 H 0.55488 0.4884 0.23201 0.0
H1471 H 0.54958 0.47796 0.24709 0.0
H1472 H 0.56684 0.49277 0.24647 0.0
H1473 H 0.51511 0.50525 0.2557 0.0
H1474 H 0.50991 0.48751 0.25467 0.0
H1475 H 0.51503 0.49748 0.23927 0.0
H1476 H 0.57411 0.53911 0.16194 0.0
H1477 H 0.5649 0.51629 0.1608 0.0
H1478 H 0.52942 0.51979 0.15605 0.0
H1479 H 0.5536 0.49251 0.1858 0.0
H1480 H 0.56361 0.49689 0.17024 0.0
H1481 H 0.54673 0.4815 0.17074 0.0
H1482 H 0.50783 0.50385 0.16534 0.0
H1483 H 0.50858 0.495 0.18042 0.0
H1484 H 0.50441 0.48672 0.16365 0.0
H1485 H 0.45997 0.39913 0.16163 0.0
H1486 H 0.45197 0.37516 0.15566 0.0
H1487 H 0.4692 0.38418 0.1631 0.0
H1488 H 0.46668 0.38068 0.14462 0.0
H1489 H 0.50356 0.42037 0.15474 0.0
H1490 H 0.46696 0.42197 0.15841 0.0
H1491 H 0.52379 0.44559 0.1798 0.0
H1492 H 0.52755 0.45415 0.16352 0.0
H1493 H 0.52505 0.43735 0.16431 0.0
H1494 H 0.46728 0.44093 0.16828 0.0
H1495 H 0.48376 0.45684 0.16894 0.0
H1496 H 0.47788 0.4463 0.18393 0.0
H1497 H 0.52049 0.46844 0.25662 0.0
H1498 H 0.54033 0.50337 0.22232 0.0
H1499 H 0.53877 0.50382 0.19748 0.0
H1500 H 0.51522 0.46996 0.16108 0.0
H1501 H 0.493 0.43546 0.19566 0.0
H1502 H 0.49388 0.43517 0.22054 0.0
H1503 H 0.55993 0.55571 0.16016 0.0
H1504 H 0.57582 0.56064 0.16955 0.0
H1505 H 0.55981 0.54596 0.17481 0.0
C1506 C 0.47112 0.02069 0.29258 0.0
C1507 C 0.46207 0.02082 0.28068 0.0
C1508 C 0.46939 0.01201 0.26131 0.0
C1509 C 0.48241 0.02387 0.25949 0.0
C1510 C 0.49196 0.02379 0.25047 0.0
C1511 C 0.48844 0.01165 0.24313 0.0
C1512 C 0.47522 0.99981 0.24465 0.0
C1513 C 0.46584 1.0002 0.25366 0.0
C1514 C 0.50593 0.03663 0.24895 0.0
C1515 C 0.47113 0.98668 0.237 0.0
C1516 C 0.53433 0.97844 0.28563 0.0
C1517 C 0.5443 0.98002 0.27418 0.0
C1518 C 0.54166 0.99539 0.25862 0.0
C1519 C 0.52882 0.98548 0.25266 0.0
C1520 C 0.52127 0.98926 0.24423 0.0
C1521 C 0.52655 0.00323 0.24178 0.0
C1522 C 0.53959 0.01322 0.24748 0.0
C1523 C 0.54704 0.00913 0.25571 0.0
C1524 C 0.50747 0.97831 0.23816 0.0
C1525 C 0.54548 0.0282 0.24515 0.0
C1526 C 0.55411 0.0153 0.15329 0.0
C1527 C 0.54203 0.00304 0.15678 0.0
C1528 C 0.53131 0.00317 0.16367 0.0
C1529 C 0.53285 0.0158 0.16753 0.0
C1530 C 0.54487 0.02814 0.16381 0.0
C1531 C 0.55527 0.0277 0.15659 0.0
C1532 C 0.5184 0.9898 0.16701 0.0
C1533 C 0.54686 0.04179 0.16768 0.0
C1534 C 0.4586 0.04195 0.15801 0.0
C1535 C 0.4634 0.03843 0.14467 0.0
C1536 C 0.47355 0.02546 0.15353 0.0
C1537 C 0.47119 0.01234 0.15492 0.0
C1538 C 0.48053 0.0101 0.16227 0.0
C1539 C 0.49262 0.02132 0.16832 0.0
C1540 C 0.49521 0.03467 0.16682 0.0
C1541 C 0.48564 0.03662 0.15948 0.0
C1542 C 0.47744 0.99572 0.16367 0.0
C1543 C 0.50807 0.04686 0.17306 0.0
C1544 C 0.49888 0.0111 0.23455 0.0
C1545 C 0.50794 0.00816 0.24128 0.0
C1546 C 0.518 0.00733 0.23396 0.0
C1547 C 0.51926 0.00972 0.21951 0.0
C1548 C 0.52944 0.00924 0.21187 0.0
C1549 C 0.53056 0.01157 0.19764 0.0
C1550 C 0.52132 0.01412 0.19043 0.0
C1551 C 0.52214 0.01612 0.17589 0.0
C1552 C 0.51271 0.01849 0.16904 0.0
C1553 C 0.50246 0.01905 0.17634 0.0
C1554 C 0.50157 0.01722 0.1909 0.0
C1555 C 0.49148 0.01784 0.19859 0.0
C1556 C 0.49066 0.01598 0.21291 0.0
C1557 C 0.49978 0.01325 0.22005 0.0
C1558 C 0.51004 0.01259 0.21252 0.0
C1559 C 0.51099 0.01466 0.19794 0.0
C1560 C 0.57232 0.00276 0.15942 0.0
C1561 C 0.56747 0.00526 0.14544 0.0
O1562 O 0.46001 0.01139 0.27038 0.0
O1563 O 0.46387 0.02675 0.14647 0.0
O1564 O 0.56489 0.01572 0.14684 0.0
O1565 O 0.54906 0.99222 0.26734 0.0
H1566 H 0.46712 0.03119 0.27621 0.0
H1567 H 0.48151 0.02374 0.28883 0.0
H1568 H 0.46633 0.01033 0.29699 0.0
H1569 H 0.47246 0.02802 0.30097 0.0
H1570 H 0.48528 0.03317 0.26516 0.0
H1571 H 0.45574 0.99114 0.25504 0.0
H1572 H 0.51406 0.03495 0.2531 0.0
H1573 H 0.50675 0.04551 0.25455 0.0
H1574 H 0.50801 0.0391 0.23777 0.0
H1575 H 0.46045 0.97837 0.2393 0.0
H1576 H 0.47835 0.98333 0.23992 0.0
H1577 H 0.47191 0.98837 0.22562 0.0
H1578 H 0.5389 0.97134 0.26661 0.0
H1579 H 0.53069 0.96878 0.29126 0.0
H1580 H 0.52513 0.97809 0.28109 0.0
H1581 H 0.5395 0.98714 0.29319 0.0
H1582 H 0.52452 0.97478 0.25461 0.0
H1583 H 0.55697 0.01672 0.26025 0.0
H1584 H 0.50695 0.97983 0.22683 0.0
H1585 H 0.49913 0.97905 0.24313 0.0
H1586 H 0.50547 0.96789 0.23976 0.0
H1587 H 0.55566 0.03472 0.25051 0.0
H1588 H 0.53822 0.03114 0.24897 0.0
H1589 H 0.54673 0.03026 0.23384 0.0
H1590 H 0.55793 0.99576 0.14178 0.0
H1591 H 0.54083 0.99332 0.15419 0.0
H1592 H 0.56455 0.0371 0.15377 0.0
H1593 H 0.51821 0.98806 0.17836 0.0
H1594 H 0.51786 0.98103 0.16144 0.0
H1595 H 0.50907 0.99009 0.16421 0.0
H1596 H 0.5572 0.05044 0.16486 0.0
H1597 H 0.54553 0.04236 0.17904 0.0
H1598 H 0.53887 0.04295 0.16225 0.0
H1599 H 0.47381 0.0471 0.14201 0.0
H1600 H 0.45808 0.05123 0.15653 0.0
H1601 H 0.46592 0.04402 0.16677 0.0
H1602 H 0.44823 0.03336 0.16088 0.0
H1603 H 0.46187 0.00379 0.15029 0.0
H1604 H 0.4877 0.04686 0.1585 0.0
H1605 H 0.47711 0.99325 0.17485 0.0
H1606 H 0.48581 0.99488 0.15895 0.0
H1607 H 0.46746 0.98806 0.15857 0.0
H1608 H 0.50887 0.05664 0.17054 0.0
H1609 H 0.51736 0.04713 0.16919 0.0
H1610 H 0.50809 0.04595 0.18454 0.0
H1611 H 0.50703 0.0063 0.25237 0.0
H1612 H 0.5367 0.00714 0.21683 0.0
H1613 H 0.53871 0.01122 0.19235 0.0
H1614 H 0.51332 0.0199 0.15787 0.0
H1615 H 0.48411 0.0198 0.19363 0.0
H1616 H 0.48272 0.01661 0.2183 0.0
H1617 H 0.57451 0.99448 0.15832 0.0
H1618 H 0.56417 0.99962 0.16728 0.0
H1619 H 0.58181 0.0122 0.16329 0.0
C1620 C 0.51802 0.95567 0.72961 0.0
C1621 C 0.52585 0.96839 0.73899 0.0
C1622 C 0.51951 0.97027 0.76254 0.0
C1623 C 0.52573 0.98445 0.76378 0.0
C1624 C 0.52105 0.9902 0.77353 0.0
C1625 C 0.50974 0.98155 0.78198 0.0
C1626 C 0.50359 0.96721 0.78084 0.0
C1627 C 0.50883 0.96179 0.77136 0.0
C1628 C 0.52803 0.00552 0.77459 0.0
C1629 C 0.49122 0.95756 0.78928 0.0
C1630 C 0.43058 0.00045 0.74944 0.0
C1631 C 0.43817 0.9953 0.75741 0.0
C1632 C 0.45984 0.00319 0.7701 0.0
C1633 C 0.45557 0.99047 0.77602 0.0
C1634 C 0.46486 0.98838 0.78364 0.0
C1635 C 0.47876 0.99919 0.78537 0.0
C1636 C 0.48307 0.01207 0.77967 0.0
C1637 C 0.4735 0.01392 0.77218 0.0
C1638 C 0.45987 0.97454 0.78972 0.0
C1639 C 0.4978 0.02379 0.78137 0.0
C1640 C 0.47583 0.0171 0.8752 0.0
C1641 C 0.468 0.00371 0.8699 0.0
C1642 C 0.47433 0.99789 0.8626 0.0
C1643 C 0.48872 0.00579 0.86029 0.0
C1644 C 0.49667 0.01915 0.86608 0.0
C1645 C 0.49012 0.02455 0.87367 0.0
C1646 C 0.46559 0.98338 0.85717 0.0
C1647 C 0.51204 0.02784 0.86397 0.0
C1648 C 0.54186 0.94938 0.86968 0.0
C1649 C 0.54475 0.9636 0.87335 0.0
C1650 C 0.52712 0.96952 0.87046 0.0
C1651 C 0.51283 0.96292 0.8686 0.0
C1652 C 0.50678 0.96938 0.86199 0.0
C1653 C 0.51527 0.98296 0.8575 0.0
C1654 C 0.52972 0.98995 0.85998 0.0
C1655 C 0.53552 0.98312 0.86636 0.0
C1656 C 0.49133 0.9616 0.85965 0.0
C1657 C 0.539 0.00459 0.85579 0.0
C1658 C 0.50368 0.98745 0.79114 0.0
C1659 C 0.4953 0.9915 0.78483 0.0
C1660 C 0.4888 0.99672 0.79268 0.0
C1661 C 0.49092 0.99825 0.80727 0.0
C1662 C 0.48489 0.00386 0.81542 0.0
C1663 C 0.48665 0.00491 0.82982 0.0
C1664 C 0.49417 1.00002 0.83666 0.0
C1665 C 0.49535 0.00033 0.85135 0.0
C1666 C 0.50265 0.9951 0.8578 0.0
C1667 C 0.50894 0.98962 0.84997 0.0
C1668 C 0.50817 0.98956 0.83525 0.0
C1669 C 0.51462 0.98441 0.82703 0.0
C1670 C 0.51354 0.98411 0.81257 0.0
C1671 C 0.50555 0.98847 0.80579 0.0
C1672 C 0.49911 0.99387 0.81387 0.0
C1673 C 0.50058 0.99458 0.8286 0.0
C1674 C 0.46374 0.03813 0.87252 0.0
C1675 C 0.45868 0.02351 0.87681 0.0
O1676 O 0.52346 0.9645 0.75277 0.0
O1677 O 0.53235 0.96252 0.87645 0.0
O1678 O 0.46983 0.02299 0.88196 0.0
O1679 O 0.45117 0.0054 0.76228 0.0
H1680 H 0.52161 0.97495 0.73651 0.0
H1681 H 0.50679 0.9504 0.7316 0.0
H1682 H 0.52152 0.94846 0.73167 0.0
H1683 H 0.51966 0.95854 0.71848 0.0
H1684 H 0.53421 0.99101 0.75711 0.0
H1685 H 0.50418 0.95085 0.77033 0.0
H1686 H 0.5211 0.00862 0.77004 0.0
H1687 H 0.53793 0.01081 0.76897 0.0
H1688 H 0.53006 0.00896 0.78566 0.0
H1689 H 0.48641 0.94681 0.7856 0.0
H1690 H 0.48332 0.96044 0.7888 0.0
H1691 H 0.49444 0.95819 0.80033 0.0
H1692 H 0.43819 0.98654 0.75235 0.0
H1693 H 0.4295 0.99629 0.73854 0.0
H1694 H 0.43843 0.0113 0.74668 0.0
H1695 H 0.41351 0.99524 0.76183 0.0
H1696 H 0.44499 0.98209 0.77469 0.0
H1697 H 0.47672 0.02372 0.76767 0.0
H1698 H 0.46206 0.97561 0.8011 0.0
H1699 H 0.46554 0.97009 0.78504 0.0
H1700 H 0.44863 0.96733 0.78787 0.0
H1701 H 0.49948 0.03326 0.77654 0.0
H1702 H 0.50481 0.02099 0.77653 0.0
H1703 H 0.50067 0.02587 0.7926 0.0
H1704 H 0.45412 0.01685 0.86734 0.0
H1705 H 0.45698 0.99781 0.87154 0.0
H1706 H 0.49606 0.03482 0.87804 0.0
H1707 H 0.46426 0.9834 0.84572 0.0
H1708 H 0.4552 0.97793 0.86183 0.0
H1709 H 0.47076 0.97766 0.85937 0.0
H1710 H 0.5166 0.0383 0.86845 0.0
H1711 H 0.51424 0.02859 0.85269 0.0
H1712 H 0.51719 0.02296 0.86894 0.0
H1713 H 0.5494 0.97 0.86403 0.0
H1714 H 0.55155 0.9499 0.86679 0.0
H1715 H 0.53451 0.94502 0.86068 0.0
H1716 H 0.53727 0.94247 0.87863 0.0
H1717 H 0.50644 0.9525 0.87202 0.0
H1718 H 0.54657 0.98844 0.86828 0.0
H1719 H 0.48884 0.96172 0.84846 0.0
H1720 H 0.48687 0.96664 0.86559 0.0
H1721 H 0.4863 0.95083 0.86295 0.0
H1722 H 0.5498 0.00899 0.85959 0.0
H1723 H 0.53503 0.0109 0.85992 0.0
H1724 H 0.53898 0.0052 0.84427 0.0
H1725 H 0.49351 0.99025 0.77365 0.0
H1726 H 0.47875 0.00752 0.81075 0.0
H1727 H 0.48182 0.00939 0.83553 0.0
H1728 H 0.50322 0.99505 0.86907 0.0
H1729 H 0.52062 0.98058 0.83166 0.0
H1730 H 0.51883 0.98016 0.80678 0.0
H1731 H 0.46834 0.04526 0.88161 0.0
H1732 H 0.45507 0.03882 0.86808 0.0
H1733 H 0.47172 0.04133 0.86446 0.0
C1734 C 0.99083 0.53767 0.73439 0.0
C1735 C 0.98417 0.54191 0.74546 0.0
C1736 C 0.99291 0.53746 0.76657 0.0
C1737 C 0.98096 0.52649 0.77218 0.0
C1738 C 0.98177 0.51722 0.78091 0.0
C1739 C 0.99479 0.51893 0.78396 0.0
C1740 C 0.0069 0.53023 0.77861 0.0
C1741 C 0.00579 0.53951 0.77016 0.0
C1742 C 0.96869 0.50549 0.7867 0.0
C1743 C 0.02095 0.53229 0.78146 0.0
C1744 C 0.96709 0.44049 0.73536 0.0
C1745 C 0.97967 0.44144 0.74248 0.0
C1746 C 0.98207 0.45121 0.76559 0.0
C1747 C 0.99559 0.46255 0.76555 0.0
C1748 C 0.99957 0.47387 0.77435 0.0
C1749 C 0.98979 0.4738 0.78333 0.0
C1750 C 0.97627 0.46215 0.78373 0.0
C1751 C 0.97265 0.45089 0.77497 0.0
C1752 C 0.01416 0.48598 0.77391 0.0
C1753 C 0.96556 0.46175 0.79313 0.0
C1754 C 0.01571 0.46408 0.87012 0.0
C1755 C 0.02673 0.47486 0.86305 0.0
C1756 C 0.025 0.4845 0.85601 0.0
C1757 C 0.01202 0.48339 0.85603 0.0
C1758 C 0.00095 0.47264 0.8632 0.0
C1759 C 0.00295 0.46312 0.87014 0.0
C1760 C 0.03703 0.49586 0.84844 0.0
C1761 C 0.98698 0.47117 0.86345 0.0
C1762 C 0.02426 0.5803 0.86047 0.0
C1763 C 0.01761 0.57136 0.87312 0.0
C1764 C 0.02089 0.55223 0.87035 0.0
C1765 C 0.03154 0.55075 0.86549 0.0
C1766 C 0.02869 0.53866 0.85873 0.0
C1767 C 0.01483 0.52771 0.85715 0.0
C1768 C 0.00407 0.52887 0.86279 0.0
C1769 C 0.00721 0.54117 0.86931 0.0
C1770 C 0.04043 0.53771 0.853 0.0
C1771 C 0.98924 0.51721 0.86173 0.0
C1772 C 0.99566 0.50843 0.792 0.0
C1773 C 0.99261 0.49649 0.78492 0.0
C1774 C 0.99343 0.48623 0.79162 0.0
C1775 C 0.99758 0.48792 0.80579 0.0
C1776 C 0.99888 0.47796 0.81277 0.0
C1777 C 0.00295 0.47973 0.82673 0.0
C1778 C 0.00585 0.49151 0.83426 0.0
C1779 C 0.01004 0.49343 0.84845 0.0
C1780 C 0.01276 0.50522 0.85564 0.0
C1781 C 0.01155 0.51531 0.84901 0.0
C1782 C 0.0075 0.51364 0.83479 0.0
C1783 C 0.00634 0.52366 0.82776 0.0
C1784 C 0.00235 0.52194 0.81378 0.0
C1785 C 0.99951 0.51019 0.80626 0.0
C1786 C 0.00055 0.49992 0.81315 0.0
C1787 C 0.0046 0.50167 0.82742 0.0
C1788 C 0.03016 0.44695 0.865 0.0
C1789 C 0.02834 0.45328 0.87827 0.0
O1790 O 0.99225 0.54609 0.75755 0.0
O1791 O 0.02416 0.56436 0.87618 0.0
O1792 O 0.0168 0.45437 0.87694 0.0
O1793 O 0.97786 0.44043 0.75675 0.0
H1794 H 0.97373 0.53298 0.74756 0.0
H1795 H 0.99154 0.52895 0.7381 0.0
H1796 H 0.0014 0.54629 0.73215 0.0
H1797 H 0.9845 0.5344 0.72461 0.0
H1798 H 0.97101 0.52517 0.76977 0.0
H1799 H 0.01495 0.54811 0.76586 0.0
H1800 H 0.96648 0.49581 0.78168 0.0
H1801 H 0.95966 0.50659 0.78487 0.0
H1802 H 0.96999 0.50471 0.79806 0.0
H1803 H 0.0292 0.54099 0.77566 0.0
H1804 H 0.02089 0.52291 0.77856 0.0
H1805 H 0.0235 0.53426 0.79275 0.0
H1806 H 0.98888 0.45146 0.73983 0.0
H1807 H 0.96834 0.44122 0.7239 0.0
H1808 H 0.96598 0.44902 0.73906 0.0
H1809 H 0.95751 0.4307 0.73779 0.0
H1810 H 0.00305 0.46255 0.75867 0.0
H1811 H 0.96229 0.44198 0.77504 0.0
H1812 H 0.01868 0.48893 0.78461 0.0
H1813 H 0.01407 0.49482 0.76953 0.0
H1814 H 0.02089 0.4839 0.76745 0.0
H1815 H 0.95539 0.4521 0.79188 0.0
H1816 H 0.96424 0.47045 0.79087 0.0
H1817 H 0.9691 0.46286 0.80415 0.0
H1818 H 0.03771 0.46357 0.88016 0.0
H1819 H 0.0367 0.47582 0.86287 0.0
H1820 H 0.9945 0.45481 0.87561 0.0
H1821 H 0.03429 0.49534 0.83723 0.0
H1822 H 0.04649 0.49537 0.84944 0.0
H1823 H 0.03933 0.50588 0.85263 0.0
H1824 H 0.97943 0.4623 0.86958 0.0
H1825 H 0.98285 0.46994 0.85265 0.0
H1826 H 0.98801 0.48058 0.86798 0.0
H1827 H 0.00651 0.56414 0.87048 0.0
H1828 H 0.01919 0.58607 0.85796 0.0
H1829 H 0.02304 0.5738 0.85129 0.0
H1830 H 0.03546 0.58763 0.86248 0.0
H1831 H 0.04209 0.55928 0.86662 0.0
H1832 H 0.999 0.54205 0.87367 0.0
H1833 H 0.03866 0.53517 0.8417 0.0
H1834 H 0.04085 0.52936 0.85818 0.0
H1835 H 0.05057 0.54735 0.85458 0.0
H1836 H 0.98229 0.51918 0.86796 0.0
H1837 H 0.98836 0.50766 0.86533 0.0
H1838 H 0.98566 0.51556 0.85069 0.0
H1839 H 0.98956 0.49517 0.774 0.0
H1840 H 0.99679 0.4687 0.80749 0.0
H1841 H 0.00378 0.47172 0.83156 0.0
H1842 H 0.01598 0.50663 0.86651 0.0
H1843 H 0.0085 0.53297 0.83297 0.0
H1844 H 0.00156 0.52995 0.80894 0.0
H1845 H 0.03925 0.44586 0.86618 0.0
H1846 H 0.03187 0.45352 0.85595 0.0
H1847 H 0.02083 0.43674 0.86274 0.0
C1848 C 0.51705 0.57877 0.74056 0.0
C1849 C 0.5278 0.58448 0.75253 0.0
C1850 C 0.51584 0.56626 0.76967 0.0
C1851 C 0.50578 0.56924 0.77338 0.0
C1852 C 0.49483 0.56044 0.78193 0.0
C1853 C 0.49395 0.54849 0.78687 0.0
C1854 C 0.50431 0.54572 0.78353 0.0
C1855 C 0.51516 0.5547 0.77502 0.0
C1856 C 0.48403 0.56376 0.78548 0.0
C1857 C 0.50371 0.53308 0.78865 0.0
C1858 C 0.40875 0.48462 0.73247 0.0
C1859 C 0.41709 0.48139 0.74258 0.0
C1860 C 0.42509 0.49153 0.76568 0.0
C1861 C 0.43651 0.49007 0.76721 0.0
C1862 C 0.44723 0.4983 0.77677 0.0
C1863 C 0.44661 0.50838 0.78473 0.0
C1864 C 0.43493 0.50966 0.78336 0.0
C1865 C 0.42416 0.50096 0.77406 0.0
C1866 C 0.45933 0.49639 0.77815 0.0
C1867 C 0.43398 0.52048 0.79135 0.0
C1868 C 0.42301 0.484 0.87286 0.0
C1869 C 0.43432 0.48272 0.86979 0.0
C1870 C 0.44601 0.49336 0.86342 0.0
C1871 C 0.44643 0.50553 0.86019 0.0
C1872 C 0.4353 0.50705 0.86381 0.0
C1873 C 0.42377 0.49627 0.87021 0.0
C1874 C 0.45788 0.49158 0.86001 0.0
C1875 C 0.4355 0.51996 0.86066 0.0
C1876 C 0.53452 0.60079 0.87773 0.0
C1877 C 0.52884 0.59127 0.89017 0.0
C1878 C 0.51457 0.56861 0.87875 0.0
C1879 C 0.5141 0.55656 0.87529 0.0
C1880 C 0.50318 0.54623 0.8672 0.0
C1881 C 0.49242 0.54801 0.86248 0.0
C1882 C 0.49269 0.56009 0.8661 0.0
C1883 C 0.50376 0.57028 0.87418 0.0
C1884 C 0.50319 0.53347 0.86357 0.0
C1885 C 0.4813 0.56225 0.86132 0.0
C1886 C 0.48177 0.53841 0.79476 0.0
C1887 C 0.4702 0.52857 0.78711 0.0
C1888 C 0.45859 0.5182 0.79369 0.0
C1889 C 0.45852 0.51752 0.80837 0.0
C1890 C 0.44729 0.50691 0.81534 0.0
C1891 C 0.44718 0.50651 0.82979 0.0
C1892 C 0.45835 0.51668 0.83785 0.0
C1893 C 0.45826 0.51645 0.85255 0.0
C1894 C 0.46949 0.52675 0.86025 0.0
C1895 C 0.48095 0.53731 0.85365 0.0
C1896 C 0.4813 0.53764 0.83894 0.0
C1897 C 0.49275 0.548 0.83195 0.0
C1898 C 0.49296 0.54825 0.81748 0.0
C1899 C 0.48169 0.53822 0.80945 0.0
C1900 C 0.47003 0.5277 0.81628 0.0
C1901 C 0.4699 0.52733 0.83103 0.0
C1902 C 0.39329 0.45563 0.86534 0.0
C1903 C 0.40505 0.45997 0.87598 0.0
O1904 O 0.52625 0.57403 0.76087 0.0
O1905 O 0.52566 0.57827 0.88638 0.0
O1906 O 0.41142 0.47386 0.87877 0.0
O1907 O 0.41494 0.48416 0.75605 0.0
H1908 H 0.52658 0.59189 0.75889 0.0
H1909 H 0.50644 0.5738 0.74462 0.0
H1910 H 0.51792 0.5711 0.7343 0.0
H1911 H 0.5186 0.58714 0.73368 0.0
H1912 H 0.50629 0.57828 0.76955 0.0
H1913 H 0.52303 0.55255 0.77221 0.0
H1914 H 0.47393 0.55588 0.78078 0.0
H1915 H 0.48667 0.57391 0.78166 0.0
H1916 H 0.48279 0.56358 0.79693 0.0
H1917 H 0.51265 0.53246 0.78522 0.0
H1918 H 0.49406 0.52385 0.78475 0.0
H1919 H 0.50351 0.53296 0.80019 0.0
H1920 H 0.42816 0.48823 0.73989 0.0
H1921 H 0.4104 0.48259 0.72157 0.0
H1922 H 0.41215 0.49556 0.73354 0.0
H1923 H 0.39755 0.47835 0.73468 0.0
H1924 H 0.43705 0.48251 0.76093 0.0
H1925 H 0.41521 0.5019 0.77284 0.0
H1926 H 0.46216 0.49655 0.78928 0.0
H1927 H 0.46839 0.50492 0.77302 0.0
H1928 H 0.45711 0.48665 0.77324 0.0
H1929 H 0.42521 0.52136 0.78762 0.0
H1930 H 0.44368 0.53056 0.79044 0.0
H1931 H 0.43255 0.51792 0.80253 0.0
H1932 H 0.41235 0.45743 0.87138 0.0
H1933 H 0.43419 0.47357 0.87251 0.0
H1934 H 0.41511 0.49726 0.8729 0.0
H1935 H 0.45939 0.49223 0.8486 0.0
H1936 H 0.45615 0.48166 0.86354 0.0
H1937 H 0.46754 0.49996 0.865 0.0
H1938 H 0.42617 0.51967 0.86445 0.0
H1939 H 0.43613 0.52154 0.84926 0.0
H1940 H 0.4448 0.52886 0.86557 0.0
H1941 H 0.51943 0.59084 0.89394 0.0
H1942 H 0.53724 0.61124 0.88083 0.0
H1943 H 0.52668 0.59712 0.86916 0.0
H1944 H 0.54386 0.60123 0.87374 0.0
H1945 H 0.52244 0.55532 0.87888 0.0
H1946 H 0.50387 0.57948 0.8768 0.0
H1947 H 0.5029 0.53216 0.85209 0.0
H1948 H 0.49378 0.52443 0.86765 0.0
H1949 H 0.51242 0.53371 0.86789 0.0
H1950 H 0.48276 0.57199 0.86538 0.0
H1951 H 0.47118 0.55369 0.86478 0.0
H1952 H 0.48091 0.56229 0.84978 0.0
H1953 H 0.47027 0.52895 0.77584 0.0
H1954 H 0.43842 0.49881 0.80968 0.0
H1955 H 0.43821 0.49814 0.83457 0.0
H1956 H 0.46929 0.52655 0.87153 0.0
H1957 H 0.50169 0.55602 0.83759 0.0
H1958 H 0.50203 0.55646 0.81265 0.0
H1959 H 0.38563 0.45797 0.86932 0.0
H1960 H 0.38801 0.4445 0.86301 0.0
H1961 H 0.39749 0.46118 0.85551 0.0
C1962 C 0.62719 0.77551 0.62227 0.0
C1963 C 0.6311 0.76989 0.60981 0.0
C1964 C 0.63666 0.78772 0.59264 0.0
C1965 C 0.62296 0.784 0.58967 0.0
C1966 C 0.62008 0.7921 0.58122 0.0
C1967 C 0.63108 0.80418 0.57559 0.0
C1968 C 0.64486 0.80784 0.57831 0.0
C1969 C 0.64745 0.7995 0.58676 0.0
C1970 C 0.60524 0.78784 0.57844 0.0
C1971 C 0.65681 0.82062 0.5724 0.0
C1972 C 0.60136 0.86966 0.60696 0.0
C1973 C 0.61603 0.87284 0.61014 0.0
C1974 C 0.62228 0.86283 0.591 0.0
C1975 C 0.63208 0.86603 0.5808 0.0
C1976 C 0.6325 0.85578 0.57324 0.0
C1977 C 0.62239 0.84191 0.57553 0.0
C1978 C 0.6123 0.83857 0.58574 0.0
C1979 C 0.61249 0.84905 0.59354 0.0
C1980 C 0.64383 0.85987 0.56289 0.0
C1981 C 0.60126 0.82394 0.58844 0.0
C1982 C 0.59173 0.84166 0.48779 0.0
C1983 C 0.6058 0.84887 0.49154 0.0
C1984 C 0.61168 0.84233 0.4984 0.0
C1985 C 0.60316 0.82845 0.50202 0.0
C1986 C 0.58898 0.82116 0.4981 0.0
C1987 C 0.58354 0.82783 0.49079 0.0
C1988 C 0.62697 0.85028 0.50176 0.0
C1989 C 0.57953 0.80637 0.50174 0.0
C1990 C 0.62437 0.75124 0.49361 0.0
C1991 C 0.6187 0.75384 0.48022 0.0
C1992 C 0.62196 0.77631 0.48586 0.0
C1993 C 0.63149 0.79031 0.48511 0.0
C1994 C 0.62977 0.79976 0.49269 0.0
C1995 C 0.61798 0.79507 0.50095 0.0
C1996 C 0.60799 0.78093 0.50137 0.0
C1997 C 0.61018 0.77167 0.49399 0.0
C1998 C 0.64064 0.81475 0.49199 0.0
C1999 C 0.59504 0.77559 0.50968 0.0
C2000 C 0.62805 0.81312 0.56725 0.0
C2001 C 0.62707 0.82324 0.5743 0.0
C2002 C 0.62262 0.83095 0.56746 0.0
C2003 C 0.61876 0.82833 0.55318 0.0
C2004 C 0.61312 0.83503 0.5462 0.0
C2005 C 0.60971 0.83265 0.53208 0.0
C2006 C 0.61201 0.82363 0.52432 0.0
C2007 C 0.609 0.82147 0.50985 0.0
C2008 C 0.61121 0.81223 0.50257 0.0
C2009 C 0.6162 0.80493 0.50932 0.0
C2010 C 0.6193 0.80699 0.52377 0.0
C2011 C 0.62435 0.79983 0.53091 0.0
C2012 C 0.62709 0.80171 0.54517 0.0
C2013 C 0.62526 0.81111 0.55277 0.0
C2014 C 0.62048 0.81866 0.54573 0.0
C2015 C 0.61728 0.81645 0.53126 0.0
C2016 C 0.57572 0.86113 0.4826 0.0
C2017 C 0.58906 0.86097 0.4831 0.0
O2018 O 0.63993 0.78042 0.6012 0.0
O2019 O 0.62458 0.76776 0.47856 0.0
O2020 O 0.58574 0.84764 0.4811 0.0
O2021 O 0.6226 0.87334 0.59794 0.0
H2022 H 0.6216 0.76242 0.60384 0.0
H2023 H 0.62165 0.78054 0.61874 0.0
H2024 H 0.63659 0.78312 0.62828 0.0
H2025 H 0.62026 0.7671 0.62925 0.0
H2026 H 0.61442 0.77486 0.59396 0.0
H2027 H 0.65798 0.80229 0.58901 0.0
H2028 H 0.60348 0.79589 0.58237 0.0
H2029 H 0.59783 0.77807 0.58344 0.0
H2030 H 0.60305 0.78669 0.56705 0.0
H2031 H 0.66692 0.82187 0.57517 0.0
H2032 H 0.65673 0.82966 0.57637 0.0
H2033 H 0.65569 0.82037 0.5609 0.0
H2034 H 0.61535 0.86473 0.61692 0.0
H2035 H 0.59631 0.86971 0.61676 0.0
H2036 H 0.59497 0.85944 0.60193 0.0
H2037 H 0.60155 0.87728 0.59983 0.0
H2038 H 0.63962 0.87667 0.57893 0.0
H2039 H 0.60485 0.84635 0.60144 0.0
H2040 H 0.63955 0.8588 0.5522 0.0
H2041 H 0.64811 0.85317 0.56361 0.0
H2042 H 0.65239 0.87063 0.56452 0.0
H2043 H 0.59277 0.82317 0.59472 0.0
H2044 H 0.60591 0.81897 0.59421 0.0
H2045 H 0.59683 0.81819 0.57849 0.0
H2046 H 0.59383 0.86476 0.49366 0.0
H2047 H 0.61225 0.85951 0.48889 0.0
H2048 H 0.57271 0.82234 0.48769 0.0
H2049 H 0.62865 0.85274 0.51307 0.0
H2050 H 0.63248 0.86001 0.49603 0.0
H2051 H 0.63159 0.84413 0.49918 0.0
H2052 H 0.56849 0.80276 0.49964 0.0
H2053 H 0.58088 0.80482 0.51289 0.0
H2054 H 0.58221 0.79997 0.49548 0.0
H2055 H 0.60729 0.74871 0.48073 0.0
H2056 H 0.61969 0.74012 0.49509 0.0
H2057 H 0.62184 0.75541 0.50276 0.0
H2058 H 0.63577 0.75622 0.49319 0.0
H2059 H 0.6405 0.7938 0.47875 0.0
H2060 H 0.60259 0.7609 0.49461 0.0
H2061 H 0.64418 0.81912 0.50266 0.0
H2062 H 0.63614 0.82025 0.48702 0.0
H2063 H 0.64973 0.81664 0.48597 0.0
H2064 H 0.58743 0.76463 0.50736 0.0
H2065 H 0.59011 0.78154 0.5075 0.0
H2066 H 0.59774 0.77678 0.52095 0.0
H2067 H 0.62965 0.825 0.58534 0.0
H2068 H 0.61123 0.84216 0.5516 0.0
H2069 H 0.60535 0.83807 0.5273 0.0
H2070 H 0.60886 0.81059 0.49149 0.0
H2071 H 0.62615 0.7926 0.52558 0.0
H2072 H 0.63083 0.79583 0.55014 0.0
H2073 H 0.57049 0.8575 0.47225 0.0
H2074 H 0.57792 0.8716 0.48468 0.0
H2075 H 0.56861 0.85432 0.49067 0.0
C2076 C 0.133 0.72023 0.60477 0.0
C2077 C 0.13071 0.73193 0.60815 0.0
C2078 C 0.14137 0.74991 0.59076 0.0
C2079 C 0.13834 0.75779 0.58226 0.0
C2080 C 0.14887 0.76986 0.57644 0.0
C2081 C 0.16282 0.77376 0.57861 0.0
C2082 C 0.16597 0.76571 0.58707 0.0
C2083 C 0.15522 0.75397 0.59324 0.0
C2084 C 0.145 0.77841 0.568 0.0
C2085 C 0.18068 0.7694 0.58952 0.0
C2086 C 0.23851 0.84996 0.63025 0.0
C2087 C 0.24005 0.85831 0.61733 0.0
C2088 C 0.21912 0.84352 0.60296 0.0
C2089 C 0.22274 0.83407 0.59883 0.0
C2090 C 0.21409 0.82309 0.58981 0.0
C2091 C 0.20159 0.82151 0.58479 0.0
C2092 C 0.19785 0.83092 0.58898 0.0
C2093 C 0.20668 0.8418 0.59803 0.0
C2094 C 0.21833 0.81316 0.5856 0.0
C2095 C 0.1846 0.82952 0.58381 0.0
C2096 C 0.22991 0.85247 0.49933 0.0
C2097 C 0.23408 0.84377 0.50452 0.0
C2098 C 0.22439 0.83096 0.50979 0.0
C2099 C 0.21031 0.82686 0.51014 0.0
C2100 C 0.20606 0.83551 0.5048 0.0
C2101 C 0.21592 0.84817 0.4994 0.0
C2102 C 0.22924 0.82189 0.51526 0.0
C2103 C 0.19113 0.83147 0.50505 0.0
C2104 C 0.13743 0.71794 0.48385 0.0
C2105 C 0.13889 0.73182 0.48215 0.0
C2106 C 0.15985 0.75364 0.48801 0.0
C2107 C 0.17371 0.75876 0.49139 0.0
C2108 C 0.18136 0.7706 0.49969 0.0
C2109 C 0.17504 0.77768 0.50437 0.0
C2110 C 0.16122 0.77298 0.50028 0.0
C2111 C 0.15372 0.76092 0.49222 0.0
C2112 C 0.19609 0.77535 0.50372 0.0
C2113 C 0.15432 0.78057 0.50459 0.0
C2114 C 0.17406 0.78628 0.57207 0.0
C2115 C 0.1822 0.7978 0.58058 0.0
C2116 C 0.19255 0.81006 0.57502 0.0
C2117 C 0.19448 0.81112 0.56049 0.0
C2118 C 0.20425 0.82353 0.55448 0.0
C2119 C 0.20603 0.82449 0.54017 0.0
C2120 C 0.1983 0.81302 0.53132 0.0
C2121 C 0.20015 0.81387 0.51677 0.0
C2122 C 0.19234 0.80227 0.50828 0.0
C2123 C 0.18274 0.7897 0.51394 0.0
C2124 C 0.18075 0.78865 0.52849 0.0
C2125 C 0.17131 0.77615 0.53459 0.0
C2126 C 0.16918 0.77532 0.54886 0.0
C2127 C 0.17646 0.78692 0.55761 0.0
C2128 C 0.18647 0.79948 0.55177 0.0
C2129 C 0.1885 0.80038 0.53718 0.0
C2130 C 0.25973 0.87817 0.50791 0.0
C2131 C 0.25314 0.87167 0.49373 0.0
O2132 O 0.13064 0.73837 0.59608 0.0
O2133 O 0.15273 0.74168 0.48069 0.0
O2134 O 0.23889 0.86507 0.4943 0.0
O2135 O 0.22717 0.85434 0.61167 0.0
H2136 H 0.13922 0.73927 0.61532 0.0
H2137 H 0.14342 0.72427 0.60049 0.0
H2138 H 0.1253 0.71301 0.59693 0.0
H2139 H 0.13224 0.71458 0.61436 0.0
H2140 H 0.12762 0.75457 0.58042 0.0
H2141 H 0.15771 0.74791 0.59973 0.0
H2142 H 0.15207 0.78943 0.57049 0.0
H2143 H 0.13423 0.77565 0.56988 0.0
H2144 H 0.14587 0.77678 0.55677 0.0
H2145 H 0.18124 0.76099 0.5944 0.0
H2146 H 0.18609 0.77852 0.59652 0.0
H2147 H 0.18628 0.772 0.57956 0.0
H2148 H 0.24622 0.85672 0.60951 0.0
H2149 H 0.24882 0.85326 0.63486 0.0
H2150 H 0.2333 0.83895 0.62746 0.0
H2151 H 0.23225 0.85126 0.63818 0.0
H2152 H 0.23224 0.83511 0.60259 0.0
H2153 H 0.20393 0.84909 0.60128 0.0
H2154 H 0.21954 0.81334 0.57415 0.0
H2155 H 0.21014 0.80264 0.58832 0.0
H2156 H 0.22819 0.81556 0.5907 0.0
H2157 H 0.1832 0.83774 0.58798 0.0
H2158 H 0.17569 0.8195 0.58687 0.0
H2159 H 0.1845 0.82979 0.57226 0.0
H2160 H 0.25618 0.86426 0.49076 0.0
H2161 H 0.24483 0.84688 0.50463 0.0
H2162 H 0.21278 0.85491 0.49537 0.0
H2163 H 0.22793 0.82098 0.52669 0.0
H2164 H 0.24026 0.82592 0.513 0.0
H2165 H 0.22287 0.81148 0.51059 0.0
H2166 H 0.18952 0.83943 0.50067 0.0
H2167 H 0.18747 0.82955 0.51592 0.0
H2168 H 0.18469 0.82183 0.49898 0.0
H2169 H 0.13487 0.73378 0.49184 0.0
H2170 H 0.12642 0.70985 0.48515 0.0
H2171 H 0.14336 0.71819 0.49324 0.0
H2172 H 0.14148 0.71534 0.47465 0.0
H2173 H 0.17839 0.75316 0.48788 0.0
H2174 H 0.14312 0.75724 0.48918 0.0
H2175 H 0.19749 0.77649 0.51521 0.0
H2176 H 0.20313 0.78551 0.49923 0.0
H2177 H 0.19918 0.76819 0.50001 0.0
H2178 H 0.1443 0.77671 0.499 0.0
H2179 H 0.16117 0.79163 0.50261 0.0
H2180 H 0.1524 0.77941 0.51593 0.0
H2181 H 0.18051 0.7972 0.5917 0.0
H2182 H 0.21053 0.83268 0.56076 0.0
H2183 H 0.2136 0.83434 0.53614 0.0
H2184 H 0.19383 0.80301 0.49713 0.0
H2185 H 0.16538 0.76688 0.5284 0.0
H2186 H 0.16174 0.76544 0.55295 0.0
H2187 H 0.27117 0.88363 0.50739 0.0
H2188 H 0.25633 0.8702 0.51591 0.0
H2189 H 0.25671 0.8855 0.51122 0.0
C2190 C 0.15774 0.39274 0.6257 0.0
C2191 C 0.14728 0.38615 0.61355 0.0
C2192 C 0.15906 0.37884 0.5975 0.0
C2193 C 0.1696 0.39196 0.59364 0.0
C2194 C 0.18018 0.39372 0.58488 0.0
C2195 C 0.18003 0.38213 0.57959 0.0
C2196 C 0.16918 0.36892 0.58307 0.0
C2197 C 0.15889 0.36747 0.59204 0.0
C2198 C 0.19167 0.40797 0.5815 0.0
C2199 C 0.16856 0.35632 0.57748 0.0
C2200 C 0.27577 0.39552 0.59852 0.0
C2201 C 0.2636 0.38554 0.60744 0.0
C2202 C 0.24311 0.37882 0.59254 0.0
C2203 C 0.23236 0.36804 0.58482 0.0
C2204 C 0.22245 0.3696 0.5777 0.0
C2205 C 0.22345 0.38237 0.57818 0.0
C2206 C 0.23425 0.39333 0.586 0.0
C2207 C 0.24393 0.39144 0.59317 0.0
C2208 C 0.21094 0.35762 0.56963 0.0
C2209 C 0.23561 0.40709 0.58668 0.0
C2210 C 0.25183 0.40011 0.49037 0.0
C2211 C 0.24054 0.38689 0.4925 0.0
C2212 C 0.22885 0.38485 0.49945 0.0
C2213 C 0.22849 0.39628 0.50438 0.0
C2214 C 0.23964 0.40961 0.50176 0.0
C2215 C 0.25111 0.41134 0.49463 0.0
C2216 C 0.21694 0.3705 0.50167 0.0
C2217 C 0.23954 0.42202 0.50672 0.0
C2218 C 0.14723 0.41146 0.48989 0.0
C2219 C 0.15126 0.40502 0.47834 0.0
C2220 C 0.16254 0.39442 0.49033 0.0
C2221 C 0.16125 0.38195 0.49325 0.0
C2222 C 0.17172 0.38137 0.50045 0.0
C2223 C 0.1837 0.39362 0.50507 0.0
C2224 C 0.18513 0.40631 0.50215 0.0
C2225 C 0.17458 0.4066 0.49473 0.0
C2226 C 0.16993 0.36766 0.50319 0.0
C2227 C 0.19777 0.41956 0.50696 0.0
C2228 C 0.19159 0.38382 0.57105 0.0
C2229 C 0.20196 0.38278 0.57776 0.0
C2230 C 0.21317 0.38422 0.57047 0.0
C2231 C 0.21427 0.38701 0.5561 0.0
C2232 C 0.22563 0.38895 0.54855 0.0
C2233 C 0.22651 0.39146 0.53436 0.0
C2234 C 0.216 0.39202 0.52715 0.0
C2235 C 0.21667 0.39431 0.51267 0.0
C2236 C 0.20603 0.39479 0.50582 0.0
C2237 C 0.19469 0.39314 0.51306 0.0
C2238 C 0.19387 0.39093 0.52756 0.0
C2239 C 0.18267 0.38932 0.53519 0.0
C2240 C 0.18187 0.38697 0.54943 0.0
C2241 C 0.19229 0.38623 0.5566 0.0
C2242 C 0.20371 0.38787 0.54911 0.0
C2243 C 0.20453 0.39029 0.5346 0.0
C2244 C 0.28335 0.40413 0.49436 0.0
C2245 C 0.26991 0.39517 0.48605 0.0
O2246 O 0.14902 0.37659 0.60656 0.0
O2247 O 0.15188 0.39412 0.48341 0.0
O2248 O 0.26341 0.4024 0.484 0.0
O2249 O 0.25239 0.37654 0.59904 0.0
H2250 H 0.14872 0.39422 0.60624 0.0
H2251 H 0.16846 0.39847 0.62188 0.0
H2252 H 0.15684 0.38486 0.63294 0.0
H2253 H 0.15596 0.40004 0.63153 0.0
H2254 H 0.1698 0.4009 0.59755 0.0
H2255 H 0.15068 0.35739 0.59497 0.0
H2256 H 0.20181 0.4093 0.5843 0.0
H2257 H 0.19073 0.41593 0.58707 0.0
H2258 H 0.19158 0.40956 0.57014 0.0
H2259 H 0.15867 0.34683 0.57985 0.0
H2260 H 0.17716 0.35567 0.58215 0.0
H2261 H 0.16988 0.35695 0.56603 0.0
H2262 H 0.26068 0.3914 0.61433 0.0
H2263 H 0.28481 0.40253 0.60529 0.0
H2264 H 0.27302 0.4018 0.5922 0.0
H2265 H 0.27873 0.38993 0.59132 0.0
H2266 H 0.23177 0.35834 0.58441 0.0
H2267 H 0.25212 0.39992 0.59911 0.0
H2268 H 0.21196 0.35991 0.55837 0.0
H2269 H 0.2008 0.35583 0.57286 0.0
H2270 H 0.21103 0.34811 0.57115 0.0
H2271 H 0.24501 0.41481 0.59258 0.0
H2272 H 0.22642 0.40609 0.59174 0.0
H2273 H 0.23597 0.41082 0.57599 0.0
H2274 H 0.26345 0.38592 0.49231 0.0
H2275 H 0.24078 0.37816 0.48862 0.0
H2276 H 0.25978 0.4215 0.49268 0.0
H2277 H 0.21598 0.36832 0.51295 0.0
H2278 H 0.21828 0.36276 0.49617 0.0
H2279 H 0.20714 0.36946 0.49797 0.0
H2280 H 0.24926 0.43169 0.50433 0.0
H2281 H 0.23803 0.42159 0.51814 0.0
H2282 H 0.23076 0.42212 0.50169 0.0
H2283 H 0.16149 0.41286 0.47428 0.0
H2284 H 0.14647 0.42001 0.48571 0.0
H2285 H 0.15511 0.41558 0.49843 0.0
H2286 H 0.13715 0.40379 0.49432 0.0
H2287 H 0.15195 0.37262 0.48981 0.0
H2288 H 0.17579 0.41636 0.49258 0.0
H2289 H 0.1692 0.36586 0.51455 0.0
H2290 H 0.17907 0.36751 0.49954 0.0
H2291 H 0.16052 0.35916 0.49796 0.0
H2292 H 0.19695 0.42854 0.50465 0.0
H2293 H 0.20699 0.4208 0.50174 0.0
H2294 H 0.19943 0.41936 0.51834 0.0
H2295 H 0.20125 0.38072 0.5888 0.0
H2296 H 0.234 0.38856 0.55353 0.0
H2297 H 0.23551 0.39287 0.52912 0.0
H2298 H 0.20658 0.39647 0.4947 0.0
H2299 H 0.17435 0.38983 0.53024 0.0
H2300 H 0.17296 0.38573 0.55474 0.0
H2301 H 0.28873 0.39854 0.49619 0.0
H2302 H 0.28105 0.40693 0.50462 0.0
H2303 H 0.29031 0.41366 0.48872 0.0
H2304 H 0.96498 0.35674 0.05126 0.0
H2305 H 0.96899 0.37111 0.07178 0.0
H2306 H 0.01092 0.38051 0.0751 0.0
H2307 H 0.007 0.36603 0.0546 0.0
H2308 H 0.99701 0.37586 0.10127 0.0
H2309 H 0.99323 0.41318 0.06833 0.0
H2310 H 0.97869 0.396 0.06673 0.0
H2311 H 0.99535 0.39987 0.06114 0.0
C2312 C 0.97501 0.3617 0.05644 0.0
C2313 C 0.98573 0.36037 0.05117 0.0
C2314 C 0.97729 0.36995 0.06814 0.0
C2315 C 0.99032 0.37707 0.07474 0.0
C2316 C 0.00081 0.37515 0.07006 0.0
H2317 H 0.01996 0.44889 0.12828 0.0
H2318 H 0.01731 0.43261 0.11004 0.0
C2319 C 0.99854 0.36686 0.05835 0.0
C2320 C 0.99318 0.38712 0.08602 0.0
H2321 H 0.99435 0.41686 0.09274 0.0
C2322 C 0.99648 0.38485 0.09943 0.0
C2323 C 0.99271 0.39895 0.0835 0.0
C2324 C 0.98993 0.40226 0.06913 0.0
C2325 C 0.99895 0.39396 0.1105 0.0
C2326 C 0.99794 0.40551 0.10808 0.0
C2327 C 0.99499 0.40793 0.09459 0.0
C2328 C 0.99981 0.4152 0.11938 0.0
C2329 C 0.00277 0.39124 0.12466 0.0
C2330 C 0.99078 0.41082 0.13059 0.0
C2331 C 0.99223 0.42009 0.14096 0.0
C2332 C 0.00263 0.43396 0.1402 0.0
C2333 C 0.01173 0.4383 0.129 0.0
C2334 C 0.01026 0.42902 0.11863 0.0
H2335 H 0.00667 0.38421 0.12398 0.0
H2336 H 0.01077 0.40088 0.12992 0.0
H2337 H 0.99349 0.38641 0.13122 0.0
H2338 H 0.9825 0.40024 0.13123 0.0
H2339 H 0.98518 0.41644 0.14955 0.0
H2340 H 0.6308 0.59454 0.042 0.0
H2341 H 0.61907 0.58193 0.0627 0.0
H2342 H 0.63073 0.61967 0.08415 0.0
H2343 H 0.64208 0.63237 0.06323 0.0
H2344 H 0.62745 0.5818 0.08845 0.0
H2345 H 0.58982 0.59854 0.08955 0.0
H2346 H 0.60102 0.60187 0.07509 0.0
H2347 H 0.60744 0.61244 0.09059 0.0
C2348 C 0.63092 0.60019 0.05112 0.0
C2349 C 0.63727 0.61446 0.05092 0.0
C2350 C 0.6242 0.59295 0.06297 0.0
C2351 C 0.62376 0.59981 0.0749 0.0
C2352 C 0.63058 0.61411 0.07494 0.0
H2353 H 0.59621 0.55896 0.15472 0.0
H2354 H 0.61013 0.57315 0.13555 0.0
C2355 C 0.63716 0.62137 0.06301 0.0
C2356 C 0.61602 0.59187 0.08717 0.0
H2357 H 0.58968 0.58557 0.10857 0.0
C2358 C 0.61918 0.58262 0.09285 0.0
C2359 C 0.60509 0.59279 0.09278 0.0
C2360 C 0.60052 0.60184 0.08662 0.0
C2361 C 0.61171 0.57423 0.10392 0.0
C2362 C 0.60104 0.57543 0.10979 0.0
C2363 C 0.59792 0.58472 0.10415 0.0
C2364 C 0.5927 0.56688 0.1215 0.0
C2365 C 0.61504 0.56386 0.10888 0.0
C2366 C 0.57823 0.55902 0.12021 0.0
C2367 C 0.57026 0.55113 0.13124 0.0
C2368 C 0.57662 0.55073 0.14373 0.0
C2369 C 0.59108 0.55878 0.14508 0.0
C2370 C 0.59904 0.56683 0.13411 0.0
H2371 H 0.62039 0.56148 0.1008 0.0
H2372 H 0.62201 0.56804 0.11817 0.0
H2373 H 0.60555 0.55421 0.11179 0.0
H2374 H 0.57309 0.55901 0.11064 0.0
H2375 H 0.55913 0.54536 0.12997 0.0
H2376 H 0.36979 0.98719 0.05275 0.0
H2377 H 0.38614 0.99672 0.07233 0.0
H2378 H 0.40059 0.0374 0.05827 0.0
H2379 H 0.38404 0.02791 0.0385 0.0
H2380 H 0.42163 0.02967 0.06414 0.0
H2381 H 0.38558 0.01872 0.10734 0.0
H2382 H 0.38031 0.00485 0.09511 0.0
H2383 H 0.38139 0.0202 0.08949 0.0
C2384 C 0.37634 0.99818 0.05384 0.0
C2385 C 0.37563 0.0068 0.04405 0.0
C2386 C 0.38563 0.0036 0.06509 0.0
C2387 C 0.39446 0.01774 0.06679 0.0
C2388 C 0.39376 0.02644 0.05715 0.0
H2389 H 0.46516 0.05706 0.12591 0.0
H2390 H 0.44882 0.05367 0.10712 0.0
C2391 C 0.38431 0.02102 0.04591 0.0
C2392 C 0.40489 0.02316 0.07825 0.0
H2393 H 0.40808 0.02356 0.1136 0.0
C2394 C 0.41877 0.02859 0.07498 0.0
C2395 C 0.40103 0.0216 0.09232 0.0
C2396 C 0.38628 0.01613 0.09634 0.0
C2397 C 0.42883 0.03187 0.08544 0.0
C2398 C 0.42489 0.02994 0.09955 0.0
C2399 C 0.41107 0.02499 0.1028 0.0
C2400 C 0.43476 0.03223 0.11105 0.0
C2401 C 0.44339 0.03665 0.08125 0.0
C2402 C 0.43205 0.02144 0.11979 0.0
C2403 C 0.44128 0.02339 0.13059 0.0
C2404 C 0.45351 0.03615 0.13277 0.0
C2405 C 0.45602 0.04703 0.12422 0.0
C2406 C 0.44672 0.0451 0.11347 0.0
H2407 H 0.44392 0.03443 0.07008 0.0
H2408 H 0.44997 0.04785 0.08297 0.0
H2409 H 0.44776 0.03174 0.0876 0.0
H2410 H 0.42281 0.01146 0.1182 0.0
H2411 H 0.43886 0.01491 0.13724 0.0
H2412 H 0.36731 0.00991 0.9657 0.0
H2413 H 0.38186 0.01468 0.94543 0.0
H2414 H 0.38754 0.98165 0.95622 0.0
H2415 H 0.3727 0.97654 0.97612 0.0
H2416 H 0.40825 0.02281 0.94521 0.0
H2417 H 0.37936 0.97413 0.91549 0.0
H2418 H 0.37189 0.97817 0.92976 0.0
H2419 H 0.38278 0.97141 0.93302 0.0
C2420 C 0.37145 0.0035 0.9636 0.0
C2421 C 0.36878 0.9928 0.97251 0.0
C2422 C 0.37979 0.00626 0.95203 0.0
C2423 C 0.38564 0.99839 0.94916 0.0
C2424 C 0.38285 0.98762 0.95795 0.0
H2425 H 0.46152 0.02544 0.90558 0.0
H2426 H 0.44352 0.01927 0.92263 0.0
C2427 C 0.37441 0.98477 0.96941 0.0
C2428 C 0.39551 0.00207 0.93765 0.0
H2429 H 0.4033 0.98875 0.90992 0.0
C2430 C 0.40708 0.0154 0.93739 0.0
C2431 C 0.3939 0.99248 0.92731 0.0
C2432 C 0.38123 0.9783 0.92631 0.0
C2433 C 0.41729 0.01929 0.92738 0.0
C2434 C 0.41613 0.00944 0.91761 0.0
C2435 C 0.40433 0.99624 0.91757 0.0
C2436 C 0.42699 0.01265 0.90731 0.0
C2437 C 0.42911 0.03395 0.92731 0.0
C2438 C 0.42361 0.01045 0.89304 0.0
C2439 C 0.43383 0.01363 0.8833 0.0
C2440 C 0.44762 0.019 0.88761 0.0
C2441 C 0.45097 0.02112 0.90192 0.0
C2442 C 0.44071 0.01778 0.91167 0.0
H2443 H 0.42625 0.04086 0.93223 0.0
H2444 H 0.43797 0.03494 0.93336 0.0
H2445 H 0.4325 0.03741 0.91656 0.0
H2446 H 0.4131 0.00648 0.88943 0.0
H2447 H 0.43101 0.01211 0.87233 0.0
H2448 H 0.01971 0.37262 0.97858 0.0
H2449 H 0.02866 0.38922 0.95973 0.0
H2450 H 0.99348 0.39367 0.96281 0.0
H2451 H 0.98448 0.37723 0.98145 0.0
H2452 H 0.01373 0.38681 0.93359 0.0
H2453 H 0.02774 0.43344 0.96444 0.0
H2454 H 0.02571 0.41827 0.9722 0.0
H2455 H 0.01079 0.4191 0.96772 0.0
C2456 C 0.01395 0.37723 0.9753 0.0
C2457 C 0.00138 0.37359 0.98152 0.0
C2458 C 0.01907 0.38668 0.96454 0.0
C2459 C 0.01179 0.39276 0.96003 0.0
C2460 C 0.99934 0.38924 0.9663 0.0
H2461 H 0.00555 0.42868 0.88525 0.0
H2462 H 0.00303 0.41423 0.90492 0.0
C2463 C 0.99418 0.37976 0.97691 0.0
C2464 C 0.01671 0.40236 0.94834 0.0
H2465 H 0.02545 0.43459 0.93981 0.0
C2466 C 0.01651 0.39732 0.93494 0.0
C2467 C 0.02041 0.41607 0.95018 0.0
C2468 C 0.02132 0.42212 0.96443 0.0
C2469 C 0.01929 0.40549 0.92323 0.0
C2470 C 0.0222 0.41897 0.925 0.0
C2471 C 0.02307 0.4242 0.93847 0.0
C2472 C 0.02384 0.42763 0.91299 0.0
C2473 C 0.01892 0.39959 0.90904 0.0
C2474 C 0.03627 0.44007 0.9112 0.0
C2475 C 0.0377 0.44837 0.90003 0.0
C2476 C 0.02664 0.44447 0.89059 0.0
C2477 C 0.01419 0.43199 0.89244 0.0
C2478 C 0.01279 0.42369 0.90358 0.0
H2479 H 0.02035 0.39079 0.90975 0.0
H2480 H 0.00872 0.39593 0.90395 0.0
H2481 H 0.02703 0.40741 0.90233 0.0
H2482 H 0.04489 0.44331 0.9184 0.0
H2483 H 0.04745 0.45786 0.89877 0.0
H2484 H 0.62686 0.61776 0.97208 0.0
H2485 H 0.6093 0.61373 0.9547 0.0
H2486 H 0.60028 0.6405 0.9774 0.0
H2487 H 0.61803 0.64469 0.99502 0.0
H2488 H 0.57656 0.61326 0.96915 0.0
H2489 H 0.61077 0.64086 0.92528 0.0
H2490 H 0.61485 0.62968 0.9341 0.0
H2491 H 0.61671 0.64427 0.94322 0.0
C2492 C 0.62124 0.62289 0.9734 0.0
C2493 C 0.62385 0.63155 0.98496 0.0
C2494 C 0.61125 0.62062 0.96339 0.0
C2495 C 0.60363 0.62694 0.9647 0.0
C2496 C 0.60616 0.63562 0.97619 0.0
H2497 H 0.53118 0.60756 0.91239 0.0
H2498 H 0.54907 0.61742 0.93082 0.0
C2499 C 0.61629 0.63801 0.98621 0.0
C2500 C 0.59261 0.6238 0.95429 0.0
H2501 H 0.5871 0.62472 0.91946 0.0
C2502 C 0.57881 0.61595 0.95832 0.0
C2503 C 0.59564 0.62729 0.94019 0.0
C2504 C 0.6103 0.63609 0.93542 0.0
C2505 C 0.56792 0.61086 0.94845 0.0
C2506 C 0.57098 0.61397 0.93424 0.0
C2507 C 0.58478 0.62229 0.93034 0.0
C2508 C 0.56009 0.60812 0.92316 0.0
C2509 C 0.55332 0.60163 0.95321 0.0
C2510 C 0.56056 0.59994 0.91253 0.0
C2511 C 0.55044 0.5944 0.90197 0.0
C2512 C 0.53955 0.59682 0.9019 0.0
C2513 C 0.53925 0.60524 0.9124 0.0
C2514 C 0.54943 0.61084 0.92294 0.0
H2515 H 0.55301 0.59774 0.96382 0.0
H2516 H 0.54803 0.60741 0.95346 0.0
H2517 H 0.54745 0.59278 0.94594 0.0
H2518 H 0.56877 0.59782 0.91242 0.0
H2519 H 0.55115 0.58825 0.89382 0.0
H2520 H 0.00441 0.64018 0.9718 0.0
H2521 H 0.00373 0.6274 0.95105 0.0
H2522 H 0.0444 0.6356 0.9614 0.0
H2523 H 0.04527 0.64851 0.98215 0.0
H2524 H 0.03979 0.63877 0.93251 0.0
H2525 H 0.99883 0.5892 0.95342 0.0
H2526 H 0.9949 0.6024 0.95337 0.0
H2527 H 0.00877 0.60429 0.96426 0.0
C2528 C 0.01327 0.63937 0.96963 0.0
C2529 C 0.02485 0.64528 0.97871 0.0
C2530 C 0.01282 0.632 0.9578 0.0
C2531 C 0.02391 0.63037 0.95486 0.0
C2532 C 0.0357 0.63669 0.96356 0.0
H2533 H 0.03994 0.58678 0.89083 0.0
H2534 H 0.04172 0.60132 0.91052 0.0
C2535 C 0.03617 0.64405 0.97541 0.0
C2536 C 0.02305 0.62177 0.94289 0.0
H2537 H 0.00526 0.58903 0.93017 0.0
C2538 C 0.03228 0.62789 0.93198 0.0
C2539 C 0.01324 0.60759 0.9423 0.0
C2540 C 0.00343 0.60041 0.954 0.0
C2541 C 0.03177 0.62021 0.9203 0.0
C2542 C 0.02196 0.60602 0.91971 0.0
C2543 C 0.01276 0.59992 0.93065 0.0
C2544 C 0.02097 0.59727 0.9078 0.0
C2545 C 0.04153 0.62742 0.90858 0.0
C2546 C 0.00862 0.58993 0.89998 0.0
C2547 C 0.00753 0.58148 0.88888 0.0
C2548 C 0.01871 0.5801 0.8855 0.0
C2549 C 0.0311 0.58751 0.89333 0.0
C2550 C 0.03217 0.59593 0.90446 0.0
H2551 H 0.04572 0.63857 0.90893 0.0
H2552 H 0.05036 0.6259 0.90947 0.0
H2553 H 0.03632 0.62324 0.89831 0.0
H2554 H 0.99986 0.59082 0.90241 0.0
H2555 H 0.99794 0.57605 0.88289 0.0
H2556 H 0.35423 0.4084 0.99492 0.0
H2557 H 0.36214 0.42054 0.97306 0.0
H2558 H 0.36863 0.3893 0.957 0.0
H2559 H 0.36046 0.37692 0.97872 0.0
H2560 H 0.38743 0.43111 0.96167 0.0
H2561 H 0.347 0.39293 0.92532 0.0
H2562 H 0.34518 0.39187 0.94396 0.0
H2563 H 0.35538 0.38625 0.93549 0.0
C2564 C 0.35721 0.40403 0.9867 0.0
C2565 C 0.35667 0.39166 0.98856 0.0
C2566 C 0.36173 0.41099 0.97421 0.0
C2567 C 0.36579 0.40574 0.96333 0.0
C2568 C 0.36524 0.39338 0.96513 0.0
H2569 H 0.40477 0.43708 0.88417 0.0
H2570 H 0.39525 0.424 0.90542 0.0
C2571 C 0.36064 0.38636 0.97759 0.0
C2572 C 0.37128 0.41357 0.95041 0.0
H2573 H 0.36673 0.41166 0.91509 0.0
C2574 C 0.38285 0.42689 0.95149 0.0
C2575 C 0.36528 0.40803 0.93715 0.0
C2576 C 0.35245 0.39404 0.93538 0.0
C2577 C 0.38873 0.43475 0.93965 0.0
C2578 C 0.38281 0.42916 0.92641 0.0
C2579 C 0.37125 0.41586 0.92529 0.0
C2580 C 0.38848 0.43704 0.91359 0.0
C2581 C 0.40138 0.44888 0.94134 0.0
C2582 C 0.38763 0.44856 0.91113 0.0
C2583 C 0.39303 0.45602 0.89904 0.0
C2584 C 0.3995 0.45215 0.88927 0.0
C2585 C 0.40009 0.44044 0.89166 0.0
C2586 C 0.39461 0.43294 0.90373 0.0
H2587 H 0.40625 0.45062 0.95186 0.0
H2588 H 0.40912 0.45061 0.93343 0.0
H2589 H 0.3984 0.45654 0.9398 0.0
H2590 H 0.38269 0.45171 0.91852 0.0
H2591 H 0.39213 0.4648 0.8973 0.0
H2592 H 0.62886 0.023 0.978 0.0
H2593 H 0.61128 0.01399 0.95949 0.0
H2594 H 0.61814 0.98102 0.95205 0.0
H2595 H 0.6354 0.98971 0.97107 0.0
H2596 H 0.61382 0.01151 0.93302 0.0
H2597 H 0.57699 0.96012 0.95299 0.0
H2598 H 0.59105 0.97318 0.96354 0.0
H2599 H 0.59404 0.96316 0.95124 0.0
C2600 C 0.62655 0.01376 0.97251 0.0
C2601 C 0.6335 0.00705 0.976 0.0
C2602 C 0.61649 0.00861 0.96191 0.0
C2603 C 0.61323 0.99672 0.95445 0.0
C2604 C 0.62019 0.99 0.95788 0.0
H2605 H 0.57281 0.97689 0.8727 0.0
H2606 H 0.58941 0.9849 0.89221 0.0
C2607 C 0.63012 0.99502 0.96869 0.0
C2608 C 0.60303 0.99187 0.94269 0.0
H2609 H 0.57336 0.96422 0.92955 0.0
C2610 C 0.60493 0.00118 0.93232 0.0
C2611 C 0.59132 0.97845 0.94184 0.0
C2612 C 0.58813 0.96819 0.95307 0.0
C2613 C 0.59551 0.99747 0.92113 0.0
C2614 C 0.58412 0.9839 0.91996 0.0
C2615 C 0.58216 0.9746 0.93037 0.0
C2616 C 0.57408 0.97915 0.90808 0.0
C2617 C 0.59772 0.00828 0.91091 0.0
C2618 C 0.55988 0.97284 0.91048 0.0
C2619 C 0.55036 0.96802 0.89934 0.0
C2620 C 0.55489 0.96964 0.88555 0.0
C2621 C 0.56909 0.97587 0.88319 0.0
C2622 C 0.57857 0.98049 0.89434 0.0
H2623 H 0.604 0.01868 0.91562 0.0
H2624 H 0.60338 0.00776 0.90186 0.0
H2625 H 0.58775 0.00677 0.90711 0.0
H2626 H 0.55615 0.97156 0.921 0.0
H2627 H 0.53947 0.96294 0.90154 0.0
H2628 H 0.64145 0.00426 0.0484 0.0
H2629 H 0.62881 0.00285 0.06926 0.0
H2630 H 0.64462 0.046 0.06752 0.0
H2631 H 0.65701 0.04745 0.04638 0.0
H2632 H 0.63604 0.01502 0.09503 0.0
H2633 H 0.60336 0.03003 0.06655 0.0
H2634 H 0.61461 0.02586 0.05775 0.0
H2635 H 0.62154 0.04234 0.06599 0.0
C2636 C 0.64236 0.01349 0.0525 0.0
C2637 C 0.65009 0.02594 0.0456 0.0
C2638 C 0.63512 0.01266 0.06445 0.0
C2639 C 0.63551 0.02425 0.06975 0.0
C2640 C 0.64387 0.03685 0.06338 0.0
H2641 H 0.58945 0.03078 0.13851 0.0
H2642 H 0.60694 0.03619 0.12094 0.0
C2643 C 0.65102 0.03768 0.05135 0.0
C2644 C 0.62668 0.02293 0.08158 0.0
H2645 H 0.59971 0.02636 0.09061 0.0
C2646 C 0.62814 0.01756 0.09408 0.0
C2647 C 0.61632 0.02619 0.08029 0.0
C2648 C 0.61374 0.0313 0.0669 0.0
C2649 C 0.61945 0.01527 0.1053 0.0
C2650 C 0.60905 0.0184 0.10393 0.0
C2651 C 0.60777 0.02405 0.09159 0.0
C2652 C 0.59886 0.01516 0.11489 0.0
C2653 C 0.62133 0.00943 0.11852 0.0
C2654 C 0.58855 0.00155 0.1172 0.0
C2655 C 0.57844 0.99845 0.12702 0.0
C2656 C 0.5784 0.00889 0.13466 0.0
C2657 C 0.58899 0.02253 0.13256 0.0
C2658 C 0.59902 0.02563 0.12261 0.0
H2659 H 0.63137 0.00997 0.1189 0.0
H2660 H 0.62072 0.01494 0.12775 0.0
H2661 H 0.61292 0.99857 0.11918 0.0
H2662 H 0.58824 0.99335 0.11126 0.0
H2663 H 0.57057 0.98786 0.12863 0.0
H2664 H 0.98357 0.6247 0.04072 0.0
H2665 H 0.97416 0.60799 0.05946 0.0
H2666 H 0.01502 0.62535 0.07742 0.0
H2667 H 0.02452 0.6419 0.05882 0.0
H2668 H 0.98692 0.58959 0.06727 0.0
H2669 H 0.98649 0.62331 0.10882 0.0
H2670 H 0.98472 0.62582 0.09055 0.0
H2671 H 0.00127 0.63048 0.09778 0.0
C2672 C 0.99053 0.625 0.04871 0.0
C2673 C 0.0048 0.6346 0.04826 0.0
C2674 C 0.98514 0.61544 0.05936 0.0
C2675 C 0.99393 0.61552 0.06978 0.0
C2676 C 0.0081 0.6252 0.06947 0.0
H2677 H 0.99403 0.57702 0.14505 0.0
H2678 H 0.99836 0.59154 0.12498 0.0
C2679 C 0.0135 0.63462 0.05881 0.0
C2680 C 0.98856 0.60532 0.08087 0.0
H2681 H 0.98332 0.60222 0.11581 0.0
C2682 C 0.98591 0.59221 0.07787 0.0
C2683 C 0.98741 0.60892 0.09463 0.0
C2684 C 0.99003 0.62287 0.09823 0.0
C2685 C 0.98266 0.58272 0.08845 0.0
C2686 C 0.98179 0.58641 0.10232 0.0
C2687 C 0.98403 0.59942 0.10519 0.0
C2688 C 0.97922 0.57723 0.11414 0.0
C2689 C 0.98086 0.5691 0.08479 0.0
C2690 C 0.96703 0.56435 0.1147 0.0
C2691 C 0.96462 0.55597 0.12609 0.0
C2692 C 0.97428 0.5604 0.1372 0.0
C2693 C 0.98645 0.5733 0.1366 0.0
C2694 C 0.9889 0.58162 0.12518 0.0
H2695 H 0.98521 0.5692 0.07449 0.0
H2696 H 0.9859 0.56613 0.09276 0.0
H2697 H 0.96969 0.56119 0.08435 0.0
H2698 H 0.95928 0.56088 0.10645 0.0
H2699 H 0.95509 0.54613 0.12636 0.0
H2700 H 0.37883 0.39586 0.06315 0.0
H2701 H 0.3968 0.39949 0.07986 0.0
H2702 H 0.39618 0.36434 0.06303 0.0
H2703 H 0.378 0.36049 0.04627 0.0
H2704 H 0.39513 0.3647 0.09194 0.0
H2705 H 0.43765 0.41424 0.07313 0.0
H2706 H 0.42209 0.41418 0.07619 0.0
H2707 H 0.42224 0.40325 0.06281 0.0
C2708 C 0.38254 0.38892 0.06291 0.0
C2709 C 0.37698 0.37789 0.05333 0.0
C2710 C 0.3929 0.39108 0.07242 0.0
C2711 C 0.39799 0.38233 0.07252 0.0
C2712 C 0.39246 0.37128 0.06303 0.0
H2713 H 0.46896 0.39751 0.12388 0.0
H2714 H 0.45336 0.39367 0.10414 0.0
C2715 C 0.38208 0.3691 0.05347 0.0
C2716 C 0.40856 0.38437 0.08306 0.0
H2717 H 0.44066 0.40795 0.09597 0.0
C2718 C 0.40514 0.37409 0.09274 0.0
C2719 C 0.42168 0.39656 0.08397 0.0
C2720 C 0.42621 0.40764 0.07339 0.0
C2721 C 0.41429 0.37589 0.10365 0.0
C2722 C 0.42709 0.38839 0.10502 0.0
C2723 C 0.43075 0.39845 0.09502 0.0
C2724 C 0.43673 0.39126 0.1169 0.0
C2725 C 0.41017 0.36439 0.11362 0.0
C2726 C 0.43265 0.39148 0.13056 0.0
C2727 C 0.44154 0.39371 0.1418 0.0
C2728 C 0.45473 0.39593 0.13958 0.0
C2729 C 0.45891 0.39599 0.12587 0.0
C2730 C 0.45001 0.39376 0.11461 0.0
H2731 H 0.40203 0.35442 0.10902 0.0
H2732 H 0.41919 0.36366 0.11672 0.0
H2733 H 0.406 0.36632 0.12314 0.0
H2734 H 0.42253 0.38981 0.13252 0.0
H2735 H 0.43802 0.39351 0.15226 0.0
H2736 H 0.63454 0.71252 0.36156 0.0
H2737 H 0.63023 0.72147 0.38267 0.0
H2738 H 0.64779 0.70303 0.40748 0.0
H2739 H 0.65276 0.69458 0.38625 0.0
H2740 H 0.61463 0.70956 0.40365 0.0
H2741 H 0.66864 0.74075 0.42349 0.0
H2742 H 0.66434 0.73296 0.40636 0.0
H2743 H 0.66293 0.72306 0.42133 0.0
C2744 C 0.63753 0.71039 0.37151 0.0
C2745 C 0.64406 0.70291 0.37225 0.0
C2746 C 0.63506 0.71552 0.38358 0.0
C2747 C 0.6389 0.71314 0.39669 0.0
C2748 C 0.64511 0.70536 0.39749 0.0
H2749 H 0.60533 0.72705 0.47209 0.0
H2750 H 0.61023 0.71661 0.45253 0.0
C2751 C 0.64784 0.70044 0.38536 0.0
C2752 C 0.6361 0.71865 0.40941 0.0
H2753 H 0.65125 0.73847 0.43857 0.0
C2754 C 0.62266 0.71592 0.41127 0.0
C2755 C 0.6466 0.7271 0.41927 0.0
C2756 C 0.66146 0.73127 0.41746 0.0
C2757 C 0.61944 0.72145 0.42258 0.0
C2758 C 0.62983 0.72952 0.4327 0.0
C2759 C 0.64325 0.73219 0.4309 0.0
C2760 C 0.62714 0.73569 0.44495 0.0
C2761 C 0.60506 0.71899 0.42325 0.0
C2762 C 0.63542 0.74979 0.44764 0.0
C2763 C 0.63287 0.75572 0.45902 0.0
C2764 C 0.62178 0.74769 0.46782 0.0
C2765 C 0.61372 0.73352 0.4653 0.0
C2766 C 0.61646 0.72757 0.45407 0.0
H2767 H 0.59987 0.71638 0.41283 0.0
H2768 H 0.59875 0.71027 0.43014 0.0
H2769 H 0.60523 0.72808 0.42746 0.0
H2770 H 0.64382 0.75626 0.44084 0.0
H2771 H 0.63952 0.76661 0.46082 0.0
H2772 H 0.29933 0.96722 0.39916 0.0
H2773 H 0.29196 0.9559 0.42167 0.0
H2774 H 0.28087 0.91756 0.40204 0.0
H2775 H 0.28806 0.92861 0.37969 0.0
H2776 H 0.26014 0.91697 0.4194 0.0
H2777 H 0.3119 0.94061 0.4455 0.0
H2778 H 0.30723 0.95177 0.43756 0.0
H2779 H 0.30984 0.94054 0.42684 0.0
C2780 C 0.29537 0.95639 0.39967 0.0
C2781 C 0.29429 0.94883 0.38761 0.0
C2782 C 0.29121 0.94996 0.41253 0.0
C2783 C 0.28595 0.93592 0.41348 0.0
C2784 C 0.28491 0.92841 0.4015 0.0
H2785 H 0.27288 0.87779 0.47427 0.0
H2786 H 0.2808 0.89485 0.45604 0.0
C2787 C 0.28906 0.93478 0.38872 0.0
C2788 C 0.28122 0.92875 0.42682 0.0
H2789 H 0.2929 0.9237 0.45769 0.0
C2790 C 0.26724 0.91856 0.42788 0.0
C2791 C 0.29058 0.93082 0.43776 0.0
C2792 C 0.30575 0.94146 0.43694 0.0
C2793 C 0.26241 0.91003 0.43942 0.0
C2794 C 0.27181 0.91189 0.45024 0.0
C2795 C 0.28573 0.92237 0.44938 0.0
C2796 C 0.26759 0.90229 0.46191 0.0
C2797 C 0.24743 0.89867 0.4396 0.0
C2798 C 0.25774 0.90103 0.47139 0.0
C2799 C 0.25313 0.89123 0.48174 0.0
C2800 C 0.25829 0.88251 0.48275 0.0
C2801 C 0.26855 0.88419 0.47357 0.0
C2802 C 0.27313 0.89397 0.46322 0.0
H2803 H 0.24218 0.89708 0.42931 0.0
H2804 H 0.24646 0.88894 0.44268 0.0
H2805 H 0.24194 0.90122 0.44734 0.0
H2806 H 0.25352 0.90753 0.47069 0.0
H2807 H 0.24544 0.89034 0.48888 0.0
H2808 H 0.05909 0.33055 0.39002 0.0
H2809 H 0.07746 0.3445 0.40695 0.0
H2810 H 0.07758 0.38025 0.39383 0.0
H2811 H 0.05904 0.36631 0.37675 0.0
H2812 H 0.10436 0.36825 0.40116 0.0
H2813 H 0.07321 0.37904 0.43725 0.0
H2814 H 0.06534 0.36517 0.42462 0.0
H2815 H 0.0726 0.3824 0.41909 0.0
C2816 C 0.06295 0.34137 0.39071 0.0
C2817 C 0.05755 0.3473 0.38203 0.0
C2818 C 0.07349 0.34933 0.40038 0.0
C2819 C 0.07879 0.36336 0.40168 0.0
C2820 C 0.0735 0.36939 0.39306 0.0
H2821 H 0.15368 0.41613 0.45251 0.0
H2822 H 0.13655 0.40752 0.43332 0.0
C2823 C 0.06295 0.36142 0.38329 0.0
C2824 C 0.08994 0.37153 0.41207 0.0
H2825 H 0.09639 0.38763 0.44374 0.0
C2826 C 0.10272 0.37265 0.4104 0.0
C2827 C 0.08764 0.37711 0.42413 0.0
C2828 C 0.07395 0.37586 0.42652 0.0
C2829 C 0.1132 0.37896 0.42065 0.0
C2830 C 0.11084 0.38438 0.43281 0.0
C2831 C 0.09816 0.38352 0.43435 0.0
C2832 C 0.12103 0.39006 0.4445 0.0
C2833 C 0.1265 0.37929 0.41868 0.0
C2834 C 0.11783 0.38325 0.45719 0.0
C2835 C 0.12755 0.38812 0.4681 0.0
C2836 C 0.14068 0.3999 0.46653 0.0
C2837 C 0.14372 0.40692 0.45393 0.0
C2838 C 0.13398 0.40202 0.44298 0.0
H2839 H 0.12573 0.37257 0.40989 0.0
H2840 H 0.13489 0.38987 0.41648 0.0
H2841 H 0.12945 0.37607 0.42829 0.0
H2842 H 0.10786 0.37403 0.45856 0.0
H2843 H 0.12488 0.3826 0.47776 0.0
H2844 H 0.04083 0.3329 0.30565 0.0
H2845 H 0.05048 0.32994 0.28422 0.0
H2846 H 0.04848 0.29442 0.3011 0.0
H2847 H 0.03893 0.29728 0.3225 0.0
H2848 H 0.07469 0.31448 0.28999 0.0
H2849 H 0.03057 0.29969 0.25331 0.0
H2850 H 0.03642 0.31485 0.2638 0.0
H2851 H 0.02862 0.29856 0.27195 0.0
C2852 C 0.04232 0.32438 0.30475 0.0
C2853 C 0.0391 0.31533 0.3158 0.0
C2854 C 0.0478 0.32269 0.29249 0.0
C2855 C 0.05011 0.31192 0.29108 0.0
C2856 C 0.04676 0.30279 0.302 0.0
H2857 H 0.06769 0.27543 0.22291 0.0
H2858 H 0.05818 0.28134 0.24252 0.0
C2859 C 0.04126 0.30444 0.31422 0.0
C2860 C 0.0565 0.31035 0.27848 0.0
H2861 H 0.05062 0.30174 0.24392 0.0
C2862 C 0.06949 0.31179 0.27989 0.0
C2863 C 0.04961 0.30676 0.26538 0.0
C2864 C 0.03549 0.30476 0.26344 0.0
C2865 C 0.07572 0.30956 0.26854 0.0
C2866 C 0.06882 0.30592 0.25544 0.0
C2867 C 0.05589 0.30462 0.25399 0.0
C2868 C 0.0745 0.30262 0.24334 0.0
C2869 C 0.08944 0.31068 0.27073 0.0
C2870 C 0.08672 0.3127 0.23721 0.0
C2871 C 0.09219 0.30934 0.22603 0.0
C2872 C 0.08559 0.29581 0.2209 0.0
C2873 C 0.07315 0.28585 0.22686 0.0
C2874 C 0.06768 0.28923 0.23798 0.0
H2875 H 0.09219 0.31118 0.28194 0.0
H2876 H 0.08929 0.30186 0.26577 0.0
H2877 H 0.09765 0.3201 0.2658 0.0
H2878 H 0.092 0.32315 0.24106 0.0
H2879 H 0.10159 0.3173 0.22139 0.0
H2880 H 0.70054 0.72542 0.32337 0.0
H2881 H 0.71657 0.74399 0.3082 0.0
H2882 H 0.6827 0.73493 0.28033 0.0
H2883 H 0.66674 0.71659 0.29526 0.0
H2884 H 0.70908 0.73883 0.26803 0.0
H2885 H 0.7154 0.78055 0.30334 0.0
H2886 H 0.71711 0.76699 0.31023 0.0
H2887 H 0.70053 0.76344 0.30433 0.0
C2888 C 0.69656 0.72735 0.31396 0.0
C2889 C 0.68236 0.71959 0.31057 0.0
C2890 C 0.7057 0.73796 0.30535 0.0
C2891 C 0.70075 0.74083 0.29322 0.0
C2892 C 0.68669 0.73287 0.28966 0.0
H2893 H 0.71472 0.7892 0.22345 0.0
H2894 H 0.70802 0.77184 0.24113 0.0
C2895 C 0.67758 0.72241 0.29825 0.0
C2896 C 0.70992 0.7523 0.28421 0.0
H2897 H 0.72347 0.78645 0.28059 0.0
C2898 C 0.7125 0.7493 0.27084 0.0
C2899 C 0.71438 0.76591 0.28797 0.0
C2900 C 0.71175 0.76954 0.30222 0.0
C2901 C 0.71889 0.7595 0.26089 0.0
C2902 C 0.72244 0.77296 0.26432 0.0
C2903 C 0.72064 0.77611 0.27797 0.0
C2904 C 0.72678 0.78353 0.25358 0.0
C2905 C 0.72146 0.7557 0.2467 0.0
C2906 C 0.73938 0.79603 0.25491 0.0
C2907 C 0.74317 0.80605 0.24487 0.0
C2908 C 0.7343 0.8038 0.23346 0.0
C2909 C 0.72169 0.79126 0.2322 0.0
C2910 C 0.71793 0.78129 0.24221 0.0
H2911 H 0.72261 0.7467 0.24718 0.0
H2912 H 0.71251 0.75296 0.23969 0.0
H2913 H 0.73088 0.7643 0.24209 0.0
H2914 H 0.74632 0.79798 0.26366 0.0
H2915 H 0.75301 0.81556 0.24601 0.0
H2916 H 0.28356 0.98894 0.32603 0.0
H2917 H 0.2671 0.98871 0.30902 0.0
H2918 H 0.24825 0.94529 0.3031 0.0
H2919 H 0.26444 0.94539 0.31993 0.0
H2920 H 0.26431 0.98006 0.28093 0.0
H2921 H 0.21496 0.94949 0.30803 0.0
H2922 H 0.23151 0.95774 0.31705 0.0
H2923 H 0.22492 0.94153 0.30828 0.0
C2924 C 0.27575 0.97933 0.32126 0.0
C2925 C 0.27532 0.96719 0.3243 0.0
C2926 C 0.26639 0.97922 0.31155 0.0
C2927 C 0.25635 0.96695 0.30497 0.0
C2928 C 0.25573 0.95482 0.30826 0.0
H2929 H 0.21778 0.94203 0.22598 0.0
H2930 H 0.23303 0.95039 0.24658 0.0
C2931 C 0.26509 0.95493 0.31782 0.0
C2932 C 0.24718 0.96672 0.29376 0.0
H2933 H 0.21343 0.94939 0.28289 0.0
C2934 C 0.25316 0.9736 0.28144 0.0
C2935 C 0.23265 0.95845 0.2945 0.0
C2936 C 0.22562 0.9515 0.30774 0.0
C2937 C 0.24502 0.97164 0.26951 0.0
C2938 C 0.23058 0.9624 0.26991 0.0
C2939 C 0.22453 0.95631 0.28253 0.0
C2940 C 0.22171 0.95806 0.25716 0.0
C2941 C 0.25201 0.97925 0.25653 0.0
C2942 C 0.21011 0.95933 0.25638 0.0
C2943 C 0.20128 0.95439 0.24468 0.0
C2944 C 0.20378 0.94792 0.23365 0.0
C2945 C 0.21552 0.94685 0.23439 0.0
C2946 C 0.22432 0.95176 0.24607 0.0
H2947 H 0.26183 0.98896 0.25909 0.0
H2948 H 0.25455 0.97288 0.25002 0.0
H2949 H 0.24523 0.98157 0.25031 0.0
H2950 H 0.20788 0.96409 0.26485 0.0
H2951 H 0.19241 0.9555 0.2443 0.0
H2952 H 0.68045 0.96421 0.31605 0.0
H2953 H 0.68509 0.95639 0.2942 0.0
H2954 H 0.72352 0.96364 0.31163 0.0
H2955 H 0.71891 0.97125 0.33353 0.0
H2956 H 0.70713 0.9701 0.27641 0.0
H2957 H 0.705 0.92435 0.29734 0.0
H2958 H 0.69871 0.93354 0.30679 0.0
H2959 H 0.71689 0.93983 0.30668 0.0
C2960 C 0.68988 0.96413 0.31525 0.0
C2961 C 0.69926 0.96827 0.32659 0.0
C2962 C 0.69251 0.95965 0.30275 0.0
C2963 C 0.70452 0.95918 0.30139 0.0
C2964 C 0.71403 0.96359 0.31257 0.0
H2965 H 0.74402 0.94147 0.23551 0.0
H2966 H 0.73746 0.94746 0.25739 0.0
C2967 C 0.7114 0.96803 0.32506 0.0
C2968 C 0.70728 0.95437 0.28819 0.0
H2969 H 0.71384 0.93088 0.27455 0.0
C2970 C 0.70848 0.96145 0.27597 0.0
C2971 C 0.70904 0.94309 0.28765 0.0
C2972 C 0.70722 0.93467 0.30029 0.0
C2973 C 0.71175 0.95778 0.26329 0.0
C2974 C 0.71369 0.94662 0.26281 0.0
C2975 C 0.71237 0.93946 0.27498 0.0
C2976 C 0.71731 0.94237 0.24978 0.0
C2977 C 0.71348 0.96609 0.25059 0.0
C2978 C 0.70803 0.93729 0.23837 0.0
C2979 C 0.71171 0.93378 0.22592 0.0
C2980 C 0.72467 0.93516 0.22471 0.0
C2981 C 0.73387 0.94008 0.23623 0.0
C2982 C 0.73017 0.94355 0.24869 0.0
H2983 H 0.71461 0.97603 0.25334 0.0
H2984 H 0.72265 0.96806 0.24469 0.0
H2985 H 0.70425 0.96032 0.24365 0.0
H2986 H 0.69799 0.93616 0.23907 0.0
H2987 H 0.7045 0.93018 0.21716 0.0
H2988 H 0.03616 0.75434 0.32739 0.0
H2989 H 0.04345 0.76776 0.3063 0.0
H2990 H 0.04708 0.73646 0.28558 0.0
H2991 H 0.03957 0.72278 0.30664 0.0
H2992 H 0.06816 0.77785 0.29227 0.0
H2993 H 0.02292 0.74266 0.25841 0.0
H2994 H 0.02284 0.74109 0.27707 0.0
H2995 H 0.03168 0.73521 0.26653 0.0
C2996 C 0.03844 0.75024 0.31835 0.0
C2997 C 0.03722 0.73744 0.3187 0.0
C2998 C 0.04263 0.75795 0.3063 0.0
C2999 C 0.04567 0.75305 0.29434 0.0
C3000 C 0.04455 0.74032 0.29463 0.0
H3001 H 0.06909 0.78971 0.2123 0.0
H3002 H 0.065 0.77527 0.23247 0.0
C3003 C 0.04031 0.73255 0.30669 0.0
C3004 C 0.05019 0.76145 0.2817 0.0
H3005 H 0.04079 0.7625 0.24808 0.0
C3006 C 0.06221 0.77449 0.28259 0.0
C3007 C 0.04242 0.757 0.26908 0.0
C3008 C 0.02918 0.74328 0.26767 0.0
C3009 C 0.06662 0.78325 0.27122 0.0
C3010 C 0.05868 0.77893 0.25872 0.0
C3011 C 0.04685 0.76577 0.2577 0.0
C3012 C 0.06209 0.78812 0.24677 0.0
C3013 C 0.07975 0.79705 0.27268 0.0
C3014 C 0.06176 0.80008 0.24813 0.0
C3015 C 0.0641 0.80833 0.23666 0.0
C3016 C 0.06688 0.80478 0.22362 0.0
C3017 C 0.06724 0.7928 0.22229 0.0
C3018 C 0.06485 0.78454 0.23377 0.0
H3019 H 0.08651 0.79732 0.28128 0.0
H3020 H 0.08561 0.79988 0.26289 0.0
H3021 H 0.07712 0.80486 0.27504 0.0
H3022 H 0.0593 0.80285 0.258 0.0
H3023 H 0.06342 0.81731 0.2379 0.0
H3024 H 0.28202 0.3443 0.29866 0.0
H3025 H 0.26402 0.32949 0.28181 0.0
H3026 H 0.26567 0.29502 0.29619 0.0
H3027 H 0.28394 0.30988 0.31313 0.0
H3028 H 0.26656 0.29726 0.26746 0.0
H3029 H 0.22342 0.30109 0.28767 0.0
H3030 H 0.23872 0.31752 0.28536 0.0
H3031 H 0.23884 0.30607 0.2979 0.0
C3032 C 0.27852 0.33355 0.29837 0.0
C3033 C 0.28444 0.32829 0.30728 0.0
C3034 C 0.26812 0.32507 0.28878 0.0
C3035 C 0.26333 0.31112 0.28791 0.0
C3036 C 0.26915 0.30576 0.29679 0.0
H3037 H 0.19366 0.25681 0.23184 0.0
H3038 H 0.20842 0.26712 0.25271 0.0
C3039 C 0.27957 0.31426 0.30646 0.0
C3040 C 0.25288 0.30243 0.27706 0.0
H3041 H 0.22117 0.29353 0.26383 0.0
C3042 C 0.25656 0.29628 0.26676 0.0
C3043 C 0.23975 0.301 0.27627 0.0
C3044 C 0.23488 0.30665 0.28748 0.0
C3045 C 0.24773 0.2893 0.25532 0.0
C3046 C 0.23501 0.28868 0.25404 0.0
C3047 C 0.23103 0.29422 0.2647 0.0
C3048 C 0.22592 0.28268 0.24152 0.0
C3049 C 0.25216 0.28273 0.24466 0.0
C3050 C 0.23075 0.28821 0.22838 0.0
C3051 C 0.22235 0.28239 0.2165 0.0
C3052 C 0.20888 0.27103 0.21755 0.0
C3053 C 0.20395 0.26567 0.23076 0.0
C3054 C 0.21237 0.2715 0.24265 0.0
H3055 H 0.25991 0.28063 0.2491 0.0
H3056 H 0.24319 0.27302 0.24053 0.0
H3057 H 0.25697 0.28975 0.23585 0.0
H3058 H 0.24108 0.29701 0.2273 0.0
H3059 H 0.22645 0.28666 0.20645 0.0
H3060 H 0.30983 0.38446 0.36466 0.0
H3061 H 0.3028 0.38958 0.38661 0.0
H3062 H 0.29634 0.3522 0.40361 0.0
H3063 H 0.30361 0.34708 0.38175 0.0
H3064 H 0.27778 0.37457 0.39936 0.0
H3065 H 0.32005 0.38013 0.4338 0.0
H3066 H 0.32088 0.37996 0.41507 0.0
H3067 H 0.31095 0.36425 0.4242 0.0
C3068 C 0.30704 0.37736 0.37309 0.0
C3069 C 0.30734 0.36537 0.37144 0.0
C3070 C 0.303 0.38031 0.38563 0.0
C3071 C 0.29921 0.37137 0.3968 0.0
C3072 C 0.2995 0.35939 0.39522 0.0
H3073 H 0.26876 0.37143 0.47934 0.0
H3074 H 0.27521 0.36522 0.45751 0.0
C3075 C 0.30359 0.35645 0.38269 0.0
C3076 C 0.2945 0.37438 0.4099 0.0
H3077 H 0.30151 0.38011 0.4448 0.0
C3078 C 0.283 0.37583 0.40929 0.0
C3079 C 0.3013 0.37599 0.42284 0.0
C3080 C 0.31405 0.37513 0.42405 0.0
C3081 C 0.27803 0.37871 0.4213 0.0
C3082 C 0.28486 0.38035 0.43422 0.0
C3083 C 0.29629 0.37881 0.43486 0.0
C3084 C 0.28044 0.38389 0.44717 0.0
C3085 C 0.26541 0.3798 0.42012 0.0
C3086 C 0.28135 0.39648 0.44859 0.0
C3087 C 0.27767 0.40003 0.46102 0.0
C3088 C 0.27292 0.391 0.47222 0.0
C3089 C 0.27211 0.37844 0.47078 0.0
C3090 C 0.27584 0.37492 0.45837 0.0
H3091 H 0.25949 0.37507 0.41027 0.0
H3092 H 0.25849 0.37483 0.42901 0.0
H3093 H 0.26867 0.39072 0.42027 0.0
H3094 H 0.28517 0.40367 0.44018 0.0
H3095 H 0.27873 0.40992 0.46196 0.0
H3096 H 0.67941 0.94215 0.39426 0.0
H3097 H 0.66487 0.92413 0.41031 0.0
H3098 H 0.63369 0.93454 0.40631 0.0
H3099 H 0.64795 0.95217 0.38966 0.0
H3100 H 0.65664 0.9256 0.43465 0.0
H3101 H 0.61003 0.89432 0.40146 0.0
H3102 H 0.62599 0.90787 0.39458 0.0
H3103 H 0.61425 0.91162 0.40295 0.0
C3104 C 0.6694 0.94052 0.39669 0.0
C3105 C 0.6648 0.94855 0.39067 0.0
C3106 C 0.66108 0.9302 0.40588 0.0
C3107 C 0.64806 0.92778 0.40939 0.0
C3108 C 0.64349 0.93589 0.40346 0.0
H3109 H 0.60609 0.88854 0.48495 0.0
H3110 H 0.62052 0.90436 0.46706 0.0
C3111 C 0.6517 0.94605 0.39404 0.0
C3112 C 0.63966 0.91728 0.4198 0.0
H3113 H 0.60748 0.88991 0.42586 0.0
C3114 C 0.64592 0.91772 0.43265 0.0
C3115 C 0.62574 0.90682 0.41717 0.0
C3116 C 0.61866 0.90502 0.40323 0.0
C3117 C 0.63862 0.90821 0.44301 0.0
C3118 C 0.62447 0.89827 0.44069 0.0
C3119 C 0.61828 0.89763 0.42773 0.0
C3120 C 0.61585 0.88861 0.45163 0.0
C3121 C 0.64627 0.90881 0.4562 0.0
C3122 C 0.60799 0.8745 0.44879 0.0
C3123 C 0.59949 0.86546 0.45893 0.0
C3124 C 0.59885 0.87036 0.47219 0.0
C3125 C 0.60666 0.88448 0.47495 0.0
C3126 C 0.61497 0.89351 0.46475 0.0
H3127 H 0.65749 0.91354 0.45441 0.0
H3128 H 0.64509 0.91518 0.46411 0.0
H3129 H 0.64221 0.89849 0.46047 0.0
H3130 H 0.60838 0.87048 0.43869 0.0
H3131 H 0.59335 0.85467 0.45635 0.0
H3132 H 0.05857 0.73707 0.3928 0.0
H3133 H 0.07589 0.73929 0.40957 0.0
H3134 H 0.07447 0.7044 0.39083 0.0
H3135 H 0.05692 0.70199 0.37395 0.0
H3136 H 0.07262 0.7034 0.41985 0.0
H3137 H 0.1167 0.75316 0.40351 0.0
H3138 H 0.10137 0.75353 0.40646 0.0
H3139 H 0.1015 0.74298 0.39263 0.0
C3140 C 0.06197 0.72989 0.39213 0.0
C3141 C 0.05635 0.71935 0.38199 0.0
C3142 C 0.07197 0.73125 0.40169 0.0
C3143 C 0.07663 0.72216 0.40129 0.0
C3144 C 0.07107 0.7116 0.39122 0.0
H3145 H 0.14515 0.73324 0.45437 0.0
H3146 H 0.13043 0.73051 0.43417 0.0
C3147 C 0.06106 0.71024 0.38159 0.0
C3148 C 0.08678 0.72334 0.41191 0.0
H3149 H 0.11867 0.7457 0.42614 0.0
C3150 C 0.08275 0.71258 0.42113 0.0
C3151 C 0.10006 0.73526 0.41346 0.0
C3152 C 0.10524 0.74684 0.40341 0.0
C3153 C 0.09143 0.71364 0.43222 0.0
C3154 C 0.10438 0.72587 0.43425 0.0
C3155 C 0.10866 0.73641 0.42468 0.0
C3156 C 0.11348 0.72802 0.44642 0.0
C3157 C 0.08663 0.70167 0.4417 0.0
C3158 C 0.10894 0.72784 0.45995 0.0
C3159 C 0.11732 0.72945 0.47146 0.0
C3160 C 0.13048 0.73144 0.46964 0.0
C3161 C 0.13513 0.73189 0.45605 0.0
C3162 C 0.12672 0.73028 0.44454 0.0
H3163 H 0.0785 0.69199 0.4366 0.0
H3164 H 0.09536 0.70052 0.44497 0.0
H3165 H 0.08221 0.70335 0.45117 0.0
H3166 H 0.09884 0.72635 0.46162 0.0
H3167 H 0.11344 0.72894 0.4818 0.0
H3168 H 0.30013 0.04722 0.69125 0.0
H3169 H 0.29555 0.05527 0.71283 0.0
H3170 H 0.31507 0.03795 0.73632 0.0
H3171 H 0.32033 0.03045 0.71461 0.0
H3172 H 0.2805 0.04241 0.73379 0.0
H3173 H 0.33451 0.07528 0.75316 0.0
H3174 H 0.33032 0.06783 0.73588 0.0
H3175 H 0.32957 0.05785 0.75053 0.0
C3176 C 0.30351 0.04516 0.70101 0.0
C3177 C 0.31066 0.03827 0.70124 0.0
C3178 C 0.30087 0.04977 0.71335 0.0
C3179 C 0.30515 0.04743 0.72623 0.0
C3180 C 0.31202 0.04025 0.72652 0.0
H3181 H 0.27079 0.05899 0.80257 0.0
H3182 H 0.27612 0.04888 0.78301 0.0
C3183 C 0.31493 0.03587 0.71411 0.0
C3184 C 0.30212 0.05234 0.73924 0.0
H3185 H 0.31697 0.072 0.76855 0.0
C3186 C 0.28849 0.04891 0.74138 0.0
C3187 C 0.31257 0.06095 0.74908 0.0
C3188 C 0.32758 0.06582 0.747 0.0
C3189 C 0.28503 0.05399 0.75291 0.0
C3190 C 0.29539 0.06227 0.76295 0.0
C3191 C 0.309 0.06556 0.76092 0.0
C3192 C 0.29251 0.06819 0.77528 0.0
C3193 C 0.27041 0.05085 0.75384 0.0
C3194 C 0.3004 0.08233 0.7779 0.0
C3195 C 0.29763 0.08807 0.78929 0.0
C3196 C 0.28671 0.0798 0.79818 0.0
C3197 C 0.27906 0.06562 0.79573 0.0
C3198 C 0.28203 0.05985 0.78449 0.0
H3199 H 0.26506 0.04804 0.7435 0.0
H3200 H 0.2645 0.04206 0.76076 0.0
H3201 H 0.27017 0.0597 0.75814 0.0
H3202 H 0.30863 0.08897 0.77103 0.0
H3203 H 0.30399 0.099 0.79101 0.0
H3204 H 0.96886 0.25397 0.70043 0.0
H3205 H 0.95851 0.24136 0.72159 0.0
H3206 H 0.95862 0.27602 0.73904 0.0
H3207 H 0.96903 0.28882 0.71787 0.0
H3208 H 0.96823 0.26273 0.75761 0.0
H3209 H 0.91764 0.22661 0.73199 0.0
H3210 H 0.93227 0.2283 0.72319 0.0
H3211 H 0.93016 0.24268 0.72447 0.0
C3212 C 0.96677 0.25898 0.70877 0.0
C3213 C 0.9697 0.2724 0.70741 0.0
C3214 C 0.96079 0.25172 0.72083 0.0
C3215 C 0.95761 0.25769 0.73174 0.0
C3216 C 0.96092 0.27122 0.73066 0.0
H3217 H 0.90546 0.21024 0.80079 0.0
H3218 H 0.9156 0.22645 0.78176 0.0
C3219 C 0.96687 0.2785 0.71856 0.0
C3220 C 0.95074 0.2497 0.74422 0.0
H3221 H 0.92154 0.22081 0.75459 0.0
C3222 C 0.95798 0.25364 0.75701 0.0
C3223 C 0.93728 0.23797 0.74341 0.0
C3224 C 0.9288 0.23367 0.73007 0.0
C3225 C 0.95232 0.24578 0.76892 0.0
C3226 C 0.93916 0.23366 0.76792 0.0
C3227 C 0.93168 0.23005 0.75528 0.0
C3228 C 0.93322 0.22422 0.77969 0.0
C3229 C 0.96048 0.25046 0.78245 0.0
C3230 C 0.93973 0.21756 0.78471 0.0
C3231 C 0.93391 0.20823 0.79542 0.0
C3232 C 0.92137 0.20525 0.80123 0.0
C3233 C 0.91497 0.2121 0.79631 0.0
C3234 C 0.92077 0.2214 0.78552 0.0
H3235 H 0.96846 0.26153 0.78243 0.0
H3236 H 0.95361 0.2484 0.79138 0.0
H3237 H 0.96581 0.24479 0.78401 0.0
H3238 H 0.94926 0.21947 0.78022 0.0
H3239 H 0.93919 0.20327 0.79917 0.0
H3240 H 0.71653 0.67136 0.72905 0.0
H3241 H 0.7353 0.68625 0.7452 0.0
H3242 H 0.7451 0.721 0.72028 0.0
H3243 H 0.72611 0.70609 0.70393 0.0
H3244 H 0.76816 0.71671 0.72818 0.0
H3245 H 0.73744 0.71585 0.77289 0.0
H3246 H 0.7315 0.69942 0.76499 0.0
H3247 H 0.73073 0.71223 0.7552 0.0
C3248 C 0.72258 0.68218 0.727 0.0
C3249 C 0.71983 0.68754 0.71518 0.0
C3250 C 0.73326 0.69068 0.7363 0.0
C3251 C 0.74147 0.70471 0.73399 0.0
C3252 C 0.73878 0.71019 0.72225 0.0
H3253 H 0.81819 0.75871 0.78254 0.0
H3254 H 0.79974 0.75093 0.76478 0.0
C3255 C 0.72794 0.70167 0.71297 0.0
C3256 C 0.75322 0.71333 0.7436 0.0
H3257 H 0.76084 0.7226 0.77787 0.0
C3258 C 0.76665 0.71828 0.73899 0.0
C3259 C 0.75113 0.71527 0.75767 0.0
C3260 C 0.73693 0.71053 0.763 0.0
C3261 C 0.77802 0.7244 0.74832 0.0
C3262 C 0.77585 0.7258 0.76255 0.0
C3263 C 0.76247 0.72145 0.76698 0.0
C3264 C 0.78708 0.73076 0.77321 0.0
C3265 C 0.7921 0.72857 0.74304 0.0
C3266 C 0.7859 0.72213 0.78402 0.0
C3267 C 0.79633 0.72657 0.79417 0.0
C3268 C 0.80824 0.7397 0.79366 0.0
C3269 C 0.80928 0.74843 0.78298 0.0
C3270 C 0.79879 0.744 0.77283 0.0
H3271 H 0.79152 0.72423 0.7325 0.0
H3272 H 0.79847 0.73985 0.74244 0.0
H3273 H 0.79744 0.72524 0.75023 0.0
H3274 H 0.7769 0.71192 0.78457 0.0
H3275 H 0.79509 0.71973 0.80246 0.0
H3276 H 0.69288 0.66339 0.63716 0.0
H3277 H 0.69944 0.65839 0.61473 0.0
H3278 H 0.71704 0.63797 0.63589 0.0
H3279 H 0.71004 0.64242 0.65816 0.0
H3280 H 0.72351 0.66561 0.60421 0.0
H3281 H 0.69329 0.60947 0.60749 0.0
H3282 H 0.69104 0.62026 0.61946 0.0
H3283 H 0.70467 0.61692 0.62232 0.0
C3284 C 0.69807 0.65776 0.63699 0.0
C3285 C 0.70079 0.65315 0.6494 0.0
C3286 C 0.70181 0.65491 0.62418 0.0
C3287 C 0.70842 0.6475 0.62358 0.0
C3288 C 0.71151 0.64327 0.63602 0.0
H3289 H 0.76051 0.64759 0.5596 0.0
H3290 H 0.7503 0.65259 0.57907 0.0
C3291 C 0.70759 0.64591 0.64877 0.0
C3292 C 0.71252 0.6445 0.61006 0.0
H3293 H 0.7118 0.6189 0.59119 0.0
C3294 C 0.7208 0.65537 0.60127 0.0
C3295 C 0.70872 0.6311 0.60602 0.0
C3296 C 0.69881 0.61878 0.61426 0.0
C3297 C 0.72587 0.65328 0.58887 0.0
C3298 C 0.72299 0.64003 0.58542 0.0
C3299 C 0.71422 0.6291 0.59391 0.0
C3300 C 0.72918 0.63727 0.57329 0.0
C3301 C 0.73414 0.66529 0.57957 0.0
C3302 C 0.72079 0.62668 0.56375 0.0
C3303 C 0.72665 0.62347 0.55286 0.0
C3304 C 0.74103 0.63079 0.55122 0.0
C3305 C 0.74941 0.6416 0.56061 0.0
C3306 C 0.74355 0.64463 0.57166 0.0
H3307 H 0.73119 0.67302 0.5809 0.0
H3308 H 0.74525 0.67029 0.58243 0.0
H3309 H 0.7327 0.66209 0.56844 0.0
H3310 H 0.70967 0.62083 0.56479 0.0
H3311 H 0.71995 0.61521 0.54569 0.0
H3312 H 0.36543 0.05805 0.64546 0.0
H3313 H 0.38091 0.0774 0.63082 0.0
H3314 H 0.34612 0.07892 0.61509 0.0
H3315 H 0.33068 0.05975 0.62945 0.0
H3316 H 0.37815 0.07926 0.5997 0.0
H3317 H 0.3752 0.1185 0.6307 0.0
H3318 H 0.37138 0.10244 0.63781 0.0
H3319 H 0.3588 0.1032 0.62703 0.0
C3320 C 0.3611 0.06251 0.63886 0.0
C3321 C 0.34682 0.05737 0.63867 0.0
C3322 C 0.36994 0.07354 0.63053 0.0
C3323 C 0.36464 0.07965 0.62206 0.0
C3324 C 0.35042 0.07444 0.62172 0.0
H3325 H 0.38312 0.12642 0.54983 0.0
H3326 H 0.37597 0.10909 0.56766 0.0
C3327 C 0.3416 0.06342 0.62991 0.0
C3328 C 0.37372 0.09139 0.61328 0.0
H3329 H 0.38293 0.12424 0.60733 0.0
C3330 C 0.37945 0.08919 0.60148 0.0
C3331 C 0.3755 0.10434 0.61573 0.0
C3332 C 0.37001 0.10735 0.62857 0.0
C3333 C 0.3862 0.09941 0.59158 0.0
C3334 C 0.38708 0.11204 0.59353 0.0
C3335 C 0.38213 0.11451 0.60579 0.0
C3336 C 0.39205 0.12238 0.58252 0.0
C3337 C 0.39205 0.0965 0.57897 0.0
C3338 C 0.40332 0.13567 0.58507 0.0
C3339 C 0.4074 0.14561 0.57489 0.0
C3340 C 0.40013 0.14247 0.5621 0.0
C3341 C 0.38889 0.12912 0.55959 0.0
C3342 C 0.38488 0.1192 0.56972 0.0
H3343 H 0.3943 0.08837 0.581 0.0
H3344 H 0.38438 0.09293 0.57025 0.0
H3345 H 0.40166 0.10581 0.57566 0.0
H3346 H 0.40891 0.13834 0.59494 0.0
H3347 H 0.41613 0.15579 0.57707 0.0
H3348 H 0.9522 0.3041 0.6469 0.0
H3349 H 0.93341 0.29943 0.63056 0.0
H3350 H 0.92969 0.2616 0.61799 0.0
H3351 H 0.94837 0.26611 0.63417 0.0
H3352 H 0.93214 0.29406 0.60046 0.0
H3353 H 0.88994 0.25117 0.62924 0.0
H3354 H 0.90634 0.2635 0.63734 0.0
H3355 H 0.90483 0.2499 0.62662 0.0
C3356 C 0.94737 0.29478 0.64067 0.0
C3357 C 0.95177 0.28546 0.64188 0.0
C3358 C 0.93666 0.29215 0.63135 0.0
C3359 C 0.93008 0.2801 0.62324 0.0
C3360 C 0.93451 0.27086 0.62433 0.0
H3361 H 0.88102 0.25394 0.54826 0.0
H3362 H 0.89895 0.26206 0.56654 0.0
C3363 C 0.94525 0.2735 0.63354 0.0
C3364 C 0.91873 0.27718 0.61339 0.0
H3365 H 0.8848 0.25394 0.60583 0.0
C3366 C 0.92175 0.28539 0.60169 0.0
C3367 C 0.90518 0.26595 0.61513 0.0
C3368 C 0.90129 0.25717 0.62782 0.0
C3369 C 0.91164 0.2823 0.59135 0.0
C3370 C 0.89827 0.27066 0.59275 0.0
C3371 C 0.89511 0.2628 0.60474 0.0
C3372 C 0.88755 0.26612 0.58163 0.0
C3373 C 0.91538 0.29145 0.57897 0.0
C3374 C 0.87513 0.26551 0.58416 0.0
C3375 C 0.86486 0.26084 0.57376 0.0
C3376 C 0.86678 0.25651 0.56071 0.0
C3377 C 0.87925 0.25715 0.55823 0.0
C3378 C 0.88952 0.26187 0.56861 0.0
H3379 H 0.92465 0.3017 0.58119 0.0
H3380 H 0.91769 0.2868 0.57009 0.0
H3381 H 0.90668 0.29267 0.57577 0.0
H3382 H 0.87342 0.26869 0.59418 0.0
H3383 H 0.85541 0.26055 0.57591 0.0
H3384 H 0.34445 0.3009 0.64919 0.0
H3385 H 0.34847 0.293 0.62706 0.0
H3386 H 0.38681 0.29922 0.64358 0.0
H3387 H 0.38277 0.30685 0.6658 0.0
H3388 H 0.36976 0.30611 0.60885 0.0
H3389 H 0.36765 0.26013 0.62909 0.0
H3390 H 0.36197 0.2696 0.63902 0.0
H3391 H 0.38005 0.27559 0.63813 0.0
C3392 C 0.35373 0.30057 0.64813 0.0
C3393 C 0.36324 0.30441 0.65932 0.0
C3394 C 0.35601 0.29605 0.63547 0.0
C3395 C 0.3678 0.29526 0.63376 0.0
C3396 C 0.37746 0.2994 0.64479 0.0
H3397 H 0.40357 0.27611 0.565 0.0
H3398 H 0.3986 0.28293 0.58732 0.0
C3399 C 0.37517 0.30385 0.65746 0.0
C3400 C 0.37013 0.29035 0.62037 0.0
H3401 H 0.37559 0.26638 0.60598 0.0
C3402 C 0.37094 0.29736 0.60821 0.0
C3403 C 0.37164 0.27893 0.61955 0.0
C3404 C 0.37015 0.27054 0.63211 0.0
C3405 C 0.37353 0.29344 0.59529 0.0
C3406 C 0.37521 0.28213 0.59453 0.0
C3407 C 0.37434 0.27508 0.60665 0.0
C3408 C 0.37795 0.27753 0.58121 0.0
C3409 C 0.37476 0.30159 0.58261 0.0
C3410 C 0.3679 0.27204 0.57049 0.0
C3411 C 0.37065 0.26802 0.5578 0.0
C3412 C 0.38347 0.26931 0.55565 0.0
C3413 C 0.3935 0.27475 0.56645 0.0
C3414 C 0.39071 0.2787 0.57917 0.0
H3415 H 0.37602 0.31157 0.58542 0.0
H3416 H 0.38366 0.30344 0.5763 0.0
H3417 H 0.36526 0.29574 0.57603 0.0
H3418 H 0.35795 0.27096 0.57192 0.0
H3419 H 0.36283 0.26406 0.54959 0.0
H3420 H 0.70204 0.04689 0.63608 0.0
H3421 H 0.70914 0.05768 0.61337 0.0
H3422 H 0.71206 0.09398 0.63015 0.0
H3423 H 0.70526 0.08345 0.65284 0.0
H3424 H 0.69673 0.06741 0.5964 0.0
H3425 H 0.7492 0.10947 0.61203 0.0
H3426 H 0.73904 0.09488 0.6228 0.0
H3427 H 0.73611 0.10879 0.62278 0.0
C3428 C 0.70426 0.05719 0.63495 0.0
C3429 C 0.70317 0.06433 0.64632 0.0
C3430 C 0.70832 0.06334 0.62197 0.0
C3431 C 0.71141 0.07673 0.62015 0.0
C3432 C 0.7101 0.08377 0.63141 0.0
H3433 H 0.72527 0.13125 0.55379 0.0
H3434 H 0.72159 0.11939 0.5758 0.0
C3435 C 0.7061 0.07768 0.64437 0.0
C3436 C 0.71551 0.08325 0.60638 0.0
H3437 H 0.74022 0.11194 0.5903 0.0
C3438 C 0.70632 0.07705 0.595 0.0
C3439 C 0.72806 0.09581 0.60458 0.0
C3440 C 0.73874 0.10256 0.61616 0.0
C3441 C 0.70909 0.08336 0.58202 0.0
C3442 C 0.7214 0.09613 0.58039 0.0
C3443 C 0.73075 0.10217 0.59164 0.0
C3444 C 0.72445 0.10363 0.56722 0.0
C3445 C 0.69862 0.07659 0.57027 0.0
C3446 C 0.72749 0.0988 0.5552 0.0
C3447 C 0.72974 0.10564 0.54266 0.0
C3448 C 0.72907 0.11746 0.54195 0.0
C3449 C 0.72614 0.12233 0.55407 0.0
C3450 C 0.72398 0.11554 0.56662 0.0
H3451 H 0.68871 0.06779 0.57383 0.0
H3452 H 0.69656 0.08404 0.56532 0.0
H3453 H 0.7028 0.07285 0.56222 0.0
H3454 H 0.72795 0.08965 0.5555 0.0
H3455 H 0.73176 0.10155 0.53342 0.0
H3456 H 0.94093 0.67763 0.63307 0.0
H3457 H 0.92303 0.66397 0.61559 0.0
H3458 H 0.91994 0.62746 0.63101 0.0
H3459 H 0.93801 0.64109 0.64857 0.0
H3460 H 0.92229 0.62993 0.60204 0.0
H3461 H 0.88138 0.63828 0.62063 0.0
H3462 H 0.89773 0.65382 0.61861 0.0
H3463 H 0.89605 0.64176 0.63139 0.0
C3464 C 0.9364 0.66669 0.63285 0.0
C3465 C 0.9409 0.66046 0.64226 0.0
C3466 C 0.92609 0.65888 0.62289 0.0
C3467 C 0.92 0.64469 0.62215 0.0
C3468 C 0.92444 0.6384 0.63149 0.0
H3469 H 0.84965 0.59084 0.567 0.0
H3470 H 0.86469 0.60177 0.58757 0.0
C3471 C 0.93475 0.64621 0.64152 0.0
C3472 C 0.90956 0.63659 0.61109 0.0
H3473 H 0.87854 0.62938 0.59741 0.0
C3474 C 0.91266 0.62968 0.6011 0.0
C3475 C 0.89693 0.63616 0.60998 0.0
C3476 C 0.89273 0.64279 0.6208 0.0
C3477 C 0.9037 0.6228 0.58973 0.0
C3478 C 0.89142 0.62299 0.58822 0.0
C3479 C 0.88805 0.62942 0.59849 0.0
C3480 C 0.88211 0.61677 0.57589 0.0
C3481 C 0.90747 0.61539 0.5794 0.0
C3482 C 0.88684 0.6218 0.56257 0.0
C3483 C 0.87827 0.61564 0.55087 0.0
C3484 C 0.86476 0.60444 0.55226 0.0
C3485 C 0.85994 0.59958 0.56565 0.0
C3486 C 0.86853 0.60577 0.57738 0.0
H3487 H 0.91509 0.61315 0.5839 0.0
H3488 H 0.89818 0.60566 0.57579 0.0
H3489 H 0.91215 0.62189 0.57021 0.0
H3490 H 0.89722 0.63041 0.56123 0.0
H3491 H 0.88228 0.61949 0.54067 0.0
H3492 H 0.96711 0.71497 0.7012 0.0
H3493 H 0.96128 0.721 0.72336 0.0
H3494 H 0.95263 0.68284 0.74037 0.0
H3495 H 0.95869 0.67679 0.71828 0.0
H3496 H 0.93661 0.70751 0.73736 0.0
H3497 H 0.97929 0.71072 0.76933 0.0
H3498 H 0.9791 0.71017 0.75056 0.0
H3499 H 0.96874 0.6948 0.76008 0.0
C3500 C 0.96404 0.70786 0.70966 0.0
C3501 C 0.96344 0.69541 0.70797 0.0
C3502 C 0.96068 0.71133 0.72231 0.0
C3503 C 0.95669 0.70245 0.73356 0.0
C3504 C 0.95595 0.68996 0.73191 0.0
H3505 H 0.93538 0.71101 0.81835 0.0
H3506 H 0.93804 0.70176 0.79634 0.0
C3507 C 0.95936 0.68649 0.71925 0.0
C3508 C 0.95313 0.70627 0.74691 0.0
H3509 H 0.96276 0.71335 0.78122 0.0
C3510 C 0.94232 0.70878 0.74695 0.0
C3511 C 0.96058 0.70789 0.75942 0.0
C3512 C 0.97265 0.70588 0.75989 0.0
C3513 C 0.93875 0.71286 0.75917 0.0
C3514 C 0.94631 0.71465 0.77162 0.0
C3515 C 0.95697 0.71193 0.77164 0.0
C3516 C 0.94371 0.71985 0.78463 0.0
C3517 C 0.92686 0.71516 0.75869 0.0
C3518 C 0.94605 0.73308 0.7853 0.0
C3519 C 0.94453 0.73836 0.79783 0.0
C3520 C 0.94057 0.73046 0.80989 0.0
C3521 C 0.93818 0.7172 0.80915 0.0
C3522 C 0.93975 0.71194 0.79663 0.0
H3523 H 0.91995 0.70999 0.7495 0.0
H3524 H 0.92069 0.71141 0.76826 0.0
H3525 H 0.93098 0.72625 0.75799 0.0
H3526 H 0.94943 0.73946 0.77624 0.0
H3527 H 0.94677 0.74873 0.79818 0.0
H3528 H 0.30954 0.28305 0.71571 0.0
H3529 H 0.29446 0.26491 0.73159 0.0
H3530 H 0.32978 0.2656 0.74942 0.0
H3531 H 0.34487 0.28352 0.73356 0.0
H3532 H 0.30736 0.23922 0.74342 0.0
H3533 H 0.29166 0.27018 0.77356 0.0
H3534 H 0.28874 0.26936 0.75506 0.0
H3535 H 0.30608 0.27774 0.76199 0.0
C3536 C 0.3141 0.27934 0.72301 0.0
C3537 C 0.32844 0.2848 0.72339 0.0
C3538 C 0.30547 0.26901 0.73211 0.0
C3539 C 0.31103 0.26402 0.74178 0.0
C3540 C 0.32528 0.26932 0.74205 0.0
H3541 H 0.27923 0.22088 0.81781 0.0
H3542 H 0.29217 0.2368 0.7993 0.0
C3543 C 0.3339 0.27961 0.73299 0.0
C3544 C 0.30213 0.25333 0.75173 0.0
H3545 H 0.28174 0.24718 0.77981 0.0
C3546 C 0.30169 0.24091 0.75134 0.0
C3547 C 0.29487 0.25564 0.76211 0.0
C3548 C 0.2954 0.26898 0.76335 0.0
C3549 C 0.29427 0.23078 0.76115 0.0
C3550 C 0.28698 0.23308 0.77151 0.0
C3551 C 0.28731 0.24544 0.77181 0.0
C3552 C 0.27943 0.22308 0.78253 0.0
C3553 C 0.29465 0.21788 0.76063 0.0
C3554 C 0.268 0.21008 0.77923 0.0
C3555 C 0.26064 0.20094 0.7898 0.0
C3556 C 0.26462 0.20466 0.80383 0.0
C3557 C 0.27608 0.21768 0.80708 0.0
C3558 C 0.28342 0.22679 0.79653 0.0
H3559 H 0.30309 0.21897 0.75403 0.0
H3560 H 0.29602 0.21498 0.77124 0.0
H3561 H 0.28472 0.20944 0.75619 0.0
H3562 H 0.26458 0.20711 0.76851 0.0
H3563 H 0.25168 0.19107 0.78704 0.0
H3564 H 0.71942 0.02925 0.70509 0.0
H3565 H 0.73598 0.03021 0.72236 0.0
H3566 H 0.74305 0.06853 0.73832 0.0
H3567 H 0.72682 0.06781 0.72106 0.0
H3568 H 0.76721 0.06853 0.73542 0.0
H3569 H 0.72785 0.023 0.76379 0.0
H3570 H 0.72913 0.02028 0.74559 0.0
H3571 H 0.72324 0.03133 0.75094 0.0
C3572 C 0.72455 0.03791 0.71223 0.0
C3573 C 0.72171 0.0484 0.71174 0.0
C3574 C 0.73396 0.03841 0.72213 0.0
C3575 C 0.74059 0.04935 0.73174 0.0
C3576 C 0.73803 0.05998 0.73102 0.0
H3577 H 0.77663 0.05609 0.81259 0.0
H3578 H 0.76285 0.05462 0.79212 0.0
C3579 C 0.72869 0.05951 0.72116 0.0
C3580 C 0.75 0.04976 0.74281 0.0
H3581 H 0.75078 0.03393 0.77233 0.0
C3582 C 0.76367 0.06092 0.74345 0.0
C3583 C 0.74528 0.0399 0.75334 0.0
C3584 C 0.73055 0.028 0.75352 0.0
C3585 C 0.77269 0.0626 0.75446 0.0
C3586 C 0.76797 0.05273 0.76499 0.0
C3587 C 0.75437 0.04146 0.76422 0.0
C3588 C 0.77672 0.05418 0.77724 0.0
C3589 C 0.78702 0.07517 0.755 0.0
C3590 C 0.7891 0.05445 0.77567 0.0
C3591 C 0.79705 0.05542 0.78735 0.0
C3592 C 0.7927 0.05606 0.80081 0.0
C3593 C 0.7803 0.05577 0.80234 0.0
C3594 C 0.7724 0.05486 0.79067 0.0
H3595 H 0.7879 0.08323 0.74804 0.0
H3596 H 0.78996 0.07945 0.76576 0.0
H3597 H 0.79453 0.07242 0.75156 0.0
H3598 H 0.79249 0.05364 0.76542 0.0
H3599 H 0.80646 0.0554 0.7859 0.0
H3600 H 0.04602 0.36773 0.04444 0.0
H3601 H 0.0607 0.36066 0.05555 0.0
H3602 H 0.03808 0.32191 0.03364 0.0
H3603 H 0.02364 0.32898 0.02226 0.0
H3604 H 0.05206 0.33985 0.07292 0.0
H3605 H 0.07689 0.33093 0.02857 0.0
H3606 H 0.06818 0.3402 0.02686 0.0
H3607 H 0.05849 0.32182 0.02623 0.0
C3608 C 0.04436 0.35781 0.04177 0.0
C3609 C 0.03364 0.34892 0.03246 0.0
C3610 C 0.05275 0.35378 0.04814 0.0
C3611 C 0.05064 0.34083 0.0453 0.0
C3612 C 0.04018 0.33209 0.03574 0.0
H3613 H 0.06909 0.27781 0.07838 0.0
H3614 H 0.06011 0.29386 0.064 0.0
C3615 C 0.03184 0.33613 0.0293 0.0
C3616 C 0.05834 0.33586 0.05332 0.0
H3617 H 0.07617 0.31969 0.0499 0.0
C3618 C 0.05758 0.3357 0.0679 0.0
C3619 C 0.0655 0.33038 0.04678 0.0
C3620 C 0.06744 0.33096 0.03126 0.0
C3621 C 0.06315 0.32961 0.07604 0.0
C3622 C 0.06988 0.32374 0.06943 0.0
C3623 C 0.071 0.32421 0.05492 0.0
C3624 C 0.07485 0.31611 0.07721 0.0
C3625 C 0.06107 0.32888 0.09155 0.0
C3626 C 0.08658 0.32405 0.09194 0.0
C3627 C 0.09218 0.31464 0.102 0.0
C3628 C 0.08737 0.29778 0.0942 0.0
C3629 C 0.0725 0.28809 0.08186 0.0
C3630 C 0.06757 0.29838 0.0725 0.0
H3631 H 0.05247 0.33031 0.09439 0.0
H3632 H 0.05885 0.31896 0.09563 0.0
H3633 H 0.07061 0.33714 0.0968 0.0
H3634 H 0.09037 0.33457 0.09473 0.0
H3635 H 0.10003 0.31958 0.11012 0.0
H3636 H 0.65947 0.67815 0.05314 0.0
H3637 H 0.66812 0.69888 0.06737 0.0
H3638 H 0.67859 0.72284 0.03032 0.0
H3639 H 0.67005 0.70214 0.01592 0.0
H3640 H 0.69735 0.72278 0.06457 0.0
H3641 H 0.65635 0.73481 0.05664 0.0
H3642 H 0.653 0.7177 0.05464 0.0
H3643 H 0.66223 0.73006 0.04155 0.0
C3644 C 0.66343 0.68778 0.04797 0.0
C3645 C 0.6641 0.68849 0.03337 0.0
C3646 C 0.66838 0.69962 0.05613 0.0
C3647 C 0.67391 0.71234 0.04987 0.0
C3648 C 0.67422 0.71307 0.03532 0.0
H3649 H 0.7362 0.7988 0.0876 0.0
H3650 H 0.7229 0.77349 0.07169 0.0
C3651 C 0.66937 0.70124 0.02712 0.0
C3652 C 0.68031 0.72492 0.05861 0.0
H3653 H 0.67624 0.75084 0.06967 0.0
C3654 C 0.69277 0.72894 0.06568 0.0
C3655 C 0.67419 0.73281 0.06011 0.0
C3656 C 0.66066 0.72866 0.05293 0.0
C3657 C 0.69939 0.74077 0.07412 0.0
C3658 C 0.69343 0.74883 0.07539 0.0
C3659 C 0.68083 0.74468 0.06855 0.0
C3660 C 0.70006 0.76151 0.08386 0.0
C3661 C 0.71253 0.74432 0.08183 0.0
C3662 C 0.69083 0.76274 0.09837 0.0
C3663 C 0.69856 0.77786 0.1093 0.0
C3664 C 0.71489 0.79252 0.10259 0.0
C3665 C 0.72621 0.79032 0.09048 0.0
C3666 C 0.71757 0.77479 0.08022 0.0
H3667 H 0.71325 0.73516 0.08333 0.0
H3668 H 0.7215 0.75167 0.07565 0.0
H3669 H 0.71329 0.74906 0.09217 0.0
H3670 H 0.68058 0.7543 0.10055 0.0
H3671 H 0.69276 0.77914 0.11735 0.0
H3672 H 0.30479 0.94759 0.01944 0.0
H3673 H 0.28164 0.93722 0.02887 0.0
H3674 H 0.28463 0.9761 0.02779 0.0
H3675 H 0.30767 0.98653 0.01814 0.0
H3676 H 0.27598 0.9447 0.05392 0.0
H3677 H 0.24611 0.95048 0.01143 0.0
H3678 H 0.26266 0.95229 0.00871 0.0
H3679 H 0.26173 0.9661 0.01633 0.0
C3680 C 0.30044 0.9539 0.02095 0.0
C3681 C 0.30812 0.96791 0.01805 0.0
C3682 C 0.28721 0.94795 0.02637 0.0
C3683 C 0.28136 0.95586 0.02893 0.0
C3684 C 0.28881 0.96974 0.02564 0.0
H3685 H 0.2096 0.94352 0.0726 0.0
H3686 H 0.23126 0.95274 0.06003 0.0
C3687 C 0.30203 0.9757 0.02019 0.0
C3688 C 0.26803 0.94987 0.03615 0.0
H3689 H 0.23552 0.94435 0.03358 0.0
C3690 C 0.26709 0.94451 0.04942 0.0
C3691 C 0.25649 0.94972 0.03029 0.0
C3692 C 0.25671 0.95484 0.01585 0.0
C3693 C 0.25501 0.93924 0.05712 0.0
C3694 C 0.2435 0.93915 0.0513 0.0
C3695 C 0.2444 0.94447 0.03801 0.0
C3696 C 0.23042 0.93355 0.05887 0.0
C3697 C 0.25479 0.93411 0.07157 0.0
C3698 C 0.22272 0.91969 0.06221 0.0
C3699 C 0.21042 0.91444 0.06942 0.0
C3700 C 0.20562 0.92297 0.07348 0.0
C3701 C 0.21321 0.93679 0.06986 0.0
C3702 C 0.22552 0.94204 0.06263 0.0
H3703 H 0.26536 0.93791 0.07576 0.0
H3704 H 0.24943 0.93727 0.07884 0.0
H3705 H 0.2491 0.9228 0.07122 0.0
H3706 H 0.22617 0.91291 0.05913 0.0
H3707 H 0.2046 0.90368 0.07176 0.0
H3708 H 0.33059 0.02513 0.99742 0.0
H3709 H 0.32322 0.03986 0.9878 0.0
H3710 H 0.36475 0.0681 0.97471 0.0
H3711 H 0.37215 0.05314 0.98396 0.0
H3712 H 0.33073 0.06568 0.99362 0.0
H3713 H 0.3433 0.06167 0.93884 0.0
H3714 H 0.34338 0.0509 0.95228 0.0
H3715 H 0.35772 0.06813 0.95079 0.0
C3716 C 0.3382 0.03449 0.99253 0.0
C3717 C 0.35195 0.0379 0.99137 0.0
C3718 C 0.33395 0.04291 0.98703 0.0
C3719 C 0.34336 0.05496 0.98028 0.0
C3720 C 0.35722 0.05867 0.97953 0.0
H3721 H 0.3286 0.1161 0.94435 0.0
H3722 H 0.3398 0.10449 0.95387 0.0
C3723 C 0.36146 0.05016 0.98492 0.0
C3724 C 0.3385 0.06353 0.97408 0.0
H3725 H 0.33514 0.07643 0.94341 0.0
C3726 C 0.33174 0.06805 0.98265 0.0
C3727 C 0.33979 0.0666 0.95974 0.0
C3728 C 0.34632 0.06148 0.94983 0.0
C3729 C 0.32614 0.07544 0.97726 0.0
C3730 C 0.32732 0.07838 0.96295 0.0
C3731 C 0.33433 0.07417 0.9544 0.0
C3732 C 0.32071 0.08524 0.95659 0.0
C3733 C 0.31887 0.07998 0.98686 0.0
C3734 C 0.30632 0.07817 0.95483 0.0
C3735 C 0.29993 0.08469 0.94926 0.0
C3736 C 0.30782 0.09839 0.94527 0.0
C3737 C 0.32228 0.10545 0.94703 0.0
C3738 C 0.32868 0.09887 0.95252 0.0
H3739 H 0.32091 0.07901 0.99799 0.0
H3740 H 0.32216 0.09075 0.98491 0.0
H3741 H 0.30757 0.07359 0.9848 0.0
H3742 H 0.30002 0.06763 0.95791 0.0
H3743 H 0.28877 0.07908 0.94828 0.0
H3744 H 0.98277 0.30367 0.00172 0.0
H3745 H 0.97357 0.28172 0.9895 0.0
H3746 H 0.93535 0.27992 0.98117 0.0
H3747 H 0.94436 0.30179 0.99336 0.0
H3748 H 0.94599 0.25444 0.99334 0.0
H3749 H 0.95282 0.27931 0.94223 0.0
H3750 H 0.96216 0.28874 0.95779 0.0
H3751 H 0.94428 0.28316 0.95547 0.0
C3752 C 0.97233 0.29853 0.99746 0.0
C3753 C 0.96435 0.30456 0.99842 0.0
C3754 C 0.96711 0.28599 0.99051 0.0
C3755 C 0.95387 0.27934 0.98434 0.0
C3756 C 0.94564 0.285 0.98579 0.0
H3757 H 0.90838 0.21102 0.91677 0.0
H3758 H 0.91828 0.2344 0.93534 0.0
C3759 C 0.95082 0.29748 0.99279 0.0
C3760 C 0.94893 0.2669 0.97566 0.0
H3761 H 0.94221 0.25544 0.94196 0.0
C3762 C 0.94518 0.2546 0.9821 0.0
C3763 C 0.94784 0.26722 0.96104 0.0
C3764 C 0.95206 0.28031 0.95364 0.0
C3765 C 0.94009 0.24246 0.97426 0.0
C3766 C 0.93911 0.2428 0.95959 0.0
C3767 C 0.94289 0.25515 0.9532 0.0
C3768 C 0.93423 0.23062 0.95053 0.0
C3769 C 0.93533 0.22938 0.98188 0.0
C3770 C 0.94185 0.22033 0.95243 0.0
C3771 C 0.93676 0.20593 0.94095 0.0
C3772 C 0.92151 0.20116 0.9295 0.0
C3773 C 0.91636 0.2135 0.92453 0.0
C3774 C 0.9221 0.22762 0.93655 0.0
H3775 H 0.93242 0.23006 0.99271 0.0
H3776 H 0.92632 0.22059 0.97652 0.0
H3777 H 0.94388 0.22744 0.98248 0.0
H3778 H 0.94976 0.22295 0.96031 0.0
H3779 H 0.94041 0.19907 0.94268 0.0
H3780 H 0.69606 0.64194 0.99873 0.0
H3781 H 0.71884 0.65615 0.9888 0.0
H3782 H 0.71691 0.69203 0.99668 0.0
H3783 H 0.69417 0.6779 0.0069 0.0
H3784 H 0.7242 0.67191 0.9657 0.0
H3785 H 0.75558 0.70401 0.01108 0.0
H3786 H 0.73887 0.68865 0.01292 0.0
H3787 H 0.74013 0.70416 0.00754 0.0
C3788 C 0.70055 0.65287 0.99856 0.0
C3789 C 0.69328 0.65878 0.0036 0.0
C3790 C 0.71357 0.66098 0.99286 0.0
C3791 C 0.71962 0.67515 0.99209 0.0
C3792 C 0.71256 0.68114 0.99741 0.0
H3793 H 0.79567 0.73629 0.95196 0.0
H3794 H 0.77329 0.72468 0.96352 0.0
C3795 C 0.69953 0.67304 0.00319 0.0
C3796 C 0.73285 0.68342 0.98482 0.0
H3797 H 0.76639 0.7095 0.9892 0.0
C3798 C 0.73342 0.68012 0.97085 0.0
C3799 C 0.74483 0.6942 0.99152 0.0
C3800 C 0.74492 0.69793 0.00663 0.0
C3801 C 0.74568 0.68723 0.96343 0.0
C3802 C 0.75772 0.69783 0.9702 0.0
C3803 C 0.75711 0.70136 0.98406 0.0
C3804 C 0.77117 0.70489 0.9632 0.0
C3805 C 0.74564 0.68339 0.94837 0.0
C3806 C 0.77742 0.69762 0.95941 0.0
C3807 C 0.79011 0.70418 0.95283 0.0
C3808 C 0.79677 0.71815 0.94982 0.0
C3809 C 0.79061 0.72547 0.95387 0.0
C3810 C 0.7779 0.71888 0.96052 0.0
H3811 H 0.73502 0.67758 0.94379 0.0
H3812 H 0.75201 0.69261 0.94209 0.0
H3813 H 0.75012 0.67687 0.94763 0.0
H3814 H 0.77252 0.68687 0.96167 0.0
H3815 H 0.7948 0.69837 0.95019 0.0
H3816 H 0.97842 0.66137 0.98491 0.0
H3817 H 0.96411 0.6691 0.97436 0.0
H3818 H 0.95375 0.67647 0.01514 0.0
H3819 H 0.96839 0.66915 0.0258 0.0
H3820 H 0.93719 0.66115 0.97546 0.0
H3821 H 0.96987 0.71347 0.99777 0.0
H3822 H 0.97492 0.70104 0.99846 0.0
H3823 H 0.96287 0.70055 0.01072 0.0
C3824 C 0.97299 0.66451 0.99166 0.0
C3825 C 0.97468 0.66481 0.00621 0.0
C3826 C 0.96482 0.66893 0.9856 0.0
C3827 C 0.95814 0.67368 0.99396 0.0
C3828 C 0.95914 0.67322 0.00849 0.0
H3829 H 0.89553 0.69042 0.96656 0.0
H3830 H 0.90805 0.68011 0.97576 0.0
C3831 C 0.96742 0.66893 0.01457 0.0
C3832 C 0.95052 0.67951 0.98743 0.0
H3833 H 0.94906 0.70835 0.98629 0.0
C3834 C 0.9398 0.67148 0.9778 0.0
C3835 C 0.95413 0.6931 0.99027 0.0
C3836 C 0.96616 0.70259 0.99976 0.0
C3837 C 0.93242 0.67657 0.97111 0.0
C3838 C 0.93565 0.68996 0.9744 0.0
C3839 C 0.94651 0.69805 0.98387 0.0
C3840 C 0.92792 0.69581 0.96821 0.0
C3841 C 0.92143 0.66767 0.96039 0.0
C3842 C 0.93496 0.70824 0.9612 0.0
C3843 C 0.92785 0.71422 0.95608 0.0
C3844 C 0.91351 0.7078 0.95775 0.0
C3845 C 0.9065 0.69539 0.96482 0.0
C3846 C 0.91364 0.68947 0.97002 0.0
H3847 H 0.92308 0.65965 0.9561 0.0
H3848 H 0.9112 0.66249 0.96534 0.0
H3849 H 0.92121 0.6738 0.95166 0.0
H3850 H 0.94601 0.7134 0.95983 0.0
H3851 H 0.93358 0.72395 0.95099 0.0
H3852 H 0.32519 0.30587 0.02639 0.0
H3853 H 0.31684 0.28457 0.01326 0.0
H3854 H 0.33463 0.3073 0.97601 0.0
H3855 H 0.34316 0.32867 0.98906 0.0
H3856 H 0.29839 0.27594 0.99062 0.0
H3857 H 0.34732 0.27996 0.97572 0.0
H3858 H 0.34655 0.29038 0.9894 0.0
H3859 H 0.34632 0.29457 0.97148 0.0
C3860 C 0.32753 0.30637 0.01545 0.0
C3861 C 0.33484 0.31898 0.00878 0.0
C3862 C 0.32272 0.29417 0.00797 0.0
C3863 C 0.32522 0.29436 0.9937 0.0
C3864 C 0.3328 0.30693 0.98707 0.0
H3865 H 0.29723 0.23349 0.92749 0.0
H3866 H 0.3082 0.25444 0.94181 0.0
C3867 C 0.33761 0.31914 0.99454 0.0
C3868 C 0.31902 0.28139 0.98557 0.0
H3869 H 0.32673 0.26232 0.96456 0.0
C3870 C 0.30459 0.2729 0.98502 0.0
C3871 C 0.32713 0.27751 0.97819 0.0
C3872 C 0.3427 0.28601 0.97879 0.0
C3873 C 0.29801 0.26075 0.97706 0.0
C3874 C 0.30611 0.25686 0.96967 0.0
C3875 C 0.32055 0.26533 0.97025 0.0
C3876 C 0.29975 0.24412 0.96114 0.0
C3877 C 0.28243 0.25239 0.97631 0.0
C3878 C 0.29152 0.23138 0.9673 0.0
C3879 C 0.28523 0.21941 0.95914 0.0
C3880 C 0.28724 0.21997 0.94471 0.0
C3881 C 0.29562 0.23275 0.9386 0.0
C3882 C 0.30188 0.24471 0.94676 0.0
H3883 H 0.27787 0.25844 0.97956 0.0
H3884 H 0.27864 0.24829 0.96561 0.0
H3885 H 0.27865 0.24364 0.9834 0.0
H3886 H 0.28992 0.23068 0.97841 0.0
H3887 H 0.27876 0.20972 0.96411 0.0
H3888 H 0.70938 0.0596 0.98972 0.0
H3889 H 0.73224 0.06649 0.98114 0.0
H3890 H 0.72542 0.02702 0.99113 0.0
H3891 H 0.70261 0.02005 0.99985 0.0
H3892 H 0.75158 0.04904 0.99956 0.0
H3893 H 0.73938 0.05284 0.94428 0.0
H3894 H 0.73582 0.06254 0.95637 0.0
H3895 H 0.72619 0.04424 0.95708 0.0
C3896 C 0.71274 0.05239 0.99015 0.0
C3897 C 0.70412 0.03924 0.99541 0.0
C3898 C 0.72578 0.05632 0.98515 0.0
C3899 C 0.7304 0.04718 0.98529 0.0
C3900 C 0.72199 0.03419 0.99086 0.0
H3901 H 0.79926 0.05229 0.94153 0.0
H3902 H 0.77637 0.04581 0.94997 0.0
C3903 C 0.70895 0.03023 0.99584 0.0
C3904 C 0.74404 0.05115 0.97968 0.0
H3905 H 0.76275 0.06063 0.94998 0.0
C3906 C 0.75403 0.05156 0.98872 0.0
C3907 C 0.74712 0.05425 0.96549 0.0
C3908 C 0.73654 0.05334 0.95518 0.0
C3909 C 0.76713 0.0552 0.984 0.0
C3910 C 0.77034 0.05869 0.9699 0.0
C3911 C 0.76028 0.05807 0.9608 0.0
C3912 C 0.78409 0.06292 0.9644 0.0
C3913 C 0.77734 0.05508 0.99408 0.0
C3914 C 0.79592 0.07481 0.96955 0.0
C3915 C 0.80894 0.07853 0.96473 0.0
C3916 C 0.81034 0.07052 0.95457 0.0
C3917 C 0.79844 0.05872 0.94925 0.0
C3918 C 0.78541 0.05501 0.95408 0.0
H3919 H 0.77219 0.049 0.00341 0.0
H3920 H 0.78305 0.05085 0.98904 0.0
H3921 H 0.78494 0.06569 0.9976 0.0
H3922 H 0.7951 0.08116 0.97737 0.0
H3923 H 0.81795 0.08761 0.96906 0.0
H3924 H 0.65778 0.97621 0.03389 0.0
H3925 H 0.66434 0.96195 0.04631 0.0
H3926 H 0.68879 0.9637 0.01163 0.0
H3927 H 0.68243 0.97808 0.99917 0.0
H3928 H 0.66219 0.93657 0.03948 0.0
H3929 H 0.71659 0.97982 0.0448 0.0
H3930 H 0.70266 0.98214 0.03964 0.0
H3931 H 0.70974 0.97576 0.02729 0.0
C3932 C 0.66441 0.97343 0.02881 0.0
C3933 C 0.6697 0.97843 0.01559 0.0
C3934 C 0.66814 0.96527 0.03593 0.0
C3935 C 0.67724 0.96199 0.02999 0.0
C3936 C 0.68194 0.96633 0.0165 0.0
H3937 H 0.72167 0.92568 0.0635 0.0
H3938 H 0.71143 0.93508 0.04823 0.0
C3939 C 0.67823 0.97449 0.00936 0.0
C3940 C 0.6824 0.95468 0.0382 0.0
H3941 H 0.71165 0.95858 0.05319 0.0
C3942 C 0.673 0.94135 0.04248 0.0
C3943 C 0.6965 0.96098 0.04213 0.0
C3944 C 0.70697 0.9755 0.03835 0.0
C3945 C 0.67737 0.93407 0.05043 0.0
C3946 C 0.69147 0.94041 0.0544 0.0
C3947 C 0.70086 0.95372 0.05007 0.0
C3948 C 0.69677 0.9336 0.06328 0.0
C3949 C 0.66691 0.9196 0.05432 0.0
C3950 C 0.69193 0.92966 0.07682 0.0
C3951 C 0.69772 0.92422 0.08553 0.0
C3952 C 0.70847 0.92263 0.08086 0.0
C3953 C 0.71326 0.92656 0.06729 0.0
C3954 C 0.70745 0.93197 0.05858 0.0
H3955 H 0.65763 0.91502 0.04734 0.0
H3956 H 0.67143 0.91309 0.05392 0.0
H3957 H 0.66353 0.91956 0.0651 0.0
H3958 H 0.68398 0.93118 0.08081 0.0
H3959 H 0.69403 0.92155 0.09603 0.0
H3960 H 0.01769 0.70007 0.01716 0.0
H3961 H 0.02366 0.72273 0.0253 0.0
H3962 H 0.06246 0.73013 0.04189 0.0
H3963 H 0.05675 0.70767 0.03349 0.0
H3964 H 0.02749 0.73124 0.0517 0.0
H3965 H 0.07486 0.7657 0.0231 0.0
H3966 H 0.06356 0.74795 0.01821 0.0
H3967 H 0.0763 0.75286 0.03196 0.0
C3968 C 0.02761 0.70661 0.02231 0.0
C3969 C 0.03675 0.70205 0.02468 0.0
C3970 C 0.031 0.71957 0.02696 0.0
C3971 C 0.04358 0.72821 0.03404 0.0
C3972 C 0.05285 0.7238 0.03613 0.0
H3973 H 0.06325 0.78696 0.09864 0.0
H3974 H 0.0556 0.76685 0.08371 0.0
C3975 C 0.04952 0.71089 0.03141 0.0
C3976 C 0.04647 0.74125 0.04041 0.0
H3977 H 0.0713 0.77503 0.0441 0.0
C3978 C 0.03697 0.74085 0.04987 0.0
C3979 C 0.05873 0.75385 0.03787 0.0
C3980 C 0.06886 0.75515 0.02711 0.0
C3981 C 0.03973 0.75255 0.05736 0.0
C3982 C 0.05246 0.7649 0.05559 0.0
C3983 C 0.06163 0.76549 0.0456 0.0
C3984 C 0.05677 0.77708 0.06454 0.0
C3985 C 0.02901 0.75153 0.06719 0.0
C3986 C 0.06025 0.78959 0.05869 0.0
C3987 C 0.06478 0.80115 0.06721 0.0
C3988 C 0.06607 0.80042 0.08169 0.0
C3989 C 0.06244 0.78784 0.0875 0.0
C3990 C 0.05796 0.77632 0.079 0.0
H3991 H 0.01849 0.74306 0.06405 0.0
H3992 H 0.0313 0.7494 0.07779 0.0
H3993 H 0.02904 0.76118 0.06765 0.0
H3994 H 0.05945 0.79039 0.04754 0.0
H3995 H 0.06739 0.81069 0.06248 0.0
H3996 H 0.30467 0.32835 0.02959 0.0
H3997 H 0.28082 0.31253 0.03617 0.0
H3998 H 0.27814 0.34615 0.05217 0.0
H3999 H 0.30209 0.36208 0.04584 0.0
H4000 H 0.26745 0.3242 0.06999 0.0
H4001 H 0.24638 0.30723 0.01627 0.0
H4002 H 0.26066 0.30529 0.0205 0.0
H4003 H 0.26326 0.32208 0.01988 0.0
C4004 C 0.29901 0.33241 0.03447 0.0
C4005 C 0.30528 0.34651 0.03711 0.0
C4006 C 0.28535 0.32335 0.03816 0.0
C4007 C 0.27765 0.32819 0.04446 0.0
C4008 C 0.2839 0.34222 0.04726 0.0
H4009 H 0.18885 0.28388 0.05218 0.0
H4010 H 0.21304 0.30031 0.04701 0.0
C4011 C 0.29758 0.3513 0.04361 0.0
C4012 C 0.26312 0.31863 0.04826 0.0
H4013 H 0.23138 0.29501 0.03467 0.0
C4014 C 0.25954 0.31784 0.06228 0.0
C4015 C 0.25282 0.31046 0.03814 0.0
C4016 C 0.2559 0.31136 0.02284 0.0
C4017 C 0.24593 0.30896 0.06649 0.0
C4018 C 0.23571 0.30052 0.05642 0.0
C4019 C 0.23927 0.30142 0.04239 0.0
C4020 C 0.22117 0.29087 0.06013 0.0
C4021 C 0.24255 0.30889 0.08163 0.0
C4022 C 0.21773 0.28008 0.06918 0.0
C4023 C 0.20392 0.27074 0.07221 0.0
C4024 C 0.19334 0.27202 0.0662 0.0
C4025 C 0.19682 0.28277 0.05708 0.0
C4026 C 0.2106 0.29212 0.0541 0.0
H4027 H 0.25057 0.31828 0.08726 0.0
H4028 H 0.23241 0.30797 0.08276 0.0
H4029 H 0.24202 0.3 0.08668 0.0
H4030 H 0.2257 0.27875 0.0737 0.0
H4031 H 0.20148 0.2624 0.07909 0.0
H4032 H 0.70397 0.67539 0.34007 0.0
H4033 H 0.71628 0.66739 0.35426 0.0
H4034 H 0.70032 0.67482 0.39146 0.0
H4035 H 0.68798 0.68283 0.37742 0.0
H4036 H 0.73611 0.68074 0.37814 0.0
H4037 H 0.68712 0.63312 0.39111 0.0
H4038 H 0.68836 0.64366 0.37673 0.0
H4039 H 0.68761 0.6488 0.39422 0.0
C4040 C 0.70317 0.67545 0.35127 0.0
C4041 C 0.69489 0.67964 0.35759 0.0
C4042 C 0.71024 0.67091 0.35936 0.0
C4043 C 0.70907 0.67039 0.37387 0.0
C4044 C 0.70123 0.67502 0.38025 0.0
H4045 H 0.76022 0.65462 0.44029 0.0
H4046 H 0.74897 0.66709 0.42294 0.0
C4047 C 0.69421 0.67962 0.3722 0.0
C4048 C 0.71545 0.66436 0.38229 0.0
H4049 H 0.70748 0.63688 0.40216 0.0
C4050 C 0.72989 0.67116 0.38343 0.0
C4051 C 0.70728 0.65177 0.38897 0.0
C4052 C 0.69173 0.64381 0.38766 0.0
C4053 C 0.73639 0.66576 0.39127 0.0
C4054 C 0.72818 0.65332 0.3982 0.0
C4055 C 0.71376 0.64644 0.39687 0.0
C4056 C 0.73415 0.647 0.40672 0.0
C4057 C 0.75194 0.67322 0.39167 0.0
C4058 C 0.72757 0.62906 0.40386 0.0
C4059 C 0.73341 0.62028 0.41458 0.0
C4060 C 0.74835 0.63155 0.42633 0.0
C4061 C 0.75246 0.64878 0.43231 0.0
C4062 C 0.74599 0.65663 0.42096 0.0
H4063 H 0.75647 0.68025 0.38281 0.0
H4064 H 0.75589 0.67942 0.40142 0.0
H4065 H 0.75557 0.66597 0.39141 0.0
H4066 H 0.71999 0.6235 0.39566 0.0
H4067 H 0.73043 0.60988 0.41218 0.0
H4068 H 0.31571 0.02121 0.37068 0.0
H4069 H 0.32484 0.04351 0.38215 0.0
H4070 H 0.35708 0.04 0.40183 0.0
H4071 H 0.34794 0.01769 0.39063 0.0
H4072 H 0.34449 0.04842 0.42006 0.0
H4073 H 0.35981 0.07942 0.37232 0.0
H4074 H 0.34205 0.06573 0.37245 0.0
H4075 H 0.35547 0.06193 0.37229 0.0
C4076 C 0.32476 0.02521 0.37743 0.0
C4077 C 0.33111 0.01768 0.3797 0.0
C4078 C 0.33001 0.03799 0.38391 0.0
C4079 C 0.34175 0.0435 0.3927 0.0
C4080 C 0.34803 0.03596 0.39506 0.0
H4081 H 0.40139 0.13382 0.41894 0.0
H4082 H 0.38771 0.10654 0.40695 0.0
C4083 C 0.34279 0.0232 0.38862 0.0
C4084 C 0.34744 0.05701 0.39969 0.0
H4085 H 0.36228 0.09103 0.39361 0.0
C4086 C 0.34831 0.05774 0.41428 0.0
C4087 C 0.35264 0.06917 0.39212 0.0
C4088 C 0.35259 0.06912 0.37643 0.0
C4089 C 0.35428 0.07028 0.42153 0.0
C4090 C 0.35918 0.0824 0.41396 0.0
C4091 C 0.35835 0.0817 0.39938 0.0
C4092 C 0.3659 0.09598 0.42084 0.0
C4093 C 0.35579 0.07037 0.43715 0.0
C4094 C 0.35759 0.09898 0.43513 0.0
C4095 C 0.36567 0.11544 0.44372 0.0
C4096 C 0.38112 0.1292 0.43483 0.0
C4097 C 0.39179 0.12571 0.42305 0.0
C4098 C 0.38285 0.1089 0.41517 0.0
H4099 H 0.356 0.06132 0.44069 0.0
H4100 H 0.36536 0.07969 0.44103 0.0
H4101 H 0.34679 0.06996 0.44197 0.0
H4102 H 0.34757 0.09093 0.43846 0.0
H4103 H 0.36029 0.11767 0.45148 0.0
H4104 H 0.98194 0.28642 0.36769 0.0
H4105 H 0.95869 0.27761 0.3761 0.0
H4106 H 0.96346 0.31694 0.37028 0.0
H4107 H 0.98671 0.32579 0.3615 0.0
H4108 H 0.95166 0.28634 0.39899 0.0
H4109 H 0.92596 0.29159 0.35202 0.0
H4110 H 0.94249 0.29297 0.35141 0.0
H4111 H 0.94133 0.30706 0.35776 0.0
C4112 C 0.97802 0.29319 0.36805 0.0
C4113 C 0.98619 0.30682 0.36391 0.0
C4114 C 0.96472 0.28812 0.37288 0.0
C4115 C 0.95927 0.29656 0.37371 0.0
C4116 C 0.96733 0.31015 0.36946 0.0
H4117 H 0.8809 0.27871 0.40899 0.0
H4118 H 0.9044 0.29062 0.39985 0.0
C4119 C 0.98064 0.31522 0.3645 0.0
C4120 C 0.94545 0.2912 0.37973 0.0
H4121 H 0.91291 0.28437 0.37256 0.0
C4122 C 0.9432 0.28593 0.3932 0.0
C4123 C 0.93444 0.29073 0.37219 0.0
C4124 C 0.93609 0.29577 0.3575 0.0
C4125 C 0.93021 0.28006 0.39928 0.0
C4126 C 0.91917 0.27939 0.39167 0.0
C4127 C 0.92145 0.28495 0.37835 0.0
C4128 C 0.90503 0.2723 0.39715 0.0
C4129 C 0.92835 0.27457 0.41379 0.0
C4130 C 0.89762 0.25808 0.39844 0.0
C4131 C 0.88426 0.25129 0.4036 0.0
C4132 C 0.87813 0.25862 0.40775 0.0
C4133 C 0.88551 0.27286 0.40619 0.0
C4134 C 0.89886 0.27965 0.40092 0.0
H4135 H 0.93839 0.27841 0.41933 0.0
H4136 H 0.92201 0.27737 0.41999 0.0
H4137 H 0.92284 0.26326 0.41319 0.0
H4138 H 0.90215 0.25223 0.39535 0.0
H4139 H 0.8787 0.24028 0.4043 0.0
H4140 H 0.03078 0.3666 0.31795 0.0
H4141 H 0.02958 0.38453 0.30583 0.0
H4142 H 0.0163 0.39454 0.34345 0.0
H4143 H 0.01761 0.37673 0.35571 0.0
H4144 H 0.0065 0.38647 0.30183 0.0
H4145 H 0.04783 0.43177 0.33086 0.0
H4146 H 0.04597 0.41523 0.33162 0.0
H4147 H 0.03515 0.41889 0.34186 0.0
C4148 C 0.02772 0.37269 0.3237 0.0
C4149 C 0.02432 0.37025 0.33782 0.0
C4150 C 0.02702 0.38292 0.31674 0.0
C4151 C 0.02303 0.39098 0.32379 0.0
C4152 C 0.01968 0.38861 0.33789 0.0
H4153 H 0.98891 0.4368 0.29196 0.0
H4154 H 0.99329 0.41984 0.30166 0.0
C4155 C 0.02035 0.37838 0.34486 0.0
C4156 C 0.02173 0.40141 0.31622 0.0
H4157 H 0.03281 0.4353 0.31639 0.0
C4158 C 0.01233 0.39717 0.30494 0.0
C4159 C 0.02949 0.41539 0.32016 0.0
C4160 C 0.04028 0.42065 0.3317 0.0
C4161 C 0.01015 0.40646 0.29778 0.0
C4162 C 0.01742 0.42032 0.30216 0.0
C4163 C 0.02716 0.42465 0.31314 0.0
C4164 C 0.01472 0.43039 0.29581 0.0
C4165 C 1.00011 0.40136 0.28556 0.0
C4166 C 0.0254 0.4421 0.28956 0.0
C4167 C 0.02292 0.45183 0.28404 0.0
C4168 C 0.00971 0.45 0.28466 0.0
C4169 C 0.9991 0.43832 0.29105 0.0
C4170 C 0.00158 0.42861 0.29656 0.0
H4171 H 0.99852 0.3917 0.2811 0.0
H4172 H 0.98997 0.39935 0.28907 0.0
H4173 H 0.00376 0.40906 0.27724 0.0
H4174 H 0.03566 0.44373 0.28902 0.0
H4175 H 0.03136 0.46087 0.27943 0.0
H4176 H 0.64919 0.64618 0.33432 0.0
H4177 H 0.63945 0.623 0.32487 0.0
H4178 H 0.60938 0.6269 0.30103 0.0
H4179 H 0.61875 0.64983 0.31065 0.0
H4180 H 0.59793 0.60223 0.31335 0.0
H4181 H 0.64549 0.61384 0.28591 0.0
H4182 H 0.64776 0.61724 0.30432 0.0
H4183 H 0.64333 0.62701 0.29336 0.0
C4184 C 0.64047 0.64208 0.32711 0.0
C4185 C 0.6348 0.6499 0.32318 0.0
C4186 C 0.63497 0.62886 0.32165 0.0
C4187 C 0.62386 0.62332 0.31204 0.0
C4188 C 0.61799 0.63099 0.30838 0.0
H4189 H 0.57056 0.54918 0.25335 0.0
H4190 H 0.58256 0.5739 0.27026 0.0
C4191 C 0.62339 0.64412 0.3139 0.0
C4192 C 0.61829 0.60961 0.3056 0.0
H4193 H 0.62661 0.59115 0.28438 0.0
C4194 C 0.60421 0.5998 0.30703 0.0
C4195 C 0.62652 0.60642 0.29744 0.0
C4196 C 0.64158 0.6167 0.29503 0.0
C4197 C 0.59809 0.58698 0.30035 0.0
C4198 C 0.60625 0.58395 0.29193 0.0
C4199 C 0.6204 0.59353 0.29086 0.0
C4200 C 0.60025 0.57123 0.28359 0.0
C4201 C 0.58301 0.57672 0.3026 0.0
C4202 C 0.60824 0.56123 0.28465 0.0
C4203 C 0.60194 0.54607 0.27402 0.0
C4204 C 0.58536 0.54039 0.26456 0.0
C4205 C 0.57942 0.55224 0.26012 0.0
C4206 C 0.58646 0.56717 0.27123 0.0
H4207 H 0.57931 0.57909 0.31223 0.0
H4208 H 0.57682 0.57692 0.29371 0.0
H4209 H 0.58108 0.56625 0.30335 0.0
H4210 H 0.61692 0.56439 0.29171 0.0
H4211 H 0.60584 0.53938 0.27546 0.0
H4212 H 0.35171 0.00317 0.34076 0.0
H4213 H 0.37449 0.01259 0.33046 0.0
H4214 H 0.36252 0.97255 0.31487 0.0
H4215 H 0.3398 0.96311 0.32487 0.0
H4216 H 0.39451 0.00582 0.33506 0.0
H4217 H 0.37613 0.99568 0.2801 0.0
H4218 H 0.36548 0.9951 0.29416 0.0
H4219 H 0.36735 0.98079 0.2906 0.0
C4220 C 0.35393 0.99638 0.33511 0.0
C4221 C 0.34389 0.9824 0.33354 0.0
C4222 C 0.36694 0.00178 0.32924 0.0
C4223 C 0.37007 0.99331 0.32166 0.0
C4224 C 0.36019 0.97932 0.32037 0.0
H4225 H 0.43901 0.99539 0.28488 0.0
H4226 H 0.41702 0.98991 0.29482 0.0
C4227 C 0.34722 0.97393 0.32619 0.0
C4228 C 0.38374 0.99891 0.31529 0.0
H4229 H 0.3991 0.00067 0.28446 0.0
C4230 C 0.39556 0.00488 0.32398 0.0
C4231 C 0.38506 0.9977 0.30081 0.0
C4232 C 0.37284 0.9921 0.29085 0.0
C4233 C 0.40862 0.00916 0.31863 0.0
C4234 C 0.40982 0.00747 0.30425 0.0
C4235 C 0.39808 0.00186 0.29551 0.0
C4236 C 0.4231 0.01095 0.29816 0.0
C4237 C 0.42098 0.01499 0.32841 0.0
C4238 C 0.43371 0.02461 0.29671 0.0
C4239 C 0.44622 0.02777 0.29088 0.0
C4240 C 0.44826 0.01734 0.28632 0.0
C4241 C 0.43762 0.00366 0.28797 0.0
C4242 C 0.4251 0.00051 0.2937 0.0
H4243 H 0.41803 0.01406 0.33949 0.0
H4244 H 0.4267 0.00972 0.32675 0.0
H4245 H 0.4281 0.02595 0.3262 0.0
H4246 H 0.4323 0.03279 0.30008 0.0
H4247 H 0.45434 0.03838 0.28997 0.0
H4248 H 0.62544 0.94827 0.33322 0.0
H4249 H 0.60792 0.95093 0.32119 0.0
H4250 H 0.63376 0.99463 0.32621 0.0
H4251 H 0.65137 0.99211 0.33812 0.0
H4252 H 0.59398 0.96357 0.331 0.0
H4253 H 0.62452 0.98923 0.2843 0.0
H4254 H 0.62925 0.98032 0.29629 0.0
H4255 H 0.63299 0.99716 0.3006 0.0
C4256 C 0.62742 0.95845 0.33174 0.0
C4257 C 0.63984 0.96998 0.33657 0.0
C4258 C 0.61739 0.95995 0.32487 0.0
C4259 C 0.61964 0.97298 0.32262 0.0
C4260 C 0.63193 0.98449 0.3276 0.0
H4261 H 0.56876 0.00118 0.2858 0.0
H4262 H 0.5872 0.99974 0.29758 0.0
C4263 C 0.64195 0.98301 0.33447 0.0
C4264 C 0.60901 0.97452 0.3153 0.0
H4265 H 0.60314 0.98795 0.2864 0.0
C4266 C 0.59596 0.96886 0.32123 0.0
C4267 C 0.61166 0.98147 0.30258 0.0
C4268 C 0.62532 0.9873 0.29547 0.0
C4269 C 0.58551 0.97006 0.31482 0.0
C4270 C 0.58814 0.97694 0.30208 0.0
C4271 C 0.6012 0.98271 0.29619 0.0
C4272 C 0.57728 0.97792 0.29454 0.0
C4273 C 0.57177 0.96411 0.32179 0.0
C4274 C 0.56575 0.96615 0.28877 0.0
C4275 C 0.55533 0.96696 0.28192 0.0
C4276 C 0.55628 0.97957 0.28059 0.0
C4277 C 0.56788 0.99137 0.28638 0.0
C4278 C 0.57837 0.99056 0.29316 0.0
H4279 H 0.57237 0.9618 0.33288 0.0
H4280 H 0.56798 0.97123 0.32123 0.0
H4281 H 0.56408 0.95447 0.31632 0.0
H4282 H 0.56479 0.95632 0.28967 0.0
H4283 H 0.54639 0.95769 0.27779 0.0
H4284 H 0.00988 0.6653 0.32282 0.0
H4285 H 0.00477 0.64377 0.31213 0.0
H4286 H 0.04629 0.65394 0.32157 0.0
H4287 H 0.05151 0.67552 0.3324 0.0
H4288 H 0.01819 0.63883 0.28973 0.0
H4289 H 0.02129 0.61629 0.33953 0.0
H4290 H 0.01978 0.63112 0.33891 0.0
H4291 H 0.03607 0.63272 0.33573 0.0
C4292 C 0.01796 0.663 0.32261 0.0
C4293 C 0.03109 0.67211 0.32856 0.0
C4294 C 0.01502 0.6507 0.31646 0.0
C4295 C 0.0251 0.64721 0.31622 0.0
C4296 C 0.03831 0.65638 0.32185 0.0
H4297 H 0.02107 0.57243 0.29141 0.0
H4298 H 0.02887 0.59586 0.29864 0.0
C4299 C 0.04129 0.66872 0.32798 0.0
C4300 C 0.02164 0.63383 0.3103 0.0
H4301 H 0.0175 0.60327 0.31905 0.0
C4302 C 0.01806 0.63104 0.29611 0.0
C4303 C 0.02147 0.62372 0.31867 0.0
C4304 C 0.02475 0.626 0.33408 0.0
C4305 C 0.01441 0.61841 0.29003 0.0
C4306 C 0.01409 0.60824 0.29844 0.0
C4307 C 0.01779 0.6111 0.31261 0.0
C4308 C 0.00971 0.59445 0.2929 0.0
C4309 C 0.01113 0.61615 0.27463 0.0
C4310 C 0.99636 0.58589 0.28724 0.0
C4311 C 0.99192 0.57253 0.28302 0.0
C4312 C 0.00074 0.56748 0.28444 0.0
C4313 C 0.01413 0.57611 0.29002 0.0
C4314 C 0.01857 0.58947 0.29419 0.0
H4315 H 0.01562 0.62596 0.26908 0.0
H4316 H 0.01507 0.61003 0.26993 0.0
H4317 H 0.99977 0.6105 0.27296 0.0
H4318 H 0.98922 0.5894 0.28648 0.0
H4319 H 0.98148 0.56602 0.27897 0.0
H4320 H 0.35632 0.38367 0.30524 0.0
H4321 H 0.37928 0.39109 0.29665 0.0
H4322 H 0.38338 0.36566 0.32653 0.0
H4323 H 0.36019 0.35776 0.33479 0.0
H4324 H 0.4038 0.40457 0.30852 0.0
H4325 H 0.3936 0.35393 0.29193 0.0
H4326 H 0.37998 0.35662 0.2969 0.0
H4327 H 0.39001 0.35429 0.30997 0.0
C4328 C 0.36209 0.37962 0.30996 0.0
C4329 C 0.3564 0.37005 0.32064 0.0
C4330 C 0.37522 0.38387 0.30503 0.0
C4331 C 0.38297 0.37872 0.31073 0.0
C4332 C 0.37745 0.36945 0.32165 0.0
H4333 H 0.47129 0.41597 0.30683 0.0
H4334 H 0.44763 0.40909 0.31239 0.0
C4335 C 0.36423 0.36503 0.32645 0.0
C4336 C 0.39696 0.38336 0.30548 0.0
H4337 H 0.41733 0.37194 0.2936 0.0
C4338 C 0.40671 0.39742 0.30515 0.0
C4339 C 0.40072 0.37408 0.30078 0.0
C4340 C 0.39047 0.3589 0.29976 0.0
C4341 C 0.4202 0.40245 0.30063 0.0
C4342 C 0.4242 0.39314 0.29678 0.0
C4343 C 0.41434 0.37909 0.29672 0.0
C4344 C 0.43863 0.39771 0.29313 0.0
C4345 C 0.42993 0.41769 0.29986 0.0
C4346 C 0.44144 0.39325 0.28066 0.0
C4347 C 0.45495 0.39696 0.2776 0.0
C4348 C 0.46592 0.40538 0.28687 0.0
C4349 C 0.46306 0.40977 0.29935 0.0
C4350 C 0.44956 0.40591 0.30249 0.0
H4351 H 0.4242 0.42299 0.29844 0.0
H4352 H 0.43599 0.42155 0.30976 0.0
H4353 H 0.43722 0.42044 0.29118 0.0
H4354 H 0.43315 0.38678 0.27335 0.0
H4355 H 0.45678 0.39316 0.26804 0.0
H4356 H 0.32845 0.30342 0.33182 0.0
H4357 H 0.33468 0.2888 0.34397 0.0
H4358 H 0.32829 0.30259 0.3834 0.0
H4359 H 0.32174 0.31701 0.37133 0.0
H4360 H 0.35607 0.29644 0.36206 0.0
H4361 H 0.30669 0.26162 0.38795 0.0
H4362 H 0.30804 0.27281 0.37423 0.0
H4363 H 0.31345 0.27935 0.39172 0.0
C4364 C 0.3282 0.30323 0.34307 0.0
C4365 C 0.32454 0.31135 0.35059 0.0
C4366 C 0.3318 0.29488 0.35001 0.0
C4367 C 0.3318 0.29447 0.36459 0.0
C4368 C 0.32807 0.3025 0.37214 0.0
H4369 H 0.37601 0.26374 0.41167 0.0
H4370 H 0.36823 0.27828 0.40207 0.0
C4371 C 0.32439 0.3108 0.36521 0.0
C4372 C 0.33629 0.28608 0.37186 0.0
H4373 H 0.32598 0.26011 0.39474 0.0
C4374 C 0.34948 0.28848 0.36919 0.0
C4375 C 0.32765 0.27562 0.38108 0.0
C4376 C 0.31312 0.27208 0.38383 0.0
C4377 C 0.35427 0.28073 0.37547 0.0
C4378 C 0.34575 0.27049 0.38494 0.0
C4379 C 0.33255 0.26807 0.3876 0.0
C4380 C 0.35007 0.26171 0.39164 0.0
C4381 C 0.36824 0.28333 0.37157 0.0
C4382 C 0.34218 0.24753 0.38941 0.0
C4383 C 0.34646 0.23919 0.39509 0.0
C4384 C 0.35866 0.24485 0.40323 0.0
C4385 C 0.36646 0.25906 0.40562 0.0
C4386 C 0.36211 0.26739 0.40001 0.0
H4387 H 0.37179 0.28889 0.36164 0.0
H4388 H 0.37593 0.28969 0.37983 0.0
H4389 H 0.36805 0.27362 0.37051 0.0
H4390 H 0.33287 0.24292 0.38297 0.0
H4391 H 0.34038 0.22832 0.39289 0.0
H4392 H 0.72485 0.02345 0.38537 0.0
H4393 H 0.73359 0.04746 0.3909 0.0
H4394 H 0.69732 0.04368 0.37155 0.0
H4395 H 0.68857 0.01976 0.36582 0.0
H4396 H 0.72174 0.06619 0.36292 0.0
H4397 H 0.72034 0.06363 0.42056 0.0
H4398 H 0.72955 0.05667 0.41255 0.0
H4399 H 0.71128 0.04863 0.40942 0.0
C4400 C 0.71869 0.0277 0.38236 0.0
C4401 C 0.70599 0.01966 0.37516 0.0
C4402 C 0.72367 0.0414 0.38561 0.0
C4403 C 0.71601 0.04729 0.38181 0.0
C4404 C 0.70336 0.03931 0.37464 0.0
H4405 H 0.72784 0.12571 0.40563 0.0
H4406 H 0.71954 0.10136 0.40288 0.0
C4407 C 0.69837 0.02562 0.37137 0.0
C4408 C 0.72145 0.06193 0.38471 0.0
H4409 H 0.73145 0.08576 0.41088 0.0
C4410 C 0.72384 0.07047 0.3734 0.0
C4411 C 0.72404 0.06744 0.39841 0.0
C4412 C 0.72106 0.05862 0.41096 0.0
C4413 C 0.72891 0.08441 0.37541 0.0
C4414 C 0.73188 0.09 0.38908 0.0
C4415 C 0.72931 0.08145 0.40041 0.0
C4416 C 0.73742 0.10468 0.39175 0.0
C4417 C 0.73083 0.09299 0.36288 0.0
C4418 C 0.75034 0.11457 0.3867 0.0
C4419 C 0.75509 0.12843 0.38827 0.0
C4420 C 0.74706 0.13265 0.39506 0.0
C4421 C 0.73429 0.12273 0.40049 0.0
C4422 C 0.72955 0.10885 0.39891 0.0
H4423 H 0.72502 0.08662 0.3536 0.0
H4424 H 0.72742 0.10025 0.36504 0.0
H4425 H 0.74194 0.09899 0.36033 0.0
H4426 H 0.75665 0.11155 0.38131 0.0
H4427 H 0.76491 0.13585 0.38391 0.0
H4428 H 0.98338 0.70458 0.37742 0.0
H4429 H 0.95989 0.68854 0.38482 0.0
H4430 H 0.95943 0.65624 0.36128 0.0
H4431 H 0.98307 0.67218 0.35399 0.0
H4432 H 0.93558 0.67255 0.36951 0.0
H4433 H 0.94938 0.64063 0.40035 0.0
H4434 H 0.96221 0.65716 0.39402 0.0
H4435 H 0.95418 0.64258 0.38241 0.0
C4436 C 0.9783 0.69408 0.37377 0.0
C4437 C 0.98517 0.68965 0.3652 0.0
C4438 C 0.96486 0.68493 0.378 0.0
C4439 C 0.958 0.67117 0.37377 0.0
C4440 C 0.96464 0.66677 0.36489 0.0
H4441 H 0.8697 0.61582 0.39043 0.0
H4442 H 0.8917 0.62838 0.37832 0.0
C4443 C 0.97813 0.67591 0.36068 0.0
C4444 C 0.94399 0.66148 0.37889 0.0
H4445 H 0.92589 0.63374 0.3994 0.0
C4446 C 0.93341 0.66399 0.37596 0.0
C4447 C 0.94125 0.65041 0.3874 0.0
C4448 C 0.95236 0.64755 0.39136 0.0
C4449 C 0.92023 0.65588 0.38152 0.0
C4450 C 0.9175 0.64483 0.39005 0.0
C4451 C 0.928 0.64216 0.39277 0.0
C4452 C 0.90419 0.6366 0.39717 0.0
C4453 C 0.9095 0.65955 0.3787 0.0
C4454 C 0.90398 0.63669 0.41175 0.0
C4455 C 0.8915 0.6295 0.41865 0.0
C4456 C 0.87894 0.6221 0.41109 0.0
C4457 C 0.8792 0.62163 0.39649 0.0
C4458 C 0.89173 0.62883 0.38958 0.0
H4459 H 0.91412 0.66996 0.37442 0.0
H4460 H 0.90178 0.65218 0.37098 0.0
H4461 H 0.904 0.65902 0.38835 0.0
H4462 H 0.91349 0.64255 0.4178 0.0
H4463 H 0.89162 0.62986 0.42991 0.0
H4464 H 0.36955 0.03677 0.69793 0.0
H4465 H 0.38604 0.03517 0.71316 0.0
H4466 H 0.37248 0.99533 0.69568 0.0
H4467 H 0.35642 0.99708 0.68013 0.0
H4468 H 0.38113 0.0179 0.73306 0.0
H4469 H 0.41311 0.01179 0.69458 0.0
H4470 H 0.40122 0.01701 0.68969 0.0
H4471 H 0.39523 0.99919 0.69162 0.0
C4472 C 0.37023 0.02776 0.6972 0.0
C4473 C 0.36172 0.01708 0.68776 0.0
C4474 C 0.37966 0.02686 0.70591 0.0
C4475 C 0.38073 0.01525 0.7054 0.0
C4476 C 0.37222 0.00459 0.69598 0.0
H4477 H 0.41111 0.96867 0.75463 0.0
H4478 H 0.39869 0.97908 0.73611 0.0
C4479 C 0.36293 0.00556 0.68715 0.0
C4480 C 0.38991 0.01376 0.71539 0.0
H4481 H 0.4134 0.00389 0.71775 0.0
C4482 C 0.3884 0.01512 0.72969 0.0
C4483 C 0.39946 0.01018 0.71103 0.0
C4484 C 0.40246 0.00961 0.69588 0.0
C4485 C 0.39559 0.01228 0.73972 0.0
C4486 C 0.40457 0.00805 0.7353 0.0
C4487 C 0.40645 0.00711 0.72106 0.0
C4488 C 0.41113 0.00338 0.74519 0.0
C4489 C 0.39298 0.01316 0.75493 0.0
C4490 C 0.42266 0.01477 0.75878 0.0
C4491 C 0.43037 0.009 0.77126 0.0
C4492 C 0.42778 0.99195 0.76706 0.0
C4493 C 0.41318 0.97892 0.75597 0.0
C4494 C 0.40609 0.9857 0.74404 0.0
H4495 H 0.3836 0.01365 0.75648 0.0
H4496 H 0.3918 0.00426 0.76059 0.0
H4497 H 0.40192 0.02253 0.75963 0.0
H4498 H 0.42503 0.02516 0.75943 0.0
H4499 H 0.43811 0.01598 0.77875 0.0
H4500 H 0.97345 0.33112 0.70206 0.0
H4501 H 0.97231 0.34977 0.71293 0.0
H4502 H 0.00176 0.37792 0.68381 0.0
H4503 H 0.00278 0.3593 0.67271 0.0
H4504 H 0.99299 0.37366 0.72554 0.0
H4505 H 0.97031 0.38486 0.68 0.0
H4506 H 0.97086 0.36952 0.68103 0.0
H4507 H 0.98599 0.38536 0.67635 0.0
C4508 C 0.97966 0.34127 0.69793 0.0
C4509 C 0.98814 0.3437 0.68645 0.0
C4510 C 0.979 0.35191 0.70417 0.0
C4511 C 0.98678 0.36518 0.69904 0.0
C4512 C 0.99543 0.3677 0.68774 0.0
H4513 H 0.99719 0.44297 0.72234 0.0
H4514 H 0.99933 0.42452 0.7124 0.0
C4515 C 0.99606 0.35705 0.68145 0.0
C4516 C 0.98595 0.37641 0.70564 0.0
H4517 H 0.97781 0.40048 0.69913 0.0
C4518 C 0.98962 0.3795 0.71979 0.0
C4519 C 0.98153 0.38398 0.69811 0.0
C4520 C 0.97682 0.3807 0.68307 0.0
C4521 C 0.98921 0.39013 0.72656 0.0
C4522 C 0.98487 0.39774 0.719 0.0
C4523 C 0.98119 0.39465 0.70487 0.0
C4524 C 0.984 0.40894 0.72555 0.0
C4525 C 0.99367 0.39332 0.74167 0.0
C4526 C 0.9746 0.40624 0.73616 0.0
C4527 C 0.97337 0.41676 0.74187 0.0
C4528 C 0.98159 0.43017 0.73709 0.0
C4529 C 0.99093 0.4328 0.7264 0.0
C4530 C 0.99212 0.42228 0.72069 0.0
H4531 H 0.99974 0.38876 0.74502 0.0
H4532 H 0.99998 0.40451 0.74363 0.0
H4533 H 0.98439 0.38908 0.74819 0.0
H4534 H 0.968 0.39596 0.73983 0.0
H4535 H 0.96586 0.41439 0.74986 0.0
H4536 H 0.64612 0.62238 0.70324 0.0
H4537 H 0.62287 0.61242 0.71218 0.0
H4538 H 0.62466 0.6503 0.70561 0.0
H4539 H 0.64785 0.66028 0.6963 0.0
H4540 H 0.6154 0.62071 0.73496 0.0
H4541 H 0.58734 0.62299 0.68841 0.0
H4542 H 0.60436 0.62552 0.68751 0.0
H4543 H 0.60223 0.63912 0.69355 0.0
C4544 C 0.64153 0.62857 0.70354 0.0
C4545 C 0.64884 0.64213 0.69904 0.0
C4546 C 0.62823 0.62285 0.70867 0.0
C4547 C 0.62196 0.63056 0.70943 0.0
C4548 C 0.62917 0.64406 0.70483 0.0
H4549 H 0.54466 0.61181 0.74744 0.0
H4550 H 0.56765 0.62362 0.73713 0.0
C4551 C 0.64245 0.64977 0.69958 0.0
C4552 C 0.6082 0.62461 0.71576 0.0
H4553 H 0.57505 0.6164 0.70952 0.0
C4554 C 0.60658 0.61975 0.72938 0.0
C4555 C 0.59671 0.62341 0.70848 0.0
C4556 C 0.59767 0.62792 0.69364 0.0
C4557 C 0.59379 0.61369 0.73589 0.0
C4558 C 0.58232 0.61242 0.72858 0.0
C4559 C 0.58393 0.61746 0.71507 0.0
C4560 C 0.56844 0.60536 0.73465 0.0
C4561 C 0.5926 0.60871 0.75056 0.0
C4562 C 0.56128 0.59121 0.73644 0.0
C4563 C 0.54821 0.58448 0.74226 0.0
C4564 C 0.54214 0.59182 0.74657 0.0
C4565 C 0.54924 0.60597 0.7445 0.0
C4566 C 0.5623 0.61269 0.73857 0.0
H4567 H 0.60287 0.61283 0.7557 0.0
H4568 H 0.58644 0.61163 0.75692 0.0
H4569 H 0.58719 0.5974 0.75033 0.0
H4570 H 0.5658 0.58537 0.73325 0.0
H4571 H 0.54283 0.57352 0.74336 0.0
H4572 H 0.66223 0.70012 0.68615 0.0
H4573 H 0.65588 0.71433 0.6734 0.0
H4574 H 0.68426 0.71979 0.64119 0.0
H4575 H 0.69043 0.70526 0.65371 0.0
H4576 H 0.6708 0.74059 0.66528 0.0
H4577 H 0.64871 0.70596 0.61904 0.0
H4578 H 0.65317 0.70093 0.63501 0.0
H4579 H 0.66638 0.71153 0.62298 0.0
C4580 C 0.66717 0.70437 0.67637 0.0
C4581 C 0.67676 0.70146 0.67089 0.0
C4582 C 0.66352 0.7125 0.6691 0.0
C4583 C 0.6694 0.71793 0.65622 0.0
C4584 C 0.67934 0.71544 0.65094 0.0
H4585 H 0.65853 0.7804 0.61711 0.0
H4586 H 0.66884 0.76833 0.62748 0.0
C4587 C 0.68292 0.70721 0.65816 0.0
C4588 C 0.665 0.72609 0.64836 0.0
H4589 H 0.64975 0.72697 0.61787 0.0
C4590 C 0.66625 0.73765 0.65489 0.0
C4591 C 0.65889 0.72213 0.63487 0.0
C4592 C 0.65657 0.70939 0.62759 0.0
C4593 C 0.66145 0.74529 0.64837 0.0
C4594 C 0.65556 0.74146 0.63479 0.0
C4595 C 0.65441 0.72997 0.62821 0.0
C4596 C 0.6497 0.74871 0.6276 0.0
C4597 C 0.66228 0.75708 0.6563 0.0
C4598 C 0.63565 0.74159 0.62375 0.0
C4599 C 0.62981 0.74839 0.61761 0.0
C4600 C 0.63793 0.76244 0.61506 0.0
C4601 C 0.65206 0.76953 0.61874 0.0
C4602 C 0.65792 0.76268 0.6248 0.0
H4603 H 0.66384 0.75654 0.66765 0.0
H4604 H 0.67116 0.76679 0.65257 0.0
H4605 H 0.65276 0.75735 0.65463 0.0
H4606 H 0.6291 0.73081 0.62583 0.0
H4607 H 0.61885 0.74273 0.61512 0.0
H4608 H 0.2846 0.98444 0.64177 0.0
H4609 H 0.27406 0.96039 0.63535 0.0
H4610 H 0.30697 0.95938 0.65687 0.0
H4611 H 0.31761 0.9835 0.66349 0.0
H4612 H 0.28565 0.94791 0.61994 0.0
H4613 H 0.27134 0.92721 0.6732 0.0
H4614 H 0.27599 0.94436 0.66907 0.0
H4615 H 0.28915 0.94031 0.67106 0.0
C4616 C 0.28962 0.97914 0.6452 0.0
C4617 C 0.30194 0.98591 0.65321 0.0
C4618 C 0.28357 0.96539 0.64148 0.0
C4619 C 0.28965 0.95809 0.64576 0.0
C4620 C 0.30201 0.9648 0.65365 0.0
H4621 H 0.26721 0.87787 0.61297 0.0
H4622 H 0.27968 0.90208 0.61978 0.0
C4623 C 0.3081 0.97859 0.65736 0.0
C4624 C 0.28304 0.94348 0.64177 0.0
H4625 H 0.26679 0.9114 0.65496 0.0
C4626 C 0.28157 0.93992 0.62758 0.0
C4627 C 0.27761 0.93311 0.65179 0.0
C4628 C 0.27847 0.93636 0.66714 0.0
C4629 C 0.2748 0.92622 0.62312 0.0
C4630 C 0.26949 0.91584 0.63313 0.0
C4631 C 0.27095 0.9194 0.64733 0.0
C4632 C 0.26203 0.9012 0.62906 0.0
C4633 C 0.27306 0.92293 0.60772 0.0
C4634 C 0.24806 0.89266 0.63228 0.0
C4635 C 0.24092 0.87885 0.6284 0.0
C4636 C 0.24764 0.87334 0.62121 0.0
C4637 C 0.26171 0.88189 0.61825 0.0
C4638 C 0.26883 0.89571 0.62212 0.0
H4639 H 0.27499 0.9318 0.60146 0.0
H4640 H 0.28053 0.92003 0.60457 0.0
H4641 H 0.2625 0.91421 0.60519 0.0
H4642 H 0.24266 0.8967 0.63773 0.0
H4643 H 0.23015 0.87245 0.63102 0.0
H4644 H 0.02583 0.33559 0.66895 0.0
H4645 H 0.04944 0.35071 0.66092 0.0
H4646 H 0.048 0.31658 0.64031 0.0
H4647 H 0.02453 0.30142 0.64825 0.0
H4648 H 0.07356 0.34797 0.66532 0.0
H4649 H 0.05883 0.34601 0.60966 0.0
H4650 H 0.0467 0.34146 0.62354 0.0
H4651 H 0.05147 0.32966 0.6177 0.0
C4652 C 0.03055 0.33129 0.66274 0.0
C4653 C 0.02326 0.31729 0.65921 0.0
C4654 C 0.04402 0.33995 0.65817 0.0
C4655 C 0.05034 0.33476 0.64987 0.0
C4656 C 0.0432 0.32079 0.64653 0.0
H4657 H 0.13363 0.36244 0.62825 0.0
H4658 H 0.11032 0.35121 0.63755 0.0
C4659 C 0.0298 0.31214 0.65115 0.0
C4660 C 0.06447 0.34385 0.64472 0.0
H4661 H 0.0827 0.35539 0.61486 0.0
C4662 C 0.07558 0.34972 0.65431 0.0
C4663 C 0.06702 0.34623 0.63036 0.0
C4664 C 0.05539 0.34062 0.61969 0.0
C4665 C 0.08926 0.35747 0.64985 0.0
C4666 C 0.09183 0.35928 0.63544 0.0
C4667 C 0.08069 0.35388 0.62589 0.0
C4668 C 0.10602 0.36627 0.63002 0.0
C4669 C 0.10087 0.36359 0.66056 0.0
C4670 C 0.1112 0.37832 0.62249 0.0
C4671 C 0.12451 0.38475 0.61714 0.0
C4672 C 0.13276 0.3791 0.61906 0.0
C4673 C 0.12748 0.36699 0.62657 0.0
C4674 C 0.11422 0.36062 0.63196 0.0
H4675 H 0.0972 0.36428 0.67101 0.0
H4676 H 0.10532 0.35706 0.66134 0.0
H4677 H 0.1092 0.37394 0.65753 0.0
H4678 H 0.10498 0.38279 0.62083 0.0
H4679 H 0.12835 0.39412 0.61149 0.0
H4680 H 0.31229 0.33849 0.69782 0.0
H4681 H 0.30013 0.34729 0.68476 0.0
H4682 H 0.30083 0.32624 0.64777 0.0
H4683 H 0.31295 0.31731 0.66074 0.0
H4684 H 0.3113 0.36389 0.66106 0.0
H4685 H 0.2605 0.31706 0.64882 0.0
H4686 H 0.2719 0.31785 0.66256 0.0
H4687 H 0.27531 0.31606 0.64473 0.0
C4688 C 0.30967 0.33553 0.68696 0.0
C4689 C 0.31362 0.32721 0.68032 0.0
C4690 C 0.30273 0.34059 0.67952 0.0
C4691 C 0.29949 0.33733 0.66534 0.0
C4692 C 0.30304 0.32869 0.65876 0.0
H4693 H 0.26752 0.3648 0.59955 0.0
H4694 H 0.27589 0.353 0.61387 0.0
C4695 C 0.31002 0.32365 0.66619 0.0
C4696 C 0.29344 0.34386 0.65719 0.0
H4697 H 0.26539 0.33728 0.63741 0.0
C4698 C 0.30122 0.3581 0.65597 0.0
C4699 C 0.28035 0.33624 0.65048 0.0
C4700 C 0.27145 0.32096 0.65176 0.0
C4701 C 0.29637 0.36492 0.64799 0.0
C4702 C 0.28323 0.35733 0.64133 0.0
C4703 C 0.27544 0.34308 0.64256 0.0
C4704 C 0.27751 0.36401 0.63288 0.0
C4705 C 0.30556 0.38017 0.64644 0.0
C4706 C 0.27541 0.37391 0.63887 0.0
C4707 C 0.27071 0.38071 0.63071 0.0
C4708 C 0.26781 0.37755 0.61644 0.0
C4709 C 0.2696 0.36737 0.61054 0.0
C4710 C 0.27437 0.36064 0.61869 0.0
H4711 H 0.31653 0.38381 0.64894 0.0
H4712 H 0.30486 0.38324 0.63569 0.0
H4713 H 0.30223 0.38537 0.65371 0.0
H4714 H 0.27752 0.37649 0.64985 0.0
H4715 H 0.26947 0.38852 0.63553 0.0
H4716 H 0.68064 0.98227 0.68911 0.0
H4717 H 0.67132 0.95971 0.67824 0.0
H4718 H 0.66598 0.9749 0.63935 0.0
H4719 H 0.67549 0.9975 0.65002 0.0
H4720 H 0.64537 0.94346 0.66664 0.0
H4721 H 0.68478 0.95492 0.62707 0.0
H4722 H 0.68776 0.96646 0.64139 0.0
H4723 H 0.67806 0.96592 0.6262 0.0
C4724 C 0.67764 0.98085 0.6782 0.0
C4725 C 0.67883 0.9917 0.67043 0.0
C4726 C 0.67231 0.96795 0.67201 0.0
C4727 C 0.66814 0.96567 0.65794 0.0
C4728 C 0.66945 0.9765 0.65013 0.0
H4729 H 0.62468 0.8983 0.60012 0.0
H4730 H 0.63758 0.92034 0.61243 0.0
C4731 C 0.67481 0.98941 0.65628 0.0
C4732 C 0.66155 0.95176 0.65164 0.0
H4733 H 0.66333 0.93369 0.62426 0.0
C4734 C 0.64937 0.94127 0.65747 0.0
C4735 C 0.66678 0.94894 0.63967 0.0
C4736 C 0.68014 0.95962 0.63329 0.0
C4737 C 0.64198 0.92816 0.65133 0.0
C4738 C 0.64707 0.9254 0.63919 0.0
C4739 C 0.65942 0.93583 0.63355 0.0
C4740 C 0.63944 0.91197 0.63181 0.0
C4741 C 0.62851 0.91756 0.65761 0.0
C4742 C 0.63635 0.89994 0.63855 0.0
C4743 C 0.6288 0.88731 0.63159 0.0
C4744 C 0.6244 0.8865 0.61768 0.0
C4745 C 0.62784 0.8986 0.61086 0.0
C4746 C 0.63525 0.91119 0.61787 0.0
H4747 H 0.62437 0.92225 0.6646 0.0
H4748 H 0.62062 0.91147 0.6494 0.0
H4749 H 0.63022 0.91051 0.66388 0.0
H4750 H 0.63978 0.90033 0.6492 0.0
H4751 H 0.62641 0.87817 0.63707 0.0
H4752 H 0.01899 0.71783 0.6555 0.0
H4753 H 0.04177 0.72404 0.64735 0.0
H4754 H 0.03201 0.68294 0.65391 0.0
H4755 H 0.00934 0.67673 0.66251 0.0
H4756 H 0.05815 0.70142 0.66227 0.0
H4757 H 0.04849 0.71382 0.60944 0.0
H4758 H 0.04658 0.72363 0.62281 0.0
H4759 H 0.03499 0.7054 0.62193 0.0
C4760 C 0.0217 0.71011 0.65525 0.0
C4761 C 0.0123 0.69675 0.65952 0.0
C4762 C 0.0347 0.71367 0.65052 0.0
C4763 C 0.03847 0.70387 0.64969 0.0
C4764 C 0.02928 0.69064 0.65436 0.0
H4765 H 0.10462 0.71324 0.59802 0.0
H4766 H 0.08248 0.70561 0.60883 0.0
C4767 C 0.01632 0.6871 0.65926 0.0
C4768 C 0.0519 0.70739 0.64379 0.0
H4769 H 0.07153 0.7201 0.61493 0.0
C4770 C 0.06107 0.70545 0.65189 0.0
C4771 C 0.05559 0.71241 0.63016 0.0
C4772 C 0.04584 0.71381 0.62052 0.0
C4773 C 0.07392 0.70861 0.64682 0.0
C4774 C 0.07784 0.71419 0.63341 0.0
C4775 C 0.06858 0.71595 0.62526 0.0
C4776 C 0.0914 0.71813 0.62746 0.0
C4777 C 0.083 0.70565 0.65576 0.0
C4778 C 0.1038 0.72771 0.63433 0.0
C4779 C 0.1165 0.73189 0.62829 0.0
C4780 C 0.11703 0.72669 0.61517 0.0
C4781 C 0.10458 0.71719 0.60827 0.0
C4782 C 0.09191 0.71291 0.61439 0.0
H4783 H 0.07691 0.69775 0.66356 0.0
H4784 H 0.08864 0.70215 0.64936 0.0
H4785 H 0.09069 0.7151 0.66151 0.0
H4786 H 0.10368 0.73221 0.64422 0.0
H4787 H 0.1259 0.7394 0.63373 0.0
H4788 H 0.97223 0.62548 0.66763 0.0
H4789 H 0.97384 0.60771 0.67958 0.0
H4790 H 0.9734 0.62529 0.71923 0.0
H4791 H 0.97143 0.64288 0.70738 0.0
H4792 H 0.99386 0.61025 0.69703 0.0
H4793 H 0.94408 0.58567 0.72434 0.0
H4794 H 0.94811 0.59771 0.71063 0.0
H4795 H 0.95477 0.60364 0.72802 0.0
C4796 C 0.97234 0.62549 0.67889 0.0
C4797 C 0.97162 0.63556 0.68655 0.0
C4798 C 0.97329 0.61534 0.68571 0.0
C4799 C 0.97354 0.61504 0.7003 0.0
C4800 C 0.97289 0.62511 0.70797 0.0
H4801 H 0.00266 0.56987 0.74712 0.0
H4802 H 1.00018 0.58785 0.73684 0.0
C4803 C 0.97184 0.63521 0.70117 0.0
C4804 C 0.97498 0.60447 0.70746 0.0
H4805 H 0.9598 0.57894 0.73102 0.0
C4806 C 0.9864 0.60337 0.70443 0.0
C4807 C 0.96516 0.59542 0.717 0.0
C4808 C 0.95227 0.59555 0.7201 0.0
C4809 C 0.98829 0.59351 0.71073 0.0
C4810 C 0.97869 0.58473 0.72061 0.0
C4811 C 0.96724 0.58578 0.72357 0.0
C4812 C 0.98001 0.57399 0.72754 0.0
C4813 C 0.00037 0.59238 0.70644 0.0
C4814 C 0.96929 0.56028 0.72618 0.0
C4815 C 0.97056 0.55003 0.73231 0.0
C4816 C 0.98252 0.55328 0.74001 0.0
C4817 C 0.99322 0.56705 0.74145 0.0
C4818 C 0.99189 0.57732 0.73543 0.0
H4819 H 0.00437 0.59711 0.69621 0.0
H4820 H 0.00887 0.59778 0.71427 0.0
H4821 H 0.99746 0.58155 0.7058 0.0
H4822 H 0.96004 0.55746 0.72013 0.0
H4823 H 0.96227 0.5395 0.73083 0.0
H4824 H 0.35498 0.35669 0.70119 0.0
H4825 H 0.36419 0.38036 0.70849 0.0
H4826 H 0.39998 0.38226 0.72672 0.0
H4827 H 0.3908 0.35851 0.7196 0.0
H4828 H 0.38828 0.3933 0.74395 0.0
H4829 H 0.39661 0.41401 0.69068 0.0
H4830 H 0.37939 0.40001 0.69356 0.0
H4831 H 0.39355 0.39728 0.69419 0.0
C4832 C 0.36483 0.36213 0.70671 0.0
C4833 C 0.37219 0.35571 0.70973 0.0
C4834 C 0.3701 0.37569 0.71083 0.0
C4835 C 0.38285 0.38312 0.71797 0.0
C4836 C 0.39015 0.37671 0.72116 0.0
H4837 H 0.43068 0.4712 0.72869 0.0
H4838 H 0.42295 0.4473 0.72377 0.0
C4839 C 0.38489 0.36315 0.71706 0.0
C4840 C 0.38855 0.39755 0.72216 0.0
H4841 H 0.39919 0.42898 0.70921 0.0
C4842 C 0.39073 0.40113 0.73637 0.0
C4843 C 0.39187 0.40775 0.71223 0.0
C4844 C 0.39037 0.40464 0.6968 0.0
C4845 C 0.39592 0.41463 0.74094 0.0
C4846 C 0.39883 0.42474 0.73102 0.0
C4847 C 0.39687 0.42119 0.7168 0.0
C4848 C 0.40397 0.4391 0.73508 0.0
C4849 C 0.39842 0.41798 0.7563 0.0
C4850 C 0.39589 0.44241 0.74312 0.0
C4851 C 0.40032 0.45606 0.746 0.0
C4852 C 0.41291 0.46662 0.74086 0.0
C4853 C 0.42103 0.46326 0.73294 0.0
C4854 C 0.41661 0.44963 0.73008 0.0
H4855 H 0.39914 0.41006 0.76209 0.0
H4856 H 0.40805 0.42801 0.75825 0.0
H4857 H 0.38969 0.41851 0.76053 0.0
H4858 H 0.38595 0.43446 0.74681 0.0
H4859 H 0.39376 0.45838 0.75192 0.0
H4860 H 0.64634 0.00739 0.69045 0.0
H4861 H 0.62268 0.99578 0.69888 0.0
H4862 H 0.63004 0.03389 0.71581 0.0
H4863 H 0.6537 0.04556 0.70758 0.0
H4864 H 0.61699 0.01207 0.73426 0.0
H4865 H 0.59083 0.99868 0.68225 0.0
H4866 H 0.6028 0.99318 0.68505 0.0
H4867 H 0.60903 0.01109 0.68464 0.0
C4868 C 0.64292 0.01332 0.69592 0.0
C4869 C 0.65191 0.02743 0.69828 0.0
C4870 C 0.62938 0.00667 0.70069 0.0
C4871 C 0.62458 0.01401 0.70783 0.0
C4872 C 0.63355 0.02805 0.71029 0.0
H4873 H 0.54065 0.99115 0.72336 0.0
H4874 H 0.56482 0.00226 0.71661 0.0
C4875 C 0.64706 0.0347 0.70554 0.0
C4876 C 0.61023 0.00712 0.71284 0.0
H4877 H 0.57652 0.99006 0.70179 0.0
C4878 C 0.60812 0.00723 0.72718 0.0
C4879 C 0.59872 0.00095 0.70355 0.0
C4880 C 0.60039 0.00103 0.688 0.0
C4881 C 0.59478 0.00129 0.7325 0.0
C4882 C 0.58326 0.99495 0.72322 0.0
C4883 C 0.58538 0.99487 0.70888 0.0
C4884 C 0.56891 0.98865 0.7281 0.0
C4885 C 0.59314 0.00214 0.74796 0.0
C4886 C 0.56322 0.97734 0.73683 0.0
C4887 C 0.54943 0.97103 0.74076 0.0
C4888 C 0.54112 0.97593 0.73601 0.0
C4889 C 0.54688 0.98729 0.72733 0.0
C4890 C 0.56065 0.9936 0.72342 0.0
H4891 H 0.60294 0.01003 0.75318 0.0
H4892 H 0.58504 0.00449 0.75012 0.0
H4893 H 0.58995 0.99215 0.75261 0.0
H4894 H 0.56934 0.97319 0.74032 0.0
H4895 H 0.54516 0.96212 0.74724 0.0
loop_
_geom_bond_atom_site_label_1
_geom_bond_atom_site_label_2
_geom_bond_distance
_geom_bond_site_symmetry_2
_ccdc_geom_bond_type
Zn0 O3 2.031 1_554 S
Zn0 O5 2.049 . S
Zn0 O10 2.071 1_554 S
Zn1 O2 1.962 1_455 S
Zn1 O4 1.986 . S
Zn1 O6 1.996 1_455 S
Zn1 O9 1.943 . S
O2 Zn1 1.962 1_655 S
O2 C7 1.258 1_554 S
O3 Zn0 2.031 1_556 S
O3 C7 1.267 . S
O4 Zn1 1.986 . S
O4 C11 1.262 . S
O5 Zn0 2.049 . S
O5 C13 1.260 . S
O6 Zn1 1.996 1_655 S
O6 C13 1.257 . S
C7 O2 1.258 1_556 S
C7 O3 1.267 . S
C8 O9 1.249 1_556 S
C8 O10 1.263 1_455 S
O9 Zn1 1.943 . S
O9 C8 1.249 1_554 S
O10 Zn0 2.071 1_556 S
O10 C8 1.263 1_655 S
C11 O4 1.262 . S
C11 O12 1.232 . S
O12 C11 1.232 . S
C13 O5 1.260 . S
C13 O6 1.257 . S
Zn14 O17 2.031 . S
Zn14 O19 2.049 . S
Zn14 O24 2.067 . S
Zn15 O16 1.962 . S
Zn15 O18 1.986 . S
Zn15 O20 1.996 . S
Zn15 O23 1.943 . S
O16 Zn15 1.962 . S
O16 C21 1.254 . S
O17 Zn14 2.031 . S
O17 C21 1.269 . S
O18 Zn15 1.986 . S
O18 C25 1.262 . S
O19 Zn14 2.049 . S
O19 C27 1.260 . S
O20 Zn15 1.996 . S
O20 C27 1.257 . S
C21 O16 1.254 . S
C21 O17 1.269 . S
C22 O23 1.249 . S
C22 O24 1.270 . S
O23 Zn15 1.943 . S
O23 C22 1.249 . S
O24 Zn14 2.067 . S
O24 C22 1.270 . S
C25 O18 1.262 . S
C25 O26 1.232 . S
O26 C25 1.232 . S
C27 O19 1.260 . S
C27 O20 1.257 . S
Zn28 O31 2.031 . S
Zn28 O33 2.049 1_554 S
Zn28 O38 2.067 1_565 S
Zn29 O30 1.962 1_545 S
Zn29 O32 1.986 1_554 S
Zn29 O34 1.990 1_544 S
Zn29 O37 1.943 . S
O30 Zn29 1.962 1_565 S
O30 C35 1.254 . S
O31 Zn28 2.031 . S
O31 C35 1.269 . S
O32 Zn29 1.986 1_556 S
O32 C39 1.302 . S
O33 Zn28 2.049 1_556 S
O33 C41 1.260 . S
O34 Zn29 1.990 1_566 S
O34 C41 1.262 . S
C35 O30 1.254 . S
C35 O31 1.269 . S
C36 O37 1.249 . S
C36 O38 1.270 . S
O37 Zn29 1.943 . S
O37 C36 1.249 . S
O38 Zn28 2.067 1_545 S
O38 C36 1.270 . S
C39 O32 1.302 . S
C39 O40 1.164 1_556 S
O40 C39 1.164 1_554 S
C41 O33 1.260 . S
C41 O34 1.262 . S
Zn42 O45 2.031 . S
Zn42 O47 2.049 . S
Zn42 O52 2.067 . S
Zn43 O44 1.962 1_655 S
Zn43 O46 1.986 1_554 S
Zn43 O48 1.996 1_654 S
Zn43 O51 1.943 . S
O44 Zn43 1.962 1_455 S
O44 C49 1.254 . S
O45 Zn42 2.031 . S
O45 C49 1.269 . S
O46 Zn43 1.986 1_556 S
O46 C53 1.262 1_556 S
O47 Zn42 2.049 . S
O47 C55 1.260 1_554 S
O48 Zn43 1.996 1_456 S
O48 C55 1.257 . S
C49 O44 1.254 . S
C49 O45 1.269 . S
C50 O51 1.249 . S
C50 O52 1.270 1_655 S
O51 Zn43 1.943 . S
O51 C50 1.249 . S
O52 Zn42 2.067 . S
O52 C50 1.270 1_455 S
C53 O46 1.262 1_554 S
C53 O54 1.232 . S
O54 C53 1.232 . S
C55 O47 1.260 1_556 S
C55 O48 1.257 . S
Zn56 O59 2.031 . S
Zn56 O61 2.049 1_554 S
Zn56 O66 2.067 . S
Zn57 O58 1.962 . S
Zn57 O60 1.986 1_554 S
Zn57 O62 1.996 1_554 S
Zn57 O65 1.943 . S
O58 Zn57 1.962 . S
O58 C63 1.254 . S
O59 Zn56 2.031 . S
O59 C63 1.269 . S
O60 Zn57 1.986 1_556 S
O60 C67 1.262 . S
O61 Zn56 2.049 1_556 S
O61 C69 1.260 . S
O62 Zn57 1.996 1_556 S
O62 C69 1.257 . S
C63 O58 1.254 . S
C63 O59 1.269 . S
C64 O65 1.249 . S
C64 O66 1.270 . S
O65 Zn57 1.943 . S
O65 C64 1.249 . S
O66 Zn56 2.067 . S
O66 C64 1.270 . S
C67 O60 1.262 . S
C67 O68 1.232 1_556 S
O68 C67 1.232 1_554 S
C69 O61 1.260 . S
C69 O62 1.257 . S
Zn70 O73 2.031 . S
Zn70 O75 2.049 . S
Zn70 O80 2.067 . S
Zn71 O72 1.962 1_565 S
Zn71 O74 1.986 . S
Zn71 O76 1.996 1_565 S
Zn71 O79 1.943 . S
O72 Zn71 1.962 1_545 S
O72 C77 1.254 . S
O73 Zn70 2.031 . S
O73 C77 1.269 . S
O74 Zn71 1.986 . S
O74 C81 1.262 . S
O75 Zn70 2.049 . S
O75 C83 1.260 . S
O76 Zn71 1.996 1_545 S
O76 C83 1.257 . S
C77 O72 1.254 . S
C77 O73 1.269 . S
C78 O79 1.252 . S
C78 O80 1.272 1_565 S
O79 Zn71 1.943 . S
O79 C78 1.252 . S
O80 Zn70 2.067 . S
O80 C78 1.272 1_545 S
C81 O74 1.262 . S
C81 O82 1.232 . S
O82 C81 1.232 . S
C83 O75 1.260 . S
C83 O76 1.257 . S
Zn84 O87 2.031 . S
Zn84 O89 2.049 . S
Zn84 O94 2.067 . S
Zn85 O86 1.962 . S
Zn85 O88 1.986 . S
Zn85 O90 1.996 . S
Zn85 O93 1.943 . S
O86 Zn85 1.962 . S
O86 C91 1.254 . S
O87 Zn84 2.031 . S
O87 C91 1.269 . S
O88 Zn85 1.986 . S
O88 C95 1.262 . S
O89 Zn84 2.049 . S
O89 C97 1.260 . S
O90 Zn85 1.996 . S
O90 C97 1.257 . S
C91 O86 1.254 . S
C91 O87 1.269 . S
C92 O93 1.249 . S
C92 O94 1.270 . S
O93 Zn85 1.943 . S
O93 C92 1.249 . S
O94 Zn84 2.067 . S
O94 C92 1.270 . S
C95 O88 1.262 . S
C95 O96 1.232 . S
O96 C95 1.232 . S
C97 O89 1.260 . S
C97 O90 1.257 . S
Zn98 O101 2.031 . S
Zn98 O103 2.049 . S
Zn98 O108 2.067 . S
Zn99 O100 1.962 . S
Zn99 O102 1.986 1_565 S
Zn99 O104 1.996 . S
Zn99 O107 1.943 . S
O100 Zn99 1.962 . S
O100 C105 1.254 . S
O101 Zn98 2.031 . S
O101 C105 1.269 . S
O102 Zn99 1.986 1_545 S
O102 C109 1.262 . S
O103 Zn98 2.049 . S
O103 C111 1.260 . S
O104 Zn99 1.996 . S
O104 C111 1.257 . S
C105 O100 1.254 . S
C105 O101 1.269 . S
C106 O107 1.249 . S
C106 O108 1.270 . S
O107 Zn99 1.943 . S
O107 C106 1.249 . S
O108 Zn98 2.067 . S
O108 C106 1.270 . S
C109 O102 1.262 . S
C109 O110 1.232 . S
O110 C109 1.232 . S
C111 O103 1.260 . S
C111 O104 1.257 . S
Zn112 O115 2.031 . S
Zn112 O117 2.049 . S
Zn112 O122 2.067 . S
Zn113 O114 1.962 . S
Zn113 O116 1.986 . S
Zn113 O118 1.996 . S
Zn113 O121 1.943 . S
O114 Zn113 1.962 . S
O114 C119 1.254 . S
O115 Zn112 2.031 . S
O115 C119 1.269 . S
O116 Zn113 1.986 . S
O116 C123 1.262 . S
O117 Zn112 2.049 . S
O117 C125 1.260 . S
O118 Zn113 1.996 . S
O118 C125 1.257 . S
C119 O114 1.254 . S
C119 O115 1.269 . S
C120 O121 1.249 . S
C120 O122 1.270 . S
O121 Zn113 1.943 . S
O121 C120 1.249 . S
O122 Zn112 2.067 . S
O122 C120 1.270 . S
C123 O116 1.262 . S
C123 O124 1.232 . S
O124 C123 1.232 . S
C125 O117 1.260 . S
C125 O118 1.257 . S
Zn126 O129 2.031 . S
Zn126 O131 2.049 . S
Zn126 O136 2.067 . S
Zn127 O128 1.962 1_565 S
Zn127 O130 1.986 . S
Zn127 O132 1.996 . S
Zn127 O135 1.943 . S
O128 Zn127 1.962 1_545 S
O128 C133 1.254 . S
O129 Zn126 2.031 . S
O129 C133 1.269 1_565 S
O130 Zn127 1.986 . S
O130 C137 1.262 . S
O131 Zn126 2.049 . S
O131 C139 1.260 . S
O132 Zn127 1.996 . S
O132 C139 1.257 . S
C133 O128 1.254 . S
C133 O129 1.269 1_545 S
C134 O135 1.249 . S
C134 O136 1.270 . S
O135 Zn127 1.943 . S
O135 C134 1.249 . S
O136 Zn126 2.067 . S
O136 C134 1.270 . S
C137 O130 1.262 . S
C137 O138 1.232 . S
O138 C137 1.232 . S
C139 O131 1.260 . S
C139 O132 1.257 . S
Zn140 O143 2.031 . S
Zn140 O145 2.049 . S
Zn140 O150 2.067 . S
Zn141 O142 1.962 1_455 S
Zn141 O144 1.986 . S
Zn141 O146 1.996 . S
Zn141 O149 1.943 . S
O142 Zn141 1.962 1_655 S
O142 C147 1.254 . S
O143 Zn140 2.031 . S
O143 C147 1.269 1_455 S
O144 Zn141 1.986 . S
O144 C151 1.262 . S
O145 Zn140 2.049 . S
O145 C153 1.260 . S
O146 Zn141 1.996 . S
O146 C153 1.257 . S
C147 O142 1.254 . S
C147 O143 1.269 1_655 S
C148 O149 1.249 . S
C148 O150 1.270 . S
O149 Zn141 1.943 . S
O149 C148 1.249 . S
O150 Zn140 2.067 . S
O150 C148 1.270 . S
C151 O144 1.262 . S
C151 O152 1.232 . S
O152 C151 1.232 . S
C153 O145 1.260 . S
C153 O146 1.257 . S
Zn154 O157 2.031 . S
Zn154 O159 2.049 . S
Zn154 O164 2.067 . S
Zn155 O156 1.962 . S
Zn155 O158 1.986 . S
Zn155 O160 1.996 . S
Zn155 O163 1.943 . S
O156 Zn155 1.962 . S
O156 C161 1.254 . S
O157 Zn154 2.031 . S
O157 C161 1.269 . S
O158 Zn155 1.986 . S
O158 C165 1.262 . S
O159 Zn154 2.049 . S
O159 C167 1.260 . S
O160 Zn155 1.996 . S
O160 C167 1.257 . S
C161 O156 1.254 . S
C161 O157 1.269 . S
C162 O163 1.249 . S
C162 O164 1.270 . S
O163 Zn155 1.943 . S
O163 C162 1.249 . S
O164 Zn154 2.067 . S
O164 C162 1.270 . S
C165 O158 1.262 . S
C165 O166 1.232 . S
O166 C165 1.232 . S
C167 O159 1.260 . S
C167 O160 1.257 . S
Zn168 O171 2.031 . S
Zn168 O173 2.049 . S
Zn168 O178 2.067 . S
Zn169 O170 2.022 . S
Zn169 O172 1.986 . S
Zn169 O174 1.996 . S
Zn169 O177 1.943 . S
O170 Zn169 2.022 . S
O170 C175 1.273 . S
O171 Zn168 2.031 . S
O171 C175 1.292 . S
O172 Zn169 1.986 . S
O172 C179 1.262 . S
O173 Zn168 2.049 . S
O173 C181 1.260 . S
O174 Zn169 1.996 . S
O174 C181 1.257 . S
C175 O170 1.273 . S
C175 O171 1.292 . S
C176 O177 1.249 . S
C176 O178 1.270 . S
O177 Zn169 1.943 . S
O177 C176 1.249 . S
O178 Zn168 2.067 . S
O178 C176 1.270 . S
C179 O172 1.262 . S
C179 O180 1.232 . S
O180 C179 1.232 . S
C181 O173 1.260 . S
C181 O174 1.257 . S
Zn182 O185 2.031 . S
Zn182 O187 2.049 . S
Zn182 O192 2.067 . S
Zn183 O184 1.962 1_655 S
Zn183 O186 1.986 . S
Zn183 O188 1.996 . S
Zn183 O191 1.943 . S
O184 Zn183 1.962 1_455 S
O184 C189 1.254 . S
O185 Zn182 2.031 . S
O185 C189 1.269 1_655 S
O186 Zn183 1.986 . S
O186 C193 1.262 . S
O187 Zn182 2.049 . S
O187 C195 1.260 . S
O188 Zn183 1.996 . S
O188 C195 1.257 . S
C189 O184 1.254 . S
C189 O185 1.269 1_455 S
C190 O191 1.249 . S
C190 O192 1.270 . S
O191 Zn183 1.943 . S
O191 C190 1.249 . S
O192 Zn182 2.067 . S
O192 C190 1.270 . S
C193 O186 1.262 . S
C193 O194 1.232 . S
O194 C193 1.232 . S
C195 O187 1.260 . S
C195 O188 1.257 . S
Zn196 O199 2.031 . S
Zn196 O201 2.049 . S
Zn196 O206 2.067 . S
Zn197 O198 1.962 . S
Zn197 O200 1.986 . S
Zn197 O202 1.996 . S
Zn197 O205 1.943 . S
O198 Zn197 1.962 . S
O198 C203 1.254 . S
O199 Zn196 2.031 . S
O199 C203 1.269 . S
O200 Zn197 1.986 . S
O200 C207 1.262 . S
O201 Zn196 2.049 . S
O201 C209 1.260 . S
O202 Zn197 1.996 . S
O202 C209 1.257 . S
C203 O198 1.254 . S
C203 O199 1.269 . S
C204 O205 1.249 . S
C204 O206 1.270 . S
O205 Zn197 1.943 . S
O205 C204 1.249 . S
O206 Zn196 2.067 . S
O206 C204 1.270 . S
C207 O200 1.262 . S
C207 O208 1.232 . S
O208 C207 1.232 . S
C209 O201 1.260 . S
C209 O202 1.257 . S
Zn210 O213 2.031 . S
Zn210 O215 2.049 . S
Zn210 O220 2.067 . S
Zn211 O212 1.962 . S
Zn211 O214 1.986 . S
Zn211 O216 1.996 . S
Zn211 O219 1.943 . S
O212 Zn211 1.962 . S
O212 C217 1.254 . S
O213 Zn210 2.031 . S
O213 C217 1.269 . S
O214 Zn211 1.986 . S
O214 C221 1.262 . S
O215 Zn210 2.049 . S
O215 C223 1.260 . S
O216 Zn211 1.996 . S
O216 C223 1.257 . S
C217 O212 1.254 . S
C217 O213 1.269 . S
C218 O219 1.249 . S
C218 O220 1.270 . S
O219 Zn211 1.943 . S
O219 C218 1.249 . S
O220 Zn210 2.067 . S
O220 C218 1.270 . S
C221 O214 1.262 . S
C221 O222 1.232 . S
O222 C221 1.232 . S
C223 O215 1.260 . S
C223 O216 1.257 . S
Zn224 O227 2.031 . S
Zn224 O229 2.049 . S
Zn224 O234 2.067 . S
Zn225 O226 1.962 . S
Zn225 O228 1.986 . S
Zn225 O230 1.996 . S
Zn225 O233 1.943 . S
O226 Zn225 1.962 . S
O226 C231 1.254 . S
O227 Zn224 2.031 . S
O227 C231 1.269 . S
O228 Zn225 1.986 . S
O228 C235 1.262 1_545 S
O229 Zn224 2.049 . S
O229 C237 1.260 . S
O230 Zn225 1.996 . S
O230 C237 1.257 . S
C231 O226 1.254 . S
C231 O227 1.269 . S
C232 O233 1.249 . S
C232 O234 1.270 . S
O233 Zn225 1.943 . S
O233 C232 1.249 . S
O234 Zn224 2.067 . S
O234 C232 1.270 . S
C235 O228 1.262 1_565 S
C235 O236 1.232 . S
O236 C235 1.232 . S
C237 O229 1.260 . S
C237 O230 1.257 . S
Zn238 O241 2.031 . S
Zn238 O243 2.049 . S
Zn238 O248 2.067 . S
Zn239 O240 1.912 1_655 S
Zn239 O242 1.986 . S
Zn239 O244 1.996 . S
Zn239 O247 1.943 . S
O240 Zn239 1.912 1_455 S
O240 C245 1.237 . S
O241 Zn238 2.031 . S
O241 C245 1.269 1_655 S
O242 Zn239 1.986 . S
O242 C249 1.262 . S
O243 Zn238 2.049 . S
O243 C251 1.260 . S
O244 Zn239 1.996 . S
O244 C251 1.257 . S
C245 O240 1.237 . S
C245 O241 1.269 1_455 S
C246 O247 1.249 . S
C246 O248 1.270 . S
O247 Zn239 1.943 . S
O247 C246 1.249 . S
O248 Zn238 2.067 . S
O248 C246 1.270 . S
C249 O242 1.262 . S
C249 O250 1.232 . S
O250 C249 1.232 . S
C251 O243 1.260 . S
C251 O244 1.257 . S
C252 C253 1.560 . S
C252 H313 0.959 . S
C252 H314 0.959 . S
C252 H315 0.960 . S
C253 C252 1.560 . S
C253 O308 1.426 . S
C253 H312 0.980 . S
C254 C255 1.407 . S
C254 C259 1.418 . S
C254 O308 1.334 . S
C255 C254 1.407 . S
C255 C256 1.360 . S
C255 H316 0.929 . S
C256 C255 1.360 . S
C256 C257 1.401 . S
C256 C260 1.527 . S
C257 C256 1.401 . S
C257 C258 1.405 . S
C257 C290 1.587 . S
C258 C257 1.405 . S
C258 C259 1.332 . S
C258 C261 1.496 . S
C259 C254 1.418 . S
C259 C258 1.332 . S
C259 H317 0.929 . S
C260 C256 1.527 . S
C260 H318 0.959 . S
C260 H319 0.961 . S
C260 H320 0.961 . S
C261 C258 1.496 . S
C261 H321 0.960 . S
C261 H322 0.960 . S
C261 H323 0.961 . S
C262 C263 1.517 . S
C262 H325 0.961 . S
C262 H326 0.960 . S
C262 H327 0.959 . S
C263 C262 1.517 . S
C263 O311 1.468 . S
C263 H324 0.980 . S
C264 C265 1.349 . S
C264 C269 1.367 . S
C264 O311 1.408 . S
C265 C264 1.349 . S
C265 C266 1.407 . S
C265 H328 0.930 . S
C266 C265 1.407 . S
C266 C267 1.449 . S
C266 C270 1.535 . S
C267 C266 1.449 . S
C267 C268 1.384 . S
C267 C292 1.553 . S
C268 C267 1.384 . S
C268 C269 1.364 . S
C268 C271 1.450 . S
C269 C264 1.367 . S
C269 C268 1.364 . S
C269 H329 0.931 . S
C270 C266 1.535 . S
C270 H330 0.959 . S
C270 H331 0.961 . S
C270 H332 0.959 . S
C271 C268 1.450 . S
C271 H333 0.960 . S
C271 H334 0.960 . S
C271 H335 0.960 . S
C272 C273 1.309 . S
C272 C277 1.304 . S
C272 O310 1.435 . S
C273 C272 1.309 . S
C273 C274 1.476 . S
C273 H337 0.930 . S
C274 C273 1.476 . S
C274 C275 1.400 . S
C274 C278 1.567 . S
C275 C274 1.400 . S
C275 C276 1.373 . S
C275 C297 1.432 . S
C276 C275 1.373 . S
C276 C277 1.339 . S
C276 C279 1.530 . S
C277 C272 1.304 . S
C277 C276 1.339 . S
C277 H338 0.930 . S
C278 C274 1.567 . S
C278 H339 0.961 . S
C278 H340 0.960 . S
C278 H341 0.958 . S
C279 C276 1.530 . S
C279 H342 0.961 . S
C279 H343 0.960 . S
C279 H344 0.960 . S
C280 C281 1.530 . S
C280 H346 0.961 . S
C280 H347 0.961 . S
C280 H348 0.959 . S
C281 C280 1.530 . S
C281 O309 1.412 . S
C281 H345 0.980 . S
C282 C283 1.288 . S
C282 C287 1.377 . S
C282 O309 1.393 . S
C283 C282 1.288 . S
C283 C284 1.369 . S
C283 H349 0.932 . S
C284 C283 1.369 . S
C284 C285 1.398 . S
C284 C288 1.527 . S
C285 C284 1.398 . S
C285 C286 1.380 . S
C285 C299 1.497 . S
C286 C285 1.380 . S
C286 C287 1.383 . S
C286 C289 1.603 . S
C287 C282 1.377 . S
C287 C286 1.383 . S
C287 H350 0.929 . S
C288 C284 1.527 . S
C288 H351 0.961 . S
C288 H352 0.959 . S
C288 H353 0.959 . S
C289 C286 1.603 . S
C289 H354 0.960 . S
C289 H355 0.962 . S
C289 H356 0.961 . S
C290 C257 1.587 . S
C290 C291 1.360 . S
C290 C303 1.412 . S
C291 C290 1.360 . S
C291 C292 1.365 . S
C291 H357 0.929 . S
C292 C267 1.553 . S
C292 C291 1.365 . S
C292 C293 1.404 . S
C293 C292 1.404 . S
C293 C294 1.395 . S
C293 C304 1.451 . S
C294 C293 1.395 . S
C294 C295 1.322 . S
C294 H358 0.930 . S
C295 C294 1.322 . S
C295 C296 1.459 . S
C295 H359 0.929 . S
C296 C295 1.459 . S
C296 C297 1.445 . S
C296 C305 1.395 . S
C297 C275 1.432 . S
C297 C296 1.445 . S
C297 C298 1.370 . S
C298 C297 1.370 . S
C298 C299 1.438 . S
C298 H360 0.930 . S
C299 C285 1.497 . S
C299 C298 1.438 . S
C299 C300 1.360 . S
C300 C299 1.360 . S
C300 C301 1.401 . S
C300 C305 1.446 . S
C301 C300 1.401 . S
C301 C302 1.347 . S
C301 H361 0.929 . S
C302 C301 1.347 . S
C302 C303 1.455 . S
C302 H362 0.930 . S
C303 C290 1.412 . S
C303 C302 1.455 . S
C303 C304 1.331 . S
C304 C293 1.451 . S
C304 C303 1.331 . S
C304 C305 1.497 . S
C305 C296 1.395 . S
C305 C300 1.446 . S
C305 C304 1.497 . S
C306 C307 1.582 . S
C306 H363 0.962 . S
C306 H364 0.959 . S
C306 H365 0.958 . S
C307 C306 1.582 . S
C307 O310 1.458 . S
C307 H336 0.980 . S
O308 C253 1.426 . S
O308 C254 1.334 . S
O309 C281 1.412 . S
O309 C282 1.393 . S
O310 C272 1.435 . S
O310 C307 1.458 . S
O311 C263 1.468 . S
O311 C264 1.408 . S
H312 C253 0.980 . S
H313 C252 0.959 . S
H314 C252 0.959 . S
H315 C252 0.960 . S
H316 C255 0.929 . S
H317 C259 0.929 . S
H318 C260 0.959 . S
H319 C260 0.961 . S
H320 C260 0.961 . S
H321 C261 0.960 . S
H322 C261 0.960 . S
H323 C261 0.961 . S
H324 C263 0.980 . S
H325 C262 0.961 . S
H326 C262 0.960 . S
H327 C262 0.959 . S
H328 C265 0.930 . S
H329 C269 0.931 . S
H330 C270 0.959 . S
H331 C270 0.961 . S
H332 C270 0.959 . S
H333 C271 0.960 . S
H334 C271 0.960 . S
H335 C271 0.960 . S
H336 C307 0.980 . S
H337 C273 0.930 . S
H338 C277 0.930 . S
H339 C278 0.961 . S
H340 C278 0.960 . S
H341 C278 0.958 . S
H342 C279 0.961 . S
H343 C279 0.960 . S
H344 C279 0.960 . S
H345 C281 0.980 . S
H346 C280 0.961 . S
H347 C280 0.961 . S
H348 C280 0.959 . S
H349 C283 0.932 . S
H350 C287 0.929 . S
H351 C288 0.961 . S
H352 C288 0.959 . S
H353 C288 0.959 . S
H354 C289 0.960 . S
H355 C289 0.962 . S
H356 C289 0.961 . S
H357 C291 0.929 . S
H358 C294 0.930 . S
H359 C295 0.929 . S
H360 C298 0.930 . S
H361 C301 0.929 . S
H362 C302 0.930 . S
H363 C306 0.962 . S
H364 C306 0.959 . S
H365 C306 0.958 . S
C366 C367 1.560 . S
C366 H427 0.959 . S
C366 H428 0.959 . S
C366 H429 0.960 . S
C367 C366 1.560 . S
C367 O422 1.426 . S
C367 H426 0.980 . S
C368 C369 1.407 . S
C368 C373 1.418 . S
C368 O422 1.334 . S
C369 C368 1.407 . S
C369 C370 1.360 . S
C369 H430 0.929 . S
C370 C369 1.360 . S
C370 C371 1.401 . S
C370 C374 1.527 . S
C371 C370 1.401 . S
C371 C372 1.405 . S
C371 C404 1.587 . S
C372 C371 1.405 . S
C372 C373 1.332 . S
C372 C375 1.496 . S
C373 C368 1.418 . S
C373 C372 1.332 . S
C373 H431 0.929 . S
C374 C370 1.527 . S
C374 H432 0.959 . S
C374 H433 0.961 . S
C374 H434 0.961 . S
C375 C372 1.496 . S
C375 H435 0.960 . S
C375 H436 0.960 . S
C375 H437 0.961 . S
C376 C377 1.517 . S
C376 H439 0.961 . S
C376 H440 0.960 . S
C376 H441 0.959 . S
C377 C376 1.517 . S
C377 O425 1.468 . S
C377 H438 0.980 . S
C378 C379 1.349 . S
C378 C383 1.367 . S
C378 O425 1.408 . S
C379 C378 1.349 . S
C379 C380 1.407 . S
C379 H442 0.930 . S
C380 C379 1.407 . S
C380 C381 1.449 . S
C380 C384 1.535 . S
C381 C380 1.449 . S
C381 C382 1.384 . S
C381 C406 1.553 . S
C382 C381 1.384 . S
C382 C383 1.364 . S
C382 C385 1.450 . S
C383 C378 1.367 . S
C383 C382 1.364 . S
C383 H443 0.931 . S
C384 C380 1.535 . S
C384 H444 0.959 . S
C384 H445 0.961 . S
C384 H446 0.959 . S
C385 C382 1.450 . S
C385 H447 0.960 . S
C385 H448 0.960 . S
C385 H449 0.960 . S
C386 C387 1.309 . S
C386 C391 1.304 . S
C386 O424 1.435 . S
C387 C386 1.309 . S
C387 C388 1.476 . S
C387 H451 0.930 . S
C388 C387 1.476 . S
C388 C389 1.400 . S
C388 C392 1.567 . S
C389 C388 1.400 . S
C389 C390 1.373 . S
C389 C411 1.432 . S
C390 C389 1.373 . S
C390 C391 1.339 . S
C390 C393 1.530 . S
C391 C386 1.304 . S
C391 C390 1.339 . S
C391 H452 0.930 . S
C392 C388 1.567 . S
C392 H453 0.961 . S
C392 H454 0.960 . S
C392 H455 0.958 . S
C393 C390 1.530 . S
C393 H456 0.961 . S
C393 H457 0.960 . S
C393 H458 0.960 . S
C394 C395 1.530 . S
C394 H460 0.961 . S
C394 H461 0.961 . S
C394 H462 0.959 . S
C395 C394 1.530 . S
C395 O423 1.412 . S
C395 H459 0.980 . S
C396 C397 1.288 . S
C396 C401 1.377 . S
C396 O423 1.393 . S
C397 C396 1.288 . S
C397 C398 1.369 . S
C397 H463 0.932 . S
C398 C397 1.369 . S
C398 C399 1.398 . S
C398 C402 1.527 . S
C399 C398 1.398 . S
C399 C400 1.380 . S
C399 C413 1.497 . S
C400 C399 1.380 . S
C400 C401 1.383 . S
C400 C403 1.603 . S
C401 C396 1.377 . S
C401 C400 1.383 . S
C401 H464 0.929 . S
C402 C398 1.527 . S
C402 H465 0.961 . S
C402 H466 0.959 . S
C402 H467 0.959 . S
C403 C400 1.603 . S
C403 H468 0.960 . S
C403 H469 0.962 . S
C403 H470 0.961 . S
C404 C371 1.587 . S
C404 C405 1.360 . S
C404 C417 1.412 . S
C405 C404 1.360 . S
C405 C406 1.365 . S
C405 H471 0.929 . S
C406 C381 1.553 . S
C406 C405 1.365 . S
C406 C407 1.404 . S
C407 C406 1.404 . S
C407 C408 1.395 . S
C407 C418 1.451 . S
C408 C407 1.395 . S
C408 C409 1.322 . S
C408 H472 0.930 . S
C409 C408 1.322 . S
C409 C410 1.459 . S
C409 H473 0.929 . S
C410 C409 1.459 . S
C410 C411 1.445 . S
C410 C419 1.395 . S
C411 C389 1.432 . S
C411 C410 1.445 . S
C411 C412 1.370 . S
C412 C411 1.370 . S
C412 C413 1.438 . S
C412 H474 0.930 . S
C413 C399 1.497 . S
C413 C412 1.438 . S
C413 C414 1.360 . S
C414 C413 1.360 . S
C414 C415 1.401 . S
C414 C419 1.446 . S
C415 C414 1.401 . S
C415 C416 1.347 . S
C415 H475 0.929 . S
C416 C415 1.347 . S
C416 C417 1.455 . S
C416 H476 0.930 . S
C417 C404 1.412 . S
C417 C416 1.455 . S
C417 C418 1.331 . S
C418 C407 1.451 . S
C418 C417 1.331 . S
C418 C419 1.497 . S
C419 C410 1.395 . S
C419 C414 1.446 . S
C419 C418 1.497 . S
C420 C421 1.582 . S
C420 H477 0.962 . S
C420 H478 0.959 . S
C420 H479 0.958 . S
C421 C420 1.582 . S
C421 O424 1.458 . S
C421 H450 0.980 . S
O422 C367 1.426 . S
O422 C368 1.334 . S
O423 C395 1.412 . S
O423 C396 1.393 . S
O424 C386 1.435 . S
O424 C421 1.458 . S
O425 C377 1.468 . S
O425 C378 1.408 . S
H426 C367 0.980 . S
H427 C366 0.959 . S
H428 C366 0.959 . S
H429 C366 0.960 . S
H430 C369 0.929 . S
H431 C373 0.929 . S
H432 C374 0.959 . S
H433 C374 0.961 . S
H434 C374 0.961 . S
H435 C375 0.960 . S
H436 C375 0.960 . S
H437 C375 0.961 . S
H438 C377 0.980 . S
H439 C376 0.961 . S
H440 C376 0.960 . S
H441 C376 0.959 . S
H442 C379 0.930 . S
H443 C383 0.931 . S
H444 C384 0.959 . S
H445 C384 0.961 . S
H446 C384 0.959 . S
H447 C385 0.960 . S
H448 C385 0.960 . S
H449 C385 0.960 . S
H450 C421 0.980 . S
H451 C387 0.930 . S
H452 C391 0.930 . S
H453 C392 0.961 . S
H454 C392 0.960 . S
H455 C392 0.958 . S
H456 C393 0.961 . S
H457 C393 0.960 . S
H458 C393 0.960 . S
H459 C395 0.980 . S
H460 C394 0.961 . S
H461 C394 0.961 . S
H462 C394 0.959 . S
H463 C397 0.932 . S
H464 C401 0.929 . S
H465 C402 0.961 . S
H466 C402 0.959 . S
H467 C402 0.959 . S
H468 C403 0.960 . S
H469 C403 0.962 . S
H470 C403 0.961 . S
H471 C405 0.929 . S
H472 C408 0.930 . S
H473 C409 0.929 . S
H474 C412 0.930 . S
H475 C415 0.929 . S
H476 C416 0.930 . S
H477 C420 0.962 . S
H478 C420 0.959 . S
H479 C420 0.958 . S
C480 C481 1.560 . S
C480 H541 0.959 . S
C480 H542 0.959 . S
C480 H543 0.960 . S
C481 C480 1.560 . S
C481 O536 1.426 . S
C481 H540 0.980 . S
C482 C483 1.407 . S
C482 C487 1.418 . S
C482 O536 1.334 . S
C483 C482 1.407 . S
C483 C484 1.360 . S
C483 H544 0.929 . S
C484 C483 1.360 . S
C484 C485 1.401 . S
C484 C488 1.527 . S
C485 C484 1.401 . S
C485 C486 1.405 . S
C485 C518 1.587 . S
C486 C485 1.405 . S
C486 C487 1.332 . S
C486 C489 1.496 . S
C487 C482 1.418 . S
C487 C486 1.332 . S
C487 H545 0.929 . S
C488 C484 1.527 . S
C488 H546 0.959 . S
C488 H547 0.961 . S
C488 H548 0.961 . S
C489 C486 1.496 . S
C489 H549 0.960 . S
C489 H550 0.960 . S
C489 H551 0.961 . S
C490 C491 1.517 . S
C490 H553 0.961 . S
C490 H554 0.960 . S
C490 H555 0.959 . S
C491 C490 1.517 . S
C491 O539 1.468 . S
C491 H552 0.980 . S
C492 C493 1.349 . S
C492 C497 1.367 . S
C492 O539 1.408 . S
C493 C492 1.349 . S
C493 C494 1.407 . S
C493 H556 0.930 . S
C494 C493 1.407 . S
C494 C495 1.449 . S
C494 C498 1.535 . S
C495 C494 1.449 . S
C495 C496 1.384 . S
C495 C520 1.553 . S
C496 C495 1.384 . S
C496 C497 1.364 . S
C496 C499 1.450 . S
C497 C492 1.367 . S
C497 C496 1.364 . S
C497 H557 0.931 . S
C498 C494 1.535 . S
C498 H558 0.959 . S
C498 H559 0.961 . S
C498 H560 0.959 . S
C499 C496 1.450 . S
C499 H561 0.960 . S
C499 H562 0.960 . S
C499 H563 0.960 . S
C500 C501 1.309 . S
C500 C505 1.304 . S
C500 O538 1.435 . S
C501 C500 1.309 . S
C501 C502 1.476 . S
C501 H565 0.930 . S
C502 C501 1.476 . S
C502 C503 1.400 . S
C502 C506 1.567 . S
C503 C502 1.400 . S
C503 C504 1.373 . S
C503 C525 1.432 . S
C504 C503 1.373 . S
C504 C505 1.339 . S
C504 C507 1.530 . S
C505 C500 1.304 . S
C505 C504 1.339 . S
C505 H566 0.930 . S
C506 C502 1.567 . S
C506 H567 0.961 . S
C506 H568 0.960 . S
C506 H569 0.958 . S
C507 C504 1.530 . S
C507 H570 0.961 . S
C507 H571 0.960 . S
C507 H572 0.960 . S
C508 C509 1.530 . S
C508 H574 0.961 . S
C508 H575 0.961 . S
C508 H576 0.959 . S
C509 C508 1.530 . S
C509 O537 1.412 . S
C509 H573 0.980 . S
C510 C511 1.288 . S
C510 C515 1.377 . S
C510 O537 1.393 . S
C511 C510 1.288 . S
C511 C512 1.369 . S
C511 H577 0.932 . S
C512 C511 1.369 . S
C512 C513 1.398 . S
C512 C516 1.527 . S
C513 C512 1.398 . S
C513 C514 1.380 . S
C513 C527 1.497 . S
C514 C513 1.380 . S
C514 C515 1.383 . S
C514 C517 1.603 . S
C515 C510 1.377 . S
C515 C514 1.383 . S
C515 H578 0.929 . S
C516 C512 1.527 . S
C516 H579 0.961 . S
C516 H580 0.959 . S
C516 H581 0.959 . S
C517 C514 1.603 . S
C517 H582 0.960 . S
C517 H583 0.962 . S
C517 H584 0.961 . S
C518 C485 1.587 . S
C518 C519 1.360 . S
C518 C531 1.412 . S
C519 C518 1.360 . S
C519 C520 1.365 . S
C519 H585 0.929 . S
C520 C495 1.553 . S
C520 C519 1.365 . S
C520 C521 1.404 . S
C521 C520 1.404 . S
C521 C522 1.395 . S
C521 C532 1.451 . S
C522 C521 1.395 . S
C522 C523 1.322 . S
C522 H586 0.930 . S
C523 C522 1.322 . S
C523 C524 1.459 . S
C523 H587 0.929 . S
C524 C523 1.459 . S
C524 C525 1.445 . S
C524 C533 1.395 . S
C525 C503 1.432 . S
C525 C524 1.445 . S
C525 C526 1.370 . S
C526 C525 1.370 . S
C526 C527 1.438 . S
C526 H588 0.930 . S
C527 C513 1.497 . S
C527 C526 1.438 . S
C527 C528 1.360 . S
C528 C527 1.360 . S
C528 C529 1.401 . S
C528 C533 1.446 . S
C529 C528 1.401 . S
C529 C530 1.347 . S
C529 H589 0.929 . S
C530 C529 1.347 . S
C530 C531 1.455 . S
C530 H590 0.930 . S
C531 C518 1.412 . S
C531 C530 1.455 . S
C531 C532 1.331 . S
C532 C521 1.451 . S
C532 C531 1.331 . S
C532 C533 1.497 . S
C533 C524 1.395 . S
C533 C528 1.446 . S
C533 C532 1.497 . S
C534 C535 1.582 . S
C534 H591 0.962 . S
C534 H592 0.959 . S
C534 H593 0.958 . S
C535 C534 1.582 . S
C535 O538 1.458 . S
C535 H564 0.980 . S
O536 C481 1.426 . S
O536 C482 1.334 . S
O537 C509 1.412 . S
O537 C510 1.393 . S
O538 C500 1.435 . S
O538 C535 1.458 . S
O539 C491 1.468 . S
O539 C492 1.408 . S
H540 C481 0.980 . S
H541 C480 0.959 . S
H542 C480 0.959 . S
H543 C480 0.960 . S
H544 C483 0.929 . S
H545 C487 0.929 . S
H546 C488 0.959 . S
H547 C488 0.961 . S
H548 C488 0.961 . S
H549 C489 0.960 . S
H550 C489 0.960 . S
H551 C489 0.961 . S
H552 C491 0.980 . S
H553 C490 0.961 . S
H554 C490 0.960 . S
H555 C490 0.959 . S
H556 C493 0.930 . S
H557 C497 0.931 . S
H558 C498 0.959 . S
H559 C498 0.961 . S
H560 C498 0.959 . S
H561 C499 0.960 . S
H562 C499 0.960 . S
H563 C499 0.960 . S
H564 C535 0.980 . S
H565 C501 0.930 . S
H566 C505 0.930 . S
H567 C506 0.961 . S
H568 C506 0.960 . S
H569 C506 0.958 . S
H570 C507 0.961 . S
H571 C507 0.960 . S
H572 C507 0.960 . S
H573 C509 0.980 . S
H574 C508 0.961 . S
H575 C508 0.961 . S
H576 C508 0.959 . S
H577 C511 0.932 . S
H578 C515 0.929 . S
H579 C516 0.961 . S
H580 C516 0.959 . S
H581 C516 0.959 . S
H582 C517 0.960 . S
H583 C517 0.962 . S
H584 C517 0.961 . S
H585 C519 0.929 . S
H586 C522 0.930 . S
H587 C523 0.929 . S
H588 C526 0.930 . S
H589 C529 0.929 . S
H590 C530 0.930 . S
H591 C534 0.962 . S
H592 C534 0.959 . S
H593 C534 0.958 . S
C594 C595 1.560 . S
C594 H655 0.959 . S
C594 H656 0.959 . S
C594 H657 0.960 . S
C595 C594 1.560 . S
C595 O650 1.426 . S
C595 H654 0.980 . S
C596 C597 1.407 . S
C596 C601 1.418 . S
C596 O650 1.334 . S
C597 C596 1.407 . S
C597 C598 1.360 . S
C597 H658 0.929 . S
C598 C597 1.360 . S
C598 C599 1.401 . S
C598 C602 1.527 . S
C599 C598 1.401 . S
C599 C600 1.405 . S
C599 C632 1.587 . S
C600 C599 1.405 . S
C600 C601 1.332 . S
C600 C603 1.496 . S
C601 C596 1.418 . S
C601 C600 1.332 . S
C601 H659 0.929 . S
C602 C598 1.527 . S
C602 H660 0.959 . S
C602 H661 0.961 . S
C602 H662 0.961 . S
C603 C600 1.496 . S
C603 H663 0.960 . S
C603 H664 0.960 . S
C603 H665 0.961 . S
C604 C605 1.517 . S
C604 H667 0.961 . S
C604 H668 0.960 . S
C604 H669 0.959 . S
C605 C604 1.517 . S
C605 O653 1.468 . S
C605 H666 0.980 . S
C606 C607 1.349 . S
C606 C611 1.367 . S
C606 O653 1.408 . S
C607 C606 1.349 . S
C607 C608 1.407 . S
C607 H670 0.930 . S
C608 C607 1.407 . S
C608 C609 1.449 . S
C608 C612 1.535 . S
C609 C608 1.449 . S
C609 C610 1.384 . S
C609 C634 1.553 . S
C610 C609 1.384 . S
C610 C611 1.364 . S
C610 C613 1.450 . S
C611 C606 1.367 . S
C611 C610 1.364 . S
C611 H671 0.931 . S
C612 C608 1.535 . S
C612 H672 0.959 . S
C612 H673 0.961 . S
C612 H674 0.959 . S
C613 C610 1.450 . S
C613 H675 0.960 . S
C613 H676 0.960 . S
C613 H677 0.960 . S
C614 C615 1.309 . S
C614 C619 1.304 . S
C614 O652 1.435 . S
C615 C614 1.309 . S
C615 C616 1.476 . S
C615 H679 0.930 . S
C616 C615 1.476 . S
C616 C617 1.400 . S
C616 C620 1.567 . S
C617 C616 1.400 . S
C617 C618 1.373 . S
C617 C639 1.432 . S
C618 C617 1.373 . S
C618 C619 1.339 . S
C618 C621 1.530 . S
C619 C614 1.304 . S
C619 C618 1.339 . S
C619 H680 0.930 . S
C620 C616 1.567 . S
C620 H681 0.961 . S
C620 H682 0.960 . S
C620 H683 0.958 . S
C621 C618 1.530 . S
C621 H684 0.961 . S
C621 H685 0.960 . S
C621 H686 0.960 . S
C622 C623 1.530 . S
C622 H688 0.961 . S
C622 H689 0.961 . S
C622 H690 0.959 . S
C623 C622 1.530 . S
C623 O651 1.412 . S
C623 H687 0.980 . S
C624 C625 1.288 . S
C624 C629 1.377 . S
C624 O651 1.393 . S
C625 C624 1.288 . S
C625 C626 1.369 . S
C625 H691 0.932 . S
C626 C625 1.369 . S
C626 C627 1.398 . S
C626 C630 1.527 . S
C627 C626 1.398 . S
C627 C628 1.380 . S
C627 C641 1.497 . S
C628 C627 1.380 . S
C628 C629 1.383 . S
C628 C631 1.603 . S
C629 C624 1.377 . S
C629 C628 1.383 . S
C629 H692 0.929 . S
C630 C626 1.527 . S
C630 H693 0.961 . S
C630 H694 0.959 . S
C630 H695 0.959 . S
C631 C628 1.603 . S
C631 H696 0.960 . S
C631 H697 0.962 . S
C631 H698 0.961 . S
C632 C599 1.587 . S
C632 C633 1.360 . S
C632 C645 1.412 . S
C633 C632 1.360 . S
C633 C634 1.365 . S
C633 H699 0.929 . S
C634 C609 1.553 . S
C634 C633 1.365 . S
C634 C635 1.404 . S
C635 C634 1.404 . S
C635 C636 1.395 . S
C635 C646 1.451 . S
C636 C635 1.395 . S
C636 C637 1.322 . S
C636 H700 0.930 . S
C637 C636 1.322 . S
C637 C638 1.459 . S
C637 H701 0.929 . S
C638 C637 1.459 . S
C638 C639 1.445 . S
C638 C647 1.395 . S
C639 C617 1.432 . S
C639 C638 1.445 . S
C639 C640 1.370 . S
C640 C639 1.370 . S
C640 C641 1.438 . S
C640 H702 0.930 . S
C641 C627 1.497 . S
C641 C640 1.438 . S
C641 C642 1.360 . S
C642 C641 1.360 . S
C642 C643 1.401 . S
C642 C647 1.446 . S
C643 C642 1.401 . S
C643 C644 1.347 . S
C643 H703 0.929 . S
C644 C643 1.347 . S
C644 C645 1.455 . S
C644 H704 0.930 . S
C645 C632 1.412 . S
C645 C644 1.455 . S
C645 C646 1.331 . S
C646 C635 1.451 . S
C646 C645 1.331 . S
C646 C647 1.497 . S
C647 C638 1.395 . S
C647 C642 1.446 . S
C647 C646 1.497 . S
C648 C649 1.582 . S
C648 H705 0.962 . S
C648 H706 0.959 . S
C648 H707 0.958 . S
C649 C648 1.582 . S
C649 O652 1.458 . S
C649 H678 0.980 . S
O650 C595 1.426 . S
O650 C596 1.334 . S
O651 C623 1.412 . S
O651 C624 1.393 . S
O652 C614 1.435 . S
O652 C649 1.458 . S
O653 C605 1.468 . S
O653 C606 1.408 . S
H654 C595 0.980 . S
H655 C594 0.959 . S
H656 C594 0.959 . S
H657 C594 0.960 . S
H658 C597 0.929 . S
H659 C601 0.929 . S
H660 C602 0.959 . S
H661 C602 0.961 . S
H662 C602 0.961 . S
H663 C603 0.960 . S
H664 C603 0.960 . S
H665 C603 0.961 . S
H666 C605 0.980 . S
H667 C604 0.961 . S
H668 C604 0.960 . S
H669 C604 0.959 . S
H670 C607 0.930 . S
H671 C611 0.931 . S
H672 C612 0.959 . S
H673 C612 0.961 . S
H674 C612 0.959 . S
H675 C613 0.960 . S
H676 C613 0.960 . S
H677 C613 0.960 . S
H678 C649 0.980 . S
H679 C615 0.930 . S
H680 C619 0.930 . S
H681 C620 0.961 . S
H682 C620 0.960 . S
H683 C620 0.958 . S
H684 C621 0.961 . S
H685 C621 0.960 . S
H686 C621 0.960 . S
H687 C623 0.980 . S
H688 C622 0.961 . S
H689 C622 0.961 . S
H690 C622 0.959 . S
H691 C625 0.932 . S
H692 C629 0.929 . S
H693 C630 0.961 . S
H694 C630 0.959 . S
H695 C630 0.959 . S
H696 C631 0.960 . S
H697 C631 0.962 . S
H698 C631 0.961 . S
H699 C633 0.929 . S
H700 C636 0.930 . S
H701 C637 0.929 . S
H702 C640 0.930 . S
H703 C643 0.929 . S
H704 C644 0.930 . S
H705 C648 0.962 . S
H706 C648 0.959 . S
H707 C648 0.958 . S
C708 C709 1.560 . S
C708 H769 0.959 . S
C708 H770 0.959 . S
C708 H771 0.960 . S
C709 C708 1.560 . S
C709 O764 1.426 . S
C709 H768 0.980 . S
C710 C711 1.407 . S
C710 C715 1.418 . S
C710 O764 1.334 . S
C711 C710 1.407 . S
C711 C712 1.360 . S
C711 H772 0.929 . S
C712 C711 1.360 . S
C712 C713 1.401 . S
C712 C716 1.527 . S
C713 C712 1.401 . S
C713 C714 1.405 . S
C713 C746 1.587 . S
C714 C713 1.405 . S
C714 C715 1.332 . S
C714 C717 1.496 . S
C715 C710 1.418 . S
C715 C714 1.332 . S
C715 H773 0.929 . S
C716 C712 1.527 . S
C716 H774 0.959 . S
C716 H775 0.961 . S
C716 H776 0.961 . S
C717 C714 1.496 . S
C717 H777 0.960 . S
C717 H778 0.960 . S
C717 H779 0.961 . S
C718 C719 1.517 . S
C718 H781 0.961 . S
C718 H782 0.960 . S
C718 H783 0.959 . S
C719 C718 1.517 . S
C719 O767 1.468 . S
C719 H780 0.980 . S
C720 C721 1.349 . S
C720 C725 1.367 . S
C720 O767 1.408 . S
C721 C720 1.349 . S
C721 C722 1.407 . S
C721 H784 0.930 . S
C722 C721 1.407 . S
C722 C723 1.449 . S
C722 C726 1.535 . S
C723 C722 1.449 . S
C723 C724 1.384 . S
C723 C748 1.553 . S
C724 C723 1.384 . S
C724 C725 1.364 . S
C724 C727 1.450 . S
C725 C720 1.367 . S
C725 C724 1.364 . S
C725 H785 0.931 . S
C726 C722 1.535 . S
C726 H786 0.959 . S
C726 H787 0.961 . S
C726 H788 0.959 . S
C727 C724 1.450 . S
C727 H789 0.960 . S
C727 H790 0.960 . S
C727 H791 0.960 . S
C728 C729 1.309 . S
C728 C733 1.304 . S
C728 O766 1.435 . S
C729 C728 1.309 . S
C729 C730 1.476 . S
C729 H793 0.930 . S
C730 C729 1.476 . S
C730 C731 1.400 . S
C730 C734 1.567 . S
C731 C730 1.400 . S
C731 C732 1.373 . S
C731 C753 1.432 . S
C732 C731 1.373 . S
C732 C733 1.339 . S
C732 C735 1.530 . S
C733 C728 1.304 . S
C733 C732 1.339 . S
C733 H794 0.930 . S
C734 C730 1.567 . S
C734 H795 0.961 . S
C734 H796 0.960 . S
C734 H797 0.958 . S
C735 C732 1.530 . S
C735 H798 0.961 . S
C735 H799 0.960 . S
C735 H800 0.960 . S
C736 C737 1.530 . S
C736 H802 0.961 . S
C736 H803 0.961 . S
C736 H804 0.959 . S
C737 C736 1.530 . S
C737 O765 1.412 . S
C737 H801 0.980 . S
C738 C739 1.288 . S
C738 C743 1.377 . S
C738 O765 1.393 . S
C739 C738 1.288 . S
C739 C740 1.369 . S
C739 H805 0.932 . S
C740 C739 1.369 . S
C740 C741 1.398 . S
C740 C744 1.527 . S
C741 C740 1.398 . S
C741 C742 1.380 . S
C741 C755 1.497 . S
C742 C741 1.380 . S
C742 C743 1.383 . S
C742 C745 1.603 . S
C743 C738 1.377 . S
C743 C742 1.383 . S
C743 H806 0.929 . S
C744 C740 1.527 . S
C744 H807 0.961 . S
C744 H808 0.959 . S
C744 H809 0.959 . S
C745 C742 1.603 . S
C745 H810 0.960 . S
C745 H811 0.962 . S
C745 H812 0.961 . S
C746 C713 1.587 . S
C746 C747 1.360 . S
C746 C759 1.412 . S
C747 C746 1.360 . S
C747 C748 1.365 . S
C747 H813 0.929 . S
C748 C723 1.553 . S
C748 C747 1.365 . S
C748 C749 1.404 . S
C749 C748 1.404 . S
C749 C750 1.395 . S
C749 C760 1.451 . S
C750 C749 1.395 . S
C750 C751 1.322 . S
C750 H814 0.930 . S
C751 C750 1.322 . S
C751 C752 1.459 . S
C751 H815 0.929 . S
C752 C751 1.459 . S
C752 C753 1.445 . S
C752 C761 1.395 . S
C753 C731 1.432 . S
C753 C752 1.445 . S
C753 C754 1.370 . S
C754 C753 1.370 . S
C754 C755 1.438 . S
C754 H816 0.930 . S
C755 C741 1.497 . S
C755 C754 1.438 . S
C755 C756 1.360 . S
C756 C755 1.360 . S
C756 C757 1.401 . S
C756 C761 1.446 . S
C757 C756 1.401 . S
C757 C758 1.347 . S
C757 H817 0.929 . S
C758 C757 1.347 . S
C758 C759 1.455 . S
C758 H818 0.930 . S
C759 C746 1.412 . S
C759 C758 1.455 . S
C759 C760 1.331 . S
C760 C749 1.451 . S
C760 C759 1.331 . S
C760 C761 1.497 . S
C761 C752 1.395 . S
C761 C756 1.446 . S
C761 C760 1.497 . S
C762 C763 1.582 . S
C762 H819 0.962 . S
C762 H820 0.959 . S
C762 H821 0.958 . S
C763 C762 1.582 . S
C763 O766 1.458 . S
C763 H792 0.980 . S
O764 C709 1.426 . S
O764 C710 1.334 . S
O765 C737 1.412 . S
O765 C738 1.393 . S
O766 C728 1.435 . S
O766 C763 1.458 . S
O767 C719 1.468 . S
O767 C720 1.408 . S
H768 C709 0.980 . S
H769 C708 0.959 . S
H770 C708 0.959 . S
H771 C708 0.960 . S
H772 C711 0.929 . S
H773 C715 0.929 . S
H774 C716 0.959 . S
H775 C716 0.961 . S
H776 C716 0.961 . S
H777 C717 0.960 . S
H778 C717 0.960 . S
H779 C717 0.961 . S
H780 C719 0.980 . S
H781 C718 0.961 . S
H782 C718 0.960 . S
H783 C718 0.959 . S
H784 C721 0.930 . S
H785 C725 0.931 . S
H786 C726 0.959 . S
H787 C726 0.961 . S
H788 C726 0.959 . S
H789 C727 0.960 . S
H790 C727 0.960 . S
H791 C727 0.960 . S
H792 C763 0.980 . S
H793 C729 0.930 . S
H794 C733 0.930 . S
H795 C734 0.961 . S
H796 C734 0.960 . S
H797 C734 0.958 . S
H798 C735 0.961 . S
H799 C735 0.960 . S
H800 C735 0.960 . S
H801 C737 0.980 . S
H802 C736 0.961 . S
H803 C736 0.961 . S
H804 C736 0.959 . S
H805 C739 0.932 . S
H806 C743 0.929 . S
H807 C744 0.961 . S
H808 C744 0.959 . S
H809 C744 0.959 . S
H810 C745 0.960 . S
H811 C745 0.962 . S
H812 C745 0.961 . S
H813 C747 0.929 . S
H814 C750 0.930 . S
H815 C751 0.929 . S
H816 C754 0.930 . S
H817 C757 0.929 . S
H818 C758 0.930 . S
H819 C762 0.962 . S
H820 C762 0.959 . S
H821 C762 0.958 . S
C822 C823 1.560 . S
C822 H883 0.959 . S
C822 H884 0.959 . S
C822 H885 0.960 . S
C823 C822 1.560 . S
C823 O878 1.426 . S
C823 H882 0.980 . S
C824 C825 1.407 . S
C824 C829 1.418 . S
C824 O878 1.334 . S
C825 C824 1.407 . S
C825 C826 1.360 . S
C825 H886 0.929 . S
C826 C825 1.360 . S
C826 C827 1.401 . S
C826 C830 1.527 . S
C827 C826 1.401 . S
C827 C828 1.405 . S
C827 C860 1.587 . S
C828 C827 1.405 . S
C828 C829 1.332 . S
C828 C831 1.496 . S
C829 C824 1.418 . S
C829 C828 1.332 . S
C829 H887 0.929 . S
C830 C826 1.527 . S
C830 H888 0.959 . S
C830 H889 0.961 . S
C830 H890 0.961 . S
C831 C828 1.496 . S
C831 H891 0.960 . S
C831 H892 0.960 . S
C831 H893 0.961 . S
C832 C833 1.517 . S
C832 H895 0.961 . S
C832 H896 0.960 . S
C832 H897 0.959 . S
C833 C832 1.517 . S
C833 O881 1.468 . S
C833 H894 0.980 . S
C834 C835 1.349 . S
C834 C839 1.367 . S
C834 O881 1.408 . S
C835 C834 1.349 . S
C835 C836 1.407 . S
C835 H898 0.930 . S
C836 C835 1.407 . S
C836 C837 1.449 . S
C836 C840 1.535 . S
C837 C836 1.449 . S
C837 C838 1.384 . S
C837 C862 1.553 . S
C838 C837 1.384 . S
C838 C839 1.364 . S
C838 C841 1.450 . S
C839 C834 1.367 . S
C839 C838 1.364 . S
C839 H899 0.931 . S
C840 C836 1.535 . S
C840 H900 0.959 . S
C840 H901 0.961 . S
C840 H902 0.959 . S
C841 C838 1.450 . S
C841 H903 0.960 . S
C841 H904 0.960 . S
C841 H905 0.960 . S
C842 C843 1.309 . S
C842 C847 1.304 . S
C842 O880 1.435 . S
C843 C842 1.309 . S
C843 C844 1.476 . S
C843 H907 0.930 . S
C844 C843 1.476 . S
C844 C845 1.400 . S
C844 C848 1.567 . S
C845 C844 1.400 . S
C845 C846 1.373 . S
C845 C867 1.432 . S
C846 C845 1.373 . S
C846 C847 1.339 . S
C846 C849 1.530 . S
C847 C842 1.304 . S
C847 C846 1.339 . S
C847 H908 0.930 . S
C848 C844 1.567 . S
C848 H909 0.961 . S
C848 H910 0.960 . S
C848 H911 0.958 . S
C849 C846 1.530 . S
C849 H912 0.961 . S
C849 H913 0.960 . S
C849 H914 0.960 . S
C850 C851 1.530 . S
C850 H916 0.961 . S
C850 H917 0.961 . S
C850 H918 0.959 . S
C851 C850 1.530 . S
C851 O879 1.412 . S
C851 H915 0.980 . S
C852 C853 1.288 . S
C852 C857 1.377 . S
C852 O879 1.393 . S
C853 C852 1.288 . S
C853 C854 1.369 . S
C853 H919 0.932 . S
C854 C853 1.369 . S
C854 C855 1.398 . S
C854 C858 1.527 . S
C855 C854 1.398 . S
C855 C856 1.380 . S
C855 C869 1.497 . S
C856 C855 1.380 . S
C856 C857 1.383 . S
C856 C859 1.603 . S
C857 C852 1.377 . S
C857 C856 1.383 . S
C857 H920 0.929 . S
C858 C854 1.527 . S
C858 H921 0.961 . S
C858 H922 0.959 . S
C858 H923 0.959 . S
C859 C856 1.603 . S
C859 H924 0.960 . S
C859 H925 0.962 . S
C859 H926 0.961 . S
C860 C827 1.587 . S
C860 C861 1.360 . S
C860 C873 1.412 . S
C861 C860 1.360 . S
C861 C862 1.365 . S
C861 H927 0.929 . S
C862 C837 1.553 . S
C862 C861 1.365 . S
C862 C863 1.404 . S
C863 C862 1.404 . S
C863 C864 1.395 . S
C863 C874 1.451 . S
C864 C863 1.395 . S
C864 C865 1.322 . S
C864 H928 0.930 . S
C865 C864 1.322 . S
C865 C866 1.459 . S
C865 H929 0.929 . S
C866 C865 1.459 . S
C866 C867 1.445 . S
C866 C875 1.395 . S
C867 C845 1.432 . S
C867 C866 1.445 . S
C867 C868 1.370 . S
C868 C867 1.370 . S
C868 C869 1.438 . S
C868 H930 0.930 . S
C869 C855 1.497 . S
C869 C868 1.438 . S
C869 C870 1.360 . S
C870 C869 1.360 . S
C870 C871 1.401 . S
C870 C875 1.446 . S
C871 C870 1.401 . S
C871 C872 1.347 . S
C871 H931 0.929 . S
C872 C871 1.347 . S
C872 C873 1.455 . S
C872 H932 0.930 . S
C873 C860 1.412 . S
C873 C872 1.455 . S
C873 C874 1.331 . S
C874 C863 1.451 . S
C874 C873 1.331 . S
C874 C875 1.497 . S
C875 C866 1.395 . S
C875 C870 1.446 . S
C875 C874 1.497 . S
C876 C877 1.582 . S
C876 H933 0.962 . S
C876 H934 0.959 . S
C876 H935 0.958 . S
C877 C876 1.582 . S
C877 O880 1.458 . S
C877 H906 0.980 . S
O878 C823 1.426 . S
O878 C824 1.334 . S
O879 C851 1.412 . S
O879 C852 1.393 . S
O880 C842 1.435 . S
O880 C877 1.458 . S
O881 C833 1.468 . S
O881 C834 1.408 . S
H882 C823 0.980 . S
H883 C822 0.959 . S
H884 C822 0.959 . S
H885 C822 0.960 . S
H886 C825 0.929 . S
H887 C829 0.929 . S
H888 C830 0.959 . S
H889 C830 0.961 . S
H890 C830 0.961 . S
H891 C831 0.960 . S
H892 C831 0.960 . S
H893 C831 0.961 . S
H894 C833 0.980 . S
H895 C832 0.961 . S
H896 C832 0.960 . S
H897 C832 0.959 . S
H898 C835 0.930 . S
H899 C839 0.931 . S
H900 C840 0.959 . S
H901 C840 0.961 . S
H902 C840 0.959 . S
H903 C841 0.960 . S
H904 C841 0.960 . S
H905 C841 0.960 . S
H906 C877 0.980 . S
H907 C843 0.930 . S
H908 C847 0.930 . S
H909 C848 0.961 . S
H910 C848 0.960 . S
H911 C848 0.958 . S
H912 C849 0.961 . S
H913 C849 0.960 . S
H914 C849 0.960 . S
H915 C851 0.980 . S
H916 C850 0.961 . S
H917 C850 0.961 . S
H918 C850 0.959 . S
H919 C853 0.932 . S
H920 C857 0.929 . S
H921 C858 0.961 . S
H922 C858 0.959 . S
H923 C858 0.959 . S
H924 C859 0.960 . S
H925 C859 0.962 . S
H926 C859 0.961 . S
H927 C861 0.929 . S
H928 C864 0.930 . S
H929 C865 0.929 . S
H930 C868 0.930 . S
H931 C871 0.929 . S
H932 C872 0.930 . S
H933 C876 0.962 . S
H934 C876 0.959 . S
H935 C876 0.958 . S
C936 C937 1.560 . S
C936 H997 0.959 . S
C936 H998 0.959 . S
C936 H999 0.960 . S
C937 C936 1.560 . S
C937 O992 1.426 . S
C937 H996 0.980 . S
C938 C939 1.407 . S
C938 C943 1.418 . S
C938 O992 1.334 . S
C939 C938 1.407 . S
C939 C940 1.360 . S
C939 H1000 0.929 . S
C940 C939 1.360 . S
C940 C941 1.401 . S
C940 C944 1.527 . S
C941 C940 1.401 . S
C941 C942 1.405 . S
C941 C974 1.587 . S
C942 C941 1.405 . S
C942 C943 1.332 . S
C942 C945 1.496 . S
C943 C938 1.418 . S
C943 C942 1.332 . S
C943 H1001 0.929 . S
C944 C940 1.527 . S
C944 H1002 0.959 . S
C944 H1003 0.961 . S
C944 H1004 0.961 . S
C945 C942 1.496 . S
C945 H1005 0.960 . S
C945 H1006 0.960 . S
C945 H1007 0.961 . S
C946 C947 1.517 . S
C946 H1009 0.961 . S
C946 H1010 0.960 . S
C946 H1011 0.959 . S
C947 C946 1.517 . S
C947 O995 1.468 . S
C947 H1008 0.980 . S
C948 C949 1.349 . S
C948 C953 1.367 . S
C948 O995 1.408 . S
C949 C948 1.349 . S
C949 C950 1.407 . S
C949 H1012 0.930 . S
C950 C949 1.407 . S
C950 C951 1.449 . S
C950 C954 1.535 . S
C951 C950 1.449 . S
C951 C952 1.384 . S
C951 C976 1.553 . S
C952 C951 1.384 . S
C952 C953 1.364 . S
C952 C955 1.450 . S
C953 C948 1.367 . S
C953 C952 1.364 . S
C953 H1013 0.931 . S
C954 C950 1.535 . S
C954 H1014 0.959 . S
C954 H1015 0.961 . S
C954 H1016 0.959 . S
C955 C952 1.450 . S
C955 H1017 0.960 . S
C955 H1018 0.960 . S
C955 H1019 0.960 . S
C956 C957 1.309 . S
C956 C961 1.304 . S
C956 O994 1.435 . S
C957 C956 1.309 . S
C957 C958 1.476 . S
C957 H1021 0.930 . S
C958 C957 1.476 . S
C958 C959 1.400 . S
C958 C962 1.567 . S
C959 C958 1.400 . S
C959 C960 1.373 . S
C959 C981 1.432 . S
C960 C959 1.373 . S
C960 C961 1.339 . S
C960 C963 1.530 . S
C961 C956 1.304 . S
C961 C960 1.339 . S
C961 H1022 0.930 . S
C962 C958 1.567 . S
C962 H1023 0.961 . S
C962 H1024 0.960 . S
C962 H1025 0.958 . S
C963 C960 1.530 . S
C963 H1026 0.961 . S
C963 H1027 0.960 . S
C963 H1028 0.960 . S
C964 C965 1.530 . S
C964 H1030 0.961 . S
C964 H1031 0.961 . S
C964 H1032 0.959 . S
C965 C964 1.530 . S
C965 O993 1.412 . S
C965 H1029 0.980 . S
C966 C967 1.288 . S
C966 C971 1.377 . S
C966 O993 1.393 . S
C967 C966 1.288 . S
C967 C968 1.369 . S
C967 H1033 0.932 . S
C968 C967 1.369 . S
C968 C969 1.398 . S
C968 C972 1.527 . S
C969 C968 1.398 . S
C969 C970 1.380 . S
C969 C983 1.497 . S
C970 C969 1.380 . S
C970 C971 1.383 . S
C970 C973 1.603 . S
C971 C966 1.377 . S
C971 C970 1.383 . S
C971 H1034 0.929 . S
C972 C968 1.527 . S
C972 H1035 0.961 . S
C972 H1036 0.959 . S
C972 H1037 0.959 . S
C973 C970 1.603 . S
C973 H1038 0.960 . S
C973 H1039 0.962 . S
C973 H1040 0.961 . S
C974 C941 1.587 . S
C974 C975 1.360 . S
C974 C987 1.412 . S
C975 C974 1.360 . S
C975 C976 1.365 . S
C975 H1041 0.929 . S
C976 C951 1.553 . S
C976 C975 1.365 . S
C976 C977 1.404 . S
C977 C976 1.404 . S
C977 C978 1.395 . S
C977 C988 1.451 . S
C978 C977 1.395 . S
C978 C979 1.322 . S
C978 H1042 0.930 . S
C979 C978 1.322 . S
C979 C980 1.459 . S
C979 H1043 0.929 . S
C980 C979 1.459 . S
C980 C981 1.445 . S
C980 C989 1.395 . S
C981 C959 1.432 . S
C981 C980 1.445 . S
C981 C982 1.370 . S
C982 C981 1.370 . S
C982 C983 1.438 . S
C982 H1044 0.930 . S
C983 C969 1.497 . S
C983 C982 1.438 . S
C983 C984 1.360 . S
C984 C983 1.360 . S
C984 C985 1.401 . S
C984 C989 1.446 . S
C985 C984 1.401 . S
C985 C986 1.347 . S
C985 H1045 0.929 . S
C986 C985 1.347 . S
C986 C987 1.455 . S
C986 H1046 0.930 . S
C987 C974 1.412 . S
C987 C986 1.455 . S
C987 C988 1.331 . S
C988 C977 1.451 . S
C988 C987 1.331 . S
C988 C989 1.497 . S
C989 C980 1.395 . S
C989 C984 1.446 . S
C989 C988 1.497 . S
C990 C991 1.582 . S
C990 H1047 0.962 . S
C990 H1048 0.959 . S
C990 H1049 0.958 . S
C991 C990 1.582 . S
C991 O994 1.458 . S
C991 H1020 0.980 . S
O992 C937 1.426 . S
O992 C938 1.334 . S
O993 C965 1.412 . S
O993 C966 1.393 . S
O994 C956 1.435 . S
O994 C991 1.458 . S
O995 C947 1.468 . S
O995 C948 1.408 . S
H996 C937 0.980 . S
H997 C936 0.959 . S
H998 C936 0.959 . S
H999 C936 0.960 . S
H1000 C939 0.929 . S
H1001 C943 0.929 . S
H1002 C944 0.959 . S
H1003 C944 0.961 . S
H1004 C944 0.961 . S
H1005 C945 0.960 . S
H1006 C945 0.960 . S
H1007 C945 0.961 . S
H1008 C947 0.980 . S
H1009 C946 0.961 . S
H1010 C946 0.960 . S
H1011 C946 0.959 . S
H1012 C949 0.930 . S
H1013 C953 0.931 . S
H1014 C954 0.959 . S
H1015 C954 0.961 . S
H1016 C954 0.959 . S
H1017 C955 0.960 . S
H1018 C955 0.960 . S
H1019 C955 0.960 . S
H1020 C991 0.980 . S
H1021 C957 0.930 . S
H1022 C961 0.930 . S
H1023 C962 0.961 . S
H1024 C962 0.960 . S
H1025 C962 0.958 . S
H1026 C963 0.961 . S
H1027 C963 0.960 . S
H1028 C963 0.960 . S
H1029 C965 0.980 . S
H1030 C964 0.961 . S
H1031 C964 0.961 . S
H1032 C964 0.959 . S
H1033 C967 0.932 . S
H1034 C971 0.929 . S
H1035 C972 0.961 . S
H1036 C972 0.959 . S
H1037 C972 0.959 . S
H1038 C973 0.960 . S
H1039 C973 0.962 . S
H1040 C973 0.961 . S
H1041 C975 0.929 . S
H1042 C978 0.930 . S
H1043 C979 0.929 . S
H1044 C982 0.930 . S
H1045 C985 0.929 . S
H1046 C986 0.930 . S
H1047 C990 0.962 . S
H1048 C990 0.959 . S
H1049 C990 0.958 . S
C1050 C1051 1.560 . S
C1050 H1111 0.959 . S
C1050 H1112 0.959 . S
C1050 H1113 0.960 . S
C1051 C1050 1.560 . S
C1051 O1106 1.426 . S
C1051 H1110 0.980 . S
C1052 C1053 1.407 . S
C1052 C1057 1.418 . S
C1052 O1106 1.334 . S
C1053 C1052 1.407 . S
C1053 C1054 1.360 . S
C1053 H1114 0.929 . S
C1054 C1053 1.360 . S
C1054 C1055 1.401 . S
C1054 C1058 1.527 . S
C1055 C1054 1.401 . S
C1055 C1056 1.405 . S
C1055 C1088 1.587 . S
C1056 C1055 1.405 . S
C1056 C1057 1.332 . S
C1056 C1059 1.496 . S
C1057 C1052 1.418 . S
C1057 C1056 1.332 . S
C1057 H1115 0.929 . S
C1058 C1054 1.527 . S
C1058 H1116 0.959 . S
C1058 H1117 0.961 . S
C1058 H1118 0.961 . S
C1059 C1056 1.496 . S
C1059 H1119 0.960 . S
C1059 H1120 0.960 . S
C1059 H1121 0.961 . S
C1060 C1061 1.517 . S
C1060 H1123 0.961 . S
C1060 H1124 0.960 . S
C1060 H1125 0.959 . S
C1061 C1060 1.517 . S
C1061 O1109 1.468 . S
C1061 H1122 0.980 . S
C1062 C1063 1.349 . S
C1062 C1067 1.367 . S
C1062 O1109 1.408 . S
C1063 C1062 1.349 . S
C1063 C1064 1.407 . S
C1063 H1126 0.930 . S
C1064 C1063 1.407 . S
C1064 C1065 1.449 . S
C1064 C1068 1.535 . S
C1065 C1064 1.449 . S
C1065 C1066 1.384 . S
C1065 C1090 1.553 . S
C1066 C1065 1.384 . S
C1066 C1067 1.364 . S
C1066 C1069 1.450 . S
C1067 C1062 1.367 . S
C1067 C1066 1.364 . S
C1067 H1127 0.931 . S
C1068 C1064 1.535 . S
C1068 H1128 0.959 . S
C1068 H1129 0.961 . S
C1068 H1130 0.959 . S
C1069 C1066 1.450 . S
C1069 H1131 0.960 . S
C1069 H1132 0.960 . S
C1069 H1133 0.960 . S
C1070 C1071 1.309 . S
C1070 C1075 1.304 . S
C1070 O1108 1.435 . S
C1071 C1070 1.309 . S
C1071 C1072 1.476 . S
C1071 H1135 0.930 . S
C1072 C1071 1.476 . S
C1072 C1073 1.400 . S
C1072 C1076 1.567 . S
C1073 C1072 1.400 . S
C1073 C1074 1.373 . S
C1073 C1095 1.432 . S
C1074 C1073 1.373 . S
C1074 C1075 1.339 . S
C1074 C1077 1.530 . S
C1075 C1070 1.304 . S
C1075 C1074 1.339 . S
C1075 H1136 0.930 . S
C1076 C1072 1.567 . S
C1076 H1137 0.961 . S
C1076 H1138 0.960 . S
C1076 H1139 0.958 . S
C1077 C1074 1.530 . S
C1077 H1140 0.961 . S
C1077 H1141 0.960 . S
C1077 H1142 0.960 . S
C1078 C1079 1.530 . S
C1078 H1144 0.961 . S
C1078 H1145 0.961 . S
C1078 H1146 0.959 . S
C1079 C1078 1.530 . S
C1079 O1107 1.412 . S
C1079 H1143 0.980 . S
C1080 C1081 1.288 . S
C1080 C1085 1.377 . S
C1080 O1107 1.393 . S
C1081 C1080 1.288 . S
C1081 C1082 1.369 . S
C1081 H1147 0.932 . S
C1082 C1081 1.369 . S
C1082 C1083 1.398 . S
C1082 C1086 1.527 . S
C1083 C1082 1.398 . S
C1083 C1084 1.380 . S
C1083 C1097 1.497 . S
C1084 C1083 1.380 . S
C1084 C1085 1.383 . S
C1084 C1087 1.603 . S
C1085 C1080 1.377 . S
C1085 C1084 1.383 . S
C1085 H1148 0.929 . S
C1086 C1082 1.527 . S
C1086 H1149 0.961 . S
C1086 H1150 0.959 . S
C1086 H1151 0.959 . S
C1087 C1084 1.603 . S
C1087 H1152 0.960 . S
C1087 H1153 0.962 . S
C1087 H1154 0.961 . S
C1088 C1055 1.587 . S
C1088 C1089 1.360 . S
C1088 C1101 1.412 . S
C1089 C1088 1.360 . S
C1089 C1090 1.365 . S
C1089 H1155 0.929 . S
C1090 C1065 1.553 . S
C1090 C1089 1.365 . S
C1090 C1091 1.404 . S
C1091 C1090 1.404 . S
C1091 C1092 1.395 . S
C1091 C1102 1.451 . S
C1092 C1091 1.395 . S
C1092 C1093 1.322 . S
C1092 H1156 0.930 . S
C1093 C1092 1.322 . S
C1093 C1094 1.459 . S
C1093 H1157 0.929 . S
C1094 C1093 1.459 . S
C1094 C1095 1.445 . S
C1094 C1103 1.395 . S
C1095 C1073 1.432 . S
C1095 C1094 1.445 . S
C1095 C1096 1.370 . S
C1096 C1095 1.370 . S
C1096 C1097 1.438 . S
C1096 H1158 0.930 . S
C1097 C1083 1.497 . S
C1097 C1096 1.438 . S
C1097 C1098 1.360 . S
C1098 C1097 1.360 . S
C1098 C1099 1.401 . S
C1098 C1103 1.446 . S
C1099 C1098 1.401 . S
C1099 C1100 1.347 . S
C1099 H1159 0.929 . S
C1100 C1099 1.347 . S
C1100 C1101 1.455 . S
C1100 H1160 0.930 . S
C1101 C1088 1.412 . S
C1101 C1100 1.455 . S
C1101 C1102 1.331 . S
C1102 C1091 1.451 . S
C1102 C1101 1.331 . S
C1102 C1103 1.497 . S
C1103 C1094 1.395 . S
C1103 C1098 1.446 . S
C1103 C1102 1.497 . S
C1104 C1105 1.582 . S
C1104 H1161 0.962 . S
C1104 H1162 0.959 . S
C1104 H1163 0.958 . S
C1105 C1104 1.582 . S
C1105 O1108 1.458 . S
C1105 H1134 0.980 . S
O1106 C1051 1.426 . S
O1106 C1052 1.334 . S
O1107 C1079 1.412 . S
O1107 C1080 1.393 . S
O1108 C1070 1.435 . S
O1108 C1105 1.458 . S
O1109 C1061 1.468 . S
O1109 C1062 1.408 . S
H1110 C1051 0.980 . S
H1111 C1050 0.959 . S
H1112 C1050 0.959 . S
H1113 C1050 0.960 . S
H1114 C1053 0.929 . S
H1115 C1057 0.929 . S
H1116 C1058 0.959 . S
H1117 C1058 0.961 . S
H1118 C1058 0.961 . S
H1119 C1059 0.960 . S
H1120 C1059 0.960 . S
H1121 C1059 0.961 . S
H1122 C1061 0.980 . S
H1123 C1060 0.961 . S
H1124 C1060 0.960 . S
H1125 C1060 0.959 . S
H1126 C1063 0.930 . S
H1127 C1067 0.931 . S
H1128 C1068 0.959 . S
H1129 C1068 0.961 . S
H1130 C1068 0.959 . S
H1131 C1069 0.960 . S
H1132 C1069 0.960 . S
H1133 C1069 0.960 . S
H1134 C1105 0.980 . S
H1135 C1071 0.930 . S
H1136 C1075 0.930 . S
H1137 C1076 0.961 . S
H1138 C1076 0.960 . S
H1139 C1076 0.958 . S
H1140 C1077 0.961 . S
H1141 C1077 0.960 . S
H1142 C1077 0.960 . S
H1143 C1079 0.980 . S
H1144 C1078 0.961 . S
H1145 C1078 0.961 . S
H1146 C1078 0.959 . S
H1147 C1081 0.932 . S
H1148 C1085 0.929 . S
H1149 C1086 0.961 . S
H1150 C1086 0.959 . S
H1151 C1086 0.959 . S
H1152 C1087 0.960 . S
H1153 C1087 0.962 . S
H1154 C1087 0.961 . S
H1155 C1089 0.929 . S
H1156 C1092 0.930 . S
H1157 C1093 0.929 . S
H1158 C1096 0.930 . S
H1159 C1099 0.929 . S
H1160 C1100 0.930 . S
H1161 C1104 0.962 . S
H1162 C1104 0.959 . S
H1163 C1104 0.958 . S
C1164 C1165 1.560 . S
C1164 H1225 0.959 . S
C1164 H1226 0.959 . S
C1164 H1227 0.960 . S
C1165 C1164 1.560 . S
C1165 O1220 1.426 . S
C1165 H1224 0.980 . S
C1166 C1167 1.407 . S
C1166 C1171 1.418 . S
C1166 O1220 1.334 . S
C1167 C1166 1.407 . S
C1167 C1168 1.360 . S
C1167 H1228 0.929 . S
C1168 C1167 1.360 . S
C1168 C1169 1.401 . S
C1168 C1172 1.527 . S
C1169 C1168 1.401 . S
C1169 C1170 1.405 . S
C1169 C1202 1.587 . S
C1170 C1169 1.405 . S
C1170 C1171 1.332 . S
C1170 C1173 1.496 . S
C1171 C1166 1.418 . S
C1171 C1170 1.332 . S
C1171 H1229 0.929 . S
C1172 C1168 1.527 . S
C1172 H1230 0.959 . S
C1172 H1231 0.961 . S
C1172 H1232 0.961 . S
C1173 C1170 1.496 . S
C1173 H1233 0.960 . S
C1173 H1234 0.960 . S
C1173 H1235 0.961 . S
C1174 C1175 1.517 . S
C1174 H1237 0.961 . S
C1174 H1238 0.960 . S
C1174 H1239 0.959 . S
C1175 C1174 1.517 . S
C1175 O1223 1.468 . S
C1175 H1236 0.980 . S
C1176 C1177 1.349 . S
C1176 C1181 1.367 . S
C1176 O1223 1.408 . S
C1177 C1176 1.349 . S
C1177 C1178 1.407 . S
C1177 H1240 0.930 . S
C1178 C1177 1.407 . S
C1178 C1179 1.449 . S
C1178 C1182 1.535 . S
C1179 C1178 1.449 . S
C1179 C1180 1.384 . S
C1179 C1204 1.553 . S
C1180 C1179 1.384 . S
C1180 C1181 1.364 . S
C1180 C1183 1.450 . S
C1181 C1176 1.367 . S
C1181 C1180 1.364 . S
C1181 H1241 0.931 . S
C1182 C1178 1.535 . S
C1182 H1242 0.959 . S
C1182 H1243 0.961 . S
C1182 H1244 0.959 . S
C1183 C1180 1.450 . S
C1183 H1245 0.960 . S
C1183 H1246 0.960 . S
C1183 H1247 0.960 . S
C1184 C1185 1.309 . S
C1184 C1189 1.304 . S
C1184 O1222 1.435 . S
C1185 C1184 1.309 . S
C1185 C1186 1.476 . S
C1185 H1249 0.930 . S
C1186 C1185 1.476 . S
C1186 C1187 1.400 . S
C1186 C1190 1.567 . S
C1187 C1186 1.400 . S
C1187 C1188 1.373 . S
C1187 C1209 1.432 . S
C1188 C1187 1.373 . S
C1188 C1189 1.339 . S
C1188 C1191 1.530 . S
C1189 C1184 1.304 . S
C1189 C1188 1.339 . S
C1189 H1250 0.930 . S
C1190 C1186 1.567 . S
C1190 H1251 0.961 . S
C1190 H1252 0.960 . S
C1190 H1253 0.958 . S
C1191 C1188 1.530 . S
C1191 H1254 0.961 . S
C1191 H1255 0.960 . S
C1191 H1256 0.960 . S
C1192 C1193 1.530 . S
C1192 H1258 0.961 . S
C1192 H1259 0.961 . S
C1192 H1260 0.959 . S
C1193 C1192 1.530 . S
C1193 O1221 1.412 . S
C1193 H1257 0.980 . S
C1194 C1195 1.288 . S
C1194 C1199 1.377 . S
C1194 O1221 1.393 . S
C1195 C1194 1.288 . S
C1195 C1196 1.369 . S
C1195 H1261 0.932 . S
C1196 C1195 1.369 . S
C1196 C1197 1.398 . S
C1196 C1200 1.527 . S
C1197 C1196 1.398 . S
C1197 C1198 1.380 . S
C1197 C1211 1.497 . S
C1198 C1197 1.380 . S
C1198 C1199 1.383 . S
C1198 C1201 1.603 . S
C1199 C1194 1.377 . S
C1199 C1198 1.383 . S
C1199 H1262 0.929 . S
C1200 C1196 1.527 . S
C1200 H1263 0.961 . S
C1200 H1264 0.959 . S
C1200 H1265 0.959 . S
C1201 C1198 1.603 . S
C1201 H1266 0.960 . S
C1201 H1267 0.962 . S
C1201 H1268 0.961 . S
C1202 C1169 1.587 . S
C1202 C1203 1.360 . S
C1202 C1215 1.412 . S
C1203 C1202 1.360 . S
C1203 C1204 1.365 . S
C1203 H1269 0.929 . S
C1204 C1179 1.553 . S
C1204 C1203 1.365 . S
C1204 C1205 1.404 . S
C1205 C1204 1.404 . S
C1205 C1206 1.395 . S
C1205 C1216 1.451 . S
C1206 C1205 1.395 . S
C1206 C1207 1.322 . S
C1206 H1270 0.930 . S
C1207 C1206 1.322 . S
C1207 C1208 1.459 . S
C1207 H1271 0.929 . S
C1208 C1207 1.459 . S
C1208 C1209 1.445 . S
C1208 C1217 1.395 . S
C1209 C1187 1.432 . S
C1209 C1208 1.445 . S
C1209 C1210 1.370 . S
C1210 C1209 1.370 . S
C1210 C1211 1.438 . S
C1210 H1272 0.930 . S
C1211 C1197 1.497 . S
C1211 C1210 1.438 . S
C1211 C1212 1.360 . S
C1212 C1211 1.360 . S
C1212 C1213 1.401 . S
C1212 C1217 1.446 . S
C1213 C1212 1.401 . S
C1213 C1214 1.347 . S
C1213 H1273 0.929 . S
C1214 C1213 1.347 . S
C1214 C1215 1.455 . S
C1214 H1274 0.930 . S
C1215 C1202 1.412 . S
C1215 C1214 1.455 . S
C1215 C1216 1.331 . S
C1216 C1205 1.451 . S
C1216 C1215 1.331 . S
C1216 C1217 1.497 . S
C1217 C1208 1.395 . S
C1217 C1212 1.446 . S
C1217 C1216 1.497 . S
C1218 C1219 1.582 . S
C1218 H1275 0.962 . S
C1218 H1276 0.959 . S
C1218 H1277 0.958 . S
C1219 C1218 1.582 . S
C1219 O1222 1.458 . S
C1219 H1248 0.980 . S
O1220 C1165 1.426 . S
O1220 C1166 1.334 . S
O1221 C1193 1.412 . S
O1221 C1194 1.393 . S
O1222 C1184 1.435 . S
O1222 C1219 1.458 . S
O1223 C1175 1.468 . S
O1223 C1176 1.408 . S
H1224 C1165 0.980 . S
H1225 C1164 0.959 . S
H1226 C1164 0.959 . S
H1227 C1164 0.960 . S
H1228 C1167 0.929 . S
H1229 C1171 0.929 . S
H1230 C1172 0.959 . S
H1231 C1172 0.961 . S
H1232 C1172 0.961 . S
H1233 C1173 0.960 . S
H1234 C1173 0.960 . S
H1235 C1173 0.961 . S
H1236 C1175 0.980 . S
H1237 C1174 0.961 . S
H1238 C1174 0.960 . S
H1239 C1174 0.959 . S
H1240 C1177 0.930 . S
H1241 C1181 0.931 . S
H1242 C1182 0.959 . S
H1243 C1182 0.961 . S
H1244 C1182 0.959 . S
H1245 C1183 0.960 . S
H1246 C1183 0.960 . S
H1247 C1183 0.960 . S
H1248 C1219 0.980 . S
H1249 C1185 0.930 . S
H1250 C1189 0.930 . S
H1251 C1190 0.961 . S
H1252 C1190 0.960 . S
H1253 C1190 0.958 . S
H1254 C1191 0.961 . S
H1255 C1191 0.960 . S
H1256 C1191 0.960 . S
H1257 C1193 0.980 . S
H1258 C1192 0.961 . S
H1259 C1192 0.961 . S
H1260 C1192 0.959 . S
H1261 C1195 0.932 . S
H1262 C1199 0.929 . S
H1263 C1200 0.961 . S
H1264 C1200 0.959 . S
H1265 C1200 0.959 . S
H1266 C1201 0.960 . S
H1267 C1201 0.962 . S
H1268 C1201 0.961 . S
H1269 C1203 0.929 . S
H1270 C1206 0.930 . S
H1271 C1207 0.929 . S
H1272 C1210 0.930 . S
H1273 C1213 0.929 . S
H1274 C1214 0.930 . S
H1275 C1218 0.962 . S
H1276 C1218 0.959 . S
H1277 C1218 0.958 . S
C1278 C1279 1.560 . S
C1278 H1339 0.959 . S
C1278 H1340 0.959 . S
C1278 H1341 0.960 . S
C1279 C1278 1.560 . S
C1279 O1334 1.426 . S
C1279 H1338 0.980 . S
C1280 C1281 1.407 1_455 S
C1280 C1285 1.418 . S
C1280 O1334 1.334 . S
C1281 C1280 1.407 1_655 S
C1281 C1282 1.360 . S
C1281 H1342 0.929 . S
C1282 C1281 1.360 . S
C1282 C1283 1.401 1_655 S
C1282 C1286 1.527 . S
C1283 C1282 1.401 1_455 S
C1283 C1284 1.405 . S
C1283 C1316 1.587 1_455 S
C1284 C1283 1.405 . S
C1284 C1285 1.332 . S
C1284 C1287 1.496 . S
C1285 C1280 1.418 . S
C1285 C1284 1.332 . S
C1285 H1343 0.929 . S
C1286 C1282 1.527 . S
C1286 H1344 0.959 . S
C1286 H1345 0.961 . S
C1286 H1346 0.961 . S
C1287 C1284 1.496 . S
C1287 H1347 0.960 . S
C1287 H1348 0.960 . S
C1287 H1349 0.961 . S
C1288 C1289 1.517 . S
C1288 H1351 1.009 . S
C1288 H1352 0.960 . S
C1288 H1353 0.959 . S
C1289 C1288 1.517 . S
C1289 O1337 1.468 . S
C1289 H1350 0.980 1_655 S
C1290 C1291 1.349 . S
C1290 C1295 1.367 . S
C1290 O1337 1.408 . S
C1291 C1290 1.349 . S
C1291 C1292 1.376 1_655 S
C1291 H1354 0.930 1_655 S
C1292 C1291 1.376 1_455 S
C1292 C1293 1.424 1_455 S
C1292 C1296 1.587 . S
C1293 C1292 1.424 1_655 S
C1293 C1294 1.384 . S
C1293 C1318 1.553 . S
C1294 C1293 1.384 . S
C1294 C1295 1.364 . S
C1294 C1297 1.450 . S
C1295 C1290 1.367 . S
C1295 C1294 1.364 . S
C1295 H1355 0.931 . S
C1296 C1292 1.587 . S
C1296 H1356 0.959 . S
C1296 H1357 0.961 . S
C1296 H1358 0.959 . S
C1297 C1294 1.450 . S
C1297 H1359 0.960 . S
C1297 H1360 0.960 . S
C1297 H1361 0.960 . S
C1298 C1299 1.309 . S
C1298 C1303 1.304 . S
C1298 O1336 1.435 . S
C1299 C1298 1.309 . S
C1299 C1300 1.476 1_655 S
C1299 H1363 0.930 1_655 S
C1300 C1299 1.476 1_455 S
C1300 C1301 1.400 1_455 S
C1300 C1304 1.567 . S
C1301 C1300 1.400 1_655 S
C1301 C1302 1.373 . S
C1301 C1323 1.432 . S
C1302 C1301 1.373 . S
C1302 C1303 1.339 . S
C1302 C1305 1.530 . S
C1303 C1298 1.304 . S
C1303 C1302 1.339 . S
C1303 H1364 0.930 . S
C1304 C1300 1.567 . S
C1304 H1365 0.961 . S
C1304 H1366 0.960 . S
C1304 H1367 0.958 . S
C1305 C1302 1.530 . S
C1305 H1368 0.961 . S
C1305 H1369 0.960 . S
C1305 H1370 0.960 . S
C1306 C1307 1.547 . S
C1306 H1372 0.961 . S
C1306 H1373 0.961 . S
C1306 H1374 0.959 . S
C1307 C1306 1.547 . S
C1307 O1335 1.415 . S
C1307 H1371 0.976 1_455 S
C1308 C1309 1.288 . S
C1308 C1313 1.377 1_455 S
C1308 O1335 1.393 . S
C1309 C1308 1.288 . S
C1309 C1310 1.369 . S
C1309 H1375 0.932 . S
C1310 C1309 1.369 . S
C1310 C1311 1.398 1_455 S
C1310 C1314 1.527 . S
C1311 C1310 1.398 1_655 S
C1311 C1312 1.380 . S
C1311 C1325 1.497 . S
C1312 C1311 1.380 . S
C1312 C1313 1.383 . S
C1312 C1315 1.603 . S
C1313 C1308 1.377 1_655 S
C1313 C1312 1.383 . S
C1313 H1376 0.929 . S
C1314 C1310 1.527 . S
C1314 H1377 0.961 . S
C1314 H1378 0.959 . S
C1314 H1379 0.959 . S
C1315 C1312 1.603 . S
C1315 H1380 0.960 . S
C1315 H1381 0.962 . S
C1315 H1382 0.961 . S
C1316 C1283 1.587 1_655 S
C1316 C1317 1.360 . S
C1316 C1329 1.412 . S
C1317 C1316 1.360 . S
C1317 C1318 1.365 . S
C1317 H1383 0.929 . S
C1318 C1293 1.553 . S
C1318 C1317 1.365 . S
C1318 C1319 1.404 . S
C1319 C1318 1.404 . S
C1319 C1320 1.395 . S
C1319 C1330 1.451 . S
C1320 C1319 1.395 . S
C1320 C1321 1.322 . S
C1320 H1384 0.930 . S
C1321 C1320 1.322 . S
C1321 C1322 1.459 . S
C1321 H1385 0.929 . S
C1322 C1321 1.459 . S
C1322 C1323 1.445 . S
C1322 C1331 1.395 . S
C1323 C1301 1.432 . S
C1323 C1322 1.445 . S
C1323 C1324 1.370 . S
C1324 C1323 1.370 . S
C1324 C1325 1.438 . S
C1324 H1386 0.930 . S
C1325 C1311 1.497 . S
C1325 C1324 1.438 . S
C1325 C1326 1.360 . S
C1326 C1325 1.360 . S
C1326 C1327 1.401 . S
C1326 C1331 1.446 . S
C1327 C1326 1.401 . S
C1327 C1328 1.347 . S
C1327 H1387 0.993 . S
C1328 C1327 1.347 . S
C1328 C1329 1.455 . S
C1328 H1388 0.991 . S
C1329 C1316 1.412 . S
C1329 C1328 1.455 . S
C1329 C1330 1.331 . S
C1330 C1319 1.451 . S
C1330 C1329 1.331 . S
C1330 C1331 1.497 . S
C1331 C1322 1.395 . S
C1331 C1326 1.446 . S
C1331 C1330 1.497 . S
C1332 C1333 1.582 . S
C1332 H1389 0.962 . S
C1332 H1390 0.959 . S
C1332 H1391 0.958 . S
C1333 C1332 1.582 . S
C1333 O1336 1.458 . S
C1333 H1362 0.980 . S
O1334 C1279 1.426 . S
O1334 C1280 1.334 . S
O1335 C1307 1.415 . S
O1335 C1308 1.393 . S
O1336 C1298 1.435 . S
O1336 C1333 1.458 . S
O1337 C1289 1.468 . S
O1337 C1290 1.408 . S
H1338 C1279 0.980 . S
H1339 C1278 0.959 . S
H1340 C1278 0.959 . S
H1341 C1278 0.960 . S
H1342 C1281 0.929 . S
H1343 C1285 0.929 . S
H1344 C1286 0.959 . S
H1345 C1286 0.961 . S
H1346 C1286 0.961 . S
H1347 C1287 0.960 . S
H1348 C1287 0.960 . S
H1349 C1287 0.961 . S
H1350 C1289 0.980 1_455 S
H1351 C1288 1.009 . S
H1352 C1288 0.960 . S
H1353 C1288 0.959 . S
H1354 C1291 0.930 1_455 S
H1355 C1295 0.931 . S
H1356 C1296 0.959 . S
H1357 C1296 0.961 . S
H1358 C1296 0.959 . S
H1359 C1297 0.960 . S
H1360 C1297 0.960 . S
H1361 C1297 0.960 . S
H1362 C1333 0.980 . S
H1363 C1299 0.930 1_455 S
H1364 C1303 0.930 . S
H1365 C1304 0.961 . S
H1366 C1304 0.960 . S
H1367 C1304 0.958 . S
H1368 C1305 0.961 . S
H1369 C1305 0.960 . S
H1370 C1305 0.960 . S
H1371 C1307 0.976 1_655 S
H1372 C1306 0.961 . S
H1373 C1306 0.961 . S
H1374 C1306 0.959 . S
H1375 C1309 0.932 . S
H1376 C1313 0.929 . S
H1377 C1314 0.961 . S
H1378 C1314 0.959 . S
H1379 C1314 0.959 . S
H1380 C1315 0.960 . S
H1381 C1315 0.962 . S
H1382 C1315 0.961 . S
H1383 C1317 0.929 . S
H1384 C1320 0.930 . S
H1385 C1321 0.929 . S
H1386 C1324 0.930 . S
H1387 C1327 0.993 . S
H1388 C1328 0.991 . S
H1389 C1332 0.962 . S
H1390 C1332 0.959 . S
H1391 C1332 0.958 . S
C1392 C1393 1.560 . S
C1392 H1453 0.959 . S
C1392 H1454 0.959 . S
C1392 H1455 0.960 . S
C1393 C1392 1.560 . S
C1393 O1448 1.426 . S
C1393 H1452 0.980 . S
C1394 C1395 1.407 . S
C1394 C1399 1.418 . S
C1394 O1448 1.334 . S
C1395 C1394 1.407 . S
C1395 C1396 1.360 . S
C1395 H1456 0.929 . S
C1396 C1395 1.360 . S
C1396 C1397 1.401 . S
C1396 C1400 1.527 . S
C1397 C1396 1.401 . S
C1397 C1398 1.405 . S
C1397 C1430 1.587 . S
C1398 C1397 1.405 . S
C1398 C1399 1.332 . S
C1398 C1401 1.496 . S
C1399 C1394 1.418 . S
C1399 C1398 1.332 . S
C1399 H1457 0.929 . S
C1400 C1396 1.527 . S
C1400 H1458 0.959 . S
C1400 H1459 0.961 . S
C1400 H1460 0.961 . S
C1401 C1398 1.496 . S
C1401 H1461 0.960 . S
C1401 H1462 0.960 . S
C1401 H1463 0.961 . S
C1402 C1403 1.517 . S
C1402 H1465 0.961 . S
C1402 H1466 0.960 . S
C1402 H1467 0.959 . S
C1403 C1402 1.517 . S
C1403 O1451 1.468 . S
C1403 H1464 0.980 . S
C1404 C1405 1.349 . S
C1404 C1409 1.367 . S
C1404 O1451 1.408 . S
C1405 C1404 1.349 . S
C1405 C1406 1.407 . S
C1405 H1468 0.930 . S
C1406 C1405 1.407 . S
C1406 C1407 1.449 . S
C1406 C1410 1.535 . S
C1407 C1406 1.449 . S
C1407 C1408 1.384 . S
C1407 C1432 1.553 . S
C1408 C1407 1.384 . S
C1408 C1409 1.364 . S
C1408 C1411 1.450 . S
C1409 C1404 1.367 . S
C1409 C1408 1.364 . S
C1409 H1469 0.931 . S
C1410 C1406 1.535 . S
C1410 H1470 0.959 . S
C1410 H1471 0.961 . S
C1410 H1472 0.959 . S
C1411 C1408 1.450 . S
C1411 H1473 0.960 . S
C1411 H1474 0.960 . S
C1411 H1475 0.960 . S
C1412 C1413 1.309 . S
C1412 C1417 1.304 . S
C1412 O1450 1.435 . S
C1413 C1412 1.309 . S
C1413 C1414 1.476 . S
C1413 H1477 0.930 . S
C1414 C1413 1.476 . S
C1414 C1415 1.400 . S
C1414 C1418 1.567 . S
C1415 C1414 1.400 . S
C1415 C1416 1.373 . S
C1415 C1437 1.432 . S
C1416 C1415 1.373 . S
C1416 C1417 1.339 . S
C1416 C1419 1.530 . S
C1417 C1412 1.304 . S
C1417 C1416 1.339 . S
C1417 H1478 0.930 . S
C1418 C1414 1.567 . S
C1418 H1479 0.961 . S
C1418 H1480 0.960 . S
C1418 H1481 0.958 . S
C1419 C1416 1.530 . S
C1419 H1482 0.961 . S
C1419 H1483 0.960 . S
C1419 H1484 0.960 . S
C1420 C1421 1.530 . S
C1420 H1486 0.961 . S
C1420 H1487 0.961 . S
C1420 H1488 0.959 . S
C1421 C1420 1.530 . S
C1421 O1449 1.412 . S
C1421 H1485 0.980 . S
C1422 C1423 1.288 . S
C1422 C1427 1.377 . S
C1422 O1449 1.393 . S
C1423 C1422 1.288 . S
C1423 C1424 1.369 . S
C1423 H1489 0.932 . S
C1424 C1423 1.369 . S
C1424 C1425 1.398 . S
C1424 C1428 1.527 . S
C1425 C1424 1.398 . S
C1425 C1426 1.380 . S
C1425 C1439 1.497 . S
C1426 C1425 1.380 . S
C1426 C1427 1.383 . S
C1426 C1429 1.603 . S
C1427 C1422 1.377 . S
C1427 C1426 1.383 . S
C1427 H1490 0.929 . S
C1428 C1424 1.527 . S
C1428 H1491 0.961 . S
C1428 H1492 0.959 . S
C1428 H1493 0.959 . S
C1429 C1426 1.603 . S
C1429 H1494 0.960 . S
C1429 H1495 0.962 . S
C1429 H1496 0.961 . S
C1430 C1397 1.587 . S
C1430 C1431 1.360 . S
C1430 C1443 1.412 . S
C1431 C1430 1.360 . S
C1431 C1432 1.365 . S
C1431 H1497 0.929 . S
C1432 C1407 1.553 . S
C1432 C1431 1.365 . S
C1432 C1433 1.404 . S
C1433 C1432 1.404 . S
C1433 C1434 1.395 . S
C1433 C1444 1.451 . S
C1434 C1433 1.395 . S
C1434 C1435 1.322 . S
C1434 H1498 0.930 . S
C1435 C1434 1.322 . S
C1435 C1436 1.459 . S
C1435 H1499 0.929 . S
C1436 C1435 1.459 . S
C1436 C1437 1.445 . S
C1436 C1445 1.395 . S
C1437 C1415 1.432 . S
C1437 C1436 1.445 . S
C1437 C1438 1.370 . S
C1438 C1437 1.370 . S
C1438 C1439 1.438 . S
C1438 H1500 0.930 . S
C1439 C1425 1.497 . S
C1439 C1438 1.438 . S
C1439 C1440 1.360 . S
C1440 C1439 1.360 . S
C1440 C1441 1.401 . S
C1440 C1445 1.446 . S
C1441 C1440 1.401 . S
C1441 C1442 1.347 . S
C1441 H1501 0.929 . S
C1442 C1441 1.347 . S
C1442 C1443 1.455 . S
C1442 H1502 0.930 . S
C1443 C1430 1.412 . S
C1443 C1442 1.455 . S
C1443 C1444 1.331 . S
C1444 C1433 1.451 . S
C1444 C1443 1.331 . S
C1444 C1445 1.497 . S
C1445 C1436 1.395 . S
C1445 C1440 1.446 . S
C1445 C1444 1.497 . S
C1446 C1447 1.582 . S
C1446 H1503 0.962 . S
C1446 H1504 0.959 . S
C1446 H1505 0.958 . S
C1447 C1446 1.582 . S
C1447 O1450 1.458 . S
C1447 H1476 0.980 . S
O1448 C1393 1.426 . S
O1448 C1394 1.334 . S
O1449 C1421 1.412 . S
O1449 C1422 1.393 . S
O1450 C1412 1.435 . S
O1450 C1447 1.458 . S
O1451 C1403 1.468 . S
O1451 C1404 1.408 . S
H1452 C1393 0.980 . S
H1453 C1392 0.959 . S
H1454 C1392 0.959 . S
H1455 C1392 0.960 . S
H1456 C1395 0.929 . S
H1457 C1399 0.929 . S
H1458 C1400 0.959 . S
H1459 C1400 0.961 . S
H1460 C1400 0.961 . S
H1461 C1401 0.960 . S
H1462 C1401 0.960 . S
H1463 C1401 0.961 . S
H1464 C1403 0.980 . S
H1465 C1402 0.961 . S
H1466 C1402 0.960 . S
H1467 C1402 0.959 . S
H1468 C1405 0.930 . S
H1469 C1409 0.931 . S
H1470 C1410 0.959 . S
H1471 C1410 0.961 . S
H1472 C1410 0.959 . S
H1473 C1411 0.960 . S
H1474 C1411 0.960 . S
H1475 C1411 0.960 . S
H1476 C1447 0.980 . S
H1477 C1413 0.930 . S
H1478 C1417 0.930 . S
H1479 C1418 0.961 . S
H1480 C1418 0.960 . S
H1481 C1418 0.958 . S
H1482 C1419 0.961 . S
H1483 C1419 0.960 . S
H1484 C1419 0.960 . S
H1485 C1421 0.980 . S
H1486 C1420 0.961 . S
H1487 C1420 0.961 . S
H1488 C1420 0.959 . S
H1489 C1423 0.932 . S
H1490 C1427 0.929 . S
H1491 C1428 0.961 . S
H1492 C1428 0.959 . S
H1493 C1428 0.959 . S
H1494 C1429 0.960 . S
H1495 C1429 0.962 . S
H1496 C1429 0.961 . S
H1497 C1431 0.929 . S
H1498 C1434 0.930 . S
H1499 C1435 0.929 . S
H1500 C1438 0.930 . S
H1501 C1441 0.929 . S
H1502 C1442 0.930 . S
H1503 C1446 0.962 . S
H1504 C1446 0.959 . S
H1505 C1446 0.958 . S
C1506 C1507 1.560 . S
C1506 H1567 0.959 . S
C1506 H1568 0.959 . S
C1506 H1569 0.960 . S
C1507 C1506 1.560 . S
C1507 O1562 1.426 . S
C1507 H1566 0.980 . S
C1508 C1509 1.407 1_565 S
C1508 C1513 1.418 . S
C1508 O1562 1.334 . S
C1509 C1508 1.407 1_545 S
C1509 C1510 1.360 . S
C1509 H1570 0.929 . S
C1510 C1509 1.360 . S
C1510 C1511 1.332 1_545 S
C1510 C1514 1.527 . S
C1511 C1510 1.332 1_565 S
C1511 C1512 1.469 . S
C1511 C1544 1.601 1_565 S
C1512 C1511 1.469 . S
C1512 C1513 1.332 . S
C1512 C1515 1.496 . S
C1513 C1508 1.418 . S
C1513 C1512 1.332 . S
C1513 H1571 0.929 . S
C1514 C1510 1.527 . S
C1514 H1572 0.959 . S
C1514 H1573 0.961 . S
C1514 H1574 0.961 . S
C1515 C1512 1.496 . S
C1515 H1575 0.960 . S
C1515 H1576 0.960 . S
C1515 H1577 0.961 . S
C1516 C1517 1.517 . S
C1516 H1579 0.961 1_545 S
C1516 H1580 0.960 . S
C1516 H1581 0.959 . S
C1517 C1516 1.517 . S
C1517 O1565 1.468 . S
C1517 H1578 0.980 1_545 S
C1518 C1519 1.353 1_545 S
C1518 C1523 1.367 . S
C1518 O1565 1.408 . S
C1519 C1518 1.353 1_565 S
C1519 C1520 1.410 . S
C1519 H1582 0.923 . S
C1520 C1519 1.410 . S
C1520 C1521 1.449 1_565 S
C1520 C1524 1.535 . S
C1521 C1520 1.449 1_545 S
C1521 C1522 1.384 . S
C1521 C1546 1.553 . S
C1522 C1521 1.384 . S
C1522 C1523 1.364 . S
C1522 C1525 1.450 . S
C1523 C1518 1.367 . S
C1523 C1522 1.364 . S
C1523 H1583 0.931 . S
C1524 C1520 1.535 . S
C1524 H1584 0.959 . S
C1524 H1585 0.961 . S
C1524 H1586 0.959 . S
C1525 C1522 1.450 . S
C1525 H1587 0.960 . S
C1525 H1588 0.960 . S
C1525 H1589 0.960 . S
C1526 C1527 1.309 . S
C1526 C1531 1.304 . S
C1526 O1564 1.435 . S
C1527 C1526 1.309 . S
C1527 C1528 1.511 1_545 S
C1527 H1591 0.930 1_545 S
C1528 C1527 1.511 1_565 S
C1528 C1529 1.303 1_565 S
C1528 C1532 1.632 . S
C1529 C1528 1.303 1_545 S
C1529 C1530 1.373 . S
C1529 C1551 1.432 . S
C1530 C1529 1.373 . S
C1530 C1531 1.339 . S
C1530 C1533 1.530 . S
C1531 C1526 1.304 . S
C1531 C1530 1.339 . S
C1531 H1592 0.930 . S
C1532 C1528 1.632 . S
C1532 H1593 0.961 . S
C1532 H1594 0.960 . S
C1532 H1595 0.958 . S
C1533 C1530 1.530 . S
C1533 H1596 0.961 . S
C1533 H1597 0.960 . S
C1533 H1598 0.960 . S
C1534 C1535 1.530 1_565 S
C1534 H1600 0.961 . S
C1534 H1601 0.961 . S
C1534 H1602 0.959 . S
C1535 C1534 1.530 1_545 S
C1535 O1563 1.412 1_545 S
C1535 H1599 0.980 . S
C1536 C1537 1.288 . S
C1536 C1541 1.377 1_565 S
C1536 O1563 1.393 . S
C1537 C1536 1.288 . S
C1537 C1538 1.369 . S
C1537 H1603 0.932 . S
C1538 C1537 1.369 . S
C1538 C1539 1.398 1_565 S
C1538 C1542 1.527 . S
C1539 C1538 1.398 1_545 S
C1539 C1540 1.380 . S
C1539 C1553 1.497 . S
C1540 C1539 1.380 . S
C1540 C1541 1.383 . S
C1540 C1543 1.603 . S
C1541 C1536 1.377 1_545 S
C1541 C1540 1.383 . S
C1541 H1604 0.929 . S
C1542 C1538 1.527 . S
C1542 H1605 0.961 . S
C1542 H1606 0.959 . S
C1542 H1607 0.959 . S
C1543 C1540 1.603 . S
C1543 H1608 0.960 . S
C1543 H1609 0.962 . S
C1543 H1610 0.961 . S
C1544 C1511 1.601 1_545 S
C1544 C1545 1.360 . S
C1544 C1557 1.412 . S
C1545 C1544 1.360 . S
C1545 C1546 1.365 . S
C1545 H1611 0.929 . S
C1546 C1521 1.553 . S
C1546 C1545 1.365 . S
C1546 C1547 1.404 . S
C1547 C1546 1.404 . S
C1547 C1548 1.395 . S
C1547 C1558 1.451 . S
C1548 C1547 1.395 . S
C1548 C1549 1.322 . S
C1548 H1612 0.930 . S
C1549 C1548 1.322 . S
C1549 C1550 1.459 . S
C1549 H1613 0.929 . S
C1550 C1549 1.459 . S
C1550 C1551 1.445 . S
C1550 C1559 1.395 . S
C1551 C1529 1.432 . S
C1551 C1550 1.445 . S
C1551 C1552 1.370 . S
C1552 C1551 1.370 . S
C1552 C1553 1.438 . S
C1552 H1614 0.930 . S
C1553 C1539 1.497 . S
C1553 C1552 1.438 . S
C1553 C1554 1.360 . S
C1554 C1553 1.360 . S
C1554 C1555 1.401 . S
C1554 C1559 1.446 . S
C1555 C1554 1.401 . S
C1555 C1556 1.347 . S
C1555 H1615 0.929 . S
C1556 C1555 1.347 . S
C1556 C1557 1.455 . S
C1556 H1616 0.930 . S
C1557 C1544 1.412 . S
C1557 C1556 1.455 . S
C1557 C1558 1.331 . S
C1558 C1547 1.451 . S
C1558 C1557 1.331 . S
C1558 C1559 1.497 . S
C1559 C1550 1.395 . S
C1559 C1554 1.446 . S
C1559 C1558 1.497 . S
C1560 C1561 1.582 . S
C1560 H1617 0.962 . S
C1560 H1618 0.959 . S
C1560 H1619 0.958 . S
C1561 C1560 1.582 . S
C1561 O1564 1.458 . S
C1561 H1590 0.980 . S
O1562 C1507 1.426 . S
O1562 C1508 1.334 . S
O1563 C1535 1.412 1_565 S
O1563 C1536 1.393 . S
O1564 C1526 1.435 . S
O1564 C1561 1.458 . S
O1565 C1517 1.468 . S
O1565 C1518 1.408 . S
H1566 C1507 0.980 . S
H1567 C1506 0.959 . S
H1568 C1506 0.959 . S
H1569 C1506 0.960 . S
H1570 C1509 0.929 . S
H1571 C1513 0.929 . S
H1572 C1514 0.959 . S
H1573 C1514 0.961 . S
H1574 C1514 0.961 . S
H1575 C1515 0.960 . S
H1576 C1515 0.960 . S
H1577 C1515 0.961 . S
H1578 C1517 0.980 1_565 S
H1579 C1516 0.961 1_565 S
H1580 C1516 0.960 . S
H1581 C1516 0.959 . S
H1582 C1519 0.923 . S
H1583 C1523 0.931 . S
H1584 C1524 0.959 . S
H1585 C1524 0.961 . S
H1586 C1524 0.959 . S
H1587 C1525 0.960 . S
H1588 C1525 0.960 . S
H1589 C1525 0.960 . S
H1590 C1561 0.980 . S
H1591 C1527 0.930 1_565 S
H1592 C1531 0.930 . S
H1593 C1532 0.961 . S
H1594 C1532 0.960 . S
H1595 C1532 0.958 . S
H1596 C1533 0.961 . S
H1597 C1533 0.960 . S
H1598 C1533 0.960 . S
H1599 C1535 0.980 . S
H1600 C1534 0.961 . S
H1601 C1534 0.961 . S
H1602 C1534 0.959 . S
H1603 C1537 0.932 . S
H1604 C1541 0.929 . S
H1605 C1542 0.961 . S
H1606 C1542 0.959 . S
H1607 C1542 0.959 . S
H1608 C1543 0.960 . S
H1609 C1543 0.962 . S
H1610 C1543 0.961 . S
H1611 C1545 0.929 . S
H1612 C1548 0.930 . S
H1613 C1549 0.929 . S
H1614 C1552 0.930 . S
H1615 C1555 0.929 . S
H1616 C1556 0.930 . S
H1617 C1560 0.962 . S
H1618 C1560 0.959 . S
H1619 C1560 0.958 . S
C1620 C1621 1.560 . S
C1620 H1681 0.959 . S
C1620 H1682 0.959 . S
C1620 H1683 0.960 . S
C1621 C1620 1.560 . S
C1621 O1676 1.426 . S
C1621 H1680 0.980 1_565 S
C1622 C1623 1.407 1_565 S
C1622 C1627 1.418 . S
C1622 O1676 1.334 . S
C1623 C1622 1.407 1_545 S
C1623 C1624 1.360 . S
C1623 H1684 0.929 . S
C1624 C1623 1.360 . S
C1624 C1625 1.401 . S
C1624 C1628 1.527 . S
C1625 C1624 1.401 . S
C1625 C1626 1.405 1_545 S
C1625 C1658 1.587 . S
C1626 C1625 1.405 1_565 S
C1626 C1627 1.332 . S
C1626 C1629 1.496 . S
C1627 C1622 1.418 . S
C1627 C1626 1.332 . S
C1627 H1685 0.929 . S
C1628 C1624 1.527 . S
C1628 H1686 0.959 . S
C1628 H1687 0.961 . S
C1628 H1688 0.961 . S
C1629 C1626 1.496 . S
C1629 H1689 0.960 . S
C1629 H1690 0.960 . S
C1629 H1691 0.961 . S
C1630 C1631 1.517 . S
C1630 H1693 0.961 . S
C1630 H1694 0.960 . S
C1630 H1695 0.959 . S
C1631 C1630 1.517 . S
C1631 O1679 1.468 . S
C1631 H1692 0.980 . S
C1632 C1633 1.349 . S
C1632 C1637 1.367 . S
C1632 O1679 1.408 . S
C1633 C1632 1.349 . S
C1633 C1634 1.407 . S
C1633 H1696 0.938 . S
C1634 C1633 1.407 . S
C1634 C1635 1.449 . S
C1634 C1638 1.535 1_545 S
C1635 C1634 1.449 . S
C1635 C1636 1.384 . S
C1635 C1660 1.553 . S
C1636 C1635 1.384 . S
C1636 C1637 1.364 . S
C1636 C1639 1.450 . S
C1637 C1632 1.367 . S
C1637 C1636 1.364 . S
C1637 H1697 0.931 . S
C1638 C1634 1.535 1_565 S
C1638 H1698 0.959 . S
C1638 H1699 0.961 . S
C1638 H1700 0.959 . S
C1639 C1636 1.450 . S
C1639 H1701 0.960 . S
C1639 H1702 0.960 . S
C1639 H1703 0.960 . S
C1640 C1641 1.309 1_545 S
C1640 C1645 1.304 . S
C1640 O1678 1.435 . S
C1641 C1640 1.309 1_565 S
C1641 C1642 1.476 . S
C1641 H1705 0.930 . S
C1642 C1641 1.476 . S
C1642 C1643 1.400 1_565 S
C1642 C1646 1.567 . S
C1643 C1642 1.400 1_545 S
C1643 C1644 1.373 . S
C1643 C1665 1.432 . S
C1644 C1643 1.373 . S
C1644 C1645 1.339 . S
C1644 C1647 1.530 . S
C1645 C1640 1.304 . S
C1645 C1644 1.339 . S
C1645 H1706 0.930 . S
C1646 C1642 1.567 . S
C1646 H1707 0.961 . S
C1646 H1708 0.960 . S
C1646 H1709 0.958 . S
C1647 C1644 1.530 . S
C1647 H1710 0.961 . S
C1647 H1711 0.960 . S
C1647 H1712 0.960 . S
C1648 C1649 1.530 . S
C1648 H1714 0.961 . S
C1648 H1715 0.961 . S
C1648 H1716 0.959 . S
C1649 C1648 1.530 . S
C1649 O1677 1.412 . S
C1649 H1713 0.980 . S
C1650 C1651 1.288 . S
C1650 C1655 1.377 1_565 S
C1650 O1677 1.393 . S
C1651 C1650 1.288 . S
C1651 C1652 1.369 . S
C1651 H1717 0.932 . S
C1652 C1651 1.369 . S
C1652 C1653 1.398 . S
C1652 C1656 1.527 . S
C1653 C1652 1.398 . S
C1653 C1654 1.380 1_565 S
C1653 C1667 1.497 1_565 S
C1654 C1653 1.380 1_545 S
C1654 C1655 1.383 . S
C1654 C1657 1.603 . S
C1655 C1650 1.377 1_545 S
C1655 C1654 1.383 . S
C1655 H1718 0.929 . S
C1656 C1652 1.527 . S
C1656 H1719 0.961 . S
C1656 H1720 0.959 . S
C1656 H1721 0.959 . S
C1657 C1654 1.603 . S
C1657 H1722 0.960 . S
C1657 H1723 0.962 . S
C1657 H1724 0.961 . S
C1658 C1625 1.587 . S
C1658 C1659 1.360 . S
C1658 C1671 1.412 . S
C1659 C1658 1.360 . S
C1659 C1660 1.365 . S
C1659 H1725 0.929 . S
C1660 C1635 1.553 . S
C1660 C1659 1.365 . S
C1660 C1661 1.404 . S
C1661 C1660 1.404 . S
C1661 C1662 1.395 . S
C1661 C1672 1.451 . S
C1662 C1661 1.395 . S
C1662 C1663 1.322 . S
C1662 H1726 0.930 . S
C1663 C1662 1.322 . S
C1663 C1664 1.459 . S
C1663 H1727 0.929 . S
C1664 C1663 1.459 . S
C1664 C1665 1.445 . S
C1664 C1673 1.395 . S
C1665 C1643 1.432 . S
C1665 C1664 1.445 . S
C1665 C1666 1.370 . S
C1666 C1665 1.370 . S
C1666 C1667 1.438 . S
C1666 H1728 0.930 . S
C1667 C1653 1.497 1_545 S
C1667 C1666 1.438 . S
C1667 C1668 1.360 . S
C1668 C1667 1.360 . S
C1668 C1669 1.401 . S
C1668 C1673 1.446 . S
C1669 C1668 1.401 . S
C1669 C1670 1.347 . S
C1669 H1729 0.933 . S
C1670 C1669 1.347 . S
C1670 C1671 1.455 . S
C1670 H1730 0.930 . S
C1671 C1658 1.412 . S
C1671 C1670 1.455 . S
C1671 C1672 1.331 . S
C1672 C1661 1.451 . S
C1672 C1671 1.331 . S
C1672 C1673 1.497 . S
C1673 C1664 1.395 . S
C1673 C1668 1.446 . S
C1673 C1672 1.497 . S
C1674 C1675 1.582 . S
C1674 H1731 0.962 . S
C1674 H1732 0.959 . S
C1674 H1733 0.958 . S
C1675 C1674 1.582 . S
C1675 O1678 1.458 . S
C1675 H1704 0.980 1_545 S
O1676 C1621 1.426 . S
O1676 C1622 1.334 . S
O1677 C1649 1.412 . S
O1677 C1650 1.393 . S
O1678 C1640 1.435 . S
O1678 C1675 1.458 . S
O1679 C1631 1.468 . S
O1679 C1632 1.408 . S
H1680 C1621 0.980 1_545 S
H1681 C1620 0.959 . S
H1682 C1620 0.959 . S
H1683 C1620 0.960 . S
H1684 C1623 0.929 . S
H1685 C1627 0.929 . S
H1686 C1628 0.959 . S
H1687 C1628 0.961 . S
H1688 C1628 0.961 . S
H1689 C1629 0.960 . S
H1690 C1629 0.960 . S
H1691 C1629 0.961 . S
H1692 C1631 0.980 . S
H1693 C1630 0.961 . S
H1694 C1630 0.960 . S
H1695 C1630 0.959 . S
H1696 C1633 0.938 . S
H1697 C1637 0.931 . S
H1698 C1638 0.959 . S
H1699 C1638 0.961 . S
H1700 C1638 0.959 . S
H1701 C1639 0.960 . S
H1702 C1639 0.960 . S
H1703 C1639 0.960 . S
H1704 C1675 0.980 1_565 S
H1705 C1641 0.930 . S
H1706 C1645 0.930 . S
H1707 C1646 0.961 . S
H1708 C1646 0.960 . S
H1709 C1646 0.958 . S
H1710 C1647 0.961 . S
H1711 C1647 0.960 . S
H1712 C1647 0.960 . S
H1713 C1649 0.980 . S
H1714 C1648 0.961 . S
H1715 C1648 0.961 . S
H1716 C1648 0.959 . S
H1717 C1651 0.932 . S
H1718 C1655 0.929 . S
H1719 C1656 0.961 . S
H1720 C1656 0.959 . S
H1721 C1656 0.959 . S
H1722 C1657 0.960 . S
H1723 C1657 0.962 . S
H1724 C1657 0.961 . S
H1725 C1659 0.929 . S
H1726 C1662 0.930 . S
H1727 C1663 0.929 . S
H1728 C1666 0.930 . S
H1729 C1669 0.933 . S
H1730 C1670 0.930 . S
H1731 C1674 0.962 . S
H1732 C1674 0.959 . S
H1733 C1674 0.958 . S
C1734 C1735 1.598 . S
C1734 H1795 0.959 . S
C1734 H1796 0.959 . S
C1734 H1797 0.960 . S
C1735 C1734 1.598 . S
C1735 O1790 1.501 . S
C1735 H1794 0.965 1_455 S
C1736 C1737 1.407 1_455 S
C1736 C1741 1.418 . S
C1736 O1790 1.334 . S
C1737 C1736 1.407 1_655 S
C1737 C1738 1.360 . S
C1737 H1798 0.929 . S
C1738 C1737 1.360 . S
C1738 C1739 1.401 . S
C1738 C1742 1.527 . S
C1739 C1738 1.401 . S
C1739 C1740 1.405 1_655 S
C1739 C1772 1.587 . S
C1740 C1739 1.405 1_455 S
C1740 C1741 1.332 . S
C1740 C1743 1.496 . S
C1741 C1736 1.418 . S
C1741 C1740 1.332 . S
C1741 H1799 0.929 . S
C1742 C1738 1.527 . S
C1742 H1800 0.959 . S
C1742 H1801 0.961 . S
C1742 H1802 0.961 . S
C1743 C1740 1.496 . S
C1743 H1803 0.960 . S
C1743 H1804 0.960 . S
C1743 H1805 0.961 . S
C1744 C1745 1.517 . S
C1744 H1807 0.961 . S
C1744 H1808 0.960 . S
C1744 H1809 0.959 . S
C1745 C1744 1.517 . S
C1745 O1793 1.468 . S
C1745 H1806 0.980 . S
C1746 C1747 1.349 . S
C1746 C1751 1.367 . S
C1746 O1793 1.408 . S
C1747 C1746 1.349 . S
C1747 C1748 1.407 . S
C1747 H1810 0.911 1_655 S
C1748 C1747 1.407 . S
C1748 C1749 1.449 . S
C1748 C1752 1.535 1_655 S
C1749 C1748 1.449 . S
C1749 C1750 1.384 . S
C1749 C1774 1.553 . S
C1750 C1749 1.384 . S
C1750 C1751 1.364 . S
C1750 C1753 1.450 . S
C1751 C1746 1.367 . S
C1751 C1750 1.364 . S
C1751 H1811 0.931 . S
C1752 C1748 1.535 1_455 S
C1752 H1812 0.959 . S
C1752 H1813 0.961 . S
C1752 H1814 0.959 . S
C1753 C1750 1.450 . S
C1753 H1815 0.960 . S
C1753 H1816 0.960 . S
C1753 H1817 0.960 . S
C1754 C1755 1.309 1_655 S
C1754 C1759 1.304 . S
C1754 O1792 1.435 . S
C1755 C1754 1.309 1_455 S
C1755 C1756 1.476 . S
C1755 H1819 0.930 . S
C1756 C1755 1.476 . S
C1756 C1757 1.400 1_455 S
C1756 C1760 1.567 . S
C1757 C1756 1.400 1_655 S
C1757 C1758 1.373 . S
C1757 C1779 1.432 . S
C1758 C1757 1.373 . S
C1758 C1759 1.339 . S
C1758 C1761 1.530 . S
C1759 C1754 1.304 . S
C1759 C1758 1.339 . S
C1759 H1820 0.930 . S
C1760 C1756 1.567 . S
C1760 H1821 0.961 . S
C1760 H1822 0.960 . S
C1760 H1823 0.958 . S
C1761 C1758 1.530 . S
C1761 H1824 0.961 . S
C1761 H1825 0.960 . S
C1761 H1826 0.960 . S
C1762 C1763 1.530 . S
C1762 H1828 0.961 . S
C1762 H1829 0.961 . S
C1762 H1830 0.959 . S
C1763 C1762 1.530 . S
C1763 O1791 1.412 . S
C1763 H1827 0.976 1_455 S
C1764 C1765 1.288 . S
C1764 C1769 1.377 1_455 S
C1764 O1791 1.393 . S
C1765 C1764 1.288 . S
C1765 C1766 1.369 . S
C1765 H1831 0.932 . S
C1766 C1765 1.369 . S
C1766 C1767 1.398 . S
C1766 C1770 1.527 . S
C1767 C1766 1.398 . S
C1767 C1768 1.380 1_455 S
C1767 C1781 1.497 1_455 S
C1768 C1767 1.380 1_655 S
C1768 C1769 1.383 . S
C1768 C1771 1.603 . S
C1769 C1764 1.377 1_655 S
C1769 C1768 1.383 . S
C1769 H1832 0.929 . S
C1770 C1766 1.527 . S
C1770 H1833 0.961 . S
C1770 H1834 0.959 . S
C1770 H1835 0.959 . S
C1771 C1768 1.603 . S
C1771 H1836 0.960 . S
C1771 H1837 0.962 . S
C1771 H1838 0.961 . S
C1772 C1739 1.587 . S
C1772 C1773 1.360 . S
C1772 C1785 1.412 . S
C1773 C1772 1.360 . S
C1773 C1774 1.365 . S
C1773 H1839 0.929 . S
C1774 C1749 1.553 . S
C1774 C1773 1.365 . S
C1774 C1775 1.404 . S
C1775 C1774 1.404 . S
C1775 C1776 1.395 . S
C1775 C1786 1.451 . S
C1776 C1775 1.395 . S
C1776 C1777 1.322 . S
C1776 H1840 0.930 . S
C1777 C1776 1.322 . S
C1777 C1778 1.459 . S
C1777 H1841 0.929 . S
C1778 C1777 1.459 . S
C1778 C1779 1.445 . S
C1778 C1787 1.395 . S
C1779 C1757 1.432 . S
C1779 C1778 1.445 . S
C1779 C1780 1.370 . S
C1780 C1779 1.370 . S
C1780 C1781 1.438 . S
C1780 H1842 0.930 . S
C1781 C1767 1.497 1_655 S
C1781 C1780 1.438 . S
C1781 C1782 1.360 . S
C1782 C1781 1.360 . S
C1782 C1783 1.401 . S
C1782 C1787 1.446 . S
C1783 C1782 1.401 . S
C1783 C1784 1.347 . S
C1783 H1843 0.929 . S
C1784 C1783 1.347 . S
C1784 C1785 1.455 . S
C1784 H1844 0.930 . S
C1785 C1772 1.412 . S
C1785 C1784 1.455 . S
C1785 C1786 1.331 . S
C1786 C1775 1.451 . S
C1786 C1785 1.331 . S
C1786 C1787 1.497 . S
C1787 C1778 1.395 . S
C1787 C1782 1.446 . S
C1787 C1786 1.497 . S
C1788 C1789 1.582 1_655 S
C1788 H1845 0.927 1_655 S
C1788 H1846 0.959 . S
C1788 H1847 0.958 . S
C1789 C1788 1.582 1_455 S
C1789 O1792 1.458 1_455 S
C1789 H1818 0.980 . S
O1790 C1735 1.501 . S
O1790 C1736 1.334 . S
O1791 C1763 1.412 . S
O1791 C1764 1.393 . S
O1792 C1754 1.435 . S
O1792 C1789 1.458 1_655 S
O1793 C1745 1.468 . S
O1793 C1746 1.408 . S
H1794 C1735 0.965 1_655 S
H1795 C1734 0.959 . S
H1796 C1734 0.959 . S
H1797 C1734 0.960 . S
H1798 C1737 0.929 . S
H1799 C1741 0.929 . S
H1800 C1742 0.959 . S
H1801 C1742 0.961 . S
H1802 C1742 0.961 . S
H1803 C1743 0.960 . S
H1804 C1743 0.960 . S
H1805 C1743 0.961 . S
H1806 C1745 0.980 . S
H1807 C1744 0.961 . S
H1808 C1744 0.960 . S
H1809 C1744 0.959 . S
H1810 C1747 0.911 1_455 S
H1811 C1751 0.931 . S
H1812 C1752 0.959 . S
H1813 C1752 0.961 . S
H1814 C1752 0.959 . S
H1815 C1753 0.960 . S
H1816 C1753 0.960 . S
H1817 C1753 0.960 . S
H1818 C1789 0.980 . S
H1819 C1755 0.930 . S
H1820 C1759 0.930 . S
H1821 C1760 0.961 . S
H1822 C1760 0.960 . S
H1823 C1760 0.958 . S
H1824 C1761 0.961 . S
H1825 C1761 0.960 . S
H1826 C1761 0.960 . S
H1827 C1763 0.976 1_655 S
H1828 C1762 0.961 . S
H1829 C1762 0.961 . S
H1830 C1762 0.959 . S
H1831 C1765 0.932 . S
H1832 C1769 0.929 . S
H1833 C1770 0.961 . S
H1834 C1770 0.959 . S
H1835 C1770 0.959 . S
H1836 C1771 0.960 . S
H1837 C1771 0.962 . S
H1838 C1771 0.961 . S
H1839 C1773 0.929 . S
H1840 C1776 0.930 . S
H1841 C1777 0.929 . S
H1842 C1780 0.930 . S
H1843 C1783 0.929 . S
H1844 C1784 0.930 . S
H1845 C1788 0.927 1_455 S
H1846 C1788 0.959 . S
H1847 C1788 0.958 . S
C1848 C1849 1.560 . S
C1848 H1909 0.959 . S
C1848 H1910 0.959 . S
C1848 H1911 0.960 . S
C1849 C1848 1.560 . S
C1849 O1904 1.426 . S
C1849 H1908 0.980 . S
C1850 C1851 1.407 . S
C1850 C1855 1.418 . S
C1850 O1904 1.334 . S
C1851 C1850 1.407 . S
C1851 C1852 1.360 . S
C1851 H1912 0.929 . S
C1852 C1851 1.360 . S
C1852 C1853 1.401 . S
C1852 C1856 1.527 . S
C1853 C1852 1.401 . S
C1853 C1854 1.405 . S
C1853 C1886 1.587 . S
C1854 C1853 1.405 . S
C1854 C1855 1.332 . S
C1854 C1857 1.496 . S
C1855 C1850 1.418 . S
C1855 C1854 1.332 . S
C1855 H1913 0.929 . S
C1856 C1852 1.527 . S
C1856 H1914 0.959 . S
C1856 H1915 0.961 . S
C1856 H1916 0.961 . S
C1857 C1854 1.496 . S
C1857 H1917 0.960 . S
C1857 H1918 0.960 . S
C1857 H1919 0.961 . S
C1858 C1859 1.517 . S
C1858 H1921 0.961 . S
C1858 H1922 0.960 . S
C1858 H1923 0.959 . S
C1859 C1858 1.517 . S
C1859 O1907 1.468 . S
C1859 H1920 0.980 . S
C1860 C1861 1.349 . S
C1860 C1865 1.367 . S
C1860 O1907 1.408 . S
C1861 C1860 1.349 . S
C1861 C1862 1.407 . S
C1861 H1924 0.930 . S
C1862 C1861 1.407 . S
C1862 C1863 1.449 . S
C1862 C1866 1.535 . S
C1863 C1862 1.449 . S
C1863 C1864 1.384 . S
C1863 C1888 1.553 . S
C1864 C1863 1.384 . S
C1864 C1865 1.364 . S
C1864 C1867 1.450 . S
C1865 C1860 1.367 . S
C1865 C1864 1.364 . S
C1865 H1925 0.931 . S
C1866 C1862 1.535 . S
C1866 H1926 0.959 . S
C1866 H1927 0.961 . S
C1866 H1928 0.959 . S
C1867 C1864 1.450 . S
C1867 H1929 0.960 . S
C1867 H1930 0.960 . S
C1867 H1931 0.960 . S
C1868 C1869 1.309 . S
C1868 C1873 1.304 . S
C1868 O1906 1.435 . S
C1869 C1868 1.309 . S
C1869 C1870 1.476 . S
C1869 H1933 0.930 . S
C1870 C1869 1.476 . S
C1870 C1871 1.400 . S
C1870 C1874 1.567 . S
C1871 C1870 1.400 . S
C1871 C1872 1.373 . S
C1871 C1893 1.432 . S
C1872 C1871 1.373 . S
C1872 C1873 1.339 . S
C1872 C1875 1.530 . S
C1873 C1868 1.304 . S
C1873 C1872 1.339 . S
C1873 H1934 0.930 . S
C1874 C1870 1.567 . S
C1874 H1935 0.961 . S
C1874 H1936 0.960 . S
C1874 H1937 0.958 . S
C1875 C1872 1.530 . S
C1875 H1938 0.961 . S
C1875 H1939 0.960 . S
C1875 H1940 0.960 . S
C1876 C1877 1.530 . S
C1876 H1942 0.961 . S
C1876 H1943 0.961 . S
C1876 H1944 0.959 . S
C1877 C1876 1.530 . S
C1877 O1905 1.412 . S
C1877 H1941 0.980 . S
C1878 C1879 1.288 . S
C1878 C1883 1.377 . S
C1878 O1905 1.393 . S
C1879 C1878 1.288 . S
C1879 C1880 1.369 . S
C1879 H1945 0.932 . S
C1880 C1879 1.369 . S
C1880 C1881 1.398 . S
C1880 C1884 1.527 . S
C1881 C1880 1.398 . S
C1881 C1882 1.380 . S
C1881 C1895 1.497 . S
C1882 C1881 1.380 . S
C1882 C1883 1.383 . S
C1882 C1885 1.603 . S
C1883 C1878 1.377 . S
C1883 C1882 1.383 . S
C1883 H1946 0.929 . S
C1884 C1880 1.527 . S
C1884 H1947 0.961 . S
C1884 H1948 0.959 . S
C1884 H1949 0.959 . S
C1885 C1882 1.603 . S
C1885 H1950 0.960 . S
C1885 H1951 0.962 . S
C1885 H1952 0.961 . S
C1886 C1853 1.587 . S
C1886 C1887 1.360 . S
C1886 C1899 1.412 . S
C1887 C1886 1.360 . S
C1887 C1888 1.365 . S
C1887 H1953 0.929 . S
C1888 C1863 1.553 . S
C1888 C1887 1.365 . S
C1888 C1889 1.404 . S
C1889 C1888 1.404 . S
C1889 C1890 1.395 . S
C1889 C1900 1.451 . S
C1890 C1889 1.395 . S
C1890 C1891 1.322 . S
C1890 H1954 0.930 . S
C1891 C1890 1.322 . S
C1891 C1892 1.459 . S
C1891 H1955 0.929 . S
C1892 C1891 1.459 . S
C1892 C1893 1.445 . S
C1892 C1901 1.395 . S
C1893 C1871 1.432 . S
C1893 C1892 1.445 . S
C1893 C1894 1.370 . S
C1894 C1893 1.370 . S
C1894 C1895 1.438 . S
C1894 H1956 0.930 . S
C1895 C1881 1.497 . S
C1895 C1894 1.438 . S
C1895 C1896 1.360 . S
C1896 C1895 1.360 . S
C1896 C1897 1.401 . S
C1896 C1901 1.446 . S
C1897 C1896 1.401 . S
C1897 C1898 1.347 . S
C1897 H1957 0.929 . S
C1898 C1897 1.347 . S
C1898 C1899 1.455 . S
C1898 H1958 0.930 . S
C1899 C1886 1.412 . S
C1899 C1898 1.455 . S
C1899 C1900 1.331 . S
C1900 C1889 1.451 . S
C1900 C1899 1.331 . S
C1900 C1901 1.497 . S
C1901 C1892 1.395 . S
C1901 C1896 1.446 . S
C1901 C1900 1.497 . S
C1902 C1903 1.582 . S
C1902 H1959 0.962 . S
C1902 H1960 0.959 . S
C1902 H1961 0.958 . S
C1903 C1902 1.582 . S
C1903 O1906 1.458 . S
C1903 H1932 0.980 . S
O1904 C1849 1.426 . S
O1904 C1850 1.334 . S
O1905 C1877 1.412 . S
O1905 C1878 1.393 . S
O1906 C1868 1.435 . S
O1906 C1903 1.458 . S
O1907 C1859 1.468 . S
O1907 C1860 1.408 . S
H1908 C1849 0.980 . S
H1909 C1848 0.959 . S
H1910 C1848 0.959 . S
H1911 C1848 0.960 . S
H1912 C1851 0.929 . S
H1913 C1855 0.929 . S
H1914 C1856 0.959 . S
H1915 C1856 0.961 . S
H1916 C1856 0.961 . S
H1917 C1857 0.960 . S
H1918 C1857 0.960 . S
H1919 C1857 0.961 . S
H1920 C1859 0.980 . S
H1921 C1858 0.961 . S
H1922 C1858 0.960 . S
H1923 C1858 0.959 . S
H1924 C1861 0.930 . S
H1925 C1865 0.931 . S
H1926 C1866 0.959 . S
H1927 C1866 0.961 . S
H1928 C1866 0.959 . S
H1929 C1867 0.960 . S
H1930 C1867 0.960 . S
H1931 C1867 0.960 . S
H1932 C1903 0.980 . S
H1933 C1869 0.930 . S
H1934 C1873 0.930 . S
H1935 C1874 0.961 . S
H1936 C1874 0.960 . S
H1937 C1874 0.958 . S
H1938 C1875 0.961 . S
H1939 C1875 0.960 . S
H1940 C1875 0.960 . S
H1941 C1877 0.980 . S
H1942 C1876 0.961 . S
H1943 C1876 0.961 . S
H1944 C1876 0.959 . S
H1945 C1879 0.932 . S
H1946 C1883 0.929 . S
H1947 C1884 0.961 . S
H1948 C1884 0.959 . S
H1949 C1884 0.959 . S
H1950 C1885 0.960 . S
H1951 C1885 0.962 . S
H1952 C1885 0.961 . S
H1953 C1887 0.929 . S
H1954 C1890 0.930 . S
H1955 C1891 0.929 . S
H1956 C1894 0.930 . S
H1957 C1897 0.929 . S
H1958 C1898 0.930 . S
H1959 C1902 0.962 . S
H1960 C1902 0.959 . S
H1961 C1902 0.958 . S
C1962 C1963 1.560 . S
C1962 H2023 0.959 . S
C1962 H2024 0.959 . S
C1962 H2025 0.960 . S
C1963 C1962 1.560 . S
C1963 O2018 1.426 . S
C1963 H2022 0.980 . S
C1964 C1965 1.407 . S
C1964 C1969 1.418 . S
C1964 O2018 1.334 . S
C1965 C1964 1.407 . S
C1965 C1966 1.360 . S
C1965 H2026 0.929 . S
C1966 C1965 1.360 . S
C1966 C1967 1.401 . S
C1966 C1970 1.527 . S
C1967 C1966 1.401 . S
C1967 C1968 1.405 . S
C1967 C2000 1.587 . S
C1968 C1967 1.405 . S
C1968 C1969 1.332 . S
C1968 C1971 1.496 . S
C1969 C1964 1.418 . S
C1969 C1968 1.332 . S
C1969 H2027 0.929 . S
C1970 C1966 1.527 . S
C1970 H2028 0.959 . S
C1970 H2029 0.961 . S
C1970 H2030 0.961 . S
C1971 C1968 1.496 . S
C1971 H2031 0.960 . S
C1971 H2032 0.960 . S
C1971 H2033 0.961 . S
C1972 C1973 1.517 . S
C1972 H2035 0.961 . S
C1972 H2036 0.960 . S
C1972 H2037 0.959 . S
C1973 C1972 1.517 . S
C1973 O2021 1.468 . S
C1973 H2034 0.980 . S
C1974 C1975 1.349 . S
C1974 C1979 1.367 . S
C1974 O2021 1.408 . S
C1975 C1974 1.349 . S
C1975 C1976 1.407 . S
C1975 H2038 0.930 . S
C1976 C1975 1.407 . S
C1976 C1977 1.449 . S
C1976 C1980 1.535 . S
C1977 C1976 1.449 . S
C1977 C1978 1.384 . S
C1977 C2002 1.553 . S
C1978 C1977 1.384 . S
C1978 C1979 1.364 . S
C1978 C1981 1.450 . S
C1979 C1974 1.367 . S
C1979 C1978 1.364 . S
C1979 H2039 0.931 . S
C1980 C1976 1.535 . S
C1980 H2040 0.959 . S
C1980 H2041 0.961 . S
C1980 H2042 0.959 . S
C1981 C1978 1.450 . S
C1981 H2043 0.960 . S
C1981 H2044 0.960 . S
C1981 H2045 0.960 . S
C1982 C1983 1.309 . S
C1982 C1987 1.304 . S
C1982 O2020 1.435 . S
C1983 C1982 1.309 . S
C1983 C1984 1.476 . S
C1983 H2047 0.930 . S
C1984 C1983 1.476 . S
C1984 C1985 1.400 . S
C1984 C1988 1.567 . S
C1985 C1984 1.400 . S
C1985 C1986 1.373 . S
C1985 C2007 1.432 . S
C1986 C1985 1.373 . S
C1986 C1987 1.339 . S
C1986 C1989 1.530 . S
C1987 C1982 1.304 . S
C1987 C1986 1.339 . S
C1987 H2048 0.930 . S
C1988 C1984 1.567 . S
C1988 H2049 0.961 . S
C1988 H2050 0.960 . S
C1988 H2051 0.958 . S
C1989 C1986 1.530 . S
C1989 H2052 0.961 . S
C1989 H2053 0.960 . S
C1989 H2054 0.960 . S
C1990 C1991 1.530 . S
C1990 H2056 0.961 . S
C1990 H2057 0.961 . S
C1990 H2058 0.959 . S
C1991 C1990 1.530 . S
C1991 O2019 1.412 . S
C1991 H2055 0.980 . S
C1992 C1993 1.288 . S
C1992 C1997 1.377 . S
C1992 O2019 1.393 . S
C1993 C1992 1.288 . S
C1993 C1994 1.369 . S
C1993 H2059 0.932 . S
C1994 C1993 1.369 . S
C1994 C1995 1.398 . S
C1994 C1998 1.527 . S
C1995 C1994 1.398 . S
C1995 C1996 1.380 . S
C1995 C2009 1.497 . S
C1996 C1995 1.380 . S
C1996 C1997 1.383 . S
C1996 C1999 1.603 . S
C1997 C1992 1.377 . S
C1997 C1996 1.383 . S
C1997 H2060 0.929 . S
C1998 C1994 1.527 . S
C1998 H2061 0.961 . S
C1998 H2062 0.959 . S
C1998 H2063 0.959 . S
C1999 C1996 1.603 . S
C1999 H2064 0.960 . S
C1999 H2065 0.962 . S
C1999 H2066 0.961 . S
C2000 C1967 1.587 . S
C2000 C2001 1.360 . S
C2000 C2013 1.412 . S
C2001 C2000 1.360 . S
C2001 C2002 1.365 . S
C2001 H2067 0.929 . S
C2002 C1977 1.553 . S
C2002 C2001 1.365 . S
C2002 C2003 1.404 . S
C2003 C2002 1.404 . S
C2003 C2004 1.395 . S
C2003 C2014 1.451 . S
C2004 C2003 1.395 . S
C2004 C2005 1.322 . S
C2004 H2068 0.930 . S
C2005 C2004 1.322 . S
C2005 C2006 1.459 . S
C2005 H2069 0.929 . S
C2006 C2005 1.459 . S
C2006 C2007 1.445 . S
C2006 C2015 1.395 . S
C2007 C1985 1.432 . S
C2007 C2006 1.445 . S
C2007 C2008 1.370 . S
C2008 C2007 1.370 . S
C2008 C2009 1.438 . S
C2008 H2070 0.930 . S
C2009 C1995 1.497 . S
C2009 C2008 1.438 . S
C2009 C2010 1.360 . S
C2010 C2009 1.360 . S
C2010 C2011 1.401 . S
C2010 C2015 1.446 . S
C2011 C2010 1.401 . S
C2011 C2012 1.347 . S
C2011 H2071 0.929 . S
C2012 C2011 1.347 . S
C2012 C2013 1.455 . S
C2012 H2072 0.930 . S
C2013 C2000 1.412 . S
C2013 C2012 1.455 . S
C2013 C2014 1.331 . S
C2014 C2003 1.451 . S
C2014 C2013 1.331 . S
C2014 C2015 1.497 . S
C2015 C2006 1.395 . S
C2015 C2010 1.446 . S
C2015 C2014 1.497 . S
C2016 C2017 1.582 . S
C2016 H2073 0.962 . S
C2016 H2074 0.959 . S
C2016 H2075 0.958 . S
C2017 C2016 1.582 . S
C2017 O2020 1.458 . S
C2017 H2046 0.980 . S
O2018 C1963 1.426 . S
O2018 C1964 1.334 . S
O2019 C1991 1.412 . S
O2019 C1992 1.393 . S
O2020 C1982 1.435 . S
O2020 C2017 1.458 . S
O2021 C1973 1.468 . S
O2021 C1974 1.408 . S
H2022 C1963 0.980 . S
H2023 C1962 0.959 . S
H2024 C1962 0.959 . S
H2025 C1962 0.960 . S
H2026 C1965 0.929 . S
H2027 C1969 0.929 . S
H2028 C1970 0.959 . S
H2029 C1970 0.961 . S
H2030 C1970 0.961 . S
H2031 C1971 0.960 . S
H2032 C1971 0.960 . S
H2033 C1971 0.961 . S
H2034 C1973 0.980 . S
H2035 C1972 0.961 . S
H2036 C1972 0.960 . S
H2037 C1972 0.959 . S
H2038 C1975 0.930 . S
H2039 C1979 0.931 . S
H2040 C1980 0.959 . S
H2041 C1980 0.961 . S
H2042 C1980 0.959 . S
H2043 C1981 0.960 . S
H2044 C1981 0.960 . S
H2045 C1981 0.960 . S
H2046 C2017 0.980 . S
H2047 C1983 0.930 . S
H2048 C1987 0.930 . S
H2049 C1988 0.961 . S
H2050 C1988 0.960 . S
H2051 C1988 0.958 . S
H2052 C1989 0.961 . S
H2053 C1989 0.960 . S
H2054 C1989 0.960 . S
H2055 C1991 0.980 . S
H2056 C1990 0.961 . S
H2057 C1990 0.961 . S
H2058 C1990 0.959 . S
H2059 C1993 0.932 . S
H2060 C1997 0.929 . S
H2061 C1998 0.961 . S
H2062 C1998 0.959 . S
H2063 C1998 0.959 . S
H2064 C1999 0.960 . S
H2065 C1999 0.962 . S
H2066 C1999 0.961 . S
H2067 C2001 0.929 . S
H2068 C2004 0.930 . S
H2069 C2005 0.929 . S
H2070 C2008 0.930 . S
H2071 C2011 0.929 . S
H2072 C2012 0.930 . S
H2073 C2016 0.962 . S
H2074 C2016 0.959 . S
H2075 C2016 0.958 . S
C2076 C2077 1.560 . S
C2076 H2137 0.959 . S
C2076 H2138 0.959 . S
C2076 H2139 0.960 . S
C2077 C2076 1.560 . S
C2077 O2132 1.426 . S
C2077 H2136 0.980 . S
C2078 C2079 1.407 . S
C2078 C2083 1.418 . S
C2078 O2132 1.334 . S
C2079 C2078 1.407 . S
C2079 C2080 1.360 . S
C2079 H2140 0.929 . S
C2080 C2079 1.360 . S
C2080 C2081 1.401 . S
C2080 C2084 1.527 . S
C2081 C2080 1.401 . S
C2081 C2082 1.405 . S
C2081 C2114 1.587 . S
C2082 C2081 1.405 . S
C2082 C2083 1.332 . S
C2082 C2085 1.496 . S
C2083 C2078 1.418 . S
C2083 C2082 1.332 . S
C2083 H2141 0.929 . S
C2084 C2080 1.527 . S
C2084 H2142 0.959 . S
C2084 H2143 0.961 . S
C2084 H2144 0.961 . S
C2085 C2082 1.496 . S
C2085 H2145 0.960 . S
C2085 H2146 0.960 . S
C2085 H2147 0.961 . S
C2086 C2087 1.517 . S
C2086 H2149 0.961 . S
C2086 H2150 0.960 . S
C2086 H2151 0.959 . S
C2087 C2086 1.517 . S
C2087 O2135 1.468 . S
C2087 H2148 0.980 . S
C2088 C2089 1.349 . S
C2088 C2093 1.367 . S
C2088 O2135 1.408 . S
C2089 C2088 1.349 . S
C2089 C2090 1.407 . S
C2089 H2152 0.930 . S
C2090 C2089 1.407 . S
C2090 C2091 1.449 . S
C2090 C2094 1.535 . S
C2091 C2090 1.449 . S
C2091 C2092 1.384 . S
C2091 C2116 1.553 . S
C2092 C2091 1.384 . S
C2092 C2093 1.364 . S
C2092 C2095 1.450 . S
C2093 C2088 1.367 . S
C2093 C2092 1.364 . S
C2093 H2153 0.931 . S
C2094 C2090 1.535 . S
C2094 H2154 0.959 . S
C2094 H2155 0.961 . S
C2094 H2156 0.959 . S
C2095 C2092 1.450 . S
C2095 H2157 0.960 . S
C2095 H2158 0.960 . S
C2095 H2159 0.960 . S
C2096 C2097 1.309 . S
C2096 C2101 1.304 . S
C2096 O2134 1.435 . S
C2097 C2096 1.309 . S
C2097 C2098 1.476 . S
C2097 H2161 0.930 . S
C2098 C2097 1.476 . S
C2098 C2099 1.400 . S
C2098 C2102 1.567 . S
C2099 C2098 1.400 . S
C2099 C2100 1.373 . S
C2099 C2121 1.432 . S
C2100 C2099 1.373 . S
C2100 C2101 1.339 . S
C2100 C2103 1.530 . S
C2101 C2096 1.304 . S
C2101 C2100 1.339 . S
C2101 H2162 0.930 . S
C2102 C2098 1.567 . S
C2102 H2163 0.961 . S
C2102 H2164 0.960 . S
C2102 H2165 0.958 . S
C2103 C2100 1.530 . S
C2103 H2166 0.961 . S
C2103 H2167 0.960 . S
C2103 H2168 0.960 . S
C2104 C2105 1.530 . S
C2104 H2170 0.961 . S
C2104 H2171 0.961 . S
C2104 H2172 0.959 . S
C2105 C2104 1.530 . S
C2105 O2133 1.412 . S
C2105 H2169 0.980 . S
C2106 C2107 1.288 . S
C2106 C2111 1.377 . S
C2106 O2133 1.393 . S
C2107 C2106 1.288 . S
C2107 C2108 1.369 . S
C2107 H2173 0.932 . S
C2108 C2107 1.369 . S
C2108 C2109 1.398 . S
C2108 C2112 1.527 . S
C2109 C2108 1.398 . S
C2109 C2110 1.380 . S
C2109 C2123 1.497 . S
C2110 C2109 1.380 . S
C2110 C2111 1.383 . S
C2110 C2113 1.603 . S
C2111 C2106 1.377 . S
C2111 C2110 1.383 . S
C2111 H2174 0.929 . S
C2112 C2108 1.527 . S
C2112 H2175 0.961 . S
C2112 H2176 0.959 . S
C2112 H2177 0.959 . S
C2113 C2110 1.603 . S
C2113 H2178 0.960 . S
C2113 H2179 0.962 . S
C2113 H2180 0.961 . S
C2114 C2081 1.587 . S
C2114 C2115 1.360 . S
C2114 C2127 1.412 . S
C2115 C2114 1.360 . S
C2115 C2116 1.365 . S
C2115 H2181 0.929 . S
C2116 C2091 1.553 . S
C2116 C2115 1.365 . S
C2116 C2117 1.404 . S
C2117 C2116 1.404 . S
C2117 C2118 1.395 . S
C2117 C2128 1.451 . S
C2118 C2117 1.395 . S
C2118 C2119 1.322 . S
C2118 H2182 0.930 . S
C2119 C2118 1.322 . S
C2119 C2120 1.459 . S
C2119 H2183 0.929 . S
C2120 C2119 1.459 . S
C2120 C2121 1.445 . S
C2120 C2129 1.395 . S
C2121 C2099 1.432 . S
C2121 C2120 1.445 . S
C2121 C2122 1.370 . S
C2122 C2121 1.370 . S
C2122 C2123 1.438 . S
C2122 H2184 0.930 . S
C2123 C2109 1.497 . S
C2123 C2122 1.438 . S
C2123 C2124 1.360 . S
C2124 C2123 1.360 . S
C2124 C2125 1.401 . S
C2124 C2129 1.446 . S
C2125 C2124 1.401 . S
C2125 C2126 1.347 . S
C2125 H2185 0.929 . S
C2126 C2125 1.347 . S
C2126 C2127 1.455 . S
C2126 H2186 0.930 . S
C2127 C2114 1.412 . S
C2127 C2126 1.455 . S
C2127 C2128 1.331 . S
C2128 C2117 1.451 . S
C2128 C2127 1.331 . S
C2128 C2129 1.497 . S
C2129 C2120 1.395 . S
C2129 C2124 1.446 . S
C2129 C2128 1.497 . S
C2130 C2131 1.582 . S
C2130 H2187 0.962 . S
C2130 H2188 0.959 . S
C2130 H2189 0.958 . S
C2131 C2130 1.582 . S
C2131 O2134 1.458 . S
C2131 H2160 0.980 . S
O2132 C2077 1.426 . S
O2132 C2078 1.334 . S
O2133 C2105 1.412 . S
O2133 C2106 1.393 . S
O2134 C2096 1.435 . S
O2134 C2131 1.458 . S
O2135 C2087 1.468 . S
O2135 C2088 1.408 . S
H2136 C2077 0.980 . S
H2137 C2076 0.959 . S
H2138 C2076 0.959 . S
H2139 C2076 0.960 . S
H2140 C2079 0.929 . S
H2141 C2083 0.929 . S
H2142 C2084 0.959 . S
H2143 C2084 0.961 . S
H2144 C2084 0.961 . S
H2145 C2085 0.960 . S
H2146 C2085 0.960 . S
H2147 C2085 0.961 . S
H2148 C2087 0.980 . S
H2149 C2086 0.961 . S
H2150 C2086 0.960 . S
H2151 C2086 0.959 . S
H2152 C2089 0.930 . S
H2153 C2093 0.931 . S
H2154 C2094 0.959 . S
H2155 C2094 0.961 . S
H2156 C2094 0.959 . S
H2157 C2095 0.960 . S
H2158 C2095 0.960 . S
H2159 C2095 0.960 . S
H2160 C2131 0.980 . S
H2161 C2097 0.930 . S
H2162 C2101 0.930 . S
H2163 C2102 0.961 . S
H2164 C2102 0.960 . S
H2165 C2102 0.958 . S
H2166 C2103 0.961 . S
H2167 C2103 0.960 . S
H2168 C2103 0.960 . S
H2169 C2105 0.980 . S
H2170 C2104 0.961 . S
H2171 C2104 0.961 . S
H2172 C2104 0.959 . S
H2173 C2107 0.932 . S
H2174 C2111 0.929 . S
H2175 C2112 0.961 . S
H2176 C2112 0.959 . S
H2177 C2112 0.959 . S
H2178 C2113 0.960 . S
H2179 C2113 0.962 . S
H2180 C2113 0.961 . S
H2181 C2115 0.929 . S
H2182 C2118 0.930 . S
H2183 C2119 0.929 . S
H2184 C2122 0.930 . S
H2185 C2125 0.929 . S
H2186 C2126 0.930 . S
H2187 C2130 0.962 . S
H2188 C2130 0.959 . S
H2189 C2130 0.958 . S
C2190 C2191 1.560 . S
C2190 H2251 0.959 . S
C2190 H2252 0.959 . S
C2190 H2253 0.960 . S
C2191 C2190 1.560 . S
C2191 O2246 1.426 . S
C2191 H2250 0.980 . S
C2192 C2193 1.407 . S
C2192 C2197 1.418 . S
C2192 O2246 1.334 . S
C2193 C2192 1.407 . S
C2193 C2194 1.360 . S
C2193 H2254 0.929 . S
C2194 C2193 1.360 . S
C2194 C2195 1.401 . S
C2194 C2198 1.527 . S
C2195 C2194 1.401 . S
C2195 C2196 1.405 . S
C2195 C2228 1.587 . S
C2196 C2195 1.405 . S
C2196 C2197 1.332 . S
C2196 C2199 1.496 . S
C2197 C2192 1.418 . S
C2197 C2196 1.332 . S
C2197 H2255 0.929 . S
C2198 C2194 1.527 . S
C2198 H2256 0.959 . S
C2198 H2257 0.961 . S
C2198 H2258 0.961 . S
C2199 C2196 1.496 . S
C2199 H2259 0.960 . S
C2199 H2260 0.960 . S
C2199 H2261 0.961 . S
C2200 C2201 1.517 . S
C2200 H2263 0.961 . S
C2200 H2264 0.960 . S
C2200 H2265 0.959 . S
C2201 C2200 1.517 . S
C2201 O2249 1.468 . S
C2201 H2262 0.980 . S
C2202 C2203 1.349 . S
C2202 C2207 1.367 . S
C2202 O2249 1.408 . S
C2203 C2202 1.349 . S
C2203 C2204 1.407 . S
C2203 H2266 0.930 . S
C2204 C2203 1.407 . S
C2204 C2205 1.449 . S
C2204 C2208 1.535 . S
C2205 C2204 1.449 . S
C2205 C2206 1.384 . S
C2205 C2230 1.553 . S
C2206 C2205 1.384 . S
C2206 C2207 1.364 . S
C2206 C2209 1.450 . S
C2207 C2202 1.367 . S
C2207 C2206 1.364 . S
C2207 H2267 0.931 . S
C2208 C2204 1.535 . S
C2208 H2268 0.959 . S
C2208 H2269 0.961 . S
C2208 H2270 0.959 . S
C2209 C2206 1.450 . S
C2209 H2271 0.960 . S
C2209 H2272 0.960 . S
C2209 H2273 0.960 . S
C2210 C2211 1.309 . S
C2210 C2215 1.304 . S
C2210 O2248 1.435 . S
C2211 C2210 1.309 . S
C2211 C2212 1.476 . S
C2211 H2275 0.930 . S
C2212 C2211 1.476 . S
C2212 C2213 1.400 . S
C2212 C2216 1.567 . S
C2213 C2212 1.400 . S
C2213 C2214 1.373 . S
C2213 C2235 1.432 . S
C2214 C2213 1.373 . S
C2214 C2215 1.339 . S
C2214 C2217 1.530 . S
C2215 C2210 1.304 . S
C2215 C2214 1.339 . S
C2215 H2276 0.930 . S
C2216 C2212 1.567 . S
C2216 H2277 0.961 . S
C2216 H2278 0.960 . S
C2216 H2279 0.958 . S
C2217 C2214 1.530 . S
C2217 H2280 0.961 . S
C2217 H2281 0.960 . S
C2217 H2282 0.960 . S
C2218 C2219 1.530 . S
C2218 H2284 0.961 . S
C2218 H2285 0.961 . S
C2218 H2286 0.959 . S
C2219 C2218 1.530 . S
C2219 O2247 1.412 . S
C2219 H2283 0.980 . S
C2220 C2221 1.288 . S
C2220 C2225 1.377 . S
C2220 O2247 1.393 . S
C2221 C2220 1.288 . S
C2221 C2222 1.369 . S
C2221 H2287 0.932 . S
C2222 C2221 1.369 . S
C2222 C2223 1.398 . S
C2222 C2226 1.527 . S
C2223 C2222 1.398 . S
C2223 C2224 1.380 . S
C2223 C2237 1.497 . S
C2224 C2223 1.380 . S
C2224 C2225 1.383 . S
C2224 C2227 1.603 . S
C2225 C2220 1.377 . S
C2225 C2224 1.383 . S
C2225 H2288 0.929 . S
C2226 C2222 1.527 . S
C2226 H2289 0.961 . S
C2226 H2290 0.959 . S
C2226 H2291 0.959 . S
C2227 C2224 1.603 . S
C2227 H2292 0.960 . S
C2227 H2293 0.962 . S
C2227 H2294 0.961 . S
C2228 C2195 1.587 . S
C2228 C2229 1.360 . S
C2228 C2241 1.412 . S
C2229 C2228 1.360 . S
C2229 C2230 1.365 . S
C2229 H2295 0.929 . S
C2230 C2205 1.553 . S
C2230 C2229 1.365 . S
C2230 C2231 1.404 . S
C2231 C2230 1.404 . S
C2231 C2232 1.395 . S
C2231 C2242 1.451 . S
C2232 C2231 1.395 . S
C2232 C2233 1.322 . S
C2232 H2296 0.930 . S
C2233 C2232 1.322 . S
C2233 C2234 1.459 . S
C2233 H2297 0.929 . S
C2234 C2233 1.459 . S
C2234 C2235 1.445 . S
C2234 C2243 1.395 . S
C2235 C2213 1.432 . S
C2235 C2234 1.445 . S
C2235 C2236 1.370 . S
C2236 C2235 1.370 . S
C2236 C2237 1.438 . S
C2236 H2298 0.930 . S
C2237 C2223 1.497 . S
C2237 C2236 1.438 . S
C2237 C2238 1.360 . S
C2238 C2237 1.360 . S
C2238 C2239 1.401 . S
C2238 C2243 1.446 . S
C2239 C2238 1.401 . S
C2239 C2240 1.347 . S
C2239 H2299 0.929 . S
C2240 C2239 1.347 . S
C2240 C2241 1.455 . S
C2240 H2300 0.930 . S
C2241 C2228 1.412 . S
C2241 C2240 1.455 . S
C2241 C2242 1.331 . S
C2242 C2231 1.451 . S
C2242 C2241 1.331 . S
C2242 C2243 1.497 . S
C2243 C2234 1.395 . S
C2243 C2238 1.446 . S
C2243 C2242 1.497 . S
C2244 C2245 1.582 . S
C2244 H2301 0.962 . S
C2244 H2302 0.959 . S
C2244 H2303 0.958 . S
C2245 C2244 1.582 . S
C2245 O2248 1.458 . S
C2245 H2274 0.980 . S
O2246 C2191 1.426 . S
O2246 C2192 1.334 . S
O2247 C2219 1.412 . S
O2247 C2220 1.393 . S
O2248 C2210 1.435 . S
O2248 C2245 1.458 . S
O2249 C2201 1.468 . S
O2249 C2202 1.408 . S
H2250 C2191 0.980 . S
H2251 C2190 0.959 . S
H2252 C2190 0.959 . S
H2253 C2190 0.960 . S
H2254 C2193 0.929 . S
H2255 C2197 0.929 . S
H2256 C2198 0.959 . S
H2257 C2198 0.961 . S
H2258 C2198 0.961 . S
H2259 C2199 0.960 . S
H2260 C2199 0.960 . S
H2261 C2199 0.961 . S
H2262 C2201 0.980 . S
H2263 C2200 0.961 . S
H2264 C2200 0.960 . S
H2265 C2200 0.959 . S
H2266 C2203 0.930 . S
H2267 C2207 0.931 . S
H2268 C2208 0.959 . S
H2269 C2208 0.961 . S
H2270 C2208 0.959 . S
H2271 C2209 0.960 . S
H2272 C2209 0.960 . S
H2273 C2209 0.960 . S
H2274 C2245 0.980 . S
H2275 C2211 0.930 . S
H2276 C2215 0.930 . S
H2277 C2216 0.961 . S
H2278 C2216 0.960 . S
H2279 C2216 0.958 . S
H2280 C2217 0.961 . S
H2281 C2217 0.960 . S
H2282 C2217 0.960 . S
H2283 C2219 0.980 . S
H2284 C2218 0.961 . S
H2285 C2218 0.961 . S
H2286 C2218 0.959 . S
H2287 C2221 0.932 . S
H2288 C2225 0.929 . S
H2289 C2226 0.961 . S
H2290 C2226 0.959 . S
H2291 C2226 0.959 . S
H2292 C2227 0.960 . S
H2293 C2227 0.962 . S
H2294 C2227 0.961 . S
H2295 C2229 0.929 . S
H2296 C2232 0.930 . S
H2297 C2233 0.929 . S
H2298 C2236 0.930 . S
H2299 C2239 0.929 . S
H2300 C2240 0.930 . S
H2301 C2244 0.962 . S
H2302 C2244 0.959 . S
H2303 C2244 0.958 . S
H2304 C2312 0.929 . S
H2305 C2314 0.930 . S
H2306 C2316 0.943 1_455 S
H2307 C2319 0.929 1_455 S
H2308 C2322 0.930 . S
H2309 C2324 0.960 . S
H2310 C2324 0.960 . S
H2311 C2324 0.960 . S
C2312 H2304 0.929 . S
C2312 C2313 1.377 . S
C2312 C2314 1.384 . S
C2313 C2312 1.377 . S
C2313 C2319 1.390 . S
C2314 H2305 0.930 . S
C2314 C2312 1.384 . S
C2314 C2315 1.372 . S
C2315 C2314 1.372 . S
C2315 C2316 1.400 . S
C2315 C2320 1.490 . S
C2316 H2306 0.943 1_655 S
C2316 C2315 1.400 . S
C2316 C2319 1.386 . S
H2317 C2333 0.921 . S
H2318 C2334 0.931 . S
C2319 H2307 0.929 1_655 S
C2319 C2313 1.390 . S
C2319 C2316 1.386 . S
C2320 C2315 1.490 . S
C2320 C2322 1.395 1_655 S
C2320 C2323 1.403 . S
H2321 C2327 0.930 . S
C2322 H2308 0.930 . S
C2322 C2320 1.395 1_455 S
C2322 C2325 1.403 . S
C2323 C2320 1.403 . S
C2323 C2324 1.524 . S
C2323 C2327 1.400 . S
C2324 H2309 0.960 . S
C2324 H2310 0.960 . S
C2324 H2311 0.960 . S
C2324 C2323 1.524 . S
C2325 C2322 1.403 . S
C2325 C2326 1.392 1_455 S
C2325 C2329 1.495 . S
C2326 C2325 1.392 1_655 S
C2326 C2327 1.385 . S
C2326 C2328 1.478 . S
C2327 H2321 0.930 . S
C2327 C2323 1.400 . S
C2327 C2326 1.385 . S
C2328 C2326 1.478 . S
C2328 C2330 1.381 . S
C2328 C2334 1.383 1_655 S
C2329 C2325 1.495 . S
C2329 H2335 0.959 . S
C2329 H2336 0.961 . S
C2329 H2337 0.960 . S
C2330 C2328 1.381 . S
C2330 C2331 1.394 . S
C2330 H2338 0.930 . S
C2331 C2330 1.394 . S
C2331 C2332 1.383 . S
C2331 H2339 0.929 . S
C2332 C2331 1.383 . S
C2332 C2333 1.365 1_655 S
C2333 H2317 0.921 . S
C2333 C2332 1.365 1_455 S
C2333 C2334 1.402 . S
C2334 H2318 0.931 . S
C2334 C2328 1.383 1_455 S
C2334 C2333 1.402 . S
H2335 C2329 0.959 . S
H2336 C2329 0.961 . S
H2337 C2329 0.960 . S
H2338 C2330 0.930 . S
H2339 C2331 0.929 . S
H2340 C2348 0.929 . S
H2341 C2350 0.930 . S
H2342 C2352 0.930 . S
H2343 C2355 0.929 . S
H2344 C2358 0.930 . S
H2345 C2360 0.960 . S
H2346 C2360 0.960 . S
H2347 C2360 0.960 . S
C2348 H2340 0.929 . S
C2348 C2349 1.377 . S
C2348 C2350 1.384 . S
C2349 C2348 1.377 . S
C2349 C2355 1.390 . S
C2350 H2341 0.930 . S
C2350 C2348 1.384 . S
C2350 C2351 1.372 . S
C2351 C2350 1.372 . S
C2351 C2352 1.400 . S
C2351 C2356 1.490 . S
C2352 H2342 0.930 . S
C2352 C2351 1.400 . S
C2352 C2355 1.386 . S
H2353 C2369 0.930 . S
H2354 C2370 0.931 . S
C2355 H2343 0.929 . S
C2355 C2349 1.390 . S
C2355 C2352 1.386 . S
C2356 C2351 1.490 . S
C2356 C2358 1.395 . S
C2356 C2359 1.403 . S
H2357 C2363 0.930 . S
C2358 H2344 0.930 . S
C2358 C2356 1.395 . S
C2358 C2361 1.403 . S
C2359 C2356 1.403 . S
C2359 C2360 1.524 . S
C2359 C2363 1.400 . S
C2360 H2345 0.960 . S
C2360 H2346 0.960 . S
C2360 H2347 0.960 . S
C2360 C2359 1.524 . S
C2361 C2358 1.403 . S
C2361 C2362 1.392 . S
C2361 C2365 1.495 . S
C2362 C2361 1.392 . S
C2362 C2363 1.385 . S
C2362 C2364 1.478 . S
C2363 H2357 0.930 . S
C2363 C2359 1.400 . S
C2363 C2362 1.385 . S
C2364 C2362 1.478 . S
C2364 C2366 1.381 . S
C2364 C2370 1.383 . S
C2365 C2361 1.495 . S
C2365 H2371 0.959 . S
C2365 H2372 0.961 . S
C2365 H2373 0.960 . S
C2366 C2364 1.381 . S
C2366 C2367 1.394 . S
C2366 H2374 0.930 . S
C2367 C2366 1.394 . S
C2367 C2368 1.383 . S
C2367 H2375 0.929 . S
C2368 C2367 1.383 . S
C2368 C2369 1.377 . S
C2369 H2353 0.930 . S
C2369 C2368 1.377 . S
C2369 C2370 1.379 . S
C2370 H2354 0.931 . S
C2370 C2364 1.383 . S
C2370 C2369 1.379 . S
H2371 C2365 0.959 . S
H2372 C2365 0.961 . S
H2373 C2365 0.960 . S
H2374 C2366 0.930 . S
H2375 C2367 0.929 . S
H2376 C2384 0.929 1_565 S
H2377 C2386 0.930 1_565 S
H2378 C2388 0.930 . S
H2379 C2391 0.929 . S
H2380 C2394 0.930 . S
H2381 C2396 0.960 . S
H2382 C2396 0.960 . S
H2383 C2396 0.960 . S
C2384 H2376 0.929 1_545 S
C2384 C2385 1.377 . S
C2384 C2386 1.384 . S
C2385 C2384 1.377 . S
C2385 C2391 1.390 . S
C2386 H2377 0.930 1_545 S
C2386 C2384 1.384 . S
C2386 C2387 1.372 . S
C2387 C2386 1.372 . S
C2387 C2388 1.400 . S
C2387 C2392 1.490 . S
C2388 H2378 0.930 . S
C2388 C2387 1.400 . S
C2388 C2391 1.386 . S
H2389 C2405 0.930 . S
H2390 C2406 0.931 . S
C2391 H2379 0.929 . S
C2391 C2385 1.390 . S
C2391 C2388 1.386 . S
C2392 C2387 1.490 . S
C2392 C2394 1.395 . S
C2392 C2395 1.403 . S
H2393 C2399 0.930 . S
C2394 H2380 0.930 . S
C2394 C2392 1.395 . S
C2394 C2397 1.403 . S
C2395 C2392 1.403 . S
C2395 C2396 1.524 . S
C2395 C2399 1.400 . S
C2396 H2381 0.960 . S
C2396 H2382 0.960 . S
C2396 H2383 0.960 . S
C2396 C2395 1.524 . S
C2397 C2394 1.403 . S
C2397 C2398 1.392 . S
C2397 C2401 1.495 . S
C2398 C2397 1.392 . S
C2398 C2399 1.385 . S
C2398 C2400 1.478 . S
C2399 H2393 0.930 . S
C2399 C2395 1.400 . S
C2399 C2398 1.385 . S
C2400 C2398 1.478 . S
C2400 C2402 1.381 1_545 S
C2400 C2406 1.383 . S
C2401 C2397 1.495 . S
C2401 H2407 0.959 . S
C2401 H2408 0.961 . S
C2401 H2409 0.960 1_545 S
C2402 C2400 1.381 1_565 S
C2402 C2403 1.394 . S
C2402 H2410 0.930 . S
C2403 C2402 1.394 . S
C2403 C2404 1.383 1_565 S
C2403 H2411 0.929 . S
C2404 C2403 1.383 1_545 S
C2404 C2405 1.377 . S
C2405 H2389 0.930 . S
C2405 C2404 1.377 . S
C2405 C2406 1.379 . S
C2406 H2390 0.931 . S
C2406 C2400 1.383 . S
C2406 C2405 1.379 . S
H2407 C2401 0.959 . S
H2408 C2401 0.961 . S
H2409 C2401 0.960 1_565 S
H2410 C2402 0.930 . S
H2411 C2403 0.929 . S
H2412 C2420 0.929 . S
H2413 C2422 0.930 . S
H2414 C2424 0.930 . S
H2415 C2427 0.929 . S
H2416 C2430 0.930 . S
H2417 C2432 0.960 . S
H2418 C2432 0.960 . S
H2419 C2432 0.960 . S
C2420 H2412 0.929 . S
C2420 C2421 1.377 1_545 S
C2420 C2422 1.384 . S
C2421 C2420 1.377 1_565 S
C2421 C2427 1.390 . S
C2422 H2413 0.930 . S
C2422 C2420 1.384 . S
C2422 C2423 1.372 1_545 S
C2423 C2422 1.372 1_565 S
C2423 C2424 1.400 . S
C2423 C2428 1.490 . S
C2424 H2414 0.930 . S
C2424 C2423 1.400 . S
C2424 C2427 1.386 . S
H2425 C2441 0.930 . S
H2426 C2442 0.931 . S
C2427 H2415 0.929 . S
C2427 C2421 1.390 . S
C2427 C2424 1.386 . S
C2428 C2423 1.490 . S
C2428 C2430 1.395 1_565 S
C2428 C2431 1.403 . S
H2429 C2435 0.930 . S
C2430 H2416 0.930 . S
C2430 C2428 1.395 1_545 S
C2430 C2433 1.403 . S
C2431 C2428 1.403 . S
C2431 C2432 1.524 . S
C2431 C2435 1.400 . S
C2432 H2417 0.960 . S
C2432 H2418 0.960 . S
C2432 H2419 0.960 . S
C2432 C2431 1.524 . S
C2433 C2430 1.403 . S
C2433 C2434 1.394 1_545 S
C2433 C2437 1.495 . S
C2434 C2433 1.394 1_565 S
C2434 C2435 1.384 . S
C2434 C2436 1.459 . S
C2435 H2429 0.930 . S
C2435 C2431 1.400 . S
C2435 C2434 1.384 . S
C2436 C2434 1.459 . S
C2436 C2438 1.363 1_565 S
C2436 C2442 1.422 . S
C2437 C2433 1.495 . S
C2437 H2443 0.959 . S
C2437 H2444 0.961 . S
C2437 H2445 0.960 . S
C2438 C2436 1.363 1_545 S
C2438 C2439 1.394 . S
C2438 H2446 0.930 . S
C2439 C2438 1.394 . S
C2439 C2440 1.383 1_545 S
C2439 H2447 0.929 . S
C2440 C2439 1.383 1_565 S
C2440 C2441 1.377 . S
C2441 H2425 0.930 . S
C2441 C2440 1.377 . S
C2441 C2442 1.379 . S
C2442 H2426 0.931 . S
C2442 C2436 1.422 . S
C2442 C2441 1.379 . S
H2443 C2437 0.959 . S
H2444 C2437 0.961 . S
H2445 C2437 0.960 . S
H2446 C2438 0.930 . S
H2447 C2439 0.929 . S
H2448 C2456 0.929 . S
H2449 C2458 0.930 . S
H2450 C2460 0.930 1_655 S
H2451 C2463 0.929 1_655 S
H2452 C2466 0.930 . S
H2453 C2468 0.960 . S
H2454 C2468 0.960 . S
H2455 C2468 0.960 . S
C2456 H2448 0.929 . S
C2456 C2457 1.377 . S
C2456 C2458 1.384 . S
C2457 C2456 1.377 . S
C2457 C2463 1.390 . S
C2458 H2449 0.930 . S
C2458 C2456 1.384 . S
C2458 C2459 1.372 . S
C2459 C2458 1.372 . S
C2459 C2460 1.400 . S
C2459 C2464 1.490 . S
C2460 H2450 0.930 1_455 S
C2460 C2459 1.400 . S
C2460 C2463 1.386 . S
H2461 C2477 0.930 . S
H2462 C2478 0.931 . S
C2463 H2451 0.929 1_455 S
C2463 C2457 1.390 . S
C2463 C2460 1.386 . S
C2464 C2459 1.490 . S
C2464 C2466 1.395 . S
C2464 C2467 1.403 . S
H2465 C2471 0.930 . S
C2466 H2452 0.930 . S
C2466 C2464 1.395 . S
C2466 C2469 1.403 . S
C2467 C2464 1.403 . S
C2467 C2468 1.524 . S
C2467 C2471 1.400 . S
C2468 H2453 0.960 . S
C2468 H2454 0.960 . S
C2468 H2455 0.960 . S
C2468 C2467 1.524 . S
C2469 C2466 1.403 . S
C2469 C2470 1.392 . S
C2469 C2473 1.495 . S
C2470 C2469 1.392 . S
C2470 C2471 1.385 . S
C2470 C2472 1.478 . S
C2471 H2465 0.930 . S
C2471 C2467 1.400 . S
C2471 C2470 1.385 . S
C2472 C2470 1.478 . S
C2472 C2474 1.381 . S
C2472 C2478 1.383 1_455 S
C2473 C2469 1.495 . S
C2473 H2479 0.959 . S
C2473 H2480 1.039 . S
C2473 H2481 0.960 . S
C2474 C2472 1.381 . S
C2474 C2475 1.394 . S
C2474 H2482 0.930 . S
C2475 C2474 1.394 . S
C2475 C2476 1.383 . S
C2475 H2483 0.929 . S
C2476 C2475 1.383 . S
C2476 C2477 1.377 1_455 S
C2477 H2461 0.930 . S
C2477 C2476 1.377 1_655 S
C2477 C2478 1.379 . S
C2478 H2462 0.931 . S
C2478 C2472 1.383 1_655 S
C2478 C2477 1.379 . S
H2479 C2473 0.959 . S
H2480 C2473 1.039 . S
H2481 C2473 0.960 . S
H2482 C2474 0.930 . S
H2483 C2475 0.929 . S
H2484 C2492 0.929 1_554 S
H2485 C2494 0.930 . S
H2486 C2496 0.930 . S
H2487 C2499 0.929 . S
H2488 C2502 0.930 . S
H2489 C2504 0.960 . S
H2490 C2504 0.960 . S
H2491 C2504 0.960 . S
C2492 H2484 0.929 1_556 S
C2492 C2493 1.377 . S
C2492 C2494 1.384 . S
C2493 C2492 1.377 . S
C2493 C2499 1.390 . S
C2494 H2485 0.930 . S
C2494 C2492 1.384 . S
C2494 C2495 1.372 . S
C2495 C2494 1.372 . S
C2495 C2496 1.400 . S
C2495 C2500 1.490 . S
C2496 H2486 0.930 . S
C2496 C2495 1.400 . S
C2496 C2499 1.386 . S
H2497 C2513 0.930 . S
H2498 C2514 0.931 . S
C2499 H2487 0.929 . S
C2499 C2493 1.390 . S
C2499 C2496 1.386 . S
C2500 C2495 1.490 . S
C2500 C2502 1.395 . S
C2500 C2503 1.403 . S
H2501 C2507 0.930 . S
C2502 H2488 0.930 . S
C2502 C2500 1.395 . S
C2502 C2505 1.403 . S
C2503 C2500 1.403 . S
C2503 C2504 1.524 . S
C2503 C2507 1.400 . S
C2504 H2489 0.960 . S
C2504 H2490 0.960 . S
C2504 H2491 0.960 . S
C2504 C2503 1.524 . S
C2505 C2502 1.403 . S
C2505 C2506 1.392 . S
C2505 C2509 1.495 . S
C2506 C2505 1.392 . S
C2506 C2507 1.385 . S
C2506 C2508 1.478 . S
C2507 H2501 0.930 . S
C2507 C2503 1.400 . S
C2507 C2506 1.385 . S
C2508 C2506 1.478 . S
C2508 C2510 1.381 . S
C2508 C2514 1.383 . S
C2509 C2505 1.495 . S
C2509 H2515 0.959 . S
C2509 H2516 0.961 . S
C2509 H2517 0.960 . S
C2510 C2508 1.381 . S
C2510 C2511 1.394 . S
C2510 H2518 0.930 . S
C2511 C2510 1.394 . S
C2511 C2512 1.383 . S
C2511 H2519 0.929 . S
C2512 C2511 1.383 . S
C2512 C2513 1.377 . S
C2513 H2497 0.930 . S
C2513 C2512 1.377 . S
C2513 C2514 1.379 . S
C2514 H2498 0.931 . S
C2514 C2508 1.383 . S
C2514 C2513 1.379 . S
H2515 C2509 0.959 . S
H2516 C2509 0.961 . S
H2517 C2509 0.960 . S
H2518 C2510 0.930 . S
H2519 C2511 0.929 . S
H2520 C2528 0.929 . S
H2521 C2530 0.930 . S
H2522 C2532 0.930 . S
H2523 C2535 0.929 . S
H2524 C2538 0.930 . S
H2525 C2540 0.960 . S
H2526 C2540 0.960 . S
H2527 C2540 0.960 . S
C2528 H2520 0.929 . S
C2528 C2529 1.377 . S
C2528 C2530 1.384 . S
C2529 C2528 1.377 . S
C2529 C2535 1.390 . S
C2530 H2521 0.930 . S
C2530 C2528 1.384 . S
C2530 C2531 1.372 . S
C2531 C2530 1.372 . S
C2531 C2532 1.400 . S
C2531 C2536 1.490 . S
C2532 H2522 0.930 . S
C2532 C2531 1.400 . S
C2532 C2535 1.386 . S
H2533 C2549 0.930 . S
H2534 C2550 0.931 . S
C2535 H2523 0.929 . S
C2535 C2529 1.390 . S
C2535 C2532 1.386 . S
C2536 C2531 1.490 . S
C2536 C2538 1.395 . S
C2536 C2539 1.403 1_455 S
H2537 C2543 0.930 . S
C2538 H2524 0.930 . S
C2538 C2536 1.395 . S
C2538 C2541 1.403 . S
C2539 C2536 1.403 1_655 S
C2539 C2540 1.524 . S
C2539 C2543 1.400 . S
C2540 H2525 0.960 . S
C2540 H2526 0.960 . S
C2540 H2527 0.960 . S
C2540 C2539 1.524 . S
C2541 C2538 1.403 . S
C2541 C2542 1.392 . S
C2541 C2545 1.495 . S
C2542 C2541 1.392 . S
C2542 C2543 1.385 1_455 S
C2542 C2544 1.478 . S
C2543 H2537 0.930 . S
C2543 C2539 1.400 . S
C2543 C2542 1.385 1_655 S
C2544 C2542 1.478 . S
C2544 C2546 1.398 . S
C2544 C2550 1.383 . S
C2545 C2541 1.495 . S
C2545 H2551 0.959 . S
C2545 H2552 0.961 . S
C2545 H2553 0.960 . S
C2546 C2544 1.398 . S
C2546 C2547 1.410 1_455 S
C2546 H2554 0.899 1_455 S
C2547 C2546 1.410 1_655 S
C2547 C2548 1.383 1_655 S
C2547 H2555 0.929 . S
C2548 C2547 1.383 1_455 S
C2548 C2549 1.377 . S
C2549 H2533 0.930 . S
C2549 C2548 1.377 . S
C2549 C2550 1.379 . S
C2550 H2534 0.931 . S
C2550 C2544 1.383 . S
C2550 C2549 1.379 . S
H2551 C2545 0.959 . S
H2552 C2545 0.961 . S
H2553 C2545 0.960 . S
H2554 C2546 0.899 1_655 S
H2555 C2547 0.929 . S
H2556 C2564 0.929 . S
H2557 C2566 0.930 . S
H2558 C2568 0.930 . S
H2559 C2571 0.929 . S
H2560 C2574 0.930 . S
H2561 C2576 0.960 . S
H2562 C2576 0.960 . S
H2563 C2576 0.960 . S
C2564 H2556 0.929 . S
C2564 C2565 1.377 . S
C2564 C2566 1.384 . S
C2565 C2564 1.377 . S
C2565 C2571 1.390 . S
C2566 H2557 0.930 . S
C2566 C2564 1.384 . S
C2566 C2567 1.372 . S
C2567 C2566 1.372 . S
C2567 C2568 1.400 . S
C2567 C2572 1.490 . S
C2568 H2558 0.930 . S
C2568 C2567 1.400 . S
C2568 C2571 1.386 . S
H2569 C2585 0.930 . S
H2570 C2586 0.931 . S
C2571 H2559 0.929 . S
C2571 C2565 1.390 . S
C2571 C2568 1.386 . S
C2572 C2567 1.490 . S
C2572 C2574 1.395 . S
C2572 C2575 1.403 . S
H2573 C2579 0.930 . S
C2574 H2560 0.930 . S
C2574 C2572 1.395 . S
C2574 C2577 1.403 . S
C2575 C2572 1.403 . S
C2575 C2576 1.524 . S
C2575 C2579 1.400 . S
C2576 H2561 0.960 . S
C2576 H2562 0.960 . S
C2576 H2563 0.960 . S
C2576 C2575 1.524 . S
C2577 C2574 1.403 . S
C2577 C2578 1.392 . S
C2577 C2581 1.495 . S
C2578 C2577 1.392 . S
C2578 C2579 1.385 . S
C2578 C2580 1.478 . S
C2579 H2573 0.930 . S
C2579 C2575 1.400 . S
C2579 C2578 1.385 . S
C2580 C2578 1.478 . S
C2580 C2582 1.381 . S
C2580 C2586 1.383 . S
C2581 C2577 1.495 . S
C2581 H2587 0.959 . S
C2581 H2588 0.961 . S
C2581 H2589 0.960 . S
C2582 C2580 1.381 . S
C2582 C2583 1.394 . S
C2582 H2590 0.930 . S
C2583 C2582 1.394 . S
C2583 C2584 1.383 . S
C2583 H2591 0.929 . S
C2584 C2583 1.383 . S
C2584 C2585 1.377 . S
C2585 H2569 0.930 . S
C2585 C2584 1.377 . S
C2585 C2586 1.379 . S
C2586 H2570 0.931 . S
C2586 C2580 1.383 . S
C2586 C2585 1.379 . S
H2587 C2581 0.959 . S
H2588 C2581 0.961 . S
H2589 C2581 0.960 . S
H2590 C2582 0.930 . S
H2591 C2583 0.929 . S
H2592 C2600 0.929 . S
H2593 C2602 0.930 . S
H2594 C2604 0.930 . S
H2595 C2607 0.929 . S
H2596 C2610 0.930 . S
H2597 C2612 0.960 . S
H2598 C2612 0.960 . S
H2599 C2612 0.960 . S
C2600 H2592 0.929 . S
C2600 C2601 1.377 1_545 S
C2600 C2602 1.384 . S
C2601 C2600 1.377 1_565 S
C2601 C2607 1.390 . S
C2602 H2593 0.930 . S
C2602 C2600 1.384 . S
C2602 C2603 1.372 1_545 S
C2603 C2602 1.372 1_565 S
C2603 C2604 1.400 . S
C2603 C2608 1.490 . S
C2604 H2594 0.930 . S
C2604 C2603 1.400 . S
C2604 C2607 1.386 . S
H2605 C2621 0.930 . S
H2606 C2622 0.931 . S
C2607 H2595 0.929 . S
C2607 C2601 1.390 . S
C2607 C2604 1.386 . S
C2608 C2603 1.490 . S
C2608 C2610 1.395 1_565 S
C2608 C2611 1.403 . S
H2609 C2615 0.930 . S
C2610 H2596 0.930 . S
C2610 C2608 1.395 1_545 S
C2610 C2613 1.403 . S
C2611 C2608 1.403 . S
C2611 C2612 1.524 . S
C2611 C2615 1.400 . S
C2612 H2597 0.960 . S
C2612 H2598 0.960 . S
C2612 H2599 0.960 . S
C2612 C2611 1.524 . S
C2613 C2610 1.403 . S
C2613 C2614 1.392 1_545 S
C2613 C2617 1.495 . S
C2614 C2613 1.392 1_565 S
C2614 C2615 1.385 . S
C2614 C2616 1.521 . S
C2615 H2609 0.930 . S
C2615 C2611 1.400 . S
C2615 C2614 1.385 . S
C2616 C2614 1.521 . S
C2616 C2618 1.287 1_565 S
C2616 C2622 1.440 . S
C2617 C2613 1.495 . S
C2617 H2623 0.959 . S
C2617 H2624 0.961 . S
C2617 H2625 0.960 . S
C2618 C2616 1.287 1_545 S
C2618 C2619 1.394 . S
C2618 H2626 0.930 . S
C2619 C2618 1.394 . S
C2619 C2620 1.383 1_545 S
C2619 H2627 0.929 . S
C2620 C2619 1.383 1_565 S
C2620 C2621 1.377 . S
C2621 H2605 0.930 . S
C2621 C2620 1.377 . S
C2621 C2622 1.379 . S
C2622 H2606 0.931 . S
C2622 C2616 1.440 . S
C2622 C2621 1.379 . S
H2623 C2617 0.959 . S
H2624 C2617 0.961 . S
H2625 C2617 0.960 . S
H2626 C2618 0.930 . S
H2627 C2619 0.929 . S
H2628 C2636 0.889 1_565 S
H2629 C2638 0.977 . S
H2630 C2640 0.930 . S
H2631 C2643 0.929 . S
H2632 C2646 0.930 . S
H2633 C2648 0.960 . S
H2634 C2648 0.960 . S
H2635 C2648 0.960 1_545 S
C2636 H2628 0.889 1_545 S
C2636 C2637 1.404 . S
C2636 C2638 1.424 1_545 S
C2637 C2636 1.404 . S
C2637 C2643 1.390 . S
C2638 H2629 0.977 . S
C2638 C2636 1.424 1_565 S
C2638 C2639 1.305 1_565 S
C2639 C2638 1.305 1_545 S
C2639 C2640 1.400 . S
C2639 C2644 1.490 . S
C2640 H2630 0.930 . S
C2640 C2639 1.400 . S
C2640 C2643 1.386 . S
H2641 C2657 0.930 . S
H2642 C2658 0.931 . S
C2643 H2631 0.929 . S
C2643 C2637 1.390 . S
C2643 C2640 1.386 . S
C2644 C2639 1.490 . S
C2644 C2646 1.395 . S
C2644 C2647 1.403 . S
H2645 C2651 0.930 1_565 S
C2646 H2632 0.930 . S
C2646 C2644 1.395 . S
C2646 C2649 1.403 . S
C2647 C2644 1.403 . S
C2647 C2648 1.524 1_545 S
C2647 C2651 1.400 . S
C2648 H2633 0.960 . S
C2648 H2634 0.960 . S
C2648 H2635 0.960 1_565 S
C2648 C2647 1.524 1_565 S
C2649 C2646 1.403 . S
C2649 C2650 1.392 . S
C2649 C2653 1.495 . S
C2650 C2649 1.392 . S
C2650 C2651 1.385 . S
C2650 C2652 1.478 . S
C2651 H2645 0.930 1_545 S
C2651 C2647 1.400 . S
C2651 C2650 1.385 . S
C2652 C2650 1.478 . S
C2652 C2654 1.381 1_545 S
C2652 C2658 1.383 . S
C2653 C2649 1.495 . S
C2653 H2659 0.959 . S
C2653 H2660 0.961 . S
C2653 H2661 0.960 . S
C2654 C2652 1.381 1_565 S
C2654 C2655 1.394 . S
C2654 H2662 0.930 . S
C2655 C2654 1.394 . S
C2655 C2656 1.301 1_565 S
C2655 H2663 0.929 . S
C2656 C2655 1.301 1_545 S
C2656 C2657 1.432 . S
C2657 H2641 0.930 . S
C2657 C2656 1.432 . S
C2657 C2658 1.379 . S
C2658 H2642 0.931 . S
C2658 C2652 1.383 . S
C2658 C2657 1.379 . S
H2659 C2653 0.959 . S
H2660 C2653 0.961 . S
H2661 C2653 0.960 . S
H2662 C2654 0.930 . S
H2663 C2655 0.929 . S
H2664 C2672 0.929 . S
H2665 C2674 0.930 . S
H2666 C2676 0.930 . S
H2667 C2679 0.929 . S
H2668 C2682 0.930 . S
H2669 C2684 0.960 . S
H2670 C2684 0.960 . S
H2671 C2684 0.960 . S
C2672 H2664 0.929 . S
C2672 C2673 1.377 . S
C2672 C2674 1.384 . S
C2673 C2672 1.377 . S
C2673 C2679 1.390 1_655 S
C2674 H2665 0.930 . S
C2674 C2672 1.384 . S
C2674 C2675 1.372 . S
C2675 C2674 1.372 . S
C2675 C2676 1.400 1_655 S
C2675 C2680 1.490 . S
C2676 H2666 0.930 . S
C2676 C2675 1.400 1_455 S
C2676 C2679 1.386 . S
H2677 C2693 0.930 . S
H2678 C2694 0.931 . S
C2679 H2667 0.929 . S
C2679 C2673 1.390 1_455 S
C2679 C2676 1.386 . S
C2680 C2675 1.490 . S
C2680 C2682 1.395 . S
C2680 C2683 1.403 1_655 S
H2681 C2687 0.930 . S
C2682 H2668 0.930 . S
C2682 C2680 1.395 . S
C2682 C2685 1.403 . S
C2683 C2680 1.403 1_455 S
C2683 C2684 1.524 . S
C2683 C2687 1.400 . S
C2684 H2669 0.960 . S
C2684 H2670 0.960 . S
C2684 H2671 0.960 . S
C2684 C2683 1.524 . S
C2685 C2682 1.403 . S
C2685 C2686 1.392 . S
C2685 C2689 1.495 . S
C2686 C2685 1.392 . S
C2686 C2687 1.385 1_655 S
C2686 C2688 1.478 . S
C2687 H2681 0.930 . S
C2687 C2683 1.400 . S
C2687 C2686 1.385 1_455 S
C2688 C2686 1.478 . S
C2688 C2690 1.381 . S
C2688 C2694 1.383 1_655 S
C2689 C2685 1.495 . S
C2689 H2695 0.959 . S
C2689 H2696 0.961 . S
C2689 H2697 0.960 . S
C2690 C2688 1.381 . S
C2690 C2691 1.394 . S
C2690 H2698 0.930 . S
C2691 C2690 1.394 . S
C2691 C2692 1.383 . S
C2691 H2699 0.929 . S
C2692 C2691 1.383 . S
C2692 C2693 1.377 1_655 S
C2693 H2677 0.930 . S
C2693 C2692 1.377 1_455 S
C2693 C2694 1.379 . S
C2694 H2678 0.931 . S
C2694 C2688 1.383 1_455 S
C2694 C2693 1.379 . S
H2695 C2689 0.959 . S
H2696 C2689 0.961 . S
H2697 C2689 0.960 . S
H2698 C2690 0.930 . S
H2699 C2691 0.929 . S
H2700 C2708 0.929 . S
H2701 C2710 0.930 . S
H2702 C2712 0.930 . S
H2703 C2715 0.929 . S
H2704 C2718 0.930 . S
H2705 C2720 0.960 . S
H2706 C2720 0.960 . S
H2707 C2720 0.960 . S
C2708 H2700 0.929 . S
C2708 C2709 1.377 . S
C2708 C2710 1.384 . S
C2709 C2708 1.377 . S
C2709 C2715 1.390 . S
C2710 H2701 0.930 . S
C2710 C2708 1.384 . S
C2710 C2711 1.372 . S
C2711 C2710 1.372 . S
C2711 C2712 1.400 . S
C2711 C2716 1.490 . S
C2712 H2702 0.930 . S
C2712 C2711 1.400 . S
C2712 C2715 1.386 . S
H2713 C2729 0.930 . S
H2714 C2730 0.931 . S
C2715 H2703 0.929 . S
C2715 C2709 1.390 . S
C2715 C2712 1.386 . S
C2716 C2711 1.490 . S
C2716 C2718 1.395 . S
C2716 C2719 1.403 . S
H2717 C2723 0.930 . S
C2718 H2704 0.930 . S
C2718 C2716 1.395 . S
C2718 C2721 1.403 . S
C2719 C2716 1.403 . S
C2719 C2720 1.524 . S
C2719 C2723 1.400 . S
C2720 H2705 0.960 . S
C2720 H2706 0.960 . S
C2720 H2707 0.960 . S
C2720 C2719 1.524 . S
C2721 C2718 1.403 . S
C2721 C2722 1.392 . S
C2721 C2725 1.495 . S
C2722 C2721 1.392 . S
C2722 C2723 1.385 . S
C2722 C2724 1.478 . S
C2723 H2717 0.930 . S
C2723 C2719 1.400 . S
C2723 C2722 1.385 . S
C2724 C2722 1.478 . S
C2724 C2726 1.381 . S
C2724 C2730 1.383 . S
C2725 C2721 1.495 . S
C2725 H2731 0.959 . S
C2725 H2732 0.961 . S
C2725 H2733 0.960 . S
C2726 C2724 1.381 . S
C2726 C2727 1.394 . S
C2726 H2734 0.930 . S
C2727 C2726 1.394 . S
C2727 C2728 1.383 . S
C2727 H2735 0.929 . S
C2728 C2727 1.383 . S
C2728 C2729 1.377 . S
C2729 H2713 0.930 . S
C2729 C2728 1.377 . S
C2729 C2730 1.379 . S
C2730 H2714 0.931 . S
C2730 C2724 1.383 . S
C2730 C2729 1.379 . S
H2731 C2725 0.959 . S
H2732 C2725 0.961 . S
H2733 C2725 0.960 . S
H2734 C2726 0.930 . S
H2735 C2727 0.929 . S
H2736 C2744 0.929 . S
H2737 C2746 0.930 . S
H2738 C2748 0.930 . S
H2739 C2751 0.929 . S
H2740 C2754 0.930 . S
H2741 C2756 0.960 . S
H2742 C2756 0.960 . S
H2743 C2756 0.960 . S
C2744 H2736 0.929 . S
C2744 C2745 1.377 . S
C2744 C2746 1.384 . S
C2745 C2744 1.377 . S
C2745 C2751 1.390 . S
C2746 H2737 0.930 . S
C2746 C2744 1.384 . S
C2746 C2747 1.372 . S
C2747 C2746 1.372 . S
C2747 C2748 1.400 . S
C2747 C2752 1.490 . S
C2748 H2738 0.930 . S
C2748 C2747 1.400 . S
C2748 C2751 1.386 . S
H2749 C2765 0.930 . S
H2750 C2766 0.931 . S
C2751 H2739 0.929 . S
C2751 C2745 1.390 . S
C2751 C2748 1.386 . S
C2752 C2747 1.490 . S
C2752 C2754 1.395 . S
C2752 C2755 1.403 . S
H2753 C2759 0.930 . S
C2754 H2740 0.930 . S
C2754 C2752 1.395 . S
C2754 C2757 1.403 . S
C2755 C2752 1.403 . S
C2755 C2756 1.524 . S
C2755 C2759 1.400 . S
C2756 H2741 0.960 . S
C2756 H2742 0.960 . S
C2756 H2743 0.960 . S
C2756 C2755 1.524 . S
C2757 C2754 1.403 . S
C2757 C2758 1.392 . S
C2757 C2761 1.495 . S
C2758 C2757 1.392 . S
C2758 C2759 1.385 . S
C2758 C2760 1.478 . S
C2759 H2753 0.930 . S
C2759 C2755 1.400 . S
C2759 C2758 1.385 . S
C2760 C2758 1.478 . S
C2760 C2762 1.381 . S
C2760 C2766 1.383 . S
C2761 C2757 1.495 . S
C2761 H2767 0.959 . S
C2761 H2768 0.961 . S
C2761 H2769 0.960 . S
C2762 C2760 1.381 . S
C2762 C2763 1.394 . S
C2762 H2770 0.930 . S
C2763 C2762 1.394 . S
C2763 C2764 1.383 . S
C2763 H2771 0.929 . S
C2764 C2763 1.383 . S
C2764 C2765 1.377 . S
C2765 H2749 0.930 . S
C2765 C2764 1.377 . S
C2765 C2766 1.379 . S
C2766 H2750 0.931 . S
C2766 C2760 1.383 . S
C2766 C2765 1.379 . S
H2767 C2761 0.959 . S
H2768 C2761 0.961 . S
H2769 C2761 0.960 . S
H2770 C2762 0.930 . S
H2771 C2763 0.929 . S
H2772 C2780 0.929 . S
H2773 C2782 0.930 . S
H2774 C2784 0.930 . S
H2775 C2787 0.929 . S
H2776 C2790 0.930 . S
H2777 C2792 0.960 . S
H2778 C2792 0.960 . S
H2779 C2792 0.960 . S
C2780 H2772 0.929 . S
C2780 C2781 1.377 . S
C2780 C2782 1.384 . S
C2781 C2780 1.377 . S
C2781 C2787 1.390 . S
C2782 H2773 0.930 . S
C2782 C2780 1.384 . S
C2782 C2783 1.372 . S
C2783 C2782 1.372 . S
C2783 C2784 1.400 . S
C2783 C2788 1.490 . S
C2784 H2774 0.930 . S
C2784 C2783 1.400 . S
C2784 C2787 1.386 . S
H2785 C2801 0.930 . S
H2786 C2802 0.931 . S
C2787 H2775 0.929 . S
C2787 C2781 1.390 . S
C2787 C2784 1.386 . S
C2788 C2783 1.490 . S
C2788 C2790 1.395 . S
C2788 C2791 1.403 . S
H2789 C2795 0.930 . S
C2790 H2776 0.930 . S
C2790 C2788 1.395 . S
C2790 C2793 1.403 . S
C2791 C2788 1.403 . S
C2791 C2792 1.524 . S
C2791 C2795 1.400 . S
C2792 H2777 0.960 . S
C2792 H2778 0.960 . S
C2792 H2779 0.960 . S
C2792 C2791 1.524 . S
C2793 C2790 1.403 . S
C2793 C2794 1.392 . S
C2793 C2797 1.495 . S
C2794 C2793 1.392 . S
C2794 C2795 1.385 . S
C2794 C2796 1.478 . S
C2795 H2789 0.930 . S
C2795 C2791 1.400 . S
C2795 C2794 1.385 . S
C2796 C2794 1.478 . S
C2796 C2798 1.381 . S
C2796 C2802 1.383 . S
C2797 C2793 1.495 . S
C2797 H2803 0.959 . S
C2797 H2804 0.961 . S
C2797 H2805 0.960 . S
C2798 C2796 1.381 . S
C2798 C2799 1.394 . S
C2798 H2806 0.930 . S
C2799 C2798 1.394 . S
C2799 C2800 1.383 . S
C2799 H2807 0.929 . S
C2800 C2799 1.383 . S
C2800 C2801 1.377 . S
C2801 H2785 0.930 . S
C2801 C2800 1.377 . S
C2801 C2802 1.379 . S
C2802 H2786 0.931 . S
C2802 C2796 1.383 . S
C2802 C2801 1.379 . S
H2803 C2797 0.959 . S
H2804 C2797 0.961 . S
H2805 C2797 0.960 . S
H2806 C2798 0.930 . S
H2807 C2799 0.929 . S
H2808 C2816 0.929 . S
H2809 C2818 0.930 . S
H2810 C2820 0.930 . S
H2811 C2823 0.929 . S
H2812 C2826 0.930 . S
H2813 C2828 0.960 . S
H2814 C2828 0.960 . S
H2815 C2828 0.960 . S
C2816 H2808 0.929 . S
C2816 C2817 1.377 . S
C2816 C2818 1.384 . S
C2817 C2816 1.377 . S
C2817 C2823 1.390 . S
C2818 H2809 0.930 . S
C2818 C2816 1.384 . S
C2818 C2819 1.372 . S
C2819 C2818 1.372 . S
C2819 C2820 1.400 . S
C2819 C2824 1.490 . S
C2820 H2810 0.930 . S
C2820 C2819 1.400 . S
C2820 C2823 1.386 . S
H2821 C2837 0.930 . S
H2822 C2838 0.931 . S
C2823 H2811 0.929 . S
C2823 C2817 1.390 . S
C2823 C2820 1.386 . S
C2824 C2819 1.490 . S
C2824 C2826 1.395 . S
C2824 C2827 1.403 . S
H2825 C2831 0.930 . S
C2826 H2812 0.930 . S
C2826 C2824 1.395 . S
C2826 C2829 1.403 . S
C2827 C2824 1.403 . S
C2827 C2828 1.524 . S
C2827 C2831 1.400 . S
C2828 H2813 0.960 . S
C2828 H2814 0.960 . S
C2828 H2815 0.960 . S
C2828 C2827 1.524 . S
C2829 C2826 1.403 . S
C2829 C2830 1.392 . S
C2829 C2833 1.495 . S
C2830 C2829 1.392 . S
C2830 C2831 1.385 . S
C2830 C2832 1.478 . S
C2831 H2825 0.930 . S
C2831 C2827 1.400 . S
C2831 C2830 1.385 . S
C2832 C2830 1.478 . S
C2832 C2834 1.381 . S
C2832 C2838 1.383 . S
C2833 C2829 1.495 . S
C2833 H2839 0.959 . S
C2833 H2840 0.961 . S
C2833 H2841 0.960 . S
C2834 C2832 1.381 . S
C2834 C2835 1.394 . S
C2834 H2842 0.930 . S
C2835 C2834 1.394 . S
C2835 C2836 1.383 . S
C2835 H2843 0.929 . S
C2836 C2835 1.383 . S
C2836 C2837 1.377 . S
C2837 H2821 0.930 . S
C2837 C2836 1.377 . S
C2837 C2838 1.379 . S
C2838 H2822 0.931 . S
C2838 C2832 1.383 . S
C2838 C2837 1.379 . S
H2839 C2833 0.959 . S
H2840 C2833 0.961 . S
H2841 C2833 0.960 . S
H2842 C2834 0.930 . S
H2843 C2835 0.929 . S
H2844 C2852 0.929 . S
H2845 C2854 0.930 . S
H2846 C2856 0.930 . S
H2847 C2859 0.929 . S
H2848 C2862 0.930 . S
H2849 C2864 0.960 . S
H2850 C2864 0.960 . S
H2851 C2864 0.960 . S
C2852 H2844 0.929 . S
C2852 C2853 1.377 . S
C2852 C2854 1.384 . S
C2853 C2852 1.377 . S
C2853 C2859 1.390 . S
C2854 H2845 0.930 . S
C2854 C2852 1.384 . S
C2854 C2855 1.372 . S
C2855 C2854 1.372 . S
C2855 C2856 1.400 . S
C2855 C2860 1.490 . S
C2856 H2846 0.930 . S
C2856 C2855 1.400 . S
C2856 C2859 1.386 . S
H2857 C2873 0.930 . S
H2858 C2874 0.931 . S
C2859 H2847 0.929 . S
C2859 C2853 1.390 . S
C2859 C2856 1.386 . S
C2860 C2855 1.490 . S
C2860 C2862 1.395 . S
C2860 C2863 1.403 . S
H2861 C2867 0.930 . S
C2862 H2848 0.930 . S
C2862 C2860 1.395 . S
C2862 C2865 1.403 . S
C2863 C2860 1.403 . S
C2863 C2864 1.524 . S
C2863 C2867 1.400 . S
C2864 H2849 0.960 . S
C2864 H2850 0.960 . S
C2864 H2851 0.960 . S
C2864 C2863 1.524 . S
C2865 C2862 1.403 . S
C2865 C2866 1.392 . S
C2865 C2869 1.495 . S
C2866 C2865 1.392 . S
C2866 C2867 1.385 . S
C2866 C2868 1.478 . S
C2867 H2861 0.930 . S
C2867 C2863 1.400 . S
C2867 C2866 1.385 . S
C2868 C2866 1.478 . S
C2868 C2870 1.381 . S
C2868 C2874 1.383 . S
C2869 C2865 1.495 . S
C2869 H2875 0.959 . S
C2869 H2876 0.961 . S
C2869 H2877 0.960 . S
C2870 C2868 1.381 . S
C2870 C2871 1.394 . S
C2870 H2878 0.930 . S
C2871 C2870 1.394 . S
C2871 C2872 1.383 . S
C2871 H2879 0.929 . S
C2872 C2871 1.383 . S
C2872 C2873 1.377 . S
C2873 H2857 0.930 . S
C2873 C2872 1.377 . S
C2873 C2874 1.379 . S
C2874 H2858 0.931 . S
C2874 C2868 1.383 . S
C2874 C2873 1.379 . S
H2875 C2869 0.959 . S
H2876 C2869 0.961 . S
H2877 C2869 0.960 . S
H2878 C2870 0.930 . S
H2879 C2871 0.929 . S
H2880 C2888 0.929 . S
H2881 C2890 0.930 . S
H2882 C2892 0.930 . S
H2883 C2895 0.929 . S
H2884 C2898 0.930 . S
H2885 C2900 0.960 . S
H2886 C2900 0.960 . S
H2887 C2900 0.960 . S
C2888 H2880 0.929 . S
C2888 C2889 1.377 . S
C2888 C2890 1.384 . S
C2889 C2888 1.377 . S
C2889 C2895 1.390 . S
C2890 H2881 0.930 . S
C2890 C2888 1.384 . S
C2890 C2891 1.372 . S
C2891 C2890 1.372 . S
C2891 C2892 1.400 . S
C2891 C2896 1.490 . S
C2892 H2882 0.930 . S
C2892 C2891 1.400 . S
C2892 C2895 1.386 . S
H2893 C2909 0.930 . S
H2894 C2910 0.931 . S
C2895 H2883 0.929 . S
C2895 C2889 1.390 . S
C2895 C2892 1.386 . S
C2896 C2891 1.490 . S
C2896 C2898 1.395 . S
C2896 C2899 1.403 . S
H2897 C2903 0.930 . S
C2898 H2884 0.930 . S
C2898 C2896 1.395 . S
C2898 C2901 1.403 . S
C2899 C2896 1.403 . S
C2899 C2900 1.524 . S
C2899 C2903 1.400 . S
C2900 H2885 0.960 . S
C2900 H2886 0.960 . S
C2900 H2887 0.960 . S
C2900 C2899 1.524 . S
C2901 C2898 1.403 . S
C2901 C2902 1.392 . S
C2901 C2905 1.495 . S
C2902 C2901 1.392 . S
C2902 C2903 1.385 . S
C2902 C2904 1.478 . S
C2903 H2897 0.930 . S
C2903 C2899 1.400 . S
C2903 C2902 1.385 . S
C2904 C2902 1.478 . S
C2904 C2906 1.381 . S
C2904 C2910 1.383 . S
C2905 C2901 1.495 . S
C2905 H2911 0.959 . S
C2905 H2912 0.961 . S
C2905 H2913 0.960 . S
C2906 C2904 1.381 . S
C2906 C2907 1.394 . S
C2906 H2914 0.930 . S
C2907 C2906 1.394 . S
C2907 C2908 1.383 . S
C2907 H2915 0.929 . S
C2908 C2907 1.383 . S
C2908 C2909 1.377 . S
C2909 H2893 0.930 . S
C2909 C2908 1.377 . S
C2909 C2910 1.379 . S
C2910 H2894 0.931 . S
C2910 C2904 1.383 . S
C2910 C2909 1.379 . S
H2911 C2905 0.959 . S
H2912 C2905 0.961 . S
H2913 C2905 0.960 . S
H2914 C2906 0.930 . S
H2915 C2907 0.929 . S
H2916 C2924 0.929 . S
H2917 C2926 0.930 . S
H2918 C2928 0.930 . S
H2919 C2931 0.929 . S
H2920 C2934 0.930 . S
H2921 C2936 0.960 . S
H2922 C2936 0.960 . S
H2923 C2936 0.960 . S
C2924 H2916 0.929 . S
C2924 C2925 1.377 . S
C2924 C2926 1.384 . S
C2925 C2924 1.377 . S
C2925 C2931 1.390 . S
C2926 H2917 0.930 . S
C2926 C2924 1.384 . S
C2926 C2927 1.372 . S
C2927 C2926 1.372 . S
C2927 C2928 1.400 . S
C2927 C2932 1.490 . S
C2928 H2918 0.930 . S
C2928 C2927 1.400 . S
C2928 C2931 1.386 . S
H2929 C2945 0.930 . S
H2930 C2946 0.931 . S
C2931 H2919 0.929 . S
C2931 C2925 1.390 . S
C2931 C2928 1.386 . S
C2932 C2927 1.490 . S
C2932 C2934 1.395 . S
C2932 C2935 1.403 . S
H2933 C2939 0.930 . S
C2934 H2920 0.930 . S
C2934 C2932 1.395 . S
C2934 C2937 1.403 . S
C2935 C2932 1.403 . S
C2935 C2936 1.524 . S
C2935 C2939 1.400 . S
C2936 H2921 0.960 . S
C2936 H2922 0.960 . S
C2936 H2923 0.960 . S
C2936 C2935 1.524 . S
C2937 C2934 1.403 . S
C2937 C2938 1.392 . S
C2937 C2941 1.495 . S
C2938 C2937 1.392 . S
C2938 C2939 1.385 . S
C2938 C2940 1.478 . S
C2939 H2933 0.930 . S
C2939 C2935 1.400 . S
C2939 C2938 1.385 . S
C2940 C2938 1.478 . S
C2940 C2942 1.381 . S
C2940 C2946 1.383 . S
C2941 C2937 1.495 . S
C2941 H2947 0.959 . S
C2941 H2948 0.961 . S
C2941 H2949 0.960 . S
C2942 C2940 1.381 . S
C2942 C2943 1.394 . S
C2942 H2950 0.930 . S
C2943 C2942 1.394 . S
C2943 C2944 1.383 . S
C2943 H2951 0.929 . S
C2944 C2943 1.383 . S
C2944 C2945 1.377 . S
C2945 H2929 0.930 . S
C2945 C2944 1.377 . S
C2945 C2946 1.379 . S
C2946 H2930 0.931 . S
C2946 C2940 1.383 . S
C2946 C2945 1.379 . S
H2947 C2941 0.959 . S
H2948 C2941 0.961 . S
H2949 C2941 0.960 . S
H2950 C2942 0.930 . S
H2951 C2943 0.929 . S
H2952 C2960 0.929 . S
H2953 C2962 0.930 . S
H2954 C2964 0.930 . S
H2955 C2967 0.929 . S
H2956 C2970 0.930 . S
H2957 C2972 0.960 . S
H2958 C2972 0.960 . S
H2959 C2972 0.960 . S
C2960 H2952 0.929 . S
C2960 C2961 1.377 . S
C2960 C2962 1.384 . S
C2961 C2960 1.377 . S
C2961 C2967 1.390 . S
C2962 H2953 0.930 . S
C2962 C2960 1.384 . S
C2962 C2963 1.372 . S
C2963 C2962 1.372 . S
C2963 C2964 1.400 . S
C2963 C2968 1.490 . S
C2964 H2954 0.930 . S
C2964 C2963 1.400 . S
C2964 C2967 1.386 . S
H2965 C2981 0.930 . S
H2966 C2982 0.931 . S
C2967 H2955 0.929 . S
C2967 C2961 1.390 . S
C2967 C2964 1.386 . S
C2968 C2963 1.490 . S
C2968 C2970 1.395 . S
C2968 C2971 1.403 . S
H2969 C2975 0.930 . S
C2970 H2956 0.930 . S
C2970 C2968 1.395 . S
C2970 C2973 1.403 . S
C2971 C2968 1.403 . S
C2971 C2972 1.524 . S
C2971 C2975 1.400 . S
C2972 H2957 0.960 . S
C2972 H2958 0.960 . S
C2972 H2959 0.960 . S
C2972 C2971 1.524 . S
C2973 C2970 1.403 . S
C2973 C2974 1.392 . S
C2973 C2977 1.495 . S
C2974 C2973 1.392 . S
C2974 C2975 1.385 . S
C2974 C2976 1.478 . S
C2975 H2969 0.930 . S
C2975 C2971 1.400 . S
C2975 C2974 1.385 . S
C2976 C2974 1.478 . S
C2976 C2978 1.381 . S
C2976 C2982 1.383 . S
C2977 C2973 1.495 . S
C2977 H2983 0.959 . S
C2977 H2984 0.961 . S
C2977 H2985 0.960 . S
C2978 C2976 1.381 . S
C2978 C2979 1.394 . S
C2978 H2986 0.930 . S
C2979 C2978 1.394 . S
C2979 C2980 1.383 . S
C2979 H2987 0.929 . S
C2980 C2979 1.383 . S
C2980 C2981 1.377 . S
C2981 H2965 0.930 . S
C2981 C2980 1.377 . S
C2981 C2982 1.379 . S
C2982 H2966 0.931 . S
C2982 C2976 1.383 . S
C2982 C2981 1.379 . S
H2983 C2977 0.959 . S
H2984 C2977 0.961 . S
H2985 C2977 0.960 . S
H2986 C2978 0.930 . S
H2987 C2979 0.929 . S
H2988 C2996 0.929 . S
H2989 C2998 0.930 . S
H2990 C3000 0.930 . S
H2991 C3003 0.929 . S
H2992 C3006 0.930 . S
H2993 C3008 0.960 . S
H2994 C3008 0.960 . S
H2995 C3008 0.960 . S
C2996 H2988 0.929 . S
C2996 C2997 1.377 . S
C2996 C2998 1.384 . S
C2997 C2996 1.377 . S
C2997 C3003 1.390 . S
C2998 H2989 0.930 . S
C2998 C2996 1.384 . S
C2998 C2999 1.372 . S
C2999 C2998 1.372 . S
C2999 C3000 1.400 . S
C2999 C3004 1.490 . S
C3000 H2990 0.930 . S
C3000 C2999 1.400 . S
C3000 C3003 1.386 . S
H3001 C3017 0.930 . S
H3002 C3018 0.931 . S
C3003 H2991 0.929 . S
C3003 C2997 1.390 . S
C3003 C3000 1.386 . S
C3004 C2999 1.490 . S
C3004 C3006 1.395 . S
C3004 C3007 1.403 . S
H3005 C3011 0.930 . S
C3006 H2992 0.930 . S
C3006 C3004 1.395 . S
C3006 C3009 1.403 . S
C3007 C3004 1.403 . S
C3007 C3008 1.524 . S
C3007 C3011 1.400 . S
C3008 H2993 0.960 . S
C3008 H2994 0.960 . S
C3008 H2995 0.960 . S
C3008 C3007 1.524 . S
C3009 C3006 1.403 . S
C3009 C3010 1.392 . S
C3009 C3013 1.495 . S
C3010 C3009 1.392 . S
C3010 C3011 1.385 . S
C3010 C3012 1.478 . S
C3011 H3005 0.930 . S
C3011 C3007 1.400 . S
C3011 C3010 1.385 . S
C3012 C3010 1.478 . S
C3012 C3014 1.381 . S
C3012 C3018 1.383 . S
C3013 C3009 1.495 . S
C3013 H3019 0.959 . S
C3013 H3020 0.961 . S
C3013 H3021 0.960 . S
C3014 C3012 1.381 . S
C3014 C3015 1.394 . S
C3014 H3022 0.930 . S
C3015 C3014 1.394 . S
C3015 C3016 1.383 . S
C3015 H3023 0.929 . S
C3016 C3015 1.383 . S
C3016 C3017 1.377 . S
C3017 H3001 0.930 . S
C3017 C3016 1.377 . S
C3017 C3018 1.379 . S
C3018 H3002 0.931 . S
C3018 C3012 1.383 . S
C3018 C3017 1.379 . S
H3019 C3013 0.959 . S
H3020 C3013 0.961 . S
H3021 C3013 0.960 . S
H3022 C3014 0.930 . S
H3023 C3015 0.929 . S
H3024 C3032 0.929 . S
H3025 C3034 0.930 . S
H3026 C3036 0.930 . S
H3027 C3039 0.929 . S
H3028 C3042 0.930 . S
H3029 C3044 0.960 . S
H3030 C3044 0.960 . S
H3031 C3044 0.960 . S
C3032 H3024 0.929 . S
C3032 C3033 1.377 . S
C3032 C3034 1.384 . S
C3033 C3032 1.377 . S
C3033 C3039 1.390 . S
C3034 H3025 0.930 . S
C3034 C3032 1.384 . S
C3034 C3035 1.372 . S
C3035 C3034 1.372 . S
C3035 C3036 1.400 . S
C3035 C3040 1.490 . S
C3036 H3026 0.930 . S
C3036 C3035 1.400 . S
C3036 C3039 1.386 . S
H3037 C3053 0.930 . S
H3038 C3054 0.931 . S
C3039 H3027 0.929 . S
C3039 C3033 1.390 . S
C3039 C3036 1.386 . S
C3040 C3035 1.490 . S
C3040 C3042 1.395 . S
C3040 C3043 1.403 . S
H3041 C3047 0.930 . S
C3042 H3028 0.930 . S
C3042 C3040 1.395 . S
C3042 C3045 1.403 . S
C3043 C3040 1.403 . S
C3043 C3044 1.524 . S
C3043 C3047 1.400 . S
C3044 H3029 0.960 . S
C3044 H3030 0.960 . S
C3044 H3031 0.960 . S
C3044 C3043 1.524 . S
C3045 C3042 1.403 . S
C3045 C3046 1.392 . S
C3045 C3049 1.495 . S
C3046 C3045 1.392 . S
C3046 C3047 1.385 . S
C3046 C3048 1.478 . S
C3047 H3041 0.930 . S
C3047 C3043 1.400 . S
C3047 C3046 1.385 . S
C3048 C3046 1.478 . S
C3048 C3050 1.381 . S
C3048 C3054 1.383 . S
C3049 C3045 1.495 . S
C3049 H3055 0.959 . S
C3049 H3056 0.961 . S
C3049 H3057 0.960 . S
C3050 C3048 1.381 . S
C3050 C3051 1.394 . S
C3050 H3058 0.930 . S
C3051 C3050 1.394 . S
C3051 C3052 1.383 . S
C3051 H3059 0.929 . S
C3052 C3051 1.383 . S
C3052 C3053 1.377 . S
C3053 H3037 0.930 . S
C3053 C3052 1.377 . S
C3053 C3054 1.379 . S
C3054 H3038 0.931 . S
C3054 C3048 1.383 . S
C3054 C3053 1.379 . S
H3055 C3049 0.959 . S
H3056 C3049 0.961 . S
H3057 C3049 0.960 . S
H3058 C3050 0.930 . S
H3059 C3051 0.929 . S
H3060 C3068 0.929 . S
H3061 C3070 0.930 . S
H3062 C3072 0.930 . S
H3063 C3075 0.929 . S
H3064 C3078 0.930 . S
H3065 C3080 0.960 . S
H3066 C3080 0.960 . S
H3067 C3080 0.960 . S
C3068 H3060 0.929 . S
C3068 C3069 1.377 . S
C3068 C3070 1.384 . S
C3069 C3068 1.377 . S
C3069 C3075 1.390 . S
C3070 H3061 0.930 . S
C3070 C3068 1.384 . S
C3070 C3071 1.372 . S
C3071 C3070 1.372 . S
C3071 C3072 1.400 . S
C3071 C3076 1.490 . S
C3072 H3062 0.930 . S
C3072 C3071 1.400 . S
C3072 C3075 1.386 . S
H3073 C3089 0.930 . S
H3074 C3090 0.931 . S
C3075 H3063 0.929 . S
C3075 C3069 1.390 . S
C3075 C3072 1.386 . S
C3076 C3071 1.490 . S
C3076 C3078 1.395 . S
C3076 C3079 1.403 . S
H3077 C3083 0.930 . S
C3078 H3064 0.930 . S
C3078 C3076 1.395 . S
C3078 C3081 1.403 . S
C3079 C3076 1.403 . S
C3079 C3080 1.524 . S
C3079 C3083 1.400 . S
C3080 H3065 0.960 . S
C3080 H3066 0.960 . S
C3080 H3067 0.960 . S
C3080 C3079 1.524 . S
C3081 C3078 1.403 . S
C3081 C3082 1.392 . S
C3081 C3085 1.495 . S
C3082 C3081 1.392 . S
C3082 C3083 1.385 . S
C3082 C3084 1.478 . S
C3083 H3077 0.930 . S
C3083 C3079 1.400 . S
C3083 C3082 1.385 . S
C3084 C3082 1.478 . S
C3084 C3086 1.381 . S
C3084 C3090 1.383 . S
C3085 C3081 1.495 . S
C3085 H3091 0.959 . S
C3085 H3092 0.961 . S
C3085 H3093 0.960 . S
C3086 C3084 1.381 . S
C3086 C3087 1.394 . S
C3086 H3094 0.930 . S
C3087 C3086 1.394 . S
C3087 C3088 1.383 . S
C3087 H3095 0.929 . S
C3088 C3087 1.383 . S
C3088 C3089 1.377 . S
C3089 H3073 0.930 . S
C3089 C3088 1.377 . S
C3089 C3090 1.379 . S
C3090 H3074 0.931 . S
C3090 C3084 1.383 . S
C3090 C3089 1.379 . S
H3091 C3085 0.959 . S
H3092 C3085 0.961 . S
H3093 C3085 0.960 . S
H3094 C3086 0.930 . S
H3095 C3087 0.929 . S
H3096 C3104 0.929 . S
H3097 C3106 0.930 . S
H3098 C3108 0.930 . S
H3099 C3111 0.929 . S
H3100 C3114 0.930 . S
H3101 C3116 0.960 . S
H3102 C3116 0.960 . S
H3103 C3116 0.960 . S
C3104 H3096 0.929 . S
C3104 C3105 1.377 . S
C3104 C3106 1.384 . S
C3105 C3104 1.377 . S
C3105 C3111 1.390 . S
C3106 H3097 0.930 . S
C3106 C3104 1.384 . S
C3106 C3107 1.372 . S
C3107 C3106 1.372 . S
C3107 C3108 1.400 . S
C3107 C3112 1.490 . S
C3108 H3098 0.930 . S
C3108 C3107 1.400 . S
C3108 C3111 1.386 . S
H3109 C3125 0.930 . S
H3110 C3126 0.931 . S
C3111 H3099 0.929 . S
C3111 C3105 1.390 . S
C3111 C3108 1.386 . S
C3112 C3107 1.490 . S
C3112 C3114 1.395 . S
C3112 C3115 1.403 . S
H3113 C3119 0.930 . S
C3114 H3100 0.930 . S
C3114 C3112 1.395 . S
C3114 C3117 1.403 . S
C3115 C3112 1.403 . S
C3115 C3116 1.524 . S
C3115 C3119 1.400 . S
C3116 H3101 0.960 . S
C3116 H3102 0.960 . S
C3116 H3103 0.960 . S
C3116 C3115 1.524 . S
C3117 C3114 1.403 . S
C3117 C3118 1.392 . S
C3117 C3121 1.495 . S
C3118 C3117 1.392 . S
C3118 C3119 1.385 . S
C3118 C3120 1.478 . S
C3119 H3113 0.930 . S
C3119 C3115 1.400 . S
C3119 C3118 1.385 . S
C3120 C3118 1.478 . S
C3120 C3122 1.381 . S
C3120 C3126 1.383 . S
C3121 C3117 1.495 . S
C3121 H3127 0.959 . S
C3121 H3128 0.961 . S
C3121 H3129 0.960 . S
C3122 C3120 1.381 . S
C3122 C3123 1.394 . S
C3122 H3130 0.930 . S
C3123 C3122 1.394 . S
C3123 C3124 1.383 . S
C3123 H3131 0.929 . S
C3124 C3123 1.383 . S
C3124 C3125 1.377 . S
C3125 H3109 0.930 . S
C3125 C3124 1.377 . S
C3125 C3126 1.379 . S
C3126 H3110 0.931 . S
C3126 C3120 1.383 . S
C3126 C3125 1.379 . S
H3127 C3121 0.959 . S
H3128 C3121 0.961 . S
H3129 C3121 0.960 . S
H3130 C3122 0.930 . S
H3131 C3123 0.929 . S
H3132 C3140 0.929 . S
H3133 C3142 0.930 . S
H3134 C3144 0.930 . S
H3135 C3147 0.929 . S
H3136 C3150 0.930 . S
H3137 C3152 0.960 . S
H3138 C3152 0.960 . S
H3139 C3152 0.960 . S
C3140 H3132 0.929 . S
C3140 C3141 1.377 . S
C3140 C3142 1.384 . S
C3141 C3140 1.377 . S
C3141 C3147 1.390 . S
C3142 H3133 0.930 . S
C3142 C3140 1.384 . S
C3142 C3143 1.372 . S
C3143 C3142 1.372 . S
C3143 C3144 1.400 . S
C3143 C3148 1.490 . S
C3144 H3134 0.930 . S
C3144 C3143 1.400 . S
C3144 C3147 1.386 . S
H3145 C3161 0.930 . S
H3146 C3162 0.931 . S
C3147 H3135 0.929 . S
C3147 C3141 1.390 . S
C3147 C3144 1.386 . S
C3148 C3143 1.490 . S
C3148 C3150 1.395 . S
C3148 C3151 1.403 . S
H3149 C3155 0.930 . S
C3150 H3136 0.930 . S
C3150 C3148 1.395 . S
C3150 C3153 1.403 . S
C3151 C3148 1.403 . S
C3151 C3152 1.524 . S
C3151 C3155 1.400 . S
C3152 H3137 0.960 . S
C3152 H3138 0.960 . S
C3152 H3139 0.960 . S
C3152 C3151 1.524 . S
C3153 C3150 1.403 . S
C3153 C3154 1.392 . S
C3153 C3157 1.495 . S
C3154 C3153 1.392 . S
C3154 C3155 1.385 . S
C3154 C3156 1.478 . S
C3155 H3149 0.930 . S
C3155 C3151 1.400 . S
C3155 C3154 1.385 . S
C3156 C3154 1.478 . S
C3156 C3158 1.381 . S
C3156 C3162 1.383 . S
C3157 C3153 1.495 . S
C3157 H3163 0.959 . S
C3157 H3164 0.961 . S
C3157 H3165 0.960 . S
C3158 C3156 1.381 . S
C3158 C3159 1.394 . S
C3158 H3166 0.930 . S
C3159 C3158 1.394 . S
C3159 C3160 1.383 . S
C3159 H3167 0.929 . S
C3160 C3159 1.383 . S
C3160 C3161 1.377 . S
C3161 H3145 0.930 . S
C3161 C3160 1.377 . S
C3161 C3162 1.379 . S
C3162 H3146 0.931 . S
C3162 C3156 1.383 . S
C3162 C3161 1.379 . S
H3163 C3157 0.959 . S
H3164 C3157 0.961 . S
H3165 C3157 0.960 . S
H3166 C3158 0.930 . S
H3167 C3159 0.929 . S
H3168 C3176 0.929 . S
H3169 C3178 0.930 . S
H3170 C3180 0.930 . S
H3171 C3183 0.929 . S
H3172 C3186 0.930 . S
H3173 C3188 0.960 . S
H3174 C3188 0.960 . S
H3175 C3188 0.960 . S
C3176 H3168 0.929 . S
C3176 C3177 1.377 . S
C3176 C3178 1.384 . S
C3177 C3176 1.377 . S
C3177 C3183 1.390 . S
C3178 H3169 0.930 . S
C3178 C3176 1.384 . S
C3178 C3179 1.372 . S
C3179 C3178 1.372 . S
C3179 C3180 1.400 . S
C3179 C3184 1.490 . S
C3180 H3170 0.930 . S
C3180 C3179 1.400 . S
C3180 C3183 1.386 . S
H3181 C3197 0.930 . S
H3182 C3198 0.931 . S
C3183 H3171 0.929 . S
C3183 C3177 1.390 . S
C3183 C3180 1.386 . S
C3184 C3179 1.490 . S
C3184 C3186 1.395 . S
C3184 C3187 1.403 . S
H3185 C3191 0.930 . S
C3186 H3172 0.930 . S
C3186 C3184 1.395 . S
C3186 C3189 1.403 . S
C3187 C3184 1.403 . S
C3187 C3188 1.524 . S
C3187 C3191 1.400 . S
C3188 H3173 0.960 . S
C3188 H3174 0.960 . S
C3188 H3175 0.960 . S
C3188 C3187 1.524 . S
C3189 C3186 1.403 . S
C3189 C3190 1.392 . S
C3189 C3193 1.495 . S
C3190 C3189 1.392 . S
C3190 C3191 1.385 . S
C3190 C3192 1.478 . S
C3191 H3185 0.930 . S
C3191 C3187 1.400 . S
C3191 C3190 1.385 . S
C3192 C3190 1.478 . S
C3192 C3194 1.381 . S
C3192 C3198 1.383 . S
C3193 C3189 1.495 . S
C3193 H3199 0.959 . S
C3193 H3200 0.961 . S
C3193 H3201 0.960 . S
C3194 C3192 1.381 . S
C3194 C3195 1.394 . S
C3194 H3202 0.930 . S
C3195 C3194 1.394 . S
C3195 C3196 1.383 . S
C3195 H3203 0.929 . S
C3196 C3195 1.383 . S
C3196 C3197 1.377 . S
C3197 H3181 0.930 . S
C3197 C3196 1.377 . S
C3197 C3198 1.379 . S
C3198 H3182 0.931 . S
C3198 C3192 1.383 . S
C3198 C3197 1.379 . S
H3199 C3193 0.959 . S
H3200 C3193 0.961 . S
H3201 C3193 0.960 . S
H3202 C3194 0.930 . S
H3203 C3195 0.929 . S
H3204 C3212 0.929 . S
H3205 C3214 0.930 . S
H3206 C3216 0.930 . S
H3207 C3219 0.929 . S
H3208 C3222 0.930 . S
H3209 C3224 0.960 . S
H3210 C3224 0.960 . S
H3211 C3224 0.960 . S
C3212 H3204 0.929 . S
C3212 C3213 1.377 . S
C3212 C3214 1.384 . S
C3213 C3212 1.377 . S
C3213 C3219 1.390 . S
C3214 H3205 0.930 . S
C3214 C3212 1.384 . S
C3214 C3215 1.372 . S
C3215 C3214 1.372 . S
C3215 C3216 1.400 . S
C3215 C3220 1.490 . S
C3216 H3206 0.930 . S
C3216 C3215 1.400 . S
C3216 C3219 1.386 . S
H3217 C3233 0.930 . S
H3218 C3234 0.931 . S
C3219 H3207 0.929 . S
C3219 C3213 1.390 . S
C3219 C3216 1.386 . S
C3220 C3215 1.490 . S
C3220 C3222 1.395 . S
C3220 C3223 1.403 . S
H3221 C3227 0.930 . S
C3222 H3208 0.930 . S
C3222 C3220 1.395 . S
C3222 C3225 1.403 . S
C3223 C3220 1.403 . S
C3223 C3224 1.524 . S
C3223 C3227 1.400 . S
C3224 H3209 0.960 . S
C3224 H3210 0.960 . S
C3224 H3211 0.960 . S
C3224 C3223 1.524 . S
C3225 C3222 1.403 . S
C3225 C3226 1.392 . S
C3225 C3229 1.495 . S
C3226 C3225 1.392 . S
C3226 C3227 1.385 . S
C3226 C3228 1.478 . S
C3227 H3221 0.930 . S
C3227 C3223 1.400 . S
C3227 C3226 1.385 . S
C3228 C3226 1.478 . S
C3228 C3230 1.381 . S
C3228 C3234 1.383 . S
C3229 C3225 1.495 . S
C3229 H3235 0.959 . S
C3229 H3236 0.961 . S
C3229 H3237 0.960 . S
C3230 C3228 1.381 . S
C3230 C3231 1.394 . S
C3230 H3238 0.930 . S
C3231 C3230 1.394 . S
C3231 C3232 1.383 . S
C3231 H3239 0.929 . S
C3232 C3231 1.383 . S
C3232 C3233 1.377 . S
C3233 H3217 0.930 . S
C3233 C3232 1.377 . S
C3233 C3234 1.379 . S
C3234 H3218 0.931 . S
C3234 C3228 1.383 . S
C3234 C3233 1.379 . S
H3235 C3229 0.959 . S
H3236 C3229 0.961 . S
H3237 C3229 0.960 . S
H3238 C3230 0.930 . S
H3239 C3231 0.929 . S
H3240 C3248 0.929 . S
H3241 C3250 0.930 . S
H3242 C3252 0.930 . S
H3243 C3255 0.929 . S
H3244 C3258 0.930 . S
H3245 C3260 0.960 . S
H3246 C3260 0.960 . S
H3247 C3260 0.960 . S
C3248 H3240 0.929 . S
C3248 C3249 1.377 . S
C3248 C3250 1.384 . S
C3249 C3248 1.377 . S
C3249 C3255 1.390 . S
C3250 H3241 0.930 . S
C3250 C3248 1.384 . S
C3250 C3251 1.372 . S
C3251 C3250 1.372 . S
C3251 C3252 1.400 . S
C3251 C3256 1.490 . S
C3252 H3242 0.930 . S
C3252 C3251 1.400 . S
C3252 C3255 1.386 . S
H3253 C3269 0.930 . S
H3254 C3270 0.931 . S
C3255 H3243 0.929 . S
C3255 C3249 1.390 . S
C3255 C3252 1.386 . S
C3256 C3251 1.490 . S
C3256 C3258 1.395 . S
C3256 C3259 1.403 . S
H3257 C3263 0.930 . S
C3258 H3244 0.930 . S
C3258 C3256 1.395 . S
C3258 C3261 1.403 . S
C3259 C3256 1.403 . S
C3259 C3260 1.524 . S
C3259 C3263 1.400 . S
C3260 H3245 0.960 . S
C3260 H3246 0.960 . S
C3260 H3247 0.960 . S
C3260 C3259 1.524 . S
C3261 C3258 1.403 . S
C3261 C3262 1.392 . S
C3261 C3265 1.495 . S
C3262 C3261 1.392 . S
C3262 C3263 1.385 . S
C3262 C3264 1.478 . S
C3263 H3257 0.930 . S
C3263 C3259 1.400 . S
C3263 C3262 1.385 . S
C3264 C3262 1.478 . S
C3264 C3266 1.381 . S
C3264 C3270 1.383 . S
C3265 C3261 1.495 . S
C3265 H3271 0.959 . S
C3265 H3272 0.961 . S
C3265 H3273 0.960 . S
C3266 C3264 1.381 . S
C3266 C3267 1.394 . S
C3266 H3274 0.930 . S
C3267 C3266 1.394 . S
C3267 C3268 1.383 . S
C3267 H3275 0.929 . S
C3268 C3267 1.383 . S
C3268 C3269 1.377 . S
C3269 H3253 0.930 . S
C3269 C3268 1.377 . S
C3269 C3270 1.379 . S
C3270 H3254 0.931 . S
C3270 C3264 1.383 . S
C3270 C3269 1.379 . S
H3271 C3265 0.959 . S
H3272 C3265 0.961 . S
H3273 C3265 0.960 . S
H3274 C3266 0.930 . S
H3275 C3267 0.929 . S
H3276 C3284 0.929 . S
H3277 C3286 0.930 . S
H3278 C3288 0.930 . S
H3279 C3291 0.929 . S
H3280 C3294 0.930 . S
H3281 C3296 0.960 . S
H3282 C3296 0.960 . S
H3283 C3296 0.960 . S
C3284 H3276 0.929 . S
C3284 C3285 1.377 . S
C3284 C3286 1.384 . S
C3285 C3284 1.377 . S
C3285 C3291 1.390 . S
C3286 H3277 0.930 . S
C3286 C3284 1.384 . S
C3286 C3287 1.372 . S
C3287 C3286 1.372 . S
C3287 C3288 1.400 . S
C3287 C3292 1.490 . S
C3288 H3278 0.930 . S
C3288 C3287 1.400 . S
C3288 C3291 1.386 . S
H3289 C3305 0.930 . S
H3290 C3306 0.931 . S
C3291 H3279 0.929 . S
C3291 C3285 1.390 . S
C3291 C3288 1.386 . S
C3292 C3287 1.490 . S
C3292 C3294 1.395 . S
C3292 C3295 1.403 . S
H3293 C3299 0.930 . S
C3294 H3280 0.930 . S
C3294 C3292 1.395 . S
C3294 C3297 1.403 . S
C3295 C3292 1.403 . S
C3295 C3296 1.524 . S
C3295 C3299 1.400 . S
C3296 H3281 0.960 . S
C3296 H3282 0.960 . S
C3296 H3283 0.960 . S
C3296 C3295 1.524 . S
C3297 C3294 1.403 . S
C3297 C3298 1.392 . S
C3297 C3301 1.495 . S
C3298 C3297 1.392 . S
C3298 C3299 1.385 . S
C3298 C3300 1.478 . S
C3299 H3293 0.930 . S
C3299 C3295 1.400 . S
C3299 C3298 1.385 . S
C3300 C3298 1.478 . S
C3300 C3302 1.381 . S
C3300 C3306 1.383 . S
C3301 C3297 1.495 . S
C3301 H3307 0.959 . S
C3301 H3308 0.961 . S
C3301 H3309 0.960 . S
C3302 C3300 1.381 . S
C3302 C3303 1.394 . S
C3302 H3310 0.930 . S
C3303 C3302 1.394 . S
C3303 C3304 1.383 . S
C3303 H3311 0.929 . S
C3304 C3303 1.383 . S
C3304 C3305 1.377 . S
C3305 H3289 0.930 . S
C3305 C3304 1.377 . S
C3305 C3306 1.379 . S
C3306 H3290 0.931 . S
C3306 C3300 1.383 . S
C3306 C3305 1.379 . S
H3307 C3301 0.959 . S
H3308 C3301 0.961 . S
H3309 C3301 0.960 . S
H3310 C3302 0.930 . S
H3311 C3303 0.929 . S
H3312 C3320 0.929 . S
H3313 C3322 0.930 . S
H3314 C3324 0.930 . S
H3315 C3327 0.929 . S
H3316 C3330 0.930 . S
H3317 C3332 0.960 . S
H3318 C3332 0.960 . S
H3319 C3332 0.960 . S
C3320 H3312 0.929 . S
C3320 C3321 1.377 . S
C3320 C3322 1.384 . S
C3321 C3320 1.377 . S
C3321 C3327 1.390 . S
C3322 H3313 0.930 . S
C3322 C3320 1.384 . S
C3322 C3323 1.372 . S
C3323 C3322 1.372 . S
C3323 C3324 1.400 . S
C3323 C3328 1.490 . S
C3324 H3314 0.930 . S
C3324 C3323 1.400 . S
C3324 C3327 1.386 . S
H3325 C3341 0.930 . S
H3326 C3342 0.931 . S
C3327 H3315 0.929 . S
C3327 C3321 1.390 . S
C3327 C3324 1.386 . S
C3328 C3323 1.490 . S
C3328 C3330 1.395 . S
C3328 C3331 1.403 . S
H3329 C3335 0.930 . S
C3330 H3316 0.930 . S
C3330 C3328 1.395 . S
C3330 C3333 1.403 . S
C3331 C3328 1.403 . S
C3331 C3332 1.524 . S
C3331 C3335 1.400 . S
C3332 H3317 0.960 . S
C3332 H3318 0.960 . S
C3332 H3319 0.960 . S
C3332 C3331 1.524 . S
C3333 C3330 1.403 . S
C3333 C3334 1.392 . S
C3333 C3337 1.495 . S
C3334 C3333 1.392 . S
C3334 C3335 1.385 . S
C3334 C3336 1.478 . S
C3335 H3329 0.930 . S
C3335 C3331 1.400 . S
C3335 C3334 1.385 . S
C3336 C3334 1.478 . S
C3336 C3338 1.381 . S
C3336 C3342 1.383 . S
C3337 C3333 1.495 . S
C3337 H3343 0.959 . S
C3337 H3344 0.961 . S
C3337 H3345 0.960 . S
C3338 C3336 1.381 . S
C3338 C3339 1.394 . S
C3338 H3346 0.930 . S
C3339 C3338 1.394 . S
C3339 C3340 1.383 . S
C3339 H3347 0.929 . S
C3340 C3339 1.383 . S
C3340 C3341 1.377 . S
C3341 H3325 0.930 . S
C3341 C3340 1.377 . S
C3341 C3342 1.379 . S
C3342 H3326 0.931 . S
C3342 C3336 1.383 . S
C3342 C3341 1.379 . S
H3343 C3337 0.959 . S
H3344 C3337 0.961 . S
H3345 C3337 0.960 . S
H3346 C3338 0.930 . S
H3347 C3339 0.929 . S
H3348 C3356 0.929 . S
H3349 C3358 0.930 . S
H3350 C3360 0.930 . S
H3351 C3363 0.929 . S
H3352 C3366 0.930 . S
H3353 C3368 0.960 . S
H3354 C3368 0.960 . S
H3355 C3368 0.960 . S
C3356 H3348 0.929 . S
C3356 C3357 1.377 . S
C3356 C3358 1.384 . S
C3357 C3356 1.377 . S
C3357 C3363 1.390 . S
C3358 H3349 0.930 . S
C3358 C3356 1.384 . S
C3358 C3359 1.372 . S
C3359 C3358 1.372 . S
C3359 C3360 1.400 . S
C3359 C3364 1.490 . S
C3360 H3350 0.930 . S
C3360 C3359 1.400 . S
C3360 C3363 1.386 . S
H3361 C3377 0.930 . S
H3362 C3378 0.931 . S
C3363 H3351 0.929 . S
C3363 C3357 1.390 . S
C3363 C3360 1.386 . S
C3364 C3359 1.490 . S
C3364 C3366 1.395 . S
C3364 C3367 1.403 . S
H3365 C3371 0.930 . S
C3366 H3352 0.930 . S
C3366 C3364 1.395 . S
C3366 C3369 1.403 . S
C3367 C3364 1.403 . S
C3367 C3368 1.524 . S
C3367 C3371 1.400 . S
C3368 H3353 0.960 . S
C3368 H3354 0.960 . S
C3368 H3355 0.960 . S
C3368 C3367 1.524 . S
C3369 C3366 1.403 . S
C3369 C3370 1.392 . S
C3369 C3373 1.495 . S
C3370 C3369 1.392 . S
C3370 C3371 1.385 . S
C3370 C3372 1.478 . S
C3371 H3365 0.930 . S
C3371 C3367 1.400 . S
C3371 C3370 1.385 . S
C3372 C3370 1.478 . S
C3372 C3374 1.381 . S
C3372 C3378 1.383 . S
C3373 C3369 1.495 . S
C3373 H3379 0.959 . S
C3373 H3380 0.961 . S
C3373 H3381 0.960 . S
C3374 C3372 1.381 . S
C3374 C3375 1.394 . S
C3374 H3382 0.930 . S
C3375 C3374 1.394 . S
C3375 C3376 1.383 . S
C3375 H3383 0.929 . S
C3376 C3375 1.383 . S
C3376 C3377 1.377 . S
C3377 H3361 0.930 . S
C3377 C3376 1.377 . S
C3377 C3378 1.379 . S
C3378 H3362 0.931 . S
C3378 C3372 1.383 . S
C3378 C3377 1.379 . S
H3379 C3373 0.959 . S
H3380 C3373 0.961 . S
H3381 C3373 0.960 . S
H3382 C3374 0.930 . S
H3383 C3375 0.929 . S
H3384 C3392 0.929 . S
H3385 C3394 0.930 . S
H3386 C3396 0.930 . S
H3387 C3399 0.929 . S
H3388 C3402 0.930 . S
H3389 C3404 0.960 . S
H3390 C3404 0.960 . S
H3391 C3404 0.960 . S
C3392 H3384 0.929 . S
C3392 C3393 1.377 . S
C3392 C3394 1.384 . S
C3393 C3392 1.377 . S
C3393 C3399 1.390 . S
C3394 H3385 0.930 . S
C3394 C3392 1.384 . S
C3394 C3395 1.372 . S
C3395 C3394 1.372 . S
C3395 C3396 1.400 . S
C3395 C3400 1.490 . S
C3396 H3386 0.930 . S
C3396 C3395 1.400 . S
C3396 C3399 1.386 . S
H3397 C3413 0.930 . S
H3398 C3414 0.931 . S
C3399 H3387 0.929 . S
C3399 C3393 1.390 . S
C3399 C3396 1.386 . S
C3400 C3395 1.490 . S
C3400 C3402 1.395 . S
C3400 C3403 1.403 . S
H3401 C3407 0.930 . S
C3402 H3388 0.930 . S
C3402 C3400 1.395 . S
C3402 C3405 1.403 . S
C3403 C3400 1.403 . S
C3403 C3404 1.524 . S
C3403 C3407 1.400 . S
C3404 H3389 0.960 . S
C3404 H3390 0.960 . S
C3404 H3391 0.960 . S
C3404 C3403 1.524 . S
C3405 C3402 1.403 . S
C3405 C3406 1.392 . S
C3405 C3409 1.495 . S
C3406 C3405 1.392 . S
C3406 C3407 1.385 . S
C3406 C3408 1.478 . S
C3407 H3401 0.930 . S
C3407 C3403 1.400 . S
C3407 C3406 1.385 . S
C3408 C3406 1.478 . S
C3408 C3410 1.381 . S
C3408 C3414 1.383 . S
C3409 C3405 1.495 . S
C3409 H3415 0.959 . S
C3409 H3416 0.961 . S
C3409 H3417 0.960 . S
C3410 C3408 1.381 . S
C3410 C3411 1.394 . S
C3410 H3418 0.930 . S
C3411 C3410 1.394 . S
C3411 C3412 1.383 . S
C3411 H3419 0.929 . S
C3412 C3411 1.383 . S
C3412 C3413 1.377 . S
C3413 H3397 0.930 . S
C3413 C3412 1.377 . S
C3413 C3414 1.379 . S
C3414 H3398 0.931 . S
C3414 C3408 1.383 . S
C3414 C3413 1.379 . S
H3415 C3409 0.959 . S
H3416 C3409 0.961 . S
H3417 C3409 0.960 . S
H3418 C3410 0.930 . S
H3419 C3411 0.929 . S
H3420 C3428 0.929 . S
H3421 C3430 0.930 . S
H3422 C3432 0.930 . S
H3423 C3435 0.929 . S
H3424 C3438 0.930 . S
H3425 C3440 0.960 . S
H3426 C3440 0.960 . S
H3427 C3440 0.960 . S
C3428 H3420 0.929 . S
C3428 C3429 1.377 . S
C3428 C3430 1.384 . S
C3429 C3428 1.377 . S
C3429 C3435 1.390 . S
C3430 H3421 0.930 . S
C3430 C3428 1.384 . S
C3430 C3431 1.372 . S
C3431 C3430 1.372 . S
C3431 C3432 1.400 . S
C3431 C3436 1.490 . S
C3432 H3422 0.930 . S
C3432 C3431 1.400 . S
C3432 C3435 1.386 . S
H3433 C3449 0.930 . S
H3434 C3450 0.931 . S
C3435 H3423 0.929 . S
C3435 C3429 1.390 . S
C3435 C3432 1.386 . S
C3436 C3431 1.490 . S
C3436 C3438 1.395 . S
C3436 C3439 1.403 . S
H3437 C3443 0.930 . S
C3438 H3424 0.930 . S
C3438 C3436 1.395 . S
C3438 C3441 1.403 . S
C3439 C3436 1.403 . S
C3439 C3440 1.524 . S
C3439 C3443 1.400 . S
C3440 H3425 0.960 . S
C3440 H3426 0.960 . S
C3440 H3427 0.960 . S
C3440 C3439 1.524 . S
C3441 C3438 1.403 . S
C3441 C3442 1.392 . S
C3441 C3445 1.495 . S
C3442 C3441 1.392 . S
C3442 C3443 1.385 . S
C3442 C3444 1.478 . S
C3443 H3437 0.930 . S
C3443 C3439 1.400 . S
C3443 C3442 1.385 . S
C3444 C3442 1.478 . S
C3444 C3446 1.381 . S
C3444 C3450 1.383 . S
C3445 C3441 1.495 . S
C3445 H3451 0.959 . S
C3445 H3452 0.961 . S
C3445 H3453 0.960 . S
C3446 C3444 1.381 . S
C3446 C3447 1.394 . S
C3446 H3454 0.930 . S
C3447 C3446 1.394 . S
C3447 C3448 1.383 . S
C3447 H3455 0.929 . S
C3448 C3447 1.383 . S
C3448 C3449 1.377 . S
C3449 H3433 0.930 . S
C3449 C3448 1.377 . S
C3449 C3450 1.379 . S
C3450 H3434 0.931 . S
C3450 C3444 1.383 . S
C3450 C3449 1.379 . S
H3451 C3445 0.959 . S
H3452 C3445 0.961 . S
H3453 C3445 0.960 . S
H3454 C3446 0.930 . S
H3455 C3447 0.929 . S
H3456 C3464 0.929 . S
H3457 C3466 0.930 . S
H3458 C3468 0.930 . S
H3459 C3471 0.929 . S
H3460 C3474 0.930 . S
H3461 C3476 0.960 . S
H3462 C3476 0.960 . S
H3463 C3476 0.960 . S
C3464 H3456 0.929 . S
C3464 C3465 1.377 . S
C3464 C3466 1.384 . S
C3465 C3464 1.377 . S
C3465 C3471 1.390 . S
C3466 H3457 0.930 . S
C3466 C3464 1.384 . S
C3466 C3467 1.372 . S
C3467 C3466 1.372 . S
C3467 C3468 1.400 . S
C3467 C3472 1.490 . S
C3468 H3458 0.930 . S
C3468 C3467 1.400 . S
C3468 C3471 1.386 . S
H3469 C3485 0.930 . S
H3470 C3486 0.931 . S
C3471 H3459 0.929 . S
C3471 C3465 1.390 . S
C3471 C3468 1.386 . S
C3472 C3467 1.490 . S
C3472 C3474 1.395 . S
C3472 C3475 1.403 . S
H3473 C3479 0.930 . S
C3474 H3460 0.930 . S
C3474 C3472 1.395 . S
C3474 C3477 1.403 . S
C3475 C3472 1.403 . S
C3475 C3476 1.524 . S
C3475 C3479 1.400 . S
C3476 H3461 0.960 . S
C3476 H3462 0.960 . S
C3476 H3463 0.960 . S
C3476 C3475 1.524 . S
C3477 C3474 1.403 . S
C3477 C3478 1.392 . S
C3477 C3481 1.495 . S
C3478 C3477 1.392 . S
C3478 C3479 1.385 . S
C3478 C3480 1.478 . S
C3479 H3473 0.930 . S
C3479 C3475 1.400 . S
C3479 C3478 1.385 . S
C3480 C3478 1.478 . S
C3480 C3482 1.381 . S
C3480 C3486 1.383 . S
C3481 C3477 1.495 . S
C3481 H3487 0.959 . S
C3481 H3488 0.961 . S
C3481 H3489 0.960 . S
C3482 C3480 1.381 . S
C3482 C3483 1.394 . S
C3482 H3490 0.930 . S
C3483 C3482 1.394 . S
C3483 C3484 1.383 . S
C3483 H3491 0.929 . S
C3484 C3483 1.383 . S
C3484 C3485 1.377 . S
C3485 H3469 0.930 . S
C3485 C3484 1.377 . S
C3485 C3486 1.379 . S
C3486 H3470 0.931 . S
C3486 C3480 1.383 . S
C3486 C3485 1.379 . S
H3487 C3481 0.959 . S
H3488 C3481 0.961 . S
H3489 C3481 0.960 . S
H3490 C3482 0.930 . S
H3491 C3483 0.929 . S
H3492 C3500 0.929 . S
H3493 C3502 0.930 . S
H3494 C3504 0.930 . S
H3495 C3507 0.929 . S
H3496 C3510 0.930 . S
H3497 C3512 0.960 . S
H3498 C3512 0.960 . S
H3499 C3512 0.960 . S
C3500 H3492 0.929 . S
C3500 C3501 1.377 . S
C3500 C3502 1.384 . S
C3501 C3500 1.377 . S
C3501 C3507 1.390 . S
C3502 H3493 0.930 . S
C3502 C3500 1.384 . S
C3502 C3503 1.372 . S
C3503 C3502 1.372 . S
C3503 C3504 1.400 . S
C3503 C3508 1.490 . S
C3504 H3494 0.930 . S
C3504 C3503 1.400 . S
C3504 C3507 1.386 . S
H3505 C3521 0.930 . S
H3506 C3522 0.931 . S
C3507 H3495 0.929 . S
C3507 C3501 1.390 . S
C3507 C3504 1.386 . S
C3508 C3503 1.490 . S
C3508 C3510 1.395 . S
C3508 C3511 1.403 . S
H3509 C3515 0.930 . S
C3510 H3496 0.930 . S
C3510 C3508 1.395 . S
C3510 C3513 1.403 . S
C3511 C3508 1.403 . S
C3511 C3512 1.524 . S
C3511 C3515 1.400 . S
C3512 H3497 0.960 . S
C3512 H3498 0.960 . S
C3512 H3499 0.960 . S
C3512 C3511 1.524 . S
C3513 C3510 1.403 . S
C3513 C3514 1.392 . S
C3513 C3517 1.495 . S
C3514 C3513 1.392 . S
C3514 C3515 1.385 . S
C3514 C3516 1.478 . S
C3515 H3509 0.930 . S
C3515 C3511 1.400 . S
C3515 C3514 1.385 . S
C3516 C3514 1.478 . S
C3516 C3518 1.381 . S
C3516 C3522 1.383 . S
C3517 C3513 1.495 . S
C3517 H3523 0.959 . S
C3517 H3524 0.961 . S
C3517 H3525 0.960 . S
C3518 C3516 1.381 . S
C3518 C3519 1.394 . S
C3518 H3526 0.930 . S
C3519 C3518 1.394 . S
C3519 C3520 1.383 . S
C3519 H3527 0.929 . S
C3520 C3519 1.383 . S
C3520 C3521 1.377 . S
C3521 H3505 0.930 . S
C3521 C3520 1.377 . S
C3521 C3522 1.379 . S
C3522 H3506 0.931 . S
C3522 C3516 1.383 . S
C3522 C3521 1.379 . S
H3523 C3517 0.959 . S
H3524 C3517 0.961 . S
H3525 C3517 0.960 . S
H3526 C3518 0.930 . S
H3527 C3519 0.929 . S
H3528 C3536 0.929 . S
H3529 C3538 0.930 . S
H3530 C3540 0.930 . S
H3531 C3543 0.929 . S
H3532 C3546 0.930 . S
H3533 C3548 0.960 . S
H3534 C3548 0.960 . S
H3535 C3548 0.960 . S
C3536 H3528 0.929 . S
C3536 C3537 1.377 . S
C3536 C3538 1.384 . S
C3537 C3536 1.377 . S
C3537 C3543 1.390 . S
C3538 H3529 0.930 . S
C3538 C3536 1.384 . S
C3538 C3539 1.372 . S
C3539 C3538 1.372 . S
C3539 C3540 1.400 . S
C3539 C3544 1.490 . S
C3540 H3530 0.930 . S
C3540 C3539 1.400 . S
C3540 C3543 1.386 . S
H3541 C3557 0.930 . S
H3542 C3558 0.931 . S
C3543 H3531 0.929 . S
C3543 C3537 1.390 . S
C3543 C3540 1.386 . S
C3544 C3539 1.490 . S
C3544 C3546 1.395 . S
C3544 C3547 1.403 . S
H3545 C3551 0.930 . S
C3546 H3532 0.930 . S
C3546 C3544 1.395 . S
C3546 C3549 1.403 . S
C3547 C3544 1.403 . S
C3547 C3548 1.524 . S
C3547 C3551 1.400 . S
C3548 H3533 0.960 . S
C3548 H3534 0.960 . S
C3548 H3535 0.960 . S
C3548 C3547 1.524 . S
C3549 C3546 1.403 . S
C3549 C3550 1.392 . S
C3549 C3553 1.495 . S
C3550 C3549 1.392 . S
C3550 C3551 1.385 . S
C3550 C3552 1.478 . S
C3551 H3545 0.930 . S
C3551 C3547 1.400 . S
C3551 C3550 1.385 . S
C3552 C3550 1.478 . S
C3552 C3554 1.381 . S
C3552 C3558 1.383 . S
C3553 C3549 1.495 . S
C3553 H3559 0.959 . S
C3553 H3560 0.961 . S
C3553 H3561 0.960 . S
C3554 C3552 1.381 . S
C3554 C3555 1.394 . S
C3554 H3562 0.930 . S
C3555 C3554 1.394 . S
C3555 C3556 1.383 . S
C3555 H3563 0.929 . S
C3556 C3555 1.383 . S
C3556 C3557 1.377 . S
C3557 H3541 0.930 . S
C3557 C3556 1.377 . S
C3557 C3558 1.379 . S
C3558 H3542 0.931 . S
C3558 C3552 1.383 . S
C3558 C3557 1.379 . S
H3559 C3553 0.959 . S
H3560 C3553 0.961 . S
H3561 C3553 0.960 . S
H3562 C3554 0.930 . S
H3563 C3555 0.929 . S
H3564 C3572 0.929 . S
H3565 C3574 0.930 . S
H3566 C3576 0.930 . S
H3567 C3579 0.929 . S
H3568 C3582 0.930 . S
H3569 C3584 0.960 . S
H3570 C3584 0.960 . S
H3571 C3584 0.960 . S
C3572 H3564 0.929 . S
C3572 C3573 1.377 . S
C3572 C3574 1.384 . S
C3573 C3572 1.377 . S
C3573 C3579 1.390 . S
C3574 H3565 0.930 . S
C3574 C3572 1.384 . S
C3574 C3575 1.372 . S
C3575 C3574 1.372 . S
C3575 C3576 1.400 . S
C3575 C3580 1.490 . S
C3576 H3566 0.930 . S
C3576 C3575 1.400 . S
C3576 C3579 1.386 . S
H3577 C3593 0.930 . S
H3578 C3594 0.931 . S
C3579 H3567 0.929 . S
C3579 C3573 1.390 . S
C3579 C3576 1.386 . S
C3580 C3575 1.490 . S
C3580 C3582 1.395 . S
C3580 C3583 1.403 . S
H3581 C3587 0.930 . S
C3582 H3568 0.930 . S
C3582 C3580 1.395 . S
C3582 C3585 1.403 . S
C3583 C3580 1.403 . S
C3583 C3584 1.524 . S
C3583 C3587 1.400 . S
C3584 H3569 0.960 . S
C3584 H3570 0.960 . S
C3584 H3571 0.960 . S
C3584 C3583 1.524 . S
C3585 C3582 1.403 . S
C3585 C3586 1.392 . S
C3585 C3589 1.495 . S
C3586 C3585 1.392 . S
C3586 C3587 1.385 . S
C3586 C3588 1.478 . S
C3587 H3581 0.930 . S
C3587 C3583 1.400 . S
C3587 C3586 1.385 . S
C3588 C3586 1.478 . S
C3588 C3590 1.381 . S
C3588 C3594 1.383 . S
C3589 C3585 1.495 . S
C3589 H3595 0.959 . S
C3589 H3596 0.961 . S
C3589 H3597 0.960 . S
C3590 C3588 1.381 . S
C3590 C3591 1.394 . S
C3590 H3598 0.930 . S
C3591 C3590 1.394 . S
C3591 C3592 1.383 . S
C3591 H3599 0.929 . S
C3592 C3591 1.383 . S
C3592 C3593 1.377 . S
C3593 H3577 0.930 . S
C3593 C3592 1.377 . S
C3593 C3594 1.379 . S
C3594 H3578 0.931 . S
C3594 C3588 1.383 . S
C3594 C3593 1.379 . S
H3595 C3589 0.959 . S
H3596 C3589 0.961 . S
H3597 C3589 0.960 . S
H3598 C3590 0.930 . S
H3599 C3591 0.929 . S
H3600 C3608 0.929 . S
H3601 C3610 0.930 . S
H3602 C3612 0.930 . S
H3603 C3615 0.929 . S
H3604 C3618 0.930 . S
H3605 C3620 0.960 . S
H3606 C3620 0.960 . S
H3607 C3620 0.960 . S
C3608 H3600 0.929 . S
C3608 C3609 1.377 . S
C3608 C3610 1.384 . S
C3609 C3608 1.377 . S
C3609 C3615 1.390 . S
C3610 H3601 0.930 . S
C3610 C3608 1.384 . S
C3610 C3611 1.372 . S
C3611 C3610 1.372 . S
C3611 C3612 1.400 . S
C3611 C3616 1.490 . S
C3612 H3602 0.930 . S
C3612 C3611 1.400 . S
C3612 C3615 1.386 . S
H3613 C3629 0.930 . S
H3614 C3630 0.931 . S
C3615 H3603 0.929 . S
C3615 C3609 1.390 . S
C3615 C3612 1.386 . S
C3616 C3611 1.490 . S
C3616 C3618 1.395 . S
C3616 C3619 1.403 . S
H3617 C3623 0.930 . S
C3618 H3604 0.930 . S
C3618 C3616 1.395 . S
C3618 C3621 1.403 . S
C3619 C3616 1.403 . S
C3619 C3620 1.524 . S
C3619 C3623 1.400 . S
C3620 H3605 0.960 . S
C3620 H3606 0.960 . S
C3620 H3607 0.960 . S
C3620 C3619 1.524 . S
C3621 C3618 1.403 . S
C3621 C3622 1.392 . S
C3621 C3625 1.495 . S
C3622 C3621 1.392 . S
C3622 C3623 1.385 . S
C3622 C3624 1.478 . S
C3623 H3617 0.930 . S
C3623 C3619 1.400 . S
C3623 C3622 1.385 . S
C3624 C3622 1.478 . S
C3624 C3626 1.381 . S
C3624 C3630 1.383 . S
C3625 C3621 1.495 . S
C3625 H3631 0.959 . S
C3625 H3632 0.961 . S
C3625 H3633 0.960 . S
C3626 C3624 1.381 . S
C3626 C3627 1.394 . S
C3626 H3634 0.930 . S
C3627 C3626 1.394 . S
C3627 C3628 1.383 . S
C3627 H3635 0.929 . S
C3628 C3627 1.383 . S
C3628 C3629 1.377 . S
C3629 H3613 0.930 . S
C3629 C3628 1.377 . S
C3629 C3630 1.379 . S
C3630 H3614 0.931 . S
C3630 C3624 1.383 . S
C3630 C3629 1.379 . S
H3631 C3625 0.959 . S
H3632 C3625 0.961 . S
H3633 C3625 0.960 . S
H3634 C3626 0.930 . S
H3635 C3627 0.929 . S
H3636 C3644 0.929 . S
H3637 C3646 0.930 . S
H3638 C3648 0.930 . S
H3639 C3651 0.929 . S
H3640 C3654 0.930 . S
H3641 C3656 0.960 . S
H3642 C3656 0.960 . S
H3643 C3656 0.960 . S
C3644 H3636 0.929 . S
C3644 C3645 1.377 . S
C3644 C3646 1.384 . S
C3645 C3644 1.377 . S
C3645 C3651 1.390 . S
C3646 H3637 0.930 . S
C3646 C3644 1.384 . S
C3646 C3647 1.372 . S
C3647 C3646 1.372 . S
C3647 C3648 1.400 . S
C3647 C3652 1.490 . S
C3648 H3638 0.930 . S
C3648 C3647 1.400 . S
C3648 C3651 1.386 . S
H3649 C3665 0.930 . S
H3650 C3666 0.931 . S
C3651 H3639 0.929 . S
C3651 C3645 1.390 . S
C3651 C3648 1.386 . S
C3652 C3647 1.490 . S
C3652 C3654 1.395 . S
C3652 C3655 1.403 . S
H3653 C3659 0.930 . S
C3654 H3640 0.930 . S
C3654 C3652 1.395 . S
C3654 C3657 1.403 . S
C3655 C3652 1.403 . S
C3655 C3656 1.524 . S
C3655 C3659 1.400 . S
C3656 H3641 0.960 . S
C3656 H3642 0.960 . S
C3656 H3643 0.960 . S
C3656 C3655 1.524 . S
C3657 C3654 1.403 . S
C3657 C3658 1.392 . S
C3657 C3661 1.495 . S
C3658 C3657 1.392 . S
C3658 C3659 1.385 . S
C3658 C3660 1.478 . S
C3659 H3653 0.930 . S
C3659 C3655 1.400 . S
C3659 C3658 1.385 . S
C3660 C3658 1.478 . S
C3660 C3662 1.381 . S
C3660 C3666 1.383 . S
C3661 C3657 1.495 . S
C3661 H3667 0.959 . S
C3661 H3668 0.961 . S
C3661 H3669 0.960 . S
C3662 C3660 1.381 . S
C3662 C3663 1.394 . S
C3662 H3670 0.930 . S
C3663 C3662 1.394 . S
C3663 C3664 1.383 . S
C3663 H3671 0.929 . S
C3664 C3663 1.383 . S
C3664 C3665 1.377 . S
C3665 H3649 0.930 . S
C3665 C3664 1.377 . S
C3665 C3666 1.379 . S
C3666 H3650 0.931 . S
C3666 C3660 1.383 . S
C3666 C3665 1.379 . S
H3667 C3661 0.959 . S
H3668 C3661 0.961 . S
H3669 C3661 0.960 . S
H3670 C3662 0.930 . S
H3671 C3663 0.929 . S
H3672 C3680 0.929 . S
H3673 C3682 0.930 . S
H3674 C3684 0.930 . S
H3675 C3687 0.929 . S
H3676 C3690 0.930 . S
H3677 C3692 0.960 . S
H3678 C3692 0.960 . S
H3679 C3692 0.960 . S
C3680 H3672 0.929 . S
C3680 C3681 1.377 . S
C3680 C3682 1.384 . S
C3681 C3680 1.377 . S
C3681 C3687 1.390 . S
C3682 H3673 0.930 . S
C3682 C3680 1.384 . S
C3682 C3683 1.372 . S
C3683 C3682 1.372 . S
C3683 C3684 1.400 . S
C3683 C3688 1.490 . S
C3684 H3674 0.930 . S
C3684 C3683 1.400 . S
C3684 C3687 1.386 . S
H3685 C3701 0.930 . S
H3686 C3702 0.931 . S
C3687 H3675 0.929 . S
C3687 C3681 1.390 . S
C3687 C3684 1.386 . S
C3688 C3683 1.490 . S
C3688 C3690 1.395 . S
C3688 C3691 1.403 . S
H3689 C3695 0.930 . S
C3690 H3676 0.930 . S
C3690 C3688 1.395 . S
C3690 C3693 1.403 . S
C3691 C3688 1.403 . S
C3691 C3692 1.524 . S
C3691 C3695 1.400 . S
C3692 H3677 0.960 . S
C3692 H3678 0.960 . S
C3692 H3679 0.960 . S
C3692 C3691 1.524 . S
C3693 C3690 1.403 . S
C3693 C3694 1.392 . S
C3693 C3697 1.495 . S
C3694 C3693 1.392 . S
C3694 C3695 1.385 . S
C3694 C3696 1.478 . S
C3695 H3689 0.930 . S
C3695 C3691 1.400 . S
C3695 C3694 1.385 . S
C3696 C3694 1.478 . S
C3696 C3698 1.381 . S
C3696 C3702 1.383 . S
C3697 C3693 1.495 . S
C3697 H3703 0.959 . S
C3697 H3704 0.961 . S
C3697 H3705 0.960 . S
C3698 C3696 1.381 . S
C3698 C3699 1.394 . S
C3698 H3706 0.930 . S
C3699 C3698 1.394 . S
C3699 C3700 1.383 . S
C3699 H3707 0.929 . S
C3700 C3699 1.383 . S
C3700 C3701 1.377 . S
C3701 H3685 0.930 . S
C3701 C3700 1.377 . S
C3701 C3702 1.379 . S
C3702 H3686 0.931 . S
C3702 C3696 1.383 . S
C3702 C3701 1.379 . S
H3703 C3697 0.959 . S
H3704 C3697 0.961 . S
H3705 C3697 0.960 . S
H3706 C3698 0.930 . S
H3707 C3699 0.929 . S
H3708 C3716 0.929 . S
H3709 C3718 0.930 . S
H3710 C3720 0.930 . S
H3711 C3723 0.929 . S
H3712 C3726 0.930 . S
H3713 C3728 0.960 . S
H3714 C3728 0.960 . S
H3715 C3728 0.960 . S
C3716 H3708 0.929 . S
C3716 C3717 1.377 . S
C3716 C3718 1.384 . S
C3717 C3716 1.377 . S
C3717 C3723 1.390 . S
C3718 H3709 0.930 . S
C3718 C3716 1.384 . S
C3718 C3719 1.372 . S
C3719 C3718 1.372 . S
C3719 C3720 1.400 . S
C3719 C3724 1.490 . S
C3720 H3710 0.930 . S
C3720 C3719 1.400 . S
C3720 C3723 1.386 . S
H3721 C3737 0.930 . S
H3722 C3738 0.931 . S
C3723 H3711 0.929 . S
C3723 C3717 1.390 . S
C3723 C3720 1.386 . S
C3724 C3719 1.490 . S
C3724 C3726 1.395 . S
C3724 C3727 1.403 . S
H3725 C3731 0.930 . S
C3726 H3712 0.930 . S
C3726 C3724 1.395 . S
C3726 C3729 1.403 . S
C3727 C3724 1.403 . S
C3727 C3728 1.524 . S
C3727 C3731 1.400 . S
C3728 H3713 0.960 . S
C3728 H3714 0.960 . S
C3728 H3715 0.960 . S
C3728 C3727 1.524 . S
C3729 C3726 1.403 . S
C3729 C3730 1.392 . S
C3729 C3733 1.495 . S
C3730 C3729 1.392 . S
C3730 C3731 1.385 . S
C3730 C3732 1.478 . S
C3731 H3725 0.930 . S
C3731 C3727 1.400 . S
C3731 C3730 1.385 . S
C3732 C3730 1.478 . S
C3732 C3734 1.381 . S
C3732 C3738 1.383 . S
C3733 C3729 1.495 . S
C3733 H3739 0.959 . S
C3733 H3740 0.961 . S
C3733 H3741 0.960 . S
C3734 C3732 1.381 . S
C3734 C3735 1.394 . S
C3734 H3742 0.930 . S
C3735 C3734 1.394 . S
C3735 C3736 1.383 . S
C3735 H3743 0.929 . S
C3736 C3735 1.383 . S
C3736 C3737 1.377 . S
C3737 H3721 0.930 . S
C3737 C3736 1.377 . S
C3737 C3738 1.379 . S
C3738 H3722 0.931 . S
C3738 C3732 1.383 . S
C3738 C3737 1.379 . S
H3739 C3733 0.959 . S
H3740 C3733 0.961 . S
H3741 C3733 0.960 . S
H3742 C3734 0.930 . S
H3743 C3735 0.929 . S
H3744 C3752 0.986 . S
H3745 C3754 0.930 . S
H3746 C3756 0.930 . S
H3747 C3759 0.929 . S
H3748 C3762 0.930 . S
H3749 C3764 0.960 . S
H3750 C3764 0.960 . S
H3751 C3764 0.960 . S
C3752 H3744 0.986 . S
C3752 C3753 1.377 . S
C3752 C3754 1.384 . S
C3753 C3752 1.377 . S
C3753 C3759 1.390 . S
C3754 H3745 0.930 . S
C3754 C3752 1.384 . S
C3754 C3755 1.372 . S
C3755 C3754 1.372 . S
C3755 C3756 1.400 . S
C3755 C3760 1.490 . S
C3756 H3746 0.930 . S
C3756 C3755 1.400 . S
C3756 C3759 1.386 . S
H3757 C3773 0.930 . S
H3758 C3774 0.931 . S
C3759 H3747 0.929 . S
C3759 C3753 1.390 . S
C3759 C3756 1.386 . S
C3760 C3755 1.490 . S
C3760 C3762 1.395 . S
C3760 C3763 1.403 . S
H3761 C3767 0.930 . S
C3762 H3748 0.930 . S
C3762 C3760 1.395 . S
C3762 C3765 1.403 . S
C3763 C3760 1.403 . S
C3763 C3764 1.524 . S
C3763 C3767 1.400 . S
C3764 H3749 0.960 . S
C3764 H3750 0.960 . S
C3764 H3751 0.960 . S
C3764 C3763 1.524 . S
C3765 C3762 1.403 . S
C3765 C3766 1.392 . S
C3765 C3769 1.495 . S
C3766 C3765 1.392 . S
C3766 C3767 1.385 . S
C3766 C3768 1.478 . S
C3767 H3761 0.930 . S
C3767 C3763 1.400 . S
C3767 C3766 1.385 . S
C3768 C3766 1.478 . S
C3768 C3770 1.381 . S
C3768 C3774 1.383 . S
C3769 C3765 1.495 . S
C3769 H3775 0.959 . S
C3769 H3776 0.961 . S
C3769 H3777 0.960 . S
C3770 C3768 1.381 . S
C3770 C3771 1.394 . S
C3770 H3778 0.930 . S
C3771 C3770 1.394 . S
C3771 C3772 1.383 . S
C3771 H3779 0.929 . S
C3772 C3771 1.383 . S
C3772 C3773 1.377 . S
C3773 H3757 0.930 . S
C3773 C3772 1.377 . S
C3773 C3774 1.379 . S
C3774 H3758 0.931 . S
C3774 C3768 1.383 . S
C3774 C3773 1.379 . S
H3775 C3769 0.959 . S
H3776 C3769 0.961 . S
H3777 C3769 0.960 . S
H3778 C3770 0.930 . S
H3779 C3771 0.929 . S
H3780 C3788 0.920 1_554 S
H3781 C3790 0.930 . S
H3782 C3792 0.930 . S
H3783 C3795 0.929 . S
H3784 C3798 0.930 . S
H3785 C3800 0.960 . S
H3786 C3800 0.960 . S
H3787 C3800 0.960 . S
C3788 H3780 0.920 1_556 S
C3788 C3789 1.378 . S
C3788 C3790 1.393 . S
C3789 C3788 1.378 . S
C3789 C3795 1.390 . S
C3790 H3781 0.930 . S
C3790 C3788 1.393 . S
C3790 C3791 1.372 . S
C3791 C3790 1.372 . S
C3791 C3792 1.400 . S
C3791 C3796 1.490 . S
C3792 H3782 0.930 . S
C3792 C3791 1.400 . S
C3792 C3795 1.386 . S
H3793 C3809 0.930 . S
H3794 C3810 0.931 . S
C3795 H3783 0.929 . S
C3795 C3789 1.390 . S
C3795 C3792 1.386 . S
C3796 C3791 1.490 . S
C3796 C3798 1.395 . S
C3796 C3799 1.403 . S
H3797 C3803 0.930 . S
C3798 H3784 0.930 . S
C3798 C3796 1.395 . S
C3798 C3801 1.403 . S
C3799 C3796 1.403 . S
C3799 C3800 1.524 . S
C3799 C3803 1.400 . S
C3800 H3785 0.960 . S
C3800 H3786 0.960 . S
C3800 H3787 0.960 . S
C3800 C3799 1.524 . S
C3801 C3798 1.403 . S
C3801 C3802 1.392 . S
C3801 C3805 1.495 . S
C3802 C3801 1.392 . S
C3802 C3803 1.385 . S
C3802 C3804 1.478 . S
C3803 H3797 0.930 . S
C3803 C3799 1.400 . S
C3803 C3802 1.385 . S
C3804 C3802 1.478 . S
C3804 C3806 1.381 . S
C3804 C3810 1.383 . S
C3805 C3801 1.495 . S
C3805 H3811 0.959 . S
C3805 H3812 0.961 . S
C3805 H3813 0.960 . S
C3806 C3804 1.381 . S
C3806 C3807 1.394 . S
C3806 H3814 0.930 . S
C3807 C3806 1.394 . S
C3807 C3808 1.383 . S
C3807 H3815 0.929 . S
C3808 C3807 1.383 . S
C3808 C3809 1.377 . S
C3809 H3793 0.930 . S
C3809 C3808 1.377 . S
C3809 C3810 1.379 . S
C3810 H3794 0.931 . S
C3810 C3804 1.383 . S
C3810 C3809 1.379 . S
H3811 C3805 0.959 . S
H3812 C3805 0.961 . S
H3813 C3805 0.960 . S
H3814 C3806 0.930 . S
H3815 C3807 0.929 . S
H3816 C3824 0.929 . S
H3817 C3826 0.930 . S
H3818 C3828 0.930 . S
H3819 C3831 0.929 1_554 S
H3820 C3834 0.930 . S
H3821 C3836 0.960 . S
H3822 C3836 0.960 . S
H3823 C3836 0.960 . S
C3824 H3816 0.929 . S
C3824 C3825 1.377 . S
C3824 C3826 1.384 . S
C3825 C3824 1.377 . S
C3825 C3831 1.390 . S
C3826 H3817 0.930 . S
C3826 C3824 1.384 . S
C3826 C3827 1.372 . S
C3827 C3826 1.372 . S
C3827 C3828 1.400 . S
C3827 C3832 1.490 . S
C3828 H3818 0.930 . S
C3828 C3827 1.400 . S
C3828 C3831 1.386 . S
H3829 C3845 0.930 . S
H3830 C3846 0.931 . S
C3831 H3819 0.929 1_556 S
C3831 C3825 1.390 . S
C3831 C3828 1.386 . S
C3832 C3827 1.490 . S
C3832 C3834 1.395 . S
C3832 C3835 1.403 . S
H3833 C3839 0.930 . S
C3834 H3820 0.930 . S
C3834 C3832 1.395 . S
C3834 C3837 1.403 . S
C3835 C3832 1.403 . S
C3835 C3836 1.524 . S
C3835 C3839 1.400 . S
C3836 H3821 0.960 . S
C3836 H3822 0.960 . S
C3836 H3823 0.960 . S
C3836 C3835 1.524 . S
C3837 C3834 1.403 . S
C3837 C3838 1.392 . S
C3837 C3841 1.495 . S
C3838 C3837 1.392 . S
C3838 C3839 1.385 . S
C3838 C3840 1.478 . S
C3839 H3833 0.930 . S
C3839 C3835 1.400 . S
C3839 C3838 1.385 . S
C3840 C3838 1.478 . S
C3840 C3842 1.381 . S
C3840 C3846 1.383 . S
C3841 C3837 1.495 . S
C3841 H3847 0.959 . S
C3841 H3848 0.961 . S
C3841 H3849 0.960 . S
C3842 C3840 1.381 . S
C3842 C3843 1.394 . S
C3842 H3850 0.930 . S
C3843 C3842 1.394 . S
C3843 C3844 1.383 . S
C3843 H3851 0.929 . S
C3844 C3843 1.383 . S
C3844 C3845 1.377 . S
C3845 H3829 0.930 . S
C3845 C3844 1.377 . S
C3845 C3846 1.379 . S
C3846 H3830 0.931 . S
C3846 C3840 1.383 . S
C3846 C3845 1.379 . S
H3847 C3841 0.959 . S
H3848 C3841 0.961 . S
H3849 C3841 0.960 . S
H3850 C3842 0.930 . S
H3851 C3843 0.929 . S
H3852 C3860 0.929 . S
H3853 C3862 0.930 . S
H3854 C3864 0.930 . S
H3855 C3867 0.929 . S
H3856 C3870 0.930 . S
H3857 C3872 0.960 . S
H3858 C3872 0.960 . S
H3859 C3872 0.960 . S
C3860 H3852 0.929 . S
C3860 C3861 1.377 . S
C3860 C3862 1.384 . S
C3861 C3860 1.377 . S
C3861 C3867 1.390 . S
C3862 H3853 0.930 . S
C3862 C3860 1.384 . S
C3862 C3863 1.372 . S
C3863 C3862 1.372 . S
C3863 C3864 1.400 . S
C3863 C3868 1.490 . S
C3864 H3854 0.930 . S
C3864 C3863 1.400 . S
C3864 C3867 1.386 . S
H3865 C3881 0.930 . S
H3866 C3882 0.931 . S
C3867 H3855 0.929 . S
C3867 C3861 1.390 . S
C3867 C3864 1.386 . S
C3868 C3863 1.490 . S
C3868 C3870 1.395 . S
C3868 C3871 1.403 . S
H3869 C3875 0.930 . S
C3870 H3856 0.930 . S
C3870 C3868 1.395 . S
C3870 C3873 1.403 . S
C3871 C3868 1.403 . S
C3871 C3872 1.524 . S
C3871 C3875 1.400 . S
C3872 H3857 0.960 . S
C3872 H3858 0.960 . S
C3872 H3859 0.960 . S
C3872 C3871 1.524 . S
C3873 C3870 1.403 . S
C3873 C3874 1.392 . S
C3873 C3877 1.495 . S
C3874 C3873 1.392 . S
C3874 C3875 1.385 . S
C3874 C3876 1.478 . S
C3875 H3869 0.930 . S
C3875 C3871 1.400 . S
C3875 C3874 1.385 . S
C3876 C3874 1.478 . S
C3876 C3878 1.381 . S
C3876 C3882 1.383 . S
C3877 C3873 1.495 . S
C3877 H3883 0.959 . S
C3877 H3884 0.961 . S
C3877 H3885 0.960 . S
C3878 C3876 1.381 . S
C3878 C3879 1.394 . S
C3878 H3886 0.930 . S
C3879 C3878 1.394 . S
C3879 C3880 1.383 . S
C3879 H3887 0.929 . S
C3880 C3879 1.383 . S
C3880 C3881 1.377 . S
C3881 H3865 0.930 . S
C3881 C3880 1.377 . S
C3881 C3882 1.379 . S
C3882 H3866 0.931 . S
C3882 C3876 1.383 . S
C3882 C3881 1.379 . S
H3883 C3877 0.959 . S
H3884 C3877 0.961 . S
H3885 C3877 0.960 . S
H3886 C3878 0.930 . S
H3887 C3879 0.929 . S
H3888 C3896 0.929 . S
H3889 C3898 0.930 . S
H3890 C3900 0.930 . S
H3891 C3903 0.929 . S
H3892 C3906 0.930 . S
H3893 C3908 0.960 . S
H3894 C3908 0.960 . S
H3895 C3908 0.960 . S
C3896 H3888 0.929 . S
C3896 C3897 1.377 . S
C3896 C3898 1.384 . S
C3897 C3896 1.377 . S
C3897 C3903 1.390 . S
C3898 H3889 0.930 . S
C3898 C3896 1.384 . S
C3898 C3899 1.372 . S
C3899 C3898 1.372 . S
C3899 C3900 1.400 . S
C3899 C3904 1.490 . S
C3900 H3890 0.930 . S
C3900 C3899 1.400 . S
C3900 C3903 1.386 . S
H3901 C3917 0.930 . S
H3902 C3918 0.931 . S
C3903 H3891 0.929 . S
C3903 C3897 1.390 . S
C3903 C3900 1.386 . S
C3904 C3899 1.490 . S
C3904 C3906 1.395 . S
C3904 C3907 1.403 . S
H3905 C3911 0.930 . S
C3906 H3892 0.930 . S
C3906 C3904 1.395 . S
C3906 C3909 1.403 . S
C3907 C3904 1.403 . S
C3907 C3908 1.524 . S
C3907 C3911 1.400 . S
C3908 H3893 0.960 . S
C3908 H3894 0.960 . S
C3908 H3895 0.960 . S
C3908 C3907 1.524 . S
C3909 C3906 1.403 . S
C3909 C3910 1.392 . S
C3909 C3913 1.495 . S
C3910 C3909 1.392 . S
C3910 C3911 1.385 . S
C3910 C3912 1.478 . S
C3911 H3905 0.930 . S
C3911 C3907 1.400 . S
C3911 C3910 1.385 . S
C3912 C3910 1.478 . S
C3912 C3914 1.381 . S
C3912 C3918 1.383 . S
C3913 C3909 1.495 . S
C3913 H3919 0.959 . S
C3913 H3920 0.961 . S
C3913 H3921 0.960 . S
C3914 C3912 1.381 . S
C3914 C3915 1.394 . S
C3914 H3922 0.930 . S
C3915 C3914 1.394 . S
C3915 C3916 1.383 . S
C3915 H3923 0.929 . S
C3916 C3915 1.383 . S
C3916 C3917 1.377 . S
C3917 H3901 0.930 . S
C3917 C3916 1.377 . S
C3917 C3918 1.379 . S
C3918 H3902 0.931 . S
C3918 C3912 1.383 . S
C3918 C3917 1.379 . S
H3919 C3913 0.959 . S
H3920 C3913 0.961 . S
H3921 C3913 0.960 . S
H3922 C3914 0.930 . S
H3923 C3915 0.929 . S
H3924 C3932 0.929 . S
H3925 C3934 0.930 . S
H3926 C3936 0.930 . S
H3927 C3939 0.929 . S
H3928 C3942 0.930 . S
H3929 C3944 0.960 . S
H3930 C3944 0.960 . S
H3931 C3944 0.960 . S
C3932 H3924 0.929 . S
C3932 C3933 1.377 . S
C3932 C3934 1.384 . S
C3933 C3932 1.377 . S
C3933 C3939 1.390 . S
C3934 H3925 0.930 . S
C3934 C3932 1.384 . S
C3934 C3935 1.372 . S
C3935 C3934 1.372 . S
C3935 C3936 1.400 . S
C3935 C3940 1.490 . S
C3936 H3926 0.930 . S
C3936 C3935 1.400 . S
C3936 C3939 1.386 . S
H3937 C3953 0.930 . S
H3938 C3954 0.931 . S
C3939 H3927 0.929 . S
C3939 C3933 1.390 . S
C3939 C3936 1.386 . S
C3940 C3935 1.490 . S
C3940 C3942 1.395 . S
C3940 C3943 1.403 . S
H3941 C3947 0.930 . S
C3942 H3928 0.930 . S
C3942 C3940 1.395 . S
C3942 C3945 1.403 . S
C3943 C3940 1.403 . S
C3943 C3944 1.524 . S
C3943 C3947 1.400 . S
C3944 H3929 0.960 . S
C3944 H3930 0.960 . S
C3944 H3931 0.960 . S
C3944 C3943 1.524 . S
C3945 C3942 1.403 . S
C3945 C3946 1.392 . S
C3945 C3949 1.495 . S
C3946 C3945 1.392 . S
C3946 C3947 1.385 . S
C3946 C3948 1.478 . S
C3947 H3941 0.930 . S
C3947 C3943 1.400 . S
C3947 C3946 1.385 . S
C3948 C3946 1.478 . S
C3948 C3950 1.381 . S
C3948 C3954 1.383 . S
C3949 C3945 1.495 . S
C3949 H3955 0.959 . S
C3949 H3956 0.961 . S
C3949 H3957 0.960 . S
C3950 C3948 1.381 . S
C3950 C3951 1.394 . S
C3950 H3958 0.930 . S
C3951 C3950 1.394 . S
C3951 C3952 1.383 . S
C3951 H3959 0.929 . S
C3952 C3951 1.383 . S
C3952 C3953 1.377 . S
C3953 H3937 0.930 . S
C3953 C3952 1.377 . S
C3953 C3954 1.379 . S
C3954 H3938 0.931 . S
C3954 C3948 1.383 . S
C3954 C3953 1.379 . S
H3955 C3949 0.959 . S
H3956 C3949 0.961 . S
H3957 C3949 0.960 . S
H3958 C3950 0.930 . S
H3959 C3951 0.929 . S
H3960 C3968 0.929 . S
H3961 C3970 0.930 . S
H3962 C3972 0.930 . S
H3963 C3975 0.929 . S
H3964 C3978 0.930 . S
H3965 C3980 0.960 . S
H3966 C3980 0.960 . S
H3967 C3980 0.960 . S
C3968 H3960 0.929 . S
C3968 C3969 1.377 . S
C3968 C3970 1.384 . S
C3969 C3968 1.377 . S
C3969 C3975 1.390 . S
C3970 H3961 0.930 . S
C3970 C3968 1.384 . S
C3970 C3971 1.372 . S
C3971 C3970 1.372 . S
C3971 C3972 1.400 . S
C3971 C3976 1.490 . S
C3972 H3962 0.930 . S
C3972 C3971 1.400 . S
C3972 C3975 1.386 . S
H3973 C3989 0.930 . S
H3974 C3990 0.931 . S
C3975 H3963 0.929 . S
C3975 C3969 1.390 . S
C3975 C3972 1.386 . S
C3976 C3971 1.490 . S
C3976 C3978 1.395 . S
C3976 C3979 1.403 . S
H3977 C3983 0.930 . S
C3978 H3964 0.930 . S
C3978 C3976 1.395 . S
C3978 C3981 1.403 . S
C3979 C3976 1.403 . S
C3979 C3980 1.524 . S
C3979 C3983 1.400 . S
C3980 H3965 0.960 . S
C3980 H3966 0.960 . S
C3980 H3967 0.960 . S
C3980 C3979 1.524 . S
C3981 C3978 1.403 . S
C3981 C3982 1.392 . S
C3981 C3985 1.495 . S
C3982 C3981 1.392 . S
C3982 C3983 1.385 . S
C3982 C3984 1.478 . S
C3983 H3977 0.930 . S
C3983 C3979 1.400 . S
C3983 C3982 1.385 . S
C3984 C3982 1.478 . S
C3984 C3986 1.381 . S
C3984 C3990 1.383 . S
C3985 C3981 1.495 . S
C3985 H3991 0.959 . S
C3985 H3992 0.961 . S
C3985 H3993 0.960 . S
C3986 C3984 1.381 . S
C3986 C3987 1.394 . S
C3986 H3994 0.930 . S
C3987 C3986 1.394 . S
C3987 C3988 1.383 . S
C3987 H3995 0.929 . S
C3988 C3987 1.383 . S
C3988 C3989 1.377 . S
C3989 H3973 0.930 . S
C3989 C3988 1.377 . S
C3989 C3990 1.379 . S
C3990 H3974 0.931 . S
C3990 C3984 1.383 . S
C3990 C3989 1.379 . S
H3991 C3985 0.959 . S
H3992 C3985 0.961 . S
H3993 C3985 0.960 . S
H3994 C3986 0.930 . S
H3995 C3987 0.929 . S
H3996 C4004 0.929 . S
H3997 C4006 0.930 . S
H3998 C4008 0.930 . S
H3999 C4011 0.929 . S
H4000 C4014 0.930 . S
H4001 C4016 0.960 . S
H4002 C4016 0.960 . S
H4003 C4016 0.960 . S
C4004 H3996 0.929 . S
C4004 C4005 1.377 . S
C4004 C4006 1.384 . S
C4005 C4004 1.377 . S
C4005 C4011 1.390 . S
C4006 H3997 0.930 . S
C4006 C4004 1.384 . S
C4006 C4007 1.372 . S
C4007 C4006 1.372 . S
C4007 C4008 1.400 . S
C4007 C4012 1.490 . S
C4008 H3998 0.930 . S
C4008 C4007 1.400 . S
C4008 C4011 1.386 . S
H4009 C4025 0.930 . S
H4010 C4026 0.931 . S
C4011 H3999 0.929 . S
C4011 C4005 1.390 . S
C4011 C4008 1.386 . S
C4012 C4007 1.490 . S
C4012 C4014 1.395 . S
C4012 C4015 1.403 . S
H4013 C4019 0.930 . S
C4014 H4000 0.930 . S
C4014 C4012 1.395 . S
C4014 C4017 1.403 . S
C4015 C4012 1.403 . S
C4015 C4016 1.524 . S
C4015 C4019 1.400 . S
C4016 H4001 0.960 . S
C4016 H4002 0.960 . S
C4016 H4003 0.960 . S
C4016 C4015 1.524 . S
C4017 C4014 1.403 . S
C4017 C4018 1.392 . S
C4017 C4021 1.495 . S
C4018 C4017 1.392 . S
C4018 C4019 1.385 . S
C4018 C4020 1.478 . S
C4019 H4013 0.930 . S
C4019 C4015 1.400 . S
C4019 C4018 1.385 . S
C4020 C4018 1.478 . S
C4020 C4022 1.381 . S
C4020 C4026 1.383 . S
C4021 C4017 1.495 . S
C4021 H4027 0.959 . S
C4021 H4028 0.961 . S
C4021 H4029 0.960 . S
C4022 C4020 1.381 . S
C4022 C4023 1.394 . S
C4022 H4030 0.930 . S
C4023 C4022 1.394 . S
C4023 C4024 1.383 . S
C4023 H4031 0.929 . S
C4024 C4023 1.383 . S
C4024 C4025 1.377 . S
C4025 H4009 0.930 . S
C4025 C4024 1.377 . S
C4025 C4026 1.379 . S
C4026 H4010 0.931 . S
C4026 C4020 1.383 . S
C4026 C4025 1.379 . S
H4027 C4021 0.959 . S
H4028 C4021 0.961 . S
H4029 C4021 0.960 . S
H4030 C4022 0.930 . S
H4031 C4023 0.929 . S
H4032 C4040 0.929 . S
H4033 C4042 0.930 . S
H4034 C4044 0.930 . S
H4035 C4047 0.929 . S
H4036 C4050 0.930 . S
H4037 C4052 0.960 . S
H4038 C4052 0.960 . S
H4039 C4052 0.960 . S
C4040 H4032 0.929 . S
C4040 C4041 1.377 . S
C4040 C4042 1.384 . S
C4041 C4040 1.377 . S
C4041 C4047 1.390 . S
C4042 H4033 0.930 . S
C4042 C4040 1.384 . S
C4042 C4043 1.372 . S
C4043 C4042 1.372 . S
C4043 C4044 1.400 . S
C4043 C4048 1.490 . S
C4044 H4034 0.930 . S
C4044 C4043 1.400 . S
C4044 C4047 1.386 . S
H4045 C4061 0.930 . S
H4046 C4062 0.931 . S
C4047 H4035 0.929 . S
C4047 C4041 1.390 . S
C4047 C4044 1.386 . S
C4048 C4043 1.490 . S
C4048 C4050 1.395 . S
C4048 C4051 1.403 . S
H4049 C4055 0.930 . S
C4050 H4036 0.930 . S
C4050 C4048 1.395 . S
C4050 C4053 1.403 . S
C4051 C4048 1.403 . S
C4051 C4052 1.524 . S
C4051 C4055 1.400 . S
C4052 H4037 0.960 . S
C4052 H4038 0.960 . S
C4052 H4039 0.960 . S
C4052 C4051 1.524 . S
C4053 C4050 1.403 . S
C4053 C4054 1.392 . S
C4053 C4057 1.495 . S
C4054 C4053 1.392 . S
C4054 C4055 1.385 . S
C4054 C4056 1.478 . S
C4055 H4049 0.930 . S
C4055 C4051 1.400 . S
C4055 C4054 1.385 . S
C4056 C4054 1.478 . S
C4056 C4058 1.381 . S
C4056 C4062 1.383 . S
C4057 C4053 1.495 . S
C4057 H4063 0.959 . S
C4057 H4064 0.961 . S
C4057 H4065 0.960 . S
C4058 C4056 1.381 . S
C4058 C4059 1.394 . S
C4058 H4066 0.930 . S
C4059 C4058 1.394 . S
C4059 C4060 1.383 . S
C4059 H4067 0.929 . S
C4060 C4059 1.383 . S
C4060 C4061 1.377 . S
C4061 H4045 0.930 . S
C4061 C4060 1.377 . S
C4061 C4062 1.379 . S
C4062 H4046 0.931 . S
C4062 C4056 1.383 . S
C4062 C4061 1.379 . S
H4063 C4057 0.959 . S
H4064 C4057 0.961 . S
H4065 C4057 0.960 . S
H4066 C4058 0.930 . S
H4067 C4059 0.929 . S
H4068 C4076 0.929 . S
H4069 C4078 0.930 . S
H4070 C4080 0.930 . S
H4071 C4083 0.929 . S
H4072 C4086 0.930 . S
H4073 C4088 0.960 . S
H4074 C4088 0.960 . S
H4075 C4088 0.960 . S
C4076 H4068 0.929 . S
C4076 C4077 1.377 . S
C4076 C4078 1.384 . S
C4077 C4076 1.377 . S
C4077 C4083 1.390 . S
C4078 H4069 0.930 . S
C4078 C4076 1.384 . S
C4078 C4079 1.372 . S
C4079 C4078 1.372 . S
C4079 C4080 1.400 . S
C4079 C4084 1.490 . S
C4080 H4070 0.930 . S
C4080 C4079 1.400 . S
C4080 C4083 1.386 . S
H4081 C4097 0.930 . S
H4082 C4098 0.931 . S
C4083 H4071 0.929 . S
C4083 C4077 1.390 . S
C4083 C4080 1.386 . S
C4084 C4079 1.490 . S
C4084 C4086 1.395 . S
C4084 C4087 1.403 . S
H4085 C4091 0.930 . S
C4086 H4072 0.930 . S
C4086 C4084 1.395 . S
C4086 C4089 1.403 . S
C4087 C4084 1.403 . S
C4087 C4088 1.524 . S
C4087 C4091 1.400 . S
C4088 H4073 0.960 . S
C4088 H4074 0.960 . S
C4088 H4075 0.960 . S
C4088 C4087 1.524 . S
C4089 C4086 1.403 . S
C4089 C4090 1.392 . S
C4089 C4093 1.495 . S
C4090 C4089 1.392 . S
C4090 C4091 1.385 . S
C4090 C4092 1.478 . S
C4091 H4085 0.930 . S
C4091 C4087 1.400 . S
C4091 C4090 1.385 . S
C4092 C4090 1.478 . S
C4092 C4094 1.381 . S
C4092 C4098 1.383 . S
C4093 C4089 1.495 . S
C4093 H4099 0.959 . S
C4093 H4100 0.961 . S
C4093 H4101 0.960 . S
C4094 C4092 1.381 . S
C4094 C4095 1.394 . S
C4094 H4102 0.930 . S
C4095 C4094 1.394 . S
C4095 C4096 1.383 . S
C4095 H4103 0.929 . S
C4096 C4095 1.383 . S
C4096 C4097 1.377 . S
C4097 H4081 0.930 . S
C4097 C4096 1.377 . S
C4097 C4098 1.379 . S
C4098 H4082 0.931 . S
C4098 C4092 1.383 . S
C4098 C4097 1.379 . S
H4099 C4093 0.959 . S
H4100 C4093 0.961 . S
H4101 C4093 0.960 . S
H4102 C4094 0.930 . S
H4103 C4095 0.929 . S
H4104 C4112 0.929 . S
H4105 C4114 0.930 . S
H4106 C4116 0.930 . S
H4107 C4119 0.929 . S
H4108 C4122 0.930 . S
H4109 C4124 0.960 . S
H4110 C4124 0.960 . S
H4111 C4124 0.960 . S
C4112 H4104 0.929 . S
C4112 C4113 1.377 . S
C4112 C4114 1.384 . S
C4113 C4112 1.377 . S
C4113 C4119 1.390 . S
C4114 H4105 0.930 . S
C4114 C4112 1.384 . S
C4114 C4115 1.372 . S
C4115 C4114 1.372 . S
C4115 C4116 1.400 . S
C4115 C4120 1.490 . S
C4116 H4106 0.930 . S
C4116 C4115 1.400 . S
C4116 C4119 1.386 . S
H4117 C4133 0.930 . S
H4118 C4134 0.931 . S
C4119 H4107 0.929 . S
C4119 C4113 1.390 . S
C4119 C4116 1.386 . S
C4120 C4115 1.490 . S
C4120 C4122 1.395 . S
C4120 C4123 1.403 . S
H4121 C4127 0.930 . S
C4122 H4108 0.930 . S
C4122 C4120 1.395 . S
C4122 C4125 1.403 . S
C4123 C4120 1.403 . S
C4123 C4124 1.524 . S
C4123 C4127 1.400 . S
C4124 H4109 0.960 . S
C4124 H4110 0.960 . S
C4124 H4111 0.960 . S
C4124 C4123 1.524 . S
C4125 C4122 1.403 . S
C4125 C4126 1.392 . S
C4125 C4129 1.495 . S
C4126 C4125 1.392 . S
C4126 C4127 1.385 . S
C4126 C4128 1.478 . S
C4127 H4121 0.930 . S
C4127 C4123 1.400 . S
C4127 C4126 1.385 . S
C4128 C4126 1.478 . S
C4128 C4130 1.381 . S
C4128 C4134 1.383 . S
C4129 C4125 1.495 . S
C4129 H4135 0.959 . S
C4129 H4136 0.961 . S
C4129 H4137 0.960 . S
C4130 C4128 1.381 . S
C4130 C4131 1.394 . S
C4130 H4138 0.930 . S
C4131 C4130 1.394 . S
C4131 C4132 1.383 . S
C4131 H4139 0.929 . S
C4132 C4131 1.383 . S
C4132 C4133 1.377 . S
C4133 H4117 0.930 . S
C4133 C4132 1.377 . S
C4133 C4134 1.379 . S
C4134 H4118 0.931 . S
C4134 C4128 1.383 . S
C4134 C4133 1.379 . S
H4135 C4129 0.959 . S
H4136 C4129 0.961 . S
H4137 C4129 0.960 . S
H4138 C4130 0.930 . S
H4139 C4131 0.929 . S
H4140 C4148 0.929 . S
H4141 C4150 0.930 . S
H4142 C4152 0.930 . S
H4143 C4155 0.929 . S
H4144 C4158 0.930 1_655 S
H4145 C4160 0.960 . S
H4146 C4160 0.960 . S
H4147 C4160 0.960 . S
C4148 H4140 0.929 . S
C4148 C4149 1.377 . S
C4148 C4150 1.384 . S
C4149 C4148 1.377 . S
C4149 C4155 1.390 . S
C4150 H4141 0.930 . S
C4150 C4148 1.384 . S
C4150 C4151 1.372 . S
C4151 C4150 1.372 . S
C4151 C4152 1.400 . S
C4151 C4156 1.490 . S
C4152 H4142 0.930 . S
C4152 C4151 1.400 . S
C4152 C4155 1.386 . S
H4153 C4169 0.930 . S
H4154 C4170 0.931 . S
C4155 H4143 0.929 . S
C4155 C4149 1.390 . S
C4155 C4152 1.386 . S
C4156 C4151 1.490 . S
C4156 C4158 1.395 . S
C4156 C4159 1.403 . S
H4157 C4163 0.930 . S
C4158 H4144 0.930 1_455 S
C4158 C4156 1.395 . S
C4158 C4161 1.403 1_455 S
C4159 C4156 1.403 . S
C4159 C4160 1.524 . S
C4159 C4163 1.400 . S
C4160 H4145 0.960 . S
C4160 H4146 0.960 . S
C4160 H4147 0.960 . S
C4160 C4159 1.524 . S
C4161 C4158 1.403 1_655 S
C4161 C4162 1.392 1_655 S
C4161 C4165 1.495 . S
C4162 C4161 1.392 1_455 S
C4162 C4163 1.385 . S
C4162 C4164 1.478 . S
C4163 H4157 0.930 . S
C4163 C4159 1.400 . S
C4163 C4162 1.385 . S
C4164 C4162 1.478 . S
C4164 C4166 1.381 . S
C4164 C4170 1.383 . S
C4165 C4161 1.495 . S
C4165 H4171 0.959 . S
C4165 H4172 0.961 . S
C4165 H4173 0.960 . S
C4166 C4164 1.381 . S
C4166 C4167 1.394 . S
C4166 H4174 0.929 . S
C4167 C4166 1.394 . S
C4167 C4168 1.383 . S
C4167 H4175 0.916 1_455 S
C4168 C4167 1.383 . S
C4168 C4169 1.377 . S
C4169 H4153 0.930 . S
C4169 C4168 1.377 . S
C4169 C4170 1.379 . S
C4170 H4154 0.931 . S
C4170 C4164 1.383 . S
C4170 C4169 1.379 . S
H4171 C4165 0.959 . S
H4172 C4165 0.961 . S
H4173 C4165 0.960 . S
H4174 C4166 0.929 . S
H4175 C4167 0.916 1_655 S
H4176 C4184 0.929 . S
H4177 C4186 0.930 . S
H4178 C4188 0.930 . S
H4179 C4191 0.929 . S
H4180 C4194 0.930 . S
H4181 C4196 0.960 . S
H4182 C4196 0.960 . S
H4183 C4196 0.960 . S
C4184 H4176 0.929 . S
C4184 C4185 1.377 . S
C4184 C4186 1.384 . S
C4185 C4184 1.377 . S
C4185 C4191 1.390 . S
C4186 H4177 0.930 . S
C4186 C4184 1.384 . S
C4186 C4187 1.372 . S
C4187 C4186 1.372 . S
C4187 C4188 1.400 . S
C4187 C4192 1.490 . S
C4188 H4178 0.930 . S
C4188 C4187 1.400 . S
C4188 C4191 1.386 . S
H4189 C4205 0.930 . S
H4190 C4206 0.931 . S
C4191 H4179 0.929 . S
C4191 C4185 1.390 . S
C4191 C4188 1.386 . S
C4192 C4187 1.490 . S
C4192 C4194 1.395 . S
C4192 C4195 1.403 . S
H4193 C4199 0.930 . S
C4194 H4180 0.930 . S
C4194 C4192 1.395 . S
C4194 C4197 1.403 . S
C4195 C4192 1.403 . S
C4195 C4196 1.524 . S
C4195 C4199 1.400 . S
C4196 H4181 0.960 . S
C4196 H4182 0.960 . S
C4196 H4183 0.960 . S
C4196 C4195 1.524 . S
C4197 C4194 1.403 . S
C4197 C4198 1.392 . S
C4197 C4201 1.495 . S
C4198 C4197 1.392 . S
C4198 C4199 1.385 . S
C4198 C4200 1.478 . S
C4199 H4193 0.930 . S
C4199 C4195 1.400 . S
C4199 C4198 1.385 . S
C4200 C4198 1.478 . S
C4200 C4202 1.381 . S
C4200 C4206 1.383 . S
C4201 C4197 1.495 . S
C4201 H4207 0.959 . S
C4201 H4208 0.961 . S
C4201 H4209 0.960 . S
C4202 C4200 1.381 . S
C4202 C4203 1.394 . S
C4202 H4210 0.930 . S
C4203 C4202 1.394 . S
C4203 C4204 1.383 . S
C4203 H4211 0.929 . S
C4204 C4203 1.383 . S
C4204 C4205 1.377 . S
C4205 H4189 0.930 . S
C4205 C4204 1.377 . S
C4205 C4206 1.379 . S
C4206 H4190 0.931 . S
C4206 C4200 1.383 . S
C4206 C4205 1.379 . S
H4207 C4201 0.959 . S
H4208 C4201 0.961 . S
H4209 C4201 0.960 . S
H4210 C4202 0.930 . S
H4211 C4203 0.929 . S
H4212 C4220 0.929 1_545 S
H4213 C4222 0.925 1_545 S
H4214 C4224 0.930 . S
H4215 C4227 0.929 . S
H4216 C4230 0.930 . S
H4217 C4232 0.960 . S
H4218 C4232 0.960 1_545 S
H4219 C4232 0.960 . S
C4220 H4212 0.929 1_565 S
C4220 C4221 1.377 . S
C4220 C4222 1.376 . S
C4221 C4220 1.377 . S
C4221 C4227 1.390 . S
C4222 H4213 0.925 1_565 S
C4222 C4220 1.376 . S
C4222 C4223 1.385 . S
C4223 C4222 1.385 . S
C4223 C4224 1.400 . S
C4223 C4228 1.490 . S
C4224 H4214 0.930 . S
C4224 C4223 1.400 . S
C4224 C4227 1.386 . S
H4225 C4241 0.930 . S
H4226 C4242 0.931 . S
C4227 H4215 0.929 . S
C4227 C4221 1.390 . S
C4227 C4224 1.386 . S
C4228 C4223 1.490 . S
C4228 C4230 1.395 . S
C4228 C4231 1.403 . S
H4229 C4235 0.930 . S
C4230 H4216 0.930 . S
C4230 C4228 1.395 . S
C4230 C4233 1.403 . S
C4231 C4228 1.403 . S
C4231 C4232 1.524 . S
C4231 C4235 1.400 . S
C4232 H4217 0.960 . S
C4232 H4218 0.960 1_565 S
C4232 H4219 0.960 . S
C4232 C4231 1.524 . S
C4233 C4230 1.403 . S
C4233 C4234 1.392 . S
C4233 C4237 1.495 . S
C4234 C4233 1.392 . S
C4234 C4235 1.385 . S
C4234 C4236 1.478 . S
C4235 H4229 0.930 . S
C4235 C4231 1.400 . S
C4235 C4234 1.385 . S
C4236 C4234 1.478 . S
C4236 C4238 1.381 1_565 S
C4236 C4242 1.383 . S
C4237 C4233 1.495 . S
C4237 H4243 0.959 . S
C4237 H4244 0.961 . S
C4237 H4245 0.960 . S
C4238 C4236 1.381 1_545 S
C4238 C4239 1.394 . S
C4238 H4246 0.930 . S
C4239 C4238 1.394 . S
C4239 C4240 1.383 1_545 S
C4239 H4247 0.929 . S
C4240 C4239 1.383 1_565 S
C4240 C4241 1.377 . S
C4241 H4225 0.930 . S
C4241 C4240 1.377 . S
C4241 C4242 1.379 . S
C4242 H4226 0.931 . S
C4242 C4236 1.383 . S
C4242 C4241 1.379 . S
H4243 C4237 0.959 . S
H4244 C4237 0.961 . S
H4245 C4237 0.960 . S
H4246 C4238 0.930 . S
H4247 C4239 0.929 . S
H4248 C4256 0.929 . S
H4249 C4258 0.930 . S
H4250 C4260 0.930 1_545 S
H4251 C4263 0.929 1_545 S
H4252 C4266 0.930 . S
H4253 C4268 0.960 . S
H4254 C4268 0.960 . S
H4255 C4268 0.960 . S
C4256 H4248 0.929 . S
C4256 C4257 1.377 . S
C4256 C4258 1.384 . S
C4257 C4256 1.377 . S
C4257 C4263 1.390 . S
C4258 H4249 0.930 . S
C4258 C4256 1.384 . S
C4258 C4259 1.372 . S
C4259 C4258 1.372 . S
C4259 C4260 1.400 . S
C4259 C4264 1.490 . S
C4260 H4250 0.930 1_565 S
C4260 C4259 1.400 . S
C4260 C4263 1.386 . S
H4261 C4277 0.930 . S
H4262 C4278 0.931 . S
C4263 H4251 0.929 1_565 S
C4263 C4257 1.390 . S
C4263 C4260 1.386 . S
C4264 C4259 1.490 . S
C4264 C4266 1.395 . S
C4264 C4267 1.403 . S
H4265 C4271 0.930 . S
C4266 H4252 0.930 . S
C4266 C4264 1.395 . S
C4266 C4269 1.403 . S
C4267 C4264 1.403 . S
C4267 C4268 1.524 . S
C4267 C4271 1.400 . S
C4268 H4253 0.960 . S
C4268 H4254 0.960 . S
C4268 H4255 0.960 . S
C4268 C4267 1.524 . S
C4269 C4266 1.403 . S
C4269 C4270 1.392 . S
C4269 C4273 1.495 . S
C4270 C4269 1.392 . S
C4270 C4271 1.385 . S
C4270 C4272 1.478 . S
C4271 H4265 0.930 . S
C4271 C4267 1.400 . S
C4271 C4270 1.385 . S
C4272 C4270 1.478 . S
C4272 C4274 1.381 . S
C4272 C4278 1.383 1_565 S
C4273 C4269 1.495 . S
C4273 H4279 0.959 . S
C4273 H4280 0.961 1_565 S
C4273 H4281 0.960 . S
C4274 C4272 1.381 . S
C4274 C4275 1.394 . S
C4274 H4282 0.930 . S
C4275 C4274 1.394 . S
C4275 C4276 1.383 . S
C4275 H4283 0.929 . S
C4276 C4275 1.383 . S
C4276 C4277 1.377 1_565 S
C4277 H4261 0.930 . S
C4277 C4276 1.377 1_545 S
C4277 C4278 1.379 . S
C4278 H4262 0.931 . S
C4278 C4272 1.383 1_545 S
C4278 C4277 1.379 . S
H4279 C4273 0.959 . S
H4280 C4273 0.961 1_545 S
H4281 C4273 0.960 . S
H4282 C4274 0.930 . S
H4283 C4275 0.929 . S
H4284 C4292 0.939 . S
H4285 C4294 0.930 1_655 S
H4286 C4296 0.930 . S
H4287 C4299 0.929 . S
H4288 C4302 0.930 . S
H4289 C4304 0.960 . S
H4290 C4304 0.960 . S
H4291 C4304 0.960 1_455 S
C4292 H4284 0.939 . S
C4292 C4293 1.377 . S
C4292 C4294 1.384 . S
C4293 C4292 1.377 . S
C4293 C4299 1.390 . S
C4294 H4285 0.930 1_455 S
C4294 C4292 1.384 . S
C4294 C4295 1.372 . S
C4295 C4294 1.372 . S
C4295 C4296 1.400 . S
C4295 C4300 1.490 . S
C4296 H4286 0.930 . S
C4296 C4295 1.400 . S
C4296 C4299 1.386 . S
H4297 C4313 0.930 . S
H4298 C4314 0.931 . S
C4299 H4287 0.929 . S
C4299 C4293 1.390 . S
C4299 C4296 1.386 . S
C4300 C4295 1.490 . S
C4300 C4302 1.395 . S
C4300 C4303 1.403 . S
H4301 C4307 0.948 1_655 S
C4302 H4288 0.930 . S
C4302 C4300 1.395 . S
C4302 C4305 1.403 . S
C4303 C4300 1.403 . S
C4303 C4304 1.524 1_455 S
C4303 C4307 1.400 . S
C4304 H4289 0.960 . S
C4304 H4290 0.960 . S
C4304 H4291 0.960 1_655 S
C4304 C4303 1.524 1_655 S
C4305 C4302 1.403 . S
C4305 C4306 1.392 . S
C4305 C4309 1.495 . S
C4306 C4305 1.392 . S
C4306 C4307 1.385 . S
C4306 C4308 1.478 . S
C4307 H4301 0.948 1_455 S
C4307 C4303 1.400 . S
C4307 C4306 1.385 . S
C4308 C4306 1.478 . S
C4308 C4310 1.381 1_455 S
C4308 C4314 1.383 . S
C4309 C4305 1.495 . S
C4309 H4315 0.959 . S
C4309 H4316 0.961 . S
C4309 H4317 0.960 . S
C4310 C4308 1.381 1_655 S
C4310 C4311 1.394 . S
C4310 H4318 0.930 . S
C4311 C4310 1.394 . S
C4311 C4312 1.347 1_655 S
C4311 H4319 0.929 . S
C4312 C4311 1.347 1_455 S
C4312 C4313 1.400 . S
C4313 H4297 0.930 . S
C4313 C4312 1.400 . S
C4313 C4314 1.379 . S
C4314 H4298 0.931 . S
C4314 C4308 1.383 . S
C4314 C4313 1.379 . S
H4315 C4309 0.959 . S
H4316 C4309 0.961 . S
H4317 C4309 0.960 . S
H4318 C4310 0.930 . S
H4319 C4311 0.929 . S
H4320 C4328 0.929 . S
H4321 C4330 0.930 . S
H4322 C4332 0.930 . S
H4323 C4335 0.929 . S
H4324 C4338 0.930 . S
H4325 C4340 0.960 . S
H4326 C4340 0.960 . S
H4327 C4340 0.960 . S
C4328 H4320 0.929 . S
C4328 C4329 1.377 . S
C4328 C4330 1.384 . S
C4329 C4328 1.377 . S
C4329 C4335 1.390 . S
C4330 H4321 0.930 . S
C4330 C4328 1.384 . S
C4330 C4331 1.372 . S
C4331 C4330 1.372 . S
C4331 C4332 1.400 . S
C4331 C4336 1.490 . S
C4332 H4322 0.930 . S
C4332 C4331 1.400 . S
C4332 C4335 1.386 . S
H4333 C4349 0.930 . S
H4334 C4350 0.931 . S
C4335 H4323 0.929 . S
C4335 C4329 1.390 . S
C4335 C4332 1.386 . S
C4336 C4331 1.490 . S
C4336 C4338 1.395 . S
C4336 C4339 1.403 . S
H4337 C4343 0.930 . S
C4338 H4324 0.930 . S
C4338 C4336 1.395 . S
C4338 C4341 1.403 . S
C4339 C4336 1.403 . S
C4339 C4340 1.524 . S
C4339 C4343 1.400 . S
C4340 H4325 0.960 . S
C4340 H4326 0.960 . S
C4340 H4327 0.960 . S
C4340 C4339 1.524 . S
C4341 C4338 1.403 . S
C4341 C4342 1.392 . S
C4341 C4345 1.495 . S
C4342 C4341 1.392 . S
C4342 C4343 1.385 . S
C4342 C4344 1.478 . S
C4343 H4337 0.930 . S
C4343 C4339 1.400 . S
C4343 C4342 1.385 . S
C4344 C4342 1.478 . S
C4344 C4346 1.381 . S
C4344 C4350 1.383 . S
C4345 C4341 1.495 . S
C4345 H4351 0.959 . S
C4345 H4352 0.961 . S
C4345 H4353 0.960 . S
C4346 C4344 1.381 . S
C4346 C4347 1.394 . S
C4346 H4354 0.930 . S
C4347 C4346 1.394 . S
C4347 C4348 1.383 . S
C4347 H4355 0.929 . S
C4348 C4347 1.383 . S
C4348 C4349 1.377 . S
C4349 H4333 0.930 . S
C4349 C4348 1.377 . S
C4349 C4350 1.379 . S
C4350 H4334 0.931 . S
C4350 C4344 1.383 . S
C4350 C4349 1.379 . S
H4351 C4345 0.959 . S
H4352 C4345 0.961 . S
H4353 C4345 0.960 . S
H4354 C4346 0.930 . S
H4355 C4347 0.929 . S
H4356 C4364 0.929 . S
H4357 C4366 0.930 . S
H4358 C4368 0.930 . S
H4359 C4371 0.929 . S
H4360 C4374 0.930 . S
H4361 C4376 0.960 . S
H4362 C4376 0.960 . S
H4363 C4376 0.960 . S
C4364 H4356 0.929 . S
C4364 C4365 1.377 . S
C4364 C4366 1.384 . S
C4365 C4364 1.377 . S
C4365 C4371 1.390 . S
C4366 H4357 0.930 . S
C4366 C4364 1.384 . S
C4366 C4367 1.372 . S
C4367 C4366 1.372 . S
C4367 C4368 1.400 . S
C4367 C4372 1.490 . S
C4368 H4358 0.930 . S
C4368 C4367 1.400 . S
C4368 C4371 1.386 . S
H4369 C4385 0.930 . S
H4370 C4386 0.931 . S
C4371 H4359 0.929 . S
C4371 C4365 1.390 . S
C4371 C4368 1.386 . S
C4372 C4367 1.490 . S
C4372 C4374 1.395 . S
C4372 C4375 1.403 . S
H4373 C4379 0.930 . S
C4374 H4360 0.930 . S
C4374 C4372 1.395 . S
C4374 C4377 1.403 . S
C4375 C4372 1.403 . S
C4375 C4376 1.524 . S
C4375 C4379 1.400 . S
C4376 H4361 0.960 . S
C4376 H4362 0.960 . S
C4376 H4363 0.960 . S
C4376 C4375 1.524 . S
C4377 C4374 1.403 . S
C4377 C4378 1.392 . S
C4377 C4381 1.495 . S
C4378 C4377 1.392 . S
C4378 C4379 1.385 . S
C4378 C4380 1.478 . S
C4379 H4373 0.930 . S
C4379 C4375 1.400 . S
C4379 C4378 1.385 . S
C4380 C4378 1.478 . S
C4380 C4382 1.381 . S
C4380 C4386 1.383 . S
C4381 C4377 1.495 . S
C4381 H4387 0.959 . S
C4381 H4388 0.961 . S
C4381 H4389 0.960 . S
C4382 C4380 1.381 . S
C4382 C4383 1.394 . S
C4382 H4390 0.930 . S
C4383 C4382 1.394 . S
C4383 C4384 1.383 . S
C4383 H4391 0.929 . S
C4384 C4383 1.383 . S
C4384 C4385 1.377 . S
C4385 H4369 0.930 . S
C4385 C4384 1.377 . S
C4385 C4386 1.379 . S
C4386 H4370 0.931 . S
C4386 C4380 1.383 . S
C4386 C4385 1.379 . S
H4387 C4381 0.959 . S
H4388 C4381 0.961 . S
H4389 C4381 0.960 . S
H4390 C4382 0.930 . S
H4391 C4383 0.929 . S
H4392 C4400 0.929 . S
H4393 C4402 0.930 . S
H4394 C4404 0.930 . S
H4395 C4407 0.929 . S
H4396 C4410 0.930 . S
H4397 C4412 0.960 . S
H4398 C4412 0.960 . S
H4399 C4412 0.960 . S
C4400 H4392 0.929 . S
C4400 C4401 1.377 . S
C4400 C4402 1.384 . S
C4401 C4400 1.377 . S
C4401 C4407 1.390 . S
C4402 H4393 0.930 . S
C4402 C4400 1.384 . S
C4402 C4403 1.372 . S
C4403 C4402 1.372 . S
C4403 C4404 1.400 . S
C4403 C4408 1.490 . S
C4404 H4394 0.930 . S
C4404 C4403 1.400 . S
C4404 C4407 1.386 . S
H4405 C4421 0.930 . S
H4406 C4422 0.931 . S
C4407 H4395 0.929 . S
C4407 C4401 1.390 . S
C4407 C4404 1.386 . S
C4408 C4403 1.490 . S
C4408 C4410 1.395 . S
C4408 C4411 1.403 . S
H4409 C4415 0.930 . S
C4410 H4396 0.930 . S
C4410 C4408 1.395 . S
C4410 C4413 1.403 . S
C4411 C4408 1.403 . S
C4411 C4412 1.524 . S
C4411 C4415 1.400 . S
C4412 H4397 0.960 . S
C4412 H4398 0.960 . S
C4412 H4399 0.960 . S
C4412 C4411 1.524 . S
C4413 C4410 1.403 . S
C4413 C4414 1.392 . S
C4413 C4417 1.495 . S
C4414 C4413 1.392 . S
C4414 C4415 1.385 . S
C4414 C4416 1.478 . S
C4415 H4409 0.930 . S
C4415 C4411 1.400 . S
C4415 C4414 1.385 . S
C4416 C4414 1.478 . S
C4416 C4418 1.381 . S
C4416 C4422 1.383 . S
C4417 C4413 1.495 . S
C4417 H4423 0.959 . S
C4417 H4424 0.961 . S
C4417 H4425 0.960 . S
C4418 C4416 1.381 . S
C4418 C4419 1.394 . S
C4418 H4426 0.930 . S
C4419 C4418 1.394 . S
C4419 C4420 1.383 . S
C4419 H4427 0.929 . S
C4420 C4419 1.383 . S
C4420 C4421 1.377 . S
C4421 H4405 0.930 . S
C4421 C4420 1.377 . S
C4421 C4422 1.379 . S
C4422 H4406 0.931 . S
C4422 C4416 1.383 . S
C4422 C4421 1.379 . S
H4423 C4417 0.959 . S
H4424 C4417 0.961 . S
H4425 C4417 0.960 . S
H4426 C4418 0.930 . S
H4427 C4419 0.929 . S
H4428 C4436 0.929 . S
H4429 C4438 0.930 . S
H4430 C4440 0.930 . S
H4431 C4443 0.929 . S
H4432 C4446 0.930 . S
H4433 C4448 0.960 . S
H4434 C4448 0.960 . S
H4435 C4448 0.960 . S
C4436 H4428 0.929 . S
C4436 C4437 1.377 . S
C4436 C4438 1.384 . S
C4437 C4436 1.377 . S
C4437 C4443 1.390 . S
C4438 H4429 0.930 . S
C4438 C4436 1.384 . S
C4438 C4439 1.372 . S
C4439 C4438 1.372 . S
C4439 C4440 1.400 . S
C4439 C4444 1.490 . S
C4440 H4430 0.930 . S
C4440 C4439 1.400 . S
C4440 C4443 1.386 . S
H4441 C4457 0.930 . S
H4442 C4458 0.931 . S
C4443 H4431 0.929 . S
C4443 C4437 1.390 . S
C4443 C4440 1.386 . S
C4444 C4439 1.490 . S
C4444 C4446 1.395 . S
C4444 C4447 1.403 . S
H4445 C4451 0.930 . S
C4446 H4432 0.930 . S
C4446 C4444 1.395 . S
C4446 C4449 1.403 . S
C4447 C4444 1.403 . S
C4447 C4448 1.524 . S
C4447 C4451 1.400 . S
C4448 H4433 0.960 . S
C4448 H4434 0.960 . S
C4448 H4435 0.960 . S
C4448 C4447 1.524 . S
C4449 C4446 1.403 . S
C4449 C4450 1.392 . S
C4449 C4453 1.495 . S
C4450 C4449 1.392 . S
C4450 C4451 1.385 . S
C4450 C4452 1.478 . S
C4451 H4445 0.930 . S
C4451 C4447 1.400 . S
C4451 C4450 1.385 . S
C4452 C4450 1.478 . S
C4452 C4454 1.381 . S
C4452 C4458 1.383 . S
C4453 C4449 1.495 . S
C4453 H4459 0.959 . S
C4453 H4460 0.961 . S
C4453 H4461 0.960 . S
C4454 C4452 1.381 . S
C4454 C4455 1.394 . S
C4454 H4462 0.930 . S
C4455 C4454 1.394 . S
C4455 C4456 1.383 . S
C4455 H4463 0.929 . S
C4456 C4455 1.383 . S
C4456 C4457 1.377 . S
C4457 H4441 0.930 . S
C4457 C4456 1.377 . S
C4457 C4458 1.379 . S
C4458 H4442 0.931 . S
C4458 C4452 1.383 . S
C4458 C4457 1.379 . S
H4459 C4453 0.959 . S
H4460 C4453 0.961 . S
H4461 C4453 0.960 . S
H4462 C4454 0.930 . S
H4463 C4455 0.929 . S
H4464 C4472 0.929 . S
H4465 C4474 0.930 . S
H4466 C4476 0.930 1_565 S
H4467 C4479 0.916 1_565 S
H4468 C4482 0.930 . S
H4469 C4484 0.960 . S
H4470 C4484 0.960 . S
H4471 C4484 0.960 . S
C4472 H4464 0.929 . S
C4472 C4473 1.377 . S
C4472 C4474 1.384 . S
C4473 C4472 1.377 . S
C4473 C4479 1.390 . S
C4474 H4465 0.930 . S
C4474 C4472 1.384 . S
C4474 C4475 1.372 . S
C4475 C4474 1.372 . S
C4475 C4476 1.400 . S
C4475 C4480 1.490 . S
C4476 H4466 0.930 1_545 S
C4476 C4475 1.400 . S
C4476 C4479 1.386 . S
H4477 C4493 0.930 . S
H4478 C4494 0.931 . S
C4479 H4467 0.916 1_545 S
C4479 C4473 1.390 . S
C4479 C4476 1.386 . S
C4480 C4475 1.490 . S
C4480 C4482 1.395 . S
C4480 C4483 1.403 . S
H4481 C4487 0.930 . S
C4482 H4468 0.930 . S
C4482 C4480 1.395 . S
C4482 C4485 1.403 . S
C4483 C4480 1.403 . S
C4483 C4484 1.524 . S
C4483 C4487 1.400 . S
C4484 H4469 0.960 . S
C4484 H4470 0.960 . S
C4484 H4471 0.960 . S
C4484 C4483 1.524 . S
C4485 C4482 1.403 . S
C4485 C4486 1.392 . S
C4485 C4489 1.495 . S
C4486 C4485 1.392 . S
C4486 C4487 1.385 . S
C4486 C4488 1.478 . S
C4487 H4481 0.930 . S
C4487 C4483 1.400 . S
C4487 C4486 1.385 . S
C4488 C4486 1.478 . S
C4488 C4490 1.381 . S
C4488 C4494 1.383 1_545 S
C4489 C4485 1.495 . S
C4489 H4495 0.959 . S
C4489 H4496 0.961 . S
C4489 H4497 0.960 . S
C4490 C4488 1.381 . S
C4490 C4491 1.394 . S
C4490 H4498 0.930 . S
C4491 C4490 1.394 . S
C4491 C4492 1.383 . S
C4491 H4499 0.929 . S
C4492 C4491 1.383 . S
C4492 C4493 1.377 1_545 S
C4493 H4477 0.930 . S
C4493 C4492 1.377 1_565 S
C4493 C4494 1.379 . S
C4494 H4478 0.931 . S
C4494 C4488 1.383 1_565 S
C4494 C4493 1.379 . S
H4495 C4489 0.959 . S
H4496 C4489 0.961 . S
H4497 C4489 0.960 . S
H4498 C4490 0.930 . S
H4499 C4491 0.929 . S
H4500 C4508 0.929 . S
H4501 C4510 0.930 . S
H4502 C4512 0.930 . S
H4503 C4515 0.929 . S
H4504 C4518 0.930 1_455 S
H4505 C4520 0.960 . S
H4506 C4520 0.960 . S
H4507 C4520 0.960 . S
C4508 H4500 0.929 . S
C4508 C4509 1.377 . S
C4508 C4510 1.384 . S
C4509 C4508 1.377 . S
C4509 C4515 1.390 . S
C4510 H4501 0.930 . S
C4510 C4508 1.384 . S
C4510 C4511 1.372 . S
C4511 C4510 1.372 . S
C4511 C4512 1.400 . S
C4511 C4516 1.490 . S
C4512 H4502 0.930 . S
C4512 C4511 1.400 . S
C4512 C4515 1.386 . S
H4513 C4529 0.930 . S
H4514 C4530 0.931 . S
C4515 H4503 0.929 . S
C4515 C4509 1.390 . S
C4515 C4512 1.386 . S
C4516 C4511 1.490 . S
C4516 C4518 1.395 . S
C4516 C4519 1.403 . S
H4517 C4523 0.930 . S
C4518 H4504 0.930 1_655 S
C4518 C4516 1.395 . S
C4518 C4521 1.385 . S
C4519 C4516 1.403 . S
C4519 C4520 1.524 . S
C4519 C4523 1.400 . S
C4520 H4505 0.960 . S
C4520 H4506 0.960 . S
C4520 H4507 0.960 . S
C4520 C4519 1.524 . S
C4521 C4518 1.385 . S
C4521 C4522 1.445 . S
C4521 C4525 1.463 1_655 S
C4522 C4521 1.445 . S
C4522 C4523 1.385 . S
C4522 C4524 1.478 . S
C4523 H4517 0.930 . S
C4523 C4519 1.400 . S
C4523 C4522 1.385 . S
C4524 C4522 1.478 . S
C4524 C4526 1.381 . S
C4524 C4530 1.383 1_655 S
C4525 C4521 1.463 1_455 S
C4525 H4531 0.959 . S
C4525 H4532 0.961 . S
C4525 H4533 0.960 . S
C4526 C4524 1.381 . S
C4526 C4527 1.394 . S
C4526 H4534 0.930 . S
C4527 C4526 1.394 . S
C4527 C4528 1.383 . S
C4527 H4535 0.929 . S
C4528 C4527 1.383 . S
C4528 C4529 1.377 1_655 S
C4529 H4513 0.930 . S
C4529 C4528 1.377 1_455 S
C4529 C4530 1.379 . S
C4530 H4514 0.931 . S
C4530 C4524 1.383 1_455 S
C4530 C4529 1.379 . S
H4531 C4525 0.959 . S
H4532 C4525 0.961 . S
H4533 C4525 0.960 . S
H4534 C4526 0.930 . S
H4535 C4527 0.929 . S
H4536 C4544 0.929 . S
H4537 C4546 0.930 . S
H4538 C4548 0.930 . S
H4539 C4551 0.929 . S
H4540 C4554 0.930 . S
H4541 C4556 0.960 . S
H4542 C4556 0.960 . S
H4543 C4556 0.960 . S
C4544 H4536 0.929 . S
C4544 C4545 1.377 . S
C4544 C4546 1.384 . S
C4545 C4544 1.377 . S
C4545 C4551 1.390 . S
C4546 H4537 0.930 . S
C4546 C4544 1.384 . S
C4546 C4547 1.372 . S
C4547 C4546 1.372 . S
C4547 C4548 1.400 . S
C4547 C4552 1.490 . S
C4548 H4538 0.930 . S
C4548 C4547 1.400 . S
C4548 C4551 1.386 . S
H4549 C4565 0.930 . S
H4550 C4566 0.931 . S
C4551 H4539 0.929 . S
C4551 C4545 1.390 . S
C4551 C4548 1.386 . S
C4552 C4547 1.490 . S
C4552 C4554 1.395 . S
C4552 C4555 1.403 . S
H4553 C4559 0.930 . S
C4554 H4540 0.930 . S
C4554 C4552 1.395 . S
C4554 C4557 1.403 . S
C4555 C4552 1.403 . S
C4555 C4556 1.524 . S
C4555 C4559 1.400 . S
C4556 H4541 0.960 . S
C4556 H4542 0.960 . S
C4556 H4543 0.960 . S
C4556 C4555 1.524 . S
C4557 C4554 1.403 . S
C4557 C4558 1.392 . S
C4557 C4561 1.495 . S
C4558 C4557 1.392 . S
C4558 C4559 1.385 . S
C4558 C4560 1.478 . S
C4559 H4553 0.930 . S
C4559 C4555 1.400 . S
C4559 C4558 1.385 . S
C4560 C4558 1.478 . S
C4560 C4562 1.381 . S
C4560 C4566 1.383 . S
C4561 C4557 1.495 . S
C4561 H4567 0.959 . S
C4561 H4568 0.961 . S
C4561 H4569 0.960 . S
C4562 C4560 1.381 . S
C4562 C4563 1.394 . S
C4562 H4570 0.930 . S
C4563 C4562 1.394 . S
C4563 C4564 1.383 . S
C4563 H4571 0.929 . S
C4564 C4563 1.383 . S
C4564 C4565 1.377 . S
C4565 H4549 0.930 . S
C4565 C4564 1.377 . S
C4565 C4566 1.379 . S
C4566 H4550 0.931 . S
C4566 C4560 1.383 . S
C4566 C4565 1.379 . S
H4567 C4561 0.959 . S
H4568 C4561 0.961 . S
H4569 C4561 0.960 . S
H4570 C4562 0.930 . S
H4571 C4563 0.929 . S
H4572 C4580 0.929 . S
H4573 C4582 0.930 . S
H4574 C4584 0.930 . S
H4575 C4587 0.929 . S
H4576 C4590 0.930 . S
H4577 C4592 0.960 . S
H4578 C4592 0.960 . S
H4579 C4592 0.960 . S
C4580 H4572 0.929 . S
C4580 C4581 1.377 . S
C4580 C4582 1.384 . S
C4581 C4580 1.377 . S
C4581 C4587 1.390 . S
C4582 H4573 0.930 . S
C4582 C4580 1.384 . S
C4582 C4583 1.372 . S
C4583 C4582 1.372 . S
C4583 C4584 1.400 . S
C4583 C4588 1.490 . S
C4584 H4574 0.930 . S
C4584 C4583 1.400 . S
C4584 C4587 1.386 . S
H4585 C4601 0.930 . S
H4586 C4602 0.931 . S
C4587 H4575 0.929 . S
C4587 C4581 1.390 . S
C4587 C4584 1.386 . S
C4588 C4583 1.490 . S
C4588 C4590 1.395 . S
C4588 C4591 1.403 . S
H4589 C4595 0.930 . S
C4590 H4576 0.930 . S
C4590 C4588 1.395 . S
C4590 C4593 1.403 . S
C4591 C4588 1.403 . S
C4591 C4592 1.524 . S
C4591 C4595 1.400 . S
C4592 H4577 0.960 . S
C4592 H4578 0.960 . S
C4592 H4579 0.960 . S
C4592 C4591 1.524 . S
C4593 C4590 1.403 . S
C4593 C4594 1.392 . S
C4593 C4597 1.495 . S
C4594 C4593 1.392 . S
C4594 C4595 1.385 . S
C4594 C4596 1.478 . S
C4595 H4589 0.930 . S
C4595 C4591 1.400 . S
C4595 C4594 1.385 . S
C4596 C4594 1.478 . S
C4596 C4598 1.381 . S
C4596 C4602 1.383 . S
C4597 C4593 1.495 . S
C4597 H4603 0.959 . S
C4597 H4604 0.961 . S
C4597 H4605 0.960 . S
C4598 C4596 1.381 . S
C4598 C4599 1.394 . S
C4598 H4606 0.930 . S
C4599 C4598 1.394 . S
C4599 C4600 1.383 . S
C4599 H4607 0.929 . S
C4600 C4599 1.383 . S
C4600 C4601 1.377 . S
C4601 H4585 0.930 . S
C4601 C4600 1.377 . S
C4601 C4602 1.379 . S
C4602 H4586 0.931 . S
C4602 C4596 1.383 . S
C4602 C4601 1.379 . S
H4603 C4597 0.959 . S
H4604 C4597 0.961 . S
H4605 C4597 0.960 . S
H4606 C4598 0.930 . S
H4607 C4599 0.929 . S
H4608 C4616 0.929 . S
H4609 C4618 0.930 . S
H4610 C4620 0.930 . S
H4611 C4623 0.929 . S
H4612 C4626 0.930 . S
H4613 C4628 0.960 . S
H4614 C4628 0.960 . S
H4615 C4628 0.960 . S
C4616 H4608 0.929 . S
C4616 C4617 1.377 . S
C4616 C4618 1.384 . S
C4617 C4616 1.377 . S
C4617 C4623 1.390 . S
C4618 H4609 0.930 . S
C4618 C4616 1.384 . S
C4618 C4619 1.372 . S
C4619 C4618 1.372 . S
C4619 C4620 1.400 . S
C4619 C4624 1.490 . S
C4620 H4610 0.930 . S
C4620 C4619 1.400 . S
C4620 C4623 1.386 . S
H4621 C4637 0.930 . S
H4622 C4638 0.931 . S
C4623 H4611 0.929 . S
C4623 C4617 1.390 . S
C4623 C4620 1.386 . S
C4624 C4619 1.490 . S
C4624 C4626 1.395 . S
C4624 C4627 1.403 . S
H4625 C4631 0.930 . S
C4626 H4612 0.930 . S
C4626 C4624 1.395 . S
C4626 C4629 1.403 . S
C4627 C4624 1.403 . S
C4627 C4628 1.524 . S
C4627 C4631 1.400 . S
C4628 H4613 0.960 . S
C4628 H4614 0.960 . S
C4628 H4615 0.960 . S
C4628 C4627 1.524 . S
C4629 C4626 1.403 . S
C4629 C4630 1.392 . S
C4629 C4633 1.495 . S
C4630 C4629 1.392 . S
C4630 C4631 1.385 . S
C4630 C4632 1.478 . S
C4631 H4625 0.930 . S
C4631 C4627 1.400 . S
C4631 C4630 1.385 . S
C4632 C4630 1.478 . S
C4632 C4634 1.381 . S
C4632 C4638 1.383 . S
C4633 C4629 1.495 . S
C4633 H4639 0.959 . S
C4633 H4640 0.961 . S
C4633 H4641 0.960 . S
C4634 C4632 1.381 . S
C4634 C4635 1.394 . S
C4634 H4642 0.930 . S
C4635 C4634 1.394 . S
C4635 C4636 1.383 . S
C4635 H4643 0.929 . S
C4636 C4635 1.383 . S
C4636 C4637 1.377 . S
C4637 H4621 0.930 . S
C4637 C4636 1.377 . S
C4637 C4638 1.379 . S
C4638 H4622 0.931 . S
C4638 C4632 1.383 . S
C4638 C4637 1.379 . S
H4639 C4633 0.959 . S
H4640 C4633 0.961 . S
H4641 C4633 0.960 . S
H4642 C4634 0.930 . S
H4643 C4635 0.929 . S
H4644 C4652 0.929 . S
H4645 C4654 0.930 . S
H4646 C4656 0.930 . S
H4647 C4659 0.929 . S
H4648 C4662 0.930 . S
H4649 C4664 0.960 . S
H4650 C4664 0.960 . S
H4651 C4664 0.960 . S
C4652 H4644 0.929 . S
C4652 C4653 1.377 . S
C4652 C4654 1.384 . S
C4653 C4652 1.377 . S
C4653 C4659 1.390 . S
C4654 H4645 0.930 . S
C4654 C4652 1.384 . S
C4654 C4655 1.372 . S
C4655 C4654 1.372 . S
C4655 C4656 1.400 . S
C4655 C4660 1.490 . S
C4656 H4646 0.930 . S
C4656 C4655 1.400 . S
C4656 C4659 1.386 . S
H4657 C4673 0.930 . S
H4658 C4674 0.931 . S
C4659 H4647 0.929 . S
C4659 C4653 1.390 . S
C4659 C4656 1.386 . S
C4660 C4655 1.490 . S
C4660 C4662 1.395 . S
C4660 C4663 1.403 . S
H4661 C4667 0.930 . S
C4662 H4648 0.930 . S
C4662 C4660 1.395 . S
C4662 C4665 1.403 . S
C4663 C4660 1.403 . S
C4663 C4664 1.524 . S
C4663 C4667 1.400 . S
C4664 H4649 0.960 . S
C4664 H4650 0.960 . S
C4664 H4651 0.960 . S
C4664 C4663 1.524 . S
C4665 C4662 1.403 . S
C4665 C4666 1.392 . S
C4665 C4669 1.495 . S
C4666 C4665 1.392 . S
C4666 C4667 1.385 . S
C4666 C4668 1.478 . S
C4667 H4661 0.930 . S
C4667 C4663 1.400 . S
C4667 C4666 1.385 . S
C4668 C4666 1.478 . S
C4668 C4670 1.381 . S
C4668 C4674 1.383 . S
C4669 C4665 1.495 . S
C4669 H4675 0.959 . S
C4669 H4676 0.961 . S
C4669 H4677 0.960 . S
C4670 C4668 1.381 . S
C4670 C4671 1.394 . S
C4670 H4678 0.930 . S
C4671 C4670 1.394 . S
C4671 C4672 1.383 . S
C4671 H4679 0.929 . S
C4672 C4671 1.383 . S
C4672 C4673 1.377 . S
C4673 H4657 0.930 . S
C4673 C4672 1.377 . S
C4673 C4674 1.379 . S
C4674 H4658 0.931 . S
C4674 C4668 1.383 . S
C4674 C4673 1.379 . S
H4675 C4669 0.959 . S
H4676 C4669 0.961 . S
H4677 C4669 0.960 . S
H4678 C4670 0.930 . S
H4679 C4671 0.929 . S
H4680 C4688 0.929 . S
H4681 C4690 0.930 . S
H4682 C4692 0.930 . S
H4683 C4695 0.929 . S
H4684 C4698 0.930 . S
H4685 C4700 0.960 . S
H4686 C4700 0.960 . S
H4687 C4700 0.960 . S
C4688 H4680 0.929 . S
C4688 C4689 1.377 . S
C4688 C4690 1.384 . S
C4689 C4688 1.377 . S
C4689 C4695 1.390 . S
C4690 H4681 0.930 . S
C4690 C4688 1.384 . S
C4690 C4691 1.372 . S
C4691 C4690 1.372 . S
C4691 C4692 1.400 . S
C4691 C4696 1.490 . S
C4692 H4682 0.930 . S
C4692 C4691 1.400 . S
C4692 C4695 1.386 . S
H4693 C4709 0.930 . S
H4694 C4710 0.931 . S
C4695 H4683 0.929 . S
C4695 C4689 1.390 . S
C4695 C4692 1.386 . S
C4696 C4691 1.490 . S
C4696 C4698 1.395 . S
C4696 C4699 1.403 . S
H4697 C4703 0.930 . S
C4698 H4684 0.930 . S
C4698 C4696 1.395 . S
C4698 C4701 1.403 . S
C4699 C4696 1.403 . S
C4699 C4700 1.524 . S
C4699 C4703 1.400 . S
C4700 H4685 0.960 . S
C4700 H4686 0.960 . S
C4700 H4687 0.960 . S
C4700 C4699 1.524 . S
C4701 C4698 1.403 . S
C4701 C4702 1.392 . S
C4701 C4705 1.495 . S
C4702 C4701 1.392 . S
C4702 C4703 1.385 . S
C4702 C4704 1.478 . S
C4703 H4697 0.930 . S
C4703 C4699 1.400 . S
C4703 C4702 1.385 . S
C4704 C4702 1.478 . S
C4704 C4706 1.381 . S
C4704 C4710 1.383 . S
C4705 C4701 1.495 . S
C4705 H4711 0.959 . S
C4705 H4712 0.961 . S
C4705 H4713 0.960 . S
C4706 C4704 1.381 . S
C4706 C4707 1.394 . S
C4706 H4714 0.930 . S
C4707 C4706 1.394 . S
C4707 C4708 1.383 . S
C4707 H4715 0.929 . S
C4708 C4707 1.383 . S
C4708 C4709 1.377 . S
C4709 H4693 0.930 . S
C4709 C4708 1.377 . S
C4709 C4710 1.379 . S
C4710 H4694 0.931 . S
C4710 C4704 1.383 . S
C4710 C4709 1.379 . S
H4711 C4705 0.959 . S
H4712 C4705 0.961 . S
H4713 C4705 0.960 . S
H4714 C4706 0.930 . S
H4715 C4707 0.929 . S
H4716 C4724 0.929 . S
H4717 C4726 0.930 . S
H4718 C4728 0.930 . S
H4719 C4731 0.929 . S
H4720 C4734 0.930 . S
H4721 C4736 0.960 . S
H4722 C4736 0.960 . S
H4723 C4736 0.960 . S
C4724 H4716 0.929 . S
C4724 C4725 1.377 . S
C4724 C4726 1.384 . S
C4725 C4724 1.377 . S
C4725 C4731 1.390 . S
C4726 H4717 0.930 . S
C4726 C4724 1.384 . S
C4726 C4727 1.372 . S
C4727 C4726 1.372 . S
C4727 C4728 1.400 . S
C4727 C4732 1.490 . S
C4728 H4718 0.930 . S
C4728 C4727 1.400 . S
C4728 C4731 1.386 . S
H4729 C4745 0.930 . S
H4730 C4746 0.931 . S
C4731 H4719 0.929 . S
C4731 C4725 1.390 . S
C4731 C4728 1.386 . S
C4732 C4727 1.490 . S
C4732 C4734 1.395 . S
C4732 C4735 1.403 . S
H4733 C4739 0.930 . S
C4734 H4720 0.930 . S
C4734 C4732 1.395 . S
C4734 C4737 1.403 . S
C4735 C4732 1.403 . S
C4735 C4736 1.524 . S
C4735 C4739 1.400 . S
C4736 H4721 0.960 . S
C4736 H4722 0.960 . S
C4736 H4723 0.960 . S
C4736 C4735 1.524 . S
C4737 C4734 1.403 . S
C4737 C4738 1.392 . S
C4737 C4741 1.495 . S
C4738 C4737 1.392 . S
C4738 C4739 1.385 . S
C4738 C4740 1.478 . S
C4739 H4733 0.930 . S
C4739 C4735 1.400 . S
C4739 C4738 1.385 . S
C4740 C4738 1.478 . S
C4740 C4742 1.381 . S
C4740 C4746 1.383 . S
C4741 C4737 1.495 . S
C4741 H4747 0.959 . S
C4741 H4748 0.961 . S
C4741 H4749 0.960 . S
C4742 C4740 1.381 . S
C4742 C4743 1.394 . S
C4742 H4750 0.930 . S
C4743 C4742 1.394 . S
C4743 C4744 1.383 . S
C4743 H4751 0.929 . S
C4744 C4743 1.383 . S
C4744 C4745 1.377 . S
C4745 H4729 0.930 . S
C4745 C4744 1.377 . S
C4745 C4746 1.379 . S
C4746 H4730 0.931 . S
C4746 C4740 1.383 . S
C4746 C4745 1.379 . S
H4747 C4741 0.959 . S
H4748 C4741 0.961 . S
H4749 C4741 0.960 . S
H4750 C4742 0.930 . S
H4751 C4743 0.929 . S
H4752 C4760 0.929 . S
H4753 C4762 0.930 . S
H4754 C4764 0.930 . S
H4755 C4767 0.929 . S
H4756 C4770 0.930 . S
H4757 C4772 0.960 . S
H4758 C4772 0.960 . S
H4759 C4772 0.960 . S
C4760 H4752 0.929 . S
C4760 C4761 1.377 . S
C4760 C4762 1.384 . S
C4761 C4760 1.377 . S
C4761 C4767 1.390 . S
C4762 H4753 0.930 . S
C4762 C4760 1.384 . S
C4762 C4763 1.372 . S
C4763 C4762 1.372 . S
C4763 C4764 1.400 . S
C4763 C4768 1.490 . S
C4764 H4754 0.930 . S
C4764 C4763 1.400 . S
C4764 C4767 1.386 . S
H4765 C4781 0.930 . S
H4766 C4782 0.931 . S
C4767 H4755 0.929 . S
C4767 C4761 1.390 . S
C4767 C4764 1.386 . S
C4768 C4763 1.490 . S
C4768 C4770 1.395 . S
C4768 C4771 1.403 . S
H4769 C4775 0.930 . S
C4770 H4756 0.930 . S
C4770 C4768 1.395 . S
C4770 C4773 1.403 . S
C4771 C4768 1.403 . S
C4771 C4772 1.524 . S
C4771 C4775 1.400 . S
C4772 H4757 0.960 . S
C4772 H4758 0.960 . S
C4772 H4759 0.960 . S
C4772 C4771 1.524 . S
C4773 C4770 1.403 . S
C4773 C4774 1.392 . S
C4773 C4777 1.495 . S
C4774 C4773 1.392 . S
C4774 C4775 1.385 . S
C4774 C4776 1.478 . S
C4775 H4769 0.930 . S
C4775 C4771 1.400 . S
C4775 C4774 1.385 . S
C4776 C4774 1.478 . S
C4776 C4778 1.381 . S
C4776 C4782 1.383 . S
C4777 C4773 1.495 . S
C4777 H4783 0.959 . S
C4777 H4784 0.961 . S
C4777 H4785 0.960 . S
C4778 C4776 1.381 . S
C4778 C4779 1.394 . S
C4778 H4786 0.930 . S
C4779 C4778 1.394 . S
C4779 C4780 1.383 . S
C4779 H4787 0.929 . S
C4780 C4779 1.383 . S
C4780 C4781 1.377 . S
C4781 H4765 0.930 . S
C4781 C4780 1.377 . S
C4781 C4782 1.379 . S
C4782 H4766 0.931 . S
C4782 C4776 1.383 . S
C4782 C4781 1.379 . S
H4783 C4777 0.959 . S
H4784 C4777 0.961 . S
H4785 C4777 0.960 . S
H4786 C4778 0.930 . S
H4787 C4779 0.929 . S
H4788 C4796 0.929 . S
H4789 C4798 0.930 . S
H4790 C4800 0.930 . S
H4791 C4803 0.929 . S
H4792 C4806 0.915 1_455 S
H4793 C4808 0.960 . S
H4794 C4808 0.960 . S
H4795 C4808 0.960 . S
C4796 H4788 0.929 . S
C4796 C4797 1.377 . S
C4796 C4798 1.384 . S
C4797 C4796 1.377 . S
C4797 C4803 1.390 . S
C4798 H4789 0.930 . S
C4798 C4796 1.384 . S
C4798 C4799 1.372 . S
C4799 C4798 1.372 . S
C4799 C4800 1.400 . S
C4799 C4804 1.490 . S
C4800 H4790 0.930 . S
C4800 C4799 1.400 . S
C4800 C4803 1.386 . S
H4801 C4817 0.928 1_455 S
H4802 C4818 0.931 . S
C4803 H4791 0.929 . S
C4803 C4797 1.390 . S
C4803 C4800 1.386 . S
C4804 C4799 1.490 . S
C4804 C4806 1.435 . S
C4804 C4807 1.403 . S
H4805 C4811 0.930 . S
C4806 H4792 0.915 1_655 S
C4806 C4804 1.435 . S
C4806 C4809 1.379 1_655 S
C4807 C4804 1.403 . S
C4807 C4808 1.524 . S
C4807 C4811 1.400 . S
C4808 H4793 0.960 . S
C4808 H4794 0.960 . S
C4808 H4795 0.960 . S
C4808 C4807 1.524 . S
C4809 C4806 1.379 1_455 S
C4809 C4810 1.392 1_455 S
C4809 C4813 1.495 . S
C4810 C4809 1.392 1_655 S
C4810 C4811 1.385 . S
C4810 C4812 1.478 . S
C4811 H4805 0.930 . S
C4811 C4807 1.400 . S
C4811 C4810 1.385 . S
C4812 C4810 1.478 . S
C4812 C4814 1.381 . S
C4812 C4818 1.383 . S
C4813 C4809 1.495 . S
C4813 H4819 0.959 . S
C4813 H4820 0.961 . S
C4813 H4821 0.960 . S
C4814 C4812 1.381 . S
C4814 C4815 1.394 . S
C4814 H4822 0.930 . S
C4815 C4814 1.394 . S
C4815 C4816 1.383 . S
C4815 H4823 0.929 . S
C4816 C4815 1.383 . S
C4816 C4817 1.377 . S
C4817 H4801 0.928 1_655 S
C4817 C4816 1.377 . S
C4817 C4818 1.379 . S
C4818 H4802 0.931 . S
C4818 C4812 1.383 . S
C4818 C4817 1.379 . S
H4819 C4813 0.959 . S
H4820 C4813 0.961 . S
H4821 C4813 0.960 . S
H4822 C4814 0.930 . S
H4823 C4815 0.929 . S
H4824 C4832 0.929 . S
H4825 C4834 0.930 . S
H4826 C4836 0.930 . S
H4827 C4839 0.929 . S
H4828 C4842 0.930 . S
H4829 C4844 0.960 . S
H4830 C4844 0.960 . S
H4831 C4844 0.960 . S
C4832 H4824 0.929 . S
C4832 C4833 1.377 . S
C4832 C4834 1.384 . S
C4833 C4832 1.377 . S
C4833 C4839 1.390 . S
C4834 H4825 0.930 . S
C4834 C4832 1.384 . S
C4834 C4835 1.372 . S
C4835 C4834 1.372 . S
C4835 C4836 1.400 . S
C4835 C4840 1.490 . S
C4836 H4826 0.930 . S
C4836 C4835 1.400 . S
C4836 C4839 1.386 . S
H4837 C4853 0.930 . S
H4838 C4854 0.931 . S
C4839 H4827 0.929 . S
C4839 C4833 1.390 . S
C4839 C4836 1.386 . S
C4840 C4835 1.490 . S
C4840 C4842 1.395 . S
C4840 C4843 1.403 . S
H4841 C4847 0.930 . S
C4842 H4828 0.930 . S
C4842 C4840 1.395 . S
C4842 C4845 1.403 . S
C4843 C4840 1.403 . S
C4843 C4844 1.524 . S
C4843 C4847 1.400 . S
C4844 H4829 0.960 . S
C4844 H4830 0.960 . S
C4844 H4831 0.960 . S
C4844 C4843 1.524 . S
C4845 C4842 1.403 . S
C4845 C4846 1.392 . S
C4845 C4849 1.495 . S
C4846 C4845 1.392 . S
C4846 C4847 1.385 . S
C4846 C4848 1.478 . S
C4847 H4841 0.930 . S
C4847 C4843 1.400 . S
C4847 C4846 1.385 . S
C4848 C4846 1.478 . S
C4848 C4850 1.381 . S
C4848 C4854 1.383 . S
C4849 C4845 1.495 . S
C4849 H4855 0.959 . S
C4849 H4856 0.961 . S
C4849 H4857 0.960 . S
C4850 C4848 1.381 . S
C4850 C4851 1.394 . S
C4850 H4858 0.930 . S
C4851 C4850 1.394 . S
C4851 C4852 1.383 . S
C4851 H4859 0.929 . S
C4852 C4851 1.383 . S
C4852 C4853 1.377 . S
C4853 H4837 0.930 . S
C4853 C4852 1.377 . S
C4853 C4854 1.379 . S
C4854 H4838 0.931 . S
C4854 C4848 1.383 . S
C4854 C4853 1.379 . S
H4855 C4849 0.959 . S
H4856 C4849 0.961 . S
H4857 C4849 0.960 . S
H4858 C4850 0.930 . S
H4859 C4851 0.929 . S
H4860 C4868 0.929 1_565 S
H4861 C4870 0.930 1_565 S
H4862 C4872 0.930 . S
H4863 C4875 0.929 . S
H4864 C4878 0.930 . S
H4865 C4880 0.960 . S
H4866 C4880 0.960 . S
H4867 C4880 0.960 . S
C4868 H4860 0.929 1_545 S
C4868 C4869 1.377 . S
C4868 C4870 1.384 . S
C4869 C4868 1.377 . S
C4869 C4875 1.390 . S
C4870 H4861 0.930 1_545 S
C4870 C4868 1.384 . S
C4870 C4871 1.372 . S
C4871 C4870 1.372 . S
C4871 C4872 1.400 . S
C4871 C4876 1.490 . S
C4872 H4862 0.930 . S
C4872 C4871 1.400 . S
C4872 C4875 1.386 . S
H4873 C4889 0.930 . S
H4874 C4890 0.931 . S
C4875 H4863 0.929 . S
C4875 C4869 1.390 . S
C4875 C4872 1.386 . S
C4876 C4871 1.490 . S
C4876 C4878 1.395 1_545 S
C4876 C4879 1.403 . S
H4877 C4883 0.930 . S
C4878 H4864 0.930 . S
C4878 C4876 1.395 1_565 S
C4878 C4881 1.403 . S
C4879 C4876 1.403 . S
C4879 C4880 1.524 . S
C4879 C4883 1.400 . S
C4880 H4865 0.960 . S
C4880 H4866 0.960 . S
C4880 H4867 0.960 . S
C4880 C4879 1.524 . S
C4881 C4878 1.403 . S
C4881 C4882 1.392 1_565 S
C4881 C4885 1.495 . S
C4882 C4881 1.392 1_545 S
C4882 C4883 1.385 . S
C4882 C4884 1.478 . S
C4883 H4877 0.930 . S
C4883 C4879 1.400 . S
C4883 C4882 1.385 . S
C4884 C4882 1.478 . S
C4884 C4886 1.381 1_545 S
C4884 C4890 1.383 . S
C4885 C4881 1.495 . S
C4885 H4891 0.959 . S
C4885 H4892 0.961 . S
C4885 H4893 0.960 . S
C4886 C4884 1.381 1_565 S
C4886 C4887 1.394 . S
C4886 H4894 0.930 . S
C4887 C4886 1.394 . S
C4887 C4888 1.445 . S
C4887 H4895 0.929 . S
C4888 C4887 1.445 . S
C4888 C4889 1.352 1_565 S
C4889 H4873 0.930 . S
C4889 C4888 1.352 1_545 S
C4889 C4890 1.379 . S
C4890 H4874 0.931 . S
C4890 C4884 1.383 . S
C4890 C4889 1.379 . S
H4891 C4885 0.959 . S
H4892 C4885 0.961 . S
H4893 C4885 0.960 . S
H4894 C4886 0.930 . S
H4895 C4887 0.929 . S
C2313 C13 1.225 . S
C2332 C1307 0.973 1_655 S
C2349 C27 1.355 . S
C2368 C1447 0.985 . S
C2404 C1535 1.098 . S
C2385 C36 1.165 . S
C2421 C41 1.355 . S
C2440 C1675 0.991 1_565 S
C2457 C8 1.327 . S
C2476 C1789 1.020 . S
C2493 C22 1.489 1_556 S
C2512 C1877 1.239 . S
C2529 C55 1.229 . S
C2548 C1763 0.954 . S
C2584 C1903 1.068 . S
C2565 C69 1.302 . S
C2620 C1649 1.090 . S
C2601 C78 1.191 1_556 S
C2637 C83 1.339 . S
C2656 C1561 0.983 . S
C2692 C1333 1.086 . S
C2673 C50 1.353 . S
C2709 C64 1.407 . S
C2728 C1421 1.285 . S
C2745 C97 1.623 . S
C2764 C1991 1.324 . S
C2781 C111 1.463 . S
C2800 C2131 1.051 . S
C2836 C2219 1.290 . S
C2817 C120 1.573 . S
C2853 C125 1.591 . S
C2872 C307 1.148 . S
C2889 C92 1.842 . S
C2908 C421 1.262 . S
C2925 C106 1.601 . S
C2944 C509 1.187 . S
C2961 C139 1.404 . S
C2980 C395 1.269 . S
C2997 C153 1.374 . S
C3016 C535 1.261 . S
C3052 C281 1.372 . S
C3033 C162 1.528 . S
C3088 C2245 1.515 . S
C3069 C167 1.657 . S
C3124 C2017 1.498 . S
C3105 C134 1.699 . S
C3160 C2105 1.388 . S
C3141 C148 1.540 . S
C3177 C181 1.489 . S
C3196 C623 1.221 . S
C3213 C195 1.435 . S
C3232 C763 0.934 . S
C3249 C204 1.616 . S
C3268 C851 1.288 . S
C3285 C209 1.726 . S
C3304 C991 1.158 . S
C3340 C1105 1.284 . S
C3321 C176 1.818 . S
C3376 C1193 1.229 . S
C3357 C190 1.638 . S
C3412 C1079 1.446 . S
C3393 C223 1.559 . S
C3448 C1219 1.183 . S
C3429 C237 1.406 . S
C3465 C246 1.468 . S
C3484 C965 1.318 . S
C3520 C877 1.323 . S
C3501 C251 1.501 . S
C3537 C218 1.752 . S
C3556 C649 1.565 . S
C3592 C737 1.396 . S
C3573 C232 1.520 . S
C3628 C263 0.967 . S
C3609 C11 1.670 . S
C3645 C25 1.391 . S
C3664 C377 0.799 . S
C3700 C481 1.202 . S
C3681 C35 1.591 . S
C3736 C595 1.114 . S
C3717 C39 1.523 . S
C3772 C719 0.932 . S
C3753 C7 1.748 . S
C3808 C823 1.059 . S
C3789 C21 1.523 1_556 S
C3825 C53 1.764 1_556 S
C3844 C833 1.405 . S
C3861 C67 1.474 . S
C3880 C605 1.112 . S
C3897 C77 1.661 1_556 S
C3916 C709 1.370 . S
C3933 C81 1.616 . S
C3952 C367 1.462 . S
C3988 C491 1.347 . S
C3969 C49 1.844 . S
C4005 C63 1.617 . S
C4024 C253 1.427 . S
C4060 C947 0.841 . S
C4041 C95 1.578 . S
C4077 C109 1.555 . S
C4096 C1061 0.917 . S
C4113 C119 1.635 1_655 S
C4132 C1165 1.175 . S
C4168 C1279 0.916 . S
C4149 C123 1.019 . S
C4185 C91 1.605 . S
C4204 C1403 0.845 . S
C4221 C105 1.115 . S
C4240 C1507 0.840 . S
C4257 C137 1.298 . S
C4276 C1517 0.768 1_565 S
C4293 C151 1.001 . S
C4312 C1289 0.848 1_455 S
C4348 C1393 1.330 . S
C4329 C161 1.543 . S
C4365 C165 1.541 . S
C4384 C1051 1.362 . S
C4401 C133 1.855 . S
C4420 C1175 1.343 . S
C4456 C937 1.537 . S
C4437 C147 1.778 . S
C4492 C1631 0.899 . S
C4473 C179 1.309 . S
C4509 C193 0.982 . S
C4528 C1745 0.846 . S
C4545 C203 1.446 . S
C4564 C1849 1.053 . S
C4600 C1963 1.026 . S
C4581 C207 1.406 . S
C4636 C2087 1.106 . S
C4617 C175 1.759 1_565 S
C4653 C189 1.685 . S
C4672 C2191 1.163 . S
C4689 C221 1.685 . S
C4708 C2201 1.238 . S
C4725 C235 1.643 . S
C4744 C1973 1.179 . S
C4780 C2077 1.430 . S
C4761 C245 1.701 . S
C4816 C1735 0.735 1_655 S
C4797 C249 1.010 . S
C4852 C1859 1.303 . S
C4833 C217 1.701 . S
C4869 C231 1.159 . S
C4888 C1621 0.959 . S
