# Generated by pormake.
# Topology zzz, (3,6)-cn, num edge types: 1
# Building blocks:
#     Node 0, Type 0, BuildingBlock: ESEHIV_clean_linker_0, # of connection points: 3
#     Node 1, Type 0, BuildingBlock: ESEHIV_clean_linker_0, # of connection points: 3
#     Node 2, Type 0, BuildingBlock: ESEHIV_clean_linker_0, # of connection points: 3
#     Node 3, Type 0, BuildingBlock: ESEHIV_clean_linker_0, # of connection points: 3
#     Node 4, Type 0, BuildingBlock: ESEHIV_clean_linker_0, # of connection points: 3
#     Node 5, Type 0, BuildingBlock: ESEHIV_clean_linker_0, # of connection points: 3
#     Node 6, Type 0, BuildingBlock: ESEHIV_clean_linker_0, # of connection points: 3
#     Node 7, Type 0, BuildingBlock: ESEHIV_clean_linker_0, # of connection points: 3
#     Node 8, Type 1, BuildingBlock: HISSIN_clean_sbu_0, # of connection points: 6
#     Node 9, Type 1, BuildingBlock: HISSIN_clean_sbu_0, # of connection points: 6
#     Node 10, Type 1, BuildingBlock: HISSIN_clean_sbu_0, # of connection points: 6
#     Node 11, Type 1, BuildingBlock: HISSIN_clean_sbu_0, # of connection points: 6
#     Edge 12, Type (0, 1), BuildingBlock: KIFKEQ_clean_linker_1, # of connection points: 2
#     Edge 13, Type (0, 1), BuildingBlock: KIFKEQ_clean_linker_1, # of connection points: 2
#     Edge 14, Type (0, 1), BuildingBlock: KIFKEQ_clean_linker_1, # of connection points: 2
#     Edge 15, Type (0, 1), BuildingBlock: KIFKEQ_clean_linker_1, # of connection points: 2
#     Edge 16, Type (0, 1), BuildingBlock: KIFKEQ_clean_linker_1, # of connection points: 2
#     Edge 17, Type (0, 1), BuildingBlock: KIFKEQ_clean_linker_1, # of connection points: 2
#     Edge 18, Type (0, 1), BuildingBlock: KIFKEQ_clean_linker_1, # of connection points: 2
#     Edge 19, Type (0, 1), BuildingBlock: KIFKEQ_clean_linker_1, # of connection points: 2
#     Edge 20, Type (0, 1), BuildingBlock: KIFKEQ_clean_linker_1, # of connection points: 2
#     Edge 21, Type (0, 1), BuildingBlock: KIFKEQ_clean_linker_1, # of connection points: 2
#     Edge 22, Type (0, 1), BuildingBlock: KIFKEQ_clean_linker_1, # of connection points: 2
#     Edge 23, Type (0, 1), BuildingBlock: KIFKEQ_clean_linker_1, # of connection points: 2
#     Edge 24, Type (0, 1), BuildingBlock: KIFKEQ_clean_linker_1, # of connection points: 2
#     Edge 25, Type (0, 1), BuildingBlock: KIFKEQ_clean_linker_1, # of connection points: 2
#     Edge 26, Type (0, 1), BuildingBlock: KIFKEQ_clean_linker_1, # of connection points: 2
#     Edge 27, Type (0, 1), BuildingBlock: KIFKEQ_clean_linker_1, # of connection points: 2
#     Edge 28, Type (0, 1), BuildingBlock: KIFKEQ_clean_linker_1, # of connection points: 2
#     Edge 29, Type (0, 1), BuildingBlock: KIFKEQ_clean_linker_1, # of connection points: 2
#     Edge 30, Type (0, 1), BuildingBlock: KIFKEQ_clean_linker_1, # of connection points: 2
#     Edge 31, Type (0, 1), BuildingBlock: KIFKEQ_clean_linker_1, # of connection points: 2
#     Edge 32, Type (0, 1), BuildingBlock: KIFKEQ_clean_linker_1, # of connection points: 2
#     Edge 33, Type (0, 1), BuildingBlock: KIFKEQ_clean_linker_1, # of connection points: 2
#     Edge 34, Type (0, 1), BuildingBlock: KIFKEQ_clean_linker_1, # of connection points: 2
#     Edge 35, Type (0, 1), BuildingBlock: KIFKEQ_clean_linker_1, # of connection points: 2
# Relax obj value: 0.451
# Max RMSD: 0.240
# Mean RMSD: 0.195
data_MOF--net-zzz--node1-HISSIN_clean_sbu_0--node2-ESEHIV_clean_linker_0--edge1-KIFKEQ_clean_linker_1
_symmetry_space_group_name_H-M    P1
_symmetry_Int_Tables_number       1
_symmetry_cell_setting            triclinic
loop_
_symmetry_equiv_pos_as_xyz
'x, y, z'
_cell_length_a     44.159732
_cell_length_b     44.145672
_cell_length_c     17.129988
_cell_angle_alpha  89.903438
_cell_angle_beta   91.961188
_cell_angle_gamma 91.318797
loop_
_atom_site_label
_atom_site_type_symbol
_atom_site_fract_x
_atom_site_fract_y
_atom_site_fract_z
_atom_type_partial_charge
H0 H 0.80097 0.49524 0.2972 0.0
H1 H 0.72869 0.50327 0.12539 0.0
H2 H 0.73306 0.56243 0.32593 0.0
C3 C 0.7805 0.50615 0.27631 0.0
C4 C 0.76936 0.53007 0.31975 0.0
C5 C 0.76665 0.4968 0.20541 0.0
C6 C 0.73966 0.51027 0.18023 0.0
C7 C 0.72687 0.53342 0.2236 0.0
C8 C 0.74226 0.54409 0.29292 0.0
H9 H 0.96773 0.82988 0.2849 0.0
H10 H 0.95676 0.76341 0.10345 0.0
H11 H 0.02675 0.75388 0.28465 0.0
C12 C 0.97376 0.8083 0.26014 0.0
C13 C 0.99812 0.79311 0.29458 0.0
C14 C 0.95896 0.79812 0.19131 0.0
C15 C 0.96787 0.77096 0.15765 0.0
C16 C 0.99194 0.75424 0.1909 0.0
C17 C 1.00772 0.76589 0.25922 0.0
H18 H 0.72992 0.95342 0.24835 0.0
H19 H 0.81141 0.95423 0.11853 0.0
H20 H 0.79347 0.02826 0.27291 0.0
C21 C 0.7518 0.96346 0.23547 0.0
C22 C 0.76049 0.99062 0.27348 0.0
C23 C 0.76905 0.95087 0.1767 0.0
C24 C 0.79721 0.96442 0.16116 0.0
C25 C 0.80592 0.99281 0.19194 0.0
C26 C 0.78722 1.00631 0.24849 0.0
H27 H 0.46437 0.75836 0.29159 0.0
H28 H 0.5486 0.80895 0.27911 0.0
H29 H 0.47184 0.83264 0.13093 0.0
C30 C 0.47715 0.77751 0.2689 0.0
C31 C 0.46454 0.79482 0.20776 0.0
C32 C 0.50712 0.78251 0.29658 0.0
C33 C 0.525 0.80567 0.26122 0.0
C34 C 0.51191 0.82426 0.20168 0.0
C35 C 0.48159 0.81897 0.17767 0.0
H36 H 0.22129 0.47975 0.08837 0.0
H37 H 0.28225 0.46437 0.28307 0.0
H38 H 0.30973 0.52227 0.09227 0.0
C39 C 0.24366 0.48253 0.11607 0.0
C40 C 0.26466 0.50181 0.08102 0.0
C41 C 0.24969 0.46904 0.18851 0.0
C42 C 0.27808 0.47414 0.22574 0.0
C43 C 0.30052 0.49275 0.19148 0.0
C44 C 0.29332 0.50726 0.11896 0.0
H45 H 0.08548 0.23727 0.11644 0.0
H46 H 0.09842 0.30325 0.29766 0.0
H47 H 0.034 0.31867 0.10575 0.0
C48 C 0.08094 0.25953 0.13964 0.0
C49 C 0.05883 0.27669 0.10159 0.0
C50 C 0.0951 0.26874 0.20999 0.0
C51 C 0.08797 0.29678 0.24178 0.0
C52 C 0.06654 0.31579 0.20454 0.0
C53 C 0.0512 0.3051 0.13443 0.0
H54 H 0.30326 0.97569 0.09593 0.0
H55 H 0.24044 0.97744 0.28238 0.0
H56 H 0.25736 0.05791 0.147 0.0
C57 C 0.28732 0.98767 0.13054 0.0
C58 C 0.28307 0.01846 0.11499 0.0
C59 C 0.27327 0.97279 0.1927 0.0
C60 C 0.25146 0.98834 0.23392 0.0
C61 C 0.24447 0.01855 0.21675 0.0
C62 C 0.26123 0.03416 0.15837 0.0
H63 H 0.58327 0.32015 0.13403 0.0
H64 H 0.50458 0.2607 0.10985 0.0
H65 H 0.57334 0.24461 0.28917 0.0
C66 C 0.5709 0.29981 0.15094 0.0
C67 C 0.58155 0.28318 0.21558 0.0
C68 C 0.54342 0.29209 0.11117 0.0
C69 C 0.52614 0.26675 0.13832 0.0
C70 C 0.53735 0.24917 0.20238 0.0
C71 C 0.56503 0.25762 0.23941 0.0
Eu72 Eu 1.00208 0.04322 0.64207 0.0
Eu73 Eu 0.05023 0.02196 0.77622 0.0
C74 C 0.03028 0.09169 0.77091 0.0
C75 C 0.98248 0.06974 0.44223 0.0
C76 C 1.00364 0.05073 0.4086 0.0
C77 C 1.0002 0.11118 0.36163 0.0
C78 C 0.02432 0.06262 0.35608 0.0
C79 C 0.97923 0.09926 0.41323 0.0
C80 C 0.02431 0.09355 0.33823 0.0
C81 C 0.97122 0.06273 0.52029 0.0
O82 O 1.00383 0.02131 0.83351 0.0
O83 O 0.9687 0.03269 0.73649 0.0
C84 C 0.97547 0.02577 0.80965 0.0
O85 O 1.00019 0.99198 0.63284 0.0
O86 O 0.08058 0.03021 0.87825 0.0
O87 O 0.06927 0.98436 0.84246 0.0
O88 O 0.04665 0.9827 0.68881 0.0
C89 C 0.02314 0.97394 0.64442 0.0
O90 O 0.0488 0.04473 0.58542 0.0
O91 O 0.08368 0.03213 0.68219 0.0
O92 O 0.05297 0.07332 0.78323 0.0
O93 O 0.97102 0.03438 0.54182 0.0
O94 O 0.98263 0.08043 0.5751 0.0
O95 O 1.00639 0.08285 0.728 0.0
C96 C 0.0676 0.99428 0.97555 0.0
C97 C 0.06961 0.96438 1.00275 0.0
C98 C 0.02538 1.00196 0.06032 0.0
C99 C 0.04797 0.9527 0.05293 0.0
C100 C 0.04676 0.01363 1.00926 0.0
C101 C 0.02439 0.97094 0.07688 0.0
C102 C 0.07998 1.00173 0.89881 0.0
C103 C 0.07712 0.03977 0.60938 0.0
H104 H 1.00658 0.02777 0.42943 0.0
H105 H 0.99982 0.13517 0.34817 0.0
H106 H 0.04244 0.04859 0.33688 0.0
H107 H 0.96307 0.11428 0.43815 0.0
H108 H 0.08545 0.94905 0.97772 0.0
H109 H 1.00781 0.01642 0.08058 0.0
H110 H 0.04759 0.92862 0.06537 0.0
H111 H 0.04476 0.0369 0.98992 0.0
Eu112 Eu 0.53548 0.0528 0.73749 0.0
Eu113 Eu 0.50262 1.00388 0.62326 0.0
C114 C 0.52937 0.98288 0.78869 0.0
C115 C 0.59881 0.06673 0.86018 0.0
C116 C 0.61442 0.05129 0.8028 0.0
C117 C 0.62036 0.03278 0.95771 0.0
C118 C 0.62996 0.02505 0.82123 0.0
C119 C 0.60343 0.05832 0.93848 0.0
C120 C 0.63207 0.01444 0.89868 0.0
C121 C 0.57057 0.08177 0.83567 0.0
O122 O 0.46336 0.01847 0.69773 0.0
O123 O 0.48763 0.0518 0.78354 0.0
C124 C 0.46305 0.03651 0.75929 0.0
O125 O 0.51165 0.083 0.6495 0.0
O126 O 0.50093 0.95774 0.57703 0.0
O127 O 0.4698 0.99128 0.53083 0.0
O128 O 0.50712 0.04753 0.55201 0.0
C129 C 0.50721 0.07604 0.57522 0.0
O130 O 0.56882 0.04641 0.64029 0.0
O131 O 0.55308 0.9995 0.59935 0.0
O132 O 0.50585 0.98053 0.74038 0.0
O133 O 0.5683 0.08987 0.76235 0.0
O134 O 0.54626 0.06719 0.85747 0.0
O135 O 0.54839 1.00597 0.7823 0.0
C136 C 0.45202 0.9401 0.5352 0.0
C137 C 0.42264 0.9487 0.55245 0.0
C138 C 0.43267 0.8893 0.50496 0.0
C139 C 0.39828 0.92834 0.54155 0.0
C140 C 0.45705 0.90991 0.5148 0.0
C141 C 0.40272 0.89874 0.51371 0.0
C142 C 0.47705 0.96273 0.53238 0.0
C143 C 0.57365 0.0216 0.60085 0.0
H144 H 0.61191 0.05738 0.74178 0.0
H145 H 0.6229 0.02685 0.01879 0.0
H146 H 0.63845 0.0124 0.77305 0.0
H147 H 0.59173 0.0698 0.98404 0.0
H148 H 0.41814 0.9717 0.56991 0.0
H149 H 0.4372 0.86656 0.48569 0.0
H150 H 0.3758 0.93693 0.54871 0.0
H151 H 0.47969 0.90264 0.50271 0.0
Eu152 Eu 0.49036 0.54621 0.75424 0.0
Eu153 Eu 0.54564 0.52659 0.64685 0.0
C154 C 0.55827 0.54679 0.82576 0.0
C155 C 0.42611 0.58567 0.86067 0.0
C156 C 0.43265 0.61498 0.83368 0.0
C157 C 0.38849 0.6057 0.94533 0.0
C158 C 0.41756 0.63964 0.86355 0.0
C159 C 0.40355 0.58106 0.91525 0.0
C160 C 0.3958 0.63531 0.92104 0.0
C161 C 0.44282 0.55969 0.8336 0.0
O162 O 0.52999 0.48154 0.70053 0.0
O163 O 0.50225 0.4998 0.80058 0.0
C164 C 0.51584 0.47736 0.76667 0.0
O165 O 0.47124 0.51669 0.65541 0.0
O166 O 0.59345 0.53105 0.61844 0.0
O167 O 0.56257 0.50282 0.54707 0.0
O168 O 0.50441 0.53266 0.56588 0.0
C169 C 0.4774 0.52212 0.58233 0.0
O170 O 0.49755 0.5872 0.6752 0.0
O171 O 0.54562 0.57786 0.63654 0.0
O172 O 0.56414 0.52708 0.77134 0.0
O173 O 0.44217 0.55516 0.7585 0.0
O174 O 0.46967 0.55575 0.86543 0.0
O175 O 0.53337 0.56272 0.82063 0.0
C176 C 0.61355 0.48858 0.55625 0.0
C177 C 0.60874 0.46003 0.59002 0.0
C178 C 0.65743 0.46976 0.49199 0.0
C179 C 0.62718 0.43602 0.57133 0.0
C180 C 0.63879 0.49371 0.51028 0.0
C181 C 0.65075 0.44026 0.51865 0.0
C182 C 0.59062 0.51194 0.56053 0.0
C183 C 0.52237 0.59588 0.63989 0.0
H184 H 0.44999 0.61884 0.79126 0.0
H185 H 0.37182 0.6017 0.98936 0.0
H186 H 0.42412 0.66221 0.84471 0.0
H187 H 0.39809 0.55845 0.93603 0.0
H188 H 0.58947 0.45578 0.62635 0.0
H189 H 0.67569 0.47389 0.45242 0.0
H190 H 0.62113 0.41366 0.59263 0.0
H191 H 0.643 0.51579 0.48455 0.0
Eu192 Eu 0.03394 0.56317 0.62246 0.0
Eu193 Eu 0.01464 0.5108 0.74382 0.0
C194 C 0.08445 0.53454 0.74855 0.0
C195 C 0.05357 0.58352 0.42527 0.0
C196 C 0.08141 0.58779 0.38935 0.0
C197 C 0.04409 0.53772 0.34884 0.0
C198 C 0.09142 0.56593 0.33787 0.0
C199 C 0.03393 0.55971 0.3995 0.0
C200 C 0.07368 0.53966 0.32237 0.0
C201 C 0.05009 0.59595 0.50408 0.0
O202 O 1.00916 0.55487 0.81262 0.0
O203 O 0.03056 0.59105 0.73256 0.0
C204 C 0.01882 0.58304 0.79959 0.0
O205 O 0.98318 0.56757 0.62618 0.0
O206 O 0.99959 0.49255 0.85486 0.0
O207 O 1.0049 0.4625 0.75705 0.0
O208 O 0.97218 0.51962 0.66869 0.0
C209 C 0.96369 0.54508 0.6354 0.0
O210 O 0.02515 0.51927 0.55416 0.0
O211 O 0.04125 0.48803 0.64995 0.0
O212 O 0.06327 0.51843 0.78248 0.0
O213 O 0.0227 0.5959 0.53014 0.0
O214 O 0.06938 0.58531 0.55577 0.0
O215 O 0.07857 0.55129 0.68615 0.0
C216 C 0.96528 0.45114 0.83944 0.0
C217 C 0.93895 0.46762 0.82524 0.0
C218 C 0.93464 0.40781 0.87872 0.0
C219 C 0.9107 0.45469 0.8405 0.0
C220 C 0.96299 0.42091 0.8639 0.0
C221 C 0.90822 0.42489 0.86972 0.0
C222 C 0.99508 0.46522 0.82728 0.0
C223 C 0.03536 0.49283 0.57565 0.0
H224 H 0.09698 0.60582 0.40854 0.0
H225 H 0.03004 0.51777 0.3366 0.0
H226 H 0.11443 0.56774 0.31806 0.0
H227 H 0.0122 0.5559 0.42579 0.0
H228 H 0.94033 0.49085 0.80491 0.0
H229 H 0.93353 0.38473 0.90019 0.0
H230 H 0.89107 0.46884 0.83399 0.0
H231 H 0.98317 0.4077 0.87336 0.0
H232 H 0.25022 0.04901 0.35662 0.0
H233 H 0.18327 0.01453 0.18946 0.0
H234 H 0.21052 0.05742 0.45027 0.0
H235 H 0.14356 0.02196 0.28272 0.0
H236 H 0.0725 0.05026 0.45171 0.0
H237 H 0.11173 0.05141 0.35497 0.0
H238 H 0.17862 0.03213 0.53699 0.0
H239 H 0.13913 0.03232 0.63346 0.0
C240 C 0.22683 0.04425 0.33877 0.0
C241 C 0.21997 0.03212 0.26405 0.0
C242 C 0.20394 0.04841 0.39333 0.0
C243 C 0.1733 0.04021 0.37563 0.0
C244 C 0.16646 0.02914 0.29946 0.0
C245 C 0.18934 0.02504 0.24509 0.0
C246 C 0.09557 0.04668 0.47115 0.0
C247 C 0.10219 0.04147 0.55093 0.0
C248 C 0.11834 0.04698 0.41526 0.0
C249 C 0.14895 0.04173 0.43668 0.0
C250 C 0.15568 0.03678 0.51703 0.0
C251 C 0.1328 0.03666 0.57292 0.0
H252 H 0.4957 0.24891 0.31632 0.0
H253 H 0.54624 0.18946 0.17359 0.0
H254 H 0.48344 0.20655 0.40307 0.0
H255 H 0.53468 0.14711 0.2604 0.0
H256 H 0.50048 0.07101 0.41508 0.0
H257 H 0.50068 0.11129 0.3173 0.0
H258 H 0.50998 0.17808 0.50089 0.0
H259 H 0.50917 0.13787 0.59849 0.0
C260 C 0.50307 0.22646 0.30158 0.0
C261 C 0.52116 0.22242 0.23655 0.0
C262 C 0.49665 0.2022 0.35236 0.0
C263 C 0.50834 0.17316 0.34003 0.0
C264 C 0.52489 0.16883 0.27203 0.0
C265 C 0.53133 0.19311 0.22145 0.0
C266 C 0.50223 0.09429 0.43484 0.0
C267 C 0.50486 0.10094 0.51531 0.0
C268 C 0.50254 0.11753 0.3784 0.0
C269 C 0.50544 0.14827 0.40033 0.0
C270 C 0.50726 0.15489 0.48097 0.0
C271 C 0.50698 0.13166 0.53738 0.0
H272 H 0.33374 0.44989 0.26903 0.0
H273 H 0.33536 0.54541 0.21463 0.0
H274 H 0.37713 0.45726 0.35885 0.0
H275 H 0.37975 0.55264 0.30393 0.0
H276 H 0.47606 0.54447 0.43192 0.0
H277 H 0.43566 0.53816 0.33078 0.0
H278 H 0.38394 0.48315 0.48904 0.0
H279 H 0.42392 0.4897 0.58998 0.0
C280 C 0.34346 0.47253 0.27574 0.0
C281 C 0.33046 0.49714 0.23527 0.0
C282 C 0.36842 0.47673 0.32753 0.0
C283 C 0.38169 0.50562 0.33999 0.0
C284 C 0.37008 0.53005 0.29593 0.0
C285 C 0.34469 0.52589 0.24437 0.0
C286 C 0.45612 0.5309 0.44502 0.0
C287 C 0.45341 0.51746 0.51927 0.0
C288 C 0.43286 0.52749 0.38712 0.0
C289 C 0.40652 0.51005 0.40141 0.0
C290 C 0.40399 0.49647 0.47548 0.0
C291 C 0.42694 0.5003 0.53363 0.0
H292 H 0.1082 0.35651 0.26748 0.0
H293 H 1.01162 0.34312 0.2328 0.0
H294 H 0.10001 0.39928 0.35298 0.0
H295 H 1.00338 0.38691 0.31788 0.0
H296 H 1.00514 0.4845 0.43367 0.0
H297 H 1.0115 0.44433 0.3369 0.0
H298 H 0.08028 0.40474 0.48716 0.0
H299 H 0.07376 0.44468 0.58368 0.0
C300 C 0.08509 0.36285 0.27736 0.0
C301 C 0.06059 0.34575 0.24358 0.0
C302 C 0.08041 0.38748 0.32696 0.0
C303 C 0.05102 0.39643 0.34414 0.0
C304 C 0.02638 0.38072 0.30642 0.0
C305 C 0.0311 0.35565 0.25708 0.0
C306 C 0.02174 0.46729 0.44588 0.0
C307 C 0.03912 0.46812 0.51652 0.0
C308 C 0.0252 0.44406 0.39053 0.0
C309 C 0.0465 0.42114 0.40351 0.0
C310 C 0.06384 0.42204 0.47431 0.0
C311 C 0.06 0.44493 0.53013 0.0
H312 H 0.86617 0.98119 0.21705 0.0
H313 H 0.80577 0.03399 0.07244 0.0
H314 H 0.90695 0.99075 0.12632 0.0
H315 H 0.84646 0.04381 0.98121 0.0
H316 H 0.91296 0.01971 0.78531 0.0
H317 H 0.87368 0.01666 0.88303 0.0
H318 H 0.9425 0.02573 0.06695 0.0
H319 H 0.98129 0.02956 0.96871 0.0
C320 C 0.86199 0.99614 0.16782 0.0
C321 C 0.8328 1.00777 0.15424 0.0
C322 C 0.88538 1.00134 0.11477 0.0
C323 C 0.88032 0.01792 0.04507 0.0
C324 C 0.85144 0.03063 0.03324 0.0
C325 C 0.82816 0.02564 0.08678 0.0
C326 C 0.91976 0.02109 0.84656 0.0
C327 C 0.95074 0.02402 0.86883 0.0
C328 C 0.89709 0.0195 0.90305 0.0
C329 C 0.90453 0.02074 0.98402 0.0
C330 C 0.93551 0.0241 1.00587 0.0
C331 C 0.958 0.02602 0.94938 0.0
H332 H 0.51938 0.88521 0.22905 0.0
H333 H 0.53849 0.8155 0.06361 0.0
H334 H 0.52939 0.92411 0.12982 0.0
H335 H 0.548 0.85408 0.96413 0.0
H336 H 0.50486 0.92549 0.79298 0.0
H337 H 0.50905 0.88785 0.89687 0.0
H338 H 0.56746 0.94898 0.03219 0.0
H339 H 0.56378 0.98677 0.92665 0.0
C340 C 0.52723 0.87826 0.17274 0.0
C341 C 0.52896 0.84723 0.15506 0.0
C342 C 0.53263 0.90055 0.11542 0.0
C343 C 0.53916 0.8923 0.03842 0.0
C344 C 0.5428 0.86133 0.02245 0.0
C345 C 0.53787 0.83917 0.07993 0.0
C346 C 0.51889 0.93093 0.84438 0.0
C347 C 0.53393 0.95932 0.85103 0.0
C348 C 0.52143 0.90919 0.90401 0.0
C349 C 0.53866 0.91522 0.97317 0.0
C350 C 0.55395 0.94354 0.97991 0.0
C351 C 0.55193 0.96516 0.91921 0.0
H352 H 0.71579 0.58385 0.13402 0.0
H353 H 0.67194 0.50587 0.23575 0.0
H354 H 0.67128 0.5908 0.04594 0.0
H355 H 0.62783 0.51242 0.14763 0.0
H356 H 0.59228 0.50188 0.88811 0.0
H357 H 0.62876 0.50398 0.99782 0.0
H358 H 0.61028 0.59848 0.0316 0.0
H359 H 0.57265 0.59617 0.92155 0.0
C360 C 0.69604 0.56915 0.14027 0.0
C361 C 0.69713 0.5447 0.19308 0.0
C362 C 0.67064 0.57292 0.08928 0.0
C363 C 0.64608 0.55196 0.08906 0.0
C364 C 0.64638 0.52887 0.14584 0.0
C365 C 0.67149 0.52535 0.19716 0.0
C366 C 0.59573 0.52315 0.91899 0.0
C367 C 0.57947 0.54887 0.89569 0.0
C368 C 0.61658 0.52428 0.9824 0.0
C369 C 0.62242 0.55135 0.02398 0.0
C370 C 0.60629 0.57726 1.00089 0.0
C371 C 0.58467 0.57592 0.93812 0.0
H372 H 0.04539 0.73971 0.12156 0.0
H373 H 0.95546 0.70464 0.16155 0.0
H374 H 0.05361 0.69749 0.03182 0.0
H375 H 0.96332 0.66275 0.0723 0.0
H376 H 0.99212 0.57807 0.94314 0.0
H377 H 0.98864 0.61656 0.04472 0.0
H378 H 0.03712 0.68058 0.9019 0.0
H379 H 0.04083 0.64209 0.80082 0.0
C380 C 0.02768 0.72255 0.11293 0.0
C381 C 0.99991 0.72546 0.14987 0.0
C382 C 0.03216 0.6985 0.06037 0.0
C383 C 1.00908 0.67645 0.0436 0.0
C384 C 0.98185 0.6788 0.08358 0.0
C385 C 0.97731 0.70292 0.1352 0.0
C386 C 1.0021 0.60032 0.93318 0.0
C387 C 0.01663 0.6067 0.86277 0.0
C388 C 1.00001 0.62258 0.99171 0.0
C389 C 0.01258 0.65204 0.98243 0.0
C390 C 0.02746 0.65825 0.91241 0.0
C391 C 0.02936 0.63607 0.85369 0.0
H392 H 0.08739 0.25265 0.36144 0.0
H393 H 0.1391 0.231 0.16053 0.0
H394 H 0.08834 0.20014 0.40211 0.0
H395 H 0.13841 0.17777 0.19901 0.0
H396 H 0.04004 0.11891 0.19932 0.0
H397 H 0.07961 0.15796 0.18373 0.0
H398 H 0.11022 0.14491 0.42325 0.0
H399 H 0.07081 0.10587 0.43823 0.0
C400 C 0.10071 0.23714 0.32862 0.0
C401 C 0.11178 0.2455 0.25567 0.0
C402 C 0.1011 0.20682 0.35172 0.0
C403 C 0.11234 0.18484 0.30169 0.0
C404 C 0.1291 0.19429 0.23766 0.0
C405 C 0.12951 0.22479 0.21588 0.0
C406 C 0.05629 0.12333 0.24697 0.0
C407 C 0.05281 0.10931 0.31946 0.0
C408 C 0.07906 0.14547 0.2382 0.0
C409 C 0.09803 0.15429 0.30246 0.0
C410 C 0.09621 0.13821 0.37276 0.0
C411 C 0.07374 0.11585 0.38112 0.0
H412 H 0.24266 0.92658 0.27122 0.0
H413 H 0.33069 0.95094 0.18254 0.0
H414 H 0.26603 0.88591 0.34738 0.0
H415 H 0.35262 0.90985 0.25181 0.0
H416 H 0.343 0.89599 0.55858 0.0
H417 H 0.30126 0.89473 0.46297 0.0
H418 H 0.35959 0.85712 0.29294 0.0
H419 H 0.40193 0.86098 0.38532 0.0
C420 C 0.26666 0.92299 0.26588 0.0
C421 C 0.2847 0.94298 0.22165 0.0
C422 C 0.27988 0.89929 0.30863 0.0
C423 C 0.3112 0.89459 0.30611 0.0
C424 C 0.32833 0.91225 0.25461 0.0
C425 C 0.31546 0.93625 0.21408 0.0
C426 C 0.34682 0.88662 0.50148 0.0
C427 C 0.37644 0.88129 0.47766 0.0
C428 C 0.32259 0.88531 0.44683 0.0
C429 C 0.32782 0.87784 0.36879 0.0
C430 C 0.35537 0.8644 0.35189 0.0
C431 C 0.37982 0.86662 0.40557 0.0
H432 H 0.63602 0.30694 0.16805 0.0
H433 H 0.58539 0.28711 0.37401 0.0
H434 H 0.67171 0.33835 0.24651 0.0
H435 H 0.62029 0.31837 0.45145 0.0
H436 H 0.66692 0.38526 0.58229 0.0
H437 H 0.66644 0.33755 0.51042 0.0
H438 H 0.66054 0.38726 0.29302 0.0
H439 H 0.66127 0.43421 0.36378 0.0
C440 C 0.63298 0.30866 0.23036 0.0
C441 C 0.6075 0.29517 0.26451 0.0
C442 C 0.65345 0.32655 0.27535 0.0
C443 C 0.64856 0.33152 0.35503 0.0
C444 C 0.62508 0.31505 0.39053 0.0
C445 C 0.60479 0.29711 0.34577 0.0
C446 C 0.66668 0.38593 0.51906 0.0
C447 C 0.66296 0.41348 0.47893 0.0
C448 C 0.66641 0.3586 0.47785 0.0
C449 C 0.6622 0.35847 0.39604 0.0
C450 C 0.66359 0.38626 0.35595 0.0
C451 C 0.66397 0.41349 0.39698 0.0
H452 H 0.2068 0.42849 0.12974 0.0
H453 H 0.23305 0.47896 0.33788 0.0
H454 H 0.15388 0.42967 0.16619 0.0
H455 H 0.18066 0.47855 0.37609 0.0
H456 H 0.09831 0.52726 0.18232 0.0
H457 H 0.13652 0.48922 0.16076 0.0
H458 H 0.12418 0.4539 0.39296 0.0
H459 H 0.08545 0.4915 0.41338 0.0
C460 C 0.20154 0.43816 0.18563 0.0
C461 C 0.22378 0.45491 0.22917 0.0
C462 C 0.17126 0.43873 0.20642 0.0
C463 C 0.16327 0.45494 0.2726 0.0
C464 C 0.18628 0.46604 0.32436 0.0
C465 C 0.21645 0.46619 0.30255 0.0
C466 C 0.10267 0.51031 0.22685 0.0
C467 C 0.08896 0.51199 0.29908 0.0
C468 C 0.12434 0.48843 0.21462 0.0
C469 C 0.13315 0.46861 0.27535 0.0
C470 C 0.11748 0.46863 0.34508 0.0
C471 C 0.09533 0.49007 0.35658 0.0
H472 H 0.96251 0.81565 0.03953 0.0
H473 H 0.91268 0.83153 0.24721 0.0
H474 H 0.95846 0.86856 1.00437 0.0
H475 H 0.91036 0.88519 0.21436 0.0
H476 H 0.97447 0.96432 0.98402 0.0
H477 H 0.9347 0.92536 0.99681 0.0
H478 H 0.97105 0.90347 0.22663 0.0
H479 H 1.01122 0.94188 0.21265 0.0
C480 C 0.94884 0.8299 0.07502 0.0
C481 C 0.93949 0.81998 0.14845 0.0
C482 C 0.94663 0.86046 0.05502 0.0
C483 C 0.93533 0.88106 0.10871 0.0
C484 C 0.9197 0.86977 0.17284 0.0
C485 C 0.92105 0.839 0.19147 0.0
C486 C 0.97283 0.95232 0.03896 0.0
C487 C 0.99564 0.95601 0.09769 0.0
C488 C 0.95011 0.93006 0.04611 0.0
C489 C 0.94976 0.91155 0.11263 0.0
C490 C 0.97048 0.91782 0.17524 0.0
C491 C 0.99359 0.93963 0.16732 0.0
H492 H 0.77976 0.94513 0.01935 0.0
H493 H 0.72437 0.90589 0.19846 0.0
H494 H 0.74049 0.93645 0.92512 0.0
H495 H 0.68359 0.89751 0.1014 0.0
H496 H 0.62212 0.97689 0.02532 0.0
H497 H 0.65295 0.93619 0.07078 0.0
H498 H 0.69895 0.9369 0.85175 0.0
H499 H 0.67209 0.98103 0.81213 0.0
C500 C 0.75962 0.93347 0.03907 0.0
C501 C 0.75413 0.92941 0.11891 0.0
C502 C 0.7364 0.92842 0.98351 0.0
C503 C 0.7072 0.91984 1.00726 0.0
C504 C 0.70485 0.90719 0.08247 0.0
C505 C 0.72831 0.91205 0.13839 0.0
C506 C 0.63944 0.96918 0.98742 0.0
C507 C 0.64601 0.98454 0.9177 0.0
C508 C 0.65666 0.9447 1.01259 0.0
C509 C 0.68042 0.93425 0.96751 0.0
C510 C 0.6826 0.94562 0.89108 0.0
C511 C 0.66655 0.97111 0.86763 0.0
H512 H 0.41214 0.77019 0.2677 0.0
H513 H 0.45393 0.79323 0.05024 0.0
H514 H 0.37598 0.73676 0.19675 0.0
H515 H 0.41839 0.76058 0.98061 0.0
H516 H 0.39187 0.64169 0.07801 0.0
H517 H 0.39058 0.68888 0.1484 0.0
H518 H 0.37318 0.73676 0.93162 0.0
H519 H 0.3753 0.689 0.86048 0.0
C520 C 0.41303 0.76892 0.20469 0.0
C521 C 0.43659 0.78362 0.16513 0.0
C522 C 0.39225 0.74987 0.164 0.0
C523 C 0.39483 0.74517 0.08326 0.0
C524 C 0.41552 0.76344 0.04266 0.0
C525 C 0.4362 0.78235 0.08311 0.0
C526 C 0.38646 0.66204 0.04549 0.0
C527 C 0.38468 0.66183 0.96351 0.0
C528 C 0.38553 0.68931 0.08612 0.0
C529 C 0.38276 0.71688 0.04546 0.0
C530 C 0.37629 0.71601 0.96444 0.0
C531 C 0.37756 0.6887 0.92364 0.0
H532 H 0.82727 0.49211 0.1864 0.0
H533 H 0.74101 0.4522 0.10834 0.0
H534 H 0.85321 0.45781 0.10419 0.0
H535 H 0.76775 0.41883 0.02018 0.0
H536 H 0.90117 0.39286 1.00473 0.0
H537 H 0.85792 0.39623 0.08701 0.0
H538 H 0.80675 0.43842 0.89943 0.0
H539 H 0.84972 0.43392 0.81474 0.0
C540 C 0.81374 0.47551 0.15338 0.0
C541 C 0.78195 0.47467 0.15557 0.0
C542 C 0.82872 0.45584 0.10588 0.0
C543 C 0.81245 0.43522 0.05751 0.0
C544 C 0.78069 0.43424 0.05828 0.0
C545 C 0.76551 0.45358 0.1079 0.0
C546 C 0.88022 0.40109 0.9788 0.0
C547 C 0.87936 0.41448 0.90421 0.0
C548 C 0.85535 0.40295 0.02631 0.0
C549 C 0.82955 0.41844 1.00004 0.0
C550 C 0.82658 0.42663 0.92109 0.0
C551 C 0.8514 0.42448 0.87309 0.0
H552 H 1.00594 0.24305 0.09148 0.0
H553 H 0.08215 0.27171 0.95755 0.0
H554 H 0.9967 0.19991 1.00309 0.0
H555 H 0.07336 0.22851 0.86993 0.0
H556 H 0.0799 0.12393 0.83047 0.0
H557 H 0.08161 0.17313 0.8959 0.0
H558 H 0.98458 0.17888 0.86567 0.0
H559 H 0.9829 0.1297 0.79865 0.0
C560 C 0.01962 0.24125 0.04046 0.0
C561 C 0.0443 0.26158 0.03079 0.0
C562 C 0.01469 0.21607 0.99038 0.0
C563 C 0.03464 0.21016 0.92987 0.0
C564 C 0.05774 0.2319 0.91635 0.0
C565 C 0.06235 0.25723 0.96558 0.0
C566 C 0.05889 0.1357 0.83701 0.0
C567 C 0.03129 0.12259 0.8086 0.0
C568 C 0.05989 0.16415 0.87433 0.0
C569 C 0.03325 0.18037 0.88605 0.0
C570 C 1.00558 0.16723 0.85796 0.0
C571 C 1.00465 0.13899 0.8191 0.0
H572 H 0.27961 0.01623 0.95479 0.0
H573 H 0.33709 0.04814 0.14636 0.0
H574 H 0.32115 0.0238 0.86553 0.0
H575 H 0.3792 0.05465 0.05882 0.0
H576 H 0.45108 0.07511 0.8811 0.0
H577 H 0.40634 0.07676 0.9603 0.0
H578 H 0.36546 1.00302 0.82553 0.0
H579 H 0.40977 1.0023 0.74467 0.0
C580 C 0.30085 0.026 0.9774 0.0
C581 C 0.30442 0.03264 0.05767 0.0
C582 C 0.32517 0.02965 0.92636 0.0
C583 C 0.35435 0.03951 0.95378 0.0
C584 C 0.3574 0.04743 0.03377 0.0
C585 C 0.33297 0.044 0.08455 0.0
C586 C 0.43246 0.05938 0.86765 0.0
C587 C 0.43446 0.03861 0.80556 0.0
C588 C 0.40659 0.06014 0.91399 0.0
C589 C 0.38159 0.03997 0.90085 0.0
C590 C 0.38353 0.01945 0.83787 0.0
C591 C 0.40931 0.01887 0.79116 0.0
H592 H 0.57618 0.3097 0.98627 0.0
H593 H 0.48953 0.32225 0.08817 0.0
H594 H 0.56716 0.35191 0.898 0.0
H595 H 0.47964 0.36415 0.99725 0.0
H596 H 0.49145 0.46219 0.90713 0.0
H597 H 0.49447 0.41494 0.97913 0.0
H598 H 0.54328 0.37552 0.79163 0.0
H599 H 0.54112 0.42353 0.72042 0.0
C600 C 0.55468 0.32096 0.98816 0.0
C601 C 0.53362 0.31243 0.04472 0.0
C602 C 0.54941 0.34533 0.93705 0.0
C603 C 0.52276 0.36219 0.94017 0.0
C604 C 0.50078 0.35239 0.99358 0.0
C605 C 0.50614 0.32789 0.04507 0.0
C606 C 0.50271 0.44347 0.88059 0.0
C607 C 0.51613 0.44707 0.80746 0.0
C608 C 0.50422 0.416 0.92206 0.0
C609 C 0.51912 0.39086 0.89209 0.0
C610 C 0.53196 0.39423 0.81792 0.0
C611 C 0.53056 0.42187 0.77645 0.0
H612 H 0.25913 0.47621 0.93759 0.0
H613 H 0.24035 0.55776 0.06282 0.0
H614 H 0.21796 0.4869 0.84334 0.0
H615 H 0.1994 0.56889 0.96743 0.0
H616 H 0.12986 0.57879 0.75069 0.0
H617 H 0.18054 0.57648 0.81528 0.0
H618 H 0.1611 0.48447 0.8859 0.0
H619 H 0.11064 0.48701 0.82409 0.0
C620 C 0.24756 0.49749 0.94203 0.0
C621 C 0.25346 0.51635 1.00722 0.0
C622 C 0.2235 0.50331 0.88885 0.0
C623 C 0.20502 0.52848 0.89855 0.0
C624 C 0.21322 0.54936 0.95808 0.0
C625 C 0.23708 0.54325 1.01214 0.0
C626 C 0.13657 0.55801 0.77948 0.0
C627 C 0.1161 0.53309 0.78222 0.0
C628 C 0.16554 0.55674 0.81664 0.0
C629 C 0.17502 0.53019 0.85518 0.0
C630 C 0.15476 0.50513 0.85595 0.0
C631 C 0.1257 0.50666 0.82084 0.0
H632 H 0.04888 0.83018 0.30206 0.0
H633 H 0.97642 0.7955 0.44082 0.0
H634 H 0.05752 0.87219 0.39457 0.0
H635 H 0.98455 0.83756 0.53239 0.0
H636 H 0.97417 0.94098 0.58435 0.0
H637 H 0.97355 0.89318 0.51248 0.0
H638 H 0.07098 0.89054 0.53575 0.0
H639 H 0.07158 0.93829 0.60949 0.0
C640 C 0.03595 0.83049 0.35464 0.0
C641 C 0.01253 0.80874 0.36482 0.0
C642 C 0.04052 0.85497 0.40719 0.0
C643 C 0.0214 0.85876 0.47065 0.0
C644 C 0.99952 0.83576 0.48392 0.0
C645 C 0.99529 0.81114 0.43223 0.0
C646 C 0.99551 0.93016 0.57501 0.0
C647 C 0.0229 0.94368 0.60355 0.0
C648 C 0.99515 0.90253 0.53389 0.0
C649 C 0.02221 0.88764 0.51826 0.0
C650 C 0.04967 0.9012 0.54645 0.0
C651 C 0.04998 0.92857 0.58922 0.0
H652 H 0.74334 0.96029 0.40368 0.0
H653 H 0.72704 0.04344 0.2791 0.0
H654 H 0.69959 0.96879 0.48321 0.0
H655 H 0.68298 0.05234 0.36 0.0
H656 H 0.61603 0.06637 0.5661 0.0
H657 H 0.66271 0.06222 0.49368 0.0
H658 H 0.64431 0.96659 0.4624 0.0
H659 H 0.59758 0.9708 0.53388 0.0
C660 C 0.73092 0.98097 0.39474 0.0
C661 C 0.73928 1.00132 0.33509 0.0
C662 C 0.70536 0.98562 0.43981 0.0
C663 C 0.687 0.01101 0.42785 0.0
C664 C 0.69637 0.03248 0.37149 0.0
C665 C 0.72196 0.0276 0.32542 0.0
C666 C 0.62186 0.04439 0.54385 0.0
C667 C 0.60265 0.01891 0.55656 0.0
C668 C 0.64873 0.04206 0.50171 0.0
C669 C 0.6578 0.01403 0.47184 0.0
C670 C 0.63861 0.98857 0.48492 0.0
C671 C 0.61152 0.99099 0.52587 0.0
H672 H 0.49064 0.77856 0.44787 0.0
H673 H 0.54647 0.73578 0.28114 0.0
H674 H 0.49698 0.73568 0.53671 0.0
H675 H 0.55231 0.6922 0.36866 0.0
H676 H 0.56962 0.62155 0.55948 0.0
H677 H 0.57074 0.66873 0.48514 0.0
H678 H 0.47881 0.68548 0.54846 0.0
H679 H 0.47802 0.63873 0.62426 0.0
C680 C 0.50513 0.76033 0.43131 0.0
C681 C 0.51864 0.76102 0.35807 0.0
C682 C 0.5083 0.73532 0.48167 0.0
C683 C 0.52477 0.70982 0.46015 0.0
C684 C 0.53965 0.71127 0.38836 0.0
C685 C 0.53656 0.73646 0.33806 0.0
C686 C 0.54969 0.63541 0.55836 0.0
C687 C 0.52372 0.62604 0.59857 0.0
C688 C 0.55026 0.66255 0.51489 0.0
C689 C 0.52489 0.68138 0.50995 0.0
C690 C 0.4991 0.67218 0.55133 0.0
C691 C 0.49854 0.64506 0.59483 0.0
H692 H 0.78462 0.49587 0.44607 0.0
H693 H 0.79966 0.58442 0.34736 0.0
H694 H 0.8295 0.50221 0.52956 0.0
H695 H 0.84385 0.59227 0.43562 0.0
H696 H 0.9436 0.57973 0.51212 0.0
H697 H 0.89328 0.58042 0.45029 0.0
H698 H 0.86081 0.51837 0.62627 0.0
H699 H 0.91185 0.5161 0.6837 0.0
C700 C 0.79677 0.51747 0.44525 0.0
C701 C 0.78836 0.53963 0.38999 0.0
C702 C 0.82291 0.52121 0.49341 0.0
C703 C 0.84143 0.54761 0.48944 0.0
C704 C 0.83116 0.5711 0.4394 0.0
C705 C 0.80518 0.56704 0.38989 0.0
C706 C 0.92562 0.56636 0.53782 0.0
C707 C 0.93196 0.54768 0.60267 0.0
C708 C 0.89639 0.56691 0.50255 0.0
C709 C 0.87218 0.54931 0.53198 0.0
C710 C 0.87849 0.53167 0.59941 0.0
C711 C 0.90793 0.53051 0.6333 0.0
loop_
_geom_bond_atom_site_label_1
_geom_bond_atom_site_label_2
_geom_bond_distance
_geom_bond_site_symmetry_2
_ccdc_geom_bond_type
H0 C3 0.931 . S
H1 C6 0.928 . S
H2 C8 0.930 . S
C3 H0 0.931 . S
C3 C4 1.413 . S
C3 C5 1.360 . S
C4 C3 1.413 . S
C4 C8 1.429 . S
C5 C3 1.360 . S
C5 C6 1.372 . S
C6 H1 0.928 . S
C6 C5 1.372 . S
C6 C7 1.404 . S
C7 C6 1.404 . S
C7 C8 1.391 . S
C8 H2 0.930 . S
C8 C4 1.429 . S
C8 C7 1.391 . S
H9 C12 0.931 . S
H10 C15 0.928 . S
H11 C17 0.930 . S
C12 H9 0.931 . S
C12 C13 1.413 . S
C12 C14 1.360 . S
C13 C12 1.413 . S
C13 C17 1.429 . S
C14 C12 1.360 . S
C14 C15 1.372 . S
C15 H10 0.928 . S
C15 C14 1.372 . S
C15 C16 1.404 . S
C16 C15 1.404 . S
C16 C17 1.391 . S
C17 H11 0.930 . S
C17 C13 1.429 . S
C17 C16 1.391 . S
H18 C21 0.931 . S
H19 C24 0.928 . S
H20 C26 0.930 . S
C21 H18 0.931 . S
C21 C22 1.413 . S
C21 C23 1.360 . S
C22 C21 1.413 . S
C22 C26 1.429 . S
C23 C21 1.360 . S
C23 C24 1.372 . S
C24 H19 0.928 . S
C24 C23 1.372 . S
C24 C25 1.404 . S
C25 C24 1.404 . S
C25 C26 1.391 . S
C26 H20 0.930 . S
C26 C22 1.429 . S
C26 C25 1.391 . S
H27 C30 0.931 . S
H28 C33 0.928 . S
H29 C35 0.930 . S
C30 H27 0.931 . S
C30 C31 1.413 . S
C30 C32 1.360 . S
C31 C30 1.413 . S
C31 C35 1.429 . S
C32 C30 1.360 . S
C32 C33 1.372 . S
C33 H28 0.928 . S
C33 C32 1.372 . S
C33 C34 1.404 . S
C34 C33 1.404 . S
C34 C35 1.391 . S
C35 H29 0.930 . S
C35 C31 1.429 . S
C35 C34 1.391 . S
H36 C39 0.931 . S
H37 C42 0.928 . S
H38 C44 0.930 1_556 S
C39 H36 0.931 . S
C39 C40 1.413 1_554 S
C39 C41 1.360 . S
C40 C39 1.413 1_556 S
C40 C44 1.429 1_556 S
C41 C39 1.360 . S
C41 C42 1.372 . S
C42 H37 0.928 . S
C42 C41 1.372 . S
C42 C43 1.404 . S
C43 C42 1.404 . S
C43 C44 1.391 . S
C44 H38 0.930 1_554 S
C44 C40 1.429 1_554 S
C44 C43 1.391 . S
H45 C48 0.931 . S
H46 C51 0.928 . S
H47 C53 0.930 . S
C48 H45 0.931 . S
C48 C49 1.413 1_554 S
C48 C50 1.360 . S
C49 C48 1.413 1_556 S
C49 C53 1.429 . S
C50 C48 1.360 . S
C50 C51 1.372 . S
C51 H46 0.928 . S
C51 C50 1.372 . S
C51 C52 1.404 . S
C52 C51 1.404 . S
C52 C53 1.391 1_554 S
C53 H47 0.930 . S
C53 C49 1.429 . S
C53 C52 1.391 1_556 S
H54 C57 0.931 . S
H55 C60 0.928 . S
H56 C62 0.930 . S
C57 H54 0.931 . S
C57 C58 1.413 . S
C57 C59 1.360 1_556 S
C58 C57 1.413 . S
C58 C62 1.429 . S
C59 C57 1.360 1_554 S
C59 C60 1.372 . S
C60 H55 0.928 . S
C60 C59 1.372 . S
C60 C61 1.404 . S
C61 C60 1.404 . S
C61 C62 1.391 1_554 S
C62 H56 0.930 . S
C62 C58 1.429 . S
C62 C61 1.391 1_556 S
H63 C66 0.931 . S
H64 C69 0.928 1_556 S
H65 C71 0.930 . S
C66 H63 0.931 . S
C66 C67 1.413 . S
C66 C68 1.360 1_554 S
C67 C66 1.413 . S
C67 C71 1.429 . S
C68 C66 1.360 1_556 S
C68 C69 1.372 1_556 S
C69 H64 0.928 1_554 S
C69 C68 1.372 1_554 S
C69 C70 1.404 . S
C70 C69 1.404 . S
C70 C71 1.391 . S
C71 H65 0.930 . S
C71 C67 1.429 . S
C71 C70 1.391 . S
Eu72 C81 2.828 . S
Eu72 O83 2.392 . S
Eu72 O85 2.418 1_545 S
Eu72 O90 2.373 1_655 S
Eu72 O93 2.488 . S
Eu72 O94 2.471 . S
Eu72 O95 2.349 1_655 S
Eu73 O82 2.373 1_455 S
Eu73 O86 2.488 . S
Eu73 O87 2.471 . S
Eu73 O88 2.349 . S
Eu73 O91 2.392 1_565 S
Eu73 O92 2.418 1_565 S
Eu73 C102 2.828 . S
C74 O92 1.244 . S
C74 O95 1.265 . S
C75 C76 1.379 1_655 S
C75 C79 1.373 . S
C75 C81 1.505 . S
C76 C75 1.379 1_455 S
C76 C78 1.369 . S
C76 H104 0.930 . S
C77 C79 1.383 . S
C77 C80 1.382 . S
C77 H105 0.930 . S
C78 C76 1.369 . S
C78 C80 1.392 1_455 S
C78 H106 0.930 . S
C79 C75 1.373 . S
C79 C77 1.383 . S
C79 H107 0.931 . S
C80 C77 1.382 . S
C80 C78 1.392 1_655 S
C81 Eu72 2.828 . S
C81 C75 1.505 . S
C81 O93 1.249 . S
C81 O94 1.244 . S
O82 Eu73 2.373 1_655 S
O82 C84 1.263 . S
O83 Eu72 2.392 . S
O83 C84 1.233 1_545 S
C84 O82 1.263 . S
C84 O83 1.233 1_565 S
O85 Eu72 2.418 1_565 S
O85 C89 1.244 . S
O86 Eu73 2.488 . S
O86 C102 1.249 . S
O87 Eu73 2.471 . S
O87 C102 1.244 . S
O88 Eu73 2.349 . S
O88 C89 1.265 1_455 S
C89 O85 1.244 . S
C89 O88 1.265 1_655 S
O90 Eu72 2.373 1_455 S
O90 C103 1.258 . S
O91 Eu73 2.392 1_545 S
O91 C103 1.242 . S
O92 Eu73 2.418 1_545 S
O92 C74 1.244 . S
O93 Eu72 2.488 . S
O93 C81 1.249 . S
O94 Eu72 2.471 . S
O94 C81 1.244 . S
O95 Eu72 2.349 1_455 S
O95 C74 1.265 . S
C96 C97 1.379 . S
C96 C100 1.373 1_556 S
C96 C102 1.505 . S
C97 C96 1.379 . S
C97 C99 1.369 . S
C97 H108 0.930 1_455 S
C98 C100 1.383 . S
C98 C101 1.382 . S
C98 H109 0.930 . S
C99 C97 1.369 . S
C99 C101 1.392 1_556 S
C99 H110 0.930 1_455 S
C100 C96 1.373 1_554 S
C100 C98 1.383 . S
C100 H111 0.931 . S
C101 C98 1.382 . S
C101 C99 1.392 1_554 S
C102 Eu73 2.828 . S
C102 O86 1.249 . S
C102 O87 1.244 . S
C102 C96 1.505 . S
C103 O90 1.258 . S
C103 O91 1.242 . S
H104 C76 0.930 . S
H105 C77 0.930 . S
H106 C78 0.930 . S
H107 C79 0.931 . S
H108 C97 0.930 1_655 S
H109 C98 0.930 . S
H110 C99 0.930 1_655 S
H111 C100 0.931 . S
Eu112 C121 2.828 . S
Eu112 O123 2.392 . S
Eu112 O125 2.418 . S
Eu112 O130 2.373 . S
Eu112 O133 2.488 . S
Eu112 O134 2.471 . S
Eu112 O135 2.349 1_545 S
Eu113 O122 2.373 1_565 S
Eu113 O126 2.488 . S
Eu113 O127 2.471 1_565 S
Eu113 O128 2.349 1_565 S
Eu113 O131 2.392 . S
Eu113 O132 2.418 . S
Eu113 C142 2.828 . S
C114 O132 1.244 . S
C114 O135 1.265 . S
C115 C116 1.379 . S
C115 C119 1.373 . S
C115 C121 1.505 . S
C116 C115 1.379 . S
C116 C118 1.369 . S
C116 H144 0.930 1_545 S
C117 C119 1.383 . S
C117 C120 1.382 . S
C117 H145 0.930 . S
C118 C116 1.369 . S
C118 C120 1.392 . S
C118 H146 0.930 1_545 S
C119 C115 1.373 . S
C119 C117 1.383 . S
C119 H147 0.931 . S
C120 C117 1.382 . S
C120 C118 1.392 . S
C121 Eu112 2.828 . S
C121 C115 1.505 . S
C121 O133 1.249 . S
C121 O134 1.244 . S
O122 Eu113 2.373 1_545 S
O122 C124 1.258 . S
O123 Eu112 2.392 . S
O123 C124 1.242 . S
C124 O122 1.258 . S
C124 O123 1.242 . S
O125 Eu112 2.418 . S
O125 C129 1.244 . S
O126 Eu113 2.488 . S
O126 C142 1.249 . S
O127 Eu113 2.471 1_545 S
O127 C142 1.244 1_545 S
O128 Eu113 2.349 1_545 S
O128 C129 1.265 . S
C129 O125 1.244 . S
C129 O128 1.265 . S
O130 Eu112 2.373 . S
O130 C143 1.258 1_545 S
O131 Eu113 2.392 . S
O131 C143 1.242 . S
O132 Eu113 2.418 . S
O132 C114 1.244 . S
O133 Eu112 2.488 . S
O133 C121 1.249 . S
O134 Eu112 2.471 . S
O134 C121 1.244 . S
O135 Eu112 2.349 1_565 S
O135 C114 1.265 . S
C136 C137 1.379 1_565 S
C136 C140 1.373 . S
C136 C142 1.505 . S
C137 C136 1.379 1_545 S
C137 C139 1.369 . S
C137 H148 0.930 . S
C138 C140 1.383 . S
C138 C141 1.382 . S
C138 H149 0.930 . S
C139 C137 1.369 . S
C139 C141 1.392 1_545 S
C139 H150 0.930 . S
C140 C136 1.373 . S
C140 C138 1.383 . S
C140 H151 0.931 . S
C141 C138 1.382 . S
C141 C139 1.392 1_565 S
C142 Eu113 2.828 . S
C142 O126 1.249 . S
C142 O127 1.244 1_565 S
C142 C136 1.505 . S
C143 O130 1.258 1_565 S
C143 O131 1.242 . S
H144 C116 0.930 1_565 S
H145 C117 0.930 . S
H146 C118 0.930 1_565 S
H147 C119 0.931 . S
H148 C137 0.930 . S
H149 C138 0.930 . S
H150 C139 0.930 . S
H151 C140 0.931 . S
Eu152 C161 2.828 . S
Eu152 O163 2.392 . S
Eu152 O165 2.418 . S
Eu152 O170 2.373 . S
Eu152 O173 2.488 . S
Eu152 O174 2.471 . S
Eu152 O175 2.349 . S
Eu153 O162 2.373 . S
Eu153 O166 2.488 . S
Eu153 O167 2.471 . S
Eu153 O168 2.349 . S
Eu153 O171 2.392 . S
Eu153 O172 2.418 . S
Eu153 C182 2.828 . S
C154 O172 1.244 . S
C154 O175 1.265 . S
C155 C156 1.379 . S
C155 C159 1.373 . S
C155 C161 1.505 . S
C156 C155 1.379 . S
C156 C158 1.369 . S
C156 H184 0.930 . S
C157 C159 1.383 . S
C157 C160 1.382 . S
C157 H185 0.930 . S
C158 C156 1.369 . S
C158 C160 1.392 . S
C158 H186 0.930 . S
C159 C155 1.373 . S
C159 C157 1.383 . S
C159 H187 0.931 . S
C160 C157 1.382 . S
C160 C158 1.392 . S
C161 Eu152 2.828 . S
C161 C155 1.505 . S
C161 O173 1.249 . S
C161 O174 1.244 . S
O162 Eu153 2.373 . S
O162 C164 1.258 . S
O163 Eu152 2.392 . S
O163 C164 1.242 . S
C164 O162 1.258 . S
C164 O163 1.242 . S
O165 Eu152 2.418 . S
O165 C169 1.244 . S
O166 Eu153 2.488 . S
O166 C182 1.249 . S
O167 Eu153 2.471 . S
O167 C182 1.244 . S
O168 Eu153 2.349 . S
O168 C169 1.265 . S
C169 O165 1.244 . S
C169 O168 1.265 . S
O170 Eu152 2.373 . S
O170 C183 1.258 . S
O171 Eu153 2.392 . S
O171 C183 1.242 . S
O172 Eu153 2.418 . S
O172 C154 1.244 . S
O173 Eu152 2.488 . S
O173 C161 1.249 . S
O174 Eu152 2.471 . S
O174 C161 1.244 . S
O175 Eu152 2.349 . S
O175 C154 1.265 . S
C176 C177 1.379 . S
C176 C180 1.373 . S
C176 C182 1.505 . S
C177 C176 1.379 . S
C177 C179 1.369 . S
C177 H188 0.930 . S
C178 C180 1.383 . S
C178 C181 1.382 . S
C178 H189 0.930 . S
C179 C177 1.369 . S
C179 C181 1.392 . S
C179 H190 0.930 . S
C180 C176 1.373 . S
C180 C178 1.383 . S
C180 H191 0.931 . S
C181 C178 1.382 . S
C181 C179 1.392 . S
C182 Eu153 2.828 . S
C182 O166 1.249 . S
C182 O167 1.244 . S
C182 C176 1.505 . S
C183 O170 1.258 . S
C183 O171 1.242 . S
H184 C156 0.930 . S
H185 C157 0.930 . S
H186 C158 0.930 . S
H187 C159 0.931 . S
H188 C177 0.930 . S
H189 C178 0.930 . S
H190 C179 0.930 . S
H191 C180 0.931 . S
Eu192 C201 2.828 . S
Eu192 O203 2.392 . S
Eu192 O205 2.418 1_455 S
Eu192 O210 2.373 . S
Eu192 O213 2.488 . S
Eu192 O214 2.471 . S
Eu192 O215 2.349 . S
Eu193 O202 2.373 . S
Eu193 O206 2.488 . S
Eu193 O207 2.471 . S
Eu193 O208 2.349 . S
Eu193 O211 2.392 1_655 S
Eu193 O212 2.418 1_655 S
Eu193 C222 2.828 . S
C194 O212 1.244 . S
C194 O215 1.265 . S
C195 C196 1.379 . S
C195 C199 1.373 . S
C195 C201 1.505 . S
C196 C195 1.379 . S
C196 C198 1.369 . S
C196 H224 0.930 . S
C197 C199 1.383 . S
C197 C200 1.382 . S
C197 H225 0.930 . S
C198 C196 1.369 . S
C198 C200 1.392 . S
C198 H226 0.930 . S
C199 C195 1.373 . S
C199 C197 1.383 . S
C199 H227 0.931 . S
C200 C197 1.382 . S
C200 C198 1.392 . S
C201 Eu192 2.828 . S
C201 C195 1.505 . S
C201 O213 1.249 . S
C201 O214 1.244 . S
O202 Eu193 2.373 . S
O202 C204 1.258 . S
O203 Eu192 2.392 . S
O203 C204 1.242 1_455 S
C204 O202 1.258 . S
C204 O203 1.242 1_655 S
O205 Eu192 2.418 1_655 S
O205 C209 1.244 . S
O206 Eu193 2.488 . S
O206 C222 1.249 . S
O207 Eu193 2.471 . S
O207 C222 1.244 . S
O208 Eu193 2.349 . S
O208 C209 1.265 . S
C209 O205 1.244 . S
C209 O208 1.265 . S
O210 Eu192 2.373 . S
O210 C223 1.258 . S
O211 Eu193 2.392 1_455 S
O211 C223 1.242 . S
O212 Eu193 2.418 1_455 S
O212 C194 1.244 . S
O213 Eu192 2.488 . S
O213 C201 1.249 . S
O214 Eu192 2.471 . S
O214 C201 1.244 . S
O215 Eu192 2.349 . S
O215 C194 1.265 . S
C216 C217 1.379 . S
C216 C220 1.373 . S
C216 C222 1.505 . S
C217 C216 1.379 . S
C217 C219 1.369 . S
C217 H228 0.930 . S
C218 C220 1.383 1_554 S
C218 C221 1.382 . S
C218 H229 0.930 . S
C219 C217 1.369 . S
C219 C221 1.392 1_556 S
C219 H230 0.930 . S
C220 C216 1.373 . S
C220 C218 1.383 1_556 S
C220 H231 0.931 . S
C221 C218 1.382 . S
C221 C219 1.392 1_554 S
C222 Eu193 2.828 . S
C222 O206 1.249 . S
C222 O207 1.244 . S
C222 C216 1.505 . S
C223 O210 1.258 . S
C223 O211 1.242 . S
H224 C196 0.930 . S
H225 C197 0.930 . S
H226 C198 0.930 . S
H227 C199 0.931 . S
H228 C217 0.930 . S
H229 C218 0.930 . S
H230 C219 0.930 . S
H231 C220 0.931 . S
H232 C240 0.950 . S
H233 C245 0.950 . S
H234 C242 0.950 . S
H235 C244 0.950 . S
H236 C246 0.950 . S
H237 C248 0.950 . S
H238 C250 0.950 . S
H239 C251 0.950 . S
C240 H232 0.950 . S
C240 C241 1.386 . S
C240 C242 1.391 . S
C241 C240 1.386 . S
C241 C245 1.393 . S
C242 H234 0.950 . S
C242 C240 1.391 . S
C242 C243 1.400 . S
C243 C242 1.400 . S
C243 C244 1.398 . S
C243 C249 1.491 . S
C244 H235 0.950 . S
C244 C243 1.398 . S
C244 C245 1.391 . S
C245 H233 0.950 . S
C245 C241 1.393 . S
C245 C244 1.391 . S
C246 H236 0.950 . S
C246 C247 1.386 . S
C246 C248 1.391 . S
C247 C246 1.386 . S
C247 C251 1.393 . S
C248 H237 0.950 . S
C248 C246 1.391 . S
C248 C249 1.400 . S
C249 C243 1.491 . S
C249 C248 1.400 . S
C249 C250 1.398 . S
C250 H238 0.950 . S
C250 C249 1.398 . S
C250 C251 1.391 . S
C251 H239 0.950 . S
C251 C247 1.393 . S
C251 C250 1.391 . S
H252 C260 0.950 . S
H253 C265 0.950 . S
H254 C262 0.950 . S
H255 C264 0.950 . S
H256 C266 0.950 . S
H257 C268 0.950 . S
H258 C270 0.950 . S
H259 C271 0.950 . S
C260 H252 0.950 . S
C260 C261 1.386 . S
C260 C262 1.391 . S
C261 C260 1.386 . S
C261 C265 1.393 . S
C262 H254 0.950 . S
C262 C260 1.391 . S
C262 C263 1.400 . S
C263 C262 1.400 . S
C263 C264 1.398 . S
C263 C269 1.491 . S
C264 H255 0.950 . S
C264 C263 1.398 . S
C264 C265 1.391 . S
C265 H253 0.950 . S
C265 C261 1.393 . S
C265 C264 1.391 . S
C266 H256 0.950 . S
C266 C267 1.386 . S
C266 C268 1.391 . S
C267 C266 1.386 . S
C267 C271 1.393 . S
C268 H257 0.950 . S
C268 C266 1.391 . S
C268 C269 1.400 . S
C269 C263 1.491 . S
C269 C268 1.400 . S
C269 C270 1.398 . S
C270 H258 0.950 . S
C270 C269 1.398 . S
C270 C271 1.391 . S
C271 H259 0.950 . S
C271 C267 1.393 . S
C271 C270 1.391 . S
H272 C280 0.950 . S
H273 C285 0.950 . S
H274 C282 0.950 . S
H275 C284 0.950 . S
H276 C286 0.950 . S
H277 C288 0.950 . S
H278 C290 0.950 . S
H279 C291 0.950 . S
C280 H272 0.950 . S
C280 C281 1.386 . S
C280 C282 1.391 . S
C281 C280 1.386 . S
C281 C285 1.393 . S
C282 H274 0.950 . S
C282 C280 1.391 . S
C282 C283 1.400 . S
C283 C282 1.400 . S
C283 C284 1.398 . S
C283 C289 1.491 . S
C284 H275 0.950 . S
C284 C283 1.398 . S
C284 C285 1.391 . S
C285 H273 0.950 . S
C285 C281 1.393 . S
C285 C284 1.391 . S
C286 H276 0.950 . S
C286 C287 1.386 . S
C286 C288 1.391 . S
C287 C286 1.386 . S
C287 C291 1.393 . S
C288 H277 0.950 . S
C288 C286 1.391 . S
C288 C289 1.400 . S
C289 C283 1.491 . S
C289 C288 1.400 . S
C289 C290 1.398 . S
C290 H278 0.950 . S
C290 C289 1.398 . S
C290 C291 1.391 . S
C291 H279 0.950 . S
C291 C287 1.393 . S
C291 C290 1.391 . S
H292 C300 0.950 . S
H293 C305 0.950 . S
H294 C302 0.950 . S
H295 C304 0.950 . S
H296 C306 0.950 1_655 S
H297 C308 0.950 1_655 S
H298 C310 0.950 . S
H299 C311 0.950 . S
C300 H292 0.950 . S
C300 C301 1.386 . S
C300 C302 1.391 . S
C301 C300 1.386 . S
C301 C305 1.393 . S
C302 H294 0.950 . S
C302 C300 1.391 . S
C302 C303 1.400 . S
C303 C302 1.400 . S
C303 C304 1.398 . S
C303 C309 1.491 . S
C304 H295 0.950 . S
C304 C303 1.398 . S
C304 C305 1.391 . S
C305 H293 0.950 . S
C305 C301 1.393 . S
C305 C304 1.391 . S
C306 H296 0.950 1_455 S
C306 C307 1.386 . S
C306 C308 1.391 . S
C307 C306 1.386 . S
C307 C311 1.393 . S
C308 H297 0.950 1_455 S
C308 C306 1.391 . S
C308 C309 1.400 . S
C309 C303 1.491 . S
C309 C308 1.400 . S
C309 C310 1.398 . S
C310 H298 0.950 . S
C310 C309 1.398 . S
C310 C311 1.391 . S
C311 H299 0.950 . S
C311 C307 1.393 . S
C311 C310 1.391 . S
H312 C320 0.950 . S
H313 C325 0.950 . S
H314 C322 0.950 . S
H315 C324 0.950 1_545 S
H316 C326 0.950 . S
H317 C328 0.950 . S
H318 C330 0.950 . S
H319 C331 0.950 . S
C320 H312 0.950 . S
C320 C321 1.386 . S
C320 C322 1.391 . S
C321 C320 1.386 . S
C321 C325 1.393 . S
C322 H314 0.950 . S
C322 C320 1.391 . S
C322 C323 1.400 . S
C323 C322 1.400 . S
C323 C324 1.398 . S
C323 C329 1.491 . S
C324 H315 0.950 1_565 S
C324 C323 1.398 . S
C324 C325 1.391 . S
C325 H313 0.950 . S
C325 C321 1.393 . S
C325 C324 1.391 . S
C326 H316 0.950 . S
C326 C327 1.386 1_545 S
C326 C328 1.391 . S
C327 C326 1.386 1_565 S
C327 C331 1.393 . S
C328 H317 0.950 . S
C328 C326 1.391 . S
C328 C329 1.400 1_546 S
C329 C323 1.491 . S
C329 C328 1.400 1_564 S
C329 C330 1.398 . S
C330 H318 0.950 . S
C330 C329 1.398 . S
C330 C331 1.391 1_554 S
C331 H319 0.950 . S
C331 C327 1.393 . S
C331 C330 1.391 1_556 S
H332 C340 0.950 . S
H333 C345 0.950 . S
H334 C342 0.950 . S
H335 C344 0.950 . S
H336 C346 0.950 . S
H337 C348 0.950 . S
H338 C350 0.950 . S
H339 C351 0.950 . S
C340 H332 0.950 . S
C340 C341 1.386 . S
C340 C342 1.391 . S
C341 C340 1.386 . S
C341 C345 1.393 . S
C342 H334 0.950 . S
C342 C340 1.391 . S
C342 C343 1.400 . S
C343 C342 1.400 . S
C343 C344 1.398 . S
C343 C349 1.491 1_554 S
C344 H335 0.950 . S
C344 C343 1.398 . S
C344 C345 1.391 . S
C345 H333 0.950 . S
C345 C341 1.393 . S
C345 C344 1.391 . S
C346 H336 0.950 . S
C346 C347 1.386 . S
C346 C348 1.391 . S
C347 C346 1.386 . S
C347 C351 1.393 . S
C348 H337 0.950 . S
C348 C346 1.391 . S
C348 C349 1.400 . S
C349 C343 1.491 1_556 S
C349 C348 1.400 . S
C349 C350 1.398 . S
C350 H338 0.950 . S
C350 C349 1.398 . S
C350 C351 1.391 . S
C351 H339 0.950 . S
C351 C347 1.393 . S
C351 C350 1.391 . S
H352 C360 0.950 . S
H353 C365 0.950 . S
H354 C362 0.950 . S
H355 C364 0.950 . S
H356 C366 0.950 . S
H357 C368 0.950 . S
H358 C370 0.950 . S
H359 C371 0.950 . S
C360 H352 0.950 . S
C360 C361 1.386 . S
C360 C362 1.391 . S
C361 C360 1.386 . S
C361 C365 1.393 . S
C362 H354 0.950 . S
C362 C360 1.391 . S
C362 C363 1.400 . S
C363 C362 1.400 . S
C363 C364 1.398 . S
C363 C369 1.491 1_554 S
C364 H355 0.950 . S
C364 C363 1.398 . S
C364 C365 1.391 . S
C365 H353 0.950 . S
C365 C361 1.393 . S
C365 C364 1.391 . S
C366 H356 0.950 . S
C366 C367 1.386 . S
C366 C368 1.391 . S
C367 C366 1.386 . S
C367 C371 1.393 . S
C368 H357 0.950 . S
C368 C366 1.391 . S
C368 C369 1.400 . S
C369 C363 1.491 1_556 S
C369 C368 1.400 . S
C369 C370 1.398 . S
C370 H358 0.950 . S
C370 C369 1.398 . S
C370 C371 1.391 . S
C371 H359 0.950 . S
C371 C367 1.393 . S
C371 C370 1.391 . S
H372 C380 0.950 1_455 S
H373 C385 0.950 . S
H374 C382 0.950 1_455 S
H375 C384 0.950 . S
H376 C386 0.950 . S
H377 C388 0.945 1_554 S
H378 C390 0.950 . S
H379 C391 0.950 . S
C380 H372 0.950 1_655 S
C380 C381 1.386 . S
C380 C382 1.391 . S
C381 C380 1.386 . S
C381 C385 1.393 . S
C382 H374 0.950 1_655 S
C382 C380 1.391 . S
C382 C383 1.400 . S
C383 C382 1.400 . S
C383 C384 1.398 . S
C383 C389 1.491 . S
C384 H375 0.950 . S
C384 C383 1.398 . S
C384 C385 1.391 . S
C385 H373 0.950 . S
C385 C381 1.393 . S
C385 C384 1.391 . S
C386 H376 0.950 . S
C386 C387 1.386 . S
C386 C388 1.391 . S
C387 C386 1.386 . S
C387 C391 1.393 1_655 S
C388 H377 0.945 1_556 S
C388 C386 1.391 . S
C388 C389 1.400 1_556 S
C389 C383 1.491 . S
C389 C388 1.400 1_554 S
C389 C390 1.398 1_654 S
C390 H378 0.950 . S
C390 C389 1.398 1_456 S
C390 C391 1.391 . S
C391 H379 0.950 . S
C391 C387 1.393 1_455 S
C391 C390 1.391 . S
H392 C400 0.950 . S
H393 C405 0.950 . S
H394 C402 0.950 . S
H395 C404 0.950 . S
H396 C406 0.950 . S
H397 C408 0.950 . S
H398 C410 0.950 . S
H399 C411 0.950 . S
C400 H392 0.950 . S
C400 C401 1.386 . S
C400 C402 1.391 . S
C401 C400 1.386 . S
C401 C405 1.393 . S
C402 H394 0.950 . S
C402 C400 1.391 . S
C402 C403 1.400 . S
C403 C402 1.400 . S
C403 C404 1.398 . S
C403 C409 1.491 . S
C404 H395 0.950 . S
C404 C403 1.398 . S
C404 C405 1.391 . S
C405 H393 0.950 . S
C405 C401 1.393 . S
C405 C404 1.391 . S
C406 H396 0.950 . S
C406 C407 1.386 1_455 S
C406 C408 1.391 . S
C407 C406 1.386 1_655 S
C407 C411 1.393 . S
C408 H397 0.950 . S
C408 C406 1.391 . S
C408 C409 1.400 . S
C409 C403 1.491 . S
C409 C408 1.400 . S
C409 C410 1.398 1_455 S
C410 H398 0.950 . S
C410 C409 1.398 1_655 S
C410 C411 1.391 . S
C411 H399 0.950 . S
C411 C407 1.393 . S
C411 C410 1.391 . S
H412 C420 0.950 . S
H413 C425 0.950 . S
H414 C422 0.950 1_565 S
H415 C424 0.950 . S
H416 C426 0.950 . S
H417 C428 0.950 . S
H418 C430 0.950 . S
H419 C431 0.950 . S
C420 H412 0.950 . S
C420 C421 1.386 . S
C420 C422 1.391 . S
C421 C420 1.386 . S
C421 C425 1.393 . S
C422 H414 0.950 1_545 S
C422 C420 1.391 . S
C422 C423 1.400 . S
C423 C422 1.400 . S
C423 C424 1.398 . S
C423 C429 1.491 . S
C424 H415 0.950 . S
C424 C423 1.398 . S
C424 C425 1.391 . S
C425 H413 0.950 . S
C425 C421 1.393 . S
C425 C424 1.391 . S
C426 H416 0.950 . S
C426 C427 1.386 1_545 S
C426 C428 1.391 . S
C427 C426 1.386 1_565 S
C427 C431 1.393 . S
C428 H417 0.950 . S
C428 C426 1.391 . S
C428 C429 1.400 . S
C429 C423 1.491 . S
C429 C428 1.400 . S
C429 C430 1.398 1_545 S
C430 H418 0.950 . S
C430 C429 1.398 1_565 S
C430 C431 1.391 . S
C431 H419 0.950 . S
C431 C427 1.393 . S
C431 C430 1.391 . S
H432 C440 0.950 . S
H433 C445 0.950 . S
H434 C442 0.950 . S
H435 C444 0.950 . S
H436 C446 0.950 . S
H437 C448 0.950 . S
H438 C450 0.950 . S
H439 C451 0.950 . S
C440 H432 0.950 . S
C440 C441 1.386 . S
C440 C442 1.391 . S
C441 C440 1.386 . S
C441 C445 1.393 . S
C442 H434 0.950 . S
C442 C440 1.391 . S
C442 C443 1.400 . S
C443 C442 1.400 . S
C443 C444 1.398 . S
C443 C449 1.491 . S
C444 H435 0.950 . S
C444 C443 1.398 . S
C444 C445 1.391 . S
C445 H433 0.950 . S
C445 C441 1.393 . S
C445 C444 1.391 . S
C446 H436 0.950 . S
C446 C447 1.386 . S
C446 C448 1.391 . S
C447 C446 1.386 . S
C447 C451 1.393 . S
C448 H437 0.950 . S
C448 C446 1.391 . S
C448 C449 1.400 . S
C449 C443 1.491 . S
C449 C448 1.400 . S
C449 C450 1.398 . S
C450 H438 0.950 . S
C450 C449 1.398 . S
C450 C451 1.391 . S
C451 H439 0.950 . S
C451 C447 1.393 . S
C451 C450 1.391 . S
H452 C460 0.950 . S
H453 C465 0.950 . S
H454 C462 0.950 . S
H455 C464 0.950 . S
H456 C466 0.950 . S
H457 C468 0.950 . S
H458 C470 0.950 . S
H459 C471 0.950 . S
C460 H452 0.950 . S
C460 C461 1.386 . S
C460 C462 1.391 . S
C461 C460 1.386 . S
C461 C465 1.393 . S
C462 H454 0.950 . S
C462 C460 1.391 . S
C462 C463 1.400 . S
C463 C462 1.400 . S
C463 C464 1.398 . S
C463 C469 1.491 . S
C464 H455 0.950 . S
C464 C463 1.398 . S
C464 C465 1.391 . S
C465 H453 0.950 . S
C465 C461 1.393 . S
C465 C464 1.391 . S
C466 H456 0.950 . S
C466 C467 1.386 . S
C466 C468 1.391 . S
C467 C466 1.386 . S
C467 C471 1.393 . S
C468 H457 0.950 . S
C468 C466 1.391 . S
C468 C469 1.400 . S
C469 C463 1.491 . S
C469 C468 1.400 . S
C469 C470 1.398 . S
C470 H458 0.950 . S
C470 C469 1.398 . S
C470 C471 1.391 . S
C471 H459 0.950 . S
C471 C467 1.393 . S
C471 C470 1.391 . S
H472 C480 0.933 1_455 S
H473 C485 0.950 . S
H474 C482 0.950 . S
H475 C484 0.950 . S
H476 C486 0.950 . S
H477 C488 0.950 . S
H478 C490 0.950 . S
H479 C491 0.950 . S
C480 H472 0.933 1_655 S
C480 C481 1.386 . S
C480 C482 1.391 1_655 S
C481 C480 1.386 . S
C481 C485 1.393 . S
C482 H474 0.950 . S
C482 C480 1.391 1_455 S
C482 C483 1.400 1_455 S
C483 C482 1.400 1_655 S
C483 C484 1.398 . S
C483 C489 1.491 . S
C484 H475 0.950 . S
C484 C483 1.398 . S
C484 C485 1.391 . S
C485 H473 0.950 . S
C485 C481 1.393 . S
C485 C484 1.391 . S
C486 H476 0.950 . S
C486 C487 1.386 1_655 S
C486 C488 1.391 . S
C487 C486 1.386 1_455 S
C487 C491 1.393 . S
C488 H477 0.950 . S
C488 C486 1.391 . S
C488 C489 1.400 . S
C489 C483 1.491 . S
C489 C488 1.400 . S
C489 C490 1.398 1_655 S
C490 H478 0.950 . S
C490 C489 1.398 1_455 S
C490 C491 1.391 . S
C491 H479 0.950 . S
C491 C487 1.393 . S
C491 C490 1.391 . S
H492 C500 0.950 . S
H493 C505 0.950 . S
H494 C502 0.950 . S
H495 C504 0.948 1_545 S
H496 C506 0.950 . S
H497 C508 0.950 . S
H498 C510 0.955 1_556 S
H499 C511 0.950 . S
C500 H492 0.950 . S
C500 C501 1.386 . S
C500 C502 1.391 . S
C501 C500 1.386 . S
C501 C505 1.393 . S
C502 H494 0.950 . S
C502 C500 1.391 . S
C502 C503 1.400 . S
C503 C502 1.400 . S
C503 C504 1.398 . S
C503 C509 1.491 1_565 S
C504 H495 0.948 1_565 S
C504 C503 1.398 . S
C504 C505 1.391 . S
C505 H493 0.950 . S
C505 C501 1.393 . S
C505 C504 1.391 . S
C506 H496 0.950 . S
C506 C507 1.386 1_554 S
C506 C508 1.391 . S
C507 C506 1.386 1_556 S
C507 C511 1.393 . S
C508 H497 0.950 . S
C508 C506 1.391 . S
C508 C509 1.400 . S
C509 C503 1.491 1_545 S
C509 C508 1.400 . S
C509 C510 1.398 . S
C510 H498 0.955 1_554 S
C510 C509 1.398 . S
C510 C511 1.391 1_554 S
C511 H499 0.950 . S
C511 C507 1.393 . S
C511 C510 1.391 1_556 S
H512 C520 0.950 . S
H513 C525 0.950 . S
H514 C522 0.950 . S
H515 C524 0.950 . S
H516 C526 0.950 1_554 S
H517 C528 0.950 . S
H518 C530 0.950 . S
H519 C531 0.950 . S
C520 H512 0.950 . S
C520 C521 1.386 . S
C520 C522 1.391 . S
C521 C520 1.386 . S
C521 C525 1.393 . S
C522 H514 0.950 . S
C522 C520 1.391 . S
C522 C523 1.400 . S
C523 C522 1.400 . S
C523 C524 1.398 . S
C523 C529 1.491 . S
C524 H515 0.950 . S
C524 C523 1.398 . S
C524 C525 1.391 . S
C525 H513 0.950 . S
C525 C521 1.393 . S
C525 C524 1.391 . S
C526 H516 0.950 1_556 S
C526 C527 1.386 . S
C526 C528 1.391 1_556 S
C527 C526 1.386 . S
C527 C531 1.393 . S
C528 H517 0.950 . S
C528 C526 1.391 1_554 S
C528 C529 1.400 . S
C529 C523 1.491 . S
C529 C528 1.400 . S
C529 C530 1.398 1_554 S
C530 H518 0.950 . S
C530 C529 1.398 1_556 S
C530 C531 1.391 . S
C531 H519 0.950 . S
C531 C527 1.393 . S
C531 C530 1.391 . S
H532 C540 0.950 . S
H533 C545 0.950 . S
H534 C542 0.950 . S
H535 C544 0.950 . S
H536 C546 0.950 . S
H537 C548 0.950 . S
H538 C550 0.950 . S
H539 C551 0.950 1_556 S
C540 H532 0.950 . S
C540 C541 1.386 . S
C540 C542 1.391 . S
C541 C540 1.386 . S
C541 C545 1.393 . S
C542 H534 0.950 . S
C542 C540 1.391 . S
C542 C543 1.400 . S
C543 C542 1.400 . S
C543 C544 1.398 . S
C543 C549 1.491 . S
C544 H535 0.950 . S
C544 C543 1.398 . S
C544 C545 1.391 . S
C545 H533 0.950 . S
C545 C541 1.393 . S
C545 C544 1.391 . S
C546 H536 0.950 . S
C546 C547 1.386 . S
C546 C548 1.391 . S
C547 C546 1.386 . S
C547 C551 1.393 . S
C548 H537 0.950 . S
C548 C546 1.391 . S
C548 C549 1.400 . S
C549 C543 1.491 . S
C549 C548 1.400 . S
C549 C550 1.398 . S
C550 H538 0.950 . S
C550 C549 1.398 . S
C550 C551 1.391 . S
C551 H539 0.950 1_554 S
C551 C547 1.393 . S
C551 C550 1.391 . S
H552 C560 0.950 . S
H553 C565 0.950 . S
H554 C562 0.950 . S
H555 C564 0.950 . S
H556 C566 0.950 . S
H557 C568 0.950 . S
H558 C570 0.950 1_655 S
H559 C571 0.950 1_655 S
C560 H552 0.950 . S
C560 C561 1.386 . S
C560 C562 1.391 . S
C561 C560 1.386 . S
C561 C565 1.393 . S
C562 H554 0.950 . S
C562 C560 1.391 . S
C562 C563 1.400 . S
C563 C562 1.400 . S
C563 C564 1.398 . S
C563 C569 1.491 . S
C564 H555 0.950 . S
C564 C563 1.398 . S
C564 C565 1.391 . S
C565 H553 0.950 . S
C565 C561 1.393 . S
C565 C564 1.391 . S
C566 H556 0.950 . S
C566 C567 1.386 . S
C566 C568 1.391 . S
C567 C566 1.386 . S
C567 C571 1.393 . S
C568 H557 0.950 . S
C568 C566 1.391 . S
C568 C569 1.400 . S
C569 C563 1.491 . S
C569 C568 1.400 . S
C569 C570 1.398 . S
C570 H558 0.950 1_455 S
C570 C569 1.398 . S
C570 C571 1.391 . S
C571 H559 0.950 1_455 S
C571 C567 1.393 . S
C571 C570 1.391 . S
H572 C580 0.950 . S
H573 C585 0.950 . S
H574 C582 0.950 . S
H575 C584 0.950 . S
H576 C586 0.950 . S
H577 C588 0.950 . S
H578 C590 0.950 . S
H579 C591 0.950 . S
C580 H572 0.950 . S
C580 C581 1.386 . S
C580 C582 1.391 . S
C581 C580 1.386 . S
C581 C585 1.393 . S
C582 H574 0.950 . S
C582 C580 1.391 . S
C582 C583 1.400 . S
C583 C582 1.400 . S
C583 C584 1.398 . S
C583 C589 1.491 . S
C584 H575 0.950 . S
C584 C583 1.398 . S
C584 C585 1.391 . S
C585 H573 0.950 . S
C585 C581 1.393 . S
C585 C584 1.391 . S
C586 H576 0.950 . S
C586 C587 1.386 . S
C586 C588 1.391 . S
C587 C586 1.386 . S
C587 C591 1.393 . S
C588 H577 0.950 . S
C588 C586 1.391 . S
C588 C589 1.400 . S
C589 C583 1.491 . S
C589 C588 1.400 . S
C589 C590 1.398 . S
C590 H578 0.950 . S
C590 C589 1.398 . S
C590 C591 1.391 . S
C591 H579 0.950 . S
C591 C587 1.393 . S
C591 C590 1.391 . S
H592 C600 0.950 . S
H593 C605 0.950 1_554 S
H594 C602 0.950 . S
H595 C604 0.950 . S
H596 C606 0.950 . S
H597 C608 0.950 . S
H598 C610 0.950 . S
H599 C611 0.950 . S
C600 H592 0.950 . S
C600 C601 1.386 . S
C600 C602 1.391 . S
C601 C600 1.386 . S
C601 C605 1.393 . S
C602 H594 0.950 . S
C602 C600 1.391 . S
C602 C603 1.400 . S
C603 C602 1.400 . S
C603 C604 1.398 . S
C603 C609 1.491 . S
C604 H595 0.950 . S
C604 C603 1.398 . S
C604 C605 1.391 . S
C605 H593 0.950 1_556 S
C605 C601 1.393 . S
C605 C604 1.391 . S
C606 H596 0.950 . S
C606 C607 1.386 . S
C606 C608 1.391 . S
C607 C606 1.386 . S
C607 C611 1.393 . S
C608 H597 0.950 . S
C608 C606 1.391 . S
C608 C609 1.400 . S
C609 C603 1.491 . S
C609 C608 1.400 . S
C609 C610 1.398 . S
C610 H598 0.950 . S
C610 C609 1.398 . S
C610 C611 1.391 . S
C611 H599 0.950 . S
C611 C607 1.393 . S
C611 C610 1.391 . S
H612 C620 0.950 . S
H613 C625 0.950 . S
H614 C622 0.950 . S
H615 C624 0.950 . S
H616 C626 0.950 . S
H617 C628 0.950 . S
H618 C630 0.950 . S
H619 C631 0.950 . S
C620 H612 0.950 . S
C620 C621 1.386 . S
C620 C622 1.391 . S
C621 C620 1.386 . S
C621 C625 1.393 . S
C622 H614 0.950 . S
C622 C620 1.391 . S
C622 C623 1.400 . S
C623 C622 1.400 . S
C623 C624 1.398 . S
C623 C629 1.491 . S
C624 H615 0.950 . S
C624 C623 1.398 . S
C624 C625 1.391 . S
C625 H613 0.950 . S
C625 C621 1.393 . S
C625 C624 1.391 . S
C626 H616 0.950 . S
C626 C627 1.386 . S
C626 C628 1.391 . S
C627 C626 1.386 . S
C627 C631 1.393 . S
C628 H617 0.950 . S
C628 C626 1.391 . S
C628 C629 1.400 . S
C629 C623 1.491 . S
C629 C628 1.400 . S
C629 C630 1.398 . S
C630 H618 0.950 . S
C630 C629 1.398 . S
C630 C631 1.391 . S
C631 H619 0.950 . S
C631 C627 1.393 . S
C631 C630 1.391 . S
H632 C640 0.950 . S
H633 C645 0.950 . S
H634 C642 0.950 . S
H635 C644 0.950 . S
H636 C646 0.950 . S
H637 C648 0.950 . S
H638 C650 0.950 . S
H639 C651 0.950 . S
C640 H632 0.950 . S
C640 C641 1.386 . S
C640 C642 1.391 . S
C641 C640 1.386 . S
C641 C645 1.393 . S
C642 H634 0.950 . S
C642 C640 1.391 . S
C642 C643 1.400 . S
C643 C642 1.400 . S
C643 C644 1.398 . S
C643 C649 1.491 . S
C644 H635 0.950 . S
C644 C643 1.398 . S
C644 C645 1.391 . S
C645 H633 0.950 . S
C645 C641 1.393 . S
C645 C644 1.391 . S
C646 H636 0.950 . S
C646 C647 1.386 . S
C646 C648 1.391 . S
C647 C646 1.386 . S
C647 C651 1.393 . S
C648 H637 0.950 . S
C648 C646 1.391 . S
C648 C649 1.400 . S
C649 C643 1.491 . S
C649 C648 1.400 . S
C649 C650 1.398 . S
C650 H638 0.950 . S
C650 C649 1.398 . S
C650 C651 1.391 . S
C651 H639 0.950 . S
C651 C647 1.393 . S
C651 C650 1.391 . S
H652 C660 0.950 . S
H653 C665 0.950 . S
H654 C662 0.950 . S
H655 C664 0.950 . S
H656 C666 0.950 1_545 S
H657 C668 0.950 . S
H658 C670 0.950 . S
H659 C671 0.950 . S
C660 H652 0.950 . S
C660 C661 1.386 . S
C660 C662 1.391 . S
C661 C660 1.386 . S
C661 C665 1.393 . S
C662 H654 0.950 . S
C662 C660 1.391 . S
C662 C663 1.400 . S
C663 C662 1.400 . S
C663 C664 1.398 . S
C663 C669 1.491 . S
C664 H655 0.950 . S
C664 C663 1.398 . S
C664 C665 1.391 . S
C665 H653 0.950 . S
C665 C661 1.393 . S
C665 C664 1.391 . S
C666 H656 0.950 1_565 S
C666 C667 1.386 . S
C666 C668 1.391 . S
C667 C666 1.386 . S
C667 C671 1.393 . S
C668 H657 0.950 . S
C668 C666 1.391 . S
C668 C669 1.400 . S
C669 C663 1.491 . S
C669 C668 1.400 . S
C669 C670 1.398 . S
C670 H658 0.950 . S
C670 C669 1.398 . S
C670 C671 1.391 . S
C671 H659 0.950 . S
C671 C667 1.393 . S
C671 C670 1.391 . S
H672 C680 0.950 . S
H673 C685 0.950 . S
H674 C682 0.950 . S
H675 C684 0.950 . S
H676 C686 0.950 . S
H677 C688 0.950 . S
H678 C690 0.950 . S
H679 C691 0.950 . S
C680 H672 0.950 . S
C680 C681 1.386 . S
C680 C682 1.391 . S
C681 C680 1.386 . S
C681 C685 1.393 . S
C682 H674 0.950 . S
C682 C680 1.391 . S
C682 C683 1.400 . S
C683 C682 1.400 . S
C683 C684 1.398 . S
C683 C689 1.491 . S
C684 H675 0.950 . S
C684 C683 1.398 . S
C684 C685 1.391 . S
C685 H673 0.950 . S
C685 C681 1.393 . S
C685 C684 1.391 . S
C686 H676 0.950 . S
C686 C687 1.386 . S
C686 C688 1.391 . S
C687 C686 1.386 . S
C687 C691 1.393 . S
C688 H677 0.950 . S
C688 C686 1.391 . S
C688 C689 1.400 . S
C689 C683 1.491 . S
C689 C688 1.400 . S
C689 C690 1.398 . S
C690 H678 0.950 . S
C690 C689 1.398 . S
C690 C691 1.391 . S
C691 H679 0.950 . S
C691 C687 1.393 . S
C691 C690 1.391 . S
H692 C700 0.950 . S
H693 C705 0.950 . S
H694 C702 0.950 . S
H695 C704 0.950 . S
H696 C706 0.950 . S
H697 C708 0.950 . S
H698 C710 0.950 . S
H699 C711 0.950 . S
C700 H692 0.950 . S
C700 C701 1.386 . S
C700 C702 1.391 . S
C701 C700 1.386 . S
C701 C705 1.393 . S
C702 H694 0.950 . S
C702 C700 1.391 . S
C702 C703 1.400 . S
C703 C702 1.400 . S
C703 C704 1.398 . S
C703 C709 1.491 . S
C704 H695 0.950 . S
C704 C703 1.398 . S
C704 C705 1.391 . S
C705 H693 0.950 . S
C705 C701 1.393 . S
C705 C704 1.391 . S
C706 H696 0.950 . S
C706 C707 1.386 . S
C706 C708 1.391 . S
C707 C706 1.386 . S
C707 C711 1.393 . S
C708 H697 0.950 . S
C708 C706 1.391 . S
C708 C709 1.400 . S
C709 C703 1.491 . S
C709 C708 1.400 . S
C709 C710 1.398 . S
C710 H698 0.950 . S
C710 C709 1.398 . S
C710 C711 1.391 . S
C711 H699 0.950 . S
C711 C707 1.393 . S
C711 C710 1.391 . S
C241 C61 2.138 . S
C247 C103 2.300 . S
C267 C129 1.863 . S
C261 C70 1.720 . S
C287 C169 1.919 . S
C281 C43 1.796 . S
C307 C223 2.335 . S
C301 C52 2.196 . S
C327 C84 2.297 . S
C321 C25 2.126 . S
C341 C34 1.724 . S
C347 C114 1.863 . S
C361 C7 1.774 . S
C367 C154 1.921 . S
C381 C16 2.199 . S
C387 C204 2.336 . S
C407 C80 0.364 . S
C401 C50 0.391 . S
C427 C141 0.671 . S
C421 C59 0.646 . S
C447 C181 0.560 . S
C441 C67 0.498 . S
C461 C41 0.393 . S
C467 C200 0.354 . S
C481 C14 0.447 . S
C487 C101 0.439 . S
C507 C120 0.676 . S
C501 C23 0.662 . S
C527 C160 0.536 . S
C521 C31 0.505 . S
C541 C5 0.343 . S
C547 C221 0.310 . S
C561 C49 1.833 . S
C567 C74 2.042 . S
C581 C58 2.361 . S
C587 C124 2.569 . S
C607 C164 2.397 . S
C601 C68 2.201 . S
C627 C194 1.847 . S
C621 C40 1.633 . S
C641 C13 1.809 . S
C647 C89 2.042 . S
C667 C143 2.569 . S
C661 C22 2.363 . S
C687 C183 2.399 . S
C681 C32 2.190 . S
C701 C4 1.640 . S
C707 C209 1.849 . S
