# Generated by pormake.
# Topology zzz, (3,6)-cn, num edge types: 1
# Building blocks:
#     Node 0, Type 0, BuildingBlock: QEWDON_clean_linker_0, # of connection points: 3
#     Node 1, Type 0, BuildingBlock: QEWDON_clean_linker_0, # of connection points: 3
#     Node 2, Type 0, BuildingBlock: QEWDON_clean_linker_0, # of connection points: 3
#     Node 3, Type 0, BuildingBlock: QEWDON_clean_linker_0, # of connection points: 3
#     Node 4, Type 0, BuildingBlock: QEWDON_clean_linker_0, # of connection points: 3
#     Node 5, Type 0, BuildingBlock: QEWDON_clean_linker_0, # of connection points: 3
#     Node 6, Type 0, BuildingBlock: QEWDON_clean_linker_0, # of connection points: 3
#     Node 7, Type 0, BuildingBlock: QEWDON_clean_linker_0, # of connection points: 3
#     Node 8, Type 1, BuildingBlock: BETGAK_clean_sbu_0, # of connection points: 6
#     Node 9, Type 1, BuildingBlock: BETGAK_clean_sbu_0, # of connection points: 6
#     Node 10, Type 1, BuildingBlock: BETGAK_clean_sbu_0, # of connection points: 6
#     Node 11, Type 1, BuildingBlock: BETGAK_clean_sbu_0, # of connection points: 6
#     Edge 12, Type (0, 1), BuildingBlock: MIFKUJ_clean_linker_0, # of connection points: 2
#     Edge 13, Type (0, 1), BuildingBlock: MIFKUJ_clean_linker_0, # of connection points: 2
#     Edge 14, Type (0, 1), BuildingBlock: MIFKUJ_clean_linker_0, # of connection points: 2
#     Edge 15, Type (0, 1), BuildingBlock: MIFKUJ_clean_linker_0, # of connection points: 2
#     Edge 16, Type (0, 1), BuildingBlock: MIFKUJ_clean_linker_0, # of connection points: 2
#     Edge 17, Type (0, 1), BuildingBlock: MIFKUJ_clean_linker_0, # of connection points: 2
#     Edge 18, Type (0, 1), BuildingBlock: MIFKUJ_clean_linker_0, # of connection points: 2
#     Edge 19, Type (0, 1), BuildingBlock: MIFKUJ_clean_linker_0, # of connection points: 2
#     Edge 20, Type (0, 1), BuildingBlock: MIFKUJ_clean_linker_0, # of connection points: 2
#     Edge 21, Type (0, 1), BuildingBlock: MIFKUJ_clean_linker_0, # of connection points: 2
#     Edge 22, Type (0, 1), BuildingBlock: MIFKUJ_clean_linker_0, # of connection points: 2
#     Edge 23, Type (0, 1), BuildingBlock: MIFKUJ_clean_linker_0, # of connection points: 2
#     Edge 24, Type (0, 1), BuildingBlock: MIFKUJ_clean_linker_0, # of connection points: 2
#     Edge 25, Type (0, 1), BuildingBlock: MIFKUJ_clean_linker_0, # of connection points: 2
#     Edge 26, Type (0, 1), BuildingBlock: MIFKUJ_clean_linker_0, # of connection points: 2
#     Edge 27, Type (0, 1), BuildingBlock: MIFKUJ_clean_linker_0, # of connection points: 2
#     Edge 28, Type (0, 1), BuildingBlock: MIFKUJ_clean_linker_0, # of connection points: 2
#     Edge 29, Type (0, 1), BuildingBlock: MIFKUJ_clean_linker_0, # of connection points: 2
#     Edge 30, Type (0, 1), BuildingBlock: MIFKUJ_clean_linker_0, # of connection points: 2
#     Edge 31, Type (0, 1), BuildingBlock: MIFKUJ_clean_linker_0, # of connection points: 2
#     Edge 32, Type (0, 1), BuildingBlock: MIFKUJ_clean_linker_0, # of connection points: 2
#     Edge 33, Type (0, 1), BuildingBlock: MIFKUJ_clean_linker_0, # of connection points: 2
#     Edge 34, Type (0, 1), BuildingBlock: MIFKUJ_clean_linker_0, # of connection points: 2
#     Edge 35, Type (0, 1), BuildingBlock: MIFKUJ_clean_linker_0, # of connection points: 2
# Relax obj value: 0.144
# Max RMSD: 0.164
# Mean RMSD: 0.120
data_MOF--net-zzz--node1-BETGAK_clean_sbu_0--node2-QEWDON_clean_linker_0--edge1-MIFKUJ_clean_linker_0
_symmetry_space_group_name_H-M    P1
_symmetry_Int_Tables_number       1
_symmetry_cell_setting            triclinic
loop_
_symmetry_equiv_pos_as_xyz
'x, y, z'
_cell_length_a     73.283993
_cell_length_b     73.146459
_cell_length_c     16.421858
_cell_angle_alpha  90.111815
_cell_angle_beta   89.969646
_cell_angle_gamma 89.786349
loop_
_atom_site_label
_atom_site_type_symbol
_atom_site_fract_x
_atom_site_fract_y
_atom_site_fract_z
_atom_type_partial_charge
H0 H 0.74977 0.53363 0.15592 0.0
C1 C 0.7605 0.53069 0.19913 0.0
C2 C 0.77834 0.53495 0.17662 0.0
C3 C 0.75655 0.52323 0.27618 0.0
H4 H 0.80648 0.53514 0.21255 0.0
C5 C 0.79263 0.53229 0.2319 0.0
C6 C 0.78966 0.52523 0.30993 0.0
C7 C 0.77152 0.52026 0.33136 0.0
C8 C 0.73674 0.51977 0.29864 0.0
H9 H 0.76919 0.51437 0.39079 0.0
C10 C 0.72278 0.51713 0.23861 0.0
C11 C 0.70403 0.5159 0.2603 0.0
C12 C 0.73133 0.52049 0.38078 0.0
H13 H 0.7411 0.52296 0.42885 0.0
C14 C 0.71303 0.51883 0.40267 0.0
H15 H 0.72632 0.51585 0.17496 0.0
C16 C 0.69954 0.51674 0.34352 0.0
H17 H 0.68547 0.51626 0.36339 0.0
H18 H 0.70918 0.51965 0.46624 0.0
H19 H 1.00161 0.75126 0.15376 0.0
C20 C 1.00417 0.76115 0.20145 0.0
C21 C 1.00828 0.77893 0.17826 0.0
C22 C 1.00258 0.75638 0.28411 0.0
H23 H 0.01325 0.80651 0.217 0.0
C24 C 0.01053 0.79264 0.23687 0.0
C25 C 1.00836 0.78902 0.31996 0.0
C26 C 1.0044 0.77071 0.34378 0.0
C27 C 0.99766 0.73678 0.30458 0.0
H28 H 1.00298 0.76774 0.40796 0.0
C29 C 1.00181 0.72187 0.25074 0.0
C30 C 0.99471 0.70414 0.26418 0.0
C31 C 0.98725 0.73295 0.37446 0.0
H32 H 0.98343 0.74367 0.41665 0.0
C33 C 0.98082 0.71531 0.38932 0.0
H34 H 0.01014 0.72398 0.19721 0.0
C35 C 0.98425 0.70112 0.3343 0.0
H36 H 0.97864 0.68771 0.34635 0.0
H37 H 0.97266 0.71271 0.44302 0.0
H38 H 0.77692 0.99503 0.14341 0.0
C39 C 0.76641 0.99784 0.18807 0.0
C40 C 0.74824 0.9948 0.16596 0.0
C41 C 0.77098 1.00384 0.26708 0.0
H42 H 0.72017 0.99571 0.20543 0.0
C43 C 0.7343 0.99761 0.22321 0.0
C44 C 0.73795 1.00364 0.30208 0.0
C45 C 0.75639 1.00702 0.32394 0.0
C46 C 0.79096 1.00527 0.29026 0.0
H47 H 0.75924 0.01188 0.38487 0.0
C48 C 0.80509 1.00872 0.23187 0.0
C49 C 0.82391 1.00793 0.25359 0.0
C50 C 0.79622 1.00155 0.37086 0.0
H51 H 0.78622 0.99833 0.41709 0.0
C52 C 0.81456 1.00098 0.39285 0.0
H53 H 0.80154 0.01214 0.16983 0.0
C54 C 0.8282 1.0039 0.33522 0.0
H55 H 0.84222 1.00251 0.35496 0.0
H56 H 0.81828 0.99777 0.45501 0.0
H57 H 0.52129 0.77292 0.10338 0.0
C58 C 0.51958 0.76273 0.15038 0.0
C59 C 0.51931 0.74434 0.12684 0.0
C60 C 0.51872 0.76783 0.23314 0.0
H61 H 0.51796 0.71641 0.16721 0.0
C62 C 0.51829 0.73063 0.18609 0.0
C63 C 0.51757 0.7348 0.26913 0.0
C64 C 0.51735 0.7535 0.29262 0.0
C65 C 0.52091 0.78785 0.25593 0.0
H66 H 0.51651 0.7567 0.35683 0.0
C67 C 0.51665 0.80252 0.20108 0.0
C68 C 0.52046 0.82107 0.2212 0.0
C69 C 0.52871 0.79246 0.33148 0.0
H70 H 0.53281 0.78206 0.37449 0.0
C71 C 0.5322 0.8106 0.35204 0.0
H72 H 0.51023 0.79968 0.14317 0.0
C73 C 0.52829 0.82468 0.29772 0.0
H74 H 0.53188 0.83847 0.3154 0.0
H75 H 0.53842 0.81376 0.41016 0.0
H76 H 0.27247 0.50138 0.2364 0.0
C77 C 0.26204 0.5012 0.18989 0.0
C78 C 0.24501 0.49415 0.21104 0.0
C79 C 0.26519 0.50898 0.11274 0.0
H80 H 0.21717 0.49034 0.17423 0.0
C81 C 0.23053 0.49513 0.15561 0.0
C82 C 0.23246 0.50357 0.07965 0.0
C83 C 0.25006 0.50996 0.05708 0.0
C84 C 0.28368 0.5176 0.09612 0.0
H85 H 0.25163 0.51616 0.99781 0.0
C86 C 0.29981 0.51258 0.14043 0.0
C87 C 0.3165 0.5222 0.131 0.0
C88 C 0.28512 0.53207 0.04014 0.0
H89 H 0.27342 0.53692 0.00639 0.0
C90 C 0.30159 0.54122 0.02889 0.0
H91 H 0.29959 0.50116 0.18204 0.0
C92 C 0.31701 0.53651 0.07403 0.0
H93 H 0.32926 0.54451 0.06551 0.0
H94 H 0.30228 0.55244 0.98612 0.0
H95 H 0.99724 0.26833 0.2415 0.0
C96 C 1.00033 0.25841 0.19443 0.0
C97 C 0.99687 0.23994 0.21013 0.0
C98 C 1.00625 0.26413 0.11683 0.0
H99 H 0.9968 0.2126 0.16222 0.0
C100 C 0.9996 0.22685 0.14897 0.0
C101 C 1.00543 0.23171 0.07091 0.0
C102 C 1.00917 0.25041 0.05546 0.0
C103 C 1.00693 0.2844 0.09808 0.0
H104 H 0.01373 0.25423 0.99517 0.0
C105 C 0.0107 0.29806 0.15852 0.0
C106 C 1.00935 0.31709 0.14033 0.0
C107 C 1.00205 0.29034 0.01964 0.0
H108 H 0.99845 0.28071 0.97228 0.0
C109 C 1.00073 0.30886 0.00146 0.0
H110 H 0.01477 0.29395 0.21912 0.0
C111 C 1.00411 0.32202 0.06079 0.0
H112 H 1.00216 0.3362 0.04408 0.0
H113 H 0.9966 0.31307 0.94102 0.0
H114 H 0.25475 0.99588 0.1977 0.0
C115 C 0.26547 0.99985 0.15602 0.0
C116 C 0.28332 0.994 0.17222 0.0
C117 C 0.26138 1.00983 0.08488 0.0
H118 H 0.31125 0.99386 0.13127 0.0
C119 C 0.2974 0.99821 0.11769 0.0
C120 C 0.29418 1.00826 0.04694 0.0
C121 C 0.27613 0.01436 0.03117 0.0
C122 C 0.24163 0.01381 0.06385 0.0
H123 H 0.27364 0.02223 0.97655 0.0
C124 C 0.22765 0.01599 0.12421 0.0
C125 C 0.20897 0.01813 0.10191 0.0
C126 C 0.23637 0.01397 0.9815 0.0
H127 H 0.24621 0.01177 0.93332 0.0
C128 C 0.21815 0.01612 0.95935 0.0
H129 H 0.23122 0.01624 0.18811 0.0
C130 C 0.20464 0.01803 0.0184 0.0
H131 H 0.19063 0.01903 0.99805 0.0
H132 H 0.21441 0.01593 0.89559 0.0
H133 H 0.52595 0.25653 0.22533 0.0
C134 C 0.52213 0.26726 0.1832 0.0
C135 C 0.52481 0.28542 0.20668 0.0
C136 C 0.51573 0.26292 0.10472 0.0
H137 H 0.52258 0.31372 0.17216 0.0
C138 C 0.52061 0.29966 0.15285 0.0
C139 C 0.5141 0.29614 0.07442 0.0
C140 C 0.51177 0.27766 0.05001 0.0
C141 C 0.51512 0.24306 0.07913 0.0
H142 H 0.5068 0.27487 0.98921 0.0
C143 C 0.51167 0.22857 0.13552 0.0
C144 C 0.51352 0.20985 0.11244 0.0
C145 C 0.51982 0.23837 0.99885 0.0
H146 H 0.52299 0.24877 0.95432 0.0
C147 C 0.52153 0.22014 0.97548 0.0
H148 H 0.50752 0.23187 0.19703 0.0
C149 C 0.51872 0.20612 0.03137 0.0
H150 H 0.52114 0.19228 0.01057 0.0
H151 H 0.52558 0.21684 0.91376 0.0
La152 La 0.02456 0.01077 0.73611 0.0
La153 La 1.00489 0.01867 0.58012 0.0
C154 C 0.03579 0.99884 0.87046 0.0
C155 C 0.03454 0.98082 0.90925 0.0
C156 C 0.04953 0.96886 0.90552 0.0
C157 C 0.04734 0.95044 0.92382 0.0
C158 C 0.03017 0.94383 0.94719 0.0
C159 C 0.01568 0.95614 0.95913 0.0
C160 C 0.01783 0.97453 0.94027 0.0
C161 C 0.04585 0.02194 0.61488 0.0
C162 C 0.01346 0.9773 0.61623 0.0
C163 C 0.99799 0.0327 0.44509 0.0
C164 C 0.98692 0.04933 0.43298 0.0
C165 C 0.97203 0.05285 0.48497 0.0
C166 C 0.96512 0.07053 0.49367 0.0
C167 C 0.97277 0.08496 0.44957 0.0
C168 C 0.98655 0.08122 0.3922 0.0
C169 C 0.99367 0.06352 0.38435 0.0
C170 C 0.97976 0.01452 0.69752 0.0
C171 C 0.01231 0.05124 0.70915 0.0
O172 O 0.04581 0.99938 0.80453 0.0
O173 O 0.02044 1.00785 0.86161 0.0
O174 O 0.0472 0.02707 0.69012 0.0
O175 O 0.03253 0.01098 0.6094 0.0
O176 O 0.01861 0.98266 0.69042 0.0
O177 O 1.00887 0.98929 0.55924 0.0
O178 O 0.98936 0.01825 0.47246 0.0
O179 O 0.01324 0.03568 0.48463 0.0
O180 O 0.97632 0.01734 0.62153 0.0
O181 O 0.99692 0.01357 0.70348 0.0
O182 O 1.00861 0.0464 0.63297 0.0
O183 O 0.01714 0.03892 0.76367 0.0
H184 H 0.06263 0.97347 0.88296 0.0
H185 H 0.05873 0.94121 0.9141 0.0
H186 H 1.00243 0.95137 0.97904 0.0
H187 H 1.00611 0.98352 0.94544 0.0
H188 H 0.96652 0.04224 0.52339 0.0
H189 H 0.95441 0.07308 0.5378 0.0
H190 H 0.99276 0.09221 0.35794 0.0
H191 H 1.00531 0.06122 0.34493 0.0
La192 La 0.51996 0.02369 0.7469 0.0
La193 La 0.50908 1.00829 0.58132 0.0
C194 C 0.53464 0.03023 0.88206 0.0
C195 C 0.55378 0.02934 0.90723 0.0
C196 C 0.56154 0.04414 0.9491 0.0
C197 C 0.58049 0.04546 0.95648 0.0
C198 C 0.5917 0.03204 0.92127 0.0
C199 C 0.58386 0.01661 0.88481 0.0
C200 C 0.56504 0.01526 0.87763 0.0
C201 C 0.51004 0.0483 0.63634 0.0
C202 C 0.55127 0.01334 0.61329 0.0
C203 C 0.49411 1.00657 0.44509 0.0
C204 C 0.47609 0.99867 0.4267 0.0
C205 C 0.47218 0.98037 0.44661 0.0
C206 C 0.45411 0.97451 0.45286 0.0
C207 C 0.43977 0.98692 0.44047 0.0
C208 C 0.44364 1.00474 0.41439 0.0
C209 C 0.46166 1.01052 0.40668 0.0
C210 C 0.51181 0.98082 0.68912 0.0
C211 C 0.47842 0.01568 0.7192 0.0
O212 O 0.53122 0.04278 0.82757 0.0
O213 O 0.52684 0.01464 0.86416 0.0
O214 O 0.50619 0.04918 0.71335 0.0
O215 O 0.51943 0.03398 0.62397 0.0
O216 O 0.54699 0.01734 0.69044 0.0
O217 O 0.53841 0.01057 0.55768 0.0
O218 O 0.50706 0.99517 0.46767 0.0
O219 O 0.49333 0.02111 0.49189 0.0
O220 O 0.50804 0.97883 0.61261 0.0
O221 O 0.51411 0.99773 0.69949 0.0
O222 O 0.4824 0.01381 0.64062 0.0
O223 O 0.4914 0.01774 0.7745 0.0
H224 H 0.55302 0.05517 0.97178 0.0
H225 H 0.58638 0.05739 0.98533 0.0
H226 H 0.59238 1.00596 0.85857 0.0
H227 H 0.55941 1.00374 0.84472 0.0
H228 H 0.48297 0.9709 0.4628 0.0
H229 H 0.45134 0.96066 0.47259 0.0
H230 H 0.4327 0.01443 0.40342 0.0
H231 H 0.4643 0.02467 0.3914 0.0
La232 La 0.50265 0.52263 0.75844 0.0
La233 La 0.5204 0.51136 0.61368 0.0
C234 C 0.49412 0.5414 0.88083 0.0
C235 C 0.49352 0.5616 0.88582 0.0
C236 C 0.47788 0.57122 0.86023 0.0
C237 C 0.47873 0.58997 0.84481 0.0
C238 C 0.49518 0.5995 0.85508 0.0
C239 C 0.51039 0.59013 0.88669 0.0
C240 C 0.50954 0.57143 0.90232 0.0
C241 C 0.47913 0.51278 0.64344 0.0
C242 C 0.51379 0.55286 0.62445 0.0
C243 C 0.52891 0.4928 0.49083 0.0
C244 C 0.53375 0.47317 0.48857 0.0
C245 C 0.55059 0.46693 0.51937 0.0
C246 C 0.55338 0.44835 0.5349 0.0
C247 C 0.53932 0.43579 0.52064 0.0
C248 C 0.52297 0.44183 0.48514 0.0
C249 C 0.52028 0.46032 0.46853 0.0
C250 C 0.54391 0.52102 0.72917 0.0
C251 C 0.50963 0.48093 0.74925 0.0
O252 O 0.4821 0.53389 0.83261 0.0
O253 O 0.51031 0.53415 0.87051 0.0
O254 O 0.47762 0.50898 0.72014 0.0
O255 O 0.49352 0.52207 0.63331 0.0
O256 O 0.51079 0.54909 0.70225 0.0
O257 O 0.51583 0.53933 0.57195 0.0
O258 O 0.54036 0.50365 0.52807 0.0
O259 O 0.51201 0.4963 0.51173 0.0
O260 O 0.54549 0.52493 0.65256 0.0
O261 O 0.52949 0.51176 0.73864 0.0
O262 O 0.51511 0.48466 0.67408 0.0
O263 O 0.50492 0.49431 0.79916 0.0
H264 H 0.46525 0.56411 0.84779 0.0
H265 H 0.46662 0.5969 0.82269 0.0
H266 H 0.52333 0.59699 0.89503 0.0
H267 H 0.52181 0.56448 0.92242 0.0
H268 H 0.56129 0.47645 0.53541 0.0
H269 H 0.56615 0.44392 0.56171 0.0
H270 H 0.51209 0.43228 0.47196 0.0
H271 H 0.50722 0.46467 0.44427 0.0
La272 La 1.00479 0.50212 0.78279 0.0
La273 La 0.01486 0.51831 0.62962 0.0
C274 C 0.9882 0.49785 0.91446 0.0
C275 C 0.9692 0.50361 0.9295 0.0
C276 C 0.95566 0.49032 0.93998 0.0
C277 C 0.93729 0.49492 0.93006 0.0
C278 C 0.93219 0.51289 0.9095 0.0
C279 C 0.94565 0.52645 0.90547 0.0
C280 C 0.96396 0.52188 0.9156 0.0
C281 C 0.01449 0.47717 0.67345 0.0
C282 C 0.97324 0.51337 0.65279 0.0
C283 C 0.03085 0.52455 0.4977 0.0
C284 C 0.04969 0.51947 0.47564 0.0
C285 C 0.06312 0.53307 0.47271 0.0
C286 C 0.08155 0.52827 0.47385 0.0
C287 C 0.0868 0.50981 0.47699 0.0
C288 C 0.07342 0.49619 0.47303 0.0
C289 C 0.055 0.50096 0.47257 0.0
C290 C 1.00509 0.5427 0.74207 0.0
C291 C 0.04642 0.50697 0.75785 0.0
O292 O 0.99011 0.48475 0.8607 0.0
O293 O 0.99987 0.51106 0.90233 0.0
O294 O 0.01788 0.4762 0.75098 0.0
O295 O 1.00522 0.49155 0.66013 0.0
O296 O 0.97767 0.50906 0.72881 0.0
O297 O 0.98607 0.51663 0.59841 0.0
O298 O 0.02948 0.53662 0.5563 0.0
O299 O 0.01945 0.51101 0.50772 0.0
O300 O 1.00107 0.54388 0.6654 0.0
O301 O 0.01477 0.52857 0.75204 0.0
O302 O 0.04187 0.50991 0.68064 0.0
O303 O 0.03359 0.50489 0.81353 0.0
H304 H 0.95935 0.47616 0.95052 0.0
H305 H 0.92714 0.48428 0.93576 0.0
H306 H 0.94218 0.54041 0.88978 0.0
H307 H 0.97402 0.53251 0.90675 0.0
H308 H 0.05938 0.54741 0.4748 0.0
H309 H 0.09169 0.53901 0.47499 0.0
H310 H 0.07717 0.48185 0.47508 0.0
H311 H 0.04501 0.4901 0.47481 0.0
H312 H 0.17811 0.03953 0.09075 0.0
H313 H 0.15129 0.03977 0.17735 0.0
H314 H 0.17765 1.00231 0.34242 0.0
H315 H 0.20438 1.00102 0.25191 0.0
H316 H 0.14396 0.99232 0.3306 0.0
H317 H 0.17073 0.0505 0.38364 0.0
H318 H 0.18412 0.08048 0.35073 0.0
H319 H 0.13431 0.09677 0.23342 0.0
H320 H 0.1207 0.0668 0.26474 0.0
H321 H 0.07667 0.04226 0.63167 0.0
H322 H 0.10438 0.04166 0.54925 0.0
H323 H 0.07948 1.00278 0.38625 0.0
H324 H 0.05168 1.00307 0.47042 0.0
H325 H 0.11357 0.05068 0.40525 0.0
H326 H 0.11234 0.97494 0.30138 0.0
H327 H 0.10069 0.94529 0.35002 0.0
H328 H 0.10285 0.96455 0.59697 0.0
H329 H 0.11474 0.9942 0.54994 0.0
C330 C 0.17832 0.03119 0.14512 0.0
C331 C 0.1936 0.02008 0.16309 0.0
C332 C 0.16289 0.03155 0.1957 0.0
C333 C 0.16222 0.02125 0.26788 0.0
C334 C 0.17761 1.01043 0.28736 0.0
C335 C 0.19308 1.00988 0.23588 0.0
C336 C 0.14537 0.02166 0.32133 0.0
C337 C 0.13739 1.00513 0.34679 0.0
C338 C 0.13665 0.03827 0.34455 0.0
C339 C 0.14475 0.05635 0.326 0.0
C340 C 0.16268 0.06044 0.35041 0.0
C341 C 0.1703 0.07743 0.33209 0.0
C342 C 0.16009 0.0905 0.28987 0.0
C343 C 0.14221 0.08663 0.26607 0.0
C344 C 0.13453 0.06965 0.28418 0.0
C345 C 0.077 0.03363 0.57802 0.0
C346 C 0.06187 0.02266 0.5581 0.0
C347 C 0.09295 0.03331 0.53056 0.0
C348 C 0.09439 0.02199 0.46148 0.0
C349 C 0.07905 0.01141 0.43987 0.0
C350 C 0.06302 0.0117 0.48768 0.0
C351 C 0.11198 0.02136 0.41323 0.0
C352 C 0.12011 0.03787 0.38882 0.0
C353 C 0.12106 1.00476 0.39298 0.0
C354 C 0.11423 0.98686 0.42196 0.0
C355 C 0.11039 0.97282 0.36606 0.0
C356 C 0.10374 0.95601 0.39336 0.0
C357 C 0.10096 0.95306 0.4765 0.0
C358 C 0.10493 0.96687 0.53257 0.0
C359 C 0.11161 0.98369 0.50561 0.0
H360 H 0.09578 0.94006 0.49749 0.0
H361 H 0.16602 0.10365 0.27571 0.0
H362 H 0.51818 0.20869 0.28147 0.0
H363 H 0.51573 0.18239 0.37198 0.0
H364 H 0.50199 0.1481 0.1672 0.0
H365 H 0.50208 0.17449 0.07913 0.0
H366 H 0.48521 0.1346 0.27586 0.0
H367 H 0.54813 0.15186 0.27404 0.0
H368 H 0.57476 0.17205 0.29038 0.0
H369 H 0.56163 0.17973 0.54304 0.0
H370 H 0.53478 0.15973 0.52795 0.0
H371 H 0.51731 0.05035 0.47116 0.0
H372 H 0.51661 0.07774 0.38389 0.0
H373 H 0.50146 0.11074 0.59082 0.0
H374 H 0.50142 0.08348 0.67716 0.0
H375 H 0.53293 0.12417 0.48459 0.0
H376 H 0.46985 0.10341 0.47422 0.0
H377 H 0.44637 0.08009 0.44745 0.0
H378 H 0.46446 0.07559 0.19945 0.0
H379 H 0.48825 0.09869 0.22515 0.0
C380 C 0.51425 0.19568 0.25555 0.0
C381 C 0.51082 0.19403 0.17125 0.0
C382 C 0.51323 0.18037 0.30767 0.0
C383 C 0.50936 0.16272 0.27712 0.0
C384 C 0.50525 0.16125 0.1937 0.0
C385 C 0.50567 0.17657 0.14232 0.0
C386 C 0.50955 0.14579 0.33065 0.0
C387 C 0.49589 0.1324 0.32047 0.0
C388 C 0.52325 0.14243 0.39031 0.0
C389 C 0.53934 0.15447 0.39962 0.0
C390 C 0.55086 0.15795 0.33293 0.0
C391 C 0.56599 0.16935 0.34199 0.0
C392 C 0.56985 0.17721 0.41763 0.0
C393 C 0.5586 0.17365 0.48444 0.0
C394 C 0.54343 0.16228 0.47569 0.0
C395 C 0.51364 0.0634 0.49784 0.0
C396 C 0.5093 0.06462 0.58126 0.0
C397 C 0.51331 0.07909 0.44793 0.0
C398 C 0.50903 0.09642 0.48062 0.0
C399 C 0.50486 0.09762 0.56395 0.0
C400 C 0.50477 0.08195 0.61326 0.0
C401 C 0.50881 0.1133 0.42851 0.0
C402 C 0.52241 0.12657 0.43939 0.0
C403 C 0.49548 0.11625 0.3676 0.0
C404 C 0.48094 0.10264 0.35185 0.0
C405 C 0.46892 0.09734 0.41417 0.0
C406 C 0.45554 0.08418 0.39915 0.0
C407 C 0.45396 0.07632 0.32185 0.0
C408 C 0.46571 0.08167 0.25932 0.0
C409 C 0.47913 0.09481 0.27406 0.0
H410 H 0.44361 0.06612 0.31035 0.0
H411 H 0.58158 0.18603 0.42453 0.0
H412 H 0.35264 0.5228 0.08364 0.0
H413 H 0.37987 0.52031 0.16773 0.0
H414 H 0.34644 0.50949 0.3781 0.0
H415 H 0.31889 0.51286 0.29438 0.0
H416 H 0.37186 0.53241 0.42106 0.0
H417 H 0.37388 0.47558 0.2769 0.0
H418 H 0.37362 0.4552 0.15711 0.0
H419 H 0.42166 0.48137 0.06429 0.0
H420 H 0.42207 0.50208 0.18303 0.0
H421 H 0.44428 0.50201 0.67685 0.0
H422 H 0.41749 0.50269 0.58825 0.0
H423 H 0.45049 0.5231 0.3914 0.0
H424 H 0.4775 0.52272 0.48092 0.0
H425 H 0.42574 0.4952 0.34157 0.0
H426 H 0.42339 0.55209 0.48572 0.0
H427 H 0.42391 0.57196 0.6071 0.0
H428 H 0.37652 0.54487 0.70135 0.0
H429 H 0.37586 0.52465 0.58089 0.0
C430 C 0.35094 0.5199 0.14781 0.0
C431 C 0.33331 0.51817 0.18165 0.0
C432 C 0.3667 0.51826 0.19607 0.0
C433 C 0.36551 0.5145 0.27995 0.0
C434 C 0.34794 0.51237 0.31379 0.0
C435 C 0.33211 0.5141 0.26541 0.0
C436 C 0.3825 0.51346 0.33222 0.0
C437 C 0.38347 0.524 0.40396 0.0
C438 C 0.3981 0.50294 0.30995 0.0
C439 C 0.3979 0.4905 0.23851 0.0
C440 C 0.38431 0.47708 0.23064 0.0
C441 C 0.38415 0.46546 0.16298 0.0
C442 C 0.39759 0.46702 0.10303 0.0
C443 C 0.41124 0.48019 0.11073 0.0
C444 C 0.41146 0.49186 0.17824 0.0
C445 C 0.44593 0.50662 0.61465 0.0
C446 C 0.46314 0.51238 0.58637 0.0
C447 C 0.4305 0.50705 0.56391 0.0
C448 C 0.43176 0.51309 0.48286 0.0
C449 C 0.44904 0.51839 0.45355 0.0
C450 C 0.46451 0.5182 0.50486 0.0
C451 C 0.41496 0.51407 0.42998 0.0
C452 C 0.41407 0.50355 0.35836 0.0
C453 C 0.39941 0.52454 0.4524 0.0
C454 C 0.39968 0.53674 0.52466 0.0
C455 C 0.41316 0.55027 0.53263 0.0
C456 C 0.41347 0.56161 0.6012 0.0
C457 C 0.40028 0.55964 0.66202 0.0
C458 C 0.38673 0.54636 0.65424 0.0
C459 C 0.38638 0.53497 0.58578 0.0
H460 H 0.40054 0.56844 0.71509 0.0
H461 H 0.39744 0.45801 0.0507 0.0
H462 H 0.02421 0.35119 0.11449 0.0
H463 H 0.0253 0.37716 0.20548 0.0
H464 H 1.00507 0.34377 0.40166 0.0
H465 H 1.00218 0.31783 0.30739 0.0
H466 H 0.9897 0.37405 0.41929 0.0
H467 H 0.05259 0.3611 0.37917 0.0
H468 H 0.08113 0.3547 0.30466 0.0
H469 H 0.07757 0.40698 0.18714 0.0
H470 H 0.04886 0.4136 0.26011 0.0
H471 H 0.02065 0.44153 0.71604 0.0
H472 H 0.02049 0.41425 0.62915 0.0
H473 H 0.01013 0.44787 0.41917 0.0
H474 H 1.00952 0.47528 0.50664 0.0
H475 H 0.04169 0.41728 0.41591 0.0
H476 H 0.97697 0.42835 0.46253 0.0
H477 H 0.9503 0.43378 0.55107 0.0
H478 H 0.96037 0.38296 0.67392 0.0
H479 H 0.9873 0.37739 0.58689 0.0
C480 C 0.01974 0.34921 0.17666 0.0
C481 C 0.01275 0.33217 0.20215 0.0
C482 C 0.02076 0.36421 0.2298 0.0
C483 C 0.01561 0.36273 0.31207 0.0
C484 C 1.00918 0.34556 0.33885 0.0
C485 C 1.00775 0.33053 0.28482 0.0
C486 C 0.01631 0.37925 0.36815 0.0
C487 C 1.00127 0.38325 0.41887 0.0
C488 C 0.03122 0.39171 0.36875 0.0
C489 C 0.04847 0.38778 0.32462 0.0
C490 C 0.05782 0.37118 0.337 0.0
C491 C 0.07404 0.36752 0.2951 0.0
C492 C 0.08114 0.3804 0.24106 0.0
C493 C 0.07205 0.397 0.22895 0.0
C494 C 0.05581 0.40072 0.27063 0.0
C495 C 0.01833 0.4432 0.65135 0.0
C496 C 0.01511 0.46072 0.61857 0.0
C497 C 0.01823 0.42751 0.60165 0.0
C498 C 0.01529 0.42888 0.51735 0.0
C499 C 0.01245 0.44639 0.48395 0.0
C500 C 0.01211 0.46209 0.53407 0.0
C501 C 0.01507 0.412 0.46483 0.0
C502 C 0.03021 0.40795 0.41556 0.0
C503 C 1.00052 0.3993 0.46708 0.0
C504 C 0.98426 0.40256 0.51886 0.0
C505 C 0.97361 0.41843 0.50898 0.0
C506 C 0.95842 0.42151 0.55876 0.0
C507 C 0.95367 0.40875 0.61826 0.0
C508 C 0.96408 0.39285 0.62791 0.0
C509 C 0.9793 0.38972 0.57834 0.0
H510 H 0.94191 0.41115 0.65674 0.0
H511 H 0.0937 0.37754 0.20869 0.0
H512 H 0.82539 0.99886 0.08865 0.0
H513 H 0.85157 1.00053 0.9964 0.0
H514 H 0.88429 0.02325 0.18957 0.0
H515 H 0.85794 0.02319 0.2791 0.0
H516 H 0.8956 0.03817 0.06532 0.0
H517 H 0.88491 0.97466 0.11853 0.0
H518 H 0.86725 0.94604 0.1242 0.0
H519 H 0.85881 0.94826 0.86566 0.0
H520 H 0.87624 0.97702 0.85861 0.0
H521 H 0.98192 0.01734 0.86706 0.0
H522 H 0.95627 0.01621 0.96482 0.0
H523 H 0.91904 1.00573 0.76724 0.0
H524 H 0.94426 1.00702 0.67073 0.0
H525 H 0.91123 0.98397 0.89725 0.0
H526 H 0.92293 0.04817 0.84953 0.0
H527 H 0.94222 0.07572 0.84867 0.0
H528 H 0.95072 0.07059 0.10633 0.0
H529 H 0.93168 0.04283 0.10848 0.0
C530 C 0.83802 1.00456 0.11132 0.0
C531 C 0.83934 1.0105 0.1929 0.0
C532 C 0.85323 1.0052 0.05851 0.0
C533 C 0.87042 0.01142 0.08583 0.0
C534 C 0.87148 0.01813 0.16602 0.0
C535 C 0.85626 0.01783 0.21811 0.0
C536 C 0.88732 0.01087 0.03223 0.0
C537 C 0.89904 0.02614 0.02974 0.0
C538 C 0.89214 0.99538 0.98421 0.0
C539 C 0.88171 0.97807 0.9882 0.0
C540 C 0.87919 0.96909 0.06298 0.0
C541 C 0.86924 0.95284 0.06642 0.0
C542 C 0.86187 0.94536 0.99537 0.0
C543 C 0.86449 0.95409 0.92067 0.0
C544 C 0.87442 0.97035 0.9169 0.0
C545 C 0.9683 0.01458 0.84487 0.0
C546 C 0.96522 0.01225 0.76088 0.0
C547 C 0.95358 0.01406 0.9007 0.0
C548 C 0.93551 0.01099 0.8738 0.0
C549 C 0.93268 1.00809 0.79024 0.0
C550 C 0.94722 1.00887 0.73484 0.0
C551 C 0.91934 0.01118 0.93087 0.0
C552 C 0.90776 0.99589 0.93362 0.0
C553 C 0.91483 0.02649 0.9801 0.0
C554 C 0.92604 0.04332 0.97901 0.0
C555 C 0.92901 0.05284 0.9059 0.0
C556 C 0.93989 0.06851 0.90519 0.0
C557 C 0.94774 0.07487 0.97736 0.0
C558 C 0.94466 0.06562 0.05045 0.0
C559 C 0.93382 0.04993 0.05146 0.0
H560 H 0.95617 0.08699 0.97667 0.0
H561 H 0.85417 0.93278 0.99816 0.0
H562 H 0.50835 0.85585 0.25784 0.0
H563 H 0.50709 0.88262 0.17056 0.0
H564 H 0.52291 0.84958 0.96446 0.0
H565 H 0.52524 0.82269 0.05336 0.0
H566 H 0.54095 0.87986 0.95629 0.0
H567 H 0.47749 0.86809 0.99714 0.0
H568 H 0.44932 0.86226 0.07494 0.0
H569 H 0.45479 0.91404 0.19596 0.0
H570 H 0.48313 0.92008 0.11963 0.0
H571 H 0.51636 0.94497 0.65302 0.0
H572 H 0.51776 0.91873 0.74453 0.0
H573 H 0.51208 0.9547 0.9512 0.0
H574 H 0.51082 0.98127 0.85874 0.0
H575 H 0.4891 0.92364 0.9603 0.0
H576 H 0.55247 0.93534 0.91503 0.0
H577 H 0.58003 0.94108 0.83293 0.0
H578 H 0.57384 0.88901 0.71512 0.0
H579 H 0.54608 0.88306 0.79577 0.0
C580 C 0.51162 0.85414 0.19398 0.0
C581 C 0.51708 0.83688 0.16354 0.0
C582 C 0.51065 0.86959 0.14343 0.0
C583 C 0.51469 0.8684 0.05979 0.0
C584 C 0.51969 0.85109 0.0285 0.0
C585 C 0.52082 0.83557 0.07945 0.0
C586 C 0.51429 0.88528 0.00638 0.0
C587 C 0.52943 0.88921 0.95653 0.0
C588 C 0.49958 0.89804 0.00725 0.0
C589 C 0.48253 0.89446 0.0532 0.0
C590 C 0.47276 0.87818 0.04078 0.0
C591 C 0.45675 0.87485 0.08454 0.0
C592 C 0.45029 0.88775 0.1405 0.0
C593 C 0.45982 0.90404 0.15267 0.0
C594 C 0.47585 0.90744 0.10911 0.0
C595 C 0.51558 0.9474 0.71802 0.0
C596 C 0.51368 0.96534 0.74833 0.0
C597 C 0.51641 0.9323 0.77052 0.0
C598 C 0.51517 0.93455 0.85534 0.0
C599 C 0.51315 0.95248 0.88615 0.0
C600 C 0.51258 0.96773 0.83329 0.0
C601 C 0.51569 0.91807 0.91055 0.0
C602 C 0.50059 0.91424 0.96045 0.0
C603 C 0.53035 0.90534 0.90929 0.0
C604 C 0.54709 0.90883 0.86097 0.0
C605 C 0.5569 0.92517 0.87117 0.0
C606 C 0.57258 0.92845 0.82498 0.0
C607 C 0.57866 0.91544 0.76871 0.0
C608 C 0.5691 0.89909 0.75868 0.0
C609 C 0.55341 0.89575 0.80469 0.0
H610 H 0.5908 0.918 0.733 0.0
H611 H 0.4379 0.88515 0.17432 0.0
H612 H 0.70118 0.53241 0.10862 0.0
H613 H 0.67499 0.53255 0.01582 0.0
H614 H 0.64566 0.49721 0.17935 0.0
H615 H 0.672 0.49622 0.26971 0.0
H616 H 0.63717 0.48742 0.03457 0.0
H617 H 0.63886 0.54614 0.16618 0.0
H618 H 0.65251 0.57548 0.20775 0.0
H619 H 0.6596 0.59029 0.95684 0.0
H620 H 0.64619 0.56092 0.91379 0.0
H621 H 0.54722 0.50476 0.88035 0.0
H622 H 0.57437 0.50347 0.96808 0.0
H623 H 0.60411 0.53584 0.79398 0.0
H624 H 0.57703 0.53733 0.70711 0.0
H625 H 0.61246 0.54707 0.94224 0.0
H626 H 0.60967 0.48828 0.81174 0.0
H627 H 0.59512 0.45923 0.77233 0.0
H628 H 0.58932 0.44471 0.02422 0.0
H629 H 0.6036 0.47381 0.06518 0.0
C630 C 0.68931 0.52437 0.12429 0.0
C631 C 0.68884 0.51451 0.19799 0.0
C632 C 0.67413 0.52468 0.07142 0.0
C633 C 0.6579 0.51528 0.09082 0.0
C634 C 0.65776 0.50477 0.16246 0.0
C635 C 0.67292 0.50436 0.21488 0.0
C636 C 0.64096 0.51661 0.03821 0.0
C637 C 0.63172 0.50052 0.01536 0.0
C638 C 0.63371 0.53359 0.01111 0.0
C639 C 0.6417 0.55126 0.03681 0.0
C640 C 0.64345 0.55561 0.1199 0.0
C641 C 0.65112 0.57225 0.14372 0.0
C642 C 0.65697 0.58472 0.08498 0.0
C643 C 0.6551 0.5806 0.00228 0.0
C644 C 0.64745 0.56397 0.97813 0.0
C645 C 0.55951 0.51171 0.86107 0.0
C646 C 0.55989 0.52109 0.7863 0.0
C647 C 0.57514 0.51086 0.91111 0.0
C648 C 0.59161 0.51932 0.88767 0.0
C649 C 0.59176 0.52912 0.81402 0.0
C650 C 0.57619 0.52994 0.76407 0.0
C651 C 0.6087 0.51791 0.93889 0.0
C652 C 0.61795 0.53397 0.96143 0.0
C653 C 0.61589 0.50093 0.96603 0.0
C654 C 0.60755 0.48331 0.94153 0.0
C655 C 0.60519 0.47894 0.85874 0.0
C656 C 0.597 0.46246 0.83612 0.0
C657 C 0.59125 0.45015 0.89574 0.0
C658 C 0.59375 0.45427 0.97811 0.0
C659 C 0.60191 0.47075 0.00106 0.0
H660 H 0.5849 0.43741 0.87811 0.0
H661 H 0.66291 0.5976 0.10354 0.0
H662 H 0.02538 0.68343 0.2325 0.0
H663 H 0.02778 0.6559 0.14718 0.0
H664 H 0.97149 0.66249 0.07555 0.0
H665 H 0.96898 0.68939 0.1641 0.0
H666 H 0.97574 0.62898 0.09785 0.0
H667 H 0.01169 0.67143 0.94592 0.0
H668 H 0.036 0.69399 0.92137 0.0
H669 H 0.07661 0.65408 0.98558 0.0
H670 H 0.05251 0.63135 0.01151 0.0
H671 H 0.98097 0.5713 0.73941 0.0
H672 H 0.9798 0.59812 0.82968 0.0
H673 H 0.02589 0.57731 0.96375 0.0
H674 H 0.02671 0.55011 0.87522 0.0
H675 H 0.0275 0.61703 0.91035 0.0
H676 H 0.98985 0.57428 0.0554 0.0
H677 H 0.96469 0.55219 0.06809 0.0
H678 H 0.92606 0.59396 0.0034 0.0
H679 H 0.95105 0.61625 0.9888 0.0
C680 C 0.01364 0.67913 0.19746 0.0
C681 C 0.99707 0.68878 0.20418 0.0
C682 C 0.01499 0.66334 0.14825 0.0
C683 C 0.9999 0.65694 0.10292 0.0
C684 C 0.98341 0.66684 0.10927 0.0
C685 C 0.982 0.6824 0.15945 0.0
C686 C 1.00102 0.63978 0.05095 0.0
C687 C 0.98701 0.62663 0.05628 0.0
C688 C 0.01577 0.63612 0.99685 0.0
C689 C 0.03028 0.64976 0.98152 0.0
C690 C 0.02579 0.66751 0.95541 0.0
C691 C 0.03954 0.68032 0.94114 0.0
C692 C 0.05783 0.67549 0.95214 0.0
C693 C 0.06243 0.65782 0.97723 0.0
C694 C 0.04873 0.64496 0.99167 0.0
C695 C 0.99078 0.57236 0.78852 0.0
C696 C 1.00392 0.55851 0.8 0.0
C697 C 0.99011 0.58774 0.8401 0.0
C698 C 1.00282 0.5899 0.90359 0.0
C699 C 0.01598 0.57608 0.91517 0.0
C700 C 0.01637 0.56046 0.86474 0.0
C701 C 1.00227 0.60656 0.95756 0.0
C702 C 0.01632 0.61953 0.9523 0.0
C703 C 0.98744 0.61021 0.01058 0.0
C704 C 0.97236 0.5969 0.02028 0.0
C705 C 0.97601 0.57872 0.04314 0.0
C706 C 0.96178 0.56617 0.05081 0.0
C707 C 0.94379 0.57167 0.03649 0.0
C708 C 0.94 0.58973 0.01446 0.0
C709 C 0.9542 0.60233 0.00652 0.0
H710 H 0.93279 0.56194 0.0428 0.0
H711 H 0.06845 0.68542 0.94104 0.0
H712 H 0.96463 0.22317 0.23007 0.0
H713 H 0.95533 0.20498 0.34518 0.0
H714 H 1.00164 0.22454 0.48277 0.0
H715 H 0.01147 0.24231 0.36362 0.0
H716 H 1.00344 0.19124 0.48921 0.0
H717 H 0.95493 0.22639 0.56369 0.0
H718 H 0.92877 0.2476 0.56059 0.0
H719 H 0.89693 0.20769 0.43251 0.0
H720 H 0.92293 0.18632 0.43336 0.0
H721 H 0.97284 0.10068 0.59987 0.0
H722 H 0.971 0.1335 0.63102 0.0
H723 H 0.96041 0.14493 0.37831 0.0
H724 H 0.96265 0.11227 0.34619 0.0
H725 H 0.94046 0.16789 0.5235 0.0
H726 H 1.00028 0.14138 0.41705 0.0
H727 H 0.02651 0.12099 0.44232 0.0
H728 H 0.03684 0.14827 0.66939 0.0
H729 H 0.01046 0.16857 0.64581 0.0
C730 C 0.97247 0.22409 0.2859 0.0
C731 C 0.98886 0.23386 0.28795 0.0
C732 C 0.96701 0.21383 0.35269 0.0
C733 C 0.97768 0.21332 0.42389 0.0
C734 C 0.99316 0.22463 0.42878 0.0
C735 C 0.99874 0.23484 0.361 0.0
C736 C 0.97471 0.19806 0.48238 0.0
C737 C 0.98963 0.18655 0.49978 0.0
C738 C 0.95685 0.19191 0.50068 0.0
C739 C 0.94097 0.20465 0.49908 0.0
C740 C 0.94239 0.22213 0.53442 0.0
C741 C 0.92757 0.2342 0.53311 0.0
C742 C 0.91119 0.22898 0.49652 0.0
C743 C 0.90961 0.21168 0.46115 0.0
C744 C 0.92439 0.19954 0.46235 0.0
C745 C 0.96967 0.11019 0.55139 0.0
C746 C 0.9681 0.10407 0.47038 0.0
C747 C 0.96864 0.12885 0.56948 0.0
C748 C 0.9657 0.14149 0.50705 0.0
C749 C 0.96258 0.13527 0.42734 0.0
C750 C 0.964 0.1167 0.40889 0.0
C751 C 0.96897 0.16115 0.51982 0.0
C752 C 0.95415 0.17325 0.51688 0.0
C753 C 0.98692 0.16811 0.51871 0.0
C754 C 1.00308 0.15617 0.53086 0.0
C755 C 1.00797 0.14286 0.47289 0.0
C756 C 0.02293 0.13135 0.48671 0.0
C757 C 0.03329 0.13326 0.55763 0.0
C758 C 0.02877 0.14674 0.61461 0.0
C759 C 0.01378 0.15821 0.60117 0.0
H760 H 0.04484 0.12432 0.56835 0.0
H761 H 0.89973 0.23835 0.49551 0.0
H762 H 0.27611 1.00422 0.32907 0.0
H763 H 0.29487 0.99545 0.44612 0.0
H764 H 0.32096 0.95371 0.30047 0.0
H765 H 0.30179 0.96191 0.18537 0.0
H766 H 0.32683 0.94689 0.45885 0.0
H767 H 0.33275 0.99918 0.27138 0.0
H768 H 0.32142 0.02771 0.20883 0.0
H769 H 0.31554 0.05197 0.44589 0.0
H770 H 0.32674 0.02349 0.50961 0.0
H771 H 0.4196 0.95918 0.37635 0.0
H772 H 0.3869 0.95405 0.39587 0.0
H773 H 0.38512 0.99787 0.57246 0.0
H774 H 0.41764 1.00347 0.54977 0.0
H775 H 0.36261 1.00429 0.45879 0.0
H776 H 0.37494 0.95258 0.61841 0.0
H777 H 0.38863 0.92336 0.66054 0.0
H778 H 0.36378 0.89637 0.45675 0.0
H779 H 0.35009 0.92546 0.41239 0.0
C780 C 0.28505 0.99245 0.3238 0.0
C781 C 0.28807 0.98413 0.24781 0.0
C782 C 0.2958 0.98745 0.39065 0.0
C783 C 0.30986 0.97448 0.3808 0.0
C784 C 0.31043 0.96397 0.30928 0.0
C785 C 0.29957 0.96877 0.24309 0.0
C786 C 0.32675 0.97556 0.43022 0.0
C787 C 0.33471 0.95941 0.46 0.0
C788 C 0.33683 0.99203 0.43316 0.0
C789 C 0.33025 1.00918 0.39522 0.0
C790 C 0.32895 0.0106 0.31004 0.0
C791 C 0.32257 0.02674 0.2744 0.0
C792 C 0.31767 0.04161 0.3234 0.0
C793 C 0.31925 0.0404 0.40807 0.0
C794 C 0.32559 0.02427 0.44399 0.0
C795 C 0.41223 0.9674 0.42046 0.0
C796 C 0.42087 0.98189 0.46061 0.0
C797 C 0.39362 0.96434 0.43249 0.0
C798 C 0.38354 0.97549 0.48625 0.0
C799 C 0.3926 0.98909 0.5309 0.0
C800 C 0.41109 0.99236 0.51761 0.0
C801 C 0.36333 0.97534 0.48332 0.0
C802 C 0.35471 0.99179 0.46203 0.0
C803 C 0.35304 0.95899 0.48581 0.0
C804 C 0.36131 0.94133 0.51225 0.0
C805 C 0.37236 0.94047 0.58228 0.0
C806 C 0.38016 0.92389 0.60661 0.0
C807 C 0.37704 0.90801 0.56148 0.0
C808 C 0.36613 0.90868 0.49186 0.0
C809 C 0.35829 0.92522 0.46723 0.0
H810 H 0.3831 0.89519 0.5804 0.0
H811 H 0.31273 0.0541 0.29574 0.0
H812 H 0.51054 0.27651 0.35468 0.0
H813 H 0.51696 0.29244 0.48308 0.0
H814 H 0.5614 0.32097 0.36745 0.0
H815 H 0.5551 0.30504 0.24019 0.0
H816 H 0.56545 0.31933 0.53832 0.0
H817 H 0.51947 0.33697 0.32774 0.0
H818 H 0.49231 0.3296 0.24538 0.0
H819 H 0.46231 0.31717 0.46304 0.0
H820 H 0.48943 0.32434 0.54654 0.0
H821 H 0.56699 0.41245 0.48125 0.0
H822 H 0.56753 0.37941 0.50054 0.0
H823 H 0.51721 0.38279 0.63723 0.0
H824 H 0.51602 0.41568 0.61182 0.0
H825 H 0.51249 0.36155 0.52181 0.0
H826 H 0.55907 0.36362 0.7181 0.0
H827 H 0.58777 0.37348 0.78298 0.0
H828 H 0.61857 0.35054 0.58532 0.0
H829 H 0.59017 0.34104 0.5177 0.0
C830 C 0.52222 0.28552 0.3582 0.0
C831 C 0.53207 0.29001 0.28777 0.0
C832 C 0.52594 0.29453 0.43151 0.0
C833 C 0.53941 0.30814 0.43415 0.0
C834 C 0.55093 0.31054 0.36678 0.0
C835 C 0.54719 0.30162 0.29379 0.0
C836 C 0.53818 0.3233 0.49347 0.0
C837 C 0.55383 0.32855 0.53668 0.0
C838 C 0.5228 0.33501 0.49266 0.0
C839 C 0.50643 0.331 0.44308 0.0
C840 C 0.50707 0.33263 0.35785 0.0
C841 C 0.49171 0.32847 0.31102 0.0
C842 C 0.47561 0.32286 0.34894 0.0
C843 C 0.47481 0.32147 0.43378 0.0
C844 C 0.49016 0.32557 0.48089 0.0
C845 C 0.5563 0.40613 0.51693 0.0
C846 C 0.54135 0.41644 0.54425 0.0
C847 C 0.55673 0.38726 0.5292 0.0
C848 C 0.54248 0.37849 0.57117 0.0
C849 C 0.52835 0.38916 0.60459 0.0
C850 C 0.52762 0.40791 0.58984 0.0
C851 C 0.54029 0.35839 0.56348 0.0
C852 C 0.52389 0.35218 0.52925 0.0
C853 C 0.55514 0.34606 0.57186 0.0
C854 C 0.57239 0.35153 0.61285 0.0
C855 C 0.57194 0.36073 0.6882 0.0
C856 C 0.58817 0.36626 0.7255 0.0
C857 C 0.60494 0.36255 0.68856 0.0
C858 C 0.60556 0.35334 0.61406 0.0
C859 C 0.58939 0.34786 0.57621 0.0
H860 H 0.61747 0.36686 0.71761 0.0
H861 H 0.46372 0.31964 0.31259 0.0
H862 H 0.25081 0.51467 0.34617 0.0
H863 H 0.2314 0.5136 0.46644 0.0
H864 H 0.20984 0.46179 0.38747 0.0
H865 H 0.2291 0.46288 0.26646 0.0
H866 H 0.19715 0.51308 0.37614 0.0
H867 H 0.18414 0.44643 0.56306 0.0
H868 H 0.2015 0.42495 0.64907 0.0
H869 H 0.24138 0.46644 0.69719 0.0
H870 H 0.22416 0.48825 0.61234 0.0
H871 H 0.10647 0.48425 0.39336 0.0
H872 H 0.13924 0.47799 0.40547 0.0
H873 H 0.14319 0.5178 0.59856 0.0
H874 H 0.11048 0.52407 0.58724 0.0
H875 H 0.16669 0.47614 0.58932 0.0
H876 H 0.15512 0.53958 0.47739 0.0
H877 H 0.13681 0.55931 0.38665 0.0
H878 H 0.14758 0.5231 0.18594 0.0
H879 H 0.1658 0.5031 0.27585 0.0
C880 C 0.24285 0.50246 0.35713 0.0
C881 C 0.24092 0.48912 0.29614 0.0
C882 C 0.23184 0.50181 0.42639 0.0
C883 C 0.21891 0.48784 0.4346 0.0
C884 C 0.21971 0.47271 0.38205 0.0
C885 C 0.23058 0.47343 0.31237 0.0
C886 C 0.20092 0.49252 0.46894 0.0
C887 C 0.19074 0.50542 0.42491 0.0
C888 C 0.19241 0.48208 0.53034 0.0
C889 C 0.20292 0.46893 0.58066 0.0
C890 C 0.19659 0.451 0.59212 0.0
C891 C 0.20641 0.43875 0.64067 0.0
C892 C 0.22256 0.44431 0.67837 0.0
C893 C 0.22892 0.46212 0.66763 0.0
C894 C 0.21916 0.47441 0.61908 0.0
C895 C 0.11428 0.49132 0.43966 0.0
C896 C 0.10612 0.50483 0.4885 0.0
C897 C 0.13287 0.48762 0.44701 0.0
C898 C 0.14343 0.49725 0.50375 0.0
C899 C 0.13514 0.51 0.55569 0.0
C900 C 0.11658 0.51382 0.54794 0.0
C901 C 0.16337 0.49667 0.4967 0.0
C902 C 0.17355 0.48428 0.54352 0.0
C903 C 0.17208 0.50751 0.43769 0.0
C904 C 0.16166 0.51984 0.38331 0.0
C905 C 0.1535 0.53583 0.41397 0.0
C906 C 0.14317 0.54705 0.36271 0.0
C907 C 0.14102 0.54246 0.2806 0.0
C908 C 0.14927 0.52666 0.2495 0.0
C909 C 0.1596 0.51539 0.30055 0.0
H910 H 0.13299 0.55114 0.24105 0.0
H911 H 0.23013 0.43481 0.71603 0.0
H912 H 0.97937 0.78744 0.08448 0.0
H913 H 0.98071 0.80956 0.97403 0.0
H914 H 0.03931 0.8048 0.96956 0.0
H915 H 0.03802 0.78306 0.08197 0.0
H916 H 0.01119 0.83256 0.08357 0.0
H917 H 0.03792 0.83853 0.75066 0.0
H918 H 0.03579 0.82271 0.61839 0.0
H919 H 0.98548 0.79787 0.69225 0.0
H920 H 0.987 0.8139 0.82403 0.0
H921 H 0.05185 0.9174 0.01386 0.0
H922 H 0.04722 0.88432 0.00735 0.0
H923 H 0.99664 0.89264 0.87792 0.0
H924 H 1.00149 0.92566 0.88141 0.0
H925 H 0.018 0.8633 0.81644 0.0
H926 H 0.99435 0.88651 0.07535 0.0
H927 H 0.99793 0.90438 0.20194 0.0
H928 H 0.043 0.87029 0.27289 0.0
H929 H 0.03976 0.85231 0.14638 0.0
C930 C 0.99241 0.7902 0.05603 0.0
C931 C 1.00863 0.78407 0.09208 0.0
C932 C 0.99316 0.80262 0.99188 0.0
C933 C 0.01014 0.80905 0.96483 0.0
C934 C 0.02609 0.79997 0.9896 0.0
C935 C 0.02539 0.78775 0.05465 0.0
C936 C 0.01168 0.82886 0.95297 0.0
C937 C 0.0126 0.83925 0.02491 0.0
C938 C 0.01359 0.83742 0.87644 0.0
C939 C 0.0128 0.82713 0.79842 0.0
C940 C 0.02642 0.82963 0.73897 0.0
C941 C 0.02529 0.82068 0.66383 0.0
C942 C 0.01059 0.80918 0.64719 0.0
C943 C 0.99695 0.80666 0.70555 0.0
C944 C 0.99798 0.81563 0.78071 0.0
C945 C 0.03979 0.91215 0.9839 0.0
C946 C 0.02687 0.92403 0.94945 0.0
C947 C 0.03721 0.89334 0.97988 0.0
C948 C 0.02157 0.88623 0.94238 0.0
C949 C 1.00878 0.898 0.9069 0.0
C950 C 0.01139 0.9168 0.9105 0.0
C951 C 0.01775 0.8666 0.9468 0.0
C952 C 0.01649 0.8564 0.87449 0.0
C953 C 0.01563 0.85799 0.02289 0.0
C954 C 0.01692 0.86819 0.10104 0.0
C955 C 1.00506 0.88287 0.11784 0.0
C956 C 1.00706 0.89305 0.18944 0.0
C957 C 0.02082 0.88861 0.24497 0.0
C958 C 0.03247 0.87383 0.22945 0.0
C959 C 0.03049 0.86359 0.158 0.0
H960 H 0.02231 0.89647 0.30049 0.0
H961 H 0.00972 0.80227 0.58897 0.0
H962 H 0.75995 0.01178 0.02706 0.0
H963 H 0.73968 0.01706 0.91161 0.0
H964 H 0.70336 0.97548 0.00249 0.0
H965 H 0.7244 0.96898 0.11201 0.0
H966 H 0.69125 0.98353 0.86838 0.0
H967 H 0.70726 0.02141 0.1062 0.0
H968 H 0.72896 0.03906 0.1901 0.0
H969 H 0.742 0.07259 0.98383 0.0
H970 H 0.72038 0.05505 0.89883 0.0
H971 H 0.61565 0.03624 0.0468 0.0
H972 H 0.64894 0.0328 0.03798 0.0
H973 H 0.64521 0.02916 0.77612 0.0
H974 H 0.61205 0.03296 0.78512 0.0
H975 H 0.67957 0.04772 0.9538 0.0
H976 H 0.66207 0.99009 0.73446 0.0
H977 H 0.63616 0.96948 0.70459 0.0
H978 H 0.61965 0.97223 0.95513 0.0
H979 H 0.64587 0.99218 0.98598 0.0
C980 C 0.74834 1.00285 0.01886 0.0
C981 C 0.74301 0.99078 0.08086 0.0
C982 C 0.7366 1.00602 0.95321 0.0
C983 C 0.7193 0.99777 0.95245 0.0
C984 C 0.71627 0.98264 0.00321 0.0
C985 C 0.7283 0.97896 0.06661 0.0
C986 C 0.70308 1.0078 0.9213 0.0
C987 C 0.68897 0.99774 0.88466 0.0
C988 C 0.69959 0.02618 0.94574 0.0
C989 C 0.71247 0.03683 0.99619 0.0
C990 C 0.7148 0.03254 0.07893 0.0
C991 C 0.72707 0.04249 0.12658 0.0
C992 C 0.73691 0.05688 0.0922 0.0
C993 C 0.73442 0.0614 0.01024 0.0
C994 C 0.72217 0.05147 0.96232 0.0
C995 C 0.62209 0.03537 0.98751 0.0
C996 C 0.61153 0.03436 0.91661 0.0
C997 C 0.64102 0.03349 0.98238 0.0
C998 C 0.64936 0.03054 0.90641 0.0
C999 C 0.63893 0.03134 0.83513 0.0
C1000 C 0.62009 0.0333 0.84031 0.0
C1001 C 0.66807 0.02327 0.90319 0.0
C1002 C 0.68234 0.03387 0.93321 0.0
C1003 C 0.67129 1.00496 0.87968 0.0
C1004 C 0.65595 0.99244 0.86194 0.0
C1005 C 0.65307 0.98596 0.78278 0.0
C1006 C 0.63831 0.9745 0.76581 0.0
C1007 C 0.62624 0.96959 0.82786 0.0
C1008 C 0.62901 0.97602 0.90707 0.0
C1009 C 0.64386 0.98732 0.92428 0.0
H1010 H 0.61475 0.96082 0.81458 0.0
H1011 H 0.74642 0.06456 0.12912 0.0
H1012 H 0.54169 0.71906 0.05862 0.0
H1013 H 0.53777 0.70427 0.92814 0.0
H1014 H 0.49532 0.74294 0.86584 0.0
H1015 H 0.49868 0.75729 1.0002 0.0
H1016 H 0.48218 0.71163 0.85331 0.0
H1017 H 0.53393 0.73494 0.73404 0.0
H1018 H 0.56513 0.74702 0.72139 0.0
H1019 H 0.58725 0.69396 0.77455 0.0
H1020 H 0.5563 0.68161 0.7898 0.0
H1021 H 0.48027 0.61605 0.72081 0.0
H1022 H 0.48412 0.64789 0.6766 0.0
H1023 H 0.51763 0.65827 0.88733 0.0
H1024 H 0.51398 0.62677 0.93124 0.0
H1025 H 0.52965 0.67398 0.71756 0.0
H1026 H 0.47143 0.6809 0.93791 0.0
H1027 H 0.44069 0.66826 0.9617 0.0
H1028 H 0.43252 0.66307 0.70372 0.0
H1029 H 0.46316 0.67585 0.67863 0.0
C1030 C 0.53185 0.72471 0.01626 0.0
C1031 C 0.52019 0.73899 0.04002 0.0
C1032 C 0.52981 0.71645 0.94057 0.0
C1033 C 0.5163 0.72251 0.88604 0.0
C1034 C 0.50586 0.73803 0.90657 0.0
C1035 C 0.5078 0.74624 0.98321 0.0
C1036 C 0.51063 0.71003 0.81922 0.0
C1037 C 0.49248 0.70392 0.82033 0.0
C1038 C 0.52375 0.70018 0.77312 0.0
C1039 C 0.54263 0.70729 0.76235 0.0
C1040 C 0.54542 0.72583 0.74339 0.0
C1041 C 0.5631 0.73275 0.73602 0.0
C1042 C 0.57816 0.72126 0.74707 0.0
C1043 C 0.57557 0.70283 0.76578 0.0
C1044 C 0.55793 0.69585 0.77353 0.0
C1045 C 0.48838 0.6252 0.75773 0.0
C1046 C 0.49684 0.61888 0.82948 0.0
C1047 C 0.4907 0.64328 0.73192 0.0
C1048 C 0.50126 0.65532 0.77841 0.0
C1049 C 0.50971 0.64903 0.84974 0.0
C1050 C 0.50754 0.63104 0.87504 0.0
C1051 C 0.50208 0.67509 0.76137 0.0
C1052 C 0.51924 0.68262 0.74469 0.0
C1053 C 0.48806 0.68646 0.79164 0.0
C1054 C 0.46952 0.67926 0.80648 0.0
C1055 C 0.463 0.67716 0.88637 0.0
C1056 C 0.44563 0.66995 0.90006 0.0
C1057 C 0.43466 0.66485 0.83426 0.0
C1058 C 0.44103 0.667 0.75463 0.0
C1059 C 0.45839 0.67423 0.74064 0.0
H1060 H 0.42123 0.65924 0.84499 0.0
H1061 H 0.59183 0.72663 0.74109 0.0
H1062 H 0.76789 0.51832 0.03554 0.0
H1063 H 0.78599 0.51855 0.91058 0.0
H1064 H 0.81783 0.56328 0.00528 0.0
H1065 H 0.79937 0.56356 0.1283 0.0
H1066 H 0.82281 0.55983 0.84114 0.0
H1067 H 0.82648 0.52021 0.08769 0.0
H1068 H 0.81289 0.49817 0.18383 0.0
H1069 H 0.79883 0.46283 0.98454 0.0
H1070 H 0.81245 0.48463 0.88753 0.0
H1071 H 0.91276 0.54344 0.95178 0.0
H1072 H 0.88073 0.54986 0.92443 0.0
H1073 H 0.87613 0.49882 0.79402 0.0
H1074 H 0.90839 0.49249 0.81944 0.0
H1075 H 0.8527 0.50122 0.91514 0.0
H1076 H 0.86958 0.53906 0.69899 0.0
H1077 H 0.88611 0.56259 0.62225 0.0
H1078 H 0.86474 0.60407 0.78162 0.0
H1079 H 0.84822 0.5807 0.85982 0.0
C1080 C 0.77797 0.52896 0.02736 0.0
C1081 C 0.78282 0.54045 0.09245 0.0
C1082 C 0.78832 0.52908 0.95587 0.0
C1083 C 0.80374 0.54036 0.95056 0.0
C1084 C 0.80619 0.55421 0.00871 0.0
C1085 C 0.79574 0.55426 0.07952 0.0
C1086 C 0.81999 0.53429 0.90434 0.0
C1087 C 0.82937 0.54695 0.85589 0.0
C1088 C 0.82833 0.51729 0.92274 0.0
C1089 C 0.82022 0.50411 0.9805 0.0
C1090 C 0.82043 0.50775 0.06457 0.0
C1091 C 0.81274 0.49531 0.11914 0.0
C1092 C 0.80488 0.47918 0.09024 0.0
C1093 C 0.80484 0.47538 0.00678 0.0
C1094 C 0.81257 0.48775 0.95197 0.0
C1095 C 0.90508 0.53379 0.91547 0.0
C1096 C 0.91302 0.51733 0.88887 0.0
C1097 C 0.88679 0.53756 0.8992 0.0
C1098 C 0.87613 0.52496 0.85591 0.0
C1099 C 0.88419 0.50882 0.82663 0.0
C1100 C 0.90252 0.50509 0.84245 0.0
C1101 C 0.8561 0.52717 0.85526 0.0
C1102 C 0.84603 0.51376 0.89589 0.0
C1103 C 0.84752 0.54372 0.83163 0.0
C1104 C 0.85748 0.55799 0.78498 0.0
C1105 C 0.86837 0.55315 0.7177 0.0
C1106 C 0.87778 0.5665 0.67395 0.0
C1107 C 0.87644 0.58484 0.6969 0.0
C1108 C 0.8657 0.58985 0.76368 0.0
C1109 C 0.85625 0.57653 0.80759 0.0
H1110 H 0.88375 0.59517 0.66304 0.0
H1111 H 0.7989 0.46959 0.13256 0.0
H1112 H 0.0343 0.2208 0.97211 0.0
H1113 H 0.03641 0.1927 0.88943 0.0
H1114 H 0.9806 0.17995 0.94954 0.0
H1115 H 0.97842 0.20798 0.02945 0.0
H1116 H 0.03582 0.15913 0.92844 0.0
H1117 H 0.96024 0.15122 0.8093 0.0
H1118 H 0.9359 0.17037 0.7504 0.0
H1119 H 0.97511 0.21157 0.68944 0.0
H1120 H 0.99975 0.19264 0.74704 0.0
H1121 H 0.01728 0.0658 0.8619 0.0
H1122 H 0.01694 0.09776 0.90399 0.0
H1123 H 1.00554 0.11413 0.65714 0.0
H1124 H 1.00554 0.08195 0.61461 0.0
H1125 H 0.98703 0.13506 0.74993 0.0
H1126 H 0.04942 0.11914 0.75104 0.0
H1127 H 0.07688 0.10093 0.78266 0.0
H1128 H 0.0687 0.11054 0.03813 0.0
H1129 H 0.04104 0.12863 0.00813 0.0
C1130 C 0.02235 0.21227 0.96549 0.0
C1131 C 1.00617 0.21679 0.00734 0.0
C1132 C 0.02359 0.19602 0.91887 0.0
C1133 C 1.00864 0.18394 0.91217 0.0
C1134 C 0.99231 0.18893 0.95158 0.0
C1135 C 0.99109 0.20505 0.99788 0.0
C1136 C 0.01031 0.16556 0.8699 0.0
C1137 C 0.02514 0.15402 0.88894 0.0
C1138 C 0.99676 0.1587 0.81589 0.0
C1139 C 0.98188 0.17053 0.78364 0.0
C1140 C 0.96371 0.16437 0.78347 0.0
C1141 C 0.94984 0.1752 0.75027 0.0
C1142 C 0.95393 0.19224 0.71685 0.0
C1143 C 0.97193 0.19845 0.71615 0.0
C1144 C 0.98585 0.18769 0.74934 0.0
C1145 C 0.01474 0.07613 0.8161 0.0
C1146 C 0.0116 0.07106 0.73438 0.0
C1147 C 0.01468 0.09458 0.84038 0.0
C1148 C 0.01172 0.10873 0.78382 0.0
C1149 C 1.00813 0.1037 0.70238 0.0
C1150 C 1.00812 0.08517 0.67796 0.0
C1151 C 0.01214 0.12859 0.81031 0.0
C1152 C 0.99772 0.14033 0.7886 0.0
C1153 C 0.0264 0.13591 0.85887 0.0
C1154 C 0.04308 0.12514 0.87734 0.0
C1155 C 0.05342 0.11729 0.814 0.0
C1156 C 0.06902 0.10699 0.83163 0.0
C1157 C 0.07451 0.10455 0.91236 0.0
C1158 C 0.06442 0.11244 0.97563 0.0
C1159 C 0.04879 0.12274 0.95834 0.0
H1160 H 0.0866 0.09657 0.92589 0.0
H1161 H 0.94317 0.20058 0.69118 0.0
H1162 H 0.31121 0.04064 0.00545 0.0
H1163 H 0.3411 0.04415 0.9382 0.0
H1164 H 0.34407 0.98578 0.9032 0.0
H1165 H 0.31435 0.9824 0.96868 0.0
H1166 H 0.37379 0.03294 0.98107 0.0
H1167 H 0.36741 0.97317 0.75353 0.0
H1168 H 0.34316 0.95938 0.66904 0.0
H1169 H 0.31659 0.01152 0.64888 0.0
H1170 H 0.34034 0.02552 0.73502 0.0
H1171 H 0.46447 1.00926 0.8722 0.0
H1172 H 0.43262 1.0093 0.91627 0.0
H1173 H 0.41559 0.02305 0.67263 0.0
H1174 H 0.44745 0.02185 0.62716 0.0
H1175 H 0.39169 1.00174 0.72461 0.0
H1176 H 0.41728 0.05503 0.84602 0.0
H1177 H 0.43896 0.07327 0.927 0.0
H1178 H 0.4254 0.04243 0.14069 0.0
H1179 H 0.4038 0.02384 0.06074 0.0
C1180 C 0.31799 0.02867 0.98075 0.0
C1181 C 0.31014 0.01128 0.99093 0.0
C1182 C 0.33524 0.03063 0.94322 0.0
C1183 C 0.34506 0.01526 0.91435 0.0
C1184 C 0.33688 0.99798 0.92272 0.0
C1185 C 0.31976 0.99604 0.96027 0.0
C1186 C 0.36417 0.01693 0.87996 0.0
C1187 C 0.37765 0.02616 0.92483 0.0
C1188 C 0.36942 1.00857 0.80542 0.0
C1189 C 0.35562 1.00035 0.75072 0.0
C1190 C 0.35646 0.9817 0.73052 0.0
C1191 C 0.34278 0.97384 0.68268 0.0
C1192 C 0.32846 0.9846 0.65303 0.0
C1193 C 0.32771 1.00322 0.67167 0.0
C1194 C 0.34119 0.01109 0.72047 0.0
C1195 C 0.45398 0.01228 0.82775 0.0
C1196 C 0.45874 0.01568 0.74601 0.0
C1197 C 0.43562 0.01245 0.8533 0.0
C1198 C 0.42133 0.01657 0.79865 0.0
C1199 C 0.42609 0.01977 0.71665 0.0
C1200 C 0.44445 0.01919 0.69062 0.0
C1201 C 0.40159 0.01746 0.82668 0.0
C1202 C 0.38793 1.00864 0.78065 0.0
C1203 C 0.39607 0.0268 0.89884 0.0
C1204 C 0.40904 0.03794 0.94718 0.0
C1205 C 0.41901 0.05206 0.91016 0.0
C1206 C 0.43127 0.06247 0.95589 0.0
C1207 C 0.43359 0.05898 0.03889 0.0
C1208 C 0.42361 0.0451 0.07637 0.0
C1209 C 0.41134 0.03463 0.03089 0.0
H1210 H 0.44308 0.06706 0.07418 0.0
H1211 H 0.31792 0.97849 0.61587 0.0
H1212 H 0.53382 0.30802 0.94228 0.0
H1213 H 0.53243 0.33842 0.8784 0.0
H1214 H 0.48595 0.35226 0.02756 0.0
H1215 H 0.4874 0.32196 0.09111 0.0
H1216 H 0.48182 0.36691 0.87681 0.0
H1217 H 0.52838 0.3653 0.07974 0.0
H1218 H 0.55611 0.35381 0.14774 0.0
H1219 H 0.58782 0.36611 0.935 0.0
H1220 H 0.56013 0.37742 0.8652 0.0
H1221 H 0.48738 0.46484 0.86363 0.0
H1222 H 0.48729 0.43286 0.90921 0.0
H1223 H 0.53275 0.42108 0.75104 0.0
H1224 H 0.53225 0.45278 0.702 0.0
H1225 H 0.53742 0.40502 0.90056 0.0
H1226 H 0.49013 0.40671 0.69886 0.0
H1227 H 0.46213 0.41843 0.6338 0.0
H1228 H 0.43156 0.40667 0.85051 0.0
H1229 H 0.45947 0.39511 0.91721 0.0
C1230 C 0.52293 0.31733 0.95933 0.0
C1231 C 0.5105 0.31238 0.02075 0.0
C1232 C 0.52228 0.33486 0.92359 0.0
C1233 C 0.5092 0.34795 0.94849 0.0
C1234 C 0.49618 0.34259 0.00672 0.0
C1235 C 0.49694 0.32517 0.04283 0.0
C1236 C 0.50969 0.36745 0.91802 0.0
C1237 C 0.49397 0.37523 0.88282 0.0
C1238 C 0.52551 0.37854 0.92452 0.0
C1239 C 0.54216 0.37192 0.96667 0.0
C1240 C 0.54123 0.36539 0.04711 0.0
C1241 C 0.55694 0.35894 0.08606 0.0
C1242 C 0.5737 0.35916 0.04555 0.0
C1243 C 0.5748 0.36589 0.96611 0.0
C1244 C 0.55912 0.3723 0.92682 0.0
C1245 C 0.49728 0.45541 0.83802 0.0
C1246 C 0.50969 0.46144 0.7784 0.0
C1247 C 0.49719 0.43704 0.86402 0.0
C1248 C 0.5098 0.42423 0.83265 0.0
C1249 C 0.52263 0.43044 0.77527 0.0
C1250 C 0.52233 0.44864 0.74724 0.0
C1251 C 0.50957 0.40445 0.85937 0.0
C1252 C 0.52532 0.39665 0.89412 0.0
C1253 C 0.49374 0.39339 0.85315 0.0
C1254 C 0.47692 0.40024 0.81325 0.0
C1255 C 0.47747 0.40677 0.73282 0.0
C1256 C 0.46161 0.41336 0.69562 0.0
C1257 C 0.44508 0.41334 0.73808 0.0
C1258 C 0.44438 0.4067 0.81775 0.0
C1259 C 0.46021 0.40011 0.85525 0.0
H1260 H 0.43281 0.41845 0.70919 0.0
H1261 H 0.58585 0.35418 0.0758 0.0
H1262 H 0.22416 0.49414 0.91891 0.0
H1263 H 0.19385 0.49488 0.85331 0.0
H1264 H 0.1712 0.52052 0.06739 0.0
H1265 H 0.20111 0.51983 0.1321 0.0
H1266 H 0.15057 0.49241 0.02526 0.0
H1267 H 0.17543 0.54448 0.87983 0.0
H1268 H 0.19829 0.55973 0.79318 0.0
H1269 H 0.18956 0.51996 0.60493 0.0
H1270 H 0.16681 0.50428 0.69134 0.0
H1271 H 0.06077 0.5147 0.90794 0.0
H1272 H 0.0926 0.51498 0.95083 0.0
H1273 H 0.10923 0.49789 0.71046 0.0
H1274 H 0.07723 0.499 0.66557 0.0
H1275 H 0.13397 0.51908 0.75804 0.0
H1276 H 0.10723 0.46842 0.89622 0.0
H1277 H 0.08538 0.4518 0.98283 0.0
H1278 H 0.09907 0.48618 0.1859 0.0
H1279 H 0.1208 0.50319 0.10023 0.0
C1280 C 0.2128 0.50035 0.95101 0.0
C1281 C 0.21521 0.50689 0.0311 0.0
C1282 C 0.19537 0.50071 0.91358 0.0
C1283 C 0.17991 0.50767 0.9552 0.0
C1284 C 0.18261 0.51489 0.03365 0.0
C1285 C 0.19988 0.51457 0.07063 0.0
C1286 C 0.16076 0.50669 0.9205 0.0
C1287 C 0.14695 0.49845 0.96717 0.0
C1288 C 0.15585 0.51388 0.84338 0.0
C1289 C 0.16946 0.52324 0.79171 0.0
C1290 C 0.17845 0.53895 0.82004 0.0
C1291 C 0.19138 0.54765 0.77107 0.0
C1292 C 0.19536 0.54079 0.69356 0.0
C1293 C 0.18643 0.52522 0.6649 0.0
C1294 C 0.17352 0.51645 0.71374 0.0
C1295 C 0.07116 0.51094 0.86397 0.0
C1296 C 0.06621 0.5066 0.78334 0.0
C1297 C 0.08954 0.51095 0.88891 0.0
C1298 C 0.10375 0.50591 0.83518 0.0
C1299 C 0.09883 0.5018 0.754 0.0
C1300 C 0.0804 0.50231 0.72829 0.0
C1301 C 0.12352 0.50512 0.86383 0.0
C1302 C 0.13749 0.51295 0.81602 0.0
C1303 C 0.12867 0.49732 0.93991 0.0
C1304 C 0.11552 0.48719 0.9915 0.0
C1305 C 0.10548 0.47253 0.95916 0.0
C1306 C 0.09313 0.46302 0.00813 0.0
C1307 C 0.0908 0.46796 0.08974 0.0
C1308 C 0.10085 0.48239 0.12263 0.0
C1309 C 0.1132 0.49196 0.07391 0.0
H1310 H 0.08125 0.46057 0.12754 0.0
H1311 H 0.20536 0.54755 0.6557 0.0
H1312 H 0.98162 0.80468 0.41678 0.0
H1313 H 0.98209 0.83531 0.47963 0.0
H1314 H 0.03833 0.84148 0.40852 0.0
H1315 H 0.03783 0.81104 0.34619 0.0
H1316 H 0.03293 0.85716 0.55574 0.0
H1317 H 1.00226 0.85598 0.29995 0.0
H1318 H 0.97897 0.84859 0.19784 0.0
H1319 H 0.93781 0.87398 0.34643 0.0
H1320 H 0.96091 0.88145 0.45018 0.0
H1321 H 0.0422 0.95468 0.57669 0.0
H1322 H 0.04151 0.92236 0.5364 0.0
H1323 H 0.98314 0.92181 0.57043 0.0
H1324 H 0.98386 0.95444 0.60631 0.0
H1325 H 0.98892 0.90249 0.44682 0.0
H1326 H 0.0192 0.90166 0.70757 0.0
H1327 H 0.04305 0.91006 0.80651 0.0
H1328 H 0.08424 0.88741 0.6504 0.0
H1329 H 0.06082 0.8795 0.54869 0.0
C1330 C 0.99425 0.81231 0.41711 0.0
C1331 C 0.00977 0.80514 0.37734 0.0
C1332 C 0.99447 0.83001 0.45219 0.0
C1333 C 0.01019 0.84111 0.44832 0.0
C1334 C 0.02598 0.83345 0.41294 0.0
C1335 C 0.02572 0.81589 0.3775 0.0
C1336 C 0.01007 0.86098 0.47564 0.0
C1337 C 0.02331 0.86705 0.5315 0.0
C1338 C 0.99742 0.87412 0.44545 0.0
C1339 C 0.98342 0.86925 0.38345 0.0
C1340 C 0.98827 0.85994 0.31143 0.0
C1341 C 0.97508 0.85573 0.25303 0.0
C1342 C 0.9569 0.86079 0.26565 0.0
C1343 C 0.95191 0.87007 0.33672 0.0
C1344 C 0.96507 0.87432 0.39533 0.0
C1345 C 0.02924 0.94762 0.57599 0.0
C1346 C 0.01311 0.9572 0.5956 0.0
C1347 C 0.02882 0.92895 0.55338 0.0
C1348 C 0.01229 0.919 0.5516 0.0
C1349 C 0.99617 0.92875 0.57105 0.0
C1350 C 0.99657 0.9475 0.59219 0.0
C1351 C 0.01167 0.89875 0.52812 0.0
C1352 C 0.99836 0.89259 0.47228 0.0
C1353 C 0.0242 0.88547 0.55852 0.0
C1354 C 0.03825 0.89015 0.62007 0.0
C1355 C 0.03335 0.89858 0.69398 0.0
C1356 C 0.04679 0.90324 0.75064 0.0
C1357 C 0.0651 0.8992 0.73507 0.0
C1358 C 0.07005 0.89054 0.66246 0.0
C1359 C 0.05671 0.88602 0.60512 0.0
H1360 H 0.07544 0.9028 0.77924 0.0
H1361 H 0.9467 0.85754 0.22032 0.0
H1362 H 0.72136 0.03527 0.35783 0.0
H1363 H 0.69072 0.03812 0.41883 0.0
H1364 H 0.686 0.97939 0.42126 0.0
H1365 H 0.71654 0.97666 0.36271 0.0
H1366 H 0.65807 0.02954 0.36499 0.0
H1367 H 0.65815 0.96404 0.55996 0.0
H1368 H 0.67923 0.94591 0.64513 0.0
H1369 H 0.71163 0.99369 0.68955 0.0
H1370 H 0.69072 0.0121 0.60491 0.0
H1371 H 0.56547 1.00765 0.45931 0.0
H1372 H 0.59736 1.00683 0.41589 0.0
H1373 H 0.61458 0.01628 0.66292 0.0
H1374 H 0.58256 0.0171 0.70706 0.0
H1375 H 0.63709 0.99335 0.60183 0.0
H1376 H 0.61455 0.05069 0.50329 0.0
H1377 H 0.59395 0.07134 0.42802 0.0
H1378 H 0.60757 0.04413 0.20403 0.0
H1379 H 0.62807 0.02314 0.27813 0.0
C1380 C 0.71406 0.023 0.37465 0.0
C1381 C 0.72177 1.00572 0.35797 0.0
C1382 C 0.69633 0.02461 0.40822 0.0
C1383 C 0.68577 1.00899 0.42602 0.0
C1384 C 0.69372 0.99175 0.41057 0.0
C1385 C 0.71136 0.99016 0.37736 0.0
C1386 C 0.66635 1.01051 0.45776 0.0
C1387 C 0.65355 0.0216 0.41687 0.0
C1388 C 0.66013 1.00044 0.52612 0.0
C1389 C 0.67294 0.98939 0.5757 0.0
C1390 C 0.6698 0.97065 0.58773 0.0
C1391 C 0.68172 0.96033 0.63589 0.0
C1392 C 0.69679 0.96863 0.67249 0.0
C1393 C 0.70001 0.98726 0.6608 0.0
C1394 C 0.68817 0.99763 0.61257 0.0
C1395 C 0.57596 1.00962 0.50486 0.0
C1396 C 0.57112 0.01255 0.58716 0.0
C1397 C 0.59437 1.00927 0.47958 0.0
C1398 C 0.60875 0.01195 0.53541 0.0
C1399 C 0.60396 0.01442 0.61794 0.0
C1400 C 0.58552 0.01486 0.6433 0.0
C1401 C 0.62862 0.01206 0.50818 0.0
C1402 C 0.64155 1.00126 0.54992 0.0
C1403 C 0.63498 0.0226 0.44116 0.0
C1404 C 0.62271 0.03523 0.39642 0.0
C1405 C 0.61306 0.04903 0.43807 0.0
C1406 C 0.60141 0.06081 0.3956 0.0
C1407 C 0.59942 0.05902 0.31133 0.0
C1408 C 0.60911 0.04548 0.26931 0.0
C1409 C 0.62075 0.03365 0.31152 0.0
H1410 H 0.59039 0.06815 0.27857 0.0
H1411 H 0.70594 0.96065 0.7101 0.0
H1412 H 0.49211 0.72477 0.38606 0.0
H1413 H 0.49065 0.69552 0.46071 0.0
H1414 H 0.54174 0.67898 0.3527 0.0
H1415 H 0.54328 0.708 0.27974 0.0
H1416 H 0.48852 0.66054 0.40416 0.0
H1417 H 0.56513 0.64918 0.48699 0.0
H1418 H 0.5923 0.66797 0.51394 0.0
H1419 H 0.55809 0.71306 0.58382 0.0
H1420 H 0.53076 0.69419 0.56387 0.0
H1421 H 0.50869 0.56631 0.46942 0.0
H1422 H 0.50857 0.59821 0.42412 0.0
H1423 H 0.52038 0.6159 0.66883 0.0
H1424 H 0.52007 0.584 0.71471 0.0
H1425 H 0.53955 0.63569 0.56903 0.0
H1426 H 0.47637 0.62035 0.57944 0.0
H1427 H 0.44897 0.602 0.55061 0.0
H1428 H 0.45581 0.61154 0.2945 0.0
H1429 H 0.48343 0.62973 0.32203 0.0
C1430 C 0.50326 0.71509 0.38022 0.0
C1431 C 0.51795 0.71894 0.3277 0.0
C1432 C 0.50231 0.69821 0.42202 0.0
C1433 C 0.51611 0.68482 0.41307 0.0
C1434 C 0.53097 0.68895 0.36212 0.0
C1435 C 0.53188 0.70567 0.32044 0.0
C1436 C 0.51497 0.66638 0.45457 0.0
C1437 C 0.49971 0.65518 0.44025 0.0
C1438 C 0.52937 0.65921 0.50317 0.0
C1439 C 0.5458 0.67027 0.52261 0.0
C1440 C 0.56337 0.66299 0.50975 0.0
C1441 C 0.57883 0.67364 0.52431 0.0
C1442 C 0.57693 0.69169 0.55096 0.0
C1443 C 0.55956 0.69903 0.56409 0.0
C1444 C 0.54408 0.68831 0.55172 0.0
C1445 C 0.51118 0.57697 0.51385 0.0
C1446 C 0.51421 0.57244 0.59614 0.0
C1447 C 0.51098 0.59534 0.48788 0.0
C1448 C 0.51395 0.60981 0.54313 0.0
C1449 C 0.51761 0.60523 0.62484 0.0
C1450 C 0.51744 0.58688 0.65117 0.0
C1451 C 0.51349 0.62958 0.51549 0.0
C1452 C 0.52837 0.64106 0.53295 0.0
C1453 C 0.49877 0.63703 0.46981 0.0
C1454 C 0.48206 0.62627 0.45293 0.0
C1455 C 0.4721 0.61843 0.51707 0.0
C1456 C 0.45652 0.60807 0.50093 0.0
C1457 C 0.45067 0.60556 0.42073 0.0
C1458 C 0.46037 0.61347 0.35659 0.0
C1459 C 0.47598 0.62383 0.37248 0.0
H1460 H 0.43862 0.59752 0.40831 0.0
H1461 H 0.5889 0.69999 0.56134 0.0
H1462 H 0.80132 0.4957 0.4046 0.0
H1463 H 0.83128 0.49197 0.47181 0.0
H1464 H 0.8458 0.54675 0.40203 0.0
H1465 H 0.81605 0.55071 0.33796 0.0
H1466 H 0.87251 0.52021 0.35776 0.0
H1467 H 0.83645 0.53772 0.59318 0.0
H1468 H 0.81046 0.53327 0.68627 0.0
H1469 H 0.83128 0.48042 0.75249 0.0
H1470 H 0.85725 0.48442 0.65857 0.0
H1471 H 0.95758 0.53617 0.54031 0.0
H1472 H 0.92594 0.53742 0.49457 0.0
H1473 H 0.91252 0.49305 0.65648 0.0
H1474 H 0.94395 0.49312 0.70809 0.0
H1475 H 0.88446 0.5103 0.65122 0.0
H1476 H 0.91955 0.49059 0.42564 0.0
H1477 H 0.9438 0.49037 0.32142 0.0
H1478 H 0.92416 0.54154 0.22755 0.0
H1479 H 0.89995 0.5422 0.33198 0.0
C1480 C 0.8107 0.5071 0.40557 0.0
C1481 C 0.80614 0.52348 0.3651 0.0
C1482 C 0.82796 0.50491 0.44339 0.0
C1483 C 0.8411 0.519 0.44131 0.0
C1484 C 0.83618 0.53554 0.40394 0.0
C1485 C 0.81902 0.5378 0.36741 0.0
C1486 C 0.86016 0.51669 0.47522 0.0
C1487 C 0.87513 0.51827 0.42218 0.0
C1488 C 0.86376 0.5133 0.55862 0.0
C1489 C 0.84862 0.51123 0.61778 0.0
C1490 C 0.83539 0.52506 0.62693 0.0
C1491 C 0.82065 0.52262 0.67977 0.0
C1492 C 0.81909 0.50648 0.72443 0.0
C1493 C 0.83241 0.49285 0.71725 0.0
C1494 C 0.84716 0.49521 0.66429 0.0
C1495 C 0.94788 0.52671 0.56654 0.0
C1496 C 0.95351 0.51439 0.62732 0.0
C1497 C 0.92965 0.52723 0.53934 0.0
C1498 C 0.9165 0.51479 0.56864 0.0
C1499 C 0.92208 0.50277 0.6313 0.0
C1500 C 0.94021 0.50274 0.66086 0.0
C1501 C 0.89715 0.51445 0.5342 0.0
C1502 C 0.88205 0.51224 0.58682 0.0
C1503 C 0.89337 0.51675 0.44966 0.0
C1504 C 0.90804 0.51652 0.38721 0.0
C1505 C 0.92049 0.50187 0.38319 0.0
C1506 C 0.93422 0.50166 0.32401 0.0
C1507 C 0.93554 0.51595 0.26803 0.0
C1508 C 0.92313 0.53049 0.27104 0.0
C1509 C 0.9094 0.53078 0.33019 0.0
H1510 H 0.94616 0.51575 0.2222 0.0
H1511 H 0.80764 0.50462 0.76515 0.0
loop_
_geom_bond_atom_site_label_1
_geom_bond_atom_site_label_2
_geom_bond_distance
_geom_bond_site_symmetry_2
_ccdc_geom_bond_type
H0 C1 0.949 . S
C1 H0 0.949 . S
C1 C2 1.395 . S
C1 C3 1.391 . S
C2 C1 1.395 . S
C2 C5 1.390 . S
C3 C1 1.391 . S
C3 C7 1.387 . S
C3 C8 1.491 . S
H4 C5 0.950 . S
C5 C2 1.390 . S
C5 H4 0.950 . S
C5 C6 1.378 . S
C6 C5 1.378 . S
C6 C7 1.409 . S
C7 C3 1.387 . S
C7 C6 1.409 . S
C7 H9 0.951 . S
C8 C3 1.491 . S
C8 C10 1.382 . S
C8 C12 1.404 . S
H9 C7 0.951 . S
C10 C8 1.382 . S
C10 C11 1.390 . S
C10 H15 0.949 . S
C11 C10 1.390 . S
C11 C16 1.399 . S
C12 C8 1.404 . S
C12 H13 0.950 . S
C12 C14 1.375 . S
H13 C12 0.950 . S
C14 C12 1.375 . S
C14 C16 1.382 . S
C14 H18 0.950 . S
H15 C10 0.949 . S
C16 C11 1.399 . S
C16 C14 1.382 . S
C16 H17 0.952 . S
H17 C16 0.952 . S
H18 C14 0.950 . S
H19 C20 0.949 . S
C20 H19 0.949 . S
C20 C21 1.396 . S
C20 C22 1.391 . S
C21 C20 1.396 . S
C21 C24 1.387 1_655 S
C22 C20 1.391 . S
C22 C26 1.387 . S
C22 C27 1.491 . S
H23 C24 0.961 . S
C24 C21 1.387 1_455 S
C24 H23 0.961 . S
C24 C25 1.374 1_455 S
C25 C24 1.374 1_655 S
C25 C26 1.413 . S
C26 C22 1.387 . S
C26 C25 1.413 . S
C26 H28 0.951 . S
C27 C22 1.491 . S
C27 C29 1.409 . S
C27 C31 1.404 . S
H28 C26 0.951 . S
C29 C27 1.409 . S
C29 C30 1.404 . S
C29 H34 0.910 1_655 S
C30 C29 1.404 . S
C30 C35 1.399 . S
C31 C27 1.404 . S
C31 H32 0.950 . S
C31 C33 1.375 . S
H32 C31 0.950 . S
C33 C31 1.375 . S
C33 C35 1.382 . S
C33 H37 0.950 . S
H34 C29 0.910 1_455 S
C35 C30 1.399 . S
C35 C33 1.382 . S
C35 H36 0.952 . S
H36 C35 0.952 . S
H37 C33 0.950 . S
H38 C39 0.949 . S
C39 H38 0.949 . S
C39 C40 1.397 . S
C39 C41 1.391 . S
C40 C39 1.397 . S
C40 C43 1.387 1_565 S
C41 C39 1.391 . S
C41 C45 1.387 . S
C41 C46 1.491 . S
H42 C43 0.959 . S
C43 C40 1.387 1_545 S
C43 H42 0.959 . S
C43 C44 1.374 1_545 S
C44 C43 1.374 1_565 S
C44 C45 1.415 . S
C45 C41 1.387 . S
C45 C44 1.415 . S
C45 H47 0.951 . S
C46 C41 1.491 . S
C46 C48 1.382 . S
C46 C50 1.404 . S
H47 C45 0.951 . S
C48 C46 1.382 . S
C48 C49 1.390 . S
C48 H53 0.949 1_565 S
C49 C48 1.390 . S
C49 C54 1.399 . S
C50 C46 1.404 . S
C50 H51 0.950 . S
C50 C52 1.375 . S
H51 C50 0.950 . S
C52 C50 1.375 . S
C52 C54 1.382 . S
C52 H56 0.950 . S
H53 C48 0.949 1_545 S
C54 C49 1.399 . S
C54 C52 1.382 . S
C54 H55 0.952 . S
H55 C54 0.952 . S
H56 C52 0.950 . S
H57 C58 0.949 . S
C58 H57 0.949 . S
C58 C59 1.395 . S
C58 C60 1.391 . S
C59 C58 1.395 . S
C59 C62 1.390 . S
C60 C58 1.391 . S
C60 C64 1.387 . S
C60 C65 1.491 . S
H61 C62 0.950 . S
C62 C59 1.390 . S
C62 H61 0.950 . S
C62 C63 1.378 . S
C63 C62 1.378 . S
C63 C64 1.409 . S
C64 C60 1.387 . S
C64 C63 1.409 . S
C64 H66 0.951 . S
C65 C60 1.491 . S
C65 C67 1.382 . S
C65 C69 1.404 . S
H66 C64 0.951 . S
C67 C65 1.382 . S
C67 C68 1.390 . S
C67 H72 0.949 . S
C68 C67 1.390 . S
C68 C73 1.399 . S
C69 C65 1.404 . S
C69 H70 0.950 . S
C69 C71 1.375 . S
H70 C69 0.950 . S
C71 C69 1.375 . S
C71 C73 1.382 . S
C71 H75 0.950 . S
H72 C67 0.949 . S
C73 C68 1.399 . S
C73 C71 1.382 . S
C73 H74 0.952 . S
H74 C73 0.952 . S
H75 C71 0.950 . S
H76 C77 0.949 . S
C77 H76 0.949 . S
C77 C78 1.395 . S
C77 C79 1.391 1_554 S
C78 C77 1.395 . S
C78 C81 1.390 1_554 S
C79 C77 1.391 1_556 S
C79 C83 1.387 . S
C79 C84 1.491 . S
H80 C81 0.950 . S
C81 C78 1.390 1_556 S
C81 H80 0.950 . S
C81 C82 1.378 . S
C82 C81 1.378 . S
C82 C83 1.409 . S
C83 C79 1.387 . S
C83 C82 1.409 . S
C83 H85 0.951 . S
C84 C79 1.491 . S
C84 C86 1.382 1_556 S
C84 C88 1.404 . S
H85 C83 0.951 . S
C86 C84 1.382 1_554 S
C86 C87 1.390 . S
C86 H91 0.949 . S
C87 C86 1.390 . S
C87 C92 1.399 1_554 S
C88 C84 1.404 . S
C88 H89 0.950 . S
C88 C90 1.375 . S
H89 C88 0.950 . S
C90 C88 1.375 . S
C90 C92 1.382 . S
C90 H94 0.950 . S
H91 C86 0.949 . S
C92 C87 1.399 1_556 S
C92 C90 1.382 . S
C92 H93 0.952 . S
H93 C92 0.952 . S
H94 C90 0.950 . S
H95 C96 0.949 . S
C96 H95 0.949 . S
C96 C97 1.395 . S
C96 C98 1.391 1_554 S
C97 C96 1.395 . S
C97 C100 1.390 1_554 S
C98 C96 1.391 1_556 S
C98 C102 1.387 . S
C98 C103 1.491 1_455 S
H99 C100 0.950 . S
C100 C97 1.390 1_556 S
C100 H99 0.950 . S
C100 C101 1.378 . S
C101 C100 1.378 . S
C101 C102 1.409 . S
C102 C98 1.387 . S
C102 C101 1.409 . S
C102 H104 0.954 . S
C103 C98 1.491 1_655 S
C103 C105 1.382 1_656 S
C103 C107 1.404 . S
H104 C102 0.954 . S
C105 C103 1.382 1_454 S
C105 C106 1.390 . S
C105 H110 0.949 . S
C106 C105 1.390 . S
C106 C111 1.397 1_454 S
C107 C103 1.404 . S
C107 H108 0.950 . S
C107 C109 1.375 . S
H108 C107 0.950 . S
C109 C107 1.375 . S
C109 C111 1.382 . S
C109 H113 0.950 . S
H110 C105 0.949 . S
C111 C106 1.397 1_656 S
C111 C109 1.382 . S
C111 H112 0.952 . S
H112 C111 0.952 . S
H113 C109 0.950 . S
H114 C115 0.949 . S
C115 H114 0.949 . S
C115 C116 1.395 . S
C115 C117 1.390 1_554 S
C116 C115 1.395 . S
C116 C119 1.390 1_554 S
C117 C115 1.390 1_556 S
C117 C121 1.387 . S
C117 C122 1.492 1_545 S
H118 C119 0.950 . S
C119 C116 1.390 1_556 S
C119 H118 0.950 . S
C119 C120 1.378 . S
C120 C119 1.378 . S
C120 C121 1.409 . S
C121 C117 1.387 . S
C121 C120 1.409 . S
C121 H123 0.953 . S
C122 C117 1.492 1_565 S
C122 C124 1.382 1_566 S
C122 C126 1.404 . S
H123 C121 0.953 . S
C124 C122 1.382 1_544 S
C124 C125 1.389 . S
C124 H129 0.949 . S
C125 C124 1.389 . S
C125 C130 1.400 1_544 S
C126 C122 1.404 . S
C126 H127 0.950 . S
C126 C128 1.375 . S
H127 C126 0.950 . S
C128 C126 1.375 . S
C128 C130 1.382 . S
C128 H132 0.950 . S
H129 C124 0.949 . S
C130 C125 1.400 1_566 S
C130 C128 1.382 . S
C130 H131 0.952 . S
H131 C130 0.952 . S
H132 C128 0.950 . S
H133 C134 0.949 . S
C134 H133 0.949 . S
C134 C135 1.395 . S
C134 C136 1.391 1_554 S
C135 C134 1.395 . S
C135 C138 1.390 1_554 S
C136 C134 1.391 1_556 S
C136 C140 1.387 . S
C136 C141 1.491 . S
H137 C138 0.950 . S
C138 C135 1.390 1_556 S
C138 H137 0.950 . S
C138 C139 1.378 . S
C139 C138 1.378 . S
C139 C140 1.409 . S
C140 C136 1.387 . S
C140 C139 1.409 . S
C140 H142 0.951 . S
C141 C136 1.491 . S
C141 C143 1.382 1_556 S
C141 C145 1.404 . S
H142 C140 0.951 . S
C143 C141 1.382 1_554 S
C143 C144 1.390 . S
C143 H148 0.949 . S
C144 C143 1.390 . S
C144 C149 1.399 1_554 S
C145 C141 1.404 . S
C145 H146 0.950 . S
C145 C147 1.375 . S
H146 C145 0.950 . S
C147 C145 1.375 . S
C147 C149 1.382 . S
C147 H151 0.950 . S
H148 C143 0.949 . S
C149 C144 1.399 1_556 S
C149 C147 1.382 . S
C149 H150 0.952 . S
H150 C149 0.952 . S
H151 C147 0.950 . S
La152 C154 2.928 . S
La152 O172 2.521 . S
La152 O173 2.646 . S
La152 O174 2.554 . S
La152 O175 2.757 1_565 S
La152 O176 2.470 . S
La152 O181 2.482 1_455 S
La152 O183 2.503 1_565 S
La153 C163 2.928 . S
La153 O175 2.482 1_655 S
La153 O177 2.503 1_545 S
La153 O178 2.521 . S
La153 O179 2.628 1_655 S
La153 O180 2.554 . S
La153 O181 2.757 1_545 S
La153 O182 2.470 . S
C154 La152 2.928 . S
C154 C155 1.503 . S
C154 O172 1.261 . S
C154 O173 1.284 . S
C155 C154 1.503 . S
C155 C156 1.394 . S
C155 C160 1.373 . S
C156 C155 1.394 . S
C156 C157 1.380 . S
C156 H184 0.930 . S
C157 C156 1.380 . S
C157 C158 1.376 . S
C157 H185 0.930 . S
C158 C157 1.376 . S
C158 C159 1.370 . S
C159 C158 1.370 . S
C159 C160 1.396 . S
C159 H186 0.929 1_455 S
C160 C155 1.373 . S
C160 C159 1.396 . S
C160 H187 0.929 1_455 S
C161 O174 1.240 1_545 S
C161 O175 1.289 . S
C162 O176 1.258 1_655 S
C162 O177 1.256 . S
C163 La153 2.928 . S
C163 C164 1.503 . S
C163 O178 1.261 . S
C163 O179 1.243 1_655 S
C164 C163 1.503 . S
C164 C165 1.394 . S
C164 C169 1.373 1_655 S
C165 C164 1.394 . S
C165 C166 1.380 . S
C165 H188 0.930 . S
C166 C165 1.380 . S
C166 C167 1.376 . S
C166 H189 0.930 . S
C167 C166 1.376 . S
C167 C168 1.382 . S
C168 C167 1.382 . S
C168 C169 1.394 1_655 S
C168 H190 0.918 1_655 S
C169 C164 1.373 1_455 S
C169 C168 1.394 1_455 S
C169 H191 0.929 . S
C170 O180 1.240 . S
C170 O181 1.289 1_545 S
C171 O182 1.258 1_455 S
C171 O183 1.256 . S
O172 La152 2.521 . S
O172 C154 1.261 . S
O173 La152 2.646 . S
O173 C154 1.284 . S
O174 La152 2.554 . S
O174 C161 1.240 1_565 S
O175 La152 2.757 1_545 S
O175 La153 2.482 1_455 S
O175 C161 1.289 . S
O176 La152 2.470 . S
O176 C162 1.258 1_455 S
O177 La153 2.503 1_565 S
O177 C162 1.256 . S
O178 La153 2.521 . S
O178 C163 1.261 . S
O179 La153 2.628 1_455 S
O179 C163 1.243 1_455 S
O180 La153 2.554 . S
O180 C170 1.240 . S
O181 La152 2.482 1_655 S
O181 La153 2.757 1_565 S
O181 C170 1.289 1_565 S
O182 La153 2.470 . S
O182 C171 1.258 1_655 S
O183 La152 2.503 1_545 S
O183 C171 1.256 . S
H184 C156 0.930 . S
H185 C157 0.930 . S
H186 C159 0.929 1_655 S
H187 C160 0.929 1_655 S
H188 C165 0.930 . S
H189 C166 0.930 . S
H190 C168 0.918 1_455 S
H191 C169 0.929 . S
La192 C194 2.928 . S
La192 O212 2.521 . S
La192 O213 2.644 . S
La192 O214 2.554 . S
La192 O215 2.757 . S
La192 O216 2.470 . S
La192 O221 2.482 1_545 S
La192 O223 2.503 . S
La193 C203 2.928 . S
La193 O215 2.482 1_565 S
La193 O217 2.503 . S
La193 O218 2.521 . S
La193 O219 2.628 1_565 S
La193 O220 2.554 . S
La193 O221 2.757 . S
La193 O222 2.470 . S
C194 La192 2.928 . S
C194 C195 1.503 . S
C194 O212 1.261 . S
C194 O213 1.278 . S
C195 C194 1.503 . S
C195 C196 1.394 . S
C195 C200 1.373 . S
C196 C195 1.394 . S
C196 C197 1.380 . S
C196 H224 0.930 . S
C197 C196 1.380 . S
C197 C198 1.376 . S
C197 H225 0.930 . S
C198 C197 1.376 . S
C198 C199 1.370 . S
C199 C198 1.370 . S
C199 C200 1.396 . S
C199 H226 0.929 1_545 S
C200 C195 1.373 . S
C200 C199 1.396 . S
C200 H227 0.929 1_545 S
C201 O214 1.240 . S
C201 O215 1.289 . S
C202 O216 1.258 1_565 S
C202 O217 1.256 . S
C203 La193 2.928 . S
C203 C204 1.503 . S
C203 O218 1.261 . S
C203 O219 1.243 1_565 S
C204 C203 1.503 . S
C204 C205 1.394 . S
C204 C209 1.373 1_565 S
C205 C204 1.394 . S
C205 C206 1.380 . S
C205 H228 0.930 . S
C206 C205 1.380 . S
C206 C207 1.376 . S
C206 H229 0.930 . S
C207 C206 1.376 . S
C207 C208 1.386 . S
C208 C207 1.386 . S
C208 C209 1.394 1_565 S
C208 H230 0.914 1_565 S
C209 C204 1.373 1_545 S
C209 C208 1.394 1_545 S
C209 H231 0.929 . S
C210 O220 1.240 . S
C210 O221 1.289 . S
C211 O222 1.258 1_545 S
C211 O223 1.256 . S
O212 La192 2.521 . S
O212 C194 1.261 . S
O213 La192 2.644 . S
O213 C194 1.278 . S
O214 La192 2.554 . S
O214 C201 1.240 . S
O215 La192 2.757 . S
O215 La193 2.482 1_545 S
O215 C201 1.289 . S
O216 La192 2.470 . S
O216 C202 1.258 1_545 S
O217 La193 2.503 . S
O217 C202 1.256 . S
O218 La193 2.521 . S
O218 C203 1.261 . S
O219 La193 2.628 1_545 S
O219 C203 1.243 1_545 S
O220 La193 2.554 . S
O220 C210 1.240 . S
O221 La192 2.482 1_565 S
O221 La193 2.757 . S
O221 C210 1.289 . S
O222 La193 2.470 . S
O222 C211 1.258 1_565 S
O223 La192 2.503 . S
O223 C211 1.256 . S
H224 C196 0.930 . S
H225 C197 0.930 . S
H226 C199 0.929 1_565 S
H227 C200 0.929 1_565 S
H228 C205 0.930 . S
H229 C206 0.930 . S
H230 C208 0.914 1_545 S
H231 C209 0.929 . S
La232 C234 2.928 . S
La232 O252 2.521 . S
La232 O253 2.628 . S
La232 O254 2.554 . S
La232 O255 2.757 . S
La232 O256 2.470 . S
La232 O261 2.482 . S
La232 O263 2.503 . S
La233 C243 2.928 . S
La233 O255 2.482 . S
La233 O257 2.503 . S
La233 O258 2.521 . S
La233 O259 2.628 . S
La233 O260 2.554 . S
La233 O261 2.757 . S
La233 O262 2.470 . S
C234 La232 2.928 . S
C234 C235 1.503 . S
C234 O252 1.261 . S
C234 O253 1.243 . S
C235 C234 1.503 . S
C235 C236 1.394 . S
C235 C240 1.373 . S
C236 C235 1.394 . S
C236 C237 1.380 . S
C236 H264 0.930 . S
C237 C236 1.380 . S
C237 C238 1.376 . S
C237 H265 0.930 . S
C238 C237 1.376 . S
C238 C239 1.370 . S
C239 C238 1.370 . S
C239 C240 1.396 . S
C239 H266 0.929 . S
C240 C235 1.373 . S
C240 C239 1.396 . S
C240 H267 0.929 . S
C241 O254 1.240 . S
C241 O255 1.289 . S
C242 O256 1.258 . S
C242 O257 1.256 . S
C243 La233 2.928 . S
C243 C244 1.503 . S
C243 O258 1.261 . S
C243 O259 1.243 . S
C244 C243 1.503 . S
C244 C245 1.394 . S
C244 C249 1.373 . S
C245 C244 1.394 . S
C245 C246 1.380 . S
C245 H268 0.930 . S
C246 C245 1.380 . S
C246 C247 1.376 . S
C246 H269 0.930 . S
C247 C246 1.376 . S
C247 C248 1.370 . S
C248 C247 1.370 . S
C248 C249 1.396 . S
C248 H270 0.929 . S
C249 C244 1.373 . S
C249 C248 1.396 . S
C249 H271 0.929 . S
C250 O260 1.240 . S
C250 O261 1.289 . S
C251 O262 1.258 . S
C251 O263 1.256 . S
O252 La232 2.521 . S
O252 C234 1.261 . S
O253 La232 2.628 . S
O253 C234 1.243 . S
O254 La232 2.554 . S
O254 C241 1.240 . S
O255 La232 2.757 . S
O255 La233 2.482 . S
O255 C241 1.289 . S
O256 La232 2.470 . S
O256 C242 1.258 . S
O257 La233 2.503 . S
O257 C242 1.256 . S
O258 La233 2.521 . S
O258 C243 1.261 . S
O259 La233 2.628 . S
O259 C243 1.243 . S
O260 La233 2.554 . S
O260 C250 1.240 . S
O261 La232 2.482 . S
O261 La233 2.757 . S
O261 C250 1.289 . S
O262 La233 2.470 . S
O262 C251 1.258 . S
O263 La232 2.503 . S
O263 C251 1.256 . S
H264 C236 0.930 . S
H265 C237 0.930 . S
H266 C239 0.929 . S
H267 C240 0.929 . S
H268 C245 0.930 . S
H269 C246 0.930 . S
H270 C248 0.929 . S
H271 C249 0.929 . S
La272 C274 2.928 . S
La272 O292 2.521 . S
La272 O293 2.628 . S
La272 O294 2.554 . S
La272 O295 2.757 1_655 S
La272 O296 2.470 . S
La272 O301 2.482 . S
La272 O303 2.503 1_655 S
La273 C283 2.928 . S
La273 O295 2.482 . S
La273 O297 2.503 1_455 S
La273 O298 2.521 . S
La273 O299 2.628 . S
La273 O300 2.554 . S
La273 O301 2.757 1_455 S
La273 O302 2.470 . S
C274 La272 2.928 . S
C274 C275 1.503 . S
C274 O292 1.261 . S
C274 O293 1.243 . S
C275 C274 1.503 . S
C275 C276 1.394 . S
C275 C280 1.373 . S
C276 C275 1.394 . S
C276 C277 1.380 . S
C276 H304 0.930 . S
C277 C276 1.380 . S
C277 C278 1.376 . S
C277 H305 0.930 . S
C278 C277 1.376 . S
C278 C279 1.370 . S
C279 C278 1.370 . S
C279 C280 1.396 . S
C279 H306 0.929 . S
C280 C275 1.373 . S
C280 C279 1.396 . S
C280 H307 0.929 . S
C281 O294 1.240 1_455 S
C281 O295 1.289 . S
C282 O296 1.258 . S
C282 O297 1.256 . S
C283 La273 2.928 . S
C283 C284 1.503 . S
C283 O298 1.261 . S
C283 O299 1.243 . S
C284 C283 1.503 . S
C284 C285 1.394 . S
C284 C289 1.373 . S
C285 C284 1.394 . S
C285 C286 1.380 . S
C285 H308 0.930 . S
C286 C285 1.380 . S
C286 C287 1.376 . S
C286 H309 0.930 . S
C287 C286 1.376 . S
C287 C288 1.370 . S
C288 C287 1.370 . S
C288 C289 1.396 . S
C288 H310 0.929 . S
C289 C284 1.373 . S
C289 C288 1.396 . S
C289 H311 0.929 . S
C290 O300 1.240 . S
C290 O301 1.289 1_455 S
C291 O302 1.258 . S
C291 O303 1.256 . S
O292 La272 2.521 . S
O292 C274 1.261 . S
O293 La272 2.628 . S
O293 C274 1.243 . S
O294 La272 2.554 . S
O294 C281 1.240 1_655 S
O295 La272 2.757 1_455 S
O295 La273 2.482 . S
O295 C281 1.289 . S
O296 La272 2.470 . S
O296 C282 1.258 . S
O297 La273 2.503 1_655 S
O297 C282 1.256 . S
O298 La273 2.521 . S
O298 C283 1.261 . S
O299 La273 2.628 . S
O299 C283 1.243 . S
O300 La273 2.554 . S
O300 C290 1.240 . S
O301 La272 2.482 . S
O301 La273 2.757 1_655 S
O301 C290 1.289 1_655 S
O302 La273 2.470 . S
O302 C291 1.258 . S
O303 La272 2.503 1_455 S
O303 C291 1.256 . S
H304 C276 0.930 . S
H305 C277 0.930 . S
H306 C279 0.929 . S
H307 C280 0.929 . S
H308 C285 0.930 . S
H309 C286 0.930 . S
H310 C288 0.929 . S
H311 C289 0.929 . S
H312 C330 0.951 . S
H313 C332 0.951 . S
H314 C334 0.950 . S
H315 C335 0.950 . S
H316 C337 0.950 . S
H317 C340 0.950 . S
H318 C341 0.950 . S
H319 C343 0.950 . S
H320 C344 0.950 . S
H321 C345 0.951 . S
H322 C347 0.951 . S
H323 C349 0.950 . S
H324 C350 0.950 . S
H325 C352 0.950 . S
H326 C355 0.950 . S
H327 C356 0.950 . S
H328 C358 0.950 . S
H329 C359 0.950 . S
C330 H312 0.951 . S
C330 C331 1.366 . S
C330 C332 1.388 . S
C331 C330 1.366 . S
C331 C335 1.385 . S
C332 H313 0.951 . S
C332 C330 1.388 . S
C332 C333 1.366 . S
C333 C332 1.366 . S
C333 C334 1.414 . S
C333 C336 1.499 . S
C334 H314 0.950 . S
C334 C333 1.414 . S
C334 C335 1.374 . S
C335 H315 0.950 . S
C335 C331 1.385 . S
C335 C334 1.374 . S
C336 C333 1.499 . S
C336 C337 1.373 1_545 S
C336 C338 1.389 . S
C337 H316 0.950 . S
C337 C336 1.373 1_565 S
C337 C353 1.377 . S
C338 C336 1.389 . S
C338 C339 1.524 . S
C338 C352 1.377 . S
C339 C338 1.524 . S
C339 C340 1.397 . S
C339 C344 1.363 . S
C340 H317 0.950 . S
C340 C339 1.397 . S
C340 C341 1.334 . S
C341 H318 0.950 . S
C341 C340 1.334 . S
C341 C342 1.287 . S
C342 C341 1.287 . S
C342 C343 1.524 . S
C342 H361 0.913 . S
C343 H319 0.950 . S
C343 C342 1.524 . S
C343 C344 1.415 . S
C344 H320 0.950 . S
C344 C339 1.363 . S
C344 C343 1.415 . S
C345 H321 0.951 . S
C345 C346 1.366 . S
C345 C347 1.388 . S
C346 C345 1.366 . S
C346 C350 1.385 . S
C347 H322 0.951 . S
C347 C345 1.388 . S
C347 C348 1.366 . S
C348 C347 1.366 . S
C348 C349 1.414 . S
C348 C351 1.499 . S
C349 H323 0.950 . S
C349 C348 1.414 . S
C349 C350 1.374 . S
C350 H324 0.950 . S
C350 C346 1.385 . S
C350 C349 1.374 . S
C351 C348 1.499 . S
C351 C352 1.373 . S
C351 C353 1.389 1_545 S
C352 H325 0.950 . S
C352 C338 1.377 . S
C352 C351 1.373 . S
C353 C337 1.377 . S
C353 C351 1.389 1_565 S
C353 C354 1.524 . S
C354 C353 1.524 . S
C354 C355 1.397 . S
C354 C359 1.363 . S
C355 H326 0.950 . S
C355 C354 1.397 . S
C355 C356 1.334 . S
C356 H327 0.950 . S
C356 C355 1.334 . S
C356 C357 1.287 . S
C357 C356 1.287 . S
C357 C358 1.524 . S
C357 H360 0.999 . S
C358 H328 0.950 . S
C358 C357 1.524 . S
C358 C359 1.415 . S
C359 H329 0.950 . S
C359 C354 1.363 . S
C359 C358 1.415 . S
H360 C357 0.999 . S
H361 C342 0.913 . S
H362 C380 0.951 . S
H363 C382 0.951 . S
H364 C384 0.950 . S
H365 C385 0.950 . S
H366 C387 0.950 . S
H367 C390 0.950 . S
H368 C391 0.950 . S
H369 C393 0.950 . S
H370 C394 0.950 . S
H371 C395 0.951 . S
H372 C397 0.951 . S
H373 C399 0.950 . S
H374 C400 0.950 . S
H375 C402 0.950 . S
H376 C405 0.950 . S
H377 C406 0.950 . S
H378 C408 0.950 . S
H379 C409 0.950 . S
C380 H362 0.951 . S
C380 C381 1.366 . S
C380 C382 1.388 . S
C381 C380 1.366 . S
C381 C385 1.385 . S
C382 H363 0.951 . S
C382 C380 1.388 . S
C382 C383 1.366 . S
C383 C382 1.366 . S
C383 C384 1.414 . S
C383 C386 1.499 . S
C384 H364 0.950 . S
C384 C383 1.414 . S
C384 C385 1.374 . S
C385 H365 0.950 . S
C385 C381 1.385 . S
C385 C384 1.374 . S
C386 C383 1.499 . S
C386 C387 1.373 . S
C386 C388 1.389 . S
C387 H366 0.950 . S
C387 C386 1.373 . S
C387 C403 1.377 . S
C388 C386 1.389 . S
C388 C389 1.524 . S
C388 C402 1.377 . S
C389 C388 1.524 . S
C389 C390 1.397 . S
C389 C394 1.363 . S
C390 H367 0.950 . S
C390 C389 1.397 . S
C390 C391 1.334 . S
C391 H368 0.950 . S
C391 C390 1.334 . S
C391 C392 1.287 . S
C392 C391 1.287 . S
C392 C393 1.524 . S
C392 H411 0.913 . S
C393 H369 0.950 . S
C393 C392 1.524 . S
C393 C394 1.415 . S
C394 H370 0.950 . S
C394 C389 1.363 . S
C394 C393 1.415 . S
C395 H371 0.951 . S
C395 C396 1.366 . S
C395 C397 1.388 . S
C396 C395 1.366 . S
C396 C400 1.385 . S
C397 H372 0.951 . S
C397 C395 1.388 . S
C397 C398 1.366 . S
C398 C397 1.366 . S
C398 C399 1.414 . S
C398 C401 1.499 . S
C399 H373 0.950 . S
C399 C398 1.414 . S
C399 C400 1.374 . S
C400 H374 0.950 . S
C400 C396 1.385 . S
C400 C399 1.374 . S
C401 C398 1.499 . S
C401 C402 1.373 . S
C401 C403 1.389 . S
C402 H375 0.950 . S
C402 C388 1.377 . S
C402 C401 1.373 . S
C403 C387 1.377 . S
C403 C401 1.389 . S
C403 C404 1.524 . S
C404 C403 1.524 . S
C404 C405 1.397 . S
C404 C409 1.363 . S
C405 H376 0.950 . S
C405 C404 1.397 . S
C405 C406 1.334 . S
C406 H377 0.950 . S
C406 C405 1.334 . S
C406 C407 1.287 . S
C407 C406 1.287 . S
C407 C408 1.524 . S
C407 H410 0.999 . S
C408 H378 0.950 . S
C408 C407 1.524 . S
C408 C409 1.415 . S
C409 H379 0.950 . S
C409 C404 1.363 . S
C409 C408 1.415 . S
H410 C407 0.999 . S
H411 C392 0.913 . S
H412 C430 0.951 . S
H413 C432 0.951 . S
H414 C434 0.950 . S
H415 C435 0.950 . S
H416 C437 0.950 . S
H417 C440 0.950 . S
H418 C441 0.950 . S
H419 C443 0.950 . S
H420 C444 0.950 . S
H421 C445 0.951 . S
H422 C447 0.951 . S
H423 C449 0.950 . S
H424 C450 0.950 . S
H425 C452 0.950 . S
H426 C455 0.950 . S
H427 C456 0.950 . S
H428 C458 0.950 . S
H429 C459 0.950 . S
C430 H412 0.951 . S
C430 C431 1.366 . S
C430 C432 1.388 . S
C431 C430 1.366 . S
C431 C435 1.385 . S
C432 H413 0.951 . S
C432 C430 1.388 . S
C432 C433 1.366 . S
C433 C432 1.366 . S
C433 C434 1.414 . S
C433 C436 1.499 . S
C434 H414 0.950 . S
C434 C433 1.414 . S
C434 C435 1.374 . S
C435 H415 0.950 . S
C435 C431 1.385 . S
C435 C434 1.374 . S
C436 C433 1.499 . S
C436 C437 1.373 . S
C436 C438 1.389 . S
C437 H416 0.950 . S
C437 C436 1.373 . S
C437 C453 1.377 . S
C438 C436 1.389 . S
C438 C439 1.524 . S
C438 C452 1.377 . S
C439 C438 1.524 . S
C439 C440 1.397 . S
C439 C444 1.363 . S
C440 H417 0.950 . S
C440 C439 1.397 . S
C440 C441 1.334 . S
C441 H418 0.950 . S
C441 C440 1.334 . S
C441 C442 1.287 . S
C442 C441 1.287 . S
C442 C443 1.524 . S
C442 H461 0.913 1_554 S
C443 H419 0.950 . S
C443 C442 1.524 . S
C443 C444 1.415 . S
C444 H420 0.950 . S
C444 C439 1.363 . S
C444 C443 1.415 . S
C445 H421 0.951 . S
C445 C446 1.366 . S
C445 C447 1.388 . S
C446 C445 1.366 . S
C446 C450 1.385 . S
C447 H422 0.951 . S
C447 C445 1.388 . S
C447 C448 1.366 . S
C448 C447 1.366 . S
C448 C449 1.414 . S
C448 C451 1.499 . S
C449 H423 0.950 . S
C449 C448 1.414 . S
C449 C450 1.374 . S
C450 H424 0.950 . S
C450 C446 1.385 . S
C450 C449 1.374 . S
C451 C448 1.499 . S
C451 C452 1.373 . S
C451 C453 1.389 . S
C452 H425 0.950 . S
C452 C438 1.377 . S
C452 C451 1.373 . S
C453 C437 1.377 . S
C453 C451 1.389 . S
C453 C454 1.524 . S
C454 C453 1.524 . S
C454 C455 1.397 . S
C454 C459 1.363 . S
C455 H426 0.950 . S
C455 C454 1.397 . S
C455 C456 1.334 . S
C456 H427 0.950 . S
C456 C455 1.334 . S
C456 C457 1.287 . S
C457 C456 1.287 . S
C457 C458 1.524 . S
C457 H460 0.999 . S
C458 H428 0.950 . S
C458 C457 1.524 . S
C458 C459 1.415 . S
C459 H429 0.950 . S
C459 C454 1.363 . S
C459 C458 1.415 . S
H460 C457 0.999 . S
H461 C442 0.913 1_556 S
H462 C480 0.940 1_655 S
H463 C482 0.951 1_655 S
H464 C484 0.950 . S
H465 C485 0.950 . S
H466 C487 0.950 . S
H467 C490 0.950 . S
H468 C491 0.950 . S
H469 C493 0.950 . S
H470 C494 0.950 . S
H471 C495 0.951 . S
H472 C497 0.951 . S
H473 C499 0.960 . S
H474 C500 0.957 . S
H475 C502 0.950 . S
H476 C505 0.950 . S
H477 C506 0.950 . S
H478 C508 0.950 . S
H479 C509 0.950 . S
C480 H462 0.940 1_455 S
C480 C481 1.378 . S
C480 C482 1.390 . S
C481 C480 1.378 . S
C481 C485 1.385 . S
C482 H463 0.951 1_455 S
C482 C480 1.390 . S
C482 C483 1.366 . S
C483 C482 1.366 . S
C483 C484 1.414 . S
C483 C486 1.499 . S
C484 H464 0.950 . S
C484 C483 1.414 . S
C484 C485 1.374 . S
C485 H465 0.950 . S
C485 C481 1.385 . S
C485 C484 1.374 . S
C486 C483 1.499 . S
C486 C487 1.373 1_455 S
C486 C488 1.389 . S
C487 H466 0.950 . S
C487 C486 1.373 1_655 S
C487 C503 1.377 . S
C488 C486 1.389 . S
C488 C489 1.524 . S
C488 C502 1.377 . S
C489 C488 1.524 . S
C489 C490 1.397 . S
C489 C494 1.363 . S
C490 H467 0.950 . S
C490 C489 1.397 . S
C490 C491 1.334 . S
C491 H468 0.950 . S
C491 C490 1.334 . S
C491 C492 1.287 . S
C492 C491 1.287 . S
C492 C493 1.524 . S
C492 H511 0.913 . S
C493 H469 0.950 . S
C493 C492 1.524 . S
C493 C494 1.415 . S
C494 H470 0.950 . S
C494 C489 1.363 . S
C494 C493 1.415 . S
C495 H471 0.951 . S
C495 C496 1.366 . S
C495 C497 1.388 . S
C496 C495 1.366 . S
C496 C500 1.378 1_455 S
C497 H472 0.951 . S
C497 C495 1.388 . S
C497 C498 1.366 . S
C498 C497 1.366 . S
C498 C499 1.406 1_455 S
C498 C501 1.499 . S
C499 H473 0.960 . S
C499 C498 1.406 1_655 S
C499 C500 1.374 . S
C500 H474 0.957 . S
C500 C496 1.378 1_655 S
C500 C499 1.374 . S
C501 C498 1.499 . S
C501 C502 1.373 . S
C501 C503 1.389 1_455 S
C502 H475 0.950 . S
C502 C488 1.377 . S
C502 C501 1.373 . S
C503 C487 1.377 . S
C503 C501 1.389 1_655 S
C503 C504 1.524 . S
C504 C503 1.524 . S
C504 C505 1.397 . S
C504 C509 1.363 . S
C505 H476 0.950 . S
C505 C504 1.397 . S
C505 C506 1.334 . S
C506 H477 0.950 . S
C506 C505 1.334 . S
C506 C507 1.287 . S
C507 C506 1.287 . S
C507 C508 1.524 . S
C507 H510 0.999 . S
C508 H478 0.950 . S
C508 C507 1.524 . S
C508 C509 1.415 . S
C509 H479 0.950 . S
C509 C504 1.363 . S
C509 C508 1.415 . S
H510 C507 0.999 . S
H511 C492 0.913 . S
H512 C530 0.951 . S
H513 C532 0.951 . S
H514 C534 0.950 . S
H515 C535 0.950 . S
H516 C537 0.950 . S
H517 C540 0.950 1_554 S
H518 C541 0.950 . S
H519 C543 0.968 . S
H520 C544 0.922 1_545 S
H521 C545 0.951 . S
H522 C547 0.951 . S
H523 C549 0.950 . S
H524 C550 0.950 . S
H525 C552 0.950 . S
H526 C555 0.950 . S
H527 C556 0.950 . S
H528 C558 0.950 . S
H529 C559 0.950 1_565 S
C530 H512 0.951 . S
C530 C531 1.363 1_545 S
C530 C532 1.388 . S
C531 C530 1.363 1_565 S
C531 C535 1.387 . S
C532 H513 0.951 . S
C532 C530 1.388 . S
C532 C533 1.341 1_545 S
C533 C532 1.341 1_565 S
C533 C534 1.438 . S
C533 C536 1.498 . S
C534 H514 0.950 . S
C534 C533 1.438 . S
C534 C535 1.374 . S
C535 H515 0.950 . S
C535 C531 1.387 . S
C535 C534 1.374 . S
C536 C533 1.498 . S
C536 C537 1.362 1_565 S
C536 C538 1.400 1_554 S
C537 H516 0.950 . S
C537 C536 1.362 1_545 S
C537 C553 1.377 . S
C538 C536 1.400 1_556 S
C538 C539 1.524 . S
C538 C552 1.377 . S
C539 C538 1.524 . S
C539 C540 1.397 . S
C539 C544 1.380 . S
C540 H517 0.950 1_556 S
C540 C539 1.397 . S
C540 C541 1.334 . S
C541 H518 0.950 . S
C541 C540 1.334 . S
C541 C542 1.287 . S
C542 C541 1.287 . S
C542 C543 1.524 . S
C542 H561 0.913 . S
C543 H519 0.968 . S
C543 C542 1.524 . S
C543 C544 1.426 . S
C544 H520 0.922 1_565 S
C544 C539 1.380 . S
C544 C543 1.426 . S
C545 H521 0.951 . S
C545 C546 1.338 1_565 S
C545 C547 1.388 . S
C546 C545 1.338 1_545 S
C546 C550 1.414 . S
C547 H522 0.951 . S
C547 C545 1.388 . S
C547 C548 1.366 1_565 S
C548 C547 1.366 1_545 S
C548 C549 1.414 . S
C548 C551 1.499 . S
C549 H523 0.950 . S
C549 C548 1.414 . S
C549 C550 1.374 . S
C550 H524 0.950 . S
C550 C546 1.414 . S
C550 C549 1.374 . S
C551 C548 1.499 . S
C551 C552 1.373 1_545 S
C551 C553 1.389 1_556 S
C552 H525 0.950 . S
C552 C538 1.377 . S
C552 C551 1.373 1_565 S
C553 C537 1.377 . S
C553 C551 1.389 1_554 S
C553 C554 1.524 . S
C554 C553 1.524 . S
C554 C555 1.397 . S
C554 C559 1.363 . S
C555 H526 0.950 . S
C555 C554 1.397 . S
C555 C556 1.334 . S
C556 H527 0.950 . S
C556 C555 1.334 . S
C556 C557 1.287 . S
C557 C556 1.287 . S
C557 C558 1.524 . S
C557 H560 0.999 . S
C558 H528 0.950 . S
C558 C557 1.524 . S
C558 C559 1.415 . S
C559 H529 0.950 1_545 S
C559 C554 1.363 . S
C559 C558 1.415 . S
H560 C557 0.999 . S
H561 C542 0.913 . S
H562 C580 0.951 . S
H563 C582 0.951 . S
H564 C584 0.950 . S
H565 C585 0.950 . S
H566 C587 0.951 . S
H567 C590 0.950 . S
H568 C591 0.950 . S
H569 C593 0.950 . S
H570 C594 0.950 . S
H571 C595 0.951 . S
H572 C597 0.951 . S
H573 C599 0.950 . S
H574 C600 0.950 . S
H575 C602 0.950 . S
H576 C605 0.950 . S
H577 C606 0.950 . S
H578 C608 0.950 . S
H579 C609 0.950 . S
C580 H562 0.951 . S
C580 C581 1.366 . S
C580 C582 1.388 . S
C581 C580 1.366 . S
C581 C585 1.385 . S
C582 H563 0.951 . S
C582 C580 1.388 . S
C582 C583 1.366 . S
C583 C582 1.366 . S
C583 C584 1.414 . S
C583 C586 1.499 . S
C584 H564 0.950 . S
C584 C583 1.414 . S
C584 C585 1.374 . S
C585 H565 0.950 . S
C585 C581 1.385 . S
C585 C584 1.374 . S
C586 C583 1.499 . S
C586 C587 1.372 1_554 S
C586 C588 1.389 . S
C587 H566 0.951 . S
C587 C586 1.372 1_556 S
C587 C603 1.377 . S
C588 C586 1.389 . S
C588 C589 1.524 . S
C588 C602 1.377 . S
C589 C588 1.524 . S
C589 C590 1.397 . S
C589 C594 1.363 . S
C590 H567 0.950 . S
C590 C589 1.397 . S
C590 C591 1.334 . S
C591 H568 0.950 . S
C591 C590 1.334 . S
C591 C592 1.287 . S
C592 C591 1.287 . S
C592 C593 1.524 . S
C592 H611 0.913 . S
C593 H569 0.950 . S
C593 C592 1.524 . S
C593 C594 1.415 . S
C594 H570 0.950 . S
C594 C589 1.363 . S
C594 C593 1.415 . S
C595 H571 0.951 . S
C595 C596 1.366 . S
C595 C597 1.388 . S
C596 C595 1.366 . S
C596 C600 1.385 . S
C597 H572 0.951 . S
C597 C595 1.388 . S
C597 C598 1.366 . S
C598 C597 1.366 . S
C598 C599 1.414 . S
C598 C601 1.499 . S
C599 H573 0.950 . S
C599 C598 1.414 . S
C599 C600 1.374 . S
C600 H574 0.950 . S
C600 C596 1.385 . S
C600 C599 1.374 . S
C601 C598 1.499 . S
C601 C602 1.373 1_556 S
C601 C603 1.389 . S
C602 H575 0.950 . S
C602 C588 1.377 . S
C602 C601 1.373 1_554 S
C603 C587 1.377 . S
C603 C601 1.389 . S
C603 C604 1.524 . S
C604 C603 1.524 . S
C604 C605 1.397 . S
C604 C609 1.363 . S
C605 H576 0.950 . S
C605 C604 1.397 . S
C605 C606 1.334 . S
C606 H577 0.950 . S
C606 C605 1.334 . S
C606 C607 1.287 . S
C607 C606 1.287 . S
C607 C608 1.524 . S
C607 H610 0.999 . S
C608 H578 0.950 . S
C608 C607 1.524 . S
C608 C609 1.415 . S
C609 H579 0.950 . S
C609 C604 1.363 . S
C609 C608 1.415 . S
H610 C607 0.999 . S
H611 C592 0.913 . S
H612 C630 0.951 . S
H613 C632 0.951 . S
H614 C634 0.950 . S
H615 C635 0.950 . S
H616 C637 0.950 . S
H617 C640 0.950 . S
H618 C641 0.950 . S
H619 C643 0.950 . S
H620 C644 0.950 . S
H621 C645 0.951 . S
H622 C647 0.951 . S
H623 C649 0.950 . S
H624 C650 0.950 . S
H625 C652 0.950 . S
H626 C655 0.950 1_556 S
H627 C656 0.950 . S
H628 C658 0.950 . S
H629 C659 0.950 . S
C630 H612 0.951 . S
C630 C631 1.366 . S
C630 C632 1.388 . S
C631 C630 1.366 . S
C631 C635 1.385 . S
C632 H613 0.951 . S
C632 C630 1.388 . S
C632 C633 1.366 . S
C633 C632 1.366 . S
C633 C634 1.414 . S
C633 C636 1.499 . S
C634 H614 0.950 . S
C634 C633 1.414 . S
C634 C635 1.374 . S
C635 H615 0.950 . S
C635 C631 1.385 . S
C635 C634 1.374 . S
C636 C633 1.499 . S
C636 C637 1.373 . S
C636 C638 1.389 . S
C637 H616 0.950 . S
C637 C636 1.373 . S
C637 C653 1.377 . S
C638 C636 1.389 . S
C638 C639 1.524 1_554 S
C638 C652 1.377 1_554 S
C639 C638 1.524 1_556 S
C639 C640 1.397 1_556 S
C639 C644 1.363 . S
C640 H617 0.950 . S
C640 C639 1.397 1_554 S
C640 C641 1.334 . S
C641 H618 0.950 . S
C641 C640 1.334 . S
C641 C642 1.287 1_554 S
C642 C641 1.287 1_556 S
C642 C643 1.524 . S
C642 H661 0.913 . S
C643 H619 0.950 . S
C643 C642 1.524 . S
C643 C644 1.415 . S
C644 H620 0.950 . S
C644 C639 1.363 . S
C644 C643 1.415 . S
C645 H621 0.951 . S
C645 C646 1.366 . S
C645 C647 1.388 . S
C646 C645 1.366 . S
C646 C650 1.385 . S
C647 H622 0.951 . S
C647 C645 1.388 . S
C647 C648 1.366 . S
C648 C647 1.366 . S
C648 C649 1.414 . S
C648 C651 1.499 . S
C649 H623 0.950 . S
C649 C648 1.414 . S
C649 C650 1.374 . S
C650 H624 0.950 . S
C650 C646 1.385 . S
C650 C649 1.374 . S
C651 C648 1.499 . S
C651 C652 1.373 . S
C651 C653 1.389 1_556 S
C652 H625 0.950 . S
C652 C638 1.377 1_556 S
C652 C651 1.373 . S
C653 C637 1.377 . S
C653 C651 1.389 1_554 S
C653 C654 1.524 . S
C654 C653 1.524 . S
C654 C655 1.397 . S
C654 C659 1.363 . S
C655 H626 0.950 1_554 S
C655 C654 1.397 . S
C655 C656 1.334 . S
C656 H627 0.950 . S
C656 C655 1.334 . S
C656 C657 1.287 . S
C657 C656 1.287 . S
C657 C658 1.524 . S
C657 H660 0.999 . S
C658 H628 0.950 . S
C658 C657 1.524 . S
C658 C659 1.415 . S
C659 H629 0.950 . S
C659 C654 1.363 . S
C659 C658 1.415 . S
H660 C657 0.999 . S
H661 C642 0.913 . S
H662 C680 0.951 . S
H663 C682 0.951 . S
H664 C684 0.950 . S
H665 C685 0.950 . S
H666 C687 0.950 . S
H667 C690 0.950 . S
H668 C691 0.950 . S
H669 C693 0.950 . S
H670 C694 0.950 . S
H671 C695 0.951 . S
H672 C697 0.951 . S
H673 C699 0.950 . S
H674 C700 0.950 . S
H675 C702 0.950 . S
H676 C705 0.950 . S
H677 C706 0.950 . S
H678 C708 0.950 . S
H679 C709 0.950 . S
C680 H662 0.951 . S
C680 C681 1.367 1_455 S
C680 C682 1.388 . S
C681 C680 1.367 1_655 S
C681 C685 1.384 . S
C682 H663 0.951 . S
C682 C680 1.388 . S
C682 C683 1.380 . S
C683 C682 1.380 . S
C683 C684 1.399 1_455 S
C683 C686 1.498 1_455 S
C684 H664 0.950 . S
C684 C683 1.399 1_655 S
C684 C685 1.374 . S
C685 H665 0.950 . S
C685 C681 1.384 . S
C685 C684 1.374 . S
C686 C683 1.498 1_655 S
C686 C687 1.371 . S
C686 C688 1.392 1_655 S
C687 H666 0.950 . S
C687 C686 1.371 . S
C687 C703 1.377 . S
C688 C686 1.392 1_455 S
C688 C689 1.524 1_554 S
C688 C702 1.377 1_554 S
C689 C688 1.524 1_556 S
C689 C690 1.397 . S
C689 C694 1.363 . S
C690 H667 0.950 . S
C690 C689 1.397 . S
C690 C691 1.334 . S
C691 H668 0.950 . S
C691 C690 1.334 . S
C691 C692 1.287 . S
C692 C691 1.287 . S
C692 C693 1.524 . S
C692 H711 0.913 . S
C693 H669 0.950 . S
C693 C692 1.524 . S
C693 C694 1.415 . S
C694 H670 0.950 . S
C694 C689 1.363 . S
C694 C693 1.415 . S
C695 H671 0.951 . S
C695 C696 1.314 1_655 S
C695 C697 1.388 . S
C696 C695 1.314 1_455 S
C696 C700 1.437 . S
C697 H672 0.951 . S
C697 C695 1.388 . S
C697 C698 1.340 1_655 S
C698 C697 1.340 1_455 S
C698 C699 1.440 . S
C698 C701 1.498 . S
C699 H673 0.950 . S
C699 C698 1.440 . S
C699 C700 1.374 . S
C700 H674 0.950 . S
C700 C696 1.437 . S
C700 C699 1.374 . S
C701 C698 1.498 . S
C701 C702 1.415 . S
C701 C703 1.348 1_456 S
C702 H675 0.950 . S
C702 C688 1.377 1_556 S
C702 C701 1.415 . S
C703 C687 1.377 . S
C703 C701 1.348 1_654 S
C703 C704 1.524 . S
C704 C703 1.524 . S
C704 C705 1.397 . S
C704 C709 1.363 . S
C705 H676 0.950 . S
C705 C704 1.397 . S
C705 C706 1.334 . S
C706 H677 0.950 . S
C706 C705 1.334 . S
C706 C707 1.287 . S
C707 C706 1.287 . S
C707 C708 1.524 . S
C707 H710 0.999 . S
C708 H678 0.950 . S
C708 C707 1.524 . S
C708 C709 1.415 . S
C709 H679 0.950 . S
C709 C704 1.363 . S
C709 C708 1.415 . S
H710 C707 0.999 . S
H711 C692 0.913 . S
H712 C730 0.953 1_556 S
H713 C732 0.951 . S
H714 C734 0.950 . S
H715 C735 0.950 . S
H716 C737 0.950 . S
H717 C740 0.950 . S
H718 C741 0.950 . S
H719 C743 0.951 . S
H720 C744 0.950 . S
H721 C745 0.951 . S
H722 C747 0.951 . S
H723 C749 0.950 . S
H724 C750 0.950 . S
H725 C752 0.950 . S
H726 C755 0.950 . S
H727 C756 0.950 . S
H728 C758 0.950 . S
H729 C759 0.950 . S
C730 H712 0.953 1_554 S
C730 C731 1.362 1_655 S
C730 C732 1.390 . S
C731 C730 1.362 1_455 S
C731 C735 1.385 . S
C732 H713 0.951 . S
C732 C730 1.390 . S
C732 C733 1.366 . S
C733 C732 1.366 . S
C733 C734 1.414 1_655 S
C733 C736 1.499 . S
C734 H714 0.950 . S
C734 C733 1.414 1_455 S
C734 C735 1.374 . S
C735 H715 0.950 . S
C735 C731 1.385 . S
C735 C734 1.374 . S
C736 C733 1.499 . S
C736 C737 1.373 1_655 S
C736 C738 1.389 . S
C737 H716 0.950 . S
C737 C736 1.373 1_455 S
C737 C753 1.377 . S
C738 C736 1.389 . S
C738 C739 1.524 . S
C738 C752 1.377 . S
C739 C738 1.524 . S
C739 C740 1.397 . S
C739 C744 1.363 . S
C740 H717 0.950 . S
C740 C739 1.397 . S
C740 C741 1.334 . S
C741 H718 0.950 . S
C741 C740 1.334 . S
C741 C742 1.287 . S
C742 C741 1.287 . S
C742 C743 1.524 . S
C742 H761 0.913 . S
C743 H719 0.951 . S
C743 C742 1.524 . S
C743 C744 1.415 . S
C744 H720 0.950 . S
C744 C739 1.363 . S
C744 C743 1.415 . S
C745 H721 0.951 . S
C745 C746 1.366 . S
C745 C747 1.388 . S
C746 C745 1.366 . S
C746 C750 1.385 . S
C747 H722 0.951 . S
C747 C745 1.388 . S
C747 C748 1.366 . S
C748 C747 1.366 . S
C748 C749 1.414 . S
C748 C751 1.499 . S
C749 H723 0.950 . S
C749 C748 1.414 . S
C749 C750 1.374 . S
C750 H724 0.950 . S
C750 C746 1.385 . S
C750 C749 1.374 . S
C751 C748 1.499 . S
C751 C752 1.373 . S
C751 C753 1.389 1_655 S
C752 H725 0.950 . S
C752 C738 1.377 . S
C752 C751 1.373 . S
C753 C737 1.377 . S
C753 C751 1.389 1_455 S
C753 C754 1.524 . S
C754 C753 1.524 . S
C754 C755 1.397 . S
C754 C759 1.363 . S
C755 H726 0.950 . S
C755 C754 1.397 . S
C755 C756 1.334 . S
C756 H727 0.950 . S
C756 C755 1.334 . S
C756 C757 1.287 . S
C757 C756 1.287 . S
C757 C758 1.524 . S
C757 H760 0.999 . S
C758 H728 0.950 . S
C758 C757 1.524 . S
C758 C759 1.415 . S
C759 H729 0.950 . S
C759 C754 1.363 . S
C759 C758 1.415 . S
H760 C757 0.999 . S
H761 C742 0.913 . S
H762 C780 0.951 . S
H763 C782 0.951 . S
H764 C784 0.950 . S
H765 C785 0.950 1_556 S
H766 C787 0.950 . S
H767 C790 0.950 . S
H768 C791 0.950 . S
H769 C793 0.950 . S
H770 C794 0.950 . S
H771 C795 0.951 . S
H772 C797 0.951 . S
H773 C799 0.950 1_545 S
H774 C800 0.950 . S
H775 C802 0.950 . S
H776 C805 0.950 . S
H777 C806 0.950 . S
H778 C808 0.950 . S
H779 C809 0.950 . S
C780 H762 0.951 . S
C780 C781 1.366 . S
C780 C782 1.388 . S
C781 C780 1.366 . S
C781 C785 1.385 1_545 S
C782 H763 0.951 . S
C782 C780 1.388 . S
C782 C783 1.373 . S
C783 C782 1.373 . S
C783 C784 1.408 1_545 S
C783 C786 1.496 1_545 S
C784 H764 0.950 . S
C784 C783 1.408 1_565 S
C784 C785 1.374 . S
C785 H765 0.950 1_554 S
C785 C781 1.385 1_565 S
C785 C784 1.374 . S
C786 C783 1.496 1_565 S
C786 C787 1.373 . S
C786 C788 1.389 1_565 S
C787 H766 0.950 . S
C787 C786 1.373 . S
C787 C803 1.377 . S
C788 C786 1.389 1_545 S
C788 C789 1.524 . S
C788 C802 1.377 . S
C789 C788 1.524 . S
C789 C790 1.397 . S
C789 C794 1.363 . S
C790 H767 0.950 . S
C790 C789 1.397 . S
C790 C791 1.334 . S
C791 H768 0.950 . S
C791 C790 1.334 . S
C791 C792 1.287 . S
C792 C791 1.287 . S
C792 C793 1.524 . S
C792 H811 0.913 . S
C793 H769 0.950 . S
C793 C792 1.524 . S
C793 C794 1.415 . S
C794 H770 0.950 . S
C794 C789 1.363 . S
C794 C793 1.415 . S
C795 H771 0.951 . S
C795 C796 1.366 . S
C795 C797 1.388 . S
C796 C795 1.366 . S
C796 C800 1.385 . S
C797 H772 0.951 . S
C797 C795 1.388 . S
C797 C798 1.366 . S
C798 C797 1.366 . S
C798 C799 1.414 . S
C798 C801 1.499 . S
C799 H773 0.950 1_565 S
C799 C798 1.414 . S
C799 C800 1.374 . S
C800 H774 0.950 . S
C800 C796 1.385 . S
C800 C799 1.374 . S
C801 C798 1.499 . S
C801 C802 1.373 1_565 S
C801 C803 1.389 . S
C802 H775 0.950 . S
C802 C788 1.377 . S
C802 C801 1.373 1_545 S
C803 C787 1.377 . S
C803 C801 1.389 . S
C803 C804 1.524 . S
C804 C803 1.524 . S
C804 C805 1.397 . S
C804 C809 1.363 . S
C805 H776 0.950 . S
C805 C804 1.397 . S
C805 C806 1.334 . S
C806 H777 0.950 . S
C806 C805 1.334 . S
C806 C807 1.287 . S
C807 C806 1.287 . S
C807 C808 1.524 . S
C807 H810 0.999 . S
C808 H778 0.950 . S
C808 C807 1.524 . S
C808 C809 1.415 . S
C809 H779 0.950 . S
C809 C804 1.363 . S
C809 C808 1.415 . S
H810 C807 0.999 . S
H811 C792 0.913 . S
H812 C830 0.951 . S
H813 C832 0.951 . S
H814 C834 0.950 . S
H815 C835 0.950 1_556 S
H816 C837 0.950 . S
H817 C840 0.950 . S
H818 C841 0.950 . S
H819 C843 0.950 . S
H820 C844 0.950 . S
H821 C845 0.951 . S
H822 C847 0.951 . S
H823 C849 0.950 . S
H824 C850 0.950 . S
H825 C852 0.950 . S
H826 C855 0.950 . S
H827 C856 0.950 . S
H828 C858 0.950 . S
H829 C859 0.950 . S
C830 H812 0.951 . S
C830 C831 1.366 . S
C830 C832 1.388 . S
C831 C830 1.366 . S
C831 C835 1.385 . S
C832 H813 0.951 . S
C832 C830 1.388 . S
C832 C833 1.366 . S
C833 C832 1.366 . S
C833 C834 1.414 . S
C833 C836 1.499 . S
C834 H814 0.950 . S
C834 C833 1.414 . S
C834 C835 1.374 . S
C835 H815 0.950 1_554 S
C835 C831 1.385 . S
C835 C834 1.374 . S
C836 C833 1.499 . S
C836 C837 1.373 . S
C836 C838 1.389 . S
C837 H816 0.950 . S
C837 C836 1.373 . S
C837 C853 1.377 . S
C838 C836 1.389 . S
C838 C839 1.524 . S
C838 C852 1.377 . S
C839 C838 1.524 . S
C839 C840 1.397 . S
C839 C844 1.363 . S
C840 H817 0.950 . S
C840 C839 1.397 . S
C840 C841 1.334 . S
C841 H818 0.950 . S
C841 C840 1.334 . S
C841 C842 1.287 . S
C842 C841 1.287 . S
C842 C843 1.524 . S
C842 H861 0.913 . S
C843 H819 0.950 . S
C843 C842 1.524 . S
C843 C844 1.415 . S
C844 H820 0.950 . S
C844 C839 1.363 . S
C844 C843 1.415 . S
C845 H821 0.951 . S
C845 C846 1.366 . S
C845 C847 1.388 . S
C846 C845 1.366 . S
C846 C850 1.385 . S
C847 H822 0.951 . S
C847 C845 1.388 . S
C847 C848 1.366 . S
C848 C847 1.366 . S
C848 C849 1.414 . S
C848 C851 1.499 . S
C849 H823 0.950 . S
C849 C848 1.414 . S
C849 C850 1.374 . S
C850 H824 0.950 . S
C850 C846 1.385 . S
C850 C849 1.374 . S
C851 C848 1.499 . S
C851 C852 1.373 . S
C851 C853 1.389 . S
C852 H825 0.950 . S
C852 C838 1.377 . S
C852 C851 1.373 . S
C853 C837 1.377 . S
C853 C851 1.389 . S
C853 C854 1.524 . S
C854 C853 1.524 . S
C854 C855 1.397 . S
C854 C859 1.363 . S
C855 H826 0.950 . S
C855 C854 1.397 . S
C855 C856 1.334 . S
C856 H827 0.950 . S
C856 C855 1.334 . S
C856 C857 1.287 . S
C857 C856 1.287 . S
C857 C858 1.524 . S
C857 H860 0.999 . S
C858 H828 0.950 . S
C858 C857 1.524 . S
C858 C859 1.415 . S
C859 H829 0.950 . S
C859 C854 1.363 . S
C859 C858 1.415 . S
H860 C857 0.999 . S
H861 C842 0.913 . S
H862 C880 0.951 . S
H863 C882 0.951 . S
H864 C884 0.950 . S
H865 C885 0.950 1_556 S
H866 C887 0.950 . S
H867 C890 0.950 . S
H868 C891 0.950 . S
H869 C893 0.950 . S
H870 C894 0.950 . S
H871 C895 0.951 . S
H872 C897 0.951 . S
H873 C899 0.950 . S
H874 C900 0.950 . S
H875 C902 0.950 . S
H876 C905 0.950 . S
H877 C906 0.950 . S
H878 C908 0.950 1_556 S
H879 C909 0.950 . S
C880 H862 0.951 . S
C880 C881 1.366 . S
C880 C882 1.388 . S
C881 C880 1.366 . S
C881 C885 1.385 . S
C882 H863 0.951 . S
C882 C880 1.388 . S
C882 C883 1.366 . S
C883 C882 1.366 . S
C883 C884 1.414 . S
C883 C886 1.499 . S
C884 H864 0.950 . S
C884 C883 1.414 . S
C884 C885 1.374 . S
C885 H865 0.950 1_554 S
C885 C881 1.385 . S
C885 C884 1.374 . S
C886 C883 1.499 . S
C886 C887 1.373 . S
C886 C888 1.389 . S
C887 H866 0.950 . S
C887 C886 1.373 . S
C887 C903 1.377 . S
C888 C886 1.389 . S
C888 C889 1.524 . S
C888 C902 1.377 . S
C889 C888 1.524 . S
C889 C890 1.397 . S
C889 C894 1.363 . S
C890 H867 0.950 . S
C890 C889 1.397 . S
C890 C891 1.334 . S
C891 H868 0.950 . S
C891 C890 1.334 . S
C891 C892 1.287 . S
C892 C891 1.287 . S
C892 C893 1.524 . S
C892 H911 0.913 . S
C893 H869 0.950 . S
C893 C892 1.524 . S
C893 C894 1.415 . S
C894 H870 0.950 . S
C894 C889 1.363 . S
C894 C893 1.415 . S
C895 H871 0.951 . S
C895 C896 1.366 . S
C895 C897 1.388 . S
C896 C895 1.366 . S
C896 C900 1.385 . S
C897 H872 0.951 . S
C897 C895 1.388 . S
C897 C898 1.366 . S
C898 C897 1.366 . S
C898 C899 1.414 . S
C898 C901 1.499 . S
C899 H873 0.950 . S
C899 C898 1.414 . S
C899 C900 1.374 . S
C900 H874 0.950 . S
C900 C896 1.385 . S
C900 C899 1.374 . S
C901 C898 1.499 . S
C901 C902 1.373 . S
C901 C903 1.389 . S
C902 H875 0.950 . S
C902 C888 1.377 . S
C902 C901 1.373 . S
C903 C887 1.377 . S
C903 C901 1.389 . S
C903 C904 1.524 . S
C904 C903 1.524 . S
C904 C905 1.397 . S
C904 C909 1.363 . S
C905 H876 0.950 . S
C905 C904 1.397 . S
C905 C906 1.334 . S
C906 H877 0.950 . S
C906 C905 1.334 . S
C906 C907 1.287 . S
C907 C906 1.287 . S
C907 C908 1.524 . S
C907 H910 0.999 . S
C908 H878 0.950 1_554 S
C908 C907 1.524 . S
C908 C909 1.415 . S
C909 H879 0.950 . S
C909 C904 1.363 . S
C909 C908 1.415 . S
H910 C907 0.999 . S
H911 C892 0.913 . S
H912 C930 0.951 . S
H913 C932 0.951 . S
H914 C934 0.950 . S
H915 C935 0.950 . S
H916 C937 0.966 . S
H917 C940 0.950 . S
H918 C941 0.950 . S
H919 C943 0.950 . S
H920 C944 0.950 . S
H921 C945 0.951 . S
H922 C947 0.951 . S
H923 C949 0.950 . S
H924 C950 0.950 . S
H925 C952 0.941 1_556 S
H926 C955 0.950 . S
H927 C956 0.950 . S
H928 C958 0.950 1_455 S
H929 C959 0.950 . S
C930 H912 0.951 . S
C930 C931 1.366 . S
C930 C932 1.388 . S
C931 C930 1.366 . S
C931 C935 1.385 1_655 S
C932 H913 0.951 . S
C932 C930 1.388 . S
C932 C933 1.366 1_655 S
C933 C932 1.366 1_455 S
C933 C934 1.414 . S
C933 C936 1.499 . S
C934 H914 0.950 . S
C934 C933 1.414 . S
C934 C935 1.374 . S
C935 H915 0.950 . S
C935 C931 1.385 1_455 S
C935 C934 1.374 . S
C936 C933 1.499 . S
C936 C937 1.373 . S
C936 C938 1.389 . S
C937 H916 0.966 . S
C937 C936 1.373 . S
C937 C953 1.377 . S
C938 C936 1.389 . S
C938 C939 1.524 . S
C938 C952 1.377 . S
C939 C938 1.524 . S
C939 C940 1.397 . S
C939 C944 1.363 1_554 S
C940 H917 0.950 . S
C940 C939 1.397 . S
C940 C941 1.334 . S
C941 H918 0.950 . S
C941 C940 1.334 . S
C941 C942 1.287 1_554 S
C942 C941 1.287 1_556 S
C942 C943 1.524 . S
C942 H961 0.913 . S
C943 H919 0.950 . S
C943 C942 1.524 . S
C943 C944 1.415 . S
C944 H920 0.950 . S
C944 C939 1.363 1_556 S
C944 C943 1.415 . S
C945 H921 0.951 . S
C945 C946 1.366 1_554 S
C945 C947 1.388 . S
C946 C945 1.366 1_556 S
C946 C950 1.385 . S
C947 H922 0.951 . S
C947 C945 1.388 . S
C947 C948 1.366 . S
C948 C947 1.366 . S
C948 C949 1.414 1_554 S
C948 C951 1.499 . S
C949 H923 0.950 . S
C949 C948 1.414 1_556 S
C949 C950 1.374 . S
C950 H924 0.950 . S
C950 C946 1.385 . S
C950 C949 1.374 . S
C951 C948 1.499 . S
C951 C952 1.373 . S
C951 C953 1.389 . S
C952 H925 0.941 1_554 S
C952 C938 1.377 . S
C952 C951 1.373 . S
C953 C937 1.377 . S
C953 C951 1.389 . S
C953 C954 1.527 1_455 S
C954 C953 1.527 1_655 S
C954 C955 1.392 . S
C954 C959 1.365 1_655 S
C955 H926 0.950 . S
C955 C954 1.392 . S
C955 C956 1.334 . S
C956 H927 0.950 . S
C956 C955 1.334 . S
C956 C957 1.287 . S
C957 C956 1.287 . S
C957 C958 1.524 . S
C957 H960 0.999 . S
C958 H928 0.950 1_655 S
C958 C957 1.524 . S
C958 C959 1.415 1_655 S
C959 H929 0.950 . S
C959 C954 1.365 1_455 S
C959 C958 1.415 1_455 S
H960 C957 0.999 . S
H961 C942 0.913 . S
H962 C980 0.952 . S
H963 C982 0.951 . S
H964 C984 0.950 . S
H965 C985 0.951 . S
H966 C987 0.950 . S
H967 C990 0.950 . S
H968 C991 0.950 . S
H969 C993 0.955 . S
H970 C994 0.950 1_556 S
H971 C995 0.951 . S
H972 C997 0.951 . S
H973 C999 0.950 . S
H974 C1000 0.950 . S
H975 C1002 0.950 . S
H976 C1005 0.950 . S
H977 C1006 0.950 . S
H978 C1008 0.950 . S
H979 C1009 0.950 . S
C980 H962 0.952 . S
C980 C981 1.366 1_545 S
C980 C982 1.388 . S
C981 C980 1.366 1_565 S
C981 C985 1.385 . S
C982 H963 0.951 . S
C982 C980 1.388 . S
C982 C983 1.366 . S
C983 C982 1.366 . S
C983 C984 1.414 . S
C983 C986 1.499 . S
C984 H964 0.950 . S
C984 C983 1.414 . S
C984 C985 1.372 1_545 S
C985 H965 0.951 . S
C985 C981 1.385 . S
C985 C984 1.372 1_565 S
C986 C983 1.499 . S
C986 C987 1.373 1_545 S
C986 C988 1.389 . S
C987 H966 0.950 . S
C987 C986 1.373 1_565 S
C987 C1003 1.377 . S
C988 C986 1.389 . S
C988 C989 1.524 . S
C988 C1002 1.377 . S
C989 C988 1.524 . S
C989 C990 1.397 . S
C989 C994 1.363 . S
C990 H967 0.950 . S
C990 C989 1.397 . S
C990 C991 1.334 . S
C991 H968 0.950 . S
C991 C990 1.334 . S
C991 C992 1.287 . S
C992 C991 1.287 . S
C992 C993 1.519 1_554 S
C992 H1011 0.913 . S
C993 H969 0.955 . S
C993 C992 1.519 1_556 S
C993 C994 1.414 1_556 S
C994 H970 0.950 1_554 S
C994 C989 1.363 . S
C994 C993 1.414 1_554 S
C995 H971 0.951 . S
C995 C996 1.366 1_554 S
C995 C997 1.388 . S
C996 C995 1.366 1_556 S
C996 C1000 1.385 . S
C997 H972 0.951 . S
C997 C995 1.388 . S
C997 C998 1.366 . S
C998 C997 1.366 . S
C998 C999 1.414 1_554 S
C998 C1001 1.499 . S
C999 H973 0.950 . S
C999 C998 1.414 1_556 S
C999 C1000 1.374 . S
C1000 H974 0.950 . S
C1000 C996 1.385 . S
C1000 C999 1.374 . S
C1001 C998 1.499 . S
C1001 C1002 1.373 . S
C1001 C1003 1.389 1_545 S
C1002 H975 0.950 . S
C1002 C988 1.377 . S
C1002 C1001 1.373 . S
C1003 C987 1.377 . S
C1003 C1001 1.389 1_565 S
C1003 C1004 1.524 . S
C1004 C1003 1.524 . S
C1004 C1005 1.397 . S
C1004 C1009 1.363 . S
C1005 H976 0.950 . S
C1005 C1004 1.397 . S
C1005 C1006 1.334 . S
C1006 H977 0.950 . S
C1006 C1005 1.334 . S
C1006 C1007 1.287 . S
C1007 C1006 1.287 . S
C1007 C1008 1.524 . S
C1007 H1010 0.999 . S
C1008 H978 0.950 . S
C1008 C1007 1.524 . S
C1008 C1009 1.415 . S
C1009 H979 0.950 . S
C1009 C1004 1.363 . S
C1009 C1008 1.415 . S
H1010 C1007 0.999 . S
H1011 C992 0.913 . S
H1012 C1030 0.951 . S
H1013 C1032 0.951 . S
H1014 C1034 0.950 . S
H1015 C1035 0.950 . S
H1016 C1037 0.950 . S
H1017 C1040 0.950 . S
H1018 C1041 0.950 . S
H1019 C1043 0.950 . S
H1020 C1044 0.950 . S
H1021 C1045 0.951 . S
H1022 C1047 0.951 . S
H1023 C1049 0.950 . S
H1024 C1050 0.950 . S
H1025 C1052 0.950 . S
H1026 C1055 0.950 . S
H1027 C1056 0.950 1_554 S
H1028 C1058 0.950 . S
H1029 C1059 0.950 . S
C1030 H1012 0.951 . S
C1030 C1031 1.366 . S
C1030 C1032 1.388 . S
C1031 C1030 1.366 . S
C1031 C1035 1.385 . S
C1032 H1013 0.951 . S
C1032 C1030 1.388 . S
C1032 C1033 1.366 . S
C1033 C1032 1.366 . S
C1033 C1034 1.414 . S
C1033 C1036 1.499 . S
C1034 H1014 0.950 . S
C1034 C1033 1.414 . S
C1034 C1035 1.374 . S
C1035 H1015 0.950 . S
C1035 C1031 1.385 . S
C1035 C1034 1.374 . S
C1036 C1033 1.499 . S
C1036 C1037 1.373 . S
C1036 C1038 1.389 . S
C1037 H1016 0.950 . S
C1037 C1036 1.373 . S
C1037 C1053 1.377 . S
C1038 C1036 1.389 . S
C1038 C1039 1.524 . S
C1038 C1052 1.377 . S
C1039 C1038 1.524 . S
C1039 C1040 1.397 . S
C1039 C1044 1.363 . S
C1040 H1017 0.950 . S
C1040 C1039 1.397 . S
C1040 C1041 1.334 . S
C1041 H1018 0.950 . S
C1041 C1040 1.334 . S
C1041 C1042 1.287 . S
C1042 C1041 1.287 . S
C1042 C1043 1.524 . S
C1042 H1061 0.913 . S
C1043 H1019 0.950 . S
C1043 C1042 1.524 . S
C1043 C1044 1.415 . S
C1044 H1020 0.950 . S
C1044 C1039 1.363 . S
C1044 C1043 1.415 . S
C1045 H1021 0.951 . S
C1045 C1046 1.366 . S
C1045 C1047 1.388 . S
C1046 C1045 1.366 . S
C1046 C1050 1.385 1_556 S
C1047 H1022 0.951 . S
C1047 C1045 1.388 . S
C1047 C1048 1.366 1_556 S
C1048 C1047 1.366 1_554 S
C1048 C1049 1.414 . S
C1048 C1051 1.499 . S
C1049 H1023 0.950 . S
C1049 C1048 1.414 . S
C1049 C1050 1.374 . S
C1050 H1024 0.950 . S
C1050 C1046 1.385 1_554 S
C1050 C1049 1.374 . S
C1051 C1048 1.499 . S
C1051 C1052 1.373 . S
C1051 C1053 1.389 . S
C1052 H1025 0.950 . S
C1052 C1038 1.377 . S
C1052 C1051 1.373 . S
C1053 C1037 1.377 . S
C1053 C1051 1.389 . S
C1053 C1054 1.524 . S
C1054 C1053 1.524 . S
C1054 C1055 1.397 . S
C1054 C1059 1.363 1_554 S
C1055 H1026 0.950 . S
C1055 C1054 1.397 . S
C1055 C1056 1.334 1_554 S
C1056 H1027 0.950 1_556 S
C1056 C1055 1.334 1_556 S
C1056 C1057 1.287 . S
C1057 C1056 1.287 . S
C1057 C1058 1.524 . S
C1057 H1060 0.999 . S
C1058 H1028 0.950 . S
C1058 C1057 1.524 . S
C1058 C1059 1.415 . S
C1059 H1029 0.950 . S
C1059 C1054 1.363 1_556 S
C1059 C1058 1.415 . S
H1060 C1057 0.999 . S
H1061 C1042 0.913 . S
H1062 C1080 0.951 . S
H1063 C1082 0.951 . S
H1064 C1084 0.950 . S
H1065 C1085 0.950 . S
H1066 C1087 0.950 . S
H1067 C1090 0.950 . S
H1068 C1091 0.950 . S
H1069 C1093 0.950 . S
H1070 C1094 0.950 . S
H1071 C1095 0.951 . S
H1072 C1097 0.951 . S
H1073 C1099 0.950 . S
H1074 C1100 0.950 . S
H1075 C1102 0.950 . S
H1076 C1105 0.950 . S
H1077 C1106 0.950 . S
H1078 C1108 0.951 . S
H1079 C1109 0.950 . S
C1080 H1062 0.951 . S
C1080 C1081 1.366 . S
C1080 C1082 1.388 . S
C1081 C1080 1.366 . S
C1081 C1085 1.385 . S
C1082 H1063 0.951 . S
C1082 C1080 1.388 . S
C1082 C1083 1.366 . S
C1083 C1082 1.366 . S
C1083 C1084 1.414 . S
C1083 C1086 1.499 . S
C1084 H1064 0.950 . S
C1084 C1083 1.414 . S
C1084 C1085 1.374 . S
C1085 H1065 0.950 . S
C1085 C1081 1.385 . S
C1085 C1084 1.374 . S
C1086 C1083 1.499 . S
C1086 C1087 1.373 . S
C1086 C1088 1.389 . S
C1087 H1066 0.950 . S
C1087 C1086 1.373 . S
C1087 C1103 1.377 . S
C1088 C1086 1.389 . S
C1088 C1089 1.524 . S
C1088 C1102 1.377 . S
C1089 C1088 1.524 . S
C1089 C1090 1.397 . S
C1089 C1094 1.363 . S
C1090 H1067 0.950 . S
C1090 C1089 1.397 . S
C1090 C1091 1.334 . S
C1091 H1068 0.950 . S
C1091 C1090 1.334 . S
C1091 C1092 1.287 . S
C1092 C1091 1.287 . S
C1092 C1093 1.524 . S
C1092 H1111 0.913 . S
C1093 H1069 0.950 . S
C1093 C1092 1.524 . S
C1093 C1094 1.415 . S
C1094 H1070 0.950 . S
C1094 C1089 1.363 . S
C1094 C1093 1.415 . S
C1095 H1071 0.951 . S
C1095 C1096 1.366 1_554 S
C1095 C1097 1.388 . S
C1096 C1095 1.366 1_556 S
C1096 C1100 1.385 . S
C1097 H1072 0.951 . S
C1097 C1095 1.388 . S
C1097 C1098 1.366 . S
C1098 C1097 1.366 . S
C1098 C1099 1.414 . S
C1098 C1101 1.499 . S
C1099 H1073 0.950 . S
C1099 C1098 1.414 . S
C1099 C1100 1.374 1_554 S
C1100 H1074 0.950 . S
C1100 C1096 1.385 . S
C1100 C1099 1.374 1_556 S
C1101 C1098 1.499 . S
C1101 C1102 1.373 . S
C1101 C1103 1.389 . S
C1102 H1075 0.950 . S
C1102 C1088 1.377 . S
C1102 C1101 1.373 . S
C1103 C1087 1.377 . S
C1103 C1101 1.389 . S
C1103 C1104 1.524 . S
C1104 C1103 1.524 . S
C1104 C1105 1.397 1_554 S
C1104 C1109 1.363 . S
C1105 H1076 0.950 . S
C1105 C1104 1.397 1_556 S
C1105 C1106 1.334 . S
C1106 H1077 0.950 . S
C1106 C1105 1.334 . S
C1106 C1107 1.287 . S
C1107 C1106 1.287 . S
C1107 C1108 1.518 1_556 S
C1107 H1110 0.999 . S
C1108 H1078 0.951 . S
C1108 C1107 1.518 1_554 S
C1108 C1109 1.419 . S
C1109 H1079 0.950 . S
C1109 C1104 1.363 . S
C1109 C1108 1.419 . S
H1110 C1107 0.999 . S
H1111 C1092 0.913 . S
H1112 C1130 0.961 . S
H1113 C1132 0.951 . S
H1114 C1134 0.950 . S
H1115 C1135 0.950 . S
H1116 C1137 0.950 . S
H1117 C1140 0.950 . S
H1118 C1141 0.950 . S
H1119 C1143 0.950 . S
H1120 C1144 0.950 . S
H1121 C1145 0.951 . S
H1122 C1147 0.951 . S
H1123 C1149 0.950 . S
H1124 C1150 0.950 . S
H1125 C1152 0.950 . S
H1126 C1155 0.950 . S
H1127 C1156 0.950 . S
H1128 C1158 0.950 1_554 S
H1129 C1159 0.950 . S
C1130 H1112 0.961 . S
C1130 C1131 1.366 . S
C1130 C1132 1.388 . S
C1131 C1130 1.366 . S
C1131 C1135 1.385 . S
C1132 H1113 0.951 . S
C1132 C1130 1.388 . S
C1132 C1133 1.366 . S
C1133 C1132 1.366 . S
C1133 C1134 1.414 . S
C1133 C1136 1.499 . S
C1134 H1114 0.950 . S
C1134 C1133 1.414 . S
C1134 C1135 1.374 . S
C1135 H1115 0.950 . S
C1135 C1131 1.385 . S
C1135 C1134 1.374 . S
C1136 C1133 1.499 . S
C1136 C1137 1.373 . S
C1136 C1138 1.389 1_455 S
C1137 H1116 0.950 . S
C1137 C1136 1.373 . S
C1137 C1153 1.377 . S
C1138 C1136 1.389 1_655 S
C1138 C1139 1.524 . S
C1138 C1152 1.377 . S
C1139 C1138 1.524 . S
C1139 C1140 1.397 . S
C1139 C1144 1.363 . S
C1140 H1117 0.950 . S
C1140 C1139 1.397 . S
C1140 C1141 1.334 . S
C1141 H1118 0.950 . S
C1141 C1140 1.334 . S
C1141 C1142 1.287 . S
C1142 C1141 1.287 . S
C1142 C1143 1.524 . S
C1142 H1161 0.913 . S
C1143 H1119 0.950 . S
C1143 C1142 1.524 . S
C1143 C1144 1.415 . S
C1144 H1120 0.950 . S
C1144 C1139 1.363 . S
C1144 C1143 1.415 . S
C1145 H1121 0.951 . S
C1145 C1146 1.366 . S
C1145 C1147 1.388 . S
C1146 C1145 1.366 . S
C1146 C1150 1.385 . S
C1147 H1122 0.951 . S
C1147 C1145 1.388 . S
C1147 C1148 1.366 . S
C1148 C1147 1.366 . S
C1148 C1149 1.414 . S
C1148 C1151 1.499 . S
C1149 H1123 0.950 . S
C1149 C1148 1.414 . S
C1149 C1150 1.374 . S
C1150 H1124 0.950 . S
C1150 C1146 1.385 . S
C1150 C1149 1.374 . S
C1151 C1148 1.499 . S
C1151 C1152 1.373 1_455 S
C1151 C1153 1.389 . S
C1152 H1125 0.950 . S
C1152 C1138 1.377 . S
C1152 C1151 1.373 1_655 S
C1153 C1137 1.377 . S
C1153 C1151 1.389 . S
C1153 C1154 1.524 . S
C1154 C1153 1.524 . S
C1154 C1155 1.397 . S
C1154 C1159 1.363 . S
C1155 H1126 0.950 . S
C1155 C1154 1.397 . S
C1155 C1156 1.334 . S
C1156 H1127 0.950 . S
C1156 C1155 1.334 . S
C1156 C1157 1.287 . S
C1157 C1156 1.287 . S
C1157 C1158 1.524 . S
C1157 H1160 0.999 . S
C1158 H1128 0.950 1_556 S
C1158 C1157 1.524 . S
C1158 C1159 1.415 . S
C1159 H1129 0.950 . S
C1159 C1154 1.363 . S
C1159 C1158 1.415 . S
H1160 C1157 0.999 . S
H1161 C1142 0.913 . S
H1162 C1180 0.951 . S
H1163 C1182 0.951 . S
H1164 C1184 0.950 . S
H1165 C1185 0.950 . S
H1166 C1187 0.950 . S
H1167 C1190 0.950 . S
H1168 C1191 0.950 . S
H1169 C1193 0.950 1_545 S
H1170 C1194 0.950 . S
H1171 C1195 0.951 1_565 S
H1172 C1197 0.924 1_565 S
H1173 C1199 0.950 . S
H1174 C1200 0.950 . S
H1175 C1202 0.950 . S
H1176 C1205 0.950 . S
H1177 C1206 0.950 . S
H1178 C1208 0.950 . S
H1179 C1209 0.950 . S
C1180 H1162 0.951 . S
C1180 C1181 1.366 . S
C1180 C1182 1.388 . S
C1181 C1180 1.366 . S
C1181 C1185 1.385 1_545 S
C1182 H1163 0.951 . S
C1182 C1180 1.388 . S
C1182 C1183 1.366 . S
C1183 C1182 1.366 . S
C1183 C1184 1.414 1_545 S
C1183 C1186 1.499 . S
C1184 H1164 0.950 . S
C1184 C1183 1.414 1_565 S
C1184 C1185 1.374 . S
C1185 H1165 0.950 . S
C1185 C1181 1.385 1_565 S
C1185 C1184 1.374 . S
C1186 C1183 1.499 . S
C1186 C1187 1.373 . S
C1186 C1188 1.389 . S
C1187 H1166 0.950 . S
C1187 C1186 1.373 . S
C1187 C1203 1.377 . S
C1188 C1186 1.389 . S
C1188 C1189 1.524 1_545 S
C1188 C1202 1.377 . S
C1189 C1188 1.524 1_565 S
C1189 C1190 1.397 . S
C1189 C1194 1.363 1_565 S
C1190 H1167 0.950 . S
C1190 C1189 1.397 . S
C1190 C1191 1.334 . S
C1191 H1168 0.950 . S
C1191 C1190 1.334 . S
C1191 C1192 1.287 . S
C1192 C1191 1.287 . S
C1192 C1193 1.524 . S
C1192 H1211 0.913 . S
C1193 H1169 0.950 1_565 S
C1193 C1192 1.524 . S
C1193 C1194 1.415 1_565 S
C1194 H1170 0.950 . S
C1194 C1189 1.363 1_545 S
C1194 C1193 1.415 1_545 S
C1195 H1171 0.951 1_545 S
C1195 C1196 1.366 . S
C1195 C1197 1.390 . S
C1196 C1195 1.366 . S
C1196 C1200 1.385 . S
C1197 H1172 0.924 1_545 S
C1197 C1195 1.390 . S
C1197 C1198 1.394 . S
C1198 C1197 1.394 . S
C1198 C1199 1.414 . S
C1198 C1201 1.499 . S
C1199 H1173 0.950 . S
C1199 C1198 1.414 . S
C1199 C1200 1.374 . S
C1200 H1174 0.950 . S
C1200 C1196 1.385 . S
C1200 C1199 1.374 . S
C1201 C1198 1.499 . S
C1201 C1202 1.373 . S
C1201 C1203 1.389 . S
C1202 H1175 0.950 . S
C1202 C1188 1.377 . S
C1202 C1201 1.373 . S
C1203 C1187 1.377 . S
C1203 C1201 1.389 . S
C1203 C1204 1.524 . S
C1204 C1203 1.524 . S
C1204 C1205 1.397 . S
C1204 C1209 1.363 1_556 S
C1205 H1176 0.950 . S
C1205 C1204 1.397 . S
C1205 C1206 1.334 . S
C1206 H1177 0.950 . S
C1206 C1205 1.334 . S
C1206 C1207 1.287 1_556 S
C1207 C1206 1.287 1_554 S
C1207 C1208 1.524 . S
C1207 H1210 0.999 . S
C1208 H1178 0.950 . S
C1208 C1207 1.524 . S
C1208 C1209 1.415 . S
C1209 H1179 0.950 . S
C1209 C1204 1.363 1_554 S
C1209 C1208 1.415 . S
H1210 C1207 0.999 . S
H1211 C1192 0.913 . S
H1212 C1230 0.951 . S
H1213 C1232 0.951 . S
H1214 C1234 0.950 . S
H1215 C1235 0.950 . S
H1216 C1237 0.950 . S
H1217 C1240 0.950 . S
H1218 C1241 0.950 . S
H1219 C1243 0.950 . S
H1220 C1244 0.950 . S
H1221 C1245 0.951 . S
H1222 C1247 0.951 . S
H1223 C1249 0.950 . S
H1224 C1250 0.950 . S
H1225 C1252 0.950 . S
H1226 C1255 0.950 . S
H1227 C1256 0.950 . S
H1228 C1258 0.950 . S
H1229 C1259 0.950 . S
C1230 H1212 0.951 . S
C1230 C1231 1.366 . S
C1230 C1232 1.388 . S
C1231 C1230 1.366 . S
C1231 C1235 1.385 . S
C1232 H1213 0.951 . S
C1232 C1230 1.388 . S
C1232 C1233 1.366 . S
C1233 C1232 1.366 . S
C1233 C1234 1.414 . S
C1233 C1236 1.499 . S
C1234 H1214 0.950 . S
C1234 C1233 1.414 . S
C1234 C1235 1.374 . S
C1235 H1215 0.950 . S
C1235 C1231 1.385 . S
C1235 C1234 1.374 . S
C1236 C1233 1.499 . S
C1236 C1237 1.373 . S
C1236 C1238 1.389 . S
C1237 H1216 0.950 . S
C1237 C1236 1.373 . S
C1237 C1253 1.377 . S
C1238 C1236 1.389 . S
C1238 C1239 1.524 . S
C1238 C1252 1.377 . S
C1239 C1238 1.524 . S
C1239 C1240 1.397 1_556 S
C1239 C1244 1.363 . S
C1240 H1217 0.950 . S
C1240 C1239 1.397 1_554 S
C1240 C1241 1.334 . S
C1241 H1218 0.950 . S
C1241 C1240 1.334 . S
C1241 C1242 1.287 . S
C1242 C1241 1.287 . S
C1242 C1243 1.524 . S
C1242 H1261 0.913 . S
C1243 H1219 0.950 . S
C1243 C1242 1.524 . S
C1243 C1244 1.415 1_554 S
C1244 H1220 0.950 . S
C1244 C1239 1.363 . S
C1244 C1243 1.415 1_556 S
C1245 H1221 0.951 . S
C1245 C1246 1.366 . S
C1245 C1247 1.388 . S
C1246 C1245 1.366 . S
C1246 C1250 1.385 . S
C1247 H1222 0.951 . S
C1247 C1245 1.388 . S
C1247 C1248 1.366 . S
C1248 C1247 1.366 . S
C1248 C1249 1.414 . S
C1248 C1251 1.499 . S
C1249 H1223 0.950 . S
C1249 C1248 1.414 . S
C1249 C1250 1.374 . S
C1250 H1224 0.950 . S
C1250 C1246 1.385 . S
C1250 C1249 1.374 . S
C1251 C1248 1.499 . S
C1251 C1252 1.373 . S
C1251 C1253 1.389 . S
C1252 H1225 0.950 . S
C1252 C1238 1.377 . S
C1252 C1251 1.373 . S
C1253 C1237 1.377 . S
C1253 C1251 1.389 . S
C1253 C1254 1.524 . S
C1254 C1253 1.524 . S
C1254 C1255 1.397 . S
C1254 C1259 1.363 . S
C1255 H1226 0.950 . S
C1255 C1254 1.397 . S
C1255 C1256 1.334 . S
C1256 H1227 0.950 . S
C1256 C1255 1.334 . S
C1256 C1257 1.287 . S
C1257 C1256 1.287 . S
C1257 C1258 1.524 . S
C1257 H1260 0.999 . S
C1258 H1228 0.950 . S
C1258 C1257 1.524 . S
C1258 C1259 1.415 . S
C1259 H1229 0.950 . S
C1259 C1254 1.363 . S
C1259 C1258 1.415 . S
H1260 C1257 0.999 . S
H1261 C1242 0.913 . S
H1262 C1280 0.951 . S
H1263 C1282 0.951 . S
H1264 C1284 0.950 . S
H1265 C1285 0.950 . S
H1266 C1287 0.950 . S
H1267 C1290 0.950 . S
H1268 C1291 0.950 . S
H1269 C1293 0.950 . S
H1270 C1294 0.950 . S
H1271 C1295 0.951 . S
H1272 C1297 0.951 . S
H1273 C1299 0.950 . S
H1274 C1300 0.950 . S
H1275 C1302 0.950 . S
H1276 C1305 0.950 . S
H1277 C1306 0.950 . S
H1278 C1308 0.950 . S
H1279 C1309 0.950 . S
C1280 H1262 0.951 . S
C1280 C1281 1.366 . S
C1280 C1282 1.388 . S
C1281 C1280 1.366 . S
C1281 C1285 1.385 . S
C1282 H1263 0.951 . S
C1282 C1280 1.388 . S
C1282 C1283 1.366 . S
C1283 C1282 1.366 . S
C1283 C1284 1.414 . S
C1283 C1286 1.499 . S
C1284 H1264 0.950 . S
C1284 C1283 1.414 . S
C1284 C1285 1.374 . S
C1285 H1265 0.950 . S
C1285 C1281 1.385 . S
C1285 C1284 1.374 . S
C1286 C1283 1.499 . S
C1286 C1287 1.373 . S
C1286 C1288 1.389 . S
C1287 H1266 0.950 . S
C1287 C1286 1.373 . S
C1287 C1303 1.377 . S
C1288 C1286 1.389 . S
C1288 C1289 1.524 . S
C1288 C1302 1.377 . S
C1289 C1288 1.524 . S
C1289 C1290 1.397 . S
C1289 C1294 1.363 . S
C1290 H1267 0.950 . S
C1290 C1289 1.397 . S
C1290 C1291 1.334 . S
C1291 H1268 0.950 . S
C1291 C1290 1.334 . S
C1291 C1292 1.287 . S
C1292 C1291 1.287 . S
C1292 C1293 1.524 . S
C1292 H1311 0.913 . S
C1293 H1269 0.950 . S
C1293 C1292 1.524 . S
C1293 C1294 1.415 . S
C1294 H1270 0.950 . S
C1294 C1289 1.363 . S
C1294 C1293 1.415 . S
C1295 H1271 0.951 . S
C1295 C1296 1.366 . S
C1295 C1297 1.388 . S
C1296 C1295 1.366 . S
C1296 C1300 1.385 . S
C1297 H1272 0.951 . S
C1297 C1295 1.388 . S
C1297 C1298 1.366 . S
C1298 C1297 1.366 . S
C1298 C1299 1.414 . S
C1298 C1301 1.499 . S
C1299 H1273 0.950 . S
C1299 C1298 1.414 . S
C1299 C1300 1.374 . S
C1300 H1274 0.950 . S
C1300 C1296 1.385 . S
C1300 C1299 1.374 . S
C1301 C1298 1.499 . S
C1301 C1302 1.373 . S
C1301 C1303 1.389 . S
C1302 H1275 0.950 . S
C1302 C1288 1.377 . S
C1302 C1301 1.373 . S
C1303 C1287 1.377 . S
C1303 C1301 1.389 . S
C1303 C1304 1.524 . S
C1304 C1303 1.524 . S
C1304 C1305 1.397 . S
C1304 C1309 1.363 1_556 S
C1305 H1276 0.950 . S
C1305 C1304 1.397 . S
C1305 C1306 1.334 . S
C1306 H1277 0.950 . S
C1306 C1305 1.334 . S
C1306 C1307 1.287 1_556 S
C1307 C1306 1.287 1_554 S
C1307 C1308 1.524 . S
C1307 H1310 0.999 . S
C1308 H1278 0.950 . S
C1308 C1307 1.524 . S
C1308 C1309 1.415 . S
C1309 H1279 0.950 . S
C1309 C1304 1.363 1_554 S
C1309 C1308 1.415 . S
H1310 C1307 0.999 . S
H1311 C1292 0.913 . S
H1312 C1330 0.951 . S
H1313 C1332 0.951 . S
H1314 C1334 0.950 . S
H1315 C1335 0.950 . S
H1316 C1337 0.950 . S
H1317 C1340 0.950 . S
H1318 C1341 0.950 . S
H1319 C1343 0.950 . S
H1320 C1344 0.950 . S
H1321 C1345 0.951 . S
H1322 C1347 0.951 . S
H1323 C1349 0.950 . S
H1324 C1350 0.950 . S
H1325 C1352 0.950 . S
H1326 C1355 0.950 . S
H1327 C1356 0.950 . S
H1328 C1358 0.950 . S
H1329 C1359 0.950 . S
C1330 H1312 0.951 . S
C1330 C1331 1.406 . S
C1330 C1332 1.388 . S
C1331 C1330 1.406 . S
C1331 C1335 1.346 1_655 S
C1332 H1313 0.951 . S
C1332 C1330 1.388 . S
C1332 C1333 1.366 . S
C1333 C1332 1.366 . S
C1333 C1334 1.414 1_655 S
C1333 C1336 1.499 . S
C1334 H1314 0.950 . S
C1334 C1333 1.414 1_455 S
C1334 C1335 1.374 . S
C1335 H1315 0.950 . S
C1335 C1331 1.346 1_455 S
C1335 C1334 1.374 . S
C1336 C1333 1.499 . S
C1336 C1337 1.373 1_655 S
C1336 C1338 1.389 . S
C1337 H1316 0.950 . S
C1337 C1336 1.373 1_455 S
C1337 C1353 1.377 . S
C1338 C1336 1.389 . S
C1338 C1339 1.524 . S
C1338 C1352 1.377 . S
C1339 C1338 1.524 . S
C1339 C1340 1.397 . S
C1339 C1344 1.363 . S
C1340 H1317 0.950 . S
C1340 C1339 1.397 . S
C1340 C1341 1.334 . S
C1341 H1318 0.950 . S
C1341 C1340 1.334 . S
C1341 C1342 1.287 . S
C1342 C1341 1.287 . S
C1342 C1343 1.524 . S
C1342 H1361 0.913 . S
C1343 H1319 0.950 . S
C1343 C1342 1.524 . S
C1343 C1344 1.415 . S
C1344 H1320 0.950 . S
C1344 C1339 1.363 . S
C1344 C1343 1.415 . S
C1345 H1321 0.951 . S
C1345 C1346 1.366 1_455 S
C1345 C1347 1.388 . S
C1346 C1345 1.366 1_655 S
C1346 C1350 1.385 . S
C1347 H1322 0.951 . S
C1347 C1345 1.388 . S
C1347 C1348 1.366 1_455 S
C1348 C1347 1.366 1_655 S
C1348 C1349 1.414 . S
C1348 C1351 1.499 . S
C1349 H1323 0.950 . S
C1349 C1348 1.414 . S
C1349 C1350 1.374 . S
C1350 H1324 0.950 . S
C1350 C1346 1.385 . S
C1350 C1349 1.374 . S
C1351 C1348 1.499 . S
C1351 C1352 1.373 . S
C1351 C1353 1.389 1_655 S
C1352 H1325 0.950 . S
C1352 C1338 1.377 . S
C1352 C1351 1.373 . S
C1353 C1337 1.377 . S
C1353 C1351 1.389 1_455 S
C1353 C1354 1.524 . S
C1354 C1353 1.524 . S
C1354 C1355 1.397 . S
C1354 C1359 1.363 . S
C1355 H1326 0.950 . S
C1355 C1354 1.397 . S
C1355 C1356 1.334 . S
C1356 H1327 0.950 . S
C1356 C1355 1.334 . S
C1356 C1357 1.287 . S
C1357 C1356 1.287 . S
C1357 C1358 1.524 . S
C1357 H1360 0.999 . S
C1358 H1328 0.950 . S
C1358 C1357 1.524 . S
C1358 C1359 1.415 . S
C1359 H1329 0.950 . S
C1359 C1354 1.363 . S
C1359 C1358 1.415 . S
H1360 C1357 0.999 . S
H1361 C1342 0.913 . S
H1362 C1380 0.951 . S
H1363 C1382 0.951 . S
H1364 C1384 0.950 . S
H1365 C1385 0.950 . S
H1366 C1387 0.950 . S
H1367 C1390 0.950 . S
H1368 C1391 0.950 . S
H1369 C1393 0.950 . S
H1370 C1394 0.950 . S
H1371 C1395 0.947 1_545 S
H1372 C1397 0.964 . S
H1373 C1399 0.950 . S
H1374 C1400 0.950 . S
H1375 C1402 0.950 . S
H1376 C1405 0.950 . S
H1377 C1406 0.950 . S
H1378 C1408 0.950 . S
H1379 C1409 0.950 . S
C1380 H1362 0.951 . S
C1380 C1381 1.383 . S
C1380 C1382 1.388 . S
C1381 C1380 1.383 . S
C1381 C1385 1.372 1_565 S
C1382 H1363 0.951 . S
C1382 C1380 1.388 . S
C1382 C1383 1.366 . S
C1383 C1382 1.366 . S
C1383 C1384 1.414 1_565 S
C1383 C1386 1.499 . S
C1384 H1364 0.950 . S
C1384 C1383 1.414 1_545 S
C1384 C1385 1.374 . S
C1385 H1365 0.950 . S
C1385 C1381 1.372 1_545 S
C1385 C1384 1.374 . S
C1386 C1383 1.499 . S
C1386 C1387 1.373 1_565 S
C1386 C1388 1.389 . S
C1387 H1366 0.950 . S
C1387 C1386 1.373 1_545 S
C1387 C1403 1.377 . S
C1388 C1386 1.389 . S
C1388 C1389 1.524 . S
C1388 C1402 1.377 . S
C1389 C1388 1.524 . S
C1389 C1390 1.397 . S
C1389 C1394 1.363 . S
C1390 H1367 0.950 . S
C1390 C1389 1.397 . S
C1390 C1391 1.334 . S
C1391 H1368 0.950 . S
C1391 C1390 1.334 . S
C1391 C1392 1.287 . S
C1392 C1391 1.287 . S
C1392 C1393 1.524 . S
C1392 H1411 0.913 . S
C1393 H1369 0.950 . S
C1393 C1392 1.524 . S
C1393 C1394 1.415 . S
C1394 H1370 0.950 . S
C1394 C1389 1.363 . S
C1394 C1393 1.415 . S
C1395 H1371 0.947 1_565 S
C1395 C1396 1.371 . S
C1395 C1397 1.386 1_565 S
C1396 C1395 1.371 . S
C1396 C1400 1.385 . S
C1397 H1372 0.964 . S
C1397 C1395 1.386 1_545 S
C1397 C1398 1.356 1_545 S
C1398 C1397 1.356 1_565 S
C1398 C1399 1.414 . S
C1398 C1401 1.499 . S
C1399 H1373 0.950 . S
C1399 C1398 1.414 . S
C1399 C1400 1.374 . S
C1400 H1374 0.950 . S
C1400 C1396 1.385 . S
C1400 C1399 1.374 . S
C1401 C1398 1.499 . S
C1401 C1402 1.373 . S
C1401 C1403 1.389 1_565 S
C1402 H1375 0.950 . S
C1402 C1388 1.377 . S
C1402 C1401 1.373 . S
C1403 C1387 1.377 . S
C1403 C1401 1.389 1_545 S
C1403 C1404 1.524 . S
C1404 C1403 1.524 . S
C1404 C1405 1.397 . S
C1404 C1409 1.363 . S
C1405 H1376 0.950 . S
C1405 C1404 1.397 . S
C1405 C1406 1.334 . S
C1406 H1377 0.950 . S
C1406 C1405 1.334 . S
C1406 C1407 1.287 . S
C1407 C1406 1.287 . S
C1407 C1408 1.524 . S
C1407 H1410 0.999 . S
C1408 H1378 0.950 . S
C1408 C1407 1.524 . S
C1408 C1409 1.415 . S
C1409 H1379 0.950 . S
C1409 C1404 1.363 . S
C1409 C1408 1.415 . S
H1410 C1407 0.999 . S
H1411 C1392 0.913 . S
H1412 C1430 0.951 . S
H1413 C1432 0.951 . S
H1414 C1434 0.950 . S
H1415 C1435 0.950 . S
H1416 C1437 0.950 . S
H1417 C1440 0.950 . S
H1418 C1441 0.950 . S
H1419 C1443 0.950 . S
H1420 C1444 0.950 . S
H1421 C1445 0.951 . S
H1422 C1447 0.951 . S
H1423 C1449 0.950 . S
H1424 C1450 0.950 . S
H1425 C1452 0.950 . S
H1426 C1455 0.950 . S
H1427 C1456 0.950 . S
H1428 C1458 0.950 . S
H1429 C1459 0.950 . S
C1430 H1412 0.951 . S
C1430 C1431 1.366 . S
C1430 C1432 1.388 . S
C1431 C1430 1.366 . S
C1431 C1435 1.385 . S
C1432 H1413 0.951 . S
C1432 C1430 1.388 . S
C1432 C1433 1.366 . S
C1433 C1432 1.366 . S
C1433 C1434 1.414 . S
C1433 C1436 1.499 . S
C1434 H1414 0.950 . S
C1434 C1433 1.414 . S
C1434 C1435 1.374 . S
C1435 H1415 0.950 . S
C1435 C1431 1.385 . S
C1435 C1434 1.374 . S
C1436 C1433 1.499 . S
C1436 C1437 1.373 . S
C1436 C1438 1.389 . S
C1437 H1416 0.950 . S
C1437 C1436 1.373 . S
C1437 C1453 1.377 . S
C1438 C1436 1.389 . S
C1438 C1439 1.524 . S
C1438 C1452 1.377 . S
C1439 C1438 1.524 . S
C1439 C1440 1.397 . S
C1439 C1444 1.363 . S
C1440 H1417 0.950 . S
C1440 C1439 1.397 . S
C1440 C1441 1.334 . S
C1441 H1418 0.950 . S
C1441 C1440 1.334 . S
C1441 C1442 1.287 . S
C1442 C1441 1.287 . S
C1442 C1443 1.524 . S
C1442 H1461 0.913 . S
C1443 H1419 0.950 . S
C1443 C1442 1.524 . S
C1443 C1444 1.415 . S
C1444 H1420 0.950 . S
C1444 C1439 1.363 . S
C1444 C1443 1.415 . S
C1445 H1421 0.951 . S
C1445 C1446 1.366 . S
C1445 C1447 1.388 . S
C1446 C1445 1.366 . S
C1446 C1450 1.385 . S
C1447 H1422 0.951 . S
C1447 C1445 1.388 . S
C1447 C1448 1.366 . S
C1448 C1447 1.366 . S
C1448 C1449 1.414 . S
C1448 C1451 1.499 . S
C1449 H1423 0.950 . S
C1449 C1448 1.414 . S
C1449 C1450 1.374 . S
C1450 H1424 0.950 . S
C1450 C1446 1.385 . S
C1450 C1449 1.374 . S
C1451 C1448 1.499 . S
C1451 C1452 1.373 . S
C1451 C1453 1.389 . S
C1452 H1425 0.950 . S
C1452 C1438 1.377 . S
C1452 C1451 1.373 . S
C1453 C1437 1.377 . S
C1453 C1451 1.389 . S
C1453 C1454 1.524 . S
C1454 C1453 1.524 . S
C1454 C1455 1.397 . S
C1454 C1459 1.363 . S
C1455 H1426 0.950 . S
C1455 C1454 1.397 . S
C1455 C1456 1.334 . S
C1456 H1427 0.950 . S
C1456 C1455 1.334 . S
C1456 C1457 1.287 . S
C1457 C1456 1.287 . S
C1457 C1458 1.524 . S
C1457 H1460 0.999 . S
C1458 H1428 0.950 . S
C1458 C1457 1.524 . S
C1458 C1459 1.415 . S
C1459 H1429 0.950 . S
C1459 C1454 1.363 . S
C1459 C1458 1.415 . S
H1460 C1457 0.999 . S
H1461 C1442 0.913 . S
H1462 C1480 0.951 . S
H1463 C1482 0.951 . S
H1464 C1484 0.950 . S
H1465 C1485 0.950 . S
H1466 C1487 0.950 . S
H1467 C1490 0.950 . S
H1468 C1491 0.950 . S
H1469 C1493 0.950 . S
H1470 C1494 0.950 . S
H1471 C1495 0.951 . S
H1472 C1497 0.951 . S
H1473 C1499 0.950 . S
H1474 C1500 0.950 . S
H1475 C1502 0.950 . S
H1476 C1505 0.950 . S
H1477 C1506 0.950 . S
H1478 C1508 0.950 . S
H1479 C1509 0.950 . S
C1480 H1462 0.951 . S
C1480 C1481 1.366 . S
C1480 C1482 1.388 . S
C1481 C1480 1.366 . S
C1481 C1485 1.385 . S
C1482 H1463 0.951 . S
C1482 C1480 1.388 . S
C1482 C1483 1.366 . S
C1483 C1482 1.366 . S
C1483 C1484 1.414 . S
C1483 C1486 1.499 . S
C1484 H1464 0.950 . S
C1484 C1483 1.414 . S
C1484 C1485 1.374 . S
C1485 H1465 0.950 . S
C1485 C1481 1.385 . S
C1485 C1484 1.374 . S
C1486 C1483 1.499 . S
C1486 C1487 1.373 . S
C1486 C1488 1.389 . S
C1487 H1466 0.950 . S
C1487 C1486 1.373 . S
C1487 C1503 1.377 . S
C1488 C1486 1.389 . S
C1488 C1489 1.524 . S
C1488 C1502 1.377 . S
C1489 C1488 1.524 . S
C1489 C1490 1.397 . S
C1489 C1494 1.363 . S
C1490 H1467 0.950 . S
C1490 C1489 1.397 . S
C1490 C1491 1.334 . S
C1491 H1468 0.950 . S
C1491 C1490 1.334 . S
C1491 C1492 1.287 . S
C1492 C1491 1.287 . S
C1492 C1493 1.524 . S
C1492 H1511 0.913 . S
C1493 H1469 0.950 . S
C1493 C1492 1.524 . S
C1493 C1494 1.415 . S
C1494 H1470 0.950 . S
C1494 C1489 1.363 . S
C1494 C1493 1.415 . S
C1495 H1471 0.951 . S
C1495 C1496 1.366 . S
C1495 C1497 1.388 . S
C1496 C1495 1.366 . S
C1496 C1500 1.385 . S
C1497 H1472 0.951 . S
C1497 C1495 1.388 . S
C1497 C1498 1.366 . S
C1498 C1497 1.366 . S
C1498 C1499 1.414 . S
C1498 C1501 1.499 . S
C1499 H1473 0.950 . S
C1499 C1498 1.414 . S
C1499 C1500 1.374 . S
C1500 H1474 0.950 . S
C1500 C1496 1.385 . S
C1500 C1499 1.374 . S
C1501 C1498 1.499 . S
C1501 C1502 1.373 . S
C1501 C1503 1.389 . S
C1502 H1475 0.950 . S
C1502 C1488 1.377 . S
C1502 C1501 1.373 . S
C1503 C1487 1.377 . S
C1503 C1501 1.389 . S
C1503 C1504 1.524 . S
C1504 C1503 1.524 . S
C1504 C1505 1.397 . S
C1504 C1509 1.363 . S
C1505 H1476 0.950 . S
C1505 C1504 1.397 . S
C1505 C1506 1.334 . S
C1506 H1477 0.950 . S
C1506 C1505 1.334 . S
C1506 C1507 1.287 . S
C1507 C1506 1.287 . S
C1507 C1508 1.524 . S
C1507 H1510 0.999 . S
C1508 H1478 0.950 . S
C1508 C1507 1.524 . S
C1508 C1509 1.415 . S
C1509 H1479 0.950 . S
C1509 C1504 1.363 . S
C1509 C1508 1.415 . S
H1510 C1507 0.999 . S
H1511 C1492 0.913 . S
C331 C125 1.798 . S
C346 C161 1.837 . S
C396 C201 1.837 . S
C381 C144 1.799 . S
C446 C241 1.837 . S
C431 C87 1.798 . S
C496 C281 1.837 . S
C481 C106 1.799 . S
C546 C170 1.842 . S
C531 C49 1.803 . S
C581 C68 1.801 . S
C596 C210 1.837 . S
C631 C11 1.802 . S
C646 C250 1.837 . S
C681 C30 1.801 . S
C696 C290 1.843 . S
C746 C167 0.356 . S
C731 C97 0.460 . S
C796 C207 0.354 . S
C781 C116 0.459 . S
C846 C247 0.354 . S
C831 C135 0.459 . S
C881 C78 0.458 . S
C896 C287 0.354 . S
C931 C21 0.458 . S
C946 C158 0.356 . S
C996 C198 0.356 . S
C981 C40 0.461 . S
C1046 C238 0.354 . S
C1031 C59 0.457 . S
C1081 C2 0.459 . S
C1096 C278 0.356 . S
C1131 C101 1.928 . S
C1146 C171 2.090 . S
C1181 C120 1.927 . S
C1196 C211 2.090 . S
C1246 C251 2.090 . S
C1231 C139 1.929 . S
C1296 C291 2.090 . S
C1281 C82 1.927 . S
C1331 C25 1.927 . S
C1346 C162 2.090 . S
C1396 C202 2.090 . S
C1381 C44 1.927 . S
C1446 C242 2.090 . S
C1431 C63 1.927 . S
C1481 C6 1.926 . S
C1496 C282 2.090 . S
