# Generated by pormake.
# Topology tbo, (3,4)-cn, num edge types: 1
# Building blocks:
#     Node 0, Type 0, BuildingBlock: BETDIP_clean_linker_0, # of connection points: 3
#     Node 1, Type 0, BuildingBlock: BETDIP_clean_linker_0, # of connection points: 3
#     Node 2, Type 0, BuildingBlock: BETDIP_clean_linker_0, # of connection points: 3
#     Node 3, Type 0, BuildingBlock: BETDIP_clean_linker_0, # of connection points: 3
#     Node 4, Type 0, BuildingBlock: BETDIP_clean_linker_0, # of connection points: 3
#     Node 5, Type 0, BuildingBlock: BETDIP_clean_linker_0, # of connection points: 3
#     Node 6, Type 0, BuildingBlock: BETDIP_clean_linker_0, # of connection points: 3
#     Node 7, Type 0, BuildingBlock: BETDIP_clean_linker_0, # of connection points: 3
#     Node 8, Type 0, BuildingBlock: BETDIP_clean_linker_0, # of connection points: 3
#     Node 9, Type 0, BuildingBlock: BETDIP_clean_linker_0, # of connection points: 3
#     Node 10, Type 0, BuildingBlock: BETDIP_clean_linker_0, # of connection points: 3
#     Node 11, Type 0, BuildingBlock: BETDIP_clean_linker_0, # of connection points: 3
#     Node 12, Type 0, BuildingBlock: BETDIP_clean_linker_0, # of connection points: 3
#     Node 13, Type 0, BuildingBlock: BETDIP_clean_linker_0, # of connection points: 3
#     Node 14, Type 0, BuildingBlock: BETDIP_clean_linker_0, # of connection points: 3
#     Node 15, Type 0, BuildingBlock: BETDIP_clean_linker_0, # of connection points: 3
#     Node 16, Type 0, BuildingBlock: BETDIP_clean_linker_0, # of connection points: 3
#     Node 17, Type 0, BuildingBlock: BETDIP_clean_linker_0, # of connection points: 3
#     Node 18, Type 0, BuildingBlock: BETDIP_clean_linker_0, # of connection points: 3
#     Node 19, Type 0, BuildingBlock: BETDIP_clean_linker_0, # of connection points: 3
#     Node 20, Type 0, BuildingBlock: BETDIP_clean_linker_0, # of connection points: 3
#     Node 21, Type 0, BuildingBlock: BETDIP_clean_linker_0, # of connection points: 3
#     Node 22, Type 0, BuildingBlock: BETDIP_clean_linker_0, # of connection points: 3
#     Node 23, Type 0, BuildingBlock: BETDIP_clean_linker_0, # of connection points: 3
#     Node 24, Type 0, BuildingBlock: BETDIP_clean_linker_0, # of connection points: 3
#     Node 25, Type 0, BuildingBlock: BETDIP_clean_linker_0, # of connection points: 3
#     Node 26, Type 0, BuildingBlock: BETDIP_clean_linker_0, # of connection points: 3
#     Node 27, Type 0, BuildingBlock: BETDIP_clean_linker_0, # of connection points: 3
#     Node 28, Type 0, BuildingBlock: BETDIP_clean_linker_0, # of connection points: 3
#     Node 29, Type 0, BuildingBlock: BETDIP_clean_linker_0, # of connection points: 3
#     Node 30, Type 0, BuildingBlock: BETDIP_clean_linker_0, # of connection points: 3
#     Node 31, Type 0, BuildingBlock: BETDIP_clean_linker_0, # of connection points: 3
#     Node 32, Type 1, BuildingBlock: ESEHIV_clean_sbu_0, # of connection points: 4
#     Node 33, Type 1, BuildingBlock: ESEHIV_clean_sbu_0, # of connection points: 4
#     Node 34, Type 1, BuildingBlock: ESEHIV_clean_sbu_0, # of connection points: 4
#     Node 35, Type 1, BuildingBlock: ESEHIV_clean_sbu_0, # of connection points: 4
#     Node 36, Type 1, BuildingBlock: ESEHIV_clean_sbu_0, # of connection points: 4
#     Node 37, Type 1, BuildingBlock: ESEHIV_clean_sbu_0, # of connection points: 4
#     Node 38, Type 1, BuildingBlock: ESEHIV_clean_sbu_0, # of connection points: 4
#     Node 39, Type 1, BuildingBlock: ESEHIV_clean_sbu_0, # of connection points: 4
#     Node 40, Type 1, BuildingBlock: ESEHIV_clean_sbu_0, # of connection points: 4
#     Node 41, Type 1, BuildingBlock: ESEHIV_clean_sbu_0, # of connection points: 4
#     Node 42, Type 1, BuildingBlock: ESEHIV_clean_sbu_0, # of connection points: 4
#     Node 43, Type 1, BuildingBlock: ESEHIV_clean_sbu_0, # of connection points: 4
#     Node 44, Type 1, BuildingBlock: ESEHIV_clean_sbu_0, # of connection points: 4
#     Node 45, Type 1, BuildingBlock: ESEHIV_clean_sbu_0, # of connection points: 4
#     Node 46, Type 1, BuildingBlock: ESEHIV_clean_sbu_0, # of connection points: 4
#     Node 47, Type 1, BuildingBlock: ESEHIV_clean_sbu_0, # of connection points: 4
#     Node 48, Type 1, BuildingBlock: ESEHIV_clean_sbu_0, # of connection points: 4
#     Node 49, Type 1, BuildingBlock: ESEHIV_clean_sbu_0, # of connection points: 4
#     Node 50, Type 1, BuildingBlock: ESEHIV_clean_sbu_0, # of connection points: 4
#     Node 51, Type 1, BuildingBlock: ESEHIV_clean_sbu_0, # of connection points: 4
#     Node 52, Type 1, BuildingBlock: ESEHIV_clean_sbu_0, # of connection points: 4
#     Node 53, Type 1, BuildingBlock: ESEHIV_clean_sbu_0, # of connection points: 4
#     Node 54, Type 1, BuildingBlock: ESEHIV_clean_sbu_0, # of connection points: 4
#     Node 55, Type 1, BuildingBlock: ESEHIV_clean_sbu_0, # of connection points: 4
#     Edge 56, Type (0, 1), BuildingBlock: TEMPAE_clean_linker_10, # of connection points: 2
#     Edge 57, Type (0, 1), BuildingBlock: TEMPAE_clean_linker_10, # of connection points: 2
#     Edge 58, Type (0, 1), BuildingBlock: TEMPAE_clean_linker_10, # of connection points: 2
#     Edge 59, Type (0, 1), BuildingBlock: TEMPAE_clean_linker_10, # of connection points: 2
#     Edge 60, Type (0, 1), BuildingBlock: TEMPAE_clean_linker_10, # of connection points: 2
#     Edge 61, Type (0, 1), BuildingBlock: TEMPAE_clean_linker_10, # of connection points: 2
#     Edge 62, Type (0, 1), BuildingBlock: TEMPAE_clean_linker_10, # of connection points: 2
#     Edge 63, Type (0, 1), BuildingBlock: TEMPAE_clean_linker_10, # of connection points: 2
#     Edge 64, Type (0, 1), BuildingBlock: TEMPAE_clean_linker_10, # of connection points: 2
#     Edge 65, Type (0, 1), BuildingBlock: TEMPAE_clean_linker_10, # of connection points: 2
#     Edge 66, Type (0, 1), BuildingBlock: TEMPAE_clean_linker_10, # of connection points: 2
#     Edge 67, Type (0, 1), BuildingBlock: TEMPAE_clean_linker_10, # of connection points: 2
#     Edge 68, Type (0, 1), BuildingBlock: TEMPAE_clean_linker_10, # of connection points: 2
#     Edge 69, Type (0, 1), BuildingBlock: TEMPAE_clean_linker_10, # of connection points: 2
#     Edge 70, Type (0, 1), BuildingBlock: TEMPAE_clean_linker_10, # of connection points: 2
#     Edge 71, Type (0, 1), BuildingBlock: TEMPAE_clean_linker_10, # of connection points: 2
#     Edge 72, Type (0, 1), BuildingBlock: TEMPAE_clean_linker_10, # of connection points: 2
#     Edge 73, Type (0, 1), BuildingBlock: TEMPAE_clean_linker_10, # of connection points: 2
#     Edge 74, Type (0, 1), BuildingBlock: TEMPAE_clean_linker_10, # of connection points: 2
#     Edge 75, Type (0, 1), BuildingBlock: TEMPAE_clean_linker_10, # of connection points: 2
#     Edge 76, Type (0, 1), BuildingBlock: TEMPAE_clean_linker_10, # of connection points: 2
#     Edge 77, Type (0, 1), BuildingBlock: TEMPAE_clean_linker_10, # of connection points: 2
#     Edge 78, Type (0, 1), BuildingBlock: TEMPAE_clean_linker_10, # of connection points: 2
#     Edge 79, Type (0, 1), BuildingBlock: TEMPAE_clean_linker_10, # of connection points: 2
#     Edge 80, Type (0, 1), BuildingBlock: TEMPAE_clean_linker_10, # of connection points: 2
#     Edge 81, Type (0, 1), BuildingBlock: TEMPAE_clean_linker_10, # of connection points: 2
#     Edge 82, Type (0, 1), BuildingBlock: TEMPAE_clean_linker_10, # of connection points: 2
#     Edge 83, Type (0, 1), BuildingBlock: TEMPAE_clean_linker_10, # of connection points: 2
#     Edge 84, Type (0, 1), BuildingBlock: TEMPAE_clean_linker_10, # of connection points: 2
#     Edge 85, Type (0, 1), BuildingBlock: TEMPAE_clean_linker_10, # of connection points: 2
#     Edge 86, Type (0, 1), BuildingBlock: TEMPAE_clean_linker_10, # of connection points: 2
#     Edge 87, Type (0, 1), BuildingBlock: TEMPAE_clean_linker_10, # of connection points: 2
#     Edge 88, Type (0, 1), BuildingBlock: TEMPAE_clean_linker_10, # of connection points: 2
#     Edge 89, Type (0, 1), BuildingBlock: TEMPAE_clean_linker_10, # of connection points: 2
#     Edge 90, Type (0, 1), BuildingBlock: TEMPAE_clean_linker_10, # of connection points: 2
#     Edge 91, Type (0, 1), BuildingBlock: TEMPAE_clean_linker_10, # of connection points: 2
#     Edge 92, Type (0, 1), BuildingBlock: TEMPAE_clean_linker_10, # of connection points: 2
#     Edge 93, Type (0, 1), BuildingBlock: TEMPAE_clean_linker_10, # of connection points: 2
#     Edge 94, Type (0, 1), BuildingBlock: TEMPAE_clean_linker_10, # of connection points: 2
#     Edge 95, Type (0, 1), BuildingBlock: TEMPAE_clean_linker_10, # of connection points: 2
#     Edge 96, Type (0, 1), BuildingBlock: TEMPAE_clean_linker_10, # of connection points: 2
#     Edge 97, Type (0, 1), BuildingBlock: TEMPAE_clean_linker_10, # of connection points: 2
#     Edge 98, Type (0, 1), BuildingBlock: TEMPAE_clean_linker_10, # of connection points: 2
#     Edge 99, Type (0, 1), BuildingBlock: TEMPAE_clean_linker_10, # of connection points: 2
#     Edge 100, Type (0, 1), BuildingBlock: TEMPAE_clean_linker_10, # of connection points: 2
#     Edge 101, Type (0, 1), BuildingBlock: TEMPAE_clean_linker_10, # of connection points: 2
#     Edge 102, Type (0, 1), BuildingBlock: TEMPAE_clean_linker_10, # of connection points: 2
#     Edge 103, Type (0, 1), BuildingBlock: TEMPAE_clean_linker_10, # of connection points: 2
#     Edge 104, Type (0, 1), BuildingBlock: TEMPAE_clean_linker_10, # of connection points: 2
#     Edge 105, Type (0, 1), BuildingBlock: TEMPAE_clean_linker_10, # of connection points: 2
#     Edge 106, Type (0, 1), BuildingBlock: TEMPAE_clean_linker_10, # of connection points: 2
#     Edge 107, Type (0, 1), BuildingBlock: TEMPAE_clean_linker_10, # of connection points: 2
#     Edge 108, Type (0, 1), BuildingBlock: TEMPAE_clean_linker_10, # of connection points: 2
#     Edge 109, Type (0, 1), BuildingBlock: TEMPAE_clean_linker_10, # of connection points: 2
#     Edge 110, Type (0, 1), BuildingBlock: TEMPAE_clean_linker_10, # of connection points: 2
#     Edge 111, Type (0, 1), BuildingBlock: TEMPAE_clean_linker_10, # of connection points: 2
#     Edge 112, Type (0, 1), BuildingBlock: TEMPAE_clean_linker_10, # of connection points: 2
#     Edge 113, Type (0, 1), BuildingBlock: TEMPAE_clean_linker_10, # of connection points: 2
#     Edge 114, Type (0, 1), BuildingBlock: TEMPAE_clean_linker_10, # of connection points: 2
#     Edge 115, Type (0, 1), BuildingBlock: TEMPAE_clean_linker_10, # of connection points: 2
#     Edge 116, Type (0, 1), BuildingBlock: TEMPAE_clean_linker_10, # of connection points: 2
#     Edge 117, Type (0, 1), BuildingBlock: TEMPAE_clean_linker_10, # of connection points: 2
#     Edge 118, Type (0, 1), BuildingBlock: TEMPAE_clean_linker_10, # of connection points: 2
#     Edge 119, Type (0, 1), BuildingBlock: TEMPAE_clean_linker_10, # of connection points: 2
#     Edge 120, Type (0, 1), BuildingBlock: TEMPAE_clean_linker_10, # of connection points: 2
#     Edge 121, Type (0, 1), BuildingBlock: TEMPAE_clean_linker_10, # of connection points: 2
#     Edge 122, Type (0, 1), BuildingBlock: TEMPAE_clean_linker_10, # of connection points: 2
#     Edge 123, Type (0, 1), BuildingBlock: TEMPAE_clean_linker_10, # of connection points: 2
#     Edge 124, Type (0, 1), BuildingBlock: TEMPAE_clean_linker_10, # of connection points: 2
#     Edge 125, Type (0, 1), BuildingBlock: TEMPAE_clean_linker_10, # of connection points: 2
#     Edge 126, Type (0, 1), BuildingBlock: TEMPAE_clean_linker_10, # of connection points: 2
#     Edge 127, Type (0, 1), BuildingBlock: TEMPAE_clean_linker_10, # of connection points: 2
#     Edge 128, Type (0, 1), BuildingBlock: TEMPAE_clean_linker_10, # of connection points: 2
#     Edge 129, Type (0, 1), BuildingBlock: TEMPAE_clean_linker_10, # of connection points: 2
#     Edge 130, Type (0, 1), BuildingBlock: TEMPAE_clean_linker_10, # of connection points: 2
#     Edge 131, Type (0, 1), BuildingBlock: TEMPAE_clean_linker_10, # of connection points: 2
#     Edge 132, Type (0, 1), BuildingBlock: TEMPAE_clean_linker_10, # of connection points: 2
#     Edge 133, Type (0, 1), BuildingBlock: TEMPAE_clean_linker_10, # of connection points: 2
#     Edge 134, Type (0, 1), BuildingBlock: TEMPAE_clean_linker_10, # of connection points: 2
#     Edge 135, Type (0, 1), BuildingBlock: TEMPAE_clean_linker_10, # of connection points: 2
#     Edge 136, Type (0, 1), BuildingBlock: TEMPAE_clean_linker_10, # of connection points: 2
#     Edge 137, Type (0, 1), BuildingBlock: TEMPAE_clean_linker_10, # of connection points: 2
#     Edge 138, Type (0, 1), BuildingBlock: TEMPAE_clean_linker_10, # of connection points: 2
#     Edge 139, Type (0, 1), BuildingBlock: TEMPAE_clean_linker_10, # of connection points: 2
#     Edge 140, Type (0, 1), BuildingBlock: TEMPAE_clean_linker_10, # of connection points: 2
#     Edge 141, Type (0, 1), BuildingBlock: TEMPAE_clean_linker_10, # of connection points: 2
#     Edge 142, Type (0, 1), BuildingBlock: TEMPAE_clean_linker_10, # of connection points: 2
#     Edge 143, Type (0, 1), BuildingBlock: TEMPAE_clean_linker_10, # of connection points: 2
#     Edge 144, Type (0, 1), BuildingBlock: TEMPAE_clean_linker_10, # of connection points: 2
#     Edge 145, Type (0, 1), BuildingBlock: TEMPAE_clean_linker_10, # of connection points: 2
#     Edge 146, Type (0, 1), BuildingBlock: TEMPAE_clean_linker_10, # of connection points: 2
#     Edge 147, Type (0, 1), BuildingBlock: TEMPAE_clean_linker_10, # of connection points: 2
#     Edge 148, Type (0, 1), BuildingBlock: TEMPAE_clean_linker_10, # of connection points: 2
#     Edge 149, Type (0, 1), BuildingBlock: TEMPAE_clean_linker_10, # of connection points: 2
#     Edge 150, Type (0, 1), BuildingBlock: TEMPAE_clean_linker_10, # of connection points: 2
#     Edge 151, Type (0, 1), BuildingBlock: TEMPAE_clean_linker_10, # of connection points: 2
# Relax obj value: 0.046
# Max RMSD: 0.172
# Mean RMSD: 0.122
data_MOF--net-tbo--node1-ESEHIV_clean_sbu_0--node2-BETDIP_clean_linker_0--edge1-TEMPAE_clean_linker_10
_symmetry_space_group_name_H-M    P1
_symmetry_Int_Tables_number       1
_symmetry_cell_setting            triclinic
loop_
_symmetry_equiv_pos_as_xyz
'x, y, z'
_cell_length_a     71.669176
_cell_length_b     70.566872
_cell_length_c     76.90306
_cell_angle_alpha  95.593073
_cell_angle_beta   85.857621
_cell_angle_gamma 101.02099
loop_
_atom_site_label
_atom_site_type_symbol
_atom_site_fract_x
_atom_site_fract_y
_atom_site_fract_z
_atom_type_partial_charge
H0 H 0.1592 0.17358 0.23275 0.0
H1 H 0.20512 0.18232 0.19365 0.0
H2 H 0.15873 0.21287 0.19325 0.0
H3 H 0.2047 0.14974 0.19897 0.0
C4 C 0.20343 0.15092 0.21318 0.0
C5 C 0.16572 0.18077 0.22141 0.0
C6 C 0.15658 0.19376 0.21395 0.0
C7 C 0.18297 0.17633 0.21405 0.0
C8 C 0.19157 0.18535 0.19921 0.0
C9 C 0.18279 0.19844 0.19156 0.0
C10 C 0.16527 0.20247 0.19894 0.0
N11 N 0.19147 0.16304 0.22215 0.0
H12 H 0.87589 0.23752 0.14884 0.0
H13 H 0.83308 0.18552 0.14446 0.0
H14 H 0.86549 0.19932 0.19016 0.0
H15 H 0.83335 0.19038 0.11714 0.0
C16 C 0.83863 0.20555 0.11534 0.0
C17 C 0.86811 0.22447 0.15423 0.0
C18 C 0.87224 0.21996 0.17075 0.0
C19 C 0.85396 0.21223 0.14456 0.0
C20 C 0.84397 0.1952 0.15161 0.0
C21 C 0.84824 0.1903 0.16796 0.0
C22 C 0.86217 0.20293 0.1775 0.0
N23 N 0.85013 0.21761 0.12796 0.0
H24 H 0.89298 0.84719 0.17483 0.0
H25 H 0.89443 0.88963 0.21912 0.0
H26 H 0.85466 0.88762 0.17933 0.0
H27 H 0.92206 0.88162 0.22383 0.0
C28 C 0.92298 0.86749 0.21727 0.0
C29 C 0.8877 0.85937 0.18181 0.0
C30 C 0.87268 0.86626 0.17524 0.0
C31 C 0.89589 0.86775 0.19745 0.0
C32 C 0.88875 0.8834 0.20677 0.0
C33 C 0.87368 0.89065 0.20044 0.0
C34 C 0.86586 0.88193 0.18462 0.0
N35 N 0.91084 0.85957 0.20341 0.0
H36 H 0.1878 0.79607 0.20315 0.0
H37 H 0.24253 0.83152 0.19343 0.0
H38 H 0.21112 0.84042 0.24229 0.0
H39 H 0.18923 0.80737 0.17243 0.0
C40 C 0.20278 0.8036 0.16752 0.0
C41 C 0.19937 0.80721 0.20783 0.0
C42 C 0.19762 0.81726 0.22441 0.0
C43 C 0.21578 0.81217 0.19686 0.0
C44 C 0.23039 0.82721 0.20237 0.0
C45 C 0.22854 0.83791 0.21853 0.0
C46 C 0.21255 0.83223 0.22976 0.0
N47 N 0.21706 0.80383 0.17943 0.0
H48 H 0.15393 0.82093 0.84894 0.0
H49 H 0.20498 0.86422 0.85302 0.0
H50 H 0.16786 0.8637 0.81148 0.0
H51 H 0.19496 0.85971 0.88337 0.0
C52 C 0.19356 0.84403 0.88207 0.0
C53 C 0.16336 0.83339 0.84401 0.0
C54 C 0.15884 0.84137 0.82914 0.0
C55 C 0.17982 0.84164 0.85281 0.0
C56 C 0.19207 0.85787 0.84648 0.0
C57 C 0.18798 0.8656 0.83135 0.0
C58 C 0.17139 0.85727 0.82277 0.0
N59 N 0.18394 0.83314 0.86777 0.0
H60 H 0.22337 0.20871 0.90301 0.0
H61 H 0.22838 0.17161 0.85597 0.0
H62 H 0.26741 0.17437 0.89663 0.0
H63 H 0.21546 0.19405 0.84419 0.0
C64 C 0.20515 0.19815 0.85421 0.0
C65 C 0.23056 0.19827 0.8953 0.0
C66 C 0.24602 0.1922 0.90205 0.0
C67 C 0.22454 0.19152 0.87848 0.0
C68 C 0.23372 0.1778 0.86847 0.0
C69 C 0.24927 0.1714 0.87481 0.0
C70 C 0.2554 0.17893 0.89159 0.0
N71 N 0.20896 0.19846 0.87222 0.0
H72 H 0.83585 0.25226 0.82335 0.0
H73 H 0.89103 0.28769 0.81606 0.0
H74 H 0.88535 0.23451 0.84056 0.0
H75 H 0.83026 0.30114 0.8177 0.0
C76 C 0.84116 0.2958 0.82386 0.0
C77 C 0.85101 0.25474 0.82508 0.0
C78 C 0.85919 0.24081 0.83219 0.0
C79 C 0.86249 0.27166 0.81938 0.0
C80 C 0.88223 0.27463 0.82057 0.0
C81 C 0.89043 0.26158 0.82876 0.0
C82 C 0.87887 0.24477 0.83459 0.0
N83 N 0.85412 0.28618 0.81315 0.0
H84 H 0.83515 0.90028 0.88391 0.0
H85 H 0.87486 0.89044 0.84075 0.0
H86 H 0.86466 0.85247 0.8823 0.0
H87 H 0.87582 0.92231 0.83783 0.0
C88 C 0.86158 0.9249 0.84165 0.0
C89 C 0.84529 0.89194 0.87747 0.0
C90 C 0.84884 0.87573 0.88503 0.0
C91 C 0.85464 0.8975 0.86159 0.0
C92 C 0.86769 0.88651 0.85311 0.0
C93 C 0.87151 0.8703 0.86059 0.0
C94 C 0.86191 0.865 0.87649 0.0
N95 N 0.85018 0.91389 0.85444 0.0
H96 H 0.15152 0.68132 0.71191 0.0
H97 H 0.1993 0.68859 0.6748 0.0
H98 H 0.15227 0.71668 0.66901 0.0
H99 H 0.20608 0.66268 0.68481 0.0
C100 C 0.19886 0.66035 0.69752 0.0
C101 C 0.15823 0.68737 0.7001 0.0
C102 C 0.14928 0.69936 0.69117 0.0
C103 C 0.17589 0.6829 0.6941 0.0
C104 C 0.18542 0.69145 0.67937 0.0
C105 C 0.17707 0.70389 0.67038 0.0
C106 C 0.15885 0.70746 0.67616 0.0
N107 N 0.18344 0.66983 0.7034 0.0
H108 H 0.86968 0.74081 0.63977 0.0
H109 H 0.82765 0.68828 0.64026 0.0
H110 H 0.87371 0.69778 0.67457 0.0
H111 H 0.82142 0.69583 0.61408 0.0
C112 C 0.82489 0.71147 0.61394 0.0
C113 C 0.86427 0.72692 0.64489 0.0
C114 C 0.87403 0.72055 0.65773 0.0
C115 C 0.84772 0.71534 0.63828 0.0
C116 C 0.84059 0.69725 0.64492 0.0
C117 C 0.85016 0.69068 0.65782 0.0
C118 C 0.86676 0.70247 0.66413 0.0
N119 N 0.8386 0.72259 0.62519 0.0
H120 H 0.89698 0.34476 0.69229 0.0
H121 H 0.90142 0.392 0.73243 0.0
H122 H 0.8616 0.38758 0.69217 0.0
H123 H 0.92978 0.38294 0.73678 0.0
C124 C 0.92849 0.36764 0.73254 0.0
C125 C 0.89231 0.3578 0.69808 0.0
C126 C 0.87819 0.36492 0.69028 0.0
C127 C 0.90098 0.36744 0.71305 0.0
C128 C 0.89524 0.38465 0.72061 0.0
C129 C 0.88081 0.39197 0.71324 0.0
C130 C 0.87255 0.38202 0.698 0.0
N131 N 0.91489 0.35879 0.72017 0.0
H132 H 0.20127 0.33355 0.71141 0.0
H133 H 0.24864 0.37537 0.69435 0.0
H134 H 0.21733 0.38748 0.74276 0.0
H135 H 0.19863 0.33417 0.67907 0.0
C136 C 0.21327 0.33357 0.67463 0.0
C137 C 0.21038 0.34757 0.71369 0.0
C138 C 0.20723 0.35991 0.72871 0.0
C139 C 0.22545 0.35323 0.70152 0.0
C140 C 0.23762 0.37106 0.70434 0.0
C141 C 0.23474 0.38375 0.71908 0.0
C142 C 0.21969 0.37784 0.73134 0.0
N143 N 0.2282 0.34175 0.68576 0.0
H144 H 0.15051 0.32386 0.36504 0.0
H145 H 0.20282 0.36552 0.3622 0.0
H146 H 0.15898 0.36615 0.3271 0.0
H147 H 0.19811 0.36215 0.39305 0.0
C148 C 0.19581 0.34642 0.39221 0.0
C149 C 0.15925 0.33616 0.35919 0.0
C150 C 0.15257 0.34412 0.34532 0.0
C151 C 0.17718 0.34398 0.36559 0.0
C152 C 0.18873 0.35966 0.35771 0.0
C153 C 0.18215 0.36774 0.34389 0.0
C154 C 0.16406 0.35995 0.33782 0.0
N155 N 0.18352 0.33555 0.37963 0.0
H156 H 0.21997 0.70017 0.37882 0.0
H157 H 0.22043 0.66001 0.33308 0.0
H158 H 0.25752 0.6588 0.37443 0.0
H159 H 0.18929 0.66554 0.33261 0.0
C160 C 0.19091 0.68102 0.33616 0.0
C161 C 0.22544 0.68821 0.37166 0.0
C162 C 0.2395 0.68029 0.37881 0.0
C163 C 0.21826 0.68091 0.35534 0.0
C164 C 0.22547 0.66545 0.34588 0.0
C165 C 0.23989 0.65752 0.35256 0.0
C166 C 0.2468 0.66512 0.36901 0.0
N167 N 0.20436 0.68998 0.34865 0.0
H168 H 0.82655 0.69733 0.30957 0.0
H169 H 0.87255 0.74473 0.32056 0.0
H170 H 0.88373 0.6939 0.28946 0.0
H171 H 0.84641 0.76203 0.32029 0.0
C172 C 0.83784 0.75272 0.32949 0.0
C173 C 0.84144 0.70382 0.30765 0.0
C174 C 0.85425 0.69324 0.29825 0.0
C175 C 0.84779 0.72259 0.31525 0.0
C176 C 0.86728 0.73065 0.31396 0.0
C177 C 0.88022 0.72026 0.30478 0.0
C178 C 0.87361 0.70183 0.29657 0.0
N179 N 0.83467 0.73232 0.32554 0.0
H180 H 0.80618 0.35573 0.39565 0.0
H181 H 0.84549 0.35003 0.35146 0.0
H182 H 0.84812 0.31961 0.39676 0.0
H183 H 0.84097 0.3813 0.34886 0.0
C184 C 0.82593 0.38071 0.35235 0.0
C185 C 0.81808 0.34965 0.38955 0.0
C186 C 0.82635 0.33715 0.39846 0.0
C187 C 0.82515 0.35475 0.37287 0.0
C188 C 0.84023 0.34653 0.36452 0.0
C189 C 0.84851 0.33365 0.37303 0.0
C190 C 0.84159 0.32924 0.39005 0.0
N191 N 0.8166 0.3681 0.36493 0.0
H192 H 0.67328 0.17673 0.71805 0.0
H193 H 0.7156 0.18284 0.67535 0.0
H194 H 0.671 0.21608 0.67911 0.0
H195 H 0.72645 0.15964 0.68537 0.0
C196 C 0.72007 0.15637 0.6982 0.0
C197 C 0.67895 0.18322 0.7061 0.0
C198 C 0.67002 0.19699 0.69963 0.0
C199 C 0.69537 0.17791 0.69757 0.0
C200 C 0.70284 0.18643 0.68211 0.0
C201 C 0.69412 0.20023 0.6754 0.0
C202 C 0.67785 0.2056 0.68434 0.0
N203 N 0.70399 0.16431 0.70524 0.0
H204 H 0.38761 0.233 0.65118 0.0
H205 H 0.3411 0.18418 0.64942 0.0
H206 H 0.38221 0.19024 0.68839 0.0
H207 H 0.32676 0.20471 0.63678 0.0
C208 C 0.33793 0.21291 0.62875 0.0
C209 C 0.38014 0.21968 0.65632 0.0
C210 C 0.38684 0.21295 0.67085 0.0
C211 C 0.3634 0.20972 0.64873 0.0
C212 C 0.35365 0.19243 0.65545 0.0
C213 C 0.3605 0.18528 0.66968 0.0
C214 C 0.37701 0.19566 0.6773 0.0
N215 N 0.35694 0.21736 0.63427 0.0
H216 H 0.39657 0.84885 0.69095 0.0
H217 H 0.39912 0.89731 0.72966 0.0
H218 H 0.35697 0.88775 0.691 0.0
H219 H 0.43152 0.89428 0.72705 0.0
C220 C 0.43026 0.87869 0.72699 0.0
C221 C 0.39099 0.86147 0.69656 0.0
C222 C 0.37566 0.8669 0.68903 0.0
C223 C 0.39983 0.87253 0.7109 0.0
C224 C 0.39284 0.8891 0.71821 0.0
C225 C 0.37719 0.89464 0.71125 0.0
C226 C 0.36885 0.8835 0.69657 0.0
N227 N 0.41531 0.86624 0.71793 0.0
H228 H 0.74003 0.83287 0.69088 0.0
H229 H 0.77367 0.88729 0.70955 0.0
H230 H 0.72101 0.86451 0.73706 0.0
H231 H 0.7705 0.82876 0.67789 0.0
C232 C 0.77356 0.84289 0.67272 0.0
C233 C 0.74256 0.84508 0.70063 0.0
C234 C 0.72913 0.84655 0.71465 0.0
C235 C 0.75873 0.85979 0.69885 0.0
C236 C 0.7613 0.87596 0.71117 0.0
C237 C 0.74793 0.87767 0.72527 0.0
C238 C 0.73196 0.86284 0.72685 0.0
N239 N 0.77159 0.85969 0.68392 0.0
H240 H 0.64228 0.83544 0.36004 0.0
H241 H 0.69434 0.87724 0.35642 0.0
H242 H 0.64926 0.87842 0.32288 0.0
H243 H 0.70619 0.85079 0.36424 0.0
C244 C 0.69589 0.84647 0.37487 0.0
C245 C 0.65084 0.8477 0.35401 0.0
C246 C 0.64343 0.85617 0.34085 0.0
C247 C 0.66932 0.85489 0.35943 0.0
C248 C 0.68033 0.87109 0.35188 0.0
C249 C 0.67305 0.87986 0.33888 0.0
C250 C 0.65467 0.87219 0.33338 0.0
N251 N 0.67623 0.84602 0.37287 0.0
H252 H 0.71592 0.21156 0.37918 0.0
H253 H 0.7165 0.17382 0.3318 0.0
H254 H 0.75349 0.17022 0.37255 0.0
H255 H 0.70557 0.19821 0.32055 0.0
C256 C 0.69626 0.20353 0.33088 0.0
C257 C 0.72152 0.20007 0.37138 0.0
C258 C 0.73563 0.1917 0.37796 0.0
C259 C 0.71487 0.19418 0.35459 0.0
C260 C 0.72211 0.17914 0.34441 0.0
C261 C 0.73599 0.17022 0.35083 0.0
C262 C 0.74275 0.17683 0.36754 0.0
N263 N 0.70047 0.20324 0.34871 0.0
H264 H 0.33349 0.23091 0.34565 0.0
H265 H 0.38969 0.26041 0.33011 0.0
H266 H 0.36797 0.20372 0.30645 0.0
H267 H 0.3879 0.27798 0.3548 0.0
C268 C 0.37333 0.27671 0.36012 0.0
C269 C 0.34644 0.23145 0.33735 0.0
C270 C 0.34876 0.21557 0.32547 0.0
C271 C 0.36109 0.24769 0.33926 0.0
C272 C 0.37813 0.24815 0.3288 0.0
C273 C 0.38069 0.23223 0.31703 0.0
C274 C 0.36584 0.2162 0.31525 0.0
N275 N 0.35856 0.26251 0.35264 0.0
H276 H 0.31135 0.86661 0.40027 0.0
H277 H 0.34834 0.86048 0.3542 0.0
H278 H 0.34799 0.82449 0.39627 0.0
H279 H 0.34766 0.89368 0.3552 0.0
C280 C 0.33257 0.8936 0.35801 0.0
C281 C 0.32197 0.85951 0.39297 0.0
C282 C 0.32898 0.84499 0.40032 0.0
C283 C 0.32924 0.86559 0.37659 0.0
C284 C 0.3431 0.85639 0.36713 0.0
C285 C 0.34967 0.84129 0.37403 0.0
C286 C 0.34269 0.83586 0.39071 0.0
N287 N 0.3221 0.88074 0.3699 0.0
H288 H 0.6542 0.68573 0.21858 0.0
H289 H 0.69961 0.69245 0.17881 0.0
H290 H 0.65534 0.72603 0.17968 0.0
H291 H 0.70246 0.66243 0.18558 0.0
C292 C 0.69786 0.66145 0.19928 0.0
C293 C 0.66092 0.69275 0.2072 0.0
C294 C 0.65266 0.7067 0.20026 0.0
C295 C 0.67753 0.68724 0.19948 0.0
C296 C 0.68645 0.69614 0.18467 0.0
C297 C 0.67838 0.71005 0.17738 0.0
C298 C 0.66138 0.71509 0.18512 0.0
N299 N 0.68486 0.67296 0.20734 0.0
H300 H 0.36736 0.72414 0.14765 0.0
H301 H 0.32819 0.66964 0.14188 0.0
H302 H 0.36195 0.68349 0.18678 0.0
H303 H 0.3128 0.68611 0.12593 0.0
C304 C 0.32356 0.69655 0.11953 0.0
C305 C 0.36087 0.71037 0.15255 0.0
C306 C 0.36625 0.70544 0.16848 0.0
C307 C 0.34671 0.6979 0.1431 0.0
C308 C 0.33856 0.67982 0.14929 0.0
C309 C 0.3439 0.6747 0.16516 0.0
C310 C 0.35755 0.68765 0.17472 0.0
N311 N 0.34112 0.704 0.12746 0.0
H312 H 0.40317 0.33075 0.18754 0.0
H313 H 0.40593 0.37688 0.22892 0.0
H314 H 0.36323 0.36952 0.19107 0.0
H315 H 0.43455 0.36999 0.23306 0.0
C316 C 0.43518 0.35531 0.2277 0.0
C317 C 0.3978 0.34316 0.19396 0.0
C318 C 0.38206 0.34885 0.18745 0.0
C319 C 0.40668 0.35308 0.20882 0.0
C320 C 0.39958 0.3692 0.21731 0.0
C321 C 0.38366 0.37509 0.2111 0.0
C322 C 0.3751 0.36477 0.1962 0.0
N323 N 0.42224 0.34591 0.21489 0.0
H324 H 0.75629 0.30325 0.18785 0.0
H325 H 0.79525 0.35693 0.19883 0.0
H326 H 0.7374 0.34944 0.22037 0.0
H327 H 0.78033 0.29397 0.1711 0.0
C328 C 0.78974 0.30735 0.16806 0.0
C329 C 0.75959 0.31761 0.1945 0.0
C330 C 0.74524 0.32478 0.205 0.0
C331 C 0.77782 0.32918 0.19248 0.0
C332 C 0.78134 0.34793 0.20084 0.0
C333 C 0.76683 0.35555 0.21073 0.0
C334 C 0.74891 0.34366 0.21311 0.0
N335 N 0.79236 0.32347 0.18076 0.0
H336 H 0.6659 0.33505 0.85819 0.0
H337 H 0.71765 0.37735 0.8557 0.0
H338 H 0.67338 0.37807 0.82103 0.0
H339 H 0.71185 0.3738 0.88696 0.0
C340 C 0.71041 0.35811 0.88571 0.0
C341 C 0.67451 0.34737 0.85227 0.0
C342 C 0.6674 0.35568 0.83884 0.0
C343 C 0.69235 0.35544 0.85874 0.0
C344 C 0.70357 0.3715 0.85117 0.0
C345 C 0.69693 0.37958 0.83736 0.0
C346 C 0.67876 0.37169 0.83146 0.0
N347 N 0.69887 0.34702 0.87268 0.0
H348 H 0.73982 0.7274 0.88689 0.0
H349 H 0.73839 0.68642 0.84175 0.0
H350 H 0.77478 0.68366 0.88332 0.0
H351 H 0.7088 0.69453 0.83978 0.0
C352 C 0.7106 0.7098 0.84432 0.0
C353 C 0.74491 0.71515 0.87984 0.0
C354 C 0.75825 0.70649 0.88724 0.0
C355 C 0.73739 0.70791 0.8637 0.0
C356 C 0.74361 0.69177 0.8545 0.0
C357 C 0.75729 0.68298 0.86139 0.0
C358 C 0.76442 0.6904 0.87785 0.0
N359 N 0.72407 0.71771 0.85707 0.0
H360 H 0.351 0.71569 0.82989 0.0
H361 H 0.40425 0.75579 0.83123 0.0
H362 H 0.39802 0.70539 0.79457 0.0
H363 H 0.38565 0.77708 0.84379 0.0
C364 C 0.37572 0.76769 0.85199 0.0
C365 C 0.36535 0.72031 0.82446 0.0
C366 C 0.37324 0.7084 0.81139 0.0
C367 C 0.37621 0.73775 0.8313 0.0
C368 C 0.3953 0.74312 0.82517 0.0
C369 C 0.40333 0.73131 0.81208 0.0
C370 C 0.39199 0.71437 0.8049 0.0
N371 N 0.36811 0.74839 0.84555 0.0
H372 H 0.32904 0.3684 0.89177 0.0
H373 H 0.36759 0.36451 0.84673 0.0
H374 H 0.36843 0.32918 0.8892 0.0
H375 H 0.36088 0.39414 0.84287 0.0
C376 C 0.3464 0.39407 0.84813 0.0
C377 C 0.34032 0.36194 0.88487 0.0
C378 C 0.34807 0.34822 0.89265 0.0
C379 C 0.34729 0.36803 0.86849 0.0
C380 C 0.36221 0.36003 0.85947 0.0
C381 C 0.37012 0.34605 0.86693 0.0
C382 C 0.36287 0.34028 0.88352 0.0
N383 N 0.33855 0.38194 0.86156 0.0
Cu384 Cu 0.28963 0.27874 0.05177 0.0
N385 N 0.29334 0.30059 0.03895 0.0
N386 N 0.30116 0.31706 0.01522 0.0
C387 C 0.30235 0.30103 0.02298 0.0
C388 C 0.29129 0.32738 0.02697 0.0
C389 C 0.28641 0.31715 0.04157 0.0
O390 O 0.28813 0.25719 0.0332 0.0
C391 C 0.31159 0.29823 0.07835 0.0
O392 O 0.30016 0.31024 0.07632 0.0
H393 H 0.30918 0.28942 0.01697 0.0
H394 H 0.27788 0.32123 0.05299 0.0
N395 N 0.26665 0.27572 0.06538 0.0
N396 N 0.24517 0.26576 0.08674 0.0
C397 C 0.2622 0.26413 0.07859 0.0
C398 C 0.25184 0.28488 0.06507 0.0
C399 C 0.23862 0.27883 0.07829 0.0
C400 C 0.27541 0.2574 0.02239 0.0
O401 O 0.26386 0.26982 0.02598 0.0
H402 H 0.27153 0.25508 0.08245 0.0
H403 H 0.25073 0.29527 0.05595 0.0
O404 O 0.31 0.28243 0.06842 0.0
H405 H 0.28713 0.3409 0.02486 0.0
H406 H 0.22518 0.28358 0.08139 0.0
Cu407 Cu 0.80665 0.29732 0.99455 0.0
N408 N 0.80866 0.31632 1.01316 0.0
N409 N 0.81019 0.32801 0.04112 0.0
C410 C 0.81319 0.31344 0.02922 0.0
C411 C 0.80366 0.34069 0.03216 0.0
C412 C 0.80276 0.33343 0.01484 0.0
O413 O 0.80306 0.273 1.00545 0.0
C414 C 0.78951 0.31365 0.97026 0.0
O415 O 0.80584 0.32578 0.97118 0.0
H416 H 0.81708 0.30014 0.03238 0.0
H417 H 0.79705 0.33959 1.00452 0.0
N418 N 0.82879 0.30082 0.98013 0.0
N419 N 0.84471 0.30316 0.95425 0.0
C420 C 0.82952 0.29377 0.96328 0.0
C421 C 0.84429 0.31486 0.98198 0.0
C422 C 0.85412 0.31642 0.96593 0.0
C423 C 0.81681 0.26409 1.00633 0.0
O424 O 0.83264 0.26924 0.99687 0.0
H425 H 0.81786 0.2838 0.95729 0.0
H426 H 0.8471 0.3246 0.99364 0.0
O427 O 0.78596 0.2998 0.98022 0.0
H428 H 0.79898 0.35375 0.03785 0.0
H429 H 0.86625 0.32749 0.96275 0.0
Cu430 Cu 0.78443 0.79442 0.03774 0.0
N431 N 0.78522 0.81575 0.02469 0.0
N432 N 0.79205 0.8339 1.00196 0.0
C433 C 0.7952 0.81826 1.00929 0.0
C434 C 0.77964 0.84163 1.01322 0.0
C435 C 0.77552 0.83046 0.02727 0.0
O436 O 0.78628 0.77297 0.01972 0.0
C437 C 0.80603 0.8169 0.06364 0.0
O438 O 0.79472 0.82866 0.06061 0.0
H439 H 0.80412 0.80839 1.00328 0.0
H440 H 0.76601 0.83287 0.03848 0.0
N441 N 0.76139 0.78877 0.05118 0.0
N442 N 0.74059 0.77751 0.0726 0.0
C443 C 0.75821 0.77785 0.06494 0.0
C444 C 0.74511 0.79534 0.05002 0.0
C445 C 0.73232 0.78853 0.06327 0.0
C446 C 0.77213 0.76834 1.00996 0.0
O447 O 0.75737 0.77681 0.01383 0.0
H448 H 0.76879 0.77071 0.06953 0.0
H449 H 0.74262 0.80443 0.04023 0.0
O450 O 0.80464 0.80057 0.05456 0.0
H451 H 0.77399 0.85444 1.01144 0.0
H452 H 0.71798 0.79132 0.06578 0.0
Cu453 Cu 0.27942 0.79476 1.00341 0.0
N454 N 0.27107 0.81236 0.02038 0.0
N455 N 0.25609 0.82182 0.04525 0.0
C456 C 0.25878 0.8068 0.03373 0.0
C457 C 0.2671 0.83759 0.03872 0.0
C458 C 0.27634 0.83168 0.02331 0.0
O459 O 0.28193 0.77235 0.01547 0.0
C460 C 0.26158 0.80452 0.97648 0.0
O461 O 0.27323 0.82078 0.98084 0.0
H462 H 0.25285 0.79175 0.03541 0.0
H463 H 0.28658 0.8407 0.01516 0.0
N464 N 0.3031 0.80451 0.99282 0.0
N465 N 0.32563 0.80894 0.97129 0.0
C466 C 0.30768 0.80057 0.97579 0.0
C467 C 0.3188 0.81571 0.99945 0.0
C468 C 0.33286 0.81836 0.98613 0.0
C469 C 0.29112 0.77661 0.02934 0.0
O470 O 0.29852 0.79483 0.03364 0.0
H471 H 0.29808 0.7914 0.96689 0.0
H472 H 0.31998 0.82143 1.01297 0.0
O473 O 0.2612 0.78992 0.98513 0.0
H474 H 0.26873 0.85225 0.0448 0.0
H475 H 0.34716 0.82662 0.98722 0.0
Cu476 Cu 0.99625 0.26086 0.28177 0.0
N477 N 1.00772 0.23899 0.27695 0.0
N478 N 0.03088 0.22252 0.26756 0.0
C479 C 0.02492 0.23966 0.2685 0.0
C480 C 0.01663 0.21052 0.27567 0.0
C481 C 1.00239 0.22071 0.28145 0.0
O482 O 0.01696 0.28147 0.28918 0.0
C483 C 0.97254 0.24966 0.25518 0.0
O484 O 0.97007 0.23411 0.26381 0.0
H485 H 0.03289 0.25266 0.26325 0.0
H486 H 0.98923 0.2152 0.28858 0.0
N487 N 0.97721 0.25862 0.29986 0.0
N488 N 0.9527 0.26606 0.31721 0.0
C489 C 0.96441 0.27044 0.30301 0.0
C490 C 0.97355 0.24634 0.31253 0.0
C491 C 0.95839 0.25083 0.3232 0.0
C492 C 0.02557 0.27712 0.30175 0.0
O493 O 0.01873 0.26088 0.30892 0.0
H494 H 0.96375 0.28204 0.29498 0.0
H495 H 0.98157 0.23519 0.31417 0.0
O496 O 0.98426 0.26458 0.26075 0.0
H497 H 0.01662 0.19556 0.27771 0.0
H498 H 0.9524 0.24379 0.33476 0.0
Cu499 Cu 0.78771 0.02743 0.25447 0.0
N500 N 0.78793 0.0392 0.23373 0.0
N501 N 0.79294 0.062 0.21477 0.0
C502 C 0.79257 0.05829 0.23173 0.0
C503 C 0.78836 0.04445 0.20582 0.0
C504 C 0.78544 0.03045 0.21752 0.0
O505 O 0.78674 0.04797 0.27372 0.0
C506 C 0.81206 1.0001 0.26009 0.0
O507 O 0.80163 0.99665 0.27458 0.0
H508 H 0.79644 0.06912 0.24246 0.0
H509 H 0.78227 0.01494 0.21437 0.0
N510 N 0.76551 1.00868 0.25653 0.0
N511 N 0.7434 0.98533 0.26737 0.0
C512 C 0.75958 0.99827 0.27033 0.0
C513 C 0.75238 1.00243 0.24459 0.0
C514 C 0.73878 0.98799 0.2512 0.0
C515 C 0.77118 0.05455 0.27522 0.0
O516 O 0.75782 0.04688 0.26444 0.0
H517 H 0.76719 0.99994 0.28219 0.0
H518 H 0.75259 1.00792 0.23194 0.0
O519 O 0.80948 0.0138 0.25137 0.0
H520 H 0.78745 0.04179 0.19179 0.0
H521 H 0.72643 0.98015 0.24459 0.0
Cu522 Cu 0.05541 0.7803 0.28626 0.0
N523 N 0.04788 0.79097 0.26679 0.0
N524 N 0.02941 0.80433 0.25089 0.0
C525 C 0.03231 0.79921 0.26684 0.0
C526 C 0.04383 0.79916 0.24035 0.0
C527 C 0.05505 0.79083 0.25012 0.0
O528 O 0.03187 0.76552 0.29556 0.0
C529 C 0.08182 0.80913 0.3064 0.0
O530 O 0.0856 0.82099 0.32048 0.0
H531 H 0.02317 0.80136 0.27837 0.0
H532 H 0.06745 0.78492 0.24528 0.0
N533 N 0.07345 0.76391 0.28113 0.0
N534 N 0.09637 0.74712 0.28491 0.0
C535 C 0.08475 0.75894 0.29261 0.0
C536 C 0.07785 0.75466 0.26569 0.0
C537 C 0.09198 0.74443 0.26795 0.0
C538 C 0.02048 0.77469 0.30479 0.0
O539 O 0.02621 0.79311 0.30975 0.0
H540 H 0.08465 0.76418 0.30631 0.0
H541 H 0.07111 0.75504 0.25365 0.0
O542 O 0.06472 0.80059 0.30428 0.0
H543 H 0.04585 0.80075 0.22645 0.0
H544 H 0.09823 0.73539 0.25787 0.0
Cu545 Cu 0.27484 0.02595 0.28515 0.0
N546 N 0.28995 0.04604 0.30055 0.0
N547 N 0.30186 0.07493 0.31392 0.0
C548 C 0.28751 0.06444 0.30468 0.0
C549 C 0.31366 0.06256 0.31583 0.0
C550 C 0.30635 0.04482 0.3075 0.0
O551 O 0.26604 0.04687 0.27284 0.0
C552 C 0.27968 1.00116 0.31276 0.0
O553 O 0.26986 0.01214 0.32299 0.0
H554 H 0.27609 0.07038 0.30021 0.0
H555 H 0.31295 0.03216 0.30605 0.0
N556 N 0.26042 1.00569 0.26956 0.0
N557 N 0.25237 0.97686 0.2546 0.0
C558 C 0.26602 0.98902 0.26346 0.0
C559 C 0.24267 1.00416 0.26424 0.0
C560 C 0.2377 0.98642 0.25496 0.0
C561 C 0.25029 0.05229 0.27731 0.0
O562 O 0.23949 0.04437 0.29021 0.0
H563 H 0.27948 0.9855 0.26626 0.0
H564 H 0.23363 0.01477 0.2673 0.0
O565 O 0.28375 1.00475 0.29689 0.0
H566 H 0.32694 0.06616 0.3223 0.0
H567 H 0.22414 0.98086 0.24928 0.0
Cu568 Cu 0.99916 0.77543 0.76375 0.0
N569 N 1.0065 0.7515 0.75734 0.0
N570 N 0.02568 0.73163 0.74542 0.0
C571 C 0.02457 0.74957 0.75263 0.0
C572 C 1.0076 0.72178 0.74542 0.0
C573 C 0.99577 0.73408 0.75287 0.0
O574 O 0.02259 0.79346 0.76891 0.0
C575 C 0.96803 0.77155 0.7443 0.0
O576 O 0.9616 0.76036 0.75691 0.0
H577 H 0.03659 0.76145 0.7533 0.0
H578 H 0.98039 0.73082 0.75404 0.0
N579 N 0.9831 0.7758 0.78405 0.0
N580 N 0.96217 0.78663 0.80369 0.0
C581 C 0.97436 0.79069 0.78977 0.0
C582 C 0.97635 0.76178 0.79476 0.0
C583 C 0.96338 0.76842 0.80691 0.0
C584 C 0.03088 0.7883 0.7813 0.0
O585 O 0.02242 0.7731 0.78934 0.0
H586 H 0.97629 0.80391 0.78327 0.0
H587 H 0.98018 0.74759 0.79351 0.0
O588 O 0.98518 0.78073 0.74443 0.0
H589 H 1.00325 0.70699 0.73994 0.0
H590 H 0.95534 0.76039 0.81715 0.0
Cu591 Cu 0.29293 0.03403 0.77107 0.0
N592 N 0.29131 0.04702 0.75126 0.0
N593 N 0.29735 0.06833 0.73096 0.0
C594 C 0.30288 0.06303 0.74591 0.0
C595 C 0.28176 0.05513 0.7267 0.0
C596 C 0.27805 0.04206 0.73926 0.0
O597 O 0.29252 0.05248 0.79186 0.0
C598 C 0.31492 1.00952 0.75228 0.0
O599 O 0.30368 0.01186 0.74023 0.0
H600 H 0.31527 0.07046 0.75265 0.0
H601 H 0.26651 0.02971 0.73958 0.0
N602 N 0.27041 0.0163 0.77408 0.0
N603 N 0.25015 0.99006 0.78227 0.0
C604 C 0.26853 0.99796 0.77832 0.0
C605 C 0.25274 0.02026 0.77534 0.0
C606 C 0.24022 1.00413 0.78031 0.0
C607 C 0.30343 0.06867 0.79557 0.0
O608 O 0.31921 0.07357 0.78597 0.0
H609 H 0.28054 0.99088 0.77902 0.0
H610 H 0.24935 0.03421 0.77357 0.0
O611 O 0.31347 0.01873 0.76735 0.0
H612 H 0.27348 0.05508 0.71547 0.0
H613 H 0.2251 1.00331 0.78313 0.0
Cu614 Cu 0.06126 0.28396 0.80411 0.0
N615 N 0.04852 0.28609 0.78404 0.0
N616 N 0.02817 0.2963 0.76774 0.0
C617 C 0.03343 0.29502 0.78408 0.0
C618 C 0.04045 0.28763 0.75702 0.0
C619 C 0.05296 0.28139 0.76709 0.0
O620 O 0.04197 0.28411 0.82305 0.0
C621 C 0.08523 0.32042 0.79864 0.0
O622 O 0.07082 0.32505 0.79145 0.0
H623 H 0.02702 0.30128 0.7959 0.0
H624 H 0.06476 0.2744 0.76237 0.0
N625 N 0.07249 0.26181 0.80318 0.0
N626 N 0.0931 0.24324 0.80902 0.0
C627 C 0.08738 0.26048 0.81251 0.0
C628 C 0.06869 0.24486 0.79329 0.0
C629 C 0.08128 0.23335 0.79695 0.0
C630 C 0.03022 0.26837 0.8249 0.0
O631 O 0.03411 0.25232 0.81658 0.0
H632 H 0.09386 0.27201 0.82173 0.0
H633 H 0.05766 0.2412 0.784 0.0
O634 O 0.08271 0.30505 0.80652 0.0
H635 H 0.04058 0.28607 0.74288 0.0
H636 H 0.08195 0.21898 0.79087 0.0
Cu637 Cu 0.78408 0.05648 0.79926 0.0
N638 N 0.78287 0.07551 0.81766 0.0
N639 N 0.78749 0.10527 0.8313 0.0
C640 C 0.79013 0.09434 0.81629 0.0
C641 C 0.77819 0.09282 0.84267 0.0
C642 C 0.77515 0.0744 0.83411 0.0
O643 O 0.78198 0.06921 0.77821 0.0
C644 C 0.81267 0.04213 0.81394 0.0
O645 O 0.80495 0.0494 0.82845 0.0
H646 H 0.79756 0.09986 0.80453 0.0
H647 H 0.76801 0.06116 0.83951 0.0
N648 N 0.76461 0.03514 0.80131 0.0
N649 N 0.75122 1.00391 0.79725 0.0
C650 C 0.7674 0.01713 0.79619 0.0
C651 C 0.74593 0.03343 0.80593 0.0
C652 C 0.73755 0.01406 0.80331 0.0
C653 C 0.76949 0.06315 0.76697 0.0
O654 O 0.75896 0.04582 0.76774 0.0
H655 H 0.78093 0.01396 0.79076 0.0
H656 H 0.73883 0.04543 0.81022 0.0
O657 O 0.80715 0.0455 0.79933 0.0
H658 H 0.77384 0.09676 0.85609 0.0
H659 H 0.72257 1.00801 0.80528 0.0
Cu660 Cu 0.28621 0.76816 0.54261 0.0
N661 N 0.30726 0.77434 0.55684 0.0
N662 N 0.32555 0.78815 0.57892 0.0
C663 C 0.30846 0.7862 0.57179 0.0
C664 C 0.3354 0.77697 0.56797 0.0
C665 C 0.32413 0.76851 0.55444 0.0
O666 O 0.26351 0.76296 0.55833 0.0
C667 C 0.30106 0.79067 0.5166 0.0
O668 O 0.31426 0.78039 0.51799 0.0
H669 H 0.29708 0.79351 0.57714 0.0
H670 H 0.32804 0.75888 0.54355 0.0
N671 N 0.28671 0.74639 0.52629 0.0
N672 N 0.28216 0.72792 0.50089 0.0
C673 C 0.27897 0.74417 0.51054 0.0
C674 C 0.2951 0.73093 0.52666 0.0
C675 C 0.29224 0.71948 0.51108 0.0
C676 C 0.26161 0.74753 0.56617 0.0
O677 O 0.27442 0.73644 0.56272 0.0
H678 H 0.27122 0.75443 0.50621 0.0
H679 H 0.30298 0.72829 0.53737 0.0
O680 O 0.28684 0.78908 0.52766 0.0
H681 H 0.3497 0.77485 0.56965 0.0
H682 H 0.29762 0.70625 0.50737 0.0
Cu683 Cu 0.78466 0.80891 0.49775 0.0
N684 N 0.80379 0.81064 0.47992 0.0
N685 N 0.81721 0.80686 0.45304 0.0
C686 C 0.80104 0.80354 0.46326 0.0
C687 C 0.8307 0.81646 0.46371 0.0
C688 C 0.82233 0.81889 0.48029 0.0
O689 O 0.7615 0.80977 0.48642 0.0
C690 C 0.79881 0.78157 0.51394 0.0
O691 O 0.81492 0.7922 0.50864 0.0
H692 H 0.78746 0.79578 0.45881 0.0
H693 H 0.82932 0.82599 0.49182 0.0
N694 N 0.78992 0.82914 0.51514 0.0
N695 N 0.79222 0.8429 0.54243 0.0
C696 C 0.78395 0.82764 0.53199 0.0
C697 C 0.80233 0.84606 0.51483 0.0
C698 C 0.80384 0.85458 0.53174 0.0
C699 C 0.75961 0.82593 0.48141 0.0
O700 O 0.77207 0.84151 0.48601 0.0
H701 H 0.77465 0.81495 0.53665 0.0
H702 H 0.81031 0.85142 0.50327 0.0
O703 O 0.78323 0.78547 0.50961 0.0
H704 H 0.8455 0.82146 0.45978 0.0
H705 H 0.81311 0.868 0.53591 0.0
Cu706 Cu 0.78916 0.27109 0.54251 0.0
N707 N 0.78981 0.25061 0.52501 0.0
N708 N 0.78422 0.23346 0.49909 0.0
C709 C 0.78244 0.24987 0.50923 0.0
C710 C 0.7931 0.22347 0.50899 0.0
C711 C 0.79655 0.23407 0.52493 0.0
O712 O 0.78765 0.29271 0.52908 0.0
C713 C 0.77055 0.25185 0.56982 0.0
O714 O 0.78629 0.24474 0.56761 0.0
H715 H 0.77549 0.26104 0.50543 0.0
H716 H 0.80338 0.22994 0.53569 0.0
N717 N 0.81091 0.27751 0.55588 0.0
N718 N 0.82933 0.29098 0.57792 0.0
C719 C 0.81249 0.28973 0.57057 0.0
C720 C 0.8273 0.2707 0.55383 0.0
C721 C 0.83869 0.27901 0.56734 0.0
C722 C 0.80323 0.30023 0.52129 0.0
O723 O 0.81906 0.29527 0.52524 0.0
H724 H 0.80139 0.29751 0.57574 0.0
H725 H 0.83064 0.26028 0.54338 0.0
O726 O 0.76776 0.26381 0.55929 0.0
H727 H 0.79698 0.20954 0.50501 0.0
H728 H 0.85259 0.27604 0.5694 0.0
Cu729 Cu 0.28961 0.3058 0.51044 0.0
N730 N 0.2782 0.32258 0.526 0.0
N731 N 0.26122 0.33209 0.5496 0.0
C732 C 0.26878 0.3175 0.54106 0.0
C733 C 0.26604 0.34701 0.5394 0.0
C734 C 0.27642 0.34103 0.52474 0.0
O735 O 0.29371 0.28487 0.52362 0.0
C736 C 0.2749 0.30934 0.47869 0.0
O737 O 0.28824 0.32493 0.47943 0.0
H738 H 0.26777 0.30336 0.54576 0.0
H739 H 0.28211 0.34944 0.51389 0.0
N740 N 0.31343 0.31768 0.50162 0.0
N741 N 0.33772 0.32229 0.48175 0.0
C742 C 0.32307 0.30953 0.48824 0.0
C743 C 0.32252 0.33622 0.50402 0.0
C744 C 0.33749 0.33915 0.49162 0.0
C745 C 0.30393 0.29062 0.53671 0.0
O746 O 0.31086 0.30923 0.5395 0.0
H747 H 0.31822 0.29504 0.48226 0.0
H748 H 0.31781 0.34713 0.51325 0.0
O749 O 0.27279 0.29811 0.49101 0.0
H750 H 0.26218 0.36113 0.54221 0.0
H751 H 0.34677 0.35282 0.48939 0.0
Cu752 Cu 0.80299 0.53918 0.76248 0.0
N753 N 0.80176 0.54904 0.74083 0.0
N754 N 0.80592 0.56935 0.71968 0.0
C755 C 0.81137 0.56597 0.7354 0.0
C756 C 0.79247 0.55388 0.71504 0.0
C757 C 0.78989 0.54145 0.7281 0.0
O758 O 0.80502 0.56104 0.78086 0.0
C759 C 0.82348 0.51121 0.74683 0.0
O760 O 0.81183 0.51158 0.73452 0.0
H761 H 0.82186 0.57575 0.74301 0.0
H762 H 0.77977 0.52798 0.72845 0.0
N763 N 0.78009 0.52273 0.76764 0.0
N764 N 0.75949 0.4984 0.77875 0.0
C765 C 0.77796 0.50691 0.77657 0.0
C766 C 0.76242 0.5244 0.76406 0.0
C767 C 0.74968 0.50938 0.77084 0.0
C768 C 0.79436 0.57347 0.77974 0.0
O769 O 0.78327 0.57117 0.76654 0.0
H770 H 0.78976 0.50206 0.78168 0.0
H771 H 0.75902 0.53578 0.7571 0.0
O772 O 0.82279 0.52279 0.76066 0.0
H773 H 0.78455 0.55196 0.70334 0.0
H774 H 0.7344 0.50672 0.76988 0.0
Cu775 Cu 0.28076 0.5383 0.78206 0.0
N776 N 0.27728 0.52359 0.8013 0.0
N777 N 0.28207 0.5005 0.81754 0.0
C778 C 0.2831 0.50655 0.80134 0.0
C779 C 0.27518 0.51427 0.82815 0.0
C780 C 0.27222 0.52852 0.81808 0.0
O781 O 0.29218 0.52276 0.76385 0.0
C782 C 0.30567 0.57301 0.77598 0.0
O783 O 0.30405 0.56644 0.75947 0.0
H784 H 0.28926 0.49941 0.78988 0.0
H785 H 0.26769 0.54197 0.82275 0.0
N786 N 0.2579 0.5435 0.77523 0.0
N787 N 0.2381 0.55914 0.76357 0.0
C788 C 0.25582 0.56006 0.7689 0.0
C789 C 0.24089 0.53163 0.77397 0.0
C790 C 0.22863 0.54123 0.76676 0.0
C791 C 0.28776 0.51982 0.74799 0.0
O792 O 0.27715 0.53075 0.74203 0.0
H793 H 0.26734 0.57227 0.76754 0.0
H794 H 0.23779 0.51688 0.77761 0.0
O795 O 0.2973 0.5626 0.78782 0.0
H796 H 0.27305 0.51439 0.84224 0.0
H797 H 0.21397 0.53539 0.76395 0.0
Cu798 Cu 0.29551 0.51531 0.25844 0.0
N799 N 0.27268 0.49808 0.26224 0.0
N800 N 0.25162 0.47424 0.27347 0.0
C801 C 0.26973 0.48405 0.27334 0.0
C802 C 0.24281 0.48245 0.2621 0.0
C803 C 0.2558 0.49728 0.2553 0.0
O804 O 0.31604 0.49994 0.2578 0.0
C805 C 0.28377 0.54826 0.27495 0.0
O806 O 0.27305 0.5446 0.26144 0.0
H807 H 0.28066 0.48109 0.28114 0.0
H808 H 0.25299 0.50702 0.24621 0.0
N809 N 0.29592 0.5255 0.23669 0.0
N810 N 0.3007 0.547 0.21656 0.0
C811 C 0.30506 0.54313 0.23248 0.0
C812 C 0.28568 0.51791 0.22282 0.0
C813 C 0.28854 0.53116 0.21043 0.0
C814 C 0.31666 0.48753 0.24457 0.0
O815 O 0.30416 0.48625 0.23266 0.0
H816 H 0.31393 0.5533 0.2413 0.0
H817 H 0.27639 0.50389 0.22191 0.0
O818 O 0.29549 0.53706 0.27674 0.0
H819 H 0.22792 0.47838 0.2593 0.0
H820 H 0.28199 0.5294 0.19798 0.0
Cu821 Cu 0.76644 0.52342 0.27706 0.0
N822 N 0.76248 0.50934 0.29667 0.0
N823 N 0.76633 0.48668 0.31379 0.0
C824 C 0.76934 0.49304 0.29767 0.0
C825 C 0.75714 0.49954 0.32335 0.0
C826 C 0.75475 0.51352 0.31272 0.0
O827 O 0.77314 0.50552 0.25809 0.0
C828 C 0.79657 0.5536 0.26862 0.0
O829 O 0.79429 0.54592 0.25247 0.0
H830 H 0.77727 0.48652 0.28696 0.0
H831 H 0.74841 0.52614 0.31654 0.0
N832 N 0.74524 0.5335 0.27236 0.0
N833 N 0.72866 0.55335 0.26201 0.0
C834 C 0.74601 0.54896 0.2632 0.0
C835 C 0.72676 0.52787 0.27724 0.0
C836 C 0.71645 0.54005 0.27077 0.0
C837 C 0.76005 0.49323 0.25083 0.0
O838 O 0.74223 0.49497 0.2544 0.0
H839 H 0.75907 0.55675 0.25737 0.0
H840 H 0.7212 0.51583 0.28499 0.0
O841 O 0.78674 0.54527 0.28108 0.0
H842 H 0.75275 0.49907 0.33709 0.0
H843 H 0.70123 0.53939 0.27264 0.0
Cu844 Cu 0.51566 0.26883 0.77465 0.0
N845 N 0.49494 0.26657 0.79113 0.0
N846 N 0.47002 0.27452 0.80763 0.0
C847 C 0.48469 0.28051 0.79616 0.0
C848 C 0.47117 0.25599 0.8098 0.0
C849 C 0.48645 0.25112 0.79956 0.0
O850 O 0.50504 0.26836 0.75202 0.0
C851 C 0.53821 0.29456 0.79702 0.0
O852 O 0.52838 0.28301 0.80816 0.0
H853 H 0.48777 0.29461 0.7911 0.0
H854 H 0.49084 0.23721 0.79818 0.0
N855 N 0.52963 0.24889 0.77427 0.0
N856 N 0.55332 0.23279 0.76609 0.0
C857 C 0.54253 0.24501 0.76143 0.0
C858 C 0.53235 0.2388 0.78755 0.0
C859 C 0.54689 0.22879 0.78251 0.0
C860 C 0.49706 0.25179 0.74543 0.0
O861 O 0.49777 0.23645 0.7536 0.0
H862 H 0.54486 0.25212 0.7494 0.0
H863 H 0.52515 0.23963 0.80037 0.0
O864 O 0.53399 0.29203 0.78104 0.0
H865 H 0.46171 0.24653 0.8182 0.0
H866 H 0.55273 0.21985 0.79056 0.0
Cu867 Cu 0.57409 0.79547 0.78097 0.0
N868 N 0.59055 0.79509 0.79896 0.0
N869 N 0.61282 0.78536 0.81325 0.0
C870 C 0.6045 0.78448 0.79788 0.0
C871 C 0.60384 0.7971 0.82441 0.0
C872 C 0.59021 0.80312 0.81558 0.0
O873 O 0.58952 0.79466 0.75931 0.0
C874 C 0.54422 0.7715 0.79606 0.0
O875 O 0.55057 0.78269 0.80984 0.0
H876 H 0.6079 0.77561 0.78623 0.0
H877 H 0.58025 0.81206 0.82115 0.0
N878 N 0.56131 0.81665 0.78277 0.0
N879 N 0.53885 0.83343 0.77784 0.0
C880 C 0.54691 0.81782 0.77274 0.0
C881 C 0.56249 0.83217 0.79457 0.0
C882 C 0.54861 0.84249 0.7916 0.0
C883 C 0.59789 0.81053 0.75352 0.0
O884 O 0.59397 0.82685 0.76127 0.0
H885 H 0.54199 0.807 0.76228 0.0
H886 H 0.57249 0.83565 0.80477 0.0
O887 O 0.55366 0.77336 0.7815 0.0
H888 H 0.60673 0.80086 0.83806 0.0
H889 H 0.54591 0.85564 0.799 0.0
Cu890 Cu 0.49145 0.76655 0.27704 0.0
N891 N 0.47252 0.76309 0.29521 0.0
N892 N 0.44857 0.77008 0.31349 0.0
C893 C 0.45887 0.77393 0.29843 0.0
C894 C 0.45593 0.75617 0.31997 0.0
C895 C 0.47065 0.75183 0.30863 0.0
O896 O 0.47844 0.76689 0.25574 0.0
C897 C 0.51583 0.79126 0.29858 0.0
O898 O 0.50806 0.77817 0.30924 0.0
H899 H 0.4572 0.78514 0.29033 0.0
H900 H 0.47993 0.74191 0.31057 0.0
N901 N 0.50592 0.74692 0.27345 0.0
N902 N 0.53022 0.73263 0.26285 0.0
C903 C 0.52256 0.7488 0.26389 0.0
C904 C 0.50282 0.72888 0.27869 0.0
C905 C 0.51779 0.72004 0.27218 0.0
C906 C 0.46888 0.75049 0.25039 0.0
O907 O 0.469 0.73554 0.25928 0.0
H908 H 0.52867 0.76175 0.25752 0.0
H909 H 0.49045 0.72246 0.28642 0.0
O910 O 0.50994 0.78985 0.28317 0.0
H911 H 0.4513 0.74992 0.33222 0.0
H912 H 0.51937 0.7055 0.27427 0.0
Cu913 Cu 0.56473 0.26496 0.26189 0.0
N914 N 0.54394 0.2446 0.2618 0.0
N915 N 0.5136 0.23119 0.26738 0.0
C916 C 0.52759 0.24646 0.27086 0.0
C917 C 0.52142 0.21906 0.25565 0.0
C918 C 0.54028 0.22735 0.25229 0.0
O919 O 0.55229 0.28781 0.26318 0.0
C920 C 0.58572 0.24609 0.28126 0.0
O921 O 0.57813 0.2319 0.27012 0.0
H922 H 0.52575 0.25932 0.27919 0.0
H923 H 0.55037 0.22138 0.24329 0.0
N924 N 0.58041 0.26394 0.2415 0.0
N925 N 0.60744 0.26901 0.22495 0.0
C926 C 0.5984 0.27376 0.24025 0.0
C927 C 0.5779 0.25268 0.22635 0.0
C928 C 0.59468 0.2557 0.21613 0.0
C929 C 0.54576 0.29153 0.24908 0.0
O930 O 0.5501 0.28197 0.23431 0.0
H931 H 0.605 0.28358 0.25072 0.0
H932 H 0.56495 0.24279 0.22302 0.0
O933 O 0.58119 0.26272 0.28087 0.0
H934 H 0.514 0.20538 0.2498 0.0
H935 H 0.59735 0.2486 0.20331 0.0
C936 C 0.21108 0.2176 0.176 0.0
C937 C 0.19201 0.20811 0.17598 0.0
C938 C 0.21988 0.22712 0.16149 0.0
C939 C 0.20947 0.22682 0.14645 0.0
C940 C 0.19027 0.21704 0.1463 0.0
C941 C 0.18172 0.20797 0.16113 0.0
C942 C 0.24025 0.23768 0.16233 0.0
C943 C 0.17878 0.21606 0.13043 0.0
C944 C 0.22573 0.26557 0.11459 0.0
C945 C 0.23615 0.25597 0.10162 0.0
C946 C 0.21712 0.25633 0.12931 0.0
C947 C 0.21864 0.23686 0.13093 0.0
C948 C 0.22897 0.22702 0.11776 0.0
C949 C 0.23776 0.23676 0.10336 0.0
C950 C 0.20657 0.26747 0.14321 0.0
C951 C 0.23063 0.20616 0.11881 0.0
H952 H 0.21901 0.21789 0.18754 0.0
H953 H 0.16702 0.20051 0.16104 0.0
H954 H 0.24924 0.23155 0.15171 0.0
H955 H 0.24111 0.25318 0.16028 0.0
H956 H 0.24629 0.23675 0.17506 0.0
H957 H 0.16419 0.20745 0.13223 0.0
H958 H 0.17765 0.23089 0.12756 0.0
H959 H 0.18609 0.20949 0.11881 0.0
H960 H 0.22466 0.28049 0.11338 0.0
H961 H 0.24564 0.22925 0.09326 0.0
H962 H 0.2129 0.26783 0.15602 0.0
H963 H 0.19149 0.2601 0.14468 0.0
H964 H 0.20694 0.2826 0.14012 0.0
H965 H 0.23778 0.20475 0.13081 0.0
H966 H 0.2388 0.20045 0.1073 0.0
H967 H 0.21623 0.19699 0.11969 0.0
C968 C 0.8419 0.23201 0.09508 0.0
C969 C 0.83421 0.21304 0.09906 0.0
C970 C 0.83779 0.23889 0.07951 0.0
C971 C 0.82569 0.22653 0.0677 0.0
C972 C 0.81778 0.20741 0.07174 0.0
C973 C 0.82219 0.20089 0.08737 0.0
C974 C 0.84661 0.25933 0.0756 0.0
C975 C 0.80482 0.19382 0.05951 0.0
C976 C 0.80392 0.25223 0.03529 0.0
C977 C 0.81684 0.25157 0.02073 0.0
C978 C 0.80621 0.24352 0.05048 0.0
C979 C 0.8216 0.23367 0.05102 0.0
C980 C 0.83397 0.23195 0.03599 0.0
C981 C 0.83148 0.24097 0.02106 0.0
C982 C 0.79268 0.24561 0.06624 0.0
C983 C 0.85046 0.22144 0.03597 0.0
H984 H 0.85123 0.24148 0.10403 0.0
H985 H 0.81621 0.18621 0.09045 0.0
H986 H 0.85683 0.25897 0.06409 0.0
H987 H 0.83549 0.26713 0.07223 0.0
H988 H 0.85428 0.26764 0.0868 0.0
H989 H 0.79973 0.17943 0.06463 0.0
H990 H 0.79228 0.20022 0.05735 0.0
H991 H 0.8124 0.1917 0.04658 0.0
H992 H 0.7926 0.26045 0.0352 0.0
H993 H 0.84148 0.24031 1.00984 0.0
H994 H 0.80075 0.25197 0.07785 0.0
H995 H 0.78475 0.23111 0.0693 0.0
H996 H 0.78226 0.25487 0.06415 0.0
H997 H 0.86108 0.22959 0.04507 0.0
H998 H 0.85764 0.2198 0.02276 0.0
H999 H 0.84553 0.20686 0.04067 0.0
C1000 C 0.87561 0.85295 0.14368 0.0
C1001 C 0.86406 0.85712 0.15857 0.0
C1002 C 0.86764 0.84509 0.12772 0.0
C1003 C 0.84758 0.84106 0.1266 0.0
C1004 C 0.83586 0.84471 0.14174 0.0
C1005 C 0.84421 0.85278 0.15746 0.0
C1006 C 0.8807 0.84171 0.1119 0.0
C1007 C 0.81443 0.84047 0.14126 0.0
C1008 C 0.82482 0.8423 0.0836 0.0
C1009 C 0.81891 0.82256 0.07837 0.0
C1010 C 0.83482 0.84842 0.09881 0.0
C1011 C 0.83882 0.8345 0.10938 0.0
C1012 C 0.83347 0.8145 0.10389 0.0
C1013 C 0.82371 0.80875 0.08836 0.0
C1014 C 0.8405 0.86987 0.10389 0.0
C1015 C 0.83728 0.79917 0.11482 0.0
H1016 H 0.89096 0.85637 0.14437 0.0
H1017 H 0.83517 0.85568 0.16894 0.0
H1018 H 0.87674 0.82664 0.10594 0.0
H1019 H 0.87912 0.8515 0.10187 0.0
H1020 H 0.89588 0.84435 0.11516 0.0
H1021 H 0.8073 0.84278 0.15441 0.0
H1022 H 0.80986 0.85 0.13239 0.0
H1023 H 0.80947 0.82528 0.13599 0.0
H1024 H 0.82128 0.85307 0.07591 0.0
H1025 H 0.81903 0.79349 0.08451 0.0
H1026 H 0.85587 0.87358 0.10647 0.0
H1027 H 0.83246 0.87384 0.11615 0.0
H1028 H 0.83769 0.87881 0.0936 0.0
H1029 H 0.85249 0.80194 0.11792 0.0
H1030 H 0.83361 0.78436 0.10815 0.0
H1031 H 0.82877 0.79974 0.12743 0.0
C1032 C 0.22458 0.79798 0.14146 0.0
C1033 C 0.20827 0.80463 0.14871 0.0
C1034 C 0.23099 0.80074 0.12407 0.0
C1035 C 0.22099 0.81066 0.11381 0.0
C1036 C 0.20423 0.81697 0.12095 0.0
C1037 C 0.19796 0.8137 0.13832 0.0
C1038 C 0.24869 0.79341 0.11678 0.0
C1039 C 0.19331 0.82775 0.11047 0.0
C1040 C 0.25075 0.83416 0.0761 0.0
C1041 C 0.24565 0.82041 0.06199 0.0
C1042 C 0.24222 0.83158 0.09293 0.0
C1043 C 0.22842 0.81475 0.09575 0.0
C1044 C 0.22261 0.80126 0.08147 0.0
C1045 C 0.23115 0.80435 0.06476 0.0
C1046 C 0.24856 0.84646 0.10783 0.0
C1047 C 0.20799 0.7831 0.08395 0.0
H1048 H 0.23249 0.79083 0.14946 0.0
H1049 H 0.18539 0.81891 0.14398 0.0
H1050 H 0.24567 0.78394 0.10454 0.0
H1051 H 0.26001 0.8058 0.11345 0.0
H1052 H 0.25423 0.78512 0.12617 0.0
H1053 H 0.18011 0.83094 0.11768 0.0
H1054 H 0.20243 0.84164 0.10718 0.0
H1055 H 0.18942 0.81922 0.09795 0.0
H1056 H 0.26195 0.84656 0.07417 0.0
H1057 H 0.22674 0.7939 0.0539 0.0
H1058 H 0.25628 0.84001 0.11705 0.0
H1059 H 0.23603 0.85094 0.11525 0.0
H1060 H 0.25809 0.85955 0.10322 0.0
H1061 H 0.21367 0.77371 0.09222 0.0
H1062 H 0.20415 0.77468 0.07133 0.0
H1063 H 0.19487 0.78678 0.09088 0.0
C1064 C 0.20648 0.84547 0.91135 0.0
C1065 C 0.20083 0.83452 0.89582 0.0
C1066 C 0.2146 0.83744 0.92427 0.0
C1067 C 0.21747 0.81803 0.92146 0.0
C1068 C 0.21129 0.8067 0.90598 0.0
C1069 C 0.20293 0.81506 0.89335 0.0
C1070 C 0.22077 0.85001 0.94065 0.0
C1071 C 0.2143 0.78605 0.90242 0.0
C1072 C 0.25928 0.81142 0.94595 0.0
C1073 C 0.25026 0.80364 0.96111 0.0
C1074 C 0.24873 0.81467 0.93227 0.0
C1075 C 0.22859 0.81052 0.93401 0.0
C1076 C 0.21942 0.80151 0.94887 0.0
C1077 C 0.23043 0.798 0.96225 0.0
C1078 C 0.25915 0.82386 0.91653 0.0
C1079 C 0.198 0.79698 0.95127 0.0
H1080 H 0.20478 0.86049 0.91329 0.0
H1081 H 0.19863 0.80653 0.88132 0.0
H1082 H 0.215 0.84246 0.95244 0.0
H1083 H 0.23652 0.85279 0.94086 0.0
H1084 H 0.21599 0.86416 0.94154 0.0
H1085 H 0.20688 0.77855 0.89077 0.0
H1086 H 0.22974 0.78593 0.90016 0.0
H1087 H 0.20917 0.77774 0.9139 0.0
H1088 H 0.27467 0.8157 0.94511 0.0
H1089 H 0.22349 0.79216 0.97409 0.0
H1090 H 0.25718 0.83912 0.91692 0.0
H1091 H 0.25329 0.81619 0.90426 0.0
H1092 H 0.27467 0.82376 0.9161 0.0
H1093 H 0.19257 0.81068 0.95448 0.0
H1094 H 0.19313 0.78742 0.962 0.0
H1095 H 0.1916 0.78992 0.93902 0.0
C1096 C 0.23878 0.20121 0.93401 0.0
C1097 C 0.25229 0.19982 0.92001 0.0
C1098 C 0.24425 0.20922 0.95078 0.0
C1099 C 0.26375 0.21621 0.95376 0.0
C1100 C 0.27753 0.21441 0.9398 0.0
C1101 C 0.27166 0.20618 0.92315 0.0
C1102 C 0.22903 0.21073 0.96522 0.0
C1103 C 0.29843 0.22186 0.94227 0.0
C1104 C 0.27182 0.25664 0.99045 0.0
C1105 C 0.27518 0.2469 1.00465 0.0
C1106 C 0.26919 0.24706 0.9737 0.0
C1107 C 0.26937 0.22696 0.971 0.0
C1108 C 0.27349 0.21713 0.98515 0.0
C1109 C 0.27655 0.22728 1.00181 0.0
C1110 C 0.26541 0.25838 0.95905 0.0
C1111 C 0.2738 0.19573 0.98287 0.0
H1112 H 0.22382 0.19608 0.93183 0.0
H1113 H 0.28222 0.20533 0.91243 0.0
H1114 H 0.23241 0.20432 0.97696 0.0
H1115 H 0.22857 0.22621 0.96907 0.0
H1116 H 0.21469 0.20331 0.96121 0.0
H1117 H 0.30749 0.21781 0.93069 0.0
H1118 H 0.30107 0.2379 0.9446 0.0
H1119 H 0.30289 0.21615 0.95393 0.0
H1120 H 0.27092 0.27187 0.99253 0.0
H1121 H 0.27907 0.21968 1.01274 0.0
H1122 H 0.25047 0.25351 0.95532 0.0
H1123 H 0.27478 0.25571 0.9473 0.0
H1124 H 0.26775 0.27423 0.96282 0.0
H1125 H 0.25923 0.18755 0.98055 0.0
H1126 H 0.27891 0.19057 0.99455 0.0
H1127 H 0.28307 0.19231 0.97126 0.0
C1128 C 0.85984 0.30226 0.85075 0.0
C1129 C 0.84219 0.29868 0.84314 0.0
C1130 C 0.86097 0.30328 0.86892 0.0
C1131 C 0.84405 0.30164 0.87976 0.0
C1132 C 0.8262 0.29922 0.87218 0.0
C1133 C 0.82549 0.29768 0.85388 0.0
C1134 C 0.88027 0.30576 0.87646 0.0
C1135 C 0.80787 0.29781 0.88337 0.0
C1136 C 0.84425 0.28528 0.92525 0.0
C1137 C 0.84649 0.30295 0.93554 0.0
C1138 C 0.84376 0.28465 0.90701 0.0
C1139 C 0.84506 0.30214 0.899 0.0
C1140 C 0.8474 0.32005 0.90937 0.0
C1141 C 0.84826 0.32025 0.92755 0.0
C1142 C 0.84161 0.26531 0.89633 0.0
C1143 C 0.84838 0.33893 0.90134 0.0
H1144 H 0.87282 0.30425 0.84251 0.0
H1145 H 0.81187 0.29527 0.84795 0.0
H1146 H 0.88289 0.31928 0.88529 0.0
H1147 H 0.88066 0.29355 0.88441 0.0
H1148 H 0.89201 0.30633 0.86615 0.0
H1149 H 0.79543 0.29793 0.87558 0.0
H1150 H 0.80525 0.2842 0.89001 0.0
H1151 H 0.80892 0.31 0.89373 0.0
H1152 H 0.84272 0.27196 0.93159 0.0
H1153 H 0.84949 0.33385 0.93562 0.0
H1154 H 0.85342 0.26545 0.88615 0.0
H1155 H 0.82813 0.26254 0.88947 0.0
H1156 H 0.84152 0.25316 0.90451 0.0
H1157 H 0.86016 0.34085 0.89111 0.0
H1158 H 0.85059 0.35164 0.9112 0.0
H1159 H 0.83497 0.33868 0.89488 0.0
C1160 C 0.83004 0.85089 0.9038 0.0
C1161 C 0.8392 0.87008 0.90201 0.0
C1162 C 0.82161 0.84511 0.91998 0.0
C1163 C 0.82271 0.85878 0.93482 0.0
C1164 C 0.83182 0.87822 0.93304 0.0
C1165 C 0.8398 0.88367 0.91661 0.0
C1166 C 0.81171 0.82434 0.92123 0.0
C1167 C 0.83359 0.89314 0.94858 0.0
C1168 C 0.78866 0.84821 0.97455 0.0
C1169 C 0.79978 0.84044 0.98529 0.0
C1170 C 0.79587 0.85412 0.95806 0.0
C1171 C 0.8148 0.85259 0.9523 0.0
C1172 C 0.82617 0.845 0.9632 0.0
C1173 C 0.81846 0.83885 0.97948 0.0
C1174 C 0.78316 0.86175 0.94668 0.0
C1175 C 0.84651 0.84343 0.95771 0.0
H1176 H 0.82944 0.84039 0.89248 0.0
H1177 H 0.84703 0.89847 0.91528 0.0
H1178 H 0.81919 0.81729 0.93018 0.0
H1179 H 0.79693 0.82385 0.92682 0.0
H1180 H 0.81122 0.81579 0.9083 0.0
H1181 H 0.84085 0.9077 0.94496 0.0
H1182 H 0.81929 0.89429 0.95465 0.0
H1183 H 0.84174 0.88857 0.95865 0.0
H1184 H 0.77414 0.84922 0.97892 0.0
H1185 H 0.82713 0.83303 0.98782 0.0
H1186 H 0.78164 0.85264 0.93408 0.0
H1187 H 0.78967 0.87668 0.94359 0.0
H1188 H 0.76876 0.86191 0.95303 0.0
H1189 H 0.84694 0.83369 0.94552 0.0
H1190 H 0.85362 0.83775 0.96792 0.0
H1191 H 0.85477 0.85787 0.95484 0.0
C1192 C 0.1237 0.20064 0.21121 0.0
C1193 C 0.13802 0.19814 0.22186 0.0
C1194 C 0.10616 0.20464 0.21851 0.0
C1195 C 0.10266 0.2059 0.23691 0.0
C1196 C 0.11698 0.20331 0.24774 0.0
C1197 C 0.13449 0.19963 0.24011 0.0
C1198 C 0.09135 0.20753 0.20651 0.0
C1199 C 0.11379 0.20441 0.26741 0.0
C1200 C 0.06451 0.23332 0.25728 0.0
C1201 C 0.04889 0.21828 0.25997 0.0
C1202 C 0.08198 0.22951 0.24969 0.0
C1203 C 0.08411 0.21014 0.24486 0.0
C1204 C 0.06855 0.19485 0.2477 0.0
C1205 C 0.05114 0.19909 0.25511 0.0
C1206 C 0.09818 0.24625 0.24682 0.0
C1207 C 0.07031 0.17397 0.24291 0.0
H1208 H 0.12608 0.19923 0.19711 0.0
H1209 H 0.14551 0.1981 0.24853 0.0
H1210 H 0.07821 0.19654 0.20833 0.0
H1211 H 0.08747 0.22198 0.20984 0.0
H1212 H 0.09638 0.2064 0.1925 0.0
H1213 H 0.12615 0.20153 0.27397 0.0
H1214 H 0.11111 0.21898 0.27241 0.0
H1215 H 0.101 0.19374 0.27116 0.0
H1216 H 0.06324 0.24817 0.26126 0.0
H1217 H 0.03923 0.18734 0.25691 0.0
H1218 H 0.10297 0.24601 0.23276 0.0
H1219 H 0.11051 0.24487 0.25422 0.0
H1220 H 0.09413 0.26051 0.251 0.0
H1221 H 0.07386 0.17166 0.22868 0.0
H1222 H 0.05701 0.16373 0.24626 0.0
H1223 H 0.0821 0.17045 0.24984 0.0
C1224 C 0.81923 0.16468 0.17335 0.0
C1225 C 0.8388 0.17162 0.17486 0.0
C1226 C 0.81038 0.14695 0.17969 0.0
C1227 C 0.82134 0.13599 0.18784 0.0
C1228 C 0.84105 0.14298 0.18951 0.0
C1229 C 0.84954 0.1606 0.1829 0.0
C1230 C 0.78935 0.13988 0.17758 0.0
C1231 C 0.85323 0.13176 0.19815 0.0
C1232 C 0.79808 0.09785 0.21825 0.0
C1233 C 0.79873 0.08059 0.20765 0.0
C1234 C 0.80492 0.11601 0.21186 0.0
C1235 C 0.81241 0.11699 0.19436 0.0
C1236 C 0.81249 0.0997 0.18339 0.0
C1237 C 0.80575 0.08174 0.19018 0.0
C1238 C 0.80465 0.13414 0.22398 0.0
C1239 C 0.82026 0.10013 0.16462 0.0
H1240 H 0.81079 0.17319 0.16734 0.0
H1241 H 0.86473 0.16563 0.18382 0.0
H1242 H 0.78701 0.12562 0.1698 0.0
H1243 H 0.78185 0.13775 0.19058 0.0
H1244 H 0.78283 0.15014 0.171 0.0
H1245 H 0.86822 0.1395 0.1989 0.0
H1246 H 0.84732 0.12905 0.21161 0.0
H1247 H 0.85314 0.11743 0.19076 0.0
H1248 H 0.79236 0.09722 0.23164 0.0
H1249 H 0.80655 0.06861 0.18186 0.0
H1250 H 0.79734 0.14421 0.21802 0.0
H1251 H 0.81946 0.14178 0.22606 0.0
H1252 H 0.79741 0.13096 0.23693 0.0
H1253 H 0.81346 0.10984 0.15765 0.0
H1254 H 0.81794 0.08551 0.15742 0.0
H1255 H 0.83577 0.10603 0.16425 0.0
C1256 C 0.95081 0.86654 0.23485 0.0
C1257 C 0.93811 0.85742 0.22222 0.0
C1258 C 0.96545 0.85768 0.2397 0.0
C1259 C 0.9675 0.83912 0.23181 0.0
C1260 C 0.95457 0.82973 0.21916 0.0
C1261 C 0.94008 0.83899 0.21449 0.0
C1262 C 0.97887 0.86829 0.2532 0.0
C1263 C 0.95611 0.80993 0.21047 0.0
C1264 C 0.01623 0.82454 0.23195 0.0
C1265 C 1.01385 0.81289 0.24604 0.0
C1266 C 1.00129 0.83303 0.22715 0.0
C1267 C 0.98337 0.82977 0.23657 0.0
C1268 C 0.98081 0.81787 0.25071 0.0
C1269 C 0.99604 0.80966 0.2553 0.0
C1270 C 1.00477 0.8457 0.21208 0.0
C1271 C 0.96196 0.81381 0.26104 0.0
H1272 H 0.94936 0.88076 0.24089 0.0
H1273 H 0.93033 0.83176 0.20476 0.0
H1274 H 0.97848 0.85937 0.26438 0.0
H1275 H 0.99369 0.8707 0.24742 0.0
H1276 H 0.97529 0.88253 0.25824 0.0
H1277 H 0.94473 0.80435 0.20122 0.0
H1278 H 0.97013 0.81051 0.20321 0.0
H1279 H 0.95528 0.7995 0.22053 0.0
H1280 H 0.02992 0.82732 0.22482 0.0
H1281 H 0.99388 0.80046 0.26602 0.0
H1282 H 1.00259 0.86055 0.21672 0.0
H1283 H 0.99438 0.83997 0.20196 0.0
H1284 H 0.01938 0.84662 0.20593 0.0
H1285 H 0.95842 0.82756 0.26742 0.0
H1286 H 0.96207 0.80377 0.27129 0.0
H1287 H 0.95046 0.80738 0.25215 0.0
C1288 C 0.24589 0.86369 0.23938 0.0
C1289 C 0.24073 0.8572 0.22226 0.0
C1290 C 0.2519 0.88349 0.2442 0.0
C1291 C 0.25279 0.89699 0.23156 0.0
C1292 C 0.24982 0.89029 0.21385 0.0
C1293 C 0.24379 0.87044 0.20941 0.0
C1294 C 0.25527 0.89004 0.26318 0.0
C1295 C 0.25084 0.90418 0.19992 0.0
C1296 C 0.23555 0.94351 0.24718 0.0
C1297 C 0.25261 0.95701 0.2482 0.0
C1298 C 0.23552 0.92398 0.24178 0.0
C1299 C 0.25302 0.91773 0.23731 0.0
C1300 C 0.27033 0.93122 0.2382 0.0
C1301 C 0.26992 0.95074 0.24361 0.0
C1302 C 0.21671 0.91 0.24102 0.0
C1303 C 0.28922 0.92504 0.23352 0.0
H1304 H 0.24387 0.85345 0.24929 0.0
H1305 H 0.23977 0.8656 0.19616 0.0
H1306 H 0.26767 0.9021 0.26443 0.0
H1307 H 0.2426 0.89547 0.26936 0.0
H1308 H 0.2577 0.87801 0.27053 0.0
H1309 H 0.25181 0.89679 0.18654 0.0
H1310 H 0.23782 0.91067 0.20124 0.0
H1311 H 0.26326 0.91618 0.20144 0.0
H1312 H 0.22216 0.94808 0.251 0.0
H1313 H 0.28316 0.96111 0.24419 0.0
H1314 H 0.21646 0.8984 0.24983 0.0
H1315 H 0.2149 0.90295 0.22755 0.0
H1316 H 0.20439 0.91724 0.24489 0.0
H1317 H 0.29123 0.91404 0.24223 0.0
H1318 H 0.30139 0.9374 0.23468 0.0
H1319 H 0.28946 0.91816 0.21993 0.0
C1320 C 0.14012 0.83062 0.80248 0.0
C1321 C 0.14058 0.83389 0.82075 0.0
C1322 C 0.12282 0.82415 0.79439 0.0
C1323 C 0.1056 0.82106 0.80483 0.0
C1324 C 0.10599 0.82459 0.82327 0.0
C1325 C 0.12349 0.83086 0.831 0.0
C1326 C 0.123 0.82025 0.77473 0.0
C1327 C 0.08792 0.82156 0.83485 0.0
C1328 C 0.05735 0.81697 0.78559 0.0
C1329 C 0.05065 0.79698 0.78526 0.0
C1330 C 0.07555 0.8251 0.79147 0.0
C1331 C 0.08726 0.81283 0.79672 0.0
C1332 C 0.08087 0.79253 0.79536 0.0
C1333 C 0.06258 0.78489 0.78983 0.0
C1334 C 0.08188 0.84683 0.79284 0.0
C1335 C 0.09304 0.77887 0.80042 0.0
H1336 H 0.15335 0.83289 0.79453 0.0
H1337 H 0.12378 0.83371 0.8451 0.0
H1338 H 0.11761 0.80463 0.77119 0.0
H1339 H 0.11338 0.82846 0.76927 0.0
H1340 H 0.13749 0.82425 0.76844 0.0
H1341 H 0.09057 0.82601 0.84885 0.0
H1342 H 0.07768 0.82993 0.83062 0.0
H1343 H 0.08106 0.80603 0.83363 0.0
H1344 H 0.04808 0.82628 0.78205 0.0
H1345 H 0.0575 0.76936 0.78926 0.0
H1346 H 0.09621 0.85082 0.78628 0.0
H1347 H 0.08298 0.85233 0.80681 0.0
H1348 H 0.07182 0.85421 0.78693 0.0
H1349 H 0.10745 0.78201 0.79383 0.0
H1350 H 0.08671 0.76344 0.79698 0.0
H1351 H 0.0948 0.781 0.81473 0.0
C1352 C 0.26071 0.15657 0.84562 0.0
C1353 C 0.25879 0.15664 0.86396 0.0
C1354 C 0.26866 0.14227 0.83518 0.0
C1355 C 0.27533 0.12776 0.84318 0.0
C1356 C 0.27399 0.12802 0.86167 0.0
C1357 C 0.26562 0.14228 0.87179 0.0
C1358 C 0.26961 0.14251 0.81552 0.0
C1359 C 0.28114 0.11301 0.87079 0.0
C1360 C 0.2777 0.08027 0.81541 0.0
C1361 C 0.29684 0.083 0.80908 0.0
C1362 C 0.27063 0.09454 0.82668 0.0
C1363 C 0.28302 0.11195 0.8321 0.0
C1364 C 0.30251 0.11451 0.82631 0.0
C1365 C 0.30914 0.10012 0.81477 0.0
C1366 C 0.24971 0.09124 0.83228 0.0
C1367 C 0.31631 0.13264 0.83202 0.0
H1368 H 0.25595 0.16774 0.83932 0.0
H1369 H 0.26407 0.14187 0.88587 0.0
H1370 H 0.28456 0.14355 0.81025 0.0
H1371 H 0.26137 0.12877 0.80959 0.0
H1372 H 0.26388 0.15479 0.8113 0.0
H1373 H 0.28033 0.11597 0.88525 0.0
H1374 H 0.27259 0.09846 0.86734 0.0
H1375 H 0.29613 0.11252 0.86633 0.0
H1376 H 0.26798 0.0672 0.81105 0.0
H1377 H 0.32394 0.10241 0.81002 0.0
H1378 H 0.24299 0.10242 0.8273 0.0
H1379 H 0.24782 0.09271 0.84675 0.0
H1380 H 0.24206 0.07671 0.82736 0.0
H1381 H 0.3124 0.14534 0.82674 0.0
H1382 H 0.33123 0.13182 0.82747 0.0
H1383 H 0.31554 0.13521 0.8465 0.0
C1384 C 0.92386 0.26776 0.8163 0.0
C1385 C 0.91115 0.2652 0.83093 0.0
C1386 C 0.9435 0.26964 0.8179 0.0
C1387 C 0.95056 0.26928 0.8346 0.0
C1388 C 0.93779 0.26757 0.84954 0.0
C1389 C 0.91816 0.26533 0.84749 0.0
C1390 C 0.95655 0.27096 0.80156 0.0
C1391 C 0.94481 0.26753 0.86757 0.0
C1392 C 0.99718 0.25136 0.83191 0.0
C1393 C 1.01043 0.26877 0.8317 0.0
C1394 C 0.9776 0.25133 0.83392 0.0
C1395 C 0.9711 0.26917 0.83603 0.0
C1396 C 0.98443 0.2868 0.83743 0.0
C1397 C 1.00399 0.28641 0.8352 0.0
C1398 C 0.96386 0.2322 0.83234 0.0
C1399 C 0.97801 0.30609 0.83996 0.0
H1400 H 0.91835 0.26753 0.8035 0.0
H1401 H 0.90825 0.26354 0.85881 0.0
H1402 H 0.96926 0.28247 0.80361 0.0
H1403 H 0.96163 0.25705 0.79845 0.0
H1404 H 0.9493 0.27393 0.7901 0.0
H1405 H 0.93333 0.2683 0.87799 0.0
H1406 H 0.95046 0.2541 0.86845 0.0
H1407 H 0.95664 0.27995 0.87009 0.0
H1408 H 1.00203 0.23766 0.82941 0.0
H1409 H 1.01411 0.29994 0.83513 0.0
H1410 H 0.95656 0.23079 0.81991 0.0
H1411 H 0.95275 0.23154 0.84318 0.0
H1412 H 0.97113 0.21965 0.83245 0.0
H1413 H 0.97188 0.3088 0.82779 0.0
H1414 H 0.98994 0.31824 0.84312 0.0
H1415 H 0.96668 0.30599 0.85059 0.0
C1416 C 0.83657 0.94468 0.83825 0.0
C1417 C 0.85542 0.94184 0.83531 0.0
C1418 C 0.83093 0.9611 0.83284 0.0
C1419 C 0.8445 0.9752 0.82451 0.0
C1420 C 0.86344 0.97215 0.82112 0.0
C1421 C 0.86863 0.95543 0.82645 0.0
C1422 C 0.81047 0.96354 0.8363 0.0
C1423 C 0.87832 0.98678 0.81228 0.0
C1424 C 0.82421 0.01182 0.80165 0.0
C1425 C 0.82403 0.02681 0.81505 0.0
C1426 C 0.83144 0.99515 0.80425 0.0
C1427 C 0.83902 0.99364 0.82049 0.0
C1428 C 0.84 1.00932 0.83358 0.0
C1429 C 0.8324 0.02561 0.83074 0.0
C1430 C 0.83042 0.97897 0.78979 0.0
C1431 C 0.84819 1.00849 0.85098 0.0
H1432 H 0.8262 0.93411 0.84486 0.0
H1433 H 0.88318 0.95322 0.82407 0.0
H1434 H 0.80977 0.97639 0.84569 0.0
H1435 H 0.80449 0.96612 0.82401 0.0
H1436 H 0.80138 0.95067 0.84176 0.0
H1437 H 0.89227 0.98201 0.81011 0.0
H1438 H 0.8735 0.98937 0.79948 0.0
H1439 H 0.88033 1.00083 0.8204 0.0
H1440 H 0.81774 0.01261 0.78949 0.0
H1441 H 0.8324 0.03717 0.84112 0.0
H1442 H 0.82519 0.96468 0.79501 0.0
H1443 H 0.84489 0.97879 0.7837 0.0
H1444 H 0.821 0.98074 0.77944 0.0
H1445 H 0.83887 0.99719 0.85834 0.0
H1446 H 0.84952 0.02253 0.85912 0.0
H1447 H 0.86244 1.00441 0.84898 0.0
C1448 C 0.21629 0.12058 0.21362 0.0
C1449 C 0.21137 0.13726 0.2227 0.0
C1450 C 0.22307 0.10692 0.22241 0.0
C1451 C 0.22547 0.11032 0.24065 0.0
C1452 C 0.22107 0.12749 0.24978 0.0
C1453 C 0.21384 0.14065 0.24072 0.0
C1454 C 0.22722 0.08864 0.21226 0.0
C1455 C 0.22388 0.13189 0.26912 0.0
C1456 C 0.22462 0.06726 0.26707 0.0
C1457 C 0.24407 0.06723 0.26803 0.0
C1458 C 0.2184 0.0811 0.25808 0.0
C1459 C 0.23196 0.09559 0.25026 0.0
C1460 C 0.25164 0.09584 0.25149 0.0
C1461 C 0.25746 0.08148 0.26016 0.0
C1462 C 0.1973 0.08004 0.25675 0.0
C1463 C 0.26654 0.11134 0.24376 0.0
H1464 H 0.21436 0.11796 0.19968 0.0
H1465 H 0.21026 0.15367 0.24775 0.0
H1466 H 0.24224 0.08737 0.21355 0.0
H1467 H 0.2181 0.0758 0.21771 0.0
H1468 H 0.22468 0.08821 0.19813 0.0
H1469 H 0.22088 0.14639 0.27406 0.0
H1470 H 0.21434 0.1208 0.27653 0.0
H1471 H 0.23872 0.13127 0.2719 0.0
H1472 H 0.21423 0.05619 0.27305 0.0
H1473 H 0.27252 0.0816 0.26104 0.0
H1474 H 0.19385 0.07861 0.24279 0.0
H1475 H 0.1931 0.09362 0.26283 0.0
H1476 H 0.18862 0.06764 0.26324 0.0
H1477 H 0.26537 0.11059 0.22939 0.0
H1478 H 0.28123 0.10992 0.2464 0.0
H1479 H 0.26415 0.12588 0.24921 0.0
C1480 C 0.20457 0.90007 0.83562 0.0
C1481 C 0.20044 0.8829 0.82471 0.0
C1482 C 0.21414 0.91729 0.82886 0.0
C1483 C 0.21995 0.91718 0.81085 0.0
C1484 C 0.21672 0.8996 0.80001 0.0
C1485 C 0.20682 0.88269 0.80705 0.0
C1486 C 0.2171 0.9358 0.84078 0.0
C1487 C 0.22305 0.8988 0.78084 0.0
C1488 C 0.22321 0.96367 0.78892 0.0
C1489 C 0.24279 0.97136 0.78881 0.0
C1490 C 0.21565 0.94612 0.7961 0.0
C1491 C 0.22797 0.93569 0.80305 0.0
C1492 C 0.24779 0.943 0.8026 0.0
C1493 C 0.25494 0.96079 0.79562 0.0
C1494 C 0.19439 0.93885 0.79642 0.0
C1495 C 0.2614 0.9321 0.80963 0.0
H1496 H 0.19948 0.90022 0.84925 0.0
H1497 H 0.20371 0.86933 0.79866 0.0
H1498 H 0.23222 0.94315 0.83985 0.0
H1499 H 0.20846 0.94586 0.83662 0.0
H1500 H 0.21298 0.93319 0.85467 0.0
H1501 H 0.22125 0.88369 0.77469 0.0
H1502 H 0.21461 0.90693 0.77378 0.0
H1503 H 0.23823 0.90579 0.77909 0.0
H1504 H 0.21366 0.97134 0.78341 0.0
H1505 H 0.27005 0.96649 0.79583 0.0
H1506 H 0.18872 0.93698 0.81009 0.0
H1507 H 0.19121 0.92446 0.78895 0.0
H1508 H 0.18671 0.94886 0.79077 0.0
H1509 H 0.25822 0.93094 0.82386 0.0
H1510 H 0.2765 0.93926 0.80753 0.0
H1511 H 0.25957 0.91712 0.80323 0.0
C1512 C 0.17389 0.20998 0.86041 0.0
C1513 C 0.18834 0.20508 0.84849 0.0
C1514 C 0.15803 0.21631 0.85465 0.0
C1515 C 0.1566 0.21792 0.83655 0.0
C1516 C 0.17124 0.21307 0.82452 0.0
C1517 C 0.18681 0.20665 0.83062 0.0
C1518 C 0.14273 0.2212 0.86792 0.0
C1519 C 0.17046 0.21465 0.80516 0.0
C1520 C 0.10838 0.21723 0.81793 0.0
C1521 C 0.10878 0.23696 0.81632 0.0
C1522 C 0.12361 0.21089 0.82481 0.0
C1523 C 0.13983 0.22456 0.8301 0.0
C1524 C 0.14029 0.24451 0.82858 0.0
C1525 C 0.12479 0.25045 0.82179 0.0
C1526 C 0.12239 0.18951 0.82629 0.0
C1527 C 0.15734 0.25959 0.83383 0.0
H1528 H 0.1749 0.20875 0.87423 0.0
H1529 H 0.19792 0.2029 0.82134 0.0
H1530 H 0.14119 0.23647 0.86734 0.0
H1531 H 0.12884 0.21195 0.8648 0.0
H1532 H 0.14587 0.21917 0.88148 0.0
H1533 H 0.18309 0.21061 0.79754 0.0
H1534 H 0.15748 0.20507 0.80015 0.0
H1535 H 0.16957 0.2297 0.80277 0.0
H1536 H 0.09602 0.2067 0.81396 0.0
H1537 H 0.12541 0.26569 0.8204 0.0
H1538 H 0.12436 0.18691 0.83998 0.0
H1539 H 0.13399 0.18427 0.81798 0.0
H1540 H 0.10855 0.1808 0.82223 0.0
H1541 H 0.16019 0.25865 0.84767 0.0
H1542 H 0.15534 0.27455 0.83225 0.0
H1543 H 0.17016 0.25683 0.82574 0.0
C1544 C 0.82874 0.21979 0.84276 0.0
C1545 C 0.84758 0.22157 0.83574 0.0
C1546 C 0.81721 0.20146 0.84437 0.0
C1547 C 0.82474 0.18456 0.83889 0.0
C1548 C 0.84396 0.18629 0.83252 0.0
C1549 C 0.85508 0.20472 0.83094 0.0
C1550 C 0.7968 0.20019 0.85126 0.0
C1551 C 0.85259 0.16864 0.82659 0.0
C1552 C 0.80189 0.1338 0.85028 0.0
C1553 C 0.79424 0.12581 0.83435 0.0
C1554 C 0.81101 0.15332 0.85238 0.0
C1555 C 0.81229 0.16506 0.83824 0.0
C1556 C 0.80346 0.15733 0.82255 0.0
C1557 C 0.79462 0.1378 0.82079 0.0
C1558 C 0.82028 0.16101 0.86929 0.0
C1559 C 0.80427 0.16938 0.80722 0.0
H1560 H 0.82291 0.23273 0.84674 0.0
H1561 H 0.86948 0.20587 0.82523 0.0
H1562 H 0.78717 0.19454 0.84051 0.0
H1563 H 0.7934 0.18992 0.86157 0.0
H1564 H 0.79372 0.21451 0.85672 0.0
H1565 H 0.86813 0.17243 0.82335 0.0
H1566 H 0.85016 0.15837 0.83692 0.0
H1567 H 0.84559 0.16099 0.8148 0.0
H1568 H 0.80166 0.12452 0.86075 0.0
H1569 H 0.78838 0.1317 0.80858 0.0
H1570 H 0.81682 0.17539 0.8739 0.0
H1571 H 0.83598 0.16296 0.86707 0.0
H1572 H 0.81579 0.15102 0.87976 0.0
H1573 H 0.79978 0.18337 0.81155 0.0
H1574 H 0.79507 0.16181 0.79668 0.0
H1575 H 0.81913 0.17273 0.80167 0.0
C1576 C 0.88528 0.85297 0.83403 0.0
C1577 C 0.88554 0.85879 0.85199 0.0
C1578 C 0.8979 0.84131 0.82601 0.0
C1579 C 0.91117 0.83544 0.83618 0.0
C1580 C 0.9117 0.84156 0.85425 0.0
C1581 C 0.89887 0.85311 0.86193 0.0
C1582 C 0.89684 0.83503 0.80672 0.0
C1583 C 0.92574 0.8358 0.86553 0.0
C1584 C 0.93183 0.79063 0.81984 0.0
C1585 C 0.94961 0.79881 0.81233 0.0
C1586 C 0.91917 0.80236 0.8276 0.0
C1587 C 0.92444 0.8228 0.82796 0.0
C1588 C 0.94246 0.83114 0.82058 0.0
C1589 C 0.95478 0.81906 0.81284 0.0
C1590 C 0.90006 0.79289 0.83526 0.0
C1591 C 0.94872 0.85285 0.82085 0.0
H1592 H 0.8749 0.85715 0.82631 0.0
H1593 H 0.89932 0.85778 0.87577 0.0
H1594 H 0.91085 0.83979 0.79982 0.0
H1595 H 0.89345 0.81899 0.80472 0.0
H1596 H 0.88589 0.84102 0.80061 0.0
H1597 H 0.92454 0.84204 0.8793 0.0
H1598 H 0.92339 0.81979 0.86541 0.0
H1599 H 0.94049 0.84068 0.86016 0.0
H1600 H 0.92761 0.77502 0.81931 0.0
H1601 H 0.96858 0.8255 0.80728 0.0
H1602 H 0.88849 0.79724 0.82863 0.0
H1603 H 0.8985 0.79786 0.84933 0.0
H1604 H 0.89811 0.77682 0.83394 0.0
H1605 H 0.93858 0.85907 0.81389 0.0
H1606 H 0.96322 0.85705 0.81463 0.0
H1607 H 0.94863 0.85946 0.83455 0.0
C1608 C 0.87803 0.92317 0.21841 0.0
C1609 C 0.86592 0.90726 0.21023 0.0
C1610 C 0.87086 0.93907 0.22709 0.0
C1611 C 0.85107 0.93923 0.22762 0.0
C1612 C 0.83876 0.92315 0.21954 0.0
C1613 C 0.84628 0.90742 0.21107 0.0
C1614 C 0.8845 0.9558 0.23558 0.0
C1615 C 0.81758 0.92259 0.21976 0.0
C1616 C 0.82705 0.97091 0.26204 0.0
C1617 C 0.82431 0.98605 0.25248 0.0
C1618 C 0.83637 0.95604 0.25434 0.0
C1619 C 0.84308 0.95611 0.23655 0.0
C1620 C 0.84102 0.97174 0.22701 0.0
C1621 C 0.83174 0.9865 0.23507 0.0
C1622 C 0.83839 0.93983 0.26511 0.0
C1623 C 0.84788 0.97245 0.20802 0.0
H1624 H 0.89323 0.9234 0.21774 0.0
H1625 H 0.83667 0.89513 0.20516 0.0
H1626 H 0.88402 0.96926 0.22941 0.0
H1627 H 0.88019 0.95827 0.24964 0.0
H1628 H 0.8994 0.9533 0.23445 0.0
H1629 H 0.80993 0.90913 0.21279 0.0
H1630 H 0.8116 0.92361 0.23346 0.0
H1631 H 0.81475 0.93522 0.21354 0.0
H1632 H 0.82145 0.97036 0.27549 0.0
H1633 H 0.82969 0.99803 0.22748 0.0
H1634 H 0.85337 0.93768 0.26424 0.0
H1635 H 0.82955 0.92609 0.25985 0.0
H1636 H 0.8339 0.94267 0.2791 0.0
H1637 H 0.86301 0.97083 0.20635 0.0
H1638 H 0.84645 0.98618 0.20275 0.0
H1639 H 0.83952 0.96017 0.20009 0.0
C1640 C 0.17269 0.82923 0.24475 0.0
C1641 C 0.17964 0.81359 0.23557 0.0
C1642 C 0.15638 0.82627 0.256 0.0
C1643 C 0.14622 0.80722 0.25771 0.0
C1644 C 0.15267 0.79137 0.24801 0.0
C1645 C 0.16946 0.79472 0.23722 0.0
C1646 C 0.15006 0.84362 0.26613 0.0
C1647 C 0.14231 0.77082 0.24939 0.0
C1648 C 0.11465 0.80299 0.29934 0.0
C1649 C 0.09745 0.80603 0.29359 0.0
C1650 C 0.13037 0.80195 0.28753 0.0
C1651 C 0.12884 0.80432 0.26965 0.0
C1652 C 0.11123 0.80663 0.26371 0.0
C1653 C 0.09577 0.80762 0.27583 0.0
C1654 C 0.14885 0.79932 0.29433 0.0
C1655 C 0.10894 0.80872 0.24467 0.0
H1656 H 0.17999 0.84393 0.24312 0.0
H1657 H 0.17475 0.78252 0.23028 0.0
H1658 H 0.13574 0.84487 0.2623 0.0
H1659 H 0.14895 0.84176 0.28036 0.0
H1660 H 0.16002 0.8574 0.26386 0.0
H1661 H 0.14538 0.76126 0.2376 0.0
H1662 H 0.14727 0.7652 0.26085 0.0
H1663 H 0.12668 0.76995 0.25125 0.0
H1664 H 0.11589 0.80176 0.31314 0.0
H1665 H 0.08269 0.81067 0.27159 0.0
H1666 H 0.15991 0.81241 0.29246 0.0
H1667 H 0.15393 0.78686 0.28685 0.0
H1668 H 0.14742 0.79678 0.30844 0.0
H1669 H 0.11997 0.82059 0.23982 0.0
H1670 H 0.09475 0.81182 0.24236 0.0
H1671 H 0.11091 0.79513 0.23679 0.0
C1672 C 0.88462 0.23682 0.1988 0.0
C1673 C 0.88779 0.23203 0.18085 0.0
C1674 C 0.89985 0.24394 0.20953 0.0
C1675 C 0.91874 0.24627 0.20212 0.0
C1676 C 0.9219 0.24334 0.18373 0.0
C1677 C 0.90634 0.23622 0.17327 0.0
C1678 C 0.89576 0.24708 0.22902 0.0
C1679 C 0.94178 0.24594 0.17528 0.0
C1680 C 0.95751 0.26661 0.23402 0.0
C1681 C 0.96095 0.24948 0.23996 0.0
C1682 C 0.94445 0.26595 0.22101 0.0
C1683 C 0.93472 0.24777 0.21386 0.0
C1684 C 0.93902 0.2305 0.21917 0.0
C1685 C 0.95202 0.23159 0.23212 0.0
C1686 C 0.94038 0.28466 0.21559 0.0
C1687 C 0.92916 0.21076 0.21183 0.0
H1688 H 0.87023 0.23387 0.20462 0.0
H1689 H 0.90885 0.23256 0.15939 0.0
H1690 H 0.89956 0.23507 0.23552 0.0
H1691 H 0.9045 0.26079 0.23444 0.0
H1692 H 0.8805 0.24751 0.23238 0.0
H1693 H 0.94178 0.24711 0.16098 0.0
H1694 H 0.95095 0.25905 0.18131 0.0
H1695 H 0.9482 0.23327 0.17731 0.0
H1696 H 0.96439 0.28048 0.24002 0.0
H1697 H 0.95481 0.21828 0.23644 0.0
H1698 H 0.9264 0.28708 0.22162 0.0
H1699 H 0.93953 0.28398 0.20119 0.0
H1700 H 0.95141 0.29728 0.2198 0.0
H1701 H 0.91373 0.20869 0.21568 0.0
H1702 H 0.93499 0.19881 0.21655 0.0
H1703 H 0.93062 0.20963 0.19732 0.0
C1704 C 0.20689 0.72141 0.65567 0.0
C1705 C 0.18754 0.71301 0.65494 0.0
C1706 C 0.21745 0.72873 0.6409 0.0
C1707 C 0.20852 0.72754 0.62488 0.0
C1708 C 0.18879 0.7198 0.62422 0.0
C1709 C 0.17852 0.71268 0.63928 0.0
C1710 C 0.2384 0.737 0.64226 0.0
C1711 C 0.17874 0.7182 0.60742 0.0
C1712 C 0.23675 0.75631 0.58885 0.0
C1713 C 0.24623 0.74235 0.57983 0.0
C1714 C 0.22388 0.75162 0.60323 0.0
C1715 C 0.22033 0.7325 0.60856 0.0
C1716 C 0.22921 0.7182 0.59893 0.0
C1717 C 0.24206 0.72332 0.58479 0.0
C1718 C 0.21474 0.76728 0.61317 0.0
C1719 C 0.22572 0.69761 0.60398 0.0
H1720 H 0.21386 0.72203 0.66782 0.0
H1721 H 0.16359 0.70614 0.63859 0.0
H1722 H 0.24691 0.72742 0.63424 0.0
H1723 H 0.24191 0.75144 0.63703 0.0
H1724 H 0.2428 0.73848 0.65596 0.0
H1725 H 0.16306 0.71386 0.6095 0.0
H1726 H 0.18193 0.7322 0.60139 0.0
H1727 H 0.18397 0.70724 0.59794 0.0
H1728 H 0.23994 0.77106 0.58513 0.0
H1729 H 0.24918 0.71238 0.57779 0.0
H1730 H 0.22048 0.77063 0.62637 0.0
H1731 H 0.19915 0.76226 0.61503 0.0
H1732 H 0.21742 0.78083 0.60639 0.0
H1733 H 0.23134 0.69732 0.617 0.0
H1734 H 0.23264 0.68792 0.5944 0.0
H1735 H 0.21022 0.6917 0.60503 0.0
C1736 C 0.80823 0.70895 0.5862 0.0
C1737 C 0.81761 0.72061 0.59991 0.0
C1738 C 0.80261 0.7172 0.57197 0.0
C1739 C 0.80635 0.7376 0.57156 0.0
C1740 C 0.81495 0.74947 0.58585 0.0
C1741 C 0.82057 0.74082 0.59981 0.0
C1742 C 0.79344 0.70407 0.55703 0.0
C1743 C 0.81891 0.7713 0.58607 0.0
C1744 C 0.81596 0.76056 0.5285 0.0
C1745 C 0.7992 0.76763 0.52704 0.0
C1746 C 0.81808 0.75001 0.54253 0.0
C1747 C 0.80311 0.74655 0.55554 0.0
C1748 C 0.78577 0.75283 0.5537 0.0
C1749 C 0.78398 0.76325 0.5394 0.0
C1750 C 0.83674 0.74341 0.54385 0.0
C1751 C 0.76951 0.74949 0.56732 0.0
H1752 H 0.80582 0.69332 0.58632 0.0
H1753 H 0.82757 0.74993 0.6105 0.0
H1754 H 0.78029 0.70875 0.55374 0.0
H1755 H 0.80331 0.70504 0.54522 0.0
H1756 H 0.78981 0.6887 0.56011 0.0
H1757 H 0.82411 0.77845 0.59878 0.0
H1758 H 0.82983 0.77586 0.57557 0.0
H1759 H 0.80585 0.77656 0.58343 0.0
H1760 H 0.82773 0.76382 0.51893 0.0
H1761 H 0.77105 0.76884 0.53842 0.0
H1762 H 0.83416 0.72774 0.54582 0.0
H1763 H 0.84408 0.75132 0.55537 0.0
H1764 H 0.84639 0.74597 0.53201 0.0
H1765 H 0.76668 0.73422 0.57067 0.0
H1766 H 0.75622 0.75293 0.56288 0.0
H1767 H 0.77339 0.75879 0.57948 0.0
C1768 C 0.86521 0.3341 0.67213 0.0
C1769 C 0.86958 0.35445 0.674 0.0
C1770 C 0.85811 0.32395 0.65658 0.0
C1771 C 0.85519 0.33433 0.64245 0.0
C1772 C 0.85918 0.35487 0.64436 0.0
C1773 C 0.86631 0.36466 0.66007 0.0
C1774 C 0.85399 0.30208 0.6552 0.0
C1775 C 0.85626 0.36653 0.62967 0.0
C1776 C 0.85529 0.30784 0.59669 0.0
C1777 C 0.83577 0.30222 0.59392 0.0
C1778 C 0.86177 0.31843 0.61227 0.0
C1779 C 0.84845 0.32363 0.62555 0.0
C1780 C 0.82873 0.31819 0.62281 0.0
C1781 C 0.82265 0.30758 0.6071 0.0
C1782 C 0.88292 0.32393 0.61458 0.0
C1783 C 0.81402 0.32337 0.6366 0.0
H1784 H 0.86734 0.32602 0.68287 0.0
H1785 H 0.86979 0.38035 0.66125 0.0
H1786 H 0.83897 0.29659 0.65198 0.0
H1787 H 0.86311 0.2964 0.64443 0.0
H1788 H 0.85656 0.29615 0.6675 0.0
H1789 H 0.85929 0.38238 0.63343 0.0
H1790 H 0.86572 0.36334 0.61812 0.0
H1791 H 0.84139 0.36236 0.6256 0.0
H1792 H 0.8656 0.30408 0.58658 0.0
H1793 H 0.80755 0.30316 0.6053 0.0
H1794 H 0.8866 0.31739 0.62612 0.0
H1795 H 0.88707 0.33988 0.6171 0.0
H1796 H 0.89145 0.31908 0.60293 0.0
H1797 H 0.81529 0.31654 0.64875 0.0
H1798 H 0.79927 0.3186 0.63229 0.0
H1799 H 0.81655 0.33928 0.63993 0.0
C1800 C 0.20463 0.33134 0.64362 0.0
C1801 C 0.21796 0.33018 0.65572 0.0
C1802 C 0.20973 0.33095 0.62562 0.0
C1803 C 0.22853 0.32909 0.61972 0.0
C1804 C 0.24173 0.32691 0.63187 0.0
C1805 C 0.2363 0.32756 0.64975 0.0
C1806 C 0.1953 0.33336 0.61304 0.0
C1807 C 0.2618 0.32453 0.62605 0.0
C1808 C 0.24149 0.31408 0.57244 0.0
C1809 C 0.25108 0.33174 0.56649 0.0
C1810 C 0.23342 0.31308 0.58955 0.0
C1811 C 0.23479 0.3302 0.60095 0.0
C1812 C 0.24355 0.34822 0.59478 0.0
C1813 C 0.25163 0.34877 0.57762 0.0
C1814 C 0.22419 0.2936 0.59565 0.0
C1815 C 0.24514 0.36682 0.60655 0.0
H1816 H 0.19045 0.33342 0.64828 0.0
H1817 H 0.24658 0.32645 0.6591 0.0
H1818 H 0.19996 0.34732 0.60709 0.0
H1819 H 0.19428 0.32166 0.60222 0.0
H1820 H 0.18093 0.33319 0.61956 0.0
H1821 H 0.26996 0.3219 0.63704 0.0
H1822 H 0.26157 0.31225 0.61584 0.0
H1823 H 0.26947 0.33778 0.62016 0.0
H1824 H 0.24056 0.30092 0.5638 0.0
H1825 H 0.25907 0.36244 0.57318 0.0
H1826 H 0.20983 0.2942 0.60186 0.0
H1827 H 0.23282 0.28968 0.60569 0.0
H1828 H 0.22283 0.28194 0.58476 0.0
H1829 H 0.23102 0.36834 0.61284 0.0
H1830 H 0.25081 0.37978 0.59933 0.0
H1831 H 0.25476 0.36647 0.61715 0.0
C1832 C 0.2138 0.34845 0.41889 0.0
C1833 C 0.20477 0.33698 0.40494 0.0
C1834 C 0.22344 0.34044 0.43073 0.0
C1835 C 0.22431 0.32045 0.42842 0.0
C1836 C 0.21479 0.30865 0.41457 0.0
C1837 C 0.20504 0.31706 0.40299 0.0
C1838 C 0.23321 0.35355 0.4454 0.0
C1839 C 0.21553 0.28735 0.41158 0.0
C1840 C 0.26857 0.312 0.44792 0.0
C1841 C 0.26152 0.3068 0.46459 0.0
C1842 C 0.25631 0.31471 0.43536 0.0
C1843 C 0.23654 0.31259 0.43974 0.0
C1844 C 0.22919 0.3058 0.4561 0.0
C1845 C 0.24182 0.30284 0.46834 0.0
C1846 C 0.26478 0.32151 0.41799 0.0
C1847 C 0.20823 0.30338 0.46129 0.0
H1848 H 0.21353 0.36384 0.42044 0.0
H1849 H 0.19811 0.30813 0.39217 0.0
H1850 H 0.22878 0.34744 0.45813 0.0
H1851 H 0.24886 0.35459 0.44344 0.0
H1852 H 0.23 0.36841 0.44615 0.0
H1853 H 0.20581 0.27978 0.40144 0.0
H1854 H 0.23026 0.28554 0.40734 0.0
H1855 H 0.21172 0.28023 0.42392 0.0
H1856 H 0.28384 0.31498 0.44501 0.0
H1857 H 0.23639 0.29899 0.4813 0.0
H1858 H 0.26443 0.33714 0.41778 0.0
H1859 H 0.25635 0.3136 0.4071 0.0
H1860 H 0.27978 0.31951 0.41558 0.0
H1861 H 0.2044 0.31788 0.46455 0.0
H1862 H 0.2044 0.2949 0.47289 0.0
H1863 H 0.19956 0.2961 0.45033 0.0
C1864 C 0.23306 0.69092 0.41056 0.0
C1865 C 0.24621 0.68766 0.39666 0.0
C1866 C 0.23903 0.69764 0.42748 0.0
C1867 C 0.25869 0.70143 0.43067 0.0
C1868 C 0.27206 0.69834 0.41666 0.0
C1869 C 0.26566 0.69138 0.39989 0.0
C1870 C 0.22425 0.70053 0.44201 0.0
C1871 C 0.29314 0.70241 0.41938 0.0
C1872 C 0.27442 0.73462 0.4714 0.0
C1873 C 0.2765 0.72131 0.48326 0.0
C1874 C 0.26893 0.72842 0.45423 0.0
C1875 C 0.26517 0.70835 0.44873 0.0
C1876 C 0.26723 0.69485 0.46063 0.0
C1877 C 0.27296 0.70148 0.47766 0.0
C1878 C 0.26725 0.74339 0.44197 0.0
C1879 C 0.26314 0.67333 0.45545 0.0
H1880 H 0.21799 0.68787 0.40827 0.0
H1881 H 0.27595 0.68911 0.38922 0.0
H1882 H 0.22526 0.6913 0.45267 0.0
H1883 H 0.22692 0.7158 0.44769 0.0
H1884 H 0.20953 0.69693 0.43743 0.0
H1885 H 0.30173 0.69964 0.40711 0.0
H1886 H 0.29769 0.71773 0.4245 0.0
H1887 H 0.29632 0.69322 0.42928 0.0
H1888 H 0.27734 0.74997 0.47546 0.0
H1889 H 0.2743 0.69107 0.48673 0.0
H1890 H 0.25288 0.74036 0.43669 0.0
H1891 H 0.27771 0.74265 0.43067 0.0
H1892 H 0.26983 0.75835 0.44847 0.0
H1893 H 0.24815 0.66878 0.45178 0.0
H1894 H 0.26553 0.66471 0.46615 0.0
H1895 H 0.27234 0.66983 0.44382 0.0
C1896 C 0.83651 0.78145 0.35066 0.0
C1897 C 0.83217 0.76133 0.3469 0.0
C1898 C 0.83306 0.78995 0.36757 0.0
C1899 C 0.82522 0.77796 0.381 0.0
C1900 C 0.82018 0.75767 0.37711 0.0
C1901 C 0.82367 0.74958 0.36006 0.0
C1902 C 0.83844 0.81166 0.37119 0.0
C1903 C 0.8118 0.74442 0.3911 0.0
C1904 C 0.83666 0.79535 0.42794 0.0
C1905 C 0.81956 0.80065 0.43476 0.0
C1906 C 0.83876 0.78819 0.41039 0.0
C1907 C 0.82341 0.78645 0.39937 0.0
C1908 C 0.80626 0.79224 0.40606 0.0
C1909 C 0.80452 0.79921 0.42371 0.0
C1910 C 0.85724 0.78205 0.40376 0.0
C1911 C 0.78968 0.79085 0.39465 0.0
H1912 H 0.84306 0.79053 0.34046 0.0
H1913 H 0.82025 0.734 0.35722 0.0
H1914 H 0.82629 0.81759 0.37788 0.0
H1915 H 0.85037 0.81521 0.38009 0.0
H1916 H 0.84288 0.81904 0.35904 0.0
H1917 H 0.80768 0.7291 0.38573 0.0
H1918 H 0.82234 0.74511 0.40114 0.0
H1919 H 0.79906 0.74922 0.3978 0.0
H1920 H 0.84823 0.79626 0.43648 0.0
H1921 H 0.79137 0.80358 0.42888 0.0
H1922 H 0.86336 0.78993 0.39225 0.0
H1923 H 0.85455 0.76635 0.3994 0.0
H1924 H 0.86794 0.78479 0.41389 0.0
H1925 H 0.79427 0.79893 0.38293 0.0
H1926 H 0.77761 0.79667 0.4017 0.0
H1927 H 0.78453 0.7755 0.38994 0.0
C1928 C 0.81452 0.34743 0.42889 0.0
C1929 C 0.81946 0.3328 0.41668 0.0
C1930 C 0.80925 0.34387 0.4464 0.0
C1931 C 0.8092 0.32532 0.45194 0.0
C1932 C 0.81348 0.3103 0.43957 0.0
C1933 C 0.81845 0.31419 0.42211 0.0
C1934 C 0.80455 0.3602 0.45912 0.0
C1935 C 0.81373 0.29032 0.44492 0.0
C1936 C 0.82111 0.31953 0.49805 0.0
C1937 C 0.80355 0.31035 0.50524 0.0
C1938 C 0.82292 0.32531 0.481 0.0
C1939 C 0.80671 0.32203 0.47088 0.0
C1940 C 0.78865 0.31405 0.47848 0.0
C1941 C 0.78726 0.3083 0.49563 0.0
C1942 C 0.84246 0.33373 0.47344 0.0
C1943 C 0.77098 0.31083 0.46823 0.0
H1944 H 0.8154 0.36192 0.42494 0.0
H1945 H 0.82182 0.30267 0.41274 0.0
H1946 H 0.79135 0.35523 0.46714 0.0
H1947 H 0.81621 0.36498 0.4682 0.0
H1948 H 0.80268 0.37287 0.45236 0.0
H1949 H 0.81446 0.27957 0.43345 0.0
H1950 H 0.82633 0.29093 0.45269 0.0
H1951 H 0.80091 0.28514 0.45335 0.0
H1952 H 0.83374 0.32132 0.50545 0.0
H1953 H 0.77364 0.30121 0.5011 0.0
H1954 H 0.84217 0.34745 0.46763 0.0
H1955 H 0.84691 0.32346 0.4628 0.0
H1956 H 0.85335 0.33665 0.48341 0.0
H1957 H 0.76824 0.32498 0.46495 0.0
H1958 H 0.75822 0.30335 0.47559 0.0
H1959 H 0.77306 0.30211 0.45568 0.0
C1960 C 0.11683 0.68927 0.70602 0.0
C1961 C 0.13013 0.70343 0.69779 0.0
C1962 C 0.09946 0.69329 0.71365 0.0
C1963 C 0.09479 0.71169 0.71247 0.0
C1964 C 0.10768 0.72579 0.70352 0.0
C1965 C 0.12528 0.72161 0.69653 0.0
C1966 C 0.08632 0.67797 0.72337 0.0
C1967 C 0.10302 0.74543 0.70157 0.0
C1968 C 0.04263 0.71608 0.72065 0.0
C1969 C 0.04261 0.72553 0.73753 0.0
C1970 C 0.05956 0.71169 0.71222 0.0
C1971 C 0.07671 0.71638 0.72112 0.0
C1972 C 0.07658 0.72549 0.73837 0.0
C1973 C 0.05959 0.73022 0.74625 0.0
C1974 C 0.0592 0.70253 0.69364 0.0
C1975 C 0.09439 0.73025 0.74854 0.0
H1976 H 0.12001 0.67497 0.70667 0.0
H1977 H 0.13538 0.73281 0.69043 0.0
H1978 H 0.08389 0.68358 0.73718 0.0
H1979 H 0.07226 0.67439 0.7175 0.0
H1980 H 0.09212 0.66443 0.72325 0.0
H1981 H 0.11373 0.75412 0.69291 0.0
H1982 H 0.08881 0.74376 0.69613 0.0
H1983 H 0.10238 0.75364 0.71459 0.0
H1984 H 0.02953 0.71278 0.71384 0.0
H1985 H 0.05948 0.73754 0.75931 0.0
H1986 H 0.06411 0.68848 0.69287 0.0
H1987 H 0.06916 0.71203 0.68503 0.0
H1988 H 0.04476 0.70002 0.68849 0.0
H1989 H 0.10028 0.71693 0.74929 0.0
H1990 H 0.09171 0.73669 0.76204 0.0
H1991 H 0.10542 0.74061 0.7417 0.0
C1992 C 0.8236 0.66636 0.67045 0.0
C1993 C 0.84288 0.67175 0.66518 0.0
C1994 C 0.81702 0.64931 0.67886 0.0
C1995 C 0.83002 0.63739 0.68203 0.0
C1996 C 0.84939 0.64249 0.67627 0.0
C1997 C 0.85556 0.65957 0.66791 0.0
C1998 C 0.79625 0.64433 0.68478 0.0
C1999 C 0.86369 0.63013 0.67929 0.0
C2000 C 0.81858 0.60448 0.71923 0.0
C2001 C 0.81216 0.58638 0.71025 0.0
C2002 C 0.82427 0.6212 0.71022 0.0
C2003 C 0.82355 0.61983 0.69177 0.0
C2004 C 0.81708 0.60163 0.68263 0.0
C2005 C 0.81148 0.58514 0.69197 0.0
C2006 C 0.83105 0.64036 0.72046 0.0
C2007 C 0.81619 0.59954 0.66296 0.0
H2008 H 0.81378 0.67579 0.66852 0.0
H2009 H 0.87043 0.66353 0.66365 0.0
H2010 H 0.79004 0.62948 0.6794 0.0
H2011 H 0.79483 0.6445 0.69925 0.0
H2012 H 0.78783 0.65463 0.68064 0.0
H2013 H 0.87809 0.63577 0.67348 0.0
H2014 H 0.86474 0.62951 0.69354 0.0
H2015 H 0.85894 0.61507 0.67359 0.0
H2016 H 0.81887 0.60564 0.73335 0.0
H2017 H 0.80675 0.5712 0.68491 0.0
H2018 H 0.82216 0.65097 0.71797 0.0
H2019 H 0.84591 0.64635 0.71607 0.0
H2020 H 0.83051 0.63903 0.73477 0.0
H2021 H 0.80709 0.60921 0.65889 0.0
H2022 H 0.81046 0.58443 0.65785 0.0
H2023 H 0.83063 0.60404 0.65677 0.0
C2024 C 0.94069 0.33658 0.73429 0.0
C2025 C 0.94259 0.3567 0.73821 0.0
C2026 C 0.95418 0.32635 0.73941 0.0
C2027 C 0.97013 0.33644 0.74851 0.0
C2028 C 0.97202 0.35673 0.7526 0.0
C2029 C 0.9582 0.36656 0.74749 0.0
C2030 C 0.95141 0.30471 0.73502 0.0
C2031 C 0.98873 0.3681 0.76228 0.0
C2032 C 0.99781 0.30838 0.77444 0.0
C2033 C 1.01345 0.30604 0.76284 0.0
C2034 C 0.98365 0.31818 0.77 0.0
C2035 C 0.98502 0.32586 0.75348 0.0
C2036 C 1.00074 0.32353 0.74171 0.0
C2037 C 0.01467 0.31367 0.74649 0.0
C2038 C 0.96709 0.32008 0.78293 0.0
C2039 C 1.00295 0.33166 0.72407 0.0
H2040 H 0.92861 0.32876 0.72724 0.0
H2041 H 0.95974 0.38208 0.75059 0.0
H2042 H 0.96363 0.30104 0.72654 0.0
H2043 H 0.95095 0.2973 0.74716 0.0
H2044 H 0.93809 0.29891 0.7282 0.0
H2045 H 0.98814 0.38377 0.76453 0.0
H2046 H 0.98913 0.36231 0.77512 0.0
H2047 H 1.00222 0.36648 0.75475 0.0
H2048 H 0.99652 0.30239 0.787 0.0
H2049 H 0.02676 0.31227 0.7375 0.0
H2050 H 0.9541 0.31031 0.77817 0.0
H2051 H 0.96425 0.33507 0.78418 0.0
H2052 H 0.96961 0.31622 0.7961 0.0
H2053 H 0.99037 0.32539 0.7164 0.0
H2054 H 0.01594 0.32864 0.71639 0.0
H2055 H 1.00368 0.34758 0.72582 0.0
C2056 C 0.26574 0.40722 0.71473 0.0
C2057 C 0.24657 0.40361 0.721 0.0
C2058 C 0.2766 0.42606 0.71578 0.0
C2059 C 0.26841 0.4415 0.72415 0.0
C2060 C 0.24922 0.43795 0.73075 0.0
C2061 C 0.23844 0.41922 0.72866 0.0
C2062 C 0.29683 0.42916 0.7081 0.0
C2063 C 0.24 0.4539 0.74022 0.0
C2064 C 0.29462 0.48656 0.74788 0.0
C2065 C 0.28919 0.50073 0.73872 0.0
C2066 C 0.28956 0.46687 0.74235 0.0
C2067 C 0.2797 0.46138 0.72685 0.0
C2068 C 0.27725 0.47573 0.71602 0.0
C2069 C 0.2817 0.49535 0.72224 0.0
C2070 C 0.29259 0.45206 0.75426 0.0
C2071 C 0.26815 0.47032 0.69871 0.0
H2072 H 0.27239 0.39535 0.709 0.0
H2073 H 0.22353 0.41695 0.73299 0.0
H2074 H 0.30156 0.44396 0.70378 0.0
H2075 H 0.30646 0.42702 0.7181 0.0
H2076 H 0.29842 0.41846 0.69675 0.0
H2077 H 0.22541 0.44839 0.74567 0.0
H2078 H 0.24874 0.46129 0.75112 0.0
H2079 H 0.23912 0.46492 0.73112 0.0
H2080 H 0.30109 0.49062 0.76032 0.0
H2081 H 0.27802 0.50625 0.71479 0.0
H2082 H 0.30205 0.45859 0.76495 0.0
H2083 H 0.29886 0.44039 0.74673 0.0
H2084 H 0.27865 0.44528 0.76025 0.0
H2085 H 0.27331 0.45764 0.69168 0.0
H2086 H 0.27117 0.48257 0.69025 0.0
H2087 H 0.25249 0.46625 0.701 0.0
C2088 C 0.13207 0.33058 0.32045 0.0
C2089 C 0.1337 0.33583 0.33841 0.0
C2090 C 0.11439 0.32235 0.31369 0.0
C2091 C 0.0979 0.31963 0.32515 0.0
C2092 C 0.09941 0.32547 0.34324 0.0
C2093 C 0.11735 0.33332 0.34968 0.0
C2094 C 0.11346 0.31589 0.29442 0.0
C2095 C 0.08213 0.32304 0.35583 0.0
C2096 C 0.04902 0.30843 0.30589 0.0
C2097 C 0.04415 0.28839 0.30705 0.0
C2098 C 0.06649 0.31892 0.31179 0.0
C2099 C 0.07944 0.30899 0.31855 0.0
C2100 C 0.07473 0.28867 0.31922 0.0
C2101 C 0.05709 0.27869 0.31365 0.0
C2102 C 0.07095 0.34063 0.31113 0.0
C2103 C 0.08829 0.27742 0.3259 0.0
H2104 H 0.14476 0.33246 0.31175 0.0
H2105 H 0.1186 0.33761 0.36354 0.0
H2106 H 0.10908 0.29989 0.29263 0.0
H2107 H 0.1026 0.32222 0.28858 0.0
H2108 H 0.12736 0.32009 0.28712 0.0
H2109 H 0.08543 0.32994 0.36914 0.0
H2110 H 0.07073 0.32943 0.35095 0.0
H2111 H 0.07643 0.30739 0.35682 0.0
H2112 H 0.039 0.31594 0.30081 0.0
H2113 H 0.0535 0.26312 0.31432 0.0
H2114 H 0.08446 0.34492 0.30331 0.0
H2115 H 0.07299 0.34777 0.32455 0.0
H2116 H 0.05948 0.34616 0.30537 0.0
H2117 H 0.10223 0.28022 0.31842 0.0
H2118 H 0.08277 0.26156 0.32486 0.0
H2119 H 0.09089 0.28229 0.33982 0.0
C2120 C 0.26752 0.6421 0.34005 0.0
C2121 C 0.24777 0.64134 0.34236 0.0
C2122 C 0.27513 0.62722 0.33008 0.0
C2123 C 0.26273 0.61092 0.32242 0.0
C2124 C 0.24277 0.60986 0.3251 0.0
C2125 C 0.23556 0.62512 0.33486 0.0
C2126 C 0.29645 0.62923 0.32729 0.0
C2127 C 0.22898 0.5927 0.31745 0.0
C2128 C 0.27769 0.58191 0.28105 0.0
C2129 C 0.28149 0.5652 0.28752 0.0
C2130 C 0.27248 0.59719 0.2923 0.0
C2131 C 0.27049 0.59564 0.31059 0.0
C2132 C 0.27491 0.57904 0.31729 0.0
C2133 C 0.28056 0.56409 0.30567 0.0
C2134 C 0.26843 0.61472 0.2845 0.0
C2135 C 0.27272 0.57661 0.33664 0.0
H2136 H 0.27706 0.65463 0.34569 0.0
H2137 H 0.2203 0.62428 0.33675 0.0
H2138 H 0.30111 0.61623 0.33122 0.0
H2139 H 0.30061 0.63023 0.31318 0.0
H2140 H 0.30418 0.64227 0.33479 0.0
H2141 H 0.21397 0.59334 0.32178 0.0
H2142 H 0.23033 0.59212 0.30296 0.0
H2143 H 0.23238 0.57903 0.32128 0.0
H2144 H 0.27841 0.58287 0.26702 0.0
H2145 H 0.28321 0.5511 0.31074 0.0
H2146 H 0.2764 0.6282 0.29113 0.0
H2147 H 0.25305 0.61526 0.28653 0.0
H2148 H 0.27233 0.61453 0.27024 0.0
H2149 H 0.28053 0.58962 0.34408 0.0
H2150 H 0.27801 0.56366 0.33993 0.0
H2151 H 0.25747 0.57514 0.34108 0.0
C2152 C 0.91194 0.73035 0.28939 0.0
C2153 C 0.90084 0.72797 0.30503 0.0
C2154 C 0.93156 0.73765 0.28961 0.0
C2155 C 0.94023 0.74218 0.30586 0.0
C2156 C 0.92906 0.73946 0.32168 0.0
C2157 C 0.90943 0.73255 0.32106 0.0
C2158 C 0.94296 0.74083 0.27251 0.0
C2159 C 0.93785 0.74384 0.33923 0.0
C2160 C 0.99386 0.74605 0.30528 0.0
C2161 C 1.00004 0.76617 0.30649 0.0
C2162 C 0.97436 0.73799 0.30543 0.0
C2163 C 0.96087 0.75039 0.30636 0.0
C2164 C 0.96707 0.77072 0.30761 0.0
C2165 C 0.98658 0.77836 0.30788 0.0
C2166 C 0.96819 0.71624 0.3044 0.0
C2167 C 0.95314 0.7844 0.30825 0.0
H2168 H 0.90518 0.72679 0.27702 0.0
H2169 H 0.90078 0.73045 0.33313 0.0
H2170 H 0.94962 0.75636 0.27221 0.0
H2171 H 0.95466 0.73243 0.27127 0.0
H2172 H 0.93407 0.73649 0.26102 0.0
H2173 H 0.92729 0.74013 0.35025 0.0
H2174 H 0.94952 0.73562 0.33968 0.0
H2175 H 0.94419 0.75946 0.34117 0.0
H2176 H 1.00426 0.73662 0.30416 0.0
H2177 H 0.99131 0.79394 0.30852 0.0
H2178 H 0.96066 0.71112 0.29223 0.0
H2179 H 0.95803 0.71204 0.31556 0.0
H2180 H 0.98041 0.70867 0.30455 0.0
H2181 H 0.94445 0.78111 0.29659 0.0
H2182 H 0.96036 0.79983 0.30869 0.0
H2183 H 0.94321 0.7824 0.31995 0.0
C2184 C 0.79655 0.39423 0.34887 0.0
C2185 C 0.81631 0.3955 0.34629 0.0
C2186 C 0.78754 0.40856 0.34352 0.0
C2187 C 0.79859 0.42465 0.33563 0.0
C2188 C 0.81855 0.42591 0.33292 0.0
C2189 C 0.82713 0.41123 0.33816 0.0
C2190 C 0.76621 0.40651 0.34636 0.0
C2191 C 0.83086 0.44288 0.32464 0.0
C2192 C 0.77535 0.45449 0.30793 0.0
C2193 C 0.77326 0.47059 0.31964 0.0
C2194 C 0.7833 0.43931 0.31302 0.0
C2195 C 0.78935 0.44023 0.33026 0.0
C2196 C 0.78701 0.45629 0.34223 0.0
C2197 C 0.77891 0.47123 0.3368 0.0
C2198 C 0.7853 0.42233 0.29993 0.0
C2199 C 0.79352 0.45795 0.36065 0.0
H2200 H 0.78807 0.38201 0.35503 0.0
H2201 H 0.84241 0.41223 0.33616 0.0
H2202 H 0.76266 0.41898 0.35503 0.0
H2203 H 0.75974 0.40666 0.33371 0.0
H2204 H 0.75961 0.39292 0.35232 0.0
H2205 H 0.84616 0.44177 0.32357 0.0
H2206 H 0.82618 0.44381 0.31136 0.0
H2207 H 0.82927 0.45658 0.3325 0.0
H2208 H 0.77075 0.45377 0.29473 0.0
H2209 H 0.77757 0.48372 0.34584 0.0
H2210 H 0.77625 0.40895 0.30447 0.0
H2211 H 0.80022 0.41998 0.29879 0.0
H2212 H 0.7811 0.42444 0.28674 0.0
H2213 H 0.78654 0.44506 0.36742 0.0
H2214 H 0.79032 0.47115 0.36847 0.0
H2215 H 0.8091 0.45837 0.36026 0.0
C2216 C 0.21892 0.63601 0.70142 0.0
C2217 C 0.20428 0.6458 0.70792 0.0
C2218 C 0.22418 0.62188 0.71076 0.0
C2219 C 0.21454 0.61742 0.72701 0.0
C2220 C 0.19977 0.62733 0.73368 0.0
C2221 C 0.19482 0.64142 0.72406 0.0
C2222 C 0.24003 0.61169 0.70322 0.0
C2223 C 0.18917 0.62301 0.75095 0.0
C2224 C 0.21696 0.56867 0.74321 0.0
C2225 C 0.23143 0.57381 0.75509 0.0
C2226 C 0.21114 0.58274 0.73416 0.0
C2227 C 0.21999 0.60244 0.73704 0.0
C2228 C 0.23435 0.60777 0.74925 0.0
C2229 C 0.23985 0.59342 0.75812 0.0
C2230 C 0.19578 0.57646 0.72125 0.0
C2231 C 0.24409 0.62861 0.75276 0.0
H2232 H 0.22625 0.63937 0.68895 0.0
H2233 H 0.18348 0.64892 0.72919 0.0
H2234 H 0.25161 0.61405 0.71247 0.0
H2235 H 0.23467 0.59585 0.70137 0.0
H2236 H 0.24612 0.61684 0.69045 0.0
H2237 H 0.17807 0.63201 0.75434 0.0
H2238 H 0.18226 0.60751 0.7505 0.0
H2239 H 0.19927 0.62564 0.76157 0.0
H2240 H 0.21051 0.55358 0.7406 0.0
H2241 H 0.25079 0.59761 0.76748 0.0
H2242 H 0.20162 0.57986 0.70793 0.0
H2243 H 0.18401 0.58458 0.7246 0.0
H2244 H 0.18984 0.5607 0.72096 0.0
H2245 H 0.25141 0.63408 0.74053 0.0
H2246 H 0.25474 0.63041 0.76289 0.0
H2247 H 0.2334 0.63779 0.75713 0.0
C2248 C 0.18709 0.40115 0.3343 0.0
C2249 C 0.19413 0.38414 0.33543 0.0
C2250 C 0.19753 0.41626 0.32506 0.0
C2251 C 0.21523 0.41407 0.31643 0.0
C2252 C 0.22258 0.39705 0.31787 0.0
C2253 C 0.21199 0.38233 0.32753 0.0
C2254 C 0.18939 0.43433 0.32416 0.0
C2255 C 0.24123 0.39406 0.30862 0.0
C2256 C 0.22957 0.44341 0.27719 0.0
C2257 C 0.24318 0.45876 0.28404 0.0
C2258 C 0.22079 0.42847 0.28746 0.0
C2259 C 0.22545 0.42915 0.30513 0.0
C2260 C 0.23929 0.44457 0.31209 0.0
C2261 C 0.24814 0.45911 0.30138 0.0
C2262 C 0.20638 0.41208 0.27945 0.0
C2263 C 0.24435 0.446 0.33095 0.0
H2264 H 0.17329 0.40252 0.34053 0.0
H2265 H 0.21731 0.36907 0.32832 0.0
H2266 H 0.20004 0.44739 0.32804 0.0
H2267 H 0.18594 0.43548 0.31052 0.0
H2268 H 0.17625 0.43441 0.33276 0.0
H2269 H 0.24542 0.38047 0.31177 0.0
H2270 H 0.24005 0.39346 0.29426 0.0
H2271 H 0.25274 0.40643 0.31222 0.0
H2272 H 0.22592 0.44305 0.26372 0.0
H2273 H 0.25852 0.4711 0.30672 0.0
H2274 H 0.19218 0.41212 0.28622 0.0
H2275 H 0.21035 0.39796 0.28119 0.0
H2276 H 0.20518 0.41313 0.26527 0.0
H2277 H 0.23157 0.44739 0.33968 0.0
H2278 H 0.2558 0.4586 0.33419 0.0
H2279 H 0.24906 0.4326 0.33382 0.0
C2280 C 0.18021 0.7121 0.33097 0.0
C2281 C 0.17723 0.69176 0.3295 0.0
C2282 C 0.16741 0.72204 0.32416 0.0
C2283 C 0.15102 0.71143 0.31597 0.0
C2284 C 0.14785 0.6909 0.31474 0.0
C2285 C 0.16106 0.68137 0.32133 0.0
C2286 C 0.17158 0.7439 0.32545 0.0
C2287 C 0.13049 0.67894 0.3064 0.0
C2288 C 0.10856 0.73582 0.31082 0.0
C2289 C 0.11041 0.73893 0.29295 0.0
C2290 C 0.12173 0.72711 0.31853 0.0
C2291 C 0.13742 0.72167 0.30826 0.0
C2292 C 0.13963 0.72526 0.29035 0.0
C2293 C 0.12603 0.73353 0.28291 0.0
C2294 C 0.11855 0.72326 0.33757 0.0
C2295 C 0.15628 0.72012 0.27892 0.0
H2296 H 0.19273 0.72027 0.33715 0.0
H2297 H 0.15865 0.66566 0.32019 0.0
H2298 H 0.17296 0.74905 0.31216 0.0
H2299 H 0.1596 0.74966 0.33266 0.0
H2300 H 0.18487 0.75005 0.3322 0.0
H2301 H 0.12961 0.66315 0.30718 0.0
H2302 H 0.11739 0.68318 0.31289 0.0
H2303 H 0.13076 0.68173 0.29243 0.0
H2304 H 0.09648 0.73964 0.3187 0.0
H2305 H 0.12768 0.73581 0.26914 0.0
H2306 H 0.1313 0.7301 0.3448 0.0
H2307 H 0.11637 0.70743 0.33879 0.0
H2308 H 0.10601 0.72881 0.34392 0.0
H2309 H 0.16984 0.72658 0.28508 0.0
H2310 H 0.15681 0.72523 0.26565 0.0
H2311 H 0.15533 0.70418 0.27755 0.0
C2312 C 0.82988 0.667 0.2841 0.0
C2313 C 0.84767 0.67277 0.29142 0.0
C2314 C 0.8228 0.64743 0.27912 0.0
C2315 C 0.8339 0.63333 0.28133 0.0
C2316 C 0.85221 0.63913 0.28795 0.0
C2317 C 0.8588 0.65874 0.29306 0.0
C2318 C 0.80315 0.64176 0.27217 0.0
C2319 C 0.86451 0.62453 0.29033 0.0
C2320 C 0.80678 0.583 0.28887 0.0
C2321 C 0.80786 0.5733 0.27211 0.0
C2322 C 0.81542 0.60246 0.29204 0.0
C2323 C 0.82564 0.61242 0.27819 0.0
C2324 C 0.82746 0.60254 0.26141 0.0
C2325 C 0.81844 0.58309 0.25854 0.0
C2326 C 0.81308 0.61253 0.31011 0.0
C2327 C 0.83853 0.61265 0.24642 0.0
H2328 H 0.82133 0.67777 0.28252 0.0
H2329 H 0.87243 0.66296 0.29894 0.0
H2330 H 0.80365 0.63284 0.25951 0.0
H2331 H 0.79359 0.63277 0.28145 0.0
H2332 H 0.79683 0.65455 0.27027 0.0
H2333 H 0.87917 0.63158 0.29375 0.0
H2334 H 0.85804 0.61538 0.30094 0.0
H2335 H 0.8654 0.61476 0.27821 0.0
H2336 H 0.79861 0.57559 0.29944 0.0
H2337 H 0.81938 0.57568 0.24557 0.0
H2338 H 0.80541 0.62468 0.30946 0.0
H2339 H 0.82722 0.61881 0.31523 0.0
H2340 H 0.80504 0.60259 0.31954 0.0
H2341 H 0.83143 0.62438 0.24309 0.0
H2342 H 0.83971 0.60257 0.23453 0.0
H2343 H 0.85306 0.61951 0.25028 0.0
C2344 C 0.86317 0.31654 0.34684 0.0
C2345 C 0.8643 0.32464 0.36422 0.0
C2346 C 0.87754 0.30715 0.33868 0.0
C2347 C 0.8935 0.30592 0.34808 0.0
C2348 C 0.89487 0.31438 0.36553 0.0
C2349 C 0.88026 0.32358 0.37338 0.0
C2350 C 0.87549 0.29825 0.3201 0.0
C2351 C 0.91172 0.31357 0.37597 0.0
C2352 C 0.92196 0.26603 0.3341 0.0
C2353 C 0.93774 0.27598 0.32472 0.0
C2354 C 0.90739 0.27554 0.3416 0.0
C2355 C 0.90864 0.29554 0.3398 0.0
C2356 C 0.9245 0.30566 0.33031 0.0
C2357 C 0.93881 0.29576 0.32287 0.0
C2358 C 0.89066 0.26417 0.35149 0.0
C2359 C 0.92648 0.32702 0.32821 0.0
H2360 H 0.8508 0.31712 0.33974 0.0
H2361 H 0.88135 0.33003 0.38674 0.0
H2362 H 0.88803 0.30433 0.31171 0.0
H2363 H 0.87498 0.2824 0.31966 0.0
H2364 H 0.86242 0.30079 0.31446 0.0
H2365 H 0.91087 0.32126 0.38923 0.0
H2366 H 0.91256 0.29827 0.37737 0.0
H2367 H 0.92511 0.32015 0.36896 0.0
H2368 H 0.92088 0.25072 0.33541 0.0
H2369 H 0.95105 0.30365 0.31587 0.0
H2370 H 0.87721 0.26514 0.34563 0.0
H2371 H 0.88981 0.27045 0.36526 0.0
H2372 H 0.89163 0.24864 0.35145 0.0
H2373 H 0.91393 0.32973 0.32187 0.0
H2374 H 0.93954 0.33273 0.32025 0.0
H2375 H 0.92694 0.33529 0.34125 0.0
C2376 C 0.85449 0.41031 0.72323 0.0
C2377 C 0.87405 0.40987 0.72133 0.0
C2378 C 0.84778 0.42737 0.72943 0.0
C2379 C 0.86089 0.44466 0.73377 0.0
C2380 C 0.88065 0.44416 0.7325 0.0
C2381 C 0.88698 0.42679 0.7264 0.0
C2382 C 0.8266 0.42702 0.73072 0.0
C2383 C 0.89517 0.4622 0.73684 0.0
C2384 C 0.84205 0.49034 0.72736 0.0
C2385 C 0.83596 0.49638 0.74441 0.0
C2386 C 0.85106 0.47422 0.72392 0.0
C2387 C 0.85387 0.46349 0.73783 0.0
C2388 C 0.84851 0.47 0.75522 0.0
C2389 C 0.83973 0.48645 0.75833 0.0
C2390 C 0.85671 0.46815 0.7052 0.0
C2391 C 0.85109 0.45898 0.77045 0.0
H2392 H 0.84435 0.39726 0.71966 0.0
H2393 H 0.90211 0.42667 0.72493 0.0
H2394 H 0.82219 0.43325 0.74384 0.0
H2395 H 0.82296 0.43609 0.72093 0.0
H2396 H 0.81823 0.41213 0.72839 0.0
H2397 H 0.90977 0.45907 0.73694 0.0
H2398 H 0.89518 0.47272 0.72701 0.0
H2399 H 0.89143 0.46927 0.74981 0.0
H2400 H 0.83927 0.49795 0.71652 0.0
H2401 H 0.83486 0.49086 0.77151 0.0
H2402 H 0.84768 0.4541 0.70095 0.0
H2403 H 0.87171 0.46601 0.70411 0.0
H2404 H 0.85516 0.47897 0.6961 0.0
H2405 H 0.84109 0.44487 0.76974 0.0
H2406 H 0.84837 0.46705 0.78323 0.0
H2407 H 0.86572 0.45584 0.76985 0.0
C2408 C 0.19125 0.36068 0.75906 0.0
C2409 C 0.19038 0.35472 0.74109 0.0
C2410 C 0.17507 0.35708 0.77055 0.0
C2411 C 0.15777 0.3466 0.76408 0.0
C2412 C 0.15688 0.34006 0.74611 0.0
C2413 C 0.17305 0.34449 0.73481 0.0
C2414 C 0.17644 0.36465 0.78956 0.0
C2415 C 0.13879 0.32841 0.73876 0.0
C2416 C 0.11959 0.31874 0.79325 0.0
C2417 C 0.10492 0.3294 0.79325 0.0
C2418 C 0.13727 0.32468 0.78451 0.0
C2419 C 0.14057 0.342 0.77601 0.0
C2420 C 0.12645 0.35373 0.77734 0.0
C2421 C 0.10865 0.34714 0.78574 0.0
C2422 C 0.15174 0.31152 0.78311 0.0
C2423 C 0.12973 0.37267 0.76899 0.0
H2424 H 0.20458 0.36823 0.76422 0.0
H2425 H 0.17195 0.34017 0.72097 0.0
H2426 H 0.16558 0.37383 0.79329 0.0
H2427 H 0.17342 0.35242 0.79799 0.0
H2428 H 0.19071 0.37333 0.79235 0.0
H2429 H 0.14074 0.32358 0.72467 0.0
H2430 H 0.13377 0.31543 0.74609 0.0
H2431 H 0.12741 0.33721 0.74032 0.0
H2432 H 0.11685 0.30497 0.79899 0.0
H2433 H 0.09742 0.3555 0.78582 0.0
H2434 H 0.16605 0.31983 0.78617 0.0
H2435 H 0.15279 0.30487 0.76947 0.0
H2436 H 0.14786 0.2997 0.792 0.0
H2437 H 0.14396 0.38131 0.77191 0.0
H2438 H 0.11872 0.38145 0.77356 0.0
H2439 H 0.12935 0.36974 0.75457 0.0
C2440 C 0.90641 0.72414 0.66921 0.0
C2441 C 0.89138 0.73281 0.66519 0.0
C2442 C 0.92099 0.73435 0.67954 0.0
C2443 C 0.92076 0.75388 0.68572 0.0
C2444 C 0.90689 0.76337 0.68 0.0
C2445 C 0.89221 0.75266 0.66992 0.0
C2446 C 0.93553 0.72363 0.68522 0.0
C2447 C 0.90663 0.78438 0.68571 0.0
C2448 C 0.9362 0.76373 0.73205 0.0
C2449 C 0.95569 0.77124 0.72961 0.0
C2450 C 0.92446 0.75922 0.71793 0.0
C2451 C 0.93229 0.76261 0.70084 0.0
C2452 C 0.95157 0.77188 0.69843 0.0
C2453 C 0.96315 0.77599 0.71289 0.0
C2454 C 0.904 0.74939 0.72121 0.0
C2455 C 0.9603 0.77636 0.68052 0.0
H2456 H 0.90622 0.70897 0.66507 0.0
H2457 H 0.88077 0.75957 0.66674 0.0
H2458 H 0.95009 0.73222 0.68349 0.0
H2459 H 0.93282 0.7214 0.69934 0.0
H2460 H 0.93501 0.70924 0.67779 0.0
H2461 H 0.89819 0.79074 0.67702 0.0
H2462 H 0.9001 0.78561 0.69921 0.0
H2463 H 0.92129 0.79301 0.68584 0.0
H2464 H 0.93024 0.76039 0.745 0.0
H2465 H 0.97818 0.78194 0.71093 0.0
H2466 H 0.90185 0.73435 0.71493 0.0
H2467 H 0.89424 0.75711 0.71535 0.0
H2468 H 0.89989 0.74878 0.73538 0.0
H2469 H 0.9647 0.76319 0.67371 0.0
H2470 H 0.97311 0.78802 0.68136 0.0
H2471 H 0.94992 0.78079 0.67242 0.0
C2472 C 0.7064 0.22924 0.65853 0.0
C2473 C 0.70221 0.20905 0.65905 0.0
C2474 C 0.71571 0.2377 0.64365 0.0
C2475 C 0.72068 0.22566 0.62886 0.0
C2476 C 0.71554 0.20526 0.62904 0.0
C2477 C 0.70653 0.19722 0.64416 0.0
C2478 C 0.72117 0.25948 0.64413 0.0
C2479 C 0.72031 0.19188 0.6135 0.0
C2480 C 0.7378 0.24603 0.58498 0.0
C2481 C 0.75748 0.24683 0.58519 0.0
C2482 C 0.72554 0.23952 0.59925 0.0
C2483 C 0.73325 0.23414 0.61413 0.0
C2484 C 0.7532 0.23582 0.61463 0.0
C2485 C 0.76499 0.24194 0.60013 0.0
C2486 C 0.70433 0.23771 0.59815 0.0
C2487 C 0.76212 0.23066 0.63032 0.0
H2488 H 0.70313 0.23842 0.67004 0.0
H2489 H 0.70307 0.18161 0.64445 0.0
H2490 H 0.73686 0.26382 0.64458 0.0
H2491 H 0.71699 0.26472 0.63211 0.0
H2492 H 0.71447 0.26681 0.65571 0.0
H2493 H 0.71345 0.17656 0.61493 0.0
H2494 H 0.71574 0.19641 0.60131 0.0
H2495 H 0.73595 0.19271 0.612 0.0
H2496 H 0.73195 0.24977 0.57344 0.0
H2497 H 0.78023 0.24282 0.60048 0.0
H2498 H 0.69824 0.24526 0.60991 0.0
H2499 H 0.69745 0.2222 0.59783 0.0
H2500 H 0.70067 0.24376 0.58631 0.0
H2501 H 0.75717 0.23857 0.64243 0.0
H2502 H 0.77793 0.23413 0.62915 0.0
H2503 H 0.75767 0.21494 0.63184 0.0
C2504 C 0.31317 0.22162 0.61149 0.0
C2505 C 0.33245 0.22188 0.61372 0.0
C2506 C 0.30753 0.23111 0.59808 0.0
C2507 C 0.32154 0.24084 0.58644 0.0
C2508 C 0.341 0.2404 0.58817 0.0
C2509 C 0.34624 0.23103 0.60187 0.0
C2510 C 0.28667 0.23147 0.59686 0.0
C2511 C 0.35635 0.25039 0.57591 0.0
C2512 C 0.30676 0.25751 0.54456 0.0
C2513 C 0.30735 0.27728 0.54934 0.0
C2514 C 0.31126 0.24534 0.5565 0.0
C2515 C 0.31607 0.25312 0.57365 0.0
C2516 C 0.31606 0.27295 0.57864 0.0
C2517 C 0.31188 0.28478 0.56641 0.0
C2518 C 0.31132 0.22431 0.55066 0.0
C2519 C 0.32071 0.28179 0.59688 0.0
H2520 H 0.30249 0.21449 0.62062 0.0
H2521 H 0.36117 0.23108 0.60339 0.0
H2522 H 0.28417 0.24649 0.60003 0.0
H2523 H 0.28226 0.22686 0.58333 0.0
H2524 H 0.27748 0.22193 0.60597 0.0
H2525 H 0.37055 0.24706 0.57789 0.0
H2526 H 0.35284 0.24599 0.56211 0.0
H2527 H 0.35723 0.2663 0.57805 0.0
H2528 H 0.30332 0.25168 0.53137 0.0
H2529 H 0.31213 0.30002 0.57027 0.0
H2530 H 0.30176 0.21486 0.55958 0.0
H2531 H 0.32586 0.22124 0.55133 0.0
H2532 H 0.30672 0.22035 0.53709 0.0
H2533 H 0.31118 0.27363 0.60673 0.0
H2534 H 0.31922 0.29725 0.59889 0.0
H2535 H 0.33553 0.28081 0.59939 0.0
C2536 C 0.36409 0.83504 0.67163 0.0
C2537 C 0.36703 0.85539 0.67315 0.0
C2538 C 0.3567 0.82407 0.65652 0.0
C2539 C 0.35209 0.83359 0.64244 0.0
C2540 C 0.35475 0.8541 0.64398 0.0
C2541 C 0.36215 0.86471 0.65926 0.0
C2542 C 0.35402 0.80226 0.65554 0.0
C2543 C 0.35012 0.86489 0.62932 0.0
C2544 C 0.35161 0.80656 0.59684 0.0
C2545 C 0.33208 0.79978 0.59473 0.0
C2546 C 0.35825 0.81762 0.61217 0.0
C2547 C 0.3451 0.8221 0.62591 0.0
C2548 C 0.32536 0.81543 0.62386 0.0
C2549 C 0.31911 0.80442 0.60834 0.0
C2550 C 0.3794 0.82448 0.61368 0.0
C2551 C 0.31082 0.81978 0.63814 0.0
H2552 H 0.36751 0.82762 0.68233 0.0
H2553 H 0.36455 0.8804 0.66013 0.0
H2554 H 0.33903 0.79571 0.65295 0.0
H2555 H 0.36308 0.79699 0.6445 0.0
H2556 H 0.35772 0.797 0.66777 0.0
H2557 H 0.35231 0.88079 0.63276 0.0
H2558 H 0.35924 0.86203 0.61744 0.0
H2559 H 0.33511 0.85967 0.62594 0.0
H2560 H 0.3618 0.80341 0.58639 0.0
H2561 H 0.30402 0.79914 0.60702 0.0
H2562 H 0.38416 0.81862 0.62513 0.0
H2563 H 0.38266 0.84051 0.61588 0.0
H2564 H 0.38778 0.81996 0.6018 0.0
H2565 H 0.31334 0.81357 0.65028 0.0
H2566 H 0.296 0.81382 0.63448 0.0
H2567 H 0.31231 0.83567 0.6412 0.0
C2568 C 0.77828 0.86127 0.646 0.0
C2569 C 0.77877 0.84428 0.65387 0.0
C2570 C 0.78151 0.86205 0.62786 0.0
C2571 C 0.7856 0.84554 0.6174 0.0
C2572 C 0.78684 0.82859 0.62538 0.0
C2573 C 0.78321 0.82811 0.64353 0.0
C2574 C 0.77979 0.88028 0.6198 0.0
C2575 C 0.79148 0.81079 0.61468 0.0
C2576 C 0.77285 0.83854 0.56992 0.0
C2577 C 0.79049 0.84479 0.56123 0.0
C2578 C 0.77103 0.83901 0.58821 0.0
C2579 C 0.78735 0.84559 0.59803 0.0
C2580 C 0.8052 0.85206 0.58933 0.0
C2581 C 0.80652 0.85174 0.571 0.0
C2582 C 0.75168 0.8323 0.59701 0.0
C2583 C 0.82295 0.85885 0.59936 0.0
H2584 H 0.77474 0.87379 0.65392 0.0
H2585 H 0.78361 0.81498 0.64964 0.0
H2586 H 0.79283 0.88538 0.61161 0.0
H2587 H 0.76769 0.87717 0.61109 0.0
H2588 H 0.77746 0.89217 0.62982 0.0
H2589 H 0.79347 0.7994 0.62301 0.0
H2590 H 0.7798 0.80463 0.6059 0.0
H2591 H 0.80463 0.81469 0.60626 0.0
H2592 H 0.76046 0.83328 0.56232 0.0
H2593 H 0.82021 0.8563 0.56424 0.0
H2594 H 0.74794 0.84389 0.60668 0.0
H2595 H 0.75196 0.81952 0.60425 0.0
H2596 H 0.74032 0.82831 0.5875 0.0
H2597 H 0.82095 0.871 0.60917 0.0
H2598 H 0.83567 0.86371 0.59065 0.0
H2599 H 0.82571 0.84692 0.60661 0.0
C2600 C 0.69052 0.83652 0.40569 0.0
C2601 C 0.7028 0.84084 0.39098 0.0
C2602 C 0.69754 0.83237 0.42124 0.0
C2603 C 0.71726 0.83255 0.42205 0.0
C2604 C 0.72957 0.83629 0.40702 0.0
C2605 C 0.72219 0.84045 0.39171 0.0
C2606 C 0.68397 0.82837 0.43696 0.0
C2607 C 0.75067 0.8365 0.40726 0.0
C2608 C 0.74246 0.845 0.46449 0.0
C2609 C 0.74596 0.82692 0.46808 0.0
C2610 C 0.73224 0.84684 0.45006 0.0
C2611 C 0.72541 0.83022 0.43884 0.0
C2612 C 0.72798 0.81176 0.44293 0.0
C2613 C 0.73819 0.81032 0.45755 0.0
C2614 C 0.72969 0.86677 0.44628 0.0
C2615 C 0.72095 0.79369 0.4313 0.0
H2616 H 0.67549 0.83676 0.4052 0.0
H2617 H 0.73168 0.84372 0.38032 0.0
H2618 H 0.68556 0.81468 0.44217 0.0
H2619 H 0.68742 0.84016 0.44751 0.0
H2620 H 0.66889 0.82729 0.43383 0.0
H2621 H 0.75809 0.83845 0.39418 0.0
H2622 H 0.7572 0.84848 0.41663 0.0
H2623 H 0.75316 0.82278 0.41177 0.0
H2624 H 0.74831 0.85788 0.47263 0.0
H2625 H 0.74091 0.79631 0.46018 0.0
H2626 H 0.71457 0.86674 0.44404 0.0
H2627 H 0.73819 0.87098 0.43415 0.0
H2628 H 0.73428 0.87794 0.4571 0.0
H2629 H 0.70603 0.79318 0.42801 0.0
H2630 H 0.72172 0.7803 0.43749 0.0
H2631 H 0.72977 0.79385 0.41883 0.0
C2632 C 0.73027 0.20145 0.41014 0.0
C2633 C 0.74289 0.19838 0.39575 0.0
C2634 C 0.73689 0.20736 0.427 0.0
C2635 C 0.75667 0.21048 0.42962 0.0
C2636 C 0.76949 0.20766 0.41511 0.0
C2637 C 0.76247 0.20158 0.39842 0.0
C2638 C 0.72269 0.21023 0.44205 0.0
C2639 C 0.79069 0.21112 0.41719 0.0
C2640 C 0.77544 0.24172 0.47044 0.0
C2641 C 0.77756 0.22773 0.48162 0.0
C2642 C 0.76863 0.23636 0.45358 0.0
C2643 C 0.7639 0.21648 0.44756 0.0
C2644 C 0.76606 0.2023 0.45874 0.0
C2645 C 0.77285 0.20807 0.47555 0.0
C2646 C 0.76679 0.25205 0.44215 0.0
C2647 C 0.76104 0.18096 0.45298 0.0
H2648 H 0.71511 0.19888 0.40828 0.0
H2649 H 0.77237 0.19953 0.38738 0.0
H2650 H 0.72378 0.20053 0.4523 0.0
H2651 H 0.72596 0.22534 0.44809 0.0
H2652 H 0.70781 0.20725 0.43789 0.0
H2653 H 0.7988 0.20838 0.40463 0.0
H2654 H 0.79571 0.2263 0.42247 0.0
H2655 H 0.79396 0.20156 0.42674 0.0
H2656 H 0.77932 0.25695 0.47478 0.0
H2657 H 0.77417 0.19711 0.48407 0.0
H2658 H 0.75315 0.24853 0.43554 0.0
H2659 H 0.7785 0.25324 0.43183 0.0
H2660 H 0.76757 0.26635 0.44975 0.0
H2661 H 0.74585 0.17713 0.44979 0.0
H2662 H 0.7635 0.17172 0.46317 0.0
H2663 H 0.76965 0.17755 0.44091 0.0
C2664 C 0.38529 0.29695 0.38682 0.0
C2665 C 0.36984 0.28713 0.37732 0.0
C2666 C 0.38248 0.30517 0.40396 0.0
C2667 C 0.36377 0.30358 0.41166 0.0
C2668 C 0.34806 0.29451 0.40178 0.0
C2669 C 0.3513 0.28634 0.38473 0.0
C2670 C 0.39955 0.31475 0.41408 0.0
C2671 C 0.32786 0.29272 0.40948 0.0
C2672 C 0.35281 0.3011 0.46029 0.0
C2673 C 0.34787 0.3192 0.46522 0.0
C2674 C 0.35919 0.29627 0.44308 0.0
C2675 C 0.3605 0.30987 0.43046 0.0
C2676 C 0.35673 0.32865 0.43563 0.0
C2677 C 0.35049 0.33312 0.45302 0.0
C2678 C 0.3633 0.27617 0.43817 0.0
C2679 C 0.35798 0.34353 0.42256 0.0
H2680 H 0.39963 0.29761 0.38105 0.0
H2681 H 0.33928 0.27895 0.37738 0.0
H2682 H 0.39755 0.32918 0.42019 0.0
H2683 H 0.40112 0.30583 0.4248 0.0
H2684 H 0.41294 0.31656 0.40567 0.0
H2685 H 0.31721 0.28653 0.39967 0.0
H2686 H 0.32579 0.28323 0.42042 0.0
H2687 H 0.32504 0.30711 0.41492 0.0
H2688 H 0.35091 0.29043 0.46981 0.0
H2689 H 0.34647 0.34705 0.45676 0.0
H2690 H 0.3772 0.27693 0.43068 0.0
H2691 H 0.3522 0.26785 0.42962 0.0
H2692 H 0.36352 0.26809 0.44983 0.0
H2693 H 0.35736 0.35819 0.42906 0.0
H2694 H 0.34593 0.33924 0.41384 0.0
H2695 H 0.37133 0.34429 0.4142 0.0
C2696 C 0.33593 0.83991 0.43065 0.0
C2697 C 0.32249 0.8396 0.41823 0.0
C2698 C 0.33035 0.83363 0.44732 0.0
C2699 C 0.31087 0.82651 0.45157 0.0
C2700 C 0.29714 0.82673 0.43925 0.0
C2701 C 0.30312 0.83346 0.42274 0.0
C2702 C 0.34545 0.83388 0.46011 0.0
C2703 C 0.2763 0.81893 0.44315 0.0
C2704 C 0.30471 0.78889 0.48436 0.0
C2705 C 0.30082 0.79958 0.50007 0.0
C2706 C 0.30669 0.79716 0.46836 0.0
C2707 C 0.30538 0.81688 0.46809 0.0
C2708 C 0.30071 0.8276 0.48388 0.0
C2709 C 0.29823 0.8187 0.49974 0.0
C2710 C 0.31114 0.78498 0.45186 0.0
C2711 C 0.29937 0.8487 0.48414 0.0
H2712 H 0.35089 0.84489 0.42722 0.0
H2713 H 0.29274 0.83318 0.4131 0.0
H2714 H 0.34142 0.84084 0.47304 0.0
H2715 H 0.34668 0.8188 0.46203 0.0
H2716 H 0.35962 0.84171 0.4555 0.0
H2717 H 0.26725 0.82209 0.43306 0.0
H2718 H 0.27409 0.803 0.44367 0.0
H2719 H 0.27149 0.82517 0.45611 0.0
H2720 H 0.30654 0.77402 0.48463 0.0
H2721 H 0.29528 0.82695 0.51194 0.0
H2722 H 0.32603 0.79014 0.447 0.0
H2723 H 0.30171 0.78643 0.44143 0.0
H2724 H 0.30944 0.76939 0.45403 0.0
H2725 H 0.31375 0.85734 0.4814 0.0
H2726 H 0.29359 0.85438 0.49698 0.0
H2727 H 0.29023 0.85089 0.47376 0.0
C2728 C 0.63764 0.18778 0.71448 0.0
C2729 C 0.6525 0.20227 0.70887 0.0
C2730 C 0.62113 0.19248 0.72349 0.0
C2731 C 0.61949 0.21217 0.72716 0.0
C2732 C 0.63442 0.22687 0.72147 0.0
C2733 C 0.65068 0.22174 0.71231 0.0
C2734 C 0.60547 0.17635 0.72912 0.0
C2735 C 0.63333 0.24804 0.72528 0.0
C2736 C 0.57033 0.22481 0.73801 0.0
C2737 C 0.56971 0.22721 0.75635 0.0
C2738 C 0.58637 0.21981 0.72834 0.0
C2739 C 0.60229 0.21738 0.73721 0.0
C2740 C 0.60176 0.21984 0.75573 0.0
C2741 C 0.58546 0.22461 0.76507 0.0
C2742 C 0.58625 0.21708 0.70863 0.0
C2743 C 0.61851 0.21763 0.7657 0.0
H2744 H 0.63885 0.17269 0.71167 0.0
H2745 H 0.66219 0.233 0.70815 0.0
H2746 H 0.60324 0.17761 0.74358 0.0
H2747 H 0.59189 0.17758 0.72364 0.0
H2748 H 0.60871 0.16178 0.72484 0.0
H2749 H 0.64605 0.2577 0.71983 0.0
H2750 H 0.62047 0.2511 0.71971 0.0
H2751 H 0.63201 0.25166 0.73963 0.0
H2752 H 0.55815 0.22664 0.73123 0.0
H2753 H 0.58521 0.22675 0.77921 0.0
H2754 H 0.58849 0.20226 0.70396 0.0
H2755 H 0.59814 0.22741 0.7028 0.0
H2756 H 0.57268 0.21928 0.70373 0.0
H2757 H 0.62168 0.20284 0.7627 0.0
H2758 H 0.61591 0.22018 0.78008 0.0
H2759 H 0.63136 0.228 0.76155 0.0
C2760 C 0.36074 0.15293 0.68025 0.0
C2761 C 0.35046 0.1671 0.67693 0.0
C2762 C 0.35184 0.13635 0.68838 0.0
C2763 C 0.33221 0.13397 0.6935 0.0
C2764 C 0.32166 0.14804 0.68984 0.0
C2765 C 0.33091 0.1644 0.68148 0.0
C2766 C 0.36353 0.12156 0.69181 0.0
C2767 C 0.30075 0.1461 0.69523 0.0
C2768 C 0.30574 0.08377 0.70328 0.0
C2769 C 0.30607 0.08477 0.72157 0.0
C2770 C 0.31415 0.09967 0.69396 0.0
C2771 C 0.32291 0.11707 0.70317 0.0
C2772 C 0.32315 0.11822 0.72165 0.0
C2773 C 0.31483 0.10201 0.73061 0.0
C2774 C 0.31384 0.09778 0.67425 0.0
C2775 C 0.33218 0.13658 0.73197 0.0
H2776 H 0.37584 0.15492 0.67657 0.0
H2777 H 0.32298 0.17543 0.67905 0.0
H2778 H 0.36394 0.12079 0.70612 0.0
H2779 H 0.35686 0.10697 0.68617 0.0
H2780 H 0.37838 0.12506 0.6862 0.0
H2781 H 0.29445 0.15795 0.69089 0.0
H2782 H 0.2928 0.13202 0.68967 0.0
H2783 H 0.29875 0.14629 0.70968 0.0
H2784 H 0.29917 0.0704 0.69624 0.0
H2785 H 0.31489 0.10293 0.74475 0.0
H2786 H 0.32863 0.10021 0.6684 0.0
H2787 H 0.30675 0.10902 0.66989 0.0
H2788 H 0.30631 0.08331 0.66907 0.0
H2789 H 0.34753 0.1403 0.72797 0.0
H2790 H 0.33075 0.13526 0.7463 0.0
H2791 H 0.32551 0.14882 0.72913 0.0
C2792 C 0.44364 0.85157 0.73776 0.0
C2793 C 0.44583 0.87103 0.73421 0.0
C2794 C 0.45835 0.84465 0.74499 0.0
C2795 C 0.47583 0.85737 0.74839 0.0
C2796 C 0.47812 0.87697 0.74458 0.0
C2797 C 0.46305 0.88357 0.73777 0.0
C2798 C 0.45511 0.82378 0.7492 0.0
C2799 C 0.49655 0.89099 0.74766 0.0
C2800 C 0.50919 0.8469 0.78137 0.0
C2801 C 0.5228 0.8389 0.77051 0.0
C2802 C 0.49358 0.85242 0.77441 0.0
C2803 C 0.49169 0.85035 0.75606 0.0
C2804 C 0.50539 0.84223 0.74503 0.0
C2805 C 0.52062 0.8364 0.7524 0.0
C2806 C 0.47912 0.86056 0.78672 0.0
C2807 C 0.50422 0.8401 0.7254 0.0
H2808 H 0.43032 0.84181 0.73519 0.0
H2809 H 0.46481 0.89862 0.73502 0.0
H2810 H 0.46582 0.81627 0.74177 0.0
H2811 H 0.45696 0.8231 0.76331 0.0
H2812 H 0.44067 0.81581 0.74603 0.0
H2813 H 0.49632 0.90555 0.74344 0.0
H2814 H 0.49941 0.89256 0.76176 0.0
H2815 H 0.50857 0.88528 0.74044 0.0
H2816 H 0.51065 0.8486 0.79539 0.0
H2817 H 0.53116 0.83036 0.74394 0.0
H2818 H 0.46463 0.85218 0.78442 0.0
H2819 H 0.47914 0.87577 0.78417 0.0
H2820 H 0.48202 0.86024 0.80068 0.0
H2821 H 0.49035 0.83117 0.72176 0.0
H2822 H 0.51583 0.83331 0.71865 0.0
H2823 H 0.50502 0.85456 0.72055 0.0
C2824 C 0.74374 0.89407 0.75544 0.0
C2825 C 0.74962 0.89542 0.73769 0.0
C2826 C 0.7433 0.91073 0.76691 0.0
C2827 C 0.74925 0.92921 0.7606 0.0
C2828 C 0.75591 0.93071 0.7429 0.0
C2829 C 0.75585 0.91382 0.73163 0.0
C2830 C 0.73625 0.90858 0.78572 0.0
C2831 C 0.76281 0.95019 0.7358 0.0
C2832 C 0.73293 0.9744 0.7822 0.0
C2833 C 0.74925 0.98385 0.79065 0.0
C2834 C 0.73236 0.95607 0.77307 0.0
C2835 C 0.7485 0.94708 0.77239 0.0
C2836 C 0.76448 0.95598 0.78192 0.0
C2837 C 0.76465 0.97424 0.79093 0.0
C2838 C 0.71487 0.94681 0.76338 0.0
C2839 C 0.78198 0.94695 0.78176 0.0
H2840 H 0.73927 0.87994 0.76035 0.0
H2841 H 0.76017 0.91509 0.71794 0.0
H2842 H 0.74751 0.91582 0.79459 0.0
H2843 H 0.72381 0.91581 0.78881 0.0
H2844 H 0.73203 0.89316 0.78857 0.0
H2845 H 0.76813 0.94887 0.72189 0.0
H2846 H 0.75106 0.95852 0.73687 0.0
H2847 H 0.77445 0.9587 0.74367 0.0
H2848 H 0.72103 0.98177 0.78191 0.0
H2849 H 0.77717 0.98133 0.79774 0.0
H2850 H 0.71021 0.93152 0.76644 0.0
H2851 H 0.71831 0.94671 0.74908 0.0
H2852 H 0.70286 0.95463 0.7667 0.0
H2853 H 0.77829 0.93094 0.78152 0.0
H2854 H 0.7904 0.95255 0.79335 0.0
H2855 H 0.79111 0.95061 0.76983 0.0
C2856 C 0.61831 0.8282 0.33077 0.0
C2857 C 0.62416 0.84821 0.3345 0.0
C2858 C 0.60044 0.82056 0.32411 0.0
C2859 C 0.58806 0.83324 0.3212 0.0
C2860 C 0.59388 0.85346 0.32493 0.0
C2861 C 0.61185 0.8607 0.33154 0.0
C2862 C 0.59476 0.7989 0.32026 0.0
C2863 C 0.58103 0.86741 0.32214 0.0
C2864 C 0.5476 0.81177 0.2916 0.0
C2865 C 0.53303 0.80516 0.30392 0.0
C2866 C 0.56547 0.82168 0.29701 0.0
C2867 C 0.56866 0.82515 0.31513 0.0
C2868 C 0.55356 0.81958 0.32756 0.0
C2869 C 0.53598 0.80959 0.3218 0.0
C2870 C 0.58123 0.82742 0.28337 0.0
C2871 C 0.55627 0.82319 0.34698 0.0
H2872 H 0.62787 0.81852 0.33279 0.0
H2873 H 0.61624 0.87618 0.33455 0.0
H2874 H 0.58192 0.79337 0.32854 0.0
H2875 H 0.59103 0.79542 0.30641 0.0
H2876 H 0.60626 0.79109 0.32271 0.0
H2877 H 0.58797 0.88277 0.32506 0.0
H2878 H 0.57674 0.86539 0.30841 0.0
H2879 H 0.56782 0.86441 0.33066 0.0
H2880 H 0.54543 0.80822 0.27777 0.0
H2881 H 0.52469 0.80459 0.33137 0.0
H2882 H 0.59224 0.81835 0.28371 0.0
H2883 H 0.58825 0.84273 0.28621 0.0
H2884 H 0.57597 0.82556 0.26996 0.0
H2885 H 0.56629 0.81427 0.35071 0.0
H2886 H 0.54267 0.81954 0.35488 0.0
H2887 H 0.56262 0.83859 0.35042 0.0
C2888 C 0.7455 0.13734 0.34848 0.0
C2889 C 0.74309 0.15366 0.34037 0.0
C2890 C 0.75163 0.12142 0.33882 0.0
C2891 C 0.75554 0.12168 0.3205 0.0
C2892 C 0.75355 0.13828 0.31228 0.0
C2893 C 0.74731 0.15398 0.32226 0.0
C2894 C 0.75329 0.10401 0.34815 0.0
C2895 C 0.75762 0.13929 0.29283 0.0
C2896 C 0.78266 0.08452 0.29546 0.0
C2897 C 0.76775 0.07098 0.28807 0.0
C2898 C 0.77898 0.10103 0.30618 0.0
C2899 C 0.75995 0.10396 0.30973 0.0
C2900 C 0.74489 0.08999 0.3027 0.0
C2901 C 0.74896 0.07383 0.29198 0.0
C2902 C 0.79547 0.11558 0.31335 0.0
C2903 C 0.72438 0.09225 0.30623 0.0
H2904 H 0.74208 0.13676 0.3624 0.0
H2905 H 0.74576 0.16657 0.31586 0.0
H2906 H 0.74249 0.0914 0.34355 0.0
H2907 H 0.76748 0.10005 0.34505 0.0
H2908 H 0.75117 0.1066 0.36258 0.0
H2909 H 0.7568 0.15371 0.2886 0.0
H2910 H 0.772 0.13611 0.28898 0.0
H2911 H 0.74721 0.12814 0.28565 0.0
H2912 H 0.79721 0.08255 0.29245 0.0
H2913 H 0.73728 0.06343 0.28647 0.0
H2914 H 0.7935 0.11793 0.32779 0.0
H2915 H 0.79596 0.12973 0.30801 0.0
H2916 H 0.80933 0.1109 0.31002 0.0
H2917 H 0.72092 0.09376 0.32053 0.0
H2918 H 0.71427 0.07976 0.30031 0.0
H2919 H 0.72213 0.10563 0.30087 0.0
C2920 C 0.40971 0.24697 0.29933 0.0
C2921 C 0.39952 0.23132 0.30801 0.0
C2922 C 0.42793 0.24637 0.29151 0.0
C2923 C 0.43615 0.22982 0.29262 0.0
C2924 C 0.42579 0.21388 0.30112 0.0
C2925 C 0.40759 0.21482 0.3087 0.0
C2926 C 0.43857 0.2636 0.28242 0.0
C2927 C 0.43417 0.1961 0.30279 0.0
C2928 C 0.47922 0.22186 0.26294 0.0
C2929 C 0.49411 0.22956 0.27388 0.0
C2930 C 0.4602 0.22195 0.26879 0.0
C2931 C 0.45611 0.22969 0.28603 0.0
C2932 C 0.47112 0.23708 0.29723 0.0
C2933 C 0.48993 0.237 0.29097 0.0
C2934 C 0.44454 0.21411 0.25647 0.0
C2935 C 0.46732 0.24518 0.31579 0.0
H2936 H 0.40342 0.25968 0.29871 0.0
H2937 H 0.39988 0.20282 0.31565 0.0
H2938 H 0.45138 0.27041 0.2896 0.0
H2939 H 0.44356 0.25887 0.26899 0.0
H2940 H 0.42967 0.27472 0.2816 0.0
H2941 H 0.42382 0.18452 0.30894 0.0
H2942 H 0.43908 0.19018 0.28973 0.0
H2943 H 0.44679 0.20007 0.31085 0.0
H2944 H 0.48249 0.21637 0.24964 0.0
H2945 H 0.50147 0.24279 0.29946 0.0
H2946 H 0.43656 0.22568 0.2545 0.0
H2947 H 0.43426 0.20223 0.26223 0.0
H2948 H 0.4501 0.20851 0.24351 0.0
H2949 H 0.45995 0.25765 0.31577 0.0
H2950 H 0.4806 0.25009 0.32286 0.0
H2951 H 0.45778 0.23403 0.32313 0.0
C2952 C 0.33593 0.92475 0.34438 0.0
C2953 C 0.32403 0.90886 0.35139 0.0
C2954 C 0.32837 0.93965 0.33824 0.0
C2955 C 0.30837 0.93841 0.33879 0.0
C2956 C 0.29626 0.9222 0.3456 0.0
C2957 C 0.30425 0.90769 0.35198 0.0
C2958 C 0.34179 0.9568 0.33133 0.0
C2959 C 0.27488 0.92013 0.34605 0.0
C2960 C 0.28931 0.98505 0.33742 0.0
C2961 C 0.28639 0.98486 0.31958 0.0
C2962 C 0.2964 0.96999 0.34387 0.0
C2963 C 0.30021 0.95414 0.33225 0.0
C2964 C 0.29675 0.95364 0.31429 0.0
C2965 C 0.29012 0.96912 0.30814 0.0
C2966 C 0.30023 0.97126 0.36303 0.0
C2967 C 0.30016 0.93681 0.30153 0.0
H2968 H 0.35123 0.92566 0.34392 0.0
H2969 H 0.29498 0.89532 0.35724 0.0
H2970 H 0.33914 0.95792 0.31747 0.0
H2971 H 0.3392 0.97039 0.33884 0.0
H2972 H 0.35697 0.95578 0.33216 0.0
H2973 H 0.26744 0.90644 0.35138 0.0
H2974 H 0.27037 0.93248 0.35421 0.0
H2975 H 0.27021 0.92049 0.33266 0.0
H2976 H 0.28653 0.99722 0.34629 0.0
H2977 H 0.28768 0.9688 0.29436 0.0
H2978 H 0.31554 0.9714 0.3645 0.0
H2979 H 0.29206 0.95833 0.36908 0.0
H2980 H 0.29637 0.98445 0.37036 0.0
H2981 H 0.31551 0.93603 0.30055 0.0
H2982 H 0.29562 0.93805 0.28824 0.0
H2983 H 0.29232 0.92299 0.30628 0.0
C2984 C 0.74386 0.13525 0.70054 0.0
C2985 C 0.7282 0.14299 0.70797 0.0
C2986 C 0.75184 0.12241 0.70933 0.0
C2987 C 0.74395 0.11717 0.72599 0.0
C2988 C 0.7282 0.12507 0.73362 0.0
C2989 C 0.72051 0.13788 0.72453 0.0
C2990 C 0.76861 0.11434 0.70075 0.0
C2991 C 0.71936 0.11987 0.75136 0.0
C2992 C 0.75077 0.07008 0.74278 0.0
C2993 C 0.7647 0.07666 0.75501 0.0
C2994 C 0.74429 0.08304 0.73291 0.0
C2995 C 0.75185 0.10312 0.73534 0.0
C2996 C 0.7664 0.10979 0.74721 0.0
C2997 C 0.77268 0.0965 0.75686 0.0
C2998 C 0.72886 0.07529 0.72032 0.0
C2999 C 0.77487 0.13107 0.75018 0.0
H3000 H 0.74986 0.13919 0.68775 0.0
H3001 H 0.70844 0.14381 0.7304 0.0
H3002 H 0.78076 0.11786 0.70939 0.0
H3003 H 0.76483 0.09832 0.69873 0.0
H3004 H 0.77331 0.12014 0.6879 0.0
H3005 H 0.7074 0.12751 0.75562 0.0
H3006 H 0.71396 0.10403 0.75102 0.0
H3007 H 0.73026 0.12356 0.76129 0.0
H3008 H 0.74453 0.0548 0.74121 0.0
H3009 H 0.78339 0.10178 0.76631 0.0
H3010 H 0.73339 0.08017 0.70713 0.0
H3011 H 0.71582 0.08109 0.72474 0.0
H3012 H 0.72522 0.05921 0.71922 0.0
H3013 H 0.78026 0.13699 0.73755 0.0
H3014 H 0.78671 0.13382 0.75919 0.0
H3015 H 0.7637 0.13916 0.75581 0.0
C3016 C 0.70369 0.89702 0.32519 0.0
C3017 C 0.68457 0.89682 0.33067 0.0
C3018 C 0.71412 0.91215 0.31592 0.0
C3019 C 0.7052 0.92739 0.31207 0.0
C3020 C 0.68614 0.92764 0.31819 0.0
C3021 C 0.67608 0.91238 0.32744 0.0
C3022 C 0.73445 0.91142 0.30966 0.0
C3023 C 0.67615 0.94368 0.31442 0.0
C3024 C 0.73522 0.97392 0.29687 0.0
C3025 C 0.73374 0.97093 0.27867 0.0
C3026 C 0.72615 0.95983 0.30794 0.0
C3027 C 0.7153 0.94236 0.30062 0.0
C3028 C 0.71375 0.93924 0.28228 0.0
C3029 C 0.72299 0.95354 0.27155 0.0
C3030 C 0.72809 0.96366 0.32744 0.0
C3031 C 0.7023 0.92079 0.27397 0.0
H3032 H 0.71028 0.88498 0.32755 0.0
H3033 H 0.6614 0.91246 0.33193 0.0
H3034 H 0.73548 0.90932 0.29516 0.0
H3035 H 0.74391 0.92534 0.31355 0.0
H3036 H 0.73978 0.89948 0.31495 0.0
H3037 H 0.66174 0.94241 0.32108 0.0
H3038 H 0.68468 0.95801 0.31864 0.0
H3039 H 0.6747 0.94331 0.30011 0.0
H3040 H 0.74329 0.98738 0.30252 0.0
H3041 H 0.72203 0.95093 0.25751 0.0
H3042 H 0.73411 0.952 0.33243 0.0
H3043 H 0.71386 0.96353 0.33419 0.0
H3044 H 0.73737 0.97781 0.33103 0.0
H3045 H 0.70793 0.9081 0.27736 0.0
H3046 H 0.70259 0.92058 0.25949 0.0
H3047 H 0.68727 0.91904 0.27915 0.0
C3048 C 0.67817 0.21382 0.30797 0.0
C3049 C 0.68021 0.21224 0.32575 0.0
C3050 C 0.66293 0.22124 0.30237 0.0
C3051 C 0.64915 0.22718 0.31482 0.0
C3052 C 0.65136 0.22602 0.33287 0.0
C3053 C 0.66685 0.2186 0.33812 0.0
C3054 C 0.6613 0.2222 0.28302 0.0
C3055 C 0.63704 0.23211 0.34659 0.0
C3056 C 0.61589 0.25699 0.29766 0.0
C3057 C 0.60055 0.24244 0.29255 0.0
C3058 C 0.63151 0.25245 0.30562 0.0
C3059 C 0.63172 0.23296 0.30869 0.0
C3060 C 0.61572 0.21848 0.30444 0.0
C3061 C 0.60049 0.22336 0.29639 0.0
C3062 C 0.64822 0.26836 0.30989 0.0
C3063 C 0.61508 0.19755 0.30756 0.0
H3064 H 0.68846 0.20901 0.29834 0.0
H3065 H 0.66828 0.21747 0.3519 0.0
H3066 H 0.64831 0.21216 0.27861 0.0
H3067 H 0.65988 0.23702 0.28035 0.0
H3068 H 0.6738 0.21826 0.27511 0.0
H3069 H 0.6415 0.2318 0.36009 0.0
H3070 H 0.6349 0.24695 0.34484 0.0
H3071 H 0.62308 0.22227 0.3451 0.0
H3072 H 0.61617 0.27172 0.29462 0.0
H3073 H 0.58867 0.21201 0.29259 0.0
H3074 H 0.66057 0.26637 0.30079 0.0
H3075 H 0.65253 0.26769 0.32335 0.0
H3076 H 0.64502 0.28297 0.30873 0.0
H3077 H 0.62605 0.19169 0.29887 0.0
H3078 H 0.60097 0.18836 0.30499 0.0
H3079 H 0.61835 0.19639 0.32125 0.0
C3080 C 0.32899 0.1884 0.34077 0.0
C3081 C 0.33478 0.19715 0.32517 0.0
C3082 C 0.31999 0.16888 0.34042 0.0
C3083 C 0.31679 0.15798 0.3241 0.0
C3084 C 0.32085 0.16732 0.30842 0.0
C3085 C 0.32984 0.18682 0.30915 0.0
C3086 C 0.31563 0.15951 0.35743 0.0
C3087 C 0.31744 0.15629 0.29076 0.0
C3088 C 0.32401 0.10598 0.31928 0.0
C3089 C 0.30532 0.09562 0.3182 0.0
C3090 C 0.32779 0.12623 0.32176 0.0
C3091 C 0.31251 0.13648 0.32319 0.0
C3092 C 0.29355 0.12617 0.32274 0.0
C3093 C 0.29018 0.10584 0.32024 0.0
C3094 C 0.34826 0.1367 0.32217 0.0
C3095 C 0.2769 0.1366 0.32433 0.0
H3096 H 0.33284 0.19632 0.35318 0.0
H3097 H 0.3341 0.19368 0.2971 0.0
H3098 H 0.30166 0.1495 0.35734 0.0
H3099 H 0.32665 0.15084 0.35916 0.0
H3100 H 0.31552 0.17044 0.36884 0.0
H3101 H 0.31864 0.16614 0.28014 0.0
H3102 H 0.3281 0.14675 0.28776 0.0
H3103 H 0.30313 0.1469 0.29079 0.0
H3104 H 0.33582 0.09833 0.31748 0.0
H3105 H 0.27568 0.09795 0.31969 0.0
H3106 H 0.35034 0.14665 0.33424 0.0
H3107 H 0.3518 0.14562 0.31086 0.0
H3108 H 0.35843 0.12656 0.32167 0.0
H3109 H 0.27821 0.14766 0.33568 0.0
H3110 H 0.26306 0.1265 0.32583 0.0
H3111 H 0.27682 0.14431 0.31245 0.0
C3112 C 0.38095 0.84134 0.35709 0.0
C3113 C 0.36376 0.831 0.36393 0.0
C3114 C 0.39482 0.83163 0.34842 0.0
C3115 C 0.39124 0.81109 0.34623 0.0
C3116 C 0.37365 0.80063 0.35269 0.0
C3117 C 0.36022 0.8107 0.36161 0.0
C3118 C 0.4135 0.84331 0.34199 0.0
C3119 C 0.36909 0.77877 0.35035 0.0
C3120 C 0.42119 0.78618 0.31151 0.0
C3121 C 0.43404 0.78009 0.32168 0.0
C3122 C 0.40709 0.79616 0.31931 0.0
C3123 C 0.40608 0.80051 0.33769 0.0
C3124 C 0.41916 0.79453 0.348 0.0
C3125 C 0.43285 0.78424 0.33988 0.0
C3126 C 0.39319 0.80191 0.30789 0.0
C3127 C 0.41881 0.79916 0.36759 0.0
H3128 H 0.38376 0.85703 0.35899 0.0
H3129 H 0.34685 0.80268 0.36675 0.0
H3130 H 0.42537 0.83951 0.34862 0.0
H3131 H 0.41603 0.83977 0.32775 0.0
H3132 H 0.41395 0.85916 0.34445 0.0
H3133 H 0.35438 0.77286 0.35529 0.0
H3134 H 0.37075 0.77371 0.3363 0.0
H3135 H 0.37922 0.77266 0.35741 0.0
H3136 H 0.422 0.78286 0.29745 0.0
H3137 H 0.44294 0.7798 0.34774 0.0
H3138 H 0.39423 0.81786 0.30933 0.0
H3139 H 0.37842 0.79538 0.31212 0.0
H3140 H 0.39574 0.79725 0.29384 0.0
H3141 H 0.42046 0.81505 0.37078 0.0
H3142 H 0.43027 0.79392 0.37367 0.0
H3143 H 0.40488 0.79242 0.3736 0.0
C3144 C 0.34968 0.91117 0.72174 0.0
C3145 C 0.36942 0.91196 0.71934 0.0
C3146 C 0.34208 0.92748 0.72869 0.0
C3147 C 0.35445 0.94519 0.73333 0.0
C3148 C 0.37441 0.94597 0.73134 0.0
C3149 C 0.38163 0.92938 0.72444 0.0
C3150 C 0.32073 0.92585 0.73067 0.0
C3151 C 0.38814 0.96453 0.73595 0.0
C3152 C 0.333 0.99016 0.7307 0.0
C3153 C 0.32752 0.99495 0.74823 0.0
C3154 C 0.34245 0.97459 0.72584 0.0
C3155 C 0.34642 0.96318 0.73878 0.0
C3156 C 0.34161 0.96837 0.75663 0.0
C3157 C 0.33231 0.98426 0.76117 0.0
C3158 C 0.34747 0.96987 0.70669 0.0
C3159 C 0.34549 0.95658 0.77086 0.0
H3160 H 0.3401 0.89773 0.71815 0.0
H3161 H 0.39689 0.93023 0.72256 0.0
H3162 H 0.3164 0.9309 0.74422 0.0
H3163 H 0.31615 0.93532 0.72174 0.0
H3164 H 0.31307 0.91078 0.72766 0.0
H3165 H 0.40316 0.96242 0.73499 0.0
H3166 H 0.38675 0.97551 0.72698 0.0
H3167 H 0.38472 0.9705 0.74943 0.0
H3168 H 0.32946 0.99838 0.7206 0.0
H3169 H 0.32797 0.98772 0.77472 0.0
H3170 H 0.33896 0.95566 0.70211 0.0
H3171 H 0.36271 0.96867 0.70474 0.0
H3172 H 0.34474 0.98098 0.6984 0.0
H3173 H 0.33641 0.94196 0.76945 0.0
H3174 H 0.34254 0.96345 0.78414 0.0
H3175 H 0.36052 0.95459 0.76963 0.0
C3176 C 0.69949 0.82762 0.70157 0.0
C3177 C 0.71099 0.83246 0.71594 0.0
C3178 C 0.68022 0.81898 0.70389 0.0
C3179 C 0.67239 0.81557 0.72098 0.0
C3180 C 0.68453 0.81826 0.7351 0.0
C3181 C 0.70375 0.82653 0.73236 0.0
C3182 C 0.66792 0.81531 0.68837 0.0
C3183 C 0.67687 0.81451 0.75352 0.0
C3184 C 0.62538 0.82897 0.73698 0.0
C3185 C 0.61479 0.81103 0.74121 0.0
C3186 C 0.64373 0.83043 0.72907 0.0
C3187 C 0.65155 0.81344 0.72495 0.0
C3188 C 0.64013 0.79508 0.72736 0.0
C3189 C 0.62188 0.79408 0.73565 0.0
C3190 C 0.65536 0.85035 0.72666 0.0
C3191 C 0.64759 0.77658 0.72247 0.0
H3192 H 0.70507 0.83198 0.68879 0.0
H3193 H 0.71279 0.82982 0.74338 0.0
H3194 H 0.65686 0.80207 0.68946 0.0
H3195 H 0.66058 0.82771 0.68784 0.0
H3196 H 0.67656 0.81374 0.6759 0.0
H3197 H 0.68842 0.81544 0.76262 0.0
H3198 H 0.66797 0.82537 0.75846 0.0
H3199 H 0.6677 0.79997 0.75373 0.0
H3200 H 0.61987 0.84211 0.74093 0.0
H3201 H 0.61366 0.7801 0.73862 0.0
H3202 H 0.66162 0.85108 0.71308 0.0
H3203 H 0.6673 0.85338 0.73557 0.0
H3204 H 0.64677 0.86194 0.72948 0.0
H3205 H 0.65779 0.77788 0.7109 0.0
H3206 H 0.63578 0.76419 0.71965 0.0
H3207 H 0.65511 0.77322 0.73357 0.0
C3208 C 0.42109 0.22993 0.67005 0.0
C3209 C 0.40398 0.22376 0.67965 0.0
C3210 C 0.43796 0.23761 0.6786 0.0
C3211 C 0.43761 0.23909 0.69713 0.0
C3212 C 0.42008 0.23407 0.70682 0.0
C3213 C 0.40351 0.22652 0.69797 0.0
C3214 C 0.45631 0.24303 0.66781 0.0
C3215 C 0.41898 0.23552 0.72659 0.0
C3216 C 0.47845 0.2311 0.72223 0.0
C3217 C 0.48472 0.24963 0.73045 0.0
C3218 C 0.46403 0.22778 0.71034 0.0
C3219 C 0.45561 0.24337 0.70653 0.0
C3220 C 0.46289 0.2624 0.71371 0.0
C3221 C 0.47741 0.26532 0.72562 0.0
C3222 C 0.45684 0.20727 0.70289 0.0
C3223 C 0.45448 0.27944 0.70978 0.0
H3224 H 0.42151 0.22785 0.65589 0.0
H3225 H 0.39021 0.22215 0.70543 0.0
H3226 H 0.46467 0.25695 0.67327 0.0
H3227 H 0.46511 0.23176 0.66817 0.0
H3228 H 0.45373 0.2443 0.65394 0.0
H3229 H 0.40407 0.23266 0.73214 0.0
H3230 H 0.42664 0.22483 0.73117 0.0
H3231 H 0.42601 0.25012 0.73187 0.0
H3232 H 0.48424 0.21894 0.72569 0.0
H3233 H 0.48223 0.2797 0.73188 0.0
H3234 H 0.45584 0.20673 0.68852 0.0
H3235 H 0.44233 0.20206 0.70864 0.0
H3236 H 0.46617 0.19716 0.70568 0.0
H3237 H 0.45195 0.27878 0.69565 0.0
H3238 H 0.46384 0.29347 0.71363 0.0
H3239 H 0.44052 0.27903 0.71713 0.0
C3240 C 0.70682 0.72944 0.16229 0.0
C3241 C 0.6879 0.71958 0.16186 0.0
C3242 C 0.71588 0.73896 0.14786 0.0
C3243 C 0.70593 0.73818 0.13246 0.0
C3244 C 0.68691 0.7279 0.13187 0.0
C3245 C 0.67805 0.71895 0.14667 0.0
C3246 C 0.73598 0.75014 0.14922 0.0
C3247 C 0.67594 0.72632 0.1156 0.0
C3248 C 0.72121 0.77692 0.10044 0.0
C3249 C 0.73234 0.76779 0.08775 0.0
C3250 C 0.71286 0.7676 0.1152 0.0
C3251 C 0.71525 0.74845 0.1171 0.0
C3252 C 0.72642 0.73912 0.10424 0.0
C3253 C 0.73504 0.74902 0.08985 0.0
C3254 C 0.70152 0.77829 0.12879 0.0
C3255 C 0.72896 0.71857 0.10553 0.0
H3256 H 0.71439 0.73004 0.1741 0.0
H3257 H 0.66346 0.71122 0.1463 0.0
H3258 H 0.7455 0.74436 0.13887 0.0
H3259 H 0.73641 0.76556 0.1471 0.0
H3260 H 0.74168 0.74947 0.16215 0.0
H3261 H 0.66161 0.71704 0.11697 0.0
H3262 H 0.67417 0.74092 0.11263 0.0
H3263 H 0.68397 0.7202 0.10423 0.0
H3264 H 0.7193 0.79152 0.09891 0.0
H3265 H 0.7435 0.7419 0.07995 0.0
H3266 H 0.70736 0.77871 0.14183 0.0
H3267 H 0.68654 0.77055 0.12973 0.0
H3268 H 0.70166 0.79339 0.12574 0.0
H3269 H 0.73571 0.71754 0.11785 0.0
H3270 H 0.73786 0.71329 0.09435 0.0
H3271 H 0.71485 0.7088 0.10593 0.0
C3272 C 0.2992 0.70167 0.09978 0.0
C3273 C 0.31823 0.70535 0.10432 0.0
C3274 C 0.2934 0.71108 0.08638 0.0
C3275 C 0.30703 0.7243 0.07719 0.0
C3276 C 0.32644 0.72733 0.08117 0.0
C3277 C 0.33179 0.7179 0.09477 0.0
C3278 C 0.27257 0.70761 0.08269 0.0
C3279 C 0.34145 0.74114 0.07155 0.0
C3280 C 0.29575 0.7434 0.03512 0.0
C3281 C 0.29288 0.762 0.04134 0.0
C3282 C 0.29994 0.73064 0.04668 0.0
C3283 C 0.30084 0.73659 0.06482 0.0
C3284 C 0.29686 0.75499 0.07117 0.0
C3285 C 0.29315 0.76751 0.05934 0.0
C3286 C 0.30422 0.7112 0.03942 0.0
C3287 C 0.29719 0.76179 0.09042 0.0
H3288 H 0.28871 0.69191 0.10712 0.0
H3289 H 0.34657 0.72063 0.09808 0.0
H3290 H 0.26674 0.72092 0.08686 0.0
H3291 H 0.27067 0.70437 0.06845 0.0
H3292 H 0.26411 0.69547 0.08969 0.0
H3293 H 0.35608 0.74038 0.07494 0.0
H3294 H 0.34039 0.73794 0.05721 0.0
H3295 H 0.33912 0.7562 0.07487 0.0
H3296 H 0.29563 0.73918 0.02119 0.0
H3297 H 0.29068 0.78183 0.06419 0.0
H3298 H 0.29565 0.69948 0.04679 0.0
H3299 H 0.31944 0.71091 0.04098 0.0
H3300 H 0.30133 0.70806 0.02533 0.0
H3301 H 0.28808 0.7508 0.09824 0.0
H3302 H 0.29218 0.77578 0.09336 0.0
H3303 H 0.31191 0.76363 0.09476 0.0
C3304 C 0.38408 0.33373 0.15635 0.0
C3305 C 0.37296 0.33846 0.17136 0.0
C3306 C 0.37563 0.32531 0.14073 0.0
C3307 C 0.35552 0.32131 0.14007 0.0
C3308 C 0.34423 0.32532 0.15541 0.0
C3309 C 0.35305 0.3339 0.17077 0.0
C3310 C 0.38826 0.3215 0.1247 0.0
C3311 C 0.32277 0.32116 0.15545 0.0
C3312 C 0.33167 0.32307 0.09774 0.0
C3313 C 0.32518 0.30341 0.09258 0.0
C3314 C 0.34222 0.32896 0.11265 0.0
C3315 C 0.34626 0.31487 0.12302 0.0
C3316 C 0.34038 0.29492 0.11755 0.0
C3317 C 0.33002 0.2894 0.10231 0.0
C3318 C 0.34839 0.35036 0.11769 0.0
C3319 C 0.34426 0.27942 0.12824 0.0
H3320 H 0.39946 0.33729 0.1566 0.0
H3321 H 0.34431 0.3372 0.18236 0.0
H3322 H 0.38375 0.30651 0.11873 0.0
H3323 H 0.38689 0.33149 0.11478 0.0
H3324 H 0.40348 0.32359 0.12773 0.0
H3325 H 0.31602 0.32344 0.16876 0.0
H3326 H 0.31797 0.33079 0.14681 0.0
H3327 H 0.31761 0.306 0.15018 0.0
H3328 H 0.3281 0.334 0.09024 0.0
H3329 H 0.32491 0.2742 0.09852 0.0
H3330 H 0.36385 0.35378 0.11987 0.0
H3331 H 0.34078 0.35447 0.13015 0.0
H3332 H 0.34545 0.35942 0.10755 0.0
H3333 H 0.35951 0.28205 0.13118 0.0
H3334 H 0.34041 0.26468 0.12147 0.0
H3335 H 0.33589 0.27991 0.14094 0.0
C3336 C 0.80819 0.3274 0.14522 0.0
C3337 C 0.79618 0.31019 0.14965 0.0
C3338 C 0.81246 0.3312 0.12767 0.0
C3339 C 0.80447 0.31749 0.1143 0.0
C3340 C 0.79301 0.29973 0.1187 0.0
C3341 C 0.78904 0.29629 0.13637 0.0
C3342 C 0.82491 0.35018 0.12348 0.0
C3343 C 0.78425 0.28475 0.10479 0.0
C3344 C 0.79578 0.33415 0.07068 0.0
C3345 C 0.81019 0.32762 0.05979 0.0
C3346 C 0.79405 0.33138 0.08858 0.0
C3347 C 0.8072 0.32208 0.09575 0.0
C3348 C 0.82232 0.31629 0.08497 0.0
C3349 C 0.82354 0.319 0.06707 0.0
C3350 C 0.77768 0.33767 0.09966 0.0
C3351 C 0.83682 0.30671 0.09226 0.0
H3352 H 0.81389 0.33816 0.15545 0.0
H3353 H 0.77975 0.283 0.1398 0.0
H3354 H 0.83646 0.34761 0.11365 0.0
H3355 H 0.81631 0.35922 0.11768 0.0
H3356 H 0.83139 0.35847 0.13527 0.0
H3357 H 0.77781 0.27078 0.11018 0.0
H3358 H 0.77299 0.29026 0.09871 0.0
H3359 H 0.79509 0.28206 0.09428 0.0
H3360 H 0.7853 0.34057 0.06506 0.0
H3361 H 0.83476 0.31408 0.05865 0.0
H3362 H 0.78303 0.34713 0.11131 0.0
H3363 H 0.76803 0.32477 0.10446 0.0
H3364 H 0.7693 0.34561 0.0923 0.0
H3365 H 0.84341 0.31591 0.10355 0.0
H3366 H 0.84827 0.304 0.08234 0.0
H3367 H 0.82968 0.29272 0.09717 0.0
C3368 C 0.72148 0.32936 0.89567 0.0
C3369 C 0.71956 0.34885 0.89842 0.0
C3370 C 0.73144 0.32119 0.90724 0.0
C3371 C 0.73941 0.33275 0.92196 0.0
C3372 C 0.73685 0.35224 0.92508 0.0
C3373 C 0.72711 0.36007 0.91319 0.0
C3374 C 0.73407 0.30046 0.90334 0.0
C3375 C 0.74498 0.36504 0.94067 0.0
C3376 C 0.75647 0.31159 0.96037 0.0
C3377 C 0.77624 0.31605 0.95716 0.0
C3378 C 0.74413 0.31625 0.94867 0.0
C3379 C 0.75182 0.32522 0.93333 0.0
C3380 C 0.77175 0.32864 0.9296 0.0
C3381 C 0.78369 0.32416 0.94162 0.0
C3382 C 0.72297 0.31251 0.95315 0.0
C3383 C 0.78056 0.33774 0.91324 0.0
H3384 H 0.71573 0.32065 0.88421 0.0
H3385 H 0.72558 0.37513 0.91534 0.0
H3386 H 0.74931 0.30014 0.89988 0.0
H3387 H 0.72997 0.29232 0.91508 0.0
H3388 H 0.72555 0.2929 0.89235 0.0
H3389 H 0.74042 0.37932 0.942 0.0
H3390 H 0.74051 0.35782 0.95288 0.0
H3391 H 0.76076 0.36754 0.93935 0.0
H3392 H 0.75071 0.30532 0.97239 0.0
H3393 H 0.79899 0.32729 0.93896 0.0
H3394 H 0.71515 0.3049 0.94179 0.0
H3395 H 0.71811 0.32653 0.95626 0.0
H3396 H 0.71912 0.30373 0.96455 0.0
H3397 H 0.77418 0.32929 0.9015 0.0
H3398 H 0.79623 0.33857 0.9119 0.0
H3399 H 0.77758 0.35262 0.91343 0.0
C3400 C 0.76574 0.70153 0.91791 0.0
C3401 C 0.76502 0.71412 0.90501 0.0
C3402 C 0.76943 0.70869 0.93534 0.0
C3403 C 0.77247 0.72894 0.94006 0.0
C3404 C 0.77293 0.74173 0.92685 0.0
C3405 C 0.76924 0.73419 0.90957 0.0
C3406 C 0.76898 0.69452 0.94891 0.0
C3407 C 0.77622 0.76341 0.93115 0.0
C3408 C 0.75547 0.74858 0.98501 0.0
C3409 C 0.77257 0.75572 0.99327 0.0
C3410 C 0.75528 0.73919 0.96806 0.0
C3411 C 0.77265 0.73673 0.95893 0.0
C3412 C 0.78995 0.74302 0.96747 0.0
C3413 C 0.78972 0.75245 0.98456 0.0
C3414 C 0.73646 0.7327 0.95962 0.0
C3415 C 0.80876 0.74058 0.95829 0.0
H3416 H 0.76246 0.68601 0.91459 0.0
H3417 H 0.76912 0.74408 0.89965 0.0
H3418 H 0.78123 0.69914 0.95736 0.0
H3419 H 0.7558 0.69415 0.95748 0.0
H3420 H 0.76927 0.67961 0.94287 0.0
H3421 H 0.77807 0.77143 0.91922 0.0
H3422 H 0.76389 0.76738 0.9393 0.0
H3423 H 0.78903 0.76827 0.93886 0.0
H3424 H 0.74211 0.75088 0.99164 0.0
H3425 H 0.80301 0.75798 0.99076 0.0
H3426 H 0.73473 0.71722 0.95461 0.0
H3427 H 0.73612 0.74119 0.94827 0.0
H3428 H 0.72415 0.7346 0.96882 0.0
H3429 H 0.80795 0.7256 0.95208 0.0
H3430 H 0.82055 0.74379 0.96737 0.0
H3431 H 0.81222 0.75054 0.94772 0.0
C3432 C 0.37437 0.79528 0.87463 0.0
C3433 C 0.36951 0.77543 0.86957 0.0
C3434 C 0.36853 0.80293 0.89125 0.0
C3435 C 0.35782 0.79033 0.9031 0.0
C3436 C 0.35316 0.77021 0.89811 0.0
C3437 C 0.35898 0.76302 0.88138 0.0
C3438 C 0.37356 0.82448 0.89605 0.0
C3439 C 0.34189 0.75627 0.91042 0.0
C3440 C 0.3536 0.80389 0.95206 0.0
C3441 C 0.33487 0.80715 0.95416 0.0
C3442 C 0.36166 0.79922 0.93535 0.0
C3443 C 0.35076 0.79808 0.92049 0.0
C3444 C 0.33227 0.80258 0.92252 0.0
C3445 C 0.32452 0.80694 0.93934 0.0
C3446 C 0.38136 0.79436 0.93373 0.0
C3447 C 0.32028 0.80185 0.90702 0.0
H3448 H 0.38256 0.80485 0.8655 0.0
H3449 H 0.35534 0.74761 0.87761 0.0
H3450 H 0.36035 0.83055 0.89871 0.0
H3451 H 0.38144 0.82739 0.90821 0.0
H3452 H 0.38237 0.83223 0.88552 0.0
H3453 H 0.34013 0.74097 0.9048 0.0
H3454 H 0.34907 0.75761 0.92291 0.0
H3455 H 0.32757 0.7599 0.91357 0.0
H3456 H 0.36152 0.80396 0.96354 0.0
H3457 H 0.31013 0.80976 0.941 0.0
H3458 H 0.39023 0.80236 0.92341 0.0
H3459 H 0.38036 0.77866 0.92979 0.0
H3460 H 0.38867 0.79784 0.94622 0.0
H3461 H 0.32852 0.81024 0.8966 0.0
H3462 H 0.30705 0.80768 0.91063 0.0
H3463 H 0.31625 0.78664 0.90142 0.0
C3464 C 0.3536 0.3405 0.92286 0.0
C3465 C 0.34087 0.34252 0.91042 0.0
C3466 C 0.34709 0.33595 0.93989 0.0
C3467 C 0.32737 0.33343 0.94467 0.0
C3468 C 0.31441 0.33518 0.93213 0.0
C3469 C 0.32131 0.33965 0.91516 0.0
C3470 C 0.36135 0.3341 0.95286 0.0
C3471 C 0.29327 0.33253 0.93668 0.0
C3472 C 0.30895 0.30607 0.9845 0.0
C3473 C 0.30759 0.32122 0.99753 0.0
C3474 C 0.31521 0.3098 0.96725 0.0
C3475 C 0.32034 0.3292 0.96285 0.0
C3476 C 0.31887 0.34458 0.97588 0.0
C3477 C 0.31249 0.3404 0.99304 0.0
C3478 C 0.31635 0.29296 0.95373 0.0
C3479 C 0.32416 0.36546 0.97169 0.0
H3480 H 0.36875 0.34292 0.91939 0.0
H3481 H 0.31133 0.34087 0.90557 0.0
H3482 H 0.36082 0.34512 0.96413 0.0
H3483 H 0.3577 0.31966 0.95808 0.0
H3484 H 0.37614 0.33602 0.94697 0.0
H3485 H 0.28506 0.3341 0.92537 0.0
H3486 H 0.28798 0.31799 0.94137 0.0
H3487 H 0.2904 0.34337 0.9475 0.0
H3488 H 0.30488 0.2912 0.98772 0.0
H3489 H 0.3116 0.35217 1.00303 0.0
H3490 H 0.33114 0.29396 0.94805 0.0
H3491 H 0.30714 0.29349 0.94286 0.0
H3492 H 0.31185 0.27873 0.9593 0.0
H3493 H 0.33932 0.36871 0.96693 0.0
H3494 H 0.32196 0.37572 0.98323 0.0
H3495 H 0.31551 0.36803 0.96105 0.0
C3496 C 0.62 0.71479 0.19921 0.0
C3497 C 0.63499 0.71229 0.20901 0.0
C3498 C 0.60284 0.7188 0.20748 0.0
C3499 C 0.60059 0.72026 0.226 0.0
C3500 C 0.61582 0.71819 0.23595 0.0
C3501 C 0.63283 0.71437 0.22736 0.0
C3502 C 0.587 0.72109 0.19641 0.0
C3503 C 0.61405 0.71966 0.25571 0.0
C3504 C 0.56218 0.7453 0.24956 0.0
C3505 C 0.5478 0.72951 0.25348 0.0
C3506 C 0.57925 0.74253 0.24036 0.0
C3507 C 0.58218 0.7235 0.23504 0.0
C3508 C 0.56777 0.7075 0.23892 0.0
C3509 C 0.55076 0.71069 0.24802 0.0
C3510 C 0.59425 0.75999 0.23648 0.0
C3511 C 0.57038 0.68696 0.23358 0.0
H3512 H 0.62146 0.71308 0.18504 0.0
H3513 H 0.64446 0.71288 0.23507 0.0
H3514 H 0.57448 0.70944 0.19856 0.0
H3515 H 0.5824 0.73511 0.20034 0.0
H3516 H 0.59131 0.72049 0.18223 0.0
H3517 H 0.62733 0.71803 0.26153 0.0
H3518 H 0.61047 0.73386 0.2608 0.0
H3519 H 0.60227 0.70826 0.26021 0.0
H3520 H 0.56027 0.75989 0.25391 0.0
H3521 H 0.53973 0.69839 0.25072 0.0
H3522 H 0.598 0.75973 0.22222 0.0
H3523 H 0.60741 0.7596 0.24308 0.0
H3524 H 0.58948 0.77385 0.24088 0.0
H3525 H 0.57318 0.68497 0.21921 0.0
H3526 H 0.55773 0.6761 0.23738 0.0
H3527 H 0.58293 0.68403 0.23977 0.0
C3528 C 0.33696 0.63846 0.16133 0.0
C3529 C 0.33574 0.65565 0.17176 0.0
C3530 C 0.33096 0.62035 0.16808 0.0
C3531 C 0.32326 0.61946 0.18555 0.0
C3532 C 0.32143 0.6368 0.19591 0.0
C3533 C 0.32787 0.65469 0.18894 0.0
C3534 C 0.3334 0.60221 0.15672 0.0
C3535 C 0.31296 0.63646 0.21446 0.0
C3536 C 0.29363 0.57195 0.19902 0.0
C3537 C 0.30649 0.56493 0.20849 0.0
C3538 C 0.29888 0.58967 0.19148 0.0
C3539 C 0.31756 0.60045 0.19317 0.0
C3540 C 0.3307 0.59327 0.2025 0.0
C3541 C 0.32493 0.57568 0.2102 0.0
C3542 C 0.28434 0.59703 0.18198 0.0
C3543 C 0.35084 0.60417 0.20435 0.0
H3544 H 0.34323 0.63924 0.14811 0.0
H3545 H 0.32687 0.66802 0.19696 0.0
H3546 H 0.34317 0.59462 0.16277 0.0
H3547 H 0.31955 0.59211 0.15572 0.0
H3548 H 0.33925 0.60535 0.14331 0.0
H3549 H 0.31156 0.65115 0.22042 0.0
H3550 H 0.29868 0.627 0.21478 0.0
H3551 H 0.32203 0.6303 0.22266 0.0
H3552 H 0.27929 0.56379 0.1979 0.0
H3553 H 0.3349 0.57017 0.21739 0.0
H3554 H 0.28967 0.59939 0.16831 0.0
H3555 H 0.28201 0.61122 0.18841 0.0
H3556 H 0.27045 0.58684 0.18173 0.0
H3557 H 0.35786 0.60676 0.19124 0.0
H3558 H 0.35951 0.59624 0.21141 0.0
H3559 H 0.35071 0.61854 0.21157 0.0
C3560 C 0.45201 0.32677 0.22726 0.0
C3561 C 0.45101 0.34615 0.23268 0.0
C3562 C 0.46727 0.31842 0.23164 0.0
C3563 C 0.48207 0.32973 0.24154 0.0
C3564 C 0.48091 0.3492 0.24731 0.0
C3565 C 0.46539 0.3571 0.2429 0.0
C3566 C 0.46772 0.29756 0.22538 0.0
C3567 C 0.49633 0.36187 0.25775 0.0
C3568 C 0.5162 0.30334 0.26194 0.0
C3569 C 0.53111 0.30394 0.249 0.0
C3570 C 0.50027 0.3119 0.25989 0.0
C3571 C 0.49938 0.32162 0.24471 0.0
C3572 C 0.51488 0.32299 0.23207 0.0
C3573 C 0.53036 0.31399 0.23427 0.0
C3574 C 0.48399 0.30974 0.27356 0.0
C3575 C 0.51482 0.33339 0.21582 0.0
H3576 H 0.44092 0.31809 0.21951 0.0
H3577 H 0.4647 0.37206 0.24719 0.0
H3578 H 0.48017 0.29682 0.21605 0.0
H3579 H 0.4694 0.28933 0.23657 0.0
H3580 H 0.45461 0.29035 0.21879 0.0
H3581 H 0.4929 0.37637 0.26203 0.0
H3582 H 0.4986 0.35479 0.26948 0.0
H3583 H 0.50996 0.36386 0.24973 0.0
H3584 H 0.51646 0.29523 0.27316 0.0
H3585 H 0.54175 0.31439 0.22416 0.0
H3586 H 0.47114 0.3007 0.26778 0.0
H3587 H 0.48039 0.3241 0.27805 0.0
H3588 H 0.48729 0.30287 0.28509 0.0
H3589 H 0.50312 0.32568 0.20762 0.0
H3590 H 0.52846 0.33429 0.20783 0.0
H3591 H 0.51217 0.34829 0.21943 0.0
C3592 C 0.76205 0.38262 0.23324 0.0
C3593 C 0.76959 0.37647 0.21679 0.0
C3594 C 0.76253 0.40236 0.23819 0.0
C3595 C 0.77068 0.41624 0.22636 0.0
C3596 C 0.77903 0.41019 0.21005 0.0
C3597 C 0.77836 0.39037 0.20544 0.0
C3598 C 0.75335 0.40814 0.2557 0.0
C3599 C 0.78784 0.42458 0.19711 0.0
C3600 C 0.75051 0.46242 0.23226 0.0
C3601 C 0.76432 0.47488 0.24202 0.0
C3602 C 0.75282 0.44353 0.22642 0.0
C3603 C 0.76926 0.43691 0.23061 0.0
C3604 C 0.78366 0.44969 0.23979 0.0
C3605 C 0.78109 0.46862 0.24527 0.0
C3606 C 0.73723 0.43036 0.21651 0.0
C3607 C 0.80119 0.44301 0.24477 0.0
H3608 H 0.75538 0.37195 0.2421 0.0
H3609 H 0.78395 0.38572 0.19259 0.0
H3610 H 0.76141 0.42186 0.26182 0.0
H3611 H 0.73879 0.41051 0.25377 0.0
H3612 H 0.75215 0.39671 0.2649 0.0
H3613 H 0.79513 0.4177 0.18563 0.0
H3614 H 0.7766 0.43133 0.19237 0.0
H3615 H 0.79827 0.43638 0.20351 0.0
H3616 H 0.73756 0.46723 0.22969 0.0
H3617 H 0.79175 0.47811 0.25297 0.0
H3618 H 0.73032 0.41851 0.2246 0.0
H3619 H 0.74328 0.42356 0.20431 0.0
H3620 H 0.72616 0.4382 0.21304 0.0
H3621 H 0.79702 0.43199 0.25438 0.0
H3622 H 0.81174 0.45512 0.25065 0.0
H3623 H 0.80809 0.43603 0.23314 0.0
C3624 C 0.64178 0.328 0.82907 0.0
C3625 C 0.64804 0.34798 0.83259 0.0
C3626 C 0.62368 0.32067 0.82274 0.0
C3627 C 0.61154 0.33363 0.81995 0.0
C3628 C 0.61778 0.35381 0.82351 0.0
C3629 C 0.63594 0.36073 0.82979 0.0
C3630 C 0.61753 0.29904 0.81907 0.0
C3631 C 0.6052 0.36806 0.82084 0.0
C3632 C 0.57082 0.31355 0.79032 0.0
C3633 C 0.55597 0.30745 0.80258 0.0
C3634 C 0.58889 0.32272 0.79578 0.0
C3635 C 0.59207 0.32594 0.81389 0.0
C3636 C 0.57681 0.32081 0.82629 0.0
C3637 C 0.55897 0.3116 0.82048 0.0
C3638 C 0.60481 0.32805 0.78217 0.0
C3639 C 0.57954 0.3242 0.84572 0.0
H3640 H 0.65115 0.31812 0.83103 0.0
H3641 H 0.64062 0.37618 0.83271 0.0
H3642 H 0.60462 0.29384 0.82739 0.0
H3643 H 0.61375 0.29553 0.80524 0.0
H3644 H 0.62881 0.29096 0.82157 0.0
H3645 H 0.61238 0.38333 0.82378 0.0
H3646 H 0.60086 0.36618 0.80713 0.0
H3647 H 0.592 0.36525 0.8294 0.0
H3648 H 0.56862 0.3103 0.77647 0.0
H3649 H 0.54751 0.30703 0.83003 0.0
H3650 H 0.61566 0.31884 0.78275 0.0
H3651 H 0.61199 0.34333 0.78488 0.0
H3652 H 0.59967 0.3261 0.76871 0.0
H3653 H 0.58932 0.315 0.84938 0.0
H3654 H 0.5659 0.32078 0.85361 0.0
H3655 H 0.58618 0.3395 0.84922 0.0
C3656 C 0.7839 0.66613 0.84867 0.0
C3657 C 0.76431 0.66627 0.85122 0.0
C3658 C 0.7907 0.65106 0.83818 0.0
C3659 C 0.77763 0.63552 0.83024 0.0
C3660 C 0.75783 0.63529 0.8333 0.0
C3661 C 0.75144 0.65069 0.84358 0.0
C3662 C 0.81189 0.65218 0.83505 0.0
C3663 C 0.74333 0.61893 0.82538 0.0
C3664 C 0.7904 0.60763 0.78745 0.0
C3665 C 0.79338 0.59013 0.79301 0.0
C3666 C 0.78625 0.62279 0.79947 0.0
C3667 C 0.78451 0.62034 0.81762 0.0
C3668 C 0.78817 0.60294 0.82339 0.0
C3669 C 0.79275 0.5881 0.81102 0.0
C3670 C 0.78295 0.64116 0.79263 0.0
C3671 C 0.78623 0.59957 0.84255 0.0
H3672 H 0.79395 0.67817 0.8544 0.0
H3673 H 0.73629 0.65056 0.84564 0.0
H3674 H 0.81595 0.6385 0.83808 0.0
H3675 H 0.81597 0.65399 0.82103 0.0
H3676 H 0.82018 0.66444 0.84307 0.0
H3677 H 0.72854 0.62001 0.83017 0.0
H3678 H 0.74435 0.61906 0.81093 0.0
H3679 H 0.74626 0.60478 0.82846 0.0
H3680 H 0.7909 0.6093 0.77355 0.0
H3681 H 0.79477 0.57452 0.81539 0.0
H3682 H 0.79156 0.65401 0.79962 0.0
H3683 H 0.76777 0.64239 0.79507 0.0
H3684 H 0.78663 0.64155 0.77836 0.0
H3685 H 0.79452 0.61201 0.85032 0.0
H3686 H 0.79111 0.58611 0.84509 0.0
H3687 H 0.77109 0.59841 0.84729 0.0
C3688 C 0.43444 0.7204 0.8055 0.0
C3689 C 0.424 0.73547 0.80715 0.0
C3690 C 0.45416 0.72407 0.80194 0.0
C3691 C 0.4637 0.74331 0.80024 0.0
C3692 C 0.45322 0.75854 0.80138 0.0
C3693 C 0.43344 0.75443 0.80482 0.0
C3694 C 0.46487 0.70747 0.80074 0.0
C3695 C 0.46297 0.77927 0.79961 0.0
C3696 C 0.51456 0.7587 0.81316 0.0
C3697 C 0.52443 0.76076 0.79684 0.0
C3698 C 0.49484 0.75234 0.81439 0.0
C3699 C 0.48478 0.74782 0.79892 0.0
C3700 C 0.49479 0.74863 0.78237 0.0
C3701 C 0.51458 0.75511 0.78152 0.0
C3702 C 0.48466 0.7515 0.83229 0.0
C3703 C 0.48449 0.74366 0.76562 0.0
H3704 H 0.42729 0.70575 0.80757 0.0
H3705 H 0.42539 0.76606 0.80589 0.0
H3706 H 0.4746 0.7078 0.78883 0.0
H3707 H 0.47377 0.70892 0.81219 0.0
H3708 H 0.45515 0.69316 0.80044 0.0
H3709 H 0.45266 0.7892 0.79968 0.0
H3710 H 0.47245 0.78431 0.81058 0.0
H3711 H 0.47203 0.78031 0.78729 0.0
H3712 H 0.52214 0.7629 0.82504 0.0
H3713 H 0.52213 0.75671 0.76886 0.0
H3714 H 0.47547 0.73708 0.83347 0.0
H3715 H 0.47527 0.76244 0.83412 0.0
H3716 H 0.4947 0.75435 0.84299 0.0
H3717 H 0.47451 0.72958 0.76604 0.0
H3718 H 0.49449 0.74287 0.75394 0.0
H3719 H 0.47591 0.75485 0.76408 0.0
C3720 C 0.34542 0.42372 0.83317 0.0
C3721 C 0.33595 0.40879 0.8431 0.0
C3722 C 0.33609 0.43833 0.8289 0.0
C3723 C 0.31674 0.43784 0.83452 0.0
C3724 C 0.30699 0.42252 0.8442 0.0
C3725 C 0.31673 0.40824 0.84846 0.0
C3726 C 0.34703 0.45445 0.81863 0.0
C3727 C 0.28628 0.42128 0.85016 0.0
C3728 C 0.29822 0.48529 0.8383 0.0
C3729 C 0.28948 0.48423 0.82241 0.0
C3730 C 0.30699 0.47023 0.84246 0.0
C3731 C 0.30683 0.45358 0.83054 0.0
C3732 C 0.29752 0.45216 0.8147 0.0
C3733 C 0.2891 0.46755 0.81078 0.0
C3734 C 0.31688 0.47239 0.85942 0.0
C3735 C 0.29678 0.4346 0.80171 0.0
H3736 H 0.36026 0.42417 0.82901 0.0
H3737 H 0.30923 0.39664 0.856 0.0
H3738 H 0.33991 0.45496 0.80639 0.0
H3739 H 0.34719 0.4686 0.82635 0.0
H3740 H 0.36197 0.4527 0.81518 0.0
H3741 H 0.28058 0.40812 0.8571 0.0
H3742 H 0.28448 0.43423 0.85905 0.0
H3743 H 0.27763 0.42114 0.83873 0.0
H3744 H 0.29881 0.49822 0.84723 0.0
H3745 H 0.28223 0.46658 0.79854 0.0
H3746 H 0.33226 0.47221 0.85662 0.0
H3747 H 0.31097 0.45999 0.86724 0.0
H3748 H 0.31539 0.48604 0.86744 0.0
H3749 H 0.31119 0.43435 0.79548 0.0
H3750 H 0.28685 0.43457 0.79126 0.0
H3751 H 0.29228 0.42109 0.80839 0.0
C3752 C 0.69824 0.64494 0.22671 0.0
C3753 C 0.7031 0.64608 0.20879 0.0
C3754 C 0.70264 0.63004 0.23563 0.0
C3755 C 0.71202 0.61587 0.2264 0.0
C3756 C 0.71711 0.61707 0.20834 0.0
C3757 C 0.71266 0.63222 0.19977 0.0
C3758 C 0.69715 0.6294 0.25493 0.0
C3759 C 0.72705 0.60221 0.19802 0.0
C3760 C 0.73771 0.58634 0.25221 0.0
C3761 C 0.72434 0.56908 0.25329 0.0
C3762 C 0.7339 0.60168 0.24354 0.0
C3763 C 0.71631 0.5997 0.23563 0.0
C3764 C 0.70274 0.58232 0.23668 0.0
C3765 C 0.70689 0.56726 0.24556 0.0
C3766 C 0.74866 0.62005 0.24293 0.0
C3767 C 0.68389 0.57958 0.2283 0.0
H3768 H 0.69096 0.65566 0.23382 0.0
H3769 H 0.71642 0.63308 0.18592 0.0
H3770 H 0.68711 0.61572 0.25723 0.0
H3771 H 0.70993 0.62961 0.26232 0.0
H3772 H 0.69033 0.64177 0.26029 0.0
H3773 H 0.73016 0.60526 0.18409 0.0
H3774 H 0.74064 0.60182 0.20391 0.0
H3775 H 0.71807 0.58758 0.19852 0.0
H3776 H 0.75111 0.58797 0.25838 0.0
H3777 H 0.69661 0.55389 0.24618 0.0
H3778 H 0.74254 0.63256 0.24906 0.0
H3779 H 0.75293 0.62291 0.22914 0.0
H3780 H 0.7616 0.6193 0.24978 0.0
H3781 H 0.67588 0.59093 0.23393 0.0
H3782 H 0.67495 0.56515 0.23017 0.0
H3783 H 0.68631 0.58119 0.21406 0.0
C3784 C 0.71841 0.41225 0.8393 0.0
C3785 C 0.70869 0.39638 0.82906 0.0
C3786 C 0.72816 0.42886 0.83162 0.0
C3787 C 0.7281 0.42962 0.81328 0.0
C3788 C 0.71891 0.41338 0.80283 0.0
C3789 C 0.7094 0.39695 0.81083 0.0
C3790 C 0.73795 0.44584 0.84317 0.0
C3791 C 0.71854 0.4136 0.78324 0.0
C3792 C 0.73299 0.47839 0.79484 0.0
C3793 C 0.75184 0.48138 0.78782 0.0
C3794 C 0.72521 0.46176 0.80337 0.0
C3795 C 0.73659 0.44778 0.80508 0.0
C3796 C 0.75572 0.45081 0.79834 0.0
C3797 C 0.7631 0.46753 0.78973 0.0
C3798 C 0.70471 0.45901 0.81036 0.0
C3799 C 0.76831 0.43625 0.79995 0.0
H3800 H 0.71783 0.41195 0.8534 0.0
H3801 H 0.70226 0.38458 0.80281 0.0
H3802 H 0.75285 0.45057 0.83812 0.0
H3803 H 0.73056 0.45827 0.843 0.0
H3804 H 0.73807 0.44235 0.85693 0.0
H3805 H 0.7116 0.39943 0.7769 0.0
H3806 H 0.71069 0.42488 0.7802 0.0
H3807 H 0.73323 0.41736 0.77737 0.0
H3808 H 0.72427 0.48912 0.79374 0.0
H3809 H 0.77759 0.46955 0.78421 0.0
H3810 H 0.70383 0.45716 0.82457 0.0
H3811 H 0.69643 0.44565 0.80381 0.0
H3812 H 0.6979 0.47143 0.80828 0.0
H3813 H 0.76855 0.43336 0.81385 0.0
H3814 H 0.78316 0.44126 0.79485 0.0
H3815 H 0.76248 0.4223 0.79262 0.0
C3816 C 0.69987 0.7416 0.84258 0.0
C3817 C 0.69692 0.72139 0.83901 0.0
C3818 C 0.68673 0.75244 0.83781 0.0
C3819 C 0.67004 0.74286 0.8295 0.0
C3820 C 0.66709 0.72246 0.82579 0.0
C3821 C 0.68063 0.71203 0.83043 0.0
C3822 C 0.69064 0.77417 0.84176 0.0
C3823 C 0.64942 0.71158 0.81721 0.0
C3824 C 0.62699 0.76794 0.83381 0.0
C3825 C 0.62726 0.77488 0.81728 0.0
C3826 C 0.64071 0.75746 0.83789 0.0
C3827 C 0.65537 0.75405 0.82525 0.0
C3828 C 0.65585 0.76121 0.80858 0.0
C3829 C 0.6417 0.77134 0.80475 0.0
C3830 C 0.63939 0.74984 0.8557 0.0
C3831 C 0.67137 0.75824 0.79481 0.0
H3832 H 0.7125 0.749 0.84907 0.0
H3833 H 0.67828 0.69642 0.82764 0.0
H3834 H 0.69024 0.78137 0.82963 0.0
H3835 H 0.6794 0.77856 0.85111 0.0
H3836 H 0.70468 0.77955 0.84745 0.0
H3837 H 0.64931 0.69576 0.81503 0.0
H3838 H 0.63659 0.71388 0.82551 0.0
H3839 H 0.6483 0.71721 0.80443 0.0
H3840 H 0.61574 0.77037 0.84348 0.0
H3841 H 0.64209 0.77681 0.79201 0.0
H3842 H 0.65257 0.75589 0.8626 0.0
H3843 H 0.6381 0.73385 0.85425 0.0
H3844 H 0.62702 0.75352 0.864 0.0
H3845 H 0.68552 0.76431 0.80003 0.0
H3846 H 0.67008 0.7652 0.78271 0.0
H3847 H 0.67088 0.74253 0.79136 0.0
C3848 C 0.34352 0.6859 0.80184 0.0
C3849 C 0.36274 0.68887 0.80563 0.0
C3850 C 0.33366 0.6673 0.79652 0.0
C3851 C 0.3433 0.65142 0.79503 0.0
C3852 C 0.3627 0.65437 0.79883 0.0
C3853 C 0.37215 0.67303 0.80416 0.0
C3854 C 0.31293 0.6646 0.79259 0.0
C3855 C 0.37344 0.63778 0.79746 0.0
C3856 C 0.31565 0.60045 0.79837 0.0
C3857 C 0.31552 0.59301 0.78077 0.0
C3858 C 0.3243 0.61959 0.80314 0.0
C3859 C 0.33308 0.63155 0.79001 0.0
C3860 C 0.33295 0.62419 0.77222 0.0
C3861 C 0.32414 0.60498 0.7678 0.0
C3862 C 0.32419 0.62696 0.82226 0.0
C3863 C 0.3423 0.63655 0.7579 0.0
H3864 H 0.33625 0.69813 0.8029 0.0
H3865 H 0.3869 0.67518 0.80744 0.0
H3866 H 0.31082 0.65796 0.77903 0.0
H3867 H 0.30417 0.65452 0.8015 0.0
H3868 H 0.30761 0.67849 0.7941 0.0
H3869 H 0.38865 0.64265 0.80038 0.0
H3870 H 0.36678 0.62701 0.80673 0.0
H3871 H 0.3727 0.63025 0.7841 0.0
H3872 H 0.30893 0.59132 0.80847 0.0
H3873 H 0.32402 0.59935 0.75418 0.0
H3874 H 0.31779 0.64019 0.82429 0.0
H3875 H 0.339 0.63103 0.82648 0.0
H3876 H 0.31611 0.61602 0.83079 0.0
H3877 H 0.33633 0.65001 0.7585 0.0
H3878 H 0.34036 0.62886 0.74466 0.0
H3879 H 0.35777 0.64095 0.75981 0.0
C3880 C 0.40059 0.33322 0.8667 0.0
C3881 C 0.38572 0.33714 0.85748 0.0
C3882 C 0.41465 0.32361 0.85833 0.0
C3883 C 0.41408 0.31792 0.84017 0.0
C3884 C 0.39949 0.32235 0.83064 0.0
C3885 C 0.38546 0.33182 0.8394 0.0
C3886 C 0.42992 0.31916 0.86901 0.0
C3887 C 0.39846 0.3167 0.81124 0.0
C3888 C 0.45948 0.30579 0.81646 0.0
C3889 C 0.45591 0.28543 0.81557 0.0
C3890 C 0.44591 0.31653 0.82415 0.0
C3891 C 0.42837 0.30676 0.83134 0.0
C3892 C 0.42463 0.28626 0.83049 0.0
C3893 C 0.43835 0.27588 0.82256 0.0
C3894 C 0.45043 0.33837 0.82471 0.0
C3895 C 0.40615 0.27525 0.83807 0.0
H3896 H 0.40119 0.3376 0.88059 0.0
H3897 H 0.37398 0.33456 0.83215 0.0
H3898 H 0.42904 0.30325 0.86853 0.0
H3899 H 0.44421 0.32541 0.86341 0.0
H3900 H 0.42863 0.32494 0.88292 0.0
H3901 H 0.38692 0.32218 0.80552 0.0
H3902 H 0.41221 0.32242 0.80431 0.0
H3903 H 0.39592 0.30069 0.80878 0.0
H3904 H 0.473 0.31345 0.81137 0.0
H3905 H 0.43519 0.26021 0.82176 0.0
H3906 H 0.45066 0.34468 0.8385 0.0
H3907 H 0.43917 0.34375 0.8185 0.0
H3908 H 0.46439 0.34377 0.81795 0.0
H3909 H 0.4045 0.27965 0.85227 0.0
H3910 H 0.40538 0.25931 0.83631 0.0
H3911 H 0.39395 0.27882 0.83179 0.0
C3912 C 0.35603 0.3907 0.22295 0.0
C3913 C 0.37578 0.39207 0.21983 0.0
C3914 C 0.34804 0.40697 0.22923 0.0
C3915 C 0.36 0.4253 0.23237 0.0
C3916 C 0.38002 0.42662 0.23002 0.0
C3917 C 0.38767 0.41 0.22387 0.0
C3918 C 0.32666 0.40468 0.23171 0.0
C3919 C 0.39335 0.4458 0.23308 0.0
C3920 C 0.33596 0.46738 0.22513 0.0
C3921 C 0.33041 0.47393 0.2422 0.0
C3922 C 0.34642 0.45234 0.22189 0.0
C3923 C 0.35133 0.4432 0.23606 0.0
C3924 C 0.3465 0.45029 0.25343 0.0
C3925 C 0.33621 0.46567 0.25631 0.0
C3926 C 0.35142 0.44563 0.20318 0.0
C3927 C 0.35132 0.44096 0.26893 0.0
H3928 H 0.34673 0.37687 0.22012 0.0
H3929 H 0.40292 0.41126 0.22145 0.0
H3930 H 0.3226 0.41133 0.24476 0.0
H3931 H 0.32128 0.41234 0.22174 0.0
H3932 H 0.31947 0.38924 0.23047 0.0
H3933 H 0.40846 0.44408 0.23279 0.0
H3934 H 0.39184 0.4553 0.22278 0.0
H3935 H 0.38965 0.45328 0.24586 0.0
H3936 H 0.33165 0.47374 0.21414 0.0
H3937 H 0.33183 0.47049 0.26952 0.0
H3938 H 0.34335 0.4308 0.19992 0.0
H3939 H 0.36679 0.44497 0.20143 0.0
H3940 H 0.34809 0.45531 0.19373 0.0
H3941 H 0.34251 0.42623 0.26927 0.0
H3942 H 0.34869 0.44946 0.2815 0.0
H3943 H 0.36645 0.43929 0.26774 0.0
C3944 C 0.71412 0.31144 0.19215 0.0
C3945 C 0.72577 0.3134 0.20629 0.0
C3946 C 0.69478 0.30295 0.19389 0.0
C3947 C 0.68713 0.29602 0.21007 0.0
C3948 C 0.69916 0.29717 0.22412 0.0
C3949 C 0.71834 0.30612 0.22213 0.0
C3950 C 0.68235 0.30234 0.17873 0.0
C3951 C 0.69161 0.28961 0.24147 0.0
C3952 C 0.63513 0.29543 0.2236 0.0
C3953 C 0.62708 0.27588 0.21995 0.0
C3954 C 0.65455 0.30226 0.21994 0.0
C3955 C 0.66629 0.28907 0.21282 0.0
C3956 C 0.65818 0.26932 0.20891 0.0
C3957 C 0.63857 0.26299 0.21235 0.0
C3958 C 0.66256 0.32352 0.22395 0.0
C3959 C 0.67031 0.25478 0.20165 0.0
H3960 H 0.71998 0.31733 0.17999 0.0
H3961 H 0.72747 0.30778 0.23303 0.0
H3962 H 0.67419 0.28748 0.17585 0.0
H3963 H 0.67186 0.31198 0.18225 0.0
H3964 H 0.69075 0.30706 0.16668 0.0
H3965 H 0.70318 0.28978 0.25039 0.0
H3966 H 0.68162 0.29864 0.24799 0.0
H3967 H 0.68356 0.27457 0.23943 0.0
H3968 H 0.62613 0.30537 0.22936 0.0
H3969 H 0.63232 0.24782 0.20974 0.0
H3970 H 0.67033 0.32965 0.21216 0.0
H3971 H 0.67291 0.32535 0.23431 0.0
H3972 H 0.6513 0.33202 0.22843 0.0
H3973 H 0.67842 0.25956 0.18952 0.0
H3974 H 0.66171 0.24011 0.1987 0.0
H3975 H 0.68086 0.25381 0.21125 0.0
C3976 C 0.37863 0.7217 0.19677 0.0
C3977 C 0.38136 0.71828 0.17858 0.0
C3978 C 0.39375 0.73065 0.20706 0.0
C3979 C 0.41211 0.73629 0.19897 0.0
C3980 C 0.4146 0.73436 0.18047 0.0
C3981 C 0.39915 0.72535 0.17047 0.0
C3982 C 0.39038 0.73259 0.22671 0.0
C3983 C 0.43387 0.74036 0.17133 0.0
C3984 C 0.44954 0.7634 0.22978 0.0
C3985 C 0.45665 0.74793 0.23531 0.0
C3986 C 0.43566 0.76009 0.21718 0.0
C3987 C 0.42891 0.74093 0.21001 0.0
C3988 C 0.43698 0.72551 0.2148 0.0
C3989 C 0.45068 0.7292 0.22738 0.0
C3990 C 0.42751 0.77692 0.21231 0.0
C3991 C 0.43039 0.70486 0.20738 0.0
H3992 H 0.36479 0.71656 0.20304 0.0
H3993 H 0.40132 0.72276 0.15641 0.0
H3994 H 0.39717 0.72199 0.23251 0.0
H3995 H 0.39693 0.74727 0.23221 0.0
H3996 H 0.37497 0.72988 0.23078 0.0
H3997 H 0.43278 0.74138 0.15713 0.0
H3998 H 0.44124 0.75454 0.17725 0.0
H3999 H 0.44285 0.72951 0.17285 0.0
H4000 H 0.45412 0.7779 0.23586 0.0
H4001 H 0.45633 0.71722 0.23141 0.0
H4002 H 0.41302 0.7763 0.21862 0.0
H4003 H 0.42618 0.77612 0.19796 0.0
H4004 H 0.43638 0.79107 0.2166 0.0
H4005 H 0.41536 0.69978 0.21189 0.0
H4006 H 0.43913 0.69481 0.21144 0.0
H4007 H 0.43098 0.70403 0.19288 0.0
loop_
_geom_bond_atom_site_label_1
_geom_bond_atom_site_label_2
_geom_bond_distance
_geom_bond_site_symmetry_2
_ccdc_geom_bond_type
H0 C5 0.930 . S
H1 C8 0.930 . S
H2 C10 0.930 . S
H3 C4 1.016 . S
C4 H3 1.016 . S
C4 N11 1.286 . S
C5 H0 0.930 . S
C5 C6 1.397 . S
C5 C7 1.361 . S
C6 C5 1.397 . S
C6 C10 1.390 . S
C7 C5 1.361 . S
C7 C8 1.393 . S
C7 N11 1.413 . S
C8 H1 0.930 . S
C8 C7 1.393 . S
C8 C9 1.399 . S
C9 C8 1.399 . S
C9 C10 1.381 . S
C10 H2 0.930 . S
C10 C6 1.390 . S
C10 C9 1.381 . S
N11 C4 1.286 . S
N11 C7 1.413 . S
H12 C17 0.930 . S
H13 C20 0.930 . S
H14 C22 0.930 . S
H15 C16 1.016 . S
C16 H15 1.016 . S
C16 N23 1.286 . S
C17 H12 0.930 . S
C17 C18 1.397 . S
C17 C19 1.361 . S
C18 C17 1.397 . S
C18 C22 1.390 . S
C19 C17 1.361 . S
C19 C20 1.393 . S
C19 N23 1.413 . S
C20 H13 0.930 . S
C20 C19 1.393 . S
C20 C21 1.399 . S
C21 C20 1.399 . S
C21 C22 1.381 . S
C22 H14 0.930 . S
C22 C18 1.390 . S
C22 C21 1.381 . S
N23 C16 1.286 . S
N23 C19 1.413 . S
H24 C29 0.930 . S
H25 C32 0.930 . S
H26 C34 0.930 . S
H27 C28 1.016 . S
C28 H27 1.016 . S
C28 N35 1.286 . S
C29 H24 0.930 . S
C29 C30 1.397 . S
C29 C31 1.361 . S
C30 C29 1.397 . S
C30 C34 1.390 . S
C31 C29 1.361 . S
C31 C32 1.393 . S
C31 N35 1.413 . S
C32 H25 0.930 . S
C32 C31 1.393 . S
C32 C33 1.399 . S
C33 C32 1.399 . S
C33 C34 1.381 . S
C34 H26 0.930 . S
C34 C30 1.390 . S
C34 C33 1.381 . S
N35 C28 1.286 . S
N35 C31 1.413 . S
H36 C41 0.930 . S
H37 C44 0.930 . S
H38 C46 0.930 . S
H39 C40 1.016 . S
C40 H39 1.016 . S
C40 N47 1.286 . S
C41 H36 0.930 . S
C41 C42 1.397 . S
C41 C43 1.361 . S
C42 C41 1.397 . S
C42 C46 1.390 . S
C43 C41 1.361 . S
C43 C44 1.393 . S
C43 N47 1.413 . S
C44 H37 0.930 . S
C44 C43 1.393 . S
C44 C45 1.399 . S
C45 C44 1.399 . S
C45 C46 1.381 . S
C46 H38 0.930 . S
C46 C42 1.390 . S
C46 C45 1.381 . S
N47 C40 1.286 . S
N47 C43 1.413 . S
H48 C53 0.930 . S
H49 C56 0.930 . S
H50 C58 0.930 . S
H51 C52 1.016 . S
C52 H51 1.016 . S
C52 N59 1.286 . S
C53 H48 0.930 . S
C53 C54 1.397 . S
C53 C55 1.361 . S
C54 C53 1.397 . S
C54 C58 1.390 . S
C55 C53 1.361 . S
C55 C56 1.393 . S
C55 N59 1.413 . S
C56 H49 0.930 . S
C56 C55 1.393 . S
C56 C57 1.399 . S
C57 C56 1.399 . S
C57 C58 1.381 . S
C58 H50 0.930 . S
C58 C54 1.390 . S
C58 C57 1.381 . S
N59 C52 1.286 . S
N59 C55 1.413 . S
H60 C65 0.930 . S
H61 C68 0.930 . S
H62 C70 0.930 . S
H63 C64 1.016 . S
C64 H63 1.016 . S
C64 N71 1.286 . S
C65 H60 0.930 . S
C65 C66 1.397 . S
C65 C67 1.361 . S
C66 C65 1.397 . S
C66 C70 1.390 . S
C67 C65 1.361 . S
C67 C68 1.393 . S
C67 N71 1.413 . S
C68 H61 0.930 . S
C68 C67 1.393 . S
C68 C69 1.399 . S
C69 C68 1.399 . S
C69 C70 1.381 . S
C70 H62 0.930 . S
C70 C66 1.390 . S
C70 C69 1.381 . S
N71 C64 1.286 . S
N71 C67 1.413 . S
H72 C77 0.930 . S
H73 C80 0.930 . S
H74 C82 0.930 . S
H75 C76 1.016 . S
C76 H75 1.016 . S
C76 N83 1.286 . S
C77 H72 0.930 . S
C77 C78 1.397 . S
C77 C79 1.361 . S
C78 C77 1.397 . S
C78 C82 1.390 . S
C79 C77 1.361 . S
C79 C80 1.393 . S
C79 N83 1.413 . S
C80 H73 0.930 . S
C80 C79 1.393 . S
C80 C81 1.399 . S
C81 C80 1.399 . S
C81 C82 1.381 . S
C82 H74 0.930 . S
C82 C78 1.390 . S
C82 C81 1.381 . S
N83 C76 1.286 . S
N83 C79 1.413 . S
H84 C89 0.930 . S
H85 C92 0.930 . S
H86 C94 0.930 . S
H87 C88 1.016 . S
C88 H87 1.016 . S
C88 N95 1.286 . S
C89 H84 0.930 . S
C89 C90 1.397 . S
C89 C91 1.361 . S
C90 C89 1.397 . S
C90 C94 1.390 . S
C91 C89 1.361 . S
C91 C92 1.393 . S
C91 N95 1.413 . S
C92 H85 0.930 . S
C92 C91 1.393 . S
C92 C93 1.399 . S
C93 C92 1.399 . S
C93 C94 1.381 . S
C94 H86 0.930 . S
C94 C90 1.390 . S
C94 C93 1.381 . S
N95 C88 1.286 . S
N95 C91 1.413 . S
H96 C101 0.930 . S
H97 C104 0.930 . S
H98 C106 0.930 . S
H99 C100 1.016 . S
C100 H99 1.016 . S
C100 N107 1.286 . S
C101 H96 0.930 . S
C101 C102 1.397 . S
C101 C103 1.361 . S
C102 C101 1.397 . S
C102 C106 1.390 . S
C103 C101 1.361 . S
C103 C104 1.393 . S
C103 N107 1.413 . S
C104 H97 0.930 . S
C104 C103 1.393 . S
C104 C105 1.399 . S
C105 C104 1.399 . S
C105 C106 1.381 . S
C106 H98 0.930 . S
C106 C102 1.390 . S
C106 C105 1.381 . S
N107 C100 1.286 . S
N107 C103 1.413 . S
H108 C113 0.930 . S
H109 C116 0.930 . S
H110 C118 0.930 . S
H111 C112 1.016 . S
C112 H111 1.016 . S
C112 N119 1.286 . S
C113 H108 0.930 . S
C113 C114 1.397 . S
C113 C115 1.361 . S
C114 C113 1.397 . S
C114 C118 1.390 . S
C115 C113 1.361 . S
C115 C116 1.393 . S
C115 N119 1.413 . S
C116 H109 0.930 . S
C116 C115 1.393 . S
C116 C117 1.399 . S
C117 C116 1.399 . S
C117 C118 1.381 . S
C118 H110 0.930 . S
C118 C114 1.390 . S
C118 C117 1.381 . S
N119 C112 1.286 . S
N119 C115 1.413 . S
H120 C125 0.930 . S
H121 C128 0.930 . S
H122 C130 0.930 . S
H123 C124 1.016 . S
C124 H123 1.016 . S
C124 N131 1.286 . S
C125 H120 0.930 . S
C125 C126 1.397 . S
C125 C127 1.361 . S
C126 C125 1.397 . S
C126 C130 1.390 . S
C127 C125 1.361 . S
C127 C128 1.393 . S
C127 N131 1.413 . S
C128 H121 0.930 . S
C128 C127 1.393 . S
C128 C129 1.399 . S
C129 C128 1.399 . S
C129 C130 1.381 . S
C130 H122 0.930 . S
C130 C126 1.390 . S
C130 C129 1.381 . S
N131 C124 1.286 . S
N131 C127 1.413 . S
H132 C137 0.930 . S
H133 C140 0.930 . S
H134 C142 0.930 . S
H135 C136 1.016 . S
C136 H135 1.016 . S
C136 N143 1.286 . S
C137 H132 0.930 . S
C137 C138 1.397 . S
C137 C139 1.361 . S
C138 C137 1.397 . S
C138 C142 1.390 . S
C139 C137 1.361 . S
C139 C140 1.393 . S
C139 N143 1.413 . S
C140 H133 0.930 . S
C140 C139 1.393 . S
C140 C141 1.399 . S
C141 C140 1.399 . S
C141 C142 1.381 . S
C142 H134 0.930 . S
C142 C138 1.390 . S
C142 C141 1.381 . S
N143 C136 1.286 . S
N143 C139 1.413 . S
H144 C149 0.930 . S
H145 C152 0.930 . S
H146 C154 0.930 . S
H147 C148 1.016 . S
C148 H147 1.016 . S
C148 N155 1.286 . S
C149 H144 0.930 . S
C149 C150 1.397 . S
C149 C151 1.361 . S
C150 C149 1.397 . S
C150 C154 1.390 . S
C151 C149 1.361 . S
C151 C152 1.393 . S
C151 N155 1.413 . S
C152 H145 0.930 . S
C152 C151 1.393 . S
C152 C153 1.399 . S
C153 C152 1.399 . S
C153 C154 1.381 . S
C154 H146 0.930 . S
C154 C150 1.390 . S
C154 C153 1.381 . S
N155 C148 1.286 . S
N155 C151 1.413 . S
H156 C161 0.930 . S
H157 C164 0.930 . S
H158 C166 0.930 . S
H159 C160 1.016 . S
C160 H159 1.016 . S
C160 N167 1.286 . S
C161 H156 0.930 . S
C161 C162 1.397 . S
C161 C163 1.361 . S
C162 C161 1.397 . S
C162 C166 1.390 . S
C163 C161 1.361 . S
C163 C164 1.393 . S
C163 N167 1.413 . S
C164 H157 0.930 . S
C164 C163 1.393 . S
C164 C165 1.399 . S
C165 C164 1.399 . S
C165 C166 1.381 . S
C166 H158 0.930 . S
C166 C162 1.390 . S
C166 C165 1.381 . S
N167 C160 1.286 . S
N167 C163 1.413 . S
H168 C173 0.930 . S
H169 C176 0.930 . S
H170 C178 0.930 . S
H171 C172 1.016 . S
C172 H171 1.016 . S
C172 N179 1.286 . S
C173 H168 0.930 . S
C173 C174 1.397 . S
C173 C175 1.361 . S
C174 C173 1.397 . S
C174 C178 1.390 . S
C175 C173 1.361 . S
C175 C176 1.393 . S
C175 N179 1.413 . S
C176 H169 0.930 . S
C176 C175 1.393 . S
C176 C177 1.399 . S
C177 C176 1.399 . S
C177 C178 1.381 . S
C178 H170 0.930 . S
C178 C174 1.390 . S
C178 C177 1.381 . S
N179 C172 1.286 . S
N179 C175 1.413 . S
H180 C185 0.930 . S
H181 C188 0.930 . S
H182 C190 0.930 . S
H183 C184 1.016 . S
C184 H183 1.016 . S
C184 N191 1.286 . S
C185 H180 0.930 . S
C185 C186 1.397 . S
C185 C187 1.361 . S
C186 C185 1.397 . S
C186 C190 1.390 . S
C187 C185 1.361 . S
C187 C188 1.393 . S
C187 N191 1.413 . S
C188 H181 0.930 . S
C188 C187 1.393 . S
C188 C189 1.399 . S
C189 C188 1.399 . S
C189 C190 1.381 . S
C190 H182 0.930 . S
C190 C186 1.390 . S
C190 C189 1.381 . S
N191 C184 1.286 . S
N191 C187 1.413 . S
H192 C197 0.930 . S
H193 C200 0.930 . S
H194 C202 0.930 . S
H195 C196 1.016 . S
C196 H195 1.016 . S
C196 N203 1.286 . S
C197 H192 0.930 . S
C197 C198 1.397 . S
C197 C199 1.361 . S
C198 C197 1.397 . S
C198 C202 1.390 . S
C199 C197 1.361 . S
C199 C200 1.393 . S
C199 N203 1.413 . S
C200 H193 0.930 . S
C200 C199 1.393 . S
C200 C201 1.399 . S
C201 C200 1.399 . S
C201 C202 1.381 . S
C202 H194 0.930 . S
C202 C198 1.390 . S
C202 C201 1.381 . S
N203 C196 1.286 . S
N203 C199 1.413 . S
H204 C209 0.930 . S
H205 C212 0.930 . S
H206 C214 0.930 . S
H207 C208 1.016 . S
C208 H207 1.016 . S
C208 N215 1.286 . S
C209 H204 0.930 . S
C209 C210 1.397 . S
C209 C211 1.361 . S
C210 C209 1.397 . S
C210 C214 1.390 . S
C211 C209 1.361 . S
C211 C212 1.393 . S
C211 N215 1.413 . S
C212 H205 0.930 . S
C212 C211 1.393 . S
C212 C213 1.399 . S
C213 C212 1.399 . S
C213 C214 1.381 . S
C214 H206 0.930 . S
C214 C210 1.390 . S
C214 C213 1.381 . S
N215 C208 1.286 . S
N215 C211 1.413 . S
H216 C221 0.930 . S
H217 C224 0.930 . S
H218 C226 0.930 . S
H219 C220 1.016 . S
C220 H219 1.016 . S
C220 N227 1.286 . S
C221 H216 0.930 . S
C221 C222 1.397 . S
C221 C223 1.361 . S
C222 C221 1.397 . S
C222 C226 1.390 . S
C223 C221 1.361 . S
C223 C224 1.393 . S
C223 N227 1.413 . S
C224 H217 0.930 . S
C224 C223 1.393 . S
C224 C225 1.399 . S
C225 C224 1.399 . S
C225 C226 1.381 . S
C226 H218 0.930 . S
C226 C222 1.390 . S
C226 C225 1.381 . S
N227 C220 1.286 . S
N227 C223 1.413 . S
H228 C233 0.930 . S
H229 C236 0.930 . S
H230 C238 0.930 . S
H231 C232 1.016 . S
C232 H231 1.016 . S
C232 N239 1.286 . S
C233 H228 0.930 . S
C233 C234 1.397 . S
C233 C235 1.361 . S
C234 C233 1.397 . S
C234 C238 1.390 . S
C235 C233 1.361 . S
C235 C236 1.393 . S
C235 N239 1.413 . S
C236 H229 0.930 . S
C236 C235 1.393 . S
C236 C237 1.399 . S
C237 C236 1.399 . S
C237 C238 1.381 . S
C238 H230 0.930 . S
C238 C234 1.390 . S
C238 C237 1.381 . S
N239 C232 1.286 . S
N239 C235 1.413 . S
H240 C245 0.930 . S
H241 C248 0.930 . S
H242 C250 0.930 . S
H243 C244 1.016 . S
C244 H243 1.016 . S
C244 N251 1.286 . S
C245 H240 0.930 . S
C245 C246 1.397 . S
C245 C247 1.361 . S
C246 C245 1.397 . S
C246 C250 1.390 . S
C247 C245 1.361 . S
C247 C248 1.393 . S
C247 N251 1.413 . S
C248 H241 0.930 . S
C248 C247 1.393 . S
C248 C249 1.399 . S
C249 C248 1.399 . S
C249 C250 1.381 . S
C250 H242 0.930 . S
C250 C246 1.390 . S
C250 C249 1.381 . S
N251 C244 1.286 . S
N251 C247 1.413 . S
H252 C257 0.930 . S
H253 C260 0.930 . S
H254 C262 0.930 . S
H255 C256 1.016 . S
C256 H255 1.016 . S
C256 N263 1.286 . S
C257 H252 0.930 . S
C257 C258 1.397 . S
C257 C259 1.361 . S
C258 C257 1.397 . S
C258 C262 1.390 . S
C259 C257 1.361 . S
C259 C260 1.393 . S
C259 N263 1.413 . S
C260 H253 0.930 . S
C260 C259 1.393 . S
C260 C261 1.399 . S
C261 C260 1.399 . S
C261 C262 1.381 . S
C262 H254 0.930 . S
C262 C258 1.390 . S
C262 C261 1.381 . S
N263 C256 1.286 . S
N263 C259 1.413 . S
H264 C269 0.930 . S
H265 C272 0.930 . S
H266 C274 0.930 . S
H267 C268 1.016 . S
C268 H267 1.016 . S
C268 N275 1.286 . S
C269 H264 0.930 . S
C269 C270 1.397 . S
C269 C271 1.361 . S
C270 C269 1.397 . S
C270 C274 1.390 . S
C271 C269 1.361 . S
C271 C272 1.393 . S
C271 N275 1.413 . S
C272 H265 0.930 . S
C272 C271 1.393 . S
C272 C273 1.399 . S
C273 C272 1.399 . S
C273 C274 1.381 . S
C274 H266 0.930 . S
C274 C270 1.390 . S
C274 C273 1.381 . S
N275 C268 1.286 . S
N275 C271 1.413 . S
H276 C281 0.930 . S
H277 C284 0.930 . S
H278 C286 0.930 . S
H279 C280 1.016 . S
C280 H279 1.016 . S
C280 N287 1.286 . S
C281 H276 0.930 . S
C281 C282 1.397 . S
C281 C283 1.361 . S
C282 C281 1.397 . S
C282 C286 1.390 . S
C283 C281 1.361 . S
C283 C284 1.393 . S
C283 N287 1.413 . S
C284 H277 0.930 . S
C284 C283 1.393 . S
C284 C285 1.399 . S
C285 C284 1.399 . S
C285 C286 1.381 . S
C286 H278 0.930 . S
C286 C282 1.390 . S
C286 C285 1.381 . S
N287 C280 1.286 . S
N287 C283 1.413 . S
H288 C293 0.930 . S
H289 C296 0.930 . S
H290 C298 0.930 . S
H291 C292 1.016 . S
C292 H291 1.016 . S
C292 N299 1.286 . S
C293 H288 0.930 . S
C293 C294 1.397 . S
C293 C295 1.361 . S
C294 C293 1.397 . S
C294 C298 1.390 . S
C295 C293 1.361 . S
C295 C296 1.393 . S
C295 N299 1.413 . S
C296 H289 0.930 . S
C296 C295 1.393 . S
C296 C297 1.399 . S
C297 C296 1.399 . S
C297 C298 1.381 . S
C298 H290 0.930 . S
C298 C294 1.390 . S
C298 C297 1.381 . S
N299 C292 1.286 . S
N299 C295 1.413 . S
H300 C305 0.930 . S
H301 C308 0.930 . S
H302 C310 0.930 . S
H303 C304 1.016 . S
C304 H303 1.016 . S
C304 N311 1.286 . S
C305 H300 0.930 . S
C305 C306 1.397 . S
C305 C307 1.361 . S
C306 C305 1.397 . S
C306 C310 1.390 . S
C307 C305 1.361 . S
C307 C308 1.393 . S
C307 N311 1.413 . S
C308 H301 0.930 . S
C308 C307 1.393 . S
C308 C309 1.399 . S
C309 C308 1.399 . S
C309 C310 1.381 . S
C310 H302 0.930 . S
C310 C306 1.390 . S
C310 C309 1.381 . S
N311 C304 1.286 . S
N311 C307 1.413 . S
H312 C317 0.930 . S
H313 C320 0.930 . S
H314 C322 0.930 . S
H315 C316 1.016 . S
C316 H315 1.016 . S
C316 N323 1.286 . S
C317 H312 0.930 . S
C317 C318 1.397 . S
C317 C319 1.361 . S
C318 C317 1.397 . S
C318 C322 1.390 . S
C319 C317 1.361 . S
C319 C320 1.393 . S
C319 N323 1.413 . S
C320 H313 0.930 . S
C320 C319 1.393 . S
C320 C321 1.399 . S
C321 C320 1.399 . S
C321 C322 1.381 . S
C322 H314 0.930 . S
C322 C318 1.390 . S
C322 C321 1.381 . S
N323 C316 1.286 . S
N323 C319 1.413 . S
H324 C329 0.930 . S
H325 C332 0.930 . S
H326 C334 0.930 . S
H327 C328 1.016 . S
C328 H327 1.016 . S
C328 N335 1.286 . S
C329 H324 0.930 . S
C329 C330 1.397 . S
C329 C331 1.361 . S
C330 C329 1.397 . S
C330 C334 1.390 . S
C331 C329 1.361 . S
C331 C332 1.393 . S
C331 N335 1.413 . S
C332 H325 0.930 . S
C332 C331 1.393 . S
C332 C333 1.399 . S
C333 C332 1.399 . S
C333 C334 1.381 . S
C334 H326 0.930 . S
C334 C330 1.390 . S
C334 C333 1.381 . S
N335 C328 1.286 . S
N335 C331 1.413 . S
H336 C341 0.930 . S
H337 C344 0.930 . S
H338 C346 0.930 . S
H339 C340 1.016 . S
C340 H339 1.016 . S
C340 N347 1.286 . S
C341 H336 0.930 . S
C341 C342 1.397 . S
C341 C343 1.361 . S
C342 C341 1.397 . S
C342 C346 1.390 . S
C343 C341 1.361 . S
C343 C344 1.393 . S
C343 N347 1.413 . S
C344 H337 0.930 . S
C344 C343 1.393 . S
C344 C345 1.399 . S
C345 C344 1.399 . S
C345 C346 1.381 . S
C346 H338 0.930 . S
C346 C342 1.390 . S
C346 C345 1.381 . S
N347 C340 1.286 . S
N347 C343 1.413 . S
H348 C353 0.930 . S
H349 C356 0.930 . S
H350 C358 0.930 . S
H351 C352 1.016 . S
C352 H351 1.016 . S
C352 N359 1.286 . S
C353 H348 0.930 . S
C353 C354 1.397 . S
C353 C355 1.361 . S
C354 C353 1.397 . S
C354 C358 1.390 . S
C355 C353 1.361 . S
C355 C356 1.393 . S
C355 N359 1.413 . S
C356 H349 0.930 . S
C356 C355 1.393 . S
C356 C357 1.399 . S
C357 C356 1.399 . S
C357 C358 1.381 . S
C358 H350 0.930 . S
C358 C354 1.390 . S
C358 C357 1.381 . S
N359 C352 1.286 . S
N359 C355 1.413 . S
H360 C365 0.930 . S
H361 C368 0.930 . S
H362 C370 0.930 . S
H363 C364 1.016 . S
C364 H363 1.016 . S
C364 N371 1.286 . S
C365 H360 0.930 . S
C365 C366 1.397 . S
C365 C367 1.361 . S
C366 C365 1.397 . S
C366 C370 1.390 . S
C367 C365 1.361 . S
C367 C368 1.393 . S
C367 N371 1.413 . S
C368 H361 0.930 . S
C368 C367 1.393 . S
C368 C369 1.399 . S
C369 C368 1.399 . S
C369 C370 1.381 . S
C370 H362 0.930 . S
C370 C366 1.390 . S
C370 C369 1.381 . S
N371 C364 1.286 . S
N371 C367 1.413 . S
H372 C377 0.930 . S
H373 C380 0.930 . S
H374 C382 0.930 . S
H375 C376 1.016 . S
C376 H375 1.016 . S
C376 N383 1.286 . S
C377 H372 0.930 . S
C377 C378 1.397 . S
C377 C379 1.361 . S
C378 C377 1.397 . S
C378 C382 1.390 . S
C379 C377 1.361 . S
C379 C380 1.393 . S
C379 N383 1.413 . S
C380 H373 0.930 . S
C380 C379 1.393 . S
C380 C381 1.399 . S
C381 C380 1.399 . S
C381 C382 1.381 . S
C382 H374 0.930 . S
C382 C378 1.390 . S
C382 C381 1.381 . S
N383 C376 1.286 . S
N383 C379 1.413 . S
Cu384 N385 1.999 . S
Cu384 O390 1.974 1_554 S
Cu384 N395 1.985 . S
Cu384 O404 1.959 . S
N385 Cu384 1.999 . S
N385 C387 1.263 1_554 S
N385 C389 1.389 . S
N386 C387 1.358 . S
N386 C388 1.400 . S
C387 N385 1.263 1_556 S
C387 N386 1.358 . S
C387 H393 0.930 . S
C388 N386 1.400 . S
C388 C389 1.351 1_556 S
C388 H405 0.930 . S
C389 N385 1.389 . S
C389 C388 1.351 1_554 S
C389 H394 0.930 . S
O390 Cu384 1.974 1_556 S
O390 C400 1.282 . S
C391 O392 1.261 . S
C391 O404 1.251 . S
O392 C391 1.261 . S
H393 C387 0.930 . S
H394 C389 0.930 . S
N395 Cu384 1.985 . S
N395 C397 1.335 . S
N395 C398 1.390 . S
N396 C397 1.345 . S
N396 C399 1.336 . S
C397 N395 1.335 . S
C397 N396 1.345 . S
C397 H402 0.930 . S
C398 N395 1.390 . S
C398 C399 1.346 . S
C398 H403 0.930 . S
C399 N396 1.336 . S
C399 C398 1.346 . S
C399 H406 0.929 . S
C400 O390 1.282 . S
C400 O401 1.215 1_556 S
O401 C400 1.215 1_554 S
H402 C397 0.930 . S
H403 C398 0.930 . S
O404 Cu384 1.959 . S
O404 C391 1.251 . S
H405 C388 0.930 . S
H406 C399 0.929 . S
Cu407 N408 1.999 . S
Cu407 O413 1.974 . S
Cu407 N418 1.985 1_554 S
Cu407 O427 1.959 1_554 S
N408 Cu407 1.999 . S
N408 C410 1.263 . S
N408 C412 1.389 . S
N409 C410 1.358 . S
N409 C411 1.400 . S
C410 N408 1.263 . S
C410 N409 1.358 . S
C410 H416 0.930 . S
C411 N409 1.400 . S
C411 C412 1.351 . S
C411 H428 0.930 . S
C412 N408 1.389 . S
C412 C411 1.351 . S
C412 H417 0.930 . S
O413 Cu407 1.974 . S
O413 C423 1.282 . S
C414 O415 1.261 . S
C414 O427 1.251 . S
O415 C414 1.261 . S
H416 C410 0.930 . S
H417 C412 0.930 . S
N418 Cu407 1.985 1_556 S
N418 C420 1.335 . S
N418 C421 1.390 . S
N419 C420 1.345 . S
N419 C422 1.336 . S
C420 N418 1.335 . S
C420 N419 1.345 . S
C420 H425 0.930 . S
C421 N418 1.390 . S
C421 C422 1.346 . S
C421 H426 0.930 1_556 S
C422 N419 1.336 . S
C422 C421 1.346 . S
C422 H429 0.929 . S
C423 O413 1.282 . S
C423 O424 1.216 . S
O424 C423 1.216 . S
H425 C420 0.930 . S
H426 C421 0.930 1_554 S
O427 Cu407 1.959 1_556 S
O427 C414 1.251 . S
H428 C411 0.930 . S
H429 C422 0.929 . S
Cu430 N431 1.999 1_554 S
Cu430 O436 1.974 1_554 S
Cu430 N441 1.985 . S
Cu430 O450 1.959 . S
N431 Cu430 1.999 1_556 S
N431 C433 1.263 . S
N431 C435 1.389 . S
N432 C433 1.358 . S
N432 C434 1.400 . S
C433 N431 1.263 . S
C433 N432 1.358 . S
C433 H439 0.930 . S
C434 N432 1.400 . S
C434 C435 1.351 . S
C434 H451 0.930 . S
C435 N431 1.389 . S
C435 C434 1.351 . S
C435 H440 0.976 . S
O436 Cu430 1.974 1_556 S
O436 C446 1.282 . S
C437 O438 1.261 . S
C437 O450 1.251 . S
O438 C437 1.261 . S
H439 C433 0.930 . S
H440 C435 0.976 . S
N441 Cu430 1.985 . S
N441 C443 1.335 . S
N441 C444 1.390 . S
N442 C443 1.345 . S
N442 C445 1.336 . S
C443 N441 1.335 . S
C443 N442 1.345 . S
C443 H448 0.930 . S
C444 N441 1.390 . S
C444 C445 1.346 . S
C444 H449 0.930 . S
C445 N442 1.336 . S
C445 C444 1.346 . S
C445 H452 0.929 . S
C446 O436 1.282 . S
C446 O447 1.216 . S
O447 C446 1.216 . S
H448 C443 0.930 . S
H449 C444 0.930 . S
O450 Cu430 1.959 . S
O450 C437 1.251 . S
H451 C434 0.930 . S
H452 C445 0.929 . S
Cu453 N454 1.999 1_556 S
Cu453 O459 1.974 1_556 S
Cu453 N464 1.985 . S
Cu453 O473 1.959 . S
N454 Cu453 1.999 1_554 S
N454 C456 1.263 . S
N454 C458 1.389 . S
N455 C456 1.358 . S
N455 C457 1.400 . S
C456 N454 1.263 . S
C456 N455 1.358 . S
C456 H462 0.930 . S
C457 N455 1.400 . S
C457 C458 1.351 . S
C457 H474 0.930 . S
C458 N454 1.389 . S
C458 C457 1.351 . S
C458 H463 0.930 . S
O459 Cu453 1.974 1_554 S
O459 C469 1.282 . S
C460 O461 1.261 . S
C460 O473 1.251 . S
O461 C460 1.261 . S
H462 C456 0.930 . S
H463 C458 0.930 . S
N464 Cu453 1.985 . S
N464 C466 1.335 . S
N464 C467 1.390 . S
N465 C466 1.345 . S
N465 C468 1.336 . S
C466 N464 1.335 . S
C466 N465 1.345 . S
C466 H471 0.930 . S
C467 N464 1.390 . S
C467 C468 1.346 . S
C467 H472 0.930 . S
C468 N465 1.336 . S
C468 C467 1.346 . S
C468 H475 0.929 . S
C469 O459 1.282 . S
C469 O470 1.216 . S
O470 C469 1.216 . S
H471 C466 0.930 . S
H472 C467 0.930 . S
O473 Cu453 1.959 . S
O473 C460 1.251 . S
H474 C457 0.930 . S
H475 C468 0.929 . S
Cu476 N477 1.999 . S
Cu476 O482 1.974 . S
Cu476 N487 1.985 . S
Cu476 O496 1.959 . S
N477 Cu476 1.999 . S
N477 C479 1.263 . S
N477 C481 1.389 . S
N478 C479 1.358 . S
N478 C480 1.400 . S
C479 N477 1.263 . S
C479 N478 1.358 . S
C479 H485 0.930 . S
C480 N478 1.400 . S
C480 C481 1.351 . S
C480 H497 0.930 . S
C481 N477 1.389 . S
C481 C480 1.351 . S
C481 H486 0.930 . S
O482 Cu476 1.974 . S
O482 C492 1.282 . S
C483 O484 1.261 . S
C483 O496 1.251 1_655 S
O484 C483 1.261 . S
H485 C479 0.930 . S
H486 C481 0.930 . S
N487 Cu476 1.985 . S
N487 C489 1.335 1_455 S
N487 C490 1.390 . S
N488 C489 1.345 . S
N488 C491 1.336 . S
C489 N487 1.335 1_655 S
C489 N488 1.345 . S
C489 H494 0.930 . S
C490 N487 1.390 . S
C490 C491 1.346 1_455 S
C490 H495 0.930 . S
C491 N488 1.336 . S
C491 C490 1.346 1_655 S
C491 H498 0.929 . S
C492 O482 1.282 . S
C492 O493 1.216 . S
O493 C492 1.216 . S
H494 C489 0.930 . S
H495 C490 0.930 . S
O496 Cu476 1.959 . S
O496 C483 1.251 1_455 S
H497 C480 0.930 . S
H498 C491 0.929 . S
Cu499 N500 1.999 . S
Cu499 O505 1.974 . S
Cu499 N510 1.982 . S
Cu499 O519 1.959 1_545 S
N500 Cu499 1.999 . S
N500 C502 1.263 . S
N500 C504 1.389 . S
N501 C502 1.358 . S
N501 C503 1.400 . S
C502 N500 1.263 . S
C502 N501 1.358 . S
C502 H508 0.930 . S
C503 N501 1.400 . S
C503 C504 1.351 . S
C503 H520 0.930 . S
C504 N500 1.389 . S
C504 C503 1.351 . S
C504 H509 0.930 . S
O505 Cu499 1.974 . S
O505 C515 1.282 . S
C506 O507 1.261 1_565 S
C506 O519 1.251 . S
O507 C506 1.261 1_545 S
H508 C502 0.930 . S
H509 C504 0.930 . S
N510 Cu499 1.982 . S
N510 C512 1.340 1_545 S
N510 C513 1.389 . S
N511 C512 1.345 . S
N511 C514 1.336 . S
C512 N510 1.340 1_565 S
C512 N511 1.345 . S
C512 H517 0.930 . S
C513 N510 1.389 . S
C513 C514 1.346 1_545 S
C513 H518 0.930 . S
C514 N511 1.336 . S
C514 C513 1.346 1_565 S
C514 H521 0.929 . S
C515 O505 1.282 . S
C515 O516 1.216 . S
O516 C515 1.216 . S
H517 C512 0.930 . S
H518 C513 0.930 . S
O519 Cu499 1.959 1_565 S
O519 C506 1.251 . S
H520 C503 0.930 . S
H521 C514 0.929 . S
Cu522 N523 1.999 . S
Cu522 O528 1.974 . S
Cu522 N533 1.985 1_655 S
Cu522 O542 1.959 1_655 S
N523 Cu522 1.999 . S
N523 C525 1.263 . S
N523 C527 1.389 . S
N524 C525 1.358 . S
N524 C526 1.400 . S
C525 N523 1.263 . S
C525 N524 1.358 . S
C525 H531 0.930 . S
C526 N524 1.400 . S
C526 C527 1.351 . S
C526 H543 0.930 . S
C527 N523 1.389 . S
C527 C526 1.351 . S
C527 H532 0.930 1_655 S
O528 Cu522 1.974 . S
O528 C538 1.282 . S
C529 O530 1.261 . S
C529 O542 1.251 . S
O530 C529 1.261 . S
H531 C525 0.930 . S
H532 C527 0.930 1_455 S
N533 Cu522 1.985 1_455 S
N533 C535 1.335 . S
N533 C536 1.390 . S
N534 C535 1.345 . S
N534 C537 1.336 . S
C535 N533 1.335 . S
C535 N534 1.345 . S
C535 H540 0.930 . S
C536 N533 1.390 . S
C536 C537 1.346 . S
C536 H541 0.930 1_455 S
C537 N534 1.336 . S
C537 C536 1.346 . S
C537 H544 0.929 . S
C538 O528 1.282 . S
C538 O539 1.216 . S
O539 C538 1.216 . S
H540 C535 0.930 . S
H541 C536 0.930 1_655 S
O542 Cu522 1.959 1_455 S
O542 C529 1.251 . S
H543 C526 0.930 . S
H544 C537 0.929 . S
Cu545 N546 2.034 . S
Cu545 O551 2.014 . S
Cu545 N556 1.952 1_545 S
Cu545 O565 1.920 1_545 S
N546 Cu545 2.034 . S
N546 C548 1.263 . S
N546 C550 1.389 . S
N547 C548 1.358 . S
N547 C549 1.400 . S
C548 N546 1.263 . S
C548 N547 1.358 . S
C548 H554 0.930 . S
C549 N547 1.400 . S
C549 C550 1.351 . S
C549 H566 0.930 . S
C550 N546 1.389 . S
C550 C549 1.351 . S
C550 H555 0.930 . S
O551 Cu545 2.014 . S
O551 C561 1.282 . S
C552 O553 1.261 . S
C552 O565 1.251 . S
O553 C552 1.261 . S
H554 C548 0.930 . S
H555 C550 0.930 . S
N556 Cu545 1.952 1_565 S
N556 C558 1.335 . S
N556 C559 1.390 . S
N557 C558 1.345 . S
N557 C560 1.336 . S
C558 N556 1.335 . S
C558 N557 1.345 . S
C558 H563 0.930 . S
C559 N556 1.390 . S
C559 C560 1.346 . S
C559 H564 0.930 . S
C560 N557 1.336 . S
C560 C559 1.346 . S
C560 H567 0.929 . S
C561 O551 1.282 . S
C561 O562 1.216 . S
O562 C561 1.216 . S
H563 C558 0.930 . S
H564 C559 0.930 . S
O565 Cu545 1.920 1_565 S
O565 C552 1.251 . S
H566 C549 0.930 . S
H567 C560 0.929 . S
Cu568 N569 1.999 . S
Cu568 O574 1.974 . S
Cu568 N579 1.985 . S
Cu568 O588 1.959 . S
N569 Cu568 1.999 . S
N569 C571 1.263 . S
N569 C573 1.389 . S
N570 C571 1.358 . S
N570 C572 1.400 . S
C571 N569 1.263 . S
C571 N570 1.358 . S
C571 H577 0.930 . S
C572 N570 1.400 . S
C572 C573 1.351 . S
C572 H589 0.930 . S
C573 N569 1.389 . S
C573 C572 1.351 . S
C573 H578 0.930 . S
O574 Cu568 1.974 . S
O574 C584 1.282 . S
C575 O576 1.261 . S
C575 O588 1.251 1_655 S
O576 C575 1.261 . S
H577 C571 0.930 . S
H578 C573 0.930 . S
N579 Cu568 1.985 . S
N579 C581 1.335 1_455 S
N579 C582 1.390 . S
N580 C581 1.345 . S
N580 C583 1.336 . S
C581 N579 1.335 1_655 S
C581 N580 1.345 . S
C581 H586 0.930 . S
C582 N579 1.390 . S
C582 C583 1.346 1_455 S
C582 H587 0.930 . S
C583 N580 1.336 . S
C583 C582 1.346 1_655 S
C583 H590 0.929 . S
C584 O574 1.282 . S
C584 O585 1.216 . S
O585 C584 1.216 . S
H586 C581 0.930 . S
H587 C582 0.930 . S
O588 Cu568 1.959 . S
O588 C575 1.251 1_455 S
H589 C572 0.930 . S
H590 C583 0.929 . S
Cu591 N592 1.999 . S
Cu591 O597 1.974 . S
Cu591 N602 1.985 . S
Cu591 O611 1.959 . S
N592 Cu591 1.999 . S
N592 C594 1.263 . S
N592 C596 1.389 . S
N593 C594 1.358 . S
N593 C595 1.400 . S
C594 N592 1.263 . S
C594 N593 1.358 . S
C594 H600 0.930 . S
C595 N593 1.400 . S
C595 C596 1.351 . S
C595 H612 0.930 . S
C596 N592 1.389 . S
C596 C595 1.351 . S
C596 H601 0.930 . S
O597 Cu591 1.974 . S
O597 C607 1.282 . S
C598 O599 1.261 . S
C598 O611 1.251 . S
O599 C598 1.261 . S
H600 C594 0.930 . S
H601 C596 0.930 . S
N602 Cu591 1.985 . S
N602 C604 1.335 1_545 S
N602 C605 1.390 . S
N603 C604 1.345 . S
N603 C606 1.336 . S
C604 N602 1.335 1_565 S
C604 N603 1.345 . S
C604 H609 0.930 . S
C605 N602 1.390 . S
C605 C606 1.346 1_545 S
C605 H610 0.930 . S
C606 N603 1.336 . S
C606 C605 1.346 1_565 S
C606 H613 0.929 . S
C607 O597 1.282 . S
C607 O608 1.216 . S
O608 C607 1.216 . S
H609 C604 0.930 . S
H610 C605 0.930 . S
O611 Cu591 1.959 . S
O611 C598 1.251 . S
H612 C595 0.930 . S
H613 C606 0.929 . S
Cu614 N615 1.999 . S
Cu614 O620 1.974 . S
Cu614 N625 1.985 . S
Cu614 O634 1.959 . S
N615 Cu614 1.999 . S
N615 C617 1.263 . S
N615 C619 1.389 . S
N616 C617 1.358 . S
N616 C618 1.400 . S
C617 N615 1.263 . S
C617 N616 1.358 . S
C617 H623 0.930 . S
C618 N616 1.400 . S
C618 C619 1.351 . S
C618 H635 0.930 . S
C619 N615 1.389 . S
C619 C618 1.351 . S
C619 H624 0.930 . S
O620 Cu614 1.974 . S
O620 C630 1.282 . S
C621 O622 1.261 . S
C621 O634 1.251 . S
O622 C621 1.261 . S
H623 C617 0.930 . S
H624 C619 0.930 . S
N625 Cu614 1.985 . S
N625 C627 1.335 . S
N625 C628 1.390 . S
N626 C627 1.345 . S
N626 C629 1.336 . S
C627 N625 1.335 . S
C627 N626 1.345 . S
C627 H632 0.930 . S
C628 N625 1.390 . S
C628 C629 1.346 . S
C628 H633 0.930 . S
C629 N626 1.336 . S
C629 C628 1.346 . S
C629 H636 0.929 . S
C630 O620 1.282 . S
C630 O631 1.216 . S
O631 C630 1.216 . S
H632 C627 0.930 . S
H633 C628 0.930 . S
O634 Cu614 1.959 . S
O634 C621 1.251 . S
H635 C618 0.930 . S
H636 C629 0.929 . S
Cu637 N638 1.999 . S
Cu637 O643 1.974 . S
Cu637 N648 1.985 . S
Cu637 O657 1.959 . S
N638 Cu637 1.999 . S
N638 C640 1.263 . S
N638 C642 1.389 . S
N639 C640 1.358 . S
N639 C641 1.400 . S
C640 N638 1.263 . S
C640 N639 1.358 . S
C640 H646 0.930 . S
C641 N639 1.400 . S
C641 C642 1.351 . S
C641 H658 0.930 . S
C642 N638 1.389 . S
C642 C641 1.351 . S
C642 H647 0.930 . S
O643 Cu637 1.974 . S
O643 C653 1.282 . S
C644 O645 1.261 . S
C644 O657 1.251 . S
O645 C644 1.261 . S
H646 C640 0.930 . S
H647 C642 0.930 . S
N648 Cu637 1.985 . S
N648 C650 1.335 1_545 S
N648 C651 1.390 . S
N649 C650 1.345 . S
N649 C652 1.336 . S
C650 N648 1.335 1_565 S
C650 N649 1.345 . S
C650 H655 0.930 . S
C651 N648 1.390 . S
C651 C652 1.346 1_545 S
C651 H656 0.930 . S
C652 N649 1.336 . S
C652 C651 1.346 1_565 S
C652 H659 0.929 . S
C653 O643 1.282 . S
C653 O654 1.216 . S
O654 C653 1.216 . S
H655 C650 0.930 . S
H656 C651 0.930 . S
O657 Cu637 1.959 . S
O657 C644 1.251 . S
H658 C641 0.930 . S
H659 C652 0.929 . S
Cu660 N661 1.999 . S
Cu660 O666 1.974 . S
Cu660 N671 1.985 . S
Cu660 O680 1.959 . S
N661 Cu660 1.999 . S
N661 C663 1.263 . S
N661 C665 1.389 . S
N662 C663 1.358 . S
N662 C664 1.400 . S
C663 N661 1.263 . S
C663 N662 1.358 . S
C663 H669 0.930 . S
C664 N662 1.400 . S
C664 C665 1.351 . S
C664 H681 0.930 . S
C665 N661 1.389 . S
C665 C664 1.351 . S
C665 H670 0.930 . S
O666 Cu660 1.974 . S
O666 C676 1.282 . S
C667 O668 1.261 . S
C667 O680 1.251 . S
O668 C667 1.261 . S
H669 C663 0.930 . S
H670 C665 0.930 . S
N671 Cu660 1.985 . S
N671 C673 1.335 . S
N671 C674 1.390 . S
N672 C673 1.345 . S
N672 C675 1.336 . S
C673 N671 1.335 . S
C673 N672 1.345 . S
C673 H678 0.930 . S
C674 N671 1.390 . S
C674 C675 1.346 . S
C674 H679 0.930 . S
C675 N672 1.336 . S
C675 C674 1.346 . S
C675 H682 0.929 . S
C676 O666 1.282 . S
C676 O677 1.216 . S
O677 C676 1.216 . S
H678 C673 0.930 . S
H679 C674 0.930 . S
O680 Cu660 1.959 . S
O680 C667 1.251 . S
H681 C664 0.930 . S
H682 C675 0.929 . S
Cu683 N684 1.999 . S
Cu683 O689 1.974 . S
Cu683 N694 1.985 . S
Cu683 O703 1.959 . S
N684 Cu683 1.999 . S
N684 C686 1.263 . S
N684 C688 1.389 . S
N685 C686 1.358 . S
N685 C687 1.400 . S
C686 N684 1.263 . S
C686 N685 1.358 . S
C686 H692 0.930 . S
C687 N685 1.400 . S
C687 C688 1.351 . S
C687 H704 0.930 . S
C688 N684 1.389 . S
C688 C687 1.351 . S
C688 H693 0.930 . S
O689 Cu683 1.974 . S
O689 C699 1.282 . S
C690 O691 1.261 . S
C690 O703 1.251 . S
O691 C690 1.261 . S
H692 C686 0.930 . S
H693 C688 0.930 . S
N694 Cu683 1.985 . S
N694 C696 1.335 . S
N694 C697 1.390 . S
N695 C696 1.345 . S
N695 C698 1.336 . S
C696 N694 1.335 . S
C696 N695 1.345 . S
C696 H701 0.930 . S
C697 N694 1.390 . S
C697 C698 1.346 . S
C697 H702 0.930 . S
C698 N695 1.336 . S
C698 C697 1.346 . S
C698 H705 0.929 . S
C699 O689 1.282 . S
C699 O700 1.216 . S
O700 C699 1.216 . S
H701 C696 0.930 . S
H702 C697 0.930 . S
O703 Cu683 1.959 . S
O703 C690 1.251 . S
H704 C687 0.930 . S
H705 C698 0.929 . S
Cu706 N707 1.999 . S
Cu706 O712 1.974 . S
Cu706 N717 1.985 . S
Cu706 O726 1.959 . S
N707 Cu706 1.999 . S
N707 C709 1.263 . S
N707 C711 1.389 . S
N708 C709 1.358 . S
N708 C710 1.400 . S
C709 N707 1.263 . S
C709 N708 1.358 . S
C709 H715 0.930 . S
C710 N708 1.400 . S
C710 C711 1.351 . S
C710 H727 0.930 . S
C711 N707 1.389 . S
C711 C710 1.351 . S
C711 H716 0.930 . S
O712 Cu706 1.974 . S
O712 C722 1.282 . S
C713 O714 1.261 . S
C713 O726 1.251 . S
O714 C713 1.261 . S
H715 C709 0.930 . S
H716 C711 0.930 . S
N717 Cu706 1.985 . S
N717 C719 1.335 . S
N717 C720 1.390 . S
N718 C719 1.345 . S
N718 C721 1.336 . S
C719 N717 1.335 . S
C719 N718 1.345 . S
C719 H724 0.930 . S
C720 N717 1.390 . S
C720 C721 1.346 . S
C720 H725 0.930 . S
C721 N718 1.336 . S
C721 C720 1.346 . S
C721 H728 0.929 . S
C722 O712 1.282 . S
C722 O723 1.216 . S
O723 C722 1.216 . S
H724 C719 0.930 . S
H725 C720 0.930 . S
O726 Cu706 1.959 . S
O726 C713 1.251 . S
H727 C710 0.930 . S
H728 C721 0.929 . S
Cu729 N730 1.999 . S
Cu729 O735 1.974 . S
Cu729 N740 1.985 . S
Cu729 O749 1.959 . S
N730 Cu729 1.999 . S
N730 C732 1.263 . S
N730 C734 1.389 . S
N731 C732 1.358 . S
N731 C733 1.400 . S
C732 N730 1.263 . S
C732 N731 1.358 . S
C732 H738 0.930 . S
C733 N731 1.400 . S
C733 C734 1.351 . S
C733 H750 0.930 . S
C734 N730 1.389 . S
C734 C733 1.351 . S
C734 H739 0.930 . S
O735 Cu729 1.974 . S
O735 C745 1.282 . S
C736 O737 1.261 . S
C736 O749 1.251 . S
O737 C736 1.261 . S
H738 C732 0.930 . S
H739 C734 0.930 . S
N740 Cu729 1.985 . S
N740 C742 1.335 . S
N740 C743 1.390 . S
N741 C742 1.345 . S
N741 C744 1.336 . S
C742 N740 1.335 . S
C742 N741 1.345 . S
C742 H747 0.930 . S
C743 N740 1.390 . S
C743 C744 1.346 . S
C743 H748 0.930 . S
C744 N741 1.336 . S
C744 C743 1.346 . S
C744 H751 0.929 . S
C745 O735 1.282 . S
C745 O746 1.216 . S
O746 C745 1.216 . S
H747 C742 0.930 . S
H748 C743 0.930 . S
O749 Cu729 1.959 . S
O749 C736 1.251 . S
H750 C733 0.930 . S
H751 C744 0.929 . S
Cu752 N753 1.999 . S
Cu752 O758 1.974 . S
Cu752 N763 1.985 . S
Cu752 O772 1.959 . S
N753 Cu752 1.999 . S
N753 C755 1.263 . S
N753 C757 1.389 . S
N754 C755 1.358 . S
N754 C756 1.400 . S
C755 N753 1.263 . S
C755 N754 1.358 . S
C755 H761 0.930 . S
C756 N754 1.400 . S
C756 C757 1.351 . S
C756 H773 0.930 . S
C757 N753 1.389 . S
C757 C756 1.351 . S
C757 H762 0.930 . S
O758 Cu752 1.974 . S
O758 C768 1.282 . S
C759 O760 1.261 . S
C759 O772 1.251 . S
O760 C759 1.261 . S
H761 C755 0.930 . S
H762 C757 0.930 . S
N763 Cu752 1.985 . S
N763 C765 1.335 . S
N763 C766 1.390 . S
N764 C765 1.345 . S
N764 C767 1.336 . S
C765 N763 1.335 . S
C765 N764 1.345 . S
C765 H770 0.930 . S
C766 N763 1.390 . S
C766 C767 1.346 . S
C766 H771 0.930 . S
C767 N764 1.336 . S
C767 C766 1.346 . S
C767 H774 0.929 . S
C768 O758 1.282 . S
C768 O769 1.216 . S
O769 C768 1.216 . S
H770 C765 0.930 . S
H771 C766 0.930 . S
O772 Cu752 1.959 . S
O772 C759 1.251 . S
H773 C756 0.930 . S
H774 C767 0.929 . S
Cu775 N776 1.999 . S
Cu775 O781 1.974 . S
Cu775 N786 1.985 . S
Cu775 O795 1.959 . S
N776 Cu775 1.999 . S
N776 C778 1.263 . S
N776 C780 1.389 . S
N777 C778 1.358 . S
N777 C779 1.400 . S
C778 N776 1.263 . S
C778 N777 1.358 . S
C778 H784 0.930 . S
C779 N777 1.400 . S
C779 C780 1.351 . S
C779 H796 0.930 . S
C780 N776 1.389 . S
C780 C779 1.351 . S
C780 H785 0.930 . S
O781 Cu775 1.974 . S
O781 C791 1.282 . S
C782 O783 1.261 . S
C782 O795 1.251 . S
O783 C782 1.261 . S
H784 C778 0.930 . S
H785 C780 0.930 . S
N786 Cu775 1.985 . S
N786 C788 1.335 . S
N786 C789 1.390 . S
N787 C788 1.345 . S
N787 C790 1.336 . S
C788 N786 1.335 . S
C788 N787 1.345 . S
C788 H793 0.930 . S
C789 N786 1.390 . S
C789 C790 1.346 . S
C789 H794 0.930 . S
C790 N787 1.336 . S
C790 C789 1.346 . S
C790 H797 0.929 . S
C791 O781 1.282 . S
C791 O792 1.216 . S
O792 C791 1.216 . S
H793 C788 0.930 . S
H794 C789 0.930 . S
O795 Cu775 1.959 . S
O795 C782 1.251 . S
H796 C779 0.930 . S
H797 C790 0.929 . S
Cu798 N799 1.999 . S
Cu798 O804 1.974 . S
Cu798 N809 1.985 . S
Cu798 O818 1.959 . S
N799 Cu798 1.999 . S
N799 C801 1.263 . S
N799 C803 1.389 . S
N800 C801 1.358 . S
N800 C802 1.400 . S
C801 N799 1.263 . S
C801 N800 1.358 . S
C801 H807 0.930 . S
C802 N800 1.400 . S
C802 C803 1.351 . S
C802 H819 0.930 . S
C803 N799 1.389 . S
C803 C802 1.351 . S
C803 H808 0.930 . S
O804 Cu798 1.974 . S
O804 C814 1.282 . S
C805 O806 1.261 . S
C805 O818 1.251 . S
O806 C805 1.261 . S
H807 C801 0.930 . S
H808 C803 0.930 . S
N809 Cu798 1.985 . S
N809 C811 1.335 . S
N809 C812 1.390 . S
N810 C811 1.345 . S
N810 C813 1.336 . S
C811 N809 1.335 . S
C811 N810 1.345 . S
C811 H816 0.930 . S
C812 N809 1.390 . S
C812 C813 1.346 . S
C812 H817 0.930 . S
C813 N810 1.336 . S
C813 C812 1.346 . S
C813 H820 0.929 . S
C814 O804 1.282 . S
C814 O815 1.216 . S
O815 C814 1.216 . S
H816 C811 0.930 . S
H817 C812 0.930 . S
O818 Cu798 1.959 . S
O818 C805 1.251 . S
H819 C802 0.930 . S
H820 C813 0.929 . S
Cu821 N822 1.999 . S
Cu821 O827 1.974 . S
Cu821 N832 1.985 . S
Cu821 O841 1.959 . S
N822 Cu821 1.999 . S
N822 C824 1.263 . S
N822 C826 1.389 . S
N823 C824 1.358 . S
N823 C825 1.400 . S
C824 N822 1.263 . S
C824 N823 1.358 . S
C824 H830 0.930 . S
C825 N823 1.400 . S
C825 C826 1.351 . S
C825 H842 0.930 . S
C826 N822 1.389 . S
C826 C825 1.351 . S
C826 H831 0.930 . S
O827 Cu821 1.974 . S
O827 C837 1.282 . S
C828 O829 1.261 . S
C828 O841 1.251 . S
O829 C828 1.261 . S
H830 C824 0.930 . S
H831 C826 0.930 . S
N832 Cu821 1.985 . S
N832 C834 1.335 . S
N832 C835 1.390 . S
N833 C834 1.345 . S
N833 C836 1.336 . S
C834 N832 1.335 . S
C834 N833 1.345 . S
C834 H839 0.930 . S
C835 N832 1.390 . S
C835 C836 1.346 . S
C835 H840 0.930 . S
C836 N833 1.336 . S
C836 C835 1.346 . S
C836 H843 0.929 . S
C837 O827 1.282 . S
C837 O838 1.216 . S
O838 C837 1.216 . S
H839 C834 0.930 . S
H840 C835 0.930 . S
O841 Cu821 1.959 . S
O841 C828 1.251 . S
H842 C825 0.930 . S
H843 C836 0.929 . S
Cu844 N845 1.999 . S
Cu844 O850 1.974 . S
Cu844 N855 1.985 . S
Cu844 O864 1.959 . S
N845 Cu844 1.999 . S
N845 C847 1.263 . S
N845 C849 1.389 . S
N846 C847 1.358 . S
N846 C848 1.400 . S
C847 N845 1.263 . S
C847 N846 1.358 . S
C847 H853 0.930 . S
C848 N846 1.400 . S
C848 C849 1.351 . S
C848 H865 0.930 . S
C849 N845 1.389 . S
C849 C848 1.351 . S
C849 H854 0.930 . S
O850 Cu844 1.974 . S
O850 C860 1.282 . S
C851 O852 1.261 . S
C851 O864 1.251 . S
O852 C851 1.261 . S
H853 C847 0.930 . S
H854 C849 0.930 . S
N855 Cu844 1.985 . S
N855 C857 1.335 . S
N855 C858 1.390 . S
N856 C857 1.345 . S
N856 C859 1.336 . S
C857 N855 1.335 . S
C857 N856 1.345 . S
C857 H862 0.930 . S
C858 N855 1.390 . S
C858 C859 1.346 . S
C858 H863 0.930 . S
C859 N856 1.336 . S
C859 C858 1.346 . S
C859 H866 0.929 . S
C860 O850 1.282 . S
C860 O861 1.216 . S
O861 C860 1.216 . S
H862 C857 0.930 . S
H863 C858 0.930 . S
O864 Cu844 1.959 . S
O864 C851 1.251 . S
H865 C848 0.930 . S
H866 C859 0.929 . S
Cu867 N868 1.999 . S
Cu867 O873 1.974 . S
Cu867 N878 1.985 . S
Cu867 O887 1.959 . S
N868 Cu867 1.999 . S
N868 C870 1.263 . S
N868 C872 1.389 . S
N869 C870 1.358 . S
N869 C871 1.400 . S
C870 N868 1.263 . S
C870 N869 1.358 . S
C870 H876 0.930 . S
C871 N869 1.400 . S
C871 C872 1.351 . S
C871 H888 0.930 . S
C872 N868 1.389 . S
C872 C871 1.351 . S
C872 H877 0.930 . S
O873 Cu867 1.974 . S
O873 C883 1.282 . S
C874 O875 1.261 . S
C874 O887 1.251 . S
O875 C874 1.261 . S
H876 C870 0.930 . S
H877 C872 0.930 . S
N878 Cu867 1.985 . S
N878 C880 1.335 . S
N878 C881 1.390 . S
N879 C880 1.345 . S
N879 C882 1.336 . S
C880 N878 1.335 . S
C880 N879 1.345 . S
C880 H885 0.930 . S
C881 N878 1.390 . S
C881 C882 1.346 . S
C881 H886 0.930 . S
C882 N879 1.336 . S
C882 C881 1.346 . S
C882 H889 0.929 . S
C883 O873 1.282 . S
C883 O884 1.216 . S
O884 C883 1.216 . S
H885 C880 0.930 . S
H886 C881 0.930 . S
O887 Cu867 1.959 . S
O887 C874 1.251 . S
H888 C871 0.930 . S
H889 C882 0.929 . S
Cu890 N891 1.999 . S
Cu890 O896 1.974 . S
Cu890 N901 1.985 . S
Cu890 O910 1.959 . S
N891 Cu890 1.999 . S
N891 C893 1.263 . S
N891 C895 1.389 . S
N892 C893 1.358 . S
N892 C894 1.400 . S
C893 N891 1.263 . S
C893 N892 1.358 . S
C893 H899 0.930 . S
C894 N892 1.400 . S
C894 C895 1.351 . S
C894 H911 0.930 . S
C895 N891 1.389 . S
C895 C894 1.351 . S
C895 H900 0.930 . S
O896 Cu890 1.974 . S
O896 C906 1.282 . S
C897 O898 1.261 . S
C897 O910 1.251 . S
O898 C897 1.261 . S
H899 C893 0.930 . S
H900 C895 0.930 . S
N901 Cu890 1.985 . S
N901 C903 1.335 . S
N901 C904 1.390 . S
N902 C903 1.345 . S
N902 C905 1.336 . S
C903 N901 1.335 . S
C903 N902 1.345 . S
C903 H908 0.930 . S
C904 N901 1.390 . S
C904 C905 1.346 . S
C904 H909 0.930 . S
C905 N902 1.336 . S
C905 C904 1.346 . S
C905 H912 0.929 . S
C906 O896 1.282 . S
C906 O907 1.216 . S
O907 C906 1.216 . S
H908 C903 0.930 . S
H909 C904 0.930 . S
O910 Cu890 1.959 . S
O910 C897 1.251 . S
H911 C894 0.930 . S
H912 C905 0.929 . S
Cu913 N914 1.999 . S
Cu913 O919 1.974 . S
Cu913 N924 1.985 . S
Cu913 O933 1.959 . S
N914 Cu913 1.999 . S
N914 C916 1.263 . S
N914 C918 1.389 . S
N915 C916 1.358 . S
N915 C917 1.400 . S
C916 N914 1.263 . S
C916 N915 1.358 . S
C916 H922 0.930 . S
C917 N915 1.400 . S
C917 C918 1.351 . S
C917 H934 0.930 . S
C918 N914 1.389 . S
C918 C917 1.351 . S
C918 H923 0.930 . S
O919 Cu913 1.974 . S
O919 C929 1.282 . S
C920 O921 1.261 . S
C920 O933 1.251 . S
O921 C920 1.261 . S
H922 C916 0.930 . S
H923 C918 0.930 . S
N924 Cu913 1.985 . S
N924 C926 1.335 . S
N924 C927 1.390 . S
N925 C926 1.345 . S
N925 C928 1.336 . S
C926 N924 1.335 . S
C926 N925 1.345 . S
C926 H931 0.930 . S
C927 N924 1.390 . S
C927 C928 1.346 . S
C927 H932 0.930 . S
C928 N925 1.336 . S
C928 C927 1.346 . S
C928 H935 0.929 . S
C929 O919 1.282 . S
C929 O930 1.216 . S
O930 C929 1.216 . S
H931 C926 0.930 . S
H932 C927 0.930 . S
O933 Cu913 1.959 . S
O933 C920 1.251 . S
H934 C917 0.930 . S
H935 C928 0.929 . S
C936 C937 1.391 . S
C936 C938 1.394 . S
C936 H952 0.931 . S
C937 C936 1.391 . S
C937 C941 1.376 . S
C938 C936 1.394 . S
C938 C939 1.369 . S
C938 C942 1.531 . S
C939 C938 1.369 . S
C939 C940 1.410 . S
C939 C947 1.503 . S
C940 C939 1.410 . S
C940 C941 1.392 . S
C940 C943 1.511 . S
C941 C937 1.376 . S
C941 C940 1.392 . S
C941 H953 0.929 . S
C942 C938 1.531 . S
C942 H954 0.960 . S
C942 H955 0.962 . S
C942 H956 0.960 . S
C943 C940 1.511 . S
C943 H957 0.961 . S
C943 H958 0.961 . S
C943 H959 0.961 . S
C944 C945 1.370 . S
C944 C946 1.363 . S
C944 H960 0.931 . S
C945 C944 1.370 . S
C945 C949 1.408 . S
C946 C944 1.363 . S
C946 C947 1.370 . S
C946 C950 1.524 . S
C947 C939 1.503 . S
C947 C946 1.370 . S
C947 C948 1.403 . S
C948 C947 1.403 . S
C948 C949 1.404 . S
C948 C951 1.539 . S
C949 C945 1.408 . S
C949 C948 1.404 . S
C949 H961 0.930 . S
C950 C946 1.524 . S
C950 H962 0.956 . S
C950 H963 0.961 . S
C950 H964 0.961 . S
C951 C948 1.539 . S
C951 H965 0.958 . S
C951 H966 0.961 . S
C951 H967 0.960 . S
H952 C936 0.931 . S
H953 C941 0.929 . S
H954 C942 0.960 . S
H955 C942 0.962 . S
H956 C942 0.960 . S
H957 C943 0.961 . S
H958 C943 0.961 . S
H959 C943 0.961 . S
H960 C944 0.931 . S
H961 C949 0.930 . S
H962 C950 0.956 . S
H963 C950 0.961 . S
H964 C950 0.961 . S
H965 C951 0.958 . S
H966 C951 0.961 . S
H967 C951 0.960 . S
C968 C969 1.391 . S
C968 C970 1.394 . S
C968 H984 0.931 . S
C969 C968 1.391 . S
C969 C973 1.376 . S
C970 C968 1.394 . S
C970 C971 1.369 . S
C970 C974 1.531 . S
C971 C970 1.369 . S
C971 C972 1.410 . S
C971 C979 1.503 . S
C972 C971 1.410 . S
C972 C973 1.392 . S
C972 C975 1.511 . S
C973 C969 1.376 . S
C973 C972 1.392 . S
C973 H985 0.929 . S
C974 C970 1.531 . S
C974 H986 0.960 . S
C974 H987 0.962 . S
C974 H988 0.960 . S
C975 C972 1.511 . S
C975 H989 0.961 . S
C975 H990 0.961 . S
C975 H991 0.961 . S
C976 C977 1.370 . S
C976 C978 1.363 . S
C976 H992 0.931 . S
C977 C976 1.370 . S
C977 C981 1.408 . S
C978 C976 1.363 . S
C978 C979 1.370 . S
C978 C982 1.524 . S
C979 C971 1.503 . S
C979 C978 1.370 . S
C979 C980 1.403 . S
C980 C979 1.403 . S
C980 C981 1.404 . S
C980 C983 1.539 . S
C981 C977 1.408 . S
C981 C980 1.404 . S
C981 H993 0.930 . S
C982 C978 1.524 . S
C982 H994 0.956 . S
C982 H995 0.961 . S
C982 H996 0.961 . S
C983 C980 1.539 . S
C983 H997 0.958 . S
C983 H998 0.961 . S
C983 H999 0.960 . S
H984 C968 0.931 . S
H985 C973 0.929 . S
H986 C974 0.960 . S
H987 C974 0.962 . S
H988 C974 0.960 . S
H989 C975 0.961 . S
H990 C975 0.961 . S
H991 C975 0.961 . S
H992 C976 0.931 . S
H993 C981 0.930 . S
H994 C982 0.956 . S
H995 C982 0.961 . S
H996 C982 0.961 . S
H997 C983 0.958 . S
H998 C983 0.961 . S
H999 C983 0.960 . S
C1000 C1001 1.391 . S
C1000 C1002 1.394 . S
C1000 H1016 0.931 . S
C1001 C1000 1.391 . S
C1001 C1005 1.376 . S
C1002 C1000 1.394 . S
C1002 C1003 1.369 . S
C1002 C1006 1.531 . S
C1003 C1002 1.369 . S
C1003 C1004 1.410 . S
C1003 C1011 1.503 . S
C1004 C1003 1.410 . S
C1004 C1005 1.392 . S
C1004 C1007 1.511 . S
C1005 C1001 1.376 . S
C1005 C1004 1.392 . S
C1005 H1017 0.929 . S
C1006 C1002 1.531 . S
C1006 H1018 0.960 . S
C1006 H1019 0.962 . S
C1006 H1020 0.960 . S
C1007 C1004 1.511 . S
C1007 H1021 0.961 . S
C1007 H1022 0.961 . S
C1007 H1023 0.961 . S
C1008 C1009 1.370 . S
C1008 C1010 1.363 . S
C1008 H1024 0.931 . S
C1009 C1008 1.370 . S
C1009 C1013 1.408 . S
C1010 C1008 1.363 . S
C1010 C1011 1.370 . S
C1010 C1014 1.524 . S
C1011 C1003 1.503 . S
C1011 C1010 1.370 . S
C1011 C1012 1.403 . S
C1012 C1011 1.403 . S
C1012 C1013 1.404 . S
C1012 C1015 1.539 . S
C1013 C1009 1.408 . S
C1013 C1012 1.404 . S
C1013 H1025 0.930 . S
C1014 C1010 1.524 . S
C1014 H1026 0.956 . S
C1014 H1027 0.961 . S
C1014 H1028 0.961 . S
C1015 C1012 1.539 . S
C1015 H1029 0.958 . S
C1015 H1030 0.961 . S
C1015 H1031 0.960 . S
H1016 C1000 0.931 . S
H1017 C1005 0.929 . S
H1018 C1006 0.960 . S
H1019 C1006 0.962 . S
H1020 C1006 0.960 . S
H1021 C1007 0.961 . S
H1022 C1007 0.961 . S
H1023 C1007 0.961 . S
H1024 C1008 0.931 . S
H1025 C1013 0.930 . S
H1026 C1014 0.956 . S
H1027 C1014 0.961 . S
H1028 C1014 0.961 . S
H1029 C1015 0.958 . S
H1030 C1015 0.961 . S
H1031 C1015 0.960 . S
C1032 C1033 1.391 . S
C1032 C1034 1.394 . S
C1032 H1048 0.931 . S
C1033 C1032 1.391 . S
C1033 C1037 1.376 . S
C1034 C1032 1.394 . S
C1034 C1035 1.369 . S
C1034 C1038 1.531 . S
C1035 C1034 1.369 . S
C1035 C1036 1.410 . S
C1035 C1043 1.503 . S
C1036 C1035 1.410 . S
C1036 C1037 1.392 . S
C1036 C1039 1.511 . S
C1037 C1033 1.376 . S
C1037 C1036 1.392 . S
C1037 H1049 0.929 . S
C1038 C1034 1.531 . S
C1038 H1050 0.960 . S
C1038 H1051 0.962 . S
C1038 H1052 0.960 . S
C1039 C1036 1.511 . S
C1039 H1053 0.961 . S
C1039 H1054 0.961 . S
C1039 H1055 0.961 . S
C1040 C1041 1.370 . S
C1040 C1042 1.363 . S
C1040 H1056 0.931 . S
C1041 C1040 1.370 . S
C1041 C1045 1.408 . S
C1042 C1040 1.363 . S
C1042 C1043 1.370 . S
C1042 C1046 1.524 . S
C1043 C1035 1.503 . S
C1043 C1042 1.370 . S
C1043 C1044 1.403 . S
C1044 C1043 1.403 . S
C1044 C1045 1.404 . S
C1044 C1047 1.539 . S
C1045 C1041 1.408 . S
C1045 C1044 1.404 . S
C1045 H1057 0.930 . S
C1046 C1042 1.524 . S
C1046 H1058 0.956 . S
C1046 H1059 0.961 . S
C1046 H1060 0.961 . S
C1047 C1044 1.539 . S
C1047 H1061 0.958 . S
C1047 H1062 0.961 . S
C1047 H1063 0.960 . S
H1048 C1032 0.931 . S
H1049 C1037 0.929 . S
H1050 C1038 0.960 . S
H1051 C1038 0.962 . S
H1052 C1038 0.960 . S
H1053 C1039 0.961 . S
H1054 C1039 0.961 . S
H1055 C1039 0.961 . S
H1056 C1040 0.931 . S
H1057 C1045 0.930 . S
H1058 C1046 0.956 . S
H1059 C1046 0.961 . S
H1060 C1046 0.961 . S
H1061 C1047 0.958 . S
H1062 C1047 0.961 . S
H1063 C1047 0.960 . S
C1064 C1065 1.391 . S
C1064 C1066 1.394 . S
C1064 H1080 0.931 . S
C1065 C1064 1.391 . S
C1065 C1069 1.376 . S
C1066 C1064 1.394 . S
C1066 C1067 1.369 . S
C1066 C1070 1.531 . S
C1067 C1066 1.369 . S
C1067 C1068 1.410 . S
C1067 C1075 1.503 . S
C1068 C1067 1.410 . S
C1068 C1069 1.392 . S
C1068 C1071 1.511 . S
C1069 C1065 1.376 . S
C1069 C1068 1.392 . S
C1069 H1081 0.929 . S
C1070 C1066 1.531 . S
C1070 H1082 0.960 . S
C1070 H1083 0.962 . S
C1070 H1084 0.960 . S
C1071 C1068 1.511 . S
C1071 H1085 0.961 . S
C1071 H1086 0.961 . S
C1071 H1087 0.961 . S
C1072 C1073 1.370 . S
C1072 C1074 1.363 . S
C1072 H1088 0.931 . S
C1073 C1072 1.370 . S
C1073 C1077 1.408 . S
C1074 C1072 1.363 . S
C1074 C1075 1.370 . S
C1074 C1078 1.524 . S
C1075 C1067 1.503 . S
C1075 C1074 1.370 . S
C1075 C1076 1.403 . S
C1076 C1075 1.403 . S
C1076 C1077 1.404 . S
C1076 C1079 1.539 . S
C1077 C1073 1.408 . S
C1077 C1076 1.404 . S
C1077 H1089 0.930 . S
C1078 C1074 1.524 . S
C1078 H1090 0.956 . S
C1078 H1091 0.961 . S
C1078 H1092 0.961 . S
C1079 C1076 1.539 . S
C1079 H1093 0.958 . S
C1079 H1094 0.961 . S
C1079 H1095 0.960 . S
H1080 C1064 0.931 . S
H1081 C1069 0.929 . S
H1082 C1070 0.960 . S
H1083 C1070 0.962 . S
H1084 C1070 0.960 . S
H1085 C1071 0.961 . S
H1086 C1071 0.961 . S
H1087 C1071 0.961 . S
H1088 C1072 0.931 . S
H1089 C1077 0.930 . S
H1090 C1078 0.956 . S
H1091 C1078 0.961 . S
H1092 C1078 0.961 . S
H1093 C1079 0.958 . S
H1094 C1079 0.961 . S
H1095 C1079 0.960 . S
C1096 C1097 1.391 . S
C1096 C1098 1.394 . S
C1096 H1112 0.931 . S
C1097 C1096 1.391 . S
C1097 C1101 1.376 . S
C1098 C1096 1.394 . S
C1098 C1099 1.369 . S
C1098 C1102 1.531 . S
C1099 C1098 1.369 . S
C1099 C1100 1.410 . S
C1099 C1107 1.503 . S
C1100 C1099 1.410 . S
C1100 C1101 1.392 . S
C1100 C1103 1.511 . S
C1101 C1097 1.376 . S
C1101 C1100 1.392 . S
C1101 H1113 0.929 . S
C1102 C1098 1.531 . S
C1102 H1114 0.960 . S
C1102 H1115 0.962 . S
C1102 H1116 0.960 . S
C1103 C1100 1.511 . S
C1103 H1117 0.961 . S
C1103 H1118 0.961 . S
C1103 H1119 0.961 . S
C1104 C1105 1.370 . S
C1104 C1106 1.363 . S
C1104 H1120 0.931 . S
C1105 C1104 1.370 . S
C1105 C1109 1.408 . S
C1106 C1104 1.363 . S
C1106 C1107 1.370 . S
C1106 C1110 1.524 . S
C1107 C1099 1.503 . S
C1107 C1106 1.370 . S
C1107 C1108 1.403 . S
C1108 C1107 1.403 . S
C1108 C1109 1.404 . S
C1108 C1111 1.539 . S
C1109 C1105 1.408 . S
C1109 C1108 1.404 . S
C1109 H1121 0.930 . S
C1110 C1106 1.524 . S
C1110 H1122 0.956 . S
C1110 H1123 0.961 . S
C1110 H1124 0.961 . S
C1111 C1108 1.539 . S
C1111 H1125 0.958 . S
C1111 H1126 0.961 . S
C1111 H1127 0.960 . S
H1112 C1096 0.931 . S
H1113 C1101 0.929 . S
H1114 C1102 0.960 . S
H1115 C1102 0.962 . S
H1116 C1102 0.960 . S
H1117 C1103 0.961 . S
H1118 C1103 0.961 . S
H1119 C1103 0.961 . S
H1120 C1104 0.931 . S
H1121 C1109 0.930 . S
H1122 C1110 0.956 . S
H1123 C1110 0.961 . S
H1124 C1110 0.961 . S
H1125 C1111 0.958 . S
H1126 C1111 0.961 . S
H1127 C1111 0.960 . S
C1128 C1129 1.391 . S
C1128 C1130 1.394 . S
C1128 H1144 0.931 . S
C1129 C1128 1.391 . S
C1129 C1133 1.376 . S
C1130 C1128 1.394 . S
C1130 C1131 1.369 . S
C1130 C1134 1.531 . S
C1131 C1130 1.369 . S
C1131 C1132 1.410 . S
C1131 C1139 1.503 . S
C1132 C1131 1.410 . S
C1132 C1133 1.392 . S
C1132 C1135 1.511 . S
C1133 C1129 1.376 . S
C1133 C1132 1.392 . S
C1133 H1145 0.929 . S
C1134 C1130 1.531 . S
C1134 H1146 0.960 . S
C1134 H1147 0.962 . S
C1134 H1148 0.960 . S
C1135 C1132 1.511 . S
C1135 H1149 0.961 . S
C1135 H1150 0.961 . S
C1135 H1151 0.961 . S
C1136 C1137 1.370 . S
C1136 C1138 1.363 . S
C1136 H1152 0.931 . S
C1137 C1136 1.370 . S
C1137 C1141 1.408 . S
C1138 C1136 1.363 . S
C1138 C1139 1.370 . S
C1138 C1142 1.524 . S
C1139 C1131 1.503 . S
C1139 C1138 1.370 . S
C1139 C1140 1.403 . S
C1140 C1139 1.403 . S
C1140 C1141 1.404 . S
C1140 C1143 1.539 . S
C1141 C1137 1.408 . S
C1141 C1140 1.404 . S
C1141 H1153 0.930 . S
C1142 C1138 1.524 . S
C1142 H1154 0.956 . S
C1142 H1155 0.961 . S
C1142 H1156 0.961 . S
C1143 C1140 1.539 . S
C1143 H1157 0.958 . S
C1143 H1158 0.961 . S
C1143 H1159 0.960 . S
H1144 C1128 0.931 . S
H1145 C1133 0.929 . S
H1146 C1134 0.960 . S
H1147 C1134 0.962 . S
H1148 C1134 0.960 . S
H1149 C1135 0.961 . S
H1150 C1135 0.961 . S
H1151 C1135 0.961 . S
H1152 C1136 0.931 . S
H1153 C1141 0.930 . S
H1154 C1142 0.956 . S
H1155 C1142 0.961 . S
H1156 C1142 0.961 . S
H1157 C1143 0.958 . S
H1158 C1143 0.961 . S
H1159 C1143 0.960 . S
C1160 C1161 1.391 . S
C1160 C1162 1.394 . S
C1160 H1176 0.931 . S
C1161 C1160 1.391 . S
C1161 C1165 1.376 . S
C1162 C1160 1.394 . S
C1162 C1163 1.369 . S
C1162 C1166 1.531 . S
C1163 C1162 1.369 . S
C1163 C1164 1.410 . S
C1163 C1171 1.503 . S
C1164 C1163 1.410 . S
C1164 C1165 1.392 . S
C1164 C1167 1.511 . S
C1165 C1161 1.376 . S
C1165 C1164 1.392 . S
C1165 H1177 0.929 . S
C1166 C1162 1.531 . S
C1166 H1178 0.960 . S
C1166 H1179 0.962 . S
C1166 H1180 0.960 . S
C1167 C1164 1.511 . S
C1167 H1181 0.961 . S
C1167 H1182 0.961 . S
C1167 H1183 0.961 . S
C1168 C1169 1.370 . S
C1168 C1170 1.363 . S
C1168 H1184 0.931 . S
C1169 C1168 1.370 . S
C1169 C1173 1.408 . S
C1170 C1168 1.363 . S
C1170 C1171 1.370 . S
C1170 C1174 1.524 . S
C1171 C1163 1.503 . S
C1171 C1170 1.370 . S
C1171 C1172 1.403 . S
C1172 C1171 1.403 . S
C1172 C1173 1.404 . S
C1172 C1175 1.539 . S
C1173 C1169 1.408 . S
C1173 C1172 1.404 . S
C1173 H1185 0.930 . S
C1174 C1170 1.524 . S
C1174 H1186 0.956 . S
C1174 H1187 0.961 . S
C1174 H1188 0.961 . S
C1175 C1172 1.539 . S
C1175 H1189 0.958 . S
C1175 H1190 0.961 . S
C1175 H1191 0.960 . S
H1176 C1160 0.931 . S
H1177 C1165 0.929 . S
H1178 C1166 0.960 . S
H1179 C1166 0.962 . S
H1180 C1166 0.960 . S
H1181 C1167 0.961 . S
H1182 C1167 0.961 . S
H1183 C1167 0.961 . S
H1184 C1168 0.931 . S
H1185 C1173 0.930 . S
H1186 C1174 0.956 . S
H1187 C1174 0.961 . S
H1188 C1174 0.961 . S
H1189 C1175 0.958 . S
H1190 C1175 0.961 . S
H1191 C1175 0.960 . S
C1192 C1193 1.391 . S
C1192 C1194 1.394 . S
C1192 H1208 0.931 . S
C1193 C1192 1.391 . S
C1193 C1197 1.376 . S
C1194 C1192 1.394 . S
C1194 C1195 1.369 . S
C1194 C1198 1.531 . S
C1195 C1194 1.369 . S
C1195 C1196 1.410 . S
C1195 C1203 1.503 . S
C1196 C1195 1.410 . S
C1196 C1197 1.392 . S
C1196 C1199 1.511 . S
C1197 C1193 1.376 . S
C1197 C1196 1.392 . S
C1197 H1209 0.929 . S
C1198 C1194 1.531 . S
C1198 H1210 0.960 . S
C1198 H1211 0.962 . S
C1198 H1212 0.960 . S
C1199 C1196 1.511 . S
C1199 H1213 0.961 . S
C1199 H1214 0.961 . S
C1199 H1215 0.961 . S
C1200 C1201 1.370 . S
C1200 C1202 1.363 . S
C1200 H1216 0.931 . S
C1201 C1200 1.370 . S
C1201 C1205 1.408 . S
C1202 C1200 1.363 . S
C1202 C1203 1.370 . S
C1202 C1206 1.524 . S
C1203 C1195 1.503 . S
C1203 C1202 1.370 . S
C1203 C1204 1.403 . S
C1204 C1203 1.403 . S
C1204 C1205 1.404 . S
C1204 C1207 1.539 . S
C1205 C1201 1.408 . S
C1205 C1204 1.404 . S
C1205 H1217 0.930 . S
C1206 C1202 1.524 . S
C1206 H1218 0.956 . S
C1206 H1219 0.961 . S
C1206 H1220 0.961 . S
C1207 C1204 1.539 . S
C1207 H1221 0.958 . S
C1207 H1222 0.961 . S
C1207 H1223 0.960 . S
H1208 C1192 0.931 . S
H1209 C1197 0.929 . S
H1210 C1198 0.960 . S
H1211 C1198 0.962 . S
H1212 C1198 0.960 . S
H1213 C1199 0.961 . S
H1214 C1199 0.961 . S
H1215 C1199 0.961 . S
H1216 C1200 0.931 . S
H1217 C1205 0.930 . S
H1218 C1206 0.956 . S
H1219 C1206 0.961 . S
H1220 C1206 0.961 . S
H1221 C1207 0.958 . S
H1222 C1207 0.961 . S
H1223 C1207 0.960 . S
C1224 C1225 1.391 . S
C1224 C1226 1.394 . S
C1224 H1240 0.931 . S
C1225 C1224 1.391 . S
C1225 C1229 1.376 . S
C1226 C1224 1.394 . S
C1226 C1227 1.369 . S
C1226 C1230 1.531 . S
C1227 C1226 1.369 . S
C1227 C1228 1.410 . S
C1227 C1235 1.503 . S
C1228 C1227 1.410 . S
C1228 C1229 1.392 . S
C1228 C1231 1.511 . S
C1229 C1225 1.376 . S
C1229 C1228 1.392 . S
C1229 H1241 0.929 . S
C1230 C1226 1.531 . S
C1230 H1242 0.960 . S
C1230 H1243 0.962 . S
C1230 H1244 0.960 . S
C1231 C1228 1.511 . S
C1231 H1245 0.961 . S
C1231 H1246 0.961 . S
C1231 H1247 0.961 . S
C1232 C1233 1.370 . S
C1232 C1234 1.363 . S
C1232 H1248 0.931 . S
C1233 C1232 1.370 . S
C1233 C1237 1.408 . S
C1234 C1232 1.363 . S
C1234 C1235 1.370 . S
C1234 C1238 1.524 . S
C1235 C1227 1.503 . S
C1235 C1234 1.370 . S
C1235 C1236 1.403 . S
C1236 C1235 1.403 . S
C1236 C1237 1.404 . S
C1236 C1239 1.539 . S
C1237 C1233 1.408 . S
C1237 C1236 1.404 . S
C1237 H1249 0.930 . S
C1238 C1234 1.524 . S
C1238 H1250 0.956 . S
C1238 H1251 0.961 . S
C1238 H1252 0.961 . S
C1239 C1236 1.539 . S
C1239 H1253 0.958 . S
C1239 H1254 0.961 . S
C1239 H1255 0.960 . S
H1240 C1224 0.931 . S
H1241 C1229 0.929 . S
H1242 C1230 0.960 . S
H1243 C1230 0.962 . S
H1244 C1230 0.960 . S
H1245 C1231 0.961 . S
H1246 C1231 0.961 . S
H1247 C1231 0.961 . S
H1248 C1232 0.931 . S
H1249 C1237 0.930 . S
H1250 C1238 0.956 . S
H1251 C1238 0.961 . S
H1252 C1238 0.961 . S
H1253 C1239 0.958 . S
H1254 C1239 0.961 . S
H1255 C1239 0.960 . S
C1256 C1257 1.391 . S
C1256 C1258 1.394 . S
C1256 H1272 0.931 . S
C1257 C1256 1.391 . S
C1257 C1261 1.376 . S
C1258 C1256 1.394 . S
C1258 C1259 1.369 . S
C1258 C1262 1.531 . S
C1259 C1258 1.369 . S
C1259 C1260 1.410 . S
C1259 C1267 1.503 . S
C1260 C1259 1.410 . S
C1260 C1261 1.392 . S
C1260 C1263 1.511 . S
C1261 C1257 1.376 . S
C1261 C1260 1.392 . S
C1261 H1273 0.929 . S
C1262 C1258 1.531 . S
C1262 H1274 0.960 . S
C1262 H1275 0.962 . S
C1262 H1276 0.960 . S
C1263 C1260 1.511 . S
C1263 H1277 0.961 . S
C1263 H1278 0.961 . S
C1263 H1279 0.961 . S
C1264 C1265 1.370 . S
C1264 C1266 1.363 . S
C1264 H1280 0.931 . S
C1265 C1264 1.370 . S
C1265 C1269 1.408 . S
C1266 C1264 1.363 . S
C1266 C1267 1.370 . S
C1266 C1270 1.524 . S
C1267 C1259 1.503 . S
C1267 C1266 1.370 . S
C1267 C1268 1.403 . S
C1268 C1267 1.403 . S
C1268 C1269 1.404 . S
C1268 C1271 1.539 . S
C1269 C1265 1.408 . S
C1269 C1268 1.404 . S
C1269 H1281 0.930 . S
C1270 C1266 1.524 . S
C1270 H1282 0.956 . S
C1270 H1283 0.961 . S
C1270 H1284 0.961 . S
C1271 C1268 1.539 . S
C1271 H1285 0.958 . S
C1271 H1286 0.961 . S
C1271 H1287 0.960 . S
H1272 C1256 0.931 . S
H1273 C1261 0.929 . S
H1274 C1262 0.960 . S
H1275 C1262 0.962 . S
H1276 C1262 0.960 . S
H1277 C1263 0.961 . S
H1278 C1263 0.961 . S
H1279 C1263 0.961 . S
H1280 C1264 0.931 . S
H1281 C1269 0.930 . S
H1282 C1270 0.956 . S
H1283 C1270 0.961 . S
H1284 C1270 0.961 . S
H1285 C1271 0.958 . S
H1286 C1271 0.961 . S
H1287 C1271 0.960 . S
C1288 C1289 1.391 . S
C1288 C1290 1.394 . S
C1288 H1304 0.931 . S
C1289 C1288 1.391 . S
C1289 C1293 1.376 . S
C1290 C1288 1.394 . S
C1290 C1291 1.369 . S
C1290 C1294 1.531 . S
C1291 C1290 1.369 . S
C1291 C1292 1.410 . S
C1291 C1299 1.503 . S
C1292 C1291 1.410 . S
C1292 C1293 1.392 . S
C1292 C1295 1.511 . S
C1293 C1289 1.376 . S
C1293 C1292 1.392 . S
C1293 H1305 0.929 . S
C1294 C1290 1.531 . S
C1294 H1306 0.960 . S
C1294 H1307 0.962 . S
C1294 H1308 0.960 . S
C1295 C1292 1.511 . S
C1295 H1309 0.961 . S
C1295 H1310 0.961 . S
C1295 H1311 0.961 . S
C1296 C1297 1.370 . S
C1296 C1298 1.363 . S
C1296 H1312 0.931 . S
C1297 C1296 1.370 . S
C1297 C1301 1.408 . S
C1298 C1296 1.363 . S
C1298 C1299 1.370 . S
C1298 C1302 1.524 . S
C1299 C1291 1.503 . S
C1299 C1298 1.370 . S
C1299 C1300 1.403 . S
C1300 C1299 1.403 . S
C1300 C1301 1.404 . S
C1300 C1303 1.539 . S
C1301 C1297 1.408 . S
C1301 C1300 1.404 . S
C1301 H1313 0.930 . S
C1302 C1298 1.524 . S
C1302 H1314 0.956 . S
C1302 H1315 0.961 . S
C1302 H1316 0.961 . S
C1303 C1300 1.539 . S
C1303 H1317 0.958 . S
C1303 H1318 0.961 . S
C1303 H1319 0.960 . S
H1304 C1288 0.931 . S
H1305 C1293 0.929 . S
H1306 C1294 0.960 . S
H1307 C1294 0.962 . S
H1308 C1294 0.960 . S
H1309 C1295 0.961 . S
H1310 C1295 0.961 . S
H1311 C1295 0.961 . S
H1312 C1296 0.931 . S
H1313 C1301 0.930 . S
H1314 C1302 0.956 . S
H1315 C1302 0.961 . S
H1316 C1302 0.961 . S
H1317 C1303 0.958 . S
H1318 C1303 0.961 . S
H1319 C1303 0.960 . S
C1320 C1321 1.391 . S
C1320 C1322 1.394 . S
C1320 H1336 0.931 . S
C1321 C1320 1.391 . S
C1321 C1325 1.376 . S
C1322 C1320 1.394 . S
C1322 C1323 1.369 . S
C1322 C1326 1.531 . S
C1323 C1322 1.369 . S
C1323 C1324 1.410 . S
C1323 C1331 1.503 . S
C1324 C1323 1.410 . S
C1324 C1325 1.392 . S
C1324 C1327 1.511 . S
C1325 C1321 1.376 . S
C1325 C1324 1.392 . S
C1325 H1337 0.929 . S
C1326 C1322 1.531 . S
C1326 H1338 0.960 . S
C1326 H1339 0.962 . S
C1326 H1340 0.960 . S
C1327 C1324 1.511 . S
C1327 H1341 0.961 . S
C1327 H1342 0.961 . S
C1327 H1343 0.961 . S
C1328 C1329 1.370 . S
C1328 C1330 1.363 . S
C1328 H1344 0.931 . S
C1329 C1328 1.370 . S
C1329 C1333 1.408 . S
C1330 C1328 1.363 . S
C1330 C1331 1.370 . S
C1330 C1334 1.524 . S
C1331 C1323 1.503 . S
C1331 C1330 1.370 . S
C1331 C1332 1.403 . S
C1332 C1331 1.403 . S
C1332 C1333 1.404 . S
C1332 C1335 1.539 . S
C1333 C1329 1.408 . S
C1333 C1332 1.404 . S
C1333 H1345 0.930 . S
C1334 C1330 1.524 . S
C1334 H1346 0.956 . S
C1334 H1347 0.961 . S
C1334 H1348 0.961 . S
C1335 C1332 1.539 . S
C1335 H1349 0.958 . S
C1335 H1350 0.961 . S
C1335 H1351 0.960 . S
H1336 C1320 0.931 . S
H1337 C1325 0.929 . S
H1338 C1326 0.960 . S
H1339 C1326 0.962 . S
H1340 C1326 0.960 . S
H1341 C1327 0.961 . S
H1342 C1327 0.961 . S
H1343 C1327 0.961 . S
H1344 C1328 0.931 . S
H1345 C1333 0.930 . S
H1346 C1334 0.956 . S
H1347 C1334 0.961 . S
H1348 C1334 0.961 . S
H1349 C1335 0.958 . S
H1350 C1335 0.961 . S
H1351 C1335 0.960 . S
C1352 C1353 1.391 . S
C1352 C1354 1.394 . S
C1352 H1368 0.931 . S
C1353 C1352 1.391 . S
C1353 C1357 1.376 . S
C1354 C1352 1.394 . S
C1354 C1355 1.369 . S
C1354 C1358 1.531 . S
C1355 C1354 1.369 . S
C1355 C1356 1.410 . S
C1355 C1363 1.503 . S
C1356 C1355 1.410 . S
C1356 C1357 1.392 . S
C1356 C1359 1.511 . S
C1357 C1353 1.376 . S
C1357 C1356 1.392 . S
C1357 H1369 0.929 . S
C1358 C1354 1.531 . S
C1358 H1370 0.960 . S
C1358 H1371 0.962 . S
C1358 H1372 0.960 . S
C1359 C1356 1.511 . S
C1359 H1373 0.961 . S
C1359 H1374 0.961 . S
C1359 H1375 0.961 . S
C1360 C1361 1.370 . S
C1360 C1362 1.363 . S
C1360 H1376 0.931 . S
C1361 C1360 1.370 . S
C1361 C1365 1.408 . S
C1362 C1360 1.363 . S
C1362 C1363 1.370 . S
C1362 C1366 1.524 . S
C1363 C1355 1.503 . S
C1363 C1362 1.370 . S
C1363 C1364 1.403 . S
C1364 C1363 1.403 . S
C1364 C1365 1.404 . S
C1364 C1367 1.539 . S
C1365 C1361 1.408 . S
C1365 C1364 1.404 . S
C1365 H1377 0.930 . S
C1366 C1362 1.524 . S
C1366 H1378 0.956 . S
C1366 H1379 0.961 . S
C1366 H1380 0.961 . S
C1367 C1364 1.539 . S
C1367 H1381 0.958 . S
C1367 H1382 0.961 . S
C1367 H1383 0.960 . S
H1368 C1352 0.931 . S
H1369 C1357 0.929 . S
H1370 C1358 0.960 . S
H1371 C1358 0.962 . S
H1372 C1358 0.960 . S
H1373 C1359 0.961 . S
H1374 C1359 0.961 . S
H1375 C1359 0.961 . S
H1376 C1360 0.931 . S
H1377 C1365 0.930 . S
H1378 C1366 0.956 . S
H1379 C1366 0.961 . S
H1380 C1366 0.961 . S
H1381 C1367 0.958 . S
H1382 C1367 0.961 . S
H1383 C1367 0.960 . S
C1384 C1385 1.391 . S
C1384 C1386 1.394 . S
C1384 H1400 0.931 . S
C1385 C1384 1.391 . S
C1385 C1389 1.376 . S
C1386 C1384 1.394 . S
C1386 C1387 1.369 . S
C1386 C1390 1.531 . S
C1387 C1386 1.369 . S
C1387 C1388 1.410 . S
C1387 C1395 1.503 . S
C1388 C1387 1.410 . S
C1388 C1389 1.392 . S
C1388 C1391 1.511 . S
C1389 C1385 1.376 . S
C1389 C1388 1.392 . S
C1389 H1401 0.929 . S
C1390 C1386 1.531 . S
C1390 H1402 0.960 . S
C1390 H1403 0.962 . S
C1390 H1404 0.960 . S
C1391 C1388 1.511 . S
C1391 H1405 0.961 . S
C1391 H1406 0.961 . S
C1391 H1407 0.961 . S
C1392 C1393 1.370 . S
C1392 C1394 1.363 . S
C1392 H1408 0.931 . S
C1393 C1392 1.370 . S
C1393 C1397 1.408 . S
C1394 C1392 1.363 . S
C1394 C1395 1.370 . S
C1394 C1398 1.524 . S
C1395 C1387 1.503 . S
C1395 C1394 1.370 . S
C1395 C1396 1.403 . S
C1396 C1395 1.403 . S
C1396 C1397 1.404 . S
C1396 C1399 1.539 . S
C1397 C1393 1.408 . S
C1397 C1396 1.404 . S
C1397 H1409 0.930 . S
C1398 C1394 1.524 . S
C1398 H1410 0.956 . S
C1398 H1411 0.961 . S
C1398 H1412 0.961 . S
C1399 C1396 1.539 . S
C1399 H1413 0.958 . S
C1399 H1414 0.961 . S
C1399 H1415 0.960 . S
H1400 C1384 0.931 . S
H1401 C1389 0.929 . S
H1402 C1390 0.960 . S
H1403 C1390 0.962 . S
H1404 C1390 0.960 . S
H1405 C1391 0.961 . S
H1406 C1391 0.961 . S
H1407 C1391 0.961 . S
H1408 C1392 0.931 . S
H1409 C1397 0.930 . S
H1410 C1398 0.956 . S
H1411 C1398 0.961 . S
H1412 C1398 0.961 . S
H1413 C1399 0.958 . S
H1414 C1399 0.961 . S
H1415 C1399 0.960 . S
C1416 C1417 1.391 . S
C1416 C1418 1.394 . S
C1416 H1432 0.931 . S
C1417 C1416 1.391 . S
C1417 C1421 1.376 . S
C1418 C1416 1.394 . S
C1418 C1419 1.369 . S
C1418 C1422 1.531 . S
C1419 C1418 1.369 . S
C1419 C1420 1.410 . S
C1419 C1427 1.503 . S
C1420 C1419 1.410 . S
C1420 C1421 1.392 . S
C1420 C1423 1.511 . S
C1421 C1417 1.376 . S
C1421 C1420 1.392 . S
C1421 H1433 0.929 . S
C1422 C1418 1.531 . S
C1422 H1434 0.960 . S
C1422 H1435 0.962 . S
C1422 H1436 0.960 . S
C1423 C1420 1.511 . S
C1423 H1437 0.961 . S
C1423 H1438 0.961 . S
C1423 H1439 0.961 . S
C1424 C1425 1.346 1_565 S
C1424 C1426 1.363 . S
C1424 H1440 0.931 . S
C1425 C1424 1.346 1_545 S
C1425 C1429 1.415 . S
C1426 C1424 1.363 . S
C1426 C1427 1.370 . S
C1426 C1430 1.524 . S
C1427 C1419 1.503 . S
C1427 C1426 1.370 . S
C1427 C1428 1.403 . S
C1428 C1427 1.403 . S
C1428 C1429 1.404 1_565 S
C1428 C1431 1.539 1_565 S
C1429 C1425 1.415 . S
C1429 C1428 1.404 1_545 S
C1429 H1441 0.930 . S
C1430 C1426 1.524 . S
C1430 H1442 0.956 . S
C1430 H1443 0.961 . S
C1430 H1444 0.961 . S
C1431 C1428 1.539 1_545 S
C1431 H1445 0.958 . S
C1431 H1446 0.961 . S
C1431 H1447 0.960 . S
H1432 C1416 0.931 . S
H1433 C1421 0.929 . S
H1434 C1422 0.960 . S
H1435 C1422 0.962 . S
H1436 C1422 0.960 . S
H1437 C1423 0.961 . S
H1438 C1423 0.961 . S
H1439 C1423 0.961 . S
H1440 C1424 0.931 . S
H1441 C1429 0.930 . S
H1442 C1430 0.956 . S
H1443 C1430 0.961 . S
H1444 C1430 0.961 . S
H1445 C1431 0.958 . S
H1446 C1431 0.961 . S
H1447 C1431 0.960 . S
C1448 C1449 1.391 . S
C1448 C1450 1.394 . S
C1448 H1464 0.931 . S
C1449 C1448 1.391 . S
C1449 C1453 1.376 . S
C1450 C1448 1.394 . S
C1450 C1451 1.369 . S
C1450 C1454 1.531 . S
C1451 C1450 1.369 . S
C1451 C1452 1.410 . S
C1451 C1459 1.503 . S
C1452 C1451 1.410 . S
C1452 C1453 1.392 . S
C1452 C1455 1.511 . S
C1453 C1449 1.376 . S
C1453 C1452 1.392 . S
C1453 H1465 0.929 . S
C1454 C1450 1.531 . S
C1454 H1466 0.960 . S
C1454 H1467 0.962 . S
C1454 H1468 0.960 . S
C1455 C1452 1.511 . S
C1455 H1469 0.961 . S
C1455 H1470 0.961 . S
C1455 H1471 0.961 . S
C1456 C1457 1.370 . S
C1456 C1458 1.363 . S
C1456 H1472 0.931 . S
C1457 C1456 1.370 . S
C1457 C1461 1.408 . S
C1458 C1456 1.363 . S
C1458 C1459 1.370 . S
C1458 C1462 1.524 . S
C1459 C1451 1.503 . S
C1459 C1458 1.370 . S
C1459 C1460 1.403 . S
C1460 C1459 1.403 . S
C1460 C1461 1.404 . S
C1460 C1463 1.539 . S
C1461 C1457 1.408 . S
C1461 C1460 1.404 . S
C1461 H1473 0.930 . S
C1462 C1458 1.524 . S
C1462 H1474 0.956 . S
C1462 H1475 0.961 . S
C1462 H1476 0.961 . S
C1463 C1460 1.539 . S
C1463 H1477 0.958 . S
C1463 H1478 0.961 . S
C1463 H1479 0.960 . S
H1464 C1448 0.931 . S
H1465 C1453 0.929 . S
H1466 C1454 0.960 . S
H1467 C1454 0.962 . S
H1468 C1454 0.960 . S
H1469 C1455 0.961 . S
H1470 C1455 0.961 . S
H1471 C1455 0.961 . S
H1472 C1456 0.931 . S
H1473 C1461 0.930 . S
H1474 C1462 0.956 . S
H1475 C1462 0.961 . S
H1476 C1462 0.961 . S
H1477 C1463 0.958 . S
H1478 C1463 0.961 . S
H1479 C1463 0.960 . S
C1480 C1481 1.391 . S
C1480 C1482 1.394 . S
C1480 H1496 0.931 . S
C1481 C1480 1.391 . S
C1481 C1485 1.376 . S
C1482 C1480 1.394 . S
C1482 C1483 1.369 . S
C1482 C1486 1.531 . S
C1483 C1482 1.369 . S
C1483 C1484 1.410 . S
C1483 C1491 1.503 . S
C1484 C1483 1.410 . S
C1484 C1485 1.392 . S
C1484 C1487 1.511 . S
C1485 C1481 1.376 . S
C1485 C1484 1.392 . S
C1485 H1497 0.929 . S
C1486 C1482 1.531 . S
C1486 H1498 0.960 . S
C1486 H1499 0.962 . S
C1486 H1500 0.960 . S
C1487 C1484 1.511 . S
C1487 H1501 0.961 . S
C1487 H1502 0.961 . S
C1487 H1503 0.961 . S
C1488 C1489 1.370 . S
C1488 C1490 1.363 . S
C1488 H1504 0.931 . S
C1489 C1488 1.370 . S
C1489 C1493 1.408 . S
C1490 C1488 1.363 . S
C1490 C1491 1.370 . S
C1490 C1494 1.524 . S
C1491 C1483 1.503 . S
C1491 C1490 1.370 . S
C1491 C1492 1.403 . S
C1492 C1491 1.403 . S
C1492 C1493 1.404 . S
C1492 C1495 1.539 . S
C1493 C1489 1.408 . S
C1493 C1492 1.404 . S
C1493 H1505 0.930 . S
C1494 C1490 1.524 . S
C1494 H1506 0.956 . S
C1494 H1507 0.961 . S
C1494 H1508 0.961 . S
C1495 C1492 1.539 . S
C1495 H1509 0.958 . S
C1495 H1510 0.961 . S
C1495 H1511 0.960 . S
H1496 C1480 0.931 . S
H1497 C1485 0.929 . S
H1498 C1486 0.960 . S
H1499 C1486 0.962 . S
H1500 C1486 0.960 . S
H1501 C1487 0.961 . S
H1502 C1487 0.961 . S
H1503 C1487 0.961 . S
H1504 C1488 0.931 . S
H1505 C1493 0.930 . S
H1506 C1494 0.956 . S
H1507 C1494 0.961 . S
H1508 C1494 0.961 . S
H1509 C1495 0.958 . S
H1510 C1495 0.961 . S
H1511 C1495 0.960 . S
C1512 C1513 1.391 . S
C1512 C1514 1.394 . S
C1512 H1528 0.931 . S
C1513 C1512 1.391 . S
C1513 C1517 1.376 . S
C1514 C1512 1.394 . S
C1514 C1515 1.369 . S
C1514 C1518 1.531 . S
C1515 C1514 1.369 . S
C1515 C1516 1.410 . S
C1515 C1523 1.503 . S
C1516 C1515 1.410 . S
C1516 C1517 1.392 . S
C1516 C1519 1.511 . S
C1517 C1513 1.376 . S
C1517 C1516 1.392 . S
C1517 H1529 0.929 . S
C1518 C1514 1.531 . S
C1518 H1530 0.960 . S
C1518 H1531 0.962 . S
C1518 H1532 0.960 . S
C1519 C1516 1.511 . S
C1519 H1533 0.961 . S
C1519 H1534 0.961 . S
C1519 H1535 0.961 . S
C1520 C1521 1.370 . S
C1520 C1522 1.363 . S
C1520 H1536 0.931 . S
C1521 C1520 1.370 . S
C1521 C1525 1.408 . S
C1522 C1520 1.363 . S
C1522 C1523 1.370 . S
C1522 C1526 1.524 . S
C1523 C1515 1.503 . S
C1523 C1522 1.370 . S
C1523 C1524 1.403 . S
C1524 C1523 1.403 . S
C1524 C1525 1.404 . S
C1524 C1527 1.539 . S
C1525 C1521 1.408 . S
C1525 C1524 1.404 . S
C1525 H1537 0.930 . S
C1526 C1522 1.524 . S
C1526 H1538 0.956 . S
C1526 H1539 0.961 . S
C1526 H1540 0.961 . S
C1527 C1524 1.539 . S
C1527 H1541 0.958 . S
C1527 H1542 0.961 . S
C1527 H1543 0.960 . S
H1528 C1512 0.931 . S
H1529 C1517 0.929 . S
H1530 C1518 0.960 . S
H1531 C1518 0.962 . S
H1532 C1518 0.960 . S
H1533 C1519 0.961 . S
H1534 C1519 0.961 . S
H1535 C1519 0.961 . S
H1536 C1520 0.931 . S
H1537 C1525 0.930 . S
H1538 C1526 0.956 . S
H1539 C1526 0.961 . S
H1540 C1526 0.961 . S
H1541 C1527 0.958 . S
H1542 C1527 0.961 . S
H1543 C1527 0.960 . S
C1544 C1545 1.391 . S
C1544 C1546 1.394 . S
C1544 H1560 0.931 . S
C1545 C1544 1.391 . S
C1545 C1549 1.376 . S
C1546 C1544 1.394 . S
C1546 C1547 1.369 . S
C1546 C1550 1.531 . S
C1547 C1546 1.369 . S
C1547 C1548 1.410 . S
C1547 C1555 1.503 . S
C1548 C1547 1.410 . S
C1548 C1549 1.392 . S
C1548 C1551 1.511 . S
C1549 C1545 1.376 . S
C1549 C1548 1.392 . S
C1549 H1561 0.929 . S
C1550 C1546 1.531 . S
C1550 H1562 0.960 . S
C1550 H1563 0.962 . S
C1550 H1564 0.960 . S
C1551 C1548 1.511 . S
C1551 H1565 0.961 . S
C1551 H1566 0.961 . S
C1551 H1567 0.961 . S
C1552 C1553 1.370 . S
C1552 C1554 1.363 . S
C1552 H1568 0.931 . S
C1553 C1552 1.370 . S
C1553 C1557 1.408 . S
C1554 C1552 1.363 . S
C1554 C1555 1.370 . S
C1554 C1558 1.524 . S
C1555 C1547 1.503 . S
C1555 C1554 1.370 . S
C1555 C1556 1.403 . S
C1556 C1555 1.403 . S
C1556 C1557 1.404 . S
C1556 C1559 1.539 . S
C1557 C1553 1.408 . S
C1557 C1556 1.404 . S
C1557 H1569 0.930 . S
C1558 C1554 1.524 . S
C1558 H1570 0.956 . S
C1558 H1571 0.961 . S
C1558 H1572 0.961 . S
C1559 C1556 1.539 . S
C1559 H1573 0.958 . S
C1559 H1574 0.961 . S
C1559 H1575 0.960 . S
H1560 C1544 0.931 . S
H1561 C1549 0.929 . S
H1562 C1550 0.960 . S
H1563 C1550 0.962 . S
H1564 C1550 0.960 . S
H1565 C1551 0.961 . S
H1566 C1551 0.961 . S
H1567 C1551 0.961 . S
H1568 C1552 0.931 . S
H1569 C1557 0.930 . S
H1570 C1558 0.956 . S
H1571 C1558 0.961 . S
H1572 C1558 0.961 . S
H1573 C1559 0.958 . S
H1574 C1559 0.961 . S
H1575 C1559 0.960 . S
C1576 C1577 1.391 . S
C1576 C1578 1.394 . S
C1576 H1592 0.931 . S
C1577 C1576 1.391 . S
C1577 C1581 1.376 . S
C1578 C1576 1.394 . S
C1578 C1579 1.369 . S
C1578 C1582 1.531 . S
C1579 C1578 1.369 . S
C1579 C1580 1.410 . S
C1579 C1587 1.503 . S
C1580 C1579 1.410 . S
C1580 C1581 1.392 . S
C1580 C1583 1.511 . S
C1581 C1577 1.376 . S
C1581 C1580 1.392 . S
C1581 H1593 0.929 . S
C1582 C1578 1.531 . S
C1582 H1594 0.960 . S
C1582 H1595 0.962 . S
C1582 H1596 0.960 . S
C1583 C1580 1.511 . S
C1583 H1597 0.961 . S
C1583 H1598 0.961 . S
C1583 H1599 0.961 . S
C1584 C1585 1.370 . S
C1584 C1586 1.363 . S
C1584 H1600 0.931 . S
C1585 C1584 1.370 . S
C1585 C1589 1.408 . S
C1586 C1584 1.363 . S
C1586 C1587 1.370 . S
C1586 C1590 1.524 . S
C1587 C1579 1.503 . S
C1587 C1586 1.370 . S
C1587 C1588 1.403 . S
C1588 C1587 1.403 . S
C1588 C1589 1.404 . S
C1588 C1591 1.539 . S
C1589 C1585 1.408 . S
C1589 C1588 1.404 . S
C1589 H1601 0.930 . S
C1590 C1586 1.524 . S
C1590 H1602 0.956 . S
C1590 H1603 0.961 . S
C1590 H1604 0.961 . S
C1591 C1588 1.539 . S
C1591 H1605 0.958 . S
C1591 H1606 0.961 . S
C1591 H1607 0.960 . S
H1592 C1576 0.931 . S
H1593 C1581 0.929 . S
H1594 C1582 0.960 . S
H1595 C1582 0.962 . S
H1596 C1582 0.960 . S
H1597 C1583 0.961 . S
H1598 C1583 0.961 . S
H1599 C1583 0.961 . S
H1600 C1584 0.931 . S
H1601 C1589 0.930 . S
H1602 C1590 0.956 . S
H1603 C1590 0.961 . S
H1604 C1590 0.961 . S
H1605 C1591 0.958 . S
H1606 C1591 0.961 . S
H1607 C1591 0.960 . S
C1608 C1609 1.391 . S
C1608 C1610 1.394 . S
C1608 H1624 0.931 . S
C1609 C1608 1.391 . S
C1609 C1613 1.376 . S
C1610 C1608 1.394 . S
C1610 C1611 1.369 . S
C1610 C1614 1.531 . S
C1611 C1610 1.369 . S
C1611 C1612 1.410 . S
C1611 C1619 1.503 . S
C1612 C1611 1.410 . S
C1612 C1613 1.392 . S
C1612 C1615 1.511 . S
C1613 C1609 1.376 . S
C1613 C1612 1.392 . S
C1613 H1625 0.929 . S
C1614 C1610 1.531 . S
C1614 H1626 0.960 . S
C1614 H1627 0.962 . S
C1614 H1628 0.960 . S
C1615 C1612 1.511 . S
C1615 H1629 0.961 . S
C1615 H1630 0.961 . S
C1615 H1631 0.961 . S
C1616 C1617 1.370 . S
C1616 C1618 1.363 . S
C1616 H1632 0.931 . S
C1617 C1616 1.370 . S
C1617 C1621 1.408 . S
C1618 C1616 1.363 . S
C1618 C1619 1.370 . S
C1618 C1622 1.524 . S
C1619 C1611 1.503 . S
C1619 C1618 1.370 . S
C1619 C1620 1.403 . S
C1620 C1619 1.403 . S
C1620 C1621 1.404 . S
C1620 C1623 1.539 . S
C1621 C1617 1.408 . S
C1621 C1620 1.404 . S
C1621 H1633 0.930 . S
C1622 C1618 1.524 . S
C1622 H1634 0.956 . S
C1622 H1635 0.961 . S
C1622 H1636 0.961 . S
C1623 C1620 1.539 . S
C1623 H1637 0.958 . S
C1623 H1638 0.961 . S
C1623 H1639 0.960 . S
H1624 C1608 0.931 . S
H1625 C1613 0.929 . S
H1626 C1614 0.960 . S
H1627 C1614 0.962 . S
H1628 C1614 0.960 . S
H1629 C1615 0.961 . S
H1630 C1615 0.961 . S
H1631 C1615 0.961 . S
H1632 C1616 0.931 . S
H1633 C1621 0.930 . S
H1634 C1622 0.956 . S
H1635 C1622 0.961 . S
H1636 C1622 0.961 . S
H1637 C1623 0.958 . S
H1638 C1623 0.961 . S
H1639 C1623 0.960 . S
C1640 C1641 1.391 . S
C1640 C1642 1.394 . S
C1640 H1656 0.931 . S
C1641 C1640 1.391 . S
C1641 C1645 1.376 . S
C1642 C1640 1.394 . S
C1642 C1643 1.369 . S
C1642 C1646 1.531 . S
C1643 C1642 1.369 . S
C1643 C1644 1.410 . S
C1643 C1651 1.503 . S
C1644 C1643 1.410 . S
C1644 C1645 1.392 . S
C1644 C1647 1.511 . S
C1645 C1641 1.376 . S
C1645 C1644 1.392 . S
C1645 H1657 0.929 . S
C1646 C1642 1.531 . S
C1646 H1658 0.960 . S
C1646 H1659 0.962 . S
C1646 H1660 0.960 . S
C1647 C1644 1.511 . S
C1647 H1661 0.961 . S
C1647 H1662 0.961 . S
C1647 H1663 0.961 . S
C1648 C1649 1.370 . S
C1648 C1650 1.363 . S
C1648 H1664 0.931 . S
C1649 C1648 1.370 . S
C1649 C1653 1.408 . S
C1650 C1648 1.363 . S
C1650 C1651 1.370 . S
C1650 C1654 1.524 . S
C1651 C1643 1.503 . S
C1651 C1650 1.370 . S
C1651 C1652 1.403 . S
C1652 C1651 1.403 . S
C1652 C1653 1.404 . S
C1652 C1655 1.539 . S
C1653 C1649 1.408 . S
C1653 C1652 1.404 . S
C1653 H1665 0.930 . S
C1654 C1650 1.524 . S
C1654 H1666 0.956 . S
C1654 H1667 0.961 . S
C1654 H1668 0.961 . S
C1655 C1652 1.539 . S
C1655 H1669 0.958 . S
C1655 H1670 0.961 . S
C1655 H1671 0.960 . S
H1656 C1640 0.931 . S
H1657 C1645 0.929 . S
H1658 C1646 0.960 . S
H1659 C1646 0.962 . S
H1660 C1646 0.960 . S
H1661 C1647 0.961 . S
H1662 C1647 0.961 . S
H1663 C1647 0.961 . S
H1664 C1648 0.931 . S
H1665 C1653 0.930 . S
H1666 C1654 0.956 . S
H1667 C1654 0.961 . S
H1668 C1654 0.961 . S
H1669 C1655 0.958 . S
H1670 C1655 0.961 . S
H1671 C1655 0.960 . S
C1672 C1673 1.391 . S
C1672 C1674 1.394 . S
C1672 H1688 0.931 . S
C1673 C1672 1.391 . S
C1673 C1677 1.376 . S
C1674 C1672 1.394 . S
C1674 C1675 1.369 . S
C1674 C1678 1.531 . S
C1675 C1674 1.369 . S
C1675 C1676 1.410 . S
C1675 C1683 1.503 . S
C1676 C1675 1.410 . S
C1676 C1677 1.392 . S
C1676 C1679 1.511 . S
C1677 C1673 1.376 . S
C1677 C1676 1.392 . S
C1677 H1689 0.929 . S
C1678 C1674 1.531 . S
C1678 H1690 0.960 . S
C1678 H1691 0.962 . S
C1678 H1692 0.960 . S
C1679 C1676 1.511 . S
C1679 H1693 0.961 . S
C1679 H1694 0.961 . S
C1679 H1695 0.961 . S
C1680 C1681 1.370 . S
C1680 C1682 1.363 . S
C1680 H1696 0.931 . S
C1681 C1680 1.370 . S
C1681 C1685 1.408 . S
C1682 C1680 1.363 . S
C1682 C1683 1.370 . S
C1682 C1686 1.524 . S
C1683 C1675 1.503 . S
C1683 C1682 1.370 . S
C1683 C1684 1.403 . S
C1684 C1683 1.403 . S
C1684 C1685 1.404 . S
C1684 C1687 1.539 . S
C1685 C1681 1.408 . S
C1685 C1684 1.404 . S
C1685 H1697 0.930 . S
C1686 C1682 1.524 . S
C1686 H1698 0.956 . S
C1686 H1699 0.961 . S
C1686 H1700 0.961 . S
C1687 C1684 1.539 . S
C1687 H1701 0.958 . S
C1687 H1702 0.961 . S
C1687 H1703 0.960 . S
H1688 C1672 0.931 . S
H1689 C1677 0.929 . S
H1690 C1678 0.960 . S
H1691 C1678 0.962 . S
H1692 C1678 0.960 . S
H1693 C1679 0.961 . S
H1694 C1679 0.961 . S
H1695 C1679 0.961 . S
H1696 C1680 0.931 . S
H1697 C1685 0.930 . S
H1698 C1686 0.956 . S
H1699 C1686 0.961 . S
H1700 C1686 0.961 . S
H1701 C1687 0.958 . S
H1702 C1687 0.961 . S
H1703 C1687 0.960 . S
C1704 C1705 1.391 . S
C1704 C1706 1.394 . S
C1704 H1720 0.931 . S
C1705 C1704 1.391 . S
C1705 C1709 1.376 . S
C1706 C1704 1.394 . S
C1706 C1707 1.369 . S
C1706 C1710 1.531 . S
C1707 C1706 1.369 . S
C1707 C1708 1.410 . S
C1707 C1715 1.503 . S
C1708 C1707 1.410 . S
C1708 C1709 1.392 . S
C1708 C1711 1.511 . S
C1709 C1705 1.376 . S
C1709 C1708 1.392 . S
C1709 H1721 0.929 . S
C1710 C1706 1.531 . S
C1710 H1722 0.960 . S
C1710 H1723 0.962 . S
C1710 H1724 0.960 . S
C1711 C1708 1.511 . S
C1711 H1725 0.961 . S
C1711 H1726 0.961 . S
C1711 H1727 0.961 . S
C1712 C1713 1.370 . S
C1712 C1714 1.363 . S
C1712 H1728 0.931 . S
C1713 C1712 1.370 . S
C1713 C1717 1.408 . S
C1714 C1712 1.363 . S
C1714 C1715 1.370 . S
C1714 C1718 1.524 . S
C1715 C1707 1.503 . S
C1715 C1714 1.370 . S
C1715 C1716 1.403 . S
C1716 C1715 1.403 . S
C1716 C1717 1.404 . S
C1716 C1719 1.539 . S
C1717 C1713 1.408 . S
C1717 C1716 1.404 . S
C1717 H1729 0.930 . S
C1718 C1714 1.524 . S
C1718 H1730 0.956 . S
C1718 H1731 0.961 . S
C1718 H1732 0.961 . S
C1719 C1716 1.539 . S
C1719 H1733 0.958 . S
C1719 H1734 0.961 . S
C1719 H1735 0.960 . S
H1720 C1704 0.931 . S
H1721 C1709 0.929 . S
H1722 C1710 0.960 . S
H1723 C1710 0.962 . S
H1724 C1710 0.960 . S
H1725 C1711 0.961 . S
H1726 C1711 0.961 . S
H1727 C1711 0.961 . S
H1728 C1712 0.931 . S
H1729 C1717 0.930 . S
H1730 C1718 0.956 . S
H1731 C1718 0.961 . S
H1732 C1718 0.961 . S
H1733 C1719 0.958 . S
H1734 C1719 0.961 . S
H1735 C1719 0.960 . S
C1736 C1737 1.391 . S
C1736 C1738 1.394 . S
C1736 H1752 0.931 . S
C1737 C1736 1.391 . S
C1737 C1741 1.376 . S
C1738 C1736 1.394 . S
C1738 C1739 1.369 . S
C1738 C1742 1.531 . S
C1739 C1738 1.369 . S
C1739 C1740 1.410 . S
C1739 C1747 1.503 . S
C1740 C1739 1.410 . S
C1740 C1741 1.392 . S
C1740 C1743 1.511 . S
C1741 C1737 1.376 . S
C1741 C1740 1.392 . S
C1741 H1753 0.929 . S
C1742 C1738 1.531 . S
C1742 H1754 0.960 . S
C1742 H1755 0.962 . S
C1742 H1756 0.960 . S
C1743 C1740 1.511 . S
C1743 H1757 0.961 . S
C1743 H1758 0.961 . S
C1743 H1759 0.961 . S
C1744 C1745 1.370 . S
C1744 C1746 1.363 . S
C1744 H1760 0.931 . S
C1745 C1744 1.370 . S
C1745 C1749 1.408 . S
C1746 C1744 1.363 . S
C1746 C1747 1.370 . S
C1746 C1750 1.524 . S
C1747 C1739 1.503 . S
C1747 C1746 1.370 . S
C1747 C1748 1.403 . S
C1748 C1747 1.403 . S
C1748 C1749 1.404 . S
C1748 C1751 1.539 . S
C1749 C1745 1.408 . S
C1749 C1748 1.404 . S
C1749 H1761 0.930 . S
C1750 C1746 1.524 . S
C1750 H1762 0.956 . S
C1750 H1763 0.961 . S
C1750 H1764 0.961 . S
C1751 C1748 1.539 . S
C1751 H1765 0.958 . S
C1751 H1766 0.961 . S
C1751 H1767 0.960 . S
H1752 C1736 0.931 . S
H1753 C1741 0.929 . S
H1754 C1742 0.960 . S
H1755 C1742 0.962 . S
H1756 C1742 0.960 . S
H1757 C1743 0.961 . S
H1758 C1743 0.961 . S
H1759 C1743 0.961 . S
H1760 C1744 0.931 . S
H1761 C1749 0.930 . S
H1762 C1750 0.956 . S
H1763 C1750 0.961 . S
H1764 C1750 0.961 . S
H1765 C1751 0.958 . S
H1766 C1751 0.961 . S
H1767 C1751 0.960 . S
C1768 C1769 1.391 . S
C1768 C1770 1.394 . S
C1768 H1784 0.931 . S
C1769 C1768 1.391 . S
C1769 C1773 1.376 . S
C1770 C1768 1.394 . S
C1770 C1771 1.369 . S
C1770 C1774 1.531 . S
C1771 C1770 1.369 . S
C1771 C1772 1.410 . S
C1771 C1779 1.503 . S
C1772 C1771 1.410 . S
C1772 C1773 1.392 . S
C1772 C1775 1.511 . S
C1773 C1769 1.376 . S
C1773 C1772 1.392 . S
C1773 H1785 0.929 . S
C1774 C1770 1.531 . S
C1774 H1786 0.960 . S
C1774 H1787 0.962 . S
C1774 H1788 0.960 . S
C1775 C1772 1.511 . S
C1775 H1789 0.961 . S
C1775 H1790 0.961 . S
C1775 H1791 0.961 . S
C1776 C1777 1.370 . S
C1776 C1778 1.363 . S
C1776 H1792 0.931 . S
C1777 C1776 1.370 . S
C1777 C1781 1.408 . S
C1778 C1776 1.363 . S
C1778 C1779 1.370 . S
C1778 C1782 1.524 . S
C1779 C1771 1.503 . S
C1779 C1778 1.370 . S
C1779 C1780 1.403 . S
C1780 C1779 1.403 . S
C1780 C1781 1.404 . S
C1780 C1783 1.539 . S
C1781 C1777 1.408 . S
C1781 C1780 1.404 . S
C1781 H1793 0.930 . S
C1782 C1778 1.524 . S
C1782 H1794 0.956 . S
C1782 H1795 0.961 . S
C1782 H1796 0.961 . S
C1783 C1780 1.539 . S
C1783 H1797 0.958 . S
C1783 H1798 0.961 . S
C1783 H1799 0.960 . S
H1784 C1768 0.931 . S
H1785 C1773 0.929 . S
H1786 C1774 0.960 . S
H1787 C1774 0.962 . S
H1788 C1774 0.960 . S
H1789 C1775 0.961 . S
H1790 C1775 0.961 . S
H1791 C1775 0.961 . S
H1792 C1776 0.931 . S
H1793 C1781 0.930 . S
H1794 C1782 0.956 . S
H1795 C1782 0.961 . S
H1796 C1782 0.961 . S
H1797 C1783 0.958 . S
H1798 C1783 0.961 . S
H1799 C1783 0.960 . S
C1800 C1801 1.391 . S
C1800 C1802 1.394 . S
C1800 H1816 0.931 . S
C1801 C1800 1.391 . S
C1801 C1805 1.376 . S
C1802 C1800 1.394 . S
C1802 C1803 1.369 . S
C1802 C1806 1.531 . S
C1803 C1802 1.369 . S
C1803 C1804 1.410 . S
C1803 C1811 1.503 . S
C1804 C1803 1.410 . S
C1804 C1805 1.392 . S
C1804 C1807 1.511 . S
C1805 C1801 1.376 . S
C1805 C1804 1.392 . S
C1805 H1817 0.929 . S
C1806 C1802 1.531 . S
C1806 H1818 0.960 . S
C1806 H1819 0.962 . S
C1806 H1820 0.960 . S
C1807 C1804 1.511 . S
C1807 H1821 0.961 . S
C1807 H1822 0.961 . S
C1807 H1823 0.961 . S
C1808 C1809 1.370 . S
C1808 C1810 1.363 . S
C1808 H1824 0.931 . S
C1809 C1808 1.370 . S
C1809 C1813 1.408 . S
C1810 C1808 1.363 . S
C1810 C1811 1.370 . S
C1810 C1814 1.524 . S
C1811 C1803 1.503 . S
C1811 C1810 1.370 . S
C1811 C1812 1.403 . S
C1812 C1811 1.403 . S
C1812 C1813 1.404 . S
C1812 C1815 1.539 . S
C1813 C1809 1.408 . S
C1813 C1812 1.404 . S
C1813 H1825 0.930 . S
C1814 C1810 1.524 . S
C1814 H1826 0.956 . S
C1814 H1827 0.961 . S
C1814 H1828 0.961 . S
C1815 C1812 1.539 . S
C1815 H1829 0.958 . S
C1815 H1830 0.961 . S
C1815 H1831 0.960 . S
H1816 C1800 0.931 . S
H1817 C1805 0.929 . S
H1818 C1806 0.960 . S
H1819 C1806 0.962 . S
H1820 C1806 0.960 . S
H1821 C1807 0.961 . S
H1822 C1807 0.961 . S
H1823 C1807 0.961 . S
H1824 C1808 0.931 . S
H1825 C1813 0.930 . S
H1826 C1814 0.956 . S
H1827 C1814 0.961 . S
H1828 C1814 0.961 . S
H1829 C1815 0.958 . S
H1830 C1815 0.961 . S
H1831 C1815 0.960 . S
C1832 C1833 1.391 . S
C1832 C1834 1.394 . S
C1832 H1848 0.931 . S
C1833 C1832 1.391 . S
C1833 C1837 1.376 . S
C1834 C1832 1.394 . S
C1834 C1835 1.369 . S
C1834 C1838 1.531 . S
C1835 C1834 1.369 . S
C1835 C1836 1.410 . S
C1835 C1843 1.503 . S
C1836 C1835 1.410 . S
C1836 C1837 1.392 . S
C1836 C1839 1.511 . S
C1837 C1833 1.376 . S
C1837 C1836 1.392 . S
C1837 H1849 0.929 . S
C1838 C1834 1.531 . S
C1838 H1850 0.960 . S
C1838 H1851 0.962 . S
C1838 H1852 0.960 . S
C1839 C1836 1.511 . S
C1839 H1853 0.961 . S
C1839 H1854 0.961 . S
C1839 H1855 0.961 . S
C1840 C1841 1.370 . S
C1840 C1842 1.363 . S
C1840 H1856 0.931 . S
C1841 C1840 1.370 . S
C1841 C1845 1.408 . S
C1842 C1840 1.363 . S
C1842 C1843 1.370 . S
C1842 C1846 1.524 . S
C1843 C1835 1.503 . S
C1843 C1842 1.370 . S
C1843 C1844 1.403 . S
C1844 C1843 1.403 . S
C1844 C1845 1.404 . S
C1844 C1847 1.539 . S
C1845 C1841 1.408 . S
C1845 C1844 1.404 . S
C1845 H1857 0.930 . S
C1846 C1842 1.524 . S
C1846 H1858 0.956 . S
C1846 H1859 0.961 . S
C1846 H1860 0.961 . S
C1847 C1844 1.539 . S
C1847 H1861 0.958 . S
C1847 H1862 0.961 . S
C1847 H1863 0.960 . S
H1848 C1832 0.931 . S
H1849 C1837 0.929 . S
H1850 C1838 0.960 . S
H1851 C1838 0.962 . S
H1852 C1838 0.960 . S
H1853 C1839 0.961 . S
H1854 C1839 0.961 . S
H1855 C1839 0.961 . S
H1856 C1840 0.931 . S
H1857 C1845 0.930 . S
H1858 C1846 0.956 . S
H1859 C1846 0.961 . S
H1860 C1846 0.961 . S
H1861 C1847 0.958 . S
H1862 C1847 0.961 . S
H1863 C1847 0.960 . S
C1864 C1865 1.391 . S
C1864 C1866 1.394 . S
C1864 H1880 0.931 . S
C1865 C1864 1.391 . S
C1865 C1869 1.376 . S
C1866 C1864 1.394 . S
C1866 C1867 1.369 . S
C1866 C1870 1.531 . S
C1867 C1866 1.369 . S
C1867 C1868 1.410 . S
C1867 C1875 1.503 . S
C1868 C1867 1.410 . S
C1868 C1869 1.392 . S
C1868 C1871 1.511 . S
C1869 C1865 1.376 . S
C1869 C1868 1.392 . S
C1869 H1881 0.929 . S
C1870 C1866 1.531 . S
C1870 H1882 0.960 . S
C1870 H1883 0.962 . S
C1870 H1884 0.960 . S
C1871 C1868 1.511 . S
C1871 H1885 0.961 . S
C1871 H1886 0.961 . S
C1871 H1887 0.961 . S
C1872 C1873 1.370 . S
C1872 C1874 1.363 . S
C1872 H1888 0.931 . S
C1873 C1872 1.370 . S
C1873 C1877 1.408 . S
C1874 C1872 1.363 . S
C1874 C1875 1.370 . S
C1874 C1878 1.524 . S
C1875 C1867 1.503 . S
C1875 C1874 1.370 . S
C1875 C1876 1.403 . S
C1876 C1875 1.403 . S
C1876 C1877 1.404 . S
C1876 C1879 1.539 . S
C1877 C1873 1.408 . S
C1877 C1876 1.404 . S
C1877 H1889 0.930 . S
C1878 C1874 1.524 . S
C1878 H1890 0.956 . S
C1878 H1891 0.961 . S
C1878 H1892 0.961 . S
C1879 C1876 1.539 . S
C1879 H1893 0.958 . S
C1879 H1894 0.961 . S
C1879 H1895 0.960 . S
H1880 C1864 0.931 . S
H1881 C1869 0.929 . S
H1882 C1870 0.960 . S
H1883 C1870 0.962 . S
H1884 C1870 0.960 . S
H1885 C1871 0.961 . S
H1886 C1871 0.961 . S
H1887 C1871 0.961 . S
H1888 C1872 0.931 . S
H1889 C1877 0.930 . S
H1890 C1878 0.956 . S
H1891 C1878 0.961 . S
H1892 C1878 0.961 . S
H1893 C1879 0.958 . S
H1894 C1879 0.961 . S
H1895 C1879 0.960 . S
C1896 C1897 1.391 . S
C1896 C1898 1.394 . S
C1896 H1912 0.931 . S
C1897 C1896 1.391 . S
C1897 C1901 1.376 . S
C1898 C1896 1.394 . S
C1898 C1899 1.369 . S
C1898 C1902 1.531 . S
C1899 C1898 1.369 . S
C1899 C1900 1.410 . S
C1899 C1907 1.503 . S
C1900 C1899 1.410 . S
C1900 C1901 1.392 . S
C1900 C1903 1.511 . S
C1901 C1897 1.376 . S
C1901 C1900 1.392 . S
C1901 H1913 0.929 . S
C1902 C1898 1.531 . S
C1902 H1914 0.960 . S
C1902 H1915 0.962 . S
C1902 H1916 0.960 . S
C1903 C1900 1.511 . S
C1903 H1917 0.961 . S
C1903 H1918 0.961 . S
C1903 H1919 0.961 . S
C1904 C1905 1.370 . S
C1904 C1906 1.363 . S
C1904 H1920 0.931 . S
C1905 C1904 1.370 . S
C1905 C1909 1.408 . S
C1906 C1904 1.363 . S
C1906 C1907 1.370 . S
C1906 C1910 1.524 . S
C1907 C1899 1.503 . S
C1907 C1906 1.370 . S
C1907 C1908 1.403 . S
C1908 C1907 1.403 . S
C1908 C1909 1.404 . S
C1908 C1911 1.539 . S
C1909 C1905 1.408 . S
C1909 C1908 1.404 . S
C1909 H1921 0.930 . S
C1910 C1906 1.524 . S
C1910 H1922 0.956 . S
C1910 H1923 0.961 . S
C1910 H1924 0.961 . S
C1911 C1908 1.539 . S
C1911 H1925 0.958 . S
C1911 H1926 0.961 . S
C1911 H1927 0.960 . S
H1912 C1896 0.931 . S
H1913 C1901 0.929 . S
H1914 C1902 0.960 . S
H1915 C1902 0.962 . S
H1916 C1902 0.960 . S
H1917 C1903 0.961 . S
H1918 C1903 0.961 . S
H1919 C1903 0.961 . S
H1920 C1904 0.931 . S
H1921 C1909 0.930 . S
H1922 C1910 0.956 . S
H1923 C1910 0.961 . S
H1924 C1910 0.961 . S
H1925 C1911 0.958 . S
H1926 C1911 0.961 . S
H1927 C1911 0.960 . S
C1928 C1929 1.391 . S
C1928 C1930 1.394 . S
C1928 H1944 0.931 . S
C1929 C1928 1.391 . S
C1929 C1933 1.376 . S
C1930 C1928 1.394 . S
C1930 C1931 1.369 . S
C1930 C1934 1.531 . S
C1931 C1930 1.369 . S
C1931 C1932 1.410 . S
C1931 C1939 1.503 . S
C1932 C1931 1.410 . S
C1932 C1933 1.392 . S
C1932 C1935 1.511 . S
C1933 C1929 1.376 . S
C1933 C1932 1.392 . S
C1933 H1945 0.929 . S
C1934 C1930 1.531 . S
C1934 H1946 0.960 . S
C1934 H1947 0.962 . S
C1934 H1948 0.960 . S
C1935 C1932 1.511 . S
C1935 H1949 0.961 . S
C1935 H1950 0.961 . S
C1935 H1951 0.961 . S
C1936 C1937 1.370 . S
C1936 C1938 1.363 . S
C1936 H1952 0.931 . S
C1937 C1936 1.370 . S
C1937 C1941 1.408 . S
C1938 C1936 1.363 . S
C1938 C1939 1.370 . S
C1938 C1942 1.524 . S
C1939 C1931 1.503 . S
C1939 C1938 1.370 . S
C1939 C1940 1.403 . S
C1940 C1939 1.403 . S
C1940 C1941 1.404 . S
C1940 C1943 1.539 . S
C1941 C1937 1.408 . S
C1941 C1940 1.404 . S
C1941 H1953 0.930 . S
C1942 C1938 1.524 . S
C1942 H1954 0.956 . S
C1942 H1955 0.961 . S
C1942 H1956 0.961 . S
C1943 C1940 1.539 . S
C1943 H1957 0.958 . S
C1943 H1958 0.961 . S
C1943 H1959 0.960 . S
H1944 C1928 0.931 . S
H1945 C1933 0.929 . S
H1946 C1934 0.960 . S
H1947 C1934 0.962 . S
H1948 C1934 0.960 . S
H1949 C1935 0.961 . S
H1950 C1935 0.961 . S
H1951 C1935 0.961 . S
H1952 C1936 0.931 . S
H1953 C1941 0.930 . S
H1954 C1942 0.956 . S
H1955 C1942 0.961 . S
H1956 C1942 0.961 . S
H1957 C1943 0.958 . S
H1958 C1943 0.961 . S
H1959 C1943 0.960 . S
C1960 C1961 1.391 . S
C1960 C1962 1.394 . S
C1960 H1976 0.931 . S
C1961 C1960 1.391 . S
C1961 C1965 1.376 . S
C1962 C1960 1.394 . S
C1962 C1963 1.369 . S
C1962 C1966 1.531 . S
C1963 C1962 1.369 . S
C1963 C1964 1.410 . S
C1963 C1971 1.503 . S
C1964 C1963 1.410 . S
C1964 C1965 1.392 . S
C1964 C1967 1.511 . S
C1965 C1961 1.376 . S
C1965 C1964 1.392 . S
C1965 H1977 0.929 . S
C1966 C1962 1.531 . S
C1966 H1978 0.960 . S
C1966 H1979 0.962 . S
C1966 H1980 0.960 . S
C1967 C1964 1.511 . S
C1967 H1981 0.961 . S
C1967 H1982 0.961 . S
C1967 H1983 0.961 . S
C1968 C1969 1.370 . S
C1968 C1970 1.363 . S
C1968 H1984 0.931 . S
C1969 C1968 1.370 . S
C1969 C1973 1.408 . S
C1970 C1968 1.363 . S
C1970 C1971 1.370 . S
C1970 C1974 1.524 . S
C1971 C1963 1.503 . S
C1971 C1970 1.370 . S
C1971 C1972 1.403 . S
C1972 C1971 1.403 . S
C1972 C1973 1.404 . S
C1972 C1975 1.539 . S
C1973 C1969 1.408 . S
C1973 C1972 1.404 . S
C1973 H1985 0.930 . S
C1974 C1970 1.524 . S
C1974 H1986 0.956 . S
C1974 H1987 0.961 . S
C1974 H1988 0.961 . S
C1975 C1972 1.539 . S
C1975 H1989 0.958 . S
C1975 H1990 0.961 . S
C1975 H1991 0.960 . S
H1976 C1960 0.931 . S
H1977 C1965 0.929 . S
H1978 C1966 0.960 . S
H1979 C1966 0.962 . S
H1980 C1966 0.960 . S
H1981 C1967 0.961 . S
H1982 C1967 0.961 . S
H1983 C1967 0.961 . S
H1984 C1968 0.931 . S
H1985 C1973 0.930 . S
H1986 C1974 0.956 . S
H1987 C1974 0.961 . S
H1988 C1974 0.961 . S
H1989 C1975 0.958 . S
H1990 C1975 0.961 . S
H1991 C1975 0.960 . S
C1992 C1993 1.391 . S
C1992 C1994 1.394 . S
C1992 H2008 0.931 . S
C1993 C1992 1.391 . S
C1993 C1997 1.376 . S
C1994 C1992 1.394 . S
C1994 C1995 1.369 . S
C1994 C1998 1.531 . S
C1995 C1994 1.369 . S
C1995 C1996 1.410 . S
C1995 C2003 1.503 . S
C1996 C1995 1.410 . S
C1996 C1997 1.392 . S
C1996 C1999 1.511 . S
C1997 C1993 1.376 . S
C1997 C1996 1.392 . S
C1997 H2009 0.929 . S
C1998 C1994 1.531 . S
C1998 H2010 0.960 . S
C1998 H2011 0.962 . S
C1998 H2012 0.960 . S
C1999 C1996 1.511 . S
C1999 H2013 0.961 . S
C1999 H2014 0.961 . S
C1999 H2015 0.961 . S
C2000 C2001 1.370 . S
C2000 C2002 1.363 . S
C2000 H2016 0.931 . S
C2001 C2000 1.370 . S
C2001 C2005 1.408 . S
C2002 C2000 1.363 . S
C2002 C2003 1.370 . S
C2002 C2006 1.524 . S
C2003 C1995 1.503 . S
C2003 C2002 1.370 . S
C2003 C2004 1.403 . S
C2004 C2003 1.403 . S
C2004 C2005 1.404 . S
C2004 C2007 1.539 . S
C2005 C2001 1.408 . S
C2005 C2004 1.404 . S
C2005 H2017 0.930 . S
C2006 C2002 1.524 . S
C2006 H2018 0.956 . S
C2006 H2019 0.961 . S
C2006 H2020 0.961 . S
C2007 C2004 1.539 . S
C2007 H2021 0.958 . S
C2007 H2022 0.961 . S
C2007 H2023 0.960 . S
H2008 C1992 0.931 . S
H2009 C1997 0.929 . S
H2010 C1998 0.960 . S
H2011 C1998 0.962 . S
H2012 C1998 0.960 . S
H2013 C1999 0.961 . S
H2014 C1999 0.961 . S
H2015 C1999 0.961 . S
H2016 C2000 0.931 . S
H2017 C2005 0.930 . S
H2018 C2006 0.956 . S
H2019 C2006 0.961 . S
H2020 C2006 0.961 . S
H2021 C2007 0.958 . S
H2022 C2007 0.961 . S
H2023 C2007 0.960 . S
C2024 C2025 1.391 . S
C2024 C2026 1.394 . S
C2024 H2040 0.931 . S
C2025 C2024 1.391 . S
C2025 C2029 1.376 . S
C2026 C2024 1.394 . S
C2026 C2027 1.369 . S
C2026 C2030 1.531 . S
C2027 C2026 1.369 . S
C2027 C2028 1.410 . S
C2027 C2035 1.503 . S
C2028 C2027 1.410 . S
C2028 C2029 1.392 . S
C2028 C2031 1.511 . S
C2029 C2025 1.376 . S
C2029 C2028 1.392 . S
C2029 H2041 0.929 . S
C2030 C2026 1.531 . S
C2030 H2042 0.960 . S
C2030 H2043 0.962 . S
C2030 H2044 0.960 . S
C2031 C2028 1.511 . S
C2031 H2045 0.961 . S
C2031 H2046 0.961 . S
C2031 H2047 0.961 . S
C2032 C2033 1.370 . S
C2032 C2034 1.363 . S
C2032 H2048 0.931 . S
C2033 C2032 1.370 . S
C2033 C2037 1.408 . S
C2034 C2032 1.363 . S
C2034 C2035 1.370 . S
C2034 C2038 1.524 . S
C2035 C2027 1.503 . S
C2035 C2034 1.370 . S
C2035 C2036 1.403 . S
C2036 C2035 1.403 . S
C2036 C2037 1.404 . S
C2036 C2039 1.539 . S
C2037 C2033 1.408 . S
C2037 C2036 1.404 . S
C2037 H2049 0.930 1_655 S
C2038 C2034 1.524 . S
C2038 H2050 0.956 . S
C2038 H2051 0.961 . S
C2038 H2052 0.961 . S
C2039 C2036 1.539 . S
C2039 H2053 0.958 . S
C2039 H2054 0.961 1_655 S
C2039 H2055 0.960 . S
H2040 C2024 0.931 . S
H2041 C2029 0.929 . S
H2042 C2030 0.960 . S
H2043 C2030 0.962 . S
H2044 C2030 0.960 . S
H2045 C2031 0.961 . S
H2046 C2031 0.961 . S
H2047 C2031 0.961 . S
H2048 C2032 0.931 . S
H2049 C2037 0.930 1_455 S
H2050 C2038 0.956 . S
H2051 C2038 0.961 . S
H2052 C2038 0.961 . S
H2053 C2039 0.958 . S
H2054 C2039 0.961 1_455 S
H2055 C2039 0.960 . S
C2056 C2057 1.391 . S
C2056 C2058 1.394 . S
C2056 H2072 0.931 . S
C2057 C2056 1.391 . S
C2057 C2061 1.376 . S
C2058 C2056 1.394 . S
C2058 C2059 1.369 . S
C2058 C2062 1.531 . S
C2059 C2058 1.369 . S
C2059 C2060 1.410 . S
C2059 C2067 1.503 . S
C2060 C2059 1.410 . S
C2060 C2061 1.392 . S
C2060 C2063 1.511 . S
C2061 C2057 1.376 . S
C2061 C2060 1.392 . S
C2061 H2073 0.929 . S
C2062 C2058 1.531 . S
C2062 H2074 0.960 . S
C2062 H2075 0.962 . S
C2062 H2076 0.960 . S
C2063 C2060 1.511 . S
C2063 H2077 0.961 . S
C2063 H2078 0.961 . S
C2063 H2079 0.961 . S
C2064 C2065 1.370 . S
C2064 C2066 1.363 . S
C2064 H2080 0.931 . S
C2065 C2064 1.370 . S
C2065 C2069 1.408 . S
C2066 C2064 1.363 . S
C2066 C2067 1.370 . S
C2066 C2070 1.524 . S
C2067 C2059 1.503 . S
C2067 C2066 1.370 . S
C2067 C2068 1.403 . S
C2068 C2067 1.403 . S
C2068 C2069 1.404 . S
C2068 C2071 1.539 . S
C2069 C2065 1.408 . S
C2069 C2068 1.404 . S
C2069 H2081 0.930 . S
C2070 C2066 1.524 . S
C2070 H2082 0.956 . S
C2070 H2083 0.961 . S
C2070 H2084 0.961 . S
C2071 C2068 1.539 . S
C2071 H2085 0.958 . S
C2071 H2086 0.961 . S
C2071 H2087 0.960 . S
H2072 C2056 0.931 . S
H2073 C2061 0.929 . S
H2074 C2062 0.960 . S
H2075 C2062 0.962 . S
H2076 C2062 0.960 . S
H2077 C2063 0.961 . S
H2078 C2063 0.961 . S
H2079 C2063 0.961 . S
H2080 C2064 0.931 . S
H2081 C2069 0.930 . S
H2082 C2070 0.956 . S
H2083 C2070 0.961 . S
H2084 C2070 0.961 . S
H2085 C2071 0.958 . S
H2086 C2071 0.961 . S
H2087 C2071 0.960 . S
C2088 C2089 1.391 . S
C2088 C2090 1.394 . S
C2088 H2104 0.931 . S
C2089 C2088 1.391 . S
C2089 C2093 1.376 . S
C2090 C2088 1.394 . S
C2090 C2091 1.369 . S
C2090 C2094 1.531 . S
C2091 C2090 1.369 . S
C2091 C2092 1.410 . S
C2091 C2099 1.503 . S
C2092 C2091 1.410 . S
C2092 C2093 1.392 . S
C2092 C2095 1.511 . S
C2093 C2089 1.376 . S
C2093 C2092 1.392 . S
C2093 H2105 0.929 . S
C2094 C2090 1.531 . S
C2094 H2106 0.960 . S
C2094 H2107 0.962 . S
C2094 H2108 0.960 . S
C2095 C2092 1.511 . S
C2095 H2109 0.961 . S
C2095 H2110 0.961 . S
C2095 H2111 0.961 . S
C2096 C2097 1.370 . S
C2096 C2098 1.363 . S
C2096 H2112 0.931 . S
C2097 C2096 1.370 . S
C2097 C2101 1.408 . S
C2098 C2096 1.363 . S
C2098 C2099 1.370 . S
C2098 C2102 1.524 . S
C2099 C2091 1.503 . S
C2099 C2098 1.370 . S
C2099 C2100 1.403 . S
C2100 C2099 1.403 . S
C2100 C2101 1.404 . S
C2100 C2103 1.539 . S
C2101 C2097 1.408 . S
C2101 C2100 1.404 . S
C2101 H2113 0.930 . S
C2102 C2098 1.524 . S
C2102 H2114 0.956 . S
C2102 H2115 0.961 . S
C2102 H2116 0.961 . S
C2103 C2100 1.539 . S
C2103 H2117 0.958 . S
C2103 H2118 0.961 . S
C2103 H2119 0.960 . S
H2104 C2088 0.931 . S
H2105 C2093 0.929 . S
H2106 C2094 0.960 . S
H2107 C2094 0.962 . S
H2108 C2094 0.960 . S
H2109 C2095 0.961 . S
H2110 C2095 0.961 . S
H2111 C2095 0.961 . S
H2112 C2096 0.931 . S
H2113 C2101 0.930 . S
H2114 C2102 0.956 . S
H2115 C2102 0.961 . S
H2116 C2102 0.961 . S
H2117 C2103 0.958 . S
H2118 C2103 0.961 . S
H2119 C2103 0.960 . S
C2120 C2121 1.391 . S
C2120 C2122 1.394 . S
C2120 H2136 0.931 . S
C2121 C2120 1.391 . S
C2121 C2125 1.376 . S
C2122 C2120 1.394 . S
C2122 C2123 1.369 . S
C2122 C2126 1.531 . S
C2123 C2122 1.369 . S
C2123 C2124 1.410 . S
C2123 C2131 1.503 . S
C2124 C2123 1.410 . S
C2124 C2125 1.392 . S
C2124 C2127 1.511 . S
C2125 C2121 1.376 . S
C2125 C2124 1.392 . S
C2125 H2137 0.929 . S
C2126 C2122 1.531 . S
C2126 H2138 0.960 . S
C2126 H2139 0.962 . S
C2126 H2140 0.960 . S
C2127 C2124 1.511 . S
C2127 H2141 0.961 . S
C2127 H2142 0.961 . S
C2127 H2143 0.961 . S
C2128 C2129 1.370 . S
C2128 C2130 1.363 . S
C2128 H2144 0.931 . S
C2129 C2128 1.370 . S
C2129 C2133 1.408 . S
C2130 C2128 1.363 . S
C2130 C2131 1.370 . S
C2130 C2134 1.524 . S
C2131 C2123 1.503 . S
C2131 C2130 1.370 . S
C2131 C2132 1.403 . S
C2132 C2131 1.403 . S
C2132 C2133 1.404 . S
C2132 C2135 1.539 . S
C2133 C2129 1.408 . S
C2133 C2132 1.404 . S
C2133 H2145 0.930 . S
C2134 C2130 1.524 . S
C2134 H2146 0.956 . S
C2134 H2147 0.961 . S
C2134 H2148 0.961 . S
C2135 C2132 1.539 . S
C2135 H2149 0.958 . S
C2135 H2150 0.961 . S
C2135 H2151 0.960 . S
H2136 C2120 0.931 . S
H2137 C2125 0.929 . S
H2138 C2126 0.960 . S
H2139 C2126 0.962 . S
H2140 C2126 0.960 . S
H2141 C2127 0.961 . S
H2142 C2127 0.961 . S
H2143 C2127 0.961 . S
H2144 C2128 0.931 . S
H2145 C2133 0.930 . S
H2146 C2134 0.956 . S
H2147 C2134 0.961 . S
H2148 C2134 0.961 . S
H2149 C2135 0.958 . S
H2150 C2135 0.961 . S
H2151 C2135 0.960 . S
C2152 C2153 1.391 . S
C2152 C2154 1.394 . S
C2152 H2168 0.931 . S
C2153 C2152 1.391 . S
C2153 C2157 1.376 . S
C2154 C2152 1.394 . S
C2154 C2155 1.369 . S
C2154 C2158 1.531 . S
C2155 C2154 1.369 . S
C2155 C2156 1.410 . S
C2155 C2163 1.503 . S
C2156 C2155 1.410 . S
C2156 C2157 1.392 . S
C2156 C2159 1.511 . S
C2157 C2153 1.376 . S
C2157 C2156 1.392 . S
C2157 H2169 0.929 . S
C2158 C2154 1.531 . S
C2158 H2170 0.960 . S
C2158 H2171 0.962 . S
C2158 H2172 0.960 . S
C2159 C2156 1.511 . S
C2159 H2173 0.961 . S
C2159 H2174 0.961 . S
C2159 H2175 0.961 . S
C2160 C2161 1.370 . S
C2160 C2162 1.363 . S
C2160 H2176 0.931 . S
C2161 C2160 1.370 . S
C2161 C2165 1.408 . S
C2162 C2160 1.363 . S
C2162 C2163 1.370 . S
C2162 C2166 1.524 . S
C2163 C2155 1.503 . S
C2163 C2162 1.370 . S
C2163 C2164 1.403 . S
C2164 C2163 1.403 . S
C2164 C2165 1.404 . S
C2164 C2167 1.539 . S
C2165 C2161 1.408 . S
C2165 C2164 1.404 . S
C2165 H2177 0.930 . S
C2166 C2162 1.524 . S
C2166 H2178 0.956 . S
C2166 H2179 0.961 . S
C2166 H2180 0.961 . S
C2167 C2164 1.539 . S
C2167 H2181 0.958 . S
C2167 H2182 0.961 . S
C2167 H2183 0.960 . S
H2168 C2152 0.931 . S
H2169 C2157 0.929 . S
H2170 C2158 0.960 . S
H2171 C2158 0.962 . S
H2172 C2158 0.960 . S
H2173 C2159 0.961 . S
H2174 C2159 0.961 . S
H2175 C2159 0.961 . S
H2176 C2160 0.931 . S
H2177 C2165 0.930 . S
H2178 C2166 0.956 . S
H2179 C2166 0.961 . S
H2180 C2166 0.961 . S
H2181 C2167 0.958 . S
H2182 C2167 0.961 . S
H2183 C2167 0.960 . S
C2184 C2185 1.391 . S
C2184 C2186 1.394 . S
C2184 H2200 0.931 . S
C2185 C2184 1.391 . S
C2185 C2189 1.376 . S
C2186 C2184 1.394 . S
C2186 C2187 1.369 . S
C2186 C2190 1.531 . S
C2187 C2186 1.369 . S
C2187 C2188 1.410 . S
C2187 C2195 1.503 . S
C2188 C2187 1.410 . S
C2188 C2189 1.392 . S
C2188 C2191 1.511 . S
C2189 C2185 1.376 . S
C2189 C2188 1.392 . S
C2189 H2201 0.929 . S
C2190 C2186 1.531 . S
C2190 H2202 0.960 . S
C2190 H2203 0.962 . S
C2190 H2204 0.960 . S
C2191 C2188 1.511 . S
C2191 H2205 0.961 . S
C2191 H2206 0.961 . S
C2191 H2207 0.961 . S
C2192 C2193 1.370 . S
C2192 C2194 1.363 . S
C2192 H2208 0.931 . S
C2193 C2192 1.370 . S
C2193 C2197 1.408 . S
C2194 C2192 1.363 . S
C2194 C2195 1.370 . S
C2194 C2198 1.524 . S
C2195 C2187 1.503 . S
C2195 C2194 1.370 . S
C2195 C2196 1.403 . S
C2196 C2195 1.403 . S
C2196 C2197 1.404 . S
C2196 C2199 1.539 . S
C2197 C2193 1.408 . S
C2197 C2196 1.404 . S
C2197 H2209 0.930 . S
C2198 C2194 1.524 . S
C2198 H2210 0.956 . S
C2198 H2211 0.961 . S
C2198 H2212 0.961 . S
C2199 C2196 1.539 . S
C2199 H2213 0.958 . S
C2199 H2214 0.961 . S
C2199 H2215 0.960 . S
H2200 C2184 0.931 . S
H2201 C2189 0.929 . S
H2202 C2190 0.960 . S
H2203 C2190 0.962 . S
H2204 C2190 0.960 . S
H2205 C2191 0.961 . S
H2206 C2191 0.961 . S
H2207 C2191 0.961 . S
H2208 C2192 0.931 . S
H2209 C2197 0.930 . S
H2210 C2198 0.956 . S
H2211 C2198 0.961 . S
H2212 C2198 0.961 . S
H2213 C2199 0.958 . S
H2214 C2199 0.961 . S
H2215 C2199 0.960 . S
C2216 C2217 1.391 . S
C2216 C2218 1.394 . S
C2216 H2232 0.931 . S
C2217 C2216 1.391 . S
C2217 C2221 1.376 . S
C2218 C2216 1.394 . S
C2218 C2219 1.369 . S
C2218 C2222 1.531 . S
C2219 C2218 1.369 . S
C2219 C2220 1.410 . S
C2219 C2227 1.503 . S
C2220 C2219 1.410 . S
C2220 C2221 1.392 . S
C2220 C2223 1.511 . S
C2221 C2217 1.376 . S
C2221 C2220 1.392 . S
C2221 H2233 0.929 . S
C2222 C2218 1.531 . S
C2222 H2234 0.960 . S
C2222 H2235 0.962 . S
C2222 H2236 0.960 . S
C2223 C2220 1.511 . S
C2223 H2237 0.961 . S
C2223 H2238 0.961 . S
C2223 H2239 0.961 . S
C2224 C2225 1.370 . S
C2224 C2226 1.363 . S
C2224 H2240 0.931 . S
C2225 C2224 1.370 . S
C2225 C2229 1.408 . S
C2226 C2224 1.363 . S
C2226 C2227 1.370 . S
C2226 C2230 1.524 . S
C2227 C2219 1.503 . S
C2227 C2226 1.370 . S
C2227 C2228 1.403 . S
C2228 C2227 1.403 . S
C2228 C2229 1.404 . S
C2228 C2231 1.539 . S
C2229 C2225 1.408 . S
C2229 C2228 1.404 . S
C2229 H2241 0.930 . S
C2230 C2226 1.524 . S
C2230 H2242 0.956 . S
C2230 H2243 0.961 . S
C2230 H2244 0.961 . S
C2231 C2228 1.539 . S
C2231 H2245 0.958 . S
C2231 H2246 0.961 . S
C2231 H2247 0.960 . S
H2232 C2216 0.931 . S
H2233 C2221 0.929 . S
H2234 C2222 0.960 . S
H2235 C2222 0.962 . S
H2236 C2222 0.960 . S
H2237 C2223 0.961 . S
H2238 C2223 0.961 . S
H2239 C2223 0.961 . S
H2240 C2224 0.931 . S
H2241 C2229 0.930 . S
H2242 C2230 0.956 . S
H2243 C2230 0.961 . S
H2244 C2230 0.961 . S
H2245 C2231 0.958 . S
H2246 C2231 0.961 . S
H2247 C2231 0.960 . S
C2248 C2249 1.391 . S
C2248 C2250 1.394 . S
C2248 H2264 0.931 . S
C2249 C2248 1.391 . S
C2249 C2253 1.376 . S
C2250 C2248 1.394 . S
C2250 C2251 1.369 . S
C2250 C2254 1.531 . S
C2251 C2250 1.369 . S
C2251 C2252 1.410 . S
C2251 C2259 1.503 . S
C2252 C2251 1.410 . S
C2252 C2253 1.392 . S
C2252 C2255 1.511 . S
C2253 C2249 1.376 . S
C2253 C2252 1.392 . S
C2253 H2265 0.929 . S
C2254 C2250 1.531 . S
C2254 H2266 0.960 . S
C2254 H2267 0.962 . S
C2254 H2268 0.960 . S
C2255 C2252 1.511 . S
C2255 H2269 0.961 . S
C2255 H2270 0.961 . S
C2255 H2271 0.961 . S
C2256 C2257 1.370 . S
C2256 C2258 1.363 . S
C2256 H2272 0.931 . S
C2257 C2256 1.370 . S
C2257 C2261 1.408 . S
C2258 C2256 1.363 . S
C2258 C2259 1.370 . S
C2258 C2262 1.524 . S
C2259 C2251 1.503 . S
C2259 C2258 1.370 . S
C2259 C2260 1.403 . S
C2260 C2259 1.403 . S
C2260 C2261 1.404 . S
C2260 C2263 1.539 . S
C2261 C2257 1.408 . S
C2261 C2260 1.404 . S
C2261 H2273 0.930 . S
C2262 C2258 1.524 . S
C2262 H2274 0.956 . S
C2262 H2275 0.961 . S
C2262 H2276 0.961 . S
C2263 C2260 1.539 . S
C2263 H2277 0.958 . S
C2263 H2278 0.961 . S
C2263 H2279 0.960 . S
H2264 C2248 0.931 . S
H2265 C2253 0.929 . S
H2266 C2254 0.960 . S
H2267 C2254 0.962 . S
H2268 C2254 0.960 . S
H2269 C2255 0.961 . S
H2270 C2255 0.961 . S
H2271 C2255 0.961 . S
H2272 C2256 0.931 . S
H2273 C2261 0.930 . S
H2274 C2262 0.956 . S
H2275 C2262 0.961 . S
H2276 C2262 0.961 . S
H2277 C2263 0.958 . S
H2278 C2263 0.961 . S
H2279 C2263 0.960 . S
C2280 C2281 1.391 . S
C2280 C2282 1.394 . S
C2280 H2296 0.931 . S
C2281 C2280 1.391 . S
C2281 C2285 1.376 . S
C2282 C2280 1.394 . S
C2282 C2283 1.369 . S
C2282 C2286 1.531 . S
C2283 C2282 1.369 . S
C2283 C2284 1.410 . S
C2283 C2291 1.503 . S
C2284 C2283 1.410 . S
C2284 C2285 1.392 . S
C2284 C2287 1.511 . S
C2285 C2281 1.376 . S
C2285 C2284 1.392 . S
C2285 H2297 0.929 . S
C2286 C2282 1.531 . S
C2286 H2298 0.960 . S
C2286 H2299 0.962 . S
C2286 H2300 0.960 . S
C2287 C2284 1.511 . S
C2287 H2301 0.961 . S
C2287 H2302 0.961 . S
C2287 H2303 0.961 . S
C2288 C2289 1.370 . S
C2288 C2290 1.363 . S
C2288 H2304 0.931 . S
C2289 C2288 1.370 . S
C2289 C2293 1.408 . S
C2290 C2288 1.363 . S
C2290 C2291 1.370 . S
C2290 C2294 1.524 . S
C2291 C2283 1.503 . S
C2291 C2290 1.370 . S
C2291 C2292 1.403 . S
C2292 C2291 1.403 . S
C2292 C2293 1.404 . S
C2292 C2295 1.539 . S
C2293 C2289 1.408 . S
C2293 C2292 1.404 . S
C2293 H2305 0.930 . S
C2294 C2290 1.524 . S
C2294 H2306 0.956 . S
C2294 H2307 0.961 . S
C2294 H2308 0.961 . S
C2295 C2292 1.539 . S
C2295 H2309 0.958 . S
C2295 H2310 0.961 . S
C2295 H2311 0.960 . S
H2296 C2280 0.931 . S
H2297 C2285 0.929 . S
H2298 C2286 0.960 . S
H2299 C2286 0.962 . S
H2300 C2286 0.960 . S
H2301 C2287 0.961 . S
H2302 C2287 0.961 . S
H2303 C2287 0.961 . S
H2304 C2288 0.931 . S
H2305 C2293 0.930 . S
H2306 C2294 0.956 . S
H2307 C2294 0.961 . S
H2308 C2294 0.961 . S
H2309 C2295 0.958 . S
H2310 C2295 0.961 . S
H2311 C2295 0.960 . S
C2312 C2313 1.391 . S
C2312 C2314 1.394 . S
C2312 H2328 0.931 . S
C2313 C2312 1.391 . S
C2313 C2317 1.376 . S
C2314 C2312 1.394 . S
C2314 C2315 1.369 . S
C2314 C2318 1.531 . S
C2315 C2314 1.369 . S
C2315 C2316 1.410 . S
C2315 C2323 1.503 . S
C2316 C2315 1.410 . S
C2316 C2317 1.392 . S
C2316 C2319 1.511 . S
C2317 C2313 1.376 . S
C2317 C2316 1.392 . S
C2317 H2329 0.929 . S
C2318 C2314 1.531 . S
C2318 H2330 0.960 . S
C2318 H2331 0.962 . S
C2318 H2332 0.960 . S
C2319 C2316 1.511 . S
C2319 H2333 0.961 . S
C2319 H2334 0.961 . S
C2319 H2335 0.961 . S
C2320 C2321 1.370 . S
C2320 C2322 1.363 . S
C2320 H2336 0.931 . S
C2321 C2320 1.370 . S
C2321 C2325 1.408 . S
C2322 C2320 1.363 . S
C2322 C2323 1.370 . S
C2322 C2326 1.524 . S
C2323 C2315 1.503 . S
C2323 C2322 1.370 . S
C2323 C2324 1.403 . S
C2324 C2323 1.403 . S
C2324 C2325 1.404 . S
C2324 C2327 1.539 . S
C2325 C2321 1.408 . S
C2325 C2324 1.404 . S
C2325 H2337 0.930 . S
C2326 C2322 1.524 . S
C2326 H2338 0.956 . S
C2326 H2339 0.961 . S
C2326 H2340 0.961 . S
C2327 C2324 1.539 . S
C2327 H2341 0.958 . S
C2327 H2342 0.961 . S
C2327 H2343 0.960 . S
H2328 C2312 0.931 . S
H2329 C2317 0.929 . S
H2330 C2318 0.960 . S
H2331 C2318 0.962 . S
H2332 C2318 0.960 . S
H2333 C2319 0.961 . S
H2334 C2319 0.961 . S
H2335 C2319 0.961 . S
H2336 C2320 0.931 . S
H2337 C2325 0.930 . S
H2338 C2326 0.956 . S
H2339 C2326 0.961 . S
H2340 C2326 0.961 . S
H2341 C2327 0.958 . S
H2342 C2327 0.961 . S
H2343 C2327 0.960 . S
C2344 C2345 1.391 . S
C2344 C2346 1.394 . S
C2344 H2360 0.931 . S
C2345 C2344 1.391 . S
C2345 C2349 1.376 . S
C2346 C2344 1.394 . S
C2346 C2347 1.369 . S
C2346 C2350 1.531 . S
C2347 C2346 1.369 . S
C2347 C2348 1.410 . S
C2347 C2355 1.503 . S
C2348 C2347 1.410 . S
C2348 C2349 1.392 . S
C2348 C2351 1.511 . S
C2349 C2345 1.376 . S
C2349 C2348 1.392 . S
C2349 H2361 0.929 . S
C2350 C2346 1.531 . S
C2350 H2362 0.960 . S
C2350 H2363 0.962 . S
C2350 H2364 0.960 . S
C2351 C2348 1.511 . S
C2351 H2365 0.961 . S
C2351 H2366 0.961 . S
C2351 H2367 0.961 . S
C2352 C2353 1.370 . S
C2352 C2354 1.363 . S
C2352 H2368 0.931 . S
C2353 C2352 1.370 . S
C2353 C2357 1.408 . S
C2354 C2352 1.363 . S
C2354 C2355 1.370 . S
C2354 C2358 1.524 . S
C2355 C2347 1.503 . S
C2355 C2354 1.370 . S
C2355 C2356 1.403 . S
C2356 C2355 1.403 . S
C2356 C2357 1.404 . S
C2356 C2359 1.539 . S
C2357 C2353 1.408 . S
C2357 C2356 1.404 . S
C2357 H2369 0.930 . S
C2358 C2354 1.524 . S
C2358 H2370 0.956 . S
C2358 H2371 0.961 . S
C2358 H2372 0.961 . S
C2359 C2356 1.539 . S
C2359 H2373 0.958 . S
C2359 H2374 0.961 . S
C2359 H2375 0.960 . S
H2360 C2344 0.931 . S
H2361 C2349 0.929 . S
H2362 C2350 0.960 . S
H2363 C2350 0.962 . S
H2364 C2350 0.960 . S
H2365 C2351 0.961 . S
H2366 C2351 0.961 . S
H2367 C2351 0.961 . S
H2368 C2352 0.931 . S
H2369 C2357 0.930 . S
H2370 C2358 0.956 . S
H2371 C2358 0.961 . S
H2372 C2358 0.961 . S
H2373 C2359 0.958 . S
H2374 C2359 0.961 . S
H2375 C2359 0.960 . S
C2376 C2377 1.391 . S
C2376 C2378 1.394 . S
C2376 H2392 0.931 . S
C2377 C2376 1.391 . S
C2377 C2381 1.376 . S
C2378 C2376 1.394 . S
C2378 C2379 1.369 . S
C2378 C2382 1.531 . S
C2379 C2378 1.369 . S
C2379 C2380 1.410 . S
C2379 C2387 1.503 . S
C2380 C2379 1.410 . S
C2380 C2381 1.392 . S
C2380 C2383 1.511 . S
C2381 C2377 1.376 . S
C2381 C2380 1.392 . S
C2381 H2393 0.929 . S
C2382 C2378 1.531 . S
C2382 H2394 0.960 . S
C2382 H2395 0.962 . S
C2382 H2396 0.960 . S
C2383 C2380 1.511 . S
C2383 H2397 0.961 . S
C2383 H2398 0.961 . S
C2383 H2399 0.961 . S
C2384 C2385 1.370 . S
C2384 C2386 1.363 . S
C2384 H2400 0.931 . S
C2385 C2384 1.370 . S
C2385 C2389 1.408 . S
C2386 C2384 1.363 . S
C2386 C2387 1.370 . S
C2386 C2390 1.524 . S
C2387 C2379 1.503 . S
C2387 C2386 1.370 . S
C2387 C2388 1.403 . S
C2388 C2387 1.403 . S
C2388 C2389 1.404 . S
C2388 C2391 1.539 . S
C2389 C2385 1.408 . S
C2389 C2388 1.404 . S
C2389 H2401 0.930 . S
C2390 C2386 1.524 . S
C2390 H2402 0.956 . S
C2390 H2403 0.961 . S
C2390 H2404 0.961 . S
C2391 C2388 1.539 . S
C2391 H2405 0.958 . S
C2391 H2406 0.961 . S
C2391 H2407 0.960 . S
H2392 C2376 0.931 . S
H2393 C2381 0.929 . S
H2394 C2382 0.960 . S
H2395 C2382 0.962 . S
H2396 C2382 0.960 . S
H2397 C2383 0.961 . S
H2398 C2383 0.961 . S
H2399 C2383 0.961 . S
H2400 C2384 0.931 . S
H2401 C2389 0.930 . S
H2402 C2390 0.956 . S
H2403 C2390 0.961 . S
H2404 C2390 0.961 . S
H2405 C2391 0.958 . S
H2406 C2391 0.961 . S
H2407 C2391 0.960 . S
C2408 C2409 1.391 . S
C2408 C2410 1.394 . S
C2408 H2424 0.931 . S
C2409 C2408 1.391 . S
C2409 C2413 1.376 . S
C2410 C2408 1.394 . S
C2410 C2411 1.369 . S
C2410 C2414 1.531 . S
C2411 C2410 1.369 . S
C2411 C2412 1.410 . S
C2411 C2419 1.503 . S
C2412 C2411 1.410 . S
C2412 C2413 1.392 . S
C2412 C2415 1.511 . S
C2413 C2409 1.376 . S
C2413 C2412 1.392 . S
C2413 H2425 0.929 . S
C2414 C2410 1.531 . S
C2414 H2426 0.960 . S
C2414 H2427 0.962 . S
C2414 H2428 0.960 . S
C2415 C2412 1.511 . S
C2415 H2429 0.961 . S
C2415 H2430 0.961 . S
C2415 H2431 0.961 . S
C2416 C2417 1.370 . S
C2416 C2418 1.363 . S
C2416 H2432 0.931 . S
C2417 C2416 1.370 . S
C2417 C2421 1.408 . S
C2418 C2416 1.363 . S
C2418 C2419 1.370 . S
C2418 C2422 1.524 . S
C2419 C2411 1.503 . S
C2419 C2418 1.370 . S
C2419 C2420 1.403 . S
C2420 C2419 1.403 . S
C2420 C2421 1.404 . S
C2420 C2423 1.539 . S
C2421 C2417 1.408 . S
C2421 C2420 1.404 . S
C2421 H2433 0.930 . S
C2422 C2418 1.524 . S
C2422 H2434 0.956 . S
C2422 H2435 0.961 . S
C2422 H2436 0.961 . S
C2423 C2420 1.539 . S
C2423 H2437 0.958 . S
C2423 H2438 0.961 . S
C2423 H2439 0.960 . S
H2424 C2408 0.931 . S
H2425 C2413 0.929 . S
H2426 C2414 0.960 . S
H2427 C2414 0.962 . S
H2428 C2414 0.960 . S
H2429 C2415 0.961 . S
H2430 C2415 0.961 . S
H2431 C2415 0.961 . S
H2432 C2416 0.931 . S
H2433 C2421 0.930 . S
H2434 C2422 0.956 . S
H2435 C2422 0.961 . S
H2436 C2422 0.961 . S
H2437 C2423 0.958 . S
H2438 C2423 0.961 . S
H2439 C2423 0.960 . S
C2440 C2441 1.391 . S
C2440 C2442 1.394 . S
C2440 H2456 0.931 . S
C2441 C2440 1.391 . S
C2441 C2445 1.376 . S
C2442 C2440 1.394 . S
C2442 C2443 1.369 . S
C2442 C2446 1.531 . S
C2443 C2442 1.369 . S
C2443 C2444 1.410 . S
C2443 C2451 1.503 . S
C2444 C2443 1.410 . S
C2444 C2445 1.392 . S
C2444 C2447 1.511 . S
C2445 C2441 1.376 . S
C2445 C2444 1.392 . S
C2445 H2457 0.929 . S
C2446 C2442 1.531 . S
C2446 H2458 0.960 . S
C2446 H2459 0.962 . S
C2446 H2460 0.960 . S
C2447 C2444 1.511 . S
C2447 H2461 0.961 . S
C2447 H2462 0.961 . S
C2447 H2463 0.961 . S
C2448 C2449 1.370 . S
C2448 C2450 1.363 . S
C2448 H2464 0.931 . S
C2449 C2448 1.370 . S
C2449 C2453 1.408 . S
C2450 C2448 1.363 . S
C2450 C2451 1.370 . S
C2450 C2454 1.524 . S
C2451 C2443 1.503 . S
C2451 C2450 1.370 . S
C2451 C2452 1.403 . S
C2452 C2451 1.403 . S
C2452 C2453 1.404 . S
C2452 C2455 1.539 . S
C2453 C2449 1.408 . S
C2453 C2452 1.404 . S
C2453 H2465 0.930 . S
C2454 C2450 1.524 . S
C2454 H2466 0.956 . S
C2454 H2467 0.961 . S
C2454 H2468 0.961 . S
C2455 C2452 1.539 . S
C2455 H2469 0.958 . S
C2455 H2470 0.961 . S
C2455 H2471 0.960 . S
H2456 C2440 0.931 . S
H2457 C2445 0.929 . S
H2458 C2446 0.960 . S
H2459 C2446 0.962 . S
H2460 C2446 0.960 . S
H2461 C2447 0.961 . S
H2462 C2447 0.961 . S
H2463 C2447 0.961 . S
H2464 C2448 0.931 . S
H2465 C2453 0.930 . S
H2466 C2454 0.956 . S
H2467 C2454 0.961 . S
H2468 C2454 0.961 . S
H2469 C2455 0.958 . S
H2470 C2455 0.961 . S
H2471 C2455 0.960 . S
C2472 C2473 1.391 . S
C2472 C2474 1.394 . S
C2472 H2488 0.931 . S
C2473 C2472 1.391 . S
C2473 C2477 1.376 . S
C2474 C2472 1.394 . S
C2474 C2475 1.369 . S
C2474 C2478 1.531 . S
C2475 C2474 1.369 . S
C2475 C2476 1.410 . S
C2475 C2483 1.503 . S
C2476 C2475 1.410 . S
C2476 C2477 1.392 . S
C2476 C2479 1.511 . S
C2477 C2473 1.376 . S
C2477 C2476 1.392 . S
C2477 H2489 0.929 . S
C2478 C2474 1.531 . S
C2478 H2490 0.960 . S
C2478 H2491 0.962 . S
C2478 H2492 0.960 . S
C2479 C2476 1.511 . S
C2479 H2493 0.961 . S
C2479 H2494 0.961 . S
C2479 H2495 0.961 . S
C2480 C2481 1.370 . S
C2480 C2482 1.363 . S
C2480 H2496 0.931 . S
C2481 C2480 1.370 . S
C2481 C2485 1.408 . S
C2482 C2480 1.363 . S
C2482 C2483 1.370 . S
C2482 C2486 1.524 . S
C2483 C2475 1.503 . S
C2483 C2482 1.370 . S
C2483 C2484 1.403 . S
C2484 C2483 1.403 . S
C2484 C2485 1.404 . S
C2484 C2487 1.539 . S
C2485 C2481 1.408 . S
C2485 C2484 1.404 . S
C2485 H2497 0.930 . S
C2486 C2482 1.524 . S
C2486 H2498 0.956 . S
C2486 H2499 0.961 . S
C2486 H2500 0.961 . S
C2487 C2484 1.539 . S
C2487 H2501 0.958 . S
C2487 H2502 0.961 . S
C2487 H2503 0.960 . S
H2488 C2472 0.931 . S
H2489 C2477 0.929 . S
H2490 C2478 0.960 . S
H2491 C2478 0.962 . S
H2492 C2478 0.960 . S
H2493 C2479 0.961 . S
H2494 C2479 0.961 . S
H2495 C2479 0.961 . S
H2496 C2480 0.931 . S
H2497 C2485 0.930 . S
H2498 C2486 0.956 . S
H2499 C2486 0.961 . S
H2500 C2486 0.961 . S
H2501 C2487 0.958 . S
H2502 C2487 0.961 . S
H2503 C2487 0.960 . S
C2504 C2505 1.391 . S
C2504 C2506 1.394 . S
C2504 H2520 0.931 . S
C2505 C2504 1.391 . S
C2505 C2509 1.376 . S
C2506 C2504 1.394 . S
C2506 C2507 1.369 . S
C2506 C2510 1.531 . S
C2507 C2506 1.369 . S
C2507 C2508 1.410 . S
C2507 C2515 1.503 . S
C2508 C2507 1.410 . S
C2508 C2509 1.392 . S
C2508 C2511 1.511 . S
C2509 C2505 1.376 . S
C2509 C2508 1.392 . S
C2509 H2521 0.929 . S
C2510 C2506 1.531 . S
C2510 H2522 0.960 . S
C2510 H2523 0.962 . S
C2510 H2524 0.960 . S
C2511 C2508 1.511 . S
C2511 H2525 0.961 . S
C2511 H2526 0.961 . S
C2511 H2527 0.961 . S
C2512 C2513 1.370 . S
C2512 C2514 1.363 . S
C2512 H2528 0.931 . S
C2513 C2512 1.370 . S
C2513 C2517 1.408 . S
C2514 C2512 1.363 . S
C2514 C2515 1.370 . S
C2514 C2518 1.524 . S
C2515 C2507 1.503 . S
C2515 C2514 1.370 . S
C2515 C2516 1.403 . S
C2516 C2515 1.403 . S
C2516 C2517 1.404 . S
C2516 C2519 1.539 . S
C2517 C2513 1.408 . S
C2517 C2516 1.404 . S
C2517 H2529 0.930 . S
C2518 C2514 1.524 . S
C2518 H2530 0.956 . S
C2518 H2531 0.961 . S
C2518 H2532 0.961 . S
C2519 C2516 1.539 . S
C2519 H2533 0.958 . S
C2519 H2534 0.961 . S
C2519 H2535 0.960 . S
H2520 C2504 0.931 . S
H2521 C2509 0.929 . S
H2522 C2510 0.960 . S
H2523 C2510 0.962 . S
H2524 C2510 0.960 . S
H2525 C2511 0.961 . S
H2526 C2511 0.961 . S
H2527 C2511 0.961 . S
H2528 C2512 0.931 . S
H2529 C2517 0.930 . S
H2530 C2518 0.956 . S
H2531 C2518 0.961 . S
H2532 C2518 0.961 . S
H2533 C2519 0.958 . S
H2534 C2519 0.961 . S
H2535 C2519 0.960 . S
C2536 C2537 1.391 . S
C2536 C2538 1.394 . S
C2536 H2552 0.931 . S
C2537 C2536 1.391 . S
C2537 C2541 1.376 . S
C2538 C2536 1.394 . S
C2538 C2539 1.369 . S
C2538 C2542 1.531 . S
C2539 C2538 1.369 . S
C2539 C2540 1.410 . S
C2539 C2547 1.503 . S
C2540 C2539 1.410 . S
C2540 C2541 1.392 . S
C2540 C2543 1.511 . S
C2541 C2537 1.376 . S
C2541 C2540 1.392 . S
C2541 H2553 0.929 . S
C2542 C2538 1.531 . S
C2542 H2554 0.960 . S
C2542 H2555 0.962 . S
C2542 H2556 0.960 . S
C2543 C2540 1.511 . S
C2543 H2557 0.961 . S
C2543 H2558 0.961 . S
C2543 H2559 0.961 . S
C2544 C2545 1.370 . S
C2544 C2546 1.363 . S
C2544 H2560 0.931 . S
C2545 C2544 1.370 . S
C2545 C2549 1.408 . S
C2546 C2544 1.363 . S
C2546 C2547 1.370 . S
C2546 C2550 1.524 . S
C2547 C2539 1.503 . S
C2547 C2546 1.370 . S
C2547 C2548 1.403 . S
C2548 C2547 1.403 . S
C2548 C2549 1.404 . S
C2548 C2551 1.539 . S
C2549 C2545 1.408 . S
C2549 C2548 1.404 . S
C2549 H2561 0.930 . S
C2550 C2546 1.524 . S
C2550 H2562 0.956 . S
C2550 H2563 0.961 . S
C2550 H2564 0.961 . S
C2551 C2548 1.539 . S
C2551 H2565 0.958 . S
C2551 H2566 0.961 . S
C2551 H2567 0.960 . S
H2552 C2536 0.931 . S
H2553 C2541 0.929 . S
H2554 C2542 0.960 . S
H2555 C2542 0.962 . S
H2556 C2542 0.960 . S
H2557 C2543 0.961 . S
H2558 C2543 0.961 . S
H2559 C2543 0.961 . S
H2560 C2544 0.931 . S
H2561 C2549 0.930 . S
H2562 C2550 0.956 . S
H2563 C2550 0.961 . S
H2564 C2550 0.961 . S
H2565 C2551 0.958 . S
H2566 C2551 0.961 . S
H2567 C2551 0.960 . S
C2568 C2569 1.391 . S
C2568 C2570 1.394 . S
C2568 H2584 0.931 . S
C2569 C2568 1.391 . S
C2569 C2573 1.376 . S
C2570 C2568 1.394 . S
C2570 C2571 1.369 . S
C2570 C2574 1.531 . S
C2571 C2570 1.369 . S
C2571 C2572 1.410 . S
C2571 C2579 1.503 . S
C2572 C2571 1.410 . S
C2572 C2573 1.392 . S
C2572 C2575 1.511 . S
C2573 C2569 1.376 . S
C2573 C2572 1.392 . S
C2573 H2585 0.929 . S
C2574 C2570 1.531 . S
C2574 H2586 0.960 . S
C2574 H2587 0.962 . S
C2574 H2588 0.960 . S
C2575 C2572 1.511 . S
C2575 H2589 0.961 . S
C2575 H2590 0.961 . S
C2575 H2591 0.961 . S
C2576 C2577 1.370 . S
C2576 C2578 1.363 . S
C2576 H2592 0.931 . S
C2577 C2576 1.370 . S
C2577 C2581 1.408 . S
C2578 C2576 1.363 . S
C2578 C2579 1.370 . S
C2578 C2582 1.524 . S
C2579 C2571 1.503 . S
C2579 C2578 1.370 . S
C2579 C2580 1.403 . S
C2580 C2579 1.403 . S
C2580 C2581 1.404 . S
C2580 C2583 1.539 . S
C2581 C2577 1.408 . S
C2581 C2580 1.404 . S
C2581 H2593 0.930 . S
C2582 C2578 1.524 . S
C2582 H2594 0.956 . S
C2582 H2595 0.961 . S
C2582 H2596 0.961 . S
C2583 C2580 1.539 . S
C2583 H2597 0.958 . S
C2583 H2598 0.961 . S
C2583 H2599 0.960 . S
H2584 C2568 0.931 . S
H2585 C2573 0.929 . S
H2586 C2574 0.960 . S
H2587 C2574 0.962 . S
H2588 C2574 0.960 . S
H2589 C2575 0.961 . S
H2590 C2575 0.961 . S
H2591 C2575 0.961 . S
H2592 C2576 0.931 . S
H2593 C2581 0.930 . S
H2594 C2582 0.956 . S
H2595 C2582 0.961 . S
H2596 C2582 0.961 . S
H2597 C2583 0.958 . S
H2598 C2583 0.961 . S
H2599 C2583 0.960 . S
C2600 C2601 1.391 . S
C2600 C2602 1.394 . S
C2600 H2616 0.931 . S
C2601 C2600 1.391 . S
C2601 C2605 1.376 . S
C2602 C2600 1.394 . S
C2602 C2603 1.369 . S
C2602 C2606 1.531 . S
C2603 C2602 1.369 . S
C2603 C2604 1.410 . S
C2603 C2611 1.503 . S
C2604 C2603 1.410 . S
C2604 C2605 1.392 . S
C2604 C2607 1.511 . S
C2605 C2601 1.376 . S
C2605 C2604 1.392 . S
C2605 H2617 0.929 . S
C2606 C2602 1.531 . S
C2606 H2618 0.960 . S
C2606 H2619 0.962 . S
C2606 H2620 0.960 . S
C2607 C2604 1.511 . S
C2607 H2621 0.961 . S
C2607 H2622 0.961 . S
C2607 H2623 0.961 . S
C2608 C2609 1.370 . S
C2608 C2610 1.363 . S
C2608 H2624 0.931 . S
C2609 C2608 1.370 . S
C2609 C2613 1.408 . S
C2610 C2608 1.363 . S
C2610 C2611 1.370 . S
C2610 C2614 1.524 . S
C2611 C2603 1.503 . S
C2611 C2610 1.370 . S
C2611 C2612 1.403 . S
C2612 C2611 1.403 . S
C2612 C2613 1.404 . S
C2612 C2615 1.539 . S
C2613 C2609 1.408 . S
C2613 C2612 1.404 . S
C2613 H2625 0.930 . S
C2614 C2610 1.524 . S
C2614 H2626 0.956 . S
C2614 H2627 0.961 . S
C2614 H2628 0.961 . S
C2615 C2612 1.539 . S
C2615 H2629 0.958 . S
C2615 H2630 0.961 . S
C2615 H2631 0.960 . S
H2616 C2600 0.931 . S
H2617 C2605 0.929 . S
H2618 C2606 0.960 . S
H2619 C2606 0.962 . S
H2620 C2606 0.960 . S
H2621 C2607 0.961 . S
H2622 C2607 0.961 . S
H2623 C2607 0.961 . S
H2624 C2608 0.931 . S
H2625 C2613 0.930 . S
H2626 C2614 0.956 . S
H2627 C2614 0.961 . S
H2628 C2614 0.961 . S
H2629 C2615 0.958 . S
H2630 C2615 0.961 . S
H2631 C2615 0.960 . S
C2632 C2633 1.391 . S
C2632 C2634 1.394 . S
C2632 H2648 0.931 . S
C2633 C2632 1.391 . S
C2633 C2637 1.376 . S
C2634 C2632 1.394 . S
C2634 C2635 1.369 . S
C2634 C2638 1.531 . S
C2635 C2634 1.369 . S
C2635 C2636 1.410 . S
C2635 C2643 1.503 . S
C2636 C2635 1.410 . S
C2636 C2637 1.392 . S
C2636 C2639 1.511 . S
C2637 C2633 1.376 . S
C2637 C2636 1.392 . S
C2637 H2649 0.929 . S
C2638 C2634 1.531 . S
C2638 H2650 0.960 . S
C2638 H2651 0.962 . S
C2638 H2652 0.960 . S
C2639 C2636 1.511 . S
C2639 H2653 0.961 . S
C2639 H2654 0.961 . S
C2639 H2655 0.961 . S
C2640 C2641 1.370 . S
C2640 C2642 1.363 . S
C2640 H2656 0.931 . S
C2641 C2640 1.370 . S
C2641 C2645 1.408 . S
C2642 C2640 1.363 . S
C2642 C2643 1.370 . S
C2642 C2646 1.524 . S
C2643 C2635 1.503 . S
C2643 C2642 1.370 . S
C2643 C2644 1.403 . S
C2644 C2643 1.403 . S
C2644 C2645 1.404 . S
C2644 C2647 1.539 . S
C2645 C2641 1.408 . S
C2645 C2644 1.404 . S
C2645 H2657 0.930 . S
C2646 C2642 1.524 . S
C2646 H2658 0.956 . S
C2646 H2659 0.961 . S
C2646 H2660 0.961 . S
C2647 C2644 1.539 . S
C2647 H2661 0.958 . S
C2647 H2662 0.961 . S
C2647 H2663 0.960 . S
H2648 C2632 0.931 . S
H2649 C2637 0.929 . S
H2650 C2638 0.960 . S
H2651 C2638 0.962 . S
H2652 C2638 0.960 . S
H2653 C2639 0.961 . S
H2654 C2639 0.961 . S
H2655 C2639 0.961 . S
H2656 C2640 0.931 . S
H2657 C2645 0.930 . S
H2658 C2646 0.956 . S
H2659 C2646 0.961 . S
H2660 C2646 0.961 . S
H2661 C2647 0.958 . S
H2662 C2647 0.961 . S
H2663 C2647 0.960 . S
C2664 C2665 1.391 . S
C2664 C2666 1.394 . S
C2664 H2680 0.931 . S
C2665 C2664 1.391 . S
C2665 C2669 1.376 . S
C2666 C2664 1.394 . S
C2666 C2667 1.369 . S
C2666 C2670 1.531 . S
C2667 C2666 1.369 . S
C2667 C2668 1.410 . S
C2667 C2675 1.503 . S
C2668 C2667 1.410 . S
C2668 C2669 1.392 . S
C2668 C2671 1.511 . S
C2669 C2665 1.376 . S
C2669 C2668 1.392 . S
C2669 H2681 0.929 . S
C2670 C2666 1.531 . S
C2670 H2682 0.960 . S
C2670 H2683 0.962 . S
C2670 H2684 0.960 . S
C2671 C2668 1.511 . S
C2671 H2685 0.961 . S
C2671 H2686 0.961 . S
C2671 H2687 0.961 . S
C2672 C2673 1.370 . S
C2672 C2674 1.363 . S
C2672 H2688 0.931 . S
C2673 C2672 1.370 . S
C2673 C2677 1.408 . S
C2674 C2672 1.363 . S
C2674 C2675 1.370 . S
C2674 C2678 1.524 . S
C2675 C2667 1.503 . S
C2675 C2674 1.370 . S
C2675 C2676 1.403 . S
C2676 C2675 1.403 . S
C2676 C2677 1.404 . S
C2676 C2679 1.539 . S
C2677 C2673 1.408 . S
C2677 C2676 1.404 . S
C2677 H2689 0.930 . S
C2678 C2674 1.524 . S
C2678 H2690 0.956 . S
C2678 H2691 0.961 . S
C2678 H2692 0.961 . S
C2679 C2676 1.539 . S
C2679 H2693 0.958 . S
C2679 H2694 0.961 . S
C2679 H2695 0.960 . S
H2680 C2664 0.931 . S
H2681 C2669 0.929 . S
H2682 C2670 0.960 . S
H2683 C2670 0.962 . S
H2684 C2670 0.960 . S
H2685 C2671 0.961 . S
H2686 C2671 0.961 . S
H2687 C2671 0.961 . S
H2688 C2672 0.931 . S
H2689 C2677 0.930 . S
H2690 C2678 0.956 . S
H2691 C2678 0.961 . S
H2692 C2678 0.961 . S
H2693 C2679 0.958 . S
H2694 C2679 0.961 . S
H2695 C2679 0.960 . S
C2696 C2697 1.391 . S
C2696 C2698 1.394 . S
C2696 H2712 0.931 . S
C2697 C2696 1.391 . S
C2697 C2701 1.376 . S
C2698 C2696 1.394 . S
C2698 C2699 1.369 . S
C2698 C2702 1.531 . S
C2699 C2698 1.369 . S
C2699 C2700 1.410 . S
C2699 C2707 1.503 . S
C2700 C2699 1.410 . S
C2700 C2701 1.392 . S
C2700 C2703 1.511 . S
C2701 C2697 1.376 . S
C2701 C2700 1.392 . S
C2701 H2713 0.929 . S
C2702 C2698 1.531 . S
C2702 H2714 0.960 . S
C2702 H2715 0.962 . S
C2702 H2716 0.960 . S
C2703 C2700 1.511 . S
C2703 H2717 0.961 . S
C2703 H2718 0.961 . S
C2703 H2719 0.961 . S
C2704 C2705 1.370 . S
C2704 C2706 1.363 . S
C2704 H2720 0.931 . S
C2705 C2704 1.370 . S
C2705 C2709 1.408 . S
C2706 C2704 1.363 . S
C2706 C2707 1.370 . S
C2706 C2710 1.524 . S
C2707 C2699 1.503 . S
C2707 C2706 1.370 . S
C2707 C2708 1.403 . S
C2708 C2707 1.403 . S
C2708 C2709 1.404 . S
C2708 C2711 1.539 . S
C2709 C2705 1.408 . S
C2709 C2708 1.404 . S
C2709 H2721 0.930 . S
C2710 C2706 1.524 . S
C2710 H2722 0.956 . S
C2710 H2723 0.961 . S
C2710 H2724 0.961 . S
C2711 C2708 1.539 . S
C2711 H2725 0.958 . S
C2711 H2726 0.961 . S
C2711 H2727 0.960 . S
H2712 C2696 0.931 . S
H2713 C2701 0.929 . S
H2714 C2702 0.960 . S
H2715 C2702 0.962 . S
H2716 C2702 0.960 . S
H2717 C2703 0.961 . S
H2718 C2703 0.961 . S
H2719 C2703 0.961 . S
H2720 C2704 0.931 . S
H2721 C2709 0.930 . S
H2722 C2710 0.956 . S
H2723 C2710 0.961 . S
H2724 C2710 0.961 . S
H2725 C2711 0.958 . S
H2726 C2711 0.961 . S
H2727 C2711 0.960 . S
C2728 C2729 1.391 . S
C2728 C2730 1.394 . S
C2728 H2744 0.931 . S
C2729 C2728 1.391 . S
C2729 C2733 1.376 . S
C2730 C2728 1.394 . S
C2730 C2731 1.369 . S
C2730 C2734 1.531 . S
C2731 C2730 1.369 . S
C2731 C2732 1.410 . S
C2731 C2739 1.503 . S
C2732 C2731 1.410 . S
C2732 C2733 1.392 . S
C2732 C2735 1.511 . S
C2733 C2729 1.376 . S
C2733 C2732 1.392 . S
C2733 H2745 0.929 . S
C2734 C2730 1.531 . S
C2734 H2746 0.960 . S
C2734 H2747 0.962 . S
C2734 H2748 0.960 . S
C2735 C2732 1.511 . S
C2735 H2749 0.961 . S
C2735 H2750 0.961 . S
C2735 H2751 0.961 . S
C2736 C2737 1.370 . S
C2736 C2738 1.363 . S
C2736 H2752 0.931 . S
C2737 C2736 1.370 . S
C2737 C2741 1.408 . S
C2738 C2736 1.363 . S
C2738 C2739 1.370 . S
C2738 C2742 1.524 . S
C2739 C2731 1.503 . S
C2739 C2738 1.370 . S
C2739 C2740 1.403 . S
C2740 C2739 1.403 . S
C2740 C2741 1.404 . S
C2740 C2743 1.539 . S
C2741 C2737 1.408 . S
C2741 C2740 1.404 . S
C2741 H2753 0.930 . S
C2742 C2738 1.524 . S
C2742 H2754 0.956 . S
C2742 H2755 0.961 . S
C2742 H2756 0.961 . S
C2743 C2740 1.539 . S
C2743 H2757 0.958 . S
C2743 H2758 0.961 . S
C2743 H2759 0.960 . S
H2744 C2728 0.931 . S
H2745 C2733 0.929 . S
H2746 C2734 0.960 . S
H2747 C2734 0.962 . S
H2748 C2734 0.960 . S
H2749 C2735 0.961 . S
H2750 C2735 0.961 . S
H2751 C2735 0.961 . S
H2752 C2736 0.931 . S
H2753 C2741 0.930 . S
H2754 C2742 0.956 . S
H2755 C2742 0.961 . S
H2756 C2742 0.961 . S
H2757 C2743 0.958 . S
H2758 C2743 0.961 . S
H2759 C2743 0.960 . S
C2760 C2761 1.391 . S
C2760 C2762 1.394 . S
C2760 H2776 0.931 . S
C2761 C2760 1.391 . S
C2761 C2765 1.376 . S
C2762 C2760 1.394 . S
C2762 C2763 1.369 . S
C2762 C2766 1.531 . S
C2763 C2762 1.369 . S
C2763 C2764 1.410 . S
C2763 C2771 1.503 . S
C2764 C2763 1.410 . S
C2764 C2765 1.392 . S
C2764 C2767 1.511 . S
C2765 C2761 1.376 . S
C2765 C2764 1.392 . S
C2765 H2777 0.929 . S
C2766 C2762 1.531 . S
C2766 H2778 0.960 . S
C2766 H2779 0.962 . S
C2766 H2780 0.960 . S
C2767 C2764 1.511 . S
C2767 H2781 0.961 . S
C2767 H2782 0.961 . S
C2767 H2783 0.961 . S
C2768 C2769 1.370 . S
C2768 C2770 1.363 . S
C2768 H2784 0.931 . S
C2769 C2768 1.370 . S
C2769 C2773 1.408 . S
C2770 C2768 1.363 . S
C2770 C2771 1.370 . S
C2770 C2774 1.524 . S
C2771 C2763 1.503 . S
C2771 C2770 1.370 . S
C2771 C2772 1.403 . S
C2772 C2771 1.403 . S
C2772 C2773 1.404 . S
C2772 C2775 1.539 . S
C2773 C2769 1.408 . S
C2773 C2772 1.404 . S
C2773 H2785 0.930 . S
C2774 C2770 1.524 . S
C2774 H2786 0.956 . S
C2774 H2787 0.961 . S
C2774 H2788 0.961 . S
C2775 C2772 1.539 . S
C2775 H2789 0.958 . S
C2775 H2790 0.961 . S
C2775 H2791 0.960 . S
H2776 C2760 0.931 . S
H2777 C2765 0.929 . S
H2778 C2766 0.960 . S
H2779 C2766 0.962 . S
H2780 C2766 0.960 . S
H2781 C2767 0.961 . S
H2782 C2767 0.961 . S
H2783 C2767 0.961 . S
H2784 C2768 0.931 . S
H2785 C2773 0.930 . S
H2786 C2774 0.956 . S
H2787 C2774 0.961 . S
H2788 C2774 0.961 . S
H2789 C2775 0.958 . S
H2790 C2775 0.961 . S
H2791 C2775 0.960 . S
C2792 C2793 1.391 . S
C2792 C2794 1.394 . S
C2792 H2808 0.931 . S
C2793 C2792 1.391 . S
C2793 C2797 1.376 . S
C2794 C2792 1.394 . S
C2794 C2795 1.369 . S
C2794 C2798 1.531 . S
C2795 C2794 1.369 . S
C2795 C2796 1.410 . S
C2795 C2803 1.503 . S
C2796 C2795 1.410 . S
C2796 C2797 1.392 . S
C2796 C2799 1.511 . S
C2797 C2793 1.376 . S
C2797 C2796 1.392 . S
C2797 H2809 0.929 . S
C2798 C2794 1.531 . S
C2798 H2810 0.960 . S
C2798 H2811 0.962 . S
C2798 H2812 0.960 . S
C2799 C2796 1.511 . S
C2799 H2813 0.961 . S
C2799 H2814 0.961 . S
C2799 H2815 0.961 . S
C2800 C2801 1.370 . S
C2800 C2802 1.363 . S
C2800 H2816 0.931 . S
C2801 C2800 1.370 . S
C2801 C2805 1.408 . S
C2802 C2800 1.363 . S
C2802 C2803 1.370 . S
C2802 C2806 1.524 . S
C2803 C2795 1.503 . S
C2803 C2802 1.370 . S
C2803 C2804 1.403 . S
C2804 C2803 1.403 . S
C2804 C2805 1.404 . S
C2804 C2807 1.539 . S
C2805 C2801 1.408 . S
C2805 C2804 1.404 . S
C2805 H2817 0.930 . S
C2806 C2802 1.524 . S
C2806 H2818 0.956 . S
C2806 H2819 0.961 . S
C2806 H2820 0.961 . S
C2807 C2804 1.539 . S
C2807 H2821 0.958 . S
C2807 H2822 0.961 . S
C2807 H2823 0.960 . S
H2808 C2792 0.931 . S
H2809 C2797 0.929 . S
H2810 C2798 0.960 . S
H2811 C2798 0.962 . S
H2812 C2798 0.960 . S
H2813 C2799 0.961 . S
H2814 C2799 0.961 . S
H2815 C2799 0.961 . S
H2816 C2800 0.931 . S
H2817 C2805 0.930 . S
H2818 C2806 0.956 . S
H2819 C2806 0.961 . S
H2820 C2806 0.961 . S
H2821 C2807 0.958 . S
H2822 C2807 0.961 . S
H2823 C2807 0.960 . S
C2824 C2825 1.391 . S
C2824 C2826 1.394 . S
C2824 H2840 0.931 . S
C2825 C2824 1.391 . S
C2825 C2829 1.376 . S
C2826 C2824 1.394 . S
C2826 C2827 1.369 . S
C2826 C2830 1.531 . S
C2827 C2826 1.369 . S
C2827 C2828 1.410 . S
C2827 C2835 1.503 . S
C2828 C2827 1.410 . S
C2828 C2829 1.392 . S
C2828 C2831 1.511 . S
C2829 C2825 1.376 . S
C2829 C2828 1.392 . S
C2829 H2841 0.929 . S
C2830 C2826 1.531 . S
C2830 H2842 0.960 . S
C2830 H2843 0.962 . S
C2830 H2844 0.960 . S
C2831 C2828 1.511 . S
C2831 H2845 0.961 . S
C2831 H2846 0.961 . S
C2831 H2847 0.961 . S
C2832 C2833 1.370 . S
C2832 C2834 1.363 . S
C2832 H2848 0.931 . S
C2833 C2832 1.370 . S
C2833 C2837 1.408 . S
C2834 C2832 1.363 . S
C2834 C2835 1.370 . S
C2834 C2838 1.524 . S
C2835 C2827 1.503 . S
C2835 C2834 1.370 . S
C2835 C2836 1.403 . S
C2836 C2835 1.403 . S
C2836 C2837 1.404 . S
C2836 C2839 1.539 . S
C2837 C2833 1.408 . S
C2837 C2836 1.404 . S
C2837 H2849 0.930 . S
C2838 C2834 1.524 . S
C2838 H2850 0.956 . S
C2838 H2851 0.961 . S
C2838 H2852 0.961 . S
C2839 C2836 1.539 . S
C2839 H2853 0.958 . S
C2839 H2854 0.961 . S
C2839 H2855 0.960 . S
H2840 C2824 0.931 . S
H2841 C2829 0.929 . S
H2842 C2830 0.960 . S
H2843 C2830 0.962 . S
H2844 C2830 0.960 . S
H2845 C2831 0.961 . S
H2846 C2831 0.961 . S
H2847 C2831 0.961 . S
H2848 C2832 0.931 . S
H2849 C2837 0.930 . S
H2850 C2838 0.956 . S
H2851 C2838 0.961 . S
H2852 C2838 0.961 . S
H2853 C2839 0.958 . S
H2854 C2839 0.961 . S
H2855 C2839 0.960 . S
C2856 C2857 1.391 . S
C2856 C2858 1.394 . S
C2856 H2872 0.931 . S
C2857 C2856 1.391 . S
C2857 C2861 1.376 . S
C2858 C2856 1.394 . S
C2858 C2859 1.369 . S
C2858 C2862 1.531 . S
C2859 C2858 1.369 . S
C2859 C2860 1.410 . S
C2859 C2867 1.503 . S
C2860 C2859 1.410 . S
C2860 C2861 1.392 . S
C2860 C2863 1.511 . S
C2861 C2857 1.376 . S
C2861 C2860 1.392 . S
C2861 H2873 0.929 . S
C2862 C2858 1.531 . S
C2862 H2874 0.960 . S
C2862 H2875 0.962 . S
C2862 H2876 0.960 . S
C2863 C2860 1.511 . S
C2863 H2877 0.961 . S
C2863 H2878 0.961 . S
C2863 H2879 0.961 . S
C2864 C2865 1.370 . S
C2864 C2866 1.363 . S
C2864 H2880 0.931 . S
C2865 C2864 1.370 . S
C2865 C2869 1.408 . S
C2866 C2864 1.363 . S
C2866 C2867 1.370 . S
C2866 C2870 1.524 . S
C2867 C2859 1.503 . S
C2867 C2866 1.370 . S
C2867 C2868 1.403 . S
C2868 C2867 1.403 . S
C2868 C2869 1.404 . S
C2868 C2871 1.539 . S
C2869 C2865 1.408 . S
C2869 C2868 1.404 . S
C2869 H2881 0.930 . S
C2870 C2866 1.524 . S
C2870 H2882 0.956 . S
C2870 H2883 0.961 . S
C2870 H2884 0.961 . S
C2871 C2868 1.539 . S
C2871 H2885 0.958 . S
C2871 H2886 0.961 . S
C2871 H2887 0.960 . S
H2872 C2856 0.931 . S
H2873 C2861 0.929 . S
H2874 C2862 0.960 . S
H2875 C2862 0.962 . S
H2876 C2862 0.960 . S
H2877 C2863 0.961 . S
H2878 C2863 0.961 . S
H2879 C2863 0.961 . S
H2880 C2864 0.931 . S
H2881 C2869 0.930 . S
H2882 C2870 0.956 . S
H2883 C2870 0.961 . S
H2884 C2870 0.961 . S
H2885 C2871 0.958 . S
H2886 C2871 0.961 . S
H2887 C2871 0.960 . S
C2888 C2889 1.391 . S
C2888 C2890 1.394 . S
C2888 H2904 0.931 . S
C2889 C2888 1.391 . S
C2889 C2893 1.376 . S
C2890 C2888 1.394 . S
C2890 C2891 1.369 . S
C2890 C2894 1.531 . S
C2891 C2890 1.369 . S
C2891 C2892 1.410 . S
C2891 C2899 1.503 . S
C2892 C2891 1.410 . S
C2892 C2893 1.392 . S
C2892 C2895 1.511 . S
C2893 C2889 1.376 . S
C2893 C2892 1.392 . S
C2893 H2905 0.929 . S
C2894 C2890 1.531 . S
C2894 H2906 0.960 . S
C2894 H2907 0.962 . S
C2894 H2908 0.960 . S
C2895 C2892 1.511 . S
C2895 H2909 0.961 . S
C2895 H2910 0.961 . S
C2895 H2911 0.961 . S
C2896 C2897 1.370 . S
C2896 C2898 1.363 . S
C2896 H2912 0.931 . S
C2897 C2896 1.370 . S
C2897 C2901 1.408 . S
C2898 C2896 1.363 . S
C2898 C2899 1.370 . S
C2898 C2902 1.524 . S
C2899 C2891 1.503 . S
C2899 C2898 1.370 . S
C2899 C2900 1.403 . S
C2900 C2899 1.403 . S
C2900 C2901 1.404 . S
C2900 C2903 1.539 . S
C2901 C2897 1.408 . S
C2901 C2900 1.404 . S
C2901 H2913 0.930 . S
C2902 C2898 1.524 . S
C2902 H2914 0.956 . S
C2902 H2915 0.961 . S
C2902 H2916 0.961 . S
C2903 C2900 1.539 . S
C2903 H2917 0.958 . S
C2903 H2918 0.961 . S
C2903 H2919 0.960 . S
H2904 C2888 0.931 . S
H2905 C2893 0.929 . S
H2906 C2894 0.960 . S
H2907 C2894 0.962 . S
H2908 C2894 0.960 . S
H2909 C2895 0.961 . S
H2910 C2895 0.961 . S
H2911 C2895 0.961 . S
H2912 C2896 0.931 . S
H2913 C2901 0.930 . S
H2914 C2902 0.956 . S
H2915 C2902 0.961 . S
H2916 C2902 0.961 . S
H2917 C2903 0.958 . S
H2918 C2903 0.961 . S
H2919 C2903 0.960 . S
C2920 C2921 1.391 . S
C2920 C2922 1.394 . S
C2920 H2936 0.931 . S
C2921 C2920 1.391 . S
C2921 C2925 1.376 . S
C2922 C2920 1.394 . S
C2922 C2923 1.369 . S
C2922 C2926 1.531 . S
C2923 C2922 1.369 . S
C2923 C2924 1.410 . S
C2923 C2931 1.503 . S
C2924 C2923 1.410 . S
C2924 C2925 1.392 . S
C2924 C2927 1.511 . S
C2925 C2921 1.376 . S
C2925 C2924 1.392 . S
C2925 H2937 0.929 . S
C2926 C2922 1.531 . S
C2926 H2938 0.960 . S
C2926 H2939 0.962 . S
C2926 H2940 0.960 . S
C2927 C2924 1.511 . S
C2927 H2941 0.961 . S
C2927 H2942 0.961 . S
C2927 H2943 0.961 . S
C2928 C2929 1.370 . S
C2928 C2930 1.363 . S
C2928 H2944 0.931 . S
C2929 C2928 1.370 . S
C2929 C2933 1.408 . S
C2930 C2928 1.363 . S
C2930 C2931 1.370 . S
C2930 C2934 1.524 . S
C2931 C2923 1.503 . S
C2931 C2930 1.370 . S
C2931 C2932 1.403 . S
C2932 C2931 1.403 . S
C2932 C2933 1.404 . S
C2932 C2935 1.539 . S
C2933 C2929 1.408 . S
C2933 C2932 1.404 . S
C2933 H2945 0.930 . S
C2934 C2930 1.524 . S
C2934 H2946 0.956 . S
C2934 H2947 0.961 . S
C2934 H2948 0.961 . S
C2935 C2932 1.539 . S
C2935 H2949 0.958 . S
C2935 H2950 0.961 . S
C2935 H2951 0.960 . S
H2936 C2920 0.931 . S
H2937 C2925 0.929 . S
H2938 C2926 0.960 . S
H2939 C2926 0.962 . S
H2940 C2926 0.960 . S
H2941 C2927 0.961 . S
H2942 C2927 0.961 . S
H2943 C2927 0.961 . S
H2944 C2928 0.931 . S
H2945 C2933 0.930 . S
H2946 C2934 0.956 . S
H2947 C2934 0.961 . S
H2948 C2934 0.961 . S
H2949 C2935 0.958 . S
H2950 C2935 0.961 . S
H2951 C2935 0.960 . S
C2952 C2953 1.391 . S
C2952 C2954 1.394 . S
C2952 H2968 0.931 . S
C2953 C2952 1.391 . S
C2953 C2957 1.376 . S
C2954 C2952 1.394 . S
C2954 C2955 1.369 . S
C2954 C2958 1.531 . S
C2955 C2954 1.369 . S
C2955 C2956 1.410 . S
C2955 C2963 1.503 . S
C2956 C2955 1.410 . S
C2956 C2957 1.392 . S
C2956 C2959 1.511 . S
C2957 C2953 1.376 . S
C2957 C2956 1.392 . S
C2957 H2969 0.929 . S
C2958 C2954 1.531 . S
C2958 H2970 0.960 . S
C2958 H2971 0.962 . S
C2958 H2972 0.960 . S
C2959 C2956 1.511 . S
C2959 H2973 0.961 . S
C2959 H2974 0.961 . S
C2959 H2975 0.961 . S
C2960 C2961 1.370 . S
C2960 C2962 1.363 . S
C2960 H2976 0.931 . S
C2961 C2960 1.370 . S
C2961 C2965 1.408 . S
C2962 C2960 1.363 . S
C2962 C2963 1.370 . S
C2962 C2966 1.524 . S
C2963 C2955 1.503 . S
C2963 C2962 1.370 . S
C2963 C2964 1.403 . S
C2964 C2963 1.403 . S
C2964 C2965 1.404 . S
C2964 C2967 1.539 . S
C2965 C2961 1.408 . S
C2965 C2964 1.404 . S
C2965 H2977 0.930 . S
C2966 C2962 1.524 . S
C2966 H2978 0.956 . S
C2966 H2979 0.961 . S
C2966 H2980 0.961 . S
C2967 C2964 1.539 . S
C2967 H2981 0.958 . S
C2967 H2982 0.961 . S
C2967 H2983 0.960 . S
H2968 C2952 0.931 . S
H2969 C2957 0.929 . S
H2970 C2958 0.960 . S
H2971 C2958 0.962 . S
H2972 C2958 0.960 . S
H2973 C2959 0.961 . S
H2974 C2959 0.961 . S
H2975 C2959 0.961 . S
H2976 C2960 0.931 . S
H2977 C2965 0.930 . S
H2978 C2966 0.956 . S
H2979 C2966 0.961 . S
H2980 C2966 0.961 . S
H2981 C2967 0.958 . S
H2982 C2967 0.961 . S
H2983 C2967 0.960 . S
C2984 C2985 1.391 . S
C2984 C2986 1.394 . S
C2984 H3000 0.931 . S
C2985 C2984 1.391 . S
C2985 C2989 1.376 . S
C2986 C2984 1.394 . S
C2986 C2987 1.369 . S
C2986 C2990 1.531 . S
C2987 C2986 1.369 . S
C2987 C2988 1.410 . S
C2987 C2995 1.503 . S
C2988 C2987 1.410 . S
C2988 C2989 1.392 . S
C2988 C2991 1.511 . S
C2989 C2985 1.376 . S
C2989 C2988 1.392 . S
C2989 H3001 0.929 . S
C2990 C2986 1.531 . S
C2990 H3002 0.960 . S
C2990 H3003 0.962 . S
C2990 H3004 0.960 . S
C2991 C2988 1.511 . S
C2991 H3005 0.961 . S
C2991 H3006 0.961 . S
C2991 H3007 0.961 . S
C2992 C2993 1.370 . S
C2992 C2994 1.363 . S
C2992 H3008 0.931 . S
C2993 C2992 1.370 . S
C2993 C2997 1.408 . S
C2994 C2992 1.363 . S
C2994 C2995 1.370 . S
C2994 C2998 1.524 . S
C2995 C2987 1.503 . S
C2995 C2994 1.370 . S
C2995 C2996 1.403 . S
C2996 C2995 1.403 . S
C2996 C2997 1.404 . S
C2996 C2999 1.539 . S
C2997 C2993 1.408 . S
C2997 C2996 1.404 . S
C2997 H3009 0.930 . S
C2998 C2994 1.524 . S
C2998 H3010 0.956 . S
C2998 H3011 0.961 . S
C2998 H3012 0.961 . S
C2999 C2996 1.539 . S
C2999 H3013 0.958 . S
C2999 H3014 0.961 . S
C2999 H3015 0.960 . S
H3000 C2984 0.931 . S
H3001 C2989 0.929 . S
H3002 C2990 0.960 . S
H3003 C2990 0.962 . S
H3004 C2990 0.960 . S
H3005 C2991 0.961 . S
H3006 C2991 0.961 . S
H3007 C2991 0.961 . S
H3008 C2992 0.931 . S
H3009 C2997 0.930 . S
H3010 C2998 0.956 . S
H3011 C2998 0.961 . S
H3012 C2998 0.961 . S
H3013 C2999 0.958 . S
H3014 C2999 0.961 . S
H3015 C2999 0.960 . S
C3016 C3017 1.391 . S
C3016 C3018 1.394 . S
C3016 H3032 0.931 . S
C3017 C3016 1.391 . S
C3017 C3021 1.376 . S
C3018 C3016 1.394 . S
C3018 C3019 1.369 . S
C3018 C3022 1.531 . S
C3019 C3018 1.369 . S
C3019 C3020 1.410 . S
C3019 C3027 1.503 . S
C3020 C3019 1.410 . S
C3020 C3021 1.392 . S
C3020 C3023 1.511 . S
C3021 C3017 1.376 . S
C3021 C3020 1.392 . S
C3021 H3033 0.929 . S
C3022 C3018 1.531 . S
C3022 H3034 0.960 . S
C3022 H3035 0.962 . S
C3022 H3036 0.960 . S
C3023 C3020 1.511 . S
C3023 H3037 0.961 . S
C3023 H3038 0.961 . S
C3023 H3039 0.961 . S
C3024 C3025 1.370 . S
C3024 C3026 1.363 . S
C3024 H3040 0.931 . S
C3025 C3024 1.370 . S
C3025 C3029 1.408 . S
C3026 C3024 1.363 . S
C3026 C3027 1.370 . S
C3026 C3030 1.524 . S
C3027 C3019 1.503 . S
C3027 C3026 1.370 . S
C3027 C3028 1.403 . S
C3028 C3027 1.403 . S
C3028 C3029 1.404 . S
C3028 C3031 1.539 . S
C3029 C3025 1.408 . S
C3029 C3028 1.404 . S
C3029 H3041 0.930 . S
C3030 C3026 1.524 . S
C3030 H3042 0.956 . S
C3030 H3043 0.961 . S
C3030 H3044 0.961 . S
C3031 C3028 1.539 . S
C3031 H3045 0.958 . S
C3031 H3046 0.961 . S
C3031 H3047 0.960 . S
H3032 C3016 0.931 . S
H3033 C3021 0.929 . S
H3034 C3022 0.960 . S
H3035 C3022 0.962 . S
H3036 C3022 0.960 . S
H3037 C3023 0.961 . S
H3038 C3023 0.961 . S
H3039 C3023 0.961 . S
H3040 C3024 0.931 . S
H3041 C3029 0.930 . S
H3042 C3030 0.956 . S
H3043 C3030 0.961 . S
H3044 C3030 0.961 . S
H3045 C3031 0.958 . S
H3046 C3031 0.961 . S
H3047 C3031 0.960 . S
C3048 C3049 1.391 . S
C3048 C3050 1.394 . S
C3048 H3064 0.931 . S
C3049 C3048 1.391 . S
C3049 C3053 1.376 . S
C3050 C3048 1.394 . S
C3050 C3051 1.369 . S
C3050 C3054 1.531 . S
C3051 C3050 1.369 . S
C3051 C3052 1.410 . S
C3051 C3059 1.503 . S
C3052 C3051 1.410 . S
C3052 C3053 1.392 . S
C3052 C3055 1.511 . S
C3053 C3049 1.376 . S
C3053 C3052 1.392 . S
C3053 H3065 0.929 . S
C3054 C3050 1.531 . S
C3054 H3066 0.960 . S
C3054 H3067 0.962 . S
C3054 H3068 0.960 . S
C3055 C3052 1.511 . S
C3055 H3069 0.961 . S
C3055 H3070 0.961 . S
C3055 H3071 0.961 . S
C3056 C3057 1.370 . S
C3056 C3058 1.363 . S
C3056 H3072 0.931 . S
C3057 C3056 1.370 . S
C3057 C3061 1.408 . S
C3058 C3056 1.363 . S
C3058 C3059 1.370 . S
C3058 C3062 1.524 . S
C3059 C3051 1.503 . S
C3059 C3058 1.370 . S
C3059 C3060 1.403 . S
C3060 C3059 1.403 . S
C3060 C3061 1.404 . S
C3060 C3063 1.539 . S
C3061 C3057 1.408 . S
C3061 C3060 1.404 . S
C3061 H3073 0.930 . S
C3062 C3058 1.524 . S
C3062 H3074 0.956 . S
C3062 H3075 0.961 . S
C3062 H3076 0.961 . S
C3063 C3060 1.539 . S
C3063 H3077 0.958 . S
C3063 H3078 0.961 . S
C3063 H3079 0.960 . S
H3064 C3048 0.931 . S
H3065 C3053 0.929 . S
H3066 C3054 0.960 . S
H3067 C3054 0.962 . S
H3068 C3054 0.960 . S
H3069 C3055 0.961 . S
H3070 C3055 0.961 . S
H3071 C3055 0.961 . S
H3072 C3056 0.931 . S
H3073 C3061 0.930 . S
H3074 C3062 0.956 . S
H3075 C3062 0.961 . S
H3076 C3062 0.961 . S
H3077 C3063 0.958 . S
H3078 C3063 0.961 . S
H3079 C3063 0.960 . S
C3080 C3081 1.391 . S
C3080 C3082 1.394 . S
C3080 H3096 0.931 . S
C3081 C3080 1.391 . S
C3081 C3085 1.376 . S
C3082 C3080 1.394 . S
C3082 C3083 1.369 . S
C3082 C3086 1.531 . S
C3083 C3082 1.369 . S
C3083 C3084 1.410 . S
C3083 C3091 1.503 . S
C3084 C3083 1.410 . S
C3084 C3085 1.392 . S
C3084 C3087 1.511 . S
C3085 C3081 1.376 . S
C3085 C3084 1.392 . S
C3085 H3097 0.929 . S
C3086 C3082 1.531 . S
C3086 H3098 0.960 . S
C3086 H3099 0.962 . S
C3086 H3100 0.960 . S
C3087 C3084 1.511 . S
C3087 H3101 0.961 . S
C3087 H3102 0.961 . S
C3087 H3103 0.961 . S
C3088 C3089 1.370 . S
C3088 C3090 1.363 . S
C3088 H3104 0.931 . S
C3089 C3088 1.370 . S
C3089 C3093 1.408 . S
C3090 C3088 1.363 . S
C3090 C3091 1.370 . S
C3090 C3094 1.524 . S
C3091 C3083 1.503 . S
C3091 C3090 1.370 . S
C3091 C3092 1.403 . S
C3092 C3091 1.403 . S
C3092 C3093 1.404 . S
C3092 C3095 1.539 . S
C3093 C3089 1.408 . S
C3093 C3092 1.404 . S
C3093 H3105 0.930 . S
C3094 C3090 1.524 . S
C3094 H3106 0.956 . S
C3094 H3107 0.961 . S
C3094 H3108 0.961 . S
C3095 C3092 1.539 . S
C3095 H3109 0.958 . S
C3095 H3110 0.961 . S
C3095 H3111 0.960 . S
H3096 C3080 0.931 . S
H3097 C3085 0.929 . S
H3098 C3086 0.960 . S
H3099 C3086 0.962 . S
H3100 C3086 0.960 . S
H3101 C3087 0.961 . S
H3102 C3087 0.961 . S
H3103 C3087 0.961 . S
H3104 C3088 0.931 . S
H3105 C3093 0.930 . S
H3106 C3094 0.956 . S
H3107 C3094 0.961 . S
H3108 C3094 0.961 . S
H3109 C3095 0.958 . S
H3110 C3095 0.961 . S
H3111 C3095 0.960 . S
C3112 C3113 1.391 . S
C3112 C3114 1.394 . S
C3112 H3128 0.931 . S
C3113 C3112 1.391 . S
C3113 C3117 1.376 . S
C3114 C3112 1.394 . S
C3114 C3115 1.369 . S
C3114 C3118 1.531 . S
C3115 C3114 1.369 . S
C3115 C3116 1.410 . S
C3115 C3123 1.503 . S
C3116 C3115 1.410 . S
C3116 C3117 1.392 . S
C3116 C3119 1.511 . S
C3117 C3113 1.376 . S
C3117 C3116 1.392 . S
C3117 H3129 0.929 . S
C3118 C3114 1.531 . S
C3118 H3130 0.960 . S
C3118 H3131 0.962 . S
C3118 H3132 0.960 . S
C3119 C3116 1.511 . S
C3119 H3133 0.961 . S
C3119 H3134 0.961 . S
C3119 H3135 0.961 . S
C3120 C3121 1.370 . S
C3120 C3122 1.363 . S
C3120 H3136 0.931 . S
C3121 C3120 1.370 . S
C3121 C3125 1.408 . S
C3122 C3120 1.363 . S
C3122 C3123 1.370 . S
C3122 C3126 1.524 . S
C3123 C3115 1.503 . S
C3123 C3122 1.370 . S
C3123 C3124 1.403 . S
C3124 C3123 1.403 . S
C3124 C3125 1.404 . S
C3124 C3127 1.539 . S
C3125 C3121 1.408 . S
C3125 C3124 1.404 . S
C3125 H3137 0.930 . S
C3126 C3122 1.524 . S
C3126 H3138 0.956 . S
C3126 H3139 0.961 . S
C3126 H3140 0.961 . S
C3127 C3124 1.539 . S
C3127 H3141 0.958 . S
C3127 H3142 0.961 . S
C3127 H3143 0.960 . S
H3128 C3112 0.931 . S
H3129 C3117 0.929 . S
H3130 C3118 0.960 . S
H3131 C3118 0.962 . S
H3132 C3118 0.960 . S
H3133 C3119 0.961 . S
H3134 C3119 0.961 . S
H3135 C3119 0.961 . S
H3136 C3120 0.931 . S
H3137 C3125 0.930 . S
H3138 C3126 0.956 . S
H3139 C3126 0.961 . S
H3140 C3126 0.961 . S
H3141 C3127 0.958 . S
H3142 C3127 0.961 . S
H3143 C3127 0.960 . S
C3144 C3145 1.391 . S
C3144 C3146 1.394 . S
C3144 H3160 0.931 . S
C3145 C3144 1.391 . S
C3145 C3149 1.376 . S
C3146 C3144 1.394 . S
C3146 C3147 1.369 . S
C3146 C3150 1.531 . S
C3147 C3146 1.369 . S
C3147 C3148 1.410 . S
C3147 C3155 1.503 . S
C3148 C3147 1.410 . S
C3148 C3149 1.392 . S
C3148 C3151 1.511 . S
C3149 C3145 1.376 . S
C3149 C3148 1.392 . S
C3149 H3161 0.929 . S
C3150 C3146 1.531 . S
C3150 H3162 0.960 . S
C3150 H3163 0.962 . S
C3150 H3164 0.960 . S
C3151 C3148 1.511 . S
C3151 H3165 0.961 . S
C3151 H3166 0.961 . S
C3151 H3167 0.961 . S
C3152 C3153 1.370 . S
C3152 C3154 1.363 . S
C3152 H3168 0.931 1_565 S
C3153 C3152 1.370 . S
C3153 C3157 1.408 . S
C3154 C3152 1.363 . S
C3154 C3155 1.370 . S
C3154 C3158 1.524 . S
C3155 C3147 1.503 . S
C3155 C3154 1.370 . S
C3155 C3156 1.403 . S
C3156 C3155 1.403 . S
C3156 C3157 1.404 . S
C3156 C3159 1.539 . S
C3157 C3153 1.408 . S
C3157 C3156 1.404 . S
C3157 H3169 0.930 . S
C3158 C3154 1.524 . S
C3158 H3170 0.956 . S
C3158 H3171 0.961 . S
C3158 H3172 0.961 . S
C3159 C3156 1.539 . S
C3159 H3173 0.958 . S
C3159 H3174 0.961 . S
C3159 H3175 0.960 . S
H3160 C3144 0.931 . S
H3161 C3149 0.929 . S
H3162 C3150 0.960 . S
H3163 C3150 0.962 . S
H3164 C3150 0.960 . S
H3165 C3151 0.961 . S
H3166 C3151 0.961 . S
H3167 C3151 0.961 . S
H3168 C3152 0.931 1_545 S
H3169 C3157 0.930 . S
H3170 C3158 0.956 . S
H3171 C3158 0.961 . S
H3172 C3158 0.961 . S
H3173 C3159 0.958 . S
H3174 C3159 0.961 . S
H3175 C3159 0.960 . S
C3176 C3177 1.391 . S
C3176 C3178 1.394 . S
C3176 H3192 0.931 . S
C3177 C3176 1.391 . S
C3177 C3181 1.376 . S
C3178 C3176 1.394 . S
C3178 C3179 1.369 . S
C3178 C3182 1.531 . S
C3179 C3178 1.369 . S
C3179 C3180 1.410 . S
C3179 C3187 1.503 . S
C3180 C3179 1.410 . S
C3180 C3181 1.392 . S
C3180 C3183 1.511 . S
C3181 C3177 1.376 . S
C3181 C3180 1.392 . S
C3181 H3193 0.929 . S
C3182 C3178 1.531 . S
C3182 H3194 0.960 . S
C3182 H3195 0.962 . S
C3182 H3196 0.960 . S
C3183 C3180 1.511 . S
C3183 H3197 0.961 . S
C3183 H3198 0.961 . S
C3183 H3199 0.961 . S
C3184 C3185 1.370 . S
C3184 C3186 1.363 . S
C3184 H3200 0.931 . S
C3185 C3184 1.370 . S
C3185 C3189 1.408 . S
C3186 C3184 1.363 . S
C3186 C3187 1.370 . S
C3186 C3190 1.524 . S
C3187 C3179 1.503 . S
C3187 C3186 1.370 . S
C3187 C3188 1.403 . S
C3188 C3187 1.403 . S
C3188 C3189 1.404 . S
C3188 C3191 1.539 . S
C3189 C3185 1.408 . S
C3189 C3188 1.404 . S
C3189 H3201 0.930 . S
C3190 C3186 1.524 . S
C3190 H3202 0.956 . S
C3190 H3203 0.961 . S
C3190 H3204 0.961 . S
C3191 C3188 1.539 . S
C3191 H3205 0.958 . S
C3191 H3206 0.961 . S
C3191 H3207 0.960 . S
H3192 C3176 0.931 . S
H3193 C3181 0.929 . S
H3194 C3182 0.960 . S
H3195 C3182 0.962 . S
H3196 C3182 0.960 . S
H3197 C3183 0.961 . S
H3198 C3183 0.961 . S
H3199 C3183 0.961 . S
H3200 C3184 0.931 . S
H3201 C3189 0.930 . S
H3202 C3190 0.956 . S
H3203 C3190 0.961 . S
H3204 C3190 0.961 . S
H3205 C3191 0.958 . S
H3206 C3191 0.961 . S
H3207 C3191 0.960 . S
C3208 C3209 1.391 . S
C3208 C3210 1.394 . S
C3208 H3224 0.931 . S
C3209 C3208 1.391 . S
C3209 C3213 1.376 . S
C3210 C3208 1.394 . S
C3210 C3211 1.369 . S
C3210 C3214 1.531 . S
C3211 C3210 1.369 . S
C3211 C3212 1.410 . S
C3211 C3219 1.503 . S
C3212 C3211 1.410 . S
C3212 C3213 1.392 . S
C3212 C3215 1.511 . S
C3213 C3209 1.376 . S
C3213 C3212 1.392 . S
C3213 H3225 0.929 . S
C3214 C3210 1.531 . S
C3214 H3226 0.960 . S
C3214 H3227 0.962 . S
C3214 H3228 0.960 . S
C3215 C3212 1.511 . S
C3215 H3229 0.961 . S
C3215 H3230 0.961 . S
C3215 H3231 0.961 . S
C3216 C3217 1.370 . S
C3216 C3218 1.363 . S
C3216 H3232 0.931 . S
C3217 C3216 1.370 . S
C3217 C3221 1.408 . S
C3218 C3216 1.363 . S
C3218 C3219 1.370 . S
C3218 C3222 1.524 . S
C3219 C3211 1.503 . S
C3219 C3218 1.370 . S
C3219 C3220 1.403 . S
C3220 C3219 1.403 . S
C3220 C3221 1.404 . S
C3220 C3223 1.539 . S
C3221 C3217 1.408 . S
C3221 C3220 1.404 . S
C3221 H3233 0.930 . S
C3222 C3218 1.524 . S
C3222 H3234 0.956 . S
C3222 H3235 0.961 . S
C3222 H3236 0.961 . S
C3223 C3220 1.539 . S
C3223 H3237 0.958 . S
C3223 H3238 0.961 . S
C3223 H3239 0.960 . S
H3224 C3208 0.931 . S
H3225 C3213 0.929 . S
H3226 C3214 0.960 . S
H3227 C3214 0.962 . S
H3228 C3214 0.960 . S
H3229 C3215 0.961 . S
H3230 C3215 0.961 . S
H3231 C3215 0.961 . S
H3232 C3216 0.931 . S
H3233 C3221 0.930 . S
H3234 C3222 0.956 . S
H3235 C3222 0.961 . S
H3236 C3222 0.961 . S
H3237 C3223 0.958 . S
H3238 C3223 0.961 . S
H3239 C3223 0.960 . S
C3240 C3241 1.391 . S
C3240 C3242 1.394 . S
C3240 H3256 0.931 . S
C3241 C3240 1.391 . S
C3241 C3245 1.376 . S
C3242 C3240 1.394 . S
C3242 C3243 1.369 . S
C3242 C3246 1.531 . S
C3243 C3242 1.369 . S
C3243 C3244 1.410 . S
C3243 C3251 1.503 . S
C3244 C3243 1.410 . S
C3244 C3245 1.392 . S
C3244 C3247 1.511 . S
C3245 C3241 1.376 . S
C3245 C3244 1.392 . S
C3245 H3257 0.929 . S
C3246 C3242 1.531 . S
C3246 H3258 0.960 . S
C3246 H3259 0.962 . S
C3246 H3260 0.960 . S
C3247 C3244 1.511 . S
C3247 H3261 0.961 . S
C3247 H3262 0.961 . S
C3247 H3263 0.961 . S
C3248 C3249 1.370 . S
C3248 C3250 1.363 . S
C3248 H3264 0.931 . S
C3249 C3248 1.370 . S
C3249 C3253 1.408 . S
C3250 C3248 1.363 . S
C3250 C3251 1.370 . S
C3250 C3254 1.524 . S
C3251 C3243 1.503 . S
C3251 C3250 1.370 . S
C3251 C3252 1.403 . S
C3252 C3251 1.403 . S
C3252 C3253 1.404 . S
C3252 C3255 1.539 . S
C3253 C3249 1.408 . S
C3253 C3252 1.404 . S
C3253 H3265 0.930 . S
C3254 C3250 1.524 . S
C3254 H3266 0.956 . S
C3254 H3267 0.961 . S
C3254 H3268 0.961 . S
C3255 C3252 1.539 . S
C3255 H3269 0.958 . S
C3255 H3270 0.961 . S
C3255 H3271 0.960 . S
H3256 C3240 0.931 . S
H3257 C3245 0.929 . S
H3258 C3246 0.960 . S
H3259 C3246 0.962 . S
H3260 C3246 0.960 . S
H3261 C3247 0.961 . S
H3262 C3247 0.961 . S
H3263 C3247 0.961 . S
H3264 C3248 0.931 . S
H3265 C3253 0.930 . S
H3266 C3254 0.956 . S
H3267 C3254 0.961 . S
H3268 C3254 0.961 . S
H3269 C3255 0.958 . S
H3270 C3255 0.961 . S
H3271 C3255 0.960 . S
C3272 C3273 1.391 . S
C3272 C3274 1.394 . S
C3272 H3288 0.931 . S
C3273 C3272 1.391 . S
C3273 C3277 1.376 . S
C3274 C3272 1.394 . S
C3274 C3275 1.369 . S
C3274 C3278 1.531 . S
C3275 C3274 1.369 . S
C3275 C3276 1.410 . S
C3275 C3283 1.503 . S
C3276 C3275 1.410 . S
C3276 C3277 1.392 . S
C3276 C3279 1.511 . S
C3277 C3273 1.376 . S
C3277 C3276 1.392 . S
C3277 H3289 0.929 . S
C3278 C3274 1.531 . S
C3278 H3290 0.960 . S
C3278 H3291 0.962 . S
C3278 H3292 0.960 . S
C3279 C3276 1.511 . S
C3279 H3293 0.961 . S
C3279 H3294 0.961 . S
C3279 H3295 0.961 . S
C3280 C3281 1.370 . S
C3280 C3282 1.363 . S
C3280 H3296 0.931 . S
C3281 C3280 1.370 . S
C3281 C3285 1.408 . S
C3282 C3280 1.363 . S
C3282 C3283 1.370 . S
C3282 C3286 1.524 . S
C3283 C3275 1.503 . S
C3283 C3282 1.370 . S
C3283 C3284 1.403 . S
C3284 C3283 1.403 . S
C3284 C3285 1.404 . S
C3284 C3287 1.539 . S
C3285 C3281 1.408 . S
C3285 C3284 1.404 . S
C3285 H3297 0.930 . S
C3286 C3282 1.524 . S
C3286 H3298 0.956 . S
C3286 H3299 0.961 . S
C3286 H3300 0.961 . S
C3287 C3284 1.539 . S
C3287 H3301 0.958 . S
C3287 H3302 0.961 . S
C3287 H3303 0.960 . S
H3288 C3272 0.931 . S
H3289 C3277 0.929 . S
H3290 C3278 0.960 . S
H3291 C3278 0.962 . S
H3292 C3278 0.960 . S
H3293 C3279 0.961 . S
H3294 C3279 0.961 . S
H3295 C3279 0.961 . S
H3296 C3280 0.931 . S
H3297 C3285 0.930 . S
H3298 C3286 0.956 . S
H3299 C3286 0.961 . S
H3300 C3286 0.961 . S
H3301 C3287 0.958 . S
H3302 C3287 0.961 . S
H3303 C3287 0.960 . S
C3304 C3305 1.391 . S
C3304 C3306 1.394 . S
C3304 H3320 0.931 . S
C3305 C3304 1.391 . S
C3305 C3309 1.376 . S
C3306 C3304 1.394 . S
C3306 C3307 1.369 . S
C3306 C3310 1.531 . S
C3307 C3306 1.369 . S
C3307 C3308 1.410 . S
C3307 C3315 1.503 . S
C3308 C3307 1.410 . S
C3308 C3309 1.392 . S
C3308 C3311 1.511 . S
C3309 C3305 1.376 . S
C3309 C3308 1.392 . S
C3309 H3321 0.929 . S
C3310 C3306 1.531 . S
C3310 H3322 0.960 . S
C3310 H3323 0.962 . S
C3310 H3324 0.960 . S
C3311 C3308 1.511 . S
C3311 H3325 0.961 . S
C3311 H3326 0.961 . S
C3311 H3327 0.961 . S
C3312 C3313 1.370 . S
C3312 C3314 1.363 . S
C3312 H3328 0.931 . S
C3313 C3312 1.370 . S
C3313 C3317 1.408 . S
C3314 C3312 1.363 . S
C3314 C3315 1.370 . S
C3314 C3318 1.524 . S
C3315 C3307 1.503 . S
C3315 C3314 1.370 . S
C3315 C3316 1.403 . S
C3316 C3315 1.403 . S
C3316 C3317 1.404 . S
C3316 C3319 1.539 . S
C3317 C3313 1.408 . S
C3317 C3316 1.404 . S
C3317 H3329 0.930 . S
C3318 C3314 1.524 . S
C3318 H3330 0.956 . S
C3318 H3331 0.961 . S
C3318 H3332 0.961 . S
C3319 C3316 1.539 . S
C3319 H3333 0.958 . S
C3319 H3334 0.961 . S
C3319 H3335 0.960 . S
H3320 C3304 0.931 . S
H3321 C3309 0.929 . S
H3322 C3310 0.960 . S
H3323 C3310 0.962 . S
H3324 C3310 0.960 . S
H3325 C3311 0.961 . S
H3326 C3311 0.961 . S
H3327 C3311 0.961 . S
H3328 C3312 0.931 . S
H3329 C3317 0.930 . S
H3330 C3318 0.956 . S
H3331 C3318 0.961 . S
H3332 C3318 0.961 . S
H3333 C3319 0.958 . S
H3334 C3319 0.961 . S
H3335 C3319 0.960 . S
C3336 C3337 1.391 . S
C3336 C3338 1.394 . S
C3336 H3352 0.931 . S
C3337 C3336 1.391 . S
C3337 C3341 1.376 . S
C3338 C3336 1.394 . S
C3338 C3339 1.369 . S
C3338 C3342 1.531 . S
C3339 C3338 1.369 . S
C3339 C3340 1.410 . S
C3339 C3347 1.503 . S
C3340 C3339 1.410 . S
C3340 C3341 1.392 . S
C3340 C3343 1.511 . S
C3341 C3337 1.376 . S
C3341 C3340 1.392 . S
C3341 H3353 0.929 . S
C3342 C3338 1.531 . S
C3342 H3354 0.960 . S
C3342 H3355 0.962 . S
C3342 H3356 0.960 . S
C3343 C3340 1.511 . S
C3343 H3357 0.961 . S
C3343 H3358 0.961 . S
C3343 H3359 0.961 . S
C3344 C3345 1.370 . S
C3344 C3346 1.363 . S
C3344 H3360 0.931 . S
C3345 C3344 1.370 . S
C3345 C3349 1.408 . S
C3346 C3344 1.363 . S
C3346 C3347 1.370 . S
C3346 C3350 1.524 . S
C3347 C3339 1.503 . S
C3347 C3346 1.370 . S
C3347 C3348 1.403 . S
C3348 C3347 1.403 . S
C3348 C3349 1.404 . S
C3348 C3351 1.539 . S
C3349 C3345 1.408 . S
C3349 C3348 1.404 . S
C3349 H3361 0.930 . S
C3350 C3346 1.524 . S
C3350 H3362 0.956 . S
C3350 H3363 0.961 . S
C3350 H3364 0.961 . S
C3351 C3348 1.539 . S
C3351 H3365 0.958 . S
C3351 H3366 0.961 . S
C3351 H3367 0.960 . S
H3352 C3336 0.931 . S
H3353 C3341 0.929 . S
H3354 C3342 0.960 . S
H3355 C3342 0.962 . S
H3356 C3342 0.960 . S
H3357 C3343 0.961 . S
H3358 C3343 0.961 . S
H3359 C3343 0.961 . S
H3360 C3344 0.931 . S
H3361 C3349 0.930 . S
H3362 C3350 0.956 . S
H3363 C3350 0.961 . S
H3364 C3350 0.961 . S
H3365 C3351 0.958 . S
H3366 C3351 0.961 . S
H3367 C3351 0.960 . S
C3368 C3369 1.391 . S
C3368 C3370 1.394 . S
C3368 H3384 0.931 . S
C3369 C3368 1.391 . S
C3369 C3373 1.376 . S
C3370 C3368 1.394 . S
C3370 C3371 1.369 . S
C3370 C3374 1.531 . S
C3371 C3370 1.369 . S
C3371 C3372 1.410 . S
C3371 C3379 1.503 . S
C3372 C3371 1.410 . S
C3372 C3373 1.392 . S
C3372 C3375 1.511 . S
C3373 C3369 1.376 . S
C3373 C3372 1.392 . S
C3373 H3385 0.929 . S
C3374 C3370 1.531 . S
C3374 H3386 0.960 . S
C3374 H3387 0.962 . S
C3374 H3388 0.960 . S
C3375 C3372 1.511 . S
C3375 H3389 0.961 . S
C3375 H3390 0.961 . S
C3375 H3391 0.961 . S
C3376 C3377 1.370 . S
C3376 C3378 1.363 . S
C3376 H3392 0.931 . S
C3377 C3376 1.370 . S
C3377 C3381 1.408 . S
C3378 C3376 1.363 . S
C3378 C3379 1.370 . S
C3378 C3382 1.524 . S
C3379 C3371 1.503 . S
C3379 C3378 1.370 . S
C3379 C3380 1.403 . S
C3380 C3379 1.403 . S
C3380 C3381 1.404 . S
C3380 C3383 1.539 . S
C3381 C3377 1.408 . S
C3381 C3380 1.404 . S
C3381 H3393 0.930 . S
C3382 C3378 1.524 . S
C3382 H3394 0.956 . S
C3382 H3395 0.961 . S
C3382 H3396 0.961 . S
C3383 C3380 1.539 . S
C3383 H3397 0.958 . S
C3383 H3398 0.961 . S
C3383 H3399 0.960 . S
H3384 C3368 0.931 . S
H3385 C3373 0.929 . S
H3386 C3374 0.960 . S
H3387 C3374 0.962 . S
H3388 C3374 0.960 . S
H3389 C3375 0.961 . S
H3390 C3375 0.961 . S
H3391 C3375 0.961 . S
H3392 C3376 0.931 . S
H3393 C3381 0.930 . S
H3394 C3382 0.956 . S
H3395 C3382 0.961 . S
H3396 C3382 0.961 . S
H3397 C3383 0.958 . S
H3398 C3383 0.961 . S
H3399 C3383 0.960 . S
C3400 C3401 1.391 . S
C3400 C3402 1.394 . S
C3400 H3416 0.931 . S
C3401 C3400 1.391 . S
C3401 C3405 1.376 . S
C3402 C3400 1.394 . S
C3402 C3403 1.369 . S
C3402 C3406 1.531 . S
C3403 C3402 1.369 . S
C3403 C3404 1.410 . S
C3403 C3411 1.503 . S
C3404 C3403 1.410 . S
C3404 C3405 1.392 . S
C3404 C3407 1.511 . S
C3405 C3401 1.376 . S
C3405 C3404 1.392 . S
C3405 H3417 0.929 . S
C3406 C3402 1.531 . S
C3406 H3418 0.960 . S
C3406 H3419 0.962 . S
C3406 H3420 0.960 . S
C3407 C3404 1.511 . S
C3407 H3421 0.961 . S
C3407 H3422 0.961 . S
C3407 H3423 0.961 . S
C3408 C3409 1.370 . S
C3408 C3410 1.363 . S
C3408 H3424 0.931 . S
C3409 C3408 1.370 . S
C3409 C3413 1.408 . S
C3410 C3408 1.363 . S
C3410 C3411 1.370 . S
C3410 C3414 1.524 . S
C3411 C3403 1.503 . S
C3411 C3410 1.370 . S
C3411 C3412 1.403 . S
C3412 C3411 1.403 . S
C3412 C3413 1.404 . S
C3412 C3415 1.539 . S
C3413 C3409 1.408 . S
C3413 C3412 1.404 . S
C3413 H3425 0.930 . S
C3414 C3410 1.524 . S
C3414 H3426 0.956 . S
C3414 H3427 0.961 . S
C3414 H3428 0.961 . S
C3415 C3412 1.539 . S
C3415 H3429 0.958 . S
C3415 H3430 0.961 . S
C3415 H3431 0.960 . S
H3416 C3400 0.931 . S
H3417 C3405 0.929 . S
H3418 C3406 0.960 . S
H3419 C3406 0.962 . S
H3420 C3406 0.960 . S
H3421 C3407 0.961 . S
H3422 C3407 0.961 . S
H3423 C3407 0.961 . S
H3424 C3408 0.931 . S
H3425 C3413 0.930 . S
H3426 C3414 0.956 . S
H3427 C3414 0.961 . S
H3428 C3414 0.961 . S
H3429 C3415 0.958 . S
H3430 C3415 0.961 . S
H3431 C3415 0.960 . S
C3432 C3433 1.391 . S
C3432 C3434 1.394 . S
C3432 H3448 0.931 . S
C3433 C3432 1.391 . S
C3433 C3437 1.376 . S
C3434 C3432 1.394 . S
C3434 C3435 1.369 . S
C3434 C3438 1.531 . S
C3435 C3434 1.369 . S
C3435 C3436 1.410 . S
C3435 C3443 1.503 . S
C3436 C3435 1.410 . S
C3436 C3437 1.392 . S
C3436 C3439 1.511 . S
C3437 C3433 1.376 . S
C3437 C3436 1.392 . S
C3437 H3449 0.929 . S
C3438 C3434 1.531 . S
C3438 H3450 0.960 . S
C3438 H3451 0.962 . S
C3438 H3452 0.960 . S
C3439 C3436 1.511 . S
C3439 H3453 0.961 . S
C3439 H3454 0.961 . S
C3439 H3455 0.961 . S
C3440 C3441 1.370 . S
C3440 C3442 1.363 . S
C3440 H3456 0.931 . S
C3441 C3440 1.370 . S
C3441 C3445 1.408 . S
C3442 C3440 1.363 . S
C3442 C3443 1.370 . S
C3442 C3446 1.524 . S
C3443 C3435 1.503 . S
C3443 C3442 1.370 . S
C3443 C3444 1.403 . S
C3444 C3443 1.403 . S
C3444 C3445 1.404 . S
C3444 C3447 1.539 . S
C3445 C3441 1.408 . S
C3445 C3444 1.404 . S
C3445 H3457 0.930 . S
C3446 C3442 1.524 . S
C3446 H3458 0.956 . S
C3446 H3459 0.961 . S
C3446 H3460 0.961 . S
C3447 C3444 1.539 . S
C3447 H3461 0.958 . S
C3447 H3462 0.961 . S
C3447 H3463 0.960 . S
H3448 C3432 0.931 . S
H3449 C3437 0.929 . S
H3450 C3438 0.960 . S
H3451 C3438 0.962 . S
H3452 C3438 0.960 . S
H3453 C3439 0.961 . S
H3454 C3439 0.961 . S
H3455 C3439 0.961 . S
H3456 C3440 0.931 . S
H3457 C3445 0.930 . S
H3458 C3446 0.956 . S
H3459 C3446 0.961 . S
H3460 C3446 0.961 . S
H3461 C3447 0.958 . S
H3462 C3447 0.961 . S
H3463 C3447 0.960 . S
C3464 C3465 1.391 . S
C3464 C3466 1.394 . S
C3464 H3480 0.931 . S
C3465 C3464 1.391 . S
C3465 C3469 1.376 . S
C3466 C3464 1.394 . S
C3466 C3467 1.369 . S
C3466 C3470 1.531 . S
C3467 C3466 1.369 . S
C3467 C3468 1.410 . S
C3467 C3475 1.503 . S
C3468 C3467 1.410 . S
C3468 C3469 1.392 . S
C3468 C3471 1.511 . S
C3469 C3465 1.376 . S
C3469 C3468 1.392 . S
C3469 H3481 0.929 . S
C3470 C3466 1.531 . S
C3470 H3482 0.960 . S
C3470 H3483 0.962 . S
C3470 H3484 0.960 . S
C3471 C3468 1.511 . S
C3471 H3485 0.961 . S
C3471 H3486 0.961 . S
C3471 H3487 0.961 . S
C3472 C3473 1.370 . S
C3472 C3474 1.363 . S
C3472 H3488 0.931 . S
C3473 C3472 1.370 . S
C3473 C3477 1.408 . S
C3474 C3472 1.363 . S
C3474 C3475 1.370 . S
C3474 C3478 1.524 . S
C3475 C3467 1.503 . S
C3475 C3474 1.370 . S
C3475 C3476 1.403 . S
C3476 C3475 1.403 . S
C3476 C3477 1.404 . S
C3476 C3479 1.539 . S
C3477 C3473 1.408 . S
C3477 C3476 1.404 . S
C3477 H3489 0.930 . S
C3478 C3474 1.524 . S
C3478 H3490 0.956 . S
C3478 H3491 0.961 . S
C3478 H3492 0.961 . S
C3479 C3476 1.539 . S
C3479 H3493 0.958 . S
C3479 H3494 0.961 . S
C3479 H3495 0.960 . S
H3480 C3464 0.931 . S
H3481 C3469 0.929 . S
H3482 C3470 0.960 . S
H3483 C3470 0.962 . S
H3484 C3470 0.960 . S
H3485 C3471 0.961 . S
H3486 C3471 0.961 . S
H3487 C3471 0.961 . S
H3488 C3472 0.931 . S
H3489 C3477 0.930 . S
H3490 C3478 0.956 . S
H3491 C3478 0.961 . S
H3492 C3478 0.961 . S
H3493 C3479 0.958 . S
H3494 C3479 0.961 . S
H3495 C3479 0.960 . S
C3496 C3497 1.391 . S
C3496 C3498 1.394 . S
C3496 H3512 0.931 . S
C3497 C3496 1.391 . S
C3497 C3501 1.376 . S
C3498 C3496 1.394 . S
C3498 C3499 1.369 . S
C3498 C3502 1.531 . S
C3499 C3498 1.369 . S
C3499 C3500 1.410 . S
C3499 C3507 1.503 . S
C3500 C3499 1.410 . S
C3500 C3501 1.392 . S
C3500 C3503 1.511 . S
C3501 C3497 1.376 . S
C3501 C3500 1.392 . S
C3501 H3513 0.929 . S
C3502 C3498 1.531 . S
C3502 H3514 0.960 . S
C3502 H3515 0.962 . S
C3502 H3516 0.960 . S
C3503 C3500 1.511 . S
C3503 H3517 0.961 . S
C3503 H3518 0.961 . S
C3503 H3519 0.961 . S
C3504 C3505 1.370 . S
C3504 C3506 1.363 . S
C3504 H3520 0.931 . S
C3505 C3504 1.370 . S
C3505 C3509 1.408 . S
C3506 C3504 1.363 . S
C3506 C3507 1.370 . S
C3506 C3510 1.524 . S
C3507 C3499 1.503 . S
C3507 C3506 1.370 . S
C3507 C3508 1.403 . S
C3508 C3507 1.403 . S
C3508 C3509 1.404 . S
C3508 C3511 1.539 . S
C3509 C3505 1.408 . S
C3509 C3508 1.404 . S
C3509 H3521 0.930 . S
C3510 C3506 1.524 . S
C3510 H3522 0.956 . S
C3510 H3523 0.961 . S
C3510 H3524 0.961 . S
C3511 C3508 1.539 . S
C3511 H3525 0.958 . S
C3511 H3526 0.961 . S
C3511 H3527 0.960 . S
H3512 C3496 0.931 . S
H3513 C3501 0.929 . S
H3514 C3502 0.960 . S
H3515 C3502 0.962 . S
H3516 C3502 0.960 . S
H3517 C3503 0.961 . S
H3518 C3503 0.961 . S
H3519 C3503 0.961 . S
H3520 C3504 0.931 . S
H3521 C3509 0.930 . S
H3522 C3510 0.956 . S
H3523 C3510 0.961 . S
H3524 C3510 0.961 . S
H3525 C3511 0.958 . S
H3526 C3511 0.961 . S
H3527 C3511 0.960 . S
C3528 C3529 1.391 . S
C3528 C3530 1.394 . S
C3528 H3544 0.931 . S
C3529 C3528 1.391 . S
C3529 C3533 1.376 . S
C3530 C3528 1.394 . S
C3530 C3531 1.369 . S
C3530 C3534 1.531 . S
C3531 C3530 1.369 . S
C3531 C3532 1.410 . S
C3531 C3539 1.503 . S
C3532 C3531 1.410 . S
C3532 C3533 1.392 . S
C3532 C3535 1.511 . S
C3533 C3529 1.376 . S
C3533 C3532 1.392 . S
C3533 H3545 0.929 . S
C3534 C3530 1.531 . S
C3534 H3546 0.960 . S
C3534 H3547 0.962 . S
C3534 H3548 0.960 . S
C3535 C3532 1.511 . S
C3535 H3549 0.961 . S
C3535 H3550 0.961 . S
C3535 H3551 0.961 . S
C3536 C3537 1.370 . S
C3536 C3538 1.363 . S
C3536 H3552 0.931 . S
C3537 C3536 1.370 . S
C3537 C3541 1.408 . S
C3538 C3536 1.363 . S
C3538 C3539 1.370 . S
C3538 C3542 1.524 . S
C3539 C3531 1.503 . S
C3539 C3538 1.370 . S
C3539 C3540 1.403 . S
C3540 C3539 1.403 . S
C3540 C3541 1.404 . S
C3540 C3543 1.539 . S
C3541 C3537 1.408 . S
C3541 C3540 1.404 . S
C3541 H3553 0.930 . S
C3542 C3538 1.524 . S
C3542 H3554 0.956 . S
C3542 H3555 0.961 . S
C3542 H3556 0.961 . S
C3543 C3540 1.539 . S
C3543 H3557 0.958 . S
C3543 H3558 0.961 . S
C3543 H3559 0.960 . S
H3544 C3528 0.931 . S
H3545 C3533 0.929 . S
H3546 C3534 0.960 . S
H3547 C3534 0.962 . S
H3548 C3534 0.960 . S
H3549 C3535 0.961 . S
H3550 C3535 0.961 . S
H3551 C3535 0.961 . S
H3552 C3536 0.931 . S
H3553 C3541 0.930 . S
H3554 C3542 0.956 . S
H3555 C3542 0.961 . S
H3556 C3542 0.961 . S
H3557 C3543 0.958 . S
H3558 C3543 0.961 . S
H3559 C3543 0.960 . S
C3560 C3561 1.391 . S
C3560 C3562 1.394 . S
C3560 H3576 0.931 . S
C3561 C3560 1.391 . S
C3561 C3565 1.376 . S
C3562 C3560 1.394 . S
C3562 C3563 1.369 . S
C3562 C3566 1.531 . S
C3563 C3562 1.369 . S
C3563 C3564 1.410 . S
C3563 C3571 1.503 . S
C3564 C3563 1.410 . S
C3564 C3565 1.392 . S
C3564 C3567 1.511 . S
C3565 C3561 1.376 . S
C3565 C3564 1.392 . S
C3565 H3577 0.929 . S
C3566 C3562 1.531 . S
C3566 H3578 0.960 . S
C3566 H3579 0.962 . S
C3566 H3580 0.960 . S
C3567 C3564 1.511 . S
C3567 H3581 0.961 . S
C3567 H3582 0.961 . S
C3567 H3583 0.961 . S
C3568 C3569 1.370 . S
C3568 C3570 1.363 . S
C3568 H3584 0.931 . S
C3569 C3568 1.370 . S
C3569 C3573 1.408 . S
C3570 C3568 1.363 . S
C3570 C3571 1.370 . S
C3570 C3574 1.524 . S
C3571 C3563 1.503 . S
C3571 C3570 1.370 . S
C3571 C3572 1.403 . S
C3572 C3571 1.403 . S
C3572 C3573 1.404 . S
C3572 C3575 1.539 . S
C3573 C3569 1.408 . S
C3573 C3572 1.404 . S
C3573 H3585 0.930 . S
C3574 C3570 1.524 . S
C3574 H3586 0.956 . S
C3574 H3587 0.961 . S
C3574 H3588 0.961 . S
C3575 C3572 1.539 . S
C3575 H3589 0.958 . S
C3575 H3590 0.961 . S
C3575 H3591 0.960 . S
H3576 C3560 0.931 . S
H3577 C3565 0.929 . S
H3578 C3566 0.960 . S
H3579 C3566 0.962 . S
H3580 C3566 0.960 . S
H3581 C3567 0.961 . S
H3582 C3567 0.961 . S
H3583 C3567 0.961 . S
H3584 C3568 0.931 . S
H3585 C3573 0.930 . S
H3586 C3574 0.956 . S
H3587 C3574 0.961 . S
H3588 C3574 0.961 . S
H3589 C3575 0.958 . S
H3590 C3575 0.961 . S
H3591 C3575 0.960 . S
C3592 C3593 1.391 . S
C3592 C3594 1.394 . S
C3592 H3608 0.931 . S
C3593 C3592 1.391 . S
C3593 C3597 1.376 . S
C3594 C3592 1.394 . S
C3594 C3595 1.369 . S
C3594 C3598 1.531 . S
C3595 C3594 1.369 . S
C3595 C3596 1.410 . S
C3595 C3603 1.503 . S
C3596 C3595 1.410 . S
C3596 C3597 1.392 . S
C3596 C3599 1.511 . S
C3597 C3593 1.376 . S
C3597 C3596 1.392 . S
C3597 H3609 0.929 . S
C3598 C3594 1.531 . S
C3598 H3610 0.960 . S
C3598 H3611 0.962 . S
C3598 H3612 0.960 . S
C3599 C3596 1.511 . S
C3599 H3613 0.961 . S
C3599 H3614 0.961 . S
C3599 H3615 0.961 . S
C3600 C3601 1.370 . S
C3600 C3602 1.363 . S
C3600 H3616 0.931 . S
C3601 C3600 1.370 . S
C3601 C3605 1.408 . S
C3602 C3600 1.363 . S
C3602 C3603 1.370 . S
C3602 C3606 1.524 . S
C3603 C3595 1.503 . S
C3603 C3602 1.370 . S
C3603 C3604 1.403 . S
C3604 C3603 1.403 . S
C3604 C3605 1.404 . S
C3604 C3607 1.539 . S
C3605 C3601 1.408 . S
C3605 C3604 1.404 . S
C3605 H3617 0.930 . S
C3606 C3602 1.524 . S
C3606 H3618 0.956 . S
C3606 H3619 0.961 . S
C3606 H3620 0.961 . S
C3607 C3604 1.539 . S
C3607 H3621 0.958 . S
C3607 H3622 0.961 . S
C3607 H3623 0.960 . S
H3608 C3592 0.931 . S
H3609 C3597 0.929 . S
H3610 C3598 0.960 . S
H3611 C3598 0.962 . S
H3612 C3598 0.960 . S
H3613 C3599 0.961 . S
H3614 C3599 0.961 . S
H3615 C3599 0.961 . S
H3616 C3600 0.931 . S
H3617 C3605 0.930 . S
H3618 C3606 0.956 . S
H3619 C3606 0.961 . S
H3620 C3606 0.961 . S
H3621 C3607 0.958 . S
H3622 C3607 0.961 . S
H3623 C3607 0.960 . S
C3624 C3625 1.391 . S
C3624 C3626 1.394 . S
C3624 H3640 0.931 . S
C3625 C3624 1.391 . S
C3625 C3629 1.376 . S
C3626 C3624 1.394 . S
C3626 C3627 1.369 . S
C3626 C3630 1.531 . S
C3627 C3626 1.369 . S
C3627 C3628 1.410 . S
C3627 C3635 1.503 . S
C3628 C3627 1.410 . S
C3628 C3629 1.392 . S
C3628 C3631 1.511 . S
C3629 C3625 1.376 . S
C3629 C3628 1.392 . S
C3629 H3641 0.929 . S
C3630 C3626 1.531 . S
C3630 H3642 0.960 . S
C3630 H3643 0.962 . S
C3630 H3644 0.960 . S
C3631 C3628 1.511 . S
C3631 H3645 0.961 . S
C3631 H3646 0.961 . S
C3631 H3647 0.961 . S
C3632 C3633 1.370 . S
C3632 C3634 1.363 . S
C3632 H3648 0.931 . S
C3633 C3632 1.370 . S
C3633 C3637 1.408 . S
C3634 C3632 1.363 . S
C3634 C3635 1.370 . S
C3634 C3638 1.524 . S
C3635 C3627 1.503 . S
C3635 C3634 1.370 . S
C3635 C3636 1.403 . S
C3636 C3635 1.403 . S
C3636 C3637 1.404 . S
C3636 C3639 1.539 . S
C3637 C3633 1.408 . S
C3637 C3636 1.404 . S
C3637 H3649 0.930 . S
C3638 C3634 1.524 . S
C3638 H3650 0.956 . S
C3638 H3651 0.961 . S
C3638 H3652 0.961 . S
C3639 C3636 1.539 . S
C3639 H3653 0.958 . S
C3639 H3654 0.961 . S
C3639 H3655 0.960 . S
H3640 C3624 0.931 . S
H3641 C3629 0.929 . S
H3642 C3630 0.960 . S
H3643 C3630 0.962 . S
H3644 C3630 0.960 . S
H3645 C3631 0.961 . S
H3646 C3631 0.961 . S
H3647 C3631 0.961 . S
H3648 C3632 0.931 . S
H3649 C3637 0.930 . S
H3650 C3638 0.956 . S
H3651 C3638 0.961 . S
H3652 C3638 0.961 . S
H3653 C3639 0.958 . S
H3654 C3639 0.961 . S
H3655 C3639 0.960 . S
C3656 C3657 1.391 . S
C3656 C3658 1.394 . S
C3656 H3672 0.931 . S
C3657 C3656 1.391 . S
C3657 C3661 1.376 . S
C3658 C3656 1.394 . S
C3658 C3659 1.369 . S
C3658 C3662 1.531 . S
C3659 C3658 1.369 . S
C3659 C3660 1.410 . S
C3659 C3667 1.503 . S
C3660 C3659 1.410 . S
C3660 C3661 1.392 . S
C3660 C3663 1.511 . S
C3661 C3657 1.376 . S
C3661 C3660 1.392 . S
C3661 H3673 0.929 . S
C3662 C3658 1.531 . S
C3662 H3674 0.960 . S
C3662 H3675 0.962 . S
C3662 H3676 0.960 . S
C3663 C3660 1.511 . S
C3663 H3677 0.961 . S
C3663 H3678 0.961 . S
C3663 H3679 0.961 . S
C3664 C3665 1.370 . S
C3664 C3666 1.363 . S
C3664 H3680 0.931 . S
C3665 C3664 1.370 . S
C3665 C3669 1.408 . S
C3666 C3664 1.363 . S
C3666 C3667 1.370 . S
C3666 C3670 1.524 . S
C3667 C3659 1.503 . S
C3667 C3666 1.370 . S
C3667 C3668 1.403 . S
C3668 C3667 1.403 . S
C3668 C3669 1.404 . S
C3668 C3671 1.539 . S
C3669 C3665 1.408 . S
C3669 C3668 1.404 . S
C3669 H3681 0.930 . S
C3670 C3666 1.524 . S
C3670 H3682 0.956 . S
C3670 H3683 0.961 . S
C3670 H3684 0.961 . S
C3671 C3668 1.539 . S
C3671 H3685 0.958 . S
C3671 H3686 0.961 . S
C3671 H3687 0.960 . S
H3672 C3656 0.931 . S
H3673 C3661 0.929 . S
H3674 C3662 0.960 . S
H3675 C3662 0.962 . S
H3676 C3662 0.960 . S
H3677 C3663 0.961 . S
H3678 C3663 0.961 . S
H3679 C3663 0.961 . S
H3680 C3664 0.931 . S
H3681 C3669 0.930 . S
H3682 C3670 0.956 . S
H3683 C3670 0.961 . S
H3684 C3670 0.961 . S
H3685 C3671 0.958 . S
H3686 C3671 0.961 . S
H3687 C3671 0.960 . S
C3688 C3689 1.391 . S
C3688 C3690 1.394 . S
C3688 H3704 0.931 . S
C3689 C3688 1.391 . S
C3689 C3693 1.376 . S
C3690 C3688 1.394 . S
C3690 C3691 1.369 . S
C3690 C3694 1.531 . S
C3691 C3690 1.369 . S
C3691 C3692 1.410 . S
C3691 C3699 1.503 . S
C3692 C3691 1.410 . S
C3692 C3693 1.392 . S
C3692 C3695 1.511 . S
C3693 C3689 1.376 . S
C3693 C3692 1.392 . S
C3693 H3705 0.929 . S
C3694 C3690 1.531 . S
C3694 H3706 0.960 . S
C3694 H3707 0.962 . S
C3694 H3708 0.960 . S
C3695 C3692 1.511 . S
C3695 H3709 0.961 . S
C3695 H3710 0.961 . S
C3695 H3711 0.961 . S
C3696 C3697 1.370 . S
C3696 C3698 1.363 . S
C3696 H3712 0.931 . S
C3697 C3696 1.370 . S
C3697 C3701 1.408 . S
C3698 C3696 1.363 . S
C3698 C3699 1.370 . S
C3698 C3702 1.524 . S
C3699 C3691 1.503 . S
C3699 C3698 1.370 . S
C3699 C3700 1.403 . S
C3700 C3699 1.403 . S
C3700 C3701 1.404 . S
C3700 C3703 1.539 . S
C3701 C3697 1.408 . S
C3701 C3700 1.404 . S
C3701 H3713 0.930 . S
C3702 C3698 1.524 . S
C3702 H3714 0.956 . S
C3702 H3715 0.961 . S
C3702 H3716 0.961 . S
C3703 C3700 1.539 . S
C3703 H3717 0.958 . S
C3703 H3718 0.961 . S
C3703 H3719 0.960 . S
H3704 C3688 0.931 . S
H3705 C3693 0.929 . S
H3706 C3694 0.960 . S
H3707 C3694 0.962 . S
H3708 C3694 0.960 . S
H3709 C3695 0.961 . S
H3710 C3695 0.961 . S
H3711 C3695 0.961 . S
H3712 C3696 0.931 . S
H3713 C3701 0.930 . S
H3714 C3702 0.956 . S
H3715 C3702 0.961 . S
H3716 C3702 0.961 . S
H3717 C3703 0.958 . S
H3718 C3703 0.961 . S
H3719 C3703 0.960 . S
C3720 C3721 1.391 . S
C3720 C3722 1.394 . S
C3720 H3736 0.931 . S
C3721 C3720 1.391 . S
C3721 C3725 1.376 . S
C3722 C3720 1.394 . S
C3722 C3723 1.369 . S
C3722 C3726 1.531 . S
C3723 C3722 1.369 . S
C3723 C3724 1.410 . S
C3723 C3731 1.503 . S
C3724 C3723 1.410 . S
C3724 C3725 1.392 . S
C3724 C3727 1.511 . S
C3725 C3721 1.376 . S
C3725 C3724 1.392 . S
C3725 H3737 0.929 . S
C3726 C3722 1.531 . S
C3726 H3738 0.960 . S
C3726 H3739 0.962 . S
C3726 H3740 0.960 . S
C3727 C3724 1.511 . S
C3727 H3741 0.961 . S
C3727 H3742 0.961 . S
C3727 H3743 0.961 . S
C3728 C3729 1.370 . S
C3728 C3730 1.363 . S
C3728 H3744 0.931 . S
C3729 C3728 1.370 . S
C3729 C3733 1.408 . S
C3730 C3728 1.363 . S
C3730 C3731 1.370 . S
C3730 C3734 1.524 . S
C3731 C3723 1.503 . S
C3731 C3730 1.370 . S
C3731 C3732 1.403 . S
C3732 C3731 1.403 . S
C3732 C3733 1.404 . S
C3732 C3735 1.539 . S
C3733 C3729 1.408 . S
C3733 C3732 1.404 . S
C3733 H3745 0.930 . S
C3734 C3730 1.524 . S
C3734 H3746 0.956 . S
C3734 H3747 0.961 . S
C3734 H3748 0.961 . S
C3735 C3732 1.539 . S
C3735 H3749 0.958 . S
C3735 H3750 0.961 . S
C3735 H3751 0.960 . S
H3736 C3720 0.931 . S
H3737 C3725 0.929 . S
H3738 C3726 0.960 . S
H3739 C3726 0.962 . S
H3740 C3726 0.960 . S
H3741 C3727 0.961 . S
H3742 C3727 0.961 . S
H3743 C3727 0.961 . S
H3744 C3728 0.931 . S
H3745 C3733 0.930 . S
H3746 C3734 0.956 . S
H3747 C3734 0.961 . S
H3748 C3734 0.961 . S
H3749 C3735 0.958 . S
H3750 C3735 0.961 . S
H3751 C3735 0.960 . S
C3752 C3753 1.391 . S
C3752 C3754 1.394 . S
C3752 H3768 0.931 . S
C3753 C3752 1.391 . S
C3753 C3757 1.376 . S
C3754 C3752 1.394 . S
C3754 C3755 1.369 . S
C3754 C3758 1.531 . S
C3755 C3754 1.369 . S
C3755 C3756 1.410 . S
C3755 C3763 1.503 . S
C3756 C3755 1.410 . S
C3756 C3757 1.392 . S
C3756 C3759 1.511 . S
C3757 C3753 1.376 . S
C3757 C3756 1.392 . S
C3757 H3769 0.929 . S
C3758 C3754 1.531 . S
C3758 H3770 0.960 . S
C3758 H3771 0.962 . S
C3758 H3772 0.960 . S
C3759 C3756 1.511 . S
C3759 H3773 0.961 . S
C3759 H3774 0.961 . S
C3759 H3775 0.961 . S
C3760 C3761 1.370 . S
C3760 C3762 1.363 . S
C3760 H3776 0.931 . S
C3761 C3760 1.370 . S
C3761 C3765 1.408 . S
C3762 C3760 1.363 . S
C3762 C3763 1.370 . S
C3762 C3766 1.524 . S
C3763 C3755 1.503 . S
C3763 C3762 1.370 . S
C3763 C3764 1.403 . S
C3764 C3763 1.403 . S
C3764 C3765 1.404 . S
C3764 C3767 1.539 . S
C3765 C3761 1.408 . S
C3765 C3764 1.404 . S
C3765 H3777 0.930 . S
C3766 C3762 1.524 . S
C3766 H3778 0.956 . S
C3766 H3779 0.961 . S
C3766 H3780 0.961 . S
C3767 C3764 1.539 . S
C3767 H3781 0.958 . S
C3767 H3782 0.961 . S
C3767 H3783 0.960 . S
H3768 C3752 0.931 . S
H3769 C3757 0.929 . S
H3770 C3758 0.960 . S
H3771 C3758 0.962 . S
H3772 C3758 0.960 . S
H3773 C3759 0.961 . S
H3774 C3759 0.961 . S
H3775 C3759 0.961 . S
H3776 C3760 0.931 . S
H3777 C3765 0.930 . S
H3778 C3766 0.956 . S
H3779 C3766 0.961 . S
H3780 C3766 0.961 . S
H3781 C3767 0.958 . S
H3782 C3767 0.961 . S
H3783 C3767 0.960 . S
C3784 C3785 1.391 . S
C3784 C3786 1.394 . S
C3784 H3800 0.931 . S
C3785 C3784 1.391 . S
C3785 C3789 1.376 . S
C3786 C3784 1.394 . S
C3786 C3787 1.369 . S
C3786 C3790 1.531 . S
C3787 C3786 1.369 . S
C3787 C3788 1.410 . S
C3787 C3795 1.503 . S
C3788 C3787 1.410 . S
C3788 C3789 1.392 . S
C3788 C3791 1.511 . S
C3789 C3785 1.376 . S
C3789 C3788 1.392 . S
C3789 H3801 0.929 . S
C3790 C3786 1.531 . S
C3790 H3802 0.960 . S
C3790 H3803 0.962 . S
C3790 H3804 0.960 . S
C3791 C3788 1.511 . S
C3791 H3805 0.961 . S
C3791 H3806 0.961 . S
C3791 H3807 0.961 . S
C3792 C3793 1.370 . S
C3792 C3794 1.363 . S
C3792 H3808 0.931 . S
C3793 C3792 1.370 . S
C3793 C3797 1.408 . S
C3794 C3792 1.363 . S
C3794 C3795 1.370 . S
C3794 C3798 1.524 . S
C3795 C3787 1.503 . S
C3795 C3794 1.370 . S
C3795 C3796 1.403 . S
C3796 C3795 1.403 . S
C3796 C3797 1.404 . S
C3796 C3799 1.539 . S
C3797 C3793 1.408 . S
C3797 C3796 1.404 . S
C3797 H3809 0.930 . S
C3798 C3794 1.524 . S
C3798 H3810 0.956 . S
C3798 H3811 0.961 . S
C3798 H3812 0.961 . S
C3799 C3796 1.539 . S
C3799 H3813 0.958 . S
C3799 H3814 0.961 . S
C3799 H3815 0.960 . S
H3800 C3784 0.931 . S
H3801 C3789 0.929 . S
H3802 C3790 0.960 . S
H3803 C3790 0.962 . S
H3804 C3790 0.960 . S
H3805 C3791 0.961 . S
H3806 C3791 0.961 . S
H3807 C3791 0.961 . S
H3808 C3792 0.931 . S
H3809 C3797 0.930 . S
H3810 C3798 0.956 . S
H3811 C3798 0.961 . S
H3812 C3798 0.961 . S
H3813 C3799 0.958 . S
H3814 C3799 0.961 . S
H3815 C3799 0.960 . S
C3816 C3817 1.391 . S
C3816 C3818 1.394 . S
C3816 H3832 0.931 . S
C3817 C3816 1.391 . S
C3817 C3821 1.376 . S
C3818 C3816 1.394 . S
C3818 C3819 1.369 . S
C3818 C3822 1.531 . S
C3819 C3818 1.369 . S
C3819 C3820 1.410 . S
C3819 C3827 1.503 . S
C3820 C3819 1.410 . S
C3820 C3821 1.392 . S
C3820 C3823 1.511 . S
C3821 C3817 1.376 . S
C3821 C3820 1.392 . S
C3821 H3833 0.929 . S
C3822 C3818 1.531 . S
C3822 H3834 0.960 . S
C3822 H3835 0.962 . S
C3822 H3836 0.960 . S
C3823 C3820 1.511 . S
C3823 H3837 0.961 . S
C3823 H3838 0.961 . S
C3823 H3839 0.961 . S
C3824 C3825 1.370 . S
C3824 C3826 1.363 . S
C3824 H3840 0.931 . S
C3825 C3824 1.370 . S
C3825 C3829 1.408 . S
C3826 C3824 1.363 . S
C3826 C3827 1.370 . S
C3826 C3830 1.524 . S
C3827 C3819 1.503 . S
C3827 C3826 1.370 . S
C3827 C3828 1.403 . S
C3828 C3827 1.403 . S
C3828 C3829 1.404 . S
C3828 C3831 1.539 . S
C3829 C3825 1.408 . S
C3829 C3828 1.404 . S
C3829 H3841 0.930 . S
C3830 C3826 1.524 . S
C3830 H3842 0.956 . S
C3830 H3843 0.961 . S
C3830 H3844 0.961 . S
C3831 C3828 1.539 . S
C3831 H3845 0.958 . S
C3831 H3846 0.961 . S
C3831 H3847 0.960 . S
H3832 C3816 0.931 . S
H3833 C3821 0.929 . S
H3834 C3822 0.960 . S
H3835 C3822 0.962 . S
H3836 C3822 0.960 . S
H3837 C3823 0.961 . S
H3838 C3823 0.961 . S
H3839 C3823 0.961 . S
H3840 C3824 0.931 . S
H3841 C3829 0.930 . S
H3842 C3830 0.956 . S
H3843 C3830 0.961 . S
H3844 C3830 0.961 . S
H3845 C3831 0.958 . S
H3846 C3831 0.961 . S
H3847 C3831 0.960 . S
C3848 C3849 1.391 . S
C3848 C3850 1.394 . S
C3848 H3864 0.931 . S
C3849 C3848 1.391 . S
C3849 C3853 1.376 . S
C3850 C3848 1.394 . S
C3850 C3851 1.369 . S
C3850 C3854 1.531 . S
C3851 C3850 1.369 . S
C3851 C3852 1.410 . S
C3851 C3859 1.503 . S
C3852 C3851 1.410 . S
C3852 C3853 1.392 . S
C3852 C3855 1.511 . S
C3853 C3849 1.376 . S
C3853 C3852 1.392 . S
C3853 H3865 0.929 . S
C3854 C3850 1.531 . S
C3854 H3866 0.960 . S
C3854 H3867 0.962 . S
C3854 H3868 0.960 . S
C3855 C3852 1.511 . S
C3855 H3869 0.961 . S
C3855 H3870 0.961 . S
C3855 H3871 0.961 . S
C3856 C3857 1.370 . S
C3856 C3858 1.363 . S
C3856 H3872 0.931 . S
C3857 C3856 1.370 . S
C3857 C3861 1.408 . S
C3858 C3856 1.363 . S
C3858 C3859 1.370 . S
C3858 C3862 1.524 . S
C3859 C3851 1.503 . S
C3859 C3858 1.370 . S
C3859 C3860 1.403 . S
C3860 C3859 1.403 . S
C3860 C3861 1.404 . S
C3860 C3863 1.539 . S
C3861 C3857 1.408 . S
C3861 C3860 1.404 . S
C3861 H3873 0.930 . S
C3862 C3858 1.524 . S
C3862 H3874 0.956 . S
C3862 H3875 0.961 . S
C3862 H3876 0.961 . S
C3863 C3860 1.539 . S
C3863 H3877 0.958 . S
C3863 H3878 0.961 . S
C3863 H3879 0.960 . S
H3864 C3848 0.931 . S
H3865 C3853 0.929 . S
H3866 C3854 0.960 . S
H3867 C3854 0.962 . S
H3868 C3854 0.960 . S
H3869 C3855 0.961 . S
H3870 C3855 0.961 . S
H3871 C3855 0.961 . S
H3872 C3856 0.931 . S
H3873 C3861 0.930 . S
H3874 C3862 0.956 . S
H3875 C3862 0.961 . S
H3876 C3862 0.961 . S
H3877 C3863 0.958 . S
H3878 C3863 0.961 . S
H3879 C3863 0.960 . S
C3880 C3881 1.391 . S
C3880 C3882 1.394 . S
C3880 H3896 0.931 . S
C3881 C3880 1.391 . S
C3881 C3885 1.376 . S
C3882 C3880 1.394 . S
C3882 C3883 1.369 . S
C3882 C3886 1.531 . S
C3883 C3882 1.369 . S
C3883 C3884 1.410 . S
C3883 C3891 1.503 . S
C3884 C3883 1.410 . S
C3884 C3885 1.392 . S
C3884 C3887 1.511 . S
C3885 C3881 1.376 . S
C3885 C3884 1.392 . S
C3885 H3897 0.929 . S
C3886 C3882 1.531 . S
C3886 H3898 0.960 . S
C3886 H3899 0.962 . S
C3886 H3900 0.960 . S
C3887 C3884 1.511 . S
C3887 H3901 0.961 . S
C3887 H3902 0.961 . S
C3887 H3903 0.961 . S
C3888 C3889 1.370 . S
C3888 C3890 1.363 . S
C3888 H3904 0.931 . S
C3889 C3888 1.370 . S
C3889 C3893 1.408 . S
C3890 C3888 1.363 . S
C3890 C3891 1.370 . S
C3890 C3894 1.524 . S
C3891 C3883 1.503 . S
C3891 C3890 1.370 . S
C3891 C3892 1.403 . S
C3892 C3891 1.403 . S
C3892 C3893 1.404 . S
C3892 C3895 1.539 . S
C3893 C3889 1.408 . S
C3893 C3892 1.404 . S
C3893 H3905 0.930 . S
C3894 C3890 1.524 . S
C3894 H3906 0.956 . S
C3894 H3907 0.961 . S
C3894 H3908 0.961 . S
C3895 C3892 1.539 . S
C3895 H3909 0.958 . S
C3895 H3910 0.961 . S
C3895 H3911 0.960 . S
H3896 C3880 0.931 . S
H3897 C3885 0.929 . S
H3898 C3886 0.960 . S
H3899 C3886 0.962 . S
H3900 C3886 0.960 . S
H3901 C3887 0.961 . S
H3902 C3887 0.961 . S
H3903 C3887 0.961 . S
H3904 C3888 0.931 . S
H3905 C3893 0.930 . S
H3906 C3894 0.956 . S
H3907 C3894 0.961 . S
H3908 C3894 0.961 . S
H3909 C3895 0.958 . S
H3910 C3895 0.961 . S
H3911 C3895 0.960 . S
C3912 C3913 1.391 . S
C3912 C3914 1.394 . S
C3912 H3928 0.931 . S
C3913 C3912 1.391 . S
C3913 C3917 1.376 . S
C3914 C3912 1.394 . S
C3914 C3915 1.369 . S
C3914 C3918 1.531 . S
C3915 C3914 1.369 . S
C3915 C3916 1.410 . S
C3915 C3923 1.503 . S
C3916 C3915 1.410 . S
C3916 C3917 1.392 . S
C3916 C3919 1.511 . S
C3917 C3913 1.376 . S
C3917 C3916 1.392 . S
C3917 H3929 0.929 . S
C3918 C3914 1.531 . S
C3918 H3930 0.960 . S
C3918 H3931 0.962 . S
C3918 H3932 0.960 . S
C3919 C3916 1.511 . S
C3919 H3933 0.961 . S
C3919 H3934 0.961 . S
C3919 H3935 0.961 . S
C3920 C3921 1.370 . S
C3920 C3922 1.363 . S
C3920 H3936 0.931 . S
C3921 C3920 1.370 . S
C3921 C3925 1.408 . S
C3922 C3920 1.363 . S
C3922 C3923 1.370 . S
C3922 C3926 1.524 . S
C3923 C3915 1.503 . S
C3923 C3922 1.370 . S
C3923 C3924 1.403 . S
C3924 C3923 1.403 . S
C3924 C3925 1.404 . S
C3924 C3927 1.539 . S
C3925 C3921 1.408 . S
C3925 C3924 1.404 . S
C3925 H3937 0.930 . S
C3926 C3922 1.524 . S
C3926 H3938 0.956 . S
C3926 H3939 0.961 . S
C3926 H3940 0.961 . S
C3927 C3924 1.539 . S
C3927 H3941 0.958 . S
C3927 H3942 0.961 . S
C3927 H3943 0.960 . S
H3928 C3912 0.931 . S
H3929 C3917 0.929 . S
H3930 C3918 0.960 . S
H3931 C3918 0.962 . S
H3932 C3918 0.960 . S
H3933 C3919 0.961 . S
H3934 C3919 0.961 . S
H3935 C3919 0.961 . S
H3936 C3920 0.931 . S
H3937 C3925 0.930 . S
H3938 C3926 0.956 . S
H3939 C3926 0.961 . S
H3940 C3926 0.961 . S
H3941 C3927 0.958 . S
H3942 C3927 0.961 . S
H3943 C3927 0.960 . S
C3944 C3945 1.391 . S
C3944 C3946 1.394 . S
C3944 H3960 0.931 . S
C3945 C3944 1.391 . S
C3945 C3949 1.376 . S
C3946 C3944 1.394 . S
C3946 C3947 1.369 . S
C3946 C3950 1.531 . S
C3947 C3946 1.369 . S
C3947 C3948 1.410 . S
C3947 C3955 1.503 . S
C3948 C3947 1.410 . S
C3948 C3949 1.392 . S
C3948 C3951 1.511 . S
C3949 C3945 1.376 . S
C3949 C3948 1.392 . S
C3949 H3961 0.929 . S
C3950 C3946 1.531 . S
C3950 H3962 0.960 . S
C3950 H3963 0.962 . S
C3950 H3964 0.960 . S
C3951 C3948 1.511 . S
C3951 H3965 0.961 . S
C3951 H3966 0.961 . S
C3951 H3967 0.961 . S
C3952 C3953 1.370 . S
C3952 C3954 1.363 . S
C3952 H3968 0.931 . S
C3953 C3952 1.370 . S
C3953 C3957 1.408 . S
C3954 C3952 1.363 . S
C3954 C3955 1.370 . S
C3954 C3958 1.524 . S
C3955 C3947 1.503 . S
C3955 C3954 1.370 . S
C3955 C3956 1.403 . S
C3956 C3955 1.403 . S
C3956 C3957 1.404 . S
C3956 C3959 1.539 . S
C3957 C3953 1.408 . S
C3957 C3956 1.404 . S
C3957 H3969 0.930 . S
C3958 C3954 1.524 . S
C3958 H3970 0.956 . S
C3958 H3971 0.961 . S
C3958 H3972 0.961 . S
C3959 C3956 1.539 . S
C3959 H3973 0.958 . S
C3959 H3974 0.961 . S
C3959 H3975 0.960 . S
H3960 C3944 0.931 . S
H3961 C3949 0.929 . S
H3962 C3950 0.960 . S
H3963 C3950 0.962 . S
H3964 C3950 0.960 . S
H3965 C3951 0.961 . S
H3966 C3951 0.961 . S
H3967 C3951 0.961 . S
H3968 C3952 0.931 . S
H3969 C3957 0.930 . S
H3970 C3958 0.956 . S
H3971 C3958 0.961 . S
H3972 C3958 0.961 . S
H3973 C3959 0.958 . S
H3974 C3959 0.961 . S
H3975 C3959 0.960 . S
C3976 C3977 1.391 . S
C3976 C3978 1.394 . S
C3976 H3992 0.931 . S
C3977 C3976 1.391 . S
C3977 C3981 1.376 . S
C3978 C3976 1.394 . S
C3978 C3979 1.369 . S
C3978 C3982 1.531 . S
C3979 C3978 1.369 . S
C3979 C3980 1.410 . S
C3979 C3987 1.503 . S
C3980 C3979 1.410 . S
C3980 C3981 1.392 . S
C3980 C3983 1.511 . S
C3981 C3977 1.376 . S
C3981 C3980 1.392 . S
C3981 H3993 0.929 . S
C3982 C3978 1.531 . S
C3982 H3994 0.960 . S
C3982 H3995 0.962 . S
C3982 H3996 0.960 . S
C3983 C3980 1.511 . S
C3983 H3997 0.961 . S
C3983 H3998 0.961 . S
C3983 H3999 0.961 . S
C3984 C3985 1.370 . S
C3984 C3986 1.363 . S
C3984 H4000 0.931 . S
C3985 C3984 1.370 . S
C3985 C3989 1.408 . S
C3986 C3984 1.363 . S
C3986 C3987 1.370 . S
C3986 C3990 1.524 . S
C3987 C3979 1.503 . S
C3987 C3986 1.370 . S
C3987 C3988 1.403 . S
C3988 C3987 1.403 . S
C3988 C3989 1.404 . S
C3988 C3991 1.539 . S
C3989 C3985 1.408 . S
C3989 C3988 1.404 . S
C3989 H4001 0.930 . S
C3990 C3986 1.524 . S
C3990 H4002 0.956 . S
C3990 H4003 0.961 . S
C3990 H4004 0.961 . S
C3991 C3988 1.539 . S
C3991 H4005 0.958 . S
C3991 H4006 0.961 . S
C3991 H4007 0.960 . S
H3992 C3976 0.931 . S
H3993 C3981 0.929 . S
H3994 C3982 0.960 . S
H3995 C3982 0.962 . S
H3996 C3982 0.960 . S
H3997 C3983 0.961 . S
H3998 C3983 0.961 . S
H3999 C3983 0.961 . S
H4000 C3984 0.931 . S
H4001 C3989 0.930 . S
H4002 C3990 0.956 . S
H4003 C3990 0.961 . S
H4004 C3990 0.961 . S
H4005 C3991 0.958 . S
H4006 C3991 0.961 . S
H4007 C3991 0.960 . S
C945 N396 1.737 . S
C937 C9 1.787 . S
C977 C423 1.589 . S
C969 C16 1.588 . S
C1001 C30 1.821 . S
C1009 C437 1.849 . S
C1041 N455 0.715 . S
C1033 C40 0.755 . S
C1065 C52 1.539 . S
C1073 C460 1.538 . S
C1097 C66 1.820 . S
C1105 C400 1.819 . S
C1129 C76 0.690 . S
C1137 N419 0.670 . S
C1169 N432 1.765 . S
C1161 C90 1.804 . S
C1201 N478 1.765 . S
C1193 C6 1.800 . S
C1225 C21 1.675 . S
C1233 N501 1.627 . S
C1257 C28 1.667 . S
C1265 N524 1.658 . S
C1297 N557 1.149 . S
C1289 C45 1.180 . S
C1321 C54 1.573 . S
C1329 C584 1.558 . S
C1361 C607 2.051 . S
C1353 C69 2.047 . S
C1385 C81 0.984 . S
C1393 C630 0.998 1_655 S
C1425 C644 1.590 . S
C1417 C88 1.572 . S
C1449 C4 1.501 . S
C1457 C561 1.509 . S
C1481 C57 1.622 . S
C1489 N603 1.580 . S
C1521 N626 1.587 . S
C1513 C64 1.598 . S
C1545 C78 1.181 . S
C1553 N639 1.174 . S
C1585 N580 1.746 . S
C1577 C93 1.802 . S
C1617 C506 2.124 . S
C1609 C33 2.111 . S
C1641 C42 0.959 . S
C1649 C529 0.941 . S
C1681 C483 1.632 . S
C1673 C18 1.618 . S
C1713 C676 1.734 . S
C1705 C105 1.740 . S
C1737 C112 1.522 . S
C1745 C690 1.552 . S
C1769 C126 1.790 . S
C1777 N718 1.769 . S
C1809 N731 0.682 . S
C1801 C136 0.635 . S
C1833 C148 1.524 . S
C1841 C736 1.531 . S
C1865 C162 1.758 . S
C1873 N672 1.701 . S
C1897 C172 0.790 . S
C1905 N685 0.767 . S
C1929 C186 1.713 . S
C1937 C722 1.722 . S
C1969 N570 1.776 . S
C1961 C102 1.798 . S
C1993 C117 1.589 . S
C2001 N754 1.537 . S
C2033 N616 1.563 1_655 S
C2025 C124 1.611 . S
C2057 C141 1.156 . S
C2065 C791 1.170 . S
C2089 C150 1.671 . S
C2097 C492 1.672 . S
C2129 C805 2.104 . S
C2121 C165 2.095 . S
C2153 C177 1.088 . S
C2161 C538 1.088 . S
C2193 N823 1.430 . S
C2185 C184 1.485 . S
C2217 C100 1.536 . S
C2225 N787 1.508 . S
C2257 N800 1.545 . S
C2249 C153 1.582 . S
C2281 C160 1.595 . S
C2289 N534 1.589 . S
C2321 C828 0.963 . S
C2313 C174 0.964 . S
C2345 C189 1.788 . S
C2353 N488 1.744 . S
C2377 C129 2.028 . S
C2385 C759 2.046 . S
C2409 C138 1.062 . S
C2417 C621 1.073 . S
C2441 C114 1.685 . S
C2449 C575 1.688 . S
C2473 C201 1.806 . S
C2481 C713 1.816 . S
C2513 C745 1.494 . S
C2505 C208 1.497 . S
C2537 C222 1.804 . S
C2545 N662 1.765 . S
C2569 C232 0.684 . S
C2577 N695 0.696 . S
C2601 C244 1.538 . S
C2609 C699 1.543 . S
C2633 C258 1.876 . S
C2641 N708 1.846 . S
C2673 N741 0.621 . S
C2665 C268 0.640 . S
C2697 C282 1.791 . S
C2705 C667 1.802 . S
C2737 N856 1.798 . S
C2729 C198 1.826 . S
C2761 C213 1.542 . S
C2769 N593 1.529 . S
C2801 N879 1.497 . S
C2793 C220 1.537 . S
C2825 C237 1.245 . S
C2833 N649 1.206 . S
C2857 C246 1.628 . S
C2865 C897 1.626 . S
C2889 C261 2.137 . S
C2897 C515 2.133 . S
C2929 N915 0.981 . S
C2921 C273 1.007 . S
C2953 C280 1.553 . S
C2961 C552 1.572 . S
C2993 C653 1.560 . S
C2985 C196 1.550 . S
C3025 N511 1.583 . S
C3017 C249 1.587 . S
C3049 C256 1.744 . S
C3057 C920 1.762 . S
C3081 C270 1.001 . S
C3089 N547 0.986 . S
C3121 N892 1.805 . S
C3113 C285 1.847 . S
C3153 C598 2.020 1_565 S
C3145 C225 1.999 . S
C3185 C883 1.100 . S
C3177 C234 1.106 . S
C3217 C860 1.662 . S
C3209 C210 1.656 . S
C3241 C297 1.735 . S
C3249 N442 1.693 . S
C3273 C304 1.513 . S
C3281 C469 1.497 . S
C3313 C391 1.868 . S
C3305 C318 1.844 . S
C3345 N409 0.589 . S
C3337 C328 0.659 . S
C3377 C414 1.588 . S
C3369 C340 1.546 . S
C3409 C446 1.751 . S
C3401 C354 1.740 . S
C3441 N465 0.826 . S
C3433 C364 0.838 . S
C3465 C378 1.801 . S
C3473 N386 1.774 . S
C3497 C294 1.768 . S
C3505 N902 1.712 . S
C3537 N810 1.549 . S
C3529 C309 1.585 . S
C3569 C929 1.771 . S
C3561 C316 1.774 . S
C3601 C837 0.933 . S
C3593 C333 0.943 . S
C3625 C342 1.677 . S
C3633 C851 1.672 . S
C3665 C768 2.057 . S
C3657 C357 2.062 . S
C3697 C874 1.214 . S
C3689 C369 1.233 . S
C3721 C376 1.562 . S
C3729 N777 1.532 . S
C3761 N833 1.419 . S
C3753 C292 1.457 . S
C3793 N764 1.554 . S
C3785 C345 1.590 . S
C3825 N869 1.477 . S
C3817 C352 1.524 . S
C3849 C366 1.093 . S
C3857 C782 1.095 . S
C3881 C381 1.754 . S
C3889 N846 1.736 . S
C3913 C321 2.150 . S
C3921 C814 2.150 . S
C3945 C330 1.034 . S
C3953 N925 1.027 . S
C3985 C906 1.588 . S
C3977 C306 1.585 . S
