# Generated by pormake.
# Topology anh, (6,3)-cn, num edge types: 1
# Building blocks:
#     Node 0, Type 0, BuildingBlock: BETDEL_clean_sbu_0, # of connection points: 6
#     Node 1, Type 0, BuildingBlock: BETDEL_clean_sbu_0, # of connection points: 6
#     Node 2, Type 0, BuildingBlock: BETDEL_clean_sbu_0, # of connection points: 6
#     Node 3, Type 1, BuildingBlock: BETDAH_clean_linker_0, # of connection points: 3
#     Node 4, Type 1, BuildingBlock: BETDAH_clean_linker_0, # of connection points: 3
#     Node 5, Type 1, BuildingBlock: BETDAH_clean_linker_0, # of connection points: 3
#     Node 6, Type 1, BuildingBlock: BETDAH_clean_linker_0, # of connection points: 3
#     Node 7, Type 1, BuildingBlock: BETDAH_clean_linker_0, # of connection points: 3
#     Node 8, Type 1, BuildingBlock: BETDAH_clean_linker_0, # of connection points: 3
#     Edge 9, Type (0, 1), BuildingBlock: XIVTED_clean_linker_0, # of connection points: 2
#     Edge 10, Type (0, 1), BuildingBlock: XIVTED_clean_linker_0, # of connection points: 2
#     Edge 11, Type (0, 1), BuildingBlock: XIVTED_clean_linker_0, # of connection points: 2
#     Edge 12, Type (0, 1), BuildingBlock: XIVTED_clean_linker_0, # of connection points: 2
#     Edge 13, Type (0, 1), BuildingBlock: XIVTED_clean_linker_0, # of connection points: 2
#     Edge 14, Type (0, 1), BuildingBlock: XIVTED_clean_linker_0, # of connection points: 2
#     Edge 15, Type (0, 1), BuildingBlock: XIVTED_clean_linker_0, # of connection points: 2
#     Edge 16, Type (0, 1), BuildingBlock: XIVTED_clean_linker_0, # of connection points: 2
#     Edge 17, Type (0, 1), BuildingBlock: XIVTED_clean_linker_0, # of connection points: 2
#     Edge 18, Type (0, 1), BuildingBlock: XIVTED_clean_linker_0, # of connection points: 2
#     Edge 19, Type (0, 1), BuildingBlock: XIVTED_clean_linker_0, # of connection points: 2
#     Edge 20, Type (0, 1), BuildingBlock: XIVTED_clean_linker_0, # of connection points: 2
#     Edge 21, Type (0, 1), BuildingBlock: XIVTED_clean_linker_0, # of connection points: 2
#     Edge 22, Type (0, 1), BuildingBlock: XIVTED_clean_linker_0, # of connection points: 2
#     Edge 23, Type (0, 1), BuildingBlock: XIVTED_clean_linker_0, # of connection points: 2
#     Edge 24, Type (0, 1), BuildingBlock: XIVTED_clean_linker_0, # of connection points: 2
#     Edge 25, Type (0, 1), BuildingBlock: XIVTED_clean_linker_0, # of connection points: 2
#     Edge 26, Type (0, 1), BuildingBlock: XIVTED_clean_linker_0, # of connection points: 2
# Relax obj value: 0.095
# Max RMSD: 0.133
# Mean RMSD: 0.100
data_MOF--net-anh--node1-BETDEL_clean_sbu_0--node2-BETDAH_clean_linker_0--edge1-XIVTED_clean_linker_0
_symmetry_space_group_name_H-M    P1
_symmetry_Int_Tables_number       1
_symmetry_cell_setting            triclinic
loop_
_symmetry_equiv_pos_as_xyz
'x, y, z'
_cell_length_a     30.360128
_cell_length_b     30.346207
_cell_length_c     47.459603
_cell_angle_alpha  91.895014
_cell_angle_beta   92.081373
_cell_angle_gamma 120.05448
loop_
_atom_site_label
_atom_site_type_symbol
_atom_site_fract_x
_atom_site_fract_y
_atom_site_fract_z
_atom_type_partial_charge
Dy0 Dy 0.0578 0.4665 0.16784 0.0
C1 C 0.93069 0.55484 0.19407 0.0
C2 C 0.12234 0.43258 0.15419 0.0
Dy3 Dy 0.99242 0.52197 0.17352 0.0
O4 O 0.11623 0.44502 0.17956 0.0
O5 O 0.0931 0.43869 0.13592 0.0
O6 O 0.03559 0.4379 0.21108 0.0
O7 O 0.04244 0.50785 0.20091 0.0
C8 C 0.0293 0.4755 0.21946 0.0
C9 C 0.99916 0.49943 0.11888 0.0
O10 O 0.0716 0.58946 0.17988 0.0
O11 O 0.11718 0.5498 0.16583 0.0
O12 O 0.96379 0.57736 0.17521 0.0
O13 O 0.93298 0.51555 0.20231 0.0
O14 O 0.9737 0.52122 0.12662 0.0
O15 O 0.01757 0.49117 0.14073 0.0
O16 O 0.97865 0.39961 0.15935 0.0
O17 O 0.93546 0.43888 0.17739 0.0
C18 C 0.1147 0.59128 0.17318 0.0
C19 C 0.93661 0.39762 0.1682 0.0
Dy20 Dy 0.5098 0.03496 0.49464 0.0
C21 C 0.73006 0.16253 0.52459 0.0
C22 C 0.4109 0.98483 0.47419 0.0
Dy23 Dy 0.63187 0.09984 0.50414 0.0
O24 O 0.42675 1.00744 0.49926 0.0
O25 O 0.44925 0.99042 0.46022 0.0
O26 O 0.50488 1.00435 0.5375 0.0
O27 O 0.56589 0.0766 0.52964 0.0
C28 C 0.54822 0.04273 0.54738 0.0
C29 C 0.60034 0.08223 0.4487 0.0
O30 O 0.61406 0.01994 0.51226 0.0
O31 O 0.5327 0.97543 0.48935 0.0
O32 O 0.71569 0.127 0.50454 0.0
O33 O 0.69031 0.16188 0.53431 0.0
O34 O 0.64795 0.10967 0.45744 0.0
O35 O 0.57501 0.06802 0.4701 0.0
O36 O 0.52431 0.11568 0.49304 0.0
O37 O 0.61234 0.16178 0.50448 0.0
C38 C 0.57365 0.97684 0.50155 0.0
C39 C 0.56795 0.15941 0.49888 0.0
Dy40 Dy 0.60115 0.61147 0.83696 0.0
C41 C 0.50079 0.3928 0.8542 0.0
C42 C 0.64017 0.71063 0.82425 0.0
Dy43 Dy 0.53915 0.49046 0.83891 0.0
O44 O 0.64795 0.69538 0.84815 0.0
O45 O 0.61104 0.67156 0.807 0.0
O46 O 0.63181 0.61724 0.88139 0.0
O47 O 0.55962 0.55578 0.86807 0.0
C48 C 0.59359 0.57416 0.88802 0.0
C49 C 0.56098 0.51937 0.78547 0.0
O50 O 0.4754 0.50695 0.84398 0.0
O51 O 0.51948 0.59452 0.83683 0.0
O52 O 0.47955 0.40757 0.83531 0.0
O53 O 0.54173 0.43222 0.86576 0.0
O54 O 0.53668 0.47206 0.79183 0.0
O55 O 0.57124 0.54635 0.80791 0.0
O56 O 0.66223 0.59232 0.82824 0.0
O57 O 0.62111 0.51191 0.8465 0.0
C58 C 0.47665 0.55104 0.84085 0.0
C59 C 0.66251 0.55155 0.83755 0.0
H60 H 0.4278 0.92497 0.2488 0.0
H61 H 0.57652 0.04383 0.22849 0.0
H62 H 0.47234 0.93671 0.16324 0.0
C63 C 0.45594 0.94414 0.23347 0.0
C64 C 0.44423 0.92543 0.20512 0.0
C65 C 0.50369 0.98644 0.24235 0.0
C66 C 0.53945 1.01156 0.22199 0.0
C67 C 0.52809 0.99397 0.19337 0.0
C68 C 0.48082 0.9505 0.18524 0.0
N69 N 0.56335 0.01838 0.17225 0.0
C70 C 0.60955 0.06424 0.1764 0.0
H71 H 0.58161 0.47692 0.58299 0.0
H72 H 0.57282 0.6117 0.56825 0.0
H73 H 0.55156 0.50635 0.49877 0.0
C74 C 0.5768 0.5014 0.56859 0.0
C75 C 0.56712 0.48658 0.53972 0.0
C76 C 0.57888 0.54631 0.57923 0.0
C77 C 0.57091 0.57687 0.56033 0.0
C78 C 0.56116 0.56257 0.53118 0.0
C79 C 0.55877 0.51716 0.52118 0.0
N80 N 0.55406 0.59275 0.51116 0.0
C81 C 0.55737 0.63975 0.51694 0.0
H82 H 0.95364 0.51077 0.91684 0.0
H83 H 0.10133 0.52882 0.90408 0.0
H84 H 0.02247 0.56192 0.83818 0.0
C85 C 0.98481 0.51988 0.90335 0.0
C86 C 0.98232 0.5357 0.8762 0.0
C87 C 0.02737 0.51719 0.9137 0.0
C88 C 0.0685 0.53099 0.89636 0.0
C89 C 0.06676 0.54708 0.86899 0.0
C90 C 0.02385 0.54982 0.85927 0.0
N91 N 0.10697 0.56061 0.85049 0.0
C92 C 0.15046 0.55686 0.85576 0.0
H93 H 0.07434 0.65314 0.40086 0.0
H94 H 1.00269 0.51301 0.44352 0.0
H95 H 0.10149 0.65501 0.49044 0.0
C96 C 0.06673 0.63315 0.42018 0.0
C97 C 0.09104 0.66075 0.44572 0.0
C98 C 0.03499 0.57984 0.41904 0.0
C99 C 0.02661 0.55412 0.44422 0.0
C100 C 0.05016 0.5817 0.4701 0.0
C101 C 0.08207 0.63459 0.47058 0.0
N102 N 0.04478 0.55782 0.49597 0.0
C103 C 1.01141 0.50666 0.49972 0.0
H104 H 0.56344 0.13534 0.75376 0.0
H105 H 0.66435 0.07613 0.76445 0.0
H106 H 0.63584 0.14662 0.83584 0.0
C107 C 0.5888 0.12916 0.76754 0.0
C108 C 0.59561 0.14409 0.79652 0.0
C109 C 0.61439 0.10589 0.75579 0.0
C110 C 0.6446 0.09417 0.77346 0.0
C111 C 0.65155 0.10835 0.80248 0.0
C112 C 0.62824 0.1343 0.81365 0.0
N113 N 0.68266 0.09792 0.82084 0.0
C114 C 0.6892 0.05627 0.81599 0.0
H115 H 0.62797 0.51198 0.09613 0.0
H116 H 0.46568 0.41112 0.08432 0.0
H117 H 0.54379 0.41915 0.16301 0.0
C118 C 0.59199 0.48522 0.10446 0.0
C119 C 0.59157 0.4698 0.13211 0.0
C120 C 0.54693 0.46442 0.08691 0.0
C121 C 0.50083 0.42759 0.09744 0.0
C122 C 0.50022 0.41094 0.12475 0.0
C123 C 0.54533 0.43195 0.14184 0.0
N124 N 0.45495 0.37189 0.13529 0.0
C125 C 0.40829 0.36929 0.13096 0.0
H126 H 0.15942 0.42774 0.10296 0.0
H127 H 0.33999 0.33157 0.17023 0.0
H128 H 0.16753 0.39892 0.19085 0.0
H129 H 0.37008 0.40679 0.09198 0.0
H130 H 0.26384 0.33924 0.17354 0.0
H131 H 0.22507 0.40466 0.09432 0.0
C132 C 0.17465 0.41604 0.1203 0.0
C133 C 0.15853 0.41546 0.14767 0.0
C134 C 0.28672 0.35367 0.15548 0.0
C135 C 0.23253 0.38881 0.13799 0.0
C136 C 0.32988 0.34906 0.15356 0.0
C137 C 0.36069 0.36862 0.13085 0.0
C138 C 0.27459 0.37817 0.13452 0.0
C139 C 0.34672 0.39123 0.10977 0.0
C140 C 0.21206 0.40308 0.1154 0.0
C141 C 0.17929 0.40019 0.16948 0.0
N142 N 0.30456 0.3957 0.11215 0.0
N143 N 0.21521 0.3875 0.16417 0.0
H144 H 0.81284 0.18245 0.49494 0.0
H145 H 0.95435 0.47836 0.54464 0.0
H146 H 0.76389 0.2451 0.5616 0.0
H147 H 0.99115 0.41916 0.47107 0.0
H148 H 0.894 0.39101 0.55642 0.0
H149 H 0.88933 0.26604 0.49218 0.0
C150 C 0.81894 0.21346 0.50955 0.0
C151 C 0.78182 0.20718 0.5283 0.0
C152 C 0.91543 0.39694 0.53779 0.0
C153 C 0.86844 0.30288 0.52486 0.0
C154 C 0.94962 0.44667 0.53106 0.0
C155 C 0.97688 0.45527 0.5068 0.0
C156 C 0.9086 0.35574 0.52002 0.0
C157 C 0.97019 0.41354 0.48987 0.0
C158 C 0.86233 0.26127 0.50777 0.0
C159 C 0.79146 0.24852 0.5467 0.0
N160 N 0.93636 0.36534 0.49671 0.0
N161 N 0.83351 0.29486 0.54424 0.0
H162 H 0.70636 0.79429 0.85743 0.0
H163 H 0.64092 0.98122 0.77497 0.0
H164 H 0.61257 0.74853 0.77965 0.0
H165 H 0.74148 0.02696 0.84995 0.0
H166 H 0.63696 0.89832 0.77314 0.0
H167 H 0.72701 0.88212 0.85199 0.0
C168 C 0.69056 0.80294 0.83902 0.0
C169 C 0.6574 0.76424 0.81908 0.0
C170 C 0.66048 0.92669 0.78977 0.0
C171 C 0.6803 0.86454 0.81283 0.0
C172 C 0.66279 0.97386 0.79075 0.0
C173 C 0.69158 1.01031 0.81263 0.0
C174 C 0.68683 0.91616 0.81103 0.0
C175 C 0.71896 0.99945 0.83276 0.0
C176 C 0.70233 0.85309 0.83591 0.0
C177 C 0.63816 0.7774 0.79554 0.0
N178 N 0.71561 0.95309 0.83162 0.0
N179 N 0.64942 0.82648 0.79322 0.0
H180 H 0.90913 0.62285 0.16979 0.0
H181 H 0.62057 0.42089 0.16989 0.0
H182 H 0.84944 0.4984 0.22517 0.0
H183 H 0.67316 0.56806 0.1356 0.0
H184 H 0.70284 0.4543 0.19536 0.0
H185 H 0.82388 0.61176 0.16284 0.0
C186 C 0.8784 0.59432 0.18123 0.0
C187 C 0.88588 0.56066 0.19752 0.0
C188 C 0.69621 0.47962 0.18263 0.0
C189 C 0.78836 0.54685 0.18911 0.0
C190 C 0.64896 0.46054 0.16807 0.0
C191 C 0.63986 0.49136 0.1501 0.0
C192 C 0.73523 0.52964 0.17885 0.0
C193 C 0.67882 0.54233 0.14847 0.0
C194 C 0.82965 0.58778 0.17714 0.0
C195 C 0.84498 0.52455 0.21201 0.0
N196 N 0.72508 0.55959 0.16223 0.0
N197 N 0.79763 0.51771 0.20689 0.0
H198 H 0.37315 0.93206 0.42336 0.0
H199 H 0.10784 0.73732 0.48486 0.0
H200 H 0.32722 0.95513 0.50491 0.0
H201 H 0.16314 0.70968 0.40753 0.0
H202 H 0.17943 0.82507 0.48811 0.0
H203 H 0.28744 0.85972 0.41243 0.0
C204 C 0.34463 0.92245 0.43874 0.0
C205 C 0.35727 0.9489 0.46522 0.0
C206 C 0.17537 0.79997 0.47021 0.0
C207 C 0.25958 0.8658 0.45314 0.0
C208 C 0.1347 0.74982 0.46843 0.0
C209 C 0.12974 0.71585 0.44607 0.0
C210 C 0.21143 0.81617 0.44954 0.0
C211 C 0.16509 0.73444 0.42507 0.0
C212 C 0.29578 0.88104 0.43255 0.0
C213 C 0.31898 0.93526 0.48433 0.0
N214 N 0.20469 0.7831 0.4275 0.0
N215 N 0.27197 0.89402 0.47811 0.0
H216 H 0.4405 0.31352 0.81661 0.0
H217 H 0.56473 0.14422 0.85093 0.0
H218 H 0.54548 0.355 0.88956 0.0
H219 H 0.56774 0.20674 0.76985 0.0
H220 H 0.52765 0.19348 0.87018 0.0
H221 H 0.45227 0.24095 0.80546 0.0
C222 C 0.4644 0.30621 0.83095 0.0
C223 C 0.4929 0.34078 0.85373 0.0
C224 C 0.53582 0.1953 0.84808 0.0
C225 C 0.5061 0.25807 0.84112 0.0
C226 C 0.55764 0.16784 0.83704 0.0
C227 C 0.56998 0.17107 0.80853 0.0
C228 C 0.52465 0.22473 0.8303 0.0
C229 C 0.55812 0.20146 0.79165 0.0
C230 C 0.47131 0.26506 0.82442 0.0
C231 C 0.52332 0.32945 0.8716 0.0
N232 N 0.53602 0.22683 0.80277 0.0
N233 N 0.52989 0.28934 0.86465 0.0
H234 H 0.64941 0.96083 0.52381 0.0
H235 H 0.47984 0.65541 0.50277 0.0
H236 H 0.49555 0.87995 0.48629 0.0
H237 H 0.63799 0.73383 0.53238 0.0
H238 H 0.48373 0.73778 0.49975 0.0
H239 H 0.64539 0.87894 0.52956 0.0
C240 C 0.61483 0.926 0.51669 0.0
C241 C 0.57282 0.92762 0.50444 0.0
C242 C 0.5176 0.73718 0.5071 0.0
C243 C 0.56787 0.83342 0.51122 0.0
C244 C 0.51523 0.69015 0.50898 0.0
C245 C 0.55854 0.68814 0.51803 0.0
C246 C 0.56376 0.78264 0.51425 0.0
C247 C 0.60369 0.73403 0.52551 0.0
C248 C 0.61257 0.87918 0.52004 0.0
C249 C 0.52904 0.88095 0.49575 0.0
N250 N 0.60521 0.7795 0.52341 0.0
N251 N 0.52774 0.83601 0.49934 0.0
H252 H 0.76062 0.6271 0.82735 0.0
H253 H 0.88337 0.46102 0.87945 0.0
H254 H 0.67479 0.47168 0.85172 0.0
H255 H 0.97464 0.61187 0.85001 0.0
H256 H 0.80663 0.46451 0.86719 0.0
H257 H 0.83926 0.62286 0.83335 0.0
C258 C 0.75814 0.59205 0.83376 0.0
C259 C 0.71078 0.54984 0.83921 0.0
C260 C 0.84328 0.4969 0.86321 0.0
C261 C 0.80065 0.5448 0.84616 0.0
C262 C 0.88722 0.49492 0.87028 0.0
C263 C 0.93559 0.53638 0.86599 0.0
C264 C 0.84727 0.54089 0.85188 0.0
C265 C 0.9381 0.57901 0.85363 0.0
C266 C 0.80309 0.58968 0.8372 0.0
C267 C 0.71015 0.50545 0.84745 0.0
N268 N 0.89459 0.58041 0.84725 0.0
N269 N 0.75416 0.50427 0.85076 0.0
H270 H 0.20947 0.61399 0.1567 0.0
H271 H 0.34921 0.90312 0.22018 0.0
H272 H 0.1301 0.68392 0.19408 0.0
H273 H 0.4252 0.84118 0.17169 0.0
H274 H 0.26861 0.82328 0.21043 0.0
H275 H 0.28854 0.69643 0.16172 0.0
C276 C 0.2085 0.64661 0.1659 0.0
C277 C 0.16278 0.64167 0.17507 0.0
C278 C 0.30277 0.82716 0.20173 0.0
C279 C 0.2537 0.73655 0.18095 0.0
C280 C 0.34889 0.87274 0.20736 0.0
C281 C 0.39419 0.87884 0.19687 0.0
C282 C 0.30171 0.78685 0.18567 0.0
C283 C 0.39124 0.83832 0.18007 0.0
C284 C 0.25378 0.6938 0.16869 0.0
C285 C 0.1642 0.68562 0.1867 0.0
N286 N 0.34595 0.79395 0.17522 0.0
N287 N 0.20884 0.73096 0.18945 0.0
H288 H 0.64872 0.25466 0.51312 0.0
H289 H 0.49446 0.40496 0.50555 0.0
H290 H 0.48739 0.17718 0.48959 0.0
H291 H 0.63996 0.46125 0.55093 0.0
H292 H 0.49374 0.32513 0.49267 0.0
H293 H 0.64857 0.33417 0.51982 0.0
C294 C 0.61312 0.25417 0.50915 0.0
C295 C 0.56784 0.20857 0.50091 0.0
C296 C 0.52586 0.35513 0.50532 0.0
C297 C 0.56764 0.30079 0.50871 0.0
C298 C 0.52645 0.40074 0.5125 0.0
C299 C 0.56725 0.43967 0.52944 0.0
C300 C 0.56677 0.34892 0.51478 0.0
C301 C 0.60756 0.4321 0.53805 0.0
C302 C 0.61313 0.2999 0.5131 0.0
C303 C 0.52318 0.21117 0.49607 0.0
N304 N 0.6063 0.38783 0.53063 0.0
N305 N 0.52416 0.25647 0.50011 0.0
H306 H 0.46238 0.63352 0.83813 0.0
H307 H 0.16209 0.47439 0.86129 0.0
H308 H 0.38078 0.4718 0.84995 0.0
H309 H 0.2454 0.63632 0.85166 0.0
H310 H 0.24194 0.47257 0.85844 0.0
H311 H 0.38357 0.63522 0.84363 0.0
C312 C 0.42796 0.59828 0.84183 0.0
C313 C 0.42854 0.55242 0.84352 0.0
C314 C 0.24291 0.5086 0.85716 0.0
C315 C 0.33762 0.5542 0.84997 0.0
C316 C 0.19743 0.50961 0.85893 0.0
C317 C 0.19761 0.55563 0.85692 0.0
C318 C 0.28873 0.55396 0.85318 0.0
C319 C 0.24399 0.60016 0.85351 0.0
C320 C 0.38285 0.59933 0.84504 0.0
C321 C 0.38243 0.5081 0.84843 0.0
N322 N 0.28766 0.59824 0.85166 0.0
N323 N 0.339 0.5101 0.85145 0.0
H324 H 0.91971 0.30152 0.15261 0.0
H325 H 0.6279 0.1575 0.19525 0.0
H326 H 0.84408 0.37851 0.18606 0.0
H327 H 0.69975 0.07923 0.15909 0.0
H328 H 0.70816 0.23877 0.19351 0.0
H329 H 0.84081 0.2197 0.15569 0.0
C330 C 0.88664 0.30138 0.16052 0.0
C331 C 0.88885 0.34729 0.16903 0.0
C332 C 0.7066 0.20388 0.18606 0.0
C333 C 0.79822 0.25345 0.17277 0.0
C334 C 0.66086 0.15757 0.18717 0.0
C335 C 0.65764 0.11196 0.17743 0.0
C336 C 0.74935 0.20449 0.17503 0.0
C337 C 0.70106 0.11381 0.16694 0.0
C338 C 0.84155 0.25455 0.16233 0.0
C339 C 0.84453 0.34438 0.17919 0.0
N340 N 0.74514 0.15932 0.16596 0.0
N341 N 0.80131 0.29848 0.18078 0.0
H342 H 0.08466 0.5093 0.09503 0.0
H343 H 0.94969 0.43919 0.93947 0.0
H344 H 0.92817 0.4671 0.07565 0.0
H345 H 0.10646 0.55874 0.95486 0.0
H346 H 0.94512 0.42452 0.98981 0.0
H347 H 0.09593 0.50424 0.04388 0.0
C348 C 0.05247 0.49771 0.08003 0.0
C349 C 1.00541 0.48857 0.08931 0.0
C350 C 0.98075 0.45343 0.98208 0.0
C351 C 0.01771 0.48211 0.03153 0.0
C352 C 0.9834 0.46199 0.95338 0.0
C353 C 0.02813 0.50125 0.943 0.0
C354 C 0.02324 0.48385 1.00065 0.0
C355 C 0.07109 0.52838 0.96196 0.0
C356 C 0.059 0.49522 0.05101 0.0
C357 C 0.96502 0.4745 0.06923 0.0
N358 N 0.06742 0.51966 0.99002 0.0
N359 N 0.97204 0.47159 0.04131 0.0
H360 H 0.5152 0.99723 0.42562 0.0
H361 H 0.56076 0.08414 0.26698 0.0
H362 H 0.64352 0.13922 0.40411 0.0
H363 H 0.47582 0.92649 0.28798 0.0
H364 H 0.58151 0.10932 0.31739 0.0
H365 H 0.4885 0.97545 0.37526 0.0
C366 C 0.53694 0.02429 0.41032 0.0
C367 C 0.58106 0.0703 0.4189 0.0
C368 C 0.55814 0.06926 0.31084 0.0
C369 C 0.55166 0.0455 0.36146 0.0
C370 C 0.54652 0.05476 0.28205 0.0
C371 C 0.51631 1.003 0.27298 0.0
C372 C 0.53898 0.03188 0.33079 0.0
C373 C 0.49827 0.9669 0.29375 0.0
C374 C 0.52219 1.01162 0.38161 0.0
C375 C 0.60913 0.10337 0.39822 0.0
N376 N 0.50975 0.98202 0.3216 0.0
N377 N 0.59392 0.09042 0.37042 0.0
H378 H 0.59499 0.47782 0.74735 0.0
H379 H 0.5318 0.58285 0.61399 0.0
H380 H 0.55894 0.59748 0.75861 0.0
H381 H 0.64713 0.53936 0.61535 0.0
H382 H 0.5376 0.58859 0.66595 0.0
H383 H 0.60985 0.49723 0.69791 0.0
C384 C 0.59089 0.50872 0.73938 0.0
C385 C 0.57604 0.53631 0.75692 0.0
C386 C 0.56221 0.57873 0.65476 0.0
C387 C 0.59147 0.55782 0.70019 0.0
C388 C 0.55905 0.57556 0.62513 0.0
C389 C 0.58816 0.55941 0.61024 0.0
C390 C 0.59417 0.56501 0.66942 0.0
C391 C 0.62276 0.55036 0.62587 0.0
C392 C 0.59947 0.51988 0.71122 0.0
C393 C 0.5709 0.57579 0.74565 0.0
N394 N 0.62406 0.55231 0.65451 0.0
N395 N 0.57763 0.58482 0.7177 0.0
H396 H 0.52048 0.97098 0.5863 0.0
H397 H 0.63301 0.17434 0.716 0.0
H398 H 0.61674 0.13204 0.57636 0.0
H399 H 0.58968 0.01712 0.72537 0.0
H400 H 0.62462 0.15895 0.66469 0.0
H401 H 0.54329 0.98577 0.63718 0.0
C402 C 0.54687 1.00937 0.59484 0.0
C403 C 0.56655 0.05045 0.57727 0.0
C404 C 0.61733 0.12786 0.67792 0.0
C405 C 0.59215 0.06769 0.63525 0.0
C406 C 0.62175 0.13654 0.70715 0.0
C407 C 0.61152 0.09677 0.7248 0.0
C408 C 0.60169 0.0788 0.6662 0.0
C409 C 0.59776 0.04868 0.71238 0.0
C410 C 0.55994 0.01775 0.62381 0.0
C411 C 0.60074 0.09938 0.58925 0.0
N412 N 0.59257 0.0408 0.68375 0.0
N413 N 0.61192 0.10677 0.6176 0.0
H414 H 0.65651 0.62123 0.93478 0.0
H415 H 0.49449 0.40434 0.03895 0.0
H416 H 0.51435 0.48686 0.90683 0.0
H417 H 0.60459 0.55964 0.06716 0.0
H418 H 0.50405 0.42987 0.99013 0.0
H419 H 0.64271 0.59438 0.98311 0.0
C420 C 0.62245 0.58589 0.93884 0.0
C421 C 0.58642 0.55625 0.91687 0.0
C422 C 0.52585 0.4583 0.00708 0.0
C423 C 0.57034 0.52525 0.97214 0.0
C424 C 0.52019 0.44389 0.03498 0.0
C425 C 0.54906 0.4798 0.0573 0.0
C426 C 0.56098 0.50881 0.00143 0.0
C427 C 0.58234 0.53034 0.05071 0.0
C428 C 0.61446 0.57072 0.96645 0.0
C429 C 0.543 0.51077 0.92326 0.0
N430 N 0.58765 0.54319 0.02341 0.0
N431 N 0.53617 0.49651 0.95038 0.0
H432 H 0.01694 0.55324 0.24033 0.0
H433 H 0.03393 0.49297 0.39982 0.0
H434 H 1.01427 0.41602 0.26412 0.0
H435 H 0.99356 0.60383 0.37398 0.0
H436 H 0.02025 0.45949 0.35072 0.0
H437 H 1.00349 0.56942 0.28916 0.0
C438 C 1.01287 0.52619 0.2558 0.0
C439 C 0.01691 0.48338 0.24827 0.0
C440 C 1.01351 0.49056 0.35587 0.0
C441 C 1.00239 0.50198 0.30429 0.0
C442 C 0.02093 0.50944 0.38396 0.0
C443 C 1.01575 0.55186 0.39096 0.0
C444 C 1.00134 0.51463 0.33465 0.0
C445 C 0.9992 0.57187 0.36943 0.0
C446 C 1.00516 0.53538 0.28368 0.0
C447 C 1.01162 0.44965 0.26914 0.0
N448 N 0.99346 0.55369 0.34221 0.0
N449 N 1.0053 0.46001 0.29631 0.0
loop_
_geom_bond_atom_site_label_1
_geom_bond_atom_site_label_2
_geom_bond_distance
_geom_bond_site_symmetry_2
_ccdc_geom_bond_type
Dy0 O4 2.398 . S
Dy0 O5 2.491 . S
Dy0 O6 2.403 . S
Dy0 O7 2.664 . S
Dy0 O11 2.326 . S
Dy0 O15 2.310 . S
Dy0 O16 2.351 1_455 S
C1 O12 1.185 . S
C1 O13 1.355 . S
C2 O4 1.185 . S
C2 O5 1.355 . S
Dy3 O7 2.310 1_655 S
Dy3 O10 2.351 1_655 S
Dy3 O12 2.398 . S
Dy3 O13 2.491 . S
Dy3 O14 2.403 1_655 S
Dy3 O15 2.664 1_655 S
Dy3 O17 2.326 . S
O4 Dy0 2.398 . S
O4 C2 1.185 . S
O5 Dy0 2.491 . S
O5 C2 1.355 . S
O6 Dy0 2.403 . S
O6 C8 1.254 . S
O7 Dy0 2.664 . S
O7 Dy3 2.310 1_455 S
O7 C8 1.268 . S
C8 O6 1.254 . S
C8 O7 1.268 . S
C9 O14 1.254 . S
C9 O15 1.268 . S
O10 Dy3 2.351 1_455 S
O10 C18 1.249 . S
O11 Dy0 2.326 . S
O11 C18 1.267 . S
O12 C1 1.185 . S
O12 Dy3 2.398 . S
O13 C1 1.355 . S
O13 Dy3 2.491 . S
O14 Dy3 2.403 1_455 S
O14 C9 1.254 . S
O15 Dy0 2.310 . S
O15 Dy3 2.664 1_455 S
O15 C9 1.268 . S
O16 Dy0 2.351 1_655 S
O16 C19 1.249 . S
O17 Dy3 2.326 . S
O17 C19 1.267 . S
C18 O10 1.249 . S
C18 O11 1.267 . S
C19 O16 1.249 . S
C19 O17 1.267 . S
Dy20 O24 2.398 . S
Dy20 O25 2.491 . S
Dy20 O26 2.403 . S
Dy20 O27 2.664 1_565 S
Dy20 O31 2.326 . S
Dy20 O35 2.310 1_565 S
Dy20 O36 2.351 1_565 S
C21 O32 1.185 . S
C21 O33 1.355 . S
C22 O24 1.185 . S
C22 O25 1.355 . S
Dy23 O27 2.310 . S
Dy23 O30 2.351 1_545 S
Dy23 O32 2.398 . S
Dy23 O33 2.491 . S
Dy23 O34 2.403 . S
Dy23 O35 2.664 . S
Dy23 O37 2.326 . S
O24 Dy20 2.398 . S
O24 C22 1.185 . S
O25 Dy20 2.491 . S
O25 C22 1.355 . S
O26 Dy20 2.403 . S
O26 C28 1.254 1_565 S
O27 Dy20 2.664 1_545 S
O27 Dy23 2.310 . S
O27 C28 1.268 . S
C28 O26 1.254 1_545 S
C28 O27 1.268 . S
C29 O34 1.254 . S
C29 O35 1.268 . S
O30 Dy23 2.351 1_565 S
O30 C38 1.249 . S
O31 Dy20 2.326 . S
O31 C38 1.267 . S
O32 C21 1.185 . S
O32 Dy23 2.398 . S
O33 C21 1.355 . S
O33 Dy23 2.491 . S
O34 Dy23 2.403 . S
O34 C29 1.254 . S
O35 Dy20 2.310 1_545 S
O35 Dy23 2.664 . S
O35 C29 1.268 . S
O36 Dy20 2.351 1_545 S
O36 C39 1.249 . S
O37 Dy23 2.326 . S
O37 C39 1.267 . S
C38 O30 1.249 . S
C38 O31 1.267 . S
C39 O36 1.249 . S
C39 O37 1.267 . S
Dy40 O44 2.398 . S
Dy40 O45 2.491 . S
Dy40 O46 2.403 . S
Dy40 O47 2.664 . S
Dy40 O51 2.326 . S
Dy40 O55 2.310 . S
Dy40 O56 2.351 . S
C41 O52 1.185 . S
C41 O53 1.355 . S
C42 O44 1.185 . S
C42 O45 1.355 . S
Dy43 O47 2.310 . S
Dy43 O50 2.351 . S
Dy43 O52 2.398 . S
Dy43 O53 2.491 . S
Dy43 O54 2.403 . S
Dy43 O55 2.664 . S
Dy43 O57 2.326 . S
O44 Dy40 2.398 . S
O44 C42 1.185 . S
O45 Dy40 2.491 . S
O45 C42 1.355 . S
O46 Dy40 2.403 . S
O46 C48 1.254 . S
O47 Dy40 2.664 . S
O47 Dy43 2.310 . S
O47 C48 1.268 . S
C48 O46 1.254 . S
C48 O47 1.268 . S
C49 O54 1.254 . S
C49 O55 1.268 . S
O50 Dy43 2.351 . S
O50 C58 1.249 . S
O51 Dy40 2.326 . S
O51 C58 1.267 . S
O52 C41 1.185 . S
O52 Dy43 2.398 . S
O53 C41 1.355 . S
O53 Dy43 2.491 . S
O54 Dy43 2.403 . S
O54 C49 1.254 . S
O55 Dy40 2.310 . S
O55 Dy43 2.664 . S
O55 C49 1.268 . S
O56 Dy40 2.351 . S
O56 C59 1.249 . S
O57 Dy43 2.326 . S
O57 C59 1.267 . S
C58 O50 1.249 . S
C58 O51 1.267 . S
C59 O56 1.249 . S
C59 O57 1.267 . S
H60 C63 0.929 . S
H61 C66 0.929 . S
H62 C68 0.930 . S
C63 H60 0.929 . S
C63 C64 1.398 . S
C63 C65 1.396 1_565 S
C64 C63 1.398 . S
C64 C68 1.407 . S
C65 C63 1.396 1_545 S
C65 C66 1.394 . S
C66 H61 0.929 . S
C66 C65 1.394 . S
C66 C67 1.382 . S
C67 C66 1.382 . S
C67 C68 1.392 1_545 S
C67 N69 1.420 . S
C68 H62 0.930 . S
C68 C64 1.407 . S
C68 C67 1.392 1_565 S
N69 C67 1.420 . S
N69 C70 1.244 . S
C70 N69 1.244 . S
H71 C74 0.929 . S
H72 C77 0.929 . S
H73 C79 0.930 . S
C74 H71 0.929 . S
C74 C75 1.398 . S
C74 C76 1.396 . S
C75 C74 1.398 . S
C75 C79 1.407 . S
C76 C74 1.396 . S
C76 C77 1.394 . S
C77 H72 0.929 . S
C77 C76 1.394 . S
C77 C78 1.382 . S
C78 C77 1.382 . S
C78 C79 1.392 . S
C78 N80 1.420 . S
C79 H73 0.930 . S
C79 C75 1.407 . S
C79 C78 1.392 . S
N80 C78 1.420 . S
N80 C81 1.244 . S
C81 N80 1.244 . S
H82 C85 0.929 1_655 S
H83 C88 0.929 . S
H84 C90 0.930 . S
C85 H82 0.929 1_455 S
C85 C86 1.398 . S
C85 C87 1.396 . S
C86 C85 1.398 . S
C86 C90 1.407 . S
C87 C85 1.396 . S
C87 C88 1.394 . S
C88 H83 0.929 . S
C88 C87 1.394 . S
C88 C89 1.382 . S
C89 C88 1.382 . S
C89 C90 1.392 . S
C89 N91 1.420 . S
C90 H84 0.930 . S
C90 C86 1.407 . S
C90 C89 1.392 . S
N91 C89 1.420 . S
N91 C92 1.244 . S
C92 N91 1.244 . S
H93 C96 0.929 . S
H94 C99 0.929 . S
H95 C101 0.930 . S
C96 H93 0.929 . S
C96 C97 1.398 . S
C96 C98 1.396 . S
C97 C96 1.398 . S
C97 C101 1.407 . S
C98 C96 1.396 . S
C98 C99 1.394 1_455 S
C99 H94 0.929 . S
C99 C98 1.394 1_655 S
C99 C100 1.382 . S
C100 C99 1.382 . S
C100 C101 1.392 1_655 S
C100 N102 1.420 . S
C101 H95 0.930 . S
C101 C97 1.407 . S
C101 C100 1.392 1_455 S
N102 C100 1.420 . S
N102 C103 1.244 . S
C103 N102 1.244 . S
H104 C107 0.929 . S
H105 C110 0.929 1_565 S
H106 C112 0.930 . S
C107 H104 0.929 . S
C107 C108 1.398 . S
C107 C109 1.396 . S
C108 C107 1.398 . S
C108 C112 1.407 . S
C109 C107 1.396 . S
C109 C110 1.394 . S
C110 H105 0.929 1_545 S
C110 C109 1.394 . S
C110 C111 1.382 . S
C111 C110 1.382 . S
C111 C112 1.392 . S
C111 N113 1.420 1_545 S
C112 H106 0.930 . S
C112 C108 1.407 . S
C112 C111 1.392 . S
N113 C111 1.420 1_565 S
N113 C114 1.244 . S
C114 N113 1.244 . S
H115 C118 0.929 . S
H116 C121 0.929 . S
H117 C123 0.930 . S
C118 H115 0.929 . S
C118 C119 1.398 . S
C118 C120 1.396 . S
C119 C118 1.398 . S
C119 C123 1.407 . S
C120 C118 1.396 . S
C120 C121 1.394 . S
C121 H116 0.929 . S
C121 C120 1.394 . S
C121 C122 1.382 . S
C122 C121 1.382 . S
C122 C123 1.392 . S
C122 N124 1.420 . S
C123 H117 0.930 . S
C123 C119 1.407 . S
C123 C122 1.392 . S
N124 C122 1.420 . S
N124 C125 1.244 . S
C125 N124 1.244 . S
H126 C132 0.930 . S
H127 C136 0.930 . S
H128 C141 0.929 . S
H129 C139 0.929 . S
H130 C134 0.929 . S
H131 C140 0.929 . S
C132 H126 0.930 . S
C132 C133 1.367 . S
C132 C140 1.378 . S
C133 C132 1.367 . S
C133 C141 1.433 . S
C134 H130 0.929 . S
C134 C136 1.378 . S
C134 C138 1.350 . S
C135 C138 1.463 . S
C135 C140 1.350 . S
C135 N143 1.427 . S
C136 H127 0.930 . S
C136 C134 1.378 . S
C136 C137 1.367 . S
C137 C136 1.367 . S
C137 C139 1.433 . S
C138 C134 1.350 . S
C138 C135 1.463 . S
C138 N142 1.427 . S
C139 H129 0.929 . S
C139 C137 1.433 . S
C139 N142 1.384 . S
C140 H131 0.929 . S
C140 C132 1.378 . S
C140 C135 1.350 . S
C141 H128 0.929 . S
C141 C133 1.433 . S
C141 N143 1.384 . S
N142 C138 1.427 . S
N142 C139 1.384 . S
N143 C135 1.427 . S
N143 C141 1.384 . S
H144 C150 0.930 . S
H145 C154 0.930 . S
H146 C159 0.929 . S
H147 C157 0.929 . S
H148 C152 0.929 . S
H149 C158 0.929 . S
C150 H144 0.930 . S
C150 C151 1.367 . S
C150 C158 1.378 . S
C151 C150 1.367 . S
C151 C159 1.433 . S
C152 H148 0.929 . S
C152 C154 1.378 . S
C152 C156 1.350 . S
C153 C156 1.463 . S
C153 C158 1.350 . S
C153 N161 1.427 . S
C154 H145 0.930 . S
C154 C152 1.378 . S
C154 C155 1.367 . S
C155 C154 1.367 . S
C155 C157 1.433 . S
C156 C152 1.350 . S
C156 C153 1.463 . S
C156 N160 1.427 . S
C157 H147 0.929 . S
C157 C155 1.433 . S
C157 N160 1.384 . S
C158 H149 0.929 . S
C158 C150 1.378 . S
C158 C153 1.350 . S
C159 H146 0.929 . S
C159 C151 1.433 . S
C159 N161 1.384 . S
N160 C156 1.427 . S
N160 C157 1.384 . S
N161 C153 1.427 . S
N161 C159 1.384 . S
H162 C168 0.930 . S
H163 C172 0.930 . S
H164 C177 0.929 . S
H165 C175 0.929 . S
H166 C170 0.929 . S
H167 C176 0.929 . S
C168 H162 0.930 . S
C168 C169 1.367 . S
C168 C176 1.378 . S
C169 C168 1.367 . S
C169 C177 1.433 . S
C170 H166 0.929 . S
C170 C172 1.378 . S
C170 C174 1.350 . S
C171 C174 1.463 . S
C171 C176 1.350 . S
C171 N179 1.427 . S
C172 H163 0.930 . S
C172 C170 1.378 . S
C172 C173 1.367 . S
C173 C172 1.367 . S
C173 C175 1.433 . S
C174 C170 1.350 . S
C174 C171 1.463 . S
C174 N178 1.427 . S
C175 H165 0.929 . S
C175 C173 1.433 . S
C175 N178 1.384 . S
C176 H167 0.929 . S
C176 C168 1.378 . S
C176 C171 1.350 . S
C177 H164 0.929 . S
C177 C169 1.433 . S
C177 N179 1.384 . S
N178 C174 1.427 . S
N178 C175 1.384 . S
N179 C171 1.427 . S
N179 C177 1.384 . S
H180 C186 0.930 . S
H181 C190 0.930 . S
H182 C195 0.929 . S
H183 C193 0.929 . S
H184 C188 0.929 . S
H185 C194 0.929 . S
C186 H180 0.930 . S
C186 C187 1.367 . S
C186 C194 1.378 . S
C187 C186 1.367 . S
C187 C195 1.433 . S
C188 H184 0.929 . S
C188 C190 1.378 . S
C188 C192 1.350 . S
C189 C192 1.463 . S
C189 C194 1.350 . S
C189 N197 1.427 . S
C190 H181 0.930 . S
C190 C188 1.378 . S
C190 C191 1.367 . S
C191 C190 1.367 . S
C191 C193 1.433 . S
C192 C188 1.350 . S
C192 C189 1.463 . S
C192 N196 1.427 . S
C193 H183 0.929 . S
C193 C191 1.433 . S
C193 N196 1.384 . S
C194 H185 0.929 . S
C194 C186 1.378 . S
C194 C189 1.350 . S
C195 H182 0.929 . S
C195 C187 1.433 . S
C195 N197 1.384 . S
N196 C192 1.427 . S
N196 C193 1.384 . S
N197 C189 1.427 . S
N197 C195 1.384 . S
H198 C204 0.930 . S
H199 C208 0.930 . S
H200 C213 0.929 . S
H201 C211 0.929 . S
H202 C206 0.929 . S
H203 C212 0.929 . S
C204 H198 0.930 . S
C204 C205 1.367 . S
C204 C212 1.378 . S
C205 C204 1.367 . S
C205 C213 1.433 . S
C206 H202 0.929 . S
C206 C208 1.378 . S
C206 C210 1.350 . S
C207 C210 1.463 . S
C207 C212 1.350 . S
C207 N215 1.427 . S
C208 H199 0.930 . S
C208 C206 1.378 . S
C208 C209 1.367 . S
C209 C208 1.367 . S
C209 C211 1.433 . S
C210 C206 1.350 . S
C210 C207 1.463 . S
C210 N214 1.427 . S
C211 H201 0.929 . S
C211 C209 1.433 . S
C211 N214 1.384 . S
C212 H203 0.929 . S
C212 C204 1.378 . S
C212 C207 1.350 . S
C213 H200 0.929 . S
C213 C205 1.433 . S
C213 N215 1.384 . S
N214 C210 1.427 . S
N214 C211 1.384 . S
N215 C207 1.427 . S
N215 C213 1.384 . S
H216 C222 0.930 . S
H217 C226 0.930 . S
H218 C231 0.929 . S
H219 C229 0.929 . S
H220 C224 0.929 . S
H221 C230 0.929 . S
C222 H216 0.930 . S
C222 C223 1.367 . S
C222 C230 1.378 . S
C223 C222 1.367 . S
C223 C231 1.433 . S
C224 H220 0.929 . S
C224 C226 1.378 . S
C224 C228 1.350 . S
C225 C228 1.463 . S
C225 C230 1.350 . S
C225 N233 1.427 . S
C226 H217 0.930 . S
C226 C224 1.378 . S
C226 C227 1.367 . S
C227 C226 1.367 . S
C227 C229 1.433 . S
C228 C224 1.350 . S
C228 C225 1.463 . S
C228 N232 1.427 . S
C229 H219 0.929 . S
C229 C227 1.433 . S
C229 N232 1.384 . S
C230 H221 0.929 . S
C230 C222 1.378 . S
C230 C225 1.350 . S
C231 H218 0.929 . S
C231 C223 1.433 . S
C231 N233 1.384 . S
N232 C228 1.427 . S
N232 C229 1.384 . S
N233 C225 1.427 . S
N233 C231 1.384 . S
H234 C240 0.930 . S
H235 C244 0.930 . S
H236 C249 0.929 . S
H237 C247 0.929 . S
H238 C242 0.929 . S
H239 C248 0.929 . S
C240 H234 0.930 . S
C240 C241 1.367 . S
C240 C248 1.378 . S
C241 C240 1.367 . S
C241 C249 1.433 . S
C242 H238 0.929 . S
C242 C244 1.378 . S
C242 C246 1.350 . S
C243 C246 1.463 . S
C243 C248 1.350 . S
C243 N251 1.427 . S
C244 H235 0.930 . S
C244 C242 1.378 . S
C244 C245 1.367 . S
C245 C244 1.367 . S
C245 C247 1.433 . S
C246 C242 1.350 . S
C246 C243 1.463 . S
C246 N250 1.427 . S
C247 H237 0.929 . S
C247 C245 1.433 . S
C247 N250 1.384 . S
C248 H239 0.929 . S
C248 C240 1.378 . S
C248 C243 1.350 . S
C249 H236 0.929 . S
C249 C241 1.433 . S
C249 N251 1.384 . S
N250 C246 1.427 . S
N250 C247 1.384 . S
N251 C243 1.427 . S
N251 C249 1.384 . S
H252 C258 0.930 . S
H253 C262 0.930 . S
H254 C267 0.929 . S
H255 C265 0.929 . S
H256 C260 0.929 . S
H257 C266 0.929 . S
C258 H252 0.930 . S
C258 C259 1.367 . S
C258 C266 1.378 . S
C259 C258 1.367 . S
C259 C267 1.433 . S
C260 H256 0.929 . S
C260 C262 1.378 . S
C260 C264 1.350 . S
C261 C264 1.463 . S
C261 C266 1.350 . S
C261 N269 1.427 . S
C262 H253 0.930 . S
C262 C260 1.378 . S
C262 C263 1.367 . S
C263 C262 1.367 . S
C263 C265 1.433 . S
C264 C260 1.350 . S
C264 C261 1.463 . S
C264 N268 1.427 . S
C265 H255 0.929 . S
C265 C263 1.433 . S
C265 N268 1.384 . S
C266 H257 0.929 . S
C266 C258 1.378 . S
C266 C261 1.350 . S
C267 H254 0.929 . S
C267 C259 1.433 . S
C267 N269 1.384 . S
N268 C264 1.427 . S
N268 C265 1.384 . S
N269 C261 1.427 . S
N269 C267 1.384 . S
H270 C276 0.930 . S
H271 C280 0.930 . S
H272 C285 0.929 . S
H273 C283 0.929 . S
H274 C278 0.929 . S
H275 C284 0.929 . S
C276 H270 0.930 . S
C276 C277 1.367 . S
C276 C284 1.378 . S
C277 C276 1.367 . S
C277 C285 1.433 . S
C278 H274 0.929 . S
C278 C280 1.378 . S
C278 C282 1.350 . S
C279 C282 1.463 . S
C279 C284 1.350 . S
C279 N287 1.427 . S
C280 H271 0.930 . S
C280 C278 1.378 . S
C280 C281 1.367 . S
C281 C280 1.367 . S
C281 C283 1.433 . S
C282 C278 1.350 . S
C282 C279 1.463 . S
C282 N286 1.427 . S
C283 H273 0.929 . S
C283 C281 1.433 . S
C283 N286 1.384 . S
C284 H275 0.929 . S
C284 C276 1.378 . S
C284 C279 1.350 . S
C285 H272 0.929 . S
C285 C277 1.433 . S
C285 N287 1.384 . S
N286 C282 1.427 . S
N286 C283 1.384 . S
N287 C279 1.427 . S
N287 C285 1.384 . S
H288 C294 0.930 . S
H289 C298 0.930 . S
H290 C303 0.929 . S
H291 C301 0.929 . S
H292 C296 0.929 . S
H293 C302 0.929 . S
C294 H288 0.930 . S
C294 C295 1.367 . S
C294 C302 1.378 . S
C295 C294 1.367 . S
C295 C303 1.433 . S
C296 H292 0.929 . S
C296 C298 1.378 . S
C296 C300 1.350 . S
C297 C300 1.463 . S
C297 C302 1.350 . S
C297 N305 1.427 . S
C298 H289 0.930 . S
C298 C296 1.378 . S
C298 C299 1.367 . S
C299 C298 1.367 . S
C299 C301 1.433 . S
C300 C296 1.350 . S
C300 C297 1.463 . S
C300 N304 1.427 . S
C301 H291 0.929 . S
C301 C299 1.433 . S
C301 N304 1.384 . S
C302 H293 0.929 . S
C302 C294 1.378 . S
C302 C297 1.350 . S
C303 H290 0.929 . S
C303 C295 1.433 . S
C303 N305 1.384 . S
N304 C300 1.427 . S
N304 C301 1.384 . S
N305 C297 1.427 . S
N305 C303 1.384 . S
H306 C312 0.930 . S
H307 C316 0.930 . S
H308 C321 0.929 . S
H309 C319 0.929 . S
H310 C314 0.929 . S
H311 C320 0.929 . S
C312 H306 0.930 . S
C312 C313 1.367 . S
C312 C320 1.378 . S
C313 C312 1.367 . S
C313 C321 1.433 . S
C314 H310 0.929 . S
C314 C316 1.378 . S
C314 C318 1.350 . S
C315 C318 1.463 . S
C315 C320 1.350 . S
C315 N323 1.427 . S
C316 H307 0.930 . S
C316 C314 1.378 . S
C316 C317 1.367 . S
C317 C316 1.367 . S
C317 C319 1.433 . S
C318 C314 1.350 . S
C318 C315 1.463 . S
C318 N322 1.427 . S
C319 H309 0.929 . S
C319 C317 1.433 . S
C319 N322 1.384 . S
C320 H311 0.929 . S
C320 C312 1.378 . S
C320 C315 1.350 . S
C321 H308 0.929 . S
C321 C313 1.433 . S
C321 N323 1.384 . S
N322 C318 1.427 . S
N322 C319 1.384 . S
N323 C315 1.427 . S
N323 C321 1.384 . S
H324 C330 0.930 . S
H325 C334 0.930 . S
H326 C339 0.929 . S
H327 C337 0.929 . S
H328 C332 0.929 . S
H329 C338 0.929 . S
C330 H324 0.930 . S
C330 C331 1.367 . S
C330 C338 1.378 . S
C331 C330 1.367 . S
C331 C339 1.433 . S
C332 H328 0.929 . S
C332 C334 1.378 . S
C332 C336 1.350 . S
C333 C336 1.463 . S
C333 C338 1.350 . S
C333 N341 1.427 . S
C334 H325 0.930 . S
C334 C332 1.378 . S
C334 C335 1.367 . S
C335 C334 1.367 . S
C335 C337 1.433 . S
C336 C332 1.350 . S
C336 C333 1.463 . S
C336 N340 1.427 . S
C337 H327 0.929 . S
C337 C335 1.433 . S
C337 N340 1.384 . S
C338 H329 0.929 . S
C338 C330 1.378 . S
C338 C333 1.350 . S
C339 H326 0.929 . S
C339 C331 1.433 . S
C339 N341 1.384 . S
N340 C336 1.427 . S
N340 C337 1.384 . S
N341 C333 1.427 . S
N341 C339 1.384 . S
H342 C348 0.930 . S
H343 C352 0.930 1_655 S
H344 C357 0.929 1_655 S
H345 C355 0.929 . S
H346 C350 0.929 1_655 S
H347 C356 0.929 . S
C348 H342 0.930 . S
C348 C349 1.367 . S
C348 C356 1.378 . S
C349 C348 1.367 . S
C349 C357 1.433 . S
C350 H346 0.929 1_455 S
C350 C352 1.378 . S
C350 C354 1.350 . S
C351 C354 1.463 1_554 S
C351 C356 1.350 . S
C351 N359 1.427 . S
C352 H343 0.930 1_455 S
C352 C350 1.378 . S
C352 C353 1.367 . S
C353 C352 1.367 . S
C353 C355 1.433 . S
C354 C350 1.350 . S
C354 C351 1.463 1_556 S
C354 N358 1.427 . S
C355 H345 0.929 . S
C355 C353 1.433 . S
C355 N358 1.384 . S
C356 H347 0.929 . S
C356 C348 1.378 . S
C356 C351 1.350 . S
C357 H344 0.929 1_455 S
C357 C349 1.433 . S
C357 N359 1.384 . S
N358 C354 1.427 . S
N358 C355 1.384 . S
N359 C351 1.427 . S
N359 C357 1.384 . S
H360 C366 0.930 . S
H361 C370 0.930 . S
H362 C375 0.929 . S
H363 C373 0.929 . S
H364 C368 0.929 . S
H365 C374 0.929 . S
C366 H360 0.930 . S
C366 C367 1.367 1_565 S
C366 C374 1.378 . S
C367 C366 1.367 1_545 S
C367 C375 1.433 . S
C368 H364 0.929 . S
C368 C370 1.378 . S
C368 C372 1.350 . S
C369 C372 1.463 . S
C369 C374 1.350 1_545 S
C369 N377 1.427 . S
C370 H361 0.930 . S
C370 C368 1.378 . S
C370 C371 1.367 . S
C371 C370 1.367 . S
C371 C373 1.433 1_545 S
C372 C368 1.350 . S
C372 C369 1.463 . S
C372 N376 1.427 1_545 S
C373 H363 0.929 . S
C373 C371 1.433 1_565 S
C373 N376 1.384 . S
C374 H365 0.929 . S
C374 C366 1.378 . S
C374 C369 1.350 1_565 S
C375 H362 0.929 . S
C375 C367 1.433 . S
C375 N377 1.384 . S
N376 C372 1.427 1_565 S
N376 C373 1.384 . S
N377 C369 1.427 . S
N377 C375 1.384 . S
H378 C384 0.930 . S
H379 C388 0.930 . S
H380 C393 0.929 . S
H381 C391 0.929 . S
H382 C386 0.929 . S
H383 C392 0.929 . S
C384 H378 0.930 . S
C384 C385 1.367 . S
C384 C392 1.378 . S
C385 C384 1.367 . S
C385 C393 1.433 . S
C386 H382 0.929 . S
C386 C388 1.378 . S
C386 C390 1.350 . S
C387 C390 1.463 . S
C387 C392 1.350 . S
C387 N395 1.427 . S
C388 H379 0.930 . S
C388 C386 1.378 . S
C388 C389 1.367 . S
C389 C388 1.367 . S
C389 C391 1.433 . S
C390 C386 1.350 . S
C390 C387 1.463 . S
C390 N394 1.427 . S
C391 H381 0.929 . S
C391 C389 1.433 . S
C391 N394 1.384 . S
C392 H383 0.929 . S
C392 C384 1.378 . S
C392 C387 1.350 . S
C393 H380 0.929 . S
C393 C385 1.433 . S
C393 N395 1.384 . S
N394 C390 1.427 . S
N394 C391 1.384 . S
N395 C387 1.427 . S
N395 C393 1.384 . S
H396 C402 0.930 . S
H397 C406 0.930 . S
H398 C411 0.929 . S
H399 C409 0.929 . S
H400 C404 0.929 . S
H401 C410 0.929 . S
C402 H396 0.930 . S
C402 C403 1.367 1_565 S
C402 C410 1.378 . S
C403 C402 1.367 1_545 S
C403 C411 1.433 . S
C404 H400 0.929 . S
C404 C406 1.378 . S
C404 C408 1.350 . S
C405 C408 1.463 . S
C405 C410 1.350 1_545 S
C405 N413 1.427 . S
C406 H397 0.930 . S
C406 C404 1.378 . S
C406 C407 1.367 . S
C407 C406 1.367 . S
C407 C409 1.433 1_545 S
C408 C404 1.350 . S
C408 C405 1.463 . S
C408 N412 1.427 1_545 S
C409 H399 0.929 . S
C409 C407 1.433 1_565 S
C409 N412 1.384 . S
C410 H401 0.929 . S
C410 C402 1.378 . S
C410 C405 1.350 1_565 S
C411 H398 0.929 . S
C411 C403 1.433 . S
C411 N413 1.384 . S
N412 C408 1.427 1_565 S
N412 C409 1.384 . S
N413 C405 1.427 . S
N413 C411 1.384 . S
H414 C420 0.930 . S
H415 C424 0.930 . S
H416 C429 0.929 . S
H417 C427 0.929 . S
H418 C422 0.929 . S
H419 C428 0.929 . S
C420 H414 0.930 . S
C420 C421 1.367 . S
C420 C428 1.378 . S
C421 C420 1.367 . S
C421 C429 1.433 . S
C422 H418 0.929 . S
C422 C424 1.378 . S
C422 C426 1.350 . S
C423 C426 1.463 1_556 S
C423 C428 1.350 . S
C423 N431 1.427 . S
C424 H415 0.930 . S
C424 C422 1.378 . S
C424 C425 1.367 . S
C425 C424 1.367 . S
C425 C427 1.433 . S
C426 C422 1.350 . S
C426 C423 1.463 1_554 S
C426 N430 1.427 . S
C427 H417 0.929 . S
C427 C425 1.433 . S
C427 N430 1.384 . S
C428 H419 0.929 . S
C428 C420 1.378 . S
C428 C423 1.350 . S
C429 H416 0.929 . S
C429 C421 1.433 . S
C429 N431 1.384 . S
N430 C426 1.427 . S
N430 C427 1.384 . S
N431 C423 1.427 . S
N431 C429 1.384 . S
H432 C438 0.930 . S
H433 C442 0.930 . S
H434 C447 0.929 . S
H435 C445 0.929 . S
H436 C440 0.929 . S
H437 C446 0.929 . S
C438 H432 0.930 . S
C438 C439 1.367 . S
C438 C446 1.378 . S
C439 C438 1.367 . S
C439 C447 1.433 . S
C440 H436 0.929 . S
C440 C442 1.378 . S
C440 C444 1.350 . S
C441 C444 1.463 . S
C441 C446 1.350 . S
C441 N449 1.427 . S
C442 H433 0.930 . S
C442 C440 1.378 . S
C442 C443 1.367 . S
C443 C442 1.367 . S
C443 C445 1.433 . S
C444 C440 1.350 . S
C444 C441 1.463 . S
C444 N448 1.427 . S
C445 H435 0.929 . S
C445 C443 1.433 . S
C445 N448 1.384 . S
C446 H437 0.929 . S
C446 C438 1.378 . S
C446 C441 1.350 . S
C447 H434 0.929 . S
C447 C439 1.433 . S
C447 N449 1.384 . S
N448 C444 1.427 . S
N448 C445 1.384 . S
N449 C441 1.427 . S
N449 C447 1.384 . S
C133 C2 1.149 . S
C137 C125 1.145 . S
C151 C21 1.054 . S
C155 C103 1.066 . S
C169 C42 1.121 . S
C173 C114 1.098 . S
C187 C1 0.918 . S
C191 C119 0.927 . S
C209 C97 0.995 . S
C205 C22 0.996 . S
C227 C108 0.930 . S
C223 C41 0.923 . S
C241 C38 1.927 . S
C245 C81 1.887 . S
C259 C59 1.867 . S
C263 C86 1.836 1_655 S
C277 C18 1.790 . S
C281 C64 1.764 . S
C299 C75 1.833 . S
C295 C39 1.864 . S
C317 C92 1.875 . S
C313 C58 1.912 . S
C331 C19 2.003 . S
C335 C70 1.945 . S
C353 C87 1.565 . S
C349 C9 1.543 . S
C367 C29 1.537 . S
C371 C65 1.622 . S
C385 C49 1.545 . S
C389 C76 1.591 . S
C407 C109 1.494 . S
C403 C28 1.475 . S
C425 C120 1.473 . S
C421 C48 1.433 . S
C439 C8 1.406 . S
C443 C98 1.443 . S
