# Generated by pormake.
# Topology zzz, (3,6)-cn, num edge types: 1
# Building blocks:
#     Node 0, Type 0, BuildingBlock: BELTOD_clean_linker_0, # of connection points: 3
#     Node 1, Type 0, BuildingBlock: BELTOD_clean_linker_0, # of connection points: 3
#     Node 2, Type 0, BuildingBlock: BELTOD_clean_linker_0, # of connection points: 3
#     Node 3, Type 0, BuildingBlock: BELTOD_clean_linker_0, # of connection points: 3
#     Node 4, Type 0, BuildingBlock: BELTOD_clean_linker_0, # of connection points: 3
#     Node 5, Type 0, BuildingBlock: BELTOD_clean_linker_0, # of connection points: 3
#     Node 6, Type 0, BuildingBlock: BELTOD_clean_linker_0, # of connection points: 3
#     Node 7, Type 0, BuildingBlock: BELTOD_clean_linker_0, # of connection points: 3
#     Node 8, Type 1, BuildingBlock: KUMJIN_clean_sbu_1, # of connection points: 6
#     Node 9, Type 1, BuildingBlock: KUMJIN_clean_sbu_1, # of connection points: 6
#     Node 10, Type 1, BuildingBlock: KUMJIN_clean_sbu_1, # of connection points: 6
#     Node 11, Type 1, BuildingBlock: KUMJIN_clean_sbu_1, # of connection points: 6
#     Edge 12, Type (0, 1), BuildingBlock: CIFDUS_clean_linker_0, # of connection points: 2
#     Edge 13, Type (0, 1), BuildingBlock: CIFDUS_clean_linker_0, # of connection points: 2
#     Edge 14, Type (0, 1), BuildingBlock: CIFDUS_clean_linker_0, # of connection points: 2
#     Edge 15, Type (0, 1), BuildingBlock: CIFDUS_clean_linker_0, # of connection points: 2
#     Edge 16, Type (0, 1), BuildingBlock: CIFDUS_clean_linker_0, # of connection points: 2
#     Edge 17, Type (0, 1), BuildingBlock: CIFDUS_clean_linker_0, # of connection points: 2
#     Edge 18, Type (0, 1), BuildingBlock: CIFDUS_clean_linker_0, # of connection points: 2
#     Edge 19, Type (0, 1), BuildingBlock: CIFDUS_clean_linker_0, # of connection points: 2
#     Edge 20, Type (0, 1), BuildingBlock: CIFDUS_clean_linker_0, # of connection points: 2
#     Edge 21, Type (0, 1), BuildingBlock: CIFDUS_clean_linker_0, # of connection points: 2
#     Edge 22, Type (0, 1), BuildingBlock: CIFDUS_clean_linker_0, # of connection points: 2
#     Edge 23, Type (0, 1), BuildingBlock: CIFDUS_clean_linker_0, # of connection points: 2
#     Edge 24, Type (0, 1), BuildingBlock: CIFDUS_clean_linker_0, # of connection points: 2
#     Edge 25, Type (0, 1), BuildingBlock: CIFDUS_clean_linker_0, # of connection points: 2
#     Edge 26, Type (0, 1), BuildingBlock: CIFDUS_clean_linker_0, # of connection points: 2
#     Edge 27, Type (0, 1), BuildingBlock: CIFDUS_clean_linker_0, # of connection points: 2
#     Edge 28, Type (0, 1), BuildingBlock: CIFDUS_clean_linker_0, # of connection points: 2
#     Edge 29, Type (0, 1), BuildingBlock: CIFDUS_clean_linker_0, # of connection points: 2
#     Edge 30, Type (0, 1), BuildingBlock: CIFDUS_clean_linker_0, # of connection points: 2
#     Edge 31, Type (0, 1), BuildingBlock: CIFDUS_clean_linker_0, # of connection points: 2
#     Edge 32, Type (0, 1), BuildingBlock: CIFDUS_clean_linker_0, # of connection points: 2
#     Edge 33, Type (0, 1), BuildingBlock: CIFDUS_clean_linker_0, # of connection points: 2
#     Edge 34, Type (0, 1), BuildingBlock: CIFDUS_clean_linker_0, # of connection points: 2
#     Edge 35, Type (0, 1), BuildingBlock: CIFDUS_clean_linker_0, # of connection points: 2
# Relax obj value: 0.319
# Max RMSD: 0.191
# Mean RMSD: 0.172
data_MOF--net-zzz--node1-KUMJIN_clean_sbu_1--node2-BELTOD_clean_linker_0--edge1-CIFDUS_clean_linker_0
_symmetry_space_group_name_H-M    P1
_symmetry_Int_Tables_number       1
_symmetry_cell_setting            triclinic
loop_
_symmetry_equiv_pos_as_xyz
'x, y, z'
_cell_length_a     47.046934
_cell_length_b     47.035165
_cell_length_c     17.444791
_cell_angle_alpha  90.613071
_cell_angle_beta   90.05045
_cell_angle_gamma 90.293648
loop_
_atom_site_label
_atom_site_type_symbol
_atom_site_fract_x
_atom_site_fract_y
_atom_site_fract_z
_atom_type_partial_charge
P0 P 0.73182 0.52009 0.29102 0.0
H1 H 0.73426 0.51871 0.45931 0.0
H2 H 0.77461 0.52089 0.54872 0.0
H3 H 0.82895 0.54884 0.36503 0.0
H4 H 0.78965 0.54612 0.27732 0.0
H5 H 0.67472 0.49535 0.30215 0.0
H6 H 0.63325 0.50499 0.22415 0.0
H7 H 0.66938 0.58591 0.16088 0.0
H8 H 0.71041 0.57675 0.24299 0.0
H9 H 0.73631 0.47628 0.17148 0.0
H10 H 0.7552 0.56585 0.19543 0.0
O11 O 0.72739 0.48596 0.31383 0.0
H12 H 0.75489 0.47678 0.04111 0.0
H13 H 0.77428 0.56623 0.06508 0.0
C14 C 0.75811 0.53291 0.36085 0.0
C15 C 0.75459 0.52642 0.43886 0.0
C16 C 0.77787 0.52723 0.48988 0.0
C17 C 0.80525 0.53494 0.46433 0.0
C18 C 0.80825 0.5432 0.38754 0.0
C19 C 0.78522 0.5419 0.33662 0.0
C20 C 0.69649 0.53487 0.27718 0.0
C21 C 0.67339 0.51581 0.27464 0.0
C22 C 0.64969 0.52113 0.22841 0.0
C23 C 0.64844 0.54563 0.1829 0.0
C24 C 0.66969 0.56654 0.19384 0.0
C25 C 0.69332 0.56131 0.24124 0.0
C26 C 0.74557 0.52073 0.19464 0.0
C27 C 0.74446 0.49606 0.14898 0.0
C28 C 0.75453 0.49648 0.07385 0.0
C29 C 0.76585 0.5216 0.04327 0.0
C30 C 0.76553 0.54665 0.08749 0.0
C31 C 0.75499 0.5463 0.16219 0.0
P32 P 1.009 0.72675 0.32758 0.0
H33 H 0.03467 0.75733 0.45574 0.0
H34 H 0.02737 0.80393 0.51141 0.0
H35 H 0.95023 0.81282 0.38023 0.0
H36 H 0.9573 0.76489 0.32499 0.0
H37 H 0.02012 0.66575 0.33341 0.0
H38 H 0.01003 0.62908 0.23837 0.0
H39 H 0.94581 0.68204 0.13785 0.0
H40 H 0.95585 0.71917 0.23427 0.0
H41 H 0.06505 0.72595 0.25259 0.0
H42 H 0.98168 0.76018 0.20896 0.0
O43 O 0.03678 0.71366 0.37513 0.0
H44 H 0.08285 0.74886 0.13652 0.0
H45 H 0.99895 0.78183 0.09247 0.0
C46 C 0.99658 0.75698 0.38555 0.0
C47 C 0.01561 0.7686 0.43987 0.0
C48 C 0.01168 0.7958 0.4712 0.0
C49 C 0.98862 0.81273 0.44914 0.0
C50 C 0.96839 0.80055 0.3984 0.0
C51 C 0.9724 0.773 0.36669 0.0
C52 C 0.98932 0.69596 0.29079 0.0
C53 C 1.00305 0.66944 0.29319 0.0
C54 C 0.99755 0.64837 0.2378 0.0
C55 C 0.97785 0.65298 0.17879 0.0
C56 C 0.96143 0.67795 0.18197 0.0
C57 C 0.9671 0.69924 0.23757 0.0
C58 C 0.02223 0.74211 0.24087 0.0
C59 C 0.05051 0.73813 0.21799 0.0
C60 C 0.06055 0.75076 0.15102 0.0
C61 C 0.04227 0.76725 0.10613 0.0
C62 C 0.01355 0.76952 0.12671 0.0
C63 C 1.00371 0.75727 0.19375 0.0
P64 P 0.78852 0.02552 0.23497 0.0
H65 H 0.78263 0.05825 0.37803 0.0
H66 H 0.74352 0.06071 0.47006 0.0
H67 H 0.70821 0.98335 0.37358 0.0
H68 H 0.74725 0.98055 0.28464 0.0
H69 H 0.83382 0.06293 0.1818 0.0
H70 H 0.87654 0.05211 0.11145 0.0
H71 H 0.87056 0.96451 0.1816 0.0
H72 H 0.82717 0.97573 0.25348 0.0
H73 H 0.7586 0.04307 0.09651 0.0
H74 H 0.78437 0.96413 0.19903 0.0
O75 O 0.78275 0.05988 0.21753 0.0
H76 H 0.73217 0.01683 0.99979 0.0
H77 H 0.75758 0.93759 0.10176 0.0
C78 C 0.76831 0.01938 0.32285 0.0
C79 C 0.76716 0.04113 0.37867 0.0
C80 C 0.74433 0.04281 0.4306 0.0
C81 C 0.722 0.02266 0.42842 0.0
C82 C 0.72475 0.99938 0.3776 0.0
C83 C 0.74752 0.99776 0.32581 0.0
C84 C 0.82652 0.02009 0.22226 0.0
C85 C 0.84205 0.04154 0.18526 0.0
C86 C 0.86679 0.03525 0.1442 0.0
C87 C 0.87688 1.0072 0.13871 0.0
C88 C 0.86305 0.98623 0.1826 0.0
C89 C 0.83826 0.99269 0.22447 0.0
C90 C 0.77287 1.00567 0.15656 0.0
C91 C 0.75911 0.02008 0.09756 0.0
C92 C 0.74433 1.00493 0.0412 0.0
C93 C 0.74284 0.97505 0.04312 0.0
C94 C 0.75848 0.96056 0.09877 0.0
C95 C 0.77369 0.97581 0.15455 0.0
P96 P 0.51307 0.78931 0.23483 0.0
H97 H 0.47659 0.74947 0.31299 0.0
H98 H 0.48485 0.70918 0.39292 0.0
H99 H 0.5742 0.73082 0.40506 0.0
H100 H 0.5656 0.77126 0.31941 0.0
H101 H 0.49006 0.84503 0.27621 0.0
H102 H 0.49592 0.88924 0.2085 0.0
H103 H 0.57399 0.85799 0.10879 0.0
H104 H 0.56709 0.81291 0.17499 0.0
H105 H 0.53489 0.73268 0.18786 0.0
H106 H 0.50702 0.80989 0.07971 0.0
O107 O 0.47785 0.7936 0.23472 0.0
H108 H 0.53703 0.70919 0.06329 0.0
H109 H 0.51057 0.78685 0.95447 0.0
C110 C 0.52026 0.76428 0.31154 0.0
C111 C 0.49794 0.74634 0.33426 0.0
C112 C 0.50277 0.72293 0.38089 0.0
C113 C 0.53021 0.71646 0.40754 0.0
C114 C 0.55272 0.73481 0.38592 0.0
C115 C 0.54782 0.75835 0.33788 0.0
C116 C 0.52767 0.82511 0.22947 0.0
C117 C 0.50913 0.84796 0.24246 0.0
C118 C 0.51249 0.8735 0.20278 0.0
C119 C 0.53492 0.87714 0.15013 0.0
C120 C 0.55581 0.85573 0.14625 0.0
C121 C 0.55229 0.83005 0.1859 0.0
C122 C 0.52057 0.77304 0.14335 0.0
C123 C 0.53005 0.74491 0.13741 0.0
C124 C 0.53167 0.73155 0.0657 0.0
C125 C 0.52383 0.74616 0.99898 0.0
C126 C 0.51648 0.77498 1.00488 0.0
C127 C 0.51448 0.78816 0.07651 0.0
P128 P 0.28994 0.47017 0.08186 0.0
H129 H 0.27625 0.47369 0.9179 0.0
H130 H 0.23354 0.49026 0.85361 0.0
H131 H 0.20652 0.53137 0.0635 0.0
H132 H 0.24924 0.51471 0.12734 0.0
H133 H 0.35089 0.45878 0.0931 0.0
H134 H 0.38753 0.47387 0.18285 0.0
H135 H 0.32755 0.53043 0.29307 0.0
H136 H 0.29159 0.51654 0.19911 0.0
H137 H 0.24201 0.43423 0.04208 0.0
H138 H 0.28117 0.46529 0.25067 0.0
O139 O 0.30444 0.4466 0.0215 0.0
H140 H 0.19617 0.43236 0.1068 0.0
H141 H 0.23542 0.46314 0.31518 0.0
C142 C 0.2665 0.49318 0.02766 0.0
C143 C 0.26177 0.48722 0.94958 0.0
C144 C 0.23689 0.49628 0.91303 0.0
C145 C 0.21595 0.51154 0.95364 0.0
C146 C 0.22196 0.51965 0.03001 0.0
C147 C 0.24683 0.51047 0.06661 0.0
C148 C 0.31823 0.48639 0.13894 0.0
C149 C 0.3457 0.47495 0.13533 0.0
C150 C 0.36669 0.48333 0.18803 0.0
C151 C 0.36065 0.50295 0.24737 0.0
C152 C 0.3334 0.51542 0.24843 0.0
C153 C 0.31258 0.50746 0.19436 0.0
C154 C 0.26473 0.45129 0.14032 0.0
C155 C 0.24122 0.43892 0.10297 0.0
C156 C 0.21497 0.43777 0.13994 0.0
C157 C 0.21239 0.44809 0.21523 0.0
C158 C 0.23701 0.45515 0.25685 0.0
C159 C 0.26318 0.45679 0.21939 0.0
P160 P 0.06956 0.29704 0.07862 0.0
H161 H 0.07377 0.28699 0.9124 0.0
H162 H 0.0579 0.24712 0.83237 0.0
H163 H 1.00563 0.21685 0.01785 0.0
H164 H 0.0212 0.25736 0.09754 0.0
H165 H 0.08097 0.35803 0.05857 0.0
H166 H 0.07053 0.39905 0.13945 0.0
H167 H 0.014 0.34721 0.27535 0.0
H168 H 0.02302 0.30684 0.18993 0.0
H169 H 0.08385 0.23633 0.08458 0.0
H170 H 0.08018 0.30674 0.2447 0.0
O171 O 0.09975 0.30651 0.03546 0.0
H172 H 0.08141 0.2031 0.19071 0.0
H173 H 0.07637 0.27379 0.35036 0.0
C174 C 0.04891 0.27526 1.01153 0.0
C175 C 0.05806 0.27249 0.93521 0.0
C176 C 0.04906 0.24944 0.88938 0.0
C177 C 0.03091 0.22835 0.91902 0.0
C178 C 0.01997 0.23241 0.99351 0.0
C179 C 0.02854 0.25586 0.03882 0.0
C180 C 0.05327 0.32901 0.11877 0.0
C181 C 0.06556 0.35565 0.10413 0.0
C182 C 0.05994 0.37914 0.15187 0.0
C183 C 0.04231 0.37654 0.21686 0.0
C184 C 0.02782 0.35043 0.22666 0.0
C185 C 0.03289 0.32711 0.17736 0.0
C186 C 0.07935 0.27394 0.15634 0.0
C187 C 0.08272 0.24472 0.14253 0.0
C188 C 0.08143 0.2257 0.20326 0.0
C189 C 0.07721 0.23579 0.27852 0.0
C190 C 0.07891 0.26523 0.29292 0.0
C191 C 0.08045 0.28419 0.23208 0.0
P192 P 0.2375 0.08647 0.06584 0.0
H193 H 0.25697 0.09967 0.91087 0.0
H194 H 0.29721 0.08232 0.83606 0.0
H195 H 0.30838 0.01383 0.99543 0.0
H196 H 0.26835 0.0317 0.07162 0.0
H197 H 0.17583 0.09611 0.06814 0.0
H198 H 0.13834 0.08 0.15404 0.0
H199 H 0.19734 0.02209 0.25925 0.0
H200 H 0.23454 0.03791 0.17194 0.0
H201 H 0.2963 0.10615 0.05562 0.0
H202 H 0.23377 0.09633 0.23434 0.0
O203 O 0.22454 0.11517 0.02285 0.0
H204 H 0.33349 0.10956 0.15039 0.0
H205 H 0.27114 0.1007 0.33089 0.0
C206 C 0.25896 0.06677 0.99665 0.0
C207 C 0.26728 0.08031 0.92869 0.0
C208 C 0.29069 0.07063 0.88631 0.0
C209 C 0.30626 0.0469 0.91015 0.0
C210 C 0.29678 0.03212 0.97526 0.0
C211 C 0.27357 0.04214 0.0185 0.0
C212 C 0.2082 0.0682 0.11287 0.0
C213 C 0.18061 0.07939 0.10821 0.0
C214 C 0.15916 0.07042 0.15842 0.0
C215 C 0.16475 0.05007 0.215 0.0
C216 C 0.19199 0.03764 0.21633 0.0
C217 C 0.2134 0.04653 0.16573 0.0
C218 C 0.26251 0.09881 0.13746 0.0
C219 C 0.29042 0.10524 0.11548 0.0
C220 C 0.31179 0.10772 0.1704 0.0
C221 C 0.30554 0.10445 0.24871 0.0
C222 C 0.27685 0.10226 0.27095 0.0
C223 C 0.25544 0.09955 0.21559 0.0
P224 P 0.46874 0.2423 0.09559 0.0
H225 H 0.46399 0.25612 0.93198 0.0
H226 H 0.48115 0.29639 0.85846 0.0
H227 H 0.53274 0.32325 0.05165 0.0
H228 H 0.51673 0.28179 0.12261 0.0
H229 H 0.46109 0.18068 0.07074 0.0
H230 H 0.47399 0.14028 0.15053 0.0
H231 H 0.52757 0.19523 0.28842 0.0
H232 H 0.51519 0.23553 0.20706 0.0
H233 H 0.45664 0.30333 0.11906 0.0
H234 H 0.45233 0.22682 0.25302 0.0
O235 O 0.43964 0.23132 0.04891 0.0
H236 H 0.45546 0.33191 0.23607 0.0
H237 H 0.4509 0.25543 0.37044 0.0
C238 C 0.48883 0.26588 0.03336 0.0
C239 C 0.47971 0.27013 0.95773 0.0
C240 C 0.48922 0.29368 0.91601 0.0
C241 C 0.50778 0.31401 0.94926 0.0
C242 C 0.51857 0.30835 0.02315 0.0
C243 C 0.50946 0.28441 0.0642 0.0
C244 C 0.48701 0.21135 0.13288 0.0
C245 C 0.47648 0.18395 0.11619 0.0
C246 C 0.48374 0.16079 0.16228 0.0
C247 C 0.50135 0.16465 0.22682 0.0
C248 C 0.51364 0.19164 0.23977 0.0
C249 C 0.50689 0.21465 0.19252 0.0
C250 C 0.45703 0.26292 0.17765 0.0
C251 C 0.45507 0.29261 0.17347 0.0
C252 C 0.45391 0.30901 0.24057 0.0
C253 C 0.4541 0.29584 0.31253 0.0
C254 C 0.45163 0.2661 0.31574 0.0
C255 C 0.4527 0.24975 0.24854 0.0
Eu256 Eu 0.98415 0.03594 0.61534 0.0
C257 C 0.09713 0.05544 0.78025 0.0
N258 N 0.09067 0.04069 0.7149 0.0
C259 C 0.12927 0.06369 0.64983 0.0
C260 C 0.11911 0.07599 0.78157 0.0
C261 C 0.10765 0.04322 0.65186 0.0
C262 C 0.13466 0.08058 0.7145 0.0
C263 C 0.09036 0.06219 0.9173 0.0
C264 C 0.08307 0.04861 0.84747 0.0
C265 C 0.11136 0.0835 0.91809 0.0
C266 C 0.12567 0.09042 0.85035 0.0
Eu267 Eu 0.05254 1.00748 0.72436 0.0
N268 N 0.06264 0.02813 0.84492 0.0
C269 C 0.07655 0.05364 0.9844 0.0
C270 C 0.04996 0.01885 0.91037 0.0
C271 C 0.05646 0.03168 0.98099 0.0
H272 H 0.1054 0.02888 0.60377 0.0
H273 H 0.04602 0.02459 0.03269 0.0
H274 H 0.93143 1.00077 0.70097 0.0
H275 H 0.01063 0.04056 0.30911 0.0
H276 H 0.03474 1.0016 0.908 0.0
H277 H 0.08157 0.06354 0.03917 0.0
H278 H 0.01001 0.05774 0.44252 0.0
H279 H 0.14221 0.06596 0.59895 0.0
H280 H 0.1171 0.09434 0.97105 0.0
H281 H 0.14234 0.1064 0.85221 0.0
H282 H 0.89621 0.96311 0.66916 0.0
H283 H 0.15171 0.09613 0.71314 0.0
H284 H 0.98194 0.99853 0.27115 0.0
N285 N 0.95002 1.00028 0.59006 0.0
C286 C 0.94879 0.99012 0.51688 0.0
C287 C 0.911 0.97038 0.62601 0.0
C288 C 0.9291 0.96866 0.49622 0.0
C289 C 0.93094 0.99158 0.64394 0.0
C290 C 0.91026 0.95865 0.55206 0.0
N291 N 0.98464 0.0234 0.48312 0.0
C292 C 0.99894 0.03827 0.42833 0.0
C293 C 0.96563 0.99182 0.38561 0.0
C294 C 0.96699 1.00158 0.46236 0.0
C295 C 0.98239 1.00538 0.33065 0.0
C296 C 0.99869 0.02905 0.35188 0.0
H297 H 0.89483 0.94217 0.53842 0.0
H298 H 0.91387 0.94139 0.40392 0.0
H299 H 0.94574 0.96174 0.30701 0.0
O300 O 0.95529 0.06166 0.54764 0.0
O301 O 0.98978 0.98751 0.63042 0.0
O302 O 0.03738 0.98579 0.61564 0.0
O303 O 0.95341 0.06424 0.67085 0.0
O304 O 0.02696 0.05196 0.56998 0.0
O305 O 0.05657 0.01452 0.59563 0.0
O306 O 0.05473 0.96496 0.77256 0.0
O307 O 0.03059 0.04707 0.77076 0.0
O308 O 0.01619 0.06876 0.66135 0.0
O309 O 0.09379 0.9866 0.73619 0.0
O310 O 0.01002 0.99392 0.77851 0.0
O311 O 0.97756 0.02839 0.74211 0.0
C312 C 0.01257 0.97337 0.60956 0.0
C313 C 0.95033 0.1072 0.60357 0.0
C314 C 0.97437 0.14833 0.54869 0.0
C315 C 0.96236 0.16575 0.60577 0.0
C316 C 0.93838 0.12489 0.66008 0.0
C317 C 0.94442 0.15404 0.66109 0.0
C318 C 0.96827 0.11915 0.54794 0.0
C319 C 0.04974 0.03678 0.55452 0.0
C320 C 0.94629 0.07612 0.60666 0.0
C321 C 0.92863 0.9581 0.42065 0.0
C322 C 0.94686 0.96963 0.36553 0.0
C323 C 0.02385 0.07027 0.73388 0.0
C324 C 0.09896 0.93901 0.7871 0.0
C325 C 0.10095 0.89353 0.85198 0.0
C326 C 0.13023 0.89201 0.83662 0.0
C327 C 0.12826 0.93744 0.77253 0.0
C328 C 0.08543 0.91672 0.82494 0.0
C329 C 0.14373 0.91385 0.7966 0.0
C330 C 0.98648 1.00874 0.78953 0.0
C331 C 0.08226 0.96381 0.7643 0.0
H332 H 0.96672 0.18838 0.60725 0.0
H333 H 0.92481 0.11609 0.70411 0.0
H334 H 0.9353 0.16756 0.70512 0.0
H335 H 0.97821 0.10572 0.50488 0.0
H336 H 0.1428 0.87447 0.85741 0.0
H337 H 0.13919 0.95439 0.74287 0.0
H338 H 0.06271 0.91768 0.83492 0.0
H339 H 0.16633 0.91274 0.78553 0.0
Eu340 Eu 0.5254 0.04835 0.76747 0.0
C341 C 0.52072 0.92317 0.62395 0.0
N342 N 0.5296 0.94687 0.58684 0.0
C343 C 0.56616 0.92009 0.52339 0.0
C344 C 0.53452 0.89688 0.61227 0.0
C345 C 0.55199 0.94568 0.53698 0.0
C346 C 0.5574 0.89557 0.56115 0.0
C347 C 0.4895 0.90119 0.71717 0.0
C348 C 0.49832 0.9253 0.67561 0.0
C349 C 0.50297 0.87498 0.70483 0.0
C350 C 0.52538 0.87283 0.65248 0.0
Eu351 Eu 0.50382 0.98906 0.61251 0.0
N352 N 0.48609 0.95113 0.68808 0.0
C353 C 0.46778 0.90422 0.77124 0.0
C354 C 0.46511 0.95409 0.74127 0.0
C355 C 0.45562 0.93083 0.78352 0.0
H356 H 0.55857 0.96435 0.50604 0.0
H357 H 0.4391 0.93353 0.82608 0.0
H358 H 0.47982 0.05253 0.91437 0.0
H359 H 0.57559 0.13293 0.6028 0.0
H360 H 0.45623 0.97439 0.75328 0.0
H361 H 0.46053 0.88627 0.80452 0.0
H362 H 0.56742 0.08361 0.64506 0.0
H363 H 0.58377 0.91928 0.48357 0.0
H364 H 0.49642 0.8563 0.7362 0.0
H365 H 0.53572 0.8525 0.64411 0.0
H366 H 0.45175 0.08922 0.98286 0.0
H367 H 0.56848 0.87578 0.55064 0.0
H368 H 0.5477 0.17222 0.66019 0.0
N369 N 0.49841 0.0819 0.83715 0.0
C370 C 0.50112 0.10946 0.81598 0.0
C371 C 0.46546 0.09518 0.93584 0.0
C372 C 0.48572 0.1311 0.85373 0.0
C373 C 0.48122 0.07447 0.89677 0.0
C374 C 0.46759 0.1236 0.91396 0.0
N375 N 0.53501 0.09481 0.72411 0.0
C376 C 0.5553 0.1006 0.67056 0.0
C377 C 0.52408 0.14463 0.73601 0.0
C378 C 0.52007 0.11613 0.758 0.0
C379 C 0.54407 0.15061 0.67891 0.0
C380 C 0.5599 0.12851 0.64646 0.0
H381 H 0.45545 0.13962 0.94453 0.0
H382 H 0.47752 0.17639 0.8592 0.0
H383 H 0.51103 0.18823 0.75594 0.0
O384 O 0.56679 0.03539 0.80908 0.0
O385 O 0.50623 0.06533 0.65705 0.0
O386 O 0.516 0.03194 0.56259 0.0
O387 O 0.54014 0.06227 0.88062 0.0
O388 O 0.56242 0.03351 0.69127 0.0
O389 O 0.5475 1.00656 0.58531 0.0
O390 O 0.46357 0.98663 0.54979 0.0
O391 O 0.52967 0.97647 0.71793 0.0
O392 O 0.5095 1.00551 0.80642 0.0
O393 O 0.50178 0.9707 0.49738 0.0
O394 O 0.46698 0.01569 0.66222 0.0
O395 O 0.48229 0.02793 0.78304 0.0
C396 C 0.50888 0.05782 0.58438 0.0
C397 C 0.5661 0.02582 0.94213 0.0
C398 C 0.59041 0.98429 0.99456 0.0
C399 C 0.57737 0.99015 0.06598 0.0
C400 C 0.55362 0.03115 0.0138 0.0
C401 C 0.55875 0.01298 0.07475 0.0
C402 C 0.58312 1.00163 0.93223 0.0
C403 C 0.5673 0.01947 0.62658 0.0
C404 C 0.56223 0.04568 0.87788 0.0
C405 C 0.48922 0.15947 0.83104 0.0
C406 C 0.50833 0.16621 0.77226 0.0
C407 C 0.52375 0.98245 0.78986 0.0
C408 C 0.47132 0.99637 0.41772 0.0
C409 C 0.44934 0.03715 0.35572 0.0
C410 C 0.46607 0.03196 0.29028 0.0
C411 C 0.48742 0.99134 0.35112 0.0
C412 C 0.45243 0.01945 0.41966 0.0
C413 C 0.48498 1.00923 0.28822 0.0
C414 C 0.46231 0.02703 0.73052 0.0
C415 C 0.47578 0.97859 0.48605 0.0
H416 H 0.58219 0.9781 0.11665 0.0
H417 H 0.54007 0.04942 0.02297 0.0
H418 H 0.54911 0.01723 0.12999 0.0
H419 H 0.59117 0.99697 0.87563 0.0
H420 H 0.46388 0.04487 0.2396 0.0
H421 H 0.5022 0.97377 0.34806 0.0
H422 H 0.44008 0.0237 0.47086 0.0
H423 H 0.49756 1.00525 0.23731 0.0
Eu424 Eu 0.54908 0.50446 0.62957 0.0
C425 C 0.45048 0.47447 0.83615 0.0
N426 N 0.44985 0.48868 0.76869 0.0
C427 C 0.4113 0.4594 0.72388 0.0
C428 C 0.43183 0.45143 0.84903 0.0
C429 C 0.43035 0.48191 0.71324 0.0
C430 C 0.41215 0.44398 0.79184 0.0
C431 C 0.47081 0.46852 0.96284 0.0
C432 C 0.46997 0.4829 0.89223 0.0
C433 C 0.4529 0.44499 0.97478 0.0
C434 C 0.43343 0.43653 0.91815 0.0
Eu435 Eu 0.48225 0.52685 0.75709 0.0
N436 N 0.48699 0.50592 0.87954 0.0
C437 C 0.48889 0.47884 0.02056 0.0
C438 C 0.50216 0.51775 0.93865 0.0
C439 C 0.50417 0.50391 1.00895 0.0
H440 H 0.42961 0.49392 0.66084 0.0
H441 H 0.51697 0.51298 0.05473 0.0
H442 H 0.60676 0.50898 0.74393 0.0
H443 H 0.52911 0.55219 0.35038 0.0
H444 H 0.51221 0.53824 0.93292 0.0
H445 H 0.49017 0.46838 0.07549 0.0
H446 H 0.51794 0.52331 0.4632 0.0
H447 H 0.39602 0.45393 0.67965 0.0
H448 H 0.45348 0.4336 0.02841 0.0
H449 H 0.41947 0.4186 0.92872 0.0
H450 H 0.65351 0.53288 0.74509 0.0
H451 H 0.39746 0.42643 0.7997 0.0
H452 H 0.57556 0.57675 0.34128 0.0
N453 N 0.59424 0.52636 0.63706 0.0
C454 C 0.60196 0.5423 0.57581 0.0
C455 C 0.63914 0.53584 0.69738 0.0
C456 C 0.62874 0.55588 0.57347 0.0
C457 C 0.61245 0.52264 0.69702 0.0
C458 C 0.64731 0.55259 0.63547 0.0
N459 N 0.55703 0.53238 0.5198 0.0
C460 C 0.53799 0.53434 0.46109 0.0
C461 C 0.59043 0.56156 0.45092 0.0
C462 C 0.58301 0.5451 0.51513 0.0
C463 C 0.57068 0.56424 0.39143 0.0
C464 C 0.54439 0.5505 0.3965 0.0
H465 H 0.66806 0.56269 0.63583 0.0
H466 H 0.6567 0.58276 0.50674 0.0
H467 H 0.62317 0.58773 0.39956 0.0
O468 O 0.54465 0.46791 0.55254 0.0
O469 O 0.54194 0.55264 0.63106 0.0
O470 O 0.49541 0.55984 0.6702 0.0
O471 O 0.58547 0.47728 0.60444 0.0
O472 O 0.50487 0.49586 0.57874 0.0
O473 O 0.47376 0.52897 0.62973 0.0
O474 O 0.46888 0.56278 0.82908 0.0
O475 O 0.48973 0.48066 0.71955 0.0
O476 O 0.53739 0.47693 0.73109 0.0
O477 O 0.43791 0.53996 0.76174 0.0
O478 O 0.52627 0.54153 0.80171 0.0
O479 O 0.55499 0.50555 0.75792 0.0
C480 C 0.51918 0.56868 0.63824 0.0
C481 C 0.57009 0.42921 0.6017 0.0
C482 C 0.54868 0.3818 0.60525 0.0
C483 C 0.56432 0.37595 0.67186 0.0
C484 C 0.58566 0.4229 0.66827 0.0
C485 C 0.58287 0.39635 0.70266 0.0
C486 C 0.55207 0.40836 0.57005 0.0
C487 C 0.48108 0.51061 0.57615 0.0
C488 C 0.56979 0.45819 0.56975 0.0
C489 C 0.6362 0.57221 0.50951 0.0
C490 C 0.61712 0.57501 0.44841 0.0
C491 C 0.51207 0.46567 0.73799 0.0
C492 C 0.43358 0.58969 0.76505 0.0
C493 C 0.44102 0.64033 0.74226 0.0
C494 C 0.41982 0.63953 0.68557 0.0
C495 C 0.41222 0.58936 0.70846 0.0
C496 C 0.44733 0.61544 0.78271 0.0
C497 C 0.40542 0.61416 0.66919 0.0
C498 C 0.54945 0.52596 0.80757 0.0
C499 C 0.44323 0.56298 0.80066 0.0
H500 H 0.56202 0.35576 0.70055 0.0
H501 H 0.59948 0.43863 0.69491 0.0
H502 H 0.59467 0.39178 0.75432 0.0
H503 H 0.54044 0.41303 0.51803 0.0
H504 H 0.41457 0.65841 0.65362 0.0
H505 H 0.40112 0.56985 0.69344 0.0
H506 H 0.46326 0.61603 0.82763 0.0
H507 H 0.38917 0.61361 0.62524 0.0
Eu508 Eu 0.02955 0.55176 0.62549 0.0
C509 C 0.05011 0.45371 0.83375 0.0
N510 N 0.03737 0.45495 0.76389 0.0
C511 C 0.06463 0.4152 0.71924 0.0
C512 C 0.07177 0.4338 0.84776 0.0
C513 C 0.04345 0.43546 0.70776 0.0
C514 C 0.07908 0.41456 0.78924 0.0
C515 C 0.05436 0.47155 0.96425 0.0
C516 C 0.04131 0.47233 0.89137 0.0
C517 C 0.07669 0.45249 0.97748 0.0
C518 C 0.08527 0.43357 0.91954 0.0
Eu519 Eu 1.00052 0.48827 0.75092 0.0
N520 N 0.01924 0.49022 0.87743 0.0
C521 C 0.04401 0.48935 0.02248 0.0
C522 C 1.00765 0.5058 0.93599 0.0
C523 C 0.02029 0.50622 1.00857 0.0
H524 H 0.03203 0.43578 0.65403 0.0
H525 H 0.01136 0.51913 0.0542 0.0
H526 H 0.02364 0.61037 0.74095 0.0
H527 H 0.99746 0.53686 0.32778 0.0
H528 H 0.98825 0.51748 0.92797 0.0
H529 H 0.05351 0.48943 0.07911 0.0
H530 H 0.01993 0.52397 0.44996 0.0
H531 H 0.06978 0.40009 0.67421 0.0
H532 H 0.08701 0.45173 0.03298 0.0
H533 H 0.10215 0.41862 0.93112 0.0
H534 H 1.0004 0.65689 0.73854 0.0
H535 H 0.09557 0.39891 0.79786 0.0
H536 H 0.97262 0.58284 0.31629 0.0
N537 N 1.00809 0.59723 0.63117 0.0
C538 C 0.99453 0.60547 0.56613 0.0
C539 C 0.9983 0.6425 0.69001 0.0
C540 C 0.9819 0.63256 0.56127 0.0
C541 C 0.01096 0.61569 0.69174 0.0
C542 C 0.98353 0.65091 0.62475 0.0
N543 N 1.00615 0.56115 0.50913 0.0
C544 C 1.00822 0.54352 0.44675 0.0
C545 C 0.98103 0.59553 0.4339 0.0
C546 C 0.99385 0.58709 0.50317 0.0
C547 C 0.98199 0.577 0.37064 0.0
C548 C 0.99588 0.55099 0.37695 0.0
H549 H 0.97406 0.67185 0.62331 0.0
H550 H 0.95879 0.66147 0.48828 0.0
H551 H 0.95816 0.62911 0.37678 0.0
O552 O 0.07005 0.54355 0.56948 0.0
O553 O 0.98361 0.5383 0.60153 0.0
O554 O 0.96583 0.51913 0.71378 0.0
O555 O 0.057 0.58696 0.59082 0.0
O556 O 0.03562 0.50656 0.57665 0.0
O557 O 0.99685 0.48248 0.62278 0.0
O558 O 0.97429 0.46355 0.82899 0.0
O559 O 0.04754 0.49419 0.71949 0.0
O560 O 0.05426 0.54145 0.73274 0.0
O561 O 0.97661 0.45132 0.70954 0.0
O562 O 0.98795 0.53216 0.79785 0.0
O563 O 0.02473 0.56045 0.754 0.0
C564 C 0.96223 0.53167 0.64706 0.0
C565 C 0.07888 0.57628 0.47164 0.0
C566 C 0.09785 0.55963 0.34901 0.0
C567 C 0.08187 0.58055 0.31151 0.0
C568 C 0.06349 0.59739 0.43336 0.0
C569 C 0.06511 0.59951 0.35372 0.0
C570 C 0.09666 0.55824 0.42937 0.0
C571 C 0.0167 0.48585 0.57102 0.0
C572 C 0.07428 0.57029 0.55351 0.0
C573 C 0.96854 0.64074 0.49296 0.0
C574 C 0.96818 0.62231 0.42942 0.0
C575 C 0.06311 0.5156 0.74448 0.0
C576 C 0.93358 0.44299 0.77223 0.0
C577 C 0.88598 0.46162 0.79385 0.0
C578 C 0.87473 0.43472 0.77331 0.0
C579 C 0.92207 0.4165 0.75174 0.0
C580 C 0.91556 0.46565 0.79049 0.0
C581 C 0.89268 0.41252 0.75142 0.0
C582 C 1.00409 0.55514 0.80325 0.0
C583 C 0.96443 0.44682 0.7751 0.0
H584 H 0.082 0.58212 0.24965 0.0
H585 H 0.04965 0.61177 0.46442 0.0
H586 H 0.05289 0.61553 0.32448 0.0
H587 H 0.10918 0.54269 0.45971 0.0
H588 H 0.85219 0.43027 0.77694 0.0
H589 H 0.93581 0.39889 0.73666 0.0
H590 H 0.92482 0.48627 0.80352 0.0
H591 H 0.88381 0.39192 0.73636 0.0
H592 H 0.12668 0.08564 0.28717 0.0
H593 H 0.15333 0.99795 0.27772 0.0
H594 H 0.11994 0.98633 0.37969 0.0
H595 H 0.08398 1.00097 0.47391 0.0
H596 H 0.05662 0.08829 0.4837 0.0
H597 H 0.0889 0.09992 0.37814 0.0
C598 C 0.12493 0.06387 0.30639 0.0
C599 C 0.14284 0.04277 0.27438 0.0
C600 C 0.10546 0.05721 0.36526 0.0
C601 C 0.14035 0.0148 0.30158 0.0
C602 C 0.12108 1.00806 0.35982 0.0
C603 C 0.085 0.02257 0.4529 0.0
C604 C 0.06794 0.04376 0.48715 0.0
C605 C 0.10373 0.02911 0.39256 0.0
C606 C 0.06941 0.07155 0.45848 0.0
C607 C 0.08798 0.07822 0.39825 0.0
H608 H 0.49354 0.16779 0.38094 0.0
H609 H 0.51595 0.10891 0.20031 0.0
H610 H 0.52017 0.07059 0.29394 0.0
H611 H 0.51736 0.05378 0.42806 0.0
H612 H 0.49223 0.11291 0.60632 0.0
H613 H 0.48921 0.15082 0.5132 0.0
C614 C 0.49962 0.14662 0.36217 0.0
C615 C 0.50482 0.14136 0.28379 0.0
C616 C 0.5014 0.12459 0.4161 0.0
C617 C 0.51199 0.1136 0.26027 0.0
C618 C 0.51437 0.09167 0.31386 0.0
C619 C 0.51122 0.07494 0.44667 0.0
C620 C 0.50567 0.08038 0.52509 0.0
C621 C 0.50905 0.09687 0.39208 0.0
C622 C 0.49727 0.10797 0.54717 0.0
C623 C 0.4954 0.1298 0.49367 0.0
H624 H 0.40115 0.46738 0.30705 0.0
H625 H 0.36913 0.55304 0.32894 0.0
H626 H 0.40255 0.56253 0.43307 0.0
H627 H 0.44119 0.5467 0.51855 0.0
H628 H 0.47554 0.46243 0.48885 0.0
H629 H 0.44144 0.45263 0.38607 0.0
C630 C 0.40169 0.48839 0.33307 0.0
C631 C 0.38221 0.50934 0.30922 0.0
C632 C 0.42158 0.49406 0.39185 0.0
C633 C 0.38321 0.53614 0.34618 0.0
C634 C 0.40257 0.54173 0.40567 0.0
C635 C 0.44123 0.5262 0.48946 0.0
C636 C 0.46091 0.5053 0.51167 0.0
C637 C 0.42181 0.52084 0.42923 0.0
C638 C 0.4608 0.47896 0.47281 0.0
C639 C 0.44121 0.4733 0.4141 0.0
H640 H 0.99794 0.39122 0.31353 0.0
H641 H 0.08431 0.41498 0.25815 0.0
H642 H 0.08349 0.45158 0.35734 0.0
H643 H 0.05942 0.47584 0.46572 0.0
H644 H 0.97431 0.44968 0.52591 0.0
H645 H 0.97404 0.41505 0.42132 0.0
C646 C 0.01677 0.40413 0.32314 0.0
C647 C 0.04103 0.4 0.2767 0.0
C648 C 0.01663 0.42484 0.38252 0.0
C649 C 0.0649 0.41768 0.2906 0.0
C650 C 0.06468 0.4386 0.34846 0.0
C651 C 0.04077 0.46267 0.45575 0.0
C652 C 0.01698 0.46552 0.50436 0.0
C653 C 0.04078 0.44227 0.39542 0.0
C654 C 0.99307 0.44804 0.49022 0.0
C655 C 0.99283 0.42814 0.43004 0.0
H656 H 0.92425 0.03808 0.09925 0.0
H657 H 0.87994 0.95988 0.04508 0.0
H658 H 0.91191 0.95143 0.93702 0.0
H659 H 0.94945 0.96903 0.84811 0.0
H660 H 0.99062 0.04894 0.89881 0.0
H661 H 0.9631 0.05402 0.01653 0.0
C662 C 0.92159 0.01907 0.0642 0.0
C663 C 0.89939 0.99981 0.08071 0.0
C664 C 0.93957 0.01471 1.00056 0.0
C665 C 0.89688 0.97504 0.03493 0.0
C666 C 0.91504 0.97029 0.97227 0.0
C667 C 0.95277 0.98713 0.88613 0.0
C668 C 0.97249 1.00837 0.86569 0.0
C669 C 0.93607 0.99032 0.95323 0.0
C670 C 0.97603 0.03212 0.91419 0.0
C671 C 0.96011 0.03512 0.9813 0.0
H672 H 0.55284 0.87737 0.99996 0.0
H673 H 0.51543 0.93199 0.17268 0.0
H674 H 0.50787 0.96857 0.07707 0.0
H675 H 0.51028 0.98478 0.94295 0.0
H676 H 0.55125 0.93161 0.77334 0.0
H677 H 0.55926 0.89524 0.86927 0.0
C678 C 0.54367 0.89747 0.01771 0.0
C679 C 0.53444 0.90138 0.09421 0.0
C680 C 0.53977 0.91883 0.96246 0.0
C681 C 0.52219 0.92772 0.11441 0.0
C682 C 0.51791 0.94885 0.05958 0.0
C683 C 0.52104 0.96528 0.9269 0.0
C684 C 0.52969 0.96093 0.85022 0.0
C685 C 0.52621 0.94451 0.9831 0.0
C686 C 0.54393 0.93557 0.83127 0.0
C687 C 0.54868 0.9147 0.88639 0.0
H688 H 0.63113 0.50293 0.08745 0.0
H689 H 0.61882 0.59246 0.13014 0.0
H690 H 0.58654 0.59475 0.01965 0.0
H691 H 0.56227 0.57095 0.90761 0.0
H692 H 0.57642 0.48124 0.86951 0.0
H693 H 0.60682 0.47949 0.98134 0.0
C694 C 0.62101 0.52293 0.07396 0.0
C695 C 0.62729 0.54739 0.11833 0.0
C696 C 0.60267 0.52411 1.01029 0.0
C697 C 0.61452 0.57322 0.09743 0.0
C698 C 0.59595 0.57453 0.03414 0.0
C699 C 0.57191 0.55106 0.92421 0.0
C700 C 0.56703 0.52633 0.8792 0.0
C701 C 0.58993 0.55009 0.98958 0.0
C702 C 0.57987 0.50075 0.90183 0.0
C703 C 0.5973 0.49962 0.9663 0.0
H704 H 0.02263 0.63465 0.09456 0.0
H705 H 0.93145 0.6279 0.10783 0.0
H706 H 0.93114 0.59619 0.99478 0.0
H707 H 0.95729 0.57051 0.89025 0.0
H708 H 0.0483 0.58076 0.87567 0.0
H709 H 0.04819 0.61059 0.9905 0.0
C710 C 1.00267 0.62606 0.07316 0.0
C711 C 0.97711 0.63341 0.11037 0.0
C712 C 1.00265 0.60841 1.00733 0.0
C713 C 0.95142 0.62257 0.08055 0.0
C714 C 0.95128 0.60439 0.01589 0.0
C715 C 0.97704 0.57928 0.91243 0.0
C716 C 1.00278 0.57334 0.87392 0.0
C717 C 0.9768 0.59717 0.97848 0.0
C718 C 0.02816 0.58507 0.90336 0.0
C719 C 0.02815 0.60213 0.96941 0.0
H720 H 0.03735 0.19489 0.25838 0.0
H721 H 0.08968 0.23484 0.43253 0.0
H722 H 0.06258 0.21054 0.53222 0.0
H723 H 0.02148 0.18135 0.56901 0.0
H724 H 0.96953 0.14151 0.39459 0.0
H725 H 0.99942 0.16223 0.29493 0.0
C726 C 0.04351 0.19765 0.31794 0.0
C727 C 0.0655 0.21673 0.33797 0.0
C728 C 0.02762 0.18402 0.37464 0.0
C729 C 0.07269 0.22046 0.41567 0.0
C730 C 0.05715 0.20666 0.47261 0.0
C731 C 0.01669 0.17725 0.50942 0.0
C732 C 0.99312 0.16033 0.48915 0.0
C733 C 0.03404 0.1891 0.45271 0.0
C734 C 0.98753 0.15462 0.41141 0.0
C735 C 1.00459 0.16642 0.35456 0.0
H736 H 0.35954 0.12667 0.25489 0.0
H737 H 0.30441 0.06535 0.36336 0.0
H738 H 0.34523 0.04229 0.4197 0.0
H739 H 0.39587 0.03245 0.41165 0.0
H740 H 0.45164 0.09079 0.29475 0.0
H741 H 0.41135 0.12152 0.26661 0.0
C742 C 0.35642 0.10856 0.29196 0.0
C743 C 0.32889 0.09736 0.30272 0.0
C744 C 0.38018 0.09422 0.32068 0.0
C745 C 0.32521 0.07455 0.35344 0.0
C746 C 0.34866 0.06096 0.38494 0.0
C747 C 0.39948 0.05236 0.38233 0.0
C748 C 0.42666 0.05897 0.35391 0.0
C749 C 0.37619 0.06954 0.36492 0.0
C750 C 0.43081 0.08482 0.31559 0.0
C751 C 0.40778 0.10245 0.29966 0.0
H752 H 0.49398 0.28186 0.41615 0.0
H753 H 0.43411 0.34774 0.36103 0.0
H754 H 0.45613 0.37927 0.45694 0.0
H755 H 0.49626 0.38989 0.54306 0.0
H756 H 0.55837 0.3249 0.58816 0.0
H757 H 0.5309 0.29081 0.51186 0.0
C758 C 0.48511 0.30277 0.42685 0.0
C759 C 0.46248 0.3125 0.38155 0.0
C760 C 0.49845 0.32099 0.47989 0.0
C761 C 0.45162 0.33987 0.39501 0.0
C762 C 0.46426 0.35789 0.44957 0.0
C763 C 0.5037 0.36821 0.53643 0.0
C764 C 0.52962 0.3601 0.57 0.0
C765 C 0.48838 0.34902 0.49006 0.0
C766 C 0.53853 0.33173 0.563 0.0
C767 C 0.52295 0.31227 0.51881 0.0
H768 H 0.19034 0.49459 0.15655 0.0
H769 H 0.17601 0.43182 0.33011 0.0
H770 H 0.13591 0.45967 0.38055 0.0
H771 H 0.10816 0.50378 0.38084 0.0
H772 H 0.12876 0.56975 0.21892 0.0
H773 H 0.16244 0.53821 0.15573 0.0
C774 C 0.1779 0.48678 0.20424 0.0
C775 C 0.1855 0.46118 0.2391 0.0
C776 C 0.15613 0.5035 0.23466 0.0
C777 C 0.17003 0.45134 0.3021 0.0
C778 C 0.14732 0.46732 0.33088 0.0
C779 C 0.12017 0.51146 0.33221 0.0
C780 C 0.1161 0.53938 0.30557 0.0
C781 C 0.14073 0.4938 0.29877 0.0
C782 C 0.13114 0.5484 0.24052 0.0
C783 C 0.15067 0.53046 0.20471 0.0
H784 H 0.03211 0.82261 0.09117 0.0
H785 H 0.07887 0.75344 0.9886 0.0
H786 H 0.10064 0.78647 0.8972 0.0
H787 H 0.10762 0.83572 0.85139 0.0
H788 H 0.06227 0.90415 0.96368 0.0
H789 H 0.03806 0.87044 0.04519 0.0
C790 C 0.04663 0.81461 0.0478 0.0
C791 C 0.05376 0.78574 0.04587 0.0
C792 C 0.05929 0.83359 0.99738 0.0
C793 C 0.07316 0.77572 0.99086 0.0
C794 C 0.08556 0.79455 0.93889 0.0
C795 C 0.09255 0.84318 0.89399 0.0
C796 C 0.0866 0.87237 0.90086 0.0
C797 C 0.07912 0.82367 0.94256 0.0
C798 C 0.06683 0.88176 0.9559 0.0
C799 C 0.05309 0.86254 1.00308 0.0
H800 H 0.70378 0.93789 0.09704 0.0
H801 H 0.73006 0.98048 0.89103 0.0
H802 H 0.68139 0.97901 0.84326 0.0
H803 H 0.63262 0.98139 0.8831 0.0
H804 H 0.60481 0.93882 0.08903 0.0
H805 H 0.65343 0.92413 0.11293 0.0
C806 C 0.69917 0.94544 0.03984 0.0
C807 C 0.72004 0.96056 0.99905 0.0
C808 C 0.67089 0.94574 0.01448 0.0
C809 C 0.714 0.96958 0.92434 0.0
C810 C 0.68611 0.96902 0.89748 0.0
C811 C 0.63621 0.96816 0.93229 0.0
C812 C 0.61504 0.9641 0.98873 0.0
C813 C 0.6642 0.95972 0.94574 0.0
C814 C 0.62099 0.945 0.04839 0.0
C815 C 0.64885 0.93613 0.06173 0.0
H816 H 0.4778 0.75134 0.90825 0.0
H817 H 0.55558 0.70392 0.93135 0.0
H818 H 0.53827 0.6689 0.83738 0.0
H819 H 0.49743 0.64751 0.77021 0.0
H820 H 0.41821 0.69319 0.75966 0.0
H821 H 0.44024 0.73396 0.82394 0.0
C822 C 0.49151 0.73399 0.89067 0.0
C823 C 0.51774 0.72995 0.92758 0.0
C824 C 0.48099 0.71351 0.83927 0.0
C825 C 0.53508 0.70716 0.90459 0.0
C826 C 0.52516 0.68714 0.8511 0.0
C827 C 0.48513 0.66658 0.78117 0.0
C828 C 0.45603 0.66707 0.76253 0.0
C829 C 0.49752 0.68933 0.82158 0.0
C830 C 0.44057 0.69219 0.77414 0.0
C831 C 0.45309 0.71541 0.81154 0.0
H832 H 0.82016 0.53706 0.02695 0.0
H833 H 0.74925 0.50098 0.90273 0.0
H834 H 0.78129 0.4849 0.80052 0.0
H835 H 0.8299 0.47262 0.76238 0.0
H836 H 0.90014 0.50156 0.90402 0.0
H837 H 0.86823 0.53016 0.97998 0.0
C838 C 0.81164 0.52663 0.97603 0.0
C839 C 0.78261 0.51994 0.97214 0.0
C840 C 0.83027 0.51586 0.92069 0.0
C841 C 0.77168 0.50613 0.90664 0.0
C842 C 0.79 0.49679 0.84872 0.0
C843 C 0.83831 0.48517 0.80975 0.0
C844 C 0.86745 0.484 0.82804 0.0
C845 C 0.81949 0.50001 0.8577 0.0
C846 C 0.87798 0.50171 0.88746 0.0
C847 C 0.85962 0.51796 0.93217 0.0
H848 H 0.03292 0.17369 0.97041 0.0
H849 H 0.01717 0.22212 0.7666 0.0
H850 H 0.01235 0.1781 0.69213 0.0
H851 H 0.0156 0.12533 0.68145 0.0
H852 H 0.03114 0.07796 0.88755 0.0
H853 H 0.0335 0.1215 0.96222 0.0
C854 C 0.02809 0.17466 0.9097 0.0
C855 C 0.02546 0.20137 0.87449 0.0
C856 C 0.02592 0.14919 0.86629 0.0
C857 C 0.01959 0.20199 0.79543 0.0
C858 C 0.01692 0.17673 0.7524 0.0
C859 C 0.0194 0.12451 0.74268 0.0
C860 C 0.02376 0.09795 0.77785 0.0
C861 C 0.02056 0.15011 0.78659 0.0
C862 C 0.02836 0.09771 0.85772 0.0
C863 C 0.02954 0.12281 0.90115 0.0
H864 H 0.35084 0.08124 0.87168 0.0
H865 H 0.32243 0.99406 0.85918 0.0
H866 H 0.36677 0.98055 0.79502 0.0
H867 H 0.4141 0.99339 0.745 0.0
H868 H 0.44406 0.07982 0.76713 0.0
H869 H 0.39848 0.09394 0.82276 0.0
C870 C 0.35426 0.05932 0.85429 0.0
C871 C 0.33317 0.03872 0.86986 0.0
C872 C 0.38012 0.05161 0.81888 0.0
C873 C 0.33824 1.01032 0.84812 0.0
C874 C 0.36359 1.00262 0.81115 0.0
C875 C 0.4109 0.01525 0.76234 0.0
C876 C 0.43298 0.03541 0.7537 0.0
C877 C 0.3848 0.02304 0.79663 0.0
C878 C 0.42774 0.0638 0.77473 0.0
C879 C 0.40161 0.07189 0.80642 0.0
H880 H 0.47349 0.34433 0.85186 0.0
H881 H 0.55676 0.34689 0.95646 0.0
H882 H 0.56544 0.3935 0.90098 0.0
H883 H 0.54884 0.43467 0.82577 0.0
H884 H 0.46762 0.42955 0.71195 0.0
H885 H 0.45903 0.38281 0.76691 0.0
C886 C 0.49387 0.35456 0.86156 0.0
C887 C 0.51425 0.34167 0.90952 0.0
C888 C 0.49909 0.38125 0.828 0.0
C889 C 0.54023 0.35615 0.9217 0.0
C890 C 0.54537 0.38289 0.8894 0.0
C891 C 0.52937 0.42321 0.81252 0.0
C892 C 0.50851 0.43607 0.76644 0.0
C893 C 0.52482 0.39584 0.84314 0.0
C894 C 0.48362 0.42065 0.74913 0.0
C895 C 0.47879 0.39375 0.78014 0.0
H896 H 0.18482 0.47681 0.85775 0.0
H897 H 0.18194 0.55874 0.97134 0.0
H898 H 0.13464 0.56693 0.91834 0.0
H899 H 0.0938 0.55096 0.83893 0.0
H900 H 0.09798 0.47012 0.72101 0.0
H901 H 0.14483 0.46148 0.77613 0.0
C902 C 0.17416 0.49672 0.87008 0.0
C903 C 0.18735 0.51717 0.91844 0.0
C904 C 0.14693 0.50144 0.83885 0.0
C905 C 0.17251 0.54244 0.93499 0.0
C906 C 0.1454 0.54723 0.90433 0.0
C907 C 0.10504 0.53151 0.82507 0.0
C908 C 0.09205 0.51095 0.77687 0.0
C909 C 0.13236 0.52689 0.85615 0.0
C910 C 0.10703 0.48594 0.75942 0.0
C911 C 0.13401 0.48111 0.79047 0.0
H912 H 0.03181 0.85145 0.45975 0.0
H913 H 0.94184 0.84312 0.50037 0.0
H914 H 0.9407 0.89183 0.55281 0.0
H915 H 0.9663 0.93631 0.59407 0.0
H916 H 0.05618 0.94339 0.54769 0.0
H917 H 0.05633 0.89573 0.49348 0.0
C918 C 0.01189 0.8601 0.48047 0.0
C919 C 0.98702 0.84319 0.47692 0.0
C920 C 0.01142 0.88806 0.51063 0.0
C921 C 0.96135 0.8554 0.50223 0.0
C922 C 0.96074 0.88329 0.53275 0.0
C923 C 0.98577 0.92764 0.57089 0.0
C924 C 0.01112 0.94396 0.57502 0.0
C925 C 0.98575 0.89981 0.53814 0.0
C926 C 0.03626 0.93175 0.54595 0.0
C927 C 0.03643 0.90431 0.51451 0.0
H928 H 0.68743 0.98273 0.49687 0.0
H929 H 0.69457 0.07301 0.45881 0.0
H930 H 0.64862 0.08049 0.52017 0.0
H931 H 0.60443 0.06115 0.57781 0.0
H932 H 0.59732 0.97101 0.61431 0.0
H933 H 0.64451 0.96374 0.55927 0.0
C934 C 0.67903 1.00409 0.50181 0.0
C935 C 0.69486 0.0272 0.4728 0.0
C936 C 0.65216 1.00829 0.53629 0.0
C937 C 0.68343 0.05472 0.48136 0.0
C938 C 0.65686 0.05906 0.51595 0.0
C939 C 0.61337 0.04001 0.57459 0.0
C940 C 0.59713 0.01656 0.59913 0.0
C941 C 0.6408 0.03599 0.54286 0.0
C942 C 0.60906 0.98929 0.59407 0.0
C943 C 0.63619 0.98515 0.56308 0.0
H944 H 0.49367 0.69136 0.50975 0.0
H945 H 0.57718 0.68091 0.41122 0.0
H946 H 0.5823 0.63572 0.4779 0.0
H947 H 0.5618 0.59758 0.55952 0.0
H948 H 0.47554 0.60633 0.63972 0.0
H949 H 0.47288 0.65333 0.58476 0.0
C950 C 0.51295 0.67922 0.50141 0.0
C951 C 0.53481 0.6899 0.45401 0.0
C952 C 0.51529 0.6526 0.53706 0.0
C953 C 0.55995 0.67382 0.44748 0.0
C954 C 0.56282 0.64766 0.48517 0.0
C955 C 0.54234 0.60955 0.56438 0.0
C956 C 0.51893 0.59795 0.60449 0.0
C957 C 0.54041 0.63655 0.52926 0.0
C958 C 0.4941 0.61444 0.61068 0.0
C959 C 0.49244 0.64145 0.57863 0.0
H960 H 0.85068 0.57132 0.47663 0.0
H961 H 0.81859 0.49205 0.5643 0.0
H962 H 0.86333 0.4846 0.63294 0.0
H963 H 0.91367 0.49876 0.65887 0.0
H964 H 0.94414 0.57865 0.57308 0.0
H965 H 0.89872 0.58731 0.51174 0.0
C966 C 0.85335 0.55244 0.51098 0.0
C967 C 0.83115 0.53223 0.51441 0.0
C968 C 0.87927 0.54813 0.54981 0.0
C969 C 0.83505 0.50816 0.56068 0.0
C970 C 0.86082 0.50373 0.59961 0.0
C971 C 0.91014 0.51829 0.62815 0.0
C972 C 0.93282 0.53777 0.61921 0.0
C973 C 0.88336 0.52333 0.59351 0.0
C974 C 0.92774 0.56282 0.57842 0.0
C975 C 0.90147 0.56795 0.54399 0.0
loop_
_geom_bond_atom_site_label_1
_geom_bond_atom_site_label_2
_geom_bond_distance
_geom_bond_site_symmetry_2
_ccdc_geom_bond_type
P0 O11 1.490 . S
P0 C14 1.812 . S
P0 C20 1.803 . S
P0 C26 1.819 . S
H1 C15 0.941 . S
H2 C16 0.939 . S
H3 C18 0.940 . S
H4 C19 0.940 . S
H5 C21 0.939 . S
H6 C22 0.942 . S
H7 C24 0.940 . S
H8 C25 0.939 . S
H9 C27 0.941 . S
H10 C31 0.939 . S
O11 P0 1.490 . S
H12 C28 0.939 . S
H13 C30 0.940 . S
C14 P0 1.812 . S
C14 C15 1.389 . S
C14 C19 1.391 . S
C15 H1 0.941 . S
C15 C14 1.389 . S
C15 C16 1.397 . S
C16 H2 0.939 . S
C16 C15 1.397 . S
C16 C17 1.378 . S
C17 C16 1.378 . S
C17 C18 1.378 . S
C18 H3 0.940 . S
C18 C17 1.378 . S
C18 C19 1.396 . S
C19 H4 0.940 . S
C19 C14 1.391 . S
C19 C18 1.396 . S
C20 P0 1.803 . S
C20 C21 1.378 . S
C20 C25 1.400 . S
C21 H5 0.939 . S
C21 C20 1.378 . S
C21 C22 1.361 . S
C22 H6 0.942 . S
C22 C21 1.361 . S
C22 C23 1.369 . S
C23 C22 1.369 . S
C23 C24 1.404 . S
C24 H7 0.940 . S
C24 C23 1.404 . S
C24 C25 1.389 . S
C25 H8 0.939 . S
C25 C20 1.400 . S
C25 C24 1.389 . S
C26 P0 1.819 . S
C26 C27 1.391 . S
C26 C31 1.391 . S
C27 H9 0.941 . S
C27 C26 1.391 . S
C27 C28 1.396 . S
C28 H12 0.939 . S
C28 C27 1.396 . S
C28 C29 1.397 . S
C29 C28 1.397 . S
C29 C30 1.385 . S
C30 H13 0.940 . S
C30 C29 1.385 . S
C30 C31 1.388 . S
C31 H10 0.939 . S
C31 C26 1.391 . S
C31 C30 1.388 . S
P32 O43 1.490 . S
P32 C46 1.812 1_455 S
P32 C52 1.803 1_455 S
P32 C58 1.819 1_455 S
H33 C47 0.941 . S
H34 C48 0.939 . S
H35 C50 0.940 . S
H36 C51 0.940 . S
H37 C53 0.939 . S
H38 C54 0.942 . S
H39 C56 0.940 . S
H40 C57 0.939 . S
H41 C59 0.941 . S
H42 C63 0.939 . S
O43 P32 1.490 . S
H44 C60 0.932 1_455 S
H45 C62 0.940 . S
C46 P32 1.812 1_655 S
C46 C47 1.389 1_655 S
C46 C51 1.391 . S
C47 H33 0.941 . S
C47 C46 1.389 1_455 S
C47 C48 1.397 . S
C48 H34 0.939 . S
C48 C47 1.397 . S
C48 C49 1.378 1_455 S
C49 C48 1.378 1_655 S
C49 C50 1.378 . S
C50 H35 0.940 . S
C50 C49 1.378 . S
C50 C51 1.396 . S
C51 H36 0.940 . S
C51 C46 1.391 . S
C51 C50 1.396 . S
C52 P32 1.803 1_655 S
C52 C53 1.378 1_655 S
C52 C57 1.400 . S
C53 H37 0.939 . S
C53 C52 1.378 1_455 S
C53 C54 1.361 . S
C54 H38 0.942 . S
C54 C53 1.361 . S
C54 C55 1.369 1_455 S
C55 C54 1.369 1_655 S
C55 C56 1.404 . S
C56 H39 0.940 . S
C56 C55 1.404 . S
C56 C57 1.389 . S
C57 H40 0.939 . S
C57 C52 1.400 . S
C57 C56 1.389 . S
C58 P32 1.819 1_655 S
C58 C59 1.391 1_655 S
C58 C63 1.391 . S
C59 H41 0.941 . S
C59 C58 1.391 1_455 S
C59 C60 1.389 1_455 S
C60 H44 0.932 1_655 S
C60 C59 1.389 1_655 S
C60 C61 1.412 . S
C61 C60 1.412 . S
C61 C62 1.385 . S
C62 H45 0.940 . S
C62 C61 1.385 . S
C62 C63 1.388 . S
C63 H42 0.939 . S
C63 C58 1.391 . S
C63 C62 1.388 . S
P64 O75 1.490 . S
P64 C78 1.812 1_545 S
P64 C84 1.803 1_545 S
P64 C90 1.811 1_545 S
H65 C79 0.941 . S
H66 C80 0.939 . S
H67 C82 0.940 . S
H68 C83 0.940 . S
H69 C85 0.939 . S
H70 C86 0.942 . S
H71 C88 0.940 . S
H72 C89 0.939 . S
H73 C91 0.941 . S
H74 C95 0.939 . S
O75 P64 1.490 . S
H76 C92 0.938 . S
H77 C94 0.940 . S
C78 P64 1.812 1_565 S
C78 C79 1.389 1_565 S
C78 C83 1.391 . S
C79 H65 0.941 . S
C79 C78 1.389 1_545 S
C79 C80 1.397 . S
C80 H66 0.939 . S
C80 C79 1.397 . S
C80 C81 1.378 1_545 S
C81 C80 1.378 1_565 S
C81 C82 1.378 . S
C82 H67 0.940 . S
C82 C81 1.378 . S
C82 C83 1.396 . S
C83 H68 0.940 . S
C83 C78 1.391 . S
C83 C82 1.396 . S
C84 P64 1.803 1_565 S
C84 C85 1.378 1_565 S
C84 C89 1.400 . S
C85 H69 0.939 . S
C85 C84 1.378 1_545 S
C85 C86 1.361 . S
C86 H70 0.942 . S
C86 C85 1.361 . S
C86 C87 1.369 1_545 S
C87 C86 1.369 1_565 S
C87 C88 1.404 . S
C88 H71 0.940 . S
C88 C87 1.404 . S
C88 C89 1.389 . S
C89 H72 0.939 . S
C89 C84 1.400 . S
C89 C88 1.389 . S
C90 P64 1.811 1_565 S
C90 C91 1.383 1_565 S
C90 C95 1.407 . S
C91 H73 0.941 . S
C91 C90 1.383 1_545 S
C91 C92 1.395 . S
C92 H76 0.938 . S
C92 C91 1.395 . S
C92 C93 1.400 1_545 S
C93 C92 1.400 1_565 S
C93 C94 1.385 . S
C94 H77 0.940 . S
C94 C93 1.385 . S
C94 C95 1.388 . S
C95 H74 0.939 . S
C95 C90 1.407 . S
C95 C94 1.388 . S
P96 O107 1.490 . S
P96 C110 1.812 . S
P96 C116 1.803 . S
P96 C122 1.819 . S
H97 C111 0.941 . S
H98 C112 0.939 . S
H99 C114 0.940 . S
H100 C115 0.940 . S
H101 C117 0.939 . S
H102 C118 0.942 . S
H103 C120 0.940 . S
H104 C121 0.939 . S
H105 C123 0.941 . S
H106 C127 0.939 . S
O107 P96 1.490 . S
H108 C124 0.939 . S
H109 C126 0.940 . S
C110 P96 1.812 . S
C110 C111 1.389 . S
C110 C115 1.391 . S
C111 H97 0.941 . S
C111 C110 1.389 . S
C111 C112 1.397 . S
C112 H98 0.939 . S
C112 C111 1.397 . S
C112 C113 1.378 . S
C113 C112 1.378 . S
C113 C114 1.378 . S
C114 H99 0.940 . S
C114 C113 1.378 . S
C114 C115 1.396 . S
C115 H100 0.940 . S
C115 C110 1.391 . S
C115 C114 1.396 . S
C116 P96 1.803 . S
C116 C117 1.378 . S
C116 C121 1.400 . S
C117 H101 0.939 . S
C117 C116 1.378 . S
C117 C118 1.361 . S
C118 H102 0.942 . S
C118 C117 1.361 . S
C118 C119 1.369 . S
C119 C118 1.369 . S
C119 C120 1.404 . S
C120 H103 0.940 . S
C120 C119 1.404 . S
C120 C121 1.389 . S
C121 H104 0.939 . S
C121 C116 1.400 . S
C121 C120 1.389 . S
C122 P96 1.819 . S
C122 C123 1.391 . S
C122 C127 1.391 . S
C123 H105 0.941 . S
C123 C122 1.391 . S
C123 C124 1.396 . S
C124 H108 0.939 . S
C124 C123 1.396 . S
C124 C125 1.397 . S
C125 C124 1.397 . S
C125 C126 1.385 . S
C126 H109 0.940 . S
C126 C125 1.385 . S
C126 C127 1.388 . S
C127 H106 0.939 . S
C127 C122 1.391 . S
C127 C126 1.388 . S
P128 O139 1.490 . S
P128 C142 1.812 1_554 S
P128 C148 1.803 . S
P128 C154 1.819 . S
H129 C143 0.941 . S
H130 C144 0.939 . S
H131 C146 0.940 . S
H132 C147 0.940 . S
H133 C149 0.939 . S
H134 C150 0.942 . S
H135 C152 0.940 . S
H136 C153 0.939 . S
H137 C155 0.941 . S
H138 C159 0.939 . S
O139 P128 1.490 . S
H140 C156 0.939 . S
H141 C158 0.940 . S
C142 P128 1.812 1_556 S
C142 C143 1.389 . S
C142 C147 1.391 . S
C143 H129 0.941 . S
C143 C142 1.389 . S
C143 C144 1.397 . S
C144 H130 0.939 . S
C144 C143 1.397 . S
C144 C145 1.378 . S
C145 C144 1.378 . S
C145 C146 1.378 . S
C146 H131 0.940 . S
C146 C145 1.378 . S
C146 C147 1.396 . S
C147 H132 0.940 . S
C147 C142 1.391 . S
C147 C146 1.396 . S
C148 P128 1.803 . S
C148 C149 1.378 . S
C148 C153 1.400 . S
C149 H133 0.939 . S
C149 C148 1.378 . S
C149 C150 1.361 . S
C150 H134 0.942 . S
C150 C149 1.361 . S
C150 C151 1.369 . S
C151 C150 1.369 . S
C151 C152 1.404 . S
C152 H135 0.940 . S
C152 C151 1.404 . S
C152 C153 1.389 . S
C153 H136 0.939 . S
C153 C148 1.400 . S
C153 C152 1.389 . S
C154 P128 1.819 . S
C154 C155 1.391 . S
C154 C159 1.391 . S
C155 H137 0.941 . S
C155 C154 1.391 . S
C155 C156 1.396 . S
C156 H140 0.939 . S
C156 C155 1.396 . S
C156 C157 1.397 . S
C157 C156 1.397 . S
C157 C158 1.385 . S
C158 H141 0.940 . S
C158 C157 1.385 . S
C158 C159 1.388 . S
C159 H138 0.939 . S
C159 C154 1.391 . S
C159 C158 1.388 . S
P160 O171 1.490 . S
P160 C174 1.812 1_554 S
P160 C180 1.803 . S
P160 C186 1.819 . S
H161 C175 0.941 . S
H162 C176 0.939 . S
H163 C178 0.940 . S
H164 C179 0.940 . S
H165 C181 0.939 . S
H166 C182 0.942 . S
H167 C184 0.940 . S
H168 C185 0.939 . S
H169 C187 0.941 . S
H170 C191 0.939 . S
O171 P160 1.490 . S
H172 C188 0.939 . S
H173 C190 0.940 . S
C174 P160 1.812 1_556 S
C174 C175 1.389 . S
C174 C179 1.391 . S
C175 H161 0.941 . S
C175 C174 1.389 . S
C175 C176 1.397 . S
C176 H162 0.939 . S
C176 C175 1.397 . S
C176 C177 1.378 . S
C177 C176 1.378 . S
C177 C178 1.378 . S
C178 H163 0.940 . S
C178 C177 1.378 . S
C178 C179 1.396 . S
C179 H164 0.940 . S
C179 C174 1.391 . S
C179 C178 1.396 . S
C180 P160 1.803 . S
C180 C181 1.378 . S
C180 C185 1.400 . S
C181 H165 0.939 . S
C181 C180 1.378 . S
C181 C182 1.361 . S
C182 H166 0.942 . S
C182 C181 1.361 . S
C182 C183 1.369 . S
C183 C182 1.369 . S
C183 C184 1.404 . S
C184 H167 0.940 . S
C184 C183 1.404 . S
C184 C185 1.389 . S
C185 H168 0.939 . S
C185 C180 1.400 . S
C185 C184 1.389 . S
C186 P160 1.819 . S
C186 C187 1.391 . S
C186 C191 1.391 . S
C187 H169 0.941 . S
C187 C186 1.391 . S
C187 C188 1.396 . S
C188 H172 0.939 . S
C188 C187 1.396 . S
C188 C189 1.397 . S
C189 C188 1.397 . S
C189 C190 1.385 . S
C190 H173 0.940 . S
C190 C189 1.385 . S
C190 C191 1.388 . S
C191 H170 0.939 . S
C191 C186 1.391 . S
C191 C190 1.388 . S
P192 O203 1.490 . S
P192 C206 1.812 1_554 S
P192 C212 1.803 . S
P192 C218 1.819 . S
H193 C207 0.941 . S
H194 C208 0.939 . S
H195 C210 0.940 . S
H196 C211 0.940 . S
H197 C213 0.939 . S
H198 C214 0.942 . S
H199 C216 0.940 . S
H200 C217 0.939 . S
H201 C219 0.941 . S
H202 C223 0.939 . S
O203 P192 1.490 . S
H204 C220 0.939 . S
H205 C222 0.940 . S
C206 P192 1.812 1_556 S
C206 C207 1.389 . S
C206 C211 1.391 . S
C207 H193 0.941 . S
C207 C206 1.389 . S
C207 C208 1.397 . S
C208 H194 0.939 . S
C208 C207 1.397 . S
C208 C209 1.378 . S
C209 C208 1.378 . S
C209 C210 1.378 . S
C210 H195 0.940 . S
C210 C209 1.378 . S
C210 C211 1.396 . S
C211 H196 0.940 . S
C211 C206 1.391 . S
C211 C210 1.396 . S
C212 P192 1.803 . S
C212 C213 1.378 . S
C212 C217 1.400 . S
C213 H197 0.939 . S
C213 C212 1.378 . S
C213 C214 1.361 . S
C214 H198 0.942 . S
C214 C213 1.361 . S
C214 C215 1.369 . S
C215 C214 1.369 . S
C215 C216 1.404 . S
C216 H199 0.940 . S
C216 C215 1.404 . S
C216 C217 1.389 . S
C217 H200 0.939 . S
C217 C212 1.400 . S
C217 C216 1.389 . S
C218 P192 1.819 . S
C218 C219 1.391 . S
C218 C223 1.391 . S
C219 H201 0.941 . S
C219 C218 1.391 . S
C219 C220 1.396 . S
C220 H204 0.939 . S
C220 C219 1.396 . S
C220 C221 1.397 . S
C221 C220 1.397 . S
C221 C222 1.385 . S
C222 H205 0.940 . S
C222 C221 1.385 . S
C222 C223 1.388 . S
C223 H202 0.939 . S
C223 C218 1.391 . S
C223 C222 1.388 . S
P224 O235 1.490 . S
P224 C238 1.812 1_554 S
P224 C244 1.803 . S
P224 C250 1.819 . S
H225 C239 0.941 . S
H226 C240 0.939 . S
H227 C242 0.940 . S
H228 C243 0.940 . S
H229 C245 0.939 . S
H230 C246 0.942 . S
H231 C248 0.940 . S
H232 C249 0.939 . S
H233 C251 0.941 . S
H234 C255 0.939 . S
O235 P224 1.490 . S
H236 C252 0.939 . S
H237 C254 0.940 . S
C238 P224 1.812 1_556 S
C238 C239 1.389 . S
C238 C243 1.391 . S
C239 H225 0.941 . S
C239 C238 1.389 . S
C239 C240 1.397 . S
C240 H226 0.939 . S
C240 C239 1.397 . S
C240 C241 1.378 . S
C241 C240 1.378 . S
C241 C242 1.378 . S
C242 H227 0.940 . S
C242 C241 1.378 . S
C242 C243 1.396 . S
C243 H228 0.940 . S
C243 C238 1.391 . S
C243 C242 1.396 . S
C244 P224 1.803 . S
C244 C245 1.378 . S
C244 C249 1.400 . S
C245 H229 0.939 . S
C245 C244 1.378 . S
C245 C246 1.361 . S
C246 H230 0.942 . S
C246 C245 1.361 . S
C246 C247 1.369 . S
C247 C246 1.369 . S
C247 C248 1.404 . S
C248 H231 0.940 . S
C248 C247 1.404 . S
C248 C249 1.389 . S
C249 H232 0.939 . S
C249 C244 1.400 . S
C249 C248 1.389 . S
C250 P224 1.819 . S
C250 C251 1.391 . S
C250 C255 1.391 . S
C251 H233 0.941 . S
C251 C250 1.391 . S
C251 C252 1.396 . S
C252 H236 0.939 . S
C252 C251 1.396 . S
C252 C253 1.397 . S
C253 C252 1.397 . S
C253 C254 1.385 . S
C254 H237 0.940 . S
C254 C253 1.385 . S
C254 C255 1.388 . S
C255 H234 0.939 . S
C255 C250 1.391 . S
C255 C254 1.388 . S
Eu256 N285 2.600 . S
Eu256 N291 2.562 . S
Eu256 O300 2.462 . S
Eu256 O301 2.373 1_545 S
Eu256 O303 2.432 . S
Eu256 O304 2.291 1_655 S
Eu256 O308 2.335 1_655 S
Eu256 O311 2.372 . S
Eu256 C320 2.787 . S
C257 N258 1.365 . S
C257 C260 1.405 . S
C257 C264 1.448 . S
N258 C257 1.365 . S
N258 C261 1.319 1_545 S
N258 Eu267 2.600 1_545 S
C259 C261 1.397 1_545 S
C259 C262 1.367 . S
C259 H279 0.931 . S
C260 C257 1.405 . S
C260 C262 1.403 . S
C260 C266 1.439 . S
C261 N258 1.319 1_565 S
C261 C259 1.397 1_565 S
C261 H272 0.930 . S
C262 C259 1.367 . S
C262 C260 1.403 . S
C262 H283 0.929 . S
C263 C264 1.430 . S
C263 C265 1.387 . S
C263 C269 1.404 1_556 S
C264 C257 1.448 . S
C264 C263 1.430 . S
C264 N268 1.351 . S
C265 C263 1.387 . S
C265 C266 1.374 . S
C265 H280 0.931 1_556 S
C266 C260 1.439 . S
C266 C265 1.374 . S
C266 H281 0.931 . S
Eu267 N258 2.600 1_565 S
Eu267 N268 2.562 1_565 S
Eu267 O302 2.335 . S
Eu267 O305 2.372 . S
Eu267 O306 2.462 . S
Eu267 O307 2.373 1_565 S
Eu267 O309 2.432 . S
Eu267 O310 2.291 1_465 S
Eu267 C331 2.787 . S
N268 C264 1.351 . S
N268 Eu267 2.562 1_545 S
N268 C270 1.325 . S
C269 C263 1.404 1_554 S
C269 C271 1.366 1_554 S
C269 H277 0.930 . S
C270 N268 1.325 . S
C270 C271 1.416 . S
C270 H276 0.929 . S
C271 C269 1.366 1_556 S
C271 C270 1.416 . S
C271 H273 0.930 1_556 S
H272 C261 0.930 . S
H273 C271 0.930 1_554 S
H274 C289 0.930 . S
H275 C296 0.930 1_455 S
H276 C270 0.929 . S
H277 C269 0.930 . S
H278 C292 0.929 1_455 S
H279 C259 0.931 . S
H280 C265 0.931 1_554 S
H281 C266 0.931 . S
H282 C287 0.931 . S
H283 C262 0.929 . S
H284 C295 0.930 . S
N285 Eu256 2.600 . S
N285 C286 1.365 . S
N285 C289 1.319 . S
C286 N285 1.365 . S
C286 C288 1.405 1_545 S
C286 C294 1.448 1_545 S
C287 H282 0.931 . S
C287 C289 1.397 . S
C287 C290 1.367 1_545 S
C288 C286 1.405 1_565 S
C288 C290 1.403 . S
C288 C321 1.439 . S
C289 H274 0.930 . S
C289 N285 1.319 . S
C289 C287 1.397 . S
C290 C287 1.367 1_565 S
C290 C288 1.403 . S
C290 H297 0.929 . S
N291 Eu256 2.562 . S
N291 C292 1.325 . S
N291 C294 1.351 1_545 S
C292 H278 0.929 1_655 S
C292 N291 1.325 . S
C292 C296 1.416 1_545 S
C293 C294 1.430 . S
C293 C295 1.404 . S
C293 C322 1.387 . S
C294 C286 1.448 1_565 S
C294 N291 1.351 1_565 S
C294 C293 1.430 . S
C295 H284 0.930 . S
C295 C293 1.404 . S
C295 C296 1.366 . S
C296 H275 0.930 1_655 S
C296 C292 1.416 1_565 S
C296 C295 1.366 . S
H297 C290 0.929 . S
H298 C321 0.931 . S
H299 C322 0.931 . S
O300 Eu256 2.462 . S
O300 C320 1.252 . S
O301 Eu256 2.373 1_565 S
O301 C312 1.249 . S
O302 Eu267 2.335 . S
O302 C312 1.264 1_455 S
O303 Eu256 2.432 . S
O303 C320 1.268 . S
O304 Eu256 2.291 1_455 S
O304 C319 1.255 . S
O305 Eu267 2.372 . S
O305 C319 1.257 1_565 S
O306 Eu267 2.462 . S
O306 C331 1.252 . S
O307 Eu267 2.373 1_545 S
O307 C323 1.249 . S
O308 Eu256 2.335 1_455 S
O308 C323 1.264 . S
O309 Eu267 2.432 . S
O309 C331 1.268 . S
O310 Eu267 2.291 1_645 S
O310 C330 1.255 . S
O311 Eu256 2.372 . S
O311 C330 1.257 . S
C312 O301 1.249 . S
C312 O302 1.264 1_655 S
C313 C316 1.382 . S
C313 C318 1.390 . S
C313 C320 1.506 . S
C314 C315 1.398 . S
C314 C318 1.392 . S
C315 C314 1.398 . S
C315 C317 1.372 . S
C315 H332 0.931 . S
C316 C313 1.382 . S
C316 C317 1.390 . S
C316 H333 0.931 . S
C317 C315 1.372 . S
C317 C316 1.390 . S
C317 H334 0.929 . S
C318 C313 1.390 . S
C318 C314 1.392 . S
C318 H335 0.930 1_655 S
C319 O304 1.255 . S
C319 O305 1.257 1_545 S
C320 Eu256 2.787 . S
C320 O300 1.252 . S
C320 O303 1.268 . S
C320 C313 1.506 . S
C321 C288 1.439 . S
C321 H298 0.931 . S
C321 C322 1.374 . S
C322 C293 1.387 . S
C322 H299 0.931 . S
C322 C321 1.374 . S
C323 O307 1.249 . S
C323 O308 1.264 . S
C324 C327 1.382 . S
C324 C328 1.390 . S
C324 C331 1.506 . S
C325 C326 1.398 . S
C325 C328 1.392 . S
C326 C325 1.398 . S
C326 C329 1.372 . S
C326 H336 0.931 . S
C327 C324 1.382 . S
C327 C329 1.390 . S
C327 H337 0.931 . S
C328 C324 1.390 . S
C328 C325 1.392 . S
C328 H338 0.930 . S
C329 C326 1.372 . S
C329 C327 1.390 . S
C329 H339 0.929 . S
C330 O310 1.255 . S
C330 O311 1.257 . S
C331 Eu267 2.787 . S
C331 O306 1.252 . S
C331 O309 1.268 . S
C331 C324 1.506 . S
H332 C315 0.931 . S
H333 C316 0.931 . S
H334 C317 0.929 . S
H335 C318 0.930 1_455 S
H336 C326 0.931 . S
H337 C327 0.931 . S
H338 C328 0.930 . S
H339 C329 0.929 . S
Eu340 N369 2.600 . S
Eu340 N375 2.562 . S
Eu340 O384 2.462 . S
Eu340 O385 2.373 . S
Eu340 O387 2.432 . S
Eu340 O388 2.291 . S
Eu340 O392 2.335 1_545 S
Eu340 O395 2.372 . S
Eu340 C404 2.787 . S
C341 N342 1.365 . S
C341 C344 1.405 . S
C341 C348 1.448 . S
N342 C341 1.365 . S
N342 C345 1.319 . S
N342 Eu351 2.600 . S
C343 C345 1.397 . S
C343 C346 1.367 . S
C343 H363 0.931 . S
C344 C341 1.405 . S
C344 C346 1.403 . S
C344 C350 1.439 . S
C345 N342 1.319 . S
C345 C343 1.397 . S
C345 H356 0.930 . S
C346 C343 1.367 . S
C346 C344 1.403 . S
C346 H367 0.929 . S
C347 C348 1.430 . S
C347 C349 1.387 . S
C347 C353 1.404 . S
C348 C341 1.448 . S
C348 C347 1.430 . S
C348 N352 1.351 . S
C349 C347 1.387 . S
C349 C350 1.374 . S
C349 H364 0.931 . S
C350 C344 1.439 . S
C350 C349 1.374 . S
C350 H365 0.931 . S
Eu351 N342 2.600 . S
Eu351 N352 2.562 . S
Eu351 O386 2.335 1_565 S
Eu351 O389 2.372 . S
Eu351 O390 2.462 . S
Eu351 O391 2.373 . S
Eu351 O393 2.432 . S
Eu351 O394 2.291 1_565 S
Eu351 C415 2.787 . S
N352 C348 1.351 . S
N352 Eu351 2.562 . S
N352 C354 1.325 . S
C353 C347 1.404 . S
C353 C355 1.366 . S
C353 H361 0.930 . S
C354 N352 1.325 . S
C354 C355 1.416 . S
C354 H360 0.929 . S
C355 C353 1.366 . S
C355 C354 1.416 . S
C355 H357 0.930 . S
H356 C345 0.930 . S
H357 C355 0.930 . S
H358 C373 0.930 . S
H359 C380 0.930 . S
H360 C354 0.929 . S
H361 C353 0.930 . S
H362 C376 0.929 . S
H363 C343 0.931 . S
H364 C349 0.931 . S
H365 C350 0.931 . S
H366 C371 0.931 . S
H367 C346 0.929 . S
H368 C379 0.930 . S
N369 Eu340 2.600 . S
N369 C370 1.365 . S
N369 C373 1.319 . S
C370 N369 1.365 . S
C370 C372 1.405 . S
C370 C378 1.448 . S
C371 H366 0.931 . S
C371 C373 1.397 . S
C371 C374 1.367 . S
C372 C370 1.405 . S
C372 C374 1.403 . S
C372 C405 1.439 . S
C373 H358 0.930 . S
C373 N369 1.319 . S
C373 C371 1.397 . S
C374 C371 1.367 . S
C374 C372 1.403 . S
C374 H381 0.929 . S
N375 Eu340 2.562 . S
N375 C376 1.325 . S
N375 C378 1.351 . S
C376 H362 0.929 . S
C376 N375 1.325 . S
C376 C380 1.416 . S
C377 C378 1.430 . S
C377 C379 1.404 . S
C377 C406 1.387 . S
C378 C370 1.448 . S
C378 N375 1.351 . S
C378 C377 1.430 . S
C379 H368 0.930 . S
C379 C377 1.404 . S
C379 C380 1.366 . S
C380 H359 0.930 . S
C380 C376 1.416 . S
C380 C379 1.366 . S
H381 C374 0.929 . S
H382 C405 0.931 . S
H383 C406 0.931 . S
O384 Eu340 2.462 . S
O384 C404 1.252 . S
O385 Eu340 2.373 . S
O385 C396 1.249 . S
O386 Eu351 2.335 1_545 S
O386 C396 1.264 . S
O387 Eu340 2.432 . S
O387 C404 1.268 . S
O388 Eu340 2.291 . S
O388 C403 1.255 1_545 S
O389 Eu351 2.372 . S
O389 C403 1.257 . S
O390 Eu351 2.462 . S
O390 C415 1.252 . S
O391 Eu351 2.373 . S
O391 C407 1.249 . S
O392 Eu340 2.335 1_565 S
O392 C407 1.264 . S
O393 Eu351 2.432 . S
O393 C415 1.268 . S
O394 Eu351 2.291 1_545 S
O394 C414 1.255 . S
O395 Eu340 2.372 . S
O395 C414 1.257 . S
C396 O385 1.249 . S
C396 O386 1.264 . S
C397 C400 1.382 . S
C397 C402 1.390 . S
C397 C404 1.506 . S
C398 C399 1.398 1_556 S
C398 C402 1.392 . S
C399 C398 1.398 1_554 S
C399 C401 1.372 . S
C399 H416 0.931 . S
C400 C397 1.382 . S
C400 C401 1.390 1_556 S
C400 H417 0.931 1_556 S
C401 C399 1.372 . S
C401 C400 1.390 1_554 S
C401 H418 0.929 . S
C402 C397 1.390 . S
C402 C398 1.392 . S
C402 H419 0.930 . S
C403 O388 1.255 1_565 S
C403 O389 1.257 . S
C404 Eu340 2.787 . S
C404 O384 1.252 . S
C404 O387 1.268 . S
C404 C397 1.506 . S
C405 C372 1.439 . S
C405 H382 0.931 . S
C405 C406 1.374 . S
C406 C377 1.387 . S
C406 H383 0.931 . S
C406 C405 1.374 . S
C407 O391 1.249 . S
C407 O392 1.264 . S
C408 C411 1.382 . S
C408 C412 1.390 . S
C408 C415 1.506 . S
C409 C410 1.398 . S
C409 C412 1.392 . S
C410 C409 1.398 . S
C410 C413 1.372 . S
C410 H420 0.931 . S
C411 C408 1.382 . S
C411 C413 1.390 . S
C411 H421 0.931 . S
C412 C408 1.390 . S
C412 C409 1.392 . S
C412 H422 0.930 1_565 S
C413 C410 1.372 . S
C413 C411 1.390 . S
C413 H423 0.929 . S
C414 O394 1.255 . S
C414 O395 1.257 . S
C415 Eu351 2.787 . S
C415 O390 1.252 . S
C415 O393 1.268 . S
C415 C408 1.506 . S
H416 C399 0.931 . S
H417 C400 0.931 1_554 S
H418 C401 0.929 . S
H419 C402 0.930 . S
H420 C410 0.931 . S
H421 C411 0.931 . S
H422 C412 0.930 1_545 S
H423 C413 0.929 . S
Eu424 N453 2.600 . S
Eu424 N459 2.562 . S
Eu424 O468 2.462 . S
Eu424 O469 2.373 . S
Eu424 O471 2.432 . S
Eu424 O472 2.291 . S
Eu424 O476 2.335 . S
Eu424 O479 2.372 . S
Eu424 C488 2.787 . S
C425 N426 1.365 . S
C425 C428 1.405 . S
C425 C432 1.448 . S
N426 C425 1.365 . S
N426 C429 1.319 . S
N426 Eu435 2.600 . S
C427 C429 1.397 . S
C427 C430 1.367 . S
C427 H447 0.931 . S
C428 C425 1.405 . S
C428 C430 1.403 . S
C428 C434 1.439 . S
C429 N426 1.319 . S
C429 C427 1.397 . S
C429 H440 0.930 . S
C430 C427 1.367 . S
C430 C428 1.403 . S
C430 H451 0.929 . S
C431 C432 1.430 . S
C431 C433 1.387 . S
C431 C437 1.404 1_556 S
C432 C425 1.448 . S
C432 C431 1.430 . S
C432 N436 1.351 . S
C433 C431 1.387 . S
C433 C434 1.374 . S
C433 H448 0.931 1_556 S
C434 C428 1.439 . S
C434 C433 1.374 . S
C434 H449 0.931 . S
Eu435 N426 2.600 . S
Eu435 N436 2.562 . S
Eu435 O470 2.335 . S
Eu435 O473 2.372 . S
Eu435 O474 2.462 . S
Eu435 O475 2.373 . S
Eu435 O477 2.432 . S
Eu435 O478 2.291 . S
Eu435 C499 2.787 . S
N436 C432 1.351 . S
N436 Eu435 2.562 . S
N436 C438 1.325 . S
C437 C431 1.404 1_554 S
C437 C439 1.366 1_554 S
C437 H445 0.930 . S
C438 N436 1.325 . S
C438 C439 1.416 . S
C438 H444 0.929 . S
C439 C437 1.366 1_556 S
C439 C438 1.416 . S
C439 H441 0.930 1_556 S
H440 C429 0.930 . S
H441 C439 0.930 1_554 S
H442 C457 0.930 . S
H443 C464 0.930 . S
H444 C438 0.929 . S
H445 C437 0.930 . S
H446 C460 0.929 . S
H447 C427 0.931 . S
H448 C433 0.931 1_554 S
H449 C434 0.931 . S
H450 C455 0.931 . S
H451 C430 0.929 . S
H452 C463 0.930 . S
N453 Eu424 2.600 . S
N453 C454 1.365 . S
N453 C457 1.319 . S
C454 N453 1.365 . S
C454 C456 1.405 . S
C454 C462 1.448 . S
C455 H450 0.931 . S
C455 C457 1.397 . S
C455 C458 1.367 . S
C456 C454 1.405 . S
C456 C458 1.403 . S
C456 C489 1.439 . S
C457 H442 0.930 . S
C457 N453 1.319 . S
C457 C455 1.397 . S
C458 C455 1.367 . S
C458 C456 1.403 . S
C458 H465 0.929 . S
N459 Eu424 2.562 . S
N459 C460 1.325 . S
N459 C462 1.351 . S
C460 H446 0.929 . S
C460 N459 1.325 . S
C460 C464 1.416 . S
C461 C462 1.430 . S
C461 C463 1.404 . S
C461 C490 1.387 . S
C462 C454 1.448 . S
C462 N459 1.351 . S
C462 C461 1.430 . S
C463 H452 0.930 . S
C463 C461 1.404 . S
C463 C464 1.366 . S
C464 H443 0.930 . S
C464 C460 1.416 . S
C464 C463 1.366 . S
H465 C458 0.929 . S
H466 C489 0.931 . S
H467 C490 0.931 . S
O468 Eu424 2.462 . S
O468 C488 1.252 . S
O469 Eu424 2.373 . S
O469 C480 1.249 . S
O470 Eu435 2.335 . S
O470 C480 1.264 . S
O471 Eu424 2.432 . S
O471 C488 1.268 . S
O472 Eu424 2.291 . S
O472 C487 1.255 . S
O473 Eu435 2.372 . S
O473 C487 1.257 . S
O474 Eu435 2.462 . S
O474 C499 1.252 . S
O475 Eu435 2.373 . S
O475 C491 1.249 . S
O476 Eu424 2.335 . S
O476 C491 1.264 . S
O477 Eu435 2.432 . S
O477 C499 1.268 . S
O478 Eu435 2.291 . S
O478 C498 1.255 . S
O479 Eu424 2.372 . S
O479 C498 1.257 . S
C480 O469 1.249 . S
C480 O470 1.264 . S
C481 C484 1.382 . S
C481 C486 1.390 . S
C481 C488 1.506 . S
C482 C483 1.398 . S
C482 C486 1.392 . S
C483 C482 1.398 . S
C483 C485 1.372 . S
C483 H500 0.931 . S
C484 C481 1.382 . S
C484 C485 1.390 . S
C484 H501 0.931 . S
C485 C483 1.372 . S
C485 C484 1.390 . S
C485 H502 0.929 . S
C486 C481 1.390 . S
C486 C482 1.392 . S
C486 H503 0.930 . S
C487 O472 1.255 . S
C487 O473 1.257 . S
C488 Eu424 2.787 . S
C488 O468 1.252 . S
C488 O471 1.268 . S
C488 C481 1.506 . S
C489 C456 1.439 . S
C489 H466 0.931 . S
C489 C490 1.374 . S
C490 C461 1.387 . S
C490 H467 0.931 . S
C490 C489 1.374 . S
C491 O475 1.249 . S
C491 O476 1.264 . S
C492 C495 1.382 . S
C492 C496 1.390 . S
C492 C499 1.506 . S
C493 C494 1.398 . S
C493 C496 1.392 . S
C494 C493 1.398 . S
C494 C497 1.372 . S
C494 H504 0.931 . S
C495 C492 1.382 . S
C495 C497 1.390 . S
C495 H505 0.931 . S
C496 C492 1.390 . S
C496 C493 1.392 . S
C496 H506 0.930 . S
C497 C494 1.372 . S
C497 C495 1.390 . S
C497 H507 0.929 . S
C498 O478 1.255 . S
C498 O479 1.257 . S
C499 Eu435 2.787 . S
C499 O474 1.252 . S
C499 O477 1.268 . S
C499 C492 1.506 . S
H500 C483 0.931 . S
H501 C484 0.931 . S
H502 C485 0.929 . S
H503 C486 0.930 . S
H504 C494 0.931 . S
H505 C495 0.931 . S
H506 C496 0.930 . S
H507 C497 0.929 . S
Eu508 N537 2.600 . S
Eu508 N543 2.562 . S
Eu508 O552 2.462 . S
Eu508 O553 2.373 1_455 S
Eu508 O555 2.432 . S
Eu508 O556 2.291 . S
Eu508 O560 2.335 . S
Eu508 O563 2.372 . S
Eu508 C572 2.787 . S
C509 N510 1.365 1_455 S
C509 C512 1.405 . S
C509 C516 1.448 . S
N510 C509 1.365 1_655 S
N510 C513 1.319 . S
N510 Eu519 2.600 . S
C511 C513 1.397 1_455 S
C511 C514 1.367 . S
C511 H531 0.931 . S
C512 C509 1.405 . S
C512 C514 1.403 . S
C512 C518 1.439 . S
C513 N510 1.319 . S
C513 C511 1.397 1_655 S
C513 H524 0.930 . S
C514 C511 1.367 . S
C514 C512 1.403 . S
C514 H535 0.929 . S
C515 C516 1.430 . S
C515 C517 1.387 . S
C515 C521 1.404 1_556 S
C516 C509 1.448 . S
C516 C515 1.430 . S
C516 N520 1.351 . S
C517 C515 1.387 . S
C517 C518 1.374 . S
C517 H532 0.931 1_556 S
C518 C512 1.439 . S
C518 C517 1.374 . S
C518 H533 0.931 . S
Eu519 N510 2.600 . S
Eu519 N520 2.562 1_655 S
Eu519 O554 2.335 . S
Eu519 O557 2.372 . S
Eu519 O558 2.462 . S
Eu519 O559 2.373 1_655 S
Eu519 O561 2.432 . S
Eu519 O562 2.297 . S
Eu519 C583 2.787 . S
N520 C516 1.351 . S
N520 Eu519 2.562 1_455 S
N520 C522 1.325 . S
C521 C515 1.404 1_554 S
C521 C523 1.366 1_554 S
C521 H529 0.930 . S
C522 N520 1.325 . S
C522 C523 1.416 . S
C522 H528 0.931 . S
C523 C521 1.366 1_556 S
C523 C522 1.416 . S
C523 H525 0.930 1_556 S
H524 C513 0.930 . S
H525 C523 0.930 1_554 S
H526 C541 0.930 . S
H527 C548 0.930 . S
H528 C522 0.931 . S
H529 C521 0.930 . S
H530 C544 0.929 . S
H531 C511 0.931 . S
H532 C517 0.931 1_554 S
H533 C518 0.931 . S
H534 C539 0.931 . S
H535 C514 0.929 . S
H536 C547 0.930 . S
N537 Eu508 2.600 . S
N537 C538 1.384 . S
N537 C541 1.319 . S
C538 N537 1.384 . S
C538 C540 1.391 1_455 S
C538 C546 1.444 1_455 S
C539 H534 0.931 . S
C539 C541 1.397 . S
C539 C542 1.367 1_455 S
C540 C538 1.391 1_655 S
C540 C542 1.403 . S
C540 C573 1.439 . S
C541 H526 0.930 . S
C541 N537 1.319 . S
C541 C539 1.397 . S
C542 C539 1.367 1_655 S
C542 C540 1.403 . S
C542 H549 0.929 . S
N543 Eu508 2.562 . S
N543 C544 1.325 . S
N543 C546 1.351 1_455 S
C544 H530 0.929 . S
C544 N543 1.325 . S
C544 C548 1.416 1_455 S
C545 C546 1.430 . S
C545 C547 1.404 . S
C545 C574 1.387 . S
C546 C538 1.444 1_655 S
C546 N543 1.351 1_655 S
C546 C545 1.430 . S
C547 H536 0.930 . S
C547 C545 1.404 . S
C547 C548 1.366 . S
C548 H527 0.930 . S
C548 C544 1.416 1_655 S
C548 C547 1.366 . S
H549 C542 0.929 . S
H550 C573 0.931 . S
H551 C574 0.931 . S
O552 Eu508 2.462 . S
O552 C572 1.252 . S
O553 Eu508 2.373 1_655 S
O553 C564 1.249 . S
O554 Eu519 2.335 . S
O554 C564 1.264 . S
O555 Eu508 2.432 . S
O555 C572 1.268 . S
O556 Eu508 2.291 . S
O556 C571 1.255 . S
O557 Eu519 2.372 . S
O557 C571 1.257 1_655 S
O558 Eu519 2.462 . S
O558 C583 1.252 . S
O559 Eu519 2.373 1_455 S
O559 C575 1.249 . S
O560 Eu508 2.335 . S
O560 C575 1.264 . S
O561 Eu519 2.432 . S
O561 C583 1.268 . S
O562 Eu519 2.297 . S
O562 C582 1.251 1_655 S
O563 Eu508 2.372 . S
O563 C582 1.257 . S
C564 O553 1.249 . S
C564 O554 1.264 . S
C565 C568 1.382 . S
C565 C570 1.390 . S
C565 C572 1.506 . S
C566 C567 1.398 . S
C566 C570 1.392 . S
C567 C566 1.398 . S
C567 C569 1.372 . S
C567 H584 0.931 . S
C568 C565 1.382 . S
C568 C569 1.390 . S
C568 H585 0.931 . S
C569 C567 1.372 . S
C569 C568 1.390 . S
C569 H586 0.929 . S
C570 C565 1.390 . S
C570 C566 1.392 . S
C570 H587 0.930 . S
C571 O556 1.255 . S
C571 O557 1.257 1_455 S
C572 Eu508 2.787 . S
C572 O552 1.252 . S
C572 O555 1.268 . S
C572 C565 1.506 . S
C573 C540 1.439 . S
C573 H550 0.931 . S
C573 C574 1.374 . S
C574 C545 1.387 . S
C574 H551 0.931 . S
C574 C573 1.374 . S
C575 O559 1.249 . S
C575 O560 1.264 . S
C576 C579 1.382 . S
C576 C580 1.390 . S
C576 C583 1.506 . S
C577 C578 1.398 . S
C577 C580 1.392 . S
C578 C577 1.398 . S
C578 C581 1.372 . S
C578 H588 0.931 . S
C579 C576 1.382 . S
C579 C581 1.390 . S
C579 H589 0.931 . S
C580 C576 1.390 . S
C580 C577 1.392 . S
C580 H590 0.930 . S
C581 C578 1.372 . S
C581 C579 1.390 . S
C581 H591 0.929 . S
C582 O562 1.251 1_455 S
C582 O563 1.257 . S
C583 Eu519 2.787 . S
C583 O558 1.252 . S
C583 O561 1.268 . S
C583 C576 1.506 . S
H584 C567 0.931 . S
H585 C568 0.931 . S
H586 C569 0.929 . S
H587 C570 0.930 . S
H588 C578 0.931 . S
H589 C579 0.931 . S
H590 C580 0.930 . S
H591 C581 0.929 . S
H592 C598 0.930 . S
H593 C601 0.930 1_565 S
H594 C602 0.930 . S
H595 C603 0.930 1_565 S
H596 C606 0.930 . S
H597 C607 0.930 . S
C598 H592 0.930 . S
C598 C599 1.355 . S
C598 C600 1.415 . S
C599 C598 1.355 . S
C599 C601 1.419 . S
C600 C598 1.415 . S
C600 C605 1.425 . S
C600 C607 1.409 . S
C601 H593 0.930 1_545 S
C601 C599 1.419 . S
C601 C602 1.362 1_545 S
C602 H594 0.930 . S
C602 C601 1.362 1_565 S
C602 C605 1.409 1_565 S
C603 H595 0.930 1_545 S
C603 C604 1.355 . S
C603 C605 1.415 . S
C604 C603 1.355 . S
C604 C606 1.419 . S
C605 C600 1.425 . S
C605 C602 1.409 1_545 S
C605 C603 1.415 . S
C606 H596 0.930 . S
C606 C604 1.419 . S
C606 C607 1.362 . S
C607 H597 0.930 . S
C607 C600 1.409 . S
C607 C606 1.362 . S
H608 C614 0.930 . S
H609 C617 0.930 . S
H610 C618 0.930 . S
H611 C619 0.930 . S
H612 C622 0.930 . S
H613 C623 0.930 . S
C614 H608 0.930 . S
C614 C615 1.355 . S
C614 C616 1.415 . S
C615 C614 1.355 . S
C615 C617 1.419 . S
C616 C614 1.415 . S
C616 C621 1.425 . S
C616 C623 1.409 . S
C617 H609 0.930 . S
C617 C615 1.419 . S
C617 C618 1.362 . S
C618 H610 0.930 . S
C618 C617 1.362 . S
C618 C621 1.409 . S
C619 H611 0.930 . S
C619 C620 1.355 . S
C619 C621 1.415 . S
C620 C619 1.355 . S
C620 C622 1.419 . S
C621 C616 1.425 . S
C621 C618 1.409 . S
C621 C619 1.415 . S
C622 H612 0.930 . S
C622 C620 1.419 . S
C622 C623 1.362 . S
C623 H613 0.930 . S
C623 C616 1.409 . S
C623 C622 1.362 . S
H624 C630 0.930 . S
H625 C633 0.930 . S
H626 C634 0.930 . S
H627 C635 0.930 . S
H628 C638 0.930 . S
H629 C639 0.930 . S
C630 H624 0.930 . S
C630 C631 1.355 . S
C630 C632 1.415 . S
C631 C630 1.355 . S
C631 C633 1.419 . S
C632 C630 1.415 . S
C632 C637 1.425 . S
C632 C639 1.409 . S
C633 H625 0.930 . S
C633 C631 1.419 . S
C633 C634 1.362 . S
C634 H626 0.930 . S
C634 C633 1.362 . S
C634 C637 1.409 . S
C635 H627 0.930 . S
C635 C636 1.355 . S
C635 C637 1.415 . S
C636 C635 1.355 . S
C636 C638 1.419 . S
C637 C632 1.425 . S
C637 C634 1.409 . S
C637 C635 1.415 . S
C638 H628 0.930 . S
C638 C636 1.419 . S
C638 C639 1.362 . S
C639 H629 0.930 . S
C639 C632 1.409 . S
C639 C638 1.362 . S
H640 C646 0.930 . S
H641 C649 0.930 . S
H642 C650 0.930 . S
H643 C651 0.930 . S
H644 C654 0.908 1_655 S
H645 C655 0.930 1_655 S
C646 H640 0.930 . S
C646 C647 1.355 . S
C646 C648 1.415 . S
C647 C646 1.355 . S
C647 C649 1.419 . S
C648 C646 1.415 . S
C648 C653 1.425 . S
C648 C655 1.409 . S
C649 H641 0.930 . S
C649 C647 1.419 . S
C649 C650 1.362 . S
C650 H642 0.930 . S
C650 C649 1.362 . S
C650 C653 1.409 . S
C651 H643 0.930 . S
C651 C652 1.355 . S
C651 C653 1.415 . S
C652 C651 1.355 . S
C652 C654 1.441 . S
C653 C648 1.425 . S
C653 C650 1.409 . S
C653 C651 1.415 . S
C654 H644 0.908 1_455 S
C654 C652 1.441 . S
C654 C655 1.364 . S
C655 H645 0.930 1_455 S
C655 C648 1.409 . S
C655 C654 1.364 . S
H656 C662 0.930 1_545 S
H657 C665 0.930 . S
H658 C666 0.930 . S
H659 C667 0.930 . S
H660 C670 0.930 . S
H661 C671 0.930 1_554 S
C662 H656 0.930 1_565 S
C662 C663 1.355 . S
C662 C664 1.415 . S
C663 C662 1.355 . S
C663 C665 1.419 . S
C664 C662 1.415 . S
C664 C669 1.425 1_554 S
C664 C671 1.409 1_564 S
C665 H657 0.930 . S
C665 C663 1.419 . S
C665 C666 1.362 1_554 S
C666 H658 0.930 . S
C666 C665 1.362 1_556 S
C666 C669 1.409 . S
C667 H659 0.930 . S
C667 C668 1.355 . S
C667 C669 1.415 . S
C668 C667 1.355 . S
C668 C670 1.419 1_565 S
C669 C664 1.425 1_556 S
C669 C666 1.409 . S
C669 C667 1.415 . S
C670 H660 0.930 . S
C670 C668 1.419 1_545 S
C670 C671 1.362 . S
C671 H661 0.930 1_556 S
C671 C664 1.409 1_546 S
C671 C670 1.362 . S
H672 C678 0.930 . S
H673 C681 0.930 . S
H674 C682 0.930 . S
H675 C683 0.930 . S
H676 C686 0.930 . S
H677 C687 0.930 . S
C678 H672 0.930 . S
C678 C679 1.355 . S
C678 C680 1.415 . S
C679 C678 1.355 . S
C679 C681 1.419 . S
C680 C678 1.415 . S
C680 C685 1.425 . S
C680 C687 1.409 1_554 S
C681 H673 0.930 . S
C681 C679 1.419 . S
C681 C682 1.362 . S
C682 H674 0.930 . S
C682 C681 1.362 . S
C682 C685 1.415 . S
C683 H675 0.930 . S
C683 C684 1.355 . S
C683 C685 1.408 1_556 S
C684 C683 1.355 . S
C684 C686 1.419 . S
C685 C680 1.425 . S
C685 C682 1.415 . S
C685 C683 1.408 1_554 S
C686 H676 0.930 . S
C686 C684 1.419 . S
C686 C687 1.362 . S
C687 H677 0.930 . S
C687 C680 1.409 1_556 S
C687 C686 1.362 . S
H688 C694 0.930 . S
H689 C697 0.930 . S
H690 C698 0.930 . S
H691 C699 0.930 . S
H692 C702 0.930 . S
H693 C703 0.930 . S
C694 H688 0.930 . S
C694 C695 1.355 . S
C694 C696 1.415 . S
C695 C694 1.355 . S
C695 C697 1.419 . S
C696 C694 1.415 . S
C696 C701 1.425 1_554 S
C696 C703 1.409 1_554 S
C697 H689 0.930 . S
C697 C695 1.419 . S
C697 C698 1.362 . S
C698 H690 0.930 . S
C698 C697 1.362 . S
C698 C701 1.409 1_554 S
C699 H691 0.930 . S
C699 C700 1.355 . S
C699 C701 1.415 . S
C700 C699 1.355 . S
C700 C702 1.419 . S
C701 C696 1.425 1_556 S
C701 C698 1.409 1_556 S
C701 C699 1.415 . S
C702 H692 0.930 . S
C702 C700 1.419 . S
C702 C703 1.362 . S
C703 H693 0.930 . S
C703 C696 1.409 1_556 S
C703 C702 1.362 . S
H704 C710 0.930 1_455 S
H705 C713 0.930 . S
H706 C714 0.930 . S
H707 C715 0.930 . S
H708 C718 0.930 . S
H709 C719 0.930 . S
C710 H704 0.930 1_655 S
C710 C711 1.355 . S
C710 C712 1.415 . S
C711 C710 1.355 . S
C711 C713 1.419 . S
C712 C710 1.415 . S
C712 C717 1.425 1_554 S
C712 C719 1.409 1_654 S
C713 H705 0.930 . S
C713 C711 1.419 . S
C713 C714 1.362 . S
C714 H706 0.930 . S
C714 C713 1.362 . S
C714 C717 1.409 1_554 S
C715 H707 0.930 . S
C715 C716 1.355 . S
C715 C717 1.415 . S
C716 C715 1.355 . S
C716 C718 1.419 1_655 S
C717 C712 1.425 1_556 S
C717 C714 1.409 1_556 S
C717 C715 1.415 . S
C718 H708 0.930 . S
C718 C716 1.419 1_455 S
C718 C719 1.362 . S
C719 H709 0.930 . S
C719 C712 1.409 1_456 S
C719 C718 1.362 . S
H720 C726 0.930 . S
H721 C729 0.930 . S
H722 C730 0.930 . S
H723 C731 0.930 . S
H724 C734 0.930 . S
H725 C735 0.930 . S
C726 H720 0.930 . S
C726 C727 1.355 . S
C726 C728 1.415 . S
C727 C726 1.355 . S
C727 C729 1.419 . S
C728 C726 1.415 . S
C728 C733 1.425 . S
C728 C735 1.409 . S
C729 H721 0.930 . S
C729 C727 1.419 . S
C729 C730 1.362 . S
C730 H722 0.930 . S
C730 C729 1.362 . S
C730 C733 1.409 . S
C731 H723 0.930 . S
C731 C732 1.355 1_455 S
C731 C733 1.415 . S
C732 C731 1.355 1_655 S
C732 C734 1.419 . S
C733 C728 1.425 . S
C733 C730 1.409 . S
C733 C731 1.415 . S
C734 H724 0.930 . S
C734 C732 1.419 . S
C734 C735 1.362 1_655 S
C735 H725 0.930 . S
C735 C728 1.409 . S
C735 C734 1.362 1_455 S
H736 C742 0.930 . S
H737 C745 0.930 . S
H738 C746 0.930 1_565 S
H739 C747 0.930 . S
H740 C750 0.930 . S
H741 C751 0.930 . S
C742 H736 0.930 . S
C742 C743 1.355 . S
C742 C744 1.415 . S
C743 C742 1.355 . S
C743 C745 1.419 . S
C744 C742 1.415 . S
C744 C749 1.425 . S
C744 C751 1.409 . S
C745 H737 0.930 . S
C745 C743 1.419 . S
C745 C746 1.362 . S
C746 H738 0.930 1_545 S
C746 C745 1.362 . S
C746 C749 1.409 . S
C747 H739 0.930 . S
C747 C748 1.355 . S
C747 C749 1.415 1_565 S
C748 C747 1.355 . S
C748 C750 1.417 1_565 S
C749 C744 1.425 . S
C749 C746 1.409 . S
C749 C747 1.415 1_545 S
C750 H740 0.930 . S
C750 C748 1.417 1_545 S
C750 C751 1.362 . S
C751 H741 0.930 . S
C751 C744 1.409 . S
C751 C750 1.362 . S
H752 C758 0.930 . S
H753 C761 0.930 . S
H754 C762 0.930 . S
H755 C763 0.930 . S
H756 C766 0.930 . S
H757 C767 0.930 . S
C758 H752 0.930 . S
C758 C759 1.355 . S
C758 C760 1.415 . S
C759 C758 1.355 . S
C759 C761 1.419 . S
C760 C758 1.415 . S
C760 C765 1.425 . S
C760 C767 1.409 . S
C761 H753 0.930 . S
C761 C759 1.419 . S
C761 C762 1.362 . S
C762 H754 0.930 . S
C762 C761 1.362 . S
C762 C765 1.409 . S
C763 H755 0.930 . S
C763 C764 1.355 . S
C763 C765 1.415 . S
C764 C763 1.355 . S
C764 C766 1.419 . S
C765 C760 1.425 . S
C765 C762 1.409 . S
C765 C763 1.415 . S
C766 H756 0.930 . S
C766 C764 1.419 . S
C766 C767 1.362 . S
C767 H757 0.930 . S
C767 C760 1.409 . S
C767 C766 1.362 . S
H768 C774 0.930 . S
H769 C777 0.930 . S
H770 C778 0.930 . S
H771 C779 0.930 . S
H772 C782 0.930 . S
H773 C783 0.930 . S
C774 H768 0.930 . S
C774 C775 1.355 . S
C774 C776 1.415 . S
C775 C774 1.355 . S
C775 C777 1.419 . S
C776 C774 1.415 . S
C776 C781 1.425 . S
C776 C783 1.409 . S
C777 H769 0.930 . S
C777 C775 1.419 . S
C777 C778 1.362 . S
C778 H770 0.930 . S
C778 C777 1.362 . S
C778 C781 1.409 . S
C779 H771 0.930 . S
C779 C780 1.355 . S
C779 C781 1.415 . S
C780 C779 1.355 . S
C780 C782 1.419 . S
C781 C776 1.425 . S
C781 C778 1.409 . S
C781 C779 1.415 . S
C782 H772 0.930 . S
C782 C780 1.419 . S
C782 C783 1.362 . S
C783 H773 0.930 . S
C783 C776 1.409 . S
C783 C782 1.362 . S
H784 C790 0.930 . S
H785 C793 0.930 . S
H786 C794 0.930 . S
H787 C795 0.930 . S
H788 C798 0.930 . S
H789 C799 0.930 . S
C790 H784 0.930 . S
C790 C791 1.355 . S
C790 C792 1.415 . S
C791 C790 1.355 . S
C791 C793 1.419 . S
C792 C790 1.415 . S
C792 C797 1.425 1_554 S
C792 C799 1.409 . S
C793 H785 0.930 . S
C793 C791 1.419 . S
C793 C794 1.362 1_554 S
C794 H786 0.930 . S
C794 C793 1.362 1_556 S
C794 C797 1.409 . S
C795 H787 0.930 . S
C795 C796 1.355 . S
C795 C797 1.415 1_455 S
C796 C795 1.355 . S
C796 C798 1.419 1_556 S
C797 C792 1.425 1_556 S
C797 C794 1.409 . S
C797 C795 1.415 1_655 S
C798 H788 0.930 . S
C798 C796 1.419 1_554 S
C798 C799 1.362 1_455 S
C799 H789 0.930 . S
C799 C792 1.409 . S
C799 C798 1.362 1_655 S
H800 C806 0.930 . S
H801 C809 0.930 1_545 S
H802 C810 0.930 1_556 S
H803 C811 0.930 . S
H804 C814 0.931 . S
H805 C815 0.930 . S
C806 H800 0.930 . S
C806 C807 1.355 . S
C806 C808 1.415 . S
C807 C806 1.355 . S
C807 C809 1.419 . S
C808 C806 1.415 . S
C808 C813 1.425 1_565 S
C808 C815 1.409 . S
C809 H801 0.930 1_565 S
C809 C807 1.419 . S
C809 C810 1.362 1_565 S
C810 H802 0.930 1_554 S
C810 C809 1.362 1_545 S
C810 C813 1.409 . S
C811 H803 0.930 . S
C811 C812 1.355 . S
C811 C813 1.415 1_556 S
C812 C811 1.355 . S
C812 C814 1.425 1_545 S
C813 C808 1.425 1_545 S
C813 C810 1.409 . S
C813 C811 1.415 1_554 S
C814 H804 0.931 . S
C814 C812 1.425 1_565 S
C814 C815 1.356 1_556 S
C815 H805 0.930 . S
C815 C808 1.409 . S
C815 C814 1.356 1_554 S
H816 C822 0.930 . S
H817 C825 0.930 . S
H818 C826 0.930 . S
H819 C827 0.930 . S
H820 C830 0.930 . S
H821 C831 0.930 . S
C822 H816 0.930 . S
C822 C823 1.355 . S
C822 C824 1.415 . S
C823 C822 1.355 . S
C823 C825 1.419 . S
C824 C822 1.415 . S
C824 C829 1.425 . S
C824 C831 1.409 . S
C825 H817 0.930 . S
C825 C823 1.419 . S
C825 C826 1.362 . S
C826 H818 0.930 . S
C826 C825 1.362 . S
C826 C829 1.409 . S
C827 H819 0.930 . S
C827 C828 1.355 . S
C827 C829 1.415 1_556 S
C828 C827 1.355 . S
C828 C830 1.419 . S
C829 C824 1.425 . S
C829 C826 1.409 . S
C829 C827 1.415 1_554 S
C830 H820 0.930 . S
C830 C828 1.419 . S
C830 C831 1.362 1_556 S
C831 H821 0.930 . S
C831 C824 1.409 . S
C831 C830 1.362 1_554 S
H832 C838 0.930 . S
H833 C841 0.930 . S
H834 C842 0.930 . S
H835 C843 0.930 . S
H836 C846 0.930 . S
H837 C847 0.930 . S
C838 H832 0.930 . S
C838 C839 1.355 . S
C838 C840 1.415 . S
C839 C838 1.355 . S
C839 C841 1.419 . S
C840 C838 1.415 . S
C840 C845 1.425 1_554 S
C840 C847 1.409 . S
C841 H833 0.930 . S
C841 C839 1.419 . S
C841 C842 1.362 1_554 S
C842 H834 0.930 . S
C842 C841 1.362 1_556 S
C842 C845 1.409 . S
C843 H835 0.930 . S
C843 C844 1.355 . S
C843 C845 1.415 . S
C844 C843 1.355 . S
C844 C846 1.419 1_556 S
C845 C840 1.425 1_556 S
C845 C842 1.409 . S
C845 C843 1.415 . S
C846 H836 0.930 . S
C846 C844 1.419 1_554 S
C846 C847 1.362 . S
C847 H837 0.930 . S
C847 C840 1.409 . S
C847 C846 1.362 . S
H848 C854 0.930 . S
H849 C857 0.930 . S
H850 C858 0.930 . S
H851 C859 0.930 . S
H852 C862 0.930 . S
H853 C863 0.930 . S
C854 H848 0.930 . S
C854 C855 1.355 . S
C854 C856 1.415 . S
C855 C854 1.355 . S
C855 C857 1.419 . S
C856 C854 1.415 . S
C856 C861 1.425 . S
C856 C863 1.409 . S
C857 H849 0.930 . S
C857 C855 1.419 . S
C857 C858 1.362 . S
C858 H850 0.930 . S
C858 C857 1.362 . S
C858 C861 1.409 . S
C859 H851 0.930 . S
C859 C860 1.355 . S
C859 C861 1.415 . S
C860 C859 1.355 . S
C860 C862 1.419 . S
C861 C856 1.425 . S
C861 C858 1.409 . S
C861 C859 1.415 . S
C862 H852 0.930 . S
C862 C860 1.419 . S
C862 C863 1.362 . S
C863 H853 0.930 . S
C863 C856 1.409 . S
C863 C862 1.362 . S
H864 C870 0.930 . S
H865 C873 0.930 1_565 S
H866 C874 0.930 . S
H867 C875 0.930 1_565 S
H868 C878 0.930 . S
H869 C879 0.930 . S
C870 H864 0.930 . S
C870 C871 1.355 . S
C870 C872 1.415 . S
C871 C870 1.355 . S
C871 C873 1.419 . S
C872 C870 1.415 . S
C872 C877 1.425 . S
C872 C879 1.409 . S
C873 H865 0.930 1_545 S
C873 C871 1.419 . S
C873 C874 1.362 1_545 S
C874 H866 0.930 . S
C874 C873 1.362 1_565 S
C874 C877 1.409 1_565 S
C875 H867 0.930 1_545 S
C875 C876 1.355 . S
C875 C877 1.415 . S
C876 C875 1.355 . S
C876 C878 1.419 . S
C877 C872 1.425 . S
C877 C874 1.409 1_545 S
C877 C875 1.415 . S
C878 H868 0.930 . S
C878 C876 1.419 . S
C878 C879 1.362 . S
C879 H869 0.930 . S
C879 C872 1.409 . S
C879 C878 1.362 . S
H880 C886 0.930 . S
H881 C889 0.930 . S
H882 C890 0.930 . S
H883 C891 0.930 . S
H884 C894 0.930 . S
H885 C895 0.930 . S
C886 H880 0.930 . S
C886 C887 1.355 . S
C886 C888 1.415 . S
C887 C886 1.355 . S
C887 C889 1.419 . S
C888 C886 1.415 . S
C888 C893 1.425 . S
C888 C895 1.409 . S
C889 H881 0.930 . S
C889 C887 1.419 . S
C889 C890 1.362 . S
C890 H882 0.930 . S
C890 C889 1.362 . S
C890 C893 1.409 . S
C891 H883 0.930 . S
C891 C892 1.355 . S
C891 C893 1.415 . S
C892 C891 1.355 . S
C892 C894 1.419 . S
C893 C888 1.425 . S
C893 C890 1.409 . S
C893 C891 1.415 . S
C894 H884 0.930 . S
C894 C892 1.419 . S
C894 C895 1.362 . S
C895 H885 0.930 . S
C895 C888 1.409 . S
C895 C894 1.362 . S
H896 C902 0.930 . S
H897 C905 0.930 . S
H898 C906 0.930 . S
H899 C907 0.930 . S
H900 C910 0.930 . S
H901 C911 0.930 . S
C902 H896 0.930 . S
C902 C903 1.355 . S
C902 C904 1.415 . S
C903 C902 1.355 . S
C903 C905 1.419 . S
C904 C902 1.415 . S
C904 C909 1.425 . S
C904 C911 1.409 . S
C905 H897 0.930 . S
C905 C903 1.419 . S
C905 C906 1.362 . S
C906 H898 0.930 . S
C906 C905 1.362 . S
C906 C909 1.409 . S
C907 H899 0.930 . S
C907 C908 1.355 . S
C907 C909 1.415 . S
C908 C907 1.355 . S
C908 C910 1.419 . S
C909 C904 1.425 . S
C909 C906 1.409 . S
C909 C907 1.415 . S
C910 H900 0.930 . S
C910 C908 1.419 . S
C910 C911 1.362 . S
C911 H901 0.930 . S
C911 C904 1.409 . S
C911 C910 1.362 . S
H912 C918 0.927 . S
H913 C921 0.930 . S
H914 C922 0.930 . S
H915 C923 0.930 . S
H916 C926 0.930 . S
H917 C927 0.930 . S
C918 H912 0.927 . S
C918 C919 1.355 . S
C918 C920 1.415 . S
C919 C918 1.355 . S
C919 C921 1.419 . S
C920 C918 1.415 . S
C920 C925 1.425 . S
C920 C927 1.409 1_655 S
C921 H913 0.930 . S
C921 C919 1.419 . S
C921 C922 1.362 . S
C922 H914 0.930 . S
C922 C921 1.362 . S
C922 C925 1.409 . S
C923 H915 0.930 . S
C923 C924 1.355 . S
C923 C925 1.415 . S
C924 C923 1.355 . S
C924 C926 1.419 1_655 S
C925 C920 1.425 . S
C925 C922 1.409 . S
C925 C923 1.415 . S
C926 H916 0.930 . S
C926 C924 1.419 1_455 S
C926 C927 1.362 . S
C927 H917 0.930 . S
C927 C920 1.409 1_455 S
C927 C926 1.362 . S
H928 C934 0.930 . S
H929 C937 0.930 . S
H930 C938 0.930 . S
H931 C939 0.930 . S
H932 C942 0.930 . S
H933 C943 0.930 . S
C934 H928 0.930 . S
C934 C935 1.355 . S
C934 C936 1.415 . S
C935 C934 1.355 . S
C935 C937 1.419 1_565 S
C936 C934 1.415 . S
C936 C941 1.425 . S
C936 C943 1.409 . S
C937 H929 0.930 . S
C937 C935 1.419 1_545 S
C937 C938 1.362 . S
C938 H930 0.930 . S
C938 C937 1.362 . S
C938 C941 1.409 1_545 S
C939 H931 0.930 . S
C939 C940 1.355 1_545 S
C939 C941 1.415 1_545 S
C940 C939 1.355 1_565 S
C940 C942 1.419 . S
C941 C936 1.425 . S
C941 C938 1.409 1_565 S
C941 C939 1.415 1_565 S
C942 H932 0.930 . S
C942 C940 1.419 . S
C942 C943 1.362 . S
C943 H933 0.930 . S
C943 C936 1.409 . S
C943 C942 1.362 . S
H944 C950 0.930 . S
H945 C953 0.930 . S
H946 C954 0.930 . S
H947 C955 0.930 . S
H948 C958 0.930 . S
H949 C959 0.930 . S
C950 H944 0.930 . S
C950 C951 1.355 . S
C950 C952 1.415 . S
C951 C950 1.355 . S
C951 C953 1.419 . S
C952 C950 1.415 . S
C952 C957 1.425 . S
C952 C959 1.409 . S
C953 H945 0.930 . S
C953 C951 1.419 . S
C953 C954 1.362 . S
C954 H946 0.930 . S
C954 C953 1.362 . S
C954 C957 1.409 . S
C955 H947 0.930 . S
C955 C956 1.355 . S
C955 C957 1.415 . S
C956 C955 1.355 . S
C956 C958 1.419 . S
C957 C952 1.425 . S
C957 C954 1.409 . S
C957 C955 1.415 . S
C958 H948 0.930 . S
C958 C956 1.419 . S
C958 C959 1.362 . S
C959 H949 0.930 . S
C959 C952 1.409 . S
C959 C958 1.362 . S
H960 C966 0.930 . S
H961 C969 0.930 . S
H962 C970 0.930 . S
H963 C971 0.930 . S
H964 C974 0.930 . S
H965 C975 0.930 . S
C966 H960 0.930 . S
C966 C967 1.355 . S
C966 C968 1.415 . S
C967 C966 1.355 . S
C967 C969 1.419 . S
C968 C966 1.415 . S
C968 C973 1.425 . S
C968 C975 1.409 . S
C969 H961 0.930 . S
C969 C967 1.419 . S
C969 C970 1.362 . S
C970 H962 0.930 . S
C970 C969 1.362 . S
C970 C973 1.409 . S
C971 H963 0.930 . S
C971 C972 1.355 . S
C971 C973 1.415 . S
C972 C971 1.355 . S
C972 C974 1.419 . S
C973 C968 1.425 . S
C973 C970 1.409 . S
C973 C971 1.415 . S
C974 H964 0.930 . S
C974 C972 1.419 . S
C974 C975 1.362 . S
C975 H965 0.930 . S
C975 C968 1.409 . S
C975 C974 1.362 . S
C599 C215 2.227 . S
C604 C319 2.370 . S
C620 C396 2.392 . S
C615 C247 2.249 . S
C636 C487 2.389 . S
C631 C151 2.265 . S
C652 C571 2.332 . S
C647 C183 2.187 . S
C668 C330 2.348 1_565 S
C663 C87 2.140 . S
C679 C119 2.209 . S
C684 C407 2.393 . S
C695 C23 2.186 . S
C700 C498 2.355 . S
C711 C55 2.186 . S
C716 C582 2.347 1_655 S
C732 C314 0.651 . S
C727 C189 0.592 . S
C748 C409 0.569 . S
C743 C221 0.552 . S
C764 C482 0.566 . S
C759 C253 0.598 . S
C775 C157 0.567 . S
C780 C566 0.519 . S
C791 C61 0.696 . S
C796 C325 0.631 . S
C812 C398 0.513 . S
C807 C93 0.597 . S
C828 C493 0.529 . S
C823 C125 0.753 . S
C839 C29 0.742 . S
C844 C577 0.576 . S
C855 C177 2.464 . S
C860 C323 2.705 . S
C871 C209 2.473 . S
C876 C414 2.752 . S
C892 C491 2.723 . S
C887 C241 2.494 . S
C908 C575 2.723 . S
C903 C145 2.492 . S
C919 C49 2.440 . S
C924 C312 2.708 . S
C940 C403 2.751 . S
C935 C81 2.380 . S
C956 C480 2.696 . S
C951 C113 2.397 . S
C967 C17 2.393 . S
C972 C564 2.706 . S
