# Generated by pormake.
# Topology ptr, (4,4)-cn, num edge types: 1
# Building blocks:
#     Node 0, Type 0, BuildingBlock: KUFVIS_clean_sbu_0, # of connection points: 4
#     Node 1, Type 0, BuildingBlock: KUFVIS_clean_sbu_0, # of connection points: 4
#     Node 2, Type 0, BuildingBlock: KUFVIS_clean_sbu_0, # of connection points: 4
#     Node 3, Type 0, BuildingBlock: KUFVIS_clean_sbu_0, # of connection points: 4
#     Node 4, Type 0, BuildingBlock: KUFVIS_clean_sbu_0, # of connection points: 4
#     Node 5, Type 0, BuildingBlock: KUFVIS_clean_sbu_0, # of connection points: 4
#     Node 6, Type 0, BuildingBlock: KUFVIS_clean_sbu_0, # of connection points: 4
#     Node 7, Type 0, BuildingBlock: KUFVIS_clean_sbu_0, # of connection points: 4
#     Node 8, Type 0, BuildingBlock: KUFVIS_clean_sbu_0, # of connection points: 4
#     Node 9, Type 0, BuildingBlock: KUFVIS_clean_sbu_0, # of connection points: 4
#     Node 10, Type 0, BuildingBlock: KUFVIS_clean_sbu_0, # of connection points: 4
#     Node 11, Type 0, BuildingBlock: KUFVIS_clean_sbu_0, # of connection points: 4
#     Node 12, Type 0, BuildingBlock: KUFVIS_clean_sbu_0, # of connection points: 4
#     Node 13, Type 0, BuildingBlock: KUFVIS_clean_sbu_0, # of connection points: 4
#     Node 14, Type 0, BuildingBlock: KUFVIS_clean_sbu_0, # of connection points: 4
#     Node 15, Type 0, BuildingBlock: KUFVIS_clean_sbu_0, # of connection points: 4
#     Node 16, Type 0, BuildingBlock: KUFVIS_clean_sbu_0, # of connection points: 4
#     Node 17, Type 0, BuildingBlock: KUFVIS_clean_sbu_0, # of connection points: 4
#     Node 18, Type 1, BuildingBlock: MIFKUJ_clean_linker_1, # of connection points: 4
#     Node 19, Type 1, BuildingBlock: MIFKUJ_clean_linker_1, # of connection points: 4
#     Node 20, Type 1, BuildingBlock: MIFKUJ_clean_linker_1, # of connection points: 4
#     Node 21, Type 1, BuildingBlock: MIFKUJ_clean_linker_1, # of connection points: 4
#     Node 22, Type 1, BuildingBlock: MIFKUJ_clean_linker_1, # of connection points: 4
#     Node 23, Type 1, BuildingBlock: MIFKUJ_clean_linker_1, # of connection points: 4
#     Node 24, Type 1, BuildingBlock: MIFKUJ_clean_linker_1, # of connection points: 4
#     Node 25, Type 1, BuildingBlock: MIFKUJ_clean_linker_1, # of connection points: 4
#     Node 26, Type 1, BuildingBlock: MIFKUJ_clean_linker_1, # of connection points: 4
#     Node 27, Type 1, BuildingBlock: MIFKUJ_clean_linker_1, # of connection points: 4
#     Node 28, Type 1, BuildingBlock: MIFKUJ_clean_linker_1, # of connection points: 4
#     Node 29, Type 1, BuildingBlock: MIFKUJ_clean_linker_1, # of connection points: 4
#     Node 30, Type 1, BuildingBlock: MIFKUJ_clean_linker_1, # of connection points: 4
#     Node 31, Type 1, BuildingBlock: MIFKUJ_clean_linker_1, # of connection points: 4
#     Node 32, Type 1, BuildingBlock: MIFKUJ_clean_linker_1, # of connection points: 4
#     Node 33, Type 1, BuildingBlock: MIFKUJ_clean_linker_1, # of connection points: 4
#     Node 34, Type 1, BuildingBlock: MIFKUJ_clean_linker_1, # of connection points: 4
#     Node 35, Type 1, BuildingBlock: MIFKUJ_clean_linker_1, # of connection points: 4
#     Edge 36, Type (0, 1), BuildingBlock: MIFKUJ_clean_linker_0, # of connection points: 2
#     Edge 37, Type (0, 1), BuildingBlock: MIFKUJ_clean_linker_0, # of connection points: 2
#     Edge 38, Type (0, 1), BuildingBlock: MIFKUJ_clean_linker_0, # of connection points: 2
#     Edge 39, Type (0, 1), BuildingBlock: MIFKUJ_clean_linker_0, # of connection points: 2
#     Edge 40, Type (0, 1), BuildingBlock: MIFKUJ_clean_linker_0, # of connection points: 2
#     Edge 41, Type (0, 1), BuildingBlock: MIFKUJ_clean_linker_0, # of connection points: 2
#     Edge 42, Type (0, 1), BuildingBlock: MIFKUJ_clean_linker_0, # of connection points: 2
#     Edge 43, Type (0, 1), BuildingBlock: MIFKUJ_clean_linker_0, # of connection points: 2
#     Edge 44, Type (0, 1), BuildingBlock: MIFKUJ_clean_linker_0, # of connection points: 2
#     Edge 45, Type (0, 1), BuildingBlock: MIFKUJ_clean_linker_0, # of connection points: 2
#     Edge 46, Type (0, 1), BuildingBlock: MIFKUJ_clean_linker_0, # of connection points: 2
#     Edge 47, Type (0, 1), BuildingBlock: MIFKUJ_clean_linker_0, # of connection points: 2
#     Edge 48, Type (0, 1), BuildingBlock: MIFKUJ_clean_linker_0, # of connection points: 2
#     Edge 49, Type (0, 1), BuildingBlock: MIFKUJ_clean_linker_0, # of connection points: 2
#     Edge 50, Type (0, 1), BuildingBlock: MIFKUJ_clean_linker_0, # of connection points: 2
#     Edge 51, Type (0, 1), BuildingBlock: MIFKUJ_clean_linker_0, # of connection points: 2
#     Edge 52, Type (0, 1), BuildingBlock: MIFKUJ_clean_linker_0, # of connection points: 2
#     Edge 53, Type (0, 1), BuildingBlock: MIFKUJ_clean_linker_0, # of connection points: 2
#     Edge 54, Type (0, 1), BuildingBlock: MIFKUJ_clean_linker_0, # of connection points: 2
#     Edge 55, Type (0, 1), BuildingBlock: MIFKUJ_clean_linker_0, # of connection points: 2
#     Edge 56, Type (0, 1), BuildingBlock: MIFKUJ_clean_linker_0, # of connection points: 2
#     Edge 57, Type (0, 1), BuildingBlock: MIFKUJ_clean_linker_0, # of connection points: 2
#     Edge 58, Type (0, 1), BuildingBlock: MIFKUJ_clean_linker_0, # of connection points: 2
#     Edge 59, Type (0, 1), BuildingBlock: MIFKUJ_clean_linker_0, # of connection points: 2
#     Edge 60, Type (0, 1), BuildingBlock: MIFKUJ_clean_linker_0, # of connection points: 2
#     Edge 61, Type (0, 1), BuildingBlock: MIFKUJ_clean_linker_0, # of connection points: 2
#     Edge 62, Type (0, 1), BuildingBlock: MIFKUJ_clean_linker_0, # of connection points: 2
#     Edge 63, Type (0, 1), BuildingBlock: MIFKUJ_clean_linker_0, # of connection points: 2
#     Edge 64, Type (0, 1), BuildingBlock: MIFKUJ_clean_linker_0, # of connection points: 2
#     Edge 65, Type (0, 1), BuildingBlock: MIFKUJ_clean_linker_0, # of connection points: 2
#     Edge 66, Type (0, 1), BuildingBlock: MIFKUJ_clean_linker_0, # of connection points: 2
#     Edge 67, Type (0, 1), BuildingBlock: MIFKUJ_clean_linker_0, # of connection points: 2
#     Edge 68, Type (0, 1), BuildingBlock: MIFKUJ_clean_linker_0, # of connection points: 2
#     Edge 69, Type (0, 1), BuildingBlock: MIFKUJ_clean_linker_0, # of connection points: 2
#     Edge 70, Type (0, 1), BuildingBlock: MIFKUJ_clean_linker_0, # of connection points: 2
#     Edge 71, Type (0, 1), BuildingBlock: MIFKUJ_clean_linker_0, # of connection points: 2
#     Edge 72, Type (0, 1), BuildingBlock: MIFKUJ_clean_linker_0, # of connection points: 2
#     Edge 73, Type (0, 1), BuildingBlock: MIFKUJ_clean_linker_0, # of connection points: 2
#     Edge 74, Type (0, 1), BuildingBlock: MIFKUJ_clean_linker_0, # of connection points: 2
#     Edge 75, Type (0, 1), BuildingBlock: MIFKUJ_clean_linker_0, # of connection points: 2
#     Edge 76, Type (0, 1), BuildingBlock: MIFKUJ_clean_linker_0, # of connection points: 2
#     Edge 77, Type (0, 1), BuildingBlock: MIFKUJ_clean_linker_0, # of connection points: 2
#     Edge 78, Type (0, 1), BuildingBlock: MIFKUJ_clean_linker_0, # of connection points: 2
#     Edge 79, Type (0, 1), BuildingBlock: MIFKUJ_clean_linker_0, # of connection points: 2
#     Edge 80, Type (0, 1), BuildingBlock: MIFKUJ_clean_linker_0, # of connection points: 2
#     Edge 81, Type (0, 1), BuildingBlock: MIFKUJ_clean_linker_0, # of connection points: 2
#     Edge 82, Type (0, 1), BuildingBlock: MIFKUJ_clean_linker_0, # of connection points: 2
#     Edge 83, Type (0, 1), BuildingBlock: MIFKUJ_clean_linker_0, # of connection points: 2
#     Edge 84, Type (0, 1), BuildingBlock: MIFKUJ_clean_linker_0, # of connection points: 2
#     Edge 85, Type (0, 1), BuildingBlock: MIFKUJ_clean_linker_0, # of connection points: 2
#     Edge 86, Type (0, 1), BuildingBlock: MIFKUJ_clean_linker_0, # of connection points: 2
#     Edge 87, Type (0, 1), BuildingBlock: MIFKUJ_clean_linker_0, # of connection points: 2
#     Edge 88, Type (0, 1), BuildingBlock: MIFKUJ_clean_linker_0, # of connection points: 2
#     Edge 89, Type (0, 1), BuildingBlock: MIFKUJ_clean_linker_0, # of connection points: 2
#     Edge 90, Type (0, 1), BuildingBlock: MIFKUJ_clean_linker_0, # of connection points: 2
#     Edge 91, Type (0, 1), BuildingBlock: MIFKUJ_clean_linker_0, # of connection points: 2
#     Edge 92, Type (0, 1), BuildingBlock: MIFKUJ_clean_linker_0, # of connection points: 2
#     Edge 93, Type (0, 1), BuildingBlock: MIFKUJ_clean_linker_0, # of connection points: 2
#     Edge 94, Type (0, 1), BuildingBlock: MIFKUJ_clean_linker_0, # of connection points: 2
#     Edge 95, Type (0, 1), BuildingBlock: MIFKUJ_clean_linker_0, # of connection points: 2
#     Edge 96, Type (0, 1), BuildingBlock: MIFKUJ_clean_linker_0, # of connection points: 2
#     Edge 97, Type (0, 1), BuildingBlock: MIFKUJ_clean_linker_0, # of connection points: 2
#     Edge 98, Type (0, 1), BuildingBlock: MIFKUJ_clean_linker_0, # of connection points: 2
#     Edge 99, Type (0, 1), BuildingBlock: MIFKUJ_clean_linker_0, # of connection points: 2
#     Edge 100, Type (0, 1), BuildingBlock: MIFKUJ_clean_linker_0, # of connection points: 2
#     Edge 101, Type (0, 1), BuildingBlock: MIFKUJ_clean_linker_0, # of connection points: 2
#     Edge 102, Type (0, 1), BuildingBlock: MIFKUJ_clean_linker_0, # of connection points: 2
#     Edge 103, Type (0, 1), BuildingBlock: MIFKUJ_clean_linker_0, # of connection points: 2
#     Edge 104, Type (0, 1), BuildingBlock: MIFKUJ_clean_linker_0, # of connection points: 2
#     Edge 105, Type (0, 1), BuildingBlock: MIFKUJ_clean_linker_0, # of connection points: 2
#     Edge 106, Type (0, 1), BuildingBlock: MIFKUJ_clean_linker_0, # of connection points: 2
#     Edge 107, Type (0, 1), BuildingBlock: MIFKUJ_clean_linker_0, # of connection points: 2
# Relax obj value: 0.041
# Max RMSD: 0.153
# Mean RMSD: 0.069
data_MOF--net-ptr--node1-KUFVIS_clean_sbu_0--node2-MIFKUJ_clean_linker_1--edge1-MIFKUJ_clean_linker_0
_symmetry_space_group_name_H-M    P1
_symmetry_Int_Tables_number       1
_symmetry_cell_setting            triclinic
loop_
_symmetry_equiv_pos_as_xyz
'x, y, z'
_cell_length_a     111.41512
_cell_length_b     110.93661
_cell_length_c     77.267237
_cell_angle_alpha  89.805463
_cell_angle_beta   90.517667
_cell_angle_gamma 119.49846
loop_
_atom_site_label
_atom_site_type_symbol
_atom_site_fract_x
_atom_site_fract_y
_atom_site_fract_z
_atom_type_partial_charge
Mn0 Mn 1.00061 0.34888 0.0074 0.0
Mn1 Mn 0.0314 0.37823 0.0092 0.0
C2 C 0.00411 0.36742 0.99017 0.0
C3 C 0.98701 0.3266 0.99637 0.0
C4 C 0.00918 0.3701 0.0364 0.0
O5 O 0.01295 0.3431 0.02034 0.0
O6 O 0.03352 0.36238 0.01734 0.0
C7 C 0.04607 0.37166 0.98232 0.0
N8 N 0.04184 0.38032 0.98885 0.0
C9 C 0.05374 0.39719 0.96662 0.0
C10 C 0.05832 0.3885 0.95971 0.0
C11 C 0.05441 0.37565 0.96754 0.0
C12 C 0.04541 0.39262 0.98132 0.0
H13 H 0.04311 0.3618 0.98835 0.0
C14 C 0.02602 0.34979 0.02208 0.0
O15 O 0.98428 0.33024 0.01114 0.0
O16 O 0.99776 0.33583 0.98821 0.0
N17 N 0.03127 0.39461 0.00177 0.0
C18 C 0.02546 0.40145 0.0096 0.0
C19 C 0.02845 0.41455 0.00352 0.0
C20 C 0.03739 0.42049 0.98946 0.0
C21 C 0.04306 0.41316 0.98142 0.0
C22 C 0.03995 0.40028 0.9883 0.0
H23 H 0.0188 0.39707 0.02062 0.0
O24 O 0.99177 0.35743 0.99333 0.0
O25 O 0.01422 0.36598 0.99657 0.0
O26 O 0.99987 0.35929 0.02881 0.0
O27 O 0.02142 0.37733 0.03061 0.0
C28 C 0.05171 0.41814 0.96688 0.0
C29 C 0.05695 0.41011 0.9594 0.0
H30 H 0.06475 0.39155 0.94832 0.0
H31 H 0.05785 0.36886 0.96223 0.0
H32 H 0.02407 0.42015 0.00986 0.0
H33 H 0.03994 0.43074 0.98505 0.0
H34 H 0.05426 0.42806 0.96123 0.0
H35 H 0.06342 0.41395 0.94807 0.0
Mn36 Mn 0.64769 0.64746 0.01458 0.0
Mn37 Mn 0.64755 0.617 0.01601 0.0
C38 C 0.63296 0.63028 0.03314 0.0
C39 C 0.65701 0.67025 0.02414 0.0
C40 C 0.63407 0.62495 0.98709 0.0
O41 O 0.66534 0.65162 0.00218 0.0
O42 O 0.66548 0.63158 0.00662 0.0
C43 C 0.66911 0.62408 0.04289 0.0
N44 N 0.65598 0.61576 0.03709 0.0
C45 C 0.65035 0.60149 0.06255 0.0
C46 C 0.66385 0.60983 0.06872 0.0
C47 C 0.67326 0.6212 0.05887 0.0
C48 C 0.64682 0.60486 0.04653 0.0
H49 H 0.67634 0.63288 0.0354 0.0
C50 C 0.67101 0.64408 0.00109 0.0
O51 O 0.65058 0.66633 0.00936 0.0
O52 O 0.65831 0.66103 0.03305 0.0
N53 N 0.63092 0.60195 0.02493 0.0
C54 C 0.61816 0.59522 0.01742 0.0
C55 C 0.60752 0.58364 0.02568 0.0
C56 C 0.61011 0.57904 0.04149 0.0
C57 C 0.62334 0.58608 0.04893 0.0
C58 C 0.63358 0.59745 0.03999 0.0
H59 H 0.6161 0.59866 0.00524 0.0
O60 O 0.63063 0.64025 0.02878 0.0
O61 O 0.64398 0.63084 0.02679 0.0
O62 O 0.63638 0.63649 0.99352 0.0
O63 O 0.63827 0.61722 0.99412 0.0
C64 C 0.62672 0.58236 0.06495 0.0
C65 C 0.6402 0.59009 0.07179 0.0
H66 H 0.66708 0.60767 0.08107 0.0
H67 H 0.68367 0.62774 0.0636 0.0
H68 H 0.59733 0.57826 0.01986 0.0
H69 H 0.60188 0.57009 0.0478 0.0
H70 H 0.61898 0.57367 0.07221 0.0
H71 H 0.64262 0.58724 0.08422 0.0
Mn72 Mn 0.34909 0.99911 0.01276 0.0
Mn73 Mn 0.37838 0.02993 0.0153 0.0
C74 C 0.3666 0.00174 0.0313 0.0
C75 C 0.32652 0.98475 0.02202 0.0
C76 C 0.37184 0.00955 0.9857 0.0
O77 O 0.3439 0.01234 0.00081 0.0
O78 O 0.36321 0.03265 0.00588 0.0
C79 C 0.36986 0.04283 0.0425 0.0
N80 N 0.37879 0.03874 0.03668 0.0
C81 C 0.3928 0.04732 0.06242 0.0
C82 C 0.38379 0.05172 0.06864 0.0
C83 C 0.37225 0.04942 0.05866 0.0
C84 C 0.38984 0.04077 0.04626 0.0
H85 H 0.36096 0.04106 0.03487 0.0
C86 C 0.35083 0.02553 1.00012 0.0
O87 O 0.33067 0.98282 0.00715 0.0
O88 O 0.33535 0.99519 0.03117 0.0
N89 N 0.39398 0.02902 0.02428 0.0
C90 C 0.40154 0.02396 0.01654 0.0
C91 C 0.41337 0.02529 0.02493 0.0
C92 C 0.41743 0.032 0.04105 0.0
C93 C 0.40966 0.03738 0.04858 0.0
C94 C 0.39798 0.03576 0.0396 0.0
H95 H 0.39854 0.01888 0.0041 0.0
O96 O 0.3571 0.98949 0.02658 0.0
O97 O 0.36535 0.01206 0.02542 0.0
O98 O 0.36053 0.99986 0.99172 0.0
O99 O 0.37893 0.02131 0.99315 0.0
C100 C 0.41302 0.04426 0.06467 0.0
C101 C 0.40453 0.04912 0.07166 0.0
H102 H 0.38561 0.05681 0.0811 0.0
H103 H 0.36522 0.05272 0.06341 0.0
H104 H 0.41935 0.02117 0.019 0.0
H105 H 0.42652 0.03295 0.04752 0.0
H106 H 0.42204 0.04575 0.07185 0.0
H107 H 0.40711 0.0542 0.08417 0.0
Mn108 Mn 0.00074 0.65186 0.00215 0.0
Mn109 Mn 0.03152 0.65289 0.99984 0.0
C110 C 0.00301 0.63664 0.9838 0.0
C111 C 0.98623 0.66034 0.99328 0.0
C112 C 0.0111 0.63853 0.02882 0.0
O113 O 0.01377 0.67007 0.01405 0.0
O114 O 0.03379 0.67022 0.01028 0.0
C115 C 0.04434 0.67544 0.97405 0.0
N116 N 0.04081 0.66239 0.97929 0.0
C117 C 0.05182 0.65897 0.95463 0.0
C118 C 0.05569 0.67243 0.94903 0.0
C119 C 0.05187 0.68067 0.95875 0.0
C120 C 0.04429 0.65432 0.96995 0.0
H121 H 0.04144 0.68181 0.98151 0.0
C122 C 0.02682 0.67579 0.01556 0.0
O123 O 0.98466 0.65427 0.00816 0.0
O124 O 0.99636 0.66169 0.98378 0.0
N125 N 0.03155 0.63712 0.99005 0.0
C126 C 0.02657 0.62423 0.99691 0.0
C127 C 0.02956 0.61471 0.98884 0.0
C128 C 0.03762 0.61854 0.97382 0.0
C129 C 0.04262 0.63185 0.96698 0.0
C130 C 0.03957 0.641 0.97581 0.0
H131 H 0.02056 0.6213 0.00861 0.0
O132 O 0.99098 0.63439 0.98872 0.0
O133 O 0.01356 0.64819 0.98922 0.0
O134 O 0.00175 0.64109 0.02326 0.0
O135 O 0.02262 0.6427 0.02119 0.0
C136 C 0.05046 0.6364 0.95174 0.0
C137 C 0.05498 0.64992 0.9455 0.0
H138 H 0.06149 0.67649 0.93723 0.0
H139 H 0.05475 0.69104 0.95447 0.0
H140 H 0.02584 0.60454 0.99436 0.0
H141 H 0.04001 0.61122 0.96769 0.0
H142 H 0.05293 0.62953 0.94461 0.0
H143 H 0.06083 0.65323 0.93363 0.0
Mn144 Mn 0.35339 0.35436 0.01642 0.0
Mn145 Mn 0.3821 0.35157 0.01329 0.0
C146 C 0.37211 0.36721 0.03462 0.0
C147 C 0.33135 0.34667 0.02749 0.0
C148 C 0.37508 0.36827 0.98819 0.0
O149 O 0.3468 0.33667 0.00223 0.0
O150 O 0.36626 0.33522 0.00249 0.0
C151 C 0.37398 0.32744 0.0363 0.0
N152 N 0.38293 0.34087 0.03218 0.0
C153 C 0.39863 0.34265 0.05485 0.0
C154 C 0.38962 0.32883 0.05935 0.0
C155 C 0.37718 0.32123 0.05013 0.0
C156 C 0.39472 0.34839 0.04127 0.0
H157 H 0.36454 0.32151 0.02902 0.0
C158 C 0.35358 0.33056 0.99833 0.0
O159 O 0.33527 0.35363 0.01315 0.0
O160 O 0.34013 0.34394 0.0352 0.0
N161 N 0.39836 0.36663 0.02308 0.0
C162 C 0.40603 0.37978 0.01692 0.0
C163 C 0.41869 0.38882 0.0249 0.0
C164 C 0.42354 0.38411 0.03874 0.0
C165 C 0.41563 0.37043 0.04452 0.0
C166 C 0.40295 0.362 0.03637 0.0
H167 H 0.40251 0.38336 0.00602 0.0
O168 O 0.36284 0.37087 0.03199 0.0
O169 O 0.36999 0.35594 0.02687 0.0
O170 O 0.36399 0.3662 0.9955 0.0
O171 O 0.38231 0.36298 0.99362 0.0
C172 C 0.42003 0.3647 0.05772 0.0
C173 C 0.41149 0.35087 0.06301 0.0
H174 H 0.39216 0.32394 0.06982 0.0
H175 H 0.37017 0.31056 0.05352 0.0
H176 H 0.42478 0.39932 0.02024 0.0
H177 H 0.4334 0.39105 0.04471 0.0
H178 H 0.43009 0.37081 0.06364 0.0
H179 H 0.41499 0.34655 0.07315 0.0
Mn180 Mn 0.65128 0.00333 0.00617 0.0
Mn181 Mn 0.62131 0.97315 0.00318 0.0
C182 C 0.63422 0.00151 0.98739 0.0
C183 C 0.674 0.01712 0.99732 0.0
C184 C 0.62835 0.9935 0.03289 0.0
O185 O 0.65578 0.98958 0.01789 0.0
O186 O 0.63593 0.96976 0.01292 0.0
C187 C 0.62918 0.9593 0.97651 0.0
N188 N 0.62055 0.96385 0.98211 0.0
C189 C 0.60577 0.95417 0.9572 0.0
C190 C 0.61444 0.94928 0.95121 0.0
C191 C 0.62624 0.95193 0.96087 0.0
C192 C 0.60926 0.96151 0.97283 0.0
H193 H 0.63823 0.96127 0.98394 0.0
C194 C 0.64837 0.97643 0.01859 0.0
O195 O 0.66991 0.01905 0.01224 0.0
O196 O 0.665 0.00703 0.98787 0.0
N197 N 0.60615 0.97469 0.99383 0.0
C198 C 0.59938 0.9809 0.00082 0.0
C199 C 0.58764 0.97973 0.99238 0.0
C200 C 0.58283 0.97198 0.97703 0.0
C201 C 0.58988 0.96555 0.97019 0.0
C202 C 0.60158 0.96717 0.9791 0.0
H203 H 0.60293 0.98673 0.01273 0.0
O204 O 0.6439 0.01356 0.99249 0.0
O205 O 0.63495 0.99086 0.99314 0.0
O206 O 0.63996 0.00289 0.02722 0.0
O207 O 0.62091 0.982 0.0251 0.0
C208 C 0.58585 0.95772 0.95478 0.0
C209 C 0.59386 0.95214 0.94821 0.0
H210 H 0.6122 0.94358 0.93917 0.0
H211 H 0.63302 0.94825 0.9563 0.0
H212 H 0.58226 0.98473 0.99773 0.0
H213 H 0.57377 0.97111 0.97055 0.0
H214 H 0.5767 0.95604 0.94776 0.0
H215 H 0.59081 0.94639 0.93617 0.0
Mn216 Mn 0.66756 0.68563 0.34346 0.0
Mn217 Mn 0.69804 0.7155 0.34311 0.0
C218 C 0.67019 0.70353 0.32551 0.0
C219 C 0.6533 0.66308 0.33358 0.0
C220 C 0.67659 0.70849 0.37091 0.0
O221 O 0.68049 0.68008 0.35528 0.0
O222 O 0.70018 0.70038 0.35385 0.0
C223 C 0.71246 0.70667 0.3185 0.0
N224 N 0.70835 0.71587 0.3233 0.0
C225 C 0.72025 0.73083 0.29937 0.0
C226 C 0.72468 0.72156 0.29422 0.0
C227 C 0.72071 0.70939 0.30379 0.0
C228 C 0.71202 0.72754 0.31412 0.0
H229 H 0.70947 0.69733 0.32586 0.0
C230 C 0.69338 0.68759 0.35806 0.0
O231 O 0.65143 0.66713 0.34857 0.0
O232 O 0.66363 0.67204 0.32454 0.0
N233 N 0.69811 0.73131 0.33314 0.0
C234 C 0.69247 0.73885 0.33942 0.0
C235 C 0.6955 0.75139 0.33141 0.0
C236 C 0.70426 0.75605 0.31703 0.0
C237 C 0.70988 0.74808 0.31073 0.0
C238 C 0.70674 0.73583 0.31948 0.0
H239 H 0.68589 0.73543 0.35062 0.0
O240 O 0.65806 0.6938 0.33002 0.0
O241 O 0.68065 0.7024 0.33133 0.0
O242 O 0.66782 0.69658 0.36501 0.0
O243 O 0.68817 0.71628 0.36373 0.0
C244 C 0.71841 0.75178 0.29608 0.0
C245 C 0.72352 0.74312 0.29034 0.0
H246 H 0.73104 0.72362 0.28287 0.0
H247 H 0.72404 0.70216 0.29985 0.0
H248 H 0.69124 0.75754 0.33648 0.0
H249 H 0.70669 0.76579 0.31096 0.0
H250 H 0.72098 0.76119 0.28902 0.0
H251 H 0.72991 0.74596 0.27891 0.0
Mn252 Mn 0.31554 0.98178 0.35021 0.0
Mn253 Mn 0.31651 0.9519 0.35271 0.0
C254 C 0.30181 0.96513 0.36998 0.0
C255 C 0.3246 0.0049 0.35808 0.0
C256 C 0.30141 0.95819 0.32423 0.0
O257 O 0.33277 0.98589 0.33669 0.0
O258 O 0.33388 0.9665 0.34227 0.0
C259 C 0.339 0.96049 0.3786 0.0
N260 N 0.32577 0.95168 0.37355 0.0
C261 C 0.32145 0.93814 0.39949 0.0
C262 C 0.33506 0.947 0.40491 0.0
C263 C 0.34386 0.95825 0.39445 0.0
C264 C 0.31717 0.94093 0.38361 0.0
H265 H 0.34578 0.96916 0.3706 0.0
C266 C 0.33882 0.97869 0.33587 0.0
O267 O 0.31746 1.00006 0.34391 0.0
O268 O 0.32676 0.9964 0.36742 0.0
N269 N 0.30043 0.93679 0.36265 0.0
C270 C 0.28753 0.92936 0.35569 0.0
C271 C 0.27742 0.91783 0.36465 0.0
C272 C 0.28073 0.91394 0.38053 0.0
C273 C 0.29415 0.92157 0.38726 0.0
C274 C 0.3038 0.93295 0.37775 0.0
H275 H 0.28494 0.93222 0.34342 0.0
O276 O 0.29912 0.97483 0.36551 0.0
O277 O 0.31275 0.96574 0.36321 0.0
O278 O 0.30338 0.96969 0.33037 0.0
O279 O 0.30642 0.95108 0.33107 0.0
C280 C 0.29833 0.91836 0.40306 0.0
C281 C 0.31193 0.92671 0.40925 0.0
H282 H 0.33885 0.94531 0.41712 0.0
H283 H 0.35436 0.96518 0.39859 0.0
H284 H 0.2671 0.91196 0.35933 0.0
H285 H 0.27289 0.90509 0.38745 0.0
H286 H 0.29112 0.90955 0.41064 0.0
H287 H 0.31495 0.92425 0.42155 0.0
Mn288 Mn 0.01736 0.33342 0.34609 0.0
Mn289 Mn 0.0455 0.36501 0.34313 0.0
C290 C 0.03631 0.33923 0.36398 0.0
C291 C 0.99545 0.31899 0.35742 0.0
C292 C 0.03848 0.34189 0.31718 0.0
O293 O 0.01044 0.34453 0.33213 0.0
O294 O 0.02918 0.36575 0.33401 0.0
C295 C 0.03784 0.38012 0.36822 0.0
N296 N 0.0468 0.37592 0.36284 0.0
C297 C 0.06309 0.3891 0.38523 0.0
C298 C 0.05412 0.39371 0.39093 0.0
C299 C 0.04137 0.38908 0.38249 0.0
C300 C 0.05888 0.37994 0.37121 0.0
H301 H 0.0281 0.3767 0.36164 0.0
C302 C 0.01662 0.3576 0.32959 0.0
O303 O 0.99935 0.31606 0.34299 0.0
O304 O 0.00418 0.33043 0.36505 0.0
N305 N 0.0621 0.36592 0.35161 0.0
C306 C 0.06958 0.36049 0.34454 0.0
C307 C 0.08241 0.36374 0.35185 0.0
C308 C 0.08759 0.37283 0.36602 0.0
C309 C 0.07985 0.37854 0.3728 0.0
C310 C 0.06702 0.3747 0.36522 0.0
H311 H 0.06578 0.35372 0.33344 0.0
O312 O 0.02715 0.32636 0.36141 0.0
O313 O 0.03389 0.34829 0.35643 0.0
O314 O 0.02796 0.33254 0.32502 0.0
O315 O 0.04526 0.35442 0.32246 0.0
C316 C 0.08452 0.38815 0.3865 0.0
C317 C 0.07614 0.39342 0.39272 0.0
H318 H 0.0569 0.40076 0.40179 0.0
H319 H 0.03435 0.39253 0.38685 0.0
H320 H 0.08835 0.35936 0.34646 0.0
H321 H 0.09756 0.37544 0.37151 0.0
H322 H 0.09462 0.39167 0.39218 0.0
H323 H 0.07987 0.40093 0.40311 0.0
Mn324 Mn 0.66816 0.98201 0.33777 0.0
Mn325 Mn 0.69972 0.98474 0.338 0.0
C326 C 0.67213 0.96731 0.32045 0.0
C327 C 0.65299 0.98924 0.32743 0.0
C328 C 0.67864 0.97041 0.36636 0.0
O329 O 0.6802 0.00059 0.34963 0.0
O330 O 0.70099 0.00219 0.34651 0.0
C331 C 0.71268 0.00618 0.31088 0.0
N332 N 0.70937 0.99349 0.31731 0.0
C333 C 0.72135 0.98945 0.29427 0.0
C334 C 0.72499 0.00253 0.28747 0.0
C335 C 0.72057 0.0109 0.29577 0.0
C336 C 0.71342 0.98528 0.30932 0.0
H337 H 0.70931 0.01264 0.31725 0.0
C338 C 0.6933 0.00716 0.35112 0.0
O339 O 0.6513 0.98334 0.34243 0.0
O340 O 0.66365 0.99117 0.31859 0.0
N341 N 0.70047 0.96884 0.3301 0.0
C342 C 0.69555 0.95627 0.3379 0.0
C343 C 0.69916 0.94671 0.33137 0.0
C344 C 0.70781 0.95019 0.31693 0.0
C345 C 0.71255 0.96308 0.30893 0.0
C346 C 0.70886 0.97229 0.31624 0.0
H347 H 0.68912 0.95364 0.34921 0.0
O348 O 0.6597 0.96436 0.32445 0.0
O349 O 0.682 0.97914 0.32621 0.0
O350 O 0.66895 0.9718 0.35948 0.0
O351 O 0.6906 0.97532 0.35969 0.0
C352 C 0.72083 0.96716 0.29403 0.0
C353 C 0.72513 0.9803 0.28662 0.0
H354 H 0.73108 0.00621 0.27582 0.0
H355 H 0.72327 0.02098 0.29054 0.0
H356 H 0.69547 0.9368 0.33766 0.0
H357 H 0.71088 0.94295 0.31219 0.0
H358 H 0.72381 0.96022 0.28805 0.0
H359 H 0.73131 0.98324 0.275 0.0
Mn360 Mn 0.01972 0.68719 0.34814 0.0
Mn361 Mn 0.04937 0.68587 0.34834 0.0
C362 C 0.03777 0.7021 0.36609 0.0
C363 C 0.9973 0.67892 0.35819 0.0
C364 C 0.0417 0.70015 0.32022 0.0
O365 O 0.01434 0.669 0.33572 0.0
O366 O 0.03402 0.66826 0.33923 0.0
C367 C 0.04208 0.66407 0.37486 0.0
N368 N 0.05085 0.677 0.36883 0.0
C369 C 0.06701 0.68121 0.39201 0.0
C370 C 0.05821 0.66789 0.39842 0.0
C371 C 0.04566 0.65931 0.38985 0.0
C372 C 0.06286 0.68539 0.37708 0.0
H373 H 0.03246 0.65745 0.36827 0.0
C374 C 0.02145 0.66292 0.33423 0.0
O375 O 0.00116 0.68509 0.34332 0.0
O376 O 0.00635 0.67726 0.36698 0.0
N377 N 0.06534 0.702 0.35678 0.0
C378 C 0.07233 0.71476 0.34935 0.0
C379 C 0.08519 0.72453 0.35616 0.0
C380 C 0.09074 0.72109 0.3705 0.0
C381 C 0.08326 0.708 0.37813 0.0
C382 C 0.07063 0.69858 0.37054 0.0
H383 H 0.06826 0.71737 0.33811 0.0
O384 O 0.02787 0.70457 0.36201 0.0
O385 O 0.0366 0.69059 0.36005 0.0
O386 O 0.03041 0.69818 0.32683 0.0
O387 O 0.0491 0.69546 0.32691 0.0
C388 C 0.08784 0.7039 0.39291 0.0
C389 C 0.07966 0.69056 0.39994 0.0
H390 H 0.06094 0.66417 0.40996 0.0
H391 H 0.03878 0.64904 0.39476 0.0
H392 H 0.0909 0.73459 0.35017 0.0
H393 H 0.10083 0.72851 0.37543 0.0
H394 H 0.09755 0.711 0.3991 0.0
H395 H 0.08318 0.6876 0.41146 0.0
Mn396 Mn 0.31909 0.33865 0.34357 0.0
Mn397 Mn 0.29043 0.30718 0.34243 0.0
C398 C 0.30258 0.33374 0.32241 0.0
C399 C 0.34189 0.35345 0.33593 0.0
C400 C 0.2944 0.32975 0.3676 0.0
O401 O 0.3244 0.32714 0.35899 0.0
O402 O 0.30502 0.30648 0.35664 0.0
C403 C 0.30173 0.29233 0.32253 0.0
N404 N 0.29204 0.29631 0.32445 0.0
C405 C 0.27975 0.28363 0.29902 0.0
C406 C 0.28955 0.27932 0.29682 0.0
C407 C 0.30062 0.28374 0.30859 0.0
C408 C 0.28143 0.29222 0.31312 0.0
H409 H 0.31022 0.29566 0.33159 0.0
C410 C 0.31727 0.31427 0.36247 0.0
O411 O 0.3365 0.35592 0.34935 0.0
O412 O 0.33417 0.34219 0.3273 0.0
N413 N 0.27534 0.30608 0.32916 0.0
C414 C 0.26714 0.31167 0.33269 0.0
C415 C 0.25577 0.30855 0.3219 0.0
C416 C 0.2528 0.29954 0.30779 0.0
C417 C 0.26129 0.29377 0.30455 0.0
C418 C 0.27249 0.29728 0.31573 0.0
H419 H 0.26929 0.3185 0.34363 0.0
O420 O 0.31132 0.34645 0.32648 0.0
O421 O 0.30388 0.32417 0.33063 0.0
O422 O 0.30631 0.33886 0.3624 0.0
O423 O 0.28767 0.31765 0.36103 0.0
C424 C 0.25916 0.28479 0.29056 0.0
C425 C 0.26845 0.27981 0.28772 0.0
H426 H 0.28872 0.27268 0.28609 0.0
H427 H 0.30825 0.2805 0.30694 0.0
H428 H 0.24926 0.31304 0.32449 0.0
H429 H 0.24402 0.29716 0.2995 0.0
H430 H 0.2505 0.28176 0.28179 0.0
H431 H 0.26682 0.27309 0.27677 0.0
Mn432 Mn 0.33205 0.02078 0.67289 0.0
Mn433 Mn 0.36192 0.05118 0.67271 0.0
C434 C 0.3343 0.03829 0.65449 0.0
C435 C 0.31885 0.99804 0.66321 0.0
C436 C 0.34021 0.04314 0.70055 0.0
O437 O 0.34537 0.01615 0.68552 0.0
O438 O 0.36503 0.03637 0.68246 0.0
C439 C 0.37714 0.0442 0.64707 0.0
N440 N 0.3723 0.05266 0.6525 0.0
C441 C 0.38321 0.06837 0.62886 0.0
C442 C 0.38838 0.05987 0.62303 0.0
C443 C 0.38528 0.0477 0.63213 0.0
C444 C 0.37512 0.06431 0.64377 0.0
H445 H 0.37483 0.03488 0.65409 0.0
C446 C 0.35838 0.02372 0.68735 0.0
O447 O 0.31629 0.00203 0.67783 0.0
O448 O 0.32921 0.00719 0.65439 0.0
N449 N 0.36078 0.06661 0.66362 0.0
C450 C 0.35449 0.07333 0.67055 0.0
C451 C 0.35669 0.08581 0.66315 0.0
C452 C 0.36534 0.09126 0.64874 0.0
C453 C 0.37148 0.08403 0.64163 0.0
C454 C 0.36915 0.0718 0.64979 0.0
H455 H 0.34806 0.06933 0.68182 0.0
O456 O 0.32224 0.02823 0.65863 0.0
O457 O 0.34485 0.03764 0.66088 0.0
O458 O 0.33133 0.03158 0.69398 0.0
O459 O 0.35201 0.05091 0.69388 0.0
C460 C 0.37986 0.08851 0.62683 0.0
C461 C 0.38563 0.08062 0.62036 0.0
H462 H 0.39466 0.06253 0.61152 0.0
H463 H 0.38919 0.04106 0.62768 0.0
H464 H 0.35191 0.09132 0.66872 0.0
H465 H 0.3673 0.10106 0.64333 0.0
H466 H 0.3818 0.09791 0.62021 0.0
H467 H 0.39189 0.08405 0.60882 0.0
Mn468 Mn 0.97939 0.31218 0.68121 0.0
Mn469 Mn 0.97885 0.28151 0.68271 0.0
C470 C 0.96409 0.29484 0.69916 0.0
C471 C 0.98828 0.33486 0.69099 0.0
C472 C 0.96624 0.28989 0.65327 0.0
O473 O 0.99748 0.31645 0.66986 0.0
O474 O 0.99691 0.29602 0.67366 0.0
C475 C 1.00002 0.28823 0.71001 0.0
N476 N 0.98692 0.28009 0.704 0.0
C477 C 0.98079 0.26573 0.72941 0.0
C478 C 0.99424 0.27391 0.73584 0.0
C479 C 0.00388 0.28523 0.72611 0.0
C480 C 0.97754 0.26922 0.71328 0.0
H481 H 0.00744 0.29696 0.7026 0.0
C482 C 0.0029 0.30867 0.66863 0.0
O483 O 0.98239 0.33106 0.67588 0.0
O484 O 0.98938 0.32561 0.7001 0.0
N485 N 0.96201 0.26654 0.69129 0.0
C486 C 0.94936 0.25995 0.68349 0.0
C487 C 0.93851 0.24843 0.69158 0.0
C488 C 0.94081 0.24373 0.70751 0.0
C489 C 0.95393 0.25063 0.71523 0.0
C490 C 0.96439 0.26195 0.70647 0.0
H491 H 0.94754 0.26346 0.67121 0.0
O492 O 0.96189 0.30484 0.69453 0.0
O493 O 0.97527 0.29541 0.69337 0.0
O494 O 0.96867 0.30148 0.65966 0.0
O495 O 0.96998 0.2819 0.66059 0.0
C496 C 0.95702 0.2468 0.73136 0.0
C497 C 0.97043 0.25438 0.73848 0.0
H498 H 0.99726 0.27166 0.74827 0.0
H499 H 0.01427 0.29163 0.73102 0.0
H500 H 0.92841 0.24316 0.68554 0.0
H501 H 0.93241 0.23483 0.71369 0.0
H502 H 0.94913 0.23814 0.7385 0.0
H503 H 0.97263 0.25144 0.75099 0.0
Mn504 Mn 0.68107 0.66212 0.67715 0.0
Mn505 Mn 0.71099 0.6924 0.68027 0.0
C506 C 0.69757 0.66458 0.69728 0.0
C507 C 0.6581 0.64804 0.68507 0.0
C508 C 0.70573 0.67092 0.65281 0.0
O509 O 0.67658 0.67532 0.66404 0.0
O510 O 0.69711 0.69473 0.66647 0.0
C511 C 0.7004 0.70719 0.70163 0.0
N512 N 0.70959 0.70262 0.69927 0.0
C513 C 0.7215 0.71335 0.72579 0.0
C514 C 0.71219 0.71822 0.72847 0.0
C515 C 0.70157 0.71509 0.71636 0.0
C516 C 0.71977 0.70546 0.71092 0.0
H517 H 0.69226 0.70487 0.69233 0.0
C518 C 0.68462 0.68813 0.66102 0.0
O519 O 0.66279 0.64598 0.6707 0.0
O520 O 0.66663 0.65847 0.69446 0.0
N521 N 0.72556 0.69215 0.69331 0.0
C522 C 0.73365 0.68661 0.68887 0.0
C523 C 0.74471 0.68873 0.6997 0.0
C524 C 0.74752 0.69673 0.71479 0.0
C525 C 0.73925 0.70258 0.7189 0.0
C526 C 0.72834 0.70007 0.70765 0.0
H527 H 0.73158 0.68052 0.67724 0.0
O528 O 0.6882 0.65239 0.69217 0.0
O529 O 0.69691 0.67508 0.69074 0.0
O530 O 0.69329 0.66241 0.65705 0.0
O531 O 0.7133 0.68232 0.66079 0.0
C532 C 0.74137 0.71075 0.73376 0.0
C533 C 0.73243 0.71604 0.73727 0.0
H534 H 0.71309 0.72436 0.73978 0.0
H535 H 0.69434 0.7188 0.71833 0.0
H536 H 0.75107 0.68421 0.69641 0.0
H537 H 0.75604 0.69831 0.72314 0.0
H538 H 0.7498 0.71298 0.74262 0.0
H539 H 0.73409 0.72218 0.74882 0.0
Mn540 Mn 0.33387 0.31676 0.6688 0.0
Mn541 Mn 0.36373 0.31583 0.66771 0.0
C542 C 0.33653 0.30267 0.64902 0.0
C543 C 0.32036 0.32648 0.66021 0.0
C544 C 0.34163 0.30053 0.69452 0.0
O545 O 0.34696 0.33391 0.68265 0.0
O546 O 0.36639 0.33258 0.68029 0.0
C547 C 0.37937 0.34033 0.64536 0.0
N548 N 0.37447 0.32663 0.64863 0.0
C549 C 0.38583 0.32426 0.6236 0.0
C550 C 0.39107 0.33837 0.62001 0.0
C551 C 0.38777 0.34642 0.63089 0.0
C552 C 0.37742 0.31875 0.63812 0.0
H553 H 0.37692 0.34657 0.65375 0.0
C554 C 0.35978 0.33858 0.68557 0.0
O555 O 0.31793 0.31944 0.67446 0.0
O556 O 0.33088 0.3282 0.65125 0.0
N557 N 0.36305 0.30037 0.6559 0.0
C558 C 0.35673 0.28682 0.6608 0.0
C559 C 0.35868 0.27729 0.651 0.0
C560 C 0.36734 0.28184 0.63652 0.0
C561 C 0.37394 0.29588 0.63192 0.0
C562 C 0.3715 0.30487 0.64208 0.0
H563 H 0.3502 0.2833 0.67204 0.0
O564 O 0.32434 0.30031 0.65332 0.0
O565 O 0.34691 0.31341 0.65614 0.0
O566 O 0.33322 0.30439 0.68897 0.0
O567 O 0.35328 0.30422 0.68753 0.0
C568 C 0.38276 0.30131 0.61759 0.0
C569 C 0.38858 0.31545 0.61333 0.0
H570 H 0.3976 0.34311 0.6089 0.0
H571 H 0.39173 0.3573 0.62818 0.0
H572 H 0.35358 0.26648 0.65465 0.0
H573 H 0.36883 0.27446 0.629 0.0
H574 H 0.38504 0.29467 0.60966 0.0
H575 H 0.39516 0.31944 0.60212 0.0
Mn576 Mn 0.68483 0.02241 0.67944 0.0
Mn577 Mn 0.71479 0.0217 0.67987 0.0
C578 C 0.70256 0.03696 0.69782 0.0
C579 C 0.6624 0.01394 0.68963 0.0
C580 C 0.70698 0.03577 0.65166 0.0
O581 O 0.67981 0.00431 0.667 0.0
O582 O 0.69983 0.00408 0.67009 0.0
C583 C 0.70758 0.99964 0.70597 0.0
N584 N 0.71605 0.01284 0.70051 0.0
C585 C 0.73073 0.0178 0.72557 0.0
C586 C 0.72221 0.00423 0.73142 0.0
C587 C 0.71057 0.99513 0.7216 0.0
C588 C 0.72722 0.0217 0.7099 0.0
H589 H 0.69861 0.99264 0.69846 0.0
C590 C 0.68722 0.99856 0.66506 0.0
O591 O 0.66615 0.02016 0.67477 0.0
O592 O 0.67153 0.01226 0.6982 0.0
N593 N 0.73022 0.03807 0.68898 0.0
C594 C 0.73715 0.05093 0.68177 0.0
C595 C 0.74905 0.06128 0.68999 0.0
C596 C 0.75378 0.05828 0.70544 0.0
C597 C 0.74653 0.04497 0.71258 0.0
C598 C 0.73483 0.03502 0.70369 0.0
H599 H 0.73364 0.05328 0.66982 0.0
O600 O 0.69284 0.03969 0.69372 0.0
O601 O 0.7015 0.02569 0.69128 0.0
O602 O 0.69558 0.0336 0.65818 0.0
O603 O 0.71457 0.03135 0.65849 0.0
C604 C 0.75037 0.04121 0.72824 0.0
C605 C 0.74244 0.02765 0.73477 0.0
H606 H 0.72446 0.00072 0.74349 0.0
H607 H 0.70392 0.98466 0.72607 0.0
H608 H 0.75458 0.07154 0.68443 0.0
H609 H 0.763 0.06628 0.71169 0.0
H610 H 0.75931 0.04871 0.73547 0.0
H611 H 0.7454 0.02493 0.74693 0.0
Mn612 Mn 0.98616 0.67237 0.67517 0.0
Mn613 Mn 0.95479 0.64364 0.67277 0.0
C614 C 0.97067 0.67053 0.65392 0.0
C615 C 0.0094 0.68478 0.66788 0.0
C616 C 0.96179 0.66659 0.69865 0.0
O617 O 0.98889 0.65867 0.68977 0.0
O618 O 0.96755 0.64024 0.68757 0.0
C619 C 0.96327 0.62623 0.65314 0.0
N620 N 0.95501 0.63199 0.65475 0.0
C621 C 0.94272 0.62106 0.6285 0.0
C622 C 0.95105 0.61494 0.62661 0.0
C623 C 0.96139 0.61757 0.63896 0.0
C624 C 0.94507 0.62959 0.6429 0.0
H625 H 0.97124 0.62823 0.66259 0.0
C626 C 0.97998 0.64619 0.69331 0.0
O627 O 0.00478 0.68776 0.68165 0.0
O628 O 1.00062 0.67426 0.65877 0.0
N629 N 0.94122 0.64507 0.65892 0.0
C630 C 0.93451 0.65229 0.66219 0.0
C631 C 0.92394 0.65093 0.65094 0.0
C632 C 0.92027 0.64206 0.63656 0.0
C633 C 0.92726 0.63468 0.63351 0.0
C634 C 0.93763 0.63636 0.64525 0.0
H635 H 0.93728 0.65912 0.67321 0.0
O636 O 0.98058 0.68256 0.65868 0.0
O637 O 0.9701 0.6598 0.66165 0.0
O638 O 0.97439 0.6741 0.6943 0.0
O639 O 0.95353 0.65513 0.69127 0.0
C640 C 0.92454 0.62594 0.61909 0.0
C641 C 0.9323 0.61918 0.61655 0.0
H642 H 0.94965 0.60827 0.61567 0.0
H643 H 0.96789 0.61292 0.63756 0.0
H644 H 0.91864 0.65672 0.65333 0.0
H645 H 0.91215 0.64108 0.62788 0.0
H646 H 0.91664 0.62451 0.60974 0.0
H647 H 0.93024 0.61263 0.60529 0.0
H648 H 0.15402 0.33669 0.18602 0.0
H649 H 0.13649 0.33704 0.20428 0.0
H650 H 0.10567 0.29844 0.18147 0.0
H651 H 0.12335 0.29836 0.16285 0.0
H652 H 0.16237 0.31744 0.18474 0.0
H653 H 0.14018 0.3353 0.14794 0.0
H654 H 0.12075 0.3349 0.13244 0.0
H655 H 0.11655 0.30091 0.1011 0.0
H656 H 0.1355 0.30073 0.11731 0.0
H657 H 0.17293 0.30327 0.1158 0.0
H658 H 0.19263 0.30574 0.0991 0.0
H659 H 0.22003 0.34107 0.13028 0.0
H660 H 0.20033 0.33889 0.14653 0.0
H661 H 0.16159 0.31871 0.12063 0.0
H662 H 0.18523 0.30202 0.15766 0.0
H663 H 0.20404 0.3025 0.17497 0.0
H664 H 0.20579 0.3356 0.20602 0.0
H665 H 0.18749 0.33556 0.18834 0.0
C666 C 0.14001 0.31751 0.17308 0.0
C667 C 0.14349 0.32828 0.18497 0.0
C668 C 0.13345 0.32842 0.19547 0.0
C669 C 0.11966 0.31769 0.19451 0.0
C670 C 0.11615 0.30693 0.18247 0.0
C671 C 0.12625 0.30683 0.17186 0.0
C672 C 0.15098 0.31755 0.16224 0.0
C673 C 0.16229 0.31784 0.17071 0.0
C674 C 0.15059 0.31766 0.14392 0.0
C675 C 0.13911 0.3178 0.13414 0.0
C676 C 0.13491 0.32753 0.13804 0.0
C677 C 0.12387 0.32737 0.12912 0.0
C678 C 0.11715 0.31779 0.11575 0.0
C679 C 0.12159 0.30835 0.11143 0.0
C680 C 0.13242 0.30828 0.12064 0.0
C681 C 0.18514 0.32072 0.13267 0.0
C682 C 0.18316 0.31163 0.11894 0.0
C683 C 0.19441 0.31303 0.10942 0.0
C684 C 0.20786 0.3235 0.11354 0.0
C685 C 0.2098 0.33276 0.12703 0.0
C686 C 0.19854 0.3315 0.13635 0.0
C687 C 0.17322 0.31893 0.14317 0.0
C688 C 0.16167 0.31821 0.13465 0.0
C689 C 0.17341 0.31853 0.16151 0.0
C690 C 0.18498 0.31883 0.17159 0.0
C691 C 0.18982 0.30955 0.16798 0.0
C692 C 0.20052 0.30979 0.17788 0.0
C693 C 0.20627 0.31905 0.19181 0.0
C694 C 0.20143 0.32829 0.19542 0.0
C695 C 0.19096 0.32824 0.18535 0.0
H696 H 0.70486 0.87133 0.17817 0.0
H697 H 0.70243 0.88787 0.19673 0.0
H698 H 0.6622 0.87486 0.17441 0.0
H699 H 0.66463 0.85829 0.15602 0.0
H700 H 0.68757 0.84277 0.17865 0.0
H701 H 0.70369 0.87933 0.13592 0.0
H702 H 0.70253 0.89752 0.11926 0.0
H703 H 0.66225 0.86734 0.09984 0.0
H704 H 0.66377 0.84921 0.11602 0.0
H705 H 0.66373 0.81252 0.11596 0.0
H706 H 0.662 0.79275 0.1 0.0
H707 H 0.70135 0.80099 0.12128 0.0
H708 H 0.70284 0.82058 0.13748 0.0
H709 H 0.68259 0.83989 0.11469 0.0
H710 H 0.66414 0.80472 0.15905 0.0
H711 H 0.66194 0.78663 0.17898 0.0
H712 H 0.70403 0.813 0.1962 0.0
H713 H 0.70584 0.83124 0.17679 0.0
C714 C 0.68497 0.86366 0.16566 0.0
C715 C 0.69559 0.87217 0.17715 0.0
C716 C 0.69423 0.88166 0.18766 0.0
C717 C 0.68211 0.88263 0.18701 0.0
C718 C 0.6716 0.87427 0.17525 0.0
C719 C 0.67303 0.86488 0.16465 0.0
C720 C 0.68586 0.85279 0.15559 0.0
C721 C 0.68683 0.84232 0.16463 0.0
C722 C 0.68443 0.85195 0.13738 0.0
C723 C 0.68381 0.86295 0.12718 0.0
C724 C 0.69464 0.87667 0.12801 0.0
C725 C 0.69393 0.88706 0.11855 0.0
C726 C 0.68231 0.88392 0.10815 0.0
C727 C 0.67148 0.87011 0.10739 0.0
C728 C 0.67228 0.85973 0.11671 0.0
C729 C 0.68336 0.81795 0.128 0.0
C730 C 0.67199 0.81007 0.11714 0.0
C731 C 0.67106 0.79881 0.10796 0.0
C732 C 0.68155 0.79527 0.10933 0.0
C733 C 0.69299 0.80328 0.12013 0.0
C734 C 0.69388 0.8145 0.12937 0.0
C735 C 0.68425 0.82984 0.13778 0.0
C736 C 0.68361 0.84048 0.12868 0.0
C737 C 0.68583 0.83076 0.15598 0.0
C738 C 0.68514 0.81929 0.1665 0.0
C739 C 0.67293 0.8065 0.16699 0.0
C740 C 0.67172 0.79614 0.17835 0.0
C741 C 0.68277 0.79835 0.18935 0.0
C742 C 0.6952 0.81102 0.18824 0.0
C743 C 0.69631 0.82144 0.17706 0.0
H744 H 0.13021 0.83631 0.18156 0.0
H745 H 0.11389 0.81816 0.20078 0.0
H746 H 0.1237 0.78884 0.17719 0.0
H747 H 0.14033 0.80711 0.15852 0.0
H748 H 0.15781 0.8463 0.18059 0.0
H749 H 0.1202 0.82487 0.13776 0.0
H750 H 0.10249 0.80538 0.12111 0.0
H751 H 0.13345 0.79558 0.10346 0.0
H752 H 0.15105 0.81534 0.11952 0.0
H753 H 0.18794 0.85076 0.12075 0.0
H754 H 0.20754 0.86773 0.10392 0.0
H755 H 0.19756 0.89942 0.11808 0.0
H756 H 0.17803 0.88238 0.13491 0.0
H757 H 0.15945 0.84304 0.11672 0.0
H758 H 0.19014 0.8532 0.17113 0.0
H759 H 0.20892 0.8694 0.18977 0.0
H760 H 0.19394 0.89862 0.18478 0.0
H761 H 0.17466 0.88184 0.16702 0.0
C762 C 0.13641 0.82306 0.16846 0.0
C763 C 0.12875 0.82594 0.18045 0.0
C764 C 0.11936 0.81552 0.19135 0.0
C765 C 0.1175 0.80204 0.19056 0.0
C766 C 0.12499 0.79914 0.17828 0.0
C767 C 0.13438 0.80955 0.16742 0.0
C768 C 0.14722 0.83435 0.15793 0.0
C769 C 0.15792 0.84575 0.16658 0.0
C770 C 0.14776 0.8334 0.13972 0.0
C771 C 0.13693 0.82156 0.12982 0.0
C772 C 0.12312 0.8185 0.13025 0.0
C773 C 0.11301 0.80731 0.1208 0.0
C774 C 0.11651 0.7989 0.11083 0.0
C775 C 0.13037 0.80198 0.11062 0.0
C776 C 0.14047 0.81324 0.11988 0.0
C777 C 0.18168 0.86537 0.1293 0.0
C778 C 0.19001 0.86138 0.12022 0.0
C779 C 0.20115 0.87107 0.11054 0.0
C780 C 0.20415 0.88495 0.10968 0.0
C781 C 0.1957 0.88888 0.1187 0.0
C782 C 0.18454 0.87917 0.12836 0.0
C783 C 0.1698 0.85502 0.13939 0.0
C784 C 0.15903 0.84377 0.13068 0.0
C785 C 0.16926 0.85596 0.15755 0.0
C786 C 0.18114 0.86641 0.16764 0.0
C787 C 0.19099 0.86315 0.17401 0.0
C788 C 0.2018 0.87251 0.18456 0.0
C789 C 0.20307 0.88543 0.18881 0.0
C790 C 0.19324 0.88873 0.18204 0.0
C791 C 0.18229 0.87923 0.17172 0.0
H792 H 0.28975 0.16667 0.83762 0.0
H793 H 0.29184 0.18519 0.81842 0.0
H794 H 0.33025 0.21377 0.84352 0.0
H795 H 0.32823 0.1952 0.86249 0.0
H796 H 0.30585 0.15569 0.83985 0.0
H797 H 0.29162 0.17916 0.87976 0.0
H798 H 0.29393 0.19962 0.89465 0.0
H799 H 0.33147 0.20559 0.91923 0.0
H800 H 0.32939 0.18547 0.90382 0.0
H801 H 0.3314 0.1505 0.90081 0.0
H802 H 0.33426 0.13294 0.91649 0.0
H803 H 0.29332 0.10179 0.90028 0.0
H804 H 0.29083 0.1194 0.88403 0.0
H805 H 0.31167 0.1591 0.90368 0.0
H806 H 0.32836 0.13945 0.86129 0.0
H807 H 0.32942 0.12209 0.84307 0.0
H808 H 0.28845 0.10954 0.8235 0.0
H809 H 0.28761 0.12719 0.84157 0.0
C810 C 0.30874 0.17954 0.85165 0.0
C811 C 0.29858 0.17694 0.83906 0.0
C812 C 0.2998 0.18752 0.82807 0.0
C813 C 0.31121 0.20093 0.82946 0.0
C814 C 0.32124 0.20359 0.84229 0.0
C815 C 0.32008 0.19298 0.85318 0.0
C816 C 0.30799 0.16803 0.86237 0.0
C817 C 0.30677 0.15631 0.85385 0.0
C818 C 0.30957 0.16897 0.88063 0.0
C819 C 0.31043 0.18087 0.89048 0.0
C820 C 0.30038 0.18491 0.88831 0.0
C821 C 0.30163 0.19654 0.89697 0.0
C822 C 0.31293 0.20431 0.90805 0.0
C823 C 0.32276 0.19999 0.91057 0.0
C824 C 0.32152 0.18839 0.90189 0.0
C825 C 0.31093 0.13625 0.89124 0.0
C826 C 0.32303 0.13989 0.90072 0.0
C827 C 0.32461 0.12982 0.90976 0.0
C828 C 0.31401 0.11589 0.90974 0.0
C829 C 0.3018 0.11233 0.90038 0.0
C830 C 0.30031 0.1224 0.89118 0.0
C831 C 0.30962 0.14691 0.88107 0.0
C832 C 0.31044 0.15841 0.88971 0.0
C833 C 0.30772 0.14583 0.86292 0.0
C834 C 0.30787 0.13454 0.85287 0.0
C835 C 0.31952 0.1328 0.85329 0.0
C836 C 0.32008 0.12282 0.84288 0.0
C837 C 0.30901 0.11438 0.8318 0.0
C838 C 0.29723 0.11597 0.8317 0.0
C839 C 0.2967 0.12601 0.84207 0.0
H840 H 0.82156 0.1208 0.86132 0.0
H841 H 0.80386 0.10467 0.84117 0.0
H842 H 0.79502 0.13704 0.82573 0.0
H843 H 0.81309 0.15312 0.84527 0.0
H844 H 0.84111 0.15975 0.84272 0.0
H845 H 0.83206 0.13059 0.90798 0.0
H846 H 0.81318 0.11263 0.92485 0.0
H847 H 0.78434 0.12191 0.89853 0.0
H848 H 0.80324 0.14008 0.88205 0.0
H849 H 0.85154 0.18514 0.90907 0.0
H850 H 0.87043 0.20388 0.92513 0.0
H851 H 0.89955 0.19538 0.89879 0.0
H852 H 0.88053 0.17676 0.88253 0.0
H853 H 0.84223 0.15751 0.90677 0.0
H854 H 0.86302 0.19746 0.86905 0.0
H855 H 0.88029 0.21583 0.85099 0.0
H856 H 0.88392 0.18508 0.82072 0.0
H857 H 0.86728 0.16692 0.83941 0.0
C858 C 0.81865 0.13814 0.85469 0.0
C859 C 0.81569 0.12432 0.85367 0.0
C860 C 0.80552 0.11512 0.8422 0.0
C861 C 0.79808 0.11957 0.83163 0.0
C862 C 0.80075 0.13331 0.83329 0.0
C863 C 0.81101 0.14251 0.84456 0.0
C864 C 0.83032 0.14838 0.86535 0.0
C865 C 0.84143 0.15922 0.85674 0.0
C866 C 0.83061 0.14763 0.88361 0.0
C867 C 0.81906 0.13655 0.89351 0.0
C868 C 0.82167 0.12878 0.90586 0.0
C869 C 0.8109 0.11854 0.91551 0.0
C870 C 0.79729 0.11583 0.91291 0.0
C871 C 0.79469 0.12362 0.90059 0.0
C872 C 0.80549 0.13397 0.8911 0.0
C873 C 0.86463 0.17963 0.89452 0.0
C874 C 0.86198 0.18723 0.90689 0.0
C875 C 0.87281 0.19791 0.91611 0.0
C876 C 0.88653 0.20116 0.91326 0.0
C877 C 0.88913 0.1933 0.90113 0.0
C878 C 0.87828 0.18262 0.89186 0.0
C879 C 0.8531 0.16887 0.88411 0.0
C880 C 0.84203 0.15792 0.89275 0.0
C881 C 0.85282 0.16947 0.86583 0.0
C882 C 0.86395 0.18081 0.85571 0.0
C883 C 0.86779 0.19472 0.85879 0.0
C884 C 0.87755 0.2052 0.84829 0.0
C885 C 0.88351 0.20196 0.83434 0.0
C886 C 0.87976 0.18802 0.83149 0.0
C887 C 0.87013 0.17758 0.84208 0.0
H888 H 0.81186 0.65837 0.83939 0.0
H889 H 0.79319 0.65608 0.82055 0.0
H890 H 0.79972 0.69581 0.83833 0.0
H891 H 0.81808 0.69771 0.85775 0.0
H892 H 0.83919 0.67955 0.83827 0.0
H893 H 0.80091 0.66061 0.87603 0.0
H894 H 0.78128 0.65927 0.89158 0.0
H895 H 0.80881 0.69562 0.92103 0.0
H896 H 0.82846 0.69753 0.90469 0.0
H897 H 0.86584 0.69984 0.90589 0.0
H898 H 0.88446 0.69996 0.92323 0.0
H899 H 0.87987 0.66451 0.89475 0.0
H900 H 0.861 0.66407 0.87794 0.0
H901 H 0.83964 0.68207 0.90234 0.0
H902 H 0.87761 0.70196 0.86095 0.0
H903 H 0.89595 0.70363 0.84209 0.0
H904 H 0.86784 0.66323 0.82096 0.0
H905 H 0.84957 0.66186 0.8394 0.0
C906 C 0.81634 0.67821 0.84994 0.0
C907 C 0.80921 0.66655 0.83928 0.0
C908 C 0.79859 0.66531 0.82842 0.0
C909 C 0.79502 0.67583 0.82773 0.0
C910 C 0.80208 0.68744 0.83864 0.0
C911 C 0.81262 0.68859 0.84969 0.0
C912 C 0.828 0.67961 0.86076 0.0
C913 C 0.83926 0.68003 0.8523 0.0
C914 C 0.82814 0.68049 0.87904 0.0
C915 C 0.81619 0.67941 0.8888 0.0
C916 C 0.80276 0.66854 0.88548 0.0
C917 C 0.79154 0.66769 0.89445 0.0
C918 C 0.79359 0.67741 0.90734 0.0
C919 C 0.80702 0.68804 0.91108 0.0
C920 C 0.81822 0.6891 0.90179 0.0
C921 C 0.86219 0.68214 0.89032 0.0
C922 C 0.8688 0.69206 0.90342 0.0
C923 C 0.87942 0.69213 0.91332 0.0
C924 C 0.88368 0.68234 0.91017 0.0
C925 C 0.87696 0.67233 0.89721 0.0
C926 C 0.86622 0.67213 0.88754 0.0
C927 C 0.85088 0.682 0.87981 0.0
C928 C 0.83967 0.68181 0.88831 0.0
C929 C 0.85069 0.68125 0.86152 0.0
C930 C 0.86223 0.68182 0.85148 0.0
C931 C 0.87549 0.69343 0.85236 0.0
C932 C 0.88596 0.69434 0.84161 0.0
C933 C 0.88332 0.68364 0.82984 0.0
C934 C 0.87015 0.67181 0.82955 0.0
C935 C 0.8597 0.67096 0.84015 0.0
H936 H 0.81951 0.66883 0.51434 0.0
H937 H 0.80225 0.66962 0.53266 0.0
H938 H 0.77176 0.62917 0.51393 0.0
H939 H 0.7891 0.62878 0.49501 0.0
H940 H 0.82857 0.6497 0.51496 0.0
H941 H 0.80868 0.668 0.47589 0.0
H942 H 0.79045 0.66949 0.45995 0.0
H943 H 0.77914 0.63058 0.43472 0.0
H944 H 0.79729 0.62899 0.45113 0.0
H945 H 0.83861 0.6323 0.44802 0.0
H946 H 0.85824 0.63557 0.43059 0.0
H947 H 0.88423 0.67417 0.45719 0.0
H948 H 0.8645 0.67111 0.47396 0.0
H949 H 0.82582 0.64773 0.45085 0.0
H950 H 0.8521 0.63449 0.48903 0.0
H951 H 0.87228 0.63749 0.50541 0.0
H952 H 0.87295 0.6715 0.53347 0.0
H953 H 0.85349 0.66903 0.51633 0.0
C954 C 0.8056 0.64874 0.50337 0.0
C955 C 0.8091 0.66014 0.51417 0.0
C956 C 0.7992 0.66051 0.52474 0.0
C957 C 0.78559 0.64936 0.52502 0.0
C958 C 0.78207 0.63799 0.51398 0.0
C959 C 0.79199 0.63771 0.50321 0.0
C960 C 0.81639 0.6484 0.4926 0.0
C961 C 0.82803 0.64932 0.50093 0.0
C962 C 0.81552 0.64769 0.47434 0.0
C963 C 0.80423 0.64831 0.46484 0.0
C964 C 0.80216 0.6597 0.4671 0.0
C965 C 0.79182 0.6606 0.45786 0.0
C966 C 0.78338 0.65017 0.44604 0.0
C967 C 0.7854 0.6387 0.44386 0.0
C968 C 0.7958 0.63783 0.45312 0.0
C969 C 0.85011 0.65136 0.46248 0.0
C970 C 0.84853 0.6415 0.45 0.0
C971 C 0.85979 0.64333 0.44015 0.0
C972 C 0.87286 0.6551 0.44252 0.0
C973 C 0.87432 0.66505 0.45486 0.0
C974 C 0.86306 0.66324 0.46463 0.0
C975 C 0.83825 0.64932 0.47321 0.0
C976 C 0.82632 0.64784 0.46488 0.0
C977 C 0.83905 0.64995 0.49154 0.0
C978 C 0.85132 0.65161 0.50133 0.0
C979 C 0.85676 0.64274 0.49851 0.0
C980 C 0.86822 0.64437 0.50803 0.0
C981 C 0.87433 0.65478 0.52075 0.0
C982 C 0.86877 0.66357 0.52355 0.0
C983 C 0.85747 0.66204 0.51391 0.0
H984 H 0.37088 0.20299 0.51397 0.0
H985 H 0.36917 0.21988 0.53251 0.0
H986 H 0.33072 0.21053 0.50728 0.0
H987 H 0.33277 0.19397 0.4885 0.0
H988 H 0.35158 0.17436 0.51078 0.0
H989 H 0.37231 0.21542 0.47468 0.0
H990 H 0.37142 0.23516 0.46181 0.0
H991 H 0.33497 0.20699 0.43276 0.0
H992 H 0.33567 0.18734 0.44606 0.0
H993 H 0.33629 0.15334 0.44022 0.0
H994 H 0.33511 0.1347 0.42248 0.0
H995 H 0.36585 0.13294 0.45539 0.0
H996 H 0.36792 0.15247 0.47196 0.0
H997 H 0.35393 0.17811 0.44676 0.0
H998 H 0.33002 0.1382 0.48355 0.0
H999 H 0.32559 0.11761 0.50028 0.0
H1000 H 0.36377 0.14182 0.52844 0.0
H1001 H 0.36819 0.16229 0.5116 0.0
C1002 C 0.35201 0.19732 0.49981 0.0
C1003 C 0.36212 0.20464 0.51243 0.0
C1004 C 0.36107 0.21424 0.52307 0.0
C1005 C 0.34977 0.21657 0.52145 0.0
C1006 C 0.33967 0.20919 0.50873 0.0
C1007 C 0.34078 0.19967 0.49802 0.0
C1008 C 0.35298 0.18692 0.48881 0.0
C1009 C 0.35236 0.17528 0.4968 0.0
C1010 C 0.35354 0.18794 0.47056 0.0
C1011 C 0.35394 0.19992 0.46149 0.0
C1012 C 0.36415 0.21352 0.4655 0.0
C1013 C 0.3637 0.22478 0.45804 0.0
C1014 C 0.35305 0.22262 0.44641 0.0
C1015 C 0.34316 0.20898 0.44191 0.0
C1016 C 0.34362 0.19774 0.44937 0.0
C1017 C 0.35202 0.1542 0.45768 0.0
C1018 C 0.34294 0.14909 0.44345 0.0
C1019 C 0.34213 0.13825 0.43344 0.0
C1020 C 0.35023 0.13208 0.43755 0.0
C1021 C 0.35953 0.13744 0.45161 0.0
C1022 C 0.36055 0.1485 0.46137 0.0
C1023 C 0.3524 0.16536 0.46871 0.0
C1024 C 0.35332 0.1772 0.46075 0.0
C1025 C 0.35176 0.16437 0.487 0.0
C1026 C 0.34946 0.15173 0.4963 0.0
C1027 C 0.33751 0.139 0.49317 0.0
C1028 C 0.33496 0.12728 0.50277 0.0
C1029 C 0.34436 0.12811 0.51561 0.0
C1030 C 0.35645 0.14082 0.51846 0.0
C1031 C 0.35893 0.15254 0.50896 0.0
H1032 H 0.7964 0.17047 0.51216 0.0
H1033 H 0.78011 0.15236 0.53142 0.0
H1034 H 0.78817 0.12248 0.50592 0.0
H1035 H 0.80481 0.14073 0.4872 0.0
H1036 H 0.82355 0.17983 0.51007 0.0
H1037 H 0.78507 0.15894 0.46923 0.0
H1038 H 0.76673 0.13968 0.45293 0.0
H1039 H 0.79698 0.13058 0.43106 0.0
H1040 H 0.81518 0.14999 0.447 0.0
H1041 H 0.85081 0.18516 0.44536 0.0
H1042 H 0.87066 0.20276 0.42959 0.0
H1043 H 0.86442 0.2347 0.45259 0.0
H1044 H 0.84471 0.21702 0.46853 0.0
H1045 H 0.82387 0.17739 0.44601 0.0
H1046 H 0.86164 0.19596 0.48537 0.0
H1047 H 0.88108 0.21296 0.50255 0.0
H1048 H 0.85378 0.22376 0.52934 0.0
H1049 H 0.8345 0.20721 0.51147 0.0
C1050 C 0.80175 0.15696 0.49811 0.0
C1051 C 0.79458 0.15999 0.51065 0.0
C1052 C 0.78519 0.1496 0.52158 0.0
C1053 C 0.78283 0.13595 0.52025 0.0
C1054 C 0.78985 0.1329 0.50744 0.0
C1055 C 0.79925 0.1433 0.49656 0.0
C1056 C 0.81252 0.16823 0.48747 0.0
C1057 C 0.82345 0.17947 0.49604 0.0
C1058 C 0.81269 0.16748 0.46919 0.0
C1059 C 0.80149 0.15589 0.45932 0.0
C1060 C 0.78771 0.15278 0.4609 0.0
C1061 C 0.77723 0.14173 0.45161 0.0
C1062 C 0.78036 0.1336 0.44059 0.0
C1063 C 0.7942 0.13678 0.43911 0.0
C1064 C 0.80464 0.14785 0.44829 0.0
C1065 C 0.84634 0.19977 0.45825 0.0
C1066 C 0.85365 0.19594 0.44688 0.0
C1067 C 0.86498 0.20604 0.43782 0.0
C1068 C 0.8692 0.22018 0.43985 0.0
C1069 C 0.86163 0.22394 0.45094 0.0
C1070 C 0.85031 0.21384 0.46002 0.0
C1071 C 0.83484 0.18905 0.46862 0.0
C1072 C 0.82383 0.17791 0.46002 0.0
C1073 C 0.83471 0.18975 0.48691 0.0
C1074 C 0.84662 0.20043 0.49696 0.0
C1075 C 0.85989 0.20219 0.49469 0.0
C1076 C 0.87098 0.2118 0.50469 0.0
C1077 C 0.86901 0.21972 0.51737 0.0
C1078 C 0.85572 0.218 0.51952 0.0
C1079 C 0.84465 0.20844 0.50943 0.0
H1080 H 0.96398 0.50359 0.16837 0.0
H1081 H 0.9666 0.52276 0.15006 0.0
H1082 H 0.00544 0.54989 0.17541 0.0
H1083 H 0.00298 0.53058 0.19322 0.0
H1084 H 0.98092 0.49249 0.16907 0.0
H1085 H 0.96483 0.51349 0.21238 0.0
H1086 H 0.96704 0.53309 0.22928 0.0
H1087 H 0.00686 0.54074 0.24816 0.0
H1088 H 0.00422 0.52079 0.23187 0.0
H1089 H 0.00152 0.48273 0.23277 0.0
H1090 H 0.00195 0.46369 0.24811 0.0
H1091 H 0.96259 0.43492 0.22504 0.0
H1092 H 0.96251 0.45404 0.20928 0.0
H1093 H 0.98374 0.49284 0.23318 0.0
H1094 H 1.0003 0.47235 0.19376 0.0
H1095 H 0.00163 0.455 0.17602 0.0
H1096 H 0.96618 0.44958 0.14639 0.0
H1097 H 0.96429 0.46622 0.16513 0.0
C1098 C 0.98321 0.51567 0.18228 0.0
C1099 C 0.973 0.5137 0.17007 0.0
C1100 C 0.97447 0.5247 0.1597 0.0
C1101 C 0.98623 0.53786 0.16127 0.0
C1102 C 0.99631 0.53986 0.17376 0.0
C1103 C 0.99484 0.52886 0.1841 0.0
C1104 C 0.98216 0.50373 0.19227 0.0
C1105 C 0.98117 0.49236 0.1831 0.0
C1106 C 0.98317 0.50393 0.21053 0.0
C1107 C 0.98435 0.51569 0.2209 0.0
C1108 C 0.97399 0.51938 0.22025 0.0
C1109 C 0.97533 0.53067 0.22984 0.0
C1110 C 0.98713 0.53857 0.24016 0.0
C1111 C 0.99749 0.53478 0.24071 0.0
C1112 C 0.99605 0.5234 0.23131 0.0
C1113 C 0.98202 0.4698 0.21984 0.0
C1114 C 0.99295 0.47232 0.23111 0.0
C1115 C 0.99314 0.4614 0.23993 0.0
C1116 C 0.98228 0.44771 0.23789 0.0
C1117 C 0.97123 0.44526 0.22674 0.0
C1118 C 0.97112 0.45619 0.21779 0.0
C1119 C 0.9822 0.4814 0.20998 0.0
C1120 C 0.98315 0.49275 0.21916 0.0
C1121 C 0.98143 0.4813 0.19166 0.0
C1122 C 0.98202 0.47043 0.18105 0.0
C1123 C 0.99258 0.46717 0.18375 0.0
C1124 C 0.99348 0.45739 0.17334 0.0
C1125 C 0.98406 0.45088 0.15964 0.0
C1126 C 0.97349 0.45418 0.15695 0.0
C1127 C 0.97247 0.46382 0.16757 0.0
H1128 H 0.49764 0.46612 0.18052 0.0
H1129 H 0.47982 0.44867 0.16191 0.0
H1130 H 0.45255 0.46464 0.17481 0.0
H1131 H 0.47028 0.48156 0.19422 0.0
H1132 H 0.50861 0.49563 0.17687 0.0
H1133 H 0.48413 0.45855 0.21635 0.0
H1134 H 0.46441 0.4412 0.23223 0.0
H1135 H 0.4612 0.47377 0.25878 0.0
H1136 H 0.48012 0.491 0.24162 0.0
H1137 H 0.51555 0.52632 0.2392 0.0
H1138 H 0.5338 0.54525 0.25598 0.0
H1139 H 0.56333 0.53399 0.23707 0.0
H1140 H 0.54498 0.51499 0.22035 0.0
H1141 H 0.5056 0.49839 0.24058 0.0
H1142 H 0.52843 0.53523 0.20047 0.0
H1143 H 0.54632 0.55293 0.1825 0.0
H1144 H 0.55182 0.52135 0.15699 0.0
H1145 H 0.53463 0.50387 0.17589 0.0
C1146 C 0.48525 0.47508 0.18874 0.0
C1147 C 0.48777 0.46575 0.17942 0.0
C1148 C 0.47757 0.45586 0.16865 0.0
C1149 C 0.46472 0.45529 0.1666 0.0
C1150 C 0.46221 0.4646 0.17618 0.0
C1151 C 0.47235 0.47435 0.18721 0.0
C1152 C 0.4964 0.48599 0.19938 0.0
C1153 C 0.50809 0.49614 0.19085 0.0
C1154 C 0.4954 0.48679 0.21754 0.0
C1155 C 0.48346 0.47613 0.22743 0.0
C1156 C 0.47896 0.46196 0.22524 0.0
C1157 C 0.4678 0.45202 0.23465 0.0
C1158 C 0.46111 0.456 0.24687 0.0
C1159 C 0.46583 0.47023 0.24926 0.0
C1160 C 0.47681 0.48015 0.23957 0.0
C1161 C 0.52893 0.51931 0.22845 0.0
C1162 C 0.52594 0.52789 0.23873 0.0
C1163 C 0.53639 0.53875 0.2482 0.0
C1164 C 0.54999 0.54112 0.24777 0.0
C1165 C 0.55292 0.53236 0.23772 0.0
C1166 C 0.54248 0.52157 0.2281 0.0
C1167 C 0.51784 0.50806 0.21805 0.0
C1168 C 0.50616 0.49786 0.22662 0.0
C1169 C 0.51877 0.50726 0.19987 0.0
C1170 C 0.53028 0.5182 0.18974 0.0
C1171 C 0.53376 0.53216 0.19137 0.0
C1172 C 0.54387 0.54227 0.18085 0.0
C1173 C 0.55051 0.53861 0.16818 0.0
C1174 C 0.54712 0.52464 0.16676 0.0
C1175 C 0.53716 0.51457 0.17745 0.0
H1176 H 0.53481 0.03217 0.1724 0.0
H1177 H 0.55203 0.03103 0.15416 0.0
H1178 H 0.5432 0.99238 0.17839 0.0
H1179 H 0.52564 0.99334 0.19613 0.0
H1180 H 0.50779 0.01454 0.17238 0.0
H1181 H 0.54426 0.03065 0.21473 0.0
H1182 H 0.56248 0.02958 0.23136 0.0
H1183 H 0.53222 0.99055 0.25337 0.0
H1184 H 0.51405 0.99177 0.23682 0.0
H1185 H 0.4771 0.99076 0.23396 0.0
H1186 H 0.45735 0.98903 0.2495 0.0
H1187 H 0.46643 0.02915 0.22975 0.0
H1188 H 0.48596 0.03056 0.21379 0.0
H1189 H 0.5046 0.00979 0.23624 0.0
H1190 H 0.46792 0.99431 0.19485 0.0
H1191 H 0.4501 0.99375 0.17556 0.0
H1192 H 0.48082 0.03032 0.14956 0.0
H1193 H 0.49855 0.03136 0.16942 0.0
C1194 C 0.52898 0.01289 0.18571 0.0
C1195 C 0.53665 0.0235 0.17385 0.0
C1196 C 0.54657 0.02289 0.16353 0.0
C1197 C 0.54899 0.01161 0.1648 0.0
C1198 C 0.54149 0.00114 0.17696 0.0
C1199 C 0.53155 0.00175 0.18725 0.0
C1200 C 0.51771 0.01305 0.19564 0.0
C1201 C 0.50722 0.01383 0.18639 0.0
C1202 C 0.51679 0.01162 0.21386 0.0
C1203 C 0.5278 0.01123 0.2244 0.0
C1204 C 0.54157 0.02185 0.22311 0.0
C1205 C 0.55198 0.0212 0.2326 0.0
C1206 C 0.54883 0.00995 0.24366 0.0
C1207 C 0.53499 0.99945 0.24515 0.0
C1208 C 0.52459 1.00011 0.23566 0.0
C1209 C 0.48296 0.01076 0.22268 0.0
C1210 C 0.47485 0.9992 0.23304 0.0
C1211 C 0.46358 0.99827 0.24198 0.0
C1212 C 0.46028 0.00897 0.24096 0.0
C1213 C 0.46852 0.02061 0.23064 0.0
C1214 C 0.47974 0.02148 0.22158 0.0
C1215 C 0.49472 0.01148 0.21296 0.0
C1216 C 0.50526 0.01076 0.22226 0.0
C1217 C 0.49569 0.013 0.19473 0.0
C1218 C 0.48461 0.01302 0.18383 0.0
C1219 C 0.4708 0.00247 0.18539 0.0
C1220 C 0.46062 0.00209 0.17429 0.0
C1221 C 0.46414 0.01199 0.16113 0.0
C1222 C 0.4779 0.02255 0.15959 0.0
C1223 C 0.48801 0.02312 0.17092 0.0
H1224 H 0.48807 0.01241 0.84834 0.0
H1225 H 0.47036 0.01302 0.86592 0.0
H1226 H 0.43923 0.97606 0.84027 0.0
H1227 H 0.45718 0.97506 0.82341 0.0
H1228 H 0.49676 0.9948 0.84725 0.0
H1229 H 0.47764 0.01241 0.80495 0.0
H1230 H 0.45905 0.0127 0.78822 0.0
H1231 H 0.4479 0.97251 0.767 0.0
H1232 H 0.46649 0.97222 0.78397 0.0
H1233 H 0.50637 0.97522 0.7817 0.0
H1234 H 0.52551 0.97686 0.76471 0.0
H1235 H 0.55337 0.01495 0.79114 0.0
H1236 H 0.53408 0.01361 0.80739 0.0
H1237 H 0.49508 0.99127 0.78324 0.0
H1238 H 0.51952 0.9778 0.82381 0.0
H1239 H 0.53818 0.97946 0.84254 0.0
H1240 H 0.54011 0.01483 0.86832 0.0
H1241 H 0.52191 0.01354 0.84923 0.0
C1242 C 0.474 0.99375 0.83443 0.0
C1243 C 0.47744 0.0044 0.84653 0.0
C1244 C 0.46724 0.00482 0.85645 0.0
C1245 C 0.4533 0.99465 0.85446 0.0
C1246 C 0.44985 0.984 0.84227 0.0
C1247 C 0.4601 0.98351 0.83245 0.0
C1248 C 0.48507 0.99328 0.82429 0.0
C1249 C 0.4965 0.99422 0.83323 0.0
C1250 C 0.48455 0.99211 0.80604 0.0
C1251 C 0.47335 0.99226 0.79576 0.0
C1252 C 0.47115 0.00364 0.79675 0.0
C1253 C 0.46059 0.00383 0.78712 0.0
C1254 C 0.45204 0.99262 0.77631 0.0
C1255 C 0.45425 0.98122 0.77535 0.0
C1256 C 0.4649 0.98108 0.78491 0.0
C1257 C 0.51878 0.99418 0.79601 0.0
C1258 C 0.51659 0.98396 0.78376 0.0
C1259 C 0.52759 0.98485 0.77416 0.0
C1260 C 0.54104 0.99601 0.77657 0.0
C1261 C 0.54316 0.0063 0.78876 0.0
C1262 C 0.53214 0.00545 0.79826 0.0
C1263 C 0.50705 0.99319 0.8062 0.0
C1264 C 0.4954 0.99183 0.79726 0.0
C1265 C 0.50756 0.99433 0.82449 0.0
C1266 C 0.51934 0.99559 0.83503 0.0
C1267 C 0.52416 0.9861 0.83323 0.0
C1268 C 0.53477 0.98702 0.84394 0.0
C1269 C 0.54048 0.99724 0.85686 0.0
C1270 C 0.53578 0.0068 0.85853 0.0
C1271 C 0.52537 0.00604 0.84765 0.0
H1272 H 0.0311 0.53456 0.84222 0.0
H1273 H 0.03054 0.55233 0.86021 0.0
H1274 H 0.98761 0.53641 0.84636 0.0
H1275 H 0.98858 0.51919 0.8277 0.0
H1276 H 0.01278 0.50479 0.84615 0.0
H1277 H 0.02734 0.54083 0.8041 0.0
H1278 H 0.02555 0.55955 0.78978 0.0
H1279 H 0.98542 0.52985 0.76958 0.0
H1280 H 0.98713 0.51119 0.7844 0.0
H1281 H 0.98743 0.47363 0.78395 0.0
H1282 H 0.98613 0.45404 0.76789 0.0
H1283 H 0.02633 0.46389 0.7878 0.0
H1284 H 0.02747 0.48332 0.80393 0.0
H1285 H 0.00547 0.50133 0.78248 0.0
H1286 H 0.9892 0.46657 0.82863 0.0
H1287 H 0.98868 0.44922 0.84862 0.0
H1288 H 0.0318 0.47641 0.8608 0.0
H1289 H 0.03191 0.49395 0.84151 0.0
C1290 C 0.00989 0.52561 0.83368 0.0
C1291 C 0.02163 0.53503 0.84298 0.0
C1292 C 0.02124 0.54512 0.85335 0.0
C1293 C 0.00898 0.54578 0.85494 0.0
C1294 C 0.99729 0.5364 0.84531 0.0
C1295 C 0.99778 0.52647 0.83472 0.0
C1296 C 0.01008 0.51448 0.82341 0.0
C1297 C 0.01143 0.50415 0.83219 0.0
C1298 C 0.008 0.51352 0.80529 0.0
C1299 C 0.0073 0.52465 0.79548 0.0
C1300 C 0.01816 0.53836 0.79659 0.0
C1301 C 0.01717 0.54903 0.78828 0.0
C1302 C 0.00532 0.54619 0.77861 0.0
C1303 C 0.9946 0.53239 0.77714 0.0
C1304 C 0.99561 0.52171 0.78546 0.0
C1305 C 0.00746 0.47982 0.7953 0.0
C1306 C 0.99597 0.47157 0.7848 0.0
C1307 C 0.99527 0.46042 0.77558 0.0
C1308 C 0.00611 0.45736 0.7766 0.0
C1309 C 0.0177 0.46579 0.78696 0.0
C1310 C 0.01837 0.47692 0.79618 0.0
C1311 C 0.00813 0.49154 0.80525 0.0
C1312 C 0.00692 0.502 0.79641 0.0
C1313 C 0.01035 0.49264 0.82336 0.0
C1314 C 0.01058 0.48151 0.83369 0.0
C1315 C 0.99855 0.46868 0.8355 0.0
C1316 C 0.99832 0.45875 0.84688 0.0
C1317 C 0.01017 0.46142 0.85652 0.0
C1318 C 0.02238 0.4741 0.85398 0.0
C1319 C 0.02252 0.4841 0.84284 0.0
H1320 H 0.46407 0.50317 0.84665 0.0
H1321 H 0.4477 0.48601 0.86682 0.0
H1322 H 0.45786 0.45571 0.84721 0.0
H1323 H 0.47462 0.47305 0.82776 0.0
H1324 H 0.49148 0.51351 0.84595 0.0
H1325 H 0.45446 0.48989 0.80266 0.0
H1326 H 0.43673 0.46931 0.78776 0.0
H1327 H 0.46724 0.45721 0.776 0.0
H1328 H 0.48493 0.47819 0.79003 0.0
H1329 H 0.52082 0.51563 0.78443 0.0
H1330 H 0.53953 0.5324 0.76624 0.0
H1331 H 0.52998 0.56413 0.78146 0.0
H1332 H 0.51125 0.5473 0.79968 0.0
H1333 H 0.49319 0.50642 0.78287 0.0
H1334 H 0.53037 0.52995 0.8221 0.0
H1335 H 0.54887 0.54785 0.83964 0.0
H1336 H 0.5197 0.55782 0.86278 0.0
H1337 H 0.50123 0.54012 0.84487 0.0
C1338 C 0.47047 0.48937 0.83553 0.0
C1339 C 0.4627 0.4928 0.84665 0.0
C1340 C 0.45327 0.48294 0.85808 0.0
C1341 C 0.45147 0.46947 0.85867 0.0
C1342 C 0.4591 0.46602 0.84727 0.0
C1343 C 0.46856 0.47589 0.83593 0.0
C1344 C 0.4812 0.5001 0.8243 0.0
C1345 C 0.49169 0.51217 0.83207 0.0
C1346 C 0.48178 0.49803 0.80635 0.0
C1347 C 0.47099 0.48556 0.79737 0.0
C1348 C 0.45728 0.4828 0.79676 0.0
C1349 C 0.44714 0.47095 0.78835 0.0
C1350 C 0.45048 0.46151 0.78058 0.0
C1351 C 0.46426 0.46433 0.78141 0.0
C1352 C 0.47442 0.4763 0.78954 0.0
C1353 C 0.51469 0.53023 0.79346 0.0
C1354 C 0.52274 0.52619 0.78383 0.0
C1355 C 0.53347 0.53579 0.77354 0.0
C1356 C 0.53621 0.54957 0.77247 0.0
C1357 C 0.52803 0.55356 0.78196 0.0
C1358 C 0.5174 0.54399 0.79244 0.0
C1359 C 0.5034 0.52 0.80448 0.0
C1360 C 0.49286 0.50798 0.79668 0.0
C1361 C 0.50291 0.52207 0.82248 0.0
C1362 C 0.51439 0.53377 0.83196 0.0
C1363 C 0.52799 0.53624 0.83056 0.0
C1364 C 0.53857 0.54645 0.84065 0.0
C1365 C 0.53571 0.55421 0.85259 0.0
C1366 C 0.52216 0.55191 0.85378 0.0
C1367 C 0.51162 0.54182 0.84354 0.0
H1368 H 0.62673 0.83526 0.50578 0.0
H1369 H 0.6305 0.85471 0.48724 0.0
H1370 H 0.6683 0.88113 0.5151 0.0
H1371 H 0.66474 0.86152 0.53309 0.0
H1372 H 0.64277 0.82355 0.50822 0.0
H1373 H 0.62755 0.84688 0.54745 0.0
H1374 H 0.63059 0.86754 0.56257 0.0
H1375 H 0.66549 0.86988 0.59045 0.0
H1376 H 0.66281 0.84968 0.5747 0.0
H1377 H 0.6625 0.8161 0.57401 0.0
H1378 H 0.66512 0.79838 0.58949 0.0
H1379 H 0.62953 0.76655 0.56236 0.0
H1380 H 0.62648 0.78442 0.54765 0.0
H1381 H 0.64421 0.82389 0.57238 0.0
H1382 H 0.66241 0.80418 0.53236 0.0
H1383 H 0.66385 0.78697 0.5141 0.0
H1384 H 0.62681 0.77965 0.48697 0.0
H1385 H 0.62518 0.79662 0.50555 0.0
C1386 C 0.64538 0.84695 0.52092 0.0
C1387 C 0.63578 0.84527 0.50794 0.0
C1388 C 0.6379 0.85643 0.49745 0.0
C1389 C 0.64971 0.86949 0.49969 0.0
C1390 C 0.65918 0.87119 0.51291 0.0
C1391 C 0.65708 0.86002 0.52335 0.0
C1392 C 0.64363 0.83486 0.5312 0.0
C1393 C 0.64275 0.82346 0.52227 0.0
C1394 C 0.64405 0.83499 0.54953 0.0
C1395 C 0.64507 0.84682 0.55973 0.0
C1396 C 0.63589 0.85188 0.55678 0.0
C1397 C 0.63756 0.86363 0.56557 0.0
C1398 C 0.64837 0.87047 0.57763 0.0
C1399 C 0.65723 0.86506 0.581 0.0
C1400 C 0.65561 0.85339 0.57214 0.0
C1401 C 0.64439 0.80163 0.55948 0.0
C1402 C 0.65512 0.80531 0.57158 0.0
C1403 C 0.65671 0.79513 0.58026 0.0
C1404 C 0.64768 0.781 0.57698 0.0
C1405 C 0.63665 0.77731 0.56528 0.0
C1406 C 0.63497 0.78753 0.55671 0.0
C1407 C 0.64354 0.81262 0.54938 0.0
C1408 C 0.64392 0.82382 0.55834 0.0
C1409 C 0.64295 0.81245 0.53104 0.0
C1410 C 0.64356 0.80156 0.52053 0.0
C1411 C 0.65442 0.79866 0.52275 0.0
C1412 C 0.65525 0.78884 0.51229 0.0
C1413 C 0.64542 0.78196 0.49915 0.0
C1414 C 0.63456 0.78486 0.49694 0.0
C1415 C 0.63363 0.79454 0.50755 0.0
H1416 H 0.16524 0.79575 0.51459 0.0
H1417 H 0.14711 0.77911 0.4955 0.0
H1418 H 0.12114 0.79639 0.5094 0.0
H1419 H 0.1391 0.81244 0.52921 0.0
H1420 H 0.17646 0.82575 0.51055 0.0
H1421 H 0.15447 0.78909 0.55183 0.0
H1422 H 0.13511 0.77153 0.56832 0.0
H1423 H 0.12941 0.80361 0.59193 0.0
H1424 H 0.1484 0.82105 0.57482 0.0
H1425 H 0.18394 0.85626 0.57323 0.0
H1426 H 0.20217 0.87595 0.58896 0.0
H1427 H 0.23248 0.8667 0.56775 0.0
H1428 H 0.21413 0.84683 0.55223 0.0
H1429 H 0.17492 0.82893 0.5744 0.0
H1430 H 0.1966 0.86569 0.53386 0.0
H1431 H 0.21378 0.8834 0.51493 0.0
H1432 H 0.21878 0.85202 0.48842 0.0
H1433 H 0.20217 0.83437 0.50795 0.0
C1434 C 0.15347 0.80527 0.52329 0.0
C1435 C 0.15553 0.79576 0.51369 0.0
C1436 C 0.14518 0.78635 0.50265 0.0
C1437 C 0.13267 0.78649 0.50063 0.0
C1438 C 0.13053 0.79582 0.51071 0.0
C1439 C 0.14081 0.80507 0.52199 0.0
C1440 C 0.16496 0.81615 0.53353 0.0
C1441 C 0.17633 0.82635 0.52456 0.0
C1442 C 0.1644 0.81706 0.5517 0.0
C1443 C 0.15276 0.80638 0.56188 0.0
C1444 C 0.14893 0.79233 0.56038 0.0
C1445 C 0.13797 0.78231 0.57001 0.0
C1446 C 0.13068 0.78615 0.58144 0.0
C1447 C 0.13466 0.80026 0.58306 0.0
C1448 C 0.14559 0.81027 0.57339 0.0
C1449 C 0.19769 0.85015 0.56145 0.0
C1450 C 0.1945 0.8584 0.57208 0.0
C1451 C 0.20493 0.86971 0.58094 0.0
C1452 C 0.21876 0.87292 0.57948 0.0
C1453 C 0.22191 0.86443 0.56919 0.0
C1454 C 0.21146 0.85315 0.56024 0.0
C1455 C 0.18659 0.8386 0.55144 0.0
C1456 C 0.17523 0.8283 0.56042 0.0
C1457 C 0.18711 0.83767 0.5332 0.0
C1458 C 0.19821 0.84866 0.52257 0.0
C1459 C 0.20169 0.86263 0.52437 0.0
C1460 C 0.21143 0.87275 0.51348 0.0
C1461 C 0.21754 0.86901 0.50028 0.0
C1462 C 0.21415 0.85511 0.49851 0.0
C1463 C 0.20466 0.84504 0.50963 0.0
H1464 H 0.148 0.32799 0.50594 0.0
H1465 H 0.12909 0.32525 0.48713 0.0
H1466 H 0.13084 0.3615 0.51027 0.0
H1467 H 0.14971 0.3641 0.5292 0.0
H1468 H 0.174 0.34912 0.50746 0.0
H1469 H 0.13575 0.32634 0.54722 0.0
H1470 H 0.11569 0.32358 0.56323 0.0
H1471 H 0.14078 0.3637 0.58686 0.0
H1472 H 0.16079 0.36646 0.57064 0.0
H1473 H 0.21225 0.36987 0.549 0.0
H1474 H 0.23093 0.36972 0.56574 0.0
H1475 H 0.20143 0.33139 0.59001 0.0
H1476 H 0.18286 0.33171 0.5734 0.0
H1477 H 0.17299 0.34948 0.57162 0.0
H1478 H 0.20174 0.36978 0.5078 0.0
H1479 H 0.21927 0.36926 0.48945 0.0
H1480 H 0.21169 0.33099 0.51363 0.0
H1481 H 0.19404 0.3315 0.53181 0.0
C1482 C 0.15026 0.34623 0.519 0.0
C1483 C 0.14429 0.33533 0.50699 0.0
C1484 C 0.1335 0.3338 0.49621 0.0
C1485 C 0.12848 0.34319 0.49713 0.0
C1486 C 0.13434 0.35399 0.50937 0.0
C1487 C 0.14515 0.35551 0.52018 0.0
C1488 C 0.16211 0.34804 0.52982 0.0
C1489 C 0.17381 0.3493 0.5215 0.0
C1490 C 0.16189 0.34828 0.54811 0.0
C1491 C 0.14972 0.34664 0.55768 0.0
C1492 C 0.1369 0.33457 0.55576 0.0
C1493 C 0.12548 0.33298 0.56499 0.0
C1494 C 0.12668 0.34343 0.57629 0.0
C1495 C 0.13952 0.35554 0.57811 0.0
C1496 C 0.15096 0.35709 0.56896 0.0
C1497 C 0.19616 0.35075 0.55987 0.0
C1498 C 0.20983 0.36144 0.55794 0.0
C1499 C 0.2205 0.36132 0.56749 0.0
C1500 C 0.2177 0.35053 0.57921 0.0
C1501 C 0.20395 0.33997 0.58131 0.0
C1502 C 0.19331 0.34011 0.57178 0.0
C1503 C 0.18482 0.35037 0.54923 0.0
C1504 C 0.17326 0.3495 0.55759 0.0
C1505 C 0.18511 0.35039 0.53094 0.0
C1506 C 0.19664 0.35071 0.52118 0.0
C1507 C 0.20399 0.36138 0.50928 0.0
C1508 C 0.21406 0.36111 0.4989 0.0
C1509 C 0.21683 0.35007 0.5001 0.0
C1510 C 0.20969 0.33957 0.51235 0.0
C1511 C 0.19969 0.3399 0.52281 0.0
H1512 H 0.98334 0.36351 0.04741 0.0
H1513 H 0.97756 0.37503 0.07017 0.0
H1514 H 0.02072 0.40046 0.08269 0.0
H1515 H 0.02662 0.38906 0.06001 0.0
H1516 H 0.00435 0.39182 0.11189 0.0
H1517 H 0.00657 0.41323 0.0572 0.0
H1518 H 0.00086 0.41384 0.02642 0.0
H1519 H 0.95832 0.39811 0.03936 0.0
H1520 H 0.96375 0.39718 0.07022 0.0
H1521 H 0.00793 0.45219 0.14824 0.0
H1522 H 0.01037 0.43601 0.1293 0.0
H1523 H 0.96616 0.41144 0.12462 0.0
H1524 H 0.96353 0.42723 0.14426 0.0
H1525 H 0.98121 0.41799 0.09227 0.0
H1526 H 0.98059 0.39887 0.14839 0.0
H1527 H 0.98786 0.39969 0.1788 0.0
H1528 H 0.02927 0.41292 0.16258 0.0
H1529 H 0.0223 0.41239 0.13207 0.0
C1530 C 0.99159 0.37136 0.05523 0.0
C1531 C 0.00546 0.37543 0.0518 0.0
C1532 C 0.98827 0.37797 0.06817 0.0
C1533 C 0.99873 0.3887 0.07795 0.0
C1534 C 0.0125 0.39222 0.07525 0.0
C1535 C 0.01585 0.38571 0.06224 0.0
C1536 C 0.99546 0.39693 0.09016 0.0
C1537 C 0.99934 0.39758 0.1076 0.0
C1538 C 0.98883 0.40435 0.08454 0.0
C1539 C 0.98553 0.40497 0.066 0.0
C1540 C 0.99597 0.40977 0.05347 0.0
C1541 C 0.9928 0.4102 0.03601 0.0
C1542 C 0.97923 0.40598 0.03093 0.0
C1543 C 0.96882 0.40135 0.04331 0.0
C1544 C 0.97194 0.40087 0.06079 0.0
C1545 C 0.99868 0.44323 0.1435 0.0
C1546 C 0.98551 0.44101 0.14795 0.0
C1547 C 1.00012 0.43405 0.13254 0.0
C1548 C 0.98845 0.42252 0.12565 0.0
C1549 C 0.97529 0.42031 0.1298 0.0
C1550 C 0.97383 0.4294 0.14097 0.0
C1551 C 0.9901 0.41287 0.11399 0.0
C1552 C 0.986 0.41204 0.09661 0.0
C1553 C 0.99673 0.40546 0.11961 0.0
C1554 C 0.00094 0.4057 0.13795 0.0
C1555 C 0.99127 0.40207 0.15131 0.0
C1556 C 0.99533 0.40246 0.16857 0.0
C1557 C 0.00902 0.40638 0.17262 0.0
C1558 C 0.01867 0.40989 0.15942 0.0
C1559 C 0.01467 0.40954 0.14214 0.0
H1560 H 0.01215 0.40668 0.18599 0.0
H1561 H 0.97679 0.40632 0.01741 0.0
H1562 H 0.60527 0.61337 0.03425 0.0
H1563 H 0.59188 0.59822 0.05823 0.0
H1564 H 0.62939 0.61175 0.08783 0.0
H1565 H 0.64275 0.62681 0.06381 0.0
H1566 H 0.59402 0.5764 0.0738 0.0
H1567 H 0.62084 0.61387 0.13058 0.0
H1568 H 0.63362 0.63902 0.1363 0.0
H1569 H 0.61179 0.6458 0.09472 0.0
H1570 H 0.59876 0.62069 0.08893 0.0
H1571 H 0.57413 0.54057 0.15451 0.0
H1572 H 0.58893 0.55664 0.13227 0.0
H1573 H 0.56427 0.57678 0.13202 0.0
H1574 H 0.54909 0.56047 0.15366 0.0
H1575 H 0.59327 0.5954 0.13157 0.0
H1576 H 0.55825 0.55441 0.10232 0.0
H1577 H 0.54512 0.52937 0.09611 0.0
H1578 H 0.58244 0.52982 0.08155 0.0
H1579 H 0.59583 0.55484 0.08794 0.0
C1580 C 0.61059 0.61298 0.04586 0.0
C1581 C 0.62499 0.62082 0.04712 0.0
C1582 C 0.60298 0.60436 0.05949 0.0
C1583 C 0.60966 0.60387 0.07475 0.0
C1584 C 0.62405 0.61201 0.07616 0.0
C1585 C 0.63166 0.62048 0.06245 0.0
C1586 C 0.60154 0.59487 0.08922 0.0
C1587 C 0.59393 0.58054 0.08644 0.0
C1588 C 0.60134 0.60032 0.10568 0.0
C1589 C 0.60894 0.61542 0.10922 0.0
C1590 C 0.61874 0.62073 0.12271 0.0
C1591 C 0.62603 0.63497 0.12596 0.0
C1592 C 0.62355 0.644 0.11584 0.0
C1593 C 0.61374 0.6388 0.1025 0.0
C1594 C 0.60642 0.62456 0.09922 0.0
C1595 C 0.57179 0.54837 0.14969 0.0
C1596 C 0.56032 0.54913 0.15585 0.0
C1597 C 0.58033 0.5576 0.13708 0.0
C1598 C 0.57763 0.56783 0.1305 0.0
C1599 C 0.56655 0.56898 0.13704 0.0
C1600 C 0.55792 0.55967 0.14949 0.0
C1601 C 0.58591 0.57691 0.11616 0.0
C1602 C 0.59353 0.59125 0.11896 0.0
C1603 C 0.58611 0.57148 0.09969 0.0
C1604 C 0.57806 0.55645 0.09583 0.0
C1605 C 0.56367 0.54914 0.09796 0.0
C1606 C 0.55618 0.53496 0.09438 0.0
C1607 C 0.56295 0.528 0.0885 0.0
C1608 C 0.57722 0.53522 0.08614 0.0
C1609 C 0.58476 0.5494 0.08974 0.0
H1610 H 0.55713 0.51702 0.08572 0.0
H1611 H 0.62922 0.65503 0.11837 0.0
H1612 H 0.38531 0.9929 0.03024 0.0
H1613 H 0.4013 0.99456 0.05323 0.0
H1614 H 0.38468 0.01381 0.08667 0.0
H1615 H 0.36943 0.01302 0.06312 0.0
H1616 H 0.40977 0.02596 0.09216 0.0
H1617 H 0.37715 0.97813 0.09026 0.0
H1618 H 0.36252 0.95499 0.07754 0.0
H1619 H 0.3986 0.95351 0.06163 0.0
H1620 H 0.41345 0.97673 0.07404 0.0
H1621 H 0.43967 0.01109 0.16762 0.0
H1622 H 0.42234 0.00935 0.14628 0.0
H1623 H 0.44754 0.00823 0.10498 0.0
H1624 H 0.46502 0.01036 0.12617 0.0
H1625 H 0.41689 0.98622 0.10591 0.0
H1626 H 0.44909 0.03579 0.10772 0.0
H1627 H 0.4623 0.05833 0.12245 0.0
H1628 H 0.42468 0.05527 0.141 0.0
H1629 H 0.41126 0.03259 0.1266 0.0
C1630 C 0.38523 0.99759 0.04249 0.0
C1631 C 0.3765 0.00317 0.04488 0.0
C1632 C 0.39421 0.99837 0.05572 0.0
C1633 C 0.39405 0.00405 0.07192 0.0
C1634 C 0.38507 0.0094 0.07435 0.0
C1635 C 0.37638 0.00898 0.06092 0.0
C1636 C 0.40346 0.00467 0.08616 0.0
C1637 C 0.41119 0.0172 0.09517 0.0
C1638 C 0.4053 0.99322 0.09042 0.0
C1639 C 0.39641 0.97923 0.08296 0.0
C1640 C 0.38196 0.97291 0.08395 0.0
C1641 C 0.37363 0.95977 0.0768 0.0
C1642 C 0.37963 0.9528 0.06875 0.0
C1643 C 0.39397 0.95893 0.06786 0.0
C1644 C 0.40235 0.97208 0.07496 0.0
C1645 C 0.44147 0.0105 0.15397 0.0
C1646 C 0.45365 0.01092 0.14846 0.0
C1647 C 0.43162 0.00952 0.14185 0.0
C1648 C 0.43372 0.00868 0.12412 0.0
C1649 C 0.44578 0.00888 0.11862 0.0
C1650 C 0.45575 0.01016 0.13069 0.0
C1651 C 0.42336 0.00758 0.11121 0.0
C1652 C 0.41542 0.99493 0.10265 0.0
C1653 C 0.42112 0.0188 0.1076 0.0
C1654 C 0.42919 0.0324 0.11632 0.0
C1655 C 0.44365 0.03984 0.11513 0.0
C1656 C 0.45117 0.05266 0.12337 0.0
C1657 C 0.44434 0.05821 0.13272 0.0
C1658 C 0.42997 0.05095 0.1338 0.0
C1659 C 0.42239 0.03811 0.1256 0.0
H1660 H 0.45019 0.06814 0.13907 0.0
H1661 H 0.37316 0.94263 0.06323 0.0
H1662 H 0.39272 0.02856 0.96564 0.0
H1663 H 0.40343 0.0242 0.94083 0.0
H1664 H 0.37487 0.98042 0.94476 0.0
H1665 H 0.36403 0.98467 0.96971 0.0
H1666 H 0.40208 0.98654 0.94267 0.0
H1667 H 0.3717 0.99819 0.91191 0.0
H1668 H 0.36092 0.01241 0.90482 0.0
H1669 H 0.40039 0.04636 0.89088 0.0
H1670 H 0.41146 0.03243 0.89817 0.0
H1671 H 0.43041 0.97274 0.86882 0.0
H1672 H 0.41363 0.97358 0.88815 0.0
H1673 H 0.43537 0.01819 0.88515 0.0
H1674 H 0.45168 0.01741 0.86499 0.0
H1675 H 0.40897 0.00938 0.88547 0.0
H1676 H 0.4398 0.99998 0.91959 0.0
H1677 H 0.45181 0.98719 0.9281 0.0
H1678 H 0.41289 0.95065 0.93707 0.0
H1679 H 0.40065 0.96319 0.9284 0.0
C1680 C 0.38859 0.018 0.96116 0.0
C1681 C 0.37751 0.00696 0.96972 0.0
C1682 C 0.3947 0.01554 0.9469 0.0
C1683 C 0.38989 0.002 0.94087 0.0
C1684 C 0.3787 0.99096 0.94918 0.0
C1685 C 0.3725 0.99342 0.96339 0.0
C1686 C 0.39713 0.99939 0.92658 0.0
C1687 C 0.40334 0.99129 0.93003 0.0
C1688 C 0.39909 0.00592 0.91026 0.0
C1689 C 0.39243 0.01428 0.90571 0.0
C1690 C 0.3781 0.00872 0.90746 0.0
C1691 C 0.37194 0.01672 0.90339 0.0
C1692 C 0.37997 0.03028 0.89743 0.0
C1693 C 0.39418 0.03585 0.89551 0.0
C1694 C 0.40041 0.0279 0.89959 0.0
C1695 C 0.43149 0.98273 0.87196 0.0
C1696 C 0.44253 0.99502 0.86544 0.0
C1697 C 0.42195 0.98319 0.88321 0.0
C1698 C 0.42337 0.99596 0.88842 0.0
C1699 C 0.43408 0.00821 0.88143 0.0
C1700 C 0.44352 0.00775 0.87005 0.0
C1701 C 0.4141 0.99668 0.90164 0.0
C1702 C 0.40754 0.00446 0.89801 0.0
C1703 C 0.41197 0.99003 0.91792 0.0
C1704 C 0.41931 0.98247 0.92315 0.0
C1705 C 0.43381 0.98919 0.92325 0.0
C1706 C 0.44065 0.98199 0.92812 0.0
C1707 C 0.43312 0.9681 0.93307 0.0
C1708 C 0.41871 0.9614 0.9332 0.0
C1709 C 0.41182 0.96855 0.92831 0.0
H1710 H 0.43844 0.96255 0.93685 0.0
H1711 H 0.37518 0.03646 0.89427 0.0
H1712 H 0.02191 0.37797 0.96316 0.0
H1713 H 0.02368 0.39521 0.94211 0.0
H1714 H 0.98827 0.39475 0.96523 0.0
H1715 H 0.98844 0.37974 0.98807 0.0
H1716 H 0.01007 0.39444 0.91822 0.0
H1717 H 0.98067 0.41499 0.95468 0.0
H1718 H 0.97802 0.42259 0.98374 0.0
H1719 H 0.02104 0.43803 0.99428 0.0
H1720 H 0.02377 0.4302 0.9653 0.0
H1721 H 0.99546 0.43287 0.85566 0.0
H1722 H 0.99365 0.4168 0.87849 0.0
H1723 H 0.02235 0.45115 0.91006 0.0
H1724 H 0.02339 0.46727 0.88799 0.0
H1725 H 0.00267 0.43429 0.9292 0.0
H1726 H 0.03129 0.42893 0.88692 0.0
H1727 H 0.037 0.42405 0.85794 0.0
H1728 H 0.00163 0.38329 0.85915 0.0
H1729 H 0.99563 0.388 0.88807 0.0
C1730 C 0.01526 0.38245 0.96444 0.0
C1731 C 0.0058 0.37841 0.97799 0.0
C1732 C 0.01591 0.39197 0.95205 0.0
C1733 C 0.00638 0.39686 0.95216 0.0
C1734 C 0.99639 0.3921 0.96525 0.0
C1735 C 0.9963 0.38324 0.97821 0.0
C1736 C 0.00632 0.40601 0.93787 0.0
C1737 C 0.00859 0.40323 0.92079 0.0
C1738 C 0.0041 0.41739 0.94076 0.0
C1739 C 0.00236 0.42168 0.9582 0.0
C1740 C 0.98951 0.41988 0.96331 0.0
C1741 C 0.98798 0.42418 0.97974 0.0
C1742 C 0.99932 0.4306 0.99096 0.0
C1743 C 0.01221 0.43278 0.98572 0.0
C1744 C 0.01373 0.4283 0.9694 0.0
C1745 C 0.00129 0.43703 0.86753 0.0
C1746 C 0.00962 0.45143 0.86987 0.0
C1747 C 1.00037 0.42779 0.8805 0.0
C1748 C 0.00799 0.43273 0.89595 0.0
C1749 C 0.01637 0.44706 0.89826 0.0
C1750 C 0.01712 0.45629 0.88546 0.0
C1751 C 0.00715 0.4231 0.90993 0.0
C1752 C 0.00437 0.42561 0.92681 0.0
C1753 C 0.00931 0.41175 0.9069 0.0
C1754 C 0.01294 0.40887 0.88957 0.0
C1755 C 0.02469 0.41896 0.88095 0.0
C1756 C 0.02798 0.41622 0.86455 0.0
C1757 C 0.01966 0.40338 0.85668 0.0
C1758 C 0.00805 0.39324 0.86524 0.0
C1759 C 0.00471 0.39593 0.88164 0.0
H1760 H 0.02222 0.40128 0.84398 0.0
H1761 H 0.99814 0.43399 0.00363 0.0
H1762 H 0.62368 0.59948 0.97186 0.0
H1763 H 0.60883 0.59078 0.9464 0.0
H1764 H 0.61061 0.63027 0.94004 0.0
H1765 H 0.62524 0.63901 0.96588 0.0
H1766 H 0.58534 0.61073 0.93617 0.0
H1767 H 0.62772 0.61967 0.91214 0.0
H1768 H 0.64967 0.61945 0.90999 0.0
H1769 H 0.6276 0.57507 0.90632 0.0
H1770 H 0.6055 0.575 0.90869 0.0
H1771 H 0.56216 0.57391 0.84473 0.0
H1772 H 0.58039 0.58937 0.86484 0.0
H1773 H 0.55228 0.57151 0.90751 0.0
H1774 H 0.53403 0.5564 0.88746 0.0
H1775 H 0.59304 0.58472 0.88952 0.0
H1776 H 0.5593 0.59358 0.93983 0.0
H1777 H 0.53869 0.59641 0.94001 0.0
H1778 H 0.54599 0.61014 0.88719 0.0
H1779 H 0.56675 0.60758 0.88675 0.0
C1780 C 0.62104 0.60639 0.96501 0.0
C1781 C 0.62569 0.61997 0.97097 0.0
C1782 C 0.61258 0.6014 0.95036 0.0
C1783 C 0.60873 0.60991 0.94113 0.0
C1784 C 0.61345 0.62351 0.94692 0.0
C1785 C 0.62185 0.6285 0.96169 0.0
C1786 C 0.59925 0.60432 0.92597 0.0
C1787 C 0.58706 0.60512 0.9259 0.0
C1788 C 0.60168 0.59737 0.91226 0.0
C1789 C 0.61494 0.59733 0.91071 0.0
C1790 C 0.62754 0.60985 0.91099 0.0
C1791 C 0.64001 0.60978 0.90972 0.0
C1792 C 0.64003 0.59725 0.90806 0.0
C1793 C 0.62757 0.58477 0.90762 0.0
C1794 C 0.61506 0.58478 0.9089 0.0
C1795 C 0.55988 0.5734 0.8584 0.0
C1796 C 0.54665 0.56404 0.86452 0.0
C1797 C 0.57029 0.58222 0.86988 0.0
C1798 C 0.56769 0.58178 0.8877 0.0
C1799 C 0.55448 0.57235 0.8938 0.0
C1800 C 0.54405 0.56368 0.88232 0.0
C1801 C 0.57887 0.59067 0.90009 0.0
C1802 C 0.59138 0.59048 0.89964 0.0
C1803 C 0.57693 0.59857 0.91301 0.0
C1804 C 0.56454 0.60029 0.91323 0.0
C1805 C 0.55655 0.59728 0.92828 0.0
C1806 C 0.54483 0.59882 0.92842 0.0
C1807 C 0.54101 0.60342 0.91361 0.0
C1808 C 0.54893 0.60653 0.89864 0.0
C1809 C 0.56067 0.60502 0.89843 0.0
H1810 H 0.53193 0.60459 0.91374 0.0
H1811 H 0.6497 0.59722 0.90708 0.0
H1812 H 0.9866 0.60886 0.98226 0.0
H1813 H 0.98525 0.59325 0.95949 0.0
H1814 H 0.02005 0.62713 0.93424 0.0
H1815 H 0.01915 0.64308 0.95512 0.0
H1816 H 0.00681 0.61385 0.91117 0.0
H1817 H 0.01875 0.59121 0.96151 0.0
H1818 H 0.01417 0.57989 0.99023 0.0
H1819 H 0.9717 0.55382 0.976 0.0
H1820 H 0.97616 0.56488 0.94721 0.0
H1821 H 0.02171 0.55422 0.88656 0.0
H1822 H 0.02009 0.5699 0.90705 0.0
H1823 H 0.99185 0.57454 0.87276 0.0
H1824 H 0.99426 0.55967 0.85148 0.0
H1825 H 0.99948 0.56701 0.92453 0.0
H1826 H 0.99257 0.60503 0.88075 0.0
H1827 H 0.99873 0.61508 0.85146 0.0
H1828 H 0.03473 0.61035 0.85246 0.0
H1829 H 0.02887 0.60042 0.88182 0.0
C1830 C 0.99404 0.61291 0.97189 0.0
C1831 C 0.00372 0.62708 0.97112 0.0
C1832 C 0.99348 0.60385 0.95897 0.0
C1833 C 0.00307 0.60859 0.94539 0.0
C1834 C 0.01258 0.6229 0.94455 0.0
C1835 C 0.01248 0.63207 0.95686 0.0
C1836 C 0.00286 0.59898 0.93159 0.0
C1837 C 0.00538 0.6037 0.91432 0.0
C1838 C 1.0005 0.58539 0.93509 0.0
C1839 C 0.99772 0.57918 0.95255 0.0
C1840 C 0.00842 0.58328 0.96473 0.0
C1841 C 0.00587 0.57684 0.98092 0.0
C1842 C 0.99261 0.56631 0.98504 0.0
C1843 C 0.98193 0.56206 0.97287 0.0
C1844 C 0.98449 0.56836 0.9566 0.0
C1845 C 0.01543 0.55884 0.88308 0.0
C1846 C 0.0082 0.55569 0.86723 0.0
C1847 C 0.01436 0.56768 0.89497 0.0
C1848 C 0.0059 0.57349 0.89147 0.0
C1849 C 0.99862 0.57038 0.87569 0.0
C1850 C 0.99987 0.5617 0.86362 0.0
C1851 C 0.00447 0.58239 0.90471 0.0
C1852 C 0.00124 0.57734 0.92165 0.0
C1853 C 0.00646 0.59573 0.90095 0.0
C1854 C 0.0102 0.60187 0.88341 0.0
C1855 C 0.00183 0.60619 0.87474 0.0
C1856 C 0.00526 0.61186 0.85813 0.0
C1857 C 0.0171 0.61333 0.8501 0.0
C1858 C 0.02555 0.60917 0.85868 0.0
C1859 C 0.02217 0.60351 0.8753 0.0
H1860 H 0.01974 0.61772 0.83725 0.0
H1861 H 0.99065 0.56136 0.99758 0.0
H1862 H 0.39729 0.37378 0.96827 0.0
H1863 H 0.40786 0.3913 0.94594 0.0
H1864 H 0.37606 0.40238 0.95168 0.0
H1865 H 0.36523 0.38469 0.97425 0.0
H1866 H 0.38404 0.40173 0.9163 0.0
H1867 H 0.40459 0.42182 0.97098 0.0
H1868 H 0.41523 0.42231 0.99927 0.0
H1869 H 0.44909 0.4218 0.97388 0.0
H1870 H 0.43852 0.42101 0.94542 0.0
H1871 H 0.42594 0.46459 0.86925 0.0
H1872 H 0.41111 0.44806 0.89114 0.0
H1873 H 0.44098 0.43447 0.8989 0.0
H1874 H 0.45605 0.45128 0.87766 0.0
H1875 H 0.43219 0.43809 0.92899 0.0
H1876 H 0.41091 0.41548 0.87503 0.0
H1877 H 0.40007 0.4135 0.84644 0.0
H1878 H 0.36779 0.41806 0.87008 0.0
H1879 H 0.37856 0.42025 0.8988 0.0
C1880 C 0.39239 0.3798 0.96475 0.0
C1881 C 0.38046 0.3779 0.97326 0.0
C1882 C 0.39848 0.38983 0.95194 0.0
C1883 C 0.39286 0.39826 0.94736 0.0
C1884 C 0.38057 0.39599 0.95511 0.0
C1885 C 0.37442 0.3859 0.96802 0.0
C1886 C 0.40043 0.40994 0.93524 0.0
C1887 C 0.39447 0.40986 0.91916 0.0
C1888 C 0.41411 0.42039 0.93895 0.0
C1889 C 0.42071 0.42127 0.95605 0.0
C1890 C 0.41427 0.42173 0.97142 0.0
C1891 C 0.42029 0.42206 0.98749 0.0
C1892 C 0.43282 0.42207 0.98837 0.0
C1893 C 0.43938 0.42179 0.97317 0.0
C1894 C 0.43338 0.42141 0.95706 0.0
C1895 C 0.42939 0.45814 0.87571 0.0
C1896 C 0.44217 0.45922 0.87161 0.0
C1897 C 0.42084 0.44861 0.88811 0.0
C1898 C 0.42487 0.43992 0.89656 0.0
C1899 C 0.43763 0.44104 0.89254 0.0
C1900 C 0.44618 0.45056 0.88023 0.0
C1901 C 0.41597 0.42973 0.90977 0.0
C1902 C 0.4217 0.43011 0.92615 0.0
C1903 C 0.40212 0.41954 0.90627 0.0
C1904 C 0.39563 0.4182 0.88903 0.0
C1905 C 0.40157 0.41617 0.87411 0.0
C1906 C 0.39542 0.41499 0.85789 0.0
C1907 C 0.38327 0.4157 0.85644 0.0
C1908 C 0.37722 0.41754 0.87122 0.0
C1909 C 0.38333 0.41875 0.88747 0.0
H1910 H 0.37853 0.41478 0.84387 0.0
H1911 H 0.43747 0.42233 0.00083 0.0
H1912 H 0.6288 0.98697 0.9575 0.0
H1913 H 0.61361 0.98598 0.93368 0.0
H1914 H 0.60494 0.01465 0.96097 0.0
H1915 H 0.61966 0.01514 0.98519 0.0
H1916 H 0.58379 0.97889 0.9376 0.0
H1917 H 0.60677 0.03712 0.92578 0.0
H1918 H 0.62901 0.05872 0.92899 0.0
H1919 H 0.6507 0.03609 0.92207 0.0
H1920 H 0.62861 0.01442 0.91855 0.0
H1921 H 0.53946 0.99723 0.89191 0.0
H1922 H 0.55647 0.99764 0.91257 0.0
H1923 H 0.58196 0.99865 0.87029 0.0
H1924 H 0.56478 0.99798 0.84948 0.0
H1925 H 0.59583 0.01904 0.89912 0.0
H1926 H 0.56617 0.97042 0.88753 0.0
H1927 H 0.54393 0.94879 0.88503 0.0
H1928 H 0.53598 0.95142 0.93876 0.0
H1929 H 0.55807 0.97322 0.94152 0.0
C1930 C 0.62334 0.99274 0.95856 0.0
C1931 C 0.62482 0.00062 0.9734 0.0
C1932 C 0.61485 0.99232 0.94491 0.0
C1933 C 0.60818 1.00022 0.94566 0.0
C1934 C 0.61002 0.00847 0.96024 0.0
C1935 C 0.61834 0.00871 0.97401 0.0
C1936 C 0.59913 0.99968 0.93129 0.0
C1937 C 0.58644 0.98759 0.9291 0.0
C1938 C 0.60267 0.01113 0.9203 0.0
C1939 C 0.61603 0.02413 0.92209 0.0
C1940 C 0.61629 0.03677 0.92488 0.0
C1941 C 0.62887 0.04903 0.92676 0.0
C1942 C 0.64126 0.04877 0.92579 0.0
C1943 C 0.6411 0.03627 0.92289 0.0
C1944 C 0.62855 0.02399 0.92098 0.0
C1945 C 0.54872 0.99758 0.88705 0.0
C1946 C 0.55086 0.99758 0.86917 0.0
C1947 C 0.55838 0.99778 0.89882 0.0
C1948 C 0.57041 0.99817 0.89289 0.0
C1949 C 0.57271 0.99837 0.87504 0.0
C1950 C 0.5629 0.99791 0.86323 0.0
C1951 C 0.58045 0.99816 0.90547 0.0
C1952 C 0.59326 0.01022 0.90746 0.0
C1953 C 0.57703 0.98664 0.91632 0.0
C1954 C 0.5637 0.97357 0.91466 0.0
C1955 C 0.5596 0.96649 0.89876 0.0
C1956 C 0.54704 0.95417 0.89731 0.0
C1957 C 0.53852 0.94876 0.91171 0.0
C1958 C 0.54257 0.95564 0.92761 0.0
C1959 C 0.55511 0.96798 0.92912 0.0
H1960 H 0.5288 0.93921 0.91056 0.0
H1961 H 0.65099 0.05827 0.92726 0.0
H1962 H 0.60668 0.9747 0.05195 0.0
H1963 H 0.59541 0.97921 0.07589 0.0
H1964 H 0.62543 0.02269 0.07386 0.0
H1965 H 0.637 0.01826 0.04983 0.0
H1966 H 0.61792 0.01265 0.1079 0.0
H1967 H 0.59594 0.0123 0.05422 0.0
H1968 H 0.58536 0.00264 0.02582 0.0
H1969 H 0.55324 0.96664 0.05064 0.0
H1970 H 0.56379 0.97595 0.07919 0.0
H1971 H 0.57438 0.0321 0.15414 0.0
H1972 H 0.58959 0.03021 0.13296 0.0
H1973 H 0.56095 0.98653 0.12744 0.0
H1974 H 0.54552 0.98841 0.14811 0.0
H1975 H 0.56885 0.9987 0.09656 0.0
H1976 H 0.59132 0.9984 0.14998 0.0
H1977 H 0.60232 0.00745 0.17839 0.0
H1978 H 0.63346 0.04448 0.15419 0.0
H1979 H 0.62253 0.03572 0.12565 0.0
C1980 C 0.61103 0.98523 0.05665 0.0
C1981 C 0.62265 0.99615 0.04878 0.0
C1982 C 0.60456 0.98777 0.07037 0.0
C1983 C 0.60944 0.00131 0.07642 0.0
C1984 C 0.62148 0.01217 0.06931 0.0
C1985 C 0.62805 0.00962 0.05556 0.0
C1986 C 0.6013 0.00409 0.08927 0.0
C1987 C 0.60726 0.00982 0.10537 0.0
C1988 C 0.58734 1.00022 0.08598 0.0
C1989 C 0.58072 0.99478 0.06885 0.0
C1990 C 0.58666 0.00229 0.05362 0.0
C1991 C 0.58067 0.99687 0.03749 0.0
C1992 C 0.56865 0.98403 0.03642 0.0
C1993 C 0.56256 0.97659 0.05149 0.0
C1994 C 0.56853 0.98193 0.06765 0.0
C1995 C 0.57132 0.0221 0.1484 0.0
C1996 C 0.55874 0.0104 0.15284 0.0
C1997 C 0.58008 0.02101 0.13641 0.0
C1998 C 0.57645 0.00821 0.1287 0.0
C1999 C 0.56397 0.99651 0.13325 0.0
C2000 C 0.55522 0.99758 0.1452 0.0
C2001 C 0.58535 0.007 0.11542 0.0
C2002 C 0.57954 0.00162 0.09913 0.0
C2003 C 0.59942 0.01121 0.11857 0.0
C2004 C 0.60602 0.01647 0.13571 0.0
C2005 C 0.60045 0.00852 0.15074 0.0
C2006 C 0.60668 0.01359 0.16686 0.0
C2007 C 0.61856 0.02655 0.1681 0.0
C2008 C 0.62425 0.03445 0.15321 0.0
C2009 C 0.61805 0.02944 0.13706 0.0
H2010 H 0.62337 0.03046 0.18059 0.0
H2011 H 0.56403 0.97984 0.02392 0.0
H2012 H 0.98706 0.62491 0.04737 0.0
H2013 H 0.98213 0.60861 0.07125 0.0
H2014 H 0.02377 0.61566 0.06923 0.0
H2015 H 0.02876 0.63175 0.04534 0.0
H2016 H 0.00558 0.58866 0.06937 0.0
H2017 H 0.01302 0.62865 0.10211 0.0
H2018 H 0.00909 0.64792 0.11007 0.0
H2019 H 0.9668 0.61903 0.12152 0.0
H2020 H 0.97044 0.59958 0.1134 0.0
H2021 H 0.01006 0.55623 0.14516 0.0
H2022 H 0.01338 0.57406 0.12416 0.0
H2023 H 0.97056 0.56284 0.12851 0.0
H2024 H 0.96722 0.54515 0.15 0.0
H2025 H 0.98765 0.59119 0.127 0.0
H2026 H 0.98033 0.55125 0.09499 0.0
H2027 H 0.98419 0.53192 0.08705 0.0
H2028 H 0.02612 0.56077 0.07393 0.0
H2029 H 0.02258 0.58027 0.08205 0.0
C2030 C 0.99523 0.62312 0.05213 0.0
C2031 C 0.0083 0.62964 0.04434 0.0
C2032 C 0.99239 0.61382 0.06582 0.0
C2033 C 0.00259 0.61094 0.07205 0.0
C2034 C 0.01572 0.61768 0.06459 0.0
C2035 C 0.01856 0.62693 0.05093 0.0
C2036 C 0.9995 0.60038 0.08572 0.0
C2037 C 0.00182 0.58933 0.08204 0.0
C2038 C 0.99416 0.60099 0.10206 0.0
C2039 C 0.99197 0.61267 0.10697 0.0
C2040 C 0.00285 0.62641 0.10618 0.0
C2041 C 0.00068 0.63737 0.11075 0.0
C2042 C 0.98769 0.63471 0.11625 0.0
C2043 C 0.97685 0.62108 0.11723 0.0
C2044 C 0.97896 0.61008 0.11266 0.0
C2045 C 0.00139 0.55769 0.14191 0.0
C2046 C 0.98836 0.54923 0.14924 0.0
C2047 C 0.00328 0.56781 0.12977 0.0
C2048 C 0.99217 0.56964 0.1246 0.0
C2049 C 0.97925 0.56155 0.13228 0.0
C2050 C 0.97734 0.55138 0.14444 0.0
C2051 C 0.99402 0.57968 0.11072 0.0
C2052 C 0.99139 0.59055 0.11431 0.0
C2053 C 0.99906 0.57892 0.09425 0.0
C2054 C 0.00122 0.56722 0.08928 0.0
C2055 C 0.99041 0.55347 0.09054 0.0
C2056 C 0.99253 0.54248 0.08599 0.0
C2057 C 0.0054 0.54511 0.08003 0.0
C2058 C 0.01617 0.55874 0.07857 0.0
C2059 C 0.0141 0.56977 0.08313 0.0
H2060 H 0.00703 0.53659 0.0765 0.0
H2061 H 0.98603 0.6432 0.11978 0.0
H2062 H 0.39233 0.39404 0.0356 0.0
H2063 H 0.40768 0.40635 0.05986 0.0
H2064 H 0.38852 0.36868 0.08992 0.0
H2065 H 0.37462 0.35613 0.06485 0.0
H2066 H 0.4006 0.41196 0.0875 0.0
H2067 H 0.39741 0.36944 0.11865 0.0
H2068 H 0.39981 0.3486 0.12197 0.0
H2069 H 0.43814 0.3687 0.09464 0.0
H2070 H 0.43546 0.38932 0.09024 0.0
H2071 H 0.43634 0.44138 0.16936 0.0
H2072 H 0.41938 0.42512 0.1486 0.0
H2073 H 0.45225 0.4298 0.11536 0.0
H2074 H 0.46922 0.44658 0.13535 0.0
H2075 H 0.43075 0.40112 0.12417 0.0
H2076 H 0.43694 0.44539 0.10322 0.0
H2077 H 0.43638 0.4672 0.10668 0.0
H2078 H 0.39345 0.44428 0.11965 0.0
H2079 H 0.39382 0.42232 0.1165 0.0
C2080 C 0.39189 0.38834 0.04721 0.0
C2081 C 0.38261 0.37412 0.04827 0.0
C2082 C 0.40057 0.39536 0.06118 0.0
C2083 C 0.3996 0.38854 0.07698 0.0
C2084 C 0.39024 0.37423 0.07793 0.0
C2085 C 0.38204 0.36705 0.0636 0.0
C2086 C 0.4073 0.39697 0.09251 0.0
C2087 C 0.40715 0.40945 0.09545 0.0
C2088 C 0.41554 0.39373 0.10364 0.0
C2089 C 0.41581 0.38057 0.10321 0.0
C2090 C 0.40602 0.36915 0.11267 0.0
C2091 C 0.40747 0.35742 0.11485 0.0
C2092 C 0.41903 0.35724 0.1083 0.0
C2093 C 0.42909 0.36877 0.09948 0.0
C2094 C 0.42746 0.38036 0.09683 0.0
C2095 C 0.43999 0.43914 0.15752 0.0
C2096 C 0.45423 0.44529 0.15417 0.0
C2097 C 0.43027 0.42977 0.14575 0.0
C2098 C 0.43461 0.42626 0.13053 0.0
C2099 C 0.44873 0.43232 0.12713 0.0
C2100 C 0.45842 0.44183 0.1387 0.0
C2101 C 0.42454 0.41615 0.11809 0.0
C2102 C 0.42416 0.40345 0.11602 0.0
C2103 C 0.41567 0.41906 0.108 0.0
C2104 C 0.41545 0.43224 0.10984 0.0
C2105 C 0.42742 0.44501 0.10698 0.0
C2106 C 0.42713 0.45739 0.10885 0.0
C2107 C 0.4149 0.45713 0.11344 0.0
C2108 C 0.40292 0.44447 0.11613 0.0
C2109 C 0.40317 0.43206 0.1143 0.0
H2110 H 0.41469 0.46672 0.11487 0.0
H2111 H 0.42025 0.34824 0.1102 0.0
H2112 H 0.65327 0.69563 0.39097 0.0
H2113 H 0.64688 0.70574 0.41485 0.0
H2114 H 0.68509 0.74409 0.40911 0.0
H2115 H 0.6917 0.73407 0.38566 0.0
H2116 H 0.67983 0.73897 0.44197 0.0
H2117 H 0.6545 0.73938 0.39143 0.0
H2118 H 0.6386 0.72906 0.36661 0.0
H2119 H 0.60588 0.70327 0.40113 0.0
H2120 H 0.62165 0.71332 0.42616 0.0
H2121 H 0.64364 0.78131 0.46395 0.0
H2122 H 0.64764 0.76659 0.44409 0.0
H2123 H 0.65422 0.74589 0.48753 0.0
H2124 H 0.65061 0.76093 0.50746 0.0
H2125 H 0.63615 0.74048 0.43713 0.0
H2126 H 0.67801 0.73655 0.47739 0.0
H2127 H 0.69556 0.74973 0.49978 0.0
H2128 H 0.69803 0.78752 0.48166 0.0
H2129 H 0.68064 0.77459 0.45904 0.0
C2130 C 0.66038 0.70617 0.3949 0.0
C2131 C 0.67298 0.71403 0.38628 0.0
C2132 C 0.65668 0.71195 0.40852 0.0
C2133 C 0.66543 0.72574 0.41365 0.0
C2134 C 0.67817 0.73343 0.40543 0.0
C2135 C 0.68191 0.72766 0.39194 0.0
C2136 C 0.66121 0.73248 0.42705 0.0
C2137 C 0.67022 0.73919 0.44099 0.0
C2138 C 0.64879 0.733 0.42564 0.0
C2139 C 0.63929 0.72698 0.41064 0.0
C2140 C 0.64394 0.73143 0.39371 0.0
C2141 C 0.63495 0.72565 0.37961 0.0
C2142 C 0.62125 0.71549 0.38229 0.0
C2143 C 0.6165 0.71112 0.39908 0.0
C2144 C 0.62546 0.71686 0.41323 0.0
C2145 C 0.64581 0.77353 0.46926 0.0
C2146 C 0.6469 0.77232 0.48724 0.0
C2147 C 0.64808 0.7651 0.4579 0.0
C2148 C 0.6514 0.75522 0.46427 0.0
C2149 C 0.65195 0.75362 0.48227 0.0
C2150 C 0.64987 0.7622 0.49365 0.0
C2151 C 0.65483 0.74707 0.45199 0.0
C2152 C 0.64566 0.74007 0.43828 0.0
C2153 C 0.66732 0.74667 0.45328 0.0
C2154 C 0.67791 0.75457 0.46668 0.0
C2155 C 0.68234 0.74768 0.47816 0.0
C2156 C 0.69225 0.7551 0.49089 0.0
C2157 C 0.69787 0.76945 0.49218 0.0
C2158 C 0.69363 0.77641 0.48069 0.0
C2159 C 0.68374 0.76903 0.46793 0.0
H2160 H 0.70553 0.77518 0.50205 0.0
H2161 H 0.6143 0.71102 0.37135 0.0
H2162 H 0.27441 0.94714 0.36999 0.0
H2163 H 0.26083 0.93163 0.39338 0.0
H2164 H 0.29756 0.94744 0.4253 0.0
H2165 H 0.31123 0.96221 0.40131 0.0
H2166 H 0.28426 0.92227 0.43094 0.0
H2167 H 0.27064 0.95643 0.43064 0.0
H2168 H 0.26251 0.97184 0.41881 0.0
H2169 H 0.22412 0.93653 0.40373 0.0
H2170 H 0.23209 0.92089 0.41526 0.0
H2171 H 0.24131 0.89315 0.50705 0.0
H2172 H 0.25662 0.91044 0.48591 0.0
H2173 H 0.22961 0.88583 0.4444 0.0
H2174 H 0.21454 0.86837 0.46537 0.0
H2175 H 0.23886 0.91703 0.44651 0.0
H2176 H 0.25481 0.88323 0.44613 0.0
H2177 H 0.26383 0.86923 0.45998 0.0
H2178 H 0.29905 0.90622 0.47884 0.0
H2179 H 0.2901 0.92044 0.46533 0.0
C2180 C 0.27953 0.94715 0.38199 0.0
C2181 C 0.29383 0.95549 0.38382 0.0
C2182 C 0.27177 0.93845 0.39545 0.0
C2183 C 0.27807 0.93853 0.41135 0.0
C2184 C 0.29241 0.94713 0.41322 0.0
C2185 C 0.30023 0.95553 0.39954 0.0
C2186 C 0.26973 0.9294 0.4258 0.0
C2187 C 0.27441 0.92127 0.43435 0.0
C2188 C 0.25689 0.92812 0.43062 0.0
C2189 C 0.25201 0.93748 0.4237 0.0
C2190 C 0.2605 0.95194 0.4247 0.0
C2191 C 0.25591 0.96072 0.41806 0.0
C2192 C 0.24282 0.95516 0.41049 0.0
C2193 C 0.23427 0.94082 0.40958 0.0
C2194 C 0.23881 0.93199 0.41619 0.0
C2195 C 0.23871 0.89147 0.49339 0.0
C2196 C 0.22684 0.87946 0.48775 0.0
C2197 C 0.24743 0.90129 0.48139 0.0
C2198 C 0.2442 0.89935 0.46366 0.0
C2199 C 0.23224 0.88747 0.45805 0.0
C2200 C 0.22371 0.87751 0.46998 0.0
C2201 C 0.25326 0.9097 0.45088 0.0
C2202 C 0.24872 0.9181 0.44286 0.0
C2203 C 0.26633 0.91143 0.44679 0.0
C2204 C 0.27167 0.90288 0.45496 0.0
C2205 C 0.26438 0.88837 0.45342 0.0
C2206 C 0.26951 0.8804 0.46116 0.0
C2207 C 0.28198 0.88683 0.47035 0.0
C2208 C 0.28937 0.90125 0.47177 0.0
C2209 C 0.28427 0.90927 0.46407 0.0
H2210 H 0.28593 0.88064 0.47632 0.0
H2211 H 0.23929 0.96198 0.40535 0.0
H2212 H 0.03838 0.35192 0.39463 0.0
H2213 H 0.05245 0.35299 0.41951 0.0
H2214 H 0.07281 0.33628 0.3883 0.0
H2215 H 0.0573 0.33346 0.36421 0.0
H2216 H 0.06622 0.32287 0.41491 0.0
H2217 H 0.09842 0.3785 0.41993 0.0
H2218 H 0.10137 0.40187 0.42421 0.0
H2219 H 0.0635 0.38445 0.45252 0.0
H2220 H 0.0608 0.36112 0.44922 0.0
H2221 H 0.12608 0.33714 0.46258 0.0
H2222 H 0.10874 0.33606 0.44219 0.0
H2223 H 0.08895 0.34573 0.48335 0.0
H2224 H 0.10629 0.34677 0.50393 0.0
H2225 H 0.09227 0.36139 0.45608 0.0
H2226 H 0.07369 0.31327 0.46554 0.0
H2227 H 0.07369 0.29111 0.46808 0.0
H2228 H 0.08511 0.29371 0.4147 0.0
H2229 H 0.08538 0.31599 0.4119 0.0
C2230 C 0.0461 0.34877 0.39309 0.0
C2231 C 0.04695 0.34281 0.3775 0.0
C2232 C 0.05438 0.34962 0.40731 0.0
C2233 C 0.0641 0.34505 0.406 0.0
C2234 C 0.0654 0.33983 0.38992 0.0
C2235 C 0.05664 0.33832 0.37604 0.0
C2236 C 0.07167 0.34388 0.4215 0.0
C2237 C 0.07208 0.33146 0.42366 0.0
C2238 C 0.07868 0.35458 0.43391 0.0
C2239 C 0.07901 0.36803 0.43348 0.0
C2240 C 0.09058 0.37966 0.42672 0.0
C2241 C 0.09237 0.39292 0.42931 0.0
C2242 C 0.08253 0.39463 0.43842 0.0
C2243 C 0.07101 0.38311 0.44524 0.0
C2244 C 0.0694 0.36988 0.44312 0.0
C2245 C 0.1179 0.33879 0.46739 0.0
C2246 C 0.11756 0.34201 0.48491 0.0
C2247 C 0.10798 0.33816 0.4557 0.0
C2248 C 0.09743 0.34064 0.46126 0.0
C2249 C 0.09698 0.34376 0.47877 0.0
C2250 C 0.10693 0.34441 0.49049 0.0
C2251 C 0.08746 0.34086 0.44854 0.0
C2252 C 0.08645 0.35291 0.44714 0.0
C2253 C 0.07983 0.3298 0.43695 0.0
C2254 C 0.07964 0.31636 0.43855 0.0
C2255 C 0.0763 0.30917 0.45438 0.0
C2256 C 0.07624 0.29658 0.45585 0.0
C2257 C 0.07943 0.29102 0.44157 0.0
C2258 C 0.08265 0.29803 0.42576 0.0
C2259 C 0.08274 0.31064 0.42422 0.0
H2260 H 0.07937 0.28127 0.44274 0.0
H2261 H 0.08387 0.40489 0.44027 0.0
H2262 H 0.03007 0.31581 0.30434 0.0
H2263 H 0.04078 0.30947 0.2812 0.0
H2264 H 0.0697 0.35263 0.27242 0.0
H2265 H 0.05904 0.35909 0.29532 0.0
H2266 H 0.06153 0.33848 0.24206 0.0
H2267 H 0.07849 0.33383 0.29793 0.0
H2268 H 0.07608 0.32491 0.32771 0.0
H2269 H 0.057 0.28326 0.30829 0.0
H2270 H 0.0591 0.29193 0.27838 0.0
H2271 H 0.12276 0.32527 0.2286 0.0
H2272 H 0.1063 0.32726 0.24721 0.0
H2273 H 0.07593 0.31158 0.20609 0.0
H2274 H 0.09267 0.31026 0.187 0.0
H2275 H 0.08258 0.31003 0.26022 0.0
H2276 H 0.05535 0.32639 0.20939 0.0
H2277 H 0.05976 0.33758 0.1807 0.0
H2278 H 0.10322 0.3597 0.19178 0.0
H2279 H 0.09905 0.34876 0.22059 0.0
C2280 C 0.03856 0.32398 0.29731 0.0
C2281 C 0.04376 0.33797 0.30185 0.0
C2282 C 0.0447 0.32032 0.2841 0.0
C2283 C 0.05614 0.33057 0.27521 0.0
C2284 C 0.06088 0.34455 0.27909 0.0
C2285 C 0.0548 0.34821 0.29229 0.0
C2286 C 0.06391 0.32683 0.26285 0.0
C2287 C 0.06601 0.33213 0.24595 0.0
C2288 C 0.06995 0.31874 0.268 0.0
C2289 C 0.0688 0.31351 0.28595 0.0
C2290 C 0.07369 0.32276 0.30002 0.0
C2291 C 0.07239 0.31776 0.31692 0.0
C2292 C 0.06636 0.30352 0.3199 0.0
C2293 C 0.06165 0.29427 0.30597 0.0
C2294 C 0.06289 0.29923 0.28904 0.0
C2295 C 0.11263 0.32237 0.2234 0.0
C2296 C 0.10914 0.31781 0.20618 0.0
C2297 C 0.10316 0.32335 0.23416 0.0
C2298 C 0.08991 0.31973 0.22803 0.0
C2299 C 0.08616 0.31465 0.21105 0.0
C2300 C 0.09571 0.31377 0.2002 0.0
C2301 C 0.08032 0.32176 0.23939 0.0
C2302 C 0.07788 0.31614 0.25615 0.0
C2303 C 0.07426 0.32985 0.23422 0.0
C2304 C 0.07689 0.33663 0.21704 0.0
C2305 C 0.06584 0.33367 0.20571 0.0
C2306 C 0.06829 0.33996 0.18943 0.0
C2307 C 0.08176 0.3493 0.18441 0.0
C2308 C 0.0928 0.35242 0.19567 0.0
C2309 C 0.09039 0.34617 0.21196 0.0
H2310 H 0.08363 0.35416 0.17182 0.0
H2311 H 0.06536 0.29966 0.33299 0.0
H2312 H 0.68765 0.71308 0.29815 0.0
H2313 H 0.68939 0.72964 0.27624 0.0
H2314 H 0.65283 0.72833 0.29697 0.0
H2315 H 0.65329 0.71441 0.32102 0.0
H2316 H 0.67747 0.72931 0.25163 0.0
H2317 H 0.64409 0.74801 0.28112 0.0
H2318 H 0.63755 0.75421 0.30876 0.0
H2319 H 0.67855 0.76899 0.32857 0.0
H2320 H 0.68521 0.76264 0.301 0.0
H2321 H 0.66821 0.76989 0.18666 0.0
H2322 H 0.66437 0.75293 0.20925 0.0
H2323 H 0.69015 0.786 0.24436 0.0
H2324 H 0.69324 0.80299 0.22236 0.0
H2325 H 0.66837 0.76828 0.26042 0.0
H2326 H 0.70116 0.76477 0.22319 0.0
H2327 H 0.70954 0.76097 0.19542 0.0
H2328 H 0.67433 0.7202 0.19189 0.0
H2329 H 0.66567 0.72382 0.21957 0.0
C2330 C 0.68074 0.71729 0.29874 0.0
C2331 C 0.67121 0.71353 0.31215 0.0
C2332 C 0.68133 0.72637 0.28578 0.0
C2333 C 0.67154 0.73094 0.28499 0.0
C2334 C 0.66121 0.72609 0.29769 0.0
C2335 C 0.66128 0.7178 0.31134 0.0
C2336 C 0.67192 0.74012 0.27042 0.0
C2337 C 0.67564 0.73791 0.25381 0.0
C2338 C 0.66907 0.75118 0.2726 0.0
C2339 C 0.66506 0.75456 0.2893 0.0
C2340 C 0.65166 0.75246 0.29146 0.0
C2341 C 0.64792 0.75596 0.30709 0.0
C2342 C 0.65759 0.76181 0.3205 0.0
C2343 C 0.67102 0.7642 0.31829 0.0
C2344 C 0.67476 0.76057 0.30274 0.0
C2345 C 0.67297 0.77357 0.19923 0.0
C2346 C 0.68108 0.78786 0.20261 0.0
C2347 C 0.67089 0.76384 0.21209 0.0
C2348 C 0.67709 0.76817 0.22848 0.0
C2349 C 0.68526 0.78239 0.23182 0.0
C2350 C 0.68719 0.79211 0.2191 0.0
C2351 C 0.67495 0.75802 0.24237 0.0
C2352 C 0.6705 0.75982 0.25858 0.0
C2353 C 0.67748 0.74685 0.23993 0.0
C2354 C 0.6827 0.74462 0.22335 0.0
C2355 C 0.69516 0.75503 0.21643 0.0
C2356 C 0.69997 0.75291 0.20072 0.0
C2357 C 0.69245 0.74037 0.19187 0.0
C2358 C 0.68013 0.72991 0.19875 0.0
C2359 C 0.67528 0.73199 0.21445 0.0
H2360 H 0.69619 0.73874 0.1797 0.0
H2361 H 0.65471 0.76461 0.33256 0.0
H2362 H 0.30094 0.93955 0.30077 0.0
H2363 H 0.28517 0.92926 0.27609 0.0
H2364 H 0.26546 0.95319 0.28847 0.0
H2365 H 0.28134 0.96375 0.31295 0.0
H2366 H 0.2474 0.92316 0.28403 0.0
H2367 H 0.28379 0.96301 0.25559 0.0
H2368 H 0.30791 0.97861 0.2472 0.0
H2369 H 0.30909 0.94498 0.22146 0.0
H2370 H 0.28503 0.92911 0.22992 0.0
H2371 H 0.2018 0.9027 0.21331 0.0
H2372 H 0.21944 0.91718 0.23428 0.0
H2373 H 0.24682 0.90374 0.21383 0.0
H2374 H 0.22966 0.8901 0.19184 0.0
H2375 H 0.26136 0.92934 0.22241 0.0
H2376 H 0.22666 0.88916 0.25124 0.0
H2377 H 0.20316 0.87215 0.26044 0.0
H2378 H 0.19941 0.90426 0.28646 0.0
H2379 H 0.22284 0.9215 0.27721 0.0
C2380 C 0.29332 0.9427 0.29815 0.0
C2381 C 0.29239 0.95247 0.3088 0.0
C2382 C 0.28436 0.93685 0.28404 0.0
C2383 C 0.2742 0.94051 0.28049 0.0
C2384 C 0.27327 0.95028 0.29101 0.0
C2385 C 0.28239 0.95633 0.30493 0.0
C2386 C 0.26415 0.93367 0.26624 0.0
C2387 C 0.25037 0.92466 0.27052 0.0
C2388 C 0.2682 0.93531 0.24873 0.0
C2389 C 0.28265 0.94484 0.24354 0.0
C2390 C 0.28923 0.95891 0.24828 0.0
C2391 C 0.30288 0.96781 0.24348 0.0
C2392 C 0.31004 0.96278 0.23383 0.0
C2393 C 0.30354 0.94885 0.22894 0.0
C2394 C 0.28989 0.9399 0.23372 0.0
C2395 C 0.21168 0.90305 0.21292 0.0
C2396 C 0.21418 0.89504 0.2009 0.0
C2397 C 0.22171 0.9112 0.22515 0.0
C2398 C 0.23435 0.91128 0.22599 0.0
C2399 C 0.23711 0.90376 0.21359 0.0
C2400 C 0.22718 0.8958 0.20114 0.0
C2401 C 0.24447 0.91877 0.24012 0.0
C2402 C 0.2583 0.92786 0.23588 0.0
C2403 C 0.24053 0.91698 0.25776 0.0
C2404 C 0.22645 0.90664 0.26337 0.0
C2405 C 0.22079 0.89261 0.25882 0.0
C2406 C 0.20749 0.88292 0.26406 0.0
C2407 C 0.19978 0.88713 0.27399 0.0
C2408 C 0.20538 0.90103 0.27874 0.0
C2409 C 0.21867 0.91075 0.27351 0.0
H2410 H 0.18949 0.87962 0.27804 0.0
H2411 H 0.32059 0.9697 0.2301 0.0
H2412 H 0.6579 0.93934 0.31868 0.0
H2413 H 0.65821 0.92467 0.2956 0.0
H2414 H 0.69129 0.96054 0.27093 0.0
H2415 H 0.68904 0.97533 0.29247 0.0
H2416 H 0.67709 0.94721 0.24766 0.0
H2417 H 0.69501 0.92724 0.29245 0.0
H2418 H 0.69476 0.91684 0.32098 0.0
H2419 H 0.65196 0.88702 0.31364 0.0
H2420 H 0.65213 0.89718 0.28506 0.0
H2421 H 0.70034 0.90957 0.19548 0.0
H2422 H 0.6975 0.92388 0.21741 0.0
H2423 H 0.65667 0.89043 0.22835 0.0
H2424 H 0.65946 0.87608 0.20653 0.0
H2425 H 0.67312 0.90124 0.25761 0.0
H2426 H 0.65959 0.91772 0.20794 0.0
H2427 H 0.66212 0.92741 0.17858 0.0
H2428 H 0.69891 0.96416 0.19456 0.0
H2429 H 0.69672 0.9546 0.22397 0.0
C2430 C 0.66537 0.94402 0.30842 0.0
C2431 C 0.67408 0.95842 0.30791 0.0
C2432 C 0.66575 0.93556 0.29531 0.0
C2433 C 0.67522 0.94123 0.28168 0.0
C2434 C 0.68395 0.9557 0.28127 0.0
C2435 C 0.68302 0.96421 0.2939 0.0
C2436 C 0.67529 0.93236 0.26712 0.0
C2437 C 0.67653 0.93731 0.25003 0.0
C2438 C 0.67388 0.91904 0.26971 0.0
C2439 C 0.67351 0.91324 0.28704 0.0
C2440 C 0.68553 0.91866 0.2972 0.0
C2441 C 0.68542 0.91274 0.31324 0.0
C2442 C 0.67329 0.90142 0.31924 0.0
C2443 C 0.66131 0.89586 0.30906 0.0
C2444 C 0.66144 0.90165 0.29292 0.0
C2445 C 0.69073 0.90532 0.2025 0.0
C2446 C 0.68012 0.89172 0.19931 0.0
C2447 C 0.68909 0.91353 0.21491 0.0
C2448 C 0.67684 0.90823 0.22441 0.0
C2449 C 0.66617 0.89472 0.22109 0.0
C2450 C 0.66775 0.88657 0.20857 0.0
C2451 C 0.67551 0.91644 0.23859 0.0
C2452 C 0.67384 0.91125 0.25546 0.0
C2453 C 0.67675 0.92958 0.23578 0.0
C2454 C 0.67805 0.93538 0.21812 0.0
C2455 C 0.66829 0.92782 0.20516 0.0
C2456 C 0.66965 0.9333 0.18852 0.0
C2457 C 0.68069 0.94638 0.1847 0.0
C2458 C 0.69037 0.95402 0.19753 0.0
C2459 C 0.68907 0.94858 0.2142 0.0
H2460 H 0.68172 0.9506 0.1718 0.0
H2461 H 0.67322 0.89687 0.33168 0.0
H2462 H 0.06449 0.70553 0.3015 0.0
H2463 H 0.07543 0.7227 0.2788 0.0
H2464 H 0.04289 0.73301 0.2814 0.0
H2465 H 0.0317 0.71569 0.30422 0.0
H2466 H 0.0512 0.73243 0.2475 0.0
H2467 H 0.07198 0.75295 0.30181 0.0
H2468 H 0.08321 0.75464 0.33005 0.0
H2469 H 0.11728 0.75461 0.30459 0.0
H2470 H 0.10614 0.75264 0.27621 0.0
H2471 H 0.09196 0.79641 0.20197 0.0
H2472 H 0.07747 0.77911 0.22339 0.0
H2473 H 0.10779 0.76584 0.22858 0.0
H2474 H 0.12246 0.78333 0.20767 0.0
H2475 H 0.0993 0.76915 0.2596 0.0
H2476 H 0.07775 0.74686 0.20565 0.0
H2477 H 0.06656 0.74497 0.17734 0.0
H2478 H 0.03407 0.74847 0.20212 0.0
H2479 H 0.04518 0.75057 0.23058 0.0
C2480 C 0.05951 0.71129 0.29717 0.0
C2481 C 0.04725 0.70929 0.30486 0.0
C2482 C 0.06583 0.72115 0.2842 0.0
C2483 C 0.06011 0.72931 0.27866 0.0
C2484 C 0.04751 0.72687 0.28558 0.0
C2485 C 0.04114 0.71696 0.29862 0.0
C2486 C 0.06775 0.74077 0.26625 0.0
C2487 C 0.06163 0.7406 0.25023 0.0
C2488 C 0.08142 0.75133 0.26978 0.0
C2489 C 0.08817 0.75255 0.28686 0.0
C2490 C 0.08181 0.75318 0.30223 0.0
C2491 C 0.08817 0.75421 0.31827 0.0
C2492 C 0.10095 0.75474 0.3191 0.0
C2493 C 0.10738 0.75421 0.30392 0.0
C2494 C 0.10105 0.75314 0.28785 0.0
C2495 C 0.09555 0.78984 0.20773 0.0
C2496 C 0.10835 0.79122 0.20304 0.0
C2497 C 0.08721 0.77988 0.21986 0.0
C2498 C 0.09149 0.7711 0.2275 0.0
C2499 C 0.10425 0.77247 0.22284 0.0
C2500 C 0.11257 0.7824 0.21074 0.0
C2501 C 0.08291 0.76064 0.24063 0.0
C2502 C 0.08883 0.76105 0.25688 0.0
C2503 C 0.06908 0.75033 0.2373 0.0
C2504 C 0.06238 0.74903 0.22021 0.0
C2505 C 0.06828 0.74734 0.20504 0.0
C2506 C 0.06194 0.74621 0.18897 0.0
C2507 C 0.04963 0.74664 0.18792 0.0
C2508 C 0.04362 0.74816 0.20295 0.0
C2509 C 0.04993 0.74932 0.21905 0.0
H2510 H 0.04474 0.74576 0.17547 0.0
H2511 H 0.10589 0.75559 0.3315 0.0
H2512 H 0.29926 0.31716 0.29486 0.0
H2513 H 0.2846 0.31329 0.26917 0.0
H2514 H 0.27228 0.34167 0.28954 0.0
H2515 H 0.28654 0.34517 0.31543 0.0
H2516 H 0.25511 0.3036 0.26862 0.0
H2517 H 0.27236 0.36106 0.25385 0.0
H2518 H 0.29332 0.38391 0.25648 0.0
H2519 H 0.31858 0.36469 0.25362 0.0
H2520 H 0.29779 0.34176 0.25069 0.0
H2521 H 0.20588 0.31646 0.22673 0.0
H2522 H 0.22402 0.31721 0.24559 0.0
H2523 H 0.24916 0.32244 0.20102 0.0
H2524 H 0.23084 0.32144 0.18199 0.0
H2525 H 0.26259 0.34215 0.22944 0.0
H2526 H 0.23698 0.29348 0.21833 0.0
H2527 H 0.2162 0.27049 0.21601 0.0
H2528 H 0.20833 0.27159 0.27012 0.0
H2529 H 0.22892 0.2947 0.2727 0.0
C2530 C 0.29315 0.32229 0.29396 0.0
C2531 C 0.29348 0.33098 0.30733 0.0
C2532 C 0.28495 0.32021 0.27925 0.0
C2533 C 0.27739 0.3272 0.27752 0.0
C2534 C 0.27807 0.33621 0.29067 0.0
C2535 C 0.28613 0.33816 0.30543 0.0
C2536 C 0.26853 0.32496 0.26217 0.0
C2537 C 0.25678 0.31196 0.25996 0.0
C2538 C 0.27091 0.33588 0.25075 0.0
C2539 C 0.28349 0.34967 0.25218 0.0
C2540 C 0.28238 0.36171 0.25368 0.0
C2541 C 0.29424 0.37468 0.25525 0.0
C2542 C 0.30727 0.37575 0.25527 0.0
C2543 C 0.30848 0.36385 0.25367 0.0
C2544 C 0.29666 0.35086 0.25208 0.0
C2545 C 0.21525 0.31769 0.22098 0.0
C2546 C 0.21703 0.31891 0.20297 0.0
C2547 C 0.22555 0.31807 0.23172 0.0
C2548 C 0.23787 0.31984 0.22465 0.0
C2549 C 0.23969 0.32104 0.20666 0.0
C2550 C 0.22925 0.32041 0.19585 0.0
C2551 C 0.24892 0.32087 0.23632 0.0
C2552 C 0.26104 0.33369 0.23791 0.0
C2553 C 0.2469 0.30976 0.24719 0.0
C2554 C 0.23446 0.29588 0.24567 0.0
C2555 C 0.23075 0.28888 0.2297 0.0
C2556 C 0.21901 0.27582 0.22834 0.0
C2557 C 0.21093 0.26959 0.2429 0.0
C2558 C 0.21459 0.27642 0.25885 0.0
C2559 C 0.22631 0.2895 0.26027 0.0
H2560 H 0.20185 0.25947 0.24182 0.0
H2561 H 0.31642 0.38579 0.25649 0.0
H2562 H 0.26948 0.31295 0.38247 0.0
H2563 H 0.25823 0.31864 0.40528 0.0
H2564 H 0.29277 0.36015 0.40794 0.0
H2565 H 0.30434 0.35449 0.38511 0.0
H2566 H 0.28347 0.34921 0.44026 0.0
H2567 H 0.26408 0.3549 0.38786 0.0
H2568 H 0.25344 0.34846 0.35883 0.0
H2569 H 0.21814 0.31314 0.38016 0.0
H2570 H 0.22867 0.31924 0.4093 0.0
H2571 H 0.24237 0.37051 0.49003 0.0
H2572 H 0.25725 0.36894 0.46796 0.0
H2573 H 0.22761 0.32579 0.46012 0.0
H2574 H 0.21268 0.32731 0.48197 0.0
H2575 H 0.23594 0.34073 0.42956 0.0
H2576 H 0.25658 0.33443 0.48165 0.0
H2577 H 0.26754 0.34103 0.51051 0.0
H2578 H 0.30072 0.37831 0.4894 0.0
H2579 H 0.28985 0.37202 0.46044 0.0
C2580 C 0.27477 0.32331 0.38786 0.0
C2581 C 0.28782 0.33329 0.38182 0.0
C2582 C 0.26827 0.32655 0.4009 0.0
C2583 C 0.27456 0.33988 0.40811 0.0
C2584 C 0.28772 0.34981 0.40247 0.0
C2585 C 0.29428 0.34657 0.38939 0.0
C2586 C 0.26718 0.3433 0.42138 0.0
C2587 C 0.27318 0.34762 0.43785 0.0
C2588 C 0.2537 0.34109 0.41824 0.0
C2589 C 0.24722 0.33748 0.40076 0.0
C2590 C 0.25409 0.34571 0.38635 0.0
C2591 C 0.24807 0.34212 0.36987 0.0
C2592 C 0.23514 0.33039 0.36764 0.0
C2593 C 0.22817 0.32223 0.3819 0.0
C2594 C 0.23415 0.32575 0.39841 0.0
C2595 C 0.23908 0.36069 0.48363 0.0
C2596 C 0.22639 0.34902 0.48775 0.0
C2597 C 0.24761 0.35979 0.47111 0.0
C2598 C 0.24352 0.34725 0.46245 0.0
C2599 C 0.23094 0.33557 0.46667 0.0
C2600 C 0.22248 0.33642 0.47926 0.0
C2601 C 0.25208 0.34628 0.44855 0.0
C2602 C 0.24629 0.34247 0.43192 0.0
C2603 C 0.26577 0.34907 0.45153 0.0
C2604 C 0.27232 0.35284 0.46892 0.0
C2605 C 0.26615 0.3441 0.48319 0.0
C2606 C 0.27235 0.34777 0.49956 0.0
C2607 C 0.28479 0.3601 0.5018 0.0
C2608 C 0.29107 0.36877 0.48765 0.0
C2609 C 0.28489 0.36516 0.47126 0.0
H2610 H 0.28959 0.36292 0.51448 0.0
H2611 H 0.2305 0.32762 0.35487 0.0
H2612 H 0.6541 0.95617 0.3837 0.0
H2613 H 0.64896 0.94024 0.408 0.0
H2614 H 0.6913 0.94928 0.40926 0.0
H2615 H 0.69653 0.96506 0.38493 0.0
H2616 H 0.67391 0.92198 0.40893 0.0
H2617 H 0.67836 0.96119 0.44074 0.0
H2618 H 0.67328 0.97989 0.44764 0.0
H2619 H 0.63084 0.94988 0.45637 0.0
H2620 H 0.63563 0.93099 0.44929 0.0
H2621 H 0.67438 0.88811 0.48548 0.0
H2622 H 0.67883 0.90635 0.46459 0.0
H2623 H 0.63585 0.89507 0.46513 0.0
H2624 H 0.63137 0.87705 0.48658 0.0
H2625 H 0.65257 0.92316 0.46453 0.0
H2626 H 0.64791 0.88407 0.4328 0.0
H2627 H 0.65268 0.86519 0.42571 0.0
H2628 H 0.69512 0.89486 0.41634 0.0
H2629 H 0.69065 0.91392 0.42363 0.0
C2630 C 0.66238 0.95492 0.38927 0.0
C2631 C 0.67573 0.96188 0.38226 0.0
C2632 C 0.65942 0.94583 0.40322 0.0
C2633 C 0.66975 0.94359 0.41048 0.0
C2634 C 0.68315 0.95082 0.40383 0.0
C2635 C 0.68612 0.95988 0.38992 0.0
C2636 C 0.6665 0.93311 0.42427 0.0
C2637 C 0.66943 0.92237 0.42119 0.0
C2638 C 0.66023 0.93334 0.44002 0.0
C2639 C 0.65733 0.94468 0.44431 0.0
C2640 C 0.66792 0.95858 0.44398 0.0
C2641 C 0.6651 0.96921 0.44796 0.0
C2642 C 0.65174 0.96608 0.4524 0.0
C2643 C 0.64118 0.95229 0.45291 0.0
C2644 C 0.64395 0.94162 0.44893 0.0
C2645 C 0.6659 0.88965 0.48142 0.0
C2646 C 0.65249 0.88107 0.48768 0.0
C2647 C 0.66844 0.9 0.46934 0.0
C2648 C 0.65764 0.90193 0.46311 0.0
C2649 C 0.64433 0.89371 0.46971 0.0
C2650 C 0.64176 0.88334 0.48184 0.0
C2651 C 0.6602 0.91221 0.44926 0.0
C2652 C 0.65707 0.92282 0.45228 0.0
C2653 C 0.66625 0.91186 0.43338 0.0
C2654 C 0.66897 0.90042 0.42892 0.0
C2655 C 0.65828 0.88656 0.42936 0.0
C2656 C 0.66093 0.87583 0.42528 0.0
C2657 C 0.6742 0.87882 0.42062 0.0
C2658 C 0.68485 0.89256 0.41998 0.0
C2659 C 0.68226 0.90333 0.42407 0.0
H2660 H 0.67623 0.87049 0.41746 0.0
H2661 H 0.64958 0.97432 0.45547 0.0
H2662 H 0.04959 0.72996 0.36871 0.0
H2663 H 0.06421 0.74471 0.39199 0.0
H2664 H 0.0646 0.70947 0.41538 0.0
H2665 H 0.04776 0.69445 0.39384 0.0
H2666 H 0.06393 0.72227 0.43917 0.0
H2667 H 0.10122 0.74507 0.39365 0.0
H2668 H 0.10953 0.75589 0.36497 0.0
H2669 H 0.0916 0.78191 0.37317 0.0
H2670 H 0.08341 0.77129 0.40191 0.0
H2671 H 0.13749 0.77911 0.46873 0.0
H2672 H 0.12079 0.76479 0.44686 0.0
H2673 H 0.0876 0.76023 0.47953 0.0
H2674 H 0.10427 0.77373 0.50216 0.0
H2675 H 0.10403 0.76869 0.42843 0.0
H2676 H 0.05814 0.73027 0.4697 0.0
H2677 H 0.05363 0.71906 0.49837 0.0
H2678 H 0.09387 0.72277 0.49869 0.0
H2679 H 0.09853 0.73385 0.46995 0.0
C2680 C 0.05297 0.72544 0.37875 0.0
C2681 C 0.04828 0.71115 0.37886 0.0
C2682 C 0.06163 0.73397 0.39195 0.0
C2683 C 0.06631 0.72855 0.40522 0.0
C2684 C 0.06144 0.71416 0.40531 0.0
C2685 C 0.05214 0.70554 0.39265 0.0
C2686 C 0.07544 0.73752 0.4196 0.0
C2687 C 0.07274 0.73237 0.43666 0.0
C2688 C 0.08688 0.75091 0.41681 0.0
C2689 C 0.09126 0.75699 0.39943 0.0
C2690 C 0.09881 0.75285 0.38903 0.0
C2691 C 0.10361 0.75904 0.3729 0.0
C2692 C 0.10087 0.7694 0.3671 0.0
C2693 C 0.09358 0.77377 0.37758 0.0
C2694 C 0.08893 0.76773 0.39381 0.0
C2695 C 0.12664 0.7748 0.47154 0.0
C2696 C 0.12229 0.77752 0.48739 0.0
C2697 C 0.11707 0.76675 0.45885 0.0
C2698 C 0.10289 0.76133 0.46152 0.0
C2699 C 0.09846 0.7641 0.47723 0.0
C2700 C 0.10805 0.77199 0.4901 0.0
C2701 C 0.09292 0.75305 0.4476 0.0
C2702 C 0.09527 0.7585 0.43079 0.0
C2703 C 0.08147 0.73978 0.45056 0.0
C2704 C 0.07873 0.73304 0.46778 0.0
C2705 C 0.066 0.72866 0.47589 0.0
C2706 C 0.06342 0.72233 0.49214 0.0
C2707 C 0.07348 0.72025 0.50037 0.0
C2708 C 0.08611 0.72445 0.49233 0.0
C2709 C 0.08873 0.73076 0.47607 0.0
H2710 H 0.07146 0.71536 0.51296 0.0
H2711 H 0.10454 0.77415 0.35458 0.0
H2712 H 0.3573 0.06536 0.72062 0.0
H2713 H 0.35109 0.07531 0.74462 0.0
H2714 H 0.30862 0.04315 0.73968 0.0
H2715 H 0.31479 0.03292 0.71573 0.0
H2716 H 0.33508 0.08629 0.74374 0.0
H2717 H 0.29298 0.0382 0.77948 0.0
H2718 H 0.28702 0.01405 0.78563 0.0
H2719 H 0.32954 0.02495 0.78063 0.0
H2720 H 0.33578 0.04919 0.77469 0.0
H2721 H 0.30017 0.10884 0.79808 0.0
H2722 H 0.30386 0.09442 0.77743 0.0
H2723 H 0.32472 0.08389 0.81692 0.0
H2724 H 0.32052 0.09781 0.83794 0.0
H2725 H 0.30935 0.06185 0.79642 0.0
H2726 H 0.34305 0.10973 0.78866 0.0
H2727 H 0.35113 0.13454 0.78393 0.0
H2728 H 0.32942 0.12513 0.73529 0.0
H2729 H 0.32105 0.10023 0.73986 0.0
C2730 C 0.34664 0.06027 0.72471 0.0
C2731 C 0.33653 0.04834 0.71616 0.0
C2732 C 0.34311 0.06601 0.73844 0.0
C2733 C 0.3294 0.06 0.74397 0.0
C2734 C 0.31931 0.04789 0.73578 0.0
C2735 C 0.32285 0.04207 0.72206 0.0
C2736 C 0.32565 0.06693 0.75761 0.0
C2737 C 0.32943 0.08091 0.75524 0.0
C2738 C 0.31843 0.06 0.77273 0.0
C2739 C 0.31481 0.04547 0.77645 0.0
C2740 C 0.30106 0.03545 0.77975 0.0
C2741 C 0.29763 0.02174 0.78319 0.0
C2742 C 0.30788 0.01796 0.78346 0.0
C2743 C 0.3216 0.02788 0.78035 0.0
C2744 C 0.32508 0.0416 0.77691 0.0
C2745 C 0.30525 0.1032 0.80254 0.0
C2746 C 0.31015 0.1046 0.81967 0.0
C2747 C 0.30746 0.09506 0.79065 0.0
C2748 C 0.31477 0.08827 0.79556 0.0
C2749 C 0.31911 0.08909 0.81283 0.0
C2750 C 0.31683 0.09718 0.82477 0.0
C2751 C 0.3187 0.08113 0.78242 0.0
C2752 C 0.31493 0.06716 0.78487 0.0
C2753 C 0.32623 0.08813 0.76751 0.0
C2754 C 0.33132 0.10311 0.76468 0.0
C2755 C 0.33992 0.11294 0.77702 0.0
C2756 C 0.34456 0.12703 0.77435 0.0
C2757 C 0.34076 0.13141 0.75934 0.0
C2758 C 0.33234 0.12172 0.74693 0.0
C2759 C 0.32765 0.10762 0.74954 0.0
H2760 H 0.34437 0.14232 0.7573 0.0
H2761 H 0.30521 0.00734 0.78612 0.0
H2762 H 0.9363 0.27822 0.70008 0.0
H2763 H 0.92267 0.26317 0.72402 0.0
H2764 H 0.95998 0.27633 0.75394 0.0
H2765 H 0.97355 0.29132 0.73002 0.0
H2766 H 0.92412 0.24127 0.73928 0.0
H2767 H 0.95194 0.2781 0.79661 0.0
H2768 H 0.96488 0.30319 0.80268 0.0
H2769 H 0.94293 0.31053 0.76177 0.0
H2770 H 0.92973 0.28548 0.75562 0.0
H2771 H 0.90654 0.20424 0.81859 0.0
H2772 H 0.92051 0.22078 0.79628 0.0
H2773 H 0.8962 0.24114 0.80043 0.0
H2774 H 0.88187 0.22441 0.82233 0.0
H2775 H 0.92475 0.25968 0.79791 0.0
H2776 H 0.88894 0.21914 0.76925 0.0
H2777 H 0.87546 0.19419 0.76267 0.0
H2778 H 0.91208 0.19453 0.74512 0.0
H2779 H 0.92584 0.21945 0.75188 0.0
C2780 C 0.94152 0.27779 0.71177 0.0
C2781 C 0.95592 0.2855 0.71314 0.0
C2782 C 0.93378 0.26923 0.72538 0.0
C2783 C 0.94033 0.26865 0.74072 0.0
C2784 C 0.95473 0.27667 0.74224 0.0
C2785 C 0.96246 0.2851 0.72856 0.0
C2786 C 0.93212 0.25958 0.75511 0.0
C2787 C 0.92431 0.24529 0.7521 0.0
C2788 C 0.93224 0.26487 0.77179 0.0
C2789 C 0.93995 0.27993 0.77556 0.0
C2790 C 0.94984 0.28507 0.78896 0.0
C2791 C 0.95722 0.29928 0.79241 0.0
C2792 C 0.95476 0.30845 0.78258 0.0
C2793 C 0.94487 0.30342 0.76933 0.0
C2794 C 0.93745 0.28922 0.76584 0.0
C2795 C 0.90412 0.21221 0.81475 0.0
C2796 C 0.89297 0.21289 0.82217 0.0
C2797 C 0.91218 0.2217 0.80207 0.0
C2798 C 0.9093 0.23209 0.79663 0.0
C2799 C 0.8986 0.2332 0.80451 0.0
C2800 C 0.89046 0.22365 0.81709 0.0
C2801 C 0.91698 0.24136 0.78211 0.0
C2802 C 0.92468 0.25567 0.78511 0.0
C2803 C 0.91671 0.2361 0.76536 0.0
C2804 C 0.90844 0.22113 0.76126 0.0
C2805 C 0.89415 0.21387 0.76415 0.0
C2806 C 0.88645 0.19973 0.76036 0.0
C2807 C 0.89292 0.19277 0.75353 0.0
C2808 C 0.90709 0.19993 0.75044 0.0
C2809 C 0.91484 0.21406 0.75424 0.0
H2810 H 0.88694 0.18183 0.7506 0.0
H2811 H 0.9605 0.31945 0.78526 0.0
H2812 H 0.71382 0.65285 0.69938 0.0
H2813 H 0.72898 0.65439 0.72341 0.0
H2814 H 0.71618 0.67942 0.75209 0.0
H2815 H 0.70135 0.67822 0.72771 0.0
H2816 H 0.74259 0.6902 0.75491 0.0
H2817 H 0.70506 0.64475 0.76247 0.0
H2818 H 0.68754 0.62103 0.75416 0.0
H2819 H 0.71946 0.61164 0.74133 0.0
H2820 H 0.73719 0.63538 0.74933 0.0
H2821 H 0.77555 0.68395 0.8324 0.0
H2822 H 0.75797 0.68216 0.81168 0.0
H2823 H 0.77222 0.66324 0.77451 0.0
H2824 H 0.79011 0.66546 0.79473 0.0
H2825 H 0.74342 0.64906 0.77866 0.0
H2826 H 0.78083 0.69558 0.76968 0.0
H2827 H 0.79787 0.71943 0.77819 0.0
H2828 H 0.76521 0.72675 0.79428 0.0
H2829 H 0.74798 0.70285 0.78613 0.0
C2830 C 0.71432 0.6587 0.71083 0.0
C2831 C 0.70684 0.66579 0.71161 0.0
C2832 C 0.72286 0.65947 0.72462 0.0
C2833 C 0.72362 0.66689 0.73969 0.0
C2834 C 0.7158 0.67367 0.74061 0.0
C2835 C 0.70741 0.67305 0.72669 0.0
C2836 C 0.73297 0.66797 0.75417 0.0
C2837 C 0.74261 0.68119 0.76027 0.0
C2838 C 0.73308 0.6562 0.76115 0.0
C2839 C 0.72246 0.64189 0.75638 0.0
C2840 C 0.70835 0.63766 0.75776 0.0
C2841 C 0.69838 0.6242 0.75312 0.0
C2842 C 0.70238 0.61484 0.74719 0.0
C2843 C 0.71637 0.61891 0.74592 0.0
C2844 C 0.72639 0.63236 0.75052 0.0
C2845 C 0.77507 0.67957 0.81974 0.0
C2846 C 0.78424 0.67479 0.8153 0.0
C2847 C 0.76496 0.67848 0.80797 0.0
C2848 C 0.7638 0.67255 0.7916 0.0
C2849 C 0.77288 0.66775 0.78714 0.0
C2850 C 0.78306 0.66896 0.79879 0.0
C2851 C 0.75317 0.67131 0.77897 0.0
C2852 C 0.74329 0.65805 0.77331 0.0
C2853 C 0.75276 0.68303 0.77248 0.0
C2854 C 0.76313 0.69735 0.77756 0.0
C2855 C 0.77729 0.70221 0.77524 0.0
C2856 C 0.78698 0.71576 0.77995 0.0
C2857 C 0.78263 0.72458 0.78685 0.0
C2858 C 0.76857 0.71989 0.789 0.0
C2859 C 0.75884 0.70635 0.78434 0.0
H2860 H 0.79015 0.73507 0.79046 0.0
H2861 H 0.69465 0.60443 0.7436 0.0
H2862 H 0.69279 0.65137 0.62717 0.0
H2863 H 0.70363 0.64615 0.60302 0.0
H2864 H 0.74373 0.677 0.62175 0.0
H2865 H 0.73305 0.68266 0.64521 0.0
H2866 H 0.74322 0.67958 0.58913 0.0
H2867 H 0.72942 0.64036 0.62735 0.0
H2868 H 0.7129 0.62004 0.64411 0.0
H2869 H 0.69037 0.6007 0.59754 0.0
H2870 H 0.70667 0.621 0.58052 0.0
H2871 H 0.78995 0.65974 0.558 0.0
H2872 H 0.77364 0.66177 0.57688 0.0
H2873 H 0.74135 0.64102 0.53888 0.0
H2874 H 0.75779 0.63948 0.51937 0.0
H2875 H 0.735 0.6322 0.57702 0.0
H2876 H 0.75168 0.67162 0.53891 0.0
H2877 H 0.76981 0.69183 0.52356 0.0
H2878 H 0.78851 0.71077 0.57212 0.0
H2879 H 0.77061 0.69056 0.58776 0.0
C2880 C 0.70391 0.65703 0.62611 0.0
C2881 C 0.71202 0.66743 0.63817 0.0
C2882 C 0.71011 0.65399 0.61234 0.0
C2883 C 0.72454 0.66108 0.6106 0.0
C2884 C 0.73259 0.67141 0.62269 0.0
C2885 C 0.72643 0.67461 0.6362 0.0
C2886 C 0.73148 0.65803 0.59624 0.0
C2887 C 0.74141 0.6692 0.58658 0.0
C2888 C 0.72894 0.64446 0.5925 0.0
C2889 C 0.71916 0.63226 0.6027 0.0
C2890 C 0.72088 0.63182 0.62071 0.0
C2891 C 0.71157 0.6203 0.63024 0.0
C2892 C 0.70057 0.60911 0.6219 0.0
C2893 C 0.69888 0.60939 0.60399 0.0
C2894 C 0.70815 0.6209 0.59439 0.0
C2895 C 0.77944 0.65572 0.55348 0.0
C2896 C 0.77529 0.64964 0.53697 0.0
C2897 C 0.7701 0.65677 0.5644 0.0
C2898 C 0.75634 0.65161 0.55921 0.0
C2899 C 0.75194 0.64503 0.5431 0.0
C2900 C 0.76136 0.64413 0.532 0.0
C2901 C 0.7469 0.65379 0.57048 0.0
C2902 C 0.73655 0.6425 0.57946 0.0
C2903 C 0.74918 0.66727 0.57385 0.0
C2904 C 0.75986 0.67953 0.56449 0.0
C2905 C 0.75972 0.68004 0.54631 0.0
C2906 C 0.76994 0.69151 0.53756 0.0
C2907 C 0.78032 0.70257 0.54686 0.0
C2908 C 0.78047 0.7022 0.56493 0.0
C2909 C 0.77027 0.69075 0.57375 0.0
H2910 H 0.78823 0.71144 0.54006 0.0
H2911 H 0.69337 0.6002 0.62931 0.0
H2912 H 0.35158 0.04715 0.62693 0.0
H2913 H 0.3523 0.06219 0.60341 0.0
H2914 H 0.31648 0.06207 0.62464 0.0
H2915 H 0.31757 0.04928 0.64967 0.0
H2916 H 0.33787 0.05869 0.57906 0.0
H2917 H 0.30791 0.08134 0.61003 0.0
H2918 H 0.30533 0.09139 0.6373 0.0
H2919 H 0.34831 0.10748 0.64882 0.0
H2920 H 0.351 0.09728 0.62161 0.0
H2921 H 0.32004 0.11094 0.5315 0.0
H2922 H 0.3157 0.09303 0.55301 0.0
H2923 H 0.35731 0.10058 0.54714 0.0
H2924 H 0.36165 0.11839 0.52547 0.0
H2925 H 0.32969 0.0986 0.58357 0.0
H2926 H 0.35785 0.07045 0.55672 0.0
H2927 H 0.36208 0.06281 0.52862 0.0
H2928 H 0.32552 0.06113 0.50747 0.0
H2929 H 0.32093 0.06854 0.53551 0.0
C2930 C 0.34458 0.05127 0.62717 0.0
C2931 C 0.33527 0.048 0.64077 0.0
C2932 C 0.34464 0.0595 0.61339 0.0
C2933 C 0.33468 0.0638 0.61224 0.0
C2934 C 0.32486 0.05981 0.62548 0.0
C2935 C 0.32532 0.05225 0.63973 0.0
C2936 C 0.3341 0.07156 0.59665 0.0
C2937 C 0.33635 0.06758 0.58021 0.0
C2938 C 0.33133 0.08273 0.59765 0.0
C2939 C 0.3296 0.08827 0.61421 0.0
C2940 C 0.31676 0.08689 0.61852 0.0
C2941 C 0.31526 0.09258 0.63393 0.0
C2942 C 0.32662 0.0999 0.64491 0.0
C2943 C 0.33948 0.10157 0.64047 0.0
C2944 C 0.34097 0.09575 0.62517 0.0
C2945 C 0.32814 0.10853 0.53447 0.0
C2946 C 0.34121 0.11609 0.52688 0.0
C2947 C 0.32567 0.09835 0.54681 0.0
C2948 C 0.33616 0.09545 0.55161 0.0
C2949 C 0.34902 0.10255 0.54348 0.0
C2950 C 0.35153 0.11279 0.53122 0.0
C2951 C 0.3342 0.08615 0.56641 0.0
C2952 C 0.33127 0.08973 0.58256 0.0
C2953 C 0.33654 0.07478 0.56512 0.0
C2954 C 0.33911 0.07017 0.54822 0.0
C2955 C 0.35067 0.06839 0.54611 0.0
C2956 C 0.35314 0.0641 0.53018 0.0
C2957 C 0.34409 0.06151 0.51627 0.0
C2958 C 0.33254 0.06318 0.51825 0.0
C2959 C 0.33001 0.06744 0.53416 0.0
H2960 H 0.34602 0.05818 0.50395 0.0
H2961 H 0.32548 0.10438 0.65678 0.0
H2962 H 0.95282 0.30146 0.63583 0.0
H2963 H 0.93804 0.29236 0.61016 0.0
H2964 H 0.94645 0.25838 0.6081 0.0
H2965 H 0.96127 0.26737 0.63365 0.0
H2966 H 0.94648 0.26909 0.57563 0.0
H2967 H 0.91777 0.25369 0.62641 0.0
H2968 H 0.90876 0.25705 0.65393 0.0
H2969 H 0.89423 0.28175 0.62792 0.0
H2970 H 0.90335 0.27871 0.60027 0.0
H2971 H 0.88914 0.21548 0.53184 0.0
H2972 H 0.90743 0.23049 0.55188 0.0
H2973 H 0.8933 0.26034 0.54953 0.0
H2974 H 0.87505 0.24546 0.52915 0.0
H2975 H 0.89696 0.25457 0.58251 0.0
H2976 H 0.92324 0.26745 0.53079 0.0
H2977 H 0.93251 0.26419 0.50343 0.0
H2978 H 0.95166 0.2443 0.53086 0.0
H2979 H 0.94232 0.24722 0.55836 0.0
C2980 C 0.95166 0.29213 0.62983 0.0
C2981 C 0.95817 0.28509 0.63692 0.0
C2982 C 0.94318 0.28694 0.61517 0.0
C2983 C 0.94106 0.27463 0.60734 0.0
C2984 C 0.94796 0.2679 0.61395 0.0
C2985 C 0.95637 0.27303 0.62863 0.0
C2986 C 0.93105 0.26829 0.59288 0.0
C2987 C 0.93564 0.26583 0.57712 0.0
C2988 C 0.91697 0.26438 0.59474 0.0
C2989 C 0.91138 0.26611 0.61132 0.0
C2990 C 0.91275 0.25993 0.62658 0.0
C2991 C 0.90761 0.26176 0.6422 0.0
C2992 C 0.90096 0.26964 0.64268 0.0
C2993 C 0.8994 0.27567 0.62753 0.0
C2994 C 0.90456 0.2739 0.61188 0.0
C2995 C 0.89007 0.22536 0.53526 0.0
C2996 C 0.88061 0.22926 0.52884 0.0
C2997 C 0.90054 0.23393 0.54676 0.0
C2998 C 0.90181 0.2466 0.55208 0.0
C2999 C 0.8925 0.25061 0.54558 0.0
C3000 C 0.88204 0.24206 0.53401 0.0
C3001 C 0.91233 0.25516 0.56526 0.0
C3002 C 0.90783 0.25801 0.58084 0.0
C3003 C 0.92647 0.2594 0.56321 0.0
C3004 C 0.93199 0.25747 0.54665 0.0
C3005 C 0.92932 0.26226 0.53098 0.0
C3006 C 0.93461 0.26049 0.51544 0.0
C3007 C 0.94266 0.25404 0.51541 0.0
C3008 C 0.94542 0.2493 0.53091 0.0
C3009 C 0.94014 0.25102 0.54648 0.0
H3010 H 0.94682 0.25275 0.5034 0.0
H3011 H 0.89698 0.27105 0.65478 0.0
H3012 H 0.35201 0.31273 0.62009 0.0
H3013 H 0.35385 0.29937 0.59599 0.0
H3014 H 0.32522 0.26137 0.62146 0.0
H3015 H 0.32343 0.27476 0.64553 0.0
H3016 H 0.36298 0.28114 0.5958 0.0
H3017 H 0.30603 0.23717 0.59088 0.0
H3018 H 0.28273 0.23394 0.5954 0.0
H3019 H 0.29788 0.2772 0.58596 0.0
H3020 H 0.32121 0.28066 0.58113 0.0
H3021 H 0.35608 0.22077 0.55604 0.0
H3022 H 0.3539 0.2369 0.5754 0.0
H3023 H 0.33763 0.25038 0.53339 0.0
H3024 H 0.34017 0.23455 0.5137 0.0
H3025 H 0.32246 0.24507 0.56387 0.0
H3026 H 0.36931 0.27076 0.54547 0.0
H3027 H 0.3929 0.27515 0.54006 0.0
H3028 H 0.39852 0.27063 0.59427 0.0
H3029 H 0.37487 0.26596 0.59998 0.0
C3030 C 0.34628 0.30152 0.62057 0.0
C3031 C 0.33798 0.29469 0.63484 0.0
C3032 C 0.34723 0.29391 0.60678 0.0
C3033 C 0.33963 0.27938 0.60689 0.0
C3034 C 0.33107 0.27258 0.62101 0.0
C3035 C 0.33012 0.28019 0.63477 0.0
C3036 C 0.341 0.27128 0.59255 0.0
C3037 C 0.35414 0.27327 0.58885 0.0
C3038 C 0.32945 0.2612 0.58316 0.0
C3039 C 0.3154 0.25919 0.58579 0.0
C3040 C 0.30437 0.24598 0.58968 0.0
C3041 C 0.29116 0.24411 0.59231 0.0
C3042 C 0.28883 0.25536 0.59102 0.0
C3043 C 0.29971 0.2685 0.58702 0.0
C3044 C 0.31293 0.27043 0.58436 0.0
C3045 C 0.35223 0.22729 0.5508 0.0
C3046 C 0.34838 0.22639 0.53325 0.0
C3047 C 0.35091 0.23645 0.56193 0.0
C3048 C 0.34567 0.24487 0.5558 0.0
C3049 C 0.34165 0.24392 0.53838 0.0
C3050 C 0.34307 0.23483 0.52717 0.0
C3051 C 0.34444 0.25466 0.56767 0.0
C3052 C 0.33132 0.25298 0.57087 0.0
C3053 C 0.35604 0.26514 0.57653 0.0
C3054 C 0.37026 0.26787 0.57312 0.0
C3055 C 0.37552 0.27056 0.55622 0.0
C3056 C 0.38892 0.27312 0.5531 0.0
C3057 C 0.39719 0.27313 0.56681 0.0
C3058 C 0.39209 0.2706 0.58366 0.0
C3059 C 0.37869 0.26799 0.58685 0.0
H3060 H 0.40756 0.27513 0.56437 0.0
H3061 H 0.2786 0.25389 0.59307 0.0
H3062 H 0.72833 0.03923 0.63131 0.0
H3063 H 0.73914 0.05577 0.60794 0.0
H3064 H 0.709 0.06918 0.61311 0.0
H3065 H 0.69792 0.05243 0.63659 0.0
H3066 H 0.71577 0.06781 0.5785 0.0
H3067 H 0.73912 0.08752 0.632 0.0
H3068 H 0.75056 0.08769 0.65954 0.0
H3069 H 0.78209 0.08449 0.63179 0.0
H3070 H 0.77068 0.084 0.60408 0.0
H3071 H 0.75791 0.13127 0.53291 0.0
H3072 H 0.74343 0.11406 0.55439 0.0
H3073 H 0.77226 0.09874 0.55696 0.0
H3074 H 0.78698 0.11617 0.53601 0.0
H3075 H 0.76509 0.10211 0.58858 0.0
H3076 H 0.74119 0.08105 0.53534 0.0
H3077 H 0.72944 0.07999 0.50773 0.0
H3078 H 0.69904 0.08559 0.53481 0.0
H3079 H 0.71073 0.08687 0.56258 0.0
C3080 C 0.72385 0.04556 0.62742 0.0
C3081 C 0.71233 0.0446 0.63602 0.0
C3082 C 0.73007 0.05503 0.61403 0.0
C3083 C 0.72504 0.06389 0.60902 0.0
C3084 C 0.71309 0.06248 0.61686 0.0
C3085 C 0.70678 0.05291 0.63028 0.0
C3086 C 0.73285 0.07514 0.59639 0.0
C3087 C 0.72649 0.07546 0.58078 0.0
C3088 C 0.7469 0.085 0.59932 0.0
C3089 C 0.75398 0.08563 0.61596 0.0
C3090 C 0.74845 0.08677 0.63177 0.0
C3091 C 0.75493 0.08692 0.64741 0.0
C3092 C 0.76704 0.08608 0.64741 0.0
C3093 C 0.77271 0.08513 0.63176 0.0
C3094 C 0.76624 0.08492 0.61609 0.0
C3095 C 0.76119 0.12427 0.5381 0.0
C3096 C 0.77361 0.1251 0.53268 0.0
C3097 C 0.75283 0.11435 0.55026 0.0
C3098 C 0.75669 0.10502 0.55719 0.0
C3099 C 0.76905 0.1058 0.55177 0.0
C3100 C 0.7774 0.1157 0.53965 0.0
C3101 C 0.74812 0.09465 0.57045 0.0
C3102 C 0.75435 0.09453 0.58628 0.0
C3103 C 0.73397 0.08501 0.56769 0.0
C3104 C 0.72692 0.08421 0.55102 0.0
C3105 C 0.73206 0.08217 0.53539 0.0
C3106 C 0.7254 0.08151 0.51972 0.0
C3107 C 0.71352 0.08277 0.51951 0.0
C3108 C 0.70826 0.08464 0.53499 0.0
C3109 C 0.71489 0.08533 0.5507 0.0
H3110 H 0.70838 0.08225 0.50736 0.0
H3111 H 0.77204 0.08621 0.65953 0.0
H3112 H 0.96553 0.65406 0.62578 0.0
H3113 H 0.95072 0.65162 0.60094 0.0
H3114 H 0.94387 0.68379 0.62187 0.0
H3115 H 0.95801 0.68554 0.6472 0.0
H3116 H 0.92088 0.66442 0.61251 0.0
H3117 H 0.96442 0.68776 0.58419 0.0
H3118 H 0.98738 0.69208 0.57527 0.0
H3119 H 0.96897 0.65273 0.54937 0.0
H3120 H 0.94586 0.64812 0.55825 0.0
H3121 H 0.89657 0.67875 0.53253 0.0
H3122 H 0.91426 0.68101 0.55323 0.0
H3123 H 0.89712 0.63671 0.55356 0.0
H3124 H 0.87886 0.63419 0.53356 0.0
H3125 H 0.932 0.6618 0.55107 0.0
H3126 H 0.88816 0.63837 0.58445 0.0
H3127 H 0.86589 0.63644 0.59251 0.0
H3128 H 0.88666 0.67918 0.60799 0.0
H3129 H 0.90903 0.68137 0.59977 0.0
C3130 C 0.96067 0.66045 0.62509 0.0
C3131 C 0.96226 0.66948 0.63867 0.0
C3132 C 0.95245 0.65928 0.61074 0.0
C3133 C 0.94612 0.66752 0.60945 0.0
C3134 C 0.94846 0.67717 0.62263 0.0
C3135 C 0.95653 0.67819 0.63707 0.0
C3136 C 0.93641 0.66554 0.59501 0.0
C3137 C 0.92344 0.66391 0.59912 0.0
C3138 C 0.93958 0.66481 0.57743 0.0
C3139 C 0.95343 0.66755 0.57202 0.0
C3140 C 0.96527 0.67999 0.57669 0.0
C3141 C 0.97831 0.68249 0.57163 0.0
C3142 C 0.97965 0.67267 0.56182 0.0
C3143 C 0.96792 0.66033 0.55699 0.0
C3144 C 0.95485 0.65777 0.562 0.0
C3145 C 0.89648 0.66945 0.53701 0.0
C3146 C 0.88612 0.65626 0.53154 0.0
C3147 C 0.90671 0.6708 0.54868 0.0
C3148 C 0.90691 0.65903 0.55488 0.0
C3149 C 0.8971 0.6459 0.54881 0.0
C3150 C 0.88672 0.64451 0.53732 0.0
C3151 C 0.91665 0.66047 0.56882 0.0
C3152 C 0.92956 0.66212 0.56456 0.0
C3153 C 0.91357 0.66141 0.58625 0.0
C3154 C 0.90019 0.66007 0.59131 0.0
C3155 C 0.88794 0.64738 0.58941 0.0
C3156 C 0.87531 0.64623 0.59404 0.0
C3157 C 0.87486 0.65769 0.6007 0.0
C3158 C 0.88703 0.67032 0.6028 0.0
C3159 C 0.89968 0.67151 0.59816 0.0
H3160 H 0.86507 0.65679 0.60428 0.0
H3161 H 0.98976 0.67463 0.55792 0.0
H3162 H 0.97612 0.68532 0.72451 0.0
H3163 H 0.96648 0.69246 0.7483 0.0
H3164 H 0.92547 0.66599 0.72827 0.0
H3165 H 0.93486 0.65856 0.7049 0.0
H3166 H 0.93224 0.69434 0.73748 0.0
H3167 H 0.93476 0.65413 0.75948 0.0
H3168 H 0.94747 0.64191 0.76737 0.0
H3169 H 0.97292 0.67468 0.8026 0.0
H3170 H 0.96047 0.68718 0.79471 0.0
H3171 H 0.87946 0.67591 0.79588 0.0
H3172 H 0.89644 0.67728 0.77532 0.0
H3173 H 0.92846 0.69649 0.81412 0.0
H3174 H 0.91125 0.69449 0.83522 0.0
H3175 H 0.9314 0.67747 0.79727 0.0
H3176 H 0.92636 0.71559 0.78008 0.0
H3177 H 0.91442 0.72862 0.77249 0.0
H3178 H 0.89543 0.70207 0.72864 0.0
H3179 H 0.90708 0.68874 0.7361 0.0
C3180 C 0.96506 0.68108 0.72515 0.0
C3181 C 0.95626 0.67137 0.7128 0.0
C3182 C 0.95959 0.68515 0.73874 0.0
C3183 C 0.94529 0.67976 0.73995 0.0
C3184 C 0.93655 0.6703 0.72748 0.0
C3185 C 0.94195 0.66604 0.71415 0.0
C3186 C 0.93915 0.68352 0.7544 0.0
C3187 C 0.93204 0.6907 0.75058 0.0
C3188 C 0.93941 0.67922 0.77157 0.0
C3189 C 0.94682 0.67167 0.77633 0.0
C3190 C 0.94316 0.65879 0.76878 0.0
C3191 C 0.95029 0.6518 0.77328 0.0
C3192 C 0.96103 0.65754 0.78543 0.0
C3193 C 0.96463 0.67026 0.79315 0.0
C3194 C 0.95753 0.6773 0.78868 0.0
C3195 C 0.89008 0.6803 0.80017 0.0
C3196 C 0.89395 0.68499 0.81727 0.0
C3197 C 0.89984 0.68129 0.78828 0.0
C3198 C 0.9138 0.68723 0.79305 0.0
C3199 C 0.91777 0.69196 0.8101 0.0
C3200 C 0.90794 0.6909 0.82211 0.0
C3201 C 0.92395 0.68784 0.78025 0.0
C3202 C 0.93185 0.68149 0.78433 0.0
C3203 C 0.92459 0.6931 0.76334 0.0
C3204 C 0.91757 0.70112 0.75871 0.0
C3205 C 0.91957 0.71247 0.76888 0.0
C3206 C 0.91286 0.71992 0.76459 0.0
C3207 C 0.90416 0.71617 0.7501 0.0
C3208 C 0.90217 0.70497 0.73985 0.0
C3209 C 0.90885 0.69747 0.74409 0.0
H3210 H 0.89898 0.72195 0.7468 0.0
H3211 H 0.96654 0.65211 0.7889 0.0
H3212 H 0.31926 0.2923 0.71574 0.0
H3213 H 0.31306 0.27699 0.7409 0.0
H3214 H 0.34865 0.27207 0.73269 0.0
H3215 H 0.35507 0.2875 0.70784 0.0
H3216 H 0.30615 0.2508 0.74424 0.0
H3217 H 0.36166 0.26848 0.77037 0.0
H3218 H 0.38419 0.28991 0.77182 0.0
H3219 H 0.36402 0.31433 0.76862 0.0
H3220 H 0.34136 0.29306 0.76743 0.0
H3221 H 0.30757 0.19866 0.79444 0.0
H3222 H 0.3114 0.21684 0.77372 0.0
H3223 H 0.32282 0.24629 0.81551 0.0
H3224 H 0.3192 0.22811 0.83633 0.0
H3225 H 0.34016 0.25758 0.79041 0.0
H3226 H 0.29139 0.23356 0.7939 0.0
H3227 H 0.26789 0.21347 0.79395 0.0
H3228 H 0.27272 0.20429 0.74138 0.0
H3229 H 0.29634 0.22421 0.74109 0.0
C3230 C 0.3258 0.288 0.71931 0.0
C3231 C 0.33772 0.29122 0.70977 0.0
C3232 C 0.32222 0.27923 0.73369 0.0
C3233 C 0.33048 0.27353 0.73884 0.0
C3234 C 0.34227 0.27657 0.72921 0.0
C3235 C 0.34589 0.28538 0.71492 0.0
C3236 C 0.32669 0.26411 0.75401 0.0
C3237 C 0.31356 0.25232 0.75438 0.0
C3238 C 0.33621 0.26629 0.76754 0.0
C3239 C 0.34981 0.27915 0.76867 0.0
C3240 C 0.36202 0.27842 0.77009 0.0
C3241 C 0.37482 0.29054 0.77084 0.0
C3242 C 0.37554 0.30347 0.77026 0.0
C3243 C 0.36345 0.30431 0.76901 0.0
C3244 C 0.35063 0.29222 0.76828 0.0
C3245 C 0.31071 0.20896 0.79924 0.0
C3246 C 0.313 0.21193 0.81703 0.0
C3247 C 0.3129 0.21936 0.78738 0.0
C3248 C 0.31721 0.23292 0.79305 0.0
C3249 C 0.31948 0.23592 0.81082 0.0
C3250 C 0.31742 0.22553 0.8227 0.0
C3251 C 0.31978 0.244 0.78029 0.0
C3252 C 0.33269 0.25612 0.78038 0.0
C3253 C 0.30991 0.24232 0.76745 0.0
C3254 C 0.29568 0.23034 0.76752 0.0
C3255 C 0.28748 0.2272 0.78239 0.0
C3256 C 0.27413 0.21585 0.78245 0.0
C3257 C 0.26882 0.20759 0.76769 0.0
C3258 C 0.27685 0.21069 0.75281 0.0
C3259 C 0.29021 0.22203 0.75268 0.0
H3260 H 0.25848 0.1988 0.76776 0.0
H3261 H 0.38545 0.31285 0.77081 0.0
H3262 H 0.70674 0.02687 0.72786 0.0
H3263 H 0.72277 0.03997 0.75142 0.0
H3264 H 0.7356 0.07792 0.72307 0.0
H3265 H 0.71963 0.06475 0.69943 0.0
H3266 H 0.75748 0.07615 0.73593 0.0
H3267 H 0.71412 0.06956 0.75737 0.0
H3268 H 0.68968 0.05574 0.76556 0.0
H3269 H 0.70013 0.03368 0.80306 0.0
H3270 H 0.72463 0.04725 0.79492 0.0
H3271 H 0.79351 0.12635 0.79907 0.0
H3272 H 0.77705 0.11131 0.77739 0.0
H3273 H 0.76398 0.07633 0.81163 0.0
H3274 H 0.77991 0.09156 0.83396 0.0
H3275 H 0.74237 0.07513 0.79634 0.0
H3276 H 0.78545 0.08161 0.7765 0.0
H3277 H 0.80994 0.09441 0.76823 0.0
H3278 H 0.80034 0.11495 0.72769 0.0
H3279 H 0.77582 0.10243 0.73588 0.0
C3280 C 0.7131 0.038 0.72667 0.0
C3281 C 0.71237 0.04483 0.71172 0.0
C3282 C 0.72212 0.04548 0.74017 0.0
C3283 C 0.73036 0.05993 0.73901 0.0
C3284 C 0.72939 0.06677 0.72418 0.0
C3285 C 0.7203 0.05929 0.71073 0.0
C3286 C 0.74017 0.06793 0.75312 0.0
C3287 C 0.75418 0.07601 0.74911 0.0
C3288 C 0.73589 0.06741 0.77043 0.0
C3289 C 0.72119 0.05933 0.77542 0.0
C3290 C 0.7112 0.06169 0.76727 0.0
C3291 C 0.69733 0.05391 0.77192 0.0
C3292 C 0.69335 0.04381 0.78479 0.0
C3293 C 0.70323 0.04149 0.79308 0.0
C3294 C 0.71711 0.04924 0.78847 0.0
C3295 C 0.78701 0.11551 0.80218 0.0
C3296 C 0.78804 0.11021 0.81837 0.0
C3297 C 0.77772 0.10686 0.78961 0.0
C3298 C 0.76944 0.09262 0.79271 0.0
C3299 C 0.77033 0.08727 0.80888 0.0
C3300 C 0.77954 0.09597 0.82159 0.0
C3301 C 0.75973 0.08346 0.77911 0.0
C3302 C 0.74574 0.07515 0.78321 0.0
C3303 C 0.76405 0.08359 0.76188 0.0
C3304 C 0.77881 0.09117 0.75692 0.0
C3305 C 0.78857 0.08894 0.76592 0.0
C3306 C 0.80246 0.09613 0.76122 0.0
C3307 C 0.8067 0.10551 0.74747 0.0
C3308 C 0.79705 0.1077 0.73836 0.0
C3309 C 0.78315 0.10055 0.74301 0.0
H3310 H 0.81745 0.11106 0.74386 0.0
H3311 H 0.68261 0.0378 0.78836 0.0
H3312 H 0.0519 0.35422 0.01605 0.0
H3313 H 0.06438 0.34468 0.03206 0.0
H3314 H 0.02879 0.32107 0.064 0.0
H3315 H 0.01602 0.33024 0.04763 0.0
H3316 H 0.05803 0.34182 0.08027 0.0
H3317 H 0.03282 0.30194 0.04331 0.0
H3318 H 0.02428 0.29032 0.01514 0.0
H3319 H 0.0659 0.30646 0.99775 0.0
H3320 H 0.0747 0.31837 0.02574 0.0
H3321 H 0.09316 0.31462 0.12872 0.0
H3322 H 0.07477 0.31614 0.11296 0.0
H3323 H 0.09757 0.32363 0.0655 0.0
H3324 H 0.11554 0.3213 0.08115 0.0
H3325 H 0.07203 0.30866 0.05816 0.0
H3326 H 0.09777 0.35046 0.0911 0.0
H3327 H 0.10821 0.36443 0.11739 0.0
H3328 H 0.06817 0.3477 0.14029 0.0
H3329 H 0.0575 0.33352 0.11416 0.0
C3330 C 0.04666 0.34684 0.0263 0.0
C3331 C 0.033 0.34297 0.03062 0.0
C3332 C 0.05378 0.34139 0.03539 0.0
C3333 C 0.04747 0.3322 0.04914 0.0
C3334 C 0.03377 0.32812 0.05334 0.0
C3335 C 0.0265 0.33332 0.04397 0.0
C3336 C 0.05563 0.32771 0.05978 0.0
C3337 C 0.06087 0.33433 0.07569 0.0
C3338 C 0.05967 0.31836 0.05337 0.0
C3339 C 0.05442 0.31115 0.03657 0.0
C3340 C 0.04016 0.30313 0.03342 0.0
C3341 C 0.03526 0.29646 0.0175 0.0
C3342 C 0.04454 0.29768 0.00465 0.0
C3343 C 0.05873 0.30554 0.00771 0.0
C3344 C 0.06367 0.31224 0.02361 0.0
C3345 C 0.09411 0.31645 0.11489 0.0
C3346 C 0.10573 0.31793 0.1061 0.0
C3347 C 0.08367 0.3174 0.10591 0.0
C3348 C 0.0849 0.32032 0.08808 0.0
C3349 C 0.09636 0.32139 0.07923 0.0
C3350 C 0.10664 0.32011 0.08815 0.0
C3351 C 0.0746 0.32285 0.07876 0.0
C3352 C 0.06904 0.31596 0.063 0.0
C3353 C 0.07051 0.33225 0.0851 0.0
C3354 C 0.07686 0.34083 0.10077 0.0
C3355 C 0.09121 0.34971 0.10179 0.0
C3356 C 0.09716 0.35767 0.11664 0.0
C3357 C 0.08886 0.35693 0.13051 0.0
C3358 C 0.07458 0.34825 0.12953 0.0
C3359 C 0.06858 0.34026 0.1147 0.0
H3360 H 0.0935 0.36313 0.14198 0.0
H3361 H 0.04073 0.29251 0.99233 0.0
H3362 H 0.65348 0.69109 0.01031 0.0
H3363 H 0.65944 0.71332 0.02377 0.0
H3364 H 0.67732 0.70328 0.06741 0.0
H3365 H 0.67124 0.68102 0.05419 0.0
H3366 H 0.66001 0.71175 0.07786 0.0
H3367 H 0.6975 0.72798 0.03791 0.0
H3368 H 0.70835 0.731 0.00937 0.0
H3369 H 0.68692 0.75177 0.99063 0.0
H3370 H 0.67579 0.7487 0.019 0.0
H3371 H 0.68877 0.77621 0.12051 0.0
H3372 H 0.68646 0.75608 0.10491 0.0
H3373 H 0.66901 0.76639 0.06106 0.0
H3374 H 0.67192 0.78695 0.07626 0.0
H3375 H 0.68646 0.75799 0.05053 0.0
H3376 H 0.64848 0.74115 0.09006 0.0
H3377 H 0.63759 0.73817 0.11856 0.0
H3378 H 0.65981 0.7184 0.13793 0.0
H3379 H 0.67098 0.72142 0.10958 0.0
C3380 C 0.65884 0.6937 0.02266 0.0
C3381 C 0.66185 0.68428 0.03121 0.0
C3382 C 0.66228 0.70643 0.03032 0.0
C3383 C 0.66887 0.70998 0.04658 0.0
C3384 C 0.6722 0.70074 0.05488 0.0
C3385 C 0.66875 0.68803 0.04728 0.0
C3386 C 0.67156 0.72293 0.05546 0.0
C3387 C 0.66598 0.72188 0.07198 0.0
C3388 C 0.67902 0.73611 0.0476 0.0
C3389 C 0.68571 0.73798 0.03053 0.0
C3390 C 0.69501 0.73308 0.02766 0.0
C3391 C 0.70123 0.73483 0.01152 0.0
C3392 C 0.69829 0.74154 0.99818 0.0
C3393 C 0.68916 0.74656 0.00097 0.0
C3394 C 0.68291 0.74483 0.01708 0.0
C3395 C 0.68464 0.77434 0.10745 0.0
C3396 C 0.68045 0.78318 0.09969 0.0
C3397 C 0.6832 0.76273 0.09861 0.0
C3398 C 0.67735 0.75959 0.08192 0.0
C3399 C 0.67348 0.76856 0.07396 0.0
C3400 C 0.67501 0.78023 0.08275 0.0
C3401 C 0.67497 0.74678 0.07294 0.0
C3402 C 0.68054 0.74785 0.0564 0.0
C3403 C 0.66747 0.73359 0.08075 0.0
C3404 C 0.66066 0.73163 0.09775 0.0
C3405 C 0.65111 0.73625 0.10043 0.0
C3406 C 0.64488 0.73454 0.11655 0.0
C3407 C 0.64803 0.72813 0.13006 0.0
C3408 C 0.65739 0.72338 0.12746 0.0
C3409 C 0.66366 0.72507 0.11136 0.0
H3410 H 0.6432 0.72683 0.14254 0.0
H3411 H 0.70312 0.74289 0.98569 0.0
H3412 H 0.30689 0.95989 0.0084 0.0
H3413 H 0.28518 0.94295 0.02181 0.0
H3414 H 0.29335 0.97079 0.06474 0.0
H3415 H 0.31506 0.98759 0.0516 0.0
H3416 H 0.28654 0.9457 0.07603 0.0
H3417 H 0.26827 0.96464 0.03408 0.0
H3418 H 0.26456 0.97134 0.00491 0.0
H3419 H 0.24615 0.92902 0.98816 0.0
H3420 H 0.24993 0.92209 0.01719 0.0
H3421 H 0.22261 0.91173 0.11858 0.0
H3422 H 0.24244 0.92861 0.10212 0.0
H3423 H 0.23287 0.89851 0.06159 0.0
H3424 H 0.21272 0.88166 0.07774 0.0
H3425 H 0.24022 0.92396 0.04835 0.0
H3426 H 0.25831 0.90504 0.09031 0.0
H3427 H 0.26189 0.89829 0.11952 0.0
H3428 H 0.28074 0.94068 0.13616 0.0
H3429 H 0.27709 0.94765 0.1071 0.0
C3430 C 0.30396 0.96246 0.02058 0.0
C3431 C 0.31272 0.97506 0.02897 0.0
C3432 C 0.29153 0.95278 0.02822 0.0
C3433 C 0.28761 0.9556 0.04428 0.0
C3434 C 0.29618 0.96835 0.05239 0.0
C3435 C 0.30858 0.97797 0.04482 0.0
C3436 C 0.275 0.94506 0.05319 0.0
C3437 C 0.27639 0.9411 0.07004 0.0
C3438 C 0.2618 0.93873 0.04522 0.0
C3439 C 0.25952 0.94287 0.02776 0.0
C3440 C 0.26354 0.95678 0.02414 0.0
C3441 C 0.2614 0.96061 0.00764 0.0
C3442 C 0.25516 0.95062 0.99467 0.0
C3443 C 0.25101 0.93675 0.9982 0.0
C3444 C 0.25313 0.93286 0.01468 0.0
C3445 C 0.22461 0.90873 0.10607 0.0
C3446 C 0.2161 0.89531 0.09952 0.0
C3447 C 0.23603 0.91837 0.09674 0.0
C3448 C 0.23924 0.91477 0.08072 0.0
C3449 C 0.23061 0.90149 0.07395 0.0
C3450 C 0.21918 0.89184 0.08328 0.0
C3451 C 0.25178 0.92479 0.07124 0.0
C3452 C 0.25038 0.92859 0.0543 0.0
C3453 C 0.26501 0.931 0.07911 0.0
C3454 C 0.26731 0.92685 0.09657 0.0
C3455 C 0.26313 0.91291 0.10023 0.0
C3456 C 0.26518 0.90904 0.11676 0.0
C3457 C 0.27151 0.91905 0.1297 0.0
C3458 C 0.27582 0.93294 0.12613 0.0
C3459 C 0.27378 0.93685 0.10962 0.0
H3460 H 0.27309 0.91603 0.14249 0.0
H3461 H 0.25351 0.95361 0.98191 0.0
H3462 H 0.32926 0.01575 0.9769 0.0
H3463 H 0.32021 0.0291 0.96174 0.0
H3464 H 0.34899 0.06583 0.98962 0.0
H3465 H 0.35817 0.05268 0.00465 0.0
H3466 H 0.3217 0.06186 0.98735 0.0
H3467 H 0.35685 0.06153 0.95058 0.0
H3468 H 0.36692 0.04977 0.93396 0.0
H3469 H 0.33017 0.02949 0.90272 0.0
H3470 H 0.3198 0.04098 0.91934 0.0
H3471 H 0.32721 0.11862 0.94087 0.0
H3472 H 0.33095 0.10147 0.95597 0.0
H3473 H 0.30785 0.07134 0.91637 0.0
H3474 H 0.30489 0.08878 0.90048 0.0
H3475 H 0.3292 0.06924 0.9241 0.0
H3476 H 0.29446 0.07046 0.9579 0.0
H3477 H 0.28301 0.08082 0.97453 0.0
H3478 H 0.31652 0.09745 0.01121 0.0
H3479 H 0.32827 0.08736 0.99467 0.0
C3480 C 0.33356 0.02663 0.97992 0.0
C3481 C 0.3445 0.03317 0.9919 0.0
C3482 C 0.32841 0.03425 0.97122 0.0
C3483 C 0.334 0.04846 0.9745 0.0
C3484 C 0.34454 0.05487 0.9869 0.0
C3485 C 0.34981 0.04734 0.99542 0.0
C3486 C 0.32937 0.0569 0.96457 0.0
C3487 C 0.32339 0.06356 0.97354 0.0
C3488 C 0.33116 0.0587 0.94647 0.0
C3489 C 0.33749 0.05198 0.93633 0.0
C3490 C 0.35088 0.05448 0.94025 0.0
C3491 C 0.35665 0.04788 0.93082 0.0
C3492 C 0.34917 0.03885 0.91734 0.0
C3493 C 0.33594 0.03646 0.9132 0.0
C3494 C 0.33011 0.04302 0.92261 0.0
C3495 C 0.32304 0.10841 0.93521 0.0
C3496 C 0.31575 0.10516 0.91938 0.0
C3497 C 0.325 0.09851 0.94404 0.0
C3498 C 0.31946 0.08498 0.93752 0.0
C3499 C 0.31216 0.08166 0.92175 0.0
C3500 C 0.31034 0.09163 0.91276 0.0
C3501 C 0.32173 0.07451 0.94692 0.0
C3502 C 0.32729 0.06745 0.93787 0.0
C3503 C 0.31933 0.07216 0.96492 0.0
C3504 C 0.31229 0.07823 0.97496 0.0
C3505 C 0.29944 0.07641 0.96945 0.0
C3506 C 0.29289 0.08222 0.97887 0.0
C3507 C 0.29905 0.08981 0.9939 0.0
C3508 C 0.31176 0.09158 0.99956 0.0
C3509 C 0.31837 0.0858 0.99018 0.0
H3510 H 0.29396 0.0943 0.00118 0.0
H3511 H 0.35363 0.03373 0.91008 0.0
H3512 H 0.96374 0.30515 0.01026 0.0
H3513 H 0.94798 0.28293 0.99661 0.0
H3514 H 0.97397 0.29461 0.95162 0.0
H3515 H 0.9897 0.31686 0.9651 0.0
H3516 H 0.94733 0.28481 0.94281 0.0
H3517 H 0.97283 0.2704 0.97946 0.0
H3518 H 0.98286 0.26797 0.00694 0.0
H3519 H 0.94238 0.24515 0.02869 0.0
H3520 H 0.93211 0.24761 0.00141 0.0
H3521 H 0.91165 0.22027 0.90033 0.0
H3522 H 0.92999 0.24049 0.91505 0.0
H3523 H 0.9057 0.22954 0.96153 0.0
H3524 H 0.88756 0.20893 0.94715 0.0
H3525 H 0.93222 0.2388 0.96935 0.0
H3526 H 0.90683 0.25419 0.93357 0.0
H3527 H 0.89657 0.25673 0.90634 0.0
H3528 H 0.93669 0.27794 0.8833 0.0
H3529 H 0.94716 0.27536 0.91034 0.0
C3530 C 0.96616 0.30293 0.99753 0.0
C3531 C 0.97795 0.31277 0.98875 0.0
C3532 C 0.95717 0.29021 0.98977 0.0
C3533 C 0.95984 0.28708 0.97313 0.0
C3534 C 0.97172 0.29681 0.96446 0.0
C3535 C 0.98071 0.30951 0.97221 0.0
C3536 C 0.94992 0.27396 0.96441 0.0
C3537 C 0.9442 0.27474 0.94848 0.0
C3538 C 0.94557 0.26084 0.97203 0.0
C3539 C 0.95171 0.2593 0.98844 0.0
C3540 C 0.96607 0.26496 0.99015 0.0
C3541 C 0.9718 0.26356 0.00568 0.0
C3542 C 0.96326 0.25644 0.01957 0.0
C3543 C 0.94898 0.25067 0.01793 0.0
C3544 C 0.9432 0.25206 0.00243 0.0
C3545 C 0.9103 0.222 0.91378 0.0
C3546 C 0.89807 0.21301 0.92251 0.0
C3547 C 0.92075 0.23365 0.92213 0.0
C3548 C 0.91912 0.23667 0.93931 0.0
C3549 C 0.90715 0.22747 0.94825 0.0
C3550 C 0.89673 0.21577 0.93994 0.0
C3551 C 0.92964 0.24967 0.94775 0.0
C3552 C 0.93543 0.24887 0.96364 0.0
C3553 C 0.93402 0.2628 0.94014 0.0
C3554 C 0.92776 0.26446 0.92392 0.0
C3555 C 0.91345 0.25931 0.92266 0.0
C3556 C 0.9076 0.26077 0.90726 0.0
C3557 C 0.91597 0.26746 0.89308 0.0
C3558 C 0.93021 0.27275 0.89429 0.0
C3559 C 0.93611 0.2713 0.90965 0.0
H3560 H 0.91142 0.26858 0.88117 0.0
H3561 H 0.96772 0.25536 0.03158 0.0
H3562 H 0.68119 0.66343 0.97534 0.0
H3563 H 0.70279 0.67136 0.95948 0.0
H3564 H 0.713 0.64591 0.99182 0.0
H3565 H 0.69126 0.63757 0.00737 0.0
H3566 H 0.73521 0.67831 0.98263 0.0
H3567 H 0.70334 0.63103 0.96084 0.0
H3568 H 0.68077 0.61383 0.94869 0.0
H3569 H 0.68603 0.64119 0.90642 0.0
H3570 H 0.70856 0.65864 0.91849 0.0
H3571 H 0.78954 0.67425 0.94205 0.0
H3572 H 0.76921 0.67074 0.95803 0.0
H3573 H 0.75087 0.67493 0.9105 0.0
H3574 H 0.7709 0.67759 0.89443 0.0
H3575 H 0.73228 0.65513 0.92668 0.0
H3576 H 0.76476 0.70086 0.9441 0.0
H3577 H 0.7867 0.71994 0.95527 0.0
H3578 H 0.78021 0.69899 0.004 0.0
H3579 H 0.75831 0.67969 0.99305 0.0
C3580 C 0.68811 0.65965 0.97919 0.0
C3581 C 0.68453 0.64985 0.99254 0.0
C3582 C 0.7004 0.66417 0.97013 0.0
C3583 C 0.7094 0.65919 0.97455 0.0
C3584 C 0.70614 0.64986 0.9883 0.0
C3585 C 0.69372 0.64508 0.99709 0.0
C3586 C 0.72183 0.66304 0.96416 0.0
C3587 C 0.73468 0.67322 0.97045 0.0
C3588 C 0.72094 0.65673 0.94803 0.0
C3589 C 0.70752 0.64618 0.94066 0.0
C3590 C 0.69961 0.63342 0.94905 0.0
C3591 C 0.68685 0.62362 0.94216 0.0
C3592 C 0.68195 0.62643 0.92682 0.0
C3593 C 0.68983 0.63904 0.91831 0.0
C3594 C 0.70259 0.64888 0.92516 0.0
C3595 C 0.78118 0.67452 0.93511 0.0
C3596 C 0.78172 0.67622 0.91709 0.0
C3597 C 0.7696 0.67261 0.94423 0.0
C3598 C 0.75854 0.67282 0.93557 0.0
C3599 C 0.75922 0.67472 0.91752 0.0
C3600 C 0.77066 0.67628 0.90835 0.0
C3601 C 0.74601 0.67036 0.94519 0.0
C3602 C 0.73301 0.66041 0.93876 0.0
C3603 C 0.74678 0.67717 0.96102 0.0
C3604 C 0.75994 0.68877 0.96769 0.0
C3605 C 0.76805 0.70027 0.95716 0.0
C3606 C 0.78048 0.71114 0.96346 0.0
C3607 C 0.78486 0.71066 0.98032 0.0
C3608 C 0.77681 0.69934 0.99094 0.0
C3609 C 0.76438 0.68844 0.9847 0.0
H3610 H 0.79448 0.71909 0.98517 0.0
H3611 H 0.67208 0.61883 0.92151 0.0
H3612 H 0.98499 0.66964 0.96103 0.0
H3613 H 0.96823 0.6758 0.94982 0.0
H3614 H 0.94898 0.66793 0.99991 0.0
H3615 H 0.96554 0.66126 0.01111 0.0
H3616 H 0.93004 0.65662 0.97625 0.0
H3617 H 0.96863 0.70155 0.98336 0.0
H3618 H 0.99276 0.72023 0.98103 0.0
H3619 H 0.98923 0.71866 0.9256 0.0
H3620 H 0.96512 0.69982 0.92758 0.0
H3621 H 0.88691 0.68351 0.94535 0.0
H3622 H 0.90504 0.68219 0.96216 0.0
H3623 H 0.92411 0.68007 0.9148 0.0
H3624 H 0.906 0.68129 0.89798 0.0
H3625 H 0.94299 0.69842 0.94048 0.0
H3626 H 0.90483 0.65143 0.9346 0.0
H3627 H 0.88058 0.63319 0.93778 0.0
H3628 H 0.88349 0.63983 0.99274 0.0
H3629 H 0.90773 0.65826 0.98984 0.0
C3630 C 0.97728 0.66933 0.96974 0.0
C3631 C 0.9766 0.66498 0.98697 0.0
C3632 C 0.96773 0.67296 0.96332 0.0
C3633 C 0.95744 0.67256 0.97407 0.0
C3634 C 0.95684 0.66836 0.99138 0.0
C3635 C 0.96633 0.66459 0.99777 0.0
C3636 C 0.94691 0.67577 0.96687 0.0
C3637 C 0.9329 0.66592 0.96876 0.0
C3638 C 0.95058 0.68783 0.95691 0.0
C3639 C 0.96508 0.69919 0.95563 0.0
C3640 C 0.97302 0.70512 0.97067 0.0
C3641 C 0.9867 0.71575 0.96941 0.0
C3642 C 0.99253 0.72061 0.95318 0.0
C3643 C 0.9847 0.71487 0.93816 0.0
C3644 C 0.97102 0.70423 0.93935 0.0
C3645 C 0.89506 0.68292 0.93857 0.0
C3646 C 0.89504 0.68243 0.92039 0.0
C3647 C 0.90536 0.68212 0.94816 0.0
C3648 C 0.91586 0.68098 0.9397 0.0
C3649 C 0.9161 0.68096 0.92155 0.0
C3650 C 0.90572 0.68156 0.91198 0.0
C3651 C 0.92629 0.67918 0.94966 0.0
C3652 C 0.94022 0.68927 0.94824 0.0
C3653 C 0.92256 0.66745 0.96024 0.0
C3654 C 0.90803 0.65633 0.96198 0.0
C3655 C 0.90026 0.64908 0.94734 0.0
C3656 C 0.88653 0.63869 0.9491 0.0
C3657 C 0.88048 0.63538 0.96545 0.0
C3658 C 0.88818 0.64242 0.98008 0.0
C3659 C 0.90191 0.65284 0.97839 0.0
H3660 H 0.86985 0.62733 0.96678 0.0
H3661 H 0.00312 0.72884 0.95223 0.0
H3662 H 0.32577 0.3126 0.99338 0.0
H3663 H 0.31514 0.29085 0.97673 0.0
H3664 H 0.35552 0.29766 0.96345 0.0
H3665 H 0.36614 0.3191 0.97995 0.0
H3666 H 0.33733 0.2897 0.93519 0.0
H3667 H 0.33849 0.27615 0.99509 0.0
H3668 H 0.3325 0.27457 0.02598 0.0
H3669 H 0.28941 0.25249 0.01274 0.0
H3670 H 0.29516 0.25411 0.98173 0.0
H3671 H 0.33679 0.22889 0.91224 0.0
H3672 H 0.33997 0.24987 0.92638 0.0
H3673 H 0.29639 0.23009 0.9368 0.0
H3674 H 0.29318 0.20876 0.92313 0.0
H3675 H 0.31126 0.24431 0.96468 0.0
H3676 H 0.30993 0.25424 0.90526 0.0
H3677 H 0.3156 0.25566 0.87429 0.0
H3678 H 0.35801 0.2846 0.88587 0.0
H3679 H 0.35264 0.28319 0.91696 0.0
C3680 C 0.33235 0.30946 0.98685 0.0
C3681 C 0.3468 0.31756 0.98809 0.0
C3682 C 0.32627 0.29704 0.97738 0.0
C3683 C 0.33456 0.29266 0.96888 0.0
C3684 C 0.34893 0.30087 0.96986 0.0
C3685 C 0.35498 0.3131 0.97942 0.0
C3686 C 0.32853 0.27939 0.95922 0.0
C3687 C 0.33162 0.27976 0.9416 0.0
C3688 C 0.32069 0.26645 0.96748 0.0
C3689 C 0.31725 0.26541 0.9861 0.0
C3690 C 0.32774 0.27106 0.99876 0.0
C3691 C 0.32439 0.27014 0.01629 0.0
C3692 C 0.31058 0.26347 0.02132 0.0
C3693 C 0.3001 0.25767 0.00883 0.0
C3694 C 0.3034 0.25859 0.99128 0.0
C3695 C 0.32788 0.22892 0.91767 0.0
C3696 C 0.31473 0.21712 0.91658 0.0
C3697 C 0.32969 0.24099 0.92558 0.0
C3698 C 0.31838 0.24164 0.93242 0.0
C3699 C 0.30524 0.22986 0.93151 0.0
C3700 C 0.30342 0.21772 0.92359 0.0
C3701 C 0.32051 0.25461 0.94075 0.0
C3702 C 0.31668 0.2542 0.9581 0.0
C3703 C 0.32759 0.26754 0.9322 0.0
C3704 C 0.33088 0.26854 0.91348 0.0
C3705 C 0.32048 0.26084 0.90122 0.0
C3706 C 0.32364 0.26165 0.88364 0.0
C3707 C 0.33716 0.2702 0.87812 0.0
C3708 C 0.34754 0.27798 0.89017 0.0
C3709 C 0.34444 0.27719 0.90777 0.0
H3710 H 0.33959 0.27081 0.8645 0.0
H3711 H 0.308 0.26277 0.03489 0.0
H3712 H 0.68276 0.01932 0.96422 0.0
H3713 H 0.70532 0.0354 0.95267 0.0
H3714 H 0.71975 0.05184 0.00392 0.0
H3715 H 0.6968 0.03606 0.01549 0.0
H3716 H 0.72821 0.07212 0.98258 0.0
H3717 H 0.7303 0.03048 0.98231 0.0
H3718 H 0.72246 0.0058 0.9769 0.0
H3719 H 0.72197 0.0124 0.92217 0.0
H3720 H 0.72962 0.03709 0.92725 0.0
H3721 H 0.79646 0.11148 0.94785 0.0
H3722 H 0.77716 0.09397 0.96473 0.0
H3723 H 0.75304 0.07829 0.91791 0.0
H3724 H 0.77228 0.09573 0.90098 0.0
H3725 H 0.75184 0.05741 0.94045 0.0
H3726 H 0.74761 0.09903 0.94257 0.0
H3727 H 0.75616 0.12369 0.94907 0.0
H3728 H 0.76199 0.1167 0.00242 0.0
H3729 H 0.75365 0.09201 0.99616 0.0
C3730 C 0.69076 0.02626 0.97309 0.0
C3731 C 0.68803 0.02638 0.99079 0.0
C3732 C 0.70372 0.03541 0.96647 0.0
C3733 C 0.71438 0.04467 0.97745 0.0
C3734 C 0.71172 0.04476 0.99519 0.0
C3735 C 0.69863 0.03572 0.0018 0.0
C3736 C 0.72802 0.05467 0.9701 0.0
C3737 C 0.73351 0.06884 0.97368 0.0
C3738 C 0.73497 0.05047 0.95834 0.0
C3739 C 0.73046 0.03564 0.95518 0.0
C3740 C 0.72844 0.02666 0.96912 0.0
C3741 C 0.72404 0.01267 0.96611 0.0
C3742 C 0.7217 0.00754 0.9492 0.0
C3743 C 0.72379 0.01639 0.93526 0.0
C3744 C 0.72818 0.03039 0.9382 0.0
C3745 C 0.78708 0.10421 0.94116 0.0
C3746 C 0.78583 0.10498 0.92312 0.0
C3747 C 0.77606 0.09427 0.95082 0.0
C3748 C 0.76367 0.0849 0.94256 0.0
C3749 C 0.76252 0.08544 0.92451 0.0
C3750 C 0.77347 0.09545 0.91488 0.0
C3751 C 0.75171 0.07473 0.95268 0.0
C3752 C 0.74659 0.06058 0.9496 0.0
C3753 C 0.74525 0.07891 0.9651 0.0
C3754 C 0.75016 0.09372 0.96886 0.0
C3755 C 0.75082 0.10278 0.95565 0.0
C3756 C 0.75561 0.11675 0.9593 0.0
C3757 C 0.75965 0.12177 0.97614 0.0
C3758 C 0.75888 0.11281 0.98937 0.0
C3759 C 0.75412 0.09882 0.98579 0.0
H3760 H 0.76336 0.1326 0.97893 0.0
H3761 H 0.71829 0.9967 0.9469 0.0
H3762 H 0.6695 0.98516 0.04227 0.0
H3763 H 0.67749 0.97092 0.05734 0.0
H3764 H 0.64859 0.93526 0.02775 0.0
H3765 H 0.64025 0.94925 0.01319 0.0
H3766 H 0.64663 0.9286 0.05985 0.0
H3767 H 0.68454 0.95276 0.02095 0.0
H3768 H 0.7036 0.97321 0.0071 0.0
H3769 H 0.72382 0.98714 0.05641 0.0
H3770 H 0.70478 0.96686 0.0706 0.0
H3771 H 0.67134 0.88214 0.07576 0.0
H3772 H 0.6678 0.89954 0.06075 0.0
H3773 H 0.68797 0.92831 0.10261 0.0
H3774 H 0.69105 0.91076 0.11818 0.0
H3775 H 0.6953 0.93943 0.06621 0.0
H3776 H 0.65672 0.91437 0.10449 0.0
H3777 H 0.63775 0.89319 0.11717 0.0
H3778 H 0.61886 0.88032 0.06698 0.0
H3779 H 0.63785 0.90134 0.05395 0.0
C3780 C 0.66497 0.97432 0.03887 0.0
C3781 C 0.65419 0.96831 0.02663 0.0
C3782 C 0.66958 0.9662 0.04745 0.0
C3783 C 0.66368 0.95201 0.04364 0.0
C3784 C 0.65323 0.94614 0.03101 0.0
C3785 C 0.64848 0.95417 0.02267 0.0
C3786 C 0.66775 0.94301 0.05339 0.0
C3787 C 0.65727 0.93094 0.06102 0.0
C3788 C 0.68167 0.9462 0.05536 0.0
C3789 C 0.69316 0.95837 0.04686 0.0
C3790 C 0.693 0.96024 0.02886 0.0
C3791 C 0.70381 0.97179 0.02095 0.0
C3792 C 0.7149 0.98149 0.03088 0.0
C3793 C 0.71521 0.97963 0.04874 0.0
C3794 C 0.70442 0.96811 0.05672 0.0
C3795 C 0.67497 0.89212 0.08187 0.0
C3796 C 0.68132 0.89495 0.09831 0.0
C3797 C 0.67307 0.90209 0.07317 0.0
C3798 C 0.67759 0.91514 0.08063 0.0
C3799 C 0.68449 0.91829 0.09664 0.0
C3800 C 0.68626 0.90825 0.10548 0.0
C3801 C 0.67414 0.92504 0.07223 0.0
C3802 C 0.6847 0.93723 0.06498 0.0
C3803 C 0.66029 0.92193 0.0704 0.0
C3804 C 0.64878 0.90936 0.07823 0.0
C3805 C 0.64859 0.90697 0.09614 0.0
C3806 C 0.63782 0.895 0.10339 0.0
C3807 C 0.62712 0.8854 0.09288 0.0
C3808 C 0.62716 0.88776 0.0751 0.0
C3809 C 0.63792 0.8997 0.06778 0.0
H3810 H 0.6188 0.87614 0.09852 0.0
H3811 H 0.72326 0.99043 0.02473 0.0
H3812 H 0.05366 0.69531 0.01107 0.0
H3813 H 0.06707 0.71669 0.02733 0.0
H3814 H 0.03097 0.70828 0.05662 0.0
H3815 H 0.01729 0.687 0.03982 0.0
H3816 H 0.04585 0.73521 0.05068 0.0
H3817 H 0.05536 0.70089 0.07332 0.0
H3818 H 0.0615 0.68238 0.07256 0.0
H3819 H 0.1011 0.71082 0.05157 0.0
H3820 H 0.09512 0.72947 0.05196 0.0
H3821 H 0.08957 0.78085 0.11967 0.0
H3822 H 0.07256 0.76061 0.1034 0.0
H3823 H 0.10235 0.76923 0.06329 0.0
H3824 H 0.11919 0.78978 0.07893 0.0
H3825 H 0.08921 0.7414 0.07739 0.0
H3826 H 0.07816 0.77559 0.0545 0.0
H3827 H 0.07131 0.79351 0.05703 0.0
H3828 H 0.03362 0.76429 0.0816 0.0
H3829 H 0.04036 0.74623 0.07944 0.0
C3830 C 0.04852 0.69806 0.02086 0.0
C3831 C 0.03446 0.68938 0.02432 0.0
C3832 C 0.05622 0.71026 0.03021 0.0
C3833 C 0.05012 0.71391 0.04354 0.0
C3834 C 0.03592 0.70562 0.04648 0.0
C3835 C 0.02812 0.69347 0.03689 0.0
C3836 C 0.0588 0.72605 0.05473 0.0
C3837 C 0.05522 0.73646 0.05673 0.0
C3838 C 0.07104 0.72771 0.06268 0.0
C3839 C 0.07474 0.71655 0.06255 0.0
C3840 C 0.06535 0.70318 0.06844 0.0
C3841 C 0.0688 0.69266 0.06809 0.0
C3842 C 0.08168 0.69541 0.06199 0.0
C3843 C 0.09113 0.7087 0.05628 0.0
C3844 C 0.08772 0.71925 0.05658 0.0
C3845 C 0.09245 0.77863 0.10722 0.0
C3846 C 0.10584 0.78693 0.10071 0.0
C3847 C 0.08272 0.76701 0.098 0.0
C3848 C 0.08624 0.76344 0.0822 0.0
C3849 C 0.09948 0.77179 0.07554 0.0
C3850 C 0.10913 0.78348 0.08459 0.0
C3851 C 0.07643 0.75065 0.07291 0.0
C3852 C 0.07979 0.74008 0.07139 0.0
C3853 C 0.0639 0.74876 0.06574 0.0
C3854 C 0.05984 0.75961 0.067 0.0
C3855 C 0.06848 0.77302 0.0606 0.0
C3856 C 0.0646 0.7832 0.06193 0.0
C3857 C 0.05206 0.78006 0.06952 0.0
C3858 C 0.04335 0.76672 0.07575 0.0
C3859 C 0.04719 0.7565 0.07447 0.0
H3860 H 0.04907 0.78795 0.07053 0.0
H3861 H 0.08433 0.68725 0.06173 0.0
H3862 H 0.32289 0.33772 0.06038 0.0
H3863 H 0.30106 0.33247 0.07366 0.0
H3864 H 0.28705 0.34083 0.02516 0.0
H3865 H 0.30917 0.34667 0.01201 0.0
H3866 H 0.28077 0.35231 0.04937 0.0
H3867 H 0.2744 0.30692 0.04216 0.0
H3868 H 0.28012 0.28812 0.04422 0.0
H3869 H 0.28063 0.29063 0.09969 0.0
H3870 H 0.2751 0.30958 0.09796 0.0
H3871 H 0.211 0.32354 0.07846 0.0
H3872 H 0.23117 0.32617 0.06266 0.0
H3873 H 0.25187 0.3287 0.11105 0.0
H3874 H 0.23181 0.32619 0.1269 0.0
H3875 H 0.25354 0.31063 0.08548 0.0
H3876 H 0.26076 0.35721 0.09131 0.0
H3877 H 0.25416 0.3753 0.08807 0.0
H3878 H 0.25074 0.36917 0.03301 0.0
H3879 H 0.25712 0.35088 0.03596 0.0
C3880 C 0.31512 0.33832 0.0525 0.0
C3881 C 0.31774 0.34258 0.03514 0.0
C3882 C 0.30258 0.33524 0.06008 0.0
C3883 C 0.29225 0.33602 0.05038 0.0
C3884 C 0.29482 0.34012 0.03295 0.0
C3885 C 0.30745 0.34342 0.02542 0.0
C3886 C 0.27906 0.33316 0.05862 0.0
C3887 C 0.27471 0.34305 0.05698 0.0
C3888 C 0.27117 0.32119 0.06881 0.0
C3889 C 0.27445 0.30976 0.06992 0.0
C3890 C 0.27583 0.30353 0.0548 0.0
C3891 C 0.27902 0.29284 0.05591 0.0
C3892 C 0.28077 0.28821 0.07208 0.0
C3893 C 0.27929 0.29424 0.08717 0.0
C3894 C 0.27611 0.30494 0.08614 0.0
C3895 C 0.21983 0.32458 0.0857 0.0
C3896 C 0.21988 0.32473 0.1039 0.0
C3897 C 0.23134 0.32612 0.07668 0.0
C3898 C 0.24301 0.32767 0.0857 0.0
C3899 C 0.24296 0.32751 0.10386 0.0
C3900 C 0.23155 0.32618 0.11288 0.0
C3901 C 0.25544 0.3298 0.07624 0.0
C3902 C 0.2596 0.31979 0.07769 0.0
C3903 C 0.26303 0.34153 0.06566 0.0
C3904 C 0.25927 0.35257 0.06388 0.0
C3905 C 0.25848 0.35963 0.07853 0.0
C3906 C 0.2548 0.36994 0.07674 0.0
C3907 C 0.25199 0.37336 0.06035 0.0
C3908 C 0.25289 0.3665 0.0457 0.0
C3909 C 0.25655 0.35616 0.04743 0.0
H3910 H 0.24915 0.38134 0.05899 0.0
H3911 H 0.28324 0.27993 0.07291 0.0
H3912 H 0.68353 0.66073 0.36923 0.0
H3913 H 0.69678 0.65083 0.38261 0.0
H3914 H 0.73387 0.69048 0.37904 0.0
H3915 H 0.72091 0.70036 0.36556 0.0
H3916 H 0.73837 0.67012 0.3686 0.0
H3917 H 0.71612 0.67865 0.41715 0.0
H3918 H 0.69608 0.67586 0.43368 0.0
H3919 H 0.68037 0.63195 0.43632 0.0
H3920 H 0.70026 0.63447 0.41959 0.0
H3921 H 0.78629 0.67326 0.42974 0.0
H3922 H 0.76894 0.67592 0.41333 0.0
H3923 H 0.73934 0.63294 0.42213 0.0
H3924 H 0.75668 0.63026 0.43898 0.0
H3925 H 0.72844 0.65016 0.42774 0.0
H3926 H 0.75289 0.64243 0.38293 0.0
H3927 H 0.77332 0.64562 0.36697 0.0
H3928 H 0.78507 0.68815 0.35738 0.0
H3929 H 0.76483 0.68528 0.37349 0.0
C3930 C 0.69451 0.66734 0.3713 0.0
C3931 C 0.70112 0.68137 0.36634 0.0
C3932 C 0.70206 0.66167 0.37898 0.0
C3933 C 0.71631 0.66994 0.38189 0.0
C3934 C 0.7229 0.68388 0.37686 0.0
C3935 C 0.71542 0.68953 0.36921 0.0
C3936 C 0.72456 0.66431 0.39023 0.0
C3937 C 0.73622 0.66579 0.38155 0.0
C3938 C 0.72149 0.65822 0.40688 0.0
C3939 C 0.70957 0.65672 0.41694 0.0
C3940 C 0.70833 0.66839 0.42113 0.0
C3941 C 0.69702 0.66686 0.43056 0.0
C3942 C 0.68693 0.65373 0.43599 0.0
C3943 C 0.68817 0.64211 0.43206 0.0
C3944 C 0.69946 0.64358 0.42262 0.0
C3945 C 0.77607 0.66437 0.42828 0.0
C3946 C 0.77284 0.65155 0.4357 0.0
C3947 C 0.7662 0.66588 0.41875 0.0
C3948 C 0.7529 0.65459 0.41634 0.0
C3949 C 0.74957 0.64176 0.42377 0.0
C3950 C 0.7595 0.64023 0.43328 0.0
C3951 C 0.74251 0.65645 0.40634 0.0
C3952 C 0.73044 0.65423 0.41465 0.0
C3953 C 0.74521 0.66189 0.38934 0.0
C3954 C 0.75736 0.66365 0.37951 0.0
C3955 C 0.75988 0.65249 0.37751 0.0
C3956 C 0.77142 0.65424 0.36843 0.0
C3957 C 0.7805 0.66708 0.36119 0.0
C3958 C 0.77803 0.6782 0.36299 0.0
C3959 C 0.76651 0.67652 0.37208 0.0
H3960 H 0.78943 0.66842 0.35416 0.0
H3961 H 0.67818 0.65257 0.4433 0.0
H3962 H 0.31435 0.02176 0.3486 0.0
H3963 H 0.32043 0.04439 0.36063 0.0
H3964 H 0.35183 0.04314 0.39253 0.0
H3965 H 0.34519 0.02011 0.3812 0.0
H3966 H 0.33914 0.05148 0.41129 0.0
H3967 H 0.35894 0.06534 0.35548 0.0
H3968 H 0.36009 0.06535 0.32362 0.0
H3969 H 0.32835 0.07655 0.32008 0.0
H3970 H 0.32687 0.07643 0.35192 0.0
H3971 H 0.37027 0.12525 0.42986 0.0
H3972 H 0.36731 0.10447 0.41517 0.0
H3973 H 0.32426 0.09097 0.40679 0.0
H3974 H 0.32676 0.11113 0.42249 0.0
H3975 H 0.34483 0.09141 0.37604 0.0
H3976 H 0.32431 0.0743 0.43351 0.0
H3977 H 0.32572 0.07601 0.46537 0.0
H3978 H 0.36254 0.07273 0.46497 0.0
H3979 H 0.36145 0.07122 0.43305 0.0
C3980 C 0.32267 0.0264 0.35802 0.0
C3981 C 0.32932 0.0192 0.36396 0.0
C3982 C 0.3262 0.03939 0.36484 0.0
C3983 C 0.33675 0.04565 0.37735 0.0
C3984 C 0.34364 0.03857 0.38294 0.0
C3985 C 0.33989 0.02544 0.3764 0.0
C3986 C 0.34003 0.05915 0.38531 0.0
C3987 C 0.34058 0.06023 0.40347 0.0
C3988 C 0.34187 0.07066 0.37526 0.0
C3989 C 0.34272 0.07076 0.3561 0.0
C3990 C 0.35214 0.06771 0.34791 0.0
C3991 C 0.35286 0.06775 0.32985 0.0
C3992 C 0.34428 0.07092 0.31984 0.0
C3993 C 0.33498 0.07409 0.32786 0.0
C3994 C 0.33421 0.07405 0.34591 0.0
C3995 C 0.36011 0.11782 0.42513 0.0
C3996 C 0.34875 0.11993 0.42754 0.0
C3997 C 0.3585 0.10603 0.41655 0.0
C3998 C 0.34559 0.09628 0.40992 0.0
C3999 C 0.33432 0.09848 0.41175 0.0
C4000 C 0.33583 0.11009 0.42065 0.0
C4001 C 0.34368 0.08345 0.40173 0.0
C4002 C 0.34344 0.08259 0.38364 0.0
C4003 C 0.34242 0.07225 0.41176 0.0
C4004 C 0.3429 0.07284 0.43092 0.0
C4005 C 0.33277 0.07407 0.44022 0.0
C4006 C 0.33349 0.07498 0.45828 0.0
C4007 C 0.34425 0.07455 0.46718 0.0
C4008 C 0.35424 0.0731 0.45805 0.0
C4009 C 0.35357 0.07222 0.43998 0.0
H4010 H 0.34482 0.07532 0.48115 0.0
H4011 H 0.34485 0.07095 0.30586 0.0
H4012 H 0.97477 0.29469 0.34406 0.0
H4013 H 0.95288 0.27855 0.35767 0.0
H4014 H 0.96364 0.30556 0.402 0.0
H4015 H 0.98557 0.3217 0.38853 0.0
H4016 H 0.95398 0.27884 0.41162 0.0
H4017 H 0.93979 0.30354 0.373 0.0
H4018 H 0.93761 0.31294 0.34491 0.0
H4019 H 0.91556 0.27181 0.32388 0.0
H4020 H 0.91777 0.26217 0.35178 0.0
H4021 H 0.88912 0.2453 0.45243 0.0
H4022 H 0.90985 0.26263 0.43787 0.0
H4023 H 0.89864 0.23666 0.39248 0.0
H4024 H 0.87754 0.21951 0.40669 0.0
H4025 H 0.90847 0.26309 0.38341 0.0
H4026 H 0.92311 0.23834 0.42118 0.0
H4027 H 0.92498 0.2285 0.44907 0.0
H4028 H 0.94617 0.26924 0.47137 0.0
H4029 H 0.94427 0.27932 0.44363 0.0
C4030 C 0.97244 0.29724 0.35666 0.0
C4031 C 0.9819 0.3095 0.3652 0.0
C4032 C 0.95991 0.28802 0.36441 0.0
C4033 C 0.95657 0.29088 0.38082 0.0
C4034 C 0.96599 0.30313 0.38933 0.0
C4035 C 0.9785 0.31238 0.38158 0.0
C4036 C 0.94343 0.28095 0.3893 0.0
C4037 C 0.94402 0.27556 0.40556 0.0
C4038 C 0.93044 0.27638 0.38121 0.0
C4039 C 0.92906 0.28214 0.36443 0.0
C4040 C 0.93457 0.29651 0.36234 0.0
C4041 C 0.93331 0.30188 0.34646 0.0
C4042 C 0.92648 0.29298 0.33261 0.0
C4043 C 0.92086 0.27869 0.33462 0.0
C4044 C 0.9221 0.27326 0.35047 0.0
C4045 C 0.89092 0.24334 0.43925 0.0
C4046 C 0.88165 0.23095 0.43077 0.0
C4047 C 0.90288 0.25322 0.431 0.0
C4048 C 0.90593 0.25087 0.41416 0.0
C4049 C 0.89655 0.23868 0.4055 0.0
C4050 C 0.88455 0.22882 0.41372 0.0
C4051 C 0.91902 0.261 0.40572 0.0
C4052 C 0.91843 0.2664 0.38948 0.0
C4053 C 0.93203 0.26554 0.41377 0.0
C4054 C 0.93343 0.25956 0.43038 0.0
C4055 C 0.9281 0.24519 0.43205 0.0
C4056 C 0.92917 0.23958 0.44783 0.0
C4057 C 0.93565 0.24824 0.46199 0.0
C4058 C 0.94114 0.26255 0.46039 0.0
C4059 C 0.94008 0.26822 0.44463 0.0
H4060 H 0.93644 0.24385 0.47419 0.0
H4061 H 0.92552 0.29716 0.32032 0.0
H4062 H 0.99564 0.34605 0.30548 0.0
H4063 H 0.9853 0.35791 0.28936 0.0
H4064 H 0.01048 0.39525 0.31846 0.0
H4065 H 0.02099 0.38369 0.33419 0.0
H4066 H 0.98204 0.38842 0.31389 0.0
H4067 H 0.02145 0.39274 0.28138 0.0
H4068 H 0.03408 0.38311 0.26584 0.0
H4069 H 0.99988 0.36187 0.23075 0.0
H4070 H 0.98696 0.37122 0.24627 0.0
H4071 H 0.99172 0.44783 0.27083 0.0
H4072 H 0.99342 0.42935 0.28563 0.0
H4073 H 0.9745 0.4024 0.24174 0.0
H4074 H 0.9736 0.42121 0.22631 0.0
H4075 H 0.99497 0.39961 0.25226 0.0
H4076 H 0.95692 0.39811 0.28099 0.0
H4077 H 0.94354 0.40704 0.29621 0.0
H4078 H 0.97306 0.4214 0.33794 0.0
H4079 H 0.98674 0.41274 0.32286 0.0
C4080 C 0.9988 0.35673 0.30856 0.0
C4081 C 0.00917 0.36396 0.32103 0.0
C4082 C 0.99293 0.36348 0.29934 0.0
C4083 C 0.99717 0.37746 0.30273 0.0
C4084 C 0.00704 0.38446 0.3157 0.0
C4085 C 0.01308 0.37784 0.32462 0.0
C4086 C 0.99212 0.38526 0.29219 0.0
C4087 C 0.98482 0.39088 0.30041 0.0
C4088 C 0.99538 0.38806 0.27447 0.0
C4089 C 0.00318 0.38251 0.26512 0.0
C4090 C 0.01658 0.3859 0.27046 0.0
C4091 C 0.0238 0.38052 0.26163 0.0
C4092 C 0.01777 0.37184 0.24735 0.0
C4093 C 0.00452 0.36856 0.24184 0.0
C4094 C 0.99725 0.3739 0.25064 0.0
C4095 C 0.98801 0.43803 0.2642 0.0
C4096 C 0.98256 0.43609 0.2473 0.0
C4097 C 0.98878 0.42735 0.27283 0.0
C4098 C 0.98384 0.41434 0.26497 0.0
C4099 C 0.97829 0.4123 0.24815 0.0
C4100 C 0.97767 0.42305 0.2394 0.0
C4101 C 0.98516 0.40319 0.27407 0.0
C4102 C 0.99181 0.39693 0.26561 0.0
C4103 C 0.98111 0.39965 0.29153 0.0
C4104 C 0.9729 0.40483 0.30072 0.0
C4105 C 0.96061 0.40325 0.29336 0.0
C4106 C 0.95297 0.40825 0.30197 0.0
C4107 C 0.95746 0.4148 0.31802 0.0
C4108 C 0.9696 0.41632 0.3255 0.0
C4109 C 0.97728 0.41135 0.31694 0.0
H4110 H 0.95153 0.41867 0.32466 0.0
H4111 H 0.02338 0.36769 0.24053 0.0
H4112 H 0.63244 0.6412 0.35055 0.0
H4113 H 0.61568 0.61871 0.33839 0.0
H4114 H 0.63522 0.63135 0.28858 0.0
H4115 H 0.65222 0.65359 0.30078 0.0
H4116 H 0.59693 0.61248 0.31522 0.0
H4117 H 0.63099 0.60438 0.26483 0.0
H4118 H 0.65494 0.60903 0.26215 0.0
H4119 H 0.65896 0.6095 0.31749 0.0
H4120 H 0.63498 0.60466 0.32052 0.0
H4121 H 0.55519 0.56782 0.24929 0.0
H4122 H 0.57319 0.58701 0.2659 0.0
H4123 H 0.58773 0.55996 0.28544 0.0
H4124 H 0.56988 0.54077 0.26848 0.0
H4125 H 0.60882 0.58372 0.27775 0.0
H4126 H 0.56833 0.56971 0.31079 0.0
H4127 H 0.54417 0.56339 0.31628 0.0
H4128 H 0.55276 0.60412 0.30106 0.0
H4129 H 0.57693 0.61062 0.29524 0.0
C4130 C 0.63326 0.6391 0.33706 0.0
C4131 C 0.64367 0.64916 0.32664 0.0
C4132 C 0.62365 0.62626 0.33011 0.0
C4133 C 0.62423 0.62324 0.31259 0.0
C4134 C 0.6347 0.63326 0.30221 0.0
C4135 C 0.64439 0.64603 0.3092 0.0
C4136 C 0.61347 0.60997 0.30487 0.0
C4137 C 0.59955 0.60617 0.3071 0.0
C4138 C 0.61681 0.6015 0.29459 0.0
C4139 C 0.63121 0.60427 0.29289 0.0
C4140 C 0.63696 0.60541 0.27643 0.0
C4141 C 0.65055 0.60809 0.27485 0.0
C4142 C 0.65848 0.6096 0.28964 0.0
C4143 C 0.65282 0.60838 0.30605 0.0
C4144 C 0.63924 0.60569 0.3077 0.0
C4145 C 0.56219 0.56596 0.2572 0.0
C4146 C 0.56108 0.55278 0.25769 0.0
C4147 C 0.57246 0.57692 0.26672 0.0
C4148 C 0.58168 0.57489 0.2772 0.0
C4149 C 0.58073 0.56178 0.27749 0.0
C4150 C 0.57054 0.55083 0.2678 0.0
C4151 C 0.59234 0.58649 0.28771 0.0
C4152 C 0.60622 0.58998 0.28599 0.0
C4153 C 0.58895 0.59445 0.29888 0.0
C4154 C 0.57443 0.59062 0.30246 0.0
C4155 C 0.56505 0.57729 0.3085 0.0
C4156 C 0.55135 0.57368 0.31169 0.0
C4157 C 0.54693 0.58334 0.30899 0.0
C4158 C 0.5562 0.59664 0.30314 0.0
C4159 C 0.56991 0.6003 0.29991 0.0
H4160 H 0.53632 0.58052 0.31147 0.0
H4161 H 0.669 0.61168 0.28838 0.0
H4162 H 0.34876 0.9984 0.31034 0.0
H4163 H 0.37011 0.0064 0.29389 0.0
H4164 H 0.38033 0.98009 0.32451 0.0
H4165 H 0.359 0.97188 0.34076 0.0
H4166 H 0.40285 0.00779 0.31893 0.0
H4167 H 0.36675 0.96863 0.28752 0.0
H4168 H 0.34422 0.95618 0.27259 0.0
H4169 H 0.35689 0.98964 0.23639 0.0
H4170 H 0.37945 0.00239 0.25129 0.0
H4171 H 0.45152 0.99825 0.27336 0.0
H4172 H 0.43149 0.99576 0.28882 0.0
H4173 H 0.42222 0.01556 0.24671 0.0
H4174 H 0.44183 0.01735 0.23061 0.0
H4175 H 0.39946 0.99434 0.25714 0.0
H4176 H 0.43638 0.03258 0.28587 0.0
H4177 H 0.45884 0.04577 0.30075 0.0
H4178 H 0.44494 0.01579 0.34174 0.0
H4179 H 0.42245 0.0023 0.32699 0.0
C4180 C 0.35563 0.99443 0.31367 0.0
C4181 C 0.35217 0.98446 0.32678 0.0
C4182 C 0.36779 0.99898 0.30424 0.0
C4183 C 0.37674 0.99378 0.30797 0.0
C4184 C 0.37355 0.98423 0.32146 0.0
C4185 C 0.36133 0.97951 0.33067 0.0
C4186 C 0.38916 0.99776 0.29741 0.0
C4187 C 0.40216 0.00482 0.30544 0.0
C4188 C 0.38821 0.99424 0.27969 0.0
C4189 C 0.37471 0.98653 0.27064 0.0
C4190 C 0.36469 0.97339 0.27647 0.0
C4191 C 0.35193 0.96627 0.268 0.0
C4192 C 0.34912 0.97214 0.25359 0.0
C4193 C 0.35908 0.98512 0.24758 0.0
C4194 C 0.37186 0.9923 0.25603 0.0
C4195 C 0.44517 0.00196 0.26725 0.0
C4196 C 0.44832 0.00798 0.25068 0.0
C4197 C 0.4338 0.00072 0.27625 0.0
C4198 C 0.42545 0.0057 0.2691 0.0
C4199 C 0.42855 0.01172 0.25256 0.0
C4200 C 0.43986 0.01285 0.24345 0.0
C4201 C 0.41327 0.00419 0.27872 0.0
C4202 C 0.40028 0.99756 0.27054 0.0
C4203 C 0.41425 0.00827 0.29628 0.0
C4204 C 0.42775 0.01637 0.30525 0.0
C4205 C 0.43814 0.02874 0.298 0.0
C4206 C 0.45087 0.03629 0.30642 0.0
C4207 C 0.45332 0.03161 0.32216 0.0
C4208 C 0.44303 0.0194 0.32954 0.0
C4209 C 0.43028 0.01181 0.32116 0.0
H4210 H 0.46319 0.03747 0.32866 0.0
H4211 H 0.33924 0.9666 0.24704 0.0
H4212 H 0.65402 0.00174 0.29652 0.0
H4213 H 0.63665 0.00662 0.28401 0.0
H4214 H 0.61176 0.99019 0.32966 0.0
H4215 H 0.62905 0.98513 0.3422 0.0
H4216 H 0.5966 0.97983 0.30072 0.0
H4217 H 0.62888 0.0248 0.322 0.0
H4218 H 0.65172 0.04548 0.32608 0.0
H4219 H 0.65457 0.05305 0.27134 0.0
H4220 H 0.63182 0.03229 0.26689 0.0
H4221 H 0.54833 0.00142 0.27713 0.0
H4222 H 0.5663 0.99909 0.29267 0.0
H4223 H 0.5925 0.01419 0.24793 0.0
H4224 H 0.57453 0.01641 0.23223 0.0
H4225 H 0.60682 0.02573 0.27782 0.0
H4226 H 0.57509 0.98006 0.25659 0.0
H4227 H 0.55231 0.95929 0.25255 0.0
H4228 H 0.54851 0.95311 0.30755 0.0
H4229 H 0.57121 0.97397 0.31193 0.0
C4230 C 0.64491 0.99927 0.30397 0.0
C4231 C 0.64291 0.99304 0.32036 0.0
C4232 C 0.63501 0.00212 0.29683 0.0
C4233 C 0.62295 0.99887 0.30596 0.0
C4234 C 0.62099 0.99279 0.3224 0.0
C4235 C 0.63091 0.98995 0.32957 0.0
C4236 C 0.61211 0.00127 0.298 0.0
C4237 C 0.59878 0.98993 0.29599 0.0
C4238 C 0.61503 0.01437 0.29147 0.0
C4239 C 0.62869 0.02691 0.2941 0.0
C4240 C 0.63442 0.03081 0.31081 0.0
C4241 C 0.64734 0.04256 0.3132 0.0
C4242 C 0.6546 0.05055 0.29897 0.0
C4243 C 0.64894 0.04684 0.28234 0.0
C4244 C 0.63602 0.03509 0.27989 0.0
C4245 C 0.55788 0.00417 0.27055 0.0
C4246 C 0.55995 0.00903 0.25339 0.0
C4247 C 0.56816 0.00288 0.27948 0.0
C4248 C 0.58069 0.00634 0.2714 0.0
C4249 C 0.58292 0.01149 0.25443 0.0
C4250 C 0.57264 0.01279 0.24549 0.0
C4251 C 0.59135 0.00429 0.28049 0.0
C4252 C 0.60464 0.01568 0.28267 0.0
C4253 C 0.5884 0.99123 0.2872 0.0
C4254 C 0.57478 0.97866 0.28459 0.0
C4255 C 0.56935 0.97434 0.26783 0.0
C4256 C 0.55646 0.96254 0.26548 0.0
C4257 C 0.54895 0.95491 0.27979 0.0
C4258 C 0.55433 0.95904 0.29648 0.0
C4259 C 0.56721 0.97085 0.2989 0.0
H4260 H 0.53897 0.94578 0.27794 0.0
H4261 H 0.66461 0.05965 0.30085 0.0
H4262 H 0.02829 0.64284 0.33969 0.0
H4263 H 0.02025 0.62128 0.32377 0.0
H4264 H 0.99305 0.63038 0.29329 0.0
H4265 H 0.00075 0.6519 0.30975 0.0
H4266 H 0.981 0.60334 0.29946 0.0
H4267 H 0.0245 0.63704 0.27756 0.0
H4268 H 0.04893 0.65522 0.27878 0.0
H4269 H 0.05984 0.62628 0.30076 0.0
H4270 H 0.03543 0.60796 0.29992 0.0
H4271 H 0.97886 0.55742 0.23101 0.0
H4272 H 0.98235 0.57782 0.24722 0.0
H4273 H 0.00313 0.56826 0.28777 0.0
H4274 H 0.99913 0.5475 0.27219 0.0
H4275 H 0.01782 0.59623 0.27407 0.0
H4276 H 0.97303 0.56268 0.29607 0.0
H4277 H 0.94848 0.54505 0.29313 0.0
H4278 H 0.94009 0.57472 0.26796 0.0
H4279 H 0.96465 0.59248 0.27053 0.0
C4280 C 0.02048 0.6402 0.32973 0.0
C4281 C 0.01527 0.64915 0.32583 0.0
C4282 C 0.01593 0.62789 0.32057 0.0
C4283 C 0.00633 0.62438 0.30698 0.0
C4284 C 1.00055 0.63293 0.30362 0.0
C4285 C 0.00495 0.64521 0.31303 0.0
C4286 C 0.0029 0.61213 0.29593 0.0
C4287 C 0.98904 0.60189 0.29369 0.0
C4288 C 0.01338 0.61019 0.28839 0.0
C4289 C 0.02811 0.62115 0.2888 0.0
C4290 C 0.03209 0.63457 0.28276 0.0
C4291 C 0.04594 0.6449 0.28337 0.0
C4292 C 0.05593 0.64192 0.28987 0.0
C4293 C 0.05209 0.62858 0.29574 0.0
C4294 C 0.03825 0.61821 0.29518 0.0
C4295 C 0.98393 0.55945 0.24354 0.0
C4296 C 0.98877 0.55077 0.2502 0.0
C4297 C 0.98597 0.57118 0.25272 0.0
C4298 C 0.99301 0.57453 0.26865 0.0
C4299 C 0.99774 0.56587 0.27543 0.0
C4300 C 0.99553 0.55406 0.26641 0.0
C4301 C 0.996 0.58736 0.27799 0.0
C4302 C 0.0098 0.59774 0.27979 0.0
C4303 C 0.98546 0.58951 0.2848 0.0
C4304 C 0.9707 0.57886 0.2833 0.0
C4305 C 0.96598 0.56541 0.28975 0.0
C4306 C 0.95206 0.5554 0.28819 0.0
C4307 C 0.94274 0.55875 0.28031 0.0
C4308 C 0.94732 0.57213 0.27403 0.0
C4309 C 0.96124 0.58217 0.27555 0.0
H4310 H 0.93197 0.55099 0.27912 0.0
H4311 H 0.06665 0.64993 0.29034 0.0
H4312 H 0.35663 0.381 0.34351 0.0
H4313 H 0.37805 0.39834 0.32989 0.0
H4314 H 0.37986 0.36617 0.30088 0.0
H4315 H 0.35822 0.34879 0.31402 0.0
H4316 H 0.40706 0.39335 0.3222 0.0
H4317 H 0.37106 0.37622 0.27539 0.0
H4318 H 0.34761 0.37017 0.26557 0.0
H4319 H 0.35503 0.41062 0.28008 0.0
H4320 H 0.37846 0.4168 0.29022 0.0
H4321 H 0.45719 0.43096 0.25902 0.0
H4322 H 0.4377 0.41349 0.27515 0.0
H4323 H 0.41934 0.43984 0.27556 0.0
H4324 H 0.43817 0.45684 0.25807 0.0
H4325 H 0.40029 0.41554 0.26993 0.0
H4326 H 0.43646 0.43483 0.31211 0.0
H4327 H 0.45952 0.44238 0.32463 0.0
H4328 H 0.45214 0.4006 0.32269 0.0
H4329 H 0.42909 0.39282 0.30993 0.0
C4330 C 0.36172 0.37759 0.33446 0.0
C4331 C 0.35575 0.36357 0.32974 0.0
C4332 C 0.37392 0.38749 0.3267 0.0
C4333 C 0.38043 0.38347 0.31439 0.0
C4334 C 0.37493 0.36941 0.31037 0.0
C4335 C 0.36258 0.35953 0.31785 0.0
C4336 C 0.39231 0.39405 0.3047 0.0
C4337 C 0.40568 0.39813 0.31063 0.0
C4338 C 0.39037 0.40054 0.29006 0.0
C4339 C 0.37641 0.3969 0.28373 0.0
C4340 C 0.36763 0.38376 0.27662 0.0
C4341 C 0.35436 0.38032 0.27097 0.0
C4342 C 0.34982 0.38999 0.27225 0.0
C4343 C 0.35856 0.40314 0.27912 0.0
C4344 C 0.37182 0.40661 0.28482 0.0
C4345 C 0.44892 0.433 0.26225 0.0
C4346 C 0.44935 0.44541 0.25717 0.0
C4347 C 0.43786 0.42306 0.27179 0.0
C4348 C 0.42713 0.42542 0.27693 0.0
C4349 C 0.4275 0.43777 0.27186 0.0
C4350 C 0.43842 0.4476 0.26202 0.0
C4351 C 0.41535 0.4149 0.28716 0.0
C4352 C 0.40188 0.41083 0.28142 0.0
C4353 C 0.41726 0.40864 0.30221 0.0
C4354 C 0.4311 0.41327 0.30991 0.0
C4355 C 0.43979 0.42727 0.31423 0.0
C4356 C 0.45286 0.43159 0.32139 0.0
C4357 C 0.45731 0.42198 0.32441 0.0
C4358 C 0.44868 0.40803 0.32032 0.0
C4359 C 0.43562 0.40366 0.31314 0.0
H4360 H 0.46742 0.42535 0.32996 0.0
H4361 H 0.33955 0.38732 0.26789 0.0
H4362 H 0.34464 0.32351 0.36949 0.0
H4363 H 0.3544 0.31163 0.38655 0.0
H4364 H 0.31337 0.27866 0.39773 0.0
H4365 H 0.30358 0.29032 0.38073 0.0
H4366 H 0.3313 0.28705 0.42665 0.0
H4367 H 0.33008 0.27455 0.36598 0.0
H4368 H 0.33608 0.27994 0.33521 0.0
H4369 H 0.37916 0.29942 0.34832 0.0
H4370 H 0.3734 0.29432 0.37923 0.0
H4371 H 0.32973 0.22462 0.44322 0.0
H4372 H 0.32747 0.24384 0.43153 0.0
H4373 H 0.37133 0.2669 0.42283 0.0
H4374 H 0.37363 0.24742 0.43413 0.0
H4375 H 0.35689 0.26801 0.39507 0.0
H4376 H 0.35786 0.27635 0.45525 0.0
H4377 H 0.35177 0.27058 0.48592 0.0
H4378 H 0.30977 0.25932 0.47439 0.0
H4379 H 0.31554 0.2648 0.44358 0.0
C4380 C 0.33772 0.3138 0.37574 0.0
C4381 C 0.32334 0.30779 0.37365 0.0
C4382 C 0.3433 0.30704 0.38545 0.0
C4383 C 0.33458 0.29427 0.39333 0.0
C4384 C 0.32026 0.28853 0.39178 0.0
C4385 C 0.31469 0.29517 0.38195 0.0
C4386 C 0.34018 0.2863 0.40234 0.0
C4387 C 0.33692 0.28289 0.4198 0.0
C4388 C 0.34787 0.28125 0.39348 0.0
C4389 C 0.35132 0.28422 0.37491 0.0
C4390 C 0.34083 0.28009 0.36231 0.0
C4391 C 0.34419 0.28307 0.34485 0.0
C4392 C 0.358 0.29006 0.33982 0.0
C4393 C 0.36847 0.29404 0.35224 0.0
C4394 C 0.36517 0.29111 0.36973 0.0
C4395 C 0.3389 0.23373 0.43871 0.0
C4396 C 0.35185 0.23448 0.43951 0.0
C4397 C 0.33762 0.24479 0.43223 0.0
C4398 C 0.34927 0.25688 0.42656 0.0
C4399 C 0.36223 0.25769 0.42727 0.0
C4400 C 0.36353 0.2466 0.43379 0.0
C4401 C 0.34763 0.26837 0.41929 0.0
C4402 C 0.35162 0.27245 0.40213 0.0
C4403 C 0.34066 0.27408 0.42848 0.0
C4404 C 0.33713 0.27093 0.44706 0.0
C4405 C 0.34731 0.27257 0.45923 0.0
C4406 C 0.34391 0.26935 0.47664 0.0
C4407 C 0.33039 0.26457 0.4821 0.0
C4408 C 0.32024 0.26303 0.47015 0.0
C4409 C 0.32357 0.26621 0.4527 0.0
H4410 H 0.32778 0.26208 0.49559 0.0
H4411 H 0.36058 0.29236 0.32629 0.0
H4412 H 0.68305 0.01792 0.37503 0.0
H4413 H 0.69579 0.04013 0.39026 0.0
H4414 H 0.73174 0.05022 0.35961 0.0
H4415 H 0.7193 0.02794 0.34499 0.0
H4416 H 0.73896 0.0546 0.3914 0.0
H4417 H 0.71109 0.06629 0.3547 0.0
H4418 H 0.6894 0.06342 0.34215 0.0
H4419 H 0.67594 0.0674 0.39265 0.0
H4420 H 0.69748 0.07011 0.40554 0.0
H4421 H 0.78141 0.12543 0.4075 0.0
H4422 H 0.76435 0.10454 0.39259 0.0
H4423 H 0.737 0.0941 0.43602 0.0
H4424 H 0.75424 0.11479 0.45141 0.0
H4425 H 0.72418 0.08963 0.40023 0.0
H4426 H 0.75309 0.07844 0.43617 0.0
H4427 H 0.77545 0.0822 0.44746 0.0
H4428 H 0.78746 0.07799 0.39617 0.0
H4429 H 0.76525 0.07442 0.38454 0.0
C4430 C 0.69361 0.02498 0.37141 0.0
C4431 C 0.70021 0.02115 0.35891 0.0
C4432 C 0.70088 0.03769 0.38008 0.0
C4433 C 0.71475 0.0469 0.37608 0.0
C4434 C 0.7211 0.04327 0.36306 0.0
C4435 C 0.71396 0.03053 0.35467 0.0
C4436 C 0.72307 0.05988 0.3861 0.0
C4437 C 0.73573 0.06228 0.39311 0.0
C4438 C 0.71875 0.0698 0.38884 0.0
C4439 C 0.70583 0.06825 0.38111 0.0
C4440 C 0.70346 0.06645 0.36315 0.0
C4441 C 0.6912 0.06487 0.35597 0.0
C4442 C 0.68128 0.06518 0.3666 0.0
C4443 C 0.68362 0.06713 0.38443 0.0
C4444 C 0.69586 0.0687 0.39168 0.0
C4445 C 0.77179 0.11872 0.41395 0.0
C4446 C 0.76931 0.1217 0.4308 0.0
C4447 C 0.762 0.10685 0.40532 0.0
C4448 C 0.74948 0.09778 0.41326 0.0
C4449 C 0.7466 0.10105 0.42966 0.0
C4450 C 0.75647 0.11288 0.43842 0.0
C4451 C 0.74007 0.08432 0.40498 0.0
C4452 C 0.72726 0.08184 0.39847 0.0
C4453 C 0.74427 0.07434 0.40247 0.0
C4454 C 0.75756 0.07629 0.40947 0.0
C4455 C 0.76054 0.07842 0.42729 0.0
C4456 C 0.77318 0.0805 0.43375 0.0
C4457 C 0.78289 0.08036 0.42254 0.0
C4458 C 0.77995 0.0781 0.40484 0.0
C4459 C 0.76733 0.07604 0.39831 0.0
H4460 H 0.79267 0.08198 0.42756 0.0
H4461 H 0.67179 0.06395 0.36102 0.0
H4462 H 0.97607 0.68083 0.34274 0.0
H4463 H 0.95415 0.67592 0.35576 0.0
H4464 H 0.96546 0.66281 0.40279 0.0
H4465 H 0.98738 0.66773 0.38994 0.0
H4466 H 0.93217 0.65261 0.36976 0.0
H4467 H 0.95546 0.67536 0.4368 0.0
H4468 H 0.97771 0.69265 0.44959 0.0
H4469 H 0.98907 0.71495 0.40155 0.0
H4470 H 0.96681 0.69791 0.38856 0.0
H4471 H 0.8798 0.63544 0.43331 0.0
H4472 H 0.90009 0.63884 0.41732 0.0
H4473 H 0.91375 0.68246 0.41291 0.0
H4474 H 0.8934 0.67914 0.42859 0.0
H4475 H 0.93444 0.67811 0.42345 0.0
H4476 H 0.90019 0.66153 0.37833 0.0
H4477 H 0.87798 0.64537 0.36448 0.0
H4478 H 0.88843 0.61295 0.36665 0.0
H4479 H 0.91064 0.62887 0.38073 0.0
C4480 C 0.97383 0.67677 0.3558 0.0
C4481 C 0.98351 0.67476 0.36535 0.0
C4482 C 0.96128 0.67393 0.36319 0.0
C4483 C 0.95825 0.66915 0.38031 0.0
C4484 C 0.96767 0.66665 0.38964 0.0
C4485 C 0.98018 0.66944 0.38224 0.0
C4486 C 0.94556 0.66743 0.38872 0.0
C4487 C 0.93265 0.65814 0.38152 0.0
C4488 C 0.9462 0.67483 0.40391 0.0
C4489 C 0.95952 0.68527 0.41167 0.0
C4490 C 0.96268 0.68398 0.42899 0.0
C4491 C 0.9753 0.69373 0.43627 0.0
C4492 C 0.98482 0.70486 0.42637 0.0
C4493 C 0.98171 0.70629 0.40919 0.0
C4494 C 0.9691 0.69658 0.40185 0.0
C4495 C 0.887 0.64573 0.42872 0.0
C4496 C 0.88495 0.65702 0.43229 0.0
C4497 C 0.89862 0.64766 0.41962 0.0
C4498 C 0.90841 0.6609 0.41386 0.0
C4499 C 0.90636 0.67216 0.4173 0.0
C4500 C 0.89474 0.67024 0.42634 0.0
C4501 C 0.921 0.66311 0.40467 0.0
C4502 C 0.93392 0.67251 0.41173 0.0
C4503 C 0.92035 0.65594 0.38925 0.0
C4504 C 0.90702 0.64636 0.38073 0.0
C4505 C 0.89771 0.65092 0.37598 0.0
C4506 C 0.88512 0.64181 0.36807 0.0
C4507 C 0.88178 0.62813 0.36473 0.0
C4508 C 0.89103 0.62354 0.36926 0.0
C4509 C 0.90362 0.63261 0.3772 0.0
H4510 H 0.87203 0.6211 0.3586 0.0
H4511 H 0.99458 0.71239 0.43202 0.0
H4512 H 0.34876 0.99773 0.7014 0.0
H4513 H 0.36242 0.98838 0.71498 0.0
H4514 H 0.39967 0.02687 0.70524 0.0
H4515 H 0.38629 0.03619 0.69154 0.0
H4516 H 0.40289 0.00515 0.69725 0.0
H4517 H 0.38438 0.0192 0.74501 0.0
H4518 H 0.36565 0.01863 0.7624 0.0
H4519 H 0.34925 0.97512 0.77145 0.0
H4520 H 0.3678 0.9754 0.75391 0.0
H4521 H 0.45402 0.01409 0.75701 0.0
H4522 H 0.43582 0.01516 0.74042 0.0
H4523 H 0.40698 0.97319 0.75524 0.0
H4524 H 0.42521 0.97211 0.77214 0.0
H4525 H 0.39655 0.99129 0.75907 0.0
H4526 H 0.41787 0.97858 0.71516 0.0
H4527 H 0.43715 0.97979 0.69838 0.0
H4528 H 0.44862 0.02114 0.68228 0.0
H4529 H 0.42953 0.02026 0.69918 0.0
C4530 C 0.35987 0.00418 0.70211 0.0
C4531 C 0.3664 0.01775 0.69544 0.0
C4532 C 0.36765 0.99883 0.70991 0.0
C4533 C 0.38206 0.00697 0.7112 0.0
C4534 C 0.38857 0.0204 0.70434 0.0
C4535 C 0.38086 0.02574 0.69658 0.0
C4536 C 0.39054 0.00181 0.71994 0.0
C4537 C 0.40152 0.00213 0.71077 0.0
C4538 C 0.38847 0.99744 0.73742 0.0
C4539 C 0.37736 0.99728 0.74797 0.0
C4540 C 0.37671 0.00949 0.75059 0.0
C4541 C 0.36614 0.00922 0.76049 0.0
C4542 C 0.35624 0.99684 0.76797 0.0
C4543 C 0.35691 0.9847 0.76561 0.0
C4544 C 0.36744 0.98491 0.75569 0.0
C4545 C 0.4438 0.0051 0.75678 0.0
C4546 C 0.44102 0.99302 0.76588 0.0
C4547 C 0.43344 0.00568 0.74719 0.0
C4548 C 0.4201 0.9942 0.74647 0.0
C4549 C 0.41724 0.98212 0.75558 0.0
C4550 C 0.42766 0.9815 0.76511 0.0
C4551 C 0.40917 0.99514 0.73653 0.0
C4552 C 0.39774 0.994 0.74544 0.0
C4553 C 0.41084 0.99881 0.71882 0.0
C4554 C 0.4223 0.99937 0.70852 0.0
C4555 C 0.42455 0.98797 0.70814 0.0
C4556 C 0.43544 0.98859 0.69859 0.0
C4557 C 0.44411 0.00054 0.68929 0.0
C4558 C 0.44189 0.01189 0.68949 0.0
C4559 C 0.43103 0.01132 0.69903 0.0
H4560 H 0.45254 0.001 0.68191 0.0
H4561 H 0.34806 0.99666 0.77564 0.0
H4562 H 0.98442 0.35537 0.67683 0.0
H4563 H 0.98908 0.37713 0.69048 0.0
H4564 H 0.00634 0.36745 0.73507 0.0
H4565 H 0.0015 0.34559 0.72166 0.0
H4566 H 0.98812 0.37481 0.74468 0.0
H4567 H 0.02674 0.39315 0.70637 0.0
H4568 H 0.03851 0.39707 0.67836 0.0
H4569 H 0.01592 0.41629 0.6585 0.0
H4570 H 0.00386 0.41232 0.68634 0.0
H4571 H 0.01404 0.4389 0.78791 0.0
H4572 H 0.01255 0.41909 0.77233 0.0
H4573 H 0.99443 0.42848 0.7284 0.0
H4574 H 0.99639 0.44867 0.74366 0.0
H4575 H 0.01335 0.42152 0.71826 0.0
H4576 H 0.97443 0.40268 0.75636 0.0
H4577 H 0.96272 0.39883 0.78442 0.0
H4578 H 0.98602 0.38047 0.80463 0.0
H4579 H 0.998 0.38437 0.77673 0.0
C4580 C 0.98939 0.35797 0.68943 0.0
C4581 C 0.99256 0.34874 0.69819 0.0
C4582 C 0.99208 0.37044 0.6972 0.0
C4583 C 0.99811 0.37395 0.71379 0.0
C4584 C 0.00165 0.36493 0.7223 0.0
C4585 C 0.99892 0.35246 0.71458 0.0
C4586 C 0.99994 0.38658 0.72274 0.0
C4587 C 0.99383 0.38505 0.739 0.0
C4588 C 0.00705 0.39989 0.71514 0.0
C4589 C 0.0143 0.40231 0.69839 0.0
C4590 C 0.02419 0.39811 0.69599 0.0
C4591 C 0.03094 0.40036 0.68015 0.0
C4592 C 0.02794 0.40689 0.66664 0.0
C4593 C 0.01821 0.41122 0.66897 0.0
C4594 C 0.01143 0.40898 0.68478 0.0
C4595 C 0.0099 0.43687 0.77485 0.0
C4596 C 0.00529 0.44536 0.76706 0.0
C4597 C 0.00893 0.42546 0.76602 0.0
C4598 C 0.00321 0.4222 0.74928 0.0
C4599 C 0.99883 0.43078 0.74133 0.0
C4600 C 0.99983 0.44223 0.75014 0.0
C4601 C 0.00161 0.40972 0.7402 0.0
C4602 C 0.00769 0.41127 0.72392 0.0
C4603 C 0.99448 0.3964 0.74777 0.0
C4604 C 0.9872 0.39394 0.76451 0.0
C4605 C 0.97712 0.39791 0.76682 0.0
C4606 C 0.97043 0.3957 0.78269 0.0
C4607 C 0.97365 0.38944 0.79631 0.0
C4608 C 0.98355 0.38533 0.79407 0.0
C4609 C 0.99028 0.38753 0.77823 0.0
H4610 H 0.96846 0.38775 0.80859 0.0
H4611 H 0.03317 0.40863 0.65439 0.0
H4612 H 0.63701 0.6262 0.66774 0.0
H4613 H 0.61419 0.60972 0.67899 0.0
H4614 H 0.62488 0.63151 0.72779 0.0
H4615 H 0.64735 0.64816 0.71649 0.0
H4616 H 0.60698 0.59189 0.70359 0.0
H4617 H 0.59774 0.62878 0.74845 0.0
H4618 H 0.60217 0.65286 0.74834 0.0
H4619 H 0.60381 0.65357 0.69283 0.0
H4620 H 0.59919 0.62943 0.69258 0.0
H4621 H 0.56262 0.55424 0.77123 0.0
H4622 H 0.58145 0.57089 0.75322 0.0
H4623 H 0.55437 0.58428 0.73074 0.0
H4624 H 0.53558 0.56786 0.74917 0.0
H4625 H 0.57775 0.60573 0.73671 0.0
H4626 H 0.56425 0.56316 0.7082 0.0
H4627 H 0.55814 0.53867 0.70524 0.0
H4628 H 0.59881 0.54861 0.72216 0.0
H4629 H 0.6051 0.57314 0.72546 0.0
C4630 C 0.63439 0.62757 0.68078 0.0
C4631 C 0.64396 0.63852 0.69119 0.0
C4632 C 0.62137 0.61812 0.68722 0.0
C4633 C 0.6177 0.61944 0.70419 0.0
C4634 C 0.62727 0.63042 0.71453 0.0
C4635 C 0.64018 0.63992 0.70806 0.0
C4636 C 0.60424 0.60897 0.71155 0.0
C4637 C 0.60054 0.59492 0.71072 0.0
C4638 C 0.59559 0.61282 0.72049 0.0
C4639 C 0.59822 0.62731 0.72052 0.0
C4640 C 0.59897 0.63404 0.73621 0.0
C4641 C 0.60153 0.64771 0.73622 0.0
C4642 C 0.60331 0.65475 0.72059 0.0
C4643 C 0.60248 0.64812 0.70493 0.0
C4644 C 0.59991 0.63445 0.70485 0.0
C4645 C 0.56067 0.56068 0.76237 0.0
C4646 C 0.54763 0.55972 0.76153 0.0
C4647 C 0.57143 0.57017 0.75202 0.0
C4648 C 0.5693 0.57869 0.74034 0.0
C4649 C 0.55628 0.57781 0.73961 0.0
C4650 C 0.54556 0.56845 0.75014 0.0
C4651 C 0.58076 0.58871 0.72926 0.0
C4652 C 0.58409 0.60268 0.7294 0.0
C4653 C 0.58882 0.58472 0.71923 0.0
C4654 C 0.58511 0.56998 0.71719 0.0
C4655 C 0.57186 0.56011 0.7114 0.0
C4656 C 0.56837 0.54622 0.70964 0.0
C4657 C 0.57807 0.54208 0.71354 0.0
C4658 C 0.5913 0.55183 0.71916 0.0
C4659 C 0.59484 0.56574 0.72095 0.0
H4660 H 0.57535 0.53132 0.71218 0.0
H4661 H 0.6053 0.66534 0.72062 0.0
H4662 H 0.69959 0.7137 0.64658 0.0
H4663 H 0.69109 0.72761 0.63223 0.0
H4664 H 0.6492 0.6948 0.63892 0.0
H4665 H 0.65767 0.68056 0.65312 0.0
H4666 H 0.65286 0.70712 0.6072 0.0
H4667 H 0.66237 0.72192 0.66598 0.0
H4668 H 0.67622 0.72942 0.69286 0.0
H4669 H 0.70713 0.76573 0.66718 0.0
H4670 H 0.69359 0.75833 0.64003 0.0
H4671 H 0.62841 0.75549 0.58949 0.0
H4672 H 0.63264 0.73807 0.60352 0.0
H4673 H 0.67645 0.76484 0.5979 0.0
H4674 H 0.67236 0.78207 0.58345 0.0
H4675 H 0.66901 0.75416 0.6311 0.0
H4676 H 0.6601 0.73802 0.57181 0.0
H4677 H 0.64629 0.73018 0.54491 0.0
H4678 H 0.61368 0.69624 0.57221 0.0
H4679 H 0.62723 0.704 0.59934 0.0
C4680 C 0.68856 0.70936 0.64497 0.0
C4681 C 0.67931 0.69605 0.6512 0.0
C4682 C 0.68372 0.71736 0.63677 0.0
C4683 C 0.66951 0.71236 0.63483 0.0
C4684 C 0.66021 0.69888 0.64038 0.0
C4685 C 0.66507 0.69078 0.64851 0.0
C4686 C 0.66453 0.72152 0.62752 0.0
C4687 C 0.65617 0.7173 0.6126 0.0
C4688 C 0.66894 0.73485 0.6345 0.0
C4689 C 0.67699 0.73952 0.65092 0.0
C4690 C 0.67215 0.73147 0.66603 0.0
C4691 C 0.67995 0.7357 0.68132 0.0
C4692 C 0.69255 0.74803 0.68172 0.0
C4693 C 0.69736 0.75618 0.66684 0.0
C4694 C 0.68962 0.75198 0.6515 0.0
C4695 C 0.63894 0.75761 0.59105 0.0
C4696 C 0.65005 0.77025 0.58542 0.0
C4697 C 0.64133 0.74766 0.59913 0.0
C4698 C 0.65486 0.75019 0.60175 0.0
C4699 C 0.66594 0.76274 0.59612 0.0
C4700 C 0.66357 0.77261 0.58795 0.0
C4701 C 0.65763 0.7399 0.61056 0.0
C4702 C 0.66555 0.74391 0.62582 0.0
C4703 C 0.65273 0.72638 0.60395 0.0
C4704 C 0.64461 0.72168 0.58764 0.0
C4705 C 0.64993 0.72896 0.57211 0.0
C4706 C 0.64216 0.72451 0.55681 0.0
C4707 C 0.6291 0.71274 0.55686 0.0
C4708 C 0.62379 0.70537 0.5722 0.0
C4709 C 0.63151 0.70978 0.58754 0.0
H4710 H 0.6231 0.70932 0.545 0.0
H4711 H 0.69858 0.75128 0.69357 0.0
H4712 H 0.32459 0.98498 0.63738 0.0
H4713 H 0.30894 0.96252 0.62424 0.0
H4714 H 0.27705 0.95716 0.65985 0.0
H4715 H 0.29286 0.97931 0.6735 0.0
H4716 H 0.27549 0.9333 0.65476 0.0
H4717 H 0.2795 0.97017 0.61734 0.0
H4718 H 0.29212 0.99127 0.59969 0.0
H4719 H 0.30759 0.97049 0.56766 0.0
H4720 H 0.29519 0.94931 0.58526 0.0
H4721 H 0.22181 0.89884 0.581 0.0
H4722 H 0.23979 0.91916 0.59602 0.0
H4723 H 0.25895 0.89545 0.61277 0.0
H4724 H 0.24081 0.87496 0.59795 0.0
H4725 H 0.26743 0.93337 0.5915 0.0
H4726 H 0.27253 0.90731 0.65378 0.0
H4727 H 0.25832 0.88684 0.67185 0.0
H4728 H 0.22166 0.88704 0.65468 0.0
H4729 H 0.23565 0.9076 0.63669 0.0
C4730 C 0.31429 0.97892 0.64253 0.0
C4731 C 0.30989 0.98394 0.65635 0.0
C4732 C 0.30534 0.96612 0.63497 0.0
C4733 C 0.2917 0.95828 0.64079 0.0
C4734 C 0.2875 0.96302 0.65509 0.0
C4735 C 0.29653 0.97571 0.66286 0.0
C4736 C 0.28157 0.94554 0.63145 0.0
C4737 C 0.2738 0.93331 0.64091 0.0
C4738 C 0.2792 0.94554 0.6134 0.0
C4739 C 0.28652 0.95822 0.6027 0.0
C4740 C 0.28565 0.97013 0.60658 0.0
C4741 C 0.29276 0.9821 0.59659 0.0
C4742 C 0.30068 0.98223 0.58259 0.0
C4743 C 0.30147 0.97038 0.57852 0.0
C4744 C 0.29439 0.95839 0.58849 0.0
C4745 C 0.22979 0.89792 0.58799 0.0
C4746 C 0.22985 0.88528 0.58839 0.0
C4747 C 0.24012 0.90957 0.59644 0.0
C4748 C 0.25066 0.9088 0.60558 0.0
C4749 C 0.25084 0.89623 0.6059 0.0
C4750 C 0.24054 0.88457 0.59734 0.0
C4751 C 0.26137 0.92119 0.61481 0.0
C4752 C 0.26926 0.93334 0.60531 0.0
C4753 C 0.26363 0.92118 0.63286 0.0
C4754 C 0.25513 0.90889 0.64374 0.0
C4755 C 0.26144 0.903 0.6539 0.0
C4756 C 0.25342 0.89138 0.66412 0.0
C4757 C 0.23909 0.88561 0.66436 0.0
C4758 C 0.23275 0.89148 0.65442 0.0
C4759 C 0.24072 0.9031 0.64419 0.0
H4760 H 0.2329 0.87662 0.67228 0.0
H4761 H 0.30618 0.99151 0.57488 0.0
H4762 H 0.01898 0.33442 0.65425 0.0
H4763 H 0.04122 0.34301 0.63989 0.0
H4764 H 0.04014 0.30427 0.65029 0.0
H4765 H 0.01816 0.2957 0.66486 0.0
H4766 H 0.0653 0.32547 0.65623 0.0
H4767 H 0.03101 0.31141 0.61057 0.0
H4768 H 0.01205 0.31174 0.59425 0.0
H4769 H 0.0379 0.35509 0.58385 0.0
H4770 H 0.05697 0.35505 0.60032 0.0
H4771 H 0.10839 0.32047 0.59404 0.0
H4772 H 0.08858 0.31733 0.61087 0.0
H4773 H 0.09797 0.359 0.59852 0.0
H4774 H 0.11778 0.36217 0.58144 0.0
H4775 H 0.07012 0.33975 0.5946 0.0
H4776 H 0.10532 0.35287 0.6377 0.0
H4777 H 0.12419 0.352 0.65352 0.0
H4778 H 0.09655 0.30998 0.66846 0.0
H4779 H 0.07754 0.31053 0.6525 0.0
C4780 C 0.02351 0.32776 0.65358 0.0
C4781 C 0.01669 0.31432 0.66063 0.0
C4782 C 0.0362 0.33267 0.64531 0.0
C4783 C 0.04226 0.32422 0.64384 0.0
C4784 C 0.03566 0.31097 0.65126 0.0
C4785 C 0.02303 0.30607 0.65953 0.0
C4786 C 0.05531 0.3289 0.63427 0.0
C4787 C 0.06632 0.32852 0.64273 0.0
C4788 C 0.05679 0.33324 0.61678 0.0
C4789 C 0.04535 0.33326 0.60685 0.0
C4790 C 0.03261 0.32103 0.60492 0.0
C4791 C 0.02185 0.32117 0.59563 0.0
C4792 C 0.02375 0.33344 0.58807 0.0
C4793 C 0.03643 0.3456 0.58975 0.0
C4794 C 0.04722 0.34553 0.59905 0.0
C4795 C 0.10619 0.32893 0.59481 0.0
C4796 C 0.11463 0.34156 0.58643 0.0
C4797 C 0.09494 0.32717 0.60454 0.0
C4798 C 0.0919 0.33798 0.60608 0.0
C4799 C 0.10019 0.35056 0.59755 0.0
C4800 C 0.11153 0.35237 0.5879 0.0
C4801 C 0.07995 0.336 0.61647 0.0
C4802 C 0.06916 0.33689 0.60817 0.0
C4803 C 0.07864 0.33207 0.63409 0.0
C4804 C 0.09003 0.33171 0.64378 0.0
C4805 C 0.10329 0.34341 0.64424 0.0
C4806 C 0.11401 0.34298 0.65326 0.0
C4807 C 0.11158 0.33094 0.66196 0.0
C4808 C 0.09841 0.3193 0.6617 0.0
C4809 C 0.08766 0.31967 0.65269 0.0
H4810 H 0.11989 0.33063 0.66894 0.0
H4811 H 0.01541 0.33352 0.58087 0.0
H4812 H 0.29741 0.32416 0.67594 0.0
H4813 H 0.28074 0.33029 0.66391 0.0
H4814 H 0.30522 0.34576 0.61779 0.0
H4815 H 0.32205 0.33989 0.62985 0.0
H4816 H 0.29498 0.36222 0.62699 0.0
H4817 H 0.27727 0.31342 0.61871 0.0
H4818 H 0.27011 0.28949 0.6277 0.0
H4819 H 0.23964 0.28962 0.66121 0.0
H4820 H 0.24676 0.31365 0.65259 0.0
H4821 H 0.24327 0.35682 0.56741 0.0
H4822 H 0.26142 0.35487 0.58301 0.0
H4823 H 0.23592 0.34086 0.62844 0.0
H4824 H 0.21779 0.34298 0.61302 0.0
H4825 H 0.2466 0.32428 0.6208 0.0
H4826 H 0.26369 0.37303 0.62718 0.0
H4827 H 0.27087 0.39675 0.61721 0.0
H4828 H 0.3025 0.39648 0.58615 0.0
H4829 H 0.29538 0.37268 0.59575 0.0
C4830 C 0.29933 0.32902 0.66333 0.0
C4831 C 0.311 0.33144 0.65379 0.0
C4832 C 0.28977 0.33247 0.65644 0.0
C4833 C 0.29162 0.33828 0.63982 0.0
C4834 C 0.30356 0.34126 0.63061 0.0
C4835 C 0.31315 0.33786 0.63751 0.0
C4836 C 0.28081 0.34063 0.63168 0.0
C4837 C 0.28443 0.3539 0.6255 0.0
C4838 C 0.26698 0.32984 0.62998 0.0
C4839 C 0.26265 0.31538 0.63515 0.0
C4840 C 0.26912 0.30839 0.6281 0.0
C4841 C 0.26505 0.2948 0.63311 0.0
C4842 C 0.25445 0.28805 0.64506 0.0
C4843 C 0.24786 0.29487 0.65198 0.0
C4844 C 0.25191 0.30847 0.64703 0.0
C4845 C 0.2416 0.35357 0.58082 0.0
C4846 C 0.22905 0.35004 0.58895 0.0
C4847 C 0.25199 0.35243 0.58971 0.0
C4848 C 0.25006 0.3478 0.60693 0.0
C4849 C 0.23761 0.34442 0.61514 0.0
C4850 C 0.22724 0.34559 0.60628 0.0
C4851 C 0.26076 0.34587 0.61611 0.0
C4852 C 0.25713 0.33264 0.62242 0.0
C4853 C 0.27457 0.35668 0.61781 0.0
C4854 C 0.27892 0.37102 0.61207 0.0
C4855 C 0.2721 0.37799 0.61811 0.0
C4856 C 0.27618 0.39145 0.61255 0.0
C4857 C 0.28711 0.3981 0.60102 0.0
C4858 C 0.29402 0.39131 0.59507 0.0
C4859 C 0.28998 0.37784 0.60058 0.0
H4860 H 0.29025 0.40853 0.59673 0.0
H4861 H 0.25131 0.27753 0.64892 0.0
H4862 H 0.70093 0.98554 0.65337 0.0
H4863 H 0.69159 0.9637 0.63782 0.0
H4864 H 0.65074 0.95862 0.64075 0.0
H4865 H 0.66003 0.98071 0.65639 0.0
H4866 H 0.65259 0.93409 0.64892 0.0
H4867 H 0.6653 0.96785 0.60403 0.0
H4868 H 0.68058 0.98962 0.58884 0.0
H4869 H 0.71039 0.97623 0.58168 0.0
H4870 H 0.69538 0.95446 0.59708 0.0
H4871 H 0.62905 0.87677 0.59015 0.0
H4872 H 0.63316 0.8983 0.60402 0.0
H4873 H 0.67704 0.91483 0.59908 0.0
H4874 H 0.67302 0.89369 0.58455 0.0
H4875 H 0.67051 0.93378 0.59045 0.0
H4876 H 0.65966 0.90172 0.63792 0.0
H4877 H 0.6453 0.88019 0.65413 0.0
H4878 H 0.6129 0.89044 0.6572 0.0
H4879 H 0.62701 0.91195 0.64081 0.0
C4880 C 0.68994 0.97982 0.65082 0.0
C4881 C 0.68125 0.98496 0.65611 0.0
C4882 C 0.68463 0.96733 0.64185 0.0
C4883 C 0.67051 0.95962 0.63799 0.0
C4884 C 0.66169 0.96447 0.64357 0.0
C4885 C 0.66702 0.9771 0.65244 0.0
C4886 C 0.66521 0.94659 0.62795 0.0
C4887 C 0.65625 0.93399 0.63598 0.0
C4888 C 0.67022 0.94651 0.61122 0.0
C4889 C 0.67924 0.95955 0.60182 0.0
C4890 C 0.67516 0.96958 0.59933 0.0
C4891 C 0.68377 0.98192 0.59067 0.0
C4892 C 0.69646 0.98432 0.58433 0.0
C4893 C 0.70055 0.97436 0.58661 0.0
C4894 C 0.69199 0.96201 0.59528 0.0
C4895 C 0.63957 0.88504 0.59187 0.0
C4896 C 0.65071 0.88344 0.58631 0.0
C4897 C 0.64191 0.89729 0.59997 0.0
C4898 C 0.65542 0.90814 0.60279 0.0
C4899 C 0.66652 0.9066 0.5971 0.0
C4900 C 0.6642 0.89442 0.58895 0.0
C4901 C 0.65815 0.92117 0.61158 0.0
C4902 C 0.66664 0.93382 0.60328 0.0
C4903 C 0.65279 0.92127 0.62811 0.0
C4904 C 0.64431 0.90835 0.63796 0.0
C4905 C 0.64942 0.89932 0.64193 0.0
C4906 C 0.64134 0.88713 0.65117 0.0
C4907 C 0.62818 0.88392 0.65664 0.0
C4908 C 0.62308 0.89292 0.65292 0.0
C4909 C 0.63112 0.90511 0.64366 0.0
H4910 H 0.62194 0.87449 0.6638 0.0
H4911 H 0.70311 0.99388 0.57763 0.0
H4912 H 0.02898 0.70955 0.68145 0.0
H4913 H 0.05088 0.72614 0.66828 0.0
H4914 H 0.04386 0.69705 0.62727 0.0
H4915 H 0.02187 0.68051 0.64018 0.0
H4916 H 0.07483 0.72726 0.65875 0.0
H4917 H 0.05259 0.71453 0.58923 0.0
H4918 H 0.03006 0.70473 0.57425 0.0
H4919 H 0.01414 0.71827 0.61574 0.0
H4920 H 0.03662 0.72832 0.63083 0.0
H4921 H 0.12856 0.76309 0.59752 0.0
H4922 H 0.10893 0.74537 0.61355 0.0
H4923 H 0.08674 0.76759 0.60472 0.0
H4924 H 0.10607 0.78502 0.5881 0.0
H4925 H 0.07051 0.74106 0.59884 0.0
H4926 H 0.10165 0.76829 0.64424 0.0
H4927 H 0.12374 0.7797 0.66025 0.0
H4928 H 0.12128 0.74028 0.66884 0.0
H4929 H 0.09924 0.72865 0.65266 0.0
C4930 C 0.03222 0.70659 0.6698 0.0
C4931 C 0.02362 0.6938 0.66173 0.0
C4932 C 0.04475 0.71607 0.66231 0.0
C4933 C 0.04888 0.71292 0.64664 0.0
C4934 C 0.04076 0.69978 0.63922 0.0
C4935 C 0.02821 0.69033 0.64664 0.0
C4936 C 0.061 0.72376 0.63731 0.0
C4937 C 0.07392 0.73024 0.64562 0.0
C4938 C 0.05974 0.72785 0.62032 0.0
C4939 C 0.04624 0.72204 0.61123 0.0
C4940 C 0.04429 0.71546 0.59512 0.0
C4941 C 0.03153 0.70986 0.58662 0.0
C4942 C 0.02066 0.71084 0.59407 0.0
C4943 C 0.02255 0.71747 0.61001 0.0
C4944 C 0.03529 0.72311 0.61855 0.0
C4945 C 0.11946 0.76415 0.59887 0.0
C4946 C 0.1189 0.7755 0.59153 0.0
C4947 C 0.1083 0.75409 0.6082 0.0
C4948 C 0.09641 0.75522 0.6105 0.0
C4949 C 0.09582 0.76651 0.60316 0.0
C4950 C 0.10694 0.77654 0.59379 0.0
C4951 C 0.08443 0.74451 0.62018 0.0
C4952 C 0.07149 0.73803 0.61192 0.0
C4953 C 0.08564 0.74066 0.63733 0.0
C4954 C 0.09887 0.74762 0.64709 0.0
C4955 C 0.10587 0.76207 0.64942 0.0
C4956 C 0.11837 0.76857 0.65855 0.0
C4957 C 0.12393 0.76072 0.66551 0.0
C4958 C 0.11697 0.74635 0.66341 0.0
C4959 C 0.10447 0.73979 0.65428 0.0
H4960 H 0.13361 0.76578 0.67258 0.0
H4961 H 0.0108 0.7065 0.58748 0.0
H4962 H 0.00605 0.65035 0.69918 0.0
H4963 H 0.01249 0.63538 0.71556 0.0
H4964 H 0.96986 0.60851 0.72864 0.0
H4965 H 0.96331 0.62325 0.71219 0.0
H4966 H 0.98907 0.61427 0.75681 0.0
H4967 H 0.98153 0.59947 0.6967 0.0
H4968 H 0.98571 0.60329 0.66536 0.0
H4969 H 0.02846 0.61586 0.67358 0.0
H4970 H 0.02456 0.61234 0.70504 0.0
H4971 H 0.98268 0.54965 0.77787 0.0
H4972 H 0.98059 0.56865 0.76489 0.0
H4973 H 0.02297 0.58786 0.74854 0.0
H4974 H 0.02502 0.56865 0.76107 0.0
H4975 H 0.00671 0.58831 0.72313 0.0
H4976 H 0.01423 0.60066 0.78252 0.0
H4977 H 0.01072 0.59734 0.81399 0.0
H4978 H 0.96948 0.59051 0.80795 0.0
H4979 H 0.97264 0.59349 0.77636 0.0
C4980 C 0.99808 0.64134 0.70571 0.0
C4981 C 0.98416 0.63791 0.70428 0.0
C4982 C 0.00177 0.63281 0.71504 0.0
C4983 C 0.99163 0.62084 0.72323 0.0
C4984 C 0.97782 0.61772 0.72242 0.0
C4985 C 0.9741 0.62611 0.71292 0.0
C4986 C 0.99518 0.61101 0.73169 0.0
C4987 C 0.99286 0.60852 0.74948 0.0
C4988 C 1.00048 0.60384 0.72215 0.0
C4989 C 0.00279 0.60581 0.70323 0.0
C4990 C 0.99184 0.60317 0.69184 0.0
C4991 C 0.99416 0.60526 0.67406 0.0
C4992 C 0.00735 0.60985 0.66749 0.0
C4993 C 0.01825 0.61233 0.67869 0.0
C4994 C 0.01599 0.61029 0.6965 0.0
C4995 C 0.99152 0.55785 0.77136 0.0
C4996 C 0.00401 0.55764 0.77049 0.0
C4997 C 0.99036 0.56878 0.76413 0.0
C4998 C 0.00169 0.57977 0.75597 0.0
C4999 C 0.01413 0.57952 0.75487 0.0
C5000 C 0.0153 0.56859 0.76213 0.0
C5001 C 1.00039 0.59134 0.74828 0.0
C5002 C 0.00311 0.59416 0.73059 0.0
C5003 C 0.99558 0.5989 0.75798 0.0
C5004 C 0.99364 0.59718 0.77702 0.0
C5005 C 0.00437 0.59833 0.78787 0.0
C5006 C 0.00245 0.59653 0.80574 0.0
C5007 C 0.98988 0.59371 0.81297 0.0
C5008 C 0.97921 0.59269 0.80233 0.0
C5009 C 0.98106 0.59444 0.78443 0.0
H5010 H 0.98841 0.59231 0.82681 0.0
H5011 H 0.00913 0.61146 0.65371 0.0
H5012 H 0.38767 0.35494 0.6877 0.0
H5013 H 0.40081 0.37536 0.7056 0.0
H5014 H 0.36303 0.37195 0.72484 0.0
H5015 H 0.34967 0.3515 0.70651 0.0
H5016 H 0.38143 0.39842 0.71908 0.0
H5017 H 0.38161 0.36173 0.74996 0.0
H5018 H 0.38393 0.34098 0.75477 0.0
H5019 H 0.42678 0.36402 0.7415 0.0
H5020 H 0.42468 0.38487 0.73636 0.0
H5021 H 0.42304 0.44526 0.78899 0.0
H5022 H 0.40563 0.42438 0.77418 0.0
H5023 H 0.4361 0.42757 0.73776 0.0
H5024 H 0.45338 0.44886 0.75166 0.0
H5025 H 0.41883 0.40012 0.75621 0.0
H5026 H 0.41636 0.43636 0.72277 0.0
H5027 H 0.41287 0.45657 0.71993 0.0
H5028 H 0.37241 0.43315 0.74157 0.0
H5029 H 0.37576 0.41285 0.74478 0.0
C5030 C 0.3821 0.35849 0.6957 0.0
C5031 C 0.36759 0.35147 0.69581 0.0
C5032 C 0.38965 0.37017 0.706 0.0
C5033 C 0.38291 0.37501 0.71689 0.0
C5034 C 0.36844 0.36834 0.71664 0.0
C5035 C 0.36083 0.35666 0.70616 0.0
C5036 C 0.39117 0.38699 0.7285 0.0
C5037 C 0.38943 0.39868 0.72744 0.0
C5038 C 0.40159 0.38735 0.73951 0.0
C5039 C 0.40296 0.37485 0.74266 0.0
C5040 C 0.39151 0.36236 0.74795 0.0
C5041 C 0.39278 0.35058 0.75075 0.0
C5042 C 0.40549 0.35118 0.74841 0.0
C5043 C 0.41695 0.36357 0.7433 0.0
C5044 C 0.41572 0.37538 0.74046 0.0
C5045 C 0.42603 0.44171 0.77764 0.0
C5046 C 0.43972 0.44881 0.77162 0.0
C5047 C 0.41607 0.4297 0.7693 0.0
C5048 C 0.41964 0.42446 0.75497 0.0
C5049 C 0.43321 0.43144 0.74891 0.0
C5050 C 0.4431 0.44356 0.757 0.0
C5051 C 0.40934 0.41158 0.74628 0.0
C5052 C 0.41069 0.39973 0.748 0.0
C5053 C 0.3984 0.41098 0.73623 0.0
C5054 C 0.39638 0.42316 0.73423 0.0
C5055 C 0.40678 0.43557 0.7271 0.0
C5056 C 0.40481 0.44703 0.72537 0.0
C5057 C 0.39244 0.44616 0.73062 0.0
C5058 C 0.382 0.43382 0.73755 0.0
C5059 C 0.38392 0.42233 0.73931 0.0
H5060 H 0.39093 0.45504 0.72927 0.0
H5061 H 0.40645 0.34205 0.75059 0.0
H5062 H 0.65273 0.00201 0.72107 0.0
H5063 H 0.63119 0.99724 0.73483 0.0
H5064 H 0.61975 0.01216 0.68947 0.0
H5065 H 0.64131 0.0169 0.67552 0.0
H5066 H 0.62307 0.01544 0.74345 0.0
H5067 H 0.58414 0.9947 0.68629 0.0
H5068 H 0.58023 0.98138 0.65931 0.0
H5069 H 0.60204 0.96184 0.68074 0.0
H5070 H 0.60592 0.97489 0.70791 0.0
H5071 H 0.56299 0.0192 0.76296 0.0
H5072 H 0.58276 0.02077 0.74755 0.0
H5073 H 0.56549 0.97652 0.75144 0.0
H5074 H 0.54583 0.97486 0.76727 0.0
H5075 H 0.57611 0.98651 0.71881 0.0
H5076 H 0.59041 0.99629 0.77827 0.0
H5077 H 0.5941 0.00826 0.80628 0.0
H5078 H 0.62144 0.04711 0.7822 0.0
H5079 H 0.61774 0.0354 0.75397 0.0
C5080 C 0.64557 0.00413 0.71391 0.0
C5081 C 0.64875 0.00986 0.69719 0.0
C5082 C 0.63328 0.00145 0.72184 0.0
C5083 C 0.62384 0.00433 0.7132 0.0
C5084 C 0.62681 0.00972 0.69633 0.0
C5085 C 0.63915 0.01245 0.68838 0.0
C5086 C 0.61124 0.00228 0.72222 0.0
C5087 C 0.61281 0.00912 0.73803 0.0
C5088 C 0.59783 0.9939 0.71528 0.0
C5089 C 0.59544 0.98589 0.69906 0.0
C5090 C 0.58806 0.98753 0.68526 0.0
C5091 C 0.58585 0.98003 0.66993 0.0
C5092 C 0.59092 0.97081 0.66829 0.0
C5093 C 0.59817 0.96903 0.682 0.0
C5094 C 0.60039 0.97649 0.69736 0.0
C5095 C 0.56342 0.0098 0.76069 0.0
C5096 C 0.55282 0.99691 0.76651 0.0
C5097 C 0.5747 0.01071 0.75178 0.0
C5098 C 0.57564 0.99877 0.74845 0.0
C5099 C 0.56494 0.98586 0.75381 0.0
C5100 C 0.55368 0.98494 0.76283 0.0
C5101 C 0.588 0.99985 0.73987 0.0
C5102 C 0.58639 0.99285 0.72416 0.0
C5103 C 0.60138 0.00793 0.747 0.0
C5104 C 0.60369 0.01499 0.76398 0.0
C5105 C 0.59712 0.00741 0.77892 0.0
C5106 C 0.59923 0.01414 0.79484 0.0
C5107 C 0.60798 0.02844 0.79601 0.0
C5108 C 0.61466 0.03604 0.78127 0.0
C5109 C 0.61257 0.02936 0.76531 0.0
H5110 H 0.6096 0.03363 0.80835 0.0
H5111 H 0.58921 0.96502 0.65641 0.0
loop_
_geom_bond_atom_site_label_1
_geom_bond_atom_site_label_2
_geom_bond_distance
_geom_bond_site_symmetry_2
_ccdc_geom_bond_type
Mn0 O5 2.095 1_655 S
Mn0 O15 2.162 . S
Mn0 O16 2.297 1_554 S
Mn0 O24 2.385 1_554 S
Mn0 O25 2.209 1_654 S
Mn0 O26 2.094 . S
Mn1 O6 2.121 . S
Mn1 N8 2.257 1_554 S
Mn1 N17 2.282 . S
Mn1 O25 2.215 1_554 S
Mn1 O27 2.117 . S
C2 O24 1.234 1_455 S
C2 O25 1.283 . S
C3 O15 1.281 1_556 S
C3 O16 1.236 . S
C4 O26 1.246 . S
C4 O27 1.249 1_655 S
O5 Mn0 2.095 1_455 S
O5 C14 1.250 . S
O6 Mn1 2.121 . S
O6 C14 1.258 . S
C7 N8 1.326 . S
C7 C11 1.460 . S
C7 H13 0.929 . S
N8 Mn1 2.257 1_556 S
N8 C7 1.326 . S
N8 C12 1.362 . S
C9 C10 1.258 . S
C9 C12 1.431 . S
C9 C29 1.449 . S
C10 C9 1.258 . S
C10 C11 1.477 . S
C10 H30 0.931 . S
C11 C7 1.460 . S
C11 C10 1.477 . S
C11 H31 0.930 . S
C12 N8 1.362 . S
C12 C9 1.431 . S
C12 C22 1.476 . S
H13 C7 0.929 . S
C14 O5 1.250 . S
C14 O6 1.258 . S
O15 Mn0 2.162 . S
O15 C3 1.281 1_554 S
O16 Mn0 2.297 1_556 S
O16 C3 1.236 . S
N17 Mn1 2.282 . S
N17 C18 1.328 . S
N17 C22 1.318 1_554 S
C18 N17 1.328 . S
C18 C19 1.444 1_554 S
C18 H23 0.929 . S
C19 C18 1.444 1_556 S
C19 C20 1.310 . S
C19 H32 0.925 1_556 S
C20 C19 1.310 . S
C20 C21 1.373 . S
C20 H33 0.929 . S
C21 C20 1.373 . S
C21 C22 1.396 . S
C21 C28 1.403 . S
C22 C12 1.476 . S
C22 N17 1.318 1_556 S
C22 C21 1.396 . S
H23 C18 0.929 . S
O24 Mn0 2.385 1_556 S
O24 C2 1.234 1_655 S
O25 Mn0 2.209 1_456 S
O25 Mn1 2.215 1_556 S
O25 C2 1.283 . S
O26 Mn0 2.094 . S
O26 C4 1.246 . S
O27 Mn1 2.117 . S
O27 C4 1.249 1_455 S
C28 C21 1.403 . S
C28 C29 1.399 . S
C28 H34 0.929 . S
C29 C9 1.449 . S
C29 C28 1.399 . S
C29 H35 0.930 . S
H30 C10 0.931 . S
H31 C11 0.930 . S
H32 C19 0.925 1_554 S
H33 C20 0.929 . S
H34 C28 0.929 . S
H35 C29 0.930 . S
Mn36 O41 2.095 1_554 S
Mn36 O51 2.162 . S
Mn36 O52 2.297 . S
Mn36 O60 2.385 . S
Mn36 O61 2.209 . S
Mn36 O62 2.094 1_554 S
Mn37 O42 2.120 . S
Mn37 N44 2.260 1_556 S
Mn37 N53 2.284 1_556 S
Mn37 O61 2.219 1_556 S
Mn37 O63 2.114 . S
C38 O60 1.234 . S
C38 O61 1.283 . S
C39 O51 1.281 . S
C39 O52 1.236 . S
C40 O62 1.240 . S
C40 O63 1.264 . S
O41 Mn36 2.095 1_556 S
O41 C50 1.250 . S
O42 Mn37 2.120 . S
O42 C50 1.258 . S
C43 N44 1.326 . S
C43 C47 1.460 . S
C43 H49 0.929 . S
N44 Mn37 2.260 1_554 S
N44 C43 1.326 . S
N44 C48 1.362 . S
C45 C46 1.258 . S
C45 C48 1.431 . S
C45 C65 1.449 . S
C46 C45 1.258 . S
C46 C47 1.477 . S
C46 H66 0.931 . S
C47 C43 1.460 . S
C47 C46 1.477 . S
C47 H67 0.930 . S
C48 N44 1.362 . S
C48 C45 1.431 . S
C48 C58 1.476 . S
H49 C43 0.929 . S
C50 O41 1.250 . S
C50 O42 1.258 . S
O51 Mn36 2.162 . S
O51 C39 1.281 . S
O52 Mn36 2.297 . S
O52 C39 1.236 . S
N53 Mn37 2.284 1_554 S
N53 C54 1.328 . S
N53 C58 1.318 . S
C54 N53 1.328 . S
C54 C55 1.457 . S
C54 H59 0.966 . S
C55 C54 1.457 . S
C55 C56 1.291 . S
C55 H68 0.931 . S
C56 C55 1.291 . S
C56 C57 1.373 . S
C56 H69 0.929 . S
C57 C56 1.373 . S
C57 C58 1.396 . S
C57 C64 1.403 . S
C58 C48 1.476 . S
C58 N53 1.318 . S
C58 C57 1.396 . S
H59 C54 0.966 . S
O60 Mn36 2.385 . S
O60 C38 1.234 . S
O61 Mn36 2.209 . S
O61 Mn37 2.219 1_554 S
O61 C38 1.283 . S
O62 Mn36 2.094 1_556 S
O62 C40 1.240 . S
O63 Mn37 2.114 . S
O63 C40 1.264 . S
C64 C57 1.403 . S
C64 C65 1.399 . S
C64 H70 0.929 . S
C65 C45 1.449 . S
C65 C64 1.399 . S
C65 H71 0.930 . S
H66 C46 0.931 . S
H67 C47 0.930 . S
H68 C55 0.931 . S
H69 C56 0.929 . S
H70 C64 0.929 . S
H71 C65 0.930 . S
Mn72 O77 2.095 1_564 S
Mn72 O87 2.162 . S
Mn72 O88 2.297 . S
Mn72 O96 2.385 . S
Mn72 O97 2.209 1_565 S
Mn72 O98 2.094 1_554 S
Mn73 O78 2.114 1_554 S
Mn73 N80 2.257 . S
Mn73 N89 2.282 . S
Mn73 O97 2.215 . S
Mn73 O99 2.117 1_554 S
C74 O96 1.234 1_545 S
C74 O97 1.283 . S
C75 O87 1.281 . S
C75 O88 1.236 . S
C76 O98 1.240 . S
C76 O99 1.264 1_565 S
O77 Mn72 2.095 1_546 S
O77 C86 1.250 . S
O78 Mn73 2.114 1_556 S
O78 C86 1.274 . S
C79 N80 1.326 . S
C79 C83 1.460 . S
C79 H85 0.929 . S
N80 Mn73 2.257 . S
N80 C79 1.326 . S
N80 C84 1.362 . S
C81 C82 1.258 . S
C81 C84 1.431 . S
C81 C101 1.449 . S
C82 C81 1.258 . S
C82 C83 1.477 . S
C82 H102 0.931 . S
C83 C79 1.460 . S
C83 C82 1.477 . S
C83 H103 0.930 . S
C84 N80 1.362 . S
C84 C81 1.431 . S
C84 C94 1.476 . S
H85 C79 0.929 . S
C86 O77 1.250 . S
C86 O78 1.274 . S
O87 Mn72 2.162 . S
O87 C75 1.281 . S
O88 Mn72 2.297 . S
O88 C75 1.236 . S
N89 Mn73 2.282 . S
N89 C90 1.328 . S
N89 C94 1.318 . S
C90 N89 1.328 . S
C90 C91 1.457 . S
C90 H95 0.929 . S
C91 C90 1.457 . S
C91 C92 1.291 . S
C91 H104 0.931 . S
C92 C91 1.291 . S
C92 C93 1.373 . S
C92 H105 0.929 . S
C93 C92 1.373 . S
C93 C94 1.396 . S
C93 C100 1.403 . S
C94 C84 1.476 . S
C94 N89 1.318 . S
C94 C93 1.396 . S
H95 C90 0.929 . S
O96 Mn72 2.385 . S
O96 C74 1.234 1_565 S
O97 Mn72 2.209 1_545 S
O97 Mn73 2.215 . S
O97 C74 1.283 . S
O98 Mn72 2.094 1_556 S
O98 C76 1.240 . S
O99 Mn73 2.117 1_556 S
O99 C76 1.264 1_545 S
C100 C93 1.403 . S
C100 C101 1.399 . S
C100 H106 0.929 . S
C101 C81 1.449 . S
C101 C100 1.399 . S
C101 H107 0.930 . S
H102 C82 0.931 . S
H103 C83 0.930 . S
H104 C91 0.931 . S
H105 C92 0.929 . S
H106 C100 0.929 . S
H107 C101 0.930 . S
Mn108 O113 2.095 1_655 S
Mn108 O123 2.162 . S
Mn108 O124 2.297 1_554 S
Mn108 O132 2.385 1_554 S
Mn108 O133 2.209 1_654 S
Mn108 O134 2.094 . S
Mn109 O114 2.121 . S
Mn109 N116 2.257 1_554 S
Mn109 N125 2.282 . S
Mn109 O133 2.215 1_554 S
Mn109 O135 2.117 . S
C110 O132 1.234 1_455 S
C110 O133 1.283 . S
C111 O123 1.281 1_556 S
C111 O124 1.236 . S
C112 O134 1.240 . S
C112 O135 1.264 1_655 S
O113 Mn108 2.095 1_455 S
O113 C122 1.250 . S
O114 Mn109 2.121 . S
O114 C122 1.258 . S
C115 N116 1.326 . S
C115 C119 1.460 . S
C115 H121 0.929 . S
N116 Mn109 2.257 1_556 S
N116 C115 1.326 . S
N116 C120 1.362 . S
C117 C118 1.258 . S
C117 C120 1.431 . S
C117 C137 1.449 . S
C118 C117 1.258 . S
C118 C119 1.477 . S
C118 H138 0.931 . S
C119 C115 1.460 . S
C119 C118 1.477 . S
C119 H139 0.930 . S
C120 N116 1.362 . S
C120 C117 1.431 . S
C120 C130 1.476 . S
H121 C115 0.929 . S
C122 O113 1.250 . S
C122 O114 1.258 . S
O123 Mn108 2.162 . S
O123 C111 1.281 1_554 S
O124 Mn108 2.297 1_556 S
O124 C111 1.236 . S
N125 Mn109 2.282 . S
N125 C126 1.328 . S
N125 C130 1.318 1_554 S
C126 N125 1.328 . S
C126 C127 1.447 1_554 S
C126 H131 0.929 . S
C127 C126 1.447 1_556 S
C127 C128 1.305 . S
C127 H140 0.926 1_556 S
C128 C127 1.305 . S
C128 C129 1.373 . S
C128 H141 0.929 . S
C129 C128 1.373 . S
C129 C130 1.396 . S
C129 C136 1.403 . S
C130 C120 1.476 . S
C130 N125 1.318 1_556 S
C130 C129 1.396 . S
H131 C126 0.929 . S
O132 Mn108 2.385 1_556 S
O132 C110 1.234 1_655 S
O133 Mn108 2.209 1_456 S
O133 Mn109 2.215 1_556 S
O133 C110 1.283 . S
O134 Mn108 2.094 . S
O134 C112 1.240 . S
O135 Mn109 2.117 . S
O135 C112 1.264 1_455 S
C136 C129 1.403 . S
C136 C137 1.399 . S
C136 H142 0.929 . S
C137 C117 1.449 . S
C137 C136 1.399 . S
C137 H143 0.930 . S
H138 C118 0.931 . S
H139 C119 0.930 . S
H140 C127 0.926 1_554 S
H141 C128 0.929 . S
H142 C136 0.929 . S
H143 C137 0.930 . S
Mn144 O149 2.095 1_554 S
Mn144 O159 2.162 . S
Mn144 O160 2.297 . S
Mn144 O168 2.385 . S
Mn144 O169 2.209 . S
Mn144 O170 2.094 1_554 S
Mn145 O150 2.121 1_554 S
Mn145 N152 2.257 . S
Mn145 N161 2.282 . S
Mn145 O169 2.215 . S
Mn145 O171 2.117 1_554 S
C146 O168 1.234 . S
C146 O169 1.283 . S
C147 O159 1.281 . S
C147 O160 1.236 . S
C148 O170 1.240 . S
C148 O171 1.264 . S
O149 Mn144 2.095 1_556 S
O149 C158 1.250 . S
O150 Mn145 2.121 1_556 S
O150 C158 1.258 . S
C151 N152 1.326 . S
C151 C155 1.460 . S
C151 H157 0.929 . S
N152 Mn145 2.257 . S
N152 C151 1.326 . S
N152 C156 1.362 . S
C153 C154 1.258 . S
C153 C156 1.431 . S
C153 C173 1.449 . S
C154 C153 1.258 . S
C154 C155 1.477 . S
C154 H174 0.931 . S
C155 C151 1.460 . S
C155 C154 1.477 . S
C155 H175 0.930 . S
C156 N152 1.362 . S
C156 C153 1.431 . S
C156 C166 1.476 . S
H157 C151 0.929 . S
C158 O149 1.250 . S
C158 O150 1.258 . S
O159 Mn144 2.162 . S
O159 C147 1.281 . S
O160 Mn144 2.297 . S
O160 C147 1.236 . S
N161 Mn145 2.282 . S
N161 C162 1.328 . S
N161 C166 1.318 . S
C162 N161 1.328 . S
C162 C163 1.457 . S
C162 H167 0.929 . S
C163 C162 1.457 . S
C163 C164 1.291 . S
C163 H176 0.931 . S
C164 C163 1.291 . S
C164 C165 1.373 . S
C164 H177 0.929 . S
C165 C164 1.373 . S
C165 C166 1.396 . S
C165 C172 1.403 . S
C166 C156 1.476 . S
C166 N161 1.318 . S
C166 C165 1.396 . S
H167 C162 0.929 . S
O168 Mn144 2.385 . S
O168 C146 1.234 . S
O169 Mn144 2.209 . S
O169 Mn145 2.215 . S
O169 C146 1.283 . S
O170 Mn144 2.094 1_556 S
O170 C148 1.240 . S
O171 Mn145 2.117 1_556 S
O171 C148 1.264 . S
C172 C165 1.403 . S
C172 C173 1.399 . S
C172 H178 0.929 . S
C173 C153 1.449 . S
C173 C172 1.399 . S
C173 H179 0.930 . S
H174 C154 0.931 . S
H175 C155 0.930 . S
H176 C163 0.931 . S
H177 C164 0.929 . S
H178 C172 0.929 . S
H179 C173 0.930 . S
Mn180 O185 2.095 1_545 S
Mn180 O195 2.162 . S
Mn180 O196 2.297 1_554 S
Mn180 O204 2.385 1_554 S
Mn180 O205 2.209 1_544 S
Mn180 O206 2.094 . S
Mn181 O186 2.121 . S
Mn181 N188 2.257 1_554 S
Mn181 N197 2.282 . S
Mn181 O205 2.215 1_554 S
Mn181 O207 2.117 . S
C182 O204 1.254 . S
C182 O205 1.263 1_545 S
C183 O195 1.281 1_556 S
C183 O196 1.236 . S
C184 O206 1.240 . S
C184 O207 1.264 1_545 S
O185 Mn180 2.095 1_565 S
O185 C194 1.250 . S
O186 Mn181 2.121 . S
O186 C194 1.258 . S
C187 N188 1.326 . S
C187 C191 1.460 . S
C187 H193 0.955 . S
N188 Mn181 2.257 1_556 S
N188 C187 1.326 . S
N188 C192 1.362 . S
C189 C190 1.258 . S
C189 C192 1.431 . S
C189 C209 1.449 . S
C190 C189 1.258 . S
C190 C191 1.477 . S
C190 H210 0.931 . S
C191 C187 1.460 . S
C191 C190 1.477 . S
C191 H211 0.930 . S
C192 N188 1.362 . S
C192 C189 1.431 . S
C192 C202 1.476 . S
H193 C187 0.955 . S
C194 O185 1.250 . S
C194 O186 1.258 . S
O195 Mn180 2.162 . S
O195 C183 1.281 1_554 S
O196 Mn180 2.297 1_556 S
O196 C183 1.236 . S
N197 Mn181 2.282 . S
N197 C198 1.328 . S
N197 C202 1.318 1_554 S
C198 N197 1.328 . S
C198 C199 1.463 . S
C198 H203 0.929 . S
C199 C198 1.463 . S
C199 C200 1.283 1_554 S
C199 H212 0.933 . S
C200 C199 1.283 1_556 S
C200 C201 1.373 . S
C200 H213 0.929 . S
C201 C200 1.373 . S
C201 C202 1.396 . S
C201 C208 1.403 . S
C202 C192 1.476 . S
C202 N197 1.318 1_556 S
C202 C201 1.396 . S
H203 C198 0.929 . S
O204 Mn180 2.385 1_556 S
O204 C182 1.254 . S
O205 Mn180 2.209 1_566 S
O205 Mn181 2.215 1_556 S
O205 C182 1.263 1_565 S
O206 Mn180 2.094 . S
O206 C184 1.240 . S
O207 Mn181 2.117 . S
O207 C184 1.264 1_565 S
C208 C201 1.403 . S
C208 C209 1.399 . S
C208 H214 0.929 . S
C209 C189 1.449 . S
C209 C208 1.399 . S
C209 H215 0.930 . S
H210 C190 0.931 . S
H211 C191 0.930 . S
H212 C199 0.933 . S
H213 C200 0.929 . S
H214 C208 0.929 . S
H215 C209 0.930 . S
Mn216 O221 2.095 . S
Mn216 O231 2.162 . S
Mn216 O232 2.297 . S
Mn216 O240 2.385 . S
Mn216 O241 2.209 . S
Mn216 O242 2.094 . S
Mn217 O222 2.121 . S
Mn217 N224 2.257 . S
Mn217 N233 2.282 . S
Mn217 O241 2.215 . S
Mn217 O243 2.117 . S
C218 O240 1.234 . S
C218 O241 1.283 . S
C219 O231 1.281 . S
C219 O232 1.236 . S
C220 O242 1.240 . S
C220 O243 1.264 . S
O221 Mn216 2.095 . S
O221 C230 1.250 . S
O222 Mn217 2.121 . S
O222 C230 1.258 . S
C223 N224 1.326 . S
C223 C227 1.460 . S
C223 H229 0.929 . S
N224 Mn217 2.257 . S
N224 C223 1.326 . S
N224 C228 1.362 . S
C225 C226 1.258 . S
C225 C228 1.431 . S
C225 C245 1.449 . S
C226 C225 1.258 . S
C226 C227 1.477 . S
C226 H246 0.931 . S
C227 C223 1.460 . S
C227 C226 1.477 . S
C227 H247 0.930 . S
C228 N224 1.362 . S
C228 C225 1.431 . S
C228 C238 1.476 . S
H229 C223 0.929 . S
C230 O221 1.250 . S
C230 O222 1.258 . S
O231 Mn216 2.162 . S
O231 C219 1.281 . S
O232 Mn216 2.297 . S
O232 C219 1.236 . S
N233 Mn217 2.282 . S
N233 C234 1.328 . S
N233 C238 1.318 . S
C234 N233 1.328 . S
C234 C235 1.457 . S
C234 H239 0.929 . S
C235 C234 1.457 . S
C235 C236 1.291 . S
C235 H248 0.931 . S
C236 C235 1.291 . S
C236 C237 1.373 . S
C236 H249 0.929 . S
C237 C236 1.373 . S
C237 C238 1.396 . S
C237 C244 1.403 . S
C238 C228 1.476 . S
C238 N233 1.318 . S
C238 C237 1.396 . S
H239 C234 0.929 . S
O240 Mn216 2.385 . S
O240 C218 1.234 . S
O241 Mn216 2.209 . S
O241 Mn217 2.215 . S
O241 C218 1.283 . S
O242 Mn216 2.094 . S
O242 C220 1.240 . S
O243 Mn217 2.117 . S
O243 C220 1.264 . S
C244 C237 1.403 . S
C244 C245 1.399 . S
C244 H250 0.929 . S
C245 C225 1.449 . S
C245 C244 1.399 . S
C245 H251 0.930 . S
H246 C226 0.931 . S
H247 C227 0.930 . S
H248 C235 0.931 . S
H249 C236 0.929 . S
H250 C244 0.929 . S
H251 C245 0.930 . S
Mn252 O257 2.095 . S
Mn252 O267 2.162 1_565 S
Mn252 O268 2.297 1_565 S
Mn252 O276 2.385 . S
Mn252 O277 2.209 . S
Mn252 O278 2.094 . S
Mn253 O258 2.121 . S
Mn253 N260 2.257 . S
Mn253 N269 2.282 . S
Mn253 O277 2.215 . S
Mn253 O279 2.117 . S
C254 O276 1.234 . S
C254 O277 1.283 . S
C255 O267 1.281 . S
C255 O268 1.236 . S
C256 O278 1.240 . S
C256 O279 1.264 . S
O257 Mn252 2.095 . S
O257 C266 1.250 . S
O258 Mn253 2.121 . S
O258 C266 1.258 . S
C259 N260 1.326 . S
C259 C263 1.460 . S
C259 H265 0.929 . S
N260 Mn253 2.257 . S
N260 C259 1.326 . S
N260 C264 1.362 . S
C261 C262 1.258 . S
C261 C264 1.431 . S
C261 C281 1.449 . S
C262 C261 1.258 . S
C262 C263 1.477 . S
C262 H282 0.931 . S
C263 C259 1.460 . S
C263 C262 1.477 . S
C263 H283 0.930 . S
C264 N260 1.362 . S
C264 C261 1.431 . S
C264 C274 1.476 . S
H265 C259 0.929 . S
C266 O257 1.250 . S
C266 O258 1.258 . S
O267 Mn252 2.162 1_545 S
O267 C255 1.281 . S
O268 Mn252 2.297 1_545 S
O268 C255 1.236 . S
N269 Mn253 2.282 . S
N269 C270 1.328 . S
N269 C274 1.318 . S
C270 N269 1.328 . S
C270 C271 1.457 . S
C270 H275 0.929 . S
C271 C270 1.457 . S
C271 C272 1.291 . S
C271 H284 0.931 . S
C272 C271 1.291 . S
C272 C273 1.373 . S
C272 H285 0.929 . S
C273 C272 1.373 . S
C273 C274 1.396 . S
C273 C280 1.403 . S
C274 C264 1.476 . S
C274 N269 1.318 . S
C274 C273 1.396 . S
H275 C270 0.929 . S
O276 Mn252 2.385 . S
O276 C254 1.234 . S
O277 Mn252 2.209 . S
O277 Mn253 2.215 . S
O277 C254 1.283 . S
O278 Mn252 2.094 . S
O278 C256 1.240 . S
O279 Mn253 2.117 . S
O279 C256 1.264 . S
C280 C273 1.403 . S
C280 C281 1.399 . S
C280 H286 0.929 . S
C281 C261 1.449 . S
C281 C280 1.399 . S
C281 H287 0.930 . S
H282 C262 0.931 . S
H283 C263 0.930 . S
H284 C271 0.931 . S
H285 C272 0.929 . S
H286 C280 0.929 . S
H287 C281 0.930 . S
Mn288 O293 2.095 . S
Mn288 O303 2.162 1_455 S
Mn288 O304 2.297 1_455 S
Mn288 O312 2.385 . S
Mn288 O313 2.209 . S
Mn288 O314 2.094 . S
Mn289 O294 2.121 . S
Mn289 N296 2.257 . S
Mn289 N305 2.282 . S
Mn289 O313 2.215 . S
Mn289 O315 2.117 . S
C290 O312 1.234 . S
C290 O313 1.283 . S
C291 O303 1.281 . S
C291 O304 1.236 . S
C292 O314 1.240 . S
C292 O315 1.264 . S
O293 Mn288 2.095 . S
O293 C302 1.250 . S
O294 Mn289 2.121 . S
O294 C302 1.258 . S
C295 N296 1.326 . S
C295 C299 1.460 . S
C295 H301 0.929 . S
N296 Mn289 2.257 . S
N296 C295 1.326 . S
N296 C300 1.362 . S
C297 C298 1.258 . S
C297 C300 1.431 . S
C297 C317 1.449 . S
C298 C297 1.258 . S
C298 C299 1.477 . S
C298 H318 0.931 . S
C299 C295 1.460 . S
C299 C298 1.477 . S
C299 H319 0.930 . S
C300 N296 1.362 . S
C300 C297 1.431 . S
C300 C310 1.476 . S
H301 C295 0.929 . S
C302 O293 1.250 . S
C302 O294 1.258 . S
O303 Mn288 2.162 1_655 S
O303 C291 1.281 . S
O304 Mn288 2.297 1_655 S
O304 C291 1.236 . S
N305 Mn289 2.282 . S
N305 C306 1.328 . S
N305 C310 1.318 . S
C306 N305 1.328 . S
C306 C307 1.457 . S
C306 H311 0.929 . S
C307 C306 1.457 . S
C307 C308 1.291 . S
C307 H320 0.931 . S
C308 C307 1.291 . S
C308 C309 1.373 . S
C308 H321 0.929 . S
C309 C308 1.373 . S
C309 C310 1.396 . S
C309 C316 1.403 . S
C310 C300 1.476 . S
C310 N305 1.318 . S
C310 C309 1.396 . S
H311 C306 0.929 . S
O312 Mn288 2.385 . S
O312 C290 1.234 . S
O313 Mn288 2.209 . S
O313 Mn289 2.215 . S
O313 C290 1.283 . S
O314 Mn288 2.094 . S
O314 C292 1.240 . S
O315 Mn289 2.117 . S
O315 C292 1.264 . S
C316 C309 1.403 . S
C316 C317 1.399 . S
C316 H322 0.929 . S
C317 C297 1.449 . S
C317 C316 1.399 . S
C317 H323 0.930 . S
H318 C298 0.931 . S
H319 C299 0.930 . S
H320 C307 0.931 . S
H321 C308 0.929 . S
H322 C316 0.929 . S
H323 C317 0.930 . S
Mn324 O329 2.095 . S
Mn324 O339 2.162 . S
Mn324 O340 2.297 . S
Mn324 O348 2.385 . S
Mn324 O349 2.209 . S
Mn324 O350 2.094 . S
Mn325 O330 2.121 1_565 S
Mn325 N332 2.257 . S
Mn325 N341 2.282 . S
Mn325 O349 2.215 . S
Mn325 O351 2.117 . S
C326 O348 1.234 . S
C326 O349 1.283 . S
C327 O339 1.281 . S
C327 O340 1.236 . S
C328 O350 1.240 . S
C328 O351 1.264 . S
O329 Mn324 2.095 . S
O329 C338 1.250 1_565 S
O330 Mn325 2.121 1_545 S
O330 C338 1.258 . S
C331 N332 1.326 1_545 S
C331 C335 1.460 . S
C331 H337 0.929 . S
N332 Mn325 2.257 . S
N332 C331 1.326 1_565 S
N332 C336 1.362 . S
C333 C334 1.258 . S
C333 C336 1.431 . S
C333 C353 1.449 . S
C334 C333 1.258 . S
C334 C335 1.477 1_565 S
C334 H354 0.931 . S
C335 C331 1.460 . S
C335 C334 1.477 1_545 S
C335 H355 0.930 . S
C336 N332 1.362 . S
C336 C333 1.431 . S
C336 C346 1.476 . S
H337 C331 0.929 . S
C338 O329 1.250 1_545 S
C338 O330 1.258 . S
O339 Mn324 2.162 . S
O339 C327 1.281 . S
O340 Mn324 2.297 . S
O340 C327 1.236 . S
N341 Mn325 2.282 . S
N341 C342 1.328 . S
N341 C346 1.318 . S
C342 N341 1.328 . S
C342 C343 1.457 . S
C342 H347 0.929 . S
C343 C342 1.457 . S
C343 C344 1.291 . S
C343 H356 0.931 . S
C344 C343 1.291 . S
C344 C345 1.373 . S
C344 H357 0.929 . S
C345 C344 1.373 . S
C345 C346 1.396 . S
C345 C352 1.403 . S
C346 C336 1.476 . S
C346 N341 1.318 . S
C346 C345 1.396 . S
H347 C342 0.929 . S
O348 Mn324 2.385 . S
O348 C326 1.234 . S
O349 Mn324 2.209 . S
O349 Mn325 2.215 . S
O349 C326 1.283 . S
O350 Mn324 2.094 . S
O350 C328 1.240 . S
O351 Mn325 2.117 . S
O351 C328 1.264 . S
C352 C345 1.403 . S
C352 C353 1.399 . S
C352 H358 0.929 . S
C353 C333 1.449 . S
C353 C352 1.399 . S
C353 H359 0.930 . S
H354 C334 0.931 . S
H355 C335 0.930 . S
H356 C343 0.931 . S
H357 C344 0.929 . S
H358 C352 0.929 . S
H359 C353 0.930 . S
Mn360 O365 2.095 . S
Mn360 O375 2.162 1_455 S
Mn360 O376 2.330 . S
Mn360 O384 2.385 . S
Mn360 O385 2.209 . S
Mn360 O386 2.094 . S
Mn361 O366 2.121 . S
Mn361 N368 2.257 . S
Mn361 N377 2.282 . S
Mn361 O385 2.215 . S
Mn361 O387 2.117 . S
C362 O384 1.234 . S
C362 O385 1.283 . S
C363 O375 1.281 . S
C363 O376 1.160 1_655 S
C364 O386 1.240 . S
C364 O387 1.264 . S
O365 Mn360 2.095 . S
O365 C374 1.250 . S
O366 Mn361 2.121 . S
O366 C374 1.258 . S
C367 N368 1.326 . S
C367 C371 1.460 . S
C367 H373 0.929 . S
N368 Mn361 2.257 . S
N368 C367 1.326 . S
N368 C372 1.362 . S
C369 C370 1.258 . S
C369 C372 1.431 . S
C369 C389 1.449 . S
C370 C369 1.258 . S
C370 C371 1.477 . S
C370 H390 0.931 . S
C371 C367 1.460 . S
C371 C370 1.477 . S
C371 H391 0.930 . S
C372 N368 1.362 . S
C372 C369 1.431 . S
C372 C382 1.476 . S
H373 C367 0.929 . S
C374 O365 1.250 . S
C374 O366 1.258 . S
O375 Mn360 2.162 1_655 S
O375 C363 1.281 . S
O376 Mn360 2.330 . S
O376 C363 1.160 1_455 S
N377 Mn361 2.282 . S
N377 C378 1.328 . S
N377 C382 1.318 . S
C378 N377 1.328 . S
C378 C379 1.457 . S
C378 H383 0.929 . S
C379 C378 1.457 . S
C379 C380 1.291 . S
C379 H392 0.931 . S
C380 C379 1.291 . S
C380 C381 1.373 . S
C380 H393 0.929 . S
C381 C380 1.373 . S
C381 C382 1.396 . S
C381 C388 1.403 . S
C382 C372 1.476 . S
C382 N377 1.318 . S
C382 C381 1.396 . S
H383 C378 0.929 . S
O384 Mn360 2.385 . S
O384 C362 1.234 . S
O385 Mn360 2.209 . S
O385 Mn361 2.215 . S
O385 C362 1.283 . S
O386 Mn360 2.094 . S
O386 C364 1.240 . S
O387 Mn361 2.117 . S
O387 C364 1.264 . S
C388 C381 1.403 . S
C388 C389 1.399 . S
C388 H394 0.929 . S
C389 C369 1.449 . S
C389 C388 1.399 . S
C389 H395 0.930 . S
H390 C370 0.931 . S
H391 C371 0.930 . S
H392 C379 0.931 . S
H393 C380 0.929 . S
H394 C388 0.929 . S
H395 C389 0.930 . S
Mn396 O401 2.095 . S
Mn396 O411 2.162 . S
Mn396 O412 2.297 . S
Mn396 O420 2.385 . S
Mn396 O421 2.209 . S
Mn396 O422 2.094 . S
Mn397 O402 2.121 . S
Mn397 N404 2.257 . S
Mn397 N413 2.282 . S
Mn397 O421 2.215 . S
Mn397 O423 2.117 . S
C398 O420 1.234 . S
C398 O421 1.283 . S
C399 O411 1.281 . S
C399 O412 1.236 . S
C400 O422 1.240 . S
C400 O423 1.264 . S
O401 Mn396 2.095 . S
O401 C410 1.250 . S
O402 Mn397 2.121 . S
O402 C410 1.258 . S
C403 N404 1.326 . S
C403 C407 1.460 . S
C403 H409 0.929 . S
N404 Mn397 2.257 . S
N404 C403 1.326 . S
N404 C408 1.362 . S
C405 C406 1.258 . S
C405 C408 1.431 . S
C405 C425 1.449 . S
C406 C405 1.258 . S
C406 C407 1.477 . S
C406 H426 0.931 . S
C407 C403 1.460 . S
C407 C406 1.477 . S
C407 H427 0.930 . S
C408 N404 1.362 . S
C408 C405 1.431 . S
C408 C418 1.476 . S
H409 C403 0.929 . S
C410 O401 1.250 . S
C410 O402 1.258 . S
O411 Mn396 2.162 . S
O411 C399 1.281 . S
O412 Mn396 2.297 . S
O412 C399 1.236 . S
N413 Mn397 2.282 . S
N413 C414 1.328 . S
N413 C418 1.318 . S
C414 N413 1.328 . S
C414 C415 1.457 . S
C414 H419 0.929 . S
C415 C414 1.457 . S
C415 C416 1.291 . S
C415 H428 0.931 . S
C416 C415 1.291 . S
C416 C417 1.373 . S
C416 H429 0.929 . S
C417 C416 1.373 . S
C417 C418 1.396 . S
C417 C424 1.403 . S
C418 C408 1.476 . S
C418 N413 1.318 . S
C418 C417 1.396 . S
H419 C414 0.929 . S
O420 Mn396 2.385 . S
O420 C398 1.234 . S
O421 Mn396 2.209 . S
O421 Mn397 2.215 . S
O421 C398 1.283 . S
O422 Mn396 2.094 . S
O422 C400 1.240 . S
O423 Mn397 2.117 . S
O423 C400 1.264 . S
C424 C417 1.403 . S
C424 C425 1.399 . S
C424 H430 0.929 . S
C425 C405 1.449 . S
C425 C424 1.399 . S
C425 H431 0.930 . S
H426 C406 0.931 . S
H427 C407 0.930 . S
H428 C415 0.931 . S
H429 C416 0.929 . S
H430 C424 0.929 . S
H431 C425 0.930 . S
Mn432 O437 2.095 . S
Mn432 O447 2.162 1_545 S
Mn432 O448 2.324 . S
Mn432 O456 2.385 . S
Mn432 O457 2.209 . S
Mn432 O458 2.094 . S
Mn433 O438 2.121 . S
Mn433 N440 2.257 . S
Mn433 N449 2.282 . S
Mn433 O457 2.215 . S
Mn433 O459 2.117 . S
C434 O456 1.234 . S
C434 O457 1.283 . S
C435 O447 1.281 . S
C435 O448 1.229 1_565 S
C436 O458 1.240 . S
C436 O459 1.264 . S
O437 Mn432 2.095 . S
O437 C446 1.250 . S
O438 Mn433 2.121 . S
O438 C446 1.258 . S
C439 N440 1.326 . S
C439 C443 1.460 . S
C439 H445 0.929 . S
N440 Mn433 2.257 . S
N440 C439 1.326 . S
N440 C444 1.362 . S
C441 C442 1.258 . S
C441 C444 1.431 . S
C441 C461 1.449 . S
C442 C441 1.258 . S
C442 C443 1.477 . S
C442 H462 0.931 . S
C443 C439 1.460 . S
C443 C442 1.477 . S
C443 H463 0.930 . S
C444 N440 1.362 . S
C444 C441 1.431 . S
C444 C454 1.476 . S
H445 C439 0.929 . S
C446 O437 1.250 . S
C446 O438 1.258 . S
O447 Mn432 2.162 1_565 S
O447 C435 1.281 . S
O448 Mn432 2.324 . S
O448 C435 1.229 1_545 S
N449 Mn433 2.282 . S
N449 C450 1.328 . S
N449 C454 1.318 . S
C450 N449 1.328 . S
C450 C451 1.457 . S
C450 H455 0.929 . S
C451 C450 1.457 . S
C451 C452 1.291 . S
C451 H464 0.931 . S
C452 C451 1.291 . S
C452 C453 1.373 . S
C452 H465 0.929 . S
C453 C452 1.373 . S
C453 C454 1.396 . S
C453 C460 1.403 . S
C454 C444 1.476 . S
C454 N449 1.318 . S
C454 C453 1.396 . S
H455 C450 0.929 . S
O456 Mn432 2.385 . S
O456 C434 1.234 . S
O457 Mn432 2.209 . S
O457 Mn433 2.215 . S
O457 C434 1.283 . S
O458 Mn432 2.094 . S
O458 C436 1.240 . S
O459 Mn433 2.117 . S
O459 C436 1.264 . S
C460 C453 1.403 . S
C460 C461 1.399 . S
C460 H466 0.929 . S
C461 C441 1.449 . S
C461 C460 1.399 . S
C461 H467 0.930 . S
H462 C442 0.931 . S
H463 C443 0.930 . S
H464 C451 0.931 . S
H465 C452 0.929 . S
H466 C460 0.929 . S
H467 C461 0.930 . S
Mn468 O473 2.095 . S
Mn468 O483 2.162 . S
Mn468 O484 2.297 . S
Mn468 O492 2.385 . S
Mn468 O493 2.209 . S
Mn468 O494 2.094 . S
Mn469 O474 2.117 . S
Mn469 N476 2.257 . S
Mn469 N485 2.282 . S
Mn469 O493 2.215 . S
Mn469 O495 2.117 . S
C470 O492 1.234 . S
C470 O493 1.283 . S
C471 O483 1.281 . S
C471 O484 1.236 . S
C472 O494 1.240 . S
C472 O495 1.264 . S
O473 Mn468 2.095 . S
O473 C482 1.250 1_655 S
O474 Mn469 2.117 . S
O474 C482 1.256 1_655 S
C475 N476 1.326 1_455 S
C475 C479 1.460 . S
C475 H481 0.929 . S
N476 Mn469 2.257 . S
N476 C475 1.326 1_655 S
N476 C480 1.362 . S
C477 C478 1.258 . S
C477 C480 1.431 . S
C477 C497 1.449 . S
C478 C477 1.258 . S
C478 C479 1.477 1_655 S
C478 H498 0.931 . S
C479 C475 1.460 . S
C479 C478 1.477 1_455 S
C479 H499 0.930 . S
C480 N476 1.362 . S
C480 C477 1.431 . S
C480 C490 1.476 . S
H481 C475 0.929 . S
C482 O473 1.250 1_455 S
C482 O474 1.256 1_455 S
O483 Mn468 2.162 . S
O483 C471 1.281 . S
O484 Mn468 2.297 . S
O484 C471 1.236 . S
N485 Mn469 2.282 . S
N485 C486 1.328 . S
N485 C490 1.318 . S
C486 N485 1.328 . S
C486 C487 1.457 . S
C486 H491 0.929 . S
C487 C486 1.457 . S
C487 C488 1.291 . S
C487 H500 0.931 . S
C488 C487 1.291 . S
C488 C489 1.373 . S
C488 H501 0.929 . S
C489 C488 1.373 . S
C489 C490 1.396 . S
C489 C496 1.403 . S
C490 C480 1.476 . S
C490 N485 1.318 . S
C490 C489 1.396 . S
H491 C486 0.929 . S
O492 Mn468 2.385 . S
O492 C470 1.234 . S
O493 Mn468 2.209 . S
O493 Mn469 2.215 . S
O493 C470 1.283 . S
O494 Mn468 2.094 . S
O494 C472 1.240 . S
O495 Mn469 2.117 . S
O495 C472 1.264 . S
C496 C489 1.403 . S
C496 C497 1.399 . S
C496 H502 0.929 . S
C497 C477 1.449 . S
C497 C496 1.399 . S
C497 H503 0.930 . S
H498 C478 0.931 . S
H499 C479 0.930 . S
H500 C487 0.931 . S
H501 C488 0.929 . S
H502 C496 0.929 . S
H503 C497 0.930 . S
Mn504 O509 2.095 . S
Mn504 O519 2.162 . S
Mn504 O520 2.297 . S
Mn504 O528 2.385 . S
Mn504 O529 2.209 . S
Mn504 O530 2.094 . S
Mn505 O510 2.121 . S
Mn505 N512 2.257 . S
Mn505 N521 2.282 . S
Mn505 O529 2.215 . S
Mn505 O531 2.117 . S
C506 O528 1.234 . S
C506 O529 1.283 . S
C507 O519 1.281 . S
C507 O520 1.236 . S
C508 O530 1.240 . S
C508 O531 1.264 . S
O509 Mn504 2.095 . S
O509 C518 1.250 . S
O510 Mn505 2.121 . S
O510 C518 1.258 . S
C511 N512 1.326 . S
C511 C515 1.460 . S
C511 H517 0.929 . S
N512 Mn505 2.257 . S
N512 C511 1.326 . S
N512 C516 1.362 . S
C513 C514 1.258 . S
C513 C516 1.431 . S
C513 C533 1.449 . S
C514 C513 1.258 . S
C514 C515 1.477 . S
C514 H534 0.931 . S
C515 C511 1.460 . S
C515 C514 1.477 . S
C515 H535 0.930 . S
C516 N512 1.362 . S
C516 C513 1.431 . S
C516 C526 1.476 . S
H517 C511 0.929 . S
C518 O509 1.250 . S
C518 O510 1.258 . S
O519 Mn504 2.162 . S
O519 C507 1.281 . S
O520 Mn504 2.297 . S
O520 C507 1.236 . S
N521 Mn505 2.282 . S
N521 C522 1.328 . S
N521 C526 1.318 . S
C522 N521 1.328 . S
C522 C523 1.457 . S
C522 H527 0.929 . S
C523 C522 1.457 . S
C523 C524 1.291 . S
C523 H536 0.931 . S
C524 C523 1.291 . S
C524 C525 1.373 . S
C524 H537 0.929 . S
C525 C524 1.373 . S
C525 C526 1.396 . S
C525 C532 1.403 . S
C526 C516 1.476 . S
C526 N521 1.318 . S
C526 C525 1.396 . S
H527 C522 0.929 . S
O528 Mn504 2.385 . S
O528 C506 1.234 . S
O529 Mn504 2.209 . S
O529 Mn505 2.215 . S
O529 C506 1.283 . S
O530 Mn504 2.094 . S
O530 C508 1.240 . S
O531 Mn505 2.117 . S
O531 C508 1.264 . S
C532 C525 1.403 . S
C532 C533 1.399 . S
C532 H538 0.929 . S
C533 C513 1.449 . S
C533 C532 1.399 . S
C533 H539 0.930 . S
H534 C514 0.931 . S
H535 C515 0.930 . S
H536 C523 0.931 . S
H537 C524 0.929 . S
H538 C532 0.929 . S
H539 C533 0.930 . S
Mn540 O545 2.095 . S
Mn540 O555 2.162 . S
Mn540 O556 2.297 . S
Mn540 O564 2.385 . S
Mn540 O565 2.209 . S
Mn540 O566 2.094 . S
Mn541 O546 2.121 . S
Mn541 N548 2.257 . S
Mn541 N557 2.282 . S
Mn541 O565 2.215 . S
Mn541 O567 2.117 . S
C542 O564 1.234 . S
C542 O565 1.283 . S
C543 O555 1.281 . S
C543 O556 1.236 . S
C544 O566 1.240 . S
C544 O567 1.264 . S
O545 Mn540 2.095 . S
O545 C554 1.250 . S
O546 Mn541 2.121 . S
O546 C554 1.258 . S
C547 N548 1.326 . S
C547 C551 1.460 . S
C547 H553 0.929 . S
N548 Mn541 2.257 . S
N548 C547 1.326 . S
N548 C552 1.362 . S
C549 C550 1.258 . S
C549 C552 1.431 . S
C549 C569 1.449 . S
C550 C549 1.258 . S
C550 C551 1.477 . S
C550 H570 0.931 . S
C551 C547 1.460 . S
C551 C550 1.477 . S
C551 H571 0.930 . S
C552 N548 1.362 . S
C552 C549 1.431 . S
C552 C562 1.476 . S
H553 C547 0.929 . S
C554 O545 1.250 . S
C554 O546 1.258 . S
O555 Mn540 2.162 . S
O555 C543 1.281 . S
O556 Mn540 2.297 . S
O556 C543 1.236 . S
N557 Mn541 2.282 . S
N557 C558 1.328 . S
N557 C562 1.318 . S
C558 N557 1.328 . S
C558 C559 1.457 . S
C558 H563 0.929 . S
C559 C558 1.457 . S
C559 C560 1.291 . S
C559 H572 0.931 . S
C560 C559 1.291 . S
C560 C561 1.373 . S
C560 H573 0.929 . S
C561 C560 1.373 . S
C561 C562 1.396 . S
C561 C568 1.403 . S
C562 C552 1.476 . S
C562 N557 1.318 . S
C562 C561 1.396 . S
H563 C558 0.929 . S
O564 Mn540 2.385 . S
O564 C542 1.234 . S
O565 Mn540 2.209 . S
O565 Mn541 2.215 . S
O565 C542 1.283 . S
O566 Mn540 2.094 . S
O566 C544 1.240 . S
O567 Mn541 2.117 . S
O567 C544 1.264 . S
C568 C561 1.403 . S
C568 C569 1.399 . S
C568 H574 0.929 . S
C569 C549 1.449 . S
C569 C568 1.399 . S
C569 H575 0.930 . S
H570 C550 0.931 . S
H571 C551 0.930 . S
H572 C559 0.931 . S
H573 C560 0.929 . S
H574 C568 0.929 . S
H575 C569 0.930 . S
Mn576 O581 2.095 . S
Mn576 O591 2.162 . S
Mn576 O592 2.297 . S
Mn576 O600 2.385 . S
Mn576 O601 2.209 . S
Mn576 O602 2.094 . S
Mn577 O582 2.121 1_545 S
Mn577 N584 2.257 . S
Mn577 N593 2.282 . S
Mn577 O601 2.215 . S
Mn577 O603 2.117 . S
C578 O600 1.234 . S
C578 O601 1.283 . S
C579 O591 1.281 . S
C579 O592 1.236 . S
C580 O602 1.240 . S
C580 O603 1.264 . S
O581 Mn576 2.095 . S
O581 C590 1.250 1_545 S
O582 Mn577 2.121 1_565 S
O582 C590 1.258 . S
C583 N584 1.326 1_565 S
C583 C587 1.460 . S
C583 H589 0.929 . S
N584 Mn577 2.257 . S
N584 C583 1.326 1_545 S
N584 C588 1.362 . S
C585 C586 1.258 . S
C585 C588 1.431 . S
C585 C605 1.449 . S
C586 C585 1.258 . S
C586 C587 1.477 1_545 S
C586 H606 0.931 . S
C587 C583 1.460 . S
C587 C586 1.477 1_565 S
C587 H607 0.930 . S
C588 N584 1.362 . S
C588 C585 1.431 . S
C588 C598 1.476 . S
H589 C583 0.929 . S
C590 O581 1.250 1_565 S
C590 O582 1.258 . S
O591 Mn576 2.162 . S
O591 C579 1.281 . S
O592 Mn576 2.297 . S
O592 C579 1.236 . S
N593 Mn577 2.282 . S
N593 C594 1.328 . S
N593 C598 1.318 . S
C594 N593 1.328 . S
C594 C595 1.457 . S
C594 H599 0.929 . S
C595 C594 1.457 . S
C595 C596 1.291 . S
C595 H608 0.931 . S
C596 C595 1.291 . S
C596 C597 1.373 . S
C596 H609 0.929 . S
C597 C596 1.373 . S
C597 C598 1.396 . S
C597 C604 1.403 . S
C598 C588 1.476 . S
C598 N593 1.318 . S
C598 C597 1.396 . S
H599 C594 0.929 . S
O600 Mn576 2.385 . S
O600 C578 1.234 . S
O601 Mn576 2.209 . S
O601 Mn577 2.215 . S
O601 C578 1.283 . S
O602 Mn576 2.094 . S
O602 C580 1.240 . S
O603 Mn577 2.117 . S
O603 C580 1.264 . S
C604 C597 1.403 . S
C604 C605 1.399 . S
C604 H610 0.929 . S
C605 C585 1.449 . S
C605 C604 1.399 . S
C605 H611 0.930 . S
H606 C586 0.931 . S
H607 C587 0.930 . S
H608 C595 0.931 . S
H609 C596 0.929 . S
H610 C604 0.929 . S
H611 C605 0.930 . S
Mn612 O617 2.095 . S
Mn612 O627 2.162 1_655 S
Mn612 O628 2.297 1_655 S
Mn612 O636 2.385 . S
Mn612 O637 2.209 . S
Mn612 O638 2.094 . S
Mn613 O618 2.121 . S
Mn613 N620 2.257 . S
Mn613 N629 2.282 . S
Mn613 O637 2.215 . S
Mn613 O639 2.117 . S
C614 O636 1.234 . S
C614 O637 1.283 . S
C615 O627 1.281 . S
C615 O628 1.236 . S
C616 O638 1.240 . S
C616 O639 1.264 . S
O617 Mn612 2.095 . S
O617 C626 1.250 . S
O618 Mn613 2.121 . S
O618 C626 1.258 . S
C619 N620 1.326 . S
C619 C623 1.460 . S
C619 H625 0.929 . S
N620 Mn613 2.257 . S
N620 C619 1.326 . S
N620 C624 1.362 . S
C621 C622 1.258 . S
C621 C624 1.431 . S
C621 C641 1.449 . S
C622 C621 1.258 . S
C622 C623 1.477 . S
C622 H642 0.931 . S
C623 C619 1.460 . S
C623 C622 1.477 . S
C623 H643 0.930 . S
C624 N620 1.362 . S
C624 C621 1.431 . S
C624 C634 1.476 . S
H625 C619 0.929 . S
C626 O617 1.250 . S
C626 O618 1.258 . S
O627 Mn612 2.162 1_455 S
O627 C615 1.281 . S
O628 Mn612 2.297 1_455 S
O628 C615 1.236 . S
N629 Mn613 2.282 . S
N629 C630 1.328 . S
N629 C634 1.318 . S
C630 N629 1.328 . S
C630 C631 1.457 . S
C630 H635 0.929 . S
C631 C630 1.457 . S
C631 C632 1.291 . S
C631 H644 0.931 . S
C632 C631 1.291 . S
C632 C633 1.373 . S
C632 H645 0.929 . S
C633 C632 1.373 . S
C633 C634 1.396 . S
C633 C640 1.403 . S
C634 C624 1.476 . S
C634 N629 1.318 . S
C634 C633 1.396 . S
H635 C630 0.929 . S
O636 Mn612 2.385 . S
O636 C614 1.234 . S
O637 Mn612 2.209 . S
O637 Mn613 2.215 . S
O637 C614 1.283 . S
O638 Mn612 2.094 . S
O638 C616 1.240 . S
O639 Mn613 2.117 . S
O639 C616 1.264 . S
C640 C633 1.403 . S
C640 C641 1.399 . S
C640 H646 0.929 . S
C641 C621 1.449 . S
C641 C640 1.399 . S
C641 H647 0.930 . S
H642 C622 0.931 . S
H643 C623 0.930 . S
H644 C631 0.931 . S
H645 C632 0.929 . S
H646 C640 0.929 . S
H647 C641 0.930 . S
H648 C667 0.949 . S
H649 C668 0.950 . S
H650 C670 0.950 . S
H651 C671 0.950 . S
H652 C673 0.950 . S
H653 C676 0.950 . S
H654 C677 0.950 . S
H655 C679 0.951 . S
H656 C680 0.949 . S
H657 C682 0.949 . S
H658 C683 0.950 . S
H659 C685 0.950 . S
H660 C686 0.950 . S
H661 C688 0.950 . S
H662 C691 0.950 . S
H663 C692 0.950 . S
H664 C694 0.951 . S
H665 C695 0.949 . S
C666 C667 1.376 . S
C666 C671 1.386 . S
C666 C672 1.483 . S
C667 H648 0.949 . S
C667 C666 1.376 . S
C667 C668 1.397 . S
C668 H649 0.950 . S
C668 C667 1.397 . S
C668 C669 1.391 . S
C669 C668 1.391 . S
C669 C670 1.405 . S
C670 H650 0.950 . S
C670 C669 1.405 . S
C670 C671 1.367 . S
C671 H651 0.950 . S
C671 C666 1.386 . S
C671 C670 1.367 . S
C672 C666 1.483 . S
C672 C673 1.382 . S
C672 C674 1.403 . S
C673 H652 0.950 . S
C673 C672 1.382 . S
C673 C689 1.411 . S
C674 C672 1.403 . S
C674 C675 1.489 . S
C674 C688 1.411 . S
C675 C674 1.489 . S
C675 C676 1.383 . S
C675 C680 1.382 . S
C676 H653 0.950 . S
C676 C675 1.383 . S
C676 C677 1.395 . S
C677 H654 0.950 . S
C677 C676 1.395 . S
C677 C678 1.288 . S
C678 C677 1.288 . S
C678 C679 1.392 . S
C679 H655 0.951 . S
C679 C678 1.392 . S
C679 C680 1.392 . S
C680 H656 0.949 . S
C680 C675 1.382 . S
C680 C679 1.392 . S
C681 C682 1.376 . S
C681 C686 1.386 . S
C681 C687 1.483 . S
C682 H657 0.949 . S
C682 C681 1.376 . S
C682 C683 1.397 . S
C683 H658 0.950 . S
C683 C682 1.397 . S
C683 C684 1.391 . S
C684 C683 1.391 . S
C684 C685 1.405 . S
C685 H659 0.950 . S
C685 C684 1.405 . S
C685 C686 1.367 . S
C686 H660 0.950 . S
C686 C681 1.386 . S
C686 C685 1.367 . S
C687 C681 1.483 . S
C687 C688 1.382 . S
C687 C689 1.403 . S
C688 H661 0.950 . S
C688 C674 1.411 . S
C688 C687 1.382 . S
C689 C673 1.411 . S
C689 C687 1.403 . S
C689 C690 1.489 . S
C690 C689 1.489 . S
C690 C691 1.383 . S
C690 C695 1.382 . S
C691 H662 0.950 . S
C691 C690 1.383 . S
C691 C692 1.395 . S
C692 H663 0.950 . S
C692 C691 1.395 . S
C692 C693 1.288 . S
C693 C692 1.288 . S
C693 C694 1.392 . S
C694 H664 0.951 . S
C694 C693 1.392 . S
C694 C695 1.392 . S
C695 H665 0.949 . S
C695 C690 1.382 . S
C695 C694 1.392 . S
H696 C715 0.949 . S
H697 C716 0.950 . S
H698 C718 0.950 . S
H699 C719 0.950 . S
H700 C721 0.950 . S
H701 C724 0.950 . S
H702 C725 0.950 . S
H703 C727 0.951 . S
H704 C728 0.949 . S
H705 C730 0.949 . S
H706 C731 0.950 . S
H707 C733 0.950 . S
H708 C734 0.950 . S
H709 C736 0.950 . S
H710 C739 0.950 . S
H711 C740 0.950 . S
H712 C742 0.951 . S
H713 C743 0.949 . S
C714 C715 1.376 . S
C714 C719 1.386 . S
C714 C720 1.483 . S
C715 H696 0.949 . S
C715 C714 1.376 . S
C715 C716 1.397 . S
C716 H697 0.950 . S
C716 C715 1.397 . S
C716 C717 1.391 . S
C717 C716 1.391 . S
C717 C718 1.405 . S
C718 H698 0.950 . S
C718 C717 1.405 . S
C718 C719 1.367 . S
C719 H699 0.950 . S
C719 C714 1.386 . S
C719 C718 1.367 . S
C720 C714 1.483 . S
C720 C721 1.382 . S
C720 C722 1.403 . S
C721 H700 0.950 . S
C721 C720 1.382 . S
C721 C737 1.411 . S
C722 C720 1.403 . S
C722 C723 1.489 . S
C722 C736 1.411 . S
C723 C722 1.489 . S
C723 C724 1.383 . S
C723 C728 1.382 . S
C724 H701 0.950 . S
C724 C723 1.383 . S
C724 C725 1.395 . S
C725 H702 0.950 . S
C725 C724 1.395 . S
C725 C726 1.288 . S
C726 C725 1.288 . S
C726 C727 1.392 . S
C727 H703 0.951 . S
C727 C726 1.392 . S
C727 C728 1.392 . S
C728 H704 0.949 . S
C728 C723 1.382 . S
C728 C727 1.392 . S
C729 C730 1.376 . S
C729 C734 1.386 . S
C729 C735 1.483 . S
C730 H705 0.949 . S
C730 C729 1.376 . S
C730 C731 1.397 . S
C731 H706 0.950 . S
C731 C730 1.397 . S
C731 C732 1.391 . S
C732 C731 1.391 . S
C732 C733 1.405 . S
C733 H707 0.950 . S
C733 C732 1.405 . S
C733 C734 1.367 . S
C734 H708 0.950 . S
C734 C729 1.386 . S
C734 C733 1.367 . S
C735 C729 1.483 . S
C735 C736 1.382 . S
C735 C737 1.403 . S
C736 H709 0.950 . S
C736 C722 1.411 . S
C736 C735 1.382 . S
C737 C721 1.411 . S
C737 C735 1.403 . S
C737 C738 1.489 . S
C738 C737 1.489 . S
C738 C739 1.383 . S
C738 C743 1.382 . S
C739 H710 0.950 . S
C739 C738 1.383 . S
C739 C740 1.395 . S
C740 H711 0.950 . S
C740 C739 1.395 . S
C740 C741 1.288 . S
C741 C740 1.288 . S
C741 C742 1.392 . S
C742 H712 0.951 . S
C742 C741 1.392 . S
C742 C743 1.392 . S
C743 H713 0.949 . S
C743 C738 1.382 . S
C743 C742 1.392 . S
H744 C763 0.949 . S
H745 C764 0.950 . S
H746 C766 0.950 . S
H747 C767 0.950 . S
H748 C769 0.950 . S
H749 C772 0.950 . S
H750 C773 0.950 . S
H751 C775 0.951 . S
H752 C776 0.949 . S
H753 C778 0.949 . S
H754 C779 0.950 . S
H755 C781 0.950 . S
H756 C782 0.950 . S
H757 C784 0.950 . S
H758 C787 0.950 . S
H759 C788 0.950 . S
H760 C790 0.951 . S
H761 C791 0.949 . S
C762 C763 1.376 . S
C762 C767 1.386 . S
C762 C768 1.483 . S
C763 H744 0.949 . S
C763 C762 1.376 . S
C763 C764 1.397 . S
C764 H745 0.950 . S
C764 C763 1.397 . S
C764 C765 1.391 . S
C765 C764 1.391 . S
C765 C766 1.405 . S
C766 H746 0.950 . S
C766 C765 1.405 . S
C766 C767 1.367 . S
C767 H747 0.950 . S
C767 C762 1.386 . S
C767 C766 1.367 . S
C768 C762 1.483 . S
C768 C769 1.382 . S
C768 C770 1.403 . S
C769 H748 0.950 . S
C769 C768 1.382 . S
C769 C785 1.411 . S
C770 C768 1.403 . S
C770 C771 1.489 . S
C770 C784 1.411 . S
C771 C770 1.489 . S
C771 C772 1.383 . S
C771 C776 1.382 . S
C772 H749 0.950 . S
C772 C771 1.383 . S
C772 C773 1.395 . S
C773 H750 0.950 . S
C773 C772 1.395 . S
C773 C774 1.288 . S
C774 C773 1.288 . S
C774 C775 1.392 . S
C775 H751 0.951 . S
C775 C774 1.392 . S
C775 C776 1.392 . S
C776 H752 0.949 . S
C776 C771 1.382 . S
C776 C775 1.392 . S
C777 C778 1.376 . S
C777 C782 1.386 . S
C777 C783 1.483 . S
C778 H753 0.949 . S
C778 C777 1.376 . S
C778 C779 1.397 . S
C779 H754 0.950 . S
C779 C778 1.397 . S
C779 C780 1.391 . S
C780 C779 1.391 . S
C780 C781 1.405 . S
C781 H755 0.950 . S
C781 C780 1.405 . S
C781 C782 1.367 . S
C782 H756 0.950 . S
C782 C777 1.386 . S
C782 C781 1.367 . S
C783 C777 1.483 . S
C783 C784 1.382 . S
C783 C785 1.403 . S
C784 H757 0.950 . S
C784 C770 1.411 . S
C784 C783 1.382 . S
C785 C769 1.411 . S
C785 C783 1.403 . S
C785 C786 1.489 . S
C786 C785 1.489 . S
C786 C787 1.383 . S
C786 C791 1.382 . S
C787 H758 0.950 . S
C787 C786 1.383 . S
C787 C788 1.395 . S
C788 H759 0.950 . S
C788 C787 1.395 . S
C788 C789 1.288 . S
C789 C788 1.288 . S
C789 C790 1.392 . S
C790 H760 0.951 . S
C790 C789 1.392 . S
C790 C791 1.392 . S
C791 H761 0.949 . S
C791 C786 1.382 . S
C791 C790 1.392 . S
H792 C811 0.949 . S
H793 C812 0.950 . S
H794 C814 0.950 . S
H795 C815 0.950 . S
H796 C817 0.950 . S
H797 C820 0.950 . S
H798 C821 0.950 . S
H799 C823 0.951 . S
H800 C824 0.949 . S
H801 C826 0.949 . S
H802 C827 0.950 . S
H803 C829 0.950 . S
H804 C830 0.950 . S
H805 C832 0.950 . S
H806 C835 0.950 . S
H807 C836 0.950 . S
H808 C838 0.951 . S
H809 C839 0.949 . S
C810 C811 1.376 . S
C810 C815 1.386 . S
C810 C816 1.483 . S
C811 H792 0.949 . S
C811 C810 1.376 . S
C811 C812 1.397 . S
C812 H793 0.950 . S
C812 C811 1.397 . S
C812 C813 1.391 . S
C813 C812 1.391 . S
C813 C814 1.405 . S
C814 H794 0.950 . S
C814 C813 1.405 . S
C814 C815 1.367 . S
C815 H795 0.950 . S
C815 C810 1.386 . S
C815 C814 1.367 . S
C816 C810 1.483 . S
C816 C817 1.382 . S
C816 C818 1.403 . S
C817 H796 0.950 . S
C817 C816 1.382 . S
C817 C833 1.411 . S
C818 C816 1.403 . S
C818 C819 1.489 . S
C818 C832 1.411 . S
C819 C818 1.489 . S
C819 C820 1.383 . S
C819 C824 1.382 . S
C820 H797 0.950 . S
C820 C819 1.383 . S
C820 C821 1.395 . S
C821 H798 0.950 . S
C821 C820 1.395 . S
C821 C822 1.288 . S
C822 C821 1.288 . S
C822 C823 1.392 . S
C823 H799 0.951 . S
C823 C822 1.392 . S
C823 C824 1.392 . S
C824 H800 0.949 . S
C824 C819 1.382 . S
C824 C823 1.392 . S
C825 C826 1.376 . S
C825 C830 1.386 . S
C825 C831 1.483 . S
C826 H801 0.949 . S
C826 C825 1.376 . S
C826 C827 1.397 . S
C827 H802 0.950 . S
C827 C826 1.397 . S
C827 C828 1.391 . S
C828 C827 1.391 . S
C828 C829 1.405 . S
C829 H803 0.950 . S
C829 C828 1.405 . S
C829 C830 1.367 . S
C830 H804 0.950 . S
C830 C825 1.386 . S
C830 C829 1.367 . S
C831 C825 1.483 . S
C831 C832 1.382 . S
C831 C833 1.403 . S
C832 H805 0.950 . S
C832 C818 1.411 . S
C832 C831 1.382 . S
C833 C817 1.411 . S
C833 C831 1.403 . S
C833 C834 1.489 . S
C834 C833 1.489 . S
C834 C835 1.383 . S
C834 C839 1.382 . S
C835 H806 0.950 . S
C835 C834 1.383 . S
C835 C836 1.395 . S
C836 H807 0.950 . S
C836 C835 1.395 . S
C836 C837 1.288 . S
C837 C836 1.288 . S
C837 C838 1.392 . S
C838 H808 0.951 . S
C838 C837 1.392 . S
C838 C839 1.392 . S
C839 H809 0.949 . S
C839 C834 1.382 . S
C839 C838 1.392 . S
H840 C859 0.949 . S
H841 C860 0.950 . S
H842 C862 0.950 . S
H843 C863 0.950 . S
H844 C865 0.950 . S
H845 C868 0.950 . S
H846 C869 0.950 . S
H847 C871 0.951 . S
H848 C872 0.949 . S
H849 C874 0.949 . S
H850 C875 0.950 . S
H851 C877 0.950 . S
H852 C878 0.950 . S
H853 C880 0.950 . S
H854 C883 0.950 . S
H855 C884 0.950 . S
H856 C886 0.951 . S
H857 C887 0.949 . S
C858 C859 1.376 . S
C858 C863 1.386 . S
C858 C864 1.483 . S
C859 H840 0.949 . S
C859 C858 1.376 . S
C859 C860 1.397 . S
C860 H841 0.950 . S
C860 C859 1.397 . S
C860 C861 1.391 . S
C861 C860 1.391 . S
C861 C862 1.405 . S
C862 H842 0.950 . S
C862 C861 1.405 . S
C862 C863 1.367 . S
C863 H843 0.950 . S
C863 C858 1.386 . S
C863 C862 1.367 . S
C864 C858 1.483 . S
C864 C865 1.382 . S
C864 C866 1.403 . S
C865 H844 0.950 . S
C865 C864 1.382 . S
C865 C881 1.411 . S
C866 C864 1.403 . S
C866 C867 1.489 . S
C866 C880 1.411 . S
C867 C866 1.489 . S
C867 C868 1.383 . S
C867 C872 1.382 . S
C868 H845 0.950 . S
C868 C867 1.383 . S
C868 C869 1.395 . S
C869 H846 0.950 . S
C869 C868 1.395 . S
C869 C870 1.288 . S
C870 C869 1.288 . S
C870 C871 1.392 . S
C871 H847 0.951 . S
C871 C870 1.392 . S
C871 C872 1.392 . S
C872 H848 0.949 . S
C872 C867 1.382 . S
C872 C871 1.392 . S
C873 C874 1.376 . S
C873 C878 1.386 . S
C873 C879 1.483 . S
C874 H849 0.949 . S
C874 C873 1.376 . S
C874 C875 1.397 . S
C875 H850 0.950 . S
C875 C874 1.397 . S
C875 C876 1.391 . S
C876 C875 1.391 . S
C876 C877 1.405 . S
C877 H851 0.950 . S
C877 C876 1.405 . S
C877 C878 1.367 . S
C878 H852 0.950 . S
C878 C873 1.386 . S
C878 C877 1.367 . S
C879 C873 1.483 . S
C879 C880 1.382 . S
C879 C881 1.403 . S
C880 H853 0.950 . S
C880 C866 1.411 . S
C880 C879 1.382 . S
C881 C865 1.411 . S
C881 C879 1.403 . S
C881 C882 1.489 . S
C882 C881 1.489 . S
C882 C883 1.383 . S
C882 C887 1.382 . S
C883 H854 0.950 . S
C883 C882 1.383 . S
C883 C884 1.395 . S
C884 H855 0.950 . S
C884 C883 1.395 . S
C884 C885 1.288 . S
C885 C884 1.288 . S
C885 C886 1.392 . S
C886 H856 0.951 . S
C886 C885 1.392 . S
C886 C887 1.392 . S
C887 H857 0.949 . S
C887 C882 1.382 . S
C887 C886 1.392 . S
H888 C907 0.949 . S
H889 C908 0.950 . S
H890 C910 0.950 . S
H891 C911 0.950 . S
H892 C913 0.950 . S
H893 C916 0.950 . S
H894 C917 0.950 . S
H895 C919 0.951 . S
H896 C920 0.949 . S
H897 C922 0.949 . S
H898 C923 0.950 . S
H899 C925 0.950 . S
H900 C926 0.950 . S
H901 C928 0.950 . S
H902 C931 0.950 . S
H903 C932 0.950 . S
H904 C934 0.951 . S
H905 C935 0.949 . S
C906 C907 1.376 . S
C906 C911 1.386 . S
C906 C912 1.483 . S
C907 H888 0.949 . S
C907 C906 1.376 . S
C907 C908 1.397 . S
C908 H889 0.950 . S
C908 C907 1.397 . S
C908 C909 1.391 . S
C909 C908 1.391 . S
C909 C910 1.405 . S
C910 H890 0.950 . S
C910 C909 1.405 . S
C910 C911 1.367 . S
C911 H891 0.950 . S
C911 C906 1.386 . S
C911 C910 1.367 . S
C912 C906 1.483 . S
C912 C913 1.382 . S
C912 C914 1.403 . S
C913 H892 0.950 . S
C913 C912 1.382 . S
C913 C929 1.411 . S
C914 C912 1.403 . S
C914 C915 1.489 . S
C914 C928 1.411 . S
C915 C914 1.489 . S
C915 C916 1.383 . S
C915 C920 1.382 . S
C916 H893 0.950 . S
C916 C915 1.383 . S
C916 C917 1.395 . S
C917 H894 0.950 . S
C917 C916 1.395 . S
C917 C918 1.288 . S
C918 C917 1.288 . S
C918 C919 1.392 . S
C919 H895 0.951 . S
C919 C918 1.392 . S
C919 C920 1.392 . S
C920 H896 0.949 . S
C920 C915 1.382 . S
C920 C919 1.392 . S
C921 C922 1.376 . S
C921 C926 1.386 . S
C921 C927 1.483 . S
C922 H897 0.949 . S
C922 C921 1.376 . S
C922 C923 1.397 . S
C923 H898 0.950 . S
C923 C922 1.397 . S
C923 C924 1.391 . S
C924 C923 1.391 . S
C924 C925 1.405 . S
C925 H899 0.950 . S
C925 C924 1.405 . S
C925 C926 1.367 . S
C926 H900 0.950 . S
C926 C921 1.386 . S
C926 C925 1.367 . S
C927 C921 1.483 . S
C927 C928 1.382 . S
C927 C929 1.403 . S
C928 H901 0.950 . S
C928 C914 1.411 . S
C928 C927 1.382 . S
C929 C913 1.411 . S
C929 C927 1.403 . S
C929 C930 1.489 . S
C930 C929 1.489 . S
C930 C931 1.383 . S
C930 C935 1.382 . S
C931 H902 0.950 . S
C931 C930 1.383 . S
C931 C932 1.395 . S
C932 H903 0.950 . S
C932 C931 1.395 . S
C932 C933 1.288 . S
C933 C932 1.288 . S
C933 C934 1.392 . S
C934 H904 0.951 . S
C934 C933 1.392 . S
C934 C935 1.392 . S
C935 H905 0.949 . S
C935 C930 1.382 . S
C935 C934 1.392 . S
H936 C955 0.949 . S
H937 C956 0.950 . S
H938 C958 0.950 . S
H939 C959 0.950 . S
H940 C961 0.950 . S
H941 C964 0.950 . S
H942 C965 0.950 . S
H943 C967 0.951 . S
H944 C968 0.949 . S
H945 C970 0.949 . S
H946 C971 0.950 . S
H947 C973 0.950 . S
H948 C974 0.950 . S
H949 C976 0.950 . S
H950 C979 0.950 . S
H951 C980 0.950 . S
H952 C982 0.951 . S
H953 C983 0.949 . S
C954 C955 1.376 . S
C954 C959 1.386 . S
C954 C960 1.483 . S
C955 H936 0.949 . S
C955 C954 1.376 . S
C955 C956 1.397 . S
C956 H937 0.950 . S
C956 C955 1.397 . S
C956 C957 1.391 . S
C957 C956 1.391 . S
C957 C958 1.405 . S
C958 H938 0.950 . S
C958 C957 1.405 . S
C958 C959 1.367 . S
C959 H939 0.950 . S
C959 C954 1.386 . S
C959 C958 1.367 . S
C960 C954 1.483 . S
C960 C961 1.382 . S
C960 C962 1.403 . S
C961 H940 0.950 . S
C961 C960 1.382 . S
C961 C977 1.411 . S
C962 C960 1.403 . S
C962 C963 1.489 . S
C962 C976 1.411 . S
C963 C962 1.489 . S
C963 C964 1.383 . S
C963 C968 1.382 . S
C964 H941 0.950 . S
C964 C963 1.383 . S
C964 C965 1.395 . S
C965 H942 0.950 . S
C965 C964 1.395 . S
C965 C966 1.288 . S
C966 C965 1.288 . S
C966 C967 1.392 . S
C967 H943 0.951 . S
C967 C966 1.392 . S
C967 C968 1.392 . S
C968 H944 0.949 . S
C968 C963 1.382 . S
C968 C967 1.392 . S
C969 C970 1.376 . S
C969 C974 1.386 . S
C969 C975 1.483 . S
C970 H945 0.949 . S
C970 C969 1.376 . S
C970 C971 1.397 . S
C971 H946 0.950 . S
C971 C970 1.397 . S
C971 C972 1.391 . S
C972 C971 1.391 . S
C972 C973 1.405 . S
C973 H947 0.950 . S
C973 C972 1.405 . S
C973 C974 1.367 . S
C974 H948 0.950 . S
C974 C969 1.386 . S
C974 C973 1.367 . S
C975 C969 1.483 . S
C975 C976 1.382 . S
C975 C977 1.403 . S
C976 H949 0.950 . S
C976 C962 1.411 . S
C976 C975 1.382 . S
C977 C961 1.411 . S
C977 C975 1.403 . S
C977 C978 1.489 . S
C978 C977 1.489 . S
C978 C979 1.383 . S
C978 C983 1.382 . S
C979 H950 0.950 . S
C979 C978 1.383 . S
C979 C980 1.395 . S
C980 H951 0.950 . S
C980 C979 1.395 . S
C980 C981 1.288 . S
C981 C980 1.288 . S
C981 C982 1.392 . S
C982 H952 0.951 . S
C982 C981 1.392 . S
C982 C983 1.392 . S
C983 H953 0.949 . S
C983 C978 1.382 . S
C983 C982 1.392 . S
H984 C1003 0.949 . S
H985 C1004 0.950 . S
H986 C1006 0.950 . S
H987 C1007 0.950 . S
H988 C1009 0.950 . S
H989 C1012 0.950 . S
H990 C1013 0.950 . S
H991 C1015 0.951 . S
H992 C1016 0.949 . S
H993 C1018 0.949 . S
H994 C1019 0.950 . S
H995 C1021 0.950 . S
H996 C1022 0.950 . S
H997 C1024 0.950 . S
H998 C1027 0.950 . S
H999 C1028 0.950 . S
H1000 C1030 0.951 . S
H1001 C1031 0.949 . S
C1002 C1003 1.376 . S
C1002 C1007 1.386 . S
C1002 C1008 1.483 . S
C1003 H984 0.949 . S
C1003 C1002 1.376 . S
C1003 C1004 1.397 . S
C1004 H985 0.950 . S
C1004 C1003 1.397 . S
C1004 C1005 1.391 . S
C1005 C1004 1.391 . S
C1005 C1006 1.405 . S
C1006 H986 0.950 . S
C1006 C1005 1.405 . S
C1006 C1007 1.367 . S
C1007 H987 0.950 . S
C1007 C1002 1.386 . S
C1007 C1006 1.367 . S
C1008 C1002 1.483 . S
C1008 C1009 1.382 . S
C1008 C1010 1.403 . S
C1009 H988 0.950 . S
C1009 C1008 1.382 . S
C1009 C1025 1.411 . S
C1010 C1008 1.403 . S
C1010 C1011 1.489 . S
C1010 C1024 1.411 . S
C1011 C1010 1.489 . S
C1011 C1012 1.383 . S
C1011 C1016 1.382 . S
C1012 H989 0.950 . S
C1012 C1011 1.383 . S
C1012 C1013 1.395 . S
C1013 H990 0.950 . S
C1013 C1012 1.395 . S
C1013 C1014 1.288 . S
C1014 C1013 1.288 . S
C1014 C1015 1.392 . S
C1015 H991 0.951 . S
C1015 C1014 1.392 . S
C1015 C1016 1.392 . S
C1016 H992 0.949 . S
C1016 C1011 1.382 . S
C1016 C1015 1.392 . S
C1017 C1018 1.376 . S
C1017 C1022 1.386 . S
C1017 C1023 1.483 . S
C1018 H993 0.949 . S
C1018 C1017 1.376 . S
C1018 C1019 1.397 . S
C1019 H994 0.950 . S
C1019 C1018 1.397 . S
C1019 C1020 1.391 . S
C1020 C1019 1.391 . S
C1020 C1021 1.405 . S
C1021 H995 0.950 . S
C1021 C1020 1.405 . S
C1021 C1022 1.367 . S
C1022 H996 0.950 . S
C1022 C1017 1.386 . S
C1022 C1021 1.367 . S
C1023 C1017 1.483 . S
C1023 C1024 1.382 . S
C1023 C1025 1.403 . S
C1024 H997 0.950 . S
C1024 C1010 1.411 . S
C1024 C1023 1.382 . S
C1025 C1009 1.411 . S
C1025 C1023 1.403 . S
C1025 C1026 1.489 . S
C1026 C1025 1.489 . S
C1026 C1027 1.383 . S
C1026 C1031 1.382 . S
C1027 H998 0.950 . S
C1027 C1026 1.383 . S
C1027 C1028 1.395 . S
C1028 H999 0.950 . S
C1028 C1027 1.395 . S
C1028 C1029 1.288 . S
C1029 C1028 1.288 . S
C1029 C1030 1.392 . S
C1030 H1000 0.951 . S
C1030 C1029 1.392 . S
C1030 C1031 1.392 . S
C1031 H1001 0.949 . S
C1031 C1026 1.382 . S
C1031 C1030 1.392 . S
H1032 C1051 0.949 . S
H1033 C1052 0.950 . S
H1034 C1054 0.950 . S
H1035 C1055 0.950 . S
H1036 C1057 0.950 . S
H1037 C1060 0.950 . S
H1038 C1061 0.950 . S
H1039 C1063 0.951 . S
H1040 C1064 0.949 . S
H1041 C1066 0.949 . S
H1042 C1067 0.950 . S
H1043 C1069 0.950 . S
H1044 C1070 0.950 . S
H1045 C1072 0.950 . S
H1046 C1075 0.950 . S
H1047 C1076 0.950 . S
H1048 C1078 0.951 . S
H1049 C1079 0.949 . S
C1050 C1051 1.376 . S
C1050 C1055 1.386 . S
C1050 C1056 1.483 . S
C1051 H1032 0.949 . S
C1051 C1050 1.376 . S
C1051 C1052 1.397 . S
C1052 H1033 0.950 . S
C1052 C1051 1.397 . S
C1052 C1053 1.391 . S
C1053 C1052 1.391 . S
C1053 C1054 1.405 . S
C1054 H1034 0.950 . S
C1054 C1053 1.405 . S
C1054 C1055 1.367 . S
C1055 H1035 0.950 . S
C1055 C1050 1.386 . S
C1055 C1054 1.367 . S
C1056 C1050 1.483 . S
C1056 C1057 1.382 . S
C1056 C1058 1.403 . S
C1057 H1036 0.950 . S
C1057 C1056 1.382 . S
C1057 C1073 1.411 . S
C1058 C1056 1.403 . S
C1058 C1059 1.489 . S
C1058 C1072 1.411 . S
C1059 C1058 1.489 . S
C1059 C1060 1.383 . S
C1059 C1064 1.382 . S
C1060 H1037 0.950 . S
C1060 C1059 1.383 . S
C1060 C1061 1.395 . S
C1061 H1038 0.950 . S
C1061 C1060 1.395 . S
C1061 C1062 1.288 . S
C1062 C1061 1.288 . S
C1062 C1063 1.392 . S
C1063 H1039 0.951 . S
C1063 C1062 1.392 . S
C1063 C1064 1.392 . S
C1064 H1040 0.949 . S
C1064 C1059 1.382 . S
C1064 C1063 1.392 . S
C1065 C1066 1.376 . S
C1065 C1070 1.386 . S
C1065 C1071 1.483 . S
C1066 H1041 0.949 . S
C1066 C1065 1.376 . S
C1066 C1067 1.397 . S
C1067 H1042 0.950 . S
C1067 C1066 1.397 . S
C1067 C1068 1.391 . S
C1068 C1067 1.391 . S
C1068 C1069 1.405 . S
C1069 H1043 0.950 . S
C1069 C1068 1.405 . S
C1069 C1070 1.367 . S
C1070 H1044 0.950 . S
C1070 C1065 1.386 . S
C1070 C1069 1.367 . S
C1071 C1065 1.483 . S
C1071 C1072 1.382 . S
C1071 C1073 1.403 . S
C1072 H1045 0.950 . S
C1072 C1058 1.411 . S
C1072 C1071 1.382 . S
C1073 C1057 1.411 . S
C1073 C1071 1.403 . S
C1073 C1074 1.489 . S
C1074 C1073 1.489 . S
C1074 C1075 1.383 . S
C1074 C1079 1.382 . S
C1075 H1046 0.950 . S
C1075 C1074 1.383 . S
C1075 C1076 1.395 . S
C1076 H1047 0.950 . S
C1076 C1075 1.395 . S
C1076 C1077 1.288 . S
C1077 C1076 1.288 . S
C1077 C1078 1.392 . S
C1078 H1048 0.951 . S
C1078 C1077 1.392 . S
C1078 C1079 1.392 . S
C1079 H1049 0.949 . S
C1079 C1074 1.382 . S
C1079 C1078 1.392 . S
H1080 C1099 0.949 . S
H1081 C1100 0.950 . S
H1082 C1102 0.950 . S
H1083 C1103 0.950 . S
H1084 C1105 0.950 . S
H1085 C1108 0.950 . S
H1086 C1109 0.950 . S
H1087 C1111 0.951 . S
H1088 C1112 0.949 . S
H1089 C1114 0.949 . S
H1090 C1115 0.950 . S
H1091 C1117 0.950 . S
H1092 C1118 0.950 . S
H1093 C1120 0.950 . S
H1094 C1123 0.950 . S
H1095 C1124 0.950 . S
H1096 C1126 0.951 . S
H1097 C1127 0.949 . S
C1098 C1099 1.376 . S
C1098 C1103 1.386 1_655 S
C1098 C1104 1.483 . S
C1099 H1080 0.949 . S
C1099 C1098 1.376 . S
C1099 C1100 1.397 . S
C1100 H1081 0.950 . S
C1100 C1099 1.397 . S
C1100 C1101 1.391 . S
C1101 C1100 1.391 . S
C1101 C1102 1.405 1_655 S
C1102 H1082 0.950 . S
C1102 C1101 1.405 1_455 S
C1102 C1103 1.367 . S
C1103 H1083 0.950 . S
C1103 C1098 1.386 1_455 S
C1103 C1102 1.367 . S
C1104 C1098 1.483 . S
C1104 C1105 1.382 . S
C1104 C1106 1.403 1_655 S
C1105 H1084 0.950 . S
C1105 C1104 1.382 . S
C1105 C1121 1.411 . S
C1106 C1104 1.403 1_455 S
C1106 C1107 1.489 . S
C1106 C1120 1.411 . S
C1107 C1106 1.489 . S
C1107 C1108 1.383 1_455 S
C1107 C1112 1.382 . S
C1108 H1085 0.950 . S
C1108 C1107 1.383 1_655 S
C1108 C1109 1.395 . S
C1109 H1086 0.950 . S
C1109 C1108 1.395 . S
C1109 C1110 1.288 1_655 S
C1110 C1109 1.288 1_455 S
C1110 C1111 1.392 . S
C1111 H1087 0.951 . S
C1111 C1110 1.392 . S
C1111 C1112 1.392 . S
C1112 H1088 0.949 . S
C1112 C1107 1.382 . S
C1112 C1111 1.392 . S
C1113 C1114 1.376 . S
C1113 C1118 1.386 1_455 S
C1113 C1119 1.483 . S
C1114 H1089 0.949 . S
C1114 C1113 1.376 . S
C1114 C1115 1.397 . S
C1115 H1090 0.950 . S
C1115 C1114 1.397 . S
C1115 C1116 1.391 . S
C1116 C1115 1.391 . S
C1116 C1117 1.405 1_455 S
C1117 H1091 0.950 . S
C1117 C1116 1.405 1_655 S
C1117 C1118 1.367 . S
C1118 H1092 0.950 . S
C1118 C1113 1.386 1_655 S
C1118 C1117 1.367 . S
C1119 C1113 1.483 . S
C1119 C1120 1.382 . S
C1119 C1121 1.403 1_455 S
C1120 H1093 0.950 . S
C1120 C1106 1.411 . S
C1120 C1119 1.382 . S
C1121 C1105 1.411 . S
C1121 C1119 1.403 1_655 S
C1121 C1122 1.489 . S
C1122 C1121 1.489 . S
C1122 C1123 1.383 1_655 S
C1122 C1127 1.382 . S
C1123 H1094 0.950 . S
C1123 C1122 1.383 1_455 S
C1123 C1124 1.395 . S
C1124 H1095 0.950 . S
C1124 C1123 1.395 . S
C1124 C1125 1.288 1_455 S
C1125 C1124 1.288 1_655 S
C1125 C1126 1.392 . S
C1126 H1096 0.951 . S
C1126 C1125 1.392 . S
C1126 C1127 1.392 . S
C1127 H1097 0.949 . S
C1127 C1122 1.382 . S
C1127 C1126 1.392 . S
H1128 C1147 0.949 . S
H1129 C1148 0.950 . S
H1130 C1150 0.950 . S
H1131 C1151 0.950 . S
H1132 C1153 0.950 . S
H1133 C1156 0.950 . S
H1134 C1157 0.950 . S
H1135 C1159 0.951 . S
H1136 C1160 0.949 . S
H1137 C1162 0.949 . S
H1138 C1163 0.950 . S
H1139 C1165 0.950 . S
H1140 C1166 0.950 . S
H1141 C1168 0.950 . S
H1142 C1171 0.950 . S
H1143 C1172 0.950 . S
H1144 C1174 0.951 . S
H1145 C1175 0.949 . S
C1146 C1147 1.376 . S
C1146 C1151 1.386 . S
C1146 C1152 1.483 . S
C1147 H1128 0.949 . S
C1147 C1146 1.376 . S
C1147 C1148 1.397 . S
C1148 H1129 0.950 . S
C1148 C1147 1.397 . S
C1148 C1149 1.391 . S
C1149 C1148 1.391 . S
C1149 C1150 1.405 . S
C1150 H1130 0.950 . S
C1150 C1149 1.405 . S
C1150 C1151 1.367 . S
C1151 H1131 0.950 . S
C1151 C1146 1.386 . S
C1151 C1150 1.367 . S
C1152 C1146 1.483 . S
C1152 C1153 1.382 . S
C1152 C1154 1.403 . S
C1153 H1132 0.950 . S
C1153 C1152 1.382 . S
C1153 C1169 1.411 . S
C1154 C1152 1.403 . S
C1154 C1155 1.489 . S
C1154 C1168 1.411 . S
C1155 C1154 1.489 . S
C1155 C1156 1.383 . S
C1155 C1160 1.382 . S
C1156 H1133 0.950 . S
C1156 C1155 1.383 . S
C1156 C1157 1.395 . S
C1157 H1134 0.950 . S
C1157 C1156 1.395 . S
C1157 C1158 1.288 . S
C1158 C1157 1.288 . S
C1158 C1159 1.392 . S
C1159 H1135 0.951 . S
C1159 C1158 1.392 . S
C1159 C1160 1.392 . S
C1160 H1136 0.949 . S
C1160 C1155 1.382 . S
C1160 C1159 1.392 . S
C1161 C1162 1.376 . S
C1161 C1166 1.386 . S
C1161 C1167 1.483 . S
C1162 H1137 0.949 . S
C1162 C1161 1.376 . S
C1162 C1163 1.397 . S
C1163 H1138 0.950 . S
C1163 C1162 1.397 . S
C1163 C1164 1.391 . S
C1164 C1163 1.391 . S
C1164 C1165 1.405 . S
C1165 H1139 0.950 . S
C1165 C1164 1.405 . S
C1165 C1166 1.367 . S
C1166 H1140 0.950 . S
C1166 C1161 1.386 . S
C1166 C1165 1.367 . S
C1167 C1161 1.483 . S
C1167 C1168 1.382 . S
C1167 C1169 1.403 . S
C1168 H1141 0.950 . S
C1168 C1154 1.411 . S
C1168 C1167 1.382 . S
C1169 C1153 1.411 . S
C1169 C1167 1.403 . S
C1169 C1170 1.489 . S
C1170 C1169 1.489 . S
C1170 C1171 1.383 . S
C1170 C1175 1.382 . S
C1171 H1142 0.950 . S
C1171 C1170 1.383 . S
C1171 C1172 1.395 . S
C1172 H1143 0.950 . S
C1172 C1171 1.395 . S
C1172 C1173 1.288 . S
C1173 C1172 1.288 . S
C1173 C1174 1.392 . S
C1174 H1144 0.951 . S
C1174 C1173 1.392 . S
C1174 C1175 1.392 . S
C1175 H1145 0.949 . S
C1175 C1170 1.382 . S
C1175 C1174 1.392 . S
H1176 C1195 0.949 . S
H1177 C1196 0.950 . S
H1178 C1198 0.950 . S
H1179 C1199 0.950 . S
H1180 C1201 0.950 . S
H1181 C1204 0.950 . S
H1182 C1205 0.950 . S
H1183 C1207 0.951 . S
H1184 C1208 0.949 . S
H1185 C1210 0.949 . S
H1186 C1211 0.950 . S
H1187 C1213 0.950 . S
H1188 C1214 0.950 . S
H1189 C1216 0.950 . S
H1190 C1219 0.950 . S
H1191 C1220 0.950 . S
H1192 C1222 0.951 . S
H1193 C1223 0.949 . S
C1194 C1195 1.376 . S
C1194 C1199 1.386 1_545 S
C1194 C1200 1.483 . S
C1195 H1176 0.949 . S
C1195 C1194 1.376 . S
C1195 C1196 1.397 . S
C1196 H1177 0.950 . S
C1196 C1195 1.397 . S
C1196 C1197 1.391 . S
C1197 C1196 1.391 . S
C1197 C1198 1.405 1_545 S
C1198 H1178 0.950 . S
C1198 C1197 1.405 1_565 S
C1198 C1199 1.367 . S
C1199 H1179 0.950 . S
C1199 C1194 1.386 1_565 S
C1199 C1198 1.367 . S
C1200 C1194 1.483 . S
C1200 C1201 1.382 . S
C1200 C1202 1.403 1_545 S
C1201 H1180 0.950 . S
C1201 C1200 1.382 . S
C1201 C1217 1.411 . S
C1202 C1200 1.403 1_565 S
C1202 C1203 1.489 . S
C1202 C1216 1.411 . S
C1203 C1202 1.489 . S
C1203 C1204 1.383 1_565 S
C1203 C1208 1.382 . S
C1204 H1181 0.950 . S
C1204 C1203 1.383 1_545 S
C1204 C1205 1.395 . S
C1205 H1182 0.950 . S
C1205 C1204 1.395 . S
C1205 C1206 1.288 1_545 S
C1206 C1205 1.288 1_565 S
C1206 C1207 1.392 . S
C1207 H1183 0.951 . S
C1207 C1206 1.392 . S
C1207 C1208 1.392 . S
C1208 H1184 0.949 . S
C1208 C1203 1.382 . S
C1208 C1207 1.392 . S
C1209 C1210 1.376 . S
C1209 C1214 1.386 1_565 S
C1209 C1215 1.483 . S
C1210 H1185 0.949 . S
C1210 C1209 1.376 . S
C1210 C1211 1.397 . S
C1211 H1186 0.950 . S
C1211 C1210 1.397 . S
C1211 C1212 1.391 . S
C1212 C1211 1.391 . S
C1212 C1213 1.405 1_565 S
C1213 H1187 0.950 . S
C1213 C1212 1.405 1_545 S
C1213 C1214 1.367 . S
C1214 H1188 0.950 . S
C1214 C1209 1.386 1_545 S
C1214 C1213 1.367 . S
C1215 C1209 1.483 . S
C1215 C1216 1.382 . S
C1215 C1217 1.403 1_565 S
C1216 H1189 0.950 . S
C1216 C1202 1.411 . S
C1216 C1215 1.382 . S
C1217 C1201 1.411 . S
C1217 C1215 1.403 1_545 S
C1217 C1218 1.489 . S
C1218 C1217 1.489 . S
C1218 C1219 1.383 1_545 S
C1218 C1223 1.382 . S
C1219 H1190 0.950 . S
C1219 C1218 1.383 1_565 S
C1219 C1220 1.395 . S
C1220 H1191 0.950 . S
C1220 C1219 1.395 . S
C1220 C1221 1.288 1_565 S
C1221 C1220 1.288 1_545 S
C1221 C1222 1.392 . S
C1222 H1192 0.951 . S
C1222 C1221 1.392 . S
C1222 C1223 1.392 . S
C1223 H1193 0.949 . S
C1223 C1218 1.382 . S
C1223 C1222 1.392 . S
H1224 C1243 0.949 . S
H1225 C1244 0.950 . S
H1226 C1246 0.950 . S
H1227 C1247 0.950 . S
H1228 C1249 0.950 . S
H1229 C1252 0.950 . S
H1230 C1253 0.950 . S
H1231 C1255 0.951 . S
H1232 C1256 0.949 . S
H1233 C1258 0.949 . S
H1234 C1259 0.950 . S
H1235 C1261 0.950 . S
H1236 C1262 0.950 . S
H1237 C1264 0.950 . S
H1238 C1267 0.950 . S
H1239 C1268 0.950 . S
H1240 C1270 0.951 . S
H1241 C1271 0.949 . S
C1242 C1243 1.378 . S
C1242 C1247 1.385 1_545 S
C1242 C1248 1.505 . S
C1243 H1224 0.949 . S
C1243 C1242 1.378 . S
C1243 C1244 1.397 . S
C1244 H1225 0.950 . S
C1244 C1243 1.397 . S
C1244 C1245 1.391 1_545 S
C1245 C1244 1.391 1_565 S
C1245 C1246 1.405 . S
C1246 H1226 0.950 . S
C1246 C1245 1.405 . S
C1246 C1247 1.367 . S
C1247 H1227 0.950 . S
C1247 C1242 1.385 1_565 S
C1247 C1246 1.367 . S
C1248 C1242 1.505 . S
C1248 C1249 1.361 . S
C1248 C1250 1.398 1_545 S
C1249 H1228 0.950 . S
C1249 C1248 1.361 . S
C1249 C1265 1.447 . S
C1250 C1248 1.398 1_565 S
C1250 C1251 1.486 . S
C1250 C1264 1.435 . S
C1251 C1250 1.486 . S
C1251 C1252 1.342 1_565 S
C1251 C1256 1.404 . S
C1252 H1229 0.950 . S
C1252 C1251 1.342 1_545 S
C1252 C1253 1.395 . S
C1253 H1230 0.950 . S
C1253 C1252 1.395 . S
C1253 C1254 1.330 . S
C1254 C1253 1.330 . S
C1254 C1255 1.312 1_545 S
C1255 H1231 0.951 . S
C1255 C1254 1.312 1_565 S
C1255 C1256 1.392 . S
C1256 H1232 0.949 . S
C1256 C1251 1.404 . S
C1256 C1255 1.392 . S
C1257 C1258 1.378 1_545 S
C1257 C1262 1.385 . S
C1257 C1263 1.496 1_545 S
C1258 H1233 0.949 . S
C1258 C1257 1.378 1_565 S
C1258 C1259 1.397 . S
C1259 H1234 0.950 . S
C1259 C1258 1.397 . S
C1259 C1260 1.391 1_565 S
C1260 C1259 1.391 1_545 S
C1260 C1261 1.405 . S
C1261 H1235 0.950 . S
C1261 C1260 1.405 . S
C1261 C1262 1.367 . S
C1262 H1236 0.950 . S
C1262 C1257 1.385 . S
C1262 C1261 1.367 . S
C1263 C1257 1.496 1_565 S
C1263 C1264 1.368 . S
C1263 C1265 1.398 1_565 S
C1264 H1237 0.950 . S
C1264 C1250 1.435 . S
C1264 C1263 1.368 . S
C1265 C1249 1.447 . S
C1265 C1263 1.398 1_545 S
C1265 C1266 1.486 . S
C1266 C1265 1.486 . S
C1266 C1267 1.321 1_545 S
C1266 C1271 1.417 . S
C1267 H1238 0.950 . S
C1267 C1266 1.321 1_565 S
C1267 C1268 1.395 . S
C1268 H1239 0.950 . S
C1268 C1267 1.395 . S
C1268 C1269 1.319 . S
C1269 C1268 1.319 . S
C1269 C1270 1.333 1_565 S
C1270 H1240 0.951 . S
C1270 C1269 1.333 1_545 S
C1270 C1271 1.392 . S
C1271 H1241 0.949 . S
C1271 C1266 1.417 . S
C1271 C1270 1.392 . S
H1272 C1291 0.949 . S
H1273 C1292 0.950 . S
H1274 C1294 0.950 . S
H1275 C1295 0.950 . S
H1276 C1297 0.950 . S
H1277 C1300 0.950 . S
H1278 C1301 0.950 . S
H1279 C1303 0.951 . S
H1280 C1304 0.949 . S
H1281 C1306 0.949 . S
H1282 C1307 0.950 . S
H1283 C1309 0.950 . S
H1284 C1310 0.950 . S
H1285 C1312 0.950 . S
H1286 C1315 0.950 . S
H1287 C1316 0.950 . S
H1288 C1318 0.951 . S
H1289 C1319 0.949 . S
C1290 C1291 1.376 . S
C1290 C1295 1.386 1_455 S
C1290 C1296 1.483 . S
C1291 H1272 0.949 . S
C1291 C1290 1.376 . S
C1291 C1292 1.397 . S
C1292 H1273 0.950 . S
C1292 C1291 1.397 . S
C1292 C1293 1.391 . S
C1293 C1292 1.391 . S
C1293 C1294 1.405 1_455 S
C1294 H1274 0.950 . S
C1294 C1293 1.405 1_655 S
C1294 C1295 1.367 . S
C1295 H1275 0.950 . S
C1295 C1290 1.386 1_655 S
C1295 C1294 1.367 . S
C1296 C1290 1.483 . S
C1296 C1297 1.382 . S
C1296 C1298 1.403 1_455 S
C1297 H1276 0.950 . S
C1297 C1296 1.382 . S
C1297 C1313 1.411 . S
C1298 C1296 1.403 1_655 S
C1298 C1299 1.489 . S
C1298 C1312 1.411 . S
C1299 C1298 1.489 . S
C1299 C1300 1.383 1_655 S
C1299 C1304 1.382 . S
C1300 H1277 0.950 . S
C1300 C1299 1.383 1_455 S
C1300 C1301 1.395 . S
C1301 H1278 0.950 . S
C1301 C1300 1.395 . S
C1301 C1302 1.288 1_455 S
C1302 C1301 1.288 1_655 S
C1302 C1303 1.392 . S
C1303 H1279 0.951 . S
C1303 C1302 1.392 . S
C1303 C1304 1.392 . S
C1304 H1280 0.949 . S
C1304 C1299 1.382 . S
C1304 C1303 1.392 . S
C1305 C1306 1.376 . S
C1305 C1310 1.386 1_655 S
C1305 C1311 1.483 . S
C1306 H1281 0.949 . S
C1306 C1305 1.376 . S
C1306 C1307 1.397 . S
C1307 H1282 0.950 . S
C1307 C1306 1.397 . S
C1307 C1308 1.391 . S
C1308 C1307 1.391 . S
C1308 C1309 1.405 1_655 S
C1309 H1283 0.950 . S
C1309 C1308 1.405 1_455 S
C1309 C1310 1.367 . S
C1310 H1284 0.950 . S
C1310 C1305 1.386 1_455 S
C1310 C1309 1.367 . S
C1311 C1305 1.483 . S
C1311 C1312 1.382 . S
C1311 C1313 1.403 1_655 S
C1312 H1285 0.950 . S
C1312 C1298 1.411 . S
C1312 C1311 1.382 . S
C1313 C1297 1.411 . S
C1313 C1311 1.403 1_455 S
C1313 C1314 1.489 . S
C1314 C1313 1.489 . S
C1314 C1315 1.383 1_455 S
C1314 C1319 1.382 . S
C1315 H1286 0.950 . S
C1315 C1314 1.383 1_655 S
C1315 C1316 1.395 . S
C1316 H1287 0.950 . S
C1316 C1315 1.395 . S
C1316 C1317 1.288 1_655 S
C1317 C1316 1.288 1_455 S
C1317 C1318 1.392 . S
C1318 H1288 0.951 . S
C1318 C1317 1.392 . S
C1318 C1319 1.392 . S
C1319 H1289 0.949 . S
C1319 C1314 1.382 . S
C1319 C1318 1.392 . S
H1320 C1339 0.949 . S
H1321 C1340 0.950 . S
H1322 C1342 0.950 . S
H1323 C1343 0.950 . S
H1324 C1345 0.950 . S
H1325 C1348 0.950 . S
H1326 C1349 0.950 . S
H1327 C1351 0.951 . S
H1328 C1352 0.949 . S
H1329 C1354 0.949 . S
H1330 C1355 0.950 . S
H1331 C1357 0.950 . S
H1332 C1358 0.950 . S
H1333 C1360 0.950 . S
H1334 C1363 0.950 . S
H1335 C1364 0.950 . S
H1336 C1366 0.951 . S
H1337 C1367 0.949 . S
C1338 C1339 1.376 . S
C1338 C1343 1.386 . S
C1338 C1344 1.483 . S
C1339 H1320 0.949 . S
C1339 C1338 1.376 . S
C1339 C1340 1.397 . S
C1340 H1321 0.950 . S
C1340 C1339 1.397 . S
C1340 C1341 1.391 . S
C1341 C1340 1.391 . S
C1341 C1342 1.405 . S
C1342 H1322 0.950 . S
C1342 C1341 1.405 . S
C1342 C1343 1.367 . S
C1343 H1323 0.950 . S
C1343 C1338 1.386 . S
C1343 C1342 1.367 . S
C1344 C1338 1.483 . S
C1344 C1345 1.382 . S
C1344 C1346 1.403 . S
C1345 H1324 0.950 . S
C1345 C1344 1.382 . S
C1345 C1361 1.411 . S
C1346 C1344 1.403 . S
C1346 C1347 1.489 . S
C1346 C1360 1.411 . S
C1347 C1346 1.489 . S
C1347 C1348 1.383 . S
C1347 C1352 1.382 . S
C1348 H1325 0.950 . S
C1348 C1347 1.383 . S
C1348 C1349 1.395 . S
C1349 H1326 0.950 . S
C1349 C1348 1.395 . S
C1349 C1350 1.288 . S
C1350 C1349 1.288 . S
C1350 C1351 1.392 . S
C1351 H1327 0.951 . S
C1351 C1350 1.392 . S
C1351 C1352 1.392 . S
C1352 H1328 0.949 . S
C1352 C1347 1.382 . S
C1352 C1351 1.392 . S
C1353 C1354 1.376 . S
C1353 C1358 1.386 . S
C1353 C1359 1.483 . S
C1354 H1329 0.949 . S
C1354 C1353 1.376 . S
C1354 C1355 1.397 . S
C1355 H1330 0.950 . S
C1355 C1354 1.397 . S
C1355 C1356 1.391 . S
C1356 C1355 1.391 . S
C1356 C1357 1.405 . S
C1357 H1331 0.950 . S
C1357 C1356 1.405 . S
C1357 C1358 1.367 . S
C1358 H1332 0.950 . S
C1358 C1353 1.386 . S
C1358 C1357 1.367 . S
C1359 C1353 1.483 . S
C1359 C1360 1.382 . S
C1359 C1361 1.403 . S
C1360 H1333 0.950 . S
C1360 C1346 1.411 . S
C1360 C1359 1.382 . S
C1361 C1345 1.411 . S
C1361 C1359 1.403 . S
C1361 C1362 1.489 . S
C1362 C1361 1.489 . S
C1362 C1363 1.383 . S
C1362 C1367 1.382 . S
C1363 H1334 0.950 . S
C1363 C1362 1.383 . S
C1363 C1364 1.395 . S
C1364 H1335 0.950 . S
C1364 C1363 1.395 . S
C1364 C1365 1.288 . S
C1365 C1364 1.288 . S
C1365 C1366 1.392 . S
C1366 H1336 0.951 . S
C1366 C1365 1.392 . S
C1366 C1367 1.392 . S
C1367 H1337 0.949 . S
C1367 C1362 1.382 . S
C1367 C1366 1.392 . S
H1368 C1387 0.949 . S
H1369 C1388 0.950 . S
H1370 C1390 0.950 . S
H1371 C1391 0.950 . S
H1372 C1393 0.950 . S
H1373 C1396 0.950 . S
H1374 C1397 0.950 . S
H1375 C1399 0.951 . S
H1376 C1400 0.949 . S
H1377 C1402 0.949 . S
H1378 C1403 0.950 . S
H1379 C1405 0.950 . S
H1380 C1406 0.950 . S
H1381 C1408 0.950 . S
H1382 C1411 0.950 . S
H1383 C1412 0.950 . S
H1384 C1414 0.951 . S
H1385 C1415 0.949 . S
C1386 C1387 1.376 . S
C1386 C1391 1.386 . S
C1386 C1392 1.483 . S
C1387 H1368 0.949 . S
C1387 C1386 1.376 . S
C1387 C1388 1.397 . S
C1388 H1369 0.950 . S
C1388 C1387 1.397 . S
C1388 C1389 1.391 . S
C1389 C1388 1.391 . S
C1389 C1390 1.405 . S
C1390 H1370 0.950 . S
C1390 C1389 1.405 . S
C1390 C1391 1.367 . S
C1391 H1371 0.950 . S
C1391 C1386 1.386 . S
C1391 C1390 1.367 . S
C1392 C1386 1.483 . S
C1392 C1393 1.382 . S
C1392 C1394 1.403 . S
C1393 H1372 0.950 . S
C1393 C1392 1.382 . S
C1393 C1409 1.411 . S
C1394 C1392 1.403 . S
C1394 C1395 1.489 . S
C1394 C1408 1.411 . S
C1395 C1394 1.489 . S
C1395 C1396 1.383 . S
C1395 C1400 1.382 . S
C1396 H1373 0.950 . S
C1396 C1395 1.383 . S
C1396 C1397 1.395 . S
C1397 H1374 0.950 . S
C1397 C1396 1.395 . S
C1397 C1398 1.288 . S
C1398 C1397 1.288 . S
C1398 C1399 1.392 . S
C1399 H1375 0.951 . S
C1399 C1398 1.392 . S
C1399 C1400 1.392 . S
C1400 H1376 0.949 . S
C1400 C1395 1.382 . S
C1400 C1399 1.392 . S
C1401 C1402 1.376 . S
C1401 C1406 1.386 . S
C1401 C1407 1.483 . S
C1402 H1377 0.949 . S
C1402 C1401 1.376 . S
C1402 C1403 1.397 . S
C1403 H1378 0.950 . S
C1403 C1402 1.397 . S
C1403 C1404 1.391 . S
C1404 C1403 1.391 . S
C1404 C1405 1.405 . S
C1405 H1379 0.950 . S
C1405 C1404 1.405 . S
C1405 C1406 1.367 . S
C1406 H1380 0.950 . S
C1406 C1401 1.386 . S
C1406 C1405 1.367 . S
C1407 C1401 1.483 . S
C1407 C1408 1.382 . S
C1407 C1409 1.403 . S
C1408 H1381 0.950 . S
C1408 C1394 1.411 . S
C1408 C1407 1.382 . S
C1409 C1393 1.411 . S
C1409 C1407 1.403 . S
C1409 C1410 1.489 . S
C1410 C1409 1.489 . S
C1410 C1411 1.383 . S
C1410 C1415 1.382 . S
C1411 H1382 0.950 . S
C1411 C1410 1.383 . S
C1411 C1412 1.395 . S
C1412 H1383 0.950 . S
C1412 C1411 1.395 . S
C1412 C1413 1.288 . S
C1413 C1412 1.288 . S
C1413 C1414 1.392 . S
C1414 H1384 0.951 . S
C1414 C1413 1.392 . S
C1414 C1415 1.392 . S
C1415 H1385 0.949 . S
C1415 C1410 1.382 . S
C1415 C1414 1.392 . S
H1416 C1435 0.949 . S
H1417 C1436 0.950 . S
H1418 C1438 0.950 . S
H1419 C1439 0.950 . S
H1420 C1441 0.950 . S
H1421 C1444 0.950 . S
H1422 C1445 0.950 . S
H1423 C1447 0.951 . S
H1424 C1448 0.949 . S
H1425 C1450 0.949 . S
H1426 C1451 0.950 . S
H1427 C1453 0.950 . S
H1428 C1454 0.950 . S
H1429 C1456 0.950 . S
H1430 C1459 0.950 . S
H1431 C1460 0.950 . S
H1432 C1462 0.951 . S
H1433 C1463 0.949 . S
C1434 C1435 1.376 . S
C1434 C1439 1.386 . S
C1434 C1440 1.483 . S
C1435 H1416 0.949 . S
C1435 C1434 1.376 . S
C1435 C1436 1.397 . S
C1436 H1417 0.950 . S
C1436 C1435 1.397 . S
C1436 C1437 1.391 . S
C1437 C1436 1.391 . S
C1437 C1438 1.405 . S
C1438 H1418 0.950 . S
C1438 C1437 1.405 . S
C1438 C1439 1.367 . S
C1439 H1419 0.950 . S
C1439 C1434 1.386 . S
C1439 C1438 1.367 . S
C1440 C1434 1.483 . S
C1440 C1441 1.382 . S
C1440 C1442 1.403 . S
C1441 H1420 0.950 . S
C1441 C1440 1.382 . S
C1441 C1457 1.411 . S
C1442 C1440 1.403 . S
C1442 C1443 1.489 . S
C1442 C1456 1.411 . S
C1443 C1442 1.489 . S
C1443 C1444 1.383 . S
C1443 C1448 1.382 . S
C1444 H1421 0.950 . S
C1444 C1443 1.383 . S
C1444 C1445 1.395 . S
C1445 H1422 0.950 . S
C1445 C1444 1.395 . S
C1445 C1446 1.288 . S
C1446 C1445 1.288 . S
C1446 C1447 1.392 . S
C1447 H1423 0.951 . S
C1447 C1446 1.392 . S
C1447 C1448 1.392 . S
C1448 H1424 0.949 . S
C1448 C1443 1.382 . S
C1448 C1447 1.392 . S
C1449 C1450 1.376 . S
C1449 C1454 1.386 . S
C1449 C1455 1.483 . S
C1450 H1425 0.949 . S
C1450 C1449 1.376 . S
C1450 C1451 1.397 . S
C1451 H1426 0.950 . S
C1451 C1450 1.397 . S
C1451 C1452 1.391 . S
C1452 C1451 1.391 . S
C1452 C1453 1.405 . S
C1453 H1427 0.950 . S
C1453 C1452 1.405 . S
C1453 C1454 1.367 . S
C1454 H1428 0.950 . S
C1454 C1449 1.386 . S
C1454 C1453 1.367 . S
C1455 C1449 1.483 . S
C1455 C1456 1.382 . S
C1455 C1457 1.403 . S
C1456 H1429 0.950 . S
C1456 C1442 1.411 . S
C1456 C1455 1.382 . S
C1457 C1441 1.411 . S
C1457 C1455 1.403 . S
C1457 C1458 1.489 . S
C1458 C1457 1.489 . S
C1458 C1459 1.383 . S
C1458 C1463 1.382 . S
C1459 H1430 0.950 . S
C1459 C1458 1.383 . S
C1459 C1460 1.395 . S
C1460 H1431 0.950 . S
C1460 C1459 1.395 . S
C1460 C1461 1.288 . S
C1461 C1460 1.288 . S
C1461 C1462 1.392 . S
C1462 H1432 0.951 . S
C1462 C1461 1.392 . S
C1462 C1463 1.392 . S
C1463 H1433 0.949 . S
C1463 C1458 1.382 . S
C1463 C1462 1.392 . S
H1464 C1483 0.949 . S
H1465 C1484 0.950 . S
H1466 C1486 0.950 . S
H1467 C1487 0.950 . S
H1468 C1489 0.950 . S
H1469 C1492 0.950 . S
H1470 C1493 0.950 . S
H1471 C1495 0.951 . S
H1472 C1496 0.949 . S
H1473 C1498 0.949 . S
H1474 C1499 0.950 . S
H1475 C1501 0.950 . S
H1476 C1502 0.950 . S
H1477 C1504 0.950 . S
H1478 C1507 0.950 . S
H1479 C1508 0.950 . S
H1480 C1510 0.951 . S
H1481 C1511 0.949 . S
C1482 C1483 1.376 . S
C1482 C1487 1.386 . S
C1482 C1488 1.483 . S
C1483 H1464 0.949 . S
C1483 C1482 1.376 . S
C1483 C1484 1.397 . S
C1484 H1465 0.950 . S
C1484 C1483 1.397 . S
C1484 C1485 1.391 . S
C1485 C1484 1.391 . S
C1485 C1486 1.405 . S
C1486 H1466 0.950 . S
C1486 C1485 1.405 . S
C1486 C1487 1.367 . S
C1487 H1467 0.950 . S
C1487 C1482 1.386 . S
C1487 C1486 1.367 . S
C1488 C1482 1.483 . S
C1488 C1489 1.382 . S
C1488 C1490 1.403 . S
C1489 H1468 0.950 . S
C1489 C1488 1.382 . S
C1489 C1505 1.411 . S
C1490 C1488 1.403 . S
C1490 C1491 1.489 . S
C1490 C1504 1.411 . S
C1491 C1490 1.489 . S
C1491 C1492 1.383 . S
C1491 C1496 1.382 . S
C1492 H1469 0.950 . S
C1492 C1491 1.383 . S
C1492 C1493 1.395 . S
C1493 H1470 0.950 . S
C1493 C1492 1.395 . S
C1493 C1494 1.288 . S
C1494 C1493 1.288 . S
C1494 C1495 1.392 . S
C1495 H1471 0.951 . S
C1495 C1494 1.392 . S
C1495 C1496 1.392 . S
C1496 H1472 0.949 . S
C1496 C1491 1.382 . S
C1496 C1495 1.392 . S
C1497 C1498 1.376 . S
C1497 C1502 1.386 . S
C1497 C1503 1.483 . S
C1498 H1473 0.949 . S
C1498 C1497 1.376 . S
C1498 C1499 1.397 . S
C1499 H1474 0.950 . S
C1499 C1498 1.397 . S
C1499 C1500 1.391 . S
C1500 C1499 1.391 . S
C1500 C1501 1.405 . S
C1501 H1475 0.950 . S
C1501 C1500 1.405 . S
C1501 C1502 1.367 . S
C1502 H1476 0.950 . S
C1502 C1497 1.386 . S
C1502 C1501 1.367 . S
C1503 C1497 1.483 . S
C1503 C1504 1.382 . S
C1503 C1505 1.403 . S
C1504 H1477 0.950 . S
C1504 C1490 1.411 . S
C1504 C1503 1.382 . S
C1505 C1489 1.411 . S
C1505 C1503 1.403 . S
C1505 C1506 1.489 . S
C1506 C1505 1.489 . S
C1506 C1507 1.383 . S
C1506 C1511 1.382 . S
C1507 H1478 0.950 . S
C1507 C1506 1.383 . S
C1507 C1508 1.395 . S
C1508 H1479 0.950 . S
C1508 C1507 1.395 . S
C1508 C1509 1.288 . S
C1509 C1508 1.288 . S
C1509 C1510 1.392 . S
C1510 H1480 0.951 . S
C1510 C1509 1.392 . S
C1510 C1511 1.392 . S
C1511 H1481 0.949 . S
C1511 C1506 1.382 . S
C1511 C1510 1.392 . S
H1512 C1530 0.951 . S
H1513 C1532 0.951 . S
H1514 C1534 0.950 . S
H1515 C1535 0.950 . S
H1516 C1537 0.950 . S
H1517 C1540 0.950 . S
H1518 C1541 0.950 . S
H1519 C1543 0.950 . S
H1520 C1544 0.950 . S
H1521 C1545 0.951 . S
H1522 C1547 0.951 . S
H1523 C1549 0.950 . S
H1524 C1550 0.950 . S
H1525 C1552 0.950 . S
H1526 C1555 0.950 . S
H1527 C1556 0.950 . S
H1528 C1558 0.950 . S
H1529 C1559 0.950 . S
C1530 H1512 0.951 . S
C1530 C1531 1.366 . S
C1530 C1532 1.388 . S
C1531 C1530 1.366 . S
C1531 C1535 1.385 1_655 S
C1532 H1513 0.951 . S
C1532 C1530 1.388 . S
C1532 C1533 1.366 . S
C1533 C1532 1.366 . S
C1533 C1534 1.414 1_655 S
C1533 C1536 1.499 . S
C1534 H1514 0.950 . S
C1534 C1533 1.414 1_455 S
C1534 C1535 1.374 . S
C1535 H1515 0.950 . S
C1535 C1531 1.385 1_455 S
C1535 C1534 1.374 . S
C1536 C1533 1.499 . S
C1536 C1537 1.373 1_655 S
C1536 C1538 1.389 . S
C1537 H1516 0.950 . S
C1537 C1536 1.373 1_455 S
C1537 C1553 1.377 . S
C1538 C1536 1.389 . S
C1538 C1539 1.524 . S
C1538 C1552 1.377 . S
C1539 C1538 1.524 . S
C1539 C1540 1.397 . S
C1539 C1544 1.363 . S
C1540 H1517 0.950 . S
C1540 C1539 1.397 . S
C1540 C1541 1.334 . S
C1541 H1518 0.950 . S
C1541 C1540 1.334 . S
C1541 C1542 1.287 . S
C1542 C1541 1.287 . S
C1542 C1543 1.524 . S
C1542 H1561 0.913 . S
C1543 H1519 0.950 . S
C1543 C1542 1.524 . S
C1543 C1544 1.415 . S
C1544 H1520 0.950 . S
C1544 C1539 1.363 . S
C1544 C1543 1.415 . S
C1545 H1521 0.951 . S
C1545 C1546 1.366 1_455 S
C1545 C1547 1.388 . S
C1546 C1545 1.366 1_655 S
C1546 C1550 1.385 . S
C1547 H1522 0.951 . S
C1547 C1545 1.388 . S
C1547 C1548 1.366 1_455 S
C1548 C1547 1.366 1_655 S
C1548 C1549 1.414 . S
C1548 C1551 1.499 . S
C1549 H1523 0.950 . S
C1549 C1548 1.414 . S
C1549 C1550 1.374 . S
C1550 H1524 0.950 . S
C1550 C1546 1.385 . S
C1550 C1549 1.374 . S
C1551 C1548 1.499 . S
C1551 C1552 1.373 . S
C1551 C1553 1.389 1_655 S
C1552 H1525 0.950 . S
C1552 C1538 1.377 . S
C1552 C1551 1.373 . S
C1553 C1537 1.377 . S
C1553 C1551 1.389 1_455 S
C1553 C1554 1.524 . S
C1554 C1553 1.524 . S
C1554 C1555 1.397 . S
C1554 C1559 1.363 . S
C1555 H1526 0.950 . S
C1555 C1554 1.397 . S
C1555 C1556 1.334 . S
C1556 H1527 0.950 . S
C1556 C1555 1.334 . S
C1556 C1557 1.287 . S
C1557 C1556 1.287 . S
C1557 C1558 1.524 . S
C1557 H1560 0.999 . S
C1558 H1528 0.950 . S
C1558 C1557 1.524 . S
C1558 C1559 1.415 . S
C1559 H1529 0.950 . S
C1559 C1554 1.363 . S
C1559 C1558 1.415 . S
H1560 C1557 0.999 . S
H1561 C1542 0.913 . S
H1562 C1580 0.951 . S
H1563 C1582 0.951 . S
H1564 C1584 0.950 . S
H1565 C1585 0.950 . S
H1566 C1587 0.950 . S
H1567 C1590 0.950 . S
H1568 C1591 0.950 . S
H1569 C1593 0.950 . S
H1570 C1594 0.950 . S
H1571 C1595 0.951 . S
H1572 C1597 0.951 . S
H1573 C1599 0.950 . S
H1574 C1600 0.950 . S
H1575 C1602 0.950 . S
H1576 C1605 0.950 . S
H1577 C1606 0.950 . S
H1578 C1608 0.950 . S
H1579 C1609 0.950 . S
C1580 H1562 0.951 . S
C1580 C1581 1.366 . S
C1580 C1582 1.388 . S
C1581 C1580 1.366 . S
C1581 C1585 1.385 . S
C1582 H1563 0.951 . S
C1582 C1580 1.388 . S
C1582 C1583 1.366 . S
C1583 C1582 1.366 . S
C1583 C1584 1.414 . S
C1583 C1586 1.499 . S
C1584 H1564 0.950 . S
C1584 C1583 1.414 . S
C1584 C1585 1.374 . S
C1585 H1565 0.950 . S
C1585 C1581 1.385 . S
C1585 C1584 1.374 . S
C1586 C1583 1.499 . S
C1586 C1587 1.373 . S
C1586 C1588 1.389 . S
C1587 H1566 0.950 . S
C1587 C1586 1.373 . S
C1587 C1603 1.377 . S
C1588 C1586 1.389 . S
C1588 C1589 1.524 . S
C1588 C1602 1.377 . S
C1589 C1588 1.524 . S
C1589 C1590 1.397 . S
C1589 C1594 1.363 . S
C1590 H1567 0.950 . S
C1590 C1589 1.397 . S
C1590 C1591 1.334 . S
C1591 H1568 0.950 . S
C1591 C1590 1.334 . S
C1591 C1592 1.287 . S
C1592 C1591 1.287 . S
C1592 C1593 1.524 . S
C1592 H1611 0.913 . S
C1593 H1569 0.950 . S
C1593 C1592 1.524 . S
C1593 C1594 1.415 . S
C1594 H1570 0.950 . S
C1594 C1589 1.363 . S
C1594 C1593 1.415 . S
C1595 H1571 0.951 . S
C1595 C1596 1.366 . S
C1595 C1597 1.388 . S
C1596 C1595 1.366 . S
C1596 C1600 1.385 . S
C1597 H1572 0.951 . S
C1597 C1595 1.388 . S
C1597 C1598 1.366 . S
C1598 C1597 1.366 . S
C1598 C1599 1.414 . S
C1598 C1601 1.499 . S
C1599 H1573 0.950 . S
C1599 C1598 1.414 . S
C1599 C1600 1.374 . S
C1600 H1574 0.950 . S
C1600 C1596 1.385 . S
C1600 C1599 1.374 . S
C1601 C1598 1.499 . S
C1601 C1602 1.373 . S
C1601 C1603 1.389 . S
C1602 H1575 0.950 . S
C1602 C1588 1.377 . S
C1602 C1601 1.373 . S
C1603 C1587 1.377 . S
C1603 C1601 1.389 . S
C1603 C1604 1.524 . S
C1604 C1603 1.524 . S
C1604 C1605 1.397 . S
C1604 C1609 1.363 . S
C1605 H1576 0.950 . S
C1605 C1604 1.397 . S
C1605 C1606 1.334 . S
C1606 H1577 0.950 . S
C1606 C1605 1.334 . S
C1606 C1607 1.287 . S
C1607 C1606 1.287 . S
C1607 C1608 1.524 . S
C1607 H1610 0.999 . S
C1608 H1578 0.950 . S
C1608 C1607 1.524 . S
C1608 C1609 1.415 . S
C1609 H1579 0.950 . S
C1609 C1604 1.363 . S
C1609 C1608 1.415 . S
H1610 C1607 0.999 . S
H1611 C1592 0.913 . S
H1612 C1630 0.951 . S
H1613 C1632 0.971 . S
H1614 C1634 0.950 . S
H1615 C1635 0.950 . S
H1616 C1637 0.950 . S
H1617 C1640 0.950 . S
H1618 C1641 0.950 . S
H1619 C1643 0.950 . S
H1620 C1644 0.950 . S
H1621 C1645 0.951 . S
H1622 C1647 0.951 . S
H1623 C1649 0.955 . S
H1624 C1650 0.952 1_565 S
H1625 C1652 0.950 . S
H1626 C1655 0.950 . S
H1627 C1656 0.950 . S
H1628 C1658 0.950 . S
H1629 C1659 0.950 . S
C1630 H1612 0.951 . S
C1630 C1631 1.366 . S
C1630 C1632 1.388 . S
C1631 C1630 1.366 . S
C1631 C1635 1.385 . S
C1632 H1613 0.971 . S
C1632 C1630 1.388 . S
C1632 C1633 1.366 . S
C1633 C1632 1.366 . S
C1633 C1634 1.414 . S
C1633 C1636 1.499 . S
C1634 H1614 0.950 . S
C1634 C1633 1.414 . S
C1634 C1635 1.374 . S
C1635 H1615 0.950 . S
C1635 C1631 1.385 . S
C1635 C1634 1.374 . S
C1636 C1633 1.499 . S
C1636 C1637 1.373 . S
C1636 C1638 1.389 1_545 S
C1637 H1616 0.950 . S
C1637 C1636 1.373 . S
C1637 C1653 1.377 . S
C1638 C1636 1.389 1_565 S
C1638 C1639 1.524 . S
C1638 C1652 1.377 . S
C1639 C1638 1.524 . S
C1639 C1640 1.397 . S
C1639 C1644 1.363 . S
C1640 H1617 0.950 . S
C1640 C1639 1.397 . S
C1640 C1641 1.334 . S
C1641 H1618 0.950 . S
C1641 C1640 1.334 . S
C1641 C1642 1.287 . S
C1642 C1641 1.287 . S
C1642 C1643 1.524 . S
C1642 H1661 0.913 . S
C1643 H1619 0.950 . S
C1643 C1642 1.524 . S
C1643 C1644 1.415 . S
C1644 H1620 0.950 . S
C1644 C1639 1.363 . S
C1644 C1643 1.415 . S
C1645 H1621 0.951 . S
C1645 C1646 1.366 . S
C1645 C1647 1.388 . S
C1646 C1645 1.366 . S
C1646 C1650 1.385 . S
C1647 H1622 0.951 . S
C1647 C1645 1.388 . S
C1647 C1648 1.366 . S
C1648 C1647 1.366 . S
C1648 C1649 1.414 . S
C1648 C1651 1.499 . S
C1649 H1623 0.955 . S
C1649 C1648 1.414 . S
C1649 C1650 1.374 . S
C1650 H1624 0.952 1_545 S
C1650 C1646 1.385 . S
C1650 C1649 1.374 . S
C1651 C1648 1.499 . S
C1651 C1652 1.373 1_545 S
C1651 C1653 1.389 . S
C1652 H1625 0.950 . S
C1652 C1638 1.377 . S
C1652 C1651 1.373 1_565 S
C1653 C1637 1.377 . S
C1653 C1651 1.389 . S
C1653 C1654 1.524 . S
C1654 C1653 1.524 . S
C1654 C1655 1.397 . S
C1654 C1659 1.363 . S
C1655 H1626 0.950 . S
C1655 C1654 1.397 . S
C1655 C1656 1.334 . S
C1656 H1627 0.950 . S
C1656 C1655 1.334 . S
C1656 C1657 1.287 . S
C1657 C1656 1.287 . S
C1657 C1658 1.524 . S
C1657 H1660 0.999 . S
C1658 H1628 0.950 . S
C1658 C1657 1.524 . S
C1658 C1659 1.415 . S
C1659 H1629 0.950 . S
C1659 C1654 1.363 . S
C1659 C1658 1.415 . S
H1660 C1657 0.999 . S
H1661 C1642 0.913 . S
H1662 C1680 0.951 . S
H1663 C1682 0.951 . S
H1664 C1684 0.950 . S
H1665 C1685 0.950 . S
H1666 C1687 0.950 . S
H1667 C1690 0.950 . S
H1668 C1691 0.950 . S
H1669 C1693 0.950 . S
H1670 C1694 0.945 . S
H1671 C1695 0.951 . S
H1672 C1697 0.951 . S
H1673 C1699 0.950 . S
H1674 C1700 0.950 . S
H1675 C1702 0.950 . S
H1676 C1705 0.950 . S
H1677 C1706 0.950 . S
H1678 C1708 0.950 . S
H1679 C1709 0.950 1_565 S
C1680 H1662 0.951 . S
C1680 C1681 1.366 1_545 S
C1680 C1682 1.388 . S
C1681 C1680 1.366 1_565 S
C1681 C1685 1.385 . S
C1682 H1663 0.951 . S
C1682 C1680 1.388 . S
C1682 C1683 1.366 1_545 S
C1683 C1682 1.366 1_565 S
C1683 C1684 1.414 . S
C1683 C1686 1.499 . S
C1684 H1664 0.950 . S
C1684 C1683 1.414 . S
C1684 C1685 1.374 . S
C1685 H1665 0.950 . S
C1685 C1681 1.385 . S
C1685 C1684 1.374 . S
C1686 C1683 1.499 . S
C1686 C1687 1.372 1_565 S
C1686 C1688 1.389 . S
C1687 H1666 0.950 . S
C1687 C1686 1.372 1_545 S
C1687 C1703 1.378 . S
C1688 C1686 1.389 . S
C1688 C1689 1.524 . S
C1688 C1702 1.377 . S
C1689 C1688 1.524 . S
C1689 C1690 1.397 . S
C1689 C1694 1.363 . S
C1690 H1667 0.950 . S
C1690 C1689 1.397 . S
C1690 C1691 1.334 . S
C1691 H1668 0.950 . S
C1691 C1690 1.334 . S
C1691 C1692 1.287 . S
C1692 C1691 1.287 . S
C1692 C1693 1.524 . S
C1692 H1711 0.913 . S
C1693 H1669 0.950 . S
C1693 C1692 1.524 . S
C1693 C1694 1.415 . S
C1694 H1670 0.945 . S
C1694 C1689 1.363 . S
C1694 C1693 1.415 . S
C1695 H1671 0.951 . S
C1695 C1696 1.366 . S
C1695 C1697 1.388 . S
C1696 C1695 1.366 . S
C1696 C1700 1.385 1_565 S
C1697 H1672 0.951 . S
C1697 C1695 1.388 . S
C1697 C1698 1.366 . S
C1698 C1697 1.366 . S
C1698 C1699 1.414 1_565 S
C1698 C1701 1.499 . S
C1699 H1673 0.950 . S
C1699 C1698 1.414 1_545 S
C1699 C1700 1.374 . S
C1700 H1674 0.950 . S
C1700 C1696 1.385 1_545 S
C1700 C1699 1.374 . S
C1701 C1698 1.499 . S
C1701 C1702 1.373 . S
C1701 C1703 1.389 1_565 S
C1702 H1675 0.950 . S
C1702 C1688 1.377 . S
C1702 C1701 1.373 . S
C1703 C1687 1.378 . S
C1703 C1701 1.389 1_545 S
C1703 C1704 1.524 . S
C1704 C1703 1.524 . S
C1704 C1705 1.397 . S
C1704 C1709 1.363 . S
C1705 H1676 0.950 . S
C1705 C1704 1.397 . S
C1705 C1706 1.334 . S
C1706 H1677 0.950 . S
C1706 C1705 1.334 . S
C1706 C1707 1.287 . S
C1707 C1706 1.287 . S
C1707 C1708 1.524 . S
C1707 H1710 0.999 . S
C1708 H1678 0.950 . S
C1708 C1707 1.524 . S
C1708 C1709 1.415 . S
C1709 H1679 0.950 1_545 S
C1709 C1704 1.363 . S
C1709 C1708 1.415 . S
H1710 C1707 0.999 . S
H1711 C1692 0.913 . S
H1712 C1730 0.951 . S
H1713 C1732 0.951 . S
H1714 C1734 0.950 . S
H1715 C1735 0.950 . S
H1716 C1737 0.950 . S
H1717 C1740 0.950 . S
H1718 C1741 0.950 . S
H1719 C1743 0.950 . S
H1720 C1744 0.950 . S
H1721 C1745 0.951 . S
H1722 C1747 0.951 . S
H1723 C1749 0.950 . S
H1724 C1750 0.950 . S
H1725 C1752 0.950 . S
H1726 C1755 0.950 . S
H1727 C1756 0.950 . S
H1728 C1758 0.950 1_655 S
H1729 C1759 0.952 . S
C1730 H1712 0.951 . S
C1730 C1731 1.366 . S
C1730 C1732 1.388 . S
C1731 C1730 1.366 . S
C1731 C1735 1.385 1_455 S
C1732 H1713 0.951 . S
C1732 C1730 1.388 . S
C1732 C1733 1.366 . S
C1733 C1732 1.366 . S
C1733 C1734 1.414 1_455 S
C1733 C1736 1.499 . S
C1734 H1714 0.950 . S
C1734 C1733 1.414 1_655 S
C1734 C1735 1.374 . S
C1735 H1715 0.950 . S
C1735 C1731 1.385 1_655 S
C1735 C1734 1.374 . S
C1736 C1733 1.499 . S
C1736 C1737 1.373 . S
C1736 C1738 1.389 . S
C1737 H1716 0.950 . S
C1737 C1736 1.373 . S
C1737 C1753 1.377 . S
C1738 C1736 1.389 . S
C1738 C1739 1.542 . S
C1738 C1752 1.377 . S
C1739 C1738 1.542 . S
C1739 C1740 1.369 1_455 S
C1739 C1744 1.372 . S
C1740 H1717 0.950 . S
C1740 C1739 1.369 1_655 S
C1740 C1741 1.334 . S
C1741 H1718 0.950 . S
C1741 C1740 1.334 . S
C1741 C1742 1.287 . S
C1742 C1741 1.287 . S
C1742 C1743 1.524 1_655 S
C1742 H1761 0.913 1_556 S
C1743 H1719 0.950 . S
C1743 C1742 1.524 1_455 S
C1743 C1744 1.415 . S
C1744 H1720 0.950 . S
C1744 C1739 1.372 . S
C1744 C1743 1.415 . S
C1745 H1721 0.951 . S
C1745 C1746 1.366 1_655 S
C1745 C1747 1.388 . S
C1746 C1745 1.366 1_455 S
C1746 C1750 1.385 . S
C1747 H1722 0.951 . S
C1747 C1745 1.388 . S
C1747 C1748 1.366 1_655 S
C1748 C1747 1.366 1_455 S
C1748 C1749 1.414 . S
C1748 C1751 1.499 . S
C1749 H1723 0.950 . S
C1749 C1748 1.414 . S
C1749 C1750 1.374 . S
C1750 H1724 0.950 . S
C1750 C1746 1.385 . S
C1750 C1749 1.374 . S
C1751 C1748 1.499 . S
C1751 C1752 1.373 . S
C1751 C1753 1.389 . S
C1752 H1725 0.950 . S
C1752 C1738 1.377 . S
C1752 C1751 1.373 . S
C1753 C1737 1.377 . S
C1753 C1751 1.389 . S
C1753 C1754 1.524 . S
C1754 C1753 1.524 . S
C1754 C1755 1.397 . S
C1754 C1759 1.362 1_455 S
C1755 H1726 0.950 . S
C1755 C1754 1.397 . S
C1755 C1756 1.334 . S
C1756 H1727 0.950 . S
C1756 C1755 1.334 . S
C1756 C1757 1.287 . S
C1757 C1756 1.287 . S
C1757 C1758 1.524 . S
C1757 H1760 0.999 . S
C1758 H1728 0.950 1_455 S
C1758 C1757 1.524 . S
C1758 C1759 1.414 1_455 S
C1759 H1729 0.952 . S
C1759 C1754 1.362 1_655 S
C1759 C1758 1.414 1_655 S
H1760 C1757 0.999 . S
H1761 C1742 0.913 1_554 S
H1762 C1780 0.951 . S
H1763 C1782 0.951 . S
H1764 C1784 0.950 . S
H1765 C1785 0.950 . S
H1766 C1787 0.950 . S
H1767 C1790 0.950 . S
H1768 C1791 0.950 . S
H1769 C1793 0.950 . S
H1770 C1794 0.950 . S
H1771 C1795 0.951 . S
H1772 C1797 0.951 . S
H1773 C1799 0.950 . S
H1774 C1800 0.950 . S
H1775 C1802 0.950 . S
H1776 C1805 0.950 . S
H1777 C1806 0.950 . S
H1778 C1808 0.950 . S
H1779 C1809 0.950 . S
C1780 H1762 0.951 . S
C1780 C1781 1.366 . S
C1780 C1782 1.388 . S
C1781 C1780 1.366 . S
C1781 C1785 1.385 . S
C1782 H1763 0.951 . S
C1782 C1780 1.388 . S
C1782 C1783 1.366 . S
C1783 C1782 1.366 . S
C1783 C1784 1.414 . S
C1783 C1786 1.499 . S
C1784 H1764 0.950 . S
C1784 C1783 1.414 . S
C1784 C1785 1.374 . S
C1785 H1765 0.950 . S
C1785 C1781 1.385 . S
C1785 C1784 1.374 . S
C1786 C1783 1.499 . S
C1786 C1787 1.373 . S
C1786 C1788 1.389 . S
C1787 H1766 0.950 . S
C1787 C1786 1.373 . S
C1787 C1803 1.377 . S
C1788 C1786 1.389 . S
C1788 C1789 1.524 . S
C1788 C1802 1.377 . S
C1789 C1788 1.524 . S
C1789 C1790 1.397 . S
C1789 C1794 1.363 . S
C1790 H1767 0.950 . S
C1790 C1789 1.397 . S
C1790 C1791 1.334 . S
C1791 H1768 0.950 . S
C1791 C1790 1.334 . S
C1791 C1792 1.287 . S
C1792 C1791 1.287 . S
C1792 C1793 1.524 . S
C1792 H1811 0.913 . S
C1793 H1769 0.950 . S
C1793 C1792 1.524 . S
C1793 C1794 1.415 . S
C1794 H1770 0.950 . S
C1794 C1789 1.363 . S
C1794 C1793 1.415 . S
C1795 H1771 0.951 . S
C1795 C1796 1.366 . S
C1795 C1797 1.388 . S
C1796 C1795 1.366 . S
C1796 C1800 1.385 . S
C1797 H1772 0.951 . S
C1797 C1795 1.388 . S
C1797 C1798 1.366 . S
C1798 C1797 1.366 . S
C1798 C1799 1.414 . S
C1798 C1801 1.499 . S
C1799 H1773 0.950 . S
C1799 C1798 1.414 . S
C1799 C1800 1.374 . S
C1800 H1774 0.950 . S
C1800 C1796 1.385 . S
C1800 C1799 1.374 . S
C1801 C1798 1.499 . S
C1801 C1802 1.373 . S
C1801 C1803 1.389 . S
C1802 H1775 0.950 . S
C1802 C1788 1.377 . S
C1802 C1801 1.373 . S
C1803 C1787 1.377 . S
C1803 C1801 1.389 . S
C1803 C1804 1.524 . S
C1804 C1803 1.524 . S
C1804 C1805 1.397 . S
C1804 C1809 1.363 . S
C1805 H1776 0.950 . S
C1805 C1804 1.397 . S
C1805 C1806 1.334 . S
C1806 H1777 0.950 . S
C1806 C1805 1.334 . S
C1806 C1807 1.287 . S
C1807 C1806 1.287 . S
C1807 C1808 1.524 . S
C1807 H1810 0.999 . S
C1808 H1778 0.950 . S
C1808 C1807 1.524 . S
C1808 C1809 1.415 . S
C1809 H1779 0.950 . S
C1809 C1804 1.363 . S
C1809 C1808 1.415 . S
H1810 C1807 0.999 . S
H1811 C1792 0.913 . S
H1812 C1830 0.951 . S
H1813 C1832 0.951 . S
H1814 C1834 0.950 . S
H1815 C1835 0.950 . S
H1816 C1837 0.950 . S
H1817 C1840 0.950 . S
H1818 C1841 0.950 . S
H1819 C1843 0.950 . S
H1820 C1844 0.950 . S
H1821 C1845 0.951 . S
H1822 C1847 0.951 . S
H1823 C1849 0.950 . S
H1824 C1850 0.950 . S
H1825 C1852 0.950 . S
H1826 C1855 0.950 . S
H1827 C1856 0.950 . S
H1828 C1858 0.950 . S
H1829 C1859 0.950 . S
C1830 H1812 0.951 . S
C1830 C1831 1.366 1_655 S
C1830 C1832 1.388 . S
C1831 C1830 1.366 1_455 S
C1831 C1835 1.385 . S
C1832 H1813 0.951 . S
C1832 C1830 1.388 . S
C1832 C1833 1.366 1_655 S
C1833 C1832 1.366 1_455 S
C1833 C1834 1.414 . S
C1833 C1836 1.499 . S
C1834 H1814 0.950 . S
C1834 C1833 1.414 . S
C1834 C1835 1.374 . S
C1835 H1815 0.950 . S
C1835 C1831 1.385 . S
C1835 C1834 1.374 . S
C1836 C1833 1.499 . S
C1836 C1837 1.373 . S
C1836 C1838 1.389 1_455 S
C1837 H1816 0.950 . S
C1837 C1836 1.373 . S
C1837 C1853 1.377 . S
C1838 C1836 1.389 1_655 S
C1838 C1839 1.524 . S
C1838 C1852 1.377 . S
C1839 C1838 1.524 . S
C1839 C1840 1.397 . S
C1839 C1844 1.363 . S
C1840 H1817 0.950 . S
C1840 C1839 1.397 . S
C1840 C1841 1.334 . S
C1841 H1818 0.950 . S
C1841 C1840 1.334 . S
C1841 C1842 1.287 . S
C1842 C1841 1.287 . S
C1842 C1843 1.524 . S
C1842 H1861 0.913 . S
C1843 H1819 0.950 . S
C1843 C1842 1.524 . S
C1843 C1844 1.415 . S
C1844 H1820 0.950 . S
C1844 C1839 1.363 . S
C1844 C1843 1.415 . S
C1845 H1821 0.951 . S
C1845 C1846 1.366 . S
C1845 C1847 1.388 . S
C1846 C1845 1.366 . S
C1846 C1850 1.385 1_455 S
C1847 H1822 0.951 . S
C1847 C1845 1.388 . S
C1847 C1848 1.366 . S
C1848 C1847 1.366 . S
C1848 C1849 1.414 1_455 S
C1848 C1851 1.499 . S
C1849 H1823 0.950 . S
C1849 C1848 1.414 1_655 S
C1849 C1850 1.374 . S
C1850 H1824 0.950 . S
C1850 C1846 1.385 1_655 S
C1850 C1849 1.374 . S
C1851 C1848 1.499 . S
C1851 C1852 1.373 1_455 S
C1851 C1853 1.389 . S
C1852 H1825 0.950 . S
C1852 C1838 1.377 . S
C1852 C1851 1.373 1_655 S
C1853 C1837 1.377 . S
C1853 C1851 1.389 . S
C1853 C1854 1.524 . S
C1854 C1853 1.524 . S
C1854 C1855 1.397 . S
C1854 C1859 1.363 . S
C1855 H1826 0.950 . S
C1855 C1854 1.397 . S
C1855 C1856 1.334 . S
C1856 H1827 0.950 . S
C1856 C1855 1.334 . S
C1856 C1857 1.287 . S
C1857 C1856 1.287 . S
C1857 C1858 1.524 . S
C1857 H1860 0.999 . S
C1858 H1828 0.950 . S
C1858 C1857 1.524 . S
C1858 C1859 1.415 . S
C1859 H1829 0.950 . S
C1859 C1854 1.363 . S
C1859 C1858 1.415 . S
H1860 C1857 0.999 . S
H1861 C1842 0.913 . S
H1862 C1880 0.951 . S
H1863 C1882 0.951 . S
H1864 C1884 0.950 . S
H1865 C1885 0.950 . S
H1866 C1887 0.950 . S
H1867 C1890 0.950 . S
H1868 C1891 0.950 . S
H1869 C1893 0.950 . S
H1870 C1894 0.950 . S
H1871 C1895 0.951 . S
H1872 C1897 0.951 . S
H1873 C1899 0.950 . S
H1874 C1900 0.950 . S
H1875 C1902 0.950 . S
H1876 C1905 0.950 . S
H1877 C1906 0.950 . S
H1878 C1908 0.950 . S
H1879 C1909 0.950 . S
C1880 H1862 0.951 . S
C1880 C1881 1.366 . S
C1880 C1882 1.388 . S
C1881 C1880 1.366 . S
C1881 C1885 1.385 . S
C1882 H1863 0.951 . S
C1882 C1880 1.388 . S
C1882 C1883 1.366 . S
C1883 C1882 1.366 . S
C1883 C1884 1.414 . S
C1883 C1886 1.499 . S
C1884 H1864 0.950 . S
C1884 C1883 1.414 . S
C1884 C1885 1.374 . S
C1885 H1865 0.950 . S
C1885 C1881 1.385 . S
C1885 C1884 1.374 . S
C1886 C1883 1.499 . S
C1886 C1887 1.373 . S
C1886 C1888 1.389 . S
C1887 H1866 0.950 . S
C1887 C1886 1.373 . S
C1887 C1903 1.377 . S
C1888 C1886 1.389 . S
C1888 C1889 1.524 . S
C1888 C1902 1.377 . S
C1889 C1888 1.524 . S
C1889 C1890 1.397 . S
C1889 C1894 1.363 . S
C1890 H1867 0.950 . S
C1890 C1889 1.397 . S
C1890 C1891 1.334 . S
C1891 H1868 0.950 . S
C1891 C1890 1.334 . S
C1891 C1892 1.287 . S
C1892 C1891 1.287 . S
C1892 C1893 1.524 . S
C1892 H1911 0.913 . S
C1893 H1869 0.950 . S
C1893 C1892 1.524 . S
C1893 C1894 1.415 . S
C1894 H1870 0.950 . S
C1894 C1889 1.363 . S
C1894 C1893 1.415 . S
C1895 H1871 0.951 . S
C1895 C1896 1.366 . S
C1895 C1897 1.388 . S
C1896 C1895 1.366 . S
C1896 C1900 1.385 . S
C1897 H1872 0.951 . S
C1897 C1895 1.388 . S
C1897 C1898 1.366 . S
C1898 C1897 1.366 . S
C1898 C1899 1.414 . S
C1898 C1901 1.499 . S
C1899 H1873 0.950 . S
C1899 C1898 1.414 . S
C1899 C1900 1.374 . S
C1900 H1874 0.950 . S
C1900 C1896 1.385 . S
C1900 C1899 1.374 . S
C1901 C1898 1.499 . S
C1901 C1902 1.373 . S
C1901 C1903 1.389 . S
C1902 H1875 0.950 . S
C1902 C1888 1.377 . S
C1902 C1901 1.373 . S
C1903 C1887 1.377 . S
C1903 C1901 1.389 . S
C1903 C1904 1.524 . S
C1904 C1903 1.524 . S
C1904 C1905 1.397 . S
C1904 C1909 1.363 . S
C1905 H1876 0.950 . S
C1905 C1904 1.397 . S
C1905 C1906 1.334 . S
C1906 H1877 0.950 . S
C1906 C1905 1.334 . S
C1906 C1907 1.287 . S
C1907 C1906 1.287 . S
C1907 C1908 1.524 . S
C1907 H1910 0.999 . S
C1908 H1878 0.950 . S
C1908 C1907 1.524 . S
C1908 C1909 1.415 . S
C1909 H1879 0.950 . S
C1909 C1904 1.363 . S
C1909 C1908 1.415 . S
H1910 C1907 0.999 . S
H1911 C1892 0.913 . S
H1912 C1930 0.951 . S
H1913 C1932 0.951 . S
H1914 C1934 0.950 . S
H1915 C1935 0.950 . S
H1916 C1937 0.950 . S
H1917 C1940 0.950 . S
H1918 C1941 0.950 . S
H1919 C1943 0.950 . S
H1920 C1944 0.950 . S
H1921 C1945 0.951 . S
H1922 C1947 0.951 . S
H1923 C1949 0.950 . S
H1924 C1950 0.950 . S
H1925 C1952 0.950 . S
H1926 C1955 0.950 . S
H1927 C1956 0.950 . S
H1928 C1958 0.950 . S
H1929 C1959 0.950 . S
C1930 H1912 0.951 . S
C1930 C1931 1.366 1_545 S
C1930 C1932 1.388 . S
C1931 C1930 1.366 1_565 S
C1931 C1935 1.385 . S
C1932 H1913 0.951 . S
C1932 C1930 1.388 . S
C1932 C1933 1.366 1_545 S
C1933 C1932 1.366 1_565 S
C1933 C1934 1.414 . S
C1933 C1936 1.499 . S
C1934 H1914 0.950 . S
C1934 C1933 1.414 . S
C1934 C1935 1.374 . S
C1935 H1915 0.950 . S
C1935 C1931 1.385 . S
C1935 C1934 1.374 . S
C1936 C1933 1.499 . S
C1936 C1937 1.373 . S
C1936 C1938 1.389 1_565 S
C1937 H1916 0.950 . S
C1937 C1936 1.373 . S
C1937 C1953 1.377 . S
C1938 C1936 1.389 1_545 S
C1938 C1939 1.524 . S
C1938 C1952 1.377 . S
C1939 C1938 1.524 . S
C1939 C1940 1.397 . S
C1939 C1944 1.363 . S
C1940 H1917 0.950 . S
C1940 C1939 1.397 . S
C1940 C1941 1.334 . S
C1941 H1918 0.950 . S
C1941 C1940 1.334 . S
C1941 C1942 1.287 . S
C1942 C1941 1.287 . S
C1942 C1943 1.524 . S
C1942 H1961 0.913 . S
C1943 H1919 0.950 . S
C1943 C1942 1.524 . S
C1943 C1944 1.415 . S
C1944 H1920 0.950 . S
C1944 C1939 1.363 . S
C1944 C1943 1.415 . S
C1945 H1921 0.951 . S
C1945 C1946 1.366 . S
C1945 C1947 1.388 . S
C1946 C1945 1.366 . S
C1946 C1950 1.385 1_565 S
C1947 H1922 0.951 . S
C1947 C1945 1.388 . S
C1947 C1948 1.366 . S
C1948 C1947 1.366 . S
C1948 C1949 1.414 1_565 S
C1948 C1951 1.499 . S
C1949 H1923 0.950 . S
C1949 C1948 1.414 1_545 S
C1949 C1950 1.374 . S
C1950 H1924 0.950 . S
C1950 C1946 1.385 1_545 S
C1950 C1949 1.374 . S
C1951 C1948 1.499 . S
C1951 C1952 1.373 1_565 S
C1951 C1953 1.389 . S
C1952 H1925 0.950 . S
C1952 C1938 1.377 . S
C1952 C1951 1.373 1_545 S
C1953 C1937 1.377 . S
C1953 C1951 1.389 . S
C1953 C1954 1.524 . S
C1954 C1953 1.524 . S
C1954 C1955 1.397 . S
C1954 C1959 1.363 . S
C1955 H1926 0.950 . S
C1955 C1954 1.397 . S
C1955 C1956 1.334 . S
C1956 H1927 0.950 . S
C1956 C1955 1.334 . S
C1956 C1957 1.287 . S
C1957 C1956 1.287 . S
C1957 C1958 1.524 . S
C1957 H1960 0.999 . S
C1958 H1928 0.950 . S
C1958 C1957 1.524 . S
C1958 C1959 1.415 . S
C1959 H1929 0.950 . S
C1959 C1954 1.363 . S
C1959 C1958 1.415 . S
H1960 C1957 0.999 . S
H1961 C1942 0.913 . S
H1962 C1980 0.951 . S
H1963 C1982 0.951 . S
H1964 C1984 0.950 . S
H1965 C1985 0.950 . S
H1966 C1987 0.950 . S
H1967 C1990 1.014 . S
H1968 C1991 0.950 . S
H1969 C1993 0.950 . S
H1970 C1994 0.950 . S
H1971 C1995 0.951 . S
H1972 C1997 0.951 . S
H1973 C1999 0.950 . S
H1974 C2000 0.950 . S
H1975 C2002 0.950 . S
H1976 C2005 0.950 . S
H1977 C2006 0.950 . S
H1978 C2008 0.950 . S
H1979 C2009 0.950 . S
C1980 H1962 0.951 . S
C1980 C1981 1.366 1_565 S
C1980 C1982 1.388 . S
C1981 C1980 1.366 1_545 S
C1981 C1985 1.385 . S
C1982 H1963 0.951 . S
C1982 C1980 1.388 . S
C1982 C1983 1.366 1_565 S
C1983 C1982 1.366 1_545 S
C1983 C1984 1.414 . S
C1983 C1986 1.499 . S
C1984 H1964 0.950 . S
C1984 C1983 1.414 . S
C1984 C1985 1.374 . S
C1985 H1965 0.950 . S
C1985 C1981 1.385 . S
C1985 C1984 1.374 . S
C1986 C1983 1.499 . S
C1986 C1987 1.373 . S
C1986 C1988 1.389 1_545 S
C1987 H1966 0.950 . S
C1987 C1986 1.373 . S
C1987 C2003 1.377 . S
C1988 C1986 1.389 1_565 S
C1988 C1989 1.524 . S
C1988 C2002 1.377 . S
C1989 C1988 1.524 . S
C1989 C1990 1.397 . S
C1989 C1994 1.363 . S
C1990 H1967 1.014 . S
C1990 C1989 1.397 . S
C1990 C1991 1.334 . S
C1991 H1968 0.950 . S
C1991 C1990 1.334 . S
C1991 C1992 1.287 . S
C1992 C1991 1.287 . S
C1992 C1993 1.524 . S
C1992 H2011 0.913 . S
C1993 H1969 0.950 . S
C1993 C1992 1.524 . S
C1993 C1994 1.415 . S
C1994 H1970 0.950 . S
C1994 C1989 1.363 . S
C1994 C1993 1.415 . S
C1995 H1971 0.951 . S
C1995 C1996 1.366 . S
C1995 C1997 1.388 . S
C1996 C1995 1.366 . S
C1996 C2000 1.385 1_545 S
C1997 H1972 0.951 . S
C1997 C1995 1.388 . S
C1997 C1998 1.366 . S
C1998 C1997 1.366 . S
C1998 C1999 1.414 1_545 S
C1998 C2001 1.499 . S
C1999 H1973 0.950 . S
C1999 C1998 1.414 1_565 S
C1999 C2000 1.374 . S
C2000 H1974 0.950 . S
C2000 C1996 1.385 1_565 S
C2000 C1999 1.374 . S
C2001 C1998 1.499 . S
C2001 C2002 1.373 1_545 S
C2001 C2003 1.389 . S
C2002 H1975 0.950 . S
C2002 C1988 1.377 . S
C2002 C2001 1.373 1_565 S
C2003 C1987 1.377 . S
C2003 C2001 1.389 . S
C2003 C2004 1.524 . S
C2004 C2003 1.524 . S
C2004 C2005 1.397 . S
C2004 C2009 1.363 . S
C2005 H1976 0.950 . S
C2005 C2004 1.397 . S
C2005 C2006 1.334 . S
C2006 H1977 0.950 . S
C2006 C2005 1.334 . S
C2006 C2007 1.287 . S
C2007 C2006 1.287 . S
C2007 C2008 1.524 . S
C2007 H2010 0.999 . S
C2008 H1978 0.950 . S
C2008 C2007 1.524 . S
C2008 C2009 1.415 . S
C2009 H1979 0.950 . S
C2009 C2004 1.363 . S
C2009 C2008 1.415 . S
H2010 C2007 0.999 . S
H2011 C1992 0.913 . S
H2012 C2030 0.951 . S
H2013 C2032 0.951 . S
H2014 C2034 0.950 . S
H2015 C2035 0.950 . S
H2016 C2037 0.941 1_455 S
H2017 C2040 0.950 . S
H2018 C2041 0.950 . S
H2019 C2043 0.950 . S
H2020 C2044 0.950 . S
H2021 C2045 0.951 . S
H2022 C2047 0.951 . S
H2023 C2049 0.950 . S
H2024 C2050 0.950 . S
H2025 C2052 0.950 . S
H2026 C2055 0.950 . S
H2027 C2056 0.950 . S
H2028 C2058 0.950 . S
H2029 C2059 0.950 . S
C2030 H2012 0.951 . S
C2030 C2031 1.366 . S
C2030 C2032 1.388 . S
C2031 C2030 1.366 . S
C2031 C2035 1.385 1_655 S
C2032 H2013 0.951 . S
C2032 C2030 1.388 . S
C2032 C2033 1.366 . S
C2033 C2032 1.366 . S
C2033 C2034 1.414 1_655 S
C2033 C2036 1.499 . S
C2034 H2014 0.950 . S
C2034 C2033 1.414 1_455 S
C2034 C2035 1.374 . S
C2035 H2015 0.950 . S
C2035 C2031 1.385 1_455 S
C2035 C2034 1.374 . S
C2036 C2033 1.499 . S
C2036 C2037 1.397 . S
C2036 C2038 1.389 . S
C2037 H2016 0.941 1_655 S
C2037 C2036 1.397 . S
C2037 C2053 1.364 . S
C2038 C2036 1.389 . S
C2038 C2039 1.524 . S
C2038 C2052 1.377 . S
C2039 C2038 1.524 . S
C2039 C2040 1.397 1_655 S
C2039 C2044 1.363 . S
C2040 H2017 0.950 . S
C2040 C2039 1.397 1_455 S
C2040 C2041 1.334 . S
C2041 H2018 0.950 . S
C2041 C2040 1.334 . S
C2041 C2042 1.287 1_455 S
C2042 C2041 1.287 1_655 S
C2042 C2043 1.524 . S
C2042 H2061 0.913 . S
C2043 H2019 0.950 . S
C2043 C2042 1.524 . S
C2043 C2044 1.415 . S
C2044 H2020 0.950 . S
C2044 C2039 1.363 . S
C2044 C2043 1.415 . S
C2045 H2021 0.951 . S
C2045 C2046 1.366 1_455 S
C2045 C2047 1.388 . S
C2046 C2045 1.366 1_655 S
C2046 C2050 1.385 . S
C2047 H2022 0.951 . S
C2047 C2045 1.388 . S
C2047 C2048 1.366 1_455 S
C2048 C2047 1.366 1_655 S
C2048 C2049 1.414 . S
C2048 C2051 1.499 . S
C2049 H2023 0.950 . S
C2049 C2048 1.414 . S
C2049 C2050 1.374 . S
C2050 H2024 0.950 . S
C2050 C2046 1.385 . S
C2050 C2049 1.374 . S
C2051 C2048 1.499 . S
C2051 C2052 1.373 . S
C2051 C2053 1.389 . S
C2052 H2025 0.950 . S
C2052 C2038 1.377 . S
C2052 C2051 1.373 . S
C2053 C2037 1.364 . S
C2053 C2051 1.389 . S
C2053 C2054 1.563 . S
C2054 C2053 1.563 . S
C2054 C2055 1.427 . S
C2054 C2059 1.305 1_655 S
C2055 H2026 0.950 . S
C2055 C2054 1.427 . S
C2055 C2056 1.334 . S
C2056 H2027 0.950 . S
C2056 C2055 1.334 . S
C2056 C2057 1.287 . S
C2057 C2056 1.287 . S
C2057 C2058 1.524 1_655 S
C2057 H2060 0.999 . S
C2058 H2028 0.950 . S
C2058 C2057 1.524 1_455 S
C2058 C2059 1.415 . S
C2059 H2029 0.950 . S
C2059 C2054 1.305 1_455 S
C2059 C2058 1.415 . S
H2060 C2057 0.999 . S
H2061 C2042 0.913 . S
H2062 C2080 0.951 . S
H2063 C2082 0.951 . S
H2064 C2084 0.950 . S
H2065 C2085 0.950 . S
H2066 C2087 0.950 . S
H2067 C2090 0.950 . S
H2068 C2091 0.950 . S
H2069 C2093 0.950 . S
H2070 C2094 0.950 . S
H2071 C2095 0.951 . S
H2072 C2097 0.951 . S
H2073 C2099 0.950 . S
H2074 C2100 0.950 . S
H2075 C2102 0.950 . S
H2076 C2105 0.950 . S
H2077 C2106 0.950 . S
H2078 C2108 0.950 . S
H2079 C2109 0.950 . S
C2080 H2062 0.951 . S
C2080 C2081 1.366 . S
C2080 C2082 1.388 . S
C2081 C2080 1.366 . S
C2081 C2085 1.385 . S
C2082 H2063 0.951 . S
C2082 C2080 1.388 . S
C2082 C2083 1.366 . S
C2083 C2082 1.366 . S
C2083 C2084 1.414 . S
C2083 C2086 1.499 . S
C2084 H2064 0.950 . S
C2084 C2083 1.414 . S
C2084 C2085 1.374 . S
C2085 H2065 0.950 . S
C2085 C2081 1.385 . S
C2085 C2084 1.374 . S
C2086 C2083 1.499 . S
C2086 C2087 1.373 . S
C2086 C2088 1.389 . S
C2087 H2066 0.950 . S
C2087 C2086 1.373 . S
C2087 C2103 1.377 . S
C2088 C2086 1.389 . S
C2088 C2089 1.524 . S
C2088 C2102 1.377 . S
C2089 C2088 1.524 . S
C2089 C2090 1.397 . S
C2089 C2094 1.363 . S
C2090 H2067 0.950 . S
C2090 C2089 1.397 . S
C2090 C2091 1.334 . S
C2091 H2068 0.950 . S
C2091 C2090 1.334 . S
C2091 C2092 1.287 . S
C2092 C2091 1.287 . S
C2092 C2093 1.524 . S
C2092 H2111 0.913 . S
C2093 H2069 0.950 . S
C2093 C2092 1.524 . S
C2093 C2094 1.415 . S
C2094 H2070 0.950 . S
C2094 C2089 1.363 . S
C2094 C2093 1.415 . S
C2095 H2071 0.951 . S
C2095 C2096 1.366 . S
C2095 C2097 1.388 . S
C2096 C2095 1.366 . S
C2096 C2100 1.385 . S
C2097 H2072 0.951 . S
C2097 C2095 1.388 . S
C2097 C2098 1.366 . S
C2098 C2097 1.366 . S
C2098 C2099 1.414 . S
C2098 C2101 1.499 . S
C2099 H2073 0.950 . S
C2099 C2098 1.414 . S
C2099 C2100 1.374 . S
C2100 H2074 0.950 . S
C2100 C2096 1.385 . S
C2100 C2099 1.374 . S
C2101 C2098 1.499 . S
C2101 C2102 1.373 . S
C2101 C2103 1.389 . S
C2102 H2075 0.950 . S
C2102 C2088 1.377 . S
C2102 C2101 1.373 . S
C2103 C2087 1.377 . S
C2103 C2101 1.389 . S
C2103 C2104 1.524 . S
C2104 C2103 1.524 . S
C2104 C2105 1.397 . S
C2104 C2109 1.363 . S
C2105 H2076 0.950 . S
C2105 C2104 1.397 . S
C2105 C2106 1.334 . S
C2106 H2077 0.950 . S
C2106 C2105 1.334 . S
C2106 C2107 1.287 . S
C2107 C2106 1.287 . S
C2107 C2108 1.524 . S
C2107 H2110 0.999 . S
C2108 H2078 0.950 . S
C2108 C2107 1.524 . S
C2108 C2109 1.415 . S
C2109 H2079 0.950 . S
C2109 C2104 1.363 . S
C2109 C2108 1.415 . S
H2110 C2107 0.999 . S
H2111 C2092 0.913 . S
H2112 C2130 0.951 . S
H2113 C2132 0.951 . S
H2114 C2134 0.950 . S
H2115 C2135 0.950 . S
H2116 C2137 0.950 . S
H2117 C2140 0.950 . S
H2118 C2141 0.950 . S
H2119 C2143 0.950 . S
H2120 C2144 0.950 . S
H2121 C2145 0.951 . S
H2122 C2147 0.951 . S
H2123 C2149 0.950 . S
H2124 C2150 0.950 . S
H2125 C2152 0.950 . S
H2126 C2155 0.950 . S
H2127 C2156 0.950 . S
H2128 C2158 0.950 . S
H2129 C2159 0.950 . S
C2130 H2112 0.951 . S
C2130 C2131 1.366 . S
C2130 C2132 1.388 . S
C2131 C2130 1.366 . S
C2131 C2135 1.385 . S
C2132 H2113 0.951 . S
C2132 C2130 1.388 . S
C2132 C2133 1.366 . S
C2133 C2132 1.366 . S
C2133 C2134 1.414 . S
C2133 C2136 1.499 . S
C2134 H2114 0.950 . S
C2134 C2133 1.414 . S
C2134 C2135 1.374 . S
C2135 H2115 0.950 . S
C2135 C2131 1.385 . S
C2135 C2134 1.374 . S
C2136 C2133 1.499 . S
C2136 C2137 1.373 . S
C2136 C2138 1.389 . S
C2137 H2116 0.950 . S
C2137 C2136 1.373 . S
C2137 C2153 1.377 . S
C2138 C2136 1.389 . S
C2138 C2139 1.524 . S
C2138 C2152 1.377 . S
C2139 C2138 1.524 . S
C2139 C2140 1.397 . S
C2139 C2144 1.363 . S
C2140 H2117 0.950 . S
C2140 C2139 1.397 . S
C2140 C2141 1.334 . S
C2141 H2118 0.950 . S
C2141 C2140 1.334 . S
C2141 C2142 1.287 . S
C2142 C2141 1.287 . S
C2142 C2143 1.524 . S
C2142 H2161 0.913 . S
C2143 H2119 0.950 . S
C2143 C2142 1.524 . S
C2143 C2144 1.415 . S
C2144 H2120 0.950 . S
C2144 C2139 1.363 . S
C2144 C2143 1.415 . S
C2145 H2121 0.951 . S
C2145 C2146 1.366 . S
C2145 C2147 1.388 . S
C2146 C2145 1.366 . S
C2146 C2150 1.385 . S
C2147 H2122 0.951 . S
C2147 C2145 1.388 . S
C2147 C2148 1.366 . S
C2148 C2147 1.366 . S
C2148 C2149 1.414 . S
C2148 C2151 1.499 . S
C2149 H2123 0.950 . S
C2149 C2148 1.414 . S
C2149 C2150 1.374 . S
C2150 H2124 0.950 . S
C2150 C2146 1.385 . S
C2150 C2149 1.374 . S
C2151 C2148 1.499 . S
C2151 C2152 1.373 . S
C2151 C2153 1.389 . S
C2152 H2125 0.950 . S
C2152 C2138 1.377 . S
C2152 C2151 1.373 . S
C2153 C2137 1.377 . S
C2153 C2151 1.389 . S
C2153 C2154 1.524 . S
C2154 C2153 1.524 . S
C2154 C2155 1.397 . S
C2154 C2159 1.363 . S
C2155 H2126 0.950 . S
C2155 C2154 1.397 . S
C2155 C2156 1.334 . S
C2156 H2127 0.950 . S
C2156 C2155 1.334 . S
C2156 C2157 1.287 . S
C2157 C2156 1.287 . S
C2157 C2158 1.524 . S
C2157 H2160 0.999 . S
C2158 H2128 0.950 . S
C2158 C2157 1.524 . S
C2158 C2159 1.415 . S
C2159 H2129 0.950 . S
C2159 C2154 1.363 . S
C2159 C2158 1.415 . S
H2160 C2157 0.999 . S
H2161 C2142 0.913 . S
H2162 C2180 0.951 . S
H2163 C2182 0.951 . S
H2164 C2184 0.950 . S
H2165 C2185 0.950 . S
H2166 C2187 0.950 . S
H2167 C2190 0.950 . S
H2168 C2191 0.950 . S
H2169 C2193 0.950 . S
H2170 C2194 0.950 . S
H2171 C2195 0.951 . S
H2172 C2197 0.951 . S
H2173 C2199 0.950 . S
H2174 C2200 0.950 . S
H2175 C2202 0.950 . S
H2176 C2205 0.950 . S
H2177 C2206 0.950 . S
H2178 C2208 0.950 . S
H2179 C2209 0.950 . S
C2180 H2162 0.951 . S
C2180 C2181 1.366 . S
C2180 C2182 1.388 . S
C2181 C2180 1.366 . S
C2181 C2185 1.385 . S
C2182 H2163 0.951 . S
C2182 C2180 1.388 . S
C2182 C2183 1.366 . S
C2183 C2182 1.366 . S
C2183 C2184 1.414 . S
C2183 C2186 1.499 . S
C2184 H2164 0.950 . S
C2184 C2183 1.414 . S
C2184 C2185 1.374 . S
C2185 H2165 0.950 . S
C2185 C2181 1.385 . S
C2185 C2184 1.374 . S
C2186 C2183 1.499 . S
C2186 C2187 1.373 . S
C2186 C2188 1.389 . S
C2187 H2166 0.950 . S
C2187 C2186 1.373 . S
C2187 C2203 1.377 . S
C2188 C2186 1.389 . S
C2188 C2189 1.524 . S
C2188 C2202 1.377 . S
C2189 C2188 1.524 . S
C2189 C2190 1.397 . S
C2189 C2194 1.363 . S
C2190 H2167 0.950 . S
C2190 C2189 1.397 . S
C2190 C2191 1.334 . S
C2191 H2168 0.950 . S
C2191 C2190 1.334 . S
C2191 C2192 1.287 . S
C2192 C2191 1.287 . S
C2192 C2193 1.524 . S
C2192 H2211 0.913 . S
C2193 H2169 0.950 . S
C2193 C2192 1.524 . S
C2193 C2194 1.415 . S
C2194 H2170 0.950 . S
C2194 C2189 1.363 . S
C2194 C2193 1.415 . S
C2195 H2171 0.951 . S
C2195 C2196 1.366 . S
C2195 C2197 1.388 . S
C2196 C2195 1.366 . S
C2196 C2200 1.385 . S
C2197 H2172 0.951 . S
C2197 C2195 1.388 . S
C2197 C2198 1.366 . S
C2198 C2197 1.366 . S
C2198 C2199 1.414 . S
C2198 C2201 1.499 . S
C2199 H2173 0.950 . S
C2199 C2198 1.414 . S
C2199 C2200 1.374 . S
C2200 H2174 0.950 . S
C2200 C2196 1.385 . S
C2200 C2199 1.374 . S
C2201 C2198 1.499 . S
C2201 C2202 1.373 . S
C2201 C2203 1.389 . S
C2202 H2175 0.950 . S
C2202 C2188 1.377 . S
C2202 C2201 1.373 . S
C2203 C2187 1.377 . S
C2203 C2201 1.389 . S
C2203 C2204 1.524 . S
C2204 C2203 1.524 . S
C2204 C2205 1.397 . S
C2204 C2209 1.363 . S
C2205 H2176 0.950 . S
C2205 C2204 1.397 . S
C2205 C2206 1.334 . S
C2206 H2177 0.950 . S
C2206 C2205 1.334 . S
C2206 C2207 1.287 . S
C2207 C2206 1.287 . S
C2207 C2208 1.524 . S
C2207 H2210 0.999 . S
C2208 H2178 0.950 . S
C2208 C2207 1.524 . S
C2208 C2209 1.415 . S
C2209 H2179 0.950 . S
C2209 C2204 1.363 . S
C2209 C2208 1.415 . S
H2210 C2207 0.999 . S
H2211 C2192 0.913 . S
H2212 C2230 0.951 . S
H2213 C2232 0.951 . S
H2214 C2234 0.950 . S
H2215 C2235 0.950 . S
H2216 C2237 0.950 . S
H2217 C2240 0.950 . S
H2218 C2241 0.950 . S
H2219 C2243 0.950 . S
H2220 C2244 0.950 . S
H2221 C2245 0.951 . S
H2222 C2247 0.951 . S
H2223 C2249 0.950 . S
H2224 C2250 0.950 . S
H2225 C2252 0.950 . S
H2226 C2255 0.950 . S
H2227 C2256 0.950 . S
H2228 C2258 0.950 . S
H2229 C2259 0.950 . S
C2230 H2212 0.951 . S
C2230 C2231 1.366 . S
C2230 C2232 1.388 . S
C2231 C2230 1.366 . S
C2231 C2235 1.385 . S
C2232 H2213 0.951 . S
C2232 C2230 1.388 . S
C2232 C2233 1.366 . S
C2233 C2232 1.366 . S
C2233 C2234 1.414 . S
C2233 C2236 1.499 . S
C2234 H2214 0.950 . S
C2234 C2233 1.414 . S
C2234 C2235 1.374 . S
C2235 H2215 0.950 . S
C2235 C2231 1.385 . S
C2235 C2234 1.374 . S
C2236 C2233 1.499 . S
C2236 C2237 1.373 . S
C2236 C2238 1.389 . S
C2237 H2216 0.950 . S
C2237 C2236 1.373 . S
C2237 C2253 1.377 . S
C2238 C2236 1.389 . S
C2238 C2239 1.524 . S
C2238 C2252 1.377 . S
C2239 C2238 1.524 . S
C2239 C2240 1.397 . S
C2239 C2244 1.363 . S
C2240 H2217 0.950 . S
C2240 C2239 1.397 . S
C2240 C2241 1.334 . S
C2241 H2218 0.950 . S
C2241 C2240 1.334 . S
C2241 C2242 1.287 . S
C2242 C2241 1.287 . S
C2242 C2243 1.524 . S
C2242 H2261 0.913 . S
C2243 H2219 0.950 . S
C2243 C2242 1.524 . S
C2243 C2244 1.415 . S
C2244 H2220 0.950 . S
C2244 C2239 1.363 . S
C2244 C2243 1.415 . S
C2245 H2221 0.951 . S
C2245 C2246 1.366 . S
C2245 C2247 1.388 . S
C2246 C2245 1.366 . S
C2246 C2250 1.385 . S
C2247 H2222 0.951 . S
C2247 C2245 1.388 . S
C2247 C2248 1.366 . S
C2248 C2247 1.366 . S
C2248 C2249 1.414 . S
C2248 C2251 1.499 . S
C2249 H2223 0.950 . S
C2249 C2248 1.414 . S
C2249 C2250 1.374 . S
C2250 H2224 0.950 . S
C2250 C2246 1.385 . S
C2250 C2249 1.374 . S
C2251 C2248 1.499 . S
C2251 C2252 1.373 . S
C2251 C2253 1.389 . S
C2252 H2225 0.950 . S
C2252 C2238 1.377 . S
C2252 C2251 1.373 . S
C2253 C2237 1.377 . S
C2253 C2251 1.389 . S
C2253 C2254 1.524 . S
C2254 C2253 1.524 . S
C2254 C2255 1.397 . S
C2254 C2259 1.363 . S
C2255 H2226 0.950 . S
C2255 C2254 1.397 . S
C2255 C2256 1.334 . S
C2256 H2227 0.950 . S
C2256 C2255 1.334 . S
C2256 C2257 1.287 . S
C2257 C2256 1.287 . S
C2257 C2258 1.524 . S
C2257 H2260 0.999 . S
C2258 H2228 0.950 . S
C2258 C2257 1.524 . S
C2258 C2259 1.415 . S
C2259 H2229 0.950 . S
C2259 C2254 1.363 . S
C2259 C2258 1.415 . S
H2260 C2257 0.999 . S
H2261 C2242 0.913 . S
H2262 C2280 0.951 . S
H2263 C2282 0.951 . S
H2264 C2284 0.950 . S
H2265 C2285 0.950 . S
H2266 C2287 0.950 . S
H2267 C2290 0.950 . S
H2268 C2291 0.950 . S
H2269 C2293 0.950 . S
H2270 C2294 0.950 . S
H2271 C2295 0.951 . S
H2272 C2297 0.951 . S
H2273 C2299 0.950 . S
H2274 C2300 0.950 . S
H2275 C2302 0.950 . S
H2276 C2305 0.950 . S
H2277 C2306 0.950 . S
H2278 C2308 0.950 . S
H2279 C2309 0.950 . S
C2280 H2262 0.951 . S
C2280 C2281 1.366 . S
C2280 C2282 1.388 . S
C2281 C2280 1.366 . S
C2281 C2285 1.385 . S
C2282 H2263 0.951 . S
C2282 C2280 1.388 . S
C2282 C2283 1.366 . S
C2283 C2282 1.366 . S
C2283 C2284 1.414 . S
C2283 C2286 1.499 . S
C2284 H2264 0.950 . S
C2284 C2283 1.414 . S
C2284 C2285 1.374 . S
C2285 H2265 0.950 . S
C2285 C2281 1.385 . S
C2285 C2284 1.374 . S
C2286 C2283 1.499 . S
C2286 C2287 1.373 . S
C2286 C2288 1.389 . S
C2287 H2266 0.950 . S
C2287 C2286 1.373 . S
C2287 C2303 1.377 . S
C2288 C2286 1.389 . S
C2288 C2289 1.524 . S
C2288 C2302 1.377 . S
C2289 C2288 1.524 . S
C2289 C2290 1.397 . S
C2289 C2294 1.363 . S
C2290 H2267 0.950 . S
C2290 C2289 1.397 . S
C2290 C2291 1.334 . S
C2291 H2268 0.950 . S
C2291 C2290 1.334 . S
C2291 C2292 1.287 . S
C2292 C2291 1.287 . S
C2292 C2293 1.524 . S
C2292 H2311 0.913 . S
C2293 H2269 0.950 . S
C2293 C2292 1.524 . S
C2293 C2294 1.415 . S
C2294 H2270 0.950 . S
C2294 C2289 1.363 . S
C2294 C2293 1.415 . S
C2295 H2271 0.951 . S
C2295 C2296 1.366 . S
C2295 C2297 1.388 . S
C2296 C2295 1.366 . S
C2296 C2300 1.385 . S
C2297 H2272 0.951 . S
C2297 C2295 1.388 . S
C2297 C2298 1.366 . S
C2298 C2297 1.366 . S
C2298 C2299 1.414 . S
C2298 C2301 1.499 . S
C2299 H2273 0.950 . S
C2299 C2298 1.414 . S
C2299 C2300 1.374 . S
C2300 H2274 0.950 . S
C2300 C2296 1.385 . S
C2300 C2299 1.374 . S
C2301 C2298 1.499 . S
C2301 C2302 1.373 . S
C2301 C2303 1.389 . S
C2302 H2275 0.950 . S
C2302 C2288 1.377 . S
C2302 C2301 1.373 . S
C2303 C2287 1.377 . S
C2303 C2301 1.389 . S
C2303 C2304 1.524 . S
C2304 C2303 1.524 . S
C2304 C2305 1.397 . S
C2304 C2309 1.363 . S
C2305 H2276 0.950 . S
C2305 C2304 1.397 . S
C2305 C2306 1.334 . S
C2306 H2277 0.950 . S
C2306 C2305 1.334 . S
C2306 C2307 1.287 . S
C2307 C2306 1.287 . S
C2307 C2308 1.524 . S
C2307 H2310 0.999 . S
C2308 H2278 0.950 . S
C2308 C2307 1.524 . S
C2308 C2309 1.415 . S
C2309 H2279 0.950 . S
C2309 C2304 1.363 . S
C2309 C2308 1.415 . S
H2310 C2307 0.999 . S
H2311 C2292 0.913 . S
H2312 C2330 0.951 . S
H2313 C2332 0.951 . S
H2314 C2334 0.950 . S
H2315 C2335 0.950 . S
H2316 C2337 0.950 . S
H2317 C2340 0.950 . S
H2318 C2341 0.950 . S
H2319 C2343 0.950 . S
H2320 C2344 0.950 . S
H2321 C2345 0.951 . S
H2322 C2347 0.951 . S
H2323 C2349 0.950 . S
H2324 C2350 0.950 . S
H2325 C2352 0.950 . S
H2326 C2355 0.950 . S
H2327 C2356 0.950 . S
H2328 C2358 0.950 . S
H2329 C2359 0.950 . S
C2330 H2312 0.951 . S
C2330 C2331 1.366 . S
C2330 C2332 1.388 . S
C2331 C2330 1.366 . S
C2331 C2335 1.385 . S
C2332 H2313 0.951 . S
C2332 C2330 1.388 . S
C2332 C2333 1.366 . S
C2333 C2332 1.366 . S
C2333 C2334 1.414 . S
C2333 C2336 1.499 . S
C2334 H2314 0.950 . S
C2334 C2333 1.414 . S
C2334 C2335 1.374 . S
C2335 H2315 0.950 . S
C2335 C2331 1.385 . S
C2335 C2334 1.374 . S
C2336 C2333 1.499 . S
C2336 C2337 1.373 . S
C2336 C2338 1.389 . S
C2337 H2316 0.950 . S
C2337 C2336 1.373 . S
C2337 C2353 1.377 . S
C2338 C2336 1.389 . S
C2338 C2339 1.524 . S
C2338 C2352 1.377 . S
C2339 C2338 1.524 . S
C2339 C2340 1.397 . S
C2339 C2344 1.363 . S
C2340 H2317 0.950 . S
C2340 C2339 1.397 . S
C2340 C2341 1.334 . S
C2341 H2318 0.950 . S
C2341 C2340 1.334 . S
C2341 C2342 1.287 . S
C2342 C2341 1.287 . S
C2342 C2343 1.524 . S
C2342 H2361 0.913 . S
C2343 H2319 0.950 . S
C2343 C2342 1.524 . S
C2343 C2344 1.415 . S
C2344 H2320 0.950 . S
C2344 C2339 1.363 . S
C2344 C2343 1.415 . S
C2345 H2321 0.951 . S
C2345 C2346 1.366 . S
C2345 C2347 1.388 . S
C2346 C2345 1.366 . S
C2346 C2350 1.385 . S
C2347 H2322 0.951 . S
C2347 C2345 1.388 . S
C2347 C2348 1.366 . S
C2348 C2347 1.366 . S
C2348 C2349 1.414 . S
C2348 C2351 1.499 . S
C2349 H2323 0.950 . S
C2349 C2348 1.414 . S
C2349 C2350 1.374 . S
C2350 H2324 0.950 . S
C2350 C2346 1.385 . S
C2350 C2349 1.374 . S
C2351 C2348 1.499 . S
C2351 C2352 1.373 . S
C2351 C2353 1.389 . S
C2352 H2325 0.950 . S
C2352 C2338 1.377 . S
C2352 C2351 1.373 . S
C2353 C2337 1.377 . S
C2353 C2351 1.389 . S
C2353 C2354 1.524 . S
C2354 C2353 1.524 . S
C2354 C2355 1.397 . S
C2354 C2359 1.363 . S
C2355 H2326 0.950 . S
C2355 C2354 1.397 . S
C2355 C2356 1.334 . S
C2356 H2327 0.950 . S
C2356 C2355 1.334 . S
C2356 C2357 1.287 . S
C2357 C2356 1.287 . S
C2357 C2358 1.524 . S
C2357 H2360 0.999 . S
C2358 H2328 0.950 . S
C2358 C2357 1.524 . S
C2358 C2359 1.415 . S
C2359 H2329 0.950 . S
C2359 C2354 1.363 . S
C2359 C2358 1.415 . S
H2360 C2357 0.999 . S
H2361 C2342 0.913 . S
H2362 C2380 0.951 . S
H2363 C2382 0.951 . S
H2364 C2384 0.950 . S
H2365 C2385 0.950 . S
H2366 C2387 0.950 . S
H2367 C2390 0.950 . S
H2368 C2391 0.950 . S
H2369 C2393 0.950 . S
H2370 C2394 0.950 . S
H2371 C2395 0.951 . S
H2372 C2397 0.951 . S
H2373 C2399 0.950 . S
H2374 C2400 0.950 . S
H2375 C2402 0.950 . S
H2376 C2405 0.950 . S
H2377 C2406 0.950 . S
H2378 C2408 0.950 . S
H2379 C2409 0.950 . S
C2380 H2362 0.951 . S
C2380 C2381 1.366 . S
C2380 C2382 1.388 . S
C2381 C2380 1.366 . S
C2381 C2385 1.385 . S
C2382 H2363 0.951 . S
C2382 C2380 1.388 . S
C2382 C2383 1.366 . S
C2383 C2382 1.366 . S
C2383 C2384 1.414 . S
C2383 C2386 1.499 . S
C2384 H2364 0.950 . S
C2384 C2383 1.414 . S
C2384 C2385 1.374 . S
C2385 H2365 0.950 . S
C2385 C2381 1.385 . S
C2385 C2384 1.374 . S
C2386 C2383 1.499 . S
C2386 C2387 1.373 . S
C2386 C2388 1.389 . S
C2387 H2366 0.950 . S
C2387 C2386 1.373 . S
C2387 C2403 1.377 . S
C2388 C2386 1.389 . S
C2388 C2389 1.524 . S
C2388 C2402 1.377 . S
C2389 C2388 1.524 . S
C2389 C2390 1.397 . S
C2389 C2394 1.363 . S
C2390 H2367 0.950 . S
C2390 C2389 1.397 . S
C2390 C2391 1.334 . S
C2391 H2368 0.950 . S
C2391 C2390 1.334 . S
C2391 C2392 1.287 . S
C2392 C2391 1.287 . S
C2392 C2393 1.524 . S
C2392 H2411 0.913 . S
C2393 H2369 0.950 . S
C2393 C2392 1.524 . S
C2393 C2394 1.415 . S
C2394 H2370 0.950 . S
C2394 C2389 1.363 . S
C2394 C2393 1.415 . S
C2395 H2371 0.951 . S
C2395 C2396 1.366 . S
C2395 C2397 1.388 . S
C2396 C2395 1.366 . S
C2396 C2400 1.385 . S
C2397 H2372 0.951 . S
C2397 C2395 1.388 . S
C2397 C2398 1.366 . S
C2398 C2397 1.366 . S
C2398 C2399 1.414 . S
C2398 C2401 1.499 . S
C2399 H2373 0.950 . S
C2399 C2398 1.414 . S
C2399 C2400 1.374 . S
C2400 H2374 0.950 . S
C2400 C2396 1.385 . S
C2400 C2399 1.374 . S
C2401 C2398 1.499 . S
C2401 C2402 1.373 . S
C2401 C2403 1.389 . S
C2402 H2375 0.950 . S
C2402 C2388 1.377 . S
C2402 C2401 1.373 . S
C2403 C2387 1.377 . S
C2403 C2401 1.389 . S
C2403 C2404 1.524 . S
C2404 C2403 1.524 . S
C2404 C2405 1.397 . S
C2404 C2409 1.363 . S
C2405 H2376 0.950 . S
C2405 C2404 1.397 . S
C2405 C2406 1.334 . S
C2406 H2377 0.950 . S
C2406 C2405 1.334 . S
C2406 C2407 1.287 . S
C2407 C2406 1.287 . S
C2407 C2408 1.524 . S
C2407 H2410 0.999 . S
C2408 H2378 0.950 . S
C2408 C2407 1.524 . S
C2408 C2409 1.415 . S
C2409 H2379 0.950 . S
C2409 C2404 1.363 . S
C2409 C2408 1.415 . S
H2410 C2407 0.999 . S
H2411 C2392 0.913 . S
H2412 C2430 0.951 . S
H2413 C2432 0.951 . S
H2414 C2434 0.950 . S
H2415 C2435 0.950 . S
H2416 C2437 0.950 . S
H2417 C2440 0.950 . S
H2418 C2441 0.950 . S
H2419 C2443 0.950 . S
H2420 C2444 0.950 . S
H2421 C2445 0.951 . S
H2422 C2447 0.951 . S
H2423 C2449 0.950 . S
H2424 C2450 0.950 . S
H2425 C2452 0.950 . S
H2426 C2455 0.950 . S
H2427 C2456 0.950 . S
H2428 C2458 0.950 . S
H2429 C2459 0.950 . S
C2430 H2412 0.951 . S
C2430 C2431 1.366 . S
C2430 C2432 1.388 . S
C2431 C2430 1.366 . S
C2431 C2435 1.385 . S
C2432 H2413 0.951 . S
C2432 C2430 1.388 . S
C2432 C2433 1.366 . S
C2433 C2432 1.366 . S
C2433 C2434 1.414 . S
C2433 C2436 1.499 . S
C2434 H2414 0.950 . S
C2434 C2433 1.414 . S
C2434 C2435 1.374 . S
C2435 H2415 0.950 . S
C2435 C2431 1.385 . S
C2435 C2434 1.374 . S
C2436 C2433 1.499 . S
C2436 C2437 1.373 . S
C2436 C2438 1.389 . S
C2437 H2416 0.950 . S
C2437 C2436 1.373 . S
C2437 C2453 1.377 . S
C2438 C2436 1.389 . S
C2438 C2439 1.524 . S
C2438 C2452 1.377 . S
C2439 C2438 1.524 . S
C2439 C2440 1.397 . S
C2439 C2444 1.363 . S
C2440 H2417 0.950 . S
C2440 C2439 1.397 . S
C2440 C2441 1.334 . S
C2441 H2418 0.950 . S
C2441 C2440 1.334 . S
C2441 C2442 1.287 . S
C2442 C2441 1.287 . S
C2442 C2443 1.524 . S
C2442 H2461 0.913 . S
C2443 H2419 0.950 . S
C2443 C2442 1.524 . S
C2443 C2444 1.415 . S
C2444 H2420 0.950 . S
C2444 C2439 1.363 . S
C2444 C2443 1.415 . S
C2445 H2421 0.951 . S
C2445 C2446 1.366 . S
C2445 C2447 1.388 . S
C2446 C2445 1.366 . S
C2446 C2450 1.385 . S
C2447 H2422 0.951 . S
C2447 C2445 1.388 . S
C2447 C2448 1.366 . S
C2448 C2447 1.366 . S
C2448 C2449 1.414 . S
C2448 C2451 1.499 . S
C2449 H2423 0.950 . S
C2449 C2448 1.414 . S
C2449 C2450 1.374 . S
C2450 H2424 0.950 . S
C2450 C2446 1.385 . S
C2450 C2449 1.374 . S
C2451 C2448 1.499 . S
C2451 C2452 1.373 . S
C2451 C2453 1.389 . S
C2452 H2425 0.950 . S
C2452 C2438 1.377 . S
C2452 C2451 1.373 . S
C2453 C2437 1.377 . S
C2453 C2451 1.389 . S
C2453 C2454 1.524 . S
C2454 C2453 1.524 . S
C2454 C2455 1.397 . S
C2454 C2459 1.363 . S
C2455 H2426 0.950 . S
C2455 C2454 1.397 . S
C2455 C2456 1.334 . S
C2456 H2427 0.950 . S
C2456 C2455 1.334 . S
C2456 C2457 1.287 . S
C2457 C2456 1.287 . S
C2457 C2458 1.524 . S
C2457 H2460 0.999 . S
C2458 H2428 0.950 . S
C2458 C2457 1.524 . S
C2458 C2459 1.415 . S
C2459 H2429 0.950 . S
C2459 C2454 1.363 . S
C2459 C2458 1.415 . S
H2460 C2457 0.999 . S
H2461 C2442 0.913 . S
H2462 C2480 0.951 . S
H2463 C2482 0.951 . S
H2464 C2484 0.950 . S
H2465 C2485 0.950 . S
H2466 C2487 0.950 . S
H2467 C2490 0.950 . S
H2468 C2491 0.950 . S
H2469 C2493 0.950 . S
H2470 C2494 0.950 . S
H2471 C2495 0.951 . S
H2472 C2497 0.951 . S
H2473 C2499 0.950 . S
H2474 C2500 0.950 . S
H2475 C2502 0.950 . S
H2476 C2505 0.950 . S
H2477 C2506 0.950 . S
H2478 C2508 0.950 . S
H2479 C2509 0.950 . S
C2480 H2462 0.951 . S
C2480 C2481 1.366 . S
C2480 C2482 1.388 . S
C2481 C2480 1.366 . S
C2481 C2485 1.385 . S
C2482 H2463 0.951 . S
C2482 C2480 1.388 . S
C2482 C2483 1.366 . S
C2483 C2482 1.366 . S
C2483 C2484 1.414 . S
C2483 C2486 1.499 . S
C2484 H2464 0.950 . S
C2484 C2483 1.414 . S
C2484 C2485 1.374 . S
C2485 H2465 0.950 . S
C2485 C2481 1.385 . S
C2485 C2484 1.374 . S
C2486 C2483 1.499 . S
C2486 C2487 1.373 . S
C2486 C2488 1.389 . S
C2487 H2466 0.950 . S
C2487 C2486 1.373 . S
C2487 C2503 1.377 . S
C2488 C2486 1.389 . S
C2488 C2489 1.524 . S
C2488 C2502 1.377 . S
C2489 C2488 1.524 . S
C2489 C2490 1.397 . S
C2489 C2494 1.363 . S
C2490 H2467 0.950 . S
C2490 C2489 1.397 . S
C2490 C2491 1.334 . S
C2491 H2468 0.950 . S
C2491 C2490 1.334 . S
C2491 C2492 1.287 . S
C2492 C2491 1.287 . S
C2492 C2493 1.524 . S
C2492 H2511 0.913 . S
C2493 H2469 0.950 . S
C2493 C2492 1.524 . S
C2493 C2494 1.415 . S
C2494 H2470 0.950 . S
C2494 C2489 1.363 . S
C2494 C2493 1.415 . S
C2495 H2471 0.951 . S
C2495 C2496 1.366 . S
C2495 C2497 1.388 . S
C2496 C2495 1.366 . S
C2496 C2500 1.385 . S
C2497 H2472 0.951 . S
C2497 C2495 1.388 . S
C2497 C2498 1.366 . S
C2498 C2497 1.366 . S
C2498 C2499 1.414 . S
C2498 C2501 1.499 . S
C2499 H2473 0.950 . S
C2499 C2498 1.414 . S
C2499 C2500 1.374 . S
C2500 H2474 0.950 . S
C2500 C2496 1.385 . S
C2500 C2499 1.374 . S
C2501 C2498 1.499 . S
C2501 C2502 1.373 . S
C2501 C2503 1.389 . S
C2502 H2475 0.950 . S
C2502 C2488 1.377 . S
C2502 C2501 1.373 . S
C2503 C2487 1.377 . S
C2503 C2501 1.389 . S
C2503 C2504 1.524 . S
C2504 C2503 1.524 . S
C2504 C2505 1.397 . S
C2504 C2509 1.363 . S
C2505 H2476 0.950 . S
C2505 C2504 1.397 . S
C2505 C2506 1.334 . S
C2506 H2477 0.950 . S
C2506 C2505 1.334 . S
C2506 C2507 1.287 . S
C2507 C2506 1.287 . S
C2507 C2508 1.524 . S
C2507 H2510 0.999 . S
C2508 H2478 0.950 . S
C2508 C2507 1.524 . S
C2508 C2509 1.415 . S
C2509 H2479 0.950 . S
C2509 C2504 1.363 . S
C2509 C2508 1.415 . S
H2510 C2507 0.999 . S
H2511 C2492 0.913 . S
H2512 C2530 0.951 . S
H2513 C2532 0.951 . S
H2514 C2534 0.950 . S
H2515 C2535 0.950 . S
H2516 C2537 0.950 . S
H2517 C2540 0.950 . S
H2518 C2541 0.950 . S
H2519 C2543 0.950 . S
H2520 C2544 0.950 . S
H2521 C2545 0.951 . S
H2522 C2547 0.951 . S
H2523 C2549 0.950 . S
H2524 C2550 0.950 . S
H2525 C2552 0.950 . S
H2526 C2555 0.950 . S
H2527 C2556 0.950 . S
H2528 C2558 0.950 . S
H2529 C2559 0.950 . S
C2530 H2512 0.951 . S
C2530 C2531 1.366 . S
C2530 C2532 1.388 . S
C2531 C2530 1.366 . S
C2531 C2535 1.385 . S
C2532 H2513 0.951 . S
C2532 C2530 1.388 . S
C2532 C2533 1.366 . S
C2533 C2532 1.366 . S
C2533 C2534 1.414 . S
C2533 C2536 1.499 . S
C2534 H2514 0.950 . S
C2534 C2533 1.414 . S
C2534 C2535 1.374 . S
C2535 H2515 0.950 . S
C2535 C2531 1.385 . S
C2535 C2534 1.374 . S
C2536 C2533 1.499 . S
C2536 C2537 1.373 . S
C2536 C2538 1.389 . S
C2537 H2516 0.950 . S
C2537 C2536 1.373 . S
C2537 C2553 1.377 . S
C2538 C2536 1.389 . S
C2538 C2539 1.524 . S
C2538 C2552 1.377 . S
C2539 C2538 1.524 . S
C2539 C2540 1.397 . S
C2539 C2544 1.363 . S
C2540 H2517 0.950 . S
C2540 C2539 1.397 . S
C2540 C2541 1.334 . S
C2541 H2518 0.950 . S
C2541 C2540 1.334 . S
C2541 C2542 1.287 . S
C2542 C2541 1.287 . S
C2542 C2543 1.524 . S
C2542 H2561 0.913 . S
C2543 H2519 0.950 . S
C2543 C2542 1.524 . S
C2543 C2544 1.415 . S
C2544 H2520 0.950 . S
C2544 C2539 1.363 . S
C2544 C2543 1.415 . S
C2545 H2521 0.951 . S
C2545 C2546 1.366 . S
C2545 C2547 1.388 . S
C2546 C2545 1.366 . S
C2546 C2550 1.385 . S
C2547 H2522 0.951 . S
C2547 C2545 1.388 . S
C2547 C2548 1.366 . S
C2548 C2547 1.366 . S
C2548 C2549 1.414 . S
C2548 C2551 1.499 . S
C2549 H2523 0.950 . S
C2549 C2548 1.414 . S
C2549 C2550 1.374 . S
C2550 H2524 0.950 . S
C2550 C2546 1.385 . S
C2550 C2549 1.374 . S
C2551 C2548 1.499 . S
C2551 C2552 1.373 . S
C2551 C2553 1.389 . S
C2552 H2525 0.950 . S
C2552 C2538 1.377 . S
C2552 C2551 1.373 . S
C2553 C2537 1.377 . S
C2553 C2551 1.389 . S
C2553 C2554 1.524 . S
C2554 C2553 1.524 . S
C2554 C2555 1.397 . S
C2554 C2559 1.363 . S
C2555 H2526 0.950 . S
C2555 C2554 1.397 . S
C2555 C2556 1.334 . S
C2556 H2527 0.950 . S
C2556 C2555 1.334 . S
C2556 C2557 1.287 . S
C2557 C2556 1.287 . S
C2557 C2558 1.524 . S
C2557 H2560 0.999 . S
C2558 H2528 0.950 . S
C2558 C2557 1.524 . S
C2558 C2559 1.415 . S
C2559 H2529 0.950 . S
C2559 C2554 1.363 . S
C2559 C2558 1.415 . S
H2560 C2557 0.999 . S
H2561 C2542 0.913 . S
H2562 C2580 0.951 . S
H2563 C2582 0.951 . S
H2564 C2584 0.950 . S
H2565 C2585 0.950 . S
H2566 C2587 0.950 . S
H2567 C2590 0.950 . S
H2568 C2591 0.950 . S
H2569 C2593 0.950 . S
H2570 C2594 0.950 . S
H2571 C2595 0.951 . S
H2572 C2597 0.951 . S
H2573 C2599 0.950 . S
H2574 C2600 0.950 . S
H2575 C2602 0.950 . S
H2576 C2605 0.950 . S
H2577 C2606 0.950 . S
H2578 C2608 0.950 . S
H2579 C2609 0.950 . S
C2580 H2562 0.951 . S
C2580 C2581 1.366 . S
C2580 C2582 1.388 . S
C2581 C2580 1.366 . S
C2581 C2585 1.385 . S
C2582 H2563 0.951 . S
C2582 C2580 1.388 . S
C2582 C2583 1.366 . S
C2583 C2582 1.366 . S
C2583 C2584 1.414 . S
C2583 C2586 1.499 . S
C2584 H2564 0.950 . S
C2584 C2583 1.414 . S
C2584 C2585 1.374 . S
C2585 H2565 0.950 . S
C2585 C2581 1.385 . S
C2585 C2584 1.374 . S
C2586 C2583 1.499 . S
C2586 C2587 1.373 . S
C2586 C2588 1.389 . S
C2587 H2566 0.950 . S
C2587 C2586 1.373 . S
C2587 C2603 1.377 . S
C2588 C2586 1.389 . S
C2588 C2589 1.524 . S
C2588 C2602 1.377 . S
C2589 C2588 1.524 . S
C2589 C2590 1.397 . S
C2589 C2594 1.363 . S
C2590 H2567 0.950 . S
C2590 C2589 1.397 . S
C2590 C2591 1.334 . S
C2591 H2568 0.950 . S
C2591 C2590 1.334 . S
C2591 C2592 1.287 . S
C2592 C2591 1.287 . S
C2592 C2593 1.524 . S
C2592 H2611 0.913 . S
C2593 H2569 0.950 . S
C2593 C2592 1.524 . S
C2593 C2594 1.415 . S
C2594 H2570 0.950 . S
C2594 C2589 1.363 . S
C2594 C2593 1.415 . S
C2595 H2571 0.951 . S
C2595 C2596 1.366 . S
C2595 C2597 1.388 . S
C2596 C2595 1.366 . S
C2596 C2600 1.385 . S
C2597 H2572 0.951 . S
C2597 C2595 1.388 . S
C2597 C2598 1.366 . S
C2598 C2597 1.366 . S
C2598 C2599 1.414 . S
C2598 C2601 1.499 . S
C2599 H2573 0.950 . S
C2599 C2598 1.414 . S
C2599 C2600 1.374 . S
C2600 H2574 0.950 . S
C2600 C2596 1.385 . S
C2600 C2599 1.374 . S
C2601 C2598 1.499 . S
C2601 C2602 1.373 . S
C2601 C2603 1.389 . S
C2602 H2575 0.950 . S
C2602 C2588 1.377 . S
C2602 C2601 1.373 . S
C2603 C2587 1.377 . S
C2603 C2601 1.389 . S
C2603 C2604 1.524 . S
C2604 C2603 1.524 . S
C2604 C2605 1.397 . S
C2604 C2609 1.363 . S
C2605 H2576 0.950 . S
C2605 C2604 1.397 . S
C2605 C2606 1.334 . S
C2606 H2577 0.950 . S
C2606 C2605 1.334 . S
C2606 C2607 1.287 . S
C2607 C2606 1.287 . S
C2607 C2608 1.524 . S
C2607 H2610 0.999 . S
C2608 H2578 0.950 . S
C2608 C2607 1.524 . S
C2608 C2609 1.415 . S
C2609 H2579 0.950 . S
C2609 C2604 1.363 . S
C2609 C2608 1.415 . S
H2610 C2607 0.999 . S
H2611 C2592 0.913 . S
H2612 C2630 0.951 . S
H2613 C2632 0.951 . S
H2614 C2634 0.950 . S
H2615 C2635 0.950 . S
H2616 C2637 0.950 . S
H2617 C2640 0.950 . S
H2618 C2641 0.950 . S
H2619 C2643 0.950 . S
H2620 C2644 0.950 . S
H2621 C2645 0.951 . S
H2622 C2647 0.951 . S
H2623 C2649 0.950 . S
H2624 C2650 0.950 . S
H2625 C2652 0.950 . S
H2626 C2655 0.950 . S
H2627 C2656 0.950 . S
H2628 C2658 0.950 . S
H2629 C2659 0.950 . S
C2630 H2612 0.951 . S
C2630 C2631 1.366 . S
C2630 C2632 1.388 . S
C2631 C2630 1.366 . S
C2631 C2635 1.385 . S
C2632 H2613 0.951 . S
C2632 C2630 1.388 . S
C2632 C2633 1.366 . S
C2633 C2632 1.366 . S
C2633 C2634 1.414 . S
C2633 C2636 1.499 . S
C2634 H2614 0.950 . S
C2634 C2633 1.414 . S
C2634 C2635 1.374 . S
C2635 H2615 0.950 . S
C2635 C2631 1.385 . S
C2635 C2634 1.374 . S
C2636 C2633 1.499 . S
C2636 C2637 1.373 . S
C2636 C2638 1.389 . S
C2637 H2616 0.950 . S
C2637 C2636 1.373 . S
C2637 C2653 1.377 . S
C2638 C2636 1.389 . S
C2638 C2639 1.524 . S
C2638 C2652 1.377 . S
C2639 C2638 1.524 . S
C2639 C2640 1.397 . S
C2639 C2644 1.363 . S
C2640 H2617 0.950 . S
C2640 C2639 1.397 . S
C2640 C2641 1.334 . S
C2641 H2618 0.950 . S
C2641 C2640 1.334 . S
C2641 C2642 1.287 . S
C2642 C2641 1.287 . S
C2642 C2643 1.524 . S
C2642 H2661 0.913 . S
C2643 H2619 0.950 . S
C2643 C2642 1.524 . S
C2643 C2644 1.415 . S
C2644 H2620 0.950 . S
C2644 C2639 1.363 . S
C2644 C2643 1.415 . S
C2645 H2621 0.951 . S
C2645 C2646 1.366 . S
C2645 C2647 1.388 . S
C2646 C2645 1.366 . S
C2646 C2650 1.385 . S
C2647 H2622 0.951 . S
C2647 C2645 1.388 . S
C2647 C2648 1.366 . S
C2648 C2647 1.366 . S
C2648 C2649 1.414 . S
C2648 C2651 1.499 . S
C2649 H2623 0.950 . S
C2649 C2648 1.414 . S
C2649 C2650 1.374 . S
C2650 H2624 0.950 . S
C2650 C2646 1.385 . S
C2650 C2649 1.374 . S
C2651 C2648 1.499 . S
C2651 C2652 1.373 . S
C2651 C2653 1.389 . S
C2652 H2625 0.950 . S
C2652 C2638 1.377 . S
C2652 C2651 1.373 . S
C2653 C2637 1.377 . S
C2653 C2651 1.389 . S
C2653 C2654 1.524 . S
C2654 C2653 1.524 . S
C2654 C2655 1.397 . S
C2654 C2659 1.363 . S
C2655 H2626 0.950 . S
C2655 C2654 1.397 . S
C2655 C2656 1.334 . S
C2656 H2627 0.950 . S
C2656 C2655 1.334 . S
C2656 C2657 1.287 . S
C2657 C2656 1.287 . S
C2657 C2658 1.524 . S
C2657 H2660 0.999 . S
C2658 H2628 0.950 . S
C2658 C2657 1.524 . S
C2658 C2659 1.415 . S
C2659 H2629 0.950 . S
C2659 C2654 1.363 . S
C2659 C2658 1.415 . S
H2660 C2657 0.999 . S
H2661 C2642 0.913 . S
H2662 C2680 0.951 . S
H2663 C2682 0.951 . S
H2664 C2684 0.950 . S
H2665 C2685 0.950 . S
H2666 C2687 0.950 . S
H2667 C2690 0.950 . S
H2668 C2691 0.950 . S
H2669 C2693 0.950 . S
H2670 C2694 0.950 . S
H2671 C2695 0.951 . S
H2672 C2697 0.951 . S
H2673 C2699 0.950 . S
H2674 C2700 0.950 . S
H2675 C2702 0.950 . S
H2676 C2705 0.950 . S
H2677 C2706 0.950 . S
H2678 C2708 0.950 . S
H2679 C2709 0.950 . S
C2680 H2662 0.951 . S
C2680 C2681 1.366 . S
C2680 C2682 1.388 . S
C2681 C2680 1.366 . S
C2681 C2685 1.385 . S
C2682 H2663 0.951 . S
C2682 C2680 1.388 . S
C2682 C2683 1.366 . S
C2683 C2682 1.366 . S
C2683 C2684 1.414 . S
C2683 C2686 1.499 . S
C2684 H2664 0.950 . S
C2684 C2683 1.414 . S
C2684 C2685 1.374 . S
C2685 H2665 0.950 . S
C2685 C2681 1.385 . S
C2685 C2684 1.374 . S
C2686 C2683 1.499 . S
C2686 C2687 1.373 . S
C2686 C2688 1.389 . S
C2687 H2666 0.950 . S
C2687 C2686 1.373 . S
C2687 C2703 1.377 . S
C2688 C2686 1.389 . S
C2688 C2689 1.524 . S
C2688 C2702 1.377 . S
C2689 C2688 1.524 . S
C2689 C2690 1.397 . S
C2689 C2694 1.363 . S
C2690 H2667 0.950 . S
C2690 C2689 1.397 . S
C2690 C2691 1.334 . S
C2691 H2668 0.950 . S
C2691 C2690 1.334 . S
C2691 C2692 1.287 . S
C2692 C2691 1.287 . S
C2692 C2693 1.524 . S
C2692 H2711 0.913 . S
C2693 H2669 0.950 . S
C2693 C2692 1.524 . S
C2693 C2694 1.415 . S
C2694 H2670 0.950 . S
C2694 C2689 1.363 . S
C2694 C2693 1.415 . S
C2695 H2671 0.951 . S
C2695 C2696 1.366 . S
C2695 C2697 1.388 . S
C2696 C2695 1.366 . S
C2696 C2700 1.385 . S
C2697 H2672 0.951 . S
C2697 C2695 1.388 . S
C2697 C2698 1.366 . S
C2698 C2697 1.366 . S
C2698 C2699 1.414 . S
C2698 C2701 1.499 . S
C2699 H2673 0.950 . S
C2699 C2698 1.414 . S
C2699 C2700 1.374 . S
C2700 H2674 0.950 . S
C2700 C2696 1.385 . S
C2700 C2699 1.374 . S
C2701 C2698 1.499 . S
C2701 C2702 1.373 . S
C2701 C2703 1.389 . S
C2702 H2675 0.950 . S
C2702 C2688 1.377 . S
C2702 C2701 1.373 . S
C2703 C2687 1.377 . S
C2703 C2701 1.389 . S
C2703 C2704 1.524 . S
C2704 C2703 1.524 . S
C2704 C2705 1.397 . S
C2704 C2709 1.363 . S
C2705 H2676 0.950 . S
C2705 C2704 1.397 . S
C2705 C2706 1.334 . S
C2706 H2677 0.950 . S
C2706 C2705 1.334 . S
C2706 C2707 1.287 . S
C2707 C2706 1.287 . S
C2707 C2708 1.524 . S
C2707 H2710 0.999 . S
C2708 H2678 0.950 . S
C2708 C2707 1.524 . S
C2708 C2709 1.415 . S
C2709 H2679 0.950 . S
C2709 C2704 1.363 . S
C2709 C2708 1.415 . S
H2710 C2707 0.999 . S
H2711 C2692 0.913 . S
H2712 C2730 0.951 . S
H2713 C2732 0.951 . S
H2714 C2734 0.950 . S
H2715 C2735 0.950 . S
H2716 C2737 0.950 . S
H2717 C2740 0.950 . S
H2718 C2741 0.950 . S
H2719 C2743 0.950 . S
H2720 C2744 0.950 . S
H2721 C2745 0.951 . S
H2722 C2747 0.951 . S
H2723 C2749 0.950 . S
H2724 C2750 0.950 . S
H2725 C2752 0.950 . S
H2726 C2755 0.950 . S
H2727 C2756 0.950 . S
H2728 C2758 0.950 . S
H2729 C2759 0.950 . S
C2730 H2712 0.951 . S
C2730 C2731 1.366 . S
C2730 C2732 1.388 . S
C2731 C2730 1.366 . S
C2731 C2735 1.385 . S
C2732 H2713 0.951 . S
C2732 C2730 1.388 . S
C2732 C2733 1.366 . S
C2733 C2732 1.366 . S
C2733 C2734 1.414 . S
C2733 C2736 1.499 . S
C2734 H2714 0.950 . S
C2734 C2733 1.414 . S
C2734 C2735 1.374 . S
C2735 H2715 0.950 . S
C2735 C2731 1.385 . S
C2735 C2734 1.374 . S
C2736 C2733 1.499 . S
C2736 C2737 1.373 . S
C2736 C2738 1.389 . S
C2737 H2716 0.950 . S
C2737 C2736 1.373 . S
C2737 C2753 1.377 . S
C2738 C2736 1.389 . S
C2738 C2739 1.524 . S
C2738 C2752 1.377 . S
C2739 C2738 1.524 . S
C2739 C2740 1.397 . S
C2739 C2744 1.363 . S
C2740 H2717 0.950 . S
C2740 C2739 1.397 . S
C2740 C2741 1.334 . S
C2741 H2718 0.950 . S
C2741 C2740 1.334 . S
C2741 C2742 1.287 . S
C2742 C2741 1.287 . S
C2742 C2743 1.524 . S
C2742 H2761 0.913 . S
C2743 H2719 0.950 . S
C2743 C2742 1.524 . S
C2743 C2744 1.415 . S
C2744 H2720 0.950 . S
C2744 C2739 1.363 . S
C2744 C2743 1.415 . S
C2745 H2721 0.951 . S
C2745 C2746 1.366 . S
C2745 C2747 1.388 . S
C2746 C2745 1.366 . S
C2746 C2750 1.385 . S
C2747 H2722 0.951 . S
C2747 C2745 1.388 . S
C2747 C2748 1.366 . S
C2748 C2747 1.366 . S
C2748 C2749 1.414 . S
C2748 C2751 1.499 . S
C2749 H2723 0.950 . S
C2749 C2748 1.414 . S
C2749 C2750 1.374 . S
C2750 H2724 0.950 . S
C2750 C2746 1.385 . S
C2750 C2749 1.374 . S
C2751 C2748 1.499 . S
C2751 C2752 1.373 . S
C2751 C2753 1.389 . S
C2752 H2725 0.950 . S
C2752 C2738 1.377 . S
C2752 C2751 1.373 . S
C2753 C2737 1.377 . S
C2753 C2751 1.389 . S
C2753 C2754 1.524 . S
C2754 C2753 1.524 . S
C2754 C2755 1.397 . S
C2754 C2759 1.363 . S
C2755 H2726 0.950 . S
C2755 C2754 1.397 . S
C2755 C2756 1.334 . S
C2756 H2727 0.950 . S
C2756 C2755 1.334 . S
C2756 C2757 1.287 . S
C2757 C2756 1.287 . S
C2757 C2758 1.524 . S
C2757 H2760 0.999 . S
C2758 H2728 0.950 . S
C2758 C2757 1.524 . S
C2758 C2759 1.415 . S
C2759 H2729 0.950 . S
C2759 C2754 1.363 . S
C2759 C2758 1.415 . S
H2760 C2757 0.999 . S
H2761 C2742 0.913 . S
H2762 C2780 0.951 . S
H2763 C2782 0.951 . S
H2764 C2784 0.950 . S
H2765 C2785 0.950 . S
H2766 C2787 0.950 . S
H2767 C2790 0.950 . S
H2768 C2791 0.950 . S
H2769 C2793 0.950 . S
H2770 C2794 0.950 . S
H2771 C2795 0.951 . S
H2772 C2797 0.951 . S
H2773 C2799 0.950 . S
H2774 C2800 0.950 . S
H2775 C2802 0.950 . S
H2776 C2805 0.950 . S
H2777 C2806 0.950 . S
H2778 C2808 0.950 . S
H2779 C2809 0.950 . S
C2780 H2762 0.951 . S
C2780 C2781 1.366 . S
C2780 C2782 1.388 . S
C2781 C2780 1.366 . S
C2781 C2785 1.385 . S
C2782 H2763 0.951 . S
C2782 C2780 1.388 . S
C2782 C2783 1.366 . S
C2783 C2782 1.366 . S
C2783 C2784 1.414 . S
C2783 C2786 1.499 . S
C2784 H2764 0.950 . S
C2784 C2783 1.414 . S
C2784 C2785 1.374 . S
C2785 H2765 0.950 . S
C2785 C2781 1.385 . S
C2785 C2784 1.374 . S
C2786 C2783 1.499 . S
C2786 C2787 1.373 . S
C2786 C2788 1.389 . S
C2787 H2766 0.950 . S
C2787 C2786 1.373 . S
C2787 C2803 1.377 . S
C2788 C2786 1.389 . S
C2788 C2789 1.524 . S
C2788 C2802 1.377 . S
C2789 C2788 1.524 . S
C2789 C2790 1.397 . S
C2789 C2794 1.363 . S
C2790 H2767 0.950 . S
C2790 C2789 1.397 . S
C2790 C2791 1.334 . S
C2791 H2768 0.950 . S
C2791 C2790 1.334 . S
C2791 C2792 1.287 . S
C2792 C2791 1.287 . S
C2792 C2793 1.524 . S
C2792 H2811 0.913 . S
C2793 H2769 0.950 . S
C2793 C2792 1.524 . S
C2793 C2794 1.415 . S
C2794 H2770 0.950 . S
C2794 C2789 1.363 . S
C2794 C2793 1.415 . S
C2795 H2771 0.951 . S
C2795 C2796 1.366 . S
C2795 C2797 1.388 . S
C2796 C2795 1.366 . S
C2796 C2800 1.385 . S
C2797 H2772 0.951 . S
C2797 C2795 1.388 . S
C2797 C2798 1.366 . S
C2798 C2797 1.366 . S
C2798 C2799 1.414 . S
C2798 C2801 1.499 . S
C2799 H2773 0.950 . S
C2799 C2798 1.414 . S
C2799 C2800 1.374 . S
C2800 H2774 0.950 . S
C2800 C2796 1.385 . S
C2800 C2799 1.374 . S
C2801 C2798 1.499 . S
C2801 C2802 1.373 . S
C2801 C2803 1.389 . S
C2802 H2775 0.950 . S
C2802 C2788 1.377 . S
C2802 C2801 1.373 . S
C2803 C2787 1.377 . S
C2803 C2801 1.389 . S
C2803 C2804 1.524 . S
C2804 C2803 1.524 . S
C2804 C2805 1.397 . S
C2804 C2809 1.363 . S
C2805 H2776 0.950 . S
C2805 C2804 1.397 . S
C2805 C2806 1.334 . S
C2806 H2777 0.950 . S
C2806 C2805 1.334 . S
C2806 C2807 1.287 . S
C2807 C2806 1.287 . S
C2807 C2808 1.524 . S
C2807 H2810 0.999 . S
C2808 H2778 0.950 . S
C2808 C2807 1.524 . S
C2808 C2809 1.415 . S
C2809 H2779 0.950 . S
C2809 C2804 1.363 . S
C2809 C2808 1.415 . S
H2810 C2807 0.999 . S
H2811 C2792 0.913 . S
H2812 C2830 0.951 . S
H2813 C2832 0.951 . S
H2814 C2834 0.950 . S
H2815 C2835 0.950 . S
H2816 C2837 0.950 . S
H2817 C2840 0.950 . S
H2818 C2841 0.950 . S
H2819 C2843 0.950 . S
H2820 C2844 0.950 . S
H2821 C2845 0.951 . S
H2822 C2847 0.951 . S
H2823 C2849 0.950 . S
H2824 C2850 0.950 . S
H2825 C2852 0.950 . S
H2826 C2855 0.950 . S
H2827 C2856 0.950 . S
H2828 C2858 0.950 . S
H2829 C2859 0.950 . S
C2830 H2812 0.951 . S
C2830 C2831 1.366 . S
C2830 C2832 1.388 . S
C2831 C2830 1.366 . S
C2831 C2835 1.385 . S
C2832 H2813 0.951 . S
C2832 C2830 1.388 . S
C2832 C2833 1.366 . S
C2833 C2832 1.366 . S
C2833 C2834 1.414 . S
C2833 C2836 1.499 . S
C2834 H2814 0.950 . S
C2834 C2833 1.414 . S
C2834 C2835 1.374 . S
C2835 H2815 0.950 . S
C2835 C2831 1.385 . S
C2835 C2834 1.374 . S
C2836 C2833 1.499 . S
C2836 C2837 1.373 . S
C2836 C2838 1.389 . S
C2837 H2816 0.950 . S
C2837 C2836 1.373 . S
C2837 C2853 1.377 . S
C2838 C2836 1.389 . S
C2838 C2839 1.524 . S
C2838 C2852 1.377 . S
C2839 C2838 1.524 . S
C2839 C2840 1.397 . S
C2839 C2844 1.363 . S
C2840 H2817 0.950 . S
C2840 C2839 1.397 . S
C2840 C2841 1.334 . S
C2841 H2818 0.950 . S
C2841 C2840 1.334 . S
C2841 C2842 1.287 . S
C2842 C2841 1.287 . S
C2842 C2843 1.524 . S
C2842 H2861 0.913 . S
C2843 H2819 0.950 . S
C2843 C2842 1.524 . S
C2843 C2844 1.415 . S
C2844 H2820 0.950 . S
C2844 C2839 1.363 . S
C2844 C2843 1.415 . S
C2845 H2821 0.951 . S
C2845 C2846 1.366 . S
C2845 C2847 1.388 . S
C2846 C2845 1.366 . S
C2846 C2850 1.385 . S
C2847 H2822 0.951 . S
C2847 C2845 1.388 . S
C2847 C2848 1.366 . S
C2848 C2847 1.366 . S
C2848 C2849 1.414 . S
C2848 C2851 1.499 . S
C2849 H2823 0.950 . S
C2849 C2848 1.414 . S
C2849 C2850 1.374 . S
C2850 H2824 0.950 . S
C2850 C2846 1.385 . S
C2850 C2849 1.374 . S
C2851 C2848 1.499 . S
C2851 C2852 1.373 . S
C2851 C2853 1.389 . S
C2852 H2825 0.950 . S
C2852 C2838 1.377 . S
C2852 C2851 1.373 . S
C2853 C2837 1.377 . S
C2853 C2851 1.389 . S
C2853 C2854 1.524 . S
C2854 C2853 1.524 . S
C2854 C2855 1.397 . S
C2854 C2859 1.363 . S
C2855 H2826 0.950 . S
C2855 C2854 1.397 . S
C2855 C2856 1.334 . S
C2856 H2827 0.950 . S
C2856 C2855 1.334 . S
C2856 C2857 1.287 . S
C2857 C2856 1.287 . S
C2857 C2858 1.524 . S
C2857 H2860 0.999 . S
C2858 H2828 0.950 . S
C2858 C2857 1.524 . S
C2858 C2859 1.415 . S
C2859 H2829 0.950 . S
C2859 C2854 1.363 . S
C2859 C2858 1.415 . S
H2860 C2857 0.999 . S
H2861 C2842 0.913 . S
H2862 C2880 0.951 . S
H2863 C2882 0.951 . S
H2864 C2884 0.950 . S
H2865 C2885 0.950 . S
H2866 C2887 0.950 . S
H2867 C2890 0.950 . S
H2868 C2891 0.950 . S
H2869 C2893 0.950 . S
H2870 C2894 0.950 . S
H2871 C2895 0.951 . S
H2872 C2897 0.951 . S
H2873 C2899 0.950 . S
H2874 C2900 0.950 . S
H2875 C2902 0.950 . S
H2876 C2905 0.950 . S
H2877 C2906 0.950 . S
H2878 C2908 0.950 . S
H2879 C2909 0.950 . S
C2880 H2862 0.951 . S
C2880 C2881 1.366 . S
C2880 C2882 1.388 . S
C2881 C2880 1.366 . S
C2881 C2885 1.385 . S
C2882 H2863 0.951 . S
C2882 C2880 1.388 . S
C2882 C2883 1.366 . S
C2883 C2882 1.366 . S
C2883 C2884 1.414 . S
C2883 C2886 1.499 . S
C2884 H2864 0.950 . S
C2884 C2883 1.414 . S
C2884 C2885 1.374 . S
C2885 H2865 0.950 . S
C2885 C2881 1.385 . S
C2885 C2884 1.374 . S
C2886 C2883 1.499 . S
C2886 C2887 1.373 . S
C2886 C2888 1.389 . S
C2887 H2866 0.950 . S
C2887 C2886 1.373 . S
C2887 C2903 1.377 . S
C2888 C2886 1.389 . S
C2888 C2889 1.524 . S
C2888 C2902 1.377 . S
C2889 C2888 1.524 . S
C2889 C2890 1.397 . S
C2889 C2894 1.363 . S
C2890 H2867 0.950 . S
C2890 C2889 1.397 . S
C2890 C2891 1.334 . S
C2891 H2868 0.950 . S
C2891 C2890 1.334 . S
C2891 C2892 1.287 . S
C2892 C2891 1.287 . S
C2892 C2893 1.524 . S
C2892 H2911 0.913 . S
C2893 H2869 0.950 . S
C2893 C2892 1.524 . S
C2893 C2894 1.415 . S
C2894 H2870 0.950 . S
C2894 C2889 1.363 . S
C2894 C2893 1.415 . S
C2895 H2871 0.951 . S
C2895 C2896 1.366 . S
C2895 C2897 1.388 . S
C2896 C2895 1.366 . S
C2896 C2900 1.385 . S
C2897 H2872 0.951 . S
C2897 C2895 1.388 . S
C2897 C2898 1.366 . S
C2898 C2897 1.366 . S
C2898 C2899 1.414 . S
C2898 C2901 1.499 . S
C2899 H2873 0.950 . S
C2899 C2898 1.414 . S
C2899 C2900 1.374 . S
C2900 H2874 0.950 . S
C2900 C2896 1.385 . S
C2900 C2899 1.374 . S
C2901 C2898 1.499 . S
C2901 C2902 1.373 . S
C2901 C2903 1.389 . S
C2902 H2875 0.950 . S
C2902 C2888 1.377 . S
C2902 C2901 1.373 . S
C2903 C2887 1.377 . S
C2903 C2901 1.389 . S
C2903 C2904 1.524 . S
C2904 C2903 1.524 . S
C2904 C2905 1.397 . S
C2904 C2909 1.363 . S
C2905 H2876 0.950 . S
C2905 C2904 1.397 . S
C2905 C2906 1.334 . S
C2906 H2877 0.950 . S
C2906 C2905 1.334 . S
C2906 C2907 1.287 . S
C2907 C2906 1.287 . S
C2907 C2908 1.524 . S
C2907 H2910 0.999 . S
C2908 H2878 0.950 . S
C2908 C2907 1.524 . S
C2908 C2909 1.415 . S
C2909 H2879 0.950 . S
C2909 C2904 1.363 . S
C2909 C2908 1.415 . S
H2910 C2907 0.999 . S
H2911 C2892 0.913 . S
H2912 C2930 0.951 . S
H2913 C2932 0.951 . S
H2914 C2934 0.950 . S
H2915 C2935 0.950 . S
H2916 C2937 0.950 . S
H2917 C2940 0.950 . S
H2918 C2941 0.950 . S
H2919 C2943 0.950 . S
H2920 C2944 0.950 . S
H2921 C2945 0.951 . S
H2922 C2947 0.951 . S
H2923 C2949 0.950 . S
H2924 C2950 0.950 . S
H2925 C2952 0.950 . S
H2926 C2955 0.950 . S
H2927 C2956 0.950 . S
H2928 C2958 0.950 . S
H2929 C2959 0.950 . S
C2930 H2912 0.951 . S
C2930 C2931 1.366 . S
C2930 C2932 1.388 . S
C2931 C2930 1.366 . S
C2931 C2935 1.385 . S
C2932 H2913 0.951 . S
C2932 C2930 1.388 . S
C2932 C2933 1.366 . S
C2933 C2932 1.366 . S
C2933 C2934 1.414 . S
C2933 C2936 1.499 . S
C2934 H2914 0.950 . S
C2934 C2933 1.414 . S
C2934 C2935 1.374 . S
C2935 H2915 0.950 . S
C2935 C2931 1.385 . S
C2935 C2934 1.374 . S
C2936 C2933 1.499 . S
C2936 C2937 1.373 . S
C2936 C2938 1.389 . S
C2937 H2916 0.950 . S
C2937 C2936 1.373 . S
C2937 C2953 1.377 . S
C2938 C2936 1.389 . S
C2938 C2939 1.524 . S
C2938 C2952 1.377 . S
C2939 C2938 1.524 . S
C2939 C2940 1.397 . S
C2939 C2944 1.363 . S
C2940 H2917 0.950 . S
C2940 C2939 1.397 . S
C2940 C2941 1.334 . S
C2941 H2918 0.950 . S
C2941 C2940 1.334 . S
C2941 C2942 1.287 . S
C2942 C2941 1.287 . S
C2942 C2943 1.524 . S
C2942 H2961 0.913 . S
C2943 H2919 0.950 . S
C2943 C2942 1.524 . S
C2943 C2944 1.415 . S
C2944 H2920 0.950 . S
C2944 C2939 1.363 . S
C2944 C2943 1.415 . S
C2945 H2921 0.951 . S
C2945 C2946 1.366 . S
C2945 C2947 1.388 . S
C2946 C2945 1.366 . S
C2946 C2950 1.385 . S
C2947 H2922 0.951 . S
C2947 C2945 1.388 . S
C2947 C2948 1.366 . S
C2948 C2947 1.366 . S
C2948 C2949 1.414 . S
C2948 C2951 1.499 . S
C2949 H2923 0.950 . S
C2949 C2948 1.414 . S
C2949 C2950 1.374 . S
C2950 H2924 0.950 . S
C2950 C2946 1.385 . S
C2950 C2949 1.374 . S
C2951 C2948 1.499 . S
C2951 C2952 1.373 . S
C2951 C2953 1.389 . S
C2952 H2925 0.950 . S
C2952 C2938 1.377 . S
C2952 C2951 1.373 . S
C2953 C2937 1.377 . S
C2953 C2951 1.389 . S
C2953 C2954 1.524 . S
C2954 C2953 1.524 . S
C2954 C2955 1.397 . S
C2954 C2959 1.363 . S
C2955 H2926 0.950 . S
C2955 C2954 1.397 . S
C2955 C2956 1.334 . S
C2956 H2927 0.950 . S
C2956 C2955 1.334 . S
C2956 C2957 1.287 . S
C2957 C2956 1.287 . S
C2957 C2958 1.524 . S
C2957 H2960 0.999 . S
C2958 H2928 0.950 . S
C2958 C2957 1.524 . S
C2958 C2959 1.415 . S
C2959 H2929 0.950 . S
C2959 C2954 1.363 . S
C2959 C2958 1.415 . S
H2960 C2957 0.999 . S
H2961 C2942 0.913 . S
H2962 C2980 0.951 . S
H2963 C2982 0.951 . S
H2964 C2984 0.950 . S
H2965 C2985 0.950 . S
H2966 C2987 0.950 . S
H2967 C2990 0.950 . S
H2968 C2991 0.950 . S
H2969 C2993 0.950 . S
H2970 C2994 0.950 . S
H2971 C2995 0.951 . S
H2972 C2997 0.951 . S
H2973 C2999 0.950 . S
H2974 C3000 0.950 . S
H2975 C3002 0.950 . S
H2976 C3005 0.950 . S
H2977 C3006 0.950 . S
H2978 C3008 0.950 . S
H2979 C3009 0.950 . S
C2980 H2962 0.951 . S
C2980 C2981 1.366 . S
C2980 C2982 1.388 . S
C2981 C2980 1.366 . S
C2981 C2985 1.385 . S
C2982 H2963 0.951 . S
C2982 C2980 1.388 . S
C2982 C2983 1.366 . S
C2983 C2982 1.366 . S
C2983 C2984 1.414 . S
C2983 C2986 1.499 . S
C2984 H2964 0.950 . S
C2984 C2983 1.414 . S
C2984 C2985 1.374 . S
C2985 H2965 0.950 . S
C2985 C2981 1.385 . S
C2985 C2984 1.374 . S
C2986 C2983 1.499 . S
C2986 C2987 1.373 . S
C2986 C2988 1.389 . S
C2987 H2966 0.950 . S
C2987 C2986 1.373 . S
C2987 C3003 1.377 . S
C2988 C2986 1.389 . S
C2988 C2989 1.524 . S
C2988 C3002 1.377 . S
C2989 C2988 1.524 . S
C2989 C2990 1.397 . S
C2989 C2994 1.363 . S
C2990 H2967 0.950 . S
C2990 C2989 1.397 . S
C2990 C2991 1.334 . S
C2991 H2968 0.950 . S
C2991 C2990 1.334 . S
C2991 C2992 1.287 . S
C2992 C2991 1.287 . S
C2992 C2993 1.524 . S
C2992 H3011 0.913 . S
C2993 H2969 0.950 . S
C2993 C2992 1.524 . S
C2993 C2994 1.415 . S
C2994 H2970 0.950 . S
C2994 C2989 1.363 . S
C2994 C2993 1.415 . S
C2995 H2971 0.951 . S
C2995 C2996 1.366 . S
C2995 C2997 1.388 . S
C2996 C2995 1.366 . S
C2996 C3000 1.385 . S
C2997 H2972 0.951 . S
C2997 C2995 1.388 . S
C2997 C2998 1.366 . S
C2998 C2997 1.366 . S
C2998 C2999 1.414 . S
C2998 C3001 1.499 . S
C2999 H2973 0.950 . S
C2999 C2998 1.414 . S
C2999 C3000 1.374 . S
C3000 H2974 0.950 . S
C3000 C2996 1.385 . S
C3000 C2999 1.374 . S
C3001 C2998 1.499 . S
C3001 C3002 1.373 . S
C3001 C3003 1.389 . S
C3002 H2975 0.950 . S
C3002 C2988 1.377 . S
C3002 C3001 1.373 . S
C3003 C2987 1.377 . S
C3003 C3001 1.389 . S
C3003 C3004 1.524 . S
C3004 C3003 1.524 . S
C3004 C3005 1.397 . S
C3004 C3009 1.363 . S
C3005 H2976 0.950 . S
C3005 C3004 1.397 . S
C3005 C3006 1.334 . S
C3006 H2977 0.950 . S
C3006 C3005 1.334 . S
C3006 C3007 1.287 . S
C3007 C3006 1.287 . S
C3007 C3008 1.524 . S
C3007 H3010 0.999 . S
C3008 H2978 0.950 . S
C3008 C3007 1.524 . S
C3008 C3009 1.415 . S
C3009 H2979 0.950 . S
C3009 C3004 1.363 . S
C3009 C3008 1.415 . S
H3010 C3007 0.999 . S
H3011 C2992 0.913 . S
H3012 C3030 0.951 . S
H3013 C3032 0.951 . S
H3014 C3034 0.950 . S
H3015 C3035 0.950 . S
H3016 C3037 0.950 . S
H3017 C3040 0.950 . S
H3018 C3041 0.950 . S
H3019 C3043 0.950 . S
H3020 C3044 0.950 . S
H3021 C3045 0.951 . S
H3022 C3047 0.951 . S
H3023 C3049 0.950 . S
H3024 C3050 0.950 . S
H3025 C3052 0.950 . S
H3026 C3055 0.950 . S
H3027 C3056 0.950 . S
H3028 C3058 0.950 . S
H3029 C3059 0.950 . S
C3030 H3012 0.951 . S
C3030 C3031 1.366 . S
C3030 C3032 1.388 . S
C3031 C3030 1.366 . S
C3031 C3035 1.385 . S
C3032 H3013 0.951 . S
C3032 C3030 1.388 . S
C3032 C3033 1.366 . S
C3033 C3032 1.366 . S
C3033 C3034 1.414 . S
C3033 C3036 1.499 . S
C3034 H3014 0.950 . S
C3034 C3033 1.414 . S
C3034 C3035 1.374 . S
C3035 H3015 0.950 . S
C3035 C3031 1.385 . S
C3035 C3034 1.374 . S
C3036 C3033 1.499 . S
C3036 C3037 1.373 . S
C3036 C3038 1.389 . S
C3037 H3016 0.950 . S
C3037 C3036 1.373 . S
C3037 C3053 1.377 . S
C3038 C3036 1.389 . S
C3038 C3039 1.524 . S
C3038 C3052 1.377 . S
C3039 C3038 1.524 . S
C3039 C3040 1.397 . S
C3039 C3044 1.363 . S
C3040 H3017 0.950 . S
C3040 C3039 1.397 . S
C3040 C3041 1.334 . S
C3041 H3018 0.950 . S
C3041 C3040 1.334 . S
C3041 C3042 1.287 . S
C3042 C3041 1.287 . S
C3042 C3043 1.524 . S
C3042 H3061 0.913 . S
C3043 H3019 0.950 . S
C3043 C3042 1.524 . S
C3043 C3044 1.415 . S
C3044 H3020 0.950 . S
C3044 C3039 1.363 . S
C3044 C3043 1.415 . S
C3045 H3021 0.951 . S
C3045 C3046 1.366 . S
C3045 C3047 1.388 . S
C3046 C3045 1.366 . S
C3046 C3050 1.385 . S
C3047 H3022 0.951 . S
C3047 C3045 1.388 . S
C3047 C3048 1.366 . S
C3048 C3047 1.366 . S
C3048 C3049 1.414 . S
C3048 C3051 1.499 . S
C3049 H3023 0.950 . S
C3049 C3048 1.414 . S
C3049 C3050 1.374 . S
C3050 H3024 0.950 . S
C3050 C3046 1.385 . S
C3050 C3049 1.374 . S
C3051 C3048 1.499 . S
C3051 C3052 1.373 . S
C3051 C3053 1.389 . S
C3052 H3025 0.950 . S
C3052 C3038 1.377 . S
C3052 C3051 1.373 . S
C3053 C3037 1.377 . S
C3053 C3051 1.389 . S
C3053 C3054 1.524 . S
C3054 C3053 1.524 . S
C3054 C3055 1.397 . S
C3054 C3059 1.363 . S
C3055 H3026 0.950 . S
C3055 C3054 1.397 . S
C3055 C3056 1.334 . S
C3056 H3027 0.950 . S
C3056 C3055 1.334 . S
C3056 C3057 1.287 . S
C3057 C3056 1.287 . S
C3057 C3058 1.524 . S
C3057 H3060 0.999 . S
C3058 H3028 0.950 . S
C3058 C3057 1.524 . S
C3058 C3059 1.415 . S
C3059 H3029 0.950 . S
C3059 C3054 1.363 . S
C3059 C3058 1.415 . S
H3060 C3057 0.999 . S
H3061 C3042 0.913 . S
H3062 C3080 0.951 . S
H3063 C3082 0.951 . S
H3064 C3084 0.950 . S
H3065 C3085 0.950 . S
H3066 C3087 0.950 . S
H3067 C3090 0.950 . S
H3068 C3091 0.950 . S
H3069 C3093 0.950 . S
H3070 C3094 0.950 . S
H3071 C3095 0.951 . S
H3072 C3097 0.951 . S
H3073 C3099 0.950 . S
H3074 C3100 0.950 . S
H3075 C3102 0.950 . S
H3076 C3105 0.950 . S
H3077 C3106 0.950 . S
H3078 C3108 0.950 . S
H3079 C3109 0.950 . S
C3080 H3062 0.951 . S
C3080 C3081 1.366 . S
C3080 C3082 1.388 . S
C3081 C3080 1.366 . S
C3081 C3085 1.385 . S
C3082 H3063 0.951 . S
C3082 C3080 1.388 . S
C3082 C3083 1.366 . S
C3083 C3082 1.366 . S
C3083 C3084 1.414 . S
C3083 C3086 1.499 . S
C3084 H3064 0.950 . S
C3084 C3083 1.414 . S
C3084 C3085 1.374 . S
C3085 H3065 0.950 . S
C3085 C3081 1.385 . S
C3085 C3084 1.374 . S
C3086 C3083 1.499 . S
C3086 C3087 1.373 . S
C3086 C3088 1.389 . S
C3087 H3066 0.950 . S
C3087 C3086 1.373 . S
C3087 C3103 1.377 . S
C3088 C3086 1.389 . S
C3088 C3089 1.524 . S
C3088 C3102 1.377 . S
C3089 C3088 1.524 . S
C3089 C3090 1.397 . S
C3089 C3094 1.363 . S
C3090 H3067 0.950 . S
C3090 C3089 1.397 . S
C3090 C3091 1.334 . S
C3091 H3068 0.950 . S
C3091 C3090 1.334 . S
C3091 C3092 1.287 . S
C3092 C3091 1.287 . S
C3092 C3093 1.524 . S
C3092 H3111 0.913 . S
C3093 H3069 0.950 . S
C3093 C3092 1.524 . S
C3093 C3094 1.415 . S
C3094 H3070 0.950 . S
C3094 C3089 1.363 . S
C3094 C3093 1.415 . S
C3095 H3071 0.951 . S
C3095 C3096 1.366 . S
C3095 C3097 1.388 . S
C3096 C3095 1.366 . S
C3096 C3100 1.385 . S
C3097 H3072 0.951 . S
C3097 C3095 1.388 . S
C3097 C3098 1.366 . S
C3098 C3097 1.366 . S
C3098 C3099 1.414 . S
C3098 C3101 1.499 . S
C3099 H3073 0.950 . S
C3099 C3098 1.414 . S
C3099 C3100 1.374 . S
C3100 H3074 0.950 . S
C3100 C3096 1.385 . S
C3100 C3099 1.374 . S
C3101 C3098 1.499 . S
C3101 C3102 1.373 . S
C3101 C3103 1.389 . S
C3102 H3075 0.950 . S
C3102 C3088 1.377 . S
C3102 C3101 1.373 . S
C3103 C3087 1.377 . S
C3103 C3101 1.389 . S
C3103 C3104 1.524 . S
C3104 C3103 1.524 . S
C3104 C3105 1.397 . S
C3104 C3109 1.363 . S
C3105 H3076 0.950 . S
C3105 C3104 1.397 . S
C3105 C3106 1.334 . S
C3106 H3077 0.950 . S
C3106 C3105 1.334 . S
C3106 C3107 1.287 . S
C3107 C3106 1.287 . S
C3107 C3108 1.524 . S
C3107 H3110 0.999 . S
C3108 H3078 0.950 . S
C3108 C3107 1.524 . S
C3108 C3109 1.415 . S
C3109 H3079 0.950 . S
C3109 C3104 1.363 . S
C3109 C3108 1.415 . S
H3110 C3107 0.999 . S
H3111 C3092 0.913 . S
H3112 C3130 0.951 . S
H3113 C3132 0.951 . S
H3114 C3134 0.950 . S
H3115 C3135 0.950 . S
H3116 C3137 0.950 . S
H3117 C3140 0.950 . S
H3118 C3141 0.950 . S
H3119 C3143 0.950 . S
H3120 C3144 0.950 . S
H3121 C3145 0.951 . S
H3122 C3147 0.951 . S
H3123 C3149 0.950 . S
H3124 C3150 0.950 . S
H3125 C3152 0.950 . S
H3126 C3155 0.950 . S
H3127 C3156 0.950 . S
H3128 C3158 0.950 . S
H3129 C3159 0.950 . S
C3130 H3112 0.951 . S
C3130 C3131 1.366 . S
C3130 C3132 1.388 . S
C3131 C3130 1.366 . S
C3131 C3135 1.385 . S
C3132 H3113 0.951 . S
C3132 C3130 1.388 . S
C3132 C3133 1.366 . S
C3133 C3132 1.366 . S
C3133 C3134 1.414 . S
C3133 C3136 1.499 . S
C3134 H3114 0.950 . S
C3134 C3133 1.414 . S
C3134 C3135 1.374 . S
C3135 H3115 0.950 . S
C3135 C3131 1.385 . S
C3135 C3134 1.374 . S
C3136 C3133 1.499 . S
C3136 C3137 1.373 . S
C3136 C3138 1.389 . S
C3137 H3116 0.950 . S
C3137 C3136 1.373 . S
C3137 C3153 1.377 . S
C3138 C3136 1.389 . S
C3138 C3139 1.524 . S
C3138 C3152 1.377 . S
C3139 C3138 1.524 . S
C3139 C3140 1.397 . S
C3139 C3144 1.363 . S
C3140 H3117 0.950 . S
C3140 C3139 1.397 . S
C3140 C3141 1.334 . S
C3141 H3118 0.950 . S
C3141 C3140 1.334 . S
C3141 C3142 1.287 . S
C3142 C3141 1.287 . S
C3142 C3143 1.524 . S
C3142 H3161 0.913 . S
C3143 H3119 0.950 . S
C3143 C3142 1.524 . S
C3143 C3144 1.415 . S
C3144 H3120 0.950 . S
C3144 C3139 1.363 . S
C3144 C3143 1.415 . S
C3145 H3121 0.951 . S
C3145 C3146 1.366 . S
C3145 C3147 1.388 . S
C3146 C3145 1.366 . S
C3146 C3150 1.385 . S
C3147 H3122 0.951 . S
C3147 C3145 1.388 . S
C3147 C3148 1.366 . S
C3148 C3147 1.366 . S
C3148 C3149 1.414 . S
C3148 C3151 1.499 . S
C3149 H3123 0.950 . S
C3149 C3148 1.414 . S
C3149 C3150 1.374 . S
C3150 H3124 0.950 . S
C3150 C3146 1.385 . S
C3150 C3149 1.374 . S
C3151 C3148 1.499 . S
C3151 C3152 1.373 . S
C3151 C3153 1.389 . S
C3152 H3125 0.950 . S
C3152 C3138 1.377 . S
C3152 C3151 1.373 . S
C3153 C3137 1.377 . S
C3153 C3151 1.389 . S
C3153 C3154 1.524 . S
C3154 C3153 1.524 . S
C3154 C3155 1.397 . S
C3154 C3159 1.363 . S
C3155 H3126 0.950 . S
C3155 C3154 1.397 . S
C3155 C3156 1.334 . S
C3156 H3127 0.950 . S
C3156 C3155 1.334 . S
C3156 C3157 1.287 . S
C3157 C3156 1.287 . S
C3157 C3158 1.524 . S
C3157 H3160 0.999 . S
C3158 H3128 0.950 . S
C3158 C3157 1.524 . S
C3158 C3159 1.415 . S
C3159 H3129 0.950 . S
C3159 C3154 1.363 . S
C3159 C3158 1.415 . S
H3160 C3157 0.999 . S
H3161 C3142 0.913 . S
H3162 C3180 0.951 . S
H3163 C3182 0.951 . S
H3164 C3184 0.950 . S
H3165 C3185 0.950 . S
H3166 C3187 0.950 . S
H3167 C3190 0.950 . S
H3168 C3191 0.950 . S
H3169 C3193 0.950 . S
H3170 C3194 0.950 . S
H3171 C3195 0.951 . S
H3172 C3197 0.951 . S
H3173 C3199 0.950 . S
H3174 C3200 0.950 . S
H3175 C3202 0.950 . S
H3176 C3205 0.950 . S
H3177 C3206 0.950 . S
H3178 C3208 0.950 . S
H3179 C3209 0.950 . S
C3180 H3162 0.951 . S
C3180 C3181 1.366 . S
C3180 C3182 1.388 . S
C3181 C3180 1.366 . S
C3181 C3185 1.385 . S
C3182 H3163 0.951 . S
C3182 C3180 1.388 . S
C3182 C3183 1.366 . S
C3183 C3182 1.366 . S
C3183 C3184 1.414 . S
C3183 C3186 1.499 . S
C3184 H3164 0.950 . S
C3184 C3183 1.414 . S
C3184 C3185 1.374 . S
C3185 H3165 0.950 . S
C3185 C3181 1.385 . S
C3185 C3184 1.374 . S
C3186 C3183 1.499 . S
C3186 C3187 1.373 . S
C3186 C3188 1.389 . S
C3187 H3166 0.950 . S
C3187 C3186 1.373 . S
C3187 C3203 1.377 . S
C3188 C3186 1.389 . S
C3188 C3189 1.524 . S
C3188 C3202 1.377 . S
C3189 C3188 1.524 . S
C3189 C3190 1.397 . S
C3189 C3194 1.363 . S
C3190 H3167 0.950 . S
C3190 C3189 1.397 . S
C3190 C3191 1.334 . S
C3191 H3168 0.950 . S
C3191 C3190 1.334 . S
C3191 C3192 1.287 . S
C3192 C3191 1.287 . S
C3192 C3193 1.524 . S
C3192 H3211 0.913 . S
C3193 H3169 0.950 . S
C3193 C3192 1.524 . S
C3193 C3194 1.415 . S
C3194 H3170 0.950 . S
C3194 C3189 1.363 . S
C3194 C3193 1.415 . S
C3195 H3171 0.951 . S
C3195 C3196 1.366 . S
C3195 C3197 1.388 . S
C3196 C3195 1.366 . S
C3196 C3200 1.385 . S
C3197 H3172 0.951 . S
C3197 C3195 1.388 . S
C3197 C3198 1.366 . S
C3198 C3197 1.366 . S
C3198 C3199 1.414 . S
C3198 C3201 1.499 . S
C3199 H3173 0.950 . S
C3199 C3198 1.414 . S
C3199 C3200 1.374 . S
C3200 H3174 0.950 . S
C3200 C3196 1.385 . S
C3200 C3199 1.374 . S
C3201 C3198 1.499 . S
C3201 C3202 1.373 . S
C3201 C3203 1.389 . S
C3202 H3175 0.950 . S
C3202 C3188 1.377 . S
C3202 C3201 1.373 . S
C3203 C3187 1.377 . S
C3203 C3201 1.389 . S
C3203 C3204 1.524 . S
C3204 C3203 1.524 . S
C3204 C3205 1.397 . S
C3204 C3209 1.363 . S
C3205 H3176 0.950 . S
C3205 C3204 1.397 . S
C3205 C3206 1.334 . S
C3206 H3177 0.950 . S
C3206 C3205 1.334 . S
C3206 C3207 1.287 . S
C3207 C3206 1.287 . S
C3207 C3208 1.524 . S
C3207 H3210 0.999 . S
C3208 H3178 0.950 . S
C3208 C3207 1.524 . S
C3208 C3209 1.415 . S
C3209 H3179 0.950 . S
C3209 C3204 1.363 . S
C3209 C3208 1.415 . S
H3210 C3207 0.999 . S
H3211 C3192 0.913 . S
H3212 C3230 0.951 . S
H3213 C3232 0.951 . S
H3214 C3234 0.950 . S
H3215 C3235 0.950 . S
H3216 C3237 0.950 . S
H3217 C3240 0.950 . S
H3218 C3241 0.950 . S
H3219 C3243 0.950 . S
H3220 C3244 0.950 . S
H3221 C3245 0.951 . S
H3222 C3247 0.951 . S
H3223 C3249 0.950 . S
H3224 C3250 0.950 . S
H3225 C3252 0.950 . S
H3226 C3255 0.950 . S
H3227 C3256 0.950 . S
H3228 C3258 0.950 . S
H3229 C3259 0.950 . S
C3230 H3212 0.951 . S
C3230 C3231 1.366 . S
C3230 C3232 1.388 . S
C3231 C3230 1.366 . S
C3231 C3235 1.385 . S
C3232 H3213 0.951 . S
C3232 C3230 1.388 . S
C3232 C3233 1.366 . S
C3233 C3232 1.366 . S
C3233 C3234 1.414 . S
C3233 C3236 1.499 . S
C3234 H3214 0.950 . S
C3234 C3233 1.414 . S
C3234 C3235 1.374 . S
C3235 H3215 0.950 . S
C3235 C3231 1.385 . S
C3235 C3234 1.374 . S
C3236 C3233 1.499 . S
C3236 C3237 1.373 . S
C3236 C3238 1.389 . S
C3237 H3216 0.950 . S
C3237 C3236 1.373 . S
C3237 C3253 1.377 . S
C3238 C3236 1.389 . S
C3238 C3239 1.524 . S
C3238 C3252 1.377 . S
C3239 C3238 1.524 . S
C3239 C3240 1.397 . S
C3239 C3244 1.363 . S
C3240 H3217 0.950 . S
C3240 C3239 1.397 . S
C3240 C3241 1.334 . S
C3241 H3218 0.950 . S
C3241 C3240 1.334 . S
C3241 C3242 1.287 . S
C3242 C3241 1.287 . S
C3242 C3243 1.524 . S
C3242 H3261 0.913 . S
C3243 H3219 0.950 . S
C3243 C3242 1.524 . S
C3243 C3244 1.415 . S
C3244 H3220 0.950 . S
C3244 C3239 1.363 . S
C3244 C3243 1.415 . S
C3245 H3221 0.951 . S
C3245 C3246 1.366 . S
C3245 C3247 1.388 . S
C3246 C3245 1.366 . S
C3246 C3250 1.385 . S
C3247 H3222 0.951 . S
C3247 C3245 1.388 . S
C3247 C3248 1.366 . S
C3248 C3247 1.366 . S
C3248 C3249 1.414 . S
C3248 C3251 1.499 . S
C3249 H3223 0.950 . S
C3249 C3248 1.414 . S
C3249 C3250 1.374 . S
C3250 H3224 0.950 . S
C3250 C3246 1.385 . S
C3250 C3249 1.374 . S
C3251 C3248 1.499 . S
C3251 C3252 1.373 . S
C3251 C3253 1.389 . S
C3252 H3225 0.950 . S
C3252 C3238 1.377 . S
C3252 C3251 1.373 . S
C3253 C3237 1.377 . S
C3253 C3251 1.389 . S
C3253 C3254 1.524 . S
C3254 C3253 1.524 . S
C3254 C3255 1.397 . S
C3254 C3259 1.363 . S
C3255 H3226 0.950 . S
C3255 C3254 1.397 . S
C3255 C3256 1.334 . S
C3256 H3227 0.950 . S
C3256 C3255 1.334 . S
C3256 C3257 1.287 . S
C3257 C3256 1.287 . S
C3257 C3258 1.524 . S
C3257 H3260 0.999 . S
C3258 H3228 0.950 . S
C3258 C3257 1.524 . S
C3258 C3259 1.415 . S
C3259 H3229 0.950 . S
C3259 C3254 1.363 . S
C3259 C3258 1.415 . S
H3260 C3257 0.999 . S
H3261 C3242 0.913 . S
H3262 C3280 0.951 . S
H3263 C3282 0.951 . S
H3264 C3284 0.950 . S
H3265 C3285 0.950 . S
H3266 C3287 0.950 . S
H3267 C3290 0.950 . S
H3268 C3291 0.950 . S
H3269 C3293 0.950 . S
H3270 C3294 0.950 . S
H3271 C3295 0.951 . S
H3272 C3297 0.951 . S
H3273 C3299 0.950 . S
H3274 C3300 0.950 . S
H3275 C3302 0.950 . S
H3276 C3305 0.950 . S
H3277 C3306 0.950 . S
H3278 C3308 0.950 . S
H3279 C3309 0.950 . S
C3280 H3262 0.951 . S
C3280 C3281 1.366 . S
C3280 C3282 1.388 . S
C3281 C3280 1.366 . S
C3281 C3285 1.385 . S
C3282 H3263 0.951 . S
C3282 C3280 1.388 . S
C3282 C3283 1.366 . S
C3283 C3282 1.366 . S
C3283 C3284 1.414 . S
C3283 C3286 1.499 . S
C3284 H3264 0.950 . S
C3284 C3283 1.414 . S
C3284 C3285 1.374 . S
C3285 H3265 0.950 . S
C3285 C3281 1.385 . S
C3285 C3284 1.374 . S
C3286 C3283 1.499 . S
C3286 C3287 1.373 . S
C3286 C3288 1.389 . S
C3287 H3266 0.950 . S
C3287 C3286 1.373 . S
C3287 C3303 1.377 . S
C3288 C3286 1.389 . S
C3288 C3289 1.524 . S
C3288 C3302 1.377 . S
C3289 C3288 1.524 . S
C3289 C3290 1.397 . S
C3289 C3294 1.363 . S
C3290 H3267 0.950 . S
C3290 C3289 1.397 . S
C3290 C3291 1.334 . S
C3291 H3268 0.950 . S
C3291 C3290 1.334 . S
C3291 C3292 1.287 . S
C3292 C3291 1.287 . S
C3292 C3293 1.524 . S
C3292 H3311 0.925 . S
C3293 H3269 0.950 . S
C3293 C3292 1.524 . S
C3293 C3294 1.415 . S
C3294 H3270 0.950 . S
C3294 C3289 1.363 . S
C3294 C3293 1.415 . S
C3295 H3271 0.951 . S
C3295 C3296 1.366 . S
C3295 C3297 1.388 . S
C3296 C3295 1.366 . S
C3296 C3300 1.385 . S
C3297 H3272 0.951 . S
C3297 C3295 1.388 . S
C3297 C3298 1.366 . S
C3298 C3297 1.366 . S
C3298 C3299 1.414 . S
C3298 C3301 1.499 . S
C3299 H3273 0.950 . S
C3299 C3298 1.414 . S
C3299 C3300 1.374 . S
C3300 H3274 0.950 . S
C3300 C3296 1.385 . S
C3300 C3299 1.374 . S
C3301 C3298 1.499 . S
C3301 C3302 1.373 . S
C3301 C3303 1.389 . S
C3302 H3275 0.950 . S
C3302 C3288 1.377 . S
C3302 C3301 1.373 . S
C3303 C3287 1.377 . S
C3303 C3301 1.389 . S
C3303 C3304 1.524 . S
C3304 C3303 1.524 . S
C3304 C3305 1.397 . S
C3304 C3309 1.363 . S
C3305 H3276 0.950 . S
C3305 C3304 1.397 . S
C3305 C3306 1.334 . S
C3306 H3277 0.950 . S
C3306 C3305 1.334 . S
C3306 C3307 1.287 . S
C3307 C3306 1.287 . S
C3307 C3308 1.524 . S
C3307 H3310 0.999 . S
C3308 H3278 0.950 . S
C3308 C3307 1.524 . S
C3308 C3309 1.415 . S
C3309 H3279 0.950 . S
C3309 C3304 1.363 . S
C3309 C3308 1.415 . S
H3310 C3307 0.999 . S
H3311 C3292 0.925 . S
H3312 C3330 0.951 . S
H3313 C3332 0.951 . S
H3314 C3334 0.950 . S
H3315 C3335 0.950 . S
H3316 C3337 0.950 . S
H3317 C3340 0.950 . S
H3318 C3341 0.950 . S
H3319 C3343 0.950 1_556 S
H3320 C3344 0.950 . S
H3321 C3345 0.951 . S
H3322 C3347 0.951 . S
H3323 C3349 0.950 . S
H3324 C3350 0.950 . S
H3325 C3352 0.950 . S
H3326 C3355 0.950 . S
H3327 C3356 0.950 . S
H3328 C3358 0.950 . S
H3329 C3359 0.950 . S
C3330 H3312 0.951 . S
C3330 C3331 1.366 . S
C3330 C3332 1.388 . S
C3331 C3330 1.366 . S
C3331 C3335 1.385 . S
C3332 H3313 0.951 . S
C3332 C3330 1.388 . S
C3332 C3333 1.366 . S
C3333 C3332 1.366 . S
C3333 C3334 1.414 . S
C3333 C3336 1.499 . S
C3334 H3314 0.950 . S
C3334 C3333 1.414 . S
C3334 C3335 1.374 . S
C3335 H3315 0.950 . S
C3335 C3331 1.385 . S
C3335 C3334 1.374 . S
C3336 C3333 1.499 . S
C3336 C3337 1.373 . S
C3336 C3338 1.389 . S
C3337 H3316 0.950 . S
C3337 C3336 1.373 . S
C3337 C3353 1.377 . S
C3338 C3336 1.389 . S
C3338 C3339 1.524 . S
C3338 C3352 1.377 . S
C3339 C3338 1.524 . S
C3339 C3340 1.397 . S
C3339 C3344 1.363 . S
C3340 H3317 0.950 . S
C3340 C3339 1.397 . S
C3340 C3341 1.334 . S
C3341 H3318 0.950 . S
C3341 C3340 1.334 . S
C3341 C3342 1.287 . S
C3342 C3341 1.287 . S
C3342 C3343 1.524 . S
C3342 H3361 0.944 . S
C3343 H3319 0.950 1_554 S
C3343 C3342 1.524 . S
C3343 C3344 1.415 . S
C3344 H3320 0.950 . S
C3344 C3339 1.363 . S
C3344 C3343 1.415 . S
C3345 H3321 0.951 . S
C3345 C3346 1.366 . S
C3345 C3347 1.388 . S
C3346 C3345 1.366 . S
C3346 C3350 1.385 . S
C3347 H3322 0.951 . S
C3347 C3345 1.388 . S
C3347 C3348 1.366 . S
C3348 C3347 1.366 . S
C3348 C3349 1.414 . S
C3348 C3351 1.499 . S
C3349 H3323 0.950 . S
C3349 C3348 1.414 . S
C3349 C3350 1.374 . S
C3350 H3324 0.950 . S
C3350 C3346 1.385 . S
C3350 C3349 1.374 . S
C3351 C3348 1.499 . S
C3351 C3352 1.373 . S
C3351 C3353 1.389 . S
C3352 H3325 0.950 . S
C3352 C3338 1.377 . S
C3352 C3351 1.373 . S
C3353 C3337 1.377 . S
C3353 C3351 1.389 . S
C3353 C3354 1.524 . S
C3354 C3353 1.524 . S
C3354 C3355 1.397 . S
C3354 C3359 1.363 . S
C3355 H3326 0.950 . S
C3355 C3354 1.397 . S
C3355 C3356 1.334 . S
C3356 H3327 0.950 . S
C3356 C3355 1.334 . S
C3356 C3357 1.287 . S
C3357 C3356 1.287 . S
C3357 C3358 1.524 . S
C3357 H3360 0.999 . S
C3358 H3328 0.950 . S
C3358 C3357 1.524 . S
C3358 C3359 1.415 . S
C3359 H3329 0.950 . S
C3359 C3354 1.363 . S
C3359 C3358 1.415 . S
H3360 C3357 0.999 . S
H3361 C3342 0.944 . S
H3362 C3380 0.951 . S
H3363 C3382 0.951 . S
H3364 C3384 0.950 . S
H3365 C3385 0.950 . S
H3366 C3387 0.950 . S
H3367 C3390 0.950 . S
H3368 C3391 0.950 . S
H3369 C3393 0.950 1_556 S
H3370 C3394 0.950 . S
H3371 C3395 0.951 . S
H3372 C3397 0.951 . S
H3373 C3399 0.950 . S
H3374 C3400 0.950 . S
H3375 C3402 0.950 . S
H3376 C3405 0.950 . S
H3377 C3406 0.950 . S
H3378 C3408 0.950 . S
H3379 C3409 0.950 . S
C3380 H3362 0.951 . S
C3380 C3381 1.366 . S
C3380 C3382 1.388 . S
C3381 C3380 1.366 . S
C3381 C3385 1.385 . S
C3382 H3363 0.951 . S
C3382 C3380 1.388 . S
C3382 C3383 1.366 . S
C3383 C3382 1.366 . S
C3383 C3384 1.414 . S
C3383 C3386 1.499 . S
C3384 H3364 0.950 . S
C3384 C3383 1.414 . S
C3384 C3385 1.374 . S
C3385 H3365 0.950 . S
C3385 C3381 1.385 . S
C3385 C3384 1.374 . S
C3386 C3383 1.499 . S
C3386 C3387 1.373 . S
C3386 C3388 1.389 . S
C3387 H3366 0.950 . S
C3387 C3386 1.373 . S
C3387 C3403 1.377 . S
C3388 C3386 1.389 . S
C3388 C3389 1.524 . S
C3388 C3402 1.377 . S
C3389 C3388 1.524 . S
C3389 C3390 1.397 . S
C3389 C3394 1.363 . S
C3390 H3367 0.950 . S
C3390 C3389 1.397 . S
C3390 C3391 1.334 . S
C3391 H3368 0.950 . S
C3391 C3390 1.334 . S
C3391 C3392 1.287 . S
C3392 C3391 1.287 . S
C3392 C3393 1.524 . S
C3392 H3411 0.913 1_554 S
C3393 H3369 0.950 1_554 S
C3393 C3392 1.524 . S
C3393 C3394 1.415 . S
C3394 H3370 0.950 . S
C3394 C3389 1.363 . S
C3394 C3393 1.415 . S
C3395 H3371 0.951 . S
C3395 C3396 1.366 . S
C3395 C3397 1.388 . S
C3396 C3395 1.366 . S
C3396 C3400 1.385 . S
C3397 H3372 0.951 . S
C3397 C3395 1.388 . S
C3397 C3398 1.366 . S
C3398 C3397 1.366 . S
C3398 C3399 1.414 . S
C3398 C3401 1.499 . S
C3399 H3373 0.950 . S
C3399 C3398 1.414 . S
C3399 C3400 1.374 . S
C3400 H3374 0.950 . S
C3400 C3396 1.385 . S
C3400 C3399 1.374 . S
C3401 C3398 1.499 . S
C3401 C3402 1.373 . S
C3401 C3403 1.389 . S
C3402 H3375 0.950 . S
C3402 C3388 1.377 . S
C3402 C3401 1.373 . S
C3403 C3387 1.377 . S
C3403 C3401 1.389 . S
C3403 C3404 1.524 . S
C3404 C3403 1.524 . S
C3404 C3405 1.397 . S
C3404 C3409 1.363 . S
C3405 H3376 0.950 . S
C3405 C3404 1.397 . S
C3405 C3406 1.334 . S
C3406 H3377 0.950 . S
C3406 C3405 1.334 . S
C3406 C3407 1.287 . S
C3407 C3406 1.287 . S
C3407 C3408 1.524 . S
C3407 H3410 0.999 . S
C3408 H3378 0.950 . S
C3408 C3407 1.524 . S
C3408 C3409 1.415 . S
C3409 H3379 0.950 . S
C3409 C3404 1.363 . S
C3409 C3408 1.415 . S
H3410 C3407 0.999 . S
H3411 C3392 0.913 1_556 S
H3412 C3430 0.951 . S
H3413 C3432 0.951 . S
H3414 C3434 0.950 . S
H3415 C3435 0.950 . S
H3416 C3437 0.950 . S
H3417 C3440 0.950 . S
H3418 C3441 0.950 . S
H3419 C3443 0.953 1_556 S
H3420 C3444 0.950 . S
H3421 C3445 0.951 . S
H3422 C3447 0.951 . S
H3423 C3449 0.950 . S
H3424 C3450 0.950 . S
H3425 C3452 0.950 . S
H3426 C3455 0.950 . S
H3427 C3456 0.950 . S
H3428 C3458 0.950 . S
H3429 C3459 0.950 . S
C3430 H3412 0.951 . S
C3430 C3431 1.366 . S
C3430 C3432 1.388 . S
C3431 C3430 1.366 . S
C3431 C3435 1.385 . S
C3432 H3413 0.951 . S
C3432 C3430 1.388 . S
C3432 C3433 1.366 . S
C3433 C3432 1.366 . S
C3433 C3434 1.414 . S
C3433 C3436 1.499 . S
C3434 H3414 0.950 . S
C3434 C3433 1.414 . S
C3434 C3435 1.374 . S
C3435 H3415 0.950 . S
C3435 C3431 1.385 . S
C3435 C3434 1.374 . S
C3436 C3433 1.499 . S
C3436 C3437 1.373 . S
C3436 C3438 1.389 . S
C3437 H3416 0.950 . S
C3437 C3436 1.373 . S
C3437 C3453 1.377 . S
C3438 C3436 1.389 . S
C3438 C3439 1.524 . S
C3438 C3452 1.377 . S
C3439 C3438 1.524 . S
C3439 C3440 1.397 . S
C3439 C3444 1.363 . S
C3440 H3417 0.950 . S
C3440 C3439 1.397 . S
C3440 C3441 1.334 1_554 S
C3441 H3418 0.950 . S
C3441 C3440 1.334 1_556 S
C3441 C3442 1.287 . S
C3442 C3441 1.287 . S
C3442 C3443 1.527 1_556 S
C3442 H3461 0.913 . S
C3443 H3419 0.953 1_554 S
C3443 C3442 1.527 1_554 S
C3443 C3444 1.408 . S
C3444 H3420 0.950 . S
C3444 C3439 1.363 . S
C3444 C3443 1.408 . S
C3445 H3421 0.951 . S
C3445 C3446 1.366 . S
C3445 C3447 1.388 . S
C3446 C3445 1.366 . S
C3446 C3450 1.385 . S
C3447 H3422 0.951 . S
C3447 C3445 1.388 . S
C3447 C3448 1.366 . S
C3448 C3447 1.366 . S
C3448 C3449 1.414 . S
C3448 C3451 1.499 . S
C3449 H3423 0.950 . S
C3449 C3448 1.414 . S
C3449 C3450 1.374 . S
C3450 H3424 0.950 . S
C3450 C3446 1.385 . S
C3450 C3449 1.374 . S
C3451 C3448 1.499 . S
C3451 C3452 1.373 . S
C3451 C3453 1.389 . S
C3452 H3425 0.950 . S
C3452 C3438 1.377 . S
C3452 C3451 1.373 . S
C3453 C3437 1.377 . S
C3453 C3451 1.389 . S
C3453 C3454 1.524 . S
C3454 C3453 1.524 . S
C3454 C3455 1.397 . S
C3454 C3459 1.363 . S
C3455 H3426 0.950 . S
C3455 C3454 1.397 . S
C3455 C3456 1.334 . S
C3456 H3427 0.950 . S
C3456 C3455 1.334 . S
C3456 C3457 1.287 . S
C3457 C3456 1.287 . S
C3457 C3458 1.524 . S
C3457 H3460 0.999 . S
C3458 H3428 0.950 . S
C3458 C3457 1.524 . S
C3458 C3459 1.415 . S
C3459 H3429 0.950 . S
C3459 C3454 1.363 . S
C3459 C3458 1.415 . S
H3460 C3457 0.999 . S
H3461 C3442 0.913 . S
H3462 C3480 0.951 . S
H3463 C3482 0.951 . S
H3464 C3484 0.950 . S
H3465 C3485 0.950 . S
H3466 C3487 0.950 . S
H3467 C3490 0.950 . S
H3468 C3491 0.950 . S
H3469 C3493 0.950 . S
H3470 C3494 0.950 . S
H3471 C3495 0.951 . S
H3472 C3497 0.951 . S
H3473 C3499 0.950 . S
H3474 C3500 0.950 . S
H3475 C3502 0.950 . S
H3476 C3505 0.950 . S
H3477 C3506 0.950 . S
H3478 C3508 0.951 1_554 S
H3479 C3509 0.950 . S
C3480 H3462 0.951 . S
C3480 C3481 1.366 . S
C3480 C3482 1.388 . S
C3481 C3480 1.366 . S
C3481 C3485 1.385 . S
C3482 H3463 0.951 . S
C3482 C3480 1.388 . S
C3482 C3483 1.366 . S
C3483 C3482 1.366 . S
C3483 C3484 1.414 . S
C3483 C3486 1.499 . S
C3484 H3464 0.950 . S
C3484 C3483 1.414 . S
C3484 C3485 1.374 . S
C3485 H3465 0.950 . S
C3485 C3481 1.385 . S
C3485 C3484 1.374 . S
C3486 C3483 1.499 . S
C3486 C3487 1.373 . S
C3486 C3488 1.389 . S
C3487 H3466 0.950 . S
C3487 C3486 1.373 . S
C3487 C3503 1.377 . S
C3488 C3486 1.389 . S
C3488 C3489 1.524 . S
C3488 C3502 1.377 . S
C3489 C3488 1.524 . S
C3489 C3490 1.397 . S
C3489 C3494 1.363 . S
C3490 H3467 0.950 . S
C3490 C3489 1.397 . S
C3490 C3491 1.334 . S
C3491 H3468 0.950 . S
C3491 C3490 1.334 . S
C3491 C3492 1.287 . S
C3492 C3491 1.287 . S
C3492 C3493 1.524 . S
C3492 H3511 0.913 . S
C3493 H3469 0.950 . S
C3493 C3492 1.524 . S
C3493 C3494 1.415 . S
C3494 H3470 0.950 . S
C3494 C3489 1.363 . S
C3494 C3493 1.415 . S
C3495 H3471 0.951 . S
C3495 C3496 1.366 . S
C3495 C3497 1.388 . S
C3496 C3495 1.366 . S
C3496 C3500 1.385 . S
C3497 H3472 0.951 . S
C3497 C3495 1.388 . S
C3497 C3498 1.366 . S
C3498 C3497 1.366 . S
C3498 C3499 1.414 . S
C3498 C3501 1.499 . S
C3499 H3473 0.950 . S
C3499 C3498 1.414 . S
C3499 C3500 1.374 . S
C3500 H3474 0.950 . S
C3500 C3496 1.385 . S
C3500 C3499 1.374 . S
C3501 C3498 1.499 . S
C3501 C3502 1.373 . S
C3501 C3503 1.389 . S
C3502 H3475 0.950 . S
C3502 C3488 1.377 . S
C3502 C3501 1.373 . S
C3503 C3487 1.377 . S
C3503 C3501 1.389 . S
C3503 C3504 1.524 . S
C3504 C3503 1.524 . S
C3504 C3505 1.397 . S
C3504 C3509 1.363 . S
C3505 H3476 0.950 . S
C3505 C3504 1.397 . S
C3505 C3506 1.334 . S
C3506 H3477 0.950 . S
C3506 C3505 1.334 . S
C3506 C3507 1.267 1_556 S
C3507 C3506 1.267 1_554 S
C3507 C3508 1.523 1_554 S
C3507 H3510 1.023 . S
C3508 H3478 0.951 1_556 S
C3508 C3507 1.523 1_556 S
C3508 C3509 1.414 . S
C3509 H3479 0.950 . S
C3509 C3504 1.363 . S
C3509 C3508 1.414 . S
H3510 C3507 1.023 . S
H3511 C3492 0.913 . S
H3512 C3530 0.951 1_554 S
H3513 C3532 0.951 . S
H3514 C3534 0.950 . S
H3515 C3535 0.950 . S
H3516 C3537 0.950 . S
H3517 C3540 0.950 . S
H3518 C3541 0.950 . S
H3519 C3543 0.950 . S
H3520 C3544 0.950 . S
H3521 C3545 0.951 . S
H3522 C3547 0.951 . S
H3523 C3549 0.950 . S
H3524 C3550 0.950 . S
H3525 C3552 0.950 . S
H3526 C3555 0.950 . S
H3527 C3556 0.950 . S
H3528 C3558 0.950 . S
H3529 C3559 0.950 . S
C3530 H3512 0.951 1_556 S
C3530 C3531 1.366 . S
C3530 C3532 1.388 . S
C3531 C3530 1.366 . S
C3531 C3535 1.385 . S
C3532 H3513 0.951 . S
C3532 C3530 1.388 . S
C3532 C3533 1.366 . S
C3533 C3532 1.366 . S
C3533 C3534 1.414 . S
C3533 C3536 1.499 . S
C3534 H3514 0.950 . S
C3534 C3533 1.414 . S
C3534 C3535 1.374 . S
C3535 H3515 0.950 . S
C3535 C3531 1.385 . S
C3535 C3534 1.374 . S
C3536 C3533 1.499 . S
C3536 C3537 1.373 . S
C3536 C3538 1.389 . S
C3537 H3516 0.950 . S
C3537 C3536 1.373 . S
C3537 C3553 1.377 . S
C3538 C3536 1.389 . S
C3538 C3539 1.524 . S
C3538 C3552 1.377 . S
C3539 C3538 1.524 . S
C3539 C3540 1.397 . S
C3539 C3544 1.363 . S
C3540 H3517 0.950 . S
C3540 C3539 1.397 . S
C3540 C3541 1.334 1_556 S
C3541 H3518 0.950 . S
C3541 C3540 1.334 1_554 S
C3541 C3542 1.287 . S
C3542 C3541 1.287 . S
C3542 C3543 1.524 . S
C3542 H3561 0.913 . S
C3543 H3519 0.950 . S
C3543 C3542 1.524 . S
C3543 C3544 1.415 1_554 S
C3544 H3520 0.950 . S
C3544 C3539 1.363 . S
C3544 C3543 1.415 1_556 S
C3545 H3521 0.951 . S
C3545 C3546 1.366 . S
C3545 C3547 1.388 . S
C3546 C3545 1.366 . S
C3546 C3550 1.385 . S
C3547 H3522 0.951 . S
C3547 C3545 1.388 . S
C3547 C3548 1.366 . S
C3548 C3547 1.366 . S
C3548 C3549 1.414 . S
C3548 C3551 1.499 . S
C3549 H3523 0.950 . S
C3549 C3548 1.414 . S
C3549 C3550 1.374 . S
C3550 H3524 0.950 . S
C3550 C3546 1.385 . S
C3550 C3549 1.374 . S
C3551 C3548 1.499 . S
C3551 C3552 1.373 . S
C3551 C3553 1.389 . S
C3552 H3525 0.950 . S
C3552 C3538 1.377 . S
C3552 C3551 1.373 . S
C3553 C3537 1.377 . S
C3553 C3551 1.389 . S
C3553 C3554 1.524 . S
C3554 C3553 1.524 . S
C3554 C3555 1.397 . S
C3554 C3559 1.363 . S
C3555 H3526 0.950 . S
C3555 C3554 1.397 . S
C3555 C3556 1.334 . S
C3556 H3527 0.950 . S
C3556 C3555 1.334 . S
C3556 C3557 1.287 . S
C3557 C3556 1.287 . S
C3557 C3558 1.524 . S
C3557 H3560 0.999 . S
C3558 H3528 0.950 . S
C3558 C3557 1.524 . S
C3558 C3559 1.415 . S
C3559 H3529 0.950 . S
C3559 C3554 1.363 . S
C3559 C3558 1.415 . S
H3560 C3557 0.999 . S
H3561 C3542 0.913 . S
H3562 C3580 0.951 . S
H3563 C3582 0.951 . S
H3564 C3584 0.950 . S
H3565 C3585 0.950 1_554 S
H3566 C3587 0.950 . S
H3567 C3590 0.950 . S
H3568 C3591 0.950 . S
H3569 C3593 0.950 . S
H3570 C3594 0.950 . S
H3571 C3595 0.951 . S
H3572 C3597 0.951 . S
H3573 C3599 0.950 . S
H3574 C3600 0.950 . S
H3575 C3602 0.950 . S
H3576 C3605 0.950 . S
H3577 C3606 0.950 . S
H3578 C3608 0.904 1_554 S
H3579 C3609 0.950 . S
C3580 H3562 0.951 . S
C3580 C3581 1.366 . S
C3580 C3582 1.388 . S
C3581 C3580 1.366 . S
C3581 C3585 1.385 . S
C3582 H3563 0.951 . S
C3582 C3580 1.388 . S
C3582 C3583 1.366 . S
C3583 C3582 1.366 . S
C3583 C3584 1.414 . S
C3583 C3586 1.499 . S
C3584 H3564 0.950 . S
C3584 C3583 1.414 . S
C3584 C3585 1.374 . S
C3585 H3565 0.950 1_556 S
C3585 C3581 1.385 . S
C3585 C3584 1.374 . S
C3586 C3583 1.499 . S
C3586 C3587 1.373 . S
C3586 C3588 1.389 . S
C3587 H3566 0.950 . S
C3587 C3586 1.373 . S
C3587 C3603 1.377 . S
C3588 C3586 1.389 . S
C3588 C3589 1.524 . S
C3588 C3602 1.377 . S
C3589 C3588 1.524 . S
C3589 C3590 1.397 . S
C3589 C3594 1.363 . S
C3590 H3567 0.950 . S
C3590 C3589 1.397 . S
C3590 C3591 1.334 . S
C3591 H3568 0.950 . S
C3591 C3590 1.334 . S
C3591 C3592 1.287 . S
C3592 C3591 1.287 . S
C3592 C3593 1.524 . S
C3592 H3611 0.913 . S
C3593 H3569 0.950 . S
C3593 C3592 1.524 . S
C3593 C3594 1.415 . S
C3594 H3570 0.950 . S
C3594 C3589 1.363 . S
C3594 C3593 1.415 . S
C3595 H3571 0.951 . S
C3595 C3596 1.366 . S
C3595 C3597 1.388 . S
C3596 C3595 1.366 . S
C3596 C3600 1.385 . S
C3597 H3572 0.951 . S
C3597 C3595 1.388 . S
C3597 C3598 1.366 . S
C3598 C3597 1.366 . S
C3598 C3599 1.414 . S
C3598 C3601 1.499 . S
C3599 H3573 0.950 . S
C3599 C3598 1.414 . S
C3599 C3600 1.374 . S
C3600 H3574 0.950 . S
C3600 C3596 1.385 . S
C3600 C3599 1.374 . S
C3601 C3598 1.499 . S
C3601 C3602 1.373 . S
C3601 C3603 1.389 . S
C3602 H3575 0.950 . S
C3602 C3588 1.377 . S
C3602 C3601 1.373 . S
C3603 C3587 1.377 . S
C3603 C3601 1.389 . S
C3603 C3604 1.524 . S
C3604 C3603 1.524 . S
C3604 C3605 1.397 . S
C3604 C3609 1.363 . S
C3605 H3576 0.950 . S
C3605 C3604 1.397 . S
C3605 C3606 1.334 . S
C3606 H3577 0.950 . S
C3606 C3605 1.334 . S
C3606 C3607 1.287 . S
C3607 C3606 1.287 . S
C3607 C3608 1.549 . S
C3607 H3610 0.999 . S
C3608 H3578 0.904 1_556 S
C3608 C3607 1.549 . S
C3608 C3609 1.444 . S
C3609 H3579 0.950 . S
C3609 C3604 1.363 . S
C3609 C3608 1.444 . S
H3610 C3607 0.999 . S
H3611 C3592 0.913 . S
H3612 C3630 0.951 . S
H3613 C3632 0.951 . S
H3614 C3634 0.950 . S
H3615 C3635 0.950 1_554 S
H3616 C3637 0.950 . S
H3617 C3640 0.950 . S
H3618 C3641 0.950 . S
H3619 C3643 0.950 . S
H3620 C3644 0.950 . S
H3621 C3645 0.951 . S
H3622 C3647 0.951 . S
H3623 C3649 0.950 . S
H3624 C3650 0.950 . S
H3625 C3652 0.950 . S
H3626 C3655 0.950 . S
H3627 C3656 0.950 . S
H3628 C3658 0.950 . S
H3629 C3659 0.950 . S
C3630 H3612 0.951 . S
C3630 C3631 1.366 . S
C3630 C3632 1.388 . S
C3631 C3630 1.366 . S
C3631 C3635 1.385 . S
C3632 H3613 0.951 . S
C3632 C3630 1.388 . S
C3632 C3633 1.366 . S
C3633 C3632 1.366 . S
C3633 C3634 1.414 . S
C3633 C3636 1.499 . S
C3634 H3614 0.950 . S
C3634 C3633 1.414 . S
C3634 C3635 1.374 . S
C3635 H3615 0.950 1_556 S
C3635 C3631 1.385 . S
C3635 C3634 1.374 . S
C3636 C3633 1.499 . S
C3636 C3637 1.373 . S
C3636 C3638 1.389 . S
C3637 H3616 0.950 . S
C3637 C3636 1.373 . S
C3637 C3653 1.377 . S
C3638 C3636 1.389 . S
C3638 C3639 1.524 . S
C3638 C3652 1.377 . S
C3639 C3638 1.524 . S
C3639 C3640 1.397 . S
C3639 C3644 1.363 . S
C3640 H3617 0.950 . S
C3640 C3639 1.397 . S
C3640 C3641 1.334 . S
C3641 H3618 0.950 . S
C3641 C3640 1.334 . S
C3641 C3642 1.287 . S
C3642 C3641 1.287 . S
C3642 C3643 1.524 . S
C3642 H3661 0.913 . S
C3643 H3619 0.950 . S
C3643 C3642 1.524 . S
C3643 C3644 1.415 . S
C3644 H3620 0.950 . S
C3644 C3639 1.363 . S
C3644 C3643 1.415 . S
C3645 H3621 0.951 . S
C3645 C3646 1.366 . S
C3645 C3647 1.388 . S
C3646 C3645 1.366 . S
C3646 C3650 1.385 . S
C3647 H3622 0.951 . S
C3647 C3645 1.388 . S
C3647 C3648 1.366 . S
C3648 C3647 1.366 . S
C3648 C3649 1.414 . S
C3648 C3651 1.499 . S
C3649 H3623 0.950 . S
C3649 C3648 1.414 . S
C3649 C3650 1.374 . S
C3650 H3624 0.950 . S
C3650 C3646 1.385 . S
C3650 C3649 1.374 . S
C3651 C3648 1.499 . S
C3651 C3652 1.373 . S
C3651 C3653 1.389 . S
C3652 H3625 0.950 . S
C3652 C3638 1.377 . S
C3652 C3651 1.373 . S
C3653 C3637 1.377 . S
C3653 C3651 1.389 . S
C3653 C3654 1.524 . S
C3654 C3653 1.524 . S
C3654 C3655 1.397 . S
C3654 C3659 1.363 . S
C3655 H3626 0.950 . S
C3655 C3654 1.397 . S
C3655 C3656 1.334 . S
C3656 H3627 0.950 . S
C3656 C3655 1.334 . S
C3656 C3657 1.287 . S
C3657 C3656 1.287 . S
C3657 C3658 1.524 . S
C3657 H3660 0.999 . S
C3658 H3628 0.950 . S
C3658 C3657 1.524 . S
C3658 C3659 1.415 . S
C3659 H3629 0.950 . S
C3659 C3654 1.363 . S
C3659 C3658 1.415 . S
H3660 C3657 0.999 . S
H3661 C3642 0.913 . S
H3662 C3680 0.951 . S
H3663 C3682 0.951 . S
H3664 C3684 0.950 . S
H3665 C3685 0.950 . S
H3666 C3687 0.950 . S
H3667 C3690 0.950 1_556 S
H3668 C3691 0.950 . S
H3669 C3693 0.950 . S
H3670 C3694 0.950 1_556 S
H3671 C3695 0.951 . S
H3672 C3697 0.951 . S
H3673 C3699 0.950 . S
H3674 C3700 0.950 . S
H3675 C3702 0.950 . S
H3676 C3705 0.950 . S
H3677 C3706 0.950 . S
H3678 C3708 0.950 . S
H3679 C3709 0.950 . S
C3680 H3662 0.951 . S
C3680 C3681 1.366 . S
C3680 C3682 1.388 . S
C3681 C3680 1.366 . S
C3681 C3685 1.385 . S
C3682 H3663 0.951 . S
C3682 C3680 1.388 . S
C3682 C3683 1.366 . S
C3683 C3682 1.366 . S
C3683 C3684 1.414 . S
C3683 C3686 1.499 . S
C3684 H3664 0.950 . S
C3684 C3683 1.414 . S
C3684 C3685 1.374 . S
C3685 H3665 0.950 . S
C3685 C3681 1.385 . S
C3685 C3684 1.374 . S
C3686 C3683 1.499 . S
C3686 C3687 1.373 . S
C3686 C3688 1.389 . S
C3687 H3666 0.950 . S
C3687 C3686 1.373 . S
C3687 C3703 1.377 . S
C3688 C3686 1.389 . S
C3688 C3689 1.524 . S
C3688 C3702 1.377 . S
C3689 C3688 1.524 . S
C3689 C3690 1.397 1_556 S
C3689 C3694 1.363 1_556 S
C3690 H3667 0.950 1_554 S
C3690 C3689 1.397 1_554 S
C3690 C3691 1.334 . S
C3691 H3668 0.950 . S
C3691 C3690 1.334 . S
C3691 C3692 1.287 . S
C3692 C3691 1.287 . S
C3692 C3693 1.524 . S
C3692 H3711 0.913 . S
C3693 H3669 0.950 . S
C3693 C3692 1.524 . S
C3693 C3694 1.415 . S
C3694 H3670 0.950 1_554 S
C3694 C3689 1.363 1_554 S
C3694 C3693 1.415 . S
C3695 H3671 0.951 . S
C3695 C3696 1.366 . S
C3695 C3697 1.388 . S
C3696 C3695 1.366 . S
C3696 C3700 1.385 . S
C3697 H3672 0.951 . S
C3697 C3695 1.388 . S
C3697 C3698 1.366 . S
C3698 C3697 1.366 . S
C3698 C3699 1.414 . S
C3698 C3701 1.499 . S
C3699 H3673 0.950 . S
C3699 C3698 1.414 . S
C3699 C3700 1.374 . S
C3700 H3674 0.950 . S
C3700 C3696 1.385 . S
C3700 C3699 1.374 . S
C3701 C3698 1.499 . S
C3701 C3702 1.373 . S
C3701 C3703 1.389 . S
C3702 H3675 0.950 . S
C3702 C3688 1.377 . S
C3702 C3701 1.373 . S
C3703 C3687 1.377 . S
C3703 C3701 1.389 . S
C3703 C3704 1.524 . S
C3704 C3703 1.524 . S
C3704 C3705 1.397 . S
C3704 C3709 1.363 . S
C3705 H3676 0.950 . S
C3705 C3704 1.397 . S
C3705 C3706 1.334 . S
C3706 H3677 0.950 . S
C3706 C3705 1.334 . S
C3706 C3707 1.287 . S
C3707 C3706 1.287 . S
C3707 C3708 1.524 . S
C3707 H3710 0.999 . S
C3708 H3678 0.950 . S
C3708 C3707 1.524 . S
C3708 C3709 1.415 . S
C3709 H3679 0.950 . S
C3709 C3704 1.363 . S
C3709 C3708 1.415 . S
H3710 C3707 0.999 . S
H3711 C3692 0.913 . S
H3712 C3730 0.951 . S
H3713 C3732 0.951 . S
H3714 C3734 0.950 . S
H3715 C3735 0.950 1_554 S
H3716 C3737 0.950 . S
H3717 C3740 0.950 . S
H3718 C3741 0.950 . S
H3719 C3743 0.950 . S
H3720 C3744 0.950 . S
H3721 C3745 0.951 . S
H3722 C3747 0.951 . S
H3723 C3749 0.950 . S
H3724 C3750 0.950 . S
H3725 C3752 0.950 . S
H3726 C3755 0.950 . S
H3727 C3756 0.950 . S
H3728 C3758 0.962 . S
H3729 C3759 0.950 . S
C3730 H3712 0.951 . S
C3730 C3731 1.366 . S
C3730 C3732 1.388 . S
C3731 C3730 1.366 . S
C3731 C3735 1.385 . S
C3732 H3713 0.951 . S
C3732 C3730 1.388 . S
C3732 C3733 1.366 . S
C3733 C3732 1.366 . S
C3733 C3734 1.414 . S
C3733 C3736 1.499 . S
C3734 H3714 0.950 . S
C3734 C3733 1.414 . S
C3734 C3735 1.374 . S
C3735 H3715 0.950 1_556 S
C3735 C3731 1.385 . S
C3735 C3734 1.374 . S
C3736 C3733 1.499 . S
C3736 C3737 1.373 . S
C3736 C3738 1.389 . S
C3737 H3716 0.950 . S
C3737 C3736 1.373 . S
C3737 C3753 1.377 . S
C3738 C3736 1.389 . S
C3738 C3739 1.524 . S
C3738 C3752 1.377 . S
C3739 C3738 1.524 . S
C3739 C3740 1.397 . S
C3739 C3744 1.363 . S
C3740 H3717 0.950 . S
C3740 C3739 1.397 . S
C3740 C3741 1.334 . S
C3741 H3718 0.950 . S
C3741 C3740 1.334 . S
C3741 C3742 1.287 . S
C3742 C3741 1.287 . S
C3742 C3743 1.524 . S
C3742 H3761 0.913 . S
C3743 H3719 0.950 . S
C3743 C3742 1.524 . S
C3743 C3744 1.415 . S
C3744 H3720 0.950 . S
C3744 C3739 1.363 . S
C3744 C3743 1.415 . S
C3745 H3721 0.951 . S
C3745 C3746 1.366 . S
C3745 C3747 1.388 . S
C3746 C3745 1.366 . S
C3746 C3750 1.385 . S
C3747 H3722 0.951 . S
C3747 C3745 1.388 . S
C3747 C3748 1.366 . S
C3748 C3747 1.366 . S
C3748 C3749 1.414 . S
C3748 C3751 1.499 . S
C3749 H3723 0.950 . S
C3749 C3748 1.414 . S
C3749 C3750 1.374 . S
C3750 H3724 0.950 . S
C3750 C3746 1.385 . S
C3750 C3749 1.374 . S
C3751 C3748 1.499 . S
C3751 C3752 1.373 . S
C3751 C3753 1.389 . S
C3752 H3725 0.950 . S
C3752 C3738 1.377 . S
C3752 C3751 1.373 . S
C3753 C3737 1.377 . S
C3753 C3751 1.389 . S
C3753 C3754 1.524 . S
C3754 C3753 1.524 . S
C3754 C3755 1.397 . S
C3754 C3759 1.363 . S
C3755 H3726 0.950 . S
C3755 C3754 1.397 . S
C3755 C3756 1.334 . S
C3756 H3727 0.950 . S
C3756 C3755 1.334 . S
C3756 C3757 1.287 . S
C3757 C3756 1.287 . S
C3757 C3758 1.519 1_556 S
C3757 H3760 0.999 1_556 S
C3758 H3728 0.962 . S
C3758 C3757 1.519 1_554 S
C3758 C3759 1.405 1_554 S
C3759 H3729 0.950 . S
C3759 C3754 1.363 . S
C3759 C3758 1.405 1_556 S
H3760 C3757 0.999 1_554 S
H3761 C3742 0.913 . S
H3762 C3780 0.951 . S
H3763 C3782 0.951 . S
H3764 C3784 0.950 . S
H3765 C3785 0.950 . S
H3766 C3787 0.950 . S
H3767 C3790 0.950 . S
H3768 C3791 0.950 . S
H3769 C3793 0.950 . S
H3770 C3794 0.950 . S
H3771 C3795 0.951 . S
H3772 C3797 0.951 . S
H3773 C3799 0.950 . S
H3774 C3800 0.950 . S
H3775 C3802 0.950 . S
H3776 C3805 0.950 . S
H3777 C3806 0.950 . S
H3778 C3808 0.950 . S
H3779 C3809 0.950 . S
C3780 H3762 0.951 . S
C3780 C3781 1.366 . S
C3780 C3782 1.388 . S
C3781 C3780 1.366 . S
C3781 C3785 1.385 . S
C3782 H3763 0.951 . S
C3782 C3780 1.388 . S
C3782 C3783 1.366 . S
C3783 C3782 1.366 . S
C3783 C3784 1.414 . S
C3783 C3786 1.499 . S
C3784 H3764 0.950 . S
C3784 C3783 1.414 . S
C3784 C3785 1.374 . S
C3785 H3765 0.950 . S
C3785 C3781 1.385 . S
C3785 C3784 1.374 . S
C3786 C3783 1.499 . S
C3786 C3787 1.373 . S
C3786 C3788 1.389 . S
C3787 H3766 0.950 . S
C3787 C3786 1.373 . S
C3787 C3803 1.377 . S
C3788 C3786 1.389 . S
C3788 C3789 1.524 . S
C3788 C3802 1.377 . S
C3789 C3788 1.524 . S
C3789 C3790 1.397 . S
C3789 C3794 1.363 . S
C3790 H3767 0.950 . S
C3790 C3789 1.397 . S
C3790 C3791 1.334 . S
C3791 H3768 0.950 . S
C3791 C3790 1.334 . S
C3791 C3792 1.287 . S
C3792 C3791 1.287 . S
C3792 C3793 1.524 . S
C3792 H3811 0.913 . S
C3793 H3769 0.950 . S
C3793 C3792 1.524 . S
C3793 C3794 1.415 . S
C3794 H3770 0.950 . S
C3794 C3789 1.363 . S
C3794 C3793 1.415 . S
C3795 H3771 0.951 . S
C3795 C3796 1.366 . S
C3795 C3797 1.388 . S
C3796 C3795 1.366 . S
C3796 C3800 1.385 . S
C3797 H3772 0.951 . S
C3797 C3795 1.388 . S
C3797 C3798 1.366 . S
C3798 C3797 1.366 . S
C3798 C3799 1.414 . S
C3798 C3801 1.499 . S
C3799 H3773 0.950 . S
C3799 C3798 1.414 . S
C3799 C3800 1.374 . S
C3800 H3774 0.950 . S
C3800 C3796 1.385 . S
C3800 C3799 1.374 . S
C3801 C3798 1.499 . S
C3801 C3802 1.373 . S
C3801 C3803 1.389 . S
C3802 H3775 0.950 . S
C3802 C3788 1.377 . S
C3802 C3801 1.373 . S
C3803 C3787 1.377 . S
C3803 C3801 1.389 . S
C3803 C3804 1.524 . S
C3804 C3803 1.524 . S
C3804 C3805 1.397 . S
C3804 C3809 1.363 . S
C3805 H3776 0.950 . S
C3805 C3804 1.397 . S
C3805 C3806 1.334 . S
C3806 H3777 0.950 . S
C3806 C3805 1.334 . S
C3806 C3807 1.287 . S
C3807 C3806 1.287 . S
C3807 C3808 1.524 . S
C3807 H3810 0.999 . S
C3808 H3778 0.950 . S
C3808 C3807 1.524 . S
C3808 C3809 1.415 . S
C3809 H3779 0.950 . S
C3809 C3804 1.363 . S
C3809 C3808 1.415 . S
H3810 C3807 0.999 . S
H3811 C3792 0.913 . S
H3812 C3830 0.951 . S
H3813 C3832 0.951 . S
H3814 C3834 0.950 . S
H3815 C3835 0.950 . S
H3816 C3837 0.950 . S
H3817 C3840 0.950 . S
H3818 C3841 0.950 . S
H3819 C3843 0.950 . S
H3820 C3844 0.950 . S
H3821 C3845 0.951 . S
H3822 C3847 0.951 . S
H3823 C3849 0.950 . S
H3824 C3850 0.950 . S
H3825 C3852 0.950 . S
H3826 C3855 0.950 . S
H3827 C3856 0.950 . S
H3828 C3858 0.950 . S
H3829 C3859 0.950 . S
C3830 H3812 0.951 . S
C3830 C3831 1.366 . S
C3830 C3832 1.388 . S
C3831 C3830 1.366 . S
C3831 C3835 1.385 . S
C3832 H3813 0.951 . S
C3832 C3830 1.388 . S
C3832 C3833 1.366 . S
C3833 C3832 1.366 . S
C3833 C3834 1.414 . S
C3833 C3836 1.499 . S
C3834 H3814 0.950 . S
C3834 C3833 1.414 . S
C3834 C3835 1.374 . S
C3835 H3815 0.950 . S
C3835 C3831 1.385 . S
C3835 C3834 1.374 . S
C3836 C3833 1.499 . S
C3836 C3837 1.373 . S
C3836 C3838 1.389 . S
C3837 H3816 0.950 . S
C3837 C3836 1.373 . S
C3837 C3853 1.377 . S
C3838 C3836 1.389 . S
C3838 C3839 1.524 . S
C3838 C3852 1.377 . S
C3839 C3838 1.524 . S
C3839 C3840 1.397 . S
C3839 C3844 1.363 . S
C3840 H3817 0.950 . S
C3840 C3839 1.397 . S
C3840 C3841 1.334 . S
C3841 H3818 0.950 . S
C3841 C3840 1.334 . S
C3841 C3842 1.287 . S
C3842 C3841 1.287 . S
C3842 C3843 1.524 . S
C3842 H3861 0.913 . S
C3843 H3819 0.950 . S
C3843 C3842 1.524 . S
C3843 C3844 1.415 . S
C3844 H3820 0.950 . S
C3844 C3839 1.363 . S
C3844 C3843 1.415 . S
C3845 H3821 0.951 . S
C3845 C3846 1.366 . S
C3845 C3847 1.388 . S
C3846 C3845 1.366 . S
C3846 C3850 1.385 . S
C3847 H3822 0.951 . S
C3847 C3845 1.388 . S
C3847 C3848 1.366 . S
C3848 C3847 1.366 . S
C3848 C3849 1.414 . S
C3848 C3851 1.499 . S
C3849 H3823 0.950 . S
C3849 C3848 1.414 . S
C3849 C3850 1.374 . S
C3850 H3824 0.950 . S
C3850 C3846 1.385 . S
C3850 C3849 1.374 . S
C3851 C3848 1.499 . S
C3851 C3852 1.373 . S
C3851 C3853 1.389 . S
C3852 H3825 0.950 . S
C3852 C3838 1.377 . S
C3852 C3851 1.373 . S
C3853 C3837 1.377 . S
C3853 C3851 1.389 . S
C3853 C3854 1.524 . S
C3854 C3853 1.524 . S
C3854 C3855 1.397 . S
C3854 C3859 1.363 . S
C3855 H3826 0.950 . S
C3855 C3854 1.397 . S
C3855 C3856 1.334 . S
C3856 H3827 0.950 . S
C3856 C3855 1.334 . S
C3856 C3857 1.287 . S
C3857 C3856 1.287 . S
C3857 C3858 1.524 . S
C3857 H3860 0.999 . S
C3858 H3828 0.950 . S
C3858 C3857 1.524 . S
C3858 C3859 1.415 . S
C3859 H3829 0.950 . S
C3859 C3854 1.363 . S
C3859 C3858 1.415 . S
H3860 C3857 0.999 . S
H3861 C3842 0.913 . S
H3862 C3880 0.951 . S
H3863 C3882 0.951 . S
H3864 C3884 0.950 . S
H3865 C3885 0.950 . S
H3866 C3887 0.950 . S
H3867 C3890 0.950 . S
H3868 C3891 0.950 . S
H3869 C3893 0.950 . S
H3870 C3894 0.950 . S
H3871 C3895 0.951 . S
H3872 C3897 0.951 . S
H3873 C3899 0.950 . S
H3874 C3900 0.950 . S
H3875 C3902 0.950 . S
H3876 C3905 0.950 . S
H3877 C3906 0.950 . S
H3878 C3908 0.950 . S
H3879 C3909 0.950 . S
C3880 H3862 0.951 . S
C3880 C3881 1.366 . S
C3880 C3882 1.388 . S
C3881 C3880 1.366 . S
C3881 C3885 1.385 . S
C3882 H3863 0.951 . S
C3882 C3880 1.388 . S
C3882 C3883 1.366 . S
C3883 C3882 1.366 . S
C3883 C3884 1.414 . S
C3883 C3886 1.499 . S
C3884 H3864 0.950 . S
C3884 C3883 1.414 . S
C3884 C3885 1.374 . S
C3885 H3865 0.950 . S
C3885 C3881 1.385 . S
C3885 C3884 1.374 . S
C3886 C3883 1.499 . S
C3886 C3887 1.373 . S
C3886 C3888 1.389 . S
C3887 H3866 0.950 . S
C3887 C3886 1.373 . S
C3887 C3903 1.377 . S
C3888 C3886 1.389 . S
C3888 C3889 1.524 . S
C3888 C3902 1.377 . S
C3889 C3888 1.524 . S
C3889 C3890 1.397 . S
C3889 C3894 1.363 . S
C3890 H3867 0.950 . S
C3890 C3889 1.397 . S
C3890 C3891 1.334 . S
C3891 H3868 0.950 . S
C3891 C3890 1.334 . S
C3891 C3892 1.287 . S
C3892 C3891 1.287 . S
C3892 C3893 1.524 . S
C3892 H3911 0.913 . S
C3893 H3869 0.950 . S
C3893 C3892 1.524 . S
C3893 C3894 1.415 . S
C3894 H3870 0.950 . S
C3894 C3889 1.363 . S
C3894 C3893 1.415 . S
C3895 H3871 0.951 . S
C3895 C3896 1.366 . S
C3895 C3897 1.388 . S
C3896 C3895 1.366 . S
C3896 C3900 1.385 . S
C3897 H3872 0.951 . S
C3897 C3895 1.388 . S
C3897 C3898 1.366 . S
C3898 C3897 1.366 . S
C3898 C3899 1.414 . S
C3898 C3901 1.499 . S
C3899 H3873 0.950 . S
C3899 C3898 1.414 . S
C3899 C3900 1.374 . S
C3900 H3874 0.950 . S
C3900 C3896 1.385 . S
C3900 C3899 1.374 . S
C3901 C3898 1.499 . S
C3901 C3902 1.373 . S
C3901 C3903 1.389 . S
C3902 H3875 0.950 . S
C3902 C3888 1.377 . S
C3902 C3901 1.373 . S
C3903 C3887 1.377 . S
C3903 C3901 1.389 . S
C3903 C3904 1.524 . S
C3904 C3903 1.524 . S
C3904 C3905 1.397 . S
C3904 C3909 1.363 . S
C3905 H3876 0.950 . S
C3905 C3904 1.397 . S
C3905 C3906 1.334 . S
C3906 H3877 0.950 . S
C3906 C3905 1.334 . S
C3906 C3907 1.287 . S
C3907 C3906 1.287 . S
C3907 C3908 1.524 . S
C3907 H3910 0.999 . S
C3908 H3878 0.950 . S
C3908 C3907 1.524 . S
C3908 C3909 1.415 . S
C3909 H3879 0.950 . S
C3909 C3904 1.363 . S
C3909 C3908 1.415 . S
H3910 C3907 0.999 . S
H3911 C3892 0.913 . S
H3912 C3930 0.951 . S
H3913 C3932 0.951 . S
H3914 C3934 0.950 . S
H3915 C3935 0.950 . S
H3916 C3937 0.950 . S
H3917 C3940 0.950 . S
H3918 C3941 0.950 . S
H3919 C3943 0.950 . S
H3920 C3944 0.950 . S
H3921 C3945 0.951 . S
H3922 C3947 0.951 . S
H3923 C3949 0.950 . S
H3924 C3950 0.950 . S
H3925 C3952 0.950 . S
H3926 C3955 0.950 . S
H3927 C3956 0.950 . S
H3928 C3958 0.950 . S
H3929 C3959 0.950 . S
C3930 H3912 0.951 . S
C3930 C3931 1.366 . S
C3930 C3932 1.388 . S
C3931 C3930 1.366 . S
C3931 C3935 1.385 . S
C3932 H3913 0.951 . S
C3932 C3930 1.388 . S
C3932 C3933 1.366 . S
C3933 C3932 1.366 . S
C3933 C3934 1.414 . S
C3933 C3936 1.499 . S
C3934 H3914 0.950 . S
C3934 C3933 1.414 . S
C3934 C3935 1.374 . S
C3935 H3915 0.950 . S
C3935 C3931 1.385 . S
C3935 C3934 1.374 . S
C3936 C3933 1.499 . S
C3936 C3937 1.373 . S
C3936 C3938 1.389 . S
C3937 H3916 0.950 . S
C3937 C3936 1.373 . S
C3937 C3953 1.377 . S
C3938 C3936 1.389 . S
C3938 C3939 1.524 . S
C3938 C3952 1.377 . S
C3939 C3938 1.524 . S
C3939 C3940 1.397 . S
C3939 C3944 1.363 . S
C3940 H3917 0.950 . S
C3940 C3939 1.397 . S
C3940 C3941 1.334 . S
C3941 H3918 0.950 . S
C3941 C3940 1.334 . S
C3941 C3942 1.287 . S
C3942 C3941 1.287 . S
C3942 C3943 1.524 . S
C3942 H3961 0.913 . S
C3943 H3919 0.950 . S
C3943 C3942 1.524 . S
C3943 C3944 1.415 . S
C3944 H3920 0.950 . S
C3944 C3939 1.363 . S
C3944 C3943 1.415 . S
C3945 H3921 0.951 . S
C3945 C3946 1.366 . S
C3945 C3947 1.388 . S
C3946 C3945 1.366 . S
C3946 C3950 1.385 . S
C3947 H3922 0.951 . S
C3947 C3945 1.388 . S
C3947 C3948 1.366 . S
C3948 C3947 1.366 . S
C3948 C3949 1.414 . S
C3948 C3951 1.499 . S
C3949 H3923 0.950 . S
C3949 C3948 1.414 . S
C3949 C3950 1.374 . S
C3950 H3924 0.950 . S
C3950 C3946 1.385 . S
C3950 C3949 1.374 . S
C3951 C3948 1.499 . S
C3951 C3952 1.373 . S
C3951 C3953 1.389 . S
C3952 H3925 0.950 . S
C3952 C3938 1.377 . S
C3952 C3951 1.373 . S
C3953 C3937 1.377 . S
C3953 C3951 1.389 . S
C3953 C3954 1.524 . S
C3954 C3953 1.524 . S
C3954 C3955 1.397 . S
C3954 C3959 1.363 . S
C3955 H3926 0.950 . S
C3955 C3954 1.397 . S
C3955 C3956 1.334 . S
C3956 H3927 0.950 . S
C3956 C3955 1.334 . S
C3956 C3957 1.287 . S
C3957 C3956 1.287 . S
C3957 C3958 1.524 . S
C3957 H3960 0.999 . S
C3958 H3928 0.950 . S
C3958 C3957 1.524 . S
C3958 C3959 1.415 . S
C3959 H3929 0.950 . S
C3959 C3954 1.363 . S
C3959 C3958 1.415 . S
H3960 C3957 0.999 . S
H3961 C3942 0.913 . S
H3962 C3980 0.951 . S
H3963 C3982 0.951 . S
H3964 C3984 0.950 . S
H3965 C3985 0.950 . S
H3966 C3987 0.950 . S
H3967 C3990 0.950 . S
H3968 C3991 0.950 . S
H3969 C3993 0.950 . S
H3970 C3994 0.950 . S
H3971 C3995 0.951 . S
H3972 C3997 0.951 . S
H3973 C3999 0.950 . S
H3974 C4000 0.950 . S
H3975 C4002 0.950 . S
H3976 C4005 0.950 . S
H3977 C4006 0.950 . S
H3978 C4008 0.950 . S
H3979 C4009 0.950 . S
C3980 H3962 0.951 . S
C3980 C3981 1.366 . S
C3980 C3982 1.388 . S
C3981 C3980 1.366 . S
C3981 C3985 1.385 . S
C3982 H3963 0.951 . S
C3982 C3980 1.388 . S
C3982 C3983 1.366 . S
C3983 C3982 1.366 . S
C3983 C3984 1.414 . S
C3983 C3986 1.499 . S
C3984 H3964 0.950 . S
C3984 C3983 1.414 . S
C3984 C3985 1.374 . S
C3985 H3965 0.950 . S
C3985 C3981 1.385 . S
C3985 C3984 1.374 . S
C3986 C3983 1.499 . S
C3986 C3987 1.373 . S
C3986 C3988 1.389 . S
C3987 H3966 0.950 . S
C3987 C3986 1.373 . S
C3987 C4003 1.377 . S
C3988 C3986 1.389 . S
C3988 C3989 1.524 . S
C3988 C4002 1.377 . S
C3989 C3988 1.524 . S
C3989 C3990 1.397 . S
C3989 C3994 1.363 . S
C3990 H3967 0.950 . S
C3990 C3989 1.397 . S
C3990 C3991 1.334 . S
C3991 H3968 0.950 . S
C3991 C3990 1.334 . S
C3991 C3992 1.287 . S
C3992 C3991 1.287 . S
C3992 C3993 1.524 . S
C3992 H4011 0.913 . S
C3993 H3969 0.950 . S
C3993 C3992 1.524 . S
C3993 C3994 1.415 . S
C3994 H3970 0.950 . S
C3994 C3989 1.363 . S
C3994 C3993 1.415 . S
C3995 H3971 0.951 . S
C3995 C3996 1.366 . S
C3995 C3997 1.388 . S
C3996 C3995 1.366 . S
C3996 C4000 1.385 . S
C3997 H3972 0.951 . S
C3997 C3995 1.388 . S
C3997 C3998 1.366 . S
C3998 C3997 1.366 . S
C3998 C3999 1.414 . S
C3998 C4001 1.499 . S
C3999 H3973 0.950 . S
C3999 C3998 1.414 . S
C3999 C4000 1.374 . S
C4000 H3974 0.950 . S
C4000 C3996 1.385 . S
C4000 C3999 1.374 . S
C4001 C3998 1.499 . S
C4001 C4002 1.373 . S
C4001 C4003 1.389 . S
C4002 H3975 0.950 . S
C4002 C3988 1.377 . S
C4002 C4001 1.373 . S
C4003 C3987 1.377 . S
C4003 C4001 1.389 . S
C4003 C4004 1.524 . S
C4004 C4003 1.524 . S
C4004 C4005 1.397 . S
C4004 C4009 1.363 . S
C4005 H3976 0.950 . S
C4005 C4004 1.397 . S
C4005 C4006 1.334 . S
C4006 H3977 0.950 . S
C4006 C4005 1.334 . S
C4006 C4007 1.287 . S
C4007 C4006 1.287 . S
C4007 C4008 1.524 . S
C4007 H4010 0.999 . S
C4008 H3978 0.950 . S
C4008 C4007 1.524 . S
C4008 C4009 1.415 . S
C4009 H3979 0.950 . S
C4009 C4004 1.363 . S
C4009 C4008 1.415 . S
H4010 C4007 0.999 . S
H4011 C3992 0.913 . S
H4012 C4030 0.951 . S
H4013 C4032 0.951 . S
H4014 C4034 0.950 . S
H4015 C4035 0.950 . S
H4016 C4037 0.950 . S
H4017 C4040 0.950 . S
H4018 C4041 0.950 . S
H4019 C4043 0.950 . S
H4020 C4044 0.950 . S
H4021 C4045 0.951 . S
H4022 C4047 0.951 . S
H4023 C4049 0.950 . S
H4024 C4050 0.950 . S
H4025 C4052 0.950 . S
H4026 C4055 0.950 . S
H4027 C4056 0.950 . S
H4028 C4058 0.950 . S
H4029 C4059 0.950 . S
C4030 H4012 0.951 . S
C4030 C4031 1.366 . S
C4030 C4032 1.388 . S
C4031 C4030 1.366 . S
C4031 C4035 1.385 . S
C4032 H4013 0.951 . S
C4032 C4030 1.388 . S
C4032 C4033 1.366 . S
C4033 C4032 1.366 . S
C4033 C4034 1.414 . S
C4033 C4036 1.499 . S
C4034 H4014 0.950 . S
C4034 C4033 1.414 . S
C4034 C4035 1.374 . S
C4035 H4015 0.950 . S
C4035 C4031 1.385 . S
C4035 C4034 1.374 . S
C4036 C4033 1.499 . S
C4036 C4037 1.373 . S
C4036 C4038 1.389 . S
C4037 H4016 0.950 . S
C4037 C4036 1.373 . S
C4037 C4053 1.377 . S
C4038 C4036 1.389 . S
C4038 C4039 1.524 . S
C4038 C4052 1.377 . S
C4039 C4038 1.524 . S
C4039 C4040 1.397 . S
C4039 C4044 1.363 . S
C4040 H4017 0.950 . S
C4040 C4039 1.397 . S
C4040 C4041 1.334 . S
C4041 H4018 0.950 . S
C4041 C4040 1.334 . S
C4041 C4042 1.287 . S
C4042 C4041 1.287 . S
C4042 C4043 1.524 . S
C4042 H4061 0.913 . S
C4043 H4019 0.950 . S
C4043 C4042 1.524 . S
C4043 C4044 1.415 . S
C4044 H4020 0.950 . S
C4044 C4039 1.363 . S
C4044 C4043 1.415 . S
C4045 H4021 0.951 . S
C4045 C4046 1.366 . S
C4045 C4047 1.388 . S
C4046 C4045 1.366 . S
C4046 C4050 1.385 . S
C4047 H4022 0.951 . S
C4047 C4045 1.388 . S
C4047 C4048 1.366 . S
C4048 C4047 1.366 . S
C4048 C4049 1.414 . S
C4048 C4051 1.499 . S
C4049 H4023 0.950 . S
C4049 C4048 1.414 . S
C4049 C4050 1.374 . S
C4050 H4024 0.950 . S
C4050 C4046 1.385 . S
C4050 C4049 1.374 . S
C4051 C4048 1.499 . S
C4051 C4052 1.373 . S
C4051 C4053 1.389 . S
C4052 H4025 0.950 . S
C4052 C4038 1.377 . S
C4052 C4051 1.373 . S
C4053 C4037 1.377 . S
C4053 C4051 1.389 . S
C4053 C4054 1.524 . S
C4054 C4053 1.524 . S
C4054 C4055 1.397 . S
C4054 C4059 1.363 . S
C4055 H4026 0.950 . S
C4055 C4054 1.397 . S
C4055 C4056 1.334 . S
C4056 H4027 0.950 . S
C4056 C4055 1.334 . S
C4056 C4057 1.287 . S
C4057 C4056 1.287 . S
C4057 C4058 1.524 . S
C4057 H4060 0.999 . S
C4058 H4028 0.950 . S
C4058 C4057 1.524 . S
C4058 C4059 1.415 . S
C4059 H4029 0.950 . S
C4059 C4054 1.363 . S
C4059 C4058 1.415 . S
H4060 C4057 0.999 . S
H4061 C4042 0.913 . S
H4062 C4080 0.966 . S
H4063 C4082 0.951 . S
H4064 C4084 0.950 . S
H4065 C4085 0.950 . S
H4066 C4087 0.950 . S
H4067 C4090 0.950 . S
H4068 C4091 0.950 . S
H4069 C4093 0.950 . S
H4070 C4094 0.950 . S
H4071 C4095 0.951 . S
H4072 C4097 0.951 . S
H4073 C4099 0.950 . S
H4074 C4100 0.950 . S
H4075 C4102 0.950 . S
H4076 C4105 0.950 . S
H4077 C4106 0.950 . S
H4078 C4108 0.950 . S
H4079 C4109 0.950 . S
C4080 H4062 0.966 . S
C4080 C4081 1.329 1_655 S
C4080 C4082 1.412 . S
C4081 C4080 1.329 1_455 S
C4081 C4085 1.385 . S
C4082 H4063 0.951 . S
C4082 C4080 1.412 . S
C4082 C4083 1.366 1_655 S
C4083 C4082 1.366 1_455 S
C4083 C4084 1.414 . S
C4083 C4086 1.499 . S
C4084 H4064 0.950 . S
C4084 C4083 1.414 . S
C4084 C4085 1.374 . S
C4085 H4065 0.950 . S
C4085 C4081 1.385 . S
C4085 C4084 1.374 . S
C4086 C4083 1.499 . S
C4086 C4087 1.373 . S
C4086 C4088 1.389 . S
C4087 H4066 0.950 . S
C4087 C4086 1.373 . S
C4087 C4103 1.377 . S
C4088 C4086 1.389 . S
C4088 C4089 1.524 . S
C4088 C4102 1.377 . S
C4089 C4088 1.524 . S
C4089 C4090 1.397 . S
C4089 C4094 1.363 1_455 S
C4090 H4067 0.950 . S
C4090 C4089 1.397 . S
C4090 C4091 1.334 . S
C4091 H4068 0.950 . S
C4091 C4090 1.334 . S
C4091 C4092 1.287 . S
C4092 C4091 1.287 . S
C4092 C4093 1.524 1_455 S
C4092 H4111 0.913 . S
C4093 H4069 0.950 . S
C4093 C4092 1.524 1_655 S
C4093 C4094 1.415 . S
C4094 H4070 0.950 . S
C4094 C4089 1.363 1_655 S
C4094 C4093 1.415 . S
C4095 H4071 0.951 . S
C4095 C4096 1.366 . S
C4095 C4097 1.388 . S
C4096 C4095 1.366 . S
C4096 C4100 1.385 1_455 S
C4097 H4072 0.951 . S
C4097 C4095 1.388 . S
C4097 C4098 1.366 . S
C4098 C4097 1.366 . S
C4098 C4099 1.414 1_455 S
C4098 C4101 1.499 . S
C4099 H4073 0.950 . S
C4099 C4098 1.414 1_655 S
C4099 C4100 1.374 . S
C4100 H4074 0.950 . S
C4100 C4096 1.385 1_655 S
C4100 C4099 1.374 . S
C4101 C4098 1.499 . S
C4101 C4102 1.373 . S
C4101 C4103 1.389 . S
C4102 H4075 0.950 . S
C4102 C4088 1.377 . S
C4102 C4101 1.373 . S
C4103 C4087 1.377 . S
C4103 C4101 1.389 . S
C4103 C4104 1.524 . S
C4104 C4103 1.524 . S
C4104 C4105 1.397 1_455 S
C4104 C4109 1.363 . S
C4105 H4076 0.950 . S
C4105 C4104 1.397 1_655 S
C4105 C4106 1.334 . S
C4106 H4077 0.950 . S
C4106 C4105 1.334 . S
C4106 C4107 1.287 1_655 S
C4107 C4106 1.287 1_455 S
C4107 C4108 1.524 . S
C4107 H4110 0.999 . S
C4108 H4078 0.950 . S
C4108 C4107 1.524 . S
C4108 C4109 1.415 . S
C4109 H4079 0.950 . S
C4109 C4104 1.363 . S
C4109 C4108 1.415 . S
H4110 C4107 0.999 . S
H4111 C4092 0.913 . S
H4112 C4130 0.951 . S
H4113 C4132 0.951 . S
H4114 C4134 0.950 . S
H4115 C4135 0.950 . S
H4116 C4137 0.950 . S
H4117 C4140 0.950 . S
H4118 C4141 0.950 . S
H4119 C4143 0.950 . S
H4120 C4144 0.950 . S
H4121 C4145 0.951 . S
H4122 C4147 0.951 . S
H4123 C4149 0.950 . S
H4124 C4150 0.950 . S
H4125 C4152 0.950 . S
H4126 C4155 0.950 . S
H4127 C4156 0.950 . S
H4128 C4158 0.950 . S
H4129 C4159 0.950 . S
C4130 H4112 0.951 . S
C4130 C4131 1.366 . S
C4130 C4132 1.388 . S
C4131 C4130 1.366 . S
C4131 C4135 1.385 . S
C4132 H4113 0.951 . S
C4132 C4130 1.388 . S
C4132 C4133 1.366 . S
C4133 C4132 1.366 . S
C4133 C4134 1.414 . S
C4133 C4136 1.499 . S
C4134 H4114 0.950 . S
C4134 C4133 1.414 . S
C4134 C4135 1.374 . S
C4135 H4115 0.950 . S
C4135 C4131 1.385 . S
C4135 C4134 1.374 . S
C4136 C4133 1.499 . S
C4136 C4137 1.373 . S
C4136 C4138 1.389 . S
C4137 H4116 0.950 . S
C4137 C4136 1.373 . S
C4137 C4153 1.377 . S
C4138 C4136 1.389 . S
C4138 C4139 1.524 . S
C4138 C4152 1.377 . S
C4139 C4138 1.524 . S
C4139 C4140 1.397 . S
C4139 C4144 1.363 . S
C4140 H4117 0.950 . S
C4140 C4139 1.397 . S
C4140 C4141 1.334 . S
C4141 H4118 0.950 . S
C4141 C4140 1.334 . S
C4141 C4142 1.287 . S
C4142 C4141 1.287 . S
C4142 C4143 1.524 . S
C4142 H4161 0.913 . S
C4143 H4119 0.950 . S
C4143 C4142 1.524 . S
C4143 C4144 1.415 . S
C4144 H4120 0.950 . S
C4144 C4139 1.363 . S
C4144 C4143 1.415 . S
C4145 H4121 0.951 . S
C4145 C4146 1.366 . S
C4145 C4147 1.388 . S
C4146 C4145 1.366 . S
C4146 C4150 1.385 . S
C4147 H4122 0.951 . S
C4147 C4145 1.388 . S
C4147 C4148 1.366 . S
C4148 C4147 1.366 . S
C4148 C4149 1.414 . S
C4148 C4151 1.499 . S
C4149 H4123 0.950 . S
C4149 C4148 1.414 . S
C4149 C4150 1.374 . S
C4150 H4124 0.950 . S
C4150 C4146 1.385 . S
C4150 C4149 1.374 . S
C4151 C4148 1.499 . S
C4151 C4152 1.373 . S
C4151 C4153 1.389 . S
C4152 H4125 0.950 . S
C4152 C4138 1.377 . S
C4152 C4151 1.373 . S
C4153 C4137 1.377 . S
C4153 C4151 1.389 . S
C4153 C4154 1.524 . S
C4154 C4153 1.524 . S
C4154 C4155 1.397 . S
C4154 C4159 1.363 . S
C4155 H4126 0.950 . S
C4155 C4154 1.397 . S
C4155 C4156 1.334 . S
C4156 H4127 0.950 . S
C4156 C4155 1.334 . S
C4156 C4157 1.287 . S
C4157 C4156 1.287 . S
C4157 C4158 1.524 . S
C4157 H4160 0.999 . S
C4158 H4128 0.950 . S
C4158 C4157 1.524 . S
C4158 C4159 1.415 . S
C4159 H4129 0.950 . S
C4159 C4154 1.363 . S
C4159 C4158 1.415 . S
H4160 C4157 0.999 . S
H4161 C4142 0.913 . S
H4162 C4180 0.951 . S
H4163 C4182 0.951 . S
H4164 C4184 0.950 . S
H4165 C4185 0.950 . S
H4166 C4187 0.950 1_545 S
H4167 C4190 0.950 . S
H4168 C4191 0.950 . S
H4169 C4193 0.950 . S
H4170 C4194 0.950 . S
H4171 C4195 0.951 . S
H4172 C4197 0.951 . S
H4173 C4199 0.979 . S
H4174 C4200 0.950 . S
H4175 C4202 0.950 . S
H4176 C4205 0.950 . S
H4177 C4206 0.950 . S
H4178 C4208 0.950 . S
H4179 C4209 0.950 1_565 S
C4180 H4162 0.951 . S
C4180 C4181 1.366 . S
C4180 C4182 1.388 . S
C4181 C4180 1.366 . S
C4181 C4185 1.385 . S
C4182 H4163 0.951 . S
C4182 C4180 1.388 . S
C4182 C4183 1.366 . S
C4183 C4182 1.366 . S
C4183 C4184 1.414 . S
C4183 C4186 1.499 . S
C4184 H4164 0.950 . S
C4184 C4183 1.414 . S
C4184 C4185 1.374 . S
C4185 H4165 0.950 . S
C4185 C4181 1.385 . S
C4185 C4184 1.374 . S
C4186 C4183 1.499 . S
C4186 C4187 1.373 . S
C4186 C4188 1.389 . S
C4187 H4166 0.950 1_565 S
C4187 C4186 1.373 . S
C4187 C4203 1.374 1_565 S
C4188 C4186 1.389 . S
C4188 C4189 1.524 . S
C4188 C4202 1.377 . S
C4189 C4188 1.524 . S
C4189 C4190 1.397 . S
C4189 C4194 1.363 . S
C4190 H4167 0.950 . S
C4190 C4189 1.397 . S
C4190 C4191 1.334 . S
C4191 H4168 0.950 . S
C4191 C4190 1.334 . S
C4191 C4192 1.287 . S
C4192 C4191 1.287 . S
C4192 C4193 1.524 . S
C4192 H4211 0.913 . S
C4193 H4169 0.950 . S
C4193 C4192 1.524 . S
C4193 C4194 1.415 . S
C4194 H4170 0.950 . S
C4194 C4189 1.363 . S
C4194 C4193 1.415 . S
C4195 H4171 0.951 . S
C4195 C4196 1.366 . S
C4195 C4197 1.388 . S
C4196 C4195 1.366 . S
C4196 C4200 1.385 1_565 S
C4197 H4172 0.951 . S
C4197 C4195 1.388 . S
C4197 C4198 1.366 . S
C4198 C4197 1.366 . S
C4198 C4199 1.404 1_565 S
C4198 C4201 1.499 . S
C4199 H4173 0.979 . S
C4199 C4198 1.404 1_545 S
C4199 C4200 1.357 . S
C4200 H4174 0.950 . S
C4200 C4196 1.385 1_545 S
C4200 C4199 1.357 . S
C4201 C4198 1.499 . S
C4201 C4202 1.373 . S
C4201 C4203 1.392 1_565 S
C4202 H4175 0.950 . S
C4202 C4188 1.377 . S
C4202 C4201 1.373 . S
C4203 C4187 1.374 1_545 S
C4203 C4201 1.392 1_545 S
C4203 C4204 1.523 . S
C4204 C4203 1.523 . S
C4204 C4205 1.397 . S
C4204 C4209 1.363 . S
C4205 H4176 0.950 . S
C4205 C4204 1.397 . S
C4205 C4206 1.334 . S
C4206 H4177 0.950 . S
C4206 C4205 1.334 . S
C4206 C4207 1.287 . S
C4207 C4206 1.287 . S
C4207 C4208 1.524 . S
C4207 H4210 0.999 . S
C4208 H4178 0.950 . S
C4208 C4207 1.524 . S
C4208 C4209 1.415 . S
C4209 H4179 0.950 1_545 S
C4209 C4204 1.363 . S
C4209 C4208 1.415 . S
H4210 C4207 0.999 . S
H4211 C4192 0.913 . S
H4212 C4230 0.951 . S
H4213 C4232 0.951 . S
H4214 C4234 0.950 . S
H4215 C4235 0.950 . S
H4216 C4237 0.950 . S
H4217 C4240 0.950 . S
H4218 C4241 0.950 . S
H4219 C4243 0.950 . S
H4220 C4244 0.950 . S
H4221 C4245 0.951 . S
H4222 C4247 0.951 . S
H4223 C4249 0.962 1_545 S
H4224 C4250 0.967 . S
H4225 C4252 0.950 . S
H4226 C4255 0.950 . S
H4227 C4256 0.950 . S
H4228 C4258 0.950 . S
H4229 C4259 0.950 . S
C4230 H4212 0.951 . S
C4230 C4231 1.366 . S
C4230 C4232 1.388 . S
C4231 C4230 1.366 . S
C4231 C4235 1.385 . S
C4232 H4213 0.951 . S
C4232 C4230 1.388 . S
C4232 C4233 1.366 . S
C4233 C4232 1.366 . S
C4233 C4234 1.414 . S
C4233 C4236 1.499 . S
C4234 H4214 0.950 . S
C4234 C4233 1.414 . S
C4234 C4235 1.374 . S
C4235 H4215 0.950 . S
C4235 C4231 1.385 . S
C4235 C4234 1.374 . S
C4236 C4233 1.499 . S
C4236 C4237 1.373 . S
C4236 C4238 1.389 1_565 S
C4237 H4216 0.950 . S
C4237 C4236 1.373 . S
C4237 C4253 1.377 . S
C4238 C4236 1.389 1_545 S
C4238 C4239 1.524 . S
C4238 C4252 1.377 . S
C4239 C4238 1.524 . S
C4239 C4240 1.397 . S
C4239 C4244 1.363 . S
C4240 H4217 0.950 . S
C4240 C4239 1.397 . S
C4240 C4241 1.334 . S
C4241 H4218 0.950 . S
C4241 C4240 1.334 . S
C4241 C4242 1.287 . S
C4242 C4241 1.287 . S
C4242 C4243 1.524 . S
C4242 H4261 0.913 . S
C4243 H4219 0.950 . S
C4243 C4242 1.524 . S
C4243 C4244 1.415 . S
C4244 H4220 0.950 . S
C4244 C4239 1.363 . S
C4244 C4243 1.415 . S
C4245 H4221 0.951 . S
C4245 C4246 1.366 . S
C4245 C4247 1.388 . S
C4246 C4245 1.366 . S
C4246 C4250 1.396 1_565 S
C4247 H4222 0.951 . S
C4247 C4245 1.388 . S
C4247 C4248 1.366 . S
C4248 C4247 1.366 . S
C4248 C4249 1.435 . S
C4248 C4251 1.499 . S
C4249 H4223 0.962 1_565 S
C4249 C4248 1.435 . S
C4249 C4250 1.321 1_565 S
C4250 H4224 0.967 . S
C4250 C4246 1.396 1_545 S
C4250 C4249 1.321 1_545 S
C4251 C4248 1.499 . S
C4251 C4252 1.373 1_565 S
C4251 C4253 1.389 . S
C4252 H4225 0.950 . S
C4252 C4238 1.377 . S
C4252 C4251 1.373 1_545 S
C4253 C4237 1.377 . S
C4253 C4251 1.389 . S
C4253 C4254 1.524 . S
C4254 C4253 1.524 . S
C4254 C4255 1.397 . S
C4254 C4259 1.363 . S
C4255 H4226 0.950 . S
C4255 C4254 1.397 . S
C4255 C4256 1.334 . S
C4256 H4227 0.950 . S
C4256 C4255 1.334 . S
C4256 C4257 1.287 . S
C4257 C4256 1.287 . S
C4257 C4258 1.524 . S
C4257 H4260 0.999 . S
C4258 H4228 0.950 . S
C4258 C4257 1.524 . S
C4258 C4259 1.415 . S
C4259 H4229 0.950 . S
C4259 C4254 1.363 . S
C4259 C4258 1.415 . S
H4260 C4257 0.999 . S
H4261 C4242 0.913 . S
H4262 C4280 0.951 . S
H4263 C4282 0.951 . S
H4264 C4284 0.894 1_655 S
H4265 C4285 0.950 1_655 S
H4266 C4287 0.950 . S
H4267 C4290 0.950 . S
H4268 C4291 0.950 . S
H4269 C4293 0.950 . S
H4270 C4294 0.950 . S
H4271 C4295 0.951 . S
H4272 C4297 0.951 . S
H4273 C4299 0.950 . S
H4274 C4300 0.950 . S
H4275 C4302 0.950 . S
H4276 C4305 0.950 . S
H4277 C4306 0.950 . S
H4278 C4308 0.950 . S
H4279 C4309 0.950 . S
C4280 H4262 0.951 . S
C4280 C4281 1.366 . S
C4280 C4282 1.388 . S
C4281 C4280 1.366 . S
C4281 C4285 1.385 . S
C4282 H4263 0.951 . S
C4282 C4280 1.388 . S
C4282 C4283 1.366 . S
C4283 C4282 1.366 . S
C4283 C4284 1.510 . S
C4283 C4286 1.499 . S
C4284 H4264 0.894 1_455 S
C4284 C4283 1.510 . S
C4284 C4285 1.341 . S
C4285 H4265 0.950 1_455 S
C4285 C4281 1.385 . S
C4285 C4284 1.341 . S
C4286 C4283 1.499 . S
C4286 C4287 1.373 1_455 S
C4286 C4288 1.389 . S
C4287 H4266 0.950 . S
C4287 C4286 1.373 1_655 S
C4287 C4303 1.377 . S
C4288 C4286 1.389 . S
C4288 C4289 1.524 . S
C4288 C4302 1.377 . S
C4289 C4288 1.524 . S
C4289 C4290 1.397 . S
C4289 C4294 1.363 . S
C4290 H4267 0.950 . S
C4290 C4289 1.397 . S
C4290 C4291 1.334 . S
C4291 H4268 0.950 . S
C4291 C4290 1.334 . S
C4291 C4292 1.287 . S
C4292 C4291 1.287 . S
C4292 C4293 1.524 . S
C4292 H4311 0.913 . S
C4293 H4269 0.950 . S
C4293 C4292 1.524 . S
C4293 C4294 1.415 . S
C4294 H4270 0.950 . S
C4294 C4289 1.363 . S
C4294 C4293 1.415 . S
C4295 H4271 0.951 . S
C4295 C4296 1.366 1_655 S
C4295 C4297 1.388 . S
C4296 C4295 1.366 1_455 S
C4296 C4300 1.385 . S
C4297 H4272 0.951 . S
C4297 C4295 1.388 . S
C4297 C4298 1.366 1_655 S
C4298 C4297 1.366 1_455 S
C4298 C4299 1.414 . S
C4298 C4301 1.499 . S
C4299 H4273 0.950 . S
C4299 C4298 1.414 . S
C4299 C4300 1.374 . S
C4300 H4274 0.950 . S
C4300 C4296 1.385 . S
C4300 C4299 1.374 . S
C4301 C4298 1.499 . S
C4301 C4302 1.373 . S
C4301 C4303 1.389 1_455 S
C4302 H4275 0.950 . S
C4302 C4288 1.377 . S
C4302 C4301 1.373 . S
C4303 C4287 1.377 . S
C4303 C4301 1.389 1_655 S
C4303 C4304 1.524 . S
C4304 C4303 1.524 . S
C4304 C4305 1.397 . S
C4304 C4309 1.363 . S
C4305 H4276 0.950 . S
C4305 C4304 1.397 . S
C4305 C4306 1.334 . S
C4306 H4277 0.950 . S
C4306 C4305 1.334 . S
C4306 C4307 1.287 . S
C4307 C4306 1.287 . S
C4307 C4308 1.524 . S
C4307 H4310 0.999 . S
C4308 H4278 0.950 . S
C4308 C4307 1.524 . S
C4308 C4309 1.415 . S
C4309 H4279 0.950 . S
C4309 C4304 1.363 . S
C4309 C4308 1.415 . S
H4310 C4307 0.999 . S
H4311 C4292 0.913 . S
H4312 C4330 0.951 . S
H4313 C4332 0.951 . S
H4314 C4334 0.950 . S
H4315 C4335 0.950 . S
H4316 C4337 0.950 . S
H4317 C4340 0.950 . S
H4318 C4341 0.950 . S
H4319 C4343 0.950 . S
H4320 C4344 0.950 . S
H4321 C4345 0.951 . S
H4322 C4347 0.951 . S
H4323 C4349 0.950 . S
H4324 C4350 0.950 . S
H4325 C4352 0.950 . S
H4326 C4355 0.950 . S
H4327 C4356 0.950 . S
H4328 C4358 0.950 . S
H4329 C4359 0.950 . S
C4330 H4312 0.951 . S
C4330 C4331 1.366 . S
C4330 C4332 1.388 . S
C4331 C4330 1.366 . S
C4331 C4335 1.385 . S
C4332 H4313 0.951 . S
C4332 C4330 1.388 . S
C4332 C4333 1.366 . S
C4333 C4332 1.366 . S
C4333 C4334 1.414 . S
C4333 C4336 1.499 . S
C4334 H4314 0.950 . S
C4334 C4333 1.414 . S
C4334 C4335 1.374 . S
C4335 H4315 0.950 . S
C4335 C4331 1.385 . S
C4335 C4334 1.374 . S
C4336 C4333 1.499 . S
C4336 C4337 1.373 . S
C4336 C4338 1.389 . S
C4337 H4316 0.950 . S
C4337 C4336 1.373 . S
C4337 C4353 1.377 . S
C4338 C4336 1.389 . S
C4338 C4339 1.524 . S
C4338 C4352 1.377 . S
C4339 C4338 1.524 . S
C4339 C4340 1.397 . S
C4339 C4344 1.363 . S
C4340 H4317 0.950 . S
C4340 C4339 1.397 . S
C4340 C4341 1.334 . S
C4341 H4318 0.950 . S
C4341 C4340 1.334 . S
C4341 C4342 1.287 . S
C4342 C4341 1.287 . S
C4342 C4343 1.524 . S
C4342 H4361 0.913 . S
C4343 H4319 0.950 . S
C4343 C4342 1.524 . S
C4343 C4344 1.415 . S
C4344 H4320 0.950 . S
C4344 C4339 1.363 . S
C4344 C4343 1.415 . S
C4345 H4321 0.951 . S
C4345 C4346 1.366 . S
C4345 C4347 1.388 . S
C4346 C4345 1.366 . S
C4346 C4350 1.385 . S
C4347 H4322 0.951 . S
C4347 C4345 1.388 . S
C4347 C4348 1.366 . S
C4348 C4347 1.366 . S
C4348 C4349 1.414 . S
C4348 C4351 1.499 . S
C4349 H4323 0.950 . S
C4349 C4348 1.414 . S
C4349 C4350 1.374 . S
C4350 H4324 0.950 . S
C4350 C4346 1.385 . S
C4350 C4349 1.374 . S
C4351 C4348 1.499 . S
C4351 C4352 1.373 . S
C4351 C4353 1.389 . S
C4352 H4325 0.950 . S
C4352 C4338 1.377 . S
C4352 C4351 1.373 . S
C4353 C4337 1.377 . S
C4353 C4351 1.389 . S
C4353 C4354 1.524 . S
C4354 C4353 1.524 . S
C4354 C4355 1.397 . S
C4354 C4359 1.363 . S
C4355 H4326 0.950 . S
C4355 C4354 1.397 . S
C4355 C4356 1.334 . S
C4356 H4327 0.950 . S
C4356 C4355 1.334 . S
C4356 C4357 1.287 . S
C4357 C4356 1.287 . S
C4357 C4358 1.524 . S
C4357 H4360 0.999 . S
C4358 H4328 0.950 . S
C4358 C4357 1.524 . S
C4358 C4359 1.415 . S
C4359 H4329 0.950 . S
C4359 C4354 1.363 . S
C4359 C4358 1.415 . S
H4360 C4357 0.999 . S
H4361 C4342 0.913 . S
H4362 C4380 0.951 . S
H4363 C4382 0.951 . S
H4364 C4384 0.950 . S
H4365 C4385 0.950 . S
H4366 C4387 0.950 . S
H4367 C4390 0.950 . S
H4368 C4391 0.950 . S
H4369 C4393 0.950 . S
H4370 C4394 0.950 . S
H4371 C4395 0.951 . S
H4372 C4397 0.951 . S
H4373 C4399 0.950 . S
H4374 C4400 0.950 . S
H4375 C4402 0.950 . S
H4376 C4405 0.950 . S
H4377 C4406 0.950 . S
H4378 C4408 0.950 . S
H4379 C4409 0.950 . S
C4380 H4362 0.951 . S
C4380 C4381 1.366 . S
C4380 C4382 1.388 . S
C4381 C4380 1.366 . S
C4381 C4385 1.385 . S
C4382 H4363 0.951 . S
C4382 C4380 1.388 . S
C4382 C4383 1.366 . S
C4383 C4382 1.366 . S
C4383 C4384 1.414 . S
C4383 C4386 1.499 . S
C4384 H4364 0.950 . S
C4384 C4383 1.414 . S
C4384 C4385 1.374 . S
C4385 H4365 0.950 . S
C4385 C4381 1.385 . S
C4385 C4384 1.374 . S
C4386 C4383 1.499 . S
C4386 C4387 1.373 . S
C4386 C4388 1.389 . S
C4387 H4366 0.950 . S
C4387 C4386 1.373 . S
C4387 C4403 1.377 . S
C4388 C4386 1.389 . S
C4388 C4389 1.524 . S
C4388 C4402 1.377 . S
C4389 C4388 1.524 . S
C4389 C4390 1.397 . S
C4389 C4394 1.363 . S
C4390 H4367 0.950 . S
C4390 C4389 1.397 . S
C4390 C4391 1.334 . S
C4391 H4368 0.950 . S
C4391 C4390 1.334 . S
C4391 C4392 1.287 . S
C4392 C4391 1.287 . S
C4392 C4393 1.524 . S
C4392 H4411 0.913 . S
C4393 H4369 0.950 . S
C4393 C4392 1.524 . S
C4393 C4394 1.415 . S
C4394 H4370 0.950 . S
C4394 C4389 1.363 . S
C4394 C4393 1.415 . S
C4395 H4371 0.951 . S
C4395 C4396 1.366 . S
C4395 C4397 1.388 . S
C4396 C4395 1.366 . S
C4396 C4400 1.385 . S
C4397 H4372 0.951 . S
C4397 C4395 1.388 . S
C4397 C4398 1.366 . S
C4398 C4397 1.366 . S
C4398 C4399 1.414 . S
C4398 C4401 1.499 . S
C4399 H4373 0.950 . S
C4399 C4398 1.414 . S
C4399 C4400 1.374 . S
C4400 H4374 0.950 . S
C4400 C4396 1.385 . S
C4400 C4399 1.374 . S
C4401 C4398 1.499 . S
C4401 C4402 1.373 . S
C4401 C4403 1.389 . S
C4402 H4375 0.950 . S
C4402 C4388 1.377 . S
C4402 C4401 1.373 . S
C4403 C4387 1.377 . S
C4403 C4401 1.389 . S
C4403 C4404 1.524 . S
C4404 C4403 1.524 . S
C4404 C4405 1.397 . S
C4404 C4409 1.363 . S
C4405 H4376 0.950 . S
C4405 C4404 1.397 . S
C4405 C4406 1.334 . S
C4406 H4377 0.950 . S
C4406 C4405 1.334 . S
C4406 C4407 1.287 . S
C4407 C4406 1.287 . S
C4407 C4408 1.524 . S
C4407 H4410 0.999 . S
C4408 H4378 0.950 . S
C4408 C4407 1.524 . S
C4408 C4409 1.415 . S
C4409 H4379 0.950 . S
C4409 C4404 1.363 . S
C4409 C4408 1.415 . S
H4410 C4407 0.999 . S
H4411 C4392 0.913 . S
H4412 C4430 0.951 . S
H4413 C4432 0.951 . S
H4414 C4434 0.950 . S
H4415 C4435 0.950 . S
H4416 C4437 0.950 . S
H4417 C4440 0.950 . S
H4418 C4441 0.950 . S
H4419 C4443 0.950 . S
H4420 C4444 0.950 . S
H4421 C4445 0.951 . S
H4422 C4447 0.951 . S
H4423 C4449 0.950 . S
H4424 C4450 0.950 . S
H4425 C4452 0.950 . S
H4426 C4455 0.950 . S
H4427 C4456 0.950 . S
H4428 C4458 0.950 . S
H4429 C4459 0.950 . S
C4430 H4412 0.951 . S
C4430 C4431 1.366 . S
C4430 C4432 1.388 . S
C4431 C4430 1.366 . S
C4431 C4435 1.385 . S
C4432 H4413 0.951 . S
C4432 C4430 1.388 . S
C4432 C4433 1.366 . S
C4433 C4432 1.366 . S
C4433 C4434 1.414 . S
C4433 C4436 1.499 . S
C4434 H4414 0.950 . S
C4434 C4433 1.414 . S
C4434 C4435 1.374 . S
C4435 H4415 0.950 . S
C4435 C4431 1.385 . S
C4435 C4434 1.374 . S
C4436 C4433 1.499 . S
C4436 C4437 1.373 . S
C4436 C4438 1.389 . S
C4437 H4416 0.950 . S
C4437 C4436 1.373 . S
C4437 C4453 1.377 . S
C4438 C4436 1.389 . S
C4438 C4439 1.524 . S
C4438 C4452 1.377 . S
C4439 C4438 1.524 . S
C4439 C4440 1.397 . S
C4439 C4444 1.363 . S
C4440 H4417 0.950 . S
C4440 C4439 1.397 . S
C4440 C4441 1.334 . S
C4441 H4418 0.950 . S
C4441 C4440 1.334 . S
C4441 C4442 1.287 . S
C4442 C4441 1.287 . S
C4442 C4443 1.524 . S
C4442 H4461 0.913 . S
C4443 H4419 0.950 . S
C4443 C4442 1.524 . S
C4443 C4444 1.415 . S
C4444 H4420 0.950 . S
C4444 C4439 1.363 . S
C4444 C4443 1.415 . S
C4445 H4421 0.951 . S
C4445 C4446 1.366 . S
C4445 C4447 1.388 . S
C4446 C4445 1.366 . S
C4446 C4450 1.385 . S
C4447 H4422 0.951 . S
C4447 C4445 1.388 . S
C4447 C4448 1.366 . S
C4448 C4447 1.366 . S
C4448 C4449 1.414 . S
C4448 C4451 1.499 . S
C4449 H4423 0.950 . S
C4449 C4448 1.414 . S
C4449 C4450 1.374 . S
C4450 H4424 0.950 . S
C4450 C4446 1.385 . S
C4450 C4449 1.374 . S
C4451 C4448 1.499 . S
C4451 C4452 1.373 . S
C4451 C4453 1.389 . S
C4452 H4425 0.950 . S
C4452 C4438 1.377 . S
C4452 C4451 1.373 . S
C4453 C4437 1.377 . S
C4453 C4451 1.389 . S
C4453 C4454 1.524 . S
C4454 C4453 1.524 . S
C4454 C4455 1.397 . S
C4454 C4459 1.363 . S
C4455 H4426 0.950 . S
C4455 C4454 1.397 . S
C4455 C4456 1.334 . S
C4456 H4427 0.950 . S
C4456 C4455 1.334 . S
C4456 C4457 1.287 . S
C4457 C4456 1.287 . S
C4457 C4458 1.524 . S
C4457 H4460 0.999 . S
C4458 H4428 0.950 . S
C4458 C4457 1.524 . S
C4458 C4459 1.415 . S
C4459 H4429 0.950 . S
C4459 C4454 1.363 . S
C4459 C4458 1.415 . S
H4460 C4457 0.999 . S
H4461 C4442 0.913 . S
H4462 C4480 0.951 . S
H4463 C4482 0.951 . S
H4464 C4484 0.950 . S
H4465 C4485 0.950 . S
H4466 C4487 0.950 . S
H4467 C4490 0.950 . S
H4468 C4491 0.950 . S
H4469 C4493 0.950 . S
H4470 C4494 0.950 . S
H4471 C4495 0.951 . S
H4472 C4497 0.951 . S
H4473 C4499 0.950 . S
H4474 C4500 0.950 . S
H4475 C4502 0.950 . S
H4476 C4505 0.950 . S
H4477 C4506 0.950 . S
H4478 C4508 0.950 . S
H4479 C4509 0.950 . S
C4480 H4462 0.951 . S
C4480 C4481 1.366 . S
C4480 C4482 1.388 . S
C4481 C4480 1.366 . S
C4481 C4485 1.385 . S
C4482 H4463 0.951 . S
C4482 C4480 1.388 . S
C4482 C4483 1.366 . S
C4483 C4482 1.366 . S
C4483 C4484 1.414 . S
C4483 C4486 1.499 . S
C4484 H4464 0.950 . S
C4484 C4483 1.414 . S
C4484 C4485 1.374 . S
C4485 H4465 0.950 . S
C4485 C4481 1.385 . S
C4485 C4484 1.374 . S
C4486 C4483 1.499 . S
C4486 C4487 1.373 . S
C4486 C4488 1.389 . S
C4487 H4466 0.950 . S
C4487 C4486 1.373 . S
C4487 C4503 1.377 . S
C4488 C4486 1.389 . S
C4488 C4489 1.524 . S
C4488 C4502 1.377 . S
C4489 C4488 1.524 . S
C4489 C4490 1.397 . S
C4489 C4494 1.363 . S
C4490 H4467 0.950 . S
C4490 C4489 1.397 . S
C4490 C4491 1.334 . S
C4491 H4468 0.950 . S
C4491 C4490 1.334 . S
C4491 C4492 1.287 . S
C4492 C4491 1.287 . S
C4492 C4493 1.524 . S
C4492 H4511 0.913 . S
C4493 H4469 0.950 . S
C4493 C4492 1.524 . S
C4493 C4494 1.415 . S
C4494 H4470 0.950 . S
C4494 C4489 1.363 . S
C4494 C4493 1.415 . S
C4495 H4471 0.951 . S
C4495 C4496 1.366 . S
C4495 C4497 1.388 . S
C4496 C4495 1.366 . S
C4496 C4500 1.385 . S
C4497 H4472 0.951 . S
C4497 C4495 1.388 . S
C4497 C4498 1.366 . S
C4498 C4497 1.366 . S
C4498 C4499 1.414 . S
C4498 C4501 1.499 . S
C4499 H4473 0.950 . S
C4499 C4498 1.414 . S
C4499 C4500 1.374 . S
C4500 H4474 0.950 . S
C4500 C4496 1.385 . S
C4500 C4499 1.374 . S
C4501 C4498 1.499 . S
C4501 C4502 1.373 . S
C4501 C4503 1.389 . S
C4502 H4475 0.950 . S
C4502 C4488 1.377 . S
C4502 C4501 1.373 . S
C4503 C4487 1.377 . S
C4503 C4501 1.389 . S
C4503 C4504 1.524 . S
C4504 C4503 1.524 . S
C4504 C4505 1.397 . S
C4504 C4509 1.363 . S
C4505 H4476 0.950 . S
C4505 C4504 1.397 . S
C4505 C4506 1.334 . S
C4506 H4477 0.950 . S
C4506 C4505 1.334 . S
C4506 C4507 1.287 . S
C4507 C4506 1.287 . S
C4507 C4508 1.524 . S
C4507 H4510 0.999 . S
C4508 H4478 0.950 . S
C4508 C4507 1.524 . S
C4508 C4509 1.415 . S
C4509 H4479 0.950 . S
C4509 C4504 1.363 . S
C4509 C4508 1.415 . S
H4510 C4507 0.999 . S
H4511 C4492 0.913 . S
H4512 C4530 0.937 1_565 S
H4513 C4532 1.029 . S
H4514 C4534 0.950 . S
H4515 C4535 0.950 . S
H4516 C4537 0.950 . S
H4517 C4540 0.950 . S
H4518 C4541 0.950 1_545 S
H4519 C4543 0.950 . S
H4520 C4544 0.950 . S
H4521 C4545 0.951 . S
H4522 C4547 0.951 . S
H4523 C4549 0.950 . S
H4524 C4550 0.950 . S
H4525 C4552 0.980 . S
H4526 C4555 0.950 . S
H4527 C4556 0.950 . S
H4528 C4558 0.950 . S
H4529 C4559 0.950 . S
C4530 H4512 0.937 1_545 S
C4530 C4531 1.395 . S
C4530 C4532 1.336 1_545 S
C4531 C4530 1.395 . S
C4531 C4535 1.385 . S
C4532 H4513 1.029 . S
C4532 C4530 1.336 1_565 S
C4532 C4533 1.331 1_565 S
C4533 C4532 1.331 1_545 S
C4533 C4534 1.414 . S
C4533 C4536 1.499 . S
C4534 H4514 0.950 . S
C4534 C4533 1.414 . S
C4534 C4535 1.374 . S
C4535 H4515 0.950 . S
C4535 C4531 1.385 . S
C4535 C4534 1.374 . S
C4536 C4533 1.499 . S
C4536 C4537 1.373 . S
C4536 C4538 1.389 . S
C4537 H4516 0.950 . S
C4537 C4536 1.373 . S
C4537 C4553 1.377 . S
C4538 C4536 1.389 . S
C4538 C4539 1.524 1_545 S
C4538 C4552 1.350 1_545 S
C4539 C4538 1.524 1_565 S
C4539 C4540 1.397 1_565 S
C4539 C4544 1.363 . S
C4540 H4517 0.950 . S
C4540 C4539 1.397 1_545 S
C4540 C4541 1.334 1_545 S
C4541 H4518 0.950 1_565 S
C4541 C4540 1.334 1_565 S
C4541 C4542 1.287 . S
C4542 C4541 1.287 . S
C4542 C4543 1.524 . S
C4542 H4561 0.913 . S
C4543 H4519 0.950 . S
C4543 C4542 1.524 . S
C4543 C4544 1.415 . S
C4544 H4520 0.950 . S
C4544 C4539 1.363 . S
C4544 C4543 1.415 . S
C4545 H4521 0.951 . S
C4545 C4546 1.366 . S
C4545 C4547 1.388 . S
C4546 C4545 1.366 . S
C4546 C4550 1.385 1_545 S
C4547 H4522 0.951 . S
C4547 C4545 1.388 . S
C4547 C4548 1.366 . S
C4548 C4547 1.366 . S
C4548 C4549 1.414 1_545 S
C4548 C4551 1.499 . S
C4549 H4523 0.950 . S
C4549 C4548 1.414 1_565 S
C4549 C4550 1.374 . S
C4550 H4524 0.950 . S
C4550 C4546 1.385 1_565 S
C4550 C4549 1.374 . S
C4551 C4548 1.499 . S
C4551 C4552 1.373 1_545 S
C4551 C4553 1.389 . S
C4552 H4525 0.980 . S
C4552 C4538 1.350 1_565 S
C4552 C4551 1.373 1_565 S
C4553 C4537 1.377 . S
C4553 C4551 1.389 . S
C4553 C4554 1.524 . S
C4554 C4553 1.524 . S
C4554 C4555 1.397 . S
C4554 C4559 1.363 . S
C4555 H4526 0.950 . S
C4555 C4554 1.397 . S
C4555 C4556 1.334 . S
C4556 H4527 0.950 . S
C4556 C4555 1.334 . S
C4556 C4557 1.287 . S
C4557 C4556 1.287 . S
C4557 C4558 1.524 . S
C4557 H4560 0.999 . S
C4558 H4528 0.950 . S
C4558 C4557 1.524 . S
C4558 C4559 1.415 . S
C4559 H4529 0.950 . S
C4559 C4554 1.363 . S
C4559 C4558 1.415 . S
H4560 C4557 0.999 . S
H4561 C4542 0.913 . S
H4562 C4580 0.951 . S
H4563 C4582 0.951 . S
H4564 C4584 0.950 . S
H4565 C4585 0.950 . S
H4566 C4587 0.950 . S
H4567 C4590 0.950 . S
H4568 C4591 0.950 . S
H4569 C4593 0.950 . S
H4570 C4594 0.950 . S
H4571 C4595 0.951 . S
H4572 C4597 0.951 . S
H4573 C4599 0.948 1_455 S
H4574 C4600 0.960 1_455 S
H4575 C4602 0.950 . S
H4576 C4605 0.950 . S
H4577 C4606 0.950 . S
H4578 C4608 0.950 . S
H4579 C4609 0.950 . S
C4580 H4562 0.951 . S
C4580 C4581 1.366 . S
C4580 C4582 1.388 . S
C4581 C4580 1.366 . S
C4581 C4585 1.385 . S
C4582 H4563 0.951 . S
C4582 C4580 1.388 . S
C4582 C4583 1.366 . S
C4583 C4582 1.366 . S
C4583 C4584 1.414 . S
C4583 C4586 1.499 . S
C4584 H4564 0.950 . S
C4584 C4583 1.414 . S
C4584 C4585 1.374 . S
C4585 H4565 0.950 . S
C4585 C4581 1.385 . S
C4585 C4584 1.374 . S
C4586 C4583 1.499 . S
C4586 C4587 1.373 . S
C4586 C4588 1.389 1_655 S
C4587 H4566 0.950 . S
C4587 C4586 1.373 . S
C4587 C4603 1.377 . S
C4588 C4586 1.389 1_455 S
C4588 C4589 1.524 . S
C4588 C4602 1.377 . S
C4589 C4588 1.524 . S
C4589 C4590 1.397 . S
C4589 C4594 1.363 . S
C4590 H4567 0.950 . S
C4590 C4589 1.397 . S
C4590 C4591 1.334 . S
C4591 H4568 0.950 . S
C4591 C4590 1.334 . S
C4591 C4592 1.287 . S
C4592 C4591 1.287 . S
C4592 C4593 1.524 . S
C4592 H4611 0.913 . S
C4593 H4569 0.950 . S
C4593 C4592 1.524 . S
C4593 C4594 1.415 . S
C4594 H4570 0.950 . S
C4594 C4589 1.363 . S
C4594 C4593 1.415 . S
C4595 H4571 0.951 . S
C4595 C4596 1.366 . S
C4595 C4597 1.388 . S
C4596 C4595 1.366 . S
C4596 C4600 1.395 . S
C4597 H4572 0.951 . S
C4597 C4595 1.388 . S
C4597 C4598 1.366 . S
C4598 C4597 1.366 . S
C4598 C4599 1.414 . S
C4598 C4601 1.499 . S
C4599 H4573 0.948 1_655 S
C4599 C4598 1.414 . S
C4599 C4600 1.357 . S
C4600 H4574 0.960 1_655 S
C4600 C4596 1.395 . S
C4600 C4599 1.357 . S
C4601 C4598 1.499 . S
C4601 C4602 1.373 1_655 S
C4601 C4603 1.389 . S
C4602 H4575 0.950 . S
C4602 C4588 1.377 . S
C4602 C4601 1.373 1_455 S
C4603 C4587 1.377 . S
C4603 C4601 1.389 . S
C4603 C4604 1.524 . S
C4604 C4603 1.524 . S
C4604 C4605 1.397 . S
C4604 C4609 1.363 . S
C4605 H4576 0.950 . S
C4605 C4604 1.397 . S
C4605 C4606 1.334 . S
C4606 H4577 0.950 . S
C4606 C4605 1.334 . S
C4606 C4607 1.287 . S
C4607 C4606 1.287 . S
C4607 C4608 1.524 . S
C4607 H4610 0.999 . S
C4608 H4578 0.950 . S
C4608 C4607 1.524 . S
C4608 C4609 1.415 . S
C4609 H4579 0.950 . S
C4609 C4604 1.363 . S
C4609 C4608 1.415 . S
H4610 C4607 0.999 . S
H4611 C4592 0.913 . S
H4612 C4630 0.951 . S
H4613 C4632 0.951 . S
H4614 C4634 0.950 . S
H4615 C4635 0.950 . S
H4616 C4637 0.950 . S
H4617 C4640 0.950 . S
H4618 C4641 0.950 . S
H4619 C4643 0.950 . S
H4620 C4644 0.950 . S
H4621 C4645 0.951 . S
H4622 C4647 0.951 . S
H4623 C4649 0.950 . S
H4624 C4650 0.950 . S
H4625 C4652 0.950 . S
H4626 C4655 0.950 . S
H4627 C4656 0.950 . S
H4628 C4658 0.950 . S
H4629 C4659 0.950 . S
C4630 H4612 0.951 . S
C4630 C4631 1.366 . S
C4630 C4632 1.388 . S
C4631 C4630 1.366 . S
C4631 C4635 1.385 . S
C4632 H4613 0.951 . S
C4632 C4630 1.388 . S
C4632 C4633 1.366 . S
C4633 C4632 1.366 . S
C4633 C4634 1.414 . S
C4633 C4636 1.499 . S
C4634 H4614 0.950 . S
C4634 C4633 1.414 . S
C4634 C4635 1.374 . S
C4635 H4615 0.950 . S
C4635 C4631 1.385 . S
C4635 C4634 1.374 . S
C4636 C4633 1.499 . S
C4636 C4637 1.373 . S
C4636 C4638 1.389 . S
C4637 H4616 0.950 . S
C4637 C4636 1.373 . S
C4637 C4653 1.377 . S
C4638 C4636 1.389 . S
C4638 C4639 1.524 . S
C4638 C4652 1.377 . S
C4639 C4638 1.524 . S
C4639 C4640 1.397 . S
C4639 C4644 1.363 . S
C4640 H4617 0.950 . S
C4640 C4639 1.397 . S
C4640 C4641 1.334 . S
C4641 H4618 0.950 . S
C4641 C4640 1.334 . S
C4641 C4642 1.287 . S
C4642 C4641 1.287 . S
C4642 C4643 1.524 . S
C4642 H4661 0.913 . S
C4643 H4619 0.950 . S
C4643 C4642 1.524 . S
C4643 C4644 1.415 . S
C4644 H4620 0.950 . S
C4644 C4639 1.363 . S
C4644 C4643 1.415 . S
C4645 H4621 0.951 . S
C4645 C4646 1.366 . S
C4645 C4647 1.388 . S
C4646 C4645 1.366 . S
C4646 C4650 1.385 . S
C4647 H4622 0.951 . S
C4647 C4645 1.388 . S
C4647 C4648 1.366 . S
C4648 C4647 1.366 . S
C4648 C4649 1.414 . S
C4648 C4651 1.499 . S
C4649 H4623 0.950 . S
C4649 C4648 1.414 . S
C4649 C4650 1.374 . S
C4650 H4624 0.950 . S
C4650 C4646 1.385 . S
C4650 C4649 1.374 . S
C4651 C4648 1.499 . S
C4651 C4652 1.373 . S
C4651 C4653 1.389 . S
C4652 H4625 0.950 . S
C4652 C4638 1.377 . S
C4652 C4651 1.373 . S
C4653 C4637 1.377 . S
C4653 C4651 1.389 . S
C4653 C4654 1.524 . S
C4654 C4653 1.524 . S
C4654 C4655 1.397 . S
C4654 C4659 1.363 . S
C4655 H4626 0.950 . S
C4655 C4654 1.397 . S
C4655 C4656 1.334 . S
C4656 H4627 0.950 . S
C4656 C4655 1.334 . S
C4656 C4657 1.287 . S
C4657 C4656 1.287 . S
C4657 C4658 1.524 . S
C4657 H4660 0.999 . S
C4658 H4628 0.950 . S
C4658 C4657 1.524 . S
C4658 C4659 1.415 . S
C4659 H4629 0.950 . S
C4659 C4654 1.363 . S
C4659 C4658 1.415 . S
H4660 C4657 0.999 . S
H4661 C4642 0.913 . S
H4662 C4680 0.951 . S
H4663 C4682 0.951 . S
H4664 C4684 0.950 . S
H4665 C4685 0.950 . S
H4666 C4687 0.950 . S
H4667 C4690 0.950 . S
H4668 C4691 0.950 . S
H4669 C4693 0.950 . S
H4670 C4694 0.950 . S
H4671 C4695 0.951 . S
H4672 C4697 0.951 . S
H4673 C4699 0.950 . S
H4674 C4700 0.950 . S
H4675 C4702 0.950 . S
H4676 C4705 0.950 . S
H4677 C4706 0.950 . S
H4678 C4708 0.950 . S
H4679 C4709 0.950 . S
C4680 H4662 0.951 . S
C4680 C4681 1.366 . S
C4680 C4682 1.388 . S
C4681 C4680 1.366 . S
C4681 C4685 1.385 . S
C4682 H4663 0.951 . S
C4682 C4680 1.388 . S
C4682 C4683 1.366 . S
C4683 C4682 1.366 . S
C4683 C4684 1.414 . S
C4683 C4686 1.499 . S
C4684 H4664 0.950 . S
C4684 C4683 1.414 . S
C4684 C4685 1.374 . S
C4685 H4665 0.950 . S
C4685 C4681 1.385 . S
C4685 C4684 1.374 . S
C4686 C4683 1.499 . S
C4686 C4687 1.373 . S
C4686 C4688 1.389 . S
C4687 H4666 0.950 . S
C4687 C4686 1.373 . S
C4687 C4703 1.377 . S
C4688 C4686 1.389 . S
C4688 C4689 1.524 . S
C4688 C4702 1.377 . S
C4689 C4688 1.524 . S
C4689 C4690 1.397 . S
C4689 C4694 1.363 . S
C4690 H4667 0.950 . S
C4690 C4689 1.397 . S
C4690 C4691 1.334 . S
C4691 H4668 0.950 . S
C4691 C4690 1.334 . S
C4691 C4692 1.287 . S
C4692 C4691 1.287 . S
C4692 C4693 1.524 . S
C4692 H4711 0.913 . S
C4693 H4669 0.950 . S
C4693 C4692 1.524 . S
C4693 C4694 1.415 . S
C4694 H4670 0.950 . S
C4694 C4689 1.363 . S
C4694 C4693 1.415 . S
C4695 H4671 0.951 . S
C4695 C4696 1.366 . S
C4695 C4697 1.388 . S
C4696 C4695 1.366 . S
C4696 C4700 1.385 . S
C4697 H4672 0.951 . S
C4697 C4695 1.388 . S
C4697 C4698 1.366 . S
C4698 C4697 1.366 . S
C4698 C4699 1.414 . S
C4698 C4701 1.499 . S
C4699 H4673 0.950 . S
C4699 C4698 1.414 . S
C4699 C4700 1.374 . S
C4700 H4674 0.950 . S
C4700 C4696 1.385 . S
C4700 C4699 1.374 . S
C4701 C4698 1.499 . S
C4701 C4702 1.373 . S
C4701 C4703 1.389 . S
C4702 H4675 0.950 . S
C4702 C4688 1.377 . S
C4702 C4701 1.373 . S
C4703 C4687 1.377 . S
C4703 C4701 1.389 . S
C4703 C4704 1.524 . S
C4704 C4703 1.524 . S
C4704 C4705 1.397 . S
C4704 C4709 1.363 . S
C4705 H4676 0.950 . S
C4705 C4704 1.397 . S
C4705 C4706 1.334 . S
C4706 H4677 0.950 . S
C4706 C4705 1.334 . S
C4706 C4707 1.287 . S
C4707 C4706 1.287 . S
C4707 C4708 1.524 . S
C4707 H4710 0.999 . S
C4708 H4678 0.950 . S
C4708 C4707 1.524 . S
C4708 C4709 1.415 . S
C4709 H4679 0.950 . S
C4709 C4704 1.363 . S
C4709 C4708 1.415 . S
H4710 C4707 0.999 . S
H4711 C4692 0.913 . S
H4712 C4730 0.951 . S
H4713 C4732 0.951 . S
H4714 C4734 0.950 . S
H4715 C4735 0.950 . S
H4716 C4737 0.950 . S
H4717 C4740 0.950 . S
H4718 C4741 0.950 . S
H4719 C4743 0.950 . S
H4720 C4744 0.950 . S
H4721 C4745 0.951 . S
H4722 C4747 0.951 . S
H4723 C4749 0.950 . S
H4724 C4750 0.950 . S
H4725 C4752 0.950 . S
H4726 C4755 0.950 . S
H4727 C4756 0.950 . S
H4728 C4758 0.950 . S
H4729 C4759 0.950 . S
C4730 H4712 0.951 . S
C4730 C4731 1.366 . S
C4730 C4732 1.388 . S
C4731 C4730 1.366 . S
C4731 C4735 1.385 . S
C4732 H4713 0.951 . S
C4732 C4730 1.388 . S
C4732 C4733 1.366 . S
C4733 C4732 1.366 . S
C4733 C4734 1.414 . S
C4733 C4736 1.499 . S
C4734 H4714 0.950 . S
C4734 C4733 1.414 . S
C4734 C4735 1.374 . S
C4735 H4715 0.950 . S
C4735 C4731 1.385 . S
C4735 C4734 1.374 . S
C4736 C4733 1.499 . S
C4736 C4737 1.373 . S
C4736 C4738 1.389 . S
C4737 H4716 0.950 . S
C4737 C4736 1.373 . S
C4737 C4753 1.377 . S
C4738 C4736 1.389 . S
C4738 C4739 1.524 . S
C4738 C4752 1.377 . S
C4739 C4738 1.524 . S
C4739 C4740 1.397 . S
C4739 C4744 1.363 . S
C4740 H4717 0.950 . S
C4740 C4739 1.397 . S
C4740 C4741 1.334 . S
C4741 H4718 0.950 . S
C4741 C4740 1.334 . S
C4741 C4742 1.287 . S
C4742 C4741 1.287 . S
C4742 C4743 1.524 . S
C4742 H4761 0.913 . S
C4743 H4719 0.950 . S
C4743 C4742 1.524 . S
C4743 C4744 1.415 . S
C4744 H4720 0.950 . S
C4744 C4739 1.363 . S
C4744 C4743 1.415 . S
C4745 H4721 0.951 . S
C4745 C4746 1.366 . S
C4745 C4747 1.388 . S
C4746 C4745 1.366 . S
C4746 C4750 1.385 . S
C4747 H4722 0.951 . S
C4747 C4745 1.388 . S
C4747 C4748 1.366 . S
C4748 C4747 1.366 . S
C4748 C4749 1.414 . S
C4748 C4751 1.499 . S
C4749 H4723 0.950 . S
C4749 C4748 1.414 . S
C4749 C4750 1.374 . S
C4750 H4724 0.950 . S
C4750 C4746 1.385 . S
C4750 C4749 1.374 . S
C4751 C4748 1.499 . S
C4751 C4752 1.373 . S
C4751 C4753 1.389 . S
C4752 H4725 0.950 . S
C4752 C4738 1.377 . S
C4752 C4751 1.373 . S
C4753 C4737 1.377 . S
C4753 C4751 1.389 . S
C4753 C4754 1.524 . S
C4754 C4753 1.524 . S
C4754 C4755 1.397 . S
C4754 C4759 1.363 . S
C4755 H4726 0.950 . S
C4755 C4754 1.397 . S
C4755 C4756 1.334 . S
C4756 H4727 0.950 . S
C4756 C4755 1.334 . S
C4756 C4757 1.287 . S
C4757 C4756 1.287 . S
C4757 C4758 1.524 . S
C4757 H4760 0.999 . S
C4758 H4728 0.950 . S
C4758 C4757 1.524 . S
C4758 C4759 1.415 . S
C4759 H4729 0.950 . S
C4759 C4754 1.363 . S
C4759 C4758 1.415 . S
H4760 C4757 0.999 . S
H4761 C4742 0.913 . S
H4762 C4780 0.951 . S
H4763 C4782 0.951 . S
H4764 C4784 0.950 . S
H4765 C4785 0.950 . S
H4766 C4787 0.950 . S
H4767 C4790 0.950 . S
H4768 C4791 0.950 . S
H4769 C4793 0.950 . S
H4770 C4794 0.950 . S
H4771 C4795 0.951 . S
H4772 C4797 0.951 . S
H4773 C4799 0.950 . S
H4774 C4800 0.950 . S
H4775 C4802 0.950 . S
H4776 C4805 0.950 . S
H4777 C4806 0.950 . S
H4778 C4808 0.950 . S
H4779 C4809 0.950 . S
C4780 H4762 0.951 . S
C4780 C4781 1.366 . S
C4780 C4782 1.388 . S
C4781 C4780 1.366 . S
C4781 C4785 1.385 . S
C4782 H4763 0.951 . S
C4782 C4780 1.388 . S
C4782 C4783 1.366 . S
C4783 C4782 1.366 . S
C4783 C4784 1.414 . S
C4783 C4786 1.499 . S
C4784 H4764 0.950 . S
C4784 C4783 1.414 . S
C4784 C4785 1.374 . S
C4785 H4765 0.950 . S
C4785 C4781 1.385 . S
C4785 C4784 1.374 . S
C4786 C4783 1.499 . S
C4786 C4787 1.373 . S
C4786 C4788 1.389 . S
C4787 H4766 0.950 . S
C4787 C4786 1.373 . S
C4787 C4803 1.377 . S
C4788 C4786 1.389 . S
C4788 C4789 1.524 . S
C4788 C4802 1.377 . S
C4789 C4788 1.524 . S
C4789 C4790 1.397 . S
C4789 C4794 1.363 . S
C4790 H4767 0.950 . S
C4790 C4789 1.397 . S
C4790 C4791 1.334 . S
C4791 H4768 0.950 . S
C4791 C4790 1.334 . S
C4791 C4792 1.287 . S
C4792 C4791 1.287 . S
C4792 C4793 1.524 . S
C4792 H4811 0.913 . S
C4793 H4769 0.950 . S
C4793 C4792 1.524 . S
C4793 C4794 1.415 . S
C4794 H4770 0.950 . S
C4794 C4789 1.363 . S
C4794 C4793 1.415 . S
C4795 H4771 0.951 . S
C4795 C4796 1.366 . S
C4795 C4797 1.388 . S
C4796 C4795 1.366 . S
C4796 C4800 1.385 . S
C4797 H4772 0.951 . S
C4797 C4795 1.388 . S
C4797 C4798 1.366 . S
C4798 C4797 1.366 . S
C4798 C4799 1.414 . S
C4798 C4801 1.499 . S
C4799 H4773 0.950 . S
C4799 C4798 1.414 . S
C4799 C4800 1.374 . S
C4800 H4774 0.950 . S
C4800 C4796 1.385 . S
C4800 C4799 1.374 . S
C4801 C4798 1.499 . S
C4801 C4802 1.373 . S
C4801 C4803 1.389 . S
C4802 H4775 0.950 . S
C4802 C4788 1.377 . S
C4802 C4801 1.373 . S
C4803 C4787 1.377 . S
C4803 C4801 1.389 . S
C4803 C4804 1.524 . S
C4804 C4803 1.524 . S
C4804 C4805 1.397 . S
C4804 C4809 1.363 . S
C4805 H4776 0.950 . S
C4805 C4804 1.397 . S
C4805 C4806 1.334 . S
C4806 H4777 0.950 . S
C4806 C4805 1.334 . S
C4806 C4807 1.287 . S
C4807 C4806 1.287 . S
C4807 C4808 1.524 . S
C4807 H4810 0.999 . S
C4808 H4778 0.950 . S
C4808 C4807 1.524 . S
C4808 C4809 1.415 . S
C4809 H4779 0.950 . S
C4809 C4804 1.363 . S
C4809 C4808 1.415 . S
H4810 C4807 0.999 . S
H4811 C4792 0.913 . S
H4812 C4830 0.951 . S
H4813 C4832 0.951 . S
H4814 C4834 0.950 . S
H4815 C4835 0.950 . S
H4816 C4837 0.950 . S
H4817 C4840 0.950 . S
H4818 C4841 0.950 . S
H4819 C4843 0.950 . S
H4820 C4844 0.950 . S
H4821 C4845 0.951 . S
H4822 C4847 0.951 . S
H4823 C4849 0.950 . S
H4824 C4850 0.950 . S
H4825 C4852 0.950 . S
H4826 C4855 0.950 . S
H4827 C4856 0.950 . S
H4828 C4858 0.950 . S
H4829 C4859 0.950 . S
C4830 H4812 0.951 . S
C4830 C4831 1.366 . S
C4830 C4832 1.388 . S
C4831 C4830 1.366 . S
C4831 C4835 1.385 . S
C4832 H4813 0.951 . S
C4832 C4830 1.388 . S
C4832 C4833 1.366 . S
C4833 C4832 1.366 . S
C4833 C4834 1.414 . S
C4833 C4836 1.499 . S
C4834 H4814 0.950 . S
C4834 C4833 1.414 . S
C4834 C4835 1.374 . S
C4835 H4815 0.950 . S
C4835 C4831 1.385 . S
C4835 C4834 1.374 . S
C4836 C4833 1.499 . S
C4836 C4837 1.373 . S
C4836 C4838 1.389 . S
C4837 H4816 0.950 . S
C4837 C4836 1.373 . S
C4837 C4853 1.377 . S
C4838 C4836 1.389 . S
C4838 C4839 1.524 . S
C4838 C4852 1.377 . S
C4839 C4838 1.524 . S
C4839 C4840 1.397 . S
C4839 C4844 1.363 . S
C4840 H4817 0.950 . S
C4840 C4839 1.397 . S
C4840 C4841 1.334 . S
C4841 H4818 0.950 . S
C4841 C4840 1.334 . S
C4841 C4842 1.287 . S
C4842 C4841 1.287 . S
C4842 C4843 1.524 . S
C4842 H4861 0.913 . S
C4843 H4819 0.950 . S
C4843 C4842 1.524 . S
C4843 C4844 1.415 . S
C4844 H4820 0.950 . S
C4844 C4839 1.363 . S
C4844 C4843 1.415 . S
C4845 H4821 0.951 . S
C4845 C4846 1.366 . S
C4845 C4847 1.388 . S
C4846 C4845 1.366 . S
C4846 C4850 1.385 . S
C4847 H4822 0.951 . S
C4847 C4845 1.388 . S
C4847 C4848 1.366 . S
C4848 C4847 1.366 . S
C4848 C4849 1.414 . S
C4848 C4851 1.499 . S
C4849 H4823 0.950 . S
C4849 C4848 1.414 . S
C4849 C4850 1.374 . S
C4850 H4824 0.950 . S
C4850 C4846 1.385 . S
C4850 C4849 1.374 . S
C4851 C4848 1.499 . S
C4851 C4852 1.373 . S
C4851 C4853 1.389 . S
C4852 H4825 0.950 . S
C4852 C4838 1.377 . S
C4852 C4851 1.373 . S
C4853 C4837 1.377 . S
C4853 C4851 1.389 . S
C4853 C4854 1.524 . S
C4854 C4853 1.524 . S
C4854 C4855 1.397 . S
C4854 C4859 1.363 . S
C4855 H4826 0.950 . S
C4855 C4854 1.397 . S
C4855 C4856 1.334 . S
C4856 H4827 0.950 . S
C4856 C4855 1.334 . S
C4856 C4857 1.287 . S
C4857 C4856 1.287 . S
C4857 C4858 1.524 . S
C4857 H4860 0.999 . S
C4858 H4828 0.950 . S
C4858 C4857 1.524 . S
C4858 C4859 1.415 . S
C4859 H4829 0.950 . S
C4859 C4854 1.363 . S
C4859 C4858 1.415 . S
H4860 C4857 0.999 . S
H4861 C4842 0.913 . S
H4862 C4880 0.951 . S
H4863 C4882 0.951 . S
H4864 C4884 0.950 . S
H4865 C4885 0.950 . S
H4866 C4887 0.950 . S
H4867 C4890 0.950 . S
H4868 C4891 0.950 . S
H4869 C4893 0.950 . S
H4870 C4894 0.950 . S
H4871 C4895 0.951 . S
H4872 C4897 0.951 . S
H4873 C4899 0.950 . S
H4874 C4900 0.950 . S
H4875 C4902 0.950 . S
H4876 C4905 0.950 . S
H4877 C4906 0.950 . S
H4878 C4908 0.950 . S
H4879 C4909 0.950 . S
C4880 H4862 0.951 . S
C4880 C4881 1.366 . S
C4880 C4882 1.388 . S
C4881 C4880 1.366 . S
C4881 C4885 1.385 . S
C4882 H4863 0.951 . S
C4882 C4880 1.388 . S
C4882 C4883 1.366 . S
C4883 C4882 1.366 . S
C4883 C4884 1.414 . S
C4883 C4886 1.499 . S
C4884 H4864 0.950 . S
C4884 C4883 1.414 . S
C4884 C4885 1.374 . S
C4885 H4865 0.950 . S
C4885 C4881 1.385 . S
C4885 C4884 1.374 . S
C4886 C4883 1.499 . S
C4886 C4887 1.373 . S
C4886 C4888 1.389 . S
C4887 H4866 0.950 . S
C4887 C4886 1.373 . S
C4887 C4903 1.377 . S
C4888 C4886 1.389 . S
C4888 C4889 1.524 . S
C4888 C4902 1.377 . S
C4889 C4888 1.524 . S
C4889 C4890 1.397 . S
C4889 C4894 1.363 . S
C4890 H4867 0.950 . S
C4890 C4889 1.397 . S
C4890 C4891 1.334 . S
C4891 H4868 0.950 . S
C4891 C4890 1.334 . S
C4891 C4892 1.287 . S
C4892 C4891 1.287 . S
C4892 C4893 1.524 . S
C4892 H4911 0.913 . S
C4893 H4869 0.950 . S
C4893 C4892 1.524 . S
C4893 C4894 1.415 . S
C4894 H4870 0.950 . S
C4894 C4889 1.363 . S
C4894 C4893 1.415 . S
C4895 H4871 0.951 . S
C4895 C4896 1.366 . S
C4895 C4897 1.388 . S
C4896 C4895 1.366 . S
C4896 C4900 1.385 . S
C4897 H4872 0.951 . S
C4897 C4895 1.388 . S
C4897 C4898 1.366 . S
C4898 C4897 1.366 . S
C4898 C4899 1.414 . S
C4898 C4901 1.499 . S
C4899 H4873 0.950 . S
C4899 C4898 1.414 . S
C4899 C4900 1.374 . S
C4900 H4874 0.950 . S
C4900 C4896 1.385 . S
C4900 C4899 1.374 . S
C4901 C4898 1.499 . S
C4901 C4902 1.373 . S
C4901 C4903 1.389 . S
C4902 H4875 0.950 . S
C4902 C4888 1.377 . S
C4902 C4901 1.373 . S
C4903 C4887 1.377 . S
C4903 C4901 1.389 . S
C4903 C4904 1.524 . S
C4904 C4903 1.524 . S
C4904 C4905 1.397 . S
C4904 C4909 1.363 . S
C4905 H4876 0.950 . S
C4905 C4904 1.397 . S
C4905 C4906 1.334 . S
C4906 H4877 0.950 . S
C4906 C4905 1.334 . S
C4906 C4907 1.287 . S
C4907 C4906 1.287 . S
C4907 C4908 1.524 . S
C4907 H4910 0.999 . S
C4908 H4878 0.950 . S
C4908 C4907 1.524 . S
C4908 C4909 1.415 . S
C4909 H4879 0.950 . S
C4909 C4904 1.363 . S
C4909 C4908 1.415 . S
H4910 C4907 0.999 . S
H4911 C4892 0.913 . S
H4912 C4930 0.951 . S
H4913 C4932 0.951 . S
H4914 C4934 0.950 . S
H4915 C4935 0.950 . S
H4916 C4937 0.950 . S
H4917 C4940 0.950 . S
H4918 C4941 0.950 . S
H4919 C4943 0.950 . S
H4920 C4944 0.950 . S
H4921 C4945 0.951 . S
H4922 C4947 0.951 . S
H4923 C4949 0.950 . S
H4924 C4950 0.950 . S
H4925 C4952 0.950 . S
H4926 C4955 0.950 . S
H4927 C4956 0.950 . S
H4928 C4958 0.950 . S
H4929 C4959 0.950 . S
C4930 H4912 0.951 . S
C4930 C4931 1.366 . S
C4930 C4932 1.388 . S
C4931 C4930 1.366 . S
C4931 C4935 1.385 . S
C4932 H4913 0.951 . S
C4932 C4930 1.388 . S
C4932 C4933 1.366 . S
C4933 C4932 1.366 . S
C4933 C4934 1.414 . S
C4933 C4936 1.499 . S
C4934 H4914 0.950 . S
C4934 C4933 1.414 . S
C4934 C4935 1.374 . S
C4935 H4915 0.950 . S
C4935 C4931 1.385 . S
C4935 C4934 1.374 . S
C4936 C4933 1.499 . S
C4936 C4937 1.373 . S
C4936 C4938 1.389 . S
C4937 H4916 0.950 . S
C4937 C4936 1.373 . S
C4937 C4953 1.377 . S
C4938 C4936 1.389 . S
C4938 C4939 1.524 . S
C4938 C4952 1.377 . S
C4939 C4938 1.524 . S
C4939 C4940 1.397 . S
C4939 C4944 1.363 . S
C4940 H4917 0.950 . S
C4940 C4939 1.397 . S
C4940 C4941 1.334 . S
C4941 H4918 0.950 . S
C4941 C4940 1.334 . S
C4941 C4942 1.287 . S
C4942 C4941 1.287 . S
C4942 C4943 1.524 . S
C4942 H4961 0.913 . S
C4943 H4919 0.950 . S
C4943 C4942 1.524 . S
C4943 C4944 1.415 . S
C4944 H4920 0.950 . S
C4944 C4939 1.363 . S
C4944 C4943 1.415 . S
C4945 H4921 0.951 . S
C4945 C4946 1.366 . S
C4945 C4947 1.388 . S
C4946 C4945 1.366 . S
C4946 C4950 1.385 . S
C4947 H4922 0.951 . S
C4947 C4945 1.388 . S
C4947 C4948 1.366 . S
C4948 C4947 1.366 . S
C4948 C4949 1.414 . S
C4948 C4951 1.499 . S
C4949 H4923 0.950 . S
C4949 C4948 1.414 . S
C4949 C4950 1.374 . S
C4950 H4924 0.950 . S
C4950 C4946 1.385 . S
C4950 C4949 1.374 . S
C4951 C4948 1.499 . S
C4951 C4952 1.373 . S
C4951 C4953 1.389 . S
C4952 H4925 0.950 . S
C4952 C4938 1.377 . S
C4952 C4951 1.373 . S
C4953 C4937 1.377 . S
C4953 C4951 1.389 . S
C4953 C4954 1.524 . S
C4954 C4953 1.524 . S
C4954 C4955 1.397 . S
C4954 C4959 1.363 . S
C4955 H4926 0.950 . S
C4955 C4954 1.397 . S
C4955 C4956 1.334 . S
C4956 H4927 0.950 . S
C4956 C4955 1.334 . S
C4956 C4957 1.287 . S
C4957 C4956 1.287 . S
C4957 C4958 1.524 . S
C4957 H4960 0.999 . S
C4958 H4928 0.950 . S
C4958 C4957 1.524 . S
C4958 C4959 1.415 . S
C4959 H4929 0.950 . S
C4959 C4954 1.363 . S
C4959 C4958 1.415 . S
H4960 C4957 0.999 . S
H4961 C4942 0.913 . S
H4962 C4980 0.951 . S
H4963 C4982 0.951 . S
H4964 C4984 0.950 . S
H4965 C4985 0.950 . S
H4966 C4987 0.950 . S
H4967 C4990 0.950 . S
H4968 C4991 0.950 . S
H4969 C4993 0.950 . S
H4970 C4994 0.950 . S
H4971 C4995 0.951 . S
H4972 C4997 0.951 . S
H4973 C4999 0.950 . S
H4974 C5000 0.950 . S
H4975 C5002 0.950 . S
H4976 C5005 0.950 . S
H4977 C5006 0.950 . S
H4978 C5008 0.950 . S
H4979 C5009 0.950 . S
C4980 H4962 0.951 . S
C4980 C4981 1.366 1_455 S
C4980 C4982 1.388 . S
C4981 C4980 1.366 1_655 S
C4981 C4985 1.385 . S
C4982 H4963 0.951 . S
C4982 C4980 1.388 . S
C4982 C4983 1.366 1_455 S
C4983 C4982 1.366 1_655 S
C4983 C4984 1.414 . S
C4983 C4986 1.499 . S
C4984 H4964 0.950 . S
C4984 C4983 1.414 . S
C4984 C4985 1.374 . S
C4985 H4965 0.950 . S
C4985 C4981 1.385 . S
C4985 C4984 1.374 . S
C4986 C4983 1.499 . S
C4986 C4987 1.373 . S
C4986 C4988 1.389 1_655 S
C4987 H4966 0.950 . S
C4987 C4986 1.373 . S
C4987 C5003 1.377 . S
C4988 C4986 1.389 1_455 S
C4988 C4989 1.524 . S
C4988 C5002 1.377 . S
C4989 C4988 1.524 . S
C4989 C4990 1.397 . S
C4989 C4994 1.363 . S
C4990 H4967 0.950 . S
C4990 C4989 1.397 . S
C4990 C4991 1.334 . S
C4991 H4968 0.950 . S
C4991 C4990 1.334 . S
C4991 C4992 1.287 . S
C4992 C4991 1.287 . S
C4992 C4993 1.524 . S
C4992 H5011 0.913 . S
C4993 H4969 0.950 . S
C4993 C4992 1.524 . S
C4993 C4994 1.415 . S
C4994 H4970 0.950 . S
C4994 C4989 1.363 . S
C4994 C4993 1.415 . S
C4995 H4971 0.951 . S
C4995 C4996 1.366 . S
C4995 C4997 1.388 . S
C4996 C4995 1.366 . S
C4996 C5000 1.385 1_655 S
C4997 H4972 0.951 . S
C4997 C4995 1.388 . S
C4997 C4998 1.366 . S
C4998 C4997 1.366 . S
C4998 C4999 1.414 1_655 S
C4998 C5001 1.499 . S
C4999 H4973 0.950 . S
C4999 C4998 1.414 1_455 S
C4999 C5000 1.374 . S
C5000 H4974 0.950 . S
C5000 C4996 1.385 1_455 S
C5000 C4999 1.374 . S
C5001 C4998 1.499 . S
C5001 C5002 1.373 1_655 S
C5001 C5003 1.389 . S
C5002 H4975 0.950 . S
C5002 C4988 1.377 . S
C5002 C5001 1.373 1_455 S
C5003 C4987 1.377 . S
C5003 C5001 1.389 . S
C5003 C5004 1.524 . S
C5004 C5003 1.524 . S
C5004 C5005 1.397 . S
C5004 C5009 1.363 . S
C5005 H4976 0.950 . S
C5005 C5004 1.397 . S
C5005 C5006 1.334 . S
C5006 H4977 0.950 . S
C5006 C5005 1.334 . S
C5006 C5007 1.287 . S
C5007 C5006 1.287 . S
C5007 C5008 1.524 . S
C5007 H5010 0.999 . S
C5008 H4978 0.950 . S
C5008 C5007 1.524 . S
C5008 C5009 1.415 . S
C5009 H4979 0.950 . S
C5009 C5004 1.363 . S
C5009 C5008 1.415 . S
H5010 C5007 0.999 . S
H5011 C4992 0.913 . S
H5012 C5030 0.951 . S
H5013 C5032 0.951 . S
H5014 C5034 0.950 . S
H5015 C5035 0.950 . S
H5016 C5037 0.950 . S
H5017 C5040 0.950 . S
H5018 C5041 0.950 . S
H5019 C5043 0.950 . S
H5020 C5044 0.950 . S
H5021 C5045 0.951 . S
H5022 C5047 0.951 . S
H5023 C5049 0.950 . S
H5024 C5050 0.950 . S
H5025 C5052 0.950 . S
H5026 C5055 0.950 . S
H5027 C5056 0.950 . S
H5028 C5058 0.950 . S
H5029 C5059 0.950 . S
C5030 H5012 0.951 . S
C5030 C5031 1.366 . S
C5030 C5032 1.388 . S
C5031 C5030 1.366 . S
C5031 C5035 1.385 . S
C5032 H5013 0.951 . S
C5032 C5030 1.388 . S
C5032 C5033 1.366 . S
C5033 C5032 1.366 . S
C5033 C5034 1.414 . S
C5033 C5036 1.499 . S
C5034 H5014 0.950 . S
C5034 C5033 1.414 . S
C5034 C5035 1.374 . S
C5035 H5015 0.950 . S
C5035 C5031 1.385 . S
C5035 C5034 1.374 . S
C5036 C5033 1.499 . S
C5036 C5037 1.373 . S
C5036 C5038 1.389 . S
C5037 H5016 0.950 . S
C5037 C5036 1.373 . S
C5037 C5053 1.377 . S
C5038 C5036 1.389 . S
C5038 C5039 1.524 . S
C5038 C5052 1.377 . S
C5039 C5038 1.524 . S
C5039 C5040 1.397 . S
C5039 C5044 1.363 . S
C5040 H5017 0.950 . S
C5040 C5039 1.397 . S
C5040 C5041 1.334 . S
C5041 H5018 0.950 . S
C5041 C5040 1.334 . S
C5041 C5042 1.287 . S
C5042 C5041 1.287 . S
C5042 C5043 1.524 . S
C5042 H5061 0.913 . S
C5043 H5019 0.950 . S
C5043 C5042 1.524 . S
C5043 C5044 1.415 . S
C5044 H5020 0.950 . S
C5044 C5039 1.363 . S
C5044 C5043 1.415 . S
C5045 H5021 0.951 . S
C5045 C5046 1.366 . S
C5045 C5047 1.388 . S
C5046 C5045 1.366 . S
C5046 C5050 1.385 . S
C5047 H5022 0.951 . S
C5047 C5045 1.388 . S
C5047 C5048 1.366 . S
C5048 C5047 1.366 . S
C5048 C5049 1.414 . S
C5048 C5051 1.499 . S
C5049 H5023 0.950 . S
C5049 C5048 1.414 . S
C5049 C5050 1.374 . S
C5050 H5024 0.950 . S
C5050 C5046 1.385 . S
C5050 C5049 1.374 . S
C5051 C5048 1.499 . S
C5051 C5052 1.373 . S
C5051 C5053 1.389 . S
C5052 H5025 0.950 . S
C5052 C5038 1.377 . S
C5052 C5051 1.373 . S
C5053 C5037 1.377 . S
C5053 C5051 1.389 . S
C5053 C5054 1.524 . S
C5054 C5053 1.524 . S
C5054 C5055 1.397 . S
C5054 C5059 1.363 . S
C5055 H5026 0.950 . S
C5055 C5054 1.397 . S
C5055 C5056 1.334 . S
C5056 H5027 0.950 . S
C5056 C5055 1.334 . S
C5056 C5057 1.287 . S
C5057 C5056 1.287 . S
C5057 C5058 1.524 . S
C5057 H5060 0.999 . S
C5058 H5028 0.950 . S
C5058 C5057 1.524 . S
C5058 C5059 1.415 . S
C5059 H5029 0.950 . S
C5059 C5054 1.363 . S
C5059 C5058 1.415 . S
H5060 C5057 0.999 . S
H5061 C5042 0.913 . S
H5062 C5080 0.951 . S
H5063 C5082 0.951 . S
H5064 C5084 0.950 . S
H5065 C5085 0.950 . S
H5066 C5087 0.950 . S
H5067 C5090 0.901 1_545 S
H5068 C5091 0.950 . S
H5069 C5093 0.950 . S
H5070 C5094 0.950 . S
H5071 C5095 0.951 . S
H5072 C5097 0.951 . S
H5073 C5099 0.950 . S
H5074 C5100 0.950 . S
H5075 C5102 0.950 . S
H5076 C5105 0.950 . S
H5077 C5106 0.950 . S
H5078 C5108 0.950 . S
H5079 C5109 0.950 . S
C5080 H5062 0.951 . S
C5080 C5081 1.366 1_565 S
C5080 C5082 1.388 . S
C5081 C5080 1.366 1_545 S
C5081 C5085 1.385 . S
C5082 H5063 0.951 . S
C5082 C5080 1.388 . S
C5082 C5083 1.366 1_565 S
C5083 C5082 1.366 1_545 S
C5083 C5084 1.414 . S
C5083 C5086 1.499 . S
C5084 H5064 0.950 . S
C5084 C5083 1.414 . S
C5084 C5085 1.374 . S
C5085 H5065 0.950 . S
C5085 C5081 1.385 . S
C5085 C5084 1.374 . S
C5086 C5083 1.499 . S
C5086 C5087 1.373 . S
C5086 C5088 1.382 1_545 S
C5087 H5066 0.950 . S
C5087 C5086 1.373 . S
C5087 C5103 1.377 . S
C5088 C5086 1.382 1_565 S
C5088 C5089 1.547 . S
C5088 C5102 1.362 . S
C5089 C5088 1.547 . S
C5089 C5090 1.422 . S
C5089 C5094 1.363 . S
C5090 H5067 0.901 1_565 S
C5090 C5089 1.422 . S
C5090 C5091 1.360 . S
C5091 H5068 0.950 . S
C5091 C5090 1.360 . S
C5091 C5092 1.287 . S
C5092 C5091 1.287 . S
C5092 C5093 1.524 . S
C5092 H5111 0.913 . S
C5093 H5069 0.950 . S
C5093 C5092 1.524 . S
C5093 C5094 1.415 . S
C5094 H5070 0.950 . S
C5094 C5089 1.363 . S
C5094 C5093 1.415 . S
C5095 H5071 0.951 . S
C5095 C5096 1.366 . S
C5095 C5097 1.388 . S
C5096 C5095 1.366 . S
C5096 C5100 1.385 1_545 S
C5097 H5072 0.951 . S
C5097 C5095 1.388 . S
C5097 C5098 1.366 . S
C5098 C5097 1.366 . S
C5098 C5099 1.414 1_545 S
C5098 C5101 1.499 . S
C5099 H5073 0.950 . S
C5099 C5098 1.414 1_565 S
C5099 C5100 1.374 . S
C5100 H5074 0.950 . S
C5100 C5096 1.385 1_565 S
C5100 C5099 1.374 . S
C5101 C5098 1.499 . S
C5101 C5102 1.373 1_545 S
C5101 C5103 1.389 . S
C5102 H5075 0.950 . S
C5102 C5088 1.362 . S
C5102 C5101 1.373 1_565 S
C5103 C5087 1.377 . S
C5103 C5101 1.389 . S
C5103 C5104 1.524 . S
C5104 C5103 1.524 . S
C5104 C5105 1.397 . S
C5104 C5109 1.363 . S
C5105 H5076 0.950 . S
C5105 C5104 1.397 . S
C5105 C5106 1.334 . S
C5106 H5077 0.950 . S
C5106 C5105 1.334 . S
C5106 C5107 1.287 . S
C5107 C5106 1.287 . S
C5107 C5108 1.524 . S
C5107 H5110 0.999 . S
C5108 H5078 0.950 . S
C5108 C5107 1.524 . S
C5108 C5109 1.415 . S
C5109 H5079 0.950 . S
C5109 C5104 1.363 . S
C5109 C5108 1.415 . S
H5110 C5107 0.999 . S
H5111 C5092 0.913 . S
C1531 C4 1.442 . S
C1546 C1125 1.444 . S
C1581 C38 1.700 . S
C1596 C1173 1.713 . S
C1646 C1221 1.454 . S
C1631 C74 1.434 . S
C1681 C76 1.414 . S
C1696 C1245 1.439 . S
C1731 C2 1.532 . S
C1746 C1317 1.566 . S
C1781 C40 1.529 . S
C1796 C1365 1.536 . S
C1831 C110 1.491 . S
C1846 C1293 1.520 . S
C1896 C1341 1.537 . S
C1881 C148 1.533 . S
C1946 C1269 1.553 . S
C1931 C182 1.508 1_565 S
C1981 C184 1.470 . S
C1996 C1197 1.496 . S
C2046 C1101 1.444 . S
C2031 C112 1.422 . S
C2081 C146 1.635 . S
C2096 C1149 1.648 . S
C2131 C220 1.641 . S
C2146 C1413 1.645 . S
C2181 C254 1.787 . S
C2196 C1461 1.790 . S
C2246 C1485 1.629 . S
C2231 C290 1.639 . S
C2281 C292 1.529 . S
C2296 C669 1.526 . S
C2331 C218 1.694 . S
C2346 C741 1.705 . S
C2381 C256 1.562 . S
C2396 C789 1.565 . S
C2431 C326 1.664 . S
C2446 C717 1.672 . S
C2481 C364 1.599 . S
C2496 C765 1.599 . S
C2546 C693 1.666 . S
C2531 C398 1.692 . S
C2596 C1509 1.652 . S
C2581 C400 1.673 . S
C2646 C1389 1.519 . S
C2631 C328 1.515 . S
C2696 C1437 1.726 . S
C2681 C362 1.723 . S
C2731 C436 1.552 . S
C2746 C837 1.557 . S
C2781 C470 1.754 . S
C2796 C885 1.762 . S
C2831 C506 1.644 . S
C2846 C909 1.637 . S
C2881 C508 1.617 . S
C2896 C957 1.613 . S
C2946 C1029 1.695 . S
C2931 C434 1.687 . S
C2996 C1077 1.595 . S
C2981 C472 1.595 . S
C3046 C1005 1.774 . S
C3031 C542 1.766 . S
C3096 C1053 1.618 . S
C3081 C580 1.620 . S
C3131 C614 1.673 . S
C3146 C981 1.642 . S
C3196 C933 1.550 . S
C3181 C616 1.571 . S
C3231 C544 1.532 . S
C3246 C813 1.538 . S
C3296 C861 1.684 . S
C3281 C578 1.676 . S
C3346 C678 1.611 . S
C3331 C14 1.574 . S
C3381 C39 1.515 . S
C3396 C732 1.492 . S
C3446 C780 1.510 . S
C3431 C75 1.538 . S
C3496 C828 1.427 . S
C3481 C86 1.404 . S
C3546 C876 1.564 . S
C3531 C3 1.587 . S
C3596 C918 1.510 . S
C3581 C50 1.477 . S
C3631 C111 1.580 . S
C3646 C924 1.576 . S
C3681 C158 1.420 . S
C3696 C822 1.419 . S
C3731 C183 1.665 . S
C3746 C870 1.624 . S
C3781 C194 1.559 . S
C3796 C726 1.567 . S
C3846 C774 1.454 . S
C3831 C122 1.458 . S
C3881 C147 1.427 . S
C3896 C684 1.418 . S
C3946 C966 1.567 . S
C3931 C230 1.532 . S
C3981 C255 1.658 . S
C3996 C1020 1.633 . S
C4031 C291 1.582 . S
C4046 C1068 1.556 . S
C4096 C1116 1.298 . S
C4081 C302 1.242 . S
C4131 C219 1.558 . S
C4146 C1164 1.538 . S
C4181 C266 1.339 . S
C4196 C1212 1.401 . S
C4231 C327 1.317 . S
C4246 C1206 1.307 . S
C4281 C374 1.298 . S
C4296 C1110 1.348 . S
C4346 C1158 1.591 . S
C4331 C399 1.627 . S
C4381 C410 1.532 . S
C4396 C1014 1.539 . S
C4431 C338 1.538 . S
C4446 C1062 1.549 . S
C4496 C972 1.559 . S
C4481 C363 1.570 . S
C4546 C1254 1.447 . S
C4531 C446 1.334 . S
C4581 C471 1.386 . S
C4596 C1308 1.386 . S
C4631 C507 1.491 . S
C4646 C1356 1.469 . S
C4696 C1404 1.410 . S
C4681 C518 1.396 . S
C4746 C1452 1.633 . S
C4731 C435 1.657 . S
C4781 C482 1.598 . S
C4796 C1494 1.644 . S
C4831 C543 1.509 . S
C4846 C1500 1.497 . S
C4881 C590 1.548 . S
C4896 C1398 1.558 . S
C4946 C1446 1.668 . S
C4931 C615 1.708 . S
C4996 C1302 1.397 . S
C4981 C626 1.332 . S
C5046 C1350 1.481 . S
C5031 C554 1.475 . S
C5081 C579 1.328 . S
C5096 C1260 1.330 . S
