# Generated by pormake.
# Topology tsx, (6,3)-cn, num edge types: 1
# Building blocks:
#     Node 0, Type 0, BuildingBlock: FUNLAD_clean_sbu_0, # of connection points: 6
#     Node 1, Type 0, BuildingBlock: FUNLAD_clean_sbu_0, # of connection points: 6
#     Node 2, Type 1, BuildingBlock: BETDAH_clean_linker_0, # of connection points: 3
#     Node 3, Type 1, BuildingBlock: BETDAH_clean_linker_0, # of connection points: 3
#     Node 4, Type 1, BuildingBlock: BETDAH_clean_linker_0, # of connection points: 3
#     Node 5, Type 1, BuildingBlock: BETDAH_clean_linker_0, # of connection points: 3
#     Edge 6, Type (0, 1), BuildingBlock: UVAHIK_clean_linker_0, # of connection points: 2
#     Edge 7, Type (0, 1), BuildingBlock: UVAHIK_clean_linker_0, # of connection points: 2
#     Edge 8, Type (0, 1), BuildingBlock: UVAHIK_clean_linker_0, # of connection points: 2
#     Edge 9, Type (0, 1), BuildingBlock: UVAHIK_clean_linker_0, # of connection points: 2
#     Edge 10, Type (0, 1), BuildingBlock: UVAHIK_clean_linker_0, # of connection points: 2
#     Edge 11, Type (0, 1), BuildingBlock: UVAHIK_clean_linker_0, # of connection points: 2
#     Edge 12, Type (0, 1), BuildingBlock: UVAHIK_clean_linker_0, # of connection points: 2
#     Edge 13, Type (0, 1), BuildingBlock: UVAHIK_clean_linker_0, # of connection points: 2
#     Edge 14, Type (0, 1), BuildingBlock: UVAHIK_clean_linker_0, # of connection points: 2
#     Edge 15, Type (0, 1), BuildingBlock: UVAHIK_clean_linker_0, # of connection points: 2
#     Edge 16, Type (0, 1), BuildingBlock: UVAHIK_clean_linker_0, # of connection points: 2
#     Edge 17, Type (0, 1), BuildingBlock: UVAHIK_clean_linker_0, # of connection points: 2
# Relax obj value: 0.105
# Max RMSD: 0.112
# Mean RMSD: 0.106
data_MOF--net-tsx--node1-FUNLAD_clean_sbu_0--node2-BETDAH_clean_linker_0--edge1-UVAHIK_clean_linker_0
_symmetry_space_group_name_H-M    P1
_symmetry_Int_Tables_number       1
_symmetry_cell_setting            triclinic
loop_
_symmetry_equiv_pos_as_xyz
'x, y, z'
_cell_length_a     25.466527
_cell_length_b     28.049376
_cell_length_c     48.843147
_cell_angle_alpha  91.000388
_cell_angle_beta   100.946
_cell_angle_gamma 89.966722
loop_
_atom_site_label
_atom_site_type_symbol
_atom_site_fract_x
_atom_site_fract_y
_atom_site_fract_z
_atom_type_partial_charge
C0 C 0.93037 0.92055 0.00878 0.0
N1 N 0.01796 -0.00447 0.07756 0.0
C2 C 0.9714 -0.00316 0.08738 0.0
C3 C 0.97191 0.00454 0.11569 0.0
C4 C 0.02079 0.01079 0.13424 0.0
C5 C 0.06844 0.00748 0.12377 0.0
C6 C 0.06609 0.0 0.09515 0.0
Zn7 Zn 0.01218 0.99294 0.03515 0.0
C8 C 0.08508 0.92502 0.01504 0.0
N9 N 0.99212 0.99179 0.94629 0.0
C10 C 0.94345 0.99205 0.92899 0.0
C11 C 0.03806 -0.00396 0.93612 0.0
C12 C 0.03618 0.00243 0.90771 0.0
C13 C 0.98655 0.00417 0.88946 0.0
C14 C 0.93974 -0.002 0.90031 0.0
Zn15 Zn -0.00159 0.99129 0.98868 0.0
O16 O 0.95432 0.9386 0.03182 0.0
C17 C 0.92693 0.06029 0.00835 0.0
O18 O 0.94122 0.93557 0.98605 0.0
H19 H 0.07637 -0.00428 0.95018 0.0
H20 H 0.93353 0.99326 0.07311 0.0
H21 H 0.90743 0.98896 0.93754 0.0
O22 O 0.95178 0.04564 0.03169 0.0
O23 O 0.93766 0.04238 0.98602 0.0
H24 H 0.10259 -0.00084 0.08688 0.0
O25 O 0.05484 0.04721 0.99202 0.0
O26 O 0.06939 0.04768 0.03772 0.0
O27 O 0.05982 0.94064 0.992 0.0
O28 O 0.07331 0.94045 0.0378 0.0
C29 C 0.07869 0.06469 0.01518 0.0
H30 H 0.93431 0.00607 0.12296 0.0
H31 H 0.10698 0.01232 0.13738 0.0
H32 H 0.07323 0.00627 0.90012 0.0
H33 H 0.90067 -0.00068 0.88692 0.0
C34 C 0.42439 0.44858 0.50412 0.0
N35 N 0.52137 0.51631 0.57288 0.0
C36 C 0.47541 0.52332 0.58277 0.0
C37 C 0.47695 0.53057 0.61123 0.0
C38 C 0.52627 0.53065 0.62984 0.0
C39 C 0.57307 0.52237 0.61914 0.0
C40 C 0.56969 0.5153 0.59044 0.0
Zn41 Zn 0.516 0.5121 0.53056 0.0
C42 C 0.57761 0.43295 0.51143 0.0
N43 N 0.4985 0.50735 0.44186 0.0
C44 C 0.45093 0.51549 0.42457 0.0
C45 C 0.54473 0.50405 0.43182 0.0
C46 C 0.54463 0.51086 0.40359 0.0
C47 C 0.49648 0.52117 0.38542 0.0
C48 C 0.44899 0.52245 0.39612 0.0
Zn49 Zn 0.50369 0.50823 0.48418 0.0
O50 O 0.45008 0.46551 0.5271 0.0
C51 C 0.44293 0.58769 0.50279 0.0
O52 O 0.43803 0.46034 0.4814 0.0
H53 H 0.58219 0.49777 0.44591 0.0
H54 H 0.43739 0.52412 0.56848 0.0
H55 H 0.41472 0.51837 0.43301 0.0
O56 O 0.46445 0.57198 0.52649 0.0
O57 O 0.45176 0.56671 0.4809 0.0
H58 H 0.60575 0.50998 0.58213 0.0
O59 O 0.56904 0.5563 0.48771 0.0
O60 O 0.58142 0.55873 0.53335 0.0
O61 O 0.55585 0.44986 0.48805 0.0
O62 O 0.56832 0.4522 0.53383 0.0
C63 C 0.59459 0.57228 0.51092 0.0
H64 H 0.43981 0.53598 0.61857 0.0
H65 H 0.612 0.5225 0.63271 0.0
H66 H 0.58202 0.5087 0.39615 0.0
H67 H 0.41101 0.53061 0.3829 0.0
H68 H 0.11688 0.01264 0.41936 0.0
H69 H 0.96677 0.06099 0.43769 0.0
H70 H 0.06906 0.97159 0.49528 0.0
C71 C 0.08885 0.01475 0.4335 0.0
C72 C 0.09933 0.98968 0.4585 0.0
C73 C 0.0409 0.03998 0.42566 0.0
C74 C 0.0042 0.04217 0.44384 0.0
C75 C 0.01532 0.01831 0.46944 0.0
C76 C 0.06216 0.99168 0.47625 0.0
N77 N 0.97927 0.01804 0.48825 0.0
C78 C 0.94083 0.05267 0.48917 0.0
H79 H 0.91979 0.96901 0.58845 0.0
H80 H 0.07732 0.03193 0.60119 0.0
H81 H 0.01977 0.94654 0.52806 0.0
C82 C 0.95678 0.97605 0.58134 0.0
C83 C 0.96446 0.95556 0.55603 0.0
C84 C -0.00213 0.00206 0.59857 0.0
C85 C 0.04486 0.01212 0.58844 0.0
C86 C 0.05199 0.99295 0.56261 0.0
C87 C 0.01275 0.96336 0.54714 0.0
N88 N 0.10029 -0.00036 0.55295 0.0
C89 C 0.11901 0.04467 0.54846 0.0
H90 H 0.61907 0.48454 0.92562 0.0
H91 H 0.45859 0.53391 0.92465 0.0
H92 H 0.53463 0.44183 0.98937 0.0
C93 C 0.58362 0.48593 0.93486 0.0
C94 C 0.58248 0.45995 0.95898 0.0
C95 C 0.53826 0.51051 0.92127 0.0
C96 C 0.49408 0.51511 0.93462 0.0
C97 C 0.49398 0.49155 0.95985 0.0
C98 C 0.53715 0.4628 0.97125 0.0
N99 N 0.44904 0.49268 0.97296 0.0
C100 C 0.42195 0.53442 0.97659 0.0
H101 H 0.38832 0.49661 0.09065 0.0
H102 H 0.55158 0.53454 0.0893 0.0
H103 H 0.46361 0.44577 0.02422 0.0
C104 C 0.42288 0.49515 0.08071 0.0
C105 C 0.4201 0.46794 0.05614 0.0
C106 C 0.47098 0.51682 0.09394 0.0
C107 C 0.51405 0.51799 0.07966 0.0
C108 C 0.51014 0.49381 0.05382 0.0
C109 C 0.46419 0.46749 0.04283 0.0
N110 N 0.5535 0.49188 0.03956 0.0
C111 C 0.58507 0.53122 0.03728 0.0
C112 C 0.13335 0.13083 0.04105 0.0
C113 C 0.11314 0.10706 0.01572 0.0
C114 C 0.16104 0.17372 0.04128 0.0
C115 C 0.23753 0.24668 0.00136 0.0
H116 H 0.20416 0.34735 0.05074 0.0
C117 C 0.35465 0.42522 0.01842 0.0
C118 C 0.3744 0.43498 0.04687 0.0
C119 C 0.31521 0.39032 0.01033 0.0
C120 C 0.21365 0.31965 0.03673 0.0
H121 H 0.10778 0.10864 0.97082 0.0
H122 H 0.15662 0.18363 0.97137 0.0
H123 H 0.15182 0.27388 0.0452 0.0
H124 H 0.36811 0.41548 0.08902 0.0
H125 H 0.29909 0.35624 0.07496 0.0
H126 H 0.30071 0.292 0.99372 0.0
C127 C 0.15079 0.16905 0.99096 0.0
C128 C 0.18396 0.27758 0.03369 0.0
C129 C 0.12283 0.12618 0.9907 0.0
C130 C 0.35288 0.41009 0.06694 0.0
C131 C 0.31332 0.37587 0.05889 0.0
C132 C 0.26738 0.28888 0.00445 0.0
C133 C 0.16924 0.19363 0.01622 0.0
C134 C 0.19673 0.24012 0.01669 0.0
C135 C 0.29458 0.36513 0.03058 0.0
C136 C 0.25676 0.32505 0.02288 0.0
H137 H 0.12669 0.11696 0.06067 0.0
H138 H 0.17585 0.19149 0.06112 0.0
H139 H 0.24816 0.21831 0.98812 0.0
H140 H 0.37016 0.44402 0.00248 0.0
H141 H 0.30125 0.38266 0.98834 0.0
C142 C 0.15104 0.86541 0.03923 0.0
C143 C 0.12731 0.88893 0.01483 0.0
C144 C 0.18936 0.8299 0.03823 0.0
C145 C 0.2823 0.78315 0.99443 0.0
H146 H 0.26485 0.66266 0.02941 0.0
C147 C 0.37381 0.60844 0.96198 0.0
C148 C 0.39468 0.57673 0.98302 0.0
C149 C 0.34636 0.64905 0.96835 0.0
C150 C 0.27083 0.69632 0.01989 0.0
H151 H 0.12606 0.89447 0.9704 0.0
H152 H 0.19218 0.83282 0.96871 0.0
H153 H 0.20846 0.73017 0.03688 0.0
H154 H 0.40491 0.56174 0.02699 0.0
H155 H 0.35697 0.63288 0.03833 0.0
H156 H 0.34384 0.74907 0.97695 0.0
C157 C 0.18173 0.84189 0.98865 0.0
C158 C 0.23858 0.73499 0.02421 0.0
C159 C 0.14342 0.877 0.9896 0.0
C160 C 0.3886 0.58593 0.0105 0.0
C161 C 0.3611 0.62643 0.01692 0.0
C162 C 0.3145 0.74454 0.99011 0.0
C163 C 0.20488 0.8177 0.01287 0.0
C164 C 0.24324 0.77851 0.01106 0.0
C165 C 0.33946 0.65834 0.99588 0.0
C166 C 0.30841 0.70043 0.00235 0.0
H167 H 0.13948 0.87389 0.05898 0.0
H168 H 0.20681 0.812 0.05727 0.0
H169 H 0.28743 0.81653 0.98441 0.0
H170 H 0.37829 0.60162 0.94063 0.0
H171 H 0.32954 0.6726 0.95162 0.0
C172 C 0.86624 0.85863 0.98413 0.0
C173 C 0.89025 0.88255 0.00887 0.0
C174 C 0.82893 0.82224 0.98477 0.0
C175 C 0.73759 0.77495 0.0282 0.0
H176 H 0.75192 0.65507 0.9896 0.0
C177 C 0.63847 0.60209 0.05467 0.0
C178 C 0.61619 0.57175 0.03251 0.0
C179 C 0.66857 0.6416 0.04985 0.0
C180 C 0.74688 0.68855 0.00017 0.0
H181 H 0.89355 0.88739 0.05361 0.0
H182 H 0.82907 0.82413 0.05466 0.0
H183 H 0.80985 0.72211 0.98401 0.0
H184 H 0.60642 0.55789 0.98813 0.0
H185 H 0.65896 0.62726 0.97948 0.0
H186 H 0.67521 0.74134 0.04468 0.0
C187 C 0.83854 0.83366 0.03475 0.0
C188 C 0.78001 0.72693 0.99694 0.0
C189 C 0.87585 0.86971 0.03414 0.0
C190 C 0.62382 0.58104 0.00547 0.0
C191 C 0.65394 0.62052 0.0006 0.0
C192 C 0.70449 0.73666 0.03141 0.0
C193 C 0.81472 0.80946 0.01012 0.0
C194 C 0.77632 0.77024 0.01132 0.0
C195 C 0.67666 0.65123 0.02275 0.0
C196 C 0.70938 0.69279 0.01781 0.0
H197 H 0.87648 0.86778 0.96434 0.0
H198 H 0.81093 0.80433 0.96544 0.0
H199 H 0.73318 0.80819 0.03915 0.0
H200 H 0.63275 0.59518 0.07568 0.0
H201 H 0.68617 0.6642 0.0674 0.0
C202 C 0.8795 0.12238 0.0319 0.0
C203 C 0.88992 0.10096 0.00722 0.0
C204 C 0.84965 0.16436 0.03085 0.0
C205 C 0.81482 0.26755 0.9864 0.0
H206 H 0.69562 0.28525 0.02454 0.0
C207 C 0.64717 0.39784 0.94958 0.0
C208 C 0.62564 0.42542 0.96905 0.0
C209 C 0.68535 0.36321 0.9584 0.0
C210 C 0.72955 0.28119 0.01428 0.0
H211 H 0.8753 0.10551 0.96209 0.0
H212 H 0.82314 0.17843 0.96033 0.0
H213 H 0.74942 0.21254 0.03196 0.0
H214 H 0.62784 0.4384 0.01316 0.0
H215 H 0.69445 0.37652 0.02867 0.0
H216 H 0.7943 0.33531 0.9681 0.0
C217 C 0.83875 0.1632 0.98047 0.0
C218 C 0.76012 0.23959 0.01842 0.0
C219 C 0.86822 0.12123 0.98148 0.0
C220 C 0.64348 0.41756 0.99767 0.0
C221 C 0.68158 0.38233 0.00654 0.0
C222 C 0.78449 0.309 0.98232 0.0
C223 C 0.83015 0.18568 0.00516 0.0
C224 C 0.80184 0.23181 0.00376 0.0
C225 C 0.7027 0.35484 0.98691 0.0
C226 C 0.74048 0.31548 0.99547 0.0
H227 H 0.89564 0.10752 0.05207 0.0
H228 H 0.84342 0.18099 0.05016 0.0
H229 H 0.84766 0.2629 0.97539 0.0
H230 H 0.63326 0.40183 0.92736 0.0
H231 H 0.69997 0.34177 0.94277 0.0
C232 C 0.66205 0.62917 0.53722 0.0
C233 C 0.63618 0.60918 0.51165 0.0
C234 C 0.69711 0.66752 0.53783 0.0
C235 C 0.77946 0.73288 0.49654 0.0
H236 H 0.76546 0.8352 0.54909 0.0
C237 C 0.86968 0.93185 0.53693 0.0
C238 C 0.9245 0.92141 0.54094 0.0
C239 C 0.83178 0.89639 0.52751 0.0
C240 C 0.76935 0.80738 0.53394 0.0
H241 H 0.62844 0.61246 0.46667 0.0
H242 H 0.68965 0.67966 0.46783 0.0
H243 H 0.70614 0.76662 0.54521 0.0
H244 H 0.98277 0.86679 0.53659 0.0
H245 H 0.91676 0.80485 0.52037 0.0
H246 H 0.84292 0.77389 0.48535 0.0
C247 C 0.68287 0.66553 0.48736 0.0
C248 C 0.73591 0.76769 0.53207 0.0
C249 C 0.64771 0.62714 0.48673 0.0
C250 C 0.94074 0.87592 0.53347 0.0
C251 C 0.90287 0.84042 0.52416 0.0
C252 C 0.81309 0.77268 0.49845 0.0
C253 C 0.70706 0.68671 0.51291 0.0
C254 C 0.74117 0.72967 0.51371 0.0
C255 C 0.84805 0.84982 0.52207 0.0
C256 C 0.80882 0.81007 0.51745 0.0
H257 H 0.65429 0.61598 0.55679 0.0
H258 H 0.71605 0.68251 0.55787 0.0
H259 H 0.78444 0.70407 0.48221 0.0
H260 H 0.85619 0.96692 0.54212 0.0
H261 H 0.78976 0.90495 0.52553 0.0
C262 C 0.64271 0.37425 0.53727 0.0
C263 C 0.61293 0.39098 0.51206 0.0
C264 C 0.67655 0.33487 0.53727 0.0
C265 C 0.70089 0.23026 0.49452 0.0
H266 H 0.84669 0.23863 0.53569 0.0
C267 C 0.85135 0.07549 0.49645 0.0
C268 C 0.90243 0.08863 0.49264 0.0
C269 C 0.81473 0.11048 0.50102 0.0
C270 C 0.80609 0.23584 0.52407 0.0
H271 H 0.59486 0.37919 0.46717 0.0
H272 H 0.65357 0.31101 0.46727 0.0
H273 H 0.78397 0.3031 0.53993 0.0
H274 H 0.95656 0.14729 0.49077 0.0
H275 H 0.89241 0.20891 0.49846 0.0
H276 H 0.72327 0.16376 0.47801 0.0
C277 C 0.65058 0.32792 0.48703 0.0
C278 C 0.77007 0.27246 0.52675 0.0
C279 C 0.61722 0.36729 0.48699 0.0
C280 C 0.91698 0.13678 0.49354 0.0
C281 C 0.88052 0.17181 0.4982 0.0
C282 C 0.73678 0.19358 0.49195 0.0
C283 C 0.68071 0.31133 0.51212 0.0
C284 C 0.71739 0.27043 0.51159 0.0
C285 C 0.829 0.15903 0.502 0.0
C286 C 0.79 0.19636 0.50632 0.0
H287 H 0.64022 0.39176 0.55692 0.0
H288 H 0.69918 0.32266 0.55694 0.0
H289 H 0.66034 0.22752 0.48282 0.0
H290 H 0.83992 0.03823 0.49613 0.0
H291 H 0.77554 0.09955 0.50414 0.0
C292 C 0.35848 0.38717 0.48042 0.0
C293 C 0.38094 0.41374 0.50445 0.0
C294 C 0.3211 0.35112 0.48181 0.0
C295 C 0.23069 0.30356 0.5264 0.0
H296 H 0.25784 0.18175 0.4931 0.0
C297 C 0.15572 0.12484 0.56159 0.0
C298 C 0.13921 0.08961 0.54116 0.0
C299 C 0.17798 0.16741 0.55449 0.0
C300 C 0.24904 0.21567 0.50214 0.0
H301 H 0.38002 0.42474 0.54848 0.0
H302 H 0.31556 0.36204 0.55089 0.0
H303 H 0.30841 0.25178 0.48455 0.0
H304 H 0.13134 0.07052 0.4975 0.0
H305 H 0.16965 0.14498 0.48485 0.0
H306 H 0.17225 0.26707 0.54458 0.0
C307 C 0.32632 0.36908 0.53093 0.0
C308 C 0.27799 0.25586 0.49719 0.0
C309 C 0.36369 0.40483 0.52957 0.0
C310 C 0.144 0.09744 0.51352 0.0
C311 C 0.16618 0.1399 0.50637 0.0
C312 C 0.20174 0.26335 0.53137 0.0
C313 C 0.30526 0.34123 0.50721 0.0
C314 C 0.26989 0.30007 0.5097 0.0
C315 C 0.18403 0.17517 0.52684 0.0
C316 C 0.21129 0.21877 0.5197 0.0
H317 H 0.37086 0.39327 0.46074 0.0
H318 H 0.30515 0.33056 0.46311 0.0
H319 H 0.22293 0.33729 0.53599 0.0
H320 H 0.15232 0.11914 0.58308 0.0
H321 H 0.19193 0.19358 0.57081 0.0
C322 C 0.40572 0.65827 0.52463 0.0
C323 C 0.41072 0.63164 0.50062 0.0
C324 C 0.3783 0.70159 0.52232 0.0
C325 C 0.33266 0.79647 0.47189 0.0
H326 H 0.23188 0.82591 0.5201 0.0
C327 C 0.16024 0.92847 0.44378 0.0
C328 C 0.14626 0.95774 0.4649 0.0
C329 C 0.20037 0.89446 0.45014 0.0
C330 C 0.26066 0.81862 0.50684 0.0
H331 H 0.38986 0.62891 0.45541 0.0
H332 H 0.34125 0.70386 0.45144 0.0
H333 H 0.28544 0.75352 0.52755 0.0
H334 H 0.16536 0.97598 0.50902 0.0
H335 H 0.23513 0.91564 0.52023 0.0
H336 H 0.3065 0.86079 0.45061 0.0
C337 C 0.35949 0.69187 0.47202 0.0
C338 C 0.29123 0.77714 0.51107 0.0
C339 C 0.38692 0.64868 0.47432 0.0
C340 C 0.17469 0.95342 0.49239 0.0
C341 C 0.21463 0.91905 0.49879 0.0
C342 C 0.30198 0.8378 0.46761 0.0
C343 C 0.35537 0.71903 0.49596 0.0
C344 C 0.32664 0.76512 0.49323 0.0
C345 C 0.22716 0.88874 0.47778 0.0
C346 C 0.26487 0.84872 0.48466 0.0
H347 H 0.4238 0.64613 0.5452 0.0
H348 H 0.37597 0.72187 0.54113 0.0
H349 H 0.36053 0.78868 0.45821 0.0
H350 H 0.1385 0.93022 0.42249 0.0
H351 H 0.20862 0.87109 0.43359 0.0
C352 C 0.05769 -0.00065 0.18516 0.0
C353 C 0.02159 0.02209 0.16413 0.0
C354 C 0.05735 0.00942 0.21327 0.0
C355 C 0.97156 0.05988 0.26006 0.0
H356 H 0.10468 0.06002 0.31383 0.0
C357 C 0.06436 0.08578 0.38628 0.0
C358 C 0.02743 0.05772 0.39684 0.0
C359 C 0.05926 0.09175 0.35756 0.0
C360 C 0.0671 0.06105 0.29912 0.0
H361 H 0.95801 0.07437 0.15604 0.0
H362 H 0.95795 0.0925 0.205 0.0
H363 H 0.10637 0.04988 0.26457 0.0
H364 H 0.95445 0.01648 0.38605 0.0
H365 H 0.94579 0.02602 0.3359 0.0
H366 H 0.93238 0.07173 0.29468 0.0
C367 C 0.98563 0.06598 0.19988 0.0
C368 C 0.06806 0.05434 0.27083 0.0
C369 C 0.98572 0.05565 0.1718 0.0
C370 C 0.98305 0.03879 0.3784 0.0
C371 C 0.97825 0.04424 0.34963 0.0
C372 C 0.97062 0.06691 0.2884 0.0
C373 C 0.02124 0.04282 0.221 0.0
C374 C 0.02028 0.05287 0.25096 0.0
C375 C 0.01757 0.0691 0.33879 0.0
C376 C 0.01835 0.0669 0.30836 0.0
H377 H 0.08541 0.97299 0.17989 0.0
H378 H 0.08474 0.99026 0.22894 0.0
H379 H 0.9339 0.0586 0.2454 0.0
H380 H 0.09888 0.10081 0.40016 0.0
H381 H 0.08945 0.11224 0.35002 0.0
C382 C 0.01609 0.04871 0.85092 0.0
C383 C 0.98394 0.01321 0.85939 0.0
C384 C 0.01479 0.05652 0.82261 0.0
C385 C 0.93472 0.02982 0.75193 0.0
H386 H 0.06942 0.05019 0.72773 0.0
C387 C 0.96832 0.9803 0.64284 0.0
C388 C 0.99358 0.01316 0.62806 0.0
C389 C 0.96459 0.98906 0.67053 0.0
C390 C 0.03142 0.04541 0.73424 0.0
H391 H 0.92518 0.95814 0.84487 0.0
H392 H 0.92363 0.97089 0.79551 0.0
H393 H 0.06757 0.04801 0.77751 0.0
H394 H 0.03568 0.0809 0.63143 0.0
H395 H 0.0308 0.09527 0.68065 0.0
H396 H 0.89922 0.02476 0.70857 0.0
C397 C 0.94898 0.99359 0.81066 0.0
C398 C 0.03025 0.04415 0.76275 0.0
C399 C 0.94997 0.98607 0.83896 0.0
C400 C 0.01602 0.05478 0.64211 0.0
C401 C 0.01307 0.06314 0.67019 0.0
C402 C 0.93603 0.0306 0.7235 0.0
C403 C 0.98154 0.02879 0.8021 0.0
C404 C 0.98205 0.03518 0.77194 0.0
C405 C 0.98696 0.03039 0.68453 0.0
C406 C 0.98456 0.0373 0.71439 0.0
H407 H 0.04206 0.07072 0.86622 0.0
H408 H 0.03973 0.08443 0.81683 0.0
H409 H 0.89669 0.02408 0.75821 0.0
H410 H 0.95238 0.94692 0.63331 0.0
H411 H 0.94543 0.96264 0.68128 0.0
C412 C 0.49595 0.57415 0.66955 0.0
C413 C 0.5287 0.53945 0.66016 0.0
C414 C 0.49744 0.58166 0.69808 0.0
C415 C 0.58092 0.55848 0.76747 0.0
H416 H 0.44722 0.56725 0.79434 0.0
C417 C 0.55869 0.49473 0.87392 0.0
C418 C 0.53558 0.52475 0.89176 0.0
C419 C 0.558 0.50685 0.84641 0.0
C420 C 0.48486 0.56591 0.78709 0.0
H421 H 0.5884 0.48527 0.67346 0.0
H422 H 0.59089 0.49814 0.72307 0.0
H423 H 0.44642 0.56831 0.74412 0.0
H424 H 0.49111 0.59027 0.89389 0.0
H425 H 0.48834 0.61078 0.84476 0.0
H426 H 0.619 0.55347 0.81031 0.0
C427 C 0.56475 0.52026 0.70844 0.0
C428 C 0.48449 0.56641 0.75837 0.0
C429 C 0.56329 0.51278 0.67996 0.0
C430 C 0.50963 0.56654 0.88081 0.0
C431 C 0.50817 0.57836 0.85281 0.0
C432 C 0.58121 0.55769 0.79603 0.0
C433 C 0.5318 0.55473 0.71787 0.0
C434 C 0.53243 0.56108 0.74823 0.0
C435 C 0.53318 0.54883 0.83559 0.0
C436 C 0.5331 0.55986 0.80606 0.0
H437 H 0.46943 0.59583 0.65484 0.0
H438 H 0.47196 0.6088 0.70465 0.0
H439 H 0.61864 0.55556 0.7604 0.0
H440 H 0.577 0.4612 0.88105 0.0
H441 H 0.57625 0.48279 0.83336 0.0
C442 C 0.45525 0.51399 0.33459 0.0
C443 C 0.49612 0.53185 0.35568 0.0
C444 C 0.45482 0.52414 0.30667 0.0
C445 C 0.54252 0.55934 0.25849 0.0
H446 H 0.40647 0.57454 0.20813 0.0
C447 C 0.50896 0.57034 0.1356 0.0
C448 C 0.47735 0.53113 0.12396 0.0
C449 C 0.51436 0.58187 0.16414 0.0
C450 C 0.44483 0.57118 0.22204 0.0
H451 H 0.56808 0.57528 0.36399 0.0
H452 H 0.56734 0.59291 0.31514 0.0
H453 H 0.4093 0.57314 0.25831 0.0
H454 H 0.42976 0.47168 0.13399 0.0
H455 H 0.43706 0.49326 0.18259 0.0
H456 H 0.57748 0.55589 0.22177 0.0
C457 C 0.536 0.57056 0.32021 0.0
C458 C 0.44644 0.56981 0.25071 0.0
C459 C 0.53647 0.56032 0.34819 0.0
C460 C 0.4524 0.50343 0.14164 0.0
C461 C 0.45691 0.51543 0.16967 0.0
C462 C 0.5409 0.56109 0.2297 0.0
C463 C 0.49512 0.55261 0.29912 0.0
C464 C 0.49497 0.56191 0.26921 0.0
C465 C 0.4876 0.55474 0.18119 0.0
C466 C 0.49175 0.56525 0.21125 0.0
H467 H 0.42404 0.4914 0.33961 0.0
H468 H 0.42339 0.50879 0.29092 0.0
H469 H 0.58056 0.55308 0.27215 0.0
H470 H 0.52904 0.59223 0.12269 0.0
H471 H 0.5387 0.61216 0.17278 0.0
loop_
_geom_bond_atom_site_label_1
_geom_bond_atom_site_label_2
_geom_bond_distance
_geom_bond_site_symmetry_2
_ccdc_geom_bond_type
C0 O16 1.251 . S
C0 O18 1.254 1_554 S
N1 C2 1.333 1_455 S
N1 C6 1.307 . S
N1 Zn7 2.020 . S
C2 N1 1.333 1_655 S
C2 C3 1.379 . S
C2 H20 0.952 1_545 S
C3 C2 1.379 . S
C3 C4 1.390 1_655 S
C3 H30 0.949 1_545 S
C4 C3 1.390 1_455 S
C4 C5 1.357 . S
C5 C4 1.357 . S
C5 C6 1.370 . S
C5 H31 0.950 . S
C6 N1 1.307 . S
C6 C5 1.370 . S
C6 H24 0.948 . S
Zn7 N1 2.020 . S
Zn7 O16 2.039 1_445 S
Zn7 O22 2.034 1_455 S
Zn7 O26 2.025 . S
Zn7 O28 2.024 1_545 S
C8 O27 1.246 1_554 S
C8 O28 1.249 . S
N9 C10 1.307 1_455 S
N9 C11 1.333 . S
N9 Zn15 2.020 . S
C10 N9 1.307 1_655 S
C10 C14 1.370 . S
C10 H21 0.948 1_545 S
C11 N9 1.333 . S
C11 C12 1.379 . S
C11 H19 0.952 . S
C12 C11 1.379 . S
C12 C13 1.390 1_455 S
C12 H32 0.949 . S
C13 C12 1.390 1_655 S
C13 C14 1.357 . S
C14 C10 1.370 . S
C14 C13 1.357 . S
C14 H33 0.950 1_545 S
Zn15 N9 2.020 . S
Zn15 O18 2.025 1_445 S
Zn15 O23 2.024 1_455 S
Zn15 O25 2.039 . S
Zn15 O27 2.034 1_545 S
O16 C0 1.251 . S
O16 Zn7 2.039 1_665 S
C17 O22 1.246 . S
C17 O23 1.249 1_554 S
O18 C0 1.254 1_556 S
O18 Zn15 2.025 1_665 S
H19 C11 0.952 . S
H20 C2 0.952 1_565 S
H21 C10 0.948 1_565 S
O22 Zn7 2.034 1_655 S
O22 C17 1.246 . S
O23 Zn15 2.024 1_655 S
O23 C17 1.249 1_556 S
H24 C6 0.948 . S
O25 Zn15 2.039 . S
O25 C29 1.251 1_556 S
O26 Zn7 2.025 . S
O26 C29 1.254 . S
O27 C8 1.246 1_556 S
O27 Zn15 2.034 1_565 S
O28 Zn7 2.024 1_565 S
O28 C8 1.249 . S
C29 O25 1.251 1_554 S
C29 O26 1.254 . S
H30 C3 0.949 1_565 S
H31 C5 0.950 . S
H32 C12 0.949 . S
H33 C14 0.950 1_565 S
C34 O50 1.251 . S
C34 O52 1.254 . S
N35 C36 1.333 . S
N35 C40 1.307 . S
N35 Zn41 2.020 . S
C36 N35 1.333 . S
C36 C37 1.379 . S
C36 H54 0.952 . S
C37 C36 1.379 . S
C37 C38 1.390 . S
C37 H64 0.949 . S
C38 C37 1.390 . S
C38 C39 1.357 . S
C39 C38 1.357 . S
C39 C40 1.370 . S
C39 H65 0.950 . S
C40 N35 1.307 . S
C40 C39 1.370 . S
C40 H58 0.948 . S
Zn41 N35 2.020 . S
Zn41 O50 2.039 . S
Zn41 O56 2.034 . S
Zn41 O60 2.025 . S
Zn41 O62 2.024 . S
C42 O61 1.246 . S
C42 O62 1.249 . S
N43 C44 1.307 . S
N43 C45 1.333 . S
N43 Zn49 2.020 . S
C44 N43 1.307 . S
C44 C48 1.370 . S
C44 H55 0.948 . S
C45 N43 1.333 . S
C45 C46 1.379 . S
C45 H53 0.952 . S
C46 C45 1.379 . S
C46 C47 1.390 . S
C46 H66 0.949 . S
C47 C46 1.390 . S
C47 C48 1.357 . S
C48 C44 1.370 . S
C48 C47 1.357 . S
C48 H67 0.950 . S
Zn49 N43 2.020 . S
Zn49 O52 2.025 . S
Zn49 O57 2.024 . S
Zn49 O59 2.039 . S
Zn49 O61 2.034 . S
O50 C34 1.251 . S
O50 Zn41 2.039 . S
C51 O56 1.246 . S
C51 O57 1.249 . S
O52 C34 1.254 . S
O52 Zn49 2.025 . S
H53 C45 0.952 . S
H54 C36 0.952 . S
H55 C44 0.948 . S
O56 Zn41 2.034 . S
O56 C51 1.246 . S
O57 Zn49 2.024 . S
O57 C51 1.249 . S
H58 C40 0.948 . S
O59 Zn49 2.039 . S
O59 C63 1.251 . S
O60 Zn41 2.025 . S
O60 C63 1.254 . S
O61 C42 1.246 . S
O61 Zn49 2.034 . S
O62 Zn41 2.024 . S
O62 C42 1.249 . S
C63 O59 1.251 . S
C63 O60 1.254 . S
H64 C37 0.949 . S
H65 C39 0.950 . S
H66 C46 0.949 . S
H67 C48 0.950 . S
H68 C71 0.929 . S
H69 C74 0.929 1_655 S
H70 C76 0.930 . S
C71 H68 0.929 . S
C71 C72 1.398 . S
C71 C73 1.396 1_565 S
C72 C71 1.398 . S
C72 C76 1.407 . S
C73 C71 1.396 1_545 S
C73 C74 1.394 . S
C74 H69 0.929 1_455 S
C74 C73 1.394 . S
C74 C75 1.382 . S
C75 C74 1.382 . S
C75 C76 1.392 1_545 S
C75 N77 1.420 1_455 S
C76 H70 0.930 . S
C76 C72 1.407 . S
C76 C75 1.392 1_565 S
N77 C75 1.420 1_655 S
N77 C78 1.244 . S
C78 N77 1.244 . S
H79 C82 0.929 . S
H80 C85 0.929 . S
H81 C87 0.935 . S
C82 H79 0.929 . S
C82 C83 1.398 . S
C82 C84 1.396 1_565 S
C83 C82 1.398 . S
C83 C87 1.417 . S
C84 C82 1.396 1_545 S
C84 C85 1.394 1_655 S
C85 H80 0.929 . S
C85 C84 1.394 1_455 S
C85 C86 1.382 . S
C86 C85 1.382 . S
C86 C87 1.378 1_445 S
C86 N88 1.420 . S
C87 H81 0.935 . S
C87 C83 1.417 . S
C87 C86 1.378 1_665 S
N88 C86 1.420 . S
N88 C89 1.244 . S
C89 N88 1.244 . S
H90 C93 0.929 . S
H91 C96 0.929 . S
H92 C98 0.930 1_554 S
C93 H90 0.929 . S
C93 C94 1.398 . S
C93 C95 1.396 . S
C94 C93 1.398 . S
C94 C98 1.407 . S
C95 C93 1.396 . S
C95 C96 1.394 . S
C96 H91 0.929 . S
C96 C95 1.394 . S
C96 C97 1.382 . S
C97 C96 1.382 . S
C97 C98 1.392 . S
C97 N99 1.420 . S
C98 H92 0.930 1_556 S
C98 C94 1.407 . S
C98 C97 1.392 . S
N99 C97 1.420 . S
N99 C100 1.244 . S
C100 N99 1.244 . S
H101 C104 0.929 . S
H102 C107 0.929 . S
H103 C109 0.930 . S
C104 H101 0.929 . S
C104 C105 1.398 . S
C104 C106 1.396 . S
C105 C104 1.398 . S
C105 C109 1.407 . S
C106 C104 1.396 . S
C106 C107 1.394 . S
C107 H102 0.929 . S
C107 C106 1.394 . S
C107 C108 1.382 . S
C108 C107 1.382 . S
C108 C109 1.392 . S
C108 N110 1.420 . S
C109 H103 0.930 . S
C109 C105 1.407 . S
C109 C108 1.392 . S
N110 C108 1.420 . S
N110 C111 1.244 . S
C111 N110 1.244 . S
C112 C113 1.349 . S
C112 C114 1.327 . S
C112 H137 0.950 . S
C113 C112 1.349 . S
C113 C129 1.349 1_554 S
C114 C112 1.327 . S
C114 C133 1.429 . S
C114 H138 0.950 . S
C115 C132 1.574 . S
C115 C134 1.368 . S
C115 H139 0.949 1_554 S
H116 C120 0.949 . S
C117 C118 1.349 . S
C117 C119 1.327 . S
C117 H140 0.969 . S
C118 C117 1.349 . S
C118 C130 1.349 . S
C119 C117 1.327 . S
C119 C135 1.429 . S
C119 H141 0.950 1_554 S
C120 H116 0.949 . S
C120 C128 1.574 . S
C120 C136 1.368 . S
H121 C129 0.950 . S
H122 C127 0.950 . S
H123 C128 0.949 . S
H124 C130 0.950 . S
H125 C131 0.950 . S
H126 C132 0.949 1_556 S
C127 H122 0.950 . S
C127 C129 1.327 . S
C127 C133 1.429 1_556 S
C128 C120 1.574 . S
C128 H123 0.949 . S
C128 C134 1.368 . S
C129 C113 1.349 1_556 S
C129 H121 0.950 . S
C129 C127 1.327 . S
C130 C118 1.349 . S
C130 H124 0.950 . S
C130 C131 1.327 . S
C131 H125 0.950 . S
C131 C130 1.327 . S
C131 C135 1.429 . S
C132 C115 1.574 . S
C132 H126 0.949 1_554 S
C132 C136 1.368 . S
C133 C114 1.429 . S
C133 C127 1.429 1_554 S
C133 C134 1.523 . S
C134 C115 1.368 . S
C134 C128 1.368 . S
C134 C133 1.523 . S
C135 C119 1.429 . S
C135 C131 1.429 . S
C135 C136 1.523 . S
C136 C120 1.368 . S
C136 C132 1.368 . S
C136 C135 1.523 . S
H137 C112 0.950 . S
H138 C114 0.950 . S
H139 C115 0.949 1_556 S
H140 C117 0.969 . S
H141 C119 0.950 1_556 S
C142 C143 1.349 . S
C142 C144 1.327 . S
C142 H167 0.950 . S
C143 C142 1.349 . S
C143 C159 1.349 1_554 S
C144 C142 1.327 . S
C144 C163 1.429 . S
C144 H168 0.950 . S
C145 C162 1.574 . S
C145 C164 1.368 1_556 S
C145 H169 0.949 . S
H146 C150 0.949 . S
C147 C148 1.349 . S
C147 C149 1.327 . S
C147 H170 0.950 . S
C148 C147 1.349 . S
C148 C160 1.349 1_556 S
C149 C147 1.327 . S
C149 C165 1.429 . S
C149 H171 0.950 . S
C150 H146 0.949 . S
C150 C158 1.574 . S
C150 C166 1.368 . S
H151 C159 0.950 . S
H152 C157 0.950 . S
H153 C158 0.949 . S
H154 C160 0.950 . S
H155 C161 0.950 . S
H156 C162 0.949 . S
C157 H152 0.950 . S
C157 C159 1.327 . S
C157 C163 1.429 1_556 S
C158 C150 1.574 . S
C158 H153 0.949 . S
C158 C164 1.368 . S
C159 C143 1.349 1_556 S
C159 H151 0.950 . S
C159 C157 1.327 . S
C160 C148 1.349 1_554 S
C160 H154 0.950 . S
C160 C161 1.327 . S
C161 H155 0.950 . S
C161 C160 1.327 . S
C161 C165 1.429 1_554 S
C162 C145 1.574 . S
C162 H156 0.949 . S
C162 C166 1.368 1_556 S
C163 C144 1.429 . S
C163 C157 1.429 1_554 S
C163 C164 1.523 . S
C164 C145 1.368 1_554 S
C164 C158 1.368 . S
C164 C163 1.523 . S
C165 C149 1.429 . S
C165 C161 1.429 1_556 S
C165 C166 1.523 1_556 S
C166 C150 1.368 . S
C166 C162 1.368 1_554 S
C166 C165 1.523 1_554 S
H167 C142 0.950 . S
H168 C144 0.950 . S
H169 C145 0.949 . S
H170 C147 0.950 . S
H171 C149 0.950 . S
C172 C173 1.349 1_556 S
C172 C174 1.327 . S
C172 H197 0.950 . S
C173 C172 1.349 1_554 S
C173 C189 1.349 . S
C174 C172 1.327 . S
C174 C193 1.429 1_556 S
C174 H198 0.950 . S
C175 C192 1.574 . S
C175 C194 1.368 . S
C175 H199 0.949 . S
H176 C180 0.949 1_556 S
C177 C178 1.349 . S
C177 C179 1.327 . S
C177 H200 0.950 . S
C178 C177 1.349 . S
C178 C190 1.349 . S
C179 C177 1.327 . S
C179 C195 1.429 . S
C179 H201 0.950 . S
C180 H176 0.949 1_554 S
C180 C188 1.574 1_554 S
C180 C196 1.368 . S
H181 C189 0.950 . S
H182 C187 0.950 . S
H183 C188 0.949 . S
H184 C190 0.938 1_556 S
H185 C191 0.950 1_556 S
H186 C192 0.949 . S
C187 H182 0.950 . S
C187 C189 1.327 . S
C187 C193 1.429 . S
C188 C180 1.574 1_556 S
C188 H183 0.949 . S
C188 C194 1.368 1_556 S
C189 C173 1.349 . S
C189 H181 0.950 . S
C189 C187 1.327 . S
C190 C178 1.349 . S
C190 H184 0.938 1_554 S
C190 C191 1.327 . S
C191 H185 0.950 1_554 S
C191 C190 1.327 . S
C191 C195 1.429 . S
C192 C175 1.574 . S
C192 H186 0.949 . S
C192 C196 1.368 . S
C193 C174 1.429 1_554 S
C193 C187 1.429 . S
C193 C194 1.523 . S
C194 C175 1.368 . S
C194 C188 1.368 1_554 S
C194 C193 1.523 . S
C195 C179 1.429 . S
C195 C191 1.429 . S
C195 C196 1.523 . S
C196 C180 1.368 . S
C196 C192 1.368 . S
C196 C195 1.523 . S
H197 C172 0.950 . S
H198 C174 0.950 . S
H199 C175 0.949 . S
H200 C177 0.950 . S
H201 C179 0.950 . S
C202 C203 1.349 . S
C202 C204 1.327 . S
C202 H227 0.950 . S
C203 C202 1.349 . S
C203 C219 1.349 1_554 S
C204 C202 1.327 . S
C204 C223 1.416 1_554 S
C204 H228 0.950 . S
C205 C222 1.574 . S
C205 C224 1.368 . S
C205 H229 0.949 . S
H206 C210 0.949 . S
C207 C208 1.349 . S
C207 C209 1.327 . S
C207 H230 0.950 . S
C208 C207 1.349 . S
C208 C220 1.349 1_556 S
C209 C207 1.327 . S
C209 C225 1.429 . S
C209 H231 0.950 . S
C210 H206 0.949 . S
C210 C218 1.574 . S
C210 C226 1.368 1_554 S
H211 C219 0.950 . S
H212 C217 0.950 . S
H213 C218 0.949 . S
H214 C220 0.950 . S
H215 C221 0.950 . S
H216 C222 0.949 . S
C217 H212 0.950 . S
C217 C219 1.327 . S
C217 C223 1.442 . S
C218 C210 1.574 . S
C218 H213 0.949 . S
C218 C224 1.368 1_554 S
C219 C203 1.349 1_556 S
C219 H211 0.950 . S
C219 C217 1.327 . S
C220 C208 1.349 1_554 S
C220 H214 0.950 . S
C220 C221 1.327 . S
C221 H215 0.950 . S
C221 C220 1.327 . S
C221 C225 1.429 1_554 S
C222 C205 1.574 . S
C222 H216 0.949 . S
C222 C226 1.368 . S
C223 C204 1.416 1_556 S
C223 C217 1.442 . S
C223 C224 1.523 . S
C224 C205 1.368 . S
C224 C218 1.368 1_556 S
C224 C223 1.523 . S
C225 C209 1.429 . S
C225 C221 1.429 1_556 S
C225 C226 1.523 . S
C226 C210 1.368 1_556 S
C226 C222 1.368 . S
C226 C225 1.523 . S
H227 C202 0.950 . S
H228 C204 0.950 . S
H229 C205 0.949 . S
H230 C207 0.950 . S
H231 C209 0.950 . S
C232 C233 1.349 . S
C232 C234 1.327 . S
C232 H257 0.950 . S
C233 C232 1.349 . S
C233 C249 1.349 . S
C234 C232 1.327 . S
C234 C253 1.429 . S
C234 H258 0.950 . S
C235 C252 1.574 . S
C235 C254 1.368 . S
C235 H259 0.949 . S
H236 C240 0.949 . S
C237 C238 1.349 . S
C237 C239 1.327 . S
C237 H260 0.950 . S
C238 C237 1.349 . S
C238 C250 1.349 . S
C239 C237 1.327 . S
C239 C255 1.429 . S
C239 H261 0.950 . S
C240 H236 0.949 . S
C240 C248 1.574 . S
C240 C256 1.368 . S
H241 C249 0.950 . S
H242 C247 0.950 . S
H243 C248 0.949 . S
H244 C250 0.950 . S
H245 C251 0.950 . S
H246 C252 0.949 . S
C247 H242 0.950 . S
C247 C249 1.327 . S
C247 C253 1.429 . S
C248 C240 1.574 . S
C248 H243 0.949 . S
C248 C254 1.368 . S
C249 C233 1.349 . S
C249 H241 0.950 . S
C249 C247 1.327 . S
C250 C238 1.349 . S
C250 H244 0.950 . S
C250 C251 1.327 . S
C251 H245 0.950 . S
C251 C250 1.327 . S
C251 C255 1.429 . S
C252 C235 1.574 . S
C252 H246 0.949 . S
C252 C256 1.368 . S
C253 C234 1.429 . S
C253 C247 1.429 . S
C253 C254 1.523 . S
C254 C235 1.368 . S
C254 C248 1.368 . S
C254 C253 1.523 . S
C255 C239 1.429 . S
C255 C251 1.429 . S
C255 C256 1.523 . S
C256 C240 1.368 . S
C256 C252 1.368 . S
C256 C255 1.523 . S
H257 C232 0.950 . S
H258 C234 0.950 . S
H259 C235 0.949 . S
H260 C237 0.950 . S
H261 C239 0.950 . S
C262 C263 1.349 . S
C262 C264 1.327 . S
C262 H287 0.950 . S
C263 C262 1.349 . S
C263 C279 1.349 . S
C264 C262 1.327 . S
C264 C283 1.429 . S
C264 H288 0.950 . S
C265 C282 1.574 . S
C265 C284 1.368 . S
C265 H289 0.949 . S
H266 C270 0.949 . S
C267 C268 1.349 . S
C267 C269 1.327 . S
C267 H290 0.950 . S
C268 C267 1.349 . S
C268 C280 1.349 . S
C269 C267 1.327 . S
C269 C285 1.429 . S
C269 H291 0.950 . S
C270 H266 0.949 . S
C270 C278 1.574 . S
C270 C286 1.368 . S
H271 C279 0.950 . S
H272 C277 0.950 . S
H273 C278 0.949 . S
H274 C280 0.950 . S
H275 C281 0.950 . S
H276 C282 0.949 . S
C277 H272 0.950 . S
C277 C279 1.327 . S
C277 C283 1.429 . S
C278 C270 1.574 . S
C278 H273 0.949 . S
C278 C284 1.368 . S
C279 C263 1.349 . S
C279 H271 0.950 . S
C279 C277 1.327 . S
C280 C268 1.349 . S
C280 H274 0.950 . S
C280 C281 1.327 . S
C281 H275 0.950 . S
C281 C280 1.327 . S
C281 C285 1.429 . S
C282 C265 1.574 . S
C282 H276 0.949 . S
C282 C286 1.368 . S
C283 C264 1.429 . S
C283 C277 1.429 . S
C283 C284 1.523 . S
C284 C265 1.368 . S
C284 C278 1.368 . S
C284 C283 1.523 . S
C285 C269 1.429 . S
C285 C281 1.429 . S
C285 C286 1.523 . S
C286 C270 1.368 . S
C286 C282 1.368 . S
C286 C285 1.523 . S
H287 C262 0.950 . S
H288 C264 0.950 . S
H289 C265 0.949 . S
H290 C267 0.950 . S
H291 C269 0.950 . S
C292 C293 1.349 . S
C292 C294 1.327 . S
C292 H317 0.950 . S
C293 C292 1.349 . S
C293 C309 1.349 . S
C294 C292 1.327 . S
C294 C313 1.429 . S
C294 H318 0.950 . S
C295 C312 1.574 . S
C295 C314 1.368 . S
C295 H319 0.949 . S
H296 C300 0.949 . S
C297 C298 1.349 . S
C297 C299 1.327 . S
C297 H320 0.950 . S
C298 C297 1.349 . S
C298 C310 1.349 . S
C299 C297 1.327 . S
C299 C315 1.429 . S
C299 H321 0.950 . S
C300 H296 0.949 . S
C300 C308 1.574 . S
C300 C316 1.368 . S
H301 C309 0.950 . S
H302 C307 0.950 . S
H303 C308 0.949 . S
H304 C310 0.950 . S
H305 C311 0.950 . S
H306 C312 0.949 . S
C307 H302 0.950 . S
C307 C309 1.327 . S
C307 C313 1.429 . S
C308 C300 1.574 . S
C308 H303 0.949 . S
C308 C314 1.368 . S
C309 C293 1.349 . S
C309 H301 0.950 . S
C309 C307 1.327 . S
C310 C298 1.349 . S
C310 H304 0.950 . S
C310 C311 1.327 . S
C311 H305 0.950 . S
C311 C310 1.327 . S
C311 C315 1.429 . S
C312 C295 1.574 . S
C312 H306 0.949 . S
C312 C316 1.368 . S
C313 C294 1.429 . S
C313 C307 1.429 . S
C313 C314 1.523 . S
C314 C295 1.368 . S
C314 C308 1.368 . S
C314 C313 1.523 . S
C315 C299 1.429 . S
C315 C311 1.429 . S
C315 C316 1.523 . S
C316 C300 1.368 . S
C316 C312 1.368 . S
C316 C315 1.523 . S
H317 C292 0.950 . S
H318 C294 0.950 . S
H319 C295 0.949 . S
H320 C297 0.950 . S
H321 C299 0.950 . S
C322 C323 1.349 . S
C322 C324 1.327 . S
C322 H347 0.950 . S
C323 C322 1.349 . S
C323 C339 1.349 . S
C324 C322 1.327 . S
C324 C343 1.429 . S
C324 H348 0.950 . S
C325 C342 1.574 . S
C325 C344 1.368 . S
C325 H349 0.949 . S
H326 C330 0.949 . S
C327 C328 1.349 . S
C327 C329 1.327 . S
C327 H350 0.950 . S
C328 C327 1.349 . S
C328 C340 1.349 . S
C329 C327 1.327 . S
C329 C345 1.429 . S
C329 H351 0.950 . S
C330 H326 0.949 . S
C330 C338 1.574 . S
C330 C346 1.368 . S
H331 C339 0.950 . S
H332 C337 0.950 . S
H333 C338 0.949 . S
H334 C340 0.950 . S
H335 C341 0.950 . S
H336 C342 0.949 . S
C337 H332 0.950 . S
C337 C339 1.327 . S
C337 C343 1.429 . S
C338 C330 1.574 . S
C338 H333 0.949 . S
C338 C344 1.368 . S
C339 C323 1.349 . S
C339 H331 0.950 . S
C339 C337 1.327 . S
C340 C328 1.349 . S
C340 H334 0.950 . S
C340 C341 1.327 . S
C341 H335 0.950 . S
C341 C340 1.327 . S
C341 C345 1.429 . S
C342 C325 1.574 . S
C342 H336 0.949 . S
C342 C346 1.368 . S
C343 C324 1.429 . S
C343 C337 1.429 . S
C343 C344 1.523 . S
C344 C325 1.368 . S
C344 C338 1.368 . S
C344 C343 1.523 . S
C345 C329 1.429 . S
C345 C341 1.429 . S
C345 C346 1.523 . S
C346 C330 1.368 . S
C346 C342 1.368 . S
C346 C345 1.523 . S
H347 C322 0.950 . S
H348 C324 0.950 . S
H349 C325 0.949 . S
H350 C327 0.950 . S
H351 C329 0.950 . S
C352 C353 1.349 1_565 S
C352 C354 1.327 . S
C352 H377 0.950 . S
C353 C352 1.349 1_545 S
C353 C369 1.349 . S
C354 C352 1.327 . S
C354 C373 1.429 1_565 S
C354 H378 0.950 . S
C355 C372 1.574 . S
C355 C374 1.368 . S
C355 H379 0.949 1_455 S
H356 C360 0.949 . S
C357 C358 1.349 . S
C357 C359 1.327 . S
C357 H380 0.950 1_455 S
C358 C357 1.349 . S
C358 C370 1.349 1_545 S
C359 C357 1.327 . S
C359 C375 1.429 . S
C359 H381 0.950 1_455 S
C360 H356 0.949 . S
C360 C368 1.574 . S
C360 C376 1.368 1_565 S
H361 C369 0.950 1_655 S
H362 C367 0.950 1_655 S
H363 C368 0.949 . S
H364 C370 0.950 . S
H365 C371 0.950 . S
H366 C372 0.949 1_655 S
C367 H362 0.950 1_455 S
C367 C369 1.327 . S
C367 C373 1.429 . S
C368 C360 1.574 . S
C368 H363 0.949 . S
C368 C374 1.368 1_565 S
C369 C353 1.349 . S
C369 H361 0.950 1_455 S
C369 C367 1.327 . S
C370 C358 1.349 1_565 S
C370 H364 0.950 . S
C370 C371 1.327 . S
C371 H365 0.950 . S
C371 C370 1.327 . S
C371 C375 1.429 1_565 S
C372 C355 1.574 . S
C372 H366 0.949 1_455 S
C372 C376 1.368 . S
C373 C354 1.429 1_545 S
C373 C367 1.429 . S
C373 C374 1.523 . S
C374 C355 1.368 . S
C374 C368 1.368 1_545 S
C374 C373 1.523 . S
C375 C359 1.429 . S
C375 C371 1.429 1_545 S
C375 C376 1.523 . S
C376 C360 1.368 1_545 S
C376 C372 1.368 . S
C376 C375 1.523 . S
H377 C352 0.950 . S
H378 C354 0.950 . S
H379 C355 0.949 1_655 S
H380 C357 0.950 1_655 S
H381 C359 0.950 1_655 S
C382 C383 1.349 1_455 S
C382 C384 1.327 . S
C382 H407 0.950 . S
C383 C382 1.349 1_655 S
C383 C399 1.349 1_545 S
C384 C382 1.327 . S
C384 C403 1.429 1_455 S
C384 H408 0.950 . S
C385 C402 1.574 . S
C385 C404 1.368 1_565 S
C385 H409 0.949 . S
H386 C390 0.949 . S
C387 C388 1.349 1_565 S
C387 C389 1.327 . S
C387 H410 0.950 . S
C388 C387 1.349 1_545 S
C388 C400 1.349 1_655 S
C389 C387 1.327 . S
C389 C405 1.429 1_565 S
C389 H411 0.950 . S
C390 H386 0.949 . S
C390 C398 1.574 . S
C390 C406 1.368 1_455 S
H391 C399 0.950 . S
H392 C397 0.950 . S
H393 C398 0.949 . S
H394 C400 0.950 . S
H395 C401 0.950 . S
H396 C402 0.949 . S
C397 H392 0.950 . S
C397 C399 1.327 . S
C397 C403 1.429 1_565 S
C398 C390 1.574 . S
C398 H393 0.949 . S
C398 C404 1.368 1_455 S
C399 C383 1.349 1_565 S
C399 H391 0.950 . S
C399 C397 1.327 . S
C400 C388 1.349 1_455 S
C400 H394 0.950 . S
C400 C401 1.327 . S
C401 H395 0.950 . S
C401 C400 1.327 . S
C401 C405 1.429 1_455 S
C402 C385 1.574 . S
C402 H396 0.949 . S
C402 C406 1.368 1_565 S
C403 C384 1.429 1_655 S
C403 C397 1.429 1_545 S
C403 C404 1.523 . S
C404 C385 1.368 1_545 S
C404 C398 1.368 1_655 S
C404 C403 1.523 . S
C405 C389 1.429 1_545 S
C405 C401 1.429 1_655 S
C405 C406 1.523 . S
C406 C390 1.368 1_655 S
C406 C402 1.368 1_545 S
C406 C405 1.523 . S
H407 C382 0.950 . S
H408 C384 0.950 . S
H409 C385 0.949 . S
H410 C387 0.950 . S
H411 C389 0.950 . S
C412 C413 1.349 . S
C412 C414 1.327 . S
C412 H437 0.950 . S
C413 C412 1.349 . S
C413 C429 1.349 . S
C414 C412 1.327 . S
C414 C433 1.429 . S
C414 H438 0.950 . S
C415 C432 1.574 . S
C415 C434 1.368 . S
C415 H439 0.949 . S
H416 C420 0.949 . S
C417 C418 1.349 . S
C417 C419 1.327 . S
C417 H440 0.950 . S
C418 C417 1.349 . S
C418 C430 1.349 . S
C419 C417 1.327 . S
C419 C435 1.429 . S
C419 H441 0.950 . S
C420 H416 0.949 . S
C420 C428 1.574 . S
C420 C436 1.368 . S
H421 C429 0.950 . S
H422 C427 0.950 . S
H423 C428 0.949 . S
H424 C430 0.950 . S
H425 C431 0.950 . S
H426 C432 0.949 . S
C427 H422 0.950 . S
C427 C429 1.327 . S
C427 C433 1.429 . S
C428 C420 1.574 . S
C428 H423 0.949 . S
C428 C434 1.368 . S
C429 C413 1.349 . S
C429 H421 0.950 . S
C429 C427 1.327 . S
C430 C418 1.349 . S
C430 H424 0.950 . S
C430 C431 1.327 . S
C431 H425 0.950 . S
C431 C430 1.327 . S
C431 C435 1.429 . S
C432 C415 1.574 . S
C432 H426 0.949 . S
C432 C436 1.368 . S
C433 C414 1.429 . S
C433 C427 1.429 . S
C433 C434 1.523 . S
C434 C415 1.368 . S
C434 C428 1.368 . S
C434 C433 1.523 . S
C435 C419 1.429 . S
C435 C431 1.429 . S
C435 C436 1.523 . S
C436 C420 1.368 . S
C436 C432 1.368 . S
C436 C435 1.523 . S
H437 C412 0.950 . S
H438 C414 0.950 . S
H439 C415 0.949 . S
H440 C417 0.950 . S
H441 C419 0.950 . S
C442 C443 1.349 . S
C442 C444 1.327 . S
C442 H467 0.950 . S
C443 C442 1.349 . S
C443 C459 1.349 . S
C444 C442 1.327 . S
C444 C463 1.429 . S
C444 H468 0.950 . S
C445 C462 1.574 . S
C445 C464 1.368 . S
C445 H469 0.949 . S
H446 C450 0.949 . S
C447 C448 1.349 . S
C447 C449 1.327 . S
C447 H470 0.950 . S
C448 C447 1.349 . S
C448 C460 1.349 . S
C449 C447 1.327 . S
C449 C465 1.429 . S
C449 H471 0.950 . S
C450 H446 0.949 . S
C450 C458 1.574 . S
C450 C466 1.368 . S
H451 C459 0.950 . S
H452 C457 0.950 . S
H453 C458 0.949 . S
H454 C460 0.950 . S
H455 C461 0.950 . S
H456 C462 0.949 . S
C457 H452 0.950 . S
C457 C459 1.327 . S
C457 C463 1.429 . S
C458 C450 1.574 . S
C458 H453 0.949 . S
C458 C464 1.368 . S
C459 C443 1.349 . S
C459 H451 0.950 . S
C459 C457 1.327 . S
C460 C448 1.349 . S
C460 H454 0.950 . S
C460 C461 1.327 . S
C461 H455 0.950 . S
C461 C460 1.327 . S
C461 C465 1.429 . S
C462 C445 1.574 . S
C462 H456 0.949 . S
C462 C466 1.368 . S
C463 C444 1.429 . S
C463 C457 1.429 . S
C463 C464 1.523 . S
C464 C445 1.368 . S
C464 C458 1.368 . S
C464 C463 1.523 . S
C465 C449 1.429 . S
C465 C461 1.429 . S
C465 C466 1.523 . S
C466 C450 1.368 . S
C466 C462 1.368 . S
C466 C465 1.523 . S
H467 C442 0.950 . S
H468 C444 0.950 . S
H469 C445 0.949 . S
H470 C447 0.950 . S
H471 C449 0.950 . S
C118 C105 1.433 . S
C113 C29 1.464 . S
C143 C8 1.351 . S
C148 C100 1.315 . S
C173 C0 1.359 . S
C178 C111 1.324 . S
C203 C17 1.468 . S
C208 C94 1.441 . S
C233 C63 1.464 . S
C238 C83 1.433 . S
C263 C42 1.351 . S
C268 C78 1.315 . S
C298 C89 1.324 . S
C293 C34 1.359 . S
C328 C72 1.441 . S
C323 C51 1.468 . S
C353 C4 1.516 . S
C358 C73 1.511 . S
C383 C13 1.510 . S
C388 C84 1.503 . S
C418 C95 1.511 . S
C413 C38 1.516 . S
C443 C47 1.510 . S
C448 C106 1.503 . S
