# Generated by pormake.
# Topology zzz, (3,6)-cn, num edge types: 1
# Building blocks:
#     Node 0, Type 0, BuildingBlock: BELTOD_clean_linker_0, # of connection points: 3
#     Node 1, Type 0, BuildingBlock: BELTOD_clean_linker_0, # of connection points: 3
#     Node 2, Type 0, BuildingBlock: BELTOD_clean_linker_0, # of connection points: 3
#     Node 3, Type 0, BuildingBlock: BELTOD_clean_linker_0, # of connection points: 3
#     Node 4, Type 0, BuildingBlock: BELTOD_clean_linker_0, # of connection points: 3
#     Node 5, Type 0, BuildingBlock: BELTOD_clean_linker_0, # of connection points: 3
#     Node 6, Type 0, BuildingBlock: BELTOD_clean_linker_0, # of connection points: 3
#     Node 7, Type 0, BuildingBlock: BELTOD_clean_linker_0, # of connection points: 3
#     Node 8, Type 1, BuildingBlock: BETFAJ_clean_sbu_0, # of connection points: 6
#     Node 9, Type 1, BuildingBlock: BETFAJ_clean_sbu_0, # of connection points: 6
#     Node 10, Type 1, BuildingBlock: BETFAJ_clean_sbu_0, # of connection points: 6
#     Node 11, Type 1, BuildingBlock: BETFAJ_clean_sbu_0, # of connection points: 6
#     Edge 12, Type (0, 1), BuildingBlock: UVAHIK_clean_linker_0, # of connection points: 2
#     Edge 13, Type (0, 1), BuildingBlock: UVAHIK_clean_linker_0, # of connection points: 2
#     Edge 14, Type (0, 1), BuildingBlock: UVAHIK_clean_linker_0, # of connection points: 2
#     Edge 15, Type (0, 1), BuildingBlock: UVAHIK_clean_linker_0, # of connection points: 2
#     Edge 16, Type (0, 1), BuildingBlock: UVAHIK_clean_linker_0, # of connection points: 2
#     Edge 17, Type (0, 1), BuildingBlock: UVAHIK_clean_linker_0, # of connection points: 2
#     Edge 18, Type (0, 1), BuildingBlock: UVAHIK_clean_linker_0, # of connection points: 2
#     Edge 19, Type (0, 1), BuildingBlock: UVAHIK_clean_linker_0, # of connection points: 2
#     Edge 20, Type (0, 1), BuildingBlock: UVAHIK_clean_linker_0, # of connection points: 2
#     Edge 21, Type (0, 1), BuildingBlock: UVAHIK_clean_linker_0, # of connection points: 2
#     Edge 22, Type (0, 1), BuildingBlock: UVAHIK_clean_linker_0, # of connection points: 2
#     Edge 23, Type (0, 1), BuildingBlock: UVAHIK_clean_linker_0, # of connection points: 2
#     Edge 24, Type (0, 1), BuildingBlock: UVAHIK_clean_linker_0, # of connection points: 2
#     Edge 25, Type (0, 1), BuildingBlock: UVAHIK_clean_linker_0, # of connection points: 2
#     Edge 26, Type (0, 1), BuildingBlock: UVAHIK_clean_linker_0, # of connection points: 2
#     Edge 27, Type (0, 1), BuildingBlock: UVAHIK_clean_linker_0, # of connection points: 2
#     Edge 28, Type (0, 1), BuildingBlock: UVAHIK_clean_linker_0, # of connection points: 2
#     Edge 29, Type (0, 1), BuildingBlock: UVAHIK_clean_linker_0, # of connection points: 2
#     Edge 30, Type (0, 1), BuildingBlock: UVAHIK_clean_linker_0, # of connection points: 2
#     Edge 31, Type (0, 1), BuildingBlock: UVAHIK_clean_linker_0, # of connection points: 2
#     Edge 32, Type (0, 1), BuildingBlock: UVAHIK_clean_linker_0, # of connection points: 2
#     Edge 33, Type (0, 1), BuildingBlock: UVAHIK_clean_linker_0, # of connection points: 2
#     Edge 34, Type (0, 1), BuildingBlock: UVAHIK_clean_linker_0, # of connection points: 2
#     Edge 35, Type (0, 1), BuildingBlock: UVAHIK_clean_linker_0, # of connection points: 2
# Relax obj value: 0.400
# Max RMSD: 0.261
# Mean RMSD: 0.243
data_MOF--net-zzz--node1-BETFAJ_clean_sbu_0--node2-BELTOD_clean_linker_0--edge1-UVAHIK_clean_linker_0
_symmetry_space_group_name_H-M    P1
_symmetry_Int_Tables_number       1
_symmetry_cell_setting            triclinic
loop_
_symmetry_equiv_pos_as_xyz
'x, y, z'
_cell_length_a     70.646561
_cell_length_b     70.719322
_cell_length_c     21.263152
_cell_angle_alpha  89.957223
_cell_angle_beta   90.014198
_cell_angle_gamma 89.987417
loop_
_atom_site_label
_atom_site_type_symbol
_atom_site_fract_x
_atom_site_fract_y
_atom_site_fract_z
_atom_type_partial_charge
P0 P 0.72094 0.47889 0.36114 0.0
H1 H 0.72927 0.49045 0.49073 0.0
H2 H 0.7584 0.50214 0.53854 0.0
H3 H 0.78228 0.51051 0.35336 0.0
H4 H 0.75281 0.49981 0.30632 0.0
H5 H 0.68238 0.46706 0.33943 0.0
H6 H 0.65738 0.47866 0.27119 0.0
H7 H 0.69191 0.52693 0.22221 0.0
H8 H 0.7172 0.5149 0.29085 0.0
H9 H 0.7445 0.44557 0.37902 0.0
H10 H 0.72586 0.48022 0.22394 0.0
O11 O 0.71203 0.46525 0.418 0.0
H12 H 0.76721 0.42981 0.30994 0.0
H13 H 0.74876 0.4651 0.15552 0.0
C14 C 0.73894 0.49392 0.39491 0.0
C15 C 0.74053 0.49543 0.46041 0.0
C16 C 0.75737 0.50188 0.48774 0.0
C17 C 0.77303 0.50674 0.45003 0.0
C18 C 0.77065 0.50692 0.38424 0.0
C19 C 0.75371 0.50071 0.35704 0.0
C20 C 0.70151 0.49029 0.32125 0.0
C21 C 0.68441 0.48043 0.3155 0.0
C22 C 0.67006 0.48712 0.2763 0.0
C23 C 0.67253 0.50381 0.24124 0.0
C24 C 0.68956 0.51399 0.24831 0.0
C25 C 0.70395 0.50726 0.28802 0.0
C26 C 0.73332 0.46391 0.30659 0.0
C27 C 0.74488 0.44938 0.3297 0.0
C28 C 0.75799 0.44054 0.2903 0.0
C29 C 0.75995 0.4463 0.22728 0.0
C30 C 0.7475 0.46008 0.20346 0.0
C31 C 0.73434 0.46883 0.24281 0.0
P32 P 0.03477 0.71789 0.34711 0.0
H33 H 0.02926 0.73131 0.47601 0.0
H34 H 0.0168 0.76092 0.51588 0.0
H35 H 0.99361 0.77345 0.33223 0.0
H36 H 0.00744 0.74439 0.29174 0.0
H37 H 0.04686 0.67892 0.33362 0.0
H38 H 0.0368 0.65336 0.2648 0.0
H39 H 0.98983 0.68741 0.20075 0.0
H40 H 0.99996 0.71302 0.27038 0.0
H41 H 0.06098 0.7488 0.36579 0.0
H42 H 0.03924 0.71698 0.20854 0.0
O43 O 0.04903 0.70968 0.40348 0.0
H44 H 0.07482 0.77169 0.29362 0.0
H45 H 0.05357 0.73945 0.13599 0.0
C46 C 0.01912 0.73537 0.38091 0.0
C47 C 0.021 0.7401 0.44465 0.0
C48 C 0.01378 0.75718 0.46757 0.0
C49 C 0.00438 0.76991 0.42724 0.0
C50 C 1.00114 0.76431 0.36455 0.0
C51 C 0.00864 0.74735 0.3415 0.0
C52 C 0.02408 0.69789 0.30793 0.0
C53 C 0.03404 0.68074 0.30637 0.0
C54 C 0.02826 0.66607 0.26684 0.0
C55 C 0.01252 0.66833 0.2271 0.0
C56 C 1.00209 0.68527 0.2305 0.0
C57 C 0.00781 0.69992 0.27068 0.0
C58 C 0.04903 0.73122 0.29277 0.0
C59 C 0.05974 0.7464 0.31564 0.0
C60 C 0.06772 0.75946 0.27417 0.0
C61 C 0.06518 0.75753 0.20886 0.0
C62 C 0.05552 0.74154 0.18603 0.0
C63 C 0.0474 0.72857 0.22765 0.0
P64 P 0.78831 0.02521 0.37035 0.0
H65 H 0.77907 0.01256 0.49831 0.0
H66 H 0.74955 1.0005 0.54221 0.0
H67 H 0.72753 0.99305 0.35409 0.0
H68 H 0.75739 0.00418 0.31091 0.0
H69 H 0.82637 0.03795 0.34459 0.0
H70 H 0.85064 0.02761 0.27135 0.0
H71 H 0.81599 0.97972 0.21952 0.0
H72 H 0.79143 0.99049 0.29297 0.0
H73 H 0.76182 0.05511 0.40101 0.0
H74 H 0.78447 0.02948 0.23304 0.0
O75 O 0.79778 0.03746 0.42959 0.0
H76 H 0.7363 0.06921 0.3391 0.0
H77 H 0.75902 0.04331 0.1714 0.0
C78 C 0.77043 0.00946 0.40127 0.0
C79 C 0.76817 0.00763 0.46648 0.0
C80 C 0.75109 1.001 0.49157 0.0
C81 C 0.73582 0.99629 0.4519 0.0
C82 C 0.73886 0.99646 0.38642 0.0
C83 C 0.75604 1.00285 0.36145 0.0
C84 C 0.80726 0.01479 0.32527 0.0
C85 C 0.82416 0.02494 0.31875 0.0
C86 C 0.83809 0.01897 0.2767 0.0
C87 C 0.83538 1.00274 0.23958 0.0
C88 C 0.81851 0.99233 0.24711 0.0
C89 C 0.80454 0.99834 0.28957 0.0
C90 C 0.77507 0.04128 0.32177 0.0
C91 C 0.7618 0.0532 0.35046 0.0
C92 C 0.74714 0.06111 0.31515 0.0
C93 C 0.74554 0.05714 0.2506 0.0
C94 C 0.75995 0.04675 0.22094 0.0
C95 C 0.77455 0.03878 0.25636 0.0
P96 P 0.4744 0.78705 0.34662 0.0
H97 H 0.47892 0.77596 0.47848 0.0
H98 H 0.48986 0.74639 0.52531 0.0
H99 H 0.51192 0.72876 0.34549 0.0
H100 H 0.50054 0.7582 0.29828 0.0
H101 H 0.46423 0.82646 0.32984 0.0
H102 H 0.4758 0.85109 0.26004 0.0
H103 H 0.52154 0.81459 0.20141 0.0
H104 H 0.50972 0.78979 0.27175 0.0
H105 H 0.44777 0.75646 0.36478 0.0
H106 H 0.47053 0.78772 0.20773 0.0
O107 O 0.45972 0.79626 0.39997 0.0
H108 H 0.43368 0.73377 0.29249 0.0
H109 H 0.45599 0.76544 0.13508 0.0
C110 C 0.48903 0.76948 0.38481 0.0
C111 C 0.4867 0.7661 0.44938 0.0
C112 C 0.49282 0.74909 0.47613 0.0
C113 C 0.50156 0.73519 0.43891 0.0
C114 C 0.50536 0.73927 0.37544 0.0
C115 C 0.49902 0.75622 0.3485 0.0
C116 C 0.48623 0.80631 0.3069 0.0
C117 C 0.4771 0.82389 0.30356 0.0
C118 C 0.48376 0.83804 0.26345 0.0
C119 C 0.49961 0.83487 0.22492 0.0
C120 C 0.50921 0.81746 0.23011 0.0
C121 C 0.50257 0.8033 0.27078 0.0
C122 C 0.4603 0.7737 0.29187 0.0
C123 C 0.44924 0.75877 0.31463 0.0
C124 C 0.4411 0.74583 0.27311 0.0
C125 C 0.44384 0.74766 0.20786 0.0
C126 C 0.4539 0.76342 0.18509 0.0
C127 C 0.46216 0.77628 0.22676 0.0
P128 P 0.28994 0.46007 0.03943 0.0
H129 H 0.27882 0.44869 0.91197 0.0
H130 H 0.2514 0.45773 0.84916 0.0
H131 H 0.2411 0.50472 0.97433 0.0
H132 H 0.26901 0.49603 0.03526 0.0
H133 H 0.32471 0.44105 0.07493 0.0
H134 H 0.35329 0.45211 0.12663 0.0
H135 H 0.33501 0.50989 0.10155 0.0
H136 H 0.30628 0.4986 0.04806 0.0
H137 H 0.25462 0.44192 0.07364 0.0
H138 H 0.29228 0.48317 0.15544 0.0
O139 O 0.29183 0.43718 0.02133 0.0
H140 H 0.22976 0.45166 0.14639 0.0
H141 H 0.26745 0.49352 0.2254 0.0
C142 C 0.27594 0.47152 0.97893 0.0
C143 C 0.27115 0.46139 0.92453 0.0
C144 C 0.2552 0.46642 0.88911 0.0
C145 C 0.24357 0.48162 0.90765 0.0
C146 C 0.2496 0.49292 0.95841 0.0
C147 C 0.2657 0.48798 0.99339 0.0
C148 C 0.31335 0.46898 0.05704 0.0
C149 C 0.32711 0.45614 0.07806 0.0
C150 C 0.34351 0.4625 0.10795 0.0
C151 C 0.34639 0.48188 0.11869 0.0
C152 C 0.33313 0.49485 0.09428 0.0
C153 C 0.31682 0.48844 0.06307 0.0
C154 C 0.27529 0.4619 0.10836 0.0
C155 C 0.25779 0.4526 0.1086 0.0
C156 C 0.2435 0.45837 0.14965 0.0
C157 C 0.24646 0.47372 0.19052 0.0
C158 C 0.26465 0.48166 0.19461 0.0
C159 C 0.27894 0.47577 0.15388 0.0
P160 P 0.05744 0.28667 0.9878 0.0
H161 H 0.05933 0.2715 0.86086 0.0
H162 H 0.04621 0.24284 0.81771 0.0
H163 H 0.00706 0.23952 0.97382 0.0
H164 H 0.02155 0.26762 0.01933 0.0
H165 H 0.07818 0.31694 0.04503 0.0
H166 H 0.06976 0.34188 0.1186 0.0
H167 H 0.01085 0.32635 0.10291 0.0
H168 H 0.01944 0.30127 0.02784 0.0
H169 H 0.08414 0.25561 0.97561 0.0
H170 H 0.04914 0.27986 0.12096 0.0
O171 O 0.07517 0.29353 0.94117 0.0
H172 H 0.08912 0.22753 0.04088 0.0
H173 H 0.05401 0.25204 0.18584 0.0
C174 C 0.04129 0.2721 0.94304 0.0
C175 C 0.04742 0.26511 0.88479 0.0
C176 C 0.03982 0.24845 0.85997 0.0
C177 C 0.02566 0.23836 0.89242 0.0
C178 C 0.01829 0.24645 0.94796 0.0
C179 C 0.0262 0.26297 0.97337 0.0
C180 C 0.04947 0.30728 0.03052 0.0
C181 C 0.06338 0.31912 0.0561 0.0
C182 C 0.05857 0.33327 0.09878 0.0
C183 C 0.03968 0.33592 0.11729 0.0
C184 C 0.02554 0.32464 0.08944 0.0
C185 C 0.03043 0.31028 0.0466 0.0
C186 C 0.06652 0.26995 0.04371 0.0
C187 C 0.0782 0.25526 0.02256 0.0
C188 C 0.08089 0.23916 0.0596 0.0
C189 C 0.07187 0.23756 0.11828 0.0
C190 C 0.06137 0.25296 0.14126 0.0
C191 C 0.05859 0.26895 0.10403 0.0
P192 P 0.21517 0.04094 0.01014 0.0
H193 H 0.22523 0.03881 0.87652 0.0
H194 H 0.25403 0.02776 0.82504 0.0
H195 H 0.27188 1.00131 0.99829 0.0
H196 H 0.24293 0.01232 0.04946 0.0
H197 H 0.17628 0.05325 0.02617 0.0
H198 H 0.15059 0.04196 0.09201 0.0
H199 H 0.18345 0.99244 0.13964 0.0
H200 H 0.20942 0.00409 0.0736 0.0
H201 H 0.2496 0.06313 0.00671 0.0
H202 H 0.21165 0.04191 0.1493 0.0
O203 O 0.20768 0.05827 0.96298 0.0
H204 H 0.27286 0.07067 0.08739 0.0
H205 H 0.23462 0.04988 0.23027 0.0
C206 C 0.23183 0.02643 0.96701 0.0
C207 C 0.23496 0.03006 0.90298 0.0
C208 C 0.2516 0.02391 0.87368 0.0
C209 C 0.26549 0.01398 0.90783 0.0
C210 C 0.2615 0.00886 0.97044 0.0
C211 C 0.24483 0.01505 0.99974 0.0
C212 C 0.19472 0.02939 0.04389 0.0
C213 C 0.17779 0.03964 0.04897 0.0
C214 C 0.16303 0.03315 0.08695 0.0
C215 C 0.16488 0.01628 0.12149 0.0
C216 C 0.18159 0.00557 0.1142 0.0
C217 C 0.19638 0.01209 0.07576 0.0
C218 C 0.22908 0.05157 0.07161 0.0
C219 C 0.24602 0.06067 0.05557 0.0
C220 C 0.25928 0.06508 0.10193 0.0
C221 C 0.25572 0.06058 0.16528 0.0
C222 C 0.23794 0.05313 0.18172 0.0
C223 C 0.22474 0.04858 0.13522 0.0
P224 P 0.44642 0.2186 0.99342 0.0
H225 H 0.44441 0.23423 0.86687 0.0
H226 H 0.4579 0.2628 0.82407 0.0
H227 H 0.49754 0.265 0.97903 0.0
H228 H 0.48278 0.23695 0.02411 0.0
H229 H 0.42508 0.18732 0.04215 0.0
H230 H 0.43267 0.16127 0.11242 0.0
H231 H 0.49165 0.17718 0.10781 0.0
H232 H 0.48392 0.20335 0.03581 0.0
H233 H 0.4204 0.25037 0.98731 0.0
H234 H 0.45638 0.22404 0.12602 0.0
O235 O 0.42806 0.21293 0.94776 0.0
H236 H 0.41714 0.27811 0.05505 0.0
H237 H 0.45332 0.25157 0.19319 0.0
C238 C 0.46268 0.23307 0.94848 0.0
C239 C 0.45649 0.24036 0.89064 0.0
C240 C 0.46431 0.25695 0.86601 0.0
C241 C 0.47874 0.26671 0.89826 0.0
C242 C 0.48613 0.25833 0.95335 0.0
C243 C 0.47804 0.24185 0.97851 0.0
C244 C 0.45392 0.19723 0.03304 0.0
C245 C 0.43975 0.18499 0.05478 0.0
C246 C 0.44407 0.1702 0.09571 0.0
C247 C 0.46272 0.1673 0.11652 0.0
C248 C 0.47715 0.17903 0.09251 0.0
C249 C 0.47275 0.194 0.05133 0.0
C250 C 0.43842 0.23503 0.05188 0.0
C251 C 0.42693 0.25021 0.03342 0.0
C252 C 0.42523 0.26612 0.07184 0.0
C253 C 0.43509 0.26707 0.12917 0.0
C254 C 0.44534 0.25118 0.14971 0.0
C255 C 0.4471 0.23535 0.11115 0.0
Sm256 Sm 0.01003 0.99619 0.74157 0.0
Sm257 Sm 0.98667 0.00845 0.61798 0.0
C258 C 0.01873 0.98325 0.85422 0.0
C259 C 0.02931 0.96684 0.87763 0.0
C260 C 0.03194 0.95093 0.83925 0.0
C261 C 0.04125 0.93498 0.86252 0.0
C262 C 0.04825 0.93471 0.92448 0.0
C263 C 0.04606 0.95095 0.96209 0.0
C264 C 0.03662 0.96687 0.93882 0.0
C265 C 0.0339 0.99868 0.63798 0.0
C266 C 0.99557 0.96379 0.63946 0.0
C267 C 0.97604 0.02436 0.5115 0.0
C268 C 0.98438 0.04039 0.47793 0.0
C269 C 1.00188 0.04754 0.49798 0.0
C270 C 0.00983 0.0632 0.46843 0.0
C271 C 1.00043 0.07201 0.41815 0.0
C272 C 0.983 0.06464 0.39737 0.0
C273 C 0.97498 0.04893 0.42735 0.0
C274 C 0.96562 0.9984 0.72143 0.0
C275 C 0.00488 0.04121 0.71269 0.0
O276 O 1.00271 0.97937 0.82576 0.0
O277 O 0.02874 0.99627 0.8255 0.0
O278 O 0.01645 1.0018 0.64085 0.0
O279 O 0.03973 0.99378 0.69361 0.0
O280 O 1.00032 0.9677 0.69841 0.0
O281 O 0.99177 0.97709 0.59752 0.0
O282 O 0.98668 0.0092 0.51382 0.0
O283 O 0.9683 0.02851 0.56574 0.0
O284 O 0.98084 0.00772 0.72196 0.0
O285 O 0.96017 0.99516 0.66393 0.0
O286 O 0.99863 0.03671 0.65586 0.0
O287 O 0.00863 0.02835 0.75622 0.0
H288 H 0.02646 0.95071 0.79164 0.0
H289 H 0.04243 0.92267 0.83252 0.0
H290 H 0.05152 0.95132 0.00966 0.0
H291 H 0.03485 0.97912 0.96883 0.0
H292 H 0.0094 0.04104 0.53676 0.0
H293 H 0.02341 0.06836 0.48475 0.0
H294 H 0.97544 0.07125 0.35888 0.0
H295 H 0.96144 0.04357 0.41148 0.0
Sm296 Sm 0.50367 0.01379 0.72256 0.0
Sm297 Sm 0.4944 0.988 0.60416 0.0
C298 C 0.51769 0.03121 0.82206 0.0
C299 C 0.53609 0.03355 0.85383 0.0
C300 C 0.54609 0.01802 0.87836 0.0
C301 C 0.56354 0.02073 0.90797 0.0
C302 C 0.57135 0.03894 0.91298 0.0
C303 C 0.56139 0.05441 0.8881 0.0
C304 C 0.54387 0.05173 0.85914 0.0
C305 C 0.49043 0.03197 0.61681 0.0
C306 C 0.53875 0.99604 0.63356 0.0
C307 C 0.48125 0.98005 0.49146 0.0
C308 C 0.46302 0.98556 0.46315 0.0
C309 C 0.4627 0.996 0.40703 0.0
C310 C 0.44579 0.00402 0.38554 0.0
C311 C 0.42893 1.00172 0.41993 0.0
C312 C 0.42922 0.99074 0.475 0.0
C313 C 0.44606 0.98275 0.49636 0.0
C314 C 0.5019 0.96517 0.70665 0.0
C315 C 0.46053 1.00042 0.70472 0.0
O316 O 0.50948 0.0146 0.82512 0.0
O317 O 0.51619 0.03921 0.76676 0.0
O318 O 0.50216 0.01857 0.61816 0.0
O319 O 0.48537 0.03661 0.67345 0.0
O320 O 0.53337 0.00512 0.68528 0.0
O321 O 0.52656 0.98868 0.59314 0.0
O322 O 0.49299 0.99403 0.50172 0.0
O323 O 0.48047 0.96805 0.53836 0.0
O324 O 0.5019 0.98297 0.70489 0.0
O325 O 0.49849 0.95859 0.65068 0.0
O326 O 0.46507 0.99637 0.64566 0.0
O327 O 0.47347 0.00497 0.74695 0.0
H328 H 0.54049 0.00381 0.87463 0.0
H329 H 0.57103 0.00856 0.92642 0.0
H330 H 0.567 0.06861 0.89199 0.0
H331 H 0.53637 0.06392 0.84075 0.0
H332 H 0.47565 0.99852 0.38104 0.0
H333 H 0.44596 0.01224 0.34254 0.0
H334 H 0.41657 0.98893 0.50314 0.0
H335 H 0.44587 0.97501 0.54031 0.0
Sm336 Sm 0.4969 0.50878 0.74465 0.0
Sm337 Sm 0.52139 0.49637 0.62326 0.0
C338 C 0.4871 0.52175 0.85621 0.0
C339 C 0.47639 0.53817 0.87877 0.0
C340 C 0.47416 0.55416 0.84038 0.0
C341 C 0.46484 0.57016 0.86313 0.0
C342 C 0.45745 0.57041 0.92458 0.0
C343 C 0.45921 0.55408 0.9621 0.0
C344 C 0.46864 0.5381 0.93935 0.0
C345 C 0.47413 0.50581 0.63829 0.0
C346 C 0.51188 0.54102 0.64285 0.0
C347 C 0.5331 0.48028 0.51839 0.0
C348 C 0.52584 0.46355 0.48583 0.0
C349 C 0.50912 0.45508 0.50739 0.0
C350 C 0.5021 0.43894 0.47829 0.0
C351 C 0.51165 0.43096 0.42687 0.0
C352 C 0.52831 0.4396 0.40468 0.0
C353 C 0.53542 0.4558 0.43427 0.0
C354 C 0.5415 0.50727 0.7277 0.0
C355 C 0.50288 0.46368 0.71832 0.0
O356 O 0.5034 0.5256 0.82947 0.0
O357 O 0.47731 0.50881 0.82635 0.0
O358 O 0.4915 0.5027 0.64393 0.0
O359 O 0.46768 0.51112 0.69271 0.0
O360 O 0.50689 0.53719 0.70165 0.0
O361 O 0.51596 0.52767 0.60138 0.0
O362 O 0.52155 0.49477 0.5192 0.0
O363 O 0.54093 0.47696 0.57315 0.0
O364 O 0.52644 0.49766 0.72774 0.0
O365 O 0.54726 0.51037 0.67043 0.0
O366 O 0.50984 0.46802 0.66225 0.0
O367 O 0.49836 0.47666 0.76056 0.0
H368 H 0.47999 0.55441 0.79324 0.0
H369 H 0.464 0.58253 0.83325 0.0
H370 H 0.45343 0.55369 0.00925 0.0
H371 H 0.47011 0.5258 0.96935 0.0
H372 H 0.50143 0.46097 0.54674 0.0
H373 H 0.48906 0.43281 0.49565 0.0
H374 H 0.53595 0.43367 0.36518 0.0
H375 H 0.54836 0.4622 0.41716 0.0
Sm376 Sm 1.00364 0.48729 0.73531 0.0
Sm377 Sm 0.0134 0.51134 0.61273 0.0
C378 C 0.9898 0.47288 0.8406 0.0
C379 C 0.97089 0.46867 0.8655 0.0
C380 C 0.95491 0.47824 0.84274 0.0
C381 C 0.93688 0.47347 0.8644 0.0
C382 C 0.93453 0.45907 0.90945 0.0
C383 C 0.95065 0.44961 0.93237 0.0
C384 C 0.96867 0.45435 0.91041 0.0
C385 C 0.01293 0.46732 0.62891 0.0
C386 C 0.96878 0.50369 0.64414 0.0
C387 C 0.02487 0.52052 0.49889 0.0
C388 C 0.04201 0.52973 0.4753 0.0
C389 C 0.05811 0.53067 0.5136 0.0
C390 C 0.07526 0.53697 0.48905 0.0
C391 C 0.07655 0.54275 0.42583 0.0
C392 C 0.05995 0.54315 0.38906 0.0
C393 C 0.04281 0.53653 0.41356 0.0
C394 C 0.01149 0.53505 0.71606 0.0
C395 C 0.0476 0.49836 0.71131 0.0
O396 O 0.99411 0.49079 0.83402 0.0
O397 O 0.99516 0.46253 0.79292 0.0
O398 O 1.00258 0.48186 0.63072 0.0
O399 O 0.01856 0.46256 0.68496 0.0
O400 O 0.97394 0.4956 0.69779 0.0
O401 O 0.98117 0.5098 0.60218 0.0
O402 O 0.02759 0.50375 0.52376 0.0
O403 O 0.0134 0.53121 0.53178 0.0
O404 O 0.00918 0.51745 0.71465 0.0
O405 O 0.01503 0.54101 0.65952 0.0
O406 O 0.04283 0.50273 0.65265 0.0
O407 O 0.03478 0.49426 0.75466 0.0
H408 H 0.95635 0.48932 0.80793 0.0
H409 H 0.92476 0.48088 0.84519 0.0
H410 H 0.94936 0.43866 0.96774 0.0
H411 H 0.98088 0.44679 0.92832 0.0
H412 H 0.05765 0.52567 0.56172 0.0
H413 H 0.08767 0.53616 0.51877 0.0
H414 H 0.06033 0.54788 0.34064 0.0
H415 H 0.03039 0.53612 0.38371 0.0
C416 C 0.15536 0.00417 0.2284 0.0
C417 C 0.15012 0.01095 0.16864 0.0
C418 C 0.14172 1.00121 0.27518 0.0
C419 C 0.09378 0.01674 0.32251 0.0
H420 H 0.09773 0.97535 0.44138 0.0
C421 C 0.03866 0.0047 0.52225 0.0
C422 C 0.046 0.99945 0.58112 0.0
C423 C 0.0504 0.00522 0.46902 0.0
C424 C 0.0965 0.9871 0.40893 0.0
H425 H 0.12617 0.01901 0.11064 0.0
H426 H 0.10243 0.01384 0.19219 0.0
H427 H 0.11985 0.97726 0.35365 0.0
H428 H 0.07136 0.99073 0.63057 0.0
H429 H 0.09179 0.99178 0.53847 0.0
H430 H 0.07058 0.02671 0.37836 0.0
C431 C 0.11715 0.01114 0.20321 0.0
C432 C 0.10919 0.98818 0.35852 0.0
C433 C 0.13078 0.01407 0.15637 0.0
C434 C 0.06526 0.99476 0.58575 0.0
C435 C 0.07696 0.99523 0.53276 0.0
C436 C 0.08108 0.01566 0.37302 0.0
C437 C 0.12246 0.00496 0.26358 0.0
C438 C 0.10817 1.00313 0.31502 0.0
C439 C 0.06971 1.00041 0.47357 0.0
C440 C 0.08242 1.00096 0.41741 0.0
H441 H 0.17011 1.00191 0.24004 0.0
H442 H 0.1464 0.99667 0.32129 0.0
H443 H 0.09269 0.02859 0.29046 0.0
H444 H 0.02388 0.00834 0.5173 0.0
H445 H 0.04428 0.00915 0.42416 0.0
C446 C 0.45442 0.1513 0.21804 0.0
C447 C 0.46655 0.15279 0.16583 0.0
C448 C 0.45717 0.13728 0.26344 0.0
C449 C 0.49258 0.10322 0.32627 0.0
H450 H 0.44807 0.08054 0.40201 0.0
C451 C 0.49728 0.04138 0.50533 0.0
C452 C 0.48645 0.04358 0.5603 0.0
C453 C 0.49461 0.05345 0.4538 0.0
C454 C 0.46064 0.0868 0.38157 0.0
H455 H 0.49135 0.14084 0.12114 0.0
H456 H 0.49606 0.11604 0.2002 0.0
H457 H 0.44437 0.10392 0.31868 0.0
H458 H 0.46395 0.05975 0.60371 0.0
H459 H 0.45911 0.08071 0.51356 0.0
H460 H 0.5088 0.08591 0.38925 0.0
C461 C 0.48449 0.12591 0.20634 0.0
C462 C 0.45855 0.10028 0.33385 0.0
C463 C 0.4818 0.14011 0.16093 0.0
C464 C 0.4725 0.05772 0.56198 0.0
C465 C 0.46969 0.06967 0.51022 0.0
C466 C 0.49467 0.0896 0.37374 0.0
C467 C 0.47207 0.12419 0.25795 0.0
C468 C 0.47447 0.10893 0.30615 0.0
C469 C 0.48091 0.06787 0.45586 0.0
C470 C 0.47872 0.08142 0.40256 0.0
H471 H 0.44278 0.16111 0.22404 0.0
H472 H 0.44762 0.13684 0.30325 0.0
H473 H 0.50517 0.10966 0.30671 0.0
H474 H 0.5082 0.03065 0.50272 0.0
H475 H 0.50334 0.05156 0.41242 0.0
C476 C 0.38012 0.47995 0.15664 0.0
C477 C 0.362 0.48805 0.16121 0.0
C478 C 0.39395 0.48362 0.20229 0.0
C479 C 0.40539 0.5149 0.33953 0.0
H480 H 0.43601 0.47214 0.39164 0.0
C481 C 0.44437 0.51212 0.57841 0.0
C482 C 0.46288 0.50487 0.57958 0.0
C483 C 0.43346 0.51119 0.52359 0.0
C484 C 0.42775 0.48429 0.37716 0.0
H485 H 0.34436 0.50672 0.21672 0.0
H486 H 0.36823 0.51292 0.29666 0.0
H487 H 0.41463 0.46892 0.30239 0.0
H488 H 0.48444 0.49093 0.52436 0.0
H489 H 0.4653 0.48901 0.42841 0.0
H490 H 0.41813 0.53002 0.41596 0.0
C491 C 0.37202 0.50402 0.25721 0.0
C492 C 0.41549 0.48249 0.32571 0.0
C493 C 0.35827 0.50049 0.21123 0.0
C494 C 0.47026 0.49665 0.52473 0.0
C495 C 0.45925 0.49549 0.46995 0.0
C496 C 0.41752 0.51663 0.39134 0.0
C497 C 0.38995 0.49534 0.25416 0.0
C498 C 0.40397 0.49771 0.30645 0.0
C499 C 0.44071 0.50279 0.46873 0.0
C500 C 0.42871 0.50129 0.41121 0.0
H501 H 0.3835 0.47044 0.11835 0.0
H502 H 0.40769 0.47701 0.19731 0.0
H503 H 0.39709 0.52707 0.32557 0.0
H504 H 0.43828 0.51853 0.62002 0.0
H505 H 0.41916 0.51673 0.52457 0.0
C506 C 0.02057 0.36294 0.16246 0.0
C507 C 0.03529 0.34968 0.16827 0.0
C508 C 0.0176 0.3766 0.20941 0.0
C509 C 0.0427 0.39961 0.34369 0.0
H510 H 0.9925 0.41589 0.3934 0.0
C511 C 0.02862 0.44028 0.57404 0.0
C512 C 0.01595 0.45556 0.57217 0.0
C513 C 0.0309 0.42852 0.52171 0.0
C514 C 0.00662 0.41164 0.37952 0.0
H515 H 0.05768 0.33964 0.22946 0.0
H516 H 0.0523 0.36293 0.31135 0.0
H517 H 0.99611 0.39284 0.30855 0.0
H518 H 0.99582 0.47065 0.51383 0.0
H519 H 0.99966 0.44992 0.4223 0.0
H520 H 0.05318 0.41804 0.41558 0.0
C521 C 0.04344 0.36339 0.26981 0.0
C522 C 0.0087 0.39843 0.33078 0.0
C523 C 0.04648 0.34993 0.22291 0.0
C524 C 0.0057 0.45896 0.5166 0.0
C525 C 0.00781 0.44704 0.46438 0.0
C526 C 0.0406 0.41264 0.3926 0.0
C527 C 0.0292 0.37716 0.26337 0.0
C528 C 0.02678 0.39203 0.31277 0.0
C529 C 0.02041 0.43164 0.46641 0.0
C530 C 0.02255 0.41866 0.41166 0.0
H531 H 0.01174 0.36311 0.12081 0.0
H532 H 0.00654 0.38701 0.20258 0.0
H533 H 0.05688 0.39547 0.33017 0.0
H534 H 0.03669 0.43729 0.61623 0.0
H535 H 0.04059 0.41668 0.52506 0.0
C536 C 0.86912 1.00007 0.20242 0.0
C537 C 0.84966 0.99764 0.19071 0.0
C538 C 0.88241 0.99764 0.15439 0.0
C539 C 0.8901 0.97729 0.99607 0.0
H540 H 0.92675 0.01779 0.97973 0.0
C541 C 0.93525 0.98795 0.77122 0.0
C542 C 0.95359 0.99535 0.77752 0.0
C543 C 0.92332 0.9864 0.82357 0.0
C544 C 0.91689 0.00614 0.98403 0.0
H545 H 0.8291 0.98995 0.11938 0.0
H546 H 0.85236 0.98543 0.03581 0.0
H547 H 0.90478 0.01782 0.06766 0.0
H548 H 0.97409 0.00637 0.84381 0.0
H549 H 0.9536 1.00311 0.93545 0.0
H550 H 0.90225 0.96558 0.91243 0.0
C551 C 0.85729 0.98921 0.08236 0.0
C552 C 0.90423 0.0062 0.03453 0.0
C553 C 0.84395 0.99176 0.13039 0.0
C554 C 0.96 1.00064 0.83748 0.0
C555 C 0.94816 0.99893 0.88994 0.0
C556 C 0.9029 0.97713 0.94572 0.0
C557 C 0.87663 0.99257 0.09344 0.0
C558 C 0.89059 0.99185 0.041 0.0
C559 C 0.92952 0.99209 0.8836 0.0
C560 C 0.9164 0.99165 0.93873 0.0
H561 H 0.87409 0.00421 0.2486 0.0
H562 H 0.89724 0.99997 0.16479 0.0
H563 H 0.87989 0.96593 1.00007 0.0
H564 H 0.92991 0.9838 0.72553 0.0
H565 H 0.90904 0.9813 0.81648 0.0
C566 C 0.50901 0.84299 0.11416 0.0
C567 C 0.50476 0.84897 0.1756 0.0
C568 C 0.51121 0.85615 0.06555 0.0
C569 C 0.51861 0.90698 0.02874 0.0
H570 H 0.49152 0.89415 0.8761 0.0
C571 C 0.50509 0.9605 0.82372 0.0
C572 C 0.50534 0.95313 0.7624 0.0
C573 C 0.5067 0.94838 0.87586 0.0
C574 C 0.49943 0.8979 0.91789 0.0
H575 H 0.50067 0.87363 0.23467 0.0
H576 H 0.50436 0.89659 0.14962 0.0
H577 H 0.49207 0.87192 0.96304 0.0
H578 H 0.50838 0.92754 0.70735 0.0
H579 H 0.51168 0.90663 0.7973 0.0
H580 H 0.52592 0.93308 0.98312 0.0
C581 C 0.50598 0.8817 0.13909 0.0
C582 C 0.49974 0.8851 0.96789 0.0
C583 C 0.50372 0.86852 0.18774 0.0
C584 C 0.50793 0.93362 0.75408 0.0
C585 C 0.50969 0.92159 0.80581 0.0
C586 C 0.51838 0.91982 0.97834 0.0
C587 C 0.50926 0.87564 0.07707 0.0
C588 C 0.50939 0.8894 0.02387 0.0
C589 C 0.50866 0.9287 0.86747 0.0
C590 C 0.50887 0.91538 0.92207 0.0
H591 H 0.50976 0.82808 0.10287 0.0
H592 H 0.51402 0.85101 0.0185 0.0
H593 H 0.52623 0.91071 0.07116 0.0
H594 H 0.50306 0.97549 0.83142 0.0
H595 H 0.50577 0.95436 0.92262 0.0
C596 C 0.63851 0.50702 0.20751 0.0
C597 C 0.65788 0.50951 0.19434 0.0
C598 C 0.62487 0.50969 0.16069 0.0
C599 C 0.61605 0.53039 0.00327 0.0
H600 H 0.58003 0.48931 0.98761 0.0
C601 C 0.57136 0.51863 0.7784 0.0
C602 C 0.55319 0.51078 0.78426 0.0
C603 C 0.58309 0.52058 0.83107 0.0
C604 C 0.58969 0.50112 0.99176 0.0
H605 H 0.6779 0.51767 0.12191 0.0
H606 H 0.65404 0.52261 0.04048 0.0
H607 H 0.6022 0.48956 0.07499 0.0
H608 H 0.53277 0.4994 0.85014 0.0
H609 H 0.55292 0.50334 0.94242 0.0
H610 H 0.60354 0.54195 0.91992 0.0
C611 C 0.64944 0.51859 0.0872 0.0
C612 C 0.60247 0.50123 0.04196 0.0
C613 C 0.66313 0.5158 0.13401 0.0
C614 C 0.54673 0.50547 0.84416 0.0
C615 C 0.55838 0.50757 0.89697 0.0
C616 C 0.60313 0.53037 0.95324 0.0
C617 C 0.6302 0.51507 0.09956 0.0
C618 C 0.61593 0.51576 0.04805 0.0
C619 C 0.57686 0.51485 0.89104 0.0
C620 C 0.58989 0.51562 0.94639 0.0
H621 H 0.63391 0.50256 0.25378 0.0
H622 H 0.61013 0.50723 0.17207 0.0
H623 H 0.62611 0.54189 0.007 0.0
H624 H 0.57675 0.52282 0.73279 0.0
H625 H 0.59727 0.526 0.82426 0.0
C626 C 0.00475 0.65933 0.11593 0.0
C627 C 0.00833 0.65381 0.17833 0.0
C628 C 1.00337 0.64583 0.06814 0.0
C629 C 0.99625 0.59506 0.03402 0.0
H630 H 0.02592 0.60643 0.88541 0.0
C631 C 0.00931 0.54039 0.833 0.0
C632 C 0.00972 0.54756 0.77142 0.0
C633 C 0.0083 0.55274 0.88459 0.0
C634 C 0.01731 0.60309 0.92606 0.0
H635 H 0.01223 0.62967 0.2399 0.0
H636 H 0.00978 0.60605 0.15624 0.0
H637 H 0.0246 0.62914 0.97093 0.0
H638 H 0.00887 0.57312 0.71528 0.0
H639 H 0.00661 0.59449 0.80421 0.0
H640 H 0.98882 0.56902 0.98859 0.0
C641 C 0.00809 0.62085 0.14439 0.0
C642 C 0.01659 0.61614 0.97521 0.0
C643 C 0.00961 0.63439 0.19221 0.0
C644 C 0.00875 0.56718 0.76226 0.0
C645 C 0.00759 0.57946 0.81342 0.0
C646 C 0.99685 0.582 0.98442 0.0
C647 C 0.00543 0.62646 0.08157 0.0
C648 C 0.00596 0.61237 0.02962 0.0
C649 C 0.00761 0.57248 0.87538 0.0
C650 C 0.00729 0.58592 0.92953 0.0
H651 H 0.00386 0.67416 0.10344 0.0
H652 H 1.00107 0.65059 0.02031 0.0
H653 H 0.9879 0.59177 0.07532 0.0
H654 H 0.0102 0.52532 0.84133 0.0
H655 H 0.00851 0.54685 0.93159 0.0
C656 C 0.0661 0.20278 0.11669 0.0
C657 C 0.07078 0.2191 0.15095 0.0
C658 C 0.06138 0.18606 0.14779 0.0
C659 C 0.04123 0.17084 0.29813 0.0
H660 H 0.05158 0.12053 0.23425 0.0
C661 C 0.01669 0.10329 0.42572 0.0
C662 C 0.00887 0.08891 0.38826 0.0
C663 C 0.02543 0.11888 0.39805 0.0
C664 C 0.04848 0.13452 0.25227 0.0
H665 H 0.07551 0.2304 0.24432 0.0
H666 H 0.06754 0.20104 0.29888 0.0
H667 H 0.06667 0.14789 0.18514 0.0
H668 H 0.00392 0.07961 0.29258 0.0
H669 H 0.01908 0.10708 0.24395 0.0
H670 H 0.02294 0.15751 0.36486 0.0
C671 C 0.06712 0.2013 0.24797 0.0
C672 C 0.05714 0.15016 0.22432 0.0
C673 C 0.07178 0.21806 0.21682 0.0
C674 C 0.00974 0.09055 0.32251 0.0
C675 C 0.01859 0.10614 0.29477 0.0
C676 C 0.03264 0.15521 0.32617 0.0
C677 C 0.06128 0.18531 0.21382 0.0
C678 C 0.05349 0.16851 0.24661 0.0
C679 C 0.02658 0.12041 0.33232 0.0
C680 C 0.03604 0.13691 0.3032 0.0
H681 H 0.06488 0.20322 0.06592 0.0
H682 H 0.05673 0.17409 0.12006 0.0
H683 H 0.03778 0.1848 0.31561 0.0
H684 H 0.01604 0.10248 0.47656 0.0
H685 H 0.03156 0.12961 0.42817 0.0
C686 C 0.27404 0.04543 0.25223 0.0
C687 C 0.27144 0.06091 0.21162 0.0
C688 C 0.29064 0.04361 0.28711 0.0
C689 C 0.34042 0.0563 0.27399 0.0
H690 H 0.34376 0.03003 0.43374 0.0
C691 C 0.4115 0.03008 0.37858 0.0
C692 C 0.4112 0.01129 0.4003 0.0
C693 C 0.39465 0.03934 0.36303 0.0
C694 C 0.34304 0.0374 0.38912 0.0
H695 H 0.28356 0.08742 0.17992 0.0
H696 H 0.3127 0.0842 0.24109 0.0
H697 H 0.3132 0.04193 0.39763 0.0
H698 H 0.39305 0.98738 0.42139 0.0
H699 H 0.36371 0.00352 0.39446 0.0
H700 H 0.37015 0.05125 0.26466 0.0
C701 C 0.30196 0.07334 0.24499 0.0
C702 C 0.32557 0.04424 0.36851 0.0
C703 C 0.28528 0.07519 0.21005 0.0
C704 C 0.39374 1.00194 0.40573 0.0
C705 C 0.37692 0.01121 0.39053 0.0
C706 C 0.3579 0.04953 0.29476 0.0
C707 C 0.30507 0.0572 0.28223 0.0
C708 C 0.32396 0.05323 0.30978 0.0
C709 C 0.37719 0.03001 0.36927 0.0
C710 C 0.35926 0.03949 0.35156 0.0
H711 H 0.26385 0.034 0.25392 0.0
H712 H 0.29265 0.03086 0.31458 0.0
H713 H 0.33965 0.06295 0.22816 0.0
H714 H 0.42471 0.03778 0.37487 0.0
H715 H 0.39525 0.05387 0.347 0.0
C716 C 0.43759 0.28605 0.22843 0.0
C717 C 0.43736 0.28531 0.16243 0.0
C718 C 0.44332 0.3025 0.25933 0.0
C719 C 0.45385 0.35348 0.23642 0.0
H720 H 0.49057 0.34482 0.36902 0.0
C721 C 0.50226 0.41263 0.33104 0.0
C722 C 0.50394 0.41378 0.39671 0.0
C723 C 0.49351 0.39701 0.30326 0.0
C724 C 0.4802 0.34747 0.33253 0.0
H725 H 0.44221 0.30146 0.0771 0.0
H726 H 0.45213 0.33007 0.13085 0.0
H727 H 0.47449 0.31801 0.32103 0.0
H728 H 0.49854 0.39923 0.48472 0.0
H729 H 0.48318 0.37204 0.43632 0.0
H730 H 0.45984 0.38297 0.24742 0.0
C731 C 0.44767 0.31808 0.15888 0.0
C732 C 0.47091 0.33213 0.30526 0.0
C733 C 0.44191 0.30167 0.12803 0.0
C734 C 0.49725 0.39879 0.43397 0.0
C735 C 0.48859 0.38317 0.40626 0.0
C736 C 0.46319 0.36883 0.26363 0.0
C737 C 0.44898 0.31849 0.22478 0.0
C738 C 0.4577 0.33495 0.25669 0.0
C739 C 0.48642 0.38222 0.3407 0.0
C740 C 0.47652 0.36596 0.31173 0.0
H741 H 0.43398 0.2737 0.25609 0.0
H742 H 0.44385 0.30253 0.31024 0.0
H743 H 0.44361 0.35611 0.19952 0.0
H744 H 0.50721 0.42405 0.30129 0.0
H745 H 0.49224 0.39652 0.25252 0.0
C746 C 0.21338 0.48602 0.18671 0.0
C747 C 0.2302 0.48336 0.22086 0.0
C748 C 0.19883 0.49712 0.21086 0.0
C749 C 0.17953 0.51684 0.3569 0.0
H750 H 0.15058 0.54729 0.23925 0.0
C751 C 0.11069 0.5528 0.43236 0.0
C752 C 0.09548 0.54562 0.39682 0.0
C753 C 0.12927 0.55108 0.41053 0.0
C754 C 0.15869 0.53905 0.27274 0.0
H755 H 0.24468 0.48986 0.30819 0.0
H756 H 0.21923 0.50957 0.3502 0.0
H757 H 0.17946 0.5316 0.20407 0.0
H758 H 0.08791 0.5326 0.3077 0.0
H759 H 0.12004 0.53029 0.26917 0.0
H760 H 0.1584 0.52388 0.42503 0.0
C761 C 0.21734 0.50295 0.30474 0.0
C762 C 0.1751 0.52993 0.25259 0.0
C763 C 0.23193 0.49172 0.28059 0.0
C764 C 0.09913 0.53849 0.33628 0.0
C765 C 0.11763 0.53708 0.31412 0.0
C766 C 0.16318 0.5261 0.37719 0.0
C767 C 0.20077 0.50601 0.26956 0.0
C768 C 0.18526 0.5181 0.29378 0.0
C769 C 0.1329 0.54256 0.35221 0.0
C770 C 0.15225 0.5367 0.33463 0.0
H771 H 0.21166 0.48012 0.14007 0.0
H772 H 0.18607 0.49881 0.18321 0.0
H773 H 0.18699 0.50779 0.38971 0.0
H774 H 0.10836 0.55884 0.47849 0.0
H775 H 0.14083 0.55561 0.44038 0.0
C776 C 0.08688 0.78409 0.17668 0.0
C777 C 0.07049 0.77326 0.16592 0.0
C778 C 0.09008 0.80074 0.14276 0.0
C779 C 0.08251 0.84168 0.10635 0.0
H780 H 0.06747 0.84886 0.93256 0.0
C781 C 0.0525 0.91144 0.01241 0.0
C782 C 0.05677 0.91717 0.9507 0.0
C783 C 0.05902 0.89415 0.03546 0.0
C784 C 0.07205 0.8471 0.98082 0.0
H785 H 0.04509 0.77107 0.10883 0.0
H786 H 0.05079 0.79981 0.0496 0.0
H787 H 0.07084 0.8169 0.97439 0.0
H788 H 0.07209 0.90956 0.86594 0.0
H789 H 0.08325 0.87916 0.90611 0.0
H790 H 0.08318 0.87187 0.11331 0.0
C791 C 0.06127 0.79539 0.08377 0.0
C792 C 0.07382 0.82879 0.0049 0.0
C793 C 0.05802 0.77884 0.11781 0.0
C794 C 0.06826 0.90543 0.91332 0.0
C795 C 0.07471 0.88805 0.93632 0.0
C796 C 0.08068 0.85997 0.08234 0.0
C797 C 0.07703 0.80682 0.09713 0.0
C798 C 0.07851 0.8259 0.06843 0.0
C799 C 0.06991 0.88211 0.99733 0.0
C800 C 0.07487 0.86288 0.01987 0.0
H801 H 0.09693 0.78002 0.21267 0.0
H802 H 0.10248 0.80914 0.15348 0.0
H803 H 0.08601 0.83995 0.15561 0.0
H804 H 0.04343 0.91994 0.04218 0.0
H805 H 0.0548 0.88984 0.0823 0.0
C806 C 0.7272 0.06676 0.15426 0.0
C807 C 0.72747 0.06058 0.21713 0.0
C808 C 0.71028 0.06662 0.11993 0.0
C809 C 0.66726 0.03937 0.11105 0.0
H810 H 0.64583 0.08042 0.01335 0.0
C811 C 0.59303 0.03359 0.00406 0.0
C812 C 0.58967 0.0419 0.9452 0.0
C813 C 0.6101 0.0367 0.03537 0.0
C814 C 0.65178 0.06872 0.03959 0.0
H815 H 0.71017 0.04998 0.29381 0.0
H816 H 0.68082 0.04976 0.23395 0.0
H817 H 0.6753 0.08539 0.07165 0.0
H818 H 0.60154 0.05972 0.87227 0.0
H819 H 0.63166 0.06475 0.92611 0.0
H820 H 0.64429 0.02245 0.07833 0.0
C821 C 0.69363 0.05476 0.21139 0.0
C822 C 0.66858 0.07163 0.07312 0.0
C823 C 0.7104 0.0551 0.24579 0.0
C824 C 0.60375 0.05328 0.91795 0.0
C825 C 0.62095 0.05623 0.94894 0.0
C826 C 0.65069 0.03636 0.07698 0.0
C827 C 0.69352 0.06002 0.14779 0.0
C828 C 0.67625 0.05705 0.10989 0.0
C829 C 0.62433 0.04799 0.00812 0.0
C830 C 0.64255 0.05107 0.0416 0.0
H831 H 0.74016 0.07104 0.1311 0.0
H832 H 0.7105 0.07072 0.07084 0.0
H833 H 0.67314 0.02779 0.13817 0.0
H834 H 0.58229 0.02499 0.02653 0.0
H835 H 0.61201 0.03047 0.08146 0.0
C836 C 0.42153 0.72167 0.17529 0.0
C837 C 0.43823 0.73206 0.16493 0.0
C838 C 0.41795 0.70512 0.14133 0.0
C839 C 0.42442 0.664 0.10509 0.0
H840 H 0.43986 0.65647 0.93191 0.0
C841 C 0.4531 0.59359 0.01254 0.0
C842 C 0.44905 0.58803 0.95053 0.0
C843 C 0.4468 0.61098 0.03534 0.0
C844 C 0.43515 0.65834 0.97997 0.0
H845 H 0.46381 0.73356 0.10857 0.0
H846 H 0.45748 0.70498 0.0493 0.0
H847 H 0.4372 0.68849 0.97356 0.0
H848 H 0.43432 0.59602 0.86495 0.0
H849 H 0.42354 0.62659 0.90472 0.0
H850 H 0.42291 0.63384 0.11204 0.0
C851 C 0.44704 0.70968 0.08315 0.0
C852 C 0.4338 0.67668 0.00397 0.0
C853 C 0.45066 0.72613 0.11722 0.0
C854 C 0.43797 0.60002 0.91259 0.0
C855 C 0.43174 0.61749 0.93536 0.0
C856 C 0.42583 0.64567 0.08115 0.0
C857 C 0.43094 0.69869 0.09608 0.0
C858 C 0.42899 0.67967 0.06733 0.0
C859 C 0.43636 0.62328 0.99666 0.0
C860 C 0.43178 0.64263 0.01893 0.0
H861 H 0.4115 0.72602 0.21098 0.0
H862 H 0.40529 0.69707 0.15172 0.0
H863 H 0.42081 0.66581 0.15422 0.0
H864 H 0.46185 0.58489 0.04275 0.0
H865 H 0.45088 0.61516 0.08243 0.0
C866 C 0.77467 0.43734 0.12369 0.0
C867 C 0.77638 0.44001 0.18899 0.0
C868 C 0.79077 0.43472 0.08646 0.0
C869 C 0.82711 0.44704 0.02175 0.0
H870 H 0.87199 0.42011 0.07673 0.0
C871 C 0.90201 0.46836 0.94536 0.0
C872 C 0.91536 0.45411 0.93299 0.0
C873 C 0.88416 0.4638 0.969 0.0
C874 C 0.85952 0.42749 0.06015 0.0
H875 H 0.79635 0.44114 0.26654 0.0
H876 H 0.82423 0.43637 0.202 0.0
H877 H 0.8421 0.41537 0.13208 0.0
H878 H 0.92019 0.42381 0.93409 0.0
H879 H 0.88902 0.41587 0.97617 0.0
H880 H 0.84459 0.45946 0.95066 0.0
C881 C 0.81047 0.43612 0.1795 0.0
C882 C 0.84244 0.42488 0.09215 0.0
C883 C 0.79443 0.43882 0.21661 0.0
C884 C 0.91035 0.43515 0.94411 0.0
C885 C 0.89249 0.43059 0.968 0.0
C886 C 0.84418 0.44969 0.9899 0.0
C887 C 0.80888 0.43462 0.11384 0.0
C888 C 0.82617 0.43499 0.07425 0.0
C889 C 0.87924 0.44488 0.98098 0.0
C890 C 0.86067 0.44031 0.00974 0.0
H891 H 0.76094 0.43789 0.10107 0.0
H892 H 0.7891 0.43332 0.03604 0.0
H893 H 0.81488 0.45517 0.0071 0.0
H894 H 0.90551 0.48312 0.9383 0.0
H895 H 0.8744 0.47517 0.97963 0.0
C896 C 0.02149 0.21322 0.80839 0.0
C897 C 0.02023 0.21874 0.87192 0.0
C898 C 0.01895 0.19432 0.79054 0.0
C899 C 0.01747 0.14528 0.85962 0.0
H900 H 1.00233 0.13221 0.69019 0.0
C901 C 0.01973 0.06748 0.77518 0.0
C902 C 0.00691 0.06154 0.72878 0.0
C903 C 0.02125 0.08666 0.79117 0.0
C904 C 0.00629 0.13543 0.73815 0.0
H905 H 0.01435 0.20819 0.96597 0.0
H906 H 0.00832 0.17596 0.93444 0.0
H907 H 1.00308 0.16503 0.72147 0.0
H908 H 0.98542 0.07105 0.66332 0.0
H909 H 0.98715 0.1041 0.69343 0.0
H910 H 0.01938 0.11567 0.87771 0.0
C911 C 0.01224 0.18602 0.89836 0.0
C912 C 0.0071 0.1545 0.7559 0.0
C913 C 0.01528 0.20482 0.91644 0.0
C914 C 0.99559 0.07519 0.69887 0.0
C915 C 0.99673 0.09428 0.71599 0.0
C916 C 0.01618 0.12621 0.84238 0.0
C917 C 0.01452 0.18029 0.83533 0.0
C918 C 0.01287 0.15981 0.81684 0.0
C919 C 0.0096 0.1004 0.76244 0.0
C920 C 0.01073 0.1209 0.78113 0.0
H921 H 0.02482 0.22342 0.77207 0.0
H922 H 0.02105 0.19074 0.74159 0.0
H923 H 0.02237 0.14851 0.90661 0.0
H924 H 0.02878 0.05733 0.7987 0.0
H925 H 0.03173 0.09062 0.82584 0.0
C926 C 0.29484 0.99403 0.8909 0.0
C927 C 0.28477 0.01094 0.88067 0.0
C928 C 0.31348 0.99198 0.86893 0.0
C929 C 0.35532 0.02049 0.82754 0.0
H930 H 0.37365 0.97497 0.74627 0.0
C931 C 0.43493 0.0074 0.78347 0.0
C932 C 0.44024 1.00059 0.72386 0.0
C933 C 0.41587 0.00803 0.80139 0.0
C934 C 0.36871 0.9878 0.76866 0.0
H935 H 0.28656 0.03893 0.8393 0.0
H936 H 0.31884 0.03532 0.80104 0.0
H937 H 0.34041 0.9771 0.7787 0.0
H938 H 0.42946 0.98883 0.63672 0.0
H939 H 0.39618 0.98981 0.66833 0.0
H940 H 0.38351 0.03122 0.81778 0.0
C941 C 0.31236 0.02364 0.82597 0.0
C942 C 0.34972 0.98896 0.78771 0.0
C943 C 0.29373 0.02561 0.8473 0.0
C944 C 0.42594 0.99418 0.68295 0.0
C945 C 0.40685 0.99464 0.70118 0.0
C946 C 0.3743 0.01926 0.80921 0.0
C947 C 0.32256 0.00689 0.83703 0.0
C948 C 0.34277 0.00537 0.81715 0.0
C949 C 0.40157 1.00172 0.76047 0.0
C950 C 0.38126 1.00292 0.77947 0.0
H951 H 0.28836 0.98244 0.91627 0.0
H952 H 0.32097 0.97893 0.87852 0.0
H953 H 0.35051 0.03327 0.85063 0.0
H954 H 0.44548 0.01245 0.81639 0.0
H955 H 0.41234 0.01337 0.84766 0.0
C956 C 0.48975 0.30003 0.92261 0.0
C957 C 0.4845 0.28627 0.87797 0.0
C958 C 0.49315 0.3188 0.9047 0.0
C959 C 0.49906 0.35037 0.76253 0.0
H960 H 0.48736 0.38937 0.88418 0.0
C961 C 0.512 0.42956 0.70568 0.0
C962 C 0.50073 0.44336 0.73497 0.0
C963 C 0.5106 0.41049 0.72298 0.0
C964 C 0.49041 0.37878 0.84891 0.0
H965 H 0.47972 0.28184 0.77813 0.0
H966 H 0.4842 0.31448 0.74791 0.0
H967 H 0.48373 0.35655 0.91302 0.0
H968 H 0.47869 0.44782 0.8041 0.0
H969 H 0.47536 0.41459 0.83167 0.0
H970 H 0.50439 0.37263 0.69698 0.0
C971 C 0.48624 0.31078 0.79682 0.0
C972 C 0.48874 0.35972 0.86611 0.0
C973 C 0.48329 0.29191 0.81451 0.0
C974 C 0.48772 0.43756 0.78105 0.0
C975 C 0.48597 0.41842 0.79728 0.0
C976 C 0.50029 0.36944 0.74486 0.0
C977 C 0.49099 0.32466 0.84171 0.0
C978 C 0.49309 0.34513 0.82335 0.0
C979 C 0.49753 0.40452 0.76906 0.0
C980 C 0.49605 0.38403 0.78777 0.0
H981 H 0.49065 0.29656 0.97209 0.0
H982 H 0.49728 0.32874 0.94084 0.0
H983 H 0.50291 0.33978 0.72814 0.0
H984 H 0.5223 0.43356 0.67036 0.0
H985 H 0.52011 0.40053 0.70079 0.0
C986 C 0.21321 0.46842 0.86351 0.0
C987 C 0.22433 0.48427 0.8791 0.0
C988 C 0.1946 0.47055 0.8421 0.0
C989 C 0.16013 0.50509 0.77589 0.0
H990 H 0.12333 0.46939 0.84069 0.0
C991 C 0.08233 0.5014 0.68461 0.0
C992 C 0.06802 0.49776 0.72912 0.0
C993 C 0.10152 0.50044 0.70158 0.0
C994 C 0.13334 0.4796 0.82242 0.0
H995 H 0.22444 0.51493 0.88228 0.0
H996 H 0.19182 0.51861 0.84583 0.0
H997 H 0.1563 0.46672 0.87214 0.0
H998 H 0.0629 0.49057 0.82693 0.0
H999 H 0.09613 0.48906 0.85629 0.0
H1000 H 0.13697 0.51817 0.72709 0.0
C1001 C 0.19764 0.5045 0.84975 0.0
C1002 C 0.15238 0.47791 0.83986 0.0
C1003 C 0.21633 0.50237 0.87125 0.0
C1004 C 0.07345 0.49335 0.79109 0.0
C1005 C 0.09258 0.49237 0.80798 0.0
C1006 C 0.14104 0.50675 0.75828 0.0
C1007 C 0.18641 0.48858 0.8358 0.0
C1008 C 0.16608 0.49059 0.81683 0.0
C1009 C 0.10693 0.49576 0.76342 0.0
C1010 C 0.12736 0.49405 0.78145 0.0
H1011 H 0.21863 0.45423 0.86978 0.0
H1012 H 0.18656 0.45795 0.83094 0.0
H1013 H 0.17027 0.51504 0.75682 0.0
H1014 H 0.07876 0.50483 0.63646 0.0
H1015 H 0.11213 0.50297 0.66577 0.0
C1016 C 0.99521 0.79351 0.51158 0.0
C1017 C 0.99996 0.78961 0.44856 0.0
C1018 C 0.99336 0.81219 0.53276 0.0
C1019 C 0.00765 0.86122 0.48856 0.0
H1020 H 0.9729 0.87572 0.62114 0.0
C1021 C 0.99413 0.93915 0.55474 0.0
C1022 C 0.99481 0.9437 0.6191 0.0
C1023 C 0.99401 0.92029 0.53503 0.0
C1024 C 0.98275 0.87182 0.58435 0.0
H1025 H 0.0059 0.80274 0.35823 0.0
H1026 H 1.00158 0.8349 0.394 0.0
H1027 H 0.97323 0.84307 0.58346 0.0
H1028 H 0.99557 0.93186 0.71325 0.0
H1029 H 0.99508 0.89886 0.67858 0.0
H1030 H 0.01686 0.89006 0.48867 0.0
C1031 C 0.99988 0.82358 0.42781 0.0
C1032 C 0.983 0.85309 0.56279 0.0
C1033 C 1.00198 0.80496 0.40687 0.0
C1034 C 0.99507 0.92888 0.66331 0.0
C1035 C 0.99469 0.90998 0.64353 0.0
C1036 C 0.00721 0.87994 0.50952 0.0
C1037 C 0.99601 0.82752 0.49137 0.0
C1038 C 0.99545 0.84751 0.51445 0.0
C1039 C 0.99434 0.90549 0.57913 0.0
C1040 C 0.99476 0.88548 0.55759 0.0
H1041 H 0.99323 0.78214 0.54505 0.0
H1042 H 0.99045 0.81457 0.5821 0.0
H1043 H 0.01781 0.85747 0.45256 0.0
H1044 H 0.99396 0.95016 0.51931 0.0
H1045 H 0.99358 0.91728 0.4851 0.0
C1046 C 0.70342 0.98095 0.44928 0.0
C1047 C 0.71637 0.99336 0.47809 0.0
C1048 C 0.68459 0.97994 0.46989 0.0
C1049 C 0.64893 0.00822 0.55779 0.0
H1050 H 0.61995 0.9617 0.55486 0.0
C1051 C 0.57279 0.00395 0.65684 0.0
C1052 C 0.55935 0.99435 0.61986 0.0
C1053 C 0.59211 1.00296 0.64236 0.0
C1054 C 0.62783 0.97483 0.55555 0.0
H1055 H 0.71943 0.01417 0.55254 0.0
H1056 H 0.6871 0.01177 0.58987 0.0
H1057 H 0.65338 0.96121 0.52562 0.0
H1058 H 0.55589 0.97584 0.53928 0.0
H1059 H 0.58953 0.97412 0.5143 0.0
H1060 H 0.62342 0.02181 0.58791 0.0
C1061 C 0.69133 1.0031 0.55034 0.0
C1062 C 0.64701 0.97457 0.53864 0.0
C1063 C 0.71008 0.00422 0.52951 0.0
C1064 C 0.56579 0.98345 0.5688 0.0
C1065 C 0.58512 0.98236 0.55463 0.0
C1066 C 0.62983 0.00845 0.57505 0.0
C1067 C 0.6782 0.99125 0.52007 0.0
C1068 C 0.65783 0.99129 0.53937 0.0
C1069 C 0.59851 0.99224 0.59086 0.0
C1070 C 0.619 0.99178 0.57397 0.0
H1071 H 0.70772 0.9722 0.41006 0.0
H1072 H 0.67491 0.97071 0.44507 0.0
H1073 H 0.65661 0.02147 0.55766 0.0
H1074 H 0.56841 0.01244 0.69662 0.0
H1075 H 0.60206 0.01056 0.67171 0.0
C1076 C 0.52159 0.70604 0.45541 0.0
C1077 C 0.50443 0.71576 0.46405 0.0
C1078 C 0.5236 0.68731 0.47633 0.0
C1079 C 0.49621 0.64457 0.50373 0.0
H1080 H 0.537 0.62811 0.61304 0.0
C1081 C 0.51142 0.56574 0.55808 0.0
C1082 C 0.51256 0.56108 0.62231 0.0
C1083 C 0.51129 0.58465 0.53866 0.0
C1084 C 0.52556 0.63254 0.58245 0.0
H1085 H 0.47588 0.71344 0.50059 0.0
H1086 H 0.47928 0.68072 0.53578 0.0
H1087 H 0.53533 0.66131 0.57918 0.0
H1088 H 0.51487 0.57272 0.71637 0.0
H1089 H 0.51513 0.60579 0.68206 0.0
H1090 H 0.48654 0.61584 0.50616 0.0
C1091 C 0.49124 0.68763 0.51369 0.0
C1092 C 0.52467 0.65146 0.56285 0.0
C1093 C 0.48936 0.7064 0.49401 0.0
C1094 C 0.51394 0.57581 0.66655 0.0
C1095 C 0.51419 0.59473 0.64697 0.0
C1096 C 0.49731 0.62561 0.52221 0.0
C1097 C 0.50833 0.67786 0.50483 0.0
C1098 C 0.50987 0.65768 0.52379 0.0
C1099 C 0.51266 0.59935 0.58286 0.0
C1100 C 0.5119 0.61942 0.56216 0.0
H1101 H 0.53341 0.7129 0.43234 0.0
H1102 H 0.53691 0.68005 0.46872 0.0
H1103 H 0.48471 0.64897 0.47336 0.0
H1104 H 0.51025 0.55477 0.52277 0.0
H1105 H 0.51017 0.58781 0.48893 0.0
C1106 C 0.80551 0.52191 0.45161 0.0
C1107 C 0.79222 0.50946 0.47848 0.0
C1108 C 0.82416 0.52263 0.47402 0.0
C1109 C 0.85876 0.49339 0.5631 0.0
H1110 H 0.88849 0.53945 0.56417 0.0
C1111 C 0.93459 0.49602 0.66572 0.0
C1112 C 0.94827 0.50555 0.62957 0.0
C1113 C 0.91534 0.49736 0.65062 0.0
C1114 C 0.88039 0.52645 0.56379 0.0
H1115 H 0.78833 0.48834 0.55162 0.0
H1116 H 0.82034 0.49025 0.59213 0.0
H1117 H 0.85522 0.54063 0.53313 0.0
H1118 H 0.95227 0.52425 0.54967 0.0
H1119 H 0.91875 0.52656 0.52351 0.0
H1120 H 0.8839 0.47924 0.59393 0.0
C1121 C 0.81652 0.49915 0.55267 0.0
C1122 C 0.86131 0.5271 0.54584 0.0
C1123 C 0.79796 0.49832 0.53001 0.0
C1124 C 0.94217 0.51667 0.57853 0.0
C1125 C 0.92291 0.51812 0.56374 0.0
C1126 C 0.87776 0.49277 0.58143 0.0
C1127 C 0.83002 0.51099 0.52416 0.0
C1128 C 0.85023 0.51056 0.54501 0.0
C1129 C 0.90927 0.50837 0.59927 0.0
C1130 C 0.88885 0.50925 0.58172 0.0
H1131 H 0.80162 0.53089 0.41243 0.0
H1132 H 0.83413 0.53187 0.45055 0.0
H1133 H 0.85088 0.48027 0.5618 0.0
H1134 H 0.93873 0.48728 0.7052 0.0
H1135 H 0.90518 0.48981 0.67933 0.0
loop_
_geom_bond_atom_site_label_1
_geom_bond_atom_site_label_2
_geom_bond_distance
_geom_bond_site_symmetry_2
_ccdc_geom_bond_type
P0 O11 1.490 . S
P0 C14 1.812 . S
P0 C20 1.803 . S
P0 C26 1.819 . S
H1 C15 0.941 . S
H2 C16 0.939 . S
H3 C18 0.940 . S
H4 C19 0.940 . S
H5 C21 0.939 . S
H6 C22 0.942 . S
H7 C24 0.940 . S
H8 C25 0.939 . S
H9 C27 0.941 . S
H10 C31 0.939 . S
O11 P0 1.490 . S
H12 C28 0.939 . S
H13 C30 0.940 . S
C14 P0 1.812 . S
C14 C15 1.389 . S
C14 C19 1.391 . S
C15 H1 0.941 . S
C15 C14 1.389 . S
C15 C16 1.397 . S
C16 H2 0.939 . S
C16 C15 1.397 . S
C16 C17 1.378 . S
C17 C16 1.378 . S
C17 C18 1.378 . S
C18 H3 0.940 . S
C18 C17 1.378 . S
C18 C19 1.396 . S
C19 H4 0.940 . S
C19 C14 1.391 . S
C19 C18 1.396 . S
C20 P0 1.803 . S
C20 C21 1.378 . S
C20 C25 1.400 . S
C21 H5 0.939 . S
C21 C20 1.378 . S
C21 C22 1.361 . S
C22 H6 0.942 . S
C22 C21 1.361 . S
C22 C23 1.369 . S
C23 C22 1.369 . S
C23 C24 1.404 . S
C24 H7 0.940 . S
C24 C23 1.404 . S
C24 C25 1.389 . S
C25 H8 0.939 . S
C25 C20 1.400 . S
C25 C24 1.389 . S
C26 P0 1.819 . S
C26 C27 1.391 . S
C26 C31 1.391 . S
C27 H9 0.941 . S
C27 C26 1.391 . S
C27 C28 1.396 . S
C28 H12 0.939 . S
C28 C27 1.396 . S
C28 C29 1.397 . S
C29 C28 1.397 . S
C29 C30 1.385 . S
C30 H13 0.940 . S
C30 C29 1.385 . S
C30 C31 1.388 . S
C31 H10 0.939 . S
C31 C26 1.391 . S
C31 C30 1.388 . S
P32 O43 1.490 . S
P32 C46 1.812 . S
P32 C52 1.803 . S
P32 C58 1.819 . S
H33 C47 0.941 . S
H34 C48 0.939 . S
H35 C50 0.940 . S
H36 C51 0.940 . S
H37 C53 0.939 . S
H38 C54 0.942 . S
H39 C56 0.940 . S
H40 C57 0.939 . S
H41 C59 0.941 . S
H42 C63 0.939 1_655 S
O43 P32 1.490 . S
H44 C60 0.939 . S
H45 C62 0.940 . S
C46 P32 1.812 . S
C46 C47 1.389 . S
C46 C51 1.391 1_455 S
C47 H33 0.941 . S
C47 C46 1.389 . S
C47 C48 1.397 . S
C48 H34 0.939 . S
C48 C47 1.397 . S
C48 C49 1.378 . S
C49 C48 1.378 . S
C49 C50 1.378 1_455 S
C50 H35 0.940 . S
C50 C49 1.378 1_655 S
C50 C51 1.396 . S
C51 H36 0.940 . S
C51 C46 1.391 1_655 S
C51 C50 1.396 . S
C52 P32 1.803 . S
C52 C53 1.378 . S
C52 C57 1.400 1_455 S
C53 H37 0.939 . S
C53 C52 1.378 . S
C53 C54 1.361 . S
C54 H38 0.942 . S
C54 C53 1.361 . S
C54 C55 1.369 . S
C55 C54 1.369 . S
C55 C56 1.404 1_455 S
C56 H39 0.940 . S
C56 C55 1.404 1_655 S
C56 C57 1.389 . S
C57 H40 0.939 . S
C57 C52 1.400 1_655 S
C57 C56 1.389 . S
C58 P32 1.819 . S
C58 C59 1.391 . S
C58 C63 1.391 . S
C59 H41 0.941 . S
C59 C58 1.391 . S
C59 C60 1.396 . S
C60 H44 0.939 . S
C60 C59 1.396 . S
C60 C61 1.397 . S
C61 C60 1.397 . S
C61 C62 1.385 1_455 S
C62 H45 0.940 . S
C62 C61 1.385 1_655 S
C62 C63 1.388 1_655 S
C63 H42 0.939 1_455 S
C63 C58 1.391 . S
C63 C62 1.388 1_455 S
P64 O75 1.490 . S
P64 C78 1.812 . S
P64 C84 1.803 . S
P64 C90 1.819 . S
H65 C79 0.941 . S
H66 C80 0.939 . S
H67 C82 0.940 . S
H68 C83 0.967 . S
H69 C85 0.939 . S
H70 C86 0.942 . S
H71 C88 0.940 . S
H72 C89 0.977 . S
H73 C91 0.941 . S
H74 C95 0.920 1_565 S
O75 P64 1.490 . S
H76 C92 0.939 . S
H77 C94 0.940 . S
C78 P64 1.812 . S
C78 C79 1.389 . S
C78 C83 1.349 1_545 S
C79 H65 0.941 . S
C79 C78 1.389 . S
C79 C80 1.397 . S
C80 H66 0.939 . S
C80 C79 1.397 . S
C80 C81 1.378 . S
C81 C80 1.378 . S
C81 C82 1.378 1_545 S
C82 H67 0.940 . S
C82 C81 1.378 1_565 S
C82 C83 1.413 . S
C83 H68 0.967 . S
C83 C78 1.349 1_565 S
C83 C82 1.413 . S
C84 P64 1.803 . S
C84 C85 1.378 . S
C84 C89 1.341 1_545 S
C85 H69 0.939 . S
C85 C84 1.378 . S
C85 C86 1.361 . S
C86 H70 0.942 . S
C86 C85 1.361 . S
C86 C87 1.369 . S
C87 C86 1.369 . S
C87 C88 1.404 1_545 S
C88 H71 0.940 . S
C88 C87 1.404 1_565 S
C88 C89 1.413 . S
C89 H72 0.977 . S
C89 C84 1.341 1_565 S
C89 C88 1.413 . S
C90 P64 1.819 . S
C90 C91 1.391 . S
C90 C95 1.391 . S
C91 H73 0.941 . S
C91 C90 1.391 . S
C91 C92 1.396 . S
C92 H76 0.939 . S
C92 C91 1.396 . S
C92 C93 1.397 . S
C93 C92 1.397 . S
C93 C94 1.385 1_545 S
C94 H77 0.940 . S
C94 C93 1.385 1_565 S
C94 C95 1.388 1_565 S
C95 H74 0.920 1_545 S
C95 C90 1.391 . S
C95 C94 1.388 1_545 S
P96 O107 1.490 . S
P96 C110 1.812 . S
P96 C116 1.803 . S
P96 C122 1.819 . S
H97 C111 0.941 . S
H98 C112 0.939 . S
H99 C114 0.940 . S
H100 C115 0.940 . S
H101 C117 0.939 . S
H102 C118 0.942 . S
H103 C120 0.940 . S
H104 C121 0.939 . S
H105 C123 0.941 . S
H106 C127 0.939 . S
O107 P96 1.490 . S
H108 C124 0.939 . S
H109 C126 0.940 . S
C110 P96 1.812 . S
C110 C111 1.389 . S
C110 C115 1.391 . S
C111 H97 0.941 . S
C111 C110 1.389 . S
C111 C112 1.397 . S
C112 H98 0.939 . S
C112 C111 1.397 . S
C112 C113 1.378 . S
C113 C112 1.378 . S
C113 C114 1.378 . S
C114 H99 0.940 . S
C114 C113 1.378 . S
C114 C115 1.396 . S
C115 H100 0.940 . S
C115 C110 1.391 . S
C115 C114 1.396 . S
C116 P96 1.803 . S
C116 C117 1.378 . S
C116 C121 1.400 . S
C117 H101 0.939 . S
C117 C116 1.378 . S
C117 C118 1.361 . S
C118 H102 0.942 . S
C118 C117 1.361 . S
C118 C119 1.369 . S
C119 C118 1.369 . S
C119 C120 1.404 . S
C120 H103 0.940 . S
C120 C119 1.404 . S
C120 C121 1.389 . S
C121 H104 0.939 . S
C121 C116 1.400 . S
C121 C120 1.389 . S
C122 P96 1.819 . S
C122 C123 1.391 . S
C122 C127 1.391 . S
C123 H105 0.941 . S
C123 C122 1.391 . S
C123 C124 1.396 . S
C124 H108 0.939 . S
C124 C123 1.396 . S
C124 C125 1.397 . S
C125 C124 1.397 . S
C125 C126 1.385 . S
C126 H109 0.940 . S
C126 C125 1.385 . S
C126 C127 1.388 . S
C127 H106 0.939 . S
C127 C122 1.391 . S
C127 C126 1.388 . S
P128 O139 1.490 . S
P128 C142 1.812 1_554 S
P128 C148 1.803 . S
P128 C154 1.819 . S
H129 C143 0.941 . S
H130 C144 0.939 . S
H131 C146 0.940 . S
H132 C147 0.940 . S
H133 C149 0.939 . S
H134 C150 0.942 . S
H135 C152 0.940 . S
H136 C153 0.939 . S
H137 C155 0.941 . S
H138 C159 0.939 . S
O139 P128 1.490 . S
H140 C156 0.939 . S
H141 C158 0.940 . S
C142 P128 1.812 1_556 S
C142 C143 1.389 . S
C142 C147 1.391 . S
C143 H129 0.941 . S
C143 C142 1.389 . S
C143 C144 1.397 . S
C144 H130 0.939 . S
C144 C143 1.397 . S
C144 C145 1.378 . S
C145 C144 1.378 . S
C145 C146 1.378 . S
C146 H131 0.940 . S
C146 C145 1.378 . S
C146 C147 1.396 . S
C147 H132 0.940 . S
C147 C142 1.391 . S
C147 C146 1.396 . S
C148 P128 1.803 . S
C148 C149 1.378 . S
C148 C153 1.400 . S
C149 H133 0.939 . S
C149 C148 1.378 . S
C149 C150 1.361 . S
C150 H134 0.942 . S
C150 C149 1.361 . S
C150 C151 1.369 . S
C151 C150 1.369 . S
C151 C152 1.404 . S
C152 H135 0.940 . S
C152 C151 1.404 . S
C152 C153 1.389 . S
C153 H136 0.939 . S
C153 C148 1.400 . S
C153 C152 1.389 . S
C154 P128 1.819 . S
C154 C155 1.391 . S
C154 C159 1.391 . S
C155 H137 0.941 . S
C155 C154 1.391 . S
C155 C156 1.396 . S
C156 H140 0.939 . S
C156 C155 1.396 . S
C156 C157 1.397 . S
C157 C156 1.397 . S
C157 C158 1.385 . S
C158 H141 0.940 . S
C158 C157 1.385 . S
C158 C159 1.388 . S
C159 H138 0.939 . S
C159 C154 1.391 . S
C159 C158 1.388 . S
P160 O171 1.490 . S
P160 C174 1.812 1_554 S
P160 C180 1.803 . S
P160 C186 1.819 . S
H161 C175 0.941 . S
H162 C176 0.939 . S
H163 C178 0.940 . S
H164 C179 0.915 1_655 S
H165 C181 0.939 . S
H166 C182 0.942 . S
H167 C184 0.940 . S
H168 C185 0.922 1_655 S
H169 C187 0.941 . S
H170 C191 0.952 . S
O171 P160 1.490 . S
H172 C188 0.939 . S
H173 C190 0.940 . S
C174 P160 1.812 1_556 S
C174 C175 1.389 . S
C174 C179 1.433 . S
C175 H161 0.941 . S
C175 C174 1.389 . S
C175 C176 1.397 . S
C176 H162 0.939 . S
C176 C175 1.397 . S
C176 C177 1.378 . S
C177 C176 1.378 . S
C177 C178 1.378 1_455 S
C178 H163 0.940 . S
C178 C177 1.378 1_655 S
C178 C179 1.382 1_655 S
C179 H164 0.915 1_455 S
C179 C174 1.433 . S
C179 C178 1.382 1_455 S
C180 P160 1.803 . S
C180 C181 1.378 . S
C180 C185 1.428 . S
C181 H165 0.939 . S
C181 C180 1.378 . S
C181 C182 1.361 . S
C182 H166 0.942 . S
C182 C181 1.361 . S
C182 C183 1.369 . S
C183 C182 1.369 . S
C183 C184 1.404 1_455 S
C184 H167 0.940 . S
C184 C183 1.404 1_655 S
C184 C185 1.378 1_655 S
C185 H168 0.922 1_455 S
C185 C180 1.428 . S
C185 C184 1.378 1_455 S
C186 P160 1.819 . S
C186 C187 1.391 . S
C186 C191 1.391 . S
C187 H169 0.941 . S
C187 C186 1.391 . S
C187 C188 1.396 . S
C188 H172 0.939 . S
C188 C187 1.396 . S
C188 C189 1.397 . S
C189 C188 1.397 . S
C189 C190 1.385 1_455 S
C190 H173 0.940 . S
C190 C189 1.385 1_655 S
C190 C191 1.388 1_655 S
C191 H170 0.952 . S
C191 C186 1.391 . S
C191 C190 1.388 1_455 S
P192 O203 1.490 . S
P192 C206 1.812 1_554 S
P192 C212 1.803 . S
P192 C218 1.819 . S
H193 C207 0.941 . S
H194 C208 0.939 . S
H195 C210 0.940 . S
H196 C211 0.928 1_565 S
H197 C213 0.939 . S
H198 C214 0.942 . S
H199 C216 0.940 . S
H200 C217 0.936 1_565 S
H201 C219 0.941 . S
H202 C223 0.943 . S
O203 P192 1.490 . S
H204 C220 0.939 . S
H205 C222 0.940 . S
C206 P192 1.812 1_556 S
C206 C207 1.389 . S
C206 C211 1.411 . S
C207 H193 0.941 . S
C207 C206 1.389 . S
C207 C208 1.397 . S
C208 H194 0.939 . S
C208 C207 1.397 . S
C208 C209 1.378 . S
C209 C208 1.378 . S
C209 C210 1.378 1_545 S
C210 H195 0.940 . S
C210 C209 1.378 1_565 S
C210 C211 1.389 1_565 S
C211 H196 0.928 1_545 S
C211 C206 1.411 . S
C211 C210 1.389 1_545 S
C212 P192 1.803 . S
C212 C213 1.378 . S
C212 C217 1.405 . S
C213 H197 0.939 . S
C213 C212 1.378 . S
C213 C214 1.361 . S
C214 H198 0.942 . S
C214 C213 1.361 . S
C214 C215 1.369 . S
C215 C214 1.369 . S
C215 C216 1.404 1_545 S
C216 H199 0.940 . S
C216 C215 1.404 1_565 S
C216 C217 1.387 1_565 S
C217 H200 0.936 1_545 S
C217 C212 1.405 . S
C217 C216 1.387 1_545 S
C218 P192 1.819 . S
C218 C219 1.391 . S
C218 C223 1.391 . S
C219 H201 0.941 . S
C219 C218 1.391 . S
C219 C220 1.396 . S
C220 H204 0.939 . S
C220 C219 1.396 . S
C220 C221 1.397 . S
C221 C220 1.397 . S
C221 C222 1.385 1_545 S
C222 H205 0.940 . S
C222 C221 1.385 1_565 S
C222 C223 1.388 1_565 S
C223 H202 0.943 . S
C223 C218 1.391 . S
C223 C222 1.388 1_545 S
P224 O235 1.490 . S
P224 C238 1.812 1_554 S
P224 C244 1.803 . S
P224 C250 1.819 . S
H225 C239 0.941 . S
H226 C240 0.939 . S
H227 C242 0.940 . S
H228 C243 0.940 . S
H229 C245 0.939 . S
H230 C246 0.942 . S
H231 C248 0.940 . S
H232 C249 0.939 . S
H233 C251 0.941 . S
H234 C255 0.939 . S
O235 P224 1.490 . S
H236 C252 0.939 . S
H237 C254 0.940 . S
C238 P224 1.812 1_556 S
C238 C239 1.389 . S
C238 C243 1.391 . S
C239 H225 0.941 . S
C239 C238 1.389 . S
C239 C240 1.397 . S
C240 H226 0.939 . S
C240 C239 1.397 . S
C240 C241 1.378 . S
C241 C240 1.378 . S
C241 C242 1.378 . S
C242 H227 0.940 . S
C242 C241 1.378 . S
C242 C243 1.396 . S
C243 H228 0.940 . S
C243 C238 1.391 . S
C243 C242 1.396 . S
C244 P224 1.803 . S
C244 C245 1.378 . S
C244 C249 1.400 . S
C245 H229 0.939 . S
C245 C244 1.378 . S
C245 C246 1.361 . S
C246 H230 0.942 . S
C246 C245 1.361 . S
C246 C247 1.369 . S
C247 C246 1.369 . S
C247 C248 1.404 . S
C248 H231 0.940 . S
C248 C247 1.404 . S
C248 C249 1.389 . S
C249 H232 0.939 . S
C249 C244 1.400 . S
C249 C248 1.389 . S
C250 P224 1.819 . S
C250 C251 1.391 . S
C250 C255 1.391 . S
C251 H233 0.941 . S
C251 C250 1.391 . S
C251 C252 1.396 . S
C252 H236 0.939 . S
C252 C251 1.396 . S
C252 C253 1.397 . S
C253 C252 1.397 . S
C253 C254 1.385 . S
C254 H237 0.940 . S
C254 C253 1.385 . S
C254 C255 1.388 . S
C255 H234 0.939 . S
C255 C250 1.391 . S
C255 C254 1.388 . S
Sm256 C258 2.846 . S
Sm256 O276 2.543 . S
Sm256 O277 2.450 . S
Sm256 O278 2.681 1_565 S
Sm256 O279 2.464 . S
Sm256 O280 2.396 . S
Sm256 O284 2.386 1_455 S
Sm256 O287 2.408 1_565 S
Sm257 C267 2.846 . S
Sm257 O278 2.386 1_655 S
Sm257 O281 2.408 1_545 S
Sm257 O282 2.543 . S
Sm257 O283 2.450 . S
Sm257 O284 2.681 1_545 S
Sm257 O285 2.464 . S
Sm257 O286 2.396 . S
C258 Sm256 2.846 . S
C258 C259 1.506 . S
C258 O276 1.261 . S
C258 O277 1.242 . S
C259 C258 1.506 . S
C259 C260 1.358 . S
C259 C264 1.382 . S
C260 C259 1.358 . S
C260 C261 1.385 . S
C260 H288 0.930 1_455 S
C261 C260 1.385 . S
C261 C262 1.395 . S
C261 H289 0.929 1_455 S
C262 C261 1.395 . S
C262 C263 1.335 . S
C263 C262 1.335 . S
C263 C264 1.398 . S
C263 H290 0.930 . S
C264 C259 1.382 . S
C264 C263 1.398 . S
C264 H291 0.929 . S
C265 O278 1.256 1_565 S
C265 O279 1.278 . S
C266 O280 1.252 1_655 S
C266 O281 1.272 . S
C267 Sm257 2.846 . S
C267 C268 1.506 . S
C267 O282 1.261 . S
C267 O283 1.242 . S
C268 C267 1.506 . S
C268 C269 1.358 . S
C268 C273 1.382 . S
C269 C268 1.358 . S
C269 C270 1.385 . S
C269 H292 0.930 1_655 S
C270 C269 1.385 . S
C270 C271 1.395 . S
C270 H293 0.929 1_655 S
C271 C270 1.395 . S
C271 C272 1.335 . S
C272 C271 1.335 . S
C272 C273 1.398 . S
C272 H294 0.930 . S
C273 C268 1.382 . S
C273 C272 1.398 . S
C273 H295 0.929 . S
C274 O284 1.271 1_545 S
C274 O285 1.251 . S
C275 O286 1.252 1_455 S
C275 O287 1.272 . S
O276 Sm256 2.543 . S
O276 C258 1.261 . S
O277 Sm256 2.450 . S
O277 C258 1.242 . S
O278 Sm256 2.681 1_545 S
O278 Sm257 2.386 1_455 S
O278 C265 1.256 1_545 S
O279 Sm256 2.464 . S
O279 C265 1.278 . S
O280 Sm256 2.396 . S
O280 C266 1.252 1_455 S
O281 Sm257 2.408 1_565 S
O281 C266 1.272 . S
O282 Sm257 2.543 . S
O282 C267 1.261 . S
O283 Sm257 2.450 . S
O283 C267 1.242 . S
O284 Sm256 2.386 1_655 S
O284 Sm257 2.681 1_565 S
O284 C274 1.271 1_565 S
O285 Sm257 2.464 . S
O285 C274 1.251 . S
O286 Sm257 2.396 . S
O286 C275 1.252 1_655 S
O287 Sm256 2.408 1_545 S
O287 C275 1.272 . S
H288 C260 0.930 1_655 S
H289 C261 0.929 1_655 S
H290 C263 0.930 . S
H291 C264 0.929 . S
H292 C269 0.930 1_455 S
H293 C270 0.929 1_455 S
H294 C272 0.930 . S
H295 C273 0.929 . S
Sm296 C298 2.846 . S
Sm296 O316 2.543 . S
Sm296 O317 2.450 . S
Sm296 O318 2.681 . S
Sm296 O319 2.464 . S
Sm296 O320 2.396 . S
Sm296 O324 2.386 1_545 S
Sm296 O327 2.408 . S
Sm297 C307 2.846 . S
Sm297 O318 2.386 1_565 S
Sm297 O321 2.408 . S
Sm297 O322 2.543 . S
Sm297 O323 2.450 . S
Sm297 O324 2.681 . S
Sm297 O325 2.464 . S
Sm297 O326 2.396 . S
C298 Sm296 2.846 . S
C298 C299 1.506 . S
C298 O316 1.261 . S
C298 O317 1.242 . S
C299 C298 1.506 . S
C299 C300 1.358 . S
C299 C304 1.382 . S
C300 C299 1.358 . S
C300 C301 1.385 . S
C300 H328 0.930 1_545 S
C301 C300 1.385 . S
C301 C302 1.395 . S
C301 H329 0.929 1_545 S
C302 C301 1.395 . S
C302 C303 1.335 . S
C303 C302 1.335 . S
C303 C304 1.398 . S
C303 H330 0.930 . S
C304 C299 1.382 . S
C304 C303 1.398 . S
C304 H331 0.929 . S
C305 O318 1.271 . S
C305 O319 1.251 . S
C306 O320 1.252 1_565 S
C306 O321 1.272 . S
C307 Sm297 2.846 . S
C307 C308 1.506 . S
C307 O322 1.261 . S
C307 O323 1.242 . S
C308 C307 1.506 . S
C308 C309 1.358 . S
C308 C313 1.382 . S
C309 C308 1.358 . S
C309 C310 1.385 . S
C309 H332 0.930 1_565 S
C310 C309 1.385 . S
C310 C311 1.395 . S
C310 H333 0.929 1_565 S
C311 C310 1.395 . S
C311 C312 1.335 . S
C312 C311 1.335 . S
C312 C313 1.398 . S
C312 H334 0.930 . S
C313 C308 1.382 . S
C313 C312 1.398 . S
C313 H335 0.929 . S
C314 O324 1.271 . S
C314 O325 1.251 . S
C315 O326 1.252 1_545 S
C315 O327 1.272 . S
O316 Sm296 2.543 . S
O316 C298 1.261 . S
O317 Sm296 2.450 . S
O317 C298 1.242 . S
O318 Sm296 2.681 . S
O318 Sm297 2.386 1_545 S
O318 C305 1.271 . S
O319 Sm296 2.464 . S
O319 C305 1.251 . S
O320 Sm296 2.396 . S
O320 C306 1.252 1_545 S
O321 Sm297 2.408 . S
O321 C306 1.272 . S
O322 Sm297 2.543 . S
O322 C307 1.261 . S
O323 Sm297 2.450 . S
O323 C307 1.242 . S
O324 Sm296 2.386 1_565 S
O324 Sm297 2.681 . S
O324 C314 1.271 . S
O325 Sm297 2.464 . S
O325 C314 1.251 . S
O326 Sm297 2.396 . S
O326 C315 1.252 1_565 S
O327 Sm296 2.408 . S
O327 C315 1.272 . S
H328 C300 0.930 1_565 S
H329 C301 0.929 1_565 S
H330 C303 0.930 . S
H331 C304 0.929 . S
H332 C309 0.930 1_545 S
H333 C310 0.929 1_545 S
H334 C312 0.930 . S
H335 C313 0.929 . S
Sm336 C338 2.846 . S
Sm336 O356 2.543 . S
Sm336 O357 2.450 . S
Sm336 O358 2.681 . S
Sm336 O359 2.464 . S
Sm336 O360 2.396 . S
Sm336 O364 2.386 . S
Sm336 O367 2.408 . S
Sm337 C347 2.846 . S
Sm337 O358 2.386 . S
Sm337 O361 2.408 . S
Sm337 O362 2.543 . S
Sm337 O363 2.450 . S
Sm337 O364 2.681 . S
Sm337 O365 2.464 . S
Sm337 O366 2.396 . S
C338 Sm336 2.846 . S
C338 C339 1.506 . S
C338 O356 1.261 . S
C338 O357 1.242 . S
C339 C338 1.506 . S
C339 C340 1.358 . S
C339 C344 1.382 . S
C340 C339 1.358 . S
C340 C341 1.385 . S
C340 H368 0.930 . S
C341 C340 1.385 . S
C341 C342 1.395 . S
C341 H369 0.929 . S
C342 C341 1.395 . S
C342 C343 1.335 . S
C343 C342 1.335 . S
C343 C344 1.398 . S
C343 H370 0.930 . S
C344 C339 1.382 . S
C344 C343 1.398 . S
C344 H371 0.929 . S
C345 O358 1.271 . S
C345 O359 1.251 . S
C346 O360 1.252 . S
C346 O361 1.272 . S
C347 Sm337 2.846 . S
C347 C348 1.506 . S
C347 O362 1.261 . S
C347 O363 1.242 . S
C348 C347 1.506 . S
C348 C349 1.358 . S
C348 C353 1.382 . S
C349 C348 1.358 . S
C349 C350 1.385 . S
C349 H372 0.930 . S
C350 C349 1.385 . S
C350 C351 1.395 . S
C350 H373 0.929 . S
C351 C350 1.395 . S
C351 C352 1.335 . S
C352 C351 1.335 . S
C352 C353 1.398 . S
C352 H374 0.930 . S
C353 C348 1.382 . S
C353 C352 1.398 . S
C353 H375 0.929 . S
C354 O364 1.271 . S
C354 O365 1.251 . S
C355 O366 1.252 . S
C355 O367 1.272 . S
O356 Sm336 2.543 . S
O356 C338 1.261 . S
O357 Sm336 2.450 . S
O357 C338 1.242 . S
O358 Sm336 2.681 . S
O358 Sm337 2.386 . S
O358 C345 1.271 . S
O359 Sm336 2.464 . S
O359 C345 1.251 . S
O360 Sm336 2.396 . S
O360 C346 1.252 . S
O361 Sm337 2.408 . S
O361 C346 1.272 . S
O362 Sm337 2.543 . S
O362 C347 1.261 . S
O363 Sm337 2.450 . S
O363 C347 1.242 . S
O364 Sm336 2.386 . S
O364 Sm337 2.681 . S
O364 C354 1.271 . S
O365 Sm337 2.464 . S
O365 C354 1.251 . S
O366 Sm337 2.396 . S
O366 C355 1.252 . S
O367 Sm336 2.408 . S
O367 C355 1.272 . S
H368 C340 0.930 . S
H369 C341 0.929 . S
H370 C343 0.930 . S
H371 C344 0.929 . S
H372 C349 0.930 . S
H373 C350 0.929 . S
H374 C352 0.930 . S
H375 C353 0.929 . S
Sm376 C378 2.846 . S
Sm376 O396 2.543 . S
Sm376 O397 2.450 . S
Sm376 O398 2.681 1_655 S
Sm376 O399 2.464 . S
Sm376 O400 2.396 . S
Sm376 O404 2.386 . S
Sm376 O407 2.408 1_655 S
Sm377 C387 2.846 . S
Sm377 O398 2.386 . S
Sm377 O401 2.408 1_455 S
Sm377 O402 2.543 . S
Sm377 O403 2.450 . S
Sm377 O404 2.681 1_455 S
Sm377 O405 2.464 . S
Sm377 O406 2.396 . S
C378 Sm376 2.846 . S
C378 C379 1.506 . S
C378 O396 1.261 . S
C378 O397 1.242 . S
C379 C378 1.506 . S
C379 C380 1.358 . S
C379 C384 1.382 . S
C380 C379 1.358 . S
C380 C381 1.385 . S
C380 H408 0.930 . S
C381 C380 1.385 . S
C381 C382 1.395 . S
C381 H409 0.929 . S
C382 C381 1.395 . S
C382 C383 1.335 . S
C383 C382 1.335 . S
C383 C384 1.398 . S
C383 H410 0.930 . S
C384 C379 1.382 . S
C384 C383 1.398 . S
C384 H411 0.929 . S
C385 O398 1.257 1_655 S
C385 O399 1.276 . S
C386 O400 1.252 . S
C386 O401 1.272 . S
C387 Sm377 2.846 . S
C387 C388 1.506 . S
C387 O402 1.261 . S
C387 O403 1.242 . S
C388 C387 1.506 . S
C388 C389 1.358 . S
C388 C393 1.382 . S
C389 C388 1.358 . S
C389 C390 1.385 . S
C389 H412 0.930 . S
C390 C389 1.385 . S
C390 C391 1.395 . S
C390 H413 0.929 . S
C391 C390 1.395 . S
C391 C392 1.335 . S
C392 C391 1.335 . S
C392 C393 1.398 . S
C392 H414 0.930 . S
C393 C388 1.382 . S
C393 C392 1.398 . S
C393 H415 0.929 . S
C394 O404 1.253 1_455 S
C394 O405 1.284 . S
C395 O406 1.252 . S
C395 O407 1.272 . S
O396 Sm376 2.543 . S
O396 C378 1.261 . S
O397 Sm376 2.450 . S
O397 C378 1.242 . S
O398 Sm376 2.681 1_455 S
O398 Sm377 2.386 . S
O398 C385 1.257 1_455 S
O399 Sm376 2.464 . S
O399 C385 1.276 . S
O400 Sm376 2.396 . S
O400 C386 1.252 . S
O401 Sm377 2.408 1_655 S
O401 C386 1.272 . S
O402 Sm377 2.543 . S
O402 C387 1.261 . S
O403 Sm377 2.450 . S
O403 C387 1.242 . S
O404 Sm376 2.386 . S
O404 Sm377 2.681 1_655 S
O404 C394 1.253 1_655 S
O405 Sm377 2.464 . S
O405 C394 1.284 . S
O406 Sm377 2.396 . S
O406 C395 1.252 . S
O407 Sm376 2.408 1_455 S
O407 C395 1.272 . S
H408 C380 0.930 . S
H409 C381 0.929 . S
H410 C383 0.930 . S
H411 C384 0.929 . S
H412 C389 0.930 . S
H413 C390 0.929 . S
H414 C392 0.930 . S
H415 C393 0.929 . S
C416 C417 1.317 1_565 S
C416 C418 1.327 . S
C416 H441 0.950 . S
C417 C416 1.317 1_545 S
C417 C433 1.382 . S
C418 C416 1.327 . S
C418 C437 1.391 1_565 S
C418 H442 0.950 . S
C419 C436 1.574 . S
C419 C438 1.415 . S
C419 H443 0.949 . S
H420 C424 0.949 . S
C421 C422 1.349 . S
C421 C423 1.327 . S
C421 H444 0.950 . S
C422 C421 1.349 . S
C422 C434 1.349 1_545 S
C423 C421 1.327 . S
C423 C439 1.429 . S
C423 H445 0.950 . S
C424 H420 0.949 . S
C424 C432 1.574 . S
C424 C440 1.368 1_565 S
H425 C433 0.950 . S
H426 C431 0.950 . S
H427 C432 0.949 . S
H428 C434 0.950 . S
H429 C435 0.950 . S
H430 C436 0.949 . S
C431 H426 0.950 . S
C431 C433 1.327 . S
C431 C437 1.467 . S
C432 C424 1.574 . S
C432 H427 0.949 . S
C432 C438 1.323 1_565 S
C433 C417 1.382 . S
C433 H425 0.950 . S
C433 C431 1.327 . S
C434 C422 1.349 1_565 S
C434 H428 0.950 . S
C434 C435 1.327 . S
C435 H429 0.950 . S
C435 C434 1.327 . S
C435 C439 1.429 1_565 S
C436 C419 1.574 . S
C436 H430 0.949 . S
C436 C440 1.368 . S
C437 C418 1.391 1_545 S
C437 C431 1.467 . S
C437 C438 1.523 . S
C438 C419 1.415 . S
C438 C432 1.323 1_545 S
C438 C437 1.523 . S
C439 C423 1.429 . S
C439 C435 1.429 1_545 S
C439 C440 1.523 . S
C440 C424 1.368 1_545 S
C440 C436 1.368 . S
C440 C439 1.523 . S
H441 C416 0.950 . S
H442 C418 0.950 . S
H443 C419 0.949 . S
H444 C421 0.950 . S
H445 C423 0.950 . S
C446 C447 1.349 . S
C446 C448 1.327 . S
C446 H471 0.950 . S
C447 C446 1.349 . S
C447 C463 1.349 . S
C448 C446 1.327 . S
C448 C467 1.429 . S
C448 H472 0.950 . S
C449 C466 1.574 . S
C449 C468 1.368 . S
C449 H473 0.949 . S
H450 C454 0.949 . S
C451 C452 1.349 . S
C451 C453 1.327 . S
C451 H474 0.950 . S
C452 C451 1.349 . S
C452 C464 1.349 . S
C453 C451 1.327 . S
C453 C469 1.429 . S
C453 H475 0.950 . S
C454 H450 0.949 . S
C454 C462 1.574 . S
C454 C470 1.368 . S
H455 C463 0.950 . S
H456 C461 0.950 . S
H457 C462 0.949 . S
H458 C464 0.950 . S
H459 C465 0.950 . S
H460 C466 0.949 . S
C461 H456 0.950 . S
C461 C463 1.327 . S
C461 C467 1.429 . S
C462 C454 1.574 . S
C462 H457 0.949 . S
C462 C468 1.368 . S
C463 C447 1.349 . S
C463 H455 0.950 . S
C463 C461 1.327 . S
C464 C452 1.349 . S
C464 H458 0.950 . S
C464 C465 1.327 . S
C465 H459 0.950 . S
C465 C464 1.327 . S
C465 C469 1.429 . S
C466 C449 1.574 . S
C466 H460 0.949 . S
C466 C470 1.368 . S
C467 C448 1.429 . S
C467 C461 1.429 . S
C467 C468 1.523 . S
C468 C449 1.368 . S
C468 C462 1.368 . S
C468 C467 1.523 . S
C469 C453 1.429 . S
C469 C465 1.429 . S
C469 C470 1.523 . S
C470 C454 1.368 . S
C470 C466 1.368 . S
C470 C469 1.523 . S
H471 C446 0.950 . S
H472 C448 0.950 . S
H473 C449 0.949 . S
H474 C451 0.950 . S
H475 C453 0.950 . S
C476 C477 1.349 . S
C476 C478 1.327 . S
C476 H501 0.950 . S
C477 C476 1.349 . S
C477 C493 1.349 . S
C478 C476 1.327 . S
C478 C497 1.429 . S
C478 H502 0.950 . S
C479 C496 1.574 . S
C479 C498 1.368 . S
C479 H503 0.949 . S
H480 C484 0.949 . S
C481 C482 1.349 . S
C481 C483 1.327 . S
C481 H504 0.950 . S
C482 C481 1.349 . S
C482 C494 1.349 . S
C483 C481 1.327 . S
C483 C499 1.429 . S
C483 H505 0.950 . S
C484 H480 0.949 . S
C484 C492 1.574 . S
C484 C500 1.368 . S
H485 C493 0.950 . S
H486 C491 0.950 . S
H487 C492 0.949 . S
H488 C494 0.950 . S
H489 C495 0.950 . S
H490 C496 0.949 . S
C491 H486 0.950 . S
C491 C493 1.327 . S
C491 C497 1.429 . S
C492 C484 1.574 . S
C492 H487 0.949 . S
C492 C498 1.368 . S
C493 C477 1.349 . S
C493 H485 0.950 . S
C493 C491 1.327 . S
C494 C482 1.349 . S
C494 H488 0.950 . S
C494 C495 1.327 . S
C495 H489 0.950 . S
C495 C494 1.327 . S
C495 C499 1.429 . S
C496 C479 1.574 . S
C496 H490 0.949 . S
C496 C500 1.368 . S
C497 C478 1.429 . S
C497 C491 1.429 . S
C497 C498 1.523 . S
C498 C479 1.368 . S
C498 C492 1.368 . S
C498 C497 1.523 . S
C499 C483 1.429 . S
C499 C495 1.429 . S
C499 C500 1.523 . S
C500 C484 1.368 . S
C500 C496 1.368 . S
C500 C499 1.523 . S
H501 C476 0.950 . S
H502 C478 0.950 . S
H503 C479 0.949 . S
H504 C481 0.950 . S
H505 C483 0.950 . S
C506 C507 1.349 1_655 S
C506 C508 1.327 . S
C506 H531 0.950 . S
C507 C506 1.349 1_455 S
C507 C523 1.349 . S
C508 C506 1.327 . S
C508 C527 1.429 1_655 S
C508 H532 0.950 . S
C509 C526 1.574 . S
C509 C528 1.368 . S
C509 H533 0.949 . S
H510 C514 0.949 . S
C511 C512 1.349 . S
C511 C513 1.327 . S
C511 H534 0.950 . S
C512 C511 1.349 . S
C512 C524 1.349 1_455 S
C513 C511 1.327 . S
C513 C529 1.429 . S
C513 H535 0.950 . S
C514 H510 0.949 . S
C514 C522 1.574 . S
C514 C530 1.368 1_655 S
H515 C523 0.950 . S
H516 C521 0.950 . S
H517 C522 0.949 . S
H518 C524 0.950 . S
H519 C525 0.950 . S
H520 C526 0.949 . S
C521 H516 0.950 . S
C521 C523 1.327 . S
C521 C527 1.429 . S
C522 C514 1.574 . S
C522 H517 0.949 . S
C522 C528 1.368 1_655 S
C523 C507 1.349 . S
C523 H515 0.950 . S
C523 C521 1.327 . S
C524 C512 1.349 1_655 S
C524 H518 0.950 . S
C524 C525 1.327 . S
C525 H519 0.950 . S
C525 C524 1.327 . S
C525 C529 1.429 1_655 S
C526 C509 1.574 . S
C526 H520 0.949 . S
C526 C530 1.368 . S
C527 C508 1.429 1_455 S
C527 C521 1.429 . S
C527 C528 1.523 . S
C528 C509 1.368 . S
C528 C522 1.368 1_455 S
C528 C527 1.523 . S
C529 C513 1.429 . S
C529 C525 1.429 1_455 S
C529 C530 1.523 . S
C530 C514 1.368 1_455 S
C530 C526 1.368 . S
C530 C529 1.523 . S
H531 C506 0.950 . S
H532 C508 0.950 . S
H533 C509 0.949 . S
H534 C511 0.950 . S
H535 C513 0.950 . S
C536 C537 1.326 1_545 S
C536 C538 1.327 . S
C536 H561 0.950 . S
C537 C536 1.326 1_565 S
C537 C553 1.372 . S
C538 C536 1.327 . S
C538 C557 1.400 1_545 S
C538 H562 0.950 . S
C539 C556 1.574 1_554 S
C539 C558 1.404 . S
C539 H563 0.949 . S
H540 C544 0.949 . S
C541 C542 1.349 . S
C541 C543 1.327 . S
C541 H564 0.950 . S
C542 C541 1.349 . S
C542 C554 1.349 1_565 S
C543 C541 1.327 . S
C543 C559 1.471 . S
C543 H565 0.950 . S
C544 H540 0.949 . S
C544 C552 1.574 1_556 S
C544 C560 1.326 1_545 S
H545 C553 0.950 . S
H546 C551 0.950 . S
H547 C552 0.949 . S
H548 C554 0.950 . S
H549 C555 0.950 . S
H550 C556 0.949 . S
C551 H546 0.950 . S
C551 C553 1.327 . S
C551 C557 1.457 . S
C552 C544 1.574 1_554 S
C552 H547 0.949 . S
C552 C558 1.333 1_545 S
C553 C537 1.372 . S
C553 H545 0.950 . S
C553 C551 1.327 . S
C554 C542 1.349 1_545 S
C554 H548 0.950 . S
C554 C555 1.327 . S
C555 H549 0.950 . S
C555 C554 1.327 . S
C555 C559 1.387 1_545 S
C556 C539 1.574 1_556 S
C556 H550 0.949 . S
C556 C560 1.411 . S
C557 C538 1.400 1_565 S
C557 C551 1.457 . S
C557 C558 1.523 . S
C558 C539 1.404 . S
C558 C552 1.333 1_565 S
C558 C557 1.523 . S
C559 C543 1.471 . S
C559 C555 1.387 1_565 S
C559 C560 1.523 . S
C560 C544 1.326 1_565 S
C560 C556 1.411 . S
C560 C559 1.523 . S
H561 C536 0.950 . S
H562 C538 0.950 . S
H563 C539 0.949 . S
H564 C541 0.950 . S
H565 C543 0.950 . S
C566 C567 1.349 . S
C566 C568 1.327 . S
C566 H591 0.950 . S
C567 C566 1.349 . S
C567 C583 1.349 . S
C568 C566 1.327 . S
C568 C587 1.429 . S
C568 H592 0.950 . S
C569 C586 1.574 . S
C569 C588 1.368 . S
C569 H593 0.949 . S
H570 C574 0.949 . S
C571 C572 1.349 . S
C571 C573 1.327 . S
C571 H594 0.950 . S
C572 C571 1.349 . S
C572 C584 1.349 . S
C573 C571 1.327 . S
C573 C589 1.429 . S
C573 H595 0.950 . S
C574 H570 0.949 . S
C574 C582 1.574 . S
C574 C590 1.368 . S
H575 C583 0.950 . S
H576 C581 0.950 . S
H577 C582 0.949 . S
H578 C584 0.950 . S
H579 C585 0.950 . S
H580 C586 0.949 . S
C581 H576 0.950 . S
C581 C583 1.327 . S
C581 C587 1.429 . S
C582 C574 1.574 . S
C582 H577 0.949 . S
C582 C588 1.368 1_556 S
C583 C567 1.349 . S
C583 H575 0.950 . S
C583 C581 1.327 . S
C584 C572 1.349 . S
C584 H578 0.950 . S
C584 C585 1.327 . S
C585 H579 0.950 . S
C585 C584 1.327 . S
C585 C589 1.429 . S
C586 C569 1.574 . S
C586 H580 0.949 . S
C586 C590 1.368 1_554 S
C587 C568 1.429 . S
C587 C581 1.429 . S
C587 C588 1.523 . S
C588 C569 1.368 . S
C588 C582 1.368 1_554 S
C588 C587 1.523 . S
C589 C573 1.429 . S
C589 C585 1.429 . S
C589 C590 1.523 . S
C590 C574 1.368 . S
C590 C586 1.368 1_556 S
C590 C589 1.523 . S
H591 C566 0.950 . S
H592 C568 0.950 . S
H593 C569 0.949 . S
H594 C571 0.950 . S
H595 C573 0.950 . S
C596 C597 1.349 . S
C596 C598 1.327 . S
C596 H621 0.950 . S
C597 C596 1.349 . S
C597 C613 1.349 . S
C598 C596 1.327 . S
C598 C617 1.429 . S
C598 H622 0.950 . S
C599 C616 1.574 1_554 S
C599 C618 1.368 . S
C599 H623 0.949 . S
H600 C604 0.949 . S
C601 C602 1.349 . S
C601 C603 1.327 . S
C601 H624 0.950 . S
C602 C601 1.349 . S
C602 C614 1.349 . S
C603 C601 1.327 . S
C603 C619 1.429 . S
C603 H625 0.950 . S
C604 H600 0.949 . S
C604 C612 1.574 1_556 S
C604 C620 1.368 . S
H605 C613 0.950 . S
H606 C611 0.950 . S
H607 C612 0.949 . S
H608 C614 0.950 . S
H609 C615 0.950 . S
H610 C616 0.949 . S
C611 H606 0.950 . S
C611 C613 1.327 . S
C611 C617 1.429 . S
C612 C604 1.574 1_554 S
C612 H607 0.949 . S
C612 C618 1.368 . S
C613 C597 1.349 . S
C613 H605 0.950 . S
C613 C611 1.327 . S
C614 C602 1.349 . S
C614 H608 0.950 . S
C614 C615 1.327 . S
C615 H609 0.950 . S
C615 C614 1.327 . S
C615 C619 1.429 . S
C616 C599 1.574 1_556 S
C616 H610 0.949 . S
C616 C620 1.368 . S
C617 C598 1.429 . S
C617 C611 1.429 . S
C617 C618 1.523 . S
C618 C599 1.368 . S
C618 C612 1.368 . S
C618 C617 1.523 . S
C619 C603 1.429 . S
C619 C615 1.429 . S
C619 C620 1.523 . S
C620 C604 1.368 . S
C620 C616 1.368 . S
C620 C619 1.523 . S
H621 C596 0.950 . S
H622 C598 0.950 . S
H623 C599 0.949 . S
H624 C601 0.950 . S
H625 C603 0.950 . S
C626 C627 1.316 1_455 S
C626 C628 1.327 . S
C626 H651 0.950 . S
C627 C626 1.316 1_655 S
C627 C643 1.383 . S
C628 C626 1.327 . S
C628 C647 1.394 1_455 S
C628 H652 0.950 . S
C629 C646 1.574 1_554 S
C629 C648 1.410 . S
C629 H653 0.949 . S
H630 C634 0.949 . S
C631 C632 1.349 . S
C631 C633 1.327 . S
C631 H654 0.950 . S
C632 C631 1.349 . S
C632 C644 1.349 1_655 S
C633 C631 1.327 . S
C633 C649 1.429 . S
C633 H655 0.950 . S
C634 H630 0.949 . S
C634 C642 1.574 1_556 S
C634 C650 1.368 1_455 S
H635 C643 0.950 . S
H636 C641 0.950 . S
H637 C642 0.949 . S
H638 C644 0.950 . S
H639 C645 0.950 . S
H640 C646 0.949 . S
C641 H636 0.950 . S
C641 C643 1.327 . S
C641 C647 1.465 . S
C642 C634 1.574 1_554 S
C642 H637 0.949 . S
C642 C648 1.328 1_455 S
C643 C627 1.383 . S
C643 H635 0.950 . S
C643 C641 1.327 . S
C644 C632 1.349 1_455 S
C644 H638 0.950 . S
C644 C645 1.327 . S
C645 H639 0.950 . S
C645 C644 1.327 . S
C645 C649 1.429 1_455 S
C646 C629 1.574 1_556 S
C646 H640 0.949 . S
C646 C650 1.368 . S
C647 C628 1.394 1_655 S
C647 C641 1.465 . S
C647 C648 1.523 . S
C648 C629 1.410 . S
C648 C642 1.328 1_655 S
C648 C647 1.523 . S
C649 C633 1.429 . S
C649 C645 1.429 1_655 S
C649 C650 1.523 . S
C650 C634 1.368 1_655 S
C650 C646 1.368 . S
C650 C649 1.523 . S
H651 C626 0.950 . S
H652 C628 0.950 . S
H653 C629 0.949 . S
H654 C631 0.950 . S
H655 C633 0.950 . S
C656 C657 1.349 . S
C656 C658 1.327 . S
C656 H681 0.950 . S
C657 C656 1.349 . S
C657 C673 1.349 1_455 S
C658 C656 1.327 . S
C658 C677 1.429 1_455 S
C658 H682 0.950 . S
C659 C676 1.574 . S
C659 C678 1.368 . S
C659 H683 0.949 . S
H660 C664 0.972 . S
C661 C662 1.349 . S
C661 C663 1.327 . S
C661 H684 0.950 . S
C662 C661 1.349 . S
C662 C674 1.349 . S
C663 C661 1.327 . S
C663 C679 1.429 . S
C663 H685 0.950 . S
C664 H660 0.972 . S
C664 C672 1.574 . S
C664 C680 1.368 . S
H665 C673 0.950 . S
H666 C671 0.950 . S
H667 C672 0.949 1_455 S
H668 C674 0.950 . S
H669 C675 0.950 . S
H670 C676 0.949 . S
C671 H666 0.950 . S
C671 C673 1.327 . S
C671 C677 1.429 . S
C672 C664 1.574 . S
C672 H667 0.949 1_655 S
C672 C678 1.368 . S
C673 C657 1.349 1_655 S
C673 H665 0.950 . S
C673 C671 1.327 . S
C674 C662 1.349 . S
C674 H668 0.950 . S
C674 C675 1.327 . S
C675 H669 0.950 . S
C675 C674 1.327 . S
C675 C679 1.429 . S
C676 C659 1.574 . S
C676 H670 0.949 . S
C676 C680 1.368 . S
C677 C658 1.429 1_655 S
C677 C671 1.429 . S
C677 C678 1.523 . S
C678 C659 1.368 . S
C678 C672 1.368 . S
C678 C677 1.523 . S
C679 C663 1.429 . S
C679 C675 1.429 . S
C679 C680 1.523 . S
C680 C664 1.368 . S
C680 C676 1.368 . S
C680 C679 1.523 . S
H681 C656 0.950 . S
H682 C658 0.950 . S
H683 C659 0.949 . S
H684 C661 0.950 . S
H685 C663 0.950 . S
C686 C687 1.349 1_565 S
C686 C688 1.327 . S
C686 H711 0.950 . S
C687 C686 1.349 1_545 S
C687 C703 1.349 . S
C688 C686 1.327 . S
C688 C707 1.429 . S
C688 H712 0.950 . S
C689 C706 1.575 1_545 S
C689 C708 1.368 1_545 S
C689 H713 0.949 . S
H690 C694 0.949 . S
C691 C692 1.349 . S
C691 C693 1.327 . S
C691 H714 0.950 . S
C692 C691 1.349 . S
C692 C704 1.349 . S
C693 C691 1.327 . S
C693 C709 1.429 . S
C693 H715 0.950 1_565 S
C694 H690 0.949 . S
C694 C702 1.574 . S
C694 C710 1.368 . S
H695 C703 0.950 . S
H696 C701 0.950 . S
H697 C702 0.949 . S
H698 C704 0.950 . S
H699 C705 0.950 . S
H700 C706 0.953 1_545 S
C701 H696 0.950 . S
C701 C703 1.327 . S
C701 C707 1.429 1_545 S
C702 C694 1.574 . S
C702 H697 0.949 . S
C702 C708 1.368 . S
C703 C687 1.349 . S
C703 H695 0.950 . S
C703 C701 1.327 . S
C704 C692 1.349 . S
C704 H698 0.950 . S
C704 C705 1.327 . S
C705 H699 0.950 . S
C705 C704 1.327 . S
C705 C709 1.429 . S
C706 C689 1.575 1_565 S
C706 H700 0.953 1_565 S
C706 C710 1.362 . S
C707 C688 1.429 . S
C707 C701 1.429 1_565 S
C707 C708 1.523 . S
C708 C689 1.368 1_565 S
C708 C702 1.368 . S
C708 C707 1.523 . S
C709 C693 1.429 . S
C709 C705 1.429 . S
C709 C710 1.523 . S
C710 C694 1.368 . S
C710 C706 1.362 . S
C710 C709 1.523 . S
H711 C686 0.950 . S
H712 C688 0.950 . S
H713 C689 0.949 . S
H714 C691 0.950 . S
H715 C693 0.950 1_545 S
C716 C717 1.349 . S
C716 C718 1.327 . S
C716 H741 0.950 . S
C717 C716 1.349 . S
C717 C733 1.349 . S
C718 C716 1.327 . S
C718 C737 1.429 . S
C718 H742 0.950 . S
C719 C736 1.574 . S
C719 C738 1.368 . S
C719 H743 0.949 . S
H720 C724 0.949 . S
C721 C722 1.349 . S
C721 C723 1.327 . S
C721 H744 0.950 . S
C722 C721 1.349 . S
C722 C734 1.349 . S
C723 C721 1.327 . S
C723 C739 1.429 . S
C723 H745 0.950 . S
C724 H720 0.949 . S
C724 C732 1.574 . S
C724 C740 1.368 . S
H725 C733 0.950 . S
H726 C731 0.950 . S
H727 C732 0.949 . S
H728 C734 0.950 . S
H729 C735 0.950 . S
H730 C736 0.949 . S
C731 H726 0.950 . S
C731 C733 1.327 . S
C731 C737 1.429 . S
C732 C724 1.574 . S
C732 H727 0.949 . S
C732 C738 1.368 . S
C733 C717 1.349 . S
C733 H725 0.950 . S
C733 C731 1.327 . S
C734 C722 1.349 . S
C734 H728 0.950 . S
C734 C735 1.327 . S
C735 H729 0.950 . S
C735 C734 1.327 . S
C735 C739 1.429 . S
C736 C719 1.574 . S
C736 H730 0.949 . S
C736 C740 1.368 . S
C737 C718 1.429 . S
C737 C731 1.429 . S
C737 C738 1.523 . S
C738 C719 1.368 . S
C738 C732 1.368 . S
C738 C737 1.523 . S
C739 C723 1.429 . S
C739 C735 1.429 . S
C739 C740 1.523 . S
C740 C724 1.368 . S
C740 C736 1.368 . S
C740 C739 1.523 . S
H741 C716 0.950 . S
H742 C718 0.950 . S
H743 C719 0.949 . S
H744 C721 0.950 . S
H745 C723 0.950 . S
C746 C747 1.349 . S
C746 C748 1.327 . S
C746 H771 0.950 . S
C747 C746 1.349 . S
C747 C763 1.349 . S
C748 C746 1.327 . S
C748 C767 1.429 . S
C748 H772 0.950 . S
C749 C766 1.574 . S
C749 C768 1.368 . S
C749 H773 0.949 . S
H750 C754 0.949 . S
C751 C752 1.349 . S
C751 C753 1.327 . S
C751 H774 0.950 . S
C752 C751 1.349 . S
C752 C764 1.349 . S
C753 C751 1.327 . S
C753 C769 1.429 . S
C753 H775 0.950 . S
C754 H750 0.949 . S
C754 C762 1.574 . S
C754 C770 1.368 . S
H755 C763 0.950 . S
H756 C761 0.950 . S
H757 C762 0.949 . S
H758 C764 0.950 . S
H759 C765 0.950 . S
H760 C766 0.949 . S
C761 H756 0.950 . S
C761 C763 1.327 . S
C761 C767 1.429 . S
C762 C754 1.574 . S
C762 H757 0.949 . S
C762 C768 1.368 . S
C763 C747 1.349 . S
C763 H755 0.950 . S
C763 C761 1.327 . S
C764 C752 1.349 . S
C764 H758 0.950 . S
C764 C765 1.327 . S
C765 H759 0.950 . S
C765 C764 1.327 . S
C765 C769 1.429 . S
C766 C749 1.574 . S
C766 H760 0.949 . S
C766 C770 1.368 . S
C767 C748 1.429 . S
C767 C761 1.429 . S
C767 C768 1.523 . S
C768 C749 1.368 . S
C768 C762 1.368 . S
C768 C767 1.523 . S
C769 C753 1.429 . S
C769 C765 1.429 . S
C769 C770 1.523 . S
C770 C754 1.368 . S
C770 C766 1.368 . S
C770 C769 1.523 . S
H771 C746 0.950 . S
H772 C748 0.950 . S
H773 C749 0.949 . S
H774 C751 0.950 . S
H775 C753 0.950 . S
C776 C777 1.349 . S
C776 C778 1.327 . S
C776 H801 0.950 . S
C777 C776 1.349 . S
C777 C793 1.349 1_655 S
C778 C776 1.327 . S
C778 C797 1.429 1_655 S
C778 H802 0.950 . S
C779 C796 1.574 . S
C779 C798 1.368 . S
C779 H803 0.949 . S
H780 C784 0.949 1_655 S
C781 C782 1.349 . S
C781 C783 1.327 . S
C781 H804 0.950 . S
C782 C781 1.349 . S
C782 C794 1.349 . S
C783 C781 1.327 . S
C783 C799 1.429 . S
C783 H805 0.950 1_556 S
C784 H780 0.949 1_455 S
C784 C792 1.572 1_456 S
C784 C800 1.368 . S
H785 C793 0.950 . S
H786 C791 0.950 . S
H787 C792 0.948 1_556 S
H788 C794 0.950 . S
H789 C795 0.950 . S
H790 C796 0.949 . S
C791 H786 0.950 . S
C791 C793 1.327 . S
C791 C797 1.429 . S
C792 C784 1.572 1_654 S
C792 H787 0.948 1_554 S
C792 C798 1.370 1_655 S
C793 C777 1.349 1_455 S
C793 H785 0.950 . S
C793 C791 1.327 . S
C794 C782 1.349 . S
C794 H788 0.950 . S
C794 C795 1.327 . S
C795 H789 0.950 . S
C795 C794 1.327 . S
C795 C799 1.429 . S
C796 C779 1.574 . S
C796 H790 0.949 . S
C796 C800 1.368 1_554 S
C797 C778 1.429 1_455 S
C797 C791 1.429 . S
C797 C798 1.523 . S
C798 C779 1.368 . S
C798 C792 1.370 1_455 S
C798 C797 1.523 . S
C799 C783 1.429 . S
C799 C795 1.429 . S
C799 C800 1.523 . S
C800 C784 1.368 . S
C800 C796 1.368 1_556 S
C800 C799 1.523 . S
H801 C776 0.950 . S
H802 C778 0.950 . S
H803 C779 0.949 . S
H804 C781 0.950 . S
H805 C783 0.950 1_554 S
C806 C807 1.349 1_545 S
C806 C808 1.327 . S
C806 H831 0.950 . S
C807 C806 1.349 1_565 S
C807 C823 1.349 . S
C808 C806 1.327 . S
C808 C827 1.429 . S
C808 H832 0.950 . S
C809 C826 1.582 . S
C809 C828 1.368 1_565 S
C809 H833 0.949 . S
H810 C814 0.949 . S
C811 C812 1.349 . S
C811 C813 1.327 . S
C811 H834 0.950 . S
C812 C811 1.349 . S
C812 C824 1.349 . S
C813 C811 1.327 . S
C813 C829 1.429 . S
C813 H835 0.950 1_545 S
C814 H810 0.949 . S
C814 C822 1.574 1_556 S
C814 C830 1.368 . S
H815 C823 0.950 . S
H816 C821 0.950 . S
H817 C822 0.949 . S
H818 C824 0.950 . S
H819 C825 0.950 . S
H820 C826 0.976 . S
C821 H816 0.950 . S
C821 C823 1.327 . S
C821 C827 1.429 1_565 S
C822 C814 1.574 1_554 S
C822 H817 0.949 . S
C822 C828 1.368 . S
C823 C807 1.349 . S
C823 H815 0.950 . S
C823 C821 1.327 . S
C824 C812 1.349 . S
C824 H818 0.950 . S
C824 C825 1.327 . S
C825 H819 0.950 . S
C825 C824 1.327 . S
C825 C829 1.429 . S
C826 C809 1.582 . S
C826 H820 0.976 . S
C826 C830 1.332 1_564 S
C827 C808 1.429 . S
C827 C821 1.429 1_545 S
C827 C828 1.523 . S
C828 C809 1.368 1_545 S
C828 C822 1.368 . S
C828 C827 1.523 . S
C829 C813 1.429 . S
C829 C825 1.429 . S
C829 C830 1.523 . S
C830 C814 1.368 . S
C830 C826 1.332 1_546 S
C830 C829 1.523 . S
H831 C806 0.950 . S
H832 C808 0.950 . S
H833 C809 0.949 . S
H834 C811 0.950 . S
H835 C813 0.950 1_565 S
C836 C837 1.349 . S
C836 C838 1.327 . S
C836 H861 0.950 . S
C837 C836 1.349 . S
C837 C853 1.349 . S
C838 C836 1.327 . S
C838 C857 1.429 . S
C838 H862 0.950 . S
C839 C856 1.574 . S
C839 C858 1.368 . S
C839 H863 0.949 . S
H840 C844 0.949 . S
C841 C842 1.349 . S
C841 C843 1.327 . S
C841 H864 0.950 . S
C842 C841 1.349 . S
C842 C854 1.349 . S
C843 C841 1.327 . S
C843 C859 1.429 . S
C843 H865 0.950 1_556 S
C844 H840 0.949 . S
C844 C852 1.574 . S
C844 C860 1.368 . S
H845 C853 0.950 . S
H846 C851 0.950 . S
H847 C852 0.949 . S
H848 C854 0.950 . S
H849 C855 0.950 . S
H850 C856 0.949 . S
C851 H846 0.950 . S
C851 C853 1.327 . S
C851 C857 1.429 . S
C852 C844 1.574 . S
C852 H847 0.949 . S
C852 C858 1.368 1_556 S
C853 C837 1.349 . S
C853 H845 0.950 . S
C853 C851 1.327 . S
C854 C842 1.349 . S
C854 H848 0.950 . S
C854 C855 1.327 . S
C855 H849 0.950 . S
C855 C854 1.327 . S
C855 C859 1.429 . S
C856 C839 1.574 . S
C856 H850 0.949 . S
C856 C860 1.368 1_554 S
C857 C838 1.429 . S
C857 C851 1.429 . S
C857 C858 1.523 . S
C858 C839 1.368 . S
C858 C852 1.368 1_554 S
C858 C857 1.523 . S
C859 C843 1.429 . S
C859 C855 1.429 . S
C859 C860 1.523 . S
C860 C844 1.368 . S
C860 C856 1.368 1_556 S
C860 C859 1.523 . S
H861 C836 0.950 . S
H862 C838 0.950 . S
H863 C839 0.949 . S
H864 C841 0.950 . S
H865 C843 0.950 1_554 S
C866 C867 1.349 . S
C866 C868 1.327 . S
C866 H891 0.950 . S
C867 C866 1.349 . S
C867 C883 1.349 . S
C868 C866 1.327 . S
C868 C887 1.429 . S
C868 H892 0.950 . S
C869 C886 1.574 . S
C869 C888 1.368 . S
C869 H893 0.949 . S
H870 C874 0.949 . S
C871 C872 1.349 . S
C871 C873 1.327 . S
C871 H894 0.950 . S
C872 C871 1.349 . S
C872 C884 1.349 . S
C873 C871 1.327 . S
C873 C889 1.429 . S
C873 H895 0.950 . S
C874 H870 0.949 . S
C874 C882 1.574 1_556 S
C874 C890 1.368 . S
H875 C883 0.950 . S
H876 C881 0.950 . S
H877 C882 0.949 . S
H878 C884 0.950 . S
H879 C885 0.950 . S
H880 C886 0.949 . S
C881 H876 0.950 . S
C881 C883 1.327 . S
C881 C887 1.429 . S
C882 C874 1.574 1_554 S
C882 H877 0.949 . S
C882 C888 1.368 . S
C883 C867 1.349 . S
C883 H875 0.950 . S
C883 C881 1.327 . S
C884 C872 1.349 . S
C884 H878 0.950 . S
C884 C885 1.327 . S
C885 H879 0.950 . S
C885 C884 1.327 . S
C885 C889 1.429 . S
C886 C869 1.574 . S
C886 H880 0.949 . S
C886 C890 1.368 1_554 S
C887 C868 1.429 . S
C887 C881 1.429 . S
C887 C888 1.523 . S
C888 C869 1.368 . S
C888 C882 1.368 . S
C888 C887 1.523 . S
C889 C873 1.429 . S
C889 C885 1.429 . S
C889 C890 1.523 . S
C890 C874 1.368 . S
C890 C886 1.368 1_556 S
C890 C889 1.523 . S
H891 C866 0.950 . S
H892 C868 0.950 . S
H893 C869 0.949 . S
H894 C871 0.950 . S
H895 C873 0.950 . S
C896 C897 1.349 . S
C896 C898 1.327 . S
C896 H921 0.950 . S
C897 C896 1.349 . S
C897 C913 1.349 1_455 S
C898 C896 1.327 . S
C898 C917 1.429 . S
C898 H922 0.950 . S
C899 C916 1.574 . S
C899 C918 1.368 1_655 S
C899 H923 0.949 . S
H900 C904 0.949 . S
C901 C902 1.351 1_655 S
C901 C903 1.327 . S
C901 H924 0.948 . S
C902 C901 1.351 1_455 S
C902 C914 1.349 . S
C903 C901 1.327 . S
C903 C919 1.429 1_655 S
C903 H925 0.950 . S
C904 H900 0.949 . S
C904 C912 1.574 . S
C904 C920 1.368 . S
H905 C913 0.950 . S
H906 C911 0.950 . S
H907 C912 0.949 . S
H908 C914 0.950 . S
H909 C915 0.950 . S
H910 C916 0.949 . S
C911 H906 0.950 . S
C911 C913 1.327 . S
C911 C917 1.429 1_655 S
C912 C904 1.574 . S
C912 H907 0.949 . S
C912 C918 1.368 . S
C913 C897 1.349 1_655 S
C913 H905 0.950 . S
C913 C911 1.327 . S
C914 C902 1.349 . S
C914 H908 0.950 . S
C914 C915 1.327 . S
C915 H909 0.950 . S
C915 C914 1.327 . S
C915 C919 1.429 . S
C916 C899 1.574 . S
C916 H910 0.949 . S
C916 C920 1.368 1_655 S
C917 C898 1.429 . S
C917 C911 1.429 1_455 S
C917 C918 1.523 . S
C918 C899 1.368 1_455 S
C918 C912 1.368 . S
C918 C917 1.523 . S
C919 C903 1.429 1_455 S
C919 C915 1.429 . S
C919 C920 1.523 . S
C920 C904 1.368 . S
C920 C916 1.368 1_455 S
C920 C919 1.523 . S
H921 C896 0.950 . S
H922 C898 0.950 . S
H923 C899 0.949 . S
H924 C901 0.948 . S
H925 C903 0.950 . S
C926 C927 1.349 1_565 S
C926 C928 1.327 . S
C926 H951 0.950 . S
C927 C926 1.349 1_545 S
C927 C943 1.349 . S
C928 C926 1.327 . S
C928 C947 1.429 1_565 S
C928 H952 0.950 . S
C929 C946 1.574 . S
C929 C948 1.368 . S
C929 H953 0.949 . S
H930 C934 0.949 . S
C931 C932 1.349 . S
C931 C933 1.327 . S
C931 H954 0.950 . S
C932 C931 1.349 . S
C932 C944 1.349 1_545 S
C933 C931 1.327 . S
C933 C949 1.429 . S
C933 H955 0.950 . S
C934 H930 0.949 . S
C934 C942 1.574 . S
C934 C950 1.368 1_565 S
H935 C943 0.950 . S
H936 C941 0.950 . S
H937 C942 0.949 . S
H938 C944 0.950 . S
H939 C945 0.950 . S
H940 C946 0.949 . S
C941 H936 0.950 . S
C941 C943 1.327 . S
C941 C947 1.429 . S
C942 C934 1.574 . S
C942 H937 0.949 . S
C942 C948 1.368 1_565 S
C943 C927 1.349 . S
C943 H935 0.950 . S
C943 C941 1.327 . S
C944 C932 1.349 1_565 S
C944 H938 0.950 . S
C944 C945 1.327 . S
C945 H939 0.950 . S
C945 C944 1.327 . S
C945 C949 1.429 1_565 S
C946 C929 1.574 . S
C946 H940 0.949 . S
C946 C950 1.368 . S
C947 C928 1.429 1_545 S
C947 C941 1.429 . S
C947 C948 1.523 . S
C948 C929 1.368 . S
C948 C942 1.368 1_545 S
C948 C947 1.523 . S
C949 C933 1.429 . S
C949 C945 1.429 1_545 S
C949 C950 1.523 . S
C950 C934 1.368 1_545 S
C950 C946 1.368 . S
C950 C949 1.523 . S
H951 C926 0.950 . S
H952 C928 0.950 . S
H953 C929 0.949 . S
H954 C931 0.950 . S
H955 C933 0.950 . S
C956 C957 1.349 . S
C956 C958 1.327 . S
C956 H981 0.950 . S
C957 C956 1.349 . S
C957 C973 1.349 . S
C958 C956 1.327 . S
C958 C977 1.429 . S
C958 H982 0.950 . S
C959 C976 1.574 . S
C959 C978 1.368 . S
C959 H983 0.949 . S
H960 C964 0.949 . S
C961 C962 1.349 . S
C961 C963 1.327 . S
C961 H984 0.950 . S
C962 C961 1.349 . S
C962 C974 1.349 . S
C963 C961 1.327 . S
C963 C979 1.429 . S
C963 H985 0.950 . S
C964 H960 0.949 . S
C964 C972 1.574 . S
C964 C980 1.368 . S
H965 C973 0.950 . S
H966 C971 0.950 . S
H967 C972 0.949 . S
H968 C974 0.950 . S
H969 C975 0.950 . S
H970 C976 0.949 . S
C971 H966 0.950 . S
C971 C973 1.327 . S
C971 C977 1.429 . S
C972 C964 1.574 . S
C972 H967 0.949 . S
C972 C978 1.368 . S
C973 C957 1.349 . S
C973 H965 0.950 . S
C973 C971 1.327 . S
C974 C962 1.349 . S
C974 H968 0.950 . S
C974 C975 1.327 . S
C975 H969 0.950 . S
C975 C974 1.327 . S
C975 C979 1.429 . S
C976 C959 1.574 . S
C976 H970 0.949 . S
C976 C980 1.368 . S
C977 C958 1.429 . S
C977 C971 1.429 . S
C977 C978 1.523 . S
C978 C959 1.368 . S
C978 C972 1.368 . S
C978 C977 1.523 . S
C979 C963 1.429 . S
C979 C975 1.429 . S
C979 C980 1.523 . S
C980 C964 1.368 . S
C980 C976 1.368 . S
C980 C979 1.523 . S
H981 C956 0.950 . S
H982 C958 0.950 . S
H983 C959 0.949 . S
H984 C961 0.950 . S
H985 C963 0.950 . S
C986 C987 1.349 . S
C986 C988 1.327 . S
C986 H1011 0.950 . S
C987 C986 1.349 . S
C987 C1003 1.349 . S
C988 C986 1.327 . S
C988 C1007 1.429 . S
C988 H1012 0.950 . S
C989 C1006 1.574 . S
C989 C1008 1.368 . S
C989 H1013 0.949 . S
H990 C994 0.949 . S
C991 C992 1.349 . S
C991 C993 1.327 . S
C991 H1014 0.950 . S
C992 C991 1.349 . S
C992 C1004 1.349 . S
C993 C991 1.327 . S
C993 C1009 1.429 . S
C993 H1015 0.950 . S
C994 H990 0.949 . S
C994 C1002 1.574 . S
C994 C1010 1.368 . S
H995 C1003 0.950 . S
H996 C1001 0.950 . S
H997 C1002 0.949 . S
H998 C1004 0.950 . S
H999 C1005 0.950 . S
H1000 C1006 0.949 . S
C1001 H996 0.950 . S
C1001 C1003 1.327 . S
C1001 C1007 1.429 . S
C1002 C994 1.574 . S
C1002 H997 0.949 . S
C1002 C1008 1.368 . S
C1003 C987 1.349 . S
C1003 H995 0.950 . S
C1003 C1001 1.327 . S
C1004 C992 1.349 . S
C1004 H998 0.950 . S
C1004 C1005 1.327 . S
C1005 H999 0.950 . S
C1005 C1004 1.327 . S
C1005 C1009 1.429 . S
C1006 C989 1.574 . S
C1006 H1000 0.949 . S
C1006 C1010 1.368 . S
C1007 C988 1.429 . S
C1007 C1001 1.429 . S
C1007 C1008 1.523 . S
C1008 C989 1.368 . S
C1008 C1002 1.368 . S
C1008 C1007 1.523 . S
C1009 C993 1.429 . S
C1009 C1005 1.429 . S
C1009 C1010 1.523 . S
C1010 C994 1.368 . S
C1010 C1006 1.368 . S
C1010 C1009 1.523 . S
H1011 C986 0.950 . S
H1012 C988 0.950 . S
H1013 C989 0.949 . S
H1014 C991 0.950 . S
H1015 C993 0.950 . S
C1016 C1017 1.349 1_455 S
C1016 C1018 1.327 . S
C1016 H1041 0.950 . S
C1017 C1016 1.349 1_655 S
C1017 C1033 1.349 . S
C1018 C1016 1.327 . S
C1018 C1037 1.429 1_455 S
C1018 H1042 0.950 . S
C1019 C1036 1.574 . S
C1019 C1038 1.368 . S
C1019 H1043 0.949 . S
H1020 C1024 0.949 . S
C1021 C1022 1.349 . S
C1021 C1023 1.327 . S
C1021 H1044 0.950 . S
C1022 C1021 1.349 . S
C1022 C1034 1.324 1_655 S
C1023 C1021 1.327 . S
C1023 C1039 1.429 . S
C1023 H1045 0.950 . S
C1024 H1020 0.949 . S
C1024 C1032 1.574 . S
C1024 C1040 1.368 1_455 S
H1025 C1033 0.950 . S
H1026 C1031 0.950 . S
H1027 C1032 0.949 . S
H1028 C1034 0.973 . S
H1029 C1035 0.950 . S
H1030 C1036 0.949 . S
C1031 H1026 0.950 . S
C1031 C1033 1.327 . S
C1031 C1037 1.429 . S
C1032 C1024 1.574 . S
C1032 H1027 0.949 . S
C1032 C1038 1.368 1_455 S
C1033 C1017 1.349 . S
C1033 H1025 0.950 . S
C1033 C1031 1.327 . S
C1034 C1022 1.324 1_455 S
C1034 H1028 0.973 . S
C1034 C1035 1.331 . S
C1035 H1029 0.950 . S
C1035 C1034 1.331 . S
C1035 C1039 1.429 1_455 S
C1036 C1019 1.574 . S
C1036 H1030 0.949 . S
C1036 C1040 1.368 . S
C1037 C1018 1.429 1_655 S
C1037 C1031 1.429 . S
C1037 C1038 1.523 . S
C1038 C1019 1.368 . S
C1038 C1032 1.368 1_655 S
C1038 C1037 1.523 . S
C1039 C1023 1.429 . S
C1039 C1035 1.429 1_655 S
C1039 C1040 1.523 . S
C1040 C1024 1.368 1_655 S
C1040 C1036 1.368 . S
C1040 C1039 1.523 . S
H1041 C1016 0.950 . S
H1042 C1018 0.950 . S
H1043 C1019 0.949 . S
H1044 C1021 0.950 . S
H1045 C1023 0.950 . S
C1046 C1047 1.349 . S
C1046 C1048 1.327 . S
C1046 H1071 0.950 . S
C1047 C1046 1.349 . S
C1047 C1063 1.349 1_565 S
C1048 C1046 1.327 . S
C1048 C1067 1.429 . S
C1048 H1072 0.950 . S
C1049 C1066 1.574 . S
C1049 C1068 1.368 1_545 S
C1049 H1073 0.949 . S
H1050 C1054 0.949 . S
C1051 C1052 1.349 1_545 S
C1051 C1053 1.327 . S
C1051 H1074 0.950 . S
C1052 C1051 1.349 1_565 S
C1052 C1064 1.349 . S
C1053 C1051 1.327 . S
C1053 C1069 1.429 1_545 S
C1053 H1075 0.950 . S
C1054 H1050 0.949 . S
C1054 C1062 1.574 . S
C1054 C1070 1.368 . S
H1055 C1063 0.950 . S
H1056 C1061 0.950 . S
H1057 C1062 0.949 . S
H1058 C1064 0.950 . S
H1059 C1065 0.950 . S
H1060 C1066 0.949 . S
C1061 H1056 0.950 . S
C1061 C1063 1.327 . S
C1061 C1067 1.429 1_545 S
C1062 C1054 1.574 . S
C1062 H1057 0.949 . S
C1062 C1068 1.368 . S
C1063 C1047 1.349 1_545 S
C1063 H1055 0.950 . S
C1063 C1061 1.327 . S
C1064 C1052 1.349 . S
C1064 H1058 0.950 . S
C1064 C1065 1.327 . S
C1065 H1059 0.950 . S
C1065 C1064 1.327 . S
C1065 C1069 1.429 . S
C1066 C1049 1.574 . S
C1066 H1060 0.949 . S
C1066 C1070 1.368 1_545 S
C1067 C1048 1.429 . S
C1067 C1061 1.429 1_565 S
C1067 C1068 1.523 . S
C1068 C1049 1.368 1_565 S
C1068 C1062 1.368 . S
C1068 C1067 1.523 . S
C1069 C1053 1.429 1_565 S
C1069 C1065 1.429 . S
C1069 C1070 1.523 . S
C1070 C1054 1.368 . S
C1070 C1066 1.368 1_565 S
C1070 C1069 1.523 . S
H1071 C1046 0.950 . S
H1072 C1048 0.950 . S
H1073 C1049 0.949 . S
H1074 C1051 0.950 . S
H1075 C1053 0.950 . S
C1076 C1077 1.349 . S
C1076 C1078 1.327 . S
C1076 H1101 0.950 . S
C1077 C1076 1.349 . S
C1077 C1093 1.349 . S
C1078 C1076 1.327 . S
C1078 C1097 1.429 . S
C1078 H1102 0.950 . S
C1079 C1096 1.574 . S
C1079 C1098 1.368 . S
C1079 H1103 0.949 . S
H1080 C1084 0.949 . S
C1081 C1082 1.349 . S
C1081 C1083 1.327 . S
C1081 H1104 0.950 . S
C1082 C1081 1.349 . S
C1082 C1094 1.349 . S
C1083 C1081 1.327 . S
C1083 C1099 1.429 . S
C1083 H1105 0.950 . S
C1084 H1080 0.949 . S
C1084 C1092 1.574 . S
C1084 C1100 1.368 . S
H1085 C1093 0.950 . S
H1086 C1091 0.950 . S
H1087 C1092 0.949 . S
H1088 C1094 0.950 . S
H1089 C1095 0.950 . S
H1090 C1096 0.949 . S
C1091 H1086 0.950 . S
C1091 C1093 1.327 . S
C1091 C1097 1.429 . S
C1092 C1084 1.574 . S
C1092 H1087 0.949 . S
C1092 C1098 1.368 . S
C1093 C1077 1.349 . S
C1093 H1085 0.950 . S
C1093 C1091 1.327 . S
C1094 C1082 1.349 . S
C1094 H1088 0.950 . S
C1094 C1095 1.327 . S
C1095 H1089 0.950 . S
C1095 C1094 1.327 . S
C1095 C1099 1.429 . S
C1096 C1079 1.574 . S
C1096 H1090 0.949 . S
C1096 C1100 1.368 . S
C1097 C1078 1.429 . S
C1097 C1091 1.429 . S
C1097 C1098 1.523 . S
C1098 C1079 1.368 . S
C1098 C1092 1.368 . S
C1098 C1097 1.523 . S
C1099 C1083 1.429 . S
C1099 C1095 1.429 . S
C1099 C1100 1.523 . S
C1100 C1084 1.368 . S
C1100 C1096 1.368 . S
C1100 C1099 1.523 . S
H1101 C1076 0.950 . S
H1102 C1078 0.950 . S
H1103 C1079 0.949 . S
H1104 C1081 0.950 . S
H1105 C1083 0.950 . S
C1106 C1107 1.349 . S
C1106 C1108 1.327 . S
C1106 H1131 0.950 . S
C1107 C1106 1.349 . S
C1107 C1123 1.349 . S
C1108 C1106 1.327 . S
C1108 C1127 1.429 . S
C1108 H1132 0.950 . S
C1109 C1126 1.574 . S
C1109 C1128 1.368 . S
C1109 H1133 0.949 . S
H1110 C1114 0.949 . S
C1111 C1112 1.349 . S
C1111 C1113 1.327 . S
C1111 H1134 0.950 . S
C1112 C1111 1.349 . S
C1112 C1124 1.349 . S
C1113 C1111 1.327 . S
C1113 C1129 1.429 . S
C1113 H1135 0.950 . S
C1114 H1110 0.949 . S
C1114 C1122 1.574 . S
C1114 C1130 1.368 . S
H1115 C1123 0.950 . S
H1116 C1121 0.950 . S
H1117 C1122 0.949 . S
H1118 C1124 0.950 . S
H1119 C1125 0.950 . S
H1120 C1126 0.949 . S
C1121 H1116 0.950 . S
C1121 C1123 1.327 . S
C1121 C1127 1.429 . S
C1122 C1114 1.574 . S
C1122 H1117 0.949 . S
C1122 C1128 1.368 . S
C1123 C1107 1.349 . S
C1123 H1115 0.950 . S
C1123 C1121 1.327 . S
C1124 C1112 1.349 . S
C1124 H1118 0.950 . S
C1124 C1125 1.327 . S
C1125 H1119 0.950 . S
C1125 C1124 1.327 . S
C1125 C1129 1.429 . S
C1126 C1109 1.574 . S
C1126 H1120 0.949 . S
C1126 C1130 1.368 . S
C1127 C1108 1.429 . S
C1127 C1121 1.429 . S
C1127 C1128 1.523 . S
C1128 C1109 1.368 . S
C1128 C1122 1.368 . S
C1128 C1127 1.523 . S
C1129 C1113 1.429 . S
C1129 C1125 1.429 . S
C1129 C1130 1.523 . S
C1130 C1114 1.368 . S
C1130 C1126 1.368 . S
C1130 C1129 1.523 . S
H1131 C1106 0.950 . S
H1132 C1108 0.950 . S
H1133 C1109 0.949 . S
H1134 C1111 0.950 . S
H1135 C1113 0.950 . S
C417 C215 1.803 . S
C422 C265 1.899 1_545 S
C452 C305 1.903 . S
C447 C247 1.795 . S
C482 C345 1.902 . S
C477 C151 1.796 . S
C512 C385 1.898 1_455 S
C507 C183 1.795 . S
C542 C274 1.902 1_565 S
C537 C87 1.792 1_565 S
C567 C119 1.797 . S
C572 C314 1.903 . S
C597 C23 1.797 . S
C602 C354 1.902 . S
C627 C55 1.788 1_655 S
C632 C394 1.898 1_655 S
C662 C271 0.279 . S
C657 C189 0.239 . S
C692 C311 0.279 . S
C687 C221 0.239 . S
C722 C351 0.279 . S
C717 C253 0.240 . S
C747 C157 0.240 . S
C752 C391 0.279 . S
C777 C61 0.443 1_655 S
C782 C262 0.279 . S
C812 C302 0.279 . S
C807 C93 0.441 1_565 S
C842 C342 0.279 . S
C837 C125 0.443 . S
C867 C29 0.442 . S
C872 C382 0.279 . S
C897 C177 2.234 . S
C902 C275 2.471 . S
C927 C209 2.233 . S
C932 C315 2.472 . S
C962 C355 2.473 . S
C957 C241 2.234 . S
C992 C395 2.473 . S
C987 C145 2.234 . S
C1017 C49 2.252 1_655 S
C1022 C266 2.474 . S
C1052 C306 2.473 . S
C1047 C81 2.252 1_565 S
C1082 C346 2.473 . S
C1077 C113 2.252 . S
C1107 C17 2.252 . S
C1112 C386 2.473 . S
