# Generated by pormake.
# Topology ssb, (4,4)-cn, num edge types: 1
# Building blocks:
#     Node 0, Type 0, BuildingBlock: KUFVIS_clean_linker_0, # of connection points: 4
#     Node 1, Type 0, BuildingBlock: KUFVIS_clean_linker_0, # of connection points: 4
#     Node 2, Type 0, BuildingBlock: KUFVIS_clean_linker_0, # of connection points: 4
#     Node 3, Type 0, BuildingBlock: KUFVIS_clean_linker_0, # of connection points: 4
#     Node 4, Type 0, BuildingBlock: KUFVIS_clean_linker_0, # of connection points: 4
#     Node 5, Type 0, BuildingBlock: KUFVIS_clean_linker_0, # of connection points: 4
#     Node 6, Type 0, BuildingBlock: KUFVIS_clean_linker_0, # of connection points: 4
#     Node 7, Type 0, BuildingBlock: KUFVIS_clean_linker_0, # of connection points: 4
#     Node 8, Type 1, BuildingBlock: NAWXER_clean_sbu_0, # of connection points: 4
#     Node 9, Type 1, BuildingBlock: NAWXER_clean_sbu_0, # of connection points: 4
#     Node 10, Type 1, BuildingBlock: NAWXER_clean_sbu_0, # of connection points: 4
#     Node 11, Type 1, BuildingBlock: NAWXER_clean_sbu_0, # of connection points: 4
#     Node 12, Type 1, BuildingBlock: NAWXER_clean_sbu_0, # of connection points: 4
#     Node 13, Type 1, BuildingBlock: NAWXER_clean_sbu_0, # of connection points: 4
#     Node 14, Type 1, BuildingBlock: NAWXER_clean_sbu_0, # of connection points: 4
#     Node 15, Type 1, BuildingBlock: NAWXER_clean_sbu_0, # of connection points: 4
#     Edge 16, Type (0, 1), None
#     Edge 17, Type (0, 1), None
#     Edge 18, Type (0, 1), None
#     Edge 19, Type (0, 1), None
#     Edge 20, Type (0, 1), None
#     Edge 21, Type (0, 1), None
#     Edge 22, Type (0, 1), None
#     Edge 23, Type (0, 1), None
#     Edge 24, Type (0, 1), None
#     Edge 25, Type (0, 1), None
#     Edge 26, Type (0, 1), None
#     Edge 27, Type (0, 1), None
#     Edge 28, Type (0, 1), None
#     Edge 29, Type (0, 1), None
#     Edge 30, Type (0, 1), None
#     Edge 31, Type (0, 1), None
#     Edge 32, Type (0, 1), None
#     Edge 33, Type (0, 1), None
#     Edge 34, Type (0, 1), None
#     Edge 35, Type (0, 1), None
#     Edge 36, Type (0, 1), None
#     Edge 37, Type (0, 1), None
#     Edge 38, Type (0, 1), None
#     Edge 39, Type (0, 1), None
#     Edge 40, Type (0, 1), None
#     Edge 41, Type (0, 1), None
#     Edge 42, Type (0, 1), None
#     Edge 43, Type (0, 1), None
#     Edge 44, Type (0, 1), None
#     Edge 45, Type (0, 1), None
#     Edge 46, Type (0, 1), None
#     Edge 47, Type (0, 1), None
# Relax obj value: 0.000
# Max RMSD: 0.052
# Mean RMSD: 0.025
data_MOF--net-ssb--node1-NAWXER_clean_sbu_0--node2-KUFVIS_clean_linker_0--edge1-none
_symmetry_space_group_name_H-M    P1
_symmetry_Int_Tables_number       1
_symmetry_cell_setting            triclinic
loop_
_symmetry_equiv_pos_as_xyz
'x, y, z'
_cell_length_a     20.600371
_cell_length_b     20.568609
_cell_length_c     18.471631
_cell_angle_alpha  90.180958
_cell_angle_beta   89.956812
_cell_angle_gamma 89.776904
loop_
_atom_site_label
_atom_site_type_symbol
_atom_site_fract_x
_atom_site_fract_y
_atom_site_fract_z
_atom_type_partial_charge
H0 H 0.18629 0.21549 0.48267 0.0
H1 H 0.28694 0.16887 0.28682 0.0
H2 H 0.18567 0.3535 0.31107 0.0
H3 H 0.17846 0.3422 0.1943 0.0
H4 H 0.32123 0.33886 0.02692 0.0
H5 H 0.36497 0.24707 0.22831 0.0
C6 C 0.20374 0.2304 0.42996 0.0
C7 C 0.17942 0.28863 0.39984 0.0
C8 C 0.23697 0.18443 0.38812 0.0
C9 C 0.26017 0.20349 0.31969 0.0
C10 C 0.24492 0.26632 0.29216 0.0
C11 C 0.20302 0.30784 0.33264 0.0
C12 C 0.26671 0.28633 0.21834 0.0
C13 C 0.22524 0.32559 0.17498 0.0
C14 C 0.24587 0.34746 0.10767 0.0
C15 C 0.30547 0.32349 0.08023 0.0
C16 C 0.35106 0.29283 0.1245 0.0
C17 C 0.33071 0.2718 0.19337 0.0
H18 H 0.68196 0.31916 0.02577 0.0
H19 H 0.78718 0.36354 0.21896 0.0
H20 H 0.68697 0.17894 0.19491 0.0
H21 H 0.68145 0.18787 0.31174 0.0
H22 H 0.82667 0.18913 0.47598 0.0
H23 H 0.86599 0.2856 0.27651 0.0
C24 C 0.70066 0.30382 0.07779 0.0
C25 C 0.67806 0.24502 0.10765 0.0
C26 C 0.7348 0.34925 0.11891 0.0
C27 C 0.75967 0.32939 0.18658 0.0
C28 C 0.74532 0.26623 0.21394 0.0
C29 C 0.70322 0.22508 0.17384 0.0
C30 C 0.76857 0.24495 0.28701 0.0
C31 C 0.72842 0.20422 0.33023 0.0
C32 C 0.75054 0.18104 0.39652 0.0
C33 C 0.8101 0.20483 0.42317 0.0
C34 C 0.85441 0.23704 0.37912 0.0
C35 C 0.8327 0.25956 0.31124 0.0
H36 H 0.89763 0.86169 0.41752 0.0
H37 H 0.83687 0.68751 0.3125 0.0
H38 H 0.7318 0.86966 0.2806 0.0
H39 H 0.65956 0.79514 0.21631 0.0
H40 H 0.66884 0.6201 0.09266 0.0
H41 H 0.84225 0.69075 0.19099 0.0
C42 C 0.86489 0.83669 0.38133 0.0
C43 C 0.81235 0.87257 0.35637 0.0
C44 C 0.87354 0.76953 0.36778 0.0
C45 C 0.83088 0.73929 0.32119 0.0
C46 C 0.78369 0.77629 0.28264 0.0
C47 C 0.77106 0.84216 0.30471 0.0
C48 C 0.75271 0.74344 0.21858 0.0
C49 C 0.68739 0.75463 0.19505 0.0
C50 C 0.65792 0.71056 0.14556 0.0
C51 C 0.69351 0.65585 0.12557 0.0
C52 C 0.76074 0.64936 0.13881 0.0
C53 C 0.79042 0.69521 0.18228 0.0
H54 H 0.17433 0.90179 0.42951 0.0
H55 H 0.34421 0.84154 0.31416 0.0
H56 H 0.16126 0.73821 0.28927 0.0
H57 H 0.23593 0.66221 0.23219 0.0
H58 H 0.36274 0.68379 0.0522 0.0
H59 H 0.34048 0.84396 0.19534 0.0
C60 C 0.19797 0.86966 0.39119 0.0
C61 C 0.16132 0.818 0.36601 0.0
C62 C 0.26418 0.87853 0.37375 0.0
C63 C 0.29307 0.83549 0.32576 0.0
C64 C 0.25502 0.78807 0.2893 0.0
C65 C 0.18994 0.77663 0.31323 0.0
C66 C 0.28314 0.75717 0.22258 0.0
C67 C 0.26867 0.69189 0.20067 0.0
C68 C 0.2995 0.66491 0.13891 0.0
C69 C 0.3409 0.70459 0.09988 0.0
C70 C 0.35938 0.76732 0.12199 0.0
C71 C 0.32806 0.7945 0.18111 0.0
H72 H 0.3486 0.65072 0.9437 0.0
H73 H 0.18092 0.69069 0.81558 0.0
H74 H 0.36419 0.79157 0.77794 0.0
H75 H 0.28667 0.86551 0.72272 0.0
H76 H 0.17629 0.82618 0.5322 0.0
H77 H 0.18191 0.68303 0.69778 0.0
C78 C 0.32496 0.67797 0.9015 0.0
C79 C 0.36312 0.72334 0.86635 0.0
C80 C 0.25963 0.66461 0.88359 0.0
C81 C 0.23122 0.70026 0.82843 0.0
C82 C 0.26923 0.74441 0.78707 0.0
C83 C 0.33475 0.75778 0.80836 0.0
C84 C 0.24201 0.76941 0.71743 0.0
C85 C 0.25703 0.83267 0.69104 0.0
C86 C 0.2309 0.85392 0.62463 0.0
C87 C 0.19479 0.81001 0.58393 0.0
C88 C 0.17187 0.75104 0.61284 0.0
C89 C 0.19792 0.72966 0.67786 0.0
H90 H 0.40145 0.36185 0.91433 0.0
H91 H 0.33841 0.18598 0.8142 0.0
H92 H 0.23185 0.36722 0.78358 0.0
H93 H 0.1611 0.29394 0.71742 0.0
H94 H 0.17183 0.12173 0.58955 0.0
H95 H 0.34406 0.1898 0.69274 0.0
C96 C 0.36762 0.33599 0.88019 0.0
C97 C 0.31379 0.37082 0.85729 0.0
C98 C 0.37593 0.26867 0.86781 0.0
C99 C 0.33252 0.23783 0.82253 0.0
C100 C 0.28486 0.27454 0.78433 0.0
C101 C 0.27184 0.34011 0.8067 0.0
C102 C 0.25424 0.24219 0.71992 0.0
C103 C 0.18919 0.2538 0.69572 0.0
C104 C 0.16037 0.2107 0.64474 0.0
C105 C 0.19619 0.15661 0.62387 0.0
C106 C 0.26322 0.14975 0.63835 0.0
C107 C 0.29236 0.1946 0.68331 0.0
H108 H 0.67026 0.41016 0.91757 0.0
H109 H 0.84319 0.34297 0.81359 0.0
H110 H 0.66206 0.23666 0.7916 0.0
H111 H 0.73316 0.16255 0.72761 0.0
H112 H 0.89428 0.16927 0.58358 0.0
H113 H 0.83888 0.34332 0.69328 0.0
C114 C 0.69504 0.37537 0.8832 0.0
C115 C 0.66013 0.32069 0.86299 0.0
C116 C 0.76179 0.38299 0.86797 0.0
C117 C 0.79163 0.33777 0.82337 0.0
C118 C 0.75439 0.28896 0.78796 0.0
C119 C 0.68959 0.27727 0.81256 0.0
C120 C 0.78506 0.25549 0.72386 0.0
C121 C 0.77185 0.1897 0.70228 0.0
C122 C 0.81174 0.15885 0.64936 0.0
C123 C 0.86324 0.19434 0.62185 0.0
C124 C 0.87323 0.26102 0.63622 0.0
C125 C 0.83208 0.29172 0.68449 0.0
H126 H 0.68991 0.71759 0.9839 0.0
H127 H 0.78355 0.67019 0.78413 0.0
H128 H 0.68271 0.85474 0.81134 0.0
H129 H 0.6771 0.84729 0.69429 0.0
H130 H 0.81795 0.83967 0.52508 0.0
H131 H 0.86187 0.74836 0.72652 0.0
C132 C 0.7052 0.73222 0.93019 0.0
C133 C 0.67921 0.78997 0.90046 0.0
C134 C 0.73628 0.6858 0.88707 0.0
C135 C 0.75771 0.70486 0.81784 0.0
C136 C 0.74229 0.768 0.79095 0.0
C137 C 0.7009 0.80924 0.83243 0.0
C138 C 0.76398 0.78876 0.71722 0.0
C139 C 0.72324 0.82947 0.67446 0.0
C140 C 0.7439 0.85081 0.60677 0.0
C141 C 0.80244 0.82511 0.57873 0.0
C142 C 0.84801 0.79452 0.62295 0.0
C143 C 0.82772 0.77357 0.69186 0.0
C144 C 0.92827 0.2922 0.59727 0.0
C145 C 0.1128 0.30581 0.42413 0.0
O146 O 0.94453 0.35215 0.59208 0.0
Zn147 Zn 0.01628 0.3287 0.51219 0.0
O148 O 0.95861 0.25243 0.55959 0.0
Zn149 Zn 0.01609 0.21316 0.49461 0.0
O150 O 0.07191 0.17421 0.56893 0.0
O151 O 0.08137 0.27979 0.58631 0.0
O152 O 0.08 0.25516 0.43488 0.0
O153 O 0.09502 0.35968 0.45327 0.0
O154 O 0.94532 0.29371 0.43104 0.0
O155 O 0.94956 0.18605 0.42624 0.0
C156 C 0.09833 0.22181 0.603 0.0
C157 C 0.92297 0.23954 0.4063 0.0
C158 C 0.80125 0.09388 0.61249 0.0
C159 C 0.80222 0.93708 0.39476 0.0
O160 O 0.85076 0.06461 0.58532 0.0
Zn161 Zn 0.81589 0.01534 0.50411 0.0
O162 O 0.74489 0.07956 0.58746 0.0
Zn163 Zn 0.70418 0.01691 0.50191 0.0
O164 O 0.66949 0.93883 0.56326 0.0
O165 O 0.775 0.94616 0.55574 0.0
O166 O 0.74549 0.95311 0.41769 0.0
O167 O 0.85148 0.96474 0.42396 0.0
O168 O 0.77796 0.08573 0.45104 0.0
O169 O 0.67301 0.09566 0.43881 0.0
C170 C 0.72601 0.91561 0.57703 0.0
C171 C 0.73038 0.11752 0.4276 0.0
C172 C 0.91651 0.7928 0.59553 0.0
C173 C 0.09731 0.80784 0.40385 0.0
O174 O 0.94167 0.84636 0.57414 0.0
Zn175 Zn 1.01099 0.82092 0.50812 0.0
O176 O 0.94094 0.73838 0.57349 0.0
Zn177 Zn 0.01428 0.70133 0.49582 0.0
O178 O 0.09151 0.67475 0.56094 0.0
O179 O 0.07401 0.77992 0.56851 0.0
O180 O 0.08115 0.75029 0.42319 0.0
O181 O 0.06827 0.85668 0.4333 0.0
O182 O 0.9581 0.77633 0.44507 0.0
O183 O 0.94365 0.6772 0.41344 0.0
C184 C 0.10703 0.73084 0.58595 0.0
C185 C 0.92817 0.73735 0.40681 0.0
C186 C 0.29729 0.09545 0.60096 0.0
C187 C 0.29697 0.93479 0.40874 0.0
O188 O 0.35808 0.08499 0.59133 0.0
Zn189 Zn 0.33955 0.01562 0.50453 0.0
O190 O 0.26062 0.06413 0.56159 0.0
Zn191 Zn 0.20679 0.01787 0.50353 0.0
O192 O 0.18399 0.94938 0.57262 0.0
O193 O 0.29221 0.94187 0.57392 0.0
O194 O 0.25918 0.96738 0.44623 0.0
O195 O 0.35756 0.94459 0.41997 0.0
O196 O 0.29505 0.09211 0.43572 0.0
O197 O 0.18664 0.09052 0.43888 0.0
C198 C 0.2362 0.92122 0.59486 0.0
C199 C 0.23975 0.11647 0.41677 0.0
C200 C 0.41933 0.79305 0.08715 0.0
C201 C 0.61292 0.80597 0.92686 0.0
O202 O 0.43804 0.852 0.07895 0.0
Zn203 Zn 0.51355 0.82465 0.00747 0.0
O204 O 0.45099 0.74901 0.05633 0.0
Zn205 Zn 0.51595 0.7117 0.99595 0.0
O206 O 0.56944 0.67264 0.07117 0.0
O207 O 0.57799 0.77858 0.08617 0.0
O208 O 0.58253 0.75531 0.94331 0.0
O209 O 0.59121 0.86123 0.9485 0.0
O210 O 0.44738 0.78662 0.92331 0.0
O211 O 0.46016 0.68007 0.91872 0.0
C212 C 0.59541 0.72094 0.10429 0.0
C213 C 0.43058 0.73127 0.89667 0.0
C214 C 0.29274 0.59713 0.10882 0.0
C215 C 0.30254 0.43409 0.89717 0.0
O216 O 0.34445 0.56938 0.08501 0.0
Zn217 Zn 0.3156 0.51205 0.00757 0.0
O218 O 0.23751 0.57885 0.0834 0.0
Zn219 Zn 0.19881 0.51195 0.99996 0.0
O220 O 0.16908 0.43225 0.06191 0.0
O221 O 0.27441 0.44395 0.05833 0.0
O222 O 0.24521 0.44869 0.91934 0.0
O223 O 0.35124 0.46217 0.92729 0.0
O224 O 0.27296 0.57379 0.95123 0.0
O225 O 0.17169 0.58879 0.92726 0.0
C226 C 0.22612 0.41179 0.07835 0.0
C227 C 0.23096 0.60642 0.91955 0.0
C228 C 0.59819 0.30921 0.90461 0.0
C229 C 0.41968 0.29105 0.09725 0.0
O230 O 0.57071 0.35671 0.93816 0.0
Zn231 Zn 0.51446 0.31751 0.0117 0.0
O232 O 0.58197 0.25112 0.92132 0.0
Zn233 Zn 0.51689 0.20132 0.99466 0.0
O234 O 0.44674 0.17696 0.91304 0.0
O235 O 0.45967 0.27637 0.94611 0.0
O236 O 0.44392 0.23676 0.07436 0.0
O237 O 0.44528 0.34467 0.07682 0.0
O238 O 0.57728 0.27669 0.07473 0.0
O239 O 0.59593 0.17279 0.05392 0.0
C240 C 0.43037 0.23697 0.90748 0.0
C241 C 0.61181 0.22663 0.0841 0.0
C242 C 0.79464 0.59501 0.1009 0.0
C243 C 0.79509 0.43822 0.90445 0.0
O244 O 0.85544 0.58513 0.09068 0.0
Zn245 Zn 0.83863 0.51662 0.0027 0.0
O246 O 0.75799 0.56382 0.06114 0.0
Zn247 Zn 0.70445 0.51742 0.00214 0.0
O248 O 0.68507 0.44431 0.06794 0.0
O249 O 0.7934 0.44031 0.07005 0.0
O250 O 0.75808 0.46992 0.94368 0.0
O251 O 0.85579 0.44765 0.91525 0.0
O252 O 0.79408 0.59362 0.93534 0.0
O253 O 0.68572 0.59126 0.93711 0.0
C254 C 0.73799 0.41714 0.08963 0.0
C255 C 0.73891 0.61769 0.9157 0.0
loop_
_geom_bond_atom_site_label_1
_geom_bond_atom_site_label_2
_geom_bond_distance
_geom_bond_site_symmetry_2
_ccdc_geom_bond_type
H0 C6 0.930 . S
H1 C9 0.931 . S
H2 C11 0.931 . S
H3 C13 0.930 . S
H4 C15 0.930 . S
H5 C17 0.931 . S
C6 H0 0.930 . S
C6 C7 1.380 . S
C6 C8 1.394 . S
C7 C6 1.380 . S
C7 C11 1.382 . S
C8 C6 1.394 . S
C8 C9 1.400 . S
C9 H1 0.931 . S
C9 C8 1.400 . S
C9 C10 1.375 . S
C10 C9 1.375 . S
C10 C11 1.415 . S
C10 C12 1.501 . S
C11 H2 0.931 . S
C11 C7 1.382 . S
C11 C10 1.415 . S
C12 C10 1.501 . S
C12 C13 1.384 . S
C12 C17 1.408 . S
C13 H3 0.930 . S
C13 C12 1.384 . S
C13 C14 1.389 . S
C14 C13 1.389 . S
C14 C15 1.405 . S
C15 H4 0.930 . S
C15 C14 1.405 . S
C15 C16 1.364 . S
C16 C15 1.364 . S
C16 C17 1.400 . S
C17 H5 0.931 . S
C17 C12 1.408 . S
C17 C16 1.400 . S
H18 C24 0.930 . S
H19 C27 0.931 . S
H20 C29 0.931 . S
H21 C31 0.930 . S
H22 C33 0.930 . S
H23 C35 0.931 . S
C24 H18 0.930 . S
C24 C25 1.380 . S
C24 C26 1.394 . S
C25 C24 1.380 . S
C25 C29 1.382 . S
C26 C24 1.394 . S
C26 C27 1.400 . S
C27 H19 0.931 . S
C27 C26 1.400 . S
C27 C28 1.375 . S
C28 C27 1.375 . S
C28 C29 1.415 . S
C28 C30 1.501 . S
C29 H20 0.931 . S
C29 C25 1.382 . S
C29 C28 1.415 . S
C30 C28 1.501 . S
C30 C31 1.384 . S
C30 C35 1.408 . S
C31 H21 0.930 . S
C31 C30 1.384 . S
C31 C32 1.389 . S
C32 C31 1.389 . S
C32 C33 1.405 . S
C33 H22 0.930 . S
C33 C32 1.405 . S
C33 C34 1.364 . S
C34 C33 1.364 . S
C34 C35 1.400 . S
C35 H23 0.931 . S
C35 C30 1.408 . S
C35 C34 1.400 . S
H36 C42 0.930 . S
H37 C45 0.931 . S
H38 C47 0.931 . S
H39 C49 0.930 . S
H40 C51 0.930 . S
H41 C53 0.931 . S
C42 H36 0.930 . S
C42 C43 1.380 . S
C42 C44 1.394 . S
C43 C42 1.380 . S
C43 C47 1.382 . S
C44 C42 1.394 . S
C44 C45 1.400 . S
C45 H37 0.931 . S
C45 C44 1.400 . S
C45 C46 1.375 . S
C46 C45 1.375 . S
C46 C47 1.415 . S
C46 C48 1.501 . S
C47 H38 0.931 . S
C47 C43 1.382 . S
C47 C46 1.415 . S
C48 C46 1.501 . S
C48 C49 1.384 . S
C48 C53 1.408 . S
C49 H39 0.930 . S
C49 C48 1.384 . S
C49 C50 1.389 . S
C50 C49 1.389 . S
C50 C51 1.405 . S
C51 H40 0.930 . S
C51 C50 1.405 . S
C51 C52 1.364 . S
C52 C51 1.364 . S
C52 C53 1.400 . S
C53 H41 0.931 . S
C53 C48 1.408 . S
C53 C52 1.400 . S
H54 C60 0.930 . S
H55 C63 0.931 . S
H56 C65 0.931 . S
H57 C67 0.930 . S
H58 C69 0.930 . S
H59 C71 0.931 . S
C60 H54 0.930 . S
C60 C61 1.380 . S
C60 C62 1.394 . S
C61 C60 1.380 . S
C61 C65 1.382 . S
C62 C60 1.394 . S
C62 C63 1.400 . S
C63 H55 0.931 . S
C63 C62 1.400 . S
C63 C64 1.375 . S
C64 C63 1.375 . S
C64 C65 1.415 . S
C64 C66 1.501 . S
C65 H56 0.931 . S
C65 C61 1.382 . S
C65 C64 1.415 . S
C66 C64 1.501 . S
C66 C67 1.384 . S
C66 C71 1.408 . S
C67 H57 0.930 . S
C67 C66 1.384 . S
C67 C68 1.389 . S
C68 C67 1.389 . S
C68 C69 1.405 . S
C69 H58 0.930 . S
C69 C68 1.405 . S
C69 C70 1.364 . S
C70 C69 1.364 . S
C70 C71 1.400 . S
C71 H59 0.931 . S
C71 C66 1.408 . S
C71 C70 1.400 . S
H72 C78 0.930 . S
H73 C81 0.931 . S
H74 C83 0.931 . S
H75 C85 0.930 . S
H76 C87 0.930 . S
H77 C89 0.931 . S
C78 H72 0.930 . S
C78 C79 1.380 . S
C78 C80 1.394 . S
C79 C78 1.380 . S
C79 C83 1.382 . S
C80 C78 1.394 . S
C80 C81 1.400 . S
C81 H73 0.931 . S
C81 C80 1.400 . S
C81 C82 1.375 . S
C82 C81 1.375 . S
C82 C83 1.415 . S
C82 C84 1.501 . S
C83 H74 0.931 . S
C83 C79 1.382 . S
C83 C82 1.415 . S
C84 C82 1.501 . S
C84 C85 1.384 . S
C84 C89 1.408 . S
C85 H75 0.930 . S
C85 C84 1.384 . S
C85 C86 1.389 . S
C86 C85 1.389 . S
C86 C87 1.405 . S
C87 H76 0.930 . S
C87 C86 1.405 . S
C87 C88 1.364 . S
C88 C87 1.364 . S
C88 C89 1.400 . S
C89 H77 0.931 . S
C89 C84 1.408 . S
C89 C88 1.400 . S
H90 C96 0.930 . S
H91 C99 0.931 . S
H92 C101 0.931 . S
H93 C103 0.930 . S
H94 C105 0.930 . S
H95 C107 0.931 . S
C96 H90 0.930 . S
C96 C97 1.380 . S
C96 C98 1.394 . S
C97 C96 1.380 . S
C97 C101 1.382 . S
C98 C96 1.394 . S
C98 C99 1.400 . S
C99 H91 0.931 . S
C99 C98 1.400 . S
C99 C100 1.375 . S
C100 C99 1.375 . S
C100 C101 1.415 . S
C100 C102 1.501 . S
C101 H92 0.931 . S
C101 C97 1.382 . S
C101 C100 1.415 . S
C102 C100 1.501 . S
C102 C103 1.384 . S
C102 C107 1.408 . S
C103 H93 0.930 . S
C103 C102 1.384 . S
C103 C104 1.389 . S
C104 C103 1.389 . S
C104 C105 1.405 . S
C105 H94 0.930 . S
C105 C104 1.405 . S
C105 C106 1.364 . S
C106 C105 1.364 . S
C106 C107 1.400 . S
C107 H95 0.931 . S
C107 C102 1.408 . S
C107 C106 1.400 . S
H108 C114 0.930 . S
H109 C117 0.931 . S
H110 C119 0.931 . S
H111 C121 0.930 . S
H112 C123 0.930 . S
H113 C125 0.931 . S
C114 H108 0.930 . S
C114 C115 1.380 . S
C114 C116 1.394 . S
C115 C114 1.380 . S
C115 C119 1.382 . S
C116 C114 1.394 . S
C116 C117 1.400 . S
C117 H109 0.931 . S
C117 C116 1.400 . S
C117 C118 1.375 . S
C118 C117 1.375 . S
C118 C119 1.415 . S
C118 C120 1.501 . S
C119 H110 0.931 . S
C119 C115 1.382 . S
C119 C118 1.415 . S
C120 C118 1.501 . S
C120 C121 1.384 . S
C120 C125 1.408 . S
C121 H111 0.930 . S
C121 C120 1.384 . S
C121 C122 1.389 . S
C122 C121 1.389 . S
C122 C123 1.405 . S
C123 H112 0.930 . S
C123 C122 1.405 . S
C123 C124 1.364 . S
C124 C123 1.364 . S
C124 C125 1.400 . S
C125 H113 0.931 . S
C125 C120 1.408 . S
C125 C124 1.400 . S
H126 C132 0.930 . S
H127 C135 0.931 . S
H128 C137 0.931 . S
H129 C139 0.930 . S
H130 C141 0.930 . S
H131 C143 0.931 . S
C132 H126 0.930 . S
C132 C133 1.380 . S
C132 C134 1.394 . S
C133 C132 1.380 . S
C133 C137 1.382 . S
C134 C132 1.394 . S
C134 C135 1.400 . S
C135 H127 0.931 . S
C135 C134 1.400 . S
C135 C136 1.375 . S
C136 C135 1.375 . S
C136 C137 1.415 . S
C136 C138 1.501 . S
C137 H128 0.931 . S
C137 C133 1.382 . S
C137 C136 1.415 . S
C138 C136 1.501 . S
C138 C139 1.384 . S
C138 C143 1.408 . S
C139 H129 0.930 . S
C139 C138 1.384 . S
C139 C140 1.389 . S
C140 C139 1.389 . S
C140 C141 1.405 . S
C141 H130 0.930 . S
C141 C140 1.405 . S
C141 C142 1.364 . S
C142 C141 1.364 . S
C142 C143 1.400 . S
C143 H131 0.931 . S
C143 C138 1.408 . S
C143 C142 1.400 . S
C144 O146 1.247 . S
C144 O148 1.258 . S
C145 O152 1.247 . S
C145 O153 1.258 . S
O146 C144 1.247 . S
O146 Zn147 2.028 1_655 S
Zn147 O146 2.028 1_455 S
Zn147 O151 2.035 . S
Zn147 O153 2.035 . S
Zn147 O154 2.028 1_455 S
O148 C144 1.258 . S
O148 Zn149 2.035 1_655 S
Zn149 O148 2.035 1_455 S
Zn149 O150 2.028 . S
Zn149 O152 2.028 . S
Zn149 O155 2.035 1_455 S
O150 Zn149 2.028 . S
O150 C156 1.247 . S
O151 Zn147 2.035 . S
O151 C156 1.258 . S
O152 C145 1.247 . S
O152 Zn149 2.028 . S
O153 C145 1.258 . S
O153 Zn147 2.035 . S
O154 Zn147 2.028 1_655 S
O154 C157 1.247 . S
O155 Zn149 2.035 1_655 S
O155 C157 1.258 . S
C156 O150 1.247 . S
C156 O151 1.258 . S
C157 O154 1.247 . S
C157 O155 1.258 . S
C158 O160 1.247 . S
C158 O162 1.258 . S
C159 O166 1.247 . S
C159 O167 1.258 . S
O160 C158 1.247 . S
O160 Zn161 2.028 . S
Zn161 O160 2.028 . S
Zn161 O165 2.035 1_545 S
Zn161 O167 2.035 1_545 S
Zn161 O168 2.028 . S
O162 C158 1.258 . S
O162 Zn163 2.035 . S
Zn163 O162 2.035 . S
Zn163 O164 2.028 1_545 S
Zn163 O166 2.028 1_545 S
Zn163 O169 2.035 . S
O164 Zn163 2.028 1_565 S
O164 C170 1.247 . S
O165 Zn161 2.035 1_565 S
O165 C170 1.258 . S
O166 C159 1.247 . S
O166 Zn163 2.028 1_565 S
O167 C159 1.258 . S
O167 Zn161 2.035 1_565 S
O168 Zn161 2.028 . S
O168 C171 1.247 . S
O169 Zn163 2.035 . S
O169 C171 1.258 . S
C170 O164 1.247 . S
C170 O165 1.258 . S
C171 O168 1.247 . S
C171 O169 1.258 . S
C172 O174 1.247 . S
C172 O176 1.258 . S
C173 O180 1.247 . S
C173 O181 1.258 . S
O174 C172 1.247 . S
O174 Zn175 2.028 1_655 S
Zn175 O174 2.028 1_455 S
Zn175 O179 2.035 . S
Zn175 O181 2.035 . S
Zn175 O182 2.028 1_455 S
O176 C172 1.258 . S
O176 Zn177 2.035 1_655 S
Zn177 O176 2.035 1_455 S
Zn177 O178 2.028 . S
Zn177 O180 2.028 . S
Zn177 O183 2.035 1_455 S
O178 Zn177 2.028 . S
O178 C184 1.247 . S
O179 Zn175 2.035 . S
O179 C184 1.258 . S
O180 C173 1.247 . S
O180 Zn177 2.028 . S
O181 C173 1.258 . S
O181 Zn175 2.035 . S
O182 Zn175 2.028 1_655 S
O182 C185 1.247 . S
O183 Zn177 2.035 1_655 S
O183 C185 1.258 . S
C184 O178 1.247 . S
C184 O179 1.258 . S
C185 O182 1.247 . S
C185 O183 1.258 . S
C186 O188 1.247 . S
C186 O190 1.258 . S
C187 O194 1.247 . S
C187 O195 1.258 . S
O188 C186 1.247 . S
O188 Zn189 2.028 . S
Zn189 O188 2.028 . S
Zn189 O193 2.035 1_545 S
Zn189 O195 2.035 1_545 S
Zn189 O196 2.028 . S
O190 C186 1.258 . S
O190 Zn191 2.043 . S
Zn191 O190 2.043 . S
Zn191 O192 2.020 1_545 S
Zn191 O194 2.020 1_545 S
Zn191 O197 2.043 . S
O192 Zn191 2.020 1_565 S
O192 C198 1.247 . S
O193 Zn189 2.035 1_565 S
O193 C198 1.258 . S
O194 C187 1.247 . S
O194 Zn191 2.020 1_565 S
O195 C187 1.258 . S
O195 Zn189 2.035 1_565 S
O196 Zn189 2.028 . S
O196 C199 1.247 . S
O197 Zn191 2.043 . S
O197 C199 1.258 . S
C198 O192 1.247 . S
C198 O193 1.258 . S
C199 O196 1.247 . S
C199 O197 1.258 . S
C200 O202 1.247 . S
C200 O204 1.258 . S
C201 O208 1.247 . S
C201 O209 1.258 . S
O202 C200 1.247 . S
O202 Zn203 2.029 . S
Zn203 O202 2.029 . S
Zn203 O207 2.036 . S
Zn203 O209 2.034 1_554 S
Zn203 O210 2.027 1_554 S
O204 C200 1.258 . S
O204 Zn205 2.035 . S
Zn205 O204 2.035 . S
Zn205 O206 2.028 . S
Zn205 O208 2.028 1_554 S
Zn205 O211 2.035 1_554 S
O206 Zn205 2.028 . S
O206 C212 1.247 . S
O207 Zn203 2.036 . S
O207 C212 1.258 . S
O208 C201 1.247 . S
O208 Zn205 2.028 1_556 S
O209 C201 1.258 . S
O209 Zn203 2.034 1_556 S
O210 Zn203 2.027 1_556 S
O210 C213 1.247 . S
O211 Zn205 2.035 1_556 S
O211 C213 1.258 . S
C212 O206 1.247 . S
C212 O207 1.258 . S
C213 O210 1.247 . S
C213 O211 1.258 . S
C214 O216 1.247 . S
C214 O218 1.258 . S
C215 O222 1.247 . S
C215 O223 1.258 . S
O216 C214 1.247 . S
O216 Zn217 2.028 . S
Zn217 O216 2.028 . S
Zn217 O221 2.035 . S
Zn217 O223 2.035 1_554 S
Zn217 O224 2.028 1_554 S
O218 C214 1.258 . S
O218 Zn219 2.035 . S
Zn219 O218 2.035 . S
Zn219 O220 2.028 . S
Zn219 O222 2.028 1_554 S
Zn219 O225 2.035 1_554 S
O220 Zn219 2.028 . S
O220 C226 1.247 . S
O221 Zn217 2.035 . S
O221 C226 1.258 . S
O222 C215 1.247 . S
O222 Zn219 2.028 1_556 S
O223 C215 1.258 . S
O223 Zn217 2.035 1_556 S
O224 Zn217 2.028 1_556 S
O224 C227 1.247 . S
O225 Zn219 2.035 1_556 S
O225 C227 1.258 . S
C226 O220 1.247 . S
C226 O221 1.258 . S
C227 O224 1.247 . S
C227 O225 1.258 . S
C228 O230 1.247 . S
C228 O232 1.258 . S
C229 O236 1.247 . S
C229 O237 1.258 . S
O230 C228 1.247 . S
O230 Zn231 2.028 1_556 S
Zn231 O230 2.028 1_554 S
Zn231 O235 2.035 1_554 S
Zn231 O237 2.035 . S
Zn231 O238 2.028 . S
O232 C228 1.258 . S
O232 Zn233 2.035 1_556 S
Zn233 O232 2.035 1_554 S
Zn233 O234 2.028 1_554 S
Zn233 O236 2.028 . S
Zn233 O239 2.035 . S
O234 Zn233 2.028 1_556 S
O234 C240 1.247 . S
O235 Zn231 2.035 1_556 S
O235 C240 1.258 . S
O236 C229 1.247 . S
O236 Zn233 2.028 . S
O237 C229 1.258 . S
O237 Zn231 2.035 . S
O238 Zn231 2.028 . S
O238 C241 1.247 . S
O239 Zn233 2.035 . S
O239 C241 1.258 . S
C240 O234 1.247 . S
C240 O235 1.258 . S
C241 O238 1.247 . S
C241 O239 1.258 . S
C242 O244 1.247 . S
C242 O246 1.258 . S
C243 O250 1.247 . S
C243 O251 1.258 . S
O244 C242 1.247 . S
O244 Zn245 2.038 . S
Zn245 O244 2.038 . S
Zn245 O249 2.045 . S
Zn245 O251 2.026 1_554 S
Zn245 O252 2.018 1_554 S
O246 C242 1.258 . S
O246 Zn247 2.035 . S
Zn247 O246 2.035 . S
Zn247 O248 2.028 . S
Zn247 O250 2.028 1_554 S
Zn247 O253 2.035 1_554 S
O248 Zn247 2.028 . S
O248 C254 1.247 . S
O249 Zn245 2.045 . S
O249 C254 1.258 . S
O250 C243 1.247 . S
O250 Zn247 2.028 1_556 S
O251 C243 1.258 . S
O251 Zn245 2.026 1_556 S
O252 Zn245 2.018 1_556 S
O252 C255 1.247 . S
O253 Zn247 2.035 1_556 S
O253 C255 1.258 . S
C254 O248 1.247 . S
C254 O249 1.258 . S
C255 O252 1.247 . S
C255 O253 1.258 . S
C145 C7 1.448 . S
C171 C32 1.471 . S
C185 C44 1.461 . S
C187 C62 1.457 . S
C88 C184 1.440 . S
C186 C106 1.441 . S
C144 C124 1.444 . S
C170 C140 1.471 . S
C172 C142 1.431 . S
C198 C86 1.432 . S
C156 C104 1.437 . S
C158 C122 1.439 . S
C157 C34 1.432 . S
C159 C43 1.433 . S
C173 C61 1.424 . S
C199 C8 1.431 . S
C201 C133 1.447 . S
C80 C227 1.465 . S
C98 C240 1.464 . S
C116 C243 1.460 . S
C25 C241 1.448 . S
C52 C242 1.441 . S
C70 C200 1.445 . S
C226 C14 1.468 . S
C229 C16 1.433 . S
C26 C254 1.430 . S
C50 C212 1.437 . S
C68 C214 1.438 . S
C213 C79 1.434 . S
C215 C97 1.432 . S
C115 C228 1.427 . S
C255 C134 1.431 . S
