# Generated by pormake.
# Topology zzz, (3,6)-cn, num edge types: 1
# Building blocks:
#     Node 0, Type 0, BuildingBlock: CUQRIR_clean_linker_1, # of connection points: 3
#     Node 1, Type 0, BuildingBlock: CUQRIR_clean_linker_1, # of connection points: 3
#     Node 2, Type 0, BuildingBlock: CUQRIR_clean_linker_1, # of connection points: 3
#     Node 3, Type 0, BuildingBlock: CUQRIR_clean_linker_1, # of connection points: 3
#     Node 4, Type 0, BuildingBlock: CUQRIR_clean_linker_1, # of connection points: 3
#     Node 5, Type 0, BuildingBlock: CUQRIR_clean_linker_1, # of connection points: 3
#     Node 6, Type 0, BuildingBlock: CUQRIR_clean_linker_1, # of connection points: 3
#     Node 7, Type 0, BuildingBlock: CUQRIR_clean_linker_1, # of connection points: 3
#     Node 8, Type 1, BuildingBlock: HISSIN_clean_sbu_0, # of connection points: 6
#     Node 9, Type 1, BuildingBlock: HISSIN_clean_sbu_0, # of connection points: 6
#     Node 10, Type 1, BuildingBlock: HISSIN_clean_sbu_0, # of connection points: 6
#     Node 11, Type 1, BuildingBlock: HISSIN_clean_sbu_0, # of connection points: 6
#     Edge 12, Type (0, 1), BuildingBlock: TEMPAE_clean_linker_10, # of connection points: 2
#     Edge 13, Type (0, 1), BuildingBlock: TEMPAE_clean_linker_10, # of connection points: 2
#     Edge 14, Type (0, 1), BuildingBlock: TEMPAE_clean_linker_10, # of connection points: 2
#     Edge 15, Type (0, 1), BuildingBlock: TEMPAE_clean_linker_10, # of connection points: 2
#     Edge 16, Type (0, 1), BuildingBlock: TEMPAE_clean_linker_10, # of connection points: 2
#     Edge 17, Type (0, 1), BuildingBlock: TEMPAE_clean_linker_10, # of connection points: 2
#     Edge 18, Type (0, 1), BuildingBlock: TEMPAE_clean_linker_10, # of connection points: 2
#     Edge 19, Type (0, 1), BuildingBlock: TEMPAE_clean_linker_10, # of connection points: 2
#     Edge 20, Type (0, 1), BuildingBlock: TEMPAE_clean_linker_10, # of connection points: 2
#     Edge 21, Type (0, 1), BuildingBlock: TEMPAE_clean_linker_10, # of connection points: 2
#     Edge 22, Type (0, 1), BuildingBlock: TEMPAE_clean_linker_10, # of connection points: 2
#     Edge 23, Type (0, 1), BuildingBlock: TEMPAE_clean_linker_10, # of connection points: 2
#     Edge 24, Type (0, 1), BuildingBlock: TEMPAE_clean_linker_10, # of connection points: 2
#     Edge 25, Type (0, 1), BuildingBlock: TEMPAE_clean_linker_10, # of connection points: 2
#     Edge 26, Type (0, 1), BuildingBlock: TEMPAE_clean_linker_10, # of connection points: 2
#     Edge 27, Type (0, 1), BuildingBlock: TEMPAE_clean_linker_10, # of connection points: 2
#     Edge 28, Type (0, 1), BuildingBlock: TEMPAE_clean_linker_10, # of connection points: 2
#     Edge 29, Type (0, 1), BuildingBlock: TEMPAE_clean_linker_10, # of connection points: 2
#     Edge 30, Type (0, 1), BuildingBlock: TEMPAE_clean_linker_10, # of connection points: 2
#     Edge 31, Type (0, 1), BuildingBlock: TEMPAE_clean_linker_10, # of connection points: 2
#     Edge 32, Type (0, 1), BuildingBlock: TEMPAE_clean_linker_10, # of connection points: 2
#     Edge 33, Type (0, 1), BuildingBlock: TEMPAE_clean_linker_10, # of connection points: 2
#     Edge 34, Type (0, 1), BuildingBlock: TEMPAE_clean_linker_10, # of connection points: 2
#     Edge 35, Type (0, 1), BuildingBlock: TEMPAE_clean_linker_10, # of connection points: 2
# Relax obj value: 0.315
# Max RMSD: 0.201
# Mean RMSD: 0.108
data_MOF--net-zzz--node1-HISSIN_clean_sbu_0--node2-CUQRIR_clean_linker_1--edge1-TEMPAE_clean_linker_10
_symmetry_space_group_name_H-M    P1
_symmetry_Int_Tables_number       1
_symmetry_cell_setting            triclinic
loop_
_symmetry_equiv_pos_as_xyz
'x, y, z'
_cell_length_a     47.717247
_cell_length_b     47.72647
_cell_length_c     15.113973
_cell_angle_alpha  89.783525
_cell_angle_beta   92.297062
_cell_angle_gamma 90.565164
loop_
_atom_site_label
_atom_site_type_symbol
_atom_site_fract_x
_atom_site_fract_y
_atom_site_fract_z
_atom_type_partial_charge
C0 C 0.75376 0.53262 0.3396 0.0
N1 N 0.7786 0.51981 0.36085 0.0
N2 N 0.73879 0.51808 0.27533 0.0
C3 C 0.7447 0.55971 0.37862 0.0
C4 C 0.75574 0.49624 0.25821 0.0
N5 N 0.77951 0.49722 0.3101 0.0
C6 C 0.74978 0.47488 0.18659 0.0
H7 H 0.753 0.56176 0.44796 0.0
H8 H 0.72149 0.56115 0.37623 0.0
H9 H 0.75328 0.57729 0.33944 0.0
H10 H 0.74038 0.48512 0.12655 0.0
H11 H 0.73445 0.45925 0.21042 0.0
H12 H 0.76892 0.46357 0.16881 0.0
C13 C 0.01665 0.75332 0.33831 0.0
N14 N 0.01423 0.78192 0.34162 0.0
N15 N 1.01239 0.74345 0.25339 0.0
C16 C 0.02337 0.73517 0.41711 0.0
C17 C 1.00766 0.76727 0.20592 0.0
N18 N 1.00864 0.79015 0.25884 0.0
C19 C 1.00253 0.76816 0.10703 0.0
H20 H 0.04646 0.73285 0.42433 0.0
H21 H 1.01383 0.71402 0.40792 0.0
H22 H 0.01589 0.74489 0.47833 0.0
H23 H 0.98016 0.76305 0.09133 0.0
H24 H 0.01551 0.75232 0.0746 0.0
H25 H 1.0071 0.78917 0.07927 0.0
C26 C 0.79464 0.01815 0.32687 0.0
N27 N 0.7658 0.0163 0.32884 0.0
N28 N 0.80409 0.01517 0.24206 0.0
C29 C 0.81349 0.02289 0.40695 0.0
C30 C 0.77973 0.01181 0.1935 0.0
N31 N 0.75714 0.01234 0.24518 0.0
C32 C 0.77806 1.00825 0.09447 0.0
H33 H 0.81662 0.04578 0.4162 0.0
H34 H 0.83427 0.01328 0.39803 0.0
H35 H 0.80383 0.01422 0.46691 0.0
H36 H 0.78256 0.98612 0.07853 0.0
H37 H 0.79403 0.02167 0.06316 0.0
H38 H 0.75699 0.01335 0.06571 0.0
C39 C 0.52833 0.79471 0.33234 0.0
N40 N 0.51416 0.7699 0.34465 0.0
N41 N 0.51521 0.8109 0.26787 0.0
C42 C 0.55424 0.80353 0.38453 0.0
C43 C 0.493 0.79469 0.24099 0.0
N44 N 0.49226 0.77047 0.28748 0.0
C45 C 0.47332 0.80136 0.16334 0.0
H46 H 0.55576 0.82672 0.38832 0.0
H47 H 0.57285 0.79575 0.35082 0.0
H48 H 0.55433 0.7944 0.45218 0.0
H49 H 0.48405 0.81411 0.11304 0.0
H50 H 0.45542 0.81349 0.1872 0.0
H51 H 0.46481 0.78204 0.13133 0.0
C52 C 0.30132 0.51921 0.08342 0.0
N53 N 0.27269 0.51783 0.08165 0.0
N54 N 0.31226 0.51704 0.16832 0.0
C55 C 0.31831 0.52419 1.00364 0.0
C56 C 0.28928 0.5143 0.21727 0.0
N57 N 0.26564 0.51469 0.16519 0.0
C58 C 0.28996 0.5121 0.31664 0.0
H59 H 0.30993 0.51121 0.94766 0.0
H60 H 0.34075 0.5194 0.01793 0.0
H61 H 0.31643 0.54651 0.98363 0.0
H62 H 0.29146 0.53351 0.34493 0.0
H63 H 0.30859 0.50023 0.34125 0.0
H64 H 0.27065 0.5018 0.33998 0.0
C65 C 0.0295 0.29666 0.12562 0.0
N66 N 0.03215 0.26809 0.12267 0.0
N67 N 0.03246 0.30651 0.2109 0.0
C68 C 0.02323 0.31464 0.04612 0.0
C69 C 0.03685 0.28279 0.25887 0.0
N70 N 0.03674 0.25991 0.20604 0.0
C71 C 0.04036 0.28196 0.35815 0.0
H72 H 0.03609 0.30794 0.99053 0.0
H73 H 0.02727 0.3371 0.06116 0.0
H74 H 1.00084 0.31178 0.02512 0.0
H75 H 0.01943 0.28384 0.38688 0.0
H76 H 0.05347 0.2999 0.38235 0.0
H77 H 0.05002 0.26208 0.38152 0.0
C78 C 0.25357 0.0312 0.13117 0.0
N79 N 0.28239 0.03341 0.12889 0.0
N80 N 0.2441 0.03481 0.21572 0.0
C81 C 0.23478 0.02548 0.05162 0.0
C82 C 0.26844 0.03892 0.26383 0.0
N83 N 0.29103 0.03822 0.21214 0.0
C84 C 0.27007 0.04336 0.3625 0.0
H85 H 0.21368 0.03441 0.06035 0.0
H86 H 0.23246 1.00247 0.0434 0.0
H87 H 0.24407 0.03422 0.99114 0.0
H88 H 0.25447 0.02981 0.39506 0.0
H89 H 0.26498 0.06549 0.37654 0.0
H90 H 0.29129 0.03905 0.39161 0.0
C91 C 0.52651 0.25187 0.11708 0.0
N92 N 0.54155 0.2762 0.10487 0.0
N93 N 0.53865 0.23554 0.18302 0.0
C94 C 0.5008 0.24356 0.06306 0.0
C95 C 0.56116 0.25113 0.21086 0.0
N96 N 0.56308 0.27509 0.16344 0.0
C97 C 0.57988 0.24431 0.2908 0.0
H98 H 0.48212 0.25211 0.0946 0.0
H99 H 0.49859 0.22041 0.06032 0.0
H100 H 0.50158 0.2523 0.99505 0.0
H101 H 0.5981 0.23222 0.26912 0.0
H102 H 0.56853 0.23158 0.33972 0.0
H103 H 0.58798 0.26359 0.32405 0.0
Eu104 Eu 1.00174 0.03274 0.6512 0.0
Eu105 Eu 0.04653 0.0178 0.80805 0.0
C106 C 0.02434 0.08355 0.78249 0.0
C107 C 0.97049 0.03751 0.42378 0.0
C108 C 0.9961 0.02659 0.39759 0.0
C109 C 0.96883 0.06755 0.2954 0.0
C110 C 1.00954 0.0388 0.32664 0.0
C111 C 0.9555 0.05554 0.36679 0.0
C112 C 0.99733 0.0619 0.28291 0.0
C113 C 0.96578 0.03935 0.51847 0.0
O114 O 1.00475 0.01442 0.88087 0.0
O115 O 0.97357 0.02866 0.77085 0.0
C116 C 0.97882 0.02093 0.85392 0.0
O117 O 1.00947 0.98604 0.63234 0.0
O118 O 0.07987 0.0344 0.8973 0.0
O119 O 0.069 0.9904 0.90097 0.0
O120 O 0.03847 0.97389 0.75002 0.0
C121 C 0.02356 0.96688 0.67798 0.0
O122 O 0.04343 0.03561 0.57775 0.0
O123 O 0.07479 0.02236 0.68861 0.0
O124 O 0.03822 0.06431 0.82842 0.0
O125 O 0.96795 0.01615 0.56364 0.0
O126 O 0.97953 0.05996 0.55715 0.0
O127 O 1.00982 0.07666 0.70952 0.0
C128 C 0.07706 0.01221 0.03582 0.0
C129 C 0.09171 0.99376 0.09235 0.0
C130 C 0.03769 1.0108 0.13174 0.0
C131 C 0.0781 0.98161 0.16297 0.0
C132 C 0.05141 0.02315 0.06159 0.0
C133 C 0.04966 0.98758 0.17538 0.0
C134 C 0.08224 1.01099 0.94131 0.0
C135 C 0.06945 0.02957 0.60508 0.0
H136 H 1.00775 0.01209 0.44 0.0
H137 H 0.95846 0.08479 0.26117 0.0
H138 H 0.0311 0.03335 0.31589 0.0
H139 H 0.93548 0.06378 0.38523 0.0
H140 H 0.11172 0.98544 0.07413 0.0
H141 H 0.01617 0.01643 0.14238 0.0
H142 H 0.08823 0.9642 0.19699 0.0
H143 H 0.03999 0.03791 0.01949 0.0
Eu144 Eu 0.53314 0.04703 0.80066 0.0
Eu145 Eu 0.51477 1.00134 0.6548 0.0
C146 C 0.52926 0.981 0.86162 0.0
C147 C 0.53758 0.08379 0.01588 0.0
C148 C 0.52473 0.05951 0.0491 0.0
C149 C 0.56784 0.08631 0.14657 0.0
C150 C 0.53612 0.04682 0.12541 0.0
C151 C 0.55646 0.09898 0.07043 0.0
C152 C 0.56039 0.05845 0.16661 0.0
C153 C 0.54102 0.08564 0.92055 0.0
O154 O 0.47157 1.0099 0.71405 0.0
O155 O 0.48681 0.03797 0.82862 0.0
C156 C 0.46621 0.02426 0.7862 0.0
O157 O 0.52856 0.07309 0.67458 0.0
O158 O 0.48683 0.97882 0.56232 0.0
O159 O 0.52958 0.96484 0.58394 0.0
O160 O 0.511 0.04163 0.57206 0.0
C161 C 0.51917 0.06731 0.5936 0.0
O162 O 0.57636 0.03834 0.74203 0.0
O163 O 0.5611 1.01049 0.6269 0.0
O164 O 0.51987 0.9752 0.78062 0.0
O165 O 0.56096 0.06971 0.89301 0.0
O166 O 0.51822 0.08366 0.87058 0.0
O167 O 0.53714 1.00675 0.8834 0.0
C168 C 0.51016 0.96529 0.43867 0.0
C169 C 0.52309 0.98967 0.40648 0.0
C170 C 0.48002 0.96334 0.30751 0.0
C171 C 0.51176 1.0027 0.33065 0.0
C172 C 0.49128 0.95036 0.38333 0.0
C173 C 0.48744 0.99133 0.289 0.0
C174 C 0.50676 0.96303 0.534 0.0
C175 C 0.5817 0.0241 0.66968 0.0
H176 H 0.50957 0.04777 0.00843 0.0
H177 H 0.5862 0.09608 0.17815 0.0
H178 H 0.52951 0.02567 0.14132 0.0
H179 H 0.56617 0.11803 0.04651 0.0
H180 H 0.53829 1.0012 0.44763 0.0
H181 H 0.46177 0.95365 0.27502 0.0
H182 H 0.51846 0.02388 0.31556 0.0
H183 H 0.48155 0.9312 0.40632 0.0
Eu184 Eu 0.5056 0.52887 0.78525 0.0
Eu185 Eu 0.55016 0.51304 0.63842 0.0
C186 C 0.57182 0.53042 0.83963 0.0
C187 C 0.45215 0.55926 0.94356 0.0
C188 C 0.45676 0.58713 0.91911 0.0
C189 C 0.422 0.57447 0.05938 0.0
C190 C 0.44433 0.6086 0.96506 0.0
C191 C 0.43448 0.55292 0.01302 0.0
C192 C 0.42705 0.60256 0.03629 0.0
C193 C 0.4659 0.5367 0.8975 0.0
O194 O 0.53684 0.46986 0.69375 0.0
O195 O 0.51967 0.48495 0.82414 0.0
C196 C 0.5287 0.46455 0.77493 0.0
O197 O 0.48062 0.51045 0.66624 0.0
O198 O 0.59254 0.51794 0.58997 0.0
O199 O 0.56148 0.49246 0.5175 0.0
O200 O 0.51021 0.52189 0.5579 0.0
C201 C 0.48484 0.51586 0.58231 0.0
O202 O 0.51222 0.57185 0.7197 0.0
O203 O 0.54498 0.56022 0.61832 0.0
O204 O 0.57563 0.51539 0.76839 0.0
O205 O 0.46176 0.53616 0.81191 0.0
O206 O 0.49195 0.532 0.92121 0.0
O207 O 0.54734 0.54205 0.85242 0.0
C208 C 0.60851 0.47942 0.50898 0.0
C209 C 0.6054 0.45268 0.54583 0.0
C210 C 0.64517 0.46213 0.41776 0.0
C211 C 0.62072 0.43039 0.51437 0.0
C212 C 0.62944 0.48439 0.44832 0.0
C213 C 0.6396 0.43456 0.44597 0.0
C214 C 0.5876 0.50095 0.52365 0.0
C215 C 0.52866 0.57881 0.65445 0.0
H216 H 0.47045 0.5923 0.86576 0.0
H217 H 0.40891 0.56925 0.11414 0.0
H218 H 0.44934 0.63002 0.9472 0.0
H219 H 0.43073 0.53136 0.03231 0.0
H220 H 0.58949 0.44858 0.59358 0.0
H221 H 0.66006 0.46618 0.36703 0.0
H222 H 0.61556 0.40958 0.53779 0.0
H223 H 0.63233 0.50508 0.42014 0.0
Eu224 Eu 0.0276 0.54767 0.65768 0.0
Eu225 Eu 0.01855 0.5013 0.80945 0.0
C226 C 0.08271 0.52288 0.76767 0.0
C227 C 0.03779 0.5747 0.43133 0.0
C228 C 0.05744 0.59175 0.39002 0.0
C229 C 0.04774 0.53674 0.33164 0.0
C230 C 0.07361 0.58059 0.32409 0.0
C231 C 0.03138 0.54798 0.39664 0.0
C232 C 0.07038 0.55225 0.30055 0.0
C233 C 0.02999 0.58131 0.52165 0.0
O234 O 1.01052 0.5432 0.88049 0.0
O235 O 0.02969 0.57425 0.78265 0.0
C236 C 0.01963 0.5688 0.86105 0.0
O237 O 0.98193 0.55041 0.69219 0.0
O238 O 0.02952 0.48375 0.93936 0.0
O239 O 0.99862 0.46264 0.85443 0.0
O240 O 0.97608 0.50524 0.73436 0.0
C241 C 0.96547 0.52853 0.70112 0.0
O242 O 0.02364 0.50584 0.58223 0.0
O243 O 0.03314 0.47496 0.6947 0.0
O244 O 0.0654 0.50906 0.81781 0.0
O245 O 1.00685 0.56974 0.54709 0.0
O246 O 0.0503 0.57889 0.58149 0.0
O247 O 0.07326 0.53745 0.69841 0.0
C248 C 0.99533 0.45626 1.00801 0.0
C249 C 0.98366 0.4777 0.05707 0.0
C250 C 0.97268 0.42152 0.09948 0.0
C251 C 0.96623 0.4711 0.12599 0.0
C252 C 0.99031 0.42818 0.03067 0.0
C253 C 0.96006 0.44296 0.14667 0.0
C254 C 1.01196 0.46278 0.93127 0.0
C255 C 0.02913 0.48009 0.60951 0.0
H256 H 0.06251 0.61246 0.41551 0.0
H257 H 0.04485 0.51493 0.31344 0.0
H258 H 0.091 0.59292 0.30052 0.0
H259 H 0.01594 0.53456 0.42651 0.0
H260 H 0.98729 0.4995 0.04033 0.0
H261 H 0.96832 0.39972 0.11425 0.0
H262 H 0.95636 0.48813 0.15985 0.0
H263 H 0.99941 0.4114 0.99351 0.0
C264 C 0.199 1.01048 0.25721 0.0
C265 C 0.21567 0.03498 0.25201 0.0
C266 C 0.1742 1.00931 0.30786 0.0
C267 C 0.16525 0.0331 0.35617 0.0
C268 C 0.18152 0.05811 0.34802 0.0
C269 C 0.20615 0.05867 0.29734 0.0
C270 C 0.15798 0.98212 0.31203 0.0
C271 C 0.17337 0.08435 0.39547 0.0
C272 C 0.08963 0.03727 0.44961 0.0
C273 C 0.09373 0.03048 0.5403 0.0
C274 C 0.11211 0.03788 0.38944 0.0
C275 C 0.14019 0.03157 0.4188 0.0
C276 C 0.14437 0.02449 0.51012 0.0
C277 C 0.12155 0.02406 0.56861 0.0
C278 C 0.10568 0.04584 0.2942 0.0
C279 C 0.17331 0.01736 0.54672 0.0
H280 H 0.20602 0.99179 0.2246 0.0
H281 H 0.21866 0.07771 0.2952 0.0
H282 H 0.15916 0.97384 0.38078 0.0
H283 H 0.13551 0.98568 0.29414 0.0
H284 H 0.16614 0.96603 0.26706 0.0
H285 H 0.18682 0.1026 0.37881 0.0
H286 H 0.15119 0.08953 0.37825 0.0
H287 H 0.17509 0.08084 0.46809 0.0
H288 H 0.06864 0.04218 0.42521 0.0
H289 H 0.12566 0.0186 0.63751 0.0
H290 H 0.11619 0.03147 0.24879 0.0
H291 H 0.11386 0.06729 0.282 0.0
H292 H 0.08279 0.04554 0.27751 0.0
H293 H 0.18181 0.99962 0.50925 0.0
H294 H 0.1734 0.01162 0.61803 0.0
H295 H 0.18768 0.03551 0.53842 0.0
C296 C 0.50523 0.20336 0.25911 0.0
C297 C 0.53102 0.20809 0.21946 0.0
C298 C 0.50055 0.17918 0.31234 0.0
C299 C 0.5223 0.15934 0.32862 0.0
C300 C 0.54781 0.16345 0.28481 0.0
C301 C 0.55159 0.18727 0.23035 0.0
C302 C 0.47267 0.17555 0.35461 0.0
C303 C 0.57217 0.14391 0.30068 0.0
C304 C 0.52664 0.11834 0.54963 0.0
C305 C 0.5186 0.09083 0.52527 0.0
C306 C 0.52744 0.14054 0.48716 0.0
C307 C 0.51961 0.1358 0.39671 0.0
C308 C 0.51113 0.10816 0.37162 0.0
C309 C 0.51101 0.08619 0.43549 0.0
C310 C 0.53741 0.16913 0.51798 0.0
C311 C 0.50223 0.10169 0.27696 0.0
H312 H 0.48922 0.21925 0.25221 0.0
H313 H 0.57158 0.19057 0.20017 0.0
H314 H 0.46463 0.15384 0.34466 0.0
H315 H 0.47532 0.179 0.42702 0.0
H316 H 0.45679 0.19046 0.3273 0.0
H317 H 0.58775 0.14596 0.2483 0.0
H318 H 0.58285 0.14909 0.36521 0.0
H319 H 0.56503 0.12178 0.30413 0.0
H320 H 0.5328 0.1226 0.61807 0.0
H321 H 0.50541 0.06521 0.41465 0.0
H322 H 0.5211 0.18496 0.50195 0.0
H323 H 0.55644 0.17535 0.48256 0.0
H324 H 0.54245 0.16971 0.59035 0.0
H325 H 0.48238 0.11271 0.25965 0.0
H326 H 0.49888 0.07889 0.26575 0.0
H327 H 0.51818 0.10949 0.23125 0.0
C328 C 0.35632 0.49382 0.21785 0.0
C329 C 0.34098 0.51848 0.20406 0.0
C330 C 0.38099 0.49336 0.2731 0.0
C331 C 0.39069 0.51816 0.31677 0.0
C332 C 0.37596 0.54346 0.29918 0.0
C333 C 0.35126 0.54322 0.24403 0.0
C334 C 0.39594 0.46595 0.28815 0.0
C335 C 0.38527 0.57056 0.34271 0.0
C336 C 0.43299 0.51071 0.53833 0.0
C337 C 0.46078 0.51561 0.51411 0.0
C338 C 0.41023 0.5115 0.47522 0.0
C339 C 0.41501 0.51724 0.38465 0.0
C340 C 0.44301 0.52208 0.35967 0.0
C341 C 0.46536 0.52129 0.4242 0.0
C342 C 0.38089 0.50641 0.50579 0.0
C343 C 0.44939 0.52861 0.26473 0.0
H344 H 0.34807 0.47452 0.18911 0.0
H345 H 0.33909 0.56216 0.23556 0.0
H346 H 0.41863 0.46858 0.27654 0.0
H347 H 0.39401 0.45923 0.35802 0.0
H348 H 0.38727 0.44909 0.24429 0.0
H349 H 0.3749 0.58899 0.31096 0.0
H350 H 0.37996 0.56998 0.4135 0.0
H351 H 0.40832 0.57341 0.3402 0.0
H352 H 0.42891 0.50648 0.60715 0.0
H353 H 0.48655 0.52535 0.40392 0.0
H354 H 0.37119 0.48832 0.46982 0.0
H355 H 0.36772 0.52496 0.49019 0.0
H356 H 0.38049 0.50218 0.57805 0.0
H357 H 0.43924 0.51292 0.21955 0.0
H358 H 0.47227 0.52903 0.25388 0.0
H359 H 0.44068 0.54938 0.24618 0.0
C360 C 1.0057 0.34586 0.27508 0.0
C361 C 0.03115 0.3349 0.24738 0.0
C362 C 1.0048 0.37065 0.32707 0.0
C363 C 0.03001 0.38502 0.35427 0.0
C364 C 0.05565 0.37452 0.32331 0.0
C365 C 0.05591 0.34974 0.27131 0.0
C366 C 0.97681 0.38092 0.35571 0.0
C367 C 0.08308 0.38902 0.34764 0.0
C368 C 0.02698 0.46047 0.45111 0.0
C369 C 0.02987 0.45599 0.54335 0.0
C370 C 0.02692 0.43798 0.38934 0.0
C371 C 0.02976 0.40974 0.41909 0.0
C372 C 0.03257 0.40512 0.5121 0.0
C373 C 0.03269 0.42799 0.57223 0.0
C374 C 0.02433 0.44474 0.29184 0.0
C375 C 0.03533 0.37577 0.54859 0.0
H376 H 0.9865 0.33436 0.25884 0.0
H377 H 0.07572 0.34123 0.25204 0.0
H378 H 0.97535 0.37788 0.42822 0.0
H379 H 0.97476 0.40368 0.34205 0.0
H380 H 0.95899 0.36967 0.32163 0.0
H381 H 0.10099 0.37961 0.31405 0.0
H382 H 0.08188 0.41156 0.32973 0.0
H383 H 0.08724 0.38773 0.42029 0.0
H384 H 0.02474 0.48171 0.42668 0.0
H385 H 0.03478 0.42377 0.64266 0.0
H386 H 1.01139 0.42882 0.25543 0.0
H387 H 0.04552 0.44471 0.26417 0.0
H388 H 0.01502 0.46572 0.27958 0.0
H389 H 0.01687 0.36293 0.52636 0.0
H390 H 0.03703 0.37536 0.6221 0.0
H391 H 0.05419 0.36573 0.52263 0.0
C392 C 0.84168 0.99146 0.15869 0.0
C393 C 0.83252 0.0149 0.20594 0.0
C394 C 0.86633 0.99208 0.10815 0.0
C395 C 0.88296 0.01693 0.10215 0.0
C396 C 0.87436 0.04045 0.1524 0.0
C397 C 0.84954 0.0392 0.20284 0.0
C398 C 0.87412 0.96613 0.05857 0.0
C399 C 0.89096 0.06745 0.15044 0.0
C400 C 0.9585 0.01244 0.00869 0.0
C401 C 0.95453 0.01995 0.91856 0.0
C402 C 0.93601 0.0117 0.06874 0.0
C403 C 0.90805 0.01862 0.03977 0.0
C404 C 0.904 0.02646 0.94905 0.0
C405 C 0.92684 0.027 0.89066 0.0
C406 C 0.94228 1.00292 0.16335 0.0
C407 C 0.8752 0.03431 0.91297 0.0
H408 H 0.82888 0.97259 0.1592 0.0
H409 H 0.84277 0.05772 0.23695 0.0
H410 H 0.87252 0.97027 0.98626 0.0
H411 H 0.8962 0.9605 0.07551 0.0
H412 H 0.86038 0.94794 0.0736 0.0
H413 H 0.88342 0.08304 0.19819 0.0
H414 H 0.91349 0.06339 0.16593 0.0
H415 H 0.88933 0.07662 0.08288 0.0
H416 H 0.9794 1.00705 0.03269 0.0
H417 H 0.92284 0.03303 0.82218 0.0
H418 H 0.93412 0.98135 0.17347 0.0
H419 H 0.93169 0.01685 0.2099 0.0
H420 H 0.96515 1.00311 0.18038 0.0
H421 H 0.86054 0.0163 0.91971 0.0
H422 H 0.87522 0.04064 0.84217 0.0
H423 H 0.86695 0.05186 0.9519 0.0
C424 C 0.50089 0.85913 0.22397 0.0
C425 C 0.52188 0.83863 0.23164 0.0
C426 C 0.50382 0.88341 0.17093 0.0
C427 C 0.52876 0.88819 0.12459 0.0
C428 C 0.55091 0.86857 0.13727 0.0
C429 C 0.54715 0.84403 0.18964 0.0
C430 C 0.47915 0.9028 0.15953 0.0
C431 C 0.57821 0.87284 0.09208 0.0
C432 C 0.52208 0.9299 0.90522 0.0
C433 C 0.53026 0.95737 0.92962 0.0
C434 C 0.52184 0.90754 0.96722 0.0
C435 C 0.53041 0.91206 0.05719 0.0
C436 C 0.53892 0.93968 0.08242 0.0
C437 C 0.53848 0.96183 0.01905 0.0
C438 C 0.51171 0.87901 0.9364 0.0
C439 C 0.54835 0.94595 0.17678 0.0
H440 H 0.4813 0.85529 0.25597 0.0
H441 H 0.56345 0.82839 0.19404 0.0
H442 H 0.48602 0.92502 0.15613 0.0
H443 H 0.46758 0.89781 0.09631 0.0
H444 H 0.46442 0.90037 0.2142 0.0
H445 H 0.59456 0.85802 0.11686 0.0
H446 H 0.57481 0.86972 0.01973 0.0
H447 H 0.58605 0.89461 0.10227 0.0
H448 H 0.51541 0.92578 0.83711 0.0
H449 H 0.54421 0.98278 0.03999 0.0
H450 H 0.49319 0.87248 0.97389 0.0
H451 H 0.52829 0.86325 0.94984 0.0
H452 H 0.50581 0.87867 0.86457 0.0
H453 H 0.53187 0.9395 0.22263 0.0
H454 H 0.55323 0.96853 0.18725 0.0
H455 H 0.56735 0.93361 0.19469 0.0
C456 C 0.69098 0.50397 0.22131 0.0
C457 C 0.71229 0.52444 0.22834 0.0
C458 C 0.66738 0.50705 0.16277 0.0
C459 C 0.6644 0.53159 0.10988 0.0
C460 C 0.68516 0.55308 0.12035 0.0
C461 C 0.70883 0.54921 0.17886 0.0
C462 C 0.64638 0.48321 0.15711 0.0
C463 C 0.68298 0.57972 0.06674 0.0
C464 C 0.62247 0.52277 0.88917 0.0
C465 C 0.59572 0.53288 0.90795 0.0
C466 C 0.64491 0.52302 0.95306 0.0
C467 C 0.641 0.53368 0.03913 0.0
C468 C 0.61418 0.54422 0.05853 0.0
C469 C 0.59201 0.54384 0.99299 0.0
C470 C 0.67264 0.51071 0.92936 0.0
C471 C 0.60863 0.55491 0.14983 0.0
H472 H 0.69336 0.48484 0.25954 0.0
H473 H 0.72528 0.56501 0.1829 0.0
H474 H 0.63475 0.48246 0.21923 0.0
H475 H 0.63093 0.48483 0.10071 0.0
H476 H 0.65759 0.46305 0.15149 0.0
H477 H 0.69917 0.59546 0.08797 0.0
H478 H 0.68552 0.57493 0.99573 0.0
H479 H 0.66192 0.58904 0.07265 0.0
H480 H 0.62589 0.51415 0.8243 0.0
H481 H 0.57156 0.5515 0.00927 0.0
H482 H 0.67699 0.49192 0.97105 0.0
H483 H 0.68988 0.52603 0.94322 0.0
H484 H 0.67292 0.5045 0.85864 0.0
H485 H 0.61043 0.53736 0.1981 0.0
H486 H 0.58744 0.56417 0.15345 0.0
H487 H 0.6246 0.57094 0.17015 0.0
C488 C 0.03714 0.69889 0.21748 0.0
C489 C 1.01253 0.71491 0.21712 0.0
C490 C 0.03866 0.67363 0.16774 0.0
C491 C 0.01506 0.66378 0.11543 0.0
C492 C 0.98985 0.67934 0.11844 0.0
C493 C 0.98895 0.70443 0.16843 0.0
C494 C 0.06602 0.6581 0.16818 0.0
C495 C 0.96392 0.67011 0.06562 0.0
C496 C 0.02541 0.62036 0.90312 0.0
C497 C 0.01856 0.59267 0.92797 0.0
C498 C 0.02474 0.64315 0.96314 0.0
C499 C 0.01715 0.63882 0.05221 0.0
C500 C 1.01061 0.61086 0.07848 0.0
C501 C 1.01125 0.58837 0.0166 0.0
C502 C 0.03204 0.67214 0.93054 0.0
C503 C 1.00266 0.60467 0.17217 0.0
H504 H 0.05562 0.70681 0.25348 0.0
H505 H 0.96985 0.71653 0.16724 0.0
H506 H 0.06252 0.63556 0.18272 0.0
H507 H 0.07496 0.6595 0.10164 0.0
H508 H 0.08162 0.6667 0.21769 0.0
H509 H 0.94538 0.68298 0.07999 0.0
H510 H 0.96774 0.67174 0.99384 0.0
H511 H 0.95899 0.64782 0.08004 0.0
H512 H 0.03121 0.62443 0.83567 0.0
H513 H 1.00607 0.56732 0.03801 0.0
H514 H 0.0495 0.68116 0.97233 0.0
H515 H 1.01376 0.68612 0.93622 0.0
H516 H 0.0383 0.67218 0.86053 0.0
H517 H 0.01876 0.61331 0.21984 0.0
H518 H 1.0003 0.58184 0.18483 0.0
H519 H 0.98256 0.61505 0.18541 0.0
C520 C 0.01578 0.2185 0.27386 0.0
C521 C 0.03848 0.23119 0.23377 0.0
C522 C 0.01519 0.18949 0.28818 0.0
C523 C 0.03752 0.17288 0.25904 0.0
C524 C 0.06193 0.18623 0.2278 0.0
C525 C 0.06188 0.21533 0.21429 0.0
C526 C 0.99012 0.17668 0.33152 0.0
C527 C 0.08823 0.1704 0.20863 0.0
C528 C 0.03608 0.09557 0.31722 0.0
C529 C 0.0153 0.08565 0.25625 0.0
C530 C 0.04499 0.12365 0.31638 0.0
C531 C 0.03332 0.14202 0.2514 0.0
C532 C 0.01459 0.13112 0.1842 0.0
C533 C 1.00624 0.10298 0.18664 0.0
C534 C 0.06508 0.13378 0.38946 0.0
C535 C 1.00059 0.14928 0.1144 0.0
H536 H 0.99802 0.23116 0.29048 0.0
H537 H 0.07979 0.22569 0.18612 0.0
H538 H 0.97425 0.17023 0.27981 0.0
H539 H 0.99607 0.15791 0.37137 0.0
H540 H 0.98012 0.192 0.37521 0.0
H541 H 0.09882 0.17975 0.15124 0.0
H542 H 0.10308 0.17228 0.26676 0.0
H543 H 0.08433 0.14782 0.19601 0.0
H544 H 0.04312 0.08234 0.37185 0.0
H545 H 0.99028 0.09534 0.1393 0.0
H546 H 0.06038 0.15544 0.41036 0.0
H547 H 0.08671 0.13359 0.36525 0.0
H548 H 0.06468 0.11988 0.44857 0.0
H549 H 0.97869 0.15327 0.13254 0.0
H550 H 0.99939 0.13817 0.04997 0.0
H551 H 1.01147 0.16961 0.10653 0.0
C552 C 0.33688 0.0619 0.22119 0.0
C553 C 0.31994 0.03895 0.24166 0.0
C554 C 0.36611 0.06064 0.23436 0.0
C555 C 0.37832 0.03553 0.26759 0.0
C556 C 0.36076 0.01374 0.29848 0.0
C557 C 0.33172 0.01547 0.28319 0.0
C558 C 0.38323 0.08627 0.21185 0.0
C559 C 0.37252 0.98796 0.34405 0.0
C560 C 0.44538 1.00235 0.19442 0.0
C561 C 0.46416 1.01017 0.26303 0.0
C562 C 0.4176 1.01139 0.19325 0.0
C563 C 0.40872 0.03 0.25964 0.0
C564 C 0.42847 0.04014 0.3242 0.0
C565 C 0.45595 0.03011 0.3249 0.0
C566 C 0.3976 0.99812 0.1261 0.0
C567 C 0.42016 0.05933 0.3978 0.0
H568 H 0.32729 0.08038 0.19171 0.0
H569 H 0.31823 0.99804 0.30038 0.0
H570 H 0.38199 0.10159 0.26656 0.0
H571 H 0.40564 0.08169 0.2026 0.0
H572 H 0.37435 0.09664 0.1512 0.0
H573 H 0.35716 0.97859 0.38925 0.0
H574 H 0.37712 0.97197 0.29378 0.0
H575 H 0.39221 0.99282 0.3828 0.0
H576 H 0.45153 0.98663 0.14745 0.0
H577 H 0.46997 0.03536 0.38041 0.0
H578 H 0.37763 1.00953 0.11869 0.0
H579 H 0.39301 0.97628 0.14672 0.0
H580 H 0.40748 0.99687 0.06104 0.0
H581 H 0.41753 0.08087 0.37131 0.0
H582 H 0.4363 0.0602 0.45284 0.0
H583 H 0.39993 0.05253 0.42515 0.0
C584 C 0.61052 0.29553 0.17609 0.0
C585 C 0.58162 0.29799 0.1858 0.0
C586 C 0.629 0.31688 0.20547 0.0
C587 C 0.61811 0.34051 0.24823 0.0
C588 C 0.58868 0.34323 0.2556 0.0
C589 C 0.5708 0.32196 0.22332 0.0
C590 C 0.65998 0.31353 0.19286 0.0
C591 C 0.57601 0.36812 0.30036 0.0
C592 C 0.65031 0.38358 0.43103 0.0
C593 C 0.64755 0.41015 0.39179 0.0
C594 C 0.64446 0.35934 0.38136 0.0
C595 C 0.6368 0.36199 0.29032 0.0
C596 C 0.64005 0.38807 0.24744 0.0
C597 C 0.64499 0.41204 0.299 0.0
C598 C 0.64228 0.33161 0.42893 0.0
C599 C 0.63409 0.39132 0.14914 0.0
H600 H 0.61855 0.27675 0.14643 0.0
H601 H 0.54835 0.3234 0.23042 0.0
H602 H 0.67101 0.33403 0.18824 0.0
H603 H 0.66939 0.30179 0.24995 0.0
H604 H 0.6637 0.30128 0.13213 0.0
H605 H 0.55285 0.36626 0.30362 0.0
H606 H 0.58507 0.37033 0.3688 0.0
H607 H 0.58095 0.38762 0.26376 0.0
H608 H 0.65372 0.38187 0.50218 0.0
H609 H 0.64332 0.43227 0.26709 0.0
H610 H 0.65165 0.31471 0.39002 0.0
H611 H 0.61982 0.32621 0.43666 0.0
H612 H 0.65287 0.33224 0.49573 0.0
H613 H 0.64076 0.37253 0.11271 0.0
H614 H 0.64491 0.41011 0.12278 0.0
H615 H 0.6112 0.39389 0.13611 0.0
C616 C 0.22708 0.53851 0.23357 0.0
C617 C 0.23748 0.51462 0.19419 0.0
C618 C 0.19877 0.54006 0.25338 0.0
C619 C 0.18056 0.51722 0.2317 0.0
C620 C 0.19169 0.49207 0.19861 0.0
C621 C 0.22012 0.4913 0.17885 0.0
C622 C 0.18838 0.56637 0.29592 0.0
C623 C 0.1742 0.4658 0.18479 0.0
C624 C 0.10853 0.51846 0.32658 0.0
C625 C 0.09487 0.53748 0.26902 0.0
C626 C 0.13618 0.51048 0.31349 0.0
C627 C 0.14991 0.52087 0.23867 0.0
C628 C 0.135 0.53792 0.17585 0.0
C629 C 0.10777 0.54642 0.19269 0.0
C630 C 0.1509 0.49242 0.38293 0.0
C631 C 0.14805 0.5494 0.09403 0.0
H632 H 0.24101 0.55626 0.24612 0.0
H633 H 0.22881 0.47265 0.1503 0.0
H634 H 0.17291 0.56127 0.34668 0.0
H635 H 0.20586 0.57875 0.32766 0.0
H636 H 0.17788 0.57974 0.2447 0.0
H637 H 0.18128 0.45372 0.12724 0.0
H638 H 0.17722 0.45214 0.24388 0.0
H639 H 0.15149 0.47008 0.17538 0.0
H640 H 0.09845 0.51175 0.38626 0.0
H641 H 0.09714 0.56124 0.14863 0.0
H642 H 0.17344 0.49805 0.3922 0.0
H643 H 0.14931 0.4702 0.36196 0.0
H644 H 0.14099 0.49406 0.44798 0.0
H645 H 0.15234 0.57212 0.10304 0.0
H646 H 0.13308 0.54731 0.03617 0.0
H647 H 0.16782 0.53888 0.07886 0.0
C648 C 0.03002 0.83152 0.19235 0.0
C649 C 1.00708 0.81891 0.23138 0.0
C650 C 0.03075 0.86049 0.17752 0.0
C651 C 1.00841 0.87724 0.20583 0.0
C652 C 0.9839 0.86404 0.23695 0.0
C653 C 0.98374 0.83491 0.25048 0.0
C654 C 0.05595 0.87307 0.13426 0.0
C655 C 0.95769 0.88004 0.25592 0.0
C656 C 0.04026 0.94726 0.27416 0.0
C657 C 0.03145 0.9642 0.20333 0.0
C658 C 0.03152 0.91927 0.2786 0.0
C659 C 1.01268 0.90814 0.21212 0.0
C660 C 1.00123 0.92621 0.14591 0.0
C661 C 1.01056 0.95414 0.14303 0.0
C662 C 0.04535 0.90141 0.3495 0.0
C663 C 0.98099 0.91584 0.07357 0.0
H664 H 0.04779 0.81877 0.17638 0.0
H665 H 0.96573 0.82466 0.27836 0.0
H666 H 0.05022 0.8919 0.09439 0.0
H667 H 0.07188 0.87933 0.186 0.0
H668 H 0.0658 0.85765 0.09057 0.0
H669 H 0.94709 0.87085 0.31354 0.0
H670 H 0.9617 0.90263 0.26809 0.0
H671 H 0.94279 0.8781 0.19793 0.0
H672 H 0.05634 0.95501 0.32094 0.0
H673 H 1.00375 0.96708 0.08742 0.0
H674 H 0.0672 0.8971 0.33163 0.0
H675 H 0.03428 0.88125 0.35856 0.0
H676 H 0.04666 0.91292 0.41323 0.0
H677 H 0.98129 0.92949 0.01388 0.0
H678 H 0.95941 0.91615 0.09819 0.0
H679 H 0.98564 0.89409 0.05349 0.0
C680 C 0.71644 0.03579 0.17681 0.0
C681 C 0.72824 0.0119 0.21573 0.0
C682 C 0.6874 0.03766 0.16197 0.0
C683 C 0.66985 0.01554 0.19078 0.0
C684 C 0.68207 0.99012 0.22134 0.0
C685 C 0.71129 0.98876 0.23409 0.0
C686 C 0.67571 0.06387 0.11885 0.0
C687 C 0.66496 0.96425 0.24133 0.0
C688 C 0.60223 0.04792 0.2626 0.0
C689 C 0.58368 0.0398 0.19376 0.0
C690 C 0.63011 0.03917 0.26447 0.0
C691 C 0.63937 0.02074 0.19808 0.0
C692 C 0.61982 1.0103 0.13328 0.0
C693 C 0.59218 0.01987 0.13241 0.0
C694 C 0.64974 0.05241 0.33276 0.0
C695 C 0.62827 0.99104 0.06001 0.0
H696 H 0.72993 0.05339 0.16127 0.0
H697 H 0.72091 0.97 0.26163 0.0
H698 H 0.65538 0.05977 0.0827 0.0
H699 H 0.67246 0.07988 0.1703 0.0
H700 H 0.69066 0.0729 0.0717 0.0
H701 H 0.674 0.95316 0.30046 0.0
H702 H 0.64261 0.96872 0.25191 0.0
H703 H 0.66597 0.94961 0.18469 0.0
H704 H 0.5958 0.06361 0.30925 0.0
H705 H 0.57824 0.01427 0.07703 0.0
H706 H 0.65403 0.07443 0.31346 0.0
H707 H 0.66987 0.04128 0.34018 0.0
H708 H 0.63967 0.05314 0.39762 0.0
H709 H 0.64987 0.99557 0.03901 0.0
H710 H 0.61372 0.99257 1.00096 0.0
H711 H 0.62745 0.96907 0.08407 0.0
C712 C 0.44653 0.7462 0.28439 0.0
C713 C 0.47494 0.74669 0.26498 0.0
C714 C 0.42973 0.72264 0.26347 0.0
C715 C 0.44178 0.69966 0.22042 0.0
C716 C 0.47071 0.70024 0.20171 0.0
C717 C 0.48694 0.72373 0.22509 0.0
C718 C 0.39953 0.72216 0.28937 0.0
C719 C 0.48455 0.67635 0.15522 0.0
C720 C 0.42349 0.62489 0.18414 0.0
C721 C 0.41802 0.62588 0.0923 0.0
C722 C 0.42632 0.64976 0.23289 0.0
C723 C 0.42447 0.67568 0.18756 0.0
C724 C 0.41377 0.67649 0.09895 0.0
C725 C 0.41029 0.65136 0.05243 0.0
C726 C 0.43546 0.64824 0.32942 0.0
C727 C 0.41059 0.70376 0.0488 0.0
H728 H 0.43774 0.76407 0.31709 0.0
H729 H 0.50905 0.72453 0.21123 0.0
H730 H 0.3856 0.71244 0.23734 0.0
H731 H 0.39778 0.70935 0.35037 0.0
H732 H 0.39185 0.74354 0.30322 0.0
H733 H 0.50698 0.68078 0.14309 0.0
H734 H 0.48338 0.657 0.1958 0.0
H735 H 0.47348 0.67211 0.09061 0.0
H736 H 0.4288 0.60517 0.2161 0.0
H737 H 0.40485 0.65196 0.98208 0.0
H738 H 0.42711 0.66612 0.36662 0.0
H739 H 0.45868 0.64925 0.33572 0.0
H740 H 0.42845 0.6283 0.35998 0.0
H741 H 0.4013 0.72005 0.09038 0.0
H742 H 0.39729 0.70119 0.98728 0.0
H743 H 0.43162 0.71139 0.03015 0.0
C744 C 0.82132 0.48723 0.22907 0.0
C745 C 0.80428 0.481 0.29943 0.0
C746 C 0.84766 0.475 0.22352 0.0
C747 C 0.85667 0.45514 0.28847 0.0
C748 C 0.8391 0.4482 0.35876 0.0
C749 C 0.81311 0.46162 0.36414 0.0
C750 C 0.8662 0.48415 0.1497 0.0
C751 C 0.84791 0.42697 0.42825 0.0
C752 C 0.91499 0.41923 0.18034 0.0
C753 C 0.93735 0.43683 0.20778 0.0
C754 C 0.88876 0.42168 0.21803 0.0
C755 C 0.88492 0.44273 0.28199 0.0
C756 C 0.90868 0.4569 0.32007 0.0
C757 C 0.93483 0.4533 0.28331 0.0
C758 C 0.86438 0.40456 0.1805 0.0
C759 C 0.90677 0.47812 0.39301 0.0
H760 H 0.8144 0.5028 0.18079 0.0
H761 H 0.79981 0.45735 0.41914 0.0
H762 H 0.88676 0.49173 0.17764 0.0
H763 H 0.87022 0.46613 0.10602 0.0
H764 H 0.85667 0.50115 0.10847 0.0
H765 H 0.84899 0.40598 0.39728 0.0
H766 H 0.86919 0.43209 0.45622 0.0
H767 H 0.8331 0.42587 0.48306 0.0
H768 H 0.91697 0.4058 0.12329 0.0
H769 H 0.95262 0.4658 0.30758 0.0
H770 H 0.85302 0.41685 0.12818 0.0
H771 H 0.8494 0.39938 0.23256 0.0
H772 H 0.87159 0.38482 0.15042 0.0
H773 H 0.91709 0.46947 0.45413 0.0
H774 H 0.885 0.48379 0.40718 0.0
H775 H 0.91861 0.49742 0.37606 0.0
C776 C 1.00394 0.23294 0.03431 0.0
C777 C 0.0289 0.24846 0.04808 0.0
C778 C 1.00226 0.20895 0.9785 0.0
C779 C 0.02651 0.19916 0.93567 0.0
C780 C 0.05112 0.21646 0.94373 0.0
C781 C 0.05213 0.24025 1.00052 0.0
C782 C 0.9742 0.19416 0.96858 0.0
C783 C 0.07716 0.2098 0.89492 0.0
C784 C 0.04177 0.12034 0.89338 0.0
C785 C 0.02535 0.11366 0.81688 0.0
C786 C 0.04289 0.14762 0.93021 0.0
C787 C 0.02702 0.17001 0.89107 0.0
C788 C 1.01141 0.16371 0.81065 0.0
C789 C 1.01046 0.13588 0.77574 0.0
C790 C 0.0616 0.15156 0.01179 0.0
C791 C 0.99562 0.18611 0.75947 0.0
H792 H 0.98584 0.23893 0.07071 0.0
H793 H 0.07165 0.2518 0.01063 0.0
H794 H 0.9612 0.20519 0.91714 0.0
H795 H 0.97585 0.17194 0.9489 0.0
H796 H 0.96278 0.19513 0.03111 0.0
H797 H 0.08641 0.22934 0.86797 0.0
H798 H 0.09308 0.20077 0.94206 0.0
H799 H 0.07307 0.19494 0.83952 0.0
H800 H 0.054 0.10399 0.92598 0.0
H801 H 0.99796 0.13165 0.71572 0.0
H802 H 0.05673 0.17062 0.04899 0.0
H803 H 0.08373 0.15285 0.9921 0.0
H804 H 0.05995 0.13315 0.05653 0.0
H805 H 0.97294 0.18402 0.77196 0.0
H806 H 0.99794 0.18326 0.68722 0.0
H807 H 1.0028 0.20758 0.77764 0.0
C808 C 0.31568 1.00531 0.03959 0.0
C809 C 0.30197 0.03071 0.05542 0.0
C810 C 0.33964 1.00358 0.98556 0.0
C811 C 0.35169 0.02817 0.94651 0.0
C812 C 0.33635 0.05355 0.95735 0.0
C813 C 0.31253 0.05454 0.012 0.0
C814 C 0.35206 0.97493 0.97399 0.0
C815 C 0.34493 0.08043 0.91281 0.0
C816 C 0.43169 0.04056 0.90111 0.0
C817 C 0.43647 0.02536 0.82344 0.0
C818 C 0.40492 0.04206 0.9395 0.0
C819 C 0.38076 0.02786 0.90123 0.0
C820 C 0.38524 0.01339 0.81995 0.0
C821 C 0.4126 0.01198 0.78358 0.0
C822 C 0.40341 0.05953 0.02169 0.0
C823 C 0.36125 0.9995 0.76858 0.0
H824 H 0.30827 0.98665 0.07281 0.0
H825 H 0.30269 0.0745 0.02346 0.0
H826 H 0.33953 0.96362 0.92174 0.0
H827 H 0.3742 0.97564 0.95479 0.0
H828 H 0.35074 0.96239 0.03579 0.0
H829 H 0.3261 0.09112 0.8839 0.0
H830 H 0.35459 0.0948 0.96315 0.0
H831 H 0.35984 0.07714 0.85948 0.0
H832 H 0.44922 0.05161 0.93334 0.0
H833 H 0.41512 1.00045 0.72284 0.0
H834 H 0.38468 0.05469 0.05956 0.0
H835 H 0.40305 0.082 1.00264 0.0
H836 H 0.4224 0.05651 0.06546 0.0
H837 H 0.36222 0.97652 0.77942 0.0
H838 H 0.36322 1.0032 0.69646 0.0
H839 H 0.34047 1.00708 0.78788 0.0
C840 C 0.56009 0.31109 0.9978 0.0
C841 C 0.53716 0.29957 0.0419 0.0
C842 C 0.55841 0.33685 0.95092 0.0
C843 C 0.53269 0.35157 0.94324 0.0
C844 C 0.50892 0.3392 0.98305 0.0
C845 C 0.51148 0.31376 0.03257 0.0
C846 C 0.58476 0.34904 0.91358 0.0
C847 C 0.48081 0.35333 0.97574 0.0
C848 C 0.53447 0.43204 0.90793 0.0
C849 C 0.53025 0.43531 0.81555 0.0
C850 C 0.53555 0.4053 0.94937 0.0
C851 C 0.53132 0.38049 0.89861 0.0
C852 C 0.52678 0.38361 0.80525 0.0
C853 C 0.52676 0.4107 0.765 0.0
C854 C 0.54155 0.40364 0.04811 0.0
C855 C 0.52157 0.35821 0.74771 0.0
H856 H 0.57997 0.30034 1.00305 0.0
H857 H 0.49362 0.30558 0.0667 0.0
H858 H 0.58131 0.35392 0.84222 0.0
H859 H 0.59026 0.36901 0.94777 0.0
H860 H 0.60286 0.33467 0.92164 0.0
H861 H 0.4637 0.33965 0.99961 0.0
H862 H 0.48153 0.3728 0.0156 0.0
H863 H 0.47576 0.35938 0.90597 0.0
H864 H 0.53743 0.45061 0.94842 0.0
H865 H 0.52328 0.41263 0.69395 0.0
H866 H 0.55963 0.3897 0.0629 0.0
H867 H 0.52321 0.39442 0.08085 0.0
H868 H 0.54626 0.42451 0.07771 0.0
H869 H 0.54014 0.34441 0.75155 0.0
H870 H 0.51706 0.36389 0.67727 0.0
H871 H 0.50358 0.34589 0.77215 0.0
C872 C 0.23578 0.54587 1.0038 0.0
C873 C 0.2522 0.52164 0.00825 0.0
C874 C 0.21079 0.54734 0.95019 0.0
C875 C 0.20144 0.52374 0.89911 0.0
C876 C 0.21957 0.50017 0.8972 0.0
C877 C 0.24427 0.49922 0.95269 0.0
C878 C 0.19454 0.5743 0.951 0.0
C879 C 0.21244 0.47511 0.83994 0.0
C880 C 0.12265 0.50581 0.86772 0.0
C881 C 0.11368 0.52213 0.79447 0.0
C882 C 0.15077 0.50569 0.90023 0.0
C883 C 0.17155 0.52215 0.85873 0.0
C884 C 0.16298 0.53763 0.78146 0.0
C885 C 0.1343 0.53774 0.75121 0.0
C886 C 0.15738 0.48763 0.98017 0.0
C887 C 0.18379 0.55444 0.73023 0.0
H888 H 0.24181 0.56332 0.04638 0.0
H889 H 0.25663 0.48029 0.95597 0.0
H890 H 0.19675 0.58457 0.01681 0.0
H891 H 0.20344 0.58895 0.9021 0.0
H892 H 0.17192 0.57136 0.9337 0.0
H893 H 0.23181 0.46534 0.81642 0.0
H894 H 0.20147 0.45914 0.8797 0.0
H895 H 0.19874 0.48074 0.78158 0.0
H896 H 0.10746 0.49314 0.90176 0.0
H897 H 0.12809 0.55028 0.69393 0.0
H898 H 0.14031 0.489 0.02777 0.0
H899 H 0.17741 0.49336 0.01498 0.0
H900 H 0.15838 0.46544 0.95911 0.0
H901 H 0.18363 0.57651 0.75294 0.0
H902 H 0.17784 0.55445 0.6584 0.0
H903 H 0.20543 0.54632 0.73932 0.0
C904 C 0.04286 0.81716 0.42812 0.0
C905 C 0.01792 0.80151 0.41609 0.0
C906 C 0.04476 0.84123 0.48354 0.0
C907 C 0.02074 0.85095 0.52776 0.0
C908 C 0.99621 0.83348 0.52162 0.0
C909 C 0.99497 0.80965 0.46508 0.0
C910 C 0.07279 0.85614 0.49158 0.0
C911 C 0.9705 0.84003 0.57221 0.0
C912 C 0.03762 0.91464 0.68507 0.0
C913 C 0.02232 0.93668 0.64449 0.0
C914 C 0.03651 0.88673 0.65095 0.0
C915 C 0.02033 0.88015 0.57186 0.0
C916 C 1.00399 0.90235 0.53349 0.0
C917 C 1.00529 0.92973 0.56953 0.0
C918 C 0.05277 0.86453 0.70157 0.0
C919 C 0.98463 0.89814 0.4535 0.0
H920 H 0.06074 0.81123 0.39059 0.0
H921 H 0.97546 0.79799 0.4563 0.0
H922 H 0.08614 0.84525 0.54242 0.0
H923 H 0.08383 0.85513 0.42834 0.0
H924 H 0.07116 0.87839 0.51104 0.0
H925 H 0.96158 0.82046 0.60002 0.0
H926 H 0.97488 0.85497 0.62721 0.0
H927 H 0.95421 0.8489 0.52607 0.0
H928 H 0.05056 0.91908 0.744 0.0
H929 H 0.99273 0.94596 0.53754 0.0
H930 H 0.07535 0.86681 0.68786 0.0
H931 H 0.04569 0.84297 0.68412 0.0
H932 H 0.05081 0.86746 0.77395 0.0
H933 H 0.98598 0.91637 0.40792 0.0
H934 H 0.96269 0.89701 0.47501 0.0
H935 H 0.98912 0.87891 0.41656 0.0
C936 C 0.73251 0.04397 0.41918 0.0
C937 C 0.74621 0.01864 0.40234 0.0
C938 C 0.70845 0.04545 0.47282 0.0
C939 C 0.69631 0.02068 0.51044 0.0
C940 C 0.7116 0.99533 0.49851 0.0
C941 C 0.73553 0.9946 0.44426 0.0
C942 C 0.69604 0.07404 0.48557 0.0
C943 C 0.70286 0.96823 0.54136 0.0
C944 C 0.63533 0.03613 0.67354 0.0
C945 C 0.61146 0.02308 0.63262 0.0
C946 C 0.66272 0.03482 0.63742 0.0
C947 C 0.66721 0.02083 0.55536 0.0
C948 C 0.64305 1.00697 0.51592 0.0
C949 C 0.61624 1.00832 0.55411 0.0
C950 C 0.68673 0.04831 0.68984 0.0
C951 C 0.6446 0.99003 0.43263 0.0
H952 H 0.73999 0.06278 0.387 0.0
H953 H 0.74533 0.97468 0.43184 0.0
H954 H 0.67387 0.07325 0.50451 0.0
H955 H 0.70852 0.08511 0.53843 0.0
H956 H 0.69743 0.08685 0.42435 0.0
H957 H 0.7216 0.95733 0.57003 0.0
H958 H 0.68784 0.97125 0.59457 0.0
H959 H 0.69326 0.95416 0.49004 0.0
H960 H 0.6328 0.04731 0.73493 0.0
H961 H 0.59869 0.99755 0.52104 0.0
H962 H 0.68594 0.07135 0.68008 0.0
H963 H 0.70749 0.04069 0.67048 0.0
H964 H 0.68462 0.04428 0.76172 0.0
H965 H 0.62558 0.99323 0.38911 0.0
H966 H 0.64507 0.96745 0.45024 0.0
H967 H 0.6633 0.99523 0.39504 0.0
C968 C 0.54551 0.73249 0.41203 0.0
C969 C 0.51961 0.74635 0.40614 0.0
C970 C 0.54873 0.70652 0.45833 0.0
C971 C 0.52527 0.69307 0.49683 0.0
C972 C 0.49926 0.70731 0.49171 0.0
C973 C 0.49716 0.73391 0.4503 0.0
C974 C 0.57716 0.69305 0.46333 0.0
C975 C 0.47301 0.69382 0.52557 0.0
C976 C 0.52645 0.61218 0.5232 0.0
C977 C 0.528 0.60818 0.61563 0.0
C978 C 0.52529 0.63929 0.48416 0.0
C979 C 0.52726 0.6637 0.53802 0.0
C980 C 0.52976 0.65973 0.63158 0.0
C981 C 0.52931 0.63229 0.66898 0.0
C982 C 0.52188 0.64142 0.38461 0.0
C983 C 0.53328 0.68451 0.69277 0.0
H984 H 0.56304 0.74138 0.37784 0.0
H985 H 0.47718 0.74448 0.44821 0.0
H986 H 0.58163 0.68405 0.53023 0.0
H987 H 0.57752 0.6757 0.41483 0.0
H988 H 0.5941 0.70821 0.4479 0.0
H989 H 0.45379 0.70533 0.5039 0.0
H990 H 0.47093 0.67188 0.50183 0.0
H991 H 0.4742 0.69323 0.59891 0.0
H992 H 0.52537 0.5939 0.48077 0.0
H993 H 0.53081 0.6297 0.74029 0.0
H994 H 0.50993 0.66026 0.36325 0.0
H995 H 0.51102 0.6226 0.35622 0.0
H996 H 0.54291 0.64276 0.35612 0.0
H997 H 0.54099 0.67814 0.76015 0.0
H998 H 0.51284 0.69501 0.6988 0.0
H999 H 0.54821 0.70006 0.66595 0.0
C1000 C 0.80172 0.52479 0.51057 0.0
C1001 C 0.802 0.52912 0.41882 0.0
C1002 C 0.82652 0.52737 0.56506 0.0
C1003 C 0.85282 0.53303 0.52667 0.0
C1004 C 0.85272 0.53865 0.43392 0.0
C1005 C 0.82742 0.53712 0.38231 0.0
C1006 C 0.82413 0.52313 0.66338 0.0
C1007 C 0.87907 0.5456 0.38594 0.0
C1008 C 0.92318 0.55551 0.64112 0.0
C1009 C 0.93537 0.52981 0.66636 0.0
C1010 C 0.89589 0.55698 0.6011 0.0
C1011 C 0.8803 0.53204 0.58161 0.0
C1012 C 0.89201 0.50607 0.61091 0.0
C1013 C 0.91911 0.50536 0.65294 0.0
C1014 C 0.88418 0.58549 0.57866 0.0
C1015 C 0.87625 0.47866 0.59945 0.0
H1016 H 0.78224 0.51839 0.53946 0.0
H1017 H 0.82777 0.54068 0.31151 0.0
H1018 H 0.82259 0.50037 0.67772 0.0
H1019 H 0.84223 0.53213 0.70234 0.0
H1020 H 0.8046 0.53282 0.68605 0.0
H1021 H 0.87941 0.53364 0.32304 0.0
H1022 H 0.87889 0.56814 0.36772 0.0
H1023 H 0.89864 0.54125 0.42518 0.0
H1024 H 0.93509 0.57473 0.65205 0.0
H1025 H 0.92786 0.48534 0.67306 0.0
H1026 H 0.86094 0.58567 0.5803 0.0
H1027 H 0.89035 0.59159 0.51125 0.0
H1028 H 0.89281 0.60163 0.62532 0.0
H1029 H 0.86528 0.47394 0.66117 0.0
H1030 H 0.89087 0.46112 0.58912 0.0
H1031 H 0.86044 0.47907 0.54374 0.0
loop_
_geom_bond_atom_site_label_1
_geom_bond_atom_site_label_2
_geom_bond_distance
_geom_bond_site_symmetry_2
_ccdc_geom_bond_type
C0 N1 1.317 . S
C0 N2 1.348 . S
C0 C3 1.485 . S
N1 C0 1.317 . S
N1 N5 1.370 . S
N2 C0 1.348 . S
N2 C4 1.346 . S
C3 C0 1.485 . S
C3 H7 0.960 . S
C3 H8 0.961 . S
C3 H9 0.960 . S
C4 N2 1.346 . S
C4 N5 1.307 . S
C4 C6 1.486 . S
N5 N1 1.370 . S
N5 C4 1.307 . S
C6 C4 1.486 . S
C6 H10 0.960 . S
C6 H11 0.960 . S
C6 H12 0.959 . S
H7 C3 0.960 . S
H8 C3 0.961 . S
H9 C3 0.960 . S
H10 C6 0.960 . S
H11 C6 0.960 . S
H12 C6 0.959 . S
C13 N14 1.317 . S
C13 N15 1.348 . S
C13 C16 1.485 . S
N14 C13 1.317 . S
N14 N18 1.370 . S
N15 C13 1.348 . S
N15 C17 1.346 . S
C16 C13 1.485 . S
C16 H20 0.960 . S
C16 H21 0.961 . S
C16 H22 0.960 . S
C17 N15 1.346 . S
C17 N18 1.307 . S
C17 C19 1.486 . S
N18 N14 1.370 . S
N18 C17 1.307 . S
C19 C17 1.486 . S
C19 H23 0.960 . S
C19 H24 0.960 . S
C19 H25 0.959 . S
H20 C16 0.960 . S
H21 C16 0.961 . S
H22 C16 0.960 . S
H23 C19 0.960 . S
H24 C19 0.960 . S
H25 C19 0.959 . S
C26 N27 1.317 . S
C26 N28 1.348 . S
C26 C29 1.485 . S
N27 C26 1.317 . S
N27 N31 1.370 . S
N28 C26 1.348 . S
N28 C30 1.346 . S
C29 C26 1.485 . S
C29 H33 0.960 . S
C29 H34 0.961 . S
C29 H35 0.960 . S
C30 N28 1.346 . S
C30 N31 1.307 . S
C30 C32 1.486 . S
N31 N27 1.370 . S
N31 C30 1.307 . S
C32 C30 1.486 . S
C32 H36 0.960 . S
C32 H37 0.960 . S
C32 H38 0.959 . S
H33 C29 0.960 . S
H34 C29 0.961 . S
H35 C29 0.960 . S
H36 C32 0.960 . S
H37 C32 0.960 . S
H38 C32 0.959 . S
C39 N40 1.317 . S
C39 N41 1.348 . S
C39 C42 1.485 . S
N40 C39 1.317 . S
N40 N44 1.370 . S
N41 C39 1.348 . S
N41 C43 1.346 . S
C42 C39 1.485 . S
C42 H46 0.960 . S
C42 H47 0.961 . S
C42 H48 0.960 . S
C43 N41 1.346 . S
C43 N44 1.307 . S
C43 C45 1.486 . S
N44 N40 1.370 . S
N44 C43 1.307 . S
C45 C43 1.486 . S
C45 H49 0.960 . S
C45 H50 0.960 . S
C45 H51 0.959 . S
H46 C42 0.960 . S
H47 C42 0.961 . S
H48 C42 0.960 . S
H49 C45 0.960 . S
H50 C45 0.960 . S
H51 C45 0.959 . S
C52 N53 1.317 . S
C52 N54 1.348 . S
C52 C55 1.485 1_554 S
N53 C52 1.317 . S
N53 N57 1.370 . S
N54 C52 1.348 . S
N54 C56 1.346 . S
C55 C52 1.485 1_556 S
C55 H59 0.960 . S
C55 H60 0.961 . S
C55 H61 0.960 . S
C56 N54 1.346 . S
C56 N57 1.307 . S
C56 C58 1.486 . S
N57 N53 1.370 . S
N57 C56 1.307 . S
C58 C56 1.486 . S
C58 H62 0.960 . S
C58 H63 0.960 . S
C58 H64 0.959 . S
H59 C55 0.960 . S
H60 C55 0.961 . S
H61 C55 0.960 . S
H62 C58 0.960 . S
H63 C58 0.960 . S
H64 C58 0.959 . S
C65 N66 1.317 1_556 S
C65 N67 1.344 1_556 S
C65 C68 1.488 . S
N66 C65 1.317 1_554 S
N66 N70 1.370 . S
N67 C65 1.344 1_554 S
N67 C69 1.346 . S
C68 C65 1.488 . S
C68 H72 0.960 . S
C68 H73 0.961 . S
C68 H74 0.960 . S
C69 N67 1.346 . S
C69 N70 1.307 . S
C69 C71 1.486 . S
N70 N66 1.370 . S
N70 C69 1.307 . S
C71 C69 1.486 . S
C71 H75 0.960 . S
C71 H76 0.960 . S
C71 H77 0.959 . S
H72 C68 0.960 . S
H73 C68 0.961 . S
H74 C68 0.960 . S
H75 C71 0.960 . S
H76 C71 0.960 . S
H77 C71 0.959 . S
C78 N79 1.317 . S
C78 N80 1.348 1_556 S
C78 C81 1.485 . S
N79 C78 1.317 . S
N79 N83 1.370 1_556 S
N80 C78 1.348 1_554 S
N80 C82 1.346 . S
C81 C78 1.485 . S
C81 H85 0.960 . S
C81 H86 0.961 . S
C81 H87 0.960 . S
C82 N80 1.346 . S
C82 N83 1.307 . S
C82 C84 1.486 . S
N83 N79 1.370 1_554 S
N83 C82 1.307 . S
C84 C82 1.486 . S
C84 H88 0.960 . S
C84 H89 0.960 . S
C84 H90 0.959 . S
H85 C81 0.960 . S
H86 C81 0.961 . S
H87 C81 0.960 . S
H88 C84 0.960 . S
H89 C84 0.960 . S
H90 C84 0.959 . S
C91 N92 1.317 . S
C91 N93 1.348 . S
C91 C94 1.485 1_554 S
N92 C91 1.317 . S
N92 N96 1.370 . S
N93 C91 1.348 . S
N93 C95 1.346 . S
C94 C91 1.485 1_556 S
C94 H98 0.960 . S
C94 H99 0.961 . S
C94 H100 0.960 . S
C95 N93 1.346 . S
C95 N96 1.307 . S
C95 C97 1.486 . S
N96 N92 1.370 . S
N96 C95 1.307 . S
C97 C95 1.486 . S
C97 H101 0.960 . S
C97 H102 0.960 . S
C97 H103 0.959 . S
H98 C94 0.960 . S
H99 C94 0.961 . S
H100 C94 0.960 . S
H101 C97 0.960 . S
H102 C97 0.960 . S
H103 C97 0.959 . S
Eu104 C113 2.828 . S
Eu104 O115 2.392 . S
Eu104 O117 2.418 1_545 S
Eu104 O122 2.373 1_655 S
Eu104 O125 2.488 . S
Eu104 O126 2.482 . S
Eu104 O127 2.349 1_655 S
Eu105 O114 2.373 1_455 S
Eu105 O118 2.488 . S
Eu105 O119 2.471 . S
Eu105 O120 2.349 . S
Eu105 O123 2.392 1_565 S
Eu105 O124 2.418 1_565 S
Eu105 C134 2.828 . S
C106 O124 1.244 . S
C106 O127 1.265 . S
C107 C108 1.379 1_655 S
C107 C111 1.373 . S
C107 C113 1.505 . S
C108 C107 1.379 1_455 S
C108 C110 1.369 . S
C108 H136 0.930 . S
C109 C111 1.383 . S
C109 C112 1.382 1_655 S
C109 H137 0.930 . S
C110 C108 1.369 . S
C110 C112 1.392 . S
C110 H138 0.930 . S
C111 C107 1.373 . S
C111 C109 1.383 . S
C111 H139 0.931 . S
C112 C109 1.382 1_455 S
C112 C110 1.392 . S
C113 Eu104 2.828 . S
C113 C107 1.505 . S
C113 O125 1.249 . S
C113 O126 1.253 . S
O114 Eu105 2.373 1_655 S
O114 C116 1.258 1_565 S
O115 Eu104 2.392 . S
O115 C116 1.242 . S
C116 O114 1.258 1_545 S
C116 O115 1.242 . S
O117 Eu104 2.418 1_565 S
O117 C121 1.244 . S
O118 Eu105 2.488 . S
O118 C134 1.249 . S
O119 Eu105 2.471 . S
O119 C134 1.244 . S
O120 Eu105 2.349 . S
O120 C121 1.265 1_455 S
C121 O117 1.244 . S
C121 O120 1.265 1_655 S
O122 Eu104 2.373 1_455 S
O122 C135 1.258 . S
O123 Eu105 2.392 1_545 S
O123 C135 1.242 . S
O124 Eu105 2.418 1_545 S
O124 C106 1.244 . S
O125 Eu104 2.488 . S
O125 C113 1.249 . S
O126 Eu104 2.482 . S
O126 C113 1.253 . S
O127 Eu104 2.349 1_455 S
O127 C106 1.265 . S
C128 C129 1.379 . S
C128 C132 1.373 . S
C128 C134 1.505 1_554 S
C129 C128 1.379 . S
C129 C131 1.369 . S
C129 H140 0.915 1_454 S
C130 C132 1.383 . S
C130 C133 1.382 . S
C130 H141 0.930 . S
C131 C129 1.369 . S
C131 C133 1.392 . S
C131 H142 0.930 1_455 S
C132 C128 1.373 . S
C132 C130 1.383 . S
C132 H143 0.931 . S
C133 C130 1.382 . S
C133 C131 1.392 . S
C134 Eu105 2.828 . S
C134 O118 1.249 . S
C134 O119 1.244 . S
C134 C128 1.505 1_556 S
C135 O122 1.258 . S
C135 O123 1.242 . S
H136 C108 0.930 . S
H137 C109 0.930 . S
H138 C110 0.930 . S
H139 C111 0.931 . S
H140 C129 0.915 1_656 S
H141 C130 0.930 . S
H142 C131 0.930 1_655 S
H143 C132 0.931 . S
Eu144 C153 2.828 . S
Eu144 O155 2.392 . S
Eu144 O157 2.418 . S
Eu144 O162 2.373 . S
Eu144 O165 2.488 . S
Eu144 O166 2.471 . S
Eu144 O167 2.349 1_545 S
Eu145 O154 2.373 1_565 S
Eu145 O158 2.488 . S
Eu145 O159 2.471 1_565 S
Eu145 O160 2.349 1_565 S
Eu145 O163 2.392 . S
Eu145 O164 2.418 . S
Eu145 C174 2.828 . S
C146 O164 1.244 . S
C146 O167 1.265 . S
C147 C148 1.379 . S
C147 C151 1.373 . S
C147 C153 1.505 . S
C148 C147 1.379 . S
C148 C150 1.369 1_556 S
C148 H176 0.930 1_545 S
C149 C151 1.383 1_554 S
C149 C152 1.382 . S
C149 H177 0.930 . S
C150 C148 1.369 1_554 S
C150 C152 1.392 . S
C150 H178 0.930 1_545 S
C151 C147 1.373 . S
C151 C149 1.383 1_556 S
C151 H179 0.931 . S
C152 C149 1.382 . S
C152 C150 1.392 . S
C153 Eu144 2.828 . S
C153 C147 1.505 . S
C153 O165 1.249 . S
C153 O166 1.244 . S
O154 Eu145 2.373 1_545 S
O154 C156 1.258 . S
O155 Eu144 2.392 . S
O155 C156 1.242 . S
C156 O154 1.258 . S
C156 O155 1.242 . S
O157 Eu144 2.418 . S
O157 C161 1.244 . S
O158 Eu145 2.488 . S
O158 C174 1.249 . S
O159 Eu145 2.471 1_545 S
O159 C174 1.244 1_545 S
O160 Eu145 2.349 1_545 S
O160 C161 1.265 . S
C161 O157 1.244 . S
C161 O160 1.265 . S
O162 Eu144 2.373 . S
O162 C175 1.258 1_545 S
O163 Eu145 2.392 . S
O163 C175 1.242 . S
O164 Eu145 2.418 . S
O164 C146 1.244 . S
O165 Eu144 2.488 . S
O165 C153 1.249 . S
O166 Eu144 2.471 . S
O166 C153 1.244 . S
O167 Eu144 2.349 1_565 S
O167 C146 1.265 . S
C168 C169 1.379 1_565 S
C168 C172 1.373 . S
C168 C174 1.505 . S
C169 C168 1.379 1_545 S
C169 C171 1.369 . S
C169 H180 0.930 . S
C170 C172 1.383 . S
C170 C173 1.382 . S
C170 H181 0.930 . S
C171 C169 1.369 . S
C171 C173 1.392 1_545 S
C171 H182 0.930 . S
C172 C168 1.373 . S
C172 C170 1.383 . S
C172 H183 0.931 . S
C173 C170 1.382 . S
C173 C171 1.392 1_565 S
C174 Eu145 2.828 . S
C174 O158 1.249 . S
C174 O159 1.244 1_565 S
C174 C168 1.505 . S
C175 O162 1.258 1_565 S
C175 O163 1.242 . S
H176 C148 0.930 1_565 S
H177 C149 0.930 . S
H178 C150 0.930 1_565 S
H179 C151 0.931 . S
H180 C169 0.930 . S
H181 C170 0.930 . S
H182 C171 0.930 . S
H183 C172 0.931 . S
Eu184 C193 2.828 . S
Eu184 O195 2.392 . S
Eu184 O197 2.418 . S
Eu184 O202 2.373 . S
Eu184 O205 2.488 . S
Eu184 O206 2.471 . S
Eu184 O207 2.349 . S
Eu185 O194 2.373 . S
Eu185 O198 2.488 . S
Eu185 O199 2.471 . S
Eu185 O200 2.349 . S
Eu185 O203 2.392 . S
Eu185 O204 2.418 . S
Eu185 C214 2.828 . S
C186 O204 1.244 . S
C186 O207 1.265 . S
C187 C188 1.379 . S
C187 C191 1.373 . S
C187 C193 1.505 . S
C188 C187 1.379 . S
C188 C190 1.369 1_556 S
C188 H216 0.930 . S
C189 C191 1.383 . S
C189 C192 1.382 1_556 S
C189 H217 0.930 1_556 S
C190 C188 1.369 1_554 S
C190 C192 1.392 . S
C190 H218 0.930 . S
C191 C187 1.373 . S
C191 C189 1.383 . S
C191 H219 0.931 . S
C192 C189 1.382 1_554 S
C192 C190 1.392 . S
C193 Eu184 2.828 . S
C193 C187 1.505 . S
C193 O205 1.249 . S
C193 O206 1.244 . S
O194 Eu185 2.373 . S
O194 C196 1.258 . S
O195 Eu184 2.392 . S
O195 C196 1.242 . S
C196 O194 1.258 . S
C196 O195 1.242 . S
O197 Eu184 2.418 . S
O197 C201 1.244 . S
O198 Eu185 2.488 . S
O198 C214 1.249 . S
O199 Eu185 2.471 . S
O199 C214 1.244 . S
O200 Eu185 2.349 . S
O200 C201 1.265 . S
C201 O197 1.244 . S
C201 O200 1.265 . S
O202 Eu184 2.373 . S
O202 C215 1.258 . S
O203 Eu185 2.392 . S
O203 C215 1.242 . S
O204 Eu185 2.418 . S
O204 C186 1.244 . S
O205 Eu184 2.488 . S
O205 C193 1.249 . S
O206 Eu184 2.471 . S
O206 C193 1.244 . S
O207 Eu184 2.349 . S
O207 C186 1.265 . S
C208 C209 1.379 . S
C208 C212 1.373 . S
C208 C214 1.505 . S
C209 C208 1.379 . S
C209 C211 1.369 . S
C209 H220 0.930 . S
C210 C212 1.383 . S
C210 C213 1.382 . S
C210 H221 0.930 . S
C211 C209 1.369 . S
C211 C213 1.392 . S
C211 H222 0.930 . S
C212 C208 1.373 . S
C212 C210 1.383 . S
C212 H223 0.931 . S
C213 C210 1.382 . S
C213 C211 1.392 . S
C214 Eu185 2.828 . S
C214 O198 1.249 . S
C214 O199 1.244 . S
C214 C208 1.505 . S
C215 O202 1.258 . S
C215 O203 1.242 . S
H216 C188 0.930 . S
H217 C189 0.930 1_554 S
H218 C190 0.930 . S
H219 C191 0.931 . S
H220 C209 0.930 . S
H221 C210 0.930 . S
H222 C211 0.930 . S
H223 C212 0.931 . S
Eu224 C233 2.828 . S
Eu224 O235 2.392 . S
Eu224 O237 2.418 1_455 S
Eu224 O242 2.373 . S
Eu224 O245 2.488 . S
Eu224 O246 2.471 . S
Eu224 O247 2.349 . S
Eu225 O234 2.373 . S
Eu225 O238 2.488 . S
Eu225 O239 2.471 . S
Eu225 O240 2.349 . S
Eu225 O243 2.392 1_655 S
Eu225 O244 2.418 1_655 S
Eu225 C254 2.828 . S
C226 O244 1.244 . S
C226 O247 1.265 . S
C227 C228 1.379 . S
C227 C231 1.373 . S
C227 C233 1.505 . S
C228 C227 1.379 . S
C228 C230 1.369 . S
C228 H256 0.930 . S
C229 C231 1.383 . S
C229 C232 1.382 . S
C229 H257 0.930 . S
C230 C228 1.369 . S
C230 C232 1.392 . S
C230 H258 0.930 . S
C231 C227 1.373 . S
C231 C229 1.383 . S
C231 H259 0.931 . S
C232 C229 1.382 . S
C232 C230 1.392 . S
C233 Eu224 2.828 . S
C233 C227 1.505 . S
C233 O245 1.249 . S
C233 O246 1.244 . S
O234 Eu225 2.373 . S
O234 C236 1.258 1_655 S
O235 Eu224 2.392 . S
O235 C236 1.242 . S
C236 O234 1.258 1_455 S
C236 O235 1.242 . S
O237 Eu224 2.418 1_655 S
O237 C241 1.244 . S
O238 Eu225 2.488 . S
O238 C254 1.249 . S
O239 Eu225 2.471 . S
O239 C254 1.244 . S
O240 Eu225 2.349 . S
O240 C241 1.265 . S
C241 O237 1.244 . S
C241 O240 1.265 . S
O242 Eu224 2.373 . S
O242 C255 1.258 . S
O243 Eu225 2.392 1_455 S
O243 C255 1.242 . S
O244 Eu225 2.418 1_455 S
O244 C226 1.244 . S
O245 Eu224 2.488 . S
O245 C233 1.249 . S
O246 Eu224 2.471 . S
O246 C233 1.244 . S
O247 Eu224 2.349 . S
O247 C226 1.265 . S
C248 C249 1.379 1_554 S
C248 C252 1.373 . S
C248 C254 1.505 1_554 S
C249 C248 1.379 1_556 S
C249 C251 1.369 1_556 S
C249 H260 0.930 . S
C250 C252 1.383 . S
C250 C253 1.382 . S
C250 H261 0.930 . S
C251 C249 1.369 1_554 S
C251 C253 1.392 . S
C251 H262 0.930 . S
C252 C248 1.373 . S
C252 C250 1.383 . S
C252 H263 0.931 . S
C253 C250 1.382 . S
C253 C251 1.392 . S
C254 Eu225 2.828 . S
C254 O238 1.249 . S
C254 O239 1.244 . S
C254 C248 1.505 1_556 S
C255 O242 1.258 . S
C255 O243 1.242 . S
H256 C228 0.930 . S
H257 C229 0.930 . S
H258 C230 0.930 . S
H259 C231 0.931 . S
H260 C249 0.930 . S
H261 C250 0.930 . S
H262 C251 0.930 . S
H263 C252 0.931 . S
C264 C265 1.391 . S
C264 C266 1.394 . S
C264 H280 0.931 . S
C265 C264 1.391 . S
C265 C269 1.376 . S
C266 C264 1.394 . S
C266 C267 1.369 . S
C266 C270 1.531 . S
C267 C266 1.369 . S
C267 C268 1.410 . S
C267 C275 1.503 . S
C268 C267 1.410 . S
C268 C269 1.392 . S
C268 C271 1.511 . S
C269 C265 1.376 . S
C269 C268 1.392 . S
C269 H281 0.929 . S
C270 C266 1.531 . S
C270 H282 0.960 . S
C270 H283 0.962 . S
C270 H284 0.960 . S
C271 C268 1.511 . S
C271 H285 0.961 . S
C271 H286 0.961 . S
C271 H287 0.961 . S
C272 C273 1.370 . S
C272 C274 1.363 . S
C272 H288 0.931 1_545 S
C273 C272 1.370 . S
C273 C277 1.408 . S
C274 C272 1.363 . S
C274 C275 1.370 . S
C274 C278 1.524 1_545 S
C275 C267 1.503 . S
C275 C274 1.370 . S
C275 C276 1.403 . S
C276 C275 1.403 . S
C276 C277 1.404 . S
C276 C279 1.539 . S
C277 C273 1.408 . S
C277 C276 1.404 . S
C277 H289 0.930 . S
C278 C274 1.524 1_565 S
C278 H290 0.956 . S
C278 H291 0.961 . S
C278 H292 0.961 . S
C279 C276 1.539 . S
C279 H293 0.958 . S
C279 H294 0.961 . S
C279 H295 0.960 . S
H280 C264 0.931 . S
H281 C269 0.929 . S
H282 C270 0.960 . S
H283 C270 0.962 . S
H284 C270 0.960 . S
H285 C271 0.961 . S
H286 C271 0.961 . S
H287 C271 0.961 . S
H288 C272 0.931 1_565 S
H289 C277 0.930 . S
H290 C278 0.956 . S
H291 C278 0.961 . S
H292 C278 0.961 . S
H293 C279 0.958 . S
H294 C279 0.961 . S
H295 C279 0.960 . S
C296 C297 1.391 . S
C296 C298 1.394 . S
C296 H312 0.931 . S
C297 C296 1.391 . S
C297 C301 1.376 . S
C298 C296 1.394 . S
C298 C299 1.369 . S
C298 C302 1.531 . S
C299 C298 1.369 . S
C299 C300 1.410 . S
C299 C307 1.503 . S
C300 C299 1.410 . S
C300 C301 1.392 . S
C300 C303 1.511 . S
C301 C297 1.376 . S
C301 C300 1.392 . S
C301 H313 0.929 . S
C302 C298 1.531 . S
C302 H314 0.960 . S
C302 H315 0.962 . S
C302 H316 0.960 . S
C303 C300 1.511 . S
C303 H317 0.961 . S
C303 H318 0.961 . S
C303 H319 0.961 . S
C304 C305 1.370 . S
C304 C306 1.363 . S
C304 H320 0.931 . S
C305 C304 1.370 . S
C305 C309 1.408 . S
C306 C304 1.363 . S
C306 C307 1.370 . S
C306 C310 1.524 . S
C307 C299 1.503 . S
C307 C306 1.370 . S
C307 C308 1.403 . S
C308 C307 1.403 . S
C308 C309 1.404 . S
C308 C311 1.539 . S
C309 C305 1.408 . S
C309 C308 1.404 . S
C309 H321 0.930 . S
C310 C306 1.524 . S
C310 H322 0.956 . S
C310 H323 0.961 . S
C310 H324 0.961 . S
C311 C308 1.539 . S
C311 H325 0.958 . S
C311 H326 0.961 . S
C311 H327 0.960 . S
H312 C296 0.931 . S
H313 C301 0.929 . S
H314 C302 0.960 . S
H315 C302 0.962 . S
H316 C302 0.960 . S
H317 C303 0.961 . S
H318 C303 0.961 . S
H319 C303 0.961 . S
H320 C304 0.931 . S
H321 C309 0.930 . S
H322 C310 0.956 . S
H323 C310 0.961 . S
H324 C310 0.961 . S
H325 C311 0.958 . S
H326 C311 0.961 . S
H327 C311 0.960 . S
C328 C329 1.391 . S
C328 C330 1.394 . S
C328 H344 0.931 . S
C329 C328 1.391 . S
C329 C333 1.376 . S
C330 C328 1.394 . S
C330 C331 1.369 . S
C330 C334 1.531 . S
C331 C330 1.369 . S
C331 C332 1.410 . S
C331 C339 1.503 . S
C332 C331 1.410 . S
C332 C333 1.392 . S
C332 C335 1.511 . S
C333 C329 1.376 . S
C333 C332 1.392 . S
C333 H345 0.929 . S
C334 C330 1.531 . S
C334 H346 0.960 . S
C334 H347 0.962 . S
C334 H348 0.960 . S
C335 C332 1.511 . S
C335 H349 0.961 . S
C335 H350 0.961 . S
C335 H351 0.961 . S
C336 C337 1.370 . S
C336 C338 1.363 . S
C336 H352 0.931 . S
C337 C336 1.370 . S
C337 C341 1.408 . S
C338 C336 1.363 . S
C338 C339 1.370 . S
C338 C342 1.524 . S
C339 C331 1.503 . S
C339 C338 1.370 . S
C339 C340 1.403 . S
C340 C339 1.403 . S
C340 C341 1.404 . S
C340 C343 1.539 . S
C341 C337 1.408 . S
C341 C340 1.404 . S
C341 H353 0.930 . S
C342 C338 1.524 . S
C342 H354 0.956 . S
C342 H355 0.961 . S
C342 H356 0.961 . S
C343 C340 1.539 . S
C343 H357 0.958 . S
C343 H358 0.961 . S
C343 H359 0.960 . S
H344 C328 0.931 . S
H345 C333 0.929 . S
H346 C334 0.960 . S
H347 C334 0.962 . S
H348 C334 0.960 . S
H349 C335 0.961 . S
H350 C335 0.961 . S
H351 C335 0.961 . S
H352 C336 0.931 . S
H353 C341 0.930 . S
H354 C342 0.956 . S
H355 C342 0.961 . S
H356 C342 0.961 . S
H357 C343 0.958 . S
H358 C343 0.961 . S
H359 C343 0.960 . S
C360 C361 1.391 . S
C360 C362 1.394 . S
C360 H376 0.931 . S
C361 C360 1.391 . S
C361 C365 1.376 . S
C362 C360 1.394 . S
C362 C363 1.369 . S
C362 C366 1.531 1_455 S
C363 C362 1.369 . S
C363 C364 1.410 . S
C363 C371 1.503 . S
C364 C363 1.410 . S
C364 C365 1.392 . S
C364 C367 1.511 . S
C365 C361 1.376 . S
C365 C364 1.392 . S
C365 H377 0.929 . S
C366 C362 1.531 1_655 S
C366 H378 0.960 . S
C366 H379 0.962 . S
C366 H380 0.960 . S
C367 C364 1.511 . S
C367 H381 0.961 . S
C367 H382 0.961 . S
C367 H383 0.961 . S
C368 C369 1.370 . S
C368 C370 1.363 . S
C368 H384 0.931 . S
C369 C368 1.370 . S
C369 C373 1.408 . S
C370 C368 1.363 . S
C370 C371 1.370 . S
C370 C374 1.524 . S
C371 C363 1.503 . S
C371 C370 1.370 . S
C371 C372 1.403 . S
C372 C371 1.403 . S
C372 C373 1.404 . S
C372 C375 1.539 . S
C373 C369 1.408 . S
C373 C372 1.404 . S
C373 H385 0.930 . S
C374 C370 1.524 . S
C374 H386 0.956 . S
C374 H387 0.961 . S
C374 H388 0.961 . S
C375 C372 1.539 . S
C375 H389 0.958 . S
C375 H390 0.961 . S
C375 H391 0.960 . S
H376 C360 0.931 . S
H377 C365 0.929 . S
H378 C366 0.960 . S
H379 C366 0.962 . S
H380 C366 0.960 . S
H381 C367 0.961 . S
H382 C367 0.961 . S
H383 C367 0.961 . S
H384 C368 0.931 . S
H385 C373 0.930 . S
H386 C374 0.956 . S
H387 C374 0.961 . S
H388 C374 0.961 . S
H389 C375 0.958 . S
H390 C375 0.961 . S
H391 C375 0.960 . S
C392 C393 1.391 . S
C392 C394 1.394 . S
C392 H408 0.931 . S
C393 C392 1.391 . S
C393 C397 1.376 1_565 S
C394 C392 1.394 . S
C394 C395 1.369 . S
C394 C398 1.531 . S
C395 C394 1.369 . S
C395 C396 1.410 1_565 S
C395 C403 1.503 . S
C396 C395 1.410 1_545 S
C396 C397 1.392 . S
C396 C399 1.511 . S
C397 C393 1.376 1_545 S
C397 C396 1.392 . S
C397 H409 0.929 . S
C398 C394 1.531 . S
C398 H410 0.960 . S
C398 H411 0.962 . S
C398 H412 0.960 . S
C399 C396 1.511 . S
C399 H413 0.961 . S
C399 H414 0.961 . S
C399 H415 0.961 . S
C400 C401 1.370 1_554 S
C400 C402 1.363 . S
C400 H416 0.928 1_565 S
C401 C400 1.370 1_556 S
C401 C405 1.408 . S
C402 C400 1.363 . S
C402 C403 1.370 . S
C402 C406 1.524 . S
C403 C395 1.503 . S
C403 C402 1.370 . S
C403 C404 1.403 1_554 S
C404 C403 1.403 1_556 S
C404 C405 1.404 . S
C404 C407 1.539 . S
C405 C401 1.408 . S
C405 C404 1.404 . S
C405 H417 0.930 . S
C406 C402 1.524 . S
C406 H418 0.956 . S
C406 H419 0.961 1_565 S
C406 H420 0.961 1_565 S
C407 C404 1.539 . S
C407 H421 0.958 . S
C407 H422 0.961 . S
C407 H423 0.960 1_556 S
H408 C392 0.931 . S
H409 C397 0.929 . S
H410 C398 0.960 . S
H411 C398 0.962 . S
H412 C398 0.960 . S
H413 C399 0.961 . S
H414 C399 0.961 . S
H415 C399 0.961 . S
H416 C400 0.928 1_545 S
H417 C405 0.930 . S
H418 C406 0.956 . S
H419 C406 0.961 1_545 S
H420 C406 0.961 1_545 S
H421 C407 0.958 . S
H422 C407 0.961 . S
H423 C407 0.960 1_554 S
C424 C425 1.391 . S
C424 C426 1.394 . S
C424 H440 0.931 . S
C425 C424 1.391 . S
C425 C429 1.376 . S
C426 C424 1.394 . S
C426 C427 1.369 . S
C426 C430 1.531 . S
C427 C426 1.369 . S
C427 C428 1.410 . S
C427 C435 1.503 . S
C428 C427 1.410 . S
C428 C429 1.392 . S
C428 C431 1.511 . S
C429 C425 1.376 . S
C429 C428 1.392 . S
C429 H441 0.929 . S
C430 C426 1.531 . S
C430 H442 0.960 . S
C430 H443 0.962 . S
C430 H444 0.960 . S
C431 C428 1.511 . S
C431 H445 0.961 . S
C431 H446 0.961 1_554 S
C431 H447 0.961 . S
C432 C433 1.370 . S
C432 C434 1.363 . S
C432 H448 0.931 . S
C433 C432 1.370 . S
C433 C437 1.408 . S
C434 C432 1.363 . S
C434 C435 1.370 1_556 S
C434 C438 1.524 . S
C435 C427 1.503 . S
C435 C434 1.370 1_554 S
C435 C436 1.403 . S
C436 C435 1.403 . S
C436 C437 1.404 1_554 S
C436 C439 1.539 . S
C437 C433 1.408 . S
C437 C436 1.404 1_556 S
C437 H449 0.930 . S
C438 C434 1.524 . S
C438 H450 0.956 1_556 S
C438 H451 0.961 1_556 S
C438 H452 0.961 . S
C439 C436 1.539 . S
C439 H453 0.958 . S
C439 H454 0.961 . S
C439 H455 0.960 . S
H440 C424 0.931 . S
H441 C429 0.929 . S
H442 C430 0.960 . S
H443 C430 0.962 . S
H444 C430 0.960 . S
H445 C431 0.961 . S
H446 C431 0.961 1_556 S
H447 C431 0.961 . S
H448 C432 0.931 . S
H449 C437 0.930 . S
H450 C438 0.956 1_554 S
H451 C438 0.961 1_554 S
H452 C438 0.961 . S
H453 C439 0.958 . S
H454 C439 0.961 . S
H455 C439 0.960 . S
C456 C457 1.391 . S
C456 C458 1.394 . S
C456 H472 0.931 . S
C457 C456 1.391 . S
C457 C461 1.376 . S
C458 C456 1.394 . S
C458 C459 1.369 . S
C458 C462 1.531 . S
C459 C458 1.369 . S
C459 C460 1.410 . S
C459 C467 1.503 . S
C460 C459 1.410 . S
C460 C461 1.392 . S
C460 C463 1.511 . S
C461 C457 1.376 . S
C461 C460 1.392 . S
C461 H473 0.929 . S
C462 C458 1.531 . S
C462 H474 0.960 . S
C462 H475 0.962 . S
C462 H476 0.960 . S
C463 C460 1.511 . S
C463 H477 0.961 . S
C463 H478 0.961 . S
C463 H479 0.961 . S
C464 C465 1.370 . S
C464 C466 1.363 . S
C464 H480 0.931 . S
C465 C464 1.370 . S
C465 C469 1.408 . S
C466 C464 1.363 . S
C466 C467 1.370 1_556 S
C466 C470 1.524 . S
C467 C459 1.503 . S
C467 C466 1.370 1_554 S
C467 C468 1.403 . S
C468 C467 1.403 . S
C468 C469 1.404 1_554 S
C468 C471 1.539 . S
C469 C465 1.408 . S
C469 C468 1.404 1_556 S
C469 H481 0.930 . S
C470 C466 1.524 . S
C470 H482 0.956 . S
C470 H483 0.961 . S
C470 H484 0.961 . S
C471 C468 1.539 . S
C471 H485 0.958 . S
C471 H486 0.961 . S
C471 H487 0.960 . S
H472 C456 0.931 . S
H473 C461 0.929 . S
H474 C462 0.960 . S
H475 C462 0.962 . S
H476 C462 0.960 . S
H477 C463 0.961 . S
H478 C463 0.961 . S
H479 C463 0.961 . S
H480 C464 0.931 . S
H481 C469 0.930 . S
H482 C470 0.956 . S
H483 C470 0.961 . S
H484 C470 0.961 . S
H485 C471 0.958 . S
H486 C471 0.961 . S
H487 C471 0.960 . S
C488 C489 1.391 . S
C488 C490 1.394 1_655 S
C488 H504 0.931 1_655 S
C489 C488 1.391 . S
C489 C493 1.376 . S
C490 C488 1.394 1_455 S
C490 C491 1.369 1_455 S
C490 C494 1.531 . S
C491 C490 1.369 1_655 S
C491 C492 1.410 . S
C491 C499 1.503 . S
C492 C491 1.410 . S
C492 C493 1.392 . S
C492 C495 1.511 . S
C493 C489 1.376 . S
C493 C492 1.392 . S
C493 H505 0.929 . S
C494 C490 1.531 . S
C494 H506 0.960 . S
C494 H507 0.962 . S
C494 H508 0.960 . S
C495 C492 1.511 . S
C495 H509 0.961 . S
C495 H510 0.961 . S
C495 H511 0.961 . S
C496 C497 1.370 1_455 S
C496 C498 1.363 1_456 S
C496 H512 0.931 . S
C497 C496 1.370 1_655 S
C497 C501 1.408 1_556 S
C498 C496 1.363 1_654 S
C498 C499 1.370 . S
C498 C502 1.524 1_655 S
C499 C491 1.503 . S
C499 C498 1.370 . S
C499 C500 1.403 . S
C500 C499 1.403 . S
C500 C501 1.404 . S
C500 C503 1.539 . S
C501 C497 1.408 1_554 S
C501 C500 1.404 . S
C501 H513 0.930 . S
C502 C498 1.524 1_455 S
C502 H514 0.956 . S
C502 H515 0.961 1_455 S
C502 H516 0.961 1_554 S
C503 C500 1.539 . S
C503 H517 0.958 . S
C503 H518 0.961 . S
C503 H519 0.960 . S
H504 C488 0.931 1_455 S
H505 C493 0.929 . S
H506 C494 0.960 . S
H507 C494 0.962 . S
H508 C494 0.960 . S
H509 C495 0.961 . S
H510 C495 0.961 . S
H511 C495 0.961 . S
H512 C496 0.931 . S
H513 C501 0.930 . S
H514 C502 0.956 . S
H515 C502 0.961 1_655 S
H516 C502 0.961 1_556 S
H517 C503 0.958 . S
H518 C503 0.961 . S
H519 C503 0.960 . S
C520 C521 1.391 . S
C520 C522 1.394 . S
C520 H536 0.931 1_554 S
C521 C520 1.391 . S
C521 C525 1.376 . S
C522 C520 1.394 . S
C522 C523 1.369 . S
C522 C526 1.531 . S
C523 C522 1.369 . S
C523 C524 1.410 . S
C523 C531 1.503 . S
C524 C523 1.410 . S
C524 C525 1.392 . S
C524 C527 1.511 . S
C525 C521 1.376 . S
C525 C524 1.392 . S
C525 H537 0.929 . S
C526 C522 1.531 . S
C526 H538 0.960 . S
C526 H539 0.962 1_455 S
C526 H540 0.960 1_554 S
C527 C524 1.511 . S
C527 H541 0.961 . S
C527 H542 0.961 . S
C527 H543 0.961 . S
C528 C529 1.370 1_655 S
C528 C530 1.363 1_655 S
C528 H544 0.931 . S
C529 C528 1.370 1_455 S
C529 C533 1.408 . S
C530 C528 1.363 1_455 S
C530 C531 1.370 . S
C530 C534 1.524 1_455 S
C531 C523 1.503 . S
C531 C530 1.370 . S
C531 C532 1.403 . S
C532 C531 1.403 . S
C532 C533 1.404 . S
C532 C535 1.539 . S
C533 C529 1.408 . S
C533 C532 1.404 . S
C533 H545 0.930 . S
C534 C530 1.524 1_655 S
C534 H546 0.956 . S
C534 H547 0.961 1_655 S
C534 H548 0.961 . S
C535 C532 1.539 . S
C535 H549 0.958 . S
C535 H550 0.961 . S
C535 H551 0.960 . S
H536 C520 0.931 1_556 S
H537 C525 0.929 . S
H538 C526 0.960 . S
H539 C526 0.962 1_655 S
H540 C526 0.960 1_556 S
H541 C527 0.961 . S
H542 C527 0.961 . S
H543 C527 0.961 . S
H544 C528 0.931 . S
H545 C533 0.930 . S
H546 C534 0.956 . S
H547 C534 0.961 1_455 S
H548 C534 0.961 . S
H549 C535 0.958 . S
H550 C535 0.961 . S
H551 C535 0.960 . S
C552 C553 1.391 . S
C552 C554 1.394 . S
C552 H568 0.931 . S
C553 C552 1.391 . S
C553 C557 1.376 . S
C554 C552 1.394 . S
C554 C555 1.369 . S
C554 C558 1.531 . S
C555 C554 1.369 . S
C555 C556 1.410 . S
C555 C563 1.503 . S
C556 C555 1.410 . S
C556 C557 1.392 . S
C556 C559 1.511 . S
C557 C553 1.376 . S
C557 C556 1.392 . S
C557 H569 0.929 . S
C558 C554 1.531 . S
C558 H570 0.960 . S
C558 H571 0.962 . S
C558 H572 0.960 . S
C559 C556 1.511 . S
C559 H573 0.961 . S
C559 H574 0.961 1_545 S
C559 H575 0.961 . S
C560 C561 1.370 . S
C560 C562 1.363 . S
C560 H576 0.931 . S
C561 C560 1.370 . S
C561 C565 1.408 1_565 S
C562 C560 1.363 . S
C562 C563 1.370 1_565 S
C562 C566 1.524 . S
C563 C555 1.503 . S
C563 C562 1.370 1_545 S
C563 C564 1.403 . S
C564 C563 1.403 . S
C564 C565 1.404 . S
C564 C567 1.539 . S
C565 C561 1.408 1_545 S
C565 C564 1.404 . S
C565 H577 0.930 . S
C566 C562 1.524 . S
C566 H578 0.956 . S
C566 H579 0.961 . S
C566 H580 0.961 . S
C567 C564 1.539 . S
C567 H581 0.958 . S
C567 H582 0.961 . S
C567 H583 0.960 . S
H568 C552 0.931 . S
H569 C557 0.929 . S
H570 C558 0.960 . S
H571 C558 0.962 . S
H572 C558 0.960 . S
H573 C559 0.961 . S
H574 C559 0.961 1_565 S
H575 C559 0.961 . S
H576 C560 0.931 . S
H577 C565 0.930 . S
H578 C566 0.956 . S
H579 C566 0.961 . S
H580 C566 0.961 . S
H581 C567 0.958 . S
H582 C567 0.961 . S
H583 C567 0.960 . S
C584 C585 1.391 . S
C584 C586 1.394 . S
C584 H600 0.931 . S
C585 C584 1.391 . S
C585 C589 1.376 . S
C586 C584 1.394 . S
C586 C587 1.369 . S
C586 C590 1.531 . S
C587 C586 1.369 . S
C587 C588 1.410 . S
C587 C595 1.503 . S
C588 C587 1.410 . S
C588 C589 1.392 . S
C588 C591 1.511 . S
C589 C585 1.376 . S
C589 C588 1.392 . S
C589 H601 0.929 . S
C590 C586 1.531 . S
C590 H602 0.960 . S
C590 H603 0.962 . S
C590 H604 0.960 . S
C591 C588 1.511 . S
C591 H605 0.961 . S
C591 H606 0.961 . S
C591 H607 0.961 . S
C592 C593 1.370 . S
C592 C594 1.363 . S
C592 H608 0.931 . S
C593 C592 1.370 . S
C593 C597 1.408 . S
C594 C592 1.363 . S
C594 C595 1.370 . S
C594 C598 1.524 . S
C595 C587 1.503 . S
C595 C594 1.370 . S
C595 C596 1.403 . S
C596 C595 1.403 . S
C596 C597 1.404 . S
C596 C599 1.539 . S
C597 C593 1.408 . S
C597 C596 1.404 . S
C597 H609 0.930 . S
C598 C594 1.524 . S
C598 H610 0.956 . S
C598 H611 0.961 . S
C598 H612 0.961 . S
C599 C596 1.539 . S
C599 H613 0.958 . S
C599 H614 0.961 . S
C599 H615 0.960 . S
H600 C584 0.931 . S
H601 C589 0.929 . S
H602 C590 0.960 . S
H603 C590 0.962 . S
H604 C590 0.960 . S
H605 C591 0.961 . S
H606 C591 0.961 . S
H607 C591 0.961 . S
H608 C592 0.931 . S
H609 C597 0.930 . S
H610 C598 0.956 . S
H611 C598 0.961 . S
H612 C598 0.961 . S
H613 C599 0.958 . S
H614 C599 0.961 . S
H615 C599 0.960 . S
C616 C617 1.391 . S
C616 C618 1.394 . S
C616 H632 0.931 . S
C617 C616 1.391 . S
C617 C621 1.376 . S
C618 C616 1.394 . S
C618 C619 1.369 . S
C618 C622 1.531 . S
C619 C618 1.369 . S
C619 C620 1.410 . S
C619 C627 1.503 . S
C620 C619 1.410 . S
C620 C621 1.392 . S
C620 C623 1.511 . S
C621 C617 1.376 . S
C621 C620 1.392 . S
C621 H633 0.929 . S
C622 C618 1.531 . S
C622 H634 0.960 . S
C622 H635 0.962 . S
C622 H636 0.960 . S
C623 C620 1.511 . S
C623 H637 0.961 . S
C623 H638 0.961 . S
C623 H639 0.961 . S
C624 C625 1.370 . S
C624 C626 1.363 . S
C624 H640 0.931 . S
C625 C624 1.370 . S
C625 C629 1.408 . S
C626 C624 1.363 . S
C626 C627 1.370 . S
C626 C630 1.524 . S
C627 C619 1.503 . S
C627 C626 1.370 . S
C627 C628 1.403 . S
C628 C627 1.403 . S
C628 C629 1.404 . S
C628 C631 1.539 . S
C629 C625 1.408 . S
C629 C628 1.404 . S
C629 H641 0.930 . S
C630 C626 1.524 . S
C630 H642 0.956 . S
C630 H643 0.961 . S
C630 H644 0.961 . S
C631 C628 1.539 . S
C631 H645 0.958 . S
C631 H646 0.961 . S
C631 H647 0.960 . S
H632 C616 0.931 . S
H633 C621 0.929 . S
H634 C622 0.960 . S
H635 C622 0.962 . S
H636 C622 0.960 . S
H637 C623 0.961 . S
H638 C623 0.961 . S
H639 C623 0.961 . S
H640 C624 0.931 . S
H641 C629 0.930 . S
H642 C630 0.956 . S
H643 C630 0.961 . S
H644 C630 0.961 . S
H645 C631 0.958 . S
H646 C631 0.961 . S
H647 C631 0.960 . S
C648 C649 1.391 . S
C648 C650 1.394 . S
C648 H664 0.931 . S
C649 C648 1.391 . S
C649 C653 1.376 . S
C650 C648 1.394 . S
C650 C651 1.369 . S
C650 C654 1.531 . S
C651 C650 1.369 . S
C651 C652 1.410 . S
C651 C659 1.503 . S
C652 C651 1.410 . S
C652 C653 1.392 . S
C652 C655 1.511 . S
C653 C649 1.376 . S
C653 C652 1.392 . S
C653 H665 0.929 . S
C654 C650 1.531 . S
C654 H666 0.960 . S
C654 H667 0.962 1_655 S
C654 H668 0.960 . S
C655 C652 1.511 . S
C655 H669 0.961 . S
C655 H670 0.961 . S
C655 H671 0.961 . S
C656 C657 1.370 . S
C656 C658 1.363 . S
C656 H672 0.931 . S
C657 C656 1.370 . S
C657 C661 1.408 1_455 S
C658 C656 1.363 . S
C658 C659 1.370 1_455 S
C658 C662 1.524 . S
C659 C651 1.503 . S
C659 C658 1.370 1_655 S
C659 C660 1.403 . S
C660 C659 1.403 . S
C660 C661 1.404 . S
C660 C663 1.539 . S
C661 C657 1.408 1_655 S
C661 C660 1.404 . S
C661 H673 0.930 . S
C662 C658 1.524 . S
C662 H674 0.956 . S
C662 H675 0.961 . S
C662 H676 0.961 . S
C663 C660 1.539 . S
C663 H677 0.958 . S
C663 H678 0.961 . S
C663 H679 0.960 . S
H664 C648 0.931 . S
H665 C653 0.929 . S
H666 C654 0.960 . S
H667 C654 0.962 1_455 S
H668 C654 0.960 . S
H669 C655 0.961 . S
H670 C655 0.961 . S
H671 C655 0.961 . S
H672 C656 0.931 . S
H673 C661 0.930 . S
H674 C662 0.956 . S
H675 C662 0.961 . S
H676 C662 0.961 . S
H677 C663 0.958 . S
H678 C663 0.961 . S
H679 C663 0.960 . S
C680 C681 1.391 . S
C680 C682 1.394 1_565 S
C680 H696 0.931 1_565 S
C681 C680 1.391 . S
C681 C685 1.376 . S
C682 C680 1.394 1_545 S
C682 C683 1.369 1_545 S
C682 C686 1.531 . S
C683 C682 1.369 1_565 S
C683 C684 1.410 . S
C683 C691 1.503 1_565 S
C684 C683 1.410 . S
C684 C685 1.392 . S
C684 C687 1.511 . S
C685 C681 1.376 . S
C685 C684 1.392 . S
C685 H697 0.929 . S
C686 C682 1.531 . S
C686 H698 0.960 . S
C686 H699 0.962 . S
C686 H700 0.960 . S
C687 C684 1.511 . S
C687 H701 0.961 . S
C687 H702 0.961 . S
C687 H703 0.961 . S
C688 C689 1.370 . S
C688 C690 1.363 . S
C688 H704 0.931 . S
C689 C688 1.370 . S
C689 C693 1.408 . S
C690 C688 1.363 . S
C690 C691 1.370 . S
C690 C694 1.524 . S
C691 C683 1.503 1_545 S
C691 C690 1.370 . S
C691 C692 1.403 1_545 S
C692 C691 1.403 1_565 S
C692 C693 1.404 1_565 S
C692 C695 1.539 . S
C693 C689 1.408 . S
C693 C692 1.404 1_545 S
C693 H705 0.930 1_544 S
C694 C690 1.524 . S
C694 H706 0.956 . S
C694 H707 0.961 . S
C694 H708 0.961 . S
C695 C692 1.539 . S
C695 H709 0.958 . S
C695 H710 0.961 . S
C695 H711 0.960 . S
H696 C680 0.931 1_545 S
H697 C685 0.929 . S
H698 C686 0.960 . S
H699 C686 0.962 . S
H700 C686 0.960 . S
H701 C687 0.961 . S
H702 C687 0.961 . S
H703 C687 0.961 . S
H704 C688 0.931 . S
H705 C693 0.930 1_566 S
H706 C694 0.956 . S
H707 C694 0.961 . S
H708 C694 0.961 . S
H709 C695 0.958 . S
H710 C695 0.961 . S
H711 C695 0.960 . S
C712 C713 1.391 . S
C712 C714 1.394 . S
C712 H728 0.931 . S
C713 C712 1.391 . S
C713 C717 1.376 . S
C714 C712 1.394 . S
C714 C715 1.369 . S
C714 C718 1.531 . S
C715 C714 1.369 . S
C715 C716 1.410 . S
C715 C723 1.503 . S
C716 C715 1.410 . S
C716 C717 1.392 . S
C716 C719 1.511 . S
C717 C713 1.376 . S
C717 C716 1.392 . S
C717 H729 0.929 . S
C718 C714 1.531 . S
C718 H730 0.960 . S
C718 H731 0.962 . S
C718 H732 0.960 . S
C719 C716 1.511 . S
C719 H733 0.961 . S
C719 H734 0.961 . S
C719 H735 0.961 . S
C720 C721 1.370 . S
C720 C722 1.363 . S
C720 H736 0.931 . S
C721 C720 1.370 . S
C721 C725 1.408 . S
C722 C720 1.363 . S
C722 C723 1.370 . S
C722 C726 1.524 . S
C723 C715 1.503 . S
C723 C722 1.370 . S
C723 C724 1.403 . S
C724 C723 1.403 . S
C724 C725 1.404 . S
C724 C727 1.539 . S
C725 C721 1.408 . S
C725 C724 1.404 . S
C725 H737 0.930 . S
C726 C722 1.524 . S
C726 H738 0.956 . S
C726 H739 0.961 . S
C726 H740 0.961 . S
C727 C724 1.539 . S
C727 H741 0.958 . S
C727 H742 0.961 . S
C727 H743 0.960 . S
H728 C712 0.931 . S
H729 C717 0.929 . S
H730 C718 0.960 . S
H731 C718 0.962 . S
H732 C718 0.960 . S
H733 C719 0.961 . S
H734 C719 0.961 . S
H735 C719 0.961 . S
H736 C720 0.931 . S
H737 C725 0.930 . S
H738 C726 0.956 . S
H739 C726 0.961 . S
H740 C726 0.961 . S
H741 C727 0.958 . S
H742 C727 0.961 . S
H743 C727 0.960 . S
C744 C745 1.391 . S
C744 C746 1.394 . S
C744 H760 0.931 . S
C745 C744 1.391 . S
C745 C749 1.376 . S
C746 C744 1.394 . S
C746 C747 1.369 . S
C746 C750 1.531 . S
C747 C746 1.369 . S
C747 C748 1.410 . S
C747 C755 1.503 . S
C748 C747 1.410 . S
C748 C749 1.392 . S
C748 C751 1.511 . S
C749 C745 1.376 . S
C749 C748 1.392 . S
C749 H761 0.929 . S
C750 C746 1.531 . S
C750 H762 0.960 . S
C750 H763 0.962 . S
C750 H764 0.960 . S
C751 C748 1.511 . S
C751 H765 0.961 . S
C751 H766 0.961 . S
C751 H767 0.961 . S
C752 C753 1.370 . S
C752 C754 1.363 . S
C752 H768 0.931 . S
C753 C752 1.370 . S
C753 C757 1.408 . S
C754 C752 1.363 . S
C754 C755 1.370 . S
C754 C758 1.524 . S
C755 C747 1.503 . S
C755 C754 1.370 . S
C755 C756 1.403 . S
C756 C755 1.403 . S
C756 C757 1.404 . S
C756 C759 1.539 . S
C757 C753 1.408 . S
C757 C756 1.404 . S
C757 H769 0.930 . S
C758 C754 1.524 . S
C758 H770 0.956 . S
C758 H771 0.961 . S
C758 H772 0.961 . S
C759 C756 1.539 . S
C759 H773 0.958 . S
C759 H774 0.961 . S
C759 H775 0.960 . S
H760 C744 0.931 . S
H761 C749 0.929 . S
H762 C750 0.960 . S
H763 C750 0.962 . S
H764 C750 0.960 . S
H765 C751 0.961 . S
H766 C751 0.961 . S
H767 C751 0.961 . S
H768 C752 0.931 . S
H769 C757 0.930 . S
H770 C758 0.956 . S
H771 C758 0.961 . S
H772 C758 0.961 . S
H773 C759 0.958 . S
H774 C759 0.961 . S
H775 C759 0.960 . S
C776 C777 1.391 1_554 S
C776 C778 1.394 1_554 S
C776 H792 0.931 . S
C777 C776 1.391 1_556 S
C777 C781 1.376 . S
C778 C776 1.394 1_556 S
C778 C779 1.369 . S
C778 C782 1.531 1_556 S
C779 C778 1.369 . S
C779 C780 1.410 . S
C779 C787 1.503 . S
C780 C779 1.410 . S
C780 C781 1.392 . S
C780 C783 1.511 . S
C781 C777 1.376 . S
C781 C780 1.392 . S
C781 H793 0.929 . S
C782 C778 1.531 1_554 S
C782 H794 0.960 . S
C782 H795 0.962 . S
C782 H796 0.986 . S
C783 C780 1.511 . S
C783 H797 0.961 . S
C783 H798 0.961 . S
C783 H799 0.961 . S
C784 C785 1.370 . S
C784 C786 1.363 . S
C784 H800 0.931 . S
C785 C784 1.370 . S
C785 C789 1.408 . S
C786 C784 1.363 . S
C786 C787 1.370 . S
C786 C790 1.524 . S
C787 C779 1.503 . S
C787 C786 1.370 . S
C787 C788 1.403 . S
C788 C787 1.403 . S
C788 C789 1.404 . S
C788 C791 1.539 1_455 S
C789 C785 1.408 . S
C789 C788 1.404 . S
C789 H801 0.930 1_455 S
C790 C786 1.524 . S
C790 H802 0.956 1_556 S
C790 H803 0.961 . S
C790 H804 0.961 . S
C791 C788 1.539 1_655 S
C791 H805 0.958 . S
C791 H806 0.961 . S
C791 H807 0.960 . S
H792 C776 0.931 . S
H793 C781 0.929 . S
H794 C782 0.960 . S
H795 C782 0.962 . S
H796 C782 0.986 . S
H797 C783 0.961 . S
H798 C783 0.961 . S
H799 C783 0.961 . S
H800 C784 0.931 . S
H801 C789 0.930 1_655 S
H802 C790 0.956 1_554 S
H803 C790 0.961 . S
H804 C790 0.961 . S
H805 C791 0.958 . S
H806 C791 0.961 . S
H807 C791 0.960 . S
C808 C809 1.391 . S
C808 C810 1.394 . S
C808 H824 0.931 1_545 S
C809 C808 1.391 . S
C809 C813 1.376 . S
C810 C808 1.394 . S
C810 C811 1.369 . S
C810 C814 1.531 1_545 S
C811 C810 1.369 . S
C811 C812 1.410 . S
C811 C819 1.503 . S
C812 C811 1.410 . S
C812 C813 1.392 . S
C812 C815 1.511 . S
C813 C809 1.376 . S
C813 C812 1.392 . S
C813 H825 0.929 . S
C814 C810 1.531 1_565 S
C814 H826 0.960 . S
C814 H827 0.962 . S
C814 H828 0.960 . S
C815 C812 1.511 . S
C815 H829 0.961 . S
C815 H830 0.961 . S
C815 H831 0.961 . S
C816 C817 1.370 . S
C816 C818 1.363 . S
C816 H832 0.931 . S
C817 C816 1.370 . S
C817 C821 1.408 . S
C818 C816 1.363 . S
C818 C819 1.370 . S
C818 C822 1.524 . S
C819 C811 1.503 . S
C819 C818 1.370 . S
C819 C820 1.403 . S
C820 C819 1.403 . S
C820 C821 1.404 . S
C820 C823 1.539 . S
C821 C817 1.408 . S
C821 C820 1.404 . S
C821 H833 0.930 . S
C822 C818 1.524 . S
C822 H834 0.956 1_556 S
C822 H835 0.961 . S
C822 H836 0.961 1_556 S
C823 C820 1.539 . S
C823 H837 0.958 1_545 S
C823 H838 0.961 . S
C823 H839 0.960 . S
H824 C808 0.931 1_565 S
H825 C813 0.929 . S
H826 C814 0.960 . S
H827 C814 0.962 . S
H828 C814 0.960 . S
H829 C815 0.961 . S
H830 C815 0.961 . S
H831 C815 0.961 . S
H832 C816 0.931 . S
H833 C821 0.930 . S
H834 C822 0.956 1_554 S
H835 C822 0.961 . S
H836 C822 0.961 1_554 S
H837 C823 0.958 1_565 S
H838 C823 0.961 . S
H839 C823 0.960 . S
C840 C841 1.391 . S
C840 C842 1.394 . S
C840 H856 0.931 . S
C841 C840 1.391 . S
C841 C845 1.376 . S
C842 C840 1.394 . S
C842 C843 1.369 . S
C842 C846 1.531 . S
C843 C842 1.369 . S
C843 C844 1.410 . S
C843 C851 1.503 . S
C844 C843 1.410 . S
C844 C845 1.392 . S
C844 C847 1.511 . S
C845 C841 1.376 . S
C845 C844 1.392 . S
C845 H857 0.929 . S
C846 C842 1.531 . S
C846 H858 0.960 . S
C846 H859 0.962 . S
C846 H860 0.960 . S
C847 C844 1.511 . S
C847 H861 0.961 . S
C847 H862 0.961 . S
C847 H863 0.961 . S
C848 C849 1.370 . S
C848 C850 1.363 . S
C848 H864 0.931 . S
C849 C848 1.370 . S
C849 C853 1.408 . S
C850 C848 1.363 . S
C850 C851 1.370 . S
C850 C854 1.524 1_556 S
C851 C843 1.503 . S
C851 C850 1.370 . S
C851 C852 1.403 . S
C852 C851 1.403 . S
C852 C853 1.404 . S
C852 C855 1.539 . S
C853 C849 1.408 . S
C853 C852 1.404 . S
C853 H865 0.930 . S
C854 C850 1.524 1_554 S
C854 H866 0.956 . S
C854 H867 0.961 . S
C854 H868 0.961 . S
C855 C852 1.539 . S
C855 H869 0.958 . S
C855 H870 0.961 . S
C855 H871 0.960 . S
H856 C840 0.931 . S
H857 C845 0.929 . S
H858 C846 0.960 . S
H859 C846 0.962 . S
H860 C846 0.960 . S
H861 C847 0.961 . S
H862 C847 0.961 . S
H863 C847 0.961 . S
H864 C848 0.931 . S
H865 C853 0.930 . S
H866 C854 0.956 . S
H867 C854 0.961 . S
H868 C854 0.961 . S
H869 C855 0.958 . S
H870 C855 0.961 . S
H871 C855 0.960 . S
C872 C873 1.391 1_554 S
C872 C874 1.394 . S
C872 H888 0.931 . S
C873 C872 1.391 1_556 S
C873 C877 1.376 . S
C874 C872 1.394 . S
C874 C875 1.369 1_554 S
C874 C878 1.531 . S
C875 C874 1.369 1_556 S
C875 C876 1.410 . S
C875 C883 1.503 . S
C876 C875 1.410 . S
C876 C877 1.392 . S
C876 C879 1.511 . S
C877 C873 1.376 . S
C877 C876 1.392 . S
C877 H889 0.929 . S
C878 C874 1.531 . S
C878 H890 0.960 . S
C878 H891 0.962 . S
C878 H892 0.960 . S
C879 C876 1.511 . S
C879 H893 0.961 . S
C879 H894 0.961 . S
C879 H895 0.961 . S
C880 C881 1.370 . S
C880 C882 1.363 . S
C880 H896 0.931 . S
C881 C880 1.370 . S
C881 C885 1.408 . S
C882 C880 1.363 . S
C882 C883 1.370 . S
C882 C886 1.524 . S
C883 C875 1.503 . S
C883 C882 1.370 . S
C883 C884 1.403 . S
C884 C883 1.403 . S
C884 C885 1.404 . S
C884 C887 1.539 . S
C885 C881 1.408 . S
C885 C884 1.404 . S
C885 H897 0.930 . S
C886 C882 1.524 . S
C886 H898 0.956 1_556 S
C886 H899 0.961 . S
C886 H900 0.961 . S
C887 C884 1.539 . S
C887 H901 0.958 . S
C887 H902 0.961 . S
C887 H903 0.960 . S
H888 C872 0.931 . S
H889 C877 0.929 . S
H890 C878 0.960 . S
H891 C878 0.962 . S
H892 C878 0.960 . S
H893 C879 0.961 . S
H894 C879 0.961 . S
H895 C879 0.961 . S
H896 C880 0.931 . S
H897 C885 0.930 . S
H898 C886 0.956 1_554 S
H899 C886 0.961 . S
H900 C886 0.961 . S
H901 C887 0.958 . S
H902 C887 0.961 . S
H903 C887 0.960 . S
C904 C905 1.391 . S
C904 C906 1.394 . S
C904 H920 0.931 1_655 S
C905 C904 1.391 . S
C905 C909 1.376 . S
C906 C904 1.394 . S
C906 C907 1.369 . S
C906 C910 1.531 1_655 S
C907 C906 1.369 . S
C907 C908 1.410 . S
C907 C915 1.503 . S
C908 C907 1.410 . S
C908 C909 1.392 . S
C908 C911 1.511 . S
C909 C905 1.376 . S
C909 C908 1.392 . S
C909 H921 0.929 . S
C910 C906 1.531 1_455 S
C910 H922 0.960 . S
C910 H923 0.962 . S
C910 H924 0.960 . S
C911 C908 1.511 . S
C911 H925 0.961 . S
C911 H926 0.961 . S
C911 H927 0.961 . S
C912 C913 1.370 1_455 S
C912 C914 1.363 1_455 S
C912 H928 0.931 . S
C913 C912 1.370 1_655 S
C913 C917 1.408 . S
C914 C912 1.363 1_655 S
C914 C915 1.370 . S
C914 C918 1.524 1_655 S
C915 C907 1.503 . S
C915 C914 1.370 . S
C915 C916 1.403 . S
C916 C915 1.403 . S
C916 C917 1.404 . S
C916 C919 1.539 . S
C917 C913 1.408 . S
C917 C916 1.404 . S
C917 H929 0.930 . S
C918 C914 1.524 1_455 S
C918 H930 0.956 . S
C918 H931 0.961 1_455 S
C918 H932 0.961 . S
C919 C916 1.539 . S
C919 H933 0.958 . S
C919 H934 0.961 . S
C919 H935 0.960 . S
H920 C904 0.931 1_455 S
H921 C909 0.929 . S
H922 C910 0.960 . S
H923 C910 0.962 . S
H924 C910 0.960 . S
H925 C911 0.961 . S
H926 C911 0.961 . S
H927 C911 0.961 . S
H928 C912 0.931 . S
H929 C917 0.930 . S
H930 C918 0.956 . S
H931 C918 0.961 1_655 S
H932 C918 0.961 . S
H933 C919 0.958 . S
H934 C919 0.961 . S
H935 C919 0.960 . S
C936 C937 1.391 1_545 S
C936 C938 1.394 . S
C936 H952 0.931 . S
C937 C936 1.391 1_565 S
C937 C941 1.376 . S
C938 C936 1.394 . S
C938 C939 1.369 1_545 S
C938 C942 1.531 . S
C939 C938 1.369 1_565 S
C939 C940 1.410 . S
C939 C947 1.503 . S
C940 C939 1.410 . S
C940 C941 1.392 . S
C940 C943 1.511 . S
C941 C937 1.376 . S
C941 C940 1.392 . S
C941 H953 0.929 . S
C942 C938 1.531 . S
C942 H954 0.960 . S
C942 H955 0.962 . S
C942 H956 0.960 . S
C943 C940 1.511 . S
C943 H957 0.961 . S
C943 H958 0.961 . S
C943 H959 0.961 . S
C944 C945 1.370 . S
C944 C946 1.363 . S
C944 H960 0.931 . S
C945 C944 1.370 . S
C945 C949 1.408 1_565 S
C946 C944 1.363 . S
C946 C947 1.370 . S
C946 C950 1.524 . S
C947 C939 1.503 . S
C947 C946 1.370 . S
C947 C948 1.403 1_565 S
C948 C947 1.403 1_545 S
C948 C949 1.404 . S
C948 C951 1.539 . S
C949 C945 1.408 1_545 S
C949 C948 1.404 . S
C949 H961 0.930 . S
C950 C946 1.524 . S
C950 H962 0.956 . S
C950 H963 0.961 . S
C950 H964 0.961 . S
C951 C948 1.539 . S
C951 H965 0.958 . S
C951 H966 0.961 . S
C951 H967 0.960 . S
H952 C936 0.931 . S
H953 C941 0.929 . S
H954 C942 0.960 . S
H955 C942 0.962 . S
H956 C942 0.960 . S
H957 C943 0.961 . S
H958 C943 0.961 . S
H959 C943 0.961 . S
H960 C944 0.931 . S
H961 C949 0.930 . S
H962 C950 0.956 . S
H963 C950 0.961 . S
H964 C950 0.961 . S
H965 C951 0.958 . S
H966 C951 0.961 . S
H967 C951 0.960 . S
C968 C969 1.391 . S
C968 C970 1.394 . S
C968 H984 0.931 . S
C969 C968 1.391 . S
C969 C973 1.376 . S
C970 C968 1.394 . S
C970 C971 1.369 . S
C970 C974 1.531 . S
C971 C970 1.369 . S
C971 C972 1.410 . S
C971 C979 1.503 . S
C972 C971 1.410 . S
C972 C973 1.392 . S
C972 C975 1.511 . S
C973 C969 1.376 . S
C973 C972 1.392 . S
C973 H985 0.929 . S
C974 C970 1.531 . S
C974 H986 0.960 . S
C974 H987 0.962 . S
C974 H988 0.960 . S
C975 C972 1.511 . S
C975 H989 0.961 . S
C975 H990 0.961 . S
C975 H991 0.961 . S
C976 C977 1.370 . S
C976 C978 1.363 . S
C976 H992 0.931 . S
C977 C976 1.370 . S
C977 C981 1.408 . S
C978 C976 1.363 . S
C978 C979 1.370 . S
C978 C982 1.524 . S
C979 C971 1.503 . S
C979 C978 1.370 . S
C979 C980 1.403 . S
C980 C979 1.403 . S
C980 C981 1.404 . S
C980 C983 1.539 . S
C981 C977 1.408 . S
C981 C980 1.404 . S
C981 H993 0.930 . S
C982 C978 1.524 . S
C982 H994 0.956 . S
C982 H995 0.961 . S
C982 H996 0.961 . S
C983 C980 1.539 . S
C983 H997 0.958 . S
C983 H998 0.961 . S
C983 H999 0.960 . S
H984 C968 0.931 . S
H985 C973 0.929 . S
H986 C974 0.960 . S
H987 C974 0.962 . S
H988 C974 0.960 . S
H989 C975 0.961 . S
H990 C975 0.961 . S
H991 C975 0.961 . S
H992 C976 0.931 . S
H993 C981 0.930 . S
H994 C982 0.956 . S
H995 C982 0.961 . S
H996 C982 0.961 . S
H997 C983 0.958 . S
H998 C983 0.961 . S
H999 C983 0.960 . S
C1000 C1001 1.391 . S
C1000 C1002 1.394 . S
C1000 H1016 0.931 . S
C1001 C1000 1.391 . S
C1001 C1005 1.376 . S
C1002 C1000 1.394 . S
C1002 C1003 1.369 . S
C1002 C1006 1.531 . S
C1003 C1002 1.369 . S
C1003 C1004 1.410 . S
C1003 C1011 1.503 . S
C1004 C1003 1.410 . S
C1004 C1005 1.392 . S
C1004 C1007 1.511 . S
C1005 C1001 1.376 . S
C1005 C1004 1.392 . S
C1005 H1017 0.929 . S
C1006 C1002 1.531 . S
C1006 H1018 0.960 . S
C1006 H1019 0.962 . S
C1006 H1020 0.960 . S
C1007 C1004 1.511 . S
C1007 H1021 0.961 . S
C1007 H1022 0.961 . S
C1007 H1023 0.961 . S
C1008 C1009 1.370 . S
C1008 C1010 1.363 . S
C1008 H1024 0.931 . S
C1009 C1008 1.370 . S
C1009 C1013 1.408 . S
C1010 C1008 1.363 . S
C1010 C1011 1.370 . S
C1010 C1014 1.524 . S
C1011 C1003 1.503 . S
C1011 C1010 1.370 . S
C1011 C1012 1.403 . S
C1012 C1011 1.403 . S
C1012 C1013 1.404 . S
C1012 C1015 1.539 . S
C1013 C1009 1.408 . S
C1013 C1012 1.404 . S
C1013 H1025 0.930 . S
C1014 C1010 1.524 . S
C1014 H1026 0.956 . S
C1014 H1027 0.961 . S
C1014 H1028 0.961 . S
C1015 C1012 1.539 . S
C1015 H1029 0.958 . S
C1015 H1030 0.961 . S
C1015 H1031 0.960 . S
H1016 C1000 0.931 . S
H1017 C1005 0.929 . S
H1018 C1006 0.960 . S
H1019 C1006 0.962 . S
H1020 C1006 0.960 . S
H1021 C1007 0.961 . S
H1022 C1007 0.961 . S
H1023 C1007 0.961 . S
H1024 C1008 0.931 . S
H1025 C1013 0.930 . S
H1026 C1014 0.956 . S
H1027 C1014 0.961 . S
H1028 C1014 0.961 . S
H1029 C1015 0.958 . S
H1030 C1015 0.961 . S
H1031 C1015 0.960 . S
C265 N80 2.177 . S
C273 C135 2.295 . S
C305 C161 1.879 . S
C297 N93 1.802 . S
C337 C201 1.957 . S
C329 N54 1.885 . S
C369 C255 2.350 . S
C361 N67 2.223 . S
C401 C116 2.297 1_565 S
C393 N28 2.156 . S
C425 N41 1.784 . S
C433 C146 1.887 . S
C457 N2 1.902 . S
C465 C186 1.961 . S
C489 N15 2.273 . S
C497 C236 2.345 1_655 S
C529 C112 0.524 . S
C521 N70 0.533 . S
C561 C173 0.586 . S
C553 N83 0.638 . S
C593 C213 0.478 . S
C585 N96 0.551 . S
C617 N57 0.336 . S
C625 C232 0.472 . S
C649 N18 0.540 . S
C657 C133 0.504 . S
C689 C152 0.584 . S
C681 N31 0.617 . S
C721 C192 0.524 . S
C713 N44 0.472 . S
C745 N5 0.404 . S
C753 C253 0.473 . S
C777 N66 1.996 1_556 S
C785 C106 2.101 . S
C809 N79 2.487 . S
C817 C156 2.558 . S
C849 C196 2.367 . S
C841 N92 2.315 1_556 S
C881 C226 1.891 . S
C873 N53 1.813 1_556 S
C905 N14 1.982 . S
C913 C121 2.097 . S
C945 C175 2.557 . S
C937 N27 2.458 . S
C977 C215 2.366 . S
C969 N40 2.302 . S
C1001 N1 1.808 . S
C1009 C241 1.891 . S
