# Generated by pormake.
# Topology hwx, (6,3)-cn, num edge types: 1
# Building blocks:
#     Node 0, Type 0, BuildingBlock: OJICUG_clean_sbu_0, # of connection points: 6
#     Node 1, Type 0, BuildingBlock: OJICUG_clean_sbu_0, # of connection points: 6
#     Node 2, Type 0, BuildingBlock: OJICUG_clean_sbu_0, # of connection points: 6
#     Node 3, Type 0, BuildingBlock: OJICUG_clean_sbu_0, # of connection points: 6
#     Node 4, Type 1, BuildingBlock: BETDAH_clean_linker_0, # of connection points: 3
#     Node 5, Type 1, BuildingBlock: BETDAH_clean_linker_0, # of connection points: 3
#     Node 6, Type 1, BuildingBlock: BETDAH_clean_linker_0, # of connection points: 3
#     Node 7, Type 1, BuildingBlock: BETDAH_clean_linker_0, # of connection points: 3
#     Node 8, Type 1, BuildingBlock: BETDAH_clean_linker_0, # of connection points: 3
#     Node 9, Type 1, BuildingBlock: BETDAH_clean_linker_0, # of connection points: 3
#     Node 10, Type 1, BuildingBlock: BETDAH_clean_linker_0, # of connection points: 3
#     Node 11, Type 1, BuildingBlock: BETDAH_clean_linker_0, # of connection points: 3
#     Edge 12, Type (0, 1), BuildingBlock: KIFKEQ_clean_linker_1, # of connection points: 2
#     Edge 13, Type (0, 1), BuildingBlock: KIFKEQ_clean_linker_1, # of connection points: 2
#     Edge 14, Type (0, 1), BuildingBlock: KIFKEQ_clean_linker_1, # of connection points: 2
#     Edge 15, Type (0, 1), BuildingBlock: KIFKEQ_clean_linker_1, # of connection points: 2
#     Edge 16, Type (0, 1), BuildingBlock: KIFKEQ_clean_linker_1, # of connection points: 2
#     Edge 17, Type (0, 1), BuildingBlock: KIFKEQ_clean_linker_1, # of connection points: 2
#     Edge 18, Type (0, 1), BuildingBlock: KIFKEQ_clean_linker_1, # of connection points: 2
#     Edge 19, Type (0, 1), BuildingBlock: KIFKEQ_clean_linker_1, # of connection points: 2
#     Edge 20, Type (0, 1), BuildingBlock: KIFKEQ_clean_linker_1, # of connection points: 2
#     Edge 21, Type (0, 1), BuildingBlock: KIFKEQ_clean_linker_1, # of connection points: 2
#     Edge 22, Type (0, 1), BuildingBlock: KIFKEQ_clean_linker_1, # of connection points: 2
#     Edge 23, Type (0, 1), BuildingBlock: KIFKEQ_clean_linker_1, # of connection points: 2
#     Edge 24, Type (0, 1), BuildingBlock: KIFKEQ_clean_linker_1, # of connection points: 2
#     Edge 25, Type (0, 1), BuildingBlock: KIFKEQ_clean_linker_1, # of connection points: 2
#     Edge 26, Type (0, 1), BuildingBlock: KIFKEQ_clean_linker_1, # of connection points: 2
#     Edge 27, Type (0, 1), BuildingBlock: KIFKEQ_clean_linker_1, # of connection points: 2
#     Edge 28, Type (0, 1), BuildingBlock: KIFKEQ_clean_linker_1, # of connection points: 2
#     Edge 29, Type (0, 1), BuildingBlock: KIFKEQ_clean_linker_1, # of connection points: 2
#     Edge 30, Type (0, 1), BuildingBlock: KIFKEQ_clean_linker_1, # of connection points: 2
#     Edge 31, Type (0, 1), BuildingBlock: KIFKEQ_clean_linker_1, # of connection points: 2
#     Edge 32, Type (0, 1), BuildingBlock: KIFKEQ_clean_linker_1, # of connection points: 2
#     Edge 33, Type (0, 1), BuildingBlock: KIFKEQ_clean_linker_1, # of connection points: 2
#     Edge 34, Type (0, 1), BuildingBlock: KIFKEQ_clean_linker_1, # of connection points: 2
#     Edge 35, Type (0, 1), BuildingBlock: KIFKEQ_clean_linker_1, # of connection points: 2
# Relax obj value: 0.008
# Max RMSD: 0.044
# Mean RMSD: 0.041
data_MOF--net-hwx--node1-OJICUG_clean_sbu_0--node2-BETDAH_clean_linker_0--edge1-KIFKEQ_clean_linker_1
_symmetry_space_group_name_H-M    P1
_symmetry_Int_Tables_number       1
_symmetry_cell_setting            triclinic
loop_
_symmetry_equiv_pos_as_xyz
'x, y, z'
_cell_length_a     53.609176
_cell_length_b     53.640964
_cell_length_c     20.70688
_cell_angle_alpha  91.99557
_cell_angle_beta   91.957278
_cell_angle_gamma 90.0143
loop_
_atom_site_label
_atom_site_type_symbol
_atom_site_fract_x
_atom_site_fract_y
_atom_site_fract_z
_atom_type_partial_charge
Sc0 Sc 0.2275 0.23196 0.07826 0.0
Sc1 Sc 0.19023 0.18773 0.98967 0.0
Sc2 Sc 0.23043 0.22723 0.90847 0.0
O3 O 0.21607 0.21564 0.99212 0.0
C4 C 0.22408 0.279 0.98796 0.0
C5 C 0.16902 0.22517 0.09758 0.0
C6 C 0.17274 0.21926 0.86826 0.0
C7 C 0.22399 0.17462 0.11359 0.0
C8 C 0.27869 0.22826 0.00381 0.0
C9 C 0.22783 0.16794 0.88335 0.0
O10 O 0.22417 0.26904 0.04276 0.0
O11 O 0.16637 0.20748 0.05546 0.0
O12 O 0.194 0.22916 0.86112 0.0
O13 O 0.23214 0.19671 0.12378 0.0
O14 O 0.2683 0.22687 0.94759 0.0
O15 O 0.21112 0.16464 0.92424 0.0
O16 O 0.26636 0.23019 0.05514 0.0
O17 O 0.2088 0.16864 0.06718 0.0
O18 O 0.23638 0.18943 0.87182 0.0
O19 O 0.18989 0.23576 0.1108 0.0
O20 O 0.22623 0.26635 0.93529 0.0
O21 O 0.16873 0.20374 0.91175 0.0
Sc22 Sc 0.28163 0.72497 0.41374 0.0
Sc23 Sc 0.32049 0.68472 0.50382 0.0
Sc24 Sc 0.27653 0.72292 0.58242 0.0
O25 O 0.29288 0.71087 0.49995 0.0
C26 C 0.28072 0.77369 0.50649 0.0
C27 C 0.34084 0.72094 0.39863 0.0
C28 C 0.33408 0.72005 0.62729 0.0
C29 C 0.28838 0.66686 0.37779 0.0
C30 C 0.22958 0.71952 0.48372 0.0
C31 C 0.28318 0.6647 0.60692 0.0
O32 O 0.28296 0.76304 0.4511 0.0
O33 O 0.34391 0.70452 0.44085 0.0
O34 O 0.31205 0.7285 0.63249 0.0
O35 O 0.27885 0.68821 0.36806 0.0
O36 O 0.23944 0.71878 0.54034 0.0
O37 O 0.3006 0.66157 0.56741 0.0
O38 O 0.24233 0.72218 0.43367 0.0
O39 O 0.30395 0.66291 0.42406 0.0
O40 O 0.2729 0.68574 0.61744 0.0
O41 O 0.31952 0.72989 0.38354 0.0
O42 O 0.27787 0.76159 0.55746 0.0
O43 O 0.3399 0.70386 0.58402 0.0
Sc44 Sc 0.7716 0.77622 0.93289 0.0
Sc45 Sc 0.81659 0.81272 0.02124 0.0
Sc46 Sc 0.77685 0.77277 0.10245 0.0
O47 O 0.78835 0.78722 0.01885 0.0
C48 C 0.72485 0.77976 0.02458 0.0
C49 C 0.77901 0.83463 0.91457 0.0
C50 C 0.78547 0.83024 0.14344 0.0
C51 C 0.82896 0.7792 0.89623 0.0
C52 C 0.77518 0.72481 0.00621 0.0
C53 C 0.83621 0.77474 0.12668 0.0
O54 O 0.73462 0.77977 0.9695 0.0
O55 O 0.79694 0.83693 0.95611 0.0
O56 O 0.77539 0.80907 0.15035 0.0
O57 O 0.8067 0.77143 0.88617 0.0
O58 O 0.77682 0.73507 0.06256 0.0
O59 O 0.83967 0.79148 0.08601 0.0
O60 O 0.77314 0.73726 0.95511 0.0
O61 O 0.83528 0.79406 0.94307 0.0
O62 O 0.81464 0.76641 0.13825 0.0
O63 O 0.76805 0.81396 0.90138 0.0
O64 O 0.73769 0.77733 0.0768 0.0
O65 O 0.80096 0.83422 0.09981 0.0
Sc66 Sc 0.73805 0.27025 0.59596 0.0
Sc67 Sc 0.69467 0.30786 0.51307 0.0
Sc68 Sc 0.73241 0.26587 0.42545 0.0
O69 O 0.72173 0.28132 0.51147 0.0
C70 C 0.78466 0.27194 0.50402 0.0
C71 C 0.73334 0.3292 0.62187 0.0
C72 C 0.72555 0.32308 0.39138 0.0
C73 C 0.6811 0.2758 0.63387 0.0
C74 C 0.73217 0.21854 0.51514 0.0
C75 C 0.6731 0.26968 0.40341 0.0
O76 O 0.775 0.27233 0.55926 0.0
O77 O 0.71579 0.33188 0.57989 0.0
O78 O 0.73478 0.30153 0.38099 0.0
O79 O 0.7029 0.26693 0.64221 0.0
O80 O 0.73119 0.2285 0.46026 0.0
O81 O 0.67051 0.28684 0.44648 0.0
O82 O 0.73472 0.23122 0.56803 0.0
O83 O 0.67549 0.29084 0.58963 0.0
O84 O 0.69427 0.26047 0.38986 0.0
O85 O 0.74307 0.30811 0.63351 0.0
O86 O 0.77172 0.26964 0.45145 0.0
O87 O 0.71076 0.32791 0.43677 0.0
H88 H 0.25849 0.56265 0.98241 0.0
H89 H 0.21294 0.51117 0.08121 0.0
H90 H 0.21061 0.51106 0.87355 0.0
C91 C 0.24576 0.5469 0.98089 0.0
C92 C 0.23613 0.53759 0.92099 0.0
C93 C 0.23743 0.53771 0.03898 0.0
C94 C 0.21987 0.51822 0.03679 0.0
C95 C 0.2107 0.50825 0.97705 0.0
C96 C 0.21851 0.5182 0.9194 0.0
N97 N 0.19191 0.48974 0.97484 0.0
C98 C 0.19784 0.46462 0.97792 0.0
H99 H 0.93043 0.73348 0.48889 0.0
H100 H 0.00569 0.73935 0.42572 0.0
H101 H 0.99025 0.74997 0.6273 0.0
C102 C 0.95015 0.73615 0.50039 0.0
C103 C 0.95812 0.74171 0.56441 0.0
C104 C 0.96703 0.73559 0.45012 0.0
C105 C 0.99264 0.73921 0.46451 0.0
C106 C 1.00102 0.74366 0.52917 0.0
C107 C 0.98369 0.74526 0.5783 0.0
N108 N 0.02644 0.74833 0.54672 0.0
C109 C 0.04674 0.74067 0.51115 0.0
H110 H 0.76551 0.42767 0.00396 0.0
H111 H 0.74963 0.49905 0.9232 0.0
H112 H 0.73961 0.48819 0.12522 0.0
C113 C 0.76069 0.44721 0.01055 0.0
C114 C 0.75355 0.45622 0.07147 0.0
C115 C 0.75913 0.46237 0.95663 0.0
C116 C 0.75152 0.48736 0.96471 0.0
C117 C 0.74484 0.49669 0.02606 0.0
C118 C 0.74552 0.481 0.07862 0.0
N119 N 0.73501 0.52097 0.03537 0.0
C120 C 0.74501 0.54211 0.00942 0.0
H121 H 0.06799 0.24833 0.4767 0.0
H122 H 0.01613 0.29233 0.58625 0.0
H123 H 0.01483 0.2952 0.37902 0.0
C124 C 0.05201 0.26072 0.47825 0.0
C125 C 0.04215 0.27024 0.42055 0.0
C126 C 0.04298 0.26868 0.53829 0.0
C127 C 0.02313 0.28575 0.54023 0.0
C128 C 0.01268 0.29486 0.48263 0.0
C129 C 0.02245 0.28742 0.42309 0.0
N130 N 0.99353 0.3129 0.48464 0.0
C131 C 0.96875 0.3059 0.48888 0.0
H132 H 0.75673 0.93538 0.53702 0.0
H133 H 0.71244 0.98623 0.42525 0.0
H134 H 0.70985 0.98921 0.63254 0.0
C135 C 0.74431 0.95131 0.53481 0.0
C136 C 0.73481 0.96158 0.59216 0.0
C137 C 0.73627 0.95988 0.47436 0.0
C138 C 0.71908 0.97959 0.47159 0.0
C139 C 0.71003 0.99047 0.5287 0.0
C140 C 0.71761 0.98126 0.58878 0.0
N141 N 0.69192 0.00954 0.52551 0.0
C142 C 0.69896 0.03442 0.52599 0.0
H143 H 0.57635 0.23317 0.03216 0.0
H144 H 0.50303 0.25044 0.09905 0.0
H145 H 0.52015 0.26124 0.90083 0.0
C146 C 0.55727 0.23896 0.02211 0.0
C147 C 0.55032 0.24661 0.96004 0.0
C148 C 0.54058 0.24064 0.07279 0.0
C149 C 0.5159 0.24845 0.05997 0.0
C150 C 0.50843 0.25515 -0.00292 0.0
C151 C 0.52577 0.25463 0.94801 0.0
N152 N 0.48442 0.26489 0.98281 0.0
C153 C 0.46252 0.25557 0.0065 0.0
H154 H 0.26903 0.07202 0.51984 0.0
H155 H 0.25561 0.99797 0.58424 0.0
H156 H 0.2454 0.01393 0.38317 0.0
C157 C 0.26441 0.05262 0.50882 0.0
C158 C 0.25765 0.04508 0.44516 0.0
C159 C 0.26335 0.03598 0.55942 0.0
C160 C 0.25711 0.01083 0.54535 0.0
C161 C 0.2514 0.00281 0.48103 0.0
C162 C 0.25126 0.02005 0.43177 0.0
N163 N 0.24335 0.97818 0.46467 0.0
C164 C 0.25265 0.95694 0.49336 0.0
H165 H 0.43821 0.75123 0.04289 0.0
H166 H 0.48431 0.7968 0.92846 0.0
H167 H 0.49931 0.79279 0.13315 0.0
C168 C 0.45425 0.76335 0.03887 0.0
C169 C 0.46823 0.77054 0.0948 0.0
C170 C 0.45959 0.77289 0.9787 0.0
C171 C 0.48019 0.78882 0.97426 0.0
C172 C 0.49497 0.79539 0.02947 0.0
C173 C 0.48877 0.78655 0.09 0.0
N174 N 0.51417 0.81323 0.02463 0.0
C175 C 0.53922 0.80724 0.0333 0.0
H176 H 0.12316 0.20265 0.09927 0.0
H177 H 0.16495 0.26622 0.17872 0.0
H178 H 0.08806 0.21451 0.1657 0.0
H179 H 0.12995 0.27783 0.24521 0.0
H180 H 0.05828 0.30225 0.33139 0.0
H181 H 0.08575 0.29246 0.24204 0.0
H182 H 0.08219 0.21428 0.2845 0.0
H183 H 0.05454 0.22407 0.37304 0.0
C184 C 0.12481 0.21927 0.13036 0.0
C185 C 0.14701 0.23333 0.13413 0.0
C186 C 0.1047 0.226 0.16846 0.0
C187 C 0.10627 0.24706 0.21064 0.0
C188 C 0.12807 0.26167 0.21258 0.0
C189 C 0.14823 0.25485 0.1749 0.0
C190 C 0.06279 0.28292 0.32028 0.0
C191 C 0.05445 0.2639 0.35921 0.0
C192 C 0.07869 0.27735 0.26965 0.0
C193 C 0.08631 0.25265 0.25678 0.0
C194 C 0.07654 0.23347 0.29298 0.0
C195 C 0.06083 0.23906 0.34385 0.0
H196 H 0.24251 0.66158 0.68268 0.0
H197 H 0.30506 0.61865 0.61344 0.0
H198 H 0.23043 0.62688 0.74771 0.0
H199 H 0.29276 0.58389 0.67835 0.0
H200 H 0.28258 0.54961 0.88246 0.0
H201 H 0.29294 0.5777 0.79708 0.0
H202 H 0.21481 0.58293 0.74102 0.0
H203 H 0.20446 0.555 0.82715 0.0
C204 C 0.25357 0.6447 0.68086 0.0
C205 C 0.2749 0.64303 0.64326 0.0
C206 C 0.2465 0.62471 0.71767 0.0
C207 C 0.26066 0.60267 0.71807 0.0
C208 C 0.2816 0.60073 0.67929 0.0
C209 C 0.28859 0.62064 0.64204 0.0
C210 C 0.26771 0.55638 0.85097 0.0
C211 C 0.24273 0.55027 0.86153 0.0
C212 C 0.27362 0.57235 0.80193 0.0
C213 C 0.25464 0.58269 0.7628 0.0
C214 C 0.22978 0.57544 0.77097 0.0
C215 C 0.22388 0.55927 0.81973 0.0
H216 H 0.88568 0.78315 0.10541 0.0
H217 H 0.83694 0.7439 0.22944 0.0
H218 H 0.92186 0.76885 0.16818 0.0
H219 H 0.87296 0.73026 0.2931 0.0
H220 H 0.9385 0.69916 0.39016 0.0
H221 H 0.90937 0.70485 0.29859 0.0
H222 H 0.9405 0.77805 0.27275 0.0
H223 H 0.97006 0.77178 0.36272 0.0
C224 C 0.88264 0.77143 0.14597 0.0
C225 C 0.85831 0.76489 0.1627 0.0
C226 C 0.90343 0.76325 0.182 0.0
C227 C 0.90043 0.7484 0.2358 0.0
C228 C 0.87612 0.74127 0.2513 0.0
C229 C 0.85536 0.74933 0.2151 0.0
C230 C 0.93977 0.71595 0.36281 0.0
C231 C 0.95646 0.73503 0.38323 0.0
C232 C 0.92286 0.71942 0.31109 0.0
C233 C 0.92209 0.74219 0.27936 0.0
C234 C 0.94053 0.76024 0.29581 0.0
C235 C 0.95762 0.75664 0.3472 0.0
H236 H 0.76238 0.33082 0.73324 0.0
H237 H 0.72415 0.37829 0.5976 0.0
H238 H 0.77299 0.3671 0.80211 0.0
H239 H 0.73554 0.41479 0.66554 0.0
H240 H 0.72501 0.46218 0.85676 0.0
H241 H 0.72267 0.43231 0.76564 0.0
H242 H 0.79592 0.40463 0.81979 0.0
H243 H 0.79768 0.43408 0.91248 0.0
C244 C 0.75664 0.34905 0.71746 0.0
C245 C 0.7421 0.35156 0.66033 0.0
C246 C 0.76293 0.36997 0.75675 0.0
C247 C 0.75508 0.39398 0.73961 0.0
C248 C 0.74156 0.39658 0.68085 0.0
C249 C 0.73507 0.37563 0.64181 0.0
C250 C 0.74098 0.45035 0.84769 0.0
C251 C 0.76144 0.45028 0.89176 0.0
C252 C 0.73965 0.43311 0.79546 0.0
C253 C 0.75889 0.41562 0.78603 0.0
C254 C 0.78047 0.41734 0.82661 0.0
C255 C 0.78165 0.43439 0.87921 0.0
H256 H 0.67061 0.23915 0.29447 0.0
H257 H 0.62418 0.27964 0.42865 0.0
H258 H 0.63379 0.22765 0.22848 0.0
H259 H 0.58721 0.2675 0.36345 0.0
H260 H 0.53985 0.2758 0.16989 0.0
H261 H 0.56945 0.27906 0.26153 0.0
H262 H 0.59575 0.2045 0.21641 0.0
H263 H 0.5665 0.20172 0.12337 0.0
C264 C 0.65252 0.24525 0.31054 0.0
C265 C 0.65047 0.26063 0.36642 0.0
C266 C 0.63129 0.23844 0.27296 0.0
C267 C 0.60743 0.24666 0.29052 0.0
C268 C 0.60529 0.26112 0.34797 0.0
C269 C 0.62653 0.26806 0.38538 0.0
C270 C 0.55119 0.25972 0.18133 0.0
C271 C 0.55105 0.23859 0.13944 0.0
C272 C 0.56831 0.26159 0.23376 0.0
C273 C 0.58548 0.24226 0.24546 0.0
C274 C 0.58329 0.22 0.20771 0.0
C275 C 0.56631 0.21823 0.15501 0.0
H276 H 0.25827 0.16668 0.77951 0.0
H277 H 0.21903 0.11868 0.9054 0.0
H278 H 0.27113 0.13035 0.71559 0.0
H279 H 0.2325 0.08226 0.8424 0.0
H280 H 0.22746 0.03404 0.64818 0.0
H281 H 0.22223 0.06386 0.73804 0.0
H282 H 0.29596 0.09332 0.70957 0.0
H283 H 0.30071 0.06382 0.61829 0.0
C284 C 0.25268 0.14837 0.79418 0.0
C285 C 0.23733 0.14571 0.84716 0.0
C286 C 0.26028 0.12744 0.75784 0.0
C287 C 0.25288 0.10328 0.77378 0.0
C288 C 0.23829 0.10057 0.82821 0.0
C289 C 0.23058 0.12151 0.86437 0.0
C290 C 0.24295 0.04614 0.66304 0.0
C291 C 0.26442 0.04675 0.62624 0.0
C292 C 0.23994 0.0634 0.71439 0.0
C293 C 0.25844 0.08146 0.73008 0.0
C294 C 0.28106 0.08013 0.69765 0.0
C295 C 0.28398 0.06301 0.64604 0.0
H296 H 0.38778 0.70076 0.40079 0.0
H297 H 0.34447 0.76108 0.32106 0.0
H298 H 0.42384 0.71392 0.34177 0.0
H299 H 0.38057 0.7741 0.26208 0.0
H300 H 0.45232 0.80204 0.19014 0.0
H301 H 0.42432 0.79128 0.27601 0.0
H302 H 0.43249 0.71315 0.22341 0.0
H303 H 0.46035 0.72401 0.13782 0.0
C304 C 0.38596 0.71694 0.37116 0.0
C305 C 0.3631 0.72972 0.36523 0.0
C306 C 0.40666 0.72445 0.33738 0.0
C307 C 0.40506 0.74507 0.29752 0.0
C308 C 0.38248 0.75834 0.29317 0.0
C309 C 0.3617 0.7507 0.32643 0.0
C310 C 0.44891 0.78255 0.19888 0.0
C311 C 0.45848 0.76381 0.15776 0.0
C312 C 0.43265 0.77641 0.24733 0.0
C313 C 0.42595 0.75141 0.25576 0.0
C314 C 0.43737 0.73257 0.21832 0.0
C315 C 0.45337 0.73873 0.16947 0.0
H316 H 0.73775 0.83939 0.83448 0.0
H317 H 0.80208 0.88023 0.91305 0.0
H318 H 0.72641 0.8746 0.76862 0.0
H319 H 0.79049 0.91556 0.84727 0.0
H320 H 0.78095 0.94922 0.64009 0.0
H321 H 0.79056 0.92169 0.72888 0.0
H322 H 0.71232 0.91882 0.77168 0.0
H323 H 0.70271 0.94614 0.68203 0.0
C324 C 0.74934 0.85595 0.83827 0.0
C325 C 0.771 0.85683 0.87857 0.0
C326 C 0.74268 0.87625 0.80095 0.0
C327 C 0.75757 0.89784 0.80278 0.0
C328 C 0.77877 0.89908 0.84457 0.0
C329 C 0.78535 0.87884 0.88231 0.0
C330 C 0.76591 0.94312 0.66945 0.0
C331 C 0.74109 0.94963 0.654 0.0
C332 C 0.7714 0.92748 0.72047 0.0
C333 C 0.75215 0.91789 0.75679 0.0
C334 C 0.72749 0.92571 0.74398 0.0
C335 C 0.72202 0.94153 0.69317 0.0
H336 H 0.8797 0.78398 0.91174 0.0
H337 H 0.82194 0.75613 0.77713 0.0
H338 H 0.91124 0.77297 0.83338 0.0
H339 H 0.85355 0.74517 0.69918 0.0
H340 H 0.9131 0.76525 0.55321 0.0
H341 H 0.88216 0.77168 0.63506 0.0
H342 H 0.93004 0.73499 0.77402 0.0
H343 H 0.961 0.72773 0.69111 0.0
C344 C 0.87372 0.77539 0.86567 0.0
C345 C 0.84825 0.77114 0.85049 0.0
C346 C 0.89182 0.76894 0.82107 0.0
C347 C 0.88479 0.75835 0.76022 0.0
C348 C 0.85943 0.75354 0.74559 0.0
C349 C 0.84136 0.75974 0.79036 0.0
C350 C 0.91693 0.75804 0.60074 0.0
C351 C 0.93945 0.74564 0.61526 0.0
C352 C 0.89919 0.76184 0.64769 0.0
C353 C 0.90363 0.75364 0.71063 0.0
C354 C 0.92622 0.74156 0.72579 0.0
C355 C 0.94394 0.73748 0.67844 0.0
H356 H 0.71615 0.37286 0.40932 0.0
H357 H 0.74988 0.31967 0.2771 0.0
H358 H 0.72548 0.40636 0.3378 0.0
H359 H 0.7586 0.35318 0.20468 0.0
H360 H 0.78792 0.4216 0.10992 0.0
H361 H 0.78331 0.39032 0.19172 0.0
H362 H 0.71052 0.42003 0.23432 0.0
H363 H 0.71531 0.45132 0.15347 0.0
C364 C 0.7255 0.36827 0.36491 0.0
C365 C 0.73207 0.34351 0.34871 0.0
C366 C 0.73079 0.3875 0.32381 0.0
C367 C 0.74265 0.38244 0.26534 0.0
C368 C 0.74972 0.35777 0.24976 0.0
C369 C 0.74456 0.33852 0.29108 0.0
C370 C 0.77106 0.42151 0.13727 0.0
C371 C 0.752 0.43891 0.12542 0.0
C372 C 0.76836 0.40356 0.18386 0.0
C373 C 0.74651 0.4026 0.21936 0.0
C374 C 0.72777 0.42047 0.20862 0.0
C375 C 0.73051 0.43844 0.16228 0.0
H376 H 0.1701 0.25898 0.78893 0.0
H377 H 0.12726 0.19625 0.85023 0.0
H378 H 0.13526 0.27103 0.71803 0.0
H379 H 0.09241 0.20844 0.77909 0.0
H380 H 0.06157 0.29866 0.63738 0.0
H381 H 0.09098 0.28688 0.72405 0.0
H382 H 0.08515 0.20976 0.65817 0.0
H383 H 0.0557 0.22155 0.57185 0.0
C384 C 0.15327 0.24775 0.78735 0.0
C385 C 0.15156 0.22655 0.82504 0.0
C386 C 0.13322 0.25483 0.74723 0.0
C387 C 0.11107 0.24075 0.74335 0.0
C388 C 0.10928 0.21959 0.78104 0.0
C389 C 0.12924 0.21266 0.82179 0.0
C390 C 0.06604 0.27913 0.64268 0.0
C391 C 0.05644 0.261 0.59798 0.0
C392 C 0.08307 0.27243 0.69172 0.0
C393 C 0.09055 0.24745 0.69733 0.0
C394 C 0.07966 0.22913 0.65519 0.0
C395 C 0.06287 0.23586 0.60575 0.0
H396 H 0.31052 0.62095 0.36534 0.0
H397 H 0.2486 0.6644 0.29147 0.0
H398 H 0.29784 0.58607 0.29252 0.0
H399 H 0.23606 0.62954 0.21895 0.0
H400 H 0.20745 0.55649 0.13244 0.0
H401 H 0.21946 0.58558 0.22181 0.0
H402 H 0.29672 0.57858 0.17151 0.0
H403 H 0.28469 0.54945 0.0825 0.0
C404 C 0.29417 0.62306 0.33382 0.0
C405 C 0.28067 0.64556 0.33401 0.0
C406 C 0.28695 0.60307 0.29212 0.0
C407 C 0.26589 0.60504 0.25036 0.0
C408 C 0.25217 0.62736 0.25127 0.0
C409 C 0.25953 0.64742 0.29237 0.0
C410 C 0.22705 0.56062 0.14178 0.0
C411 C 0.24515 0.5508 0.10061 0.0
C412 C 0.23389 0.57746 0.19238 0.0
C413 C 0.25899 0.58456 0.2031 0.0
C414 C 0.27726 0.5734 0.16459 0.0
C415 C 0.27039 0.55679 0.11361 0.0
H416 H 0.38098 0.70106 0.65009 0.0
H417 H 0.3319 0.76097 0.70902 0.0
H418 H 0.41236 0.71584 0.73062 0.0
H419 H 0.36345 0.7761 0.78779 0.0
H420 H 0.40891 0.77413 0.97708 0.0
H421 H 0.37992 0.76247 0.88884 0.0
H422 H 0.44168 0.74914 0.76331 0.0
H423 H 0.47099 0.75991 0.8535 0.0
C424 C 0.37697 0.71752 0.6797 0.0
C425 C 0.35376 0.7296 0.67372 0.0
C426 C 0.39505 0.7261 0.72553 0.0
C427 C 0.39035 0.74704 0.76605 0.0
C428 C 0.36748 0.75961 0.75834 0.0
C429 C 0.34938 0.75094 0.71301 0.0
C430 C 0.41637 0.76858 0.93078 0.0
C431 C 0.44226 0.76757 0.92248 0.0
C432 C 0.39971 0.76221 0.87983 0.0
C433 C 0.40844 0.75488 0.81887 0.0
C434 C 0.43436 0.75445 0.80991 0.0
C435 C 0.45113 0.76083 0.86125 0.0
H436 H 0.80886 0.87549 0.16242 0.0
H437 H 0.74576 0.83293 0.22276 0.0
H438 H 0.79685 0.91024 0.23423 0.0
H439 H 0.73389 0.86763 0.29426 0.0
H440 H 0.78345 0.94669 0.44182 0.0
H441 H 0.79531 0.91726 0.35547 0.0
H442 H 0.71828 0.91195 0.28827 0.0
H443 H 0.70642 0.94129 0.37498 0.0
C444 C 0.79242 0.87355 0.19081 0.0
C445 C 0.77835 0.85135 0.18708 0.0
C446 C 0.78558 0.89344 0.23193 0.0
C447 C 0.76436 0.89168 0.26947 0.0
C448 C 0.75014 0.86965 0.26518 0.0
C449 C 0.75711 0.84967 0.2247 0.0
C450 C 0.76917 0.93959 0.40771 0.0
C451 C 0.74403 0.94615 0.4151 0.0
C452 C 0.77595 0.92284 0.35823 0.0
C453 C 0.75767 0.91213 0.31565 0.0
C454 C 0.7327 0.91972 0.32094 0.0
C455 C 0.72596 0.9367 0.37004 0.0
H456 H 0.68666 0.25003 0.74518 0.0
H457 H 0.63099 0.28541 0.62312 0.0
H458 H 0.65464 0.24042 0.82131 0.0
H459 H 0.5991 0.27589 0.69977 0.0
H460 H 0.54535 0.23496 0.82992 0.0
H461 H 0.57672 0.23975 0.74796 0.0
H462 H 0.62949 0.26735 0.8957 0.0
H463 H 0.59828 0.26321 0.97688 0.0
C464 C 0.66761 0.25563 0.73432 0.0
C465 C 0.66146 0.26872 0.67832 0.0
C466 C 0.64931 0.25018 0.77805 0.0
C467 C 0.62445 0.25753 0.76652 0.0
C468 C 0.6181 0.26985 0.70958 0.0
C469 C 0.63643 0.27547 0.66601 0.0
C470 C 0.56364 0.2421 0.84476 0.0
C471 C 0.56937 0.24847 0.91003 0.0
C472 C 0.58156 0.24478 0.79794 0.0
C473 C 0.60556 0.25372 0.81568 0.0
C474 C 0.6113 0.25993 0.88086 0.0
C475 C 0.59341 0.25746 0.9274 0.0
H476 H 0.24951 0.18094 0.22963 0.0
H477 H 0.2166 0.12415 0.09987 0.0
H478 H 0.26016 0.1492 0.30725 0.0
H479 H 0.22722 0.09249 0.17802 0.0
H480 H 0.27025 0.04063 0.3176 0.0
H481 H 0.26442 0.07166 0.23434 0.0
H482 H 0.23324 0.12289 0.37528 0.0
H483 H 0.23832 0.09199 0.45754 0.0
C484 C 0.24471 0.1617 0.21736 0.0
C485 C 0.23196 0.15514 0.15877 0.0
C486 C 0.25075 0.14355 0.26195 0.0
C487 C 0.24437 0.11846 0.24871 0.0
C488 C 0.23249 0.1117 0.18922 0.0
C489 C 0.22625 0.12988 0.14476 0.0
C490 C 0.26208 0.05849 0.33065 0.0
C491 C 0.25502 0.0639 0.39441 0.0
C492 C 0.25881 0.07622 0.2831 0.0
C493 C 0.24862 0.09972 0.29865 0.0
C494 C 0.24164 0.10512 0.36228 0.0
C495 C 0.24466 0.0874 0.40947 0.0
H496 H 0.22037 0.30807 0.88126 0.0
H497 H 0.22119 0.31245 0.09025 0.0
H498 H 0.2146 0.35316 0.87896 0.0
H499 H 0.21594 0.35738 0.08775 0.0
H500 H 0.17746 0.43244 0.05748 0.0
H501 H 0.18418 0.38736 0.05913 0.0
H502 H 0.23604 0.3926 0.90472 0.0
H503 H 0.22875 0.43773 0.90271 0.0
C504 C 0.21948 0.31861 0.9267 0.0
C505 C 0.22116 0.30652 0.98591 0.0
C506 C 0.2163 0.3445 0.92537 0.0
C507 C 0.21473 0.3589 0.98318 0.0
C508 C 0.21668 0.34683 0.0423 0.0
C509 C 0.21982 0.32101 0.04366 0.0
C510 C 0.19035 0.42384 0.02423 0.0
C511 C 0.20269 0.43825 0.98017 0.0
C512 C 0.19431 0.3981 0.02525 0.0
C513 C 0.2107 0.38634 0.98211 0.0
C514 C 0.22309 0.40101 0.93806 0.0
C515 C 0.2191 0.42679 0.93715 0.0
H516 H 0.19972 0.7321 0.37934 0.0
H517 H 0.19676 0.70444 0.57253 0.0
H518 H 0.15409 0.73369 0.37272 0.0
H519 H 0.15146 0.7062 0.56593 0.0
H520 H 0.06989 0.69699 0.52879 0.0
H521 H 0.11395 0.68799 0.51094 0.0
H522 H 0.12214 0.7601 0.42725 0.0
H523 H 0.07796 0.7688 0.44473 0.0
C524 C 0.18938 0.72607 0.42004 0.0
C525 C 0.20194 0.71832 0.47667 0.0
C526 C 0.16325 0.72709 0.41631 0.0
C527 C 0.14915 0.72007 0.46876 0.0
C528 C 0.16172 0.71144 0.52431 0.0
C529 C 0.18775 0.71064 0.5283 0.0
C530 C 0.08102 0.71051 0.50479 0.0
C531 C 0.07077 0.73345 0.48764 0.0
C532 C 0.10624 0.7055 0.4951 0.0
C533 C 0.12161 0.72344 0.46829 0.0
C534 C 0.11078 0.74581 0.44746 0.0
C535 C 0.08554 0.75082 0.45741 0.0
H536 H 0.76669 0.69545 0.89643 0.0
H537 H 0.78261 0.6914 0.10195 0.0
H538 H 0.76326 0.65009 0.88795 0.0
H539 H 0.77887 0.64623 0.09336 0.0
H540 H 0.78698 0.56415 0.05692 0.0
H541 H 0.79814 0.60819 0.04908 0.0
H542 H 0.73316 0.61908 0.92389 0.0
H543 H 0.72237 0.57494 0.9314 0.0
C544 C 0.76964 0.68493 0.93973 0.0
C545 C 0.77476 0.69716 1e-05 0.0
C546 C 0.76758 0.65893 0.93482 0.0
C547 C 0.77077 0.64456 0.98993 0.0
C548 C 0.77663 0.65672 0.04978 0.0
C549 C 0.77857 0.68268 0.05479 0.0
C550 C 0.77556 0.57592 0.02638 0.0
C551 C 0.754 0.56642 0.99434 0.0
C552 C 0.78177 0.60111 0.02235 0.0
C553 C 0.7664 0.61718 0.98637 0.0
C554 C 0.74551 0.60717 0.95148 0.0
C555 C 0.7393 0.58196 0.95571 0.0
H556 H 0.813 0.2756 0.3966 0.0
H557 H 0.81874 0.27531 0.60541 0.0
H558 H 0.85786 0.28282 0.39334 0.0
H559 H 0.86348 0.28202 0.60185 0.0
H560 H 0.93626 0.32469 0.57357 0.0
H561 H 0.89165 0.31537 0.57678 0.0
H562 H 0.89838 0.2633 0.41416 0.0
H563 H 0.94299 0.27317 0.41071 0.0
C564 C 0.8238 0.27684 0.44177 0.0
C565 C 0.81214 0.27499 0.50127 0.0
C566 C 0.84956 0.28087 0.43986 0.0
C567 C 0.86425 0.28313 0.49737 0.0
C568 C 0.85267 0.28079 0.55671 0.0
C569 C 0.82697 0.27679 0.55866 0.0
C570 C 0.92809 0.31119 0.53888 0.0
C571 C 0.94274 0.29955 0.49205 0.0
C572 C 0.90264 0.30574 0.54079 0.0
C573 C 0.89144 0.28853 0.49577 0.0
C574 C 0.90636 0.27682 0.44903 0.0
C575 C 0.93184 0.2823 0.44725 0.0
H576 H 0.73223 0.18984 0.62225 0.0
H577 H 0.72571 0.1848 0.41344 0.0
H578 H 0.72595 0.14494 0.62606 0.0
H579 H 0.71898 0.14004 0.41757 0.0
H580 H 0.72971 0.0566 0.44533 0.0
H581 H 0.73979 0.10117 0.44386 0.0
H582 H 0.69215 0.1151 0.60554 0.0
H583 H 0.68261 0.07049 0.60723 0.0
C584 C 0.72952 0.17921 0.57713 0.0
C585 C 0.72943 0.19104 0.51753 0.0
C586 C 0.72577 0.15346 0.57938 0.0
C587 C 0.72187 0.13891 0.52214 0.0
C588 C 0.72222 0.15065 0.46254 0.0
C589 C 0.72594 0.17638 0.46025 0.0
C590 C 0.7216 0.06932 0.48059 0.0
C591 C 0.70548 0.06046 0.52638 0.0
C592 C 0.72721 0.09477 0.47963 0.0
C593 C 0.71675 0.11171 0.52455 0.0
C594 C 0.70079 0.10254 0.57086 0.0
C595 C 0.6952 0.07711 0.57169 0.0
H596 H 0.30818 0.23535 0.11386 0.0
H597 H 0.31207 0.22187 0.90731 0.0
H598 H 0.35356 0.23835 0.12247 0.0
H599 H 0.35733 0.2252 0.91608 0.0
H600 H 0.43949 0.21504 0.95357 0.0
H601 H 0.39507 0.20488 0.95873 0.0
H602 H 0.38511 0.2684 0.08954 0.0
H603 H 0.42963 0.27818 0.08466 0.0
C604 C 0.31866 0.23287 0.07031 0.0
C605 C 0.30638 0.22852 0.00977 0.0
C606 C 0.34469 0.23469 0.07531 0.0
C607 C 0.35905 0.23205 0.02001 0.0
C608 C 0.34684 0.22701 0.95978 0.0
C609 C 0.32083 0.2253 0.95469 0.0
C610 C 0.42781 0.22637 0.98462 0.0
C611 C 0.43771 0.24721 0.01914 0.0
C612 C 0.40241 0.22074 0.98713 0.0
C613 C 0.38652 0.23596 0.02408 0.0
C614 C 0.39687 0.25616 0.06113 0.0
C615 C 0.42229 0.26179 0.05842 0.0
H616 H 0.2892 0.80664 0.41137 0.0
H617 H 0.27146 0.80364 0.61312 0.0
H618 H 0.28566 0.85187 0.41767 0.0
H619 H 0.26823 0.849 0.61936 0.0
H620 H 0.22885 0.92435 0.566 0.0
H621 H 0.23883 0.88007 0.57594 0.0
H622 H 0.30483 0.89004 0.46535 0.0
H623 H 0.29447 0.93423 0.45504 0.0
C624 C 0.2848 0.8156 0.45726 0.0
C625 C 0.28044 0.80139 0.51157 0.0
C626 C 0.28296 0.84159 0.461 0.0
C627 C 0.27664 0.85405 0.51905 0.0
C628 C 0.27289 0.83994 0.57379 0.0
C629 C 0.27485 0.81392 0.57018 0.0
C630 C 0.24581 0.91709 0.54547 0.0
C631 C 0.26105 0.93245 0.51026 0.0
C632 C 0.25156 0.8918 0.55106 0.0
C633 C 0.27253 0.88148 0.52095 0.0
C634 C 0.28838 0.89734 0.48834 0.0
C635 C 0.28264 0.92262 0.48297 0.0
H636 H 0.69114 0.785 0.92378 0.0
H637 H 0.69607 0.78171 0.13219 0.0
H638 H 0.64631 0.7909 0.92805 0.0
H639 H 0.65103 0.78808 0.13629 0.0
H640 H 0.56541 0.77512 0.10787 0.0
H641 H 0.61067 0.76773 0.1074 0.0
H642 H 0.61756 0.82318 0.96242 0.0
H643 H 0.57252 0.83005 0.96256 0.0
C644 C 0.68272 0.78558 0.97061 0.0
C645 C 0.69736 0.78295 0.02767 0.0
C646 C 0.65696 0.7891 0.97304 0.0
C647 C 0.64507 0.79014 0.03254 0.0
C648 C 0.65958 0.78717 0.08963 0.0
C649 C 0.68543 0.78365 0.08725 0.0
C650 C 0.57678 0.78565 0.07619 0.0
C651 C 0.56579 0.80306 0.03514 0.0
C652 C 0.60261 0.78156 0.07605 0.0
C653 C 0.61773 0.79477 0.03459 0.0
C654 C 0.60646 0.81238 0.99413 0.0
C655 C 0.58074 0.81645 0.99442 0.0
loop_
_geom_bond_atom_site_label_1
_geom_bond_atom_site_label_2
_geom_bond_distance
_geom_bond_site_symmetry_2
_ccdc_geom_bond_type
Sc0 O3 2.025 . S
Sc0 O10 2.105 . S
Sc0 O13 2.105 . S
Sc0 O16 2.105 . S
Sc0 O19 2.105 . S
Sc1 O3 2.025 . S
Sc1 O11 2.105 . S
Sc1 O15 2.105 1_554 S
Sc1 O17 2.105 . S
Sc1 O21 2.105 1_554 S
Sc2 O3 2.025 1_556 S
Sc2 O12 2.105 . S
Sc2 O14 2.105 . S
Sc2 O18 2.105 . S
Sc2 O20 2.105 . S
O3 Sc0 2.025 . S
O3 Sc1 2.025 . S
O3 Sc2 2.025 1_554 S
C4 O10 1.268 . S
C4 O20 1.268 1_554 S
C5 O11 1.268 . S
C5 O19 1.268 . S
C6 O12 1.268 . S
C6 O21 1.268 . S
C7 O13 1.268 . S
C7 O17 1.268 . S
C8 O14 1.268 1_554 S
C8 O16 1.268 . S
C9 O15 1.268 . S
C9 O18 1.268 . S
O10 Sc0 2.105 . S
O10 C4 1.268 . S
O11 Sc1 2.105 . S
O11 C5 1.268 . S
O12 Sc2 2.105 . S
O12 C6 1.268 . S
O13 Sc0 2.105 . S
O13 C7 1.268 . S
O14 Sc2 2.105 . S
O14 C8 1.268 1_556 S
O15 Sc1 2.105 1_556 S
O15 C9 1.268 . S
O16 Sc0 2.105 . S
O16 C8 1.268 . S
O17 Sc1 2.105 . S
O17 C7 1.268 . S
O18 Sc2 2.105 . S
O18 C9 1.268 . S
O19 Sc0 2.105 . S
O19 C5 1.268 . S
O20 Sc2 2.105 . S
O20 C4 1.268 1_556 S
O21 Sc1 2.105 1_556 S
O21 C6 1.268 . S
Sc22 O25 2.025 . S
Sc22 O32 2.105 . S
Sc22 O35 2.105 . S
Sc22 O38 2.105 . S
Sc22 O41 2.105 . S
Sc23 O25 2.025 . S
Sc23 O33 2.105 . S
Sc23 O37 2.105 . S
Sc23 O39 2.105 . S
Sc23 O43 2.105 . S
Sc24 O25 2.025 . S
Sc24 O34 2.105 . S
Sc24 O36 2.105 . S
Sc24 O40 2.105 . S
Sc24 O42 2.105 . S
O25 Sc22 2.025 . S
O25 Sc23 2.025 . S
O25 Sc24 2.025 . S
C26 O32 1.268 . S
C26 O42 1.268 . S
C27 O33 1.268 . S
C27 O41 1.268 . S
C28 O34 1.268 . S
C28 O43 1.268 . S
C29 O35 1.268 . S
C29 O39 1.268 . S
C30 O36 1.268 . S
C30 O38 1.268 . S
C31 O37 1.268 . S
C31 O40 1.268 . S
O32 Sc22 2.105 . S
O32 C26 1.268 . S
O33 Sc23 2.105 . S
O33 C27 1.268 . S
O34 Sc24 2.105 . S
O34 C28 1.268 . S
O35 Sc22 2.105 . S
O35 C29 1.268 . S
O36 Sc24 2.105 . S
O36 C30 1.268 . S
O37 Sc23 2.105 . S
O37 C31 1.268 . S
O38 Sc22 2.105 . S
O38 C30 1.268 . S
O39 Sc23 2.105 . S
O39 C29 1.268 . S
O40 Sc24 2.105 . S
O40 C31 1.268 . S
O41 Sc22 2.105 . S
O41 C27 1.268 . S
O42 Sc24 2.105 . S
O42 C26 1.268 . S
O43 Sc23 2.105 . S
O43 C28 1.268 . S
Sc44 O47 2.025 1_556 S
Sc44 O54 2.105 . S
Sc44 O57 2.105 . S
Sc44 O60 2.105 . S
Sc44 O63 2.105 . S
Sc45 O47 2.025 . S
Sc45 O55 2.105 1_554 S
Sc45 O59 2.105 . S
Sc45 O61 2.105 1_554 S
Sc45 O65 2.105 . S
Sc46 O47 2.025 . S
Sc46 O56 2.105 . S
Sc46 O58 2.105 . S
Sc46 O62 2.105 . S
Sc46 O64 2.105 . S
O47 Sc44 2.025 1_554 S
O47 Sc45 2.025 . S
O47 Sc46 2.025 . S
C48 O54 1.268 1_554 S
C48 O64 1.268 . S
C49 O55 1.268 . S
C49 O63 1.268 . S
C50 O56 1.268 . S
C50 O65 1.268 . S
C51 O57 1.268 . S
C51 O61 1.268 . S
C52 O58 1.268 . S
C52 O60 1.268 1_554 S
C53 O59 1.268 . S
C53 O62 1.268 . S
O54 Sc44 2.105 . S
O54 C48 1.268 1_556 S
O55 Sc45 2.105 1_556 S
O55 C49 1.268 . S
O56 Sc46 2.105 . S
O56 C50 1.268 . S
O57 Sc44 2.105 . S
O57 C51 1.268 . S
O58 Sc46 2.105 . S
O58 C52 1.268 . S
O59 Sc45 2.105 . S
O59 C53 1.268 . S
O60 Sc44 2.105 . S
O60 C52 1.268 1_556 S
O61 Sc45 2.105 1_556 S
O61 C51 1.268 . S
O62 Sc46 2.105 . S
O62 C53 1.268 . S
O63 Sc44 2.105 . S
O63 C49 1.268 . S
O64 Sc46 2.105 . S
O64 C48 1.268 . S
O65 Sc45 2.105 . S
O65 C50 1.268 . S
Sc66 O69 2.025 . S
Sc66 O76 2.105 . S
Sc66 O79 2.105 . S
Sc66 O82 2.105 . S
Sc66 O85 2.105 . S
Sc67 O69 2.025 . S
Sc67 O77 2.105 . S
Sc67 O81 2.105 . S
Sc67 O83 2.105 . S
Sc67 O87 2.105 . S
Sc68 O69 2.025 . S
Sc68 O78 2.105 . S
Sc68 O80 2.105 . S
Sc68 O84 2.105 . S
Sc68 O86 2.105 . S
O69 Sc66 2.025 . S
O69 Sc67 2.025 . S
O69 Sc68 2.025 . S
C70 O76 1.268 . S
C70 O86 1.268 . S
C71 O77 1.268 . S
C71 O85 1.268 . S
C72 O78 1.268 . S
C72 O87 1.268 . S
C73 O79 1.268 . S
C73 O83 1.268 . S
C74 O80 1.268 . S
C74 O82 1.268 . S
C75 O81 1.268 . S
C75 O84 1.268 . S
O76 Sc66 2.105 . S
O76 C70 1.268 . S
O77 Sc67 2.105 . S
O77 C71 1.268 . S
O78 Sc68 2.105 . S
O78 C72 1.268 . S
O79 Sc66 2.105 . S
O79 C73 1.268 . S
O80 Sc68 2.105 . S
O80 C74 1.268 . S
O81 Sc67 2.105 . S
O81 C75 1.268 . S
O82 Sc66 2.105 . S
O82 C74 1.268 . S
O83 Sc67 2.105 . S
O83 C73 1.268 . S
O84 Sc68 2.105 . S
O84 C75 1.268 . S
O85 Sc66 2.105 . S
O85 C71 1.268 . S
O86 Sc68 2.105 . S
O86 C70 1.268 . S
O87 Sc67 2.105 . S
O87 C72 1.268 . S
H88 C91 0.929 . S
H89 C94 0.929 . S
H90 C96 0.930 . S
C91 H88 0.929 . S
C91 C92 1.398 1_554 S
C91 C93 1.396 . S
C92 C91 1.398 1_556 S
C92 C96 1.407 . S
C93 C91 1.396 . S
C93 C94 1.394 . S
C94 H89 0.929 . S
C94 C93 1.394 . S
C94 C95 1.382 1_554 S
C95 C94 1.382 1_556 S
C95 C96 1.392 . S
C95 N97 1.420 . S
C96 H90 0.930 . S
C96 C92 1.407 . S
C96 C95 1.392 . S
N97 C95 1.420 . S
N97 C98 1.244 1_556 S
C98 N97 1.244 1_554 S
H99 C102 0.929 . S
H100 C105 0.929 . S
H101 C107 0.930 . S
C102 H99 0.929 . S
C102 C103 1.398 . S
C102 C104 1.396 . S
C103 C102 1.398 . S
C103 C107 1.407 . S
C104 C102 1.396 . S
C104 C105 1.394 . S
C105 H100 0.929 . S
C105 C104 1.394 . S
C105 C106 1.395 . S
C106 C105 1.395 . S
C106 C107 1.411 . S
C106 N108 1.389 1_655 S
C107 H101 0.930 . S
C107 C103 1.407 . S
C107 C106 1.411 . S
N108 C106 1.389 1_455 S
N108 C109 1.244 . S
C109 N108 1.244 . S
H110 C113 0.929 . S
H111 C116 0.929 . S
H112 C118 0.930 . S
C113 H110 0.929 . S
C113 C114 1.398 . S
C113 C115 1.396 1_554 S
C114 C113 1.398 . S
C114 C118 1.407 . S
C115 C113 1.396 1_556 S
C115 C116 1.394 . S
C116 H111 0.929 . S
C116 C115 1.394 . S
C116 C117 1.382 1_556 S
C117 C116 1.382 1_554 S
C117 C118 1.392 . S
C117 N119 1.420 . S
C118 H112 0.930 . S
C118 C114 1.407 . S
C118 C117 1.392 . S
N119 C117 1.420 . S
N119 C120 1.244 . S
C120 N119 1.244 . S
H121 C124 0.929 . S
H122 C127 0.929 . S
H123 C129 0.930 . S
C124 H121 0.929 . S
C124 C125 1.398 . S
C124 C126 1.396 . S
C125 C124 1.398 . S
C125 C129 1.407 . S
C126 C124 1.396 . S
C126 C127 1.394 . S
C127 H122 0.929 . S
C127 C126 1.394 . S
C127 C128 1.382 . S
C128 C127 1.382 . S
C128 C129 1.392 . S
C128 N130 1.420 1_455 S
C129 H123 0.930 . S
C129 C125 1.407 . S
C129 C128 1.392 . S
N130 C128 1.420 1_655 S
N130 C131 1.244 . S
C131 N130 1.244 . S
H132 C135 0.929 . S
H133 C138 0.929 . S
H134 C140 0.930 . S
C135 H132 0.929 . S
C135 C136 1.398 . S
C135 C137 1.396 . S
C136 C135 1.398 . S
C136 C140 1.407 . S
C137 C135 1.396 . S
C137 C138 1.394 . S
C138 H133 0.929 . S
C138 C137 1.394 . S
C138 C139 1.382 . S
C139 C138 1.382 . S
C139 C140 1.392 . S
C139 N141 1.420 1_565 S
C140 H134 0.930 . S
C140 C136 1.407 . S
C140 C139 1.392 . S
N141 C139 1.420 1_545 S
N141 C142 1.244 . S
C142 N141 1.244 . S
H143 C146 0.931 . S
H144 C149 0.929 . S
H145 C151 0.930 . S
C146 H143 0.931 . S
C146 C147 1.386 1_554 S
C146 C148 1.407 . S
C147 C146 1.386 1_556 S
C147 C151 1.407 . S
C148 C146 1.407 . S
C148 C149 1.394 . S
C149 H144 0.929 . S
C149 C148 1.394 . S
C149 C150 1.382 1_554 S
C150 C149 1.382 1_556 S
C150 C151 1.392 . S
C150 N152 1.420 . S
C151 H145 0.930 . S
C151 C147 1.407 . S
C151 C150 1.392 . S
N152 C150 1.420 . S
N152 C153 1.244 1_556 S
C153 N152 1.244 1_554 S
H154 C157 0.929 . S
H155 C160 0.929 . S
H156 C162 0.930 . S
C157 H154 0.929 . S
C157 C158 1.398 . S
C157 C159 1.396 . S
C158 C157 1.398 . S
C158 C162 1.407 . S
C159 C157 1.396 . S
C159 C160 1.394 . S
C160 H155 0.929 . S
C160 C159 1.394 . S
C160 C161 1.400 . S
C161 C160 1.400 . S
C161 C162 1.419 . S
C161 N163 1.376 1_545 S
C162 H156 0.930 . S
C162 C158 1.407 . S
C162 C161 1.419 . S
N163 C161 1.376 1_565 S
N163 C164 1.244 . S
C164 N163 1.244 . S
H165 C168 0.929 . S
H166 C171 0.929 . S
H167 C173 0.930 . S
C168 H165 0.929 . S
C168 C169 1.398 . S
C168 C170 1.396 1_554 S
C169 C168 1.398 . S
C169 C173 1.407 . S
C170 C168 1.396 1_556 S
C170 C171 1.394 . S
C171 H166 0.929 . S
C171 C170 1.394 . S
C171 C172 1.382 1_556 S
C172 C171 1.382 1_554 S
C172 C173 1.392 . S
C172 N174 1.420 . S
C173 H167 0.930 . S
C173 C169 1.407 . S
C173 C172 1.392 . S
N174 C172 1.420 . S
N174 C175 1.244 . S
C175 N174 1.244 . S
H176 C184 0.950 . S
H177 C189 0.950 . S
H178 C186 0.950 . S
H179 C188 0.950 . S
H180 C190 0.950 . S
H181 C192 0.950 . S
H182 C194 0.950 . S
H183 C195 0.950 . S
C184 H176 0.950 . S
C184 C185 1.386 . S
C184 C186 1.391 . S
C185 C184 1.386 . S
C185 C189 1.393 . S
C186 H178 0.950 . S
C186 C184 1.391 . S
C186 C187 1.400 . S
C187 C186 1.400 . S
C187 C188 1.398 . S
C187 C193 1.491 . S
C188 H179 0.950 . S
C188 C187 1.398 . S
C188 C189 1.391 . S
C189 H177 0.950 . S
C189 C185 1.393 . S
C189 C188 1.391 . S
C190 H180 0.950 . S
C190 C191 1.386 . S
C190 C192 1.391 . S
C191 C190 1.386 . S
C191 C195 1.393 . S
C192 H181 0.950 . S
C192 C190 1.391 . S
C192 C193 1.400 . S
C193 C187 1.491 . S
C193 C192 1.400 . S
C193 C194 1.398 . S
C194 H182 0.950 . S
C194 C193 1.398 . S
C194 C195 1.391 . S
C195 H183 0.950 . S
C195 C191 1.393 . S
C195 C194 1.391 . S
H196 C204 0.950 . S
H197 C209 0.950 . S
H198 C206 0.950 . S
H199 C208 0.950 . S
H200 C210 0.950 . S
H201 C212 0.950 . S
H202 C214 0.950 . S
H203 C215 0.950 . S
C204 H196 0.950 . S
C204 C205 1.386 . S
C204 C206 1.391 . S
C205 C204 1.386 . S
C205 C209 1.393 . S
C206 H198 0.950 . S
C206 C204 1.391 . S
C206 C207 1.400 . S
C207 C206 1.400 . S
C207 C208 1.398 . S
C207 C213 1.491 . S
C208 H199 0.950 . S
C208 C207 1.398 . S
C208 C209 1.391 . S
C209 H197 0.950 . S
C209 C205 1.393 . S
C209 C208 1.391 . S
C210 H200 0.950 . S
C210 C211 1.386 . S
C210 C212 1.391 . S
C211 C210 1.386 . S
C211 C215 1.393 . S
C212 H201 0.950 . S
C212 C210 1.391 . S
C212 C213 1.400 . S
C213 C207 1.491 . S
C213 C212 1.400 . S
C213 C214 1.398 . S
C214 H202 0.950 . S
C214 C213 1.398 . S
C214 C215 1.391 . S
C215 H203 0.950 . S
C215 C211 1.393 . S
C215 C214 1.391 . S
H216 C224 0.950 . S
H217 C229 0.950 . S
H218 C226 0.950 . S
H219 C228 0.950 . S
H220 C230 0.950 . S
H221 C232 0.950 . S
H222 C234 0.950 . S
H223 C235 0.950 . S
C224 H216 0.950 . S
C224 C225 1.386 . S
C224 C226 1.391 . S
C225 C224 1.386 . S
C225 C229 1.393 . S
C226 H218 0.950 . S
C226 C224 1.391 . S
C226 C227 1.400 . S
C227 C226 1.400 . S
C227 C228 1.398 . S
C227 C233 1.491 . S
C228 H219 0.950 . S
C228 C227 1.398 . S
C228 C229 1.391 . S
C229 H217 0.950 . S
C229 C225 1.393 . S
C229 C228 1.391 . S
C230 H220 0.950 . S
C230 C231 1.386 . S
C230 C232 1.391 . S
C231 C230 1.386 . S
C231 C235 1.393 . S
C232 H221 0.950 . S
C232 C230 1.391 . S
C232 C233 1.400 . S
C233 C227 1.491 . S
C233 C232 1.400 . S
C233 C234 1.398 . S
C234 H222 0.950 . S
C234 C233 1.398 . S
C234 C235 1.391 . S
C235 H223 0.950 . S
C235 C231 1.393 . S
C235 C234 1.391 . S
H236 C244 0.950 . S
H237 C249 0.950 . S
H238 C246 0.950 . S
H239 C248 0.950 . S
H240 C250 0.950 . S
H241 C252 0.950 . S
H242 C254 0.950 . S
H243 C255 0.950 . S
C244 H236 0.950 . S
C244 C245 1.386 . S
C244 C246 1.391 . S
C245 C244 1.386 . S
C245 C249 1.393 . S
C246 H238 0.950 . S
C246 C244 1.391 . S
C246 C247 1.400 . S
C247 C246 1.400 . S
C247 C248 1.398 . S
C247 C253 1.491 . S
C248 H239 0.950 . S
C248 C247 1.398 . S
C248 C249 1.391 . S
C249 H237 0.950 . S
C249 C245 1.393 . S
C249 C248 1.391 . S
C250 H240 0.950 . S
C250 C251 1.386 . S
C250 C252 1.391 . S
C251 C250 1.386 . S
C251 C255 1.393 . S
C252 H241 0.950 . S
C252 C250 1.391 . S
C252 C253 1.400 . S
C253 C247 1.491 . S
C253 C252 1.400 . S
C253 C254 1.398 . S
C254 H242 0.950 . S
C254 C253 1.398 . S
C254 C255 1.391 . S
C255 H243 0.950 . S
C255 C251 1.393 . S
C255 C254 1.391 . S
H256 C264 0.950 . S
H257 C269 0.950 . S
H258 C266 0.950 . S
H259 C268 0.950 . S
H260 C270 0.950 . S
H261 C272 0.950 . S
H262 C274 0.950 . S
H263 C275 0.950 . S
C264 H256 0.950 . S
C264 C265 1.386 . S
C264 C266 1.391 . S
C265 C264 1.386 . S
C265 C269 1.393 . S
C266 H258 0.950 . S
C266 C264 1.391 . S
C266 C267 1.400 . S
C267 C266 1.400 . S
C267 C268 1.398 . S
C267 C273 1.491 . S
C268 H259 0.950 . S
C268 C267 1.398 . S
C268 C269 1.391 . S
C269 H257 0.950 . S
C269 C265 1.393 . S
C269 C268 1.391 . S
C270 H260 0.950 . S
C270 C271 1.386 . S
C270 C272 1.391 . S
C271 C270 1.386 . S
C271 C275 1.393 . S
C272 H261 0.950 . S
C272 C270 1.391 . S
C272 C273 1.400 . S
C273 C267 1.491 . S
C273 C272 1.400 . S
C273 C274 1.398 . S
C274 H262 0.950 . S
C274 C273 1.398 . S
C274 C275 1.391 . S
C275 H263 0.950 . S
C275 C271 1.393 . S
C275 C274 1.391 . S
H276 C284 0.950 . S
H277 C289 0.950 . S
H278 C286 0.950 . S
H279 C288 0.950 . S
H280 C290 0.950 . S
H281 C292 0.950 . S
H282 C294 0.950 . S
H283 C295 0.950 . S
C284 H276 0.950 . S
C284 C285 1.386 . S
C284 C286 1.391 . S
C285 C284 1.386 . S
C285 C289 1.393 . S
C286 H278 0.950 . S
C286 C284 1.391 . S
C286 C287 1.400 . S
C287 C286 1.400 . S
C287 C288 1.398 . S
C287 C293 1.491 . S
C288 H279 0.950 . S
C288 C287 1.398 . S
C288 C289 1.391 . S
C289 H277 0.950 . S
C289 C285 1.393 . S
C289 C288 1.391 . S
C290 H280 0.950 . S
C290 C291 1.386 . S
C290 C292 1.391 . S
C291 C290 1.386 . S
C291 C295 1.393 . S
C292 H281 0.950 . S
C292 C290 1.391 . S
C292 C293 1.400 . S
C293 C287 1.491 . S
C293 C292 1.400 . S
C293 C294 1.398 . S
C294 H282 0.950 . S
C294 C293 1.398 . S
C294 C295 1.391 . S
C295 H283 0.950 . S
C295 C291 1.393 . S
C295 C294 1.391 . S
H296 C304 0.950 . S
H297 C309 0.950 . S
H298 C306 0.950 . S
H299 C308 0.950 . S
H300 C310 0.950 . S
H301 C312 0.950 . S
H302 C314 0.950 . S
H303 C315 0.950 . S
C304 H296 0.950 . S
C304 C305 1.386 . S
C304 C306 1.391 . S
C305 C304 1.386 . S
C305 C309 1.393 . S
C306 H298 0.950 . S
C306 C304 1.391 . S
C306 C307 1.400 . S
C307 C306 1.400 . S
C307 C308 1.398 . S
C307 C313 1.491 . S
C308 H299 0.950 . S
C308 C307 1.398 . S
C308 C309 1.391 . S
C309 H297 0.950 . S
C309 C305 1.393 . S
C309 C308 1.391 . S
C310 H300 0.950 . S
C310 C311 1.386 . S
C310 C312 1.391 . S
C311 C310 1.386 . S
C311 C315 1.393 . S
C312 H301 0.950 . S
C312 C310 1.391 . S
C312 C313 1.400 . S
C313 C307 1.491 . S
C313 C312 1.400 . S
C313 C314 1.398 . S
C314 H302 0.950 . S
C314 C313 1.398 . S
C314 C315 1.391 . S
C315 H303 0.950 . S
C315 C311 1.393 . S
C315 C314 1.391 . S
H316 C324 0.950 . S
H317 C329 0.950 . S
H318 C326 0.950 . S
H319 C328 0.950 . S
H320 C330 0.950 . S
H321 C332 0.950 . S
H322 C334 0.950 . S
H323 C335 0.950 . S
C324 H316 0.950 . S
C324 C325 1.386 . S
C324 C326 1.391 . S
C325 C324 1.386 . S
C325 C329 1.393 . S
C326 H318 0.950 . S
C326 C324 1.391 . S
C326 C327 1.400 . S
C327 C326 1.400 . S
C327 C328 1.398 . S
C327 C333 1.491 . S
C328 H319 0.950 . S
C328 C327 1.398 . S
C328 C329 1.391 . S
C329 H317 0.950 . S
C329 C325 1.393 . S
C329 C328 1.391 . S
C330 H320 0.950 . S
C330 C331 1.386 . S
C330 C332 1.391 . S
C331 C330 1.386 . S
C331 C335 1.393 . S
C332 H321 0.950 . S
C332 C330 1.391 . S
C332 C333 1.400 . S
C333 C327 1.491 . S
C333 C332 1.400 . S
C333 C334 1.398 . S
C334 H322 0.950 . S
C334 C333 1.398 . S
C334 C335 1.391 . S
C335 H323 0.950 . S
C335 C331 1.393 . S
C335 C334 1.391 . S
H336 C344 0.950 . S
H337 C349 0.950 . S
H338 C346 0.950 . S
H339 C348 0.950 . S
H340 C350 0.950 . S
H341 C352 0.950 . S
H342 C354 0.950 . S
H343 C355 0.950 . S
C344 H336 0.950 . S
C344 C345 1.386 . S
C344 C346 1.391 . S
C345 C344 1.386 . S
C345 C349 1.393 . S
C346 H338 0.950 . S
C346 C344 1.391 . S
C346 C347 1.400 . S
C347 C346 1.400 . S
C347 C348 1.398 . S
C347 C353 1.491 . S
C348 H339 0.950 . S
C348 C347 1.398 . S
C348 C349 1.391 . S
C349 H337 0.950 . S
C349 C345 1.393 . S
C349 C348 1.391 . S
C350 H340 0.950 . S
C350 C351 1.386 . S
C350 C352 1.391 . S
C351 C350 1.386 . S
C351 C355 1.393 . S
C352 H341 0.950 . S
C352 C350 1.391 . S
C352 C353 1.400 . S
C353 C347 1.491 . S
C353 C352 1.400 . S
C353 C354 1.398 . S
C354 H342 0.950 . S
C354 C353 1.398 . S
C354 C355 1.391 . S
C355 H343 0.950 . S
C355 C351 1.393 . S
C355 C354 1.391 . S
H356 C364 0.950 . S
H357 C369 0.950 . S
H358 C366 0.950 . S
H359 C368 0.950 . S
H360 C370 0.950 . S
H361 C372 0.950 . S
H362 C374 0.950 . S
H363 C375 0.950 . S
C364 H356 0.950 . S
C364 C365 1.386 . S
C364 C366 1.391 . S
C365 C364 1.386 . S
C365 C369 1.393 . S
C366 H358 0.950 . S
C366 C364 1.391 . S
C366 C367 1.400 . S
C367 C366 1.400 . S
C367 C368 1.398 . S
C367 C373 1.491 . S
C368 H359 0.950 . S
C368 C367 1.398 . S
C368 C369 1.391 . S
C369 H357 0.950 . S
C369 C365 1.393 . S
C369 C368 1.391 . S
C370 H360 0.950 . S
C370 C371 1.386 . S
C370 C372 1.391 . S
C371 C370 1.386 . S
C371 C375 1.393 . S
C372 H361 0.950 . S
C372 C370 1.391 . S
C372 C373 1.400 . S
C373 C367 1.491 . S
C373 C372 1.400 . S
C373 C374 1.398 . S
C374 H362 0.950 . S
C374 C373 1.398 . S
C374 C375 1.391 . S
C375 H363 0.950 . S
C375 C371 1.393 . S
C375 C374 1.391 . S
H376 C384 0.950 . S
H377 C389 0.950 . S
H378 C386 0.950 . S
H379 C388 0.950 . S
H380 C390 0.950 . S
H381 C392 0.950 . S
H382 C394 0.950 . S
H383 C395 0.950 . S
C384 H376 0.950 . S
C384 C385 1.386 . S
C384 C386 1.391 . S
C385 C384 1.386 . S
C385 C389 1.393 . S
C386 H378 0.950 . S
C386 C384 1.391 . S
C386 C387 1.400 . S
C387 C386 1.400 . S
C387 C388 1.398 . S
C387 C393 1.491 . S
C388 H379 0.950 . S
C388 C387 1.398 . S
C388 C389 1.391 . S
C389 H377 0.950 . S
C389 C385 1.393 . S
C389 C388 1.391 . S
C390 H380 0.950 . S
C390 C391 1.386 . S
C390 C392 1.391 . S
C391 C390 1.386 . S
C391 C395 1.393 . S
C392 H381 0.950 . S
C392 C390 1.391 . S
C392 C393 1.400 . S
C393 C387 1.491 . S
C393 C392 1.400 . S
C393 C394 1.398 . S
C394 H382 0.950 . S
C394 C393 1.398 . S
C394 C395 1.391 . S
C395 H383 0.950 . S
C395 C391 1.393 . S
C395 C394 1.391 . S
H396 C404 0.950 . S
H397 C409 0.950 . S
H398 C406 0.950 . S
H399 C408 0.950 . S
H400 C410 0.950 . S
H401 C412 0.950 . S
H402 C414 0.950 . S
H403 C415 0.950 . S
C404 H396 0.950 . S
C404 C405 1.386 . S
C404 C406 1.391 . S
C405 C404 1.386 . S
C405 C409 1.393 . S
C406 H398 0.950 . S
C406 C404 1.391 . S
C406 C407 1.400 . S
C407 C406 1.400 . S
C407 C408 1.398 . S
C407 C413 1.491 . S
C408 H399 0.950 . S
C408 C407 1.398 . S
C408 C409 1.391 . S
C409 H397 0.950 . S
C409 C405 1.393 . S
C409 C408 1.391 . S
C410 H400 0.950 . S
C410 C411 1.386 . S
C410 C412 1.391 . S
C411 C410 1.386 . S
C411 C415 1.393 . S
C412 H401 0.950 . S
C412 C410 1.391 . S
C412 C413 1.400 . S
C413 C407 1.491 . S
C413 C412 1.400 . S
C413 C414 1.398 . S
C414 H402 0.950 . S
C414 C413 1.398 . S
C414 C415 1.391 . S
C415 H403 0.950 . S
C415 C411 1.393 . S
C415 C414 1.391 . S
H416 C424 0.950 . S
H417 C429 0.950 . S
H418 C426 0.950 . S
H419 C428 0.950 . S
H420 C430 0.950 . S
H421 C432 0.950 . S
H422 C434 0.950 . S
H423 C435 0.950 . S
C424 H416 0.950 . S
C424 C425 1.386 . S
C424 C426 1.391 . S
C425 C424 1.386 . S
C425 C429 1.393 . S
C426 H418 0.950 . S
C426 C424 1.391 . S
C426 C427 1.400 . S
C427 C426 1.400 . S
C427 C428 1.398 . S
C427 C433 1.491 . S
C428 H419 0.950 . S
C428 C427 1.398 . S
C428 C429 1.391 . S
C429 H417 0.950 . S
C429 C425 1.393 . S
C429 C428 1.391 . S
C430 H420 0.950 . S
C430 C431 1.386 . S
C430 C432 1.391 . S
C431 C430 1.386 . S
C431 C435 1.393 . S
C432 H421 0.950 . S
C432 C430 1.391 . S
C432 C433 1.400 . S
C433 C427 1.491 . S
C433 C432 1.400 . S
C433 C434 1.398 . S
C434 H422 0.950 . S
C434 C433 1.398 . S
C434 C435 1.391 . S
C435 H423 0.950 . S
C435 C431 1.393 . S
C435 C434 1.391 . S
H436 C444 0.950 . S
H437 C449 0.950 . S
H438 C446 0.950 . S
H439 C448 0.950 . S
H440 C450 0.950 . S
H441 C452 0.950 . S
H442 C454 0.950 . S
H443 C455 0.950 . S
C444 H436 0.950 . S
C444 C445 1.386 . S
C444 C446 1.391 . S
C445 C444 1.386 . S
C445 C449 1.393 . S
C446 H438 0.950 . S
C446 C444 1.391 . S
C446 C447 1.400 . S
C447 C446 1.400 . S
C447 C448 1.398 . S
C447 C453 1.491 . S
C448 H439 0.950 . S
C448 C447 1.398 . S
C448 C449 1.391 . S
C449 H437 0.950 . S
C449 C445 1.393 . S
C449 C448 1.391 . S
C450 H440 0.950 . S
C450 C451 1.386 . S
C450 C452 1.391 . S
C451 C450 1.386 . S
C451 C455 1.393 . S
C452 H441 0.950 . S
C452 C450 1.391 . S
C452 C453 1.400 . S
C453 C447 1.491 . S
C453 C452 1.400 . S
C453 C454 1.398 . S
C454 H442 0.950 . S
C454 C453 1.398 . S
C454 C455 1.391 . S
C455 H443 0.950 . S
C455 C451 1.393 . S
C455 C454 1.391 . S
H456 C464 0.950 . S
H457 C469 0.950 . S
H458 C466 0.950 . S
H459 C468 0.950 . S
H460 C470 0.950 . S
H461 C472 0.950 . S
H462 C474 0.950 . S
H463 C475 0.950 . S
C464 H456 0.950 . S
C464 C465 1.386 . S
C464 C466 1.391 . S
C465 C464 1.386 . S
C465 C469 1.393 . S
C466 H458 0.950 . S
C466 C464 1.391 . S
C466 C467 1.400 . S
C467 C466 1.400 . S
C467 C468 1.398 . S
C467 C473 1.491 . S
C468 H459 0.950 . S
C468 C467 1.398 . S
C468 C469 1.391 . S
C469 H457 0.950 . S
C469 C465 1.393 . S
C469 C468 1.391 . S
C470 H460 0.950 . S
C470 C471 1.386 . S
C470 C472 1.391 . S
C471 C470 1.386 . S
C471 C475 1.393 . S
C472 H461 0.950 . S
C472 C470 1.391 . S
C472 C473 1.400 . S
C473 C467 1.491 . S
C473 C472 1.400 . S
C473 C474 1.398 . S
C474 H462 0.950 . S
C474 C473 1.398 . S
C474 C475 1.391 . S
C475 H463 0.950 . S
C475 C471 1.393 . S
C475 C474 1.391 . S
H476 C484 0.950 . S
H477 C489 0.950 . S
H478 C486 0.950 . S
H479 C488 0.950 . S
H480 C490 0.950 . S
H481 C492 0.950 . S
H482 C494 0.950 . S
H483 C495 0.950 . S
C484 H476 0.950 . S
C484 C485 1.386 . S
C484 C486 1.391 . S
C485 C484 1.386 . S
C485 C489 1.393 . S
C486 H478 0.950 . S
C486 C484 1.391 . S
C486 C487 1.400 . S
C487 C486 1.400 . S
C487 C488 1.398 . S
C487 C493 1.491 . S
C488 H479 0.950 . S
C488 C487 1.398 . S
C488 C489 1.391 . S
C489 H477 0.950 . S
C489 C485 1.393 . S
C489 C488 1.391 . S
C490 H480 0.950 . S
C490 C491 1.386 . S
C490 C492 1.391 . S
C491 C490 1.386 . S
C491 C495 1.393 . S
C492 H481 0.950 . S
C492 C490 1.391 . S
C492 C493 1.400 . S
C493 C487 1.491 . S
C493 C492 1.400 . S
C493 C494 1.398 . S
C494 H482 0.950 . S
C494 C493 1.398 . S
C494 C495 1.391 . S
C495 H483 0.950 . S
C495 C491 1.393 . S
C495 C494 1.391 . S
H496 C504 0.950 . S
H497 C509 0.950 . S
H498 C506 0.950 . S
H499 C508 0.950 . S
H500 C510 0.950 . S
H501 C512 0.950 . S
H502 C514 0.950 . S
H503 C515 0.950 . S
C504 H496 0.950 . S
C504 C505 1.386 1_556 S
C504 C506 1.391 . S
C505 C504 1.386 1_554 S
C505 C509 1.393 . S
C506 H498 0.950 . S
C506 C504 1.391 . S
C506 C507 1.400 1_556 S
C507 C506 1.400 1_554 S
C507 C508 1.398 . S
C507 C513 1.491 . S
C508 H499 0.950 . S
C508 C507 1.398 . S
C508 C509 1.391 . S
C509 H497 0.950 . S
C509 C505 1.393 . S
C509 C508 1.391 . S
C510 H500 0.950 . S
C510 C511 1.386 . S
C510 C512 1.391 . S
C511 C510 1.386 . S
C511 C515 1.393 1_554 S
C512 H501 0.950 . S
C512 C510 1.391 . S
C512 C513 1.400 . S
C513 C507 1.491 . S
C513 C512 1.400 . S
C513 C514 1.398 1_554 S
C514 H502 0.950 . S
C514 C513 1.398 1_556 S
C514 C515 1.391 . S
C515 H503 0.950 . S
C515 C511 1.393 1_556 S
C515 C514 1.391 . S
H516 C524 0.950 . S
H517 C529 0.950 . S
H518 C526 0.950 . S
H519 C528 0.950 . S
H520 C530 0.950 . S
H521 C532 0.950 . S
H522 C534 0.950 . S
H523 C535 0.950 . S
C524 H516 0.950 . S
C524 C525 1.386 . S
C524 C526 1.391 . S
C525 C524 1.386 . S
C525 C529 1.393 . S
C526 H518 0.950 . S
C526 C524 1.391 . S
C526 C527 1.400 . S
C527 C526 1.400 . S
C527 C528 1.398 . S
C527 C533 1.491 . S
C528 H519 0.950 . S
C528 C527 1.398 . S
C528 C529 1.391 . S
C529 H517 0.950 . S
C529 C525 1.393 . S
C529 C528 1.391 . S
C530 H520 0.950 . S
C530 C531 1.386 . S
C530 C532 1.391 . S
C531 C530 1.386 . S
C531 C535 1.393 . S
C532 H521 0.950 . S
C532 C530 1.391 . S
C532 C533 1.400 . S
C533 C527 1.491 . S
C533 C532 1.400 . S
C533 C534 1.398 . S
C534 H522 0.950 . S
C534 C533 1.398 . S
C534 C535 1.391 . S
C535 H523 0.950 . S
C535 C531 1.393 . S
C535 C534 1.391 . S
H536 C544 0.950 . S
H537 C549 0.950 . S
H538 C546 0.950 . S
H539 C548 0.950 . S
H540 C550 0.950 . S
H541 C552 0.950 . S
H542 C554 0.950 . S
H543 C555 0.950 . S
C544 H536 0.950 . S
C544 C545 1.386 1_556 S
C544 C546 1.391 . S
C545 C544 1.386 1_554 S
C545 C549 1.393 . S
C546 H538 0.950 . S
C546 C544 1.391 . S
C546 C547 1.400 1_556 S
C547 C546 1.400 1_554 S
C547 C548 1.398 . S
C547 C553 1.491 . S
C548 H539 0.950 . S
C548 C547 1.398 . S
C548 C549 1.391 . S
C549 H537 0.950 . S
C549 C545 1.393 . S
C549 C548 1.391 . S
C550 H540 0.950 . S
C550 C551 1.386 . S
C550 C552 1.391 . S
C551 C550 1.386 . S
C551 C555 1.393 1_554 S
C552 H541 0.950 . S
C552 C550 1.391 . S
C552 C553 1.400 . S
C553 C547 1.491 . S
C553 C552 1.400 . S
C553 C554 1.398 1_554 S
C554 H542 0.950 . S
C554 C553 1.398 1_556 S
C554 C555 1.391 . S
C555 H543 0.950 . S
C555 C551 1.393 1_556 S
C555 C554 1.391 . S
H556 C564 0.950 . S
H557 C569 0.950 . S
H558 C566 0.950 . S
H559 C568 0.950 . S
H560 C570 0.950 . S
H561 C572 0.950 . S
H562 C574 0.950 . S
H563 C575 0.950 . S
C564 H556 0.950 . S
C564 C565 1.386 . S
C564 C566 1.391 . S
C565 C564 1.386 . S
C565 C569 1.393 . S
C566 H558 0.950 . S
C566 C564 1.391 . S
C566 C567 1.400 . S
C567 C566 1.400 . S
C567 C568 1.398 . S
C567 C573 1.491 . S
C568 H559 0.950 . S
C568 C567 1.398 . S
C568 C569 1.391 . S
C569 H557 0.950 . S
C569 C565 1.393 . S
C569 C568 1.391 . S
C570 H560 0.950 . S
C570 C571 1.386 . S
C570 C572 1.391 . S
C571 C570 1.386 . S
C571 C575 1.393 . S
C572 H561 0.950 . S
C572 C570 1.391 . S
C572 C573 1.400 . S
C573 C567 1.491 . S
C573 C572 1.400 . S
C573 C574 1.398 . S
C574 H562 0.950 . S
C574 C573 1.398 . S
C574 C575 1.391 . S
C575 H563 0.950 . S
C575 C571 1.393 . S
C575 C574 1.391 . S
H576 C584 0.950 . S
H577 C589 0.950 . S
H578 C586 0.950 . S
H579 C588 0.950 . S
H580 C590 0.950 . S
H581 C592 0.950 . S
H582 C594 0.950 . S
H583 C595 0.950 . S
C584 H576 0.950 . S
C584 C585 1.386 . S
C584 C586 1.391 . S
C585 C584 1.386 . S
C585 C589 1.393 . S
C586 H578 0.950 . S
C586 C584 1.391 . S
C586 C587 1.400 . S
C587 C586 1.400 . S
C587 C588 1.398 . S
C587 C593 1.491 . S
C588 H579 0.950 . S
C588 C587 1.398 . S
C588 C589 1.391 . S
C589 H577 0.950 . S
C589 C585 1.393 . S
C589 C588 1.391 . S
C590 H580 0.950 . S
C590 C591 1.386 . S
C590 C592 1.391 . S
C591 C590 1.386 . S
C591 C595 1.393 . S
C592 H581 0.950 . S
C592 C590 1.391 . S
C592 C593 1.400 . S
C593 C587 1.491 . S
C593 C592 1.400 . S
C593 C594 1.398 . S
C594 H582 0.950 . S
C594 C593 1.398 . S
C594 C595 1.391 . S
C595 H583 0.950 . S
C595 C591 1.393 . S
C595 C594 1.391 . S
H596 C604 0.950 . S
H597 C609 0.950 . S
H598 C606 0.950 . S
H599 C608 0.950 . S
H600 C610 0.950 . S
H601 C612 0.950 . S
H602 C614 0.950 . S
H603 C615 0.950 . S
C604 H596 0.950 . S
C604 C605 1.386 . S
C604 C606 1.391 . S
C605 C604 1.386 . S
C605 C609 1.393 1_554 S
C606 H598 0.950 . S
C606 C604 1.391 . S
C606 C607 1.400 . S
C607 C606 1.400 . S
C607 C608 1.398 1_554 S
C607 C613 1.491 . S
C608 H599 0.950 . S
C608 C607 1.398 1_556 S
C608 C609 1.391 . S
C609 H597 0.950 . S
C609 C605 1.393 1_556 S
C609 C608 1.391 . S
C610 H600 0.950 . S
C610 C611 1.386 1_556 S
C610 C612 1.391 . S
C611 C610 1.386 1_554 S
C611 C615 1.393 . S
C612 H601 0.950 . S
C612 C610 1.391 . S
C612 C613 1.400 1_556 S
C613 C607 1.491 . S
C613 C612 1.400 1_554 S
C613 C614 1.398 . S
C614 H602 0.950 . S
C614 C613 1.398 . S
C614 C615 1.391 . S
C615 H603 0.950 . S
C615 C611 1.393 . S
C615 C614 1.391 . S
H616 C624 0.950 . S
H617 C629 0.950 . S
H618 C626 0.950 . S
H619 C628 0.950 . S
H620 C630 0.950 . S
H621 C632 0.950 . S
H622 C634 0.950 . S
H623 C635 0.950 . S
C624 H616 0.950 . S
C624 C625 1.386 . S
C624 C626 1.391 . S
C625 C624 1.386 . S
C625 C629 1.393 . S
C626 H618 0.950 . S
C626 C624 1.391 . S
C626 C627 1.400 . S
C627 C626 1.400 . S
C627 C628 1.398 . S
C627 C633 1.491 . S
C628 H619 0.950 . S
C628 C627 1.398 . S
C628 C629 1.391 . S
C629 H617 0.950 . S
C629 C625 1.393 . S
C629 C628 1.391 . S
C630 H620 0.950 . S
C630 C631 1.386 . S
C630 C632 1.391 . S
C631 C630 1.386 . S
C631 C635 1.393 . S
C632 H621 0.950 . S
C632 C630 1.391 . S
C632 C633 1.400 . S
C633 C627 1.491 . S
C633 C632 1.400 . S
C633 C634 1.398 . S
C634 H622 0.950 . S
C634 C633 1.398 . S
C634 C635 1.391 . S
C635 H623 0.950 . S
C635 C631 1.393 . S
C635 C634 1.391 . S
H636 C644 0.950 . S
H637 C649 0.950 . S
H638 C646 0.950 . S
H639 C648 0.950 . S
H640 C650 0.950 . S
H641 C652 0.950 . S
H642 C654 0.950 . S
H643 C655 0.950 . S
C644 H636 0.950 . S
C644 C645 1.386 1_556 S
C644 C646 1.391 . S
C645 C644 1.386 1_554 S
C645 C649 1.393 . S
C646 H638 0.950 . S
C646 C644 1.391 . S
C646 C647 1.400 1_556 S
C647 C646 1.400 1_554 S
C647 C648 1.398 . S
C647 C653 1.491 . S
C648 H639 0.950 . S
C648 C647 1.398 . S
C648 C649 1.391 . S
C649 H637 0.950 . S
C649 C645 1.393 . S
C649 C648 1.391 . S
C650 H640 0.950 . S
C650 C651 1.386 . S
C650 C652 1.391 . S
C651 C650 1.386 . S
C651 C655 1.393 1_554 S
C652 H641 0.950 . S
C652 C650 1.391 . S
C652 C653 1.400 . S
C653 C647 1.491 . S
C653 C652 1.400 . S
C653 C654 1.398 1_554 S
C654 H642 0.950 . S
C654 C653 1.398 1_556 S
C654 C655 1.391 . S
C655 H643 0.950 . S
C655 C651 1.393 1_556 S
C655 C654 1.391 . S
C185 C5 1.437 . S
C191 C125 1.460 . S
C205 C31 1.464 . S
C211 C92 1.465 . S
C231 C104 1.478 . S
C225 C53 1.477 . S
C245 C71 1.476 . S
C251 C115 1.446 . S
C271 C148 1.446 . S
C265 C75 1.476 . S
C291 C159 1.460 . S
C285 C9 1.488 . S
C311 C169 1.473 . S
C305 C27 1.453 . S
C331 C136 1.451 . S
C325 C49 1.451 . S
C345 C51 1.445 . S
C351 C103 1.450 . S
C365 C72 1.467 . S
C371 C114 1.457 . S
C385 C6 1.488 . S
C391 C126 1.463 . S
C411 C93 1.455 . S
C405 C29 1.475 . S
C425 C28 1.474 . S
C431 C170 1.450 . S
C451 C137 1.476 . S
C445 C50 1.483 . S
C471 C147 1.462 . S
C465 C73 1.462 . S
C485 C7 1.445 . S
C491 C158 1.451 . S
C511 C98 1.504 . S
C505 C4 1.508 . S
C531 C109 1.512 . S
C525 C30 1.506 . S
C545 C52 1.508 . S
C551 C120 1.509 . S
C565 C70 1.505 . S
C571 C131 1.503 . S
C591 C142 1.511 . S
C585 C74 1.503 . S
C605 C8 1.507 . S
C611 C153 1.509 . S
C625 C26 1.495 . S
C631 C164 1.514 . S
C645 C48 1.495 . S
C651 C175 1.513 . S
