# Generated by pormake.
# Topology pts, (4,4)-cn, num edge types: 1
# Building blocks:
#     Node 0, Type 0, BuildingBlock: MIFKUJ_clean_linker_1, # of connection points: 4
#     Node 1, Type 0, BuildingBlock: MIFKUJ_clean_linker_1, # of connection points: 4
#     Node 2, Type 1, BuildingBlock: UXUYUI_clean_sbu_0, # of connection points: 4
#     Node 3, Type 1, BuildingBlock: UXUYUI_clean_sbu_0, # of connection points: 4
#     Edge 4, Type (0, 1), BuildingBlock: KIFKEQ_clean_linker_1, # of connection points: 2
#     Edge 5, Type (0, 1), BuildingBlock: KIFKEQ_clean_linker_1, # of connection points: 2
#     Edge 6, Type (0, 1), BuildingBlock: KIFKEQ_clean_linker_1, # of connection points: 2
#     Edge 7, Type (0, 1), BuildingBlock: KIFKEQ_clean_linker_1, # of connection points: 2
#     Edge 8, Type (0, 1), BuildingBlock: KIFKEQ_clean_linker_1, # of connection points: 2
#     Edge 9, Type (0, 1), BuildingBlock: KIFKEQ_clean_linker_1, # of connection points: 2
#     Edge 10, Type (0, 1), BuildingBlock: KIFKEQ_clean_linker_1, # of connection points: 2
#     Edge 11, Type (0, 1), BuildingBlock: KIFKEQ_clean_linker_1, # of connection points: 2
# Relax obj value: 0.001
# Max RMSD: 0.016
# Mean RMSD: 0.014
data_MOF--net-pts--node1-UXUYUI_clean_sbu_0--node2-MIFKUJ_clean_linker_1--edge1-KIFKEQ_clean_linker_1
_symmetry_space_group_name_H-M    P1
_symmetry_Int_Tables_number       1
_symmetry_cell_setting            triclinic
loop_
_symmetry_equiv_pos_as_xyz
'x, y, z'
_cell_length_a     36.327833
_cell_length_b     36.345598
_cell_length_c     49.710196
_cell_angle_alpha  90.07134
_cell_angle_beta   90.1021
_cell_angle_gamma 89.952866
loop_
_atom_site_label
_atom_site_type_symbol
_atom_site_fract_x
_atom_site_fract_y
_atom_site_fract_z
_atom_type_partial_charge
H0 H 0.57139 0.95698 0.05324 0.0
H1 H 0.62708 0.95806 0.08074 0.0
H2 H 0.65115 0.06769 0.05188 0.0
H3 H 0.59615 0.06552 0.02352 0.0
H4 H 0.51156 0.0058 0.05497 0.0
H5 H 0.6047 0.96559 0.99437 0.0
H6 H 0.66191 0.96755 0.96894 0.0
H7 H 0.62248 0.06344 0.92621 0.0
H8 H 0.56643 0.06278 0.95311 0.0
H9 H 0.45585 0.0626 0.95457 0.0
H10 H 0.39998 0.06159 0.92705 0.0
H11 H 0.36939 0.95754 0.9625 0.0
H12 H 0.42576 0.95834 0.98955 0.0
H13 H 0.51333 0.01561 0.95549 0.0
H14 H 0.42102 0.05701 0.01698 0.0
H15 H 0.36463 0.05628 0.04378 0.0
H16 H 0.40187 0.95759 0.08382 0.0
H17 H 0.45795 0.95805 0.05666 0.0
C18 C 0.5798 0.01107 0.03629 0.0
C19 C 0.58879 0.98117 0.05283 0.0
C20 C 0.62055 0.98199 0.06868 0.0
C21 C 0.64368 0.01307 0.06872 0.0
C22 C 0.63443 0.04306 0.05209 0.0
C23 C 0.60287 0.04199 0.03596 0.0
C24 C 0.54577 0.01018 0.01985 0.0
C25 C 0.51189 0.00744 0.03318 0.0
C26 C 0.54642 0.01327 0.99148 0.0
C27 C 0.58143 0.01444 0.97606 0.0
C28 C 0.60869 0.98754 0.97996 0.0
C29 C 0.64123 0.98834 0.96503 0.0
C30 C 0.64697 0.01565 0.94542 0.0
C31 C 0.61943 0.04238 0.94143 0.0
C32 C 0.58712 0.04183 0.95662 0.0
C33 C 0.44484 0.01069 0.97425 0.0
C34 C 0.43713 0.03955 0.95637 0.0
C35 C 0.40506 0.03907 0.94082 0.0
C36 C 0.38021 0.00954 0.94267 0.0
C37 C 0.38813 0.98053 0.96047 0.0
C38 C 0.42016 0.98109 0.9761 0.0
C39 C 0.47902 0.01135 0.99061 0.0
C40 C 0.51296 0.01402 0.97728 0.0
C41 C 0.47845 0.00826 0.019 0.0
C42 C 0.44359 0.00733 0.03456 0.0
C43 C 0.41679 0.03484 0.03118 0.0
C44 C 0.38461 0.03446 0.04655 0.0
C45 C 0.37888 0.00689 0.0659 0.0
C46 C 0.40572 0.97939 0.06925 0.0
C47 C 0.43771 0.97959 0.05372 0.0
H48 H 0.06842 0.45826 0.45519 0.0
H49 H 0.07076 0.40202 0.42809 0.0
H50 H 0.96899 0.36553 0.46406 0.0
H51 H 0.9665 0.42191 0.49079 0.0
H52 H 0.02074 0.51276 0.45587 0.0
H53 H 0.06587 0.42842 0.52349 0.0
H54 H 0.06711 0.37254 0.55073 0.0
H55 H 0.95616 0.39533 0.57757 0.0
H56 H 0.9559 0.45188 0.5511 0.0
H57 H 0.95342 0.56735 0.55344 0.0
H58 H 0.95009 0.62372 0.58027 0.0
H59 H 0.05535 0.65788 0.54854 0.0
H60 H 0.05829 0.60169 0.52164 0.0
H61 H 1.00309 0.51205 0.55482 0.0
H62 H 0.95835 0.5966 0.48738 0.0
H63 H 0.95809 0.65367 0.46119 0.0
H64 H 0.06823 0.62997 0.43349 0.0
H65 H 0.06835 0.57294 0.45978 0.0
C66 C 0.01755 0.44415 0.47531 0.0
C67 C 0.04661 0.43814 0.45724 0.0
C68 C 0.04789 0.40604 0.44173 0.0
C69 C 0.02013 0.37929 0.44402 0.0
C70 C 0.9911 0.38533 0.46217 0.0
C71 C 0.9897 0.41754 0.4775 0.0
C72 C 0.01567 0.47877 0.49119 0.0
C73 C 0.01746 0.51255 0.47756 0.0
C74 C 0.01048 0.47868 0.5194 0.0
C75 C 0.01077 0.44419 0.53526 0.0
C76 C 0.04182 0.42123 0.53522 0.0
C77 C 0.04237 0.38916 0.5507 0.0
C78 C 0.01173 0.37928 0.56644 0.0
C79 C 0.98053 0.40231 0.56617 0.0
C80 C 0.9802 0.43457 0.55092 0.0
C81 C 0.00591 0.58048 0.53533 0.0
C82 C 0.97573 0.58705 0.55225 0.0
C83 C 0.97394 0.61922 0.56765 0.0
C84 C 1.00243 0.64537 0.56653 0.0
C85 C 0.03263 0.63866 0.54953 0.0
C86 C 0.03439 0.6065 0.53416 0.0
C87 C 0.00815 0.54592 0.51949 0.0
C88 C 0.00644 0.51219 0.53313 0.0
C89 C 0.01351 0.54607 0.49131 0.0
C90 C 0.01344 0.58068 0.4756 0.0
C91 C 0.98247 0.6038 0.47575 0.0
C92 C 0.98228 0.63624 0.46069 0.0
C93 C 0.01316 0.64624 0.44535 0.0
C94 C 0.0442 0.62311 0.44534 0.0
C95 C 0.04422 0.59046 0.46017 0.0
Li96 Li 0.01457 0.04597 0.27257 0.0
Li97 Li 0.01241 0.979 0.27478 0.0
Li98 Li 0.04704 0.01242 0.23816 0.0
Li99 Li 0.97914 0.01063 0.23766 0.0
C100 C 0.07586 0.02844 0.29745 0.0
N101 N 0.11311 0.06481 0.33801 0.0
C102 C 0.07321 0.01618 0.32401 0.0
C103 C 0.09779 0.05892 0.29146 0.0
C104 C 0.0922 0.035 0.34424 0.0
C105 C 0.11629 0.07703 0.31227 0.0
C106 C 0.93979 0.99993 0.28932 0.0
C107 C 0.88744 0.95912 0.28863 0.0
N108 N 0.87762 0.97128 0.31349 0.0
C109 C 0.92888 0.01237 0.31471 0.0
C110 C 0.91867 0.97339 0.27605 0.0
C111 C 0.8975 0.99741 0.32665 0.0
C112 C 0.0208 0.1226 0.28313 0.0
N113 N 0.01482 0.08913 0.29447 0.0
C114 C 0.01048 0.11633 0.33816 0.0
C115 C 0.00959 0.08548 0.3214 0.0
C116 C 0.01692 0.15126 0.32707 0.0
C117 C 0.02211 0.15418 0.29915 0.0
H118 H 0.02454 0.1248 0.26165 0.0
H119 H 1.00519 0.0585 0.32992 0.0
C120 C 0.02908 0.90575 0.28895 0.0
N121 N 0.01282 0.93715 0.2979 0.0
C122 C 0.0293 0.8742 0.30494 0.0
C123 C 0.99779 0.9084 0.33971 0.0
C124 C 0.99777 0.93917 0.32289 0.0
C125 C 0.01338 0.87527 0.33064 0.0
H126 H 0.04179 0.90516 0.26931 0.0
H127 H 0.98599 0.96474 0.32987 0.0
C128 C 0.02494 0.0726 0.21128 0.0
N129 N 0.052 0.10905 0.16676 0.0
C130 C 0.00648 0.07031 0.18663 0.0
C131 C 0.05697 0.09372 0.21333 0.0
C132 C 0.02064 0.08889 0.16435 0.0
C133 C 0.07028 0.11184 0.19057 0.0
C134 C 1.00518 0.93751 0.2217 0.0
C135 C 0.0214 0.92989 0.19682 0.0
C136 C 0.97987 0.91266 0.23253 0.0
C137 C 0.0116 0.89785 0.18301 0.0
C138 C 0.97081 0.88091 0.21811 0.0
N139 N 0.98669 0.87424 0.19384 0.0
C140 C 0.12338 0.00891 0.22733 0.0
C141 C 0.08562 0.01197 0.1885 0.0
C142 C 0.15505 0.00829 0.21143 0.0
N143 N 0.08957 0.01096 0.21569 0.0
C144 C 0.1165 0.01171 0.17185 0.0
C145 C 0.15189 0.00987 0.18325 0.0
H146 H 0.12577 0.00758 0.24898 0.0
H147 H 0.05843 0.01314 0.1797 0.0
C148 C 0.9101 0.03668 0.22093 0.0
N149 N 0.93614 0.01084 0.21545 0.0
C150 C 0.87791 0.03854 0.20554 0.0
C151 C 0.89983 0.98702 0.17927 0.0
C152 C 0.93177 0.98652 0.19487 0.0
C153 C 0.87242 0.01326 0.18455 0.0
H154 H 0.91439 0.05581 0.23733 0.0
H155 H 0.95303 0.96682 0.19035 0.0
O156 O 0.05682 0.01088 0.27745 0.0
O157 O 0.97048 0.01437 0.27736 0.0
O158 O 0.01161 0.05441 0.23327 0.0
O159 O 0.01446 0.96888 0.23542 0.0
H160 H 0.05644 0.99259 0.32897 0.0
H161 H 0.10022 0.06867 0.271 0.0
H162 H 0.09023 0.02596 0.36492 0.0
H163 H 0.13312 0.10083 0.30796 0.0
H164 H 0.87094 0.93849 0.27858 0.0
H165 H 0.94455 0.03325 0.32517 0.0
H166 H 0.926 0.96412 0.25615 0.0
H167 H 0.88892 0.00661 0.34637 0.0
H168 H 0.00678 0.11279 0.35961 0.0
H169 H 0.02668 0.18064 0.28974 0.0
H170 H 0.04219 0.84936 0.29742 0.0
H171 H 0.9853 0.91035 0.35943 0.0
H172 H 0.98162 0.05419 0.18466 0.0
H173 H 0.07163 0.09579 0.23222 0.0
H174 H 0.00673 0.08722 0.14513 0.0
H175 H 0.09518 0.12806 0.19183 0.0
H176 H 0.04125 0.94853 0.18819 0.0
H177 H 0.96768 0.91747 0.25201 0.0
H178 H 0.02382 0.89175 0.16368 0.0
H179 H 0.95126 0.86148 0.22629 0.0
H180 H 0.18166 0.00615 0.22114 0.0
H181 H 0.11262 0.0134 0.15028 0.0
H182 H 0.8573 0.05909 0.21026 0.0
H183 H 0.8968 0.96743 0.16297 0.0
Li184 Li 0.98078 0.01599 0.77411 0.0
Li185 Li 0.04485 0.0105 0.77255 0.0
Li186 Li 0.01326 0.04814 0.73847 0.0
Li187 Li 0.00955 0.97681 0.73921 0.0
C188 C 1.00303 0.08281 0.79398 0.0
N189 N 0.9747 0.1361 0.82782 0.0
C190 C 1.00464 0.07813 0.82186 0.0
C191 C 0.98747 0.11484 0.78331 0.0
C192 C 0.99001 0.1053 0.83863 0.0
C193 C 0.97319 0.1414 0.80076 0.0
C194 C 0.02305 0.95018 0.79916 0.0
C195 C 0.05436 0.8964 0.81603 0.0
N196 N 0.05228 0.91034 0.8414 0.0
C197 C 0.02088 0.96379 0.8254 0.0
C198 C 0.03963 0.91608 0.79441 0.0
C199 C 0.03596 0.94331 0.84648 0.0
C200 C 0.92711 0.98591 0.80853 0.0
N201 N 0.93792 0.01789 0.79681 0.0
C202 C 0.88701 0.04978 0.81651 0.0
C203 C 0.91821 0.04938 0.80018 0.0
C204 C 0.87533 0.01723 0.82912 0.0
C205 C 0.8958 0.98492 0.82477 0.0
H206 H 0.94251 0.96093 0.80494 0.0
H207 H 0.92623 0.07417 0.78988 0.0
C208 C 0.09852 0.03959 0.80763 0.0
N209 N 0.08906 0.00873 0.79379 0.0
C210 C 0.13001 0.04003 0.82376 0.0
C211 C 0.14199 0.9771 0.81075 0.0
C212 C 0.11032 0.97794 0.79481 0.0
C213 C 0.15213 0.00839 0.82565 0.0
H214 H 0.0817 0.06401 0.80605 0.0
H215 H 0.10276 0.95395 0.78324 0.0
C216 C 0.93242 0.01445 0.73502 0.0
N217 N 0.85654 0.01346 0.73828 0.0
C218 C 0.91376 0.98103 0.73754 0.0
C219 C 0.91254 0.04736 0.73403 0.0
C220 C 0.87537 0.98112 0.73921 0.0
C221 C 0.87417 0.04628 0.73572 0.0
C222 C 0.08939 1.00421 0.73087 0.0
C223 C 0.11353 0.03384 0.73394 0.0
C224 C 0.10343 0.96885 0.72669 0.0
C225 C 0.15145 0.02753 0.733 0.0
C226 C 0.14152 0.96369 0.72581 0.0
N227 N 0.16454 0.99288 0.729 0.0
C228 C 0.04081 0.11603 0.71935 0.0
C229 C 0.98967 0.09228 0.69525 0.0
C230 C 0.04176 0.14704 0.70279 0.0
N231 N 0.01494 0.08956 0.71534 0.0
C232 C 0.98929 0.12303 0.67846 0.0
C233 C 0.01555 0.15092 0.68218 0.0
H234 H 0.06033 0.11328 0.73567 0.0
H235 H 0.96967 0.07061 0.69236 0.0
C236 C 0.9915 0.90284 0.72682 0.0
N237 N 0.00582 0.93462 0.717 0.0
C238 C 0.98967 0.87151 0.71055 0.0
C239 C 0.01676 0.9065 0.67431 0.0
C240 C 0.01809 0.93711 0.69128 0.0
C241 C 1.0026 0.87302 0.68392 0.0
H242 H 0.98174 0.90179 0.74735 0.0
H243 H 0.02914 0.96288 0.68402 0.0
O244 O 0.01757 0.0567 0.77723 0.0
O245 O 0.00858 0.96992 0.77826 0.0
O246 O 0.97002 0.01496 0.73419 0.0
O247 O 0.05221 0.00968 0.73229 0.0
H248 H 0.01717 0.05386 0.83047 0.0
H249 H 0.98593 0.11897 0.76181 0.0
H250 H 0.99092 0.10196 0.86024 0.0
H251 H 0.96082 0.16619 0.79279 0.0
H252 H 0.06755 0.87011 0.81264 0.0
H253 H 0.00766 0.98985 0.82943 0.0
H254 H 0.04163 0.90518 0.7742 0.0
H255 H 0.03463 0.9536 0.86688 0.0
H256 H 0.87238 0.07546 0.81928 0.0
H257 H 0.88745 0.95893 0.83344 0.0
H258 H 0.13714 0.06505 0.83439 0.0
H259 H 0.15803 0.95201 0.81167 0.0
H260 H 0.9288 0.95536 0.73853 0.0
H261 H 0.92662 0.0735 0.73246 0.0
H262 H 0.86056 0.95548 0.74132 0.0
H263 H 0.85842 0.07154 0.73517 0.0
H264 H 0.10309 0.06132 0.73735 0.0
H265 H 0.08513 0.94556 0.72451 0.0
H266 H 0.17046 0.05016 0.73553 0.0
H267 H 0.15279 0.93645 0.72274 0.0
H268 H 0.06221 0.16815 0.70643 0.0
H269 H 0.96888 0.12488 0.6626 0.0
H270 H 0.97887 0.84624 0.71891 0.0
H271 H 0.02649 0.90914 0.65382 0.0
H272 H 0.37468 0.99653 0.12018 0.0
H273 H 0.30759 0.01818 0.05015 0.0
H274 H 0.31972 0.99711 0.14839 0.0
H275 H 0.2526 0.01931 0.07846 0.0
H276 H 0.16123 0.97519 0.13466 0.0
H277 H 0.21572 0.97502 0.10611 0.0
H278 H 0.27287 0.0428 0.16402 0.0
H279 H 0.21819 0.04377 0.19237 0.0
C280 C 0.34815 1.00127 0.11082 0.0
C281 C 0.3454 0.00723 0.08295 0.0
C282 C 0.31675 1.00195 0.12699 0.0
C283 C 0.28188 0.0083 0.11563 0.0
C284 C 0.27909 0.01407 0.08774 0.0
C285 C 0.31056 0.01373 0.07158 0.0
C286 C 0.18521 0.99047 0.1412 0.0
C287 C 0.18523 0.00951 0.16587 0.0
C288 C 0.21646 0.99028 0.12483 0.0
C289 C 0.24855 0.00886 0.13285 0.0
C290 C 0.24868 0.02782 0.15749 0.0
C291 C 0.21735 0.02826 0.17377 0.0
H292 H 0.0434 0.31241 0.55474 0.0
H293 H 0.98182 0.3692 0.61656 0.0
H294 H 0.04507 0.25736 0.58277 0.0
H295 H 0.98243 0.31367 0.64395 0.0
H296 H 0.95653 0.1936 0.66889 0.0
H297 H 0.95577 0.24865 0.64065 0.0
H298 H 0.07293 0.23823 0.62831 0.0
H299 H 0.07371 0.18311 0.65661 0.0
C300 C 0.0304 0.31333 0.57431 0.0
C301 C 0.01244 0.3454 0.5833 0.0
C302 C 0.03127 0.28171 0.5903 0.0
C303 C 0.0138 0.28127 0.61547 0.0
C304 C 0.99572 0.31313 0.62446 0.0
C305 C 0.99525 0.34489 0.60866 0.0
C306 C 0.98207 0.203 0.66003 0.0
C307 C 0.01518 0.18413 0.6649 0.0
C308 C 0.98167 0.2346 0.64405 0.0
C309 C 0.0143 0.24766 0.63233 0.0
C310 C 0.04736 0.2286 0.63698 0.0
C311 C 0.04785 0.19728 0.65329 0.0
H312 H 0.65225 0.9847 0.11952 0.0
H313 H 0.711 0.04416 0.05771 0.0
H314 H 0.70733 0.98501 0.14755 0.0
H315 H 0.76554 0.04567 0.08643 0.0
H316 H 0.84032 0.07268 0.16041 0.0
H317 H 0.78461 0.07352 0.13252 0.0
H318 H 0.77215 0.95648 0.14401 0.0
H319 H 0.82785 0.9556 0.17173 0.0
C320 C 0.67687 0.99766 0.11178 0.0
C321 C 0.67708 0.01421 0.08618 0.0
C322 C 0.70834 0.99799 0.12796 0.0
C323 C 0.74062 0.01535 0.11913 0.0
C324 C 0.74084 0.03243 0.09381 0.0
C325 C 0.70951 0.03165 0.07743 0.0
C326 C 0.82551 0.04723 0.15705 0.0
C327 C 0.83833 0.01407 0.16817 0.0
C328 C 0.79387 0.04766 0.14098 0.0
C329 C 0.77415 0.01506 0.13614 0.0
C330 C 0.78673 0.98202 0.14756 0.0
C331 C 0.81866 0.98148 0.16325 0.0
H332 H 0.02211 0.71548 0.55241 0.0
H333 H 0.97971 0.65184 0.61884 0.0
H334 H 0.02141 0.77059 0.58044 0.0
H335 H 0.97882 0.70699 0.64679 0.0
H336 H 0.94819 0.82103 0.6798 0.0
H337 H 0.9472 0.76642 0.65121 0.0
H338 H 0.05402 0.79538 0.61968 0.0
H339 H 0.05517 0.84977 0.64834 0.0
C340 C 0.01283 0.71319 0.57303 0.0
C341 C 1.00103 0.6792 0.58338 0.0
C342 C 0.01241 0.74478 0.58909 0.0
C343 C 1.00012 0.74317 0.61586 0.0
C344 C 0.98796 0.70928 0.62613 0.0
C345 C 0.98845 0.67767 0.61009 0.0
C346 C 0.9716 0.8156 0.66693 0.0
C347 C 1.00174 0.83984 0.66636 0.0
C348 C 0.97101 0.78431 0.65053 0.0
C349 C 1.0005 0.77659 0.63314 0.0
C350 C 0.03059 0.80086 0.63252 0.0
C351 C 0.03122 0.83207 0.64896 0.0
H352 H 0.33275 0.06634 0.93264 0.0
H353 H 0.3511 0.95144 0.91481 0.0
H354 H 0.27783 0.0658 0.90429 0.0
H355 H 0.29562 0.95066 0.887 0.0
H356 H 0.21919 0.97675 0.81525 0.0
H357 H 0.27381 0.97645 0.84385 0.0
H358 H 0.2154 0.03934 0.90394 0.0
H359 H 0.16064 0.03931 0.87555 0.0
C360 C 0.32505 0.04098 0.92264 0.0
C361 C 0.3463 0.00895 0.92592 0.0
C362 C 0.2934 0.04057 0.90662 0.0
C363 C 0.28237 0.00818 0.89341 0.0
C364 C 0.30358 0.97613 0.89672 0.0
C365 C 0.33514 0.97648 0.91287 0.0
C366 C 0.21784 0.99017 0.83468 0.0
C367 C 0.18549 0.0081 0.84306 0.0
C368 C 0.24917 0.99002 0.85106 0.0
C369 C 0.24894 0.00792 0.87614 0.0
C370 C 0.21662 0.02578 0.88455 0.0
C371 C 0.18525 0.0258 0.86824 0.0
H372 H 0.03569 0.37386 0.39039 0.0
H373 H 0.00632 0.30849 0.45956 0.0
H374 H 0.03534 0.31877 0.36239 0.0
H375 H 0.00654 0.2532 0.4317 0.0
H376 H 0.97048 0.16935 0.36823 0.0
H377 H 0.97196 0.22412 0.39656 0.0
H378 H 0.06802 0.26269 0.35389 0.0
H379 H 0.06608 0.20815 0.32531 0.0
C380 C 0.02961 0.34761 0.39967 0.0
C381 C 0.02099 0.34552 0.42717 0.0
C382 C 0.02946 0.31599 0.38363 0.0
C383 C 0.02088 0.28147 0.39475 0.0
C384 C 0.01264 0.27938 0.42235 0.0
C385 C 0.01259 0.31105 0.43835 0.0
C386 C 0.99205 0.18943 0.36505 0.0
C387 C 0.01812 0.18446 0.34451 0.0
C388 C 0.99297 0.2208 0.38132 0.0
C389 C 0.02013 0.24788 0.37756 0.0
C390 C 0.04634 0.24274 0.35709 0.0
C391 C 0.04528 0.21146 0.34071 0.0
H392 H 0.68615 0.07542 0.92753 0.0
H393 H 0.68548 0.95644 0.92567 0.0
H394 H 0.74102 0.07568 0.89934 0.0
H395 H 0.74113 0.95696 0.89835 0.0
H396 H 0.8635 0.97759 0.87533 0.0
H397 H 0.80854 0.97685 0.90343 0.0
H398 H 0.75687 0.05626 0.85109 0.0
H399 H 0.81109 0.05613 0.82231 0.0
C400 C 0.6975 0.04932 0.92106 0.0
C401 C 0.68117 0.0159 0.9289 0.0
C402 C 0.72904 0.04953 0.905 0.0
C403 C 0.74528 0.01635 0.89669 0.0
C404 C 0.72938 0.98295 0.90474 0.0
C405 C 0.69757 0.98271 0.92051 0.0
C406 C 0.84029 0.99453 0.86952 0.0
C407 C 0.84189 0.01693 0.84646 0.0
C408 C 0.80888 0.99419 0.88573 0.0
C409 C 0.77855 0.01658 0.87947 0.0
C410 C 0.78009 0.0391 0.85657 0.0
C411 C 0.81128 0.0391 0.84016 0.0
H412 H 0.95894 0.67058 0.41172 0.0
H413 H 0.06661 0.69889 0.44226 0.0
H414 H 0.95865 0.72645 0.38436 0.0
H415 H 0.0664 0.75471 0.41477 0.0
H416 H 0.0314 0.87007 0.38392 0.0
H417 H 0.03096 0.81495 0.41216 0.0
H418 H 0.99436 0.75027 0.3443 0.0
H419 H 0.99459 0.80535 0.31613 0.0
C420 C 0.98244 0.68887 0.41267 0.0
C421 C 0.01281 0.68042 0.42909 0.0
C422 C 0.98239 0.72066 0.39688 0.0
C423 C 0.01252 0.74487 0.39743 0.0
C424 C 0.04271 0.73666 0.4141 0.0
C425 C 0.04295 0.70462 0.42964 0.0
C426 C 0.02309 0.84409 0.37512 0.0
C427 C 0.01305 0.84196 0.34785 0.0
C428 C 0.02311 0.81255 0.3912 0.0
C429 C 0.01261 0.77836 0.38041 0.0
C430 C 1.0023 0.77631 0.3532 0.0
C431 C 1.00273 0.80774 0.33704 0.0
loop_
_geom_bond_atom_site_label_1
_geom_bond_atom_site_label_2
_geom_bond_distance
_geom_bond_site_symmetry_2
_ccdc_geom_bond_type
H0 C19 0.949 . S
H1 C20 0.950 . S
H2 C22 0.950 . S
H3 C23 0.950 . S
H4 C25 0.945 1_565 S
H5 C28 0.950 . S
H6 C29 0.950 . S
H7 C31 0.951 . S
H8 C32 0.949 . S
H9 C34 0.949 . S
H10 C35 0.950 . S
H11 C37 0.950 . S
H12 C38 0.950 . S
H13 C40 0.950 . S
H14 C43 0.950 . S
H15 C44 0.950 . S
H16 C46 0.951 . S
H17 C47 0.949 . S
C18 C19 1.376 1_545 S
C18 C23 1.386 . S
C18 C24 1.483 . S
C19 H0 0.949 . S
C19 C18 1.376 1_565 S
C19 C20 1.397 . S
C20 H1 0.950 . S
C20 C19 1.397 . S
C20 C21 1.391 1_565 S
C21 C20 1.391 1_545 S
C21 C22 1.405 . S
C22 H2 0.950 . S
C22 C21 1.405 . S
C22 C23 1.367 . S
C23 H3 0.950 . S
C23 C18 1.386 . S
C23 C22 1.367 . S
C24 C18 1.483 . S
C24 C25 1.385 . S
C24 C26 1.403 1_554 S
C25 H4 0.945 1_545 S
C25 C24 1.385 . S
C25 C41 1.414 . S
C26 C24 1.403 1_556 S
C26 C27 1.489 . S
C26 C40 1.411 . S
C27 C26 1.489 . S
C27 C28 1.383 1_545 S
C27 C32 1.382 . S
C28 H5 0.950 . S
C28 C27 1.383 1_565 S
C28 C29 1.395 . S
C29 H6 0.950 . S
C29 C28 1.395 . S
C29 C30 1.288 1_565 S
C30 C29 1.288 1_545 S
C30 C31 1.392 . S
C31 H7 0.951 . S
C31 C30 1.392 . S
C31 C32 1.392 . S
C32 H8 0.949 . S
C32 C27 1.382 . S
C32 C31 1.392 . S
C33 C34 1.376 . S
C33 C38 1.386 1_545 S
C33 C39 1.483 . S
C34 H9 0.949 . S
C34 C33 1.376 . S
C34 C35 1.397 . S
C35 H10 0.950 . S
C35 C34 1.397 . S
C35 C36 1.391 . S
C36 C35 1.391 . S
C36 C37 1.405 1_545 S
C37 H11 0.950 . S
C37 C36 1.405 1_565 S
C37 C38 1.367 . S
C38 H12 0.950 . S
C38 C33 1.386 1_565 S
C38 C37 1.367 . S
C39 C33 1.483 . S
C39 C40 1.382 . S
C39 C41 1.403 1_556 S
C40 H13 0.950 . S
C40 C26 1.411 . S
C40 C39 1.382 . S
C41 C25 1.414 . S
C41 C39 1.403 1_554 S
C41 C42 1.489 . S
C42 C41 1.489 . S
C42 C43 1.383 . S
C42 C47 1.382 1_545 S
C43 H14 0.950 . S
C43 C42 1.383 . S
C43 C44 1.395 . S
C44 H15 0.950 . S
C44 C43 1.395 . S
C44 C45 1.288 . S
C45 C44 1.288 . S
C45 C46 1.392 1_545 S
C46 H16 0.951 . S
C46 C45 1.392 1_565 S
C46 C47 1.392 . S
C47 H17 0.949 . S
C47 C42 1.382 1_565 S
C47 C46 1.392 . S
H48 C67 0.949 . S
H49 C68 0.950 . S
H50 C70 0.950 . S
H51 C71 0.950 . S
H52 C73 0.950 . S
H53 C76 0.950 . S
H54 C77 0.950 . S
H55 C79 0.951 . S
H56 C80 0.949 . S
H57 C82 0.949 . S
H58 C83 0.950 . S
H59 C85 0.950 . S
H60 C86 0.950 . S
H61 C88 0.945 1_655 S
H62 C91 0.950 . S
H63 C92 0.950 . S
H64 C94 0.951 . S
H65 C95 0.949 . S
C66 C67 1.376 . S
C66 C71 1.386 1_455 S
C66 C72 1.483 . S
C67 H48 0.949 . S
C67 C66 1.376 . S
C67 C68 1.397 . S
C68 H49 0.950 . S
C68 C67 1.397 . S
C68 C69 1.391 . S
C69 C68 1.391 . S
C69 C70 1.405 1_455 S
C70 H50 0.950 . S
C70 C69 1.405 1_655 S
C70 C71 1.367 . S
C71 H51 0.950 . S
C71 C66 1.386 1_655 S
C71 C70 1.367 . S
C72 C66 1.483 . S
C72 C73 1.382 . S
C72 C74 1.403 . S
C73 H52 0.950 . S
C73 C72 1.382 . S
C73 C89 1.411 . S
C74 C72 1.403 . S
C74 C75 1.489 . S
C74 C88 1.414 . S
C75 C74 1.489 . S
C75 C76 1.383 . S
C75 C80 1.382 1_455 S
C76 H53 0.950 . S
C76 C75 1.383 . S
C76 C77 1.395 . S
C77 H54 0.950 . S
C77 C76 1.395 . S
C77 C78 1.288 . S
C78 C77 1.288 . S
C78 C79 1.392 1_455 S
C79 H55 0.951 . S
C79 C78 1.392 1_655 S
C79 C80 1.392 . S
C80 H56 0.949 . S
C80 C75 1.382 1_655 S
C80 C79 1.392 . S
C81 C82 1.376 1_455 S
C81 C86 1.386 . S
C81 C87 1.483 . S
C82 H57 0.949 . S
C82 C81 1.376 1_655 S
C82 C83 1.397 . S
C83 H58 0.950 . S
C83 C82 1.397 . S
C83 C84 1.391 1_655 S
C84 C83 1.391 1_455 S
C84 C85 1.405 . S
C85 H59 0.950 . S
C85 C84 1.405 . S
C85 C86 1.367 . S
C86 H60 0.950 . S
C86 C81 1.386 . S
C86 C85 1.367 . S
C87 C81 1.483 . S
C87 C88 1.385 . S
C87 C89 1.403 . S
C88 H61 0.945 1_455 S
C88 C74 1.414 . S
C88 C87 1.385 . S
C89 C73 1.411 . S
C89 C87 1.403 . S
C89 C90 1.489 . S
C90 C89 1.489 . S
C90 C91 1.383 1_455 S
C90 C95 1.382 . S
C91 H62 0.950 . S
C91 C90 1.383 1_655 S
C91 C92 1.395 . S
C92 H63 0.950 . S
C92 C91 1.395 . S
C92 C93 1.288 1_655 S
C93 C92 1.288 1_455 S
C93 C94 1.392 . S
C94 H64 0.951 . S
C94 C93 1.392 . S
C94 C95 1.392 . S
C95 H65 0.949 . S
C95 C90 1.382 . S
C95 C94 1.392 . S
Li96 N113 1.990 . S
Li96 O156 1.956 . S
Li96 O157 1.970 1_455 S
Li96 O158 1.961 . S
Li97 N121 1.990 . S
Li97 O156 1.970 1_565 S
Li97 O157 1.956 1_465 S
Li97 O159 1.961 . S
Li98 N143 1.990 . S
Li98 O156 1.961 . S
Li98 O158 1.956 . S
Li98 O159 1.970 1_545 S
Li99 N149 1.990 . S
Li99 O157 1.961 . S
Li99 O158 1.970 1_655 S
Li99 O159 1.956 1_645 S
C100 C102 1.348 1_545 S
C100 C103 1.356 . S
C100 O156 1.325 . S
N101 C104 1.314 1_545 S
N101 C105 1.279 . S
C102 C100 1.348 1_565 S
C102 C104 1.353 . S
C102 H160 0.929 . S
C103 C100 1.356 . S
C103 C105 1.358 . S
C103 H161 0.930 . S
C104 N101 1.314 1_565 S
C104 C102 1.353 . S
C104 H162 0.930 . S
C105 N101 1.279 . S
C105 C103 1.358 . S
C105 H163 0.930 . S
C106 C109 1.348 . S
C106 C110 1.356 1_545 S
C106 O157 1.325 . S
C107 N108 1.279 1_565 S
C107 C110 1.358 . S
C107 H164 0.930 . S
N108 C107 1.279 1_545 S
N108 C111 1.314 . S
C109 C106 1.348 . S
C109 C111 1.353 . S
C109 H165 0.929 . S
C110 C106 1.356 1_565 S
C110 C107 1.358 . S
C110 H166 0.930 . S
C111 N108 1.314 . S
C111 C109 1.353 . S
C111 H167 0.930 . S
C112 N113 1.314 1_655 S
C112 C117 1.353 . S
C112 H118 0.930 . S
N113 Li96 1.990 . S
N113 C112 1.314 1_455 S
N113 C115 1.279 . S
C114 C115 1.358 . S
C114 C116 1.356 . S
C114 H168 0.930 . S
C115 N113 1.279 . S
C115 C114 1.358 . S
C115 H119 0.930 . S
C116 C114 1.356 . S
C116 C117 1.348 1_455 S
C117 C112 1.353 . S
C117 C116 1.348 1_655 S
C117 H169 0.929 . S
H118 C112 0.930 . S
H119 C115 0.930 . S
C120 N121 1.314 . S
C120 C122 1.353 . S
C120 H126 0.930 . S
N121 Li97 1.990 . S
N121 C120 1.314 . S
N121 C124 1.279 1_455 S
C122 C120 1.353 . S
C122 C125 1.348 . S
C122 H170 0.929 . S
C123 C124 1.358 . S
C123 C125 1.356 1_655 S
C123 H171 0.930 . S
C124 N121 1.279 1_655 S
C124 C123 1.358 . S
C124 H127 0.930 . S
C125 C122 1.348 . S
C125 C123 1.356 1_455 S
H126 C120 0.930 . S
H127 C124 0.930 . S
C128 C130 1.348 1_455 S
C128 C131 1.356 . S
C128 O158 1.325 . S
N129 C132 1.314 1_455 S
N129 C133 1.279 . S
C130 C128 1.348 1_655 S
C130 C132 1.353 . S
C130 H172 0.929 . S
C131 C128 1.356 . S
C131 C133 1.358 . S
C131 H173 0.930 . S
C132 N129 1.314 1_655 S
C132 C130 1.353 . S
C132 H174 0.930 . S
C133 N129 1.279 . S
C133 C131 1.358 . S
C133 H175 0.930 . S
C134 C135 1.348 . S
C134 C136 1.356 1_455 S
C134 O159 1.325 . S
C135 C134 1.348 . S
C135 C137 1.353 . S
C135 H176 0.929 . S
C136 C134 1.356 1_655 S
C136 C138 1.358 . S
C136 H177 0.930 . S
C137 C135 1.353 . S
C137 N139 1.314 . S
C137 H178 0.930 . S
C138 C136 1.358 . S
C138 N139 1.279 1_655 S
C138 H179 0.930 . S
N139 C137 1.314 . S
N139 C138 1.279 1_455 S
C140 C142 1.353 . S
C140 N143 1.314 1_565 S
C140 H146 0.930 . S
C141 N143 1.279 . S
C141 C144 1.358 . S
C141 H147 0.930 . S
C142 C140 1.353 . S
C142 C145 1.348 1_565 S
C142 H180 0.929 . S
N143 Li98 1.990 . S
N143 C140 1.314 1_545 S
N143 C141 1.279 . S
C144 C141 1.358 . S
C144 C145 1.356 . S
C144 H181 0.930 . S
C145 C142 1.348 1_545 S
C145 C144 1.356 . S
H146 C140 0.930 . S
H147 C141 0.930 . S
C148 N149 1.314 . S
C148 C150 1.353 . S
C148 H154 0.930 . S
N149 Li99 1.990 . S
N149 C148 1.314 . S
N149 C152 1.279 1_545 S
C150 C148 1.353 . S
C150 C153 1.348 . S
C150 H182 0.929 . S
C151 C152 1.358 . S
C151 C153 1.356 1_565 S
C151 H183 0.930 . S
C152 N149 1.279 1_565 S
C152 C151 1.358 . S
C152 H155 0.930 . S
C153 C150 1.348 . S
C153 C151 1.356 1_545 S
H154 C148 0.930 . S
H155 C152 0.930 . S
O156 Li96 1.956 . S
O156 Li97 1.970 1_545 S
O156 Li98 1.961 . S
O156 C100 1.325 . S
O157 Li96 1.970 1_655 S
O157 Li97 1.956 1_645 S
O157 Li99 1.961 . S
O157 C106 1.325 . S
O158 Li96 1.961 . S
O158 Li98 1.956 . S
O158 Li99 1.970 1_455 S
O158 C128 1.325 . S
O159 Li97 1.961 . S
O159 Li98 1.970 1_565 S
O159 Li99 1.956 1_465 S
O159 C134 1.325 . S
H160 C102 0.929 . S
H161 C103 0.930 . S
H162 C104 0.930 . S
H163 C105 0.930 . S
H164 C107 0.930 . S
H165 C109 0.929 . S
H166 C110 0.930 . S
H167 C111 0.930 . S
H168 C114 0.930 . S
H169 C117 0.929 . S
H170 C122 0.929 . S
H171 C123 0.930 . S
H172 C130 0.929 . S
H173 C131 0.930 . S
H174 C132 0.930 . S
H175 C133 0.930 . S
H176 C135 0.929 . S
H177 C136 0.930 . S
H178 C137 0.930 . S
H179 C138 0.930 . S
H180 C142 0.929 . S
H181 C144 0.930 . S
H182 C150 0.929 . S
H183 C151 0.930 . S
Li184 N201 1.990 . S
Li184 O244 1.956 1_655 S
Li184 O245 1.970 1_645 S
Li184 O246 1.961 . S
Li185 N209 1.990 . S
Li185 O244 1.970 . S
Li185 O245 1.956 1_545 S
Li185 O247 1.961 . S
Li186 N231 1.990 . S
Li186 O244 1.961 . S
Li186 O246 1.956 1_455 S
Li186 O247 1.970 . S
Li187 N237 1.990 . S
Li187 O245 1.961 . S
Li187 O246 1.970 1_465 S
Li187 O247 1.956 1_565 S
C188 C190 1.348 . S
C188 C191 1.356 1_455 S
C188 O244 1.325 . S
N189 C192 1.314 . S
N189 C193 1.279 1_455 S
C190 C188 1.348 . S
C190 C192 1.353 . S
C190 H248 0.929 . S
C191 C188 1.356 1_655 S
C191 C193 1.358 . S
C191 H249 0.930 . S
C192 N189 1.314 . S
C192 C190 1.353 . S
C192 H250 0.930 . S
C193 N189 1.279 1_655 S
C193 C191 1.358 . S
C193 H251 0.930 . S
C194 C197 1.348 1_455 S
C194 C198 1.356 . S
C194 O245 1.325 . S
C195 N196 1.279 . S
C195 C198 1.358 . S
C195 H252 0.930 . S
N196 C195 1.279 . S
N196 C199 1.314 1_455 S
C197 C194 1.348 1_655 S
C197 C199 1.353 . S
C197 H253 0.929 . S
C198 C194 1.356 . S
C198 C195 1.358 . S
C198 H254 0.930 . S
C199 N196 1.314 1_655 S
C199 C197 1.353 . S
C199 H255 0.930 . S
C200 N201 1.314 1_565 S
C200 C205 1.353 . S
C200 H206 0.930 . S
N201 Li184 1.990 . S
N201 C200 1.314 1_545 S
N201 C203 1.279 . S
C202 C203 1.358 . S
C202 C204 1.356 . S
C202 H256 0.930 . S
C203 N201 1.279 . S
C203 C202 1.358 . S
C203 H207 0.930 . S
C204 C202 1.356 . S
C204 C205 1.348 1_545 S
C205 C200 1.353 . S
C205 C204 1.348 1_565 S
C205 H257 0.929 . S
H206 C200 0.930 . S
H207 C203 0.930 . S
C208 N209 1.314 . S
C208 C210 1.353 . S
C208 H214 0.930 . S
N209 Li185 1.990 . S
N209 C208 1.314 . S
N209 C212 1.279 1_545 S
C210 C208 1.353 . S
C210 C213 1.348 . S
C210 H258 0.929 . S
C211 C212 1.358 . S
C211 C213 1.356 1_565 S
C211 H259 0.930 . S
C212 N209 1.279 1_565 S
C212 C211 1.358 . S
C212 H215 0.930 . S
C213 C210 1.348 . S
C213 C211 1.356 1_545 S
H214 C208 0.930 . S
H215 C212 0.930 . S
C216 C218 1.348 1_545 S
C216 C219 1.356 . S
C216 O246 1.325 . S
N217 C220 1.314 1_545 S
N217 C221 1.279 . S
C218 C216 1.348 1_565 S
C218 C220 1.353 . S
C218 H260 0.929 . S
C219 C216 1.356 . S
C219 C221 1.358 . S
C219 H261 0.930 . S
C220 N217 1.314 1_565 S
C220 C218 1.353 . S
C220 H262 0.930 . S
C221 N217 1.279 . S
C221 C219 1.358 . S
C221 H263 0.930 . S
C222 C223 1.348 . S
C222 C224 1.356 1_545 S
C222 O247 1.325 . S
C223 C222 1.348 . S
C223 C225 1.353 . S
C223 H264 0.929 . S
C224 C222 1.356 1_565 S
C224 C226 1.358 . S
C224 H265 0.930 . S
C225 C223 1.353 . S
C225 N227 1.314 . S
C225 H266 0.930 . S
C226 C224 1.358 . S
C226 N227 1.279 1_565 S
C226 H267 0.930 . S
N227 C225 1.314 . S
N227 C226 1.279 1_545 S
C228 C230 1.353 . S
C228 N231 1.314 . S
C228 H234 0.930 . S
C229 N231 1.279 1_655 S
C229 C232 1.358 . S
C229 H235 0.930 . S
C230 C228 1.353 . S
C230 C233 1.348 . S
C230 H268 0.929 . S
N231 Li186 1.990 . S
N231 C228 1.314 . S
N231 C229 1.279 1_455 S
C232 C229 1.358 . S
C232 C233 1.356 1_655 S
C232 H269 0.930 . S
C233 C230 1.348 . S
C233 C232 1.356 1_455 S
H234 C228 0.930 . S
H235 C229 0.930 . S
C236 N237 1.314 1_655 S
C236 C238 1.353 . S
C236 H242 0.930 . S
N237 Li187 1.990 . S
N237 C236 1.314 1_455 S
N237 C240 1.279 . S
C238 C236 1.353 . S
C238 C241 1.348 1_655 S
C238 H270 0.929 . S
C239 C240 1.358 . S
C239 C241 1.356 . S
C239 H271 0.930 . S
C240 N237 1.279 . S
C240 C239 1.358 . S
C240 H243 0.930 . S
C241 C238 1.348 1_455 S
C241 C239 1.356 . S
H242 C236 0.930 . S
H243 C240 0.930 . S
O244 Li184 1.956 1_455 S
O244 Li185 1.970 . S
O244 Li186 1.961 . S
O244 C188 1.325 . S
O245 Li184 1.970 1_465 S
O245 Li185 1.956 1_565 S
O245 Li187 1.961 . S
O245 C194 1.325 . S
O246 Li184 1.961 . S
O246 Li186 1.956 1_655 S
O246 Li187 1.970 1_645 S
O246 C216 1.325 . S
O247 Li185 1.961 . S
O247 Li186 1.970 . S
O247 Li187 1.956 1_545 S
O247 C222 1.325 . S
H248 C190 0.929 . S
H249 C191 0.930 . S
H250 C192 0.930 . S
H251 C193 0.930 . S
H252 C195 0.930 . S
H253 C197 0.929 . S
H254 C198 0.930 . S
H255 C199 0.930 . S
H256 C202 0.930 . S
H257 C205 0.929 . S
H258 C210 0.929 . S
H259 C211 0.930 . S
H260 C218 0.929 . S
H261 C219 0.930 . S
H262 C220 0.930 . S
H263 C221 0.930 . S
H264 C223 0.929 . S
H265 C224 0.930 . S
H266 C225 0.930 . S
H267 C226 0.930 . S
H268 C230 0.929 . S
H269 C232 0.930 . S
H270 C238 0.929 . S
H271 C239 0.930 . S
H272 C280 0.950 . S
H273 C285 0.950 . S
H274 C282 0.950 . S
H275 C284 0.950 . S
H276 C286 0.950 . S
H277 C288 0.950 . S
H278 C290 0.950 . S
H279 C291 0.950 . S
C280 H272 0.950 . S
C280 C281 1.386 1_565 S
C280 C282 1.391 . S
C281 C280 1.386 1_545 S
C281 C285 1.393 . S
C282 H274 0.950 . S
C282 C280 1.391 . S
C282 C283 1.400 1_565 S
C283 C282 1.400 1_545 S
C283 C284 1.398 . S
C283 C289 1.491 . S
C284 H275 0.950 . S
C284 C283 1.398 . S
C284 C285 1.391 . S
C285 H273 0.950 . S
C285 C281 1.393 . S
C285 C284 1.391 . S
C286 H276 0.950 . S
C286 C287 1.386 . S
C286 C288 1.391 . S
C287 C286 1.386 . S
C287 C291 1.393 1_545 S
C288 H277 0.950 . S
C288 C286 1.391 . S
C288 C289 1.400 . S
C289 C283 1.491 . S
C289 C288 1.400 . S
C289 C290 1.398 1_545 S
C290 H278 0.950 . S
C290 C289 1.398 1_565 S
C290 C291 1.391 . S
C291 H279 0.950 . S
C291 C287 1.393 1_565 S
C291 C290 1.391 . S
H292 C300 0.950 . S
H293 C305 0.950 . S
H294 C302 0.950 . S
H295 C304 0.950 . S
H296 C306 0.950 . S
H297 C308 0.950 . S
H298 C310 0.950 . S
H299 C311 0.950 . S
C300 H292 0.950 . S
C300 C301 1.386 . S
C300 C302 1.391 . S
C301 C300 1.386 . S
C301 C305 1.393 1_455 S
C302 H294 0.950 . S
C302 C300 1.391 . S
C302 C303 1.400 . S
C303 C302 1.400 . S
C303 C304 1.398 1_455 S
C303 C309 1.491 . S
C304 H295 0.950 . S
C304 C303 1.398 1_655 S
C304 C305 1.391 . S
C305 H293 0.950 . S
C305 C301 1.393 1_655 S
C305 C304 1.391 . S
C306 H296 0.950 . S
C306 C307 1.386 1_655 S
C306 C308 1.391 . S
C307 C306 1.386 1_455 S
C307 C311 1.393 . S
C308 H297 0.950 . S
C308 C306 1.391 . S
C308 C309 1.400 1_655 S
C309 C303 1.491 . S
C309 C308 1.400 1_455 S
C309 C310 1.398 . S
C310 H298 0.950 . S
C310 C309 1.398 . S
C310 C311 1.391 . S
C311 H299 0.950 . S
C311 C307 1.393 . S
C311 C310 1.391 . S
H312 C320 0.950 . S
H313 C325 0.950 . S
H314 C322 0.950 . S
H315 C324 0.950 . S
H316 C326 0.950 . S
H317 C328 0.950 . S
H318 C330 0.950 . S
H319 C331 0.950 . S
C320 H312 0.950 . S
C320 C321 1.386 1_565 S
C320 C322 1.391 . S
C321 C320 1.386 1_545 S
C321 C325 1.393 . S
C322 H314 0.950 . S
C322 C320 1.391 . S
C322 C323 1.400 1_565 S
C323 C322 1.400 1_545 S
C323 C324 1.398 . S
C323 C329 1.491 . S
C324 H315 0.950 . S
C324 C323 1.398 . S
C324 C325 1.391 . S
C325 H313 0.950 . S
C325 C321 1.393 . S
C325 C324 1.391 . S
C326 H316 0.950 . S
C326 C327 1.386 . S
C326 C328 1.391 . S
C327 C326 1.386 . S
C327 C331 1.393 1_545 S
C328 H317 0.950 . S
C328 C326 1.391 . S
C328 C329 1.400 . S
C329 C323 1.491 . S
C329 C328 1.400 . S
C329 C330 1.398 1_545 S
C330 H318 0.950 . S
C330 C329 1.398 1_565 S
C330 C331 1.391 . S
C331 H319 0.950 . S
C331 C327 1.393 1_565 S
C331 C330 1.391 . S
H332 C340 0.950 . S
H333 C345 0.950 . S
H334 C342 0.950 . S
H335 C344 0.950 . S
H336 C346 0.950 . S
H337 C348 0.950 . S
H338 C350 0.950 . S
H339 C351 0.950 . S
C340 H332 0.950 . S
C340 C341 1.386 . S
C340 C342 1.391 . S
C341 C340 1.386 . S
C341 C345 1.393 1_455 S
C342 H334 0.950 . S
C342 C340 1.391 . S
C342 C343 1.400 . S
C343 C342 1.400 . S
C343 C344 1.398 1_455 S
C343 C349 1.491 . S
C344 H335 0.950 . S
C344 C343 1.398 1_655 S
C344 C345 1.391 . S
C345 H333 0.950 . S
C345 C341 1.393 1_655 S
C345 C344 1.391 . S
C346 H336 0.950 . S
C346 C347 1.386 1_655 S
C346 C348 1.391 . S
C347 C346 1.386 1_455 S
C347 C351 1.393 . S
C348 H337 0.950 . S
C348 C346 1.391 . S
C348 C349 1.400 1_655 S
C349 C343 1.491 . S
C349 C348 1.400 1_455 S
C349 C350 1.398 . S
C350 H338 0.950 . S
C350 C349 1.398 . S
C350 C351 1.391 . S
C351 H339 0.950 . S
C351 C347 1.393 . S
C351 C350 1.391 . S
H352 C360 0.950 . S
H353 C365 0.950 . S
H354 C362 0.950 . S
H355 C364 0.950 . S
H356 C366 0.950 . S
H357 C368 0.950 . S
H358 C370 0.950 . S
H359 C371 0.950 . S
C360 H352 0.950 . S
C360 C361 1.386 . S
C360 C362 1.391 . S
C361 C360 1.386 . S
C361 C365 1.393 1_545 S
C362 H354 0.950 . S
C362 C360 1.391 . S
C362 C363 1.400 . S
C363 C362 1.400 . S
C363 C364 1.398 1_545 S
C363 C369 1.491 . S
C364 H355 0.950 . S
C364 C363 1.398 1_565 S
C364 C365 1.391 . S
C365 H353 0.950 . S
C365 C361 1.393 1_565 S
C365 C364 1.391 . S
C366 H356 0.950 . S
C366 C367 1.386 1_565 S
C366 C368 1.391 . S
C367 C366 1.386 1_545 S
C367 C371 1.393 . S
C368 H357 0.950 . S
C368 C366 1.391 . S
C368 C369 1.400 1_565 S
C369 C363 1.491 . S
C369 C368 1.400 1_545 S
C369 C370 1.398 . S
C370 H358 0.950 . S
C370 C369 1.398 . S
C370 C371 1.391 . S
C371 H359 0.950 . S
C371 C367 1.393 . S
C371 C370 1.391 . S
H372 C380 0.950 . S
H373 C385 0.950 . S
H374 C382 0.950 . S
H375 C384 0.950 . S
H376 C386 0.950 . S
H377 C388 0.950 . S
H378 C390 0.950 . S
H379 C391 0.950 . S
C380 H372 0.950 . S
C380 C381 1.386 . S
C380 C382 1.391 . S
C381 C380 1.386 . S
C381 C385 1.393 1_455 S
C382 H374 0.950 . S
C382 C380 1.391 . S
C382 C383 1.400 . S
C383 C382 1.400 . S
C383 C384 1.398 1_455 S
C383 C389 1.491 . S
C384 H375 0.950 . S
C384 C383 1.398 1_655 S
C384 C385 1.391 . S
C385 H373 0.950 . S
C385 C381 1.393 1_655 S
C385 C384 1.391 . S
C386 H376 0.950 . S
C386 C387 1.386 1_655 S
C386 C388 1.391 . S
C387 C386 1.386 1_455 S
C387 C391 1.393 . S
C388 H377 0.950 . S
C388 C386 1.391 . S
C388 C389 1.400 1_655 S
C389 C383 1.491 . S
C389 C388 1.400 1_455 S
C389 C390 1.398 . S
C390 H378 0.950 . S
C390 C389 1.398 . S
C390 C391 1.391 . S
C391 H379 0.950 . S
C391 C387 1.393 . S
C391 C390 1.391 . S
H392 C400 0.950 . S
H393 C405 0.950 . S
H394 C402 0.950 . S
H395 C404 0.950 . S
H396 C406 0.950 . S
H397 C408 0.950 . S
H398 C410 0.950 . S
H399 C411 0.950 . S
C400 H392 0.950 . S
C400 C401 1.386 . S
C400 C402 1.391 . S
C401 C400 1.386 . S
C401 C405 1.393 1_545 S
C402 H394 0.950 . S
C402 C400 1.391 . S
C402 C403 1.400 . S
C403 C402 1.400 . S
C403 C404 1.398 1_545 S
C403 C409 1.491 . S
C404 H395 0.950 . S
C404 C403 1.398 1_565 S
C404 C405 1.391 . S
C405 H393 0.950 . S
C405 C401 1.393 1_565 S
C405 C404 1.391 . S
C406 H396 0.950 . S
C406 C407 1.386 1_565 S
C406 C408 1.391 . S
C407 C406 1.386 1_545 S
C407 C411 1.393 . S
C408 H397 0.950 . S
C408 C406 1.391 . S
C408 C409 1.400 1_565 S
C409 C403 1.491 . S
C409 C408 1.400 1_545 S
C409 C410 1.398 . S
C410 H398 0.950 . S
C410 C409 1.398 . S
C410 C411 1.391 . S
C411 H399 0.950 . S
C411 C407 1.393 . S
C411 C410 1.391 . S
H412 C420 0.950 . S
H413 C425 0.950 . S
H414 C422 0.950 . S
H415 C424 0.950 . S
H416 C426 0.950 . S
H417 C428 0.950 . S
H418 C430 0.950 . S
H419 C431 0.950 . S
C420 H412 0.950 . S
C420 C421 1.386 1_655 S
C420 C422 1.391 . S
C421 C420 1.386 1_455 S
C421 C425 1.393 . S
C422 H414 0.950 . S
C422 C420 1.391 . S
C422 C423 1.400 1_655 S
C423 C422 1.400 1_455 S
C423 C424 1.398 . S
C423 C429 1.491 . S
C424 H415 0.950 . S
C424 C423 1.398 . S
C424 C425 1.391 . S
C425 H413 0.950 . S
C425 C421 1.393 . S
C425 C424 1.391 . S
C426 H416 0.950 . S
C426 C427 1.386 . S
C426 C428 1.391 . S
C427 C426 1.386 . S
C427 C431 1.393 1_455 S
C428 H417 0.950 . S
C428 C426 1.391 . S
C428 C429 1.400 . S
C429 C423 1.491 . S
C429 C428 1.400 . S
C429 C430 1.398 1_455 S
C430 H418 0.950 . S
C430 C429 1.398 1_655 S
C430 C431 1.391 . S
C431 H419 0.950 . S
C431 C427 1.393 1_655 S
C431 C430 1.391 . S
C287 C145 1.515 . S
C281 C45 1.512 . S
C307 C233 1.514 . S
C301 C78 1.511 . S
C327 C153 1.514 . S
C321 C21 1.511 . S
C347 C241 1.513 . S
C341 C84 1.511 . S
C367 C213 1.514 . S
C361 C36 1.514 . S
C387 C116 1.514 . S
C381 C69 1.511 . S
C407 C204 1.514 . S
C401 C30 1.509 . S
C421 C93 1.513 . S
C427 C125 1.515 . S
