# Generated by pormake.
# Topology zzz, (3,6)-cn, num edge types: 1
# Building blocks:
#     Node 0, Type 0, BuildingBlock: CUQRIR_clean_linker_1, # of connection points: 3
#     Node 1, Type 0, BuildingBlock: CUQRIR_clean_linker_1, # of connection points: 3
#     Node 2, Type 0, BuildingBlock: CUQRIR_clean_linker_1, # of connection points: 3
#     Node 3, Type 0, BuildingBlock: CUQRIR_clean_linker_1, # of connection points: 3
#     Node 4, Type 0, BuildingBlock: CUQRIR_clean_linker_1, # of connection points: 3
#     Node 5, Type 0, BuildingBlock: CUQRIR_clean_linker_1, # of connection points: 3
#     Node 6, Type 0, BuildingBlock: CUQRIR_clean_linker_1, # of connection points: 3
#     Node 7, Type 0, BuildingBlock: CUQRIR_clean_linker_1, # of connection points: 3
#     Node 8, Type 1, BuildingBlock: LEVNOQ01_clean_sbu_1, # of connection points: 6
#     Node 9, Type 1, BuildingBlock: LEVNOQ01_clean_sbu_1, # of connection points: 6
#     Node 10, Type 1, BuildingBlock: LEVNOQ01_clean_sbu_1, # of connection points: 6
#     Node 11, Type 1, BuildingBlock: LEVNOQ01_clean_sbu_1, # of connection points: 6
#     Edge 12, Type (0, 1), BuildingBlock: AJUNOK_clean_linker_0, # of connection points: 2
#     Edge 13, Type (0, 1), BuildingBlock: AJUNOK_clean_linker_0, # of connection points: 2
#     Edge 14, Type (0, 1), BuildingBlock: AJUNOK_clean_linker_0, # of connection points: 2
#     Edge 15, Type (0, 1), BuildingBlock: AJUNOK_clean_linker_0, # of connection points: 2
#     Edge 16, Type (0, 1), BuildingBlock: AJUNOK_clean_linker_0, # of connection points: 2
#     Edge 17, Type (0, 1), BuildingBlock: AJUNOK_clean_linker_0, # of connection points: 2
#     Edge 18, Type (0, 1), BuildingBlock: AJUNOK_clean_linker_0, # of connection points: 2
#     Edge 19, Type (0, 1), BuildingBlock: AJUNOK_clean_linker_0, # of connection points: 2
#     Edge 20, Type (0, 1), BuildingBlock: AJUNOK_clean_linker_0, # of connection points: 2
#     Edge 21, Type (0, 1), BuildingBlock: AJUNOK_clean_linker_0, # of connection points: 2
#     Edge 22, Type (0, 1), BuildingBlock: AJUNOK_clean_linker_0, # of connection points: 2
#     Edge 23, Type (0, 1), BuildingBlock: AJUNOK_clean_linker_0, # of connection points: 2
#     Edge 24, Type (0, 1), BuildingBlock: AJUNOK_clean_linker_0, # of connection points: 2
#     Edge 25, Type (0, 1), BuildingBlock: AJUNOK_clean_linker_0, # of connection points: 2
#     Edge 26, Type (0, 1), BuildingBlock: AJUNOK_clean_linker_0, # of connection points: 2
#     Edge 27, Type (0, 1), BuildingBlock: AJUNOK_clean_linker_0, # of connection points: 2
#     Edge 28, Type (0, 1), BuildingBlock: AJUNOK_clean_linker_0, # of connection points: 2
#     Edge 29, Type (0, 1), BuildingBlock: AJUNOK_clean_linker_0, # of connection points: 2
#     Edge 30, Type (0, 1), BuildingBlock: AJUNOK_clean_linker_0, # of connection points: 2
#     Edge 31, Type (0, 1), BuildingBlock: AJUNOK_clean_linker_0, # of connection points: 2
#     Edge 32, Type (0, 1), BuildingBlock: AJUNOK_clean_linker_0, # of connection points: 2
#     Edge 33, Type (0, 1), BuildingBlock: AJUNOK_clean_linker_0, # of connection points: 2
#     Edge 34, Type (0, 1), BuildingBlock: AJUNOK_clean_linker_0, # of connection points: 2
#     Edge 35, Type (0, 1), BuildingBlock: AJUNOK_clean_linker_0, # of connection points: 2
# Relax obj value: 0.145
# Max RMSD: 0.184
# Mean RMSD: 0.114
data_MOF--net-zzz--node1-LEVNOQ01_clean_sbu_1--node2-CUQRIR_clean_linker_1--edge1-AJUNOK_clean_linker_0
_symmetry_space_group_name_H-M    P1
_symmetry_Int_Tables_number       1
_symmetry_cell_setting            triclinic
loop_
_symmetry_equiv_pos_as_xyz
'x, y, z'
_cell_length_a     33.350947
_cell_length_b     33.349619
_cell_length_c     10.134023
_cell_angle_alpha  90.124403
_cell_angle_beta   89.979194
_cell_angle_gamma 89.977264
loop_
_atom_site_label
_atom_site_type_symbol
_atom_site_fract_x
_atom_site_fract_y
_atom_site_fract_z
_atom_type_partial_charge
C0 C 0.75315 0.55942 0.22394 0.0
N1 N 0.79358 0.55885 0.23781 0.0
N2 N 0.7425 0.55899 0.09398 0.0
C3 C 0.72451 0.55798 0.338 0.0
C4 C 0.77834 0.55797 0.03049 0.0
N5 N 0.80911 0.55736 0.11739 0.0
C6 C 0.78317 0.5516 0.88387 0.0
H7 H 0.72733 0.52869 0.38888 0.0
H8 H 0.69315 0.56223 0.30508 0.0
H9 H 0.73258 0.58161 0.41055 0.0
H10 H 0.76915 0.57682 0.82981 0.0
H11 H 0.76767 0.52358 0.85384 0.0
H12 H 0.81513 0.54999 0.85398 0.0
C13 C 0.95578 0.75246 0.20894 0.0
N14 N 0.95556 0.79303 0.21878 0.0
N15 N 0.95077 0.74049 0.08145 0.0
C16 C 0.96594 0.72471 0.32034 0.0
C17 C 0.94804 0.77559 0.01496 0.0
N18 N 0.95202 0.80734 0.09735 0.0
C19 C 0.94903 0.77871 0.8667 0.0
H20 H 0.99889 0.72029 0.32368 0.0
H21 H 0.95162 0.69504 0.30475 0.0
H22 H 0.95616 0.73769 0.41604 0.0
H23 H 0.9264 0.75824 0.8231 0.0
H24 H 0.97891 0.7692 0.82987 0.0
H25 H 0.94292 0.80981 0.83352 0.0
C26 C 0.76549 0.97028 0.20863 0.0
N27 N 0.72582 0.96702 0.23742 0.0
N28 N 0.77236 0.96299 0.07831 0.0
C29 C 0.79648 0.98627 0.30216 0.0
C30 C 0.73511 0.95503 0.03094 0.0
N31 N 0.70678 0.95939 0.1253 0.0
C32 C 0.7255 0.94703 0.88806 0.0
H33 H 0.80221 0.01827 0.27904 0.0
H34 H 0.82506 0.9697 0.28903 0.0
H35 H 0.78627 0.98381 0.40608 0.0
H36 H 0.70291 0.92267 0.88141 0.0
H37 H 0.75275 0.9384 0.83189 0.0
H38 H 0.71191 0.97405 0.84268 0.0
C39 C 0.56735 0.77003 0.23723 0.0
N40 N 0.56241 0.72962 0.24319 0.0
N41 N 0.5609 0.78354 0.11219 0.0
C42 C 0.57749 0.79624 0.35279 0.0
C43 C 0.55055 0.75021 0.04422 0.0
N44 N 0.55134 0.71787 0.12353 0.0
C45 C 0.53518 0.75022 0.90408 0.0
H46 H 0.5495 0.80419 0.4059 0.0
H47 H 0.59216 0.82431 0.3194 0.0
H48 H 0.59736 0.77998 0.42238 0.0
H49 H 0.56087 0.75422 0.83575 0.0
H50 H 0.51426 0.77565 0.88852 0.0
H51 H 0.51949 0.72196 0.87839 0.0
C52 C 0.26795 0.46575 0.18662 0.0
N53 N 0.22818 0.45934 0.167 0.0
N54 N 0.27861 0.45598 0.31266 0.0
C55 C 0.29495 0.48586 0.0878 0.0
C56 C 0.24332 0.4432 0.36552 0.0
N57 N 0.21242 0.448 0.28098 0.0
C58 C 0.23779 0.42817 0.50433 0.0
H59 H 0.31494 0.46301 0.043 0.0
H60 H 0.3137 0.50901 0.13656 0.0
H61 H 0.27794 0.49987 0.00624 0.0
H62 H 0.22388 0.45189 0.56618 0.0
H63 H 0.26676 0.41875 0.54838 0.0
H64 H 0.21675 0.40239 0.50366 0.0
C65 C 0.06343 0.26825 0.1691 0.0
N66 N 0.06471 0.22771 0.15845 0.0
N67 N 0.06803 0.28013 0.29678 0.0
C68 C 0.05173 0.2958 0.05876 0.0
C69 C 0.07183 0.24497 0.36242 0.0
N70 N 0.06879 0.21324 0.27959 0.0
C71 C 0.07062 0.24155 0.51049 0.0
H72 H 0.06329 0.28423 0.96325 0.0
H73 H 0.06336 0.32649 0.07717 0.0
H74 H 0.01856 0.29731 0.05258 0.0
H75 H 0.03921 0.24498 0.54495 0.0
H76 H 0.08874 0.26579 0.55615 0.0
H77 H 0.08209 0.21192 0.54306 0.0
C78 C 0.25336 0.0677 0.18753 0.0
N79 N 0.29372 0.06573 0.17475 0.0
N80 N 0.24247 0.06731 0.31701 0.0
C81 C 0.22466 0.06643 0.07363 0.0
C82 C 0.278 0.06458 0.38136 0.0
N83 N 0.30894 0.06325 0.29529 0.0
C84 C 0.28191 0.05547 0.52629 0.0
H85 H 0.19459 0.07726 0.10378 0.0
H86 H 0.22204 0.03516 0.0371 0.0
H87 H 0.23629 0.08502 0.99136 0.0
H88 H 0.27249 0.02404 0.54432 0.0
H89 H 0.26196 0.07541 0.58446 0.0
H90 H 0.31325 0.05939 0.56073 0.0
C91 C 0.46258 0.24338 0.1425 0.0
N92 N 0.46577 0.28382 0.13292 0.0
N93 N 0.46426 0.23164 0.27119 0.0
C94 C 0.459 0.21579 0.02628 0.0
C95 C 0.47023 0.26637 0.33798 0.0
N96 N 0.47108 0.29778 0.25421 0.0
C97 C 0.48068 0.26878 0.48281 0.0
H98 H 0.46121 0.18401 0.05647 0.0
H99 H 0.48287 0.22246 0.95339 0.0
H100 H 0.42976 0.2211 0.9771 0.0
H101 H 0.50016 0.24331 0.5118 0.0
H102 H 0.45267 0.26694 0.54161 0.0
H103 H 0.49628 0.29709 0.50835 0.0
O104 O 0.06488 0.95897 0.95 0.0
Mg105 Mg 0.07358 0.95746 0.74409 0.0
O106 O 0.00529 0.96926 0.87068 0.0
Mg107 Mg 0.00841 0.01049 0.69085 0.0
O108 O 0.07771 0.00923 0.63672 0.0
O109 O 0.12995 0.96892 0.68152 0.0
O110 O 0.01398 0.0513 0.50816 0.0
O111 O 0.0225 0.06735 0.82472 0.0
Mg112 Mg 0.9514 0.06088 0.63672 0.0
O113 O 0.93719 0.0106 0.7459 0.0
O114 O 0.95492 0.06389 0.42969 0.0
O115 O 0.9777 0.10882 0.74205 0.0
O116 O 0.89384 0.05871 0.68774 0.0
C117 C 0.01307 0.91819 0.56209 0.0
C118 C 0.02745 0.95458 0.95985 0.0
C119 C 0.11564 1.00036 0.62436 0.0
C120 C 0.99243 0.06671 0.41878 0.0
C121 C 0.00689 0.1024 0.81869 0.0
C122 C 0.90094 0.0257 0.74892 0.0
O123 O 0.04352 0.91216 0.63454 0.0
O124 O 0.99604 0.95275 0.5596 0.0
O125 O 0.4089 0.97331 0.76692 0.0
Mg126 Mg 0.4529 0.93926 0.66214 0.0
O127 O 0.44945 0.02325 0.82441 0.0
Mg128 Mg 0.50951 0.01058 0.7101 0.0
O129 O 0.50559 0.94309 0.76516 0.0
O130 O 0.47174 0.88586 0.74032 0.0
O131 O 0.57075 0.99993 0.59571 0.0
O132 O 0.54655 0.01154 0.89947 0.0
Mg133 Mg 0.56323 0.08493 0.76746 0.0
O134 O 0.51271 0.07775 0.65717 0.0
O135 O 0.60779 0.05212 0.66115 0.0
O136 O 0.55748 0.07225 0.97149 0.0
O137 O 0.54161 0.13722 0.68477 0.0
C138 C 0.45516 0.98675 0.43794 0.0
C139 C 0.41488 0.00637 0.82663 0.0
C140 C 0.50153 0.90516 0.79097 0.0
C141 C 0.604 0.01959 0.59625 0.0
C142 C 0.56006 0.03475 0.98815 0.0
C143 C 0.51465 0.11554 0.6279 0.0
O144 O 0.45603 0.94931 0.45674 0.0
O145 O 0.4717 0.00958 0.52216 0.0
O146 O 0.54569 0.40668 0.73484 0.0
Mg147 Mg 0.58087 0.44963 0.635 0.0
O148 O 0.49734 0.44708 0.80746 0.0
Mg149 Mg 0.51312 0.50724 0.69198 0.0
O150 O 0.58142 0.50098 0.74642 0.0
O151 O 0.63598 0.46329 0.71089 0.0
O152 O 0.5306 0.56601 0.57241 0.0
O153 O 0.51566 0.54523 0.87785 0.0
Mg154 Mg 0.45279 0.56397 0.74809 0.0
O155 O 0.44354 0.51323 0.63536 0.0
O156 O 0.48668 0.60906 0.65353 0.0
O157 O 0.45772 0.56281 0.95522 0.0
O158 O 0.39634 0.55949 0.68147 0.0
C159 C 0.53181 0.45025 0.42251 0.0
C160 C 0.51344 0.41205 0.79927 0.0
C161 C 0.61935 0.49382 0.76708 0.0
C162 C 0.5173 0.602 0.58315 0.0
C163 C 0.49541 0.56323 0.96534 0.0
C164 C 0.40679 0.52658 0.6237 0.0
O165 O 0.56966 0.45103 0.42988 0.0
O166 O 0.51174 0.46849 0.50978 0.0
O167 O 0.96369 0.4511 0.96544 0.0
Mg168 Mg 0.95993 0.4457 0.75869 0.0
O169 O 0.97069 0.51119 0.88689 0.0
Mg170 Mg 0.01006 0.50844 0.70045 0.0
O171 O 0.00923 0.43913 0.63928 0.0
O172 O 0.96713 0.38916 0.69231 0.0
O173 O 0.05023 0.50455 0.51841 0.0
O174 O 0.06829 0.49601 0.82567 0.0
Mg175 Mg 0.06293 0.57292 0.64363 0.0
O176 O 0.01143 0.57803 0.75411 0.0
O177 O 0.0628 0.56325 0.43726 0.0
O178 O 0.1086 0.54399 0.75266 0.0
O179 O 0.05227 0.62954 0.70529 0.0
C180 C 0.91703 0.50536 0.58689 0.0
C181 C 0.9586 0.48836 0.97855 0.0
C182 C 0.99795 0.4018 0.62768 0.0
C183 C 0.06597 0.52562 0.42877 0.0
C184 C 0.10273 0.51313 0.82296 0.0
C185 C 0.02091 0.61591 0.76488 0.0
O186 O 0.91192 0.47555 0.66255 0.0
O187 O 0.95175 0.52149 0.5755 0.0
C188 C 0.18504 0.07732 0.46895 0.0
C189 C 0.20481 0.05418 0.37214 0.0
C190 C 0.15361 0.06104 0.54519 0.0
C191 C 0.14162 0.02096 0.52767 0.0
H192 H 0.19532 0.10747 0.48976 0.0
H193 H 0.14039 0.07901 0.62304 0.0
S194 S 0.18278 0.94865 0.28434 0.0
N195 N 0.20917 0.9899 0.26116 0.0
N196 N 0.15029 0.95945 0.40217 0.0
C197 C 0.15995 0.99834 0.42718 0.0
C198 C 0.19153 0.01488 0.34992 0.0
C199 C 0.44434 0.18149 0.43674 0.0
C200 C 0.46857 0.19221 0.32826 0.0
C201 C 0.45699 0.15249 0.52852 0.0
C202 C 0.49383 0.13271 0.51261 0.0
H203 H 0.41761 0.19876 0.45816 0.0
H204 H 0.4397 0.14824 0.61795 0.0
S205 S 0.56517 0.1452 0.23539 0.0
N206 N 0.52898 0.17763 0.20394 0.0
N207 N 0.5518 0.12192 0.37222 0.0
C208 C 0.51597 0.13988 0.39698 0.0
C209 C 0.50349 0.16982 0.30523 0.0
C210 C 0.30464 0.4934 0.50547 0.0
C211 C 0.31221 0.47153 0.3889 0.0
C212 C 0.33561 0.50904 0.58256 0.0
C213 C 0.3759 0.50549 0.54405 0.0
H214 H 0.2743 0.49941 0.53706 0.0
H215 H 0.32769 0.52505 0.67202 0.0
S216 S 0.41231 0.45836 0.23509 0.0
N217 N 0.36366 0.44896 0.23574 0.0
N218 N 0.42151 0.4841 0.37111 0.0
C219 C 0.3842 0.48579 0.42431 0.0
C220 C 0.35252 0.4677 0.34877 0.0
C221 C 0.0751 0.3438 0.42256 0.0
C222 C 0.05087 0.31549 0.35687 0.0
C223 C 0.05802 0.3733 0.50579 0.0
C224 C 0.01633 0.37443 0.52845 0.0
H225 H 0.1074 0.342 0.41362 0.0
H226 H 0.07762 0.3939 0.55754 0.0
S227 S 0.94027 0.30824 0.37195 0.0
N228 N 0.98356 0.29184 0.31424 0.0
N229 N 0.95133 0.34638 0.46941 0.0
C230 C 0.99197 0.3472 0.45837 0.0
C231 C 0.00926 0.31794 0.37304 0.0
C232 C 0.8432 0.96044 -0.00206 0.0
C233 C 0.8051 0.97868 -0.00037 0.0
C234 C 0.87408 0.97486 0.91458 0.0
C235 C 0.86776 0.00781 0.82962 0.0
H236 H 0.84898 0.93481 0.06054 0.0
H237 H 0.90302 0.96023 0.91697 0.0
S238 S 0.77235 0.0652 0.79726 0.0
N239 N 0.76319 0.03163 0.91235 0.0
N240 N 0.81903 0.05696 0.75122 0.0
C241 C 0.82929 0.02562 0.83011 0.0
C242 C 0.79865 0.01163 0.91646 0.0
C243 C 0.57644 0.8367 0.95256 0.0
C244 C 0.55477 0.82364 0.064 0.0
C245 C 0.56137 0.867 0.86973 0.0
C246 C 0.52431 0.88521 0.89681 0.0
H247 H 0.6031 0.82056 0.92242 0.0
H248 H 0.57693 0.87358 0.77847 0.0
S249 S 0.45895 0.86569 0.18548 0.0
N250 N 0.49668 0.83406 0.20333 0.0
N251 N 0.46865 0.89142 0.05004 0.0
C252 C 0.50436 0.87502 0.01427 0.0
C253 C 0.51959 0.84419 0.09774 0.0
C254 C 0.69015 0.56903 0.92369 0.0
C255 C 0.70456 0.54785 0.03431 0.0
C256 C 0.66052 0.55264 0.84043 0.0
C257 C 0.64276 0.51552 0.8687 0.0
H258 H 0.70397 0.59715 0.89621 0.0
H259 H 0.65325 0.56788 0.7493 0.0
S260 S 0.66741 0.44916 0.15005 0.0
N261 N 0.69791 0.48778 0.16761 0.0
N262 N 0.63994 0.45897 0.01844 0.0
C263 C 0.65486 0.49537 0.98364 0.0
C264 C 0.68601 0.51121 0.06542 0.0
C265 C 0.00723 0.69675 0.02311 0.0
C266 C 0.9658 0.70405 0.02221 0.0
C267 C 0.02421 0.667 0.94296 0.0
C268 C 1.00042 0.64294 0.85964 0.0
H269 H 0.02687 0.71587 0.08055 0.0
H270 H 0.05652 0.66356 0.94338 0.0
S271 S 0.88993 0.64823 0.82783 0.0
N272 N 0.90103 0.68403 0.93501 0.0
N273 N 0.93294 0.6268 0.78709 0.0
C274 C 0.95869 0.64851 0.86239 0.0
C275 C 0.94142 0.67954 0.94252 0.0
C276 C 0.01104 0.17531 0.35924 0.0
C277 C 0.05106 0.17563 0.31651 0.0
C278 C 0.99053 0.13933 0.37778 0.0
C279 C 0.00952 0.10229 0.35528 0.0
H280 H 0.99541 0.20329 0.37681 0.0
H281 H 0.96038 0.14061 0.4174 0.0
S282 S 0.11262 0.0873 0.22945 0.0
N283 N 0.10809 0.13649 0.24293 0.0
N284 N 0.06961 0.06812 0.27991 0.0
C285 C 0.04914 0.10225 0.30842 0.0
C286 C 0.06996 0.13909 0.28888 0.0
C287 C 0.38188 0.06601 0.333 0.0
C288 C 0.34652 0.04377 0.32092 0.0
C289 C 0.41861 0.04666 0.35437 0.0
C290 C 0.42092 0.00446 0.36546 0.0
H291 H 0.3809 0.09843 0.32894 0.0
H292 H 0.44493 0.06502 0.37098 0.0
S293 S 0.33598 0.93346 0.32226 0.0
N294 N 0.3156 0.97832 0.30749 0.0
N295 N 0.38427 0.94132 0.34721 0.0
C296 C 0.38572 0.98204 0.34315 0.0
C297 C 0.34852 1.0019 0.32239 0.0
C298 C 0.5199 0.35298 0.23589 0.0
C299 C 0.48361 0.33785 0.2856 0.0
C300 C 0.53353 0.39119 0.27099 0.0
C301 C 0.51228 0.41474 0.36241 0.0
H302 H 0.53872 0.3345 0.17388 0.0
H303 H 0.56209 0.4013 0.23239 0.0
S304 S 0.41733 0.38505 0.53232 0.0
N305 N 0.42683 0.34788 0.4294 0.0
N306 N 0.45416 0.4174 0.51108 0.0
C307 C 0.47603 0.39905 0.41503 0.0
C308 C 0.4614 0.36109 0.37328 0.0
C309 C 0.13842 0.44672 0.30563 0.0
C310 C 0.17537 0.466 0.32378 0.0
C311 C 0.10229 0.46729 0.32959 0.0
C312 C 0.1022 0.50798 0.36862 0.0
H313 H 0.13755 0.41579 0.27309 0.0
H314 H 0.07427 0.45105 0.32112 0.0
S315 S 0.19211 0.57115 0.42833 0.0
N316 N 0.21014 0.52731 0.38171 0.0
N317 N 0.14291 0.56614 0.42551 0.0
C318 C 0.13928 0.52747 0.38422 0.0
C319 C 0.17565 0.50638 0.36263 0.0
C320 C 0.95111 0.8811 0.08339 0.0
C321 C 0.9706 0.8445 0.06069 0.0
C322 C 0.97128 0.91749 0.06381 0.0
C323 C 0.01156 0.91817 0.02217 0.0
H324 H 0.9202 0.88144 0.11606 0.0
H325 H 0.95493 0.94529 0.07649 0.0
S326 S 0.07591 0.8294 0.95651 0.0
N327 N 0.03229 0.81053 0.00139 0.0
N328 N 0.07033 0.87855 0.9628 0.0
C329 C 0.03164 0.88144 0.00417 0.0
C330 C 0.01101 0.84469 0.02297 0.0
C331 C 0.66798 0.01796 0.05764 0.0
C332 C 0.66865 0.97776 0.09816 0.0
C333 C 0.63195 0.03827 0.0387 0.0
C334 C 0.59505 0.01896 0.05918 0.0
H335 H 0.69573 0.03378 0.04031 0.0
H336 H 0.63315 0.06834 -0.00145 0.0
S337 S 0.58117 0.9172 0.1969 0.0
N338 N 0.6302 0.92146 0.17942 0.0
N339 N 0.56147 0.95954 0.14247 0.0
C340 C 0.59535 0.97973 0.10982 0.0
C341 C 0.63238 0.95908 0.12941 0.0
C342 C 0.50553 0.66054 0.15204 0.0
C343 C 0.53866 0.6782 0.08948 0.0
C344 C 0.49362 0.62145 0.12018 0.0
C345 C 0.51439 0.59911 0.02413 0.0
H346 H 0.48838 0.67742 0.22383 0.0
H347 H 0.46695 0.60937 0.16643 0.0
S348 S 0.60276 0.63461 0.83068 0.0
N349 N 0.59185 0.67214 0.9301 0.0
N350 N 0.5703 0.59892 0.8664 0.0
C351 C 0.54845 0.61678 0.96351 0.0
C352 C 0.56013 0.65642 0.99633 0.0
C353 C 0.85021 0.49954 0.05509 0.0
C354 C 0.84777 0.54009 0.09114 0.0
C355 C 0.88727 0.4811 0.03513 0.0
C356 C 0.92317 0.50276 0.05015 0.0
H357 H 0.82308 0.48226 0.04041 0.0
H358 H 0.88757 0.4506 -0.00191 0.0
S359 S 0.93264 0.60742 0.16827 0.0
N360 N 0.88377 0.59999 0.15712 0.0
N361 N 0.95409 0.56519 0.12011 0.0
C362 C 0.9211 0.54254 0.09531 0.0
C363 C 0.88322 0.56132 0.11528 0.0
C364 C 0.07735 0.17641 0.98812 0.0
C365 C 0.05068 0.20324 0.05002 0.0
C366 C 0.06327 0.14334 0.91485 0.0
C367 C 0.02193 0.13635 0.89976 0.0
H368 H 0.1093 0.17981 0.00319 0.0
H369 H 0.08481 0.12304 0.87058 0.0
S370 S 0.93991 0.19761 0.04415 0.0
N371 N 0.98135 0.22046 0.09204 0.0
N372 N 0.95458 0.15921 0.95287 0.0
C373 C 0.99505 0.16379 0.9578 0.0
C374 C 0.00946 0.19712 0.03263 0.0
C375 C 0.31487 0.0171 0.0059 0.0
C376 C 0.31682 0.05596 0.05874 0.0
C377 C 0.34615 1.00184 0.92768 0.0
C378 C 0.38076 0.02481 0.90022 0.0
H379 H 0.29059 0.99734 0.03403 0.0
H380 H 0.34397 0.97107 0.89414 0.0
S381 S 0.39697 0.13033 0.00294 0.0
N382 N 0.35332 0.11838 0.06861 0.0
N383 N 0.41247 0.09019 0.92206 0.0
C384 C 0.38158 0.06469 0.94581 0.0
C385 C 0.34947 0.08015 0.02434 0.0
C386 C 0.50688 0.30768 0.9491 0.0
C387 C 0.47032 0.30839 0.01691 0.0
C388 C 0.51967 0.34093 0.87609 0.0
C389 C 0.49615 0.37615 0.86634 0.0
H390 H 0.5276 0.28313 0.96463 0.0
H391 H 0.54939 0.33963 0.8332 0.0
S392 S 0.39229 0.38691 0.99191 0.0
N393 N 0.40722 0.34299 0.04887 0.0
N394 N 0.43041 0.40529 0.90712 0.0
C395 C 0.45739 0.3751 0.92088 0.0
C396 C 0.44463 0.34119 0.99651 0.0
C397 C 0.1973 0.51239 0.0317 0.0
C398 C 0.2032 0.47149 0.05783 0.0
C399 C 0.16506 0.52536 0.95381 0.0
C400 C 0.13678 0.498 0.90257 0.0
H401 H 0.21636 0.53458 0.07817 0.0
H402 H 0.16131 0.55727 0.93821 0.0
S403 S 0.1397 0.38756 0.94061 0.0
N404 N 0.17927 0.4037 0.02325 0.0
N405 N 0.1179 0.42798 0.87963 0.0
C406 C 0.14281 0.45698 0.926 0.0
C407 C 0.17621 0.44381 0.00271 0.0
C408 C 0.94246 0.84684 0.38 0.0
C409 C 0.96872 0.81774 0.32796 0.0
C410 C 0.95674 0.87943 0.45513 0.0
C411 C 0.99792 0.884 0.4813 0.0
H412 H 0.91087 0.84548 0.35581 0.0
H413 H 0.93548 0.90137 0.49161 0.0
S414 S 0.07916 0.81678 0.3619 0.0
N415 N 0.03762 0.7961 0.30518 0.0
N416 N 0.06481 0.85666 0.44652 0.0
C417 C 0.02436 0.85452 0.43184 0.0
C418 C 0.0097 0.82152 0.35561 0.0
C419 C 0.67931 0.95211 0.41876 0.0
C420 C 0.70452 0.97975 0.3545 0.0
C421 C 0.64696 0.96486 0.49776 0.0
C422 C 0.63907 0.00588 0.51696 0.0
H423 H 0.68293 0.92036 0.39948 0.0
H424 H 0.62752 0.94251 0.54144 0.0
S425 S 0.69702 0.09025 0.37245 0.0
N426 N 0.71997 0.04966 0.31748 0.0
N427 N 0.66019 0.07412 0.46741 0.0
C428 C 0.66546 0.03379 0.4585 0.0
C429 C 0.69807 0.02065 0.37768 0.0
C430 C 0.53257 0.70802 0.4528 0.0
C431 C 0.56221 0.70316 0.35615 0.0
C432 C 0.52005 0.67554 0.53042 0.0
C433 C 0.53624 0.63662 0.51321 0.0
H434 H 0.51628 0.73603 0.45966 0.0
H435 H 0.49565 0.68067 0.59894 0.0
S436 S 0.61976 0.61038 0.28716 0.0
N437 N 0.6121 0.65867 0.26162 0.0
N438 N 0.58741 0.59693 0.40233 0.0
C439 C 0.56864 0.63242 0.42541 0.0
C440 C 0.58206 0.66592 0.34903 0.0
C441 C 0.84313 0.5744 0.41091 0.0
C442 C 0.81616 0.54711 0.35295 0.0
C443 C 0.87585 0.56101 0.487 0.0
C444 C 0.88212 0.51986 0.50948 0.0
H445 H 0.84045 0.60606 0.38922 0.0
H446 H 0.8967 0.58289 0.52626 0.0
S447 S 0.81889 0.43667 0.38275 0.0
N448 N 0.79712 0.47763 0.32617 0.0
N449 N 0.85755 0.45215 0.47093 0.0
C450 C 0.85394 0.49255 0.45787 0.0
C451 C 0.82107 0.50626 0.38002 0.0
loop_
_geom_bond_atom_site_label_1
_geom_bond_atom_site_label_2
_geom_bond_distance
_geom_bond_site_symmetry_2
_ccdc_geom_bond_type
C0 N1 1.317 . S
C0 N2 1.348 . S
C0 C3 1.485 . S
N1 C0 1.317 . S
N1 N5 1.370 . S
N2 C0 1.348 . S
N2 C4 1.346 1_554 S
C3 C0 1.485 . S
C3 H7 0.960 . S
C3 H8 0.961 . S
C3 H9 0.960 . S
C4 N2 1.346 1_556 S
C4 N5 1.307 1_556 S
C4 C6 1.486 . S
N5 N1 1.370 . S
N5 C4 1.307 1_554 S
C6 C4 1.486 . S
C6 H10 0.960 . S
C6 H11 0.960 . S
C6 H12 0.959 . S
H7 C3 0.960 . S
H8 C3 0.961 . S
H9 C3 0.960 . S
H10 C6 0.960 . S
H11 C6 0.960 . S
H12 C6 0.959 . S
C13 N14 1.317 . S
C13 N15 1.348 . S
C13 C16 1.485 . S
N14 C13 1.317 . S
N14 N18 1.370 . S
N15 C13 1.348 . S
N15 C17 1.346 1_554 S
C16 C13 1.485 . S
C16 H20 0.960 . S
C16 H21 0.961 . S
C16 H22 0.960 . S
C17 N15 1.346 1_556 S
C17 N18 1.307 1_556 S
C17 C19 1.486 . S
N18 N14 1.370 . S
N18 C17 1.307 1_554 S
C19 C17 1.486 . S
C19 H23 0.960 . S
C19 H24 0.960 . S
C19 H25 0.959 . S
H20 C16 0.960 . S
H21 C16 0.961 . S
H22 C16 0.960 . S
H23 C19 0.960 . S
H24 C19 0.960 . S
H25 C19 0.959 . S
C26 N27 1.317 . S
C26 N28 1.348 . S
C26 C29 1.485 . S
N27 C26 1.317 . S
N27 N31 1.370 . S
N28 C26 1.348 . S
N28 C30 1.346 1_554 S
C29 C26 1.485 . S
C29 H33 0.960 . S
C29 H34 0.961 . S
C29 H35 0.960 . S
C30 N28 1.346 1_556 S
C30 N31 1.307 1_556 S
C30 C32 1.486 . S
N31 N27 1.370 . S
N31 C30 1.307 1_554 S
C32 C30 1.486 . S
C32 H36 0.960 . S
C32 H37 0.960 . S
C32 H38 0.959 . S
H33 C29 0.960 . S
H34 C29 0.961 . S
H35 C29 0.960 . S
H36 C32 0.960 . S
H37 C32 0.960 . S
H38 C32 0.959 . S
C39 N40 1.317 . S
C39 N41 1.348 . S
C39 C42 1.485 . S
N40 C39 1.317 . S
N40 N44 1.370 . S
N41 C39 1.348 . S
N41 C43 1.346 1_554 S
C42 C39 1.485 . S
C42 H46 0.960 . S
C42 H47 0.961 . S
C42 H48 0.960 . S
C43 N41 1.346 1_556 S
C43 N44 1.307 1_556 S
C43 C45 1.486 . S
N44 N40 1.370 . S
N44 C43 1.307 1_554 S
C45 C43 1.486 . S
C45 H49 0.960 . S
C45 H50 0.960 . S
C45 H51 0.959 . S
H46 C42 0.960 . S
H47 C42 0.961 . S
H48 C42 0.960 . S
H49 C45 0.960 . S
H50 C45 0.960 . S
H51 C45 0.959 . S
C52 N53 1.317 . S
C52 N54 1.348 . S
C52 C55 1.485 . S
N53 C52 1.317 . S
N53 N57 1.370 . S
N54 C52 1.348 . S
N54 C56 1.346 . S
C55 C52 1.485 . S
C55 H59 0.960 . S
C55 H60 0.961 . S
C55 H61 0.960 . S
C56 N54 1.346 . S
C56 N57 1.307 . S
C56 C58 1.486 . S
N57 N53 1.370 . S
N57 C56 1.307 . S
C58 C56 1.486 . S
C58 H62 0.960 . S
C58 H63 0.960 . S
C58 H64 0.959 . S
H59 C55 0.960 . S
H60 C55 0.961 . S
H61 C55 0.960 . S
H62 C58 0.960 . S
H63 C58 0.960 . S
H64 C58 0.959 . S
C65 N66 1.317 . S
C65 N67 1.348 . S
C65 C68 1.485 . S
N66 C65 1.317 . S
N66 N70 1.370 . S
N67 C65 1.348 . S
N67 C69 1.346 . S
C68 C65 1.485 . S
C68 H72 0.960 . S
C68 H73 0.961 . S
C68 H74 0.960 . S
C69 N67 1.346 . S
C69 N70 1.307 . S
C69 C71 1.486 . S
N70 N66 1.370 . S
N70 C69 1.307 . S
C71 C69 1.486 . S
C71 H75 0.960 . S
C71 H76 0.960 . S
C71 H77 0.959 . S
H72 C68 0.960 . S
H73 C68 0.961 . S
H74 C68 0.960 . S
H75 C71 0.960 . S
H76 C71 0.960 . S
H77 C71 0.959 . S
C78 N79 1.317 . S
C78 N80 1.348 . S
C78 C81 1.485 . S
N79 C78 1.317 . S
N79 N83 1.370 . S
N80 C78 1.348 . S
N80 C82 1.346 . S
C81 C78 1.485 . S
C81 H85 0.960 . S
C81 H86 0.961 . S
C81 H87 0.960 . S
C82 N80 1.346 . S
C82 N83 1.307 . S
C82 C84 1.486 . S
N83 N79 1.370 . S
N83 C82 1.307 . S
C84 C82 1.486 . S
C84 H88 0.960 . S
C84 H89 0.960 . S
C84 H90 0.959 . S
H85 C81 0.960 . S
H86 C81 0.961 . S
H87 C81 0.960 . S
H88 C84 0.960 . S
H89 C84 0.960 . S
H90 C84 0.959 . S
C91 N92 1.317 . S
C91 N93 1.348 . S
C91 C94 1.485 . S
N92 C91 1.317 . S
N92 N96 1.370 . S
N93 C91 1.348 . S
N93 C95 1.346 . S
C94 C91 1.485 . S
C94 H98 0.960 . S
C94 H99 0.961 . S
C94 H100 0.960 . S
C95 N93 1.346 . S
C95 N96 1.307 . S
C95 C97 1.486 . S
N96 N92 1.370 . S
N96 C95 1.307 . S
C97 C95 1.486 . S
C97 H101 0.960 . S
C97 H102 0.960 . S
C97 H103 0.959 . S
H98 C94 0.960 . S
H99 C94 0.961 . S
H100 C94 0.960 . S
H101 C97 0.960 . S
H102 C97 0.960 . S
H103 C97 0.959 . S
O104 Mg105 1.990 . S
O104 C118 1.253 . S
Mg105 O104 1.990 . S
Mg105 O108 2.180 . S
Mg105 O109 2.117 . S
Mg105 O123 2.030 . S
O106 Mg107 2.075 1_565 S
O106 C118 1.274 . S
Mg107 O106 2.075 1_545 S
Mg107 O108 2.099 1_545 S
Mg107 O110 2.079 . S
Mg107 O111 2.072 . S
Mg107 O113 2.099 1_455 S
Mg107 O124 2.079 1_445 S
O108 Mg105 2.180 . S
O108 Mg107 2.099 1_565 S
O108 C119 1.279 . S
O109 Mg105 2.117 . S
O109 C119 1.250 . S
O110 Mg107 2.079 . S
O110 C120 1.264 1_455 S
O111 Mg107 2.072 . S
O111 C121 1.260 . S
Mg112 O113 2.180 . S
Mg112 O114 2.030 . S
Mg112 O115 1.990 . S
Mg112 O116 2.117 . S
O113 Mg107 2.099 1_655 S
O113 Mg112 2.180 . S
O113 C122 1.279 . S
O114 Mg112 2.030 . S
O114 C120 1.248 . S
O115 Mg112 1.990 . S
O115 C121 1.253 1_655 S
O116 Mg112 2.117 . S
O116 C122 1.250 . S
C117 O123 1.248 1_655 S
C117 O124 1.264 . S
C118 O104 1.253 . S
C118 O106 1.274 . S
C119 O108 1.279 . S
C119 O109 1.250 . S
C120 O110 1.264 1_655 S
C120 O114 1.248 . S
C121 O111 1.260 . S
C121 O115 1.253 1_455 S
C122 O113 1.279 . S
C122 O116 1.250 . S
O123 Mg105 2.030 . S
O123 C117 1.248 1_455 S
O124 Mg107 2.079 1_665 S
O124 C117 1.264 . S
O125 Mg126 1.990 . S
O125 C139 1.253 1_565 S
Mg126 O125 1.990 . S
Mg126 O129 2.180 . S
Mg126 O130 2.117 . S
Mg126 O144 2.030 . S
O127 Mg128 2.072 . S
O127 C139 1.260 . S
Mg128 O127 2.072 . S
Mg128 O129 2.099 1_545 S
Mg128 O131 2.079 1_545 S
Mg128 O132 2.075 . S
Mg128 O134 2.099 . S
Mg128 O145 2.079 . S
O129 Mg126 2.180 . S
O129 Mg128 2.099 1_565 S
O129 C140 1.279 . S
O130 Mg126 2.117 . S
O130 C140 1.250 . S
O131 Mg128 2.079 1_565 S
O131 C141 1.264 . S
O132 Mg128 2.075 . S
O132 C142 1.274 . S
Mg133 O134 2.180 . S
Mg133 O135 2.030 . S
Mg133 O136 1.990 . S
Mg133 O137 2.117 . S
O134 Mg128 2.099 . S
O134 Mg133 2.180 . S
O134 C143 1.279 . S
O135 Mg133 2.030 . S
O135 C141 1.248 1_545 S
O136 Mg133 1.990 . S
O136 C142 1.253 . S
O137 Mg133 2.117 . S
O137 C143 1.250 . S
C138 O144 1.248 . S
C138 O145 1.264 1_565 S
C139 O125 1.253 1_545 S
C139 O127 1.260 . S
C140 O129 1.279 . S
C140 O130 1.250 . S
C141 O131 1.264 . S
C141 O135 1.248 1_565 S
C142 O132 1.274 . S
C142 O136 1.253 . S
C143 O134 1.279 . S
C143 O137 1.250 . S
O144 Mg126 2.030 . S
O144 C138 1.248 . S
O145 Mg128 2.079 . S
O145 C138 1.264 1_545 S
O146 Mg147 1.990 . S
O146 C160 1.253 . S
Mg147 O146 1.990 . S
Mg147 O150 2.180 . S
Mg147 O151 2.117 . S
Mg147 O165 2.030 . S
O148 Mg149 2.072 . S
O148 C160 1.260 . S
Mg149 O148 2.072 . S
Mg149 O150 2.099 . S
Mg149 O152 2.079 . S
Mg149 O153 2.072 . S
Mg149 O155 2.099 . S
Mg149 O166 2.079 . S
O150 Mg147 2.180 . S
O150 Mg149 2.099 . S
O150 C161 1.279 . S
O151 Mg147 2.117 . S
O151 C161 1.250 . S
O152 Mg149 2.079 . S
O152 C162 1.264 . S
O153 Mg149 2.072 . S
O153 C163 1.260 . S
Mg154 O155 2.180 . S
Mg154 O156 2.030 . S
Mg154 O157 1.990 . S
Mg154 O158 2.117 . S
O155 Mg149 2.099 . S
O155 Mg154 2.180 . S
O155 C164 1.279 . S
O156 Mg154 2.030 . S
O156 C162 1.248 . S
O157 Mg154 1.990 . S
O157 C163 1.253 . S
O158 Mg154 2.117 . S
O158 C164 1.250 . S
C159 O165 1.248 . S
C159 O166 1.264 . S
C160 O146 1.253 . S
C160 O148 1.260 . S
C161 O150 1.279 . S
C161 O151 1.250 . S
C162 O152 1.264 . S
C162 O156 1.248 . S
C163 O153 1.260 . S
C163 O157 1.253 . S
C164 O155 1.279 . S
C164 O158 1.250 . S
O165 Mg147 2.030 . S
O165 C159 1.248 . S
O166 Mg149 2.079 . S
O166 C159 1.264 . S
O167 Mg168 1.990 . S
O167 C181 1.253 . S
Mg168 O167 1.990 . S
Mg168 O171 2.180 . S
Mg168 O172 2.117 . S
Mg168 O186 2.030 . S
O169 Mg170 2.072 1_655 S
O169 C181 1.260 . S
Mg170 O169 2.072 1_455 S
Mg170 O171 2.099 1_455 S
Mg170 O173 2.079 . S
Mg170 O174 2.072 . S
Mg170 O176 2.099 . S
Mg170 O187 2.079 1_455 S
O171 Mg168 2.180 . S
O171 Mg170 2.099 1_655 S
O171 C182 1.279 . S
O172 Mg168 2.117 . S
O172 C182 1.250 . S
O173 Mg170 2.079 . S
O173 C183 1.264 . S
O174 Mg170 2.072 . S
O174 C184 1.260 . S
Mg175 O176 2.180 . S
Mg175 O177 2.030 . S
Mg175 O178 1.990 . S
Mg175 O179 2.117 . S
O176 Mg170 2.099 . S
O176 Mg175 2.180 . S
O176 C185 1.279 . S
O177 Mg175 2.030 . S
O177 C183 1.248 . S
O178 Mg175 1.990 . S
O178 C184 1.253 . S
O179 Mg175 2.117 . S
O179 C185 1.250 . S
C180 O186 1.248 . S
C180 O187 1.264 . S
C181 O167 1.253 . S
C181 O169 1.260 . S
C182 O171 1.279 . S
C182 O172 1.250 . S
C183 O173 1.264 . S
C183 O177 1.248 . S
C184 O174 1.260 . S
C184 O178 1.253 . S
C185 O176 1.279 . S
C185 O179 1.250 . S
O186 Mg168 2.030 . S
O186 C180 1.248 . S
O187 Mg170 2.079 1_655 S
O187 C180 1.264 . S
C188 C189 1.369 . S
C188 C190 1.419 . S
C188 H192 0.930 . S
C189 C188 1.369 . S
C189 C198 1.455 . S
C190 C188 1.419 . S
C190 C191 1.363 . S
C190 H193 0.929 . S
C191 C190 1.363 . S
C191 C197 1.428 1_545 S
H192 C188 0.930 . S
H193 C190 0.929 . S
S194 N195 1.613 . S
S194 N196 1.610 . S
N195 S194 1.613 . S
N195 C198 1.327 1_565 S
N196 S194 1.610 . S
N196 C197 1.351 . S
C197 C191 1.428 1_565 S
C197 N196 1.351 . S
C197 C198 1.428 1_565 S
C198 C189 1.455 . S
C198 N195 1.327 1_545 S
C198 C197 1.428 1_545 S
C199 C200 1.369 . S
C199 C201 1.419 . S
C199 H203 0.930 . S
C200 C199 1.369 . S
C200 C209 1.429 . S
C201 C199 1.419 . S
C201 C202 1.363 . S
C201 H204 0.929 . S
C202 C201 1.363 . S
C202 C208 1.428 . S
H203 C199 0.930 . S
H204 C201 0.929 . S
S205 N206 1.613 . S
S205 N207 1.610 . S
N206 S205 1.613 . S
N206 C209 1.350 . S
N207 S205 1.610 . S
N207 C208 1.351 . S
C208 C202 1.428 . S
C208 N207 1.351 . S
C208 C209 1.434 . S
C209 C200 1.429 . S
C209 N206 1.350 . S
C209 C208 1.434 . S
C210 C211 1.369 . S
C210 C212 1.419 . S
C210 H214 0.930 . S
C211 C210 1.369 . S
C211 C220 1.429 . S
C212 C210 1.419 . S
C212 C213 1.363 . S
C212 H215 0.929 . S
C213 C212 1.363 . S
C213 C219 1.428 . S
H214 C210 0.930 . S
H215 C212 0.929 . S
S216 N217 1.613 . S
S216 N218 1.610 . S
N217 S216 1.613 . S
N217 C220 1.350 . S
N218 S216 1.610 . S
N218 C219 1.351 . S
C219 C213 1.428 . S
C219 N218 1.351 . S
C219 C220 1.434 . S
C220 C211 1.429 . S
C220 N217 1.350 . S
C220 C219 1.434 . S
C221 C222 1.369 . S
C221 C223 1.419 . S
C221 H225 0.930 . S
C222 C221 1.369 . S
C222 C231 1.423 1_455 S
C223 C221 1.419 . S
C223 C224 1.363 . S
C223 H226 0.929 . S
C224 C223 1.363 . S
C224 C230 1.428 1_455 S
H225 C221 0.930 . S
H226 C223 0.929 . S
S227 N228 1.613 . S
S227 N229 1.610 . S
N228 S227 1.613 . S
N228 C231 1.355 . S
N229 S227 1.610 . S
N229 C230 1.351 . S
C230 C224 1.428 1_655 S
C230 N229 1.351 . S
C230 C231 1.435 . S
C231 C222 1.423 1_655 S
C231 N228 1.355 . S
C231 C230 1.435 . S
C232 C233 1.369 1_554 S
C232 C234 1.419 1_554 S
C232 H236 0.930 . S
C233 C232 1.369 1_556 S
C233 C242 1.429 . S
C234 C232 1.419 1_556 S
C234 C235 1.363 . S
C234 H237 0.929 . S
C235 C234 1.363 . S
C235 C241 1.428 1_565 S
H236 C232 0.930 . S
H237 C234 0.929 . S
S238 N239 1.613 . S
S238 N240 1.610 . S
N239 S238 1.613 . S
N239 C242 1.350 1_545 S
N240 S238 1.610 . S
N240 C241 1.351 . S
C241 C235 1.428 1_545 S
C241 N240 1.351 . S
C241 C242 1.434 1_545 S
C242 C233 1.429 . S
C242 N239 1.350 1_565 S
C242 C241 1.434 1_565 S
C243 C244 1.369 . S
C243 C245 1.419 . S
C243 H247 0.930 . S
C244 C243 1.369 . S
C244 C253 1.429 1_556 S
C245 C243 1.419 . S
C245 C246 1.363 . S
C245 H248 0.929 . S
C246 C245 1.363 . S
C246 C252 1.428 . S
H247 C243 0.930 . S
H248 C245 0.929 . S
S249 N250 1.613 . S
S249 N251 1.610 1_554 S
N250 S249 1.613 . S
N250 C253 1.350 . S
N251 S249 1.610 1_556 S
N251 C252 1.351 . S
C252 C246 1.428 . S
C252 N251 1.351 . S
C252 C253 1.434 1_556 S
C253 C244 1.429 1_554 S
C253 N250 1.350 . S
C253 C252 1.434 1_554 S
C254 C255 1.369 . S
C254 C256 1.419 . S
C254 H258 0.930 . S
C255 C254 1.369 . S
C255 C264 1.429 1_556 S
C256 C254 1.419 . S
C256 C257 1.363 . S
C256 H259 0.929 . S
C257 C256 1.363 . S
C257 C263 1.428 . S
H258 C254 0.930 . S
H259 C256 0.929 . S
S260 N261 1.613 . S
S260 N262 1.610 . S
N261 S260 1.613 . S
N261 C264 1.350 . S
N262 S260 1.610 . S
N262 C263 1.351 1_554 S
C263 C257 1.428 . S
C263 N262 1.351 1_556 S
C263 C264 1.434 1_556 S
C264 C255 1.429 1_554 S
C264 N261 1.350 . S
C264 C263 1.434 1_554 S
C265 C266 1.369 1_455 S
C265 C267 1.419 . S
C265 H269 0.930 1_556 S
C266 C265 1.369 1_655 S
C266 C275 1.429 . S
C267 C265 1.419 . S
C267 C268 1.363 1_455 S
C267 H270 0.929 . S
C268 C267 1.363 1_655 S
C268 C274 1.428 . S
H269 C265 0.930 1_554 S
H270 C267 0.929 . S
S271 N272 1.613 . S
S271 N273 1.610 . S
N272 S271 1.613 . S
N272 C275 1.350 . S
N273 S271 1.610 . S
N273 C274 1.351 . S
C274 C268 1.428 . S
C274 N273 1.351 . S
C274 C275 1.434 . S
C275 C266 1.429 . S
C275 N272 1.350 . S
C275 C274 1.434 . S
C276 C277 1.369 . S
C276 C278 1.419 1_455 S
C276 H280 0.930 . S
C277 C276 1.369 . S
C277 C286 1.429 . S
C278 C276 1.419 1_655 S
C278 C279 1.363 1_655 S
C278 H281 0.929 . S
C279 C278 1.363 1_455 S
C279 C285 1.428 . S
H280 C276 0.930 . S
H281 C278 0.929 . S
S282 N283 1.613 . S
S282 N284 1.610 . S
N283 S282 1.613 . S
N283 C286 1.350 . S
N284 S282 1.610 . S
N284 C285 1.351 . S
C285 C279 1.428 . S
C285 N284 1.351 . S
C285 C286 1.434 . S
C286 C277 1.429 . S
C286 N283 1.350 . S
C286 C285 1.434 . S
C287 C288 1.369 . S
C287 C289 1.419 . S
C287 H291 0.930 . S
C288 C287 1.369 . S
C288 C297 1.429 . S
C289 C287 1.419 . S
C289 C290 1.363 . S
C289 H292 0.929 . S
C290 C289 1.363 . S
C290 C296 1.428 1_545 S
H291 C287 0.930 . S
H292 C289 0.929 . S
S293 N294 1.613 . S
S293 N295 1.610 . S
N294 S293 1.613 . S
N294 C297 1.350 1_565 S
N295 S293 1.610 . S
N295 C296 1.351 . S
C296 C290 1.428 1_565 S
C296 N295 1.351 . S
C296 C297 1.434 1_565 S
C297 C288 1.429 . S
C297 N294 1.350 1_545 S
C297 C296 1.434 1_545 S
C298 C299 1.369 . S
C298 C300 1.419 . S
C298 H302 0.930 . S
C299 C298 1.369 . S
C299 C308 1.429 . S
C300 C298 1.419 . S
C300 C301 1.363 . S
C300 H303 0.929 . S
C301 C300 1.363 . S
C301 C307 1.428 . S
H302 C298 0.930 . S
H303 C300 0.929 . S
S304 N305 1.613 . S
S304 N306 1.610 . S
N305 S304 1.613 . S
N305 C308 1.350 . S
N306 S304 1.610 . S
N306 C307 1.351 . S
C307 C301 1.428 . S
C307 N306 1.351 . S
C307 C308 1.434 . S
C308 C299 1.429 . S
C308 N305 1.350 . S
C308 C307 1.434 . S
C309 C310 1.369 . S
C309 C311 1.419 . S
C309 H313 0.930 . S
C310 C309 1.369 . S
C310 C319 1.429 . S
C311 C309 1.419 . S
C311 C312 1.363 . S
C311 H314 0.929 . S
C312 C311 1.363 . S
C312 C318 1.428 . S
H313 C309 0.930 . S
H314 C311 0.929 . S
S315 N316 1.613 . S
S315 N317 1.610 . S
N316 S315 1.613 . S
N316 C319 1.350 . S
N317 S315 1.610 . S
N317 C318 1.351 . S
C318 C312 1.428 . S
C318 N317 1.351 . S
C318 C319 1.434 . S
C319 C310 1.429 . S
C319 N316 1.350 . S
C319 C318 1.434 . S
C320 C321 1.369 . S
C320 C322 1.419 . S
C320 H324 0.930 . S
C321 C320 1.369 . S
C321 C330 1.429 1_655 S
C322 C320 1.419 . S
C322 C323 1.363 1_655 S
C322 H325 0.929 . S
C323 C322 1.363 1_455 S
C323 C329 1.428 . S
H324 C320 0.930 . S
H325 C322 0.929 . S
S326 N327 1.614 . S
S326 N328 1.608 1_554 S
N327 S326 1.614 . S
N327 C330 1.350 1_554 S
N328 S326 1.608 1_556 S
N328 C329 1.351 . S
C329 C323 1.428 . S
C329 N328 1.351 . S
C329 C330 1.434 . S
C330 C321 1.429 1_455 S
C330 N327 1.350 1_556 S
C330 C329 1.434 . S
C331 C332 1.369 1_545 S
C331 C333 1.419 . S
C331 H335 0.930 . S
C332 C331 1.369 1_565 S
C332 C341 1.429 . S
C333 C331 1.419 . S
C333 C334 1.363 . S
C333 H336 0.929 . S
C334 C333 1.363 . S
C334 C340 1.428 1_545 S
H335 C331 0.930 . S
H336 C333 0.929 . S
S337 N338 1.613 1_556 S
S337 N339 1.610 . S
N338 S337 1.613 1_554 S
N338 C341 1.350 1_554 S
N339 S337 1.610 . S
N339 C340 1.351 . S
C340 C334 1.428 1_565 S
C340 N339 1.351 . S
C340 C341 1.434 . S
C341 C332 1.429 . S
C341 N338 1.350 1_556 S
C341 C340 1.434 . S
C342 C343 1.369 1_554 S
C342 C344 1.419 1_554 S
C342 H346 0.930 . S
C343 C342 1.369 1_556 S
C343 C352 1.429 . S
C344 C342 1.419 1_556 S
C344 C345 1.363 . S
C344 H347 0.929 . S
C345 C344 1.363 . S
C345 C351 1.428 . S
H346 C342 0.930 . S
H347 C344 0.929 . S
S348 N349 1.613 . S
S348 N350 1.610 . S
N349 S348 1.613 . S
N349 C352 1.350 . S
N350 S348 1.610 . S
N350 C351 1.351 . S
C351 C345 1.428 . S
C351 N350 1.351 . S
C351 C352 1.434 . S
C352 C343 1.429 . S
C352 N349 1.350 . S
C352 C351 1.434 . S
C353 C354 1.369 . S
C353 C355 1.419 . S
C353 H357 0.930 . S
C354 C353 1.369 . S
C354 C363 1.429 1_556 S
C355 C353 1.419 . S
C355 C356 1.363 . S
C355 H358 0.929 . S
C356 C355 1.363 . S
C356 C362 1.428 . S
H357 C353 0.930 . S
H358 C355 0.929 . S
S359 N360 1.613 . S
S359 N361 1.610 . S
N360 S359 1.613 . S
N360 C363 1.350 . S
N361 S359 1.610 . S
N361 C362 1.351 1_554 S
C362 C356 1.428 . S
C362 N361 1.351 1_556 S
C362 C363 1.434 1_556 S
C363 C354 1.429 1_554 S
C363 N360 1.350 . S
C363 C362 1.434 1_554 S
C364 C365 1.369 . S
C364 C366 1.419 1_554 S
C364 H368 0.932 . S
C365 C364 1.369 . S
C365 C374 1.429 . S
C366 C364 1.419 1_556 S
C366 C367 1.363 . S
C366 H369 0.929 . S
C367 C366 1.363 . S
C367 C373 1.428 1_556 S
H368 C364 0.932 . S
H369 C366 0.929 . S
S370 N371 1.613 . S
S370 N372 1.610 . S
N371 S370 1.613 . S
N371 C374 1.350 1_655 S
N372 S370 1.610 . S
N372 C373 1.351 1_655 S
C373 C367 1.428 1_554 S
C373 N372 1.351 1_455 S
C373 C374 1.434 . S
C374 C365 1.429 . S
C374 N371 1.350 1_455 S
C374 C373 1.434 . S
C375 C376 1.369 . S
C375 C377 1.419 1_554 S
C375 H379 0.930 1_554 S
C376 C375 1.369 . S
C376 C385 1.429 . S
C377 C375 1.419 1_556 S
C377 C378 1.363 . S
C377 H380 0.929 . S
C378 C377 1.363 . S
C378 C384 1.428 1_556 S
H379 C375 0.930 1_556 S
H380 C377 0.929 . S
S381 N382 1.613 . S
S381 N383 1.610 . S
N382 S381 1.613 . S
N382 C385 1.350 . S
N383 S381 1.610 . S
N383 C384 1.351 . S
C384 C378 1.428 1_554 S
C384 N383 1.351 . S
C384 C385 1.434 . S
C385 C376 1.429 . S
C385 N382 1.350 . S
C385 C384 1.434 . S
C386 C387 1.369 . S
C386 C388 1.419 1_554 S
C386 H390 0.930 . S
C387 C386 1.369 . S
C387 C396 1.429 . S
C388 C386 1.419 1_556 S
C388 C389 1.363 . S
C388 H391 0.929 . S
C389 C388 1.363 . S
C389 C395 1.428 1_556 S
H390 C386 0.930 . S
H391 C388 0.929 . S
S392 N393 1.613 . S
S392 N394 1.610 . S
N393 S392 1.613 . S
N393 C396 1.350 . S
N394 S392 1.610 . S
N394 C395 1.351 . S
C395 C389 1.428 1_554 S
C395 N394 1.351 . S
C395 C396 1.434 . S
C396 C387 1.429 . S
C396 N393 1.350 . S
C396 C395 1.434 . S
C397 C398 1.369 . S
C397 C399 1.419 . S
C397 H401 0.930 . S
C398 C397 1.369 . S
C398 C407 1.429 . S
C399 C397 1.419 . S
C399 C400 1.363 1_554 S
C399 H402 0.929 . S
C400 C399 1.363 1_556 S
C400 C406 1.428 . S
H401 C397 0.930 . S
H402 C399 0.929 . S
S403 N404 1.613 1_556 S
S403 N405 1.610 . S
N404 S403 1.613 1_554 S
N404 C407 1.350 . S
N405 S403 1.610 . S
N405 C406 1.351 . S
C406 C400 1.428 . S
C406 N405 1.351 . S
C406 C407 1.434 1_556 S
C407 C398 1.429 . S
C407 N404 1.350 . S
C407 C406 1.434 1_554 S
C408 C409 1.369 . S
C408 C410 1.419 . S
C408 H412 0.930 . S
C409 C408 1.369 . S
C409 C418 1.429 . S
C410 C408 1.419 . S
C410 C411 1.363 . S
C410 H413 0.929 . S
C411 C410 1.363 . S
C411 C417 1.428 1_655 S
H412 C408 0.930 . S
H413 C410 0.929 . S
S414 N415 1.613 . S
S414 N416 1.610 . S
N415 S414 1.613 . S
N415 C418 1.350 1_455 S
N416 S414 1.610 . S
N416 C417 1.352 . S
C417 C411 1.428 1_455 S
C417 N416 1.352 . S
C417 C418 1.434 1_455 S
C418 C409 1.429 . S
C418 N415 1.350 1_655 S
C418 C417 1.434 1_655 S
C419 C420 1.369 . S
C419 C421 1.419 . S
C419 H423 0.930 . S
C420 C419 1.369 . S
C420 C429 1.429 1_565 S
C421 C419 1.419 . S
C421 C422 1.363 . S
C421 H424 0.929 . S
C422 C421 1.363 . S
C422 C428 1.428 1_565 S
H423 C419 0.930 . S
H424 C421 0.929 . S
S425 N426 1.613 . S
S425 N427 1.610 . S
N426 S425 1.613 . S
N426 C429 1.350 . S
N427 S425 1.610 . S
N427 C428 1.351 . S
C428 C422 1.428 1_545 S
C428 N427 1.351 . S
C428 C429 1.434 . S
C429 C420 1.429 1_545 S
C429 N426 1.350 . S
C429 C428 1.434 . S
C430 C431 1.369 . S
C430 C432 1.419 . S
C430 H434 0.930 . S
C431 C430 1.369 . S
C431 C440 1.429 . S
C432 C430 1.419 . S
C432 C433 1.363 . S
C432 H435 0.929 . S
C433 C432 1.363 . S
C433 C439 1.428 . S
H434 C430 0.930 . S
H435 C432 0.929 . S
S436 N437 1.613 . S
S436 N438 1.610 . S
N437 S436 1.613 . S
N437 C440 1.350 . S
N438 S436 1.610 . S
N438 C439 1.351 . S
C439 C433 1.428 . S
C439 N438 1.351 . S
C439 C440 1.434 . S
C440 C431 1.429 . S
C440 N437 1.350 . S
C440 C439 1.434 . S
C441 C442 1.369 . S
C441 C443 1.419 . S
C441 H445 0.930 . S
C442 C441 1.369 . S
C442 C451 1.429 . S
C443 C441 1.419 . S
C443 C444 1.363 . S
C443 H446 0.929 . S
C444 C443 1.363 . S
C444 C450 1.428 . S
H445 C441 0.930 . S
H446 C443 0.929 . S
S447 N448 1.613 . S
S447 N449 1.610 . S
N448 S447 1.613 . S
N448 C451 1.350 . S
N449 S447 1.610 . S
N449 C450 1.351 . S
C450 C444 1.428 . S
C450 N449 1.351 . S
C450 C451 1.434 . S
C451 C442 1.429 . S
C451 N448 1.350 . S
C451 C450 1.434 . S
C189 N80 1.619 . S
C191 C119 1.459 1_545 S
C202 C143 1.463 . S
C200 N93 1.625 . S
C213 C164 1.466 . S
C211 N54 1.625 . S
C224 C182 1.458 1_455 S
C222 N67 1.620 . S
C235 C122 1.368 1_565 S
C233 N28 1.527 1_556 S
C244 N41 1.529 1_556 S
C246 C140 1.362 . S
C255 N2 1.530 1_556 S
C257 C161 1.362 . S
C266 N15 1.531 1_556 S
C268 C185 1.373 1_655 S
C279 C120 0.925 1_455 S
C277 N70 0.933 . S
C290 C138 0.914 1_545 S
C288 N83 0.932 . S
C301 C159 0.914 . S
C299 N96 0.938 . S
C310 N57 0.935 . S
C312 C183 0.913 . S
C321 N18 1.003 1_556 S
C323 C118 1.003 . S
C334 C142 1.003 . S
C332 N31 1.013 1_556 S
C345 C163 1.000 . S
C343 N44 1.012 1_556 S
C354 N5 1.012 1_556 S
C356 C181 1.005 . S
C365 N66 1.626 . S
C367 C121 1.525 . S
C376 N79 1.629 . S
C378 C139 1.530 . S
C389 C160 1.530 . S
C387 N92 1.629 . S
C400 C184 1.529 . S
C398 N53 1.631 . S
C409 N14 1.514 . S
C411 C117 1.409 . S
C422 C141 1.405 . S
C420 N27 1.517 . S
C433 C162 1.412 . S
C431 N40 1.512 . S
C442 N1 1.513 . S
C444 C180 1.412 . S
