# Generated by pormake.
# Topology pyr, (3,6)-cn, num edge types: 1
# Building blocks:
#     Node 0, Type 0, BuildingBlock: PAMTOO_clean_linker_0, # of connection points: 3
#     Node 1, Type 0, BuildingBlock: PAMTOO_clean_linker_0, # of connection points: 3
#     Node 2, Type 0, BuildingBlock: PAMTOO_clean_linker_0, # of connection points: 3
#     Node 3, Type 0, BuildingBlock: PAMTOO_clean_linker_0, # of connection points: 3
#     Node 4, Type 0, BuildingBlock: PAMTOO_clean_linker_0, # of connection points: 3
#     Node 5, Type 0, BuildingBlock: PAMTOO_clean_linker_0, # of connection points: 3
#     Node 6, Type 0, BuildingBlock: PAMTOO_clean_linker_0, # of connection points: 3
#     Node 7, Type 0, BuildingBlock: PAMTOO_clean_linker_0, # of connection points: 3
#     Node 8, Type 1, BuildingBlock: MIDCAF_clean_sbu_0, # of connection points: 6
#     Node 9, Type 1, BuildingBlock: MIDCAF_clean_sbu_0, # of connection points: 6
#     Node 10, Type 1, BuildingBlock: MIDCAF_clean_sbu_0, # of connection points: 6
#     Node 11, Type 1, BuildingBlock: MIDCAF_clean_sbu_0, # of connection points: 6
#     Edge 12, Type (0, 1), BuildingBlock: XUDNAN_clean_linker_2, # of connection points: 2
#     Edge 13, Type (0, 1), BuildingBlock: XUDNAN_clean_linker_2, # of connection points: 2
#     Edge 14, Type (0, 1), BuildingBlock: XUDNAN_clean_linker_2, # of connection points: 2
#     Edge 15, Type (0, 1), BuildingBlock: XUDNAN_clean_linker_2, # of connection points: 2
#     Edge 16, Type (0, 1), BuildingBlock: XUDNAN_clean_linker_2, # of connection points: 2
#     Edge 17, Type (0, 1), BuildingBlock: XUDNAN_clean_linker_2, # of connection points: 2
#     Edge 18, Type (0, 1), BuildingBlock: XUDNAN_clean_linker_2, # of connection points: 2
#     Edge 19, Type (0, 1), BuildingBlock: XUDNAN_clean_linker_2, # of connection points: 2
#     Edge 20, Type (0, 1), BuildingBlock: XUDNAN_clean_linker_2, # of connection points: 2
#     Edge 21, Type (0, 1), BuildingBlock: XUDNAN_clean_linker_2, # of connection points: 2
#     Edge 22, Type (0, 1), BuildingBlock: XUDNAN_clean_linker_2, # of connection points: 2
#     Edge 23, Type (0, 1), BuildingBlock: XUDNAN_clean_linker_2, # of connection points: 2
#     Edge 24, Type (0, 1), BuildingBlock: XUDNAN_clean_linker_2, # of connection points: 2
#     Edge 25, Type (0, 1), BuildingBlock: XUDNAN_clean_linker_2, # of connection points: 2
#     Edge 26, Type (0, 1), BuildingBlock: XUDNAN_clean_linker_2, # of connection points: 2
#     Edge 27, Type (0, 1), BuildingBlock: XUDNAN_clean_linker_2, # of connection points: 2
#     Edge 28, Type (0, 1), BuildingBlock: XUDNAN_clean_linker_2, # of connection points: 2
#     Edge 29, Type (0, 1), BuildingBlock: XUDNAN_clean_linker_2, # of connection points: 2
#     Edge 30, Type (0, 1), BuildingBlock: XUDNAN_clean_linker_2, # of connection points: 2
#     Edge 31, Type (0, 1), BuildingBlock: XUDNAN_clean_linker_2, # of connection points: 2
#     Edge 32, Type (0, 1), BuildingBlock: XUDNAN_clean_linker_2, # of connection points: 2
#     Edge 33, Type (0, 1), BuildingBlock: XUDNAN_clean_linker_2, # of connection points: 2
#     Edge 34, Type (0, 1), BuildingBlock: XUDNAN_clean_linker_2, # of connection points: 2
#     Edge 35, Type (0, 1), BuildingBlock: XUDNAN_clean_linker_2, # of connection points: 2
# Relax obj value: 0.095
# Max RMSD: 0.201
# Mean RMSD: 0.141
data_MOF--net-pry--node1-MIDCAF_clean_sbu_0--node2-PAMTOO_clean_linker_0--edge1-XUDNAN_clean_linker_2
_symmetry_space_group_name_H-M    P1
_symmetry_Int_Tables_number       1
_symmetry_cell_setting            triclinic
loop_
_symmetry_equiv_pos_as_xyz
'x, y, z'
_cell_length_a     34.731325
_cell_length_b     35.95874
_cell_length_c     35.378581
_cell_angle_alpha  89.795341
_cell_angle_beta   91.363618
_cell_angle_gamma 95.258729
loop_
_atom_site_label
_atom_site_type_symbol
_atom_site_fract_x
_atom_site_fract_y
_atom_site_fract_z
_atom_type_partial_charge
H0 H 0.18888 0.26092 0.26361 0.0
H1 H 0.28039 0.19258 0.29258 0.0
H2 H 0.28758 0.25694 0.19125 0.0
H3 H 0.29324 0.16698 0.19509 0.0
C4 C 0.31852 0.17189 0.21499 0.0
O5 O 0.31932 0.20696 0.23122 0.0
H6 H 0.31542 0.15054 0.2378 0.0
C7 C 0.21647 0.25116 0.25696 0.0
C8 C 0.23585 0.26336 0.22364 0.0
C9 C 0.23279 0.22637 0.28242 0.0
C10 C 0.26788 0.21227 0.27371 0.0
C11 C 0.28647 0.22232 0.24013 0.0
C12 C 0.27112 0.24832 0.21582 0.0
H13 H 0.29035 0.87957 0.76043 0.0
H14 H 0.26909 0.79717 0.6719 0.0
H15 H 0.35886 0.78627 0.75537 0.0
H16 H 0.38038 0.78071 0.67584 0.0
C17 C 0.354 0.76414 0.66446 0.0
O18 O 0.32675 0.75908 0.69229 0.0
H19 H 0.34231 0.78049 0.64073 0.0
C20 C 0.29626 0.85372 0.74705 0.0
C21 C 0.326 0.83387 0.76231 0.0
C22 C 0.27479 0.8408 0.71459 0.0
C23 C 0.2847 0.80791 0.69699 0.0
C24 C 0.31532 0.78868 0.71132 0.0
C25 C 0.33525 0.80121 0.74444 0.0
H26 H 0.81289 0.26694 0.86977 0.0
H27 H 0.72055 0.23937 0.7888 0.0
H28 H 0.8017 0.33359 0.76918 0.0
H29 H 0.70328 0.32754 0.77148 0.0
C30 C 0.70477 0.31095 0.7451 0.0
O31 O 0.73934 0.29472 0.74372 0.0
H32 H 0.68069 0.28834 0.74529 0.0
C33 C 0.79852 0.27232 0.84318 0.0
C34 C 0.81208 0.30338 0.82123 0.0
C35 C 0.76557 0.24881 0.83215 0.0
C36 C 0.74666 0.25611 0.79771 0.0
C37 C 0.75954 0.28682 0.77549 0.0
C38 C 0.7922 0.31019 0.78703 0.0
H39 H 0.79075 0.77124 0.35458 0.0
H40 H 0.81957 0.68125 0.28362 0.0
H41 H 0.90031 0.77647 0.29916 0.0
H42 H 0.89988 0.75579 0.22073 0.0
C43 C 0.88166 0.72883 0.22286 0.0
O44 O 0.88306 0.71623 0.25982 0.0
H45 H 0.85136 0.73367 0.21451 0.0
C46 C 0.81126 0.75855 0.33743 0.0
C47 C 0.84763 0.77808 0.33108 0.0
C48 C 0.80127 0.7225 0.32263 0.0
C49 C 0.82602 0.70853 0.29622 0.0
C50 C 0.86052 0.72917 0.2866 0.0
C51 C 0.87207 0.76283 0.30515 0.0
H52 H 0.88837 0.94663 0.85112 0.0
H53 H 0.8815 0.88399 0.95517 0.0
H54 H 0.9687 0.86456 0.87603 0.0
H55 H 0.90969 0.79925 0.91345 0.0
C56 C 0.91848 0.80918 0.94247 0.0
O57 O 0.93831 0.84423 0.94086 0.0
H58 H 0.89156 0.81075 0.95857 0.0
C59 C 0.89948 0.92621 0.87008 0.0
C60 C 0.93154 0.90744 0.85945 0.0
C61 C 0.88059 0.91753 0.90425 0.0
C62 C 0.89498 0.89063 0.92837 0.0
C63 C 0.92617 0.87125 0.9179 0.0
C64 C 0.94428 0.87951 0.88351 0.0
H65 H 0.69384 0.08107 0.33737 0.0
H66 H 0.62526 0.17114 0.36482 0.0
H67 H 0.72219 0.14936 0.43568 0.0
H68 H 0.66475 0.17255 0.47959 0.0
C69 C 0.64714 0.18752 0.45888 0.0
O70 O 0.66645 0.19206 0.42528 0.0
H71 H 0.61906 0.17046 0.45403 0.0
C72 C 0.68772 0.10376 0.35572 0.0
C73 C 0.71131 0.11181 0.38808 0.0
C74 C 0.65655 0.12508 0.34677 0.0
C75 C 0.64916 0.15452 0.37089 0.0
C76 C 0.67275 0.16292 0.40293 0.0
C77 C 0.70379 0.14189 0.41119 0.0
H78 H 0.38712 0.64247 0.05541 0.0
H79 H 0.43492 0.58066 0.14748 0.0
H80 H 0.48767 0.6888 0.11807 0.0
H81 H 0.54574 0.64406 0.14905 0.0
C82 C 0.52635 0.62153 0.16216 0.0
O83 O 0.48969 0.63291 0.16469 0.0
H84 H 0.52591 0.59608 0.14423 0.0
C85 C 0.40941 0.63936 0.07686 0.0
C86 C 0.43822 0.66878 0.08318 0.0
C87 C 0.40759 0.6074 0.10026 0.0
C88 C 0.43595 0.60477 0.12894 0.0
C89 C 0.4649 0.63395 0.13491 0.0
C90 C 0.46585 0.66586 0.1123 0.0
H91 H 0.07956 0.35276 0.66952 0.0
H92 H 0.13479 0.46218 0.6959 0.0
H93 H 0.1713 0.40269 0.60067 0.0
H94 H 0.22665 0.44136 0.66651 0.0
C95 C 0.21819 0.4687 0.65576 0.0
O96 O 0.18136 0.46482 0.6397 0.0
H97 H 0.2185 0.48827 0.68002 0.0
C98 C 0.10052 0.37603 0.66319 0.0
C99 C 0.12487 0.3738 0.63215 0.0
C100 C 0.1036 0.40778 0.68651 0.0
C101 C 0.13111 0.43763 0.67805 0.0
C102 C 0.15531 0.43571 0.64732 0.0
C103 C 0.15237 0.40384 0.62446 0.0
Zn104 Zn 0.98774 0.07076 0.57126 0.0
Zn105 Zn 0.07737 0.00064 0.48481 0.0
Zn106 Zn 0.03442 0.03622 0.5316 0.0
C107 C 0.09708 0.07694 0.4741 0.0
C108 C 0.00194 0.97767 0.46488 0.0
O109 O 0.0356 0.01154 0.59029 0.0
O110 O 0.99333 0.04353 0.61887 0.0
C111 C 0.04356 0.12524 0.54757 0.0
O112 O 0.07574 0.07879 0.50334 0.0
O113 O 0.10096 0.04588 0.45887 0.0
O114 O 0.03555 0.96989 0.45708 0.0
O115 O 0.99708 0.00253 0.49014 0.0
O116 O 0.01368 0.12143 0.5673 0.0
O117 O 0.05577 0.09663 0.53128 0.0
O118 O 0.9746 0.02884 0.50553 0.0
O119 O 0.93899 0.06061 0.54232 0.0
C120 C 0.94183 0.04106 0.51319 0.0
O121 O 0.06644 0.99914 0.56871 0.0
O122 O 0.10603 0.97783 0.52753 0.0
C123 C 0.01613 0.01817 0.61986 0.0
C124 C 0.09509 0.98011 0.56124 0.0
Zn125 Zn 0.51666 0.05262 0.96983 0.0
Zn126 Zn 0.58014 0.96406 0.06149 0.0
Zn127 Zn 0.54851 0.00749 0.0172 0.0
C128 C 0.63534 0.98261 0.00809 0.0
C129 C 0.51844 0.92131 0.03092 0.0
O130 O 0.52089 0.04871 0.05237 0.0
O131 O 0.49355 0.08276 0.00887 0.0
C132 C 0.59486 0.06328 0.95788 0.0
O133 O 0.61054 0.00631 0.99998 0.0
O134 O 0.62793 0.95846 0.03347 0.0
O135 O 0.54074 0.92161 0.05954 0.0
O136 O 0.51852 0.95023 0.00921 0.0
O137 O 0.56379 0.07505 0.94577 0.0
O138 O 0.59454 0.03755 0.98343 0.0
O139 O 0.50286 0.97389 0.98191 0.0
O140 O 0.48336 0.01517 0.94084 0.0
C141 C 0.48187 0.98202 0.95287 0.0
O142 O 0.54498 0.02942 0.07628 0.0
O143 O 0.58304 0.99379 0.10799 0.0
C144 C 0.50016 0.07555 0.04326 0.0
C145 C 0.56253 0.02099 0.10732 0.0
Zn146 Zn 0.58667 0.56631 0.55485 0.0
Zn147 Zn 0.50243 0.47022 0.46432 0.0
Zn148 Zn 0.54467 0.51724 0.50946 0.0
C149 C 0.55321 0.42809 0.5041 0.0
C150 C 0.53846 0.52407 0.41783 0.0
O151 O 0.50464 0.54869 0.543 0.0
O152 O 0.54224 0.58902 0.57765 0.0
C153 C 0.60733 0.49414 0.57256 0.0
O154 O 0.56355 0.46029 0.51896 0.0
O155 O 0.5263 0.42462 0.47939 0.0
O156 O 0.51605 0.49444 0.41569 0.0
O157 O 0.55262 0.53577 0.45015 0.0
O158 O 0.61352 0.52781 0.58285 0.0
O159 O 0.58286 0.4849 0.54546 0.0
O160 O 0.58209 0.55477 0.47316 0.0
O161 O 0.61617 0.59252 0.51326 0.0
C162 C 0.609 0.58126 0.47981 0.0
O163 O 0.48298 0.51924 0.52359 0.0
O164 O 0.45163 0.47854 0.48432 0.0
C165 C 0.50876 0.57584 0.567 0.0
C166 C 0.4512 0.50191 0.51077 0.0
Zn167 Zn 0.10504 0.543 0.97378 0.0
Zn168 Zn 0.01383 0.46001 0.07003 0.0
Zn169 Zn 0.06193 0.50521 0.02228 0.0
C170 C 0.09205 0.44755 0.08655 0.0
C171 C 0.99447 0.44227 0.99343 0.0
O172 O 0.04906 0.56509 0.02661 0.0
O173 O 0.08704 0.59218 0.98325 0.0
C174 C 0.15498 0.51181 0.02558 0.0
O175 O 0.09852 0.47262 0.06063 0.0
O176 O 0.05784 0.43745 0.09618 0.0
O177 O 0.9845 0.43263 0.02647 0.0
O178 O 0.02258 0.46753 0.98827 0.0
O179 O 0.15501 0.53129 0.99583 0.0
O180 O 0.12269 0.49918 0.04017 0.0
O181 O 0.05013 0.48379 0.96362 0.0
O182 O 0.08748 0.51931 0.92571 0.0
C183 C 0.06214 0.49237 0.93024 0.0
O184 O 0.02599 0.54232 0.05211 0.0
O185 O 0.99293 0.50517 0.09262 0.0
C186 C 0.06164 0.5944 0.00783 0.0
C187 C 0.00152 0.53731 0.0789 0.0
H188 H 0.15935 0.19256 0.29158 0.0
H189 H 0.26408 0.2319 0.3537 0.0
H190 H 0.23601 0.20568 0.41274 0.0
H191 H 0.08982 0.20448 0.36933 0.0
H192 H 0.0608 0.162 0.35676 0.0
H193 H 0.08638 0.1892 0.32079 0.0
H194 H 0.12005 0.13111 0.30105 0.0
H195 H 0.09458 0.10383 0.33681 0.0
H196 H 0.14665 0.10674 0.33617 0.0
H197 H 0.20033 0.1681 0.46311 0.0
H198 H 0.16085 0.1204 0.49967 0.0
H199 H 0.07908 0.10529 0.40564 0.0
C200 C 0.17576 0.19663 0.31789 0.0
C201 C 0.21366 0.21466 0.31827 0.0
C202 C 0.23489 0.21839 0.35294 0.0
C203 C 0.21911 0.20372 0.38661 0.0
C204 C 0.18199 0.1853 0.38524 0.0
C205 C 0.16053 0.18174 0.35176 0.0
C206 C 0.12316 0.15718 0.35716 0.0
C207 C 0.08795 0.17956 0.35062 0.0
C208 C 0.12102 0.12268 0.33127 0.0
C209 C 0.12756 0.14649 0.39847 0.0
C210 C 0.16135 0.16356 0.4144 0.0
C211 C 0.17324 0.15546 0.45129 0.0
C212 C 0.15044 0.12869 0.4721 0.0
C213 C 0.11609 0.11063 0.4561 0.0
C214 C 0.10444 0.11994 0.41898 0.0
H215 H 0.37297 0.89847 0.76725 0.0
H216 H 0.32957 0.80226 0.83262 0.0
H217 H 0.36505 0.82889 0.88963 0.0
H218 H 0.4689 0.90781 0.81144 0.0
H219 H 0.47288 0.95809 0.80914 0.0
H220 H 0.44403 0.93109 0.77423 0.0
H221 H 0.38478 0.96653 0.79028 0.0
H222 H 0.4134 0.99353 0.82533 0.0
H223 H 0.36901 0.96724 0.83844 0.0
H224 H 0.40185 0.86982 0.94078 0.0
H225 H 0.44099 0.91792 0.97899 0.0
H226 H 0.46502 0.98289 0.87767 0.0
C227 C 0.37114 0.88303 0.7936 0.0
C228 C 0.34855 0.84854 0.7959 0.0
C229 C 0.34688 0.82879 0.83057 0.0
C230 C 0.36681 0.84374 0.86298 0.0
C231 C 0.38871 0.87813 0.8599 0.0
C232 C 0.39138 0.89718 0.82587 0.0
C233 C 0.41729 0.93317 0.82957 0.0
C234 C 0.45289 0.93248 0.80462 0.0
C235 C 0.39476 0.96711 0.82037 0.0
C236 C 0.4284 0.93182 0.87111 0.0
C237 C 0.41151 0.90008 0.88837 0.0
C238 C 0.4161 0.89419 0.92723 0.0
C239 C 0.43892 0.92122 0.94869 0.0
C240 C 0.4576 0.95309 0.93114 0.0
C241 C 0.45175 0.95842 0.8919 0.0
H242 H 0.64077 0.31561 0.6984 0.0
H243 H 0.75728 0.36631 0.7198 0.0
H244 H 0.74699 0.41441 0.67143 0.0
H245 H 0.6367 0.33657 0.59459 0.0
H246 H 0.58683 0.34669 0.59544 0.0
H247 H 0.60434 0.31274 0.62763 0.0
H248 H 0.5812 0.34856 0.68472 0.0
H249 H 0.56291 0.38242 0.65312 0.0
H250 H 0.59697 0.39744 0.69047 0.0
H251 H 0.72171 0.46107 0.62813 0.0
H252 H 0.68329 0.50363 0.5915 0.0
H253 H 0.58269 0.42314 0.59678 0.0
C254 C 0.66447 0.33617 0.69192 0.0
C255 C 0.70023 0.33679 0.71202 0.0
C256 C 0.73012 0.36488 0.70397 0.0
C257 C 0.72448 0.39226 0.67659 0.0
C258 C 0.68877 0.39112 0.65754 0.0
C259 C 0.6593 0.36368 0.66458 0.0
C260 C 0.6226 0.37085 0.64259 0.0
C261 C 0.61199 0.33988 0.61331 0.0
C262 C 0.58896 0.37508 0.66933 0.0
C263 C 0.63555 0.40754 0.62349 0.0
C264 C 0.67401 0.41834 0.63213 0.0
C265 C 0.69184 0.45258 0.62053 0.0
C266 C 0.66975 0.47663 0.59995 0.0
C267 C 0.63027 0.46638 0.59104 0.0
C268 C 0.61307 0.43118 0.60251 0.0
H269 H 0.9279 0.67013 0.23673 0.0
H270 H 0.86993 0.72735 0.14679 0.0
H271 H 0.89478 0.68535 0.09974 0.0
H272 H 0.01296 0.65479 0.18533 0.0
H273 H 0.01761 0.60927 0.20547 0.0
H274 H 0.99538 0.64387 0.23199 0.0
H275 H 0.934 0.59796 0.23948 0.0
H276 H 0.9561 0.56318 0.21307 0.0
H277 H 0.90973 0.5774 0.19795 0.0
H278 H 0.92551 0.63674 0.06257 0.0
H279 H 0.96053 0.5851 0.03809 0.0
H280 H 0.99741 0.55912 0.15223 0.0
C281 C 0.92004 0.67359 0.20722 0.0
C282 C 0.8962 0.70152 0.1954 0.0
C283 C 0.88753 0.70565 0.15638 0.0
C284 C 0.90158 0.68203 0.12951 0.0
C285 C 0.92449 0.65445 0.14209 0.0
C286 C 0.93365 0.65009 0.18001 0.0
C287 C 0.95883 0.61823 0.18604 0.0
C288 C 0.99855 0.6324 0.20322 0.0
C289 C 0.93843 0.58736 0.21058 0.0
C290 C 0.96227 0.6053 0.14565 0.0
C291 C 0.94236 0.62664 0.12069 0.0
C292 C 0.94126 0.61991 0.08185 0.0
C293 C 0.96127 0.59072 0.06818 0.0
C294 C 0.98198 0.5688 0.09331 0.0
C295 C 0.98207 0.5759 0.1325 0.0
H296 H 0.36084 0.1108 0.21191 0.0
H297 H 0.35503 0.22206 0.16593 0.0
H298 H 0.40838 0.21193 0.1232 0.0
H299 H 0.46908 0.1078 0.20312 0.0
H300 H 0.46365 0.05925 0.18989 0.0
H301 H 0.42984 0.07722 0.2215 0.0
H302 H 0.37296 0.05277 0.17677 0.0
H303 H 0.40651 0.0348 0.14515 0.0
H304 H 0.37326 0.06692 0.12782 0.0
H305 H 0.45529 0.18728 0.08018 0.0
H306 H 0.49197 0.14948 0.03847 0.0
H307 H 0.46878 0.05353 0.11172 0.0
C308 C 0.37182 0.13346 0.19375 0.0
C309 C 0.35468 0.16772 0.19302 0.0
C310 C 0.36855 0.19611 0.16771 0.0
C311 C 0.39881 0.19056 0.14337 0.0
C312 C 0.41492 0.1564 0.1446 0.0
C313 C 0.40214 0.12834 0.1693 0.0
C314 C 0.42175 0.09296 0.16219 0.0
C315 C 0.4476 0.08378 0.19621 0.0
C316 C 0.39183 0.05994 0.15239 0.0
C317 C 0.44599 0.10492 0.12839 0.0
C318 C 0.44213 0.14187 0.11927 0.0
C319 C 0.4591 0.15858 0.08746 0.0
C320 C 0.47978 0.13683 0.06387 0.0
C321 C 0.48347 0.09872 0.07207 0.0
C322 C 0.46711 0.08281 0.10528 0.0
H323 H 0.25271 0.84967 0.63958 0.0
H324 H 0.22431 0.8809 0.75345 0.0
H325 H 0.17495 0.91942 0.72722 0.0
H326 H 0.24091 0.93568 0.5949 0.0
H327 H 0.21889 0.91531 0.55224 0.0
H328 H 0.25194 0.89003 0.57999 0.0
H329 H 0.1998 0.83399 0.58514 0.0
H330 H 0.16662 0.85904 0.5572 0.0
H331 H 0.153 0.84139 0.60319 0.0
H332 H 0.13142 0.95864 0.6877 0.0
H333 H 0.09486 0.99075 0.63857 0.0
H334 H 0.14653 0.92786 0.55186 0.0
C335 C 0.23576 0.86392 0.65925 0.0
C336 C 0.24307 0.86228 0.69875 0.0
C337 C 0.22027 0.88221 0.72306 0.0
C338 C 0.19179 0.90401 0.70845 0.0
C339 C 0.18578 0.90525 0.66942 0.0
C340 C 0.20678 0.88529 0.64523 0.0
C341 C 0.19461 0.89112 0.60441 0.0
C342 C 0.22861 0.90911 0.58156 0.0
C343 C 0.17748 0.85419 0.58644 0.0
C344 C 0.16386 0.91787 0.60937 0.0
C345 C 0.15926 0.92592 0.64702 0.0
C346 C 0.13409 0.95174 0.65818 0.0
C347 C 0.11298 0.96954 0.6301 0.0
C348 C 0.11643 0.96087 0.59139 0.0
C349 C 0.14246 0.93471 0.58119 0.0
H350 H 0.87434 0.28805 0.86757 0.0
H351 H 0.82394 0.37976 0.80998 0.0
H352 H 0.87224 0.4241 0.84139 0.0
H353 H 0.88006 0.33132 0.95427 0.0
H354 H 0.92424 0.31294 0.97016 0.0
H355 H 0.89288 0.28737 0.93627 0.0
H356 H 0.94948 0.28695 0.88979 0.0
H357 H 0.98118 0.31236 0.92375 0.0
H358 H 0.9757 0.33048 0.87656 0.0
H359 H 0.92173 0.45937 0.88382 0.0
H360 H 0.96379 0.48267 0.93768 0.0
H361 H 0.97387 0.36899 0.97494 0.0
C362 C 0.8732 0.31736 0.86121 0.0
C363 C 0.84479 0.32994 0.83596 0.0
C364 C 0.84561 0.36879 0.82827 0.0
C365 C 0.87294 0.39444 0.84625 0.0
C366 C 0.89907 0.38105 0.87228 0.0
C367 C 0.89924 0.3434 0.87993 0.0
C368 C 0.92637 0.33652 0.91292 0.0
C369 C 0.90457 0.31583 0.94531 0.0
C370 C 0.96019 0.31532 0.89997 0.0
C371 C 0.9401 0.37628 0.92376 0.0
C372 C 0.92519 0.40148 0.89902 0.0
C373 C 0.93358 0.43988 0.90329 0.0
C374 C 0.95733 0.45284 0.93394 0.0
C375 C 0.97152 0.42752 0.9604 0.0
C376 C 0.96301 0.38879 0.95514 0.0
H377 H 0.76766 0.72639 0.39244 0.0
H378 H 0.75652 0.66354 0.28719 0.0
H379 H 0.70573 0.62065 0.31541 0.0
H380 H 0.75276 0.65413 0.4556 0.0
H381 H 0.72375 0.67829 0.48731 0.0
H382 H 0.75895 0.70437 0.45877 0.0
H383 H 0.70591 0.74316 0.43043 0.0
H384 H 0.67054 0.71762 0.45936 0.0
H385 H 0.66298 0.71946 0.40883 0.0
H386 H 0.66205 0.57974 0.35925 0.0
H387 H 0.62236 0.55091 0.41054 0.0
H388 H 0.65371 0.64781 0.48102 0.0
C389 C 0.75403 0.70463 0.37434 0.0
C390 C 0.76699 0.69874 0.3373 0.0
C391 C 0.74838 0.66857 0.3159 0.0
C392 C 0.71906 0.64409 0.33158 0.0
C393 C 0.70772 0.65067 0.3683 0.0
C394 C 0.72397 0.68085 0.38891 0.0
C395 C 0.70646 0.68237 0.42755 0.0
C396 C 0.73732 0.67961 0.45915 0.0
C397 C 0.6852 0.71775 0.43178 0.0
C398 C 0.67843 0.64769 0.42593 0.0
C399 C 0.67986 0.62941 0.39176 0.0
C400 C 0.65951 0.59465 0.38547 0.0
C401 C 0.63664 0.57866 0.4146 0.0
C402 C 0.63295 0.59807 0.44891 0.0
C403 C 0.65466 0.63283 0.4546 0.0
H404 H 0.18546 0.31753 0.2394 0.0
H405 H 0.24822 0.27401 0.14667 0.0
H406 H 0.22571 0.32235 0.10503 0.0
H407 H 0.10161 0.33006 0.18178 0.0
H408 H 0.09009 0.37102 0.20684 0.0
H409 H 0.11545 0.33612 0.23097 0.0
H410 H 0.17024 0.3869 0.24999 0.0
H411 H 0.14527 0.42185 0.22534 0.0
H412 H 0.19438 0.41498 0.21378 0.0
H413 H 0.19618 0.3762 0.07236 0.0
H414 H 0.15215 0.42207 0.04898 0.0
H415 H 0.1015 0.42417 0.15963 0.0
C416 C 0.19451 0.31753 0.21039 0.0
C417 C 0.21998 0.29182 0.19738 0.0
C418 C 0.23047 0.29389 0.15869 0.0
C419 C 0.21748 0.3213 0.13435 0.0
C420 C 0.19302 0.34623 0.14841 0.0
C421 C 0.18081 0.34394 0.18527 0.0
C422 C 0.15112 0.37146 0.19224 0.0
C423 C 0.11227 0.35094 0.20361 0.0
C424 C 0.16616 0.40051 0.22211 0.0
C425 C 0.14825 0.38923 0.15341 0.0
C426 C 0.17352 0.37508 0.12881 0.0
C427 C 0.17618 0.38735 0.09138 0.0
C428 C 0.15132 0.41365 0.07839 0.0
C429 C 0.12359 0.42673 0.10251 0.0
C430 C 0.12262 0.41478 0.14065 0.0
H431 H 0.72561 0.18088 0.81324 0.0
H432 H 0.76655 0.24876 0.91014 0.0
H433 H 0.73731 0.20098 0.95263 0.0
H434 H 0.63437 0.15898 0.84845 0.0
H435 H 0.6277 0.11231 0.82947 0.0
H436 H 0.65921 0.14738 0.80651 0.0
H437 H 0.71541 0.10472 0.81234 0.0
H438 H 0.68392 0.06955 0.83558 0.0
H439 H 0.72893 0.08727 0.85815 0.0
H440 H 0.69765 0.15055 0.98497 0.0
H441 H 0.64463 0.10421 0.00407 0.0
H442 H 0.62362 0.07196 0.88705 0.0
C443 C 0.7289 0.18568 0.84336 0.0
C444 C 0.74946 0.21856 0.85795 0.0
C445 C 0.75257 0.2234 0.89778 0.0
C446 C 0.73578 0.19638 0.9224 0.0
C447 C 0.71539 0.16472 0.90701 0.0
C448 C 0.71147 0.15939 0.86841 0.0
C449 C 0.68341 0.12568 0.85913 0.0
C450 C 0.64915 0.13677 0.83446 0.0
C451 C 0.70417 0.09499 0.84017 0.0
C452 C 0.67089 0.11402 0.89848 0.0
C453 C 0.6907 0.13619 0.92574 0.0
C454 C 0.68247 0.13252 0.96401 0.0
C455 C 0.65247 0.10617 0.97462 0.0
C456 C 0.63109 0.08412 0.94702 0.0
C457 C 0.64059 0.0878 0.90861 0.0
H458 H 0.90289 0.83646 0.31293 0.0
H459 H 0.82418 0.79815 0.40195 0.0
H460 H 0.84749 0.85237 0.43998 0.0
H461 H 0.98036 0.85678 0.3757 0.0
H462 H 0.00158 0.89643 0.34974 0.0
H463 H 0.9727 0.85965 0.32522 0.0
H464 H 0.92841 0.90796 0.29792 0.0
H465 H 0.95716 0.94493 0.32263 0.0
H466 H 0.90577 0.93799 0.32966 0.0
H467 H 0.88287 0.90769 0.4717 0.0
H468 H 0.93388 0.95366 0.49764 0.0
H469 H 0.99553 0.95072 0.39273 0.0
C470 C 0.89011 0.83918 0.34022 0.0
C471 C 0.86061 0.81271 0.35336 0.0
C472 C 0.84533 0.8183 0.38969 0.0
C473 C 0.85867 0.84914 0.41199 0.0
C474 C 0.88802 0.87408 0.39831 0.0
C475 C 0.90404 0.86911 0.36354 0.0
C476 C 0.9392 0.89661 0.35791 0.0
C477 C 0.9756 0.87614 0.3518 0.0
C478 C 0.9322 0.92346 0.32508 0.0
C479 C 0.94117 0.91682 0.39551 0.0
C480 C 0.91056 0.90432 0.41787 0.0
C481 C 0.90682 0.91791 0.45435 0.0
C482 C 0.93582 0.9441 0.46881 0.0
C483 C 0.96844 0.95568 0.4471 0.0
C484 C 0.97071 0.94239 0.40978 0.0
H485 H 0.41151 0.72265 0.69127 0.0
H486 H 0.32189 0.72342 0.60416 0.0
H487 H 0.34662 0.6686 0.57393 0.0
H488 H 0.48512 0.70499 0.63419 0.0
H489 H 0.50859 0.67442 0.66599 0.0
H490 H 0.47971 0.70878 0.68456 0.0
H491 H 0.43772 0.657 0.71986 0.0
H492 H 0.4668 0.62242 0.70157 0.0
H493 H 0.41511 0.61753 0.6938 0.0
H494 H 0.388 0.62133 0.54739 0.0
H495 H 0.44081 0.58436 0.52833 0.0
H496 H 0.50221 0.61215 0.63394 0.0
C497 C 0.39649 0.71048 0.66647 0.0
C498 C 0.36496 0.72722 0.64985 0.0
C499 C 0.34611 0.71092 0.61722 0.0
C500 C 0.35994 0.67978 0.59994 0.0
C501 C 0.39222 0.66487 0.61606 0.0
C502 C 0.40988 0.67933 0.64898 0.0
C503 C 0.44605 0.66037 0.65876 0.0
C504 C 0.48197 0.68884 0.66098 0.0
C505 C 0.44111 0.638 0.69569 0.0
C506 C 0.44727 0.63458 0.62512 0.0
C507 C 0.4156 0.63703 0.60113 0.0
C508 C 0.41228 0.61833 0.56655 0.0
C509 C 0.44226 0.59703 0.55607 0.0
C510 C 0.47495 0.59417 0.58021 0.0
C511 C 0.47712 0.61301 0.6153 0.0
H512 H 0.94994 0.97689 0.82885 0.0
H513 H 0.95759 0.85912 0.80757 0.0
H514 H 0.9883 0.8748 0.74644 0.0
H515 H 0.92378 0.00103 0.73639 0.0
H516 H 0.95113 0.04612 0.73732 0.0
H517 H 0.93343 0.02533 0.78058 0.0
H518 H 0.0032 0.03151 0.8091 0.0
H519 H 0.02116 0.05202 0.76565 0.0
H520 H 0.04108 0.01114 0.78465 0.0
H521 H 0.01288 0.90385 0.68409 0.0
H522 H 0.02628 0.94312 0.62718 0.0
H523 H 0.00379 0.04116 0.69098 0.0
C524 C 0.95821 0.95435 0.81145 0.0
C525 C 0.95133 0.91676 0.82314 0.0
C526 C 0.96295 0.88818 0.79953 0.0
C527 C 0.9804 0.89682 0.76469 0.0
C528 C 0.98649 0.93422 0.75392 0.0
C529 C 0.97581 0.96248 0.7768 0.0
C530 C 0.98343 1.00026 0.75814 0.0
C531 C 0.9457 0.01928 0.75278 0.0
C532 C 0.01404 0.02519 0.78074 0.0
C533 C 0.99891 0.98886 0.72068 0.0
C534 C 1.00099 0.95074 0.71873 0.0
C535 C 0.01198 0.9338 0.68562 0.0
C536 C 0.01984 0.9563 0.65348 0.0
C537 C 0.0167 0.99524 0.6548 0.0
C538 C 0.00705 0.01154 0.68922 0.0
H539 H 0.62872 0.05671 0.31844 0.0
H540 H 0.6309 0.17541 0.29548 0.0
H541 H 0.59602 0.16178 0.23464 0.0
H542 H 0.65025 0.03035 0.22885 0.0
H543 H 0.61963 0.98707 0.22868 0.0
H544 H 0.63863 0.00661 0.27266 0.0
H545 H 0.56896 0.00572 0.2978 0.0
H546 H 0.54976 0.98632 0.25359 0.0
H547 H 0.53311 0.02883 0.27127 0.0
H548 H 0.56919 0.13458 0.172 0.0
H549 H 0.55605 0.09658 0.11405 0.0
H550 H 0.57035 0.99626 0.17909 0.0
C551 C 0.62139 0.07988 0.30088 0.0
C552 C 0.63251 0.11711 0.3118 0.0
C553 C 0.62223 0.14663 0.288 0.0
C554 C 0.6024 0.13916 0.25335 0.0
C555 C 0.59255 0.10203 0.24308 0.0
C556 C 0.60154 0.07291 0.26638 0.0
C557 C 0.59116 0.03553 0.24762 0.0
C558 C 0.62705 0.01364 0.24424 0.0
C559 C 0.55882 0.01276 0.26884 0.0
C560 C 0.57678 0.04811 0.20939 0.0
C561 C 0.57694 0.0865 0.20738 0.0
C562 C 0.56812 0.10445 0.17355 0.0
C563 C 0.56033 0.08266 0.14078 0.0
C564 C 0.56161 0.04347 0.14219 0.0
C565 C 0.56869 0.02615 0.17725 0.0
H566 H 0.5313 0.55352 0.19639 0.0
H567 H 0.55051 0.67254 0.21662 0.0
H568 H 0.56313 0.66055 0.28459 0.0
H569 H 0.47995 0.53111 0.27536 0.0
H570 H 0.49974 0.48739 0.28523 0.0
H571 H 0.49863 0.50493 0.23763 0.0
H572 H 0.57268 0.50184 0.23332 0.0
H573 H 0.57399 0.48377 0.28088 0.0
H574 H 0.60455 0.52506 0.26859 0.0
H575 H 0.56272 0.63578 0.3511 0.0
H576 H 0.55374 0.59986 0.41052 0.0
H577 H 0.53837 0.49694 0.34621 0.0
C578 C 0.53957 0.57691 0.21497 0.0
C579 C 0.54077 0.61389 0.20145 0.0
C580 C 0.55031 0.64402 0.2266 0.0
C581 C 0.55743 0.63745 0.26512 0.0
C582 C 0.55521 0.60059 0.2778 0.0
C583 C 0.54711 0.5708 0.25335 0.0
C584 C 0.54334 0.53405 0.27444 0.0
C585 C 0.50303 0.51318 0.26777 0.0
C586 C 0.57557 0.50975 0.26367 0.0
C587 C 0.54882 0.54789 0.31466 0.0
C588 C 0.55596 0.58631 0.3161 0.0
C589 C 0.5583 0.60561 0.35033 0.0
C590 C 0.55323 0.58503 0.38391 0.0
C591 C 0.54654 0.54562 0.38293 0.0
C592 C 0.5444 0.527 0.34782 0.0
H593 H 0.07056 0.46781 0.71432 0.0
H594 H 0.08546 0.35152 0.73769 0.0
H595 H 0.05806 0.3578 0.80073 0.0
H596 H 0.10773 0.49996 0.7954 0.0
H597 H 0.07663 0.53679 0.80198 0.0
H598 H 0.08444 0.52039 0.7553 0.0
H599 H 0.01045 0.50598 0.7445 0.0
H600 H 0.00243 0.52249 0.7915 0.0
H601 H 0.98309 0.47628 0.77734 0.0
H602 H 0.04384 0.37989 0.86544 0.0
H603 H 0.04933 0.4163 0.92486 0.0
H604 H 0.04717 0.51868 0.86051 0.0
C605 C 0.06699 0.44337 0.73229 0.0
C606 C 0.08015 0.40923 0.72102 0.0
C607 C 0.07499 0.37786 0.74535 0.0
C608 C 0.05939 0.38117 0.7813 0.0
C609 C 0.04874 0.41591 0.79241 0.0
C610 C 0.05208 0.44643 0.76835 0.0
C611 C 0.04571 0.4821 0.78884 0.0
C612 C 0.08071 0.51148 0.78518 0.0
C613 C 0.00818 0.49761 0.7747 0.0
C614 C 0.04174 0.46748 0.8288 0.0
C615 C 0.04176 0.42902 0.83019 0.0
C616 C 0.04284 0.40987 0.86459 0.0
C617 C 0.04588 0.4307 0.89823 0.0
C618 C 0.04847 0.47013 0.89694 0.0
C619 C 0.04474 0.48847 0.862 0.0
H620 H 0.81447 0.88332 0.93409 0.0
H621 H 0.86606 0.99149 0.89746 0.0
H622 H 0.80752 0.02035 0.91705 0.0
H623 H 0.71572 0.89651 0.90566 0.0
H624 H 0.69564 0.87164 0.94602 0.0
H625 H 0.74067 0.85977 0.92723 0.0
H626 H 0.77398 0.87055 0.99313 0.0
H627 H 0.72909 0.88241 0.01212 0.0
H628 H 0.77181 0.9147 0.0166 0.0
H629 H 0.74393 0.03766 0.9452 0.0
H630 H 0.68209 0.04086 0.9779 0.0
H631 H 0.67274 0.9212 0.99387 0.0
C632 C 0.81361 0.91313 0.93023 0.0
C633 C 0.84502 0.93517 0.91443 0.0
C634 C 0.84228 0.97397 0.90927 0.0
C635 C 0.80919 0.99061 0.92045 0.0
C636 C 0.77897 0.96803 0.93644 0.0
C637 C 0.78094 0.93006 0.94108 0.0
C638 C 0.7452 0.91185 0.95967 0.0
C639 C 0.723 0.88326 0.93305 0.0
C640 C 0.75566 0.89383 0.99763 0.0
C641 C 0.72294 0.94553 0.9654 0.0
C642 C 0.74263 0.97773 0.9517 0.0
C643 C 0.72802 0.01242 0.95529 0.0
C644 C 0.69252 0.01408 0.97337 0.0
C645 C 0.67189 0.98141 0.98735 0.0
C646 C 0.68757 0.94677 0.98318 0.0
H647 H 0.73187 0.08628 0.45777 0.0
H648 H 0.76598 0.08838 0.34067 0.0
H649 H 0.82521 0.05862 0.35896 0.0
H650 H 0.82074 0.11417 0.49559 0.0
H651 H 0.81632 0.08562 0.53753 0.0
H652 H 0.77371 0.09988 0.51402 0.0
H653 H 0.74615 0.03059 0.50789 0.0
H654 H 0.78895 0.01609 0.53135 0.0
H655 H 0.77426 0.99757 0.48544 0.0
H656 H 0.8857 0.03809 0.39191 0.0
H657 H 0.94111 0.03139 0.43596 0.0
H658 H 0.8665 0.04245 0.53095 0.0
C659 C 0.75143 0.07981 0.43584 0.0
C660 C 0.74431 0.08963 0.39781 0.0
C661 C 0.77059 0.08067 0.36993 0.0
C662 C 0.80432 0.06377 0.38009 0.0
C663 C 0.81105 0.05551 0.41813 0.0
C664 C 0.78503 0.06301 0.44548 0.0
C665 C 0.80053 0.05542 0.48477 0.0
C666 C 0.80299 0.09087 0.50939 0.0
C667 C 0.77601 0.02298 0.50345 0.0
C668 C 0.84021 0.04438 0.47554 0.0
C669 C 0.84561 0.0437 0.43696 0.0
C670 C 0.88145 0.03769 0.42212 0.0
C671 C 0.91276 0.03366 0.44734 0.0
C672 C 0.90799 0.03596 0.48687 0.0
C673 C 0.8709 0.04007 0.50088 0.0
H674 H 0.37372 0.57611 0.03593 0.0
H675 H 0.36421 0.5763 0.15783 0.0
H676 H 0.30202 0.53743 0.15228 0.0
H677 H 0.28214 0.5912 0.01552 0.0
H678 H 0.27565 0.56196 0.97415 0.0
H679 H 0.32321 0.58129 0.98827 0.0
H680 H 0.34649 0.51481 0.99073 0.0
H681 H 0.29866 0.4952 0.97666 0.0
H682 H 0.32132 0.47927 0.01935 0.0
H683 H 0.23512 0.51096 0.1329 0.0
H684 H 0.17071 0.50094 0.10131 0.0
H685 H 0.22447 0.51578 0.99233 0.0
C686 C 0.35907 0.56696 0.06146 0.0
C687 C 0.37387 0.57899 0.09725 0.0
C688 C 0.35376 0.56683 0.13011 0.0
C689 C 0.31837 0.54471 0.12723 0.0
C690 C 0.30379 0.53442 0.09136 0.0
C691 C 0.32387 0.54476 0.05905 0.0
C692 C 0.29994 0.5346 0.02374 0.0
C693 C 0.29493 0.56932 0.99902 0.0
C694 C 0.31766 0.50414 1.00131 0.0
C695 C 0.26231 0.51953 0.04117 0.0
C696 C 0.26523 0.51865 0.08019 0.0
C697 C 0.23273 0.51044 0.10235 0.0
C698 C 0.19622 0.50459 0.0842 0.0
C699 C 0.1927 0.50732 0.0444 0.0
C700 C 0.22638 0.51309 0.02281 0.0
H701 H 0.29435 0.49045 0.66969 0.0
H702 H 0.20906 0.47811 0.57782 0.0
H703 H 0.25958 0.49647 0.53233 0.0
H704 H 0.35776 0.57005 0.62555 0.0
H705 H 0.40152 0.55177 0.64269 0.0
H706 H 0.35805 0.54499 0.66974 0.0
H707 H 0.36221 0.47343 0.66961 0.0
H708 H 0.4058 0.47984 0.64307 0.0
H709 H 0.36526 0.44955 0.62519 0.0
H710 H 0.31891 0.50669 0.49611 0.0
H711 H 0.38437 0.5057 0.47104 0.0
H712 H 0.43299 0.5108 0.58511 0.0
C713 C 0.28629 0.49279 0.64007 0.0
C714 C 0.24768 0.48355 0.62753 0.0
C715 C 0.2382 0.48565 0.58842 0.0
C716 C 0.26674 0.49627 0.56226 0.0
C717 C 0.3046 0.50473 0.57551 0.0
C718 C 0.31454 0.50328 0.6135 0.0
C719 C 0.35807 0.50933 0.61967 0.0
C720 C 0.36952 0.54622 0.64066 0.0
C721 C 0.37373 0.47604 0.6406 0.0
C722 C 0.37103 0.51177 0.57908 0.0
C723 C 0.33959 0.5102 0.55419 0.0
C724 C 0.34379 0.50874 0.51524 0.0
C725 C 0.38101 0.50798 0.5013 0.0
C726 C 0.41351 0.50854 0.52622 0.0
C727 C 0.40858 0.51123 0.56555 0.0
H728 H 0.96271 0.76016 0.90877 0.0
H729 H 0.92896 0.79646 0.01873 0.0
H730 H 0.96492 0.74738 0.04939 0.0
H731 H 0.95102 0.66407 0.92772 0.0
H732 H 0.99163 0.65308 0.90042 0.0
H733 H 0.96635 0.69306 0.88818 0.0
H734 H 0.0306 0.73578 0.89369 0.0
H735 H 0.05613 0.69582 0.90581 0.0
H736 H 0.0593 0.7357 0.93682 0.0
H737 H 0.00259 0.69067 0.06721 0.0
H738 H 0.03728 0.63297 0.06955 0.0
H739 H 0.04323 0.63493 0.94738 0.0
C740 C 0.96339 0.75807 0.93933 0.0
C741 C 0.94301 0.78177 0.96148 0.0
C742 C 0.94443 0.77833 1.00138 0.0
C743 C 0.96474 0.7506 0.01896 0.0
C744 C 0.98375 0.72686 0.99616 0.0
C745 C 0.98331 0.7306 0.95717 0.0
C746 C 0.00416 0.70075 0.93863 0.0
C747 C 0.97664 0.6763 0.9122 0.0
C748 C 0.03966 0.71806 0.9175 0.0
C749 C 0.01598 0.67922 0.97308 0.0
C750 C 0.00438 0.69461 0.00617 0.0
C751 C 0.01179 0.67849 0.04138 0.0
C752 C 0.03115 0.64564 0.04252 0.0
C753 C 0.04233 0.62933 0.00867 0.0
C754 C 0.03503 0.64681 0.97379 0.0
H755 H 0.42556 0.73538 0.11256 0.0
H756 H 0.45207 0.68207 0.00815 0.0
H757 H 0.46324 0.74427 0.97747 0.0
H758 H 0.38035 0.81815 0.06819 0.0
H759 H 0.40149 0.84855 0.10502 0.0
H760 H 0.38713 0.80017 0.11528 0.0
H761 H 0.45642 0.79194 0.14092 0.0
H762 H 0.47091 0.83999 0.13075 0.0
H763 H 0.49704 0.80389 0.11101 0.0
H764 H 0.4845 0.81223 0.96318 0.0
H765 H 0.51339 0.87792 0.96713 0.0
H766 H 0.47081 0.88587 0.08042 0.0
C767 C 0.43231 0.73693 0.08282 0.0
C768 C 0.43772 0.70438 0.06244 0.0
C769 C 0.44733 0.70697 0.02388 0.0
C770 C 0.45364 0.74211 0.00633 0.0
C771 C 0.44943 0.77406 0.02769 0.0
C772 C 0.43836 0.77159 0.06503 0.0
C773 C 0.44047 0.80952 0.08351 0.0
C774 C 0.39994 0.81969 0.09358 0.0
C775 C 0.46785 0.81142 0.11857 0.0
C776 C 0.45687 0.83365 0.05166 0.0
C777 C 0.46108 0.81304 0.01929 0.0
C778 C 0.4802 0.82882 0.98792 0.0
C779 C 0.49641 0.8661 0.99028 0.0
C780 C 0.49328 0.88687 0.02372 0.0
C781 C 0.47237 0.87073 0.05415 0.0
H782 H 0.05938 0.33656 0.60219 0.0
H783 H 0.18369 0.33334 0.61038 0.0
H784 H 0.17755 0.27186 0.57837 0.0
H785 H 0.03515 0.2459 0.6256 0.0
H786 H 0.99384 0.23853 0.5938 0.0
H787 H 0.00901 0.28469 0.61071 0.0
H788 H 0.01474 0.30857 0.54163 0.0
H789 H 0.9996 0.26225 0.52446 0.0
H790 H 0.04454 0.28607 0.5093 0.0
H791 H 0.15629 0.20604 0.55626 0.0
H792 H 0.12185 0.14329 0.54611 0.0
H793 H 0.01221 0.19123 0.54928 0.0
C794 C 0.08536 0.32325 0.59645 0.0
C795 C 0.12197 0.33957 0.60865 0.0
C796 C 0.15538 0.3214 0.60082 0.0
C797 C 0.15215 0.28652 0.58266 0.0
C798 C 0.11538 0.27062 0.57191 0.0
C799 C 0.08263 0.28873 0.57812 0.0
C800 C 0.04621 0.26449 0.56734 0.0
C801 C 0.01952 0.25801 0.60139 0.0
C802 C 0.02503 0.28136 0.53367 0.0
C803 C 0.06335 0.22912 0.55608 0.0
C804 C 0.10332 0.23323 0.55818 0.0
C805 C 0.12509 0.20287 0.55322 0.0
C806 C 0.10542 0.16738 0.54697 0.0
C807 C 0.06458 0.16272 0.54567 0.0
C808 C 0.04353 0.1942 0.54927 0.0
H809 H 0.57811 0.2158 0.47365 0.0
H810 H 0.70206 0.24389 0.4795 0.0
H811 H 0.69185 0.30739 0.50215 0.0
H812 H 0.55329 0.29917 0.43721 0.0
H813 H 0.5097 0.30073 0.46361 0.0
H814 H 0.52732 0.25654 0.45329 0.0
H815 H 0.52842 0.24053 0.52492 0.0
H816 H 0.51091 0.28495 0.53536 0.0
H817 H 0.55504 0.27217 0.5576 0.0
H818 H 0.6674 0.37006 0.51633 0.0
H819 H 0.63107 0.42614 0.51791 0.0
H820 H 0.52346 0.35587 0.50482 0.0
C821 C 0.60307 0.23514 0.48039 0.0
C822 C 0.64086 0.2252 0.47485 0.0
C823 C 0.67289 0.25122 0.48363 0.0
C824 C 0.66734 0.28715 0.49669 0.0
C825 C 0.62959 0.29634 0.50135 0.0
C826 C 0.59802 0.27091 0.49368 0.0
C827 C 0.56042 0.2884 0.49798 0.0
C828 C 0.5363 0.28609 0.46082 0.0
C829 C 0.53735 0.27043 0.53093 0.0
C830 C 0.57568 0.32814 0.50722 0.0
C831 C 0.61561 0.33215 0.50988 0.0
C832 C 0.63611 0.36709 0.51509 0.0
C833 C 0.61527 0.39878 0.51634 0.0
C834 C 0.57449 0.39518 0.51224 0.0
C835 C 0.55461 0.3593 0.50874 0.0
loop_
_geom_bond_atom_site_label_1
_geom_bond_atom_site_label_2
_geom_bond_distance
_geom_bond_site_symmetry_2
_ccdc_geom_bond_type
H0 C7 0.929 . S
H1 C10 0.930 . S
H2 C12 0.929 . S
H3 C4 0.969 . S
C4 H3 0.969 . S
C4 O5 1.550 . S
C4 H6 0.973 . S
O5 C4 1.550 . S
O5 C11 1.412 . S
H6 C4 0.973 . S
C7 H0 0.929 . S
C7 C8 1.400 . S
C7 C9 1.364 . S
C8 C7 1.400 . S
C8 C12 1.377 . S
C9 C7 1.364 . S
C9 C10 1.374 . S
C10 H1 0.930 . S
C10 C9 1.374 . S
C10 C11 1.383 . S
C11 O5 1.412 . S
C11 C10 1.383 . S
C11 C12 1.394 . S
C12 H2 0.929 . S
C12 C8 1.377 . S
C12 C11 1.394 . S
H13 C20 0.929 . S
H14 C23 0.930 . S
H15 C25 0.929 . S
H16 C17 0.969 . S
C17 H16 0.969 . S
C17 O18 1.550 . S
C17 H19 0.973 . S
O18 C17 1.550 . S
O18 C24 1.412 . S
H19 C17 0.973 . S
C20 H13 0.929 . S
C20 C21 1.400 . S
C20 C22 1.364 . S
C21 C20 1.400 . S
C21 C25 1.377 . S
C22 C20 1.364 . S
C22 C23 1.374 . S
C23 H14 0.930 . S
C23 C22 1.374 . S
C23 C24 1.383 . S
C24 O18 1.412 . S
C24 C23 1.383 . S
C24 C25 1.394 . S
C25 H15 0.929 . S
C25 C21 1.377 . S
C25 C24 1.394 . S
H26 C33 0.929 . S
H27 C36 0.930 . S
H28 C38 0.929 . S
H29 C30 0.969 . S
C30 H29 0.969 . S
C30 O31 1.550 . S
C30 H32 0.973 . S
O31 C30 1.550 . S
O31 C37 1.412 . S
H32 C30 0.973 . S
C33 H26 0.929 . S
C33 C34 1.400 . S
C33 C35 1.364 . S
C34 C33 1.400 . S
C34 C38 1.377 . S
C35 C33 1.364 . S
C35 C36 1.374 . S
C36 H27 0.930 . S
C36 C35 1.374 . S
C36 C37 1.383 . S
C37 O31 1.412 . S
C37 C36 1.383 . S
C37 C38 1.394 . S
C38 H28 0.929 . S
C38 C34 1.377 . S
C38 C37 1.394 . S
H39 C46 0.929 . S
H40 C49 0.930 . S
H41 C51 0.929 . S
H42 C43 0.969 . S
C43 H42 0.969 . S
C43 O44 1.550 . S
C43 H45 0.973 . S
O44 C43 1.550 . S
O44 C50 1.412 . S
H45 C43 0.973 . S
C46 H39 0.929 . S
C46 C47 1.400 . S
C46 C48 1.364 . S
C47 C46 1.400 . S
C47 C51 1.377 . S
C48 C46 1.364 . S
C48 C49 1.374 . S
C49 H40 0.930 . S
C49 C48 1.374 . S
C49 C50 1.383 . S
C50 O44 1.412 . S
C50 C49 1.383 . S
C50 C51 1.394 . S
C51 H41 0.929 . S
C51 C47 1.377 . S
C51 C50 1.394 . S
H52 C59 0.929 . S
H53 C62 0.930 . S
H54 C64 0.929 1_455 S
H55 C56 0.969 . S
C56 H55 0.969 . S
C56 O57 1.550 1_655 S
C56 H58 0.970 . S
O57 C56 1.550 1_455 S
O57 C63 1.412 1_455 S
H58 C56 0.970 . S
C59 H52 0.929 . S
C59 C60 1.400 . S
C59 C61 1.364 . S
C60 C59 1.400 . S
C60 C64 1.377 . S
C61 C59 1.364 . S
C61 C62 1.374 . S
C62 H53 0.930 . S
C62 C61 1.374 . S
C62 C63 1.383 . S
C63 O57 1.412 1_655 S
C63 C62 1.383 . S
C63 C64 1.394 . S
C64 H54 0.929 1_655 S
C64 C60 1.377 . S
C64 C63 1.394 . S
H65 C72 0.929 . S
H66 C75 0.930 . S
H67 C77 0.929 . S
H68 C69 0.969 . S
C69 H68 0.969 . S
C69 O70 1.550 . S
C69 H71 0.973 . S
O70 C69 1.550 . S
O70 C76 1.412 . S
H71 C69 0.973 . S
C72 H65 0.929 . S
C72 C73 1.400 . S
C72 C74 1.364 . S
C73 C72 1.400 . S
C73 C77 1.377 . S
C74 C72 1.364 . S
C74 C75 1.374 . S
C75 H66 0.930 . S
C75 C74 1.374 . S
C75 C76 1.383 . S
C76 O70 1.412 . S
C76 C75 1.383 . S
C76 C77 1.394 . S
C77 H67 0.929 . S
C77 C73 1.377 . S
C77 C76 1.394 . S
H78 C85 0.929 . S
H79 C88 0.930 . S
H80 C90 0.929 . S
H81 C82 0.969 . S
C82 H81 0.969 . S
C82 O83 1.550 . S
C82 H84 0.973 . S
O83 C82 1.550 . S
O83 C89 1.412 . S
H84 C82 0.973 . S
C85 H78 0.929 . S
C85 C86 1.400 . S
C85 C87 1.364 . S
C86 C85 1.400 . S
C86 C90 1.377 . S
C87 C85 1.364 . S
C87 C88 1.374 . S
C88 H79 0.930 . S
C88 C87 1.374 . S
C88 C89 1.383 . S
C89 O83 1.412 . S
C89 C88 1.383 . S
C89 C90 1.394 . S
C90 H80 0.929 . S
C90 C86 1.377 . S
C90 C89 1.394 . S
H91 C98 0.929 . S
H92 C101 0.930 . S
H93 C103 0.929 . S
H94 C95 0.969 . S
C95 H94 0.969 . S
C95 O96 1.550 . S
C95 H97 0.973 . S
O96 C95 1.550 . S
O96 C102 1.412 . S
H97 C95 0.973 . S
C98 H91 0.929 . S
C98 C99 1.400 . S
C98 C100 1.364 . S
C99 C98 1.400 . S
C99 C103 1.377 . S
C100 C98 1.364 . S
C100 C101 1.374 . S
C101 H92 0.930 . S
C101 C100 1.374 . S
C101 C102 1.383 . S
C102 O96 1.412 . S
C102 C101 1.383 . S
C102 C103 1.394 . S
C103 H93 0.929 . S
C103 C99 1.377 . S
C103 C102 1.394 . S
Zn104 O110 1.920 . S
Zn104 O116 1.898 . S
Zn104 O119 1.905 . S
Zn105 O113 1.905 1_565 S
Zn105 O114 1.898 . S
Zn105 O122 1.920 . S
Zn106 O109 2.080 1_455 S
Zn106 O112 2.114 . S
Zn106 O115 2.120 1_445 S
Zn106 O117 2.120 . S
Zn106 O118 2.114 1_455 S
Zn106 O121 2.080 . S
C107 O112 1.166 . S
C107 O113 1.182 . S
C108 O114 1.167 1_655 S
C108 O115 1.299 . S
O109 Zn106 2.080 1_655 S
O109 C123 1.305 . S
O110 Zn104 1.920 . S
O110 C123 1.234 . S
C111 O116 1.167 1_455 S
C111 O117 1.299 . S
O112 Zn106 2.114 . S
O112 C107 1.166 . S
O113 Zn105 1.905 1_545 S
O113 C107 1.182 . S
O114 Zn105 1.898 . S
O114 C108 1.167 1_455 S
O115 Zn106 2.120 1_665 S
O115 C108 1.299 . S
O116 Zn104 1.898 . S
O116 C111 1.167 1_655 S
O117 Zn106 2.120 . S
O117 C111 1.299 . S
O118 Zn106 2.114 1_655 S
O118 C120 1.166 . S
O119 Zn104 1.905 . S
O119 C120 1.182 . S
C120 O118 1.166 . S
C120 O119 1.182 . S
O121 Zn106 2.080 . S
O121 C124 1.305 1_545 S
O122 Zn105 1.920 . S
O122 C124 1.234 . S
C123 O109 1.305 . S
C123 O110 1.234 . S
C124 O121 1.305 1_565 S
C124 O122 1.234 . S
Zn125 O131 1.920 1_556 S
Zn125 O137 1.898 . S
Zn125 O140 1.905 . S
Zn126 O134 1.905 . S
Zn126 O135 1.898 . S
Zn126 O143 1.920 . S
Zn127 O130 2.080 . S
Zn127 O133 2.114 1_545 S
Zn127 O136 2.120 1_545 S
Zn127 O138 2.125 . S
Zn127 O139 2.114 1_544 S
Zn127 O142 2.080 . S
C128 O133 1.166 . S
C128 O134 1.182 . S
C129 O135 1.167 . S
C129 O136 1.299 . S
O130 Zn127 2.080 . S
O130 C144 1.305 . S
O131 Zn125 1.920 1_554 S
O131 C144 1.234 . S
C132 O137 1.167 . S
C132 O138 1.283 1_556 S
O133 Zn127 2.114 1_565 S
O133 C128 1.166 . S
O134 Zn126 1.905 . S
O134 C128 1.182 . S
O135 Zn126 1.898 . S
O135 C129 1.167 . S
O136 Zn127 2.120 1_565 S
O136 C129 1.299 . S
O137 Zn125 1.898 . S
O137 C132 1.167 . S
O138 Zn127 2.125 . S
O138 C132 1.283 1_554 S
O139 Zn127 2.114 1_566 S
O139 C141 1.166 . S
O140 Zn125 1.905 . S
O140 C141 1.182 1_545 S
C141 O139 1.166 . S
C141 O140 1.182 1_565 S
O142 Zn127 2.080 . S
O142 C145 1.305 . S
O143 Zn126 1.920 . S
O143 C145 1.234 1_565 S
C144 O130 1.305 . S
C144 O131 1.234 . S
C145 O142 1.305 . S
C145 O143 1.234 1_545 S
Zn146 O152 1.920 . S
Zn146 O158 1.898 . S
Zn146 O161 1.905 . S
Zn147 O155 1.905 . S
Zn147 O156 1.898 . S
Zn147 O164 1.920 . S
Zn148 O151 2.080 . S
Zn148 O154 2.114 . S
Zn148 O157 2.120 . S
Zn148 O159 2.120 . S
Zn148 O160 2.114 . S
Zn148 O163 2.080 . S
C149 O154 1.166 . S
C149 O155 1.182 . S
C150 O156 1.167 . S
C150 O157 1.299 . S
O151 Zn148 2.080 . S
O151 C165 1.305 . S
O152 Zn146 1.920 . S
O152 C165 1.234 . S
C153 O158 1.167 . S
C153 O159 1.299 . S
O154 Zn148 2.114 . S
O154 C149 1.166 . S
O155 Zn147 1.905 . S
O155 C149 1.182 . S
O156 Zn147 1.898 . S
O156 C150 1.167 . S
O157 Zn148 2.120 . S
O157 C150 1.299 . S
O158 Zn146 1.898 . S
O158 C153 1.167 . S
O159 Zn148 2.120 . S
O159 C153 1.299 . S
O160 Zn148 2.114 . S
O160 C162 1.166 . S
O161 Zn146 1.905 . S
O161 C162 1.182 . S
C162 O160 1.166 . S
C162 O161 1.182 . S
O163 Zn148 2.080 . S
O163 C166 1.305 . S
O164 Zn147 1.920 . S
O164 C166 1.234 . S
C165 O151 1.305 . S
C165 O152 1.234 . S
C166 O163 1.305 . S
C166 O164 1.234 . S
Zn167 O173 1.920 . S
Zn167 O179 1.898 . S
Zn167 O182 1.905 . S
Zn168 O176 1.905 1_655 S
Zn168 O177 1.898 . S
Zn168 O185 1.920 . S
Zn169 O172 2.080 1_554 S
Zn169 O175 2.114 . S
Zn169 O178 2.120 1_554 S
Zn169 O180 2.120 . S
Zn169 O181 2.114 1_554 S
Zn169 O184 2.080 . S
C170 O175 1.166 . S
C170 O176 1.182 . S
C171 O177 1.167 1_556 S
C171 O178 1.299 1_655 S
O172 Zn169 2.080 1_556 S
O172 C186 1.305 . S
O173 Zn167 1.920 . S
O173 C186 1.234 . S
C174 O179 1.167 1_554 S
C174 O180 1.299 . S
O175 Zn169 2.114 . S
O175 C170 1.166 . S
O176 Zn168 1.905 1_455 S
O176 C170 1.182 . S
O177 Zn168 1.898 . S
O177 C171 1.167 1_554 S
O178 Zn169 2.120 1_556 S
O178 C171 1.299 1_455 S
O179 Zn167 1.898 . S
O179 C174 1.167 1_556 S
O180 Zn169 2.120 . S
O180 C174 1.299 . S
O181 Zn169 2.114 1_556 S
O181 C183 1.166 . S
O182 Zn167 1.905 . S
O182 C183 1.182 . S
C183 O181 1.166 . S
C183 O182 1.182 . S
O184 Zn169 2.080 . S
O184 C187 1.305 . S
O185 Zn168 1.920 . S
O185 C187 1.234 1_655 S
C186 O172 1.305 . S
C186 O173 1.234 . S
C187 O184 1.305 . S
C187 O185 1.234 1_455 S
H188 C200 0.930 . S
H189 C202 0.930 . S
H190 C203 0.930 . S
H191 C207 0.959 . S
H192 C207 0.959 . S
H193 C207 0.961 . S
H194 C208 0.960 . S
H195 C208 0.961 . S
H196 C208 0.959 . S
H197 C211 0.929 . S
H198 C212 0.931 . S
H199 C214 0.930 . S
C200 H188 0.930 . S
C200 C201 1.399 . S
C200 C205 1.399 . S
C201 C200 1.399 . S
C201 C202 1.376 . S
C202 H189 0.930 . S
C202 C201 1.376 . S
C202 C203 1.388 . S
C203 H190 0.930 . S
C203 C202 1.388 . S
C203 C204 1.390 . S
C204 C203 1.390 . S
C204 C205 1.394 . S
C204 C210 1.465 . S
C205 C200 1.399 . S
C205 C204 1.394 . S
C205 C206 1.516 . S
C206 C205 1.516 . S
C206 C207 1.502 . S
C206 C208 1.561 . S
C206 C209 1.526 . S
C207 H191 0.959 . S
C207 H192 0.959 . S
C207 H193 0.961 . S
C207 C206 1.502 . S
C208 H194 0.960 . S
C208 H195 0.961 . S
C208 H196 0.959 . S
C208 C206 1.561 . S
C209 C206 1.526 . S
C209 C210 1.396 . S
C209 C214 1.390 . S
C210 C204 1.465 . S
C210 C209 1.396 . S
C210 C211 1.399 . S
C211 H197 0.929 . S
C211 C210 1.399 . S
C211 C212 1.385 . S
C212 H198 0.931 . S
C212 C211 1.385 . S
C212 C213 1.389 . S
C213 C212 1.389 . S
C213 C214 1.387 . S
C214 H199 0.930 . S
C214 C209 1.390 . S
C214 C213 1.387 . S
H215 C227 0.930 . S
H216 C229 0.930 . S
H217 C230 0.930 . S
H218 C234 0.959 . S
H219 C234 0.959 1_545 S
H220 C234 0.961 . S
H221 C235 0.960 . S
H222 C235 0.961 . S
H223 C235 0.959 1_565 S
H224 C238 0.929 . S
H225 C239 0.931 . S
H226 C241 0.930 1_545 S
C227 H215 0.930 . S
C227 C228 1.399 . S
C227 C232 1.399 . S
C228 C227 1.399 . S
C228 C229 1.376 . S
C229 H216 0.930 . S
C229 C228 1.376 . S
C229 C230 1.388 . S
C230 H217 0.930 . S
C230 C229 1.388 . S
C230 C231 1.390 . S
C231 C230 1.390 . S
C231 C232 1.394 . S
C231 C237 1.465 . S
C232 C227 1.399 . S
C232 C231 1.394 . S
C232 C233 1.516 . S
C233 C232 1.516 . S
C233 C234 1.502 . S
C233 C235 1.561 1_565 S
C233 C236 1.526 . S
C234 H218 0.959 . S
C234 H219 0.959 1_565 S
C234 H220 0.961 . S
C234 C233 1.502 . S
C235 H221 0.960 . S
C235 H222 0.961 . S
C235 H223 0.959 1_545 S
C235 C233 1.561 1_545 S
C236 C233 1.526 . S
C236 C237 1.396 . S
C236 C241 1.390 . S
C237 C231 1.465 . S
C237 C236 1.396 . S
C237 C238 1.399 . S
C238 H224 0.929 . S
C238 C237 1.399 . S
C238 C239 1.385 . S
C239 H225 0.931 . S
C239 C238 1.385 . S
C239 C240 1.389 . S
C240 C239 1.389 . S
C240 C241 1.387 . S
C241 H226 0.930 1_565 S
C241 C236 1.390 . S
C241 C240 1.387 . S
H242 C254 0.930 . S
H243 C256 0.930 . S
H244 C257 0.930 . S
H245 C261 0.959 . S
H246 C261 0.959 . S
H247 C261 0.961 . S
H248 C262 0.960 . S
H249 C262 0.961 . S
H250 C262 0.959 . S
H251 C265 0.929 . S
H252 C266 0.931 . S
H253 C268 0.930 . S
C254 H242 0.930 . S
C254 C255 1.399 . S
C254 C259 1.399 . S
C255 C254 1.399 . S
C255 C256 1.376 . S
C256 H243 0.930 . S
C256 C255 1.376 . S
C256 C257 1.388 . S
C257 H244 0.930 . S
C257 C256 1.388 . S
C257 C258 1.390 . S
C258 C257 1.390 . S
C258 C259 1.394 . S
C258 C264 1.465 . S
C259 C254 1.399 . S
C259 C258 1.394 . S
C259 C260 1.516 . S
C260 C259 1.516 . S
C260 C261 1.502 . S
C260 C262 1.561 . S
C260 C263 1.526 . S
C261 H245 0.959 . S
C261 H246 0.959 . S
C261 H247 0.961 . S
C261 C260 1.502 . S
C262 H248 0.960 . S
C262 H249 0.961 . S
C262 H250 0.959 . S
C262 C260 1.561 . S
C263 C260 1.526 . S
C263 C264 1.396 . S
C263 C268 1.390 . S
C264 C258 1.465 . S
C264 C263 1.396 . S
C264 C265 1.399 . S
C265 H251 0.929 . S
C265 C264 1.399 . S
C265 C266 1.385 . S
C266 H252 0.931 . S
C266 C265 1.385 . S
C266 C267 1.389 . S
C267 C266 1.389 . S
C267 C268 1.387 . S
C268 H253 0.930 . S
C268 C263 1.390 . S
C268 C267 1.387 . S
H269 C281 0.930 . S
H270 C283 0.930 . S
H271 C284 0.930 . S
H272 C288 0.959 . S
H273 C288 0.959 . S
H274 C288 0.961 . S
H275 C289 0.960 . S
H276 C289 0.961 1_455 S
H277 C289 0.959 . S
H278 C292 0.929 . S
H279 C293 0.931 . S
H280 C295 0.930 . S
C281 H269 0.930 . S
C281 C282 1.399 . S
C281 C286 1.399 . S
C282 C281 1.399 . S
C282 C283 1.376 . S
C283 H270 0.930 . S
C283 C282 1.376 . S
C283 C284 1.388 . S
C284 H271 0.930 . S
C284 C283 1.388 . S
C284 C285 1.390 . S
C285 C284 1.390 . S
C285 C286 1.394 . S
C285 C291 1.465 . S
C286 C281 1.399 . S
C286 C285 1.394 . S
C286 C287 1.516 . S
C287 C286 1.516 . S
C287 C288 1.502 1_655 S
C287 C289 1.561 . S
C287 C290 1.526 . S
C288 H272 0.959 . S
C288 H273 0.959 . S
C288 H274 0.961 . S
C288 C287 1.502 1_455 S
C289 H275 0.960 . S
C289 H276 0.961 1_655 S
C289 H277 0.959 . S
C289 C287 1.561 . S
C290 C287 1.526 . S
C290 C291 1.396 . S
C290 C295 1.390 1_655 S
C291 C285 1.465 . S
C291 C290 1.396 . S
C291 C292 1.399 . S
C292 H278 0.929 . S
C292 C291 1.399 . S
C292 C293 1.385 . S
C293 H279 0.931 . S
C293 C292 1.385 . S
C293 C294 1.399 . S
C294 C293 1.399 . S
C294 C295 1.384 1_655 S
C295 H280 0.930 . S
C295 C290 1.390 1_455 S
C295 C294 1.384 1_455 S
H296 C308 0.930 . S
H297 C310 0.930 . S
H298 C311 0.930 . S
H299 C315 0.959 . S
H300 C315 0.959 . S
H301 C315 0.961 . S
H302 C316 0.960 . S
H303 C316 0.961 . S
H304 C316 0.959 . S
H305 C319 0.929 . S
H306 C320 0.931 . S
H307 C322 0.930 . S
C308 H296 0.930 . S
C308 C309 1.399 . S
C308 C313 1.399 . S
C309 C308 1.399 . S
C309 C310 1.376 . S
C310 H297 0.930 . S
C310 C309 1.376 . S
C310 C311 1.388 . S
C311 H298 0.930 . S
C311 C310 1.388 . S
C311 C312 1.390 . S
C312 C311 1.390 . S
C312 C313 1.394 . S
C312 C318 1.465 . S
C313 C308 1.399 . S
C313 C312 1.394 . S
C313 C314 1.516 . S
C314 C313 1.516 . S
C314 C315 1.502 . S
C314 C316 1.561 . S
C314 C317 1.526 . S
C315 H299 0.959 . S
C315 H300 0.959 . S
C315 H301 0.961 . S
C315 C314 1.502 . S
C316 H302 0.960 . S
C316 H303 0.961 . S
C316 H304 0.959 . S
C316 C314 1.561 . S
C317 C314 1.526 . S
C317 C318 1.396 . S
C317 C322 1.390 . S
C318 C312 1.465 . S
C318 C317 1.396 . S
C318 C319 1.399 . S
C319 H305 0.929 . S
C319 C318 1.399 . S
C319 C320 1.385 . S
C320 H306 0.931 . S
C320 C319 1.385 . S
C320 C321 1.389 . S
C321 C320 1.389 . S
C321 C322 1.387 . S
C322 H307 0.930 . S
C322 C317 1.390 . S
C322 C321 1.387 . S
H323 C335 0.930 . S
H324 C337 0.930 . S
H325 C338 0.930 . S
H326 C342 0.959 . S
H327 C342 0.959 . S
H328 C342 0.961 . S
H329 C343 0.960 . S
H330 C343 0.961 . S
H331 C343 0.959 . S
H332 C346 0.929 . S
H333 C347 0.931 . S
H334 C349 0.930 . S
C335 H323 0.930 . S
C335 C336 1.399 . S
C335 C340 1.399 . S
C336 C335 1.399 . S
C336 C337 1.376 . S
C337 H324 0.930 . S
C337 C336 1.376 . S
C337 C338 1.388 . S
C338 H325 0.930 . S
C338 C337 1.388 . S
C338 C339 1.390 . S
C339 C338 1.390 . S
C339 C340 1.394 . S
C339 C345 1.465 . S
C340 C335 1.399 . S
C340 C339 1.394 . S
C340 C341 1.516 . S
C341 C340 1.516 . S
C341 C342 1.502 . S
C341 C343 1.561 . S
C341 C344 1.526 . S
C342 H326 0.959 . S
C342 H327 0.959 . S
C342 H328 0.961 . S
C342 C341 1.502 . S
C343 H329 0.960 . S
C343 H330 0.961 . S
C343 H331 0.959 . S
C343 C341 1.561 . S
C344 C341 1.526 . S
C344 C345 1.396 . S
C344 C349 1.390 . S
C345 C339 1.465 . S
C345 C344 1.396 . S
C345 C346 1.399 . S
C346 H332 0.929 . S
C346 C345 1.399 . S
C346 C347 1.385 . S
C347 H333 0.931 . S
C347 C346 1.385 . S
C347 C348 1.389 . S
C348 C347 1.389 . S
C348 C349 1.387 . S
C349 H334 0.930 . S
C349 C344 1.390 . S
C349 C348 1.387 . S
H350 C362 0.930 . S
H351 C364 0.930 . S
H352 C365 0.930 . S
H353 C369 0.959 . S
H354 C369 0.959 . S
H355 C369 0.961 . S
H356 C370 0.960 . S
H357 C370 0.961 . S
H358 C370 0.959 . S
H359 C373 0.929 . S
H360 C374 0.931 . S
H361 C376 0.930 . S
C362 H350 0.930 . S
C362 C363 1.399 . S
C362 C367 1.399 . S
C363 C362 1.399 . S
C363 C364 1.376 . S
C364 H351 0.930 . S
C364 C363 1.376 . S
C364 C365 1.388 . S
C365 H352 0.930 . S
C365 C364 1.388 . S
C365 C366 1.390 . S
C366 C365 1.390 . S
C366 C367 1.394 . S
C366 C372 1.465 . S
C367 C362 1.399 . S
C367 C366 1.394 . S
C367 C368 1.516 . S
C368 C367 1.516 . S
C368 C369 1.502 . S
C368 C370 1.561 . S
C368 C371 1.526 . S
C369 H353 0.959 . S
C369 H354 0.959 . S
C369 H355 0.961 . S
C369 C368 1.502 . S
C370 H356 0.960 . S
C370 H357 0.961 . S
C370 H358 0.959 . S
C370 C368 1.561 . S
C371 C368 1.526 . S
C371 C372 1.396 . S
C371 C376 1.390 . S
C372 C366 1.465 . S
C372 C371 1.396 . S
C372 C373 1.399 . S
C373 H359 0.929 . S
C373 C372 1.399 . S
C373 C374 1.385 . S
C374 H360 0.931 . S
C374 C373 1.385 . S
C374 C375 1.389 . S
C375 C374 1.389 . S
C375 C376 1.387 . S
C376 H361 0.930 . S
C376 C371 1.390 . S
C376 C375 1.387 . S
H377 C389 0.930 . S
H378 C391 0.930 . S
H379 C392 0.930 . S
H380 C396 0.959 . S
H381 C396 0.959 . S
H382 C396 0.961 . S
H383 C397 0.960 . S
H384 C397 0.961 . S
H385 C397 0.959 . S
H386 C400 0.929 . S
H387 C401 0.931 . S
H388 C403 0.930 . S
C389 H377 0.930 . S
C389 C390 1.399 . S
C389 C394 1.399 . S
C390 C389 1.399 . S
C390 C391 1.376 . S
C391 H378 0.930 . S
C391 C390 1.376 . S
C391 C392 1.388 . S
C392 H379 0.930 . S
C392 C391 1.388 . S
C392 C393 1.390 . S
C393 C392 1.390 . S
C393 C394 1.394 . S
C393 C399 1.465 . S
C394 C389 1.399 . S
C394 C393 1.394 . S
C394 C395 1.516 . S
C395 C394 1.516 . S
C395 C396 1.502 . S
C395 C397 1.561 . S
C395 C398 1.526 . S
C396 H380 0.959 . S
C396 H381 0.959 . S
C396 H382 0.961 . S
C396 C395 1.502 . S
C397 H383 0.960 . S
C397 H384 0.961 . S
C397 H385 0.959 . S
C397 C395 1.561 . S
C398 C395 1.526 . S
C398 C399 1.396 . S
C398 C403 1.390 . S
C399 C393 1.465 . S
C399 C398 1.396 . S
C399 C400 1.399 . S
C400 H386 0.929 . S
C400 C399 1.399 . S
C400 C401 1.385 . S
C401 H387 0.931 . S
C401 C400 1.385 . S
C401 C402 1.389 . S
C402 C401 1.389 . S
C402 C403 1.387 . S
C403 H388 0.930 . S
C403 C398 1.390 . S
C403 C402 1.387 . S
H404 C416 0.930 . S
H405 C418 0.930 . S
H406 C419 0.930 . S
H407 C423 0.959 . S
H408 C423 0.959 . S
H409 C423 0.961 . S
H410 C424 0.960 . S
H411 C424 0.961 . S
H412 C424 0.959 . S
H413 C427 0.929 . S
H414 C428 0.931 . S
H415 C430 0.930 . S
C416 H404 0.930 . S
C416 C417 1.399 . S
C416 C421 1.399 . S
C417 C416 1.399 . S
C417 C418 1.376 . S
C418 H405 0.930 . S
C418 C417 1.376 . S
C418 C419 1.388 . S
C419 H406 0.930 . S
C419 C418 1.388 . S
C419 C420 1.390 . S
C420 C419 1.390 . S
C420 C421 1.394 . S
C420 C426 1.465 . S
C421 C416 1.399 . S
C421 C420 1.394 . S
C421 C422 1.516 . S
C422 C421 1.516 . S
C422 C423 1.502 . S
C422 C424 1.561 . S
C422 C425 1.526 . S
C423 H407 0.959 . S
C423 H408 0.959 . S
C423 H409 0.961 . S
C423 C422 1.502 . S
C424 H410 0.960 . S
C424 H411 0.961 . S
C424 H412 0.959 . S
C424 C422 1.561 . S
C425 C422 1.526 . S
C425 C426 1.396 . S
C425 C430 1.390 . S
C426 C420 1.465 . S
C426 C425 1.396 . S
C426 C427 1.399 . S
C427 H413 0.929 . S
C427 C426 1.399 . S
C427 C428 1.385 . S
C428 H414 0.931 . S
C428 C427 1.385 . S
C428 C429 1.389 . S
C429 C428 1.389 . S
C429 C430 1.387 . S
C430 H415 0.930 . S
C430 C425 1.390 . S
C430 C429 1.387 . S
H431 C443 0.930 . S
H432 C445 0.930 . S
H433 C446 0.930 . S
H434 C450 0.959 . S
H435 C450 0.959 . S
H436 C450 0.961 . S
H437 C451 0.960 . S
H438 C451 0.961 . S
H439 C451 0.959 . S
H440 C454 0.929 . S
H441 C455 0.931 1_554 S
H442 C457 0.930 . S
C443 H431 0.930 . S
C443 C444 1.399 . S
C443 C448 1.399 . S
C444 C443 1.399 . S
C444 C445 1.376 . S
C445 H432 0.930 . S
C445 C444 1.376 . S
C445 C446 1.388 . S
C446 H433 0.930 . S
C446 C445 1.388 . S
C446 C447 1.390 . S
C447 C446 1.390 . S
C447 C448 1.394 . S
C447 C453 1.465 . S
C448 C443 1.399 . S
C448 C447 1.394 . S
C448 C449 1.516 . S
C449 C448 1.516 . S
C449 C450 1.502 . S
C449 C451 1.561 . S
C449 C452 1.526 . S
C450 H434 0.959 . S
C450 H435 0.959 . S
C450 H436 0.961 . S
C450 C449 1.502 . S
C451 H437 0.960 . S
C451 H438 0.961 . S
C451 H439 0.959 . S
C451 C449 1.561 . S
C452 C449 1.526 . S
C452 C453 1.396 . S
C452 C457 1.390 . S
C453 C447 1.465 . S
C453 C452 1.396 . S
C453 C454 1.399 . S
C454 H440 0.929 . S
C454 C453 1.399 . S
C454 C455 1.385 . S
C455 H441 0.931 1_556 S
C455 C454 1.385 . S
C455 C456 1.389 . S
C456 C455 1.389 . S
C456 C457 1.387 . S
C457 H442 0.930 . S
C457 C452 1.390 . S
C457 C456 1.387 . S
H458 C470 0.930 . S
H459 C472 0.930 . S
H460 C473 0.930 . S
H461 C477 0.959 . S
H462 C477 0.959 . S
H463 C477 0.961 . S
H464 C478 0.960 . S
H465 C478 0.961 . S
H466 C478 0.959 . S
H467 C481 0.929 . S
H468 C482 0.931 . S
H469 C484 0.930 . S
C470 H458 0.930 . S
C470 C471 1.399 . S
C470 C475 1.399 . S
C471 C470 1.399 . S
C471 C472 1.376 . S
C472 H459 0.930 . S
C472 C471 1.376 . S
C472 C473 1.388 . S
C473 H460 0.930 . S
C473 C472 1.388 . S
C473 C474 1.390 . S
C474 C473 1.390 . S
C474 C475 1.394 . S
C474 C480 1.465 . S
C475 C470 1.399 . S
C475 C474 1.394 . S
C475 C476 1.516 . S
C476 C475 1.516 . S
C476 C477 1.502 . S
C476 C478 1.561 . S
C476 C479 1.526 . S
C477 H461 0.959 . S
C477 H462 0.959 . S
C477 H463 0.961 . S
C477 C476 1.502 . S
C478 H464 0.960 . S
C478 H465 0.961 . S
C478 H466 0.959 . S
C478 C476 1.561 . S
C479 C476 1.526 . S
C479 C480 1.396 . S
C479 C484 1.390 . S
C480 C474 1.465 . S
C480 C479 1.396 . S
C480 C481 1.399 . S
C481 H467 0.929 . S
C481 C480 1.399 . S
C481 C482 1.385 . S
C482 H468 0.931 . S
C482 C481 1.385 . S
C482 C483 1.389 . S
C483 C482 1.389 . S
C483 C484 1.387 . S
C484 H469 0.930 . S
C484 C479 1.390 . S
C484 C483 1.387 . S
H485 C497 0.930 . S
H486 C499 0.930 . S
H487 C500 0.930 . S
H488 C504 0.959 . S
H489 C504 0.959 . S
H490 C504 0.961 . S
H491 C505 0.960 . S
H492 C505 0.961 . S
H493 C505 0.959 . S
H494 C508 0.929 . S
H495 C509 0.931 . S
H496 C511 0.930 . S
C497 H485 0.930 . S
C497 C498 1.399 . S
C497 C502 1.399 . S
C498 C497 1.399 . S
C498 C499 1.376 . S
C499 H486 0.930 . S
C499 C498 1.376 . S
C499 C500 1.388 . S
C500 H487 0.930 . S
C500 C499 1.388 . S
C500 C501 1.390 . S
C501 C500 1.390 . S
C501 C502 1.394 . S
C501 C507 1.465 . S
C502 C497 1.399 . S
C502 C501 1.394 . S
C502 C503 1.516 . S
C503 C502 1.516 . S
C503 C504 1.502 . S
C503 C505 1.561 . S
C503 C506 1.526 . S
C504 H488 0.959 . S
C504 H489 0.959 . S
C504 H490 0.961 . S
C504 C503 1.502 . S
C505 H491 0.960 . S
C505 H492 0.961 . S
C505 H493 0.959 . S
C505 C503 1.561 . S
C506 C503 1.526 . S
C506 C507 1.396 . S
C506 C511 1.390 . S
C507 C501 1.465 . S
C507 C506 1.396 . S
C507 C508 1.399 . S
C508 H494 0.929 . S
C508 C507 1.399 . S
C508 C509 1.385 . S
C509 H495 0.931 . S
C509 C508 1.385 . S
C509 C510 1.389 . S
C510 C509 1.389 . S
C510 C511 1.387 . S
C511 H496 0.930 . S
C511 C506 1.390 . S
C511 C510 1.387 . S
H512 C524 0.916 1_545 S
H513 C526 0.930 . S
H514 C527 0.930 . S
H515 C531 0.959 . S
H516 C531 0.959 . S
H517 C531 0.961 . S
H518 C532 0.960 . S
H519 C532 0.961 . S
H520 C532 0.959 . S
H521 C535 0.929 . S
H522 C536 0.931 . S
H523 C538 0.930 . S
C524 H512 0.916 1_565 S
C524 C525 1.414 . S
C524 C529 1.399 1_565 S
C525 C524 1.414 . S
C525 C526 1.376 . S
C526 H513 0.930 . S
C526 C525 1.376 . S
C526 C527 1.388 . S
C527 H514 0.930 . S
C527 C526 1.388 . S
C527 C528 1.390 . S
C528 C527 1.390 . S
C528 C529 1.393 1_565 S
C528 C534 1.465 . S
C529 C524 1.399 1_545 S
C529 C528 1.393 1_545 S
C529 C530 1.516 . S
C530 C529 1.516 . S
C530 C531 1.502 . S
C530 C532 1.561 1_655 S
C530 C533 1.526 . S
C531 H515 0.959 . S
C531 H516 0.959 . S
C531 H517 0.961 . S
C531 C530 1.502 . S
C532 H518 0.960 . S
C532 H519 0.961 . S
C532 H520 0.959 . S
C532 C530 1.561 1_455 S
C533 C530 1.526 . S
C533 C534 1.396 1_545 S
C533 C538 1.390 . S
C534 C528 1.465 . S
C534 C533 1.396 1_565 S
C534 C535 1.399 . S
C535 H521 0.929 . S
C535 C534 1.399 . S
C535 C536 1.385 . S
C536 H522 0.931 . S
C536 C535 1.385 . S
C536 C537 1.389 1_565 S
C537 C536 1.389 1_545 S
C537 C538 1.387 . S
C538 H523 0.930 . S
C538 C533 1.390 . S
C538 C537 1.387 . S
H539 C551 0.930 . S
H540 C553 0.930 . S
H541 C554 0.930 . S
H542 C558 0.959 1_545 S
H543 C558 0.959 . S
H544 C558 0.961 . S
H545 C559 0.960 . S
H546 C559 0.961 . S
H547 C559 0.959 . S
H548 C562 0.929 . S
H549 C563 0.931 . S
H550 C565 0.930 1_565 S
C551 H539 0.930 . S
C551 C552 1.399 . S
C551 C556 1.399 . S
C552 C551 1.399 . S
C552 C553 1.376 . S
C553 H540 0.930 . S
C553 C552 1.376 . S
C553 C554 1.388 . S
C554 H541 0.930 . S
C554 C553 1.388 . S
C554 C555 1.390 . S
C555 C554 1.390 . S
C555 C556 1.394 . S
C555 C561 1.465 . S
C556 C551 1.399 . S
C556 C555 1.394 . S
C556 C557 1.516 . S
C557 C556 1.516 . S
C557 C558 1.502 1_545 S
C557 C559 1.561 1_545 S
C557 C560 1.526 . S
C558 H542 0.959 1_565 S
C558 H543 0.959 . S
C558 H544 0.961 . S
C558 C557 1.502 1_565 S
C559 H545 0.960 . S
C559 H546 0.961 . S
C559 H547 0.959 . S
C559 C557 1.561 1_565 S
C560 C557 1.526 . S
C560 C561 1.396 . S
C560 C565 1.390 . S
C561 C555 1.465 . S
C561 C560 1.396 . S
C561 C562 1.399 . S
C562 H548 0.929 . S
C562 C561 1.399 . S
C562 C563 1.385 . S
C563 H549 0.931 . S
C563 C562 1.385 . S
C563 C564 1.389 . S
C564 C563 1.389 . S
C564 C565 1.387 . S
C565 H550 0.930 1_545 S
C565 C560 1.390 . S
C565 C564 1.387 . S
H566 C578 0.930 . S
H567 C580 0.930 . S
H568 C581 0.930 . S
H569 C585 0.959 . S
H570 C585 0.959 . S
H571 C585 0.961 . S
H572 C586 0.960 . S
H573 C586 0.961 . S
H574 C586 0.959 . S
H575 C589 0.929 . S
H576 C590 0.931 . S
H577 C592 0.930 . S
C578 H566 0.930 . S
C578 C579 1.399 . S
C578 C583 1.399 . S
C579 C578 1.399 . S
C579 C580 1.376 . S
C580 H567 0.930 . S
C580 C579 1.376 . S
C580 C581 1.388 . S
C581 H568 0.930 . S
C581 C580 1.388 . S
C581 C582 1.390 . S
C582 C581 1.390 . S
C582 C583 1.394 . S
C582 C588 1.465 . S
C583 C578 1.399 . S
C583 C582 1.394 . S
C583 C584 1.516 . S
C584 C583 1.516 . S
C584 C585 1.502 . S
C584 C586 1.561 . S
C584 C587 1.526 . S
C585 H569 0.959 . S
C585 H570 0.959 . S
C585 H571 0.961 . S
C585 C584 1.502 . S
C586 H572 0.960 . S
C586 H573 0.961 . S
C586 H574 0.959 . S
C586 C584 1.561 . S
C587 C584 1.526 . S
C587 C588 1.396 . S
C587 C592 1.390 . S
C588 C582 1.465 . S
C588 C587 1.396 . S
C588 C589 1.399 . S
C589 H575 0.929 . S
C589 C588 1.399 . S
C589 C590 1.385 . S
C590 H576 0.931 . S
C590 C589 1.385 . S
C590 C591 1.389 . S
C591 C590 1.389 . S
C591 C592 1.387 . S
C592 H577 0.930 . S
C592 C587 1.390 . S
C592 C591 1.387 . S
H593 C605 0.930 . S
H594 C607 0.930 . S
H595 C608 0.930 . S
H596 C612 0.959 . S
H597 C612 0.959 . S
H598 C612 0.961 . S
H599 C613 0.960 . S
H600 C613 0.961 . S
H601 C613 0.959 . S
H602 C616 0.929 . S
H603 C617 0.931 . S
H604 C619 0.930 . S
C605 H593 0.930 . S
C605 C606 1.399 . S
C605 C610 1.399 . S
C606 C605 1.399 . S
C606 C607 1.376 . S
C607 H594 0.930 . S
C607 C606 1.376 . S
C607 C608 1.388 . S
C608 H595 0.930 . S
C608 C607 1.388 . S
C608 C609 1.390 . S
C609 C608 1.390 . S
C609 C610 1.394 . S
C609 C615 1.465 . S
C610 C605 1.399 . S
C610 C609 1.394 . S
C610 C611 1.516 . S
C611 C610 1.516 . S
C611 C612 1.502 . S
C611 C613 1.561 . S
C611 C614 1.526 . S
C612 H596 0.959 . S
C612 H597 0.959 . S
C612 H598 0.961 . S
C612 C611 1.502 . S
C613 H599 0.960 . S
C613 H600 0.961 . S
C613 H601 0.959 . S
C613 C611 1.561 . S
C614 C611 1.526 . S
C614 C615 1.396 . S
C614 C619 1.390 . S
C615 C609 1.465 . S
C615 C614 1.396 . S
C615 C616 1.399 . S
C616 H602 0.929 . S
C616 C615 1.399 . S
C616 C617 1.385 . S
C617 H603 0.931 . S
C617 C616 1.385 . S
C617 C618 1.389 . S
C618 C617 1.389 . S
C618 C619 1.387 . S
C619 H604 0.930 . S
C619 C614 1.390 . S
C619 C618 1.387 . S
H620 C632 0.930 . S
H621 C634 0.930 1_545 S
H622 C635 0.930 . S
H623 C639 0.959 . S
H624 C639 0.959 1_554 S
H625 C639 0.961 . S
H626 C640 0.960 . S
H627 C640 0.961 . S
H628 C640 0.959 . S
H629 C643 0.929 . S
H630 C644 0.931 . S
H631 C646 0.930 . S
C632 H620 0.930 . S
C632 C633 1.399 . S
C632 C637 1.399 . S
C633 C632 1.399 . S
C633 C634 1.376 . S
C634 H621 0.930 1_565 S
C634 C633 1.376 . S
C634 C635 1.388 1_565 S
C635 H622 0.930 . S
C635 C634 1.388 1_545 S
C635 C636 1.390 1_545 S
C636 C635 1.390 1_565 S
C636 C637 1.394 . S
C636 C642 1.465 . S
C637 C632 1.399 . S
C637 C636 1.394 . S
C637 C638 1.516 1_556 S
C638 C637 1.516 1_554 S
C638 C639 1.502 1_554 S
C638 C640 1.561 . S
C638 C641 1.526 1_554 S
C639 H623 0.959 . S
C639 H624 0.959 1_556 S
C639 H625 0.961 . S
C639 C638 1.502 1_556 S
C640 H626 0.960 . S
C640 H627 0.961 . S
C640 H628 0.959 . S
C640 C638 1.561 . S
C641 C638 1.526 1_556 S
C641 C642 1.396 . S
C641 C646 1.390 1_556 S
C642 C636 1.465 . S
C642 C641 1.396 . S
C642 C643 1.399 1_565 S
C643 H629 0.929 . S
C643 C642 1.399 1_545 S
C643 C644 1.385 . S
C644 H630 0.931 . S
C644 C643 1.385 . S
C644 C645 1.389 1_545 S
C645 C644 1.389 1_565 S
C645 C646 1.387 1_556 S
C646 H631 0.930 . S
C646 C641 1.390 1_554 S
C646 C645 1.387 1_554 S
H647 C659 0.930 . S
H648 C661 0.930 . S
H649 C662 0.930 . S
H650 C666 0.959 . S
H651 C666 0.959 . S
H652 C666 0.961 . S
H653 C667 0.960 . S
H654 C667 0.961 . S
H655 C667 0.959 1_565 S
H656 C670 0.929 . S
H657 C671 0.931 . S
H658 C673 0.930 . S
C659 H647 0.930 . S
C659 C660 1.399 . S
C659 C664 1.399 . S
C660 C659 1.399 . S
C660 C661 1.376 . S
C661 H648 0.930 . S
C661 C660 1.376 . S
C661 C662 1.388 . S
C662 H649 0.930 . S
C662 C661 1.388 . S
C662 C663 1.390 . S
C663 C662 1.390 . S
C663 C664 1.394 . S
C663 C669 1.465 . S
C664 C659 1.399 . S
C664 C663 1.394 . S
C664 C665 1.516 . S
C665 C664 1.516 . S
C665 C666 1.502 . S
C665 C667 1.561 . S
C665 C668 1.526 . S
C666 H650 0.959 . S
C666 H651 0.959 . S
C666 H652 0.961 . S
C666 C665 1.502 . S
C667 H653 0.960 . S
C667 H654 0.961 . S
C667 H655 0.959 1_545 S
C667 C665 1.561 . S
C668 C665 1.526 . S
C668 C669 1.396 . S
C668 C673 1.390 . S
C669 C663 1.465 . S
C669 C668 1.396 . S
C669 C670 1.399 . S
C670 H656 0.929 . S
C670 C669 1.399 . S
C670 C671 1.385 . S
C671 H657 0.931 . S
C671 C670 1.385 . S
C671 C672 1.389 . S
C672 C671 1.389 . S
C672 C673 1.387 . S
C673 H658 0.930 . S
C673 C668 1.390 . S
C673 C672 1.387 . S
H674 C686 0.930 . S
H675 C688 0.930 . S
H676 C689 0.930 . S
H677 C693 0.959 1_556 S
H678 C693 0.959 . S
H679 C693 0.961 . S
H680 C694 0.960 . S
H681 C694 0.961 . S
H682 C694 0.959 . S
H683 C697 0.929 . S
H684 C698 0.931 . S
H685 C700 0.930 . S
C686 H674 0.930 . S
C686 C687 1.399 . S
C686 C691 1.399 . S
C687 C686 1.399 . S
C687 C688 1.376 . S
C688 H675 0.930 . S
C688 C687 1.376 . S
C688 C689 1.388 . S
C689 H676 0.930 . S
C689 C688 1.388 . S
C689 C690 1.390 . S
C690 C689 1.390 . S
C690 C691 1.394 . S
C690 C696 1.465 . S
C691 C686 1.399 . S
C691 C690 1.394 . S
C691 C692 1.516 . S
C692 C691 1.516 . S
C692 C693 1.502 . S
C692 C694 1.561 . S
C692 C695 1.526 . S
C693 H677 0.959 1_554 S
C693 H678 0.959 . S
C693 H679 0.961 . S
C693 C692 1.502 . S
C694 H680 0.960 . S
C694 H681 0.961 . S
C694 H682 0.959 . S
C694 C692 1.561 . S
C695 C692 1.526 . S
C695 C696 1.396 . S
C695 C700 1.390 . S
C696 C690 1.465 . S
C696 C695 1.396 . S
C696 C697 1.399 . S
C697 H683 0.929 . S
C697 C696 1.399 . S
C697 C698 1.385 . S
C698 H684 0.931 . S
C698 C697 1.385 . S
C698 C699 1.389 . S
C699 C698 1.389 . S
C699 C700 1.387 . S
C700 H685 0.930 . S
C700 C695 1.390 . S
C700 C699 1.387 . S
H701 C713 0.930 . S
H702 C715 0.930 . S
H703 C716 0.930 . S
H704 C720 0.959 . S
H705 C720 0.959 . S
H706 C720 0.961 . S
H707 C721 0.960 . S
H708 C721 0.961 . S
H709 C721 0.959 . S
H710 C724 0.929 . S
H711 C725 0.931 . S
H712 C727 0.930 . S
C713 H701 0.930 . S
C713 C714 1.399 . S
C713 C718 1.399 . S
C714 C713 1.399 . S
C714 C715 1.376 . S
C715 H702 0.930 . S
C715 C714 1.376 . S
C715 C716 1.388 . S
C716 H703 0.930 . S
C716 C715 1.388 . S
C716 C717 1.390 . S
C717 C716 1.390 . S
C717 C718 1.394 . S
C717 C723 1.465 . S
C718 C713 1.399 . S
C718 C717 1.394 . S
C718 C719 1.516 . S
C719 C718 1.516 . S
C719 C720 1.502 . S
C719 C721 1.561 . S
C719 C722 1.526 . S
C720 H704 0.959 . S
C720 H705 0.959 . S
C720 H706 0.961 . S
C720 C719 1.502 . S
C721 H707 0.960 . S
C721 H708 0.961 . S
C721 H709 0.959 . S
C721 C719 1.561 . S
C722 C719 1.526 . S
C722 C723 1.396 . S
C722 C727 1.390 . S
C723 C717 1.465 . S
C723 C722 1.396 . S
C723 C724 1.399 . S
C724 H710 0.929 . S
C724 C723 1.399 . S
C724 C725 1.385 . S
C725 H711 0.931 . S
C725 C724 1.385 . S
C725 C726 1.389 . S
C726 C725 1.389 . S
C726 C727 1.387 . S
C727 H712 0.930 . S
C727 C722 1.390 . S
C727 C726 1.387 . S
H728 C740 0.930 1_655 S
H729 C742 0.930 . S
H730 C743 0.930 . S
H731 C747 0.959 . S
H732 C747 0.959 . S
H733 C747 0.961 . S
H734 C748 0.960 . S
H735 C748 0.961 . S
H736 C748 0.959 . S
H737 C751 0.929 . S
H738 C752 0.931 . S
H739 C754 0.930 . S
C740 H728 0.930 1_455 S
C740 C741 1.399 . S
C740 C745 1.399 . S
C741 C740 1.399 . S
C741 C742 1.376 1_556 S
C742 H729 0.930 . S
C742 C741 1.376 1_554 S
C742 C743 1.388 . S
C743 H730 0.930 . S
C743 C742 1.388 . S
C743 C744 1.390 . S
C744 C743 1.390 . S
C744 C745 1.394 1_554 S
C744 C750 1.465 . S
C745 C740 1.399 . S
C745 C744 1.394 1_556 S
C745 C746 1.516 . S
C746 C745 1.516 . S
C746 C747 1.502 1_455 S
C746 C748 1.561 . S
C746 C749 1.526 . S
C747 H731 0.959 . S
C747 H732 0.959 . S
C747 H733 0.961 . S
C747 C746 1.502 1_655 S
C748 H734 0.960 . S
C748 H735 0.961 . S
C748 H736 0.959 . S
C748 C746 1.561 . S
C749 C746 1.526 . S
C749 C750 1.396 1_556 S
C749 C754 1.390 . S
C750 C744 1.465 . S
C750 C749 1.396 1_554 S
C750 C751 1.399 . S
C751 H737 0.929 . S
C751 C750 1.399 . S
C751 C752 1.385 . S
C752 H738 0.931 . S
C752 C751 1.385 . S
C752 C753 1.389 1_554 S
C753 C752 1.389 1_556 S
C753 C754 1.387 . S
C754 H739 0.930 . S
C754 C749 1.390 . S
C754 C753 1.387 . S
H755 C767 0.930 . S
H756 C769 0.930 1_556 S
H757 C770 0.915 1_556 S
H758 C774 0.959 . S
H759 C774 0.959 . S
H760 C774 0.961 . S
H761 C775 0.960 . S
H762 C775 0.961 . S
H763 C775 0.959 . S
H764 C778 0.929 . S
H765 C779 0.931 . S
H766 C781 0.930 . S
C767 H755 0.930 . S
C767 C768 1.399 . S
C767 C772 1.399 . S
C768 C767 1.399 . S
C768 C769 1.376 . S
C769 H756 0.930 1_554 S
C769 C768 1.376 . S
C769 C770 1.393 . S
C770 H757 0.915 1_554 S
C770 C769 1.393 . S
C770 C771 1.400 . S
C771 C770 1.400 . S
C771 C772 1.394 . S
C771 C777 1.465 . S
C772 C767 1.399 . S
C772 C771 1.394 . S
C772 C773 1.516 . S
C773 C772 1.516 . S
C773 C774 1.502 . S
C773 C775 1.561 . S
C773 C776 1.526 . S
C774 H758 0.959 . S
C774 H759 0.959 . S
C774 H760 0.961 . S
C774 C773 1.502 . S
C775 H761 0.960 . S
C775 H762 0.961 . S
C775 H763 0.959 . S
C775 C773 1.561 . S
C776 C773 1.526 . S
C776 C777 1.396 . S
C776 C781 1.390 . S
C777 C771 1.465 . S
C777 C776 1.396 . S
C777 C778 1.399 1_554 S
C778 H764 0.929 . S
C778 C777 1.399 1_556 S
C778 C779 1.385 . S
C779 H765 0.931 . S
C779 C778 1.385 . S
C779 C780 1.389 1_556 S
C780 C779 1.389 1_554 S
C780 C781 1.387 . S
C781 H766 0.930 . S
C781 C776 1.390 . S
C781 C780 1.387 . S
H782 C794 0.930 . S
H783 C796 0.930 . S
H784 C797 0.930 . S
H785 C801 0.959 1_655 S
H786 C801 0.959 . S
H787 C801 0.961 . S
H788 C802 0.960 . S
H789 C802 0.961 . S
H790 C802 0.959 . S
H791 C805 0.929 . S
H792 C806 0.931 . S
H793 C808 0.930 . S
C794 H782 0.930 . S
C794 C795 1.399 . S
C794 C799 1.399 . S
C795 C794 1.399 . S
C795 C796 1.376 . S
C796 H783 0.930 . S
C796 C795 1.376 . S
C796 C797 1.388 . S
C797 H784 0.930 . S
C797 C796 1.388 . S
C797 C798 1.390 . S
C798 C797 1.390 . S
C798 C799 1.394 . S
C798 C804 1.465 . S
C799 C794 1.399 . S
C799 C798 1.394 . S
C799 C800 1.516 . S
C800 C799 1.516 . S
C800 C801 1.502 . S
C800 C802 1.561 . S
C800 C803 1.526 . S
C801 H785 0.959 1_455 S
C801 H786 0.959 . S
C801 H787 0.961 . S
C801 C800 1.502 . S
C802 H788 0.960 . S
C802 H789 0.961 . S
C802 H790 0.959 . S
C802 C800 1.561 . S
C803 C800 1.526 . S
C803 C804 1.396 . S
C803 C808 1.390 . S
C804 C798 1.465 . S
C804 C803 1.396 . S
C804 C805 1.399 . S
C805 H791 0.929 . S
C805 C804 1.399 . S
C805 C806 1.385 . S
C806 H792 0.931 . S
C806 C805 1.385 . S
C806 C807 1.389 . S
C807 C806 1.389 . S
C807 C808 1.387 . S
C808 H793 0.930 . S
C808 C803 1.390 . S
C808 C807 1.387 . S
H809 C821 0.930 . S
H810 C823 0.930 . S
H811 C824 0.930 . S
H812 C828 0.959 . S
H813 C828 0.959 . S
H814 C828 0.961 . S
H815 C829 0.960 . S
H816 C829 0.961 . S
H817 C829 0.959 . S
H818 C832 0.929 . S
H819 C833 0.931 . S
H820 C835 0.930 . S
C821 H809 0.930 . S
C821 C822 1.399 . S
C821 C826 1.399 . S
C822 C821 1.399 . S
C822 C823 1.376 . S
C823 H810 0.930 . S
C823 C822 1.376 . S
C823 C824 1.388 . S
C824 H811 0.930 . S
C824 C823 1.388 . S
C824 C825 1.390 . S
C825 C824 1.390 . S
C825 C826 1.394 . S
C825 C831 1.465 . S
C826 C821 1.399 . S
C826 C825 1.394 . S
C826 C827 1.516 . S
C827 C826 1.516 . S
C827 C828 1.502 . S
C827 C829 1.561 . S
C827 C830 1.526 . S
C828 H812 0.959 . S
C828 H813 0.959 . S
C828 H814 0.961 . S
C828 C827 1.502 . S
C829 H815 0.960 . S
C829 H816 0.961 . S
C829 H817 0.959 . S
C829 C827 1.561 . S
C830 C827 1.526 . S
C830 C831 1.396 . S
C830 C835 1.390 . S
C831 C825 1.465 . S
C831 C830 1.396 . S
C831 C832 1.399 . S
C832 H818 0.929 . S
C832 C831 1.399 . S
C832 C833 1.385 . S
C833 H819 0.931 . S
C833 C832 1.385 . S
C833 C834 1.389 . S
C834 C833 1.389 . S
C834 C835 1.387 . S
C835 H820 0.930 . S
C835 C830 1.390 . S
C835 C834 1.387 . S
C201 C9 1.948 . S
C213 C107 1.766 . S
C228 C21 1.548 . S
C240 C141 1.458 . S
C267 C153 1.160 . S
C255 C30 1.197 . S
C282 C43 1.212 . S
C294 C187 1.236 1_655 S
C321 C144 1.355 . S
C309 C4 1.455 . S
C348 C124 1.871 . S
C336 C22 1.991 . S
C375 C171 1.177 . S
C363 C34 1.208 . S
C402 C162 1.344 . S
C390 C48 1.383 . S
C417 C8 1.624 . S
C429 C170 1.543 . S
C456 C132 1.442 . S
C444 C35 1.506 . S
C471 C47 1.588 . S
C483 C108 1.457 . S
C498 C17 1.346 . S
C510 C165 1.332 . S
C537 C123 1.599 . S
C525 C60 1.622 . S
C552 C74 1.835 . S
C564 C145 1.775 . S
C579 C82 1.220 . S
C591 C150 1.181 . S
C606 C100 1.827 . S
C618 C183 1.772 . S
C633 C61 1.874 . S
C645 C128 1.785 1_556 S
C672 C120 1.629 . S
C660 C73 1.671 . S
C699 C174 1.469 . S
C687 C87 1.623 . S
C726 C166 1.075 . S
C714 C95 1.156 . S
C741 C56 1.604 1_455 S
C753 C186 1.572 . S
C780 C129 1.623 . S
C768 C86 1.721 . S
C807 C111 1.417 . S
C795 C99 1.506 . S
C822 C69 1.515 . S
C834 C149 1.445 . S
