# Generated by pormake.
# Topology ptr, (4,4)-cn, num edge types: 1
# Building blocks:
#     Node 0, Type 0, BuildingBlock: KUFVIS_clean_sbu_0, # of connection points: 4
#     Node 1, Type 0, BuildingBlock: KUFVIS_clean_sbu_0, # of connection points: 4
#     Node 2, Type 0, BuildingBlock: KUFVIS_clean_sbu_0, # of connection points: 4
#     Node 3, Type 0, BuildingBlock: KUFVIS_clean_sbu_0, # of connection points: 4
#     Node 4, Type 0, BuildingBlock: KUFVIS_clean_sbu_0, # of connection points: 4
#     Node 5, Type 0, BuildingBlock: KUFVIS_clean_sbu_0, # of connection points: 4
#     Node 6, Type 0, BuildingBlock: KUFVIS_clean_sbu_0, # of connection points: 4
#     Node 7, Type 0, BuildingBlock: KUFVIS_clean_sbu_0, # of connection points: 4
#     Node 8, Type 0, BuildingBlock: KUFVIS_clean_sbu_0, # of connection points: 4
#     Node 9, Type 0, BuildingBlock: KUFVIS_clean_sbu_0, # of connection points: 4
#     Node 10, Type 0, BuildingBlock: KUFVIS_clean_sbu_0, # of connection points: 4
#     Node 11, Type 0, BuildingBlock: KUFVIS_clean_sbu_0, # of connection points: 4
#     Node 12, Type 0, BuildingBlock: KUFVIS_clean_sbu_0, # of connection points: 4
#     Node 13, Type 0, BuildingBlock: KUFVIS_clean_sbu_0, # of connection points: 4
#     Node 14, Type 0, BuildingBlock: KUFVIS_clean_sbu_0, # of connection points: 4
#     Node 15, Type 0, BuildingBlock: KUFVIS_clean_sbu_0, # of connection points: 4
#     Node 16, Type 0, BuildingBlock: KUFVIS_clean_sbu_0, # of connection points: 4
#     Node 17, Type 0, BuildingBlock: KUFVIS_clean_sbu_0, # of connection points: 4
#     Node 18, Type 1, BuildingBlock: NAHDIM_clean_linker_0, # of connection points: 4
#     Node 19, Type 1, BuildingBlock: NAHDIM_clean_linker_0, # of connection points: 4
#     Node 20, Type 1, BuildingBlock: NAHDIM_clean_linker_0, # of connection points: 4
#     Node 21, Type 1, BuildingBlock: NAHDIM_clean_linker_0, # of connection points: 4
#     Node 22, Type 1, BuildingBlock: NAHDIM_clean_linker_0, # of connection points: 4
#     Node 23, Type 1, BuildingBlock: NAHDIM_clean_linker_0, # of connection points: 4
#     Node 24, Type 1, BuildingBlock: NAHDIM_clean_linker_0, # of connection points: 4
#     Node 25, Type 1, BuildingBlock: NAHDIM_clean_linker_0, # of connection points: 4
#     Node 26, Type 1, BuildingBlock: NAHDIM_clean_linker_0, # of connection points: 4
#     Node 27, Type 1, BuildingBlock: NAHDIM_clean_linker_0, # of connection points: 4
#     Node 28, Type 1, BuildingBlock: NAHDIM_clean_linker_0, # of connection points: 4
#     Node 29, Type 1, BuildingBlock: NAHDIM_clean_linker_0, # of connection points: 4
#     Node 30, Type 1, BuildingBlock: NAHDIM_clean_linker_0, # of connection points: 4
#     Node 31, Type 1, BuildingBlock: NAHDIM_clean_linker_0, # of connection points: 4
#     Node 32, Type 1, BuildingBlock: NAHDIM_clean_linker_0, # of connection points: 4
#     Node 33, Type 1, BuildingBlock: NAHDIM_clean_linker_0, # of connection points: 4
#     Node 34, Type 1, BuildingBlock: NAHDIM_clean_linker_0, # of connection points: 4
#     Node 35, Type 1, BuildingBlock: NAHDIM_clean_linker_0, # of connection points: 4
#     Edge 36, Type (0, 1), BuildingBlock: KIFKEQ_clean_linker_1, # of connection points: 2
#     Edge 37, Type (0, 1), BuildingBlock: KIFKEQ_clean_linker_1, # of connection points: 2
#     Edge 38, Type (0, 1), BuildingBlock: KIFKEQ_clean_linker_1, # of connection points: 2
#     Edge 39, Type (0, 1), BuildingBlock: KIFKEQ_clean_linker_1, # of connection points: 2
#     Edge 40, Type (0, 1), BuildingBlock: KIFKEQ_clean_linker_1, # of connection points: 2
#     Edge 41, Type (0, 1), BuildingBlock: KIFKEQ_clean_linker_1, # of connection points: 2
#     Edge 42, Type (0, 1), BuildingBlock: KIFKEQ_clean_linker_1, # of connection points: 2
#     Edge 43, Type (0, 1), BuildingBlock: KIFKEQ_clean_linker_1, # of connection points: 2
#     Edge 44, Type (0, 1), BuildingBlock: KIFKEQ_clean_linker_1, # of connection points: 2
#     Edge 45, Type (0, 1), BuildingBlock: KIFKEQ_clean_linker_1, # of connection points: 2
#     Edge 46, Type (0, 1), BuildingBlock: KIFKEQ_clean_linker_1, # of connection points: 2
#     Edge 47, Type (0, 1), BuildingBlock: KIFKEQ_clean_linker_1, # of connection points: 2
#     Edge 48, Type (0, 1), BuildingBlock: KIFKEQ_clean_linker_1, # of connection points: 2
#     Edge 49, Type (0, 1), BuildingBlock: KIFKEQ_clean_linker_1, # of connection points: 2
#     Edge 50, Type (0, 1), BuildingBlock: KIFKEQ_clean_linker_1, # of connection points: 2
#     Edge 51, Type (0, 1), BuildingBlock: KIFKEQ_clean_linker_1, # of connection points: 2
#     Edge 52, Type (0, 1), BuildingBlock: KIFKEQ_clean_linker_1, # of connection points: 2
#     Edge 53, Type (0, 1), BuildingBlock: KIFKEQ_clean_linker_1, # of connection points: 2
#     Edge 54, Type (0, 1), BuildingBlock: KIFKEQ_clean_linker_1, # of connection points: 2
#     Edge 55, Type (0, 1), BuildingBlock: KIFKEQ_clean_linker_1, # of connection points: 2
#     Edge 56, Type (0, 1), BuildingBlock: KIFKEQ_clean_linker_1, # of connection points: 2
#     Edge 57, Type (0, 1), BuildingBlock: KIFKEQ_clean_linker_1, # of connection points: 2
#     Edge 58, Type (0, 1), BuildingBlock: KIFKEQ_clean_linker_1, # of connection points: 2
#     Edge 59, Type (0, 1), BuildingBlock: KIFKEQ_clean_linker_1, # of connection points: 2
#     Edge 60, Type (0, 1), BuildingBlock: KIFKEQ_clean_linker_1, # of connection points: 2
#     Edge 61, Type (0, 1), BuildingBlock: KIFKEQ_clean_linker_1, # of connection points: 2
#     Edge 62, Type (0, 1), BuildingBlock: KIFKEQ_clean_linker_1, # of connection points: 2
#     Edge 63, Type (0, 1), BuildingBlock: KIFKEQ_clean_linker_1, # of connection points: 2
#     Edge 64, Type (0, 1), BuildingBlock: KIFKEQ_clean_linker_1, # of connection points: 2
#     Edge 65, Type (0, 1), BuildingBlock: KIFKEQ_clean_linker_1, # of connection points: 2
#     Edge 66, Type (0, 1), BuildingBlock: KIFKEQ_clean_linker_1, # of connection points: 2
#     Edge 67, Type (0, 1), BuildingBlock: KIFKEQ_clean_linker_1, # of connection points: 2
#     Edge 68, Type (0, 1), BuildingBlock: KIFKEQ_clean_linker_1, # of connection points: 2
#     Edge 69, Type (0, 1), BuildingBlock: KIFKEQ_clean_linker_1, # of connection points: 2
#     Edge 70, Type (0, 1), BuildingBlock: KIFKEQ_clean_linker_1, # of connection points: 2
#     Edge 71, Type (0, 1), BuildingBlock: KIFKEQ_clean_linker_1, # of connection points: 2
#     Edge 72, Type (0, 1), BuildingBlock: KIFKEQ_clean_linker_1, # of connection points: 2
#     Edge 73, Type (0, 1), BuildingBlock: KIFKEQ_clean_linker_1, # of connection points: 2
#     Edge 74, Type (0, 1), BuildingBlock: KIFKEQ_clean_linker_1, # of connection points: 2
#     Edge 75, Type (0, 1), BuildingBlock: KIFKEQ_clean_linker_1, # of connection points: 2
#     Edge 76, Type (0, 1), BuildingBlock: KIFKEQ_clean_linker_1, # of connection points: 2
#     Edge 77, Type (0, 1), BuildingBlock: KIFKEQ_clean_linker_1, # of connection points: 2
#     Edge 78, Type (0, 1), BuildingBlock: KIFKEQ_clean_linker_1, # of connection points: 2
#     Edge 79, Type (0, 1), BuildingBlock: KIFKEQ_clean_linker_1, # of connection points: 2
#     Edge 80, Type (0, 1), BuildingBlock: KIFKEQ_clean_linker_1, # of connection points: 2
#     Edge 81, Type (0, 1), BuildingBlock: KIFKEQ_clean_linker_1, # of connection points: 2
#     Edge 82, Type (0, 1), BuildingBlock: KIFKEQ_clean_linker_1, # of connection points: 2
#     Edge 83, Type (0, 1), BuildingBlock: KIFKEQ_clean_linker_1, # of connection points: 2
#     Edge 84, Type (0, 1), BuildingBlock: KIFKEQ_clean_linker_1, # of connection points: 2
#     Edge 85, Type (0, 1), BuildingBlock: KIFKEQ_clean_linker_1, # of connection points: 2
#     Edge 86, Type (0, 1), BuildingBlock: KIFKEQ_clean_linker_1, # of connection points: 2
#     Edge 87, Type (0, 1), BuildingBlock: KIFKEQ_clean_linker_1, # of connection points: 2
#     Edge 88, Type (0, 1), BuildingBlock: KIFKEQ_clean_linker_1, # of connection points: 2
#     Edge 89, Type (0, 1), BuildingBlock: KIFKEQ_clean_linker_1, # of connection points: 2
#     Edge 90, Type (0, 1), BuildingBlock: KIFKEQ_clean_linker_1, # of connection points: 2
#     Edge 91, Type (0, 1), BuildingBlock: KIFKEQ_clean_linker_1, # of connection points: 2
#     Edge 92, Type (0, 1), BuildingBlock: KIFKEQ_clean_linker_1, # of connection points: 2
#     Edge 93, Type (0, 1), BuildingBlock: KIFKEQ_clean_linker_1, # of connection points: 2
#     Edge 94, Type (0, 1), BuildingBlock: KIFKEQ_clean_linker_1, # of connection points: 2
#     Edge 95, Type (0, 1), BuildingBlock: KIFKEQ_clean_linker_1, # of connection points: 2
#     Edge 96, Type (0, 1), BuildingBlock: KIFKEQ_clean_linker_1, # of connection points: 2
#     Edge 97, Type (0, 1), BuildingBlock: KIFKEQ_clean_linker_1, # of connection points: 2
#     Edge 98, Type (0, 1), BuildingBlock: KIFKEQ_clean_linker_1, # of connection points: 2
#     Edge 99, Type (0, 1), BuildingBlock: KIFKEQ_clean_linker_1, # of connection points: 2
#     Edge 100, Type (0, 1), BuildingBlock: KIFKEQ_clean_linker_1, # of connection points: 2
#     Edge 101, Type (0, 1), BuildingBlock: KIFKEQ_clean_linker_1, # of connection points: 2
#     Edge 102, Type (0, 1), BuildingBlock: KIFKEQ_clean_linker_1, # of connection points: 2
#     Edge 103, Type (0, 1), BuildingBlock: KIFKEQ_clean_linker_1, # of connection points: 2
#     Edge 104, Type (0, 1), BuildingBlock: KIFKEQ_clean_linker_1, # of connection points: 2
#     Edge 105, Type (0, 1), BuildingBlock: KIFKEQ_clean_linker_1, # of connection points: 2
#     Edge 106, Type (0, 1), BuildingBlock: KIFKEQ_clean_linker_1, # of connection points: 2
#     Edge 107, Type (0, 1), BuildingBlock: KIFKEQ_clean_linker_1, # of connection points: 2
# Relax obj value: 0.038
# Max RMSD: 0.204
# Mean RMSD: 0.072
data_MOF--net-ptr--node1-KUFVIS_clean_sbu_0--node2-NAHDIM_clean_linker_0--edge1-KIFKEQ_clean_linker_1
_symmetry_space_group_name_H-M    P1
_symmetry_Int_Tables_number       1
_symmetry_cell_setting            triclinic
loop_
_symmetry_equiv_pos_as_xyz
'x, y, z'
_cell_length_a     95.45463
_cell_length_b     94.506165
_cell_length_c     81.239244
_cell_angle_alpha  90.529785
_cell_angle_beta   91.00577
_cell_angle_gamma 119.5556
loop_
_atom_site_label
_atom_site_type_symbol
_atom_site_fract_x
_atom_site_fract_y
_atom_site_fract_z
_atom_type_partial_charge
Mn0 Mn 0.00224 0.33852 0.00087 0.0
Mn1 Mn 0.03743 0.37356 0.00594 0.0
C2 C 0.00728 0.36007 0.98441 0.0
C3 C 0.98853 0.31251 0.9891 0.0
C4 C 0.00918 0.36324 0.02861 0.0
O5 O 0.01583 0.33225 0.0151 0.0
O6 O 0.03971 0.3554 0.01555 0.0
C7 C 0.0573 0.36608 0.9838 0.0
N8 N 0.05118 0.37586 0.98816 0.0
C9 C 0.06446 0.39391 0.96591 0.0
C10 C 0.07102 0.38411 0.96126 0.0
C11 C 0.0674 0.37012 0.97023 0.0
C12 C 0.05457 0.38933 0.97961 0.0
H13 H 0.05446 0.35527 0.99061 0.0
C14 C 0.03073 0.34041 0.01911 0.0
O15 O 0.98327 0.31614 0.00225 0.0
O16 O 0.00165 0.3239 0.98297 0.0
N17 N 0.03714 0.39218 0.99726 0.0
C18 C 0.02923 0.39989 0.00288 0.0
C19 C 0.03117 0.41386 0.99494 0.0
C20 C 0.04134 0.41985 0.98144 0.0
C21 C 0.04956 0.41187 0.97605 0.0
C22 C 0.04724 0.39806 0.98452 0.0
H23 H 0.02138 0.39533 0.01323 0.0
O24 O 0.99273 0.34808 0.98583 0.0
O25 O 0.01865 0.35874 0.99215 0.0
O26 O 0.99913 0.35035 0.02063 0.0
O27 O 0.0238 0.37229 0.02449 0.0
C28 C 0.05969 0.41685 0.96239 0.0
C29 C 0.06711 0.40787 0.95731 0.0
H30 H 0.07873 0.38713 0.95073 0.0
H31 H 0.07233 0.36244 0.96665 0.0
H32 H 0.0248 0.41996 0.99917 0.0
H33 H 0.04267 0.43053 0.97524 0.0
H34 H 0.06166 0.42745 0.95557 0.0
H35 H 0.0747 0.41171 0.94666 0.0
Mn36 Mn 0.65189 0.65255 0.02105 0.0
Mn37 Mn 0.65277 0.61854 0.00959 0.0
C38 C 0.63747 0.62894 0.03552 0.0
C39 C 0.66357 0.67723 0.0357 0.0
C40 C 0.63259 0.6306 0.99169 0.0
O41 O 0.67094 0.66107 0.00583 0.0
O42 O 0.67162 0.63799 0.00064 0.0
C43 C 0.68195 0.6247 0.02879 0.0
N44 N 0.66603 0.61492 0.02492 0.0
C45 C 0.66425 0.59441 0.04344 0.0
C46 C 0.68065 0.60422 0.04756 0.0
C47 C 0.68952 0.61946 0.04025 0.0
C48 C 0.65734 0.60032 0.03201 0.0
H49 H 0.6888 0.63642 0.02319 0.0
C50 C 0.67733 0.65335 0.99931 0.0
O51 O 0.654 0.67459 0.02308 0.0
O52 O 0.6664 0.6656 0.03971 0.0
N53 N 0.63541 0.59861 0.01729 0.0
C54 C 0.61966 0.5907 0.01212 0.0
C55 C 0.60911 0.5753 0.01832 0.0
C56 C 0.6149 0.56807 0.02956 0.0
C57 C 0.63122 0.57628 0.03443 0.0
C58 C 0.64118 0.59158 0.0278 0.0
H59 H 0.61515 0.59613 0.00338 0.0
O60 O 0.63397 0.64055 0.03656 0.0
O61 O 0.64959 0.63165 0.02641 0.0
O62 O 0.63618 0.64281 0.00123 0.0
O63 O 0.63849 0.62114 0.9935 0.0
C64 C 0.63799 0.56994 0.04569 0.0
C65 C 0.65446 0.57905 0.05029 0.0
H66 H 0.68654 0.60021 0.05638 0.0
H67 H 0.70217 0.62713 0.04342 0.0
H68 H 0.59655 0.56901 0.01445 0.0
H69 H 0.60671 0.55624 0.03441 0.0
H70 H 0.63058 0.55813 0.05102 0.0
H71 H 0.65946 0.57413 0.05913 0.0
Mn72 Mn 0.33686 0.99734 0.0115 0.0
Mn73 Mn 0.37211 0.03259 0.01223 0.0
C74 C 0.35743 0.00017 0.02891 0.0
C75 C 0.31067 0.98293 0.02114 0.0
C76 C 0.36183 0.00687 0.98494 0.0
O77 O 0.33168 0.01301 0.99948 0.0
O78 O 0.3547 0.0367 0.00387 0.0
C79 C 0.36548 0.05062 0.03806 0.0
N80 N 0.37473 0.04448 0.03225 0.0
C81 C 0.39281 0.05511 0.05582 0.0
C82 C 0.38354 0.06165 0.06199 0.0
C83 C 0.3698 0.05936 0.05309 0.0
C84 C 0.38798 0.04661 0.04071 0.0
H85 H 0.35487 0.04881 0.03127 0.0
C86 C 0.34006 0.02844 0.99854 0.0
O87 O 0.31442 0.97897 0.00719 0.0
O88 O 0.32204 0.99522 0.02924 0.0
N89 N 0.38997 0.03044 0.02014 0.0
C90 C 0.39693 0.02238 0.01305 0.0
C91 C 0.41046 0.02289 0.02076 0.0
C92 C 0.41676 0.03175 0.03558 0.0
C93 C 0.40949 0.04009 0.04255 0.0
C94 C 0.3961 0.03924 0.03425 0.0
H95 H 0.39215 0.01553 0.00168 0.0
O96 O 0.34553 0.98584 0.0251 0.0
O97 O 0.35664 0.01246 0.02279 0.0
O98 O 0.34895 0.99595 0.99141 0.0
O99 O 0.3707 0.02104 0.99135 0.0
C100 C 0.41477 0.04887 0.0576 0.0
C101 C 0.40642 0.05636 0.06424 0.0
H102 H 0.38676 0.06831 0.07364 0.0
H103 H 0.36253 0.06429 0.05783 0.0
H104 H 0.41598 0.0164 0.01532 0.0
H105 H 0.42708 0.03196 0.04159 0.0
H106 H 0.42506 0.04969 0.06432 0.0
H107 H 0.41044 0.06286 0.07595 0.0
Mn108 Mn 0.99429 0.66071 0.00773 0.0
Mn109 Mn 0.0305 0.66257 0.00819 0.0
C110 C 0.99874 0.6443 0.98987 0.0
C111 C 0.97815 0.67131 0.99858 0.0
C112 C 0.00521 0.64516 0.03398 0.0
O113 O 0.00878 0.68151 0.0208 0.0
O114 O 0.03297 0.68329 0.01747 0.0
C115 C 0.04679 0.68842 0.9838 0.0
N116 N 0.04185 0.673 0.98884 0.0
C117 C 0.0531 0.66727 0.96511 0.0
C118 C 0.05844 0.68314 0.95974 0.0
C119 C 0.05523 0.69375 0.96911 0.0
C120 C 0.04477 0.66266 0.97986 0.0
H121 H 0.04427 0.69657 0.99092 0.0
C122 C 0.02409 0.68904 0.02251 0.0
O123 O 0.97512 0.66319 0.01211 0.0
O124 O 0.99053 0.67327 0.99046 0.0
N125 N 0.03002 0.64345 0.99943 0.0
C126 C 0.02368 0.6284 0.00609 0.0
C127 C 0.02573 0.61631 0.99816 0.0
C128 C 0.03438 0.61984 0.98355 0.0
C129 C 0.04093 0.63545 0.97701 0.0
C130 C 0.03865 0.64706 0.98556 0.0
H131 H 0.01709 0.62562 0.01736 0.0
O132 O 0.98414 0.64087 0.9931 0.0
O133 O 0.01023 0.65746 0.99682 0.0
O134 O 0.99413 0.64715 0.02726 0.0
O135 O 0.0194 0.65114 0.02831 0.0
C136 C 0.04948 0.63989 0.96226 0.0
C137 C 0.05552 0.65577 0.95628 0.0
H138 H 0.06491 0.68728 0.94838 0.0
H139 H 0.05922 0.70598 0.96499 0.0
H140 H 0.02066 0.6043 0.00329 0.0
H141 H 0.0359 0.61047 0.97745 0.0
H142 H 0.05134 0.63113 0.95532 0.0
H143 H 0.06191 0.65899 0.94482 0.0
Mn144 Mn 0.34993 0.35869 0.01376 0.0
Mn145 Mn 0.38154 0.35377 0.00436 0.0
C146 C 0.373 0.37093 0.03018 0.0
C147 C 0.32502 0.34869 0.02604 0.0
C148 C 0.37256 0.37602 0.98576 0.0
O149 O 0.34043 0.3395 0.99754 0.0
O150 O 0.36154 0.33532 0.99453 0.0
C151 C 0.37339 0.32425 0.02337 0.0
N152 N 0.38385 0.3401 0.02007 0.0
C153 C 0.40307 0.34115 0.04032 0.0
C154 C 0.39254 0.32481 0.04386 0.0
C155 C 0.37763 0.31633 0.03537 0.0
C156 C 0.3982 0.34839 0.02821 0.0
H157 H 0.3619 0.31771 0.0169 0.0
C158 C 0.34673 0.33131 0.99197 0.0
O159 O 0.32911 0.35874 0.01392 0.0
O160 O 0.33549 0.34463 0.03113 0.0
N161 N 0.40163 0.37071 0.01325 0.0
C162 C 0.41012 0.38658 0.00882 0.0
C163 C 0.42523 0.39683 0.01635 0.0
C164 C 0.43149 0.39064 0.02828 0.0
C165 C 0.42259 0.37423 0.03254 0.0
C166 C 0.40767 0.36457 0.02451 0.0
H167 H 0.4054 0.39141 0.99963 0.0
O168 O 0.36272 0.37616 0.03063 0.0
O169 O 0.36925 0.35857 0.02038 0.0
O170 O 0.36129 0.37439 0.99512 0.0
O171 O 0.38035 0.36834 0.98769 0.0
C172 C 0.42785 0.36714 0.04458 0.0
C173 C 0.41807 0.35063 0.04851 0.0
H174 H 0.39574 0.31867 0.05316 0.0
H175 H 0.36941 0.30373 0.03809 0.0
H176 H 0.43202 0.40948 0.013 0.0
H177 H 0.4431 0.3986 0.03413 0.0
H178 H 0.43932 0.37432 0.05103 0.0
H179 H 0.42216 0.34537 0.05794 0.0
Mn180 Mn 0.66149 0.00311 0.01165 0.0
Mn181 Mn 0.62707 0.96713 0.01307 0.0
C182 C 0.6402 0.99823 0.99428 0.0
C183 C 0.68742 0.01823 0.00164 0.0
C184 C 0.63677 0.99436 0.03849 0.0
O185 O 0.66795 0.98882 0.02452 0.0
O186 O 0.64517 0.96459 0.02238 0.0
C187 C 0.63464 0.94821 0.98913 0.0
N188 N 0.62491 0.95414 0.99402 0.0
C189 C 0.60699 0.94157 0.97062 0.0
C190 C 0.61675 0.93523 0.9654 0.0
C191 C 0.63065 0.9386 0.97468 0.0
C192 C 0.61151 0.95098 0.98518 0.0
H193 H 0.64537 0.95084 0.9962 0.0
C194 C 0.65999 0.97354 0.02686 0.0
O195 O 0.6834 0.02234 0.01533 0.0
O196 O 0.67643 0.00533 0.99393 0.0
N197 N 0.60865 0.96778 0.00434 0.0
C198 C 0.60107 0.97561 0.01053 0.0
C199 C 0.58723 0.97396 0.00237 0.0
C200 C 0.58126 0.96419 0.98802 0.0
C201 C 0.58917 0.95612 0.98199 0.0
C202 C 0.60285 0.95814 0.99069 0.0
H203 H 0.60561 0.98315 0.02153 0.0
O204 O 0.65163 0.01301 0.99734 0.0
O205 O 0.64181 0.98671 0.00117 0.0
O206 O 0.64949 0.00495 0.03154 0.0
O207 O 0.62803 0.9798 0.03296 0.0
C208 C 0.5842 0.94641 0.96749 0.0
C209 C 0.59312 0.93917 0.96179 0.0
H210 H 0.61377 0.92789 0.95421 0.0
H211 H 0.63829 0.93382 0.97068 0.0
H212 H 0.58121 0.98025 0.0071 0.0
H213 H 0.57068 0.96308 0.98168 0.0
H214 H 0.57366 0.94463 0.9605 0.0
H215 H 0.58932 0.93194 0.95049 0.0
Mn216 Mn 0.66377 0.67497 0.34061 0.0
Mn217 Mn 0.69831 0.70955 0.35046 0.0
C218 C 0.67178 0.69766 0.32476 0.0
C219 C 0.65032 0.64953 0.32755 0.0
C220 C 0.66733 0.69839 0.36871 0.0
O221 O 0.67542 0.66729 0.35619 0.0
O222 O 0.69859 0.69079 0.36106 0.0
C223 C 0.72098 0.7025 0.33257 0.0
N224 N 0.71457 0.71233 0.33539 0.0
C225 C 0.73201 0.73171 0.31583 0.0
C226 C 0.73889 0.72184 0.31279 0.0
C227 C 0.73331 0.70715 0.32116 0.0
C228 C 0.71977 0.72644 0.32733 0.0
H229 H 0.71672 0.6912 0.33899 0.0
C230 C 0.68942 0.67548 0.36287 0.0
O231 O 0.64434 0.65296 0.3402 0.0
O232 O 0.66415 0.66083 0.32255 0.0
N233 N 0.6998 0.72874 0.34112 0.0
C234 C 0.69135 0.73644 0.34487 0.0
C235 C 0.69512 0.75111 0.3372 0.0
C236 C 0.70765 0.7578 0.32592 0.0
C237 C 0.71632 0.74977 0.32244 0.0
C238 C 0.71203 0.73519 0.33046 0.0
H239 H 0.68175 0.73138 0.35358 0.0
O240 O 0.65682 0.68619 0.32447 0.0
O241 O 0.68166 0.69539 0.33415 0.0
O242 O 0.65861 0.68571 0.35983 0.0
O243 O 0.68229 0.70793 0.36644 0.0
C244 C 0.72891 0.75553 0.31114 0.0
C245 C 0.73669 0.74646 0.30777 0.0
H246 H 0.74838 0.72537 0.30398 0.0
H247 H 0.73851 0.69943 0.31882 0.0
H248 H 0.68838 0.75724 0.33996 0.0
H249 H 0.71046 0.76907 0.31995 0.0
H250 H 0.73256 0.76682 0.30482 0.0
H251 H 0.74617 0.75089 0.29885 0.0
Mn252 Mn 0.31458 0.98457 0.35963 0.0
Mn253 Mn 0.3116 0.94777 0.35385 0.0
C254 C 0.30036 0.9641 0.37806 0.0
C255 C 0.32898 0.01132 0.36971 0.0
C256 C 0.29304 0.96009 0.33332 0.0
O257 O 0.33198 0.98869 0.34298 0.0
O258 O 0.33152 0.9646 0.34358 0.0
C259 C 0.33966 0.95206 0.37393 0.0
N260 N 0.32355 0.94367 0.37039 0.0
C261 C 0.31934 0.92393 0.39102 0.0
C262 C 0.33591 0.93229 0.3948 0.0
C263 C 0.3461 0.94646 0.38626 0.0
C264 C 0.31362 0.93009 0.3786 0.0
H265 H 0.34751 0.96295 0.36739 0.0
C266 C 0.33772 0.97944 0.33916 0.0
O267 O 0.31848 0.00721 0.35768 0.0
O268 O 0.33123 0.99992 0.37579 0.0
N269 N 0.29289 0.93033 0.36331 0.0
C270 C 0.27709 0.92431 0.35892 0.0
C271 C 0.26524 0.91045 0.36669 0.0
C272 C 0.26977 0.90281 0.37875 0.0
C273 C 0.28611 0.90915 0.38297 0.0
C274 C 0.29738 0.92296 0.37477 0.0
H275 H 0.27353 0.93004 0.34958 0.0
O276 O 0.29806 0.97651 0.3772 0.0
O277 O 0.31113 0.96424 0.36838 0.0
O278 O 0.29699 0.97296 0.34184 0.0
O279 O 0.29857 0.95048 0.33621 0.0
C280 C 0.29163 0.90249 0.39524 0.0
C281 C 0.30823 0.90991 0.39929 0.0
H282 H 0.34092 0.92804 0.40435 0.0
H283 H 0.35889 0.95303 0.38918 0.0
H284 H 0.25265 0.90565 0.36338 0.0
H285 H 0.26059 0.89218 0.38478 0.0
H286 H 0.28319 0.89187 0.40185 0.0
H287 H 0.3123 0.90486 0.40895 0.0
Mn288 Mn 0.01416 0.32398 0.34227 0.0
Mn289 Mn 0.05027 0.35781 0.33796 0.0
C290 C 0.03462 0.33066 0.36164 0.0
C291 C 0.98777 0.31129 0.35147 0.0
C292 C 0.03945 0.32669 0.31799 0.0
O293 O 0.00927 0.33706 0.32559 0.0
O294 O 0.03349 0.35989 0.32524 0.0
C295 C 0.04362 0.38141 0.35545 0.0
N296 N 0.05274 0.37408 0.35369 0.0
C297 C 0.07067 0.39025 0.37594 0.0
C298 C 0.06152 0.39803 0.37794 0.0
C299 C 0.0479 0.39354 0.36768 0.0
C300 C 0.06577 0.3782 0.36359 0.0
H301 H 0.03316 0.378 0.34757 0.0
C302 C 0.01859 0.35154 0.32086 0.0
O303 O 0.99199 0.3051 0.33949 0.0
O304 O 0.99884 0.32496 0.35794 0.0
N305 N 0.06771 0.3576 0.34973 0.0
C306 C 0.07493 0.34855 0.34654 0.0
C307 C 0.08876 0.35152 0.35571 0.0
C308 C 0.09509 0.36384 0.36795 0.0
C309 C 0.08746 0.373 0.37101 0.0
C310 C 0.07381 0.36959 0.36137 0.0
H311 H 0.07024 0.33919 0.33702 0.0
O312 O 0.02282 0.31581 0.36024 0.0
O313 O 0.03401 0.34108 0.35178 0.0
O314 O 0.026 0.31826 0.32493 0.0
O315 O 0.04908 0.34166 0.32159 0.0
C316 C 0.0928 0.38531 0.38329 0.0
C317 C 0.08435 0.39385 0.38584 0.0
H318 H 0.06478 0.40739 0.38736 0.0
H319 H 0.04074 0.39945 0.36919 0.0
H320 H 0.09457 0.34439 0.3533 0.0
H321 H 0.10581 0.36615 0.37491 0.0
H322 H 0.10329 0.38817 0.39099 0.0
H323 H 0.08844 0.40313 0.39548 0.0
Mn324 Mn 0.66199 0.97804 0.34317 0.0
Mn325 Mn 0.69834 0.98114 0.35055 0.0
C326 C 0.67088 0.96445 0.32626 0.0
C327 C 0.64545 0.98731 0.3319 0.0
C328 C 0.66901 0.9605 0.37079 0.0
O329 O 0.67345 0.9981 0.35825 0.0
O330 O 0.69797 0.00019 0.36072 0.0
C331 C 0.71842 0.01025 0.33093 0.0
N332 N 0.71305 0.9943 0.33421 0.0
C333 C 0.72927 0.99228 0.31297 0.0
C334 C 0.73504 0.00871 0.30942 0.0
C335 C 0.72956 0.01771 0.31842 0.0
C336 C 0.71819 0.9855 0.32558 0.0
H337 H 0.71422 0.01721 0.33779 0.0
C338 C 0.68814 0.0055 0.36334 0.0
O339 O 0.64143 0.97822 0.34474 0.0
O340 O 0.65928 0.9912 0.32555 0.0
N341 N 0.7004 0.96363 0.34113 0.0
C342 C 0.69323 0.94778 0.34569 0.0
C343 C 0.69727 0.93706 0.33774 0.0
C344 C 0.70869 0.94277 0.32529 0.0
C345 C 0.71599 0.95915 0.32089 0.0
C346 C 0.71159 0.96929 0.32933 0.0
H347 H 0.68449 0.94332 0.35529 0.0
O348 O 0.6556 0.95962 0.32699 0.0
O349 O 0.68042 0.97708 0.33535 0.0
O350 O 0.65935 0.96324 0.36224 0.0
O351 O 0.68402 0.96697 0.36788 0.0
C352 C 0.72733 0.96578 0.30834 0.0
C353 C 0.73392 0.98232 0.30434 0.0
H354 H 0.74361 0.0145 0.29976 0.0
H355 H 0.73391 0.03038 0.31572 0.0
H356 H 0.69158 0.92443 0.3412 0.0
H357 H 0.71171 0.93444 0.31914 0.0
H358 H 0.73095 0.95823 0.30157 0.0
H359 H 0.74247 0.98722 0.29452 0.0
Mn360 Mn 0.01988 0.69225 0.34396 0.0
Mn361 Mn 0.05657 0.69629 0.33802 0.0
C362 C 0.04078 0.7071 0.36267 0.0
C363 C 0.99391 0.67815 0.35406 0.0
C364 C 0.04334 0.71449 0.31843 0.0
O365 O 0.01525 0.67402 0.32744 0.0
O366 O 0.03993 0.67646 0.32608 0.0
C367 C 0.05287 0.66728 0.35539 0.0
N368 N 0.06083 0.68371 0.35351 0.0
C369 C 0.08003 0.68741 0.37506 0.0
C370 C 0.0721 0.67052 0.37716 0.0
C371 C 0.05843 0.66043 0.36731 0.0
C372 C 0.07397 0.69354 0.36294 0.0
H373 H 0.04235 0.65947 0.34786 0.0
C374 C 0.02481 0.66915 0.32244 0.0
O375 O 0.99736 0.68799 0.34185 0.0
O376 O 0.00549 0.67626 0.36027 0.0
N377 N 0.0736 0.71488 0.34926 0.0
C378 C 0.07912 0.73096 0.34653 0.0
C379 C 0.09233 0.74273 0.35589 0.0
C380 C 0.09977 0.73785 0.36788 0.0
C381 C 0.09392 0.72123 0.37041 0.0
C382 C 0.08074 0.71005 0.36069 0.0
H383 H 0.07345 0.73478 0.33734 0.0
O384 O 0.02859 0.70962 0.36164 0.0
O385 O 0.04036 0.69609 0.35267 0.0
O386 O 0.03027 0.70921 0.32619 0.0
O387 O 0.05374 0.71006 0.32156 0.0
C388 C 0.10048 0.71531 0.38239 0.0
C389 C 0.09353 0.69842 0.38472 0.0
H390 H 0.0763 0.66519 0.3864 0.0
H391 H 0.05219 0.64739 0.36892 0.0
H392 H 0.09675 0.75553 0.3539 0.0
H393 H 0.1099 0.74696 0.37514 0.0
H394 H 0.1107 0.72367 0.39006 0.0
H395 H 0.0985 0.69404 0.39417 0.0
Mn396 Mn 0.32252 0.33927 0.34665 0.0
Mn397 Mn 0.28821 0.30489 0.35499 0.0
C398 C 0.29991 0.33108 0.3299 0.0
C399 C 0.34746 0.35187 0.33404 0.0
C400 C 0.30038 0.33658 0.37446 0.0
O401 O 0.32992 0.32746 0.3624 0.0
O402 O 0.30683 0.30369 0.36483 0.0
C403 C 0.29298 0.28093 0.33573 0.0
N404 N 0.28405 0.2882 0.33904 0.0
C405 C 0.26394 0.27152 0.31856 0.0
C406 C 0.27288 0.26378 0.315 0.0
C407 C 0.28748 0.26853 0.3236 0.0
C408 C 0.26998 0.28372 0.33085 0.0
H409 H 0.30424 0.28458 0.34227 0.0
C410 C 0.32201 0.31291 0.36754 0.0
O411 O 0.34462 0.35863 0.34659 0.0
O412 O 0.33591 0.33778 0.32903 0.0
N413 N 0.26939 0.3045 0.34587 0.0
C414 C 0.26286 0.314 0.34991 0.0
C415 C 0.24856 0.31129 0.34191 0.0
C416 C 0.24108 0.29881 0.32993 0.0
C417 C 0.24798 0.28913 0.32605 0.0
C418 C 0.2622 0.29234 0.33448 0.0
H419 H 0.26856 0.32364 0.35908 0.0
O420 O 0.3114 0.34612 0.33009 0.0
O421 O 0.30211 0.32134 0.33943 0.0
O422 O 0.3124 0.34533 0.36555 0.0
O423 O 0.29113 0.32132 0.37195 0.0
C424 C 0.24149 0.27665 0.31391 0.0
C425 C 0.24947 0.26787 0.31015 0.0
H426 H 0.26873 0.25429 0.30558 0.0
H427 H 0.29448 0.26268 0.32086 0.0
H428 H 0.24333 0.31885 0.34494 0.0
H429 H 0.23013 0.29685 0.32369 0.0
H430 H 0.2305 0.27389 0.30719 0.0
H431 H 0.24451 0.25849 0.30058 0.0
Mn432 Mn 0.33151 0.01402 0.67173 0.0
Mn433 Mn 0.36492 0.05042 0.67892 0.0
C434 C 0.33792 0.03497 0.65377 0.0
C435 C 0.31915 0.9875 0.66118 0.0
C436 C 0.33408 0.03891 0.6976 0.0
O437 O 0.34435 0.00893 0.68859 0.0
O438 O 0.36704 0.03333 0.69094 0.0
C439 C 0.38826 0.04404 0.66147 0.0
N440 N 0.38099 0.05319 0.66358 0.0
C441 C 0.39646 0.07127 0.64215 0.0
C442 C 0.40421 0.0621 0.63981 0.0
C443 C 0.40005 0.0484 0.64949 0.0
C444 C 0.3848 0.06632 0.65426 0.0
H445 H 0.38506 0.03348 0.66886 0.0
C446 C 0.35857 0.01825 0.69435 0.0
O447 O 0.31286 0.99166 0.67301 0.0
O448 O 0.33269 0.99874 0.65552 0.0
N449 N 0.36465 0.06819 0.66813 0.0
C450 C 0.35577 0.07549 0.67168 0.0
C451 C 0.35844 0.0894 0.66309 0.0
C452 C 0.37027 0.09572 0.65106 0.0
C453 C 0.37934 0.08809 0.64771 0.0
C454 C 0.37628 0.07438 0.65681 0.0
H455 H 0.34674 0.07075 0.681 0.0
O456 O 0.32331 0.02283 0.65408 0.0
O457 O 0.34839 0.0343 0.66372 0.0
O458 O 0.3257 0.02567 0.68943 0.0
O459 O 0.34894 0.04877 0.69502 0.0
C460 C 0.3912 0.09345 0.63562 0.0
C461 C 0.3997 0.085 0.63279 0.0
H462 H 0.41329 0.06541 0.63056 0.0
H463 H 0.40592 0.04122 0.6477 0.0
H464 H 0.3514 0.09523 0.66575 0.0
H465 H 0.37229 0.10645 0.64447 0.0
H466 H 0.39374 0.10394 0.62831 0.0
H467 H 0.40865 0.08912 0.62332 0.0
Mn468 Mn 0.98049 0.31658 0.67979 0.0
Mn469 Mn 0.98192 0.28248 0.6703 0.0
C470 C 0.96639 0.29345 0.69516 0.0
C471 C 0.99093 0.34148 0.69382 0.0
C472 C 0.96204 0.29387 0.65071 0.0
O473 O 0.99993 0.32485 0.66499 0.0
O474 O 0.00109 0.30174 0.66153 0.0
C475 C 0.01061 0.28867 0.69045 0.0
N476 N 0.99473 0.279 0.68634 0.0
C477 C 0.99227 0.25878 0.70564 0.0
C478 C 0.00864 0.26845 0.70997 0.0
C479 C 0.01783 0.28349 0.70238 0.0
C480 C 0.98575 0.26456 0.69364 0.0
H481 H 0.0177 0.30026 0.68469 0.0
C482 C 0.00674 0.31705 0.65962 0.0
O483 O 0.9818 0.33828 0.68071 0.0
O484 O 0.99437 0.33043 0.69846 0.0
N485 N 0.9642 0.26298 0.67829 0.0
C486 C 0.94835 0.25562 0.67351 0.0
C487 C 0.93739 0.24074 0.68043 0.0
C488 C 0.94284 0.23351 0.69204 0.0
C489 C 0.95922 0.24124 0.69664 0.0
C490 C 0.96959 0.25604 0.68931 0.0
H491 H 0.94409 0.2611 0.66457 0.0
O492 O 0.96236 0.30471 0.69517 0.0
O493 O 0.97863 0.29614 0.68629 0.0
O494 O 0.96519 0.30614 0.65991 0.0
O495 O 0.9681 0.28465 0.65323 0.0
C496 C 0.96561 0.23497 0.7084 0.0
C497 C 0.98211 0.24376 0.71296 0.0
H498 H 0.01424 0.26453 0.71921 0.0
H499 H 0.03045 0.29107 0.70573 0.0
H500 H 0.92476 0.23487 0.67683 0.0
H501 H 0.93432 0.22209 0.69742 0.0
H502 H 0.95789 0.22351 0.71422 0.0
H503 H 0.98682 0.23895 0.72224 0.0
Mn504 Mn 0.67653 0.65699 0.67453 0.0
Mn505 Mn 0.71024 0.69162 0.66521 0.0
C506 C 0.69947 0.6661 0.691 0.0
C507 C 0.65154 0.64394 0.68698 0.0
C508 C 0.69863 0.65959 0.64673 0.0
O509 O 0.66852 0.66798 0.65832 0.0
O510 O 0.69122 0.69202 0.65554 0.0
C511 C 0.70476 0.71516 0.68439 0.0
N512 N 0.71411 0.70837 0.68097 0.0
C513 C 0.73427 0.72578 0.70106 0.0
C514 C 0.7249 0.73302 0.70473 0.0
C515 C 0.71006 0.72765 0.69639 0.0
C516 C 0.72835 0.71337 0.689 0.0
H517 H 0.69333 0.71104 0.67803 0.0
C518 C 0.6761 0.68246 0.65294 0.0
O519 O 0.65482 0.63725 0.67472 0.0
O520 O 0.66276 0.65825 0.69195 0.0
N521 N 0.72958 0.69292 0.67402 0.0
C522 C 0.73689 0.68428 0.66945 0.0
C523 C 0.75181 0.68804 0.67675 0.0
C524 C 0.7591 0.70071 0.68857 0.0
C525 C 0.7514 0.70949 0.69301 0.0
C526 C 0.73662 0.70529 0.68521 0.0
H527 H 0.73141 0.67459 0.66031 0.0
O528 O 0.68815 0.651 0.69142 0.0
O529 O 0.69683 0.67537 0.68122 0.0
O530 O 0.68696 0.65092 0.65603 0.0
O531 O 0.70751 0.67499 0.64848 0.0
C532 C 0.75774 0.72215 0.70497 0.0
C533 C 0.74914 0.73023 0.70906 0.0
H534 H 0.72893 0.74263 0.71401 0.0
H535 H 0.70272 0.73313 0.69921 0.0
H536 H 0.75767 0.6812 0.67327 0.0
H537 H 0.77059 0.70354 0.69418 0.0
H538 H 0.76912 0.72564 0.71124 0.0
H539 H 0.75402 0.73979 0.71844 0.0
Mn540 Mn 0.33297 0.32147 0.67669 0.0
Mn541 Mn 0.36709 0.32086 0.68645 0.0
C542 C 0.34143 0.30761 0.65973 0.0
C543 C 0.32044 0.33478 0.66483 0.0
C544 C 0.3355 0.30089 0.70381 0.0
O545 O 0.34419 0.33967 0.6939 0.0
O546 O 0.36817 0.34063 0.69665 0.0
C547 C 0.39057 0.34974 0.66847 0.0
N548 N 0.38349 0.33349 0.67125 0.0
C549 C 0.3996 0.33007 0.65081 0.0
C550 C 0.40714 0.3468 0.64782 0.0
C551 C 0.40258 0.35666 0.65667 0.0
C552 C 0.38776 0.32387 0.66278 0.0
H553 H 0.38705 0.35736 0.67518 0.0
C554 C 0.35871 0.34635 0.69943 0.0
O555 O 0.31365 0.32428 0.67636 0.0
O556 O 0.33449 0.33752 0.66019 0.0
N557 N 0.36763 0.30247 0.67706 0.0
C558 C 0.3587 0.28647 0.6809 0.0
C559 C 0.36155 0.27493 0.67289 0.0
C560 C 0.37357 0.27995 0.66108 0.0
C561 C 0.3827 0.2965 0.65743 0.0
C562 C 0.37943 0.30747 0.66593 0.0
H563 H 0.34944 0.28251 0.68996 0.0
O564 O 0.32656 0.30443 0.65896 0.0
O565 O 0.35088 0.31904 0.67013 0.0
O566 O 0.3269 0.30433 0.6943 0.0
O567 O 0.35075 0.30714 0.70261 0.0
C568 C 0.39473 0.3025 0.64552 0.0
C569 C 0.40316 0.31927 0.64219 0.0
H570 H 0.41635 0.35217 0.63866 0.0
H571 H 0.40829 0.36957 0.65437 0.0
H572 H 0.35444 0.26217 0.67576 0.0
H573 H 0.37562 0.27099 0.65482 0.0
H574 H 0.39748 0.2943 0.6387 0.0
H575 H 0.41224 0.32371 0.63285 0.0
Mn576 Mn 0.68595 0.02213 0.66753 0.0
Mn577 Mn 0.71881 0.01862 0.66011 0.0
C578 C 0.70867 0.03556 0.68438 0.0
C579 C 0.66106 0.01368 0.67936 0.0
C580 C 0.70935 0.03949 0.63987 0.0
O581 O 0.67702 0.00186 0.65275 0.0
O582 O 0.69941 0.99982 0.64973 0.0
C583 C 0.71078 0.9891 0.67913 0.0
N584 N 0.72097 0.0051 0.67614 0.0
C585 C 0.73978 0.00655 0.69712 0.0
C586 C 0.72952 0.99007 0.70036 0.0
C587 C 0.71495 0.98132 0.69134 0.0
C588 C 0.73504 0.01363 0.68473 0.0
H589 H 0.69954 0.98233 0.67225 0.0
C590 C 0.68427 0.9945 0.64738 0.0
O591 O 0.66532 0.02233 0.6662 0.0
O592 O 0.67113 0.00949 0.68549 0.0
N593 N 0.73825 0.03589 0.66981 0.0
C594 C 0.7462 0.05196 0.66601 0.0
C595 C 0.76071 0.06256 0.67441 0.0
C596 C 0.76692 0.05653 0.68654 0.0
C597 C 0.75856 0.03993 0.69018 0.0
C598 C 0.7442 0.02993 0.68136 0.0
H599 H 0.74147 0.05668 0.65672 0.0
O600 O 0.69833 0.0407 0.68338 0.0
O601 O 0.70544 0.0228 0.6754 0.0
O602 O 0.6971 0.03664 0.64818 0.0
O603 O 0.71814 0.03311 0.64302 0.0
C604 C 0.76376 0.03298 0.70243 0.0
C605 C 0.75436 0.01631 0.70593 0.0
H606 H 0.73264 0.98404 0.70983 0.0
H607 H 0.70693 0.96861 0.69382 0.0
H608 H 0.76706 0.07536 0.67156 0.0
H609 H 0.77805 0.06476 0.69308 0.0
H610 H 0.77483 0.04041 0.70943 0.0
H611 H 0.75834 0.01117 0.71557 0.0
Mn612 Mn 0.98196 0.6738 0.67772 0.0
Mn613 Mn 0.94564 0.64035 0.6824 0.0
C614 C 0.96137 0.66719 0.65849 0.0
C615 C 0.00833 0.68681 0.66838 0.0
C616 C 0.9572 0.67143 0.70259 0.0
O617 O 0.98684 0.66045 0.69409 0.0
O618 O 0.96236 0.63793 0.69494 0.0
C619 C 0.95115 0.61584 0.66518 0.0
N620 N 0.94256 0.62375 0.6668 0.0
C621 C 0.92413 0.60761 0.64486 0.0
C622 C 0.93274 0.59924 0.64301 0.0
C623 C 0.94633 0.60341 0.65318 0.0
C624 C 0.9295 0.61988 0.65703 0.0
H625 H 0.96158 0.61899 0.67301 0.0
C626 C 0.97739 0.64603 0.69896 0.0
O627 O 0.00404 0.69265 0.68059 0.0
O628 O 0.99733 0.67317 0.66173 0.0
N629 N 0.92848 0.64112 0.67064 0.0
C630 C 0.92218 0.65109 0.67327 0.0
C631 C 0.90889 0.64896 0.66365 0.0
C632 C 0.90213 0.63652 0.65154 0.0
C633 C 0.90876 0.62634 0.64914 0.0
C634 C 0.92202 0.62905 0.65909 0.0
H635 H 0.92729 0.66063 0.68259 0.0
O636 O 0.97314 0.68206 0.66 0.0
O637 O 0.96198 0.65674 0.66832 0.0
O638 O 0.97054 0.67959 0.6954 0.0
O639 O 0.94722 0.6566 0.69891 0.0
C640 C 0.90288 0.61376 0.63713 0.0
C641 C 0.91058 0.60442 0.63495 0.0
H642 H 0.92908 0.58967 0.63374 0.0
H643 H 0.95307 0.59705 0.65179 0.0
H644 H 0.90386 0.65689 0.66555 0.0
H645 H 0.89192 0.63496 0.64409 0.0
H646 H 0.8926 0.61133 0.62929 0.0
H647 H 0.90611 0.59497 0.62547 0.0
C648 C 0.20154 0.27785 0.05185 0.0
C649 C 0.21041 0.29129 0.06493 0.0
C650 C 0.19903 0.28618 0.09207 0.0
C651 C 0.2014 0.30157 0.09655 0.0
C652 C 0.19113 0.30317 0.10761 0.0
C653 C 0.17813 0.28905 0.11415 0.0
C654 C 0.17621 0.27355 0.11022 0.0
C655 C 0.18691 0.27235 0.0994 0.0
C656 C 0.19383 0.31993 0.11184 0.0
C657 C 0.16246 0.25821 0.11686 0.0
C658 C 0.07881 0.30269 0.06418 0.0
C659 C 0.08704 0.29499 0.07301 0.0
C660 C 0.11072 0.30273 0.09093 0.0
C661 C 0.10659 0.28673 0.09506 0.0
C662 C 0.11659 0.28373 0.10562 0.0
C663 C 0.13093 0.29697 0.11224 0.0
C664 C 0.13497 0.31308 0.10833 0.0
C665 C 0.12479 0.31572 0.09769 0.0
C666 C 0.11196 0.26642 0.1096 0.0
C667 C 0.15013 0.32748 0.11524 0.0
C668 C 0.10425 0.29742 0.21933 0.0
C669 C 0.10074 0.28192 0.21356 0.0
C670 C 0.11215 0.27984 0.20474 0.0
C671 C 0.12725 0.29354 0.20149 0.0
C672 C 0.13072 0.30917 0.20713 0.0
C673 C 0.11916 0.31087 0.21603 0.0
C674 C 0.10811 0.26302 0.1989 0.0
C675 C 0.14665 0.32406 0.2038 0.0
C676 C 0.23563 0.28601 0.21706 0.0
C677 C 0.22922 0.29513 0.22735 0.0
C678 C 0.20088 0.28646 0.22144 0.0
C679 C 0.18676 0.27219 0.21688 0.0
C680 C 0.17432 0.27274 0.20794 0.0
C681 C 0.17605 0.28798 0.20365 0.0
C682 C 0.18999 0.30249 0.20891 0.0
C683 C 0.2022 0.30158 0.21789 0.0
C684 C 0.15948 0.25706 0.20279 0.0
C685 C 0.19202 0.31895 0.2049 0.0
C686 C 0.16568 0.29041 0.12366 0.0
C687 C 0.15416 0.29242 0.11473 0.0
C688 C 0.14213 0.29401 0.12264 0.0
C689 C 0.14126 0.29325 0.13998 0.0
C690 C 0.12916 0.29457 0.14831 0.0
C691 C 0.1285 0.29395 0.16541 0.0
C692 C 0.13994 0.29204 0.17482 0.0
C693 C 0.13949 0.2916 0.19221 0.0
C694 C 0.15121 0.28995 0.20121 0.0
C695 C 0.16351 0.28881 0.19331 0.0
C696 C 0.1641 0.28909 0.17592 0.0
C697 C 0.17633 0.28797 0.16757 0.0
C698 C 0.17689 0.28841 0.15046 0.0
C699 C 0.16524 0.28995 0.14105 0.0
C700 C 0.15289 0.29124 0.14921 0.0
C701 C 0.15226 0.29071 0.16666 0.0
C702 C 0.0722 0.29461 0.24624 0.0
C703 C 0.07858 0.28838 0.23313 0.0
O704 O 0.20798 0.28436 0.08033 0.0
O705 O 0.21282 0.28518 0.22942 0.0
O706 O 0.09376 0.3 0.22821 0.0
O707 O 0.10157 0.30617 0.08049 0.0
H708 H 0.20508 0.29944 0.06407 0.0
H709 H 0.18841 0.27145 0.05411 0.0
H710 H 0.20575 0.26879 0.05222 0.0
H711 H 0.20351 0.28314 0.03937 0.0
H712 H 0.21114 0.31229 0.09117 0.0
H713 H 0.18536 0.26054 0.09597 0.0
H714 H 0.18459 0.32179 0.10527 0.0
H715 H 0.20592 0.32965 0.1082 0.0
H716 H 0.19253 0.32116 0.12526 0.0
H717 H 0.16232 0.24707 0.11215 0.0
H718 H 0.15081 0.25751 0.11343 0.0
H719 H 0.16338 0.25847 0.13051 0.0
H720 H 0.08781 0.28527 0.06587 0.0
H721 H 0.07854 0.29922 0.05084 0.0
H722 H 0.08811 0.31586 0.06256 0.0
H723 H 0.05785 0.29546 0.07749 0.0
H724 H 0.09567 0.27653 0.08999 0.0
H725 H 0.12784 0.32801 0.0945 0.0
H726 H 0.12139 0.26373 0.10525 0.0
H727 H 0.10021 0.25746 0.10382 0.0
H728 H 0.11127 0.26486 0.12315 0.0
H729 H 0.15125 0.33926 0.11148 0.0
H730 H 0.1608 0.32687 0.11096 0.0
H731 H 0.15028 0.3271 0.1289 0.0
H732 H 0.07011 0.28187 0.22256 0.0
H733 H 0.08917 0.27141 0.21595 0.0
H734 H 0.12174 0.32277 0.22052 0.0
H735 H 0.10841 0.26266 0.18525 0.0
H736 H 0.09604 0.25352 0.20284 0.0
H737 H 0.1173 0.26007 0.20374 0.0
H738 H 0.14713 0.33545 0.20824 0.0
H739 H 0.14889 0.32496 0.19038 0.0
H740 H 0.15651 0.32297 0.21001 0.0
H741 H 0.2318 0.30614 0.22029 0.0
H742 H 0.24887 0.29361 0.21568 0.0
H743 H 0.22982 0.28321 0.20459 0.0
H744 H 0.23297 0.27435 0.22282 0.0
H745 H 0.1857 0.26058 0.21999 0.0
H746 H 0.21268 0.31271 0.2222 0.0
H747 H 0.15845 0.25607 0.18915 0.0
H748 H 0.14856 0.25708 0.20728 0.0
H749 H 0.15971 0.24621 0.2076 0.0
H750 H 0.20364 0.32911 0.20978 0.0
H751 H 0.18201 0.32016 0.21019 0.0
H752 H 0.19144 0.32009 0.19135 0.0
H753 H 0.15468 0.29294 0.1014 0.0
H754 H 0.12006 0.2961 0.1417 0.0
H755 H 0.11892 0.29504 0.17115 0.0
H756 H 0.15091 0.28984 0.21455 0.0
H757 H 0.18562 0.28676 0.17417 0.0
H758 H 0.18659 0.28754 0.14469 0.0
H759 H 0.0613 0.29438 0.2404 0.0
H760 H 0.07972 0.30829 0.24639 0.0
H761 H 0.07075 0.28062 0.26665 0.0
C762 C 0.73813 0.92889 0.0587 0.0
C763 C 0.72311 0.92076 0.06916 0.0
C764 C 0.72362 0.91077 0.09639 0.0
C765 C 0.7076 0.89839 0.09766 0.0
C766 C 0.70356 0.88533 0.10822 0.0
C767 C 0.71589 0.88448 0.11738 0.0
C768 C 0.73206 0.89718 0.11631 0.0
C769 C 0.73564 0.91038 0.10609 0.0
C770 C 0.68615 0.87225 0.10927 0.0
C771 C 0.74563 0.89658 0.1255 0.0
C772 C 0.70027 0.76495 0.07795 0.0
C773 C 0.70756 0.78095 0.08685 0.0
C774 C 0.70003 0.80073 0.09688 0.0
C775 C 0.71468 0.81073 0.1054 0.0
C776 C 0.7168 0.82413 0.11496 0.0
C777 C 0.70389 0.82738 0.11637 0.0
C778 C 0.68909 0.81726 0.10791 0.0
C779 C 0.68743 0.80416 0.09814 0.0
C780 C 0.73287 0.83485 0.12352 0.0
C781 C 0.67503 0.82028 0.10919 0.0
C782 C 0.69861 0.79931 0.22335 0.0
C783 C 0.71358 0.81032 0.21679 0.0
C784 C 0.71554 0.8239 0.20806 0.0
C785 C 0.70221 0.8264 0.20559 0.0
C786 C 0.68715 0.81539 0.2122 0.0
C787 C 0.68559 0.80204 0.22109 0.0
C788 C 0.73187 0.83558 0.20145 0.0
C789 C 0.67269 0.81767 0.20976 0.0
C790 C 0.73756 0.95243 0.23224 0.0
C791 C 0.72185 0.93629 0.23357 0.0
C792 C 0.72153 0.91089 0.22707 0.0
C793 C 0.73296 0.906 0.22467 0.0
C794 C 0.72949 0.89251 0.21453 0.0
C795 C 0.71396 0.88338 0.20708 0.0
C796 C 0.70212 0.88795 0.20997 0.0
C797 C 0.7061 0.90179 0.21982 0.0
C798 C 0.74244 0.88803 0.21183 0.0
C799 C 0.68525 0.87813 0.20281 0.0
C800 C 0.71201 0.86977 0.12706 0.0
C801 C 0.70949 0.85583 0.11836 0.0
C802 C 0.70596 0.84152 0.12648 0.0
C803 C 0.7049 0.841 0.14382 0.0
C804 C 0.70118 0.82675 0.15238 0.0
C805 C 0.70074 0.82652 0.16948 0.0
C806 C 0.70393 0.84051 0.17869 0.0
C807 C 0.70409 0.84056 0.1961 0.0
C808 C 0.70697 0.85455 0.20488 0.0
C809 C 0.71002 0.86875 0.19678 0.0
C810 C 0.71017 0.86903 0.17936 0.0
C811 C 0.71341 0.88315 0.17077 0.0
C812 C 0.7137 0.88333 0.15363 0.0
C813 C 0.71114 0.86954 0.14444 0.0
C814 C 0.70768 0.85512 0.15284 0.0
C815 C 0.70715 0.85486 0.1703 0.0
C816 C 0.7073 0.77119 0.21856 0.0
C817 C 0.70668 0.78003 0.23422 0.0
O818 O 0.72781 0.92303 0.08566 0.0
O819 O 0.72564 0.92417 0.23678 0.0
O820 O 0.69609 0.78595 0.23186 0.0
O821 O 0.69756 0.78772 0.08738 0.0
H822 H 0.71676 0.90754 0.06575 0.0
H823 H 0.74589 0.92341 0.06126 0.0
H824 H 0.7452 0.94215 0.06159 0.0
H825 H 0.73471 0.92707 0.04539 0.0
H826 H 0.69829 0.89895 0.09034 0.0
H827 H 0.74797 0.92011 0.10504 0.0
H828 H 0.68431 0.86124 0.10239 0.0
H829 H 0.67784 0.87615 0.1039 0.0
H830 H 0.68295 0.86885 0.12227 0.0
H831 H 0.75765 0.90631 0.1217 0.0
H832 H 0.7449 0.8846 0.12342 0.0
H833 H 0.74459 0.89806 0.13891 0.0
H834 H 0.7201 0.7898 0.08332 0.0
H835 H 0.7081 0.76706 0.06701 0.0
H836 H 0.68973 0.76386 0.07045 0.0
H837 H 0.69777 0.74862 0.09645 0.0
H838 H 0.72458 0.80827 0.10452 0.0
H839 H 0.67617 0.79639 0.09155 0.0
H840 H 0.73718 0.84782 0.12074 0.0
H841 H 0.74218 0.83173 0.11981 0.0
H842 H 0.7315 0.83353 0.13705 0.0
H843 H 0.66384 0.81029 0.10338 0.0
H844 H 0.67795 0.8318 0.103 0.0
H845 H 0.67276 0.82166 0.12231 0.0
H846 H 0.71893 0.79025 0.23738 0.0
H847 H 0.72383 0.80848 0.21837 0.0
H848 H 0.6741 0.79353 0.2262 0.0
H849 H 0.73128 0.83493 0.18778 0.0
H850 H 0.74136 0.83284 0.20578 0.0
H851 H 0.73543 0.84826 0.20524 0.0
H852 H 0.66159 0.80749 0.21483 0.0
H853 H 0.6706 0.81865 0.19643 0.0
H854 H 0.67503 0.8292 0.2159 0.0
H855 H 0.71523 0.93394 0.22151 0.0
H856 H 0.73504 0.9624 0.22913 0.0
H857 H 0.74494 0.95145 0.22235 0.0
H858 H 0.74462 0.95558 0.24404 0.0
H859 H 0.74477 0.91301 0.23053 0.0
H860 H 0.69708 0.90532 0.22214 0.0
H861 H 0.74333 0.88596 0.19851 0.0
H862 H 0.73923 0.87653 0.21822 0.0
H863 H 0.75442 0.89759 0.21663 0.0
H864 H 0.67705 0.88235 0.20752 0.0
H865 H 0.68024 0.86508 0.20574 0.0
H866 H 0.68553 0.87907 0.1892 0.0
H867 H 0.7104 0.85615 0.10506 0.0
H868 H 0.6987 0.81564 0.14595 0.0
H869 H 0.69794 0.81524 0.1754 0.0
H870 H 0.70719 0.85451 0.21824 0.0
H871 H 0.71578 0.89422 0.17719 0.0
H872 H 0.71615 0.8945 0.14768 0.0
H873 H 0.71572 0.76638 0.22043 0.0
H874 H 0.71162 0.77967 0.20811 0.0
H875 H 0.69513 0.76093 0.21523 0.0
C876 C 0.18755 0.91577 0.05853 0.0
C877 C 0.20071 0.92315 0.07212 0.0
C878 C 0.18844 0.9027 0.0937 0.0
C879 C 0.17693 0.90702 0.09852 0.0
C880 C 0.1648 0.8974 0.10947 0.0
C881 C 0.16409 0.88314 0.1157 0.0
C882 C 0.17598 0.87907 0.11136 0.0
C883 C 0.18807 0.889 0.10051 0.0
C884 C 0.15241 0.90218 0.11401 0.0
C885 C 0.17556 0.86393 0.11774 0.0
C886 C 0.07545 0.81552 0.0482 0.0
C887 C 0.07899 0.80652 0.0618 0.0
C888 C 0.08506 0.81811 0.08947 0.0
C889 C 0.09691 0.81426 0.0944 0.0
C890 C 0.10866 0.82377 0.10641 0.0
C891 C 0.10858 0.83747 0.11351 0.0
C892 C 0.09614 0.84088 0.10912 0.0
C893 C 0.08435 0.83095 0.0973 0.0
C894 C 0.12149 0.81953 0.11108 0.0
C895 C 0.09571 0.85541 0.11638 0.0
C896 C 0.07897 0.81437 0.21858 0.0
C897 C 0.09049 0.81005 0.21397 0.0
C898 C 0.10463 0.82125 0.20621 0.0
C899 C 0.10727 0.83708 0.20303 0.0
C900 C 0.09598 0.84164 0.20827 0.0
C901 C 0.08203 0.83024 0.21613 0.0
C902 C 0.11667 0.81615 0.20122 0.0
C903 C 0.09851 0.85847 0.20525 0.0
C904 C 0.2207 0.93772 0.22328 0.0
C905 C 0.21166 0.92828 0.23843 0.0
C906 C 0.19087 0.90241 0.22546 0.0
C907 C 0.18724 0.8865 0.22169 0.0
C908 C 0.17385 0.8762 0.21166 0.0
C909 C 0.16365 0.88192 0.20545 0.0
C910 C 0.16707 0.89795 0.20943 0.0
C911 C 0.18072 0.9081 0.21929 0.0
C912 C 0.17061 0.85921 0.20767 0.0
C913 C 0.15626 0.90431 0.20327 0.0
C914 C 0.14997 0.87162 0.12524 0.0
C915 C 0.13626 0.86042 0.11628 0.0
C916 C 0.12239 0.84909 0.12414 0.0
C917 C 0.12207 0.84891 0.14152 0.0
C918 C 0.10833 0.83768 0.14984 0.0
C919 C 0.10811 0.83767 0.16697 0.0
C920 C 0.12169 0.84875 0.17643 0.0
C921 C 0.12162 0.84871 0.19385 0.0
C922 C 0.13537 0.85981 0.20287 0.0
C923 C 0.14932 0.87101 0.195 0.0
C924 C 0.14961 0.87131 0.17758 0.0
C925 C 0.16342 0.88242 0.16923 0.0
C926 C 0.16355 0.88263 0.15209 0.0
C927 C 0.14995 0.87162 0.14265 0.0
C928 C 0.13591 0.86023 0.15081 0.0
C929 C 0.13573 0.86012 0.16829 0.0
C930 C 0.03888 0.78202 0.21771 0.0
C931 C 0.05631 0.78698 0.22243 0.0
O932 O 0.19985 0.9111 0.08238 0.0
O933 O 0.20422 0.91169 0.23506 0.0
O934 O 0.06484 0.80364 0.22545 0.0
O935 O 0.07455 0.80997 0.07682 0.0
H936 H 0.1991 0.93222 0.07945 0.0
H937 H 0.17542 0.91008 0.06392 0.0
H938 H 0.18861 0.90631 0.05131 0.0
H939 H 0.18858 0.9254 0.05008 0.0
H940 H 0.17711 0.9177 0.09363 0.0
H941 H 0.19705 0.88581 0.09687 0.0
H942 H 0.14052 0.89321 0.10852 0.0
H943 H 0.15556 0.91447 0.10959 0.0
H944 H 0.15117 0.90201 0.12758 0.0
H945 H 0.18595 0.8627 0.11359 0.0
H946 H 0.16424 0.85303 0.11342 0.0
H947 H 0.17562 0.86412 0.1314 0.0
H948 H 0.09227 0.81133 0.0616 0.0
H949 H 0.0782 0.81228 0.03595 0.0
H950 H 0.08314 0.82886 0.05025 0.0
H951 H 0.06267 0.8126 0.04819 0.0
H952 H 0.09711 0.80397 0.08867 0.0
H953 H 0.07501 0.83367 0.09351 0.0
H954 H 0.12303 0.81981 0.12468 0.0
H955 H 0.13317 0.82872 0.10603 0.0
H956 H 0.11861 0.80733 0.10624 0.0
H957 H 0.08531 0.85647 0.11157 0.0
H958 H 0.10701 0.86672 0.11355 0.0
H959 H 0.095 0.85449 0.12998 0.0
H960 H 0.06118 0.7836 0.21166 0.0
H961 H 0.08852 0.79797 0.21647 0.0
H962 H 0.07318 0.83353 0.21998 0.0
H963 H 0.11746 0.81627 0.1876 0.0
H964 H 0.11337 0.80378 0.20549 0.0
H965 H 0.12881 0.82495 0.20634 0.0
H966 H 0.08848 0.86005 0.20989 0.0
H967 H 0.09962 0.86087 0.19184 0.0
H968 H 0.10993 0.86768 0.2114 0.0
H969 H 0.20249 0.93174 0.24181 0.0
H970 H 0.2266 0.95104 0.22578 0.0
H971 H 0.21223 0.93481 0.21261 0.0
H972 H 0.23003 0.9345 0.2199 0.0
H973 H 0.19509 0.8822 0.22654 0.0
H974 H 0.18328 0.92035 0.22213 0.0
H975 H 0.16927 0.857 0.19414 0.0
H976 H 0.15912 0.85023 0.21321 0.0
H977 H 0.18037 0.85704 0.2124 0.0
H978 H 0.15993 0.91665 0.20833 0.0
H979 H 0.14362 0.8959 0.20667 0.0
H980 H 0.15654 0.90484 0.18963 0.0
H981 H 0.1364 0.86048 0.10292 0.0
H982 H 0.09757 0.82882 0.14319 0.0
H983 H 0.09715 0.82881 0.17269 0.0
H984 H 0.13525 0.85963 0.21622 0.0
H985 H 0.17428 0.89112 0.17585 0.0
H986 H 0.17448 0.8915 0.1463 0.0
H987 H 0.03176 0.76869 0.21526 0.0
H988 H 0.03861 0.78835 0.20635 0.0
H989 H 0.03316 0.78536 0.22769 0.0
C990 C 0.28604 0.09886 0.96102 0.0
C991 C 0.28807 0.08918 0.94689 0.0
C992 C 0.29346 0.10823 0.92419 0.0
C993 C 0.2776 0.10531 0.92189 0.0
C994 C 0.27422 0.11502 0.91137 0.0
C995 C 0.28693 0.12791 0.90302 0.0
C996 C 0.30284 0.13067 0.90506 0.0
C997 C 0.30584 0.12067 0.91551 0.0
C998 C 0.2571 0.11166 0.90931 0.0
C999 C 0.31671 0.14438 0.89646 0.0
C1000 C 0.26678 0.22577 0.91724 0.0
C1001 C 0.27871 0.22493 0.92955 0.0
C1002 C 0.28699 0.20707 0.91533 0.0
C1003 C 0.29984 0.20703 0.90745 0.0
C1004 C 0.29828 0.19278 0.90027 0.0
C1005 C 0.28335 0.17818 0.90083 0.0
C1006 C 0.27035 0.17798 0.90914 0.0
C1007 C 0.27231 0.19243 0.9164 0.0
C1008 C 0.31253 0.19343 0.89178 0.0
C1009 C 0.25431 0.16257 0.90999 0.0
C1010 C 0.27068 0.19568 0.79791 0.0
C1011 C 0.2858 0.19741 0.80202 0.0
C1012 C 0.28705 0.18472 0.80944 0.0
C1013 C 0.27288 0.16994 0.81264 0.0
C1014 C 0.2577 0.16779 0.80752 0.0
C1015 C 0.25681 0.1807 0.80008 0.0
C1016 C 0.30348 0.1873 0.81434 0.0
C1017 C 0.2424 0.1521 0.81052 0.0
C1018 C 0.28193 0.06465 0.802 0.0
C1019 C 0.28252 0.07332 0.78595 0.0
C1020 C 0.28735 0.10002 0.79657 0.0
C1021 C 0.2995 0.116 0.79968 0.0
C1022 C 0.29646 0.12705 0.80832 0.0
C1023 C 0.2807 0.12202 0.81373 0.0
C1024 C 0.2682 0.10593 0.81032 0.0
C1025 C 0.27167 0.09501 0.80186 0.0
C1026 C 0.31012 0.14411 0.81168 0.0
C1027 C 0.25124 0.10027 0.81572 0.0
C1028 C 0.2837 0.139 0.89282 0.0
C1029 C 0.28363 0.15214 0.9008 0.0
C1030 C 0.28125 0.16342 0.89198 0.0
C1031 C 0.27844 0.1614 0.87476 0.0
C1032 C 0.27557 0.17231 0.86561 0.0
C1033 C 0.27373 0.1708 0.84857 0.0
C1034 C 0.27481 0.15839 0.83999 0.0
C1035 C 0.27392 0.15737 0.82259 0.0
C1036 C 0.27521 0.14499 0.81442 0.0
C1037 C 0.27752 0.1336 0.8232 0.0
C1038 C 0.27835 0.13438 0.84063 0.0
C1039 C 0.28072 0.12317 0.84986 0.0
C1040 C 0.28209 0.1244 0.86697 0.0
C1041 C 0.28148 0.1371 0.8755 0.0
C1042 C 0.27886 0.14837 0.86645 0.0
C1043 C 0.27715 0.14693 0.84902 0.0
C1044 C 0.26755 0.22981 0.80567 0.0
C1045 C 0.27829 0.22439 0.79696 0.0
O1046 O 0.29744 0.09958 0.93472 0.0
O1047 O 0.29147 0.09002 0.78846 0.0
O1048 O 0.26906 0.20821 0.79198 0.0
O1049 O 0.28939 0.22156 0.92142 0.0
H1050 H 0.27604 0.08025 0.94157 0.0
H1051 H 0.2797 0.10532 0.9566 0.0
H1052 H 0.29799 0.10799 0.96631 0.0
H1053 H 0.27877 0.09054 0.97089 0.0
H1054 H 0.26781 0.0956 0.92832 0.0
H1055 H 0.31801 0.12278 0.91727 0.0
H1056 H 0.25618 0.1221 0.9144 0.0
H1057 H 0.24839 0.10045 0.91565 0.0
H1058 H 0.25366 0.11037 0.89602 0.0
H1059 H 0.32845 0.1452 0.89972 0.0
H1060 H 0.31738 0.15613 0.89976 0.0
H1061 H 0.31472 0.14259 0.88292 0.0
H1062 H 0.27198 0.21531 0.93865 0.0
H1063 H 0.25847 0.22883 0.92379 0.0
H1064 H 0.25943 0.21388 0.91077 0.0
H1065 H 0.27329 0.23514 0.90788 0.0
H1066 H 0.31114 0.21835 0.90679 0.0
H1067 H 0.26228 0.1922 0.92263 0.0
H1068 H 0.31002 0.1917 0.8783 0.0
H1069 H 0.31454 0.18343 0.89606 0.0
H1070 H 0.32375 0.20521 0.89405 0.0
H1071 H 0.24529 0.16443 0.91672 0.0
H1072 H 0.25591 0.15305 0.91624 0.0
H1073 H 0.24952 0.15797 0.89734 0.0
H1074 H 0.28759 0.22603 0.8064 0.0
H1075 H 0.29665 0.20871 0.79959 0.0
H1076 H 0.24522 0.17936 0.79653 0.0
H1077 H 0.30458 0.1873 0.82797 0.0
H1078 H 0.31337 0.19898 0.80984 0.0
H1079 H 0.30499 0.17717 0.80939 0.0
H1080 H 0.23159 0.15209 0.80521 0.0
H1081 H 0.24086 0.15014 0.82398 0.0
H1082 H 0.24321 0.14172 0.80508 0.0
H1083 H 0.27008 0.06985 0.78166 0.0
H1084 H 0.27473 0.05124 0.80013 0.0
H1085 H 0.27619 0.06818 0.81176 0.0
H1086 H 0.2943 0.06794 0.80632 0.0
H1087 H 0.31152 0.11975 0.79546 0.0
H1088 H 0.26209 0.08269 0.79947 0.0
H1089 H 0.31073 0.14739 0.82494 0.0
H1090 H 0.30791 0.1528 0.80454 0.0
H1091 H 0.32195 0.14556 0.80818 0.0
H1092 H 0.24263 0.08778 0.81109 0.0
H1093 H 0.24714 0.10874 0.81127 0.0
H1094 H 0.251 0.10041 0.82938 0.0
H1095 H 0.2859 0.15385 0.91401 0.0
H1096 H 0.27481 0.18222 0.87151 0.0
H1097 H 0.27168 0.17965 0.8422 0.0
H1098 H 0.27494 0.14454 0.80106 0.0
H1099 H 0.2816 0.11333 0.84395 0.0
H1100 H 0.28392 0.11545 0.87343 0.0
H1101 H 0.2567 0.227 0.79803 0.0
H1102 H 0.27439 0.24307 0.80857 0.0
H1103 H 0.26342 0.22323 0.81741 0.0
C1104 C 0.81076 0.08101 0.96724 0.0
C1105 C 0.79922 0.08333 0.95575 0.0
C1106 C 0.80854 0.08885 0.92779 0.0
C1107 C 0.80561 0.10152 0.92358 0.0
C1108 C 0.81514 0.11308 0.91204 0.0
C1109 C 0.82795 0.112 0.90475 0.0
C1110 C 0.83037 0.09871 0.90838 0.0
C1111 C 0.82042 0.08713 0.91971 0.0
C1112 C 0.81189 0.12678 0.90812 0.0
C1113 C 0.84391 0.09718 0.90086 0.0
C1114 C 0.93478 0.22406 0.94871 0.0
C1115 C 0.92563 0.2083 0.93949 0.0
C1116 C 0.89881 0.19106 0.92714 0.0
C1117 C 0.90264 0.1802 0.91912 0.0
C1118 C 0.89132 0.16775 0.90865 0.0
C1119 C 0.876 0.16634 0.90587 0.0
C1120 C 0.87223 0.17745 0.91371 0.0
C1121 C 0.88365 0.18955 0.92439 0.0
C1122 C 0.89563 0.15591 0.90078 0.0
C1123 C 0.85607 0.1764 0.91099 0.0
C1124 C 0.89713 0.19328 0.79795 0.0
C1125 C 0.90104 0.18181 0.80428 0.0
C1126 C 0.88983 0.16855 0.8133 0.0
C1127 C 0.87453 0.16687 0.81629 0.0
C1128 C 0.87059 0.17841 0.80999 0.0
C1129 C 0.88192 0.19139 0.8008 0.0
C1130 C 0.89434 0.15633 0.81964 0.0
C1131 C 0.85441 0.17703 0.81297 0.0
C1132 C 0.7678 0.04894 0.79888 0.0
C1133 C 0.77473 0.06503 0.78975 0.0
C1134 C 0.80271 0.0851 0.79689 0.0
C1135 C 0.81704 0.08554 0.80172 0.0
C1136 C 0.82906 0.09882 0.81082 0.0
C1137 C 0.82667 0.11202 0.81504 0.0
C1138 C 0.81249 0.11196 0.8096 0.0
C1139 C 0.80071 0.09857 0.80043 0.0
C1140 C 0.84423 0.09868 0.81609 0.0
C1141 C 0.80976 0.12604 0.81355 0.0
C1142 C 0.83988 0.12571 0.89495 0.0
C1143 C 0.85196 0.13912 0.90367 0.0
C1144 C 0.86358 0.1527 0.89557 0.0
C1145 C 0.86326 0.153 0.87817 0.0
C1146 C 0.87459 0.16659 0.8696 0.0
C1147 C 0.87435 0.16665 0.85247 0.0
C1148 C 0.86275 0.15311 0.84325 0.0
C1149 C 0.86255 0.15294 0.82582 0.0
C1150 C 0.85075 0.13936 0.81705 0.0
C1151 C 0.83898 0.12587 0.82519 0.0
C1152 C 0.83899 0.12577 0.84261 0.0
C1153 C 0.82727 0.11243 0.8512 0.0
C1154 C 0.82746 0.11241 0.86835 0.0
C1155 C 0.83942 0.12568 0.87754 0.0
C1156 C 0.85123 0.13936 0.86913 0.0
C1157 C 0.851 0.13941 0.85165 0.0
C1158 C 0.93399 0.22028 0.80143 0.0
C1159 C 0.92358 0.21152 0.7861 0.0
O1160 O 0.80029 0.07842 0.93989 0.0
O1161 O 0.79127 0.07164 0.78866 0.0
O1162 O 0.90751 0.20629 0.78908 0.0
O1163 O 0.90931 0.20307 0.93763 0.0
H1164 H 0.80302 0.09653 0.95621 0.0
H1165 H 0.82333 0.0886 0.96314 0.0
H1166 H 0.80786 0.06808 0.96715 0.0
H1167 H 0.81003 0.08482 0.98003 0.0
H1168 H 0.79602 0.10247 0.92953 0.0
H1169 H 0.82239 0.07714 0.92293 0.0
H1170 H 0.82144 0.1382 0.91404 0.0
H1171 H 0.80004 0.12446 0.91264 0.0
H1172 H 0.81224 0.12867 0.89462 0.0
H1173 H 0.84416 0.08611 0.90494 0.0
H1174 H 0.85563 0.10804 0.90429 0.0
H1175 H 0.84264 0.09672 0.88723 0.0
H1176 H 0.92815 0.19853 0.94359 0.0
H1177 H 0.93949 0.22109 0.96021 0.0
H1178 H 0.92564 0.22613 0.95532 0.0
H1179 H 0.95003 0.23999 0.93104 0.0
H1180 H 0.91433 0.1812 0.92116 0.0
H1181 H 0.88082 0.198 0.9306 0.0
H1182 H 0.88636 0.14323 0.90349 0.0
H1183 H 0.90758 0.15792 0.90514 0.0
H1184 H 0.89584 0.1572 0.88721 0.0
H1185 H 0.8559 0.18731 0.91595 0.0
H1186 H 0.84672 0.16552 0.91723 0.0
H1187 H 0.85281 0.17499 0.89765 0.0
H1188 H 0.92511 0.20092 0.78279 0.0
H1189 H 0.91274 0.18302 0.80225 0.0
H1190 H 0.879 0.20026 0.79588 0.0
H1191 H 0.89473 0.15673 0.83331 0.0
H1192 H 0.90625 0.15868 0.81527 0.0
H1193 H 0.88506 0.14384 0.81564 0.0
H1194 H 0.85373 0.18775 0.80847 0.0
H1195 H 0.85188 0.17575 0.82632 0.0
H1196 H 0.84484 0.16596 0.80655 0.0
H1197 H 0.77161 0.07294 0.79724 0.0
H1198 H 0.75447 0.04313 0.79935 0.0
H1199 H 0.77275 0.05128 0.81172 0.0
H1200 H 0.77104 0.0404 0.79283 0.0
H1201 H 0.81862 0.07524 0.79863 0.0
H1202 H 0.79008 0.09879 0.79593 0.0
H1203 H 0.84515 0.09886 0.82974 0.0
H1204 H 0.85493 0.10978 0.81171 0.0
H1205 H 0.84453 0.0878 0.81125 0.0
H1206 H 0.79785 0.12391 0.80889 0.0
H1207 H 0.81933 0.13726 0.80798 0.0
H1208 H 0.81056 0.12818 0.82708 0.0
H1209 H 0.85231 0.13899 0.91703 0.0
H1210 H 0.88382 0.17733 0.87606 0.0
H1211 H 0.8834 0.17742 0.84654 0.0
H1212 H 0.85066 0.13931 0.80369 0.0
H1213 H 0.81783 0.10184 0.84477 0.0
H1214 H 0.81816 0.10182 0.87432 0.0
H1215 H 0.94688 0.2245 0.79909 0.0
H1216 H 0.93037 0.21194 0.81199 0.0
H1217 H 0.93263 0.23094 0.80486 0.0
C1218 C 0.79712 0.72349 0.9571 0.0
C1219 C 0.78451 0.71484 0.94318 0.0
C1220 C 0.7999 0.70734 0.92427 0.0
C1221 C 0.81082 0.72317 0.91924 0.0
C1222 C 0.82397 0.72608 0.90951 0.0
C1223 C 0.82605 0.71288 0.90446 0.0
C1224 C 0.81465 0.69687 0.90885 0.0
C1225 C 0.80175 0.69434 0.91873 0.0
C1226 C 0.83585 0.74328 0.90489 0.0
C1227 C 0.81633 0.68247 0.90344 0.0
C1228 C 0.91334 0.73392 0.97414 0.0
C1229 C 0.91064 0.72113 0.96091 0.0
C1230 C 0.90439 0.72621 0.93321 0.0
C1231 C 0.89234 0.71057 0.92827 0.0
C1232 C 0.88088 0.7084 0.91601 0.0
C1233 C 0.88144 0.7222 0.90866 0.0
C1234 C 0.89404 0.73797 0.91313 0.0
C1235 C 0.90554 0.73973 0.92519 0.0
C1236 C 0.86787 0.6914 0.91128 0.0
C1237 C 0.89498 0.75296 0.90565 0.0
C1238 C 0.91454 0.73002 0.8041 0.0
C1239 C 0.90303 0.71401 0.80792 0.0
C1240 C 0.88861 0.7107 0.81545 0.0
C1241 C 0.88568 0.72365 0.81921 0.0
C1242 C 0.89704 0.73971 0.81486 0.0
C1243 C 0.91126 0.74264 0.80719 0.0
C1244 C 0.87656 0.6934 0.81956 0.0
C1245 C 0.89428 0.7538 0.81857 0.0
C1246 C 0.78448 0.73001 0.78903 0.0
C1247 C 0.78778 0.7187 0.77799 0.0
C1248 C 0.80314 0.71003 0.79596 0.0
C1249 C 0.80288 0.69661 0.80332 0.0
C1250 C 0.81613 0.69822 0.81265 0.0
C1251 C 0.8298 0.71382 0.81514 0.0
C1252 C 0.83024 0.72746 0.80758 0.0
C1253 C 0.81704 0.72539 0.79785 0.0
C1254 C 0.81541 0.68326 0.81996 0.0
C1255 C 0.84462 0.74429 0.80984 0.0
C1256 C 0.84068 0.71585 0.89555 0.0
C1257 C 0.85398 0.71799 0.90497 0.0
C1258 C 0.86801 0.72019 0.89758 0.0
C1259 C 0.86886 0.72027 0.88021 0.0
C1260 C 0.8827 0.72229 0.87233 0.0
C1261 C 0.88345 0.72246 0.85522 0.0
C1262 C 0.87028 0.72039 0.84534 0.0
C1263 C 0.87091 0.72052 0.82794 0.0
C1264 C 0.8575 0.71815 0.8185 0.0
C1265 C 0.84348 0.71595 0.82594 0.0
C1266 C 0.84275 0.71612 0.84333 0.0
C1267 C 0.829 0.71437 0.85125 0.0
C1268 C 0.82827 0.71423 0.86834 0.0
C1269 C 0.84134 0.71608 0.87818 0.0
C1270 C 0.85546 0.71821 0.87049 0.0
C1271 C 0.85615 0.71821 0.85303 0.0
C1272 C 0.9547 0.73859 0.80626 0.0
C1273 C 0.93771 0.72597 0.80033 0.0
O1274 O 0.78762 0.70398 0.93459 0.0
O1275 O 0.7897 0.70758 0.78739 0.0
O1276 O 0.92885 0.73375 0.79736 0.0
O1277 O 0.91493 0.72859 0.94578 0.0
H1278 H 0.78468 0.72403 0.9346 0.0
H1279 H 0.80929 0.73109 0.95209 0.0
H1280 H 0.7976 0.71449 0.96547 0.0
H1281 H 0.79412 0.73162 0.96435 0.0
H1282 H 0.80935 0.73335 0.92304 0.0
H1283 H 0.79316 0.68215 0.92248 0.0
H1284 H 0.84794 0.7467 0.91018 0.0
H1285 H 0.83231 0.75219 0.90936 0.0
H1286 H 0.83689 0.74408 0.8913 0.0
H1287 H 0.80587 0.67071 0.90694 0.0
H1288 H 0.82743 0.68344 0.90915 0.0
H1289 H 0.81757 0.68248 0.88987 0.0
H1290 H 0.89758 0.71193 0.96091 0.0
H1291 H 0.90998 0.72821 0.98639 0.0
H1292 H 0.9057 0.73946 0.97124 0.0
H1293 H 0.92615 0.74372 0.9747 0.0
H1294 H 0.89183 0.70007 0.93412 0.0
H1295 H 0.91507 0.75175 0.92896 0.0
H1296 H 0.8663 0.68996 0.89768 0.0
H1297 H 0.85627 0.68921 0.91638 0.0
H1298 H 0.87057 0.68201 0.91608 0.0
H1299 H 0.90531 0.76436 0.91076 0.0
H1300 H 0.88367 0.75322 0.90789 0.0
H1301 H 0.89623 0.75259 0.89212 0.0
H1302 H 0.93246 0.71717 0.8105 0.0
H1303 H 0.90522 0.70409 0.80494 0.0
H1304 H 0.92011 0.75491 0.80395 0.0
H1305 H 0.87521 0.69232 0.8331 0.0
H1306 H 0.88022 0.68458 0.81509 0.0
H1307 H 0.86459 0.69007 0.81401 0.0
H1308 H 0.90452 0.76563 0.81486 0.0
H1309 H 0.89241 0.75442 0.83195 0.0
H1310 H 0.88319 0.7519 0.81196 0.0
H1311 H 0.79898 0.72641 0.77119 0.0
H1312 H 0.78081 0.73739 0.7814 0.0
H1313 H 0.79545 0.73855 0.79625 0.0
H1314 H 0.77491 0.72296 0.79792 0.0
H1315 H 0.79221 0.68478 0.80169 0.0
H1316 H 0.81768 0.73591 0.792 0.0
H1317 H 0.81378 0.68336 0.83344 0.0
H1318 H 0.82685 0.68319 0.81796 0.0
H1319 H 0.80527 0.67187 0.81459 0.0
H1320 H 0.84217 0.75389 0.80518 0.0
H1321 H 0.8549 0.74494 0.80306 0.0
H1322 H 0.84831 0.74691 0.82306 0.0
H1323 H 0.85336 0.7178 0.9183 0.0
H1324 H 0.89314 0.72382 0.87932 0.0
H1325 H 0.89446 0.72417 0.84985 0.0
H1326 H 0.85805 0.71819 0.80517 0.0
H1327 H 0.8186 0.71302 0.84434 0.0
H1328 H 0.81733 0.7127 0.87376 0.0
H1329 H 0.96208 0.73266 0.80866 0.0
H1330 H 0.95407 0.74449 0.8179 0.0
H1331 H 0.96072 0.74817 0.79696 0.0
C1332 C 0.87702 0.64984 0.38975 0.0
C1333 C 0.88841 0.65028 0.4036 0.0
C1334 C 0.86898 0.63553 0.42486 0.0
C1335 C 0.86997 0.6489 0.43365 0.0
C1336 C 0.8576 0.64702 0.444 0.0
C1337 C 0.84399 0.63144 0.44577 0.0
C1338 C 0.84329 0.61781 0.4376 0.0
C1339 C 0.85589 0.62003 0.42733 0.0
C1340 C 0.85894 0.66178 0.45287 0.0
C1341 C 0.82908 0.601 0.43948 0.0
C1342 C 0.7359 0.63596 0.40467 0.0
C1343 C 0.74497 0.62841 0.41202 0.0
C1344 C 0.77115 0.63728 0.42579 0.0
C1345 C 0.76764 0.62178 0.43109 0.0
C1346 C 0.77877 0.61982 0.44096 0.0
C1347 C 0.79355 0.63363 0.44579 0.0
C1348 C 0.79699 0.64925 0.44064 0.0
C1349 C 0.78576 0.65083 0.43059 0.0
C1350 C 0.77485 0.60297 0.44605 0.0
C1351 C 0.81258 0.66426 0.44562 0.0
C1352 C 0.7714 0.63378 0.55557 0.0
C1353 C 0.7661 0.61957 0.54591 0.0
C1354 C 0.77691 0.61732 0.53619 0.0
C1355 C 0.79318 0.62992 0.53546 0.0
C1356 C 0.79841 0.64438 0.545 0.0
C1357 C 0.78753 0.6459 0.55523 0.0
C1358 C 0.77093 0.60136 0.52693 0.0
C1359 C 0.81554 0.65822 0.54463 0.0
C1360 C 0.90354 0.62158 0.54214 0.0
C1361 C 0.89609 0.62997 0.55204 0.0
C1362 C 0.86731 0.62083 0.5484 0.0
C1363 C 0.85283 0.6068 0.54422 0.0
C1364 C 0.83982 0.60779 0.53716 0.0
C1365 C 0.84139 0.62325 0.53435 0.0
C1366 C 0.85567 0.63749 0.53948 0.0
C1367 C 0.86843 0.63613 0.54664 0.0
C1368 C 0.82465 0.59238 0.53212 0.0
C1369 C 0.85762 0.65416 0.53695 0.0
C1370 C 0.8302 0.62971 0.45547 0.0
C1371 C 0.81807 0.63116 0.44711 0.0
C1372 C 0.80573 0.63168 0.4556 0.0
C1373 C 0.80543 0.63081 0.47298 0.0
C1374 C 0.79375 0.63227 0.482 0.0
C1375 C 0.79369 0.63156 0.49912 0.0
C1376 C 0.80504 0.62894 0.50786 0.0
C1377 C 0.80492 0.62788 0.52526 0.0
C1378 C 0.81663 0.62557 0.53348 0.0
C1379 C 0.82869 0.62461 0.52486 0.0
C1380 C 0.82898 0.62559 0.50751 0.0
C1381 C 0.84103 0.62478 0.4985 0.0
C1382 C 0.84142 0.62606 0.48146 0.0
C1383 C 0.82971 0.62808 0.47275 0.0
C1384 C 0.81733 0.62873 0.48155 0.0
C1385 C 0.81704 0.62764 0.49898 0.0
C1386 C 0.73788 0.63524 0.57623 0.0
C1387 C 0.74536 0.63082 0.56264 0.0
O1388 O 0.88025 0.63715 0.41384 0.0
O1389 O 0.87985 0.6191 0.55403 0.0
O1390 O 0.76152 0.63601 0.56577 0.0
O1391 O 0.76086 0.63971 0.41603 0.0
H1392 H 0.89258 0.66194 0.41044 0.0
H1393 H 0.86779 0.65237 0.39496 0.0
H1394 H 0.87064 0.63767 0.38355 0.0
H1395 H 0.88382 0.65926 0.38052 0.0
H1396 H 0.88036 0.66085 0.4326 0.0
H1397 H 0.85532 0.60973 0.42074 0.0
H1398 H 0.84865 0.66351 0.44916 0.0
H1399 H 0.87033 0.67307 0.45022 0.0
H1400 H 0.85836 0.65988 0.46636 0.0
H1401 H 0.83078 0.59151 0.43313 0.0
H1402 H 0.81805 0.60062 0.43431 0.0
H1403 H 0.82708 0.59809 0.45274 0.0
H1404 H 0.74366 0.6175 0.40524 0.0
H1405 H 0.71866 0.63211 0.42214 0.0
H1406 H 0.73258 0.63071 0.39177 0.0
H1407 H 0.74511 0.64848 0.40064 0.0
H1408 H 0.75637 0.61118 0.4274 0.0
H1409 H 0.78833 0.66273 0.42645 0.0
H1410 H 0.78441 0.60038 0.44191 0.0
H1411 H 0.76306 0.5934 0.44086 0.0
H1412 H 0.77457 0.60228 0.45968 0.0
H1413 H 0.81267 0.67564 0.44211 0.0
H1414 H 0.82273 0.6639 0.43955 0.0
H1415 H 0.8147 0.66456 0.45913 0.0
H1416 H 0.74299 0.63379 0.54999 0.0
H1417 H 0.75366 0.61001 0.54633 0.0
H1418 H 0.79152 0.65676 0.56284 0.0
H1419 H 0.76896 0.60299 0.51375 0.0
H1420 H 0.75935 0.5917 0.53173 0.0
H1421 H 0.77993 0.59717 0.52769 0.0
H1422 H 0.81662 0.66979 0.5494 0.0
H1423 H 0.82021 0.66014 0.53195 0.0
H1424 H 0.82328 0.65523 0.55254 0.0
H1425 H 0.89793 0.64057 0.54465 0.0
H1426 H 0.91665 0.62994 0.54076 0.0
H1427 H 0.89777 0.61819 0.52966 0.0
H1428 H 0.90171 0.61033 0.5482 0.0
H1429 H 0.85194 0.59503 0.54599 0.0
H1430 H 0.87925 0.64704 0.55073 0.0
H1431 H 0.82314 0.59176 0.5185 0.0
H1432 H 0.81401 0.59245 0.53734 0.0
H1433 H 0.82486 0.58131 0.53624 0.0
H1434 H 0.86934 0.66403 0.54195 0.0
H1435 H 0.84775 0.65503 0.54302 0.0
H1436 H 0.85675 0.6561 0.52359 0.0
H1437 H 0.81849 0.63235 0.43383 0.0
H1438 H 0.78463 0.63414 0.47593 0.0
H1439 H 0.78456 0.63302 0.5054 0.0
H1440 H 0.81659 0.62487 0.5468 0.0
H1441 H 0.85038 0.62323 0.50452 0.0
H1442 H 0.85101 0.62541 0.47518 0.0
H1443 H 0.72046 0.61267 0.58501 0.0
H1444 H 0.73471 0.64422 0.5707 0.0
H1445 H 0.74801 0.64462 0.58429 0.0
C1446 C 0.4003 0.26722 0.39113 0.0
C1447 C 0.38574 0.25889 0.40221 0.0
C1448 C 0.38703 0.24717 0.42828 0.0
C1449 C 0.37108 0.23447 0.42912 0.0
C1450 C 0.36719 0.22093 0.43894 0.0
C1451 C 0.37959 0.21998 0.44784 0.0
C1452 C 0.39567 0.23293 0.44716 0.0
C1453 C 0.3991 0.24654 0.43764 0.0
C1454 C 0.34988 0.20757 0.43961 0.0
C1455 C 0.4093 0.23226 0.45616 0.0
C1456 C 0.3622 0.09631 0.41575 0.0
C1457 C 0.36901 0.11218 0.42486 0.0
C1458 C 0.36347 0.13444 0.42989 0.0
C1459 C 0.37846 0.14506 0.43747 0.0
C1460 C 0.38109 0.15937 0.44563 0.0
C1461 C 0.36835 0.16293 0.44659 0.0
C1462 C 0.35337 0.15245 0.4386 0.0
C1463 C 0.35121 0.13845 0.43017 0.0
C1464 C 0.39741 0.17052 0.45349 0.0
C1465 C 0.33952 0.15587 0.43927 0.0
C1466 C 0.36501 0.13434 0.55125 0.0
C1467 C 0.38012 0.14788 0.5481 0.0
C1468 C 0.38127 0.16152 0.54017 0.0
C1469 C 0.36706 0.16181 0.53557 0.0
C1470 C 0.35185 0.14847 0.53919 0.0
C1471 C 0.35104 0.13486 0.5469 0.0
C1472 C 0.3977 0.17551 0.53644 0.0
C1473 C 0.33648 0.14847 0.53457 0.0
C1474 C 0.39822 0.28458 0.56012 0.0
C1475 C 0.38225 0.26983 0.56475 0.0
C1476 C 0.38193 0.24454 0.55802 0.0
C1477 C 0.39401 0.24055 0.55563 0.0
C1478 C 0.39142 0.22756 0.54515 0.0
C1479 C 0.3761 0.21795 0.53738 0.0
C1480 C 0.36367 0.22171 0.54013 0.0
C1481 C 0.36678 0.2351 0.55032 0.0
C1482 C 0.40501 0.22401 0.54265 0.0
C1483 C 0.34704 0.21142 0.53254 0.0
C1484 C 0.37583 0.20518 0.45733 0.0
C1485 C 0.37367 0.19139 0.44856 0.0
C1486 C 0.37042 0.17712 0.45662 0.0
C1487 C 0.36938 0.17655 0.47398 0.0
C1488 C 0.36618 0.16243 0.48251 0.0
C1489 C 0.36578 0.16214 0.4996 0.0
C1490 C 0.36822 0.17586 0.50884 0.0
C1491 C 0.3682 0.17577 0.52624 0.0
C1492 C 0.3704 0.1895 0.53508 0.0
C1493 C 0.37296 0.20357 0.52703 0.0
C1494 C 0.37332 0.204 0.50961 0.0
C1495 C 0.37621 0.21802 0.50107 0.0
C1496 C 0.37675 0.21836 0.48394 0.0
C1497 C 0.37474 0.20479 0.4747 0.0
C1498 C 0.37164 0.19046 0.48304 0.0
C1499 C 0.37094 0.19007 0.5005 0.0
C1500 C 0.38263 0.11322 0.54862 0.0
C1501 C 0.37542 0.11743 0.56342 0.0
O1502 O 0.39112 0.26006 0.41839 0.0
O1503 O 0.38501 0.25711 0.5684 0.0
O1504 O 0.3633 0.1205 0.55813 0.0
O1505 O 0.36034 0.12023 0.42233 0.0
H1506 H 0.37894 0.24589 0.398 0.0
H1507 H 0.40766 0.26111 0.39216 0.0
H1508 H 0.40799 0.28024 0.39479 0.0
H1509 H 0.39628 0.26641 0.37806 0.0
H1510 H 0.36169 0.23519 0.42213 0.0
H1511 H 0.41136 0.2565 0.43697 0.0
H1512 H 0.34841 0.19671 0.43272 0.0
H1513 H 0.34145 0.21125 0.43411 0.0
H1514 H 0.3465 0.204 0.45255 0.0
H1515 H 0.42128 0.24228 0.45263 0.0
H1516 H 0.40879 0.22045 0.45359 0.0
H1517 H 0.4081 0.23323 0.46962 0.0
H1518 H 0.37201 0.11181 0.43814 0.0
H1519 H 0.38019 0.09999 0.39934 0.0
H1520 H 0.3496 0.09301 0.41158 0.0
H1521 H 0.35815 0.08688 0.42559 0.0
H1522 H 0.38817 0.14226 0.43705 0.0
H1523 H 0.33974 0.13028 0.42414 0.0
H1524 H 0.40143 0.18337 0.45044 0.0
H1525 H 0.40668 0.16745 0.44948 0.0
H1526 H 0.39658 0.16952 0.46708 0.0
H1527 H 0.32831 0.14593 0.43345 0.0
H1528 H 0.34278 0.16733 0.43281 0.0
H1529 H 0.33712 0.15755 0.45226 0.0
H1530 H 0.38531 0.12843 0.56972 0.0
H1531 H 0.39111 0.14789 0.55152 0.0
H1532 H 0.33944 0.12444 0.54944 0.0
H1533 H 0.39857 0.17782 0.52301 0.0
H1534 H 0.40759 0.17322 0.54036 0.0
H1535 H 0.39944 0.1867 0.54283 0.0
H1536 H 0.32565 0.13764 0.53919 0.0
H1537 H 0.33533 0.14866 0.52096 0.0
H1538 H 0.33686 0.15963 0.53961 0.0
H1539 H 0.37372 0.26659 0.55402 0.0
H1540 H 0.3964 0.29489 0.55657 0.0
H1541 H 0.40331 0.28136 0.54945 0.0
H1542 H 0.40705 0.28851 0.57062 0.0
H1543 H 0.4056 0.24782 0.56185 0.0
H1544 H 0.35728 0.23793 0.55264 0.0
H1545 H 0.40563 0.22102 0.52953 0.0
H1546 H 0.40282 0.21333 0.55005 0.0
H1547 H 0.41685 0.23443 0.54664 0.0
H1548 H 0.33834 0.21509 0.53705 0.0
H1549 H 0.34245 0.19841 0.53534 0.0
H1550 H 0.34761 0.21255 0.51896 0.0
H1551 H 0.37462 0.1918 0.43526 0.0
H1552 H 0.36413 0.15146 0.47609 0.0
H1553 H 0.36351 0.15099 0.50546 0.0
H1554 H 0.37048 0.18935 0.54844 0.0
H1555 H 0.3781 0.22892 0.50753 0.0
H1556 H 0.37893 0.22946 0.47804 0.0
H1557 H 0.37299 0.10352 0.54074 0.0
H1558 H 0.39124 0.10923 0.55289 0.0
H1559 H 0.38934 0.12401 0.54086 0.0
C1560 C 0.86303 0.24709 0.38057 0.0
C1561 C 0.87463 0.25233 0.39556 0.0
C1562 C 0.85959 0.22971 0.41447 0.0
C1563 C 0.84775 0.23382 0.41854 0.0
C1564 C 0.83483 0.22367 0.42847 0.0
C1565 C 0.83372 0.20917 0.43448 0.0
C1566 C 0.84574 0.20514 0.43063 0.0
C1567 C 0.85855 0.21551 0.42073 0.0
C1568 C 0.82226 0.22837 0.43247 0.0
C1569 C 0.84496 0.18977 0.43685 0.0
C1570 C 0.73108 0.13003 0.37697 0.0
C1571 C 0.73975 0.12504 0.38969 0.0
C1572 C 0.75146 0.14082 0.41497 0.0
C1573 C 0.7647 0.13837 0.41725 0.0
C1574 C 0.77803 0.14919 0.42713 0.0
C1575 C 0.77817 0.16284 0.43466 0.0
C1576 C 0.76471 0.1652 0.43248 0.0
C1577 C 0.75137 0.15393 0.42292 0.0
C1578 C 0.79199 0.14608 0.42943 0.0
C1579 C 0.7645 0.17976 0.44 0.0
C1580 C 0.75297 0.14135 0.53989 0.0
C1581 C 0.76502 0.13776 0.53534 0.0
C1582 C 0.77885 0.14937 0.52744 0.0
C1583 C 0.78062 0.16482 0.52404 0.0
C1584 C 0.76883 0.16869 0.52931 0.0
C1585 C 0.75522 0.15692 0.53734 0.0
C1586 C 0.79144 0.14503 0.52243 0.0
C1587 C 0.77043 0.18511 0.52608 0.0
C1588 C 0.88527 0.27517 0.54441 0.0
C1589 C 0.87907 0.26214 0.55764 0.0
C1590 C 0.86243 0.23626 0.54229 0.0
C1591 C 0.86161 0.22169 0.53728 0.0
C1592 C 0.84826 0.20978 0.52822 0.0
C1593 C 0.83543 0.2126 0.52397 0.0
C1594 C 0.83611 0.2273 0.52901 0.0
C1595 C 0.84958 0.23899 0.53815 0.0
C1596 C 0.84788 0.1942 0.52312 0.0
C1597 C 0.82263 0.23069 0.52464 0.0
C1598 C 0.81978 0.19795 0.4444 0.0
C1599 C 0.80593 0.18618 0.436 0.0
C1600 C 0.79252 0.17482 0.44449 0.0
C1601 C 0.79292 0.17511 0.46192 0.0
C1602 C 0.77984 0.16362 0.47087 0.0
C1603 C 0.78025 0.16414 0.488 0.0
C1604 C 0.79383 0.17605 0.49686 0.0
C1605 C 0.79436 0.17664 0.51428 0.0
C1606 C 0.80804 0.18866 0.52271 0.0
C1607 C 0.82132 0.2002 0.51419 0.0
C1608 C 0.82104 0.19978 0.49677 0.0
C1609 C 0.8342 0.21117 0.48781 0.0
C1610 C 0.83384 0.2106 0.47066 0.0
C1611 C 0.82026 0.19868 0.46182 0.0
C1612 C 0.8068 0.18716 0.47059 0.0
C1613 C 0.80723 0.18766 0.48809 0.0
C1614 C 0.71377 0.10882 0.53708 0.0
C1615 C 0.73081 0.1136 0.54321 0.0
O1616 O 0.87209 0.23887 0.4045 0.0
O1617 O 0.87584 0.24726 0.55093 0.0
O1618 O 0.73911 0.13016 0.54683 0.0
O1619 O 0.73866 0.13079 0.4051 0.0
H1620 H 0.87271 0.26083 0.40354 0.0
H1621 H 0.85034 0.24109 0.38451 0.0
H1622 H 0.86459 0.23839 0.37257 0.0
H1623 H 0.86529 0.25787 0.37327 0.0
H1624 H 0.8484 0.24483 0.41397 0.0
H1625 H 0.86775 0.21246 0.41761 0.0
H1626 H 0.81035 0.21898 0.42736 0.0
H1627 H 0.82513 0.24035 0.42739 0.0
H1628 H 0.82119 0.22884 0.44602 0.0
H1629 H 0.85521 0.18833 0.43269 0.0
H1630 H 0.83353 0.17904 0.43248 0.0
H1631 H 0.84499 0.18989 0.45052 0.0
H1632 H 0.75257 0.13083 0.38596 0.0
H1633 H 0.73182 0.12558 0.36448 0.0
H1634 H 0.73688 0.14351 0.37678 0.0
H1635 H 0.71821 0.12502 0.38002 0.0
H1636 H 0.76455 0.12795 0.41139 0.0
H1637 H 0.74101 0.15561 0.42115 0.0
H1638 H 0.79538 0.14694 0.4427 0.0
H1639 H 0.80259 0.15552 0.42296 0.0
H1640 H 0.78919 0.13393 0.42449 0.0
H1641 H 0.75405 0.18088 0.43546 0.0
H1642 H 0.77577 0.1911 0.43719 0.0
H1643 H 0.76388 0.17867 0.45359 0.0
H1644 H 0.73653 0.11052 0.53298 0.0
H1645 H 0.76368 0.12595 0.53798 0.0
H1646 H 0.74598 0.15964 0.5412 0.0
H1647 H 0.79178 0.1446 0.50879 0.0
H1648 H 0.78899 0.13306 0.52719 0.0
H1649 H 0.80353 0.15453 0.52701 0.0
H1650 H 0.76009 0.18613 0.53076 0.0
H1651 H 0.7713 0.18734 0.51264 0.0
H1652 H 0.7817 0.19479 0.53207 0.0
H1653 H 0.86791 0.26112 0.56287 0.0
H1654 H 0.88806 0.28713 0.54986 0.0
H1655 H 0.87602 0.27198 0.53446 0.0
H1656 H 0.89631 0.2763 0.53883 0.0
H1657 H 0.87154 0.21967 0.54051 0.0
H1658 H 0.84996 0.25018 0.54186 0.0
H1659 H 0.84736 0.19308 0.50948 0.0
H1660 H 0.83686 0.18361 0.52777 0.0
H1661 H 0.8586 0.19365 0.52781 0.0
H1662 H 0.82511 0.24286 0.52914 0.0
H1663 H 0.81126 0.22128 0.53005 0.0
H1664 H 0.8207 0.22994 0.51107 0.0
H1665 H 0.8056 0.18582 0.42264 0.0
H1666 H 0.7691 0.15411 0.46474 0.0
H1667 H 0.76976 0.15504 0.4942 0.0
H1668 H 0.80835 0.18904 0.53607 0.0
H1669 H 0.84496 0.22065 0.49395 0.0
H1670 H 0.84432 0.21965 0.46443 0.0
H1671 H 0.70685 0.09558 0.53405 0.0
H1672 H 0.71439 0.1156 0.52577 0.0
H1673 H 0.70729 0.11176 0.54656 0.0
C1674 C 0.97047 0.42619 0.28533 0.0
C1675 C 0.977 0.42127 0.27051 0.0
C1676 C 0.98808 0.44594 0.25372 0.0
C1677 C 0.97318 0.44415 0.24837 0.0
C1678 C 0.97249 0.45602 0.2387 0.0
C1679 C 0.98694 0.46995 0.23426 0.0
C1680 C 0.00194 0.47171 0.23944 0.0
C1681 C 0.0023 0.45962 0.24907 0.0
C1682 C 0.95627 0.45378 0.23337 0.0
C1683 C 0.01757 0.48642 0.23491 0.0
C1684 C 0.96821 0.54198 0.29513 0.0
C1685 C 0.97985 0.55344 0.28239 0.0
C1686 C 0.97553 0.53937 0.25605 0.0
C1687 C 0.9912 0.54259 0.25272 0.0
C1688 C 0.99376 0.53226 0.24221 0.0
C1689 C 0.98036 0.51846 0.23491 0.0
C1690 C 0.96457 0.51554 0.23779 0.0
C1691 C 0.96239 0.52621 0.24817 0.0
C1692 C 0.01075 0.53595 0.23907 0.0
C1693 C 0.95001 0.50094 0.23021 0.0
C1694 C 0.97319 0.54166 0.13098 0.0
C1695 C 0.98896 0.5452 0.13504 0.0
C1696 C 0.99186 0.53345 0.14234 0.0
C1697 C 0.97873 0.51791 0.14564 0.0
C1698 C 0.96291 0.51409 0.14079 0.0
C1699 C 0.96039 0.52601 0.13333 0.0
C1700 C 0.00892 0.53773 0.14687 0.0
C1701 C 0.94865 0.49759 0.14395 0.0
C1702 C 0.97994 0.40887 0.1368 0.0
C1703 C 0.97834 0.41534 0.12004 0.0
C1704 C 0.98681 0.44383 0.12773 0.0
C1705 C 1.00018 0.45945 0.12877 0.0
C1706 C 0.99964 0.47209 0.13744 0.0
C1707 C 0.98519 0.46905 0.14495 0.0
C1708 C 0.97139 0.45341 0.14341 0.0
C1709 C 0.97238 0.44091 0.13499 0.0
C1710 C 0.0146 0.48859 0.13881 0.0
C1711 C 0.95561 0.44984 0.15085 0.0
C1712 C 0.98625 0.48284 0.22458 0.0
C1713 C 0.98455 0.49475 0.23317 0.0
C1714 C 0.98282 0.5067 0.22487 0.0
C1715 C 0.98287 0.50691 0.20748 0.0
C1716 C 0.98113 0.51873 0.19874 0.0
C1717 C 0.98068 0.51851 0.18162 0.0
C1718 C 0.9821 0.50654 0.17255 0.0
C1719 C 0.98136 0.50604 0.15513 0.0
C1720 C 0.98259 0.49385 0.14651 0.0
C1721 C 0.98462 0.48206 0.15483 0.0
C1722 C 0.98558 0.48248 0.17225 0.0
C1723 C 0.98782 0.47094 0.18102 0.0
C1724 C 0.98811 0.47106 0.19815 0.0
C1725 C 0.98638 0.48285 0.20718 0.0
C1726 C 0.98457 0.49487 0.1986 0.0
C1727 C 0.98417 0.49468 0.18112 0.0
C1728 C 0.96439 0.57071 0.14068 0.0
C1729 C 0.97662 0.56899 0.13015 0.0
O1730 O 0.98936 0.43496 0.26346 0.0
O1731 O 0.98845 0.43206 0.11967 0.0
O1732 O 0.96996 0.55299 0.12458 0.0
O1733 O 0.97275 0.54872 0.26682 0.0
H1734 H 0.9671 0.41454 0.26125 0.0
H1735 H 0.96525 0.43386 0.28142 0.0
H1736 H 0.98026 0.43321 0.29461 0.0
H1737 H 0.96083 0.41519 0.2912 0.0
H1738 H 0.96203 0.43363 0.25174 0.0
H1739 H 0.01373 0.4609 0.25319 0.0
H1740 H 0.95464 0.46364 0.23891 0.0
H1741 H 0.94616 0.44188 0.23709 0.0
H1742 H 0.9557 0.45469 0.21978 0.0
H1743 H 0.02825 0.48605 0.24002 0.0
H1744 H 0.01784 0.49764 0.23955 0.0
H1745 H 0.01841 0.48719 0.2213 0.0
H1746 H 0.99077 0.55209 0.28356 0.0
H1747 H 0.97305 0.54633 0.30783 0.0
H1748 H 0.96668 0.52962 0.29334 0.0
H1749 H 0.95614 0.54094 0.29366 0.0
H1750 H 0.00143 0.55318 0.25829 0.0
H1751 H 0.95036 0.52399 0.25066 0.0
H1752 H 0.01271 0.52628 0.24442 0.0
H1753 H 0.01989 0.54788 0.24452 0.0
H1754 H 0.01262 0.53599 0.22561 0.0
H1755 H 0.93853 0.50002 0.23424 0.0
H1756 H 0.95012 0.48963 0.23359 0.0
H1757 H 0.95042 0.5017 0.21659 0.0
H1758 H 0.98747 0.57253 0.13817 0.0
H1759 H 0.99899 0.55709 0.13248 0.0
H1760 H 0.9483 0.52333 0.12981 0.0
H1761 H 0.01041 0.53817 0.16048 0.0
H1762 H 0.01792 0.54969 0.142 0.0
H1763 H 0.01146 0.52821 0.14205 0.0
H1764 H 0.9371 0.49658 0.13953 0.0
H1765 H 0.9479 0.49519 0.15735 0.0
H1766 H 0.95025 0.48801 0.13768 0.0
H1767 H 0.96565 0.41237 0.11779 0.0
H1768 H 0.97195 0.39547 0.13715 0.0
H1769 H 0.97639 0.41445 0.14681 0.0
H1770 H 0.9926 0.41179 0.13921 0.0
H1771 H 0.01123 0.46163 0.12305 0.0
H1772 H 0.96184 0.42895 0.13418 0.0
H1773 H 0.01755 0.49241 0.15197 0.0
H1774 H 0.01235 0.49771 0.13258 0.0
H1775 H 0.02516 0.48868 0.13318 0.0
H1776 H 0.94548 0.43793 0.14649 0.0
H1777 H 0.9527 0.45955 0.14779 0.0
H1778 H 0.95666 0.44962 0.16446 0.0
H1779 H 0.98428 0.49454 0.24652 0.0
H1780 H 0.97995 0.52822 0.20506 0.0
H1781 H 0.97912 0.52783 0.17559 0.0
H1782 H 0.98177 0.49341 0.13315 0.0
H1783 H 0.98923 0.46158 0.17474 0.0
H1784 H 0.98966 0.46177 0.20423 0.0
H1785 H 0.95308 0.56712 0.13348 0.0
H1786 H 0.96947 0.58348 0.1452 0.0
H1787 H 0.96145 0.56273 0.15151 0.0
C1788 C 0.45194 0.39013 0.26257 0.0
C1789 C 0.45117 0.40428 0.27111 0.0
C1790 C 0.46405 0.42703 0.25187 0.0
C1791 C 0.46131 0.43733 0.24175 0.0
C1792 C 0.47395 0.45007 0.23344 0.0
C1793 C 0.48969 0.45223 0.23492 0.0
C1794 C 0.49255 0.44176 0.24505 0.0
C1795 C 0.47976 0.42942 0.25361 0.0
C1796 C 0.47042 0.46125 0.2232 0.0
C1797 C 0.50914 0.44362 0.24696 0.0
C1798 C 0.59062 0.56356 0.28815 0.0
C1799 C 0.57957 0.54693 0.28134 0.0
C1800 C 0.55918 0.5335 0.25937 0.0
C1801 C 0.56044 0.5193 0.25858 0.0
C1802 C 0.55002 0.50612 0.24829 0.0
C1803 C 0.53778 0.50693 0.23896 0.0
C1804 C 0.53627 0.52108 0.24001 0.0
C1805 C 0.5472 0.53429 0.24998 0.0
C1806 C 0.55213 0.49132 0.24738 0.0
C1807 C 0.52311 0.52225 0.23061 0.0
C1808 C 0.56812 0.53382 0.13274 0.0
C1809 C 0.57116 0.52118 0.13699 0.0
C1810 C 0.55988 0.50774 0.14573 0.0
C1811 C 0.54519 0.50684 0.15014 0.0
C1812 C 0.54213 0.51958 0.14595 0.0
C1813 C 0.55372 0.53297 0.1374 0.0
C1814 C 0.56362 0.49448 0.1502 0.0
C1815 C 0.52657 0.51898 0.15041 0.0
C1816 C 0.45601 0.38087 0.12199 0.0
C1817 C 0.45614 0.39706 0.12058 0.0
C1818 C 0.48072 0.42257 0.12662 0.0
C1819 C 0.49675 0.42702 0.13009 0.0
C1820 C 0.50651 0.44057 0.14026 0.0
C1821 C 0.5002 0.45025 0.14654 0.0
C1822 C 0.48414 0.44619 0.14239 0.0
C1823 C 0.47447 0.4322 0.13266 0.0
C1824 C 0.52357 0.44447 0.14425 0.0
C1825 C 0.47718 0.45661 0.14816 0.0
C1826 C 0.50322 0.46573 0.22626 0.0
C1827 C 0.51387 0.47958 0.23553 0.0
C1828 C 0.52659 0.49295 0.22818 0.0
C1829 C 0.52856 0.49277 0.21097 0.0
C1830 C 0.54106 0.50611 0.20311 0.0
C1831 C 0.54253 0.50606 0.1861 0.0
C1832 C 0.53175 0.49254 0.17633 0.0
C1833 C 0.53296 0.49249 0.15902 0.0
C1834 C 0.52235 0.47867 0.14972 0.0
C1835 C 0.51053 0.46471 0.15722 0.0
C1836 C 0.50895 0.46463 0.17453 0.0
C1837 C 0.49724 0.45083 0.18257 0.0
C1838 C 0.49539 0.45111 0.19951 0.0
C1839 C 0.50533 0.46512 0.20911 0.0
C1840 C 0.51779 0.47885 0.2014 0.0
C1841 C 0.51949 0.47867 0.18407 0.0
C1842 C 0.59881 0.5619 0.10413 0.0
C1843 C 0.59215 0.54854 0.11624 0.0
O1844 O 0.45117 0.415 0.25956 0.0
O1845 O 0.47166 0.40907 0.11716 0.0
O1846 O 0.57863 0.5469 0.12405 0.0
O1847 O 0.56929 0.54665 0.2689 0.0
H1848 H 0.46175 0.41077 0.27969 0.0
H1849 H 0.46325 0.3946 0.25573 0.0
H1850 H 0.44167 0.3836 0.25368 0.0
H1851 H 0.45158 0.38141 0.27186 0.0
H1852 H 0.44918 0.43545 0.24051 0.0
H1853 H 0.4822 0.42171 0.2615 0.0
H1854 H 0.4795 0.47416 0.2259 0.0
H1855 H 0.45823 0.45954 0.22542 0.0
H1856 H 0.47111 0.45878 0.20995 0.0
H1857 H 0.5088 0.43278 0.25257 0.0
H1858 H 0.5167 0.45435 0.25505 0.0
H1859 H 0.51501 0.44571 0.23486 0.0
H1860 H 0.5732 0.53739 0.29067 0.0
H1861 H 0.61354 0.56768 0.28192 0.0
H1862 H 0.58692 0.56326 0.30128 0.0
H1863 H 0.58567 0.57159 0.28388 0.0
H1864 H 0.56963 0.51847 0.2658 0.0
H1865 H 0.5463 0.54527 0.25069 0.0
H1866 H 0.54183 0.481 0.25332 0.0
H1867 H 0.56345 0.49341 0.25367 0.0
H1868 H 0.55221 0.48773 0.23434 0.0
H1869 H 0.52223 0.53309 0.23448 0.0
H1870 H 0.5113 0.51117 0.23241 0.0
H1871 H 0.52557 0.52308 0.21726 0.0
H1872 H 0.60121 0.54833 0.12494 0.0
H1873 H 0.58232 0.52172 0.13357 0.0
H1874 H 0.55148 0.54278 0.13409 0.0
H1875 H 0.56191 0.49201 0.16356 0.0
H1876 H 0.57613 0.49765 0.14716 0.0
H1877 H 0.55515 0.48309 0.14341 0.0
H1878 H 0.52567 0.52945 0.1455 0.0
H1879 H 0.52566 0.51904 0.16401 0.0
H1880 H 0.51617 0.50752 0.14555 0.0
H1881 H 0.45238 0.3996 0.13266 0.0
H1882 H 0.44385 0.371 0.12527 0.0
H1883 H 0.46472 0.38187 0.13181 0.0
H1884 H 0.45947 0.37756 0.11018 0.0
H1885 H 0.50147 0.41957 0.12513 0.0
H1886 H 0.46215 0.42893 0.12952 0.0
H1887 H 0.52643 0.44734 0.15759 0.0
H1888 H 0.53201 0.45534 0.13733 0.0
H1889 H 0.52569 0.43428 0.14082 0.0
H1890 H 0.46564 0.45339 0.14163 0.0
H1891 H 0.48583 0.46968 0.14625 0.0
H1892 H 0.47491 0.45494 0.16154 0.0
H1893 H 0.51224 0.47995 0.24868 0.0
H1894 H 0.54974 0.51685 0.20998 0.0
H1895 H 0.55225 0.51676 0.18071 0.0
H1896 H 0.5234 0.47872 0.13643 0.0
H1897 H 0.48923 0.4397 0.17582 0.0
H1898 H 0.48605 0.4402 0.20499 0.0
H1899 H 0.61115 0.57088 0.10921 0.0
H1900 H 0.59343 0.5699 0.10691 0.0
H1901 H 0.59521 0.54968 0.08153 0.0
C1902 C 0.45316 0.02567 0.28894 0.0
C1903 C 0.44046 0.02124 0.27504 0.0
C1904 C 0.45255 0.01125 0.25466 0.0
C1905 C 0.46508 0.02649 0.24997 0.0
C1906 C 0.47784 0.02768 0.24063 0.0
C1907 C 0.47812 0.01337 0.2359 0.0
C1908 C 0.46527 0.998 0.24015 0.0
C1909 C 0.45256 0.99715 0.24934 0.0
C1910 C 0.49122 0.04427 0.23607 0.0
C1911 C 0.46518 0.9825 0.23534 0.0
C1912 C 0.56853 0.03498 0.30366 0.0
C1913 C 0.56704 0.0225 0.29061 0.0
C1914 C 0.558 0.02664 0.26388 0.0
C1915 C 0.54583 0.01079 0.2597 0.0
C1916 C 0.53341 0.00813 0.24843 0.0
C1917 C 0.53319 0.0216 0.24123 0.0
C1918 C 0.54572 0.03757 0.24509 0.0
C1919 C 0.55812 0.03986 0.25622 0.0
C1920 C 0.52044 0.99093 0.24431 0.0
C1921 C 0.54585 0.05222 0.23768 0.0
C1922 C 0.56737 0.02578 0.13877 0.0
C1923 C 0.55515 0.00987 0.14192 0.0
C1924 C 0.54057 0.00702 0.14872 0.0
C1925 C 0.53812 0.02031 0.15224 0.0
C1926 C 0.55011 0.03626 0.14834 0.0
C1927 C 0.56455 0.03876 0.14152 0.0
C1928 C 0.52786 0.98982 0.15235 0.0
C1929 C 0.54777 0.05068 0.1517 0.0
C1930 C 0.4174 0.98327 0.13149 0.0
C1931 C 0.42831 0.99883 0.1222 0.0
C1932 C 0.45477 0.00178 0.1265 0.0
C1933 C 0.45906 0.98985 0.12929 0.0
C1934 C 0.4723 0.99307 0.13957 0.0
C1935 C 0.48177 0.00882 0.14671 0.0
C1936 C 0.47786 0.02116 0.14327 0.0
C1937 C 0.46423 0.01742 0.13334 0.0
C1938 C 0.47608 0.97961 0.14289 0.0
C1939 C 0.48803 0.03825 0.15009 0.0
C1940 C 0.49231 0.0146 0.22736 0.0
C1941 C 0.50559 0.01712 0.2371 0.0
C1942 C 0.51963 0.01899 0.23002 0.0
C1943 C 0.52058 0.01846 0.2127 0.0
C1944 C 0.53458 0.02048 0.20517 0.0
C1945 C 0.53552 0.02026 0.18811 0.0
C1946 C 0.52241 0.0178 0.17791 0.0
C1947 C 0.52329 0.01762 0.16055 0.0
C1948 C 0.50995 0.01488 0.15078 0.0
C1949 C 0.49564 0.01227 0.15786 0.0
C1950 C 0.4946 0.01262 0.17521 0.0
C1951 C 0.48044 0.01015 0.18279 0.0
C1952 C 0.47969 0.01092 0.19985 0.0
C1953 C 0.49292 0.01377 0.21002 0.0
C1954 C 0.50718 0.01586 0.20267 0.0
C1955 C 0.50807 0.01543 0.18525 0.0
C1956 C 0.6031 0.03211 0.15106 0.0
C1957 C 0.59065 0.02161 0.13767 0.0
O1958 O 0.44042 0.00958 0.26447 0.0
O1959 O 0.44163 0.99803 0.11689 0.0
O1960 O 0.58186 0.02903 0.13284 0.0
O1961 O 0.56974 0.02949 0.27523 0.0
H1962 H 0.44314 0.03231 0.26802 0.0
H1963 H 0.46543 0.0311 0.28391 0.0
H1964 H 0.45077 0.01464 0.29587 0.0
H1965 H 0.45299 0.03475 0.2976 0.0
H1966 H 0.46508 0.03751 0.25368 0.0
H1967 H 0.44278 0.98544 0.25287 0.0
H1968 H 0.50259 0.04669 0.24246 0.0
H1969 H 0.48861 0.05413 0.23946 0.0
H1970 H 0.49322 0.04462 0.22261 0.0
H1971 H 0.45434 0.97149 0.23967 0.0
H1972 H 0.47609 0.98268 0.24059 0.0
H1973 H 0.46559 0.98162 0.22174 0.0
H1974 H 0.55455 0.01206 0.29128 0.0
H1975 H 0.56656 0.02965 0.31611 0.0
H1976 H 0.55928 0.03863 0.30118 0.0
H1977 H 0.58061 0.04605 0.30349 0.0
H1978 H 0.54609 0.00052 0.2652 0.0
H1979 H 0.56771 0.05203 0.25939 0.0
H1980 H 0.50869 0.98902 0.24868 0.0
H1981 H 0.52294 0.98175 0.25003 0.0
H1982 H 0.51928 0.98889 0.23075 0.0
H1983 H 0.55607 0.06385 0.24251 0.0
H1984 H 0.53439 0.05205 0.24031 0.0
H1985 H 0.54672 0.05175 0.2241 0.0
H1986 H 0.5829 0.00972 0.14348 0.0
H1987 H 0.55684 0.99964 0.13897 0.0
H1988 H 0.57392 0.05096 0.13872 0.0
H1989 H 0.52557 0.98868 0.16575 0.0
H1990 H 0.53142 0.98074 0.1485 0.0
H1991 H 0.51638 0.98691 0.14588 0.0
H1992 H 0.55806 0.06226 0.14756 0.0
H1993 H 0.54631 0.05175 0.1651 0.0
H1994 H 0.53658 0.04883 0.14533 0.0
H1995 H 0.43214 0.00947 0.13071 0.0
H1996 H 0.40686 0.98371 0.13647 0.0
H1997 H 0.42419 0.98194 0.14205 0.0
H1998 H 0.41305 0.97241 0.12321 0.0
H1999 H 0.45171 0.97786 0.12373 0.0
H2000 H 0.46105 0.02672 0.13073 0.0
H2001 H 0.47754 0.97858 0.15635 0.0
H2002 H 0.48763 0.98252 0.13713 0.0
H2003 H 0.46654 0.96765 0.1379 0.0
H2004 H 0.48477 0.0469 0.14436 0.0
H2005 H 0.501 0.04258 0.14809 0.0
H2006 H 0.48637 0.03837 0.16356 0.0
H2007 H 0.50503 0.01772 0.2504 0.0
H2008 H 0.54503 0.02237 0.21239 0.0
H2009 H 0.54666 0.02202 0.18302 0.0
H2010 H 0.5107 0.01467 0.13747 0.0
H2011 H 0.4698 0.00775 0.17561 0.0
H2012 H 0.46856 0.00916 0.20498 0.0
H2013 H 0.61135 0.02727 0.15391 0.0
H2014 H 0.5968 0.03193 0.16249 0.0
H2015 H 0.61021 0.04497 0.14726 0.0
C2016 C 0.54706 0.98876 0.72334 0.0
C2017 C 0.56118 0.99944 0.73513 0.0
C2018 C 0.54853 0.99369 0.76163 0.0
C2019 C 0.55032 0.0088 0.76642 0.0
C2020 C 0.53927 0.00973 0.77691 0.0
C2021 C 0.52615 0.99524 0.78266 0.0
C2022 C 0.52471 0.98001 0.77837 0.0
C2023 C 0.5361 0.97947 0.76806 0.0
C2024 C 0.54139 0.02618 0.78157 0.0
C2025 C 0.51086 0.9643 0.78422 0.0
C2026 C 0.41428 0.9911 0.739 0.0
C2027 C 0.42518 0.98586 0.74678 0.0
C2028 C 0.45166 0.99803 0.76072 0.0
C2029 C 0.44991 0.98327 0.76647 0.0
C2030 C 0.46192 0.98305 0.77649 0.0
C2031 C 0.47588 0.99787 0.78097 0.0
C2032 C 0.47765 0.01274 0.77526 0.0
C2033 C 0.46551 0.0126 0.76514 0.0
C2034 C 0.45975 0.96695 0.78223 0.0
C2035 C 0.49235 0.02874 0.77989 0.0
C2036 C 0.44682 0.99411 0.88654 0.0
C2037 C 0.4441 0.98015 0.87757 0.0
C2038 C 0.45676 0.97961 0.86957 0.0
C2039 C 0.47234 0.99349 0.87007 0.0
C2040 C 0.47514 0.00748 0.87926 0.0
C2041 C 0.46237 0.00749 0.88757 0.0
C2042 C 0.4534 0.96419 0.86049 0.0
C2043 C 0.49157 0.0225 0.88016 0.0
C2044 C 0.57831 0.98378 0.88003 0.0
C2045 C 0.57305 0.99078 0.89418 0.0
C2046 C 0.54523 0.98417 0.88842 0.0
C2047 C 0.53101 0.97076 0.8825 0.0
C2048 C 0.51921 0.97279 0.87402 0.0
C2049 C 0.52167 0.98866 0.87164 0.0
C2050 C 0.53568 0.00225 0.87831 0.0
C2051 C 0.54729 0.99987 0.88674 0.0
C2052 C 0.50428 0.95802 0.86727 0.0
C2053 C 0.53847 0.01931 0.87633 0.0
C2054 C 0.51338 0.99597 0.79219 0.0
C2055 C 0.50132 0.99712 0.78333 0.0
C2056 C 0.48877 0.9977 0.79131 0.0
C2057 C 0.48823 0.99729 0.80869 0.0
C2058 C 0.47601 0.99828 0.81714 0.0
C2059 C 0.47532 0.99738 0.83422 0.0
C2060 C 0.48666 0.99516 0.84349 0.0
C2061 C 0.48562 0.99346 0.86079 0.0
C2062 C 0.4972 0.99139 0.86959 0.0
C2063 C 0.5099 0.99108 0.8616 0.0
C2064 C 0.51113 0.99275 0.84433 0.0
C2065 C 0.5238 0.99256 0.83591 0.0
C2066 C 0.52471 0.99385 0.81887 0.0
C2067 C 0.5129 0.99522 0.80956 0.0
C2068 C 0.5002 0.99578 0.81782 0.0
C2069 C 0.49936 0.99462 0.83523 0.0
C2070 C 0.41388 0.99053 0.87494 0.0
C2071 C 0.41842 0.98597 0.89147 0.0
O2072 O 0.55841 0.99253 0.75056 0.0
O2073 O 0.55652 0.98149 0.89592 0.0
O2074 O 0.43493 0.99525 0.89442 0.0
O2075 O 0.44032 0.99875 0.75095 0.0
H2076 H 0.5621 0.01163 0.7359 0.0
H2077 H 0.5358 0.988 0.72786 0.0
H2078 H 0.54533 0.97625 0.72245 0.0
H2079 H 0.54928 0.99407 0.71087 0.0
H2080 H 0.56031 0.01986 0.7619 0.0
H2081 H 0.53497 0.96788 0.76442 0.0
H2082 H 0.53154 0.02757 0.77574 0.0
H2083 H 0.5531 0.03631 0.77757 0.0
H2084 H 0.54059 0.02717 0.79511 0.0
H2085 H 0.51118 0.95345 0.77934 0.0
H2086 H 0.49925 0.96346 0.78034 0.0
H2087 H 0.51119 0.96411 0.79788 0.0
H2088 H 0.42563 0.97568 0.74025 0.0
H2089 H 0.39617 0.98474 0.7561 0.0
H2090 H 0.41179 0.98571 0.72615 0.0
H2091 H 0.42214 0.00399 0.73493 0.0
H2092 H 0.43926 0.97189 0.76312 0.0
H2093 H 0.46675 0.02393 0.76068 0.0
H2094 H 0.45964 0.96671 0.79589 0.0
H2095 H 0.47004 0.96549 0.77828 0.0
H2096 H 0.44839 0.95646 0.77732 0.0
H2097 H 0.4916 0.03931 0.77504 0.0
H2098 H 0.50325 0.02898 0.77499 0.0
H2099 H 0.49387 0.03004 0.79351 0.0
H2100 H 0.41473 0.97283 0.89124 0.0
H2101 H 0.43222 0.96958 0.87682 0.0
H2102 H 0.4644 0.01815 0.89463 0.0
H2103 H 0.45306 0.96596 0.84703 0.0
H2104 H 0.44167 0.95366 0.86385 0.0
H2105 H 0.4631 0.96121 0.86312 0.0
H2106 H 0.49134 0.03295 0.88628 0.0
H2107 H 0.49634 0.02608 0.8676 0.0
H2108 H 0.50004 0.01983 0.8872 0.0
H2109 H 0.57661 0.00347 0.89087 0.0
H2110 H 0.59161 0.99074 0.8789 0.0
H2111 H 0.57272 0.98468 0.86826 0.0
H2112 H 0.57449 0.97076 0.88199 0.0
H2113 H 0.52938 0.95868 0.88417 0.0
H2114 H 0.55783 0.01028 0.89209 0.0
H2115 H 0.50388 0.95853 0.85362 0.0
H2116 H 0.49337 0.95798 0.87186 0.0
H2117 H 0.50384 0.94647 0.87075 0.0
H2118 H 0.54985 0.02859 0.88251 0.0
H2119 H 0.52826 0.02023 0.88153 0.0
H2120 H 0.53893 0.02209 0.86303 0.0
H2121 H 0.5016 0.99738 0.76998 0.0
H2122 H 0.46682 0.99974 0.81064 0.0
H2123 H 0.46566 0.99826 0.84004 0.0
H2124 H 0.49628 0.98995 0.88283 0.0
H2125 H 0.53314 0.99134 0.8424 0.0
H2126 H 0.5347 0.99358 0.81305 0.0
H2127 H 0.41758 0.00368 0.87495 0.0
H2128 H 0.40067 0.98327 0.87254 0.0
H2129 H 0.41996 0.98799 0.86474 0.0
C2130 C 0.03662 0.58065 0.72703 0.0
C2131 C 0.02221 0.57559 0.73816 0.0
C2132 C 0.02274 0.56339 0.76418 0.0
C2133 C 0.00661 0.55106 0.765 0.0
C2134 C 0.00232 0.53729 0.77458 0.0
C2135 C 0.01444 0.53582 0.7834 0.0
C2136 C 0.03068 0.54845 0.78288 0.0
C2137 C 0.03455 0.56224 0.77348 0.0
C2138 C 0.98486 0.52423 0.77515 0.0
C2139 C 0.04398 0.54723 0.79192 0.0
C2140 C 0.01356 0.42436 0.74123 0.0
C2141 C 0.018 0.43925 0.75136 0.0
C2142 C 0.00631 0.45551 0.76151 0.0
C2143 C 0.0197 0.46592 0.77158 0.0
C2144 C 0.01956 0.47817 0.78135 0.0
C2145 C 0.00561 0.47983 0.78137 0.0
C2146 C 0.99204 0.46926 0.77141 0.0
C2147 C 0.99263 0.4573 0.76151 0.0
C2148 C 0.0344 0.48941 0.79156 0.0
C2149 C 0.97694 0.47061 0.77122 0.0
C2150 C 0.9962 0.44875 0.88762 0.0
C2151 C 0.01103 0.45981 0.88099 0.0
C2152 C 0.01276 0.47336 0.87235 0.0
C2153 C 0.9993 0.47571 0.87015 0.0
C2154 C 0.98441 0.4647 0.87709 0.0
C2155 C 0.98313 0.45146 0.88596 0.0
C2156 C 0.02902 0.48522 0.86573 0.0
C2157 C 0.96984 0.46687 0.87508 0.0
C2158 C 0.03423 0.59901 0.88819 0.0
C2159 C 0.01862 0.58634 0.89598 0.0
C2160 C 0.01667 0.55997 0.89177 0.0
C2161 C 0.02835 0.55538 0.88962 0.0
C2162 C 0.02509 0.54174 0.87984 0.0
C2163 C 0.00955 0.5322 0.87252 0.0
C2164 C 0.99745 0.53643 0.87528 0.0
C2165 C 0.0012 0.5504 0.88477 0.0
C2166 C 0.03829 0.5376 0.87726 0.0
C2167 C 0.98059 0.52617 0.86823 0.0
C2168 C 0.01026 0.52077 0.79258 0.0
C2169 C 0.00873 0.50734 0.78366 0.0
C2170 C 0.00547 0.49296 0.79148 0.0
C2171 C 0.00342 0.49178 0.80871 0.0
C2172 C 0.99977 0.47738 0.81694 0.0
C2173 C 0.99864 0.47663 0.834 0.0
C2174 C 0.00117 0.49025 0.84348 0.0
C2175 C 0.00094 0.4899 0.86088 0.0
C2176 C 0.00323 0.50357 0.8699 0.0
C2177 C 0.00604 0.51781 0.86205 0.0
C2178 C 0.00653 0.51848 0.84467 0.0
C2179 C 0.00958 0.53268 0.83636 0.0
C2180 C 0.01042 0.53333 0.81928 0.0
C2181 C 0.0086 0.51995 0.80986 0.0
C2182 C 0.00527 0.50542 0.81795 0.0
C2183 C 0.00417 0.50467 0.83537 0.0
C2184 C 0.98526 0.41122 0.88088 0.0
C2185 C 0.99909 0.42472 0.89122 0.0
O2186 O 0.02723 0.57644 0.75444 0.0
O2187 O 0.02047 0.57339 0.90109 0.0
O2188 O 0.99429 0.43572 0.89623 0.0
O2189 O 0.00615 0.4437 0.75164 0.0
H2190 H 0.01324 0.56283 0.73447 0.0
H2191 H 0.04148 0.57221 0.72858 0.0
H2192 H 0.04636 0.5932 0.73021 0.0
H2193 H 0.03286 0.58013 0.71391 0.0
H2194 H 0.9974 0.55224 0.75816 0.0
H2195 H 0.04694 0.57194 0.77287 0.0
H2196 H 0.98326 0.513 0.76893 0.0
H2197 H 0.97672 0.52795 0.76901 0.0
H2198 H 0.98124 0.52122 0.78813 0.0
H2199 H 0.0561 0.55744 0.78909 0.0
H2200 H 0.04352 0.53558 0.78864 0.0
H2201 H 0.04229 0.54733 0.80539 0.0
H2202 H 0.03024 0.44967 0.74908 0.0
H2203 H 0.02242 0.42857 0.73096 0.0
H2204 H 0.00301 0.42227 0.73307 0.0
H2205 H 0.01224 0.4075 0.75858 0.0
H2206 H 0.03038 0.46469 0.77179 0.0
H2207 H 0.98234 0.44922 0.75376 0.0
H2208 H 0.03181 0.48703 0.80483 0.0
H2209 H 0.03778 0.5023 0.78946 0.0
H2210 H 0.04485 0.48776 0.78871 0.0
H2211 H 0.9669 0.46049 0.76409 0.0
H2212 H 0.97949 0.48229 0.76563 0.0
H2213 H 0.97303 0.47067 0.784 0.0
H2214 H 0.00989 0.43066 0.88344 0.0
H2215 H 0.02135 0.4581 0.88288 0.0
H2216 H 0.97181 0.44296 0.8914 0.0
H2217 H 0.02848 0.48442 0.85207 0.0
H2218 H 0.03866 0.48275 0.8702 0.0
H2219 H 0.03234 0.49787 0.86936 0.0
H2220 H 0.95879 0.45644 0.87991 0.0
H2221 H 0.96772 0.46831 0.86187 0.0
H2222 H 0.97206 0.47812 0.88175 0.0
H2223 H 0.0087 0.58221 0.88654 0.0
H2224 H 0.03299 0.60941 0.88366 0.0
H2225 H 0.03702 0.59344 0.87754 0.0
H2226 H 0.04444 0.60361 0.89728 0.0
H2227 H 0.04017 0.56276 0.89533 0.0
H2228 H 0.99202 0.55372 0.88697 0.0
H2229 H 0.03946 0.53583 0.86392 0.0
H2230 H 0.03515 0.52601 0.88341 0.0
H2231 H 0.05013 0.54721 0.88231 0.0
H2232 H 0.97217 0.53013 0.87292 0.0
H2233 H 0.97592 0.5132 0.87128 0.0
H2234 H 0.98078 0.527 0.85461 0.0
H2235 H 0.01048 0.50822 0.77046 0.0
H2236 H 0.99789 0.46658 0.81029 0.0
H2237 H 0.99594 0.46527 0.83969 0.0
H2238 H 0.00322 0.50327 0.88325 0.0
H2239 H 0.01141 0.54348 0.84297 0.0
H2240 H 0.01277 0.54457 0.81356 0.0
H2241 H 0.98888 0.40272 0.87545 0.0
H2242 H 0.98186 0.41664 0.87056 0.0
H2243 H 0.97453 0.40427 0.88855 0.0
C2244 C 0.52988 0.58116 0.725 0.0
C2245 C 0.5421 0.58727 0.7395 0.0
C2246 C 0.52766 0.56558 0.7595 0.0
C2247 C 0.516 0.56994 0.76358 0.0
C2248 C 0.50314 0.56006 0.7737 0.0
C2249 C 0.50193 0.54557 0.77991 0.0
C2250 C 0.51384 0.54136 0.77617 0.0
C2251 C 0.52659 0.55148 0.76607 0.0
C2252 C 0.49071 0.56496 0.77762 0.0
C2253 C 0.51294 0.52601 0.78261 0.0
C2254 C 0.40055 0.46966 0.72004 0.0
C2255 C 0.40916 0.46434 0.73247 0.0
C2256 C 0.41997 0.47863 0.75862 0.0
C2257 C 0.43305 0.47595 0.76098 0.0
C2258 C 0.44612 0.48628 0.77139 0.0
C2259 C 0.44619 0.49971 0.77936 0.0
C2260 C 0.43285 0.50227 0.77715 0.0
C2261 C 0.41973 0.49143 0.76707 0.0
C2262 C 0.45994 0.48295 0.77371 0.0
C2263 C 0.43258 0.51664 0.78508 0.0
C2264 C 0.41991 0.47691 0.88417 0.0
C2265 C 0.43277 0.47419 0.88072 0.0
C2266 C 0.44654 0.48608 0.87299 0.0
C2267 C 0.44753 0.50104 0.8688 0.0
C2268 C 0.43497 0.50414 0.87307 0.0
C2269 C 0.42135 0.49203 0.88084 0.0
C2270 C 0.45992 0.48257 0.86899 0.0
C2271 C 0.43576 0.52006 0.86901 0.0
C2272 C 0.55335 0.61129 0.88699 0.0
C2273 C 0.54736 0.59913 0.90106 0.0
C2274 C 0.52978 0.57264 0.88709 0.0
C2275 C 0.52849 0.55771 0.8827 0.0
C2276 C 0.51494 0.54574 0.87394 0.0
C2277 C 0.50238 0.54887 0.86935 0.0
C2278 C 0.50347 0.56388 0.87389 0.0
C2279 C 0.51713 0.57561 0.88275 0.0
C2280 C 0.51411 0.52982 0.86941 0.0
C2281 C 0.49026 0.56757 0.86918 0.0
C2282 C 0.48782 0.53442 0.7897 0.0
C2283 C 0.47404 0.52277 0.78112 0.0
C2284 C 0.46047 0.51145 0.78943 0.0
C2285 C 0.46064 0.51164 0.80685 0.0
C2286 C 0.44743 0.50011 0.81563 0.0
C2287 C 0.4476 0.50057 0.83276 0.0
C2288 C 0.46104 0.51251 0.84179 0.0
C2289 C 0.4613 0.51308 0.85921 0.0
C2290 C 0.47486 0.52509 0.8678 0.0
C2291 C 0.4883 0.5366 0.85945 0.0
C2292 C 0.48828 0.53619 0.84203 0.0
C2293 C 0.50163 0.54752 0.83324 0.0
C2294 C 0.50154 0.54695 0.81611 0.0
C2295 C 0.48805 0.53511 0.8071 0.0
C2296 C 0.47442 0.52363 0.8157 0.0
C2297 C 0.47457 0.52412 0.83319 0.0
C2298 C 0.38297 0.44415 0.87668 0.0
C2299 C 0.39839 0.4488 0.88681 0.0
O2300 O 0.53997 0.57437 0.7492 0.0
O2301 O 0.54345 0.58373 0.89528 0.0
O2302 O 0.40604 0.46528 0.89077 0.0
O2303 O 0.40751 0.46916 0.74815 0.0
H2304 H 0.54051 0.59622 0.74707 0.0
H2305 H 0.51738 0.5755 0.72946 0.0
H2306 H 0.53107 0.57195 0.71747 0.0
H2307 H 0.53185 0.59146 0.71706 0.0
H2308 H 0.51672 0.58092 0.75884 0.0
H2309 H 0.53567 0.54825 0.76297 0.0
H2310 H 0.47879 0.5557 0.77242 0.0
H2311 H 0.49377 0.577 0.77256 0.0
H2312 H 0.48956 0.56541 0.79116 0.0
H2313 H 0.52321 0.5245 0.77865 0.0
H2314 H 0.50153 0.51528 0.77819 0.0
H2315 H 0.51283 0.52621 0.79627 0.0
H2316 H 0.4221 0.4706 0.72909 0.0
H2317 H 0.40178 0.46601 0.70734 0.0
H2318 H 0.406 0.48312 0.72061 0.0
H2319 H 0.38754 0.46413 0.72278 0.0
H2320 H 0.433 0.46576 0.75471 0.0
H2321 H 0.40948 0.49329 0.76521 0.0
H2322 H 0.46326 0.48366 0.78699 0.0
H2323 H 0.47063 0.49235 0.76732 0.0
H2324 H 0.45702 0.4708 0.76868 0.0
H2325 H 0.42235 0.51806 0.78039 0.0
H2326 H 0.44401 0.52802 0.78282 0.0
H2327 H 0.4315 0.51503 0.79859 0.0
H2328 H 0.40584 0.4458 0.87864 0.0
H2329 H 0.4321 0.46281 0.88406 0.0
H2330 H 0.4115 0.49414 0.88386 0.0
H2331 H 0.4612 0.48252 0.85544 0.0
H2332 H 0.45767 0.47066 0.87374 0.0
H2333 H 0.47152 0.49231 0.87434 0.0
H2334 H 0.42523 0.52078 0.87359 0.0
H2335 H 0.43626 0.52158 0.85546 0.0
H2336 H 0.44694 0.53032 0.87451 0.0
H2337 H 0.53657 0.59881 0.90645 0.0
H2338 H 0.55681 0.62368 0.89174 0.0
H2339 H 0.54375 0.60785 0.87739 0.0
H2340 H 0.56394 0.61161 0.88115 0.0
H2341 H 0.53825 0.55549 0.88613 0.0
H2342 H 0.51784 0.58706 0.88606 0.0
H2343 H 0.51351 0.52829 0.85581 0.0
H2344 H 0.50296 0.51956 0.87429 0.0
H2345 H 0.52467 0.52908 0.8743 0.0
H2346 H 0.49281 0.57975 0.87373 0.0
H2347 H 0.47867 0.5582 0.87425 0.0
H2348 H 0.48872 0.56704 0.85556 0.0
H2349 H 0.47389 0.52248 0.76776 0.0
H2350 H 0.43679 0.49061 0.80936 0.0
H2351 H 0.43704 0.49142 0.83883 0.0
H2352 H 0.47499 0.52543 0.88116 0.0
H2353 H 0.51234 0.55694 0.83951 0.0
H2354 H 0.51215 0.55596 0.81 0.0
H2355 H 0.37534 0.44833 0.88287 0.0
H2356 H 0.37593 0.43076 0.87458 0.0
H2357 H 0.38618 0.45004 0.86451 0.0
C2358 C 0.60728 0.7396 0.62277 0.0
C2359 C 0.61679 0.73839 0.60832 0.0
C2360 C 0.62545 0.76425 0.59391 0.0
C2361 C 0.61016 0.76064 0.58771 0.0
C2362 C 0.60819 0.7721 0.57853 0.0
C2363 C 0.62178 0.78733 0.57526 0.0
C2364 C 0.63719 0.79088 0.58126 0.0
C2365 C 0.63879 0.7793 0.59056 0.0
C2366 C 0.59158 0.76795 0.57231 0.0
C2367 C 0.65198 0.80691 0.57784 0.0
C2368 C 0.60449 0.87019 0.63366 0.0
C2369 C 0.61741 0.87509 0.62068 0.0
C2370 C 0.61193 0.85891 0.59549 0.0
C2371 C 0.62717 0.86057 0.59302 0.0
C2372 C 0.62889 0.84927 0.58314 0.0
C2373 C 0.61504 0.83595 0.57578 0.0
C2374 C 0.59968 0.83441 0.5781 0.0
C2375 C 0.59839 0.84612 0.5877 0.0
C2376 C 0.64549 0.85152 0.58066 0.0
C2377 C 0.58462 0.82029 0.57063 0.0
C2378 C 0.611 0.86061 0.47142 0.0
C2379 C 0.62644 0.8633 0.4758 0.0
C2380 C 0.62843 0.85108 0.48333 0.0
C2381 C 0.61473 0.8359 0.48648 0.0
C2382 C 0.59926 0.83289 0.48129 0.0
C2383 C 0.59763 0.84529 0.47369 0.0
C2384 C 0.64514 0.85449 0.48828 0.0
C2385 C 0.58442 0.81675 0.48424 0.0
C2386 C 0.61952 0.72879 0.47369 0.0
C2387 C 0.62033 0.73742 0.45755 0.0
C2388 C 0.62689 0.76469 0.46808 0.0
C2389 C 0.63969 0.78038 0.47113 0.0
C2390 C 0.63758 0.79191 0.48009 0.0
C2391 C 0.62215 0.78768 0.48589 0.0
C2392 C 0.60899 0.77194 0.48246 0.0
C2393 C 0.61151 0.76054 0.47369 0.0
C2394 C 0.6519 0.80857 0.4835 0.0
C2395 C 0.5923 0.76715 0.48818 0.0
C2396 C 0.61991 0.79958 0.56556 0.0
C2397 C 0.61817 0.8115 0.57413 0.0
C2398 C 0.61663 0.82356 0.5658 0.0
C2399 C 0.61668 0.82371 0.54839 0.0
C2400 C 0.61523 0.83569 0.53961 0.0
C2401 C 0.61506 0.83561 0.52248 0.0
C2402 C 0.61656 0.82366 0.51346 0.0
C2403 C 0.61646 0.82352 0.49604 0.0
C2404 C 0.61806 0.81154 0.48745 0.0
C2405 C 0.6199 0.79966 0.49579 0.0
C2406 C 0.62004 0.7996 0.51322 0.0
C2407 C 0.62202 0.78794 0.52202 0.0
C2408 C 0.62198 0.78789 0.53914 0.0
C2409 C 0.62005 0.79957 0.54815 0.0
C2410 C 0.6183 0.81161 0.53955 0.0
C2411 C 0.61827 0.81161 0.52206 0.0
C2412 C 0.6067 0.89551 0.4736 0.0
C2413 C 0.61777 0.88901 0.46818 0.0
O2414 O 0.62799 0.7538 0.60323 0.0
O2415 O 0.63007 0.7541 0.45973 0.0
O2416 O 0.60851 0.87242 0.465 0.0
O2417 O 0.60995 0.86943 0.60535 0.0
H2418 H 0.60834 0.73148 0.59791 0.0
H2419 H 0.60041 0.74575 0.61903 0.0
H2420 H 0.61554 0.74667 0.63322 0.0
H2421 H 0.59854 0.72725 0.62702 0.0
H2422 H 0.5997 0.74901 0.59004 0.0
H2423 H 0.65053 0.78197 0.59533 0.0
H2424 H 0.58868 0.77737 0.57664 0.0
H2425 H 0.58212 0.75588 0.5765 0.0
H2426 H 0.5913 0.76792 0.55865 0.0
H2427 H 0.66321 0.80746 0.58262 0.0
H2428 H 0.65085 0.81696 0.58367 0.0
H2429 H 0.65298 0.80898 0.56438 0.0
H2430 H 0.62464 0.86919 0.62414 0.0
H2431 H 0.61017 0.87456 0.64608 0.0
H2432 H 0.59701 0.85672 0.63383 0.0
H2433 H 0.59648 0.87534 0.63088 0.0
H2434 H 0.63772 0.87076 0.59871 0.0
H2435 H 0.5867 0.84507 0.58959 0.0
H2436 H 0.64744 0.85055 0.56735 0.0
H2437 H 0.64653 0.84172 0.58701 0.0
H2438 H 0.65514 0.86344 0.58559 0.0
H2439 H 0.5735 0.81996 0.57498 0.0
H2440 H 0.58413 0.80863 0.57371 0.0
H2441 H 0.58483 0.82119 0.55702 0.0
H2442 H 0.62646 0.89154 0.47863 0.0
H2443 H 0.63693 0.87491 0.47337 0.0
H2444 H 0.5858 0.84324 0.46997 0.0
H2445 H 0.64617 0.85433 0.5019 0.0
H2446 H 0.65465 0.86648 0.48395 0.0
H2447 H 0.64732 0.84482 0.48319 0.0
H2448 H 0.57329 0.81623 0.47918 0.0
H2449 H 0.58309 0.81453 0.49767 0.0
H2450 H 0.58574 0.80678 0.47847 0.0
H2451 H 0.60802 0.73457 0.45348 0.0
H2452 H 0.61176 0.71542 0.47202 0.0
H2453 H 0.61428 0.73288 0.48349 0.0
H2454 H 0.63177 0.73152 0.47786 0.0
H2455 H 0.65149 0.78349 0.46667 0.0
H2456 H 0.60142 0.74849 0.47131 0.0
H2457 H 0.65322 0.81139 0.49692 0.0
H2458 H 0.64992 0.81788 0.47729 0.0
H2459 H 0.6633 0.80958 0.47909 0.0
H2460 H 0.58308 0.75505 0.48319 0.0
H2461 H 0.58894 0.77637 0.48438 0.0
H2462 H 0.59215 0.76678 0.50183 0.0
H2463 H 0.6181 0.81143 0.58749 0.0
H2464 H 0.61413 0.84525 0.54587 0.0
H2465 H 0.61377 0.84507 0.51642 0.0
H2466 H 0.61801 0.81155 0.47409 0.0
H2467 H 0.62358 0.77866 0.51576 0.0
H2468 H 0.6235 0.77858 0.54524 0.0
H2469 H 0.61381 0.90879 0.47634 0.0
H2470 H 0.60042 0.8893 0.48493 0.0
H2471 H 0.59749 0.89325 0.46383 0.0
C2472 C 0.13246 0.75092 0.63926 0.0
C2473 C 0.12181 0.75395 0.62713 0.0
C2474 C 0.13443 0.76211 0.60073 0.0
C2475 C 0.13235 0.7754 0.59693 0.0
C2476 C 0.14316 0.78773 0.58673 0.0
C2477 C 0.15639 0.7868 0.58035 0.0
C2478 C 0.15824 0.77314 0.58381 0.0
C2479 C 0.14705 0.76081 0.59379 0.0
C2480 C 0.14055 0.80188 0.58295 0.0
C2481 C 0.17221 0.77174 0.57726 0.0
C2482 C 0.267 0.90475 0.61336 0.0
C2483 C 0.25744 0.88944 0.60355 0.0
C2484 C 0.22946 0.86873 0.59791 0.0
C2485 C 0.23291 0.85756 0.58998 0.0
C2486 C 0.22072 0.84379 0.58163 0.0
C2487 C 0.20485 0.84138 0.58079 0.0
C2488 C 0.2013 0.85246 0.58902 0.0
C2489 C 0.21364 0.86587 0.59768 0.0
C2490 C 0.22487 0.83191 0.57357 0.0
C2491 C 0.18454 0.85028 0.58852 0.0
C2492 C 0.22323 0.86874 0.47315 0.0
C2493 C 0.22839 0.85866 0.48059 0.0
C2494 C 0.21768 0.84499 0.48946 0.0
C2495 C 0.20161 0.84163 0.49141 0.0
C2496 C 0.19643 0.85182 0.48401 0.0
C2497 C 0.20727 0.86511 0.4748 0.0
C2498 C 0.22354 0.83412 0.49669 0.0
C2499 C 0.17944 0.84871 0.48582 0.0
C2500 C 0.09673 0.71901 0.47882 0.0
C2501 C 0.10373 0.73536 0.47019 0.0
C2502 C 0.13178 0.75646 0.47551 0.0
C2503 C 0.14667 0.75808 0.4801 0.0
C2504 C 0.15869 0.77239 0.48784 0.0
C2505 C 0.15568 0.78539 0.49095 0.0
C2506 C 0.14097 0.78419 0.48548 0.0
C2507 C 0.12922 0.76978 0.47764 0.0
C2508 C 0.17441 0.77344 0.49314 0.0
C2509 C 0.13755 0.79799 0.48826 0.0
C2510 C 0.16858 0.80042 0.57058 0.0
C2511 C 0.18072 0.81393 0.57919 0.0
C2512 C 0.19212 0.82756 0.57089 0.0
C2513 C 0.1914 0.82783 0.55349 0.0
C2514 C 0.20216 0.84163 0.54477 0.0
C2515 C 0.20165 0.84163 0.52764 0.0
C2516 C 0.19047 0.82777 0.51854 0.0
C2517 C 0.19019 0.82744 0.5011 0.0
C2518 C 0.17881 0.81346 0.49249 0.0
C2519 C 0.16749 0.79981 0.5008 0.0
C2520 C 0.16749 0.79996 0.51822 0.0
C2521 C 0.15607 0.78654 0.52695 0.0
C2522 C 0.15627 0.78672 0.54409 0.0
C2523 C 0.16805 0.80024 0.55316 0.0
C2524 C 0.17955 0.81398 0.5446 0.0
C2525 C 0.17918 0.8139 0.52711 0.0
C2526 C 0.25702 0.902 0.4511 0.0
C2527 C 0.24975 0.88899 0.46356 0.0
O2528 O 0.12452 0.75055 0.61123 0.0
O2529 O 0.12026 0.74191 0.46911 0.0
O2530 O 0.23313 0.88191 0.46421 0.0
O2531 O 0.24099 0.88234 0.60584 0.0
H2532 H 0.12535 0.76704 0.62856 0.0
H2533 H 0.14535 0.75914 0.63658 0.0
H2534 H 0.12996 0.73815 0.6382 0.0
H2535 H 0.13034 0.75343 0.65209 0.0
H2536 H 0.12228 0.77611 0.60199 0.0
H2537 H 0.14842 0.75039 0.5967 0.0
H2538 H 0.15039 0.81312 0.58885 0.0
H2539 H 0.12885 0.80001 0.58747 0.0
H2540 H 0.14096 0.8038 0.56946 0.0
H2541 H 0.17231 0.76069 0.58165 0.0
H2542 H 0.18374 0.78263 0.58111 0.0
H2543 H 0.17158 0.77131 0.5636 0.0
H2544 H 0.26056 0.89017 0.59029 0.0
H2545 H 0.28068 0.89911 0.62954 0.0
H2546 H 0.25829 0.9087 0.61772 0.0
H2547 H 0.2726 0.91457 0.60396 0.0
H2548 H 0.24507 0.85948 0.59035 0.0
H2549 H 0.21107 0.87446 0.60398 0.0
H2550 H 0.21565 0.8192 0.57625 0.0
H2551 H 0.23688 0.83393 0.57776 0.0
H2552 H 0.22502 0.83332 0.56002 0.0
H2553 H 0.18422 0.86101 0.59376 0.0
H2554 H 0.17646 0.83946 0.59571 0.0
H2555 H 0.17971 0.84812 0.57565 0.0
H2556 H 0.25573 0.89223 0.47602 0.0
H2557 H 0.24071 0.86126 0.47937 0.0
H2558 H 0.20336 0.8729 0.46897 0.0
H2559 H 0.2246 0.83573 0.51029 0.0
H2560 H 0.23549 0.83694 0.492 0.0
H2561 H 0.21477 0.82115 0.49383 0.0
H2562 H 0.17795 0.85895 0.48127 0.0
H2563 H 0.17596 0.84667 0.49893 0.0
H2564 H 0.17103 0.83754 0.47869 0.0
H2565 H 0.10068 0.74311 0.47804 0.0
H2566 H 0.08342 0.71332 0.47947 0.0
H2567 H 0.1018 0.72094 0.49158 0.0
H2568 H 0.09975 0.71054 0.47226 0.0
H2569 H 0.14867 0.74788 0.47805 0.0
H2570 H 0.11807 0.76899 0.47327 0.0
H2571 H 0.17541 0.77391 0.50679 0.0
H2572 H 0.18468 0.7848 0.48857 0.0
H2573 H 0.17543 0.76288 0.48855 0.0
H2574 H 0.12546 0.7951 0.4834 0.0
H2575 H 0.1468 0.80905 0.48218 0.0
H2576 H 0.13831 0.80086 0.50165 0.0
H2577 H 0.18124 0.81388 0.59254 0.0
H2578 H 0.21112 0.85263 0.55108 0.0
H2579 H 0.21024 0.85261 0.52163 0.0
H2580 H 0.1787 0.81321 0.47913 0.0
H2581 H 0.1468 0.77572 0.52065 0.0
H2582 H 0.14717 0.77606 0.55013 0.0
H2583 H 0.26673 0.89262 0.43418 0.0
H2584 H 0.26466 0.91353 0.45849 0.0
H2585 H 0.24757 0.90534 0.44755 0.0
C2586 C 0.12841 0.37867 0.62587 0.0
C2587 C 0.11772 0.37687 0.61074 0.0
C2588 C 0.13338 0.372 0.58976 0.0
C2589 C 0.14632 0.38801 0.58905 0.0
C2590 C 0.16024 0.39143 0.58041 0.0
C2591 C 0.16124 0.37862 0.57237 0.0
C2592 C 0.14812 0.36255 0.57287 0.0
C2593 C 0.13431 0.35952 0.58143 0.0
C2594 C 0.17392 0.40872 0.57988 0.0
C2595 C 0.14872 0.34853 0.56452 0.0
C2596 C 0.27523 0.39376 0.58803 0.0
C2597 C 0.26596 0.3879 0.60407 0.0
C2598 C 0.23855 0.37901 0.593 0.0
C2599 C 0.22463 0.36527 0.58709 0.0
C2600 C 0.21266 0.36668 0.57826 0.0
C2601 C 0.2146 0.3823 0.57551 0.0
C2602 C 0.22837 0.39628 0.582 0.0
C2603 C 0.24026 0.39451 0.59069 0.0
C2604 C 0.19807 0.35149 0.57161 0.0
C2605 C 0.23061 0.41306 0.5795 0.0
C2606 C 0.24773 0.39131 0.47167 0.0
C2607 C 0.23506 0.37593 0.47573 0.0
C2608 C 0.22125 0.37435 0.4833 0.0
C2609 C 0.22008 0.38842 0.48679 0.0
C2610 C 0.23253 0.40385 0.48206 0.0
C2611 C 0.24615 0.40506 0.47441 0.0
C2612 C 0.20798 0.35766 0.48773 0.0
C2613 C 0.23155 0.41907 0.48538 0.0
C2614 C 0.11433 0.3922 0.46559 0.0
C2615 C 0.11802 0.38256 0.45268 0.0
C2616 C 0.13634 0.37526 0.46727 0.0
C2617 C 0.13769 0.36228 0.47355 0.0
C2618 C 0.15187 0.3648 0.48161 0.0
C2619 C 0.16494 0.38082 0.48369 0.0
C2620 C 0.16389 0.39401 0.47692 0.0
C2621 C 0.14964 0.3911 0.46867 0.0
C2622 C 0.15269 0.35039 0.48833 0.0
C2623 C 0.17766 0.41122 0.4789 0.0
C2624 C 0.17606 0.3819 0.56361 0.0
C2625 C 0.18875 0.38228 0.57284 0.0
C2626 C 0.20247 0.3839 0.56523 0.0
C2627 C 0.20379 0.38543 0.54795 0.0
C2628 C 0.21745 0.38711 0.53991 0.0
C2629 C 0.21835 0.38797 0.52283 0.0
C2630 C 0.20552 0.38691 0.51311 0.0
C2631 C 0.20601 0.38704 0.4957 0.0
C2632 C 0.19277 0.38537 0.48642 0.0
C2633 C 0.1791 0.38383 0.49409 0.0
C2634 C 0.17863 0.38426 0.51147 0.0
C2635 C 0.16526 0.38326 0.51954 0.0
C2636 C 0.16454 0.38285 0.53662 0.0
C2637 C 0.17711 0.3833 0.5463 0.0
C2638 C 0.19096 0.38492 0.53844 0.0
C2639 C 0.19176 0.38549 0.521 0.0
C2640 C 0.28432 0.39679 0.4807 0.0
C2641 C 0.26975 0.38529 0.46976 0.0
O2642 O 0.11986 0.36795 0.59835 0.0
O2643 O 0.12192 0.3719 0.46035 0.0
O2644 O 0.26148 0.39325 0.46491 0.0
O2645 O 0.24994 0.37663 0.6007 0.0
H2646 H 0.1208 0.3891 0.60615 0.0
H2647 H 0.14134 0.38546 0.62281 0.0
H2648 H 0.12558 0.36651 0.63041 0.0
H2649 H 0.12649 0.38554 0.63592 0.0
H2650 H 0.14564 0.39785 0.59518 0.0
H2651 H 0.12422 0.34724 0.58195 0.0
H2652 H 0.18474 0.40962 0.58623 0.0
H2653 H 0.17092 0.41748 0.58586 0.0
H2654 H 0.1771 0.41227 0.5669 0.0
H2655 H 0.13804 0.33661 0.56717 0.0
H2656 H 0.15975 0.34826 0.56859 0.0
H2657 H 0.1493 0.35019 0.551 0.0
H2658 H 0.26675 0.39844 0.61109 0.0
H2659 H 0.28816 0.40246 0.59078 0.0
H2660 H 0.27039 0.40012 0.5804 0.0
H2661 H 0.27425 0.38328 0.58074 0.0
H2662 H 0.22337 0.35338 0.58909 0.0
H2663 H 0.25084 0.40524 0.59551 0.0
H2664 H 0.19706 0.35218 0.55804 0.0
H2665 H 0.18702 0.35055 0.57694 0.0
H2666 H 0.19857 0.34028 0.57452 0.0
H2667 H 0.24152 0.42265 0.5861 0.0
H2668 H 0.2199 0.41356 0.58386 0.0
H2669 H 0.23166 0.41573 0.56616 0.0
H2670 H 0.26226 0.37476 0.47764 0.0
H2671 H 0.23584 0.36514 0.47288 0.0
H2672 H 0.25586 0.41684 0.47094 0.0
H2673 H 0.20672 0.35696 0.5013 0.0
H2674 H 0.21032 0.34784 0.48342 0.0
H2675 H 0.19633 0.35549 0.48225 0.0
H2676 H 0.24227 0.43017 0.48101 0.0
H2677 H 0.23045 0.42048 0.4988 0.0
H2678 H 0.22061 0.418 0.47916 0.0
H2679 H 0.12832 0.39146 0.4454 0.0
H2680 H 0.10965 0.39957 0.4595 0.0
H2681 H 0.12543 0.40068 0.4727 0.0
H2682 H 0.10544 0.3839 0.47449 0.0
H2683 H 0.12745 0.3501 0.4723 0.0
H2684 H 0.14896 0.40132 0.46372 0.0
H2685 H 0.15239 0.35069 0.50198 0.0
H2686 H 0.16417 0.35096 0.48492 0.0
H2687 H 0.14248 0.33863 0.48373 0.0
H2688 H 0.17495 0.4202 0.47301 0.0
H2689 H 0.18863 0.41216 0.47336 0.0
H2690 H 0.18041 0.41446 0.49219 0.0
H2691 H 0.18769 0.38075 0.58606 0.0
H2692 H 0.22759 0.38772 0.54672 0.0
H2693 H 0.22915 0.38921 0.51734 0.0
H2694 H 0.19302 0.38503 0.47308 0.0
H2695 H 0.15512 0.38268 0.51275 0.0
H2696 H 0.15389 0.38195 0.54214 0.0
H2697 H 0.29163 0.40871 0.4748 0.0
H2698 H 0.29199 0.39124 0.48342 0.0
H2699 H 0.28007 0.39908 0.49255 0.0
H2700 H 0.97913 0.35893 0.03415 0.0
H2701 H 0.02709 0.37994 0.0556 0.0
H2702 H 0.97138 0.37101 0.05641 0.0
H2703 H 0.01925 0.39127 0.07825 0.0
H2704 H 0.00757 0.42605 0.10482 0.0
H2705 H 0.01411 0.41248 0.08331 0.0
H2706 H 0.9658 0.37139 0.08447 0.0
H2707 H 0.959 0.38558 0.10539 0.0
C2708 C 0.98789 0.36583 0.04383 0.0
C2709 C 0.00374 0.36861 0.04308 0.0
C2710 C 0.98347 0.37274 0.05663 0.0
C2711 C 0.99474 0.38236 0.06908 0.0
C2712 C 0.01036 0.38439 0.06867 0.0
C2713 C 0.01484 0.37776 0.05575 0.0
C2714 C 0.99825 0.41424 0.10032 0.0
C2715 C 0.98261 0.40707 0.1065 0.0
C2716 C 0.00208 0.40629 0.08812 0.0
C2717 C 0.99051 0.39075 0.08209 0.0
C2718 C 0.97495 0.38345 0.08854 0.0
C2719 C 0.97105 0.39153 0.10057 0.0
H2720 H 0.65144 0.61937 0.05888 0.0
H2721 H 0.6055 0.60766 0.03688 0.0
H2722 H 0.63824 0.59614 0.07688 0.0
H2723 H 0.59222 0.58378 0.05395 0.0
H2724 H 0.562 0.53882 0.09359 0.0
H2725 H 0.57757 0.5678 0.0744 0.0
H2726 H 0.63102 0.56977 0.08157 0.0
H2727 H 0.61669 0.54113 0.10133 0.0
C2728 C 0.63849 0.61159 0.0578 0.0
C2729 C 0.62947 0.61482 0.04619 0.0
C2730 C 0.63088 0.59822 0.06805 0.0
C2731 C 0.61412 0.58776 0.06675 0.0
C2732 C 0.60508 0.59152 0.05554 0.0
C2733 C 0.61268 0.60511 0.04556 0.0
C2734 C 0.57462 0.54421 0.09076 0.0
C2735 C 0.58838 0.53868 0.10198 0.0
C2736 C 0.58466 0.56271 0.07935 0.0
C2737 C 0.60626 0.57276 0.07656 0.0
C2738 C 0.61834 0.56408 0.08409 0.0
C2739 C 0.60938 0.54566 0.09568 0.0
H2740 H 0.36529 0.01811 0.05724 0.0
H2741 H 0.37458 0.98443 0.02997 0.0
H2742 H 0.38386 0.01976 0.07914 0.0
H2743 H 0.3922 0.98491 0.05229 0.0
H2744 H 0.43249 0.99705 0.08839 0.0
H2745 H 0.4168 0.99934 0.06585 0.0
H2746 H 0.38669 0.0059 0.10079 0.0
H2747 H 0.40331 0.00501 0.1233 0.0
C2748 C 0.37155 0.01124 0.0559 0.0
C2749 C 0.36921 0.00177 0.04168 0.0
C2750 C 0.38194 0.01188 0.06859 0.0
C2751 C 0.38974 0.00256 0.06755 0.0
C2752 C 0.3869 0.99268 0.0534 0.0
C2753 C 0.3767 0.99227 0.04064 0.0
C2754 C 0.42267 0.99921 0.09131 0.0
C2755 C 0.41911 0.00076 0.10775 0.0
C2756 C 0.41351 0.00033 0.07832 0.0
C2757 C 0.40027 0.00261 0.08137 0.0
C2758 C 0.39688 0.00439 0.09782 0.0
C2759 C 0.4063 0.00368 0.11079 0.0
H2760 H 0.38012 0.02792 0.96156 0.0
H2761 H 0.35696 0.97717 0.9741 0.0
H2762 H 0.3926 0.02258 0.93831 0.0
H2763 H 0.37005 0.97185 0.95117 0.0
H2764 H 0.4285 0.01303 0.91207 0.0
H2765 H 0.41367 0.01723 0.93374 0.0
H2766 H 0.37238 0.97013 0.9223 0.0
H2767 H 0.38769 0.96559 0.90114 0.0
C2768 C 0.37767 0.01558 0.95929 0.0
C2769 C 0.36763 0.00298 0.96971 0.0
C2770 C 0.38495 0.01253 0.94603 0.0
C2771 C 0.38264 0.99684 0.94299 0.0
C2772 C 0.37205 0.98408 0.95304 0.0
C2773 C 0.36454 0.9871 0.96621 0.0
C2774 C 0.41635 0.00346 0.91433 0.0
C2775 C 0.40941 0.98877 0.90517 0.0
C2776 C 0.40771 0.00596 0.92663 0.0
C2777 C 0.39175 0.99403 0.92982 0.0
C2778 C 0.38472 0.97947 0.92044 0.0
C2779 C 0.39345 0.97688 0.90827 0.0
H2780 H 0.99202 0.37753 0.9834 0.0
H2781 H 0.02724 0.36995 0.95834 0.0
H2782 H 0.99239 0.39505 0.96154 0.0
H2783 H 0.02874 0.38857 0.93688 0.0
H2784 H 0.00948 0.40239 0.89123 0.0
H2785 H 0.01383 0.38888 0.9144 0.0
H2786 H 0.00506 0.41932 0.94793 0.0
H2787 H 0.99938 0.43181 0.92478 0.0
C2788 C 0.00028 0.38014 0.97342 0.0
C2789 C 0.01002 0.37292 0.97277 0.0
C2790 C 0.00062 0.3903 0.9609 0.0
C2791 C 0.01067 0.3934 0.94735 0.0
C2792 C 0.02069 0.38636 0.94696 0.0
C2793 C 0.02012 0.37596 0.9594 0.0
C2794 C 0.00828 0.40605 0.90356 0.0
C2795 C 0.00339 0.41771 0.906 0.0
C2796 C 0.01108 0.3985 0.91692 0.0
C2797 C 0.00957 0.40277 0.93317 0.0
C2798 C 0.00582 0.41528 0.93563 0.0
C2799 C 0.00263 0.42255 0.92226 0.0
H2800 H 0.61794 0.64807 0.98194 0.0
H2801 H 0.61996 0.60433 0.97051 0.0
H2802 H 0.59789 0.64123 0.95978 0.0
H2803 H 0.59977 0.5974 0.94875 0.0
H2804 H 0.5752 0.59732 0.90053 0.0
H2805 H 0.59626 0.60587 0.92188 0.0
H2806 H 0.56998 0.6216 0.95287 0.0
H2807 H 0.54911 0.61339 0.93128 0.0
C2808 C 0.61413 0.63701 0.97475 0.0
C2809 C 0.62064 0.62679 0.97803 0.0
C2810 C 0.60256 0.63304 0.9621 0.0
C2811 C 0.59723 0.61878 0.95246 0.0
C2812 C 0.60378 0.60862 0.95573 0.0
C2813 C 0.61534 0.61258 0.96831 0.0
C2814 C 0.57394 0.60258 0.91193 0.0
C2815 C 0.56038 0.60443 0.91437 0.0
C2816 C 0.58596 0.60743 0.92418 0.0
C2817 C 0.58475 0.6143 0.93916 0.0
C2818 C 0.57135 0.61647 0.94145 0.0
C2819 C 0.55933 0.61163 0.92916 0.0
H2820 H 0.01418 0.6568 0.96161 0.0
H2821 H 0.98856 0.61195 0.98778 0.0
H2822 H 0.0182 0.64216 0.93877 0.0
H2823 H 0.99279 0.59724 0.96504 0.0
H2824 H 0.02409 0.58485 0.92954 0.0
H2825 H 0.01841 0.59828 0.95217 0.0
H2826 H 0.99967 0.6195 0.91752 0.0
H2827 H 0.00486 0.60564 0.89481 0.0
C2828 C 0.00955 0.64381 0.96247 0.0
C2829 C 0.00151 0.63548 0.97653 0.0
C2830 C 0.01171 0.63544 0.9494 0.0
C2831 C 0.00587 0.61861 0.95023 0.0
C2832 C 0.99754 0.61024 0.96421 0.0
C2833 C 0.99512 0.6186 0.97715 0.0
C2834 C 0.0185 0.59213 0.92673 0.0
C2835 C 0.01462 0.59394 0.91036 0.0
C2836 C 0.0153 0.59985 0.9397 0.0
C2837 C 0.0086 0.60988 0.93656 0.0
C2838 C 0.00488 0.61184 0.92025 0.0
C2839 C 0.00777 0.60388 0.9073 0.0
H2840 H 0.3861 0.37484 0.95689 0.0
H2841 H 0.36872 0.40275 0.98325 0.0
H2842 H 0.39257 0.39289 0.93371 0.0
H2843 H 0.37605 0.42148 0.96047 0.0
H2844 H 0.37498 0.44184 0.91015 0.0
H2845 H 0.36901 0.42461 0.93393 0.0
H2846 H 0.41004 0.41843 0.92387 0.0
H2847 H 0.41519 0.43468 0.89934 0.0
C2848 C 0.38387 0.385 0.95781 0.0
C2849 C 0.37685 0.38734 0.97187 0.0
C2850 C 0.3877 0.39547 0.94454 0.0
C2851 C 0.38493 0.40879 0.94512 0.0
C2852 C 0.3781 0.41123 0.95936 0.0
C2853 C 0.37396 0.40054 0.9725 0.0
C2854 C 0.38256 0.43658 0.91284 0.0
C2855 C 0.39515 0.43906 0.90241 0.0
C2856 C 0.37929 0.42687 0.92669 0.0
C2857 C 0.38886 0.41982 0.9308 0.0
C2858 C 0.40204 0.42313 0.92086 0.0
C2859 C 0.40509 0.43257 0.90684 0.0
H2860 H 0.63374 0.97915 0.96697 0.0
H2861 H 0.62119 0.01192 0.99134 0.0
H2862 H 0.61588 0.97628 0.94363 0.0
H2863 H 0.60344 0.00928 0.96793 0.0
H2864 H 0.59386 0.0173 0.91321 0.0
H2865 H 0.60856 0.018 0.93837 0.0
H2866 H 0.58616 0.96561 0.9364 0.0
H2867 H 0.57122 0.96488 0.9113 0.0
C2868 C 0.6268 0.98538 0.96746 0.0
C2869 C 0.62828 0.99526 0.98111 0.0
C2870 C 0.61667 0.98382 0.95412 0.0
C2871 C 0.6082 0.99248 0.95403 0.0
C2872 C 0.60983 0.00248 0.96768 0.0
C2873 C 0.61988 0.00394 0.98106 0.0
C2874 C 0.59198 0.00592 0.91822 0.0
C2875 C 0.58154 0.99105 0.91019 0.0
C2876 C 0.60033 0.00632 0.93266 0.0
C2877 C 0.59851 0.99186 0.93932 0.0
C2878 C 0.58787 0.97694 0.93146 0.0
C2879 C 0.57935 0.97653 0.91711 0.0
H2880 H 0.61915 0.97479 0.06319 0.0
H2881 H 0.64187 0.02458 0.04738 0.0
H2882 H 0.60869 0.98196 0.08696 0.0
H2883 H 0.63067 0.0317 0.07075 0.0
H2884 H 0.61977 0.04214 0.12247 0.0
H2885 H 0.63149 0.03584 0.09922 0.0
H2886 H 0.58897 0.9884 0.09415 0.0
H2887 H 0.57774 0.99438 0.11814 0.0
C2888 C 0.62184 0.98729 0.06478 0.0
C2889 C 0.63132 0.99912 0.05342 0.0
C2890 C 0.6157 0.99139 0.07834 0.0
C2891 C 0.6186 0.00739 0.08075 0.0
C2892 C 0.62832 0.0193 0.06947 0.0
C2893 C 0.63472 0.01523 0.05603 0.0
C2894 C 0.61302 0.03025 0.11663 0.0
C2895 C 0.59808 0.01846 0.12268 0.0
C2896 C 0.61968 0.02671 0.10307 0.0
C2897 C 0.61136 0.01147 0.09489 0.0
C2898 C 0.59603 1.00005 0.10043 0.0
C2899 C 0.58952 0.0035 0.11413 0.0
H2900 H 0.02516 0.63753 0.05176 0.0
H2901 H 0.97629 0.62902 0.04946 0.0
H2902 H 0.01833 0.61924 0.07483 0.0
H2903 H 0.96959 0.61092 0.07273 0.0
H2904 H 0.95909 0.56536 0.10162 0.0
H2905 H 0.96613 0.58408 0.07873 0.0
H2906 H 0.01109 0.61717 0.10377 0.0
H2907 H 0.00413 0.59828 0.12648 0.0
C2908 C 0.013 0.6319 0.05624 0.0
C2909 C 0.00128 0.63478 0.04868 0.0
C2910 C 0.0091 0.62144 0.06953 0.0
C2911 C 0.9934 0.61358 0.07559 0.0
C2912 C 0.98174 0.61661 0.0682 0.0
C2913 C 0.98563 0.6271 0.05492 0.0
C2914 C 0.97053 0.57657 0.10212 0.0
C2915 C 0.9812 0.58025 0.11568 0.0
C2916 C 0.9745 0.58736 0.08911 0.0
C2917 C 0.98918 0.60211 0.08943 0.0
C2918 C 0.9998 0.6058 0.10304 0.0
C2919 C 0.99582 0.59502 0.11605 0.0
H2920 H 0.37564 0.35167 0.05275 0.0
H2921 H 0.39771 0.40149 0.03731 0.0
H2922 H 0.39586 0.35959 0.07502 0.0
H2923 H 0.4183 0.40947 0.0595 0.0
H2924 H 0.46148 0.40641 0.08783 0.0
H2925 H 0.44129 0.40149 0.06625 0.0
H2926 H 0.40357 0.37853 0.10143 0.0
H2927 H 0.42374 0.38385 0.12316 0.0
C2928 C 0.38494 0.36431 0.05412 0.0
C2929 C 0.38549 0.37595 0.04318 0.0
C2930 C 0.39638 0.36885 0.06689 0.0
C2931 C 0.40861 0.38512 0.06891 0.0
C2932 C 0.40903 0.39684 0.05809 0.0
C2933 C 0.39733 0.39231 0.04547 0.0
C2934 C 0.44893 0.40067 0.09106 0.0
C2935 C 0.44419 0.39573 0.10728 0.0
C2936 C 0.43739 0.39784 0.07869 0.0
C2937 C 0.42093 0.38964 0.08222 0.0
C2938 C 0.41621 0.38486 0.09842 0.0
C2939 C 0.42772 0.38796 0.11083 0.0
H2940 H 0.63623 0.69223 0.37032 0.0
H2941 H 0.68153 0.7141 0.39756 0.0
H2942 H 0.62465 0.70133 0.3917 0.0
H2943 H 0.66983 0.72234 0.41938 0.0
H2944 H 0.65163 0.75142 0.44641 0.0
H2945 H 0.66212 0.7414 0.42514 0.0
H2946 H 0.61528 0.69847 0.41854 0.0
H2947 H 0.6045 0.70923 0.43918 0.0
C2948 C 0.6436 0.69874 0.38104 0.0
C2949 C 0.6598 0.70259 0.38223 0.0
C2950 C 0.63696 0.7039 0.39336 0.0
C2951 C 0.64631 0.71277 0.40727 0.0
C2952 C 0.66235 0.716 0.40867 0.0
C2953 C 0.66906 0.71116 0.39622 0.0
C2954 C 0.64347 0.73997 0.44026 0.0
C2955 C 0.62708 0.73129 0.44422 0.0
C2956 C 0.64957 0.73405 0.42818 0.0
C2957 C 0.63961 0.71904 0.42006 0.0
C2958 C 0.62328 0.71021 0.42425 0.0
C2959 C 0.61709 0.71631 0.43614 0.0
H2960 H 0.31611 0.95632 0.40099 0.0
H2961 H 0.26869 0.94647 0.38562 0.0
H2962 H 0.30454 0.93532 0.42145 0.0
H2963 H 0.25684 0.92579 0.40668 0.0
H2964 H 0.23113 0.87006 0.43138 0.0
H2965 H 0.24565 0.89839 0.41101 0.0
H2966 H 0.29688 0.92247 0.44543 0.0
H2967 H 0.28361 0.89467 0.46635 0.0
C2968 C 0.30314 0.94962 0.40214 0.0
C2969 C 0.29319 0.95233 0.39129 0.0
C2970 C 0.29645 0.93772 0.4141 0.0
C2971 C 0.27964 0.92845 0.41557 0.0
C2972 C 0.26978 0.9322 0.40553 0.0
C2973 C 0.27652 0.94412 0.39354 0.0
C2974 C 0.24346 0.87956 0.43357 0.0
C2975 C 0.25491 0.88083 0.45284 0.0
C2976 C 0.25235 0.8977 0.42153 0.0
C2977 C 0.27245 0.91424 0.42651 0.0
C2978 C 0.28475 0.91273 0.44295 0.0
C2979 C 0.2769 0.89505 0.45566 0.0
H2980 H 0.0383 0.35328 0.38423 0.0
H2981 H 0.05443 0.31921 0.37212 0.0
H2982 H 0.05718 0.36355 0.4077 0.0
H2983 H 0.07347 0.32944 0.39579 0.0
H2984 H 0.11987 0.37079 0.4228 0.0
H2985 H 0.09853 0.35539 0.40231 0.0
H2986 H 0.06361 0.35625 0.43472 0.0
H2987 H 0.08466 0.37112 0.45536 0.0
C2988 C 0.0459 0.34796 0.38672 0.0
C2989 C 0.04541 0.33589 0.37621 0.0
C2990 C 0.05655 0.35368 0.40025 0.0
C2991 C 0.06689 0.34737 0.40353 0.0
C2992 C 0.06579 0.33467 0.39342 0.0
C2993 C 0.05494 0.3288 0.37995 0.0
C2994 C 0.10762 0.36771 0.42552 0.0
C2995 C 0.10421 0.37285 0.44047 0.0
C2996 C 0.09539 0.35878 0.41384 0.0
C2997 C 0.07945 0.35492 0.41676 0.0
C2998 C 0.07586 0.35939 0.43198 0.0
C2999 C 0.08804 0.36804 0.4438 0.0
H3000 H 0.0239 0.29454 0.30792 0.0
H3001 H 0.06705 0.34051 0.30031 0.0
H3002 H 0.03381 0.28112 0.28948 0.0
H3003 H 0.07666 0.32716 0.28167 0.0
H3004 H 0.10598 0.29974 0.25983 0.0
H3005 H 0.09206 0.31367 0.28138 0.0
H3006 H 0.03611 0.2717 0.26285 0.0
H3007 H 0.04868 0.25671 0.24085 0.0
C3008 C 0.03539 0.30183 0.30219 0.0
C3009 C 0.0447 0.31862 0.30573 0.0
C3010 C 0.04103 0.29413 0.29154 0.0
C3011 C 0.0561 0.30305 0.28425 0.0
C3012 C 0.06518 0.31986 0.2874 0.0
C3013 C 0.05957 0.32756 0.29801 0.0
C3014 C 0.09306 0.2942 0.2609 0.0
C3015 C 0.07878 0.27851 0.24588 0.0
C3016 C 0.08426 0.30323 0.27366 0.0
C3017 C 0.06264 0.29492 0.27379 0.0
C3018 C 0.04899 0.27663 0.26218 0.0
C3019 C 0.05665 0.26671 0.24898 0.0
H3020 H 0.69529 0.70514 0.30282 0.0
H3021 H 0.6597 0.71771 0.31802 0.0
H3022 H 0.70374 0.72535 0.2812 0.0
H3023 H 0.66817 0.73811 0.29648 0.0
H3024 H 0.67572 0.7588 0.24407 0.0
H3025 H 0.66745 0.73928 0.2663 0.0
H3026 H 0.71735 0.75475 0.27783 0.0
H3027 H 0.7256 0.77435 0.25571 0.0
C3028 C 0.68951 0.7125 0.30167 0.0
C3029 C 0.67728 0.71039 0.31235 0.0
C3030 C 0.69429 0.72401 0.2893 0.0
C3031 C 0.68672 0.73344 0.28721 0.0
C3032 C 0.67419 0.731 0.29772 0.0
C3033 C 0.66941 0.71944 0.31009 0.0
C3034 C 0.68492 0.75823 0.25156 0.0
C3035 C 0.70135 0.76842 0.24845 0.0
C3036 C 0.68019 0.74706 0.26429 0.0
C3037 C 0.69175 0.7456 0.27397 0.0
C3038 C 0.70815 0.75561 0.27067 0.0
C3039 C 0.71289 0.76689 0.25806 0.0
H3040 H 0.26938 0.96825 0.3297 0.0
H3041 H 0.29026 0.94241 0.30558 0.0
H3042 H 0.24943 0.96031 0.30732 0.0
H3043 H 0.27105 0.93526 0.28274 0.0
H3044 H 0.2256 0.91093 0.25171 0.0
H3045 H 0.24452 0.91857 0.27478 0.0
H3046 H 0.24469 0.96424 0.28004 0.0
H3047 H 0.22473 0.95595 0.2576 0.0
C3048 C 0.26983 0.96105 0.31949 0.0
C3049 C 0.28133 0.95589 0.31943 0.0
C3050 C 0.25844 0.95656 0.30657 0.0
C3051 C 0.25849 0.94705 0.29313 0.0
C3052 C 0.27028 0.94221 0.293 0.0
C3053 C 0.28142 0.94642 0.30606 0.0
C3054 C 0.22944 0.92249 0.25793 0.0
C3055 C 0.22339 0.93272 0.25298 0.0
C3056 C 0.24054 0.92701 0.27108 0.0
C3057 C 0.24629 0.94209 0.27936 0.0
C3058 C 0.24036 0.9524 0.27426 0.0
C3059 C 0.229 0.94772 0.26131 0.0
H3060 H 0.66394 0.93337 0.31872 0.0
H3061 H 0.69078 0.98296 0.30274 0.0
H3062 H 0.67464 0.92461 0.29579 0.0
H3063 H 0.70117 0.97428 0.27978 0.0
H3064 H 0.70269 0.95003 0.23152 0.0
H3065 H 0.68883 0.95554 0.25358 0.0
H3066 H 0.70452 0.93142 0.28802 0.0
H3067 H 0.71883 0.92633 0.26612 0.0
C3068 C 0.67208 0.94232 0.31025 0.0
C3069 C 0.67693 0.95885 0.31261 0.0
C3070 C 0.67818 0.93735 0.29721 0.0
C3071 C 0.6887 0.94879 0.28606 0.0
C3072 C 0.69299 0.96522 0.28813 0.0
C3073 C 0.68718 0.97019 0.30131 0.0
C3074 C 0.70297 0.94569 0.24375 0.0
C3075 C 0.71169 0.93759 0.247 0.0
C3076 C 0.69511 0.9489 0.25636 0.0
C3077 C 0.69563 0.94389 0.27246 0.0
C3078 C 0.70383 0.93527 0.27566 0.0
C3079 C 0.712 0.93235 0.26311 0.0
H3080 H 0.02556 0.72888 0.30953 0.0
H3081 H 0.06841 0.72686 0.29705 0.0
H3082 H 0.03028 0.74748 0.2871 0.0
H3083 H 0.07316 0.74563 0.27467 0.0
H3084 H 0.06218 0.7614 0.22399 0.0
H3085 H 0.06025 0.7449 0.24773 0.0
H3086 H 0.04914 0.77541 0.27849 0.0
H3087 H 0.05096 0.79182 0.25465 0.0
C3088 C 0.03604 0.73245 0.30208 0.0
C3089 C 0.04654 0.72626 0.30509 0.0
C3090 C 0.0388 0.74322 0.28928 0.0
C3091 C 0.0521 0.74804 0.27911 0.0
C3092 C 0.06272 0.74202 0.2822 0.0
C3093 C 0.06001 0.73131 0.29507 0.0
C3094 C 0.05957 0.7647 0.23589 0.0
C3095 C 0.05681 0.77793 0.23751 0.0
C3096 C 0.0585 0.75529 0.24949 0.0
C3097 C 0.0545 0.75883 0.26498 0.0
C3098 C 0.05208 0.77228 0.26668 0.0
C3099 C 0.05323 0.78174 0.25309 0.0
H3100 H 0.28018 0.3429 0.32046 0.0
H3101 H 0.29354 0.30673 0.30822 0.0
H3102 H 0.26136 0.33385 0.29662 0.0
H3103 H 0.27472 0.29752 0.28463 0.0
H3104 H 0.2291 0.27566 0.25242 0.0
H3105 H 0.24489 0.28396 0.27822 0.0
H3106 H 0.2642 0.33441 0.26572 0.0
H3107 H 0.24862 0.3261 0.23978 0.0
C3108 C 0.27888 0.33287 0.31277 0.0
C3109 C 0.28777 0.32506 0.31642 0.0
C3110 C 0.2682 0.32774 0.29916 0.0
C3111 C 0.26643 0.31485 0.2889 0.0
C3112 C 0.27555 0.30723 0.29251 0.0
C3113 C 0.28626 0.31244 0.30602 0.0
C3114 C 0.23668 0.28851 0.25524 0.0
C3115 C 0.23781 0.30023 0.24399 0.0
C3116 C 0.24569 0.29326 0.27 0.0
C3117 C 0.2558 0.30983 0.27396 0.0
C3118 C 0.25641 0.32156 0.26305 0.0
C3119 C 0.24757 0.3168 0.24818 0.0
H3120 H 0.28471 0.32244 0.40246 0.0
H3121 H 0.30724 0.36827 0.37747 0.0
H3122 H 0.27754 0.33471 0.42477 0.0
H3123 H 0.29929 0.38047 0.39941 0.0
H3124 H 0.29618 0.40137 0.44932 0.0
H3125 H 0.3038 0.38995 0.4266 0.0
H3126 H 0.25999 0.34401 0.43182 0.0
H3127 H 0.25299 0.35518 0.45533 0.0
C3128 C 0.28802 0.33514 0.40168 0.0
C3129 C 0.29656 0.34439 0.38821 0.0
C3130 C 0.28376 0.34218 0.41443 0.0
C3131 C 0.28763 0.3586 0.41391 0.0
C3132 C 0.29627 0.36788 0.40042 0.0
C3133 C 0.3008 0.36088 0.38779 0.0
C3134 C 0.28829 0.38876 0.44584 0.0
C3135 C 0.27431 0.37895 0.4547 0.0
C3136 C 0.29256 0.38224 0.43257 0.0
C3137 C 0.28272 0.3659 0.42747 0.0
C3138 C 0.26822 0.35645 0.4357 0.0
C3139 C 0.26411 0.36288 0.44913 0.0
H3140 H 0.63774 0.94429 0.38034 0.0
H3141 H 0.68487 0.95086 0.39274 0.0
H3142 H 0.62643 0.92603 0.40312 0.0
H3143 H 0.67332 0.93219 0.41559 0.0
H3144 H 0.64828 0.91506 0.46645 0.0
H3145 H 0.66142 0.93143 0.44251 0.0
H3146 H 0.62016 0.89916 0.41187 0.0
H3147 H 0.60694 0.88309 0.43587 0.0
C3148 C 0.64572 0.94178 0.38785 0.0
C3149 C 0.66227 0.94914 0.38467 0.0
C3150 C 0.63916 0.93116 0.40088 0.0
C3151 C 0.64894 0.92755 0.41111 0.0
C3152 C 0.66549 0.93482 0.40797 0.0
C3153 C 0.67209 0.94548 0.39486 0.0
C3154 C 0.64218 0.91134 0.45452 0.0
C3155 C 0.62667 0.89772 0.45298 0.0
C3156 C 0.64971 0.92067 0.44081 0.0
C3157 C 0.64181 0.91664 0.4253 0.0
C3158 C 0.62649 0.90271 0.42369 0.0
C3159 C 0.61897 0.89341 0.43739 0.0
H3160 H 0.04655 0.68836 0.38331 0.0
H3161 H 0.05774 0.73791 0.37583 0.0
H3162 H 0.06332 0.69668 0.40837 0.0
H3163 H 0.07458 0.74641 0.4012 0.0
H3164 H 0.08422 0.74704 0.45857 0.0
H3165 H 0.07027 0.74162 0.43174 0.0
H3166 H 0.09228 0.71326 0.41684 0.0
H3167 H 0.10641 0.71892 0.44346 0.0
C3168 C 0.05289 0.70112 0.38693 0.0
C3169 C 0.0514 0.71263 0.37742 0.0
C3170 C 0.06244 0.70588 0.40128 0.0
C3171 C 0.07044 0.72224 0.40663 0.0
C3172 C 0.06858 0.73372 0.39733 0.0
C3173 C 0.05904 0.72892 0.38285 0.0
C3174 C 0.08622 0.73984 0.44944 0.0
C3175 C 0.09624 0.73324 0.45314 0.0
C3176 C 0.07832 0.73681 0.43408 0.0
C3177 C 0.08015 0.72698 0.4222 0.0
C3178 C 0.09056 0.7208 0.42575 0.0
C3179 C 0.09862 0.72401 0.44099 0.0
H3180 H 0.34812 0.05672 0.72557 0.0
H3181 H 0.30243 0.03077 0.69925 0.0
H3182 H 0.33553 0.06412 0.74719 0.0
H3183 H 0.28989 0.03899 0.72036 0.0
H3184 H 0.26866 0.04488 0.76789 0.0
H3185 H 0.2808 0.03568 0.74721 0.0
H3186 H 0.32549 0.0812 0.7531 0.0
H3187 H 0.31377 0.08972 0.77446 0.0
C3188 C 0.33539 0.05275 0.72435 0.0
C3189 C 0.32627 0.04321 0.71073 0.0
C3190 C 0.32815 0.05709 0.73669 0.0
C3191 C 0.31166 0.05233 0.73553 0.0
C3192 C 0.30254 0.04269 0.72188 0.0
C3193 C 0.30973 0.03805 0.7097 0.0
C3194 C 0.28108 0.05285 0.76471 0.0
C3195 C 0.2901 0.06811 0.77265 0.0
C3196 C 0.28804 0.04766 0.75278 0.0
C3197 C 0.30417 0.05768 0.74836 0.0
C3198 C 0.31315 0.07296 0.75632 0.0
C3199 C 0.30631 0.07799 0.76846 0.0
H3200 H 0.98314 0.28642 0.71764 0.0
H3201 H 0.93485 0.2728 0.70125 0.0
H3202 H 0.97244 0.26611 0.73915 0.0
H3203 H 0.92397 0.25236 0.72279 0.0
H3204 H 0.91294 0.2326 0.77583 0.0
H3205 H 0.92294 0.25178 0.75332 0.0
H3206 H 0.95751 0.23636 0.74227 0.0
H3207 H 0.94733 0.21698 0.76461 0.0
C3208 C 0.97021 0.27881 0.7185 0.0
C3209 C 0.95977 0.28067 0.70751 0.0
C3210 C 0.96408 0.26725 0.73082 0.0
C3211 C 0.94735 0.25753 0.73258 0.0
C3212 C 0.93691 0.2597 0.72177 0.0
C3213 C 0.94309 0.27128 0.70942 0.0
C3214 C 0.92246 0.23307 0.76839 0.0
C3215 C 0.92908 0.22295 0.77171 0.0
C3216 C 0.92818 0.24406 0.75549 0.0
C3217 C 0.94088 0.24544 0.74588 0.0
C3218 C 0.94766 0.23552 0.74938 0.0
C3219 C 0.9418 0.22439 0.76211 0.0
H3220 H 0.70467 0.68912 0.71385 0.0
H3221 H 0.7222 0.65729 0.69748 0.0
H3222 H 0.72565 0.70034 0.73557 0.0
H3223 H 0.74355 0.66879 0.71906 0.0
H3224 H 0.79016 0.71309 0.74527 0.0
H3225 H 0.76851 0.69872 0.72466 0.0
H3226 H 0.7332 0.68864 0.76177 0.0
H3227 H 0.75469 0.70225 0.78254 0.0
C3228 C 0.71312 0.68462 0.71491 0.0
C3229 C 0.71222 0.67272 0.70384 0.0
C3230 C 0.72498 0.69091 0.72737 0.0
C3231 C 0.73621 0.68545 0.7289 0.0
C3232 C 0.73508 0.67326 0.71802 0.0
C3233 C 0.72295 0.66671 0.70574 0.0
C3234 C 0.77778 0.70779 0.74903 0.0
C3235 C 0.77421 0.70944 0.76543 0.0
C3236 C 0.76542 0.69951 0.73726 0.0
C3237 C 0.74925 0.69285 0.74161 0.0
C3238 C 0.74561 0.69394 0.75807 0.0
C3239 C 0.75795 0.70187 0.76993 0.0
H3240 H 0.702 0.63293 0.65022 0.0
H3241 H 0.70507 0.66787 0.61458 0.0
H3242 H 0.71087 0.62017 0.62953 0.0
H3243 H 0.71322 0.65458 0.59363 0.0
H3244 H 0.71104 0.61288 0.54965 0.0
H3245 H 0.69908 0.62596 0.57467 0.0
H3246 H 0.73911 0.62747 0.61637 0.0
H3247 H 0.75209 0.61433 0.59256 0.0
C3248 C 0.70433 0.63768 0.63787 0.0
C3249 C 0.70283 0.6513 0.6339 0.0
C3250 C 0.70949 0.63047 0.62611 0.0
C3251 C 0.71268 0.63644 0.61008 0.0
C3252 C 0.71072 0.64975 0.60594 0.0
C3253 C 0.70612 0.65734 0.61787 0.0
C3254 C 0.71568 0.61478 0.5622 0.0
C3255 C 0.7348 0.61497 0.56776 0.0
C3256 C 0.70889 0.62371 0.57761 0.0
C3257 C 0.7184 0.62903 0.59786 0.0
C3258 C 0.73414 0.62465 0.60394 0.0
C3259 C 0.74183 0.61582 0.58945 0.0
H3260 H 0.32548 0.0546 0.64627 0.0
H3261 H 0.36006 0.04073 0.63075 0.0
H3262 H 0.3334 0.07409 0.62379 0.0
H3263 H 0.36789 0.05999 0.60822 0.0
H3264 H 0.36484 0.0838 0.56041 0.0
H3265 H 0.35501 0.06383 0.58196 0.0
H3266 H 0.35923 0.10051 0.61683 0.0
H3267 H 0.36965 0.12087 0.59534 0.0
C3268 C 0.33477 0.05578 0.63802 0.0
C3269 C 0.34258 0.04668 0.64043 0.0
C3270 C 0.3393 0.06688 0.62522 0.0
C3271 C 0.35131 0.06859 0.61435 0.0
C3272 C 0.35857 0.05888 0.61638 0.0
C3273 C 0.35423 0.04802 0.62933 0.0
C3274 C 0.36395 0.08783 0.57265 0.0
C3275 C 0.36866 0.10423 0.57625 0.0
C3276 C 0.35822 0.07627 0.58501 0.0
C3277 C 0.35658 0.08068 0.6011 0.0
C3278 C 0.36048 0.09681 0.60455 0.0
C3279 C 0.3665 0.10845 0.59228 0.0
H3280 H 0.95068 0.26773 0.62935 0.0
H3281 H 0.94692 0.3106 0.64024 0.0
H3282 H 0.93092 0.26041 0.60697 0.0
H3283 H 0.92734 0.30337 0.61759 0.0
H3284 H 0.87949 0.2751 0.58819 0.0
H3285 H 0.89974 0.28308 0.61038 0.0
H3286 H 0.92762 0.269 0.57984 0.0
H3287 H 0.90718 0.26073 0.55782 0.0
C3288 C 0.94576 0.27569 0.62691 0.0
C3289 C 0.95043 0.28977 0.63666 0.0
C3290 C 0.93446 0.27151 0.614 0.0
C3291 C 0.92753 0.28129 0.61047 0.0
C3292 C 0.93228 0.29545 0.62011 0.0
C3293 C 0.94359 0.29964 0.63305 0.0
C3294 C 0.8899 0.27363 0.5863 0.0
C3295 C 0.8916 0.267 0.57141 0.0
C3296 C 0.90158 0.27833 0.59893 0.0
C3297 C 0.91527 0.27662 0.59692 0.0
C3298 C 0.91708 0.27022 0.58191 0.0
C3299 C 0.90541 0.26552 0.56929 0.0
H3300 H 0.33188 0.27605 0.65174 0.0
H3301 H 0.36394 0.32549 0.63776 0.0
H3302 H 0.3415 0.26607 0.62889 0.0
H3303 H 0.37325 0.31559 0.61475 0.0
H3304 H 0.36733 0.28803 0.56459 0.0
H3305 H 0.35744 0.29693 0.58787 0.0
H3306 H 0.37136 0.27034 0.62096 0.0
H3307 H 0.3818 0.26187 0.59786 0.0
C3308 C 0.34104 0.28472 0.6438 0.0
C3309 C 0.34756 0.30148 0.64666 0.0
C3310 C 0.34651 0.27906 0.63081 0.0
C3311 C 0.35811 0.2901 0.62016 0.0
C3312 C 0.36429 0.30686 0.6228 0.0
C3313 C 0.35908 0.3125 0.63598 0.0
C3314 C 0.3682 0.28402 0.57683 0.0
C3315 C 0.37518 0.27411 0.5793 0.0
C3316 C 0.3626 0.28914 0.59011 0.0
C3317 C 0.36363 0.28424 0.60612 0.0
C3318 C 0.37033 0.27413 0.60867 0.0
C3319 C 0.37627 0.26928 0.59541 0.0
H3320 H 0.73447 0.04919 0.61866 0.0
H3321 H 0.69394 0.0559 0.62971 0.0
H3322 H 0.74129 0.06812 0.596 0.0
H3323 H 0.70064 0.07453 0.60704 0.0
H3324 H 0.72483 0.11863 0.57513 0.0
H3325 H 0.72104 0.10158 0.5989 0.0
H3326 H 0.7303 0.06933 0.56874 0.0
H3327 H 0.73437 0.0866 0.54507 0.0
C3328 C 0.72699 0.05464 0.61627 0.0
C3329 C 0.71363 0.05095 0.62603 0.0
C3330 C 0.73089 0.06546 0.60325 0.0
C3331 C 0.72155 0.07288 0.59976 0.0
C3332 C 0.70825 0.06924 0.60956 0.0
C3333 C 0.70433 0.05842 0.6225 0.0
C3334 C 0.72633 0.10806 0.57369 0.0
C3335 C 0.73009 0.10404 0.55831 0.0
C3336 C 0.72402 0.09821 0.58724 0.0
C3337 C 0.72531 0.08405 0.5857 0.0
C3338 C 0.72942 0.08025 0.5704 0.0
C3339 C 0.73171 0.0901 0.55684 0.0
H3340 H 0.94352 0.68007 0.6457 0.0
H3341 H 0.95691 0.64327 0.63717 0.0
H3342 H 0.9266 0.67114 0.62043 0.0
H3343 H 0.94023 0.63437 0.61205 0.0
H3344 H 0.89656 0.61146 0.57766 0.0
H3345 H 0.91178 0.62065 0.60363 0.0
H3346 H 0.92949 0.67064 0.59016 0.0
H3347 H 0.91443 0.66137 0.56393 0.0
C3348 C 0.94275 0.67004 0.63842 0.0
C3349 C 0.95099 0.66195 0.64356 0.0
C3350 C 0.93316 0.66497 0.62397 0.0
C3351 C 0.93191 0.6519 0.61436 0.0
C3352 C 0.94062 0.64421 0.61936 0.0
C3353 C 0.95014 0.64927 0.63373 0.0
C3354 C 0.90366 0.6244 0.58029 0.0
C3355 C 0.90446 0.6357 0.56872 0.0
C3356 C 0.91236 0.62968 0.59518 0.0
C3357 C 0.92185 0.64638 0.59899 0.0
C3358 C 0.92218 0.65769 0.58766 0.0
C3359 C 0.91364 0.6524 0.57263 0.0
H3360 H 0.97417 0.70329 0.71322 0.0
H3361 H 0.93098 0.65784 0.72241 0.0
H3362 H 0.96804 0.71613 0.73599 0.0
H3363 H 0.92483 0.6708 0.74507 0.0
H3364 H 0.93266 0.69489 0.79707 0.0
H3365 H 0.93631 0.68172 0.77281 0.0
H3366 H 0.94849 0.7246 0.74456 0.0
H3367 H 0.94492 0.7378 0.76893 0.0
C3368 C 0.96332 0.69604 0.72 0.0
C3369 C 0.95314 0.67948 0.71601 0.0
C3370 C 0.95976 0.70345 0.733 0.0
C3371 C 0.94597 0.69447 0.74236 0.0
C3372 C 0.93565 0.67799 0.73821 0.0
C3373 C 0.93916 0.67059 0.72517 0.0
C3374 C 0.93589 0.7014 0.78561 0.0
C3375 C 0.93842 0.71732 0.78485 0.0
C3376 C 0.93795 0.69385 0.77171 0.0
C3377 C 0.94272 0.70213 0.75677 0.0
C3378 C 0.94496 0.71797 0.75594 0.0
C3379 C 0.94281 0.72548 0.76982 0.0
H3380 H 0.34773 0.29948 0.73398 0.0
H3381 H 0.30487 0.27531 0.70294 0.0
H3382 H 0.33385 0.28056 0.75588 0.0
H3383 H 0.29124 0.25566 0.72432 0.0
H3384 H 0.26521 0.23395 0.77149 0.0
H3385 H 0.27912 0.25208 0.74921 0.0
H3386 H 0.32368 0.25452 0.76553 0.0
H3387 H 0.30989 0.23746 0.78867 0.0
C3388 C 0.33539 0.28994 0.73178 0.0
C3389 C 0.32733 0.28895 0.71683 0.0
C3390 C 0.32743 0.27897 0.74429 0.0
C3391 C 0.31132 0.26648 0.742 0.0
C3392 C 0.30346 0.2653 0.7268 0.0
C3393 C 0.31131 0.27651 0.71445 0.0
C3394 C 0.27803 0.23858 0.7705 0.0
C3395 C 0.28657 0.23477 0.78227 0.0
C3396 C 0.28602 0.24881 0.7575 0.0
C3397 C 0.30266 0.25504 0.75554 0.0
C3398 C 0.31099 0.25046 0.76684 0.0
C3399 C 0.30306 0.24053 0.78006 0.0
H3400 H 0.72967 0.06673 0.69453 0.0
H3401 H 0.71277 0.01656 0.70629 0.0
H3402 H 0.74768 0.07542 0.71904 0.0
H3403 H 0.7309 0.0251 0.73041 0.0
H3404 H 0.7756 0.04634 0.76397 0.0
H3405 H 0.76114 0.04025 0.73742 0.0
H3406 H 0.74296 0.07254 0.75021 0.0
H3407 H 0.75709 0.07833 0.77694 0.0
C3408 C 0.73004 0.05762 0.70223 0.0
C3409 C 0.72036 0.04102 0.69828 0.0
C3410 C 0.74026 0.06255 0.71621 0.0
C3411 C 0.74083 0.05092 0.72647 0.0
C3412 C 0.73098 0.03433 0.72253 0.0
C3413 C 0.72068 0.02944 0.70871 0.0
C3414 C 0.76853 0.05215 0.76108 0.0
C3415 C 0.76718 0.06253 0.77267 0.0
C3416 C 0.76032 0.04871 0.74589 0.0
C3417 C 0.75089 0.05588 0.7418 0.0
C3418 C 0.75022 0.06692 0.75301 0.0
C3419 C 0.75822 0.07015 0.76833 0.0
H3420 H 0.01717 0.30792 0.02521 0.0
H3421 H 0.06034 0.35404 0.0349 0.0
H3422 H 0.02797 0.29442 0.04229 0.0
H3423 H 0.07124 0.34036 0.05184 0.0
H3424 H 0.08481 0.31643 0.10115 0.0
H3425 H 0.0715 0.33144 0.07985 0.0
H3426 H 0.04305 0.28067 0.0446 0.0
H3427 H 0.05563 0.26444 0.06497 0.0
C3428 C 0.02902 0.31519 0.03088 0.0
C3429 C 0.03784 0.33211 0.02872 0.0
C3430 C 0.03528 0.30739 0.04058 0.0
C3431 C 0.05044 0.31633 0.04843 0.0
C3432 C 0.0594 0.33319 0.04613 0.0
C3433 C 0.0532 0.341 0.03631 0.0
C3434 C 0.07659 0.30966 0.09106 0.0
C3435 C 0.07391 0.28979 0.08347 0.0
C3436 C 0.06887 0.31913 0.07724 0.0
C3437 C 0.05666 0.30816 0.05931 0.0
C3438 C 0.05076 0.28706 0.05514 0.0
C3439 C 0.0579 0.27654 0.0682 0.0
H3440 H 0.65346 0.69972 0.03713 0.0
H3441 H 0.68993 0.68942 0.05623 0.0
H3442 H 0.66476 0.72448 0.05445 0.0
H3443 H 0.70127 0.71416 0.07328 0.0
H3444 H 0.73321 0.77227 0.09558 0.0
H3445 H 0.71977 0.74365 0.07438 0.0
H3446 H 0.66362 0.73279 0.08418 0.0
H3447 H 0.67562 0.76116 0.1058 0.0
C3448 C 0.66396 0.70283 0.0449 0.0
C3449 C 0.6708 0.69264 0.04537 0.0
C3450 C 0.67035 0.71692 0.05486 0.0
C3451 C 0.68389 0.72122 0.06514 0.0
C3452 C 0.69096 0.71126 0.0653 0.0
C3453 C 0.68439 0.69703 0.05563 0.0
C3454 C 0.72031 0.76453 0.09412 0.0
C3455 C 0.70596 0.77136 0.10054 0.0
C3456 C 0.71185 0.74717 0.08027 0.0
C3457 C 0.69037 0.73573 0.07607 0.0
C3458 C 0.67644 0.74041 0.08635 0.0
C3459 C 0.68371 0.75754 0.10046 0.0
H3460 H 0.28435 0.95515 0.00878 0.0
H3461 H 0.30004 0.99038 0.04892 0.0
H3462 H 0.25754 0.94043 0.02064 0.0
H3463 H 0.27355 0.97569 0.06076 0.0
H3464 H 0.22005 0.95588 0.0679 0.0
H3465 H 0.24609 0.97002 0.05475 0.0
H3466 H 0.24413 0.92403 0.04515 0.0
H3467 H 0.21788 0.90986 0.05818 0.0
C3468 C 0.28208 0.95975 0.02009 0.0
C3469 C 0.2943 0.97394 0.02788 0.0
C3470 C 0.26678 0.95128 0.02693 0.0
C3471 C 0.26341 0.95693 0.04161 0.0
C3472 C 0.27566 0.97114 0.04932 0.0
C3473 C 0.29089 0.97952 0.04255 0.0
C3474 C 0.22525 0.94882 0.0631 0.0
C3475 C 0.21712 0.93181 0.0644 0.0
C3476 C 0.24016 0.9569 0.05557 0.0
C3477 C 0.24724 0.94816 0.04902 0.0
C3478 C 0.23896 0.9311 0.05 0.0
C3479 C 0.22403 0.92301 0.0576 0.0
H3480 H 0.31252 0.01576 0.97937 0.0
H3481 H 0.35042 0.0611 1.00024 0.0
H3482 H 0.30031 0.03024 0.96631 0.0
H3483 H 0.33787 0.07551 0.98769 0.0
H3484 H 0.27343 0.05859 0.95948 0.0
H3485 H 0.28584 0.044 0.97209 0.0
H3486 H 0.33301 0.08433 0.9622 0.0
H3487 H 0.32055 0.09914 0.95034 0.0
C3488 C 0.31818 0.0288 0.9813 0.0
C3489 C 0.33248 0.03726 0.99084 0.0
C3490 C 0.31112 0.03712 0.97386 0.0
C3491 C 0.31807 0.05408 0.97592 0.0
C3492 C 0.33232 0.0625 0.98556 0.0
C3493 C 0.33948 0.05421 0.99286 0.0
C3494 C 0.28645 0.06423 0.95988 0.0
C3495 C 0.29598 0.07983 0.95356 0.0
C3496 C 0.29358 0.05586 0.96705 0.0
C3497 C 0.31046 0.06292 0.9681 0.0
C3498 C 0.31999 0.07856 0.96178 0.0
C3499 C 0.31285 0.08699 0.95476 0.0
H3500 H 0.95613 0.29104 0.98829 0.0
H3501 H 0.00159 0.29778 0.97129 0.0
H3502 H 0.94192 0.26564 0.97191 0.0
H3503 H 0.9875 0.27239 0.95533 0.0
H3504 H 0.95919 0.21395 0.93374 0.0
H3505 H 0.97487 0.24222 0.95542 0.0
H3506 H 0.93346 0.25836 0.94105 0.0
H3507 H 0.91672 0.23054 0.91883 0.0
C3508 C 0.96306 0.28693 0.98131 0.0
C3509 C 0.97992 0.29634 0.98098 0.0
C3510 C 0.95496 0.27251 0.97188 0.0
C3511 C 0.96365 0.26712 0.96241 0.0
C3512 C 0.98052 0.27617 0.96268 0.0
C3513 C 0.98857 0.29075 0.97173 0.0
C3514 C 0.95486 0.22257 0.9345 0.0
C3515 C 0.93462 0.21768 0.92631 0.0
C3516 C 0.96402 0.23971 0.94862 0.0
C3517 C 0.95526 0.25268 0.95151 0.0
C3518 C 0.93782 0.24981 0.93965 0.0
C3519 C 0.92779 0.23304 0.92517 0.0
H3520 H 0.6966 0.6865 0.99746 0.0
H3521 H 0.69216 0.64103 0.98011 0.0
H3522 H 0.72208 0.70134 0.98336 0.0
H3523 H 0.7173 0.65585 0.96574 0.0
H3524 H 0.77158 0.68607 0.95968 0.0
H3525 H 0.74551 0.67159 0.97264 0.0
H3526 H 0.73417 0.70832 0.9565 0.0
H3527 H 0.76054 0.72303 0.94385 0.0
C3528 C 0.70095 0.67967 0.99051 0.0
C3529 C 0.69235 0.66255 0.99003 0.0
C3530 C 0.71552 0.68819 0.98236 0.0
C3531 C 0.7218 0.67979 0.9735 0.0
C3532 C 0.71299 0.66271 0.97271 0.0
C3533 C 0.6985 0.6542 0.9809 0.0
C3534 C 0.76344 0.69095 0.95878 0.0
C3535 C 0.76797 0.70553 0.95051 0.0
C3536 C 0.74848 0.68264 0.96616 0.0
C3537 C 0.73767 0.68871 0.9655 0.0
C3538 C 0.74225 0.70336 0.95733 0.0
C3539 C 0.75727 0.71171 0.94996 0.0
H3540 H 0.95216 0.6703 0.01341 0.0
H3541 H 0.98128 0.68779 0.97026 0.0
H3542 H 0.93582 0.682 0.00368 0.0
H3543 H 0.96475 0.69915 0.96035 0.0
H3544 H 0.94328 0.73333 0.95799 0.0
H3545 H 0.9594 0.72106 0.96685 0.0
H3546 H 0.91623 0.67849 0.98239 0.0
H3547 H 0.90023 0.69098 0.97384 0.0
C3548 C 0.95501 0.67656 0.00181 0.0
C3549 C 0.96803 0.67814 0.99263 0.0
C3550 C 0.94559 0.68318 0.99617 0.0
C3551 C 0.94896 0.69151 0.98122 0.0
C3552 C 0.96195 0.69301 0.97202 0.0
C3553 C 0.97137 0.68641 0.97766 0.0
C3554 C 0.93726 0.72127 0.96312 0.0
C3555 C 0.92049 0.71302 0.96505 0.0
C3556 C 0.94646 0.71422 0.96817 0.0
C3557 C 0.93911 0.69878 0.97534 0.0
C3558 C 0.9223 0.69048 0.97711 0.0
C3559 C 0.91312 0.69754 0.97207 0.0
H3560 H 0.35622 0.3136 0.9731 0.0
H3561 H 0.31373 0.31454 0.98918 0.0
H3562 H 0.33925 0.28827 0.95792 0.0
H3563 H 0.29677 0.28913 0.97387 0.0
H3564 H 0.27391 0.23364 0.96049 0.0
H3565 H 0.28986 0.25968 0.97529 0.0
H3566 H 0.32044 0.27885 0.93336 0.0
H3567 H 0.30454 0.25292 0.91863 0.0
C3568 C 0.34327 0.30845 0.97337 0.0
C3569 C 0.33636 0.31615 0.98235 0.0
C3570 C 0.33355 0.29397 0.96459 0.0
C3571 C 0.31669 0.28674 0.9647 0.0
C3572 C 0.30973 0.29438 0.97367 0.0
C3573 C 0.31946 0.30899 0.98234 0.0
C3574 C 0.28406 0.24344 0.95449 0.0
C3575 C 0.28824 0.24113 0.93859 0.0
C3576 C 0.2931 0.25835 0.96289 0.0
C3577 C 0.30649 0.27122 0.95553 0.0
C3578 C 0.31037 0.26905 0.93945 0.0
C3579 C 0.30127 0.25422 0.93103 0.0
H3580 H 0.71362 0.04486 0.01553 0.0
H3581 H 0.69803 0.01319 0.97243 0.0
H3582 H 0.74045 0.06047 0.0042 0.0
H3583 H 0.72464 0.02898 0.96093 0.0
H3584 H 0.77881 0.05022 0.95373 0.0
H3585 H 0.75194 0.03453 0.96497 0.0
H3586 H 0.75443 0.07907 0.98243 0.0
H3587 H 0.78144 0.09464 0.97156 0.0
C3588 C 0.7159 0.04128 0.00362 0.0
C3589 C 0.70372 0.02778 0.9949 0.0
C3590 C 0.73124 0.05028 0.99706 0.0
C3591 C 0.73471 0.046 0.98163 0.0
C3592 C 0.72248 0.03249 0.97294 0.0
C3593 C 0.70718 0.02348 0.97951 0.0
C3594 C 0.77351 0.05662 0.95985 0.0
C3595 C 0.78212 0.07365 0.96161 0.0
C3596 C 0.75812 0.04766 0.96626 0.0
C3597 C 0.75101 0.05554 0.97462 0.0
C3598 C 0.75962 0.0726 0.97627 0.0
C3599 C 0.77502 0.08154 0.9699 0.0
H3600 H 0.69188 0.98762 0.03618 0.0
H3601 H 0.64739 0.94163 0.03556 0.0
H3602 H 0.70606 0.97452 0.04794 0.0
H3603 H 0.66158 0.92863 0.04772 0.0
H3604 H 0.69679 0.9083 0.0483 0.0
H3605 H 0.68097 0.92082 0.03945 0.0
H3606 H 0.7094 0.9619 0.07222 0.0
H3607 H 0.72549 0.94946 0.08072 0.0
C3608 C 0.68506 0.97475 0.0387 0.0
C3609 C 0.66847 0.96569 0.03482 0.0
C3610 C 0.6932 0.96725 0.04557 0.0
C3611 C 0.68498 0.95051 0.04878 0.0
C3612 C 0.66833 0.94151 0.0452 0.0
C3613 C 0.66018 0.94899 0.03829 0.0
C3614 C 0.69946 0.91987 0.0538 0.0
C3615 C 0.71221 0.92779 0.06536 0.0
C3616 C 0.69037 0.92705 0.04877 0.0
C3617 C 0.69389 0.94237 0.05513 0.0
C3618 C 0.70647 0.95016 0.06695 0.0
C3619 C 0.71558 0.94298 0.07196 0.0
H3620 H 0.011 0.70245 0.04287 0.0
H3621 H 0.05526 0.71301 0.01935 0.0
H3622 H 0.02405 0.72992 0.05471 0.0
H3623 H 0.06805 0.74063 0.03036 0.0
H3624 H 0.09198 0.78637 0.06063 0.0
H3625 H 0.0787 0.75749 0.05351 0.0
H3626 H 0.03326 0.7569 0.04788 0.0
H3627 H 0.04643 0.78548 0.05619 0.0
C3628 C 0.0235 0.71067 0.04017 0.0
C3629 C 0.03209 0.70554 0.03016 0.0
C3630 C 0.03098 0.72648 0.04688 0.0
C3631 C 0.04715 0.73763 0.04351 0.0
C3632 C 0.05572 0.73238 0.03357 0.0
C3633 C 0.04833 0.71652 0.02712 0.0
C3634 C 0.07912 0.78 0.05801 0.0
C3635 C 0.07034 0.78831 0.05849 0.0
C3636 C 0.0715 0.76345 0.05378 0.0
C3637 C 0.05492 0.75483 0.04972 0.0
C3638 C 0.04602 0.76303 0.05095 0.0
C3639 C 0.0536 0.77951 0.0555 0.0
H3640 H 0.31436 0.33009 0.05341 0.0
H3641 H 0.29918 0.35114 0.01489 0.0
H3642 H 0.2874 0.31737 0.0646 0.0
H3643 H 0.27211 0.338 0.02567 0.0
H3644 H 0.22792 0.32301 0.05542 0.0
H3645 H 0.25608 0.33793 0.04772 0.0
H3646 H 0.26092 0.29576 0.05823 0.0
H3647 H 0.23291 0.28114 0.06658 0.0
C3648 C 0.30526 0.332 0.04734 0.0
C3649 C 0.30889 0.34161 0.03326 0.0
C3650 C 0.28977 0.32463 0.05369 0.0
C3651 C 0.27752 0.3266 0.04604 0.0
C3652 C 0.28127 0.33642 0.03207 0.0
C3653 C 0.29679 0.34389 0.02581 0.0
C3654 C 0.23509 0.31703 0.05628 0.0
C3655 C 0.22822 0.3009 0.06153 0.0
C3656 C 0.25119 0.32552 0.05173 0.0
C3657 C 0.26077 0.31802 0.05217 0.0
C3658 C 0.25399 0.30201 0.05789 0.0
C3659 C 0.23791 0.29357 0.06257 0.0
H3660 H 0.68546 0.64507 0.35834 0.0
H3661 H 0.70686 0.6868 0.39137 0.0
H3662 H 0.69656 0.63171 0.37532 0.0
H3663 H 0.71686 0.67315 0.4091 0.0
H3664 H 0.75037 0.65393 0.43925 0.0
H3665 H 0.7352 0.6684 0.42042 0.0
H3666 H 0.69664 0.61417 0.39366 0.0
H3667 H 0.71155 0.5987 0.41155 0.0
C3668 C 0.69235 0.65124 0.36942 0.0
C3669 C 0.69543 0.66698 0.37351 0.0
C3670 C 0.69864 0.64354 0.3793 0.0
C3671 C 0.70775 0.65125 0.39372 0.0
C3672 C 0.7104 0.66687 0.39794 0.0
C3673 C 0.70452 0.67473 0.38783 0.0
C3674 C 0.73999 0.64651 0.43134 0.0
C3675 C 0.73442 0.62535 0.42508 0.0
C3676 C 0.7307 0.65549 0.41901 0.0
C3677 C 0.71469 0.64325 0.40412 0.0
C3678 C 0.70669 0.62143 0.40196 0.0
C3679 C 0.71531 0.6114 0.41374 0.0
H3680 H 0.35664 0.02541 0.38856 0.0
H3681 H 0.32125 0.03533 0.36587 0.0
H3682 H 0.37136 0.0532 0.39921 0.0
H3683 H 0.33537 0.06288 0.37734 0.0
H3684 H 0.36877 0.12289 0.38853 0.0
H3685 H 0.35294 0.09008 0.37515 0.0
H3686 H 0.37932 0.07286 0.41877 0.0
H3687 H 0.39581 0.10523 0.43287 0.0
C3688 C 0.35193 0.03353 0.38601 0.0
C3689 C 0.33783 0.02821 0.37633 0.0
C3690 C 0.3603 0.0495 0.39226 0.0
C3691 C 0.35461 0.06045 0.38925 0.0
C3692 C 0.3404 0.05502 0.37967 0.0
C3693 C 0.33219 0.03913 0.37316 0.0
C3694 C 0.37112 0.11373 0.39367 0.0
C3695 C 0.38172 0.11673 0.41395 0.0
C3696 C 0.36069 0.093 0.38596 0.0
C3697 C 0.36345 0.0774 0.39594 0.0
C3698 C 0.37756 0.08222 0.41318 0.0
C3699 C 0.38852 0.10259 0.42171 0.0
H3700 H 0.97621 0.32042 0.3776 0.0
H3701 H 0.9619 0.28321 0.33963 0.0
H3702 H 0.94918 0.30618 0.38859 0.0
H3703 H 0.93474 0.26917 0.35035 0.0
H3704 H 0.89294 0.2393 0.38403 0.0
H3705 H 0.92023 0.25361 0.37361 0.0
H3706 H 0.92183 0.29958 0.38229 0.0
H3707 H 0.8947 0.28521 0.39315 0.0
C3708 C 0.96725 0.30926 0.37152 0.0
C3709 C 0.9712 0.30293 0.35776 0.0
C3710 C 0.95173 0.30113 0.37778 0.0
C3711 C 0.93977 0.2865 0.37039 0.0
C3712 C 0.94371 0.28026 0.35652 0.0
C3713 C 0.95925 0.28837 0.35029 0.0
C3714 C 0.89924 0.25247 0.38392 0.0
C3715 C 0.89184 0.26116 0.38978 0.0
C3716 C 0.9148 0.26068 0.37778 0.0
C3717 C 0.92327 0.27777 0.37713 0.0
C3718 C 0.91579 0.28644 0.38288 0.0
C3719 C 0.90024 0.27822 0.38907 0.0
H3720 H 0.03506 0.37792 0.30166 0.0
H3721 H 0.98702 0.34404 0.31725 0.0
H3722 H 0.02485 0.39381 0.28784 0.0
H3723 H 0.97683 0.36026 0.30371 0.0
H3724 H 0.96215 0.38795 0.26774 0.0
H3725 H 0.97181 0.3699 0.27785 0.0
H3726 H 0.01518 0.41165 0.29703 0.0
H3727 H 0.00566 0.42958 0.28662 0.0
C3728 C 0.02228 0.3738 0.30206 0.0
C3729 C 0.01187 0.35979 0.31069 0.0
C3730 C 0.01645 0.38298 0.29421 0.0
C3731 C 1.00008 0.37848 0.29489 0.0
C3732 C 0.9895 0.36403 0.30286 0.0
C3733 C 0.99533 0.35474 0.31064 0.0
C3734 C 0.97384 0.39322 0.27393 0.0
C3735 C 0.98331 0.41018 0.27609 0.0
C3736 C 0.97931 0.3829 0.27983 0.0
C3737 C 0.99432 0.38932 0.28813 0.0
C3738 C 0.00373 0.4063 0.29036 0.0
C3739 C 0.99827 0.41659 0.28446 0.0
H3740 H 0.62719 0.62089 0.33994 0.0
H3741 H 0.65413 0.64199 0.29612 0.0
H3742 H 0.61318 0.59425 0.32591 0.0
H3743 H 0.63989 0.61544 0.28204 0.0
H3744 H 0.59675 0.56533 0.24966 0.0
H3745 H 0.61437 0.59663 0.26641 0.0
H3746 H 0.61767 0.57036 0.31856 0.0
H3747 H 0.59996 0.53835 0.30326 0.0
C3748 C 0.63005 0.61984 0.32731 0.0
C3749 C 0.64175 0.63348 0.31911 0.0
C3750 C 0.62211 0.60461 0.31933 0.0
C3751 C 0.62546 0.60287 0.30292 0.0
C3752 C 0.63698 0.61652 0.29465 0.0
C3753 C 0.64519 0.63167 0.30274 0.0
C3754 C 0.60122 0.56633 0.26218 0.0
C3755 C 0.594 0.54835 0.27566 0.0
C3756 C 0.61157 0.58567 0.27294 0.0
C3757 C 0.61708 0.58685 0.29452 0.0
C3758 C 0.61359 0.56908 0.30586 0.0
C3759 C 0.60333 0.54918 0.29621 0.0
H3760 H 0.35869 0.96786 0.33713 0.0
H3761 H 0.35023 0.00588 0.31896 0.0
H3762 H 0.38275 0.97807 0.32103 0.0
H3763 H 0.37408 0.01575 0.30207 0.0
H3764 H 0.42736 0.03886 0.2877 0.0
H3765 H 0.4025 0.02923 0.3028 0.0
H3766 H 0.39172 0.97958 0.29437 0.0
H3767 H 0.41696 0.98929 0.28026 0.0
C3768 C 0.36188 0.97833 0.32953 0.0
C3769 C 0.35248 0.98602 0.3293 0.0
C3770 C 0.37566 0.98413 0.32014 0.0
C3771 C 0.38034 0.99764 0.31 0.0
C3772 C 0.37098 0.00542 0.30983 0.0
C3773 C 0.35726 0.99973 0.31946 0.0
C3774 C 0.41953 0.02588 0.28895 0.0
C3775 C 0.42403 0.01487 0.28256 0.0
C3776 C 0.40524 0.02034 0.29754 0.0
C3777 C 0.39505 0.0036 0.29991 0.0
C3778 C 0.39938 0.99257 0.29311 0.0
C3779 C 0.41378 0.99813 0.28477 0.0
H3780 H 0.64897 0.00452 0.30372 0.0
H3781 H 0.61712 0.98226 0.34423 0.0
H3782 H 0.63014 0.01253 0.29204 0.0
H3783 H 0.59864 0.99051 0.33287 0.0
H3784 H 0.56078 0.99272 0.30169 0.0
H3785 H 0.57991 0.98401 0.31019 0.0
H3786 H 0.61939 0.03084 0.29718 0.0
H3787 H 0.6001 0.03933 0.28818 0.0
C3788 C 0.63801 0.00141 0.31016 0.0
C3789 C 0.6345 0.9927 0.32485 0.0
C3790 C 0.62725 0.00604 0.3035 0.0
C3791 C 0.6128 0.00202 0.31143 0.0
C3792 C 0.60947 0.99349 0.32623 0.0
C3793 C 0.62015 0.98886 0.33282 0.0
C3794 C 0.57354 0.00106 0.30044 0.0
C3795 C 0.57896 0.0167 0.2943 0.0
C3796 C 0.58452 0.99613 0.30543 0.0
C3797 C 0.6012 0.0068 0.30457 0.0
C3798 C 0.60663 0.02228 0.2979 0.0
C3799 C 0.59561 0.02718 0.29282 0.0
H3800 H 0.99392 0.65021 0.30998 0.0
H3801 H 0.0402 0.65241 0.3139 0.0
H3802 H 0.98234 0.62316 0.29723 0.0
H3803 H 0.02856 0.62535 0.30191 0.0
H3804 H 0.00742 0.57953 0.27253 0.0
H3805 H 0.01769 0.60832 0.27856 0.0
H3806 H 0.97458 0.5964 0.30524 0.0
H3807 H 0.96394 0.56789 0.29833 0.0
C3808 C 0.00165 0.64501 0.30803 0.0
C3809 C 0.01799 0.6535 0.31307 0.0
C3810 C 0.99498 0.62943 0.30082 0.0
C3811 C 0.00446 0.62196 0.29861 0.0
C3812 C 0.0209 0.63074 0.30312 0.0
C3813 C 0.02759 0.64631 0.31016 0.0
C3814 C 1.00011 0.58311 0.27959 0.0
C3815 C 0.98519 0.57128 0.28552 0.0
C3816 C 0.00602 0.5996 0.28313 0.0
C3817 C 0.99716 0.60472 0.29276 0.0
C3818 C 0.98177 0.59298 0.29779 0.0
C3819 C 0.97575 0.57649 0.29403 0.0
H3820 H 0.35517 0.34142 0.30609 0.0
H3821 H 0.37476 0.38051 0.34249 0.0
H3822 H 0.38029 0.35475 0.29134 0.0
H3823 H 0.4 0.39394 0.32757 0.0
H3824 H 0.44795 0.40167 0.30474 0.0
H3825 H 0.42312 0.38954 0.32036 0.0
H3826 H 0.39524 0.37964 0.27504 0.0
H3827 H 0.42002 0.39171 0.25947 0.0
C3828 C 0.36485 0.35287 0.31096 0.0
C3829 C 0.36296 0.35992 0.32545 0.0
C3830 C 0.37922 0.36055 0.30244 0.0
C3831 C 0.39208 0.37545 0.30823 0.0
C3832 C 0.39031 0.38242 0.32286 0.0
C3833 C 0.37585 0.37477 0.33136 0.0
C3834 C 0.43651 0.39704 0.29816 0.0
C3835 C 0.43592 0.39772 0.2809 0.0
C3836 C 0.42232 0.39015 0.3071 0.0
C3837 C 0.40724 0.38359 0.29892 0.0
C3838 C 0.40667 0.38443 0.28167 0.0
C3839 C 0.42084 0.39141 0.27277 0.0
H3840 H 0.30964 0.28279 0.38109 0.0
H3841 H 0.35467 0.3268 0.37311 0.0
H3842 H 0.32436 0.26994 0.39217 0.0
H3843 H 0.36936 0.31377 0.38396 0.0
H3844 H 0.39133 0.28878 0.41391 0.0
H3845 H 0.3755 0.30225 0.40822 0.0
H3846 H 0.34103 0.26 0.37988 0.0
H3847 H 0.35672 0.2466 0.38574 0.0
C3848 C 0.32267 0.2898 0.38181 0.0
C3849 C 0.33095 0.30581 0.37604 0.0
C3850 C 0.33111 0.28238 0.38811 0.0
C3851 C 0.34803 0.29076 0.38879 0.0
C3852 C 0.35632 0.30701 0.38373 0.0
C3853 C 0.34787 0.31446 0.37743 0.0
C3854 C 0.38021 0.28233 0.40671 0.0
C3855 C 0.37518 0.2666 0.40036 0.0
C3856 C 0.37122 0.29006 0.40334 0.0
C3857 C 0.35699 0.28221 0.3936 0.0
C3858 C 0.35178 0.26631 0.38764 0.0
C3859 C 0.36079 0.25864 0.39094 0.0
H3860 H 0.71783 0.02397 0.37816 0.0
H3861 H 0.67354 0.02416 0.36654 0.0
H3862 H 0.73013 0.05215 0.38767 0.0
H3863 H 0.68601 0.0525 0.37579 0.0
H3864 H 0.71061 0.10195 0.40184 0.0
H3865 H 0.69768 0.0723 0.3987 0.0
H3866 H 0.73927 0.07747 0.37325 0.0
H3867 H 0.75215 0.10692 0.37659 0.0
C3868 C 0.71063 0.02994 0.37779 0.0
C3869 C 0.69472 0.0218 0.37138 0.0
C3870 C 0.71773 0.04615 0.38318 0.0
C3871 C 0.70914 0.05466 0.38228 0.0
C3872 C 0.69295 0.04627 0.37676 0.0
C3873 C 0.68581 0.03002 0.37138 0.0
C3874 C 0.71705 0.09666 0.39585 0.0
C3875 C 0.73243 0.10671 0.38957 0.0
C3876 C 0.70962 0.07972 0.39395 0.0
C3877 C 0.71744 0.0725 0.38574 0.0
C3878 C 0.733 0.08258 0.37988 0.0
C3879 C 0.74038 0.09947 0.38173 0.0
H3880 H 0.96598 0.67356 0.33959 0.0
H3881 H 0.98531 0.66519 0.3846 0.0
H3882 H 0.93979 0.66326 0.35225 0.0
H3883 H 0.95908 0.65509 0.39735 0.0
H3884 H 0.91898 0.66699 0.41652 0.0
H3885 H 0.94388 0.67043 0.40498 0.0
H3886 H 0.91664 0.63722 0.36501 0.0
H3887 H 0.89165 0.63338 0.37675 0.0
C3888 C 0.96457 0.66933 0.35212 0.0
C3889 C 0.97769 0.67026 0.36114 0.0
C3890 C 0.94956 0.66333 0.35932 0.0
C3891 C 0.94744 0.6584 0.37578 0.0
C3892 C 0.96043 0.65886 0.38466 0.0
C3893 C 0.97539 0.66459 0.37735 0.0
C3894 C 0.91828 0.66028 0.40536 0.0
C3895 C 0.90337 0.65051 0.39718 0.0
C3896 C 0.93252 0.66217 0.39883 0.0
C3897 C 0.93218 0.6543 0.38396 0.0
C3898 C 0.91723 0.64365 0.37634 0.0
C3899 C 0.90293 0.64154 0.38304 0.0
H3900 H 0.37489 0.03189 0.7229 0.0
H3901 H 0.35866 0.98956 0.69124 0.0
H3902 H 0.38763 0.02152 0.74147 0.0
H3903 H 0.37257 0.97961 0.70901 0.0
H3904 H 0.39446 0.95325 0.74632 0.0
H3905 H 0.376 0.96433 0.7276 0.0
H3906 H 0.40767 0.02036 0.75377 0.0
H3907 H 0.42624 0.01019 0.77342 0.0
C3908 C 0.37424 0.02038 0.7199 0.0
C3909 C 0.36582 0.01149 0.70571 0.0
C3910 C 0.38173 0.01444 0.73047 0.0
C3911 C 0.38143 0.9997 0.72683 0.0
C3912 C 0.3729 0.99081 0.71257 0.0
C3913 C 0.36497 0.99654 0.70224 0.0
C3914 C 0.39628 0.96539 0.74823 0.0
C3915 C 0.41423 0.98145 0.75967 0.0
C3916 C 0.38544 0.97277 0.73593 0.0
C3917 C 0.39019 0.99387 0.73764 0.0
C3918 C 0.40509 0.00791 0.7526 0.0
C3919 C 0.41647 0.00158 0.76545 0.0
H3920 H 0.97738 0.36104 0.6946 0.0
H3921 H 0.01615 0.3555 0.71585 0.0
H3922 H 0.98446 0.3842 0.71331 0.0
H3923 H 0.02336 0.37877 0.73429 0.0
H3924 H 0.04628 0.435 0.76124 0.0
H3925 H 0.03837 0.40877 0.73784 0.0
H3926 H 0.97926 0.38847 0.74338 0.0
H3927 H 0.98563 0.41419 0.76708 0.0
C3928 C 0.98757 0.36494 0.70308 0.0
C3929 C 0.99622 0.35648 0.7038 0.0
C3930 C 0.99153 0.37809 0.71385 0.0
C3931 C 0.00444 0.38323 0.72521 0.0
C3932 C 0.01346 0.37518 0.72551 0.0
C3933 C 0.00929 0.36181 0.71502 0.0
C3934 C 0.03388 0.42595 0.75854 0.0
C3935 C 0.01683 0.42907 0.76435 0.0
C3936 C 0.02883 0.41007 0.74336 0.0
C3937 C 0.00807 0.39645 0.7372 0.0
C3938 C 0.99155 0.39736 0.74675 0.0
C3939 C 0.99533 0.41279 0.76211 0.0
H3940 H 0.62537 0.61466 0.67837 0.0
H3941 H 0.642 0.65441 0.71377 0.0
H3942 H 0.5993 0.60106 0.69148 0.0
H3943 H 0.61607 0.64063 0.72715 0.0
H3944 H 0.56191 0.61987 0.73494 0.0
H3945 H 0.58833 0.6335 0.72245 0.0
H3946 H 0.58656 0.58718 0.71621 0.0
H3947 H 0.55994 0.57356 0.72828 0.0
C3948 C 0.62349 0.62046 0.689 0.0
C3949 C 0.63574 0.63562 0.69501 0.0
C3950 C 0.60857 0.61261 0.6966 0.0
C3951 C 0.60557 0.61973 0.71041 0.0
C3952 C 0.61788 0.6349 0.71642 0.0
C3953 C 0.63278 0.64276 0.7088 0.0
C3954 C 0.56728 0.61266 0.73107 0.0
C3955 C 0.55901 0.59571 0.73291 0.0
C3956 C 0.58243 0.62046 0.72395 0.0
C3957 C 0.58962 0.61146 0.71838 0.0
C3958 C 0.58133 0.59448 0.72022 0.0
C3959 C 0.56616 0.58668 0.72731 0.0
H3960 H 0.68833 0.71092 0.63629 0.0
H3961 H 0.64323 0.66936 0.64969 0.0
H3962 H 0.67379 0.72355 0.62441 0.0
H3963 H 0.62867 0.68225 0.63792 0.0
H3964 H 0.60788 0.70619 0.60296 0.0
H3965 H 0.62182 0.69167 0.61222 0.0
H3966 H 0.65879 0.73584 0.63591 0.0
H3967 H 0.64499 0.75027 0.62654 0.0
C3968 C 0.67529 0.7044 0.63664 0.0
C3969 C 0.66698 0.68916 0.64411 0.0
C3970 C 0.66697 0.71172 0.62988 0.0
C3971 C 0.6501 0.70402 0.63043 0.0
C3972 C 0.64168 0.68846 0.63724 0.0
C3973 C 0.65003 0.68109 0.64402 0.0
C3974 C 0.61907 0.71278 0.61001 0.0
C3975 C 0.62556 0.72945 0.61368 0.0
C3976 C 0.62698 0.70446 0.6154 0.0
C3977 C 0.64151 0.71265 0.62463 0.0
C3978 C 0.64782 0.72926 0.6285 0.0
C3979 C 0.63991 0.73753 0.62317 0.0
H3980 H 0.28775 0.96415 0.6641 0.0
H3981 H 0.33242 0.973 0.64285 0.0
H3982 H 0.27427 0.93677 0.6523 0.0
H3983 H 0.31924 0.94528 0.63183 0.0
H3984 H 0.29028 0.89462 0.59577 0.0
H3985 H 0.30714 0.92631 0.61141 0.0
H3986 H 0.26448 0.90942 0.65414 0.0
H3987 H 0.24656 0.87735 0.63923 0.0
C3988 C 0.29473 0.96013 0.65707 0.0
C3989 C 0.31113 0.97071 0.65437 0.0
C3990 C 0.28703 0.94433 0.65039 0.0
C3991 C 0.29562 0.93865 0.64111 0.0
C3992 C 0.31209 0.94923 0.63858 0.0
C3993 C 0.31973 0.96514 0.64502 0.0
C3994 C 0.28598 0.89712 0.60706 0.0
C3995 C 0.26516 0.88362 0.61414 0.0
C3996 C 0.29605 0.91711 0.61657 0.0
C3997 C 0.28737 0.9219 0.634 0.0
C3998 C 0.269 0.90657 0.64324 0.0
C3999 C 0.25808 0.88626 0.63455 0.0
H4000 H 0.02022 0.34736 0.64587 0.0
H4001 H 0.02881 0.30723 0.65474 0.0
H4002 H 0.04613 0.36191 0.63238 0.0
H4003 H 0.05478 0.32193 0.64215 0.0
H4004 H 0.09478 0.34417 0.60733 0.0
H4005 H 0.06754 0.33038 0.61729 0.0
H4006 H 0.07432 0.37597 0.63727 0.0
H4007 H 0.10139 0.38998 0.62622 0.0
C4008 C 0.02765 0.34168 0.64501 0.0
C4009 C 0.02237 0.32609 0.6513 0.0
C4010 C 0.04256 0.35005 0.63736 0.0
C4011 C 0.05259 0.3431 0.63603 0.0
C4012 C 0.04728 0.32756 0.64249 0.0
C4013 C 0.03236 0.31913 0.64986 0.0
C4014 C 0.09038 0.35136 0.61349 0.0
C4015 C 0.10021 0.36828 0.61573 0.0
C4016 C 0.07476 0.34338 0.61946 0.0
C4017 C 0.06868 0.35198 0.6283 0.0
C4018 C 0.07844 0.36894 0.63034 0.0
C4019 C 0.09399 0.37698 0.62409 0.0
H4020 H 0.33423 0.36228 0.64665 0.0
H4021 H 0.28866 0.32614 0.66573 0.0
H4022 H 0.32085 0.37561 0.63316 0.0
H4023 H 0.27528 0.33937 0.65201 0.0
H4024 H 0.25803 0.35552 0.60484 0.0
H4025 H 0.27104 0.34332 0.6208 0.0
H4026 H 0.30484 0.39046 0.64167 0.0
H4027 H 0.29152 0.40274 0.62596 0.0
C4028 C 0.32138 0.35722 0.64798 0.0
C4029 C 0.31247 0.34314 0.65718 0.0
C4030 C 0.31376 0.3649 0.64036 0.0
C4031 C 0.29706 0.35848 0.64156 0.0
C4032 C 0.28817 0.34449 0.65086 0.0
C4033 C 0.29583 0.33697 0.65873 0.0
C4034 C 0.26801 0.36327 0.61309 0.0
C4035 C 0.27348 0.38007 0.6145 0.0
C4036 C 0.27547 0.35626 0.62218 0.0
C4037 C 0.28883 0.36594 0.63254 0.0
C4038 C 0.29452 0.38275 0.63379 0.0
C4039 C 0.28687 0.38974 0.62489 0.0
H4040 H 0.65132 0.97601 0.64438 0.0
H4041 H 0.69521 0.9759 0.63231 0.0
H4042 H 0.63564 0.94772 0.63504 0.0
H4043 H 0.67949 0.94777 0.6227 0.0
H4044 H 0.64806 0.89295 0.63346 0.0
H4045 H 0.66428 0.92237 0.6369 0.0
H4046 H 0.62698 0.92803 0.61209 0.0
H4047 H 0.61062 0.89841 0.60888 0.0
C4048 C 0.65763 0.9701 0.63942 0.0
C4049 C 0.67457 0.97823 0.63931 0.0
C4050 C 0.64861 0.95387 0.63399 0.0
C4051 C 0.65632 0.94541 0.6283 0.0
C4052 C 0.67319 0.95383 0.62731 0.0
C4053 C 0.6822 0.97001 0.63276 0.0
C4054 C 0.64346 0.9005 0.62849 0.0
C4055 C 0.62814 0.8934 0.6208 0.0
C4056 C 0.65277 0.91737 0.63039 0.0
C4057 C 0.64695 0.92759 0.62475 0.0
C4058 C 0.63176 0.9205 0.61669 0.0
C4059 C 0.62245 0.90358 0.61473 0.0
H4060 H 0.01996 0.68014 0.64047 0.0
H4061 H 0.03407 0.71378 0.68187 0.0
H4062 H 0.04686 0.69609 0.62926 0.0
H4063 H 0.06094 0.72939 0.67101 0.0
H4064 H 0.10172 0.76392 0.64001 0.0
H4065 H 0.0742 0.74736 0.64908 0.0
H4066 H 0.07492 0.70386 0.63352 0.0
H4067 H 0.10239 0.72063 0.6239 0.0
C4068 C 0.02885 0.69084 0.64725 0.0
C4069 C 0.02486 0.69574 0.66201 0.0
C4070 C 0.04428 0.69996 0.64086 0.0
C4071 C 0.05605 0.71415 0.64913 0.0
C4072 C 0.0521 0.71877 0.66409 0.0
C4073 C 0.0367 0.70972 0.67041 0.0
C4074 C 0.09592 0.75084 0.63833 0.0
C4075 C 0.1042 0.74358 0.63124 0.0
C4076 C 0.08019 0.74131 0.64368 0.0
C4077 C 0.07238 0.72423 0.64227 0.0
C4078 C 0.08051 0.71697 0.63472 0.0
C4079 C 0.09625 0.72655 0.62926 0.0
H4080 H 0.00921 0.65475 0.70403 0.0
H4081 H 0.96089 0.61774 0.71563 0.0
H4082 H 0.01977 0.63824 0.71612 0.0
H4083 H 0.97148 0.60146 0.7279 0.0
H4084 H 0.99374 0.56802 0.72239 0.0
H4085 H 0.98304 0.586 0.71573 0.0
H4086 H 0.02371 0.62583 0.74117 0.0
H4087 H 0.0345 0.60772 0.74771 0.0
C4088 C 0.00087 0.64328 0.70947 0.0
C4089 C 0.98418 0.63748 0.70863 0.0
C4090 C 0.00693 0.63383 0.71644 0.0
C4091 C 0.99643 0.61842 0.72275 0.0
C4092 C 0.97985 0.61312 0.72282 0.0
C4093 C 0.9738 0.6225 0.71584 0.0
C4094 C 0.00027 0.58055 0.72677 0.0
C4095 C 0.0149 0.58646 0.73563 0.0
C4096 C 0.99412 0.59085 0.72302 0.0
C4097 C 0.00251 0.60735 0.72796 0.0
C4098 C 0.01703 0.61321 0.7371 0.0
C4099 C 0.02315 0.60286 0.74093 0.0
H4100 H 0.38879 0.36445 0.71367 0.0
H4101 H 0.34404 0.3646 0.70497 0.0
H4102 H 0.40102 0.39212 0.7248 0.0
H4103 H 0.35641 0.39237 0.71578 0.0
H4104 H 0.38042 0.44016 0.74427 0.0
H4105 H 0.36805 0.41075 0.73951 0.0
H4106 H 0.40967 0.41829 0.71242 0.0
H4107 H 0.42203 0.44751 0.71745 0.0
C4108 C 0.38148 0.37028 0.71429 0.0
C4109 C 0.36545 0.36229 0.70825 0.0
C4110 C 0.38854 0.3862 0.72059 0.0
C4111 C 0.37976 0.39454 0.72101 0.0
C4112 C 0.36349 0.38627 0.71577 0.0
C4113 C 0.35641 0.37034 0.70948 0.0
C4114 C 0.38701 0.43543 0.73759 0.0
C4115 C 0.40225 0.44608 0.73136 0.0
C4116 C 0.3799 0.41863 0.73475 0.0
C4117 C 0.38786 0.41215 0.72558 0.0
C4118 C 0.4033 0.42282 0.71977 0.0
C4119 C 0.41038 0.43957 0.72258 0.0
H4120 H 0.63759 0.01972 0.66804 0.0
H4121 H 0.65021 0.99903 0.70904 0.0
H4122 H 0.61369 0.01569 0.68214 0.0
H4123 H 0.62627 0.99522 0.72336 0.0
H4124 H 0.57245 0.97755 0.73554 0.0
H4125 H 0.59635 0.97995 0.72222 0.0
H4126 H 0.60835 0.02793 0.70592 0.0
H4127 H 0.58443 0.02538 0.71892 0.0
C4128 C 0.63523 0.01424 0.68006 0.0
C4129 C 0.64585 0.00978 0.68747 0.0
C4130 C 0.62158 0.01204 0.6882 0.0
C4131 C 0.61821 0.00537 0.70398 0.0
C4132 C 0.62852 0.00036 0.71119 0.0
C4133 C 0.64224 0.00256 0.703 0.0
C4134 C 0.58036 0.98867 0.72928 0.0
C4135 C 0.5767 0.00136 0.72842 0.0
C4136 C 0.59402 0.99006 0.72168 0.0
C4137 C 0.60418 0.00408 0.71292 0.0
C4138 C 0.60064 0.01686 0.71234 0.0
C4139 C 0.58703 0.01548 0.71993 0.0
loop_
_geom_bond_atom_site_label_1
_geom_bond_atom_site_label_2
_geom_bond_distance
_geom_bond_site_symmetry_2
_ccdc_geom_bond_type
Mn0 O5 2.095 1_655 S
Mn0 O15 2.162 . S
Mn0 O16 2.297 1_554 S
Mn0 O24 2.385 1_554 S
Mn0 O25 2.209 1_654 S
Mn0 O26 2.094 . S
Mn1 O6 2.121 . S
Mn1 N8 2.257 1_554 S
Mn1 N17 2.282 . S
Mn1 O25 2.215 1_554 S
Mn1 O27 2.117 . S
C2 O24 1.234 1_455 S
C2 O25 1.283 . S
C3 O15 1.281 1_556 S
C3 O16 1.236 . S
C4 O26 1.250 . S
C4 O27 1.237 1_655 S
O5 Mn0 2.095 1_455 S
O5 C14 1.250 . S
O6 Mn1 2.121 . S
O6 C14 1.258 . S
C7 N8 1.326 . S
C7 C11 1.460 . S
C7 H13 0.917 1_556 S
N8 Mn1 2.257 1_556 S
N8 C7 1.326 . S
N8 C12 1.362 . S
C9 C10 1.258 . S
C9 C12 1.431 . S
C9 C29 1.449 . S
C10 C9 1.258 . S
C10 C11 1.477 . S
C10 H30 0.931 . S
C11 C7 1.460 . S
C11 C10 1.477 . S
C11 H31 0.930 . S
C12 N8 1.362 . S
C12 C9 1.431 . S
C12 C22 1.476 . S
H13 C7 0.917 1_554 S
C14 O5 1.250 . S
C14 O6 1.258 . S
O15 Mn0 2.162 . S
O15 C3 1.281 1_554 S
O16 Mn0 2.297 1_556 S
O16 C3 1.236 . S
N17 Mn1 2.282 . S
N17 C18 1.328 . S
N17 C22 1.318 1_554 S
C18 N17 1.328 . S
C18 C19 1.440 1_554 S
C18 H23 0.929 . S
C19 C18 1.440 1_556 S
C19 C20 1.314 . S
C19 H32 0.922 1_556 S
C20 C19 1.314 . S
C20 C21 1.373 . S
C20 H33 0.929 . S
C21 C20 1.373 . S
C21 C22 1.396 . S
C21 C28 1.403 . S
C22 C12 1.476 . S
C22 N17 1.318 1_556 S
C22 C21 1.396 . S
H23 C18 0.929 . S
O24 Mn0 2.385 1_556 S
O24 C2 1.234 1_655 S
O25 Mn0 2.209 1_456 S
O25 Mn1 2.215 1_556 S
O25 C2 1.283 . S
O26 Mn0 2.094 . S
O26 C4 1.250 . S
O27 Mn1 2.117 . S
O27 C4 1.237 1_455 S
C28 C21 1.403 . S
C28 C29 1.399 . S
C28 H34 0.929 . S
C29 C9 1.449 . S
C29 C28 1.399 . S
C29 H35 0.930 . S
H30 C10 0.931 . S
H31 C11 0.930 . S
H32 C19 0.922 1_554 S
H33 C20 0.929 . S
H34 C28 0.929 . S
H35 C29 0.930 . S
Mn36 O41 2.095 1_554 S
Mn36 O51 2.162 . S
Mn36 O52 2.297 . S
Mn36 O60 2.385 . S
Mn36 O61 2.209 . S
Mn36 O62 2.094 1_554 S
Mn37 O42 2.121 1_554 S
Mn37 N44 2.257 . S
Mn37 N53 2.282 . S
Mn37 O61 2.215 . S
Mn37 O63 2.117 1_554 S
C38 O60 1.234 . S
C38 O61 1.283 . S
C39 O51 1.281 . S
C39 O52 1.236 . S
C40 O62 1.240 . S
C40 O63 1.264 . S
O41 Mn36 2.095 1_556 S
O41 C50 1.250 . S
O42 Mn37 2.121 1_556 S
O42 C50 1.258 . S
C43 N44 1.326 . S
C43 C47 1.460 . S
C43 H49 0.929 . S
N44 Mn37 2.257 . S
N44 C43 1.326 . S
N44 C48 1.362 . S
C45 C46 1.258 . S
C45 C48 1.431 . S
C45 C65 1.449 . S
C46 C45 1.258 . S
C46 C47 1.477 . S
C46 H66 0.931 . S
C47 C43 1.460 . S
C47 C46 1.477 . S
C47 H67 0.930 . S
C48 N44 1.362 . S
C48 C45 1.431 . S
C48 C58 1.476 . S
H49 C43 0.929 . S
C50 O41 1.250 . S
C50 O42 1.258 . S
O51 Mn36 2.162 . S
O51 C39 1.281 . S
O52 Mn36 2.297 . S
O52 C39 1.236 . S
N53 Mn37 2.282 . S
N53 C54 1.328 . S
N53 C58 1.318 . S
C54 N53 1.328 . S
C54 C55 1.457 . S
C54 H59 0.929 . S
C55 C54 1.457 . S
C55 C56 1.291 . S
C55 H68 0.931 . S
C56 C55 1.291 . S
C56 C57 1.373 . S
C56 H69 0.929 . S
C57 C56 1.373 . S
C57 C58 1.396 . S
C57 C64 1.403 . S
C58 C48 1.476 . S
C58 N53 1.318 . S
C58 C57 1.396 . S
H59 C54 0.929 . S
O60 Mn36 2.385 . S
O60 C38 1.234 . S
O61 Mn36 2.209 . S
O61 Mn37 2.215 . S
O61 C38 1.283 . S
O62 Mn36 2.094 1_556 S
O62 C40 1.240 . S
O63 Mn37 2.117 1_556 S
O63 C40 1.264 . S
C64 C57 1.403 . S
C64 C65 1.399 . S
C64 H70 0.929 . S
C65 C45 1.449 . S
C65 C64 1.399 . S
C65 H71 0.930 . S
H66 C46 0.931 . S
H67 C47 0.930 . S
H68 C55 0.931 . S
H69 C56 0.929 . S
H70 C64 0.929 . S
H71 C65 0.930 . S
Mn72 O77 2.095 1_564 S
Mn72 O87 2.162 . S
Mn72 O88 2.297 . S
Mn72 O96 2.385 . S
Mn72 O97 2.209 1_565 S
Mn72 O98 2.094 1_554 S
Mn73 O78 2.111 1_554 S
Mn73 N80 2.295 . S
Mn73 N89 2.306 . S
Mn73 O97 2.262 . S
Mn73 O99 2.081 1_554 S
C74 O96 1.234 1_545 S
C74 O97 1.283 . S
C75 O87 1.281 . S
C75 O88 1.236 . S
C76 O98 1.240 . S
C76 O99 1.264 1_565 S
O77 Mn72 2.095 1_546 S
O77 C86 1.250 . S
O78 Mn73 2.111 1_556 S
O78 C86 1.258 . S
C79 N80 1.326 . S
C79 C83 1.460 . S
C79 H85 0.929 . S
N80 Mn73 2.295 . S
N80 C79 1.326 . S
N80 C84 1.362 . S
C81 C82 1.258 . S
C81 C84 1.431 . S
C81 C101 1.449 . S
C82 C81 1.258 . S
C82 C83 1.477 . S
C82 H102 0.931 . S
C83 C79 1.460 . S
C83 C82 1.477 . S
C83 H103 0.930 . S
C84 N80 1.362 . S
C84 C81 1.431 . S
C84 C94 1.476 . S
H85 C79 0.929 . S
C86 O77 1.250 . S
C86 O78 1.258 . S
O87 Mn72 2.162 . S
O87 C75 1.281 . S
O88 Mn72 2.297 . S
O88 C75 1.236 . S
N89 Mn73 2.306 . S
N89 C90 1.328 . S
N89 C94 1.318 . S
C90 N89 1.328 . S
C90 C91 1.457 . S
C90 H95 0.929 . S
C91 C90 1.457 . S
C91 C92 1.291 . S
C91 H104 0.931 . S
C92 C91 1.291 . S
C92 C93 1.373 . S
C92 H105 0.929 . S
C93 C92 1.373 . S
C93 C94 1.396 . S
C93 C100 1.403 . S
C94 C84 1.476 . S
C94 N89 1.318 . S
C94 C93 1.396 . S
H95 C90 0.929 . S
O96 Mn72 2.385 . S
O96 C74 1.234 1_565 S
O97 Mn72 2.209 1_545 S
O97 Mn73 2.262 . S
O97 C74 1.283 . S
O98 Mn72 2.094 1_556 S
O98 C76 1.240 . S
O99 Mn73 2.081 1_556 S
O99 C76 1.264 1_545 S
C100 C93 1.403 . S
C100 C101 1.399 . S
C100 H106 0.929 . S
C101 C81 1.449 . S
C101 C100 1.399 . S
C101 H107 0.930 . S
H102 C82 0.931 . S
H103 C83 0.930 . S
H104 C91 0.931 . S
H105 C92 0.929 . S
H106 C100 0.929 . S
H107 C101 0.930 . S
Mn108 O113 2.095 1_655 S
Mn108 O123 2.162 . S
Mn108 O124 2.297 1_554 S
Mn108 O132 2.385 1_554 S
Mn108 O133 2.209 1_654 S
Mn108 O134 2.094 . S
Mn109 O114 2.121 . S
Mn109 N116 2.257 . S
Mn109 N125 2.282 . S
Mn109 O133 2.215 1_554 S
Mn109 O135 2.117 . S
C110 O132 1.234 1_455 S
C110 O133 1.283 . S
C111 O123 1.281 1_556 S
C111 O124 1.236 . S
C112 O134 1.240 . S
C112 O135 1.264 1_655 S
O113 Mn108 2.095 1_455 S
O113 C122 1.250 . S
O114 Mn109 2.121 . S
O114 C122 1.258 . S
C115 N116 1.331 . S
C115 C119 1.445 1_554 S
C115 H121 0.940 . S
N116 Mn109 2.257 . S
N116 C115 1.331 . S
N116 C120 1.362 1_554 S
C117 C118 1.258 . S
C117 C120 1.431 . S
C117 C137 1.449 . S
C118 C117 1.258 . S
C118 C119 1.477 . S
C118 H138 0.931 . S
C119 C115 1.445 1_556 S
C119 C118 1.477 . S
C119 H139 0.930 . S
C120 N116 1.362 1_556 S
C120 C117 1.431 . S
C120 C130 1.476 . S
H121 C115 0.940 . S
C122 O113 1.250 . S
C122 O114 1.258 . S
O123 Mn108 2.162 . S
O123 C111 1.281 1_554 S
O124 Mn108 2.297 1_556 S
O124 C111 1.236 . S
N125 Mn109 2.282 . S
N125 C126 1.328 . S
N125 C130 1.318 1_554 S
C126 N125 1.328 . S
C126 C127 1.457 . S
C126 H131 0.929 . S
C127 C126 1.457 . S
C127 C128 1.291 1_554 S
C127 H140 0.931 . S
C128 C127 1.291 1_556 S
C128 C129 1.373 . S
C128 H141 0.929 . S
C129 C128 1.373 . S
C129 C130 1.396 . S
C129 C136 1.403 . S
C130 C120 1.476 . S
C130 N125 1.318 1_556 S
C130 C129 1.396 . S
H131 C126 0.929 . S
O132 Mn108 2.385 1_556 S
O132 C110 1.234 1_655 S
O133 Mn108 2.209 1_456 S
O133 Mn109 2.215 1_556 S
O133 C110 1.283 . S
O134 Mn108 2.094 . S
O134 C112 1.240 . S
O135 Mn109 2.117 . S
O135 C112 1.264 1_455 S
C136 C129 1.403 . S
C136 C137 1.399 . S
C136 H142 0.929 . S
C137 C117 1.449 . S
C137 C136 1.399 . S
C137 H143 0.930 . S
H138 C118 0.931 . S
H139 C119 0.930 . S
H140 C127 0.931 . S
H141 C128 0.929 . S
H142 C136 0.929 . S
H143 C137 0.930 . S
Mn144 O149 2.095 1_554 S
Mn144 O159 2.162 . S
Mn144 O160 2.297 . S
Mn144 O168 2.385 . S
Mn144 O169 2.209 . S
Mn144 O170 2.094 1_554 S
Mn145 O150 2.121 . S
Mn145 N152 2.257 1_556 S
Mn145 N161 2.282 1_556 S
Mn145 O169 2.215 1_556 S
Mn145 O171 2.117 . S
C146 O168 1.234 . S
C146 O169 1.283 . S
C147 O159 1.281 . S
C147 O160 1.236 . S
C148 O170 1.240 . S
C148 O171 1.264 . S
O149 Mn144 2.095 1_556 S
O149 C158 1.250 . S
O150 Mn145 2.121 . S
O150 C158 1.258 . S
C151 N152 1.326 . S
C151 C155 1.460 . S
C151 H157 0.929 . S
N152 Mn145 2.257 1_554 S
N152 C151 1.326 . S
N152 C156 1.362 . S
C153 C154 1.258 . S
C153 C156 1.431 . S
C153 C173 1.449 . S
C154 C153 1.258 . S
C154 C155 1.477 . S
C154 H174 0.931 . S
C155 C151 1.460 . S
C155 C154 1.477 . S
C155 H175 0.930 . S
C156 N152 1.362 . S
C156 C153 1.431 . S
C156 C166 1.476 . S
H157 C151 0.929 . S
C158 O149 1.250 . S
C158 O150 1.258 . S
O159 Mn144 2.162 . S
O159 C147 1.281 . S
O160 Mn144 2.297 . S
O160 C147 1.236 . S
N161 Mn145 2.282 1_554 S
N161 C162 1.328 . S
N161 C166 1.318 . S
C162 N161 1.328 . S
C162 C163 1.457 . S
C162 H167 0.929 1_554 S
C163 C162 1.457 . S
C163 C164 1.291 . S
C163 H176 0.931 . S
C164 C163 1.291 . S
C164 C165 1.373 . S
C164 H177 0.929 . S
C165 C164 1.373 . S
C165 C166 1.396 . S
C165 C172 1.403 . S
C166 C156 1.476 . S
C166 N161 1.318 . S
C166 C165 1.396 . S
H167 C162 0.929 1_556 S
O168 Mn144 2.385 . S
O168 C146 1.234 . S
O169 Mn144 2.209 . S
O169 Mn145 2.215 1_554 S
O169 C146 1.283 . S
O170 Mn144 2.094 1_556 S
O170 C148 1.240 . S
O171 Mn145 2.117 . S
O171 C148 1.264 . S
C172 C165 1.403 . S
C172 C173 1.399 . S
C172 H178 0.929 . S
C173 C153 1.449 . S
C173 C172 1.399 . S
C173 H179 0.930 . S
H174 C154 0.931 . S
H175 C155 0.930 . S
H176 C163 0.931 . S
H177 C164 0.929 . S
H178 C172 0.929 . S
H179 C173 0.930 . S
Mn180 O185 2.095 1_545 S
Mn180 O195 2.162 . S
Mn180 O196 2.297 1_554 S
Mn180 O204 2.385 1_554 S
Mn180 O205 2.206 1_545 S
Mn180 O206 2.094 . S
Mn181 O186 2.121 . S
Mn181 N188 2.257 . S
Mn181 N197 2.282 . S
Mn181 O205 2.211 . S
Mn181 O207 2.117 . S
C182 O204 1.234 1_565 S
C182 O205 1.286 1_556 S
C183 O195 1.281 1_556 S
C183 O196 1.236 . S
C184 O206 1.240 . S
C184 O207 1.264 1_545 S
O185 Mn180 2.095 1_565 S
O185 C194 1.250 . S
O186 Mn181 2.121 . S
O186 C194 1.258 . S
C187 N188 1.336 . S
C187 C191 1.429 1_554 S
C187 H193 0.954 . S
N188 Mn181 2.257 . S
N188 C187 1.336 . S
N188 C192 1.362 1_554 S
C189 C190 1.258 . S
C189 C192 1.431 . S
C189 C209 1.449 . S
C190 C189 1.258 . S
C190 C191 1.477 . S
C190 H210 0.931 . S
C191 C187 1.429 1_556 S
C191 C190 1.477 . S
C191 H211 0.930 . S
C192 N188 1.362 1_556 S
C192 C189 1.431 . S
C192 C202 1.476 . S
H193 C187 0.954 . S
C194 O185 1.250 . S
C194 O186 1.258 . S
O195 Mn180 2.162 . S
O195 C183 1.281 1_554 S
O196 Mn180 2.297 1_556 S
O196 C183 1.236 . S
N197 Mn181 2.282 . S
N197 C198 1.328 . S
N197 C202 1.318 1_554 S
C198 N197 1.328 . S
C198 C199 1.457 . S
C198 H203 0.929 . S
C199 C198 1.457 . S
C199 C200 1.291 1_554 S
C199 H212 0.931 . S
C200 C199 1.291 1_556 S
C200 C201 1.373 . S
C200 H213 0.929 . S
C201 C200 1.373 . S
C201 C202 1.396 . S
C201 C208 1.403 . S
C202 C192 1.476 . S
C202 N197 1.318 1_556 S
C202 C201 1.396 . S
H203 C198 0.929 . S
O204 Mn180 2.385 1_556 S
O204 C182 1.234 1_545 S
O205 Mn180 2.206 1_565 S
O205 Mn181 2.211 . S
O205 C182 1.286 1_554 S
O206 Mn180 2.094 . S
O206 C184 1.240 . S
O207 Mn181 2.117 . S
O207 C184 1.264 1_565 S
C208 C201 1.403 . S
C208 C209 1.399 . S
C208 H214 0.929 . S
C209 C189 1.449 . S
C209 C208 1.399 . S
C209 H215 0.930 . S
H210 C190 0.931 . S
H211 C191 0.930 . S
H212 C199 0.931 . S
H213 C200 0.929 . S
H214 C208 0.929 . S
H215 C209 0.930 . S
Mn216 O221 2.095 . S
Mn216 O231 2.162 . S
Mn216 O232 2.297 . S
Mn216 O240 2.385 . S
Mn216 O241 2.209 . S
Mn216 O242 2.094 . S
Mn217 O222 2.121 . S
Mn217 N224 2.257 . S
Mn217 N233 2.282 . S
Mn217 O241 2.215 . S
Mn217 O243 2.117 . S
C218 O240 1.234 . S
C218 O241 1.283 . S
C219 O231 1.281 . S
C219 O232 1.236 . S
C220 O242 1.240 . S
C220 O243 1.264 . S
O221 Mn216 2.095 . S
O221 C230 1.250 . S
O222 Mn217 2.121 . S
O222 C230 1.258 . S
C223 N224 1.326 . S
C223 C227 1.460 . S
C223 H229 0.929 . S
N224 Mn217 2.257 . S
N224 C223 1.326 . S
N224 C228 1.362 . S
C225 C226 1.258 . S
C225 C228 1.431 . S
C225 C245 1.449 . S
C226 C225 1.258 . S
C226 C227 1.477 . S
C226 H246 0.931 . S
C227 C223 1.460 . S
C227 C226 1.477 . S
C227 H247 0.930 . S
C228 N224 1.362 . S
C228 C225 1.431 . S
C228 C238 1.476 . S
H229 C223 0.929 . S
C230 O221 1.250 . S
C230 O222 1.258 . S
O231 Mn216 2.162 . S
O231 C219 1.281 . S
O232 Mn216 2.297 . S
O232 C219 1.236 . S
N233 Mn217 2.282 . S
N233 C234 1.328 . S
N233 C238 1.318 . S
C234 N233 1.328 . S
C234 C235 1.457 . S
C234 H239 0.929 . S
C235 C234 1.457 . S
C235 C236 1.291 . S
C235 H248 0.931 . S
C236 C235 1.291 . S
C236 C237 1.373 . S
C236 H249 0.929 . S
C237 C236 1.373 . S
C237 C238 1.396 . S
C237 C244 1.403 . S
C238 C228 1.476 . S
C238 N233 1.318 . S
C238 C237 1.396 . S
H239 C234 0.929 . S
O240 Mn216 2.385 . S
O240 C218 1.234 . S
O241 Mn216 2.209 . S
O241 Mn217 2.215 . S
O241 C218 1.283 . S
O242 Mn216 2.094 . S
O242 C220 1.240 . S
O243 Mn217 2.117 . S
O243 C220 1.264 . S
C244 C237 1.403 . S
C244 C245 1.399 . S
C244 H250 0.929 . S
C245 C225 1.449 . S
C245 C244 1.399 . S
C245 H251 0.930 . S
H246 C226 0.931 . S
H247 C227 0.930 . S
H248 C235 0.931 . S
H249 C236 0.929 . S
H250 C244 0.929 . S
H251 C245 0.930 . S
Mn252 O257 2.095 . S
Mn252 O267 2.162 1_565 S
Mn252 O268 2.297 1_565 S
Mn252 O276 2.385 . S
Mn252 O277 2.209 . S
Mn252 O278 2.094 . S
Mn253 O258 2.121 . S
Mn253 N260 2.257 . S
Mn253 N269 2.282 . S
Mn253 O277 2.215 . S
Mn253 O279 2.117 . S
C254 O276 1.234 . S
C254 O277 1.283 . S
C255 O267 1.281 . S
C255 O268 1.236 . S
C256 O278 1.240 . S
C256 O279 1.264 . S
O257 Mn252 2.095 . S
O257 C266 1.250 . S
O258 Mn253 2.121 . S
O258 C266 1.258 . S
C259 N260 1.326 . S
C259 C263 1.460 . S
C259 H265 0.929 . S
N260 Mn253 2.257 . S
N260 C259 1.326 . S
N260 C264 1.362 . S
C261 C262 1.258 . S
C261 C264 1.431 . S
C261 C281 1.449 . S
C262 C261 1.258 . S
C262 C263 1.477 . S
C262 H282 0.931 . S
C263 C259 1.460 . S
C263 C262 1.477 . S
C263 H283 0.930 . S
C264 N260 1.362 . S
C264 C261 1.431 . S
C264 C274 1.476 . S
H265 C259 0.929 . S
C266 O257 1.250 . S
C266 O258 1.258 . S
O267 Mn252 2.162 1_545 S
O267 C255 1.281 . S
O268 Mn252 2.297 1_545 S
O268 C255 1.236 . S
N269 Mn253 2.282 . S
N269 C270 1.328 . S
N269 C274 1.318 . S
C270 N269 1.328 . S
C270 C271 1.457 . S
C270 H275 0.929 . S
C271 C270 1.457 . S
C271 C272 1.291 . S
C271 H284 0.931 . S
C272 C271 1.291 . S
C272 C273 1.373 . S
C272 H285 0.929 . S
C273 C272 1.373 . S
C273 C274 1.396 . S
C273 C280 1.403 . S
C274 C264 1.476 . S
C274 N269 1.318 . S
C274 C273 1.396 . S
H275 C270 0.929 . S
O276 Mn252 2.385 . S
O276 C254 1.234 . S
O277 Mn252 2.209 . S
O277 Mn253 2.215 . S
O277 C254 1.283 . S
O278 Mn252 2.094 . S
O278 C256 1.240 . S
O279 Mn253 2.117 . S
O279 C256 1.264 . S
C280 C273 1.403 . S
C280 C281 1.399 . S
C280 H286 0.929 . S
C281 C261 1.449 . S
C281 C280 1.399 . S
C281 H287 0.930 . S
H282 C262 0.931 . S
H283 C263 0.930 . S
H284 C271 0.931 . S
H285 C272 0.929 . S
H286 C280 0.929 . S
H287 C281 0.930 . S
Mn288 O293 2.095 . S
Mn288 O303 2.162 1_455 S
Mn288 O304 2.297 1_455 S
Mn288 O312 2.385 . S
Mn288 O313 2.209 . S
Mn288 O314 2.094 . S
Mn289 O294 2.121 . S
Mn289 N296 2.257 . S
Mn289 N305 2.282 . S
Mn289 O313 2.215 . S
Mn289 O315 2.117 . S
C290 O312 1.234 . S
C290 O313 1.283 . S
C291 O303 1.281 . S
C291 O304 1.236 . S
C292 O314 1.240 . S
C292 O315 1.264 . S
O293 Mn288 2.095 . S
O293 C302 1.250 . S
O294 Mn289 2.121 . S
O294 C302 1.258 . S
C295 N296 1.326 . S
C295 C299 1.460 . S
C295 H301 0.929 . S
N296 Mn289 2.257 . S
N296 C295 1.326 . S
N296 C300 1.362 . S
C297 C298 1.258 . S
C297 C300 1.431 . S
C297 C317 1.449 . S
C298 C297 1.258 . S
C298 C299 1.477 . S
C298 H318 0.931 . S
C299 C295 1.460 . S
C299 C298 1.477 . S
C299 H319 0.930 . S
C300 N296 1.362 . S
C300 C297 1.431 . S
C300 C310 1.476 . S
H301 C295 0.929 . S
C302 O293 1.250 . S
C302 O294 1.258 . S
O303 Mn288 2.162 1_655 S
O303 C291 1.281 . S
O304 Mn288 2.297 1_655 S
O304 C291 1.236 . S
N305 Mn289 2.282 . S
N305 C306 1.328 . S
N305 C310 1.318 . S
C306 N305 1.328 . S
C306 C307 1.457 . S
C306 H311 0.929 . S
C307 C306 1.457 . S
C307 C308 1.291 . S
C307 H320 0.931 . S
C308 C307 1.291 . S
C308 C309 1.373 . S
C308 H321 0.929 . S
C309 C308 1.373 . S
C309 C310 1.396 . S
C309 C316 1.403 . S
C310 C300 1.476 . S
C310 N305 1.318 . S
C310 C309 1.396 . S
H311 C306 0.929 . S
O312 Mn288 2.385 . S
O312 C290 1.234 . S
O313 Mn288 2.209 . S
O313 Mn289 2.215 . S
O313 C290 1.283 . S
O314 Mn288 2.094 . S
O314 C292 1.240 . S
O315 Mn289 2.117 . S
O315 C292 1.264 . S
C316 C309 1.403 . S
C316 C317 1.399 . S
C316 H322 0.929 . S
C317 C297 1.449 . S
C317 C316 1.399 . S
C317 H323 0.930 . S
H318 C298 0.931 . S
H319 C299 0.930 . S
H320 C307 0.931 . S
H321 C308 0.929 . S
H322 C316 0.929 . S
H323 C317 0.930 . S
Mn324 O329 2.095 . S
Mn324 O339 2.162 . S
Mn324 O340 2.297 . S
Mn324 O348 2.385 . S
Mn324 O349 2.209 . S
Mn324 O350 2.094 . S
Mn325 O330 2.121 1_565 S
Mn325 N332 2.257 . S
Mn325 N341 2.282 . S
Mn325 O349 2.215 . S
Mn325 O351 2.117 . S
C326 O348 1.234 . S
C326 O349 1.283 . S
C327 O339 1.281 . S
C327 O340 1.236 . S
C328 O350 1.240 . S
C328 O351 1.264 . S
O329 Mn324 2.095 . S
O329 C338 1.250 1_565 S
O330 Mn325 2.121 1_545 S
O330 C338 1.258 . S
C331 N332 1.326 1_545 S
C331 C335 1.460 . S
C331 H337 0.929 . S
N332 Mn325 2.257 . S
N332 C331 1.326 1_565 S
N332 C336 1.362 . S
C333 C334 1.230 1_565 S
C333 C336 1.431 . S
C333 C353 1.449 . S
C334 C333 1.230 1_545 S
C334 C335 1.512 . S
C334 H354 0.924 . S
C335 C331 1.460 . S
C335 C334 1.512 . S
C335 H355 0.930 . S
C336 N332 1.362 . S
C336 C333 1.431 . S
C336 C346 1.476 . S
H337 C331 0.929 . S
C338 O329 1.250 1_545 S
C338 O330 1.258 . S
O339 Mn324 2.162 . S
O339 C327 1.281 . S
O340 Mn324 2.297 . S
O340 C327 1.236 . S
N341 Mn325 2.282 . S
N341 C342 1.328 . S
N341 C346 1.318 . S
C342 N341 1.328 . S
C342 C343 1.457 . S
C342 H347 0.929 . S
C343 C342 1.457 . S
C343 C344 1.291 . S
C343 H356 0.931 . S
C344 C343 1.291 . S
C344 C345 1.373 . S
C344 H357 0.929 . S
C345 C344 1.373 . S
C345 C346 1.396 . S
C345 C352 1.403 . S
C346 C336 1.476 . S
C346 N341 1.318 . S
C346 C345 1.396 . S
H347 C342 0.929 . S
O348 Mn324 2.385 . S
O348 C326 1.234 . S
O349 Mn324 2.209 . S
O349 Mn325 2.215 . S
O349 C326 1.283 . S
O350 Mn324 2.094 . S
O350 C328 1.240 . S
O351 Mn325 2.117 . S
O351 C328 1.264 . S
C352 C345 1.403 . S
C352 C353 1.399 . S
C352 H358 0.929 . S
C353 C333 1.449 . S
C353 C352 1.399 . S
C353 H359 0.930 . S
H354 C334 0.924 . S
H355 C335 0.930 . S
H356 C343 0.931 . S
H357 C344 0.929 . S
H358 C352 0.929 . S
H359 C353 0.930 . S
Mn360 O365 2.095 . S
Mn360 O375 2.162 1_455 S
Mn360 O376 2.283 1_455 S
Mn360 O384 2.385 . S
Mn360 O385 2.209 . S
Mn360 O386 2.094 . S
Mn361 O366 2.121 . S
Mn361 N368 2.257 . S
Mn361 N377 2.282 . S
Mn361 O385 2.215 . S
Mn361 O387 2.117 . S
C362 O384 1.234 . S
C362 O385 1.283 . S
C363 O375 1.281 . S
C363 O376 1.280 . S
C364 O386 1.240 . S
C364 O387 1.264 . S
O365 Mn360 2.095 . S
O365 C374 1.250 . S
O366 Mn361 2.121 . S
O366 C374 1.258 . S
C367 N368 1.326 . S
C367 C371 1.460 . S
C367 H373 0.929 . S
N368 Mn361 2.257 . S
N368 C367 1.326 . S
N368 C372 1.362 . S
C369 C370 1.258 . S
C369 C372 1.431 . S
C369 C389 1.449 . S
C370 C369 1.258 . S
C370 C371 1.477 . S
C370 H390 0.931 . S
C371 C367 1.460 . S
C371 C370 1.477 . S
C371 H391 0.930 . S
C372 N368 1.362 . S
C372 C369 1.431 . S
C372 C382 1.476 . S
H373 C367 0.929 . S
C374 O365 1.250 . S
C374 O366 1.258 . S
O375 Mn360 2.162 1_655 S
O375 C363 1.281 . S
O376 Mn360 2.283 1_655 S
O376 C363 1.280 . S
N377 Mn361 2.282 . S
N377 C378 1.328 . S
N377 C382 1.318 . S
C378 N377 1.328 . S
C378 C379 1.457 . S
C378 H383 0.929 . S
C379 C378 1.457 . S
C379 C380 1.291 . S
C379 H392 0.931 . S
C380 C379 1.291 . S
C380 C381 1.373 . S
C380 H393 0.929 . S
C381 C380 1.373 . S
C381 C382 1.396 . S
C381 C388 1.403 . S
C382 C372 1.476 . S
C382 N377 1.318 . S
C382 C381 1.396 . S
H383 C378 0.929 . S
O384 Mn360 2.385 . S
O384 C362 1.234 . S
O385 Mn360 2.209 . S
O385 Mn361 2.215 . S
O385 C362 1.283 . S
O386 Mn360 2.094 . S
O386 C364 1.240 . S
O387 Mn361 2.117 . S
O387 C364 1.264 . S
C388 C381 1.403 . S
C388 C389 1.399 . S
C388 H394 0.929 . S
C389 C369 1.449 . S
C389 C388 1.399 . S
C389 H395 0.930 . S
H390 C370 0.931 . S
H391 C371 0.930 . S
H392 C379 0.931 . S
H393 C380 0.929 . S
H394 C388 0.929 . S
H395 C389 0.930 . S
Mn396 O401 2.095 . S
Mn396 O411 2.162 . S
Mn396 O412 2.297 . S
Mn396 O420 2.385 . S
Mn396 O421 2.209 . S
Mn396 O422 2.094 . S
Mn397 O402 2.121 . S
Mn397 N404 2.257 . S
Mn397 N413 2.282 . S
Mn397 O421 2.215 . S
Mn397 O423 2.117 . S
C398 O420 1.234 . S
C398 O421 1.283 . S
C399 O411 1.281 . S
C399 O412 1.236 . S
C400 O422 1.240 . S
C400 O423 1.264 . S
O401 Mn396 2.095 . S
O401 C410 1.250 . S
O402 Mn397 2.121 . S
O402 C410 1.258 . S
C403 N404 1.326 . S
C403 C407 1.460 . S
C403 H409 0.929 . S
N404 Mn397 2.257 . S
N404 C403 1.326 . S
N404 C408 1.362 . S
C405 C406 1.258 . S
C405 C408 1.431 . S
C405 C425 1.449 . S
C406 C405 1.258 . S
C406 C407 1.477 . S
C406 H426 0.931 . S
C407 C403 1.460 . S
C407 C406 1.477 . S
C407 H427 0.930 . S
C408 N404 1.362 . S
C408 C405 1.431 . S
C408 C418 1.476 . S
H409 C403 0.929 . S
C410 O401 1.250 . S
C410 O402 1.258 . S
O411 Mn396 2.162 . S
O411 C399 1.281 . S
O412 Mn396 2.297 . S
O412 C399 1.236 . S
N413 Mn397 2.282 . S
N413 C414 1.328 . S
N413 C418 1.318 . S
C414 N413 1.328 . S
C414 C415 1.457 . S
C414 H419 0.929 . S
C415 C414 1.457 . S
C415 C416 1.291 . S
C415 H428 0.931 . S
C416 C415 1.291 . S
C416 C417 1.373 . S
C416 H429 0.929 . S
C417 C416 1.373 . S
C417 C418 1.396 . S
C417 C424 1.403 . S
C418 C408 1.476 . S
C418 N413 1.318 . S
C418 C417 1.396 . S
H419 C414 0.929 . S
O420 Mn396 2.385 . S
O420 C398 1.234 . S
O421 Mn396 2.209 . S
O421 Mn397 2.215 . S
O421 C398 1.283 . S
O422 Mn396 2.094 . S
O422 C400 1.240 . S
O423 Mn397 2.117 . S
O423 C400 1.264 . S
C424 C417 1.403 . S
C424 C425 1.399 . S
C424 H430 0.929 . S
C425 C405 1.449 . S
C425 C424 1.399 . S
C425 H431 0.930 . S
H426 C406 0.931 . S
H427 C407 0.930 . S
H428 C415 0.931 . S
H429 C416 0.929 . S
H430 C424 0.929 . S
H431 C425 0.930 . S
Mn432 O437 2.095 . S
Mn432 O447 2.162 1_545 S
Mn432 O448 2.248 1_545 S
Mn432 O456 2.385 . S
Mn432 O457 2.209 . S
Mn432 O458 2.094 . S
Mn433 O438 2.121 . S
Mn433 N440 2.257 . S
Mn433 N449 2.282 . S
Mn433 O457 2.215 . S
Mn433 O459 2.117 . S
C434 O456 1.234 . S
C434 O457 1.283 . S
C435 O447 1.281 . S
C435 O448 1.252 . S
C436 O458 1.240 . S
C436 O459 1.264 . S
O437 Mn432 2.095 . S
O437 C446 1.250 . S
O438 Mn433 2.121 . S
O438 C446 1.258 . S
C439 N440 1.326 . S
C439 C443 1.460 . S
C439 H445 0.929 . S
N440 Mn433 2.257 . S
N440 C439 1.326 . S
N440 C444 1.362 . S
C441 C442 1.258 . S
C441 C444 1.431 . S
C441 C461 1.449 . S
C442 C441 1.258 . S
C442 C443 1.477 . S
C442 H462 0.931 . S
C443 C439 1.460 . S
C443 C442 1.477 . S
C443 H463 0.930 . S
C444 N440 1.362 . S
C444 C441 1.431 . S
C444 C454 1.476 . S
H445 C439 0.929 . S
C446 O437 1.250 . S
C446 O438 1.258 . S
O447 Mn432 2.162 1_565 S
O447 C435 1.281 . S
O448 Mn432 2.248 1_565 S
O448 C435 1.252 . S
N449 Mn433 2.282 . S
N449 C450 1.328 . S
N449 C454 1.318 . S
C450 N449 1.328 . S
C450 C451 1.457 . S
C450 H455 0.929 . S
C451 C450 1.457 . S
C451 C452 1.291 . S
C451 H464 0.931 . S
C452 C451 1.291 . S
C452 C453 1.373 . S
C452 H465 0.929 . S
C453 C452 1.373 . S
C453 C454 1.396 . S
C453 C460 1.403 . S
C454 C444 1.476 . S
C454 N449 1.318 . S
C454 C453 1.396 . S
H455 C450 0.929 . S
O456 Mn432 2.385 . S
O456 C434 1.234 . S
O457 Mn432 2.209 . S
O457 Mn433 2.215 . S
O457 C434 1.283 . S
O458 Mn432 2.094 . S
O458 C436 1.240 . S
O459 Mn433 2.117 . S
O459 C436 1.264 . S
C460 C453 1.403 . S
C460 C461 1.399 . S
C460 H466 0.929 . S
C461 C441 1.449 . S
C461 C460 1.399 . S
C461 H467 0.930 . S
H462 C442 0.931 . S
H463 C443 0.930 . S
H464 C451 0.931 . S
H465 C452 0.929 . S
H466 C460 0.929 . S
H467 C461 0.930 . S
Mn468 O473 2.095 . S
Mn468 O483 2.162 . S
Mn468 O484 2.297 . S
Mn468 O492 2.385 . S
Mn468 O493 2.209 . S
Mn468 O494 2.094 . S
Mn469 O474 2.121 1_655 S
Mn469 N476 2.257 . S
Mn469 N485 2.282 . S
Mn469 O493 2.215 . S
Mn469 O495 2.117 . S
C470 O492 1.234 . S
C470 O493 1.283 . S
C471 O483 1.281 . S
C471 O484 1.236 . S
C472 O494 1.240 . S
C472 O495 1.264 . S
O473 Mn468 2.095 . S
O473 C482 1.250 1_655 S
O474 Mn469 2.121 1_455 S
O474 C482 1.258 . S
C475 N476 1.326 1_455 S
C475 C479 1.460 . S
C475 H481 0.929 . S
N476 Mn469 2.257 . S
N476 C475 1.326 1_655 S
N476 C480 1.362 . S
C477 C478 1.235 1_655 S
C477 C480 1.431 . S
C477 C497 1.449 . S
C478 C477 1.235 1_455 S
C478 C479 1.484 . S
C478 H498 0.947 . S
C479 C475 1.460 . S
C479 C478 1.484 . S
C479 H499 0.930 . S
C480 N476 1.362 . S
C480 C477 1.431 . S
C480 C490 1.476 . S
H481 C475 0.929 . S
C482 O473 1.250 1_455 S
C482 O474 1.258 . S
O483 Mn468 2.162 . S
O483 C471 1.281 . S
O484 Mn468 2.297 . S
O484 C471 1.236 . S
N485 Mn469 2.282 . S
N485 C486 1.328 . S
N485 C490 1.318 . S
C486 N485 1.328 . S
C486 C487 1.457 . S
C486 H491 0.929 . S
C487 C486 1.457 . S
C487 C488 1.291 . S
C487 H500 0.931 . S
C488 C487 1.291 . S
C488 C489 1.373 . S
C488 H501 0.929 . S
C489 C488 1.373 . S
C489 C490 1.396 . S
C489 C496 1.403 . S
C490 C480 1.476 . S
C490 N485 1.318 . S
C490 C489 1.396 . S
H491 C486 0.929 . S
O492 Mn468 2.385 . S
O492 C470 1.234 . S
O493 Mn468 2.209 . S
O493 Mn469 2.215 . S
O493 C470 1.283 . S
O494 Mn468 2.094 . S
O494 C472 1.240 . S
O495 Mn469 2.117 . S
O495 C472 1.264 . S
C496 C489 1.403 . S
C496 C497 1.399 . S
C496 H502 0.929 . S
C497 C477 1.449 . S
C497 C496 1.399 . S
C497 H503 0.930 . S
H498 C478 0.947 . S
H499 C479 0.930 . S
H500 C487 0.931 . S
H501 C488 0.929 . S
H502 C496 0.929 . S
H503 C497 0.930 . S
Mn504 O509 2.095 . S
Mn504 O519 2.162 . S
Mn504 O520 2.297 . S
Mn504 O528 2.385 . S
Mn504 O529 2.209 . S
Mn504 O530 2.094 . S
Mn505 O510 2.121 . S
Mn505 N512 2.257 . S
Mn505 N521 2.282 . S
Mn505 O529 2.215 . S
Mn505 O531 2.117 . S
C506 O528 1.234 . S
C506 O529 1.283 . S
C507 O519 1.281 . S
C507 O520 1.236 . S
C508 O530 1.240 . S
C508 O531 1.264 . S
O509 Mn504 2.095 . S
O509 C518 1.250 . S
O510 Mn505 2.121 . S
O510 C518 1.258 . S
C511 N512 1.326 . S
C511 C515 1.460 . S
C511 H517 0.929 . S
N512 Mn505 2.257 . S
N512 C511 1.326 . S
N512 C516 1.362 . S
C513 C514 1.258 . S
C513 C516 1.431 . S
C513 C533 1.449 . S
C514 C513 1.258 . S
C514 C515 1.477 . S
C514 H534 0.931 . S
C515 C511 1.460 . S
C515 C514 1.477 . S
C515 H535 0.930 . S
C516 N512 1.362 . S
C516 C513 1.431 . S
C516 C526 1.476 . S
H517 C511 0.929 . S
C518 O509 1.250 . S
C518 O510 1.258 . S
O519 Mn504 2.162 . S
O519 C507 1.281 . S
O520 Mn504 2.297 . S
O520 C507 1.236 . S
N521 Mn505 2.282 . S
N521 C522 1.328 . S
N521 C526 1.318 . S
C522 N521 1.328 . S
C522 C523 1.457 . S
C522 H527 0.929 . S
C523 C522 1.457 . S
C523 C524 1.291 . S
C523 H536 0.931 . S
C524 C523 1.291 . S
C524 C525 1.373 . S
C524 H537 0.929 . S
C525 C524 1.373 . S
C525 C526 1.396 . S
C525 C532 1.403 . S
C526 C516 1.476 . S
C526 N521 1.318 . S
C526 C525 1.396 . S
H527 C522 0.929 . S
O528 Mn504 2.385 . S
O528 C506 1.234 . S
O529 Mn504 2.209 . S
O529 Mn505 2.215 . S
O529 C506 1.283 . S
O530 Mn504 2.094 . S
O530 C508 1.240 . S
O531 Mn505 2.117 . S
O531 C508 1.264 . S
C532 C525 1.403 . S
C532 C533 1.399 . S
C532 H538 0.929 . S
C533 C513 1.449 . S
C533 C532 1.399 . S
C533 H539 0.930 . S
H534 C514 0.931 . S
H535 C515 0.930 . S
H536 C523 0.931 . S
H537 C524 0.929 . S
H538 C532 0.929 . S
H539 C533 0.930 . S
Mn540 O545 2.095 . S
Mn540 O555 2.162 . S
Mn540 O556 2.297 . S
Mn540 O564 2.385 . S
Mn540 O565 2.209 . S
Mn540 O566 2.094 . S
Mn541 O546 2.121 . S
Mn541 N548 2.257 . S
Mn541 N557 2.282 . S
Mn541 O565 2.215 . S
Mn541 O567 2.117 . S
C542 O564 1.234 . S
C542 O565 1.283 . S
C543 O555 1.281 . S
C543 O556 1.236 . S
C544 O566 1.240 . S
C544 O567 1.264 . S
O545 Mn540 2.095 . S
O545 C554 1.250 . S
O546 Mn541 2.121 . S
O546 C554 1.258 . S
C547 N548 1.326 . S
C547 C551 1.460 . S
C547 H553 0.929 . S
N548 Mn541 2.257 . S
N548 C547 1.326 . S
N548 C552 1.362 . S
C549 C550 1.258 . S
C549 C552 1.431 . S
C549 C569 1.449 . S
C550 C549 1.258 . S
C550 C551 1.477 . S
C550 H570 0.931 . S
C551 C547 1.460 . S
C551 C550 1.477 . S
C551 H571 0.930 . S
C552 N548 1.362 . S
C552 C549 1.431 . S
C552 C562 1.476 . S
H553 C547 0.929 . S
C554 O545 1.250 . S
C554 O546 1.258 . S
O555 Mn540 2.162 . S
O555 C543 1.281 . S
O556 Mn540 2.297 . S
O556 C543 1.236 . S
N557 Mn541 2.282 . S
N557 C558 1.328 . S
N557 C562 1.318 . S
C558 N557 1.328 . S
C558 C559 1.457 . S
C558 H563 0.929 . S
C559 C558 1.457 . S
C559 C560 1.291 . S
C559 H572 0.931 . S
C560 C559 1.291 . S
C560 C561 1.373 . S
C560 H573 0.929 . S
C561 C560 1.373 . S
C561 C562 1.396 . S
C561 C568 1.403 . S
C562 C552 1.476 . S
C562 N557 1.318 . S
C562 C561 1.396 . S
H563 C558 0.929 . S
O564 Mn540 2.385 . S
O564 C542 1.234 . S
O565 Mn540 2.209 . S
O565 Mn541 2.215 . S
O565 C542 1.283 . S
O566 Mn540 2.094 . S
O566 C544 1.240 . S
O567 Mn541 2.117 . S
O567 C544 1.264 . S
C568 C561 1.403 . S
C568 C569 1.399 . S
C568 H574 0.929 . S
C569 C549 1.449 . S
C569 C568 1.399 . S
C569 H575 0.930 . S
H570 C550 0.931 . S
H571 C551 0.930 . S
H572 C559 0.931 . S
H573 C560 0.929 . S
H574 C568 0.929 . S
H575 C569 0.930 . S
Mn576 O581 2.095 . S
Mn576 O591 2.162 . S
Mn576 O592 2.297 . S
Mn576 O600 2.385 . S
Mn576 O601 2.209 . S
Mn576 O602 2.094 . S
Mn577 O582 2.121 1_545 S
Mn577 N584 2.257 . S
Mn577 N593 2.282 . S
Mn577 O601 2.215 . S
Mn577 O603 2.117 . S
C578 O600 1.234 . S
C578 O601 1.283 . S
C579 O591 1.281 . S
C579 O592 1.236 . S
C580 O602 1.240 . S
C580 O603 1.264 . S
O581 Mn576 2.095 . S
O581 C590 1.250 1_545 S
O582 Mn577 2.121 1_565 S
O582 C590 1.258 . S
C583 N584 1.326 1_565 S
C583 C587 1.460 . S
C583 H589 0.929 . S
N584 Mn577 2.257 . S
N584 C583 1.326 1_545 S
N584 C588 1.362 . S
C585 C586 1.258 1_545 S
C585 C588 1.431 . S
C585 C605 1.449 . S
C586 C585 1.258 1_565 S
C586 C587 1.477 . S
C586 H606 0.931 . S
C587 C583 1.460 . S
C587 C586 1.477 . S
C587 H607 0.930 . S
C588 N584 1.362 . S
C588 C585 1.431 . S
C588 C598 1.476 . S
H589 C583 0.929 . S
C590 O581 1.250 1_565 S
C590 O582 1.258 . S
O591 Mn576 2.162 . S
O591 C579 1.281 . S
O592 Mn576 2.297 . S
O592 C579 1.236 . S
N593 Mn577 2.282 . S
N593 C594 1.328 . S
N593 C598 1.318 . S
C594 N593 1.328 . S
C594 C595 1.457 . S
C594 H599 0.929 . S
C595 C594 1.457 . S
C595 C596 1.291 . S
C595 H608 0.931 . S
C596 C595 1.291 . S
C596 C597 1.373 . S
C596 H609 0.929 . S
C597 C596 1.373 . S
C597 C598 1.396 . S
C597 C604 1.403 . S
C598 C588 1.476 . S
C598 N593 1.318 . S
C598 C597 1.396 . S
H599 C594 0.929 . S
O600 Mn576 2.385 . S
O600 C578 1.234 . S
O601 Mn576 2.209 . S
O601 Mn577 2.215 . S
O601 C578 1.283 . S
O602 Mn576 2.094 . S
O602 C580 1.240 . S
O603 Mn577 2.117 . S
O603 C580 1.264 . S
C604 C597 1.403 . S
C604 C605 1.399 . S
C604 H610 0.929 . S
C605 C585 1.449 . S
C605 C604 1.399 . S
C605 H611 0.930 . S
H606 C586 0.931 . S
H607 C587 0.930 . S
H608 C595 0.931 . S
H609 C596 0.929 . S
H610 C604 0.929 . S
H611 C605 0.930 . S
Mn612 O617 2.095 . S
Mn612 O627 2.162 1_655 S
Mn612 O628 2.297 1_655 S
Mn612 O636 2.385 . S
Mn612 O637 2.209 . S
Mn612 O638 2.094 . S
Mn613 O618 2.121 . S
Mn613 N620 2.257 . S
Mn613 N629 2.282 . S
Mn613 O637 2.215 . S
Mn613 O639 2.117 . S
C614 O636 1.234 . S
C614 O637 1.283 . S
C615 O627 1.281 . S
C615 O628 1.236 . S
C616 O638 1.240 . S
C616 O639 1.264 . S
O617 Mn612 2.095 . S
O617 C626 1.250 . S
O618 Mn613 2.121 . S
O618 C626 1.258 . S
C619 N620 1.326 . S
C619 C623 1.460 . S
C619 H625 0.929 . S
N620 Mn613 2.257 . S
N620 C619 1.326 . S
N620 C624 1.362 . S
C621 C622 1.258 . S
C621 C624 1.431 . S
C621 C641 1.449 . S
C622 C621 1.258 . S
C622 C623 1.477 . S
C622 H642 0.931 . S
C623 C619 1.460 . S
C623 C622 1.477 . S
C623 H643 0.930 . S
C624 N620 1.362 . S
C624 C621 1.431 . S
C624 C634 1.476 . S
H625 C619 0.929 . S
C626 O617 1.250 . S
C626 O618 1.258 . S
O627 Mn612 2.162 1_455 S
O627 C615 1.281 . S
O628 Mn612 2.297 1_455 S
O628 C615 1.236 . S
N629 Mn613 2.282 . S
N629 C630 1.328 . S
N629 C634 1.318 . S
C630 N629 1.328 . S
C630 C631 1.457 . S
C630 H635 0.929 . S
C631 C630 1.457 . S
C631 C632 1.291 . S
C631 H644 0.931 . S
C632 C631 1.291 . S
C632 C633 1.373 . S
C632 H645 0.929 . S
C633 C632 1.373 . S
C633 C634 1.396 . S
C633 C640 1.403 . S
C634 C624 1.476 . S
C634 N629 1.318 . S
C634 C633 1.396 . S
H635 C630 0.929 . S
O636 Mn612 2.385 . S
O636 C614 1.234 . S
O637 Mn612 2.209 . S
O637 Mn613 2.215 . S
O637 C614 1.283 . S
O638 Mn612 2.094 . S
O638 C616 1.240 . S
O639 Mn613 2.117 . S
O639 C616 1.264 . S
C640 C633 1.403 . S
C640 C641 1.399 . S
C640 H646 0.929 . S
C641 C621 1.449 . S
C641 C640 1.399 . S
C641 H647 0.930 . S
H642 C622 0.931 . S
H643 C623 0.930 . S
H644 C631 0.931 . S
H645 C632 0.929 . S
H646 C640 0.929 . S
H647 C641 0.930 . S
C648 C649 1.560 . S
C648 H709 0.959 . S
C648 H710 0.959 . S
C648 H711 0.960 . S
C649 C648 1.560 . S
C649 O704 1.426 . S
C649 H708 0.980 . S
C650 C651 1.407 . S
C650 C655 1.418 . S
C650 O704 1.334 . S
C651 C650 1.407 . S
C651 C652 1.360 . S
C651 H712 0.929 . S
C652 C651 1.360 . S
C652 C653 1.401 . S
C652 C656 1.527 . S
C653 C652 1.401 . S
C653 C654 1.405 . S
C653 C686 1.587 . S
C654 C653 1.405 . S
C654 C655 1.332 . S
C654 C657 1.496 . S
C655 C650 1.418 . S
C655 C654 1.332 . S
C655 H713 0.929 . S
C656 C652 1.527 . S
C656 H714 0.959 . S
C656 H715 0.961 . S
C656 H716 0.961 . S
C657 C654 1.496 . S
C657 H717 0.960 . S
C657 H718 0.960 . S
C657 H719 0.961 . S
C658 C659 1.517 . S
C658 H721 0.961 . S
C658 H722 0.960 . S
C658 H723 0.959 . S
C659 C658 1.517 . S
C659 O707 1.468 . S
C659 H720 0.980 . S
C660 C661 1.349 . S
C660 C665 1.367 . S
C660 O707 1.408 . S
C661 C660 1.349 . S
C661 C662 1.407 . S
C661 H724 0.930 . S
C662 C661 1.407 . S
C662 C663 1.449 . S
C662 C666 1.535 . S
C663 C662 1.449 . S
C663 C664 1.384 . S
C663 C688 1.553 . S
C664 C663 1.384 . S
C664 C665 1.364 . S
C664 C667 1.450 . S
C665 C660 1.367 . S
C665 C664 1.364 . S
C665 H725 0.931 . S
C666 C662 1.535 . S
C666 H726 0.959 . S
C666 H727 0.961 . S
C666 H728 0.959 . S
C667 C664 1.450 . S
C667 H729 0.960 . S
C667 H730 0.960 . S
C667 H731 0.960 . S
C668 C669 1.309 . S
C668 C673 1.304 . S
C668 O706 1.435 . S
C669 C668 1.309 . S
C669 C670 1.476 . S
C669 H733 0.930 . S
C670 C669 1.476 . S
C670 C671 1.400 . S
C670 C674 1.567 . S
C671 C670 1.400 . S
C671 C672 1.373 . S
C671 C693 1.432 . S
C672 C671 1.373 . S
C672 C673 1.339 . S
C672 C675 1.530 . S
C673 C668 1.304 . S
C673 C672 1.339 . S
C673 H734 0.930 . S
C674 C670 1.567 . S
C674 H735 0.961 . S
C674 H736 0.960 . S
C674 H737 0.958 . S
C675 C672 1.530 . S
C675 H738 0.961 . S
C675 H739 0.960 . S
C675 H740 0.960 . S
C676 C677 1.530 . S
C676 H742 0.961 . S
C676 H743 0.961 . S
C676 H744 0.959 . S
C677 C676 1.530 . S
C677 O705 1.412 . S
C677 H741 0.980 . S
C678 C679 1.288 . S
C678 C683 1.377 . S
C678 O705 1.393 . S
C679 C678 1.288 . S
C679 C680 1.369 . S
C679 H745 0.932 . S
C680 C679 1.369 . S
C680 C681 1.398 . S
C680 C684 1.527 . S
C681 C680 1.398 . S
C681 C682 1.380 . S
C681 C695 1.497 . S
C682 C681 1.380 . S
C682 C683 1.383 . S
C682 C685 1.603 . S
C683 C678 1.377 . S
C683 C682 1.383 . S
C683 H746 0.929 . S
C684 C680 1.527 . S
C684 H747 0.961 . S
C684 H748 0.959 . S
C684 H749 0.959 . S
C685 C682 1.603 . S
C685 H750 0.960 . S
C685 H751 0.962 . S
C685 H752 0.961 . S
C686 C653 1.587 . S
C686 C687 1.360 . S
C686 C699 1.412 . S
C687 C686 1.360 . S
C687 C688 1.365 . S
C687 H753 0.929 . S
C688 C663 1.553 . S
C688 C687 1.365 . S
C688 C689 1.404 . S
C689 C688 1.404 . S
C689 C690 1.395 . S
C689 C700 1.451 . S
C690 C689 1.395 . S
C690 C691 1.322 . S
C690 H754 0.930 . S
C691 C690 1.322 . S
C691 C692 1.459 . S
C691 H755 0.929 . S
C692 C691 1.459 . S
C692 C693 1.445 . S
C692 C701 1.395 . S
C693 C671 1.432 . S
C693 C692 1.445 . S
C693 C694 1.370 . S
C694 C693 1.370 . S
C694 C695 1.438 . S
C694 H756 0.930 . S
C695 C681 1.497 . S
C695 C694 1.438 . S
C695 C696 1.360 . S
C696 C695 1.360 . S
C696 C697 1.401 . S
C696 C701 1.446 . S
C697 C696 1.401 . S
C697 C698 1.347 . S
C697 H757 0.929 . S
C698 C697 1.347 . S
C698 C699 1.455 . S
C698 H758 0.930 . S
C699 C686 1.412 . S
C699 C698 1.455 . S
C699 C700 1.331 . S
C700 C689 1.451 . S
C700 C699 1.331 . S
C700 C701 1.497 . S
C701 C692 1.395 . S
C701 C696 1.446 . S
C701 C700 1.497 . S
C702 C703 1.582 . S
C702 H759 0.962 . S
C702 H760 0.959 . S
C702 H761 0.958 . S
C703 C702 1.582 . S
C703 O706 1.458 . S
C703 H732 0.980 . S
O704 C649 1.426 . S
O704 C650 1.334 . S
O705 C677 1.412 . S
O705 C678 1.393 . S
O706 C668 1.435 . S
O706 C703 1.458 . S
O707 C659 1.468 . S
O707 C660 1.408 . S
H708 C649 0.980 . S
H709 C648 0.959 . S
H710 C648 0.959 . S
H711 C648 0.960 . S
H712 C651 0.929 . S
H713 C655 0.929 . S
H714 C656 0.959 . S
H715 C656 0.961 . S
H716 C656 0.961 . S
H717 C657 0.960 . S
H718 C657 0.960 . S
H719 C657 0.961 . S
H720 C659 0.980 . S
H721 C658 0.961 . S
H722 C658 0.960 . S
H723 C658 0.959 . S
H724 C661 0.930 . S
H725 C665 0.931 . S
H726 C666 0.959 . S
H727 C666 0.961 . S
H728 C666 0.959 . S
H729 C667 0.960 . S
H730 C667 0.960 . S
H731 C667 0.960 . S
H732 C703 0.980 . S
H733 C669 0.930 . S
H734 C673 0.930 . S
H735 C674 0.961 . S
H736 C674 0.960 . S
H737 C674 0.958 . S
H738 C675 0.961 . S
H739 C675 0.960 . S
H740 C675 0.960 . S
H741 C677 0.980 . S
H742 C676 0.961 . S
H743 C676 0.961 . S
H744 C676 0.959 . S
H745 C679 0.932 . S
H746 C683 0.929 . S
H747 C684 0.961 . S
H748 C684 0.959 . S
H749 C684 0.959 . S
H750 C685 0.960 . S
H751 C685 0.962 . S
H752 C685 0.961 . S
H753 C687 0.929 . S
H754 C690 0.930 . S
H755 C691 0.929 . S
H756 C694 0.930 . S
H757 C697 0.929 . S
H758 C698 0.930 . S
H759 C702 0.962 . S
H760 C702 0.959 . S
H761 C702 0.958 . S
C762 C763 1.560 . S
C762 H823 0.959 . S
C762 H824 0.959 . S
C762 H825 0.960 . S
C763 C762 1.560 . S
C763 O818 1.426 . S
C763 H822 0.980 . S
C764 C765 1.407 . S
C764 C769 1.418 . S
C764 O818 1.334 . S
C765 C764 1.407 . S
C765 C766 1.360 . S
C765 H826 0.929 . S
C766 C765 1.360 . S
C766 C767 1.401 . S
C766 C770 1.527 . S
C767 C766 1.401 . S
C767 C768 1.405 . S
C767 C800 1.587 . S
C768 C767 1.405 . S
C768 C769 1.332 . S
C768 C771 1.496 . S
C769 C764 1.418 . S
C769 C768 1.332 . S
C769 H827 0.929 . S
C770 C766 1.527 . S
C770 H828 0.959 . S
C770 H829 0.961 . S
C770 H830 0.961 . S
C771 C768 1.496 . S
C771 H831 0.960 . S
C771 H832 0.960 . S
C771 H833 0.961 . S
C772 C773 1.517 . S
C772 H835 0.961 . S
C772 H836 0.960 . S
C772 H837 0.959 . S
C773 C772 1.517 . S
C773 O821 1.468 . S
C773 H834 0.980 . S
C774 C775 1.349 . S
C774 C779 1.367 . S
C774 O821 1.408 . S
C775 C774 1.349 . S
C775 C776 1.407 . S
C775 H838 0.930 . S
C776 C775 1.407 . S
C776 C777 1.449 . S
C776 C780 1.535 . S
C777 C776 1.449 . S
C777 C778 1.384 . S
C777 C802 1.553 . S
C778 C777 1.384 . S
C778 C779 1.364 . S
C778 C781 1.450 . S
C779 C774 1.367 . S
C779 C778 1.364 . S
C779 H839 0.931 . S
C780 C776 1.535 . S
C780 H840 0.959 . S
C780 H841 0.961 . S
C780 H842 0.959 . S
C781 C778 1.450 . S
C781 H843 0.960 . S
C781 H844 0.960 . S
C781 H845 0.960 . S
C782 C783 1.309 . S
C782 C787 1.304 . S
C782 O820 1.435 . S
C783 C782 1.309 . S
C783 C784 1.476 . S
C783 H847 0.930 . S
C784 C783 1.476 . S
C784 C785 1.400 . S
C784 C788 1.567 . S
C785 C784 1.400 . S
C785 C786 1.373 . S
C785 C807 1.432 . S
C786 C785 1.373 . S
C786 C787 1.339 . S
C786 C789 1.530 . S
C787 C782 1.304 . S
C787 C786 1.339 . S
C787 H848 0.930 . S
C788 C784 1.567 . S
C788 H849 0.961 . S
C788 H850 0.960 . S
C788 H851 0.958 . S
C789 C786 1.530 . S
C789 H852 0.961 . S
C789 H853 0.960 . S
C789 H854 0.960 . S
C790 C791 1.530 . S
C790 H856 0.961 . S
C790 H857 0.961 . S
C790 H858 0.959 . S
C791 C790 1.530 . S
C791 O819 1.412 . S
C791 H855 0.980 . S
C792 C793 1.288 . S
C792 C797 1.377 . S
C792 O819 1.393 . S
C793 C792 1.288 . S
C793 C794 1.369 . S
C793 H859 0.932 . S
C794 C793 1.369 . S
C794 C795 1.398 . S
C794 C798 1.527 . S
C795 C794 1.398 . S
C795 C796 1.380 . S
C795 C809 1.497 . S
C796 C795 1.380 . S
C796 C797 1.383 . S
C796 C799 1.603 . S
C797 C792 1.377 . S
C797 C796 1.383 . S
C797 H860 0.929 . S
C798 C794 1.527 . S
C798 H861 0.961 . S
C798 H862 0.959 . S
C798 H863 0.959 . S
C799 C796 1.603 . S
C799 H864 0.960 . S
C799 H865 0.962 . S
C799 H866 0.961 . S
C800 C767 1.587 . S
C800 C801 1.360 . S
C800 C813 1.412 . S
C801 C800 1.360 . S
C801 C802 1.365 . S
C801 H867 0.929 . S
C802 C777 1.553 . S
C802 C801 1.365 . S
C802 C803 1.404 . S
C803 C802 1.404 . S
C803 C804 1.395 . S
C803 C814 1.451 . S
C804 C803 1.395 . S
C804 C805 1.322 . S
C804 H868 0.930 . S
C805 C804 1.322 . S
C805 C806 1.459 . S
C805 H869 0.929 . S
C806 C805 1.459 . S
C806 C807 1.445 . S
C806 C815 1.395 . S
C807 C785 1.432 . S
C807 C806 1.445 . S
C807 C808 1.370 . S
C808 C807 1.370 . S
C808 C809 1.438 . S
C808 H870 0.930 . S
C809 C795 1.497 . S
C809 C808 1.438 . S
C809 C810 1.360 . S
C810 C809 1.360 . S
C810 C811 1.401 . S
C810 C815 1.446 . S
C811 C810 1.401 . S
C811 C812 1.347 . S
C811 H871 0.929 . S
C812 C811 1.347 . S
C812 C813 1.455 . S
C812 H872 0.930 . S
C813 C800 1.412 . S
C813 C812 1.455 . S
C813 C814 1.331 . S
C814 C803 1.451 . S
C814 C813 1.331 . S
C814 C815 1.497 . S
C815 C806 1.395 . S
C815 C810 1.446 . S
C815 C814 1.497 . S
C816 C817 1.582 . S
C816 H873 0.962 . S
C816 H874 0.959 . S
C816 H875 0.958 . S
C817 C816 1.582 . S
C817 O820 1.458 . S
C817 H846 0.980 . S
O818 C763 1.426 . S
O818 C764 1.334 . S
O819 C791 1.412 . S
O819 C792 1.393 . S
O820 C782 1.435 . S
O820 C817 1.458 . S
O821 C773 1.468 . S
O821 C774 1.408 . S
H822 C763 0.980 . S
H823 C762 0.959 . S
H824 C762 0.959 . S
H825 C762 0.960 . S
H826 C765 0.929 . S
H827 C769 0.929 . S
H828 C770 0.959 . S
H829 C770 0.961 . S
H830 C770 0.961 . S
H831 C771 0.960 . S
H832 C771 0.960 . S
H833 C771 0.961 . S
H834 C773 0.980 . S
H835 C772 0.961 . S
H836 C772 0.960 . S
H837 C772 0.959 . S
H838 C775 0.930 . S
H839 C779 0.931 . S
H840 C780 0.959 . S
H841 C780 0.961 . S
H842 C780 0.959 . S
H843 C781 0.960 . S
H844 C781 0.960 . S
H845 C781 0.960 . S
H846 C817 0.980 . S
H847 C783 0.930 . S
H848 C787 0.930 . S
H849 C788 0.961 . S
H850 C788 0.960 . S
H851 C788 0.958 . S
H852 C789 0.961 . S
H853 C789 0.960 . S
H854 C789 0.960 . S
H855 C791 0.980 . S
H856 C790 0.961 . S
H857 C790 0.961 . S
H858 C790 0.959 . S
H859 C793 0.932 . S
H860 C797 0.929 . S
H861 C798 0.961 . S
H862 C798 0.959 . S
H863 C798 0.959 . S
H864 C799 0.960 . S
H865 C799 0.962 . S
H866 C799 0.961 . S
H867 C801 0.929 . S
H868 C804 0.930 . S
H869 C805 0.929 . S
H870 C808 0.930 . S
H871 C811 0.929 . S
H872 C812 0.930 . S
H873 C816 0.962 . S
H874 C816 0.959 . S
H875 C816 0.958 . S
C876 C877 1.560 . S
C876 H937 0.959 . S
C876 H938 0.959 . S
C876 H939 0.960 . S
C877 C876 1.560 . S
C877 O932 1.426 . S
C877 H936 0.980 . S
C878 C879 1.407 . S
C878 C883 1.418 . S
C878 O932 1.334 . S
C879 C878 1.407 . S
C879 C880 1.360 . S
C879 H940 0.929 . S
C880 C879 1.360 . S
C880 C881 1.401 . S
C880 C884 1.527 . S
C881 C880 1.401 . S
C881 C882 1.405 . S
C881 C914 1.587 . S
C882 C881 1.405 . S
C882 C883 1.332 . S
C882 C885 1.496 . S
C883 C878 1.418 . S
C883 C882 1.332 . S
C883 H941 0.929 . S
C884 C880 1.527 . S
C884 H942 0.959 . S
C884 H943 0.961 . S
C884 H944 0.961 . S
C885 C882 1.496 . S
C885 H945 0.960 . S
C885 H946 0.960 . S
C885 H947 0.961 . S
C886 C887 1.517 . S
C886 H949 0.961 . S
C886 H950 0.960 . S
C886 H951 0.959 . S
C887 C886 1.517 . S
C887 O935 1.468 . S
C887 H948 0.980 . S
C888 C889 1.349 . S
C888 C893 1.367 . S
C888 O935 1.408 . S
C889 C888 1.349 . S
C889 C890 1.407 . S
C889 H952 0.930 . S
C890 C889 1.407 . S
C890 C891 1.449 . S
C890 C894 1.535 . S
C891 C890 1.449 . S
C891 C892 1.384 . S
C891 C916 1.553 . S
C892 C891 1.384 . S
C892 C893 1.364 . S
C892 C895 1.450 . S
C893 C888 1.367 . S
C893 C892 1.364 . S
C893 H953 0.931 . S
C894 C890 1.535 . S
C894 H954 0.959 . S
C894 H955 0.961 . S
C894 H956 0.959 . S
C895 C892 1.450 . S
C895 H957 0.960 . S
C895 H958 0.960 . S
C895 H959 0.960 . S
C896 C897 1.309 . S
C896 C901 1.304 . S
C896 O934 1.435 . S
C897 C896 1.309 . S
C897 C898 1.476 . S
C897 H961 0.930 . S
C898 C897 1.476 . S
C898 C899 1.400 . S
C898 C902 1.567 . S
C899 C898 1.400 . S
C899 C900 1.373 . S
C899 C921 1.432 . S
C900 C899 1.373 . S
C900 C901 1.339 . S
C900 C903 1.530 . S
C901 C896 1.304 . S
C901 C900 1.339 . S
C901 H962 0.930 . S
C902 C898 1.567 . S
C902 H963 0.961 . S
C902 H964 0.960 . S
C902 H965 0.958 . S
C903 C900 1.530 . S
C903 H966 0.961 . S
C903 H967 0.960 . S
C903 H968 0.960 . S
C904 C905 1.530 . S
C904 H970 0.961 . S
C904 H971 0.961 . S
C904 H972 0.959 . S
C905 C904 1.530 . S
C905 O933 1.412 . S
C905 H969 0.980 . S
C906 C907 1.288 . S
C906 C911 1.377 . S
C906 O933 1.393 . S
C907 C906 1.288 . S
C907 C908 1.369 . S
C907 H973 0.932 . S
C908 C907 1.369 . S
C908 C909 1.398 . S
C908 C912 1.527 . S
C909 C908 1.398 . S
C909 C910 1.380 . S
C909 C923 1.497 . S
C910 C909 1.380 . S
C910 C911 1.383 . S
C910 C913 1.603 . S
C911 C906 1.377 . S
C911 C910 1.383 . S
C911 H974 0.929 . S
C912 C908 1.527 . S
C912 H975 0.961 . S
C912 H976 0.959 . S
C912 H977 0.959 . S
C913 C910 1.603 . S
C913 H978 0.960 . S
C913 H979 0.962 . S
C913 H980 0.961 . S
C914 C881 1.587 . S
C914 C915 1.360 . S
C914 C927 1.412 . S
C915 C914 1.360 . S
C915 C916 1.365 . S
C915 H981 0.929 . S
C916 C891 1.553 . S
C916 C915 1.365 . S
C916 C917 1.404 . S
C917 C916 1.404 . S
C917 C918 1.395 . S
C917 C928 1.451 . S
C918 C917 1.395 . S
C918 C919 1.322 . S
C918 H982 0.930 . S
C919 C918 1.322 . S
C919 C920 1.459 . S
C919 H983 0.929 . S
C920 C919 1.459 . S
C920 C921 1.445 . S
C920 C929 1.395 . S
C921 C899 1.432 . S
C921 C920 1.445 . S
C921 C922 1.370 . S
C922 C921 1.370 . S
C922 C923 1.438 . S
C922 H984 0.930 . S
C923 C909 1.497 . S
C923 C922 1.438 . S
C923 C924 1.360 . S
C924 C923 1.360 . S
C924 C925 1.401 . S
C924 C929 1.446 . S
C925 C924 1.401 . S
C925 C926 1.347 . S
C925 H985 0.929 . S
C926 C925 1.347 . S
C926 C927 1.455 . S
C926 H986 0.930 . S
C927 C914 1.412 . S
C927 C926 1.455 . S
C927 C928 1.331 . S
C928 C917 1.451 . S
C928 C927 1.331 . S
C928 C929 1.497 . S
C929 C920 1.395 . S
C929 C924 1.446 . S
C929 C928 1.497 . S
C930 C931 1.582 . S
C930 H987 0.962 . S
C930 H988 0.959 . S
C930 H989 0.958 . S
C931 C930 1.582 . S
C931 O934 1.458 . S
C931 H960 0.980 . S
O932 C877 1.426 . S
O932 C878 1.334 . S
O933 C905 1.412 . S
O933 C906 1.393 . S
O934 C896 1.435 . S
O934 C931 1.458 . S
O935 C887 1.468 . S
O935 C888 1.408 . S
H936 C877 0.980 . S
H937 C876 0.959 . S
H938 C876 0.959 . S
H939 C876 0.960 . S
H940 C879 0.929 . S
H941 C883 0.929 . S
H942 C884 0.959 . S
H943 C884 0.961 . S
H944 C884 0.961 . S
H945 C885 0.960 . S
H946 C885 0.960 . S
H947 C885 0.961 . S
H948 C887 0.980 . S
H949 C886 0.961 . S
H950 C886 0.960 . S
H951 C886 0.959 . S
H952 C889 0.930 . S
H953 C893 0.931 . S
H954 C894 0.959 . S
H955 C894 0.961 . S
H956 C894 0.959 . S
H957 C895 0.960 . S
H958 C895 0.960 . S
H959 C895 0.960 . S
H960 C931 0.980 . S
H961 C897 0.930 . S
H962 C901 0.930 . S
H963 C902 0.961 . S
H964 C902 0.960 . S
H965 C902 0.958 . S
H966 C903 0.961 . S
H967 C903 0.960 . S
H968 C903 0.960 . S
H969 C905 0.980 . S
H970 C904 0.961 . S
H971 C904 0.961 . S
H972 C904 0.959 . S
H973 C907 0.932 . S
H974 C911 0.929 . S
H975 C912 0.961 . S
H976 C912 0.959 . S
H977 C912 0.959 . S
H978 C913 0.960 . S
H979 C913 0.962 . S
H980 C913 0.961 . S
H981 C915 0.929 . S
H982 C918 0.930 . S
H983 C919 0.929 . S
H984 C922 0.930 . S
H985 C925 0.929 . S
H986 C926 0.930 . S
H987 C930 0.962 . S
H988 C930 0.959 . S
H989 C930 0.958 . S
C990 C991 1.560 . S
C990 H1051 0.959 . S
C990 H1052 0.959 . S
C990 H1053 0.960 . S
C991 C990 1.560 . S
C991 O1046 1.426 . S
C991 H1050 0.980 . S
C992 C993 1.407 . S
C992 C997 1.418 . S
C992 O1046 1.334 . S
C993 C992 1.407 . S
C993 C994 1.360 . S
C993 H1054 0.929 . S
C994 C993 1.360 . S
C994 C995 1.401 . S
C994 C998 1.527 . S
C995 C994 1.401 . S
C995 C996 1.405 . S
C995 C1028 1.587 . S
C996 C995 1.405 . S
C996 C997 1.332 . S
C996 C999 1.496 . S
C997 C992 1.418 . S
C997 C996 1.332 . S
C997 H1055 0.929 . S
C998 C994 1.527 . S
C998 H1056 0.959 . S
C998 H1057 0.961 . S
C998 H1058 0.961 . S
C999 C996 1.496 . S
C999 H1059 0.960 . S
C999 H1060 0.960 . S
C999 H1061 0.961 . S
C1000 C1001 1.517 . S
C1000 H1063 0.961 . S
C1000 H1064 0.960 . S
C1000 H1065 0.959 . S
C1001 C1000 1.517 . S
C1001 O1049 1.468 . S
C1001 H1062 0.980 . S
C1002 C1003 1.349 . S
C1002 C1007 1.367 . S
C1002 O1049 1.408 . S
C1003 C1002 1.349 . S
C1003 C1004 1.407 . S
C1003 H1066 0.930 . S
C1004 C1003 1.407 . S
C1004 C1005 1.449 . S
C1004 C1008 1.535 . S
C1005 C1004 1.449 . S
C1005 C1006 1.384 . S
C1005 C1030 1.553 . S
C1006 C1005 1.384 . S
C1006 C1007 1.364 . S
C1006 C1009 1.450 . S
C1007 C1002 1.367 . S
C1007 C1006 1.364 . S
C1007 H1067 0.931 . S
C1008 C1004 1.535 . S
C1008 H1068 0.959 . S
C1008 H1069 0.961 . S
C1008 H1070 0.959 . S
C1009 C1006 1.450 . S
C1009 H1071 0.960 . S
C1009 H1072 0.960 . S
C1009 H1073 0.960 . S
C1010 C1011 1.309 . S
C1010 C1015 1.304 . S
C1010 O1048 1.435 . S
C1011 C1010 1.309 . S
C1011 C1012 1.476 . S
C1011 H1075 0.930 . S
C1012 C1011 1.476 . S
C1012 C1013 1.400 . S
C1012 C1016 1.567 . S
C1013 C1012 1.400 . S
C1013 C1014 1.373 . S
C1013 C1035 1.432 . S
C1014 C1013 1.373 . S
C1014 C1015 1.339 . S
C1014 C1017 1.530 . S
C1015 C1010 1.304 . S
C1015 C1014 1.339 . S
C1015 H1076 0.930 . S
C1016 C1012 1.567 . S
C1016 H1077 0.961 . S
C1016 H1078 0.960 . S
C1016 H1079 0.958 . S
C1017 C1014 1.530 . S
C1017 H1080 0.961 . S
C1017 H1081 0.960 . S
C1017 H1082 0.960 . S
C1018 C1019 1.530 . S
C1018 H1084 0.961 . S
C1018 H1085 0.961 . S
C1018 H1086 0.959 . S
C1019 C1018 1.530 . S
C1019 O1047 1.412 . S
C1019 H1083 0.980 . S
C1020 C1021 1.288 . S
C1020 C1025 1.377 . S
C1020 O1047 1.393 . S
C1021 C1020 1.288 . S
C1021 C1022 1.369 . S
C1021 H1087 0.932 . S
C1022 C1021 1.369 . S
C1022 C1023 1.398 . S
C1022 C1026 1.527 . S
C1023 C1022 1.398 . S
C1023 C1024 1.380 . S
C1023 C1037 1.497 . S
C1024 C1023 1.380 . S
C1024 C1025 1.383 . S
C1024 C1027 1.603 . S
C1025 C1020 1.377 . S
C1025 C1024 1.383 . S
C1025 H1088 0.929 . S
C1026 C1022 1.527 . S
C1026 H1089 0.961 . S
C1026 H1090 0.959 . S
C1026 H1091 0.959 . S
C1027 C1024 1.603 . S
C1027 H1092 0.960 . S
C1027 H1093 0.962 . S
C1027 H1094 0.961 . S
C1028 C995 1.587 . S
C1028 C1029 1.360 . S
C1028 C1041 1.412 . S
C1029 C1028 1.360 . S
C1029 C1030 1.365 . S
C1029 H1095 0.929 . S
C1030 C1005 1.553 . S
C1030 C1029 1.365 . S
C1030 C1031 1.404 . S
C1031 C1030 1.404 . S
C1031 C1032 1.395 . S
C1031 C1042 1.451 . S
C1032 C1031 1.395 . S
C1032 C1033 1.322 . S
C1032 H1096 0.930 . S
C1033 C1032 1.322 . S
C1033 C1034 1.459 . S
C1033 H1097 0.929 . S
C1034 C1033 1.459 . S
C1034 C1035 1.445 . S
C1034 C1043 1.395 . S
C1035 C1013 1.432 . S
C1035 C1034 1.445 . S
C1035 C1036 1.370 . S
C1036 C1035 1.370 . S
C1036 C1037 1.438 . S
C1036 H1098 0.930 . S
C1037 C1023 1.497 . S
C1037 C1036 1.438 . S
C1037 C1038 1.360 . S
C1038 C1037 1.360 . S
C1038 C1039 1.401 . S
C1038 C1043 1.446 . S
C1039 C1038 1.401 . S
C1039 C1040 1.347 . S
C1039 H1099 0.929 . S
C1040 C1039 1.347 . S
C1040 C1041 1.455 . S
C1040 H1100 0.930 . S
C1041 C1028 1.412 . S
C1041 C1040 1.455 . S
C1041 C1042 1.331 . S
C1042 C1031 1.451 . S
C1042 C1041 1.331 . S
C1042 C1043 1.497 . S
C1043 C1034 1.395 . S
C1043 C1038 1.446 . S
C1043 C1042 1.497 . S
C1044 C1045 1.582 . S
C1044 H1101 0.962 . S
C1044 H1102 0.959 . S
C1044 H1103 0.958 . S
C1045 C1044 1.582 . S
C1045 O1048 1.458 . S
C1045 H1074 0.980 . S
O1046 C991 1.426 . S
O1046 C992 1.334 . S
O1047 C1019 1.412 . S
O1047 C1020 1.393 . S
O1048 C1010 1.435 . S
O1048 C1045 1.458 . S
O1049 C1001 1.468 . S
O1049 C1002 1.408 . S
H1050 C991 0.980 . S
H1051 C990 0.959 . S
H1052 C990 0.959 . S
H1053 C990 0.960 . S
H1054 C993 0.929 . S
H1055 C997 0.929 . S
H1056 C998 0.959 . S
H1057 C998 0.961 . S
H1058 C998 0.961 . S
H1059 C999 0.960 . S
H1060 C999 0.960 . S
H1061 C999 0.961 . S
H1062 C1001 0.980 . S
H1063 C1000 0.961 . S
H1064 C1000 0.960 . S
H1065 C1000 0.959 . S
H1066 C1003 0.930 . S
H1067 C1007 0.931 . S
H1068 C1008 0.959 . S
H1069 C1008 0.961 . S
H1070 C1008 0.959 . S
H1071 C1009 0.960 . S
H1072 C1009 0.960 . S
H1073 C1009 0.960 . S
H1074 C1045 0.980 . S
H1075 C1011 0.930 . S
H1076 C1015 0.930 . S
H1077 C1016 0.961 . S
H1078 C1016 0.960 . S
H1079 C1016 0.958 . S
H1080 C1017 0.961 . S
H1081 C1017 0.960 . S
H1082 C1017 0.960 . S
H1083 C1019 0.980 . S
H1084 C1018 0.961 . S
H1085 C1018 0.961 . S
H1086 C1018 0.959 . S
H1087 C1021 0.932 . S
H1088 C1025 0.929 . S
H1089 C1026 0.961 . S
H1090 C1026 0.959 . S
H1091 C1026 0.959 . S
H1092 C1027 0.960 . S
H1093 C1027 0.962 . S
H1094 C1027 0.961 . S
H1095 C1029 0.929 . S
H1096 C1032 0.930 . S
H1097 C1033 0.929 . S
H1098 C1036 0.930 . S
H1099 C1039 0.929 . S
H1100 C1040 0.930 . S
H1101 C1044 0.962 . S
H1102 C1044 0.959 . S
H1103 C1044 0.958 . S
C1104 C1105 1.560 . S
C1104 H1165 0.959 . S
C1104 H1166 0.959 . S
C1104 H1167 0.960 . S
C1105 C1104 1.560 . S
C1105 O1160 1.426 . S
C1105 H1164 0.980 . S
C1106 C1107 1.407 . S
C1106 C1111 1.418 . S
C1106 O1160 1.334 . S
C1107 C1106 1.407 . S
C1107 C1108 1.360 . S
C1107 H1168 0.929 . S
C1108 C1107 1.360 . S
C1108 C1109 1.401 . S
C1108 C1112 1.527 . S
C1109 C1108 1.401 . S
C1109 C1110 1.405 . S
C1109 C1142 1.587 . S
C1110 C1109 1.405 . S
C1110 C1111 1.332 . S
C1110 C1113 1.496 . S
C1111 C1106 1.418 . S
C1111 C1110 1.332 . S
C1111 H1169 0.929 . S
C1112 C1108 1.527 . S
C1112 H1170 0.959 . S
C1112 H1171 0.961 . S
C1112 H1172 0.961 . S
C1113 C1110 1.496 . S
C1113 H1173 0.960 . S
C1113 H1174 0.960 . S
C1113 H1175 0.961 . S
C1114 C1115 1.517 . S
C1114 H1177 0.961 . S
C1114 H1178 0.960 . S
C1114 H1179 0.959 . S
C1115 C1114 1.517 . S
C1115 O1163 1.468 . S
C1115 H1176 0.980 . S
C1116 C1117 1.349 . S
C1116 C1121 1.367 . S
C1116 O1163 1.408 . S
C1117 C1116 1.349 . S
C1117 C1118 1.407 . S
C1117 H1180 0.930 . S
C1118 C1117 1.407 . S
C1118 C1119 1.449 . S
C1118 C1122 1.535 . S
C1119 C1118 1.449 . S
C1119 C1120 1.384 . S
C1119 C1144 1.553 . S
C1120 C1119 1.384 . S
C1120 C1121 1.364 . S
C1120 C1123 1.450 . S
C1121 C1116 1.367 . S
C1121 C1120 1.364 . S
C1121 H1181 0.931 . S
C1122 C1118 1.535 . S
C1122 H1182 0.959 . S
C1122 H1183 0.961 . S
C1122 H1184 0.959 . S
C1123 C1120 1.450 . S
C1123 H1185 0.960 . S
C1123 H1186 0.960 . S
C1123 H1187 0.960 . S
C1124 C1125 1.309 . S
C1124 C1129 1.304 . S
C1124 O1162 1.435 . S
C1125 C1124 1.309 . S
C1125 C1126 1.476 . S
C1125 H1189 0.930 . S
C1126 C1125 1.476 . S
C1126 C1127 1.400 . S
C1126 C1130 1.567 . S
C1127 C1126 1.400 . S
C1127 C1128 1.373 . S
C1127 C1149 1.432 . S
C1128 C1127 1.373 . S
C1128 C1129 1.339 . S
C1128 C1131 1.530 . S
C1129 C1124 1.304 . S
C1129 C1128 1.339 . S
C1129 H1190 0.930 . S
C1130 C1126 1.567 . S
C1130 H1191 0.961 . S
C1130 H1192 0.960 . S
C1130 H1193 0.958 . S
C1131 C1128 1.530 . S
C1131 H1194 0.961 . S
C1131 H1195 0.960 . S
C1131 H1196 0.960 . S
C1132 C1133 1.530 . S
C1132 H1198 0.961 . S
C1132 H1199 0.961 . S
C1132 H1200 0.959 . S
C1133 C1132 1.530 . S
C1133 O1161 1.412 . S
C1133 H1197 0.980 . S
C1134 C1135 1.288 . S
C1134 C1139 1.377 . S
C1134 O1161 1.393 . S
C1135 C1134 1.288 . S
C1135 C1136 1.369 . S
C1135 H1201 0.932 . S
C1136 C1135 1.369 . S
C1136 C1137 1.398 . S
C1136 C1140 1.527 . S
C1137 C1136 1.398 . S
C1137 C1138 1.380 . S
C1137 C1151 1.497 . S
C1138 C1137 1.380 . S
C1138 C1139 1.383 . S
C1138 C1141 1.603 . S
C1139 C1134 1.377 . S
C1139 C1138 1.383 . S
C1139 H1202 0.929 . S
C1140 C1136 1.527 . S
C1140 H1203 0.961 . S
C1140 H1204 0.959 . S
C1140 H1205 0.959 . S
C1141 C1138 1.603 . S
C1141 H1206 0.960 . S
C1141 H1207 0.962 . S
C1141 H1208 0.961 . S
C1142 C1109 1.587 . S
C1142 C1143 1.360 . S
C1142 C1155 1.412 . S
C1143 C1142 1.360 . S
C1143 C1144 1.365 . S
C1143 H1209 0.929 . S
C1144 C1119 1.553 . S
C1144 C1143 1.365 . S
C1144 C1145 1.404 . S
C1145 C1144 1.404 . S
C1145 C1146 1.395 . S
C1145 C1156 1.451 . S
C1146 C1145 1.395 . S
C1146 C1147 1.322 . S
C1146 H1210 0.930 . S
C1147 C1146 1.322 . S
C1147 C1148 1.459 . S
C1147 H1211 0.929 . S
C1148 C1147 1.459 . S
C1148 C1149 1.445 . S
C1148 C1157 1.395 . S
C1149 C1127 1.432 . S
C1149 C1148 1.445 . S
C1149 C1150 1.370 . S
C1150 C1149 1.370 . S
C1150 C1151 1.438 . S
C1150 H1212 0.930 . S
C1151 C1137 1.497 . S
C1151 C1150 1.438 . S
C1151 C1152 1.360 . S
C1152 C1151 1.360 . S
C1152 C1153 1.401 . S
C1152 C1157 1.446 . S
C1153 C1152 1.401 . S
C1153 C1154 1.347 . S
C1153 H1213 0.929 . S
C1154 C1153 1.347 . S
C1154 C1155 1.455 . S
C1154 H1214 0.930 . S
C1155 C1142 1.412 . S
C1155 C1154 1.455 . S
C1155 C1156 1.331 . S
C1156 C1145 1.451 . S
C1156 C1155 1.331 . S
C1156 C1157 1.497 . S
C1157 C1148 1.395 . S
C1157 C1152 1.446 . S
C1157 C1156 1.497 . S
C1158 C1159 1.582 . S
C1158 H1215 0.962 . S
C1158 H1216 0.959 . S
C1158 H1217 0.958 . S
C1159 C1158 1.582 . S
C1159 O1162 1.458 . S
C1159 H1188 0.980 . S
O1160 C1105 1.426 . S
O1160 C1106 1.334 . S
O1161 C1133 1.412 . S
O1161 C1134 1.393 . S
O1162 C1124 1.435 . S
O1162 C1159 1.458 . S
O1163 C1115 1.468 . S
O1163 C1116 1.408 . S
H1164 C1105 0.980 . S
H1165 C1104 0.959 . S
H1166 C1104 0.959 . S
H1167 C1104 0.960 . S
H1168 C1107 0.929 . S
H1169 C1111 0.929 . S
H1170 C1112 0.959 . S
H1171 C1112 0.961 . S
H1172 C1112 0.961 . S
H1173 C1113 0.960 . S
H1174 C1113 0.960 . S
H1175 C1113 0.961 . S
H1176 C1115 0.980 . S
H1177 C1114 0.961 . S
H1178 C1114 0.960 . S
H1179 C1114 0.959 . S
H1180 C1117 0.930 . S
H1181 C1121 0.931 . S
H1182 C1122 0.959 . S
H1183 C1122 0.961 . S
H1184 C1122 0.959 . S
H1185 C1123 0.960 . S
H1186 C1123 0.960 . S
H1187 C1123 0.960 . S
H1188 C1159 0.980 . S
H1189 C1125 0.930 . S
H1190 C1129 0.930 . S
H1191 C1130 0.961 . S
H1192 C1130 0.960 . S
H1193 C1130 0.958 . S
H1194 C1131 0.961 . S
H1195 C1131 0.960 . S
H1196 C1131 0.960 . S
H1197 C1133 0.980 . S
H1198 C1132 0.961 . S
H1199 C1132 0.961 . S
H1200 C1132 0.959 . S
H1201 C1135 0.932 . S
H1202 C1139 0.929 . S
H1203 C1140 0.961 . S
H1204 C1140 0.959 . S
H1205 C1140 0.959 . S
H1206 C1141 0.960 . S
H1207 C1141 0.962 . S
H1208 C1141 0.961 . S
H1209 C1143 0.929 . S
H1210 C1146 0.930 . S
H1211 C1147 0.929 . S
H1212 C1150 0.930 . S
H1213 C1153 0.929 . S
H1214 C1154 0.930 . S
H1215 C1158 0.962 . S
H1216 C1158 0.959 . S
H1217 C1158 0.958 . S
C1218 C1219 1.560 . S
C1218 H1279 0.959 . S
C1218 H1280 0.959 . S
C1218 H1281 0.960 . S
C1219 C1218 1.560 . S
C1219 O1274 1.426 . S
C1219 H1278 0.980 . S
C1220 C1221 1.407 . S
C1220 C1225 1.418 . S
C1220 O1274 1.334 . S
C1221 C1220 1.407 . S
C1221 C1222 1.360 . S
C1221 H1282 0.929 . S
C1222 C1221 1.360 . S
C1222 C1223 1.401 . S
C1222 C1226 1.527 . S
C1223 C1222 1.401 . S
C1223 C1224 1.405 . S
C1223 C1256 1.587 . S
C1224 C1223 1.405 . S
C1224 C1225 1.332 . S
C1224 C1227 1.496 . S
C1225 C1220 1.418 . S
C1225 C1224 1.332 . S
C1225 H1283 0.929 . S
C1226 C1222 1.527 . S
C1226 H1284 0.959 . S
C1226 H1285 0.961 . S
C1226 H1286 0.961 . S
C1227 C1224 1.496 . S
C1227 H1287 0.960 . S
C1227 H1288 0.960 . S
C1227 H1289 0.961 . S
C1228 C1229 1.517 . S
C1228 H1291 0.961 . S
C1228 H1292 0.960 . S
C1228 H1293 0.959 . S
C1229 C1228 1.517 . S
C1229 O1277 1.468 . S
C1229 H1290 0.980 . S
C1230 C1231 1.349 . S
C1230 C1235 1.367 . S
C1230 O1277 1.408 . S
C1231 C1230 1.349 . S
C1231 C1232 1.407 . S
C1231 H1294 0.930 . S
C1232 C1231 1.407 . S
C1232 C1233 1.449 . S
C1232 C1236 1.535 . S
C1233 C1232 1.449 . S
C1233 C1234 1.384 . S
C1233 C1258 1.553 . S
C1234 C1233 1.384 . S
C1234 C1235 1.364 . S
C1234 C1237 1.450 . S
C1235 C1230 1.367 . S
C1235 C1234 1.364 . S
C1235 H1295 0.931 . S
C1236 C1232 1.535 . S
C1236 H1296 0.959 . S
C1236 H1297 0.961 . S
C1236 H1298 0.959 . S
C1237 C1234 1.450 . S
C1237 H1299 0.960 . S
C1237 H1300 0.960 . S
C1237 H1301 0.960 . S
C1238 C1239 1.309 . S
C1238 C1243 1.304 . S
C1238 O1276 1.435 . S
C1239 C1238 1.309 . S
C1239 C1240 1.476 . S
C1239 H1303 0.930 . S
C1240 C1239 1.476 . S
C1240 C1241 1.400 . S
C1240 C1244 1.567 . S
C1241 C1240 1.400 . S
C1241 C1242 1.373 . S
C1241 C1263 1.432 . S
C1242 C1241 1.373 . S
C1242 C1243 1.339 . S
C1242 C1245 1.530 . S
C1243 C1238 1.304 . S
C1243 C1242 1.339 . S
C1243 H1304 0.930 . S
C1244 C1240 1.567 . S
C1244 H1305 0.961 . S
C1244 H1306 0.960 . S
C1244 H1307 0.958 . S
C1245 C1242 1.530 . S
C1245 H1308 0.961 . S
C1245 H1309 0.960 . S
C1245 H1310 0.960 . S
C1246 C1247 1.530 . S
C1246 H1312 0.961 . S
C1246 H1313 0.961 . S
C1246 H1314 0.959 . S
C1247 C1246 1.530 . S
C1247 O1275 1.412 . S
C1247 H1311 0.980 . S
C1248 C1249 1.288 . S
C1248 C1253 1.377 . S
C1248 O1275 1.393 . S
C1249 C1248 1.288 . S
C1249 C1250 1.369 . S
C1249 H1315 0.932 . S
C1250 C1249 1.369 . S
C1250 C1251 1.398 . S
C1250 C1254 1.527 . S
C1251 C1250 1.398 . S
C1251 C1252 1.380 . S
C1251 C1265 1.497 . S
C1252 C1251 1.380 . S
C1252 C1253 1.383 . S
C1252 C1255 1.603 . S
C1253 C1248 1.377 . S
C1253 C1252 1.383 . S
C1253 H1316 0.929 . S
C1254 C1250 1.527 . S
C1254 H1317 0.961 . S
C1254 H1318 0.959 . S
C1254 H1319 0.959 . S
C1255 C1252 1.603 . S
C1255 H1320 0.960 . S
C1255 H1321 0.962 . S
C1255 H1322 0.961 . S
C1256 C1223 1.587 . S
C1256 C1257 1.360 . S
C1256 C1269 1.412 . S
C1257 C1256 1.360 . S
C1257 C1258 1.365 . S
C1257 H1323 0.929 . S
C1258 C1233 1.553 . S
C1258 C1257 1.365 . S
C1258 C1259 1.404 . S
C1259 C1258 1.404 . S
C1259 C1260 1.395 . S
C1259 C1270 1.451 . S
C1260 C1259 1.395 . S
C1260 C1261 1.322 . S
C1260 H1324 0.930 . S
C1261 C1260 1.322 . S
C1261 C1262 1.459 . S
C1261 H1325 0.929 . S
C1262 C1261 1.459 . S
C1262 C1263 1.445 . S
C1262 C1271 1.395 . S
C1263 C1241 1.432 . S
C1263 C1262 1.445 . S
C1263 C1264 1.370 . S
C1264 C1263 1.370 . S
C1264 C1265 1.438 . S
C1264 H1326 0.930 . S
C1265 C1251 1.497 . S
C1265 C1264 1.438 . S
C1265 C1266 1.360 . S
C1266 C1265 1.360 . S
C1266 C1267 1.401 . S
C1266 C1271 1.446 . S
C1267 C1266 1.401 . S
C1267 C1268 1.347 . S
C1267 H1327 0.929 . S
C1268 C1267 1.347 . S
C1268 C1269 1.455 . S
C1268 H1328 0.930 . S
C1269 C1256 1.412 . S
C1269 C1268 1.455 . S
C1269 C1270 1.331 . S
C1270 C1259 1.451 . S
C1270 C1269 1.331 . S
C1270 C1271 1.497 . S
C1271 C1262 1.395 . S
C1271 C1266 1.446 . S
C1271 C1270 1.497 . S
C1272 C1273 1.582 . S
C1272 H1329 0.962 . S
C1272 H1330 0.959 . S
C1272 H1331 0.958 . S
C1273 C1272 1.582 . S
C1273 O1276 1.458 . S
C1273 H1302 0.980 . S
O1274 C1219 1.426 . S
O1274 C1220 1.334 . S
O1275 C1247 1.412 . S
O1275 C1248 1.393 . S
O1276 C1238 1.435 . S
O1276 C1273 1.458 . S
O1277 C1229 1.468 . S
O1277 C1230 1.408 . S
H1278 C1219 0.980 . S
H1279 C1218 0.959 . S
H1280 C1218 0.959 . S
H1281 C1218 0.960 . S
H1282 C1221 0.929 . S
H1283 C1225 0.929 . S
H1284 C1226 0.959 . S
H1285 C1226 0.961 . S
H1286 C1226 0.961 . S
H1287 C1227 0.960 . S
H1288 C1227 0.960 . S
H1289 C1227 0.961 . S
H1290 C1229 0.980 . S
H1291 C1228 0.961 . S
H1292 C1228 0.960 . S
H1293 C1228 0.959 . S
H1294 C1231 0.930 . S
H1295 C1235 0.931 . S
H1296 C1236 0.959 . S
H1297 C1236 0.961 . S
H1298 C1236 0.959 . S
H1299 C1237 0.960 . S
H1300 C1237 0.960 . S
H1301 C1237 0.960 . S
H1302 C1273 0.980 . S
H1303 C1239 0.930 . S
H1304 C1243 0.930 . S
H1305 C1244 0.961 . S
H1306 C1244 0.960 . S
H1307 C1244 0.958 . S
H1308 C1245 0.961 . S
H1309 C1245 0.960 . S
H1310 C1245 0.960 . S
H1311 C1247 0.980 . S
H1312 C1246 0.961 . S
H1313 C1246 0.961 . S
H1314 C1246 0.959 . S
H1315 C1249 0.932 . S
H1316 C1253 0.929 . S
H1317 C1254 0.961 . S
H1318 C1254 0.959 . S
H1319 C1254 0.959 . S
H1320 C1255 0.960 . S
H1321 C1255 0.962 . S
H1322 C1255 0.961 . S
H1323 C1257 0.929 . S
H1324 C1260 0.930 . S
H1325 C1261 0.929 . S
H1326 C1264 0.930 . S
H1327 C1267 0.929 . S
H1328 C1268 0.930 . S
H1329 C1272 0.962 . S
H1330 C1272 0.959 . S
H1331 C1272 0.958 . S
C1332 C1333 1.560 . S
C1332 H1393 0.959 . S
C1332 H1394 0.959 . S
C1332 H1395 0.960 . S
C1333 C1332 1.560 . S
C1333 O1388 1.426 . S
C1333 H1392 0.980 . S
C1334 C1335 1.407 . S
C1334 C1339 1.418 . S
C1334 O1388 1.334 . S
C1335 C1334 1.407 . S
C1335 C1336 1.360 . S
C1335 H1396 0.929 . S
C1336 C1335 1.360 . S
C1336 C1337 1.401 . S
C1336 C1340 1.527 . S
C1337 C1336 1.401 . S
C1337 C1338 1.405 . S
C1337 C1370 1.587 . S
C1338 C1337 1.405 . S
C1338 C1339 1.332 . S
C1338 C1341 1.496 . S
C1339 C1334 1.418 . S
C1339 C1338 1.332 . S
C1339 H1397 0.929 . S
C1340 C1336 1.527 . S
C1340 H1398 0.959 . S
C1340 H1399 0.961 . S
C1340 H1400 0.961 . S
C1341 C1338 1.496 . S
C1341 H1401 0.960 . S
C1341 H1402 0.960 . S
C1341 H1403 0.961 . S
C1342 C1343 1.517 . S
C1342 H1405 0.961 . S
C1342 H1406 0.960 . S
C1342 H1407 0.959 . S
C1343 C1342 1.517 . S
C1343 O1391 1.468 . S
C1343 H1404 0.980 . S
C1344 C1345 1.349 . S
C1344 C1349 1.367 . S
C1344 O1391 1.408 . S
C1345 C1344 1.349 . S
C1345 C1346 1.407 . S
C1345 H1408 0.930 . S
C1346 C1345 1.407 . S
C1346 C1347 1.449 . S
C1346 C1350 1.535 . S
C1347 C1346 1.449 . S
C1347 C1348 1.384 . S
C1347 C1372 1.553 . S
C1348 C1347 1.384 . S
C1348 C1349 1.364 . S
C1348 C1351 1.450 . S
C1349 C1344 1.367 . S
C1349 C1348 1.364 . S
C1349 H1409 0.931 . S
C1350 C1346 1.535 . S
C1350 H1410 0.959 . S
C1350 H1411 0.961 . S
C1350 H1412 0.959 . S
C1351 C1348 1.450 . S
C1351 H1413 0.960 . S
C1351 H1414 0.960 . S
C1351 H1415 0.960 . S
C1352 C1353 1.309 . S
C1352 C1357 1.304 . S
C1352 O1390 1.435 . S
C1353 C1352 1.309 . S
C1353 C1354 1.476 . S
C1353 H1417 0.930 . S
C1354 C1353 1.476 . S
C1354 C1355 1.400 . S
C1354 C1358 1.567 . S
C1355 C1354 1.400 . S
C1355 C1356 1.373 . S
C1355 C1377 1.432 . S
C1356 C1355 1.373 . S
C1356 C1357 1.339 . S
C1356 C1359 1.530 . S
C1357 C1352 1.304 . S
C1357 C1356 1.339 . S
C1357 H1418 0.930 . S
C1358 C1354 1.567 . S
C1358 H1419 0.961 . S
C1358 H1420 0.960 . S
C1358 H1421 0.958 . S
C1359 C1356 1.530 . S
C1359 H1422 0.961 . S
C1359 H1423 0.960 . S
C1359 H1424 0.960 . S
C1360 C1361 1.530 . S
C1360 H1426 0.961 . S
C1360 H1427 0.961 . S
C1360 H1428 0.959 . S
C1361 C1360 1.530 . S
C1361 O1389 1.412 . S
C1361 H1425 0.980 . S
C1362 C1363 1.288 . S
C1362 C1367 1.377 . S
C1362 O1389 1.393 . S
C1363 C1362 1.288 . S
C1363 C1364 1.369 . S
C1363 H1429 0.932 . S
C1364 C1363 1.369 . S
C1364 C1365 1.398 . S
C1364 C1368 1.527 . S
C1365 C1364 1.398 . S
C1365 C1366 1.380 . S
C1365 C1379 1.497 . S
C1366 C1365 1.380 . S
C1366 C1367 1.383 . S
C1366 C1369 1.603 . S
C1367 C1362 1.377 . S
C1367 C1366 1.383 . S
C1367 H1430 0.929 . S
C1368 C1364 1.527 . S
C1368 H1431 0.961 . S
C1368 H1432 0.959 . S
C1368 H1433 0.959 . S
C1369 C1366 1.603 . S
C1369 H1434 0.960 . S
C1369 H1435 0.962 . S
C1369 H1436 0.961 . S
C1370 C1337 1.587 . S
C1370 C1371 1.360 . S
C1370 C1383 1.412 . S
C1371 C1370 1.360 . S
C1371 C1372 1.365 . S
C1371 H1437 0.929 . S
C1372 C1347 1.553 . S
C1372 C1371 1.365 . S
C1372 C1373 1.404 . S
C1373 C1372 1.404 . S
C1373 C1374 1.395 . S
C1373 C1384 1.451 . S
C1374 C1373 1.395 . S
C1374 C1375 1.322 . S
C1374 H1438 0.930 . S
C1375 C1374 1.322 . S
C1375 C1376 1.459 . S
C1375 H1439 0.929 . S
C1376 C1375 1.459 . S
C1376 C1377 1.445 . S
C1376 C1385 1.395 . S
C1377 C1355 1.432 . S
C1377 C1376 1.445 . S
C1377 C1378 1.370 . S
C1378 C1377 1.370 . S
C1378 C1379 1.438 . S
C1378 H1440 0.930 . S
C1379 C1365 1.497 . S
C1379 C1378 1.438 . S
C1379 C1380 1.360 . S
C1380 C1379 1.360 . S
C1380 C1381 1.401 . S
C1380 C1385 1.446 . S
C1381 C1380 1.401 . S
C1381 C1382 1.347 . S
C1381 H1441 0.929 . S
C1382 C1381 1.347 . S
C1382 C1383 1.455 . S
C1382 H1442 0.930 . S
C1383 C1370 1.412 . S
C1383 C1382 1.455 . S
C1383 C1384 1.331 . S
C1384 C1373 1.451 . S
C1384 C1383 1.331 . S
C1384 C1385 1.497 . S
C1385 C1376 1.395 . S
C1385 C1380 1.446 . S
C1385 C1384 1.497 . S
C1386 C1387 1.582 . S
C1386 H1443 0.962 . S
C1386 H1444 0.959 . S
C1386 H1445 0.958 . S
C1387 C1386 1.582 . S
C1387 O1390 1.458 . S
C1387 H1416 0.980 . S
O1388 C1333 1.426 . S
O1388 C1334 1.334 . S
O1389 C1361 1.412 . S
O1389 C1362 1.393 . S
O1390 C1352 1.435 . S
O1390 C1387 1.458 . S
O1391 C1343 1.468 . S
O1391 C1344 1.408 . S
H1392 C1333 0.980 . S
H1393 C1332 0.959 . S
H1394 C1332 0.959 . S
H1395 C1332 0.960 . S
H1396 C1335 0.929 . S
H1397 C1339 0.929 . S
H1398 C1340 0.959 . S
H1399 C1340 0.961 . S
H1400 C1340 0.961 . S
H1401 C1341 0.960 . S
H1402 C1341 0.960 . S
H1403 C1341 0.961 . S
H1404 C1343 0.980 . S
H1405 C1342 0.961 . S
H1406 C1342 0.960 . S
H1407 C1342 0.959 . S
H1408 C1345 0.930 . S
H1409 C1349 0.931 . S
H1410 C1350 0.959 . S
H1411 C1350 0.961 . S
H1412 C1350 0.959 . S
H1413 C1351 0.960 . S
H1414 C1351 0.960 . S
H1415 C1351 0.960 . S
H1416 C1387 0.980 . S
H1417 C1353 0.930 . S
H1418 C1357 0.930 . S
H1419 C1358 0.961 . S
H1420 C1358 0.960 . S
H1421 C1358 0.958 . S
H1422 C1359 0.961 . S
H1423 C1359 0.960 . S
H1424 C1359 0.960 . S
H1425 C1361 0.980 . S
H1426 C1360 0.961 . S
H1427 C1360 0.961 . S
H1428 C1360 0.959 . S
H1429 C1363 0.932 . S
H1430 C1367 0.929 . S
H1431 C1368 0.961 . S
H1432 C1368 0.959 . S
H1433 C1368 0.959 . S
H1434 C1369 0.960 . S
H1435 C1369 0.962 . S
H1436 C1369 0.961 . S
H1437 C1371 0.929 . S
H1438 C1374 0.930 . S
H1439 C1375 0.929 . S
H1440 C1378 0.930 . S
H1441 C1381 0.929 . S
H1442 C1382 0.930 . S
H1443 C1386 0.962 . S
H1444 C1386 0.959 . S
H1445 C1386 0.958 . S
C1446 C1447 1.560 . S
C1446 H1507 0.959 . S
C1446 H1508 0.959 . S
C1446 H1509 0.960 . S
C1447 C1446 1.560 . S
C1447 O1502 1.426 . S
C1447 H1506 0.980 . S
C1448 C1449 1.407 . S
C1448 C1453 1.418 . S
C1448 O1502 1.334 . S
C1449 C1448 1.407 . S
C1449 C1450 1.360 . S
C1449 H1510 0.929 . S
C1450 C1449 1.360 . S
C1450 C1451 1.401 . S
C1450 C1454 1.527 . S
C1451 C1450 1.401 . S
C1451 C1452 1.405 . S
C1451 C1484 1.587 . S
C1452 C1451 1.405 . S
C1452 C1453 1.332 . S
C1452 C1455 1.496 . S
C1453 C1448 1.418 . S
C1453 C1452 1.332 . S
C1453 H1511 0.929 . S
C1454 C1450 1.527 . S
C1454 H1512 0.959 . S
C1454 H1513 0.961 . S
C1454 H1514 0.961 . S
C1455 C1452 1.496 . S
C1455 H1515 0.960 . S
C1455 H1516 0.960 . S
C1455 H1517 0.961 . S
C1456 C1457 1.517 . S
C1456 H1519 0.961 . S
C1456 H1520 0.960 . S
C1456 H1521 0.959 . S
C1457 C1456 1.517 . S
C1457 O1505 1.468 . S
C1457 H1518 0.980 . S
C1458 C1459 1.349 . S
C1458 C1463 1.367 . S
C1458 O1505 1.408 . S
C1459 C1458 1.349 . S
C1459 C1460 1.407 . S
C1459 H1522 0.930 . S
C1460 C1459 1.407 . S
C1460 C1461 1.449 . S
C1460 C1464 1.535 . S
C1461 C1460 1.449 . S
C1461 C1462 1.384 . S
C1461 C1486 1.553 . S
C1462 C1461 1.384 . S
C1462 C1463 1.364 . S
C1462 C1465 1.450 . S
C1463 C1458 1.367 . S
C1463 C1462 1.364 . S
C1463 H1523 0.931 . S
C1464 C1460 1.535 . S
C1464 H1524 0.959 . S
C1464 H1525 0.961 . S
C1464 H1526 0.959 . S
C1465 C1462 1.450 . S
C1465 H1527 0.960 . S
C1465 H1528 0.960 . S
C1465 H1529 0.960 . S
C1466 C1467 1.309 . S
C1466 C1471 1.304 . S
C1466 O1504 1.435 . S
C1467 C1466 1.309 . S
C1467 C1468 1.476 . S
C1467 H1531 0.930 . S
C1468 C1467 1.476 . S
C1468 C1469 1.400 . S
C1468 C1472 1.567 . S
C1469 C1468 1.400 . S
C1469 C1470 1.373 . S
C1469 C1491 1.432 . S
C1470 C1469 1.373 . S
C1470 C1471 1.339 . S
C1470 C1473 1.530 . S
C1471 C1466 1.304 . S
C1471 C1470 1.339 . S
C1471 H1532 0.930 . S
C1472 C1468 1.567 . S
C1472 H1533 0.961 . S
C1472 H1534 0.960 . S
C1472 H1535 0.958 . S
C1473 C1470 1.530 . S
C1473 H1536 0.961 . S
C1473 H1537 0.960 . S
C1473 H1538 0.960 . S
C1474 C1475 1.530 . S
C1474 H1540 0.961 . S
C1474 H1541 0.961 . S
C1474 H1542 0.959 . S
C1475 C1474 1.530 . S
C1475 O1503 1.412 . S
C1475 H1539 0.980 . S
C1476 C1477 1.288 . S
C1476 C1481 1.377 . S
C1476 O1503 1.393 . S
C1477 C1476 1.288 . S
C1477 C1478 1.369 . S
C1477 H1543 0.932 . S
C1478 C1477 1.369 . S
C1478 C1479 1.398 . S
C1478 C1482 1.527 . S
C1479 C1478 1.398 . S
C1479 C1480 1.380 . S
C1479 C1493 1.497 . S
C1480 C1479 1.380 . S
C1480 C1481 1.383 . S
C1480 C1483 1.603 . S
C1481 C1476 1.377 . S
C1481 C1480 1.383 . S
C1481 H1544 0.929 . S
C1482 C1478 1.527 . S
C1482 H1545 0.961 . S
C1482 H1546 0.959 . S
C1482 H1547 0.959 . S
C1483 C1480 1.603 . S
C1483 H1548 0.960 . S
C1483 H1549 0.962 . S
C1483 H1550 0.961 . S
C1484 C1451 1.587 . S
C1484 C1485 1.360 . S
C1484 C1497 1.412 . S
C1485 C1484 1.360 . S
C1485 C1486 1.365 . S
C1485 H1551 0.929 . S
C1486 C1461 1.553 . S
C1486 C1485 1.365 . S
C1486 C1487 1.404 . S
C1487 C1486 1.404 . S
C1487 C1488 1.395 . S
C1487 C1498 1.451 . S
C1488 C1487 1.395 . S
C1488 C1489 1.322 . S
C1488 H1552 0.930 . S
C1489 C1488 1.322 . S
C1489 C1490 1.459 . S
C1489 H1553 0.929 . S
C1490 C1489 1.459 . S
C1490 C1491 1.445 . S
C1490 C1499 1.395 . S
C1491 C1469 1.432 . S
C1491 C1490 1.445 . S
C1491 C1492 1.370 . S
C1492 C1491 1.370 . S
C1492 C1493 1.438 . S
C1492 H1554 0.930 . S
C1493 C1479 1.497 . S
C1493 C1492 1.438 . S
C1493 C1494 1.360 . S
C1494 C1493 1.360 . S
C1494 C1495 1.401 . S
C1494 C1499 1.446 . S
C1495 C1494 1.401 . S
C1495 C1496 1.347 . S
C1495 H1555 0.929 . S
C1496 C1495 1.347 . S
C1496 C1497 1.455 . S
C1496 H1556 0.930 . S
C1497 C1484 1.412 . S
C1497 C1496 1.455 . S
C1497 C1498 1.331 . S
C1498 C1487 1.451 . S
C1498 C1497 1.331 . S
C1498 C1499 1.497 . S
C1499 C1490 1.395 . S
C1499 C1494 1.446 . S
C1499 C1498 1.497 . S
C1500 C1501 1.582 . S
C1500 H1557 0.962 . S
C1500 H1558 0.959 . S
C1500 H1559 0.958 . S
C1501 C1500 1.582 . S
C1501 O1504 1.458 . S
C1501 H1530 0.980 . S
O1502 C1447 1.426 . S
O1502 C1448 1.334 . S
O1503 C1475 1.412 . S
O1503 C1476 1.393 . S
O1504 C1466 1.435 . S
O1504 C1501 1.458 . S
O1505 C1457 1.468 . S
O1505 C1458 1.408 . S
H1506 C1447 0.980 . S
H1507 C1446 0.959 . S
H1508 C1446 0.959 . S
H1509 C1446 0.960 . S
H1510 C1449 0.929 . S
H1511 C1453 0.929 . S
H1512 C1454 0.959 . S
H1513 C1454 0.961 . S
H1514 C1454 0.961 . S
H1515 C1455 0.960 . S
H1516 C1455 0.960 . S
H1517 C1455 0.961 . S
H1518 C1457 0.980 . S
H1519 C1456 0.961 . S
H1520 C1456 0.960 . S
H1521 C1456 0.959 . S
H1522 C1459 0.930 . S
H1523 C1463 0.931 . S
H1524 C1464 0.959 . S
H1525 C1464 0.961 . S
H1526 C1464 0.959 . S
H1527 C1465 0.960 . S
H1528 C1465 0.960 . S
H1529 C1465 0.960 . S
H1530 C1501 0.980 . S
H1531 C1467 0.930 . S
H1532 C1471 0.930 . S
H1533 C1472 0.961 . S
H1534 C1472 0.960 . S
H1535 C1472 0.958 . S
H1536 C1473 0.961 . S
H1537 C1473 0.960 . S
H1538 C1473 0.960 . S
H1539 C1475 0.980 . S
H1540 C1474 0.961 . S
H1541 C1474 0.961 . S
H1542 C1474 0.959 . S
H1543 C1477 0.932 . S
H1544 C1481 0.929 . S
H1545 C1482 0.961 . S
H1546 C1482 0.959 . S
H1547 C1482 0.959 . S
H1548 C1483 0.960 . S
H1549 C1483 0.962 . S
H1550 C1483 0.961 . S
H1551 C1485 0.929 . S
H1552 C1488 0.930 . S
H1553 C1489 0.929 . S
H1554 C1492 0.930 . S
H1555 C1495 0.929 . S
H1556 C1496 0.930 . S
H1557 C1500 0.962 . S
H1558 C1500 0.959 . S
H1559 C1500 0.958 . S
C1560 C1561 1.560 . S
C1560 H1621 0.959 . S
C1560 H1622 0.959 . S
C1560 H1623 0.960 . S
C1561 C1560 1.560 . S
C1561 O1616 1.426 . S
C1561 H1620 0.980 . S
C1562 C1563 1.407 . S
C1562 C1567 1.418 . S
C1562 O1616 1.334 . S
C1563 C1562 1.407 . S
C1563 C1564 1.360 . S
C1563 H1624 0.929 . S
C1564 C1563 1.360 . S
C1564 C1565 1.401 . S
C1564 C1568 1.527 . S
C1565 C1564 1.401 . S
C1565 C1566 1.405 . S
C1565 C1598 1.587 . S
C1566 C1565 1.405 . S
C1566 C1567 1.332 . S
C1566 C1569 1.496 . S
C1567 C1562 1.418 . S
C1567 C1566 1.332 . S
C1567 H1625 0.929 . S
C1568 C1564 1.527 . S
C1568 H1626 0.959 . S
C1568 H1627 0.961 . S
C1568 H1628 0.961 . S
C1569 C1566 1.496 . S
C1569 H1629 0.960 . S
C1569 H1630 0.960 . S
C1569 H1631 0.961 . S
C1570 C1571 1.517 . S
C1570 H1633 0.961 . S
C1570 H1634 0.960 . S
C1570 H1635 0.959 . S
C1571 C1570 1.517 . S
C1571 O1619 1.468 . S
C1571 H1632 0.980 . S
C1572 C1573 1.349 . S
C1572 C1577 1.367 . S
C1572 O1619 1.408 . S
C1573 C1572 1.349 . S
C1573 C1574 1.407 . S
C1573 H1636 0.930 . S
C1574 C1573 1.407 . S
C1574 C1575 1.449 . S
C1574 C1578 1.535 . S
C1575 C1574 1.449 . S
C1575 C1576 1.384 . S
C1575 C1600 1.553 . S
C1576 C1575 1.384 . S
C1576 C1577 1.364 . S
C1576 C1579 1.450 . S
C1577 C1572 1.367 . S
C1577 C1576 1.364 . S
C1577 H1637 0.931 . S
C1578 C1574 1.535 . S
C1578 H1638 0.959 . S
C1578 H1639 0.961 . S
C1578 H1640 0.959 . S
C1579 C1576 1.450 . S
C1579 H1641 0.960 . S
C1579 H1642 0.960 . S
C1579 H1643 0.960 . S
C1580 C1581 1.309 . S
C1580 C1585 1.304 . S
C1580 O1618 1.435 . S
C1581 C1580 1.309 . S
C1581 C1582 1.476 . S
C1581 H1645 0.930 . S
C1582 C1581 1.476 . S
C1582 C1583 1.400 . S
C1582 C1586 1.567 . S
C1583 C1582 1.400 . S
C1583 C1584 1.373 . S
C1583 C1605 1.432 . S
C1584 C1583 1.373 . S
C1584 C1585 1.339 . S
C1584 C1587 1.530 . S
C1585 C1580 1.304 . S
C1585 C1584 1.339 . S
C1585 H1646 0.930 . S
C1586 C1582 1.567 . S
C1586 H1647 0.961 . S
C1586 H1648 0.960 . S
C1586 H1649 0.958 . S
C1587 C1584 1.530 . S
C1587 H1650 0.961 . S
C1587 H1651 0.960 . S
C1587 H1652 0.960 . S
C1588 C1589 1.530 . S
C1588 H1654 0.961 . S
C1588 H1655 0.961 . S
C1588 H1656 0.959 . S
C1589 C1588 1.530 . S
C1589 O1617 1.412 . S
C1589 H1653 0.980 . S
C1590 C1591 1.288 . S
C1590 C1595 1.377 . S
C1590 O1617 1.393 . S
C1591 C1590 1.288 . S
C1591 C1592 1.369 . S
C1591 H1657 0.932 . S
C1592 C1591 1.369 . S
C1592 C1593 1.398 . S
C1592 C1596 1.527 . S
C1593 C1592 1.398 . S
C1593 C1594 1.380 . S
C1593 C1607 1.497 . S
C1594 C1593 1.380 . S
C1594 C1595 1.383 . S
C1594 C1597 1.603 . S
C1595 C1590 1.377 . S
C1595 C1594 1.383 . S
C1595 H1658 0.929 . S
C1596 C1592 1.527 . S
C1596 H1659 0.961 . S
C1596 H1660 0.959 . S
C1596 H1661 0.959 . S
C1597 C1594 1.603 . S
C1597 H1662 0.960 . S
C1597 H1663 0.962 . S
C1597 H1664 0.961 . S
C1598 C1565 1.587 . S
C1598 C1599 1.360 . S
C1598 C1611 1.412 . S
C1599 C1598 1.360 . S
C1599 C1600 1.365 . S
C1599 H1665 0.929 . S
C1600 C1575 1.553 . S
C1600 C1599 1.365 . S
C1600 C1601 1.404 . S
C1601 C1600 1.404 . S
C1601 C1602 1.395 . S
C1601 C1612 1.451 . S
C1602 C1601 1.395 . S
C1602 C1603 1.322 . S
C1602 H1666 0.930 . S
C1603 C1602 1.322 . S
C1603 C1604 1.459 . S
C1603 H1667 0.929 . S
C1604 C1603 1.459 . S
C1604 C1605 1.445 . S
C1604 C1613 1.395 . S
C1605 C1583 1.432 . S
C1605 C1604 1.445 . S
C1605 C1606 1.370 . S
C1606 C1605 1.370 . S
C1606 C1607 1.438 . S
C1606 H1668 0.930 . S
C1607 C1593 1.497 . S
C1607 C1606 1.438 . S
C1607 C1608 1.360 . S
C1608 C1607 1.360 . S
C1608 C1609 1.401 . S
C1608 C1613 1.446 . S
C1609 C1608 1.401 . S
C1609 C1610 1.347 . S
C1609 H1669 0.929 . S
C1610 C1609 1.347 . S
C1610 C1611 1.455 . S
C1610 H1670 0.930 . S
C1611 C1598 1.412 . S
C1611 C1610 1.455 . S
C1611 C1612 1.331 . S
C1612 C1601 1.451 . S
C1612 C1611 1.331 . S
C1612 C1613 1.497 . S
C1613 C1604 1.395 . S
C1613 C1608 1.446 . S
C1613 C1612 1.497 . S
C1614 C1615 1.582 . S
C1614 H1671 0.962 . S
C1614 H1672 0.959 . S
C1614 H1673 0.958 . S
C1615 C1614 1.582 . S
C1615 O1618 1.458 . S
C1615 H1644 0.980 . S
O1616 C1561 1.426 . S
O1616 C1562 1.334 . S
O1617 C1589 1.412 . S
O1617 C1590 1.393 . S
O1618 C1580 1.435 . S
O1618 C1615 1.458 . S
O1619 C1571 1.468 . S
O1619 C1572 1.408 . S
H1620 C1561 0.980 . S
H1621 C1560 0.959 . S
H1622 C1560 0.959 . S
H1623 C1560 0.960 . S
H1624 C1563 0.929 . S
H1625 C1567 0.929 . S
H1626 C1568 0.959 . S
H1627 C1568 0.961 . S
H1628 C1568 0.961 . S
H1629 C1569 0.960 . S
H1630 C1569 0.960 . S
H1631 C1569 0.961 . S
H1632 C1571 0.980 . S
H1633 C1570 0.961 . S
H1634 C1570 0.960 . S
H1635 C1570 0.959 . S
H1636 C1573 0.930 . S
H1637 C1577 0.931 . S
H1638 C1578 0.959 . S
H1639 C1578 0.961 . S
H1640 C1578 0.959 . S
H1641 C1579 0.960 . S
H1642 C1579 0.960 . S
H1643 C1579 0.960 . S
H1644 C1615 0.980 . S
H1645 C1581 0.930 . S
H1646 C1585 0.930 . S
H1647 C1586 0.961 . S
H1648 C1586 0.960 . S
H1649 C1586 0.958 . S
H1650 C1587 0.961 . S
H1651 C1587 0.960 . S
H1652 C1587 0.960 . S
H1653 C1589 0.980 . S
H1654 C1588 0.961 . S
H1655 C1588 0.961 . S
H1656 C1588 0.959 . S
H1657 C1591 0.932 . S
H1658 C1595 0.929 . S
H1659 C1596 0.961 . S
H1660 C1596 0.959 . S
H1661 C1596 0.959 . S
H1662 C1597 0.960 . S
H1663 C1597 0.962 . S
H1664 C1597 0.961 . S
H1665 C1599 0.929 . S
H1666 C1602 0.930 . S
H1667 C1603 0.929 . S
H1668 C1606 0.930 . S
H1669 C1609 0.929 . S
H1670 C1610 0.930 . S
H1671 C1614 0.962 . S
H1672 C1614 0.959 . S
H1673 C1614 0.958 . S
C1674 C1675 1.560 . S
C1674 H1735 0.959 . S
C1674 H1736 0.959 . S
C1674 H1737 0.960 . S
C1675 C1674 1.560 . S
C1675 O1730 1.426 . S
C1675 H1734 0.980 . S
C1676 C1677 1.407 1_455 S
C1676 C1681 1.418 . S
C1676 O1730 1.334 . S
C1677 C1676 1.407 1_655 S
C1677 C1678 1.360 . S
C1677 H1738 0.929 . S
C1678 C1677 1.360 . S
C1678 C1679 1.401 1_655 S
C1678 C1682 1.527 . S
C1679 C1678 1.401 1_455 S
C1679 C1680 1.405 . S
C1679 C1712 1.587 1_455 S
C1680 C1679 1.405 . S
C1680 C1681 1.332 . S
C1680 C1683 1.496 . S
C1681 C1676 1.418 . S
C1681 C1680 1.332 . S
C1681 H1739 0.929 . S
C1682 C1678 1.527 . S
C1682 H1740 0.959 . S
C1682 H1741 0.961 . S
C1682 H1742 0.961 . S
C1683 C1680 1.496 . S
C1683 H1743 0.960 . S
C1683 H1744 0.960 . S
C1683 H1745 0.961 . S
C1684 C1685 1.517 . S
C1684 H1747 0.974 . S
C1684 H1748 0.960 . S
C1684 H1749 0.959 . S
C1685 C1684 1.517 . S
C1685 O1733 1.468 . S
C1685 H1746 0.980 1_655 S
C1686 C1687 1.349 . S
C1686 C1691 1.367 . S
C1686 O1733 1.408 . S
C1687 C1686 1.349 . S
C1687 C1688 1.369 1_655 S
C1687 H1750 0.930 1_655 S
C1688 C1687 1.369 1_455 S
C1688 C1689 1.415 1_455 S
C1688 C1692 1.604 . S
C1689 C1688 1.415 1_655 S
C1689 C1690 1.384 . S
C1689 C1714 1.553 . S
C1690 C1689 1.384 . S
C1690 C1691 1.364 . S
C1690 C1693 1.450 . S
C1691 C1686 1.367 . S
C1691 C1690 1.364 . S
C1691 H1751 0.931 . S
C1692 C1688 1.604 . S
C1692 H1752 0.959 . S
C1692 H1753 0.961 . S
C1692 H1754 0.959 . S
C1693 C1690 1.450 . S
C1693 H1755 0.960 . S
C1693 H1756 0.960 . S
C1693 H1757 0.960 . S
C1694 C1695 1.309 . S
C1694 C1699 1.304 . S
C1694 O1732 1.435 . S
C1695 C1694 1.309 . S
C1695 C1696 1.446 1_655 S
C1695 H1759 0.930 1_655 S
C1696 C1695 1.446 1_455 S
C1696 C1697 1.381 1_455 S
C1696 C1700 1.616 . S
C1697 C1696 1.381 1_655 S
C1697 C1698 1.373 . S
C1697 C1719 1.432 . S
C1698 C1697 1.373 . S
C1698 C1699 1.339 . S
C1698 C1701 1.530 . S
C1699 C1694 1.304 . S
C1699 C1698 1.339 . S
C1699 H1760 0.930 . S
C1700 C1696 1.616 . S
C1700 H1761 0.961 . S
C1700 H1762 0.960 . S
C1700 H1763 0.958 . S
C1701 C1698 1.530 . S
C1701 H1764 0.961 . S
C1701 H1765 0.960 . S
C1701 H1766 0.960 . S
C1702 C1703 1.512 1_455 S
C1702 H1768 0.961 . S
C1702 H1769 0.961 . S
C1702 H1770 0.959 . S
C1703 C1702 1.512 1_655 S
C1703 O1731 1.408 1_655 S
C1703 H1767 0.986 . S
C1704 C1705 1.288 . S
C1704 C1709 1.377 1_455 S
C1704 O1731 1.393 . S
C1705 C1704 1.288 . S
C1705 C1706 1.369 . S
C1705 H1771 0.932 . S
C1706 C1705 1.369 . S
C1706 C1707 1.398 1_455 S
C1706 C1710 1.527 . S
C1707 C1706 1.398 1_655 S
C1707 C1708 1.380 . S
C1707 C1721 1.497 . S
C1708 C1707 1.380 . S
C1708 C1709 1.383 . S
C1708 C1711 1.603 . S
C1709 C1704 1.377 1_655 S
C1709 C1708 1.383 . S
C1709 H1772 0.929 . S
C1710 C1706 1.527 . S
C1710 H1773 0.961 . S
C1710 H1774 0.959 . S
C1710 H1775 0.959 . S
C1711 C1708 1.603 . S
C1711 H1776 0.960 . S
C1711 H1777 0.962 . S
C1711 H1778 0.961 . S
C1712 C1679 1.587 1_655 S
C1712 C1713 1.360 . S
C1712 C1725 1.412 . S
C1713 C1712 1.360 . S
C1713 C1714 1.365 . S
C1713 H1779 0.929 . S
C1714 C1689 1.553 . S
C1714 C1713 1.365 . S
C1714 C1715 1.404 . S
C1715 C1714 1.404 . S
C1715 C1716 1.395 . S
C1715 C1726 1.451 . S
C1716 C1715 1.395 . S
C1716 C1717 1.322 . S
C1716 H1780 0.930 . S
C1717 C1716 1.322 . S
C1717 C1718 1.459 . S
C1717 H1781 0.929 . S
C1718 C1717 1.459 . S
C1718 C1719 1.445 . S
C1718 C1727 1.395 . S
C1719 C1697 1.432 . S
C1719 C1718 1.445 . S
C1719 C1720 1.370 . S
C1720 C1719 1.370 . S
C1720 C1721 1.438 . S
C1720 H1782 0.930 . S
C1721 C1707 1.497 . S
C1721 C1720 1.438 . S
C1721 C1722 1.360 . S
C1722 C1721 1.360 . S
C1722 C1723 1.401 . S
C1722 C1727 1.446 . S
C1723 C1722 1.401 . S
C1723 C1724 1.347 . S
C1723 H1783 0.929 . S
C1724 C1723 1.347 . S
C1724 C1725 1.455 . S
C1724 H1784 0.930 . S
C1725 C1712 1.412 . S
C1725 C1724 1.455 . S
C1725 C1726 1.331 . S
C1726 C1715 1.451 . S
C1726 C1725 1.331 . S
C1726 C1727 1.497 . S
C1727 C1718 1.395 . S
C1727 C1722 1.446 . S
C1727 C1726 1.497 . S
C1728 C1729 1.582 . S
C1728 H1785 0.962 . S
C1728 H1786 0.959 . S
C1728 H1787 0.958 . S
C1729 C1728 1.582 . S
C1729 O1732 1.458 . S
C1729 H1758 0.980 . S
O1730 C1675 1.426 . S
O1730 C1676 1.334 . S
O1731 C1703 1.408 1_455 S
O1731 C1704 1.393 . S
O1732 C1694 1.435 . S
O1732 C1729 1.458 . S
O1733 C1685 1.468 . S
O1733 C1686 1.408 . S
H1734 C1675 0.980 . S
H1735 C1674 0.959 . S
H1736 C1674 0.959 . S
H1737 C1674 0.960 . S
H1738 C1677 0.929 . S
H1739 C1681 0.929 . S
H1740 C1682 0.959 . S
H1741 C1682 0.961 . S
H1742 C1682 0.961 . S
H1743 C1683 0.960 . S
H1744 C1683 0.960 . S
H1745 C1683 0.961 . S
H1746 C1685 0.980 1_455 S
H1747 C1684 0.974 . S
H1748 C1684 0.960 . S
H1749 C1684 0.959 . S
H1750 C1687 0.930 1_455 S
H1751 C1691 0.931 . S
H1752 C1692 0.959 . S
H1753 C1692 0.961 . S
H1754 C1692 0.959 . S
H1755 C1693 0.960 . S
H1756 C1693 0.960 . S
H1757 C1693 0.960 . S
H1758 C1729 0.980 . S
H1759 C1695 0.930 1_455 S
H1760 C1699 0.930 . S
H1761 C1700 0.961 . S
H1762 C1700 0.960 . S
H1763 C1700 0.958 . S
H1764 C1701 0.961 . S
H1765 C1701 0.960 . S
H1766 C1701 0.960 . S
H1767 C1703 0.986 . S
H1768 C1702 0.961 . S
H1769 C1702 0.961 . S
H1770 C1702 0.959 . S
H1771 C1705 0.932 . S
H1772 C1709 0.929 . S
H1773 C1710 0.961 . S
H1774 C1710 0.959 . S
H1775 C1710 0.959 . S
H1776 C1711 0.960 . S
H1777 C1711 0.962 . S
H1778 C1711 0.961 . S
H1779 C1713 0.929 . S
H1780 C1716 0.930 . S
H1781 C1717 0.929 . S
H1782 C1720 0.930 . S
H1783 C1723 0.929 . S
H1784 C1724 0.930 . S
H1785 C1728 0.962 . S
H1786 C1728 0.959 . S
H1787 C1728 0.958 . S
C1788 C1789 1.560 . S
C1788 H1849 0.959 . S
C1788 H1850 0.959 . S
C1788 H1851 0.960 . S
C1789 C1788 1.560 . S
C1789 O1844 1.426 . S
C1789 H1848 0.980 . S
C1790 C1791 1.407 . S
C1790 C1795 1.418 . S
C1790 O1844 1.334 . S
C1791 C1790 1.407 . S
C1791 C1792 1.360 . S
C1791 H1852 0.929 . S
C1792 C1791 1.360 . S
C1792 C1793 1.401 . S
C1792 C1796 1.527 . S
C1793 C1792 1.401 . S
C1793 C1794 1.405 . S
C1793 C1826 1.587 . S
C1794 C1793 1.405 . S
C1794 C1795 1.332 . S
C1794 C1797 1.496 . S
C1795 C1790 1.418 . S
C1795 C1794 1.332 . S
C1795 H1853 0.929 . S
C1796 C1792 1.527 . S
C1796 H1854 0.959 . S
C1796 H1855 0.961 . S
C1796 H1856 0.961 . S
C1797 C1794 1.496 . S
C1797 H1857 0.960 . S
C1797 H1858 0.960 . S
C1797 H1859 0.961 . S
C1798 C1799 1.517 . S
C1798 H1861 0.961 . S
C1798 H1862 0.960 . S
C1798 H1863 0.959 . S
C1799 C1798 1.517 . S
C1799 O1847 1.468 . S
C1799 H1860 0.980 . S
C1800 C1801 1.349 . S
C1800 C1805 1.367 . S
C1800 O1847 1.408 . S
C1801 C1800 1.349 . S
C1801 C1802 1.407 . S
C1801 H1864 0.930 . S
C1802 C1801 1.407 . S
C1802 C1803 1.449 . S
C1802 C1806 1.535 . S
C1803 C1802 1.449 . S
C1803 C1804 1.384 . S
C1803 C1828 1.553 . S
C1804 C1803 1.384 . S
C1804 C1805 1.364 . S
C1804 C1807 1.450 . S
C1805 C1800 1.367 . S
C1805 C1804 1.364 . S
C1805 H1865 0.931 . S
C1806 C1802 1.535 . S
C1806 H1866 0.959 . S
C1806 H1867 0.961 . S
C1806 H1868 0.959 . S
C1807 C1804 1.450 . S
C1807 H1869 0.960 . S
C1807 H1870 0.960 . S
C1807 H1871 0.960 . S
C1808 C1809 1.309 . S
C1808 C1813 1.304 . S
C1808 O1846 1.435 . S
C1809 C1808 1.309 . S
C1809 C1810 1.476 . S
C1809 H1873 0.930 . S
C1810 C1809 1.476 . S
C1810 C1811 1.400 . S
C1810 C1814 1.567 . S
C1811 C1810 1.400 . S
C1811 C1812 1.373 . S
C1811 C1833 1.432 . S
C1812 C1811 1.373 . S
C1812 C1813 1.339 . S
C1812 C1815 1.530 . S
C1813 C1808 1.304 . S
C1813 C1812 1.339 . S
C1813 H1874 0.930 . S
C1814 C1810 1.567 . S
C1814 H1875 0.961 . S
C1814 H1876 0.960 . S
C1814 H1877 0.958 . S
C1815 C1812 1.530 . S
C1815 H1878 0.961 . S
C1815 H1879 0.960 . S
C1815 H1880 0.960 . S
C1816 C1817 1.530 . S
C1816 H1882 0.961 . S
C1816 H1883 0.961 . S
C1816 H1884 0.959 . S
C1817 C1816 1.530 . S
C1817 O1845 1.412 . S
C1817 H1881 0.980 . S
C1818 C1819 1.288 . S
C1818 C1823 1.377 . S
C1818 O1845 1.393 . S
C1819 C1818 1.288 . S
C1819 C1820 1.369 . S
C1819 H1885 0.932 . S
C1820 C1819 1.369 . S
C1820 C1821 1.398 . S
C1820 C1824 1.527 . S
C1821 C1820 1.398 . S
C1821 C1822 1.380 . S
C1821 C1835 1.497 . S
C1822 C1821 1.380 . S
C1822 C1823 1.383 . S
C1822 C1825 1.603 . S
C1823 C1818 1.377 . S
C1823 C1822 1.383 . S
C1823 H1886 0.929 . S
C1824 C1820 1.527 . S
C1824 H1887 0.961 . S
C1824 H1888 0.959 . S
C1824 H1889 0.959 . S
C1825 C1822 1.603 . S
C1825 H1890 0.960 . S
C1825 H1891 0.962 . S
C1825 H1892 0.961 . S
C1826 C1793 1.587 . S
C1826 C1827 1.360 . S
C1826 C1839 1.412 . S
C1827 C1826 1.360 . S
C1827 C1828 1.365 . S
C1827 H1893 0.929 . S
C1828 C1803 1.553 . S
C1828 C1827 1.365 . S
C1828 C1829 1.404 . S
C1829 C1828 1.404 . S
C1829 C1830 1.395 . S
C1829 C1840 1.451 . S
C1830 C1829 1.395 . S
C1830 C1831 1.322 . S
C1830 H1894 0.930 . S
C1831 C1830 1.322 . S
C1831 C1832 1.459 . S
C1831 H1895 0.929 . S
C1832 C1831 1.459 . S
C1832 C1833 1.445 . S
C1832 C1841 1.395 . S
C1833 C1811 1.432 . S
C1833 C1832 1.445 . S
C1833 C1834 1.370 . S
C1834 C1833 1.370 . S
C1834 C1835 1.438 . S
C1834 H1896 0.930 . S
C1835 C1821 1.497 . S
C1835 C1834 1.438 . S
C1835 C1836 1.360 . S
C1836 C1835 1.360 . S
C1836 C1837 1.401 . S
C1836 C1841 1.446 . S
C1837 C1836 1.401 . S
C1837 C1838 1.347 . S
C1837 H1897 0.929 . S
C1838 C1837 1.347 . S
C1838 C1839 1.455 . S
C1838 H1898 0.930 . S
C1839 C1826 1.412 . S
C1839 C1838 1.455 . S
C1839 C1840 1.331 . S
C1840 C1829 1.451 . S
C1840 C1839 1.331 . S
C1840 C1841 1.497 . S
C1841 C1832 1.395 . S
C1841 C1836 1.446 . S
C1841 C1840 1.497 . S
C1842 C1843 1.582 . S
C1842 H1899 0.962 . S
C1842 H1900 0.959 . S
C1842 H1901 0.958 . S
C1843 C1842 1.582 . S
C1843 O1846 1.458 . S
C1843 H1872 0.980 . S
O1844 C1789 1.426 . S
O1844 C1790 1.334 . S
O1845 C1817 1.412 . S
O1845 C1818 1.393 . S
O1846 C1808 1.435 . S
O1846 C1843 1.458 . S
O1847 C1799 1.468 . S
O1847 C1800 1.408 . S
H1848 C1789 0.980 . S
H1849 C1788 0.959 . S
H1850 C1788 0.959 . S
H1851 C1788 0.960 . S
H1852 C1791 0.929 . S
H1853 C1795 0.929 . S
H1854 C1796 0.959 . S
H1855 C1796 0.961 . S
H1856 C1796 0.961 . S
H1857 C1797 0.960 . S
H1858 C1797 0.960 . S
H1859 C1797 0.961 . S
H1860 C1799 0.980 . S
H1861 C1798 0.961 . S
H1862 C1798 0.960 . S
H1863 C1798 0.959 . S
H1864 C1801 0.930 . S
H1865 C1805 0.931 . S
H1866 C1806 0.959 . S
H1867 C1806 0.961 . S
H1868 C1806 0.959 . S
H1869 C1807 0.960 . S
H1870 C1807 0.960 . S
H1871 C1807 0.960 . S
H1872 C1843 0.980 . S
H1873 C1809 0.930 . S
H1874 C1813 0.930 . S
H1875 C1814 0.961 . S
H1876 C1814 0.960 . S
H1877 C1814 0.958 . S
H1878 C1815 0.961 . S
H1879 C1815 0.960 . S
H1880 C1815 0.960 . S
H1881 C1817 0.980 . S
H1882 C1816 0.961 . S
H1883 C1816 0.961 . S
H1884 C1816 0.959 . S
H1885 C1819 0.932 . S
H1886 C1823 0.929 . S
H1887 C1824 0.961 . S
H1888 C1824 0.959 . S
H1889 C1824 0.959 . S
H1890 C1825 0.960 . S
H1891 C1825 0.962 . S
H1892 C1825 0.961 . S
H1893 C1827 0.929 . S
H1894 C1830 0.930 . S
H1895 C1831 0.929 . S
H1896 C1834 0.930 . S
H1897 C1837 0.929 . S
H1898 C1838 0.930 . S
H1899 C1842 0.962 . S
H1900 C1842 0.959 . S
H1901 C1842 0.958 . S
C1902 C1903 1.560 . S
C1902 H1963 0.959 . S
C1902 H1964 0.959 . S
C1902 H1965 0.960 . S
C1903 C1902 1.560 . S
C1903 O1958 1.426 . S
C1903 H1962 0.980 . S
C1904 C1905 1.407 1_565 S
C1904 C1909 1.418 . S
C1904 O1958 1.334 . S
C1905 C1904 1.407 1_545 S
C1905 C1906 1.360 . S
C1905 H1966 0.929 . S
C1906 C1905 1.360 . S
C1906 C1907 1.401 1_545 S
C1906 C1910 1.527 . S
C1907 C1906 1.401 1_565 S
C1907 C1908 1.405 . S
C1907 C1940 1.587 1_565 S
C1908 C1907 1.405 . S
C1908 C1909 1.332 . S
C1908 C1911 1.496 . S
C1909 C1904 1.418 . S
C1909 C1908 1.332 . S
C1909 H1967 0.929 . S
C1910 C1906 1.527 . S
C1910 H1968 0.959 . S
C1910 H1969 0.961 . S
C1910 H1970 0.961 . S
C1911 C1908 1.496 . S
C1911 H1971 0.960 . S
C1911 H1972 0.960 . S
C1911 H1973 0.961 . S
C1912 C1913 1.517 . S
C1912 H1975 0.910 1_545 S
C1912 H1976 0.960 . S
C1912 H1977 0.959 . S
C1913 C1912 1.517 . S
C1913 O1961 1.468 . S
C1913 H1974 0.980 1_545 S
C1914 C1915 1.349 . S
C1914 C1919 1.367 . S
C1914 O1961 1.408 . S
C1915 C1914 1.349 . S
C1915 C1916 1.407 1_545 S
C1915 H1978 0.930 1_545 S
C1916 C1915 1.407 1_565 S
C1916 C1917 1.449 1_565 S
C1916 C1920 1.535 . S
C1917 C1916 1.449 1_545 S
C1917 C1918 1.384 . S
C1917 C1942 1.553 . S
C1918 C1917 1.384 . S
C1918 C1919 1.364 . S
C1918 C1921 1.450 . S
C1919 C1914 1.367 . S
C1919 C1918 1.364 . S
C1919 H1979 0.931 . S
C1920 C1916 1.535 . S
C1920 H1980 0.959 . S
C1920 H1981 0.961 . S
C1920 H1982 0.959 . S
C1921 C1918 1.450 . S
C1921 H1983 0.960 . S
C1921 H1984 0.960 . S
C1921 H1985 0.960 . S
C1922 C1923 1.309 . S
C1922 C1927 1.304 . S
C1922 O1960 1.435 . S
C1923 C1922 1.309 . S
C1923 C1924 1.486 1_545 S
C1923 H1987 0.930 1_545 S
C1924 C1923 1.486 1_565 S
C1924 C1925 1.366 1_565 S
C1924 C1928 1.591 . S
C1925 C1924 1.366 1_545 S
C1925 C1926 1.373 . S
C1925 C1947 1.432 . S
C1926 C1925 1.373 . S
C1926 C1927 1.339 . S
C1926 C1929 1.530 . S
C1927 C1922 1.304 . S
C1927 C1926 1.339 . S
C1927 H1988 0.930 . S
C1928 C1924 1.591 . S
C1928 H1989 0.961 . S
C1928 H1990 0.960 . S
C1928 H1991 0.958 . S
C1929 C1926 1.530 . S
C1929 H1992 0.961 . S
C1929 H1993 0.960 . S
C1929 H1994 0.960 . S
C1930 C1931 1.530 1_565 S
C1930 H1996 0.961 . S
C1930 H1997 0.961 . S
C1930 H1998 0.959 . S
C1931 C1930 1.530 1_545 S
C1931 O1959 1.412 1_545 S
C1931 H1995 0.980 . S
C1932 C1933 1.288 . S
C1932 C1937 1.377 1_565 S
C1932 O1959 1.393 . S
C1933 C1932 1.288 . S
C1933 C1934 1.369 . S
C1933 H1999 0.932 . S
C1934 C1933 1.369 . S
C1934 C1935 1.398 1_565 S
C1934 C1938 1.527 . S
C1935 C1934 1.398 1_545 S
C1935 C1936 1.380 . S
C1935 C1949 1.497 . S
C1936 C1935 1.380 . S
C1936 C1937 1.383 . S
C1936 C1939 1.603 . S
C1937 C1932 1.377 1_545 S
C1937 C1936 1.383 . S
C1937 H2000 0.929 . S
C1938 C1934 1.527 . S
C1938 H2001 0.961 . S
C1938 H2002 0.959 . S
C1938 H2003 0.959 . S
C1939 C1936 1.603 . S
C1939 H2004 0.960 . S
C1939 H2005 0.962 . S
C1939 H2006 0.961 . S
C1940 C1907 1.587 1_545 S
C1940 C1941 1.360 . S
C1940 C1953 1.412 . S
C1941 C1940 1.360 . S
C1941 C1942 1.365 . S
C1941 H2007 0.929 . S
C1942 C1917 1.553 . S
C1942 C1941 1.365 . S
C1942 C1943 1.404 . S
C1943 C1942 1.404 . S
C1943 C1944 1.395 . S
C1943 C1954 1.451 . S
C1944 C1943 1.395 . S
C1944 C1945 1.322 . S
C1944 H2008 0.930 . S
C1945 C1944 1.322 . S
C1945 C1946 1.459 . S
C1945 H2009 0.929 . S
C1946 C1945 1.459 . S
C1946 C1947 1.445 . S
C1946 C1955 1.395 . S
C1947 C1925 1.432 . S
C1947 C1946 1.445 . S
C1947 C1948 1.370 . S
C1948 C1947 1.370 . S
C1948 C1949 1.438 . S
C1948 H2010 0.930 . S
C1949 C1935 1.497 . S
C1949 C1948 1.438 . S
C1949 C1950 1.360 . S
C1950 C1949 1.360 . S
C1950 C1951 1.401 . S
C1950 C1955 1.446 . S
C1951 C1950 1.401 . S
C1951 C1952 1.347 . S
C1951 H2011 0.929 . S
C1952 C1951 1.347 . S
C1952 C1953 1.455 . S
C1952 H2012 0.930 . S
C1953 C1940 1.412 . S
C1953 C1952 1.455 . S
C1953 C1954 1.331 . S
C1954 C1943 1.451 . S
C1954 C1953 1.331 . S
C1954 C1955 1.497 . S
C1955 C1946 1.395 . S
C1955 C1950 1.446 . S
C1955 C1954 1.497 . S
C1956 C1957 1.582 . S
C1956 H2013 0.962 . S
C1956 H2014 0.959 . S
C1956 H2015 0.958 . S
C1957 C1956 1.582 . S
C1957 O1960 1.458 . S
C1957 H1986 0.980 . S
O1958 C1903 1.426 . S
O1958 C1904 1.334 . S
O1959 C1931 1.412 1_565 S
O1959 C1932 1.393 . S
O1960 C1922 1.435 . S
O1960 C1957 1.458 . S
O1961 C1913 1.468 . S
O1961 C1914 1.408 . S
H1962 C1903 0.980 . S
H1963 C1902 0.959 . S
H1964 C1902 0.959 . S
H1965 C1902 0.960 . S
H1966 C1905 0.929 . S
H1967 C1909 0.929 . S
H1968 C1910 0.959 . S
H1969 C1910 0.961 . S
H1970 C1910 0.961 . S
H1971 C1911 0.960 . S
H1972 C1911 0.960 . S
H1973 C1911 0.961 . S
H1974 C1913 0.980 1_565 S
H1975 C1912 0.910 1_565 S
H1976 C1912 0.960 . S
H1977 C1912 0.959 . S
H1978 C1915 0.930 1_565 S
H1979 C1919 0.931 . S
H1980 C1920 0.959 . S
H1981 C1920 0.961 . S
H1982 C1920 0.959 . S
H1983 C1921 0.960 . S
H1984 C1921 0.960 . S
H1985 C1921 0.960 . S
H1986 C1957 0.980 . S
H1987 C1923 0.930 1_565 S
H1988 C1927 0.930 . S
H1989 C1928 0.961 . S
H1990 C1928 0.960 . S
H1991 C1928 0.958 . S
H1992 C1929 0.961 . S
H1993 C1929 0.960 . S
H1994 C1929 0.960 . S
H1995 C1931 0.980 . S
H1996 C1930 0.961 . S
H1997 C1930 0.961 . S
H1998 C1930 0.959 . S
H1999 C1933 0.932 . S
H2000 C1937 0.929 . S
H2001 C1938 0.961 . S
H2002 C1938 0.959 . S
H2003 C1938 0.959 . S
H2004 C1939 0.960 . S
H2005 C1939 0.962 . S
H2006 C1939 0.961 . S
H2007 C1941 0.929 . S
H2008 C1944 0.930 . S
H2009 C1945 0.929 . S
H2010 C1948 0.930 . S
H2011 C1951 0.929 . S
H2012 C1952 0.930 . S
H2013 C1956 0.962 . S
H2014 C1956 0.959 . S
H2015 C1956 0.958 . S
C2016 C2017 1.560 . S
C2016 H2077 0.959 . S
C2016 H2078 0.959 . S
C2016 H2079 0.960 . S
C2017 C2016 1.560 . S
C2017 O2072 1.426 . S
C2017 H2076 0.980 1_565 S
C2018 C2019 1.407 1_565 S
C2018 C2023 1.418 . S
C2018 O2072 1.334 . S
C2019 C2018 1.407 1_545 S
C2019 C2020 1.360 . S
C2019 H2080 0.929 . S
C2020 C2019 1.360 . S
C2020 C2021 1.401 . S
C2020 C2024 1.527 . S
C2021 C2020 1.401 . S
C2021 C2022 1.405 1_545 S
C2021 C2054 1.587 . S
C2022 C2021 1.405 1_565 S
C2022 C2023 1.332 . S
C2022 C2025 1.496 . S
C2023 C2018 1.418 . S
C2023 C2022 1.332 . S
C2023 H2081 0.929 . S
C2024 C2020 1.527 . S
C2024 H2082 0.959 . S
C2024 H2083 0.961 . S
C2024 H2084 0.961 . S
C2025 C2022 1.496 . S
C2025 H2085 0.960 . S
C2025 H2086 0.960 . S
C2025 H2087 0.961 . S
C2026 C2027 1.517 . S
C2026 H2089 0.961 . S
C2026 H2090 0.960 . S
C2026 H2091 0.959 . S
C2027 C2026 1.517 . S
C2027 O2075 1.468 . S
C2027 H2088 0.980 . S
C2028 C2029 1.349 . S
C2028 C2033 1.367 . S
C2028 O2075 1.408 . S
C2029 C2028 1.349 . S
C2029 C2030 1.407 . S
C2029 H2092 0.918 1_545 S
C2030 C2029 1.407 . S
C2030 C2031 1.449 . S
C2030 C2034 1.535 1_545 S
C2031 C2030 1.449 . S
C2031 C2032 1.384 . S
C2031 C2056 1.553 . S
C2032 C2031 1.384 . S
C2032 C2033 1.364 . S
C2032 C2035 1.450 . S
C2033 C2028 1.367 . S
C2033 C2032 1.364 . S
C2033 H2093 0.931 . S
C2034 C2030 1.535 1_565 S
C2034 H2094 0.959 . S
C2034 H2095 0.961 . S
C2034 H2096 0.959 . S
C2035 C2032 1.450 . S
C2035 H2097 0.960 . S
C2035 H2098 0.960 . S
C2035 H2099 0.960 . S
C2036 C2037 1.309 1_545 S
C2036 C2041 1.304 . S
C2036 O2074 1.435 . S
C2037 C2036 1.309 1_565 S
C2037 C2038 1.476 . S
C2037 H2101 0.930 . S
C2038 C2037 1.476 . S
C2038 C2039 1.400 1_565 S
C2038 C2042 1.567 . S
C2039 C2038 1.400 1_545 S
C2039 C2040 1.373 . S
C2039 C2061 1.432 . S
C2040 C2039 1.373 . S
C2040 C2041 1.339 . S
C2040 C2043 1.530 . S
C2041 C2036 1.304 . S
C2041 C2040 1.339 . S
C2041 H2102 0.930 . S
C2042 C2038 1.567 . S
C2042 H2103 0.961 . S
C2042 H2104 0.960 . S
C2042 H2105 0.958 . S
C2043 C2040 1.530 . S
C2043 H2106 0.961 . S
C2043 H2107 0.960 . S
C2043 H2108 0.960 . S
C2044 C2045 1.530 . S
C2044 H2110 0.961 . S
C2044 H2111 0.961 . S
C2044 H2112 0.959 . S
C2045 C2044 1.530 . S
C2045 O2073 1.412 . S
C2045 H2109 0.981 . S
C2046 C2047 1.288 . S
C2046 C2051 1.377 1_565 S
C2046 O2073 1.393 . S
C2047 C2046 1.288 . S
C2047 C2048 1.369 . S
C2047 H2113 0.932 . S
C2048 C2047 1.369 . S
C2048 C2049 1.398 . S
C2048 C2052 1.527 . S
C2049 C2048 1.398 . S
C2049 C2050 1.380 1_565 S
C2049 C2063 1.497 1_565 S
C2050 C2049 1.380 1_545 S
C2050 C2051 1.383 . S
C2050 C2053 1.603 . S
C2051 C2046 1.377 1_545 S
C2051 C2050 1.383 . S
C2051 H2114 0.929 . S
C2052 C2048 1.527 . S
C2052 H2115 0.961 . S
C2052 H2116 0.959 . S
C2052 H2117 0.959 . S
C2053 C2050 1.603 . S
C2053 H2118 0.960 . S
C2053 H2119 0.962 . S
C2053 H2120 0.961 . S
C2054 C2021 1.587 . S
C2054 C2055 1.360 . S
C2054 C2067 1.412 . S
C2055 C2054 1.360 . S
C2055 C2056 1.365 . S
C2055 H2121 0.929 . S
C2056 C2031 1.553 . S
C2056 C2055 1.365 . S
C2056 C2057 1.404 . S
C2057 C2056 1.404 . S
C2057 C2058 1.395 . S
C2057 C2068 1.451 . S
C2058 C2057 1.395 . S
C2058 C2059 1.322 . S
C2058 H2122 0.930 . S
C2059 C2058 1.322 . S
C2059 C2060 1.459 . S
C2059 H2123 0.929 . S
C2060 C2059 1.459 . S
C2060 C2061 1.445 . S
C2060 C2069 1.395 . S
C2061 C2039 1.432 . S
C2061 C2060 1.445 . S
C2061 C2062 1.370 . S
C2062 C2061 1.370 . S
C2062 C2063 1.438 . S
C2062 H2124 0.930 . S
C2063 C2049 1.497 1_545 S
C2063 C2062 1.438 . S
C2063 C2064 1.360 . S
C2064 C2063 1.360 . S
C2064 C2065 1.401 . S
C2064 C2069 1.446 . S
C2065 C2064 1.401 . S
C2065 C2066 1.347 . S
C2065 H2125 0.978 . S
C2066 C2065 1.347 . S
C2066 C2067 1.455 . S
C2066 H2126 0.930 . S
C2067 C2054 1.412 . S
C2067 C2066 1.455 . S
C2067 C2068 1.331 . S
C2068 C2057 1.451 . S
C2068 C2067 1.331 . S
C2068 C2069 1.497 . S
C2069 C2060 1.395 . S
C2069 C2064 1.446 . S
C2069 C2068 1.497 . S
C2070 C2071 1.599 . S
C2070 H2127 0.962 . S
C2070 H2128 0.959 . S
C2070 H2129 0.958 . S
C2071 C2070 1.599 . S
C2071 O2074 1.465 . S
C2071 H2100 0.980 1_545 S
O2072 C2017 1.426 . S
O2072 C2018 1.334 . S
O2073 C2045 1.412 . S
O2073 C2046 1.393 . S
O2074 C2036 1.435 . S
O2074 C2071 1.465 . S
O2075 C2027 1.468 . S
O2075 C2028 1.408 . S
H2076 C2017 0.980 1_545 S
H2077 C2016 0.959 . S
H2078 C2016 0.959 . S
H2079 C2016 0.960 . S
H2080 C2019 0.929 . S
H2081 C2023 0.929 . S
H2082 C2024 0.959 . S
H2083 C2024 0.961 . S
H2084 C2024 0.961 . S
H2085 C2025 0.960 . S
H2086 C2025 0.960 . S
H2087 C2025 0.961 . S
H2088 C2027 0.980 . S
H2089 C2026 0.961 . S
H2090 C2026 0.960 . S
H2091 C2026 0.959 . S
H2092 C2029 0.918 1_565 S
H2093 C2033 0.931 . S
H2094 C2034 0.959 . S
H2095 C2034 0.961 . S
H2096 C2034 0.959 . S
H2097 C2035 0.960 . S
H2098 C2035 0.960 . S
H2099 C2035 0.960 . S
H2100 C2071 0.980 1_565 S
H2101 C2037 0.930 . S
H2102 C2041 0.930 . S
H2103 C2042 0.961 . S
H2104 C2042 0.960 . S
H2105 C2042 0.958 . S
H2106 C2043 0.961 . S
H2107 C2043 0.960 . S
H2108 C2043 0.960 . S
H2109 C2045 0.981 . S
H2110 C2044 0.961 . S
H2111 C2044 0.961 . S
H2112 C2044 0.959 . S
H2113 C2047 0.932 . S
H2114 C2051 0.929 . S
H2115 C2052 0.961 . S
H2116 C2052 0.959 . S
H2117 C2052 0.959 . S
H2118 C2053 0.960 . S
H2119 C2053 0.962 . S
H2120 C2053 0.961 . S
H2121 C2055 0.929 . S
H2122 C2058 0.930 . S
H2123 C2059 0.929 . S
H2124 C2062 0.930 . S
H2125 C2065 0.978 . S
H2126 C2066 0.930 . S
H2127 C2070 0.962 . S
H2128 C2070 0.959 . S
H2129 C2070 0.958 . S
C2130 C2131 1.560 . S
C2130 H2191 0.959 . S
C2130 H2192 0.959 . S
C2130 H2193 0.960 . S
C2131 C2130 1.560 . S
C2131 O2186 1.426 . S
C2131 H2190 0.980 1_455 S
C2132 C2133 1.407 1_455 S
C2132 C2137 1.418 . S
C2132 O2186 1.334 . S
C2133 C2132 1.407 1_655 S
C2133 C2134 1.360 . S
C2133 H2194 0.929 . S
C2134 C2133 1.360 . S
C2134 C2135 1.401 . S
C2134 C2138 1.527 . S
C2135 C2134 1.401 . S
C2135 C2136 1.405 1_655 S
C2135 C2168 1.587 . S
C2136 C2135 1.405 1_455 S
C2136 C2137 1.332 . S
C2136 C2139 1.496 . S
C2137 C2132 1.418 . S
C2137 C2136 1.332 . S
C2137 H2195 0.929 . S
C2138 C2134 1.527 . S
C2138 H2196 0.959 . S
C2138 H2197 0.961 . S
C2138 H2198 0.961 . S
C2139 C2136 1.496 . S
C2139 H2199 0.960 . S
C2139 H2200 0.960 . S
C2139 H2201 0.961 . S
C2140 C2141 1.517 . S
C2140 H2203 0.961 . S
C2140 H2204 0.960 . S
C2140 H2205 0.959 . S
C2141 C2140 1.517 . S
C2141 O2189 1.468 . S
C2141 H2202 0.980 . S
C2142 C2143 1.349 . S
C2142 C2147 1.367 . S
C2142 O2189 1.408 . S
C2143 C2142 1.349 . S
C2143 C2144 1.407 . S
C2143 H2206 0.967 . S
C2144 C2143 1.407 . S
C2144 C2145 1.449 . S
C2144 C2148 1.535 1_655 S
C2145 C2144 1.449 . S
C2145 C2146 1.384 . S
C2145 C2170 1.553 . S
C2146 C2145 1.384 . S
C2146 C2147 1.364 . S
C2146 C2149 1.450 . S
C2147 C2142 1.367 . S
C2147 C2146 1.364 . S
C2147 H2207 0.931 . S
C2148 C2144 1.535 1_455 S
C2148 H2208 0.959 . S
C2148 H2209 0.961 . S
C2148 H2210 0.959 . S
C2149 C2146 1.450 . S
C2149 H2211 0.960 . S
C2149 H2212 0.960 . S
C2149 H2213 0.960 . S
C2150 C2151 1.309 1_655 S
C2150 C2155 1.304 . S
C2150 O2188 1.435 . S
C2151 C2150 1.309 1_455 S
C2151 C2152 1.476 . S
C2151 H2215 0.930 . S
C2152 C2151 1.476 . S
C2152 C2153 1.400 1_455 S
C2152 C2156 1.567 . S
C2153 C2152 1.400 1_655 S
C2153 C2154 1.373 . S
C2153 C2175 1.432 . S
C2154 C2153 1.373 . S
C2154 C2155 1.339 . S
C2154 C2157 1.530 . S
C2155 C2150 1.304 . S
C2155 C2154 1.339 . S
C2155 H2216 0.930 . S
C2156 C2152 1.567 . S
C2156 H2217 0.961 . S
C2156 H2218 0.960 . S
C2156 H2219 0.958 . S
C2157 C2154 1.530 . S
C2157 H2220 0.961 . S
C2157 H2221 0.960 . S
C2157 H2222 0.960 . S
C2158 C2159 1.530 . S
C2158 H2224 0.961 . S
C2158 H2225 0.961 . S
C2158 H2226 0.959 . S
C2159 C2158 1.530 . S
C2159 O2187 1.412 . S
C2159 H2223 0.980 . S
C2160 C2161 1.288 . S
C2160 C2165 1.377 1_455 S
C2160 O2187 1.393 . S
C2161 C2160 1.288 . S
C2161 C2162 1.369 . S
C2161 H2227 0.932 . S
C2162 C2161 1.369 . S
C2162 C2163 1.398 . S
C2162 C2166 1.527 . S
C2163 C2162 1.398 . S
C2163 C2164 1.380 1_455 S
C2163 C2177 1.497 1_455 S
C2164 C2163 1.380 1_655 S
C2164 C2165 1.383 . S
C2164 C2167 1.603 . S
C2165 C2160 1.377 1_655 S
C2165 C2164 1.383 . S
C2165 H2228 0.929 . S
C2166 C2162 1.527 . S
C2166 H2229 0.961 . S
C2166 H2230 0.959 . S
C2166 H2231 0.959 . S
C2167 C2164 1.603 . S
C2167 H2232 0.960 . S
C2167 H2233 0.962 . S
C2167 H2234 0.961 . S
C2168 C2135 1.587 . S
C2168 C2169 1.360 . S
C2168 C2181 1.412 . S
C2169 C2168 1.360 . S
C2169 C2170 1.365 . S
C2169 H2235 0.929 . S
C2170 C2145 1.553 . S
C2170 C2169 1.365 . S
C2170 C2171 1.404 . S
C2171 C2170 1.404 . S
C2171 C2172 1.395 . S
C2171 C2182 1.451 . S
C2172 C2171 1.395 . S
C2172 C2173 1.322 . S
C2172 H2236 0.930 . S
C2173 C2172 1.322 . S
C2173 C2174 1.459 . S
C2173 H2237 0.929 . S
C2174 C2173 1.459 . S
C2174 C2175 1.445 . S
C2174 C2183 1.395 . S
C2175 C2153 1.432 . S
C2175 C2174 1.445 . S
C2175 C2176 1.370 . S
C2176 C2175 1.370 . S
C2176 C2177 1.438 . S
C2176 H2238 0.930 . S
C2177 C2163 1.497 1_655 S
C2177 C2176 1.438 . S
C2177 C2178 1.360 . S
C2178 C2177 1.360 . S
C2178 C2179 1.401 . S
C2178 C2183 1.446 . S
C2179 C2178 1.401 . S
C2179 C2180 1.347 . S
C2179 H2239 0.916 . S
C2180 C2179 1.347 . S
C2180 C2181 1.455 . S
C2180 H2240 0.930 . S
C2181 C2168 1.412 . S
C2181 C2180 1.455 . S
C2181 C2182 1.331 . S
C2182 C2171 1.451 . S
C2182 C2181 1.331 . S
C2182 C2183 1.497 . S
C2183 C2174 1.395 . S
C2183 C2178 1.446 . S
C2183 C2182 1.497 . S
C2184 C2185 1.581 1_655 S
C2184 H2241 0.980 . S
C2184 H2242 0.959 . S
C2184 H2243 0.958 . S
C2185 C2184 1.581 1_455 S
C2185 O2188 1.424 1_455 S
C2185 H2214 0.994 . S
O2186 C2131 1.426 . S
O2186 C2132 1.334 . S
O2187 C2159 1.412 . S
O2187 C2160 1.393 . S
O2188 C2150 1.435 . S
O2188 C2185 1.424 1_655 S
O2189 C2141 1.468 . S
O2189 C2142 1.408 . S
H2190 C2131 0.980 1_655 S
H2191 C2130 0.959 . S
H2192 C2130 0.959 . S
H2193 C2130 0.960 . S
H2194 C2133 0.929 . S
H2195 C2137 0.929 . S
H2196 C2138 0.959 . S
H2197 C2138 0.961 . S
H2198 C2138 0.961 . S
H2199 C2139 0.960 . S
H2200 C2139 0.960 . S
H2201 C2139 0.961 . S
H2202 C2141 0.980 . S
H2203 C2140 0.961 . S
H2204 C2140 0.960 . S
H2205 C2140 0.959 . S
H2206 C2143 0.967 . S
H2207 C2147 0.931 . S
H2208 C2148 0.959 . S
H2209 C2148 0.961 . S
H2210 C2148 0.959 . S
H2211 C2149 0.960 . S
H2212 C2149 0.960 . S
H2213 C2149 0.960 . S
H2214 C2185 0.994 . S
H2215 C2151 0.930 . S
H2216 C2155 0.930 . S
H2217 C2156 0.961 . S
H2218 C2156 0.960 . S
H2219 C2156 0.958 . S
H2220 C2157 0.961 . S
H2221 C2157 0.960 . S
H2222 C2157 0.960 . S
H2223 C2159 0.980 . S
H2224 C2158 0.961 . S
H2225 C2158 0.961 . S
H2226 C2158 0.959 . S
H2227 C2161 0.932 . S
H2228 C2165 0.929 . S
H2229 C2166 0.961 . S
H2230 C2166 0.959 . S
H2231 C2166 0.959 . S
H2232 C2167 0.960 . S
H2233 C2167 0.962 . S
H2234 C2167 0.961 . S
H2235 C2169 0.929 . S
H2236 C2172 0.930 . S
H2237 C2173 0.929 . S
H2238 C2176 0.930 . S
H2239 C2179 0.916 . S
H2240 C2180 0.930 . S
H2241 C2184 0.980 . S
H2242 C2184 0.959 . S
H2243 C2184 0.958 . S
C2244 C2245 1.560 . S
C2244 H2305 0.959 . S
C2244 H2306 0.959 . S
C2244 H2307 0.960 . S
C2245 C2244 1.560 . S
C2245 O2300 1.426 . S
C2245 H2304 0.980 . S
C2246 C2247 1.407 . S
C2246 C2251 1.418 . S
C2246 O2300 1.334 . S
C2247 C2246 1.407 . S
C2247 C2248 1.360 . S
C2247 H2308 0.929 . S
C2248 C2247 1.360 . S
C2248 C2249 1.401 . S
C2248 C2252 1.527 . S
C2249 C2248 1.401 . S
C2249 C2250 1.405 . S
C2249 C2282 1.587 . S
C2250 C2249 1.405 . S
C2250 C2251 1.332 . S
C2250 C2253 1.496 . S
C2251 C2246 1.418 . S
C2251 C2250 1.332 . S
C2251 H2309 0.929 . S
C2252 C2248 1.527 . S
C2252 H2310 0.959 . S
C2252 H2311 0.961 . S
C2252 H2312 0.961 . S
C2253 C2250 1.496 . S
C2253 H2313 0.960 . S
C2253 H2314 0.960 . S
C2253 H2315 0.961 . S
C2254 C2255 1.517 . S
C2254 H2317 0.961 . S
C2254 H2318 0.960 . S
C2254 H2319 0.959 . S
C2255 C2254 1.517 . S
C2255 O2303 1.468 . S
C2255 H2316 0.980 . S
C2256 C2257 1.349 . S
C2256 C2261 1.367 . S
C2256 O2303 1.408 . S
C2257 C2256 1.349 . S
C2257 C2258 1.407 . S
C2257 H2320 0.930 . S
C2258 C2257 1.407 . S
C2258 C2259 1.449 . S
C2258 C2262 1.535 . S
C2259 C2258 1.449 . S
C2259 C2260 1.384 . S
C2259 C2284 1.553 . S
C2260 C2259 1.384 . S
C2260 C2261 1.364 . S
C2260 C2263 1.450 . S
C2261 C2256 1.367 . S
C2261 C2260 1.364 . S
C2261 H2321 0.931 . S
C2262 C2258 1.535 . S
C2262 H2322 0.959 . S
C2262 H2323 0.961 . S
C2262 H2324 0.959 . S
C2263 C2260 1.450 . S
C2263 H2325 0.960 . S
C2263 H2326 0.960 . S
C2263 H2327 0.960 . S
C2264 C2265 1.309 . S
C2264 C2269 1.304 . S
C2264 O2302 1.435 . S
C2265 C2264 1.309 . S
C2265 C2266 1.476 . S
C2265 H2329 0.930 . S
C2266 C2265 1.476 . S
C2266 C2267 1.400 . S
C2266 C2270 1.567 . S
C2267 C2266 1.400 . S
C2267 C2268 1.373 . S
C2267 C2289 1.432 . S
C2268 C2267 1.373 . S
C2268 C2269 1.339 . S
C2268 C2271 1.530 . S
C2269 C2264 1.304 . S
C2269 C2268 1.339 . S
C2269 H2330 0.930 . S
C2270 C2266 1.567 . S
C2270 H2331 0.961 . S
C2270 H2332 0.960 . S
C2270 H2333 0.958 . S
C2271 C2268 1.530 . S
C2271 H2334 0.961 . S
C2271 H2335 0.960 . S
C2271 H2336 0.960 . S
C2272 C2273 1.530 . S
C2272 H2338 0.961 . S
C2272 H2339 0.961 . S
C2272 H2340 0.959 . S
C2273 C2272 1.530 . S
C2273 O2301 1.412 . S
C2273 H2337 0.980 . S
C2274 C2275 1.288 . S
C2274 C2279 1.377 . S
C2274 O2301 1.393 . S
C2275 C2274 1.288 . S
C2275 C2276 1.369 . S
C2275 H2341 0.932 . S
C2276 C2275 1.369 . S
C2276 C2277 1.398 . S
C2276 C2280 1.527 . S
C2277 C2276 1.398 . S
C2277 C2278 1.380 . S
C2277 C2291 1.497 . S
C2278 C2277 1.380 . S
C2278 C2279 1.383 . S
C2278 C2281 1.603 . S
C2279 C2274 1.377 . S
C2279 C2278 1.383 . S
C2279 H2342 0.929 . S
C2280 C2276 1.527 . S
C2280 H2343 0.961 . S
C2280 H2344 0.959 . S
C2280 H2345 0.959 . S
C2281 C2278 1.603 . S
C2281 H2346 0.960 . S
C2281 H2347 0.962 . S
C2281 H2348 0.961 . S
C2282 C2249 1.587 . S
C2282 C2283 1.360 . S
C2282 C2295 1.412 . S
C2283 C2282 1.360 . S
C2283 C2284 1.365 . S
C2283 H2349 0.929 . S
C2284 C2259 1.553 . S
C2284 C2283 1.365 . S
C2284 C2285 1.404 . S
C2285 C2284 1.404 . S
C2285 C2286 1.395 . S
C2285 C2296 1.451 . S
C2286 C2285 1.395 . S
C2286 C2287 1.322 . S
C2286 H2350 0.930 . S
C2287 C2286 1.322 . S
C2287 C2288 1.459 . S
C2287 H2351 0.929 . S
C2288 C2287 1.459 . S
C2288 C2289 1.445 . S
C2288 C2297 1.395 . S
C2289 C2267 1.432 . S
C2289 C2288 1.445 . S
C2289 C2290 1.370 . S
C2290 C2289 1.370 . S
C2290 C2291 1.438 . S
C2290 H2352 0.930 . S
C2291 C2277 1.497 . S
C2291 C2290 1.438 . S
C2291 C2292 1.360 . S
C2292 C2291 1.360 . S
C2292 C2293 1.401 . S
C2292 C2297 1.446 . S
C2293 C2292 1.401 . S
C2293 C2294 1.347 . S
C2293 H2353 0.929 . S
C2294 C2293 1.347 . S
C2294 C2295 1.455 . S
C2294 H2354 0.930 . S
C2295 C2282 1.412 . S
C2295 C2294 1.455 . S
C2295 C2296 1.331 . S
C2296 C2285 1.451 . S
C2296 C2295 1.331 . S
C2296 C2297 1.497 . S
C2297 C2288 1.395 . S
C2297 C2292 1.446 . S
C2297 C2296 1.497 . S
C2298 C2299 1.582 . S
C2298 H2355 0.962 . S
C2298 H2356 0.959 . S
C2298 H2357 0.958 . S
C2299 C2298 1.582 . S
C2299 O2302 1.458 . S
C2299 H2328 0.980 . S
O2300 C2245 1.426 . S
O2300 C2246 1.334 . S
O2301 C2273 1.412 . S
O2301 C2274 1.393 . S
O2302 C2264 1.435 . S
O2302 C2299 1.458 . S
O2303 C2255 1.468 . S
O2303 C2256 1.408 . S
H2304 C2245 0.980 . S
H2305 C2244 0.959 . S
H2306 C2244 0.959 . S
H2307 C2244 0.960 . S
H2308 C2247 0.929 . S
H2309 C2251 0.929 . S
H2310 C2252 0.959 . S
H2311 C2252 0.961 . S
H2312 C2252 0.961 . S
H2313 C2253 0.960 . S
H2314 C2253 0.960 . S
H2315 C2253 0.961 . S
H2316 C2255 0.980 . S
H2317 C2254 0.961 . S
H2318 C2254 0.960 . S
H2319 C2254 0.959 . S
H2320 C2257 0.930 . S
H2321 C2261 0.931 . S
H2322 C2262 0.959 . S
H2323 C2262 0.961 . S
H2324 C2262 0.959 . S
H2325 C2263 0.960 . S
H2326 C2263 0.960 . S
H2327 C2263 0.960 . S
H2328 C2299 0.980 . S
H2329 C2265 0.930 . S
H2330 C2269 0.930 . S
H2331 C2270 0.961 . S
H2332 C2270 0.960 . S
H2333 C2270 0.958 . S
H2334 C2271 0.961 . S
H2335 C2271 0.960 . S
H2336 C2271 0.960 . S
H2337 C2273 0.980 . S
H2338 C2272 0.961 . S
H2339 C2272 0.961 . S
H2340 C2272 0.959 . S
H2341 C2275 0.932 . S
H2342 C2279 0.929 . S
H2343 C2280 0.961 . S
H2344 C2280 0.959 . S
H2345 C2280 0.959 . S
H2346 C2281 0.960 . S
H2347 C2281 0.962 . S
H2348 C2281 0.961 . S
H2349 C2283 0.929 . S
H2350 C2286 0.930 . S
H2351 C2287 0.929 . S
H2352 C2290 0.930 . S
H2353 C2293 0.929 . S
H2354 C2294 0.930 . S
H2355 C2298 0.962 . S
H2356 C2298 0.959 . S
H2357 C2298 0.958 . S
C2358 C2359 1.560 . S
C2358 H2419 0.959 . S
C2358 H2420 0.959 . S
C2358 H2421 0.960 . S
C2359 C2358 1.560 . S
C2359 O2414 1.426 . S
C2359 H2418 0.980 . S
C2360 C2361 1.407 . S
C2360 C2365 1.418 . S
C2360 O2414 1.334 . S
C2361 C2360 1.407 . S
C2361 C2362 1.360 . S
C2361 H2422 0.929 . S
C2362 C2361 1.360 . S
C2362 C2363 1.401 . S
C2362 C2366 1.527 . S
C2363 C2362 1.401 . S
C2363 C2364 1.405 . S
C2363 C2396 1.587 . S
C2364 C2363 1.405 . S
C2364 C2365 1.332 . S
C2364 C2367 1.496 . S
C2365 C2360 1.418 . S
C2365 C2364 1.332 . S
C2365 H2423 0.929 . S
C2366 C2362 1.527 . S
C2366 H2424 0.959 . S
C2366 H2425 0.961 . S
C2366 H2426 0.961 . S
C2367 C2364 1.496 . S
C2367 H2427 0.960 . S
C2367 H2428 0.960 . S
C2367 H2429 0.961 . S
C2368 C2369 1.517 . S
C2368 H2431 0.961 . S
C2368 H2432 0.960 . S
C2368 H2433 0.959 . S
C2369 C2368 1.517 . S
C2369 O2417 1.468 . S
C2369 H2430 0.980 . S
C2370 C2371 1.349 . S
C2370 C2375 1.367 . S
C2370 O2417 1.408 . S
C2371 C2370 1.349 . S
C2371 C2372 1.407 . S
C2371 H2434 0.930 . S
C2372 C2371 1.407 . S
C2372 C2373 1.449 . S
C2372 C2376 1.535 . S
C2373 C2372 1.449 . S
C2373 C2374 1.384 . S
C2373 C2398 1.553 . S
C2374 C2373 1.384 . S
C2374 C2375 1.364 . S
C2374 C2377 1.450 . S
C2375 C2370 1.367 . S
C2375 C2374 1.364 . S
C2375 H2435 0.931 . S
C2376 C2372 1.535 . S
C2376 H2436 0.959 . S
C2376 H2437 0.961 . S
C2376 H2438 0.959 . S
C2377 C2374 1.450 . S
C2377 H2439 0.960 . S
C2377 H2440 0.960 . S
C2377 H2441 0.960 . S
C2378 C2379 1.309 . S
C2378 C2383 1.304 . S
C2378 O2416 1.435 . S
C2379 C2378 1.309 . S
C2379 C2380 1.476 . S
C2379 H2443 0.930 . S
C2380 C2379 1.476 . S
C2380 C2381 1.400 . S
C2380 C2384 1.567 . S
C2381 C2380 1.400 . S
C2381 C2382 1.373 . S
C2381 C2403 1.432 . S
C2382 C2381 1.373 . S
C2382 C2383 1.339 . S
C2382 C2385 1.530 . S
C2383 C2378 1.304 . S
C2383 C2382 1.339 . S
C2383 H2444 0.930 . S
C2384 C2380 1.567 . S
C2384 H2445 0.961 . S
C2384 H2446 0.960 . S
C2384 H2447 0.958 . S
C2385 C2382 1.530 . S
C2385 H2448 0.961 . S
C2385 H2449 0.960 . S
C2385 H2450 0.960 . S
C2386 C2387 1.530 . S
C2386 H2452 0.961 . S
C2386 H2453 0.961 . S
C2386 H2454 0.959 . S
C2387 C2386 1.530 . S
C2387 O2415 1.412 . S
C2387 H2451 0.980 . S
C2388 C2389 1.288 . S
C2388 C2393 1.377 . S
C2388 O2415 1.393 . S
C2389 C2388 1.288 . S
C2389 C2390 1.369 . S
C2389 H2455 0.932 . S
C2390 C2389 1.369 . S
C2390 C2391 1.398 . S
C2390 C2394 1.527 . S
C2391 C2390 1.398 . S
C2391 C2392 1.380 . S
C2391 C2405 1.497 . S
C2392 C2391 1.380 . S
C2392 C2393 1.383 . S
C2392 C2395 1.603 . S
C2393 C2388 1.377 . S
C2393 C2392 1.383 . S
C2393 H2456 0.929 . S
C2394 C2390 1.527 . S
C2394 H2457 0.961 . S
C2394 H2458 0.959 . S
C2394 H2459 0.959 . S
C2395 C2392 1.603 . S
C2395 H2460 0.960 . S
C2395 H2461 0.962 . S
C2395 H2462 0.961 . S
C2396 C2363 1.587 . S
C2396 C2397 1.360 . S
C2396 C2409 1.412 . S
C2397 C2396 1.360 . S
C2397 C2398 1.365 . S
C2397 H2463 0.929 . S
C2398 C2373 1.553 . S
C2398 C2397 1.365 . S
C2398 C2399 1.404 . S
C2399 C2398 1.404 . S
C2399 C2400 1.395 . S
C2399 C2410 1.451 . S
C2400 C2399 1.395 . S
C2400 C2401 1.322 . S
C2400 H2464 0.930 . S
C2401 C2400 1.322 . S
C2401 C2402 1.459 . S
C2401 H2465 0.929 . S
C2402 C2401 1.459 . S
C2402 C2403 1.445 . S
C2402 C2411 1.395 . S
C2403 C2381 1.432 . S
C2403 C2402 1.445 . S
C2403 C2404 1.370 . S
C2404 C2403 1.370 . S
C2404 C2405 1.438 . S
C2404 H2466 0.930 . S
C2405 C2391 1.497 . S
C2405 C2404 1.438 . S
C2405 C2406 1.360 . S
C2406 C2405 1.360 . S
C2406 C2407 1.401 . S
C2406 C2411 1.446 . S
C2407 C2406 1.401 . S
C2407 C2408 1.347 . S
C2407 H2467 0.929 . S
C2408 C2407 1.347 . S
C2408 C2409 1.455 . S
C2408 H2468 0.930 . S
C2409 C2396 1.412 . S
C2409 C2408 1.455 . S
C2409 C2410 1.331 . S
C2410 C2399 1.451 . S
C2410 C2409 1.331 . S
C2410 C2411 1.497 . S
C2411 C2402 1.395 . S
C2411 C2406 1.446 . S
C2411 C2410 1.497 . S
C2412 C2413 1.582 . S
C2412 H2469 0.962 . S
C2412 H2470 0.959 . S
C2412 H2471 0.958 . S
C2413 C2412 1.582 . S
C2413 O2416 1.458 . S
C2413 H2442 0.980 . S
O2414 C2359 1.426 . S
O2414 C2360 1.334 . S
O2415 C2387 1.412 . S
O2415 C2388 1.393 . S
O2416 C2378 1.435 . S
O2416 C2413 1.458 . S
O2417 C2369 1.468 . S
O2417 C2370 1.408 . S
H2418 C2359 0.980 . S
H2419 C2358 0.959 . S
H2420 C2358 0.959 . S
H2421 C2358 0.960 . S
H2422 C2361 0.929 . S
H2423 C2365 0.929 . S
H2424 C2366 0.959 . S
H2425 C2366 0.961 . S
H2426 C2366 0.961 . S
H2427 C2367 0.960 . S
H2428 C2367 0.960 . S
H2429 C2367 0.961 . S
H2430 C2369 0.980 . S
H2431 C2368 0.961 . S
H2432 C2368 0.960 . S
H2433 C2368 0.959 . S
H2434 C2371 0.930 . S
H2435 C2375 0.931 . S
H2436 C2376 0.959 . S
H2437 C2376 0.961 . S
H2438 C2376 0.959 . S
H2439 C2377 0.960 . S
H2440 C2377 0.960 . S
H2441 C2377 0.960 . S
H2442 C2413 0.980 . S
H2443 C2379 0.930 . S
H2444 C2383 0.930 . S
H2445 C2384 0.961 . S
H2446 C2384 0.960 . S
H2447 C2384 0.958 . S
H2448 C2385 0.961 . S
H2449 C2385 0.960 . S
H2450 C2385 0.960 . S
H2451 C2387 0.980 . S
H2452 C2386 0.961 . S
H2453 C2386 0.961 . S
H2454 C2386 0.959 . S
H2455 C2389 0.932 . S
H2456 C2393 0.929 . S
H2457 C2394 0.961 . S
H2458 C2394 0.959 . S
H2459 C2394 0.959 . S
H2460 C2395 0.960 . S
H2461 C2395 0.962 . S
H2462 C2395 0.961 . S
H2463 C2397 0.929 . S
H2464 C2400 0.930 . S
H2465 C2401 0.929 . S
H2466 C2404 0.930 . S
H2467 C2407 0.929 . S
H2468 C2408 0.930 . S
H2469 C2412 0.962 . S
H2470 C2412 0.959 . S
H2471 C2412 0.958 . S
C2472 C2473 1.560 . S
C2472 H2533 0.959 . S
C2472 H2534 0.959 . S
C2472 H2535 0.960 . S
C2473 C2472 1.560 . S
C2473 O2528 1.426 . S
C2473 H2532 0.980 . S
C2474 C2475 1.407 . S
C2474 C2479 1.418 . S
C2474 O2528 1.334 . S
C2475 C2474 1.407 . S
C2475 C2476 1.360 . S
C2475 H2536 0.929 . S
C2476 C2475 1.360 . S
C2476 C2477 1.401 . S
C2476 C2480 1.527 . S
C2477 C2476 1.401 . S
C2477 C2478 1.405 . S
C2477 C2510 1.587 . S
C2478 C2477 1.405 . S
C2478 C2479 1.332 . S
C2478 C2481 1.496 . S
C2479 C2474 1.418 . S
C2479 C2478 1.332 . S
C2479 H2537 0.929 . S
C2480 C2476 1.527 . S
C2480 H2538 0.959 . S
C2480 H2539 0.961 . S
C2480 H2540 0.961 . S
C2481 C2478 1.496 . S
C2481 H2541 0.960 . S
C2481 H2542 0.960 . S
C2481 H2543 0.961 . S
C2482 C2483 1.517 . S
C2482 H2545 0.961 . S
C2482 H2546 0.960 . S
C2482 H2547 0.959 . S
C2483 C2482 1.517 . S
C2483 O2531 1.468 . S
C2483 H2544 0.980 . S
C2484 C2485 1.349 . S
C2484 C2489 1.367 . S
C2484 O2531 1.408 . S
C2485 C2484 1.349 . S
C2485 C2486 1.407 . S
C2485 H2548 0.930 . S
C2486 C2485 1.407 . S
C2486 C2487 1.449 . S
C2486 C2490 1.535 . S
C2487 C2486 1.449 . S
C2487 C2488 1.384 . S
C2487 C2512 1.553 . S
C2488 C2487 1.384 . S
C2488 C2489 1.364 . S
C2488 C2491 1.450 . S
C2489 C2484 1.367 . S
C2489 C2488 1.364 . S
C2489 H2549 0.931 . S
C2490 C2486 1.535 . S
C2490 H2550 0.959 . S
C2490 H2551 0.961 . S
C2490 H2552 0.959 . S
C2491 C2488 1.450 . S
C2491 H2553 0.960 . S
C2491 H2554 0.960 . S
C2491 H2555 0.960 . S
C2492 C2493 1.309 . S
C2492 C2497 1.304 . S
C2492 O2530 1.435 . S
C2493 C2492 1.309 . S
C2493 C2494 1.476 . S
C2493 H2557 0.930 . S
C2494 C2493 1.476 . S
C2494 C2495 1.400 . S
C2494 C2498 1.567 . S
C2495 C2494 1.400 . S
C2495 C2496 1.373 . S
C2495 C2517 1.432 . S
C2496 C2495 1.373 . S
C2496 C2497 1.339 . S
C2496 C2499 1.530 . S
C2497 C2492 1.304 . S
C2497 C2496 1.339 . S
C2497 H2558 0.930 . S
C2498 C2494 1.567 . S
C2498 H2559 0.961 . S
C2498 H2560 0.960 . S
C2498 H2561 0.958 . S
C2499 C2496 1.530 . S
C2499 H2562 0.961 . S
C2499 H2563 0.960 . S
C2499 H2564 0.960 . S
C2500 C2501 1.530 . S
C2500 H2566 0.961 . S
C2500 H2567 0.961 . S
C2500 H2568 0.959 . S
C2501 C2500 1.530 . S
C2501 O2529 1.412 . S
C2501 H2565 0.980 . S
C2502 C2503 1.288 . S
C2502 C2507 1.377 . S
C2502 O2529 1.393 . S
C2503 C2502 1.288 . S
C2503 C2504 1.369 . S
C2503 H2569 0.932 . S
C2504 C2503 1.369 . S
C2504 C2505 1.398 . S
C2504 C2508 1.527 . S
C2505 C2504 1.398 . S
C2505 C2506 1.380 . S
C2505 C2519 1.497 . S
C2506 C2505 1.380 . S
C2506 C2507 1.383 . S
C2506 C2509 1.603 . S
C2507 C2502 1.377 . S
C2507 C2506 1.383 . S
C2507 H2570 0.929 . S
C2508 C2504 1.527 . S
C2508 H2571 0.961 . S
C2508 H2572 0.959 . S
C2508 H2573 0.959 . S
C2509 C2506 1.603 . S
C2509 H2574 0.960 . S
C2509 H2575 0.962 . S
C2509 H2576 0.961 . S
C2510 C2477 1.587 . S
C2510 C2511 1.360 . S
C2510 C2523 1.412 . S
C2511 C2510 1.360 . S
C2511 C2512 1.365 . S
C2511 H2577 0.929 . S
C2512 C2487 1.553 . S
C2512 C2511 1.365 . S
C2512 C2513 1.404 . S
C2513 C2512 1.404 . S
C2513 C2514 1.395 . S
C2513 C2524 1.451 . S
C2514 C2513 1.395 . S
C2514 C2515 1.322 . S
C2514 H2578 0.930 . S
C2515 C2514 1.322 . S
C2515 C2516 1.459 . S
C2515 H2579 0.929 . S
C2516 C2515 1.459 . S
C2516 C2517 1.445 . S
C2516 C2525 1.395 . S
C2517 C2495 1.432 . S
C2517 C2516 1.445 . S
C2517 C2518 1.370 . S
C2518 C2517 1.370 . S
C2518 C2519 1.438 . S
C2518 H2580 0.930 . S
C2519 C2505 1.497 . S
C2519 C2518 1.438 . S
C2519 C2520 1.360 . S
C2520 C2519 1.360 . S
C2520 C2521 1.401 . S
C2520 C2525 1.446 . S
C2521 C2520 1.401 . S
C2521 C2522 1.347 . S
C2521 H2581 0.929 . S
C2522 C2521 1.347 . S
C2522 C2523 1.455 . S
C2522 H2582 0.930 . S
C2523 C2510 1.412 . S
C2523 C2522 1.455 . S
C2523 C2524 1.331 . S
C2524 C2513 1.451 . S
C2524 C2523 1.331 . S
C2524 C2525 1.497 . S
C2525 C2516 1.395 . S
C2525 C2520 1.446 . S
C2525 C2524 1.497 . S
C2526 C2527 1.582 . S
C2526 H2583 0.962 . S
C2526 H2584 0.959 . S
C2526 H2585 0.958 . S
C2527 C2526 1.582 . S
C2527 O2530 1.458 . S
C2527 H2556 0.980 . S
O2528 C2473 1.426 . S
O2528 C2474 1.334 . S
O2529 C2501 1.412 . S
O2529 C2502 1.393 . S
O2530 C2492 1.435 . S
O2530 C2527 1.458 . S
O2531 C2483 1.468 . S
O2531 C2484 1.408 . S
H2532 C2473 0.980 . S
H2533 C2472 0.959 . S
H2534 C2472 0.959 . S
H2535 C2472 0.960 . S
H2536 C2475 0.929 . S
H2537 C2479 0.929 . S
H2538 C2480 0.959 . S
H2539 C2480 0.961 . S
H2540 C2480 0.961 . S
H2541 C2481 0.960 . S
H2542 C2481 0.960 . S
H2543 C2481 0.961 . S
H2544 C2483 0.980 . S
H2545 C2482 0.961 . S
H2546 C2482 0.960 . S
H2547 C2482 0.959 . S
H2548 C2485 0.930 . S
H2549 C2489 0.931 . S
H2550 C2490 0.959 . S
H2551 C2490 0.961 . S
H2552 C2490 0.959 . S
H2553 C2491 0.960 . S
H2554 C2491 0.960 . S
H2555 C2491 0.960 . S
H2556 C2527 0.980 . S
H2557 C2493 0.930 . S
H2558 C2497 0.930 . S
H2559 C2498 0.961 . S
H2560 C2498 0.960 . S
H2561 C2498 0.958 . S
H2562 C2499 0.961 . S
H2563 C2499 0.960 . S
H2564 C2499 0.960 . S
H2565 C2501 0.980 . S
H2566 C2500 0.961 . S
H2567 C2500 0.961 . S
H2568 C2500 0.959 . S
H2569 C2503 0.932 . S
H2570 C2507 0.929 . S
H2571 C2508 0.961 . S
H2572 C2508 0.959 . S
H2573 C2508 0.959 . S
H2574 C2509 0.960 . S
H2575 C2509 0.962 . S
H2576 C2509 0.961 . S
H2577 C2511 0.929 . S
H2578 C2514 0.930 . S
H2579 C2515 0.929 . S
H2580 C2518 0.930 . S
H2581 C2521 0.929 . S
H2582 C2522 0.930 . S
H2583 C2526 0.962 . S
H2584 C2526 0.959 . S
H2585 C2526 0.958 . S
C2586 C2587 1.560 . S
C2586 H2647 0.959 . S
C2586 H2648 0.959 . S
C2586 H2649 0.960 . S
C2587 C2586 1.560 . S
C2587 O2642 1.426 . S
C2587 H2646 0.980 . S
C2588 C2589 1.407 . S
C2588 C2593 1.418 . S
C2588 O2642 1.334 . S
C2589 C2588 1.407 . S
C2589 C2590 1.360 . S
C2589 H2650 0.929 . S
C2590 C2589 1.360 . S
C2590 C2591 1.401 . S
C2590 C2594 1.527 . S
C2591 C2590 1.401 . S
C2591 C2592 1.405 . S
C2591 C2624 1.587 . S
C2592 C2591 1.405 . S
C2592 C2593 1.332 . S
C2592 C2595 1.496 . S
C2593 C2588 1.418 . S
C2593 C2592 1.332 . S
C2593 H2651 0.929 . S
C2594 C2590 1.527 . S
C2594 H2652 0.959 . S
C2594 H2653 0.961 . S
C2594 H2654 0.961 . S
C2595 C2592 1.496 . S
C2595 H2655 0.960 . S
C2595 H2656 0.960 . S
C2595 H2657 0.961 . S
C2596 C2597 1.517 . S
C2596 H2659 0.961 . S
C2596 H2660 0.960 . S
C2596 H2661 0.959 . S
C2597 C2596 1.517 . S
C2597 O2645 1.468 . S
C2597 H2658 0.980 . S
C2598 C2599 1.349 . S
C2598 C2603 1.367 . S
C2598 O2645 1.408 . S
C2599 C2598 1.349 . S
C2599 C2600 1.407 . S
C2599 H2662 0.930 . S
C2600 C2599 1.407 . S
C2600 C2601 1.449 . S
C2600 C2604 1.535 . S
C2601 C2600 1.449 . S
C2601 C2602 1.384 . S
C2601 C2626 1.553 . S
C2602 C2601 1.384 . S
C2602 C2603 1.364 . S
C2602 C2605 1.450 . S
C2603 C2598 1.367 . S
C2603 C2602 1.364 . S
C2603 H2663 0.931 . S
C2604 C2600 1.535 . S
C2604 H2664 0.959 . S
C2604 H2665 0.961 . S
C2604 H2666 0.959 . S
C2605 C2602 1.450 . S
C2605 H2667 0.960 . S
C2605 H2668 0.960 . S
C2605 H2669 0.960 . S
C2606 C2607 1.309 . S
C2606 C2611 1.304 . S
C2606 O2644 1.435 . S
C2607 C2606 1.309 . S
C2607 C2608 1.476 . S
C2607 H2671 0.930 . S
C2608 C2607 1.476 . S
C2608 C2609 1.400 . S
C2608 C2612 1.567 . S
C2609 C2608 1.400 . S
C2609 C2610 1.373 . S
C2609 C2631 1.432 . S
C2610 C2609 1.373 . S
C2610 C2611 1.339 . S
C2610 C2613 1.530 . S
C2611 C2606 1.304 . S
C2611 C2610 1.339 . S
C2611 H2672 0.930 . S
C2612 C2608 1.567 . S
C2612 H2673 0.961 . S
C2612 H2674 0.960 . S
C2612 H2675 0.958 . S
C2613 C2610 1.530 . S
C2613 H2676 0.961 . S
C2613 H2677 0.960 . S
C2613 H2678 0.960 . S
C2614 C2615 1.530 . S
C2614 H2680 0.961 . S
C2614 H2681 0.961 . S
C2614 H2682 0.959 . S
C2615 C2614 1.530 . S
C2615 O2643 1.412 . S
C2615 H2679 0.980 . S
C2616 C2617 1.288 . S
C2616 C2621 1.377 . S
C2616 O2643 1.393 . S
C2617 C2616 1.288 . S
C2617 C2618 1.369 . S
C2617 H2683 0.932 . S
C2618 C2617 1.369 . S
C2618 C2619 1.398 . S
C2618 C2622 1.527 . S
C2619 C2618 1.398 . S
C2619 C2620 1.380 . S
C2619 C2633 1.497 . S
C2620 C2619 1.380 . S
C2620 C2621 1.383 . S
C2620 C2623 1.603 . S
C2621 C2616 1.377 . S
C2621 C2620 1.383 . S
C2621 H2684 0.929 . S
C2622 C2618 1.527 . S
C2622 H2685 0.961 . S
C2622 H2686 0.959 . S
C2622 H2687 0.959 . S
C2623 C2620 1.603 . S
C2623 H2688 0.960 . S
C2623 H2689 0.962 . S
C2623 H2690 0.961 . S
C2624 C2591 1.587 . S
C2624 C2625 1.360 . S
C2624 C2637 1.412 . S
C2625 C2624 1.360 . S
C2625 C2626 1.365 . S
C2625 H2691 0.929 . S
C2626 C2601 1.553 . S
C2626 C2625 1.365 . S
C2626 C2627 1.404 . S
C2627 C2626 1.404 . S
C2627 C2628 1.395 . S
C2627 C2638 1.451 . S
C2628 C2627 1.395 . S
C2628 C2629 1.322 . S
C2628 H2692 0.930 . S
C2629 C2628 1.322 . S
C2629 C2630 1.459 . S
C2629 H2693 0.929 . S
C2630 C2629 1.459 . S
C2630 C2631 1.445 . S
C2630 C2639 1.395 . S
C2631 C2609 1.432 . S
C2631 C2630 1.445 . S
C2631 C2632 1.370 . S
C2632 C2631 1.370 . S
C2632 C2633 1.438 . S
C2632 H2694 0.930 . S
C2633 C2619 1.497 . S
C2633 C2632 1.438 . S
C2633 C2634 1.360 . S
C2634 C2633 1.360 . S
C2634 C2635 1.401 . S
C2634 C2639 1.446 . S
C2635 C2634 1.401 . S
C2635 C2636 1.347 . S
C2635 H2695 0.929 . S
C2636 C2635 1.347 . S
C2636 C2637 1.455 . S
C2636 H2696 0.930 . S
C2637 C2624 1.412 . S
C2637 C2636 1.455 . S
C2637 C2638 1.331 . S
C2638 C2627 1.451 . S
C2638 C2637 1.331 . S
C2638 C2639 1.497 . S
C2639 C2630 1.395 . S
C2639 C2634 1.446 . S
C2639 C2638 1.497 . S
C2640 C2641 1.582 . S
C2640 H2697 0.962 . S
C2640 H2698 0.959 . S
C2640 H2699 0.958 . S
C2641 C2640 1.582 . S
C2641 O2644 1.458 . S
C2641 H2670 0.980 . S
O2642 C2587 1.426 . S
O2642 C2588 1.334 . S
O2643 C2615 1.412 . S
O2643 C2616 1.393 . S
O2644 C2606 1.435 . S
O2644 C2641 1.458 . S
O2645 C2597 1.468 . S
O2645 C2598 1.408 . S
H2646 C2587 0.980 . S
H2647 C2586 0.959 . S
H2648 C2586 0.959 . S
H2649 C2586 0.960 . S
H2650 C2589 0.929 . S
H2651 C2593 0.929 . S
H2652 C2594 0.959 . S
H2653 C2594 0.961 . S
H2654 C2594 0.961 . S
H2655 C2595 0.960 . S
H2656 C2595 0.960 . S
H2657 C2595 0.961 . S
H2658 C2597 0.980 . S
H2659 C2596 0.961 . S
H2660 C2596 0.960 . S
H2661 C2596 0.959 . S
H2662 C2599 0.930 . S
H2663 C2603 0.931 . S
H2664 C2604 0.959 . S
H2665 C2604 0.961 . S
H2666 C2604 0.959 . S
H2667 C2605 0.960 . S
H2668 C2605 0.960 . S
H2669 C2605 0.960 . S
H2670 C2641 0.980 . S
H2671 C2607 0.930 . S
H2672 C2611 0.930 . S
H2673 C2612 0.961 . S
H2674 C2612 0.960 . S
H2675 C2612 0.958 . S
H2676 C2613 0.961 . S
H2677 C2613 0.960 . S
H2678 C2613 0.960 . S
H2679 C2615 0.980 . S
H2680 C2614 0.961 . S
H2681 C2614 0.961 . S
H2682 C2614 0.959 . S
H2683 C2617 0.932 . S
H2684 C2621 0.929 . S
H2685 C2622 0.961 . S
H2686 C2622 0.959 . S
H2687 C2622 0.959 . S
H2688 C2623 0.960 . S
H2689 C2623 0.962 . S
H2690 C2623 0.961 . S
H2691 C2625 0.929 . S
H2692 C2628 0.930 . S
H2693 C2629 0.929 . S
H2694 C2632 0.930 . S
H2695 C2635 0.929 . S
H2696 C2636 0.930 . S
H2697 C2640 0.962 . S
H2698 C2640 0.959 . S
H2699 C2640 0.958 . S
H2700 C2708 0.950 . S
H2701 C2713 0.950 . S
H2702 C2710 0.950 . S
H2703 C2712 0.950 . S
H2704 C2714 0.950 1_455 S
H2705 C2716 0.965 . S
H2706 C2718 0.950 . S
H2707 C2719 0.950 . S
C2708 H2700 0.950 . S
C2708 C2709 1.386 . S
C2708 C2710 1.391 . S
C2709 C2708 1.386 . S
C2709 C2713 1.393 1_655 S
C2710 H2702 0.950 . S
C2710 C2708 1.391 . S
C2710 C2711 1.400 . S
C2711 C2710 1.400 . S
C2711 C2712 1.398 1_655 S
C2711 C2717 1.491 . S
C2712 H2703 0.950 . S
C2712 C2711 1.398 1_455 S
C2712 C2713 1.391 . S
C2713 H2701 0.950 . S
C2713 C2709 1.393 1_455 S
C2713 C2712 1.391 . S
C2714 H2704 0.950 1_655 S
C2714 C2715 1.388 . S
C2714 C2716 1.370 1_655 S
C2715 C2714 1.388 . S
C2715 C2719 1.393 . S
C2716 H2705 0.965 . S
C2716 C2714 1.370 1_455 S
C2716 C2717 1.407 1_455 S
C2717 C2711 1.491 . S
C2717 C2716 1.407 1_655 S
C2717 C2718 1.398 . S
C2718 H2706 0.950 . S
C2718 C2717 1.398 . S
C2718 C2719 1.391 . S
C2719 H2707 0.950 . S
C2719 C2715 1.393 . S
C2719 C2718 1.391 . S
H2720 C2728 0.950 . S
H2721 C2733 0.950 . S
H2722 C2730 0.950 . S
H2723 C2732 0.950 . S
H2724 C2734 0.950 . S
H2725 C2736 0.950 . S
H2726 C2738 0.950 . S
H2727 C2739 0.950 . S
C2728 H2720 0.950 . S
C2728 C2729 1.386 . S
C2728 C2730 1.391 . S
C2729 C2728 1.386 . S
C2729 C2733 1.393 . S
C2730 H2722 0.950 . S
C2730 C2728 1.391 . S
C2730 C2731 1.400 . S
C2731 C2730 1.400 . S
C2731 C2732 1.398 . S
C2731 C2737 1.491 . S
C2732 H2723 0.950 . S
C2732 C2731 1.398 . S
C2732 C2733 1.391 . S
C2733 H2721 0.950 . S
C2733 C2729 1.393 . S
C2733 C2732 1.391 . S
C2734 H2724 0.950 . S
C2734 C2735 1.386 . S
C2734 C2736 1.391 . S
C2735 C2734 1.386 . S
C2735 C2739 1.393 . S
C2736 H2725 0.950 . S
C2736 C2734 1.391 . S
C2736 C2737 1.400 . S
C2737 C2731 1.491 . S
C2737 C2736 1.400 . S
C2737 C2738 1.398 . S
C2738 H2726 0.950 . S
C2738 C2737 1.398 . S
C2738 C2739 1.391 . S
C2739 H2727 0.950 . S
C2739 C2735 1.393 . S
C2739 C2738 1.391 . S
H2740 C2748 0.950 . S
H2741 C2753 0.982 . S
H2742 C2750 0.950 . S
H2743 C2752 1.012 . S
H2744 C2754 0.925 1_565 S
H2745 C2756 0.943 1_565 S
H2746 C2758 0.950 . S
H2747 C2759 0.950 . S
C2748 H2740 0.950 . S
C2748 C2749 1.386 . S
C2748 C2750 1.391 . S
C2749 C2748 1.386 . S
C2749 C2753 1.340 1_545 S
C2750 H2742 0.950 . S
C2750 C2748 1.391 . S
C2750 C2751 1.400 . S
C2751 C2750 1.400 . S
C2751 C2752 1.366 1_545 S
C2751 C2757 1.491 . S
C2752 H2743 1.012 . S
C2752 C2751 1.366 1_565 S
C2752 C2753 1.388 . S
C2753 H2741 0.982 . S
C2753 C2749 1.340 1_565 S
C2753 C2752 1.388 . S
C2754 H2744 0.925 1_545 S
C2754 C2755 1.400 . S
C2754 C2756 1.397 . S
C2755 C2754 1.400 . S
C2755 C2759 1.393 . S
C2756 H2745 0.943 1_545 S
C2756 C2754 1.397 . S
C2756 C2757 1.412 . S
C2757 C2751 1.491 . S
C2757 C2756 1.412 . S
C2757 C2758 1.398 . S
C2758 H2746 0.950 . S
C2758 C2757 1.398 . S
C2758 C2759 1.391 . S
C2759 H2747 0.950 . S
C2759 C2755 1.393 . S
C2759 C2758 1.391 . S
H2760 C2768 0.950 . S
H2761 C2773 0.950 . S
H2762 C2770 0.950 . S
H2763 C2772 0.950 . S
H2764 C2774 0.950 . S
H2765 C2776 0.950 . S
H2766 C2778 0.950 . S
H2767 C2779 0.950 . S
C2768 H2760 0.950 . S
C2768 C2769 1.386 1_545 S
C2768 C2770 1.391 . S
C2769 C2768 1.386 1_565 S
C2769 C2773 1.393 . S
C2770 H2762 0.950 . S
C2770 C2768 1.391 . S
C2770 C2771 1.400 1_545 S
C2771 C2770 1.400 1_565 S
C2771 C2772 1.398 . S
C2771 C2777 1.491 . S
C2772 H2763 0.950 . S
C2772 C2771 1.398 . S
C2772 C2773 1.391 . S
C2773 H2761 0.950 . S
C2773 C2769 1.393 . S
C2773 C2772 1.391 . S
C2774 H2764 0.950 . S
C2774 C2775 1.386 . S
C2774 C2776 1.391 . S
C2775 C2774 1.386 . S
C2775 C2779 1.393 1_565 S
C2776 H2765 0.950 . S
C2776 C2774 1.391 . S
C2776 C2777 1.400 . S
C2777 C2771 1.491 . S
C2777 C2776 1.400 . S
C2777 C2778 1.398 1_565 S
C2778 H2766 0.950 . S
C2778 C2777 1.398 1_545 S
C2778 C2779 1.391 . S
C2779 H2767 0.950 . S
C2779 C2775 1.393 1_545 S
C2779 C2778 1.391 . S
H2780 C2788 0.950 . S
H2781 C2793 0.950 . S
H2782 C2790 0.950 . S
H2783 C2792 0.950 . S
H2784 C2794 0.950 . S
H2785 C2796 0.950 . S
H2786 C2798 0.950 . S
H2787 C2799 0.950 . S
C2788 H2780 0.950 . S
C2788 C2789 1.386 1_655 S
C2788 C2790 1.391 . S
C2789 C2788 1.386 1_455 S
C2789 C2793 1.393 . S
C2790 H2782 0.950 . S
C2790 C2788 1.391 . S
C2790 C2791 1.400 1_655 S
C2791 C2790 1.400 1_455 S
C2791 C2792 1.398 . S
C2791 C2797 1.491 . S
C2792 H2783 0.950 . S
C2792 C2791 1.398 . S
C2792 C2793 1.391 . S
C2793 H2781 0.950 . S
C2793 C2789 1.393 . S
C2793 C2792 1.391 . S
C2794 H2784 0.950 . S
C2794 C2795 1.386 . S
C2794 C2796 1.391 . S
C2795 C2794 1.386 . S
C2795 C2799 1.393 1_455 S
C2796 H2785 0.950 . S
C2796 C2794 1.391 . S
C2796 C2797 1.400 . S
C2797 C2791 1.491 . S
C2797 C2796 1.400 . S
C2797 C2798 1.398 1_455 S
C2798 H2786 0.950 . S
C2798 C2797 1.398 1_655 S
C2798 C2799 1.391 . S
C2799 H2787 0.950 . S
C2799 C2795 1.393 1_655 S
C2799 C2798 1.391 . S
H2800 C2808 0.950 . S
H2801 C2813 0.950 . S
H2802 C2810 0.950 . S
H2803 C2812 0.950 . S
H2804 C2814 0.950 . S
H2805 C2816 0.950 . S
H2806 C2818 0.950 . S
H2807 C2819 0.950 . S
C2808 H2800 0.950 . S
C2808 C2809 1.386 . S
C2808 C2810 1.391 . S
C2809 C2808 1.386 . S
C2809 C2813 1.393 . S
C2810 H2802 0.950 . S
C2810 C2808 1.391 . S
C2810 C2811 1.400 . S
C2811 C2810 1.400 . S
C2811 C2812 1.398 . S
C2811 C2817 1.491 . S
C2812 H2803 0.950 . S
C2812 C2811 1.398 . S
C2812 C2813 1.391 . S
C2813 H2801 0.950 . S
C2813 C2809 1.393 . S
C2813 C2812 1.391 . S
C2814 H2804 0.950 . S
C2814 C2815 1.386 . S
C2814 C2816 1.391 . S
C2815 C2814 1.386 . S
C2815 C2819 1.393 . S
C2816 H2805 0.950 . S
C2816 C2814 1.391 . S
C2816 C2817 1.400 . S
C2817 C2811 1.491 . S
C2817 C2816 1.400 . S
C2817 C2818 1.398 . S
C2818 H2806 0.950 . S
C2818 C2817 1.398 . S
C2818 C2819 1.391 . S
C2819 H2807 0.950 . S
C2819 C2815 1.393 . S
C2819 C2818 1.391 . S
H2820 C2828 0.936 1_655 S
H2821 C2833 0.950 . S
H2822 C2830 0.987 . S
H2823 C2832 0.950 . S
H2824 C2834 0.950 . S
H2825 C2836 0.950 . S
H2826 C2838 0.950 . S
H2827 C2839 0.950 . S
C2828 H2820 0.936 1_455 S
C2828 C2829 1.394 . S
C2828 C2830 1.424 1_455 S
C2829 C2828 1.394 . S
C2829 C2833 1.393 . S
C2830 H2822 0.987 . S
C2830 C2828 1.424 1_655 S
C2830 C2831 1.342 1_655 S
C2831 C2830 1.342 1_455 S
C2831 C2832 1.398 . S
C2831 C2837 1.491 . S
C2832 H2823 0.950 . S
C2832 C2831 1.398 . S
C2832 C2833 1.391 . S
C2833 H2821 0.950 . S
C2833 C2829 1.393 . S
C2833 C2832 1.391 . S
C2834 H2824 0.950 . S
C2834 C2835 1.386 . S
C2834 C2836 1.391 . S
C2835 C2834 1.386 . S
C2835 C2839 1.393 1_455 S
C2836 H2825 0.950 . S
C2836 C2834 1.391 . S
C2836 C2837 1.400 . S
C2837 C2831 1.491 . S
C2837 C2836 1.400 . S
C2837 C2838 1.398 1_455 S
C2838 H2826 0.950 . S
C2838 C2837 1.398 1_655 S
C2838 C2839 1.391 . S
C2839 H2827 0.950 . S
C2839 C2835 1.393 1_655 S
C2839 C2838 1.391 . S
H2840 C2848 0.950 . S
H2841 C2853 0.950 . S
H2842 C2850 0.950 . S
H2843 C2852 0.950 . S
H2844 C2854 0.950 . S
H2845 C2856 0.950 . S
H2846 C2858 0.950 . S
H2847 C2859 0.950 . S
C2848 H2840 0.950 . S
C2848 C2849 1.386 . S
C2848 C2850 1.391 . S
C2849 C2848 1.386 . S
C2849 C2853 1.393 . S
C2850 H2842 0.950 . S
C2850 C2848 1.391 . S
C2850 C2851 1.400 . S
C2851 C2850 1.400 . S
C2851 C2852 1.398 . S
C2851 C2857 1.491 . S
C2852 H2843 0.950 . S
C2852 C2851 1.398 . S
C2852 C2853 1.391 . S
C2853 H2841 0.950 . S
C2853 C2849 1.393 . S
C2853 C2852 1.391 . S
C2854 H2844 0.950 . S
C2854 C2855 1.386 . S
C2854 C2856 1.391 . S
C2855 C2854 1.386 . S
C2855 C2859 1.393 . S
C2856 H2845 0.950 . S
C2856 C2854 1.391 . S
C2856 C2857 1.400 . S
C2857 C2851 1.491 . S
C2857 C2856 1.400 . S
C2857 C2858 1.398 . S
C2858 H2846 0.950 . S
C2858 C2857 1.398 . S
C2858 C2859 1.391 . S
C2859 H2847 0.950 . S
C2859 C2855 1.393 . S
C2859 C2858 1.391 . S
H2860 C2868 0.950 . S
H2861 C2873 0.950 . S
H2862 C2870 0.950 . S
H2863 C2872 0.950 . S
H2864 C2874 0.950 . S
H2865 C2876 0.950 . S
H2866 C2878 0.950 . S
H2867 C2879 0.950 . S
C2868 H2860 0.950 . S
C2868 C2869 1.386 . S
C2868 C2870 1.391 . S
C2869 C2868 1.386 . S
C2869 C2873 1.393 1_565 S
C2870 H2862 0.950 . S
C2870 C2868 1.391 . S
C2870 C2871 1.400 . S
C2871 C2870 1.400 . S
C2871 C2872 1.398 1_565 S
C2871 C2877 1.491 . S
C2872 H2863 0.950 . S
C2872 C2871 1.398 1_545 S
C2872 C2873 1.391 . S
C2873 H2861 0.950 . S
C2873 C2869 1.393 1_545 S
C2873 C2872 1.391 . S
C2874 H2864 0.950 . S
C2874 C2875 1.386 1_545 S
C2874 C2876 1.391 . S
C2875 C2874 1.386 1_565 S
C2875 C2879 1.393 . S
C2876 H2865 0.950 . S
C2876 C2874 1.391 . S
C2876 C2877 1.400 1_545 S
C2877 C2871 1.491 . S
C2877 C2876 1.400 1_565 S
C2877 C2878 1.398 . S
C2878 H2866 0.950 . S
C2878 C2877 1.398 . S
C2878 C2879 1.391 . S
C2879 H2867 0.950 . S
C2879 C2875 1.393 . S
C2879 C2878 1.391 . S
H2880 C2888 0.950 . S
H2881 C2893 0.950 . S
H2882 C2890 0.950 . S
H2883 C2892 0.950 . S
H2884 C2894 0.950 . S
H2885 C2896 0.950 . S
H2886 C2898 0.950 . S
H2887 C2899 0.950 . S
C2888 H2880 0.950 . S
C2888 C2889 1.386 1_565 S
C2888 C2890 1.391 . S
C2889 C2888 1.386 1_545 S
C2889 C2893 1.393 . S
C2890 H2882 0.950 . S
C2890 C2888 1.391 . S
C2890 C2891 1.400 1_565 S
C2891 C2890 1.400 1_545 S
C2891 C2892 1.398 . S
C2891 C2897 1.491 . S
C2892 H2883 0.950 . S
C2892 C2891 1.398 . S
C2892 C2893 1.391 . S
C2893 H2881 0.950 . S
C2893 C2889 1.393 . S
C2893 C2892 1.391 . S
C2894 H2884 0.950 . S
C2894 C2895 1.386 . S
C2894 C2896 1.391 . S
C2895 C2894 1.386 . S
C2895 C2899 1.393 1_545 S
C2896 H2885 0.950 . S
C2896 C2894 1.391 . S
C2896 C2897 1.400 . S
C2897 C2891 1.491 . S
C2897 C2896 1.400 . S
C2897 C2898 1.398 1_545 S
C2898 H2886 0.950 . S
C2898 C2897 1.398 1_565 S
C2898 C2899 1.391 . S
C2899 H2887 0.950 . S
C2899 C2895 1.393 1_565 S
C2899 C2898 1.391 . S
H2900 C2908 0.950 . S
H2901 C2913 0.950 . S
H2902 C2910 0.950 . S
H2903 C2912 0.950 . S
H2904 C2914 0.950 . S
H2905 C2916 0.948 . S
H2906 C2918 0.950 . S
H2907 C2919 0.950 . S
C2908 H2900 0.950 . S
C2908 C2909 1.386 . S
C2908 C2910 1.391 . S
C2909 C2908 1.386 . S
C2909 C2913 1.393 . S
C2910 H2902 0.950 . S
C2910 C2908 1.391 . S
C2910 C2911 1.400 . S
C2911 C2910 1.400 . S
C2911 C2912 1.398 . S
C2911 C2917 1.491 . S
C2912 H2903 0.950 . S
C2912 C2911 1.398 . S
C2912 C2913 1.391 . S
C2913 H2901 0.950 . S
C2913 C2909 1.393 . S
C2913 C2912 1.391 . S
C2914 H2904 0.950 . S
C2914 C2915 1.374 1_455 S
C2914 C2916 1.389 . S
C2915 C2914 1.374 1_655 S
C2915 C2919 1.426 . S
C2916 H2905 0.948 . S
C2916 C2914 1.389 . S
C2916 C2917 1.404 1_455 S
C2917 C2911 1.491 . S
C2917 C2916 1.404 1_655 S
C2917 C2918 1.398 . S
C2918 H2906 0.950 . S
C2918 C2917 1.398 . S
C2918 C2919 1.391 . S
C2919 H2907 0.950 . S
C2919 C2915 1.426 . S
C2919 C2918 1.391 . S
H2920 C2928 0.950 . S
H2921 C2933 0.950 . S
H2922 C2930 0.950 . S
H2923 C2932 0.950 . S
H2924 C2934 0.950 . S
H2925 C2936 0.950 . S
H2926 C2938 0.950 . S
H2927 C2939 0.950 . S
C2928 H2920 0.950 . S
C2928 C2929 1.386 . S
C2928 C2930 1.391 . S
C2929 C2928 1.386 . S
C2929 C2933 1.393 . S
C2930 H2922 0.950 . S
C2930 C2928 1.391 . S
C2930 C2931 1.400 . S
C2931 C2930 1.400 . S
C2931 C2932 1.398 . S
C2931 C2937 1.491 . S
C2932 H2923 0.950 . S
C2932 C2931 1.398 . S
C2932 C2933 1.391 . S
C2933 H2921 0.950 . S
C2933 C2929 1.393 . S
C2933 C2932 1.391 . S
C2934 H2924 0.950 . S
C2934 C2935 1.386 . S
C2934 C2936 1.391 . S
C2935 C2934 1.386 . S
C2935 C2939 1.393 . S
C2936 H2925 0.950 . S
C2936 C2934 1.391 . S
C2936 C2937 1.400 . S
C2937 C2931 1.491 . S
C2937 C2936 1.400 . S
C2937 C2938 1.398 . S
C2938 H2926 0.950 . S
C2938 C2937 1.398 . S
C2938 C2939 1.391 . S
C2939 H2927 0.950 . S
C2939 C2935 1.393 . S
C2939 C2938 1.391 . S
H2940 C2948 0.950 . S
H2941 C2953 0.950 . S
H2942 C2950 0.950 . S
H2943 C2952 0.950 . S
H2944 C2954 0.950 . S
H2945 C2956 0.950 . S
H2946 C2958 0.950 . S
H2947 C2959 0.950 . S
C2948 H2940 0.950 . S
C2948 C2949 1.386 . S
C2948 C2950 1.391 . S
C2949 C2948 1.386 . S
C2949 C2953 1.393 . S
C2950 H2942 0.950 . S
C2950 C2948 1.391 . S
C2950 C2951 1.400 . S
C2951 C2950 1.400 . S
C2951 C2952 1.398 . S
C2951 C2957 1.491 . S
C2952 H2943 0.950 . S
C2952 C2951 1.398 . S
C2952 C2953 1.391 . S
C2953 H2941 0.950 . S
C2953 C2949 1.393 . S
C2953 C2952 1.391 . S
C2954 H2944 0.950 . S
C2954 C2955 1.386 . S
C2954 C2956 1.391 . S
C2955 C2954 1.386 . S
C2955 C2959 1.393 . S
C2956 H2945 0.950 . S
C2956 C2954 1.391 . S
C2956 C2957 1.400 . S
C2957 C2951 1.491 . S
C2957 C2956 1.400 . S
C2957 C2958 1.398 . S
C2958 H2946 0.950 . S
C2958 C2957 1.398 . S
C2958 C2959 1.391 . S
C2959 H2947 0.950 . S
C2959 C2955 1.393 . S
C2959 C2958 1.391 . S
H2960 C2968 0.950 . S
H2961 C2973 0.950 . S
H2962 C2970 0.950 . S
H2963 C2972 0.950 . S
H2964 C2974 0.950 . S
H2965 C2976 0.950 . S
H2966 C2978 0.950 . S
H2967 C2979 0.950 . S
C2968 H2960 0.950 . S
C2968 C2969 1.386 . S
C2968 C2970 1.391 . S
C2969 C2968 1.386 . S
C2969 C2973 1.393 . S
C2970 H2962 0.950 . S
C2970 C2968 1.391 . S
C2970 C2971 1.400 . S
C2971 C2970 1.400 . S
C2971 C2972 1.398 . S
C2971 C2977 1.491 . S
C2972 H2963 0.950 . S
C2972 C2971 1.398 . S
C2972 C2973 1.391 . S
C2973 H2961 0.950 . S
C2973 C2969 1.393 . S
C2973 C2972 1.391 . S
C2974 H2964 0.950 . S
C2974 C2975 1.386 . S
C2974 C2976 1.391 . S
C2975 C2974 1.386 . S
C2975 C2979 1.393 . S
C2976 H2965 0.950 . S
C2976 C2974 1.391 . S
C2976 C2977 1.400 . S
C2977 C2971 1.491 . S
C2977 C2976 1.400 . S
C2977 C2978 1.398 . S
C2978 H2966 0.950 . S
C2978 C2977 1.398 . S
C2978 C2979 1.391 . S
C2979 H2967 0.950 . S
C2979 C2975 1.393 . S
C2979 C2978 1.391 . S
H2980 C2988 0.950 . S
H2981 C2993 0.950 . S
H2982 C2990 0.950 . S
H2983 C2992 0.950 . S
H2984 C2994 0.950 . S
H2985 C2996 0.950 . S
H2986 C2998 0.950 . S
H2987 C2999 0.950 . S
C2988 H2980 0.950 . S
C2988 C2989 1.386 . S
C2988 C2990 1.391 . S
C2989 C2988 1.386 . S
C2989 C2993 1.393 . S
C2990 H2982 0.950 . S
C2990 C2988 1.391 . S
C2990 C2991 1.400 . S
C2991 C2990 1.400 . S
C2991 C2992 1.398 . S
C2991 C2997 1.491 . S
C2992 H2983 0.950 . S
C2992 C2991 1.398 . S
C2992 C2993 1.391 . S
C2993 H2981 0.950 . S
C2993 C2989 1.393 . S
C2993 C2992 1.391 . S
C2994 H2984 0.950 . S
C2994 C2995 1.386 . S
C2994 C2996 1.391 . S
C2995 C2994 1.386 . S
C2995 C2999 1.393 . S
C2996 H2985 0.950 . S
C2996 C2994 1.391 . S
C2996 C2997 1.400 . S
C2997 C2991 1.491 . S
C2997 C2996 1.400 . S
C2997 C2998 1.398 . S
C2998 H2986 0.950 . S
C2998 C2997 1.398 . S
C2998 C2999 1.391 . S
C2999 H2987 0.950 . S
C2999 C2995 1.393 . S
C2999 C2998 1.391 . S
H3000 C3008 0.950 . S
H3001 C3013 0.950 . S
H3002 C3010 0.950 . S
H3003 C3012 0.950 . S
H3004 C3014 0.950 . S
H3005 C3016 0.950 . S
H3006 C3018 0.950 . S
H3007 C3019 0.950 . S
C3008 H3000 0.950 . S
C3008 C3009 1.386 . S
C3008 C3010 1.391 . S
C3009 C3008 1.386 . S
C3009 C3013 1.393 . S
C3010 H3002 0.950 . S
C3010 C3008 1.391 . S
C3010 C3011 1.400 . S
C3011 C3010 1.400 . S
C3011 C3012 1.398 . S
C3011 C3017 1.491 . S
C3012 H3003 0.950 . S
C3012 C3011 1.398 . S
C3012 C3013 1.391 . S
C3013 H3001 0.950 . S
C3013 C3009 1.393 . S
C3013 C3012 1.391 . S
C3014 H3004 0.950 . S
C3014 C3015 1.386 . S
C3014 C3016 1.391 . S
C3015 C3014 1.386 . S
C3015 C3019 1.393 . S
C3016 H3005 0.950 . S
C3016 C3014 1.391 . S
C3016 C3017 1.400 . S
C3017 C3011 1.491 . S
C3017 C3016 1.400 . S
C3017 C3018 1.398 . S
C3018 H3006 0.950 . S
C3018 C3017 1.398 . S
C3018 C3019 1.391 . S
C3019 H3007 0.950 . S
C3019 C3015 1.393 . S
C3019 C3018 1.391 . S
H3020 C3028 0.950 . S
H3021 C3033 0.950 . S
H3022 C3030 0.950 . S
H3023 C3032 0.950 . S
H3024 C3034 0.950 . S
H3025 C3036 0.950 . S
H3026 C3038 0.950 . S
H3027 C3039 0.950 . S
C3028 H3020 0.950 . S
C3028 C3029 1.386 . S
C3028 C3030 1.391 . S
C3029 C3028 1.386 . S
C3029 C3033 1.393 . S
C3030 H3022 0.950 . S
C3030 C3028 1.391 . S
C3030 C3031 1.400 . S
C3031 C3030 1.400 . S
C3031 C3032 1.398 . S
C3031 C3037 1.491 . S
C3032 H3023 0.950 . S
C3032 C3031 1.398 . S
C3032 C3033 1.391 . S
C3033 H3021 0.950 . S
C3033 C3029 1.393 . S
C3033 C3032 1.391 . S
C3034 H3024 0.950 . S
C3034 C3035 1.386 . S
C3034 C3036 1.391 . S
C3035 C3034 1.386 . S
C3035 C3039 1.393 . S
C3036 H3025 0.950 . S
C3036 C3034 1.391 . S
C3036 C3037 1.400 . S
C3037 C3031 1.491 . S
C3037 C3036 1.400 . S
C3037 C3038 1.398 . S
C3038 H3026 0.950 . S
C3038 C3037 1.398 . S
C3038 C3039 1.391 . S
C3039 H3027 0.950 . S
C3039 C3035 1.393 . S
C3039 C3038 1.391 . S
H3040 C3048 0.950 . S
H3041 C3053 0.950 . S
H3042 C3050 0.950 . S
H3043 C3052 0.950 . S
H3044 C3054 0.950 . S
H3045 C3056 0.950 . S
H3046 C3058 0.950 . S
H3047 C3059 0.950 . S
C3048 H3040 0.950 . S
C3048 C3049 1.386 . S
C3048 C3050 1.391 . S
C3049 C3048 1.386 . S
C3049 C3053 1.393 . S
C3050 H3042 0.950 . S
C3050 C3048 1.391 . S
C3050 C3051 1.400 . S
C3051 C3050 1.400 . S
C3051 C3052 1.398 . S
C3051 C3057 1.491 . S
C3052 H3043 0.950 . S
C3052 C3051 1.398 . S
C3052 C3053 1.391 . S
C3053 H3041 0.950 . S
C3053 C3049 1.393 . S
C3053 C3052 1.391 . S
C3054 H3044 0.950 . S
C3054 C3055 1.386 . S
C3054 C3056 1.391 . S
C3055 C3054 1.386 . S
C3055 C3059 1.393 . S
C3056 H3045 0.950 . S
C3056 C3054 1.391 . S
C3056 C3057 1.400 . S
C3057 C3051 1.491 . S
C3057 C3056 1.400 . S
C3057 C3058 1.398 . S
C3058 H3046 0.950 . S
C3058 C3057 1.398 . S
C3058 C3059 1.391 . S
C3059 H3047 0.950 . S
C3059 C3055 1.393 . S
C3059 C3058 1.391 . S
H3060 C3068 0.950 . S
H3061 C3073 0.950 . S
H3062 C3070 0.950 . S
H3063 C3072 0.950 . S
H3064 C3074 0.950 . S
H3065 C3076 0.950 . S
H3066 C3078 0.950 . S
H3067 C3079 0.950 . S
C3068 H3060 0.950 . S
C3068 C3069 1.386 . S
C3068 C3070 1.391 . S
C3069 C3068 1.386 . S
C3069 C3073 1.393 . S
C3070 H3062 0.950 . S
C3070 C3068 1.391 . S
C3070 C3071 1.400 . S
C3071 C3070 1.400 . S
C3071 C3072 1.398 . S
C3071 C3077 1.491 . S
C3072 H3063 0.950 . S
C3072 C3071 1.398 . S
C3072 C3073 1.391 . S
C3073 H3061 0.950 . S
C3073 C3069 1.393 . S
C3073 C3072 1.391 . S
C3074 H3064 0.950 . S
C3074 C3075 1.386 . S
C3074 C3076 1.391 . S
C3075 C3074 1.386 . S
C3075 C3079 1.393 . S
C3076 H3065 0.950 . S
C3076 C3074 1.391 . S
C3076 C3077 1.400 . S
C3077 C3071 1.491 . S
C3077 C3076 1.400 . S
C3077 C3078 1.398 . S
C3078 H3066 0.950 . S
C3078 C3077 1.398 . S
C3078 C3079 1.391 . S
C3079 H3067 0.950 . S
C3079 C3075 1.393 . S
C3079 C3078 1.391 . S
H3080 C3088 0.950 . S
H3081 C3093 0.950 . S
H3082 C3090 0.950 . S
H3083 C3092 0.950 . S
H3084 C3094 0.950 . S
H3085 C3096 0.950 . S
H3086 C3098 0.950 . S
H3087 C3099 0.950 . S
C3088 H3080 0.950 . S
C3088 C3089 1.386 . S
C3088 C3090 1.391 . S
C3089 C3088 1.386 . S
C3089 C3093 1.393 . S
C3090 H3082 0.950 . S
C3090 C3088 1.391 . S
C3090 C3091 1.400 . S
C3091 C3090 1.400 . S
C3091 C3092 1.398 . S
C3091 C3097 1.491 . S
C3092 H3083 0.950 . S
C3092 C3091 1.398 . S
C3092 C3093 1.391 . S
C3093 H3081 0.950 . S
C3093 C3089 1.393 . S
C3093 C3092 1.391 . S
C3094 H3084 0.950 . S
C3094 C3095 1.386 . S
C3094 C3096 1.391 . S
C3095 C3094 1.386 . S
C3095 C3099 1.393 . S
C3096 H3085 0.950 . S
C3096 C3094 1.391 . S
C3096 C3097 1.400 . S
C3097 C3091 1.491 . S
C3097 C3096 1.400 . S
C3097 C3098 1.398 . S
C3098 H3086 0.950 . S
C3098 C3097 1.398 . S
C3098 C3099 1.391 . S
C3099 H3087 0.950 . S
C3099 C3095 1.393 . S
C3099 C3098 1.391 . S
H3100 C3108 0.950 . S
H3101 C3113 0.950 . S
H3102 C3110 0.950 . S
H3103 C3112 0.950 . S
H3104 C3114 0.950 . S
H3105 C3116 0.950 . S
H3106 C3118 0.950 . S
H3107 C3119 0.950 . S
C3108 H3100 0.950 . S
C3108 C3109 1.386 . S
C3108 C3110 1.391 . S
C3109 C3108 1.386 . S
C3109 C3113 1.393 . S
C3110 H3102 0.950 . S
C3110 C3108 1.391 . S
C3110 C3111 1.400 . S
C3111 C3110 1.400 . S
C3111 C3112 1.398 . S
C3111 C3117 1.491 . S
C3112 H3103 0.950 . S
C3112 C3111 1.398 . S
C3112 C3113 1.391 . S
C3113 H3101 0.950 . S
C3113 C3109 1.393 . S
C3113 C3112 1.391 . S
C3114 H3104 0.950 . S
C3114 C3115 1.386 . S
C3114 C3116 1.391 . S
C3115 C3114 1.386 . S
C3115 C3119 1.393 . S
C3116 H3105 0.950 . S
C3116 C3114 1.391 . S
C3116 C3117 1.400 . S
C3117 C3111 1.491 . S
C3117 C3116 1.400 . S
C3117 C3118 1.398 . S
C3118 H3106 0.950 . S
C3118 C3117 1.398 . S
C3118 C3119 1.391 . S
C3119 H3107 0.950 . S
C3119 C3115 1.393 . S
C3119 C3118 1.391 . S
H3120 C3128 0.950 . S
H3121 C3133 0.950 . S
H3122 C3130 0.950 . S
H3123 C3132 0.950 . S
H3124 C3134 0.950 . S
H3125 C3136 0.950 . S
H3126 C3138 0.950 . S
H3127 C3139 0.950 . S
C3128 H3120 0.950 . S
C3128 C3129 1.386 . S
C3128 C3130 1.391 . S
C3129 C3128 1.386 . S
C3129 C3133 1.393 . S
C3130 H3122 0.950 . S
C3130 C3128 1.391 . S
C3130 C3131 1.400 . S
C3131 C3130 1.400 . S
C3131 C3132 1.398 . S
C3131 C3137 1.491 . S
C3132 H3123 0.950 . S
C3132 C3131 1.398 . S
C3132 C3133 1.391 . S
C3133 H3121 0.950 . S
C3133 C3129 1.393 . S
C3133 C3132 1.391 . S
C3134 H3124 0.950 . S
C3134 C3135 1.386 . S
C3134 C3136 1.391 . S
C3135 C3134 1.386 . S
C3135 C3139 1.393 . S
C3136 H3125 0.950 . S
C3136 C3134 1.391 . S
C3136 C3137 1.400 . S
C3137 C3131 1.491 . S
C3137 C3136 1.400 . S
C3137 C3138 1.398 . S
C3138 H3126 0.950 . S
C3138 C3137 1.398 . S
C3138 C3139 1.391 . S
C3139 H3127 0.950 . S
C3139 C3135 1.393 . S
C3139 C3138 1.391 . S
H3140 C3148 0.950 . S
H3141 C3153 0.950 . S
H3142 C3150 0.950 . S
H3143 C3152 0.950 . S
H3144 C3154 0.950 . S
H3145 C3156 0.950 . S
H3146 C3158 0.950 . S
H3147 C3159 0.950 . S
C3148 H3140 0.950 . S
C3148 C3149 1.386 . S
C3148 C3150 1.391 . S
C3149 C3148 1.386 . S
C3149 C3153 1.393 . S
C3150 H3142 0.950 . S
C3150 C3148 1.391 . S
C3150 C3151 1.400 . S
C3151 C3150 1.400 . S
C3151 C3152 1.398 . S
C3151 C3157 1.491 . S
C3152 H3143 0.950 . S
C3152 C3151 1.398 . S
C3152 C3153 1.391 . S
C3153 H3141 0.950 . S
C3153 C3149 1.393 . S
C3153 C3152 1.391 . S
C3154 H3144 0.950 . S
C3154 C3155 1.386 . S
C3154 C3156 1.391 . S
C3155 C3154 1.386 . S
C3155 C3159 1.393 . S
C3156 H3145 0.950 . S
C3156 C3154 1.391 . S
C3156 C3157 1.400 . S
C3157 C3151 1.491 . S
C3157 C3156 1.400 . S
C3157 C3158 1.398 . S
C3158 H3146 0.950 . S
C3158 C3157 1.398 . S
C3158 C3159 1.391 . S
C3159 H3147 0.950 . S
C3159 C3155 1.393 . S
C3159 C3158 1.391 . S
H3160 C3168 0.950 . S
H3161 C3173 0.950 . S
H3162 C3170 0.950 . S
H3163 C3172 0.950 . S
H3164 C3174 0.950 . S
H3165 C3176 0.950 . S
H3166 C3178 0.950 . S
H3167 C3179 0.950 . S
C3168 H3160 0.950 . S
C3168 C3169 1.386 . S
C3168 C3170 1.391 . S
C3169 C3168 1.386 . S
C3169 C3173 1.393 . S
C3170 H3162 0.950 . S
C3170 C3168 1.391 . S
C3170 C3171 1.400 . S
C3171 C3170 1.400 . S
C3171 C3172 1.398 . S
C3171 C3177 1.491 . S
C3172 H3163 0.950 . S
C3172 C3171 1.398 . S
C3172 C3173 1.391 . S
C3173 H3161 0.950 . S
C3173 C3169 1.393 . S
C3173 C3172 1.391 . S
C3174 H3164 0.950 . S
C3174 C3175 1.386 . S
C3174 C3176 1.391 . S
C3175 C3174 1.386 . S
C3175 C3179 1.393 . S
C3176 H3165 0.950 . S
C3176 C3174 1.391 . S
C3176 C3177 1.400 . S
C3177 C3171 1.491 . S
C3177 C3176 1.400 . S
C3177 C3178 1.398 . S
C3178 H3166 0.950 . S
C3178 C3177 1.398 . S
C3178 C3179 1.391 . S
C3179 H3167 0.950 . S
C3179 C3175 1.393 . S
C3179 C3178 1.391 . S
H3180 C3188 0.950 . S
H3181 C3193 0.950 . S
H3182 C3190 0.950 . S
H3183 C3192 0.950 . S
H3184 C3194 0.950 . S
H3185 C3196 0.950 . S
H3186 C3198 0.950 . S
H3187 C3199 0.950 . S
C3188 H3180 0.950 . S
C3188 C3189 1.386 . S
C3188 C3190 1.391 . S
C3189 C3188 1.386 . S
C3189 C3193 1.393 . S
C3190 H3182 0.950 . S
C3190 C3188 1.391 . S
C3190 C3191 1.400 . S
C3191 C3190 1.400 . S
C3191 C3192 1.398 . S
C3191 C3197 1.491 . S
C3192 H3183 0.950 . S
C3192 C3191 1.398 . S
C3192 C3193 1.391 . S
C3193 H3181 0.950 . S
C3193 C3189 1.393 . S
C3193 C3192 1.391 . S
C3194 H3184 0.950 . S
C3194 C3195 1.386 . S
C3194 C3196 1.391 . S
C3195 C3194 1.386 . S
C3195 C3199 1.393 . S
C3196 H3185 0.950 . S
C3196 C3194 1.391 . S
C3196 C3197 1.400 . S
C3197 C3191 1.491 . S
C3197 C3196 1.400 . S
C3197 C3198 1.398 . S
C3198 H3186 0.950 . S
C3198 C3197 1.398 . S
C3198 C3199 1.391 . S
C3199 H3187 0.950 . S
C3199 C3195 1.393 . S
C3199 C3198 1.391 . S
H3200 C3208 0.950 . S
H3201 C3213 0.950 . S
H3202 C3210 0.950 . S
H3203 C3212 0.950 . S
H3204 C3214 0.950 . S
H3205 C3216 0.950 . S
H3206 C3218 0.950 . S
H3207 C3219 0.950 . S
C3208 H3200 0.950 . S
C3208 C3209 1.386 . S
C3208 C3210 1.391 . S
C3209 C3208 1.386 . S
C3209 C3213 1.393 . S
C3210 H3202 0.950 . S
C3210 C3208 1.391 . S
C3210 C3211 1.400 . S
C3211 C3210 1.400 . S
C3211 C3212 1.398 . S
C3211 C3217 1.491 . S
C3212 H3203 0.950 . S
C3212 C3211 1.398 . S
C3212 C3213 1.391 . S
C3213 H3201 0.950 . S
C3213 C3209 1.393 . S
C3213 C3212 1.391 . S
C3214 H3204 0.950 . S
C3214 C3215 1.386 . S
C3214 C3216 1.391 . S
C3215 C3214 1.386 . S
C3215 C3219 1.393 . S
C3216 H3205 0.950 . S
C3216 C3214 1.391 . S
C3216 C3217 1.400 . S
C3217 C3211 1.491 . S
C3217 C3216 1.400 . S
C3217 C3218 1.398 . S
C3218 H3206 0.950 . S
C3218 C3217 1.398 . S
C3218 C3219 1.391 . S
C3219 H3207 0.950 . S
C3219 C3215 1.393 . S
C3219 C3218 1.391 . S
H3220 C3228 0.950 . S
H3221 C3233 0.950 . S
H3222 C3230 0.950 . S
H3223 C3232 0.950 . S
H3224 C3234 0.950 . S
H3225 C3236 0.950 . S
H3226 C3238 0.950 . S
H3227 C3239 0.950 . S
C3228 H3220 0.950 . S
C3228 C3229 1.386 . S
C3228 C3230 1.391 . S
C3229 C3228 1.386 . S
C3229 C3233 1.393 . S
C3230 H3222 0.950 . S
C3230 C3228 1.391 . S
C3230 C3231 1.400 . S
C3231 C3230 1.400 . S
C3231 C3232 1.398 . S
C3231 C3237 1.491 . S
C3232 H3223 0.950 . S
C3232 C3231 1.398 . S
C3232 C3233 1.391 . S
C3233 H3221 0.950 . S
C3233 C3229 1.393 . S
C3233 C3232 1.391 . S
C3234 H3224 0.950 . S
C3234 C3235 1.386 . S
C3234 C3236 1.391 . S
C3235 C3234 1.386 . S
C3235 C3239 1.393 . S
C3236 H3225 0.950 . S
C3236 C3234 1.391 . S
C3236 C3237 1.400 . S
C3237 C3231 1.491 . S
C3237 C3236 1.400 . S
C3237 C3238 1.398 . S
C3238 H3226 0.950 . S
C3238 C3237 1.398 . S
C3238 C3239 1.391 . S
C3239 H3227 0.950 . S
C3239 C3235 1.393 . S
C3239 C3238 1.391 . S
H3240 C3248 0.950 . S
H3241 C3253 0.950 . S
H3242 C3250 0.950 . S
H3243 C3252 0.950 . S
H3244 C3254 0.950 . S
H3245 C3256 0.950 . S
H3246 C3258 0.950 . S
H3247 C3259 0.950 . S
C3248 H3240 0.950 . S
C3248 C3249 1.386 . S
C3248 C3250 1.391 . S
C3249 C3248 1.386 . S
C3249 C3253 1.393 . S
C3250 H3242 0.950 . S
C3250 C3248 1.391 . S
C3250 C3251 1.400 . S
C3251 C3250 1.400 . S
C3251 C3252 1.398 . S
C3251 C3257 1.491 . S
C3252 H3243 0.950 . S
C3252 C3251 1.398 . S
C3252 C3253 1.391 . S
C3253 H3241 0.950 . S
C3253 C3249 1.393 . S
C3253 C3252 1.391 . S
C3254 H3244 0.950 . S
C3254 C3255 1.386 . S
C3254 C3256 1.391 . S
C3255 C3254 1.386 . S
C3255 C3259 1.393 . S
C3256 H3245 0.950 . S
C3256 C3254 1.391 . S
C3256 C3257 1.400 . S
C3257 C3251 1.491 . S
C3257 C3256 1.400 . S
C3257 C3258 1.398 . S
C3258 H3246 0.950 . S
C3258 C3257 1.398 . S
C3258 C3259 1.391 . S
C3259 H3247 0.950 . S
C3259 C3255 1.393 . S
C3259 C3258 1.391 . S
H3260 C3268 0.950 . S
H3261 C3273 0.950 . S
H3262 C3270 0.950 . S
H3263 C3272 0.950 . S
H3264 C3274 0.950 . S
H3265 C3276 0.950 . S
H3266 C3278 0.950 . S
H3267 C3279 0.950 . S
C3268 H3260 0.950 . S
C3268 C3269 1.386 . S
C3268 C3270 1.391 . S
C3269 C3268 1.386 . S
C3269 C3273 1.393 . S
C3270 H3262 0.950 . S
C3270 C3268 1.391 . S
C3270 C3271 1.400 . S
C3271 C3270 1.400 . S
C3271 C3272 1.398 . S
C3271 C3277 1.491 . S
C3272 H3263 0.950 . S
C3272 C3271 1.398 . S
C3272 C3273 1.391 . S
C3273 H3261 0.950 . S
C3273 C3269 1.393 . S
C3273 C3272 1.391 . S
C3274 H3264 0.950 . S
C3274 C3275 1.386 . S
C3274 C3276 1.391 . S
C3275 C3274 1.386 . S
C3275 C3279 1.393 . S
C3276 H3265 0.950 . S
C3276 C3274 1.391 . S
C3276 C3277 1.400 . S
C3277 C3271 1.491 . S
C3277 C3276 1.400 . S
C3277 C3278 1.398 . S
C3278 H3266 0.950 . S
C3278 C3277 1.398 . S
C3278 C3279 1.391 . S
C3279 H3267 0.950 . S
C3279 C3275 1.393 . S
C3279 C3278 1.391 . S
H3280 C3288 0.950 . S
H3281 C3293 0.950 . S
H3282 C3290 0.950 . S
H3283 C3292 0.950 . S
H3284 C3294 0.950 . S
H3285 C3296 0.950 . S
H3286 C3298 0.950 . S
H3287 C3299 0.950 . S
C3288 H3280 0.950 . S
C3288 C3289 1.386 . S
C3288 C3290 1.391 . S
C3289 C3288 1.386 . S
C3289 C3293 1.393 . S
C3290 H3282 0.950 . S
C3290 C3288 1.391 . S
C3290 C3291 1.400 . S
C3291 C3290 1.400 . S
C3291 C3292 1.398 . S
C3291 C3297 1.491 . S
C3292 H3283 0.950 . S
C3292 C3291 1.398 . S
C3292 C3293 1.391 . S
C3293 H3281 0.950 . S
C3293 C3289 1.393 . S
C3293 C3292 1.391 . S
C3294 H3284 0.950 . S
C3294 C3295 1.386 . S
C3294 C3296 1.391 . S
C3295 C3294 1.386 . S
C3295 C3299 1.393 . S
C3296 H3285 0.950 . S
C3296 C3294 1.391 . S
C3296 C3297 1.400 . S
C3297 C3291 1.491 . S
C3297 C3296 1.400 . S
C3297 C3298 1.398 . S
C3298 H3286 0.950 . S
C3298 C3297 1.398 . S
C3298 C3299 1.391 . S
C3299 H3287 0.950 . S
C3299 C3295 1.393 . S
C3299 C3298 1.391 . S
H3300 C3308 0.950 . S
H3301 C3313 0.950 . S
H3302 C3310 0.950 . S
H3303 C3312 0.950 . S
H3304 C3314 0.950 . S
H3305 C3316 0.950 . S
H3306 C3318 0.950 . S
H3307 C3319 0.950 . S
C3308 H3300 0.950 . S
C3308 C3309 1.386 . S
C3308 C3310 1.391 . S
C3309 C3308 1.386 . S
C3309 C3313 1.393 . S
C3310 H3302 0.950 . S
C3310 C3308 1.391 . S
C3310 C3311 1.400 . S
C3311 C3310 1.400 . S
C3311 C3312 1.398 . S
C3311 C3317 1.491 . S
C3312 H3303 0.950 . S
C3312 C3311 1.398 . S
C3312 C3313 1.391 . S
C3313 H3301 0.950 . S
C3313 C3309 1.393 . S
C3313 C3312 1.391 . S
C3314 H3304 0.950 . S
C3314 C3315 1.386 . S
C3314 C3316 1.391 . S
C3315 C3314 1.386 . S
C3315 C3319 1.393 . S
C3316 H3305 0.950 . S
C3316 C3314 1.391 . S
C3316 C3317 1.400 . S
C3317 C3311 1.491 . S
C3317 C3316 1.400 . S
C3317 C3318 1.398 . S
C3318 H3306 0.950 . S
C3318 C3317 1.398 . S
C3318 C3319 1.391 . S
C3319 H3307 0.950 . S
C3319 C3315 1.393 . S
C3319 C3318 1.391 . S
H3320 C3328 0.950 . S
H3321 C3333 0.950 . S
H3322 C3330 0.950 . S
H3323 C3332 0.950 . S
H3324 C3334 0.950 . S
H3325 C3336 0.950 . S
H3326 C3338 0.950 . S
H3327 C3339 0.950 . S
C3328 H3320 0.950 . S
C3328 C3329 1.386 . S
C3328 C3330 1.391 . S
C3329 C3328 1.386 . S
C3329 C3333 1.393 . S
C3330 H3322 0.950 . S
C3330 C3328 1.391 . S
C3330 C3331 1.400 . S
C3331 C3330 1.400 . S
C3331 C3332 1.398 . S
C3331 C3337 1.491 . S
C3332 H3323 0.950 . S
C3332 C3331 1.398 . S
C3332 C3333 1.391 . S
C3333 H3321 0.950 . S
C3333 C3329 1.393 . S
C3333 C3332 1.391 . S
C3334 H3324 0.950 . S
C3334 C3335 1.386 . S
C3334 C3336 1.391 . S
C3335 C3334 1.386 . S
C3335 C3339 1.393 . S
C3336 H3325 0.950 . S
C3336 C3334 1.391 . S
C3336 C3337 1.400 . S
C3337 C3331 1.491 . S
C3337 C3336 1.400 . S
C3337 C3338 1.398 . S
C3338 H3326 0.950 . S
C3338 C3337 1.398 . S
C3338 C3339 1.391 . S
C3339 H3327 0.950 . S
C3339 C3335 1.393 . S
C3339 C3338 1.391 . S
H3340 C3348 0.950 . S
H3341 C3353 0.950 . S
H3342 C3350 0.950 . S
H3343 C3352 0.950 . S
H3344 C3354 0.950 . S
H3345 C3356 0.950 . S
H3346 C3358 0.950 . S
H3347 C3359 0.950 . S
C3348 H3340 0.950 . S
C3348 C3349 1.386 . S
C3348 C3350 1.391 . S
C3349 C3348 1.386 . S
C3349 C3353 1.393 . S
C3350 H3342 0.950 . S
C3350 C3348 1.391 . S
C3350 C3351 1.400 . S
C3351 C3350 1.400 . S
C3351 C3352 1.398 . S
C3351 C3357 1.491 . S
C3352 H3343 0.950 . S
C3352 C3351 1.398 . S
C3352 C3353 1.391 . S
C3353 H3341 0.950 . S
C3353 C3349 1.393 . S
C3353 C3352 1.391 . S
C3354 H3344 0.950 . S
C3354 C3355 1.386 . S
C3354 C3356 1.391 . S
C3355 C3354 1.386 . S
C3355 C3359 1.393 . S
C3356 H3345 0.950 . S
C3356 C3354 1.391 . S
C3356 C3357 1.400 . S
C3357 C3351 1.491 . S
C3357 C3356 1.400 . S
C3357 C3358 1.398 . S
C3358 H3346 0.950 . S
C3358 C3357 1.398 . S
C3358 C3359 1.391 . S
C3359 H3347 0.950 . S
C3359 C3355 1.393 . S
C3359 C3358 1.391 . S
H3360 C3368 0.950 . S
H3361 C3373 0.950 . S
H3362 C3370 0.950 . S
H3363 C3372 0.950 . S
H3364 C3374 0.950 . S
H3365 C3376 0.950 . S
H3366 C3378 0.950 . S
H3367 C3379 0.950 . S
C3368 H3360 0.950 . S
C3368 C3369 1.386 . S
C3368 C3370 1.391 . S
C3369 C3368 1.386 . S
C3369 C3373 1.393 . S
C3370 H3362 0.950 . S
C3370 C3368 1.391 . S
C3370 C3371 1.400 . S
C3371 C3370 1.400 . S
C3371 C3372 1.398 . S
C3371 C3377 1.491 . S
C3372 H3363 0.950 . S
C3372 C3371 1.398 . S
C3372 C3373 1.391 . S
C3373 H3361 0.950 . S
C3373 C3369 1.393 . S
C3373 C3372 1.391 . S
C3374 H3364 0.950 . S
C3374 C3375 1.386 . S
C3374 C3376 1.391 . S
C3375 C3374 1.386 . S
C3375 C3379 1.393 . S
C3376 H3365 0.950 . S
C3376 C3374 1.391 . S
C3376 C3377 1.400 . S
C3377 C3371 1.491 . S
C3377 C3376 1.400 . S
C3377 C3378 1.398 . S
C3378 H3366 0.950 . S
C3378 C3377 1.398 . S
C3378 C3379 1.391 . S
C3379 H3367 0.950 . S
C3379 C3375 1.393 . S
C3379 C3378 1.391 . S
H3380 C3388 0.950 . S
H3381 C3393 0.950 . S
H3382 C3390 0.950 . S
H3383 C3392 0.950 . S
H3384 C3394 0.950 . S
H3385 C3396 0.950 . S
H3386 C3398 0.950 . S
H3387 C3399 0.950 . S
C3388 H3380 0.950 . S
C3388 C3389 1.386 . S
C3388 C3390 1.391 . S
C3389 C3388 1.386 . S
C3389 C3393 1.393 . S
C3390 H3382 0.950 . S
C3390 C3388 1.391 . S
C3390 C3391 1.400 . S
C3391 C3390 1.400 . S
C3391 C3392 1.398 . S
C3391 C3397 1.491 . S
C3392 H3383 0.950 . S
C3392 C3391 1.398 . S
C3392 C3393 1.391 . S
C3393 H3381 0.950 . S
C3393 C3389 1.393 . S
C3393 C3392 1.391 . S
C3394 H3384 0.950 . S
C3394 C3395 1.386 . S
C3394 C3396 1.391 . S
C3395 C3394 1.386 . S
C3395 C3399 1.393 . S
C3396 H3385 0.950 . S
C3396 C3394 1.391 . S
C3396 C3397 1.400 . S
C3397 C3391 1.491 . S
C3397 C3396 1.400 . S
C3397 C3398 1.398 . S
C3398 H3386 0.950 . S
C3398 C3397 1.398 . S
C3398 C3399 1.391 . S
C3399 H3387 0.950 . S
C3399 C3395 1.393 . S
C3399 C3398 1.391 . S
H3400 C3408 0.950 . S
H3401 C3413 0.950 . S
H3402 C3410 0.950 . S
H3403 C3412 0.950 . S
H3404 C3414 0.950 . S
H3405 C3416 0.950 . S
H3406 C3418 0.950 . S
H3407 C3419 0.950 . S
C3408 H3400 0.950 . S
C3408 C3409 1.386 . S
C3408 C3410 1.391 . S
C3409 C3408 1.386 . S
C3409 C3413 1.393 . S
C3410 H3402 0.950 . S
C3410 C3408 1.391 . S
C3410 C3411 1.400 . S
C3411 C3410 1.400 . S
C3411 C3412 1.398 . S
C3411 C3417 1.491 . S
C3412 H3403 0.950 . S
C3412 C3411 1.398 . S
C3412 C3413 1.391 . S
C3413 H3401 0.950 . S
C3413 C3409 1.393 . S
C3413 C3412 1.391 . S
C3414 H3404 0.950 . S
C3414 C3415 1.386 . S
C3414 C3416 1.391 . S
C3415 C3414 1.386 . S
C3415 C3419 1.393 . S
C3416 H3405 0.950 . S
C3416 C3414 1.391 . S
C3416 C3417 1.400 . S
C3417 C3411 1.491 . S
C3417 C3416 1.400 . S
C3417 C3418 1.398 . S
C3418 H3406 0.950 . S
C3418 C3417 1.398 . S
C3418 C3419 1.391 . S
C3419 H3407 0.950 . S
C3419 C3415 1.393 . S
C3419 C3418 1.391 . S
H3420 C3428 0.950 . S
H3421 C3433 0.950 . S
H3422 C3430 0.950 . S
H3423 C3432 0.950 . S
H3424 C3434 0.950 . S
H3425 C3436 0.950 . S
H3426 C3438 0.950 . S
H3427 C3439 0.950 . S
C3428 H3420 0.950 . S
C3428 C3429 1.386 . S
C3428 C3430 1.391 . S
C3429 C3428 1.386 . S
C3429 C3433 1.393 . S
C3430 H3422 0.950 . S
C3430 C3428 1.391 . S
C3430 C3431 1.400 . S
C3431 C3430 1.400 . S
C3431 C3432 1.398 . S
C3431 C3437 1.491 . S
C3432 H3423 0.950 . S
C3432 C3431 1.398 . S
C3432 C3433 1.391 . S
C3433 H3421 0.950 . S
C3433 C3429 1.393 . S
C3433 C3432 1.391 . S
C3434 H3424 0.950 . S
C3434 C3435 1.386 . S
C3434 C3436 1.391 . S
C3435 C3434 1.386 . S
C3435 C3439 1.393 . S
C3436 H3425 0.950 . S
C3436 C3434 1.391 . S
C3436 C3437 1.400 . S
C3437 C3431 1.491 . S
C3437 C3436 1.400 . S
C3437 C3438 1.398 . S
C3438 H3426 0.950 . S
C3438 C3437 1.398 . S
C3438 C3439 1.391 . S
C3439 H3427 0.950 . S
C3439 C3435 1.393 . S
C3439 C3438 1.391 . S
H3440 C3448 0.950 . S
H3441 C3453 0.950 . S
H3442 C3450 0.950 . S
H3443 C3452 0.950 . S
H3444 C3454 0.950 . S
H3445 C3456 0.950 . S
H3446 C3458 0.950 . S
H3447 C3459 0.950 . S
C3448 H3440 0.950 . S
C3448 C3449 1.386 . S
C3448 C3450 1.391 . S
C3449 C3448 1.386 . S
C3449 C3453 1.393 . S
C3450 H3442 0.950 . S
C3450 C3448 1.391 . S
C3450 C3451 1.400 . S
C3451 C3450 1.400 . S
C3451 C3452 1.398 . S
C3451 C3457 1.491 . S
C3452 H3443 0.950 . S
C3452 C3451 1.398 . S
C3452 C3453 1.391 . S
C3453 H3441 0.950 . S
C3453 C3449 1.393 . S
C3453 C3452 1.391 . S
C3454 H3444 0.950 . S
C3454 C3455 1.386 . S
C3454 C3456 1.391 . S
C3455 C3454 1.386 . S
C3455 C3459 1.393 . S
C3456 H3445 0.950 . S
C3456 C3454 1.391 . S
C3456 C3457 1.400 . S
C3457 C3451 1.491 . S
C3457 C3456 1.400 . S
C3457 C3458 1.398 . S
C3458 H3446 0.950 . S
C3458 C3457 1.398 . S
C3458 C3459 1.391 . S
C3459 H3447 0.950 . S
C3459 C3455 1.393 . S
C3459 C3458 1.391 . S
H3460 C3468 0.950 . S
H3461 C3473 0.950 . S
H3462 C3470 0.950 . S
H3463 C3472 0.950 . S
H3464 C3474 0.950 . S
H3465 C3476 0.950 . S
H3466 C3478 0.950 . S
H3467 C3479 0.950 . S
C3468 H3460 0.950 . S
C3468 C3469 1.386 . S
C3468 C3470 1.391 . S
C3469 C3468 1.386 . S
C3469 C3473 1.393 . S
C3470 H3462 0.950 . S
C3470 C3468 1.391 . S
C3470 C3471 1.400 . S
C3471 C3470 1.400 . S
C3471 C3472 1.398 . S
C3471 C3477 1.491 . S
C3472 H3463 0.950 . S
C3472 C3471 1.398 . S
C3472 C3473 1.391 . S
C3473 H3461 0.950 . S
C3473 C3469 1.393 . S
C3473 C3472 1.391 . S
C3474 H3464 0.950 . S
C3474 C3475 1.386 . S
C3474 C3476 1.391 . S
C3475 C3474 1.386 . S
C3475 C3479 1.393 . S
C3476 H3465 0.950 . S
C3476 C3474 1.391 . S
C3476 C3477 1.400 . S
C3477 C3471 1.491 . S
C3477 C3476 1.400 . S
C3477 C3478 1.398 . S
C3478 H3466 0.950 . S
C3478 C3477 1.398 . S
C3478 C3479 1.391 . S
C3479 H3467 0.950 . S
C3479 C3475 1.393 . S
C3479 C3478 1.391 . S
H3480 C3488 0.950 . S
H3481 C3493 0.950 1_554 S
H3482 C3490 0.950 . S
H3483 C3492 0.950 . S
H3484 C3494 0.950 . S
H3485 C3496 0.950 . S
H3486 C3498 0.950 . S
H3487 C3499 0.950 . S
C3488 H3480 0.950 . S
C3488 C3489 1.386 . S
C3488 C3490 1.391 . S
C3489 C3488 1.386 . S
C3489 C3493 1.393 . S
C3490 H3482 0.950 . S
C3490 C3488 1.391 . S
C3490 C3491 1.400 . S
C3491 C3490 1.400 . S
C3491 C3492 1.398 . S
C3491 C3497 1.491 . S
C3492 H3483 0.950 . S
C3492 C3491 1.398 . S
C3492 C3493 1.391 . S
C3493 H3481 0.950 1_556 S
C3493 C3489 1.393 . S
C3493 C3492 1.391 . S
C3494 H3484 0.950 . S
C3494 C3495 1.386 . S
C3494 C3496 1.391 . S
C3495 C3494 1.386 . S
C3495 C3499 1.393 . S
C3496 H3485 0.950 . S
C3496 C3494 1.391 . S
C3496 C3497 1.400 . S
C3497 C3491 1.491 . S
C3497 C3496 1.400 . S
C3497 C3498 1.398 . S
C3498 H3486 0.950 . S
C3498 C3497 1.398 . S
C3498 C3499 1.391 . S
C3499 H3487 0.950 . S
C3499 C3495 1.393 . S
C3499 C3498 1.391 . S
H3500 C3508 0.950 . S
H3501 C3513 0.950 . S
H3502 C3510 0.950 . S
H3503 C3512 0.950 . S
H3504 C3514 0.950 . S
H3505 C3516 0.950 . S
H3506 C3518 0.950 . S
H3507 C3519 0.950 . S
C3508 H3500 0.950 . S
C3508 C3509 1.386 . S
C3508 C3510 1.391 . S
C3509 C3508 1.386 . S
C3509 C3513 1.393 . S
C3510 H3502 0.950 . S
C3510 C3508 1.391 . S
C3510 C3511 1.400 . S
C3511 C3510 1.400 . S
C3511 C3512 1.398 . S
C3511 C3517 1.491 . S
C3512 H3503 0.950 . S
C3512 C3511 1.398 . S
C3512 C3513 1.391 . S
C3513 H3501 0.950 . S
C3513 C3509 1.393 . S
C3513 C3512 1.391 . S
C3514 H3504 0.950 . S
C3514 C3515 1.386 . S
C3514 C3516 1.391 . S
C3515 C3514 1.386 . S
C3515 C3519 1.393 . S
C3516 H3505 0.950 . S
C3516 C3514 1.391 . S
C3516 C3517 1.400 . S
C3517 C3511 1.491 . S
C3517 C3516 1.400 . S
C3517 C3518 1.398 . S
C3518 H3506 0.950 . S
C3518 C3517 1.398 . S
C3518 C3519 1.391 . S
C3519 H3507 0.950 . S
C3519 C3515 1.393 . S
C3519 C3518 1.391 . S
H3520 C3528 0.950 1_554 S
H3521 C3533 0.950 . S
H3522 C3530 0.950 . S
H3523 C3532 0.950 . S
H3524 C3534 0.950 . S
H3525 C3536 0.950 . S
H3526 C3538 0.950 . S
H3527 C3539 0.950 . S
C3528 H3520 0.950 1_556 S
C3528 C3529 1.386 . S
C3528 C3530 1.391 . S
C3529 C3528 1.386 . S
C3529 C3533 1.393 . S
C3530 H3522 0.950 . S
C3530 C3528 1.391 . S
C3530 C3531 1.400 . S
C3531 C3530 1.400 . S
C3531 C3532 1.398 . S
C3531 C3537 1.491 . S
C3532 H3523 0.950 . S
C3532 C3531 1.398 . S
C3532 C3533 1.391 . S
C3533 H3521 0.950 . S
C3533 C3529 1.393 . S
C3533 C3532 1.391 . S
C3534 H3524 0.950 . S
C3534 C3535 1.386 . S
C3534 C3536 1.391 . S
C3535 C3534 1.386 . S
C3535 C3539 1.393 . S
C3536 H3525 0.950 . S
C3536 C3534 1.391 . S
C3536 C3537 1.400 . S
C3537 C3531 1.491 . S
C3537 C3536 1.400 . S
C3537 C3538 1.398 . S
C3538 H3526 0.950 . S
C3538 C3537 1.398 . S
C3538 C3539 1.391 . S
C3539 H3527 0.950 . S
C3539 C3535 1.393 . S
C3539 C3538 1.391 . S
H3540 C3548 0.950 . S
H3541 C3553 0.950 . S
H3542 C3550 0.950 . S
H3543 C3552 0.950 . S
H3544 C3554 0.950 . S
H3545 C3556 0.950 . S
H3546 C3558 0.950 . S
H3547 C3559 0.950 . S
C3548 H3540 0.950 . S
C3548 C3549 1.386 . S
C3548 C3550 1.391 . S
C3549 C3548 1.386 . S
C3549 C3553 1.393 . S
C3550 H3542 0.950 . S
C3550 C3548 1.391 . S
C3550 C3551 1.400 . S
C3551 C3550 1.400 . S
C3551 C3552 1.398 . S
C3551 C3557 1.491 . S
C3552 H3543 0.950 . S
C3552 C3551 1.398 . S
C3552 C3553 1.391 . S
C3553 H3541 0.950 . S
C3553 C3549 1.393 . S
C3553 C3552 1.391 . S
C3554 H3544 0.950 . S
C3554 C3555 1.386 . S
C3554 C3556 1.391 . S
C3555 C3554 1.386 . S
C3555 C3559 1.393 . S
C3556 H3545 0.950 . S
C3556 C3554 1.391 . S
C3556 C3557 1.400 . S
C3557 C3551 1.491 . S
C3557 C3556 1.400 . S
C3557 C3558 1.398 . S
C3558 H3546 0.950 . S
C3558 C3557 1.398 . S
C3558 C3559 1.391 . S
C3559 H3547 0.950 . S
C3559 C3555 1.393 . S
C3559 C3558 1.391 . S
H3560 C3568 0.950 . S
H3561 C3573 0.950 . S
H3562 C3570 0.950 . S
H3563 C3572 0.950 . S
H3564 C3574 0.950 . S
H3565 C3576 0.950 . S
H3566 C3578 0.950 . S
H3567 C3579 0.950 . S
C3568 H3560 0.950 . S
C3568 C3569 1.386 . S
C3568 C3570 1.391 . S
C3569 C3568 1.386 . S
C3569 C3573 1.393 . S
C3570 H3562 0.950 . S
C3570 C3568 1.391 . S
C3570 C3571 1.400 . S
C3571 C3570 1.400 . S
C3571 C3572 1.398 . S
C3571 C3577 1.491 . S
C3572 H3563 0.950 . S
C3572 C3571 1.398 . S
C3572 C3573 1.391 . S
C3573 H3561 0.950 . S
C3573 C3569 1.393 . S
C3573 C3572 1.391 . S
C3574 H3564 0.950 . S
C3574 C3575 1.386 . S
C3574 C3576 1.391 . S
C3575 C3574 1.386 . S
C3575 C3579 1.393 . S
C3576 H3565 0.950 . S
C3576 C3574 1.391 . S
C3576 C3577 1.400 . S
C3577 C3571 1.491 . S
C3577 C3576 1.400 . S
C3577 C3578 1.398 . S
C3578 H3566 0.950 . S
C3578 C3577 1.398 . S
C3578 C3579 1.391 . S
C3579 H3567 0.950 . S
C3579 C3575 1.393 . S
C3579 C3578 1.391 . S
H3580 C3588 0.950 1_554 S
H3581 C3593 0.950 . S
H3582 C3590 0.950 . S
H3583 C3592 0.950 . S
H3584 C3594 0.950 . S
H3585 C3596 0.950 . S
H3586 C3598 0.950 . S
H3587 C3599 0.950 . S
C3588 H3580 0.950 1_556 S
C3588 C3589 1.386 . S
C3588 C3590 1.391 . S
C3589 C3588 1.386 . S
C3589 C3593 1.393 . S
C3590 H3582 0.950 . S
C3590 C3588 1.391 . S
C3590 C3591 1.400 . S
C3591 C3590 1.400 . S
C3591 C3592 1.398 . S
C3591 C3597 1.491 . S
C3592 H3583 0.950 . S
C3592 C3591 1.398 . S
C3592 C3593 1.391 . S
C3593 H3581 0.950 . S
C3593 C3589 1.393 . S
C3593 C3592 1.391 . S
C3594 H3584 0.950 . S
C3594 C3595 1.386 . S
C3594 C3596 1.391 . S
C3595 C3594 1.386 . S
C3595 C3599 1.393 . S
C3596 H3585 0.950 . S
C3596 C3594 1.391 . S
C3596 C3597 1.400 . S
C3597 C3591 1.491 . S
C3597 C3596 1.400 . S
C3597 C3598 1.398 . S
C3598 H3586 0.950 . S
C3598 C3597 1.398 . S
C3598 C3599 1.391 . S
C3599 H3587 0.950 . S
C3599 C3595 1.393 . S
C3599 C3598 1.391 . S
H3600 C3608 0.950 . S
H3601 C3613 0.950 . S
H3602 C3610 0.950 . S
H3603 C3612 0.950 . S
H3604 C3614 0.950 . S
H3605 C3616 0.950 . S
H3606 C3618 0.950 . S
H3607 C3619 0.950 . S
C3608 H3600 0.950 . S
C3608 C3609 1.386 . S
C3608 C3610 1.391 . S
C3609 C3608 1.386 . S
C3609 C3613 1.393 . S
C3610 H3602 0.950 . S
C3610 C3608 1.391 . S
C3610 C3611 1.400 . S
C3611 C3610 1.400 . S
C3611 C3612 1.398 . S
C3611 C3617 1.491 . S
C3612 H3603 0.950 . S
C3612 C3611 1.398 . S
C3612 C3613 1.391 . S
C3613 H3601 0.950 . S
C3613 C3609 1.393 . S
C3613 C3612 1.391 . S
C3614 H3604 0.950 . S
C3614 C3615 1.386 . S
C3614 C3616 1.391 . S
C3615 C3614 1.386 . S
C3615 C3619 1.393 . S
C3616 H3605 0.950 . S
C3616 C3614 1.391 . S
C3616 C3617 1.400 . S
C3617 C3611 1.491 . S
C3617 C3616 1.400 . S
C3617 C3618 1.398 . S
C3618 H3606 0.950 . S
C3618 C3617 1.398 . S
C3618 C3619 1.391 . S
C3619 H3607 0.950 . S
C3619 C3615 1.393 . S
C3619 C3618 1.391 . S
H3620 C3628 0.950 . S
H3621 C3633 0.950 . S
H3622 C3630 0.950 . S
H3623 C3632 0.950 . S
H3624 C3634 0.950 . S
H3625 C3636 0.950 . S
H3626 C3638 0.950 . S
H3627 C3639 0.950 . S
C3628 H3620 0.950 . S
C3628 C3629 1.386 . S
C3628 C3630 1.391 . S
C3629 C3628 1.386 . S
C3629 C3633 1.393 . S
C3630 H3622 0.950 . S
C3630 C3628 1.391 . S
C3630 C3631 1.400 . S
C3631 C3630 1.400 . S
C3631 C3632 1.398 . S
C3631 C3637 1.491 . S
C3632 H3623 0.950 . S
C3632 C3631 1.398 . S
C3632 C3633 1.391 . S
C3633 H3621 0.950 . S
C3633 C3629 1.393 . S
C3633 C3632 1.391 . S
C3634 H3624 0.950 . S
C3634 C3635 1.386 . S
C3634 C3636 1.391 . S
C3635 C3634 1.386 . S
C3635 C3639 1.393 . S
C3636 H3625 0.950 . S
C3636 C3634 1.391 . S
C3636 C3637 1.400 . S
C3637 C3631 1.491 . S
C3637 C3636 1.400 . S
C3637 C3638 1.398 . S
C3638 H3626 0.950 . S
C3638 C3637 1.398 . S
C3638 C3639 1.391 . S
C3639 H3627 0.950 . S
C3639 C3635 1.393 . S
C3639 C3638 1.391 . S
H3640 C3648 0.950 . S
H3641 C3653 0.950 . S
H3642 C3650 0.950 . S
H3643 C3652 0.950 . S
H3644 C3654 0.950 . S
H3645 C3656 0.950 . S
H3646 C3658 0.950 . S
H3647 C3659 0.950 . S
C3648 H3640 0.950 . S
C3648 C3649 1.386 . S
C3648 C3650 1.391 . S
C3649 C3648 1.386 . S
C3649 C3653 1.393 . S
C3650 H3642 0.950 . S
C3650 C3648 1.391 . S
C3650 C3651 1.400 . S
C3651 C3650 1.400 . S
C3651 C3652 1.398 . S
C3651 C3657 1.491 . S
C3652 H3643 0.950 . S
C3652 C3651 1.398 . S
C3652 C3653 1.391 . S
C3653 H3641 0.950 . S
C3653 C3649 1.393 . S
C3653 C3652 1.391 . S
C3654 H3644 0.950 . S
C3654 C3655 1.386 . S
C3654 C3656 1.391 . S
C3655 C3654 1.386 . S
C3655 C3659 1.393 . S
C3656 H3645 0.950 . S
C3656 C3654 1.391 . S
C3656 C3657 1.400 . S
C3657 C3651 1.491 . S
C3657 C3656 1.400 . S
C3657 C3658 1.398 . S
C3658 H3646 0.950 . S
C3658 C3657 1.398 . S
C3658 C3659 1.391 . S
C3659 H3647 0.950 . S
C3659 C3655 1.393 . S
C3659 C3658 1.391 . S
H3660 C3668 0.950 . S
H3661 C3673 0.950 . S
H3662 C3670 0.950 . S
H3663 C3672 0.950 . S
H3664 C3674 0.950 . S
H3665 C3676 0.950 . S
H3666 C3678 0.950 . S
H3667 C3679 0.950 . S
C3668 H3660 0.950 . S
C3668 C3669 1.386 . S
C3668 C3670 1.391 . S
C3669 C3668 1.386 . S
C3669 C3673 1.393 . S
C3670 H3662 0.950 . S
C3670 C3668 1.391 . S
C3670 C3671 1.400 . S
C3671 C3670 1.400 . S
C3671 C3672 1.398 . S
C3671 C3677 1.491 . S
C3672 H3663 0.950 . S
C3672 C3671 1.398 . S
C3672 C3673 1.391 . S
C3673 H3661 0.950 . S
C3673 C3669 1.393 . S
C3673 C3672 1.391 . S
C3674 H3664 0.950 . S
C3674 C3675 1.386 . S
C3674 C3676 1.391 . S
C3675 C3674 1.386 . S
C3675 C3679 1.393 . S
C3676 H3665 0.950 . S
C3676 C3674 1.391 . S
C3676 C3677 1.400 . S
C3677 C3671 1.491 . S
C3677 C3676 1.400 . S
C3677 C3678 1.398 . S
C3678 H3666 0.950 . S
C3678 C3677 1.398 . S
C3678 C3679 1.391 . S
C3679 H3667 0.950 . S
C3679 C3675 1.393 . S
C3679 C3678 1.391 . S
H3680 C3688 0.950 . S
H3681 C3693 0.950 . S
H3682 C3690 0.950 . S
H3683 C3692 0.950 . S
H3684 C3694 0.950 . S
H3685 C3696 0.950 . S
H3686 C3698 0.950 . S
H3687 C3699 0.950 . S
C3688 H3680 0.950 . S
C3688 C3689 1.386 . S
C3688 C3690 1.391 . S
C3689 C3688 1.386 . S
C3689 C3693 1.393 . S
C3690 H3682 0.950 . S
C3690 C3688 1.391 . S
C3690 C3691 1.400 . S
C3691 C3690 1.400 . S
C3691 C3692 1.398 . S
C3691 C3697 1.491 . S
C3692 H3683 0.950 . S
C3692 C3691 1.398 . S
C3692 C3693 1.391 . S
C3693 H3681 0.950 . S
C3693 C3689 1.393 . S
C3693 C3692 1.391 . S
C3694 H3684 0.950 . S
C3694 C3695 1.386 . S
C3694 C3696 1.391 . S
C3695 C3694 1.386 . S
C3695 C3699 1.393 . S
C3696 H3685 0.950 . S
C3696 C3694 1.391 . S
C3696 C3697 1.400 . S
C3697 C3691 1.491 . S
C3697 C3696 1.400 . S
C3697 C3698 1.398 . S
C3698 H3686 0.950 . S
C3698 C3697 1.398 . S
C3698 C3699 1.391 . S
C3699 H3687 0.950 . S
C3699 C3695 1.393 . S
C3699 C3698 1.391 . S
H3700 C3708 0.950 . S
H3701 C3713 0.950 . S
H3702 C3710 0.950 . S
H3703 C3712 0.950 . S
H3704 C3714 0.950 . S
H3705 C3716 0.950 . S
H3706 C3718 0.950 . S
H3707 C3719 0.950 . S
C3708 H3700 0.950 . S
C3708 C3709 1.386 . S
C3708 C3710 1.391 . S
C3709 C3708 1.386 . S
C3709 C3713 1.393 . S
C3710 H3702 0.950 . S
C3710 C3708 1.391 . S
C3710 C3711 1.400 . S
C3711 C3710 1.400 . S
C3711 C3712 1.398 . S
C3711 C3717 1.491 . S
C3712 H3703 0.950 . S
C3712 C3711 1.398 . S
C3712 C3713 1.391 . S
C3713 H3701 0.950 . S
C3713 C3709 1.393 . S
C3713 C3712 1.391 . S
C3714 H3704 0.950 . S
C3714 C3715 1.386 . S
C3714 C3716 1.391 . S
C3715 C3714 1.386 . S
C3715 C3719 1.393 . S
C3716 H3705 0.950 . S
C3716 C3714 1.391 . S
C3716 C3717 1.400 . S
C3717 C3711 1.491 . S
C3717 C3716 1.400 . S
C3717 C3718 1.398 . S
C3718 H3706 0.950 . S
C3718 C3717 1.398 . S
C3718 C3719 1.391 . S
C3719 H3707 0.950 . S
C3719 C3715 1.393 . S
C3719 C3718 1.391 . S
H3720 C3728 0.950 . S
H3721 C3733 0.950 . S
H3722 C3730 0.950 . S
H3723 C3732 0.950 . S
H3724 C3734 0.950 . S
H3725 C3736 0.950 . S
H3726 C3738 0.950 . S
H3727 C3739 0.950 . S
C3728 H3720 0.950 . S
C3728 C3729 1.386 . S
C3728 C3730 1.391 . S
C3729 C3728 1.386 . S
C3729 C3733 1.393 . S
C3730 H3722 0.950 . S
C3730 C3728 1.391 . S
C3730 C3731 1.400 . S
C3731 C3730 1.400 . S
C3731 C3732 1.398 . S
C3731 C3737 1.491 . S
C3732 H3723 0.950 . S
C3732 C3731 1.398 . S
C3732 C3733 1.391 . S
C3733 H3721 0.950 . S
C3733 C3729 1.393 . S
C3733 C3732 1.391 . S
C3734 H3724 0.950 . S
C3734 C3735 1.386 . S
C3734 C3736 1.391 . S
C3735 C3734 1.386 . S
C3735 C3739 1.393 . S
C3736 H3725 0.950 . S
C3736 C3734 1.391 . S
C3736 C3737 1.400 . S
C3737 C3731 1.491 . S
C3737 C3736 1.400 . S
C3737 C3738 1.398 . S
C3738 H3726 0.950 . S
C3738 C3737 1.398 . S
C3738 C3739 1.391 . S
C3739 H3727 0.950 . S
C3739 C3735 1.393 . S
C3739 C3738 1.391 . S
H3740 C3748 0.950 . S
H3741 C3753 0.950 . S
H3742 C3750 0.950 . S
H3743 C3752 0.950 . S
H3744 C3754 0.950 . S
H3745 C3756 0.950 . S
H3746 C3758 0.950 . S
H3747 C3759 0.950 . S
C3748 H3740 0.950 . S
C3748 C3749 1.386 . S
C3748 C3750 1.391 . S
C3749 C3748 1.386 . S
C3749 C3753 1.393 . S
C3750 H3742 0.950 . S
C3750 C3748 1.391 . S
C3750 C3751 1.400 . S
C3751 C3750 1.400 . S
C3751 C3752 1.398 . S
C3751 C3757 1.491 . S
C3752 H3743 0.950 . S
C3752 C3751 1.398 . S
C3752 C3753 1.391 . S
C3753 H3741 0.950 . S
C3753 C3749 1.393 . S
C3753 C3752 1.391 . S
C3754 H3744 0.950 . S
C3754 C3755 1.386 . S
C3754 C3756 1.391 . S
C3755 C3754 1.386 . S
C3755 C3759 1.393 . S
C3756 H3745 0.950 . S
C3756 C3754 1.391 . S
C3756 C3757 1.400 . S
C3757 C3751 1.491 . S
C3757 C3756 1.400 . S
C3757 C3758 1.398 . S
C3758 H3746 0.950 . S
C3758 C3757 1.398 . S
C3758 C3759 1.391 . S
C3759 H3747 0.950 . S
C3759 C3755 1.393 . S
C3759 C3758 1.391 . S
H3760 C3768 0.950 . S
H3761 C3773 0.950 . S
H3762 C3770 0.950 . S
H3763 C3772 0.950 . S
H3764 C3774 0.950 . S
H3765 C3776 0.950 . S
H3766 C3778 0.950 . S
H3767 C3779 0.950 . S
C3768 H3760 0.950 . S
C3768 C3769 1.386 . S
C3768 C3770 1.391 . S
C3769 C3768 1.386 . S
C3769 C3773 1.393 1_565 S
C3770 H3762 0.950 . S
C3770 C3768 1.391 . S
C3770 C3771 1.400 . S
C3771 C3770 1.400 . S
C3771 C3772 1.398 1_565 S
C3771 C3777 1.491 . S
C3772 H3763 0.950 . S
C3772 C3771 1.398 1_545 S
C3772 C3773 1.391 . S
C3773 H3761 0.950 . S
C3773 C3769 1.393 1_545 S
C3773 C3772 1.391 . S
C3774 H3764 0.950 . S
C3774 C3775 1.386 1_545 S
C3774 C3776 1.391 . S
C3775 C3774 1.386 1_565 S
C3775 C3779 1.393 . S
C3776 H3765 0.950 . S
C3776 C3774 1.391 . S
C3776 C3777 1.400 1_545 S
C3777 C3771 1.491 . S
C3777 C3776 1.400 1_565 S
C3777 C3778 1.398 . S
C3778 H3766 0.950 . S
C3778 C3777 1.398 . S
C3778 C3779 1.391 . S
C3779 H3767 0.950 . S
C3779 C3775 1.393 . S
C3779 C3778 1.391 . S
H3780 C3788 0.960 1_545 S
H3781 C3793 0.950 . S
H3782 C3790 0.950 1_545 S
H3783 C3792 0.950 . S
H3784 C3794 0.950 . S
H3785 C3796 0.950 . S
H3786 C3798 0.950 . S
H3787 C3799 0.950 . S
C3788 H3780 0.960 1_565 S
C3788 C3789 1.386 . S
C3788 C3790 1.391 . S
C3789 C3788 1.386 . S
C3789 C3793 1.393 . S
C3790 H3782 0.950 1_565 S
C3790 C3788 1.391 . S
C3790 C3791 1.400 . S
C3791 C3790 1.400 . S
C3791 C3792 1.398 . S
C3791 C3797 1.491 . S
C3792 H3783 0.950 . S
C3792 C3791 1.398 . S
C3792 C3793 1.391 . S
C3793 H3781 0.950 . S
C3793 C3789 1.393 . S
C3793 C3792 1.391 . S
C3794 H3784 0.950 . S
C3794 C3795 1.386 . S
C3794 C3796 1.391 . S
C3795 C3794 1.386 . S
C3795 C3799 1.393 1_565 S
C3796 H3785 0.950 . S
C3796 C3794 1.391 . S
C3796 C3797 1.400 . S
C3797 C3791 1.491 . S
C3797 C3796 1.400 . S
C3797 C3798 1.398 1_565 S
C3798 H3786 0.950 . S
C3798 C3797 1.398 1_545 S
C3798 C3799 1.391 . S
C3799 H3787 0.950 . S
C3799 C3795 1.393 1_545 S
C3799 C3798 1.391 . S
H3800 C3808 0.950 . S
H3801 C3813 0.950 . S
H3802 C3810 0.950 . S
H3803 C3812 0.950 . S
H3804 C3814 0.950 . S
H3805 C3816 0.950 . S
H3806 C3818 0.950 . S
H3807 C3819 0.950 . S
C3808 H3800 0.950 . S
C3808 C3809 1.386 1_655 S
C3808 C3810 1.391 . S
C3809 C3808 1.386 1_455 S
C3809 C3813 1.393 . S
C3810 H3802 0.950 . S
C3810 C3808 1.391 . S
C3810 C3811 1.400 1_655 S
C3811 C3810 1.400 1_455 S
C3811 C3812 1.398 . S
C3811 C3817 1.491 . S
C3812 H3803 0.950 . S
C3812 C3811 1.398 . S
C3812 C3813 1.391 . S
C3813 H3801 0.950 . S
C3813 C3809 1.393 . S
C3813 C3812 1.391 . S
C3814 H3804 0.950 . S
C3814 C3815 1.431 . S
C3814 C3816 1.391 . S
C3815 C3814 1.431 . S
C3815 C3819 1.327 1_455 S
C3816 H3805 0.950 . S
C3816 C3814 1.391 . S
C3816 C3817 1.400 . S
C3817 C3811 1.491 . S
C3817 C3816 1.400 . S
C3817 C3818 1.398 1_455 S
C3818 H3806 0.950 . S
C3818 C3817 1.398 1_655 S
C3818 C3819 1.391 . S
C3819 H3807 0.950 . S
C3819 C3815 1.327 1_655 S
C3819 C3818 1.391 . S
H3820 C3828 0.950 . S
H3821 C3833 0.950 . S
H3822 C3830 0.950 . S
H3823 C3832 0.950 . S
H3824 C3834 0.950 . S
H3825 C3836 0.950 . S
H3826 C3838 0.950 . S
H3827 C3839 0.950 . S
C3828 H3820 0.950 . S
C3828 C3829 1.386 . S
C3828 C3830 1.391 . S
C3829 C3828 1.386 . S
C3829 C3833 1.393 . S
C3830 H3822 0.950 . S
C3830 C3828 1.391 . S
C3830 C3831 1.400 . S
C3831 C3830 1.400 . S
C3831 C3832 1.398 . S
C3831 C3837 1.491 . S
C3832 H3823 0.950 . S
C3832 C3831 1.398 . S
C3832 C3833 1.391 . S
C3833 H3821 0.950 . S
C3833 C3829 1.393 . S
C3833 C3832 1.391 . S
C3834 H3824 0.950 . S
C3834 C3835 1.386 . S
C3834 C3836 1.391 . S
C3835 C3834 1.386 . S
C3835 C3839 1.393 . S
C3836 H3825 0.950 . S
C3836 C3834 1.391 . S
C3836 C3837 1.400 . S
C3837 C3831 1.491 . S
C3837 C3836 1.400 . S
C3837 C3838 1.398 . S
C3838 H3826 0.950 . S
C3838 C3837 1.398 . S
C3838 C3839 1.391 . S
C3839 H3827 0.950 . S
C3839 C3835 1.393 . S
C3839 C3838 1.391 . S
H3840 C3848 0.950 . S
H3841 C3853 0.950 . S
H3842 C3850 0.950 . S
H3843 C3852 0.950 . S
H3844 C3854 0.950 . S
H3845 C3856 0.950 . S
H3846 C3858 0.950 . S
H3847 C3859 0.950 . S
C3848 H3840 0.950 . S
C3848 C3849 1.386 . S
C3848 C3850 1.391 . S
C3849 C3848 1.386 . S
C3849 C3853 1.393 . S
C3850 H3842 0.950 . S
C3850 C3848 1.391 . S
C3850 C3851 1.400 . S
C3851 C3850 1.400 . S
C3851 C3852 1.398 . S
C3851 C3857 1.491 . S
C3852 H3843 0.950 . S
C3852 C3851 1.398 . S
C3852 C3853 1.391 . S
C3853 H3841 0.950 . S
C3853 C3849 1.393 . S
C3853 C3852 1.391 . S
C3854 H3844 0.950 . S
C3854 C3855 1.386 . S
C3854 C3856 1.391 . S
C3855 C3854 1.386 . S
C3855 C3859 1.393 . S
C3856 H3845 0.950 . S
C3856 C3854 1.391 . S
C3856 C3857 1.400 . S
C3857 C3851 1.491 . S
C3857 C3856 1.400 . S
C3857 C3858 1.398 . S
C3858 H3846 0.950 . S
C3858 C3857 1.398 . S
C3858 C3859 1.391 . S
C3859 H3847 0.950 . S
C3859 C3855 1.393 . S
C3859 C3858 1.391 . S
H3860 C3868 0.950 . S
H3861 C3873 0.950 . S
H3862 C3870 0.950 . S
H3863 C3872 0.950 . S
H3864 C3874 0.950 . S
H3865 C3876 0.950 . S
H3866 C3878 0.950 . S
H3867 C3879 0.950 . S
C3868 H3860 0.950 . S
C3868 C3869 1.386 . S
C3868 C3870 1.391 . S
C3869 C3868 1.386 . S
C3869 C3873 1.393 . S
C3870 H3862 0.950 . S
C3870 C3868 1.391 . S
C3870 C3871 1.400 . S
C3871 C3870 1.400 . S
C3871 C3872 1.398 . S
C3871 C3877 1.491 . S
C3872 H3863 0.950 . S
C3872 C3871 1.398 . S
C3872 C3873 1.391 . S
C3873 H3861 0.950 . S
C3873 C3869 1.393 . S
C3873 C3872 1.391 . S
C3874 H3864 0.950 . S
C3874 C3875 1.386 . S
C3874 C3876 1.391 . S
C3875 C3874 1.386 . S
C3875 C3879 1.393 . S
C3876 H3865 0.950 . S
C3876 C3874 1.391 . S
C3876 C3877 1.400 . S
C3877 C3871 1.491 . S
C3877 C3876 1.400 . S
C3877 C3878 1.398 . S
C3878 H3866 0.950 . S
C3878 C3877 1.398 . S
C3878 C3879 1.391 . S
C3879 H3867 0.950 . S
C3879 C3875 1.393 . S
C3879 C3878 1.391 . S
H3880 C3888 0.950 . S
H3881 C3893 0.950 . S
H3882 C3890 0.950 . S
H3883 C3892 0.950 . S
H3884 C3894 0.950 . S
H3885 C3896 0.950 . S
H3886 C3898 0.950 . S
H3887 C3899 0.950 . S
C3888 H3880 0.950 . S
C3888 C3889 1.386 . S
C3888 C3890 1.391 . S
C3889 C3888 1.386 . S
C3889 C3893 1.393 . S
C3890 H3882 0.950 . S
C3890 C3888 1.391 . S
C3890 C3891 1.400 . S
C3891 C3890 1.400 . S
C3891 C3892 1.398 . S
C3891 C3897 1.491 . S
C3892 H3883 0.950 . S
C3892 C3891 1.398 . S
C3892 C3893 1.391 . S
C3893 H3881 0.950 . S
C3893 C3889 1.393 . S
C3893 C3892 1.391 . S
C3894 H3884 0.950 . S
C3894 C3895 1.386 . S
C3894 C3896 1.391 . S
C3895 C3894 1.386 . S
C3895 C3899 1.393 . S
C3896 H3885 0.950 . S
C3896 C3894 1.391 . S
C3896 C3897 1.400 . S
C3897 C3891 1.491 . S
C3897 C3896 1.400 . S
C3897 C3898 1.398 . S
C3898 H3886 0.950 . S
C3898 C3897 1.398 . S
C3898 C3899 1.391 . S
C3899 H3887 0.950 . S
C3899 C3895 1.393 . S
C3899 C3898 1.391 . S
H3900 C3908 0.950 . S
H3901 C3913 0.950 . S
H3902 C3910 0.975 . S
H3903 C3912 0.950 . S
H3904 C3914 0.950 . S
H3905 C3916 0.950 . S
H3906 C3918 0.937 . S
H3907 C3919 0.950 1_565 S
C3908 H3900 0.950 . S
C3908 C3909 1.386 . S
C3908 C3910 1.391 . S
C3909 C3908 1.386 . S
C3909 C3913 1.393 . S
C3910 H3902 0.975 . S
C3910 C3908 1.391 . S
C3910 C3911 1.400 . S
C3911 C3910 1.400 . S
C3911 C3912 1.398 . S
C3911 C3917 1.491 . S
C3912 H3903 0.950 . S
C3912 C3911 1.398 . S
C3912 C3913 1.391 . S
C3913 H3901 0.950 . S
C3913 C3909 1.393 . S
C3913 C3912 1.391 . S
C3914 H3904 0.950 . S
C3914 C3915 1.386 . S
C3914 C3916 1.391 . S
C3915 C3914 1.386 . S
C3915 C3919 1.393 . S
C3916 H3905 0.950 . S
C3916 C3914 1.391 . S
C3916 C3917 1.400 . S
C3917 C3911 1.491 . S
C3917 C3916 1.400 . S
C3917 C3918 1.398 . S
C3918 H3906 0.937 . S
C3918 C3917 1.398 . S
C3918 C3919 1.391 . S
C3919 H3907 0.950 1_545 S
C3919 C3915 1.393 . S
C3919 C3918 1.391 . S
H3920 C3928 0.950 . S
H3921 C3933 1.031 . S
H3922 C3930 0.950 . S
H3923 C3932 0.950 . S
H3924 C3934 0.950 . S
H3925 C3936 0.950 . S
H3926 C3938 0.950 . S
H3927 C3939 0.950 . S
C3928 H3920 0.950 . S
C3928 C3929 1.386 . S
C3928 C3930 1.391 . S
C3929 C3928 1.386 . S
C3929 C3933 1.343 1_655 S
C3930 H3922 0.950 . S
C3930 C3928 1.391 . S
C3930 C3931 1.400 . S
C3931 C3930 1.400 . S
C3931 C3932 1.398 1_655 S
C3931 C3937 1.491 . S
C3932 H3923 0.950 . S
C3932 C3931 1.398 1_455 S
C3932 C3933 1.363 . S
C3933 H3921 1.031 . S
C3933 C3929 1.343 1_455 S
C3933 C3932 1.363 . S
C3934 H3924 0.950 . S
C3934 C3935 1.386 1_455 S
C3934 C3936 1.391 . S
C3935 C3934 1.386 1_655 S
C3935 C3939 1.393 . S
C3936 H3925 0.950 . S
C3936 C3934 1.391 . S
C3936 C3937 1.400 1_455 S
C3937 C3931 1.491 . S
C3937 C3936 1.400 1_655 S
C3937 C3938 1.398 . S
C3938 H3926 0.950 . S
C3938 C3937 1.398 . S
C3938 C3939 1.391 . S
C3939 H3927 0.950 . S
C3939 C3935 1.393 . S
C3939 C3938 1.391 . S
H3940 C3948 0.950 . S
H3941 C3953 0.950 . S
H3942 C3950 0.950 . S
H3943 C3952 0.950 . S
H3944 C3954 0.950 . S
H3945 C3956 0.950 . S
H3946 C3958 0.950 . S
H3947 C3959 0.950 . S
C3948 H3940 0.950 . S
C3948 C3949 1.386 . S
C3948 C3950 1.391 . S
C3949 C3948 1.386 . S
C3949 C3953 1.393 . S
C3950 H3942 0.950 . S
C3950 C3948 1.391 . S
C3950 C3951 1.400 . S
C3951 C3950 1.400 . S
C3951 C3952 1.398 . S
C3951 C3957 1.491 . S
C3952 H3943 0.950 . S
C3952 C3951 1.398 . S
C3952 C3953 1.391 . S
C3953 H3941 0.950 . S
C3953 C3949 1.393 . S
C3953 C3952 1.391 . S
C3954 H3944 0.950 . S
C3954 C3955 1.386 . S
C3954 C3956 1.391 . S
C3955 C3954 1.386 . S
C3955 C3959 1.393 . S
C3956 H3945 0.950 . S
C3956 C3954 1.391 . S
C3956 C3957 1.400 . S
C3957 C3951 1.491 . S
C3957 C3956 1.400 . S
C3957 C3958 1.398 . S
C3958 H3946 0.950 . S
C3958 C3957 1.398 . S
C3958 C3959 1.391 . S
C3959 H3947 0.950 . S
C3959 C3955 1.393 . S
C3959 C3958 1.391 . S
H3960 C3968 0.950 . S
H3961 C3973 0.950 . S
H3962 C3970 0.950 . S
H3963 C3972 0.950 . S
H3964 C3974 0.950 . S
H3965 C3976 0.950 . S
H3966 C3978 0.950 . S
H3967 C3979 0.950 . S
C3968 H3960 0.950 . S
C3968 C3969 1.386 . S
C3968 C3970 1.391 . S
C3969 C3968 1.386 . S
C3969 C3973 1.393 . S
C3970 H3962 0.950 . S
C3970 C3968 1.391 . S
C3970 C3971 1.400 . S
C3971 C3970 1.400 . S
C3971 C3972 1.398 . S
C3971 C3977 1.491 . S
C3972 H3963 0.950 . S
C3972 C3971 1.398 . S
C3972 C3973 1.391 . S
C3973 H3961 0.950 . S
C3973 C3969 1.393 . S
C3973 C3972 1.391 . S
C3974 H3964 0.950 . S
C3974 C3975 1.386 . S
C3974 C3976 1.391 . S
C3975 C3974 1.386 . S
C3975 C3979 1.393 . S
C3976 H3965 0.950 . S
C3976 C3974 1.391 . S
C3976 C3977 1.400 . S
C3977 C3971 1.491 . S
C3977 C3976 1.400 . S
C3977 C3978 1.398 . S
C3978 H3966 0.950 . S
C3978 C3977 1.398 . S
C3978 C3979 1.391 . S
C3979 H3967 0.950 . S
C3979 C3975 1.393 . S
C3979 C3978 1.391 . S
H3980 C3988 0.950 . S
H3981 C3993 0.950 . S
H3982 C3990 0.950 . S
H3983 C3992 0.950 . S
H3984 C3994 0.950 . S
H3985 C3996 0.950 . S
H3986 C3998 0.950 . S
H3987 C3999 0.950 . S
C3988 H3980 0.950 . S
C3988 C3989 1.386 . S
C3988 C3990 1.391 . S
C3989 C3988 1.386 . S
C3989 C3993 1.393 . S
C3990 H3982 0.950 . S
C3990 C3988 1.391 . S
C3990 C3991 1.400 . S
C3991 C3990 1.400 . S
C3991 C3992 1.398 . S
C3991 C3997 1.491 . S
C3992 H3983 0.950 . S
C3992 C3991 1.398 . S
C3992 C3993 1.391 . S
C3993 H3981 0.950 . S
C3993 C3989 1.393 . S
C3993 C3992 1.391 . S
C3994 H3984 0.950 . S
C3994 C3995 1.386 . S
C3994 C3996 1.391 . S
C3995 C3994 1.386 . S
C3995 C3999 1.393 . S
C3996 H3985 0.950 . S
C3996 C3994 1.391 . S
C3996 C3997 1.400 . S
C3997 C3991 1.491 . S
C3997 C3996 1.400 . S
C3997 C3998 1.398 . S
C3998 H3986 0.950 . S
C3998 C3997 1.398 . S
C3998 C3999 1.391 . S
C3999 H3987 0.950 . S
C3999 C3995 1.393 . S
C3999 C3998 1.391 . S
H4000 C4008 0.950 . S
H4001 C4013 0.950 . S
H4002 C4010 0.950 . S
H4003 C4012 0.950 . S
H4004 C4014 0.950 . S
H4005 C4016 0.950 . S
H4006 C4018 0.950 . S
H4007 C4019 0.950 . S
C4008 H4000 0.950 . S
C4008 C4009 1.386 . S
C4008 C4010 1.391 . S
C4009 C4008 1.386 . S
C4009 C4013 1.393 . S
C4010 H4002 0.950 . S
C4010 C4008 1.391 . S
C4010 C4011 1.400 . S
C4011 C4010 1.400 . S
C4011 C4012 1.398 . S
C4011 C4017 1.491 . S
C4012 H4003 0.950 . S
C4012 C4011 1.398 . S
C4012 C4013 1.391 . S
C4013 H4001 0.950 . S
C4013 C4009 1.393 . S
C4013 C4012 1.391 . S
C4014 H4004 0.950 . S
C4014 C4015 1.386 . S
C4014 C4016 1.391 . S
C4015 C4014 1.386 . S
C4015 C4019 1.393 . S
C4016 H4005 0.950 . S
C4016 C4014 1.391 . S
C4016 C4017 1.400 . S
C4017 C4011 1.491 . S
C4017 C4016 1.400 . S
C4017 C4018 1.398 . S
C4018 H4006 0.950 . S
C4018 C4017 1.398 . S
C4018 C4019 1.391 . S
C4019 H4007 0.950 . S
C4019 C4015 1.393 . S
C4019 C4018 1.391 . S
H4020 C4028 0.950 . S
H4021 C4033 0.950 . S
H4022 C4030 0.950 . S
H4023 C4032 0.950 . S
H4024 C4034 0.950 . S
H4025 C4036 0.950 . S
H4026 C4038 0.950 . S
H4027 C4039 0.950 . S
C4028 H4020 0.950 . S
C4028 C4029 1.386 . S
C4028 C4030 1.391 . S
C4029 C4028 1.386 . S
C4029 C4033 1.393 . S
C4030 H4022 0.950 . S
C4030 C4028 1.391 . S
C4030 C4031 1.400 . S
C4031 C4030 1.400 . S
C4031 C4032 1.398 . S
C4031 C4037 1.491 . S
C4032 H4023 0.950 . S
C4032 C4031 1.398 . S
C4032 C4033 1.391 . S
C4033 H4021 0.950 . S
C4033 C4029 1.393 . S
C4033 C4032 1.391 . S
C4034 H4024 0.950 . S
C4034 C4035 1.386 . S
C4034 C4036 1.391 . S
C4035 C4034 1.386 . S
C4035 C4039 1.393 . S
C4036 H4025 0.950 . S
C4036 C4034 1.391 . S
C4036 C4037 1.400 . S
C4037 C4031 1.491 . S
C4037 C4036 1.400 . S
C4037 C4038 1.398 . S
C4038 H4026 0.950 . S
C4038 C4037 1.398 . S
C4038 C4039 1.391 . S
C4039 H4027 0.950 . S
C4039 C4035 1.393 . S
C4039 C4038 1.391 . S
H4040 C4048 0.950 . S
H4041 C4053 0.950 . S
H4042 C4050 0.950 . S
H4043 C4052 0.950 . S
H4044 C4054 0.950 . S
H4045 C4056 0.950 . S
H4046 C4058 0.950 . S
H4047 C4059 0.950 . S
C4048 H4040 0.950 . S
C4048 C4049 1.386 . S
C4048 C4050 1.391 . S
C4049 C4048 1.386 . S
C4049 C4053 1.393 . S
C4050 H4042 0.950 . S
C4050 C4048 1.391 . S
C4050 C4051 1.400 . S
C4051 C4050 1.400 . S
C4051 C4052 1.398 . S
C4051 C4057 1.491 . S
C4052 H4043 0.950 . S
C4052 C4051 1.398 . S
C4052 C4053 1.391 . S
C4053 H4041 0.950 . S
C4053 C4049 1.393 . S
C4053 C4052 1.391 . S
C4054 H4044 0.950 . S
C4054 C4055 1.386 . S
C4054 C4056 1.391 . S
C4055 C4054 1.386 . S
C4055 C4059 1.393 . S
C4056 H4045 0.950 . S
C4056 C4054 1.391 . S
C4056 C4057 1.400 . S
C4057 C4051 1.491 . S
C4057 C4056 1.400 . S
C4057 C4058 1.398 . S
C4058 H4046 0.950 . S
C4058 C4057 1.398 . S
C4058 C4059 1.391 . S
C4059 H4047 0.950 . S
C4059 C4055 1.393 . S
C4059 C4058 1.391 . S
H4060 C4068 0.950 . S
H4061 C4073 0.950 . S
H4062 C4070 0.950 . S
H4063 C4072 0.950 . S
H4064 C4074 0.950 . S
H4065 C4076 0.950 . S
H4066 C4078 0.950 . S
H4067 C4079 0.950 . S
C4068 H4060 0.950 . S
C4068 C4069 1.386 . S
C4068 C4070 1.391 . S
C4069 C4068 1.386 . S
C4069 C4073 1.393 . S
C4070 H4062 0.950 . S
C4070 C4068 1.391 . S
C4070 C4071 1.400 . S
C4071 C4070 1.400 . S
C4071 C4072 1.398 . S
C4071 C4077 1.491 . S
C4072 H4063 0.950 . S
C4072 C4071 1.398 . S
C4072 C4073 1.391 . S
C4073 H4061 0.950 . S
C4073 C4069 1.393 . S
C4073 C4072 1.391 . S
C4074 H4064 0.950 . S
C4074 C4075 1.386 . S
C4074 C4076 1.391 . S
C4075 C4074 1.386 . S
C4075 C4079 1.393 . S
C4076 H4065 0.950 . S
C4076 C4074 1.391 . S
C4076 C4077 1.400 . S
C4077 C4071 1.491 . S
C4077 C4076 1.400 . S
C4077 C4078 1.398 . S
C4078 H4066 0.950 . S
C4078 C4077 1.398 . S
C4078 C4079 1.391 . S
C4079 H4067 0.950 . S
C4079 C4075 1.393 . S
C4079 C4078 1.391 . S
H4080 C4088 0.959 . S
H4081 C4093 0.950 . S
H4082 C4090 0.950 . S
H4083 C4092 0.950 . S
H4084 C4094 0.950 . S
H4085 C4096 0.950 . S
H4086 C4098 0.950 . S
H4087 C4099 0.950 . S
C4088 H4080 0.959 . S
C4088 C4089 1.367 1_455 S
C4088 C4090 1.401 . S
C4089 C4088 1.367 1_655 S
C4089 C4093 1.393 . S
C4090 H4082 0.950 . S
C4090 C4088 1.401 . S
C4090 C4091 1.400 1_455 S
C4091 C4090 1.400 1_655 S
C4091 C4092 1.398 . S
C4091 C4097 1.491 . S
C4092 H4083 0.950 . S
C4092 C4091 1.398 . S
C4092 C4093 1.391 . S
C4093 H4081 0.950 . S
C4093 C4089 1.393 . S
C4093 C4092 1.391 . S
C4094 H4084 0.950 . S
C4094 C4095 1.386 . S
C4094 C4096 1.391 . S
C4095 C4094 1.386 . S
C4095 C4099 1.393 1_655 S
C4096 H4085 0.950 . S
C4096 C4094 1.391 . S
C4096 C4097 1.400 . S
C4097 C4091 1.491 . S
C4097 C4096 1.400 . S
C4097 C4098 1.398 1_655 S
C4098 H4086 0.950 . S
C4098 C4097 1.398 1_455 S
C4098 C4099 1.391 . S
C4099 H4087 0.950 . S
C4099 C4095 1.393 1_455 S
C4099 C4098 1.391 . S
H4100 C4108 0.950 . S
H4101 C4113 0.950 . S
H4102 C4110 0.950 . S
H4103 C4112 0.950 . S
H4104 C4114 0.950 . S
H4105 C4116 0.950 . S
H4106 C4118 0.950 . S
H4107 C4119 0.950 . S
C4108 H4100 0.950 . S
C4108 C4109 1.386 . S
C4108 C4110 1.391 . S
C4109 C4108 1.386 . S
C4109 C4113 1.393 . S
C4110 H4102 0.950 . S
C4110 C4108 1.391 . S
C4110 C4111 1.400 . S
C4111 C4110 1.400 . S
C4111 C4112 1.398 . S
C4111 C4117 1.491 . S
C4112 H4103 0.950 . S
C4112 C4111 1.398 . S
C4112 C4113 1.391 . S
C4113 H4101 0.950 . S
C4113 C4109 1.393 . S
C4113 C4112 1.391 . S
C4114 H4104 0.950 . S
C4114 C4115 1.386 . S
C4114 C4116 1.391 . S
C4115 C4114 1.386 . S
C4115 C4119 1.393 . S
C4116 H4105 0.950 . S
C4116 C4114 1.391 . S
C4116 C4117 1.400 . S
C4117 C4111 1.491 . S
C4117 C4116 1.400 . S
C4117 C4118 1.398 . S
C4118 H4106 0.950 . S
C4118 C4117 1.398 . S
C4118 C4119 1.391 . S
C4119 H4107 0.950 . S
C4119 C4115 1.393 . S
C4119 C4118 1.391 . S
H4120 C4128 0.950 . S
H4121 C4133 0.950 . S
H4122 C4130 0.950 . S
H4123 C4132 0.950 . S
H4124 C4134 0.950 . S
H4125 C4136 0.950 . S
H4126 C4138 0.950 . S
H4127 C4139 0.950 . S
C4128 H4120 0.950 . S
C4128 C4129 1.386 . S
C4128 C4130 1.391 . S
C4129 C4128 1.386 . S
C4129 C4133 1.393 1_545 S
C4130 H4122 0.950 . S
C4130 C4128 1.391 . S
C4130 C4131 1.400 . S
C4131 C4130 1.400 . S
C4131 C4132 1.398 1_545 S
C4131 C4137 1.491 . S
C4132 H4123 0.950 . S
C4132 C4131 1.398 1_565 S
C4132 C4133 1.391 . S
C4133 H4121 0.950 . S
C4133 C4129 1.393 1_565 S
C4133 C4132 1.391 . S
C4134 H4124 0.950 . S
C4134 C4135 1.386 1_565 S
C4134 C4136 1.391 . S
C4135 C4134 1.386 1_545 S
C4135 C4139 1.393 . S
C4136 H4125 0.950 . S
C4136 C4134 1.391 . S
C4136 C4137 1.400 1_565 S
C4137 C4131 1.491 . S
C4137 C4136 1.400 1_545 S
C4137 C4138 1.398 . S
C4138 H4126 0.950 . S
C4138 C4137 1.398 . S
C4138 C4139 1.391 . S
C4139 H4127 0.950 . S
C4139 C4135 1.393 . S
C4139 C4138 1.391 . S
C2709 C4 1.299 . S
C2715 C1703 1.103 . S
C2729 C38 1.883 . S
C2735 C1843 1.211 . S
C2755 C1931 1.133 . S
C2749 C74 1.302 . S
C2769 C76 1.349 . S
C2775 C2071 1.024 1_565 S
C2789 C2 1.426 . S
C2795 C2185 1.106 . S
C2809 C40 1.689 . S
C2815 C2273 1.267 . S
C2829 C110 1.333 . S
C2835 C2159 1.129 . S
C2855 C2299 1.384 . S
C2849 C148 1.608 . S
C2875 C2045 1.146 . S
C2869 C182 1.363 . S
C2889 C184 1.419 . S
C2895 C1957 1.093 . S
C2915 C1729 1.067 . S
C2909 C112 1.340 . S
C2929 C146 1.696 . S
C2935 C1817 1.539 . S
C2949 C220 1.809 . S
C2955 C2387 1.349 . S
C2969 C254 1.988 . S
C2975 C2527 1.295 . S
C2995 C2615 1.343 . S
C2989 C290 1.809 . S
C3009 C292 1.736 . S
C3015 C703 1.123 . S
C3029 C218 1.901 . S
C3035 C817 1.250 . S
C3049 C256 1.761 . S
C3055 C905 1.315 . S
C3069 C326 1.667 . S
C3075 C791 1.504 . S
C3089 C364 1.700 . S
C3095 C931 1.463 . S
C3115 C677 1.625 . S
C3109 C398 1.769 . S
C3135 C2641 1.581 . S
C3129 C400 1.826 . S
C3155 C2413 1.343 . S
C3149 C328 1.588 . S
C3175 C2501 1.624 . S
C3169 C362 1.794 . S
C3189 C436 1.660 . S
C3195 C1019 1.167 . S
C3209 C470 1.973 . S
C3215 C1159 1.287 . S
C3229 C506 1.827 . S
C3235 C1247 1.358 . S
C3249 C508 1.885 . S
C3255 C1387 1.220 . S
C3275 C1501 1.175 . S
C3269 C434 1.867 . S
C3295 C1589 1.326 . S
C3289 C472 1.779 . S
C3315 C1475 1.642 . S
C3309 C542 1.824 . S
C3335 C1615 1.513 . S
C3329 C580 1.714 . S
C3349 C614 1.718 . S
C3355 C1361 1.570 . S
C3375 C1273 1.402 . S
C3369 C616 1.660 . S
C3389 C544 1.634 . S
C3395 C1045 1.413 . S
C3415 C1133 1.619 . S
C3409 C578 1.755 . S
C3435 C659 1.080 . S
C3429 C14 1.886 . S
C3449 C39 1.672 . S
C3455 C773 0.892 . S
C3475 C877 1.204 . S
C3469 C75 1.709 . S
C3495 C991 1.124 . S
C3489 C86 1.555 . S
C3515 C1115 0.977 . S
C3509 C3 1.797 . S
C3535 C1219 1.240 . S
C3529 C50 1.680 . S
C3549 C111 1.921 . S
C3555 C1229 1.509 . S
C3569 C158 1.736 . S
C3575 C1001 1.352 . S
C3589 C183 1.961 . S
C3595 C1105 1.749 . S
C3609 C194 1.817 . S
C3615 C763 1.590 . S
C3635 C887 1.419 . S
C3629 C122 1.843 . S
C3649 C147 1.697 . S
C3655 C649 1.475 . S
C3675 C1343 1.032 . S
C3669 C230 1.787 . S
C3689 C255 1.833 . S
C3695 C1457 1.048 . S
C3709 C291 1.733 . S
C3715 C1561 1.316 . S
C3735 C1675 0.962 . S
C3729 C302 1.134 . S
C3749 C219 1.699 . S
C3755 C1799 0.952 . S
C3769 C266 1.294 . S
C3775 C1903 1.085 . S
C3789 C327 1.359 . S
C3795 C1913 0.863 1_565 S
C3809 C374 1.252 . S
C3815 C1685 0.857 1_455 S
C3835 C1789 1.618 . S
C3829 C399 1.867 . S
C3849 C410 1.748 . S
C3855 C1447 1.565 . S
C3869 C338 1.858 . S
C3875 C1571 1.482 . S
C3895 C1333 1.618 . S
C3889 C363 1.852 . S
C3915 C2027 0.912 . S
C3909 C446 1.396 . S
C3929 C471 1.318 . S
C3935 C2141 0.834 . S
C3949 C507 1.618 . S
C3955 C2245 1.155 . S
C3975 C2359 1.106 . S
C3969 C518 1.504 . S
C3995 C2483 1.065 . S
C3989 C435 1.824 . S
C4009 C482 1.822 . S
C4015 C2587 1.385 . S
C4029 C543 1.817 . S
C4035 C2597 1.392 . S
C4049 C590 1.881 . S
C4055 C2369 1.468 . S
C4075 C2473 1.756 . S
C4069 C615 1.970 . S
C4095 C2131 1.040 1_655 S
C4089 C626 1.223 . S
C4115 C2255 1.384 . S
C4109 C554 1.771 . S
C4129 C579 1.290 . S
C4135 C2017 1.087 1_545 S
