# Generated by pormake.
# Topology zzz, (3,6)-cn, num edge types: 1
# Building blocks:
#     Node 0, Type 0, BuildingBlock: KAKCAD_clean_linker_0, # of connection points: 3
#     Node 1, Type 0, BuildingBlock: KAKCAD_clean_linker_0, # of connection points: 3
#     Node 2, Type 0, BuildingBlock: KAKCAD_clean_linker_0, # of connection points: 3
#     Node 3, Type 0, BuildingBlock: KAKCAD_clean_linker_0, # of connection points: 3
#     Node 4, Type 0, BuildingBlock: KAKCAD_clean_linker_0, # of connection points: 3
#     Node 5, Type 0, BuildingBlock: KAKCAD_clean_linker_0, # of connection points: 3
#     Node 6, Type 0, BuildingBlock: KAKCAD_clean_linker_0, # of connection points: 3
#     Node 7, Type 0, BuildingBlock: KAKCAD_clean_linker_0, # of connection points: 3
#     Node 8, Type 1, BuildingBlock: HISSIN_clean_sbu_0, # of connection points: 6
#     Node 9, Type 1, BuildingBlock: HISSIN_clean_sbu_0, # of connection points: 6
#     Node 10, Type 1, BuildingBlock: HISSIN_clean_sbu_0, # of connection points: 6
#     Node 11, Type 1, BuildingBlock: HISSIN_clean_sbu_0, # of connection points: 6
#     Edge 12, Type (0, 1), BuildingBlock: XUDNAN_clean_linker_2, # of connection points: 2
#     Edge 13, Type (0, 1), BuildingBlock: XUDNAN_clean_linker_2, # of connection points: 2
#     Edge 14, Type (0, 1), BuildingBlock: XUDNAN_clean_linker_2, # of connection points: 2
#     Edge 15, Type (0, 1), BuildingBlock: XUDNAN_clean_linker_2, # of connection points: 2
#     Edge 16, Type (0, 1), BuildingBlock: XUDNAN_clean_linker_2, # of connection points: 2
#     Edge 17, Type (0, 1), BuildingBlock: XUDNAN_clean_linker_2, # of connection points: 2
#     Edge 18, Type (0, 1), BuildingBlock: XUDNAN_clean_linker_2, # of connection points: 2
#     Edge 19, Type (0, 1), BuildingBlock: XUDNAN_clean_linker_2, # of connection points: 2
#     Edge 20, Type (0, 1), BuildingBlock: XUDNAN_clean_linker_2, # of connection points: 2
#     Edge 21, Type (0, 1), BuildingBlock: XUDNAN_clean_linker_2, # of connection points: 2
#     Edge 22, Type (0, 1), BuildingBlock: XUDNAN_clean_linker_2, # of connection points: 2
#     Edge 23, Type (0, 1), BuildingBlock: XUDNAN_clean_linker_2, # of connection points: 2
#     Edge 24, Type (0, 1), BuildingBlock: XUDNAN_clean_linker_2, # of connection points: 2
#     Edge 25, Type (0, 1), BuildingBlock: XUDNAN_clean_linker_2, # of connection points: 2
#     Edge 26, Type (0, 1), BuildingBlock: XUDNAN_clean_linker_2, # of connection points: 2
#     Edge 27, Type (0, 1), BuildingBlock: XUDNAN_clean_linker_2, # of connection points: 2
#     Edge 28, Type (0, 1), BuildingBlock: XUDNAN_clean_linker_2, # of connection points: 2
#     Edge 29, Type (0, 1), BuildingBlock: XUDNAN_clean_linker_2, # of connection points: 2
#     Edge 30, Type (0, 1), BuildingBlock: XUDNAN_clean_linker_2, # of connection points: 2
#     Edge 31, Type (0, 1), BuildingBlock: XUDNAN_clean_linker_2, # of connection points: 2
#     Edge 32, Type (0, 1), BuildingBlock: XUDNAN_clean_linker_2, # of connection points: 2
#     Edge 33, Type (0, 1), BuildingBlock: XUDNAN_clean_linker_2, # of connection points: 2
#     Edge 34, Type (0, 1), BuildingBlock: XUDNAN_clean_linker_2, # of connection points: 2
#     Edge 35, Type (0, 1), BuildingBlock: XUDNAN_clean_linker_2, # of connection points: 2
# Relax obj value: 0.391
# Max RMSD: 0.222
# Mean RMSD: 0.190
data_MOF--net-zzz--node1-HISSIN_clean_sbu_0--node2-KAKCAD_clean_linker_0--edge1-XUDNAN_clean_linker_2
_symmetry_space_group_name_H-M    P1
_symmetry_Int_Tables_number       1
_symmetry_cell_setting            triclinic
loop_
_symmetry_equiv_pos_as_xyz
'x, y, z'
_cell_length_a     56.822062
_cell_length_b     56.995274
_cell_length_c     21.876587
_cell_angle_alpha  89.573646
_cell_angle_beta   92.163595
_cell_angle_gamma 91.661297
loop_
_atom_site_label
_atom_site_type_symbol
_atom_site_fract_x
_atom_site_fract_y
_atom_site_fract_z
_atom_type_partial_charge
C0 C 0.78082 0.61177 0.07475 0.0
C1 C 0.80415 0.60411 0.07678 0.0
C2 C 0.76546 0.60521 0.12104 0.0
C3 C 0.77312 0.59063 0.16972 0.0
C4 C 0.79701 0.58477 0.17384 0.0
C5 C 0.81225 0.59149 0.12842 0.0
C6 C 0.75618 0.57808 0.21003 0.0
C7 C 0.73446 0.56942 0.1858 0.0
C8 C 0.72169 0.55152 0.21567 0.0
C9 C 0.73154 0.54154 0.27016 0.0
C10 C 0.75268 0.55129 0.29717 0.0
C11 C 0.76385 0.57035 0.2682 0.0
C12 C 0.7665 0.53996 0.34825 0.0
C13 C 0.77526 0.55366 0.39797 0.0
C14 C 0.77703 0.51843 0.33784 0.0
C15 C 0.79738 0.51207 0.37174 0.0
C16 C 0.80761 0.52699 0.4172 0.0
C17 C 0.69969 0.54226 0.18364 0.0
C18 C 0.68181 0.55785 0.16618 0.0
C19 C 0.69872 0.51962 0.15863 0.0
C20 C 0.68137 0.51341 0.11362 0.0
C21 C 0.66448 0.52962 0.09285 0.0
C22 C 0.66433 0.55157 0.12174 0.0
C23 C 0.7955 0.5472 0.43225 0.0
H24 H 0.7741 0.62171 0.03582 0.0
H25 H 0.74732 0.61049 0.11686 0.0
H26 H 0.80377 0.57314 0.20921 0.0
H27 H 0.82987 0.58471 0.1314 0.0
H28 H 0.72826 0.57509 0.14078 0.0
H29 H 0.78026 0.57749 0.28818 0.0
H30 H 0.72298 0.52642 0.29099 0.0
H31 H 0.76776 0.57053 0.40654 0.0
H32 H 0.77104 0.50769 0.29937 0.0
H33 H 0.80609 0.49622 0.3594 0.0
H34 H 0.68227 0.57553 0.18413 0.0
H35 H 0.71241 0.50736 0.17039 0.0
H36 H 0.80286 0.55915 0.46668 0.0
H37 H 0.65178 0.56456 0.1068 0.0
H38 H 0.68189 0.49625 0.09281 0.0
C39 C 0.95096 0.78447 0.92515 0.0
C40 C 0.96285 0.80593 0.91555 0.0
C41 C 0.94876 0.77576 0.98462 0.0
C42 C 0.95952 0.78783 0.03498 0.0
C43 C 0.96948 0.81034 0.02514 0.0
C44 C 0.9709 0.81937 0.96601 0.0
C45 C 0.96413 0.77547 0.09438 0.0
C46 C 0.96951 0.75172 0.09381 0.0
C47 C 0.97717 0.73984 0.14661 0.0
C48 C 0.98017 0.75248 0.20241 0.0
C49 C 0.97426 0.77666 0.20467 0.0
C50 C 0.96614 0.78762 0.15004 0.0
C51 C 0.97701 0.79161 0.26158 0.0
C52 C 0.96003 0.80843 0.2737 0.0
C53 C 0.99756 0.79156 0.29967 0.0
C54 C 1.0014 0.80845 0.34633 0.0
C55 C 0.98486 0.82599 0.35619 0.0
C56 C 0.98241 0.71449 0.13767 0.0
C57 C 0.96408 0.69927 0.11539 0.0
C58 C 1.00574 0.70768 0.13069 0.0
C59 C 0.01055 0.68692 0.09932 0.0
C60 C 0.99217 0.67256 0.07322 0.0
C61 C 0.96886 0.67872 0.0835 0.0
C62 C 0.96394 0.82533 0.31969 0.0
H63 H 0.9446 0.77391 0.88668 0.0
H64 H 0.94013 0.75876 0.99059 0.0
H65 H 0.9781 0.82019 0.06213 0.0
H66 H 0.98036 0.83594 0.95934 0.0
H67 H 0.96891 0.74233 0.05082 0.0
H68 H 0.9621 0.80607 0.1504 0.0
H69 H 0.98657 0.74359 0.24339 0.0
H70 H 0.94375 0.8089 0.24641 0.0
H71 H 0.01117 0.77914 0.2917 0.0
H72 H 0.01778 0.80826 0.37323 0.0
H73 H 0.94592 0.70427 0.11845 0.0
H74 H 0.02026 0.71932 0.14517 0.0
H75 H 0.95045 0.838 0.32652 0.0
H76 H 0.95422 0.66802 0.06522 0.0
H77 H 0.02876 0.6829 0.0923 0.0
C78 C 0.73689 0.92015 0.98021 0.0
C79 C 0.71313 0.92533 0.96805 0.0
C80 C 0.7487 0.92866 0.03322 0.0
C81 C 0.73699 0.94276 0.07442 0.0
C82 C 0.71256 0.94521 0.06586 0.0
C83 C 0.70078 0.93649 0.01366 0.0
C84 C 0.75033 0.95831 0.11884 0.0
C85 C 0.77161 0.96916 0.10221 0.0
C86 C 0.7823 0.98752 0.13641 0.0
C87 C 0.77075 0.99557 0.18914 0.0
C88 C 0.74946 0.98404 0.20804 0.0
C89 C 0.74009 0.96524 0.17289 0.0
C90 C 0.7353 0.9906 0.26224 0.0
C91 C 0.73145 0.97362 0.30826 0.0
C92 C 0.7201 0.00979 0.25931 0.0
C93 C 0.70091 0.01113 0.29878 0.0
C94 C 0.69611 0.99309 0.34156 0.0
C95 C 0.80468 0.99788 0.11096 0.0
C96 C 0.82485 0.984 0.10963 0.0
C97 C 0.80374 0.01736 0.07114 0.0
C98 C 0.82162 0.02197 0.02908 0.0
C99 C 0.84108 0.00717 0.02488 0.0
C100 C 0.8428 0.98865 0.0678 0.0
C101 C 0.71225 0.97479 0.34691 0.0
H102 H 0.7468 0.91122 0.94651 0.0
H103 H 0.76737 0.92569 0.03949 0.0
H104 H 0.70278 0.95598 0.09592 0.0
H105 H 0.68253 0.94109 1.00622 0.0
H106 H 0.77943 0.96428 0.05986 0.0
H107 H 0.7239 0.9565 0.18664 0.0
H108 H 0.77828 0.01021 0.21518 0.0
H109 H 0.7423 0.9583 0.31119 0.0
H110 H 0.72193 0.02282 0.22339 0.0
H111 H 0.68885 0.0254 0.29273 0.0
H112 H 0.82589 0.96837 0.138 0.0
H113 H 0.78826 0.02803 0.06921 0.0
H114 H 0.70933 0.9606 0.3792 0.0
H115 H 0.8572 0.97666 0.06635 0.0
H116 H 0.81961 0.03668 0.99793 0.0
C117 C 0.50933 0.72751 0.38156 0.0
C118 C 0.52383 0.70828 0.37187 0.0
C119 C 0.50628 0.7451 0.33687 0.0
C120 C 0.51765 0.74418 0.28106 0.0
C121 C 0.53304 0.72571 0.27225 0.0
C122 C 0.53619 0.70808 0.3171 0.0
C123 C 0.50764 0.75727 0.22722 0.0
C124 C 0.51764 0.77829 0.20249 0.0
C125 C 0.5064 0.78941 0.15111 0.0
C126 C 0.48599 0.77862 0.12426 0.0
C127 C 0.47621 0.75797 0.14845 0.0
C128 C 0.48689 0.74764 0.20003 0.0
C129 C 0.45613 0.74568 0.11668 0.0
C130 C 0.45801 0.73909 0.05558 0.0
C131 C 0.43645 0.73793 0.14891 0.0
C132 C 0.41968 0.72251 0.12158 0.0
C133 C 0.42265 0.71413 0.06206 0.0
C134 C 0.51498 0.81205 0.12291 0.0
C135 C 0.49855 0.82932 0.10683 0.0
C136 C 0.53814 0.81523 0.1031 0.0
C137 C 0.54423 0.83449 0.06525 0.0
C138 C 0.52724 0.85086 0.04601 0.0
C139 C 0.50452 0.84828 0.06881 0.0
C140 C 0.44158 0.72335 0.02867 0.0
H141 H 0.4991 0.72836 0.42218 0.0
H142 H 0.49361 0.75856 0.34412 0.0
H143 H 0.54145 0.72406 0.22893 0.0
H144 H 0.54778 0.6939 0.30786 0.0
H145 H 0.53356 0.78605 0.22345 0.0
H146 H 0.47944 0.73137 0.21801 0.0
H147 H 0.47767 0.78623 0.08361 0.0
H148 H 0.47317 0.74472 0.03003 0.0
H149 H 0.43458 0.74303 0.19605 0.0
H150 H 0.40507 0.71625 0.14823 0.0
H151 H 0.48062 0.82764 0.12177 0.0
H152 H 0.55118 0.8022 0.11404 0.0
H153 H 0.44492 0.71714 0.98327 0.0
H154 H 0.49112 0.86078 0.05642 0.0
H155 H 0.56195 0.83595 0.04877 0.0
C156 C 0.25331 0.46044 0.36444 0.0
C157 C 0.23513 0.44351 0.37155 0.0
C158 C 0.26415 0.46307 0.30879 0.0
C159 C 0.25716 0.44881 0.25889 0.0
C160 C 0.24013 0.4308 0.26699 0.0
C161 C 0.22926 0.42812 0.32298 0.0
C162 C 0.26672 0.45393 0.19805 0.0
C163 C 0.29052 0.4599 0.19343 0.0
C164 C 0.29971 0.46751 0.13811 0.0
C165 C 0.28462 0.46852 0.0849 0.0
C166 C 0.26042 0.46162 0.08841 0.0
C167 C 0.25186 0.45469 0.14562 0.0
C168 C 0.24317 0.46113 0.03462 0.0
C169 C 0.23925 0.48088 0.99695 0.0
C170 C 0.22777 0.44151 0.02699 0.0
C171 C 0.20833 0.44196 0.98595 0.0
C172 C 0.20362 0.46191 0.9495 0.0
C173 C 0.32522 0.47417 0.14115 0.0
C174 C 0.3322 0.49561 0.16877 0.0
C175 C 0.34167 0.45624 0.14043 0.0
C176 C 0.36376 0.45894 0.17098 0.0
C177 C 0.36997 0.47965 0.20345 0.0
C178 C 0.35427 0.49833 0.19944 0.0
C179 C 0.21972 0.48127 0.95489 0.0
H180 H 0.25796 0.47295 0.40022 0.0
H181 H 0.27704 0.47728 0.30386 0.0
H182 H 0.23473 0.41929 0.22954 0.0
H183 H 0.21544 0.41479 0.3273 0.0
H184 H 0.30213 0.45897 0.2339 0.0
H185 H 0.23324 0.45055 0.14975 0.0
H186 H 0.29162 0.47419 0.04169 0.0
H187 H 0.25061 0.49639 1.00195 0.0
H188 H 0.23017 0.42597 0.05512 0.0
H189 H 0.19644 0.42679 0.98513 0.0
H190 H 0.31968 0.50949 0.17176 0.0
H191 H 0.33653 0.43925 0.12157 0.0
H192 H 0.2171 0.49689 0.92736 0.0
H193 H 0.35851 0.51471 0.22269 0.0
H194 H 0.37516 0.44404 0.17312 0.0
C195 C 0.1116 0.22702 0.29448 0.0
C196 C 0.12617 0.21275 0.26057 0.0
C197 C 0.1012 0.24655 0.26752 0.0
C198 C 0.10502 0.25212 0.20613 0.0
C199 C 0.12268 0.24049 0.17594 0.0
C200 C 0.13336 0.22104 0.20325 0.0
C201 C 0.08652 0.26472 0.17074 0.0
C202 C 0.07663 0.28484 0.19385 0.0
C203 C 0.05545 0.29363 0.16863 0.0
C204 C 0.04388 0.28122 0.11886 0.0
C205 C 0.0544 0.26123 0.09341 0.0
C206 C 0.07566 0.25357 0.12004 0.0
C207 C 0.04379 0.24633 0.04217 0.0
C208 C 0.02154 0.23506 0.04643 0.0
C209 C 0.05839 0.23899 0.9955 0.0
C210 C 0.0518 0.22001 0.95737 0.0
C211 C 0.03013 0.20789 0.96356 0.0
C212 C 0.04572 0.31472 0.19937 0.0
C213 C 0.02248 0.31477 0.21918 0.0
C214 C 0.0611 0.3334 0.21853 0.0
C215 C 0.05416 0.35038 0.26 0.0
C216 C 0.03145 0.34953 0.28363 0.0
C217 C 0.01544 0.33193 0.26045 0.0
C218 C 0.01473 0.2162 1.00735 0.0
H219 H 0.10556 0.22164 0.33889 0.0
H220 H 0.0878 0.25526 0.29219 0.0
H221 H 0.12636 0.24486 0.12891 0.0
H222 H 0.14526 0.21108 0.17674 0.0
H223 H 0.08494 0.29297 0.23412 0.0
H224 H 0.08292 0.23743 0.10397 0.0
H225 H 0.02722 0.28719 0.09979 0.0
H226 H 0.01001 0.23983 0.08235 0.0
H227 H 0.07568 0.24717 0.99076 0.0
H228 H 0.06392 0.21458 0.9235 0.0
H229 H 0.01011 0.30077 0.20572 0.0
H230 H 0.0791 0.33418 0.20386 0.0
H231 H 0.99784 0.20738 0.01346 0.0
H232 H 0.99752 0.33089 0.2756 0.0
H233 H 0.06718 0.36338 0.27601 0.0
C234 C 0.2837 0.11449 0.32203 0.0
C235 C 0.30756 0.10969 0.33408 0.0
C236 C 0.27192 0.10561 0.26937 0.0
C237 C 0.28377 0.09156 0.22837 0.0
C238 C 0.30829 0.08963 0.23655 0.0
C239 C 0.32003 0.09868 0.28844 0.0
C240 C 0.27061 0.07533 0.18526 0.0
C241 C 0.24979 0.06398 0.20353 0.0
C242 C 0.23984 0.04462 0.17185 0.0
C243 C 0.25156 0.0362 0.11982 0.0
C244 C 0.27227 0.04825 0.09903 0.0
C245 C 0.28091 0.06801 0.13161 0.0
C246 C 0.28676 0.04107 0.046 0.0
C247 C 0.30288 0.02271 0.05212 0.0
C248 C 0.28976 0.05699 0.99712 0.0
C249 C 0.30894 0.05566 0.95845 0.0
C250 C 0.32598 0.0383 0.96682 0.0
C251 C 0.21867 0.03309 0.20047 0.0
C252 C 0.22215 0.018 0.2509 0.0
C253 C 0.19613 0.04263 0.19172 0.0
C254 C 0.17783 0.03746 0.23245 0.0
C255 C 0.18152 0.02291 0.2844 0.0
C256 C 0.2041 0.01309 0.29198 0.0
C257 C 0.32208 0.02122 0.01276 0.0
H258 H 0.27369 0.12335 0.35565 0.0
H259 H 0.25317 0.10819 0.26338 0.0
H260 H 0.31821 0.07895 0.20662 0.0
H261 H 0.33837 0.0944 0.29569 0.0
H262 H 0.24193 0.06915 0.24559 0.0
H263 H 0.29672 0.0771 0.11659 0.0
H264 H 0.24475 0.02069 0.09614 0.0
H265 H 0.30169 0.01056 0.09023 0.0
H266 H 0.27817 0.07169 0.99163 0.0
H267 H 0.31107 0.06905 0.92355 0.0
H268 H 0.2395 0.01125 0.26113 0.0
H269 H 0.193 0.05513 0.15496 0.0
H270 H 0.33481 0.00768 0.02119 0.0
H271 H 0.20851 1.00242 0.33161 0.0
H272 H 0.16095 0.04537 0.22368 0.0
C273 C 0.49572 0.3127 0.96664 0.0
C274 C 0.5119 0.31403 0.91907 0.0
C275 C 0.49768 0.29554 0.01336 0.0
C276 C 0.51568 0.2791 0.0134 0.0
C277 C 0.53107 0.27973 0.96463 0.0
C278 C 0.5293 0.29685 0.91855 0.0
C279 C 0.52281 0.26592 0.07017 0.0
C280 C 0.51101 0.24533 0.09182 0.0
C281 C 0.52047 0.23304 0.14356 0.0
C282 C 0.54114 0.24192 0.17336 0.0
C283 C 0.55254 0.26246 0.1532 0.0
C284 C 0.54328 0.27422 0.10172 0.0
C285 C 0.57343 0.27249 0.18767 0.0
C286 C 0.57371 0.27334 0.25187 0.0
C287 C 0.59224 0.28311 0.15672 0.0
C288 C 0.60987 0.29599 0.18891 0.0
C289 C 0.6091 0.29833 0.25266 0.0
C290 C 0.50998 0.21079 0.16888 0.0
C291 C 0.48832 0.21053 0.19797 0.0
C292 C 0.52428 0.19114 0.17638 0.0
C293 C 0.51792 0.17244 0.2149 0.0
C294 C 0.497 0.17272 0.24724 0.0
C295 C 0.48184 0.19164 0.23652 0.0
C296 C 0.5914 0.28609 0.28405 0.0
H297 H 0.48187 0.32527 0.9688 0.0
H298 H 0.48596 0.29596 0.05121 0.0
H299 H 0.54558 0.2678 0.96432 0.0
H300 H 0.54256 0.29726 0.88434 0.0
H301 H 0.49523 0.23862 0.06785 0.0
H302 H 0.55188 0.29033 0.08627 0.0
H303 H 0.54841 0.23269 0.21297 0.0
H304 H 0.55942 0.26551 0.27711 0.0
H305 H 0.59281 0.28229 0.10735 0.0
H306 H 0.62343 0.30513 0.16369 0.0
H307 H 0.47715 0.22558 0.19418 0.0
H308 H 0.54116 0.19087 0.15499 0.0
H309 H 0.59012 0.28786 0.33306 0.0
H310 H 0.4656 0.19253 0.26061 0.0
H311 H 0.52982 0.15802 0.22075 0.0
Eu312 Eu 0.99834 0.0278 0.60144 0.0
Eu313 Eu 0.02775 0.00586 0.7151 0.0
C314 C 0.01637 0.06111 0.71596 0.0
C315 C 0.99806 0.06692 0.47354 0.0
C316 C 0.01729 0.07682 0.50729 0.0
C317 C 0.01497 0.08218 0.38048 0.0
C318 C 0.03567 0.08821 0.4781 0.0
C319 C 0.99683 0.06987 0.40991 0.0
C320 C 0.035 0.09101 0.41415 0.0
C321 C 0.98274 0.04984 0.50478 0.0
O322 O 0.99137 0.01092 0.75354 0.0
O323 O 0.96916 0.01523 0.6641 0.0
C324 C 0.97067 0.0124 0.72433 0.0
O325 O 0.99696 0.989 0.57746 0.0
O326 O 0.03172 0.98514 0.79867 0.0
O327 O 0.0625 1.00187 0.75975 0.0
O328 O 0.01308 0.97323 0.66588 0.0
C329 C 1.00336 0.97071 0.61051 0.0
O330 O 0.03732 0.03394 0.58163 0.0
O331 O 0.04916 1.00129 0.63045 0.0
O332 O 0.03194 0.04534 0.73213 0.0
O333 O 0.99003 0.02842 0.50303 0.0
O334 O 0.97714 0.05559 0.55985 0.0
O335 O 1.00046 0.05663 0.67219 0.0
C336 C 0.06453 0.96224 0.79083 0.0
C337 C 0.06756 0.95344 0.73176 0.0
C338 C 0.06228 0.92245 0.82986 0.0
C339 C 0.06596 0.92933 0.72122 0.0
C340 C 0.06367 0.9466 0.8404 0.0
C341 C 0.06154 0.9139 0.76971 0.0
C342 C 0.05467 0.9856 0.79682 0.0
C343 C 0.05261 0.01725 0.58811 0.0
H344 H 0.01884 0.07456 0.55646 0.0
H345 H 0.01339 0.08437 0.33135 0.0
H346 H 0.05082 0.09391 0.50614 0.0
H347 H 0.98232 0.06205 0.38293 0.0
H348 H 0.06813 0.96514 0.69263 0.0
H349 H 0.05854 0.91074 0.86776 0.0
H350 H 0.06508 0.92308 0.6745 0.0
H351 H 0.06109 0.953 0.88611 0.0
Eu352 Eu 0.52771 0.03414 0.69258 0.0
Eu353 Eu 0.49425 0.99639 0.61846 0.0
C354 C 0.5253 0.97813 0.73494 0.0
C355 C 0.58285 0.05503 0.75991 0.0
C356 C 0.59599 0.0508 0.70788 0.0
C357 C 0.60964 0.03096 0.82018 0.0
C358 C 0.61465 0.03541 0.71129 0.0
C359 C 0.59098 0.04637 0.81686 0.0
C360 C 0.6206 0.02426 0.76673 0.0
C361 C 0.55783 0.06116 0.75196 0.0
O362 O 0.47255 0.00651 0.69898 0.0
O363 O 0.49041 0.04193 0.72198 0.0
C364 C 0.47253 0.02677 0.72716 0.0
O365 O 0.51924 0.05188 0.60234 0.0
O366 O 0.46888 0.96682 0.61341 0.0
O367 O 0.47762 0.98574 0.531 0.0
O368 O 0.48422 0.03266 0.58348 0.0
C369 C 0.49905 0.05008 0.57181 0.0
O370 O 0.5541 0.01707 0.63259 0.0
O371 O 0.5294 0.99398 0.57093 0.0
O372 O 0.51252 0.97227 0.68585 0.0
O373 O 0.55039 0.06582 0.69622 0.0
O374 O 0.54322 0.0469 0.77944 0.0
O375 O 0.53196 1.00005 0.74625 0.0
C376 C 0.43753 0.98078 0.5505 0.0
C377 C 0.42986 0.98982 0.49357 0.0
C378 C 0.40666 1.00194 0.59906 0.0
C379 C 0.41183 0.00593 0.49007 0.0
C380 C 0.42477 0.98589 0.60265 0.0
C381 C 0.40102 0.01308 0.54334 0.0
C382 C 0.46189 0.97254 0.55794 0.0
C383 C 0.55054 1.00319 0.58514 0.0
H384 H 0.59038 0.0573 0.66318 0.0
H385 H 0.6144 0.02301 0.86389 0.0
H386 H 0.62296 0.03061 0.66967 0.0
H387 H 0.58132 0.04942 0.85768 0.0
H388 H 0.43931 0.98619 0.45272 0.0
H389 H 0.39842 0.00698 0.64066 0.0
H390 H 0.40729 0.01386 0.44618 0.0
H391 H 0.43009 0.97921 0.64739 0.0
Eu392 Eu 0.49731 0.5156 0.68141 0.0
Eu393 Eu 0.54279 0.50498 0.59962 0.0
C394 C 0.55022 0.5217 0.73789 0.0
C395 C 0.44815 0.54229 0.77799 0.0
C396 C 0.45388 0.54501 0.8406 0.0
C397 C 0.41792 0.57137 0.78591 0.0
C398 C 0.44181 0.56082 0.87541 0.0
C399 C 0.42993 0.55549 0.75112 0.0
C400 C 0.4237 0.57415 0.84844 0.0
C401 C 0.45958 0.52444 0.74161 0.0
O402 O 0.53662 0.47104 0.65292 0.0
O403 O 0.49926 0.47609 0.68708 0.0
C404 C 0.51766 0.46303 0.68014 0.0
O405 O 0.48312 0.50864 0.58414 0.0
O406 O 0.57998 0.49661 0.59997 0.0
O407 O 0.5616 0.50519 0.5145 0.0
O408 O 0.51283 0.48787 0.5445 0.0
C409 C 0.49117 0.49536 0.54105 0.0
O410 O 0.51252 0.55149 0.65479 0.0
O411 O 0.52949 0.54024 0.56692 0.0
O412 O 0.55599 0.52596 0.68137 0.0
O413 O 0.46168 0.52871 0.68348 0.0
O414 O 0.47793 0.51416 0.7657 0.0
O415 O 0.52859 0.51486 0.7498 0.0
C416 C 0.59294 0.47844 0.51148 0.0
C417 C 0.58179 0.4654 0.46395 0.0
C418 C 0.62711 0.45388 0.50677 0.0
C419 C 0.59321 0.44675 0.43815 0.0
C420 C 0.61576 0.47269 0.53224 0.0
C421 C 0.61591 0.44072 0.45956 0.0
C422 C 0.58109 0.49782 0.54064 0.0
C423 C 0.52111 0.55671 0.60103 0.0
H424 H 0.46761 0.53488 0.8629 0.0
H425 H 0.40396 0.58133 0.76402 0.0
H426 H 0.44695 0.56289 0.92329 0.0
H427 H 0.42481 0.55339 0.70322 0.0
H428 H 0.56415 0.46935 0.44721 0.0
H429 H 0.6446 0.44959 0.524 0.0
H430 H 0.58397 0.43662 0.40255 0.0
H431 H 0.6247 0.4826 0.56873 0.0
Eu432 Eu 0.02179 0.52478 0.64661 0.0
Eu433 Eu 0.99244 0.491 0.73354 0.0
C434 C 0.04836 0.48959 0.74162 0.0
C435 C 0.07588 0.54859 0.58238 0.0
C436 C 0.08904 0.54039 0.63361 0.0
C437 C 0.10704 0.53735 0.51716 0.0
C438 C 0.11037 0.52951 0.62615 0.0
C439 C 0.08559 0.54809 0.52458 0.0
C440 C 0.11888 0.52677 0.56741 0.0
C441 C 0.05049 0.55199 0.58706 0.0
O442 O 1.00642 0.52214 0.78839 0.0
O443 O 1.00331 0.54868 0.71209 0.0
C444 C 1.00421 0.54394 0.7709 0.0
O445 O 0.98638 0.52224 0.59768 0.0
O446 O 0.98664 0.47683 0.82509 0.0
O447 O 0.96022 0.47085 0.75276 0.0
O448 O 0.96541 0.51332 0.68181 0.0
C449 C 0.96611 0.51931 0.62374 0.0
O450 O 0.02545 0.48853 0.60286 0.0
O451 O 0.9963 0.46779 0.65178 0.0
O452 O 0.02909 0.47621 0.74191 0.0
O453 O 0.03716 0.53575 0.5606 0.0
O454 O 0.04344 0.55695 0.64133 0.0
O455 O 0.04783 0.51086 0.71828 0.0
C456 C 0.94742 0.48653 0.84361 0.0
C457 C 0.95477 0.50863 0.86679 0.0
C458 C 0.90673 0.49767 0.85212 0.0
C459 C 0.93836 0.52535 0.88012 0.0
C460 C 0.92324 0.48096 0.83803 0.0
C461 C 0.91413 0.52034 0.87139 0.0
C462 C 0.96439 0.47233 0.81166 0.0
C463 C 0.01165 0.46957 0.60822 0.0
H464 H 0.082 0.54056 0.6789 0.0
H465 H 0.11357 0.53595 0.47149 0.0
H466 H 0.1191 0.52155 0.66564 0.0
H467 H 0.07572 0.55426 0.48457 0.0
H468 H 0.97326 0.51369 0.87099 0.0
H469 H 0.88818 0.49301 0.84633 0.0
H470 H 0.9448 0.54262 0.89431 0.0
H471 H 0.91713 0.46421 0.81944 0.0
H472 H 0.14305 0.05056 0.31683 0.0
H473 H 0.17555 0.98388 0.35905 0.0
H474 H 0.14771 0.97681 0.44016 0.0
H475 H 0.12847 0.06705 0.4676 0.0
H476 H 0.09953 0.07749 0.44768 0.0
H477 H 0.12207 0.07852 0.39192 0.0
H478 H 0.0949 0.05512 0.31741 0.0
H479 H 0.07199 0.05253 0.37234 0.0
H480 H 0.08333 0.02661 0.33922 0.0
H481 H 0.11727 0.97671 0.52012 0.0
H482 H 0.0843 0.98219 0.58753 0.0
H483 H 0.06786 0.04727 0.49284 0.0
C484 C 0.14434 0.03433 0.34254 0.0
C485 C 0.16255 0.0182 0.33127 0.0
C486 C 0.1629 0.99723 0.36698 0.0
C487 C 0.14681 0.99282 0.41336 0.0
C488 C 0.1297 0.00919 0.42394 0.0
C489 C 0.12798 0.02936 0.38895 0.0
C490 C 0.10691 0.04335 0.40861 0.0
C491 C 0.11473 0.06807 0.43023 0.0
C492 C 0.08819 0.0445 0.35622 0.0
C493 C 0.09779 0.02834 0.46153 0.0
C494 C 0.11126 0.00865 0.46901 0.0
C495 C 0.10657 0.99203 0.51438 0.0
C496 C 0.08767 0.99538 0.55283 0.0
C497 C 0.07316 0.0152 0.54643 0.0
C498 C 0.07847 0.03193 0.49964 0.0
H499 H 0.52789 0.15308 0.33192 0.0
H500 H 0.4545 0.14994 0.26973 0.0
H501 H 0.44654 0.11874 0.34646 0.0
H502 H 0.53437 0.0914 0.35899 0.0
H503 H 0.5533 0.09546 0.42628 0.0
H504 H 0.5529 0.1175 0.36689 0.0
H505 H 0.54293 0.14894 0.44608 0.0
H506 H 0.54327 0.12697 0.5057 0.0
H507 H 0.51757 0.14437 0.49226 0.0
H508 H 0.44732 0.08611 0.42906 0.0
H509 H 0.45625 0.05723 0.51134 0.0
H510 H 0.52892 0.08293 0.52049 0.0
C511 C 0.51015 0.14574 0.33392 0.0
C512 C 0.49186 0.15396 0.29404 0.0
C513 C 0.46882 0.14411 0.29962 0.0
C514 C 0.46415 0.12627 0.34301 0.0
C515 C 0.48266 0.11851 0.38122 0.0
C516 C 0.50517 0.12812 0.37724 0.0
C517 C 0.52198 0.11704 0.4239 0.0
C518 C 0.54181 0.10461 0.39211 0.0
C519 C 0.53202 0.13543 0.46969 0.0
C520 C 0.50556 0.0995 0.45454 0.0
C521 C 0.48294 0.10049 0.42927 0.0
C522 C 0.46494 0.0854 0.44934 0.0
C523 C 0.4702 0.06899 0.49617 0.0
C524 C 0.49326 0.06781 0.52307 0.0
C525 C 0.51103 0.08344 0.50168 0.0
H526 H 0.37554 0.50026 0.3177 0.0
H527 H 0.41363 0.46143 0.18504 0.0
H528 H 0.44816 0.4607 0.25697 0.0
H529 H 0.42583 0.53627 0.37412 0.0
H530 H 0.41644 0.53574 0.45192 0.0
H531 H 0.39492 0.53354 0.38947 0.0
H532 H 0.37832 0.49477 0.43553 0.0
H533 H 0.39993 0.49673 0.49779 0.0
H534 H 0.39781 0.47084 0.45086 0.0
H535 H 0.47851 0.4633 0.34511 0.0
H536 H 0.50262 0.47048 0.43969 0.0
H537 H 0.44521 0.50834 0.51474 0.0
C538 C 0.39125 0.49195 0.30308 0.0
C539 C 0.39166 0.48089 0.24515 0.0
C540 C 0.41258 0.46982 0.22908 0.0
C541 C 0.43239 0.46938 0.26967 0.0
C542 C 0.43122 0.48014 0.32652 0.0
C543 C 0.41123 0.49138 0.34306 0.0
C544 C 0.41448 0.50147 0.4071 0.0
C545 C 0.41282 0.52835 0.40554 0.0
C546 C 0.39657 0.49028 0.45036 0.0
C547 C 0.43939 0.49408 0.42413 0.0
C548 C 0.4487 0.48175 0.37702 0.0
C549 C 0.47137 0.473 0.38215 0.0
C550 C 0.48494 0.47713 0.43635 0.0
C551 C 0.47595 0.48998 0.48521 0.0
C552 C 0.45272 0.49842 0.47866 0.0
H553 H 0.04711 0.39594 0.30961 0.0
H554 H 1.00215 0.33941 0.37828 0.0
H555 H 0.99277 0.36386 0.46537 0.0
H556 H 0.07095 0.41457 0.45833 0.0
H557 H 0.07156 0.44542 0.43958 0.0
H558 H 0.07447 0.42403 0.38031 0.0
H559 H 0.0391 0.44149 0.31952 0.0
H560 H 0.03616 0.46299 0.37852 0.0
H561 H 0.01138 0.44413 0.356 0.0
H562 H 0.98848 0.39358 0.54685 0.0
H563 H 0.98874 0.42701 0.61665 0.0
H564 H 0.03712 0.46545 0.50068 0.0
C565 C 0.03531 0.38858 0.34287 0.0
C566 C 0.02519 0.36549 0.33548 0.0
C567 C 0.00974 0.35702 0.38075 0.0
C568 C 1.00446 0.37077 0.43125 0.0
C569 C 0.01476 0.39318 0.43705 0.0
C570 C 0.02986 0.40214 0.39421 0.0
C571 C 0.03859 0.42686 0.41234 0.0
C572 C 0.06549 0.42777 0.42328 0.0
C573 C 0.03084 0.44494 0.36369 0.0
C574 C 0.026 0.4303 0.472 0.0
C575 C 0.0124 0.41052 0.485 0.0
C576 C 0.99905 0.40916 0.53702 0.0
C577 C 0.99935 0.42843 0.57663 0.0
C578 C 0.01292 0.4492 0.5649 0.0
C579 C 0.02657 0.44996 0.51156 0.0
H580 H 0.89004 1.00011 0.02387 0.0
H581 H 0.83063 0.01928 0.90516 0.0
H582 H 0.8567 0.02227 0.81799 0.0
H583 H 0.93337 0.03888 0.95234 0.0
H584 H 0.95694 0.01846 0.96035 0.0
H585 H 0.93372 0.01783 0.01428 0.0
H586 H 0.92522 0.9739 0.99096 0.0
H587 H 0.94836 0.97443 0.93681 0.0
H588 H 0.91893 0.96488 0.91309 0.0
H589 H 0.88914 0.02221 0.74105 0.0
H590 H 0.92544 0.02116 0.68285 0.0
H591 H 0.96503 1.00284 0.84908 0.0
C592 C 0.88246 1.00495 0.9796 0.0
C593 C 0.85796 0.00968 0.97253 0.0
C594 C 0.84917 0.01603 0.91316 0.0
C595 C 0.86391 0.01758 0.86277 0.0
C596 C 0.88778 0.01285 0.87135 0.0
C597 C 0.89709 0.00681 0.92839 0.0
C598 C 0.92353 1.00291 0.92482 0.0
C599 C 0.93772 0.02057 0.96536 0.0
C600 C 0.92935 0.97752 0.94248 0.0
C601 C 0.92755 0.00761 0.85702 0.0
C602 C 0.90659 0.01317 0.82708 0.0
C603 C 0.90563 0.01794 0.76429 0.0
C604 C 0.92648 0.01723 0.73135 0.0
C605 C 0.94843 0.01192 0.76061 0.0
C606 C 0.94873 0.007 0.82472 0.0
H607 H 0.50017 0.86519 0.94606 0.0
H608 H 0.5665 0.88052 0.0441 0.0
H609 H 0.57427 0.91368 0.97292 0.0
H610 H 0.52098 0.87882 0.79382 0.0
H611 H 0.49355 0.8913 0.76787 0.0
H612 H 0.49369 0.86854 0.8255 0.0
H613 H 0.47187 0.89549 0.89803 0.0
H614 H 0.47165 0.9183 0.84065 0.0
H615 H 0.48426 0.9242 0.916 0.0
H616 H 0.57297 0.94755 0.89475 0.0
H617 H 0.56416 0.97688 0.81351 0.0
H618 H 0.49974 0.93796 0.76309 0.0
C619 C 0.51636 0.87551 0.95267 0.0
C620 C 0.53266 0.87024 1.00124 0.0
C621 C 0.55378 0.88405 1.00732 0.0
C622 C 0.55828 0.90301 0.96715 0.0
C623 C 0.54167 0.90785 0.92031 0.0
C624 C 0.52125 0.89427 0.91253 0.0
C625 C 0.50621 0.90304 0.85866 0.0
C626 C 0.50345 0.88431 0.80849 0.0
C627 C 0.48207 0.91071 0.87961 0.0
C628 C 0.5211 0.92394 0.83776 0.0
C629 C 0.54145 0.92654 0.87407 0.0
C630 C 0.55725 0.94542 0.86563 0.0
C631 C 0.55208 0.96205 0.81936 0.0
C632 C 0.53142 0.95962 0.78119 0.0
C633 C 0.51593 0.94009 0.79047 0.0
H634 H 0.61673 0.53821 0.07 0.0
H635 H 0.67839 0.51132 0.98595 0.0
H636 H 0.65565 0.50641 0.88871 0.0
H637 H 0.57383 0.49861 0.98915 0.0
H638 H 0.5516 0.52045 0.98086 0.0
H639 H 0.57243 0.52156 0.04505 0.0
H640 H 0.58457 0.56415 0.0156 0.0
H641 H 0.56389 0.56312 0.95111 0.0
H642 H 0.59452 0.57032 0.9397 0.0
H643 H 0.62789 0.5073 0.79865 0.0
H644 H 0.59515 0.50959 0.72243 0.0
H645 H 0.54925 0.53311 0.86242 0.0
C646 C 0.62534 0.53109 0.03121 0.0
C647 C 0.64944 0.52497 0.03611 0.0
C648 C 0.65997 0.51574 0.98408 0.0
C649 C 0.64721 0.51306 0.92831 0.0
C650 C 0.6237 0.5194 0.92486 0.0
C651 C 0.61265 0.52787 0.97497 0.0
C652 C 0.58699 0.53305 0.95815 0.0
C653 C 0.57022 0.51749 0.99553 0.0
C654 C 0.58222 0.55922 0.96665 0.0
C655 C 0.58552 0.52642 0.89067 0.0
C656 C 0.6071 0.51889 0.87268 0.0
C657 C 0.61084 0.5129 0.81235 0.0
C658 C 0.59209 0.51442 0.7692 0.0
C659 C 0.56954 0.52149 0.78612 0.0
C660 C 0.5662 0.52746 0.84806 0.0
H661 H 0.96978 0.65793 0.96379 0.0
H662 H 0.02632 0.63991 0.09307 0.0
H663 H 0.03565 0.60627 0.02874 0.0
H664 H 0.95114 0.59754 0.92451 0.0
H665 H 0.94484 0.60464 0.84538 0.0
H666 H 0.94225 0.6267 0.90312 0.0
H667 H 0.97112 0.65387 0.84383 0.0
H668 H 0.9741 0.63144 0.78725 0.0
H669 H 0.99989 0.64353 0.82744 0.0
H670 H 0.03817 0.57364 0.95275 0.0
H671 H 0.03484 0.54517 0.86831 0.0
H672 H 0.97814 0.58452 0.78296 0.0
C673 C 0.98401 0.64679 0.97892 0.0
C674 C 0.9973 0.65175 0.03409 0.0
C675 C 0.01598 0.6368 0.05118 0.0
C676 C 0.02136 0.61752 0.01491 0.0
C677 C 0.00807 0.61326 0.96094 0.0
C678 C 0.9898 0.62748 0.94273 0.0
C679 C 0.97861 0.61911 0.88185 0.0
C680 C 0.95266 0.61157 0.88918 0.0
C681 C 0.98108 0.63813 0.83215 0.0
C682 C 0.99348 0.59802 0.86866 0.0
C683 C 0.01018 0.5949 0.91546 0.0
C684 C 0.02531 0.57609 0.91568 0.0
C685 C 0.02326 0.55996 0.86738 0.0
C686 C 1.0065 0.56272 0.81839 0.0
C687 C 0.9915 0.5822 0.81893 0.0
H688 H 0.1289 0.19285 0.37553 0.0
H689 H 0.1253 0.17498 0.18294 0.0
H690 H 0.10995 0.13586 0.20812 0.0
H691 H 0.13232 0.12849 0.44154 0.0
H692 H 0.11264 0.13637 0.50022 0.0
H693 H 0.13396 0.15767 0.47299 0.0
H694 H 0.10017 0.1863 0.44906 0.0
H695 H 0.0788 0.16506 0.47428 0.0
H696 H 0.07601 0.17713 0.39802 0.0
H697 H 0.08308 0.10491 0.24693 0.0
H698 H 0.05071 0.08389 0.29736 0.0
H699 H 0.06552 0.12543 0.46086 0.0
C700 C 0.12586 0.18034 0.33893 0.0
C701 C 0.12787 0.1874 0.27728 0.0
C702 C 0.12415 0.1703 0.23079 0.0
C703 C 0.11518 0.14784 0.24465 0.0
C704 C 0.11009 0.14263 0.3051 0.0
C705 C 0.11581 0.15826 0.35194 0.0
C706 C 0.10369 0.15116 0.41001 0.0
C707 C 0.12173 0.14293 0.45909 0.0
C708 C 0.08878 0.17108 0.43413 0.0
C709 C 0.08841 0.13077 0.3866 0.0
C710 C 0.09316 0.12535 0.32705 0.0
C711 C 0.07961 0.10864 0.29412 0.0
C712 C 0.06083 0.09715 0.32286 0.0
C713 C 0.0553 0.10277 0.38364 0.0
C714 C 0.06951 0.11984 0.41541 0.0
H715 H 0.35308 0.12048 0.3711 0.0
H716 H 0.28565 0.09749 0.43928 0.0
H717 H 0.30553 0.07858 0.52656 0.0
H718 H 0.37445 0.07147 0.37407 0.0
H719 H 0.40474 0.07754 0.39746 0.0
H720 H 0.38782 0.10015 0.36192 0.0
H721 H 0.39593 0.12763 0.45386 0.0
H722 H 0.41389 0.1055 0.48993 0.0
H723 H 0.38992 0.11749 0.5301 0.0
H724 H 0.33024 0.04947 0.5776 0.0
H725 H 0.35772 0.01693 0.59324 0.0
H726 H 0.4096 0.05504 0.48824 0.0
C727 C 0.34258 0.11263 0.40656 0.0
C728 C 0.31792 0.11002 0.39756 0.0
C729 C 0.30458 0.09985 0.44483 0.0
C730 C 0.31583 0.08882 0.4948 0.0
C731 C 0.34037 0.08832 0.49712 0.0
C732 C 0.35372 0.10064 0.45509 0.0
C733 C 0.37899 0.09271 0.45743 0.0
C734 C 0.38691 0.085 0.39402 0.0
C735 C 0.39566 0.11198 0.48447 0.0
C736 C 0.37693 0.07214 0.50112 0.0
C737 C 0.3549 0.07055 0.52588 0.0
C738 C 0.34782 0.051 0.5603 0.0
C739 C 0.36341 0.0325 0.56854 0.0
C740 C 0.38555 0.0335 0.54124 0.0
C741 C 0.39263 0.0539 0.50918 0.0
H742 H 0.61581 0.34325 0.21563 0.0
H743 H 0.63267 0.29537 0.36443 0.0
H744 H 0.64624 0.32891 0.42875 0.0
H745 H 0.66305 0.39166 0.25759 0.0
H746 H 0.64233 0.41383 0.23555 0.0
H747 H 0.64192 0.38629 0.19537 0.0
H748 H 0.59772 0.38023 0.21773 0.0
H749 H 0.59801 0.40731 0.25872 0.0
H750 H 0.58868 0.38047 0.29589 0.0
H751 H 0.64782 0.36683 0.48365 0.0
H752 H 0.63698 0.40524 0.52386 0.0
H753 H 0.61855 0.42868 0.33988 0.0
C754 C 0.62371 0.33974 0.26045 0.0
C755 C 0.62352 0.31677 0.28488 0.0
C756 C 0.6329 0.31287 0.3448 0.0
C757 C 0.64075 0.33182 0.38147 0.0
C758 C 0.63924 0.35448 0.35732 0.0
C759 C 0.63126 0.35848 0.29767 0.0
C760 C 0.62696 0.38424 0.28602 0.0
C761 C 0.64462 0.39462 0.24097 0.0
C762 C 0.60134 0.38826 0.26334 0.0
C763 C 0.63179 0.39381 0.3496 0.0
C764 C 0.63968 0.3766 0.38966 0.0
C765 C 0.64238 0.38062 0.4524 0.0
C766 C 0.63617 0.40248 0.47489 0.0
C767 C 0.627 0.41984 0.43478 0.0
C768 C 0.62567 0.41569 0.37131 0.0
H769 H 0.18743 0.44123 0.36738 0.0
H770 H 0.2477 0.45224 0.4923 0.0
H771 H 0.22192 0.46947 0.56721 0.0
H772 H 0.16506 0.49163 0.38126 0.0
H773 H 0.13414 0.48349 0.37896 0.0
H774 H 0.15465 0.46495 0.34404 0.0
H775 H 0.14122 0.42947 0.40994 0.0
H776 H 0.11984 0.44766 0.44378 0.0
H777 H 0.14078 0.43225 0.49192 0.0
H778 H 0.19245 0.49485 0.61422 0.0
H779 H 0.16064 0.52229 0.63409 0.0
H780 H 0.11981 0.49383 0.47888 0.0
C781 C 0.195 0.44583 0.41198 0.0
C782 C 0.21954 0.44548 0.42394 0.0
C783 C 0.2289 0.4525 0.48211 0.0
C784 C 0.21438 0.46222 0.52505 0.0
C785 C 0.1905 0.46425 0.50953 0.0
C786 C 0.18073 0.45555 0.45504 0.0
C787 C 0.15559 0.46306 0.44457 0.0
C788 C 0.15221 0.47659 0.38366 0.0
C789 C 0.13834 0.44185 0.44778 0.0
C790 C 0.15346 0.47893 0.49881 0.0
C791 C 0.17347 0.47901 0.53671 0.0
C792 C 0.17641 0.4944 0.58592 0.0
C793 C 0.15839 0.51004 0.59657 0.0
C794 C 0.13798 0.51034 0.55747 0.0
C795 C 0.1354 0.49423 0.50895 0.0
H796 H 0.95202 0.84435 0.84827 0.0
H797 H 0.99515 0.78324 0.85318 0.0
H798 H 0.02254 0.8026 0.78305 0.0
H799 H 0.97134 0.86579 0.67919 0.0
H800 H 0.96991 0.89562 0.70516 0.0
H801 H 0.94866 0.87376 0.72999 0.0
H802 H 0.95969 0.88438 0.84252 0.0
H803 H 0.98111 0.90565 0.81845 0.0
H804 H 0.98994 0.88239 0.86996 0.0
H805 H 0.05189 0.83264 0.75381 0.0
H806 H 0.07709 0.86897 0.75406 0.0
H807 H 0.01503 0.91062 0.7626 0.0
C808 C 0.96627 0.83459 0.83037 0.0
C809 C 0.97153 0.81244 0.85509 0.0
C810 C 0.99069 0.8001 0.83342 0.0
C811 C 1.00638 0.81104 0.79367 0.0
C812 C 1.00221 0.83403 0.77483 0.0
C813 C 0.98192 0.84533 0.79016 0.0
C814 C 0.98363 0.87122 0.77456 0.0
C815 C 0.96742 0.87692 0.71891 0.0
C816 C 0.97833 0.88677 0.82968 0.0
C817 C 0.00916 0.87329 0.75793 0.0
C818 C 0.01941 0.85161 0.75555 0.0
C819 C 0.04387 0.84963 0.75245 0.0
C820 C 0.0581 0.87023 0.75312 0.0
C821 C 0.04768 0.89226 0.75708 0.0
C822 C 0.02305 0.89378 0.75742 0.0
H823 H 0.66768 0.91477 0.93061 0.0
H824 H 0.7352 0.93788 0.86341 0.0
H825 H 0.71542 0.95771 0.77742 0.0
H826 H 0.63056 0.91989 0.77172 0.0
H827 H 0.60684 0.9316 0.81342 0.0
H828 H 0.62459 0.90881 0.84714 0.0
H829 H 0.63307 0.93504 0.94138 0.0
H830 H 0.61647 0.95831 0.90795 0.0
H831 H 0.64685 0.96369 0.93162 0.0
H832 H 0.69102 0.98769 0.72918 0.0
H833 H 0.66391 0.0207 0.71657 0.0
H834 H 0.6118 0.98192 0.81929 0.0
C835 C 0.67819 0.92281 0.89545 0.0
C836 C 0.70285 0.92524 0.90454 0.0
C837 C 0.71625 0.93568 0.85776 0.0
C838 C 0.70506 0.94724 0.80856 0.0
C839 C 0.68054 0.94797 0.80652 0.0
C840 C 0.6671 0.93532 0.84779 0.0
C841 C 0.64194 0.94357 0.84646 0.0
C842 C 0.62498 0.92485 0.81795 0.0
C843 C 0.63419 0.95058 0.9106 0.0
C844 C 0.64423 0.96464 0.80456 0.0
C845 C 0.66621 0.96627 0.77953 0.0
C846 C 0.67348 0.98616 0.74669 0.0
C847 C 0.65812 1.00493 0.74026 0.0
C848 C 0.63604 1.00384 0.76786 0.0
C849 C 0.62876 0.98315 0.79833 0.0
H850 H 0.40944 0.70378 0.94271 0.0
H851 H 0.40604 0.67635 0.1279 0.0
H852 H 0.39443 0.63766 0.08764 0.0
H853 H 0.36454 0.6595 0.86532 0.0
H854 H 0.38297 0.65788 0.8003 0.0
H855 H 0.38129 0.68507 0.84139 0.0
H856 H 0.42672 0.68636 0.85704 0.0
H857 H 0.42854 0.65923 0.81699 0.0
H858 H 0.44104 0.66187 0.89371 0.0
H859 H 0.39538 0.60071 0.03176 0.0
H860 H 0.40789 0.56919 0.9647 0.0
H861 H 0.41408 0.6192 0.81554 0.0
C862 C 0.40545 0.68983 0.97483 0.0
C863 C 0.40883 0.69327 0.03851 0.0
C864 C 0.40323 0.67454 0.07895 0.0
C865 C 0.39666 0.6523 0.05639 0.0
C866 C 0.39567 0.64898 0.99332 0.0
C867 C 0.39957 0.66735 0.95291 0.0
C868 C 0.4024 0.65848 0.88855 0.0
C869 C 0.38155 0.66565 0.8464 0.0
C870 C 0.42608 0.66697 0.86266 0.0
C871 C 0.40175 0.63227 0.90024 0.0
C872 C 0.3969 0.62713 0.96044 0.0
C873 C 0.39851 0.60443 0.98413 0.0
C874 C 0.4059 0.58669 0.94594 0.0
C875 C 0.41191 0.59181 0.88499 0.0
C876 C 0.40899 0.61471 0.86146 0.0
H877 H 0.85186 0.61111 0.07283 0.0
H878 H 0.78954 0.59635 0.95774 0.0
H879 H 0.81429 0.58126 0.87817 0.0
H880 H 0.89785 0.61769 0.94454 0.0
H881 H 0.91831 0.60218 0.994 0.0
H882 H 0.89746 0.62132 0.02629 0.0
H883 H 0.88397 0.58621 0.09443 0.0
H884 H 0.90365 0.56699 0.05881 0.0
H885 H 0.87256 0.55967 0.05833 0.0
H886 H 0.8429 0.5571 0.82657 0.0
H887 H 0.87309 0.52844 0.80479 0.0
H888 H 0.91583 0.55421 0.96011 0.0
C889 C 0.84358 0.60576 0.02958 0.0
C890 C 0.81878 0.60474 0.02184 0.0
C891 C 0.8085 0.59764 0.96472 0.0
C892 C 0.82249 0.58883 0.91919 0.0
C893 C 0.84667 0.58736 0.93141 0.0
C894 C 0.85724 0.59606 0.98497 0.0
C895 C 0.88224 0.58777 0.99385 0.0
C896 C 0.90001 0.60848 0.98931 0.0
C897 C 0.88577 0.57436 0.0549 0.0
C898 C 0.88343 0.57159 0.93964 0.0
C899 C 0.8631 0.57222 0.90299 0.0
C900 C 0.85911 0.55686 0.85415 0.0
C901 C 0.87619 0.54033 0.84283 0.0
C902 C 0.89681 0.5389 0.88105 0.0
C903 C 0.90055 0.55512 0.92923 0.0
H904 H 0.058 0.17032 0.93528 0.0
H905 H 0.98793 0.19719 0.90332 0.0
H906 H 0.97745 0.16314 0.83738 0.0
H907 H 0.06518 0.147 0.78414 0.0
H908 H 0.08013 0.12115 0.81062 0.0
H909 H 0.08237 0.14766 0.85511 0.0
H910 H 0.06704 0.12495 0.94913 0.0
H911 H 0.0648 0.09836 0.90496 0.0
H912 H 0.03939 0.10867 0.94249 0.0
H913 H 0.9749 0.12702 0.77142 0.0
H914 H 0.97909 0.09009 0.7162 0.0
H915 H 0.05028 0.08428 0.79309 0.0
C916 C 0.04046 0.16909 0.91422 0.0
C917 C 0.0238 0.1867 0.92461 0.0
C918 C 1.00097 0.18405 0.89671 0.0
C919 C 0.9949 0.16476 0.85882 0.0
C920 C 0.0117 0.14786 0.84942 0.0
C921 C 0.03396 0.14965 0.87682 0.0
C922 C 0.04845 0.12861 0.86016 0.0
C923 C 0.07033 0.13659 0.82545 0.0
C924 C 0.05533 0.1143 0.91761 0.0
C925 C 0.03095 0.11483 0.81862 0.0
C926 C 0.00994 0.12646 0.81288 0.0
C927 C 0.99123 0.11774 0.77597 0.0
C928 C 0.99388 0.09665 0.74441 0.0
C929 C 0.01503 0.08396 0.7498 0.0
C930 C 0.03382 0.09332 0.78788 0.0
H931 H 0.34993 1.00369 0.90355 0.0
H932 H 0.35425 0.07728 0.9529 0.0
H933 H 0.39135 0.08208 0.8987 0.0
H934 H 0.41268 0.99287 0.91557 0.0
H935 H 0.41269 0.97411 0.84961 0.0
H936 H 0.38649 0.97599 0.89303 0.0
H937 H 0.36267 0.98767 0.79478 0.0
H938 H 0.38884 0.98573 0.75123 0.0
H939 H 0.37264 0.01246 0.75001 0.0
H940 H 0.42893 0.07918 0.84046 0.0
H941 H 0.46281 0.06907 0.77928 0.0
H942 H 0.43458 0.99777 0.76162 0.0
C943 C 0.35873 0.02078 0.90306 0.0
C944 C 0.34882 0.04016 0.93284 0.0
C945 C 0.36106 0.0622 0.93029 0.0
C946 C 0.38233 0.0651 0.89965 0.0
C947 C 0.39149 0.04587 0.87052 0.0
C948 C 0.38002 0.02414 0.87139 0.0
C949 C 0.39359 0.00659 0.83469 0.0
C950 C 0.40185 0.98618 0.87568 0.0
C951 C 0.37853 0.99758 0.77941 0.0
C952 C 0.41451 0.02177 0.814 0.0
C953 C 0.41293 0.04436 0.83547 0.0
C954 C 0.43023 0.06153 0.82328 0.0
C955 C 0.44956 0.05558 0.78835 0.0
C956 C 0.45171 0.03262 0.765 0.0
C957 C 0.43369 0.01555 0.77827 0.0
H958 H 0.49814 0.36061 0.93033 0.0
H959 H 0.52496 0.31226 0.79872 0.0
H960 H 0.52924 0.34464 0.72498 0.0
H961 H 0.46366 0.39438 0.81548 0.0
H962 H 0.46933 0.42188 0.85427 0.0
H963 H 0.46827 0.39484 0.89746 0.0
H964 H 0.50995 0.40444 0.9441 0.0
H965 H 0.51121 0.4314 0.90073 0.0
H966 H 0.53395 0.41026 0.89402 0.0
H967 H 0.53422 0.38316 0.66782 0.0
H968 H 0.53453 0.42387 0.62736 0.0
H969 H 0.50032 0.44684 0.78933 0.0
C970 C 0.5045 0.35659 0.88572 0.0
C971 C 0.51168 0.33357 0.87174 0.0
C972 C 0.52004 0.32961 0.81232 0.0
C973 C 0.52238 0.34796 0.76949 0.0
C974 C 0.51579 0.37039 0.78544 0.0
C975 C 0.50653 0.37471 0.84162 0.0
C976 C 0.50045 0.40047 0.8466 0.0
C977 C 0.47385 0.40304 0.85388 0.0
C978 C 0.51474 0.41234 0.89951 0.0
C979 C 0.50805 0.40994 0.78489 0.0
C980 C 0.51713 0.39231 0.75063 0.0
C981 C 0.52674 0.397 0.69381 0.0
C982 C 0.52692 0.4202 0.67121 0.0
C983 C 0.51712 0.43849 0.70455 0.0
C984 C 0.50747 0.43315 0.76211 0.0
H985 H 0.17581 0.49998 0.91457 0.0
H986 H 0.18093 0.42474 0.88921 0.0
H987 H 0.14234 0.42376 0.83505 0.0
H988 H 0.11507 0.50215 0.93653 0.0
H989 H 0.11016 0.52832 0.89161 0.0
H990 H 0.13864 0.52364 0.92783 0.0
H991 H 0.1582 0.52816 0.82327 0.0
H992 H 0.1298 0.53301 0.7866 0.0
H993 H 0.14788 0.50997 0.76018 0.0
H994 H 0.10098 0.42997 0.79242 0.0
H995 H 0.06271 0.44414 0.75132 0.0
H996 H 0.08571 0.51571 0.79236 0.0
C997 C 0.16916 0.48332 0.89671 0.0
C998 C 0.18156 0.46232 0.90852 0.0
C999 C 0.17175 0.44103 0.88371 0.0
C1000 C 0.14977 0.44026 0.85204 0.0
C1001 C 0.13775 0.46103 0.84336 0.0
C1002 C 0.14736 0.48228 0.86344 0.0
C1003 C 0.13085 0.50209 0.84659 0.0
C1004 C 0.12323 0.51479 0.90407 0.0
C1005 C 0.14237 0.51933 0.80148 0.0
C1006 C 0.11023 0.48852 0.81588 0.0
C1007 C 0.11454 0.46481 0.81485 0.0
C1008 C 0.09759 0.44856 0.79207 0.0
C1009 C 0.0758 0.45674 0.76915 0.0
C1010 C 0.07116 0.48101 0.76818 0.0
C1011 C 0.08877 0.49705 0.79177 0.0
H1012 H 0.97462 0.87344 0.34865 0.0
H1013 H 1.00518 0.82182 0.47238 0.0
H1014 H 0.01207 0.85254 0.55082 0.0
H1015 H 0.01461 0.92129 0.39127 0.0
H1016 H 0.99253 0.94333 0.38464 0.0
H1017 H 0.98962 0.91722 0.33879 0.0
H1018 H 0.94836 0.90845 0.3813 0.0
H1019 H 0.95118 0.93451 0.42743 0.0
H1020 H 0.94512 0.90644 0.46286 0.0
H1021 H 0.01562 0.88944 0.61698 0.0
H1022 H 0.01711 0.92905 0.66224 0.0
H1023 H 0.98452 0.95712 0.496 0.0
C1024 C 0.98259 0.86847 0.39238 0.0
C1025 C 0.98927 0.84491 0.40385 0.0
C1026 C 1.00006 0.83957 0.46169 0.0
C1027 C 1.00392 0.85696 0.50688 0.0
C1028 C 0.99709 0.87989 0.49401 0.0
C1029 C 0.98676 0.8857 0.43795 0.0
C1030 C 0.98157 0.91179 0.43514 0.0
C1031 C 0.99541 0.92413 0.38445 0.0
C1032 C 0.95497 0.91551 0.42615 0.0
C1033 C 0.99055 0.9198 0.4983 0.0
C1034 C 0.99933 0.90108 0.53167 0.0
C1035 C 0.00873 0.90414 0.59107 0.0
C1036 C 0.00942 0.9268 0.61666 0.0
C1037 C 1.00082 0.94645 0.58341 0.0
C1038 C 0.99114 0.94264 0.52326 0.0
H1039 H 0.67467 0.02611 0.41563 0.0
H1040 H 0.66511 0.9558 0.34284 0.0
H1041 H 0.62763 0.95105 0.39554 0.0
H1042 H 0.65107 0.0124 0.56658 0.0
H1043 H 0.63763 0.04058 0.57163 0.0
H1044 H 0.6634 0.03758 0.52743 0.0
H1045 H 0.63976 0.05548 0.43486 0.0
H1046 H 0.61388 0.05696 0.47967 0.0
H1047 H 0.61256 0.04122 0.40843 0.0
H1048 H 0.58999 0.95407 0.45342 0.0
H1049 H 0.55683 0.96355 0.51803 0.0
H1050 H 0.59094 0.03067 0.56228 0.0
C1051 C 0.66463 0.00976 0.41069 0.0
C1052 C 0.67312 0.99129 0.37466 0.0
C1053 C 0.65932 0.97016 0.37016 0.0
C1054 C 0.63784 0.96732 0.39992 0.0
C1055 C 0.63009 0.98563 0.43531 0.0
C1056 C 0.64314 0.0064 0.44144 0.0
C1057 C 0.6309 0.02297 0.48398 0.0
C1058 C 0.64669 0.02869 0.54081 0.0
C1059 C 0.62386 0.0455 0.44968 0.0
C1060 C 0.6091 0.00824 0.50085 0.0
C1061 C 0.60888 0.9869 0.47131 0.0
C1062 C 0.59016 0.97066 0.47719 0.0
C1063 C 0.57128 0.97623 0.51407 0.0
C1064 C 0.57111 0.99773 0.54618 0.0
C1065 C 0.59052 0.01389 0.53934 0.0
H1066 H 0.52825 0.66048 0.34971 0.0
H1067 H 0.52164 0.70992 0.49783 0.0
H1068 H 0.51997 0.67701 0.57132 0.0
H1069 H 0.48994 0.61551 0.40619 0.0
H1070 H 0.50753 0.59157 0.38291 0.0
H1071 H 0.50848 0.61898 0.34146 0.0
H1072 H 0.55377 0.62197 0.35928 0.0
H1073 H 0.55298 0.59447 0.40043 0.0
H1074 H 0.56624 0.62027 0.43614 0.0
H1075 H 0.51705 0.63816 0.62927 0.0
H1076 H 0.51599 0.5971 0.66679 0.0
H1077 H 0.52688 0.57284 0.48274 0.0
C1078 C 0.52687 0.66456 0.39765 0.0
C1079 C 0.52487 0.68814 0.41721 0.0
C1080 C 0.52271 0.69223 0.48074 0.0
C1081 C 0.52189 0.67356 0.52321 0.0
C1082 C 0.5235 0.65064 0.50217 0.0
C1083 C 0.52623 0.64609 0.44093 0.0
C1084 C 0.52762 0.6198 0.43033 0.0
C1085 C 0.50717 0.61095 0.3877 0.0
C1086 C 0.55158 0.61378 0.40505 0.0
C1087 C 0.52512 0.6103 0.49503 0.0
C1088 C 0.5226 0.62838 0.53576 0.0
C1089 C 0.51923 0.62391 0.59774 0.0
C1090 C 0.51858 0.60046 0.61869 0.0
C1091 C 0.52151 0.58158 0.5781 0.0
C1092 C 0.52483 0.58677 0.51534 0.0
H1093 H 0.82665 0.52991 0.53708 0.0
H1094 H 0.84519 0.51743 0.34963 0.0
H1095 H 0.88687 0.51479 0.38283 0.0
H1096 H 0.87814 0.565 0.58141 0.0
H1097 H 0.88156 0.55258 0.65715 0.0
H1098 H 0.85278 0.55338 0.61982 0.0
H1099 H 0.84753 0.50845 0.63448 0.0
H1100 H 0.87625 0.50763 0.67218 0.0
H1101 H 0.86942 0.48934 0.60664 0.0
H1102 H 0.92657 0.5159 0.43321 0.0
H1103 H 0.96224 0.51618 0.50007 0.0
H1104 H 0.91968 0.52535 0.65855 0.0
C1105 C 0.8395 0.52643 0.50324 0.0
C1106 C 0.83246 0.52365 0.44056 0.0
C1107 C 0.84991 0.51918 0.39784 0.0
C1108 C 0.87374 0.51785 0.41622 0.0
C1109 C 0.8801 0.52077 0.47785 0.0
C1110 C 0.86356 0.52459 0.52112 0.0
C1111 C 0.8755 0.52656 0.58468 0.0
C1112 C 0.87177 0.55083 0.61238 0.0
C1113 C 0.86664 0.50682 0.62699 0.0
C1114 C 0.90125 0.5235 0.56994 0.0
C1115 C 0.90334 0.52047 0.50779 0.0
C1116 C 0.92515 0.51805 0.48203 0.0
C1117 C 0.94541 0.51839 0.5206 0.0
C1118 C 0.94397 0.52081 0.58483 0.0
C1119 C 0.92145 0.5234 0.60975 0.0
loop_
_geom_bond_atom_site_label_1
_geom_bond_atom_site_label_2
_geom_bond_distance
_geom_bond_site_symmetry_2
_ccdc_geom_bond_type
C0 C1 1.386 . S
C0 C2 1.397 . S
C0 H24 0.931 1_554 S
C1 C0 1.386 . S
C1 C5 1.397 . S
C2 C0 1.397 . S
C2 C3 1.384 . S
C2 H25 0.930 . S
C3 C2 1.384 . S
C3 C4 1.377 . S
C3 C6 1.481 . S
C4 C3 1.377 . S
C4 C5 1.389 . S
C4 H26 0.929 . S
C5 C1 1.397 . S
C5 C4 1.389 . S
C5 H27 0.931 . S
C6 C3 1.481 . S
C6 C7 1.387 . S
C6 C11 1.390 . S
C7 C6 1.387 . S
C7 C8 1.401 . S
C7 H28 0.930 . S
C8 C7 1.401 . S
C8 C9 1.376 . S
C8 C17 1.511 . S
C9 C8 1.376 . S
C9 C10 1.392 . S
C9 H30 0.931 . S
C10 C9 1.392 . S
C10 C11 1.361 . S
C10 C12 1.500 . S
C11 C6 1.390 . S
C11 C10 1.361 . S
C11 H29 0.931 . S
C12 C10 1.500 . S
C12 C13 1.371 . S
C12 C14 1.365 . S
C13 C12 1.371 . S
C13 C23 1.386 . S
C13 H31 0.931 . S
C14 C12 1.365 . S
C14 C15 1.409 . S
C14 H32 0.929 . S
C15 C14 1.409 . S
C15 C16 1.380 . S
C15 H33 0.930 . S
C16 C15 1.380 . S
C16 C23 1.357 . S
C17 C8 1.511 . S
C17 C18 1.341 . S
C17 C19 1.371 . S
C18 C17 1.341 . S
C18 C22 1.394 . S
C18 H34 0.930 . S
C19 C17 1.371 . S
C19 C20 1.392 . S
C19 H35 0.931 . S
C20 C19 1.392 . S
C20 C21 1.331 . S
C20 H38 0.932 . S
C21 C20 1.331 . S
C21 C22 1.336 . S
C22 C18 1.394 . S
C22 C21 1.336 . S
C22 H37 0.929 . S
C23 C13 1.386 . S
C23 C16 1.357 . S
C23 H36 0.928 . S
H24 C0 0.931 1_556 S
H25 C2 0.930 . S
H26 C4 0.929 . S
H27 C5 0.931 . S
H28 C7 0.930 . S
H29 C11 0.931 . S
H30 C9 0.931 . S
H31 C13 0.931 . S
H32 C14 0.929 . S
H33 C15 0.930 . S
H34 C18 0.930 . S
H35 C19 0.931 . S
H36 C23 0.928 . S
H37 C22 0.929 . S
H38 C20 0.932 . S
C39 C40 1.386 . S
C39 C41 1.397 . S
C39 H63 0.931 . S
C40 C39 1.386 . S
C40 C44 1.397 . S
C41 C39 1.397 . S
C41 C42 1.384 . S
C41 H64 0.930 . S
C42 C41 1.384 . S
C42 C43 1.377 . S
C42 C45 1.481 . S
C43 C42 1.377 . S
C43 C44 1.389 . S
C43 H65 0.929 . S
C44 C40 1.397 . S
C44 C43 1.389 . S
C44 H66 0.931 . S
C45 C42 1.481 . S
C45 C46 1.387 . S
C45 C50 1.390 . S
C46 C45 1.387 . S
C46 C47 1.401 . S
C46 H67 0.930 . S
C47 C46 1.401 . S
C47 C48 1.376 . S
C47 C56 1.511 . S
C48 C47 1.376 . S
C48 C49 1.392 . S
C48 H69 0.931 . S
C49 C48 1.392 . S
C49 C50 1.361 . S
C49 C51 1.500 . S
C50 C45 1.390 . S
C50 C49 1.361 . S
C50 H68 0.931 . S
C51 C49 1.500 . S
C51 C52 1.371 . S
C51 C53 1.365 . S
C52 C51 1.371 . S
C52 C62 1.386 . S
C52 H70 0.931 . S
C53 C51 1.365 . S
C53 C54 1.409 . S
C53 H71 0.929 . S
C54 C53 1.409 . S
C54 C55 1.380 . S
C54 H72 0.930 . S
C55 C54 1.380 . S
C55 C62 1.357 . S
C56 C47 1.511 . S
C56 C57 1.341 . S
C56 C58 1.371 . S
C57 C56 1.341 . S
C57 C61 1.394 . S
C57 H73 0.930 . S
C58 C56 1.371 . S
C58 C59 1.392 . S
C58 H74 0.931 . S
C59 C58 1.392 . S
C59 C60 1.331 . S
C59 H77 0.932 . S
C60 C59 1.331 . S
C60 C61 1.336 . S
C61 C57 1.394 . S
C61 C60 1.336 . S
C61 H76 0.929 . S
C62 C52 1.386 . S
C62 C55 1.357 . S
C62 H75 0.928 . S
H63 C39 0.931 . S
H64 C41 0.930 . S
H65 C43 0.929 . S
H66 C44 0.931 . S
H67 C46 0.930 . S
H68 C50 0.931 . S
H69 C48 0.931 . S
H70 C52 0.931 . S
H71 C53 0.929 . S
H72 C54 0.930 . S
H73 C57 0.930 . S
H74 C58 0.931 . S
H75 C62 0.928 . S
H76 C61 0.929 . S
H77 C59 0.932 . S
C78 C79 1.386 . S
C78 C80 1.397 . S
C78 H102 0.931 . S
C79 C78 1.386 . S
C79 C83 1.397 . S
C80 C78 1.397 . S
C80 C81 1.384 . S
C80 H103 0.930 . S
C81 C80 1.384 . S
C81 C82 1.377 . S
C81 C84 1.481 . S
C82 C81 1.377 . S
C82 C83 1.389 . S
C82 H104 0.929 . S
C83 C79 1.397 . S
C83 C82 1.389 . S
C83 H105 0.931 . S
C84 C81 1.481 . S
C84 C85 1.387 . S
C84 C89 1.390 . S
C85 C84 1.387 . S
C85 C86 1.401 . S
C85 H106 0.930 . S
C86 C85 1.401 . S
C86 C87 1.376 . S
C86 C95 1.511 . S
C87 C86 1.376 . S
C87 C88 1.392 . S
C87 H108 0.931 . S
C88 C87 1.392 . S
C88 C89 1.361 . S
C88 C90 1.500 . S
C89 C84 1.390 . S
C89 C88 1.361 . S
C89 H107 0.931 . S
C90 C88 1.500 . S
C90 C91 1.371 . S
C90 C92 1.365 . S
C91 C90 1.371 . S
C91 C101 1.386 . S
C91 H109 0.931 . S
C92 C90 1.365 . S
C92 C93 1.409 . S
C92 H110 0.929 . S
C93 C92 1.409 . S
C93 C94 1.380 . S
C93 H111 0.930 . S
C94 C93 1.380 . S
C94 C101 1.357 . S
C95 C86 1.511 . S
C95 C96 1.341 . S
C95 C97 1.371 . S
C96 C95 1.341 . S
C96 C100 1.394 . S
C96 H112 0.930 . S
C97 C95 1.371 . S
C97 C98 1.392 . S
C97 H113 0.931 . S
C98 C97 1.392 . S
C98 C99 1.331 . S
C98 H116 0.932 . S
C99 C98 1.331 . S
C99 C100 1.336 . S
C100 C96 1.394 . S
C100 C99 1.336 . S
C100 H115 0.929 . S
C101 C91 1.386 . S
C101 C94 1.357 . S
C101 H114 0.928 . S
H102 C78 0.931 . S
H103 C80 0.930 . S
H104 C82 0.929 . S
H105 C83 0.931 . S
H106 C85 0.930 . S
H107 C89 0.931 . S
H108 C87 0.931 . S
H109 C91 0.931 . S
H110 C92 0.929 . S
H111 C93 0.930 . S
H112 C96 0.930 . S
H113 C97 0.931 . S
H114 C101 0.928 . S
H115 C100 0.929 . S
H116 C98 0.932 . S
C117 C118 1.386 . S
C117 C119 1.397 . S
C117 H141 0.931 . S
C118 C117 1.386 . S
C118 C122 1.397 . S
C119 C117 1.397 . S
C119 C120 1.384 . S
C119 H142 0.930 . S
C120 C119 1.384 . S
C120 C121 1.377 . S
C120 C123 1.481 . S
C121 C120 1.377 . S
C121 C122 1.389 . S
C121 H143 0.929 . S
C122 C118 1.397 . S
C122 C121 1.389 . S
C122 H144 0.931 . S
C123 C120 1.481 . S
C123 C124 1.387 . S
C123 C128 1.390 . S
C124 C123 1.387 . S
C124 C125 1.401 . S
C124 H145 0.930 . S
C125 C124 1.401 . S
C125 C126 1.376 . S
C125 C134 1.511 . S
C126 C125 1.376 . S
C126 C127 1.392 . S
C126 H147 0.931 . S
C127 C126 1.392 . S
C127 C128 1.361 . S
C127 C129 1.500 . S
C128 C123 1.390 . S
C128 C127 1.361 . S
C128 H146 0.931 . S
C129 C127 1.500 . S
C129 C130 1.371 . S
C129 C131 1.365 . S
C130 C129 1.371 . S
C130 C140 1.386 . S
C130 H148 0.931 . S
C131 C129 1.365 . S
C131 C132 1.409 . S
C131 H149 0.929 . S
C132 C131 1.409 . S
C132 C133 1.380 . S
C132 H150 0.930 . S
C133 C132 1.380 . S
C133 C140 1.357 . S
C134 C125 1.511 . S
C134 C135 1.341 . S
C134 C136 1.371 . S
C135 C134 1.341 . S
C135 C139 1.394 . S
C135 H151 0.930 . S
C136 C134 1.371 . S
C136 C137 1.392 . S
C136 H152 0.931 . S
C137 C136 1.392 . S
C137 C138 1.331 . S
C137 H155 0.932 . S
C138 C137 1.331 . S
C138 C139 1.336 . S
C139 C135 1.394 . S
C139 C138 1.336 . S
C139 H154 0.929 . S
C140 C130 1.386 . S
C140 C133 1.357 . S
C140 H153 0.928 1_554 S
H141 C117 0.931 . S
H142 C119 0.930 . S
H143 C121 0.929 . S
H144 C122 0.931 . S
H145 C124 0.930 . S
H146 C128 0.931 . S
H147 C126 0.931 . S
H148 C130 0.931 . S
H149 C131 0.929 . S
H150 C132 0.930 . S
H151 C135 0.930 . S
H152 C136 0.931 . S
H153 C140 0.928 1_556 S
H154 C139 0.929 . S
H155 C137 0.932 . S
C156 C157 1.386 . S
C156 C158 1.397 . S
C156 H180 0.931 . S
C157 C156 1.386 . S
C157 C161 1.397 . S
C158 C156 1.397 . S
C158 C159 1.384 . S
C158 H181 0.930 . S
C159 C158 1.384 . S
C159 C160 1.377 . S
C159 C162 1.481 . S
C160 C159 1.377 . S
C160 C161 1.389 . S
C160 H182 0.929 . S
C161 C157 1.397 . S
C161 C160 1.389 . S
C161 H183 0.931 . S
C162 C159 1.481 . S
C162 C163 1.387 . S
C162 C167 1.390 . S
C163 C162 1.387 . S
C163 C164 1.401 . S
C163 H184 0.930 . S
C164 C163 1.401 . S
C164 C165 1.376 . S
C164 C173 1.511 . S
C165 C164 1.376 . S
C165 C166 1.392 . S
C165 H186 0.931 . S
C166 C165 1.392 . S
C166 C167 1.361 . S
C166 C168 1.500 1_554 S
C167 C162 1.390 . S
C167 C166 1.361 . S
C167 H185 0.931 . S
C168 C166 1.500 1_556 S
C168 C169 1.371 . S
C168 C170 1.365 . S
C169 C168 1.371 . S
C169 C179 1.386 . S
C169 H187 0.931 . S
C170 C168 1.365 . S
C170 C171 1.409 . S
C170 H188 0.929 . S
C171 C170 1.409 . S
C171 C172 1.380 . S
C171 H189 0.930 . S
C172 C171 1.380 . S
C172 C179 1.357 . S
C173 C164 1.511 . S
C173 C174 1.341 . S
C173 C175 1.371 . S
C174 C173 1.341 . S
C174 C178 1.394 . S
C174 H190 0.930 . S
C175 C173 1.371 . S
C175 C176 1.392 . S
C175 H191 0.931 . S
C176 C175 1.392 . S
C176 C177 1.331 . S
C176 H194 0.932 . S
C177 C176 1.331 . S
C177 C178 1.336 . S
C178 C174 1.394 . S
C178 C177 1.336 . S
C178 H193 0.929 . S
C179 C169 1.386 . S
C179 C172 1.357 . S
C179 H192 0.928 . S
H180 C156 0.931 . S
H181 C158 0.930 . S
H182 C160 0.929 . S
H183 C161 0.931 . S
H184 C163 0.930 . S
H185 C167 0.931 . S
H186 C165 0.931 . S
H187 C169 0.931 . S
H188 C170 0.929 . S
H189 C171 0.930 . S
H190 C174 0.930 . S
H191 C175 0.931 . S
H192 C179 0.928 . S
H193 C178 0.929 . S
H194 C176 0.932 . S
C195 C196 1.386 . S
C195 C197 1.397 . S
C195 H219 0.931 . S
C196 C195 1.386 . S
C196 C200 1.397 . S
C197 C195 1.397 . S
C197 C198 1.384 . S
C197 H220 0.930 . S
C198 C197 1.384 . S
C198 C199 1.377 . S
C198 C201 1.481 . S
C199 C198 1.377 . S
C199 C200 1.389 . S
C199 H221 0.929 . S
C200 C196 1.397 . S
C200 C199 1.389 . S
C200 H222 0.931 . S
C201 C198 1.481 . S
C201 C202 1.387 . S
C201 C206 1.390 . S
C202 C201 1.387 . S
C202 C203 1.401 . S
C202 H223 0.930 . S
C203 C202 1.401 . S
C203 C204 1.376 1_554 S
C203 C212 1.511 . S
C204 C203 1.376 1_556 S
C204 C205 1.392 . S
C204 H225 0.931 . S
C205 C204 1.392 . S
C205 C206 1.361 1_556 S
C205 C207 1.500 . S
C206 C201 1.390 . S
C206 C205 1.361 1_554 S
C206 H224 0.931 . S
C207 C205 1.500 . S
C207 C208 1.371 . S
C207 C209 1.365 . S
C208 C207 1.371 . S
C208 C218 1.386 . S
C208 H226 0.931 . S
C209 C207 1.365 . S
C209 C210 1.409 . S
C209 H227 0.929 . S
C210 C209 1.409 . S
C210 C211 1.380 . S
C210 H228 0.930 . S
C211 C210 1.380 . S
C211 C218 1.357 . S
C212 C203 1.511 . S
C212 C213 1.341 . S
C212 C214 1.371 . S
C213 C212 1.341 . S
C213 C217 1.394 . S
C213 H229 0.930 . S
C214 C212 1.371 . S
C214 C215 1.392 . S
C214 H230 0.931 1_554 S
C215 C214 1.392 . S
C215 C216 1.331 . S
C215 H233 0.932 . S
C216 C215 1.331 . S
C216 C217 1.336 . S
C217 C213 1.394 . S
C217 C216 1.336 . S
C217 H232 0.929 . S
C218 C208 1.386 . S
C218 C211 1.357 . S
C218 H231 0.928 . S
H219 C195 0.931 . S
H220 C197 0.930 . S
H221 C199 0.929 . S
H222 C200 0.931 . S
H223 C202 0.930 . S
H224 C206 0.931 . S
H225 C204 0.931 . S
H226 C208 0.931 . S
H227 C209 0.929 . S
H228 C210 0.930 . S
H229 C213 0.930 . S
H230 C214 0.931 1_556 S
H231 C218 0.928 . S
H232 C217 0.929 . S
H233 C215 0.932 . S
C234 C235 1.386 . S
C234 C236 1.397 . S
C234 H258 0.931 . S
C235 C234 1.386 . S
C235 C239 1.397 . S
C236 C234 1.397 . S
C236 C237 1.384 . S
C236 H259 0.930 . S
C237 C236 1.384 . S
C237 C238 1.377 . S
C237 C240 1.481 . S
C238 C237 1.377 . S
C238 C239 1.389 . S
C238 H260 0.929 . S
C239 C235 1.397 . S
C239 C238 1.389 . S
C239 H261 0.931 . S
C240 C237 1.481 . S
C240 C241 1.387 . S
C240 C245 1.402 . S
C241 C240 1.387 . S
C241 C242 1.401 . S
C241 H262 0.930 . S
C242 C241 1.401 . S
C242 C243 1.376 1_554 S
C242 C251 1.511 . S
C243 C242 1.376 1_556 S
C243 C244 1.392 . S
C243 H264 0.931 . S
C244 C243 1.392 . S
C244 C245 1.353 1_556 S
C244 C246 1.500 . S
C245 C240 1.402 . S
C245 C244 1.353 1_554 S
C245 H263 0.928 1_554 S
C246 C244 1.500 . S
C246 C247 1.371 . S
C246 C248 1.365 . S
C247 C246 1.371 . S
C247 C257 1.386 . S
C247 H265 0.931 . S
C248 C246 1.365 . S
C248 C249 1.409 . S
C248 H266 0.929 . S
C249 C248 1.409 . S
C249 C250 1.380 . S
C249 H267 0.930 . S
C250 C249 1.380 . S
C250 C257 1.357 . S
C251 C242 1.511 . S
C251 C252 1.341 . S
C251 C253 1.360 1_554 S
C252 C251 1.341 . S
C252 C256 1.394 . S
C252 H268 0.930 . S
C253 C251 1.360 1_556 S
C253 C254 1.387 1_556 S
C253 H269 0.948 . S
C254 C253 1.387 1_554 S
C254 C255 1.331 . S
C254 H272 0.932 1_554 S
C255 C254 1.331 . S
C255 C256 1.336 . S
C256 C252 1.394 . S
C256 C255 1.336 . S
C256 H271 0.929 . S
C257 C247 1.386 . S
C257 C250 1.357 . S
C257 H270 0.928 . S
H258 C234 0.931 . S
H259 C236 0.930 . S
H260 C238 0.929 . S
H261 C239 0.931 . S
H262 C241 0.930 . S
H263 C245 0.928 1_556 S
H264 C243 0.931 . S
H265 C247 0.931 . S
H266 C248 0.929 . S
H267 C249 0.930 . S
H268 C252 0.930 . S
H269 C253 0.948 . S
H270 C257 0.928 . S
H271 C256 0.929 . S
H272 C254 0.932 1_556 S
C273 C274 1.386 . S
C273 C275 1.397 . S
C273 H297 0.931 . S
C274 C273 1.386 . S
C274 C278 1.397 . S
C275 C273 1.397 . S
C275 C276 1.384 . S
C275 H298 0.930 . S
C276 C275 1.384 . S
C276 C277 1.377 . S
C276 C279 1.481 1_556 S
C277 C276 1.377 . S
C277 C278 1.389 . S
C277 H299 0.929 . S
C278 C274 1.397 . S
C278 C277 1.389 . S
C278 H300 0.931 . S
C279 C276 1.481 1_554 S
C279 C280 1.387 . S
C279 C284 1.390 . S
C280 C279 1.387 . S
C280 C281 1.401 . S
C280 H301 0.930 1_554 S
C281 C280 1.401 . S
C281 C282 1.376 . S
C281 C290 1.511 . S
C282 C281 1.376 . S
C282 C283 1.392 . S
C282 H303 0.931 . S
C283 C282 1.392 . S
C283 C284 1.361 . S
C283 C285 1.500 . S
C284 C279 1.390 . S
C284 C283 1.361 . S
C284 H302 0.931 . S
C285 C283 1.500 . S
C285 C286 1.371 . S
C285 C287 1.365 . S
C286 C285 1.371 . S
C286 C296 1.386 . S
C286 H304 0.931 . S
C287 C285 1.365 . S
C287 C288 1.409 . S
C287 H305 0.929 . S
C288 C287 1.409 . S
C288 C289 1.380 . S
C288 H306 0.930 . S
C289 C288 1.380 . S
C289 C296 1.357 . S
C290 C281 1.511 . S
C290 C291 1.341 . S
C290 C292 1.371 . S
C291 C290 1.341 . S
C291 C295 1.394 . S
C291 H307 0.930 . S
C292 C290 1.371 . S
C292 C293 1.392 . S
C292 H308 0.931 . S
C293 C292 1.392 . S
C293 C294 1.331 . S
C293 H311 0.932 . S
C294 C293 1.331 . S
C294 C295 1.336 . S
C295 C291 1.394 . S
C295 C294 1.336 . S
C295 H310 0.929 . S
C296 C286 1.386 . S
C296 C289 1.357 . S
C296 H309 0.928 . S
H297 C273 0.931 . S
H298 C275 0.930 . S
H299 C277 0.929 . S
H300 C278 0.931 . S
H301 C280 0.930 1_556 S
H302 C284 0.931 . S
H303 C282 0.931 . S
H304 C286 0.931 . S
H305 C287 0.929 . S
H306 C288 0.930 . S
H307 C291 0.930 . S
H308 C292 0.931 . S
H309 C296 0.928 . S
H310 C295 0.929 . S
H311 C293 0.932 . S
Eu312 C321 2.828 . S
Eu312 O323 2.392 . S
Eu312 O325 2.418 1_545 S
Eu312 O330 2.373 1_655 S
Eu312 O333 2.488 . S
Eu312 O334 2.471 . S
Eu312 O335 2.349 1_655 S
Eu313 O322 2.373 1_455 S
Eu313 O326 2.488 . S
Eu313 O327 2.471 . S
Eu313 O328 2.349 . S
Eu313 O331 2.392 1_565 S
Eu313 O332 2.418 1_565 S
Eu313 C342 2.828 . S
C314 O332 1.244 . S
C314 O335 1.265 . S
C315 C316 1.379 1_655 S
C315 C319 1.373 . S
C315 C321 1.505 . S
C316 C315 1.379 1_455 S
C316 C318 1.369 . S
C316 H344 0.930 . S
C317 C319 1.383 . S
C317 C320 1.382 1_655 S
C317 H345 0.930 . S
C318 C316 1.369 . S
C318 C320 1.392 . S
C318 H346 0.930 . S
C319 C315 1.373 . S
C319 C317 1.383 . S
C319 H347 0.931 . S
C320 C317 1.382 1_455 S
C320 C318 1.392 . S
C321 Eu312 2.828 . S
C321 C315 1.505 . S
C321 O333 1.249 . S
C321 O334 1.244 . S
O322 Eu313 2.373 1_655 S
O322 C324 1.258 . S
O323 Eu312 2.392 . S
O323 C324 1.242 1_545 S
C324 O322 1.258 . S
C324 O323 1.242 1_565 S
O325 Eu312 2.418 1_565 S
O325 C329 1.244 . S
O326 Eu313 2.488 . S
O326 C342 1.249 . S
O327 Eu313 2.471 . S
O327 C342 1.244 . S
O328 Eu313 2.349 . S
O328 C329 1.265 1_455 S
C329 O325 1.244 . S
C329 O328 1.265 1_655 S
O330 Eu312 2.373 1_455 S
O330 C343 1.258 . S
O331 Eu313 2.392 1_545 S
O331 C343 1.242 . S
O332 Eu313 2.418 1_545 S
O332 C314 1.244 . S
O333 Eu312 2.488 . S
O333 C321 1.249 . S
O334 Eu312 2.471 . S
O334 C321 1.244 . S
O335 Eu312 2.349 1_455 S
O335 C314 1.265 . S
C336 C337 1.379 . S
C336 C340 1.373 . S
C336 C342 1.505 . S
C337 C336 1.379 . S
C337 C339 1.369 . S
C337 H348 0.930 1_455 S
C338 C340 1.383 . S
C338 C341 1.382 . S
C338 H349 0.930 . S
C339 C337 1.369 . S
C339 C341 1.392 . S
C339 H350 0.930 1_455 S
C340 C336 1.373 . S
C340 C338 1.383 . S
C340 H351 0.931 . S
C341 C338 1.382 . S
C341 C339 1.392 . S
C342 Eu313 2.828 . S
C342 O326 1.249 . S
C342 O327 1.244 . S
C342 C336 1.505 . S
C343 O330 1.258 . S
C343 O331 1.242 . S
H344 C316 0.930 . S
H345 C317 0.930 . S
H346 C318 0.930 . S
H347 C319 0.931 . S
H348 C337 0.930 1_655 S
H349 C338 0.930 . S
H350 C339 0.930 1_655 S
H351 C340 0.931 . S
Eu352 C361 2.828 . S
Eu352 O363 2.392 . S
Eu352 O365 2.418 . S
Eu352 O370 2.373 . S
Eu352 O373 2.488 . S
Eu352 O374 2.471 . S
Eu352 O375 2.349 1_545 S
Eu353 O362 2.373 1_565 S
Eu353 O366 2.488 . S
Eu353 O367 2.471 1_565 S
Eu353 O368 2.349 1_565 S
Eu353 O371 2.392 . S
Eu353 O372 2.418 . S
Eu353 C382 2.828 . S
C354 O372 1.244 . S
C354 O375 1.265 . S
C355 C356 1.379 1_545 S
C355 C359 1.373 . S
C355 C361 1.505 . S
C356 C355 1.379 1_565 S
C356 C358 1.369 . S
C356 H384 0.930 . S
C357 C359 1.383 . S
C357 C360 1.382 . S
C357 H385 0.930 . S
C358 C356 1.369 . S
C358 C360 1.392 1_565 S
C358 H386 0.930 . S
C359 C355 1.373 . S
C359 C357 1.383 . S
C359 H387 0.931 . S
C360 C357 1.382 . S
C360 C358 1.392 1_545 S
C361 Eu352 2.828 . S
C361 C355 1.505 . S
C361 O373 1.249 . S
C361 O374 1.244 . S
O362 Eu353 2.373 1_545 S
O362 C364 1.258 . S
O363 Eu352 2.392 . S
O363 C364 1.242 . S
C364 O362 1.258 . S
C364 O363 1.242 . S
O365 Eu352 2.418 . S
O365 C369 1.244 . S
O366 Eu353 2.488 . S
O366 C382 1.249 . S
O367 Eu353 2.471 1_545 S
O367 C382 1.244 1_545 S
O368 Eu353 2.349 1_545 S
O368 C369 1.265 . S
C369 O365 1.244 . S
C369 O368 1.265 . S
O370 Eu352 2.373 . S
O370 C383 1.258 1_545 S
O371 Eu353 2.392 . S
O371 C383 1.242 . S
O372 Eu353 2.418 . S
O372 C354 1.244 . S
O373 Eu352 2.488 . S
O373 C361 1.249 . S
O374 Eu352 2.471 . S
O374 C361 1.244 . S
O375 Eu352 2.349 1_565 S
O375 C354 1.265 . S
C376 C377 1.379 1_565 S
C376 C380 1.373 . S
C376 C382 1.505 . S
C377 C376 1.379 1_545 S
C377 C379 1.369 . S
C377 H388 0.930 . S
C378 C380 1.383 . S
C378 C381 1.382 . S
C378 H389 0.930 . S
C379 C377 1.369 . S
C379 C381 1.392 1_545 S
C379 H390 0.930 . S
C380 C376 1.373 . S
C380 C378 1.383 . S
C380 H391 0.931 . S
C381 C378 1.382 . S
C381 C379 1.392 1_565 S
C382 Eu353 2.828 . S
C382 O366 1.249 . S
C382 O367 1.244 1_565 S
C382 C376 1.505 . S
C383 O370 1.258 1_565 S
C383 O371 1.242 . S
H384 C356 0.930 . S
H385 C357 0.930 . S
H386 C358 0.930 . S
H387 C359 0.931 . S
H388 C377 0.930 . S
H389 C378 0.930 . S
H390 C379 0.930 . S
H391 C380 0.931 . S
Eu392 C401 2.828 . S
Eu392 O403 2.392 . S
Eu392 O405 2.418 . S
Eu392 O410 2.373 . S
Eu392 O413 2.488 . S
Eu392 O414 2.471 . S
Eu392 O415 2.349 . S
Eu393 O402 2.373 . S
Eu393 O406 2.488 . S
Eu393 O407 2.471 . S
Eu393 O408 2.349 . S
Eu393 O411 2.392 . S
Eu393 O412 2.418 . S
Eu393 C422 2.828 . S
C394 O412 1.244 . S
C394 O415 1.265 . S
C395 C396 1.379 . S
C395 C399 1.373 . S
C395 C401 1.505 . S
C396 C395 1.379 . S
C396 C398 1.369 . S
C396 H424 0.930 . S
C397 C399 1.383 . S
C397 C400 1.382 . S
C397 H425 0.930 . S
C398 C396 1.369 . S
C398 C400 1.392 . S
C398 H426 0.930 . S
C399 C395 1.373 . S
C399 C397 1.383 . S
C399 H427 0.931 . S
C400 C397 1.382 . S
C400 C398 1.392 . S
C401 Eu392 2.828 . S
C401 C395 1.505 . S
C401 O413 1.249 . S
C401 O414 1.244 . S
O402 Eu393 2.373 . S
O402 C404 1.258 . S
O403 Eu392 2.392 . S
O403 C404 1.242 . S
C404 O402 1.258 . S
C404 O403 1.242 . S
O405 Eu392 2.418 . S
O405 C409 1.244 . S
O406 Eu393 2.488 . S
O406 C422 1.249 . S
O407 Eu393 2.471 . S
O407 C422 1.244 . S
O408 Eu393 2.349 . S
O408 C409 1.265 . S
C409 O405 1.244 . S
C409 O408 1.265 . S
O410 Eu392 2.373 . S
O410 C423 1.258 . S
O411 Eu393 2.392 . S
O411 C423 1.242 . S
O412 Eu393 2.418 . S
O412 C394 1.244 . S
O413 Eu392 2.488 . S
O413 C401 1.249 . S
O414 Eu392 2.471 . S
O414 C401 1.244 . S
O415 Eu392 2.349 . S
O415 C394 1.265 . S
C416 C417 1.379 . S
C416 C420 1.373 . S
C416 C422 1.505 . S
C417 C416 1.379 . S
C417 C419 1.369 . S
C417 H428 0.930 . S
C418 C420 1.383 . S
C418 C421 1.382 . S
C418 H429 0.930 . S
C419 C417 1.369 . S
C419 C421 1.392 . S
C419 H430 0.930 . S
C420 C416 1.373 . S
C420 C418 1.383 . S
C420 H431 0.931 . S
C421 C418 1.382 . S
C421 C419 1.392 . S
C422 Eu393 2.828 . S
C422 O406 1.249 . S
C422 O407 1.244 . S
C422 C416 1.505 . S
C423 O410 1.258 . S
C423 O411 1.242 . S
H424 C396 0.930 . S
H425 C397 0.930 . S
H426 C398 0.930 . S
H427 C399 0.931 . S
H428 C417 0.930 . S
H429 C418 0.930 . S
H430 C419 0.930 . S
H431 C420 0.931 . S
Eu432 C441 2.828 . S
Eu432 O443 2.392 . S
Eu432 O445 2.418 1_455 S
Eu432 O450 2.373 . S
Eu432 O453 2.488 . S
Eu432 O454 2.471 . S
Eu432 O455 2.349 . S
Eu433 O442 2.373 . S
Eu433 O446 2.488 . S
Eu433 O447 2.471 . S
Eu433 O448 2.349 . S
Eu433 O451 2.392 1_655 S
Eu433 O452 2.418 1_655 S
Eu433 C462 2.828 . S
C434 O452 1.244 . S
C434 O455 1.265 . S
C435 C436 1.379 . S
C435 C439 1.373 . S
C435 C441 1.505 . S
C436 C435 1.379 . S
C436 C438 1.369 . S
C436 H464 0.930 . S
C437 C439 1.383 . S
C437 C440 1.382 . S
C437 H465 0.930 . S
C438 C436 1.369 . S
C438 C440 1.392 . S
C438 H466 0.930 . S
C439 C435 1.373 . S
C439 C437 1.383 . S
C439 H467 0.931 . S
C440 C437 1.382 . S
C440 C438 1.392 . S
C441 Eu432 2.828 . S
C441 C435 1.505 . S
C441 O453 1.249 . S
C441 O454 1.244 . S
O442 Eu433 2.373 . S
O442 C444 1.258 1_655 S
O443 Eu432 2.392 . S
O443 C444 1.242 . S
C444 O442 1.258 1_455 S
C444 O443 1.242 . S
O445 Eu432 2.418 1_655 S
O445 C449 1.244 . S
O446 Eu433 2.488 . S
O446 C462 1.249 . S
O447 Eu433 2.471 . S
O447 C462 1.244 . S
O448 Eu433 2.349 . S
O448 C449 1.265 . S
C449 O445 1.244 . S
C449 O448 1.265 . S
O450 Eu432 2.373 . S
O450 C463 1.258 . S
O451 Eu433 2.392 1_455 S
O451 C463 1.242 . S
O452 Eu433 2.418 1_455 S
O452 C434 1.244 . S
O453 Eu432 2.488 . S
O453 C441 1.249 . S
O454 Eu432 2.471 . S
O454 C441 1.244 . S
O455 Eu432 2.349 . S
O455 C434 1.265 . S
C456 C457 1.379 . S
C456 C460 1.373 . S
C456 C462 1.505 . S
C457 C456 1.379 . S
C457 C459 1.369 . S
C457 H468 0.930 . S
C458 C460 1.383 . S
C458 C461 1.382 . S
C458 H469 0.930 . S
C459 C457 1.369 . S
C459 C461 1.392 . S
C459 H470 0.930 . S
C460 C456 1.373 . S
C460 C458 1.383 . S
C460 H471 0.931 . S
C461 C458 1.382 . S
C461 C459 1.392 . S
C462 Eu433 2.828 . S
C462 O446 1.249 . S
C462 O447 1.244 . S
C462 C456 1.505 . S
C463 O450 1.258 . S
C463 O451 1.242 . S
H464 C436 0.930 . S
H465 C437 0.930 . S
H466 C438 0.930 . S
H467 C439 0.931 . S
H468 C457 0.930 . S
H469 C458 0.930 . S
H470 C459 0.930 . S
H471 C460 0.931 . S
H472 C484 0.930 . S
H473 C486 0.930 . S
H474 C487 0.930 1_565 S
H475 C491 0.959 . S
H476 C491 0.959 . S
H477 C491 0.961 . S
H478 C492 0.960 . S
H479 C492 0.961 . S
H480 C492 0.959 . S
H481 C495 0.929 1_565 S
H482 C496 0.931 1_565 S
H483 C498 0.930 . S
C484 H472 0.930 . S
C484 C485 1.399 . S
C484 C489 1.399 . S
C485 C484 1.399 . S
C485 C486 1.376 . S
C486 H473 0.930 . S
C486 C485 1.376 . S
C486 C487 1.388 . S
C487 H474 0.930 1_545 S
C487 C486 1.388 . S
C487 C488 1.390 . S
C488 C487 1.390 . S
C488 C489 1.394 . S
C488 C494 1.465 . S
C489 C484 1.399 . S
C489 C488 1.394 . S
C489 C490 1.516 . S
C490 C489 1.516 . S
C490 C491 1.502 . S
C490 C492 1.561 . S
C490 C493 1.526 . S
C491 H475 0.959 . S
C491 H476 0.959 . S
C491 H477 0.961 . S
C491 C490 1.502 . S
C492 H478 0.960 . S
C492 H479 0.961 . S
C492 H480 0.959 . S
C492 C490 1.561 . S
C493 C490 1.526 . S
C493 C494 1.396 . S
C493 C498 1.390 . S
C494 C488 1.465 . S
C494 C493 1.396 . S
C494 C495 1.399 . S
C495 H481 0.929 1_545 S
C495 C494 1.399 . S
C495 C496 1.385 . S
C496 H482 0.931 1_545 S
C496 C495 1.385 . S
C496 C497 1.389 . S
C497 C496 1.389 . S
C497 C498 1.387 . S
C498 H483 0.930 . S
C498 C493 1.390 . S
C498 C497 1.387 . S
H499 C511 0.930 . S
H500 C513 0.930 . S
H501 C514 0.930 . S
H502 C518 0.959 . S
H503 C518 0.959 . S
H504 C518 0.961 . S
H505 C519 0.960 . S
H506 C519 0.961 . S
H507 C519 0.959 . S
H508 C522 0.929 . S
H509 C523 0.931 . S
H510 C525 0.930 . S
C511 H499 0.930 . S
C511 C512 1.399 . S
C511 C516 1.399 . S
C512 C511 1.399 . S
C512 C513 1.376 . S
C513 H500 0.930 . S
C513 C512 1.376 . S
C513 C514 1.388 . S
C514 H501 0.930 . S
C514 C513 1.388 . S
C514 C515 1.390 . S
C515 C514 1.390 . S
C515 C516 1.394 . S
C515 C521 1.465 . S
C516 C511 1.399 . S
C516 C515 1.394 . S
C516 C517 1.516 . S
C517 C516 1.516 . S
C517 C518 1.502 . S
C517 C519 1.561 . S
C517 C520 1.526 . S
C518 H502 0.959 . S
C518 H503 0.959 . S
C518 H504 0.961 . S
C518 C517 1.502 . S
C519 H505 0.960 . S
C519 H506 0.961 . S
C519 H507 0.959 . S
C519 C517 1.561 . S
C520 C517 1.526 . S
C520 C521 1.396 . S
C520 C525 1.390 . S
C521 C515 1.465 . S
C521 C520 1.396 . S
C521 C522 1.399 . S
C522 H508 0.929 . S
C522 C521 1.399 . S
C522 C523 1.385 . S
C523 H509 0.931 . S
C523 C522 1.385 . S
C523 C524 1.389 . S
C524 C523 1.389 . S
C524 C525 1.387 . S
C525 H510 0.930 . S
C525 C520 1.390 . S
C525 C524 1.387 . S
H526 C538 0.930 . S
H527 C540 0.930 . S
H528 C541 0.930 . S
H529 C545 0.959 . S
H530 C545 0.959 . S
H531 C545 0.961 . S
H532 C546 0.960 . S
H533 C546 0.961 . S
H534 C546 0.959 . S
H535 C549 0.929 . S
H536 C550 0.931 . S
H537 C552 0.930 . S
C538 H526 0.930 . S
C538 C539 1.399 . S
C538 C543 1.399 . S
C539 C538 1.399 . S
C539 C540 1.376 . S
C540 H527 0.930 . S
C540 C539 1.376 . S
C540 C541 1.388 . S
C541 H528 0.930 . S
C541 C540 1.388 . S
C541 C542 1.390 . S
C542 C541 1.390 . S
C542 C543 1.394 . S
C542 C548 1.465 . S
C543 C538 1.399 . S
C543 C542 1.394 . S
C543 C544 1.516 . S
C544 C543 1.516 . S
C544 C545 1.502 . S
C544 C546 1.561 . S
C544 C547 1.526 . S
C545 H529 0.959 . S
C545 H530 0.959 . S
C545 H531 0.961 . S
C545 C544 1.502 . S
C546 H532 0.960 . S
C546 H533 0.961 . S
C546 H534 0.959 . S
C546 C544 1.561 . S
C547 C544 1.526 . S
C547 C548 1.396 . S
C547 C552 1.390 . S
C548 C542 1.465 . S
C548 C547 1.396 . S
C548 C549 1.399 . S
C549 H535 0.929 . S
C549 C548 1.399 . S
C549 C550 1.385 . S
C550 H536 0.931 . S
C550 C549 1.385 . S
C550 C551 1.389 . S
C551 C550 1.389 . S
C551 C552 1.387 . S
C552 H537 0.930 . S
C552 C547 1.390 . S
C552 C551 1.387 . S
H553 C565 0.930 . S
H554 C567 0.930 . S
H555 C568 0.930 . S
H556 C572 0.959 . S
H557 C572 0.959 . S
H558 C572 0.961 . S
H559 C573 0.960 . S
H560 C573 0.961 . S
H561 C573 0.959 . S
H562 C576 0.929 1_655 S
H563 C577 0.931 1_655 S
H564 C579 0.930 . S
C565 H553 0.930 . S
C565 C566 1.399 . S
C565 C570 1.399 . S
C566 C565 1.399 . S
C566 C567 1.376 . S
C567 H554 0.930 . S
C567 C566 1.376 . S
C567 C568 1.388 . S
C568 H555 0.930 . S
C568 C567 1.388 . S
C568 C569 1.390 . S
C569 C568 1.390 . S
C569 C570 1.394 . S
C569 C575 1.465 . S
C570 C565 1.399 . S
C570 C569 1.394 . S
C570 C571 1.516 . S
C571 C570 1.516 . S
C571 C572 1.502 . S
C571 C573 1.561 . S
C571 C574 1.526 . S
C572 H556 0.959 . S
C572 H557 0.959 . S
C572 H558 0.961 . S
C572 C571 1.502 . S
C573 H559 0.960 . S
C573 H560 0.961 . S
C573 H561 0.959 . S
C573 C571 1.561 . S
C574 C571 1.526 . S
C574 C575 1.396 . S
C574 C579 1.390 . S
C575 C569 1.465 . S
C575 C574 1.396 . S
C575 C576 1.399 . S
C576 H562 0.929 1_455 S
C576 C575 1.399 . S
C576 C577 1.385 . S
C577 H563 0.931 1_455 S
C577 C576 1.385 . S
C577 C578 1.389 . S
C578 C577 1.389 . S
C578 C579 1.387 . S
C579 H564 0.930 . S
C579 C574 1.390 . S
C579 C578 1.387 . S
H580 C592 0.930 . S
H581 C594 0.930 . S
H582 C595 0.930 1_556 S
H583 C599 0.927 1_545 S
H584 C599 0.953 1_545 S
H585 C599 0.964 . S
H586 C600 0.960 . S
H587 C600 0.961 1_556 S
H588 C600 0.959 1_556 S
H589 C603 0.929 . S
H590 C604 0.931 . S
H591 C606 0.930 . S
C592 H580 0.930 . S
C592 C593 1.399 . S
C592 C597 1.399 . S
C593 C592 1.399 . S
C593 C594 1.376 . S
C594 H581 0.930 . S
C594 C593 1.376 . S
C594 C595 1.388 . S
C595 H582 0.930 1_554 S
C595 C594 1.388 . S
C595 C596 1.385 1_554 S
C596 C595 1.385 1_556 S
C596 C597 1.386 1_556 S
C596 C602 1.478 . S
C597 C592 1.399 . S
C597 C596 1.386 1_554 S
C597 C598 1.516 . S
C598 C597 1.516 . S
C598 C599 1.538 . S
C598 C600 1.561 . S
C598 C601 1.526 1_554 S
C599 H583 0.927 1_565 S
C599 H584 0.953 1_565 S
C599 H585 0.964 . S
C599 C598 1.538 . S
C600 H586 0.960 . S
C600 H587 0.961 1_554 S
C600 H588 0.959 1_554 S
C600 C598 1.561 . S
C601 C598 1.526 1_556 S
C601 C602 1.396 . S
C601 C606 1.390 . S
C602 C596 1.478 . S
C602 C601 1.396 . S
C602 C603 1.399 . S
C603 H589 0.929 . S
C603 C602 1.399 . S
C603 C604 1.385 . S
C604 H590 0.931 . S
C604 C603 1.385 . S
C604 C605 1.389 . S
C605 C604 1.389 . S
C605 C606 1.387 . S
C606 H591 0.930 . S
C606 C601 1.390 . S
C606 C605 1.387 . S
H607 C619 0.930 . S
H608 C621 0.930 . S
H609 C622 0.930 . S
H610 C626 0.959 . S
H611 C626 0.959 . S
H612 C626 0.961 . S
H613 C627 0.960 1_554 S
H614 C627 0.961 . S
H615 C627 0.959 . S
H616 C630 0.929 . S
H617 C631 0.931 . S
H618 C633 0.930 . S
C619 H607 0.930 . S
C619 C620 1.399 . S
C619 C624 1.399 1_554 S
C620 C619 1.399 . S
C620 C621 1.376 . S
C621 H608 0.930 . S
C621 C620 1.376 . S
C621 C622 1.388 1_554 S
C622 H609 0.930 . S
C622 C621 1.388 1_556 S
C622 C623 1.390 . S
C623 C622 1.390 . S
C623 C624 1.394 . S
C623 C629 1.465 . S
C624 C619 1.399 1_556 S
C624 C623 1.394 . S
C624 C625 1.516 . S
C625 C624 1.516 . S
C625 C626 1.502 . S
C625 C627 1.561 . S
C625 C628 1.526 . S
C626 H610 0.959 . S
C626 H611 0.959 . S
C626 H612 0.961 . S
C626 C625 1.502 . S
C627 H613 0.960 1_556 S
C627 H614 0.961 . S
C627 H615 0.959 . S
C627 C625 1.561 . S
C628 C625 1.526 . S
C628 C629 1.396 . S
C628 C633 1.390 . S
C629 C623 1.465 . S
C629 C628 1.396 . S
C629 C630 1.399 . S
C630 H616 0.929 . S
C630 C629 1.399 . S
C630 C631 1.385 . S
C631 H617 0.931 . S
C631 C630 1.385 . S
C631 C632 1.389 . S
C632 C631 1.389 . S
C632 C633 1.387 . S
C633 H618 0.930 . S
C633 C628 1.390 . S
C633 C632 1.387 . S
H634 C646 0.930 . S
H635 C648 0.930 . S
H636 C649 0.925 1_556 S
H637 C653 0.959 . S
H638 C653 0.959 . S
H639 C653 0.961 . S
H640 C654 0.960 . S
H641 C654 0.961 . S
H642 C654 0.959 . S
H643 C657 0.929 . S
H644 C658 0.931 . S
H645 C660 0.930 . S
C646 H634 0.930 . S
C646 C647 1.399 . S
C646 C651 1.399 1_554 S
C647 C646 1.399 . S
C647 C648 1.376 . S
C648 H635 0.930 . S
C648 C647 1.376 . S
C648 C649 1.405 . S
C649 H636 0.925 1_554 S
C649 C648 1.405 . S
C649 C650 1.379 1_554 S
C650 C649 1.379 1_556 S
C650 C651 1.394 . S
C650 C656 1.465 . S
C651 C646 1.399 1_556 S
C651 C650 1.394 . S
C651 C652 1.516 . S
C652 C651 1.516 . S
C652 C653 1.502 . S
C652 C654 1.561 . S
C652 C655 1.526 . S
C653 H637 0.959 . S
C653 H638 0.959 . S
C653 H639 0.961 . S
C653 C652 1.502 . S
C654 H640 0.960 . S
C654 H641 0.961 . S
C654 H642 0.959 . S
C654 C652 1.561 . S
C655 C652 1.526 . S
C655 C656 1.396 . S
C655 C660 1.390 . S
C656 C650 1.465 . S
C656 C655 1.396 . S
C656 C657 1.399 . S
C657 H643 0.929 . S
C657 C656 1.399 . S
C657 C658 1.385 . S
C658 H644 0.931 . S
C658 C657 1.385 . S
C658 C659 1.389 . S
C659 C658 1.389 . S
C659 C660 1.387 . S
C660 H645 0.930 . S
C660 C655 1.390 . S
C660 C659 1.387 . S
H661 C673 0.930 . S
H662 C675 0.930 . S
H663 C676 0.904 1_455 S
H664 C680 0.959 . S
H665 C680 0.959 . S
H666 C680 0.961 . S
H667 C681 0.960 . S
H668 C681 0.961 . S
H669 C681 0.959 . S
H670 C684 0.929 . S
H671 C685 0.931 . S
H672 C687 0.930 . S
C673 H661 0.930 . S
C673 C674 1.399 . S
C673 C678 1.399 1_554 S
C674 C673 1.399 . S
C674 C675 1.376 . S
C675 H662 0.930 . S
C675 C674 1.376 . S
C675 C676 1.402 . S
C676 H663 0.904 1_655 S
C676 C675 1.402 . S
C676 C677 1.403 . S
C677 C676 1.403 . S
C677 C678 1.394 1_554 S
C677 C683 1.465 1_554 S
C678 C673 1.399 1_556 S
C678 C677 1.394 1_556 S
C678 C679 1.516 . S
C679 C678 1.516 . S
C679 C680 1.502 . S
C679 C681 1.561 . S
C679 C682 1.526 . S
C680 H664 0.959 . S
C680 H665 0.959 . S
C680 H666 0.961 . S
C680 C679 1.502 . S
C681 H667 0.960 . S
C681 H668 0.961 . S
C681 H669 0.959 . S
C681 C679 1.561 . S
C682 C679 1.526 . S
C682 C683 1.396 . S
C682 C687 1.390 . S
C683 C677 1.465 1_556 S
C683 C682 1.396 . S
C683 C684 1.399 1_655 S
C684 H670 0.929 . S
C684 C683 1.399 1_455 S
C684 C685 1.385 . S
C685 H671 0.931 . S
C685 C684 1.385 . S
C685 C686 1.389 1_455 S
C686 C685 1.389 1_655 S
C686 C687 1.387 . S
C687 H672 0.930 . S
C687 C682 1.390 . S
C687 C686 1.387 . S
H688 C700 0.930 . S
H689 C702 0.930 . S
H690 C703 0.930 . S
H691 C707 0.959 . S
H692 C707 0.959 . S
H693 C707 0.961 . S
H694 C708 0.960 . S
H695 C708 0.961 . S
H696 C708 0.959 . S
H697 C711 0.935 . S
H698 C712 0.931 . S
H699 C714 0.930 . S
C700 H688 0.930 . S
C700 C701 1.399 . S
C700 C705 1.399 . S
C701 C700 1.399 . S
C701 C702 1.376 . S
C702 H689 0.930 . S
C702 C701 1.376 . S
C702 C703 1.388 . S
C703 H690 0.930 . S
C703 C702 1.388 . S
C703 C704 1.390 . S
C704 C703 1.390 . S
C704 C705 1.394 . S
C704 C710 1.465 . S
C705 C700 1.399 . S
C705 C704 1.394 . S
C705 C706 1.516 . S
C706 C705 1.516 . S
C706 C707 1.502 . S
C706 C708 1.561 . S
C706 C709 1.526 . S
C707 H691 0.959 . S
C707 H692 0.959 . S
C707 H693 0.961 . S
C707 C706 1.502 . S
C708 H694 0.960 . S
C708 H695 0.961 . S
C708 H696 0.959 . S
C708 C706 1.561 . S
C709 C706 1.526 . S
C709 C710 1.396 . S
C709 C714 1.390 . S
C710 C704 1.465 . S
C710 C709 1.396 . S
C710 C711 1.399 . S
C711 H697 0.935 . S
C711 C710 1.399 . S
C711 C712 1.385 1_455 S
C712 H698 0.931 . S
C712 C711 1.385 1_655 S
C712 C713 1.389 . S
C713 C712 1.389 . S
C713 C714 1.387 1_655 S
C714 H699 0.930 . S
C714 C709 1.390 . S
C714 C713 1.387 1_455 S
H715 C727 0.930 . S
H716 C729 0.930 . S
H717 C730 0.930 . S
H718 C734 0.959 . S
H719 C734 0.959 . S
H720 C734 0.961 . S
H721 C735 0.960 . S
H722 C735 0.961 . S
H723 C735 0.959 . S
H724 C738 0.929 . S
H725 C739 0.931 . S
H726 C741 0.930 . S
C727 H715 0.930 . S
C727 C728 1.399 . S
C727 C732 1.399 . S
C728 C727 1.399 . S
C728 C729 1.376 . S
C729 H716 0.930 . S
C729 C728 1.376 . S
C729 C730 1.388 . S
C730 H717 0.930 . S
C730 C729 1.388 . S
C730 C731 1.390 . S
C731 C730 1.390 . S
C731 C732 1.394 . S
C731 C737 1.465 . S
C732 C727 1.399 . S
C732 C731 1.394 . S
C732 C733 1.516 . S
C733 C732 1.516 . S
C733 C734 1.502 . S
C733 C735 1.561 . S
C733 C736 1.526 . S
C734 H718 0.959 . S
C734 H719 0.959 . S
C734 H720 0.961 . S
C734 C733 1.502 . S
C735 H721 0.960 . S
C735 H722 0.961 . S
C735 H723 0.959 . S
C735 C733 1.561 . S
C736 C733 1.526 . S
C736 C737 1.396 . S
C736 C741 1.390 . S
C737 C731 1.465 . S
C737 C736 1.396 . S
C737 C738 1.399 1_545 S
C738 H724 0.929 . S
C738 C737 1.399 1_565 S
C738 C739 1.385 . S
C739 H725 0.931 . S
C739 C738 1.385 . S
C739 C740 1.389 . S
C740 C739 1.389 . S
C740 C741 1.387 1_565 S
C741 H726 0.930 . S
C741 C736 1.390 . S
C741 C740 1.387 1_545 S
H742 C754 0.930 . S
H743 C756 0.930 . S
H744 C757 0.930 . S
H745 C761 0.959 . S
H746 C761 0.959 . S
H747 C761 0.961 . S
H748 C762 0.960 . S
H749 C762 0.961 . S
H750 C762 0.959 . S
H751 C765 0.929 . S
H752 C766 0.931 . S
H753 C768 0.930 . S
C754 H742 0.930 . S
C754 C755 1.399 . S
C754 C759 1.399 . S
C755 C754 1.399 . S
C755 C756 1.376 . S
C756 H743 0.930 . S
C756 C755 1.376 . S
C756 C757 1.388 . S
C757 H744 0.930 . S
C757 C756 1.388 . S
C757 C758 1.390 . S
C758 C757 1.390 . S
C758 C759 1.394 . S
C758 C764 1.465 . S
C759 C754 1.399 . S
C759 C758 1.394 . S
C759 C760 1.516 . S
C760 C759 1.516 . S
C760 C761 1.502 . S
C760 C762 1.561 . S
C760 C763 1.526 . S
C761 H745 0.959 . S
C761 H746 0.959 . S
C761 H747 0.961 . S
C761 C760 1.502 . S
C762 H748 0.960 . S
C762 H749 0.961 . S
C762 H750 0.959 . S
C762 C760 1.561 . S
C763 C760 1.526 . S
C763 C764 1.396 . S
C763 C768 1.390 . S
C764 C758 1.465 . S
C764 C763 1.396 . S
C764 C765 1.399 . S
C765 H751 0.929 . S
C765 C764 1.399 . S
C765 C766 1.385 . S
C766 H752 0.931 . S
C766 C765 1.385 . S
C766 C767 1.389 . S
C767 C766 1.389 . S
C767 C768 1.387 . S
C768 H753 0.930 . S
C768 C763 1.390 . S
C768 C767 1.387 . S
H769 C781 0.930 . S
H770 C783 0.930 . S
H771 C784 0.930 . S
H772 C788 0.959 . S
H773 C788 0.959 . S
H774 C788 0.961 . S
H775 C789 0.960 . S
H776 C789 0.961 . S
H777 C789 0.959 . S
H778 C792 0.929 . S
H779 C793 0.931 . S
H780 C795 0.930 . S
C781 H769 0.930 . S
C781 C782 1.399 . S
C781 C786 1.399 . S
C782 C781 1.399 . S
C782 C783 1.376 . S
C783 H770 0.930 . S
C783 C782 1.376 . S
C783 C784 1.388 . S
C784 H771 0.930 . S
C784 C783 1.388 . S
C784 C785 1.390 . S
C785 C784 1.390 . S
C785 C786 1.394 . S
C785 C791 1.465 . S
C786 C781 1.399 . S
C786 C785 1.394 . S
C786 C787 1.516 . S
C787 C786 1.516 . S
C787 C788 1.502 . S
C787 C789 1.561 . S
C787 C790 1.526 . S
C788 H772 0.959 . S
C788 H773 0.959 . S
C788 H774 0.961 . S
C788 C787 1.502 . S
C789 H775 0.960 . S
C789 H776 0.961 . S
C789 H777 0.959 . S
C789 C787 1.561 . S
C790 C787 1.526 . S
C790 C791 1.396 . S
C790 C795 1.390 . S
C791 C785 1.465 . S
C791 C790 1.396 . S
C791 C792 1.399 . S
C792 H778 0.929 . S
C792 C791 1.399 . S
C792 C793 1.385 . S
C793 H779 0.931 . S
C793 C792 1.385 . S
C793 C794 1.389 . S
C794 C793 1.389 . S
C794 C795 1.387 . S
C795 H780 0.930 . S
C795 C790 1.390 . S
C795 C794 1.387 . S
H796 C808 0.930 . S
H797 C810 0.934 . S
H798 C811 0.930 . S
H799 C815 0.959 . S
H800 C815 0.959 . S
H801 C815 0.961 . S
H802 C816 0.960 1_655 S
H803 C816 0.961 . S
H804 C816 0.959 . S
H805 C819 0.929 . S
H806 C820 0.931 . S
H807 C822 0.930 . S
C808 H796 0.930 . S
C808 C809 1.399 . S
C808 C813 1.399 . S
C809 C808 1.399 . S
C809 C810 1.368 1_554 S
C810 H797 0.934 . S
C810 C809 1.368 1_556 S
C810 C811 1.393 . S
C811 H798 0.930 . S
C811 C810 1.393 . S
C811 C812 1.390 . S
C812 C811 1.390 . S
C812 C813 1.394 1_556 S
C812 C818 1.465 . S
C813 C808 1.399 . S
C813 C812 1.394 1_554 S
C813 C814 1.516 . S
C814 C813 1.516 . S
C814 C815 1.502 . S
C814 C816 1.561 1_655 S
C814 C817 1.526 . S
C815 H799 0.959 . S
C815 H800 0.959 . S
C815 H801 0.961 . S
C815 C814 1.502 . S
C816 H802 0.960 1_455 S
C816 H803 0.961 . S
C816 H804 0.959 . S
C816 C814 1.561 1_455 S
C817 C814 1.526 . S
C817 C818 1.396 1_554 S
C817 C822 1.390 1_655 S
C818 C812 1.465 . S
C818 C817 1.396 1_556 S
C818 C819 1.399 1_655 S
C819 H805 0.929 . S
C819 C818 1.399 1_455 S
C819 C820 1.385 . S
C820 H806 0.931 . S
C820 C819 1.385 . S
C820 C821 1.389 . S
C821 C820 1.389 . S
C821 C822 1.387 1_556 S
C822 H807 0.930 . S
C822 C817 1.390 1_455 S
C822 C821 1.387 1_554 S
H823 C835 0.930 . S
H824 C837 0.930 . S
H825 C838 0.930 . S
H826 C842 0.959 . S
H827 C842 0.959 1_545 S
H828 C842 0.961 . S
H829 C843 0.960 . S
H830 C843 0.961 . S
H831 C843 0.959 . S
H832 C846 0.929 . S
H833 C847 0.931 . S
H834 C849 0.930 . S
C835 H823 0.930 . S
C835 C836 1.399 . S
C835 C840 1.399 . S
C836 C835 1.399 . S
C836 C837 1.376 . S
C837 H824 0.930 . S
C837 C836 1.376 . S
C837 C838 1.388 1_554 S
C838 H825 0.930 . S
C838 C837 1.388 1_556 S
C838 C839 1.390 . S
C839 C838 1.390 . S
C839 C840 1.394 1_556 S
C839 C845 1.465 . S
C840 C835 1.399 . S
C840 C839 1.394 1_554 S
C840 C841 1.516 . S
C841 C840 1.516 . S
C841 C842 1.502 . S
C841 C843 1.561 1_565 S
C841 C844 1.527 1_554 S
C842 H826 0.959 . S
C842 H827 0.959 1_565 S
C842 H828 0.961 . S
C842 C841 1.502 . S
C843 H829 0.960 . S
C843 H830 0.961 . S
C843 H831 0.959 . S
C843 C841 1.561 1_545 S
C844 C841 1.527 1_556 S
C844 C845 1.406 . S
C844 C849 1.380 1_565 S
C845 C839 1.465 . S
C845 C844 1.406 . S
C845 C846 1.399 . S
C846 H832 0.929 . S
C846 C845 1.399 . S
C846 C847 1.393 . S
C847 H833 0.931 . S
C847 C846 1.393 . S
C847 C848 1.381 1_565 S
C848 C847 1.381 1_545 S
C848 C849 1.387 . S
C849 H834 0.930 . S
C849 C844 1.380 1_545 S
C849 C848 1.387 . S
H850 C862 0.930 . S
H851 C864 0.930 . S
H852 C865 0.930 . S
H853 C869 0.959 . S
H854 C869 0.959 . S
H855 C869 0.961 . S
H856 C870 0.960 . S
H857 C870 0.961 . S
H858 C870 0.959 . S
H859 C873 0.929 . S
H860 C874 0.931 . S
H861 C876 0.930 . S
C862 H850 0.930 . S
C862 C863 1.399 1_556 S
C862 C867 1.399 . S
C863 C862 1.399 1_554 S
C863 C864 1.376 . S
C864 H851 0.930 . S
C864 C863 1.376 . S
C864 C865 1.388 . S
C865 H852 0.930 . S
C865 C864 1.388 . S
C865 C866 1.390 1_554 S
C866 C865 1.390 1_556 S
C866 C867 1.394 . S
C866 C872 1.465 . S
C867 C862 1.399 . S
C867 C866 1.394 . S
C867 C868 1.516 . S
C868 C867 1.516 . S
C868 C869 1.502 . S
C868 C870 1.561 . S
C868 C871 1.526 . S
C869 H853 0.959 . S
C869 H854 0.959 . S
C869 H855 0.961 . S
C869 C868 1.502 . S
C870 H856 0.960 . S
C870 H857 0.961 . S
C870 H858 0.959 . S
C870 C868 1.561 . S
C871 C868 1.526 . S
C871 C872 1.396 . S
C871 C876 1.390 . S
C872 C866 1.465 . S
C872 C871 1.396 . S
C872 C873 1.399 . S
C873 H859 0.929 . S
C873 C872 1.399 . S
C873 C874 1.385 . S
C874 H860 0.931 . S
C874 C873 1.385 . S
C874 C875 1.389 . S
C875 C874 1.389 . S
C875 C876 1.387 . S
C876 H861 0.930 . S
C876 C871 1.390 . S
C876 C875 1.387 . S
H877 C889 0.930 . S
H878 C891 0.930 . S
H879 C892 0.930 . S
H880 C896 0.959 . S
H881 C896 0.959 . S
H882 C896 0.961 . S
H883 C897 0.960 . S
H884 C897 0.961 . S
H885 C897 0.959 . S
H886 C900 0.929 . S
H887 C901 0.931 . S
H888 C903 0.930 . S
C889 H877 0.930 . S
C889 C890 1.399 . S
C889 C894 1.399 . S
C890 C889 1.399 . S
C890 C891 1.376 . S
C891 H878 0.930 . S
C891 C890 1.376 . S
C891 C892 1.388 1_554 S
C892 H879 0.930 . S
C892 C891 1.388 1_556 S
C892 C893 1.390 . S
C893 C892 1.390 . S
C893 C894 1.394 1_556 S
C893 C899 1.465 . S
C894 C889 1.399 . S
C894 C893 1.394 1_554 S
C894 C895 1.515 1_554 S
C895 C894 1.515 1_556 S
C895 C896 1.506 . S
C895 C897 1.553 1_556 S
C895 C898 1.530 . S
C896 H880 0.959 . S
C896 H881 0.959 . S
C896 H882 0.961 . S
C896 C895 1.506 . S
C897 H883 0.960 . S
C897 H884 0.961 . S
C897 H885 0.959 . S
C897 C895 1.553 1_554 S
C898 C895 1.530 . S
C898 C899 1.396 . S
C898 C903 1.390 . S
C899 C893 1.465 . S
C899 C898 1.396 . S
C899 C900 1.399 . S
C900 H886 0.929 . S
C900 C899 1.399 . S
C900 C901 1.385 . S
C901 H887 0.931 . S
C901 C900 1.385 . S
C901 C902 1.389 . S
C902 C901 1.389 . S
C902 C903 1.387 . S
C903 H888 0.930 . S
C903 C898 1.390 . S
C903 C902 1.387 . S
H904 C916 0.930 . S
H905 C918 0.930 . S
H906 C919 0.930 . S
H907 C923 0.959 . S
H908 C923 0.959 . S
H909 C923 0.961 . S
H910 C924 0.960 . S
H911 C924 0.961 . S
H912 C924 0.959 . S
H913 C927 0.929 . S
H914 C928 0.931 . S
H915 C930 0.930 . S
C916 H904 0.930 . S
C916 C917 1.399 . S
C916 C921 1.399 . S
C917 C916 1.399 . S
C917 C918 1.376 . S
C918 H905 0.930 . S
C918 C917 1.376 . S
C918 C919 1.388 . S
C919 H906 0.930 . S
C919 C918 1.388 . S
C919 C920 1.390 . S
C920 C919 1.390 . S
C920 C921 1.394 . S
C920 C926 1.465 . S
C921 C916 1.399 . S
C921 C920 1.394 . S
C921 C922 1.516 . S
C922 C921 1.516 . S
C922 C923 1.502 . S
C922 C924 1.561 . S
C922 C925 1.526 . S
C923 H907 0.959 . S
C923 H908 0.959 . S
C923 H909 0.961 . S
C923 C922 1.502 . S
C924 H910 0.960 . S
C924 H911 0.961 . S
C924 H912 0.959 . S
C924 C922 1.561 . S
C925 C922 1.526 . S
C925 C926 1.396 . S
C925 C930 1.390 . S
C926 C920 1.465 . S
C926 C925 1.396 . S
C926 C927 1.399 . S
C927 H913 0.929 . S
C927 C926 1.399 . S
C927 C928 1.385 . S
C928 H914 0.931 . S
C928 C927 1.385 . S
C928 C929 1.389 . S
C929 C928 1.389 . S
C929 C930 1.387 . S
C930 H915 0.930 . S
C930 C925 1.390 . S
C930 C929 1.387 . S
H931 C943 0.930 . S
H932 C945 0.930 . S
H933 C946 0.930 . S
H934 C950 0.959 1_565 S
H935 C950 0.959 1_565 S
H936 C950 0.956 1_565 S
H937 C951 0.960 . S
H938 C951 0.961 . S
H939 C951 0.959 . S
H940 C954 0.929 . S
H941 C955 0.931 . S
H942 C957 0.930 . S
C943 H931 0.930 . S
C943 C944 1.399 . S
C943 C948 1.399 . S
C944 C943 1.399 . S
C944 C945 1.376 . S
C945 H932 0.930 . S
C945 C944 1.376 . S
C945 C946 1.388 . S
C946 H933 0.930 . S
C946 C945 1.388 . S
C946 C947 1.390 . S
C947 C946 1.390 . S
C947 C948 1.394 . S
C947 C953 1.465 . S
C948 C943 1.399 . S
C948 C947 1.394 . S
C948 C949 1.516 . S
C949 C948 1.516 . S
C949 C950 1.502 . S
C949 C951 1.561 . S
C949 C952 1.526 . S
C950 H934 0.959 1_545 S
C950 H935 0.959 1_545 S
C950 H936 0.956 1_545 S
C950 C949 1.502 . S
C951 H937 0.960 . S
C951 H938 0.961 . S
C951 H939 0.959 . S
C951 C949 1.561 . S
C952 C949 1.526 . S
C952 C953 1.396 . S
C952 C957 1.390 . S
C953 C947 1.465 . S
C953 C952 1.396 . S
C953 C954 1.399 . S
C954 H940 0.929 . S
C954 C953 1.399 . S
C954 C955 1.385 . S
C955 H941 0.931 . S
C955 C954 1.385 . S
C955 C956 1.389 . S
C956 C955 1.389 . S
C956 C957 1.387 . S
C957 H942 0.930 . S
C957 C952 1.390 . S
C957 C956 1.387 . S
H958 C970 0.930 . S
H959 C972 0.930 . S
H960 C973 0.930 . S
H961 C977 0.959 . S
H962 C977 0.959 . S
H963 C977 0.961 . S
H964 C978 0.960 . S
H965 C978 0.961 . S
H966 C978 0.959 . S
H967 C981 0.929 . S
H968 C982 0.931 . S
H969 C984 0.930 . S
C970 H958 0.930 . S
C970 C971 1.399 . S
C970 C975 1.399 . S
C971 C970 1.399 . S
C971 C972 1.376 . S
C972 H959 0.930 . S
C972 C971 1.376 . S
C972 C973 1.388 . S
C973 H960 0.930 . S
C973 C972 1.388 . S
C973 C974 1.390 . S
C974 C973 1.390 . S
C974 C975 1.394 . S
C974 C980 1.465 . S
C975 C970 1.399 . S
C975 C974 1.394 . S
C975 C976 1.516 . S
C976 C975 1.516 . S
C976 C977 1.502 . S
C976 C978 1.561 . S
C976 C979 1.526 . S
C977 H961 0.959 . S
C977 H962 0.959 . S
C977 H963 0.961 . S
C977 C976 1.502 . S
C978 H964 0.960 . S
C978 H965 0.961 . S
C978 H966 0.959 . S
C978 C976 1.561 . S
C979 C976 1.526 . S
C979 C980 1.396 . S
C979 C984 1.390 . S
C980 C974 1.465 . S
C980 C979 1.396 . S
C980 C981 1.399 . S
C981 H967 0.929 . S
C981 C980 1.399 . S
C981 C982 1.385 . S
C982 H968 0.931 . S
C982 C981 1.385 . S
C982 C983 1.389 . S
C983 C982 1.389 . S
C983 C984 1.387 . S
C984 H969 0.930 . S
C984 C979 1.390 . S
C984 C983 1.387 . S
H985 C997 0.930 . S
H986 C999 0.930 . S
H987 C1000 0.930 . S
H988 C1004 0.959 . S
H989 C1004 0.959 . S
H990 C1004 0.961 . S
H991 C1005 0.960 . S
H992 C1005 0.961 . S
H993 C1005 0.959 . S
H994 C1008 0.929 . S
H995 C1009 0.931 . S
H996 C1011 0.930 . S
C997 H985 0.930 . S
C997 C998 1.399 . S
C997 C1002 1.399 . S
C998 C997 1.399 . S
C998 C999 1.376 . S
C999 H986 0.930 . S
C999 C998 1.376 . S
C999 C1000 1.388 . S
C1000 H987 0.930 . S
C1000 C999 1.388 . S
C1000 C1001 1.390 . S
C1001 C1000 1.390 . S
C1001 C1002 1.394 . S
C1001 C1007 1.465 . S
C1002 C997 1.399 . S
C1002 C1001 1.394 . S
C1002 C1003 1.516 . S
C1003 C1002 1.516 . S
C1003 C1004 1.502 . S
C1003 C1005 1.561 . S
C1003 C1006 1.526 . S
C1004 H988 0.959 . S
C1004 H989 0.959 . S
C1004 H990 0.961 . S
C1004 C1003 1.502 . S
C1005 H991 0.960 . S
C1005 H992 0.961 . S
C1005 H993 0.959 . S
C1005 C1003 1.561 . S
C1006 C1003 1.526 . S
C1006 C1007 1.396 . S
C1006 C1011 1.390 . S
C1007 C1001 1.465 . S
C1007 C1006 1.396 . S
C1007 C1008 1.399 . S
C1008 H994 0.929 . S
C1008 C1007 1.399 . S
C1008 C1009 1.385 . S
C1009 H995 0.931 . S
C1009 C1008 1.385 . S
C1009 C1010 1.389 . S
C1010 C1009 1.389 . S
C1010 C1011 1.387 . S
C1011 H996 0.930 . S
C1011 C1006 1.390 . S
C1011 C1010 1.387 . S
H1012 C1024 0.930 . S
H1013 C1026 0.930 1_455 S
H1014 C1027 0.930 . S
H1015 C1031 0.959 . S
H1016 C1031 0.959 . S
H1017 C1031 0.961 . S
H1018 C1032 0.960 . S
H1019 C1032 0.961 . S
H1020 C1032 0.959 . S
H1021 C1035 0.929 . S
H1022 C1036 0.931 . S
H1023 C1038 0.930 . S
C1024 H1012 0.930 . S
C1024 C1025 1.399 . S
C1024 C1029 1.399 . S
C1025 C1024 1.399 . S
C1025 C1026 1.376 . S
C1026 H1013 0.930 1_655 S
C1026 C1025 1.376 . S
C1026 C1027 1.388 1_655 S
C1027 H1014 0.930 . S
C1027 C1026 1.388 1_455 S
C1027 C1028 1.390 1_455 S
C1028 C1027 1.390 1_655 S
C1028 C1029 1.394 . S
C1028 C1034 1.465 . S
C1029 C1024 1.399 . S
C1029 C1028 1.394 . S
C1029 C1030 1.516 . S
C1030 C1029 1.516 . S
C1030 C1031 1.502 . S
C1030 C1032 1.561 . S
C1030 C1033 1.526 . S
C1031 H1015 0.959 . S
C1031 H1016 0.959 . S
C1031 H1017 0.961 . S
C1031 C1030 1.502 . S
C1032 H1018 0.960 . S
C1032 H1019 0.961 . S
C1032 H1020 0.959 . S
C1032 C1030 1.561 . S
C1033 C1030 1.526 . S
C1033 C1034 1.396 . S
C1033 C1038 1.390 . S
C1034 C1028 1.465 . S
C1034 C1033 1.396 . S
C1034 C1035 1.399 1_655 S
C1035 H1021 0.929 . S
C1035 C1034 1.399 1_455 S
C1035 C1036 1.385 . S
C1036 H1022 0.931 . S
C1036 C1035 1.385 . S
C1036 C1037 1.389 1_455 S
C1037 C1036 1.389 1_655 S
C1037 C1038 1.387 . S
C1038 H1023 0.930 . S
C1038 C1033 1.390 . S
C1038 C1037 1.387 . S
H1039 C1051 0.930 . S
H1040 C1053 0.930 . S
H1041 C1054 0.930 . S
H1042 C1058 0.959 . S
H1043 C1058 0.959 . S
H1044 C1058 0.961 . S
H1045 C1059 0.969 . S
H1046 C1059 0.961 1_545 S
H1047 C1059 0.959 . S
H1048 C1062 0.929 . S
H1049 C1063 0.931 . S
H1050 C1065 0.930 1_545 S
C1051 H1039 0.930 . S
C1051 C1052 1.399 . S
C1051 C1056 1.399 . S
C1052 C1051 1.399 . S
C1052 C1053 1.376 . S
C1053 H1040 0.930 . S
C1053 C1052 1.376 . S
C1053 C1054 1.388 . S
C1054 H1041 0.930 . S
C1054 C1053 1.388 . S
C1054 C1055 1.390 . S
C1055 C1054 1.390 . S
C1055 C1056 1.394 . S
C1055 C1061 1.465 . S
C1056 C1051 1.399 . S
C1056 C1055 1.394 . S
C1056 C1057 1.516 . S
C1057 C1056 1.516 . S
C1057 C1058 1.502 1_565 S
C1057 C1059 1.561 . S
C1057 C1060 1.526 . S
C1058 H1042 0.959 . S
C1058 H1043 0.959 . S
C1058 H1044 0.961 . S
C1058 C1057 1.502 1_545 S
C1059 H1045 0.969 . S
C1059 H1046 0.961 1_565 S
C1059 H1047 0.959 . S
C1059 C1057 1.561 . S
C1060 C1057 1.526 . S
C1060 C1061 1.396 . S
C1060 C1065 1.390 . S
C1061 C1055 1.465 . S
C1061 C1060 1.396 . S
C1061 C1062 1.399 . S
C1062 H1048 0.929 . S
C1062 C1061 1.399 . S
C1062 C1063 1.385 . S
C1063 H1049 0.931 . S
C1063 C1062 1.385 . S
C1063 C1064 1.389 . S
C1064 C1063 1.389 . S
C1064 C1065 1.387 . S
C1065 H1050 0.930 1_565 S
C1065 C1060 1.390 . S
C1065 C1064 1.387 . S
H1066 C1078 0.930 . S
H1067 C1080 0.930 . S
H1068 C1081 0.930 . S
H1069 C1085 0.959 . S
H1070 C1085 0.959 . S
H1071 C1085 0.961 . S
H1072 C1086 0.960 . S
H1073 C1086 0.961 . S
H1074 C1086 0.959 . S
H1075 C1089 0.929 . S
H1076 C1090 0.931 . S
H1077 C1092 0.930 . S
C1078 H1066 0.930 . S
C1078 C1079 1.399 . S
C1078 C1083 1.399 . S
C1079 C1078 1.399 . S
C1079 C1080 1.376 . S
C1080 H1067 0.930 . S
C1080 C1079 1.376 . S
C1080 C1081 1.388 . S
C1081 H1068 0.930 . S
C1081 C1080 1.388 . S
C1081 C1082 1.390 . S
C1082 C1081 1.390 . S
C1082 C1083 1.394 . S
C1082 C1088 1.465 . S
C1083 C1078 1.399 . S
C1083 C1082 1.394 . S
C1083 C1084 1.516 . S
C1084 C1083 1.516 . S
C1084 C1085 1.502 . S
C1084 C1086 1.561 . S
C1084 C1087 1.526 . S
C1085 H1069 0.959 . S
C1085 H1070 0.959 . S
C1085 H1071 0.961 . S
C1085 C1084 1.502 . S
C1086 H1072 0.960 . S
C1086 H1073 0.961 . S
C1086 H1074 0.959 . S
C1086 C1084 1.561 . S
C1087 C1084 1.526 . S
C1087 C1088 1.396 . S
C1087 C1092 1.390 . S
C1088 C1082 1.465 . S
C1088 C1087 1.396 . S
C1088 C1089 1.399 . S
C1089 H1075 0.929 . S
C1089 C1088 1.399 . S
C1089 C1090 1.385 . S
C1090 H1076 0.931 . S
C1090 C1089 1.385 . S
C1090 C1091 1.389 . S
C1091 C1090 1.389 . S
C1091 C1092 1.387 . S
C1092 H1077 0.930 . S
C1092 C1087 1.390 . S
C1092 C1091 1.387 . S
H1093 C1105 0.930 . S
H1094 C1107 0.930 . S
H1095 C1108 0.930 . S
H1096 C1112 0.959 . S
H1097 C1112 0.959 . S
H1098 C1112 0.961 . S
H1099 C1113 0.960 . S
H1100 C1113 0.961 . S
H1101 C1113 0.959 . S
H1102 C1116 0.929 . S
H1103 C1117 0.931 . S
H1104 C1119 0.930 . S
C1105 H1093 0.930 . S
C1105 C1106 1.399 . S
C1105 C1110 1.399 . S
C1106 C1105 1.399 . S
C1106 C1107 1.376 . S
C1107 H1094 0.930 . S
C1107 C1106 1.376 . S
C1107 C1108 1.388 . S
C1108 H1095 0.930 . S
C1108 C1107 1.388 . S
C1108 C1109 1.390 . S
C1109 C1108 1.390 . S
C1109 C1110 1.394 . S
C1109 C1115 1.465 . S
C1110 C1105 1.399 . S
C1110 C1109 1.394 . S
C1110 C1111 1.516 . S
C1111 C1110 1.516 . S
C1111 C1112 1.502 . S
C1111 C1113 1.561 . S
C1111 C1114 1.526 . S
C1112 H1096 0.959 . S
C1112 H1097 0.959 . S
C1112 H1098 0.961 . S
C1112 C1111 1.502 . S
C1113 H1099 0.960 . S
C1113 H1100 0.961 . S
C1113 H1101 0.959 . S
C1113 C1111 1.561 . S
C1114 C1111 1.526 . S
C1114 C1115 1.396 . S
C1114 C1119 1.390 . S
C1115 C1109 1.465 . S
C1115 C1114 1.396 . S
C1115 C1116 1.399 . S
C1116 H1102 0.929 . S
C1116 C1115 1.399 . S
C1116 C1117 1.385 . S
C1117 H1103 0.931 . S
C1117 C1116 1.385 . S
C1117 C1118 1.389 . S
C1118 C1117 1.389 . S
C1118 C1119 1.387 . S
C1119 H1104 0.930 . S
C1119 C1114 1.390 . S
C1119 C1118 1.387 . S
C485 C255 2.743 . S
C497 C343 2.925 . S
C524 C369 2.369 . S
C512 C294 2.147 . S
C551 C409 2.346 . S
C539 C177 2.182 . S
C578 C463 2.873 . S
C566 C216 2.678 . S
C605 C324 2.948 . S
C593 C99 2.716 . S
C620 C138 2.103 . S
C632 C354 2.389 . S
C647 C21 2.139 . S
C659 C394 2.352 . S
C674 C60 2.709 . S
C686 C444 2.854 1_655 S
C713 C320 0.536 1_655 S
C701 C196 0.315 . S
C740 C381 0.725 . S
C728 C235 0.574 . S
C767 C421 0.455 . S
C755 C289 0.382 . S
C782 C157 0.606 . S
C794 C440 0.215 . S
C809 C40 0.463 . S
C821 C341 0.352 . S
C848 C360 0.685 . S
C836 C79 0.654 . S
C875 C400 0.282 . S
C863 C133 0.326 . S
C890 C1 0.350 . S
C902 C461 0.420 . S
C917 C211 2.544 . S
C929 C314 2.885 . S
C944 C250 3.135 . S
C956 C364 3.507 . S
C983 C404 3.210 . S
C971 C274 2.913 . S
C1010 C434 2.581 . S
C998 C172 2.310 . S
C1025 C55 2.534 . S
C1037 C329 2.892 . S
C1064 C383 3.503 . S
C1052 C94 3.149 . S
C1091 C423 3.218 . S
C1079 C118 2.925 . S
C1106 C16 2.233 . S
C1118 C449 2.599 . S
