# Generated by pormake.
# Topology zzz, (3,6)-cn, num edge types: 1
# Building blocks:
#     Node 0, Type 0, BuildingBlock: BETDAH_clean_linker_0, # of connection points: 3
#     Node 1, Type 0, BuildingBlock: BETDAH_clean_linker_0, # of connection points: 3
#     Node 2, Type 0, BuildingBlock: BETDAH_clean_linker_0, # of connection points: 3
#     Node 3, Type 0, BuildingBlock: BETDAH_clean_linker_0, # of connection points: 3
#     Node 4, Type 0, BuildingBlock: BETDAH_clean_linker_0, # of connection points: 3
#     Node 5, Type 0, BuildingBlock: BETDAH_clean_linker_0, # of connection points: 3
#     Node 6, Type 0, BuildingBlock: BETDAH_clean_linker_0, # of connection points: 3
#     Node 7, Type 0, BuildingBlock: BETDAH_clean_linker_0, # of connection points: 3
#     Node 8, Type 1, BuildingBlock: NUHQIS_clean_sbu_0, # of connection points: 6
#     Node 9, Type 1, BuildingBlock: NUHQIS_clean_sbu_0, # of connection points: 6
#     Node 10, Type 1, BuildingBlock: NUHQIS_clean_sbu_0, # of connection points: 6
#     Node 11, Type 1, BuildingBlock: NUHQIS_clean_sbu_0, # of connection points: 6
#     Edge 12, Type (0, 1), BuildingBlock: XUDNAN_clean_linker_2, # of connection points: 2
#     Edge 13, Type (0, 1), BuildingBlock: XUDNAN_clean_linker_2, # of connection points: 2
#     Edge 14, Type (0, 1), BuildingBlock: XUDNAN_clean_linker_2, # of connection points: 2
#     Edge 15, Type (0, 1), BuildingBlock: XUDNAN_clean_linker_2, # of connection points: 2
#     Edge 16, Type (0, 1), BuildingBlock: XUDNAN_clean_linker_2, # of connection points: 2
#     Edge 17, Type (0, 1), BuildingBlock: XUDNAN_clean_linker_2, # of connection points: 2
#     Edge 18, Type (0, 1), BuildingBlock: XUDNAN_clean_linker_2, # of connection points: 2
#     Edge 19, Type (0, 1), BuildingBlock: XUDNAN_clean_linker_2, # of connection points: 2
#     Edge 20, Type (0, 1), BuildingBlock: XUDNAN_clean_linker_2, # of connection points: 2
#     Edge 21, Type (0, 1), BuildingBlock: XUDNAN_clean_linker_2, # of connection points: 2
#     Edge 22, Type (0, 1), BuildingBlock: XUDNAN_clean_linker_2, # of connection points: 2
#     Edge 23, Type (0, 1), BuildingBlock: XUDNAN_clean_linker_2, # of connection points: 2
#     Edge 24, Type (0, 1), BuildingBlock: XUDNAN_clean_linker_2, # of connection points: 2
#     Edge 25, Type (0, 1), BuildingBlock: XUDNAN_clean_linker_2, # of connection points: 2
#     Edge 26, Type (0, 1), BuildingBlock: XUDNAN_clean_linker_2, # of connection points: 2
#     Edge 27, Type (0, 1), BuildingBlock: XUDNAN_clean_linker_2, # of connection points: 2
#     Edge 28, Type (0, 1), BuildingBlock: XUDNAN_clean_linker_2, # of connection points: 2
#     Edge 29, Type (0, 1), BuildingBlock: XUDNAN_clean_linker_2, # of connection points: 2
#     Edge 30, Type (0, 1), BuildingBlock: XUDNAN_clean_linker_2, # of connection points: 2
#     Edge 31, Type (0, 1), BuildingBlock: XUDNAN_clean_linker_2, # of connection points: 2
#     Edge 32, Type (0, 1), BuildingBlock: XUDNAN_clean_linker_2, # of connection points: 2
#     Edge 33, Type (0, 1), BuildingBlock: XUDNAN_clean_linker_2, # of connection points: 2
#     Edge 34, Type (0, 1), BuildingBlock: XUDNAN_clean_linker_2, # of connection points: 2
#     Edge 35, Type (0, 1), BuildingBlock: XUDNAN_clean_linker_2, # of connection points: 2
# Relax obj value: 0.254
# Max RMSD: 0.157
# Mean RMSD: 0.138
data_MOF--net-zzz--node1-NUHQIS_clean_sbu_0--node2-BETDAH_clean_linker_0--edge1-XUDNAN_clean_linker_2
_symmetry_space_group_name_H-M    P1
_symmetry_Int_Tables_number       1
_symmetry_cell_setting            triclinic
loop_
_symmetry_equiv_pos_as_xyz
'x, y, z'
_cell_length_a     52.393796
_cell_length_b     52.234312
_cell_length_c     14.038122
_cell_angle_alpha  89.7712
_cell_angle_beta   89.627088
_cell_angle_gamma 89.877763
loop_
_atom_site_label
_atom_site_type_symbol
_atom_site_fract_x
_atom_site_fract_y
_atom_site_fract_z
_atom_type_partial_charge
H0 H 0.81243 0.47155 0.36088 0.0
H1 H 0.73814 0.48331 0.24321 0.0
H2 H 0.76444 0.53147 0.4723 0.0
C3 C 0.79445 0.48193 0.36148 0.0
C4 C 0.79108 0.50247 0.42403 0.0
C5 C 0.7754 0.47496 0.29729 0.0
C6 C 0.75242 0.48858 0.29493 0.0
C7 C 0.74809 0.50889 0.35893 0.0
C8 C 0.76747 0.51559 0.42412 0.0
N9 N 0.72481 0.52312 0.35766 0.0
C10 C 0.70604 0.52025 0.28813 0.0
H11 H 0.96958 0.80953 0.3772 0.0
H12 H 0.97906 0.73358 0.26797 0.0
H13 H 0.02806 0.76097 0.49139 0.0
C14 C 0.97822 0.79068 0.3828 0.0
C15 C 0.99871 0.78737 0.44494 0.0
C16 C 0.97161 0.77169 0.317 0.0
C17 C 0.9841 0.74794 0.31982 0.0
C18 C 1.00414 0.74353 0.38431 0.0
C19 C 1.01167 0.76359 0.44569 0.0
N20 N 0.01801 0.7199 0.38421 0.0
C21 C 0.01497 0.70058 0.31617 0.0
H22 H 0.71724 0.05346 0.3795 0.0
H23 H 0.78881 0.04439 0.23477 0.0
H24 H 0.76799 0.99239 0.4619 0.0
C25 C 0.73549 0.04372 0.37436 0.0
C26 C 0.74028 0.0222 0.43167 0.0
C27 C 0.75291 0.05177 0.30429 0.0
C28 C 0.77579 0.03832 0.29066 0.0
C29 C 0.78158 0.01701 0.34839 0.0
C30 C 0.7637 1.00904 0.41857 0.0
N31 N 0.80482 1.00299 0.3364 0.0
C32 C 0.82253 1.007 0.26265 0.0
H33 H 0.5489 0.71382 0.37436 0.0
H34 H 0.54433 0.79313 0.29976 0.0
H35 H 0.51856 0.76735 0.57731 0.0
C36 C 0.54431 0.73332 0.39422 0.0
C37 C 0.53318 0.7378 0.4835 0.0
C38 C 0.5481 0.75304 0.32761 0.0
C39 C 0.54162 0.77812 0.35221 0.0
C40 C 0.53119 0.78365 0.44269 0.0
C41 C 0.52721 0.76335 0.50867 0.0
N42 N 0.52361 0.80916 0.46643 0.0
C43 C 0.52187 0.82883 0.39862 0.0
H44 H 0.20983 0.55169 0.14902 0.0
H45 H 0.28492 0.54573 0.26825 0.0
H46 H 0.25935 0.49066 0.06155 0.0
C47 C 0.22853 0.54281 0.14997 0.0
C48 C 0.23255 0.521 0.09425 0.0
C49 C 0.24725 0.5521 0.21224 0.0
C50 C 0.27052 0.53885 0.2197 0.0
C51 C 0.27502 0.51658 0.16565 0.0
C52 C 0.25599 0.50786 0.1027 0.0
N53 N 0.29817 0.50234 0.17443 0.0
C54 C 0.31631 0.50614 0.24566 0.0
H55 H 0.97463 0.21138 0.12577 0.0
H56 H 0.97981 0.28681 0.24455 0.0
H57 H 0.03965 0.25807 0.06087 0.0
C58 C 0.98416 0.22973 0.12993 0.0
C59 C 1.00751 0.23265 0.08219 0.0
C60 C 0.9739 0.24906 0.18829 0.0
C61 C 0.98761 0.2719 0.19961 0.0
C62 C 1.01148 0.27531 0.15442 0.0
C63 C 0.02128 0.25558 0.09551 0.0
N64 N 0.02614 0.29804 0.16832 0.0
C65 C 0.02015 0.31727 0.23422 0.0
H66 H 0.32211 0.03438 0.20515 0.0
H67 H 0.243 0.03466 0.27615 0.0
H68 H 0.26658 0.0281 0.98148 0.0
C69 C 0.30254 0.03484 0.18081 0.0
C70 C 0.2974 0.0325 0.08327 0.0
C71 C 0.28303 0.03603 0.24942 0.0
C72 C 0.25769 0.03407 0.22168 0.0
C73 C 0.25144 0.0309 0.12519 0.0
C74 C 0.27139 0.03037 0.05585 0.0
N75 N 0.22539 0.02765 0.09778 0.0
C76 C 0.2054 0.02477 0.16401 0.0
H77 H 0.55291 0.31422 0.19035 0.0
H78 H 0.54478 0.24002 0.31902 0.0
H79 H 0.49375 0.26381 0.09432 0.0
C80 C 0.54313 0.29593 0.19399 0.0
C81 C 0.52234 0.29149 0.13445 0.0
C82 C 0.55138 0.2774 0.25931 0.0
C83 C 0.53862 0.25393 0.2665 0.0
C84 C 0.5178 0.24874 0.20654 0.0
C85 C 0.50985 0.2676 0.14013 0.0
N86 N 0.50419 0.22514 0.21267 0.0
C87 C 0.51154 0.20391 0.26728 0.0
Tb88 Tb 0.02743 1.00304 0.80397 0.0
Eu89 Eu 0.99831 0.02626 0.62099 0.0
C90 C 0.05936 0.01702 0.61269 0.0
C91 C 0.02226 0.06248 0.78608 0.0
C92 C 0.03405 0.95205 0.96671 0.0
C93 C 0.01841 0.91063 0.91421 0.0
C94 C 0.03395 0.93191 0.90023 0.0
C95 C 0.01935 0.94963 0.05017 0.0
C96 C 1.00382 0.92819 0.06436 0.0
C97 C 1.00269 0.90878 0.9952 0.0
C98 C 0.04472 0.9772 0.93924 0.0
O99 O 0.98998 1.01479 0.8587 0.0
O100 O 0.968 1.01081 0.72053 0.0
O101 O 1.01029 0.98592 0.58156 0.0
O102 O 1.00714 0.97173 0.73397 0.0
C103 C 0.96827 1.01253 0.81359 0.0
O104 O 0.96337 0.02744 0.5361 0.0
O105 O 0.99509 0.05224 0.50027 0.0
O106 O 0.03938 0.02781 0.57311 0.0
O107 O 0.05807 1.00577 0.69697 0.0
O108 O 0.03734 0.04352 0.81184 0.0
O109 O 1.0032 0.05871 0.72699 0.0
C110 C 1.00901 0.9669 0.6427 0.0
O111 O 0.05576 0.97825 0.85591 0.0
O112 O 0.02946 0.99665 0.95205 0.0
C113 C 0.95394 0.06998 0.49163 0.0
C114 C 0.92437 0.11524 0.48732 0.0
C115 C 0.91709 0.0936 0.43419 0.0
C116 C 0.93188 0.07122 0.43591 0.0
C117 C 0.96008 0.0907 0.55037 0.0
C118 C 0.94567 0.11309 0.54765 0.0
C119 C 0.97089 0.04749 0.48805 0.0
H120 H 0.01809 0.89609 0.85961 0.0
H121 H 0.04478 0.93312 0.83439 0.0
H122 H 0.01889 0.96491 0.10216 0.0
H123 H 0.99245 0.927 0.12893 0.0
H124 H 0.90055 0.09425 0.38846 0.0
H125 H 0.9265 0.05517 0.3919 0.0
H126 H 0.97676 0.09005 0.59558 0.0
H127 H 0.9524 0.12918 0.58862 0.0
Tb128 Tb 0.52935 0.02546 0.86744 0.0
Eu129 Eu 0.51676 0.98714 0.69229 0.0
C130 C 0.52528 0.04719 0.65792 0.0
C131 C 0.47195 1.01411 0.81749 0.0
C132 C 0.56505 0.07495 0.9938 0.0
C133 C 0.60347 0.0914 0.91794 0.0
C134 C 0.58022 0.07848 0.912 0.0
C135 C 0.57233 0.08616 0.07972 0.0
C136 C 0.59554 0.09915 0.08571 0.0
C137 C 0.61188 0.10094 1.00584 0.0
C138 C 0.54398 0.05653 0.99293 0.0
O139 O 0.52721 0.98808 0.94103 0.0
O140 O 0.51569 0.96129 0.81893 0.0
O141 O 0.55797 0.9797 0.72334 0.0
O142 O 0.5649 0.01952 0.78453 0.0
C143 C 0.52078 0.96529 0.90889 0.0
O144 O 0.49624 0.95417 0.63704 0.0
O145 O 0.51943 0.97693 0.54125 0.0
O146 O 0.52997 0.02413 0.62602 0.0
O147 O 0.51941 0.05088 0.74802 0.0
O148 O 0.48834 0.01864 0.8861 0.0
O149 O 0.47982 1.00711 0.73239 0.0
C150 C 0.57361 0.99825 0.74556 0.0
O151 O 0.52546 0.06131 0.934 0.0
O152 O 0.55122 0.0327 0.98869 0.0
C153 C 0.4764 0.97 0.50336 0.0
C154 C 0.42537 0.98701 0.50258 0.0
C155 C 0.43129 0.96103 0.48575 0.0
C156 C 0.45665 0.95253 0.48753 0.0
C157 C 0.47067 0.99622 0.50831 0.0
C158 C 0.44554 1.00456 0.51018 0.0
C159 C 0.49996 0.96146 0.54921 0.0
H160 H 0.61555 0.09259 0.85515 0.0
H161 H 0.57482 0.06992 0.84493 0.0
H162 H 0.56089 0.08347 0.14356 0.0
H163 H 0.60154 0.10594 0.15483 0.0
H164 H 0.41639 0.94701 0.47566 0.0
H165 H 0.46061 0.93218 0.48462 0.0
H166 H 0.48545 1.01018 0.5222 0.0
H167 H 0.4422 0.02461 0.52475 0.0
Tb168 Tb 0.49859 0.51687 0.85982 0.0
Eu169 Eu 0.52755 0.50296 0.65977 0.0
C170 C 0.4662 0.50842 0.66638 0.0
C171 C 0.50826 0.45868 0.81416 0.0
C172 C 0.48917 0.56137 0.04363 0.0
C173 C 0.48312 0.60715 0.06131 0.0
C174 C 0.47299 0.58245 0.05718 0.0
C175 C 0.51574 0.56517 0.0424 0.0
C176 C 0.52582 0.58977 0.04588 0.0
C177 C 0.50959 0.61115 0.05099 0.0
C178 C 0.47889 0.53778 1.00236 0.0
O179 O 0.53723 0.50825 0.90722 0.0
O180 O 0.55854 0.51234 0.76487 0.0
O181 O 0.51664 0.54467 0.64601 0.0
O182 O 0.51823 0.55105 0.80568 0.0
C183 C 0.55853 0.51032 0.85811 0.0
O184 O 0.56036 0.50831 0.56512 0.0
O185 O 0.53149 0.48025 0.53077 0.0
O186 O 0.4868 0.50627 0.61344 0.0
O187 O 0.46718 0.51076 0.75981 0.0
O188 O 0.4953 0.47542 0.86502 0.0
O189 O 0.52249 0.46542 0.74039 0.0
C190 C 0.51771 0.56028 0.71864 0.0
O191 O 0.47035 0.54105 0.91619 0.0
O192 O 0.49322 0.51737 0.0087 0.0
C193 C 0.57385 0.46826 0.50789 0.0
C194 C 0.60154 0.42221 0.50153 0.0
C195 C 0.59629 0.43393 0.58928 0.0
C196 C 0.58262 0.45687 0.59242 0.0
C197 C 0.58047 0.45753 0.42001 0.0
C198 C 0.59449 0.43475 0.41673 0.0
C199 C 0.55452 0.48853 0.51315 0.0
H200 H 0.47011 0.62316 0.06884 0.0
H201 H 0.45246 0.58001 0.05715 0.0
H202 H 0.52874 0.54935 0.03033 0.0
H203 H 0.54626 0.59199 0.03763 0.0
H204 H 0.60131 0.4245 0.65545 0.0
H205 H 0.57741 0.46479 0.6611 0.0
H206 H 0.57336 0.46577 0.35446 0.0
H207 H 0.59785 0.42583 0.34822 0.0
Tb208 Tb 1.00291 0.49344 0.86161 0.0
Eu209 Eu 0.01999 0.527 0.67743 0.0
C210 C 1.0096 0.46692 0.66139 0.0
C211 C 0.06124 0.50436 0.8235 0.0
C212 C 0.96418 0.44935 0.99841 0.0
C213 C 0.92567 0.43486 0.92014 0.0
C214 C 0.94953 0.44657 0.91571 0.0
C215 C 0.95541 0.43895 0.08457 0.0
C216 C 0.93148 0.4272 0.08912 0.0
C217 C 0.91602 0.42585 0.00751 0.0
C218 C 0.98719 0.46521 0.99527 0.0
O219 O 0.01459 0.53052 0.92036 0.0
O220 O 1.00334 0.55327 0.78885 0.0
O221 O 0.97849 0.51813 0.65001 0.0
O222 O 0.96728 0.50941 0.80533 0.0
C223 C 1.00858 0.55247 0.88005 0.0
O224 O 0.02285 0.56486 0.61125 0.0
O225 O 0.03781 0.53183 0.53761 0.0
O226 O 0.02486 0.48548 0.63363 0.0
O227 O 0.99521 0.46962 0.73767 0.0
O228 O 0.04406 0.48745 0.84993 0.0
O229 O 0.05492 0.52421 0.77106 0.0
C230 C 0.96099 0.51442 0.71634 0.0
O231 O 1.00442 0.45814 0.93341 0.0
O232 O 0.98289 0.48978 0.99098 0.0
C233 C 0.06221 0.56955 0.53363 0.0
C234 C 0.11011 0.59398 0.52294 0.0
C235 C 0.08851 0.60512 0.47993 0.0
C236 C 0.0647 0.59298 0.48542 0.0
C237 C 0.08352 0.55879 0.57854 0.0
C238 C 0.10717 0.57074 0.57281 0.0
C239 C 0.03734 0.55677 0.542 0.0
H240 H 0.91421 0.43406 0.85628 0.0
H241 H 0.95599 0.45456 0.84851 0.0
H242 H 0.96648 0.44103 0.149 0.0
H243 H 0.92437 0.4208 0.1578 0.0
H244 H 0.09006 0.62303 0.44118 0.0
H245 H 0.04831 0.60179 0.45179 0.0
H246 H 0.08201 0.54083 0.61701 0.0
H247 H 0.12335 0.56108 0.60449 0.0
H248 H 0.15545 0.04092 0.16897 0.0
H249 H 0.21301 1.0002 0.33038 0.0
H250 H 0.18227 0.99439 0.46332 0.0
H251 H 0.12629 0.07399 0.3675 0.0
H252 H 0.09416 0.07096 0.32389 0.0
H253 H 0.12059 0.07198 0.24123 0.0
H254 H 0.10617 0.0289 0.1687 0.0
H255 H 0.07965 0.02781 0.25094 0.0
H256 H 0.10187 1.00147 0.24543 0.0
H257 H 0.14537 0.99328 0.57964 0.0
H258 H 0.10482 0.99576 0.66925 0.0
H259 H 0.0703 0.03676 0.43295 0.0
C260 C 0.16146 0.03075 0.23238 0.0
C261 C 0.18661 0.02105 0.23992 0.0
C262 C 0.19385 1.00783 0.32357 0.0
C263 C 0.17651 1.00444 0.39939 0.0
C264 C 0.15186 1.0143 0.39042 0.0
C265 C 0.14424 0.02708 0.30888 0.0
C266 C 0.11651 0.03553 0.31756 0.0
C267 C 0.11427 0.06486 0.31224 0.0
C268 C 0.10008 0.02266 0.24112 0.0
C269 C 0.1098 0.02563 0.41668 0.0
C270 C 0.1305 1.01348 0.45736 0.0
C271 C 0.12903 1.00275 0.54835 0.0
C272 C 0.10583 1.0043 0.59892 0.0
C273 C 0.08415 0.01649 0.55888 0.0
C274 C 0.08639 0.02735 0.46626 0.0
H275 H 0.49892 0.18904 0.44914 0.0
H276 H 0.53813 0.16473 0.19221 0.0
H277 H 0.54699 0.12257 0.26634 0.0
H278 H 0.54131 0.15585 0.61767 0.0
H279 H 0.51574 0.14734 0.69818 0.0
H280 H 0.51342 0.17598 0.62672 0.0
H281 H 0.47048 0.16012 0.55849 0.0
H282 H 0.47273 0.13141 0.62944 0.0
H283 H 0.46905 0.1292 0.50217 0.0
H284 H 0.54948 0.08241 0.36423 0.0
H285 H 0.54709 0.0472 0.48091 0.0
H286 H 0.50704 0.09699 0.67897 0.0
C287 C 0.50965 0.17487 0.40934 0.0
C288 C 0.51806 0.18005 0.31523 0.0
C289 C 0.53174 0.1611 0.26457 0.0
C290 C 0.5368 0.13711 0.3061 0.0
C291 C 0.52809 0.13239 0.39869 0.0
C292 C 0.51495 0.15075 0.45016 0.0
C293 C 0.50736 0.14043 0.54788 0.0
C294 C 0.52023 0.15582 0.62731 0.0
C295 C 0.47817 0.14028 0.56018 0.0
C296 C 0.51799 0.11333 0.54282 0.0
C297 C 0.52984 0.10919 0.45595 0.0
C298 C 0.54042 0.08552 0.43274 0.0
C299 C 0.53888 0.06555 0.49971 0.0
C300 C 0.52694 0.06918 0.5897 0.0
C301 C 0.51649 0.09357 0.61139 0.0
H302 H 0.36807 0.50335 0.22782 0.0
H303 H 0.30678 0.51356 0.43276 0.0
H304 H 0.3384 0.51535 0.5634 0.0
H305 H 0.40743 0.46294 0.3729 0.0
H306 H 0.43715 0.47668 0.3327 0.0
H307 H 0.40983 0.47688 0.25549 0.0
H308 H 0.41338 0.52612 0.23742 0.0
H309 H 0.44078 0.52604 0.31423 0.0
H310 H 0.41358 0.54585 0.34248 0.0
H311 H 0.37685 0.51493 0.67202 0.0
H312 H 0.41889 0.51359 0.75015 0.0
H313 H 0.45555 0.50388 0.47422 0.0
C314 C 0.36143 0.50616 0.30027 0.0
C315 C 0.33509 0.50842 0.32087 0.0
C316 C 0.32694 0.51189 0.41606 0.0
C317 C 0.34476 0.51289 0.4905 0.0
C318 C 0.37067 0.51042 0.46834 0.0
C319 C 0.37902 0.50725 0.37543 0.0
C320 C 0.40792 0.50493 0.37104 0.0
C321 C 0.41605 0.4788 0.33065 0.0
C322 C 0.4196 0.52705 0.31285 0.0
C323 C 0.41452 0.5071 0.4759 0.0
C324 C 0.39276 0.51026 0.53078 0.0
C325 C 0.39401 0.51253 0.6296 0.0
C326 C 0.41806 0.5117 0.67345 0.0
C327 C 0.44073 0.50861 0.61886 0.0
C328 C 0.43873 0.50625 0.51852 0.0
H329 H 0.03928 0.36595 0.23963 0.0
H330 H 0.98926 0.31304 0.38828 0.0
H331 H 0.98056 0.34589 0.51107 0.0
H332 H 0.06682 0.39424 0.44799 0.0
H333 H 0.06822 0.42618 0.39919 0.0
H334 H 0.06986 0.39894 0.32111 0.0
H335 H 0.03134 0.41643 0.22601 0.0
H336 H 0.02959 0.44376 0.30376 0.0
H337 H 1.00197 0.42376 0.28782 0.0
H338 H 0.97783 0.38409 0.619 0.0
H339 H 0.98126 0.42465 0.70628 0.0
H340 H 0.03358 0.45368 0.4904 0.0
C341 C 0.02639 0.36144 0.2979 0.0
C342 C 0.01475 0.33705 0.30453 0.0
C343 C 0.99817 0.33166 0.38176 0.0
C344 C 0.99316 0.35021 0.45182 0.0
C345 C 1.00493 0.3741 0.44373 0.0
C346 C 0.0212 0.37982 0.36875 0.0
C347 C 0.03164 0.40688 0.37814 0.0
C348 C 0.06087 0.40653 0.38715 0.0
C349 C 0.02312 0.4237 0.29393 0.0
C350 C 0.01894 0.41537 0.47061 0.0
C351 C 1.00351 0.39615 0.5067 0.0
C352 C 0.98983 0.39926 0.59127 0.0
C353 C 0.99194 0.4225 0.64047 0.0
C354 C 1.00772 0.44259 0.60579 0.0
C355 C 0.02137 0.43883 0.51924 0.0
H356 H 0.8746 1.004 0.27145 0.0
H357 H 0.81153 1.0155 0.07781 0.0
H358 H 0.84196 0.01829 0.94216 0.0
H359 H 0.91887 0.04737 0.1537 0.0
H360 H 0.9465 0.0275 0.17413 0.0
H361 H 0.91989 0.0264 0.25592 0.0
H362 H 0.91637 0.97752 0.23289 0.0
H363 H 0.94296 0.9783 0.15093 0.0
H364 H 0.91296 0.96479 0.11446 0.0
H365 H 0.87913 0.01854 0.82714 0.0
H366 H 0.92024 0.01795 0.74086 0.0
H367 H 0.96005 1.00715 0.00837 0.0
C368 C 0.86732 1.00726 0.20038 0.0
C369 C 0.84077 1.00964 0.18452 0.0
C370 C 0.83181 1.01373 0.09101 0.0
C371 C 0.84896 1.01529 0.0137 0.0
C372 C 0.87506 1.01274 0.03116 0.0
C373 C 0.88426 1.00891 0.12223 0.0
C374 C 0.91325 1.00674 0.12108 0.0
C375 C 0.92534 0.0283 0.17964 0.0
C376 C 0.92188 0.98026 0.15697 0.0
C377 C 0.9189 1.01 0.01533 0.0
C378 C 0.89655 1.01327 0.96486 0.0
C379 C 0.89673 0.0161 0.86608 0.0
C380 C 0.92027 1.01566 0.81756 0.0
C381 C 0.94355 1.01257 0.86739 0.0
C382 C 0.9427 1.00973 0.96794 0.0
H383 H 0.53236 0.8806 0.39291 0.0
H384 H 0.50567 0.81673 0.22454 0.0
H385 H 0.50193 0.8451 0.08415 0.0
H386 H 0.49094 0.92912 0.28221 0.0
H387 H 0.51471 0.95399 0.28556 0.0
H388 H 0.51481 0.9289 0.37404 0.0
H389 H 0.56168 0.9182 0.33027 0.0
H390 H 0.56164 0.94311 0.24115 0.0
H391 H 0.56987 0.91077 0.2085 0.0
H392 H 0.50202 0.87912 0.96228 0.0
H393 H 0.50529 0.91729 0.86187 0.0
H394 H 0.5317 0.9613 0.10434 0.0
C395 C 0.52562 0.87277 0.32636 0.0
C396 C 0.51928 0.84649 0.3189 0.0
C397 C 0.51059 0.83678 0.23125 0.0
C398 C 0.5084 0.85277 0.15128 0.0
C399 C 0.51485 0.87853 0.16018 0.0
C400 C 0.52319 0.88864 0.24526 0.0
C401 C 0.52901 0.9171 0.2338 0.0
C402 C 0.51131 0.93323 0.29767 0.0
C403 C 0.55723 0.92261 0.25466 0.0
C404 C 0.52301 0.92121 0.12867 0.0
C405 C 0.51479 0.89858 0.0885 0.0
C406 C 0.50836 0.89698 0.99289 0.0
C407 C 0.51037 0.91897 0.93622 0.0
C408 C 0.51883 0.94262 0.97432 0.0
C409 C 0.52515 0.94367 0.07257 0.0
H410 H 0.65404 0.52261 0.30308 0.0
H411 H 0.71638 0.51211 0.10269 0.0
H412 H 0.6854 0.50813 0.97094 0.0
H413 H 0.61044 0.47783 0.19431 0.0
H414 H 0.58244 0.49707 0.21643 0.0
H415 H 0.60941 0.49912 0.29503 0.0
H416 H 0.61143 0.54806 0.26725 0.0
H417 H 0.58447 0.54618 0.18859 0.0
H418 H 0.61388 0.56036 0.14735 0.0
H419 H 0.64775 0.50599 0.86094 0.0
H420 H 0.6062 0.50507 0.77976 0.0
H421 H 0.56758 0.51638 0.05108 0.0
C422 C 0.66104 0.51941 0.23132 0.0
C423 C 0.68751 0.51761 0.21233 0.0
C424 C 0.69613 0.51349 0.11811 0.0
C425 C 0.67868 0.51123 0.04304 0.0
C426 C 0.65265 0.51313 0.06358 0.0
C427 C 0.6438 0.5171 0.15539 0.0
C428 C 0.61481 0.51845 0.15769 0.0
C429 C 0.60363 0.49682 0.21952 0.0
C430 C 0.60561 0.54483 0.19227 0.0
C431 C 0.60875 0.51456 0.05305 0.0
C432 C 0.63089 0.51164 1.00011 0.0
C433 C 0.6303 0.5082 0.90176 0.0
C434 C 0.60653 0.50776 0.85621 0.0
C435 C 0.58348 0.51062 0.90868 0.0
C436 C 0.58475 0.51398 0.00872 0.0
H437 H 0.02608 0.64914 0.32531 0.0
H438 H 0.9979 0.70897 0.13839 0.0
H439 H 0.99277 0.67736 0.00941 0.0
H440 H 0.06208 0.61484 0.14306 0.0
H441 H 0.05482 0.5836 0.19087 0.0
H442 H 0.05604 0.61089 0.26877 0.0
H443 H 1.01007 0.60086 0.32734 0.0
H444 H 1.00883 0.57372 0.24872 0.0
H445 H 0.98473 0.59833 0.24165 0.0
H446 H 0.99078 0.63994 0.90082 0.0
H447 H 0.99237 0.59898 0.81613 0.0
H448 H 0.02225 0.56177 0.06951 0.0
C449 C 0.01875 0.65544 0.25715 0.0
C450 C 1.0121 0.68145 0.24171 0.0
C451 C 1.00281 0.68913 0.15179 0.0
C452 C 0.9999 0.6713 0.07808 0.0
C453 C 1.0065 0.6458 0.09515 0.0
C454 C 0.01581 0.63778 0.1822 0.0
C455 C 0.02177 0.60918 0.18034 0.0
C456 C 0.05037 0.60435 0.19673 0.0
C457 C 1.00537 0.59467 0.25388 0.0
C458 C 0.01417 0.60242 0.07886 0.0
C459 C 1.00548 0.62395 0.03148 0.0
C460 C 0.99754 0.62295 0.93719 0.0
C461 C 0.99854 0.59944 0.88957 0.0
C462 C 1.0074 0.57688 0.93558 0.0
C463 C 0.01526 0.57851 0.03207 0.0
H464 H 0.93206 0.22215 0.13341 0.0
H465 H 0.96405 0.26152 0.37535 0.0
H466 H 0.9356 0.23764 0.48234 0.0
H467 H 0.86722 0.19853 0.25491 0.0
H468 H 0.8717 0.16803 0.19757 0.0
H469 H 0.88089 0.19713 0.13689 0.0
H470 H 0.92641 0.17882 0.11205 0.0
H471 H 0.91741 0.15008 0.17199 0.0
H472 H 0.94431 0.16821 0.21429 0.0
H473 H 0.91752 0.20086 0.56553 0.0
H474 H 0.91816 0.1556 0.61257 0.0
H475 H 0.90594 0.13388 0.31873 0.0
C476 C 0.93221 0.22641 0.20878 0.0
C477 C 0.95063 0.24324 0.24601 0.0
C478 C 0.95007 0.24884 0.34447 0.0
C479 C 0.93385 0.2352 0.40614 0.0
C480 C 0.9186 0.21581 0.36861 0.0
C481 C 0.91756 0.21152 0.27127 0.0
C482 C 0.90695 0.18518 0.24982 0.0
C483 C 0.88009 0.18736 0.20732 0.0
C484 C 0.92486 0.1697 0.18342 0.0
C485 C 0.90574 0.17404 0.3495 0.0
C486 C 0.91038 0.19262 0.41728 0.0
C487 C 0.91356 0.18629 0.51307 0.0
C488 C 0.91426 0.16039 0.53898 0.0
C489 C 0.91308 0.14104 0.46865 0.0
C490 C 0.90674 0.14807 0.3744 0.0
H491 H 0.31403 0.06932 0.33569 0.0
H492 H 0.26971 1.00105 0.385 0.0
H493 H 0.29863 0.98826 0.51355 0.0
H494 H 0.3636 0.04247 0.30496 0.0
H495 H 0.38675 0.06331 0.35896 0.0
H496 H 0.35684 0.07605 0.32231 0.0
H497 H 0.3475 0.09249 0.49283 0.0
H498 H 0.37808 0.08023 0.53009 0.0
H499 H 0.34946 0.07083 0.59283 0.0
H500 H 0.33916 0.97343 0.57612 0.0
H501 H 0.38408 0.95995 0.57444 0.0
H502 H 0.4054 0.03421 0.45968 0.0
C503 C 0.30966 0.0527 0.37911 0.0
C504 C 0.29021 0.03597 0.35074 0.0
C505 C 0.28459 1.01415 0.40644 0.0
C506 C 0.3011 1.00672 0.47954 0.0
C507 C 0.323 0.02132 0.49508 0.0
C508 C 0.32696 0.04447 0.448 0.0
C509 C 0.35463 0.05264 0.45327 0.0
C510 C 0.36608 0.05891 0.35405 0.0
C511 C 0.35758 0.07539 0.52136 0.0
C512 C 0.36616 0.02872 0.49575 0.0
C513 C 0.3476 1.01169 0.52575 0.0
C514 C 0.35382 0.98691 0.55504 0.0
C515 C 0.37942 0.97917 0.55131 0.0
C516 C 0.39852 0.99586 0.51535 0.0
C517 C 0.39163 0.02112 0.48999 0.0
H518 H 0.54623 0.29129 0.44218 0.0
H519 H 0.60148 0.28277 0.21529 0.0
H520 H 0.6302 0.3129 0.2953 0.0
H521 H 0.54511 0.35021 0.44751 0.0
H522 H 0.54253 0.35676 0.57329 0.0
H523 H 0.53251 0.32648 0.52886 0.0
H524 H 0.56319 0.30304 0.64353 0.0
H525 H 0.57309 0.33356 0.6901 0.0
H526 H 0.59656 0.31137 0.64477 0.0
H527 H 0.64285 0.35435 0.35456 0.0
H528 H 0.63985 0.40011 0.39608 0.0
H529 H 0.57791 0.3833 0.59128 0.0
C530 C 0.56528 0.29437 0.41419 0.0
C531 C 0.57205 0.28454 0.32435 0.0
C532 C 0.59641 0.28972 0.28555 0.0
C533 C 0.61278 0.30692 0.33062 0.0
C534 C 0.60452 0.3186 0.41465 0.0
C535 C 0.58158 0.31191 0.4581 0.0
C536 C 0.57426 0.33103 0.53461 0.0
C537 C 0.54704 0.34176 0.51993 0.0
C538 C 0.57696 0.31903 0.63415 0.0
C539 C 0.59452 0.35122 0.51785 0.0
C540 C 0.61245 0.34325 0.45132 0.0
C541 C 0.62972 0.36042 0.40988 0.0
C542 C 0.62786 0.38643 0.43336 0.0
C543 C 0.60898 0.39494 0.49811 0.0
C544 C 0.59313 0.37695 0.54444 0.0
H545 H 0.21905 0.59447 0.17018 0.0
H546 H 0.25844 0.55708 0.40252 0.0
H547 H 0.2331 0.58181 0.51721 0.0
H548 H 0.19332 0.65536 0.30964 0.0
H549 H 0.16322 0.65172 0.24976 0.0
H550 H 0.19266 0.64452 0.18794 0.0
H551 H 0.17552 0.59932 0.14901 0.0
H552 H 0.14646 0.60625 0.21055 0.0
H553 H 0.16514 0.57873 0.24512 0.0
H554 H 0.19552 0.59662 0.60369 0.0
H555 H 0.15018 0.59506 0.64857 0.0
H556 H 0.1294 0.6152 0.35966 0.0
C557 C 0.22301 0.59239 0.2454 0.0
C558 C 0.24033 0.57351 0.27727 0.0
C559 C 0.24542 0.5715 0.3758 0.0
C560 C 0.23095 0.58555 0.44182 0.0
C561 C 0.21128 0.60125 0.40834 0.0
C562 C 0.2074 0.60487 0.31162 0.0
C563 C 0.18097 0.61554 0.29223 0.0
C564 C 0.18265 0.64345 0.2579 0.0
C565 C 0.16619 0.59894 0.22024 0.0
C566 C 0.16949 0.61412 0.39132 0.0
C567 C 0.1878 0.60777 0.45817 0.0
C568 C 0.18118 0.60202 0.5522 0.0
C569 C 0.15529 0.60085 0.57682 0.0
C570 C 0.13623 0.60434 0.50678 0.0
C571 C 0.1435 0.61277 0.41491 0.0
H572 H 0.98938 0.76952 0.13838 0.0
H573 H 0.92502 0.79549 0.30549 0.0
H574 H 0.91746 0.83018 0.1906 0.0
H575 H 0.01724 0.81885 0.12679 0.0
H576 H 0.02996 0.81997 0.00713 0.0
H577 H 0.02188 0.78986 0.0591 0.0
H578 H 0.99129 0.77966 0.92084 0.0
H579 H 0.99999 0.80966 0.86547 0.0
H580 H 0.9669 0.80235 0.88789 0.0
H581 H 0.92869 0.87019 0.11316 0.0
H582 H 0.95378 0.90813 0.06715 0.0
H583 H 1.0134 0.85886 0.95587 0.0
C584 C 0.97245 0.78128 0.14576 0.0
C585 C 0.95795 0.78017 0.23053 0.0
C586 C 0.93625 0.79604 0.24042 0.0
C587 C 0.93197 0.81597 0.17542 0.0
C588 C 0.94934 0.81938 0.10054 0.0
C589 C 0.96868 0.80177 0.08284 0.0
C590 C 0.98859 0.81279 0.01523 0.0
C591 C 0.01597 0.81025 0.05465 0.0
C592 C 0.98655 0.80038 0.9165 0.0
C593 C 0.97983 0.84036 0.0114 0.0
C594 C 0.95642 0.8435 0.05607 0.0
C595 C 0.94655 0.86781 0.07502 0.0
C596 C 0.96116 0.88929 0.05023 0.0
C597 C 0.98564 0.88638 0.00846 0.0
C598 C 0.99452 0.86163 0.98578 0.0
H599 H 0.74187 0.04623 0.11882 0.0
H600 H 0.74264 0.10149 0.34666 0.0
H601 H 0.71367 0.12949 0.25582 0.0
H602 H 0.72654 0.09614 0.91107 0.0
H603 H 0.70618 0.07273 0.85688 0.0
H604 H 0.73501 0.06269 0.91573 0.0
H605 H 0.70908 0.03161 0.02174 0.0
H606 H 0.68027 0.04117 0.96431 0.0
H607 H 0.68279 0.0438 0.09198 0.0
H608 H 0.67498 0.14297 0.17443 0.0
H609 H 0.63122 0.14044 0.11213 0.0
H610 H 0.65352 0.07613 0.93647 0.0
C611 C 0.73728 0.0651 0.14572 0.0
C612 C 0.74474 0.07212 0.23808 0.0
C613 C 0.7375 0.09622 0.27473 0.0
C614 C 0.72103 0.1122 0.22341 0.0
C615 C 0.71204 0.1038 0.13556 0.0
C616 C 0.72037 0.08095 0.09582 0.0
C617 C 0.70386 0.07338 0.01234 0.0
C618 C 0.71879 0.07642 0.91845 0.0
C619 C 0.69337 0.04591 0.02349 0.0
C620 C 0.68298 0.09339 0.02005 0.0
C621 C 0.68874 0.11158 0.088 0.0
C622 C 0.67061 0.12939 0.1189 0.0
C623 C 0.6457 0.12771 0.0837 0.0
C624 C 0.63902 0.10811 0.01928 0.0
C625 C 0.65829 0.09178 0.98332 0.0
H626 H 0.5853 0.72091 0.26684 0.0
H627 H 0.52254 0.76729 0.16743 0.0
H628 H 0.51604 0.73791 0.03446 0.0
H629 H 0.59929 0.68352 0.01884 0.0
H630 H 0.60408 0.65488 0.08855 0.0
H631 H 0.615 0.68534 0.13246 0.0
H632 H 0.58938 0.67745 0.28765 0.0
H633 H 0.57761 0.64775 0.24402 0.0
H634 H 0.55541 0.67223 0.28112 0.0
H635 H 0.50327 0.69744 0.96624 0.0
H636 H 0.48839 0.65288 0.96101 0.0
H637 H 0.55467 0.62896 0.12203 0.0
C638 C 0.57144 0.72557 0.21255 0.0
C639 C 0.55408 0.74579 0.22802 0.0
C640 C 0.53607 0.75183 0.15696 0.0
C641 C 0.53215 0.73499 0.08117 0.0
C642 C 0.54639 0.71236 0.07797 0.0
C643 C 0.56637 0.70792 0.14056 0.0
C644 C 0.5737 0.6798 0.14253 0.0
C645 C 0.59955 0.67565 0.09257 0.0
C646 C 0.57398 0.6687 0.24479 0.0
C647 C 0.5523 0.66875 0.08406 0.0
C648 C 0.53779 0.68785 0.04228 0.0
C649 C 0.5149 0.68237 0.99651 0.0
C650 C 0.50628 0.65702 0.99582 0.0
C651 C 0.52017 0.63744 0.04264 0.0
C652 C 0.54387 0.64339 0.08416 0.0
H653 H 0.78701 0.48307 0.11364 0.0
H654 H 0.78116 0.424 0.32825 0.0
H655 H 0.80955 0.39621 0.23391 0.0
H656 H 0.80389 0.43645 0.89427 0.0
H657 H 0.82576 0.46048 0.85088 0.0
H658 H 0.79609 0.46991 0.90655 0.0
H659 H 0.8213 0.49801 0.02437 0.0
H660 H 0.85074 0.48841 0.97076 0.0
H661 H 0.84575 0.48347 0.09678 0.0
H662 H 0.84932 0.38342 0.15926 0.0
H663 H 0.89423 0.38596 0.10671 0.0
H664 H 0.87636 0.45299 0.93752 0.0
C665 C 0.79027 0.46349 0.13615 0.0
C666 C 0.7817 0.45527 0.22631 0.0
C667 C 0.78715 0.43019 0.25784 0.0
C668 C 0.80333 0.41434 0.20455 0.0
C669 C 0.81384 0.42392 0.12002 0.0
C670 C 0.80695 0.44777 0.0843 0.0
C671 C 0.82514 0.45631 1.00602 0.0
C672 C 0.81193 0.45573 0.90866 0.0
C673 C 0.8364 0.48307 0.02592 0.0
C674 C 0.84514 0.43543 0.01283 0.0
C675 C 0.83773 0.41629 0.07557 0.0
C676 C 0.85494 0.39768 0.10713 0.0
C677 C 0.88049 0.39935 0.07763 0.0
C678 C 0.8886 0.41954 0.01747 0.0
C679 C 0.87041 0.43688 0.98097 0.0
H680 H 0.98117 0.20317 0.95455 0.0
H681 H 0.05546 0.21073 0.08536 0.0
H682 H 0.06842 0.16901 0.01622 0.0
H683 H 0.97348 0.13812 1.00148 0.0
H684 H 0.95748 0.13074 0.89169 0.0
H685 H 0.95528 0.16245 0.94077 0.0
H686 H 0.97269 0.18174 0.78302 0.0
H687 H 0.97464 0.15007 0.73302 0.0
H688 H 1.00252 0.17022 0.73468 0.0
H689 H 0.07111 0.12357 0.94823 0.0
H690 H 0.06475 0.08081 0.87729 0.0
H691 H 0.98865 0.10331 0.78962 0.0
C692 C 1.00041 0.19636 0.96687 0.0
C693 C 0.01737 0.21042 0.02521 0.0
C694 C 0.04228 0.20065 0.03986 0.0
C695 C 0.0497 0.17681 1.00145 0.0
C696 C 0.0321 0.16301 0.94757 0.0
C697 C 1.00808 0.17269 0.92909 0.0
C698 C 0.99218 0.15367 0.87345 0.0
C699 C 0.9682 0.14579 0.93025 0.0
C700 C 0.9851 0.16458 0.7752 0.0
C701 C 1.01083 0.13153 0.8644 0.0
C702 C 0.03375 0.13723 0.90774 0.0
C703 C 0.05336 0.11915 0.91295 0.0
C704 C 0.04952 0.0948 0.87267 0.0
C705 C 0.02628 0.08858 0.82694 0.0
C706 C 1.0068 0.10743 0.82268 0.0
H707 H 0.34454 0.05639 0.09567 0.0
H708 H 0.30217 1.00413 0.91642 0.0
H709 H 0.34139 0.99643 0.82119 0.0
H710 H 0.38893 0.08128 0.91588 0.0
H711 H 0.41526 0.08169 0.99786 0.0
H712 H 0.38311 0.0861 0.04126 0.0
H713 H 0.38949 0.04862 0.15859 0.0
H714 H 0.4214 0.04339 0.11502 0.0
H715 H 0.39863 0.01756 0.1143 0.0
H716 H 0.38699 0.99202 0.75275 0.0
H717 H 0.4334 0.99055 0.72029 0.0
H718 H 0.44644 0.042 0.95664 0.0
C719 C 0.34322 0.04325 0.03652 0.0
C720 C 0.31984 0.0307 0.01497 0.0
C721 C 0.31943 1.01429 0.93467 0.0
C722 C 0.34179 1.00962 0.88043 0.0
C723 C 0.36465 0.02134 0.90726 0.0
C724 C 0.36541 0.03785 0.98362 0.0
C725 C 0.39256 0.04656 1.00316 0.0
C726 C 0.39511 0.07563 0.98865 0.0
C727 C 0.40101 0.03853 0.10371 0.0
C728 C 0.40722 0.03199 0.92709 0.0
C729 C 0.39074 0.01795 0.87113 0.0
C730 C 0.39992 1.00305 0.79604 0.0
C731 C 0.42641 1.00237 0.7781 0.0
C732 C 0.44378 0.01611 0.83589 0.0
C733 C 0.43383 0.03115 0.91133 0.0
H734 H 0.50872 0.34057 0.17956 0.0
H735 H 0.52021 0.29005 0.93916 0.0
H736 H 0.51576 0.32708 0.82893 0.0
H737 H 0.46151 0.38354 0.06339 0.0
H738 H 0.47396 0.41149 0.12178 0.0
H739 H 0.47577 0.38067 0.1795 0.0
H740 H 0.52463 0.38611 0.19706 0.0
H741 H 0.52304 0.41677 0.13847 0.0
H742 H 0.54389 0.39219 0.09256 0.0
H743 H 0.51578 0.37102 0.74718 0.0
H744 H 0.51519 0.41672 0.69978 0.0
H745 H 0.50101 0.4382 0.99347 0.0
C746 C 0.50955 0.33722 0.1035 0.0
C747 C 0.51451 0.31237 0.06769 0.0
C748 C 0.51595 0.3088 0.96792 0.0
C749 C 0.51364 0.32979 0.90497 0.0
C750 C 0.50949 0.35419 0.94286 0.0
C751 C 0.50693 0.35786 0.0399 0.0
C752 C 0.50329 0.38602 0.06308 0.0
C753 C 0.47707 0.3907 0.10968 0.0
C754 C 0.52501 0.39584 0.12652 0.0
C755 C 0.50467 0.39779 0.96418 0.0
C756 C 0.50845 0.37915 0.89573 0.0
C757 C 0.51225 0.38564 0.8001 0.0
C758 C 0.51198 0.4117 0.77383 0.0
C759 C 0.5076 0.4311 0.84248 0.0
C760 C 0.50377 0.42386 0.93883 0.0
H761 H 0.20071 0.54925 0.97953 0.0
H762 H 0.21422 0.47182 0.07993 0.0
H763 H 0.17314 0.45831 0.00996 0.0
H764 H 0.13647 0.55129 0.03782 0.0
H765 H 0.12662 0.57006 0.93643 0.0
H766 H 0.15865 0.57283 0.98056 0.0
H767 H 0.17683 0.56152 0.81388 0.0
H768 H 0.14479 0.559 0.76905 0.0
H769 H 0.16666 0.53255 0.75606 0.0
H770 H 0.12778 0.45479 0.9488 0.0
H771 H 0.08374 0.46055 0.89076 0.0
H772 H 0.09974 0.54042 0.82932 0.0
C773 C 0.19536 0.52928 0.98474 0.0
C774 C 0.21086 0.51155 0.03503 0.0
C775 C 0.203 0.48566 0.04057 0.0
C776 C 0.17955 0.47788 1.00163 0.0
C777 C 0.16424 0.49614 0.95641 0.0
C778 C 0.17205 0.52125 0.94647 0.0
C779 C 0.15141 0.53757 0.90072 0.0
C780 C 0.14279 0.5592 0.96789 0.0
C781 C 0.16048 0.54829 0.80417 0.0
C782 C 0.13049 0.51786 0.88801 0.0
C783 C 0.13828 0.49407 0.9205 0.0
C784 C 0.12169 0.47323 0.92176 0.0
C785 C 0.09661 0.47674 0.88897 0.0
C786 C 0.08821 0.50089 0.85469 0.0
C787 C 0.10559 0.52162 0.85364 0.0
H788 H 0.9749 0.81796 0.5784 0.0
H789 H 0.04367 0.81124 0.40752 0.0
H790 H 0.05461 0.85615 0.44454 0.0
H791 H 0.95834 0.87954 0.51393 0.0
H792 H 0.94744 0.89002 0.62948 0.0
H793 H 0.94635 0.85658 0.5993 0.0
H794 H 0.97283 0.84561 0.7474 0.0
H795 H 0.97486 0.87892 0.77937 0.0
H796 H 1.00356 0.86018 0.76376 0.0
H797 H 0.05355 0.90388 0.47455 0.0
H798 H 0.04557 0.94875 0.5228 0.0
H799 H 0.98022 0.92426 0.69023 0.0
C800 C 0.99284 0.82565 0.55249 0.0
C801 C 1.00877 0.81087 0.49172 0.0
C802 C 0.03161 0.82189 0.45633 0.0
C803 C 0.03779 0.84753 0.47606 0.0
C804 C 0.02119 0.86188 0.53305 0.0
C805 C 0.99959 0.8511 0.57341 0.0
C806 C 0.9847 0.87093 0.63054 0.0
C807 C 0.95761 0.87446 0.59091 0.0
C808 C 0.98394 0.8635 0.73658 0.0
C809 C 1.00084 0.89473 0.61345 0.0
C810 C 0.02159 0.88911 0.55572 0.0
C811 C 0.03777 0.90835 0.52176 0.0
C812 C 0.03294 0.93383 0.54868 0.0
C813 C 1.01241 0.93997 0.61049 0.0
C814 C 0.99626 0.92006 0.64379 0.0
H815 H 0.70649 0.05081 0.54072 0.0
H816 H 0.7259 0.97236 0.46902 0.0
H817 H 0.68742 0.95744 0.55525 0.0
H818 H 0.67731 0.03816 0.77634 0.0
H819 H 0.65253 0.06168 0.75908 0.0
H820 H 0.68329 0.06601 0.7032 0.0
H821 H 0.66183 0.06998 0.53861 0.0
H822 H 0.631 0.06573 0.59353 0.0
H823 H 0.64105 0.04481 0.49855 0.0
H824 H 0.64383 0.95149 0.63226 0.0
H825 H 0.60016 0.95484 0.69836 0.0
H826 H 0.60857 0.03725 0.7183 0.0
C827 C 0.70294 0.03042 0.54406 0.0
C828 C 0.71952 1.0128 0.49758 0.0
C829 C 0.71397 0.9863 0.50492 0.0
C830 C 0.69196 0.97764 0.55331 0.0
C831 C 0.67559 0.99563 0.59482 0.0
C832 C 0.68096 0.02149 0.59142 0.0
C833 C 0.65942 0.03706 0.63574 0.0
C834 C 0.6687 0.05158 0.72388 0.0
C835 C 0.64763 0.05548 0.56221 0.0
C836 C 0.64085 0.01599 0.66333 0.0
C837 C 0.65058 0.99222 0.63941 0.0
C838 C 0.63625 0.96999 0.65247 0.0
C839 C 0.61138 0.9721 0.68998 0.0
C840 C 0.60087 0.99627 0.71457 0.0
C841 C 0.6161 0.01843 0.70205 0.0
H842 H 0.5117 0.69244 0.42824 0.0
H843 H 0.5421 0.73071 0.67633 0.0
H844 H 0.53943 0.68981 0.76695 0.0
H845 H 0.46917 0.64732 0.55439 0.0
H846 H 0.47594 0.62198 0.47111 0.0
H847 H 0.47695 0.65488 0.43221 0.0
H848 H 0.5227 0.64769 0.37017 0.0
H849 H 0.52274 0.61511 0.41174 0.0
H850 H 0.54718 0.63687 0.45071 0.0
H851 H 0.53726 0.64303 0.82446 0.0
H852 H 0.53375 0.59623 0.84665 0.0
H853 H 0.507 0.58856 0.55658 0.0
C854 C 0.51752 0.69241 0.50213 0.0
C855 C 0.52727 0.71493 0.54497 0.0
C856 C 0.53437 0.71391 0.64208 0.0
C857 C 0.5331 0.69066 0.69375 0.0
C858 C 0.52462 0.66859 0.64739 0.0
C859 C 0.5167 0.66943 0.55384 0.0
C860 C 0.50972 0.64297 0.51793 0.0
C861 C 0.48125 0.64172 0.49244 0.0
C862 C 0.52662 0.63521 0.43266 0.0
C863 C 0.51548 0.62681 0.60514 0.0
C864 C 0.52375 0.64194 0.67954 0.0
C865 C 0.53047 0.63118 0.76694 0.0
C866 C 0.52843 0.60448 0.77885 0.0
C867 C 0.52003 0.58855 0.70361 0.0
C868 C 0.51358 0.60006 0.61552 0.0
H869 H 0.84051 0.51076 0.3688 0.0
H870 H 0.79147 0.50958 0.61852 0.0
H871 H 0.82951 0.51458 0.72148 0.0
H872 H 0.89002 0.47384 0.46359 0.0
H873 H 0.91545 0.4913 0.40582 0.0
H874 H 0.88433 0.49024 0.35247 0.0
H875 H 0.88246 0.53979 0.3496 0.0
H876 H 0.91371 0.54103 0.40215 0.0
H877 H 0.88729 0.55733 0.45833 0.0
H878 H 0.87389 0.51512 0.7969 0.0
H879 H 0.91966 0.51458 0.83794 0.0
H880 H 0.93946 0.51612 0.53726 0.0
C881 C 0.83772 0.51206 0.44515 0.0
C882 C 0.81298 0.50987 0.48576 0.0
C883 C 0.81015 0.51156 0.58588 0.0
C884 C 0.8317 0.51422 0.64478 0.0
C885 C 0.8559 0.5155 0.60233 0.0
C886 C 0.85892 0.51485 0.50455 0.0
C887 C 0.88692 0.5156 0.47623 0.0
C888 C 0.89462 0.4913 0.42131 0.0
C889 C 0.89294 0.53989 0.41816 0.0
C890 C 0.89937 0.51638 0.57336 0.0
C891 C 0.88119 0.51627 0.64529 0.0
C892 C 0.8882 0.51563 0.74095 0.0
C893 C 0.91434 0.51525 0.76356 0.0
C894 C 0.93335 0.5156 0.69101 0.0
C895 C 0.92555 0.51624 0.59465 0.0
loop_
_geom_bond_atom_site_label_1
_geom_bond_atom_site_label_2
_geom_bond_distance
_geom_bond_site_symmetry_2
_ccdc_geom_bond_type
H0 C3 0.929 . S
H1 C6 0.929 . S
H2 C8 0.930 . S
C3 H0 0.929 . S
C3 C4 1.398 . S
C3 C5 1.396 . S
C4 C3 1.398 . S
C4 C8 1.407 . S
C5 C3 1.396 . S
C5 C6 1.394 . S
C6 H1 0.929 . S
C6 C5 1.394 . S
C6 C7 1.382 . S
C7 C6 1.382 . S
C7 C8 1.392 . S
C7 N9 1.420 . S
C8 H2 0.930 . S
C8 C4 1.407 . S
C8 C7 1.392 . S
N9 C7 1.420 . S
N9 C10 1.244 . S
C10 N9 1.244 . S
H11 C14 0.929 . S
H12 C17 0.929 . S
H13 C19 0.930 . S
C14 H11 0.929 . S
C14 C15 1.395 1_655 S
C14 C16 1.395 1_655 S
C15 C14 1.395 1_455 S
C15 C19 1.413 . S
C16 C14 1.395 1_455 S
C16 C17 1.397 . S
C17 H12 0.929 . S
C17 C16 1.397 . S
C17 C18 1.382 . S
C18 C17 1.382 . S
C18 C19 1.392 . S
C18 N20 1.420 . S
C19 H13 0.930 . S
C19 C15 1.413 . S
C19 C18 1.392 . S
N20 C18 1.420 . S
N20 C21 1.232 1_455 S
C21 N20 1.232 1_655 S
H22 C25 0.929 . S
H23 C28 0.929 . S
H24 C30 0.930 . S
C25 H22 0.929 . S
C25 C26 1.395 1_565 S
C25 C27 1.395 1_565 S
C26 C25 1.395 1_545 S
C26 C30 1.413 . S
C27 C25 1.395 1_545 S
C27 C28 1.397 . S
C28 H23 0.929 . S
C28 C27 1.397 . S
C28 C29 1.382 . S
C29 C28 1.382 . S
C29 C30 1.392 . S
C29 N31 1.420 . S
C30 H24 0.930 . S
C30 C26 1.413 . S
C30 C29 1.392 . S
N31 C29 1.420 . S
N31 C32 1.232 1_545 S
C32 N31 1.232 1_565 S
H33 C36 0.929 . S
H34 C39 0.929 . S
H35 C41 0.930 . S
C36 H33 0.929 . S
C36 C37 1.398 . S
C36 C38 1.396 . S
C37 C36 1.398 . S
C37 C41 1.407 . S
C38 C36 1.396 . S
C38 C39 1.394 . S
C39 H34 0.929 . S
C39 C38 1.394 . S
C39 C40 1.382 . S
C40 C39 1.382 . S
C40 C41 1.392 . S
C40 N42 1.420 . S
C41 H35 0.930 . S
C41 C37 1.407 . S
C41 C40 1.392 . S
N42 C40 1.420 . S
N42 C43 1.244 . S
C43 N42 1.244 . S
H44 C47 0.929 . S
H45 C50 0.929 . S
H46 C52 0.930 . S
C47 H44 0.929 . S
C47 C48 1.398 1_554 S
C47 C49 1.396 . S
C48 C47 1.398 1_556 S
C48 C52 1.407 . S
C49 C47 1.396 . S
C49 C50 1.394 . S
C50 H45 0.929 . S
C50 C49 1.394 . S
C50 C51 1.382 . S
C51 C50 1.382 . S
C51 C52 1.392 1_554 S
C51 N53 1.420 . S
C52 H46 0.930 . S
C52 C48 1.407 . S
C52 C51 1.392 1_556 S
N53 C51 1.420 . S
N53 C54 1.244 . S
C54 N53 1.244 . S
H55 C58 0.929 . S
H56 C61 0.929 . S
H57 C63 0.930 . S
C58 H55 0.929 . S
C58 C59 1.395 1_654 S
C58 C60 1.394 1_655 S
C59 C58 1.395 1_456 S
C59 C63 1.416 . S
C60 C58 1.394 1_455 S
C60 C61 1.398 . S
C61 H56 0.929 . S
C61 C60 1.398 . S
C61 C62 1.382 . S
C62 C61 1.382 . S
C62 C63 1.392 1_554 S
C62 N64 1.420 . S
C63 H57 0.930 . S
C63 C59 1.416 . S
C63 C62 1.392 1_556 S
N64 C62 1.420 . S
N64 C65 1.236 1_455 S
C65 N64 1.236 1_655 S
H66 C69 0.929 . S
H67 C72 0.929 . S
H68 C74 0.930 . S
C69 H66 0.929 . S
C69 C70 1.395 1_564 S
C69 C71 1.394 1_565 S
C70 C69 1.395 1_546 S
C70 C74 1.416 . S
C71 C69 1.394 1_545 S
C71 C72 1.398 . S
C72 H67 0.929 . S
C72 C71 1.398 . S
C72 C73 1.382 . S
C73 C72 1.382 . S
C73 C74 1.392 1_554 S
C73 N75 1.420 . S
C74 H68 0.930 . S
C74 C70 1.416 . S
C74 C73 1.392 1_556 S
N75 C73 1.420 . S
N75 C76 1.236 1_545 S
C76 N75 1.236 1_565 S
H77 C80 0.929 . S
H78 C83 0.929 . S
H79 C85 0.930 . S
C80 H77 0.929 . S
C80 C81 1.398 1_554 S
C80 C82 1.396 . S
C81 C80 1.398 1_556 S
C81 C85 1.407 . S
C82 C80 1.396 . S
C82 C83 1.394 . S
C83 H78 0.929 . S
C83 C82 1.394 . S
C83 C84 1.382 . S
C84 C83 1.382 . S
C84 C85 1.392 1_554 S
C84 N86 1.420 . S
C85 H79 0.930 . S
C85 C81 1.407 . S
C85 C84 1.392 1_556 S
N86 C84 1.420 . S
N86 C87 1.244 . S
C87 N86 1.244 . S
Tb88 C98 2.825 . S
Tb88 O99 2.347 1_455 S
Tb88 O102 2.366 . S
Tb88 O107 2.418 . S
Tb88 O108 2.384 1_565 S
Tb88 O111 2.479 . S
Tb88 O112 2.471 . S
Eu89 O100 2.418 . S
Eu89 O101 2.384 1_545 S
Eu89 O104 2.479 . S
Eu89 O105 2.471 . S
Eu89 O106 2.347 1_655 S
Eu89 O109 2.366 . S
Eu89 C119 2.825 . S
C90 O106 1.259 1_565 S
C90 O107 1.265 . S
C91 O108 1.255 . S
C91 O109 1.265 1_455 S
C92 C94 1.380 . S
C92 C95 1.374 . S
C92 C98 1.507 1_554 S
C93 C94 1.384 . S
C93 C97 1.387 . S
C93 H120 0.930 . S
C94 C92 1.380 . S
C94 C93 1.384 . S
C94 H121 0.931 . S
C95 C92 1.374 . S
C95 C96 1.390 . S
C95 H122 0.930 1_455 S
C96 C95 1.390 . S
C96 C97 1.391 . S
C96 H123 0.930 1_455 S
C97 C93 1.387 . S
C97 C96 1.391 . S
C98 Tb88 2.825 . S
C98 C92 1.507 1_556 S
C98 O111 1.238 . S
C98 O112 1.247 . S
O99 Tb88 2.347 1_655 S
O99 C103 1.259 1_565 S
O100 Eu89 2.418 . S
O100 C103 1.265 . S
O101 Eu89 2.384 1_565 S
O101 C110 1.255 . S
O102 Tb88 2.366 . S
O102 C110 1.265 1_455 S
C103 O99 1.259 1_545 S
C103 O100 1.265 . S
O104 Eu89 2.479 . S
O104 C119 1.238 . S
O105 Eu89 2.471 . S
O105 C119 1.247 . S
O106 Eu89 2.347 1_455 S
O106 C90 1.259 1_545 S
O107 Tb88 2.418 . S
O107 C90 1.265 . S
O108 Tb88 2.384 1_545 S
O108 C91 1.255 . S
O109 Eu89 2.366 . S
O109 C91 1.265 1_655 S
C110 O101 1.255 . S
C110 O102 1.265 1_655 S
O111 Tb88 2.479 . S
O111 C98 1.238 . S
O112 Tb88 2.471 . S
O112 C98 1.247 . S
C113 C116 1.380 . S
C113 C117 1.374 . S
C113 C119 1.507 . S
C114 C115 1.387 . S
C114 C118 1.391 . S
C115 C114 1.387 . S
C115 C116 1.384 . S
C115 H124 0.930 . S
C116 C113 1.380 . S
C116 C115 1.384 . S
C116 H125 0.931 . S
C117 C113 1.374 . S
C117 C118 1.390 . S
C117 H126 0.930 1_655 S
C118 C114 1.391 . S
C118 C117 1.390 . S
C118 H127 0.930 1_655 S
C119 Eu89 2.825 . S
C119 O104 1.238 . S
C119 O105 1.247 . S
C119 C113 1.507 . S
H120 C93 0.930 . S
H121 C94 0.931 . S
H122 C95 0.930 1_655 S
H123 C96 0.930 1_655 S
H124 C115 0.930 . S
H125 C116 0.931 . S
H126 C117 0.930 1_455 S
H127 C118 0.930 1_455 S
Tb128 C138 2.825 . S
Tb128 O139 2.347 1_545 S
Tb128 O142 2.366 . S
Tb128 O147 2.418 . S
Tb128 O148 2.384 . S
Tb128 O151 2.479 . S
Tb128 O152 2.471 . S
Eu129 O140 2.418 . S
Eu129 O141 2.384 . S
Eu129 O144 2.479 . S
Eu129 O145 2.471 . S
Eu129 O146 2.347 1_565 S
Eu129 O149 2.366 . S
Eu129 C159 2.825 . S
C130 O146 1.259 . S
C130 O147 1.265 . S
C131 O148 1.255 . S
C131 O149 1.265 1_545 S
C132 C134 1.380 . S
C132 C135 1.374 . S
C132 C138 1.507 1_554 S
C133 C134 1.384 . S
C133 C137 1.387 . S
C133 H160 0.930 . S
C134 C132 1.380 . S
C134 C133 1.384 . S
C134 H161 0.931 . S
C135 C132 1.374 . S
C135 C136 1.390 . S
C135 H162 0.930 1_545 S
C136 C135 1.390 . S
C136 C137 1.391 . S
C136 H163 0.930 1_545 S
C137 C133 1.387 . S
C137 C136 1.391 . S
C138 Tb128 2.825 . S
C138 C132 1.507 1_556 S
C138 O151 1.238 . S
C138 O152 1.247 . S
O139 Tb128 2.347 1_565 S
O139 C143 1.259 . S
O140 Eu129 2.418 . S
O140 C143 1.265 . S
O141 Eu129 2.384 . S
O141 C150 1.255 . S
O142 Tb128 2.366 . S
O142 C150 1.265 1_545 S
C143 O139 1.259 . S
C143 O140 1.265 . S
O144 Eu129 2.479 . S
O144 C159 1.238 . S
O145 Eu129 2.471 . S
O145 C159 1.247 . S
O146 Eu129 2.347 1_545 S
O146 C130 1.259 . S
O147 Tb128 2.418 . S
O147 C130 1.265 . S
O148 Tb128 2.384 . S
O148 C131 1.255 . S
O149 Eu129 2.366 . S
O149 C131 1.265 1_565 S
C150 O141 1.255 . S
C150 O142 1.265 1_565 S
O151 Tb128 2.479 . S
O151 C138 1.238 . S
O152 Tb128 2.471 . S
O152 C138 1.247 . S
C153 C156 1.380 . S
C153 C157 1.374 . S
C153 C159 1.507 . S
C154 C155 1.387 . S
C154 C158 1.391 . S
C155 C154 1.387 . S
C155 C156 1.384 . S
C155 H164 0.930 . S
C156 C153 1.380 . S
C156 C155 1.384 . S
C156 H165 0.931 . S
C157 C153 1.374 . S
C157 C158 1.390 . S
C157 H166 0.930 1_565 S
C158 C154 1.391 . S
C158 C157 1.390 . S
C158 H167 0.930 1_565 S
C159 Eu129 2.825 . S
C159 O144 1.238 . S
C159 O145 1.247 . S
C159 C153 1.507 . S
H160 C133 0.930 . S
H161 C134 0.931 . S
H162 C135 0.930 1_565 S
H163 C136 0.930 1_565 S
H164 C155 0.930 . S
H165 C156 0.931 . S
H166 C157 0.930 1_545 S
H167 C158 0.930 1_545 S
Tb168 C178 2.825 . S
Tb168 O179 2.347 . S
Tb168 O182 2.366 . S
Tb168 O187 2.418 . S
Tb168 O188 2.384 . S
Tb168 O191 2.479 . S
Tb168 O192 2.471 . S
Eu169 O180 2.418 . S
Eu169 O181 2.384 . S
Eu169 O184 2.479 . S
Eu169 O185 2.471 . S
Eu169 O186 2.347 . S
Eu169 O189 2.366 . S
Eu169 C199 2.825 . S
C170 O186 1.259 . S
C170 O187 1.265 . S
C171 O188 1.255 . S
C171 O189 1.265 . S
C172 C174 1.380 . S
C172 C175 1.374 . S
C172 C178 1.507 1_554 S
C173 C174 1.384 . S
C173 C177 1.387 . S
C173 H200 0.930 . S
C174 C172 1.380 . S
C174 C173 1.384 . S
C174 H201 0.931 . S
C175 C172 1.374 . S
C175 C176 1.390 . S
C175 H202 0.930 . S
C176 C175 1.390 . S
C176 C177 1.391 . S
C176 H203 0.930 . S
C177 C173 1.387 . S
C177 C176 1.391 . S
C178 Tb168 2.825 . S
C178 C172 1.507 1_556 S
C178 O191 1.238 . S
C178 O192 1.247 . S
O179 Tb168 2.347 . S
O179 C183 1.259 . S
O180 Eu169 2.418 . S
O180 C183 1.265 . S
O181 Eu169 2.384 . S
O181 C190 1.255 . S
O182 Tb168 2.366 . S
O182 C190 1.265 . S
C183 O179 1.259 . S
C183 O180 1.265 . S
O184 Eu169 2.479 . S
O184 C199 1.238 . S
O185 Eu169 2.471 . S
O185 C199 1.247 . S
O186 Eu169 2.347 . S
O186 C170 1.259 . S
O187 Tb168 2.418 . S
O187 C170 1.265 . S
O188 Tb168 2.384 . S
O188 C171 1.255 . S
O189 Eu169 2.366 . S
O189 C171 1.265 . S
C190 O181 1.255 . S
C190 O182 1.265 . S
O191 Tb168 2.479 . S
O191 C178 1.238 . S
O192 Tb168 2.471 . S
O192 C178 1.247 . S
C193 C196 1.380 . S
C193 C197 1.374 . S
C193 C199 1.507 . S
C194 C195 1.387 . S
C194 C198 1.391 . S
C195 C194 1.387 . S
C195 C196 1.384 . S
C195 H204 0.930 . S
C196 C193 1.380 . S
C196 C195 1.384 . S
C196 H205 0.931 . S
C197 C193 1.374 . S
C197 C198 1.390 . S
C197 H206 0.930 . S
C198 C194 1.391 . S
C198 C197 1.390 . S
C198 H207 0.930 . S
C199 Eu169 2.825 . S
C199 O184 1.238 . S
C199 O185 1.247 . S
C199 C193 1.507 . S
H200 C173 0.930 . S
H201 C174 0.931 . S
H202 C175 0.930 . S
H203 C176 0.930 . S
H204 C195 0.930 . S
H205 C196 0.931 . S
H206 C197 0.930 . S
H207 C198 0.930 . S
Tb208 C218 2.825 . S
Tb208 O219 2.347 . S
Tb208 O222 2.366 . S
Tb208 O227 2.418 . S
Tb208 O228 2.384 1_655 S
Tb208 O231 2.479 . S
Tb208 O232 2.471 . S
Eu209 O220 2.418 . S
Eu209 O221 2.384 1_455 S
Eu209 O224 2.479 . S
Eu209 O225 2.471 . S
Eu209 O226 2.347 . S
Eu209 O229 2.366 . S
Eu209 C239 2.825 . S
C210 O226 1.259 1_655 S
C210 O227 1.265 . S
C211 O228 1.255 . S
C211 O229 1.265 . S
C212 C214 1.380 . S
C212 C215 1.374 . S
C212 C218 1.507 1_554 S
C213 C214 1.384 . S
C213 C217 1.387 . S
C213 H240 0.930 . S
C214 C212 1.380 . S
C214 C213 1.384 . S
C214 H241 0.931 . S
C215 C212 1.374 . S
C215 C216 1.390 . S
C215 H242 0.930 . S
C216 C215 1.390 . S
C216 C217 1.391 . S
C216 H243 0.930 . S
C217 C213 1.387 . S
C217 C216 1.391 . S
C218 Tb208 2.825 . S
C218 C212 1.507 1_556 S
C218 O231 1.238 . S
C218 O232 1.247 . S
O219 Tb208 2.347 . S
O219 C223 1.259 1_655 S
O220 Eu209 2.418 . S
O220 C223 1.265 . S
O221 Eu209 2.384 1_655 S
O221 C230 1.255 . S
O222 Tb208 2.366 . S
O222 C230 1.265 . S
C223 O219 1.259 1_455 S
C223 O220 1.265 . S
O224 Eu209 2.479 . S
O224 C239 1.238 . S
O225 Eu209 2.471 . S
O225 C239 1.247 . S
O226 Eu209 2.347 . S
O226 C210 1.259 1_455 S
O227 Tb208 2.418 . S
O227 C210 1.265 . S
O228 Tb208 2.384 1_455 S
O228 C211 1.255 . S
O229 Eu209 2.366 . S
O229 C211 1.265 . S
C230 O221 1.255 . S
C230 O222 1.265 . S
O231 Tb208 2.479 . S
O231 C218 1.238 . S
O232 Tb208 2.471 . S
O232 C218 1.247 . S
C233 C236 1.380 . S
C233 C237 1.374 . S
C233 C239 1.507 . S
C234 C235 1.387 . S
C234 C238 1.391 . S
C235 C234 1.387 . S
C235 C236 1.384 . S
C235 H244 0.930 . S
C236 C233 1.380 . S
C236 C235 1.384 . S
C236 H245 0.931 . S
C237 C233 1.374 . S
C237 C238 1.390 . S
C237 H246 0.930 . S
C238 C234 1.391 . S
C238 C237 1.390 . S
C238 H247 0.930 . S
C239 Eu209 2.825 . S
C239 O224 1.238 . S
C239 O225 1.247 . S
C239 C233 1.507 . S
H240 C213 0.930 . S
H241 C214 0.931 . S
H242 C215 0.930 . S
H243 C216 0.930 . S
H244 C235 0.930 . S
H245 C236 0.931 . S
H246 C237 0.930 . S
H247 C238 0.930 . S
H248 C260 0.930 . S
H249 C262 0.930 . S
H250 C263 0.930 . S
H251 C267 0.959 . S
H252 C267 0.959 . S
H253 C267 0.961 . S
H254 C268 0.960 . S
H255 C268 0.961 . S
H256 C268 0.959 . S
H257 C271 0.929 . S
H258 C272 0.931 . S
H259 C274 0.930 . S
C260 H248 0.930 . S
C260 C261 1.399 1_545 S
C260 C265 1.399 . S
C261 C260 1.399 1_565 S
C261 C262 1.376 . S
C262 H249 0.930 . S
C262 C261 1.376 . S
C262 C263 1.388 . S
C263 H250 0.930 . S
C263 C262 1.388 . S
C263 C264 1.390 . S
C264 C263 1.390 . S
C264 C265 1.394 1_565 S
C264 C270 1.465 . S
C265 C260 1.399 . S
C265 C264 1.394 1_545 S
C265 C266 1.516 . S
C266 C265 1.516 . S
C266 C267 1.502 . S
C266 C268 1.561 . S
C266 C269 1.526 . S
C267 H251 0.959 . S
C267 H252 0.959 . S
C267 H253 0.961 . S
C267 C266 1.502 . S
C268 H254 0.960 . S
C268 H255 0.961 . S
C268 H256 0.959 . S
C268 C266 1.561 . S
C269 C266 1.526 . S
C269 C270 1.396 1_545 S
C269 C274 1.390 . S
C270 C264 1.465 . S
C270 C269 1.396 1_565 S
C270 C271 1.399 . S
C271 H257 0.929 . S
C271 C270 1.399 . S
C271 C272 1.385 . S
C272 H258 0.931 . S
C272 C271 1.385 . S
C272 C273 1.389 . S
C273 C272 1.389 . S
C273 C274 1.387 1_565 S
C274 H259 0.930 . S
C274 C269 1.390 . S
C274 C273 1.387 1_545 S
H275 C287 0.930 . S
H276 C289 0.930 . S
H277 C290 0.930 . S
H278 C294 0.959 . S
H279 C294 0.959 . S
H280 C294 0.961 . S
H281 C295 0.960 . S
H282 C295 0.961 . S
H283 C295 0.959 . S
H284 C298 0.929 . S
H285 C299 0.931 . S
H286 C301 0.930 . S
C287 H275 0.930 . S
C287 C288 1.399 . S
C287 C292 1.399 . S
C288 C287 1.399 . S
C288 C289 1.376 . S
C289 H276 0.930 . S
C289 C288 1.376 . S
C289 C290 1.388 . S
C290 H277 0.930 . S
C290 C289 1.388 . S
C290 C291 1.390 . S
C291 C290 1.390 . S
C291 C292 1.394 . S
C291 C297 1.465 . S
C292 C287 1.399 . S
C292 C291 1.394 . S
C292 C293 1.516 . S
C293 C292 1.516 . S
C293 C294 1.502 . S
C293 C295 1.561 . S
C293 C296 1.526 . S
C294 H278 0.959 . S
C294 H279 0.959 . S
C294 H280 0.961 . S
C294 C293 1.502 . S
C295 H281 0.960 . S
C295 H282 0.961 . S
C295 H283 0.959 . S
C295 C293 1.561 . S
C296 C293 1.526 . S
C296 C297 1.396 . S
C296 C301 1.390 . S
C297 C291 1.465 . S
C297 C296 1.396 . S
C297 C298 1.399 . S
C298 H284 0.929 . S
C298 C297 1.399 . S
C298 C299 1.385 . S
C299 H285 0.931 . S
C299 C298 1.385 . S
C299 C300 1.389 . S
C300 C299 1.389 . S
C300 C301 1.387 . S
C301 H286 0.930 . S
C301 C296 1.390 . S
C301 C300 1.387 . S
H302 C314 0.930 . S
H303 C316 0.930 . S
H304 C317 0.930 . S
H305 C321 0.959 . S
H306 C321 0.959 . S
H307 C321 0.961 . S
H308 C322 0.960 . S
H309 C322 0.961 . S
H310 C322 0.959 . S
H311 C325 0.929 . S
H312 C326 0.931 . S
H313 C328 0.930 . S
C314 H302 0.930 . S
C314 C315 1.399 . S
C314 C319 1.399 . S
C315 C314 1.399 . S
C315 C316 1.376 . S
C316 H303 0.930 . S
C316 C315 1.376 . S
C316 C317 1.388 . S
C317 H304 0.930 . S
C317 C316 1.388 . S
C317 C318 1.390 . S
C318 C317 1.390 . S
C318 C319 1.394 . S
C318 C324 1.465 . S
C319 C314 1.399 . S
C319 C318 1.394 . S
C319 C320 1.516 . S
C320 C319 1.516 . S
C320 C321 1.502 . S
C320 C322 1.561 . S
C320 C323 1.526 . S
C321 H305 0.959 . S
C321 H306 0.959 . S
C321 H307 0.961 . S
C321 C320 1.502 . S
C322 H308 0.960 . S
C322 H309 0.961 . S
C322 H310 0.959 . S
C322 C320 1.561 . S
C323 C320 1.526 . S
C323 C324 1.396 . S
C323 C328 1.390 . S
C324 C318 1.465 . S
C324 C323 1.396 . S
C324 C325 1.399 . S
C325 H311 0.929 . S
C325 C324 1.399 . S
C325 C326 1.385 . S
C326 H312 0.931 . S
C326 C325 1.385 . S
C326 C327 1.389 . S
C327 C326 1.389 . S
C327 C328 1.387 . S
C328 H313 0.930 . S
C328 C323 1.390 . S
C328 C327 1.387 . S
H329 C341 0.930 . S
H330 C343 0.930 . S
H331 C344 0.930 . S
H332 C348 0.959 . S
H333 C348 0.959 . S
H334 C348 0.961 . S
H335 C349 0.960 . S
H336 C349 0.961 . S
H337 C349 0.959 . S
H338 C352 0.929 . S
H339 C353 0.931 . S
H340 C355 0.930 . S
C341 H329 0.930 . S
C341 C342 1.399 1_455 S
C341 C346 1.399 . S
C342 C341 1.399 1_655 S
C342 C343 1.376 . S
C343 H330 0.930 . S
C343 C342 1.376 . S
C343 C344 1.388 . S
C344 H331 0.930 . S
C344 C343 1.388 . S
C344 C345 1.390 . S
C345 C344 1.390 . S
C345 C346 1.394 1_655 S
C345 C351 1.465 . S
C346 C341 1.399 . S
C346 C345 1.394 1_455 S
C346 C347 1.516 . S
C347 C346 1.516 . S
C347 C348 1.502 . S
C347 C349 1.561 . S
C347 C350 1.526 . S
C348 H332 0.959 . S
C348 H333 0.959 . S
C348 H334 0.961 . S
C348 C347 1.502 . S
C349 H335 0.960 . S
C349 H336 0.961 . S
C349 H337 0.959 . S
C349 C347 1.561 . S
C350 C347 1.526 . S
C350 C351 1.396 1_455 S
C350 C355 1.390 . S
C351 C345 1.465 . S
C351 C350 1.396 1_655 S
C351 C352 1.399 . S
C352 H338 0.929 . S
C352 C351 1.399 . S
C352 C353 1.385 . S
C353 H339 0.931 . S
C353 C352 1.385 . S
C353 C354 1.389 . S
C354 C353 1.389 . S
C354 C355 1.387 1_655 S
C355 H340 0.930 . S
C355 C350 1.390 . S
C355 C354 1.387 1_455 S
H356 C368 0.930 . S
H357 C370 0.930 . S
H358 C371 0.930 . S
H359 C375 0.959 . S
H360 C375 0.959 . S
H361 C375 0.961 . S
H362 C376 0.960 . S
H363 C376 0.961 . S
H364 C376 0.959 . S
H365 C379 0.929 . S
H366 C380 0.931 . S
H367 C382 0.930 . S
C368 H356 0.930 . S
C368 C369 1.399 1_565 S
C368 C373 1.399 . S
C369 C368 1.399 1_545 S
C369 C370 1.376 . S
C370 H357 0.930 . S
C370 C369 1.376 . S
C370 C371 1.388 . S
C371 H358 0.930 . S
C371 C370 1.388 . S
C371 C372 1.390 . S
C372 C371 1.390 . S
C372 C373 1.394 1_545 S
C372 C378 1.465 . S
C373 C368 1.399 . S
C373 C372 1.394 1_565 S
C373 C374 1.516 . S
C374 C373 1.516 . S
C374 C375 1.502 . S
C374 C376 1.561 . S
C374 C377 1.526 . S
C375 H359 0.959 . S
C375 H360 0.959 . S
C375 H361 0.961 . S
C375 C374 1.502 . S
C376 H362 0.960 . S
C376 H363 0.961 . S
C376 H364 0.959 . S
C376 C374 1.561 . S
C377 C374 1.526 . S
C377 C378 1.396 1_565 S
C377 C382 1.390 1_554 S
C378 C372 1.465 . S
C378 C377 1.396 1_545 S
C378 C379 1.399 . S
C379 H365 0.929 . S
C379 C378 1.399 . S
C379 C380 1.385 1_554 S
C380 H366 0.931 . S
C380 C379 1.385 1_556 S
C380 C381 1.389 . S
C381 C380 1.389 . S
C381 C382 1.387 1_545 S
C382 H367 0.930 . S
C382 C377 1.390 1_556 S
C382 C381 1.387 1_565 S
H383 C395 0.930 . S
H384 C397 0.930 . S
H385 C398 0.930 . S
H386 C402 0.959 . S
H387 C402 0.959 . S
H388 C402 0.961 . S
H389 C403 0.960 . S
H390 C403 0.961 . S
H391 C403 0.959 . S
H392 C406 0.929 . S
H393 C407 0.931 . S
H394 C409 0.930 . S
C395 H383 0.930 . S
C395 C396 1.399 . S
C395 C400 1.399 . S
C396 C395 1.399 . S
C396 C397 1.376 . S
C397 H384 0.930 . S
C397 C396 1.376 . S
C397 C398 1.388 . S
C398 H385 0.930 . S
C398 C397 1.388 . S
C398 C399 1.390 . S
C399 C398 1.390 . S
C399 C400 1.394 . S
C399 C405 1.465 . S
C400 C395 1.399 . S
C400 C399 1.394 . S
C400 C401 1.516 . S
C401 C400 1.516 . S
C401 C402 1.502 . S
C401 C403 1.561 . S
C401 C404 1.526 . S
C402 H386 0.959 . S
C402 H387 0.959 . S
C402 H388 0.961 . S
C402 C401 1.502 . S
C403 H389 0.960 . S
C403 H390 0.961 . S
C403 H391 0.959 . S
C403 C401 1.561 . S
C404 C401 1.526 . S
C404 C405 1.396 . S
C404 C409 1.390 . S
C405 C399 1.465 . S
C405 C404 1.396 . S
C405 C406 1.399 1_554 S
C406 H392 0.929 . S
C406 C405 1.399 1_556 S
C406 C407 1.385 . S
C407 H393 0.931 . S
C407 C406 1.385 . S
C407 C408 1.389 . S
C408 C407 1.389 . S
C408 C409 1.387 1_556 S
C409 H394 0.930 . S
C409 C404 1.390 . S
C409 C408 1.387 1_554 S
H410 C422 0.930 . S
H411 C424 0.930 . S
H412 C425 0.930 . S
H413 C429 0.959 . S
H414 C429 0.959 . S
H415 C429 0.961 . S
H416 C430 0.960 . S
H417 C430 0.961 . S
H418 C430 0.959 . S
H419 C433 0.929 . S
H420 C434 0.931 . S
H421 C436 0.930 . S
C422 H410 0.930 . S
C422 C423 1.399 . S
C422 C427 1.399 . S
C423 C422 1.399 . S
C423 C424 1.376 . S
C424 H411 0.930 . S
C424 C423 1.376 . S
C424 C425 1.388 . S
C425 H412 0.930 . S
C425 C424 1.388 . S
C425 C426 1.390 . S
C426 C425 1.390 . S
C426 C427 1.394 . S
C426 C432 1.465 . S
C427 C422 1.399 . S
C427 C426 1.394 . S
C427 C428 1.516 . S
C428 C427 1.516 . S
C428 C429 1.502 . S
C428 C430 1.561 . S
C428 C431 1.526 . S
C429 H413 0.959 . S
C429 H414 0.959 . S
C429 H415 0.961 . S
C429 C428 1.502 . S
C430 H416 0.960 . S
C430 H417 0.961 . S
C430 H418 0.959 . S
C430 C428 1.561 . S
C431 C428 1.526 . S
C431 C432 1.396 . S
C431 C436 1.390 . S
C432 C426 1.465 . S
C432 C431 1.396 . S
C432 C433 1.399 1_554 S
C433 H419 0.929 . S
C433 C432 1.399 1_556 S
C433 C434 1.385 . S
C434 H420 0.931 . S
C434 C433 1.385 . S
C434 C435 1.389 . S
C435 C434 1.389 . S
C435 C436 1.387 1_556 S
C436 H421 0.930 . S
C436 C431 1.390 . S
C436 C435 1.387 1_554 S
H437 C449 0.930 . S
H438 C451 0.930 . S
H439 C452 0.930 . S
H440 C456 0.959 . S
H441 C456 0.959 . S
H442 C456 0.961 . S
H443 C457 0.960 . S
H444 C457 0.961 . S
H445 C457 0.959 . S
H446 C460 0.929 . S
H447 C461 0.930 1_455 S
H448 C463 0.930 . S
C449 H437 0.930 . S
C449 C450 1.399 . S
C449 C454 1.399 . S
C450 C449 1.399 . S
C450 C451 1.376 . S
C451 H438 0.930 . S
C451 C450 1.376 . S
C451 C452 1.388 . S
C452 H439 0.930 . S
C452 C451 1.388 . S
C452 C453 1.390 . S
C453 C452 1.390 . S
C453 C454 1.394 . S
C453 C459 1.465 . S
C454 C449 1.399 . S
C454 C453 1.394 . S
C454 C455 1.516 . S
C455 C454 1.516 . S
C455 C456 1.502 1_655 S
C455 C457 1.561 . S
C455 C458 1.526 . S
C456 H440 0.959 . S
C456 H441 0.959 . S
C456 H442 0.961 . S
C456 C455 1.502 1_455 S
C457 H443 0.960 . S
C457 H444 0.961 . S
C457 H445 0.959 . S
C457 C455 1.561 . S
C458 C455 1.526 . S
C458 C459 1.396 . S
C458 C463 1.390 . S
C459 C453 1.465 . S
C459 C458 1.396 . S
C459 C460 1.399 1_554 S
C460 H446 0.929 . S
C460 C459 1.399 1_556 S
C460 C461 1.387 . S
C461 H447 0.930 1_655 S
C461 C460 1.387 . S
C461 C462 1.390 . S
C462 C461 1.390 . S
C462 C463 1.387 1_556 S
C463 H448 0.930 . S
C463 C458 1.390 . S
C463 C462 1.387 1_554 S
H464 C476 0.930 . S
H465 C478 0.930 . S
H466 C479 0.930 . S
H467 C483 0.959 . S
H468 C483 0.959 . S
H469 C483 0.961 . S
H470 C484 0.960 . S
H471 C484 0.961 . S
H472 C484 0.959 . S
H473 C487 0.929 . S
H474 C488 0.931 1_455 S
H475 C490 0.930 . S
C476 H464 0.930 . S
C476 C477 1.399 1_655 S
C476 C481 1.399 . S
C477 C476 1.399 1_455 S
C477 C478 1.376 . S
C478 H465 0.930 . S
C478 C477 1.376 . S
C478 C479 1.388 . S
C479 H466 0.930 . S
C479 C478 1.388 . S
C479 C480 1.430 . S
C480 C479 1.430 . S
C480 C481 1.356 1_455 S
C480 C486 1.455 1_455 S
C481 C476 1.399 . S
C481 C480 1.356 1_655 S
C481 C482 1.516 . S
C482 C481 1.516 . S
C482 C483 1.502 . S
C482 C484 1.561 . S
C482 C485 1.526 . S
C483 H467 0.959 . S
C483 H468 0.959 . S
C483 H469 0.961 . S
C483 C482 1.502 . S
C484 H470 0.960 . S
C484 H471 0.961 . S
C484 H472 0.959 . S
C484 C482 1.561 . S
C485 C482 1.526 . S
C485 C486 1.396 . S
C485 C490 1.390 . S
C486 C480 1.455 1_655 S
C486 C485 1.396 . S
C486 C487 1.399 1_655 S
C487 H473 0.929 . S
C487 C486 1.399 1_455 S
C487 C488 1.385 1_455 S
C488 H474 0.931 1_655 S
C488 C487 1.385 1_655 S
C488 C489 1.389 . S
C489 C488 1.389 . S
C489 C490 1.387 . S
C490 H475 0.930 . S
C490 C485 1.390 . S
C490 C489 1.387 . S
H491 C503 0.930 . S
H492 C505 0.930 . S
H493 C506 0.930 . S
H494 C510 0.959 . S
H495 C510 0.959 . S
H496 C510 0.961 . S
H497 C511 0.960 . S
H498 C511 0.961 . S
H499 C511 0.959 . S
H500 C514 0.929 . S
H501 C515 0.931 . S
H502 C517 0.930 1_545 S
C503 H491 0.930 . S
C503 C504 1.381 1_545 S
C503 C508 1.399 . S
C504 C503 1.381 1_565 S
C504 C505 1.408 . S
C505 H492 0.930 . S
C505 C504 1.408 . S
C505 C506 1.388 . S
C506 H493 0.930 . S
C506 C505 1.388 . S
C506 C507 1.390 . S
C507 C506 1.390 . S
C507 C508 1.394 1_565 S
C507 C513 1.465 . S
C508 C503 1.399 . S
C508 C507 1.394 1_545 S
C508 C509 1.516 . S
C509 C508 1.516 . S
C509 C510 1.502 . S
C509 C511 1.561 . S
C509 C512 1.526 1_545 S
C510 H494 0.959 . S
C510 H495 0.959 . S
C510 H496 0.961 . S
C510 C509 1.502 . S
C511 H497 0.960 . S
C511 H498 0.961 . S
C511 H499 0.959 . S
C511 C509 1.561 . S
C512 C509 1.526 1_565 S
C512 C513 1.396 . S
C512 C517 1.390 . S
C513 C507 1.465 . S
C513 C512 1.396 . S
C513 C514 1.399 . S
C514 H500 0.929 . S
C514 C513 1.399 . S
C514 C515 1.385 . S
C515 H501 0.931 . S
C515 C514 1.385 . S
C515 C516 1.389 . S
C516 C515 1.389 . S
C516 C517 1.387 . S
C517 H502 0.930 1_565 S
C517 C512 1.390 . S
C517 C516 1.387 . S
H518 C530 0.930 . S
H519 C532 0.930 . S
H520 C533 0.930 . S
H521 C537 0.959 . S
H522 C537 0.959 . S
H523 C537 0.961 . S
H524 C538 0.960 . S
H525 C538 0.961 . S
H526 C538 0.959 . S
H527 C541 0.929 . S
H528 C542 0.931 . S
H529 C544 0.930 . S
C530 H518 0.930 . S
C530 C531 1.399 . S
C530 C535 1.399 . S
C531 C530 1.399 . S
C531 C532 1.376 . S
C532 H519 0.930 . S
C532 C531 1.376 . S
C532 C533 1.388 . S
C533 H520 0.930 . S
C533 C532 1.388 . S
C533 C534 1.390 . S
C534 C533 1.390 . S
C534 C535 1.394 . S
C534 C540 1.465 . S
C535 C530 1.399 . S
C535 C534 1.394 . S
C535 C536 1.516 . S
C536 C535 1.516 . S
C536 C537 1.502 . S
C536 C538 1.561 . S
C536 C539 1.526 . S
C537 H521 0.959 . S
C537 H522 0.959 . S
C537 H523 0.961 . S
C537 C536 1.502 . S
C538 H524 0.960 . S
C538 H525 0.961 . S
C538 H526 0.959 . S
C538 C536 1.561 . S
C539 C536 1.526 . S
C539 C540 1.396 . S
C539 C544 1.390 . S
C540 C534 1.465 . S
C540 C539 1.396 . S
C540 C541 1.399 . S
C541 H527 0.929 . S
C541 C540 1.399 . S
C541 C542 1.385 . S
C542 H528 0.931 . S
C542 C541 1.385 . S
C542 C543 1.389 . S
C543 C542 1.389 . S
C543 C544 1.387 . S
C544 H529 0.930 . S
C544 C539 1.390 . S
C544 C543 1.387 . S
H545 C557 0.930 . S
H546 C559 0.930 . S
H547 C560 0.930 . S
H548 C564 0.959 . S
H549 C564 0.959 . S
H550 C564 0.961 . S
H551 C565 0.960 . S
H552 C565 0.961 . S
H553 C565 0.959 . S
H554 C568 0.929 . S
H555 C569 0.931 . S
H556 C571 0.930 . S
C557 H545 0.930 . S
C557 C558 1.399 . S
C557 C562 1.399 . S
C558 C557 1.399 . S
C558 C559 1.376 . S
C559 H546 0.930 . S
C559 C558 1.376 . S
C559 C560 1.388 . S
C560 H547 0.930 . S
C560 C559 1.388 . S
C560 C561 1.390 . S
C561 C560 1.390 . S
C561 C562 1.394 . S
C561 C567 1.465 . S
C562 C557 1.399 . S
C562 C561 1.394 . S
C562 C563 1.516 . S
C563 C562 1.516 . S
C563 C564 1.502 . S
C563 C565 1.561 . S
C563 C566 1.526 . S
C564 H548 0.959 . S
C564 H549 0.959 . S
C564 H550 0.961 . S
C564 C563 1.502 . S
C565 H551 0.960 . S
C565 H552 0.961 . S
C565 H553 0.959 . S
C565 C563 1.561 . S
C566 C563 1.526 . S
C566 C567 1.396 . S
C566 C571 1.390 . S
C567 C561 1.465 . S
C567 C566 1.396 . S
C567 C568 1.399 . S
C568 H554 0.929 . S
C568 C567 1.399 . S
C568 C569 1.385 . S
C569 H555 0.931 . S
C569 C568 1.385 . S
C569 C570 1.389 . S
C570 C569 1.389 . S
C570 C571 1.387 . S
C571 H556 0.930 . S
C571 C566 1.390 . S
C571 C570 1.387 . S
H572 C584 0.930 . S
H573 C586 0.930 . S
H574 C587 0.930 . S
H575 C591 0.959 . S
H576 C591 0.959 . S
H577 C591 0.961 . S
H578 C592 0.960 . S
H579 C592 0.961 . S
H580 C592 0.959 . S
H581 C595 0.929 1_655 S
H582 C596 0.931 1_556 S
H583 C598 0.930 . S
C584 H572 0.930 . S
C584 C585 1.399 1_455 S
C584 C589 1.399 . S
C585 C584 1.399 1_655 S
C585 C586 1.376 . S
C586 H573 0.930 . S
C586 C585 1.376 . S
C586 C587 1.388 . S
C587 H574 0.930 . S
C587 C586 1.388 . S
C587 C588 1.390 1_655 S
C588 C587 1.390 1_455 S
C588 C589 1.394 . S
C588 C594 1.465 . S
C589 C584 1.399 . S
C589 C588 1.394 . S
C589 C590 1.516 . S
C590 C589 1.516 . S
C590 C591 1.502 . S
C590 C592 1.561 . S
C590 C593 1.526 . S
C591 H575 0.959 . S
C591 H576 0.959 . S
C591 H577 0.961 . S
C591 C590 1.502 . S
C592 H578 0.960 . S
C592 H579 0.961 . S
C592 H580 0.959 . S
C592 C590 1.561 . S
C593 C590 1.526 . S
C593 C594 1.396 . S
C593 C598 1.390 . S
C594 C588 1.465 . S
C594 C593 1.396 . S
C594 C595 1.399 . S
C595 H581 0.929 1_455 S
C595 C594 1.399 . S
C595 C596 1.385 . S
C596 H582 0.931 1_554 S
C596 C595 1.385 . S
C596 C597 1.389 . S
C597 C596 1.389 . S
C597 C598 1.387 . S
C598 H583 0.930 . S
C598 C593 1.390 . S
C598 C597 1.387 . S
H599 C611 0.930 . S
H600 C613 0.930 . S
H601 C614 0.930 . S
H602 C618 0.959 . S
H603 C618 0.959 . S
H604 C618 0.961 . S
H605 C619 0.960 . S
H606 C619 0.961 . S
H607 C619 0.959 . S
H608 C622 0.929 . S
H609 C623 0.931 . S
H610 C625 0.930 1_565 S
C611 H599 0.930 . S
C611 C612 1.375 1_565 S
C611 C616 1.399 . S
C612 C611 1.375 1_545 S
C612 C613 1.420 . S
C613 H600 0.930 . S
C613 C612 1.420 . S
C613 C614 1.388 . S
C614 H601 0.930 . S
C614 C613 1.388 . S
C614 C615 1.390 . S
C615 C614 1.390 . S
C615 C616 1.394 1_545 S
C615 C621 1.465 . S
C616 C611 1.399 . S
C616 C615 1.394 1_565 S
C616 C617 1.516 . S
C617 C616 1.516 . S
C617 C618 1.502 . S
C617 C619 1.561 . S
C617 C620 1.526 1_565 S
C618 H602 0.959 . S
C618 H603 0.959 . S
C618 H604 0.961 . S
C618 C617 1.502 . S
C619 H605 0.960 . S
C619 H606 0.961 . S
C619 H607 0.959 . S
C619 C617 1.561 . S
C620 C617 1.526 1_545 S
C620 C621 1.396 . S
C620 C625 1.390 . S
C621 C615 1.465 . S
C621 C620 1.396 . S
C621 C622 1.399 . S
C622 H608 0.929 . S
C622 C621 1.399 . S
C622 C623 1.385 . S
C623 H609 0.931 . S
C623 C622 1.385 . S
C623 C624 1.389 . S
C624 C623 1.389 . S
C624 C625 1.387 . S
C625 H610 0.930 1_545 S
C625 C620 1.390 . S
C625 C624 1.387 . S
H626 C638 0.930 . S
H627 C640 0.930 . S
H628 C641 0.930 . S
H629 C645 0.959 . S
H630 C645 0.959 . S
H631 C645 0.961 . S
H632 C646 0.960 . S
H633 C646 0.961 . S
H634 C646 0.959 . S
H635 C649 0.929 . S
H636 C650 0.931 . S
H637 C652 0.930 . S
C638 H626 0.930 . S
C638 C639 1.399 . S
C638 C643 1.399 . S
C639 C638 1.399 . S
C639 C640 1.376 . S
C640 H627 0.930 . S
C640 C639 1.376 . S
C640 C641 1.388 . S
C641 H628 0.930 . S
C641 C640 1.388 . S
C641 C642 1.390 . S
C642 C641 1.390 . S
C642 C643 1.394 . S
C642 C648 1.465 . S
C643 C638 1.399 . S
C643 C642 1.394 . S
C643 C644 1.516 . S
C644 C643 1.516 . S
C644 C645 1.502 . S
C644 C646 1.561 . S
C644 C647 1.526 . S
C645 H629 0.959 . S
C645 H630 0.959 . S
C645 H631 0.961 . S
C645 C644 1.502 . S
C646 H632 0.960 . S
C646 H633 0.961 . S
C646 H634 0.959 . S
C646 C644 1.561 . S
C647 C644 1.526 . S
C647 C648 1.396 . S
C647 C652 1.390 . S
C648 C642 1.465 . S
C648 C647 1.396 . S
C648 C649 1.399 . S
C649 H635 0.929 . S
C649 C648 1.399 . S
C649 C650 1.385 . S
C650 H636 0.931 . S
C650 C649 1.385 . S
C650 C651 1.389 . S
C651 C650 1.389 . S
C651 C652 1.387 . S
C652 H637 0.930 . S
C652 C647 1.390 . S
C652 C651 1.387 . S
H653 C665 0.930 . S
H654 C667 0.930 . S
H655 C668 0.930 . S
H656 C672 0.959 . S
H657 C672 0.959 . S
H658 C672 0.961 . S
H659 C673 0.960 . S
H660 C673 0.961 . S
H661 C673 0.959 . S
H662 C676 0.929 . S
H663 C677 0.931 . S
H664 C679 0.930 . S
C665 H653 0.930 . S
C665 C666 1.399 . S
C665 C670 1.399 . S
C666 C665 1.399 . S
C666 C667 1.376 . S
C667 H654 0.930 . S
C667 C666 1.376 . S
C667 C668 1.388 . S
C668 H655 0.930 . S
C668 C667 1.388 . S
C668 C669 1.390 . S
C669 C668 1.390 . S
C669 C670 1.394 . S
C669 C675 1.465 . S
C670 C665 1.399 . S
C670 C669 1.394 . S
C670 C671 1.516 . S
C671 C670 1.516 . S
C671 C672 1.502 . S
C671 C673 1.561 . S
C671 C674 1.526 . S
C672 H656 0.959 . S
C672 H657 0.959 . S
C672 H658 0.961 . S
C672 C671 1.502 . S
C673 H659 0.960 . S
C673 H660 0.961 . S
C673 H661 0.959 . S
C673 C671 1.561 . S
C674 C671 1.526 . S
C674 C675 1.396 . S
C674 C679 1.390 . S
C675 C669 1.465 . S
C675 C674 1.396 . S
C675 C676 1.399 . S
C676 H662 0.929 . S
C676 C675 1.399 . S
C676 C677 1.385 . S
C677 H663 0.931 . S
C677 C676 1.385 . S
C677 C678 1.389 . S
C678 C677 1.389 . S
C678 C679 1.387 . S
C679 H664 0.930 . S
C679 C674 1.390 . S
C679 C678 1.387 . S
H680 C692 0.930 . S
H681 C694 0.930 1_554 S
H682 C695 0.930 1_554 S
H683 C699 0.959 . S
H684 C699 0.959 . S
H685 C699 0.961 . S
H686 C700 0.960 1_655 S
H687 C700 0.961 1_655 S
H688 C700 0.959 . S
H689 C703 0.929 . S
H690 C704 0.931 . S
H691 C706 0.930 . S
C692 H680 0.930 . S
C692 C693 1.399 1_655 S
C692 C697 1.399 . S
C693 C692 1.399 1_455 S
C693 C694 1.376 . S
C694 H681 0.930 1_556 S
C694 C693 1.376 . S
C694 C695 1.388 . S
C695 H682 0.930 1_556 S
C695 C694 1.388 . S
C695 C696 1.390 . S
C696 C695 1.390 . S
C696 C697 1.394 1_455 S
C696 C702 1.465 . S
C697 C692 1.399 . S
C697 C696 1.394 1_655 S
C697 C698 1.516 . S
C698 C697 1.516 . S
C698 C699 1.502 . S
C698 C700 1.561 1_655 S
C698 C701 1.515 1_655 S
C699 H683 0.959 . S
C699 H684 0.959 . S
C699 H685 0.961 . S
C699 C698 1.502 . S
C700 H686 0.960 1_455 S
C700 H687 0.961 1_455 S
C700 H688 0.959 . S
C700 C698 1.561 1_455 S
C701 C698 1.515 1_455 S
C701 C702 1.412 . S
C701 C706 1.387 1_455 S
C702 C696 1.465 . S
C702 C701 1.412 . S
C702 C703 1.399 . S
C703 H689 0.929 . S
C703 C702 1.399 . S
C703 C704 1.385 . S
C704 H690 0.931 . S
C704 C703 1.385 . S
C704 C705 1.389 . S
C705 C704 1.389 . S
C705 C706 1.387 1_455 S
C706 H691 0.930 . S
C706 C701 1.387 1_655 S
C706 C705 1.387 1_655 S
H707 C719 0.930 . S
H708 C721 0.930 1_554 S
H709 C722 0.930 1_554 S
H710 C726 0.959 . S
H711 C726 0.959 . S
H712 C726 0.961 . S
H713 C727 0.960 . S
H714 C727 0.961 . S
H715 C727 0.959 . S
H716 C730 0.929 . S
H717 C731 0.931 . S
H718 C733 0.930 . S
C719 H707 0.930 . S
C719 C720 1.421 . S
C719 C724 1.399 . S
C720 C719 1.421 . S
C720 C721 1.353 1_545 S
C721 H708 0.930 1_556 S
C721 C720 1.353 1_565 S
C721 C722 1.388 . S
C722 H709 0.930 1_556 S
C722 C721 1.388 . S
C722 C723 1.390 . S
C723 C722 1.390 . S
C723 C724 1.394 1_565 S
C723 C729 1.468 . S
C724 C719 1.399 . S
C724 C723 1.394 1_545 S
C724 C725 1.516 . S
C725 C724 1.516 . S
C725 C726 1.502 . S
C725 C727 1.561 . S
C725 C728 1.526 . S
C726 H710 0.959 . S
C726 H711 0.959 . S
C726 H712 0.961 . S
C726 C725 1.502 . S
C727 H713 0.960 . S
C727 H714 0.961 . S
C727 H715 0.959 . S
C727 C725 1.561 . S
C728 C725 1.526 . S
C728 C729 1.367 1_545 S
C728 C733 1.390 . S
C729 C723 1.468 . S
C729 C728 1.367 1_565 S
C729 C730 1.421 . S
C730 H716 0.929 . S
C730 C729 1.421 . S
C730 C731 1.385 . S
C731 H717 0.931 . S
C731 C730 1.385 . S
C731 C732 1.389 1_565 S
C732 C731 1.389 1_545 S
C732 C733 1.387 . S
C733 H718 0.930 . S
C733 C728 1.390 . S
C733 C732 1.387 . S
H734 C746 0.930 1_554 S
H735 C748 0.930 . S
H736 C749 0.930 . S
H737 C753 0.959 1_556 S
H738 C753 0.959 . S
H739 C753 0.961 . S
H740 C754 0.960 . S
H741 C754 0.961 . S
H742 C754 0.959 . S
H743 C757 0.929 . S
H744 C758 0.931 . S
H745 C760 0.930 . S
C746 H734 0.930 1_556 S
C746 C747 1.399 . S
C746 C751 1.399 . S
C747 C746 1.399 . S
C747 C748 1.376 . S
C748 H735 0.930 . S
C748 C747 1.376 . S
C748 C749 1.388 . S
C749 H736 0.930 . S
C749 C748 1.388 . S
C749 C750 1.390 . S
C750 C749 1.390 . S
C750 C751 1.394 . S
C750 C756 1.465 . S
C751 C746 1.399 . S
C751 C750 1.394 . S
C751 C752 1.516 . S
C752 C751 1.516 . S
C752 C753 1.502 1_556 S
C752 C754 1.561 1_556 S
C752 C755 1.526 . S
C753 H737 0.959 1_554 S
C753 H738 0.959 . S
C753 H739 0.961 . S
C753 C752 1.502 1_554 S
C754 H740 0.960 . S
C754 H741 0.961 . S
C754 H742 0.959 . S
C754 C752 1.561 1_554 S
C755 C752 1.526 . S
C755 C756 1.396 . S
C755 C760 1.390 . S
C756 C750 1.465 . S
C756 C755 1.396 . S
C756 C757 1.399 . S
C757 H743 0.929 . S
C757 C756 1.399 . S
C757 C758 1.385 . S
C758 H744 0.931 . S
C758 C757 1.385 . S
C758 C759 1.389 . S
C759 C758 1.389 . S
C759 C760 1.387 . S
C760 H745 0.930 . S
C760 C755 1.390 . S
C760 C759 1.387 . S
H761 C773 0.930 . S
H762 C775 0.930 . S
H763 C776 0.930 . S
H764 C780 0.959 . S
H765 C780 0.959 . S
H766 C780 0.961 . S
H767 C781 0.960 . S
H768 C781 0.961 . S
H769 C781 0.959 . S
H770 C784 0.929 . S
H771 C785 0.931 . S
H772 C787 0.930 . S
C773 H761 0.930 . S
C773 C774 1.399 . S
C773 C778 1.399 . S
C774 C773 1.399 . S
C774 C775 1.376 . S
C775 H762 0.930 . S
C775 C774 1.376 . S
C775 C776 1.388 . S
C776 H763 0.930 . S
C776 C775 1.388 . S
C776 C777 1.390 . S
C777 C776 1.390 . S
C777 C778 1.394 . S
C777 C783 1.465 . S
C778 C773 1.399 . S
C778 C777 1.394 . S
C778 C779 1.516 . S
C779 C778 1.516 . S
C779 C780 1.502 . S
C779 C781 1.561 . S
C779 C782 1.526 . S
C780 H764 0.959 . S
C780 H765 0.959 . S
C780 H766 0.961 . S
C780 C779 1.502 . S
C781 H767 0.960 . S
C781 H768 0.961 . S
C781 H769 0.959 . S
C781 C779 1.561 . S
C782 C779 1.526 . S
C782 C783 1.396 . S
C782 C787 1.390 . S
C783 C777 1.465 . S
C783 C782 1.396 . S
C783 C784 1.399 . S
C784 H770 0.929 . S
C784 C783 1.399 . S
C784 C785 1.385 . S
C785 H771 0.931 . S
C785 C784 1.385 . S
C785 C786 1.389 . S
C786 C785 1.389 . S
C786 C787 1.387 . S
C787 H772 0.930 . S
C787 C782 1.390 . S
C787 C786 1.387 . S
H788 C800 0.930 . S
H789 C802 0.930 . S
H790 C803 0.930 . S
H791 C807 0.959 . S
H792 C807 0.959 . S
H793 C807 0.961 . S
H794 C808 0.960 . S
H795 C808 0.961 . S
H796 C808 0.959 . S
H797 C811 0.929 . S
H798 C812 0.931 1_455 S
H799 C814 0.930 . S
C800 H788 0.930 . S
C800 C801 1.399 1_655 S
C800 C805 1.399 . S
C801 C800 1.399 1_455 S
C801 C802 1.377 . S
C802 H789 0.930 . S
C802 C801 1.377 . S
C802 C803 1.388 . S
C803 H790 0.930 . S
C803 C802 1.388 . S
C803 C804 1.390 . S
C804 C803 1.390 . S
C804 C805 1.394 1_455 S
C804 C810 1.465 1_455 S
C805 C800 1.399 . S
C805 C804 1.394 1_655 S
C805 C806 1.516 . S
C806 C805 1.516 . S
C806 C807 1.502 . S
C806 C808 1.561 1_655 S
C806 C809 1.526 . S
C807 H791 0.959 . S
C807 H792 0.959 . S
C807 H793 0.961 . S
C807 C806 1.502 . S
C808 H794 0.960 . S
C808 H795 0.961 . S
C808 H796 0.959 . S
C808 C806 1.561 1_455 S
C809 C806 1.526 . S
C809 C810 1.397 . S
C809 C814 1.390 . S
C810 C804 1.465 1_655 S
C810 C809 1.397 . S
C810 C811 1.398 1_655 S
C811 H797 0.929 . S
C811 C810 1.398 1_455 S
C811 C812 1.386 1_455 S
C812 H798 0.931 1_655 S
C812 C811 1.386 1_655 S
C812 C813 1.388 . S
C813 C812 1.388 . S
C813 C814 1.387 . S
C814 H799 0.930 . S
C814 C809 1.390 . S
C814 C813 1.387 . S
H815 C827 0.930 . S
H816 C829 0.930 . S
H817 C830 0.930 . S
H818 C834 0.959 . S
H819 C834 0.959 . S
H820 C834 0.961 . S
H821 C835 0.960 . S
H822 C835 0.961 . S
H823 C835 0.959 . S
H824 C838 0.929 . S
H825 C839 0.931 . S
H826 C841 0.930 . S
C827 H815 0.930 . S
C827 C828 1.399 1_545 S
C827 C832 1.399 . S
C828 C827 1.399 1_565 S
C828 C829 1.376 . S
C829 H816 0.930 . S
C829 C828 1.376 . S
C829 C830 1.388 . S
C830 H817 0.930 . S
C830 C829 1.388 . S
C830 C831 1.390 . S
C831 C830 1.390 . S
C831 C832 1.394 1_565 S
C831 C837 1.465 . S
C832 C827 1.399 . S
C832 C831 1.394 1_545 S
C832 C833 1.516 . S
C833 C832 1.516 . S
C833 C834 1.502 . S
C833 C835 1.561 . S
C833 C836 1.526 . S
C834 H818 0.959 . S
C834 H819 0.959 . S
C834 H820 0.961 . S
C834 C833 1.502 . S
C835 H821 0.960 . S
C835 H822 0.961 . S
C835 H823 0.959 . S
C835 C833 1.561 . S
C836 C833 1.526 . S
C836 C837 1.396 1_545 S
C836 C841 1.390 . S
C837 C831 1.465 . S
C837 C836 1.396 1_565 S
C837 C838 1.399 . S
C838 H824 0.929 . S
C838 C837 1.399 . S
C838 C839 1.385 . S
C839 H825 0.931 . S
C839 C838 1.385 . S
C839 C840 1.389 . S
C840 C839 1.389 . S
C840 C841 1.387 1_565 S
C841 H826 0.930 . S
C841 C836 1.390 . S
C841 C840 1.387 1_545 S
H842 C854 0.930 . S
H843 C856 0.930 . S
H844 C857 0.930 . S
H845 C861 0.959 . S
H846 C861 0.959 . S
H847 C861 0.961 . S
H848 C862 0.960 . S
H849 C862 0.961 . S
H850 C862 0.959 . S
H851 C865 0.929 . S
H852 C866 0.931 . S
H853 C868 0.930 . S
C854 H842 0.930 . S
C854 C855 1.399 . S
C854 C859 1.399 . S
C855 C854 1.399 . S
C855 C856 1.376 . S
C856 H843 0.930 . S
C856 C855 1.376 . S
C856 C857 1.388 . S
C857 H844 0.930 . S
C857 C856 1.388 . S
C857 C858 1.390 . S
C858 C857 1.390 . S
C858 C859 1.394 . S
C858 C864 1.465 . S
C859 C854 1.399 . S
C859 C858 1.394 . S
C859 C860 1.516 . S
C860 C859 1.516 . S
C860 C861 1.502 . S
C860 C862 1.561 . S
C860 C863 1.526 . S
C861 H845 0.959 . S
C861 H846 0.959 . S
C861 H847 0.961 . S
C861 C860 1.502 . S
C862 H848 0.960 . S
C862 H849 0.961 . S
C862 H850 0.959 . S
C862 C860 1.561 . S
C863 C860 1.526 . S
C863 C864 1.396 . S
C863 C868 1.390 . S
C864 C858 1.465 . S
C864 C863 1.396 . S
C864 C865 1.399 . S
C865 H851 0.929 . S
C865 C864 1.399 . S
C865 C866 1.385 . S
C866 H852 0.931 . S
C866 C865 1.385 . S
C866 C867 1.389 . S
C867 C866 1.389 . S
C867 C868 1.387 . S
C868 H853 0.930 . S
C868 C863 1.390 . S
C868 C867 1.387 . S
H869 C881 0.930 . S
H870 C883 0.930 . S
H871 C884 0.930 . S
H872 C888 0.959 . S
H873 C888 0.959 . S
H874 C888 0.961 . S
H875 C889 0.960 . S
H876 C889 0.961 . S
H877 C889 0.959 . S
H878 C892 0.929 . S
H879 C893 0.931 . S
H880 C895 0.930 . S
C881 H869 0.930 . S
C881 C882 1.399 . S
C881 C886 1.399 . S
C882 C881 1.399 . S
C882 C883 1.376 . S
C883 H870 0.930 . S
C883 C882 1.376 . S
C883 C884 1.388 . S
C884 H871 0.930 . S
C884 C883 1.388 . S
C884 C885 1.390 . S
C885 C884 1.390 . S
C885 C886 1.394 . S
C885 C891 1.465 . S
C886 C881 1.399 . S
C886 C885 1.394 . S
C886 C887 1.516 . S
C887 C886 1.516 . S
C887 C888 1.502 . S
C887 C889 1.561 . S
C887 C890 1.526 . S
C888 H872 0.959 . S
C888 H873 0.959 . S
C888 H874 0.961 . S
C888 C887 1.502 . S
C889 H875 0.960 . S
C889 H876 0.961 . S
C889 H877 0.959 . S
C889 C887 1.561 . S
C890 C887 1.526 . S
C890 C891 1.396 . S
C890 C895 1.390 . S
C891 C885 1.465 . S
C891 C890 1.396 . S
C891 C892 1.399 . S
C892 H878 0.929 . S
C892 C891 1.399 . S
C892 C893 1.385 . S
C893 H879 0.931 . S
C893 C892 1.385 . S
C893 C894 1.389 . S
C894 C893 1.389 . S
C894 C895 1.387 . S
C895 H880 0.930 . S
C895 C890 1.390 . S
C895 C894 1.387 . S
C261 C76 1.858 . S
C273 C90 1.957 . S
C300 C130 1.984 . S
C288 C87 1.867 . S
C327 C170 1.993 . S
C315 C54 1.816 . S
C354 C210 1.965 . S
C342 C65 1.828 . S
C381 C103 1.959 . S
C369 C32 1.812 1_545 S
C396 C43 1.802 . S
C408 C143 1.973 . S
C423 C10 1.807 . S
C435 C183 1.986 . S
C450 C21 1.795 . S
C462 C223 1.975 1_655 S
C489 C114 0.401 . S
C477 C60 0.515 . S
C516 C154 0.548 . S
C504 C71 0.525 1_565 S
C543 C194 0.497 . S
C531 C82 0.421 . S
C558 C49 0.565 . S
C570 C234 0.429 . S
C585 C16 0.600 1_655 S
C597 C97 0.464 . S
C624 C137 0.541 . S
C612 C27 0.422 . S
C651 C177 0.550 . S
C639 C38 0.496 . S
C666 C5 0.408 . S
C678 C217 0.511 . S
C693 C59 2.017 . S
C705 C91 2.303 . S
C720 C70 1.967 . S
C732 C131 2.269 . S
C759 C171 2.246 . S
C747 C81 2.038 . S
C786 C211 2.295 . S
C774 C48 2.009 . S
C801 C15 2.005 . S
C813 C110 2.305 . S
C840 C150 2.281 . S
C828 C26 1.974 1_565 S
C867 C190 2.256 . S
C855 C37 2.030 . S
C882 C4 2.060 . S
C894 C230 2.277 . S
