# Generated by pormake.
# Topology apo, (3,6)-cn, num edge types: 1
# Building blocks:
#     Node 0, Type 0, BuildingBlock: PAMTOO_clean_linker_0, # of connection points: 3
#     Node 1, Type 0, BuildingBlock: PAMTOO_clean_linker_0, # of connection points: 3
#     Node 2, Type 0, BuildingBlock: PAMTOO_clean_linker_0, # of connection points: 3
#     Node 3, Type 0, BuildingBlock: PAMTOO_clean_linker_0, # of connection points: 3
#     Node 4, Type 0, BuildingBlock: PAMTOO_clean_linker_0, # of connection points: 3
#     Node 5, Type 0, BuildingBlock: PAMTOO_clean_linker_0, # of connection points: 3
#     Node 6, Type 0, BuildingBlock: PAMTOO_clean_linker_0, # of connection points: 3
#     Node 7, Type 0, BuildingBlock: PAMTOO_clean_linker_0, # of connection points: 3
#     Node 8, Type 1, BuildingBlock: MIDCAF_clean_sbu_0, # of connection points: 6
#     Node 9, Type 1, BuildingBlock: MIDCAF_clean_sbu_0, # of connection points: 6
#     Node 10, Type 1, BuildingBlock: MIDCAF_clean_sbu_0, # of connection points: 6
#     Node 11, Type 1, BuildingBlock: MIDCAF_clean_sbu_0, # of connection points: 6
#     Edge 12, Type (0, 1), BuildingBlock: CIFDUS_clean_linker_0, # of connection points: 2
#     Edge 13, Type (0, 1), BuildingBlock: CIFDUS_clean_linker_0, # of connection points: 2
#     Edge 14, Type (0, 1), BuildingBlock: CIFDUS_clean_linker_0, # of connection points: 2
#     Edge 15, Type (0, 1), BuildingBlock: CIFDUS_clean_linker_0, # of connection points: 2
#     Edge 16, Type (0, 1), BuildingBlock: CIFDUS_clean_linker_0, # of connection points: 2
#     Edge 17, Type (0, 1), BuildingBlock: CIFDUS_clean_linker_0, # of connection points: 2
#     Edge 18, Type (0, 1), BuildingBlock: CIFDUS_clean_linker_0, # of connection points: 2
#     Edge 19, Type (0, 1), BuildingBlock: CIFDUS_clean_linker_0, # of connection points: 2
#     Edge 20, Type (0, 1), BuildingBlock: CIFDUS_clean_linker_0, # of connection points: 2
#     Edge 21, Type (0, 1), BuildingBlock: CIFDUS_clean_linker_0, # of connection points: 2
#     Edge 22, Type (0, 1), BuildingBlock: CIFDUS_clean_linker_0, # of connection points: 2
#     Edge 23, Type (0, 1), BuildingBlock: CIFDUS_clean_linker_0, # of connection points: 2
#     Edge 24, Type (0, 1), BuildingBlock: CIFDUS_clean_linker_0, # of connection points: 2
#     Edge 25, Type (0, 1), BuildingBlock: CIFDUS_clean_linker_0, # of connection points: 2
#     Edge 26, Type (0, 1), BuildingBlock: CIFDUS_clean_linker_0, # of connection points: 2
#     Edge 27, Type (0, 1), BuildingBlock: CIFDUS_clean_linker_0, # of connection points: 2
#     Edge 28, Type (0, 1), BuildingBlock: CIFDUS_clean_linker_0, # of connection points: 2
#     Edge 29, Type (0, 1), BuildingBlock: CIFDUS_clean_linker_0, # of connection points: 2
#     Edge 30, Type (0, 1), BuildingBlock: CIFDUS_clean_linker_0, # of connection points: 2
#     Edge 31, Type (0, 1), BuildingBlock: CIFDUS_clean_linker_0, # of connection points: 2
#     Edge 32, Type (0, 1), BuildingBlock: CIFDUS_clean_linker_0, # of connection points: 2
#     Edge 33, Type (0, 1), BuildingBlock: CIFDUS_clean_linker_0, # of connection points: 2
#     Edge 34, Type (0, 1), BuildingBlock: CIFDUS_clean_linker_0, # of connection points: 2
#     Edge 35, Type (0, 1), BuildingBlock: CIFDUS_clean_linker_0, # of connection points: 2
# Relax obj value: 0.013
# Max RMSD: 0.060
# Mean RMSD: 0.054
data_MOF--net-apo--node1-MIDCAF_clean_sbu_0--node2-PAMTOO_clean_linker_0--edge1-CIFDUS_clean_linker_0
_symmetry_space_group_name_H-M    P1
_symmetry_Int_Tables_number       1
_symmetry_cell_setting            triclinic
loop_
_symmetry_equiv_pos_as_xyz
'x, y, z'
_cell_length_a     31.953987
_cell_length_b     37.424587
_cell_length_c     28.92186
_cell_angle_alpha  89.236409
_cell_angle_beta   89.703347
_cell_angle_gamma 89.695175
loop_
_atom_site_label
_atom_site_type_symbol
_atom_site_fract_x
_atom_site_fract_y
_atom_site_fract_z
_atom_type_partial_charge
H0 H 0.41379 0.3635 0.44709 0.0
H1 H 0.33563 0.35346 0.32702 0.0
H2 H 0.33753 0.27008 0.43054 0.0
H3 H 0.34575 0.25994 0.31528 0.0
C4 C 0.31406 0.27232 0.31231 0.0
O5 O 0.30451 0.29169 0.35139 0.0
H6 H 0.31449 0.29061 0.2817 0.0
C7 C 0.39171 0.34841 0.42685 0.0
C8 C 0.37725 0.31539 0.44395 0.0
C9 C 0.37721 0.36244 0.38454 0.0
C10 C 0.3476 0.34299 0.3595 0.0
C11 C 0.33364 0.30962 0.37567 0.0
C12 C 0.34865 0.29571 0.41785 0.0
H13 H 0.1149 0.10129 0.93227 0.0
H14 H 0.1881 0.19623 0.90957 0.0
H15 H 0.17032 0.12287 0.79865 0.0
H16 H 0.24619 0.15861 0.77655 0.0
C17 C 0.24711 0.17203 0.81059 0.0
O18 O 0.20666 0.18174 0.82265 0.0
H19 H 0.26052 0.15275 0.83627 0.0
C20 C 0.13358 0.11809 0.90945 0.0
C21 C 0.14064 0.10788 0.8634 0.0
C22 C 0.15038 0.14998 0.92635 0.0
C23 C 0.17513 0.17152 0.89701 0.0
C24 C 0.18255 0.16139 0.85109 0.0
C25 C 0.16472 0.13008 0.83432 0.0
H26 H 0.93147 0.11241 0.62345 0.0
H27 H 0.845 0.12998 0.73587 0.0
H28 H 0.85174 0.20552 0.62305 0.0
H29 H 0.85242 0.22708 0.73253 0.0
C30 C 0.82211 0.21303 0.73801 0.0
O31 O 0.81473 0.18967 0.70236 0.0
H32 H 0.82422 0.19772 0.77114 0.0
C33 C 0.90785 0.12867 0.64028 0.0
C34 C 0.89375 0.16019 0.61825 0.0
C35 C 0.89042 0.11725 0.68268 0.0
C36 C 0.85902 0.13826 0.70328 0.0
C37 C 0.84549 0.1702 0.68224 0.0
C38 C 0.86268 0.18107 0.63955 0.0
H39 H 0.63593 0.38975 0.10199 0.0
H40 H 0.71377 0.29776 0.12964 0.0
H41 H 0.68877 0.37257 0.23744 0.0
H42 H 0.77019 0.3367 0.25709 0.0
C43 C 0.76832 0.31854 0.22707 0.0
O44 O 0.72659 0.31302 0.21694 0.0
H45 H 0.78478 0.33137 0.1972 0.0
C46 C 0.65614 0.37475 0.12526 0.0
C47 C 0.66017 0.38554 0.1715 0.0
C48 C 0.67526 0.34311 0.10975 0.0
C49 C 0.69964 0.32262 0.14072 0.0
C50 C 0.70481 0.33362 0.18654 0.0
C51 C 0.68498 0.36479 0.20176 0.0
H52 H 0.59569 0.63565 0.59084 0.0
H53 H 0.70228 0.70029 0.62119 0.0
H54 H 0.66439 0.61797 0.71713 0.0
H55 H 0.71025 0.67734 0.77275 0.0
C56 C 0.70958 0.69342 0.74018 0.0
O57 O 0.71571 0.67087 0.70323 0.0
H58 H 0.67839 0.70685 0.7385 0.0
C59 C 0.62063 0.64255 0.61431 0.0
C60 C 0.62657 0.62255 0.65525 0.0
C61 C 0.64834 0.66973 0.60107 0.0
C62 C 0.68039 0.67955 0.6312 0.0
C63 C 0.68471 0.66176 0.67405 0.0
C64 C 0.65853 0.63291 0.68548 0.0
H65 H 0.90977 0.87068 0.10552 0.0
H66 H 0.83133 0.84915 0.22394 0.0
H67 H 0.82134 0.78421 0.10319 0.0
H68 H 0.74178 0.81581 0.15488 0.0
C69 C 0.75224 0.8071 0.18996 0.0
O70 O 0.79304 0.79482 0.18768 0.0
H71 H 0.75057 0.8307 0.21288 0.0
C72 C 0.88649 0.8543 0.12295 0.0
C73 C 0.86805 0.82586 0.09926 0.0
C74 C 0.87296 0.86339 0.16757 0.0
C75 C 0.84209 0.84254 0.18948 0.0
C76 C 0.82355 0.81402 0.16641 0.0
C77 C 0.83612 0.80601 0.12108 0.0
H78 H 0.11698 0.86512 0.42846 0.0
H79 H 0.18977 0.76804 0.42577 0.0
H80 H 0.17484 0.83122 0.30167 0.0
H81 H 0.18712 0.76464 0.27318 0.0
C82 C 0.19634 0.75023 0.30545 0.0
O83 O 0.21019 0.77448 0.33744 0.0
H84 H 0.16834 0.73586 0.31906 0.0
C85 C 0.13499 0.84558 0.40926 0.0
C86 C 0.14242 0.85117 0.36187 0.0
C87 C 0.15222 0.81598 0.4328 0.0
C88 C 0.17594 0.79085 0.40802 0.0
C89 C 0.1841 0.79655 0.36064 0.0
C90 C 0.16774 0.82681 0.33797 0.0
H91 H 0.36796 0.59017 0.98584 0.0
H92 H 0.31801 0.60543 0.84907 0.0
H93 H 0.28997 0.6813 0.95576 0.0
H94 H 0.21989 0.64829 0.89358 0.0
C95 C 0.2363 0.6545 0.8604 0.0
O96 O 0.27716 0.66439 0.86876 0.0
H97 H 0.23648 0.62984 0.83933 0.0
C98 C 0.34892 0.60534 0.96152 0.0
C99 C 0.32907 0.63661 0.97644 0.0
C100 C 0.34508 0.59347 0.91592 0.0
C101 C 0.32185 0.61425 0.8843 0.0
C102 C 0.30155 0.6457 0.89878 0.0
C103 C 0.30553 0.65704 0.94477 0.0
Zn104 Zn 0.06336 0.10912 0.34463 0.0
Zn105 Zn 0.97595 0.12009 0.19875 0.0
Zn106 Zn 0.02025 0.11837 0.27213 0.0
C107 C 0.05493 0.14577 0.17309 0.0
C108 C 0.97545 0.04992 0.22202 0.0
O109 O 0.98441 0.14545 0.32928 0.0
O110 O 0.02575 0.1328 0.38837 0.0
C111 C 0.11426 0.14894 0.28677 0.0
O112 O 0.06169 0.14124 0.21676 0.0
O113 O 0.01967 0.13836 0.15638 0.0
O114 O 0.95747 0.07023 0.19319 0.0
O115 O 1.00078 0.06298 0.25199 0.0
O116 O 0.11333 0.13521 0.32676 0.0
O117 O 0.08257 0.14529 0.25963 0.0
O118 O 0.02839 0.0601 0.28816 0.0
O119 O 0.06975 0.05713 0.34921 0.0
C120 C 0.04929 0.04171 0.3183 0.0
O121 O 0.96436 0.1537 0.28672 0.0
O122 O 0.93322 0.15353 0.2187 0.0
C123 C 0.99271 0.14704 0.3729 0.0
C124 C 0.93446 0.16423 0.25978 0.0
Zn125 Zn 0.55422 0.36186 0.70179 0.0
Zn126 Zn 0.48525 0.34712 0.85499 0.0
Zn127 Zn 0.51784 0.35796 0.77827 0.0
C128 C 0.47053 0.41944 0.83418 0.0
C129 C 0.43728 0.30713 0.79911 0.0
O130 O 0.58257 0.33336 0.78508 0.0
O131 O 0.60789 0.33933 0.71431 0.0
C132 C 0.53928 0.43211 0.72691 0.0
O133 O 0.49386 0.41178 0.7991 0.0
O134 O 0.46249 0.39544 0.86389 0.0
O135 O 0.44287 0.31219 0.84157 0.0
O136 O 0.46187 0.32207 0.76905 0.0
O137 O 0.55502 0.41392 0.69475 0.0
O138 O 0.52216 0.41622 0.76197 0.0
O139 O 0.47887 0.32954 0.72488 0.0
O140 O 0.51704 0.33562 0.66141 0.0
C141 C 0.48433 0.3244 0.6811 0.0
O142 O 0.56631 0.33843 0.83007 0.0
O143 O 0.5307 0.33172 0.89524 0.0
C144 C 0.61242 0.32851 0.75539 0.0
C145 C 0.56509 0.33088 0.87386 0.0
Zn146 Zn 0.06829 0.85124 0.89205 0.0
Zn147 Zn 0.96656 0.85726 0.6942 0.0
Zn148 Zn 1.00518 0.84679 0.76767 0.0
C149 C 0.97992 0.92439 0.73158 0.0
C150 C 0.91335 0.81537 0.74819 0.0
O151 O 0.0619 0.81365 0.75674 0.0
O152 O 0.06421 0.83269 0.82614 0.0
C153 C 0.04428 0.91683 0.83614 0.0
O154 O 1.00064 0.90533 0.76092 0.0
O155 O 0.96092 0.90969 0.69886 0.0
O156 O 0.91617 0.82904 0.70818 0.0
O157 O 0.94336 0.81955 0.77727 0.0
O158 O 0.06113 0.90303 0.87241 0.0
O159 O 0.02694 0.89838 0.80336 0.0
O160 O 0.96456 0.8197 0.81919 0.0
O161 O 0.02238 0.83237 0.85177 0.0
C162 C 0.98556 0.82085 0.85647 0.0
O163 O 0.04471 0.82112 0.7129 0.0
O164 O 0.00809 0.83651 0.65099 0.0
C165 C 0.08135 0.81402 0.7951 0.0
C166 C 0.03959 0.82129 0.66871 0.0
Zn167 Zn 0.56547 0.63502 0.15709 0.0
Zn168 Zn 0.46311 0.6231 0.35482 0.0
Zn169 Zn 0.50617 0.6259 0.28436 0.0
C170 C 0.52958 0.66628 0.37861 0.0
C171 C 0.4784 0.55269 0.33845 0.0
O172 O 0.47476 0.64918 0.21866 0.0
O173 O 0.5077 0.65692 0.1488 0.0
C174 C 0.57773 0.66109 0.25439 0.0
O175 O 0.54066 0.65814 0.3371 0.0
O176 O 0.49555 0.65467 0.39507 0.0
O177 O 0.46031 0.57144 0.36849 0.0
O178 O 0.49822 0.56788 0.30459 0.0
O179 O 0.56364 0.63899 0.22596 0.0
O180 O 0.56133 0.65975 0.29458 0.0
O181 O 0.52727 0.57133 0.26921 0.0
O182 O 0.54974 0.60105 0.2103 0.0
C183 C 0.54743 0.57111 0.23104 0.0
O184 O 0.44664 0.64993 0.26124 0.0
O185 O 0.41222 0.64291 0.32699 0.0
C186 C 0.47558 0.65974 0.17537 0.0
C187 C 0.41288 0.65306 0.28525 0.0
H188 H 0.06391 0.87962 0.36598 0.0
H189 H 0.18648 0.89719 0.30693 0.0
H190 H 0.16507 0.95666 0.28039 0.0
H191 H 0.11551 0.00677 0.28524 0.0
H192 H 0.99386 -0.00922 0.34635 0.0
H193 H 0.01036 0.92736 0.36028 0.0
C194 C 0.08563 0.89634 0.34667 0.0
C195 C 0.12687 0.8843 0.33896 0.0
C196 C 0.07327 0.93075 0.33213 0.0
C197 C 0.15458 0.90586 0.31324 0.0
C198 C 0.14244 0.93995 0.29832 0.0
C199 C 0.09226 -0.01103 0.30028 0.0
C200 C 0.05367 0.0029 0.31484 0.0
C201 C 0.10245 0.95309 0.30908 0.0
C202 C 0.02365 0.98019 0.33468 0.0
C203 C 0.03327 0.94415 0.34298 0.0
H204 H 0.38959 0.5753 0.83732 0.0
H205 H 0.34213 0.53227 0.96655 0.0
H206 H 0.37883 0.47644 0.9534 0.0
H207 H 0.42542 0.44047 0.9077 0.0
H208 H 0.46772 0.47789 0.7739 0.0
H209 H 0.43285 0.53556 0.78673 0.0
C210 C 0.38696 0.55351 0.86222 0.0
C211 C 0.36392 0.55839 0.90347 0.0
C212 C 0.40787 0.52079 0.85413 0.0
C213 C 0.36057 0.52973 0.93521 0.0
C214 C 0.38145 0.49767 0.92769 0.0
C215 C 0.42735 0.4611 0.88108 0.0
C216 C 0.45069 0.45514 0.84049 0.0
C217 C 0.40562 0.49314 0.88775 0.0
C218 C 0.45176 0.48222 0.80634 0.0
C219 C 0.43112 0.515 0.8134 0.0
H220 H 0.60012 0.5914 0.73767 0.0
H221 H 0.60076 0.57594 0.58958 0.0
H222 H 0.56571 0.51954 0.59967 0.0
H223 H 0.54228 0.47128 0.64929 0.0
H224 H 0.54975 0.48021 0.79737 0.0
H225 H 0.5736 0.54232 0.7886 0.0
C226 C 0.59259 0.57574 0.70761 0.0
C227 C 0.60278 0.58869 0.66286 0.0
C228 C 0.57386 0.54193 0.71361 0.0
C229 C 0.59232 0.5678 0.62443 0.0
C230 C 0.5726 0.53506 0.63007 0.0
C231 C 0.5485 0.48698 0.67977 0.0
C232 C 0.5443 0.47128 0.72384 0.0
C233 C 0.5641 0.52158 0.67436 0.0
C234 C 0.55233 0.49191 0.76302 0.0
C235 C 0.56645 0.52723 0.75794 0.0
H236 H 0.95317 0.88664 0.18042 0.0
H237 H 0.8238 0.9165 0.20011 0.0
H238 H 0.8447 0.97622 0.22325 0.0
H239 H 0.89899 0.02182 0.22943 0.0
H240 H 0.0287 -0.00708 0.21271 0.0
H241 H 0.0088 0.93078 0.19766 0.0
C242 C 0.92975 0.90614 0.19053 0.0
C243 C 0.88699 0.89731 0.18832 0.0
C244 C 0.94206 0.94053 0.20409 0.0
C245 C 0.85686 0.92262 0.20181 0.0
C246 C 0.86877 0.95683 0.21475 0.0
C247 C 0.92286 0.00166 0.22334 0.0
C248 C 0.9651 0.01164 0.22184 0.0
C249 C 0.91113 0.96633 0.21482 0.0
C250 C 0.99598 0.98557 0.21421 0.0
C251 C 0.98454 0.9502 0.20525 0.0
H252 H 0.96927 0.08899 0.69366 0.0
H253 H 0.8386 0.0662 0.71773 0.0
H254 H 0.85638 0.00578 0.74324 0.0
H255 H 0.90756 0.95714 0.74859 0.0
H256 H 0.03796 0.97772 0.72248 0.0
H257 H 0.02222 0.0414 0.70898 0.0
C258 C 0.9448 0.07085 0.70494 0.0
C259 C 0.90258 0.08206 0.70335 0.0
C260 C 0.95527 0.03579 0.7193 0.0
C261 C 0.87128 0.05843 0.71878 0.0
C262 C 0.8814 0.02376 0.73318 0.0
C263 C 0.93263 0.97589 0.74132 0.0
C264 C 0.97379 0.96312 0.73678 0.0
C265 C 0.92306 0.01189 0.73232 0.0
C266 C 0.00614 0.98725 0.72681 0.0
C267 C 0.99698 0.02348 0.71849 0.0
H268 H 0.64927 0.45031 0.12858 0.0
H269 H 0.61752 0.39174 0.25332 0.0
H270 H 0.57886 0.44336 0.28215 0.0
H271 H 0.55479 0.50559 0.27245 0.0
H272 H 0.5865 0.56403 0.14772 0.0
H273 H 0.62375 0.51195 0.11814 0.0
C274 C 0.63364 0.44874 0.16192 0.0
C275 C 0.63664 0.41721 0.18881 0.0
C276 C 0.61127 0.47851 0.17827 0.0
C277 C 0.61647 0.41584 0.23219 0.0
C278 C 0.59405 0.44528 0.24861 0.0
C279 C 0.56957 0.50681 0.23869 0.0
C280 C 0.56778 0.53864 0.21239 0.0
C281 C 0.59136 0.47681 0.22204 0.0
C282 C 0.58736 0.53987 0.16874 0.0
C283 C 0.60877 0.5101 0.15179 0.0
H284 H 0.45708 0.38852 0.3814 0.0
H285 H 0.32898 0.41666 0.35043 0.0
H286 H 0.35046 0.47695 0.32834 0.0
H287 H 0.4043 0.52314 0.32438 0.0
H288 H 0.53231 0.49684 0.35629 0.0
H289 H 0.51258 0.4342 0.37095 0.0
C290 C 0.43397 0.40787 0.36962 0.0
C291 C 0.39141 0.39816 0.36784 0.0
C292 C 0.44658 0.4427 0.35708 0.0
C293 C 0.36189 0.42332 0.35185 0.0
C294 C 0.37412 0.45787 0.33942 0.0
C295 C 0.42795 0.50341 0.33364 0.0
C296 C 0.46963 0.51416 0.33892 0.0
C297 C 0.41617 0.46799 0.34269 0.0
C298 C 0.50014 0.4888 0.35135 0.0
C299 C 0.48873 0.45319 0.36016 0.0
H300 H 0.06275 0.07924 0.87561 0.0
H301 H 0.18314 0.05869 0.81278 0.0
H302 H 0.1604 -0.00077 0.79087 0.0
H303 H 0.10994 0.95033 0.79879 0.0
H304 H 0.99093 0.96898 0.86464 0.0
H305 H 0.00886 0.03205 0.87541 0.0
C306 C 0.08383 0.06178 0.85685 0.0
C307 C 0.12474 0.07324 0.84631 0.0
C308 C 0.07068 0.02734 0.84477 0.0
C309 C 0.15148 0.0506 0.82122 0.0
C310 C 0.13857 0.01651 0.80882 0.0
C311 C 0.08752 0.96864 0.8141 0.0
C312 C 0.04914 0.95556 0.83051 0.0
C313 C 0.09871 0.00428 0.8215 0.0
C314 C 0.02043 0.97893 0.85121 0.0
C315 C 0.03091 0.01477 0.85781 0.0
H316 H 0.17631 0.12204 1.00904 0.0
H317 H 0.09713 0.20333 0.94841 0.0
H318 H 0.06546 0.21492 1.024 0.0
H319 H 0.052 0.19431 0.1037 0.0
H320 H 0.13138 0.11383 0.16559 0.0
H321 H 0.17246 0.11034 0.09389 0.0
C322 C 0.15295 0.14294 1.01287 0.0
C323 C 0.13869 0.1617 0.97342 0.0
C324 C 0.135 0.14952 0.05661 0.0
C325 C 0.10848 0.1887 0.97844 0.0
C326 C 0.0903 0.1952 1.02158 0.0
C327 C 0.07943 0.17714 0.10205 0.0
C328 C 0.08864 0.15426 0.13965 0.0
C329 C 0.10219 0.17483 0.06049 0.0
C330 C 0.12402 0.13196 0.13722 0.0
C331 C 0.14704 0.12954 0.09593 0.0
H332 H 0.34855 0.33103 0.53 0.0
H333 H 0.44351 0.27153 0.45753 0.0
H334 H 0.48151 0.26153 0.52987 0.0
H335 H 0.49416 0.2799 0.6096 0.0
H336 H 0.40095 0.34108 0.68243 0.0
H337 H 0.35486 0.3391 0.61496 0.0
C338 C 0.37683 0.31487 0.5306 0.0
C339 C 0.39343 0.30195 0.48879 0.0
C340 C 0.3988 0.30974 0.57234 0.0
C341 C 0.43023 0.28143 0.48947 0.0
C342 C 0.45201 0.27592 0.53075 0.0
C343 C 0.46302 0.29154 0.6113 0.0
C344 C 0.45106 0.3109 0.65065 0.0
C345 C 0.43752 0.2913 0.57191 0.0
C346 C 0.41073 0.32586 0.65261 0.0
C347 C 0.38468 0.32522 0.61371 0.0
H348 H 0.68765 0.3756 0.02561 0.0
H349 H 0.63794 0.28038 0.09027 0.0
H350 H 0.60603 0.2632 1.01729 0.0
H351 H 0.58139 0.28142 0.94004 0.0
H352 H 0.63158 0.37581 0.87418 0.0
H353 H 0.67548 0.38655 0.94176 0.0
C354 C 0.67077 0.35064 1.02321 0.0
C355 C 0.66465 0.32946 0.06329 0.0
C356 C 0.65261 0.34084 0.98092 0.0
C357 C 0.64301 0.29706 0.05987 0.0
C358 C 0.6246 0.28732 1.01819 0.0
C359 C 0.60343 0.30339 0.93971 0.0
C360 C 0.60315 0.32792 0.90244 0.0
C361 C 0.62775 0.30975 0.97908 0.0
C362 C 0.63158 0.35639 0.90231 0.0
C363 C 0.6561 0.36288 0.94135 0.0
H364 H 0.8606 0.15325 0.53202 0.0
H365 H 0.9697 0.18937 0.60437 0.0
H366 H 0.00751 0.19633 0.53112 0.0
H367 H 0.0132 0.18259 0.44919 0.0
H368 H 0.90677 0.14233 0.37586 0.0
H369 H 0.8636 0.14775 0.44605 0.0
C370 C 0.89226 0.16356 0.53132 0.0
C371 C 0.91256 0.17086 0.57329 0.0
C372 C 0.91419 0.16658 0.48893 0.0
C373 C 0.95365 0.18375 0.57239 0.0
C374 C 0.97523 0.18759 0.53057 0.0
C375 C 0.98017 0.17604 0.44818 0.0
C376 C 0.96326 0.16173 0.40762 0.0
C377 C 0.95635 0.17779 0.48895 0.0
C378 C 0.92044 0.15356 0.40659 0.0
C379 C 0.89598 0.15616 0.44697 0.0
H380 H 0.94659 0.8126 0.0694 0.0
H381 H 0.81973 0.82302 1.02145 0.0
H382 H 0.844 0.81919 0.94091 0.0
H383 H 0.90283 0.8188 0.88398 0.0
H384 H 0.02911 0.80695 0.93442 0.0
H385 H 1.00365 0.80518 1.01368 0.0
C386 C 0.92426 0.81357 0.04125 0.0
C387 C 0.88159 0.81837 0.05115 0.0
C388 C 0.93843 0.81142 0.99535 0.0
C389 C 0.8528 0.81924 1.01455 0.0
C390 C 0.86671 0.81726 0.96854 0.0
C391 C 0.92459 0.81523 0.91234 0.0
C392 C 0.96793 0.81393 0.90325 0.0
C393 C 0.90965 0.81418 0.95842 0.0
C394 C 0.99571 0.80903 0.94039 0.0
C395 C 0.9812 0.80787 0.98586 0.0
H396 H 0.59157 0.71625 0.56635 0.0
H397 H 0.6964 0.65015 0.52836 0.0
H398 H 0.67305 0.65021 0.44789 0.0
H399 H 0.61283 0.656 0.3946 0.0
H400 H 0.50618 0.71927 0.43541 0.0
H401 H 0.54052 0.73456 0.50747 0.0
C402 C 0.61038 0.70353 0.53985 0.0
C403 C 0.64553 0.68328 0.55296 0.0
C404 C 0.59582 0.7026 0.49413 0.0
C405 C 0.66945 0.66626 0.51875 0.0
C406 C 0.65571 0.66584 0.47286 0.0
C407 C 0.59812 0.67449 0.41834 0.0
C408 C 0.55688 0.68612 0.41018 0.0
C409 C 0.61747 0.68201 0.46083 0.0
C410 C 0.53785 0.70982 0.44128 0.0
C411 C 0.55732 0.71831 0.48271 0.0
H412 H 0.368 0.69578 1.00725 0.0
H413 H 0.30679 0.59957 0.0539 0.0
H414 H 0.34025 0.60403 0.12938 0.0
H415 H 0.40079 0.62615 0.17275 0.0
H416 H 0.46598 0.7195 0.12294 0.0
H417 H 0.41655 0.72624 0.05931 0.0
C418 C 0.36054 0.67684 0.03476 0.0
C419 C 0.33544 0.64723 0.02508 0.0
C420 C 0.38136 0.67876 0.07743 0.0
C421 C 0.32621 0.62254 0.06073 0.0
C422 C 0.34567 0.62489 0.10373 0.0
C423 C 0.40277 0.64894 0.14927 0.0
C424 C 0.43707 0.67209 0.15208 0.0
C425 C 0.37541 0.65155 0.11134 0.0
C426 C 0.43977 0.70132 0.12121 0.0
C427 C 0.41179 0.70492 0.08449 0.0
H428 H 0.10994 0.76582 0.48358 0.0
H429 H 0.18167 0.86234 0.49535 0.0
H430 H 0.16027 0.86795 0.57618 0.0
H431 H 0.11048 0.85186 0.63797 0.0
H432 H 0.03405 0.75838 0.62434 0.0
H433 H 0.06848 0.74432 0.55089 0.0
C434 C 0.12185 0.78734 0.50446 0.0
C435 C 0.14711 0.81374 0.48373 0.0
C436 C 0.10828 0.79099 0.55065 0.0
C437 C 0.16207 0.84181 0.51076 0.0
C438 C 0.14971 0.84509 0.55688 0.0
C439 C 0.10292 0.82753 0.61988 0.0
C440 C 0.07043 0.8058 0.63668 0.0
C441 C 0.12139 0.82073 0.57658 0.0
C442 C 0.05967 0.775 0.61236 0.0
C443 C 0.07892 0.76729 0.57002 0.0
H444 H 0.24463 0.27275 0.25619 0.0
H445 H 0.31159 0.20764 0.35553 0.0
H446 H 0.25851 0.16114 0.35006 0.0
H447 H 0.19111 0.14131 0.32225 0.0
H448 H 0.12049 0.20652 0.22619 0.0
H449 H 0.17783 0.25014 0.22341 0.0
C450 C 0.24765 0.24815 0.27614 0.0
C451 C 0.28203 0.24336 0.30608 0.0
C452 C 0.21668 0.22159 0.27303 0.0
C453 C 0.28554 0.21166 0.33215 0.0
C454 C 0.25527 0.18514 0.32896 0.0
C455 C 0.18838 0.16483 0.30008 0.0
C456 C 0.15136 0.17091 0.27488 0.0
C457 C 0.22049 0.19009 0.30013 0.0
C458 C 0.14866 0.20118 0.24582 0.0
C459 C 0.18123 0.2263 0.24475 0.0
H460 H 0.3094 0.18654 0.74781 0.0
H461 H 0.2496 0.22796 0.87013 0.0
H462 H 0.30042 0.27624 0.87269 0.0
H463 H 0.36484 0.30313 0.84491 0.0
H464 H 0.42905 0.26068 0.72609 0.0
H465 H 0.37271 0.21692 0.7162 0.0
C466 C 0.30713 0.20662 0.7744 0.0
C467 C 0.27531 0.20415 0.80827 0.0
C468 C 0.33715 0.23397 0.77618 0.0
C469 C 0.27322 0.22973 0.84324 0.0
C470 C 0.30238 0.25721 0.84481 0.0
C471 C 0.36637 0.28454 0.81645 0.0
C472 C 0.40115 0.28487 0.78644 0.0
C473 C 0.33487 0.25908 0.8121 0.0
C474 C 0.40243 0.26109 0.74937 0.0
C475 C 0.37046 0.23586 0.74413 0.0
H476 H 0.75533 0.21585 0.79851 0.0
H477 H 0.81084 0.27055 0.68145 0.0
H478 H 0.75322 0.3138 0.68074 0.0
H479 H 0.68558 0.3335 0.70976 0.0
H480 H 0.62688 0.27825 0.82451 0.0
H481 H 0.68803 0.23848 0.8311 0.0
C482 C 0.75485 0.23751 0.77323 0.0
C483 C 0.78729 0.24029 0.74013 0.0
C484 C 0.72137 0.2622 0.77294 0.0
C485 C 0.78629 0.26816 0.70728 0.0
C486 C 0.75343 0.29282 0.70693 0.0
C487 C 0.68621 0.31301 0.73665 0.0
C488 C 0.65154 0.30872 0.76644 0.0
C489 C 0.72063 0.28978 0.73915 0.0
C490 C 0.65322 0.28234 0.80139 0.0
C491 C 0.68799 0.25933 0.80474 0.0
H492 H 0.83345 0.30631 0.28656 0.0
H493 H 0.7538 0.25288 0.18953 0.0
H494 H 0.79401 0.19794 0.19977 0.0
H495 H 0.85608 0.16748 0.2283 0.0
H496 H 0.94082 0.22088 0.3196 0.0
H497 H 0.89348 0.27293 0.32142 0.0
C498 C 0.82451 0.28235 0.26848 0.0
C499 C 0.79017 0.28353 0.23796 0.0
C500 C 0.8486 0.2509 0.27366 0.0
C501 C 0.77947 0.25258 0.21384 0.0
C502 C 0.80256 0.22116 0.21958 0.0
C503 C 0.86384 0.19024 0.24945 0.0
C504 C 0.90211 0.19061 0.27329 0.0
C505 C 0.8377 0.22033 0.2484 0.0
C506 C 0.9115 0.21996 0.30104 0.0
C507 C 0.8847 0.24987 0.30147 0.0
H508 H 0.77744 0.69873 0.79764 0.0
H509 H 0.71672 0.75024 0.68166 0.0
H510 H 0.77278 0.79435 0.67676 0.0
H511 H 0.84022 0.81601 0.70247 0.0
H512 H 0.90281 0.76502 0.81778 0.0
H513 H 0.84414 0.72342 0.82696 0.0
C514 C 0.77646 0.71987 0.77166 0.0
C515 C 0.74316 0.72142 0.73996 0.0
C516 C 0.80886 0.74516 0.76915 0.0
C517 C 0.74212 0.74871 0.70629 0.0
C518 C 0.77407 0.77386 0.70356 0.0
C519 C 0.84105 0.79598 0.72992 0.0
C520 C 0.87609 0.79337 0.75909 0.0
C521 C 0.80777 0.77203 0.7344 0.0
C522 C 0.87624 0.76761 0.79487 0.0
C523 C 0.84284 0.74368 0.79987 0.0
H524 H 0.68484 0.77718 0.14872 0.0
H525 H 0.75519 0.77411 0.27528 0.0
H526 H 0.70655 0.72982 0.30828 0.0
H527 H 0.64347 0.69142 0.3003 0.0
H528 H 0.57441 0.69625 0.17264 0.0
H529 H 0.62255 0.74037 0.14117 0.0
C530 C 0.68965 0.76665 0.18343 0.0
C531 C 0.72368 0.77854 0.20942 0.0
C532 C 0.66155 0.74155 0.20207 0.0
C533 C 0.72933 0.76497 0.25454 0.0
C534 C 0.70144 0.73983 0.27342 0.0
C535 C 0.63901 0.70239 0.26577 0.0
C536 C 0.60585 0.69008 0.23851 0.0
C537 C 0.66729 0.7279 0.24751 0.0
C538 C 0.60029 0.7045 0.19385 0.0
C539 C 0.62771 0.72995 0.17584 0.0
H540 H 0.2682 0.76299 0.25649 0.0
H541 H 0.20239 0.67993 0.33116 0.0
H542 H 0.26181 0.63943 0.32127 0.0
H543 H 0.33517 0.6306 0.30127 0.0
H544 H 0.4045 0.71451 0.23285 0.0
H545 H 0.34065 0.75127 0.2282 0.0
C546 C 0.26685 0.73579 0.2698 0.0
C547 C 0.23116 0.72436 0.29461 0.0
C548 C 0.30159 0.71286 0.26473 0.0
C549 C 0.22954 0.68923 0.31202 0.0
C550 C 0.26346 0.66611 0.30632 0.0
C551 C 0.33597 0.65657 0.2841 0.0
C552 C 0.3743 0.66998 0.26755 0.0
C553 C 0.29998 0.678 0.28399 0.0
C554 C 0.37519 0.70351 0.24531 0.0
C555 C 0.33885 0.72471 0.24346 0.0
H556 H 0.22294 0.72231 0.88985 0.0
H557 H 0.19513 0.65223 0.77729 0.0
H558 H 0.14826 0.69732 0.74345 0.0
H559 H 0.1094 0.75439 0.75051 0.0
H560 H 0.13622 0.82325 0.86493 0.0
H561 H 0.18947 0.78155 0.89278 0.0
C562 C 0.2072 0.71733 0.85744 0.0
C563 C 0.21249 0.68414 0.83606 0.0
C564 C 0.17983 0.74316 0.8386 0.0
C565 C 0.19164 0.67769 0.79431 0.0
C566 C 0.16473 0.70342 0.77503 0.0
C567 C 0.12758 0.76055 0.78092 0.0
C568 C 0.11856 0.7917 0.80583 0.0
C569 C 0.15776 0.73595 0.79746 0.0
C570 C 0.14221 0.79927 0.84536 0.0
C571 C 0.17267 0.77539 0.86144 0.0
loop_
_geom_bond_atom_site_label_1
_geom_bond_atom_site_label_2
_geom_bond_distance
_geom_bond_site_symmetry_2
_ccdc_geom_bond_type
H0 C7 0.929 . S
H1 C10 0.930 . S
H2 C12 0.929 . S
H3 C4 0.969 . S
C4 H3 0.969 . S
C4 O5 1.550 . S
C4 H6 0.973 . S
O5 C4 1.550 . S
O5 C11 1.412 . S
H6 C4 0.973 . S
C7 H0 0.929 . S
C7 C8 1.400 . S
C7 C9 1.364 . S
C8 C7 1.400 . S
C8 C12 1.377 . S
C9 C7 1.364 . S
C9 C10 1.374 . S
C10 H1 0.930 . S
C10 C9 1.374 . S
C10 C11 1.383 . S
C11 O5 1.412 . S
C11 C10 1.383 . S
C11 C12 1.394 . S
C12 H2 0.929 . S
C12 C8 1.377 . S
C12 C11 1.394 . S
H13 C20 0.929 . S
H14 C23 0.930 . S
H15 C25 0.929 . S
H16 C17 0.969 . S
C17 H16 0.969 . S
C17 O18 1.550 . S
C17 H19 0.973 . S
O18 C17 1.550 . S
O18 C24 1.412 . S
H19 C17 0.973 . S
C20 H13 0.929 . S
C20 C21 1.400 . S
C20 C22 1.364 . S
C21 C20 1.400 . S
C21 C25 1.377 . S
C22 C20 1.364 . S
C22 C23 1.374 . S
C23 H14 0.930 . S
C23 C22 1.374 . S
C23 C24 1.383 . S
C24 O18 1.412 . S
C24 C23 1.383 . S
C24 C25 1.394 . S
C25 H15 0.929 . S
C25 C21 1.377 . S
C25 C24 1.394 . S
H26 C33 0.929 . S
H27 C36 0.930 . S
H28 C38 0.929 . S
H29 C30 0.969 . S
C30 H29 0.969 . S
C30 O31 1.550 . S
C30 H32 0.973 . S
O31 C30 1.550 . S
O31 C37 1.412 . S
H32 C30 0.973 . S
C33 H26 0.929 . S
C33 C34 1.400 . S
C33 C35 1.364 . S
C34 C33 1.400 . S
C34 C38 1.377 . S
C35 C33 1.364 . S
C35 C36 1.374 . S
C36 H27 0.930 . S
C36 C35 1.374 . S
C36 C37 1.383 . S
C37 O31 1.412 . S
C37 C36 1.383 . S
C37 C38 1.394 . S
C38 H28 0.929 . S
C38 C34 1.377 . S
C38 C37 1.394 . S
H39 C46 0.929 . S
H40 C49 0.930 . S
H41 C51 0.929 . S
H42 C43 0.969 . S
C43 H42 0.969 . S
C43 O44 1.550 . S
C43 H45 0.973 . S
O44 C43 1.550 . S
O44 C50 1.412 . S
H45 C43 0.973 . S
C46 H39 0.929 . S
C46 C47 1.400 . S
C46 C48 1.364 . S
C47 C46 1.400 . S
C47 C51 1.377 . S
C48 C46 1.364 . S
C48 C49 1.374 . S
C49 H40 0.930 . S
C49 C48 1.374 . S
C49 C50 1.383 . S
C50 O44 1.412 . S
C50 C49 1.383 . S
C50 C51 1.394 . S
C51 H41 0.929 . S
C51 C47 1.377 . S
C51 C50 1.394 . S
H52 C59 0.929 . S
H53 C62 0.930 . S
H54 C64 0.929 . S
H55 C56 0.969 . S
C56 H55 0.969 . S
C56 O57 1.550 . S
C56 H58 0.973 . S
O57 C56 1.550 . S
O57 C63 1.412 . S
H58 C56 0.973 . S
C59 H52 0.929 . S
C59 C60 1.400 . S
C59 C61 1.364 . S
C60 C59 1.400 . S
C60 C64 1.377 . S
C61 C59 1.364 . S
C61 C62 1.374 . S
C62 H53 0.930 . S
C62 C61 1.374 . S
C62 C63 1.383 . S
C63 O57 1.412 . S
C63 C62 1.383 . S
C63 C64 1.394 . S
C64 H54 0.929 . S
C64 C60 1.377 . S
C64 C63 1.394 . S
H65 C72 0.929 . S
H66 C75 0.930 . S
H67 C77 0.929 . S
H68 C69 0.969 . S
C69 H68 0.969 . S
C69 O70 1.550 . S
C69 H71 0.973 . S
O70 C69 1.550 . S
O70 C76 1.412 . S
H71 C69 0.973 . S
C72 H65 0.929 . S
C72 C73 1.400 . S
C72 C74 1.364 . S
C73 C72 1.400 . S
C73 C77 1.377 . S
C74 C72 1.364 . S
C74 C75 1.374 . S
C75 H66 0.930 . S
C75 C74 1.374 . S
C75 C76 1.383 . S
C76 O70 1.412 . S
C76 C75 1.383 . S
C76 C77 1.394 . S
C77 H67 0.929 . S
C77 C73 1.377 . S
C77 C76 1.394 . S
H78 C85 0.929 . S
H79 C88 0.930 . S
H80 C90 0.929 . S
H81 C82 0.969 . S
C82 H81 0.969 . S
C82 O83 1.550 . S
C82 H84 0.973 . S
O83 C82 1.550 . S
O83 C89 1.412 . S
H84 C82 0.973 . S
C85 H78 0.929 . S
C85 C86 1.400 . S
C85 C87 1.364 . S
C86 C85 1.400 . S
C86 C90 1.377 . S
C87 C85 1.364 . S
C87 C88 1.374 . S
C88 H79 0.930 . S
C88 C87 1.374 . S
C88 C89 1.383 . S
C89 O83 1.412 . S
C89 C88 1.383 . S
C89 C90 1.394 . S
C90 H80 0.929 . S
C90 C86 1.377 . S
C90 C89 1.394 . S
H91 C98 0.929 . S
H92 C101 0.930 . S
H93 C103 0.929 . S
H94 C95 0.969 . S
C95 H94 0.969 . S
C95 O96 1.550 . S
C95 H97 0.973 . S
O96 C95 1.550 . S
O96 C102 1.412 . S
H97 C95 0.973 . S
C98 H91 0.929 . S
C98 C99 1.400 . S
C98 C100 1.364 . S
C99 C98 1.400 . S
C99 C103 1.377 . S
C100 C98 1.364 . S
C100 C101 1.374 . S
C101 H92 0.930 . S
C101 C100 1.374 . S
C101 C102 1.383 . S
C102 O96 1.412 . S
C102 C101 1.383 . S
C102 C103 1.394 . S
C103 H93 0.929 . S
C103 C99 1.377 . S
C103 C102 1.394 . S
Zn104 O110 1.920 . S
Zn104 O116 1.898 . S
Zn104 O119 1.905 . S
Zn105 O113 1.905 1_655 S
Zn105 O114 1.898 . S
Zn105 O122 1.920 . S
Zn106 O109 2.080 1_455 S
Zn106 O112 2.114 . S
Zn106 O115 2.120 1_455 S
Zn106 O117 2.120 . S
Zn106 O118 2.114 . S
Zn106 O121 2.080 1_455 S
C107 O112 1.166 . S
C107 O113 1.182 . S
C108 O114 1.167 . S
C108 O115 1.299 . S
O109 Zn106 2.080 1_655 S
O109 C123 1.305 . S
O110 Zn104 1.920 . S
O110 C123 1.234 1_455 S
C111 O116 1.167 . S
C111 O117 1.299 . S
O112 Zn106 2.114 . S
O112 C107 1.166 . S
O113 Zn105 1.905 1_455 S
O113 C107 1.182 . S
O114 Zn105 1.898 . S
O114 C108 1.167 . S
O115 Zn106 2.120 1_655 S
O115 C108 1.299 . S
O116 Zn104 1.898 . S
O116 C111 1.167 . S
O117 Zn106 2.120 . S
O117 C111 1.299 . S
O118 Zn106 2.114 . S
O118 C120 1.166 . S
O119 Zn104 1.905 . S
O119 C120 1.182 . S
C120 O118 1.166 . S
C120 O119 1.182 . S
O121 Zn106 2.080 1_655 S
O121 C124 1.305 . S
O122 Zn105 1.920 . S
O122 C124 1.234 . S
C123 O109 1.305 . S
C123 O110 1.234 1_655 S
C124 O121 1.305 . S
C124 O122 1.234 . S
Zn125 O131 1.920 . S
Zn125 O137 1.898 . S
Zn125 O140 1.905 . S
Zn126 O134 1.905 . S
Zn126 O135 1.898 . S
Zn126 O143 1.920 . S
Zn127 O130 2.080 . S
Zn127 O133 2.114 . S
Zn127 O136 2.120 . S
Zn127 O138 2.120 . S
Zn127 O139 2.114 . S
Zn127 O142 2.080 . S
C128 O133 1.166 . S
C128 O134 1.182 . S
C129 O135 1.167 . S
C129 O136 1.299 . S
O130 Zn127 2.080 . S
O130 C144 1.305 . S
O131 Zn125 1.920 . S
O131 C144 1.234 . S
C132 O137 1.167 . S
C132 O138 1.299 . S
O133 Zn127 2.114 . S
O133 C128 1.166 . S
O134 Zn126 1.905 . S
O134 C128 1.182 . S
O135 Zn126 1.898 . S
O135 C129 1.167 . S
O136 Zn127 2.120 . S
O136 C129 1.299 . S
O137 Zn125 1.898 . S
O137 C132 1.167 . S
O138 Zn127 2.120 . S
O138 C132 1.299 . S
O139 Zn127 2.114 . S
O139 C141 1.166 . S
O140 Zn125 1.905 . S
O140 C141 1.182 . S
C141 O139 1.166 . S
C141 O140 1.182 . S
O142 Zn127 2.080 . S
O142 C145 1.305 . S
O143 Zn126 1.920 . S
O143 C145 1.234 . S
C144 O130 1.305 . S
C144 O131 1.234 . S
C145 O142 1.305 . S
C145 O143 1.234 . S
Zn146 O152 1.920 . S
Zn146 O158 1.898 . S
Zn146 O161 1.908 . S
Zn147 O155 1.905 . S
Zn147 O156 1.898 . S
Zn147 O164 1.920 1_655 S
Zn148 O151 2.080 . S
Zn148 O154 2.114 1_455 S
Zn148 O157 2.120 1_455 S
Zn148 O159 2.120 . S
Zn148 O160 2.114 1_455 S
Zn148 O163 2.080 . S
C149 O154 1.166 . S
C149 O155 1.182 . S
C150 O156 1.167 . S
C150 O157 1.299 . S
O151 Zn148 2.080 . S
O151 C165 1.305 . S
O152 Zn146 1.920 . S
O152 C165 1.234 . S
C153 O158 1.167 . S
C153 O159 1.299 . S
O154 Zn148 2.114 1_655 S
O154 C149 1.166 . S
O155 Zn147 1.905 . S
O155 C149 1.182 . S
O156 Zn147 1.898 . S
O156 C150 1.167 . S
O157 Zn148 2.120 1_655 S
O157 C150 1.299 . S
O158 Zn146 1.898 . S
O158 C153 1.167 . S
O159 Zn148 2.120 . S
O159 C153 1.299 . S
O160 Zn148 2.114 1_655 S
O160 C162 1.166 . S
O161 Zn146 1.908 . S
O161 C162 1.180 1_455 S
C162 O160 1.166 . S
C162 O161 1.180 1_655 S
O163 Zn148 2.080 . S
O163 C166 1.305 . S
O164 Zn147 1.920 1_455 S
O164 C166 1.234 . S
C165 O151 1.305 . S
C165 O152 1.234 . S
C166 O163 1.305 . S
C166 O164 1.234 . S
Zn167 O173 1.920 . S
Zn167 O179 1.898 . S
Zn167 O182 1.905 . S
Zn168 O176 1.905 . S
Zn168 O177 1.898 . S
Zn168 O185 1.920 . S
Zn169 O172 2.080 . S
Zn169 O175 2.114 . S
Zn169 O178 2.120 . S
Zn169 O180 2.120 . S
Zn169 O181 2.114 . S
Zn169 O184 2.080 . S
C170 O175 1.166 . S
C170 O176 1.182 . S
C171 O177 1.167 . S
C171 O178 1.299 . S
O172 Zn169 2.080 . S
O172 C186 1.305 . S
O173 Zn167 1.920 . S
O173 C186 1.234 . S
C174 O179 1.167 . S
C174 O180 1.299 . S
O175 Zn169 2.114 . S
O175 C170 1.166 . S
O176 Zn168 1.905 . S
O176 C170 1.182 . S
O177 Zn168 1.898 . S
O177 C171 1.167 . S
O178 Zn169 2.120 . S
O178 C171 1.299 . S
O179 Zn167 1.898 . S
O179 C174 1.167 . S
O180 Zn169 2.120 . S
O180 C174 1.299 . S
O181 Zn169 2.114 . S
O181 C183 1.166 . S
O182 Zn167 1.905 . S
O182 C183 1.182 . S
C183 O181 1.166 . S
C183 O182 1.182 . S
O184 Zn169 2.080 . S
O184 C187 1.305 . S
O185 Zn168 1.920 . S
O185 C187 1.234 . S
C186 O172 1.305 . S
C186 O173 1.234 . S
C187 O184 1.305 . S
C187 O185 1.234 . S
H188 C194 0.930 . S
H189 C197 0.930 . S
H190 C198 0.930 . S
H191 C199 0.930 . S
H192 C202 0.930 . S
H193 C203 0.930 . S
C194 H188 0.930 . S
C194 C195 1.355 . S
C194 C196 1.415 . S
C195 C194 1.355 . S
C195 C197 1.419 . S
C196 C194 1.415 . S
C196 C201 1.425 . S
C196 C203 1.409 . S
C197 H189 0.930 . S
C197 C195 1.419 . S
C197 C198 1.362 . S
C198 H190 0.930 . S
C198 C197 1.362 . S
C198 C201 1.409 . S
C199 H191 0.930 . S
C199 C200 1.355 . S
C199 C201 1.415 1_545 S
C200 C199 1.355 . S
C200 C202 1.419 1_545 S
C201 C196 1.425 . S
C201 C198 1.409 . S
C201 C199 1.415 1_565 S
C202 H192 0.930 . S
C202 C200 1.419 1_565 S
C202 C203 1.362 . S
C203 H193 0.930 . S
C203 C196 1.409 . S
C203 C202 1.362 . S
H204 C210 0.930 . S
H205 C213 0.930 . S
H206 C214 0.930 . S
H207 C215 0.930 . S
H208 C218 0.930 . S
H209 C219 0.930 . S
C210 H204 0.930 . S
C210 C211 1.355 . S
C210 C212 1.415 . S
C211 C210 1.355 . S
C211 C213 1.419 . S
C212 C210 1.415 . S
C212 C217 1.425 . S
C212 C219 1.409 . S
C213 H205 0.930 . S
C213 C211 1.419 . S
C213 C214 1.362 . S
C214 H206 0.930 . S
C214 C213 1.362 . S
C214 C217 1.409 . S
C215 H207 0.930 . S
C215 C216 1.355 . S
C215 C217 1.415 . S
C216 C215 1.355 . S
C216 C218 1.419 . S
C217 C212 1.425 . S
C217 C214 1.409 . S
C217 C215 1.415 . S
C218 H208 0.930 . S
C218 C216 1.419 . S
C218 C219 1.362 . S
C219 H209 0.930 . S
C219 C212 1.409 . S
C219 C218 1.362 . S
H220 C226 0.930 . S
H221 C229 0.930 . S
H222 C230 0.930 . S
H223 C231 0.930 . S
H224 C234 0.930 . S
H225 C235 0.930 . S
C226 H220 0.930 . S
C226 C227 1.355 . S
C226 C228 1.415 . S
C227 C226 1.355 . S
C227 C229 1.419 . S
C228 C226 1.415 . S
C228 C233 1.425 . S
C228 C235 1.409 . S
C229 H221 0.930 . S
C229 C227 1.419 . S
C229 C230 1.362 . S
C230 H222 0.930 . S
C230 C229 1.362 . S
C230 C233 1.409 . S
C231 H223 0.930 . S
C231 C232 1.355 . S
C231 C233 1.415 . S
C232 C231 1.355 . S
C232 C234 1.419 . S
C233 C228 1.425 . S
C233 C230 1.409 . S
C233 C231 1.415 . S
C234 H224 0.930 . S
C234 C232 1.419 . S
C234 C235 1.362 . S
C235 H225 0.930 . S
C235 C228 1.409 . S
C235 C234 1.362 . S
H236 C242 0.930 . S
H237 C245 0.930 . S
H238 C246 0.930 . S
H239 C247 0.930 . S
H240 C250 0.930 1_545 S
H241 C251 0.930 . S
C242 H236 0.930 . S
C242 C243 1.355 . S
C242 C244 1.415 . S
C243 C242 1.355 . S
C243 C245 1.419 . S
C244 C242 1.415 . S
C244 C249 1.425 . S
C244 C251 1.409 . S
C245 H237 0.930 . S
C245 C243 1.419 . S
C245 C246 1.362 . S
C246 H238 0.930 . S
C246 C245 1.362 . S
C246 C249 1.409 . S
C247 H239 0.930 . S
C247 C248 1.355 . S
C247 C249 1.415 1_545 S
C248 C247 1.355 . S
C248 C250 1.419 1_545 S
C249 C244 1.425 . S
C249 C246 1.409 . S
C249 C247 1.415 1_565 S
C250 H240 0.930 1_565 S
C250 C248 1.419 1_565 S
C250 C251 1.362 . S
C251 H241 0.930 . S
C251 C244 1.409 . S
C251 C250 1.362 . S
H252 C258 0.930 . S
H253 C261 0.930 . S
H254 C262 0.930 . S
H255 C263 0.930 . S
H256 C266 0.930 1_455 S
H257 C267 0.930 . S
C258 H252 0.930 . S
C258 C259 1.355 . S
C258 C260 1.415 . S
C259 C258 1.355 . S
C259 C261 1.419 . S
C260 C258 1.415 . S
C260 C265 1.425 . S
C260 C267 1.409 . S
C261 H253 0.930 . S
C261 C259 1.419 . S
C261 C262 1.362 . S
C262 H254 0.930 . S
C262 C261 1.362 . S
C262 C265 1.409 . S
C263 H255 0.930 . S
C263 C264 1.355 . S
C263 C265 1.415 1_565 S
C264 C263 1.355 . S
C264 C266 1.419 1_565 S
C265 C260 1.425 . S
C265 C262 1.409 . S
C265 C263 1.415 1_545 S
C266 H256 0.930 1_655 S
C266 C264 1.419 1_545 S
C266 C267 1.362 . S
C267 H257 0.930 . S
C267 C260 1.409 . S
C267 C266 1.362 . S
H268 C274 0.930 . S
H269 C277 0.930 . S
H270 C278 0.930 . S
H271 C279 0.930 . S
H272 C282 0.930 . S
H273 C283 0.930 . S
C274 H268 0.930 . S
C274 C275 1.355 . S
C274 C276 1.415 . S
C275 C274 1.355 . S
C275 C277 1.419 . S
C276 C274 1.415 . S
C276 C281 1.425 . S
C276 C283 1.409 . S
C277 H269 0.930 . S
C277 C275 1.419 . S
C277 C278 1.362 . S
C278 H270 0.930 . S
C278 C277 1.362 . S
C278 C281 1.409 . S
C279 H271 0.930 . S
C279 C280 1.355 . S
C279 C281 1.415 . S
C280 C279 1.355 . S
C280 C282 1.419 . S
C281 C276 1.425 . S
C281 C278 1.409 . S
C281 C279 1.415 . S
C282 H272 0.930 . S
C282 C280 1.419 . S
C282 C283 1.362 . S
C283 H273 0.930 . S
C283 C276 1.409 . S
C283 C282 1.362 . S
H284 C290 0.930 . S
H285 C293 0.930 . S
H286 C294 0.930 . S
H287 C295 0.930 . S
H288 C298 0.930 . S
H289 C299 0.930 . S
C290 H284 0.930 . S
C290 C291 1.355 . S
C290 C292 1.415 . S
C291 C290 1.355 . S
C291 C293 1.419 . S
C292 C290 1.415 . S
C292 C297 1.425 . S
C292 C299 1.409 . S
C293 H285 0.930 . S
C293 C291 1.419 . S
C293 C294 1.362 . S
C294 H286 0.930 . S
C294 C293 1.362 . S
C294 C297 1.409 . S
C295 H287 0.930 . S
C295 C296 1.355 . S
C295 C297 1.415 . S
C296 C295 1.355 . S
C296 C298 1.419 . S
C297 C292 1.425 . S
C297 C294 1.409 . S
C297 C295 1.415 . S
C298 H288 0.930 . S
C298 C296 1.419 . S
C298 C299 1.362 . S
C299 H289 0.930 . S
C299 C292 1.409 . S
C299 C298 1.362 . S
H300 C306 0.930 . S
H301 C309 0.930 . S
H302 C310 0.930 . S
H303 C311 0.930 . S
H304 C314 0.930 1_565 S
H305 C315 0.930 . S
C306 H300 0.930 . S
C306 C307 1.355 . S
C306 C308 1.415 . S
C307 C306 1.355 . S
C307 C309 1.419 . S
C308 C306 1.415 . S
C308 C313 1.425 . S
C308 C315 1.409 . S
C309 H301 0.930 . S
C309 C307 1.419 . S
C309 C310 1.362 . S
C310 H302 0.930 . S
C310 C309 1.362 . S
C310 C313 1.409 . S
C311 H303 0.930 . S
C311 C312 1.355 . S
C311 C313 1.415 1_565 S
C312 C311 1.355 . S
C312 C314 1.419 1_565 S
C313 C308 1.425 . S
C313 C310 1.409 . S
C313 C311 1.415 1_545 S
C314 H304 0.930 1_545 S
C314 C312 1.419 1_545 S
C314 C315 1.362 . S
C315 H305 0.930 . S
C315 C308 1.409 . S
C315 C314 1.362 . S
H316 C322 0.930 . S
H317 C325 0.930 . S
H318 C326 0.930 1_556 S
H319 C327 0.930 . S
H320 C330 0.930 . S
H321 C331 0.930 . S
C322 H316 0.930 . S
C322 C323 1.355 1_554 S
C322 C324 1.415 . S
C323 C322 1.355 1_556 S
C323 C325 1.419 . S
C324 C322 1.415 . S
C324 C329 1.425 . S
C324 C331 1.409 . S
C325 H317 0.930 . S
C325 C323 1.419 . S
C325 C326 1.362 1_556 S
C326 H318 0.930 1_554 S
C326 C325 1.362 1_554 S
C326 C329 1.409 . S
C327 H319 0.930 . S
C327 C328 1.355 . S
C327 C329 1.415 . S
C328 C327 1.355 . S
C328 C330 1.419 . S
C329 C324 1.425 . S
C329 C326 1.409 . S
C329 C327 1.415 . S
C330 H320 0.930 . S
C330 C328 1.419 . S
C330 C331 1.362 . S
C331 H321 0.930 . S
C331 C324 1.409 . S
C331 C330 1.362 . S
H332 C338 0.930 . S
H333 C341 0.930 . S
H334 C342 0.930 . S
H335 C343 0.930 . S
H336 C346 0.930 . S
H337 C347 0.930 . S
C338 H332 0.930 . S
C338 C339 1.355 . S
C338 C340 1.415 . S
C339 C338 1.355 . S
C339 C341 1.419 . S
C340 C338 1.415 . S
C340 C345 1.425 . S
C340 C347 1.409 . S
C341 H333 0.930 . S
C341 C339 1.419 . S
C341 C342 1.362 . S
C342 H334 0.930 . S
C342 C341 1.362 . S
C342 C345 1.409 . S
C343 H335 0.930 . S
C343 C344 1.355 . S
C343 C345 1.415 . S
C344 C343 1.355 . S
C344 C346 1.419 . S
C345 C340 1.425 . S
C345 C342 1.409 . S
C345 C343 1.415 . S
C346 H336 0.930 . S
C346 C344 1.419 . S
C346 C347 1.362 . S
C347 H337 0.930 . S
C347 C340 1.409 . S
C347 C346 1.362 . S
H348 C354 0.930 . S
H349 C357 0.930 . S
H350 C358 0.930 . S
H351 C359 0.930 . S
H352 C362 0.930 . S
H353 C363 0.930 . S
C354 H348 0.930 . S
C354 C355 1.355 1_556 S
C354 C356 1.415 . S
C355 C354 1.355 1_554 S
C355 C357 1.419 . S
C356 C354 1.415 . S
C356 C361 1.425 . S
C356 C363 1.409 . S
C357 H349 0.930 . S
C357 C355 1.419 . S
C357 C358 1.362 . S
C358 H350 0.930 . S
C358 C357 1.362 . S
C358 C361 1.409 1_554 S
C359 H351 0.930 . S
C359 C360 1.355 . S
C359 C361 1.415 . S
C360 C359 1.355 . S
C360 C362 1.419 . S
C361 C356 1.425 . S
C361 C358 1.409 1_556 S
C361 C359 1.415 . S
C362 H352 0.930 . S
C362 C360 1.419 . S
C362 C363 1.362 . S
C363 H353 0.930 . S
C363 C356 1.409 . S
C363 C362 1.362 . S
H364 C370 0.930 . S
H365 C373 0.930 . S
H366 C374 0.930 . S
H367 C375 0.930 . S
H368 C378 0.930 . S
H369 C379 0.930 . S
C370 H364 0.930 . S
C370 C371 1.355 . S
C370 C372 1.415 . S
C371 C370 1.355 . S
C371 C373 1.419 . S
C372 C370 1.415 . S
C372 C377 1.425 . S
C372 C379 1.409 . S
C373 H365 0.930 . S
C373 C371 1.419 . S
C373 C374 1.362 . S
C374 H366 0.930 . S
C374 C373 1.362 . S
C374 C377 1.409 . S
C375 H367 0.930 . S
C375 C376 1.355 . S
C375 C377 1.415 . S
C376 C375 1.355 . S
C376 C378 1.419 . S
C377 C372 1.425 . S
C377 C374 1.409 . S
C377 C375 1.415 . S
C378 H368 0.930 . S
C378 C376 1.419 . S
C378 C379 1.362 . S
C379 H369 0.930 . S
C379 C372 1.409 . S
C379 C378 1.362 . S
H380 C386 0.930 1_554 S
H381 C389 0.930 . S
H382 C390 0.930 . S
H383 C391 0.930 . S
H384 C394 0.930 1_455 S
H385 C395 0.930 . S
C386 H380 0.930 1_556 S
C386 C387 1.355 1_556 S
C386 C388 1.415 . S
C387 C386 1.355 1_554 S
C387 C389 1.419 1_554 S
C388 C386 1.415 . S
C388 C393 1.425 . S
C388 C395 1.409 . S
C389 H381 0.930 . S
C389 C387 1.419 1_556 S
C389 C390 1.362 . S
C390 H382 0.930 . S
C390 C389 1.362 . S
C390 C393 1.409 . S
C391 H383 0.930 . S
C391 C392 1.355 . S
C391 C393 1.415 . S
C392 C391 1.355 . S
C392 C394 1.419 . S
C393 C388 1.425 . S
C393 C390 1.409 . S
C393 C391 1.415 . S
C394 H384 0.930 1_655 S
C394 C392 1.419 . S
C394 C395 1.362 . S
C395 H385 0.930 . S
C395 C388 1.409 . S
C395 C394 1.362 . S
H396 C402 0.930 . S
H397 C405 0.930 . S
H398 C406 0.930 . S
H399 C407 0.930 . S
H400 C410 0.930 . S
H401 C411 0.930 . S
C402 H396 0.930 . S
C402 C403 1.355 . S
C402 C404 1.415 . S
C403 C402 1.355 . S
C403 C405 1.419 . S
C404 C402 1.415 . S
C404 C409 1.425 . S
C404 C411 1.409 . S
C405 H397 0.930 . S
C405 C403 1.419 . S
C405 C406 1.362 . S
C406 H398 0.930 . S
C406 C405 1.362 . S
C406 C409 1.409 . S
C407 H399 0.930 . S
C407 C408 1.355 . S
C407 C409 1.415 . S
C408 C407 1.355 . S
C408 C410 1.419 . S
C409 C404 1.425 . S
C409 C406 1.409 . S
C409 C407 1.415 . S
C410 H400 0.930 . S
C410 C408 1.419 . S
C410 C411 1.362 . S
C411 H401 0.930 . S
C411 C404 1.409 . S
C411 C410 1.362 . S
H412 C418 0.930 1_556 S
H413 C421 0.930 1_556 S
H414 C422 0.930 . S
H415 C423 0.930 . S
H416 C426 0.930 . S
H417 C427 0.930 . S
C418 H412 0.930 1_554 S
C418 C419 1.355 1_554 S
C418 C420 1.415 . S
C419 C418 1.355 1_556 S
C419 C421 1.419 1_556 S
C420 C418 1.415 . S
C420 C425 1.425 . S
C420 C427 1.409 . S
C421 H413 0.930 1_554 S
C421 C419 1.419 1_554 S
C421 C422 1.362 . S
C422 H414 0.930 . S
C422 C421 1.362 . S
C422 C425 1.409 . S
C423 H415 0.930 . S
C423 C424 1.355 . S
C423 C425 1.415 . S
C424 C423 1.355 . S
C424 C426 1.419 . S
C425 C420 1.425 . S
C425 C422 1.409 . S
C425 C423 1.415 . S
C426 H416 0.930 . S
C426 C424 1.419 . S
C426 C427 1.362 . S
C427 H417 0.930 . S
C427 C420 1.409 . S
C427 C426 1.362 . S
H428 C434 0.930 . S
H429 C437 0.930 . S
H430 C438 0.930 . S
H431 C439 0.930 . S
H432 C442 0.930 . S
H433 C443 0.930 . S
C434 H428 0.930 . S
C434 C435 1.355 . S
C434 C436 1.415 . S
C435 C434 1.355 . S
C435 C437 1.419 . S
C436 C434 1.415 . S
C436 C441 1.425 . S
C436 C443 1.409 . S
C437 H429 0.930 . S
C437 C435 1.419 . S
C437 C438 1.362 . S
C438 H430 0.930 . S
C438 C437 1.362 . S
C438 C441 1.409 . S
C439 H431 0.930 . S
C439 C440 1.355 . S
C439 C441 1.415 . S
C440 C439 1.355 . S
C440 C442 1.419 . S
C441 C436 1.425 . S
C441 C438 1.409 . S
C441 C439 1.415 . S
C442 H432 0.930 . S
C442 C440 1.419 . S
C442 C443 1.362 . S
C443 H433 0.930 . S
C443 C436 1.409 . S
C443 C442 1.362 . S
H444 C450 0.930 . S
H445 C453 0.930 . S
H446 C454 0.930 . S
H447 C455 0.930 . S
H448 C458 0.930 . S
H449 C459 0.930 . S
C450 H444 0.930 . S
C450 C451 1.355 . S
C450 C452 1.415 . S
C451 C450 1.355 . S
C451 C453 1.419 . S
C452 C450 1.415 . S
C452 C457 1.425 . S
C452 C459 1.409 . S
C453 H445 0.930 . S
C453 C451 1.419 . S
C453 C454 1.362 . S
C454 H446 0.930 . S
C454 C453 1.362 . S
C454 C457 1.409 . S
C455 H447 0.930 . S
C455 C456 1.355 . S
C455 C457 1.415 . S
C456 C455 1.355 . S
C456 C458 1.419 . S
C457 C452 1.425 . S
C457 C454 1.409 . S
C457 C455 1.415 . S
C458 H448 0.930 . S
C458 C456 1.419 . S
C458 C459 1.362 . S
C459 H449 0.930 . S
C459 C452 1.409 . S
C459 C458 1.362 . S
H460 C466 0.930 . S
H461 C469 0.930 . S
H462 C470 0.930 . S
H463 C471 0.930 . S
H464 C474 0.930 . S
H465 C475 0.930 . S
C466 H460 0.930 . S
C466 C467 1.355 . S
C466 C468 1.415 . S
C467 C466 1.355 . S
C467 C469 1.419 . S
C468 C466 1.415 . S
C468 C473 1.425 . S
C468 C475 1.409 . S
C469 H461 0.930 . S
C469 C467 1.419 . S
C469 C470 1.362 . S
C470 H462 0.930 . S
C470 C469 1.362 . S
C470 C473 1.409 . S
C471 H463 0.930 . S
C471 C472 1.355 . S
C471 C473 1.415 . S
C472 C471 1.355 . S
C472 C474 1.419 . S
C473 C468 1.425 . S
C473 C470 1.409 . S
C473 C471 1.415 . S
C474 H464 0.930 . S
C474 C472 1.419 . S
C474 C475 1.362 . S
C475 H465 0.930 . S
C475 C468 1.409 . S
C475 C474 1.362 . S
H476 C482 0.930 . S
H477 C485 0.930 . S
H478 C486 0.930 . S
H479 C487 0.930 . S
H480 C490 0.930 . S
H481 C491 0.930 . S
C482 H476 0.930 . S
C482 C483 1.355 . S
C482 C484 1.415 . S
C483 C482 1.355 . S
C483 C485 1.419 . S
C484 C482 1.415 . S
C484 C489 1.425 . S
C484 C491 1.409 . S
C485 H477 0.930 . S
C485 C483 1.419 . S
C485 C486 1.362 . S
C486 H478 0.930 . S
C486 C485 1.362 . S
C486 C489 1.409 . S
C487 H479 0.930 . S
C487 C488 1.355 . S
C487 C489 1.415 . S
C488 C487 1.355 . S
C488 C490 1.419 . S
C489 C484 1.425 . S
C489 C486 1.409 . S
C489 C487 1.415 . S
C490 H480 0.930 . S
C490 C488 1.419 . S
C490 C491 1.362 . S
C491 H481 0.930 . S
C491 C484 1.409 . S
C491 C490 1.362 . S
H492 C498 0.930 . S
H493 C501 0.930 . S
H494 C502 0.930 . S
H495 C503 0.930 . S
H496 C506 0.930 . S
H497 C507 0.930 . S
C498 H492 0.930 . S
C498 C499 1.355 . S
C498 C500 1.415 . S
C499 C498 1.355 . S
C499 C501 1.419 . S
C500 C498 1.415 . S
C500 C505 1.425 . S
C500 C507 1.409 . S
C501 H493 0.930 . S
C501 C499 1.419 . S
C501 C502 1.362 . S
C502 H494 0.930 . S
C502 C501 1.362 . S
C502 C505 1.409 . S
C503 H495 0.930 . S
C503 C504 1.355 . S
C503 C505 1.415 . S
C504 C503 1.355 . S
C504 C506 1.419 . S
C505 C500 1.425 . S
C505 C502 1.409 . S
C505 C503 1.415 . S
C506 H496 0.930 . S
C506 C504 1.419 . S
C506 C507 1.362 . S
C507 H497 0.930 . S
C507 C500 1.409 . S
C507 C506 1.362 . S
H508 C514 0.930 . S
H509 C517 0.930 . S
H510 C518 0.930 . S
H511 C519 0.930 . S
H512 C522 0.930 . S
H513 C523 0.930 . S
C514 H508 0.930 . S
C514 C515 1.355 . S
C514 C516 1.415 . S
C515 C514 1.355 . S
C515 C517 1.419 . S
C516 C514 1.415 . S
C516 C521 1.425 . S
C516 C523 1.409 . S
C517 H509 0.930 . S
C517 C515 1.419 . S
C517 C518 1.362 . S
C518 H510 0.930 . S
C518 C517 1.362 . S
C518 C521 1.409 . S
C519 H511 0.930 . S
C519 C520 1.355 . S
C519 C521 1.415 . S
C520 C519 1.355 . S
C520 C522 1.419 . S
C521 C516 1.425 . S
C521 C518 1.409 . S
C521 C519 1.415 . S
C522 H512 0.930 . S
C522 C520 1.419 . S
C522 C523 1.362 . S
C523 H513 0.930 . S
C523 C516 1.409 . S
C523 C522 1.362 . S
H524 C530 0.930 . S
H525 C533 0.930 . S
H526 C534 0.930 . S
H527 C535 0.930 . S
H528 C538 0.930 . S
H529 C539 0.930 . S
C530 H524 0.930 . S
C530 C531 1.355 . S
C530 C532 1.415 . S
C531 C530 1.355 . S
C531 C533 1.419 . S
C532 C530 1.415 . S
C532 C537 1.425 . S
C532 C539 1.409 . S
C533 H525 0.930 . S
C533 C531 1.419 . S
C533 C534 1.362 . S
C534 H526 0.930 . S
C534 C533 1.362 . S
C534 C537 1.409 . S
C535 H527 0.930 . S
C535 C536 1.355 . S
C535 C537 1.415 . S
C536 C535 1.355 . S
C536 C538 1.419 . S
C537 C532 1.425 . S
C537 C534 1.409 . S
C537 C535 1.415 . S
C538 H528 0.930 . S
C538 C536 1.419 . S
C538 C539 1.362 . S
C539 H529 0.930 . S
C539 C532 1.409 . S
C539 C538 1.362 . S
H540 C546 0.930 . S
H541 C549 0.930 . S
H542 C550 0.930 . S
H543 C551 0.930 . S
H544 C554 0.930 . S
H545 C555 0.930 . S
C546 H540 0.930 . S
C546 C547 1.355 . S
C546 C548 1.415 . S
C547 C546 1.355 . S
C547 C549 1.419 . S
C548 C546 1.415 . S
C548 C553 1.425 . S
C548 C555 1.409 . S
C549 H541 0.930 . S
C549 C547 1.419 . S
C549 C550 1.362 . S
C550 H542 0.930 . S
C550 C549 1.362 . S
C550 C553 1.409 . S
C551 H543 0.930 . S
C551 C552 1.355 . S
C551 C553 1.415 . S
C552 C551 1.355 . S
C552 C554 1.419 . S
C553 C548 1.425 . S
C553 C550 1.409 . S
C553 C551 1.415 . S
C554 H544 0.930 . S
C554 C552 1.419 . S
C554 C555 1.362 . S
C555 H545 0.930 . S
C555 C548 1.409 . S
C555 C554 1.362 . S
H556 C562 0.930 . S
H557 C565 0.930 . S
H558 C566 0.930 . S
H559 C567 0.930 . S
H560 C570 0.930 . S
H561 C571 0.930 . S
C562 H556 0.930 . S
C562 C563 1.355 . S
C562 C564 1.415 . S
C563 C562 1.355 . S
C563 C565 1.419 . S
C564 C562 1.415 . S
C564 C569 1.425 . S
C564 C571 1.409 . S
C565 H557 0.930 . S
C565 C563 1.419 . S
C565 C566 1.362 . S
C566 H558 0.930 . S
C566 C565 1.362 . S
C566 C569 1.409 . S
C567 H559 0.930 . S
C567 C568 1.355 . S
C567 C569 1.415 . S
C568 C567 1.355 . S
C568 C570 1.419 . S
C569 C564 1.425 . S
C569 C566 1.409 . S
C569 C567 1.415 . S
C570 H560 0.930 . S
C570 C568 1.419 . S
C570 C571 1.362 . S
C571 H561 0.930 . S
C571 C564 1.409 . S
C571 C570 1.362 . S
C195 C86 1.375 . S
C200 C120 1.303 . S
C216 C128 1.474 . S
C211 C100 1.472 . S
C232 C132 1.320 . S
C227 C60 1.365 . S
C243 C74 1.506 . S
C248 C108 1.409 . S
C264 C149 1.462 . S
C259 C35 1.489 . S
C280 C183 1.265 . S
C275 C47 1.382 . S
C291 C9 1.478 . S
C296 C171 1.460 . S
C307 C21 1.368 . S
C312 C153 1.297 . S
C328 C107 1.413 . S
C323 C22 1.449 . S
C344 C141 1.375 . S
C339 C8 1.452 . S
C360 C145 1.412 . S
C355 C48 1.451 . S
C376 C123 1.283 . S
C371 C34 1.466 . S
C392 C162 1.270 . S
C387 C73 1.447 . S
C403 C61 1.472 . S
C408 C170 1.311 . S
C424 C186 1.318 . S
C419 C99 1.438 . S
C435 C87 1.474 . S
C440 C166 1.309 . S
C456 C111 1.417 . S
C451 C4 1.530 . S
C472 C129 1.256 . S
C467 C17 1.441 . S
C483 C30 1.538 . S
C488 C144 1.401 . S
C504 C124 1.313 . S
C499 C43 1.395 . S
C520 C150 1.337 . S
C515 C56 1.451 . S
C531 C69 1.492 . S
C536 C174 1.343 . S
C547 C82 1.427 . S
C552 C187 1.296 . S
C563 C95 1.480 . S
C568 C165 1.362 . S
