# Generated by pormake.
# Topology ssa, (4,4)-cn, num edge types: 1
# Building blocks:
#     Node 0, Type 0, BuildingBlock: GIZVER_clean_linker_0, # of connection points: 4
#     Node 1, Type 0, BuildingBlock: GIZVER_clean_linker_0, # of connection points: 4
#     Node 2, Type 0, BuildingBlock: GIZVER_clean_linker_0, # of connection points: 4
#     Node 3, Type 0, BuildingBlock: GIZVER_clean_linker_0, # of connection points: 4
#     Node 4, Type 0, BuildingBlock: GIZVER_clean_linker_0, # of connection points: 4
#     Node 5, Type 0, BuildingBlock: GIZVER_clean_linker_0, # of connection points: 4
#     Node 6, Type 1, BuildingBlock: MUDLON_clean_sbu_0, # of connection points: 4
#     Node 7, Type 1, BuildingBlock: MUDLON_clean_sbu_0, # of connection points: 4
#     Node 8, Type 1, BuildingBlock: MUDLON_clean_sbu_0, # of connection points: 4
#     Node 9, Type 1, BuildingBlock: MUDLON_clean_sbu_0, # of connection points: 4
#     Node 10, Type 1, BuildingBlock: MUDLON_clean_sbu_0, # of connection points: 4
#     Node 11, Type 1, BuildingBlock: MUDLON_clean_sbu_0, # of connection points: 4
#     Edge 12, Type (0, 1), BuildingBlock: XIVTED_clean_linker_0, # of connection points: 2
#     Edge 13, Type (0, 1), BuildingBlock: XIVTED_clean_linker_0, # of connection points: 2
#     Edge 14, Type (0, 1), BuildingBlock: XIVTED_clean_linker_0, # of connection points: 2
#     Edge 15, Type (0, 1), BuildingBlock: XIVTED_clean_linker_0, # of connection points: 2
#     Edge 16, Type (0, 1), BuildingBlock: XIVTED_clean_linker_0, # of connection points: 2
#     Edge 17, Type (0, 1), BuildingBlock: XIVTED_clean_linker_0, # of connection points: 2
#     Edge 18, Type (0, 1), BuildingBlock: XIVTED_clean_linker_0, # of connection points: 2
#     Edge 19, Type (0, 1), BuildingBlock: XIVTED_clean_linker_0, # of connection points: 2
#     Edge 20, Type (0, 1), BuildingBlock: XIVTED_clean_linker_0, # of connection points: 2
#     Edge 21, Type (0, 1), BuildingBlock: XIVTED_clean_linker_0, # of connection points: 2
#     Edge 22, Type (0, 1), BuildingBlock: XIVTED_clean_linker_0, # of connection points: 2
#     Edge 23, Type (0, 1), BuildingBlock: XIVTED_clean_linker_0, # of connection points: 2
#     Edge 24, Type (0, 1), BuildingBlock: XIVTED_clean_linker_0, # of connection points: 2
#     Edge 25, Type (0, 1), BuildingBlock: XIVTED_clean_linker_0, # of connection points: 2
#     Edge 26, Type (0, 1), BuildingBlock: XIVTED_clean_linker_0, # of connection points: 2
#     Edge 27, Type (0, 1), BuildingBlock: XIVTED_clean_linker_0, # of connection points: 2
#     Edge 28, Type (0, 1), BuildingBlock: XIVTED_clean_linker_0, # of connection points: 2
#     Edge 29, Type (0, 1), BuildingBlock: XIVTED_clean_linker_0, # of connection points: 2
#     Edge 30, Type (0, 1), BuildingBlock: XIVTED_clean_linker_0, # of connection points: 2
#     Edge 31, Type (0, 1), BuildingBlock: XIVTED_clean_linker_0, # of connection points: 2
#     Edge 32, Type (0, 1), BuildingBlock: XIVTED_clean_linker_0, # of connection points: 2
#     Edge 33, Type (0, 1), BuildingBlock: XIVTED_clean_linker_0, # of connection points: 2
#     Edge 34, Type (0, 1), BuildingBlock: XIVTED_clean_linker_0, # of connection points: 2
#     Edge 35, Type (0, 1), BuildingBlock: XIVTED_clean_linker_0, # of connection points: 2
# Relax obj value: 0.001
# Max RMSD: 0.030
# Mean RMSD: 0.018
data_MOF--net-ssa--node1-MUDLON_clean_sbu_0--node2-GIZVER_clean_linker_0--edge1-XIVTED_clean_linker_0
_symmetry_space_group_name_H-M    P1
_symmetry_Int_Tables_number       1
_symmetry_cell_setting            triclinic
loop_
_symmetry_equiv_pos_as_xyz
'x, y, z'
_cell_length_a     45.243931
_cell_length_b     45.304373
_cell_length_c     40.544376
_cell_angle_alpha  90.463236
_cell_angle_beta   90.394428
_cell_angle_gamma 120.33766
loop_
_atom_site_label
_atom_site_type_symbol
_atom_site_fract_x
_atom_site_fract_y
_atom_site_fract_z
_atom_type_partial_charge
H0 H 0.03958 0.59105 0.06266 0.0
H1 H 0.04581 0.49949 0.05605 0.0
H2 H 0.05506 0.54764 0.15037 0.0
H3 H 0.05929 0.57416 1.0111 0.0
H4 H 0.05277 0.53212 1.00723 0.0
H5 H 0.01357 0.58536 0.99823 0.0
H6 H 0.92237 0.50421 0.95299 0.0
H7 H 0.9931 0.48179 1.00289 0.0
C8 C 0.04165 0.57087 0.07467 0.0
C9 C 0.04621 0.57191 0.10909 0.0
C10 C 0.04132 0.54476 0.05538 0.0
C11 C 0.04522 0.51917 0.07091 0.0
C12 C 0.04968 0.51968 0.10535 0.0
C13 C 0.04977 0.54598 0.1241 0.0
C14 C 0.04185 0.54711 1.01817 0.0
C15 C 0.00675 0.53473 1.0031 0.0
C16 C -0.00315 0.55828 0.99326 0.0
C17 C 0.96603 0.54702 0.97579 0.0
C18 C 0.94512 0.51219 0.96806 0.0
C19 C 0.95462 0.48825 0.97728 0.0
C20 C 0.9852 0.49976 0.99558 0.0
H21 H 0.53324 0.03489 0.59328 0.0
H22 H 0.42779 0.00836 0.60085 0.0
H23 H 0.50743 0.10343 0.6419 0.0
H24 H 0.48385 0.97363 0.59265 0.0
H25 H 0.44125 0.96504 0.58663 0.0
H26 H 0.51672 0.97672 0.54608 0.0
H27 H 0.47111 0.96214 0.44953 0.0
H28 H 0.42641 0.98423 0.53252 0.0
C29 C 0.51435 0.04176 0.60013 0.0
C30 C 0.5247 0.07257 0.61747 0.0
C31 C 0.47946 0.01866 0.59348 0.0
C32 C 0.45481 0.02673 0.60435 0.0
C33 C 0.46483 0.05759 0.62139 0.0
C34 C 0.49981 0.08059 0.62711 0.0
C35 C 0.46837 0.9832 0.58021 0.0
C36 C 0.47194 0.98196 0.54318 0.0
C37 C 0.49767 0.97682 0.52979 0.0
C38 C 0.4978 0.96985 0.49588 0.0
C39 C 0.47235 0.96928 0.47529 0.0
C40 C 0.44644 0.97439 0.48816 0.0
C41 C 0.44671 0.98113 0.52213 0.0
H42 H 0.58627 0.58115 0.10736 0.0
H43 H 0.47898 0.50511 0.10617 0.0
H44 H 0.51267 0.60683 0.14251 0.0
H45 H 0.56824 0.52145 0.09933 0.0
H46 H 0.52485 0.48968 0.1062 0.0
H47 H 0.58612 0.54824 0.04345 0.0
H48 H 0.53005 0.48004 0.96309 0.0
H49 H 0.48728 0.45937 0.06032 0.0
C50 C 0.55983 0.57422 0.11095 0.0
C51 C 0.55245 0.59825 0.12496 0.0
C52 C 0.5332 0.54076 0.10305 0.0
C53 C 0.49916 0.53141 0.11013 0.0
C54 C 0.49159 0.55494 0.12504 0.0
C55 C 0.51827 0.58858 0.13094 0.0
C56 C 0.54137 0.51355 0.09244 0.0
C57 C 0.53636 0.50583 0.05575 0.0
C58 C 0.56292 0.52618 1.034 0.0
C59 C 0.56046 0.51708 1.0005 0.0
C60 C 0.53094 0.48787 0.9886 0.0
C61 C 0.5045 0.46659 1.00991 0.0
C62 C 0.50715 0.47601 0.04349 0.0
H63 H 3e-05 0.53127 0.60905 0.0
H64 H 0.01848 0.4468 0.60561 0.0
H65 H 0.9195 0.42998 0.63236 0.0
H66 H 0.05807 0.54202 0.60766 0.0
H67 H 0.06647 0.50767 0.61006 0.0
H68 H 0.06174 0.56831 0.55529 0.0
H69 H 0.08691 0.52938 0.46946 0.0
H70 H 0.05972 0.47203 0.55868 0.0
C71 C 0.99066 0.50409 0.61067 0.0
C72 C 0.95685 0.48194 0.62071 0.0
C73 C 0.01293 0.49155 0.60431 0.0
C74 C 0.00108 0.45646 0.60863 0.0
C75 C 0.96714 0.43405 0.61814 0.0
C76 C 0.94513 0.44693 0.62337 0.0
C77 C 0.05032 0.51625 0.5973 0.0
C78 C 0.05808 0.51899 0.56081 0.0
C79 C 0.06403 0.54821 0.54305 0.0
C80 C 0.07417 0.55203 0.50984 0.0
C81 C 0.07774 0.52618 0.49458 0.0
C82 C 0.07261 0.49754 0.51198 0.0
C83 C 0.06264 0.49378 0.54501 0.0
H84 H 0.52406 0.9352 0.04309 0.0
H85 H 0.42947 0.93686 0.04079 0.0
H86 H 0.46525 0.91596 0.13099 0.0
H87 H 0.489 0.92586 0.99032 0.0
H88 H 0.45625 0.93664 0.98985 0.0
H89 H 0.55001 0.97037 0.98969 0.0
H90 H 0.57281 0.06977 0.95799 0.0
H91 H 0.47048 0.9962 0.98722 0.0
C92 C 0.50256 0.93416 0.05577 0.0
C93 C 0.49809 0.92645 0.08948 0.0
C94 C 0.47842 0.93905 1.03812 0.0
C95 C 0.44912 0.935 0.05448 0.0
C96 C 0.44452 0.92713 0.08823 0.0
C97 C 0.46955 0.92379 0.10542 0.0
C98 C 0.48152 0.94376 1.00114 0.0
C99 C 0.50772 0.97993 0.99153 0.0
C100 C 0.54201 0.98898 0.98592 0.0
C101 C 0.56561 0.02153 0.97404 0.0
C102 C 0.55472 0.04496 0.96787 0.0
C103 C 0.52038 0.03598 0.97165 0.0
C104 C 0.4972 0.00373 0.98459 0.0
H105 H 0.571 0.52066 0.53261 0.0
H106 H 0.48535 0.42051 0.5524 0.0
H107 H 0.55306 0.48259 0.63117 0.0
H108 H 0.54364 0.47635 0.48835 0.0
H109 H 0.50795 0.43538 0.49702 0.0
H110 H 0.53251 0.52852 0.49452 0.0
H111 H 0.44417 0.50544 0.43485 0.0
H112 H 0.45446 0.42381 0.47486 0.0
C113 C 0.55498 0.50108 0.54995 0.0
C114 C 0.56396 0.50579 0.58361 0.0
C115 C 0.52607 0.47049 0.53855 0.0
C116 C 0.50685 0.44444 0.56125 0.0
C117 C 0.5164 0.44843 0.59485 0.0
C118 C 0.5445 0.47953 0.60568 0.0
C119 C 0.51906 0.46324 0.50189 0.0
C120 C 0.49569 0.47493 0.48748 0.0
C121 C 0.50791 0.51012 0.48383 0.0
C122 C 0.48933 0.52156 0.4652 0.0
C123 C 0.45813 0.49721 0.45046 0.0
C124 C 0.44526 0.46211 0.45409 0.0
C125 C 0.46383 0.45097 0.47301 0.0
Mg126 Mg 0.21427 0.42465 0.28436 0.0
C127 C 0.16056 0.43062 0.25005 0.0
O128 O 0.17291 0.4548 0.27282 0.0
C129 C 0.23201 0.38296 0.33031 0.0
O130 O 0.21026 0.38586 0.34936 0.0
C131 C 0.16853 0.41944 0.33843 0.0
O132 O 0.14941 0.39173 0.32059 0.0
O133 O 0.19899 0.44002 0.32923 0.0
O134 O 0.17259 0.41056 0.24812 0.0
O135 O 0.25923 0.46441 0.25996 0.0
C136 C 0.26199 0.45648 0.23039 0.0
O137 O 0.23695 0.42794 0.21758 0.0
O138 O 0.23384 0.39138 0.30013 0.0
Mg139 Mg 0.79241 0.21254 0.8038 0.0
C140 C 0.73976 0.20911 0.7512 0.0
O141 O 0.76224 0.2412 0.74503 0.0
C142 C 0.83369 0.26593 0.8515 0.0
O143 O 0.8487 0.24774 0.84782 0.0
C144 C 0.75815 0.14097 0.83122 0.0
O145 O 0.74675 0.13346 0.80064 0.0
O146 O 0.78091 0.17163 0.83843 0.0
O147 O 0.7459 0.19377 0.77402 0.0
O148 O 0.83625 0.23 0.77123 0.0
C149 C 0.83234 0.22461 0.74022 0.0
O150 O 0.80174 0.20275 0.72841 0.0
O151 O 0.80627 0.25706 0.83513 0.0
Mg152 Mg 0.59198 0.80444 0.31835 0.0
C153 C 0.55869 0.80408 0.25312 0.0
O154 O 0.57054 0.7841 0.24422 0.0
C155 C 0.58167 0.75422 0.37037 0.0
O156 O 0.6119 0.78032 0.37838 0.0
C157 C 0.5865 0.84028 0.37732 0.0
O158 O 0.5619 0.80847 0.38095 0.0
O159 O 0.6067 0.84743 0.35302 0.0
O160 O 0.5604 0.81258 0.28336 0.0
O161 O 0.62808 0.80031 0.28523 0.0
C162 C 0.63616 0.77735 0.2889 0.0
O163 O 0.6309 0.76233 0.31754 0.0
O164 O 0.56562 0.75676 0.34564 0.0
Mg165 Mg 0.7951 0.59284 0.78593 0.0
C166 C 0.74532 0.59397 0.74011 0.0
O167 O 0.72731 0.5673 0.75874 0.0
C168 C 0.84259 0.63033 0.84371 0.0
O169 O 0.81355 0.62379 0.85698 0.0
C170 C 0.74176 0.59114 0.82969 0.0
O171 O 0.75258 0.61985 0.81371 0.0
O172 O 0.75485 0.57263 0.82312 0.0
O173 O 0.77748 0.61232 0.74537 0.0
O174 O 0.80734 0.55644 0.76356 0.0
C175 C 0.8019 0.54794 0.73316 0.0
O176 O 0.78315 0.55665 0.71548 0.0
O177 O 0.8432 0.62557 0.81276 0.0
Mg178 Mg 0.20992 0.79727 0.30388 0.0
C179 C 0.1376 0.75322 0.27834 0.0
O180 O 0.13448 0.73932 0.30735 0.0
C181 C 0.25578 0.87032 0.32706 0.0
O182 O 0.26612 0.8732 0.29645 0.0
C183 C 0.19528 0.75834 0.36792 0.0
O184 O 0.20611 0.78922 0.37982 0.0
O185 O 0.19647 0.75428 0.3369 0.0
O186 O 0.16483 0.7813 0.27239 0.0
O187 O 0.25181 0.80974 0.2697 0.0
C188 C 0.24655 0.80749 0.23861 0.0
O189 O 0.21495 0.7928 0.22727 0.0
O190 O 0.22926 0.8427 0.33556 0.0
Mg191 Mg 0.42077 0.22008 0.82081 0.0
C192 C 0.38141 0.14719 0.79172 0.0
O193 O 0.39057 0.13917 0.81947 0.0
C194 C 0.4242 0.25922 0.88072 0.0
O195 O 0.45197 0.25695 0.88243 0.0
C196 C 0.43621 0.18385 0.87368 0.0
O197 O 0.40708 0.18042 0.88368 0.0
O198 O 0.4497 0.20088 0.84767 0.0
O199 O 0.38509 0.17686 0.78907 0.0
O200 O 0.45018 0.26103 0.78555 0.0
C201 C 0.43685 0.25766 0.75694 0.0
O202 O 0.40782 0.22975 0.7498 0.0
O203 O 0.40326 0.24442 0.85674 0.0
H204 H 0.09304 0.49718 0.08489 0.0
H205 H 0.10524 0.4359 0.26424 0.0
H206 H 0.02542 0.48697 0.16407 0.0
H207 H 0.15956 0.42555 0.1823 0.0
H208 H 0.07122 0.44826 0.22596 0.0
H209 H 0.11324 0.4652 0.1173 0.0
C210 C 0.08185 0.48758 0.10876 0.0
C211 C 0.05779 0.49524 0.12193 0.0
C212 C 0.09006 0.44266 0.21609 0.0
C213 C 0.08127 0.45907 0.15941 0.0
C214 C 0.10938 0.43543 0.23799 0.0
C215 C 0.1351 0.4296 0.22636 0.0
C216 C 0.09709 0.44508 0.1822 0.0
C217 C 0.13968 0.42958 0.19216 0.0
C218 C 0.09356 0.46946 0.12734 0.0
C219 C 0.0445 0.48233 0.15316 0.0
N220 N 0.12131 0.43791 0.17126 0.0
N221 N 0.05671 0.46535 0.17091 0.0
H222 H 0.56539 0.14264 0.61831 0.0
H223 H 0.69558 0.14008 0.74994 0.0
H224 H 0.56433 0.05083 0.64773 0.0
H225 H 0.71418 0.23309 0.70311 0.0
H226 H 0.64631 0.10749 0.71349 0.0
H227 H 0.6195 0.17677 0.64882 0.0
C228 C 0.57684 0.12971 0.63075 0.0
C229 C 0.5603 0.09382 0.63047 0.0
C230 C 0.66118 0.13501 0.71106 0.0
C231 C 0.6218 0.13263 0.66587 0.0
C232 C 0.68925 0.15373 0.73207 0.0
C233 C 0.70906 0.18948 0.72973 0.0
C234 C 0.65242 0.15204 0.68763 0.0
C235 C 0.69962 0.2056 0.70585 0.0
C236 C 0.60767 0.14919 0.64818 0.0
C237 C 0.5763 0.0784 0.64695 0.0
N238 N 0.67184 0.18678 0.68583 0.0
N239 N 0.60588 0.09785 0.66428 0.0
H240 H 0.56187 0.66192 0.11395 0.0
H241 H 0.65208 0.7265 0.2872 0.0
H242 H 0.60312 0.60976 0.16913 0.0
H243 H 0.62961 0.78846 0.22316 0.0
H244 H 0.64373 0.68854 0.2406 0.0
H245 H 0.59509 0.71281 0.1488 0.0
C246 C 0.5788 0.66161 0.1328 0.0
C247 C 0.57966 0.63158 0.13878 0.0
C248 C 0.64124 0.71078 0.23652 0.0
C249 C 0.61698 0.68935 0.17951 0.0
C250 C 0.64612 0.7326 0.26319 0.0
C251 C 0.64066 0.7603 0.25941 0.0
C252 C 0.63035 0.71635 0.20585 0.0
C253 C 0.63337 0.76705 0.22751 0.0
C254 C 0.59766 0.6906 0.15283 0.0
C255 C 0.60184 0.63243 0.16361 0.0
N256 N 0.62765 0.74479 0.20218 0.0
N257 N 0.61904 0.66057 0.18353 0.0
H258 H 0.97383 0.53253 0.66649 0.0
H259 H 0.79061 0.51742 0.67205 0.0
H260 H 0.88989 0.46034 0.60467 0.0
H261 H 0.86002 0.54994 0.75568 0.0
H262 H 0.82863 0.50272 0.64233 0.0
H263 H 0.93505 0.54767 0.69378 0.0
C264 C 0.9474 0.52045 0.65818 0.0
C265 C 0.93504 0.49528 0.63322 0.0
C266 C 0.83531 0.51284 0.66728 0.0
C267 C 0.89048 0.51206 0.6646 0.0
C268 C 0.81362 0.52113 0.68428 0.0
C269 C 0.82207 0.53481 0.71646 0.0
C270 C 0.86601 0.519 0.68229 0.0
C271 C 0.85232 0.53923 0.73104 0.0
C272 C 0.9252 0.52874 0.67404 0.0
C273 C 0.90037 0.4799 0.62382 0.0
N274 N 0.87336 0.53171 0.71373 0.0
N275 N 0.87926 0.48854 0.6395 0.0
H276 H 0.37899 0.88052 0.06835 0.0
H277 H 0.31344 0.85479 0.25354 0.0
H278 H 0.43657 0.9493 0.14852 0.0
H279 H 0.24524 0.80278 0.17111 0.0
H280 H 0.35926 0.88844 0.21489 0.0
H281 H 0.32896 0.8524 0.10424 0.0
C282 C 0.38075 0.89043 0.09314 0.0
C283 C 0.41201 0.91715 0.10555 0.0
C284 C 0.33426 0.86969 0.20522 0.0
C285 C 0.35545 0.88437 0.14705 0.0
C286 C 0.30817 0.85018 0.22732 0.0
C287 C 0.27544 0.82578 0.21559 0.0
C288 C 0.3278 0.8646 0.17106 0.0
C289 C 0.27008 0.82126 0.18127 0.0
C290 C 0.35235 0.87408 0.11377 0.0
C291 C 0.41301 0.92859 0.13807 0.0
N292 N 0.296 0.84037 0.16022 0.0
N293 N 0.3854 0.9118 0.15783 0.0
H294 H 0.5027 0.44987 0.66077 0.0
H295 H 0.42858 0.25142 0.69036 0.0
H296 H 0.49421 0.38048 0.58268 0.0
H297 H 0.47663 0.32701 0.76814 0.0
H298 H 0.4461 0.29727 0.65043 0.0
H299 H 0.48542 0.40374 0.70034 0.0
C300 C 0.49703 0.42493 0.65183 0.0
C301 C 0.50032 0.41929 0.61822 0.0
C302 C 0.45304 0.30385 0.67618 0.0
C303 C 0.48008 0.36624 0.66355 0.0
C304 C 0.44312 0.27774 0.69899 0.0
C305 C 0.45126 0.28547 0.7326 0.0
C306 C 0.47066 0.33803 0.68709 0.0
C307 C 0.4701 0.31997 0.74241 0.0
C308 C 0.48724 0.39865 0.67451 0.0
C309 C 0.49176 0.38611 0.60816 0.0
N310 N 0.47886 0.34504 0.71978 0.0
N311 N 0.48212 0.3609 0.63073 0.0
H312 H 0.51659 0.92687 0.5242 0.0
H313 H 0.60404 0.9061 0.36112 0.0
H314 H 0.53168 0.98602 0.43652 0.0
H315 H 0.56643 0.8344 0.44095 0.0
H316 H 0.59033 0.94403 0.39303 0.0
H317 H 0.5476 0.90174 0.49871 0.0
C318 C 0.52705 0.9352 0.49986 0.0
C319 C 0.52122 0.95851 0.48246 0.0
C320 C 0.5857 0.92028 0.40376 0.0
C321 C 0.55637 0.92912 0.45272 0.0
C322 C 0.59383 0.89881 0.38571 0.0
C323 C 0.58619 0.867 0.39838 0.0
C324 C 0.5702 0.90993 0.43477 0.0
C325 C 0.57252 0.8586 0.43017 0.0
C326 C 0.54453 0.92055 0.48516 0.0
C327 C 0.53507 0.96778 0.4507 0.0
N328 N 0.56477 0.87975 0.44712 0.0
N329 N 0.55171 0.95285 0.43674 0.0
H330 H 0.62415 0.5259 1.00958 0.0
H331 H 0.69512 0.61195 0.83522 0.0
H332 H 0.56346 0.54572 0.94068 0.0
H333 H 0.72894 0.54905 0.88266 0.0
H334 H 0.65282 0.59771 0.87858 0.0
H335 H 0.66974 0.54534 0.96851 0.0
C336 C 0.62085 0.53517 0.98608 0.0
C337 C 0.59023 0.53451 0.97846 0.0
C338 C 0.6695 0.58703 0.87947 0.0
C339 C 0.64182 0.5563 0.9315 0.0
C340 C 0.69364 0.59514 0.85479 0.0
C341 C 0.71544 0.5815 0.85529 0.0
C342 C 0.66755 0.56568 0.90523 0.0
C343 C 0.7124 0.55984 0.88122 0.0
C344 C 0.6466 0.54581 0.96259 0.0
C345 C 0.58682 0.54605 0.94746 0.0
N346 N 0.68901 0.55275 0.90533 0.0
N347 N 0.61233 0.55653 0.92509 0.0
H348 H 0.05744 0.55851 0.44647 0.0
H349 H 0.19576 0.75813 0.43545 0.0
H350 H 0.11732 0.61837 0.53047 0.0
H351 H 0.15382 0.69067 0.35072 0.0
H352 H 0.16264 0.70939 0.47148 0.0
H353 H 0.08621 0.60935 0.4123 0.0
C354 C 0.07624 0.58256 0.45786 0.0
C355 C 0.0852 0.58412 0.49133 0.0
C356 C 0.16077 0.70526 0.44502 0.0
C357 C 0.1186 0.64246 0.45219 0.0
C358 C 0.17975 0.73304 0.4244 0.0
C359 C 0.17771 0.72849 0.38996 0.0
C360 C 0.13921 0.6727 0.43113 0.0
C361 C 0.15644 0.69538 0.3771 0.0
C362 C 0.09284 0.61152 0.43827 0.0
C363 C 0.1095 0.61603 0.50484 0.0
N364 N 0.13792 0.66883 0.39767 0.0
N365 N 0.12562 0.6439 0.48514 0.0
H366 H 0.53946 0.07182 0.91427 0.0
H367 H 0.41495 0.14804 0.93109 0.0
H368 H 0.47379 0.05196 0.99795 0.0
H369 H 0.49018 0.17623 0.85469 0.0
H370 H 0.43592 0.11314 0.95632 0.0
H371 H 0.52126 0.10995 0.89248 0.0
C372 C 0.52149 0.07579 0.92837 0.0
C373 C 0.5086 0.05898 0.95839 0.0
C374 C 0.44798 0.12712 0.93416 0.0
C375 C 0.48689 0.10237 0.93286 0.0
C376 C 0.43605 0.1471 0.91971 0.0
C377 C 0.45075 0.16504 0.8906 0.0
C378 C 0.4747 0.12484 0.91933 0.0
C379 C 0.47806 0.16288 0.87708 0.0
C380 C 0.51092 0.09749 0.91571 0.0
C381 C 0.48441 0.06433 0.97476 0.0
N382 N 0.48898 0.14299 0.89144 0.0
N383 N 0.47434 0.08558 0.96179 0.0
H384 H 0.38235 0.41568 0.47847 0.0
H385 H 0.29193 0.39381 0.30236 0.0
H386 H 0.43629 0.45536 0.38766 0.0
H387 H 0.2377 0.36761 0.39447 0.0
H388 H 0.3434 0.40336 0.33183 0.0
H389 H 0.32814 0.38561 0.44691 0.0
C390 C 0.38279 0.41723 0.45182 0.0
C391 C 0.41364 0.43797 0.43555 0.0
C392 C 0.32008 0.39495 0.34553 0.0
C393 C 0.35206 0.40425 0.39938 0.0
C394 C 0.29054 0.38925 0.32864 0.0
C395 C 0.26047 0.38041 0.34598 0.0
C396 C 0.31967 0.39185 0.38005 0.0
C397 C 0.26038 0.37484 0.38008 0.0
C398 C 0.35191 0.40033 0.43382 0.0
C399 C 0.41293 0.43961 0.40103 0.0
N400 N 0.28961 0.38114 0.39605 0.0
N401 N 0.38266 0.42328 0.38415 0.0
H402 H 0.88456 0.44768 0.96882 0.0
H403 H 0.8953 0.29373 0.8835 0.0
H404 H 0.97876 0.44681 0.95549 0.0
H405 H 0.80876 0.30815 0.86955 0.0
H406 H 0.92295 0.34517 0.91793 0.0
H407 H 0.85345 0.39211 0.94047 0.0
C408 C 0.89875 0.43583 0.96017 0.0
C409 C 0.93454 0.45234 0.96443 0.0
C410 C 0.89788 0.33709 0.90743 0.0
C411 C 0.89883 0.38839 0.93235 0.0
C412 C 0.88197 0.30763 0.88776 0.0
C413 C 0.84967 0.29665 0.87337 0.0
C414 C 0.88139 0.35581 0.91309 0.0
C415 C 0.83374 0.31578 0.87996 0.0
C416 C 0.8809 0.40405 0.94403 0.0
C417 C 0.95125 0.43516 0.95327 0.0
N418 N 0.84979 0.34449 0.89934 0.0
N419 N 0.9333 0.40429 0.93767 0.0
H420 H 0.91571 0.55849 0.99686 0.0
H421 H 0.90277 0.6333 0.82603 0.0
H422 H 0.99326 0.58856 0.92294 0.0
H423 H 0.84492 0.63101 0.91118 0.0
H424 H 0.9399 0.62253 0.862 0.0
H425 H 0.89254 0.58963 0.96754 0.0
C426 C 0.92833 0.57247 0.97486 0.0
C427 C 0.95651 0.57136 0.96235 0.0
C428 C 0.91949 0.62507 0.87289 0.0
C429 C 0.92962 0.606 0.92798 0.0
C430 C 0.89832 0.63135 0.85234 0.0
C431 C 0.87024 0.6325 0.86545 0.0
C432 C 0.91229 0.61949 0.9067 0.0
C433 C 0.8659 0.62987 0.89981 0.0
C434 C 0.9151 0.59013 0.95803 0.0
C435 C 0.97168 0.58925 0.93344 0.0
N436 N 0.88622 0.62285 0.9191 0.0
N437 N 0.95771 0.6054 0.9169 0.0
H438 H 0.44778 0.99627 0.42494 0.0
H439 H 0.24848 0.86675 0.39448 0.0
H440 H 0.37789 0.93752 0.50198 0.0
H441 H 0.31805 0.92815 0.31822 0.0
H442 H 0.29336 0.89909 0.43573 0.0
H443 H 0.39903 0.97806 0.3872 0.0
C444 C 0.42213 0.97988 0.43403 0.0
C445 C 0.41699 0.96819 0.46661 0.0
C446 C 0.29865 0.90586 0.41002 0.0
C447 C 0.36092 0.94699 0.42344 0.0
C448 C 0.27293 0.88748 0.38641 0.0
C449 C 0.27959 0.89434 0.35269 0.0
C450 C 0.33136 0.9312 0.39987 0.0
C451 C 0.31179 0.92164 0.34385 0.0
C452 C 0.39427 0.96953 0.41248 0.0
C453 C 0.38312 0.94733 0.47715 0.0
N454 N 0.33658 0.93868 0.3672 0.0
N455 N 0.35646 0.93704 0.45553 0.0
H456 H 0.48305 0.40446 1.03816 0.0
H457 H 0.39889 0.30224 0.86946 0.0
H458 H 0.4664 0.4503 0.95253 0.0
H459 H 0.44338 0.26994 0.94516 0.0
H460 H 0.40698 0.34964 0.90578 0.0
H461 H 0.45133 0.34846 1.01079 0.0
C462 C 0.47178 0.40263 1.01403 0.0
C463 C 0.47776 0.4322 0.99747 0.0
C464 C 0.41422 0.33167 0.91467 0.0
C465 C 0.442 0.36818 0.96566 0.0
C466 C 0.40935 0.3045 0.89407 0.0
C467 C 0.42077 0.28238 0.90428 0.0
C468 C 0.43019 0.33635 0.94573 0.0
C469 C 0.43453 0.28665 0.93626 0.0
C470 C 0.45397 0.37066 0.99824 0.0
C471 C 0.4628 0.42821 0.966 0.0
N472 N 0.43912 0.31324 0.9557 0.0
N473 N 0.44606 0.3969 0.95091 0.0
H474 H 0.03499 0.44578 0.46832 0.0
H475 H 0.20291 0.46703 0.38757 0.0
H476 H 0.13371 0.50058 0.51651 0.0
H477 H 0.10181 0.38712 0.35757 0.0
H478 H 0.17803 0.47866 0.4359 0.0
H479 H 0.05806 0.42116 0.42925 0.0
C480 C 0.06118 0.4515 0.47134 0.0
C481 C 0.08244 0.47465 0.49578 0.0
C482 C 0.16136 0.45834 0.4189 0.0
C483 C 0.10948 0.44823 0.45049 0.0
C484 C 0.17553 0.45188 0.3912 0.0
C485 C 0.15438 0.42628 0.36838 0.0
C486 C 0.12575 0.4394 0.42352 0.0
C487 C 0.11908 0.40721 0.37446 0.0
C488 C 0.07448 0.43781 0.44891 0.0
C489 C 0.1165 0.48229 0.49823 0.0
N490 N 0.10583 0.41441 0.40123 0.0
N491 N 0.12919 0.46957 0.47547 0.0
H492 H 0.58215 0.98678 0.92961 0.0
H493 H 0.76367 0.1532 0.89811 0.0
H494 H 0.62716 0.07732 0.99135 0.0
H495 H 0.70719 0.07383 0.82524 0.0
H496 H 0.72233 0.11767 0.93968 0.0
H497 H 0.63599 0.01028 0.89932 0.0
C498 C 0.60381 0.01103 0.93757 0.0
C499 C 0.60023 0.03027 0.96285 0.0
C500 C 0.71937 0.10776 0.91472 0.0
C501 C 0.66152 0.0576 0.92799 0.0
C502 C 0.74307 0.12799 0.89095 0.0
C503 C 0.73856 0.1168 0.85791 0.0
C504 C 0.69098 0.07607 0.90547 0.0
C505 C 0.71142 0.08376 0.85027 0.0
C506 C 0.63439 0.02461 0.92005 0.0
C507 C 0.6289 0.0618 0.97186 0.0
N508 N 0.68839 0.06479 0.87373 0.0
N509 N 0.65817 0.0747 0.95416 0.0
H510 H 0.45461 0.55666 0.45958 0.0
H511 H 0.61713 0.73409 0.40987 0.0
H512 H 0.55641 0.57106 0.4541 0.0
H513 H 0.51545 0.70059 0.37206 0.0
H514 H 0.5951 0.67933 0.43773 0.0
H515 H 0.47685 0.61467 0.43927 0.0
C516 C 0.48166 0.57199 0.45432 0.0
C517 C 0.50351 0.55854 0.45809 0.0
C518 C 0.57763 0.68409 0.42347 0.0
C519 C 0.52913 0.6253 0.43557 0.0
C520 C 0.5901 0.71533 0.40765 0.0
C521 C 0.56807 0.72181 0.38848 0.0
C522 C 0.54278 0.65938 0.42061 0.0
C523 C 0.53333 0.69652 0.38641 0.0
C524 C 0.49427 0.60512 0.44281 0.0
C525 C 0.53853 0.58018 0.45183 0.0
N526 N 0.5217 0.6664 0.40236 0.0
N527 N 0.55021 0.61243 0.44073 0.0
H528 H 0.41389 0.0154 0.66297 0.0
H529 H 0.38463 0.16601 0.72687 0.0
H530 H 0.45943 0.11508 0.61916 0.0
H531 H 0.37169 0.08243 0.78736 0.0
H532 H 0.39479 0.13897 0.67934 0.0
H533 H 0.38168 0.03156 0.70014 0.0
C534 C 0.41627 0.04029 0.66048 0.0
C535 C 0.43945 0.06402 0.63809 0.0
C536 C 0.38904 0.12624 0.70289 0.0
C537 C 0.40302 0.08277 0.68066 0.0
C538 C 0.38303 0.14157 0.73009 0.0
C539 C 0.378 0.12689 0.76145 0.0
C540 C 0.38966 0.0958 0.70694 0.0
C541 C 0.37598 0.09498 0.76382 0.0
C542 C 0.39813 0.0496 0.68188 0.0
C543 C 0.44195 0.09614 0.63623 0.0
N544 N 0.38226 0.08074 0.73706 0.0
N545 N 0.42423 0.10469 0.65744 0.0
H546 H 0.47623 0.57247 0.18451 0.0
H547 H 0.27438 0.44647 0.16662 0.0
H548 H 0.42805 0.51094 0.09722 0.0
H549 H 0.32366 0.50991 0.25258 0.0
H550 H 0.3295 0.47303 0.13897 0.0
H551 H 0.42011 0.55293 0.20777 0.0
C552 C 0.45382 0.55524 0.16991 0.0
C553 C 0.457 0.54367 0.13857 0.0
C554 C 0.32825 0.48138 0.16376 0.0
C555 C 0.3922 0.52038 0.16574 0.0
C556 C 0.29674 0.46627 0.1796 0.0
C557 C 0.29441 0.47577 0.21214 0.0
C558 C 0.35777 0.50612 0.18058 0.0
C559 C 0.32423 0.5017 0.22756 0.0
C560 C 0.42168 0.54386 0.18342 0.0
C561 C 0.42688 0.52045 0.12147 0.0
N562 N 0.35471 0.51575 0.21174 0.0
N563 N 0.39574 0.5095 0.13531 0.0
H564 H 0.91127 0.37614 0.59426 0.0
H565 H 0.89827 0.27489 0.75565 0.0
H566 H 0.99452 0.41106 0.66448 0.0
H567 H 0.82771 0.23014 0.67338 0.0
H568 H 0.93734 0.32168 0.72023 0.0
H569 H 0.8838 0.31964 0.61943 0.0
C570 C 0.92418 0.37152 0.61444 0.0
C571 C 0.95514 0.39818 0.62735 0.0
C572 C 0.91361 0.30128 0.70974 0.0
C573 C 0.92341 0.33398 0.65707 0.0
C574 C 0.89126 0.27449 0.72998 0.0
C575 C 0.85934 0.24875 0.71767 0.0
C576 C 0.90381 0.30263 0.67707 0.0
C577 C 0.85183 0.24955 0.68411 0.0
C578 C 0.90846 0.33933 0.62893 0.0
C579 C 0.97073 0.39106 0.6537 0.0
N580 N 0.87356 0.27636 0.6652 0.0
N581 N 0.95437 0.35983 0.66814 0.0
H582 H 0.51152 0.87572 0.07348 0.0
H583 H 0.54615 0.85659 0.2624 0.0
H584 H 0.53029 0.95117 0.14869 0.0
H585 H 0.55365 0.79386 0.18594 0.0
H586 H 0.53932 0.89067 0.22018 0.0
H587 H 0.52935 0.84638 0.11254 0.0
C588 C 0.52065 0.8868 0.09782 0.0
C589 C 0.51936 0.91578 0.10801 0.0
C590 C 0.54249 0.86948 0.21256 0.0
C591 C 0.53837 0.8818 0.15304 0.0
C592 C 0.546 0.84972 0.23672 0.0
C593 C 0.55038 0.8222 0.22775 0.0
C594 C 0.54302 0.8616 0.17907 0.0
C595 C 0.55023 0.81477 0.194 0.0
C596 C 0.53033 0.8698 0.12025 0.0
C597 C 0.53082 0.92878 0.13999 0.0
N598 N 0.54653 0.83431 0.17085 0.0
N599 N 0.53926 0.91139 0.16153 0.0
H600 H 0.56963 0.55142 0.63069 0.0
H601 H 0.76071 0.59872 0.67437 0.0
H602 H 0.63019 0.52636 0.56754 0.0
H603 H 0.68852 0.59903 0.74286 0.0
H604 H 0.72087 0.59026 0.62869 0.0
H605 H 0.62065 0.58773 0.66431 0.0
C606 C 0.59403 0.5546 0.62328 0.0
C607 C 0.59578 0.53584 0.59647 0.0
C608 C 0.71425 0.59323 0.65363 0.0
C609 C 0.65405 0.57629 0.63546 0.0
C610 C 0.73709 0.59839 0.6796 0.0
C611 C 0.72773 0.59956 0.71227 0.0
C612 C 0.68212 0.58953 0.6606 0.0
C613 C 0.69659 0.59824 0.71793 0.0
C614 C 0.62309 0.57505 0.64262 0.0
C615 C 0.6279 0.54056 0.588 0.0
N616 N 0.67479 0.59299 0.69244 0.0
N617 N 0.65571 0.55977 0.60787 0.0
H618 H 0.08404 0.64003 0.09412 0.0
H619 H 0.14175 0.76907 0.21247 0.0
H620 H 0.02094 0.57213 0.17045 0.0
H621 H 0.08271 0.68805 0.28068 0.0
H622 H 0.11351 0.72922 0.16681 0.0
H623 H 0.10008 0.68847 0.13079 0.0
C624 C 0.07286 0.63538 0.11841 0.0
C625 C 0.05136 0.60184 0.12926 0.0
C626 C 0.10648 0.71985 0.19159 0.0
C627 C 0.07001 0.65767 0.17222 0.0
C628 C 0.12246 0.74295 0.21785 0.0
C629 C 0.11522 0.73181 0.25058 0.0
C630 C 0.08326 0.68516 0.19809 0.0
C631 C 0.08961 0.69777 0.25592 0.0
C632 C 0.08221 0.66327 0.13967 0.0
C633 C 0.03808 0.59747 0.16119 0.0
N634 N 0.07503 0.67564 0.23004 0.0
N635 N 0.04793 0.62495 0.18158 0.0
loop_
_geom_bond_atom_site_label_1
_geom_bond_atom_site_label_2
_geom_bond_distance
_geom_bond_site_symmetry_2
_ccdc_geom_bond_type
H0 C8 0.930 . S
H1 C11 0.930 . S
H2 C13 0.930 . S
H3 C14 0.970 . S
H4 C14 0.970 . S
H5 C16 0.930 . S
H6 C18 0.930 . S
H7 C20 0.930 . S
C8 H0 0.930 . S
C8 C9 1.382 . S
C8 C10 1.426 . S
C9 C8 1.382 . S
C9 C13 1.389 . S
C10 C8 1.426 . S
C10 C11 1.375 . S
C10 C14 1.532 1_554 S
C11 H1 0.930 . S
C11 C10 1.375 . S
C11 C12 1.416 . S
C12 C11 1.416 . S
C12 C13 1.371 . S
C13 H2 0.930 . S
C13 C9 1.389 . S
C13 C12 1.371 . S
C14 H3 0.970 . S
C14 H4 0.970 . S
C14 C10 1.532 1_556 S
C14 C15 1.499 . S
C15 C14 1.499 . S
C15 C16 1.370 . S
C15 C20 1.415 . S
C16 H5 0.930 . S
C16 C15 1.370 . S
C16 C17 1.407 1_455 S
C17 C16 1.407 1_655 S
C17 C18 1.365 . S
C18 H6 0.930 . S
C18 C17 1.365 . S
C18 C19 1.393 . S
C19 C18 1.393 . S
C19 C20 1.387 1_655 S
C20 H7 0.930 . S
C20 C15 1.415 . S
C20 C19 1.387 1_455 S
H21 C29 0.930 . S
H22 C32 0.930 . S
H23 C34 0.930 . S
H24 C35 0.970 . S
H25 C35 0.970 . S
H26 C37 0.930 . S
H27 C39 0.930 . S
H28 C41 0.930 . S
C29 H21 0.930 . S
C29 C30 1.382 . S
C29 C31 1.426 . S
C30 C29 1.382 . S
C30 C34 1.389 . S
C31 C29 1.426 . S
C31 C32 1.375 . S
C31 C35 1.532 1_545 S
C32 H22 0.930 . S
C32 C31 1.375 . S
C32 C33 1.416 . S
C33 C32 1.416 . S
C33 C34 1.371 . S
C34 H23 0.930 . S
C34 C30 1.389 . S
C34 C33 1.371 . S
C35 H24 0.970 . S
C35 H25 0.970 . S
C35 C31 1.532 1_565 S
C35 C36 1.499 . S
C36 C35 1.499 . S
C36 C37 1.370 . S
C36 C41 1.415 . S
C37 H26 0.930 . S
C37 C36 1.370 . S
C37 C38 1.407 . S
C38 C37 1.407 . S
C38 C39 1.365 . S
C39 H27 0.930 . S
C39 C38 1.365 . S
C39 C40 1.393 . S
C40 C39 1.393 . S
C40 C41 1.387 . S
C41 H28 0.930 . S
C41 C36 1.415 . S
C41 C40 1.387 . S
H42 C50 0.930 . S
H43 C53 0.930 . S
H44 C55 0.930 . S
H45 C56 0.970 . S
H46 C56 0.970 . S
H47 C58 0.928 1_554 S
H48 C60 0.930 . S
H49 C62 0.922 1_554 S
C50 H42 0.930 . S
C50 C51 1.382 . S
C50 C52 1.426 . S
C51 C50 1.382 . S
C51 C55 1.389 . S
C52 C50 1.426 . S
C52 C53 1.375 . S
C52 C56 1.532 . S
C53 H43 0.930 . S
C53 C52 1.375 . S
C53 C54 1.416 . S
C54 C53 1.416 . S
C54 C55 1.371 . S
C55 H44 0.930 . S
C55 C51 1.389 . S
C55 C54 1.371 . S
C56 H45 0.970 . S
C56 H46 0.970 . S
C56 C52 1.532 . S
C56 C57 1.499 . S
C57 C56 1.499 . S
C57 C58 1.370 1_554 S
C57 C62 1.415 1_554 S
C58 H47 0.928 1_556 S
C58 C57 1.370 1_556 S
C58 C59 1.407 . S
C59 C58 1.407 . S
C59 C60 1.365 . S
C60 H48 0.930 . S
C60 C59 1.365 . S
C60 C61 1.393 . S
C61 C60 1.393 . S
C61 C62 1.387 . S
C62 H49 0.922 1_556 S
C62 C57 1.415 1_556 S
C62 C61 1.387 . S
H63 C71 0.930 1_455 S
H64 C74 0.930 1_455 S
H65 C76 0.930 . S
H66 C77 0.970 . S
H67 C77 0.970 . S
H68 C79 0.930 . S
H69 C81 0.930 . S
H70 C83 0.930 . S
C71 H63 0.930 1_655 S
C71 C72 1.382 . S
C71 C73 1.426 1_655 S
C72 C71 1.382 . S
C72 C76 1.389 . S
C73 C71 1.426 1_455 S
C73 C74 1.375 1_455 S
C73 C77 1.532 . S
C74 H64 0.930 1_655 S
C74 C73 1.375 1_655 S
C74 C75 1.416 . S
C75 C74 1.416 . S
C75 C76 1.371 . S
C76 H65 0.930 . S
C76 C72 1.389 . S
C76 C75 1.371 . S
C77 H66 0.970 . S
C77 H67 0.970 . S
C77 C73 1.532 . S
C77 C78 1.499 . S
C78 C77 1.499 . S
C78 C79 1.370 . S
C78 C83 1.415 . S
C79 H68 0.930 . S
C79 C78 1.370 . S
C79 C80 1.407 . S
C80 C79 1.407 . S
C80 C81 1.365 . S
C81 H69 0.930 . S
C81 C80 1.365 . S
C81 C82 1.393 . S
C82 C81 1.393 . S
C82 C83 1.387 . S
C83 H70 0.930 . S
C83 C78 1.415 . S
C83 C82 1.387 . S
H84 C92 0.930 . S
H85 C95 0.930 . S
H86 C97 0.930 . S
H87 C98 0.970 . S
H88 C98 0.970 . S
H89 C100 0.930 . S
H90 C102 0.930 . S
H91 C104 0.930 1_565 S
C92 H84 0.930 . S
C92 C93 1.382 . S
C92 C94 1.426 . S
C93 C92 1.382 . S
C93 C97 1.389 . S
C94 C92 1.426 . S
C94 C95 1.375 . S
C94 C98 1.532 1_554 S
C95 H85 0.930 . S
C95 C94 1.375 . S
C95 C96 1.416 . S
C96 C95 1.416 . S
C96 C97 1.371 . S
C97 H86 0.930 . S
C97 C93 1.389 . S
C97 C96 1.371 . S
C98 H87 0.970 . S
C98 H88 0.970 . S
C98 C94 1.532 1_556 S
C98 C99 1.499 . S
C99 C98 1.499 . S
C99 C100 1.370 1_565 S
C99 C104 1.415 1_565 S
C100 H89 0.930 . S
C100 C99 1.370 1_545 S
C100 C101 1.407 . S
C101 C100 1.407 . S
C101 C102 1.365 . S
C102 H90 0.930 . S
C102 C101 1.365 . S
C102 C103 1.393 . S
C103 C102 1.393 . S
C103 C104 1.387 . S
C104 H91 0.930 1_545 S
C104 C99 1.415 1_545 S
C104 C103 1.387 . S
H105 C113 0.930 . S
H106 C116 0.930 . S
H107 C118 0.930 . S
H108 C119 0.970 . S
H109 C119 0.970 . S
H110 C121 0.930 . S
H111 C123 0.930 . S
H112 C125 0.930 . S
C113 H105 0.930 . S
C113 C114 1.382 . S
C113 C115 1.426 . S
C114 C113 1.382 . S
C114 C118 1.389 . S
C115 C113 1.426 . S
C115 C116 1.375 . S
C115 C119 1.532 . S
C116 H106 0.930 . S
C116 C115 1.375 . S
C116 C117 1.416 . S
C117 C116 1.416 . S
C117 C118 1.371 . S
C118 H107 0.930 . S
C118 C114 1.389 . S
C118 C117 1.371 . S
C119 H108 0.970 . S
C119 H109 0.970 . S
C119 C115 1.532 . S
C119 C120 1.499 . S
C120 C119 1.499 . S
C120 C121 1.370 . S
C120 C125 1.415 . S
C121 H110 0.930 . S
C121 C120 1.370 . S
C121 C122 1.407 . S
C122 C121 1.407 . S
C122 C123 1.365 . S
C123 H111 0.930 . S
C123 C122 1.365 . S
C123 C124 1.393 . S
C124 C123 1.393 . S
C124 C125 1.387 . S
C125 H112 0.930 . S
C125 C120 1.415 . S
C125 C124 1.387 . S
Mg126 O133 2.141 . S
Mg126 O134 2.048 . S
Mg126 O135 2.048 . S
Mg126 O138 2.141 . S
C127 O128 1.313 . S
C127 O134 1.195 . S
O128 C127 1.313 . S
C129 O130 1.245 . S
C129 O138 1.289 . S
O130 C129 1.245 . S
C131 O132 1.245 . S
C131 O133 1.289 . S
O132 C131 1.245 . S
O133 Mg126 2.141 . S
O133 C131 1.289 . S
O134 Mg126 2.048 . S
O134 C127 1.195 . S
O135 Mg126 2.048 . S
O135 C136 1.195 . S
C136 O135 1.195 . S
C136 O137 1.313 . S
O137 C136 1.313 . S
O138 Mg126 2.141 . S
O138 C129 1.289 . S
Mg139 O146 2.141 . S
Mg139 O147 2.048 . S
Mg139 O148 2.048 . S
Mg139 O151 2.141 . S
C140 O141 1.313 . S
C140 O147 1.195 . S
O141 C140 1.313 . S
C142 O143 1.245 . S
C142 O151 1.289 . S
O143 C142 1.245 . S
C144 O145 1.245 . S
C144 O146 1.289 . S
O145 C144 1.245 . S
O146 Mg139 2.141 . S
O146 C144 1.289 . S
O147 Mg139 2.048 . S
O147 C140 1.195 . S
O148 Mg139 2.048 . S
O148 C149 1.195 . S
C149 O148 1.195 . S
C149 O150 1.313 . S
O150 C149 1.313 . S
O151 Mg139 2.141 . S
O151 C142 1.289 . S
Mg152 O159 2.141 . S
Mg152 O160 2.048 . S
Mg152 O161 2.048 . S
Mg152 O164 2.141 . S
C153 O154 1.313 . S
C153 O160 1.195 . S
O154 C153 1.313 . S
C155 O156 1.245 . S
C155 O164 1.289 . S
O156 C155 1.245 . S
C157 O158 1.245 . S
C157 O159 1.289 . S
O158 C157 1.245 . S
O159 Mg152 2.141 . S
O159 C157 1.289 . S
O160 Mg152 2.048 . S
O160 C153 1.195 . S
O161 Mg152 2.048 . S
O161 C162 1.195 . S
C162 O161 1.195 . S
C162 O163 1.313 . S
O163 C162 1.313 . S
O164 Mg152 2.141 . S
O164 C155 1.289 . S
Mg165 O172 2.141 . S
Mg165 O173 2.048 . S
Mg165 O174 2.048 . S
Mg165 O177 2.141 . S
C166 O167 1.313 . S
C166 O173 1.195 . S
O167 C166 1.313 . S
C168 O169 1.245 . S
C168 O177 1.289 . S
O169 C168 1.245 . S
C170 O171 1.245 . S
C170 O172 1.289 . S
O171 C170 1.245 . S
O172 Mg165 2.141 . S
O172 C170 1.289 . S
O173 Mg165 2.048 . S
O173 C166 1.195 . S
O174 Mg165 2.048 . S
O174 C175 1.195 . S
C175 O174 1.195 . S
C175 O176 1.313 . S
O176 C175 1.313 . S
O177 Mg165 2.141 . S
O177 C168 1.289 . S
Mg178 O185 2.141 . S
Mg178 O186 2.048 . S
Mg178 O187 2.048 . S
Mg178 O190 2.141 . S
C179 O180 1.313 . S
C179 O186 1.195 . S
O180 C179 1.313 . S
C181 O182 1.245 . S
C181 O190 1.289 . S
O182 C181 1.245 . S
C183 O184 1.245 . S
C183 O185 1.289 . S
O184 C183 1.245 . S
O185 Mg178 2.141 . S
O185 C183 1.289 . S
O186 Mg178 2.048 . S
O186 C179 1.195 . S
O187 Mg178 2.048 . S
O187 C188 1.195 . S
C188 O187 1.195 . S
C188 O189 1.313 . S
O189 C188 1.313 . S
O190 Mg178 2.141 . S
O190 C181 1.289 . S
Mg191 O198 2.141 . S
Mg191 O199 2.048 . S
Mg191 O200 2.048 . S
Mg191 O203 2.141 . S
C192 O193 1.313 . S
C192 O199 1.195 . S
O193 C192 1.313 . S
C194 O195 1.245 . S
C194 O203 1.289 . S
O195 C194 1.245 . S
C196 O197 1.245 . S
C196 O198 1.289 . S
O197 C196 1.245 . S
O198 Mg191 2.141 . S
O198 C196 1.289 . S
O199 Mg191 2.048 . S
O199 C192 1.195 . S
O200 Mg191 2.048 . S
O200 C201 1.195 . S
C201 O200 1.195 . S
C201 O202 1.313 . S
O202 C201 1.313 . S
O203 Mg191 2.141 . S
O203 C194 1.289 . S
H204 C210 0.930 . S
H205 C214 0.930 . S
H206 C219 0.929 . S
H207 C217 0.929 . S
H208 C212 0.929 . S
H209 C218 0.929 . S
C210 H204 0.930 . S
C210 C211 1.367 . S
C210 C218 1.378 . S
C211 C210 1.367 . S
C211 C219 1.433 . S
C212 H208 0.929 . S
C212 C214 1.378 . S
C212 C216 1.350 . S
C213 C216 1.463 . S
C213 C218 1.350 . S
C213 N221 1.427 . S
C214 H205 0.930 . S
C214 C212 1.378 . S
C214 C215 1.367 . S
C215 C214 1.367 . S
C215 C217 1.433 . S
C216 C212 1.350 . S
C216 C213 1.463 . S
C216 N220 1.427 . S
C217 H207 0.929 . S
C217 C215 1.433 . S
C217 N220 1.384 . S
C218 H209 0.929 . S
C218 C210 1.378 . S
C218 C213 1.350 . S
C219 H206 0.929 . S
C219 C211 1.433 . S
C219 N221 1.384 . S
N220 C216 1.427 . S
N220 C217 1.384 . S
N221 C213 1.427 . S
N221 C219 1.384 . S
H222 C228 0.930 . S
H223 C232 0.930 . S
H224 C237 0.929 . S
H225 C235 0.929 . S
H226 C230 0.929 . S
H227 C236 0.929 . S
C228 H222 0.930 . S
C228 C229 1.367 . S
C228 C236 1.378 . S
C229 C228 1.367 . S
C229 C237 1.433 . S
C230 H226 0.929 . S
C230 C232 1.378 . S
C230 C234 1.350 . S
C231 C234 1.463 . S
C231 C236 1.350 . S
C231 N239 1.427 . S
C232 H223 0.930 . S
C232 C230 1.378 . S
C232 C233 1.367 . S
C233 C232 1.367 . S
C233 C235 1.433 . S
C234 C230 1.350 . S
C234 C231 1.463 . S
C234 N238 1.427 . S
C235 H225 0.929 . S
C235 C233 1.433 . S
C235 N238 1.384 . S
C236 H227 0.929 . S
C236 C228 1.378 . S
C236 C231 1.350 . S
C237 H224 0.929 . S
C237 C229 1.433 . S
C237 N239 1.384 . S
N238 C234 1.427 . S
N238 C235 1.384 . S
N239 C231 1.427 . S
N239 C237 1.384 . S
H240 C246 0.930 . S
H241 C250 0.930 . S
H242 C255 0.929 . S
H243 C253 0.929 . S
H244 C248 0.929 . S
H245 C254 0.929 . S
C246 H240 0.930 . S
C246 C247 1.367 . S
C246 C254 1.378 . S
C247 C246 1.367 . S
C247 C255 1.433 . S
C248 H244 0.929 . S
C248 C250 1.378 . S
C248 C252 1.350 . S
C249 C252 1.463 . S
C249 C254 1.350 . S
C249 N257 1.427 . S
C250 H241 0.930 . S
C250 C248 1.378 . S
C250 C251 1.367 . S
C251 C250 1.367 . S
C251 C253 1.433 . S
C252 C248 1.350 . S
C252 C249 1.463 . S
C252 N256 1.427 . S
C253 H243 0.929 . S
C253 C251 1.433 . S
C253 N256 1.384 . S
C254 H245 0.929 . S
C254 C246 1.378 . S
C254 C249 1.350 . S
C255 H242 0.929 . S
C255 C247 1.433 . S
C255 N257 1.384 . S
N256 C252 1.427 . S
N256 C253 1.384 . S
N257 C249 1.427 . S
N257 C255 1.384 . S
H258 C264 0.930 . S
H259 C268 0.930 . S
H260 C273 0.929 . S
H261 C271 0.929 . S
H262 C266 0.929 . S
H263 C272 0.929 . S
C264 H258 0.930 . S
C264 C265 1.367 . S
C264 C272 1.378 . S
C265 C264 1.367 . S
C265 C273 1.433 . S
C266 H262 0.929 . S
C266 C268 1.378 . S
C266 C270 1.350 . S
C267 C270 1.463 . S
C267 C272 1.350 . S
C267 N275 1.427 . S
C268 H259 0.930 . S
C268 C266 1.378 . S
C268 C269 1.367 . S
C269 C268 1.367 . S
C269 C271 1.433 . S
C270 C266 1.350 . S
C270 C267 1.463 . S
C270 N274 1.427 . S
C271 H261 0.929 . S
C271 C269 1.433 . S
C271 N274 1.384 . S
C272 H263 0.929 . S
C272 C264 1.378 . S
C272 C267 1.350 . S
C273 H260 0.929 . S
C273 C265 1.433 . S
C273 N275 1.384 . S
N274 C270 1.427 . S
N274 C271 1.384 . S
N275 C267 1.427 . S
N275 C273 1.384 . S
H276 C282 0.930 . S
H277 C286 0.930 . S
H278 C291 0.929 . S
H279 C289 0.929 . S
H280 C284 0.929 . S
H281 C290 0.929 . S
C282 H276 0.930 . S
C282 C283 1.367 . S
C282 C290 1.378 . S
C283 C282 1.367 . S
C283 C291 1.433 . S
C284 H280 0.929 . S
C284 C286 1.378 . S
C284 C288 1.350 . S
C285 C288 1.463 . S
C285 C290 1.350 . S
C285 N293 1.427 . S
C286 H277 0.930 . S
C286 C284 1.378 . S
C286 C287 1.367 . S
C287 C286 1.367 . S
C287 C289 1.433 . S
C288 C284 1.350 . S
C288 C285 1.463 . S
C288 N292 1.427 . S
C289 H279 0.929 . S
C289 C287 1.433 . S
C289 N292 1.384 . S
C290 H281 0.929 . S
C290 C282 1.378 . S
C290 C285 1.350 . S
C291 H278 0.929 . S
C291 C283 1.433 . S
C291 N293 1.384 . S
N292 C288 1.427 . S
N292 C289 1.384 . S
N293 C285 1.427 . S
N293 C291 1.384 . S
H294 C300 0.930 . S
H295 C304 0.930 . S
H296 C309 0.929 . S
H297 C307 0.929 . S
H298 C302 0.929 . S
H299 C308 0.929 . S
C300 H294 0.930 . S
C300 C301 1.367 . S
C300 C308 1.378 . S
C301 C300 1.367 . S
C301 C309 1.433 . S
C302 H298 0.929 . S
C302 C304 1.378 . S
C302 C306 1.350 . S
C303 C306 1.463 . S
C303 C308 1.350 . S
C303 N311 1.427 . S
C304 H295 0.930 . S
C304 C302 1.378 . S
C304 C305 1.367 . S
C305 C304 1.367 . S
C305 C307 1.433 . S
C306 C302 1.350 . S
C306 C303 1.463 . S
C306 N310 1.427 . S
C307 H297 0.929 . S
C307 C305 1.433 . S
C307 N310 1.384 . S
C308 H299 0.929 . S
C308 C300 1.378 . S
C308 C303 1.350 . S
C309 H296 0.929 . S
C309 C301 1.433 . S
C309 N311 1.384 . S
N310 C306 1.427 . S
N310 C307 1.384 . S
N311 C303 1.427 . S
N311 C309 1.384 . S
H312 C318 0.930 . S
H313 C322 0.930 . S
H314 C327 0.929 . S
H315 C325 0.929 . S
H316 C320 0.929 . S
H317 C326 0.929 . S
C318 H312 0.930 . S
C318 C319 1.367 . S
C318 C326 1.378 . S
C319 C318 1.367 . S
C319 C327 1.433 . S
C320 H316 0.929 . S
C320 C322 1.378 . S
C320 C324 1.350 . S
C321 C324 1.463 . S
C321 C326 1.350 . S
C321 N329 1.427 . S
C322 H313 0.930 . S
C322 C320 1.378 . S
C322 C323 1.367 . S
C323 C322 1.367 . S
C323 C325 1.433 . S
C324 C320 1.350 . S
C324 C321 1.463 . S
C324 N328 1.427 . S
C325 H315 0.929 . S
C325 C323 1.433 . S
C325 N328 1.384 . S
C326 H317 0.929 . S
C326 C318 1.378 . S
C326 C321 1.350 . S
C327 H314 0.929 . S
C327 C319 1.433 . S
C327 N329 1.384 . S
N328 C324 1.427 . S
N328 C325 1.384 . S
N329 C321 1.427 . S
N329 C327 1.384 . S
H330 C336 0.930 . S
H331 C340 0.930 . S
H332 C345 0.929 . S
H333 C343 0.929 . S
H334 C338 0.929 . S
H335 C344 0.929 . S
C336 H330 0.930 . S
C336 C337 1.367 . S
C336 C344 1.378 . S
C337 C336 1.367 . S
C337 C345 1.433 . S
C338 H334 0.929 . S
C338 C340 1.378 . S
C338 C342 1.350 . S
C339 C342 1.463 . S
C339 C344 1.350 . S
C339 N347 1.427 . S
C340 H331 0.930 . S
C340 C338 1.378 . S
C340 C341 1.367 . S
C341 C340 1.367 . S
C341 C343 1.433 . S
C342 C338 1.350 . S
C342 C339 1.463 . S
C342 N346 1.427 . S
C343 H333 0.929 . S
C343 C341 1.433 . S
C343 N346 1.384 . S
C344 H335 0.929 . S
C344 C336 1.378 . S
C344 C339 1.350 . S
C345 H332 0.929 . S
C345 C337 1.433 . S
C345 N347 1.384 . S
N346 C342 1.427 . S
N346 C343 1.384 . S
N347 C339 1.427 . S
N347 C345 1.384 . S
H348 C354 0.930 . S
H349 C358 0.930 . S
H350 C363 0.929 . S
H351 C361 0.929 . S
H352 C356 0.929 . S
H353 C362 0.929 . S
C354 H348 0.930 . S
C354 C355 1.367 . S
C354 C362 1.378 . S
C355 C354 1.367 . S
C355 C363 1.433 . S
C356 H352 0.929 . S
C356 C358 1.378 . S
C356 C360 1.350 . S
C357 C360 1.463 . S
C357 C362 1.350 . S
C357 N365 1.427 . S
C358 H349 0.930 . S
C358 C356 1.378 . S
C358 C359 1.367 . S
C359 C358 1.367 . S
C359 C361 1.433 . S
C360 C356 1.350 . S
C360 C357 1.463 . S
C360 N364 1.427 . S
C361 H351 0.929 . S
C361 C359 1.433 . S
C361 N364 1.384 . S
C362 H353 0.929 . S
C362 C354 1.378 . S
C362 C357 1.350 . S
C363 H350 0.929 . S
C363 C355 1.433 . S
C363 N365 1.384 . S
N364 C360 1.427 . S
N364 C361 1.384 . S
N365 C357 1.427 . S
N365 C363 1.384 . S
H366 C372 0.930 . S
H367 C376 0.930 . S
H368 C381 0.929 . S
H369 C379 0.929 . S
H370 C374 0.929 . S
H371 C380 0.929 . S
C372 H366 0.930 . S
C372 C373 1.367 . S
C372 C380 1.378 . S
C373 C372 1.367 . S
C373 C381 1.433 . S
C374 H370 0.929 . S
C374 C376 1.378 . S
C374 C378 1.350 . S
C375 C378 1.463 . S
C375 C380 1.350 . S
C375 N383 1.427 . S
C376 H367 0.930 . S
C376 C374 1.378 . S
C376 C377 1.367 . S
C377 C376 1.367 . S
C377 C379 1.433 . S
C378 C374 1.350 . S
C378 C375 1.463 . S
C378 N382 1.427 . S
C379 H369 0.929 . S
C379 C377 1.433 . S
C379 N382 1.384 . S
C380 H371 0.929 . S
C380 C372 1.378 . S
C380 C375 1.350 . S
C381 H368 0.929 . S
C381 C373 1.433 . S
C381 N383 1.384 . S
N382 C378 1.427 . S
N382 C379 1.384 . S
N383 C375 1.427 . S
N383 C381 1.384 . S
H384 C390 0.930 . S
H385 C394 0.930 . S
H386 C399 0.929 . S
H387 C397 0.929 . S
H388 C392 0.929 . S
H389 C398 0.929 . S
C390 H384 0.930 . S
C390 C391 1.367 . S
C390 C398 1.378 . S
C391 C390 1.367 . S
C391 C399 1.433 . S
C392 H388 0.929 . S
C392 C394 1.378 . S
C392 C396 1.350 . S
C393 C396 1.463 . S
C393 C398 1.350 . S
C393 N401 1.427 . S
C394 H385 0.930 . S
C394 C392 1.378 . S
C394 C395 1.367 . S
C395 C394 1.367 . S
C395 C397 1.433 . S
C396 C392 1.350 . S
C396 C393 1.463 . S
C396 N400 1.427 . S
C397 H387 0.929 . S
C397 C395 1.433 . S
C397 N400 1.384 . S
C398 H389 0.929 . S
C398 C390 1.378 . S
C398 C393 1.350 . S
C399 H386 0.929 . S
C399 C391 1.433 . S
C399 N401 1.384 . S
N400 C396 1.427 . S
N400 C397 1.384 . S
N401 C393 1.427 . S
N401 C399 1.384 . S
H402 C408 0.930 . S
H403 C412 0.930 . S
H404 C417 0.929 . S
H405 C415 0.929 . S
H406 C410 0.929 . S
H407 C416 0.929 . S
C408 H402 0.930 . S
C408 C409 1.367 . S
C408 C416 1.378 . S
C409 C408 1.367 . S
C409 C417 1.433 . S
C410 H406 0.929 . S
C410 C412 1.378 . S
C410 C414 1.350 . S
C411 C414 1.463 . S
C411 C416 1.350 . S
C411 N419 1.427 . S
C412 H403 0.930 . S
C412 C410 1.378 . S
C412 C413 1.367 . S
C413 C412 1.367 . S
C413 C415 1.433 . S
C414 C410 1.350 . S
C414 C411 1.463 . S
C414 N418 1.427 . S
C415 H405 0.929 . S
C415 C413 1.433 . S
C415 N418 1.384 . S
C416 H407 0.929 . S
C416 C408 1.378 . S
C416 C411 1.350 . S
C417 H404 0.929 . S
C417 C409 1.433 . S
C417 N419 1.384 . S
N418 C414 1.427 . S
N418 C415 1.384 . S
N419 C411 1.427 . S
N419 C417 1.384 . S
H420 C426 0.930 . S
H421 C430 0.930 . S
H422 C435 0.929 . S
H423 C433 0.929 . S
H424 C428 0.929 . S
H425 C434 0.929 . S
C426 H420 0.930 . S
C426 C427 1.367 . S
C426 C434 1.378 . S
C427 C426 1.367 . S
C427 C435 1.433 . S
C428 H424 0.929 . S
C428 C430 1.378 . S
C428 C432 1.350 . S
C429 C432 1.463 . S
C429 C434 1.350 . S
C429 N437 1.427 . S
C430 H421 0.930 . S
C430 C428 1.378 . S
C430 C431 1.367 . S
C431 C430 1.367 . S
C431 C433 1.433 . S
C432 C428 1.350 . S
C432 C429 1.463 . S
C432 N436 1.427 . S
C433 H423 0.929 . S
C433 C431 1.433 . S
C433 N436 1.384 . S
C434 H425 0.929 . S
C434 C426 1.378 . S
C434 C429 1.350 . S
C435 H422 0.929 . S
C435 C427 1.433 . S
C435 N437 1.384 . S
N436 C432 1.427 . S
N436 C433 1.384 . S
N437 C429 1.427 . S
N437 C435 1.384 . S
H438 C444 0.930 . S
H439 C448 0.930 . S
H440 C453 0.929 . S
H441 C451 0.929 . S
H442 C446 0.929 . S
H443 C452 0.929 . S
C444 H438 0.930 . S
C444 C445 1.367 . S
C444 C452 1.378 . S
C445 C444 1.367 . S
C445 C453 1.433 . S
C446 H442 0.929 . S
C446 C448 1.378 . S
C446 C450 1.350 . S
C447 C450 1.463 . S
C447 C452 1.350 . S
C447 N455 1.427 . S
C448 H439 0.930 . S
C448 C446 1.378 . S
C448 C449 1.367 . S
C449 C448 1.367 . S
C449 C451 1.433 . S
C450 C446 1.350 . S
C450 C447 1.463 . S
C450 N454 1.427 . S
C451 H441 0.929 . S
C451 C449 1.433 . S
C451 N454 1.384 . S
C452 H443 0.929 . S
C452 C444 1.378 . S
C452 C447 1.350 . S
C453 H440 0.929 . S
C453 C445 1.433 . S
C453 N455 1.384 . S
N454 C450 1.427 . S
N454 C451 1.384 . S
N455 C447 1.427 . S
N455 C453 1.384 . S
H456 C462 0.930 . S
H457 C466 0.930 . S
H458 C471 0.929 . S
H459 C469 0.929 . S
H460 C464 0.929 . S
H461 C470 0.929 . S
C462 H456 0.930 . S
C462 C463 1.367 . S
C462 C470 1.378 . S
C463 C462 1.367 . S
C463 C471 1.433 . S
C464 H460 0.929 . S
C464 C466 1.378 . S
C464 C468 1.350 . S
C465 C468 1.463 . S
C465 C470 1.350 . S
C465 N473 1.427 . S
C466 H457 0.930 . S
C466 C464 1.378 . S
C466 C467 1.367 . S
C467 C466 1.367 . S
C467 C469 1.433 . S
C468 C464 1.350 . S
C468 C465 1.463 . S
C468 N472 1.427 . S
C469 H459 0.929 . S
C469 C467 1.433 . S
C469 N472 1.384 . S
C470 H461 0.929 . S
C470 C462 1.378 . S
C470 C465 1.350 . S
C471 H458 0.929 . S
C471 C463 1.433 . S
C471 N473 1.384 . S
N472 C468 1.427 . S
N472 C469 1.384 . S
N473 C465 1.427 . S
N473 C471 1.384 . S
H474 C480 0.930 . S
H475 C484 0.930 . S
H476 C489 0.929 . S
H477 C487 0.929 . S
H478 C482 0.929 . S
H479 C488 0.929 . S
C480 H474 0.930 . S
C480 C481 1.367 . S
C480 C488 1.378 . S
C481 C480 1.367 . S
C481 C489 1.433 . S
C482 H478 0.929 . S
C482 C484 1.378 . S
C482 C486 1.350 . S
C483 C486 1.463 . S
C483 C488 1.350 . S
C483 N491 1.427 . S
C484 H475 0.930 . S
C484 C482 1.378 . S
C484 C485 1.367 . S
C485 C484 1.367 . S
C485 C487 1.433 . S
C486 C482 1.350 . S
C486 C483 1.463 . S
C486 N490 1.427 . S
C487 H477 0.929 . S
C487 C485 1.433 . S
C487 N490 1.384 . S
C488 H479 0.929 . S
C488 C480 1.378 . S
C488 C483 1.350 . S
C489 H476 0.929 . S
C489 C481 1.433 . S
C489 N491 1.384 . S
N490 C486 1.427 . S
N490 C487 1.384 . S
N491 C483 1.427 . S
N491 C489 1.384 . S
H492 C498 0.930 . S
H493 C502 0.930 . S
H494 C507 0.929 . S
H495 C505 0.929 . S
H496 C500 0.929 . S
H497 C506 0.929 . S
C498 H492 0.930 . S
C498 C499 1.367 . S
C498 C506 1.378 . S
C499 C498 1.367 . S
C499 C507 1.433 . S
C500 H496 0.929 . S
C500 C502 1.378 . S
C500 C504 1.350 . S
C501 C504 1.463 . S
C501 C506 1.350 . S
C501 N509 1.427 . S
C502 H493 0.930 . S
C502 C500 1.378 . S
C502 C503 1.367 . S
C503 C502 1.367 . S
C503 C505 1.433 . S
C504 C500 1.350 . S
C504 C501 1.463 . S
C504 N508 1.427 . S
C505 H495 0.929 . S
C505 C503 1.433 . S
C505 N508 1.384 . S
C506 H497 0.929 . S
C506 C498 1.378 . S
C506 C501 1.350 . S
C507 H494 0.929 . S
C507 C499 1.433 . S
C507 N509 1.384 . S
N508 C504 1.427 . S
N508 C505 1.384 . S
N509 C501 1.427 . S
N509 C507 1.384 . S
H510 C516 0.930 . S
H511 C520 0.930 . S
H512 C525 0.929 . S
H513 C523 0.929 . S
H514 C518 0.929 . S
H515 C524 0.929 . S
C516 H510 0.930 . S
C516 C517 1.367 . S
C516 C524 1.378 . S
C517 C516 1.367 . S
C517 C525 1.433 . S
C518 H514 0.929 . S
C518 C520 1.378 . S
C518 C522 1.350 . S
C519 C522 1.463 . S
C519 C524 1.350 . S
C519 N527 1.427 . S
C520 H511 0.930 . S
C520 C518 1.378 . S
C520 C521 1.367 . S
C521 C520 1.367 . S
C521 C523 1.433 . S
C522 C518 1.350 . S
C522 C519 1.463 . S
C522 N526 1.427 . S
C523 H513 0.929 . S
C523 C521 1.433 . S
C523 N526 1.384 . S
C524 H515 0.929 . S
C524 C516 1.378 . S
C524 C519 1.350 . S
C525 H512 0.929 . S
C525 C517 1.433 . S
C525 N527 1.384 . S
N526 C522 1.427 . S
N526 C523 1.384 . S
N527 C519 1.427 . S
N527 C525 1.384 . S
H528 C534 0.930 . S
H529 C538 0.930 . S
H530 C543 0.929 . S
H531 C541 0.929 . S
H532 C536 0.929 . S
H533 C542 0.929 . S
C534 H528 0.930 . S
C534 C535 1.367 . S
C534 C542 1.378 . S
C535 C534 1.367 . S
C535 C543 1.433 . S
C536 H532 0.929 . S
C536 C538 1.378 . S
C536 C540 1.350 . S
C537 C540 1.463 . S
C537 C542 1.350 . S
C537 N545 1.427 . S
C538 H529 0.930 . S
C538 C536 1.378 . S
C538 C539 1.367 . S
C539 C538 1.367 . S
C539 C541 1.433 . S
C540 C536 1.350 . S
C540 C537 1.463 . S
C540 N544 1.427 . S
C541 H531 0.929 . S
C541 C539 1.433 . S
C541 N544 1.384 . S
C542 H533 0.929 . S
C542 C534 1.378 . S
C542 C537 1.350 . S
C543 H530 0.929 . S
C543 C535 1.433 . S
C543 N545 1.384 . S
N544 C540 1.427 . S
N544 C541 1.384 . S
N545 C537 1.427 . S
N545 C543 1.384 . S
H546 C552 0.930 . S
H547 C556 0.930 . S
H548 C561 0.929 . S
H549 C559 0.929 . S
H550 C554 0.929 . S
H551 C560 0.929 . S
C552 H546 0.930 . S
C552 C553 1.367 . S
C552 C560 1.378 . S
C553 C552 1.367 . S
C553 C561 1.433 . S
C554 H550 0.929 . S
C554 C556 1.378 . S
C554 C558 1.350 . S
C555 C558 1.463 . S
C555 C560 1.350 . S
C555 N563 1.427 . S
C556 H547 0.930 . S
C556 C554 1.378 . S
C556 C557 1.367 . S
C557 C556 1.367 . S
C557 C559 1.433 . S
C558 C554 1.350 . S
C558 C555 1.463 . S
C558 N562 1.427 . S
C559 H549 0.929 . S
C559 C557 1.433 . S
C559 N562 1.384 . S
C560 H551 0.929 . S
C560 C552 1.378 . S
C560 C555 1.350 . S
C561 H548 0.929 . S
C561 C553 1.433 . S
C561 N563 1.384 . S
N562 C558 1.427 . S
N562 C559 1.384 . S
N563 C555 1.427 . S
N563 C561 1.384 . S
H564 C570 0.930 . S
H565 C574 0.930 . S
H566 C579 0.929 . S
H567 C577 0.929 . S
H568 C572 0.929 . S
H569 C578 0.929 . S
C570 H564 0.930 . S
C570 C571 1.367 . S
C570 C578 1.378 . S
C571 C570 1.367 . S
C571 C579 1.433 . S
C572 H568 0.929 . S
C572 C574 1.378 . S
C572 C576 1.350 . S
C573 C576 1.463 . S
C573 C578 1.350 . S
C573 N581 1.427 . S
C574 H565 0.930 . S
C574 C572 1.378 . S
C574 C575 1.367 . S
C575 C574 1.367 . S
C575 C577 1.433 . S
C576 C572 1.350 . S
C576 C573 1.463 . S
C576 N580 1.427 . S
C577 H567 0.929 . S
C577 C575 1.433 . S
C577 N580 1.384 . S
C578 H569 0.929 . S
C578 C570 1.378 . S
C578 C573 1.350 . S
C579 H566 0.929 . S
C579 C571 1.433 . S
C579 N581 1.384 . S
N580 C576 1.427 . S
N580 C577 1.384 . S
N581 C573 1.427 . S
N581 C579 1.384 . S
H582 C588 0.930 . S
H583 C592 0.930 . S
H584 C597 0.929 . S
H585 C595 0.929 . S
H586 C590 0.929 . S
H587 C596 0.929 . S
C588 H582 0.930 . S
C588 C589 1.367 . S
C588 C596 1.378 . S
C589 C588 1.367 . S
C589 C597 1.433 . S
C590 H586 0.929 . S
C590 C592 1.378 . S
C590 C594 1.350 . S
C591 C594 1.463 . S
C591 C596 1.350 . S
C591 N599 1.427 . S
C592 H583 0.930 . S
C592 C590 1.378 . S
C592 C593 1.367 . S
C593 C592 1.367 . S
C593 C595 1.433 . S
C594 C590 1.350 . S
C594 C591 1.463 . S
C594 N598 1.427 . S
C595 H585 0.929 . S
C595 C593 1.433 . S
C595 N598 1.384 . S
C596 H587 0.929 . S
C596 C588 1.378 . S
C596 C591 1.350 . S
C597 H584 0.929 . S
C597 C589 1.433 . S
C597 N599 1.384 . S
N598 C594 1.427 . S
N598 C595 1.384 . S
N599 C591 1.427 . S
N599 C597 1.384 . S
H600 C606 0.930 . S
H601 C610 0.930 . S
H602 C615 0.929 . S
H603 C613 0.929 . S
H604 C608 0.929 . S
H605 C614 0.929 . S
C606 H600 0.930 . S
C606 C607 1.367 . S
C606 C614 1.378 . S
C607 C606 1.367 . S
C607 C615 1.433 . S
C608 H604 0.929 . S
C608 C610 1.378 . S
C608 C612 1.350 . S
C609 C612 1.463 . S
C609 C614 1.350 . S
C609 N617 1.427 . S
C610 H601 0.930 . S
C610 C608 1.378 . S
C610 C611 1.367 . S
C611 C610 1.367 . S
C611 C613 1.433 . S
C612 C608 1.350 . S
C612 C609 1.463 . S
C612 N616 1.427 . S
C613 H603 0.929 . S
C613 C611 1.433 . S
C613 N616 1.384 . S
C614 H605 0.929 . S
C614 C606 1.378 . S
C614 C609 1.350 . S
C615 H602 0.929 . S
C615 C607 1.433 . S
C615 N617 1.384 . S
N616 C612 1.427 . S
N616 C613 1.384 . S
N617 C609 1.427 . S
N617 C615 1.384 . S
H618 C624 0.930 . S
H619 C628 0.930 . S
H620 C633 0.929 . S
H621 C631 0.929 . S
H622 C626 0.929 . S
H623 C632 0.929 . S
C624 H618 0.930 . S
C624 C625 1.367 . S
C624 C632 1.378 . S
C625 C624 1.367 . S
C625 C633 1.433 . S
C626 H622 0.929 . S
C626 C628 1.378 . S
C626 C630 1.350 . S
C627 C630 1.463 . S
C627 C632 1.350 . S
C627 N635 1.427 . S
C628 H619 0.930 . S
C628 C626 1.378 . S
C628 C629 1.367 . S
C629 C628 1.367 . S
C629 C631 1.433 . S
C630 C626 1.350 . S
C630 C627 1.463 . S
C630 N634 1.427 . S
C631 H621 0.929 . S
C631 C629 1.433 . S
C631 N634 1.384 . S
C632 H623 0.929 . S
C632 C624 1.378 . S
C632 C627 1.350 . S
C633 H620 0.929 . S
C633 C625 1.433 . S
C633 N635 1.384 . S
N634 C630 1.427 . S
N634 C631 1.384 . S
N635 C627 1.427 . S
N635 C633 1.384 . S
C211 C12 1.461 . S
C215 C127 1.562 . S
C229 C30 1.465 . S
C233 C140 1.538 . S
C251 C162 1.529 . S
C247 C51 1.484 . S
C269 C175 1.506 . S
C265 C72 1.453 . S
C287 C188 1.537 . S
C283 C96 1.463 . S
C305 C201 1.513 . S
C301 C117 1.449 . S
C319 C38 1.470 . S
C323 C157 1.530 . S
C337 C59 1.455 . S
C341 C170 1.504 . S
C359 C183 1.514 . S
C355 C80 1.472 . S
C377 C196 1.480 . S
C373 C103 1.462 . S
C391 C124 1.484 . S
C395 C129 1.545 . S
C413 C142 1.531 . S
C409 C19 1.464 . S
C431 C168 1.531 . S
C427 C17 1.474 . S
C445 C40 1.467 . S
C449 C181 1.492 . S
C467 C194 1.510 . S
C463 C61 1.473 . S
C481 C82 1.465 . S
C485 C131 1.523 . S
C499 C101 1.456 . S
C503 C144 1.556 . S
C517 C122 1.460 . S
C521 C155 1.504 . S
C535 C33 1.449 . S
C539 C192 1.538 . S
C557 C136 1.546 . S
C553 C54 1.434 . S
C571 C75 1.468 . S
C575 C149 1.566 . S
C589 C93 1.471 . S
C593 C153 1.516 . S
C607 C114 1.502 . S
C611 C166 1.527 . S
C625 C9 1.468 . S
C629 C179 1.516 . S
