# Generated by pormake.
# Topology ctn, (3,4)-cn, num edge types: 1
# Building blocks:
#     Node 0, Type 0, BuildingBlock: QEWDON_clean_linker_0, # of connection points: 3
#     Node 1, Type 0, BuildingBlock: QEWDON_clean_linker_0, # of connection points: 3
#     Node 2, Type 0, BuildingBlock: QEWDON_clean_linker_0, # of connection points: 3
#     Node 3, Type 0, BuildingBlock: QEWDON_clean_linker_0, # of connection points: 3
#     Node 4, Type 0, BuildingBlock: QEWDON_clean_linker_0, # of connection points: 3
#     Node 5, Type 0, BuildingBlock: QEWDON_clean_linker_0, # of connection points: 3
#     Node 6, Type 0, BuildingBlock: QEWDON_clean_linker_0, # of connection points: 3
#     Node 7, Type 0, BuildingBlock: QEWDON_clean_linker_0, # of connection points: 3
#     Node 8, Type 0, BuildingBlock: QEWDON_clean_linker_0, # of connection points: 3
#     Node 9, Type 0, BuildingBlock: QEWDON_clean_linker_0, # of connection points: 3
#     Node 10, Type 0, BuildingBlock: QEWDON_clean_linker_0, # of connection points: 3
#     Node 11, Type 0, BuildingBlock: QEWDON_clean_linker_0, # of connection points: 3
#     Node 12, Type 0, BuildingBlock: QEWDON_clean_linker_0, # of connection points: 3
#     Node 13, Type 0, BuildingBlock: QEWDON_clean_linker_0, # of connection points: 3
#     Node 14, Type 0, BuildingBlock: QEWDON_clean_linker_0, # of connection points: 3
#     Node 15, Type 0, BuildingBlock: QEWDON_clean_linker_0, # of connection points: 3
#     Node 16, Type 1, BuildingBlock: AZAVOO_clean_sbu_0, # of connection points: 4
#     Node 17, Type 1, BuildingBlock: AZAVOO_clean_sbu_0, # of connection points: 4
#     Node 18, Type 1, BuildingBlock: AZAVOO_clean_sbu_0, # of connection points: 4
#     Node 19, Type 1, BuildingBlock: AZAVOO_clean_sbu_0, # of connection points: 4
#     Node 20, Type 1, BuildingBlock: AZAVOO_clean_sbu_0, # of connection points: 4
#     Node 21, Type 1, BuildingBlock: AZAVOO_clean_sbu_0, # of connection points: 4
#     Node 22, Type 1, BuildingBlock: AZAVOO_clean_sbu_0, # of connection points: 4
#     Node 23, Type 1, BuildingBlock: AZAVOO_clean_sbu_0, # of connection points: 4
#     Node 24, Type 1, BuildingBlock: AZAVOO_clean_sbu_0, # of connection points: 4
#     Node 25, Type 1, BuildingBlock: AZAVOO_clean_sbu_0, # of connection points: 4
#     Node 26, Type 1, BuildingBlock: AZAVOO_clean_sbu_0, # of connection points: 4
#     Node 27, Type 1, BuildingBlock: AZAVOO_clean_sbu_0, # of connection points: 4
#     Edge 28, Type (0, 1), BuildingBlock: CIFDUS_clean_linker_0, # of connection points: 2
#     Edge 29, Type (0, 1), BuildingBlock: CIFDUS_clean_linker_0, # of connection points: 2
#     Edge 30, Type (0, 1), BuildingBlock: CIFDUS_clean_linker_0, # of connection points: 2
#     Edge 31, Type (0, 1), BuildingBlock: CIFDUS_clean_linker_0, # of connection points: 2
#     Edge 32, Type (0, 1), BuildingBlock: CIFDUS_clean_linker_0, # of connection points: 2
#     Edge 33, Type (0, 1), BuildingBlock: CIFDUS_clean_linker_0, # of connection points: 2
#     Edge 34, Type (0, 1), BuildingBlock: CIFDUS_clean_linker_0, # of connection points: 2
#     Edge 35, Type (0, 1), BuildingBlock: CIFDUS_clean_linker_0, # of connection points: 2
#     Edge 36, Type (0, 1), BuildingBlock: CIFDUS_clean_linker_0, # of connection points: 2
#     Edge 37, Type (0, 1), BuildingBlock: CIFDUS_clean_linker_0, # of connection points: 2
#     Edge 38, Type (0, 1), BuildingBlock: CIFDUS_clean_linker_0, # of connection points: 2
#     Edge 39, Type (0, 1), BuildingBlock: CIFDUS_clean_linker_0, # of connection points: 2
#     Edge 40, Type (0, 1), BuildingBlock: CIFDUS_clean_linker_0, # of connection points: 2
#     Edge 41, Type (0, 1), BuildingBlock: CIFDUS_clean_linker_0, # of connection points: 2
#     Edge 42, Type (0, 1), BuildingBlock: CIFDUS_clean_linker_0, # of connection points: 2
#     Edge 43, Type (0, 1), BuildingBlock: CIFDUS_clean_linker_0, # of connection points: 2
#     Edge 44, Type (0, 1), BuildingBlock: CIFDUS_clean_linker_0, # of connection points: 2
#     Edge 45, Type (0, 1), BuildingBlock: CIFDUS_clean_linker_0, # of connection points: 2
#     Edge 46, Type (0, 1), BuildingBlock: CIFDUS_clean_linker_0, # of connection points: 2
#     Edge 47, Type (0, 1), BuildingBlock: CIFDUS_clean_linker_0, # of connection points: 2
#     Edge 48, Type (0, 1), BuildingBlock: CIFDUS_clean_linker_0, # of connection points: 2
#     Edge 49, Type (0, 1), BuildingBlock: CIFDUS_clean_linker_0, # of connection points: 2
#     Edge 50, Type (0, 1), BuildingBlock: CIFDUS_clean_linker_0, # of connection points: 2
#     Edge 51, Type (0, 1), BuildingBlock: CIFDUS_clean_linker_0, # of connection points: 2
#     Edge 52, Type (0, 1), BuildingBlock: CIFDUS_clean_linker_0, # of connection points: 2
#     Edge 53, Type (0, 1), BuildingBlock: CIFDUS_clean_linker_0, # of connection points: 2
#     Edge 54, Type (0, 1), BuildingBlock: CIFDUS_clean_linker_0, # of connection points: 2
#     Edge 55, Type (0, 1), BuildingBlock: CIFDUS_clean_linker_0, # of connection points: 2
#     Edge 56, Type (0, 1), BuildingBlock: CIFDUS_clean_linker_0, # of connection points: 2
#     Edge 57, Type (0, 1), BuildingBlock: CIFDUS_clean_linker_0, # of connection points: 2
#     Edge 58, Type (0, 1), BuildingBlock: CIFDUS_clean_linker_0, # of connection points: 2
#     Edge 59, Type (0, 1), BuildingBlock: CIFDUS_clean_linker_0, # of connection points: 2
#     Edge 60, Type (0, 1), BuildingBlock: CIFDUS_clean_linker_0, # of connection points: 2
#     Edge 61, Type (0, 1), BuildingBlock: CIFDUS_clean_linker_0, # of connection points: 2
#     Edge 62, Type (0, 1), BuildingBlock: CIFDUS_clean_linker_0, # of connection points: 2
#     Edge 63, Type (0, 1), BuildingBlock: CIFDUS_clean_linker_0, # of connection points: 2
#     Edge 64, Type (0, 1), BuildingBlock: CIFDUS_clean_linker_0, # of connection points: 2
#     Edge 65, Type (0, 1), BuildingBlock: CIFDUS_clean_linker_0, # of connection points: 2
#     Edge 66, Type (0, 1), BuildingBlock: CIFDUS_clean_linker_0, # of connection points: 2
#     Edge 67, Type (0, 1), BuildingBlock: CIFDUS_clean_linker_0, # of connection points: 2
#     Edge 68, Type (0, 1), BuildingBlock: CIFDUS_clean_linker_0, # of connection points: 2
#     Edge 69, Type (0, 1), BuildingBlock: CIFDUS_clean_linker_0, # of connection points: 2
#     Edge 70, Type (0, 1), BuildingBlock: CIFDUS_clean_linker_0, # of connection points: 2
#     Edge 71, Type (0, 1), BuildingBlock: CIFDUS_clean_linker_0, # of connection points: 2
#     Edge 72, Type (0, 1), BuildingBlock: CIFDUS_clean_linker_0, # of connection points: 2
#     Edge 73, Type (0, 1), BuildingBlock: CIFDUS_clean_linker_0, # of connection points: 2
#     Edge 74, Type (0, 1), BuildingBlock: CIFDUS_clean_linker_0, # of connection points: 2
#     Edge 75, Type (0, 1), BuildingBlock: CIFDUS_clean_linker_0, # of connection points: 2
# Relax obj value: 0.118
# Max RMSD: 0.294
# Mean RMSD: 0.157
data_MOF--net-ctn--node1-AZAVOO_clean_sbu_0--node2-QEWDON_clean_linker_0--edge1-CIFDUS_clean_linker_0
_symmetry_space_group_name_H-M    P1
_symmetry_Int_Tables_number       1
_symmetry_cell_setting            triclinic
loop_
_symmetry_equiv_pos_as_xyz
'x, y, z'
_cell_length_a     45.446934
_cell_length_b     48.570403
_cell_length_c     51.593066
_cell_angle_alpha  98.435344
_cell_angle_beta   94.625868
_cell_angle_gamma 98.839824
loop_
_atom_site_label
_atom_site_type_symbol
_atom_site_fract_x
_atom_site_fract_y
_atom_site_fract_z
_atom_type_partial_charge
H0 H 0.12895 0.01394 0.0444 0.0
C1 C 0.11191 0.01164 0.05783 0.0
C2 C 0.10494 0.98628 0.06783 0.0
C3 C 0.09832 0.03482 0.0661 0.0
H4 H 0.08018 0.96602 0.09586 0.0
C5 C 0.08471 0.98505 0.08729 0.0
C6 C 0.07107 0.00855 0.09617 0.0
C7 C 0.07737 0.03292 0.0844 0.0
C8 C 0.10946 0.0625 0.059 0.0
H9 H 0.06685 0.05114 0.08996 0.0
C10 C 0.09638 0.07155 0.03682 0.0
C11 C 0.10651 0.09877 0.03153 0.0
C12 C 0.13285 0.08051 0.07549 0.0
H13 H 0.14304 0.07377 0.09269 0.0
C14 C 0.14303 0.10743 0.07008 0.0
H15 H 0.07816 0.05778 0.02413 0.0
C16 C 0.12984 0.11661 0.04828 0.0
H17 H 0.13783 0.13768 0.04444 0.0
H18 H 0.16101 0.12127 0.08291 0.0
H19 H 0.36603 0.74558 0.27072 0.0
C20 C 0.34994 0.72619 0.26555 0.0
C21 C 0.3572 0.70083 0.27217 0.0
C22 C 0.32123 0.72704 0.25393 0.0
H23 H 0.34089 0.65674 0.27213 0.0
C24 C 0.33554 0.67617 0.26648 0.0
C25 C 0.3067 0.67673 0.25459 0.0
C26 C 0.29982 0.70236 0.24832 0.0
C27 C 0.31227 0.75425 0.25056 0.0
H28 H 0.27758 0.70334 0.23955 0.0
C29 C 0.31704 0.76585 0.22757 0.0
C30 C 0.30619 0.79081 0.22363 0.0
C31 C 0.29744 0.76792 0.27008 0.0
H32 H 0.29356 0.75911 0.28787 0.0
C33 C 0.2871 0.79282 0.26662 0.0
H34 H 0.32883 0.75516 0.21279 0.0
C35 C 0.29114 0.80406 0.24353 0.0
H36 H 0.28163 0.82274 0.24108 0.0
H37 H 0.27537 0.80314 0.28164 0.0
H38 H 0.05714 0.48861 0.04516 0.0
C39 C 0.03787 0.49923 0.04572 0.0
C40 C 0.02546 0.50578 0.06962 0.0
C41 C 0.02644 0.50714 0.02239 0.0
H42 H 0.99072 0.5255 0.08745 0.0
C43 C 1.00107 0.5207 0.06952 0.0
C44 C 0.98962 0.52914 0.04618 0.0
C45 C 1.00266 0.52229 0.02283 0.0
C46 C 0.03888 0.49899 0.99727 0.0
H47 H 0.9944 0.52886 0.0048 0.0
C48 C 0.04081 0.47059 0.98871 0.0
C49 C 0.05084 0.46211 0.96414 0.0
C50 C 0.04769 0.51917 0.98129 0.0
H51 H 0.04639 0.5412 0.9875 0.0
C52 C 0.05841 0.51103 0.95719 0.0
H53 H 0.03398 0.45502 1.00106 0.0
C54 C 0.05994 0.48268 0.94858 0.0
H55 H 0.06759 0.47679 0.92952 0.0
H56 H 0.06522 0.52671 0.94498 0.0
H57 H 0.80809 0.83609 0.23945 0.0
C58 C 0.80065 0.82461 0.21978 0.0
C59 C 0.81207 0.835 0.198 0.0
C60 C 0.78171 0.79836 0.21663 0.0
H61 H 0.81352 0.82664 0.15606 0.0
C62 C 0.80366 0.81918 0.17272 0.0
C63 C 0.78443 0.79297 0.16907 0.0
C64 C 0.77304 0.78302 0.19119 0.0
C65 C 0.77529 0.78498 0.24007 0.0
H66 H 0.75895 0.76249 0.18884 0.0
C67 C 0.74613 0.77215 0.24339 0.0
C68 C 0.74124 0.75811 0.26505 0.0
C69 C 0.79921 0.78378 0.25874 0.0
H70 H 0.8219 0.7931 0.25645 0.0
C71 C 0.7943 0.76989 0.28017 0.0
H72 H 0.72747 0.77294 0.22919 0.0
C73 C 0.76553 0.75702 0.28329 0.0
H74 H 0.76214 0.74643 0.30016 0.0
H75 H 0.81289 0.76897 0.29434 0.0
H76 H 0.13284 0.00288 0.50979 0.0
C77 C 0.1149 0.00332 0.49473 0.0
C78 C 0.11347 0.02821 0.48434 0.0
C79 C 0.09391 0.97872 0.4854 0.0
H80 H 0.08938 0.04783 0.45682 0.0
C81 C 0.09044 0.02844 0.46461 0.0
C82 C 0.07021 0.00367 0.45363 0.0
C83 C 0.07167 0.9789 0.46474 0.0
C84 C 0.0988 0.9521 0.49465 0.0
H85 H 0.05698 0.95935 0.45632 0.0
C86 C 0.07878 0.93796 0.50988 0.0
C87 C 0.08622 0.91454 0.52081 0.0
C88 C 0.12549 0.94203 0.48971 0.0
H89 H 0.14114 0.95258 0.47809 0.0
C90 C 0.13248 0.91856 0.49991 0.0
H91 H 0.05826 0.94574 0.514 0.0
C92 C 0.11316 0.90503 0.51548 0.0
H93 H 0.11917 0.88684 0.5232 0.0
H94 H 0.15312 0.91099 0.49595 0.0
H95 H 0.2746 0.69934 0.75939 0.0
C96 C 0.27241 0.70396 0.78027 0.0
C97 C 0.29017 0.69287 0.79857 0.0
C98 C 0.25277 0.72217 0.78887 0.0
H99 H 0.30279 0.69346 0.83981 0.0
C100 C 0.28784 0.70048 0.8257 0.0
C101 C 0.26801 0.71867 0.83467 0.0
C102 C 0.25008 0.72869 0.81583 0.0
C103 C 0.23948 0.739 0.77081 0.0
H104 H 0.23458 0.7426 0.82198 0.0
C105 C 0.21286 0.72828 0.75403 0.0
C106 C 0.19936 0.74628 0.73941 0.0
C107 C 0.25279 0.76732 0.77219 0.0
H108 H 0.27317 0.77592 0.78508 0.0
C109 C 0.23973 0.78491 0.7574 0.0
H110 H 0.20228 0.70653 0.75305 0.0
C111 C 0.21307 0.77457 0.74126 0.0
H112 H 0.20318 0.78865 0.73004 0.0
H113 H 0.25012 0.80674 0.75866 0.0
H114 H 0.95069 0.57467 0.47107 0.0
C115 C 0.93907 0.5548 0.47513 0.0
C116 C 0.93019 0.55284 0.50042 0.0
C117 C 0.93132 0.53181 0.45443 0.0
H118 H 0.90628 0.52538 0.5239 0.0
C119 C 0.9134 0.52737 0.50461 0.0
C120 C 0.90479 0.5045 0.484 0.0
C121 C 0.91445 0.50656 0.45905 0.0
C122 C 0.93591 0.53614 0.42715 0.0
H123 H 0.90701 0.48936 0.44282 0.0
C124 C 0.95647 0.52301 0.41271 0.0
C125 C 0.96017 0.52779 0.38668 0.0
C126 C 0.91911 0.55388 0.41548 0.0
H127 H 0.9032 0.56411 0.42628 0.0
C128 C 0.9225 0.55845 0.38979 0.0
H129 H 0.96953 0.50936 0.4217 0.0
C130 C 0.94285 0.54559 0.3755 0.0
H131 H 0.94549 0.55013 0.3558 0.0
H132 H 0.90947 0.57222 0.38099 0.0
H133 H 0.83779 0.8185 0.78122 0.0
C134 C 0.83289 0.80172 0.79274 0.0
C135 C 0.84643 0.77736 0.78832 0.0
C136 C 0.81424 0.8053 0.81292 0.0
H137 H 0.85058 0.73739 0.80132 0.0
C138 C 0.84069 0.75636 0.80453 0.0
C139 C 0.82125 0.75943 0.82435 0.0
C140 C 0.80844 0.78402 0.82832 0.0
C141 C 0.80206 0.83185 0.81957 0.0
H142 H 0.79403 0.78688 0.84394 0.0
C143 C 0.78483 0.84265 0.80064 0.0
C144 C 0.77116 0.86637 0.80834 0.0
C145 C 0.80639 0.84566 0.84585 0.0
H146 H 0.81976 0.83795 0.86069 0.0
C147 C 0.79347 0.86939 0.85334 0.0
H148 H 0.78118 0.83208 0.78036 0.0
C149 C 0.77583 0.87959 0.83482 0.0
H150 H 0.76613 0.89816 0.84117 0.0
H151 H 0.797 0.87985 0.87364 0.0
H152 H 0.34579 0.32059 0.27763 0.0
C153 C 0.34206 0.30428 0.28982 0.0
C154 C 0.35638 0.28043 0.28569 0.0
C155 C 0.32458 0.30821 0.31083 0.0
H156 H 0.36349 0.24201 0.30017 0.0
C157 C 0.3527 0.26046 0.30304 0.0
C158 C 0.33507 0.26417 0.32414 0.0
C159 C 0.32106 0.2881 0.32768 0.0
C160 C 0.31464 0.33555 0.31849 0.0
H161 H 0.3087 0.29206 0.34459 0.0
C162 C 0.28733 0.34153 0.30753 0.0
C163 C 0.27741 0.36684 0.31735 0.0
C164 C 0.33213 0.35513 0.3387 0.0
H165 H 0.35308 0.35075 0.34742 0.0
C166 C 0.32263 0.38029 0.34811 0.0
H167 H 0.2736 0.32634 0.29208 0.0
C168 C 0.29545 0.38609 0.33764 0.0
H169 H 0.28866 0.40588 0.34525 0.0
H170 H 0.33629 0.39529 0.3637 0.0
H171 H 0.55477 0.98928 0.53575 0.0
C172 C 0.53641 1.00114 0.53644 0.0
C173 C 0.53153 0.01681 0.56041 0.0
C174 C 0.5187 1.00152 0.51307 0.0
H175 H 0.50391 0.04464 0.57912 0.0
C176 C 0.50747 0.03207 0.56086 0.0
C177 C 0.48915 0.03236 0.53741 0.0
C178 C 0.4951 0.01691 0.51369 0.0
C179 C 0.5263 0.98737 0.48769 0.0
H180 H 0.4812 0.01656 0.49551 0.0
C181 C 0.52888 0.95865 0.48416 0.0
C182 C 0.53814 0.94548 0.46067 0.0
C183 C 0.53232 0.00297 0.46735 0.0
H184 H 0.53057 0.02518 0.46974 0.0
C185 C 0.54162 0.99026 0.44411 0.0
H186 H 0.52318 0.94665 0.49969 0.0
C187 C 0.54482 0.96186 0.44083 0.0
H188 H 0.55293 0.95298 0.42283 0.0
H189 H 0.54677 1.00256 0.42868 0.0
H190 H 0.28352 0.34228 0.74475 0.0
C191 C 0.28151 0.33197 0.72442 0.0
C192 C 0.29389 0.34669 0.70523 0.0
C193 C 0.26831 0.30345 0.71771 0.0
H194 H 0.30369 0.34353 0.66478 0.0
C195 C 0.29261 0.33269 0.67918 0.0
C196 C 0.27987 0.30402 0.67236 0.0
C197 C 0.26708 0.28988 0.69162 0.0
C198 C 0.25893 0.28652 0.73816 0.0
H199 H 0.25707 0.26778 0.68654 0.0
C200 C 0.23788 0.2943 0.75522 0.0
C201 C 0.22754 0.27642 0.77289 0.0
C202 C 0.27042 0.26147 0.73978 0.0
H203 H 0.28689 0.25524 0.72704 0.0
C204 C 0.26072 0.24415 0.75773 0.0
H205 H 0.22869 0.31343 0.75397 0.0
C206 C 0.23922 0.25141 0.77404 0.0
H207 H 0.23172 0.23751 0.78768 0.0
H208 H 0.26966 0.22489 0.7588 0.0
H209 H 0.88686 0.25308 0.76308 0.0
C210 C 0.87001 0.2343 0.75732 0.0
C211 C 0.87356 0.20951 0.76732 0.0
C212 C 0.84425 0.23544 0.74083 0.0
H213 H 0.85343 0.16663 0.76859 0.0
C214 C 0.85111 0.18561 0.76042 0.0
C215 C 0.82516 0.18639 0.74393 0.0
C216 C 0.82202 0.21134 0.73402 0.0
C217 C 0.83931 0.26249 0.73267 0.0
H218 H 0.80183 0.21231 0.72171 0.0
C219 C 0.83072 0.26394 0.70616 0.0
C220 C 0.82432 0.28937 0.69864 0.0
C221 C 0.84209 0.2868 0.75171 0.0
H222 H 0.84845 0.28613 0.77228 0.0
C223 C 0.83574 0.31198 0.74454 0.0
H224 H 0.82944 0.24527 0.6915 0.0
C225 C 0.82665 0.31326 0.71833 0.0
H226 H 0.82094 0.33294 0.71372 0.0
H227 H 0.83741 0.3305 0.75943 0.0
H228 H 0.61936 0.51993 0.53715 0.0
C229 C 0.60266 0.51647 0.55069 0.0
C230 C 0.59468 0.48958 0.55776 0.0
C231 C 0.59086 0.53965 0.56244 0.0
H232 H 0.56782 0.46608 0.58275 0.0
C233 C 0.57436 0.4865 0.57696 0.0
C234 C 0.56273 0.50983 0.58918 0.0
C235 C 0.57091 0.53624 0.58146 0.0
C236 C 0.60291 0.56832 0.55811 0.0
H237 H 0.56321 0.55466 0.59139 0.0
C238 C 0.59022 0.58024 0.53754 0.0
C239 C 0.60073 0.60846 0.53519 0.0
C240 C 0.6265 0.58442 0.57579 0.0
H241 H 0.63639 0.57548 0.59176 0.0
C242 C 0.63721 0.61225 0.57321 0.0
H243 H 0.57178 0.56795 0.52402 0.0
C244 C 0.6243 0.6243 0.55315 0.0
H245 H 0.63273 0.64605 0.55159 0.0
H246 H 0.65536 0.6246 0.58695 0.0
H247 H 0.62835 0.47054 0.98978 0.0
C248 C 0.61152 0.47415 0.97512 0.0
C249 C 0.61489 0.49981 0.965 0.0
C250 C 0.58757 0.45225 0.96499 0.0
H251 H 0.59681 0.52213 0.93576 0.0
C252 C 0.59347 0.50334 0.94491 0.0
C253 C 0.56943 0.4817 0.9346 0.0
C254 C 0.56639 0.45649 0.94521 0.0
C255 C 0.58823 0.42304 0.97009 0.0
H256 H 0.54846 0.43928 0.93688 0.0
C257 C 0.58541 0.41499 0.99517 0.0
C258 C 0.58635 0.38672 0.99847 0.0
C259 C 0.59189 0.40272 0.94874 0.0
H260 H 0.59423 0.40844 0.92939 0.0
C261 C 0.59284 0.37496 0.95205 0.0
H262 H 0.58253 0.43042 0.01179 0.0
C263 C 0.59012 0.367 0.97667 0.0
H264 H 0.59074 0.34519 0.9787 0.0
H265 H 0.5957 0.35953 0.93544 0.0
H266 H 0.77855 0.17316 0.25822 0.0
C267 C 0.77154 0.17939 0.2775 0.0
C268 C 0.78422 0.16982 0.2996 0.0
C269 C 0.75076 0.19797 0.28023 0.0
H270 H 0.78671 0.17316 0.34177 0.0
C271 C 0.77618 0.1797 0.32465 0.0
C272 C 0.7553 0.1984 0.3278 0.0
C273 C 0.74225 0.20686 0.30521 0.0
C274 C 0.74125 0.21134 0.2577 0.0
H275 H 0.72625 0.22124 0.30701 0.0
C276 C 0.71132 0.20605 0.24617 0.0
C277 C 0.70295 0.22005 0.22538 0.0
C278 C 0.76249 0.23058 0.24832 0.0
H279 H 0.78556 0.23501 0.25705 0.0
C280 C 0.75407 0.24466 0.22795 0.0
H281 H 0.69483 0.19103 0.25311 0.0
C282 C 0.72446 0.23948 0.21654 0.0
H283 H 0.71841 0.25029 0.20047 0.0
H284 H 0.77056 0.25957 0.22092 0.0
H285 H 0.46264 0.06175 0.95899 0.0
C286 C 0.45487 0.04297 0.96717 0.0
C287 C 0.45374 0.04446 0.99463 0.0
C288 C 0.4441 0.01765 0.94986 0.0
H289 H 0.44089 0.0202 0.02529 0.0
C290 C 0.4418 0.01984 0.00434 0.0
C291 C 0.43104 0.99445 0.98711 0.0
C292 C 0.43244 0.99351 0.95998 0.0
C293 C 0.44162 0.01691 0.92099 0.0
H294 H 0.42342 0.97415 0.94655 0.0
C295 C 0.46716 0.02013 0.90725 0.0
C296 C 0.46409 0.01798 0.87951 0.0
C297 C 0.41305 0.01189 0.90697 0.0
H298 H 0.39315 0.00931 0.91721 0.0
C299 C 0.40987 0.01013 0.87966 0.0
H300 H 0.48922 0.02396 0.91809 0.0
C301 C 0.43512 0.01302 0.86599 0.0
H302 H 0.43189 0.01076 0.84471 0.0
H303 H 0.38773 0.00617 0.86901 0.0
Mg304 Mg 0.25452 0.83406 0.03672 0.0
O305 O 0.29486 0.86776 0.03343 0.0
O306 O 0.33486 0.84619 0.03146 0.0
Mg307 Mg 0.32078 0.79972 0.036 0.0
C308 C 0.32274 0.86823 0.03125 0.0
C309 C 0.20241 0.86183 0.04753 0.0
O310 O 0.20319 0.84162 0.06181 0.0
O311 O 0.25433 0.81551 0.99282 0.0
O312 O 0.29285 0.79183 0.99562 0.0
O313 O 0.26349 0.84271 0.08042 0.0
O314 O 0.28184 0.81003 0.05539 0.0
C315 C 0.27082 0.79865 0.98241 0.0
C316 C 0.27989 0.82317 0.07857 0.0
O317 O 0.22124 0.86438 0.03064 0.0
Mg318 Mg 0.1421 0.5077 0.27009 0.0
O319 O 0.11304 0.503 0.23006 0.0
O320 O 0.14451 0.50065 0.19891 0.0
Mg321 Mg 0.19278 0.50777 0.21821 0.0
C322 C 0.11816 0.50032 0.20587 0.0
C323 C 0.10577 0.50168 0.31697 0.0
O324 O 0.13364 0.50959 0.32757 0.0
O325 O 0.15188 0.46203 0.26321 0.0
O326 O 0.18567 0.46588 0.23416 0.0
O327 O 0.14806 0.55472 0.27338 0.0
O328 O 0.17874 0.52875 0.25478 0.0
C329 C 0.17101 0.45176 0.24938 0.0
C330 C 0.17173 0.55333 0.26119 0.0
O331 O 0.10073 0.49696 0.29193 0.0
Mg332 Mg 0.81888 0.6572 1.00316 0.0
O333 O 0.77121 0.62995 0.99304 0.0
O334 O 0.74023 0.66143 0.99189 0.0
Mg335 Mg 0.76599 0.70643 0.99935 0.0
C336 C 0.74475 0.63595 0.99021 0.0
C337 C 0.86414 0.62178 0.01503 0.0
O338 O 0.86872 0.64489 0.03262 0.0
O339 O 0.82054 0.66713 0.96078 0.0
O340 O 0.78844 0.69777 0.96099 0.0
O341 O 0.81317 0.6594 0.04565 0.0
O342 O 0.80112 0.69138 0.02237 0.0
C343 C 0.8068 0.68397 0.94943 0.0
C344 C 0.80191 0.6821 0.04455 0.0
O345 O 0.84306 0.61895 0.99645 0.0
Mg346 Mg 0.9589 0.0435 0.26607 0.0
O347 O 0.92859 1.00026 0.25325 0.0
O348 O 0.95866 0.9688 0.24299 0.0
Mg349 Mg 0.00745 0.99081 0.24891 0.0
C350 C 0.93261 0.97506 0.24525 0.0
C351 C 0.9234 0.08603 0.29755 0.0
O352 O 0.95082 0.09629 0.30835 0.0
O353 O 0.97386 0.03144 0.30626 0.0
O354 O 1.00597 1.00264 0.29365 0.0
O355 O 0.95874 0.05148 0.22415 0.0
O356 O 0.9919 0.03008 0.24315 0.0
C357 C 0.99329 0.01601 0.31157 0.0
C358 C 0.98152 0.03857 0.22238 0.0
O359 O 0.91903 0.06347 0.28071 0.0
Mg360 Mg 0.33128 0.17694 0.50524 0.0
O361 O 0.2863 0.14592 0.5022 0.0
O362 O 0.25017 0.17237 0.50482 0.0
Mg363 Mg 0.2706 0.21886 0.5082 0.0
C364 C 0.25867 0.14835 0.50274 0.0
C365 C 0.361 0.12503 0.51283 0.0
O366 O 0.3456 0.12773 0.53326 0.0
O367 O 0.32217 0.18375 0.46211 0.0
O368 O 0.28612 0.21018 0.4668 0.0
O369 O 0.33449 0.18218 0.54898 0.0
O370 O 0.31257 0.20953 0.5259 0.0
C371 C 0.30365 0.19798 0.45258 0.0
C372 C 0.31937 0.20258 0.54849 0.0
O373 O 0.35787 0.14074 0.49539 0.0
Mg374 Mg 0.45244 0.54587 0.75887 0.0
O375 O 0.42184 0.50205 0.75016 0.0
O376 O 0.45221 0.4704 0.74109 0.0
Mg377 Mg 0.50011 0.49257 0.74112 0.0
C378 C 0.42635 0.4766 0.7445 0.0
C379 C 0.40944 0.58929 0.76706 0.0
O380 O 0.42586 0.59794 0.74905 0.0
O381 O 0.47068 0.5358 0.79923 0.0
O382 O 0.50009 0.50479 0.78561 0.0
O383 O 0.44751 0.55027 0.71591 0.0
O384 O 0.48289 0.53073 0.73383 0.0
C385 C 0.48918 0.51928 0.80402 0.0
C386 C 0.47021 0.53739 0.71297 0.0
O387 O 0.41455 0.56729 0.77626 0.0
Mg388 Mg 0.73783 0.33404 0.51871 0.0
O389 O 0.77974 0.36294 0.50974 0.0
O390 O 0.8168 0.33743 0.50971 0.0
Mg391 Mg 0.79967 0.29378 0.51991 0.0
C392 C 0.80692 0.36019 0.5069 0.0
C393 C 0.68672 0.362 0.52744 0.0
O394 O 0.687 0.34089 0.5407 0.0
O395 O 0.73325 0.30976 0.47618 0.0
O396 O 0.76947 0.2837 0.48072 0.0
O397 O 0.75047 0.34869 0.56164 0.0
O398 O 0.76435 0.31115 0.53965 0.0
C399 C 0.74773 0.29045 0.46709 0.0
C400 C 0.76551 0.3282 0.56143 0.0
O401 O 0.70597 0.36521 0.51097 0.0
Mg402 Mg 0.65099 0.02752 0.76101 0.0
O403 O 0.62451 0.01982 0.71956 0.0
O404 O 0.65862 0.01602 0.691 0.0
Mg405 Mg 0.70563 0.02161 0.71287 0.0
C406 C 0.63157 0.01637 0.69594 0.0
C407 C 0.58805 0.03457 0.77834 0.0
O408 O 0.59165 0.0533 0.7624 0.0
O409 O 0.65875 0.9816 0.75792 0.0
O410 O 0.69539 0.98131 0.73152 0.0
O411 O 0.65889 0.07427 0.76087 0.0
O412 O 0.68956 0.04586 0.74655 0.0
C413 C 0.67847 0.96934 0.74669 0.0
C414 C 0.68328 0.07095 0.75035 0.0
O415 O 0.60795 0.01913 0.78101 0.0
Mg416 Mg 0.06381 0.2414 0.91117 0.0
O417 O 0.01799 0.22446 0.88766 0.0
O418 O 0.98373 0.21915 0.91602 0.0
Mg419 Mg 0.00762 0.23304 0.95771 0.0
C420 C 0.99097 0.21761 0.89251 0.0
C421 C 0.1036 0.27071 0.87217 0.0
O422 O 0.11191 0.29002 0.8932 0.0
O423 O 0.05065 0.28502 0.91933 0.0
O424 O 0.01776 0.27845 0.94882 0.0
O425 O 0.07196 0.19787 0.91527 0.0
O426 O 0.05012 0.22428 0.94375 0.0
C427 C 0.03275 0.29427 0.93505 0.0
C428 C 0.05928 0.20077 0.93688 0.0
O429 O 0.08363 0.24964 0.87336 0.0
Mg430 Mg 0.56959 0.72706 0.38861 0.0
O431 O 0.52128 0.7113 0.36986 0.0
O432 O 0.49287 0.70895 0.40322 0.0
Mg433 Mg 0.52254 0.72133 0.44263 0.0
C434 C 0.49578 0.70629 0.37858 0.0
C435 C 0.59702 0.71956 0.3349 0.0
O436 O 0.59571 0.69391 0.34052 0.0
O437 O 0.55752 0.77086 0.39888 0.0
O438 O 0.53289 0.76708 0.43448 0.0
O439 O 0.57816 0.68299 0.39142 0.0
O440 O 0.56039 0.7101 0.42226 0.0
C441 C 0.54452 0.7816 0.41799 0.0
C442 C 0.56845 0.68632 0.41439 0.0
O443 O 0.58576 0.7375 0.3498 0.0
Mg444 Mg 0.98189 0.74894 0.62475 0.0
O445 O 0.02518 0.7438 0.64914 0.0
O446 O 0.05801 0.73253 0.62097 0.0
Mg447 Mg 0.03675 0.73104 0.57887 0.0
C448 C 0.05081 0.73761 0.64441 0.0
C449 C 0.93501 0.77067 0.65936 0.0
O450 O 0.92211 0.76827 0.63523 0.0
O451 O 1.00472 0.79267 0.61684 0.0
O452 O 0.03516 0.7785 0.58728 0.0
O453 O 0.96373 0.7024 0.6192 0.0
O454 O 0.9923 0.72205 0.59219 0.0
C455 C 0.02392 0.79787 0.60055 0.0
C456 C 0.97771 0.69952 0.59837 0.0
O457 O 0.96182 0.76609 0.6625 0.0
Mg458 Mg 0.48435 0.23973 0.12046 0.0
O459 O 0.52795 0.23439 0.14458 0.0
O460 O 0.55749 0.21743 0.1157 0.0
Mg461 Mg 0.53512 0.21441 0.07395 0.0
C462 C 0.55217 0.22539 0.13929 0.0
C463 C 0.44075 0.26708 0.15469 0.0
O464 O 0.42714 0.26337 0.13067 0.0
O465 O 0.50806 0.28094 0.10841 0.0
O466 O 0.53727 0.26271 0.07979 0.0
O467 O 0.46428 0.1944 0.11938 0.0
O468 O 0.49116 0.2092 0.08896 0.0
C469 C 0.52747 0.28382 0.09189 0.0
C470 C 0.47624 0.18844 0.09778 0.0
O471 O 0.46714 0.26143 0.15772 0.0
H472 H 0.25743 0.77026 0.85864 0.0
H473 H 0.27753 0.6904 0.87639 0.0
H474 H 0.27986 0.70811 0.9233 0.0
H475 H 0.27746 0.74659 0.95943 0.0
H476 H 0.25233 0.82438 0.94172 0.0
H477 H 0.24936 0.80652 0.89443 0.0
C478 C 0.26151 0.75622 0.87251 0.0
C479 C 0.26749 0.72888 0.86352 0.0
C480 C 0.26173 0.76613 0.89955 0.0
C481 C 0.27356 0.7117 0.88238 0.0
C482 C 0.27461 0.72172 0.90933 0.0
C483 C 0.27107 0.75953 0.94518 0.0
C484 C 0.26534 0.78685 0.95399 0.0
C485 C 0.26901 0.74897 0.91812 0.0
C486 C 0.25672 0.80327 0.93539 0.0
C487 C 0.25523 0.79311 0.90839 0.0
H488 H 0.01817 0.52544 0.40339 0.0
H489 H 0.95316 0.5034 0.33488 0.0
H490 H 0.99201 0.49119 0.3074 0.0
H491 H 0.04537 0.49127 0.30201 0.0
H492 H 0.11036 0.51346 0.37062 0.0
H493 H 0.07071 0.52061 0.39871 0.0
C494 C 0.01238 0.51734 0.38257 0.0
C495 C 0.98284 0.51571 0.3712 0.0
C496 C 0.03495 0.51061 0.36675 0.0
C497 C 0.97582 0.50533 0.3441 0.0
C498 C 0.99803 0.49832 0.32833 0.0
C499 C 0.05083 0.49729 0.32314 0.0
C500 C 0.08093 0.50214 0.33404 0.0
C501 C 0.02785 0.50164 0.33929 0.0
C502 C 0.08747 0.50978 0.36155 0.0
C503 C 0.06477 0.51394 0.37771 0.0
H504 H 0.85951 0.7342 0.85366 0.0
H505 H 0.76593 0.73658 0.83427 0.0
H506 H 0.75282 0.71065 0.86985 0.0
H507 H 0.76834 0.69335 0.91021 0.0
H508 H 0.86133 0.68924 0.92982 0.0
H509 H 0.87424 0.70927 0.8904 0.0
C510 C 0.83622 0.72829 0.85679 0.0
C511 C 0.81377 0.73778 0.84161 0.0
C512 C 0.82875 0.71339 0.87759 0.0
C513 C 0.78367 0.72995 0.84593 0.0
C514 C 0.77613 0.71517 0.86633 0.0
C515 C 0.79136 0.69629 0.90554 0.0
C516 C 0.81387 0.69011 0.92304 0.0
C517 C 0.79855 0.70777 0.88291 0.0
C518 C 0.84356 0.69376 0.91663 0.0
C519 C 0.85097 0.70543 0.89417 0.0
H520 H 0.08231 0.03276 0.41335 0.0
H521 H 0.01307 0.9734 0.43739 0.0
H522 H 0.98194 0.97262 0.39611 0.0
H523 H 0.97517 0.98827 0.35209 0.0
H524 H 0.04437 0.0497 0.33109 0.0
H525 H 0.07412 0.05121 0.37291 0.0
C526 C 0.06007 0.02024 0.41025 0.0
C527 C 0.05013 0.00346 0.42897 0.0
C528 C 0.04206 0.02049 0.38694 0.0
C529 C 0.02161 0.98644 0.42346 0.0
C530 C 1.00364 0.98614 0.39987 0.0
C531 C 0.99646 1.00236 0.35708 0.0
C532 C 0.00755 0.01913 0.33878 0.0
C533 C 0.01368 0.00304 0.38135 0.0
C534 C 0.03536 0.03692 0.34508 0.0
C535 C 0.05245 0.03763 0.36888 0.0
H536 H 0.29669 0.25275 0.66311 0.0
H537 H 0.27183 0.31923 0.62333 0.0
H538 H 0.28037 0.293 0.58101 0.0
H539 H 0.29671 0.25174 0.55572 0.0
H540 H 0.32202 0.18605 0.59655 0.0
H541 H 0.31082 0.21119 0.63803 0.0
C542 C 0.29253 0.26131 0.64514 0.0
C543 C 0.28336 0.2878 0.64634 0.0
C544 C 0.29758 0.24624 0.62108 0.0
C545 C 0.27897 0.29892 0.62293 0.0
C546 C 0.28377 0.28389 0.59876 0.0
C547 C 0.29944 0.24281 0.57366 0.0
C548 C 0.31022 0.21707 0.57304 0.0
C549 C 0.29333 0.25761 0.59763 0.0
C550 C 0.31387 0.20586 0.59647 0.0
C551 C 0.30749 0.22023 0.62023 0.0
H552 H 0.51207 0.53183 0.59861 0.0
H553 H 0.57397 0.48401 0.63161 0.0
H554 H 0.54977 0.48687 0.6723 0.0
H555 H 0.51412 0.50671 0.69993 0.0
H556 H 0.45178 0.55419 0.66696 0.0
H557 H 0.47321 0.54792 0.625 0.0
C558 C 0.52003 0.52178 0.61462 0.0
C559 C 0.5449 0.50783 0.61207 0.0
C560 C 0.50617 0.52375 0.63811 0.0
C561 C 0.55473 0.49464 0.6329 0.0
C562 C 0.54107 0.49651 0.6563 0.0
C563 C 0.50485 0.51535 0.68353 0.0
C564 C 0.48139 0.53103 0.68679 0.0
C565 C 0.51721 0.51155 0.65935 0.0
C566 C 0.46984 0.54207 0.66514 0.0
C567 C 0.48212 0.53854 0.64109 0.0
H568 H 0.83513 0.33465 0.67274 0.0
H569 H 0.79103 0.24763 0.66096 0.0
H570 H 0.77299 0.25105 0.61606 0.0
H571 H 0.76564 0.27989 0.5813 0.0
H572 H 0.80286 0.3685 0.59586 0.0
H573 H 0.82721 0.36351 0.63864 0.0
C574 C 0.82125 0.31644 0.66062 0.0
C575 C 0.81448 0.29096 0.67062 0.0
C576 C 0.80956 0.31891 0.63521 0.0
C577 C 0.79719 0.26745 0.65397 0.0
C578 C 0.78653 0.26943 0.62824 0.0
C579 C 0.77952 0.29792 0.59375 0.0
C580 C 0.78283 0.32444 0.58557 0.0
C581 C 0.79213 0.29517 0.61882 0.0
C582 C 0.80022 0.34789 0.6019 0.0
C583 C 0.81402 0.34504 0.62631 0.0
H584 H 0.52019 0.01237 0.6115 0.0
H585 H 0.59212 0.02558 0.56256 0.0
H586 H 0.6287 0.0253 0.59954 0.0
H587 H 0.6407 0.021 0.64536 0.0
H588 H 0.57015 0.00948 0.6959 0.0
H589 H 0.53277 0.00937 0.65883 0.0
C590 C 0.54389 0.01542 0.60907 0.0
C591 C 0.55329 0.01857 0.58411 0.0
C592 C 0.56511 0.01534 0.63065 0.0
C593 C 0.58413 0.0225 0.58132 0.0
C594 C 0.60515 0.02245 0.60251 0.0
C595 C 0.61715 0.01825 0.64837 0.0
C596 C 0.60836 0.015 0.67344 0.0
C597 C 0.59592 0.01864 0.62716 0.0
C598 C 0.57765 0.01189 0.67684 0.0
C599 C 0.55624 0.0119 0.65563 0.0
H600 H 0.87269 0.19053 0.81419 0.0
H601 H 0.93258 0.22888 0.76394 0.0
H602 H 0.97486 0.23248 0.79749 0.0
H603 H 0.99405 0.22762 0.84218 0.0
H604 H 0.93351 0.19114 0.8931 0.0
H605 H 0.89234 0.18345 0.85801 0.0
C606 C 0.89509 0.19921 0.81041 0.0
C607 C 0.89955 0.20942 0.78665 0.0
C608 C 0.91914 0.20161 0.82993 0.0
C609 C 0.9286 0.22108 0.78219 0.0
C610 C 0.95275 0.22308 0.80132 0.0
C611 C 0.97195 0.2176 0.8455 0.0
C612 C 0.9669 0.21005 0.87029 0.0
C613 C 0.9482 0.21384 0.82544 0.0
C614 C 0.93803 0.1973 0.87427 0.0
C615 C 0.91444 0.19292 0.85423 0.0
H616 H 0.52904 0.90757 0.41459 0.0
H617 H 0.55388 0.91401 0.49826 0.0
H618 H 0.55628 0.86389 0.49246 0.0
H619 H 0.55191 0.81809 0.46371 0.0
H620 H 0.53364 0.81287 0.37969 0.0
H621 H 0.52907 0.86296 0.3855 0.0
C622 C 0.53559 0.89835 0.4316 0.0
C623 C 0.54087 0.9149 0.45691 0.0
C624 C 0.53828 0.86966 0.42804 0.0
C625 C 0.54874 0.90196 0.47861 0.0
C626 C 0.55048 0.87323 0.47531 0.0
C627 C 0.54693 0.828 0.44671 0.0
C628 C 0.54284 0.81194 0.42135 0.0
C629 C 0.54522 0.85688 0.45015 0.0
C630 C 0.53689 0.82495 0.39939 0.0
C631 C 0.5342 0.85351 0.40273 0.0
H632 H 0.17458 0.24364 0.77461 0.0
H633 H 0.22827 0.3235 0.80925 0.0
H634 H 0.1927 0.33036 0.84205 0.0
H635 H 0.14925 0.31088 0.8635 0.0
H636 H 0.09591 0.23073 0.8281 0.0
H637 H 0.1282 0.22691 0.7928 0.0
C638 C 0.17818 0.26271 0.78916 0.0
C639 C 0.204 0.28291 0.78985 0.0
C640 C 0.15784 0.26633 0.80788 0.0
C641 C 0.20845 0.30771 0.80847 0.0
C642 C 0.18824 0.31152 0.82726 0.0
C643 C 0.14444 0.29277 0.84786 0.0
C644 C 0.12045 0.27091 0.84875 0.0
C645 C 0.16328 0.29057 0.82758 0.0
C646 C 0.11435 0.24776 0.82813 0.0
C647 C 0.13286 0.24548 0.80792 0.0
H648 H 0.59845 0.5941 0.48198 0.0
H649 H 0.57314 0.65395 0.54285 0.0
H650 H 0.55697 0.68147 0.50995 0.0
H651 H 0.55565 0.69138 0.46501 0.0
H652 H 0.58387 0.63366 0.40388 0.0
H653 H 0.59297 0.60222 0.43559 0.0
C654 C 0.58881 0.61286 0.48782 0.0
C655 C 0.58698 0.62216 0.51467 0.0
C656 C 0.58038 0.62904 0.46882 0.0
C657 C 0.57478 0.64659 0.52224 0.0
C658 C 0.56563 0.66231 0.50347 0.0
C659 C 0.56321 0.67167 0.45841 0.0
C660 C 0.56919 0.66498 0.43211 0.0
C661 C 0.56915 0.65418 0.47684 0.0
C662 C 0.57915 0.63937 0.42403 0.0
C663 C 0.58448 0.62143 0.44219 0.0
H664 H 0.83907 0.79106 0.73904 0.0
H665 H 0.89966 0.75687 0.7894 0.0
H666 H 0.93324 0.75308 0.75474 0.0
H667 H 0.94529 0.75919 0.70964 0.0
H668 H 0.88388 0.79312 0.65976 0.0
H669 H 0.85135 0.79798 0.69488 0.0
C670 C 0.85977 0.78304 0.74262 0.0
C671 C 0.86671 0.77432 0.76695 0.0
C672 C 0.87907 0.78109 0.72267 0.0
C673 C 0.89343 0.76343 0.77084 0.0
C674 C 0.91281 0.76148 0.75106 0.0
C675 C 0.92498 0.76796 0.70659 0.0
C676 C 0.91717 0.77587 0.68203 0.0
C677 C 0.9059 0.77025 0.72685 0.0
C678 C 0.89052 0.78685 0.67838 0.0
C679 C 0.87179 0.78958 0.69846 0.0
H680 H 0.1015 0.90222 0.56915 0.0
H681 H 0.02688 0.89162 0.50947 0.0
H682 H 0.99807 0.85732 0.53221 0.0
H683 H 0.99774 0.82463 0.56493 0.0
H684 H 0.07344 0.83418 0.62324 0.0
H685 H 0.09811 0.87482 0.60558 0.0
C686 C 0.07866 0.89284 0.56147 0.0
C687 C 0.06642 0.89916 0.53751 0.0
C688 C 0.06254 0.87282 0.5744 0.0
C689 C 0.03675 0.88712 0.52788 0.0
C690 C 0.02039 0.86734 0.54079 0.0
C691 C 0.01908 0.83642 0.57436 0.0
C692 C 0.03362 0.82686 0.59563 0.0
C693 C 0.03348 0.85924 0.56351 0.0
C694 C 0.06165 0.84161 0.60724 0.0
C695 C 0.07587 0.86461 0.59692 0.0
H696 H 0.14688 0.76528 0.74385 0.0
H697 H 0.18911 0.70602 0.69554 0.0
H698 H 0.14567 0.69662 0.66211 0.0
H699 H 0.09802 0.70912 0.64487 0.0
H700 H 0.05527 0.76747 0.69406 0.0
H701 H 0.09638 0.77322 0.72902 0.0
C702 C 0.14618 0.74987 0.72622 0.0
C703 C 0.17103 0.73637 0.722 0.0
C704 C 0.12123 0.74469 0.70717 0.0
C705 C 0.17007 0.71646 0.69919 0.0
C706 C 0.14538 0.7113 0.68003 0.0
C707 C 0.09756 0.72286 0.66336 0.0
C708 C 0.07378 0.73813 0.66671 0.0
C709 C 0.12119 0.72589 0.6835 0.0
C710 C 0.07328 0.7555 0.69093 0.0
C711 C 0.09686 0.75889 0.71091 0.0
H712 H 0.98036 0.59357 0.51208 0.0
H713 H 0.89283 0.56915 0.53675 0.0
H714 H 0.90142 0.61045 0.57101 0.0
H715 H 0.93225 0.65526 0.59236 0.0
H716 H 0.01794 0.68174 0.56558 0.0
H717 H 0.01151 0.63825 0.53383 0.0
C718 C 0.96309 0.59731 0.52485 0.0
C719 C 0.93609 0.57795 0.52179 0.0
C720 C 0.96778 0.62165 0.54419 0.0
C721 C 0.91415 0.58316 0.53885 0.0
C722 C 0.9189 0.60699 0.5584 0.0
C723 C 0.94971 0.6513 0.57984 0.0
C724 C 0.97551 0.67179 0.58133 0.0
C725 C 0.94549 0.62652 0.5611 0.0
C726 C 0.99775 0.66652 0.56472 0.0
C727 C 0.99408 0.64158 0.54653 0.0
H728 H 0.81255 0.88619 0.2282 0.0
H729 H 0.86566 0.83991 0.17777 0.0
H730 H 0.90728 0.87932 0.18758 0.0
H731 H 0.92948 0.92589 0.21199 0.0
H732 H 0.87664 0.97321 0.2618 0.0
H733 H 0.83406 0.93445 0.25082 0.0
C734 C 0.8332 0.8849 0.21927 0.0
C735 C 0.83599 0.86022 0.20222 0.0
C736 C 0.85715 0.90769 0.22504 0.0
C737 C 0.86278 0.85882 0.19064 0.0
C738 C 0.88669 0.88125 0.19642 0.0
C739 C 0.90866 0.92775 0.22048 0.0
C740 C 0.90634 0.95225 0.23793 0.0
C741 C 0.88426 0.90561 0.21383 0.0
C742 C 0.87902 0.95453 0.24836 0.0
C743 C 0.85469 0.93237 0.24212 0.0
H744 H 0.83699 0.17265 0.33019 0.0
H745 H 0.78214 0.1233 0.26201 0.0
H746 H 0.81932 0.0921 0.25615 0.0
H747 H 0.86825 0.07957 0.26962 0.0
H748 H 0.92335 0.12968 0.33735 0.0
H749 H 0.88506 0.15934 0.34441 0.0
C750 C 0.83294 0.15486 0.31424 0.0
C751 C 0.80671 0.1504 0.29658 0.0
C752 C 0.8545 0.13702 0.31092 0.0
C753 C 0.80223 0.12748 0.27575 0.0
C754 C 0.82343 0.10951 0.27245 0.0
C755 C 0.87175 0.09678 0.2861 0.0
C756 C 0.89873 0.1023 0.30293 0.0
C757 C 0.84978 0.11416 0.28981 0.0
C758 C 0.9029 0.1249 0.32404 0.0
C759 C 0.881 0.14196 0.32808 0.0
H760 H 0.38286 0.99005 0.01487 0.0
H761 H 0.44624 0.94207 0.98041 0.0
H762 H 0.41943 0.89896 0.99271 0.0
H763 H 0.37629 0.87453 0.0108 0.0
H764 H 0.31078 0.92195 0.04249 0.0
H765 H 0.34003 0.96561 0.03381 0.0
C766 C 0.39097 0.97018 0.01047 0.0
C767 C 0.41653 0.96913 0.99697 0.0
C768 C 0.37491 0.94538 0.01689 0.0
C769 C 0.42662 0.94327 0.99088 0.0
C770 C 0.41127 0.91867 0.99784 0.0
C771 C 0.36854 0.89444 0.01607 0.0
C772 C 0.34135 0.89491 0.02729 0.0
C773 C 0.38512 0.91939 0.01048 0.0
C774 C 0.33153 0.92092 0.03372 0.0
C775 C 0.34827 0.94593 0.02879 0.0
H776 H 0.25802 0.36731 0.26603 0.0
H777 H 0.23307 0.3838 0.34494 0.0
H778 H 0.19245 0.40684 0.32938 0.0
H779 H 0.17054 0.42997 0.29507 0.0
H780 H 0.19749 0.41596 0.21661 0.0
H781 H 0.2299 0.38372 0.22996 0.0
C782 C 0.24307 0.37518 0.27961 0.0
C783 C 0.2488 0.37426 0.30663 0.0
C784 C 0.22019 0.38914 0.27061 0.0
C785 C 0.22934 0.38465 0.32408 0.0
C786 C 0.20613 0.39787 0.3152 0.0
C787 C 0.18261 0.41904 0.28063 0.0
C788 C 0.18182 0.42567 0.25496 0.0
C789 C 0.20222 0.40139 0.28873 0.0
C790 C 0.19785 0.41143 0.23657 0.0
C791 C 0.21663 0.39314 0.24425 0.0
H792 H 0.17378 0.02938 0.4873 0.0
H793 H 0.10715 0.08332 0.49756 0.0
H794 H 0.14631 0.12505 0.50489 0.0
H795 H 0.19891 0.14619 0.5061 0.0
H796 H 0.26596 0.09264 0.49518 0.0
H797 H 0.22719 0.05079 0.49056 0.0
C798 C 0.16793 0.05027 0.49163 0.0
C799 C 0.13758 0.05326 0.49192 0.0
C800 C 0.19057 0.07422 0.49544 0.0
C801 C 0.1303 0.08048 0.49711 0.0
C802 C 0.15267 0.10433 0.50127 0.0
C803 C 0.2052 0.12541 0.50277 0.0
C804 C 0.23543 0.12271 0.5008 0.0
C805 C 0.18281 0.10146 0.50004 0.0
C806 C 0.24294 0.09547 0.49667 0.0
C807 C 0.22075 0.07149 0.49404 0.0
H808 H 0.76598 0.18686 0.74799 0.0
H809 H 0.82908 0.13086 0.72953 0.0
H810 H 0.7896 0.08998 0.7271 0.0
H811 H 0.73862 0.07037 0.73438 0.0
H812 H 0.67575 0.1262 0.7545 0.0
H813 H 0.71356 0.16698 0.75161 0.0
C814 C 0.77091 0.16571 0.74288 0.0
C815 C 0.80042 0.16185 0.73908 0.0
C816 C 0.74821 0.14231 0.74195 0.0
C817 C 0.8066 0.13433 0.73282 0.0
C818 C 0.78404 0.11097 0.7314 0.0
C819 C 0.73295 0.0914 0.73768 0.0
C820 C 0.70442 0.09522 0.74478 0.0
C821 C 0.75496 0.11473 0.73656 0.0
C822 C 0.69756 0.12266 0.74909 0.0
C823 C 0.71921 0.146 0.74753 0.0
H824 H 0.47251 0.06292 0.49992 0.0
H825 H 0.44938 0.03952 0.5742 0.0
H826 H 0.4072 0.06521 0.5726 0.0
H827 H 0.3767 0.09395 0.54997 0.0
H828 H 0.39928 0.1163 0.47517 0.0
H829 H 0.44127 0.0904 0.47672 0.0
C830 C 0.45806 0.06306 0.51565 0.0
C831 C 0.46416 0.04907 0.53711 0.0
C832 C 0.43352 0.0774 0.51436 0.0
C833 C 0.44554 0.05028 0.55759 0.0
C834 C 0.42122 0.06476 0.55657 0.0
C835 C 0.39061 0.09299 0.53385 0.0
C836 C 0.38472 0.10709 0.51244 0.0
C837 C 0.41493 0.0783 0.53499 0.0
C838 C 0.40315 0.10563 0.49184 0.0
C839 C 0.42729 0.09093 0.49278 0.0
H840 H 0.61114 0.44746 0.58264 0.0
H841 H 0.61264 0.47766 0.50801 0.0
H842 H 0.64172 0.44163 0.49195 0.0
H843 H 0.6682 0.40185 0.49958 0.0
H844 H 0.66221 0.37025 0.5733 0.0
H845 H 0.63296 0.40594 0.58871 0.0
C846 C 0.61705 0.44591 0.5626 0.0
C847 C 0.6097 0.46565 0.54679 0.0
C848 C 0.63319 0.42473 0.5532 0.0
C849 C 0.61841 0.46329 0.52102 0.0
C850 C 0.63496 0.44251 0.51168 0.0
C851 C 0.66033 0.40275 0.51892 0.0
C852 C 0.66757 0.38337 0.53521 0.0
C853 C 0.64283 0.42326 0.52771 0.0
C854 C 0.65697 0.38473 0.5602 0.0
C855 C 0.64024 0.40525 0.56916 0.0
H856 H 0.74396 0.25168 0.3453 0.0
H857 H 0.7516 0.17224 0.37147 0.0
H858 H 0.74772 0.19338 0.41657 0.0
H859 H 0.74648 0.23532 0.44913 0.0
H860 H 0.73529 0.3138 0.42317 0.0
H861 H 0.73498 0.29172 0.37717 0.0
C862 C 0.74399 0.23863 0.36062 0.0
C863 C 0.74879 0.2104 0.35477 0.0
C864 C 0.741 0.25073 0.38659 0.0
C865 C 0.749 0.19421 0.37527 0.0
C866 C 0.74649 0.20621 0.40113 0.0
C867 C 0.74339 0.24742 0.43332 0.0
C868 C 0.74112 0.27615 0.43943 0.0
C869 C 0.74322 0.2346 0.40709 0.0
C870 C 0.73689 0.2916 0.41888 0.0
C871 C 0.737 0.27903 0.39264 0.0
H872 H 0.47304 0.04517 0.83756 0.0
H873 H 0.51477 0.99466 0.88701 0.0
H874 H 0.55651 0.99477 0.85988 0.0
H875 H 0.58055 0.00827 0.82131 0.0
H876 H 0.53818 0.05859 0.77198 0.0
H877 H 0.497 0.05886 0.79948 0.0
C878 C 0.49118 0.03405 0.84236 0.0
C879 C 0.49064 0.01983 0.86427 0.0
C880 C 0.51487 0.03388 0.82649 0.0
C881 C 0.51471 0.00604 0.87047 0.0
C882 C 0.53846 0.00586 0.85479 0.0
C883 C 0.5622 0.01913 0.81647 0.0
C884 C 0.56243 0.03327 0.79449 0.0
C885 C 0.53865 0.01951 0.8326 0.0
C886 C 0.53861 0.0475 0.78872 0.0
C887 C 0.51505 0.04774 0.80448 0.0
H888 H 0.28543 0.24316 0.34561 0.0
H889 H 0.38026 0.24203 0.34789 0.0
H890 H 0.37827 0.21737 0.38601 0.0
H891 H 0.35065 0.20198 0.42239 0.0
H892 H 0.25638 0.2061 0.42082 0.0
H893 H 0.25706 0.22351 0.37889 0.0
C894 C 0.30562 0.23725 0.35428 0.0
C895 C 0.333 0.24476 0.34407 0.0
C896 C 0.30445 0.22377 0.37657 0.0
C897 C 0.35885 0.23645 0.35524 0.0
C898 C 0.35777 0.22255 0.37722 0.0
C899 C 0.33015 0.20604 0.41251 0.0
C900 C 0.30354 0.20293 0.42485 0.0
C901 C 0.33086 0.21689 0.38859 0.0
C902 C 0.2772 0.20853 0.41189 0.0
C903 C 0.27757 0.21857 0.38791 0.0
H904 H 0.5434 0.52641 0.92233 0.0
H905 H 0.55406 0.44142 0.89116 0.0
H906 H 0.52796 0.44504 0.84912 0.0
H907 H 0.50571 0.47312 0.82001 0.0
H908 H 0.49452 0.55819 0.84957 0.0
H909 H 0.51696 0.55373 0.89342 0.0
C910 C 0.53975 0.50865 0.90637 0.0
C911 C 0.55063 0.48362 0.91005 0.0
C912 C 0.5248 0.51092 0.8819 0.0
C913 C 0.54555 0.46074 0.88918 0.0
C914 C 0.53083 0.46286 0.86497 0.0
C915 C 0.50797 0.49069 0.83608 0.0
C916 C 0.49882 0.51609 0.83145 0.0
C917 C 0.52087 0.48796 0.86098 0.0
C918 C 0.5014 0.53842 0.85261 0.0
C919 C 0.5144 0.5359 0.87762 0.0
H920 H 0.78516 0.73657 0.15906 0.0
H921 H 0.77498 0.8078 0.12003 0.0
H922 H 0.77661 0.7789 0.07732 0.0
H923 H 0.7862 0.73465 0.05166 0.0
H924 H 0.7964 0.66396 0.09154 0.0
H925 H 0.78861 0.69123 0.13315 0.0
C926 C 0.78237 0.74567 0.14122 0.0
C927 C 0.78015 0.77443 0.14286 0.0
C928 C 0.78352 0.72902 0.1168 0.0
C929 C 0.77717 0.78583 0.11941 0.0
C930 C 0.77805 0.7693 0.09496 0.0
C931 C 0.78615 0.72507 0.06937 0.0
C932 C 0.79223 0.69741 0.0685 0.0
C933 C 0.78207 0.74106 0.09348 0.0
C934 C 0.79206 0.68529 0.09164 0.0
C935 C 0.78767 0.70089 0.11551 0.0
H936 H 0.06377 0.05393 0.13223 0.0
H937 H 0.03516 0.9636 0.11204 0.0
H938 H 1.0059 0.96453 0.14969 0.0
H939 H 0.98797 0.99139 0.18867 0.0
H940 H 0.01112 0.08211 0.2035 0.0
H941 H 0.04189 0.08072 0.16675 0.0
C942 C 0.05049 0.03435 0.13514 0.0
C943 C 0.05193 0.00873 0.1187 0.0
C944 C 0.03241 0.03517 0.15594 0.0
C945 C 0.03527 0.98369 0.1243 0.0
C946 C 0.01815 0.9842 0.14578 0.0
C947 C 0.99956 0.01076 0.18353 0.0
C948 C 0.99744 0.03685 0.1986 0.0
C949 C 0.01654 0.00984 0.16177 0.0
C950 C 0.01238 0.06188 0.19195 0.0
C951 C 0.03006 0.06106 0.17106 0.0
H952 H 0.30477 0.76125 0.1738 0.0
H953 H 0.31353 0.84625 0.21619 0.0
H954 H 0.3086 0.86418 0.17472 0.0
H955 H 0.29627 0.8551 0.12663 0.0
H956 H 0.29146 0.77091 0.08415 0.0
H957 H 0.30169 0.75351 0.12554 0.0
C958 C 0.30651 0.7838 0.17417 0.0
C959 C 0.30862 0.80216 0.19835 0.0
C960 C 0.30439 0.79418 0.15017 0.0
C961 C 0.31071 0.83135 0.19802 0.0
C962 C 0.30817 0.84174 0.17426 0.0
C963 C 0.2981 0.83306 0.12644 0.0
C964 C 0.29272 0.81422 0.10251 0.0
C965 C 0.30404 0.82324 0.15026 0.0
C966 C 0.29552 0.78581 0.10238 0.0
C967 C 0.30111 0.77581 0.12606 0.0
H968 H 0.02946 0.53359 0.12084 0.0
H969 H 0.05156 0.45908 0.07495 0.0
H970 H 0.081 0.45007 0.11324 0.0
H971 H 0.10456 0.4657 0.15881 0.0
H972 H 0.07822 0.53662 0.20622 0.0
H973 H 0.04557 0.54402 0.16857 0.0
C974 C 0.03999 0.51495 0.11918 0.0
C975 C 0.039 0.49777 0.09442 0.0
C976 C 0.05619 0.50914 0.14168 0.0
C977 C 0.05292 0.47364 0.09319 0.0
C978 C 0.06959 0.46818 0.11524 0.0
C979 C 0.0911 0.48235 0.161 0.0
C980 C 0.09382 0.50066 0.18514 0.0
C981 C 0.0721 0.48622 0.13939 0.0
C982 C 0.07626 0.52211 0.18785 0.0
C983 C 0.05781 0.5265 0.16625 0.0
H984 H 0.36656 0.67931 0.31706 0.0
H985 H 0.41302 0.72294 0.26141 0.0
H986 H 0.46072 0.72619 0.28835 0.0
H987 H 0.48856 0.7193 0.32919 0.0
H988 H 0.44123 0.67813 0.38599 0.0
H989 H 0.39459 0.67083 0.35696 0.0
C990 C 0.38722 0.68908 0.31063 0.0
C991 C 0.38637 0.70078 0.28727 0.0
C992 C 0.41436 0.69138 0.32647 0.0
C993 C 0.41318 0.71389 0.27939 0.0
C994 C 0.44041 0.71571 0.29476 0.0
C995 C 0.46813 0.70834 0.33502 0.0
C996 C 0.46837 0.69927 0.35972 0.0
C997 C 0.4412 0.70491 0.31855 0.0
C998 C 0.44162 0.68543 0.36714 0.0
C999 C 0.41493 0.68127 0.35057 0.0
H1000 H 0.00784 0.41785 0.96756 0.0
H1001 H 0.09396 0.43819 0.93909 0.0
H1002 H 0.09478 0.38794 0.92531 0.0
H1003 H 0.0724 0.33811 0.92404 0.0
H1004 H 0.98737 0.31845 0.95474 0.0
H1005 H 0.98489 0.36856 0.96508 0.0
C1006 C 0.02692 0.41132 0.95852 0.0
C1007 C 0.05095 0.43173 0.95466 0.0
C1008 C 0.02747 0.38249 0.95108 0.0
C1009 C 0.07511 0.42291 0.94223 0.0
C1010 C 0.07566 0.39418 0.93446 0.0
C1011 C 0.05317 0.3448 0.93269 0.0
C1012 C 0.03019 0.32455 0.93873 0.0
C1013 C 0.05213 0.37376 0.9391 0.0
C1014 C 1.00549 0.33358 0.95008 0.0
C1015 C 1.00404 0.36224 0.95602 0.0
H1016 H 0.69393 0.7842 0.27537 0.0
H1017 H 0.72186 0.70282 0.26625 0.0
H1018 H 0.67627 0.68231 0.28337 0.0
H1019 H 0.63278 0.68927 0.30697 0.0
H1020 H 0.60653 0.77152 0.31935 0.0
H1021 H 0.64666 0.78983 0.29454 0.0
C1022 C 0.68946 0.76183 0.27647 0.0
C1023 C 0.71099 0.74494 0.26963 0.0
C1024 C 0.66372 0.75046 0.28725 0.0
C1025 C 0.70542 0.71608 0.27143 0.0
C1026 C 0.67949 0.70444 0.28133 0.0
C1027 C 0.6354 0.71107 0.30382 0.0
C1028 C 0.61694 0.72908 0.3154 0.0
C1029 C 0.65908 0.72167 0.29025 0.0
C1030 C 0.6206 0.75723 0.31091 0.0
C1031 C 0.64364 0.76777 0.29679 0.0
H1032 H 0.06965 0.13703 0.03343 0.0
H1033 H 0.11397 0.08499 0.97978 0.0
H1034 H 0.09961 0.10994 0.94388 0.0
H1035 H 0.08031 0.15079 0.9298 0.0
H1036 H 0.03682 0.20316 0.98439 0.0
H1037 H 0.0443 0.17352 0.01766 0.0
C1038 C 0.07544 0.1308 0.01366 0.0
C1039 C 0.09276 0.10943 0.00901 0.0
C1040 C 0.06744 0.14543 0.9934 0.0
C1041 C 0.10044 0.10138 0.98354 0.0
C1042 C 0.09241 0.11574 0.96316 0.0
C1043 C 0.07191 0.15535 0.94878 0.0
C1044 C 0.05838 0.17941 0.95466 0.0
C1045 C 0.07676 0.13844 0.9681 0.0
C1046 C 0.04746 0.18492 0.97931 0.0
C1047 C 0.05187 0.16805 0.99847 0.0
H1048 H 0.34726 0.29188 0.23564 0.0
H1049 H 0.41063 0.26205 0.2871 0.0
H1050 H 0.44316 0.25686 0.25187 0.0
H1051 H 0.45324 0.25979 0.20589 0.0
H1052 H 0.38945 0.28947 0.1547 0.0
H1053 H 0.35807 0.2964 0.19049 0.0
C1054 C 0.36832 0.28451 0.23929 0.0
C1055 C 0.37625 0.27722 0.26406 0.0
C1056 C 0.38708 0.28174 0.21897 0.0
C1057 C 0.40354 0.26734 0.26816 0.0
C1058 C 0.42235 0.26459 0.24805 0.0
C1059 C 0.43268 0.26814 0.20268 0.0
C1060 C 0.4238 0.27413 0.17758 0.0
C1061 C 0.41432 0.27162 0.22331 0.0
C1062 C 0.39688 0.28464 0.17375 0.0
C1063 C 0.37881 0.28854 0.19421 0.0
H1064 H 0.5378 0.38312 0.02666 0.0
H1065 H 0.62782 0.36545 0.02628 0.0
H1066 H 0.6188 0.33469 0.05922 0.0
H1067 H 0.58259 0.30607 0.08137 0.0
H1068 H 0.49231 0.32287 0.08217 0.0
H1069 H 0.50411 0.36095 0.05636 0.0
C1070 C 0.55572 0.3734 0.03463 0.0
C1071 C 0.58342 0.37642 0.02402 0.0
C1072 C 0.55011 0.35514 0.05328 0.0
C1073 C 0.60637 0.36343 0.03422 0.0
C1074 C 0.60112 0.34564 0.05287 0.0
C1075 C 0.56577 0.31867 0.07656 0.0
C1076 C 0.53657 0.31151 0.08342 0.0
C1077 C 0.57267 0.34027 0.06154 0.0
C1078 C 0.515 0.32805 0.07721 0.0
C1079 C 0.52168 0.34966 0.06221 0.0
H1080 H 0.6576 0.25014 0.23137 0.0
H1081 H 0.68133 0.17611 0.18681 0.0
H1082 H 0.6353 0.16999 0.15688 0.0
H1083 H 0.59115 0.18861 0.14089 0.0
H1084 H 0.56614 0.26184 0.18593 0.0
H1085 H 0.60952 0.26527 0.21842 0.0
C1086 C 0.65215 0.23231 0.21548 0.0
C1087 C 0.67251 0.21345 0.21124 0.0
C1088 C 0.62567 0.22902 0.19834 0.0
C1089 C 0.66567 0.1906 0.19049 0.0
C1090 C 0.63953 0.18727 0.17331 0.0
C1091 C 0.59502 0.20512 0.158 0.0
C1092 C 0.57572 0.22518 0.16084 0.0
C1093 C 0.6198 0.20679 0.17663 0.0
C1094 C 0.58069 0.24618 0.1833 0.0
C1095 C 0.60557 0.24822 0.2018 0.0
H1096 H 0.43006 0.06397 0.03972 0.0
H1097 H 0.49971 0.08731 0.99088 0.0
H1098 H 0.51321 0.13343 0.01861 0.0
H1099 H 0.50404 0.1679 0.05576 0.0
H1100 H 0.43687 0.1432 0.10626 0.0
H1101 H 0.42438 0.09652 0.07926 0.0
C1102 C 0.44867 0.07875 0.03534 0.0
C1103 C 0.46353 0.07193 0.01286 0.0
C1104 C 0.4569 0.10508 0.05176 0.0
C1105 C 0.48724 0.09195 0.00753 0.0
C1106 C 0.49521 0.11836 0.02356 0.0
C1107 C 0.48694 0.15224 0.06109 0.0
C1108 C 0.47137 0.1592 0.08301 0.0
C1109 C 0.47996 0.12529 0.04554 0.0
C1110 C 0.44929 0.1385 0.08956 0.0
C1111 C 0.44201 0.11179 0.07404 0.0
H1112 H 0.34101 0.36153 0.74235 0.0
H1113 H 0.28898 0.39464 0.68443 0.0
H1114 H 0.32386 0.43966 0.69364 0.0
H1115 H 0.37186 0.468 0.71562 0.0
H1116 H 0.42586 0.43208 0.76999 0.0
H1117 H 0.38752 0.38996 0.7651 0.0
C1118 C 0.33701 0.37886 0.73219 0.0
C1119 C 0.31241 0.37504 0.71299 0.0
C1120 C 0.35769 0.4041 0.73687 0.0
C1121 C 0.30777 0.3973 0.69941 0.0
C1122 C 0.32773 0.42294 0.70462 0.0
C1123 C 0.37484 0.45107 0.72664 0.0
C1124 C 0.40144 0.45299 0.74318 0.0
C1125 C 0.35315 0.42638 0.72292 0.0
C1126 C 0.40548 0.43088 0.75711 0.0
C1127 C 0.38362 0.40683 0.75431 0.0
H1128 H 0.30516 0.64579 0.81666 0.0
H1129 H 0.32736 0.70125 0.76037 0.0
H1130 H 0.36534 0.67398 0.74568 0.0
H1131 H 0.39296 0.63506 0.74903 0.0
H1132 H 0.37201 0.57941 0.80536 0.0
H1133 H 0.33318 0.60622 0.81994 0.0
C1134 C 0.31838 0.65196 0.80124 0.0
C1135 C 0.31306 0.67551 0.78953 0.0
C1136 C 0.34056 0.63621 0.79293 0.0
C1137 C 0.33037 0.68298 0.76943 0.0
C1138 C 0.35235 0.66751 0.76113 0.0
C1139 C 0.37996 0.62869 0.76451 0.0
C1140 C 0.38556 0.60519 0.77608 0.0
C1141 C 0.35768 0.64414 0.77274 0.0
C1142 C 0.36829 0.59737 0.79608 0.0
C1143 C 0.34605 0.61272 0.80443 0.0
H1144 H 0.90981 0.44871 0.47505 0.0
H1145 H 0.8508 0.50567 0.50236 0.0
H1146 H 0.81478 0.46614 0.51099 0.0
H1147 H 0.80058 0.41554 0.51195 0.0
H1148 H 0.86051 0.3585 0.48666 0.0
H1149 H 0.89548 0.39769 0.47612 0.0
C1150 C 0.88896 0.4523 0.48274 0.0
C1151 C 0.88295 0.47996 0.48815 0.0
C1152 C 0.86855 0.42948 0.48813 0.0
C1153 C 0.85597 0.48451 0.49827 0.0
C1154 C 0.83536 0.46194 0.50316 0.0
C1155 C 0.82121 0.41164 0.50401 0.0
C1156 C 0.82783 0.38408 0.50013 0.0
C1157 C 0.84149 0.43435 0.49837 0.0
C1158 C 0.85485 0.3795 0.49001 0.0
C1159 C 0.87488 0.40191 0.4839 0.0
H1160 H 0.71608 0.88024 0.81352 0.0
H1161 H 0.78471 0.87973 0.76054 0.0
H1162 H 0.75882 0.90818 0.73374 0.0
H1163 H 0.72109 0.93899 0.72956 0.0
H1164 H 0.65351 0.94076 0.7838 0.0
H1165 H 0.67425 0.90563 0.80555 0.0
C1166 C 0.72508 0.886 0.79584 0.0
C1167 C 0.75251 0.8783 0.78922 0.0
C1168 C 0.71038 0.90277 0.78088 0.0
C1169 C 0.76367 0.88542 0.76604 0.0
C1170 C 0.74897 0.90186 0.75085 0.0
C1171 C 0.71042 0.9313 0.74578 0.0
C1172 C 0.68603 0.94306 0.75528 0.0
C1173 C 0.72293 0.91154 0.75867 0.0
C1174 C 0.67241 0.93242 0.77613 0.0
C1175 C 0.6844 0.9124 0.78874 0.0
H1176 H 0.6183 0.55693 0.97221 0.0
H1177 H 0.67336 0.49234 0.97503 0.0
H1178 H 0.71836 0.52841 0.98351 0.0
H1179 H 0.74241 0.57852 0.98798 0.0
H1180 H 0.68627 0.64215 0.98284 0.0
H1181 H 0.64181 0.60624 0.97676 0.0
C1182 C 0.64012 0.55065 0.97459 0.0
C1183 C 0.64223 0.52184 0.97291 0.0
C1184 C 0.66596 0.5714 0.9787 0.0
C1185 C 0.67082 0.5143 0.97659 0.0
C1186 C 0.69668 0.53494 0.98114 0.0
C1187 C 0.72047 0.58453 0.98546 0.0
C1188 C 0.71799 0.61317 0.9858 0.0
C1189 C 0.69458 0.56359 0.98187 0.0
C1190 C 0.68919 0.62041 0.98262 0.0
C1191 C 0.66356 0.59984 0.97919 0.0
H1192 H 0.24846 0.67341 0.26464 0.0
H1193 H 0.31237 0.62232 0.23585 0.0
H1194 H 0.27516 0.57966 0.23309 0.0
H1195 H 0.22584 0.55679 0.2419 0.0
H1196 H 0.16215 0.60787 0.27124 0.0
H1197 H 0.19772 0.65071 0.27003 0.0
C1198 C 0.2541 0.65301 0.25724 0.0
C1199 C 0.28325 0.65108 0.25061 0.0
C1200 C 0.23264 0.62857 0.2558 0.0
C1201 C 0.29025 0.62438 0.24147 0.0
C1202 C 0.26895 0.59999 0.23977 0.0
C1203 C 0.2195 0.57728 0.24762 0.0
C1204 C 0.1914 0.5791 0.25676 0.0
C1205 C 0.24026 0.60181 0.24734 0.0
C1206 C 0.18365 0.60585 0.26418 0.0
C1207 C 0.20403 0.63037 0.2636 0.0
H1208 H 0.94228 0.52426 0.00848 0.0
H1209 H 0.98197 0.57306 0.08329 0.0
H1210 H 0.94562 0.60491 0.08062 0.0
H1211 H 0.90527 0.62096 0.05574 0.0
H1212 H 0.86629 0.5736 0.98018 0.0
H1213 H 0.9001 0.53934 0.98427 0.0
C1214 C 0.94301 0.54188 0.02422 0.0
C1215 C 0.96509 0.54633 0.04599 0.0
C1216 C 0.92245 0.56055 0.02226 0.0
C1217 C 0.96516 0.5689 0.06645 0.0
C1218 C 0.94455 0.58732 0.06481 0.0
C1219 C 0.90404 0.60313 0.04011 0.0
C1220 C 0.88342 0.60004 0.01752 0.0
C1221 C 0.92353 0.58367 0.04258 0.0
C1222 C 0.882 0.57659 0.99769 0.0
C1223 C 0.90134 0.557 1.00004 0.0
H1224 H 0.12495 0.94894 0.09727 0.0
H1225 H 0.12063 0.96909 0.01841 0.0
H1226 H 0.15095 0.93323 0.0051 0.0
H1227 H 0.18022 0.89668 0.01617 0.0
H1228 H 0.18046 0.87448 0.09416 0.0
H1229 H 0.1499 0.91005 0.10713 0.0
C1230 C 0.12997 0.94519 0.077 0.0
C1231 C 0.12065 0.96214 0.05907 0.0
C1232 C 0.14692 0.92407 0.06922 0.0
C1233 C 0.128 0.95694 0.03295 0.0
C1234 C 0.14527 0.93628 0.0252 0.0
C1235 C 0.17346 0.89963 0.03594 0.0
C1236 C 0.18277 0.88301 0.05415 0.0
C1237 C 0.15523 0.91992 0.04326 0.0
C1238 C 0.17357 0.88688 0.07965 0.0
C1239 C 0.1561 0.90731 0.08718 0.0
loop_
_geom_bond_atom_site_label_1
_geom_bond_atom_site_label_2
_geom_bond_distance
_geom_bond_site_symmetry_2
_ccdc_geom_bond_type
H0 C1 0.949 . S
C1 H0 0.949 . S
C1 C2 1.422 . S
C1 C3 1.391 . S
C2 C1 1.422 . S
C2 C5 1.384 1_545 S
C3 C1 1.391 . S
C3 C7 1.387 . S
C3 C8 1.491 . S
H4 C5 0.950 . S
C5 C2 1.384 1_565 S
C5 H4 0.950 . S
C5 C6 1.378 1_565 S
C6 C5 1.378 1_545 S
C6 C7 1.409 . S
C7 C3 1.387 . S
C7 C6 1.409 . S
C7 H9 0.951 . S
C8 C3 1.491 . S
C8 C10 1.382 1_554 S
C8 C12 1.404 . S
H9 C7 0.951 . S
C10 C8 1.382 1_556 S
C10 C11 1.390 . S
C10 H15 0.949 . S
C11 C10 1.390 . S
C11 C16 1.398 1_556 S
C12 C8 1.404 . S
C12 H13 0.950 . S
C12 C14 1.375 . S
H13 C12 0.950 . S
C14 C12 1.375 . S
C14 C16 1.386 . S
C14 H18 0.950 . S
H15 C10 0.949 . S
C16 C11 1.398 1_554 S
C16 C14 1.386 . S
C16 H17 0.949 1_554 S
H17 C16 0.949 1_556 S
H18 C14 0.950 . S
H19 C20 0.949 . S
C20 H19 0.949 . S
C20 C21 1.395 . S
C20 C22 1.391 . S
C21 C20 1.395 . S
C21 C24 1.390 . S
C22 C20 1.391 . S
C22 C26 1.387 . S
C22 C27 1.491 . S
H23 C24 0.950 . S
C24 C21 1.390 . S
C24 H23 0.950 . S
C24 C25 1.378 . S
C25 C24 1.378 . S
C25 C26 1.409 . S
C26 C22 1.387 . S
C26 C25 1.409 . S
C26 H28 0.951 . S
C27 C22 1.491 . S
C27 C29 1.382 . S
C27 C31 1.404 . S
H28 C26 0.951 . S
C29 C27 1.382 . S
C29 C30 1.390 . S
C29 H34 0.949 . S
C30 C29 1.390 . S
C30 C35 1.399 . S
C31 C27 1.404 . S
C31 H32 0.950 . S
C31 C33 1.375 . S
H32 C31 0.950 . S
C33 C31 1.375 . S
C33 C35 1.382 . S
C33 H37 0.950 . S
H34 C29 0.949 . S
C35 C30 1.399 . S
C35 C33 1.382 . S
C35 H36 0.952 . S
H36 C35 0.952 . S
H37 C33 0.950 . S
H38 C39 0.949 . S
C39 H38 0.949 . S
C39 C40 1.395 . S
C39 C41 1.391 1_455 S
C40 C39 1.395 . S
C40 C43 1.390 1_455 S
C41 C39 1.391 1_655 S
C41 C45 1.387 . S
C41 C46 1.491 1_654 S
H42 C43 0.950 . S
C43 C40 1.390 1_655 S
C43 H42 0.950 . S
C43 C44 1.378 . S
C44 C43 1.378 . S
C44 C45 1.409 . S
C45 C41 1.387 . S
C45 C44 1.409 . S
C45 H47 0.951 . S
C46 C41 1.491 1_456 S
C46 C48 1.382 . S
C46 C50 1.404 . S
H47 C45 0.951 . S
C48 C46 1.382 . S
C48 C49 1.390 . S
C48 H53 0.949 1_556 S
C49 C48 1.390 . S
C49 C54 1.399 . S
C50 C46 1.404 . S
C50 H51 0.957 . S
C50 C52 1.375 . S
H51 C50 0.957 . S
C52 C50 1.375 . S
C52 C54 1.382 . S
C52 H56 0.950 . S
H53 C48 0.949 1_554 S
C54 C49 1.399 . S
C54 C52 1.382 . S
C54 H55 0.952 . S
H55 C54 0.952 . S
H56 C52 0.950 . S
H57 C58 0.949 . S
C58 H57 0.949 . S
C58 C59 1.395 . S
C58 C60 1.391 . S
C59 C58 1.395 . S
C59 C62 1.390 . S
C60 C58 1.391 . S
C60 C64 1.387 . S
C60 C65 1.491 . S
H61 C62 0.950 . S
C62 C59 1.390 . S
C62 H61 0.950 . S
C62 C63 1.378 . S
C63 C62 1.378 . S
C63 C64 1.409 . S
C64 C60 1.387 . S
C64 C63 1.409 . S
C64 H66 0.951 . S
C65 C60 1.491 . S
C65 C67 1.382 . S
C65 C69 1.404 . S
H66 C64 0.951 . S
C67 C65 1.382 . S
C67 C68 1.390 . S
C67 H72 0.949 . S
C68 C67 1.390 . S
C68 C73 1.399 . S
C69 C65 1.404 . S
C69 H70 0.950 . S
C69 C71 1.375 . S
H70 C69 0.950 . S
C71 C69 1.375 . S
C71 C73 1.382 . S
C71 H75 0.950 . S
H72 C67 0.949 . S
C73 C68 1.399 . S
C73 C71 1.382 . S
C73 H74 0.952 . S
H74 C73 0.952 . S
H75 C71 0.950 . S
H76 C77 0.949 . S
C77 H76 0.949 . S
C77 C78 1.399 . S
C77 C79 1.391 . S
C78 C77 1.399 . S
C78 C81 1.388 1_565 S
C79 C77 1.391 . S
C79 C83 1.387 . S
C79 C84 1.491 . S
H80 C81 0.950 . S
C81 C78 1.388 1_545 S
C81 H80 0.950 . S
C81 C82 1.378 1_545 S
C82 C81 1.378 1_565 S
C82 C83 1.409 . S
C83 C79 1.387 . S
C83 C82 1.409 . S
C83 H85 0.951 . S
C84 C79 1.491 . S
C84 C86 1.382 . S
C84 C88 1.404 . S
H85 C83 0.951 . S
C86 C84 1.382 . S
C86 C87 1.390 . S
C86 H91 0.949 . S
C87 C86 1.390 . S
C87 C92 1.399 . S
C88 C84 1.404 . S
C88 H89 0.950 . S
C88 C90 1.375 . S
H89 C88 0.950 . S
C90 C88 1.375 . S
C90 C92 1.382 . S
C90 H94 0.950 . S
H91 C86 0.949 . S
C92 C87 1.399 . S
C92 C90 1.382 . S
C92 H93 0.952 . S
H93 C92 0.952 . S
H94 C90 0.950 . S
H95 C96 0.949 . S
C96 H95 0.949 . S
C96 C97 1.395 . S
C96 C98 1.391 . S
C97 C96 1.395 . S
C97 C100 1.390 . S
C98 C96 1.391 . S
C98 C102 1.387 . S
C98 C103 1.491 . S
H99 C100 0.950 . S
C100 C97 1.390 . S
C100 H99 0.950 . S
C100 C101 1.378 . S
C101 C100 1.378 . S
C101 C102 1.409 . S
C102 C98 1.387 . S
C102 C101 1.409 . S
C102 H104 0.951 . S
C103 C98 1.491 . S
C103 C105 1.382 . S
C103 C107 1.404 . S
H104 C102 0.951 . S
C105 C103 1.382 . S
C105 C106 1.390 . S
C105 H110 0.949 . S
C106 C105 1.390 . S
C106 C111 1.399 . S
C107 C103 1.404 . S
C107 H108 0.950 . S
C107 C109 1.375 . S
H108 C107 0.950 . S
C109 C107 1.375 . S
C109 C111 1.382 . S
C109 H113 0.950 . S
H110 C105 0.949 . S
C111 C106 1.399 . S
C111 C109 1.382 . S
C111 H112 0.952 . S
H112 C111 0.952 . S
H113 C109 0.950 . S
H114 C115 0.949 . S
C115 H114 0.949 . S
C115 C116 1.395 . S
C115 C117 1.391 . S
C116 C115 1.395 . S
C116 C119 1.390 . S
C117 C115 1.391 . S
C117 C121 1.387 . S
C117 C122 1.491 . S
H118 C119 0.950 . S
C119 C116 1.390 . S
C119 H118 0.950 . S
C119 C120 1.378 . S
C120 C119 1.378 . S
C120 C121 1.409 . S
C121 C117 1.387 . S
C121 C120 1.409 . S
C121 H123 0.951 . S
C122 C117 1.491 . S
C122 C124 1.382 . S
C122 C126 1.404 . S
H123 C121 0.951 . S
C124 C122 1.382 . S
C124 C125 1.390 1_655 S
C124 H129 0.949 1_655 S
C125 C124 1.390 1_455 S
C125 C130 1.399 1_455 S
C126 C122 1.404 . S
C126 H127 0.950 . S
C126 C128 1.375 . S
H127 C126 0.950 . S
C128 C126 1.375 . S
C128 C130 1.382 . S
C128 H132 0.950 . S
H129 C124 0.949 1_455 S
C130 C125 1.399 1_655 S
C130 C128 1.382 . S
C130 H131 0.952 . S
H131 C130 0.952 . S
H132 C128 0.950 . S
H133 C134 0.949 . S
C134 H133 0.949 . S
C134 C135 1.395 . S
C134 C136 1.391 . S
C135 C134 1.395 . S
C135 C138 1.390 . S
C136 C134 1.391 . S
C136 C140 1.387 . S
C136 C141 1.491 . S
H137 C138 0.950 . S
C138 C135 1.390 . S
C138 H137 0.950 . S
C138 C139 1.378 . S
C139 C138 1.378 . S
C139 C140 1.409 . S
C140 C136 1.387 . S
C140 C139 1.409 . S
C140 H142 0.951 . S
C141 C136 1.491 . S
C141 C143 1.382 . S
C141 C145 1.404 . S
H142 C140 0.951 . S
C143 C141 1.382 . S
C143 C144 1.390 . S
C143 H148 0.949 . S
C144 C143 1.390 . S
C144 C149 1.399 . S
C145 C141 1.404 . S
C145 H146 0.950 . S
C145 C147 1.375 . S
H146 C145 0.950 . S
C147 C145 1.375 . S
C147 C149 1.382 . S
C147 H151 0.950 . S
H148 C143 0.949 . S
C149 C144 1.399 . S
C149 C147 1.382 . S
C149 H150 0.952 . S
H150 C149 0.952 . S
H151 C147 0.950 . S
H152 C153 0.949 . S
C153 H152 0.949 . S
C153 C154 1.395 . S
C153 C155 1.391 . S
C154 C153 1.395 . S
C154 C157 1.390 . S
C155 C153 1.391 . S
C155 C159 1.387 . S
C155 C160 1.491 . S
H156 C157 0.950 . S
C157 C154 1.390 . S
C157 H156 0.950 . S
C157 C158 1.378 . S
C158 C157 1.378 . S
C158 C159 1.409 . S
C159 C155 1.387 . S
C159 C158 1.409 . S
C159 H161 0.951 . S
C160 C155 1.491 . S
C160 C162 1.382 . S
C160 C164 1.404 . S
H161 C159 0.951 . S
C162 C160 1.382 . S
C162 C163 1.390 . S
C162 H167 0.949 . S
C163 C162 1.390 . S
C163 C168 1.399 . S
C164 C160 1.404 . S
C164 H165 0.950 . S
C164 C166 1.375 . S
H165 C164 0.950 . S
C166 C164 1.375 . S
C166 C168 1.382 . S
C166 H170 0.950 . S
H167 C162 0.949 . S
C168 C163 1.399 . S
C168 C166 1.382 . S
C168 H169 0.952 . S
H169 C168 0.952 . S
H170 C166 0.950 . S
H171 C172 0.949 . S
C172 H171 0.949 . S
C172 C173 1.395 . S
C172 C174 1.391 . S
C173 C172 1.395 . S
C173 C176 1.390 1_565 S
C174 C172 1.391 . S
C174 C178 1.387 . S
C174 C179 1.491 . S
H175 C176 0.950 . S
C176 C173 1.390 1_545 S
C176 H175 0.950 . S
C176 C177 1.378 . S
C177 C176 1.378 . S
C177 C178 1.409 1_545 S
C178 C174 1.387 . S
C178 C177 1.409 1_565 S
C178 H180 0.951 . S
C179 C174 1.491 . S
C179 C181 1.382 . S
C179 C183 1.404 . S
H180 C178 0.951 . S
C181 C179 1.382 . S
C181 C182 1.390 . S
C181 H186 0.949 . S
C182 C181 1.390 . S
C182 C187 1.399 . S
C183 C179 1.404 . S
C183 H184 0.950 . S
C183 C185 1.375 . S
H184 C183 0.950 . S
C185 C183 1.375 . S
C185 C187 1.382 . S
C185 H189 0.950 . S
H186 C181 0.949 . S
C187 C182 1.399 . S
C187 C185 1.382 . S
C187 H188 0.952 . S
H188 C187 0.952 . S
H189 C185 0.950 . S
H190 C191 0.949 . S
C191 H190 0.949 . S
C191 C192 1.395 . S
C191 C193 1.391 . S
C192 C191 1.395 . S
C192 C195 1.390 . S
C193 C191 1.391 . S
C193 C197 1.387 . S
C193 C198 1.491 . S
H194 C195 0.950 . S
C195 C192 1.390 . S
C195 H194 0.950 . S
C195 C196 1.378 . S
C196 C195 1.378 . S
C196 C197 1.409 . S
C197 C193 1.387 . S
C197 C196 1.409 . S
C197 H199 0.951 . S
C198 C193 1.491 . S
C198 C200 1.382 . S
C198 C202 1.404 . S
H199 C197 0.951 . S
C200 C198 1.382 . S
C200 C201 1.390 . S
C200 H205 0.949 . S
C201 C200 1.390 . S
C201 C206 1.399 . S
C202 C198 1.404 . S
C202 H203 0.950 . S
C202 C204 1.375 . S
H203 C202 0.950 . S
C204 C202 1.375 . S
C204 C206 1.382 . S
C204 H208 0.950 . S
H205 C200 0.949 . S
C206 C201 1.399 . S
C206 C204 1.382 . S
C206 H207 0.952 . S
H207 C206 0.952 . S
H208 C204 0.950 . S
H209 C210 0.949 . S
C210 H209 0.949 . S
C210 C211 1.395 . S
C210 C212 1.391 . S
C211 C210 1.395 . S
C211 C214 1.390 . S
C212 C210 1.391 . S
C212 C216 1.387 . S
C212 C217 1.491 . S
H213 C214 0.950 . S
C214 C211 1.390 . S
C214 H213 0.950 . S
C214 C215 1.378 . S
C215 C214 1.378 . S
C215 C216 1.409 . S
C216 C212 1.387 . S
C216 C215 1.409 . S
C216 H218 0.951 . S
C217 C212 1.491 . S
C217 C219 1.382 . S
C217 C221 1.404 . S
H218 C216 0.951 . S
C219 C217 1.382 . S
C219 C220 1.390 . S
C219 H224 0.949 . S
C220 C219 1.390 . S
C220 C225 1.399 . S
C221 C217 1.404 . S
C221 H222 0.950 . S
C221 C223 1.375 . S
H222 C221 0.950 . S
C223 C221 1.375 . S
C223 C225 1.382 . S
C223 H227 0.950 . S
H224 C219 0.949 . S
C225 C220 1.399 . S
C225 C223 1.382 . S
C225 H226 0.952 . S
H226 C225 0.952 . S
H227 C223 0.950 . S
H228 C229 0.949 . S
C229 H228 0.949 . S
C229 C230 1.395 . S
C229 C231 1.391 . S
C230 C229 1.395 . S
C230 C233 1.390 . S
C231 C229 1.391 . S
C231 C235 1.387 . S
C231 C236 1.491 . S
H232 C233 0.950 . S
C233 C230 1.390 . S
C233 H232 0.950 . S
C233 C234 1.378 . S
C234 C233 1.378 . S
C234 C235 1.409 . S
C235 C231 1.387 . S
C235 C234 1.409 . S
C235 H237 0.951 . S
C236 C231 1.491 . S
C236 C238 1.382 . S
C236 C240 1.404 . S
H237 C235 0.951 . S
C238 C236 1.382 . S
C238 C239 1.390 . S
C238 H243 0.949 . S
C239 C238 1.390 . S
C239 C244 1.399 . S
C240 C236 1.404 . S
C240 H241 0.950 . S
C240 C242 1.375 . S
H241 C240 0.950 . S
C242 C240 1.375 . S
C242 C244 1.382 . S
C242 H246 0.950 . S
H243 C238 0.949 . S
C244 C239 1.399 . S
C244 C242 1.382 . S
C244 H245 0.952 . S
H245 C244 0.952 . S
H246 C242 0.950 . S
H247 C248 0.949 1_554 S
C248 H247 0.949 1_556 S
C248 C249 1.395 . S
C248 C250 1.391 . S
C249 C248 1.395 . S
C249 C252 1.390 . S
C250 C248 1.391 . S
C250 C254 1.387 . S
C250 C255 1.491 . S
H251 C252 0.950 . S
C252 C249 1.390 . S
C252 H251 0.950 . S
C252 C253 1.378 . S
C253 C252 1.378 . S
C253 C254 1.409 . S
C254 C250 1.387 . S
C254 C253 1.409 . S
C254 H256 0.951 . S
C255 C250 1.491 . S
C255 C257 1.382 1_556 S
C255 C259 1.404 . S
H256 C254 0.951 . S
C257 C255 1.382 1_554 S
C257 C258 1.390 . S
C257 H262 0.949 . S
C258 C257 1.390 . S
C258 C263 1.399 . S
C259 C255 1.404 . S
C259 H260 0.950 . S
C259 C261 1.375 . S
H260 C259 0.950 . S
C261 C259 1.375 . S
C261 C263 1.382 1_556 S
C261 H265 0.950 . S
H262 C257 0.949 . S
C263 C258 1.399 . S
C263 C261 1.382 1_554 S
C263 H264 0.952 . S
H264 C263 0.952 . S
H265 C261 0.950 . S
H266 C267 0.949 . S
C267 H266 0.949 . S
C267 C268 1.395 . S
C267 C269 1.391 . S
C268 C267 1.395 . S
C268 C271 1.390 . S
C269 C267 1.391 . S
C269 C273 1.387 . S
C269 C274 1.491 . S
H270 C271 0.950 . S
C271 C268 1.390 . S
C271 H270 0.950 . S
C271 C272 1.378 . S
C272 C271 1.378 . S
C272 C273 1.409 . S
C273 C269 1.387 . S
C273 C272 1.409 . S
C273 H275 0.951 . S
C274 C269 1.491 . S
C274 C276 1.382 . S
C274 C278 1.404 . S
H275 C273 0.951 . S
C276 C274 1.382 . S
C276 C277 1.390 . S
C276 H281 0.949 . S
C277 C276 1.390 . S
C277 C282 1.399 . S
C278 C274 1.404 . S
C278 H279 0.950 . S
C278 C280 1.375 . S
H279 C278 0.950 . S
C280 C278 1.375 . S
C280 C282 1.382 . S
C280 H284 0.950 . S
H281 C276 0.949 . S
C282 C277 1.399 . S
C282 C280 1.382 . S
C282 H283 0.952 . S
H283 C282 0.952 . S
H284 C280 0.950 . S
H285 C286 0.949 . S
C286 H285 0.949 . S
C286 C287 1.395 . S
C286 C288 1.391 . S
C287 C286 1.395 . S
C287 C290 1.390 . S
C288 C286 1.391 . S
C288 C292 1.387 . S
C288 C293 1.491 . S
H289 C290 0.950 1_554 S
C290 C287 1.390 . S
C290 H289 0.950 1_556 S
C290 C291 1.378 . S
C291 C290 1.378 . S
C291 C292 1.409 . S
C292 C288 1.387 . S
C292 C291 1.409 . S
C292 H294 0.951 1_545 S
C293 C288 1.491 . S
C293 C295 1.382 . S
C293 C297 1.404 . S
H294 C292 0.951 1_565 S
C295 C293 1.382 . S
C295 C296 1.390 . S
C295 H300 0.949 . S
C296 C295 1.390 . S
C296 C301 1.399 . S
C297 C293 1.404 . S
C297 H298 0.950 . S
C297 C299 1.375 . S
H298 C297 0.950 . S
C299 C297 1.375 . S
C299 C301 1.382 . S
C299 H303 0.950 . S
H300 C295 0.949 . S
C301 C296 1.399 . S
C301 C299 1.382 . S
C301 H302 0.952 . S
H302 C301 0.952 . S
H303 C299 0.950 . S
Mg304 O305 2.028 . S
Mg304 O311 1.986 1_554 S
Mg304 O313 2.114 . S
Mg304 O314 2.251 . S
Mg304 O317 2.010 . S
O305 Mg304 2.028 . S
O305 C308 1.250 . S
O306 Mg307 2.028 . S
O306 C308 1.248 . S
Mg307 O306 2.028 . S
Mg307 O312 2.032 1_554 S
Mg307 O314 2.079 . S
C308 O305 1.250 . S
C308 O306 1.248 . S
C309 O310 1.264 . S
C309 O317 1.249 . S
O310 C309 1.264 . S
O311 Mg304 1.986 1_556 S
O311 C315 1.246 . S
O312 Mg307 2.032 1_556 S
O312 C315 1.259 . S
O313 Mg304 2.114 . S
O313 C316 1.252 . S
O314 Mg304 2.251 . S
O314 Mg307 2.079 . S
O314 C316 1.273 . S
C315 O311 1.246 . S
C315 O312 1.259 . S
C316 O313 1.252 . S
C316 O314 1.273 . S
O317 Mg304 2.010 . S
O317 C309 1.249 . S
Mg318 O319 2.028 . S
Mg318 O325 1.986 . S
Mg318 O327 2.114 . S
Mg318 O328 2.251 . S
Mg318 O331 2.010 . S
O319 Mg318 2.028 . S
O319 C322 1.250 . S
O320 Mg321 2.028 . S
O320 C322 1.248 . S
Mg321 O320 2.028 . S
Mg321 O326 2.032 . S
Mg321 O328 2.079 . S
C322 O319 1.250 . S
C322 O320 1.248 . S
C323 O324 1.264 . S
C323 O331 1.249 . S
O324 C323 1.264 . S
O325 Mg318 1.986 . S
O325 C329 1.246 . S
O326 Mg321 2.032 . S
O326 C329 1.259 . S
O327 Mg318 2.114 . S
O327 C330 1.252 . S
O328 Mg318 2.251 . S
O328 Mg321 2.079 . S
O328 C330 1.273 . S
C329 O325 1.246 . S
C329 O326 1.259 . S
C330 O327 1.252 . S
C330 O328 1.273 . S
O331 Mg318 2.010 . S
O331 C323 1.249 . S
Mg332 O333 2.028 1_554 S
Mg332 O339 1.986 1_554 S
Mg332 O341 2.114 . S
Mg332 O342 2.251 . S
Mg332 O345 2.010 . S
O333 Mg332 2.028 1_556 S
O333 C336 1.250 . S
O334 Mg335 2.028 . S
O334 C336 1.248 . S
Mg335 O334 2.028 . S
Mg335 O340 2.032 . S
Mg335 O342 2.079 1_556 S
C336 O333 1.250 . S
C336 O334 1.248 . S
C337 O338 1.264 . S
C337 O345 1.249 . S
O338 C337 1.264 . S
O339 Mg332 1.986 1_556 S
O339 C343 1.246 . S
O340 Mg335 2.032 . S
O340 C343 1.259 . S
O341 Mg332 2.114 . S
O341 C344 1.252 . S
O342 Mg332 2.251 . S
O342 Mg335 2.079 1_554 S
O342 C344 1.273 . S
C343 O339 1.246 . S
C343 O340 1.259 . S
C344 O341 1.252 . S
C344 O342 1.273 . S
O345 Mg332 2.010 . S
O345 C337 1.249 . S
Mg346 O347 2.028 . S
Mg346 O353 1.986 . S
Mg346 O355 2.114 . S
Mg346 O356 2.251 . S
Mg346 O359 2.010 . S
O347 Mg346 2.028 . S
O347 C350 1.250 1_545 S
O348 Mg349 2.028 . S
O348 C350 1.248 . S
Mg349 O348 2.028 . S
Mg349 O354 2.032 1_565 S
Mg349 O356 2.079 1_565 S
C350 O347 1.250 1_565 S
C350 O348 1.248 . S
C351 O352 1.264 . S
C351 O359 1.249 . S
O352 C351 1.264 . S
O353 Mg346 1.986 . S
O353 C357 1.246 . S
O354 Mg349 2.032 1_545 S
O354 C357 1.259 . S
O355 Mg346 2.114 . S
O355 C358 1.252 . S
O356 Mg346 2.251 . S
O356 Mg349 2.079 1_545 S
O356 C358 1.273 . S
C357 O353 1.246 . S
C357 O354 1.259 . S
C358 O355 1.252 . S
C358 O356 1.273 . S
O359 Mg346 2.010 . S
O359 C351 1.249 . S
Mg360 O361 2.028 . S
Mg360 O367 1.986 . S
Mg360 O369 2.114 . S
Mg360 O370 2.251 . S
Mg360 O373 2.010 . S
O361 Mg360 2.028 . S
O361 C364 1.250 . S
O362 Mg363 2.028 . S
O362 C364 1.248 . S
Mg363 O362 2.028 . S
Mg363 O368 2.032 . S
Mg363 O370 2.079 . S
C364 O361 1.250 . S
C364 O362 1.248 . S
C365 O366 1.264 . S
C365 O373 1.249 . S
O366 C365 1.264 . S
O367 Mg360 1.986 . S
O367 C371 1.246 . S
O368 Mg363 2.032 . S
O368 C371 1.259 . S
O369 Mg360 2.114 . S
O369 C372 1.252 . S
O370 Mg360 2.251 . S
O370 Mg363 2.079 . S
O370 C372 1.273 . S
C371 O367 1.246 . S
C371 O368 1.259 . S
C372 O369 1.252 . S
C372 O370 1.273 . S
O373 Mg360 2.010 . S
O373 C365 1.249 . S
Mg374 O375 2.028 . S
Mg374 O381 1.986 . S
Mg374 O383 2.114 . S
Mg374 O384 2.251 . S
Mg374 O387 2.010 . S
O375 Mg374 2.028 . S
O375 C378 1.250 . S
O376 Mg377 2.028 . S
O376 C378 1.248 . S
Mg377 O376 2.028 . S
Mg377 O382 2.032 . S
Mg377 O384 2.079 . S
C378 O375 1.250 . S
C378 O376 1.248 . S
C379 O380 1.264 . S
C379 O387 1.249 . S
O380 C379 1.264 . S
O381 Mg374 1.986 . S
O381 C385 1.246 . S
O382 Mg377 2.032 . S
O382 C385 1.259 . S
O383 Mg374 2.114 . S
O383 C386 1.252 . S
O384 Mg374 2.251 . S
O384 Mg377 2.079 . S
O384 C386 1.273 . S
C385 O381 1.246 . S
C385 O382 1.259 . S
C386 O383 1.252 . S
C386 O384 1.273 . S
O387 Mg374 2.010 . S
O387 C379 1.249 . S
Mg388 O389 2.028 . S
Mg388 O395 1.986 . S
Mg388 O397 2.114 . S
Mg388 O398 2.251 . S
Mg388 O401 2.010 . S
O389 Mg388 2.028 . S
O389 C392 1.250 . S
O390 Mg391 2.028 . S
O390 C392 1.248 . S
Mg391 O390 2.028 . S
Mg391 O396 2.032 . S
Mg391 O398 2.079 . S
C392 O389 1.250 . S
C392 O390 1.248 . S
C393 O394 1.264 . S
C393 O401 1.249 . S
O394 C393 1.264 . S
O395 Mg388 1.986 . S
O395 C399 1.246 . S
O396 Mg391 2.032 . S
O396 C399 1.259 . S
O397 Mg388 2.114 . S
O397 C400 1.252 . S
O398 Mg388 2.251 . S
O398 Mg391 2.079 . S
O398 C400 1.273 . S
C399 O395 1.246 . S
C399 O396 1.259 . S
C400 O397 1.252 . S
C400 O398 1.273 . S
O401 Mg388 2.010 . S
O401 C393 1.249 . S
Mg402 O403 2.028 . S
Mg402 O409 1.986 1_545 S
Mg402 O411 2.114 . S
Mg402 O412 2.251 . S
Mg402 O415 2.010 . S
O403 Mg402 2.028 . S
O403 C406 1.250 . S
O404 Mg405 2.028 . S
O404 C406 1.248 . S
Mg405 O404 2.028 . S
Mg405 O410 2.032 1_545 S
Mg405 O412 2.079 . S
C406 O403 1.250 . S
C406 O404 1.248 . S
C407 O408 1.264 . S
C407 O415 1.249 . S
O408 C407 1.264 . S
O409 Mg402 1.986 1_565 S
O409 C413 1.246 . S
O410 Mg405 2.032 1_565 S
O410 C413 1.259 . S
O411 Mg402 2.114 . S
O411 C414 1.252 . S
O412 Mg402 2.251 . S
O412 Mg405 2.079 . S
O412 C414 1.273 . S
C413 O409 1.246 . S
C413 O410 1.259 . S
C414 O411 1.252 . S
C414 O412 1.273 . S
O415 Mg402 2.010 . S
O415 C407 1.249 . S
Mg416 O417 2.028 1_455 S
Mg416 O423 1.986 . S
Mg416 O425 2.114 . S
Mg416 O426 2.251 . S
Mg416 O429 2.010 . S
O417 Mg416 2.028 1_655 S
O417 C420 1.250 . S
O418 Mg419 2.028 . S
O418 C420 1.248 . S
Mg419 O418 2.028 . S
Mg419 O424 2.032 . S
Mg419 O426 2.079 1_655 S
C420 O417 1.250 . S
C420 O418 1.248 . S
C421 O422 1.264 . S
C421 O429 1.249 . S
O422 C421 1.264 . S
O423 Mg416 1.986 . S
O423 C427 1.246 . S
O424 Mg419 2.032 . S
O424 C427 1.259 1_655 S
O425 Mg416 2.114 . S
O425 C428 1.252 . S
O426 Mg416 2.251 . S
O426 Mg419 2.079 1_455 S
O426 C428 1.273 . S
C427 O423 1.246 . S
C427 O424 1.259 1_455 S
C428 O425 1.252 . S
C428 O426 1.273 . S
O429 Mg416 2.010 . S
O429 C421 1.249 . S
Mg430 O431 2.028 . S
Mg430 O437 1.986 . S
Mg430 O439 2.114 . S
Mg430 O440 2.251 . S
Mg430 O443 2.010 . S
O431 Mg430 2.028 . S
O431 C434 1.250 . S
O432 Mg433 2.028 . S
O432 C434 1.248 . S
Mg433 O432 2.028 . S
Mg433 O438 2.032 . S
Mg433 O440 2.079 . S
C434 O431 1.250 . S
C434 O432 1.248 . S
C435 O436 1.264 . S
C435 O443 1.249 . S
O436 C435 1.264 . S
O437 Mg430 1.986 . S
O437 C441 1.246 . S
O438 Mg433 2.032 . S
O438 C441 1.259 . S
O439 Mg430 2.114 . S
O439 C442 1.252 . S
O440 Mg430 2.251 . S
O440 Mg433 2.079 . S
O440 C442 1.273 . S
C441 O437 1.246 . S
C441 O438 1.259 . S
C442 O439 1.252 . S
C442 O440 1.273 . S
O443 Mg430 2.010 . S
O443 C435 1.249 . S
Mg444 O445 2.028 1_655 S
Mg444 O451 1.986 1_655 S
Mg444 O453 2.114 . S
Mg444 O454 2.251 1_655 S
Mg444 O457 2.010 . S
O445 Mg444 2.028 1_455 S
O445 C448 1.250 . S
O446 Mg447 2.028 . S
O446 C448 1.248 . S
Mg447 O446 2.028 . S
Mg447 O452 2.032 . S
Mg447 O454 2.079 . S
C448 O445 1.250 . S
C448 O446 1.248 . S
C449 O450 1.264 . S
C449 O457 1.249 . S
O450 C449 1.264 . S
O451 Mg444 1.986 1_455 S
O451 C455 1.246 . S
O452 Mg447 2.032 . S
O452 C455 1.259 . S
O453 Mg444 2.114 . S
O453 C456 1.252 . S
O454 Mg444 2.251 1_455 S
O454 Mg447 2.079 . S
O454 C456 1.273 1_455 S
C455 O451 1.246 . S
C455 O452 1.259 . S
C456 O453 1.252 . S
C456 O454 1.273 1_655 S
O457 Mg444 2.010 . S
O457 C449 1.249 . S
Mg458 O459 2.028 . S
Mg458 O465 1.986 . S
Mg458 O467 2.114 . S
Mg458 O468 2.251 . S
Mg458 O471 2.010 . S
O459 Mg458 2.028 . S
O459 C462 1.250 . S
O460 Mg461 2.028 . S
O460 C462 1.248 . S
Mg461 O460 2.028 . S
Mg461 O466 2.032 . S
Mg461 O468 2.079 . S
C462 O459 1.250 . S
C462 O460 1.248 . S
C463 O464 1.264 . S
C463 O471 1.249 . S
O464 C463 1.264 . S
O465 Mg458 1.986 . S
O465 C469 1.246 . S
O466 Mg461 2.032 . S
O466 C469 1.259 . S
O467 Mg458 2.114 . S
O467 C470 1.252 . S
O468 Mg458 2.251 . S
O468 Mg461 2.079 . S
O468 C470 1.273 . S
C469 O465 1.246 . S
C469 O466 1.259 . S
C470 O467 1.252 . S
C470 O468 1.273 . S
O471 Mg458 2.010 . S
O471 C463 1.249 . S
H472 C478 0.930 . S
H473 C481 0.930 . S
H474 C482 0.930 . S
H475 C483 0.930 . S
H476 C486 0.930 . S
H477 C487 0.930 . S
C478 H472 0.930 . S
C478 C479 1.355 . S
C478 C480 1.415 . S
C479 C478 1.355 . S
C479 C481 1.419 . S
C480 C478 1.415 . S
C480 C485 1.425 . S
C480 C487 1.409 . S
C481 H473 0.930 . S
C481 C479 1.419 . S
C481 C482 1.362 . S
C482 H474 0.930 . S
C482 C481 1.362 . S
C482 C485 1.409 . S
C483 H475 0.930 . S
C483 C484 1.355 . S
C483 C485 1.415 . S
C484 C483 1.355 . S
C484 C486 1.419 . S
C485 C480 1.425 . S
C485 C482 1.409 . S
C485 C483 1.415 . S
C486 H476 0.930 . S
C486 C484 1.419 . S
C486 C487 1.362 . S
C487 H477 0.930 . S
C487 C480 1.409 . S
C487 C486 1.362 . S
H488 C494 0.930 . S
H489 C497 0.930 1_655 S
H490 C498 0.930 . S
H491 C499 0.930 . S
H492 C502 0.930 . S
H493 C503 0.930 . S
C494 H488 0.930 . S
C494 C495 1.355 . S
C494 C496 1.415 . S
C495 C494 1.355 . S
C495 C497 1.419 . S
C496 C494 1.415 . S
C496 C501 1.425 . S
C496 C503 1.409 . S
C497 H489 0.930 1_455 S
C497 C495 1.419 . S
C497 C498 1.362 . S
C498 H490 0.930 . S
C498 C497 1.362 . S
C498 C501 1.409 . S
C499 H491 0.930 . S
C499 C500 1.355 . S
C499 C501 1.415 . S
C500 C499 1.355 . S
C500 C502 1.419 . S
C501 C496 1.425 . S
C501 C498 1.409 . S
C501 C499 1.415 . S
C502 H492 0.930 . S
C502 C500 1.419 . S
C502 C503 1.362 . S
C503 H493 0.930 . S
C503 C496 1.409 . S
C503 C502 1.362 . S
H504 C510 0.930 . S
H505 C513 0.930 . S
H506 C514 0.930 . S
H507 C515 0.930 . S
H508 C518 0.930 . S
H509 C519 0.930 . S
C510 H504 0.930 . S
C510 C511 1.355 . S
C510 C512 1.415 . S
C511 C510 1.355 . S
C511 C513 1.419 . S
C512 C510 1.415 . S
C512 C517 1.425 . S
C512 C519 1.409 . S
C513 H505 0.930 . S
C513 C511 1.419 . S
C513 C514 1.362 . S
C514 H506 0.930 . S
C514 C513 1.362 . S
C514 C517 1.409 . S
C515 H507 0.930 . S
C515 C516 1.355 . S
C515 C517 1.415 . S
C516 C515 1.355 . S
C516 C518 1.419 . S
C517 C512 1.425 . S
C517 C514 1.409 . S
C517 C515 1.415 . S
C518 H508 0.930 . S
C518 C516 1.419 . S
C518 C519 1.362 . S
C519 H509 0.930 . S
C519 C512 1.409 . S
C519 C518 1.362 . S
H520 C526 0.930 . S
H521 C529 0.930 . S
H522 C530 0.930 1_655 S
H523 C531 0.930 1_665 S
H524 C534 0.930 . S
H525 C535 0.930 . S
C526 H520 0.930 . S
C526 C527 1.355 1_545 S
C526 C528 1.415 . S
C527 C526 1.355 1_565 S
C527 C529 1.419 . S
C528 C526 1.415 . S
C528 C533 1.425 . S
C528 C535 1.409 . S
C529 H521 0.930 . S
C529 C527 1.419 . S
C529 C530 1.362 . S
C530 H522 0.930 1_455 S
C530 C529 1.362 . S
C530 C533 1.409 1_565 S
C531 H523 0.930 1_445 S
C531 C532 1.355 . S
C531 C533 1.415 . S
C532 C531 1.355 . S
C532 C534 1.419 . S
C533 C528 1.425 . S
C533 C530 1.409 1_545 S
C533 C531 1.415 . S
C534 H524 0.930 . S
C534 C532 1.419 . S
C534 C535 1.362 . S
C535 H525 0.930 . S
C535 C528 1.409 . S
C535 C534 1.362 . S
H536 C542 0.930 . S
H537 C545 0.930 . S
H538 C546 0.930 . S
H539 C547 0.930 . S
H540 C550 0.930 . S
H541 C551 0.930 . S
C542 H536 0.930 . S
C542 C543 1.355 . S
C542 C544 1.415 . S
C543 C542 1.355 . S
C543 C545 1.419 . S
C544 C542 1.415 . S
C544 C549 1.425 . S
C544 C551 1.409 . S
C545 H537 0.930 . S
C545 C543 1.419 . S
C545 C546 1.362 . S
C546 H538 0.930 . S
C546 C545 1.362 . S
C546 C549 1.409 . S
C547 H539 0.930 . S
C547 C548 1.355 . S
C547 C549 1.415 . S
C548 C547 1.355 . S
C548 C550 1.419 . S
C549 C544 1.425 . S
C549 C546 1.409 . S
C549 C547 1.415 . S
C550 H540 0.930 . S
C550 C548 1.419 . S
C550 C551 1.362 . S
C551 H541 0.930 . S
C551 C544 1.409 . S
C551 C550 1.362 . S
H552 C558 0.930 . S
H553 C561 0.930 . S
H554 C562 0.930 . S
H555 C563 0.930 . S
H556 C566 0.930 . S
H557 C567 0.930 . S
C558 H552 0.930 . S
C558 C559 1.355 . S
C558 C560 1.415 . S
C559 C558 1.355 . S
C559 C561 1.419 . S
C560 C558 1.415 . S
C560 C565 1.425 . S
C560 C567 1.409 . S
C561 H553 0.930 . S
C561 C559 1.419 . S
C561 C562 1.362 . S
C562 H554 0.930 . S
C562 C561 1.362 . S
C562 C565 1.409 . S
C563 H555 0.930 . S
C563 C564 1.355 . S
C563 C565 1.415 . S
C564 C563 1.355 . S
C564 C566 1.419 . S
C565 C560 1.425 . S
C565 C562 1.409 . S
C565 C563 1.415 . S
C566 H556 0.930 . S
C566 C564 1.419 . S
C566 C567 1.362 . S
C567 H557 0.930 . S
C567 C560 1.409 . S
C567 C566 1.362 . S
H568 C574 0.930 . S
H569 C577 0.930 . S
H570 C578 0.930 . S
H571 C579 0.930 . S
H572 C582 0.930 . S
H573 C583 0.930 . S
C574 H568 0.930 . S
C574 C575 1.355 . S
C574 C576 1.415 . S
C575 C574 1.355 . S
C575 C577 1.419 . S
C576 C574 1.415 . S
C576 C581 1.425 . S
C576 C583 1.409 . S
C577 H569 0.930 . S
C577 C575 1.419 . S
C577 C578 1.362 . S
C578 H570 0.930 . S
C578 C577 1.362 . S
C578 C581 1.409 . S
C579 H571 0.930 . S
C579 C580 1.355 . S
C579 C581 1.415 . S
C580 C579 1.355 . S
C580 C582 1.419 . S
C581 C576 1.425 . S
C581 C578 1.409 . S
C581 C579 1.415 . S
C582 H572 0.930 . S
C582 C580 1.419 . S
C582 C583 1.362 . S
C583 H573 0.930 . S
C583 C576 1.409 . S
C583 C582 1.362 . S
H584 C590 0.930 . S
H585 C593 0.930 . S
H586 C594 0.930 . S
H587 C595 0.930 . S
H588 C598 0.930 . S
H589 C599 0.930 . S
C590 H584 0.930 . S
C590 C591 1.355 . S
C590 C592 1.415 . S
C591 C590 1.355 . S
C591 C593 1.419 1_565 S
C592 C590 1.415 . S
C592 C597 1.425 1_565 S
C592 C599 1.409 . S
C593 H585 0.930 . S
C593 C591 1.419 1_545 S
C593 C594 1.362 . S
C594 H586 0.930 . S
C594 C593 1.362 . S
C594 C597 1.409 . S
C595 H587 0.930 . S
C595 C596 1.352 . S
C595 C597 1.415 . S
C596 C595 1.352 . S
C596 C598 1.422 1_545 S
C597 C592 1.425 1_545 S
C597 C594 1.409 . S
C597 C595 1.415 . S
C598 H588 0.930 . S
C598 C596 1.422 1_565 S
C598 C599 1.362 . S
C599 H589 0.930 . S
C599 C592 1.409 . S
C599 C598 1.362 . S
H600 C606 0.930 . S
H601 C609 0.930 . S
H602 C610 0.930 . S
H603 C611 0.930 . S
H604 C614 0.930 . S
H605 C615 0.930 . S
C606 H600 0.930 . S
C606 C607 1.355 . S
C606 C608 1.415 . S
C607 C606 1.355 . S
C607 C609 1.419 . S
C608 C606 1.415 . S
C608 C613 1.425 . S
C608 C615 1.409 . S
C609 H601 0.930 . S
C609 C607 1.419 . S
C609 C610 1.362 . S
C610 H602 0.930 . S
C610 C609 1.362 . S
C610 C613 1.409 . S
C611 H603 0.930 . S
C611 C612 1.355 . S
C611 C613 1.415 . S
C612 C611 1.355 . S
C612 C614 1.419 . S
C613 C608 1.425 . S
C613 C610 1.409 . S
C613 C611 1.415 . S
C614 H604 0.930 . S
C614 C612 1.419 . S
C614 C615 1.362 . S
C615 H605 0.930 . S
C615 C608 1.409 . S
C615 C614 1.362 . S
H616 C622 0.930 . S
H617 C625 0.930 . S
H618 C626 0.930 . S
H619 C627 0.930 . S
H620 C630 0.930 . S
H621 C631 0.930 . S
C622 H616 0.930 . S
C622 C623 1.355 . S
C622 C624 1.415 . S
C623 C622 1.355 . S
C623 C625 1.419 . S
C624 C622 1.415 . S
C624 C629 1.425 . S
C624 C631 1.409 . S
C625 H617 0.930 . S
C625 C623 1.419 . S
C625 C626 1.362 . S
C626 H618 0.930 . S
C626 C625 1.362 . S
C626 C629 1.409 . S
C627 H619 0.930 . S
C627 C628 1.355 . S
C627 C629 1.415 . S
C628 C627 1.355 . S
C628 C630 1.419 . S
C629 C624 1.425 . S
C629 C626 1.409 . S
C629 C627 1.415 . S
C630 H620 0.930 . S
C630 C628 1.419 . S
C630 C631 1.362 . S
C631 H621 0.930 . S
C631 C624 1.409 . S
C631 C630 1.362 . S
H632 C638 0.930 . S
H633 C641 0.930 . S
H634 C642 0.930 . S
H635 C643 0.930 . S
H636 C646 0.930 . S
H637 C647 0.930 . S
C638 H632 0.930 . S
C638 C639 1.355 . S
C638 C640 1.415 . S
C639 C638 1.355 . S
C639 C641 1.419 . S
C640 C638 1.415 . S
C640 C645 1.425 . S
C640 C647 1.409 . S
C641 H633 0.930 . S
C641 C639 1.419 . S
C641 C642 1.362 . S
C642 H634 0.930 . S
C642 C641 1.362 . S
C642 C645 1.409 . S
C643 H635 0.930 . S
C643 C644 1.355 . S
C643 C645 1.415 . S
C644 C643 1.355 . S
C644 C646 1.419 . S
C645 C640 1.425 . S
C645 C642 1.409 . S
C645 C643 1.415 . S
C646 H636 0.930 . S
C646 C644 1.419 . S
C646 C647 1.362 . S
C647 H637 0.930 . S
C647 C640 1.409 . S
C647 C646 1.362 . S
H648 C654 0.930 . S
H649 C657 0.930 . S
H650 C658 0.930 . S
H651 C659 0.930 . S
H652 C662 0.930 . S
H653 C663 0.930 . S
C654 H648 0.930 . S
C654 C655 1.355 . S
C654 C656 1.415 . S
C655 C654 1.355 . S
C655 C657 1.419 . S
C656 C654 1.415 . S
C656 C661 1.425 . S
C656 C663 1.409 . S
C657 H649 0.930 . S
C657 C655 1.419 . S
C657 C658 1.362 . S
C658 H650 0.930 . S
C658 C657 1.362 . S
C658 C661 1.409 . S
C659 H651 0.930 . S
C659 C660 1.355 . S
C659 C661 1.415 . S
C660 C659 1.355 . S
C660 C662 1.419 . S
C661 C656 1.425 . S
C661 C658 1.409 . S
C661 C659 1.415 . S
C662 H652 0.930 . S
C662 C660 1.419 . S
C662 C663 1.362 . S
C663 H653 0.930 . S
C663 C656 1.409 . S
C663 C662 1.362 . S
H664 C670 0.930 . S
H665 C673 0.930 . S
H666 C674 0.930 . S
H667 C675 0.930 . S
H668 C678 0.930 . S
H669 C679 0.930 . S
C670 H664 0.930 . S
C670 C671 1.355 . S
C670 C672 1.415 . S
C671 C670 1.355 . S
C671 C673 1.419 . S
C672 C670 1.415 . S
C672 C677 1.425 . S
C672 C679 1.409 . S
C673 H665 0.930 . S
C673 C671 1.419 . S
C673 C674 1.362 . S
C674 H666 0.930 . S
C674 C673 1.362 . S
C674 C677 1.409 . S
C675 H667 0.930 . S
C675 C676 1.355 . S
C675 C677 1.415 . S
C676 C675 1.355 . S
C676 C678 1.419 . S
C677 C672 1.425 . S
C677 C674 1.409 . S
C677 C675 1.415 . S
C678 H668 0.930 . S
C678 C676 1.419 . S
C678 C679 1.362 . S
C679 H669 0.930 . S
C679 C672 1.409 . S
C679 C678 1.362 . S
H680 C686 0.930 . S
H681 C689 0.930 . S
H682 C690 0.930 . S
H683 C691 0.930 . S
H684 C694 0.930 . S
H685 C695 0.930 . S
C686 H680 0.930 . S
C686 C687 1.355 . S
C686 C688 1.415 . S
C687 C686 1.355 . S
C687 C689 1.419 . S
C688 C686 1.415 . S
C688 C693 1.425 . S
C688 C695 1.409 . S
C689 H681 0.930 . S
C689 C687 1.419 . S
C689 C690 1.362 . S
C690 H682 0.930 . S
C690 C689 1.362 . S
C690 C693 1.409 . S
C691 H683 0.930 . S
C691 C692 1.355 . S
C691 C693 1.415 . S
C692 C691 1.355 . S
C692 C694 1.419 . S
C693 C688 1.425 . S
C693 C690 1.409 . S
C693 C691 1.415 . S
C694 H684 0.930 . S
C694 C692 1.419 . S
C694 C695 1.362 . S
C695 H685 0.930 . S
C695 C688 1.409 . S
C695 C694 1.362 . S
H696 C702 0.930 . S
H697 C705 0.930 . S
H698 C706 0.930 . S
H699 C707 0.930 . S
H700 C710 0.930 . S
H701 C711 0.930 . S
C702 H696 0.930 . S
C702 C703 1.355 . S
C702 C704 1.415 . S
C703 C702 1.355 . S
C703 C705 1.419 . S
C704 C702 1.415 . S
C704 C709 1.425 . S
C704 C711 1.409 . S
C705 H697 0.930 . S
C705 C703 1.419 . S
C705 C706 1.362 . S
C706 H698 0.930 . S
C706 C705 1.362 . S
C706 C709 1.409 . S
C707 H699 0.930 . S
C707 C708 1.355 . S
C707 C709 1.415 . S
C708 C707 1.355 . S
C708 C710 1.419 . S
C709 C704 1.425 . S
C709 C706 1.409 . S
C709 C707 1.415 . S
C710 H700 0.930 . S
C710 C708 1.419 . S
C710 C711 1.362 . S
C711 H701 0.930 . S
C711 C704 1.409 . S
C711 C710 1.362 . S
H712 C718 0.930 1_455 S
H713 C721 0.930 . S
H714 C722 0.930 . S
H715 C723 0.930 . S
H716 C726 0.930 . S
H717 C727 0.930 . S
C718 H712 0.930 1_655 S
C718 C719 1.355 . S
C718 C720 1.415 . S
C719 C718 1.355 . S
C719 C721 1.419 . S
C720 C718 1.415 . S
C720 C725 1.425 . S
C720 C727 1.409 1_655 S
C721 H713 0.930 . S
C721 C719 1.419 . S
C721 C722 1.362 . S
C722 H714 0.930 . S
C722 C721 1.362 . S
C722 C725 1.409 . S
C723 H715 0.930 . S
C723 C724 1.355 . S
C723 C725 1.415 . S
C724 C723 1.355 . S
C724 C726 1.419 1_655 S
C725 C720 1.425 . S
C725 C722 1.409 . S
C725 C723 1.415 . S
C726 H716 0.930 . S
C726 C724 1.419 1_455 S
C726 C727 1.362 . S
C727 H717 0.930 . S
C727 C720 1.409 1_455 S
C727 C726 1.362 . S
H728 C734 0.930 . S
H729 C737 0.930 . S
H730 C738 0.930 . S
H731 C739 0.930 . S
H732 C742 0.930 . S
H733 C743 0.930 . S
C734 H728 0.930 . S
C734 C735 1.355 . S
C734 C736 1.415 . S
C735 C734 1.355 . S
C735 C737 1.419 . S
C736 C734 1.415 . S
C736 C741 1.425 . S
C736 C743 1.409 . S
C737 H729 0.930 . S
C737 C735 1.419 . S
C737 C738 1.362 . S
C738 H730 0.930 . S
C738 C737 1.362 . S
C738 C741 1.409 . S
C739 H731 0.930 . S
C739 C740 1.355 . S
C739 C741 1.415 . S
C740 C739 1.355 . S
C740 C742 1.419 . S
C741 C736 1.425 . S
C741 C738 1.409 . S
C741 C739 1.415 . S
C742 H732 0.930 . S
C742 C740 1.419 . S
C742 C743 1.362 . S
C743 H733 0.930 . S
C743 C736 1.409 . S
C743 C742 1.362 . S
H744 C750 0.930 . S
H745 C753 0.930 . S
H746 C754 0.930 . S
H747 C755 0.930 . S
H748 C758 0.930 . S
H749 C759 0.930 . S
C750 H744 0.930 . S
C750 C751 1.355 . S
C750 C752 1.415 . S
C751 C750 1.355 . S
C751 C753 1.419 . S
C752 C750 1.415 . S
C752 C757 1.425 . S
C752 C759 1.409 . S
C753 H745 0.930 . S
C753 C751 1.419 . S
C753 C754 1.362 . S
C754 H746 0.930 . S
C754 C753 1.362 . S
C754 C757 1.409 . S
C755 H747 0.930 . S
C755 C756 1.355 . S
C755 C757 1.415 . S
C756 C755 1.355 . S
C756 C758 1.419 . S
C757 C752 1.425 . S
C757 C754 1.409 . S
C757 C755 1.415 . S
C758 H748 0.930 . S
C758 C756 1.419 . S
C758 C759 1.362 . S
C759 H749 0.930 . S
C759 C752 1.409 . S
C759 C758 1.362 . S
H760 C766 0.930 1_545 S
H761 C769 0.933 . S
H762 C770 0.930 . S
H763 C771 0.930 . S
H764 C774 0.930 . S
H765 C775 0.930 1_556 S
C766 H760 0.930 1_565 S
C766 C767 1.353 . S
C766 C768 1.415 1_556 S
C767 C766 1.353 . S
C767 C769 1.442 . S
C768 C766 1.415 1_554 S
C768 C773 1.425 . S
C768 C775 1.409 . S
C769 H761 0.933 . S
C769 C767 1.442 . S
C769 C770 1.351 1_556 S
C770 H762 0.930 . S
C770 C769 1.351 1_554 S
C770 C773 1.409 . S
C771 H763 0.930 . S
C771 C772 1.355 . S
C771 C773 1.415 . S
C772 C771 1.355 . S
C772 C774 1.419 . S
C773 C768 1.425 . S
C773 C770 1.409 . S
C773 C771 1.415 . S
C774 H764 0.930 . S
C774 C772 1.419 . S
C774 C775 1.362 . S
C775 H765 0.930 1_554 S
C775 C768 1.409 . S
C775 C774 1.362 . S
H776 C782 0.930 . S
H777 C785 0.930 . S
H778 C786 0.930 . S
H779 C787 0.930 . S
H780 C790 0.930 . S
H781 C791 0.930 . S
C782 H776 0.930 . S
C782 C783 1.355 . S
C782 C784 1.415 . S
C783 C782 1.355 . S
C783 C785 1.419 . S
C784 C782 1.415 . S
C784 C789 1.425 . S
C784 C791 1.409 . S
C785 H777 0.930 . S
C785 C783 1.419 . S
C785 C786 1.362 . S
C786 H778 0.930 . S
C786 C785 1.362 . S
C786 C789 1.409 . S
C787 H779 0.930 . S
C787 C788 1.355 . S
C787 C789 1.415 . S
C788 C787 1.355 . S
C788 C790 1.419 . S
C789 C784 1.425 . S
C789 C786 1.409 . S
C789 C787 1.415 . S
C790 H780 0.930 . S
C790 C788 1.419 . S
C790 C791 1.362 . S
C791 H781 0.930 . S
C791 C784 1.409 . S
C791 C790 1.362 . S
H792 C798 0.930 . S
H793 C801 0.930 . S
H794 C802 0.930 . S
H795 C803 0.930 . S
H796 C806 0.930 . S
H797 C807 0.930 . S
C798 H792 0.930 . S
C798 C799 1.355 . S
C798 C800 1.415 . S
C799 C798 1.355 . S
C799 C801 1.419 . S
C800 C798 1.415 . S
C800 C805 1.425 . S
C800 C807 1.409 . S
C801 H793 0.930 . S
C801 C799 1.419 . S
C801 C802 1.362 . S
C802 H794 0.930 . S
C802 C801 1.362 . S
C802 C805 1.409 . S
C803 H795 0.930 . S
C803 C804 1.355 . S
C803 C805 1.415 . S
C804 C803 1.355 . S
C804 C806 1.419 . S
C805 C800 1.425 . S
C805 C802 1.409 . S
C805 C803 1.415 . S
C806 H796 0.930 . S
C806 C804 1.419 . S
C806 C807 1.362 . S
C807 H797 0.930 . S
C807 C800 1.409 . S
C807 C806 1.362 . S
H808 C814 0.930 . S
H809 C817 0.930 . S
H810 C818 0.930 . S
H811 C819 0.930 . S
H812 C822 0.930 . S
H813 C823 0.930 . S
C814 H808 0.930 . S
C814 C815 1.355 . S
C814 C816 1.415 . S
C815 C814 1.355 . S
C815 C817 1.419 . S
C816 C814 1.415 . S
C816 C821 1.425 . S
C816 C823 1.409 . S
C817 H809 0.930 . S
C817 C815 1.419 . S
C817 C818 1.362 . S
C818 H810 0.930 . S
C818 C817 1.362 . S
C818 C821 1.409 . S
C819 H811 0.930 . S
C819 C820 1.355 . S
C819 C821 1.415 . S
C820 C819 1.355 . S
C820 C822 1.419 . S
C821 C816 1.425 . S
C821 C818 1.409 . S
C821 C819 1.415 . S
C822 H812 0.930 . S
C822 C820 1.419 . S
C822 C823 1.362 . S
C823 H813 0.930 . S
C823 C816 1.409 . S
C823 C822 1.362 . S
H824 C830 0.930 . S
H825 C833 0.930 . S
H826 C834 0.930 . S
H827 C835 0.930 . S
H828 C838 0.930 . S
H829 C839 0.930 . S
C830 H824 0.930 . S
C830 C831 1.355 . S
C830 C832 1.415 . S
C831 C830 1.355 . S
C831 C833 1.419 . S
C832 C830 1.415 . S
C832 C837 1.425 . S
C832 C839 1.409 . S
C833 H825 0.930 . S
C833 C831 1.419 . S
C833 C834 1.362 . S
C834 H826 0.930 . S
C834 C833 1.362 . S
C834 C837 1.409 . S
C835 H827 0.930 . S
C835 C836 1.355 . S
C835 C837 1.415 . S
C836 C835 1.355 . S
C836 C838 1.419 . S
C837 C832 1.425 . S
C837 C834 1.409 . S
C837 C835 1.415 . S
C838 H828 0.930 . S
C838 C836 1.419 . S
C838 C839 1.362 . S
C839 H829 0.930 . S
C839 C832 1.409 . S
C839 C838 1.362 . S
H840 C846 0.930 . S
H841 C849 0.930 . S
H842 C850 0.930 . S
H843 C851 0.930 . S
H844 C854 0.930 . S
H845 C855 0.930 . S
C846 H840 0.930 . S
C846 C847 1.355 . S
C846 C848 1.415 . S
C847 C846 1.355 . S
C847 C849 1.419 . S
C848 C846 1.415 . S
C848 C853 1.425 . S
C848 C855 1.409 . S
C849 H841 0.930 . S
C849 C847 1.419 . S
C849 C850 1.362 . S
C850 H842 0.930 . S
C850 C849 1.362 . S
C850 C853 1.409 . S
C851 H843 0.930 . S
C851 C852 1.355 . S
C851 C853 1.415 . S
C852 C851 1.355 . S
C852 C854 1.419 . S
C853 C848 1.425 . S
C853 C850 1.409 . S
C853 C851 1.415 . S
C854 H844 0.930 . S
C854 C852 1.419 . S
C854 C855 1.362 . S
C855 H845 0.930 . S
C855 C848 1.409 . S
C855 C854 1.362 . S
H856 C862 0.930 . S
H857 C865 0.930 . S
H858 C866 0.930 . S
H859 C867 0.930 . S
H860 C870 0.930 . S
H861 C871 0.930 . S
C862 H856 0.930 . S
C862 C863 1.355 . S
C862 C864 1.415 . S
C863 C862 1.355 . S
C863 C865 1.419 . S
C864 C862 1.415 . S
C864 C869 1.425 . S
C864 C871 1.409 . S
C865 H857 0.930 . S
C865 C863 1.419 . S
C865 C866 1.362 . S
C866 H858 0.930 . S
C866 C865 1.362 . S
C866 C869 1.409 . S
C867 H859 0.930 . S
C867 C868 1.355 . S
C867 C869 1.415 . S
C868 C867 1.355 . S
C868 C870 1.419 . S
C869 C864 1.425 . S
C869 C866 1.409 . S
C869 C867 1.415 . S
C870 H860 0.930 . S
C870 C868 1.419 . S
C870 C871 1.362 . S
C871 H861 0.930 . S
C871 C864 1.409 . S
C871 C870 1.362 . S
H872 C878 0.930 . S
H873 C881 0.930 1_565 S
H874 C882 0.930 . S
H875 C883 0.930 1_565 S
H876 C886 0.930 . S
H877 C887 0.930 . S
C878 H872 0.930 . S
C878 C879 1.355 . S
C878 C880 1.415 . S
C879 C878 1.355 . S
C879 C881 1.419 . S
C880 C878 1.415 . S
C880 C885 1.425 . S
C880 C887 1.409 . S
C881 H873 0.930 1_545 S
C881 C879 1.419 . S
C881 C882 1.362 1_545 S
C882 H874 0.930 . S
C882 C881 1.362 1_565 S
C882 C885 1.409 1_565 S
C883 H875 0.930 1_545 S
C883 C884 1.355 . S
C883 C885 1.415 . S
C884 C883 1.355 . S
C884 C886 1.419 . S
C885 C880 1.425 . S
C885 C882 1.409 1_545 S
C885 C883 1.415 . S
C886 H876 0.930 . S
C886 C884 1.419 . S
C886 C887 1.362 . S
C887 H877 0.930 . S
C887 C880 1.409 . S
C887 C886 1.362 . S
H888 C894 0.930 . S
H889 C897 0.930 . S
H890 C898 0.930 . S
H891 C899 0.930 . S
H892 C902 0.930 . S
H893 C903 0.930 . S
C894 H888 0.930 . S
C894 C895 1.355 . S
C894 C896 1.415 . S
C895 C894 1.355 . S
C895 C897 1.419 . S
C896 C894 1.415 . S
C896 C901 1.425 . S
C896 C903 1.409 . S
C897 H889 0.930 . S
C897 C895 1.419 . S
C897 C898 1.362 . S
C898 H890 0.930 . S
C898 C897 1.362 . S
C898 C901 1.409 . S
C899 H891 0.930 . S
C899 C900 1.355 . S
C899 C901 1.415 . S
C900 C899 1.355 . S
C900 C902 1.419 . S
C901 C896 1.425 . S
C901 C898 1.409 . S
C901 C899 1.415 . S
C902 H892 0.930 . S
C902 C900 1.419 . S
C902 C903 1.362 . S
C903 H893 0.930 . S
C903 C896 1.409 . S
C903 C902 1.362 . S
H904 C910 0.930 . S
H905 C913 0.930 . S
H906 C914 0.930 . S
H907 C915 0.930 . S
H908 C918 0.930 . S
H909 C919 0.930 . S
C910 H904 0.930 . S
C910 C911 1.355 . S
C910 C912 1.415 . S
C911 C910 1.355 . S
C911 C913 1.419 . S
C912 C910 1.415 . S
C912 C917 1.425 . S
C912 C919 1.409 . S
C913 H905 0.930 . S
C913 C911 1.419 . S
C913 C914 1.362 . S
C914 H906 0.930 . S
C914 C913 1.362 . S
C914 C917 1.409 . S
C915 H907 0.930 . S
C915 C916 1.355 . S
C915 C917 1.415 . S
C916 C915 1.355 . S
C916 C918 1.419 . S
C917 C912 1.425 . S
C917 C914 1.409 . S
C917 C915 1.415 . S
C918 H908 0.930 . S
C918 C916 1.419 . S
C918 C919 1.362 . S
C919 H909 0.930 . S
C919 C912 1.409 . S
C919 C918 1.362 . S
H920 C926 0.930 . S
H921 C929 0.930 . S
H922 C930 0.930 . S
H923 C931 0.930 . S
H924 C934 0.930 . S
H925 C935 0.930 . S
C926 H920 0.930 . S
C926 C927 1.355 . S
C926 C928 1.415 . S
C927 C926 1.355 . S
C927 C929 1.419 . S
C928 C926 1.415 . S
C928 C933 1.425 . S
C928 C935 1.409 . S
C929 H921 0.930 . S
C929 C927 1.419 . S
C929 C930 1.362 . S
C930 H922 0.930 . S
C930 C929 1.362 . S
C930 C933 1.409 . S
C931 H923 0.930 . S
C931 C932 1.355 . S
C931 C933 1.415 . S
C932 C931 1.355 . S
C932 C934 1.419 . S
C933 C928 1.425 . S
C933 C930 1.409 . S
C933 C931 1.415 . S
C934 H924 0.930 . S
C934 C932 1.419 . S
C934 C935 1.362 . S
C935 H925 0.930 . S
C935 C928 1.409 . S
C935 C934 1.362 . S
H936 C942 0.930 . S
H937 C945 0.930 1_655 S
H938 C946 0.930 . S
H939 C947 0.930 1_565 S
H940 C950 0.930 . S
H941 C951 0.930 . S
C942 H936 0.930 . S
C942 C943 1.355 . S
C942 C944 1.415 . S
C943 C942 1.355 . S
C943 C945 1.419 1_545 S
C944 C942 1.415 . S
C944 C949 1.425 1_455 S
C944 C951 1.409 . S
C945 H937 0.930 1_455 S
C945 C943 1.419 1_565 S
C945 C946 1.362 1_455 S
C946 H938 0.930 . S
C946 C945 1.362 1_655 S
C946 C949 1.409 1_565 S
C947 H939 0.930 1_545 S
C947 C948 1.355 . S
C947 C949 1.415 . S
C948 C947 1.355 . S
C948 C950 1.419 1_655 S
C949 C944 1.425 1_655 S
C949 C946 1.409 1_545 S
C949 C947 1.415 . S
C950 H940 0.930 . S
C950 C948 1.419 1_455 S
C950 C951 1.362 . S
C951 H941 0.930 . S
C951 C944 1.409 . S
C951 C950 1.362 . S
H952 C958 0.930 . S
H953 C961 0.930 . S
H954 C962 0.930 . S
H955 C963 0.930 . S
H956 C966 0.930 . S
H957 C967 0.930 . S
C958 H952 0.930 . S
C958 C959 1.355 . S
C958 C960 1.415 . S
C959 C958 1.355 . S
C959 C961 1.419 . S
C960 C958 1.415 . S
C960 C965 1.425 . S
C960 C967 1.409 . S
C961 H953 0.930 . S
C961 C959 1.419 . S
C961 C962 1.362 . S
C962 H954 0.930 . S
C962 C961 1.362 . S
C962 C965 1.409 . S
C963 H955 0.930 . S
C963 C964 1.355 . S
C963 C965 1.415 . S
C964 C963 1.355 . S
C964 C966 1.419 . S
C965 C960 1.425 . S
C965 C962 1.409 . S
C965 C963 1.415 . S
C966 H956 0.930 . S
C966 C964 1.419 . S
C966 C967 1.362 . S
C967 H957 0.930 . S
C967 C960 1.409 . S
C967 C966 1.362 . S
H968 C974 0.930 . S
H969 C977 0.930 . S
H970 C978 0.930 . S
H971 C979 0.930 . S
H972 C982 0.930 . S
H973 C983 0.930 . S
C974 H968 0.930 . S
C974 C975 1.355 . S
C974 C976 1.415 . S
C975 C974 1.355 . S
C975 C977 1.419 . S
C976 C974 1.415 . S
C976 C981 1.425 . S
C976 C983 1.409 . S
C977 H969 0.930 . S
C977 C975 1.419 . S
C977 C978 1.362 . S
C978 H970 0.930 . S
C978 C977 1.362 . S
C978 C981 1.409 . S
C979 H971 0.930 . S
C979 C980 1.355 . S
C979 C981 1.415 . S
C980 C979 1.355 . S
C980 C982 1.419 . S
C981 C976 1.425 . S
C981 C978 1.409 . S
C981 C979 1.415 . S
C982 H972 0.930 . S
C982 C980 1.419 . S
C982 C983 1.362 . S
C983 H973 0.930 . S
C983 C976 1.409 . S
C983 C982 1.362 . S
H984 C990 0.930 . S
H985 C993 0.930 . S
H986 C994 0.930 . S
H987 C995 0.930 . S
H988 C998 0.930 . S
H989 C999 0.930 . S
C990 H984 0.930 . S
C990 C991 1.355 . S
C990 C992 1.415 . S
C991 C990 1.355 . S
C991 C993 1.419 . S
C992 C990 1.415 . S
C992 C997 1.425 . S
C992 C999 1.409 . S
C993 H985 0.930 . S
C993 C991 1.419 . S
C993 C994 1.362 . S
C994 H986 0.930 . S
C994 C993 1.362 . S
C994 C997 1.409 . S
C995 H987 0.930 . S
C995 C996 1.355 . S
C995 C997 1.415 . S
C996 C995 1.355 . S
C996 C998 1.419 . S
C997 C992 1.425 . S
C997 C994 1.409 . S
C997 C995 1.415 . S
C998 H988 0.930 . S
C998 C996 1.419 . S
C998 C999 1.362 . S
C999 H989 0.930 . S
C999 C992 1.409 . S
C999 C998 1.362 . S
H1000 C1006 0.930 . S
H1001 C1009 0.930 . S
H1002 C1010 0.930 . S
H1003 C1011 0.930 . S
H1004 C1014 0.930 . S
H1005 C1015 0.930 . S
C1006 H1000 0.930 . S
C1006 C1007 1.355 1_655 S
C1006 C1008 1.415 . S
C1007 C1006 1.355 1_455 S
C1007 C1009 1.419 . S
C1008 C1006 1.415 . S
C1008 C1013 1.425 1_655 S
C1008 C1015 1.409 . S
C1009 H1001 0.930 . S
C1009 C1007 1.419 . S
C1009 C1010 1.362 . S
C1010 H1002 0.930 . S
C1010 C1009 1.362 . S
C1010 C1013 1.409 . S
C1011 H1003 0.930 . S
C1011 C1012 1.355 . S
C1011 C1013 1.415 . S
C1012 C1011 1.355 . S
C1012 C1014 1.419 1_455 S
C1013 C1008 1.425 1_455 S
C1013 C1010 1.409 . S
C1013 C1011 1.415 . S
C1014 H1004 0.930 . S
C1014 C1012 1.419 1_655 S
C1014 C1015 1.362 . S
C1015 H1005 0.930 . S
C1015 C1008 1.409 . S
C1015 C1014 1.362 . S
H1016 C1022 0.930 . S
H1017 C1025 0.930 . S
H1018 C1026 0.930 . S
H1019 C1027 0.930 . S
H1020 C1030 0.930 . S
H1021 C1031 0.930 . S
C1022 H1016 0.930 . S
C1022 C1023 1.355 . S
C1022 C1024 1.415 . S
C1023 C1022 1.355 . S
C1023 C1025 1.419 . S
C1024 C1022 1.415 . S
C1024 C1029 1.425 . S
C1024 C1031 1.409 . S
C1025 H1017 0.930 . S
C1025 C1023 1.419 . S
C1025 C1026 1.362 . S
C1026 H1018 0.930 . S
C1026 C1025 1.362 . S
C1026 C1029 1.409 . S
C1027 H1019 0.930 . S
C1027 C1028 1.355 . S
C1027 C1029 1.415 . S
C1028 C1027 1.355 . S
C1028 C1030 1.419 . S
C1029 C1024 1.425 . S
C1029 C1026 1.409 . S
C1029 C1027 1.415 . S
C1030 H1020 0.930 . S
C1030 C1028 1.419 . S
C1030 C1031 1.362 . S
C1031 H1021 0.930 . S
C1031 C1024 1.409 . S
C1031 C1030 1.362 . S
H1032 C1038 0.930 1_655 S
H1033 C1041 0.930 . S
H1034 C1042 0.930 . S
H1035 C1043 0.930 . S
H1036 C1046 0.930 . S
H1037 C1047 0.930 . S
C1038 H1032 0.930 1_455 S
C1038 C1039 1.355 . S
C1038 C1040 1.415 . S
C1039 C1038 1.355 . S
C1039 C1041 1.419 . S
C1040 C1038 1.415 . S
C1040 C1045 1.425 . S
C1040 C1047 1.409 1_455 S
C1041 H1033 0.930 . S
C1041 C1039 1.419 . S
C1041 C1042 1.362 . S
C1042 H1034 0.930 . S
C1042 C1041 1.362 . S
C1042 C1045 1.409 . S
C1043 H1035 0.930 . S
C1043 C1044 1.355 . S
C1043 C1045 1.415 . S
C1044 C1043 1.355 . S
C1044 C1046 1.419 1_455 S
C1045 C1040 1.425 . S
C1045 C1042 1.409 . S
C1045 C1043 1.415 . S
C1046 H1036 0.930 . S
C1046 C1044 1.419 1_655 S
C1046 C1047 1.362 . S
C1047 H1037 0.930 . S
C1047 C1040 1.409 1_655 S
C1047 C1046 1.362 . S
H1048 C1054 0.930 . S
H1049 C1057 0.930 . S
H1050 C1058 0.930 . S
H1051 C1059 0.930 . S
H1052 C1062 0.930 . S
H1053 C1063 0.930 . S
C1054 H1048 0.930 . S
C1054 C1055 1.355 . S
C1054 C1056 1.415 . S
C1055 C1054 1.355 . S
C1055 C1057 1.419 . S
C1056 C1054 1.415 . S
C1056 C1061 1.425 . S
C1056 C1063 1.409 . S
C1057 H1049 0.930 . S
C1057 C1055 1.419 . S
C1057 C1058 1.362 . S
C1058 H1050 0.930 . S
C1058 C1057 1.362 . S
C1058 C1061 1.409 . S
C1059 H1051 0.930 . S
C1059 C1060 1.355 . S
C1059 C1061 1.415 . S
C1060 C1059 1.355 . S
C1060 C1062 1.419 . S
C1061 C1056 1.425 . S
C1061 C1058 1.409 . S
C1061 C1059 1.415 . S
C1062 H1052 0.930 . S
C1062 C1060 1.419 . S
C1062 C1063 1.362 . S
C1063 H1053 0.930 . S
C1063 C1056 1.409 . S
C1063 C1062 1.362 . S
H1064 C1070 0.930 . S
H1065 C1073 0.930 . S
H1066 C1074 0.930 . S
H1067 C1075 0.930 . S
H1068 C1078 0.930 . S
H1069 C1079 0.930 . S
C1070 H1064 0.930 . S
C1070 C1071 1.355 . S
C1070 C1072 1.415 . S
C1071 C1070 1.355 . S
C1071 C1073 1.419 . S
C1072 C1070 1.415 . S
C1072 C1077 1.425 . S
C1072 C1079 1.409 . S
C1073 H1065 0.930 . S
C1073 C1071 1.419 . S
C1073 C1074 1.362 . S
C1074 H1066 0.930 . S
C1074 C1073 1.362 . S
C1074 C1077 1.409 . S
C1075 H1067 0.930 . S
C1075 C1076 1.355 . S
C1075 C1077 1.415 . S
C1076 C1075 1.355 . S
C1076 C1078 1.419 . S
C1077 C1072 1.425 . S
C1077 C1074 1.409 . S
C1077 C1075 1.415 . S
C1078 H1068 0.930 . S
C1078 C1076 1.419 . S
C1078 C1079 1.362 . S
C1079 H1069 0.930 . S
C1079 C1072 1.409 . S
C1079 C1078 1.362 . S
H1080 C1086 0.930 . S
H1081 C1089 0.930 . S
H1082 C1090 0.930 . S
H1083 C1091 0.930 . S
H1084 C1094 0.930 . S
H1085 C1095 0.930 . S
C1086 H1080 0.930 . S
C1086 C1087 1.355 . S
C1086 C1088 1.415 . S
C1087 C1086 1.355 . S
C1087 C1089 1.419 . S
C1088 C1086 1.415 . S
C1088 C1093 1.425 . S
C1088 C1095 1.409 . S
C1089 H1081 0.930 . S
C1089 C1087 1.419 . S
C1089 C1090 1.362 . S
C1090 H1082 0.930 . S
C1090 C1089 1.362 . S
C1090 C1093 1.409 . S
C1091 H1083 0.930 . S
C1091 C1092 1.355 . S
C1091 C1093 1.415 . S
C1092 C1091 1.355 . S
C1092 C1094 1.419 . S
C1093 C1088 1.425 . S
C1093 C1090 1.409 . S
C1093 C1091 1.415 . S
C1094 H1084 0.930 . S
C1094 C1092 1.419 . S
C1094 C1095 1.362 . S
C1095 H1085 0.930 . S
C1095 C1088 1.409 . S
C1095 C1094 1.362 . S
H1096 C1102 0.930 . S
H1097 C1105 0.930 . S
H1098 C1106 0.930 . S
H1099 C1107 0.930 . S
H1100 C1110 0.930 . S
H1101 C1111 0.930 . S
C1102 H1096 0.930 . S
C1102 C1103 1.355 . S
C1102 C1104 1.415 . S
C1103 C1102 1.355 . S
C1103 C1105 1.419 . S
C1104 C1102 1.415 . S
C1104 C1109 1.425 . S
C1104 C1111 1.409 . S
C1105 H1097 0.930 . S
C1105 C1103 1.419 . S
C1105 C1106 1.362 . S
C1106 H1098 0.930 . S
C1106 C1105 1.362 . S
C1106 C1109 1.409 . S
C1107 H1099 0.930 . S
C1107 C1108 1.355 . S
C1107 C1109 1.415 . S
C1108 C1107 1.355 . S
C1108 C1110 1.419 . S
C1109 C1104 1.425 . S
C1109 C1106 1.409 . S
C1109 C1107 1.415 . S
C1110 H1100 0.930 . S
C1110 C1108 1.419 . S
C1110 C1111 1.362 . S
C1111 H1101 0.930 . S
C1111 C1104 1.409 . S
C1111 C1110 1.362 . S
H1112 C1118 0.930 . S
H1113 C1121 0.930 . S
H1114 C1122 0.930 . S
H1115 C1123 0.930 . S
H1116 C1126 0.930 . S
H1117 C1127 0.930 . S
C1118 H1112 0.930 . S
C1118 C1119 1.355 . S
C1118 C1120 1.415 . S
C1119 C1118 1.355 . S
C1119 C1121 1.419 . S
C1120 C1118 1.415 . S
C1120 C1125 1.425 . S
C1120 C1127 1.409 . S
C1121 H1113 0.930 . S
C1121 C1119 1.419 . S
C1121 C1122 1.362 . S
C1122 H1114 0.930 . S
C1122 C1121 1.362 . S
C1122 C1125 1.409 . S
C1123 H1115 0.930 . S
C1123 C1124 1.355 . S
C1123 C1125 1.415 . S
C1124 C1123 1.355 . S
C1124 C1126 1.419 . S
C1125 C1120 1.425 . S
C1125 C1122 1.409 . S
C1125 C1123 1.415 . S
C1126 H1116 0.930 . S
C1126 C1124 1.419 . S
C1126 C1127 1.362 . S
C1127 H1117 0.930 . S
C1127 C1120 1.409 . S
C1127 C1126 1.362 . S
H1128 C1134 0.930 . S
H1129 C1137 0.930 . S
H1130 C1138 0.930 . S
H1131 C1139 0.930 . S
H1132 C1142 0.930 . S
H1133 C1143 0.930 . S
C1134 H1128 0.930 . S
C1134 C1135 1.355 . S
C1134 C1136 1.415 . S
C1135 C1134 1.355 . S
C1135 C1137 1.419 . S
C1136 C1134 1.415 . S
C1136 C1141 1.425 . S
C1136 C1143 1.409 . S
C1137 H1129 0.930 . S
C1137 C1135 1.419 . S
C1137 C1138 1.362 . S
C1138 H1130 0.930 . S
C1138 C1137 1.362 . S
C1138 C1141 1.409 . S
C1139 H1131 0.930 . S
C1139 C1140 1.355 . S
C1139 C1141 1.415 . S
C1140 C1139 1.355 . S
C1140 C1142 1.419 . S
C1141 C1136 1.425 . S
C1141 C1138 1.409 . S
C1141 C1139 1.415 . S
C1142 H1132 0.930 . S
C1142 C1140 1.419 . S
C1142 C1143 1.362 . S
C1143 H1133 0.930 . S
C1143 C1136 1.409 . S
C1143 C1142 1.362 . S
H1144 C1150 0.930 . S
H1145 C1153 0.930 . S
H1146 C1154 0.930 . S
H1147 C1155 0.930 . S
H1148 C1158 0.930 . S
H1149 C1159 0.930 . S
C1150 H1144 0.930 . S
C1150 C1151 1.355 . S
C1150 C1152 1.415 . S
C1151 C1150 1.355 . S
C1151 C1153 1.419 . S
C1152 C1150 1.415 . S
C1152 C1157 1.425 . S
C1152 C1159 1.409 . S
C1153 H1145 0.930 . S
C1153 C1151 1.419 . S
C1153 C1154 1.362 . S
C1154 H1146 0.930 . S
C1154 C1153 1.362 . S
C1154 C1157 1.409 . S
C1155 H1147 0.930 . S
C1155 C1156 1.355 . S
C1155 C1157 1.415 . S
C1156 C1155 1.355 . S
C1156 C1158 1.419 . S
C1157 C1152 1.425 . S
C1157 C1154 1.409 . S
C1157 C1155 1.415 . S
C1158 H1148 0.930 . S
C1158 C1156 1.419 . S
C1158 C1159 1.362 . S
C1159 H1149 0.930 . S
C1159 C1152 1.409 . S
C1159 C1158 1.362 . S
H1160 C1166 0.930 . S
H1161 C1169 0.930 . S
H1162 C1170 0.930 . S
H1163 C1171 0.930 . S
H1164 C1174 0.930 . S
H1165 C1175 0.930 . S
C1166 H1160 0.930 . S
C1166 C1167 1.355 . S
C1166 C1168 1.415 . S
C1167 C1166 1.355 . S
C1167 C1169 1.419 . S
C1168 C1166 1.415 . S
C1168 C1173 1.425 . S
C1168 C1175 1.409 . S
C1169 H1161 0.930 . S
C1169 C1167 1.419 . S
C1169 C1170 1.362 . S
C1170 H1162 0.930 . S
C1170 C1169 1.362 . S
C1170 C1173 1.409 . S
C1171 H1163 0.930 . S
C1171 C1172 1.355 . S
C1171 C1173 1.415 . S
C1172 C1171 1.355 . S
C1172 C1174 1.419 . S
C1173 C1168 1.425 . S
C1173 C1170 1.409 . S
C1173 C1171 1.415 . S
C1174 H1164 0.930 . S
C1174 C1172 1.419 . S
C1174 C1175 1.362 . S
C1175 H1165 0.930 . S
C1175 C1168 1.409 . S
C1175 C1174 1.362 . S
H1176 C1182 0.930 . S
H1177 C1185 0.930 . S
H1178 C1186 0.930 . S
H1179 C1187 0.930 . S
H1180 C1190 0.930 . S
H1181 C1191 0.930 . S
C1182 H1176 0.930 . S
C1182 C1183 1.355 . S
C1182 C1184 1.415 . S
C1183 C1182 1.355 . S
C1183 C1185 1.419 1_556 S
C1184 C1182 1.415 . S
C1184 C1189 1.425 . S
C1184 C1191 1.409 . S
C1185 H1177 0.930 . S
C1185 C1183 1.419 1_554 S
C1185 C1186 1.362 . S
C1186 H1178 0.930 . S
C1186 C1185 1.362 . S
C1186 C1189 1.409 1_554 S
C1187 H1179 0.930 . S
C1187 C1188 1.355 1_554 S
C1187 C1189 1.415 1_554 S
C1188 C1187 1.355 1_556 S
C1188 C1190 1.419 . S
C1189 C1184 1.425 . S
C1189 C1186 1.409 1_556 S
C1189 C1187 1.415 1_556 S
C1190 H1180 0.930 . S
C1190 C1188 1.419 . S
C1190 C1191 1.362 . S
C1191 H1181 0.930 . S
C1191 C1184 1.409 . S
C1191 C1190 1.362 . S
H1192 C1198 0.930 . S
H1193 C1201 0.930 . S
H1194 C1202 0.930 . S
H1195 C1203 0.930 . S
H1196 C1206 0.930 . S
H1197 C1207 0.930 . S
C1198 H1192 0.930 . S
C1198 C1199 1.355 . S
C1198 C1200 1.415 . S
C1199 C1198 1.355 . S
C1199 C1201 1.419 . S
C1200 C1198 1.415 . S
C1200 C1205 1.425 . S
C1200 C1207 1.409 . S
C1201 H1193 0.930 . S
C1201 C1199 1.419 . S
C1201 C1202 1.362 . S
C1202 H1194 0.930 . S
C1202 C1201 1.362 . S
C1202 C1205 1.409 . S
C1203 H1195 0.930 . S
C1203 C1204 1.355 . S
C1203 C1205 1.415 . S
C1204 C1203 1.355 . S
C1204 C1206 1.419 . S
C1205 C1200 1.425 . S
C1205 C1202 1.409 . S
C1205 C1203 1.415 . S
C1206 H1196 0.930 . S
C1206 C1204 1.419 . S
C1206 C1207 1.362 . S
C1207 H1197 0.930 . S
C1207 C1200 1.409 . S
C1207 C1206 1.362 . S
H1208 C1214 0.930 . S
H1209 C1217 0.930 1_455 S
H1210 C1218 0.930 . S
H1211 C1219 0.930 . S
H1212 C1222 0.930 . S
H1213 C1223 0.930 . S
C1214 H1208 0.930 . S
C1214 C1215 1.355 . S
C1214 C1216 1.415 . S
C1215 C1214 1.355 . S
C1215 C1217 1.419 . S
C1216 C1214 1.415 . S
C1216 C1221 1.425 . S
C1216 C1223 1.409 . S
C1217 H1209 0.930 1_655 S
C1217 C1215 1.419 . S
C1217 C1218 1.362 . S
C1218 H1210 0.930 . S
C1218 C1217 1.362 . S
C1218 C1221 1.409 . S
C1219 H1211 0.930 . S
C1219 C1220 1.355 . S
C1219 C1221 1.415 . S
C1220 C1219 1.355 . S
C1220 C1222 1.419 . S
C1221 C1216 1.425 . S
C1221 C1218 1.409 . S
C1221 C1219 1.415 . S
C1222 H1212 0.930 . S
C1222 C1220 1.419 . S
C1222 C1223 1.362 . S
C1223 H1213 0.930 . S
C1223 C1216 1.409 . S
C1223 C1222 1.362 . S
H1224 C1230 0.930 . S
H1225 C1233 0.916 1_556 S
H1226 C1234 0.930 1_556 S
H1227 C1235 0.930 . S
H1228 C1238 0.930 . S
H1229 C1239 0.930 . S
C1230 H1224 0.930 . S
C1230 C1231 1.355 . S
C1230 C1232 1.415 . S
C1231 C1230 1.355 . S
C1231 C1233 1.419 . S
C1232 C1230 1.415 . S
C1232 C1237 1.425 . S
C1232 C1239 1.409 . S
C1233 H1225 0.916 1_554 S
C1233 C1231 1.419 . S
C1233 C1234 1.362 . S
C1234 H1226 0.930 1_554 S
C1234 C1233 1.362 . S
C1234 C1237 1.409 . S
C1235 H1227 0.930 . S
C1235 C1236 1.355 . S
C1235 C1237 1.415 . S
C1236 C1235 1.355 . S
C1236 C1238 1.419 . S
C1237 C1232 1.425 . S
C1237 C1234 1.409 . S
C1237 C1235 1.415 . S
C1238 H1228 0.930 . S
C1238 C1236 1.419 . S
C1238 C1239 1.362 . S
C1239 H1229 0.930 . S
C1239 C1232 1.409 . S
C1239 C1238 1.362 . S
C484 C315 1.791 . S
C479 C101 1.825 . S
C500 C323 0.865 . S
C495 C125 1.026 . S
C511 C139 1.920 . S
C516 C343 1.905 . S
C532 C357 1.729 1_455 S
C527 C82 1.770 . S
C548 C372 1.584 . S
C543 C196 1.602 . S
C564 C386 1.843 . S
C559 C234 1.837 . S
C575 C220 0.876 . S
C580 C400 1.030 . S
C596 C406 1.603 . S
C591 C173 1.651 . S
C607 C211 1.208 . S
C612 C420 1.138 . S
C628 C441 1.159 . S
C623 C182 1.147 . S
C639 C201 1.268 . S
C644 C421 1.218 . S
C660 C442 1.375 . S
C655 C239 1.244 . S
C671 C135 1.629 . S
C676 C449 1.353 . S
C687 C87 1.669 . S
C692 C455 1.847 . S
C703 C106 1.139 . S
C708 C448 1.296 . S
C719 C116 1.192 . S
C724 C456 1.219 . S
C735 C59 1.866 . S
C740 C350 1.850 . S
C751 C268 2.149 . S
C756 C351 1.898 . S
C772 C308 1.227 . S
C767 C291 1.226 1_565 S
C788 C329 1.421 . S
C783 C163 1.288 . S
C799 C78 1.985 1_545 S
C804 C364 1.988 . S
C820 C414 1.241 . S
C815 C215 1.234 . S
C836 C365 1.441 . S
C831 C177 1.584 . S
C852 C393 1.470 . S
C847 C230 1.833 . S
C868 C399 1.810 . S
C863 C272 1.838 . S
C879 C296 1.075 . S
C884 C407 0.956 . S
C895 C158 1.909 . S
C900 C371 1.856 . S
C916 C385 1.731 . S
C911 C253 1.747 . S
C927 C63 1.585 . S
C932 C344 1.588 . S
C948 C358 1.867 . S
C943 C6 1.869 . S
C964 C316 1.004 . S
C959 C30 0.960 . S
C980 C322 1.620 . S
C975 C40 1.685 . S
C991 C21 1.185 . S
C996 C434 1.188 . S
C1007 C49 1.064 . S
C1012 C427 1.111 . S
C1023 C68 1.249 . S
C1028 C435 1.043 . S
C1039 C11 1.288 . S
C1044 C428 1.384 . S
C1060 C463 1.357 . S
C1055 C154 1.615 . S
C1076 C469 1.848 . S
C1071 C258 1.761 . S
C1092 C462 1.304 . S
C1087 C277 1.113 . S
C1103 C287 1.232 1_554 S
C1108 C470 1.230 . S
C1119 C192 1.855 . S
C1124 C378 1.833 . S
C1140 C379 1.960 . S
C1135 C97 2.115 . S
C1156 C392 1.189 . S
C1151 C120 1.250 . S
C1172 C413 1.433 . S
C1167 C144 1.271 . S
C1183 C249 1.995 . S
C1188 C336 1.948 . S
C1204 C330 1.270 . S
C1199 C25 1.269 . S
C1215 C44 1.541 . S
C1220 C337 1.452 . S
C1236 C309 1.474 . S
C1231 C2 1.817 1_565 S
