# Generated by pormake.
# Topology pyr, (3,6)-cn, num edge types: 1
# Building blocks:
#     Node 0, Type 0, BuildingBlock: BETDAH_clean_linker_0, # of connection points: 3
#     Node 1, Type 0, BuildingBlock: BETDAH_clean_linker_0, # of connection points: 3
#     Node 2, Type 0, BuildingBlock: BETDAH_clean_linker_0, # of connection points: 3
#     Node 3, Type 0, BuildingBlock: BETDAH_clean_linker_0, # of connection points: 3
#     Node 4, Type 0, BuildingBlock: BETDAH_clean_linker_0, # of connection points: 3
#     Node 5, Type 0, BuildingBlock: BETDAH_clean_linker_0, # of connection points: 3
#     Node 6, Type 0, BuildingBlock: BETDAH_clean_linker_0, # of connection points: 3
#     Node 7, Type 0, BuildingBlock: BETDAH_clean_linker_0, # of connection points: 3
#     Node 8, Type 1, BuildingBlock: CIFDUS_clean_sbu_1, # of connection points: 6
#     Node 9, Type 1, BuildingBlock: CIFDUS_clean_sbu_1, # of connection points: 6
#     Node 10, Type 1, BuildingBlock: CIFDUS_clean_sbu_1, # of connection points: 6
#     Node 11, Type 1, BuildingBlock: CIFDUS_clean_sbu_1, # of connection points: 6
#     Edge 12, Type (0, 1), BuildingBlock: KIFKEQ_clean_linker_1, # of connection points: 2
#     Edge 13, Type (0, 1), BuildingBlock: KIFKEQ_clean_linker_1, # of connection points: 2
#     Edge 14, Type (0, 1), BuildingBlock: KIFKEQ_clean_linker_1, # of connection points: 2
#     Edge 15, Type (0, 1), BuildingBlock: KIFKEQ_clean_linker_1, # of connection points: 2
#     Edge 16, Type (0, 1), BuildingBlock: KIFKEQ_clean_linker_1, # of connection points: 2
#     Edge 17, Type (0, 1), BuildingBlock: KIFKEQ_clean_linker_1, # of connection points: 2
#     Edge 18, Type (0, 1), BuildingBlock: KIFKEQ_clean_linker_1, # of connection points: 2
#     Edge 19, Type (0, 1), BuildingBlock: KIFKEQ_clean_linker_1, # of connection points: 2
#     Edge 20, Type (0, 1), BuildingBlock: KIFKEQ_clean_linker_1, # of connection points: 2
#     Edge 21, Type (0, 1), BuildingBlock: KIFKEQ_clean_linker_1, # of connection points: 2
#     Edge 22, Type (0, 1), BuildingBlock: KIFKEQ_clean_linker_1, # of connection points: 2
#     Edge 23, Type (0, 1), BuildingBlock: KIFKEQ_clean_linker_1, # of connection points: 2
#     Edge 24, Type (0, 1), BuildingBlock: KIFKEQ_clean_linker_1, # of connection points: 2
#     Edge 25, Type (0, 1), BuildingBlock: KIFKEQ_clean_linker_1, # of connection points: 2
#     Edge 26, Type (0, 1), BuildingBlock: KIFKEQ_clean_linker_1, # of connection points: 2
#     Edge 27, Type (0, 1), BuildingBlock: KIFKEQ_clean_linker_1, # of connection points: 2
#     Edge 28, Type (0, 1), BuildingBlock: KIFKEQ_clean_linker_1, # of connection points: 2
#     Edge 29, Type (0, 1), BuildingBlock: KIFKEQ_clean_linker_1, # of connection points: 2
#     Edge 30, Type (0, 1), BuildingBlock: KIFKEQ_clean_linker_1, # of connection points: 2
#     Edge 31, Type (0, 1), BuildingBlock: KIFKEQ_clean_linker_1, # of connection points: 2
#     Edge 32, Type (0, 1), BuildingBlock: KIFKEQ_clean_linker_1, # of connection points: 2
#     Edge 33, Type (0, 1), BuildingBlock: KIFKEQ_clean_linker_1, # of connection points: 2
#     Edge 34, Type (0, 1), BuildingBlock: KIFKEQ_clean_linker_1, # of connection points: 2
#     Edge 35, Type (0, 1), BuildingBlock: KIFKEQ_clean_linker_1, # of connection points: 2
# Relax obj value: 0.083
# Max RMSD: 0.172
# Mean RMSD: 0.136
data_MOF--net-pry--node1-CIFDUS_clean_sbu_1--node2-BETDAH_clean_linker_0--edge1-KIFKEQ_clean_linker_1
_symmetry_space_group_name_H-M    P1
_symmetry_Int_Tables_number       1
_symmetry_cell_setting            triclinic
loop_
_symmetry_equiv_pos_as_xyz
'x, y, z'
_cell_length_a     36.652952
_cell_length_b     35.451067
_cell_length_c     34.933974
_cell_angle_alpha  92.040744
_cell_angle_beta   91.706703
_cell_angle_gamma 98.234077
loop_
_atom_site_label
_atom_site_type_symbol
_atom_site_fract_x
_atom_site_fract_y
_atom_site_fract_z
_atom_type_partial_charge
H0 H 0.20893 0.14344 0.24465 0.0
H1 H 0.22831 0.21047 0.14566 0.0
H2 H 0.15237 0.24129 0.22814 0.0
C3 C 0.20365 0.16769 0.22844 0.0
C4 C 0.17844 0.1916 0.24159 0.0
C5 C 0.2214 0.17398 0.19371 0.0
C6 C 0.21402 0.20464 0.17203 0.0
C7 C 0.18902 0.22856 0.1838 0.0
C8 C 0.17101 0.22209 0.2186 0.0
N9 N 0.18497 0.25975 0.16028 0.0
C10 C 0.15641 0.28173 0.15914 0.0
H11 H 0.43996 0.88383 0.73601 0.0
H12 H 0.39397 0.98717 0.71817 0.0
H13 H 0.38903 0.90256 0.62686 0.0
C14 C 0.42493 0.901 0.71802 0.0
C15 C 0.41486 0.88812 0.67997 0.0
C16 C 0.41702 0.93634 0.73273 0.0
C17 C 0.40023 0.95969 0.70798 0.0
C18 C 0.39021 0.94753 0.67005 0.0
C19 C 0.39701 0.91163 0.65623 0.0
N20 N 0.37563 0.97301 0.64549 0.0
C21 C 0.34149 0.96436 0.62642 0.0
H22 H 0.73513 0.30084 0.90844 0.0
H23 H 0.7436 0.3623 0.80379 0.0
H24 H 0.67341 0.25491 0.80641 0.0
C25 C 0.7275 0.30319 0.87852 0.0
C26 C 0.70174 0.27442 0.86018 0.0
C27 C 0.74322 0.33503 0.85844 0.0
C28 C 0.73231 0.33789 0.8197 0.0
C29 C 0.70732 0.30887 0.80102 0.0
C30 C 0.69262 0.27719 0.82116 0.0
N31 N 0.69754 0.31018 0.76158 0.0
C32 C 0.68554 0.34178 0.74561 0.0
H33 H 0.83585 0.7112 0.49615 0.0
H34 H 0.92297 0.70082 0.41817 0.0
H35 H 0.82089 0.62573 0.40378 0.0
C36 C 0.8462 0.69713 0.47159 0.0
C37 C 0.82338 0.66713 0.45144 0.0
C38 C 0.88231 0.70944 0.46017 0.0
C39 C 0.8954 0.69162 0.42779 0.0
C40 C 0.87287 0.66217 0.40717 0.0
C41 C 0.83727 0.64965 0.41923 0.0
N42 N 0.88733 0.64269 0.37642 0.0
C43 C 0.88328 0.65251 0.33852 0.0
H44 H 0.9023 0.84524 0.86038 0.0
H45 H 0.86601 0.89903 0.96266 0.0
H46 H 0.86842 0.95642 0.85677 0.0
C47 C 0.89131 0.86867 0.87452 0.0
C48 C 0.88483 0.90027 0.85324 0.0
C49 C 0.88461 0.86777 0.9142 0.0
C50 C 0.87079 0.89886 0.9322 0.0
C51 C 0.86469 0.93059 0.91123 0.0
C52 C 0.87199 0.93113 0.87222 0.0
N53 N 0.85586 0.96437 0.92945 0.0
C54 C 0.82509 0.96608 0.95145 0.0
H55 H 0.69992 0.13638 0.41116 0.0
H56 H 0.6907 0.17002 0.52971 0.0
H57 H 0.60688 0.18867 0.44684 0.0
C58 C 0.68533 0.14909 0.43363 0.0
C59 C 0.65155 0.16162 0.42448 0.0
C60 C 0.69995 0.15195 0.47147 0.0
C61 C 0.68046 0.16829 0.50018 0.0
C62 C 0.64753 0.18236 0.4914 0.0
C63 C 0.63289 0.17879 0.45352 0.0
N64 N 0.62897 0.19812 0.52181 0.0
C65 C 0.60947 0.22877 0.51835 0.0
H66 H 0.26641 0.81125 0.22057 0.0
H67 H 0.28873 0.70768 0.27214 0.0
H68 H 0.36725 0.80866 0.28634 0.0
C69 C 0.28377 0.79602 0.23816 0.0
C70 C 0.3178 0.8152 0.25325 0.0
C71 C 0.27249 0.75715 0.24504 0.0
C72 C 0.29559 0.73799 0.26805 0.0
C73 C 0.3291 0.75694 0.28369 0.0
C74 C 0.34008 0.79525 0.2762 0.0
N75 N 0.35501 0.73583 0.30021 0.0
C76 C 0.35609 0.72756 0.33875 0.0
H77 H 0.1748 0.3774 0.62203 0.0
H78 H 0.16705 0.42911 0.73498 0.0
H79 H 0.07902 0.34631 0.68756 0.0
C80 C 0.15965 0.38145 0.64764 0.0
C81 C 0.12469 0.36013 0.65063 0.0
C82 C 0.17534 0.40705 0.67754 0.0
C83 C 0.15567 0.4098 0.71154 0.0
C84 C 0.121 0.38752 0.7151 0.0
C85 C 0.10557 0.36361 0.68437 0.0
N86 N 0.10071 0.38729 0.7491 0.0
C87 C 0.11163 0.40685 0.78369 0.0
O88 O 0.96639 0.05617 0.52731 0.0
Mn89 Mn 0.01677 0.03566 0.53742 0.0
O90 O 0.93819 0.02221 0.47636 0.0
Mn91 Mn 0.98029 1.00491 0.45923 0.0
O92 O 0.06699 0.01546 0.54879 0.0
O93 O 0.03205 0.08014 0.57402 0.0
Mn94 Mn 0.04661 0.06475 0.61856 0.0
O95 O 0.99113 1.00253 0.58145 0.0
O96 O 0.08596 0.03888 0.60821 0.0
O97 O 0.04132 0.06847 0.49252 0.0
O98 O 0.0141 0.04088 0.43771 0.0
O99 O 0.05183 0.11726 0.62319 0.0
O100 O 1.00594 0.03556 0.63723 0.0
C101 C 0.99679 0.95664 0.4864 0.0
C102 C 0.93812 0.04589 0.50465 0.0
C103 C 0.09003 0.01908 0.57776 0.0
C104 C 0.03934 0.11456 0.58802 0.0
C105 C 0.98733 0.00805 0.61775 0.0
C106 C 0.03698 0.0665 0.45555 0.0
O107 O 1.00211 0.99102 0.50077 0.0
O108 O 0.98162 0.95331 0.4523 0.0
O109 O 0.4997 0.03395 1.02759 0.0
Mn110 Mn 0.51995 0.05436 0.08245 0.0
O111 O 0.49547 0.96984 1.02704 0.0
Mn112 Mn 0.52015 0.96713 0.07386 0.0
O113 O 0.54037 0.0754 0.1372 0.0
O114 O 0.53428 0.10609 0.06111 0.0
Mn115 Mn 0.51723 0.14113 0.08961 0.0
O116 O 0.46694 0.06663 0.09594 0.0
O117 O 0.53979 0.13901 0.13757 0.0
O118 O 0.57292 0.04154 0.06907 0.0
O119 O 0.57088 0.97809 0.07378 0.0
O120 O 0.54293 0.16683 0.05157 0.0
O121 O 0.46649 0.12908 0.08725 0.0
C122 C 0.49064 0.97565 0.12458 0.0
C123 C 0.49061 1.0007 1.01116 0.0
C124 C 0.54703 0.10898 0.15361 0.0
C125 C 0.5497 0.1333 0.04088 0.0
C126 C 0.45005 0.09604 0.09417 0.0
C127 C 0.58852 0.0111 0.06879 0.0
O128 O 0.50547 1.00262 0.1037 0.0
O129 O 0.4964 0.9419 0.11335 0.0
O130 O 0.55019 0.5746 0.55869 0.0
Mn131 Mn 0.49981 0.55483 0.58258 0.0
O132 O 0.54301 0.55909 0.49533 0.0
Mn133 Mn 0.49596 0.53146 0.49628 0.0
O134 O 0.44936 0.53507 0.60613 0.0
O135 O 0.52575 0.55336 0.63404 0.0
Mn136 Mn 0.50269 0.57546 0.67004 0.0
O137 O 0.49056 0.61169 0.59367 0.0
O138 O 0.45593 0.54681 0.67009 0.0
O139 O 0.50952 0.49817 0.57198 0.0
O140 O 0.49345 0.48158 0.51052 0.0
O141 O 0.54235 0.55831 0.69429 0.0
O142 O 0.50419 0.62547 0.65638 0.0
C143 C 0.45165 0.56371 0.5036 0.0
C144 C 0.56212 0.57468 0.52441 0.0
C145 C 0.43701 0.53313 0.64018 0.0
C146 C 0.54818 0.5448 0.6605 0.0
C147 C 0.49536 0.63526 0.62301 0.0
C148 C 0.5039 0.47335 0.5438 0.0
O149 O 0.47349 0.55598 0.53111 0.0
O150 O 0.45729 0.54827 0.47057 0.0
O151 O 0.95294 0.53452 1.01493 0.0
Mn152 Mn 0.99614 0.56425 0.04924 0.0
O153 O 0.95993 0.558 0.95611 0.0
Mn154 Mn 1.0027 0.5924 0.96758 0.0
O155 O 0.03937 0.59362 0.08395 0.0
O156 O 0.9644 0.55766 0.09537 0.0
Mn157 Mn 0.98779 0.53605 0.13127 0.0
O158 O 0.01731 0.51209 0.05772 0.0
O159 O 0.03015 0.5708 0.143 0.0
O160 O 0.97485 0.61654 0.04144 0.0
O161 O 0.99648 0.63985 0.98653 0.0
O162 O 0.9441 0.54437 0.15185 0.0
O163 O 0.99435 0.48875 0.11215 0.0
C164 C 0.05207 0.5684 0.97654 0.0
C165 C 0.94276 0.53529 0.9794 0.0
C166 C 0.04819 0.59308 0.11992 0.0
C167 C 0.93925 0.56094 0.12003 0.0
C168 C 0.01152 0.48504 0.08158 0.0
C169 C 0.98023 0.64362 1.01761 0.0
O170 O 0.02766 0.5706 1.00244 0.0
O171 O 0.0457 0.58511 0.94516 0.0
H172 H 0.2062 0.16387 0.30767 0.0
H173 H 0.10782 0.20163 0.26069 0.0
H174 H 0.17279 0.14133 0.36337 0.0
H175 H 0.07541 0.18217 0.31793 0.0
H176 H 0.01483 0.08706 0.38598 0.0
H177 H 0.04973 0.12397 0.33962 0.0
H178 H 0.14165 0.14918 0.4214 0.0
H179 H 0.10631 0.10993 0.46826 0.0
C180 C 0.17752 0.16777 0.30924 0.0
C181 C 0.15958 0.18363 0.2787 0.0
C182 C 0.15848 0.15543 0.34179 0.0
C183 C 0.121 0.15908 0.34518 0.0
C184 C 0.10392 0.17772 0.31606 0.0
C185 C 0.12277 0.18949 0.28322 0.0
C186 C 0.04242 0.1006 0.3945 0.0
C187 C 0.0579 0.09486 0.43083 0.0
C188 C 0.06244 0.12243 0.36778 0.0
C189 C 0.09879 0.13984 0.37633 0.0
C190 C 0.1139 0.13582 0.41347 0.0
C191 C 0.09358 0.11365 0.44054 0.0
H192 H 0.43951 0.00897 0.7643 0.0
H193 H 0.41472 0.89127 0.79514 0.0
H194 H 0.45238 0.02806 0.83145 0.0
H195 H 0.43092 0.9098 0.86132 0.0
H196 H 0.51348 0.043 0.95011 0.0
H197 H 0.49443 0.02946 0.8828 0.0
H198 H 0.41237 0.93738 0.91622 0.0
H199 H 0.43336 0.94958 0.98277 0.0
C200 C 0.43679 0.98707 0.78525 0.0
C201 C 0.42601 0.94844 0.77387 0.0
C202 C 0.44477 0.99802 0.82391 0.0
C203 C 0.44269 0.97064 0.85229 0.0
C204 C 0.43214 0.93204 0.84077 0.0
C205 C 0.42355 0.9212 0.80235 0.0
C206 C 0.49101 0.0203 0.94288 0.0
C207 C 0.47503 0.99718 0.97148 0.0
C208 C 0.47997 0.01245 0.90427 0.0
C209 C 0.45218 0.98175 0.89358 0.0
C210 C 0.43471 0.96036 0.92284 0.0
C211 C 0.44638 0.9676 0.96116 0.0
H212 H 0.71879 0.4012 0.70642 0.0
H213 H 0.61367 0.34769 0.74417 0.0
H214 H 0.68835 0.44988 0.67497 0.0
H215 H 0.58318 0.39622 0.7137 0.0
H216 H 0.52982 0.47041 0.63908 0.0
H217 H 0.56602 0.41949 0.65296 0.0
H218 H 0.65736 0.50372 0.69341 0.0
H219 H 0.62125 0.55438 0.67826 0.0
C220 C 0.68918 0.40007 0.70798 0.0
C221 C 0.66839 0.37117 0.72772 0.0
C222 C 0.67174 0.42779 0.69003 0.0
C223 C 0.63323 0.42683 0.69146 0.0
C224 C 0.6127 0.39747 0.71121 0.0
C225 C 0.63014 0.36993 0.72909 0.0
C226 C 0.55832 0.47796 0.64892 0.0
C227 C 0.57324 0.51622 0.65642 0.0
C228 C 0.57883 0.44883 0.65775 0.0
C229 C 0.61447 0.45745 0.67485 0.0
C230 C 0.63022 0.49596 0.67991 0.0
C231 C 0.60964 0.52504 0.67108 0.0
H232 H 0.94224 0.6721 0.29646 0.0
H233 H 0.82397 0.64332 0.28901 0.0
H234 H 0.9447 0.66623 0.22721 0.0
H235 H 0.82574 0.63865 0.2189 0.0
H236 H 0.86607 0.55036 0.13092 0.0
H237 H 0.84321 0.59034 0.17932 0.0
H238 H 0.93476 0.6788 0.16234 0.0
H239 H 0.95829 0.63744 0.11486 0.0
C240 C 0.9166 0.66592 0.27964 0.0
C241 C 0.88301 0.65782 0.29772 0.0
C242 C 0.91783 0.66288 0.23973 0.0
C243 C 0.88538 0.65155 0.21698 0.0
C244 C 0.85134 0.64682 0.23533 0.0
C245 C 0.85022 0.64964 0.27543 0.0
C246 C 0.87987 0.5794 0.13551 0.0
C247 C 0.91467 0.59018 0.12034 0.0
C248 C 0.86697 0.60243 0.16387 0.0
C249 C 0.88839 0.63704 0.17659 0.0
C250 C 0.9185 0.65149 0.15457 0.0
C251 C 0.93154 0.62813 0.12642 0.0
H252 H 0.27963 0.15198 0.23399 0.0
H253 H 0.22519 0.14176 0.12212 0.0
H254 H 0.33052 0.12253 0.20804 0.0
H255 H 0.27554 0.11175 0.09624 0.0
H256 H 0.39733 0.12961 0.0587 0.0
H257 H 0.33758 0.1388 0.0828 0.0
H258 H 0.35498 0.0681 0.17802 0.0
H259 H 0.41563 0.05979 0.15396 0.0
C260 C 0.27807 0.14245 0.2041 0.0
C261 C 0.24874 0.14975 0.17996 0.0
C262 C 0.30719 0.12546 0.18919 0.0
C263 C 0.30745 0.11526 0.14986 0.0
C264 C 0.27668 0.12001 0.12645 0.0
C265 C 0.24777 0.13714 0.14128 0.0
C266 C 0.38791 0.11512 0.08417 0.0
C267 C 0.41087 0.09353 0.10414 0.0
C268 C 0.35355 0.12027 0.09801 0.0
C269 C 0.34135 0.10426 0.13248 0.0
C270 C 0.36359 0.08101 0.15152 0.0
C271 C 0.39803 0.07563 0.1374 0.0
H272 H 0.28212 0.91356 0.64176 0.0
H273 H 0.31859 0.01008 0.57391 0.0
H274 H 0.21797 0.91683 0.62185 0.0
H275 H 0.25464 0.01408 0.55442 0.0
H276 H 0.13484 0.0086 0.51754 0.0
H277 H 0.19525 0.98608 0.52149 0.0
H278 H 0.17973 0.96441 0.64128 0.0
H279 H 0.12019 0.98656 0.63721 0.0
C280 C 0.27632 0.93484 0.62181 0.0
C281 C 0.30488 0.96156 0.60923 0.0
C282 C 0.23971 0.9369 0.61055 0.0
C283 C 0.23113 0.96594 0.58677 0.0
C284 C 0.26022 0.99112 0.57234 0.0
C285 C 0.2968 0.989 0.58362 0.0
C286 C 0.14414 0.99809 0.54434 0.0
C287 C 0.1231 0.99964 0.57715 0.0
C288 C 0.17873 0.98545 0.54671 0.0
C289 C 0.19239 0.97353 0.58175 0.0
C290 C 0.17003 0.97289 0.61375 0.0
C291 C 0.13597 0.98593 0.61151 0.0
H292 H 0.74403 0.36685 0.93161 0.0
H293 H 0.80665 0.37064 0.82868 0.0
H294 H 0.79051 0.41585 0.96228 0.0
H295 H 0.85288 0.41937 0.85917 0.0
H296 H 0.90951 0.5327 0.90803 0.0
H297 H 0.86039 0.48542 0.88051 0.0
H298 H 0.85452 0.42716 0.98712 0.0
H299 H 0.90352 0.47512 1.01516 0.0
C300 C 0.7678 0.37792 0.91559 0.0
C301 C 0.77142 0.3649 0.87753 0.0
C302 C 0.79446 0.40603 0.9332 0.0
C303 C 0.82537 0.42183 0.91317 0.0
C304 C 0.82907 0.40851 0.87526 0.0
C305 C 0.80251 0.3805 0.8577 0.0
C306 C 0.89772 0.50997 0.92585 0.0
C307 C 0.9108 0.50771 0.96386 0.0
C308 C 0.86961 0.48266 0.90988 0.0
C309 C 0.85373 0.45213 0.93136 0.0
C310 C 0.86596 0.45039 0.96977 0.0
C311 C 0.89417 0.47786 0.98585 0.0
H312 H 0.79788 0.66376 0.52488 0.0
H313 H 0.76168 0.64142 0.40624 0.0
H314 H 0.73497 0.64605 0.54451 0.0
H315 H 0.69973 0.62012 0.42606 0.0
H316 H 0.58492 0.61655 0.4641 0.0
H317 H 0.64773 0.64147 0.4486 0.0
H318 H 0.68792 0.59579 0.55245 0.0
H319 H 0.62441 0.57315 0.56896 0.0
C320 C 0.77661 0.65505 0.50289 0.0
C321 C 0.7851 0.6544 0.46384 0.0
C322 C 0.74047 0.64422 0.51428 0.0
C323 C 0.71191 0.63177 0.48698 0.0
C324 C 0.72061 0.63038 0.44801 0.0
C325 C 0.75653 0.64191 0.4366 0.0
C326 C 0.60724 0.61234 0.4838 0.0
C327 C 0.59997 0.59285 0.5176 0.0
C328 C 0.64335 0.62623 0.47476 0.0
C329 C 0.67326 0.62003 0.49878 0.0
C330 C 0.66575 0.60148 0.53334 0.0
C331 C 0.62938 0.58838 0.54284 0.0
H332 H 0.08921 0.26618 0.12312 0.0
H333 H 0.17099 0.35806 0.16742 0.0
H334 H 0.05346 0.31249 0.09511 0.0
H335 H 0.13539 0.40454 0.13999 0.0
H336 H 0.08254 0.47996 0.06191 0.0
H337 H 0.1172 0.42808 0.07802 0.0
H338 H 0.01698 0.36161 0.11425 0.0
H339 H 0.98267 0.41302 0.09776 0.0
C340 C 0.09902 0.29638 0.12753 0.0
C341 C 0.13229 0.30876 0.14805 0.0
C342 C 0.07878 0.32291 0.11127 0.0
C343 C 0.09171 0.36234 0.11484 0.0
C344 C 0.12492 0.37447 0.13595 0.0
C345 C 0.14499 0.34794 0.1523 0.0
C346 C 0.06776 0.45361 0.07176 0.0
C347 C 0.02989 0.4505 0.07845 0.0
C348 C 0.08768 0.42414 0.08172 0.0
C349 C 0.07003 0.39091 0.09826 0.0
C350 C 0.03157 0.38662 0.10162 0.0
C351 C 0.01182 0.41609 0.092 0.0
H352 H 0.73226 0.22818 0.9098 0.0
H353 H 0.62825 0.24871 0.85978 0.0
H354 H 0.69993 0.17814 0.94791 0.0
H355 H 0.59581 0.20031 0.89855 0.0
H356 H 0.53685 0.1142 0.96516 0.0
H357 H 0.57845 0.13748 0.91504 0.0
H358 H 0.66409 0.17462 1.00171 0.0
H359 H 0.62306 0.14936 0.05076 0.0
C360 C 0.70248 0.22191 0.90696 0.0
C361 C 0.68278 0.24246 0.88195 0.0
C362 C 0.68387 0.19322 0.92876 0.0
C363 C 0.64505 0.18488 0.92655 0.0
C364 C 0.62564 0.20491 0.90059 0.0
C365 C 0.64425 0.23309 0.8785 0.0
C366 C 0.56532 0.12517 0.97297 0.0
C367 C 0.57698 0.12972 1.01161 0.0
C368 C 0.58899 0.13941 0.94443 0.0
C369 C 0.62438 0.15932 0.95426 0.0
C370 C 0.63723 0.15961 0.99267 0.0
C371 C 0.61373 0.14491 1.02099 0.0
H372 H 0.95639 0.71713 0.47919 0.0
H373 H 0.86118 0.77562 0.48801 0.0
H374 H 0.99577 0.77425 0.50552 0.0
H375 H 0.90007 0.83204 0.51434 0.0
H376 H 0.96368 0.93388 0.55172 0.0
H377 H 0.9423 0.86693 0.56273 0.0
H378 H 0.01332 0.83407 0.47472 0.0
H379 H 0.03499 0.90072 0.4647 0.0
C380 C 0.9438 0.74196 0.48721 0.0
C381 C 0.9057 0.74199 0.48095 0.0
C382 C 0.9663 0.77452 0.50262 0.0
C383 C 0.95116 0.80777 0.51211 0.0
C384 C 0.91271 0.8068 0.50819 0.0
C385 C 0.89031 0.77439 0.49275 0.0
C386 C 0.97671 0.91233 0.53687 0.0
C387 C 1.00077 0.92226 0.50722 0.0
C388 C 0.96393 0.8739 0.5426 0.0
C389 C 0.97506 0.8452 0.51858 0.0
C390 C 1.00391 0.85529 0.4936 0.0
C391 C 0.01657 0.89361 0.48791 0.0
H392 H 0.41248 0.82171 0.71827 0.0
H393 H 0.43821 0.86918 0.60826 0.0
H394 H 0.43396 0.76268 0.69709 0.0
H395 H 0.45803 0.8089 0.58673 0.0
H396 H 0.43862 0.66037 0.58309 0.0
H397 H 0.41849 0.72338 0.59005 0.0
H398 H 0.51091 0.76063 0.66817 0.0
H399 H 0.53196 0.69859 0.65986 0.0
C400 C 0.42254 0.81964 0.68955 0.0
C401 C 0.4241 0.85064 0.66526 0.0
C402 C 0.43452 0.78568 0.67739 0.0
C403 C 0.44768 0.78154 0.64043 0.0
C404 C 0.44781 0.81155 0.61534 0.0
C405 C 0.43628 0.84592 0.62769 0.0
C406 C 0.45575 0.6827 0.59987 0.0
C407 C 0.48734 0.67483 0.62013 0.0
C408 C 0.44392 0.7185 0.60436 0.0
C409 C 0.46325 0.74659 0.62964 0.0
C410 C 0.4957 0.73935 0.64844 0.0
C411 C 0.5077 0.70392 0.64362 0.0
H412 H 0.84122 0.92098 0.79529 0.0
H413 H 0.94794 0.88697 0.81771 0.0
H414 H 0.85888 0.93761 0.7306 0.0
H415 H 0.96606 0.9043 0.75305 0.0
H416 H 0.9896 0.93257 0.63047 0.0
H417 H 0.95947 0.89662 0.68267 0.0
H418 H 0.90017 0.99069 0.7091 0.0
H419 H 0.93001 0.02585 0.65737 0.0
C420 C 0.86832 0.91652 0.78614 0.0
C421 C 0.89334 0.90311 0.81182 0.0
C422 C 0.87851 0.92617 0.74906 0.0
C423 C 0.91415 0.92296 0.73664 0.0
C424 C 0.9383 0.90694 0.76141 0.0
C425 C 0.92797 0.89704 0.79857 0.0
C426 C 0.96891 0.94466 0.64651 0.0
C427 C 0.96165 0.98171 0.63961 0.0
C428 C 0.95209 0.9244 0.67679 0.0
C429 C 0.9275 0.94077 0.70042 0.0
C430 C 0.91846 0.97678 0.69141 0.0
C431 C 0.9355 0.99702 0.66162 0.0
H432 H 0.58159 0.12928 0.40169 0.0
H433 H 0.68593 0.17807 0.35767 0.0
H434 H 0.5571 0.11393 0.33595 0.0
H435 H 0.66166 0.16264 0.29225 0.0
H436 H 0.58877 0.17269 0.18453 0.0
H437 H 0.61342 0.18475 0.24982 0.0
H438 H 0.56829 0.07021 0.2778 0.0
H439 H 0.54335 0.05787 0.21165 0.0
C440 C 0.59912 0.13705 0.37795 0.0
C441 C 0.6356 0.15505 0.38476 0.0
C442 C 0.58529 0.1278 0.34041 0.0
C443 C 0.60753 0.13689 0.30897 0.0
C444 C 0.64381 0.15539 0.31587 0.0
C445 C 0.65773 0.16419 0.3533 0.0
C446 C 0.58416 0.14989 0.20445 0.0
C447 C 0.56401 0.1143 0.19288 0.0
C448 C 0.59848 0.15681 0.24187 0.0
C449 C 0.59275 0.1285 0.26898 0.0
C450 C 0.57287 0.09267 0.25753 0.0
C451 C 0.55891 0.0855 0.21966 0.0
H452 H 0.42214 0.73466 0.37451 0.0
H453 H 0.30734 0.69171 0.38735 0.0
H454 H 0.43844 0.70236 0.43132 0.0
H455 H 0.32309 0.66016 0.44572 0.0
H456 H 0.37971 0.55522 0.4825 0.0
H457 H 0.35007 0.60481 0.454 0.0
H458 H 0.44049 0.6893 0.49652 0.0
H459 H 0.47094 0.63868 0.52305 0.0
C460 C 0.40027 0.7193 0.39052 0.0
C461 C 0.36365 0.71534 0.37676 0.0
C462 C 0.40949 0.70096 0.42341 0.0
C463 C 0.38215 0.67821 0.4433 0.0
C464 C 0.34497 0.67687 0.43091 0.0
C465 C 0.33583 0.69507 0.39768 0.0
C466 C 0.3922 0.58466 0.48752 0.0
C467 C 0.42739 0.5932 0.50525 0.0
C468 C 0.37526 0.61331 0.47101 0.0
C469 C 0.39332 0.65118 0.47185 0.0
C470 C 0.42622 0.66033 0.49431 0.0
C471 C 0.44336 0.63145 0.51041 0.0
H472 H 0.05501 0.4037 0.82935 0.0
H473 H 0.17057 0.44729 0.82403 0.0
H474 H 0.05248 0.43563 0.89142 0.0
H475 H 0.16893 0.47879 0.88774 0.0
H476 H 0.12141 0.58007 0.95156 0.0
H477 H 0.1458 0.53252 0.91238 0.0
H478 H 0.06577 0.44477 0.95677 0.0
H479 H 0.03943 0.49319 0.99312 0.0
C480 C 0.08014 0.41966 0.84212 0.0
C481 C 0.11279 0.42359 0.82206 0.0
C482 C 0.07895 0.43759 0.87813 0.0
C483 C 0.11058 0.45986 0.89518 0.0
C484 C 0.14392 0.46221 0.87553 0.0
C485 C 0.14498 0.44427 0.83912 0.0
C486 C 0.11038 0.55033 0.9546 0.0
C487 C 0.07821 0.54051 0.97509 0.0
C488 C 0.12429 0.52285 0.93182 0.0
C489 C 0.1066 0.48486 0.9298 0.0
C490 C 0.07908 0.47405 0.95629 0.0
C491 C 0.06459 0.50177 0.97834 0.0
H492 H 0.80939 0.03568 0.97115 0.0
H493 H 0.76928 0.91576 0.97695 0.0
H494 H 0.75485 0.05132 1.00374 0.0
H495 H 0.71431 0.93099 1.00891 0.0
H496 H 0.63613 0.96504 0.0943 0.0
H497 H 0.69542 0.95645 0.06866 0.0
H498 H 0.68848 0.04953 0.99349 0.0
H499 H 0.62901 0.05863 1.02001 0.0
C500 C 0.78882 0.01271 0.97964 0.0
C501 C 0.79338 0.97458 0.972 0.0
C502 C 0.7575 0.02163 0.99802 0.0
C503 C 0.73017 0.99249 1.00917 0.0
C504 C 0.73507 0.9542 1.00141 0.0
C505 C 0.76639 0.94536 0.98298 0.0
C506 C 0.64758 0.98422 0.07282 0.0
C507 C 0.62776 0.01239 0.05902 0.0
C508 C 0.68143 0.979 0.05781 0.0
C509 C 0.6964 1.00162 1.02832 0.0
C510 C 0.67779 0.03155 1.0162 0.0
C511 C 0.64378 0.03694 1.03149 0.0
H512 H 0.75622 0.18226 0.52248 0.0
H513 H 0.72296 0.08708 0.44223 0.0
H514 H 0.8131 0.15672 0.53794 0.0
H515 H 0.78042 0.06323 0.45551 0.0
H516 H 0.86933 1.00708 0.5037 0.0
H517 H 0.81137 0.03289 0.50183 0.0
H518 H 0.87134 0.14727 0.51315 0.0
H519 H 0.92952 0.12078 0.51729 0.0
C520 C 0.76097 0.1559 0.50815 0.0
C521 C 0.73491 0.13681 0.48101 0.0
C522 C 0.79382 0.1415 0.5167 0.0
C523 C 0.80143 0.10772 0.49822 0.0
C524 C 0.77535 0.08884 0.47103 0.0
C525 C 0.74251 0.10297 0.46281 0.0
C526 C 0.86999 0.03772 0.50659 0.0
C527 C 0.90372 0.06201 0.51034 0.0
C528 C 0.83681 0.0526 0.50509 0.0
C529 C 0.83656 0.09226 0.5062 0.0
C530 C 0.87038 0.11659 0.51225 0.0
C531 C 0.90373 0.10152 0.5146 0.0
H532 H 0.22401 0.70036 0.27469 0.0
H533 H 0.24307 0.76464 0.17259 0.0
H534 H 0.17099 0.66192 0.24297 0.0
H535 H 0.18814 0.72789 0.14168 0.0
H536 H 0.10991 0.62636 0.08395 0.0
H537 H 0.16356 0.66734 0.11353 0.0
H538 H 0.11036 0.6629 0.22244 0.0
H539 H 0.05816 0.62091 0.19342 0.0
C540 C 0.21678 0.70655 0.24552 0.0
C541 C 0.23809 0.7357 0.22633 0.0
C542 C 0.18589 0.68476 0.2274 0.0
C543 C 0.17488 0.69177 0.18965 0.0
C544 C 0.19587 0.72128 0.17056 0.0
C545 C 0.22712 0.74287 0.1886 0.0
C546 C 0.10982 0.63429 0.11418 0.0
C547 C 0.08003 0.61993 0.13642 0.0
C548 C 0.14048 0.65795 0.13117 0.0
C549 C 0.14171 0.6682 0.17064 0.0
C550 C 0.11113 0.65484 0.19232 0.0
C551 C 0.08096 0.63084 0.17556 0.0
H552 H 0.20577 0.43595 0.61182 0.0
H553 H 0.23 0.4298 0.73317 0.0
H554 H 0.26834 0.46466 0.60271 0.0
H555 H 0.29148 0.46323 0.72484 0.0
H556 H 0.41167 0.48523 0.69553 0.0
H557 H 0.34843 0.45635 0.70474 0.0
H558 H 0.31246 0.51574 0.60738 0.0
H559 H 0.37629 0.54153 0.59657 0.0
C560 C 0.22431 0.44092 0.63676 0.0
C561 C 0.21265 0.42951 0.67316 0.0
C562 C 0.26034 0.45836 0.63161 0.0
C563 C 0.28566 0.46632 0.66292 0.0
C564 C 0.27342 0.45674 0.69969 0.0
C565 C 0.23761 0.43818 0.70467 0.0
C566 C 0.39009 0.49167 0.676 0.0
C567 C 0.39872 0.51525 0.64519 0.0
C568 C 0.35365 0.47554 0.68149 0.0
C569 C 0.32472 0.48363 0.65701 0.0
C570 C 0.33367 0.50783 0.62641 0.0
C571 C 0.3703 0.52291 0.62021 0.0
H572 H 0.92289 0.87161 0.98316 0.0
H573 H 0.86829 0.79094 0.89706 0.0
H574 H 0.94196 0.8191 1.01884 0.0
H575 H 0.88728 0.73843 0.93278 0.0
H576 H 0.90686 0.64834 1.01543 0.0
H577 H 0.87932 0.70413 0.99587 0.0
H578 H 0.98677 0.77256 1.00453 0.0
H579 H 0.01409 0.71671 1.02322 0.0
C580 C 0.91446 0.84263 0.97214 0.0
C581 C 0.8941 0.8355 0.93717 0.0
C582 C 0.92553 0.81256 0.99253 0.0
C583 C 0.91601 0.77453 0.97882 0.0
C584 C 0.89468 0.76733 0.94445 0.0
C585 C 0.8841 0.79743 0.92375 0.0
C586 C 0.92422 0.67575 1.01492 0.0
C587 C 0.96251 0.6784 1.02152 0.0
C588 C 0.90859 0.70754 1.00307 0.0
C589 C 0.93091 0.74272 0.99818 0.0
C590 C 0.96872 0.74604 1.0082 0.0
C591 C 0.98438 0.71413 1.01927 0.0
H592 H 0.35597 0.87463 0.29721 0.0
H593 H 0.31457 0.84353 0.18168 0.0
H594 H 0.39277 0.93178 0.27416 0.0
H595 H 0.35111 0.90017 0.15874 0.0
H596 H 0.42178 0.99363 0.11534 0.0
H597 H 0.37039 0.96806 0.15435 0.0
H598 H 0.44794 0.93474 0.23778 0.0
H599 H 0.49869 0.96097 0.19912 0.0
C600 C 0.35408 0.88042 0.26703 0.0
C601 C 0.33281 0.85413 0.24119 0.0
C602 C 0.37511 0.91321 0.25385 0.0
C603 C 0.37536 0.92044 0.21452 0.0
C604 C 0.3514 0.89594 0.18928 0.0
C605 C 0.33039 0.86321 0.20246 0.0
C606 C 0.42774 0.98311 0.14326 0.0
C607 C 0.46408 0.97952 0.15451 0.0
C608 C 0.39831 0.96779 0.16531 0.0
C609 C 0.40492 0.94837 0.19872 0.0
C610 C 0.44161 0.94951 0.21235 0.0
C611 C 0.4709 0.96477 0.19029 0.0
H612 H 0.05533 0.34925 0.61716 0.0
H613 H 0.1594 0.30582 0.61625 0.0
H614 H 0.02681 0.29402 0.57761 0.0
H615 H 0.13109 0.25022 0.57828 0.0
H616 H 0.08284 0.1442 0.53172 0.0
H617 H 0.10018 0.21297 0.52657 0.0
H618 H 0.00942 0.23209 0.5977 0.0
H619 H 0.99203 0.16403 0.60142 0.0
C620 C 0.07222 0.32818 0.60784 0.0
C621 C 0.10936 0.33136 0.62032 0.0
C622 C 0.05595 0.29656 0.58518 0.0
C623 C 0.07631 0.26707 0.57525 0.0
C624 C 0.11438 0.27228 0.58484 0.0
C625 C 0.13071 0.30413 0.607 0.0
C626 C 0.06526 0.16326 0.54392 0.0
C627 C 0.0364 0.14917 0.56729 0.0
C628 C 0.07554 0.2027 0.54164 0.0
C629 C 0.05724 0.22825 0.56312 0.0
C630 C 0.02453 0.21367 0.58095 0.0
C631 C 0.01428 0.17441 0.58303 0.0
H632 H 0.53878 0.23295 0.53552 0.0
H633 H 0.64111 0.30054 0.50761 0.0
H634 H 0.51095 0.29126 0.54611 0.0
H635 H 0.61352 0.35887 0.5175 0.0
H636 H 0.56866 0.45726 0.57366 0.0
H637 H 0.59254 0.39646 0.56961 0.0
H638 H 0.49091 0.34422 0.51193 0.0
H639 H 0.46661 0.40487 0.51785 0.0
C640 C 0.55503 0.26038 0.5311 0.0
C641 C 0.59181 0.26261 0.52048 0.0
C642 C 0.53921 0.29372 0.5372 0.0
C643 C 0.5601 0.3298 0.53305 0.0
C644 C 0.59685 0.33164 0.5217 0.0
C645 C 0.61254 0.29833 0.51554 0.0
C646 C 0.55081 0.43229 0.56197 0.0
C647 C 0.51532 0.43535 0.54746 0.0
C648 C 0.5648 0.39768 0.55863 0.0
C649 C 0.54376 0.36547 0.54012 0.0
C650 C 0.50772 0.36829 0.52669 0.0
C651 C 0.49376 0.40296 0.53009 0.0
loop_
_geom_bond_atom_site_label_1
_geom_bond_atom_site_label_2
_geom_bond_distance
_geom_bond_site_symmetry_2
_ccdc_geom_bond_type
H0 C3 0.929 . S
H1 C6 0.929 . S
H2 C8 0.930 . S
C3 H0 0.929 . S
C3 C4 1.398 . S
C3 C5 1.396 . S
C4 C3 1.398 . S
C4 C8 1.407 . S
C5 C3 1.396 . S
C5 C6 1.394 . S
C6 H1 0.929 . S
C6 C5 1.394 . S
C6 C7 1.382 . S
C7 C6 1.382 . S
C7 C8 1.392 . S
C7 N9 1.420 . S
C8 H2 0.930 . S
C8 C4 1.407 . S
C8 C7 1.392 . S
N9 C7 1.420 . S
N9 C10 1.244 . S
C10 N9 1.244 . S
H11 C14 0.929 . S
H12 C17 0.929 . S
H13 C19 0.930 . S
C14 H11 0.929 . S
C14 C15 1.398 . S
C14 C16 1.396 . S
C15 C14 1.398 . S
C15 C19 1.407 . S
C16 C14 1.396 . S
C16 C17 1.394 . S
C17 H12 0.929 . S
C17 C16 1.394 . S
C17 C18 1.382 . S
C18 C17 1.382 . S
C18 C19 1.392 . S
C18 N20 1.420 . S
C19 H13 0.930 . S
C19 C15 1.407 . S
C19 C18 1.392 . S
N20 C18 1.420 . S
N20 C21 1.244 . S
C21 N20 1.244 . S
H22 C25 0.929 . S
H23 C28 0.929 . S
H24 C30 0.930 . S
C25 H22 0.929 . S
C25 C26 1.398 . S
C25 C27 1.396 . S
C26 C25 1.398 . S
C26 C30 1.407 . S
C27 C25 1.396 . S
C27 C28 1.394 . S
C28 H23 0.929 . S
C28 C27 1.394 . S
C28 C29 1.382 . S
C29 C28 1.382 . S
C29 C30 1.392 . S
C29 N31 1.420 . S
C30 H24 0.930 . S
C30 C26 1.407 . S
C30 C29 1.392 . S
N31 C29 1.420 . S
N31 C32 1.244 . S
C32 N31 1.244 . S
H33 C36 0.929 . S
H34 C39 0.929 . S
H35 C41 0.930 . S
C36 H33 0.929 . S
C36 C37 1.398 . S
C36 C38 1.396 . S
C37 C36 1.398 . S
C37 C41 1.407 . S
C38 C36 1.396 . S
C38 C39 1.394 . S
C39 H34 0.929 . S
C39 C38 1.394 . S
C39 C40 1.382 . S
C40 C39 1.382 . S
C40 C41 1.392 . S
C40 N42 1.420 . S
C41 H35 0.930 . S
C41 C37 1.407 . S
C41 C40 1.392 . S
N42 C40 1.420 . S
N42 C43 1.244 . S
C43 N42 1.244 . S
H44 C47 0.929 . S
H45 C50 0.929 . S
H46 C52 0.930 . S
C47 H44 0.929 . S
C47 C48 1.398 . S
C47 C49 1.396 . S
C48 C47 1.398 . S
C48 C52 1.407 . S
C49 C47 1.396 . S
C49 C50 1.394 . S
C50 H45 0.929 . S
C50 C49 1.394 . S
C50 C51 1.382 . S
C51 C50 1.382 . S
C51 C52 1.392 . S
C51 N53 1.420 . S
C52 H46 0.930 . S
C52 C48 1.407 . S
C52 C51 1.392 . S
N53 C51 1.420 . S
N53 C54 1.244 . S
C54 N53 1.244 . S
H55 C58 0.929 . S
H56 C61 0.929 . S
H57 C63 0.930 . S
C58 H55 0.929 . S
C58 C59 1.398 . S
C58 C60 1.396 . S
C59 C58 1.398 . S
C59 C63 1.407 . S
C60 C58 1.396 . S
C60 C61 1.394 . S
C61 H56 0.929 . S
C61 C60 1.394 . S
C61 C62 1.382 . S
C62 C61 1.382 . S
C62 C63 1.392 . S
C62 N64 1.420 . S
C63 H57 0.930 . S
C63 C59 1.407 . S
C63 C62 1.392 . S
N64 C62 1.420 . S
N64 C65 1.244 . S
C65 N64 1.244 . S
H66 C69 0.929 . S
H67 C72 0.929 . S
H68 C74 0.930 . S
C69 H66 0.929 . S
C69 C70 1.398 . S
C69 C71 1.396 . S
C70 C69 1.398 . S
C70 C74 1.407 . S
C71 C69 1.396 . S
C71 C72 1.394 . S
C72 H67 0.929 . S
C72 C71 1.394 . S
C72 C73 1.382 . S
C73 C72 1.382 . S
C73 C74 1.392 . S
C73 N75 1.420 . S
C74 H68 0.930 . S
C74 C70 1.407 . S
C74 C73 1.392 . S
N75 C73 1.420 . S
N75 C76 1.244 . S
C76 N75 1.244 . S
H77 C80 0.929 . S
H78 C83 0.929 . S
H79 C85 0.930 . S
C80 H77 0.929 . S
C80 C81 1.398 . S
C80 C82 1.396 . S
C81 C80 1.398 . S
C81 C85 1.407 . S
C82 C80 1.396 . S
C82 C83 1.394 . S
C83 H78 0.929 . S
C83 C82 1.394 . S
C83 C84 1.382 . S
C84 C83 1.382 . S
C84 C85 1.392 . S
C84 N86 1.420 . S
C85 H79 0.930 . S
C85 C81 1.407 . S
C85 C84 1.392 . S
N86 C84 1.420 . S
N86 C87 1.244 . S
C87 N86 1.244 . S
O88 Mn89 2.163 1_655 S
O88 C102 1.244 . S
Mn89 O88 2.163 1_455 S
Mn89 O92 2.160 . S
Mn89 O93 2.221 . S
Mn89 O95 2.163 1_445 S
Mn89 O97 2.160 . S
Mn89 O107 2.221 1_445 S
O90 Mn91 2.087 1_545 S
O90 C102 1.256 . S
Mn91 O90 2.087 1_565 S
Mn91 O98 2.089 1_565 S
Mn91 O107 2.290 . S
Mn91 O108 2.251 . S
O92 Mn89 2.160 . S
O92 C103 1.239 . S
O93 Mn89 2.221 . S
O93 Mn94 2.290 . S
O93 C104 1.278 . S
Mn94 O93 2.290 . S
Mn94 O96 2.089 . S
Mn94 O99 2.251 . S
Mn94 O100 2.087 . S
O95 Mn89 2.163 1_665 S
O95 C105 1.244 1_565 S
O96 Mn94 2.089 . S
O96 C103 1.256 . S
O97 Mn89 2.160 . S
O97 C106 1.239 . S
O98 Mn91 2.089 1_545 S
O98 C106 1.256 1_655 S
O99 Mn94 2.251 . S
O99 C104 1.241 . S
O100 Mn94 2.087 . S
O100 C105 1.256 1_455 S
C101 O107 1.278 . S
C101 O108 1.241 . S
C102 O88 1.244 . S
C102 O90 1.256 . S
C103 O92 1.239 . S
C103 O96 1.256 . S
C104 O93 1.278 . S
C104 O99 1.241 . S
C105 O95 1.244 1_545 S
C105 O100 1.256 1_655 S
C106 O97 1.239 . S
C106 O98 1.256 1_455 S
O107 Mn89 2.221 1_665 S
O107 Mn91 2.290 . S
O107 C101 1.278 . S
O108 Mn91 2.251 . S
O108 C101 1.241 . S
O109 Mn110 2.163 1_556 S
O109 C123 1.244 . S
Mn110 O109 2.163 1_554 S
Mn110 O113 2.160 . S
Mn110 O114 2.221 . S
Mn110 O116 2.163 . S
Mn110 O118 2.160 . S
Mn110 O128 2.221 1_545 S
O111 Mn112 2.087 1_556 S
O111 C123 1.256 1_565 S
Mn112 O111 2.087 1_554 S
Mn112 O119 2.089 1_554 S
Mn112 O128 2.290 . S
Mn112 O129 2.251 . S
O113 Mn110 2.160 . S
O113 C124 1.239 . S
O114 Mn110 2.221 . S
O114 Mn115 2.290 . S
O114 C125 1.278 . S
Mn115 O114 2.290 . S
Mn115 O117 2.089 . S
Mn115 O120 2.251 . S
Mn115 O121 2.087 . S
O116 Mn110 2.163 . S
O116 C126 1.244 . S
O117 Mn115 2.089 . S
O117 C124 1.256 . S
O118 Mn110 2.160 . S
O118 C127 1.239 . S
O119 Mn112 2.089 1_556 S
O119 C127 1.256 1_566 S
O120 Mn115 2.251 . S
O120 C125 1.241 . S
O121 Mn115 2.087 . S
O121 C126 1.256 . S
C122 O128 1.278 . S
C122 O129 1.241 . S
C123 O109 1.244 . S
C123 O111 1.256 1_545 S
C124 O113 1.239 . S
C124 O117 1.256 . S
C125 O114 1.278 . S
C125 O120 1.241 . S
C126 O116 1.244 . S
C126 O121 1.256 . S
C127 O118 1.239 . S
C127 O119 1.256 1_544 S
O128 Mn110 2.221 1_565 S
O128 Mn112 2.290 . S
O128 C122 1.278 . S
O129 Mn112 2.251 . S
O129 C122 1.241 . S
O130 Mn131 2.163 . S
O130 C144 1.244 . S
Mn131 O130 2.163 . S
Mn131 O134 2.160 . S
Mn131 O135 2.221 . S
Mn131 O137 2.163 . S
Mn131 O139 2.160 . S
Mn131 O149 2.221 . S
O132 Mn133 2.087 . S
O132 C144 1.256 . S
Mn133 O132 2.087 . S
Mn133 O140 2.089 . S
Mn133 O149 2.290 . S
Mn133 O150 2.251 . S
O134 Mn131 2.160 . S
O134 C145 1.239 . S
O135 Mn131 2.221 . S
O135 Mn136 2.290 . S
O135 C146 1.278 . S
Mn136 O135 2.290 . S
Mn136 O138 2.089 . S
Mn136 O141 2.251 . S
Mn136 O142 2.087 . S
O137 Mn131 2.163 . S
O137 C147 1.244 . S
O138 Mn136 2.089 . S
O138 C145 1.256 . S
O139 Mn131 2.160 . S
O139 C148 1.239 . S
O140 Mn133 2.089 . S
O140 C148 1.256 . S
O141 Mn136 2.251 . S
O141 C146 1.241 . S
O142 Mn136 2.087 . S
O142 C147 1.256 . S
C143 O149 1.278 . S
C143 O150 1.241 . S
C144 O130 1.244 . S
C144 O132 1.256 . S
C145 O134 1.239 . S
C145 O138 1.256 . S
C146 O135 1.278 . S
C146 O141 1.241 . S
C147 O137 1.244 . S
C147 O142 1.256 . S
C148 O139 1.239 . S
C148 O140 1.256 . S
O149 Mn131 2.221 . S
O149 Mn133 2.290 . S
O149 C143 1.278 . S
O150 Mn133 2.251 . S
O150 C143 1.241 . S
O151 Mn152 2.163 1_655 S
O151 C165 1.244 1_554 S
Mn152 O151 2.163 1_455 S
Mn152 O155 2.160 . S
Mn152 O156 2.221 . S
Mn152 O158 2.163 . S
Mn152 O160 2.164 . S
Mn152 O170 2.221 1_554 S
O153 Mn154 2.087 . S
O153 C165 1.256 . S
Mn154 O153 2.087 . S
Mn154 O161 2.089 . S
Mn154 O170 2.290 1_655 S
Mn154 O171 2.251 1_655 S
O155 Mn152 2.160 . S
O155 C166 1.239 . S
O156 Mn152 2.221 . S
O156 Mn157 2.290 . S
O156 C167 1.278 1_455 S
Mn157 O156 2.290 . S
Mn157 O159 2.089 . S
Mn157 O162 2.251 1_455 S
Mn157 O163 2.087 . S
O158 Mn152 2.163 . S
O158 C168 1.244 . S
O159 Mn157 2.089 . S
O159 C166 1.256 . S
O160 Mn152 2.164 . S
O160 C169 1.226 1_454 S
O161 Mn154 2.089 . S
O161 C169 1.256 . S
O162 Mn157 2.251 1_655 S
O162 C167 1.241 . S
O163 Mn157 2.087 . S
O163 C168 1.256 . S
C164 O170 1.278 . S
C164 O171 1.241 . S
C165 O151 1.244 1_556 S
C165 O153 1.256 . S
C166 O155 1.239 . S
C166 O159 1.256 . S
C167 O156 1.278 1_655 S
C167 O162 1.241 . S
C168 O158 1.244 . S
C168 O163 1.256 . S
C169 O160 1.226 1_656 S
C169 O161 1.256 . S
O170 Mn152 2.221 1_556 S
O170 Mn154 2.290 1_455 S
O170 C164 1.278 . S
O171 Mn154 2.251 1_455 S
O171 C164 1.241 . S
H172 C180 0.950 . S
H173 C185 0.950 . S
H174 C182 0.950 . S
H175 C184 0.950 . S
H176 C186 0.950 . S
H177 C188 0.950 . S
H178 C190 0.950 . S
H179 C191 0.950 . S
C180 H172 0.950 . S
C180 C181 1.386 . S
C180 C182 1.391 . S
C181 C180 1.386 . S
C181 C185 1.393 . S
C182 H174 0.950 . S
C182 C180 1.391 . S
C182 C183 1.400 . S
C183 C182 1.400 . S
C183 C184 1.398 . S
C183 C189 1.491 . S
C184 H175 0.950 . S
C184 C183 1.398 . S
C184 C185 1.391 . S
C185 H173 0.950 . S
C185 C181 1.393 . S
C185 C184 1.391 . S
C186 H176 0.950 . S
C186 C187 1.386 . S
C186 C188 1.391 . S
C187 C186 1.386 . S
C187 C191 1.393 . S
C188 H177 0.950 . S
C188 C186 1.391 . S
C188 C189 1.400 . S
C189 C183 1.491 . S
C189 C188 1.400 . S
C189 C190 1.398 . S
C190 H178 0.950 . S
C190 C189 1.398 . S
C190 C191 1.391 . S
C191 H179 0.950 . S
C191 C187 1.393 . S
C191 C190 1.391 . S
H192 C200 0.950 . S
H193 C205 0.950 . S
H194 C202 0.950 1_545 S
H195 C204 0.950 . S
H196 C206 0.950 . S
H197 C208 0.950 . S
H198 C210 0.950 . S
H199 C211 0.950 . S
C200 H192 0.950 . S
C200 C201 1.386 . S
C200 C202 1.391 . S
C201 C200 1.386 . S
C201 C205 1.393 . S
C202 H194 0.950 1_565 S
C202 C200 1.391 . S
C202 C203 1.400 . S
C203 C202 1.400 . S
C203 C204 1.398 . S
C203 C209 1.491 . S
C204 H195 0.950 . S
C204 C203 1.398 . S
C204 C205 1.391 . S
C205 H193 0.950 . S
C205 C201 1.393 . S
C205 C204 1.391 . S
C206 H196 0.950 . S
C206 C207 1.398 . S
C206 C208 1.391 . S
C207 C206 1.398 . S
C207 C211 1.383 1_565 S
C208 H197 0.950 . S
C208 C206 1.391 . S
C208 C209 1.400 . S
C209 C203 1.491 . S
C209 C208 1.400 . S
C209 C210 1.398 1_565 S
C210 H198 0.950 . S
C210 C209 1.398 1_545 S
C210 C211 1.391 . S
C211 H199 0.950 . S
C211 C207 1.383 1_545 S
C211 C210 1.391 . S
H212 C220 0.950 . S
H213 C225 0.950 . S
H214 C222 0.950 . S
H215 C224 0.950 . S
H216 C226 0.950 . S
H217 C228 0.950 . S
H218 C230 0.950 . S
H219 C231 0.950 . S
C220 H212 0.950 . S
C220 C221 1.386 . S
C220 C222 1.391 . S
C221 C220 1.386 . S
C221 C225 1.393 . S
C222 H214 0.950 . S
C222 C220 1.391 . S
C222 C223 1.400 . S
C223 C222 1.400 . S
C223 C224 1.398 . S
C223 C229 1.491 . S
C224 H215 0.950 . S
C224 C223 1.398 . S
C224 C225 1.391 . S
C225 H213 0.950 . S
C225 C221 1.393 . S
C225 C224 1.391 . S
C226 H216 0.950 . S
C226 C227 1.386 . S
C226 C228 1.391 . S
C227 C226 1.386 . S
C227 C231 1.393 . S
C228 H217 0.950 . S
C228 C226 1.391 . S
C228 C229 1.400 . S
C229 C223 1.491 . S
C229 C228 1.400 . S
C229 C230 1.398 . S
C230 H218 0.950 . S
C230 C229 1.398 . S
C230 C231 1.391 . S
C231 H219 0.950 . S
C231 C227 1.393 . S
C231 C230 1.391 . S
H232 C240 0.950 . S
H233 C245 0.950 . S
H234 C242 0.950 . S
H235 C244 0.950 . S
H236 C246 0.950 . S
H237 C248 0.950 . S
H238 C250 0.950 . S
H239 C251 0.950 . S
C240 H232 0.950 . S
C240 C241 1.386 . S
C240 C242 1.391 . S
C241 C240 1.386 . S
C241 C245 1.393 . S
C242 H234 0.950 . S
C242 C240 1.391 . S
C242 C243 1.400 . S
C243 C242 1.400 . S
C243 C244 1.398 . S
C243 C249 1.491 . S
C244 H235 0.950 . S
C244 C243 1.398 . S
C244 C245 1.391 . S
C245 H233 0.950 . S
C245 C241 1.393 . S
C245 C244 1.391 . S
C246 H236 0.950 . S
C246 C247 1.386 . S
C246 C248 1.391 . S
C247 C246 1.386 . S
C247 C251 1.393 . S
C248 H237 0.950 . S
C248 C246 1.391 . S
C248 C249 1.400 . S
C249 C243 1.491 . S
C249 C248 1.400 . S
C249 C250 1.398 . S
C250 H238 0.950 . S
C250 C249 1.398 . S
C250 C251 1.391 . S
C251 H239 0.950 . S
C251 C247 1.393 . S
C251 C250 1.391 . S
H252 C260 0.950 . S
H253 C265 0.950 . S
H254 C262 0.950 . S
H255 C264 0.950 . S
H256 C266 0.950 . S
H257 C268 0.950 . S
H258 C270 0.950 . S
H259 C271 0.950 . S
C260 H252 0.950 . S
C260 C261 1.386 . S
C260 C262 1.391 . S
C261 C260 1.386 . S
C261 C265 1.393 . S
C262 H254 0.950 . S
C262 C260 1.391 . S
C262 C263 1.400 . S
C263 C262 1.400 . S
C263 C264 1.398 . S
C263 C269 1.491 . S
C264 H255 0.950 . S
C264 C263 1.398 . S
C264 C265 1.391 . S
C265 H253 0.950 . S
C265 C261 1.393 . S
C265 C264 1.391 . S
C266 H256 0.950 . S
C266 C267 1.386 . S
C266 C268 1.391 . S
C267 C266 1.386 . S
C267 C271 1.393 . S
C268 H257 0.950 . S
C268 C266 1.391 . S
C268 C269 1.400 . S
C269 C263 1.491 . S
C269 C268 1.400 . S
C269 C270 1.398 . S
C270 H258 0.950 . S
C270 C269 1.398 . S
C270 C271 1.391 . S
C271 H259 0.950 . S
C271 C267 1.393 . S
C271 C270 1.391 . S
H272 C280 0.950 . S
H273 C285 0.950 1_545 S
H274 C282 0.950 . S
H275 C284 0.950 1_545 S
H276 C286 0.950 . S
H277 C288 0.950 . S
H278 C290 0.950 . S
H279 C291 0.950 . S
C280 H272 0.950 . S
C280 C281 1.386 . S
C280 C282 1.391 . S
C281 C280 1.386 . S
C281 C285 1.393 . S
C282 H274 0.950 . S
C282 C280 1.391 . S
C282 C283 1.400 . S
C283 C282 1.400 . S
C283 C284 1.398 . S
C283 C289 1.491 . S
C284 H275 0.950 1_565 S
C284 C283 1.398 . S
C284 C285 1.391 . S
C285 H273 0.950 1_565 S
C285 C281 1.393 . S
C285 C284 1.391 . S
C286 H276 0.950 . S
C286 C287 1.386 1_545 S
C286 C288 1.391 . S
C287 C286 1.386 1_565 S
C287 C291 1.393 . S
C288 H277 0.950 . S
C288 C286 1.391 . S
C288 C289 1.400 1_545 S
C289 C283 1.491 . S
C289 C288 1.400 1_565 S
C289 C290 1.398 . S
C290 H278 0.950 . S
C290 C289 1.398 . S
C290 C291 1.391 . S
C291 H279 0.950 . S
C291 C287 1.393 . S
C291 C290 1.391 . S
H292 C300 0.950 . S
H293 C305 0.950 . S
H294 C302 0.950 . S
H295 C304 0.950 . S
H296 C306 0.950 . S
H297 C308 0.950 . S
H298 C310 0.950 1_554 S
H299 C311 0.950 . S
C300 H292 0.950 . S
C300 C301 1.386 . S
C300 C302 1.391 . S
C301 C300 1.386 . S
C301 C305 1.393 . S
C302 H294 0.950 . S
C302 C300 1.391 . S
C302 C303 1.400 . S
C303 C302 1.400 . S
C303 C304 1.398 . S
C303 C309 1.491 . S
C304 H295 0.950 . S
C304 C303 1.398 . S
C304 C305 1.391 . S
C305 H293 0.950 . S
C305 C301 1.393 . S
C305 C304 1.391 . S
C306 H296 0.950 . S
C306 C307 1.386 . S
C306 C308 1.391 . S
C307 C306 1.386 . S
C307 C311 1.393 1_556 S
C308 H297 0.950 . S
C308 C306 1.391 . S
C308 C309 1.400 . S
C309 C303 1.491 . S
C309 C308 1.400 . S
C309 C310 1.398 . S
C310 H298 0.950 1_556 S
C310 C309 1.398 . S
C310 C311 1.391 1_556 S
C311 H299 0.950 . S
C311 C307 1.393 1_554 S
C311 C310 1.391 1_554 S
H312 C320 0.950 . S
H313 C325 0.950 . S
H314 C322 0.950 . S
H315 C324 0.950 . S
H316 C326 0.950 . S
H317 C328 0.950 . S
H318 C330 0.950 . S
H319 C331 0.950 . S
C320 H312 0.950 . S
C320 C321 1.386 . S
C320 C322 1.391 . S
C321 C320 1.386 . S
C321 C325 1.393 . S
C322 H314 0.950 . S
C322 C320 1.391 . S
C322 C323 1.400 . S
C323 C322 1.400 . S
C323 C324 1.398 . S
C323 C329 1.491 . S
C324 H315 0.950 . S
C324 C323 1.398 . S
C324 C325 1.391 . S
C325 H313 0.950 . S
C325 C321 1.393 . S
C325 C324 1.391 . S
C326 H316 0.950 . S
C326 C327 1.386 . S
C326 C328 1.391 . S
C327 C326 1.386 . S
C327 C331 1.393 . S
C328 H317 0.950 . S
C328 C326 1.391 . S
C328 C329 1.400 . S
C329 C323 1.491 . S
C329 C328 1.400 . S
C329 C330 1.398 . S
C330 H318 0.950 . S
C330 C329 1.398 . S
C330 C331 1.391 . S
C331 H319 0.950 . S
C331 C327 1.393 . S
C331 C330 1.391 . S
H332 C340 0.950 . S
H333 C345 0.950 . S
H334 C342 0.950 . S
H335 C344 0.950 . S
H336 C346 0.950 . S
H337 C348 0.950 . S
H338 C350 0.950 . S
H339 C351 0.945 1_655 S
C340 H332 0.950 . S
C340 C341 1.386 . S
C340 C342 1.391 . S
C341 C340 1.386 . S
C341 C345 1.393 . S
C342 H334 0.950 . S
C342 C340 1.391 . S
C342 C343 1.400 . S
C343 C342 1.400 . S
C343 C344 1.398 . S
C343 C349 1.491 . S
C344 H335 0.950 . S
C344 C343 1.398 . S
C344 C345 1.391 . S
C345 H333 0.950 . S
C345 C341 1.393 . S
C345 C344 1.391 . S
C346 H336 0.950 . S
C346 C347 1.386 . S
C346 C348 1.391 . S
C347 C346 1.386 . S
C347 C351 1.393 . S
C348 H337 0.950 . S
C348 C346 1.391 . S
C348 C349 1.400 . S
C349 C343 1.491 . S
C349 C348 1.400 . S
C349 C350 1.398 . S
C350 H338 0.950 . S
C350 C349 1.398 . S
C350 C351 1.391 . S
C351 H339 0.945 1_455 S
C351 C347 1.393 . S
C351 C350 1.391 . S
H352 C360 0.950 . S
H353 C365 0.950 . S
H354 C362 0.950 . S
H355 C364 0.950 . S
H356 C366 0.950 . S
H357 C368 0.950 . S
H358 C370 0.950 1_554 S
H359 C371 0.950 . S
C360 H352 0.950 . S
C360 C361 1.386 . S
C360 C362 1.391 . S
C361 C360 1.386 . S
C361 C365 1.393 . S
C362 H354 0.950 . S
C362 C360 1.391 . S
C362 C363 1.400 . S
C363 C362 1.400 . S
C363 C364 1.398 . S
C363 C369 1.491 . S
C364 H355 0.950 . S
C364 C363 1.398 . S
C364 C365 1.391 . S
C365 H353 0.950 . S
C365 C361 1.393 . S
C365 C364 1.391 . S
C366 H356 0.950 . S
C366 C367 1.386 . S
C366 C368 1.391 . S
C367 C366 1.386 . S
C367 C371 1.393 1_556 S
C368 H357 0.950 . S
C368 C366 1.391 . S
C368 C369 1.400 . S
C369 C363 1.491 . S
C369 C368 1.400 . S
C369 C370 1.398 . S
C370 H358 0.950 1_556 S
C370 C369 1.398 . S
C370 C371 1.391 1_556 S
C371 H359 0.950 . S
C371 C367 1.393 1_554 S
C371 C370 1.391 1_554 S
H372 C380 0.950 . S
H373 C385 0.950 . S
H374 C382 0.950 . S
H375 C384 0.950 . S
H376 C386 0.950 . S
H377 C388 0.950 . S
H378 C390 0.950 . S
H379 C391 0.950 1_455 S
C380 H372 0.950 . S
C380 C381 1.386 . S
C380 C382 1.391 . S
C381 C380 1.386 . S
C381 C385 1.393 . S
C382 H374 0.950 . S
C382 C380 1.391 . S
C382 C383 1.400 . S
C383 C382 1.400 . S
C383 C384 1.398 . S
C383 C389 1.491 . S
C384 H375 0.950 . S
C384 C383 1.398 . S
C384 C385 1.391 . S
C385 H373 0.950 . S
C385 C381 1.393 . S
C385 C384 1.391 . S
C386 H376 0.950 . S
C386 C387 1.386 . S
C386 C388 1.391 . S
C387 C386 1.386 . S
C387 C391 1.393 . S
C388 H377 0.950 . S
C388 C386 1.391 . S
C388 C389 1.400 . S
C389 C383 1.491 . S
C389 C388 1.400 . S
C389 C390 1.398 . S
C390 H378 0.950 . S
C390 C389 1.398 . S
C390 C391 1.391 . S
C391 H379 0.950 1_655 S
C391 C387 1.393 . S
C391 C390 1.391 . S
H392 C400 0.950 . S
H393 C405 0.950 . S
H394 C402 0.950 . S
H395 C404 0.950 . S
H396 C406 0.950 . S
H397 C408 0.950 . S
H398 C410 0.950 . S
H399 C411 0.950 . S
C400 H392 0.950 . S
C400 C401 1.386 . S
C400 C402 1.391 . S
C401 C400 1.386 . S
C401 C405 1.393 . S
C402 H394 0.950 . S
C402 C400 1.391 . S
C402 C403 1.400 . S
C403 C402 1.400 . S
C403 C404 1.398 . S
C403 C409 1.491 . S
C404 H395 0.950 . S
C404 C403 1.398 . S
C404 C405 1.391 . S
C405 H393 0.950 . S
C405 C401 1.393 . S
C405 C404 1.391 . S
C406 H396 0.950 . S
C406 C407 1.386 . S
C406 C408 1.391 . S
C407 C406 1.386 . S
C407 C411 1.393 . S
C408 H397 0.950 . S
C408 C406 1.391 . S
C408 C409 1.400 . S
C409 C403 1.491 . S
C409 C408 1.400 . S
C409 C410 1.398 . S
C410 H398 0.950 . S
C410 C409 1.398 . S
C410 C411 1.391 . S
C411 H399 0.950 . S
C411 C407 1.393 . S
C411 C410 1.391 . S
H412 C420 0.950 . S
H413 C425 0.950 . S
H414 C422 0.950 . S
H415 C424 0.950 . S
H416 C426 0.950 1_445 S
H417 C428 0.950 1_455 S
H418 C430 0.950 . S
H419 C431 0.950 . S
C420 H412 0.950 . S
C420 C421 1.386 . S
C420 C422 1.391 . S
C421 C420 1.386 . S
C421 C425 1.393 . S
C422 H414 0.950 . S
C422 C420 1.391 . S
C422 C423 1.400 . S
C423 C422 1.400 . S
C423 C424 1.398 . S
C423 C429 1.491 . S
C424 H415 0.950 . S
C424 C423 1.398 . S
C424 C425 1.391 . S
C425 H413 0.950 . S
C425 C421 1.393 . S
C425 C424 1.391 . S
C426 H416 0.950 1_665 S
C426 C427 1.386 . S
C426 C428 1.391 . S
C427 C426 1.386 . S
C427 C431 1.393 . S
C428 H417 0.950 1_655 S
C428 C426 1.391 . S
C428 C429 1.400 . S
C429 C423 1.491 . S
C429 C428 1.400 . S
C429 C430 1.398 . S
C430 H418 0.950 . S
C430 C429 1.398 . S
C430 C431 1.391 . S
C431 H419 0.950 . S
C431 C427 1.393 . S
C431 C430 1.391 . S
H432 C440 0.950 . S
H433 C445 0.950 . S
H434 C442 0.950 . S
H435 C444 0.950 . S
H436 C446 0.950 . S
H437 C448 0.950 . S
H438 C450 0.950 . S
H439 C451 0.950 . S
C440 H432 0.950 . S
C440 C441 1.386 . S
C440 C442 1.391 . S
C441 C440 1.386 . S
C441 C445 1.393 . S
C442 H434 0.950 . S
C442 C440 1.391 . S
C442 C443 1.400 . S
C443 C442 1.400 . S
C443 C444 1.398 . S
C443 C449 1.491 . S
C444 H435 0.950 . S
C444 C443 1.398 . S
C444 C445 1.391 . S
C445 H433 0.950 . S
C445 C441 1.393 . S
C445 C444 1.391 . S
C446 H436 0.950 . S
C446 C447 1.386 . S
C446 C448 1.391 . S
C447 C446 1.386 . S
C447 C451 1.393 . S
C448 H437 0.950 . S
C448 C446 1.391 . S
C448 C449 1.400 . S
C449 C443 1.491 . S
C449 C448 1.400 . S
C449 C450 1.398 . S
C450 H438 0.950 . S
C450 C449 1.398 . S
C450 C451 1.391 . S
C451 H439 0.950 . S
C451 C447 1.393 . S
C451 C450 1.391 . S
H452 C460 0.950 . S
H453 C465 0.950 . S
H454 C462 0.950 . S
H455 C464 0.950 . S
H456 C466 0.950 . S
H457 C468 0.950 . S
H458 C470 0.950 . S
H459 C471 0.950 . S
C460 H452 0.950 . S
C460 C461 1.386 . S
C460 C462 1.391 . S
C461 C460 1.386 . S
C461 C465 1.393 . S
C462 H454 0.950 . S
C462 C460 1.391 . S
C462 C463 1.400 . S
C463 C462 1.400 . S
C463 C464 1.398 . S
C463 C469 1.491 . S
C464 H455 0.950 . S
C464 C463 1.398 . S
C464 C465 1.391 . S
C465 H453 0.950 . S
C465 C461 1.393 . S
C465 C464 1.391 . S
C466 H456 0.950 . S
C466 C467 1.386 . S
C466 C468 1.391 . S
C467 C466 1.386 . S
C467 C471 1.393 . S
C468 H457 0.950 . S
C468 C466 1.391 . S
C468 C469 1.400 . S
C469 C463 1.491 . S
C469 C468 1.400 . S
C469 C470 1.398 . S
C470 H458 0.950 . S
C470 C469 1.398 . S
C470 C471 1.391 . S
C471 H459 0.950 . S
C471 C467 1.393 . S
C471 C470 1.391 . S
H472 C480 0.950 . S
H473 C485 0.950 . S
H474 C482 0.950 . S
H475 C484 0.950 . S
H476 C486 0.950 . S
H477 C488 0.950 . S
H478 C490 0.950 . S
H479 C491 0.952 . S
C480 H472 0.950 . S
C480 C481 1.386 . S
C480 C482 1.391 . S
C481 C480 1.386 . S
C481 C485 1.393 . S
C482 H474 0.950 . S
C482 C480 1.391 . S
C482 C483 1.400 . S
C483 C482 1.400 . S
C483 C484 1.398 . S
C483 C489 1.491 . S
C484 H475 0.950 . S
C484 C483 1.398 . S
C484 C485 1.391 . S
C485 H473 0.950 . S
C485 C481 1.393 . S
C485 C484 1.391 . S
C486 H476 0.950 . S
C486 C487 1.386 . S
C486 C488 1.391 . S
C487 C486 1.386 . S
C487 C491 1.393 . S
C488 H477 0.950 . S
C488 C486 1.391 . S
C488 C489 1.400 . S
C489 C483 1.491 . S
C489 C488 1.400 . S
C489 C490 1.398 . S
C490 H478 0.950 . S
C490 C489 1.398 . S
C490 C491 1.391 . S
C491 H479 0.952 . S
C491 C487 1.393 . S
C491 C490 1.391 . S
H492 C500 0.950 1_545 S
H493 C505 0.950 . S
H494 C502 0.950 . S
H495 C504 0.950 . S
H496 C506 0.950 . S
H497 C508 0.950 . S
H498 C510 0.950 . S
H499 C511 0.950 1_554 S
C500 H492 0.950 1_565 S
C500 C501 1.386 . S
C500 C502 1.391 1_565 S
C501 C500 1.386 . S
C501 C505 1.393 . S
C502 H494 0.950 . S
C502 C500 1.391 1_545 S
C502 C503 1.400 1_545 S
C503 C502 1.400 1_565 S
C503 C504 1.398 . S
C503 C509 1.491 . S
C504 H495 0.950 . S
C504 C503 1.398 . S
C504 C505 1.391 . S
C505 H493 0.950 . S
C505 C501 1.393 . S
C505 C504 1.391 . S
C506 H496 0.950 . S
C506 C507 1.386 1_565 S
C506 C508 1.391 . S
C507 C506 1.386 1_545 S
C507 C511 1.393 . S
C508 H497 0.950 . S
C508 C506 1.391 . S
C508 C509 1.400 . S
C509 C503 1.491 . S
C509 C508 1.400 . S
C509 C510 1.398 1_565 S
C510 H498 0.950 . S
C510 C509 1.398 1_545 S
C510 C511 1.391 . S
C511 H499 0.950 1_556 S
C511 C507 1.393 . S
C511 C510 1.391 . S
H512 C520 0.950 . S
H513 C525 0.950 . S
H514 C522 0.950 . S
H515 C524 0.950 . S
H516 C526 0.950 . S
H517 C528 0.950 . S
H518 C530 0.950 . S
H519 C531 0.950 . S
C520 H512 0.950 . S
C520 C521 1.386 . S
C520 C522 1.391 . S
C521 C520 1.386 . S
C521 C525 1.393 . S
C522 H514 0.950 . S
C522 C520 1.391 . S
C522 C523 1.400 . S
C523 C522 1.400 . S
C523 C524 1.398 . S
C523 C529 1.491 . S
C524 H515 0.950 . S
C524 C523 1.398 . S
C524 C525 1.391 . S
C525 H513 0.950 . S
C525 C521 1.393 . S
C525 C524 1.391 . S
C526 H516 0.950 . S
C526 C527 1.386 . S
C526 C528 1.391 . S
C527 C526 1.386 . S
C527 C531 1.393 . S
C528 H517 0.950 . S
C528 C526 1.391 . S
C528 C529 1.400 . S
C529 C523 1.491 . S
C529 C528 1.400 . S
C529 C530 1.398 . S
C530 H518 0.950 . S
C530 C529 1.398 . S
C530 C531 1.391 . S
C531 H519 0.950 . S
C531 C527 1.393 . S
C531 C530 1.391 . S
H532 C540 0.950 . S
H533 C545 0.950 . S
H534 C542 0.950 . S
H535 C544 0.950 . S
H536 C546 0.950 . S
H537 C548 0.950 . S
H538 C550 0.950 . S
H539 C551 0.950 . S
C540 H532 0.950 . S
C540 C541 1.386 . S
C540 C542 1.391 . S
C541 C540 1.386 . S
C541 C545 1.393 . S
C542 H534 0.950 . S
C542 C540 1.391 . S
C542 C543 1.400 . S
C543 C542 1.400 . S
C543 C544 1.398 . S
C543 C549 1.491 . S
C544 H535 0.950 . S
C544 C543 1.398 . S
C544 C545 1.391 . S
C545 H533 0.950 . S
C545 C541 1.393 . S
C545 C544 1.391 . S
C546 H536 0.950 . S
C546 C547 1.386 . S
C546 C548 1.391 . S
C547 C546 1.386 . S
C547 C551 1.393 . S
C548 H537 0.950 . S
C548 C546 1.391 . S
C548 C549 1.400 . S
C549 C543 1.491 . S
C549 C548 1.400 . S
C549 C550 1.398 . S
C550 H538 0.950 . S
C550 C549 1.398 . S
C550 C551 1.391 . S
C551 H539 0.950 . S
C551 C547 1.393 . S
C551 C550 1.391 . S
H552 C560 0.950 . S
H553 C565 0.950 . S
H554 C562 0.950 . S
H555 C564 0.950 . S
H556 C566 0.950 . S
H557 C568 0.950 . S
H558 C570 0.950 . S
H559 C571 0.950 . S
C560 H552 0.950 . S
C560 C561 1.386 . S
C560 C562 1.391 . S
C561 C560 1.386 . S
C561 C565 1.393 . S
C562 H554 0.950 . S
C562 C560 1.391 . S
C562 C563 1.400 . S
C563 C562 1.400 . S
C563 C564 1.398 . S
C563 C569 1.491 . S
C564 H555 0.950 . S
C564 C563 1.398 . S
C564 C565 1.391 . S
C565 H553 0.950 . S
C565 C561 1.393 . S
C565 C564 1.391 . S
C566 H556 0.950 . S
C566 C567 1.386 . S
C566 C568 1.391 . S
C567 C566 1.386 . S
C567 C571 1.393 . S
C568 H557 0.950 . S
C568 C566 1.391 . S
C568 C569 1.400 . S
C569 C563 1.491 . S
C569 C568 1.400 . S
C569 C570 1.398 . S
C570 H558 0.950 . S
C570 C569 1.398 . S
C570 C571 1.391 . S
C571 H559 0.950 . S
C571 C567 1.393 . S
C571 C570 1.391 . S
H572 C580 0.950 . S
H573 C585 0.950 . S
H574 C582 0.950 . S
H575 C584 0.950 . S
H576 C586 0.950 . S
H577 C588 0.950 . S
H578 C590 0.950 1_455 S
H579 C591 0.950 1_455 S
C580 H572 0.950 . S
C580 C581 1.386 . S
C580 C582 1.391 . S
C581 C580 1.386 . S
C581 C585 1.393 . S
C582 H574 0.950 . S
C582 C580 1.391 . S
C582 C583 1.400 . S
C583 C582 1.400 . S
C583 C584 1.398 . S
C583 C589 1.491 . S
C584 H575 0.950 . S
C584 C583 1.398 . S
C584 C585 1.391 . S
C585 H573 0.950 . S
C585 C581 1.393 . S
C585 C584 1.391 . S
C586 H576 0.950 . S
C586 C587 1.386 . S
C586 C588 1.391 . S
C587 C586 1.386 . S
C587 C591 1.393 . S
C588 H577 0.950 . S
C588 C586 1.391 . S
C588 C589 1.400 . S
C589 C583 1.491 . S
C589 C588 1.400 . S
C589 C590 1.398 . S
C590 H578 0.950 1_655 S
C590 C589 1.398 . S
C590 C591 1.391 . S
C591 H579 0.950 1_655 S
C591 C587 1.393 . S
C591 C590 1.391 . S
H592 C600 0.950 . S
H593 C605 0.950 . S
H594 C602 0.950 . S
H595 C604 0.950 . S
H596 C606 0.950 . S
H597 C608 0.950 . S
H598 C610 0.950 . S
H599 C611 0.950 . S
C600 H592 0.950 . S
C600 C601 1.386 . S
C600 C602 1.391 . S
C601 C600 1.386 . S
C601 C605 1.393 . S
C602 H594 0.950 . S
C602 C600 1.391 . S
C602 C603 1.400 . S
C603 C602 1.400 . S
C603 C604 1.398 . S
C603 C609 1.491 . S
C604 H595 0.950 . S
C604 C603 1.398 . S
C604 C605 1.391 . S
C605 H593 0.950 . S
C605 C601 1.393 . S
C605 C604 1.391 . S
C606 H596 0.950 . S
C606 C607 1.386 . S
C606 C608 1.391 . S
C607 C606 1.386 . S
C607 C611 1.393 . S
C608 H597 0.950 . S
C608 C606 1.391 . S
C608 C609 1.400 . S
C609 C603 1.491 . S
C609 C608 1.400 . S
C609 C610 1.398 . S
C610 H598 0.950 . S
C610 C609 1.398 . S
C610 C611 1.391 . S
C611 H599 0.950 . S
C611 C607 1.393 . S
C611 C610 1.391 . S
H612 C620 0.950 . S
H613 C625 0.950 . S
H614 C622 0.950 . S
H615 C624 0.950 . S
H616 C626 0.950 . S
H617 C628 0.950 . S
H618 C630 0.950 . S
H619 C631 0.950 1_655 S
C620 H612 0.950 . S
C620 C621 1.386 . S
C620 C622 1.391 . S
C621 C620 1.386 . S
C621 C625 1.393 . S
C622 H614 0.950 . S
C622 C620 1.391 . S
C622 C623 1.400 . S
C623 C622 1.400 . S
C623 C624 1.398 . S
C623 C629 1.491 . S
C624 H615 0.950 . S
C624 C623 1.398 . S
C624 C625 1.391 . S
C625 H613 0.950 . S
C625 C621 1.393 . S
C625 C624 1.391 . S
C626 H616 0.950 . S
C626 C627 1.386 . S
C626 C628 1.391 . S
C627 C626 1.386 . S
C627 C631 1.393 . S
C628 H617 0.950 . S
C628 C626 1.391 . S
C628 C629 1.400 . S
C629 C623 1.491 . S
C629 C628 1.400 . S
C629 C630 1.398 . S
C630 H618 0.950 . S
C630 C629 1.398 . S
C630 C631 1.391 . S
C631 H619 0.950 1_455 S
C631 C627 1.393 . S
C631 C630 1.391 . S
H632 C640 0.950 . S
H633 C645 0.950 . S
H634 C642 0.950 . S
H635 C644 0.950 . S
H636 C646 0.950 . S
H637 C648 0.950 . S
H638 C650 0.950 . S
H639 C651 0.950 . S
C640 H632 0.950 . S
C640 C641 1.386 . S
C640 C642 1.391 . S
C641 C640 1.386 . S
C641 C645 1.393 . S
C642 H634 0.950 . S
C642 C640 1.391 . S
C642 C643 1.400 . S
C643 C642 1.400 . S
C643 C644 1.398 . S
C643 C649 1.491 . S
C644 H635 0.950 . S
C644 C643 1.398 . S
C644 C645 1.391 . S
C645 H633 0.950 . S
C645 C641 1.393 . S
C645 C644 1.391 . S
C646 H636 0.950 . S
C646 C647 1.386 . S
C646 C648 1.391 . S
C647 C646 1.386 . S
C647 C651 1.393 . S
C648 H637 0.950 . S
C648 C646 1.391 . S
C648 C649 1.400 . S
C649 C643 1.491 . S
C649 C648 1.400 . S
C649 C650 1.398 . S
C650 H638 0.950 . S
C650 C649 1.398 . S
C650 C651 1.391 . S
C651 H639 0.950 . S
C651 C647 1.393 . S
C651 C650 1.391 . S
C181 C4 1.765 . S
C187 C106 1.722 . S
C201 C16 1.774 . S
C207 C123 1.736 1_565 S
C227 C146 0.892 . S
C221 C32 1.058 . S
C241 C43 1.594 . S
C247 C167 1.296 . S
C267 C126 2.107 . S
C261 C5 2.187 . S
C287 C103 1.409 1_565 S
C281 C21 1.443 . S
C307 C165 1.179 . S
C301 C27 1.199 . S
C327 C144 1.262 . S
C321 C37 1.338 . S
C341 C10 1.715 . S
C347 C168 1.682 . S
C367 C125 1.411 1_556 S
C361 C26 1.678 . S
C381 C38 1.433 . S
C387 C101 1.294 . S
C401 C15 1.624 . S
C407 C147 1.597 . S
C427 C105 1.837 1_565 S
C421 C48 1.918 . S
C441 C59 1.422 . S
C447 C124 1.412 . S
C461 C76 1.366 . S
C467 C143 1.137 . S
C481 C87 1.340 . S
C487 C164 1.082 . S
C501 C54 1.554 . S
C507 C127 1.523 1_556 S
C527 C102 2.083 . S
C521 C60 2.119 . S
C547 C166 1.088 . S
C541 C71 1.148 . S
C567 C145 1.365 . S
C561 C82 1.391 . S
C581 C49 1.808 . S
C587 C169 1.738 . S
C607 C122 1.062 . S
C601 C70 1.210 . S
C627 C104 1.310 . S
C621 C81 1.518 . S
C641 C65 1.497 . S
C647 C148 1.447 . S
