# Generated by pormake.
# Topology eea, (3,6)-cn, num edge types: 1
# Building blocks:
#     Node 0, Type 0, BuildingBlock: BETDAH_clean_linker_0, # of connection points: 3
#     Node 1, Type 0, BuildingBlock: BETDAH_clean_linker_0, # of connection points: 3
#     Node 2, Type 0, BuildingBlock: BETDAH_clean_linker_0, # of connection points: 3
#     Node 3, Type 0, BuildingBlock: BETDAH_clean_linker_0, # of connection points: 3
#     Node 4, Type 0, BuildingBlock: BETDAH_clean_linker_0, # of connection points: 3
#     Node 5, Type 0, BuildingBlock: BETDAH_clean_linker_0, # of connection points: 3
#     Node 6, Type 0, BuildingBlock: BETDAH_clean_linker_0, # of connection points: 3
#     Node 7, Type 0, BuildingBlock: BETDAH_clean_linker_0, # of connection points: 3
#     Node 8, Type 0, BuildingBlock: BETDAH_clean_linker_0, # of connection points: 3
#     Node 9, Type 0, BuildingBlock: BETDAH_clean_linker_0, # of connection points: 3
#     Node 10, Type 0, BuildingBlock: BETDAH_clean_linker_0, # of connection points: 3
#     Node 11, Type 0, BuildingBlock: BETDAH_clean_linker_0, # of connection points: 3
#     Node 12, Type 0, BuildingBlock: BETDAH_clean_linker_0, # of connection points: 3
#     Node 13, Type 0, BuildingBlock: BETDAH_clean_linker_0, # of connection points: 3
#     Node 14, Type 0, BuildingBlock: BETDAH_clean_linker_0, # of connection points: 3
#     Node 15, Type 0, BuildingBlock: BETDAH_clean_linker_0, # of connection points: 3
#     Node 16, Type 0, BuildingBlock: BETDAH_clean_linker_0, # of connection points: 3
#     Node 17, Type 0, BuildingBlock: BETDAH_clean_linker_0, # of connection points: 3
#     Node 18, Type 1, BuildingBlock: KUMBOL_clean_sbu_0, # of connection points: 6
#     Node 19, Type 1, BuildingBlock: KUMBOL_clean_sbu_0, # of connection points: 6
#     Node 20, Type 1, BuildingBlock: KUMBOL_clean_sbu_0, # of connection points: 6
#     Node 21, Type 1, BuildingBlock: KUMBOL_clean_sbu_0, # of connection points: 6
#     Node 22, Type 1, BuildingBlock: KUMBOL_clean_sbu_0, # of connection points: 6
#     Node 23, Type 1, BuildingBlock: KUMBOL_clean_sbu_0, # of connection points: 6
#     Node 24, Type 1, BuildingBlock: KUMBOL_clean_sbu_0, # of connection points: 6
#     Node 25, Type 1, BuildingBlock: KUMBOL_clean_sbu_0, # of connection points: 6
#     Node 26, Type 1, BuildingBlock: KUMBOL_clean_sbu_0, # of connection points: 6
#     Edge 27, Type (0, 1), BuildingBlock: ZUJKAS_clean_linker_0, # of connection points: 2
#     Edge 28, Type (0, 1), BuildingBlock: ZUJKAS_clean_linker_0, # of connection points: 2
#     Edge 29, Type (0, 1), BuildingBlock: ZUJKAS_clean_linker_0, # of connection points: 2
#     Edge 30, Type (0, 1), BuildingBlock: ZUJKAS_clean_linker_0, # of connection points: 2
#     Edge 31, Type (0, 1), BuildingBlock: ZUJKAS_clean_linker_0, # of connection points: 2
#     Edge 32, Type (0, 1), BuildingBlock: ZUJKAS_clean_linker_0, # of connection points: 2
#     Edge 33, Type (0, 1), BuildingBlock: ZUJKAS_clean_linker_0, # of connection points: 2
#     Edge 34, Type (0, 1), BuildingBlock: ZUJKAS_clean_linker_0, # of connection points: 2
#     Edge 35, Type (0, 1), BuildingBlock: ZUJKAS_clean_linker_0, # of connection points: 2
#     Edge 36, Type (0, 1), BuildingBlock: ZUJKAS_clean_linker_0, # of connection points: 2
#     Edge 37, Type (0, 1), BuildingBlock: ZUJKAS_clean_linker_0, # of connection points: 2
#     Edge 38, Type (0, 1), BuildingBlock: ZUJKAS_clean_linker_0, # of connection points: 2
#     Edge 39, Type (0, 1), BuildingBlock: ZUJKAS_clean_linker_0, # of connection points: 2
#     Edge 40, Type (0, 1), BuildingBlock: ZUJKAS_clean_linker_0, # of connection points: 2
#     Edge 41, Type (0, 1), BuildingBlock: ZUJKAS_clean_linker_0, # of connection points: 2
#     Edge 42, Type (0, 1), BuildingBlock: ZUJKAS_clean_linker_0, # of connection points: 2
#     Edge 43, Type (0, 1), BuildingBlock: ZUJKAS_clean_linker_0, # of connection points: 2
#     Edge 44, Type (0, 1), BuildingBlock: ZUJKAS_clean_linker_0, # of connection points: 2
#     Edge 45, Type (0, 1), BuildingBlock: ZUJKAS_clean_linker_0, # of connection points: 2
#     Edge 46, Type (0, 1), BuildingBlock: ZUJKAS_clean_linker_0, # of connection points: 2
#     Edge 47, Type (0, 1), BuildingBlock: ZUJKAS_clean_linker_0, # of connection points: 2
#     Edge 48, Type (0, 1), BuildingBlock: ZUJKAS_clean_linker_0, # of connection points: 2
#     Edge 49, Type (0, 1), BuildingBlock: ZUJKAS_clean_linker_0, # of connection points: 2
#     Edge 50, Type (0, 1), BuildingBlock: ZUJKAS_clean_linker_0, # of connection points: 2
#     Edge 51, Type (0, 1), BuildingBlock: ZUJKAS_clean_linker_0, # of connection points: 2
#     Edge 52, Type (0, 1), BuildingBlock: ZUJKAS_clean_linker_0, # of connection points: 2
#     Edge 53, Type (0, 1), BuildingBlock: ZUJKAS_clean_linker_0, # of connection points: 2
#     Edge 54, Type (0, 1), BuildingBlock: ZUJKAS_clean_linker_0, # of connection points: 2
#     Edge 55, Type (0, 1), BuildingBlock: ZUJKAS_clean_linker_0, # of connection points: 2
#     Edge 56, Type (0, 1), BuildingBlock: ZUJKAS_clean_linker_0, # of connection points: 2
#     Edge 57, Type (0, 1), BuildingBlock: ZUJKAS_clean_linker_0, # of connection points: 2
#     Edge 58, Type (0, 1), BuildingBlock: ZUJKAS_clean_linker_0, # of connection points: 2
#     Edge 59, Type (0, 1), BuildingBlock: ZUJKAS_clean_linker_0, # of connection points: 2
#     Edge 60, Type (0, 1), BuildingBlock: ZUJKAS_clean_linker_0, # of connection points: 2
#     Edge 61, Type (0, 1), BuildingBlock: ZUJKAS_clean_linker_0, # of connection points: 2
#     Edge 62, Type (0, 1), BuildingBlock: ZUJKAS_clean_linker_0, # of connection points: 2
#     Edge 63, Type (0, 1), BuildingBlock: ZUJKAS_clean_linker_0, # of connection points: 2
#     Edge 64, Type (0, 1), BuildingBlock: ZUJKAS_clean_linker_0, # of connection points: 2
#     Edge 65, Type (0, 1), BuildingBlock: ZUJKAS_clean_linker_0, # of connection points: 2
#     Edge 66, Type (0, 1), BuildingBlock: ZUJKAS_clean_linker_0, # of connection points: 2
#     Edge 67, Type (0, 1), BuildingBlock: ZUJKAS_clean_linker_0, # of connection points: 2
#     Edge 68, Type (0, 1), BuildingBlock: ZUJKAS_clean_linker_0, # of connection points: 2
#     Edge 69, Type (0, 1), BuildingBlock: ZUJKAS_clean_linker_0, # of connection points: 2
#     Edge 70, Type (0, 1), BuildingBlock: ZUJKAS_clean_linker_0, # of connection points: 2
#     Edge 71, Type (0, 1), BuildingBlock: ZUJKAS_clean_linker_0, # of connection points: 2
#     Edge 72, Type (0, 1), BuildingBlock: ZUJKAS_clean_linker_0, # of connection points: 2
#     Edge 73, Type (0, 1), BuildingBlock: ZUJKAS_clean_linker_0, # of connection points: 2
#     Edge 74, Type (0, 1), BuildingBlock: ZUJKAS_clean_linker_0, # of connection points: 2
#     Edge 75, Type (0, 1), BuildingBlock: ZUJKAS_clean_linker_0, # of connection points: 2
#     Edge 76, Type (0, 1), BuildingBlock: ZUJKAS_clean_linker_0, # of connection points: 2
#     Edge 77, Type (0, 1), BuildingBlock: ZUJKAS_clean_linker_0, # of connection points: 2
#     Edge 78, Type (0, 1), BuildingBlock: ZUJKAS_clean_linker_0, # of connection points: 2
#     Edge 79, Type (0, 1), BuildingBlock: ZUJKAS_clean_linker_0, # of connection points: 2
#     Edge 80, Type (0, 1), BuildingBlock: ZUJKAS_clean_linker_0, # of connection points: 2
# Relax obj value: 0.022
# Max RMSD: 0.151
# Mean RMSD: 0.112
data_MOF--net-eea--node1-KUMBOL_clean_sbu_0--node2-BETDAH_clean_linker_0--edge1-ZUJKAS_clean_linker_0
_symmetry_space_group_name_H-M    P1
_symmetry_Int_Tables_number       1
_symmetry_cell_setting            triclinic
loop_
_symmetry_equiv_pos_as_xyz
'x, y, z'
_cell_length_a     71.536875
_cell_length_b     72.899509
_cell_length_c     82.563426
_cell_angle_alpha  90.157541
_cell_angle_beta   90.158277
_cell_angle_gamma 119.96814
loop_
_atom_site_label
_atom_site_type_symbol
_atom_site_fract_x
_atom_site_fract_y
_atom_site_fract_z
_atom_type_partial_charge
H0 H 0.24871 0.0849 0.43729 0.0
H1 H 0.24141 0.139 0.42718 0.0
H2 H 0.22332 0.09014 0.3914 0.0
C3 C 0.24359 0.09333 0.42929 0.0
C4 C 0.23554 0.08496 0.41385 0.0
C5 C 0.24577 0.11281 0.43429 0.0
C6 C 0.23985 0.12403 0.4235 0.0
C7 C 0.23191 0.11578 0.40796 0.0
C8 C 0.22986 0.09643 0.4033 0.0
N9 N 0.22596 0.12637 0.39645 0.0
C10 C 0.22329 0.14363 0.39956 0.0
H11 H 0.93713 0.16472 0.43662 0.0
H12 H 0.88259 0.10216 0.42904 0.0
H13 H 0.93246 0.12984 0.39327 0.0
C14 C 0.92856 0.15054 0.42927 0.0
C15 C 0.93737 0.14932 0.41438 0.0
C16 C 0.90879 0.13361 0.43474 0.0
C17 C 0.8977 0.11535 0.42494 0.0
C18 C 0.90638 0.11404 0.40999 0.0
C19 C 0.92609 0.13096 0.4049 0.0
N20 N 0.89601 0.09607 0.39963 0.0
C21 C 0.8761 0.0781 0.40228 0.0
H22 H 0.85165 0.77761 0.43663 0.0
H23 H 0.91398 0.78376 0.42881 0.0
H24 H 0.88689 0.8064 0.39296 0.0
C25 C 0.86586 0.78308 0.42915 0.0
C26 C 0.86678 0.79231 0.41399 0.0
C27 C 0.88282 0.78012 0.43468 0.0
C28 C 0.90094 0.78612 0.4247 0.0
C29 C 0.90223 0.79555 0.40956 0.0
C30 C 0.8853 0.79868 0.40447 0.0
N31 N 0.92008 0.80227 0.3989 0.0
C32 C 0.93888 0.80137 0.40142 0.0
H33 H 0.08021 0.23293 0.59436 0.0
H34 H 0.13384 0.222 0.59986 0.0
H35 H 0.08337 0.19822 0.63533 0.0
C36 C 0.08859 0.22659 0.60127 0.0
C37 C 0.07928 0.21534 0.61562 0.0
C38 C 0.10818 0.22896 0.59538 0.0
C39 C 0.11875 0.22021 0.60423 0.0
C40 C 0.10976 0.20917 0.61871 0.0
C41 C 0.09008 0.2067 0.62414 0.0
N42 N 0.11953 0.19987 0.62815 0.0
C43 C 0.14043 0.20327 0.62666 0.0
H44 H 0.77167 0.84762 0.59336 0.0
H45 H 0.76065 0.89865 0.6068 0.0
H46 H 0.78183 0.87038 0.64251 0.0
C47 C 0.77138 0.85824 0.60244 0.0
C48 C 0.77767 0.85726 0.61839 0.0
C49 C 0.76501 0.873 0.59806 0.0
C50 C 0.76578 0.88739 0.60984 0.0
C51 C 0.77203 0.88646 0.62584 0.0
C52 C 0.77757 0.87124 0.63003 0.0
N53 N 0.77212 0.90001 0.63821 0.0
C54 C 0.77604 0.92041 0.63554 0.0
H55 H 0.16045 0.92118 0.59311 0.0
H56 H 0.0949 0.87018 0.5982 0.0
H57 H 0.12119 0.92191 0.63215 0.0
C58 C 0.14531 0.91381 0.59962 0.0
C59 C 0.14316 0.92384 0.61347 0.0
C60 C 0.12801 0.89451 0.59394 0.0
C61 C 0.10833 0.88499 0.60248 0.0
C62 C 0.10607 0.89486 0.61643 0.0
C63 C 0.12337 0.91422 0.62166 0.0
N64 N 0.08654 0.88647 0.62532 0.0
C65 C 0.06968 0.86561 0.62501 0.0
H66 H 0.91293 0.41676 0.77065 0.0
H67 H 0.91703 0.47585 0.75786 0.0
H68 H 0.89824 0.42692 0.72202 0.0
C69 C 0.91088 0.42655 0.76177 0.0
C70 C 0.90484 0.41909 0.74582 0.0
C71 C 0.91536 0.44699 0.7662 0.0
C72 C 0.91344 0.46002 0.75456 0.0
C73 C 0.90725 0.45262 0.7386 0.0
C74 C 0.90318 0.43239 0.73435 0.0
N75 N 0.90555 0.46523 0.72629 0.0
C76 C 0.90085 0.48128 0.729 0.0
H77 H 0.60198 0.49721 0.77001 0.0
H78 H 0.55029 0.43278 0.76403 0.0
H79 H 0.60286 0.45923 0.73038 0.0
C80 C 0.59442 0.48247 0.76323 0.0
C81 C 0.60481 0.48047 0.74946 0.0
C82 C 0.57483 0.46531 0.76871 0.0
C83 C 0.56541 0.44604 0.76001 0.0
C84 C 0.57563 0.44393 0.74617 0.0
C85 C 0.59526 0.46104 0.74114 0.0
N86 N 0.56707 0.42484 0.73707 0.0
C87 C 0.54601 0.40798 0.7378 0.0
H88 H 0.51613 0.10749 0.76738 0.0
H89 H 0.57955 0.11552 0.76027 0.0
H90 H 0.55271 0.13936 0.72511 0.0
C91 C 0.53052 0.11299 0.76009 0.0
C92 C 0.53218 0.12364 0.74553 0.0
C93 C 0.54745 0.10993 0.76562 0.0
C94 C 0.56647 0.11787 0.75628 0.0
C95 C 0.56831 0.12854 0.74163 0.0
C96 C 0.55121 0.13135 0.73648 0.0
N97 N 0.58682 0.13671 0.73151 0.0
C98 C 0.60533 0.1352 0.73373 0.0
H99 H 0.74475 0.56362 0.92721 0.0
H100 H 0.8018 0.55896 0.93593 0.0
H101 H 0.75314 0.53991 0.97258 0.0
C102 C 0.75413 0.5592 0.93492 0.0
C103 C 0.74642 0.5513 0.95048 0.0
C104 C 0.77419 0.56224 0.92949 0.0
C105 C 0.78651 0.557 0.93995 0.0
C106 C 0.77884 0.5489 0.95552 0.0
C107 C 0.75897 0.54626 0.96062 0.0
N108 N 0.79026 0.54302 0.96654 0.0
C109 C 0.81025 0.54448 0.96419 0.0
H110 H 0.43666 0.18133 0.9246 0.0
H111 H 0.45873 0.24815 0.92705 0.0
H112 H 0.48359 0.22051 0.96047 0.0
C113 C 0.44651 0.19667 0.93029 0.0
C114 C 0.45984 0.19861 0.94347 0.0
C115 C 0.44611 0.21448 0.92421 0.0
C116 C 0.45892 0.23434 0.93167 0.0
C117 C 0.47227 0.23637 0.94488 0.0
C118 C 0.47283 0.21861 0.95053 0.0
N119 N 0.48592 0.25611 0.9525 0.0
C120 C 0.48185 0.27282 0.95299 0.0
H121 H 0.82549 0.25988 0.92317 0.0
H122 H 0.76353 0.20451 0.93143 0.0
H123 H 0.79056 0.25458 0.96684 0.0
C124 C 0.8113 0.25126 0.93065 0.0
C125 C 0.81026 0.25975 0.94568 0.0
C126 C 0.79454 0.23141 0.92534 0.0
C127 C 0.77652 0.21977 0.93542 0.0
C128 C 0.77518 0.22827 0.95044 0.0
C129 C 0.79198 0.24813 0.95536 0.0
N130 N 0.75726 0.21778 0.96099 0.0
C131 C 0.73961 0.19754 0.95901 0.0
H132 H 0.58056 0.75059 0.10283 0.0
H133 H 0.58682 0.81104 0.0912 0.0
H134 H 0.5635 0.76168 0.05536 0.0
C135 C 0.57908 0.76101 0.09423 0.0
C136 C 0.57102 0.75344 0.07863 0.0
C137 C 0.58504 0.78183 0.0989 0.0
C138 C 0.58207 0.7949 0.08788 0.0
C139 C 0.5742 0.78746 0.07217 0.0
C140 C 0.56904 0.76699 0.06763 0.0
N141 N 0.57236 0.80041 0.06024 0.0
C142 C 0.568 0.81659 0.06343 0.0
H143 H 0.27097 0.83243 0.10304 0.0
H144 H 0.21703 0.76914 0.0968 0.0
H145 H 0.26721 0.79543 0.06123 0.0
C146 C 0.26258 0.81787 0.09609 0.0
C147 C 0.27161 0.81601 0.0815 0.0
C148 C 0.2429 0.80104 0.10182 0.0
C149 C 0.23202 0.7823 0.0925 0.0
C150 C 0.24095 0.78034 0.07787 0.0
C151 C 0.26064 0.79711 0.07259 0.0
N152 N 0.23105 0.76174 0.06815 0.0
C153 C 0.21023 0.74474 0.06988 0.0
H154 H 0.18269 0.44172 0.10127 0.0
H155 H 0.24637 0.45019 0.09462 0.0
H156 H 0.22012 0.47487 0.05966 0.0
C157 C 0.19721 0.4474 0.09413 0.0
C158 C 0.19912 0.45839 0.0797 0.0
C159 C 0.21412 0.44434 0.09974 0.0
C160 C 0.23328 0.45249 0.09055 0.0
C161 C 0.23539 0.46357 0.07607 0.0
C162 C 0.21838 0.46649 0.07089 0.0
N163 N 0.25428 0.47236 0.06632 0.0
C164 C 0.2718 0.46906 0.06772 0.0
H165 H 0.41051 0.89561 0.25911 0.0
H166 H 0.46554 0.88685 0.26474 0.0
H167 H 0.41673 0.86481 0.30144 0.0
C168 C 0.4194 0.88987 0.26606 0.0
C169 C 0.41108 0.87983 0.28098 0.0
C170 C 0.43901 0.89247 0.25999 0.0
C171 C 0.45058 0.88516 0.26928 0.0
C172 C 0.44241 0.87508 0.28423 0.0
C173 C 0.42274 0.87242 0.28985 0.0
N174 N 0.45308 0.86699 0.29397 0.0
C175 C 0.47368 0.86991 0.29163 0.0
H176 H 0.10062 0.51364 0.25991 0.0
H177 H 0.0933 0.56681 0.27394 0.0
H178 H 0.10926 0.53403 0.30957 0.0
C179 C 0.10121 0.52467 0.26901 0.0
C180 C 0.10596 0.52228 0.2851 0.0
C181 C 0.09617 0.54044 0.26483 0.0
C182 C 0.09683 0.5544 0.27697 0.0
C183 C 0.10153 0.552 0.29311 0.0
C184 C 0.10564 0.53574 0.29709 0.0
N185 N 0.10176 0.56527 0.30578 0.0
C186 C 0.10639 0.58599 0.30364 0.0
H187 H 0.49419 0.58994 0.25935 0.0
H188 H 0.43009 0.5366 0.26564 0.0
H189 H 0.45587 0.5878 0.30004 0.0
C190 C 0.47936 0.58183 0.2662 0.0
C191 C 0.4773 0.59119 0.28047 0.0
C192 C 0.46247 0.56213 0.26068 0.0
C193 C 0.44317 0.55179 0.26968 0.0
C194 C 0.44097 0.56111 0.28398 0.0
C195 C 0.45796 0.58067 0.28916 0.0
N196 N 0.42206 0.55173 0.29363 0.0
C197 C 0.40398 0.5318 0.29158 0.0
Gd198 Gd 0.51328 0.01741 0.03413 0.0
Gd199 Gd 0.49579 0.99118 0.9939 0.0
C200 C 0.43044 0.93145 0.98593 0.0
C201 C 0.44084 0.90508 0.98011 0.0
C202 C 0.46824 0.94169 0.98532 0.0
C203 C 0.4524 0.94695 0.98767 0.0
C204 C 0.46269 0.9208 0.98117 0.0
C205 C 0.42474 0.91041 0.98249 0.0
C206 C 0.41492 0.93769 0.98727 0.0
C207 C 0.42151 0.95901 0.98982 0.0
N208 N 0.45851 0.96746 0.99086 0.0
C209 C 0.4435 0.97381 0.99136 0.0
H210 H 0.44829 0.9902 0.99337 0.0
C211 C 0.50536 0.95344 0.98215 0.0
N212 N 0.48914 0.95731 0.98625 0.0
C213 C 0.5007 0.93293 0.9781 0.0
C214 C 0.47928 0.91647 0.97779 0.0
H215 H 0.52195 0.96607 0.98245 0.0
H216 H 0.40795 0.89824 0.98126 0.0
H217 H 0.56078 0.0185 0.03471 0.0
H218 H 0.3979 0.92628 0.98599 0.0
H219 H 0.40965 0.96407 0.99062 0.0
H220 H 0.43624 0.88889 0.97708 0.0
H221 H 0.48667 0.04241 0.04471 0.0
H222 H 0.61058 0.08147 0.04589 0.0
H223 H 0.59913 0.04416 0.03946 0.0
H224 H 0.57215 0.11892 0.0537 0.0
H225 H 0.51362 0.92983 0.97523 0.0
H226 H 0.4757 0.90062 0.97458 0.0
H227 H 0.60053 0.10951 0.05036 0.0
H228 H 0.49474 0.07836 0.05255 0.0
N229 N 0.55045 0.04109 0.03772 0.0
C230 C 0.59372 0.07033 0.04348 0.0
C231 C 0.58729 0.04926 0.03999 0.0
C232 C 0.57824 0.07667 0.04431 0.0
C233 C 0.55642 0.06141 0.04153 0.0
C234 C 0.56546 0.03473 0.0373 0.0
N235 N 0.51965 0.05113 0.04195 0.0
C236 C 0.54051 0.06664 0.0436 0.0
C237 C 0.50777 0.0753 0.05002 0.0
C238 C 0.52919 0.09164 0.05118 0.0
C239 C 0.50326 0.05495 0.04561 0.0
C240 C 0.54589 0.08735 0.04824 0.0
H241 H 0.53265 0.10735 0.05473 0.0
O242 O 0.49635 0.01005 0.05714 0.0
O243 O 0.48742 0.9913 0.01974 0.0
O244 O 0.4859 0.01601 0.9983 0.0
O245 O 0.51034 0.03998 0.01714 0.0
O246 O 0.47756 0.00569 0.03639 0.0
O247 O 0.5233 0.00475 0.05402 0.0
O248 O 0.51292 0.99883 0.97098 0.0
O249 O 0.5217 0.01731 0.0083 0.0
O250 O 0.52341 0.99278 0.02971 0.0
O251 O 0.49923 0.96875 0.01076 0.0
O252 O 0.53152 0.00291 0.99162 0.0
O253 O 0.4852 0.00294 0.97374 0.0
C254 C 0.47098 0.9907 0.02582 0.0
C255 C 0.56767 0.10288 0.05025 0.0
C256 C 0.58382 0.09753 0.04835 0.0
C257 C 0.50902 0.0043 0.06404 0.0
C258 C 0.51676 0.01265 0.08046 0.0
C259 C 0.53195 0.03409 0.08282 0.0
C260 C 0.50896 0.99906 0.09393 0.0
C261 C 0.5164 0.00683 0.10973 0.0
C262 C 0.53931 0.04193 0.09838 0.0
C263 C 0.53163 0.02847 0.11173 0.0
C264 C 0.49609 0.03499 0.00527 0.0
C265 C 0.53813 0.01788 1.00222 0.0
C266 C 0.49979 0.00379 0.96385 0.0
C267 C 0.49231 0.99486 0.94751 0.0
C268 C 0.47759 0.97322 0.94551 0.0
C269 C 0.50003 0.00799 0.93376 0.0
C270 C 0.49299 0.99953 0.91805 0.0
C271 C 0.47068 0.96471 0.93006 0.0
C272 C 0.4783 0.97767 0.91644 0.0
C273 C 0.51346 0.97385 0.02267 0.0
H274 H 0.53812 0.04476 0.07266 0.0
H275 H 0.49737 0.98243 0.09206 0.0
H276 H 0.55097 0.05854 0.10011 0.0
H277 H 0.53743 0.03511 0.12367 0.0
H278 H 0.47147 0.96291 0.95589 0.0
H279 H 0.51125 0.02476 0.93535 0.0
H280 H 0.4594 0.94795 0.92862 0.0
H281 H 0.47286 0.97047 0.90461 0.0
Gd282 Gd 0.99138 0.49793 0.03438 0.0
Gd283 Gd 0.02183 0.50653 0.99627 0.0
C284 C 0.08272 0.50123 0.99363 0.0
C285 C 0.11043 0.53765 0.98852 0.0
C286 C 0.07287 0.52839 0.99102 0.0
C287 C 0.06701 0.50753 0.99377 0.0
C288 C 0.09456 0.54361 0.98793 0.0
C289 C 0.10452 0.51649 0.99139 0.0
C290 C 0.07598 0.47972 0.9953 0.0
C291 C 0.054 0.46505 0.99652 0.0
N292 N 0.04579 0.4932 0.99578 0.0
C293 C 0.03902 0.47207 0.99652 0.0
H294 H 0.02212 0.46054 0.99756 0.0
C295 C 0.06164 0.55326 0.98556 0.0
N296 N 0.0571 0.53354 0.99039 0.0
C297 C 0.08293 0.56894 0.98245 0.0
C298 C 0.09952 0.56418 0.98386 0.0
H299 H 0.04888 0.55703 0.98455 0.0
H300 H 0.11685 0.51199 0.99143 0.0
H301 H 0.9909 0.54382 0.03308 0.0
H302 H 0.08754 0.47423 0.99529 0.0
H303 H 0.04857 0.44833 0.99754 0.0
H304 H 0.12723 0.54915 0.98636 0.0
H305 H 0.96449 0.44738 0.04604 0.0
H306 H 0.92549 0.53 0.03593 0.0
H307 H 0.9644 0.55595 0.03337 0.0
H308 H 0.88604 0.45509 0.04494 0.0
H309 H 0.08654 0.58469 0.97901 0.0
H310 H 0.11599 0.57634 0.9814 0.0
H311 H 0.89627 0.49222 0.03991 0.0
H312 H 0.92693 0.41966 0.05171 0.0
N313 N 0.96731 0.51114 0.03502 0.0
C314 C 0.93707 0.52455 0.03579 0.0
C315 C 0.95902 0.53924 0.03439 0.0
C316 C 0.93039 0.50305 0.03747 0.0
C317 C 0.94614 0.4968 0.03719 0.0
C318 C 0.97402 0.53226 0.03425 0.0
N319 N 0.95619 0.4709 0.04049 0.0
C320 C 0.94037 0.47598 0.03998 0.0
C321 C 0.93047 0.43542 0.04836 0.0
C322 C 0.91385 0.44014 0.04713 0.0
C323 C 0.95172 0.45115 0.04518 0.0
C324 C 0.91872 0.46071 0.04315 0.0
H325 H 0.89741 0.42795 0.04965 0.0
O326 O 0.99649 0.4888 0.05827 0.0
O327 O 0.01931 0.49849 0.02232 0.0
O328 O 0.99565 0.47198 0.99964 0.0
O329 O 0.9699 0.47208 0.0169 0.0
O330 O 0.00313 0.47465 0.0388 0.0
O331 O 1.00164 0.52039 0.05432 0.0
O332 O 0.01601 0.51574 0.97266 0.0
O333 O 0.99383 0.50583 0.00831 0.0
O334 O 0.01734 0.53248 0.03084 0.0
O335 O 0.04325 0.53242 0.01376 0.0
O336 O 0.01004 0.5298 0.99192 0.0
O337 O 0.01302 0.48487 0.97584 0.0
C338 C 0.01938 0.48308 0.02914 0.0
C339 C 0.90281 0.46662 0.0427 0.0
C340 C 0.90863 0.48776 0.03985 0.0
C341 C 1.00112 0.50685 0.06486 0.0
C342 C 0.99062 0.50575 0.08036 0.0
C343 C 0.96855 0.499 0.08107 0.0
C344 C 0.00289 0.51136 0.09468 0.0
C345 C 0.99322 0.51009 0.10979 0.0
C346 C 0.95881 0.49774 0.09596 0.0
C347 C 0.97099 0.50318 0.11024 0.0
C348 C 0.97579 0.46307 0.0056 0.0
C349 C 0.99371 0.52123 1.00152 0.0
C350 C 0.01268 0.49833 0.96563 0.0
C351 C 0.02375 0.50094 0.95013 0.0
C352 C 0.04602 0.50866 0.9496 0.0
C353 C 0.0119 0.49627 0.93564 0.0
C354 C 0.02222 0.49953 0.92054 0.0
C355 C 0.0564 0.51192 0.93473 0.0
C356 C 0.04467 0.50751 0.92029 0.0
C357 C 0.03727 0.5414 0.02502 0.0
H358 H 0.95887 0.49466 0.07017 0.0
H359 H 0.02002 0.51686 0.09399 0.0
H360 H 0.94173 0.4924 0.09646 0.0
H361 H 0.9629 0.50165 0.12165 0.0
H362 H 0.05538 0.51227 0.96062 0.0
H363 H 0.99462 0.48996 0.93621 0.0
H364 H 0.07365 0.51804 0.93438 0.0
H365 H 0.05327 0.51062 0.90895 0.0
Gd366 Gd 0.49845 0.51088 0.99374 0.0
Gd367 Gd 0.51849 0.50253 0.03293 0.0
C368 C 0.58442 0.50726 0.03755 0.0
C369 C 0.57457 0.47077 0.043 0.0
C370 C 0.54677 0.48038 0.03966 0.0
C371 C 0.56236 0.50115 0.03694 0.0
C372 C 0.55267 0.46501 0.04311 0.0
C373 C 0.59042 0.49187 0.0402 0.0
C374 C 0.59977 0.52872 0.03593 0.0
C375 C 0.59294 0.54353 0.03438 0.0
N376 N 0.55596 0.5156 0.03454 0.0
C377 C 0.57086 0.53669 0.03393 0.0
H378 H 0.56588 0.54833 0.0326 0.0
C379 C 0.50997 0.45571 0.04429 0.0
N380 N 0.52581 0.47542 0.03974 0.0
C381 C 0.515 0.43989 0.04777 0.0
C382 C 0.53642 0.44448 0.04697 0.0
H383 H 0.49337 0.45203 0.04479 0.0
H384 H 0.60729 0.49621 0.04052 0.0
H385 H 0.45121 0.46501 0.99438 0.0
H386 H 0.61688 0.53405 0.03625 0.0
H387 H 0.60467 0.56022 0.03344 0.0
H388 H 0.57943 0.45916 0.04546 0.0
H389 H 0.52345 0.56139 0.98189 0.0
H390 H 0.40001 0.47895 0.99021 0.0
H391 H 0.41237 0.45296 0.99342 0.0
H392 H 0.4372 0.55381 0.9808 0.0
H393 H 0.50235 0.42416 0.05101 0.0
H394 H 0.54028 0.43222 0.04969 0.0
H395 H 0.40944 0.51672 0.98572 0.0
H396 H 0.51434 0.58916 0.97563 0.0
N397 N 0.46098 0.49768 0.99214 0.0
C398 C 0.41713 0.48437 0.9906 0.0
C399 C 0.42405 0.46965 0.99237 0.0
C400 C 0.43241 0.50583 0.98888 0.0
C401 C 0.4545 0.51204 0.98957 0.0
C402 C 0.44615 0.47658 0.9929 0.0
N403 N 0.49102 0.53789 0.98684 0.0
C404 C 0.47004 0.53283 0.98684 0.0
C405 C 0.50172 0.5734 0.97882 0.0
C406 C 0.48027 0.5687 0.97951 0.0
C407 C 0.50682 0.55764 0.98232 0.0
C408 C 0.46406 0.54812 0.98332 0.0
H409 H 0.47635 0.58092 0.97676 0.0
O410 O 0.51416 0.51991 0.9703 0.0
O411 O 0.52529 0.51046 0.00692 0.0
O412 O 0.528 0.53701 0.02886 0.0
O413 O 0.50271 0.53682 0.01081 0.0
O414 O 0.53405 0.53421 0.99023 0.0
O415 O 0.48658 0.48858 0.97363 0.0
O416 O 0.50252 0.49347 0.05627 0.0
O417 O 0.49169 0.50307 0.01978 0.0
O418 O 0.48918 0.47642 0.99775 0.0
O419 O 0.51462 0.47687 0.01575 0.0
O420 O 0.48289 0.47915 0.03632 0.0
O421 O 0.53049 0.5246 0.0532 0.0
C422 C 0.54133 0.52588 1.00038 0.0
C423 C 0.44213 0.54225 0.98331 0.0
C424 C 0.42633 0.52114 0.98611 0.0
C425 C 0.50057 0.50201 0.96341 0.0
C426 C 0.49221 0.50346 0.94746 0.0
C427 C 0.47644 0.50944 0.94613 0.0
C428 C 0.50043 0.49923 0.93337 0.0
C429 C 0.49309 0.50111 0.91793 0.0
C430 C 0.46902 0.51125 0.93091 0.0
C431 C 0.47727 0.50717 0.91689 0.0
C432 C 0.51757 0.54595 0.02228 0.0
C433 C 0.47563 0.48762 0.02628 0.0
C434 C 0.51629 0.51118 0.0633 0.0
C435 C 0.5244 0.50924 0.07923 0.0
C436 C 0.5401 0.50317 0.08042 0.0
C437 C 0.51604 0.51313 0.09341 0.0
C438 C 0.5233 0.51095 0.10881 0.0
C439 C 0.54733 0.50091 0.09559 0.0
C440 C 0.539 0.50471 0.10968 0.0
C441 C 0.49999 0.46775 0.00413 0.0
H442 H 0.46992 0.51272 0.95683 0.0
H443 H 0.5128 0.49484 0.93443 0.0
H444 H 0.45682 0.51584 0.92995 0.0
H445 H 0.47109 0.50852 0.90524 0.0
H446 H 0.54671 0.50012 0.06967 0.0
H447 H 0.50408 0.51805 0.09239 0.0
H448 H 0.55937 0.4961 0.09644 0.0
H449 H 0.54468 0.50246 0.12127 0.0
Gd450 Gd 0.17906 0.3511 0.36792 0.0
Gd451 Gd 0.1619 0.32446 0.32776 0.0
C452 C 0.09645 0.26534 0.31856 0.0
C453 C 0.10654 0.23863 0.31328 0.0
C454 C 0.13409 0.275 0.31912 0.0
C455 C 0.11837 0.28054 0.32099 0.0
C456 C 0.12842 0.25407 0.31495 0.0
C457 C 0.09058 0.24427 0.31504 0.0
C458 C 0.08115 0.27192 0.31924 0.0
C459 C 0.08788 0.2932 0.32214 0.0
N460 N 0.12463 0.30105 0.32429 0.0
C461 C 0.10982 0.30766 0.32446 0.0
H462 H 0.11472 0.32403 0.32664 0.0
C463 C 0.17121 0.28626 0.31689 0.0
N464 N 0.15503 0.29041 0.32048 0.0
C465 C 0.16642 0.2657 0.31292 0.0
C466 C 0.14492 0.24947 0.31211 0.0
H467 H 0.18786 0.29874 0.31754 0.0
H468 H 0.07379 0.23233 0.31331 0.0
H469 H 0.22683 0.35285 0.36908 0.0
H470 H 0.0642 0.26082 0.31715 0.0
H471 H 0.0762 0.29849 0.32251 0.0
H472 H 0.10184 0.22242 0.31021 0.0
H473 H 0.15194 0.37577 0.37826 0.0
H474 H 0.27641 0.41705 0.37692 0.0
H475 H 0.26532 0.3794 0.37234 0.0
H476 H 0.23698 0.45361 0.38441 0.0
H477 H 0.1793 0.26239 0.31046 0.0
H478 H 0.14124 0.23358 0.30892 0.0
H479 H 0.26573 0.44473 0.38102 0.0
H480 H 0.15962 0.41191 0.38499 0.0
N481 N 0.21614 0.37525 0.37124 0.0
C482 C 0.25948 0.40546 0.37537 0.0
C483 C 0.25327 0.38422 0.37287 0.0
C484 C 0.24371 0.41141 0.37632 0.0
C485 C 0.22188 0.39569 0.37433 0.0
C486 C 0.23139 0.3692 0.37103 0.0
N487 N 0.18497 0.38486 0.37514 0.0
C488 C 0.20577 0.40068 0.3763 0.0
C489 C 0.17275 0.40899 0.38252 0.0
C490 C 0.19408 0.42562 0.38309 0.0
C491 C 0.16847 0.38853 0.37874 0.0
C492 C 0.21093 0.42153 0.38021 0.0
H493 H 0.19736 0.44143 0.3861 0.0
O494 O 0.16129 0.34272 0.39055 0.0
O495 O 0.15333 0.32487 0.35348 0.0
O496 O 0.15213 0.34948 0.33179 0.0
O497 O 0.17643 0.37355 0.35067 0.0
O498 O 0.1433 0.33939 0.3699 0.0
O499 O 0.1902 0.34047 0.38851 0.0
O500 O 0.17917 0.33149 0.30492 0.0
O501 O 0.18769 0.35049 0.34221 0.0
O502 O 0.1891 0.32631 0.36395 0.0
O503 O 0.16486 0.30217 0.34507 0.0
O504 O 0.19762 0.33596 0.32575 0.0
O505 O 0.15211 0.33672 0.30744 0.0
C506 C 0.13683 0.32435 0.35936 0.0
C507 C 0.23267 0.43745 0.38154 0.0
C508 C 0.24904 0.43239 0.3796 0.0
C509 C 0.17488 0.3387 0.39805 0.0
C510 C 0.18135 0.34768 0.41449 0.0
C511 C 0.19356 0.36964 0.41674 0.0
C512 C 0.17481 0.33425 0.4281 0.0
C513 C 0.18029 0.34274 0.44397 0.0
C514 C 0.199 0.37818 0.43231 0.0
C515 C 0.19236 0.36494 0.4458 0.0
C516 C 0.16227 0.36848 0.33874 0.0
C517 C 0.20416 0.35097 0.33631 0.0
C518 C 0.16654 0.337 0.29765 0.0
C519 C 0.15896 0.3281 0.28131 0.0
C520 C 0.14424 0.30646 0.27933 0.0
C521 C 0.16654 0.34125 0.26757 0.0
C522 C 0.15936 0.33279 0.25187 0.0
C523 C 0.13718 0.29796 0.26389 0.0
C524 C 0.14467 0.31094 0.25028 0.0
C525 C 0.17896 0.30727 0.35708 0.0
H526 H 0.19874 0.38019 0.40647 0.0
H527 H 0.1656 0.31727 0.42627 0.0
H528 H 0.20825 0.39519 0.43394 0.0
H529 H 0.19643 0.3722 0.4577 0.0
H530 H 0.13824 0.29614 0.28969 0.0
H531 H 0.17777 0.35802 0.26914 0.0
H532 H 0.12591 0.2812 0.26246 0.0
H533 H 0.13912 0.30375 0.23845 0.0
Gd534 Gd 0.65766 0.83064 0.36878 0.0
Gd535 Gd 0.68662 0.83819 0.33021 0.0
C536 C 0.74746 0.83286 0.32666 0.0
C537 C 0.77493 0.8691 0.32074 0.0
C538 C 0.73746 0.85991 0.32394 0.0
C539 C 0.73174 0.83914 0.32699 0.0
C540 C 0.75903 0.87505 0.32041 0.0
C541 C 0.76915 0.84804 0.32388 0.0
C542 C 0.74083 0.81143 0.32878 0.0
C543 C 0.71892 0.7968 0.3306 0.0
N544 N 0.71061 0.82488 0.32952 0.0
C545 C 0.70392 0.80379 0.33071 0.0
H546 H 0.68709 0.79228 0.33221 0.0
C547 C 0.72608 0.88469 0.31867 0.0
N548 N 0.72168 0.86504 0.32357 0.0
C549 C 0.74725 0.90031 0.31516 0.0
C550 C 0.76386 0.89555 0.31623 0.0
H551 H 0.7133 0.88847 0.31792 0.0
H552 H 0.78149 0.84356 0.32375 0.0
H553 H 0.6569 0.87624 0.3669 0.0
H554 H 0.75241 0.80597 0.32869 0.0
H555 H 0.71357 0.78014 0.33198 0.0
H556 H 0.79163 0.88055 0.31822 0.0
H557 H 0.63141 0.77985 0.37991 0.0
H558 H 0.59297 0.86327 0.37709 0.0
H559 H 0.63106 0.88877 0.37074 0.0
H560 H 0.55374 0.78835 0.38535 0.0
H561 H 0.75075 0.91601 0.31166 0.0
H562 H 0.78024 0.90766 0.31345 0.0
H563 H 0.56387 0.82562 0.3813 0.0
H564 H 0.59442 0.75231 0.3872 0.0
N565 N 0.63356 0.84371 0.37018 0.0
C566 C 0.60412 0.85757 0.3749 0.0
C567 C 0.62565 0.87203 0.37148 0.0
C568 C 0.59733 0.836 0.37591 0.0
C569 C 0.6127 0.8295 0.37369 0.0
C570 C 0.64027 0.86481 0.36929 0.0
N571 N 0.62285 0.80351 0.37569 0.0
C572 C 0.60713 0.80869 0.37639 0.0
C573 C 0.59775 0.76808 0.38414 0.0
C574 C 0.58122 0.77298 0.38438 0.0
C575 C 0.61868 0.78372 0.38003 0.0
C576 C 0.58587 0.7936 0.3808 0.0
H577 H 0.56507 0.76092 0.38776 0.0
O578 O 0.66237 0.82194 0.39299 0.0
O579 O 0.68525 0.83095 0.35638 0.0
O580 O 0.66084 0.80377 0.33438 0.0
O581 O 0.63552 0.80458 0.35164 0.0
O582 O 0.6697 0.80765 0.37332 0.0
O583 O 0.66987 0.8541 0.38804 0.0
O584 O 0.68091 0.847 0.30636 0.0
O585 O 0.65889 0.83779 0.34261 0.0
O586 O 0.68333 0.86515 0.36448 0.0
O587 O 0.70865 0.8644 0.34718 0.0
O588 O 0.67468 0.86135 0.32589 0.0
O589 O 0.67643 0.81567 0.31029 0.0
C590 C 0.68566 0.81582 0.36341 0.0
C591 C 0.57019 0.79973 0.38206 0.0
C592 C 0.57595 0.82094 0.37974 0.0
C593 C 0.66844 0.84065 0.39903 0.0
C594 C 0.65861 0.8413 0.41448 0.0
C595 C 0.63756 0.83796 0.41499 0.0
C596 C 0.6706 0.84565 0.42889 0.0
C597 C 0.66168 0.8468 0.44381 0.0
C598 C 0.62859 0.83906 0.42968 0.0
C599 C 0.64054 0.8435 0.444 0.0
C600 C 0.64113 0.79509 0.34055 0.0
C601 C 0.65862 0.85309 0.33574 0.0
C602 C 0.67678 0.82912 0.29972 0.0
C603 C 0.6878 0.83071 0.28435 0.0
C604 C 0.70923 0.8351 0.28421 0.0
C605 C 0.67682 0.82805 0.26962 0.0
C606 C 0.68719 0.82975 0.25475 0.0
C607 C 0.71967 0.83694 0.26956 0.0
C608 C 0.70879 0.83433 0.25492 0.0
C609 C 0.70305 0.87383 0.35832 0.0
H610 H 0.62811 0.83464 0.40408 0.0
H611 H 0.68677 0.84795 0.42845 0.0
H612 H 0.61236 0.83658 0.42996 0.0
H613 H 0.63329 0.84462 0.45518 0.0
H614 H 0.71791 0.83711 0.29538 0.0
H615 H 0.66016 0.82438 0.26979 0.0
H616 H 0.73626 0.84045 0.26955 0.0
H617 H 0.71738 0.83612 0.24372 0.0
Gd618 Gd 0.1662 0.84384 0.3279 0.0
Gd619 Gd 0.18617 0.83522 0.36703 0.0
C620 C 0.25177 0.83924 0.37192 0.0
C621 C 0.24151 0.80273 0.37768 0.0
C622 C 0.21401 0.81268 0.37406 0.0
C623 C 0.22976 0.83336 0.37124 0.0
C624 C 0.21967 0.79719 0.37767 0.0
C625 C 0.25754 0.82373 0.37479 0.0
C626 C 0.2673 0.86061 0.3701 0.0
C627 C 0.26071 0.87556 0.36824 0.0
N628 N 0.22359 0.84793 0.36859 0.0
C629 C 0.23868 0.86895 0.36774 0.0
H630 H 0.23393 0.88073 0.36621 0.0
C631 C 0.17711 0.78831 0.37858 0.0
N632 N 0.19312 0.80794 0.37402 0.0
C633 C 0.18188 0.77235 0.38218 0.0
C634 C 0.20324 0.77674 0.38153 0.0
H635 H 0.16056 0.78481 0.37896 0.0
H636 H 0.27435 0.8279 0.37519 0.0
H637 H 0.11805 0.79895 0.32895 0.0
H638 H 0.28436 0.86577 0.37047 0.0
H639 H 0.27258 0.89218 0.36712 0.0
H640 H 0.24619 0.79101 0.38027 0.0
H641 H 0.19256 0.89401 0.3153 0.0
H642 H 0.06842 0.81507 0.32465 0.0
H643 H 0.07952 0.78815 0.32811 0.0
H644 H 0.10778 0.88965 0.31414 0.0
H645 H 0.1691 0.75669 0.38541 0.0
H646 H 0.20691 0.76437 0.38436 0.0
H647 H 0.07915 0.85308 0.31961 0.0
H648 H 0.18468 0.92245 0.30844 0.0
N649 N 0.12893 0.83183 0.32645 0.0
C650 C 0.08542 0.81993 0.32499 0.0
C651 C 0.09162 0.80469 0.32691 0.0
C652 C 0.10124 0.84117 0.32304 0.0
C653 C 0.12313 0.84666 0.32371 0.0
C654 C 0.11355 0.81091 0.32737 0.0
N655 N 0.1599 0.87147 0.32062 0.0
C656 C 0.13916 0.86716 0.32067 0.0
C657 C 0.17173 0.90699 0.31193 0.0
C658 C 0.15054 0.90307 0.31267 0.0
C659 C 0.17612 0.89084 0.31577 0.0
C660 C 0.13388 0.88287 0.31685 0.0
H661 H 0.14716 0.91559 0.30965 0.0
O662 O 0.18161 0.85197 0.3043 0.0
O663 O 0.19278 0.84266 0.34093 0.0
O664 O 0.1964 0.86981 0.36275 0.0
O665 O 0.17145 0.87035 0.34476 0.0
O666 O 0.20188 0.86641 0.32416 0.0
O667 O 0.1536 0.82106 0.30812 0.0
O668 O 0.17093 0.82623 0.39066 0.0
O669 O 0.15962 0.83636 0.354 0.0
O670 O 0.15569 0.80917 0.33231 0.0
O671 O 0.18109 0.80895 0.34998 0.0
O672 O 0.15044 0.8126 0.37075 0.0
O673 O 0.19785 0.85786 0.38689 0.0
C674 C 0.20893 0.85781 0.33425 0.0
C675 C 0.11216 0.87776 0.31688 0.0
C676 C 0.09586 0.85694 0.32 0.0
C677 C 0.16761 0.83402 0.2977 0.0
C678 C 0.15914 0.83526 0.28173 0.0
C679 C 0.14321 0.841 0.28036 0.0
C680 C 0.16719 0.83073 0.26768 0.0
C681 C 0.15935 0.83185 0.25223 0.0
C682 C 0.13539 0.84221 0.26513 0.0
C683 C 0.14336 0.83769 0.25116 0.0
C684 C 0.18633 0.87916 0.35626 0.0
C685 C 0.14343 0.82127 0.36069 0.0
C686 C 0.18427 0.84441 0.3973 0.0
C687 C 0.1931 0.84368 0.41324 0.0
C688 C 0.21056 0.8401 0.41452 0.0
C689 C 0.18405 0.84681 0.42736 0.0
C690 C 0.19257 0.84665 0.44275 0.0
C691 C 0.219 0.83979 0.42971 0.0
C692 C 0.21015 0.84309 0.44373 0.0
C693 C 0.16593 0.79994 0.33871 0.0
H694 H 0.13684 0.84455 0.29102 0.0
H695 H 0.17936 0.82609 0.26882 0.0
H696 H 0.12314 0.84673 0.26414 0.0
H697 H 0.1372 0.83906 0.23951 0.0
H698 H 0.21769 0.83763 0.40381 0.0
H699 H 0.17066 0.84975 0.42633 0.0
H700 H 0.23248 0.83701 0.43063 0.0
H701 H 0.21692 0.84263 0.45537 0.0
Gd702 Gd 0.84619 0.68259 0.70191 0.0
Gd703 Gd 0.82842 0.65651 0.66162 0.0
C704 C 0.76242 0.59804 0.65278 0.0
C705 C 0.77192 0.571 0.64705 0.0
C706 C 0.79992 0.60718 0.65291 0.0
C707 C 0.78445 0.61299 0.65507 0.0
C708 C 0.79389 0.58622 0.64855 0.0
C709 C 0.7562 0.57691 0.64913 0.0
C710 C 0.74737 0.60491 0.6537 0.0
C711 C 0.75442 0.62623 0.65674 0.0
N712 N 0.79103 0.63355 0.6585 0.0
C713 C 0.77644 0.64044 0.65895 0.0
H714 H 0.78159 0.65685 0.66123 0.0
C715 C 0.83689 0.61803 0.65003 0.0
N716 N 0.82098 0.62237 0.6541 0.0
C717 C 0.83174 0.59742 0.64584 0.0
C718 C 0.81014 0.58137 0.64529 0.0
H719 H 0.85361 0.63039 0.65046 0.0
H720 H 0.73933 0.56515 0.64751 0.0
H721 H 0.89369 0.68352 0.70212 0.0
H722 H 0.73034 0.59402 0.65169 0.0
H723 H 0.74293 0.63175 0.65731 0.0
H724 H 0.76694 0.55476 0.64384 0.0
H725 H 0.82025 0.70765 0.71404 0.0
H726 H 0.94425 0.74758 0.70852 0.0
H727 H 0.93238 0.70971 0.70423 0.0
H728 H 0.90603 0.78493 0.71844 0.0
H729 H 0.84441 0.59394 0.64302 0.0
H730 H 0.80618 0.56545 0.64192 0.0
H731 H 0.93426 0.77562 0.71365 0.0
H732 H 0.8287 0.7439 0.72137 0.0
N733 N 0.88351 0.70627 0.70477 0.0
C734 C 0.92719 0.73612 0.70763 0.0
C735 C 0.92055 0.71476 0.70525 0.0
C736 C 0.91169 0.74234 0.70932 0.0
C737 C 0.88969 0.7268 0.70794 0.0
C738 C 0.89852 0.69992 0.70408 0.0
N739 N 0.85299 0.71641 0.70988 0.0
C740 C 0.8739 0.73204 0.71059 0.0
C741 C 0.84157 0.7408 0.71831 0.0
C742 C 0.86299 0.75727 0.71839 0.0
C743 C 0.83685 0.72028 0.71421 0.0
C744 C 0.87951 0.75296 0.71473 0.0
H745 H 0.86662 0.77314 0.7216 0.0
O746 O 0.82934 0.67493 0.72496 0.0
O747 O 0.82017 0.65666 0.68746 0.0
O748 O 0.81917 0.68185 0.6659 0.0
O749 O 0.84303 0.70532 0.6853 0.0
O750 O 0.81048 0.67105 0.70422 0.0
O751 O 0.85674 0.67037 0.72178 0.0
O752 O 0.84619 0.66447 0.63901 0.0
O753 O 0.85437 0.68254 0.676 0.0
O754 O 0.85601 0.65776 0.69735 0.0
O755 O 0.83156 0.63389 0.67844 0.0
O756 O 0.86407 0.66788 0.65941 0.0
O757 O 0.81783 0.66768 0.64101 0.0
C758 C 0.80378 0.65615 0.69355 0.0
C759 C 0.90138 0.76871 0.71544 0.0
C760 C 0.91745 0.76341 0.71272 0.0
C761 C 0.84234 0.6696 0.73184 0.0
C762 C 0.85004 0.67813 0.74824 0.0
C763 C 0.865 0.69966 0.75048 0.0
C764 C 0.8424 0.66465 0.76179 0.0
C765 C 0.84975 0.67264 0.77756 0.0
C766 C 0.87225 0.70771 0.766 0.0
C767 C 0.86472 0.69438 0.77944 0.0
C768 C 0.82911 0.70061 0.67323 0.0
C769 C 0.87074 0.68299 0.66991 0.0
C770 C 0.83295 0.66896 0.63148 0.0
C771 C 0.8263 0.65996 0.61505 0.0
C772 C 0.81378 0.63801 0.61286 0.0
C773 C 0.83307 0.67332 0.60141 0.0
C774 C 0.82752 0.66477 0.58556 0.0
C775 C 0.80831 0.62941 0.59732 0.0
C776 C 0.81519 0.64258 0.58379 0.0
C777 C 0.84584 0.63884 0.69029 0.0
H778 H 0.87106 0.71024 0.74024 0.0
H779 H 0.83099 0.64796 0.76 0.0
H780 H 0.88373 0.72438 0.76765 0.0
H781 H 0.87043 0.7012 0.79135 0.0
H782 H 0.80841 0.62751 0.62314 0.0
H783 H 0.8425 0.6903 0.6032 0.0
H784 H 0.79883 0.61241 0.59573 0.0
H785 H 0.81106 0.63526 0.57191 0.0
Gd786 Gd 0.32454 0.16368 0.70012 0.0
Gd787 Gd 0.35473 0.17106 0.66205 0.0
C788 C 0.41498 0.16456 0.65968 0.0
C789 C 0.44303 0.20066 0.65401 0.0
C790 C 0.40565 0.19203 0.65653 0.0
C791 C 0.39952 0.17119 0.65969 0.0
C792 C 0.42739 0.20693 0.65328 0.0
C793 C 0.43683 0.17951 0.65722 0.0
C794 C 0.40793 0.14304 0.66171 0.0
C795 C 0.3859 0.12866 0.66314 0.0
N796 N 0.37826 0.15718 0.6619 0.0
C797 C 0.37119 0.136 0.66298 0.0
H798 H 0.35425 0.12467 0.66418 0.0
C799 C 0.39495 0.21721 0.65076 0.0
N800 N 0.39012 0.19748 0.6558 0.0
C801 C 0.4163 0.23259 0.64748 0.0
C802 C 0.43265 0.22751 0.64895 0.0
H803 H 0.38236 0.22123 0.64973 0.0
H804 H 0.44897 0.17476 0.65738 0.0
H805 H 0.32421 0.20959 0.69792 0.0
H806 H 0.41929 0.1373 0.66182 0.0
H807 H 0.38023 0.11193 0.66442 0.0
H808 H 0.45986 0.21192 0.65171 0.0
H809 H 0.29753 0.11343 0.71253 0.0
H810 H 0.25883 0.196 0.70031 0.0
H811 H 0.29777 0.22181 0.69769 0.0
H812 H 0.2192 0.12131 0.71031 0.0
H813 H 0.42013 0.24834 0.64386 0.0
H814 H 0.44917 0.23943 0.64636 0.0
H815 H 0.22954 0.15834 0.70468 0.0
H816 H 0.2599 0.0859 0.71829 0.0
N817 N 0.30055 0.17699 0.70025 0.0
C818 C 0.27038 0.1905 0.70042 0.0
C819 C 0.29235 0.20512 0.69898 0.0
C820 C 0.26365 0.16904 0.70244 0.0
C821 C 0.27936 0.16273 0.70245 0.0
C822 C 0.30732 0.19809 0.69913 0.0
N823 N 0.2893 0.13683 0.70635 0.0
C824 C 0.27353 0.14195 0.70557 0.0
C825 C 0.2635 0.10158 0.71465 0.0
C826 C 0.24691 0.10632 0.71312 0.0
C827 C 0.28477 0.1172 0.71143 0.0
C828 C 0.25186 0.12681 0.70879 0.0
H829 H 0.23045 0.09422 0.71568 0.0
O830 O 0.33019 0.15524 0.72408 0.0
O831 O 0.3524 0.16388 0.68825 0.0
O832 O 0.32847 0.13666 0.66595 0.0
O833 O 0.30289 0.13739 0.68302 0.0
O834 O 0.33621 0.14046 0.70506 0.0
O835 O 0.33396 0.18627 0.71996 0.0
O836 O 0.35015 0.18024 0.638 0.0
O837 O 0.32696 0.17096 0.67394 0.0
O838 O 0.35071 0.19809 0.69618 0.0
O839 O 0.37636 0.19732 0.67922 0.0
O840 O 0.34309 0.19436 0.65714 0.0
O841 O 0.34419 0.14841 0.64224 0.0
C842 C 0.35244 0.14862 0.69537 0.0
C843 C 0.23598 0.13276 0.70804 0.0
C844 C 0.24187 0.15384 0.70485 0.0
C845 C 0.33404 0.17311 0.73058 0.0
C846 C 0.3233 0.17157 0.74606 0.0
C847 C 0.30105 0.16395 0.74673 0.0
C848 C 0.33548 0.17726 0.76043 0.0
C849 C 0.32552 0.17505 0.77557 0.0
C850 C 0.29103 0.16182 0.76164 0.0
C851 C 0.3031 0.1672 0.77597 0.0
C852 C 0.30867 0.12797 0.672 0.0
C853 C 0.32686 0.18618 0.66683 0.0
C854 C 0.34532 0.16206 0.63154 0.0
C855 C 0.35613 0.1629 0.61623 0.0
C856 C 0.37685 0.16533 0.61611 0.0
C857 C 0.34549 0.16119 0.60152 0.0
C858 C 0.35536 0.16173 0.58666 0.0
C859 C 0.38679 0.16597 0.60144 0.0
C860 C 0.37615 0.16414 0.58679 0.0
C861 C 0.37059 0.2067 0.6903 0.0
H862 H 0.29144 0.15954 0.73579 0.0
H863 H 0.35274 0.18348 0.75973 0.0
H864 H 0.27381 0.15576 0.7621 0.0
H865 H 0.29475 0.16486 0.78736 0.0
H866 H 0.38528 0.16666 0.62732 0.0
H867 H 0.32938 0.15909 0.60167 0.0
H868 H 0.4028 0.16788 0.60142 0.0
H869 H 0.38427 0.16483 0.57557 0.0
Gd870 Gd 0.83276 0.1771 0.6606 0.0
Gd871 Gd 0.852 0.16742 0.69963 0.0
C872 C 0.9172 0.1707 0.70472 0.0
C873 C 0.90654 0.13394 0.70986 0.0
C874 C 0.87932 0.14428 0.70632 0.0
C875 C 0.89526 0.16501 0.70389 0.0
C876 C 0.88475 0.12857 0.7097 0.0
C877 C 0.92274 0.15497 0.70735 0.0
C878 C 0.9329 0.19208 0.70328 0.0
C879 C 0.92652 0.20722 0.70164 0.0
N880 N 0.88931 0.17979 0.70147 0.0
C881 C 0.90454 0.20079 0.70098 0.0
H882 H 0.89991 0.21269 0.69962 0.0
C883 C 0.84228 0.12001 0.71041 0.0
N884 N 0.85848 0.1397 0.70616 0.0
C885 C 0.84683 0.10384 0.71377 0.0
C886 C 0.86814 0.10807 0.71321 0.0
H887 H 0.82577 0.11664 0.71074 0.0
H888 H 0.93951 0.159 0.70786 0.0
H889 H 0.78452 0.13229 0.6611 0.0
H890 H 0.94993 0.19709 0.70377 0.0
H891 H 0.93852 0.22384 0.70081 0.0
H892 H 0.91104 0.12205 0.71228 0.0
H893 H 0.85937 0.22745 0.64842 0.0
H894 H 0.73508 0.14866 0.65684 0.0
H895 H 0.74603 0.12161 0.66007 0.0
H896 H 0.77475 0.2234 0.64702 0.0
H897 H 0.83391 0.08814 0.71675 0.0
H898 H 0.87163 0.09553 0.71586 0.0
H899 H 0.74598 0.18678 0.65214 0.0
H900 H 0.85169 0.25604 0.64171 0.0
N901 N 0.79552 0.16523 0.65895 0.0
C902 C 0.75206 0.15347 0.65727 0.0
C903 C 0.75818 0.13815 0.65905 0.0
C904 C 0.76795 0.17473 0.65555 0.0
C905 C 0.78982 0.18014 0.65633 0.0
C906 C 0.78009 0.14431 0.65962 0.0
N907 N 0.82664 0.20491 0.65351 0.0
C908 C 0.80592 0.20067 0.65349 0.0
C909 C 0.83867 0.24056 0.64507 0.0
C910 C 0.81749 0.23671 0.64574 0.0
C911 C 0.84296 0.22432 0.64884 0.0
C912 C 0.80075 0.21648 0.64976 0.0
H913 H 0.8142 0.2493 0.64279 0.0
O914 O 0.84837 0.1856 0.6371 0.0
O915 O 0.85917 0.17569 0.67368 0.0
O916 O 0.86226 0.20214 0.69598 0.0
O917 O 0.83781 0.20327 0.67777 0.0
O918 O 0.86848 0.1998 0.65722 0.0
O919 O 0.8204 0.15458 0.64066 0.0
O920 O 0.83554 0.15824 0.72276 0.0
O921 O 0.82575 0.1691 0.68659 0.0
O922 O 0.82212 0.14232 0.66459 0.0
O923 O 0.84734 0.14168 0.68221 0.0
O924 O 0.8162 0.14475 0.70286 0.0
O925 O 0.86437 0.1889 0.72024 0.0
C926 C 0.87542 0.19104 0.66726 0.0
C927 C 0.77905 0.21143 0.6497 0.0
C928 C 0.76267 0.19059 0.65262 0.0
C929 C 0.83446 0.16772 0.63035 0.0
C930 C 0.82607 0.16913 0.61441 0.0
C931 C 0.81041 0.17523 0.61304 0.0
C932 C 0.8339 0.16434 0.60037 0.0
C933 C 0.82614 0.1656 0.58493 0.0
C934 C 0.80266 0.17656 0.59782 0.0
C935 C 0.81043 0.17181 0.58385 0.0
C936 C 0.85236 0.21169 0.68953 0.0
C937 C 0.80942 0.15382 0.69298 0.0
C938 C 0.8496 0.17558 0.73007 0.0
C939 C 0.85688 0.17292 0.74611 0.0
C940 C 0.87178 0.16587 0.74764 0.0
C941 C 0.84828 0.17692 0.76009 0.0
C942 C 0.85438 0.17375 0.77562 0.0
C943 C 0.87796 0.16275 0.76298 0.0
C944 C 0.86931 0.16659 0.77688 0.0
C945 C 0.8323 0.13293 0.67084 0.0
H946 H 0.8042 0.17896 0.62371 0.0
H947 H 0.84584 0.1594 0.60152 0.0
H948 H 0.79062 0.18137 0.59683 0.0
H949 H 0.80435 0.17329 0.57219 0.0
H950 H 0.87856 0.16272 0.73702 0.0
H951 H 0.83657 0.18214 0.75885 0.0
H952 H 0.88949 0.15732 0.7641 0.0
H953 H 0.87455 0.16425 0.78863 0.0
H954 H 0.30533 0.81355 0.06823 0.0
H955 H 0.33868 0.84223 0.05691 0.0
H956 H 0.31867 0.88718 0.06973 0.0
H957 H 0.28492 0.85844 0.08075 0.0
H958 H 0.33435 0.8912 0.03745 0.0
H959 H 0.39069 0.88803 0.0823 0.0
H960 H 0.37252 0.86317 0.07277 0.0
H961 H 0.36202 0.87566 0.08577 0.0
C962 C 0.30798 0.82953 0.06862 0.0
C963 C 0.29243 0.83369 0.07541 0.0
C964 C 0.32715 0.84593 0.06227 0.0
C965 C 0.33128 0.86687 0.06263 0.0
C966 C 0.31585 0.87114 0.0694 0.0
H967 H 0.43363 0.98963 0.03277 0.0
H968 H 0.39909 0.95877 0.03994 0.0
C969 C 0.29666 0.85473 0.07581 0.0
C970 C 0.3515 0.88425 0.05565 0.0
H971 H 0.40635 0.91056 0.05983 0.0
C972 C 0.35011 0.89547 0.04234 0.0
C973 C 0.37204 0.88969 0.06197 0.0
C974 C 0.37451 0.87866 0.07657 0.0
C975 C 0.36871 0.91191 0.03513 0.0
C976 C 0.38927 0.91756 0.04159 0.0
C977 C 0.39063 0.90616 0.05479 0.0
C978 C 0.4095 0.93596 0.03552 0.0
C979 C 0.36614 0.92287 0.02053 0.0
C980 C 0.42701 0.93353 0.03077 0.0
C981 C 0.44686 0.95123 0.02683 0.0
C982 C 0.44948 0.97164 0.02744 0.0
C983 C 0.43188 0.97401 0.0319 0.0
C984 C 0.4121 0.95636 0.0359 0.0
H985 H 0.35089 0.9124 0.0139 0.0
H986 H 0.36552 0.93709 0.02458 0.0
H987 H 0.37984 0.92802 0.01205 0.0
H988 H 0.42547 0.91797 0.03052 0.0
H989 H 0.46031 0.94897 0.02389 0.0
H990 H 0.15573 0.4295 0.07944 0.0
H991 H 0.12618 0.43435 0.06962 0.0
H992 H 0.1718 0.49891 0.05698 0.0
H993 H 0.20144 0.49414 0.06669 0.0
H994 H 0.11293 0.46127 0.07978 0.0
H995 H 0.13747 0.47812 0.01544 0.0
H996 H 0.14945 0.46774 0.02926 0.0
H997 H 0.15803 0.49552 0.0294 0.0
C998 C 0.1595 0.44476 0.07461 0.0
C999 C 0.18103 0.46139 0.07381 0.0
C1000 C 0.14257 0.44749 0.06892 0.0
C1001 C 0.14672 0.46688 0.06224 0.0
C1002 C 0.16817 0.4836 0.06162 0.0
H1003 H 0.06212 0.51419 0.02939 0.0
H1004 H 0.09327 0.51043 0.03687 0.0
C1005 C 0.18512 0.48086 0.06724 0.0
C1006 C 0.12851 0.46976 0.05655 0.0
H1007 H 0.10869 0.48339 0.02375 0.0
C1008 C 0.11198 0.46599 0.0675 0.0
C1009 C 0.12724 0.47603 0.04052 0.0
C1010 C 0.14388 0.4794 0.02792 0.0
C1011 C 0.09442 0.46849 0.06296 0.0
C1012 C 0.09311 0.47467 0.04695 0.0
C1013 C 0.1097 0.47864 0.03601 0.0
C1014 C 0.07445 0.47675 0.04136 0.0
C1015 C 0.07755 0.46483 0.07545 0.0
C1016 C 0.05358 0.45902 0.04104 0.0
C1017 C 0.03583 0.46112 0.03664 0.0
C1018 C 0.03861 0.48091 0.03219 0.0
C1019 C 0.05953 0.49864 0.03234 0.0
C1020 C 0.07733 0.49653 0.03672 0.0
H1021 H 0.08352 0.46535 0.08797 0.0
H1022 H 0.0724 0.47685 0.07439 0.0
H1023 H 0.06318 0.44898 0.07345 0.0
H1024 H 0.05098 0.44357 0.04438 0.0
H1025 H 0.01985 0.44726 0.0368 0.0
H1026 H 0.53576 0.72536 0.061 0.0
H1027 H 0.52657 0.68987 0.05186 0.0
H1028 H 0.58333 0.69652 0.07574 0.0
H1029 H 0.59278 0.73214 0.08481 0.0
H1030 H 0.55202 0.67896 0.0324 0.0
H1031 H 0.53447 0.63931 0.09229 0.0
H1032 H 0.53577 0.66444 0.08925 0.0
H1033 H 0.56016 0.6632 0.09092 0.0
C1034 C 0.54632 0.7193 0.06428 0.0
C1035 C 0.565 0.73157 0.07364 0.0
C1036 C 0.54099 0.699 0.05911 0.0
C1037 C 0.55413 0.69051 0.06328 0.0
C1038 C 0.57275 0.70264 0.07266 0.0
H1039 H 0.55147 0.57298 0.04156 0.0
H1040 H 0.56036 0.60821 0.051 0.0
C1041 C 0.57811 0.72297 0.07785 0.0
C1042 C 0.54872 0.66925 0.05732 0.0
H1043 H 0.53554 0.61963 0.06977 0.0
C1044 C 0.54832 0.66594 0.04054 0.0
C1045 C 0.54397 0.65237 0.06801 0.0
C1046 C 0.5434 0.65486 0.08612 0.0
C1047 C 0.54364 0.64623 0.03414 0.0
C1048 C 0.53885 0.62932 0.04483 0.0
C1049 C 0.53924 0.63264 0.06161 0.0
C1050 C 0.53345 0.60806 0.03886 0.0
C1051 C 0.54436 0.64382 0.01603 0.0
C1052 C 0.51522 0.59621 0.02904 0.0
C1053 C 0.51009 0.57606 0.02358 0.0
C1054 C 0.52306 0.56736 0.02792 0.0
C1055 C 0.54117 0.5792 0.03793 0.0
C1056 C 0.54629 0.59935 0.04335 0.0
H1057 H 0.55364 0.6594 0.00995 0.0
H1058 H 0.55171 0.63399 0.01291 0.0
H1059 H 0.52767 0.63585 0.01111 0.0
H1060 H 0.50481 0.60245 0.02574 0.0
H1061 H 0.4958 0.56723 0.01616 0.0
H1062 H 0.83423 0.29579 0.92781 0.0
H1063 H 0.86366 0.32999 0.9372 0.0
H1064 H 0.85562 0.30571 0.98579 0.0
H1065 H 0.82693 0.27123 0.9764 0.0
H1066 H 0.86305 0.35728 0.95907 0.0
H1067 H 0.91986 0.33138 0.97983 0.0
H1068 H 0.89648 0.31479 0.96752 0.0
H1069 H 0.89381 0.31669 0.98904 0.0
C1070 C 0.83896 0.29759 0.94045 0.0
C1071 C 0.82822 0.28066 0.95132 0.0
C1072 C 0.85569 0.31722 0.94582 0.0
C1073 C 0.86211 0.32035 0.96215 0.0
C1074 C 0.85131 0.30357 0.97306 0.0
H1075 H 0.93243 0.44121 0.01199 0.0
H1076 H 0.90538 0.40675 1.00138 0.0
C1077 C 0.83466 0.28392 0.9677 0.0
C1078 C 0.87955 0.34137 0.9679 0.0
H1079 H 0.92773 0.36591 0.98819 0.0
C1080 C 0.87726 0.35918 0.96535 0.0
C1081 C 0.89827 0.34394 0.97588 0.0
C1082 C 0.9024 0.32572 0.97809 0.0
C1083 C 0.89289 0.37937 0.97088 0.0
C1084 C 0.91109 0.38176 0.97954 0.0
C1085 C 0.91365 0.36404 0.98174 0.0
C1086 C 0.9277 0.4025 0.98635 0.0
C1087 C 0.88987 0.39799 0.96715 0.0
C1088 C 0.94944 0.41131 0.98192 0.0
C1089 C 0.96509 0.43089 0.98824 0.0
C1090 C 0.95933 0.44203 0.9992 0.0
C1091 C 0.93755 0.43304 1.00373 0.0
C1092 C 0.92196 0.41341 0.99749 0.0
H1093 H 0.87899 0.39472 0.95658 0.0
H1094 H 0.88245 0.40125 0.97775 0.0
H1095 H 0.90555 0.41244 0.96462 0.0
H1096 H 0.95427 0.40313 0.97341 0.0
H1097 H 0.98168 0.43728 0.98447 0.0
H1098 H 0.73741 0.56309 0.97966 0.0
H1099 H 0.7028 0.55802 0.9892 0.0
H1100 H 0.67289 0.52725 0.94407 0.0
H1101 H 0.70768 0.5329 0.9343 0.0
H1102 H 0.65971 0.55342 0.95205 0.0
H1103 H 0.65206 0.50623 0.00653 0.0
H1104 H 0.67644 0.5314 0.00686 0.0
H1105 H 0.67247 0.51224 0.99142 0.0
C1106 C 0.72341 0.55511 0.97181 0.0
C1107 C 0.7253 0.54831 0.95624 0.0
C1108 C 0.70355 0.55207 0.97733 0.0
C1109 C 0.68496 0.54176 0.96756 0.0
C1110 C 0.68688 0.53514 0.95193 0.0
H1111 H 0.55221 0.49467 1.00001 0.0
H1112 H 0.58714 0.49845 0.9926 0.0
C1113 C 0.70681 0.53842 0.94632 0.0
C1114 C 0.66375 0.53866 0.9733 0.0
H1115 H 0.62764 0.51956 0.00456 0.0
C1116 C 0.65269 0.5459 0.9635 0.0
C1117 C 0.65426 0.52855 0.98813 0.0
C1118 C 0.66431 0.51896 0.99875 0.0
C1119 C 0.63275 0.54363 0.96816 0.0
C1120 C 0.6238 0.53448 0.98335 0.0
C1121 C 0.63461 0.52688 0.99304 0.0
C1122 C 0.60308 0.5324 0.9892 0.0
C1123 C 0.62126 0.55065 0.95651 0.0
C1124 C 0.6005 0.55025 0.9903 0.0
C1125 C 0.58053 0.54808 0.99444 0.0
C1126 C 0.56289 0.52811 0.99808 0.0
C1127 C 0.56563 0.51032 0.99759 0.0
C1128 C 0.58558 0.51247 0.99327 0.0
H1129 H 0.62668 0.55107 0.94385 0.0
H1130 H 0.60351 0.53997 0.95696 0.0
H1131 H 0.62494 0.56688 0.9598 0.0
H1132 H 0.61385 0.56588 0.98768 0.0
H1133 H 0.57881 0.56202 0.99467 0.0
H1134 H 0.46245 0.16798 0.92603 0.0
H1135 H 0.4663 0.13861 0.93652 0.0
H1136 H 0.46403 0.15836 0.98541 0.0
H1137 H 0.45973 0.18745 0.97504 0.0
H1138 H 0.50024 0.14294 0.95684 0.0
H1139 H 0.42018 0.0943 0.98557 0.0
H1140 H 0.42534 0.11449 0.97078 0.0
H1141 H 0.43401 0.12175 0.99141 0.0
C1142 C 0.46237 0.16582 0.93901 0.0
C1143 C 0.46078 0.18001 0.94971 0.0
C1144 C 0.4647 0.14914 0.94497 0.0
C1145 C 0.46524 0.14623 0.96173 0.0
C1146 C 0.46333 0.16015 0.97244 0.0
H1147 H 0.51731 0.07738 0.01258 0.0
H1148 H 0.50954 0.10429 1.00223 0.0
C1149 C 0.46108 0.17686 0.96649 0.0
C1150 C 0.46899 0.12934 0.96803 0.0
H1151 H 0.44696 0.08503 0.99156 0.0
C1152 C 0.48857 0.13022 0.96437 0.0
C1153 C 0.45366 0.11272 0.97776 0.0
C1154 C 0.43202 0.11056 0.98153 0.0
C1155 C 0.49338 0.11507 0.97042 0.0
C1156 C 0.47831 0.0988 0.98053 0.0
C1157 C 0.45857 0.09769 0.98395 0.0
C1158 C 0.48255 0.08246 0.98732 0.0
C1159 C 0.51443 0.11644 0.96578 0.0
C1160 C 0.4696 0.06123 0.98267 0.0
C1161 C 0.47389 0.04579 0.98863 0.0
C1162 C 0.49113 0.05129 0.99946 0.0
C1163 C 0.50384 0.07256 0.00433 0.0
C1164 C 0.49954 0.088 0.99834 0.0
H1165 H 0.52191 0.12686 0.95515 0.0
H1166 H 0.5259 0.12305 0.9761 0.0
H1167 H 0.512 0.10049 0.96294 0.0
H1168 H 0.45636 0.05665 0.97422 0.0
H1169 H 0.46372 0.02957 0.98464 0.0
H1170 H 0.73454 0.164 0.97601 0.0
H1171 H 0.70018 0.13243 0.98297 0.0
H1172 H 0.66603 0.1551 0.95358 0.0
H1173 H 0.70046 0.18662 0.94655 0.0
H1174 H 0.66669 0.13417 0.99923 0.0
H1175 H 0.6384 0.0923 0.9402 0.0
H1176 H 0.66615 0.11234 0.94387 0.0
H1177 H 0.6462 0.11987 0.93992 0.0
C1178 C 0.71971 0.16187 0.97069 0.0
C1179 C 0.71999 0.1774 0.96056 0.0
C1180 C 0.70012 0.14396 0.97475 0.0
C1181 C 0.68054 0.14131 0.96871 0.0
C1182 C 0.68094 0.1566 0.95815 0.0
H1183 H 0.54982 0.05991 0.00505 0.0
H1184 H 0.58492 0.09057 0.99823 0.0
C1185 C 0.70056 0.17455 0.95412 0.0
C1186 C 0.65972 0.12346 0.97447 0.0
H1187 H 0.61359 0.07923 0.96198 0.0
C1188 C 0.65506 0.12218 0.99108 0.0
C1189 C 0.64464 0.10775 0.96384 0.0
C1190 C 0.64909 0.10793 0.94597 0.0
C1191 C 0.63567 0.1057 0.99732 0.0
C1192 C 0.62053 0.09012 0.9867 0.0
C1193 C 0.6252 0.09131 0.97009 0.0
C1194 C 0.60005 0.07199 0.99261 0.0
C1195 C 0.63179 0.10452 0.0153 0.0
C1196 C 0.59704 0.05147 0.99197 0.0
C1197 C 0.57715 0.03402 0.99605 0.0
C1198 C 0.55986 0.03674 1.00085 0.0
C1199 C 0.563 0.05735 1.00183 0.0
C1200 C 0.583 0.07487 0.99784 0.0
H1201 H 0.64569 0.11724 0.02207 0.0
H1202 H 0.61727 0.10582 0.01786 0.0
H1203 H 0.62874 0.08894 0.0198 0.0
H1204 H 0.60995 0.04891 0.98792 0.0
H1205 H 0.57505 0.01828 0.99498 0.0
H1206 H 0.82186 0.51946 0.94776 0.0
H1207 H 0.85327 0.51519 0.95356 0.0
H1208 H 0.87439 0.56373 0.99035 0.0
H1209 H 0.84305 0.56792 0.98457 0.0
H1210 H 0.89883 0.54471 0.95359 0.0
H1211 H 0.86901 0.51174 0.01472 0.0
H1212 H 0.85197 0.51383 0.99953 0.0
H1213 H 0.87064 0.53677 0.01099 0.0
C1214 C 0.83349 0.52946 0.95684 0.0
C1215 C 0.83028 0.54415 0.96563 0.0
C1216 C 0.85133 0.52695 0.96022 0.0
C1217 C 0.86601 0.53889 0.97259 0.0
C1218 C 0.86312 0.5541 0.98095 0.0
H1219 H 0.99319 0.55703 0.9938 0.0
H1220 H 0.96197 0.56077 0.98667 0.0
C1221 C 0.84536 0.55665 0.97753 0.0
C1222 C 0.88406 0.53517 0.97702 0.0
H1223 H 0.90459 0.51972 0.00824 0.0
C1224 C 0.90007 0.53922 0.96552 0.0
C1225 C 0.88552 0.52766 0.99252 0.0
C1226 C 0.86829 0.52204 0.00513 0.0
C1227 C 0.91777 0.53652 0.96924 0.0
C1228 C 0.91965 0.52979 0.98494 0.0
C1229 C 0.90332 0.52515 0.99629 0.0
C1230 C 0.93851 0.5276 0.98981 0.0
C1231 C 0.93421 0.54069 0.95626 0.0
C1232 C 0.9357 0.50782 0.99438 0.0
C1233 C 0.95355 0.50569 0.99852 0.0
C1234 C 0.97448 0.5234 0.99852 0.0
C1235 C 0.97722 0.54317 0.99407 0.0
C1236 C 0.95941 0.54529 0.9899 0.0
H1237 H 0.92768 0.54031 0.94396 0.0
H1238 H 0.94849 0.55662 0.9582 0.0
H1239 H 0.93966 0.52886 0.95674 0.0
H1240 H 0.91974 0.49394 0.99443 0.0
H1241 H 0.95097 0.49015 1.00147 0.0
H1242 H 0.48439 0.30163 0.93113 0.0
H1243 H 0.48382 0.33445 0.93725 0.0
H1244 H 0.47395 0.3175 0.98783 0.0
H1245 H 0.47411 0.28468 0.98164 0.0
H1246 H 0.44899 0.33438 0.97713 0.0
H1247 H 0.53496 0.38471 0.95947 0.0
H1248 H 0.51747 0.36718 0.94395 0.0
H1249 H 0.52253 0.35643 0.9619 0.0
C1250 C 0.4818 0.3049 0.94347 0.0
C1251 C 0.4793 0.2909 0.95597 0.0
C1252 C 0.48162 0.32362 0.94698 0.0
C1253 C 0.47918 0.32854 0.96304 0.0
C1254 C 0.47587 0.31403 0.97537 0.0
H1255 H 0.52191 0.44692 0.01112 0.0
H1256 H 0.51522 0.41295 1.00048 0.0
C1257 C 0.47598 0.29535 0.97186 0.0
C1258 C 0.48109 0.34917 0.9673 0.0
H1259 H 0.51696 0.40227 0.96879 0.0
C1260 C 0.46377 0.34926 0.97519 0.0
C1261 C 0.50052 0.36851 0.96495 0.0
C1262 C 0.52002 0.36932 0.95724 0.0
C1263 C 0.46547 0.36815 0.98104 0.0
C1264 C 0.4849 0.38747 0.97866 0.0
C1265 C 0.50206 0.38742 0.97051 0.0
C1266 C 0.48827 0.40781 0.98533 0.0
C1267 C 0.4468 0.36715 0.99026 0.0
C1268 C 0.47536 0.41624 0.98031 0.0
C1269 C 0.47896 0.4356 0.98656 0.0
C1270 C 0.49565 0.44693 0.99785 0.0
C1271 C 0.50866 0.43848 1.0027 0.0
C1272 C 0.50498 0.41912 0.99653 0.0
H1273 H 0.43519 0.35079 0.99423 0.0
H1274 H 0.4526 0.37763 1.00109 0.0
H1275 H 0.43803 0.37262 0.98233 0.0
H1276 H 0.46267 0.40798 0.97143 0.0
H1277 H 0.46875 0.44171 0.98244 0.0
H1278 H 0.18585 0.73148 0.04317 0.0
H1279 H 0.15345 0.69705 0.03873 0.0
H1280 H 0.15589 0.68039 0.08851 0.0
H1281 H 0.18884 0.71487 0.0928 0.0
H1282 H 0.1512 0.64967 0.06844 0.0
H1283 H 0.09145 0.67303 0.05113 0.0
H1284 H 0.11517 0.68631 0.03889 0.0
H1285 H 0.117 0.69136 0.06038 0.0
C1286 C 0.17913 0.72061 0.05324 0.0
C1287 C 0.18949 0.72573 0.06835 0.0
C1288 C 0.16056 0.70099 0.05073 0.0
C1289 C 0.15192 0.68622 0.06336 0.0
C1290 C 0.16213 0.69159 0.07863 0.0
H1291 H 0.03113 0.56692 0.04627 0.0
H1292 H 0.05829 0.60126 0.0572 0.0
C1293 C 0.18082 0.71125 0.08111 0.0
C1294 C 0.13349 0.6646 0.06009 0.0
H1295 H 0.08349 0.63815 0.04257 0.0
C1296 C 0.13626 0.64713 0.063 0.0
C1297 C 0.11383 0.66116 0.05323 0.0
C1298 C 0.10909 0.67897 0.0509 0.0
C1299 C 0.12038 0.62651 0.05857 0.0
C1300 C 0.1014 0.62329 0.05061 0.0
C1301 C 0.09818 0.64061 0.0484 0.0
C1302 C 0.08496 0.60223 0.04416 0.0
C1303 C 0.12411 0.60838 0.06251 0.0
C1304 C 0.09082 0.5914 0.03302 0.0
C1305 C 0.07538 0.57166 0.02687 0.0
C1306 C 0.05361 0.56247 0.03144 0.0
C1307 C 0.04772 0.57348 0.04244 0.0
C1308 C 0.06324 0.59316 0.0487 0.0
H1309 H 0.1353 0.61228 0.07298 0.0
H1310 H 0.10874 0.59374 0.06534 0.0
H1311 H 0.13159 0.60516 0.05193 0.0
H1312 H 0.10736 0.59826 0.029 0.0
H1313 H 0.08061 0.56358 0.01861 0.0
H1314 H 0.31008 0.49307 0.083 0.0
H1315 H 0.34484 0.496 0.07583 0.0
H1316 H 0.31282 0.44718 0.03963 0.0
H1317 H 0.27817 0.44439 0.04674 0.0
H1318 H 0.35928 0.46644 0.0752 0.0
H1319 H 0.35956 0.49693 0.01364 0.0
H1320 H 0.34136 0.4956 0.0293 0.0
H1321 H 0.33582 0.47218 0.01817 0.0
C1322 C 0.31048 0.4827 0.07375 0.0
C1323 C 0.29154 0.46835 0.06552 0.0
C1324 C 0.33033 0.48446 0.06959 0.0
C1325 C 0.33155 0.47209 0.05697 0.0
C1326 C 0.31239 0.45718 0.04918 0.0
H1327 H 0.43854 0.45195 0.03378 0.0
H1328 H 0.40365 0.44844 0.04089 0.0
C1329 C 0.29258 0.4554 0.05337 0.0
C1330 C 0.35284 0.47503 0.05179 0.0
H1331 H 0.38704 0.48865 0.01944 0.0
C1332 C 0.36535 0.47132 0.06302 0.0
C1333 C 0.36098 0.48174 0.03595 0.0
C1334 C 0.34887 0.48705 0.02358 0.0
C1335 C 0.38545 0.47363 0.05875 0.0
C1336 C 0.39322 0.47962 0.04275 0.0
C1337 C 0.38098 0.48383 0.03163 0.0
C1338 C 0.41402 0.48157 0.03742 0.0
C1339 C 0.39837 0.46992 0.07147 0.0
C1340 C 0.4313 0.50123 0.0326 0.0
C1341 C 0.45125 0.50324 0.02848 0.0
C1342 C 0.45413 0.48551 0.02877 0.0
C1343 C 0.4367 0.46581 0.0333 0.0
C1344 C 0.41681 0.46382 0.03745 0.0
H1345 H 0.39288 0.47066 0.08391 0.0
H1346 H 0.39639 0.45396 0.06967 0.0
H1347 H 0.41581 0.48177 0.0705 0.0
H1348 H 0.42953 0.51514 0.03245 0.0
H1349 H 0.46452 0.51872 0.02544 0.0
H1350 H 0.59229 0.85774 0.07232 0.0
H1351 H 0.58258 0.88547 0.06873 0.0
H1352 H 0.52023 0.83864 0.05009 0.0
H1353 H 0.52978 0.81106 0.05404 0.0
H1354 H 0.5735 0.89686 0.03994 0.0
H1355 H 0.5033 0.87118 0.08041 0.0
H1356 H 0.52131 0.86061 0.08189 0.0
H1357 H 0.50006 0.85045 0.06693 0.0
C1358 C 0.57634 0.85343 0.06789 0.0
C1359 C 0.56161 0.83243 0.06363 0.0
C1360 C 0.57083 0.8692 0.06577 0.0
C1361 C 0.55054 0.86408 0.05937 0.0
C1362 C 0.53571 0.8429 0.05546 0.0
H1363 H 0.49245 0.93134 0.01576 0.0
H1364 H 0.50195 0.90514 0.02508 0.0
C1365 C 0.54119 0.82719 0.05764 0.0
C1366 C 0.54557 0.881 0.05526 0.0
H1367 H 0.50768 0.89609 0.0597 0.0
C1368 C 0.55927 0.89686 0.04444 0.0
C1369 C 0.52692 0.88091 0.06106 0.0
C1370 C 0.51218 0.86499 0.07334 0.0
C1371 C 0.5545 0.91224 0.03892 0.0
C1372 C 0.53562 0.91183 0.04443 0.0
C1373 C 0.52206 0.89621 0.05541 0.0
C1374 C 0.52978 0.92761 0.03895 0.0
C1375 C 0.56934 0.92852 0.02688 0.0
C1376 C 0.54221 0.94882 0.0438 0.0
C1377 C 0.53688 0.96381 0.03851 0.0
C1378 C 0.51902 0.95786 0.02821 0.0
C1379 C 0.50647 0.93651 0.0235 0.0
C1380 C 0.51178 0.9215 0.02888 0.0
H1381 H 0.58102 0.92436 0.02159 0.0
H1382 H 0.5599 0.93026 0.0169 0.0
H1383 H 0.5786 0.94411 0.03304 0.0
H1384 H 0.55603 0.95376 0.05172 0.0
H1385 H 0.54685 0.98007 0.04245 0.0
H1386 H 0.97076 0.14726 0.40007 0.0
H1387 H 0.00445 0.17647 0.38958 0.0
H1388 H 0.98481 0.22094 0.40478 0.0
H1389 H 0.95107 0.1918 0.41529 0.0
H1390 H 0.01031 0.20548 0.36578 0.0
H1391 H 0.04513 0.24644 0.42416 0.0
H1392 H 0.02247 0.21981 0.42309 0.0
H1393 H 0.01853 0.24209 0.42018 0.0
C1394 C 0.9736 0.16326 0.40117 0.0
C1395 C 0.95823 0.1672 0.40856 0.0
C1396 C 0.99289 0.17994 0.39521 0.0
C1397 C 0.9973 0.20092 0.39657 0.0
C1398 C 0.98199 0.20492 0.40392 0.0
H1399 H 0.09949 0.32348 0.36599 0.0
H1400 H 0.06489 0.29267 0.37342 0.0
C1401 C 0.9627 0.18825 0.40993 0.0
C1402 C 0.01765 0.21852 0.38993 0.0
H1403 H 0.06285 0.26496 0.40021 0.0
C1404 C 0.0219 0.21839 0.37333 0.0
C1405 C 0.03274 0.23539 0.39979 0.0
C1406 C 0.02965 0.23591 0.41782 0.0
C1407 C 0.04062 0.2349 0.36629 0.0
C1408 C 0.05548 0.25188 0.3761 0.0
C1409 C 0.05133 0.25194 0.3927 0.0
C1410 C 0.07544 0.26993 0.36946 0.0
C1411 C 0.04398 0.23462 0.34831 0.0
C1412 C 0.09274 0.26729 0.36454 0.0
C1413 C 0.11254 0.28488 0.36034 0.0
C1414 C 0.11525 0.30535 0.36085 0.0
C1415 C 0.09771 0.30783 0.36529 0.0
C1416 C 0.07798 0.29029 0.36955 0.0
H1417 H 0.03022 0.22094 0.34218 0.0
H1418 H 0.04609 0.24947 0.34294 0.0
H1419 H 0.05887 0.23392 0.34594 0.0
H1420 H 0.09122 0.25174 0.36466 0.0
H1421 H 0.12593 0.28253 0.35741 0.0
H1422 H 0.83884 0.80022 0.43183 0.0
H1423 H 0.80851 0.80358 0.42214 0.0
H1424 H 0.82402 0.7967 0.37289 0.0
H1425 H 0.85294 0.79115 0.38249 0.0
H1426 H 0.80534 0.83084 0.40504 0.0
H1427 H 0.76204 0.75545 0.37105 0.0
H1428 H 0.78479 0.76156 0.38393 0.0
H1429 H 0.78885 0.7716 0.36353 0.0
C1430 C 0.83556 0.79883 0.41894 0.0
C1431 C 0.84849 0.79515 0.40805 0.0
C1432 C 0.81826 0.80106 0.41338 0.0
C1433 C 0.81351 0.79996 0.39675 0.0
C1434 C 0.82675 0.79694 0.3858 0.0
H1435 H 0.72846 0.84668 0.36137 0.0
H1436 H 0.75997 0.84331 0.36796 0.0
C1437 C 0.84373 0.79421 0.39136 0.0
C1438 C 0.79506 0.80247 0.39092 0.0
H1439 H 0.75036 0.78039 0.36644 0.0
C1440 C 0.79325 0.81969 0.39668 0.0
C1441 C 0.779 0.78786 0.38014 0.0
C1442 C 0.77862 0.76797 0.37445 0.0
C1443 C 0.77599 0.82267 0.39207 0.0
C1444 C 0.76046 0.80857 0.38076 0.0
C1445 C 0.76232 0.7914 0.37494 0.0
C1446 C 0.7415 0.81053 0.37547 0.0
C1447 C 0.77424 0.84047 0.39994 0.0
C1448 C 0.72052 0.79301 0.37658 0.0
C1449 C 0.70255 0.79471 0.37214 0.0
C1450 C 0.70507 0.81393 0.36643 0.0
C1451 C 0.726 0.83149 0.3653 0.0
C1452 C 0.74404 0.82968 0.36942 0.0
H1453 H 0.7831 0.84534 0.41166 0.0
H1454 H 0.7815 0.85446 0.39186 0.0
H1455 H 0.75715 0.83588 0.40218 0.0
H1456 H 0.71797 0.77804 0.38121 0.0
H1457 H 0.68659 0.781 0.37338 0.0
H1458 H 0.22071 0.04887 0.43192 0.0
H1459 H 0.21448 0.01423 0.42302 0.0
H1460 H 0.23636 0.03891 0.3751 0.0
H1461 H 0.2437 0.0738 0.38408 0.0
H1462 H 0.18686 0.98879 0.40016 0.0
H1463 H 0.26985 0.00899 0.38343 0.0
H1464 H 0.26423 0.02669 0.39502 0.0
H1465 H 0.26135 0.02535 0.37331 0.0
C1466 C 0.22467 0.04706 0.41959 0.0
C1467 C 0.23273 0.06415 0.40872 0.0
C1468 C 0.22093 0.0272 0.41449 0.0
C1469 C 0.22521 0.02404 0.39845 0.0
C1470 C 0.23337 0.04107 0.38761 0.0
H1471 H 0.16788 0.90307 0.34816 0.0
H1472 H 0.17757 0.93823 0.35827 0.0
C1473 C 0.23726 0.06095 0.39272 0.0
C1474 C 0.22005 0.00268 0.39281 0.0
H1475 H 0.24136 0.97567 0.37383 0.0
C1476 C 0.19881 0.98588 0.39451 0.0
C1477 C 0.23572 0.99884 0.38563 0.0
C1478 C 0.25911 0.01588 0.38438 0.0
C1479 C 0.1927 0.96543 0.38894 0.0
C1480 C 0.20813 0.96183 0.38107 0.0
C1481 C 0.22947 0.97853 0.37966 0.0
C1482 C 0.2026 0.94075 0.37449 0.0
C1483 C 0.16988 0.94784 0.39182 0.0
C1484 C 0.21396 0.9308 0.37979 0.0
C1485 C 0.2088 0.91091 0.37374 0.0
C1486 C 0.19216 0.90054 0.36225 0.0
C1487 C 0.18092 0.91064 0.35686 0.0
C1488 C 0.18624 0.93065 0.3628 0.0
H1489 H 0.16221 0.95173 0.40193 0.0
H1490 H 0.1601 0.94547 0.38074 0.0
H1491 H 0.16938 0.93272 0.39463 0.0
H1492 H 0.22669 0.93834 0.38875 0.0
H1493 H 0.21782 0.90365 0.3782 0.0
H1494 H 0.49152 0.60282 0.31166 0.0
H1495 H 0.51946 0.6374 0.32159 0.0
H1496 H 0.53222 0.66095 0.27266 0.0
H1497 H 0.50368 0.62659 0.26266 0.0
H1498 H 0.56274 0.66018 0.31514 0.0
H1499 H 0.52234 0.70473 0.2959 0.0
H1500 H 0.50861 0.67617 0.29619 0.0
H1501 H 0.52637 0.69049 0.27978 0.0
C1502 C 0.50009 0.6154 0.303 0.0
C1503 C 0.49516 0.61196 0.28636 0.0
C1504 C 0.51618 0.63513 0.3087 0.0
C1505 C 0.52769 0.65188 0.29791 0.0
C1506 C 0.52325 0.64838 0.28125 0.0
H1507 H 0.64693 0.76856 0.32025 0.0
H1508 H 0.61963 0.73386 0.3101 0.0
C1509 C 0.5071 0.62864 0.27553 0.0
C1510 C 0.54435 0.67294 0.30417 0.0
H1511 H 0.55806 0.72501 0.30606 0.0
C1512 C 0.56172 0.67436 0.31316 0.0
C1513 C 0.54282 0.69137 0.30181 0.0
C1514 C 0.52394 0.69067 0.29303 0.0
C1515 C 0.57773 0.69374 0.3197 0.0
C1516 C 0.57655 0.71229 0.31691 0.0
C1517 C 0.55905 0.71082 0.30807 0.0
C1518 C 0.59319 0.73335 0.32316 0.0
C1519 C 0.5955 0.69408 0.32982 0.0
C1520 C 0.58735 0.74491 0.33356 0.0
C1521 C 0.60289 0.7649 0.33926 0.0
C1522 C 0.62464 0.77376 0.33469 0.0
C1523 C 0.63039 0.76219 0.32416 0.0
C1524 C 0.61482 0.74225 0.31841 0.0
H1525 H 0.59088 0.67809 0.33448 0.0
H1526 H 0.61011 0.69952 0.32224 0.0
H1527 H 0.59972 0.70512 0.34025 0.0
H1528 H 0.57072 0.73844 0.33728 0.0
H1529 H 0.59777 0.77347 0.34712 0.0
H1530 H 0.39675 0.90849 0.28072 0.0
H1531 H 0.36286 0.90403 0.29144 0.0
H1532 H 0.34427 0.84054 0.3063 0.0
H1533 H 0.37813 0.8449 0.29567 0.0
H1534 H 0.32156 0.87604 0.2829 0.0
H1535 H 0.33375 0.86402 0.34753 0.0
H1536 H 0.35532 0.87367 0.33293 0.0
H1537 H 0.33593 0.84585 0.33402 0.0
C1538 C 0.38543 0.89354 0.28622 0.0
C1539 C 0.39028 0.8771 0.28738 0.0
C1540 C 0.36608 0.89104 0.29243 0.0
C1541 C 0.35111 0.87208 0.29999 0.0
C1542 C 0.35576 0.85554 0.30097 0.0
H1543 H 0.2197 0.82647 0.33537 0.0
H1544 H 0.25446 0.82965 0.32799 0.0
C1545 C 0.37515 0.85805 0.29482 0.0
C1546 C 0.3303 0.8694 0.30623 0.0
H1547 H 0.29896 0.85799 0.34014 0.0
C1548 C 0.31672 0.87219 0.29544 0.0
C1549 C 0.32382 0.86426 0.32259 0.0
C1550 C 0.33804 0.86196 0.33499 0.0
C1551 C 0.29688 0.86985 0.30048 0.0
C1552 C 0.29048 0.86483 0.31682 0.0
C1553 C 0.30389 0.86182 0.32762 0.0
C1554 C 0.27011 0.86319 0.32288 0.0
C1555 C 0.28276 0.8725 0.28819 0.0
C1556 C 0.26755 0.88106 0.32292 0.0
C1557 C 0.24784 0.87931 0.32727 0.0
C1558 C 0.23034 0.8597 0.33189 0.0
C1559 C 0.23304 0.84187 0.33224 0.0
C1560 C 0.25285 0.84365 0.32792 0.0
H1561 H 0.28745 0.87134 0.27557 0.0
H1562 H 0.26553 0.86037 0.28991 0.0
H1563 H 0.28434 0.88833 0.28978 0.0
H1564 H 0.2807 0.89633 0.31925 0.0
H1565 H 0.24613 0.89325 0.32675 0.0
H1566 H 0.0879 0.49264 0.3088 0.0
H1567 H 0.09836 0.46684 0.31724 0.0
H1568 H 0.14734 0.48973 0.28026 0.0
H1569 H 0.13629 0.515 0.27139 0.0
H1570 H 0.12771 0.44826 0.28159 0.0
H1571 H 0.14996 0.4795 0.34404 0.0
H1572 H 0.12244 0.47164 0.33952 0.0
H1573 H 0.1439 0.49313 0.32852 0.0
C1574 C 0.10086 0.49208 0.30248 0.0
C1575 C 0.11141 0.50585 0.28953 0.0
C1576 C 0.10695 0.47749 0.30738 0.0
C1577 C 0.12406 0.47675 0.2997 0.0
C1578 C 0.13422 0.49012 0.28646 0.0
H1579 H 0.18604 0.41139 0.34306 0.0
H1580 H 0.1779 0.43813 0.3329 0.0
C1581 C 0.12788 0.50449 0.28138 0.0
C1582 C 0.13118 0.46189 0.30536 0.0
H1583 H 0.14648 0.4456 0.33908 0.0
C1584 C 0.13198 0.4478 0.29414 0.0
C1585 C 0.13724 0.46157 0.32167 0.0
C1586 C 0.13858 0.47744 0.33408 0.0
C1587 C 0.13808 0.43303 0.29884 0.0
C1588 C 0.14278 0.43181 0.31535 0.0
C1589 C 0.14257 0.44629 0.32648 0.0
C1590 C 0.1478 0.41557 0.32137 0.0
C1591 C 0.13978 0.41919 0.28597 0.0
C1592 C 0.13343 0.39397 0.31852 0.0
C1593 C 0.13819 0.3787 0.32411 0.0
C1594 C 0.15716 0.38468 0.33302 0.0
C1595 C 0.17127 0.40627 0.33625 0.0
C1596 C 0.16665 0.42157 0.33044 0.0
H1597 H 0.14286 0.42674 0.27386 0.0
H1598 H 0.15289 0.41573 0.28878 0.0
H1599 H 0.1243 0.40399 0.28523 0.0
H1600 H 0.11844 0.38888 0.31204 0.0
H1601 H 0.12684 0.36219 0.32159 0.0
H1602 H 0.39673 0.49156 0.29247 0.0
H1603 H 0.36243 0.45969 0.2994 0.0
H1604 H 0.33161 0.49755 0.30257 0.0
H1605 H 0.36559 0.52907 0.29527 0.0
H1606 H 0.34043 0.45268 0.32726 0.0
H1607 H 0.28749 0.44817 0.27661 0.0
H1608 H 0.31645 0.46474 0.27589 0.0
H1609 H 0.30029 0.47366 0.28626 0.0
C1610 C 0.3824 0.49282 0.29419 0.0
C1611 C 0.3835 0.51251 0.29307 0.0
C1612 C 0.3629 0.47471 0.29826 0.0
C1613 C 0.3443 0.47612 0.30128 0.0
C1614 C 0.34549 0.49588 0.29986 0.0
H1615 H 0.21492 0.39274 0.33733 0.0
H1616 H 0.24984 0.42344 0.3304 0.0
C1617 C 0.3649 0.51389 0.29573 0.0
C1618 C 0.32412 0.45741 0.30711 0.0
H1619 H 0.2698 0.42802 0.30018 0.0
C1620 C 0.32502 0.44717 0.32124 0.0
C1621 C 0.30397 0.45021 0.29931 0.0
C1622 C 0.30199 0.45964 0.28359 0.0
C1623 C 0.30631 0.43031 0.32798 0.0
C1624 C 0.28614 0.42341 0.32035 0.0
C1625 C 0.28524 0.43352 0.30615 0.0
C1626 C 0.26582 0.40524 0.32647 0.0
C1627 C 0.30825 0.42029 0.34338 0.0
C1628 C 0.26328 0.38487 0.32681 0.0
C1629 C 0.24341 0.36737 0.33088 0.0
C1630 C 0.22574 0.36992 0.33479 0.0
C1631 C 0.22839 0.39036 0.3348 0.0
C1632 C 0.24829 0.40788 0.3307 0.0
H1633 H 0.32331 0.43101 0.35013 0.0
H1634 H 0.29427 0.41591 0.35142 0.0
H1635 H 0.30861 0.40564 0.34031 0.0
H1636 H 0.27641 0.38237 0.32328 0.0
H1637 H 0.24163 0.35172 0.3305 0.0
H1638 H 0.50899 0.89912 0.30758 0.0
H1639 H 0.54162 0.89728 0.31373 0.0
H1640 H 0.51676 0.83993 0.2854 0.0
H1641 H 0.48418 0.8419 0.27917 0.0
H1642 H 0.54087 0.8639 0.33043 0.0
H1643 H 0.58 0.87389 0.27061 0.0
H1644 H 0.55987 0.88145 0.2743 0.0
H1645 H 0.55189 0.8541 0.27118 0.0
C1646 C 0.51084 0.88649 0.3023 0.0
C1647 C 0.49435 0.87084 0.29272 0.0
C1648 C 0.52939 0.88537 0.30589 0.0
C1649 C 0.53179 0.86857 0.29992 0.0
C1650 C 0.51553 0.85327 0.28988 0.0
H1651 H 0.61556 0.82278 0.33804 0.0
H1652 H 0.58442 0.82634 0.33014 0.0
C1653 C 0.49693 0.85438 0.28632 0.0
C1654 C 0.55027 0.8661 0.30546 0.0
H1655 H 0.59439 0.86366 0.2925 0.0
C1656 C 0.55253 0.86381 0.32211 0.0
C1657 C 0.5656 0.86612 0.29464 0.0
C1658 C 0.56442 0.8692 0.27669 0.0
C1659 C 0.56956 0.86142 0.32822 0.0
C1660 C 0.58477 0.86123 0.31744 0.0
C1661 C 0.58262 0.86364 0.30077 0.0
C1662 C 0.60343 0.85928 0.32331 0.0
C1663 C 0.57173 0.86 0.34622 0.0
C1664 C 0.62446 0.87662 0.32228 0.0
C1665 C 0.64221 0.8747 0.32704 0.0
C1666 C 0.63937 0.8554 0.33293 0.0
C1667 C 0.61828 0.83803 0.33403 0.0
C1668 C 0.60047 0.84001 0.32939 0.0
H1669 H 0.55929 0.8616 0.35309 0.0
H1670 H 0.57032 0.84454 0.34926 0.0
H1671 H 0.58792 0.87277 0.35011 0.0
H1672 H 0.62715 0.89161 0.31759 0.0
H1673 H 0.65827 0.88825 0.32582 0.0
H1674 H 0.14252 0.61744 0.31661 0.0
H1675 H 0.15203 0.65459 0.31958 0.0
H1676 H 0.09386 0.64124 0.29397 0.0
H1677 H 0.08418 0.60385 0.29124 0.0
H1678 H 0.15845 0.68557 0.29696 0.0
H1679 H 0.08864 0.6664 0.33697 0.0
H1680 H 0.09677 0.64729 0.33202 0.0
H1681 H 0.08191 0.65344 0.31756 0.0
C1682 C 0.13193 0.62257 0.31149 0.0
C1683 C 0.11268 0.60807 0.30375 0.0
C1684 C 0.13734 0.64371 0.31318 0.0
C1685 C 0.12349 0.65058 0.30721 0.0
C1686 C 0.10456 0.63616 0.29892 0.0
H1687 H 0.13127 0.77314 0.31993 0.0
H1688 H 0.12111 0.73737 0.31093 0.0
C1689 C 0.09912 0.61493 0.29726 0.0
C1690 C 0.12869 0.67268 0.31024 0.0
H1691 H 0.11166 0.70236 0.33077 0.0
C1692 C 0.14818 0.68926 0.30428 0.0
C1693 C 0.11526 0.67742 0.31983 0.0
C1694 C 0.09456 0.66024 0.3271 0.0
C1695 C 0.15468 0.71049 0.30773 0.0
C1696 C 0.14145 0.71519 0.31758 0.0
C1697 C 0.12174 0.69866 0.32322 0.0
C1698 C 0.14808 0.73711 0.32262 0.0
C1699 C 0.17559 0.72772 0.30078 0.0
C1700 C 0.16651 0.74872 0.33229 0.0
C1701 C 0.17237 0.76917 0.33747 0.0
C1702 C 0.1598 0.77832 0.33318 0.0
C1703 C 0.14133 0.76661 0.32347 0.0
C1704 C 0.13548 0.74615 0.31831 0.0
H1705 H 0.1808 0.72197 0.29019 0.0
H1706 H 0.17407 0.74153 0.297 0.0
H1707 H 0.18842 0.73316 0.31017 0.0
H1708 H 0.17624 0.74188 0.33599 0.0
H1709 H 0.1868 0.77779 0.3448 0.0
H1710 H 0.87045 0.04022 0.41123 0.0
H1711 H 0.83844 0.00553 0.40587 0.0
H1712 H 0.80521 0.03649 0.38666 0.0
H1713 H 0.83735 0.07118 0.39187 0.0
H1714 H 0.79405 0.98589 0.4148 0.0
H1715 H 0.80641 0.00031 0.34858 0.0
H1716 H 0.82665 0.01658 0.36335 0.0
H1717 H 0.80382 0.02007 0.35981 0.0
C1718 C 0.85609 0.03953 0.40622 0.0
C1719 C 0.85613 0.05815 0.402 0.0
C1720 C 0.83788 0.01977 0.40313 0.0
C1721 C 0.81958 0.01844 0.39565 0.0
C1722 C 0.81927 0.03716 0.39224 0.0
H1723 H 0.69738 0.90128 0.37773 0.0
H1724 H 0.72497 0.93632 0.3873 0.0
C1725 C 0.83751 0.05692 0.39532 0.0
C1726 C 0.80155 0.99754 0.39039 0.0
H1727 H 0.77597 0.96839 0.35666 0.0
C1728 C 0.78999 0.98206 0.40211 0.0
C1729 C 0.79654 0.9925 0.37379 0.0
C1730 C 0.80909 0.00813 0.36061 0.0
C1731 C 0.77348 0.96168 0.39766 0.0
C1732 C 0.76829 0.95677 0.38107 0.0
C1733 C 0.77987 0.97225 0.36938 0.0
C1734 C 0.75146 0.93544 0.37548 0.0
C1735 C 0.76214 0.94539 0.4107 0.0
C1736 C 0.75713 0.92346 0.36541 0.0
C1737 C 0.74142 0.90348 0.35987 0.0
C1738 C 0.71964 0.89511 0.36415 0.0
C1739 C 0.71399 0.90719 0.37421 0.0
C1740 C 0.72975 0.92719 0.37978 0.0
H1741 H 0.77124 0.95011 0.42232 0.0
H1742 H 0.746 0.94358 0.41285 0.0
H1743 H 0.7598 0.92974 0.40692 0.0
H1744 H 0.77379 0.92953 0.36193 0.0
H1745 H 0.74645 0.89455 0.35234 0.0
H1746 H 0.97708 0.83729 0.39947 0.0
H1747 H 0.01197 0.84066 0.39247 0.0
H1748 H 0.9828 0.77262 0.39271 0.0
H1749 H 0.94773 0.7693 0.39937 0.0
H1750 H 0.03828 0.8286 0.40673 0.0
H1751 H 0.00897 0.78672 0.34794 0.0
H1752 H 0.99339 0.79499 0.35991 0.0
H1753 H 0.99386 0.77123 0.36498 0.0
C1754 C 0.97826 0.82309 0.39829 0.0
C1755 C 0.95988 0.80306 0.40007 0.0
C1756 C 0.99816 0.82501 0.39422 0.0
C1757 C 1.00001 0.8069 0.3917 0.0
C1758 C 0.98173 0.78683 0.39418 0.0
H1759 H 0.10578 0.78587 0.36755 0.0
H1760 H 0.07109 0.78301 0.37446 0.0
C1761 C 0.96178 0.78493 0.39821 0.0
C1762 C 0.02094 0.80914 0.38623 0.0
H1763 H 0.04428 0.7952 0.35606 0.0
C1764 C 0.03957 0.82136 0.39562 0.0
C1765 C 0.02277 0.79986 0.37163 0.0
C1766 C 0.00374 0.78764 0.36043 0.0
C1767 C 0.05976 0.8241 0.39105 0.0
C1768 C 0.06148 0.81457 0.3766 0.0
C1769 C 0.04293 0.80247 0.36714 0.0
C1770 C 0.08226 0.81637 0.37142 0.0
C1771 C 0.07904 0.83678 0.40192 0.0
C1772 C 0.09998 0.83601 0.36709 0.0
C1773 C 0.11979 0.83764 0.36304 0.0
C1774 C 0.12213 0.8196 0.36309 0.0
C1775 C 0.10431 0.79996 0.36723 0.0
C1776 C 0.08452 0.79832 0.37118 0.0
H1777 H 0.07427 0.83955 0.41407 0.0
H1778 H 0.0885 0.82859 0.40343 0.0
H1779 H 0.08972 0.8524 0.3963 0.0
H1780 H 0.09856 0.85012 0.36703 0.0
H1781 H 0.13335 0.85305 0.36024 0.0
H1782 H 0.18765 0.14155 0.38758 0.0
H1783 H 0.18104 0.17109 0.38347 0.0
H1784 H 0.24164 0.21342 0.40697 0.0
H1785 H 0.24846 0.18375 0.41074 0.0
H1786 H 0.1778 0.19909 0.40386 0.0
H1787 H 0.24837 0.241 0.36302 0.0
H1788 H 0.23849 0.21411 0.36949 0.0
H1789 H 0.25463 0.23581 0.38296 0.0
C1790 C 0.19937 0.15714 0.39206 0.0
C1791 C 0.2185 0.16059 0.39945 0.0
C1792 C 0.19561 0.17397 0.38971 0.0
C1793 C 0.21101 0.19452 0.39466 0.0
C1794 C 0.22976 0.19777 0.40276 0.0
H1795 H 0.21197 0.31306 0.37716 0.0
H1796 H 0.2198 0.28616 0.38736 0.0
C1797 C 0.23356 0.18087 0.40504 0.0
C1798 C 0.20762 0.21246 0.39061 0.0
H1799 H 0.22776 0.25748 0.36794 0.0
C1800 C 0.18878 0.21192 0.39608 0.0
C1801 C 0.22193 0.22912 0.38038 0.0
C1802 C 0.2419 0.23005 0.37348 0.0
C1803 C 0.18379 0.22751 0.39151 0.0
C1804 C 0.19791 0.24393 0.38109 0.0
C1805 C 0.21699 0.2448 0.37593 0.0
C1806 C 0.1929 0.26008 0.37504 0.0
C1807 C 0.16344 0.22632 0.39782 0.0
C1808 C 0.17533 0.25431 0.36457 0.0
C1809 C 0.17083 0.26964 0.35864 0.0
C1810 C 0.18389 0.29103 0.36307 0.0
C1811 C 0.20155 0.29674 0.37352 0.0
C1812 C 0.20608 0.28141 0.37937 0.0
H1813 H 0.15698 0.21574 0.40849 0.0
H1814 H 0.1664 0.2423 0.40126 0.0
H1815 H 0.15094 0.21999 0.38815 0.0
H1816 H 0.16516 0.23794 0.36091 0.0
H1817 H 0.15703 0.26467 0.35071 0.0
H1818 H 0.64045 0.47957 0.73842 0.0
H1819 H 0.67392 0.50896 0.72783 0.0
H1820 H 0.64966 0.55163 0.73656 0.0
H1821 H 0.6161 0.52229 0.74715 0.0
H1822 H 0.67964 0.53485 0.70166 0.0
H1823 H 0.70882 0.58237 0.75817 0.0
H1824 H 0.68736 0.55511 0.75801 0.0
H1825 H 0.68198 0.57587 0.75242 0.0
C1826 C 0.64221 0.4952 0.73807 0.0
C1827 C 0.62557 0.49856 0.74366 0.0
C1828 C 0.66139 0.512 0.73206 0.0
C1829 C 0.66444 0.53256 0.73158 0.0
C1830 C 0.64789 0.536 0.73714 0.0
H1831 H 0.76636 0.65517 0.70017 0.0
H1832 H 0.73184 0.62439 0.70772 0.0
C1833 C 0.6287 0.5192 0.7432 0.0
C1834 C 0.68469 0.55026 0.72484 0.0
H1835 H 0.72757 0.59891 0.73403 0.0
C1836 C 0.69022 0.54881 0.70876 0.0
C1837 C 0.69847 0.56846 0.73412 0.0
C1838 C 0.69402 0.57053 0.75168 0.0
C1839 C 0.70887 0.56527 0.7016 0.0
C1840 C 0.72249 0.58358 0.71081 0.0
C1841 C 0.71705 0.58494 0.72693 0.0
C1842 C 0.74249 0.60164 0.70407 0.0
C1843 C 0.7134 0.56336 0.68405 0.0
C1844 C 0.75988 0.59908 0.69922 0.0
C1845 C 0.77959 0.61667 0.69481 0.0
C1846 C 0.78223 0.63711 0.69517 0.0
C1847 C 0.76465 0.63955 0.69959 0.0
C1848 C 0.74497 0.62199 0.70395 0.0
H1849 H 0.69939 0.54999 0.67786 0.0
H1850 H 0.71752 0.57823 0.67763 0.0
H1851 H 0.72737 0.56076 0.68313 0.0
H1852 H 0.75856 0.58363 0.69958 0.0
H1853 H 0.79301 0.61436 0.6919 0.0
H1854 H 0.48873 0.09497 0.74589 0.0
H1855 H 0.45913 0.09982 0.73619 0.0
H1856 H 0.50481 0.16393 0.72249 0.0
H1857 H 0.53448 0.15915 0.73208 0.0
H1858 H 0.44632 0.12718 0.74607 0.0
H1859 H 0.46962 0.14228 0.6814 0.0
H1860 H 0.48176 0.13213 0.69529 0.0
H1861 H 0.49051 0.15995 0.69504 0.0
C1862 C 0.4925 0.11013 0.74085 0.0
C1863 C 0.51405 0.12663 0.73971 0.0
C1864 C 0.47554 0.11285 0.73523 0.0
C1865 C 0.47968 0.13211 0.72829 0.0
C1866 C 0.50116 0.14871 0.72734 0.0
H1867 H 0.39527 0.17948 0.69512 0.0
H1868 H 0.42636 0.17563 0.7026 0.0
C1869 C 0.51814 0.14597 0.73289 0.0
C1870 C 0.46145 0.135 0.72266 0.0
H1871 H 0.4412 0.14806 0.68981 0.0
C1872 C 0.44518 0.13162 0.73374 0.0
C1873 C 0.45992 0.14091 0.70657 0.0
C1874 C 0.47626 0.14384 0.69384 0.0
C1875 C 0.42762 0.13417 0.72927 0.0
C1876 C 0.42606 0.13999 0.71319 0.0
C1877 C 0.44239 0.14357 0.70212 0.0
C1878 C 0.40739 0.14211 0.70767 0.0
C1879 C 0.41105 0.13095 0.74189 0.0
C1880 C 0.38644 0.12449 0.70768 0.0
C1881 C 0.36872 0.12664 0.70328 0.0
C1882 C 0.3716 0.14636 0.6985 0.0
C1883 C 0.39259 0.16397 0.69834 0.0
C1884 C 0.41036 0.16181 0.70271 0.0
H1885 H 0.41725 0.13175 0.75437 0.0
H1886 H 0.40598 0.14302 0.74071 0.0
H1887 H 0.39657 0.11509 0.74016 0.0
H1888 H 0.38377 0.10909 0.71126 0.0
H1889 H 0.35269 0.11287 0.70368 0.0
H1890 H 0.88437 0.38235 0.7634 0.0
H1891 H 0.87692 0.34705 0.75528 0.0
H1892 H 0.9065 0.37153 0.70895 0.0
H1893 H 0.91526 0.40702 0.71732 0.0
H1894 H 0.85226 0.32228 0.7315 0.0
H1895 H 0.93576 0.33914 0.72149 0.0
H1896 H 0.92987 0.35767 0.73151 0.0
H1897 H 0.92981 0.35622 0.70972 0.0
C1898 C 0.88972 0.38033 0.75162 0.0
C1899 C 0.90048 0.3976 0.74104 0.0
C1900 C 0.88527 0.36009 0.74694 0.0
C1901 C 0.89145 0.35669 0.7316 0.0
C1902 C 0.90203 0.37383 0.72099 0.0
H1903 H 0.83512 0.23644 0.68077 0.0
H1904 H 0.84477 0.27143 0.69114 0.0
C1905 C 0.90671 0.39409 0.72571 0.0
C1906 C 0.88604 0.33508 0.72642 0.0
H1907 H 0.90763 0.30672 0.71016 0.0
C1908 C 0.8644 0.31883 0.72697 0.0
C1909 C 0.90192 0.33048 0.72076 0.0
C1910 C 0.92566 0.34676 0.721 0.0
C1911 C 0.85811 0.29824 0.72165 0.0
C1912 C 0.87382 0.29395 0.71512 0.0
C1913 C 0.89554 0.31008 0.71494 0.0
C1914 C 0.86817 0.27283 0.70854 0.0
C1915 C 0.83477 0.28125 0.72337 0.0
C1916 C 0.87869 0.26229 0.71439 0.0
C1917 C 0.87369 0.24254 0.70812 0.0
C1918 C 0.85798 0.23287 0.69587 0.0
C1919 C 0.84748 0.24349 0.69002 0.0
C1920 C 0.85273 0.26339 0.69614 0.0
H1921 H 0.82661 0.28529 0.73302 0.0
H1922 H 0.82614 0.27973 0.71181 0.0
H1923 H 0.83322 0.26568 0.72624 0.0
H1924 H 0.89072 0.2693 0.72391 0.0
H1925 H 0.88209 0.23485 0.71297 0.0
H1926 H 0.1564 0.93638 0.64475 0.0
H1927 H 0.1849 0.97094 0.65434 0.0
H1928 H 0.20008 0.99246 0.60501 0.0
H1929 H 0.17109 0.95818 0.59531 0.0
H1930 H 0.2288 0.9925 0.64846 0.0
H1931 H 0.1909 0.03807 0.62608 0.0
H1932 H 0.17643 0.00954 0.62717 0.0
H1933 H 0.1947 0.02273 0.61075 0.0
C1934 C 0.16566 0.94852 0.63592 0.0
C1935 C 0.16129 0.94453 0.61925 0.0
C1936 C 0.18205 0.96822 0.64143 0.0
C1937 C 0.1944 0.98441 0.63042 0.0
C1938 C 0.19049 0.98034 0.61375 0.0
H1939 H 0.31466 0.10076 0.65256 0.0
H1940 H 0.2873 0.06592 0.64257 0.0
C1941 C 0.17407 0.96064 0.60822 0.0
C1942 C 0.21132 0.00551 0.63642 0.0
H1943 H 0.22636 0.05797 0.63674 0.0
C1944 C 0.22828 0.00682 0.6459 0.0
C1945 C 0.21045 0.02415 0.63328 0.0
C1946 C 0.19205 0.02362 0.6239 0.0
C1947 C 0.24451 0.02629 0.65218 0.0
C1948 C 0.24395 0.045 0.64866 0.0
C1949 C 0.22687 0.04365 0.63931 0.0
C1950 C 0.26068 0.06611 0.6548 0.0
C1951 C 0.26183 0.02656 0.66282 0.0
C1952 C 0.25477 0.07807 0.66468 0.0
C1953 C 0.27034 0.0981 0.67029 0.0
C1954 C 0.2922 0.10661 0.66615 0.0
C1955 C 0.29804 0.09466 0.65612 0.0
C1956 C 0.28242 0.07464 0.65047 0.0
H1957 H 0.25687 0.01062 0.66778 0.0
H1958 H 0.27665 0.03169 0.65556 0.0
H1959 H 0.26588 0.03784 0.67307 0.0
H1960 H 0.23807 0.07189 0.66807 0.0
H1961 H 0.26516 0.10697 0.67773 0.0
H1962 H 0.06543 0.2444 0.6163 0.0
H1963 H 0.03123 0.23964 0.62664 0.0
H1964 H 0.01121 0.17498 0.63891 0.0
H1965 H 0.04531 0.17961 0.62863 0.0
H1966 H 0.99001 0.21247 0.61689 0.0
H1967 H 0.99959 0.19605 0.681 0.0
H1968 H 0.0217 0.20653 0.66685 0.0
H1969 H 1.00214 0.17871 0.66684 0.0
C1970 C 0.05373 0.22914 0.62115 0.0
C1971 C 0.05827 0.21245 0.62171 0.0
C1972 C 0.0342 0.22646 0.62714 0.0
C1973 C 0.01874 0.20708 0.63389 0.0
C1974 C 0.02307 0.19029 0.63423 0.0
H1975 H 0.88639 0.1598 0.66779 0.0
H1976 H 0.92139 0.16344 0.66055 0.0
C1977 C 0.04261 0.19296 0.62829 0.0
C1978 C 0.99778 0.20422 0.63996 0.0
H1979 H 0.96515 0.19072 0.67329 0.0
C1980 C 0.98467 0.20782 0.62925 0.0
C1981 C 0.99066 0.19803 0.65608 0.0
C1982 C 0.00433 0.19479 0.66842 0.0
C1983 C 0.96467 0.20523 0.63412 0.0
C1984 C 0.95761 0.19915 0.65023 0.0
C1985 C 0.97057 0.19536 0.66094 0.0
C1986 C 0.93701 0.19715 0.65616 0.0
C1987 C 0.95106 0.2087 0.62187 0.0
C1988 C 0.93433 0.21495 0.65658 0.0
C1989 C 0.91447 0.21292 0.66083 0.0
C1990 C 0.89694 0.19311 0.66501 0.0
C1991 C 0.89974 0.17534 0.665 0.0
C1992 C 0.91969 0.17739 0.66076 0.0
H1993 H 0.95611 0.20812 0.60925 0.0
H1994 H 0.93373 0.19664 0.62317 0.0
H1995 H 0.95281 0.22454 0.6239 0.0
H1996 H 0.94752 0.2304 0.65329 0.0
H1997 H 0.91269 0.22683 0.6606 0.0
H1998 H 0.81137 0.86342 0.6378 0.0
H1999 H 0.82086 0.83707 0.64657 0.0
H2000 H 0.76799 0.78918 0.61845 0.0
H2001 H 0.75827 0.81541 0.6097 0.0
H2002 H 0.79452 0.79969 0.66368 0.0
H2003 H 0.81948 0.78273 0.60446 0.0
H2004 H 0.81682 0.80579 0.60789 0.0
H2005 H 0.79326 0.78038 0.6044 0.0
C2006 C 0.80175 0.84727 0.63349 0.0
C2007 C 0.78406 0.84149 0.62306 0.0
C2008 C 0.80725 0.83227 0.63845 0.0
C2009 C 0.79528 0.81126 0.63301 0.0
C2010 C 0.7777 0.80543 0.62252 0.0
H2011 H 0.79719 0.69576 0.65234 0.0
H2012 H 0.7892 0.7229 0.64308 0.0
C2013 C 0.77218 0.82043 0.61754 0.0
C2014 C 0.80067 0.79527 0.63887 0.0
H2015 H 0.81609 0.76018 0.62631 0.0
C2016 C 0.79935 0.79112 0.65554 0.0
C2017 C 0.80692 0.78413 0.62819 0.0
C2018 C 0.80941 0.78857 0.61025 0.0
C2019 C 0.80372 0.77577 0.66181 0.0
C2020 C 0.80992 0.76458 0.65112 0.0
C2021 C 0.8113 0.76879 0.63446 0.0
C2022 C 0.81481 0.74825 0.65697 0.0
C2023 C 0.80115 0.7713 0.67975 0.0
C2024 C 0.83201 0.75358 0.66772 0.0
C2025 C 0.83663 0.7381 0.67308 0.0
C2026 C 0.82415 0.71701 0.66771 0.0
C2027 C 0.80708 0.71181 0.65679 0.0
C2028 C 0.80248 0.72729 0.65145 0.0
H2029 H 0.79125 0.77731 0.68555 0.0
H2030 H 0.79353 0.75404 0.68209 0.0
H2031 H 0.8173 0.77928 0.68562 0.0
H2032 H 0.84202 0.76977 0.67184 0.0
H2033 H 0.85015 0.74275 0.68124 0.0
H2034 H 0.03036 0.85049 0.61133 0.0
H2035 H 0.99682 0.81883 0.6197 0.0
H2036 H 0.03275 0.80404 0.65417 0.0
H2037 H 0.06621 0.8358 0.64589 0.0
H2038 H 0.98425 0.77568 0.62038 0.0
H2039 H 0.9869 0.80697 0.68225 0.0
H2040 H 0.0037 0.82341 0.666 0.0
H2041 H 0.01076 0.80622 0.67663 0.0
C2042 C 0.03106 0.84019 0.62046 0.0
C2043 C 0.05072 0.8453 0.6279 0.0
C2044 C 0.01194 0.82222 0.6253 0.0
C2045 C 0.01222 0.80928 0.63778 0.0
C2046 C 0.03208 0.814 0.64475 0.0
H2047 H 0.90811 0.68396 0.66315 0.0
H2048 H 0.94287 0.71487 0.65618 0.0
C2049 C 0.05119 0.83196 0.63989 0.0
C2050 C 0.9917 0.7911 0.64367 0.0
H2051 H 0.95961 0.77145 0.67711 0.0
C2052 C 0.97887 0.77476 0.63278 0.0
C2053 C 0.98452 0.79008 0.6598 0.0
C2054 C 0.99705 0.80768 0.67184 0.0
C2055 C 0.95927 0.75724 0.63763 0.0
C2056 C 0.95243 0.7559 0.65388 0.0
C2057 C 0.96503 0.77241 0.66472 0.0
C2058 C 0.93208 0.73752 0.6597 0.0
C2059 C 0.94584 0.74045 0.62526 0.0
C2060 C 0.91474 0.7401 0.6646 0.0
C2061 C 0.89489 0.72246 0.66863 0.0
C2062 C 0.89223 0.70201 0.66812 0.0
C2063 C 0.90983 0.69958 0.66376 0.0
C2064 C 0.92962 0.71718 0.6597 0.0
H2065 H 0.9507 0.74619 0.61268 0.0
H2066 H 0.948 0.72653 0.62703 0.0
H2067 H 0.92844 0.73514 0.6267 0.0
H2068 H 0.91633 0.75568 0.66471 0.0
H2069 H 0.88149 0.72477 0.67159 0.0
H2070 H 0.15466 0.18025 0.6105 0.0
H2071 H 0.18696 0.17782 0.61701 0.0
H2072 H 0.20428 0.2253 0.65425 0.0
H2073 H 0.17196 0.2276 0.6478 0.0
H2074 H 0.23153 0.20817 0.61783 0.0
H2075 H 0.20129 0.17481 0.6788 0.0
H2076 H 0.18416 0.17634 0.66339 0.0
H2077 H 0.20217 0.19947 0.67496 0.0
C2078 C 0.16564 0.19043 0.61985 0.0
C2079 C 0.16106 0.20425 0.62857 0.0
C2080 C 0.18399 0.18897 0.62362 0.0
C2081 C 0.19787 0.2011 0.63632 0.0
C2082 C 0.19364 0.2155 0.64461 0.0
H2083 H 0.32622 0.22179 0.65855 0.0
H2084 H 0.2949 0.22528 0.65118 0.0
C2085 C 0.17533 0.21699 0.64081 0.0
C2086 C 0.21644 0.19836 0.64114 0.0
H2087 H 0.23724 0.18381 0.67273 0.0
C2088 C 0.23278 0.20285 0.62983 0.0
C2089 C 0.21792 0.19106 0.65672 0.0
C2090 C 0.20038 0.18494 0.66915 0.0
C2091 C 0.25074 0.20069 0.63378 0.0
C2092 C 0.25258 0.19409 0.64954 0.0
C2093 C 0.236 0.18914 0.66073 0.0
C2094 C 0.27153 0.19213 0.65459 0.0
C2095 C 0.26743 0.20516 0.62093 0.0
C2096 C 0.26882 0.17247 0.6594 0.0
C2097 C 0.2867 0.17049 0.66371 0.0
C2098 C 0.3076 0.18825 0.66361 0.0
C2099 C 0.31027 0.20791 0.6589 0.0
C2100 C 0.2924 0.20988 0.65458 0.0
H2101 H 0.26098 0.20458 0.60857 0.0
H2102 H 0.28145 0.22125 0.6229 0.0
H2103 H 0.27325 0.19362 0.62156 0.0
H2104 H 0.25289 0.15855 0.65953 0.0
H2105 H 0.28418 0.15503 0.66686 0.0
H2106 H 0.75082 0.93641 0.62612 0.0
H2107 H 0.75991 0.97368 0.62824 0.0
H2108 H 0.8229 0.99034 0.6469 0.0
H2109 H 0.81392 0.95333 0.64449 0.0
H2110 H 0.7697 0.9965 0.65626 0.0
H2111 H 0.8381 0.03639 0.61382 0.0
H2112 H 0.82015 0.00807 0.61365 0.0
H2113 H 0.84202 0.02006 0.62805 0.0
C2114 C 0.76673 0.94822 0.63032 0.0
C2115 C 0.78182 0.94233 0.63501 0.0
C2116 C 0.77189 0.9694 0.63157 0.0
C2117 C 0.79222 0.98485 0.63747 0.0
C2118 C 0.80736 0.97884 0.6419 0.0
H2119 H 0.85338 0.11086 0.67624 0.0
H2120 H 0.84262 0.07493 0.66723 0.0
C2121 C 0.80221 0.95773 0.64061 0.0
C2122 C 0.79702 0.00685 0.64044 0.0
H2123 H 0.8346 0.05863 0.63372 0.0
C2124 C 0.78369 0.01008 0.65113 0.0
C2125 C 0.81532 0.02455 0.63377 0.0
C2126 C 0.82959 0.02211 0.62156 0.0
C2127 C 0.78866 0.03055 0.65584 0.0
C2128 C 0.80732 0.04818 0.64956 0.0
C2129 C 0.82037 0.04501 0.63857 0.0
C2130 C 0.81389 0.07004 0.65467 0.0
C2131 C 0.77439 0.03316 0.66795 0.0
C2132 C 0.80139 0.0792 0.65043 0.0
C2133 C 0.80743 0.09969 0.6556 0.0
C2134 C 0.82607 0.11136 0.66514 0.0
C2135 C 0.83875 0.10221 0.66913 0.0
C2136 C 0.83272 0.08174 0.66391 0.0
H2137 H 0.7629 0.01795 0.67381 0.0
H2138 H 0.78429 0.04477 0.6775 0.0
H2139 H 0.76493 0.03933 0.66169 0.0
H2140 H 0.78695 0.07048 0.64312 0.0
H2141 H 0.79736 0.10628 0.65222 0.0
H2142 H 0.52332 0.39563 0.71021 0.0
H2143 H 0.49064 0.36172 0.7048 0.0
H2144 H 0.48953 0.34382 0.75473 0.0
H2145 H 0.52271 0.37777 0.76002 0.0
H2146 H 0.48513 0.3131 0.73454 0.0
H2147 H 0.42814 0.33924 0.71533 0.0
H2148 H 0.45263 0.35212 0.70389 0.0
H2149 H 0.45335 0.35677 0.72539 0.0
C2150 C 0.51578 0.38461 0.72008 0.0
C2151 C 0.5252 0.38923 0.73554 0.0
C2152 C 0.49706 0.36528 0.71702 0.0
C2153 C 0.48733 0.35032 0.72942 0.0
C2154 C 0.49662 0.35518 0.74501 0.0
H2155 H 0.36504 0.233 0.71113 0.0
H2156 H 0.39271 0.26719 0.72198 0.0
C2157 C 0.51546 0.37455 0.74805 0.0
C2158 C 0.46864 0.32901 0.72567 0.0
H2159 H 0.41922 0.30402 0.70714 0.0
C2160 C 0.4706 0.3111 0.72875 0.0
C2161 C 0.44951 0.32629 0.71831 0.0
C2162 C 0.44567 0.34463 0.7157 0.0
C2163 C 0.4544 0.29072 0.72408 0.0
C2164 C 0.43592 0.28819 0.71573 0.0
C2165 C 0.43353 0.30597 0.71329 0.0
C2166 C 0.41913 0.26733 0.70918 0.0
C2167 C 0.45724 0.2721 0.7282 0.0
C2168 C 0.42469 0.25613 0.69818 0.0
C2169 C 0.40895 0.23649 0.69206 0.0
C2170 C 0.3872 0.22777 0.69655 0.0
C2171 C 0.38161 0.23919 0.70738 0.0
C2172 C 0.39741 0.25878 0.71359 0.0
H2173 H 0.46819 0.27564 0.73876 0.0
H2174 H 0.44153 0.2578 0.73094 0.0
H2175 H 0.46455 0.26846 0.71772 0.0
H2176 H 0.44123 0.26259 0.69428 0.0
H2177 H 0.41395 0.22812 0.68391 0.0
H2178 H 0.64383 0.17081 0.73216 0.0
H2179 H 0.67855 0.17383 0.72513 0.0
H2180 H 0.64849 0.10571 0.72436 0.0
H2181 H 0.61358 0.10276 0.73105 0.0
H2182 H 0.70426 0.16102 0.7392 0.0
H2183 H 0.67535 0.12052 0.67987 0.0
H2184 H 0.65981 0.12875 0.69193 0.0
H2185 H 0.65993 0.10474 0.6967 0.0
C2186 C 0.64477 0.15651 0.73074 0.0
C2187 C 0.62619 0.13657 0.73225 0.0
C2188 C 0.66458 0.15824 0.72665 0.0
C2189 C 0.66614 0.14002 0.72386 0.0
C2190 C 0.64765 0.12002 0.72605 0.0
H2191 H 0.77157 0.11841 0.69947 0.0
H2192 H 0.73691 0.11563 0.70637 0.0
C2193 C 0.62778 0.11831 0.73008 0.0
C2194 C 0.68704 0.1421 0.71844 0.0
H2195 H 0.71046 0.12849 0.68811 0.0
C2196 C 0.70559 0.15396 0.72799 0.0
C2197 C 0.68892 0.13306 0.70373 0.0
C2198 C 0.67001 0.12123 0.69237 0.0
C2199 C 0.72575 0.1566 0.72347 0.0
C2200 C 0.72754 0.14733 0.7089 0.0
C2201 C 0.70906 0.13556 0.69929 0.0
C2202 C 0.74831 0.14909 0.70373 0.0
C2203 C 0.74494 0.16891 0.7345 0.0
C2204 C 0.76615 0.16876 0.69964 0.0
C2205 C 0.78594 0.17035 0.6956 0.0
C2206 C 0.78815 0.15224 0.69542 0.0
C2207 C 0.77022 0.13257 0.69933 0.0
C2208 C 0.75044 0.13097 0.70327 0.0
H2209 H 0.74008 0.17147 0.74669 0.0
H2210 H 0.75425 0.16056 0.7359 0.0
H2211 H 0.75579 0.18463 0.72909 0.0
H2212 H 0.76483 0.18293 0.69974 0.0
H2213 H 0.79959 0.18578 0.69297 0.0
H2214 H 0.9247 0.52225 0.73836 0.0
H2215 H 0.91478 0.54985 0.735 0.0
H2216 H 0.85304 0.50321 0.71532 0.0
H2217 H 0.86282 0.47572 0.71899 0.0
H2218 H 0.90597 0.56177 0.70614 0.0
H2219 H 0.83525 0.53458 0.74635 0.0
H2220 H 0.85354 0.52433 0.74771 0.0
H2221 H 0.83252 0.5143 0.73259 0.0
C2222 C 0.90885 0.51795 0.73371 0.0
C2223 C 0.89435 0.49703 0.72908 0.0
C2224 C 0.90321 0.53364 0.73174 0.0
C2225 C 0.88303 0.52853 0.72514 0.0
C2226 C 0.86844 0.50744 0.72083 0.0
H2227 H 0.82442 0.59634 0.68337 0.0
H2228 H 0.8339 0.56998 0.69224 0.0
C2229 C 0.87405 0.49179 0.72285 0.0
C2230 C 0.87794 0.54542 0.72129 0.0
H2231 H 0.83985 0.56016 0.72621 0.0
C2232 C 0.89166 0.56158 0.7107 0.0
C2233 C 0.8592 0.54507 0.72718 0.0
C2234 C 0.8444 0.52875 0.73921 0.0
C2235 C 0.88684 0.57704 0.70547 0.0
C2236 C 0.86789 0.57641 0.7111 0.0
C2237 C 0.85429 0.56046 0.72185 0.0
C2238 C 0.86201 0.59229 0.70595 0.0
C2239 C 0.9017 0.59363 0.69362 0.0
C2240 C 0.87458 0.61345 0.71088 0.0
C2241 C 0.86927 0.62854 0.70581 0.0
C2242 C 0.85129 0.62273 0.69569 0.0
C2243 C 0.83855 0.60141 0.69095 0.0
C2244 C 0.84385 0.5863 0.69608 0.0
H2245 H 0.91325 0.58949 0.68805 0.0
H2246 H 0.89228 0.59576 0.68383 0.0
H2247 H 0.91111 0.609 0.70004 0.0
H2248 H 0.88851 0.61829 0.71865 0.0
H2249 H 0.87938 0.64477 0.70978 0.0
H2250 H 0.48069 0.92119 0.25122 0.0
H2251 H 0.49343 0.93881 0.22503 0.0
H2252 H 0.42857 0.90442 0.20609 0.0
H2253 H 0.41574 0.88666 0.2321 0.0
H2254 H 0.49072 0.92211 0.19365 0.0
H2255 H 0.44603 0.9661 0.19696 0.0
H2256 H 0.44982 0.95332 0.21434 0.0
H2257 H 0.4295 0.93798 0.19946 0.0
C2258 C 0.46915 0.91724 0.24145 0.0
C2259 C 0.44712 0.90266 0.24388 0.0
C2260 C 0.47646 0.9274 0.22649 0.0
C2261 C 0.4619 0.92327 0.21367 0.0
C2262 C 0.44003 0.90829 0.2159 0.0
H2263 H 0.47492 0.97542 0.11634 0.0
H2264 H 0.46168 0.9538 0.14085 0.0
C2265 C 0.43272 0.89815 0.23082 0.0
C2266 C 0.46954 0.93461 0.19796 0.0
H2267 H 0.46354 0.968 0.17221 0.0
C2268 C 0.48483 0.93219 0.18898 0.0
C2269 C 0.46179 0.94771 0.19182 0.0
C2270 C 0.44603 0.95164 0.20118 0.0
C2271 C 0.49236 0.94229 0.17396 0.0
C2272 C 0.48471 0.95551 0.16787 0.0
C2273 C 0.46933 0.95781 0.17682 0.0
C2274 C 0.49296 0.96767 0.15254 0.0
C2275 C 0.50814 0.93839 0.16461 0.0
C2276 C 0.51494 0.98268 0.1509 0.0
C2277 C 0.52256 0.99496 0.13688 0.0
C2278 C 0.50835 0.99268 0.12418 0.0
C2279 C 0.48636 0.97744 0.12576 0.0
C2280 C 0.47874 0.96516 0.13983 0.0
H2281 H 0.50742 0.92343 0.16837 0.0
H2282 H 0.50499 0.93764 0.15138 0.0
H2283 H 0.52476 0.95157 0.16697 0.0
H2284 H 0.52619 0.98523 0.16062 0.0
H2285 H 0.53962 0.00636 0.13605 0.0
H2286 H 0.06364 0.5477 0.25549 0.0
H2287 H 0.04944 0.54562 0.22816 0.0
H2288 H 0.09739 0.53235 0.20887 0.0
H2289 H 0.11213 0.53494 0.23612 0.0
H2290 H 0.07227 0.56819 0.1975 0.0
H2291 H 0.03614 0.48055 0.19615 0.0
H2292 H 0.0439 0.49557 0.21482 0.0
H2293 H 0.06415 0.49598 0.20182 0.0
C2294 C 0.07152 0.54482 0.24543 0.0
C2295 C 0.08896 0.54134 0.24805 0.0
C2296 C 0.06328 0.54352 0.22982 0.0
C2297 C 0.07221 0.53858 0.21658 0.0
C2298 C 0.09012 0.53591 0.21901 0.0
H2299 H 0.02545 0.50167 0.11776 0.0
H2300 H 0.04627 0.5104 0.14291 0.0
C2301 C 0.09844 0.53731 0.23459 0.0
C2302 C 0.0621 0.5352 0.20036 0.0
H2303 H 0.03175 0.49652 0.17286 0.0
C2304 C 0.06344 0.55256 0.19205 0.0
C2305 C 0.0507 0.51478 0.19333 0.0
C2306 C 0.04843 0.49556 0.20197 0.0
C2307 C 0.05374 0.55005 0.17677 0.0
C2308 C 0.04191 0.52954 0.16985 0.0
C2309 C 0.04081 0.51223 0.17815 0.0
C2310 C 0.03014 0.52549 0.15422 0.0
C2311 C 0.05658 0.56945 0.16807 0.0
C2312 C 0.01406 0.53099 0.1522 0.0
C2313 C 1.00232 0.52628 0.13773 0.0
C2314 C 0.00617 0.51569 0.12503 0.0
C2315 C 0.02227 0.51015 0.12713 0.0
C2316 C 0.0341 0.51499 0.14157 0.0
H2317 H 0.07119 0.58402 0.1724 0.0
H2318 H 0.05788 0.56802 0.15478 0.0
H2319 H 0.0424 0.57138 0.17046 0.0
H2320 H 0.01034 0.53864 0.16191 0.0
H2321 H 0.99021 0.53097 0.13651 0.0
H2322 H 0.43349 0.54307 0.2357 0.0
H2323 H 0.43963 0.53045 0.20974 0.0
H2324 H 0.50426 0.54839 0.22503 0.0
H2325 H 0.49803 0.5603 0.25104 0.0
H2326 H 0.46989 0.55389 0.18679 0.0
H2327 H 0.48316 0.48933 0.20779 0.0
H2328 H 0.47134 0.50095 0.22055 0.0
H2329 H 0.50019 0.51371 0.21828 0.0
C2330 C 0.44883 0.54389 0.23365 0.0
C2331 C 0.46528 0.55274 0.24544 0.0
C2332 C 0.45238 0.53681 0.21877 0.0
C2333 C 0.47232 0.53822 0.21548 0.0
C2334 C 0.48859 0.54672 0.22736 0.0
H2335 H 0.54532 0.5304 0.13669 0.0
H2336 H 0.53091 0.53577 0.16191 0.0
C2337 C 0.48508 0.55377 0.24218 0.0
C2338 C 0.47679 0.53209 0.19936 0.0
H2339 H 0.49632 0.50293 0.1812 0.0
C2340 C 0.47533 0.54249 0.18552 0.0
C2341 C 0.48386 0.51718 0.19768 0.0
C2342 C 0.48452 0.50449 0.21185 0.0
C2343 C 0.48173 0.53913 0.17021 0.0
C2344 C 0.48962 0.52488 0.16869 0.0
C2345 C 0.49043 0.51398 0.18241 0.0
C2346 C 0.49808 0.52177 0.15313 0.0
C2347 C 0.48085 0.55148 0.15588 0.0
C2348 C 0.48438 0.51205 0.1398 0.0
C2349 C 0.49254 0.50874 0.12535 0.0
C2350 C 0.51458 0.51506 0.12396 0.0
C2351 C 0.52823 0.52498 0.13736 0.0
C2352 C 0.52004 0.52818 0.15178 0.0
H2353 H 0.47779 0.56441 0.15957 0.0
H2354 H 0.4962 0.55843 0.14901 0.0
H2355 H 0.46766 0.54064 0.14759 0.0
H2356 H 0.46731 0.5067 0.14066 0.0
H2357 H 0.48148 0.50078 0.1154 0.0
H2358 H 0.89657 0.42813 0.79467 0.0
H2359 H 0.91166 0.43872 0.822 0.0
H2360 H 0.96765 0.49315 0.80227 0.0
H2361 H 0.95211 0.48302 0.77504 0.0
H2362 H 0.94621 0.44013 0.83294 0.0
H2363 H 0.95711 0.52025 0.84034 0.0
H2364 H 0.94125 0.50277 0.82406 0.0
H2365 H 0.97018 0.5185 0.82239 0.0
C2366 C 0.91187 0.44261 0.79627 0.0
C2367 C 0.92316 0.45484 0.78281 0.0
C2368 C 0.92051 0.44864 0.81186 0.0
C2369 C 0.94072 0.46689 0.81428 0.0
C2370 C 0.95178 0.47937 0.80084 0.0
H2371 H 0.02813 0.48288 0.89243 0.0
H2372 H 0.00797 0.47543 0.86713 0.0
C2373 C 0.94295 0.47353 0.78526 0.0
C2374 C 0.95105 0.47166 0.83058 0.0
H2375 H 0.97759 0.51114 0.85847 0.0
C2376 C 0.95283 0.45561 0.83858 0.0
C2377 C 0.95946 0.49174 0.83813 0.0
C2378 C 0.95669 0.5092 0.83085 0.0
C2379 C 0.96324 0.4592 0.85364 0.0
C2380 C 0.97286 0.47966 0.86069 0.0
C2381 C 0.97054 0.49555 0.85296 0.0
C2382 C 0.98557 0.4849 0.87598 0.0
C2383 C 0.96352 0.4409 0.86192 0.0
C2384 C 0.98032 0.49356 0.88921 0.0
C2385 C 0.99223 0.49841 0.90362 0.0
C2386 C 0.00965 0.49464 0.90512 0.0
C2387 C 0.01499 0.48619 0.89174 0.0
C2388 C 0.00323 0.48159 0.87729 0.0
H2389 H 0.94982 0.42546 0.85784 0.0
H2390 H 0.97866 0.44103 0.85878 0.0
H2391 H 0.96273 0.44198 0.87529 0.0
H2392 H 0.96689 0.49647 0.88843 0.0
H2393 H 0.98789 0.50532 0.91351 0.0
H2394 H 0.55764 0.43733 0.79386 0.0
H2395 H 0.54258 0.44191 0.8192 0.0
H2396 H 0.55447 0.50301 0.80311 0.0
H2397 H 0.56931 0.49847 0.77771 0.0
H2398 H 0.56497 0.47667 0.84222 0.0
H2399 H 0.49017 0.47158 0.8176 0.0
H2400 H 0.5052 0.46167 0.80672 0.0
H2401 H 0.5146 0.48958 0.80723 0.0
C2402 C 0.55675 0.4516 0.79562 0.0
C2403 C 0.56463 0.46752 0.78375 0.0
C2404 C 0.54827 0.45425 0.81014 0.0
C2405 C 0.54724 0.47272 0.81298 0.0
C2406 C 0.55487 0.48853 0.8011 0.0
H2407 H 0.50509 0.52413 0.88994 0.0
H2408 H 0.5185 0.5167 0.86499 0.0
C2409 C 0.56349 0.48597 0.78664 0.0
C2410 C 0.53889 0.47585 0.82858 0.0
H2411 H 0.49904 0.48282 0.8449 0.0
C2412 C 0.55047 0.47787 0.84286 0.0
C2413 C 0.52004 0.47749 0.82935 0.0
C2414 C 0.50663 0.47481 0.81445 0.0
C2415 C 0.54404 0.48208 0.85785 0.0
C2416 C 0.52519 0.48381 0.85863 0.0
C2417 C 0.51349 0.48153 0.84433 0.0
C2418 C 0.51751 0.4884 0.87404 0.0
C2419 C 0.55792 0.48537 0.87258 0.0
C2420 C 0.51238 0.47493 0.88747 0.0
C2421 C 0.50478 0.47921 0.9018 0.0
C2422 C 0.50186 0.49688 0.90292 0.0
C2423 C 0.50694 0.51028 0.88944 0.0
C2424 C 0.51467 0.50608 0.87517 0.0
H2425 H 0.57455 0.48937 0.86919 0.0
H2426 H 0.55889 0.49821 0.88044 0.0
H2427 H 0.55075 0.47054 0.87973 0.0
H2428 H 0.51391 0.4609 0.88679 0.0
H2429 H 0.5007 0.4684 0.91187 0.0
H2430 H 0.57725 0.11972 0.79014 0.0
H2431 H 0.57181 0.10188 0.81635 0.0
H2432 H 0.50626 0.05703 0.8027 0.0
H2433 H 0.51173 0.07423 0.77647 0.0
H2434 H 0.54255 0.09631 0.84043 0.0
H2435 H 0.52757 0.01825 0.81871 0.0
H2436 H 0.53913 0.04138 0.80595 0.0
H2437 H 0.51039 0.02622 0.80888 0.0
C2438 C 0.56181 0.10581 0.79262 0.0
C2439 C 0.54493 0.09844 0.78117 0.0
C2440 C 0.55868 0.09572 0.80765 0.0
C2441 C 0.5387 0.07793 0.81147 0.0
C2442 C 0.52195 0.07045 0.79998 0.0
H2443 H 0.46972 0.99762 0.89103 0.0
H2444 H 0.48278 0.01773 0.86599 0.0
C2445 C 0.52504 0.08049 0.78502 0.0
C2446 C 0.53485 0.06758 0.82764 0.0
H2447 H 0.51607 0.01943 0.84577 0.0
C2448 C 0.53707 0.07956 0.84163 0.0
C2449 C 0.52775 0.04573 0.82926 0.0
C2450 C 0.52628 0.03219 0.81492 0.0
C2451 C 0.5314 0.07009 0.85704 0.0
C2452 C 0.52352 0.04809 0.85853 0.0
C2453 C 0.52195 0.03626 0.84462 0.0
C2454 C 0.51578 0.03675 0.87422 0.0
C2455 C 0.53305 0.08349 0.87152 0.0
C2456 C 0.52996 0.04078 0.8873 0.0
C2457 C 0.52255 0.02913 0.90169 0.0
C2458 C 0.50081 0.01312 0.90326 0.0
C2459 C 0.48663 0.00951 0.89021 0.0
C2460 C 0.49405 0.02108 0.87587 0.0
H2461 H 0.53564 0.09927 0.86793 0.0
H2462 H 0.51821 0.07538 0.87896 0.0
H2463 H 0.54687 0.08595 0.87921 0.0
H2464 H 0.54687 0.05259 0.88625 0.0
H2465 H 0.534 0.03221 0.91138 0.0
H2466 H 0.12256 0.21595 0.56946 0.0
H2467 H 0.13487 0.23339 0.54319 0.0
H2468 H 0.12659 0.285 0.55991 0.0
H2469 H 0.11355 0.26721 0.58594 0.0
H2470 H 0.11063 0.27408 0.53083 0.0
H2471 H 0.1916 0.28173 0.53017 0.0
H2472 H 0.17041 0.25478 0.53219 0.0
H2473 H 0.1749 0.27367 0.54799 0.0
C2474 C 0.12364 0.23115 0.56758 0.0
C2475 C 0.11716 0.24024 0.5798 0.0
C2476 C 0.13078 0.24118 0.55255 0.0
C2477 C 0.13207 0.26077 0.54954 0.0
C2478 C 0.12579 0.26993 0.56184 0.0
H2479 H 0.20248 0.34862 0.47256 0.0
H2480 H 0.18995 0.32808 0.49735 0.0
C2481 C 0.11835 0.25976 0.57675 0.0
C2482 C 0.13914 0.27143 0.53345 0.0
H2483 H 0.17985 0.28978 0.50563 0.0
C2484 C 0.12581 0.27755 0.52537 0.0
C2485 C 0.15906 0.27622 0.52629 0.0
C2486 C 0.17492 0.27146 0.53468 0.0
C2487 C 0.1318 0.28835 0.51049 0.0
C2488 C 0.15141 0.29257 0.50309 0.0
C2489 C 0.16471 0.28637 0.51114 0.0
C2490 C 0.15906 0.30451 0.48753 0.0
C2491 C 0.11736 0.29579 0.50323 0.0
C2492 C 0.14616 0.298 0.47346 0.0
C2493 C 0.1531 0.31009 0.45925 0.0
C2494 C 0.1733 0.32884 0.45867 0.0
C2495 C 0.18658 0.33468 0.47257 0.0
C2496 C 0.17952 0.32277 0.48679 0.0
H2497 H 0.10662 0.29676 0.51246 0.0
H2498 H 0.12696 0.31159 0.49756 0.0
H2499 H 0.10697 0.28435 0.49378 0.0
H2500 H 0.13058 0.28365 0.47349 0.0
H2501 H 0.14235 0.305 0.44888 0.0
H2502 H 0.73909 0.83837 0.57936 0.0
H2503 H 0.72533 0.83754 0.55216 0.0
H2504 H 0.75742 0.90572 0.55191 0.0
H2505 H 0.77186 0.90681 0.57909 0.0
H2506 H 0.71217 0.88373 0.54237 0.0
H2507 H 0.76006 0.85518 0.50898 0.0
H2508 H 0.74686 0.84017 0.52677 0.0
H2509 H 0.76774 0.86737 0.5288 0.0
C2510 C 0.74362 0.85325 0.57346 0.0
C2511 C 0.75679 0.87268 0.5814 0.0
C2512 C 0.73567 0.85272 0.5579 0.0
C2513 C 0.74063 0.87157 0.54996 0.0
C2514 C 0.75353 0.89101 0.55784 0.0
H2515 H 0.70483 0.8749 0.44872 0.0
H2516 H 0.72524 0.88267 0.47412 0.0
C2517 C 0.76165 0.89158 0.5734 0.0
C2518 C 0.73149 0.87073 0.53368 0.0
H2519 H 0.72974 0.85305 0.49505 0.0
C2520 C 0.71618 0.87726 0.53197 0.0
C2521 C 0.73692 0.86247 0.52011 0.0
C2522 C 0.75394 0.85606 0.52115 0.0
C2523 C 0.70544 0.87488 0.51718 0.0
C2524 C 0.71009 0.86563 0.50384 0.0
C2525 C 0.72608 0.85996 0.50535 0.0
C2526 C 0.69784 0.86089 0.48844 0.0
C2527 C 0.68906 0.8821 0.51596 0.0
C2528 C 0.6758 0.84578 0.48806 0.0
C2529 C 0.66415 0.8411 0.47357 0.0
C2530 C 0.67431 0.85147 0.45914 0.0
C2531 C 0.69652 0.86645 0.45955 0.0
C2532 C 0.70819 0.87103 0.47406 0.0
H2533 H 0.6912 0.89346 0.52577 0.0
H2534 H 0.69017 0.88968 0.50408 0.0
H2535 H 0.67261 0.86815 0.51701 0.0
H2536 H 0.66762 0.83746 0.49898 0.0
H2537 H 0.6472 0.82917 0.47366 0.0
H2538 H 0.16121 0.88803 0.58575 0.0
H2539 H 0.16796 0.87691 0.55942 0.0
H2540 H 0.10785 0.86905 0.54121 0.0
H2541 H 0.10097 0.88019 0.5676 0.0
H2542 H 0.13907 0.83733 0.53932 0.0
H2543 H 0.159 0.91446 0.51133 0.0
H2544 H 0.16 0.91144 0.53297 0.0
H2545 H 0.13445 0.90069 0.52284 0.0
C2546 C 0.14932 0.88371 0.57618 0.0
C2547 C 0.13061 0.88508 0.5787 0.0
C2548 C 0.15317 0.87731 0.56118 0.0
C2549 C 0.13851 0.87236 0.54835 0.0
C2550 C 0.11941 0.87292 0.55096 0.0
H2551 H 0.1499 0.8297 0.45086 0.0
H2552 H 0.13503 0.83509 0.47607 0.0
C2553 C 0.11544 0.87914 0.56605 0.0
C2554 C 0.14391 0.86772 0.53206 0.0
H2555 H 0.16255 0.88994 0.49493 0.0
C2556 C 0.14395 0.84869 0.52954 0.0
C2557 C 0.15048 0.8827 0.5194 0.0
C2558 C 0.15115 0.90356 0.52166 0.0
C2559 C 0.15056 0.84434 0.51469 0.0
C2560 C 0.15741 0.85944 0.50213 0.0
C2561 C 0.15716 0.87836 0.50458 0.0
C2562 C 0.16616 0.8564 0.48674 0.0
C2563 C 0.15081 0.82391 0.51257 0.0
C2564 C 0.18854 0.86676 0.48438 0.0
C2565 C 0.19706 0.86368 0.47008 0.0
C2566 C 0.18335 0.8503 0.45776 0.0
C2567 C 0.16088 0.84022 0.46006 0.0
C2568 C 0.15236 0.84318 0.47447 0.0
H2569 H 0.14598 0.81423 0.52378 0.0
H2570 H 0.13957 0.81446 0.50265 0.0
H2571 H 0.16721 0.82735 0.50904 0.0
H2572 H 0.19943 0.8771 0.4937 0.0
H2573 H 0.21442 0.87189 0.46861 0.0
H2574 H 0.61593 0.77611 0.11348 0.0
H2575 H 0.63184 0.78784 0.14033 0.0
H2576 H 0.59413 0.81838 0.14754 0.0
H2577 H 0.57757 0.80614 0.12066 0.0
H2578 H 0.65563 0.82939 0.15263 0.0
H2579 H 0.58059 0.78038 0.18787 0.0
H2580 H 0.58278 0.77548 0.1667 0.0
H2581 H 0.57946 0.79738 0.17263 0.0
C2582 C 0.61081 0.78513 0.12082 0.0
C2583 C 0.59525 0.78993 0.11502 0.0
C2584 C 0.62005 0.79196 0.13612 0.0
C2585 C 0.61396 0.80372 0.14602 0.0
C2586 C 0.59879 0.80901 0.14019 0.0
H2587 H 0.65916 0.84364 0.2462 0.0
H2588 H 0.64103 0.83919 0.22003 0.0
C2589 C 0.58951 0.80218 0.12479 0.0
C2590 C 0.62372 0.81032 0.16238 0.0
H2591 H 0.61261 0.80083 0.20272 0.0
C2592 C 0.6462 0.82331 0.16359 0.0
C2593 C 0.61137 0.80244 0.17666 0.0
C2594 C 0.58722 0.78803 0.17602 0.0
C2595 C 0.65673 0.8282 0.17867 0.0
C2596 C 0.64449 0.81958 0.19289 0.0
C2597 C 0.62193 0.80733 0.19177 0.0
C2598 C 0.65501 0.82198 0.20886 0.0
C2599 C 0.68092 0.84237 0.17924 0.0
C2600 C 0.66846 0.81335 0.21134 0.0
C2601 C 0.67868 0.8157 0.22626 0.0
C2602 C 0.67564 0.82671 0.23906 0.0
C2603 C 0.66175 0.83495 0.23665 0.0
C2604 C 0.65147 0.83253 0.22168 0.0
H2605 H 0.68703 0.85232 0.16822 0.0
H2606 H 0.68597 0.85288 0.19006 0.0
H2607 H 0.68863 0.83243 0.17994 0.0
H2608 H 0.671 0.80471 0.20172 0.0
H2609 H 0.68885 0.80873 0.22779 0.0
H2610 H 0.2007 0.78799 0.10952 0.0
H2611 H 0.18656 0.79227 0.1354 0.0
H2612 H 0.25071 0.82278 0.15578 0.0
H2613 H 0.26495 0.81842 0.13009 0.0
H2614 H 0.18889 0.77782 0.16674 0.0
H2615 H 0.2306 0.86561 0.16466 0.0
H2616 H 0.22797 0.84964 0.14711 0.0
H2617 H 0.2481 0.85473 0.16228 0.0
C2618 C 0.21179 0.79547 0.11954 0.0
C2619 C 0.23402 0.80306 0.11764 0.0
C2620 C 0.20368 0.79798 0.13431 0.0
C2621 C 0.21763 0.80819 0.14744 0.0
C2622 C 0.23972 0.81532 0.14571 0.0
H2623 H 0.20128 0.8433 0.24513 0.0
H2624 H 0.21516 0.83637 0.22016 0.0
C2625 C 0.24783 0.81283 0.13098 0.0
C2626 C 0.20911 0.81133 0.16298 0.0
H2627 H 0.21282 0.84945 0.18912 0.0
C2628 C 0.19404 0.79347 0.17161 0.0
C2629 C 0.2159 0.83177 0.16935 0.0
C2630 C 0.23138 0.85156 0.16033 0.0
C2631 C 0.18586 0.7955 0.18657 0.0
C2632 C 0.19262 0.81595 0.19292 0.0
C2633 C 0.2077 0.83379 0.18429 0.0
C2634 C 0.18399 0.81925 0.20836 0.0
C2635 C 0.1704 0.77571 0.1956 0.0
C2636 C 0.16186 0.81201 0.21003 0.0
C2637 C 0.15386 0.81583 0.22432 0.0
C2638 C 0.16784 0.82713 0.23725 0.0
C2639 C 0.19001 0.83431 0.23554 0.0
C2640 C 0.198 0.83048 0.22123 0.0
H2641 H 0.17159 0.76179 0.19151 0.0
H2642 H 0.17348 0.77778 0.20885 0.0
H2643 H 0.15364 0.77222 0.19332 0.0
H2644 H 0.15078 0.80366 0.20018 0.0
H2645 H 0.13668 0.80989 0.22524 0.0
H2646 H 0.17834 0.40865 0.11063 0.0
H2647 H 0.17274 0.39169 0.137 0.0
H2648 H 0.23843 0.43634 0.15048 0.0
H2649 H 0.24395 0.45396 0.12422 0.0
H2650 H 0.19259 0.3724 0.15172 0.0
H2651 H 0.20507 0.44182 0.18825 0.0
H2652 H 0.20164 0.44063 0.16654 0.0
H2653 H 0.2271 0.4465 0.17525 0.0
C2654 C 0.19159 0.41501 0.11922 0.0
C2655 C 0.21153 0.43289 0.11532 0.0
C2656 C 0.18839 0.40519 0.13429 0.0
C2657 C 0.205 0.41295 0.14591 0.0
C2658 C 0.22519 0.43033 0.14189 0.0
H2659 H 0.20028 0.36555 0.24502 0.0
H2660 H 0.21291 0.38579 0.21977 0.0
C2661 C 0.22842 0.44022 0.12677 0.0
C2662 C 0.20092 0.40266 0.16213 0.0
H2663 H 0.19805 0.4111 0.20265 0.0
C2664 C 0.19388 0.38091 0.16285 0.0
C2665 C 0.20265 0.41374 0.17671 0.0
C2666 C 0.20935 0.43692 0.17673 0.0
C2667 C 0.18831 0.36993 0.17762 0.0
C2668 C 0.1895 0.38087 0.19213 0.0
C2669 C 0.19713 0.40273 0.19153 0.0
C2670 C 0.18179 0.36956 0.20784 0.0
C2671 C 0.18114 0.34663 0.17759 0.0
C2672 C 0.15999 0.35418 0.20972 0.0
C2673 C 0.1527 0.34276 0.22412 0.0
C2674 C 0.16703 0.34637 0.23707 0.0
C2675 C 0.18876 0.36237 0.23537 0.0
C2676 C 0.19604 0.37388 0.22091 0.0
H2677 H 0.18652 0.34194 0.1665 0.0
H2678 H 0.18749 0.3424 0.18837 0.0
H2679 H 0.16326 0.33732 0.17795 0.0
H2680 H 0.14858 0.35091 0.19995 0.0
H2681 H 0.13577 0.33098 0.22509 0.0
H2682 H 0.81551 0.59165 0.92044 0.0
H2683 H 0.82787 0.60805 0.89382 0.0
H2684 H 0.76352 0.56986 0.87467 0.0
H2685 H 0.75108 0.55325 0.90111 0.0
H2686 H 0.82621 0.59017 0.86273 0.0
H2687 H 0.77786 0.6306 0.8641 0.0
H2688 H 0.78262 0.61923 0.88194 0.0
H2689 H 0.76267 0.6025 0.8673 0.0
C2690 C 0.80402 0.58653 0.91052 0.0
C2691 C 0.78222 0.57125 0.91303 0.0
C2692 C 0.81111 0.59601 0.89532 0.0
C2693 C 0.79655 0.5905 0.8823 0.0
C2694 C 0.77496 0.57476 0.8846 0.0
H2695 H 0.80854 0.64054 0.78417 0.0
H2696 H 0.7956 0.61915 0.80881 0.0
C2697 C 0.76787 0.56527 0.89977 0.0
C2698 C 0.80384 0.60139 0.86639 0.0
H2699 H 0.79632 0.63304 0.83979 0.0
C2700 C 0.81971 0.59958 0.85772 0.0
C2701 C 0.7953 0.6136 0.8598 0.0
C2702 C 0.7788 0.61681 0.86879 0.0
C2703 C 0.82708 0.60943 0.84259 0.0
C2704 C 0.8187 0.62184 0.83608 0.0
C2705 C 0.80271 0.6235 0.84471 0.0
C2706 C 0.82681 0.63387 0.82066 0.0
C2707 C 0.84349 0.60611 0.8336 0.0
C2708 C 0.84867 0.64929 0.81904 0.0
C2709 C 0.85613 0.66142 0.80494 0.0
C2710 C 0.84189 0.65862 0.79212 0.0
C2711 C 0.82003 0.64298 0.79368 0.0
C2712 C 0.81257 0.63083 0.80782 0.0
H2713 H 0.84322 0.59143 0.83756 0.0
H2714 H 0.84063 0.60518 0.82032 0.0
H2715 H 0.85987 0.61964 0.83611 0.0
H2716 H 0.85994 0.65228 0.82885 0.0
H2717 H 0.8731 0.67313 0.80414 0.0
H2718 H 0.40369 0.18564 0.91867 0.0
H2719 H 0.38296 0.1804 0.89373 0.0
H2720 H 0.43863 0.23271 0.87169 0.0
H2721 H 0.45917 0.23842 0.89681 0.0
H2722 H 0.40307 0.23349 0.86374 0.0
H2723 H 0.3888 0.1523 0.85389 0.0
H2724 H 0.37841 0.15504 0.87292 0.0
H2725 H 0.40703 0.1697 0.86925 0.0
C2726 C 0.41143 0.19605 0.90851 0.0
C2727 C 0.43305 0.21234 0.90961 0.0
C2728 C 0.39964 0.19297 0.89424 0.0
C2729 C 0.4094 0.20579 0.88067 0.0
C2730 C 0.43079 0.22253 0.88195 0.0
H2731 H 0.35984 0.16939 0.78273 0.0
H2732 H 0.38089 0.17846 0.8077 0.0
C2733 C 0.44249 0.22581 0.89631 0.0
C2734 C 0.39745 0.20162 0.86509 0.0
H2735 H 0.36931 0.16315 0.83683 0.0
C2736 C 0.39576 0.21813 0.85781 0.0
C2737 C 0.38827 0.18171 0.85718 0.0
C2738 C 0.3909 0.16375 0.86362 0.0
C2739 C 0.3849 0.2152 0.84299 0.0
C2740 C 0.37485 0.19499 0.83547 0.0
C2741 C 0.37679 0.17858 0.84266 0.0
C2742 C 0.36254 0.19051 0.82003 0.0
C2743 C 0.38481 0.23395 0.83537 0.0
C2744 C 0.34513 0.19419 0.81858 0.0
C2745 C 0.33333 0.18948 0.80413 0.0
C2746 C 0.3384 0.18056 0.79088 0.0
C2747 C 0.3557 0.17665 0.79248 0.0
C2748 C 0.36766 0.18163 0.80685 0.0
H2749 H 0.39855 0.24915 0.83979 0.0
H2750 H 0.38567 0.23347 0.82196 0.0
H2751 H 0.36969 0.23375 0.83868 0.0
H2752 H 0.34047 0.2005 0.82869 0.0
H2753 H 0.32029 0.19292 0.80336 0.0
H2754 H 0.78839 0.19206 0.91779 0.0
H2755 H 0.79604 0.18055 0.89186 0.0
H2756 H 0.81211 0.24069 0.87075 0.0
H2757 H 0.80489 0.25233 0.89659 0.0
H2758 H 0.78042 0.17658 0.86039 0.0
H2759 H 0.86686 0.23827 0.86338 0.0
H2760 H 0.84902 0.232 0.88044 0.0
H2761 H 0.8491 0.24894 0.86459 0.0
C2762 C 0.79329 0.20268 0.90754 0.0
C2763 C 0.79634 0.2232 0.90926 0.0
C2764 C 0.79772 0.19614 0.89276 0.0
C2765 C 0.8052 0.20997 0.87947 0.0
C2766 C 0.80699 0.22998 0.88094 0.0
H2767 H 0.84869 0.20757 0.78187 0.0
H2768 H 0.83527 0.21524 0.80679 0.0
C2769 C 0.80277 0.23658 0.8957 0.0
C2770 C 0.81182 0.2039 0.86423 0.0
H2771 H 0.85442 0.21951 0.83848 0.0
C2772 C 0.79663 0.18588 0.85564 0.0
C2773 C 0.83303 0.21599 0.85807 0.0
C2774 C 0.85051 0.23475 0.86717 0.0
C2775 C 0.80193 0.17998 0.84086 0.0
C2776 C 0.82301 0.19231 0.8346 0.0
C2777 C 0.83822 0.21019 0.84324 0.0
C2778 C 0.82979 0.18688 0.81918 0.0
C2779 C 0.78486 0.16085 0.83187 0.0
C2780 C 0.83121 0.16842 0.8179 0.0
C2781 C 0.83892 0.16402 0.8037 0.0
C2782 C 0.84536 0.17801 0.79048 0.0
C2783 C 0.84365 0.19636 0.79175 0.0
C2784 C 0.83607 0.20081 0.80599 0.0
H2785 H 0.76841 0.15577 0.83646 0.0
H2786 H 0.78534 0.16417 0.81871 0.0
H2787 H 0.788 0.14751 0.83341 0.0
H2788 H 0.82675 0.1576 0.828 0.0
H2789 H 0.83987 0.14967 0.80307 0.0
H2790 H 0.23673 0.09115 0.46283 0.0
H2791 H 0.25465 0.10401 0.48893 0.0
H2792 H 0.29268 0.16676 0.46921 0.0
H2793 H 0.2754 0.15374 0.44274 0.0
H2794 H 0.31751 0.1546 0.48477 0.0
H2795 H 0.2489 0.13888 0.5242 0.0
H2796 H 0.2437 0.11556 0.51319 0.0
H2797 H 0.24693 0.1384 0.50238 0.0
C2798 C 0.24883 0.10773 0.46404 0.0
C2799 C 0.25475 0.12138 0.45065 0.0
C2800 C 0.25886 0.11513 0.47906 0.0
C2801 C 0.2748 0.13643 0.48113 0.0
C2802 C 0.28031 0.15028 0.46793 0.0
H2803 H 0.33207 0.18066 0.57774 0.0
H2804 H 0.31335 0.1769 0.55197 0.0
C2805 C 0.27031 0.14285 0.45283 0.0
C2806 C 0.28697 0.14361 0.49665 0.0
H2807 H 0.28052 0.14231 0.53768 0.0
C2808 C 0.30944 0.15221 0.49633 0.0
C2809 C 0.27655 0.14082 0.51174 0.0
C2810 C 0.25272 0.13313 0.5129 0.0
C2811 C 0.32161 0.15712 0.51068 0.0
C2812 C 0.31096 0.15284 0.52578 0.0
C2813 C 0.28865 0.14526 0.52611 0.0
C2814 C 0.32252 0.15539 0.54133 0.0
C2815 C 0.34577 0.1668 0.50949 0.0
C2816 C 0.3336 0.1443 0.54402 0.0
C2817 C 0.34432 0.14645 0.55868 0.0
C2818 C 0.34396 0.15953 0.57107 0.0
C2819 C 0.33255 0.17036 0.56847 0.0
C2820 C 0.32192 0.16829 0.55374 0.0
H2821 H 0.35194 0.17527 0.49784 0.0
H2822 H 0.35418 0.17807 0.5196 0.0
H2823 H 0.34992 0.15404 0.51002 0.0
H2824 H 0.33376 0.13375 0.53482 0.0
H2825 H 0.3526 0.13756 0.56042 0.0
H2826 H 0.86675 0.12117 0.44235 0.0
H2827 H 0.85268 0.12532 0.4683 0.0
H2828 H 0.91653 0.15371 0.48908 0.0
H2829 H 0.93069 0.14945 0.4633 0.0
H2830 H 0.85438 0.11011 0.49975 0.0
H2831 H 0.89803 0.19799 0.49776 0.0
H2832 H 0.89488 0.1819 0.48018 0.0
H2833 H 0.91485 0.18636 0.49531 0.0
C2834 C 0.87777 0.12811 0.45248 0.0
C2835 C 0.8999 0.13518 0.45067 0.0
C2836 C 0.86971 0.13055 0.46728 0.0
C2837 C 0.88362 0.14018 0.48053 0.0
C2838 C 0.90559 0.14669 0.47891 0.0
H2839 H 0.86787 0.1763 0.57793 0.0
H2840 H 0.88149 0.16885 0.55306 0.0
C2841 C 0.91365 0.14426 0.46414 0.0
C2842 C 0.87523 0.14353 0.49603 0.0
H2843 H 0.87968 0.18204 0.52207 0.0
C2844 C 0.85983 0.12582 0.50461 0.0
C2845 C 0.88242 0.16405 0.50238 0.0
C2846 C 0.89831 0.1837 0.49339 0.0
C2847 C 0.85169 0.12808 0.51952 0.0
C2848 C 0.85884 0.14862 0.52584 0.0
C2849 C 0.87426 0.16631 0.51725 0.0
C2850 C 0.85032 0.15219 0.54121 0.0
C2851 C 0.83587 0.10843 0.52852 0.0
C2852 C 0.82828 0.14538 0.54281 0.0
C2853 C 0.82041 0.14948 0.55705 0.0
C2854 C 0.83445 0.16064 0.56998 0.0
C2855 C 0.85654 0.16741 0.56833 0.0
C2856 C 0.86439 0.16329 0.55408 0.0
H2857 H 0.83673 0.09431 0.52449 0.0
H2858 H 0.83885 0.11046 0.54179 0.0
H2859 H 0.81925 0.10528 0.52615 0.0
H2860 H 0.81716 0.13716 0.53295 0.0
H2861 H 0.80329 0.14386 0.55793 0.0
H2862 H 0.88605 0.74525 0.44247 0.0
H2863 H 0.87856 0.72731 0.46879 0.0
H2864 H 0.86903 0.77622 0.48989 0.0
H2865 H 0.87555 0.79356 0.46352 0.0
H2866 H 0.89544 0.73655 0.49834 0.0
H2867 H 0.81319 0.72552 0.50152 0.0
H2868 H 0.82948 0.7351 0.48356 0.0
H2869 H 0.83343 0.7529 0.50009 0.0
C2870 C 0.88252 0.75221 0.45279 0.0
C2871 C 0.88113 0.77064 0.45093 0.0
C2872 C 0.8782 0.74195 0.46783 0.0
C2873 C 0.87259 0.75004 0.4813 0.0
C2874 C 0.87252 0.76919 0.47962 0.0
H2875 H 0.86563 0.70235 0.58049 0.0
H2876 H 0.87705 0.72395 0.55598 0.0
C2877 C 0.87645 0.7792 0.46457 0.0
C2878 C 0.86629 0.73824 0.49697 0.0
H2879 H 0.82628 0.71749 0.52533 0.0
C2880 C 0.88028 0.73232 0.50421 0.0
C2881 C 0.84633 0.73236 0.50458 0.0
C2882 C 0.82965 0.73659 0.49696 0.0
C2883 C 0.87498 0.72087 0.51882 0.0
C2884 C 0.85539 0.71571 0.52674 0.0
C2885 C 0.84141 0.7216 0.51945 0.0
C2886 C 0.84839 0.70319 0.54208 0.0
C2887 C 0.89014 0.71383 0.52528 0.0
C2888 C 0.82801 0.68483 0.54285 0.0
C2889 C 0.82114 0.6728 0.55701 0.0
C2890 C 0.83454 0.67861 0.57084 0.0
C2891 C 0.85478 0.69731 0.57018 0.0
C2892 C 0.86153 0.70953 0.55602 0.0
H2893 H 0.90078 0.71355 0.51563 0.0
H2894 H 0.90061 0.72513 0.53478 0.0
H2895 H 0.88111 0.69781 0.53071 0.0
H2896 H 0.81738 0.67963 0.53239 0.0
H2897 H 0.80521 0.6589 0.55708 0.0
loop_
_geom_bond_atom_site_label_1
_geom_bond_atom_site_label_2
_geom_bond_distance
_geom_bond_site_symmetry_2
_ccdc_geom_bond_type
H0 C3 0.929 . S
H1 C6 0.929 . S
H2 C8 0.930 . S
C3 H0 0.929 . S
C3 C4 1.398 . S
C3 C5 1.396 . S
C4 C3 1.398 . S
C4 C8 1.407 . S
C5 C3 1.396 . S
C5 C6 1.394 . S
C6 H1 0.929 . S
C6 C5 1.394 . S
C6 C7 1.382 . S
C7 C6 1.382 . S
C7 C8 1.392 . S
C7 N9 1.420 . S
C8 H2 0.930 . S
C8 C4 1.407 . S
C8 C7 1.392 . S
N9 C7 1.420 . S
N9 C10 1.244 . S
C10 N9 1.244 . S
H11 C14 0.929 . S
H12 C17 0.929 . S
H13 C19 0.930 . S
C14 H11 0.929 . S
C14 C15 1.398 . S
C14 C16 1.396 . S
C15 C14 1.398 . S
C15 C19 1.407 . S
C16 C14 1.396 . S
C16 C17 1.394 . S
C17 H12 0.929 . S
C17 C16 1.394 . S
C17 C18 1.382 . S
C18 C17 1.382 . S
C18 C19 1.392 . S
C18 N20 1.420 . S
C19 H13 0.930 . S
C19 C15 1.407 . S
C19 C18 1.392 . S
N20 C18 1.420 . S
N20 C21 1.244 . S
C21 N20 1.244 . S
H22 C25 0.929 . S
H23 C28 0.929 . S
H24 C30 0.930 . S
C25 H22 0.929 . S
C25 C26 1.398 . S
C25 C27 1.396 . S
C26 C25 1.398 . S
C26 C30 1.407 . S
C27 C25 1.396 . S
C27 C28 1.394 . S
C28 H23 0.929 . S
C28 C27 1.394 . S
C28 C29 1.382 . S
C29 C28 1.382 . S
C29 C30 1.392 . S
C29 N31 1.420 . S
C30 H24 0.930 . S
C30 C26 1.407 . S
C30 C29 1.392 . S
N31 C29 1.420 . S
N31 C32 1.244 . S
C32 N31 1.244 . S
H33 C36 0.929 . S
H34 C39 0.929 . S
H35 C41 0.930 . S
C36 H33 0.929 . S
C36 C37 1.398 . S
C36 C38 1.396 . S
C37 C36 1.398 . S
C37 C41 1.407 . S
C38 C36 1.396 . S
C38 C39 1.394 . S
C39 H34 0.929 . S
C39 C38 1.394 . S
C39 C40 1.382 . S
C40 C39 1.382 . S
C40 C41 1.392 . S
C40 N42 1.420 . S
C41 H35 0.930 . S
C41 C37 1.407 . S
C41 C40 1.392 . S
N42 C40 1.420 . S
N42 C43 1.244 . S
C43 N42 1.244 . S
H44 C47 0.929 . S
H45 C50 0.929 . S
H46 C52 0.930 . S
C47 H44 0.929 . S
C47 C48 1.398 . S
C47 C49 1.396 . S
C48 C47 1.398 . S
C48 C52 1.407 . S
C49 C47 1.396 . S
C49 C50 1.394 . S
C50 H45 0.929 . S
C50 C49 1.394 . S
C50 C51 1.382 . S
C51 C50 1.382 . S
C51 C52 1.392 . S
C51 N53 1.420 . S
C52 H46 0.930 . S
C52 C48 1.407 . S
C52 C51 1.392 . S
N53 C51 1.420 . S
N53 C54 1.244 . S
C54 N53 1.244 . S
H55 C58 0.929 . S
H56 C61 0.929 . S
H57 C63 0.930 . S
C58 H55 0.929 . S
C58 C59 1.398 . S
C58 C60 1.396 . S
C59 C58 1.398 . S
C59 C63 1.407 . S
C60 C58 1.396 . S
C60 C61 1.394 . S
C61 H56 0.929 . S
C61 C60 1.394 . S
C61 C62 1.382 . S
C62 C61 1.382 . S
C62 C63 1.392 . S
C62 N64 1.420 . S
C63 H57 0.930 . S
C63 C59 1.407 . S
C63 C62 1.392 . S
N64 C62 1.420 . S
N64 C65 1.244 . S
C65 N64 1.244 . S
H66 C69 0.929 . S
H67 C72 0.929 . S
H68 C74 0.930 . S
C69 H66 0.929 . S
C69 C70 1.398 . S
C69 C71 1.396 . S
C70 C69 1.398 . S
C70 C74 1.407 . S
C71 C69 1.396 . S
C71 C72 1.394 . S
C72 H67 0.929 . S
C72 C71 1.394 . S
C72 C73 1.382 . S
C73 C72 1.382 . S
C73 C74 1.392 . S
C73 N75 1.420 . S
C74 H68 0.930 . S
C74 C70 1.407 . S
C74 C73 1.392 . S
N75 C73 1.420 . S
N75 C76 1.244 . S
C76 N75 1.244 . S
H77 C80 0.929 . S
H78 C83 0.929 . S
H79 C85 0.930 . S
C80 H77 0.929 . S
C80 C81 1.398 . S
C80 C82 1.396 . S
C81 C80 1.398 . S
C81 C85 1.407 . S
C82 C80 1.396 . S
C82 C83 1.394 . S
C83 H78 0.929 . S
C83 C82 1.394 . S
C83 C84 1.382 . S
C84 C83 1.382 . S
C84 C85 1.392 . S
C84 N86 1.420 . S
C85 H79 0.930 . S
C85 C81 1.407 . S
C85 C84 1.392 . S
N86 C84 1.420 . S
N86 C87 1.244 . S
C87 N86 1.244 . S
H88 C91 0.929 . S
H89 C94 0.929 . S
H90 C96 0.930 . S
C91 H88 0.929 . S
C91 C92 1.398 . S
C91 C93 1.396 . S
C92 C91 1.398 . S
C92 C96 1.407 . S
C93 C91 1.396 . S
C93 C94 1.394 . S
C94 H89 0.929 . S
C94 C93 1.394 . S
C94 C95 1.382 . S
C95 C94 1.382 . S
C95 C96 1.392 . S
C95 N97 1.420 . S
C96 H90 0.930 . S
C96 C92 1.407 . S
C96 C95 1.392 . S
N97 C95 1.420 . S
N97 C98 1.244 . S
C98 N97 1.244 . S
H99 C102 0.929 . S
H100 C105 0.929 . S
H101 C107 0.930 . S
C102 H99 0.929 . S
C102 C103 1.398 . S
C102 C104 1.396 . S
C103 C102 1.398 . S
C103 C107 1.407 . S
C104 C102 1.396 . S
C104 C105 1.394 . S
C105 H100 0.929 . S
C105 C104 1.394 . S
C105 C106 1.382 . S
C106 C105 1.382 . S
C106 C107 1.392 . S
C106 N108 1.420 . S
C107 H101 0.930 . S
C107 C103 1.407 . S
C107 C106 1.392 . S
N108 C106 1.420 . S
N108 C109 1.244 . S
C109 N108 1.244 . S
H110 C113 0.929 . S
H111 C116 0.929 . S
H112 C118 0.930 . S
C113 H110 0.929 . S
C113 C114 1.398 . S
C113 C115 1.396 . S
C114 C113 1.398 . S
C114 C118 1.407 . S
C115 C113 1.396 . S
C115 C116 1.394 . S
C116 H111 0.929 . S
C116 C115 1.394 . S
C116 C117 1.382 . S
C117 C116 1.382 . S
C117 C118 1.392 . S
C117 N119 1.420 . S
C118 H112 0.930 . S
C118 C114 1.407 . S
C118 C117 1.392 . S
N119 C117 1.420 . S
N119 C120 1.244 . S
C120 N119 1.244 . S
H121 C124 0.929 . S
H122 C127 0.929 . S
H123 C129 0.930 . S
C124 H121 0.929 . S
C124 C125 1.398 . S
C124 C126 1.396 . S
C125 C124 1.398 . S
C125 C129 1.407 . S
C126 C124 1.396 . S
C126 C127 1.394 . S
C127 H122 0.929 . S
C127 C126 1.394 . S
C127 C128 1.382 . S
C128 C127 1.382 . S
C128 C129 1.392 . S
C128 N130 1.420 . S
C129 H123 0.930 . S
C129 C125 1.407 . S
C129 C128 1.392 . S
N130 C128 1.420 . S
N130 C131 1.244 . S
C131 N130 1.244 . S
H132 C135 0.929 . S
H133 C138 0.929 . S
H134 C140 0.930 . S
C135 H132 0.929 . S
C135 C136 1.398 . S
C135 C137 1.396 . S
C136 C135 1.398 . S
C136 C140 1.407 . S
C137 C135 1.396 . S
C137 C138 1.394 . S
C138 H133 0.929 . S
C138 C137 1.394 . S
C138 C139 1.382 . S
C139 C138 1.382 . S
C139 C140 1.392 . S
C139 N141 1.420 . S
C140 H134 0.930 . S
C140 C136 1.407 . S
C140 C139 1.392 . S
N141 C139 1.420 . S
N141 C142 1.244 . S
C142 N141 1.244 . S
H143 C146 0.929 . S
H144 C149 0.929 . S
H145 C151 0.930 . S
C146 H143 0.929 . S
C146 C147 1.398 . S
C146 C148 1.396 . S
C147 C146 1.398 . S
C147 C151 1.407 . S
C148 C146 1.396 . S
C148 C149 1.394 . S
C149 H144 0.929 . S
C149 C148 1.394 . S
C149 C150 1.382 . S
C150 C149 1.382 . S
C150 C151 1.392 . S
C150 N152 1.420 . S
C151 H145 0.930 . S
C151 C147 1.407 . S
C151 C150 1.392 . S
N152 C150 1.420 . S
N152 C153 1.244 . S
C153 N152 1.244 . S
H154 C157 0.929 . S
H155 C160 0.929 . S
H156 C162 0.930 . S
C157 H154 0.929 . S
C157 C158 1.398 . S
C157 C159 1.396 . S
C158 C157 1.398 . S
C158 C162 1.407 . S
C159 C157 1.396 . S
C159 C160 1.394 . S
C160 H155 0.929 . S
C160 C159 1.394 . S
C160 C161 1.382 . S
C161 C160 1.382 . S
C161 C162 1.392 . S
C161 N163 1.420 . S
C162 H156 0.930 . S
C162 C158 1.407 . S
C162 C161 1.392 . S
N163 C161 1.420 . S
N163 C164 1.244 . S
C164 N163 1.244 . S
H165 C168 0.929 . S
H166 C171 0.929 . S
H167 C173 0.930 . S
C168 H165 0.929 . S
C168 C169 1.398 . S
C168 C170 1.396 . S
C169 C168 1.398 . S
C169 C173 1.407 . S
C170 C168 1.396 . S
C170 C171 1.394 . S
C171 H166 0.929 . S
C171 C170 1.394 . S
C171 C172 1.382 . S
C172 C171 1.382 . S
C172 C173 1.392 . S
C172 N174 1.420 . S
C173 H167 0.930 . S
C173 C169 1.407 . S
C173 C172 1.392 . S
N174 C172 1.420 . S
N174 C175 1.244 . S
C175 N174 1.244 . S
H176 C179 0.929 . S
H177 C182 0.929 . S
H178 C184 0.930 . S
C179 H176 0.929 . S
C179 C180 1.398 . S
C179 C181 1.396 . S
C180 C179 1.398 . S
C180 C184 1.407 . S
C181 C179 1.396 . S
C181 C182 1.394 . S
C182 H177 0.929 . S
C182 C181 1.394 . S
C182 C183 1.382 . S
C183 C182 1.382 . S
C183 C184 1.392 . S
C183 N185 1.420 . S
C184 H178 0.930 . S
C184 C180 1.407 . S
C184 C183 1.392 . S
N185 C183 1.420 . S
N185 C186 1.244 . S
C186 N185 1.244 . S
H187 C190 0.929 . S
H188 C193 0.929 . S
H189 C195 0.930 . S
C190 H187 0.929 . S
C190 C191 1.398 . S
C190 C192 1.396 . S
C191 C190 1.398 . S
C191 C195 1.407 . S
C192 C190 1.396 . S
C192 C193 1.394 . S
C193 H188 0.929 . S
C193 C192 1.394 . S
C193 C194 1.382 . S
C194 C193 1.382 . S
C194 C195 1.392 . S
C194 N196 1.420 . S
C195 H189 0.930 . S
C195 C191 1.407 . S
C195 C194 1.392 . S
N196 C194 1.420 . S
N196 C197 1.244 . S
C197 N196 1.244 . S
Gd198 N229 2.661 . S
Gd198 N235 2.601 . S
Gd198 O242 2.545 . S
Gd198 O243 2.606 1_545 S
Gd198 O245 2.429 . S
Gd198 O246 2.545 1_545 S
Gd198 O247 2.412 1_545 S
Gd198 O249 2.362 . S
Gd198 O250 2.324 1_545 S
Gd198 C257 2.828 . S
Gd199 N208 2.661 . S
Gd199 N212 2.601 . S
Gd199 O243 2.362 1_556 S
Gd199 O244 2.324 1_565 S
Gd199 O248 2.545 . S
Gd199 O249 2.606 1_566 S
Gd199 O251 2.429 1_556 S
Gd199 O252 2.545 1_565 S
Gd199 O253 2.412 1_565 S
Gd199 C266 2.828 1_565 S
C200 C203 1.417 . S
C200 C205 1.431 . S
C200 C206 1.412 . S
C201 C204 1.437 . S
C201 C205 1.317 . S
C201 H220 0.929 . S
C202 C203 1.426 . S
C202 C204 1.413 . S
C202 N212 1.359 . S
C203 C200 1.417 . S
C203 C202 1.426 . S
C203 N208 1.350 . S
C204 C201 1.437 . S
C204 C202 1.413 . S
C204 C214 1.391 . S
C205 C200 1.431 . S
C205 C201 1.317 . S
C205 H216 0.930 . S
C206 C200 1.412 . S
C206 C207 1.355 . S
C206 H218 0.930 . S
C207 C206 1.355 . S
C207 C209 1.402 . S
C207 H219 0.930 . S
N208 Gd199 2.661 . S
N208 C203 1.350 . S
N208 C209 1.307 . S
C209 C207 1.402 . S
C209 N208 1.307 . S
C209 H210 0.948 . S
H210 C209 0.948 . S
C211 N212 1.334 . S
C211 C213 1.394 . S
C211 H215 0.930 . S
N212 Gd199 2.601 . S
N212 C202 1.359 . S
N212 C211 1.334 . S
C213 C211 1.394 . S
C213 C214 1.359 . S
C213 H225 0.930 . S
C214 C204 1.391 . S
C214 C213 1.359 . S
C214 H226 0.929 . S
H215 C211 0.930 . S
H216 C205 0.930 . S
H217 C234 0.930 . S
H218 C206 0.930 . S
H219 C207 0.930 . S
H220 C201 0.929 . S
H221 C239 0.930 . S
H222 C230 0.930 . S
H223 C231 0.930 . S
H224 C255 0.929 . S
H225 C213 0.930 . S
H226 C214 0.929 . S
H227 C256 0.930 . S
H228 C237 0.930 . S
N229 Gd198 2.661 . S
N229 C233 1.350 . S
N229 C234 1.307 . S
C230 H222 0.930 . S
C230 C231 1.355 . S
C230 C232 1.412 . S
C231 H223 0.930 . S
C231 C230 1.355 . S
C231 C234 1.402 . S
C232 C230 1.412 . S
C232 C233 1.417 . S
C232 C256 1.431 . S
C233 N229 1.350 . S
C233 C232 1.417 . S
C233 C236 1.426 . S
C234 H217 0.930 . S
C234 N229 1.307 . S
C234 C231 1.402 . S
N235 Gd198 2.601 . S
N235 C236 1.359 . S
N235 C239 1.334 . S
C236 C233 1.426 . S
C236 N235 1.359 . S
C236 C240 1.413 . S
C237 H228 0.930 . S
C237 C238 1.359 . S
C237 C239 1.394 . S
C238 C237 1.359 . S
C238 C240 1.391 . S
C238 H241 0.929 . S
C239 H221 0.930 . S
C239 N235 1.334 . S
C239 C237 1.394 . S
C240 C236 1.413 . S
C240 C238 1.391 . S
C240 C255 1.437 . S
H241 C238 0.929 . S
O242 Gd198 2.545 . S
O242 C257 1.258 . S
O243 Gd198 2.606 1_565 S
O243 Gd199 2.362 1_554 S
O243 C254 1.284 . S
O244 Gd199 2.324 1_545 S
O244 C264 1.254 1_556 S
O245 Gd198 2.429 . S
O245 C264 1.268 . S
O246 Gd198 2.545 1_565 S
O246 C254 1.250 . S
O247 Gd198 2.412 1_565 S
O247 C257 1.252 1_565 S
O248 Gd199 2.545 . S
O248 C266 1.258 1_565 S
O249 Gd198 2.362 . S
O249 Gd199 2.606 1_544 S
O249 C265 1.284 1_554 S
O250 Gd198 2.324 1_565 S
O250 C273 1.254 . S
O251 Gd199 2.429 1_554 S
O251 C273 1.268 . S
O252 Gd199 2.545 1_545 S
O252 C265 1.250 . S
O253 Gd199 2.412 1_545 S
O253 C266 1.252 . S
C254 O243 1.284 . S
C254 O246 1.250 . S
C255 H224 0.929 . S
C255 C240 1.437 . S
C255 C256 1.317 . S
C256 H227 0.930 . S
C256 C232 1.431 . S
C256 C255 1.317 . S
C257 Gd198 2.828 . S
C257 O242 1.258 . S
C257 O247 1.252 1_545 S
C257 C258 1.502 . S
C258 C257 1.502 . S
C258 C259 1.422 . S
C258 C260 1.348 1_545 S
C259 C258 1.422 . S
C259 C262 1.398 . S
C259 H274 0.930 . S
C260 C258 1.348 1_565 S
C260 C261 1.391 . S
C260 H275 0.930 . S
C261 C260 1.391 . S
C261 C263 1.387 . S
C262 C259 1.398 . S
C262 C263 1.380 1_545 S
C262 H276 0.930 . S
C263 C261 1.387 . S
C263 C262 1.380 1_565 S
C263 H277 0.930 . S
C264 O244 1.254 1_554 S
C264 O245 1.268 . S
C265 O249 1.284 1_556 S
C265 O252 1.250 . S
C266 Gd199 2.828 1_545 S
C266 O248 1.258 1_545 S
C266 O253 1.252 . S
C266 C267 1.497 . S
C267 C266 1.497 . S
C267 C268 1.395 1_545 S
C267 C269 1.380 . S
C268 C267 1.395 1_565 S
C268 C271 1.408 . S
C268 H278 0.930 . S
C269 C267 1.380 . S
C269 C270 1.391 . S
C269 H279 0.930 . S
C270 C269 1.391 . S
C270 C272 1.387 . S
C271 C268 1.408 . S
C271 C272 1.328 1_565 S
C271 H280 0.973 . S
C272 C270 1.387 . S
C272 C271 1.328 1_545 S
C272 H281 0.930 . S
C273 O250 1.254 . S
C273 O251 1.268 . S
H274 C259 0.930 . S
H275 C260 0.930 . S
H276 C262 0.930 . S
H277 C263 0.930 . S
H278 C268 0.930 . S
H279 C269 0.930 . S
H280 C271 0.973 . S
H281 C272 0.930 . S
Gd282 N313 2.661 . S
Gd282 N319 2.601 . S
Gd282 O326 2.545 . S
Gd282 O327 2.606 1_655 S
Gd282 O329 2.429 . S
Gd282 O330 2.545 1_655 S
Gd282 O331 2.412 1_655 S
Gd282 O333 2.362 . S
Gd282 O334 2.324 1_655 S
Gd282 C341 2.820 1_655 S
Gd283 N292 2.661 . S
Gd283 N296 2.601 . S
Gd283 O327 2.362 1_556 S
Gd283 O328 2.324 1_455 S
Gd283 O332 2.545 . S
Gd283 O333 2.606 1_456 S
Gd283 O335 2.429 1_556 S
Gd283 O336 2.545 1_455 S
Gd283 O337 2.419 . S
Gd283 C350 2.828 . S
C284 C287 1.417 . S
C284 C289 1.431 . S
C284 C290 1.412 . S
C285 C288 1.437 . S
C285 C289 1.317 . S
C285 H304 0.929 . S
C286 C287 1.426 . S
C286 C288 1.413 . S
C286 N296 1.359 . S
C287 C284 1.417 . S
C287 C286 1.426 . S
C287 N292 1.350 . S
C288 C285 1.437 . S
C288 C286 1.413 . S
C288 C298 1.391 . S
C289 C284 1.431 . S
C289 C285 1.317 . S
C289 H300 0.930 . S
C290 C284 1.412 . S
C290 C291 1.355 . S
C290 H302 0.930 . S
C291 C290 1.355 . S
C291 C293 1.402 . S
C291 H303 0.930 . S
N292 Gd283 2.661 . S
N292 C287 1.350 . S
N292 C293 1.307 . S
C293 C291 1.402 . S
C293 N292 1.307 . S
C293 H294 0.930 . S
H294 C293 0.930 . S
C295 N296 1.334 . S
C295 C297 1.394 . S
C295 H299 0.930 . S
N296 Gd283 2.601 . S
N296 C286 1.359 . S
N296 C295 1.334 . S
C297 C295 1.394 . S
C297 C298 1.359 . S
C297 H309 0.930 . S
C298 C288 1.391 . S
C298 C297 1.359 . S
C298 H310 0.929 . S
H299 C295 0.930 . S
H300 C289 0.930 . S
H301 C318 0.937 . S
H302 C290 0.930 . S
H303 C291 0.930 . S
H304 C285 0.929 . S
H305 C323 0.930 . S
H306 C314 0.930 . S
H307 C315 0.930 . S
H308 C339 0.929 . S
H309 C297 0.930 . S
H310 C298 0.929 . S
H311 C340 0.930 . S
H312 C321 0.930 . S
N313 Gd282 2.661 . S
N313 C317 1.350 . S
N313 C318 1.307 . S
C314 H306 0.930 . S
C314 C315 1.355 . S
C314 C316 1.412 . S
C315 H307 0.930 . S
C315 C314 1.355 . S
C315 C318 1.402 . S
C316 C314 1.412 . S
C316 C317 1.417 . S
C316 C340 1.431 . S
C317 N313 1.350 . S
C317 C316 1.417 . S
C317 C320 1.426 . S
C318 H301 0.937 . S
C318 N313 1.307 . S
C318 C315 1.402 . S
N319 Gd282 2.601 . S
N319 C320 1.359 . S
N319 C323 1.334 . S
C320 C317 1.426 . S
C320 N319 1.359 . S
C320 C324 1.413 . S
C321 H312 0.930 . S
C321 C322 1.359 . S
C321 C323 1.394 . S
C322 C321 1.359 . S
C322 C324 1.391 . S
C322 H325 0.929 . S
C323 H305 0.930 . S
C323 N319 1.334 . S
C323 C321 1.394 . S
C324 C320 1.413 . S
C324 C322 1.391 . S
C324 C339 1.437 . S
H325 C322 0.929 . S
O326 Gd282 2.545 . S
O326 C341 1.251 1_655 S
O327 Gd282 2.606 1_455 S
O327 Gd283 2.362 1_554 S
O327 C338 1.284 . S
O328 Gd283 2.324 1_655 S
O328 C348 1.254 1_556 S
O329 Gd282 2.429 . S
O329 C348 1.268 . S
O330 Gd282 2.545 1_455 S
O330 C338 1.250 . S
O331 Gd282 2.412 1_455 S
O331 C341 1.250 . S
O332 Gd283 2.545 . S
O332 C350 1.258 . S
O333 Gd282 2.362 . S
O333 Gd283 2.606 1_654 S
O333 C349 1.284 1_554 S
O334 Gd282 2.324 1_455 S
O334 C357 1.254 . S
O335 Gd283 2.429 1_554 S
O335 C357 1.268 . S
O336 Gd283 2.545 1_655 S
O336 C349 1.250 . S
O337 Gd283 2.419 . S
O337 C350 1.250 . S
C338 O327 1.284 . S
C338 O330 1.250 . S
C339 H308 0.929 . S
C339 C324 1.437 . S
C339 C340 1.317 . S
C340 H311 0.930 . S
C340 C316 1.431 . S
C340 C339 1.317 . S
C341 Gd282 2.820 1_455 S
C341 O326 1.251 1_455 S
C341 O331 1.250 . S
C341 C342 1.510 . S
C342 C341 1.510 . S
C342 C343 1.395 1_455 S
C342 C344 1.380 . S
C343 C342 1.395 1_655 S
C343 C346 1.398 . S
C343 H358 0.930 . S
C344 C342 1.380 . S
C344 C345 1.391 . S
C344 H359 0.930 . S
C345 C344 1.391 . S
C345 C347 1.387 . S
C346 C343 1.398 . S
C346 C347 1.380 1_655 S
C346 H360 0.930 . S
C347 C345 1.387 . S
C347 C346 1.380 1_455 S
C347 H361 0.930 . S
C348 O328 1.254 1_554 S
C348 O329 1.268 . S
C349 O333 1.284 1_556 S
C349 O336 1.250 . S
C350 Gd283 2.828 . S
C350 O332 1.258 . S
C350 O337 1.250 . S
C350 C351 1.497 . S
C351 C350 1.497 . S
C351 C352 1.395 . S
C351 C353 1.380 1_455 S
C352 C351 1.395 . S
C352 C355 1.398 . S
C352 H362 0.930 . S
C353 C351 1.380 1_655 S
C353 C354 1.391 . S
C353 H363 0.930 . S
C354 C353 1.391 . S
C354 C356 1.387 . S
C355 C352 1.398 . S
C355 C356 1.380 1_455 S
C355 H364 0.930 . S
C356 C354 1.387 . S
C356 C355 1.380 1_655 S
C356 H365 0.930 . S
C357 O334 1.254 . S
C357 O335 1.268 . S
H358 C343 0.930 . S
H359 C344 0.930 . S
H360 C346 0.930 . S
H361 C347 0.930 . S
H362 C352 0.930 . S
H363 C353 0.930 . S
H364 C355 0.930 . S
H365 C356 0.930 . S
Gd366 N397 2.661 . S
Gd366 N403 2.601 . S
Gd366 O410 2.545 . S
Gd366 O411 2.606 1_556 S
Gd366 O413 2.429 1_556 S
Gd366 O414 2.545 . S
Gd366 O415 2.412 . S
Gd366 O417 2.362 1_556 S
Gd366 O418 2.324 . S
Gd366 C425 2.828 . S
Gd367 N376 2.661 . S
Gd367 N380 2.601 . S
Gd367 O411 2.362 . S
Gd367 O412 2.324 . S
Gd367 O416 2.545 . S
Gd367 O417 2.606 . S
Gd367 O419 2.429 . S
Gd367 O420 2.545 . S
Gd367 O421 2.412 . S
Gd367 C434 2.828 . S
C368 C371 1.417 . S
C368 C373 1.431 . S
C368 C374 1.412 . S
C369 C372 1.437 . S
C369 C373 1.317 . S
C369 H388 0.929 . S
C370 C371 1.426 . S
C370 C372 1.413 . S
C370 N380 1.359 . S
C371 C368 1.417 . S
C371 C370 1.426 . S
C371 N376 1.350 . S
C372 C369 1.437 . S
C372 C370 1.413 . S
C372 C382 1.391 . S
C373 C368 1.431 . S
C373 C369 1.317 . S
C373 H384 0.930 . S
C374 C368 1.412 . S
C374 C375 1.355 . S
C374 H386 0.930 . S
C375 C374 1.355 . S
C375 C377 1.402 . S
C375 H387 0.930 . S
N376 Gd367 2.661 . S
N376 C371 1.350 . S
N376 C377 1.307 . S
C377 C375 1.402 . S
C377 N376 1.307 . S
C377 H378 0.930 . S
H378 C377 0.930 . S
C379 N380 1.334 . S
C379 C381 1.394 . S
C379 H383 0.930 . S
N380 Gd367 2.601 . S
N380 C370 1.359 . S
N380 C379 1.334 . S
C381 C379 1.394 . S
C381 C382 1.359 . S
C381 H393 0.930 . S
C382 C372 1.391 . S
C382 C381 1.359 . S
C382 H394 0.929 . S
H383 C379 0.930 . S
H384 C373 0.930 . S
H385 C402 0.930 . S
H386 C374 0.930 . S
H387 C375 0.930 . S
H388 C369 0.929 . S
H389 C407 0.930 . S
H390 C398 0.930 . S
H391 C399 0.930 . S
H392 C423 0.929 . S
H393 C381 0.930 . S
H394 C382 0.929 . S
H395 C424 0.930 . S
H396 C405 0.930 . S
N397 Gd366 2.661 . S
N397 C401 1.350 . S
N397 C402 1.307 . S
C398 H390 0.930 . S
C398 C399 1.355 . S
C398 C400 1.412 . S
C399 H391 0.930 . S
C399 C398 1.355 . S
C399 C402 1.402 . S
C400 C398 1.412 . S
C400 C401 1.417 . S
C400 C424 1.431 . S
C401 N397 1.350 . S
C401 C400 1.417 . S
C401 C404 1.426 . S
C402 H385 0.930 . S
C402 N397 1.307 . S
C402 C399 1.402 . S
N403 Gd366 2.601 . S
N403 C404 1.359 . S
N403 C407 1.334 . S
C404 C401 1.426 . S
C404 N403 1.359 . S
C404 C408 1.413 . S
C405 H396 0.930 . S
C405 C406 1.359 . S
C405 C407 1.394 . S
C406 C405 1.359 . S
C406 C408 1.391 . S
C406 H409 0.929 . S
C407 H389 0.930 . S
C407 N403 1.334 . S
C407 C405 1.394 . S
C408 C404 1.413 . S
C408 C406 1.391 . S
C408 C423 1.437 . S
H409 C406 0.929 . S
O410 Gd366 2.545 . S
O410 C425 1.258 . S
O411 Gd366 2.606 1_554 S
O411 Gd367 2.362 . S
O411 C422 1.284 1_554 S
O412 Gd367 2.324 . S
O412 C432 1.254 . S
O413 Gd366 2.429 1_554 S
O413 C432 1.268 . S
O414 Gd366 2.545 . S
O414 C422 1.250 . S
O415 Gd366 2.412 . S
O415 C425 1.252 . S
O416 Gd367 2.545 . S
O416 C434 1.258 . S
O417 Gd366 2.362 1_554 S
O417 Gd367 2.606 . S
O417 C433 1.284 . S
O418 Gd366 2.324 . S
O418 C441 1.254 1_556 S
O419 Gd367 2.429 . S
O419 C441 1.268 . S
O420 Gd367 2.545 . S
O420 C433 1.250 . S
O421 Gd367 2.412 . S
O421 C434 1.252 . S
C422 O411 1.284 1_556 S
C422 O414 1.250 . S
C423 H392 0.929 . S
C423 C408 1.437 . S
C423 C424 1.317 . S
C424 H395 0.930 . S
C424 C400 1.431 . S
C424 C423 1.317 . S
C425 Gd366 2.828 . S
C425 O410 1.258 . S
C425 O415 1.252 . S
C425 C426 1.497 . S
C426 C425 1.497 . S
C426 C427 1.395 . S
C426 C428 1.380 . S
C427 C426 1.395 . S
C427 C430 1.398 . S
C427 H442 0.930 . S
C428 C426 1.380 . S
C428 C429 1.391 . S
C428 H443 0.930 . S
C429 C428 1.391 . S
C429 C431 1.387 . S
C430 C427 1.398 . S
C430 C431 1.380 . S
C430 H444 0.930 . S
C431 C429 1.387 . S
C431 C430 1.380 . S
C431 H445 0.930 . S
C432 O412 1.254 . S
C432 O413 1.268 . S
C433 O417 1.284 . S
C433 O420 1.250 . S
C434 Gd367 2.828 . S
C434 O416 1.258 . S
C434 O421 1.252 . S
C434 C435 1.497 . S
C435 C434 1.497 . S
C435 C436 1.395 . S
C435 C437 1.380 . S
C436 C435 1.395 . S
C436 C439 1.398 . S
C436 H446 0.930 . S
C437 C435 1.380 . S
C437 C438 1.391 . S
C437 H447 0.930 . S
C438 C437 1.391 . S
C438 C440 1.387 . S
C439 C436 1.398 . S
C439 C440 1.380 . S
C439 H448 0.930 . S
C440 C438 1.387 . S
C440 C439 1.380 . S
C440 H449 0.930 . S
C441 O418 1.254 1_554 S
C441 O419 1.268 . S
H442 C427 0.930 . S
H443 C428 0.930 . S
H444 C430 0.930 . S
H445 C431 0.930 . S
H446 C436 0.930 . S
H447 C437 0.930 . S
H448 C439 0.930 . S
H449 C440 0.930 . S
Gd450 N481 2.661 . S
Gd450 N487 2.601 . S
Gd450 O494 2.545 . S
Gd450 O495 2.606 . S
Gd450 O497 2.429 . S
Gd450 O498 2.545 . S
Gd450 O499 2.412 . S
Gd450 O501 2.362 . S
Gd450 O502 2.324 . S
Gd450 C509 2.828 . S
Gd451 N460 2.661 . S
Gd451 N464 2.601 . S
Gd451 O495 2.362 . S
Gd451 O496 2.324 . S
Gd451 O500 2.545 . S
Gd451 O501 2.606 . S
Gd451 O503 2.429 . S
Gd451 O504 2.545 . S
Gd451 O505 2.412 . S
Gd451 C518 2.828 . S
C452 C455 1.417 . S
C452 C457 1.431 . S
C452 C458 1.412 . S
C453 C456 1.437 . S
C453 C457 1.317 . S
C453 H472 0.929 . S
C454 C455 1.426 . S
C454 C456 1.413 . S
C454 N464 1.359 . S
C455 C452 1.417 . S
C455 C454 1.426 . S
C455 N460 1.350 . S
C456 C453 1.437 . S
C456 C454 1.413 . S
C456 C466 1.391 . S
C457 C452 1.431 . S
C457 C453 1.317 . S
C457 H468 0.930 . S
C458 C452 1.412 . S
C458 C459 1.355 . S
C458 H470 0.930 . S
C459 C458 1.355 . S
C459 C461 1.402 . S
C459 H471 0.930 . S
N460 Gd451 2.661 . S
N460 C455 1.350 . S
N460 C461 1.307 . S
C461 C459 1.402 . S
C461 N460 1.307 . S
C461 H462 0.930 . S
H462 C461 0.930 . S
C463 N464 1.334 . S
C463 C465 1.394 . S
C463 H467 0.930 . S
N464 Gd451 2.601 . S
N464 C454 1.359 . S
N464 C463 1.334 . S
C465 C463 1.394 . S
C465 C466 1.359 . S
C465 H477 0.930 . S
C466 C456 1.391 . S
C466 C465 1.359 . S
C466 H478 0.929 . S
H467 C463 0.930 . S
H468 C457 0.930 . S
H469 C486 0.930 . S
H470 C458 0.930 . S
H471 C459 0.930 . S
H472 C453 0.929 . S
H473 C491 0.930 . S
H474 C482 0.930 . S
H475 C483 0.930 . S
H476 C507 0.929 . S
H477 C465 0.930 . S
H478 C466 0.929 . S
H479 C508 0.930 . S
H480 C489 0.930 . S
N481 Gd450 2.661 . S
N481 C485 1.350 . S
N481 C486 1.307 . S
C482 H474 0.930 . S
C482 C483 1.355 . S
C482 C484 1.412 . S
C483 H475 0.930 . S
C483 C482 1.355 . S
C483 C486 1.402 . S
C484 C482 1.412 . S
C484 C485 1.417 . S
C484 C508 1.431 . S
C485 N481 1.350 . S
C485 C484 1.417 . S
C485 C488 1.426 . S
C486 H469 0.930 . S
C486 N481 1.307 . S
C486 C483 1.402 . S
N487 Gd450 2.601 . S
N487 C488 1.359 . S
N487 C491 1.334 . S
C488 C485 1.426 . S
C488 N487 1.359 . S
C488 C492 1.413 . S
C489 H480 0.930 . S
C489 C490 1.359 . S
C489 C491 1.394 . S
C490 C489 1.359 . S
C490 C492 1.391 . S
C490 H493 0.929 . S
C491 H473 0.930 . S
C491 N487 1.334 . S
C491 C489 1.394 . S
C492 C488 1.413 . S
C492 C490 1.391 . S
C492 C507 1.437 . S
H493 C490 0.929 . S
O494 Gd450 2.545 . S
O494 C509 1.258 . S
O495 Gd450 2.606 . S
O495 Gd451 2.362 . S
O495 C506 1.284 . S
O496 Gd451 2.324 . S
O496 C516 1.254 . S
O497 Gd450 2.429 . S
O497 C516 1.268 . S
O498 Gd450 2.545 . S
O498 C506 1.250 . S
O499 Gd450 2.412 . S
O499 C509 1.252 . S
O500 Gd451 2.545 . S
O500 C518 1.258 . S
O501 Gd450 2.362 . S
O501 Gd451 2.606 . S
O501 C517 1.284 . S
O502 Gd450 2.324 . S
O502 C525 1.254 . S
O503 Gd451 2.429 . S
O503 C525 1.268 . S
O504 Gd451 2.545 . S
O504 C517 1.250 . S
O505 Gd451 2.412 . S
O505 C518 1.252 . S
C506 O495 1.284 . S
C506 O498 1.250 . S
C507 H476 0.929 . S
C507 C492 1.437 . S
C507 C508 1.317 . S
C508 H479 0.930 . S
C508 C484 1.431 . S
C508 C507 1.317 . S
C509 Gd450 2.828 . S
C509 O494 1.258 . S
C509 O499 1.252 . S
C509 C510 1.497 . S
C510 C509 1.497 . S
C510 C511 1.395 . S
C510 C512 1.380 . S
C511 C510 1.395 . S
C511 C514 1.398 . S
C511 H526 0.930 . S
C512 C510 1.380 . S
C512 C513 1.391 . S
C512 H527 0.930 . S
C513 C512 1.391 . S
C513 C515 1.387 . S
C514 C511 1.398 . S
C514 C515 1.380 . S
C514 H528 0.930 . S
C515 C513 1.387 . S
C515 C514 1.380 . S
C515 H529 0.930 . S
C516 O496 1.254 . S
C516 O497 1.268 . S
C517 O501 1.284 . S
C517 O504 1.250 . S
C518 Gd451 2.828 . S
C518 O500 1.258 . S
C518 O505 1.252 . S
C518 C519 1.497 . S
C519 C518 1.497 . S
C519 C520 1.395 . S
C519 C521 1.380 . S
C520 C519 1.395 . S
C520 C523 1.398 . S
C520 H530 0.930 . S
C521 C519 1.380 . S
C521 C522 1.391 . S
C521 H531 0.930 . S
C522 C521 1.391 . S
C522 C524 1.387 . S
C523 C520 1.398 . S
C523 C524 1.380 . S
C523 H532 0.930 . S
C524 C522 1.387 . S
C524 C523 1.380 . S
C524 H533 0.930 . S
C525 O502 1.254 . S
C525 O503 1.268 . S
H526 C511 0.930 . S
H527 C512 0.930 . S
H528 C514 0.930 . S
H529 C515 0.930 . S
H530 C520 0.930 . S
H531 C521 0.930 . S
H532 C523 0.930 . S
H533 C524 0.930 . S
Gd534 N565 2.661 . S
Gd534 N571 2.601 . S
Gd534 O578 2.545 . S
Gd534 O579 2.606 . S
Gd534 O581 2.429 . S
Gd534 O582 2.545 . S
Gd534 O583 2.412 . S
Gd534 O585 2.362 . S
Gd534 O586 2.324 . S
Gd534 C593 2.828 . S
Gd535 N544 2.661 . S
Gd535 N548 2.601 . S
Gd535 O579 2.362 . S
Gd535 O580 2.324 . S
Gd535 O584 2.545 . S
Gd535 O585 2.606 . S
Gd535 O587 2.429 . S
Gd535 O588 2.545 . S
Gd535 O589 2.412 . S
Gd535 C602 2.828 . S
C536 C539 1.417 . S
C536 C541 1.431 . S
C536 C542 1.412 . S
C537 C540 1.437 . S
C537 C541 1.317 . S
C537 H556 0.929 . S
C538 C539 1.426 . S
C538 C540 1.413 . S
C538 N548 1.359 . S
C539 C536 1.417 . S
C539 C538 1.426 . S
C539 N544 1.350 . S
C540 C537 1.437 . S
C540 C538 1.413 . S
C540 C550 1.391 . S
C541 C536 1.431 . S
C541 C537 1.317 . S
C541 H552 0.930 . S
C542 C536 1.412 . S
C542 C543 1.355 . S
C542 H554 0.930 . S
C543 C542 1.355 . S
C543 C545 1.402 . S
C543 H555 0.930 . S
N544 Gd535 2.661 . S
N544 C539 1.350 . S
N544 C545 1.307 . S
C545 C543 1.402 . S
C545 N544 1.307 . S
C545 H546 0.930 . S
H546 C545 0.930 . S
C547 N548 1.334 . S
C547 C549 1.394 . S
C547 H551 0.930 . S
N548 Gd535 2.601 . S
N548 C538 1.359 . S
N548 C547 1.334 . S
C549 C547 1.394 . S
C549 C550 1.359 . S
C549 H561 0.930 . S
C550 C540 1.391 . S
C550 C549 1.359 . S
C550 H562 0.929 . S
H551 C547 0.930 . S
H552 C541 0.930 . S
H553 C570 0.930 . S
H554 C542 0.930 . S
H555 C543 0.930 . S
H556 C537 0.929 . S
H557 C575 0.930 . S
H558 C566 0.930 . S
H559 C567 0.930 . S
H560 C591 0.929 . S
H561 C549 0.930 . S
H562 C550 0.929 . S
H563 C592 0.930 . S
H564 C573 0.930 . S
N565 Gd534 2.661 . S
N565 C569 1.350 . S
N565 C570 1.307 . S
C566 H558 0.930 . S
C566 C567 1.355 . S
C566 C568 1.412 . S
C567 H559 0.930 . S
C567 C566 1.355 . S
C567 C570 1.402 . S
C568 C566 1.412 . S
C568 C569 1.417 . S
C568 C592 1.431 . S
C569 N565 1.350 . S
C569 C568 1.417 . S
C569 C572 1.426 . S
C570 H553 0.930 . S
C570 N565 1.307 . S
C570 C567 1.402 . S
N571 Gd534 2.601 . S
N571 C572 1.359 . S
N571 C575 1.334 . S
C572 C569 1.426 . S
C572 N571 1.359 . S
C572 C576 1.413 . S
C573 H564 0.930 . S
C573 C574 1.359 . S
C573 C575 1.394 . S
C574 C573 1.359 . S
C574 C576 1.391 . S
C574 H577 0.929 . S
C575 H557 0.930 . S
C575 N571 1.334 . S
C575 C573 1.394 . S
C576 C572 1.413 . S
C576 C574 1.391 . S
C576 C591 1.437 . S
H577 C574 0.929 . S
O578 Gd534 2.545 . S
O578 C593 1.258 . S
O579 Gd534 2.606 . S
O579 Gd535 2.362 . S
O579 C590 1.284 . S
O580 Gd535 2.324 . S
O580 C600 1.254 . S
O581 Gd534 2.429 . S
O581 C600 1.268 . S
O582 Gd534 2.545 . S
O582 C590 1.250 . S
O583 Gd534 2.412 . S
O583 C593 1.252 . S
O584 Gd535 2.545 . S
O584 C602 1.258 . S
O585 Gd534 2.362 . S
O585 Gd535 2.606 . S
O585 C601 1.284 . S
O586 Gd534 2.324 . S
O586 C609 1.254 . S
O587 Gd535 2.429 . S
O587 C609 1.268 . S
O588 Gd535 2.545 . S
O588 C601 1.250 . S
O589 Gd535 2.412 . S
O589 C602 1.252 . S
C590 O579 1.284 . S
C590 O582 1.250 . S
C591 H560 0.929 . S
C591 C576 1.437 . S
C591 C592 1.317 . S
C592 H563 0.930 . S
C592 C568 1.431 . S
C592 C591 1.317 . S
C593 Gd534 2.828 . S
C593 O578 1.258 . S
C593 O583 1.252 . S
C593 C594 1.497 . S
C594 C593 1.497 . S
C594 C595 1.395 . S
C594 C596 1.380 . S
C595 C594 1.395 . S
C595 C598 1.398 . S
C595 H610 0.930 . S
C596 C594 1.380 . S
C596 C597 1.391 . S
C596 H611 0.930 . S
C597 C596 1.391 . S
C597 C599 1.387 . S
C598 C595 1.398 . S
C598 C599 1.380 . S
C598 H612 0.930 . S
C599 C597 1.387 . S
C599 C598 1.380 . S
C599 H613 0.930 . S
C600 O580 1.254 . S
C600 O581 1.268 . S
C601 O585 1.284 . S
C601 O588 1.250 . S
C602 Gd535 2.828 . S
C602 O584 1.258 . S
C602 O589 1.252 . S
C602 C603 1.497 . S
C603 C602 1.497 . S
C603 C604 1.395 . S
C603 C605 1.380 . S
C604 C603 1.395 . S
C604 C607 1.398 . S
C604 H614 0.930 . S
C605 C603 1.380 . S
C605 C606 1.391 . S
C605 H615 0.930 . S
C606 C605 1.391 . S
C606 C608 1.387 . S
C607 C604 1.398 . S
C607 C608 1.380 . S
C607 H616 0.930 . S
C608 C606 1.387 . S
C608 C607 1.380 . S
C608 H617 0.930 . S
C609 O586 1.254 . S
C609 O587 1.268 . S
H610 C595 0.930 . S
H611 C596 0.930 . S
H612 C598 0.930 . S
H613 C599 0.930 . S
H614 C604 0.930 . S
H615 C605 0.930 . S
H616 C607 0.930 . S
H617 C608 0.930 . S
Gd618 N649 2.661 . S
Gd618 N655 2.601 . S
Gd618 O662 2.545 . S
Gd618 O663 2.606 . S
Gd618 O665 2.429 . S
Gd618 O666 2.545 . S
Gd618 O667 2.412 . S
Gd618 O669 2.362 . S
Gd618 O670 2.324 . S
Gd618 C677 2.828 . S
Gd619 N628 2.661 . S
Gd619 N632 2.601 . S
Gd619 O663 2.362 . S
Gd619 O664 2.324 . S
Gd619 O668 2.545 . S
Gd619 O669 2.606 . S
Gd619 O671 2.429 . S
Gd619 O672 2.545 . S
Gd619 O673 2.412 . S
Gd619 C686 2.828 . S
C620 C623 1.417 . S
C620 C625 1.431 . S
C620 C626 1.412 . S
C621 C624 1.437 . S
C621 C625 1.317 . S
C621 H640 0.929 . S
C622 C623 1.426 . S
C622 C624 1.413 . S
C622 N632 1.359 . S
C623 C620 1.417 . S
C623 C622 1.426 . S
C623 N628 1.350 . S
C624 C621 1.437 . S
C624 C622 1.413 . S
C624 C634 1.391 . S
C625 C620 1.431 . S
C625 C621 1.317 . S
C625 H636 0.930 . S
C626 C620 1.412 . S
C626 C627 1.355 . S
C626 H638 0.930 . S
C627 C626 1.355 . S
C627 C629 1.402 . S
C627 H639 0.930 . S
N628 Gd619 2.661 . S
N628 C623 1.350 . S
N628 C629 1.307 . S
C629 C627 1.402 . S
C629 N628 1.307 . S
C629 H630 0.930 . S
H630 C629 0.930 . S
C631 N632 1.334 . S
C631 C633 1.394 . S
C631 H635 0.930 . S
N632 Gd619 2.601 . S
N632 C622 1.359 . S
N632 C631 1.334 . S
C633 C631 1.394 . S
C633 C634 1.359 . S
C633 H645 0.930 . S
C634 C624 1.391 . S
C634 C633 1.359 . S
C634 H646 0.929 . S
H635 C631 0.930 . S
H636 C625 0.930 . S
H637 C654 0.930 . S
H638 C626 0.930 . S
H639 C627 0.930 . S
H640 C621 0.929 . S
H641 C659 0.930 . S
H642 C650 0.930 . S
H643 C651 0.930 . S
H644 C675 0.929 . S
H645 C633 0.930 . S
H646 C634 0.929 . S
H647 C676 0.930 . S
H648 C657 0.930 . S
N649 Gd618 2.661 . S
N649 C653 1.350 . S
N649 C654 1.307 . S
C650 H642 0.930 . S
C650 C651 1.355 . S
C650 C652 1.412 . S
C651 H643 0.930 . S
C651 C650 1.355 . S
C651 C654 1.402 . S
C652 C650 1.412 . S
C652 C653 1.417 . S
C652 C676 1.431 . S
C653 N649 1.350 . S
C653 C652 1.417 . S
C653 C656 1.426 . S
C654 H637 0.930 . S
C654 N649 1.307 . S
C654 C651 1.402 . S
N655 Gd618 2.601 . S
N655 C656 1.359 . S
N655 C659 1.334 . S
C656 C653 1.426 . S
C656 N655 1.359 . S
C656 C660 1.413 . S
C657 H648 0.930 . S
C657 C658 1.359 . S
C657 C659 1.394 . S
C658 C657 1.359 . S
C658 C660 1.391 . S
C658 H661 0.929 . S
C659 H641 0.930 . S
C659 N655 1.334 . S
C659 C657 1.394 . S
C660 C656 1.413 . S
C660 C658 1.391 . S
C660 C675 1.437 . S
H661 C658 0.929 . S
O662 Gd618 2.545 . S
O662 C677 1.258 . S
O663 Gd618 2.606 . S
O663 Gd619 2.362 . S
O663 C674 1.284 . S
O664 Gd619 2.324 . S
O664 C684 1.254 . S
O665 Gd618 2.429 . S
O665 C684 1.268 . S
O666 Gd618 2.545 . S
O666 C674 1.250 . S
O667 Gd618 2.412 . S
O667 C677 1.252 . S
O668 Gd619 2.545 . S
O668 C686 1.258 . S
O669 Gd618 2.362 . S
O669 Gd619 2.606 . S
O669 C685 1.284 . S
O670 Gd618 2.324 . S
O670 C693 1.254 . S
O671 Gd619 2.429 . S
O671 C693 1.268 . S
O672 Gd619 2.545 . S
O672 C685 1.250 . S
O673 Gd619 2.412 . S
O673 C686 1.252 . S
C674 O663 1.284 . S
C674 O666 1.250 . S
C675 H644 0.929 . S
C675 C660 1.437 . S
C675 C676 1.317 . S
C676 H647 0.930 . S
C676 C652 1.431 . S
C676 C675 1.317 . S
C677 Gd618 2.828 . S
C677 O662 1.258 . S
C677 O667 1.252 . S
C677 C678 1.497 . S
C678 C677 1.497 . S
C678 C679 1.395 . S
C678 C680 1.380 . S
C679 C678 1.395 . S
C679 C682 1.398 . S
C679 H694 0.930 . S
C680 C678 1.380 . S
C680 C681 1.391 . S
C680 H695 0.930 . S
C681 C680 1.391 . S
C681 C683 1.387 . S
C682 C679 1.398 . S
C682 C683 1.380 . S
C682 H696 0.930 . S
C683 C681 1.387 . S
C683 C682 1.380 . S
C683 H697 0.930 . S
C684 O664 1.254 . S
C684 O665 1.268 . S
C685 O669 1.284 . S
C685 O672 1.250 . S
C686 Gd619 2.828 . S
C686 O668 1.258 . S
C686 O673 1.252 . S
C686 C687 1.497 . S
C687 C686 1.497 . S
C687 C688 1.395 . S
C687 C689 1.380 . S
C688 C687 1.395 . S
C688 C691 1.398 . S
C688 H698 0.930 . S
C689 C687 1.380 . S
C689 C690 1.391 . S
C689 H699 0.930 . S
C690 C689 1.391 . S
C690 C692 1.387 . S
C691 C688 1.398 . S
C691 C692 1.380 . S
C691 H700 0.930 . S
C692 C690 1.387 . S
C692 C691 1.380 . S
C692 H701 0.930 . S
C693 O670 1.254 . S
C693 O671 1.268 . S
H694 C679 0.930 . S
H695 C680 0.930 . S
H696 C682 0.930 . S
H697 C683 0.930 . S
H698 C688 0.930 . S
H699 C689 0.930 . S
H700 C691 0.930 . S
H701 C692 0.930 . S
Gd702 N733 2.661 . S
Gd702 N739 2.601 . S
Gd702 O746 2.545 . S
Gd702 O747 2.606 . S
Gd702 O749 2.429 . S
Gd702 O750 2.545 . S
Gd702 O751 2.412 . S
Gd702 O753 2.362 . S
Gd702 O754 2.324 . S
Gd702 C761 2.828 . S
Gd703 N712 2.661 . S
Gd703 N716 2.601 . S
Gd703 O747 2.362 . S
Gd703 O748 2.324 . S
Gd703 O752 2.545 . S
Gd703 O753 2.606 . S
Gd703 O755 2.429 . S
Gd703 O756 2.545 . S
Gd703 O757 2.412 . S
Gd703 C770 2.828 . S
C704 C707 1.417 . S
C704 C709 1.431 . S
C704 C710 1.412 . S
C705 C708 1.437 . S
C705 C709 1.317 . S
C705 H724 0.929 . S
C706 C707 1.426 . S
C706 C708 1.413 . S
C706 N716 1.359 . S
C707 C704 1.417 . S
C707 C706 1.426 . S
C707 N712 1.350 . S
C708 C705 1.437 . S
C708 C706 1.413 . S
C708 C718 1.391 . S
C709 C704 1.431 . S
C709 C705 1.317 . S
C709 H720 0.930 . S
C710 C704 1.412 . S
C710 C711 1.355 . S
C710 H722 0.930 . S
C711 C710 1.355 . S
C711 C713 1.402 . S
C711 H723 0.930 . S
N712 Gd703 2.661 . S
N712 C707 1.350 . S
N712 C713 1.307 . S
C713 C711 1.402 . S
C713 N712 1.307 . S
C713 H714 0.930 . S
H714 C713 0.930 . S
C715 N716 1.334 . S
C715 C717 1.394 . S
C715 H719 0.930 . S
N716 Gd703 2.601 . S
N716 C706 1.359 . S
N716 C715 1.334 . S
C717 C715 1.394 . S
C717 C718 1.359 . S
C717 H729 0.930 . S
C718 C708 1.391 . S
C718 C717 1.359 . S
C718 H730 0.929 . S
H719 C715 0.930 . S
H720 C709 0.930 . S
H721 C738 0.930 . S
H722 C710 0.930 . S
H723 C711 0.930 . S
H724 C705 0.929 . S
H725 C743 0.930 . S
H726 C734 0.930 . S
H727 C735 0.930 . S
H728 C759 0.929 . S
H729 C717 0.930 . S
H730 C718 0.929 . S
H731 C760 0.930 . S
H732 C741 0.930 . S
N733 Gd702 2.661 . S
N733 C737 1.350 . S
N733 C738 1.307 . S
C734 H726 0.930 . S
C734 C735 1.355 . S
C734 C736 1.412 . S
C735 H727 0.930 . S
C735 C734 1.355 . S
C735 C738 1.402 . S
C736 C734 1.412 . S
C736 C737 1.417 . S
C736 C760 1.431 . S
C737 N733 1.350 . S
C737 C736 1.417 . S
C737 C740 1.426 . S
C738 H721 0.930 . S
C738 N733 1.307 . S
C738 C735 1.402 . S
N739 Gd702 2.601 . S
N739 C740 1.359 . S
N739 C743 1.334 . S
C740 C737 1.426 . S
C740 N739 1.359 . S
C740 C744 1.413 . S
C741 H732 0.930 . S
C741 C742 1.359 . S
C741 C743 1.394 . S
C742 C741 1.359 . S
C742 C744 1.391 . S
C742 H745 0.929 . S
C743 H725 0.930 . S
C743 N739 1.334 . S
C743 C741 1.394 . S
C744 C740 1.413 . S
C744 C742 1.391 . S
C744 C759 1.437 . S
H745 C742 0.929 . S
O746 Gd702 2.545 . S
O746 C761 1.258 . S
O747 Gd702 2.606 . S
O747 Gd703 2.362 . S
O747 C758 1.284 . S
O748 Gd703 2.324 . S
O748 C768 1.254 . S
O749 Gd702 2.429 . S
O749 C768 1.268 . S
O750 Gd702 2.545 . S
O750 C758 1.250 . S
O751 Gd702 2.412 . S
O751 C761 1.252 . S
O752 Gd703 2.545 . S
O752 C770 1.258 . S
O753 Gd702 2.362 . S
O753 Gd703 2.606 . S
O753 C769 1.284 . S
O754 Gd702 2.324 . S
O754 C777 1.254 . S
O755 Gd703 2.429 . S
O755 C777 1.268 . S
O756 Gd703 2.545 . S
O756 C769 1.250 . S
O757 Gd703 2.412 . S
O757 C770 1.252 . S
C758 O747 1.284 . S
C758 O750 1.250 . S
C759 H728 0.929 . S
C759 C744 1.437 . S
C759 C760 1.317 . S
C760 H731 0.930 . S
C760 C736 1.431 . S
C760 C759 1.317 . S
C761 Gd702 2.828 . S
C761 O746 1.258 . S
C761 O751 1.252 . S
C761 C762 1.497 . S
C762 C761 1.497 . S
C762 C763 1.395 . S
C762 C764 1.380 . S
C763 C762 1.395 . S
C763 C766 1.398 . S
C763 H778 0.930 . S
C764 C762 1.380 . S
C764 C765 1.391 . S
C764 H779 0.930 . S
C765 C764 1.391 . S
C765 C767 1.387 . S
C766 C763 1.398 . S
C766 C767 1.380 . S
C766 H780 0.930 . S
C767 C765 1.387 . S
C767 C766 1.380 . S
C767 H781 0.930 . S
C768 O748 1.254 . S
C768 O749 1.268 . S
C769 O753 1.284 . S
C769 O756 1.250 . S
C770 Gd703 2.828 . S
C770 O752 1.258 . S
C770 O757 1.252 . S
C770 C771 1.497 . S
C771 C770 1.497 . S
C771 C772 1.395 . S
C771 C773 1.380 . S
C772 C771 1.395 . S
C772 C775 1.398 . S
C772 H782 0.930 . S
C773 C771 1.380 . S
C773 C774 1.391 . S
C773 H783 0.930 . S
C774 C773 1.391 . S
C774 C776 1.387 . S
C775 C772 1.398 . S
C775 C776 1.380 . S
C775 H784 0.930 . S
C776 C774 1.387 . S
C776 C775 1.380 . S
C776 H785 0.930 . S
C777 O754 1.254 . S
C777 O755 1.268 . S
H778 C763 0.930 . S
H779 C764 0.930 . S
H780 C766 0.930 . S
H781 C767 0.930 . S
H782 C772 0.930 . S
H783 C773 0.930 . S
H784 C775 0.930 . S
H785 C776 0.930 . S
Gd786 N817 2.661 . S
Gd786 N823 2.601 . S
Gd786 O830 2.545 . S
Gd786 O831 2.606 . S
Gd786 O833 2.429 . S
Gd786 O834 2.545 . S
Gd786 O835 2.412 . S
Gd786 O837 2.362 . S
Gd786 O838 2.324 . S
Gd786 C845 2.828 . S
Gd787 N796 2.661 . S
Gd787 N800 2.601 . S
Gd787 O831 2.362 . S
Gd787 O832 2.324 . S
Gd787 O836 2.545 . S
Gd787 O837 2.606 . S
Gd787 O839 2.429 . S
Gd787 O840 2.545 . S
Gd787 O841 2.412 . S
Gd787 C854 2.828 . S
C788 C791 1.417 . S
C788 C793 1.431 . S
C788 C794 1.412 . S
C789 C792 1.437 . S
C789 C793 1.317 . S
C789 H808 0.929 . S
C790 C791 1.426 . S
C790 C792 1.413 . S
C790 N800 1.359 . S
C791 C788 1.417 . S
C791 C790 1.426 . S
C791 N796 1.350 . S
C792 C789 1.437 . S
C792 C790 1.413 . S
C792 C802 1.391 . S
C793 C788 1.431 . S
C793 C789 1.317 . S
C793 H804 0.930 . S
C794 C788 1.412 . S
C794 C795 1.355 . S
C794 H806 0.930 . S
C795 C794 1.355 . S
C795 C797 1.402 . S
C795 H807 0.930 . S
N796 Gd787 2.661 . S
N796 C791 1.350 . S
N796 C797 1.307 . S
C797 C795 1.402 . S
C797 N796 1.307 . S
C797 H798 0.930 . S
H798 C797 0.930 . S
C799 N800 1.334 . S
C799 C801 1.394 . S
C799 H803 0.930 . S
N800 Gd787 2.601 . S
N800 C790 1.359 . S
N800 C799 1.334 . S
C801 C799 1.394 . S
C801 C802 1.359 . S
C801 H813 0.930 . S
C802 C792 1.391 . S
C802 C801 1.359 . S
C802 H814 0.929 . S
H803 C799 0.930 . S
H804 C793 0.930 . S
H805 C822 0.930 . S
H806 C794 0.930 . S
H807 C795 0.930 . S
H808 C789 0.929 . S
H809 C827 0.930 . S
H810 C818 0.930 . S
H811 C819 0.930 . S
H812 C843 0.929 . S
H813 C801 0.930 . S
H814 C802 0.929 . S
H815 C844 0.930 . S
H816 C825 0.930 . S
N817 Gd786 2.661 . S
N817 C821 1.350 . S
N817 C822 1.307 . S
C818 H810 0.930 . S
C818 C819 1.355 . S
C818 C820 1.412 . S
C819 H811 0.930 . S
C819 C818 1.355 . S
C819 C822 1.402 . S
C820 C818 1.412 . S
C820 C821 1.417 . S
C820 C844 1.431 . S
C821 N817 1.350 . S
C821 C820 1.417 . S
C821 C824 1.426 . S
C822 H805 0.930 . S
C822 N817 1.307 . S
C822 C819 1.402 . S
N823 Gd786 2.601 . S
N823 C824 1.359 . S
N823 C827 1.334 . S
C824 C821 1.426 . S
C824 N823 1.359 . S
C824 C828 1.413 . S
C825 H816 0.930 . S
C825 C826 1.359 . S
C825 C827 1.394 . S
C826 C825 1.359 . S
C826 C828 1.391 . S
C826 H829 0.929 . S
C827 H809 0.930 . S
C827 N823 1.334 . S
C827 C825 1.394 . S
C828 C824 1.413 . S
C828 C826 1.391 . S
C828 C843 1.437 . S
H829 C826 0.929 . S
O830 Gd786 2.545 . S
O830 C845 1.258 . S
O831 Gd786 2.606 . S
O831 Gd787 2.362 . S
O831 C842 1.284 . S
O832 Gd787 2.324 . S
O832 C852 1.254 . S
O833 Gd786 2.429 . S
O833 C852 1.268 . S
O834 Gd786 2.545 . S
O834 C842 1.250 . S
O835 Gd786 2.412 . S
O835 C845 1.252 . S
O836 Gd787 2.545 . S
O836 C854 1.258 . S
O837 Gd786 2.362 . S
O837 Gd787 2.606 . S
O837 C853 1.284 . S
O838 Gd786 2.324 . S
O838 C861 1.254 . S
O839 Gd787 2.429 . S
O839 C861 1.268 . S
O840 Gd787 2.545 . S
O840 C853 1.250 . S
O841 Gd787 2.412 . S
O841 C854 1.252 . S
C842 O831 1.284 . S
C842 O834 1.250 . S
C843 H812 0.929 . S
C843 C828 1.437 . S
C843 C844 1.317 . S
C844 H815 0.930 . S
C844 C820 1.431 . S
C844 C843 1.317 . S
C845 Gd786 2.828 . S
C845 O830 1.258 . S
C845 O835 1.252 . S
C845 C846 1.497 . S
C846 C845 1.497 . S
C846 C847 1.395 . S
C846 C848 1.380 . S
C847 C846 1.395 . S
C847 C850 1.398 . S
C847 H862 0.930 . S
C848 C846 1.380 . S
C848 C849 1.391 . S
C848 H863 0.930 . S
C849 C848 1.391 . S
C849 C851 1.387 . S
C850 C847 1.398 . S
C850 C851 1.380 . S
C850 H864 0.930 . S
C851 C849 1.387 . S
C851 C850 1.380 . S
C851 H865 0.930 . S
C852 O832 1.254 . S
C852 O833 1.268 . S
C853 O837 1.284 . S
C853 O840 1.250 . S
C854 Gd787 2.828 . S
C854 O836 1.258 . S
C854 O841 1.252 . S
C854 C855 1.497 . S
C855 C854 1.497 . S
C855 C856 1.395 . S
C855 C857 1.380 . S
C856 C855 1.395 . S
C856 C859 1.398 . S
C856 H866 0.930 . S
C857 C855 1.380 . S
C857 C858 1.391 . S
C857 H867 0.930 . S
C858 C857 1.391 . S
C858 C860 1.387 . S
C859 C856 1.398 . S
C859 C860 1.380 . S
C859 H868 0.930 . S
C860 C858 1.387 . S
C860 C859 1.380 . S
C860 H869 0.930 . S
C861 O838 1.254 . S
C861 O839 1.268 . S
H862 C847 0.930 . S
H863 C848 0.930 . S
H864 C850 0.930 . S
H865 C851 0.930 . S
H866 C856 0.930 . S
H867 C857 0.930 . S
H868 C859 0.930 . S
H869 C860 0.930 . S
Gd870 N901 2.661 . S
Gd870 N907 2.601 . S
Gd870 O914 2.545 . S
Gd870 O915 2.606 . S
Gd870 O917 2.429 . S
Gd870 O918 2.545 . S
Gd870 O919 2.412 . S
Gd870 O921 2.362 . S
Gd870 O922 2.324 . S
Gd870 C929 2.828 . S
Gd871 N880 2.661 . S
Gd871 N884 2.601 . S
Gd871 O915 2.362 . S
Gd871 O916 2.324 . S
Gd871 O920 2.545 . S
Gd871 O921 2.606 . S
Gd871 O923 2.429 . S
Gd871 O924 2.545 . S
Gd871 O925 2.412 . S
Gd871 C938 2.828 . S
C872 C875 1.417 . S
C872 C877 1.431 . S
C872 C878 1.412 . S
C873 C876 1.437 . S
C873 C877 1.317 . S
C873 H892 0.929 . S
C874 C875 1.426 . S
C874 C876 1.413 . S
C874 N884 1.359 . S
C875 C872 1.417 . S
C875 C874 1.426 . S
C875 N880 1.350 . S
C876 C873 1.437 . S
C876 C874 1.413 . S
C876 C886 1.391 . S
C877 C872 1.431 . S
C877 C873 1.317 . S
C877 H888 0.930 . S
C878 C872 1.412 . S
C878 C879 1.355 . S
C878 H890 0.930 . S
C879 C878 1.355 . S
C879 C881 1.402 . S
C879 H891 0.930 . S
N880 Gd871 2.661 . S
N880 C875 1.350 . S
N880 C881 1.307 . S
C881 C879 1.402 . S
C881 N880 1.307 . S
C881 H882 0.930 . S
H882 C881 0.930 . S
C883 N884 1.334 . S
C883 C885 1.394 . S
C883 H887 0.930 . S
N884 Gd871 2.601 . S
N884 C874 1.359 . S
N884 C883 1.334 . S
C885 C883 1.394 . S
C885 C886 1.359 . S
C885 H897 0.930 . S
C886 C876 1.391 . S
C886 C885 1.359 . S
C886 H898 0.929 . S
H887 C883 0.930 . S
H888 C877 0.930 . S
H889 C906 0.930 . S
H890 C878 0.930 . S
H891 C879 0.930 . S
H892 C873 0.929 . S
H893 C911 0.930 . S
H894 C902 0.930 . S
H895 C903 0.930 . S
H896 C927 0.929 . S
H897 C885 0.930 . S
H898 C886 0.929 . S
H899 C928 0.930 . S
H900 C909 0.930 . S
N901 Gd870 2.661 . S
N901 C905 1.350 . S
N901 C906 1.307 . S
C902 H894 0.930 . S
C902 C903 1.355 . S
C902 C904 1.412 . S
C903 H895 0.930 . S
C903 C902 1.355 . S
C903 C906 1.402 . S
C904 C902 1.412 . S
C904 C905 1.417 . S
C904 C928 1.431 . S
C905 N901 1.350 . S
C905 C904 1.417 . S
C905 C908 1.426 . S
C906 H889 0.930 . S
C906 N901 1.307 . S
C906 C903 1.402 . S
N907 Gd870 2.601 . S
N907 C908 1.359 . S
N907 C911 1.334 . S
C908 C905 1.426 . S
C908 N907 1.359 . S
C908 C912 1.413 . S
C909 H900 0.930 . S
C909 C910 1.359 . S
C909 C911 1.394 . S
C910 C909 1.359 . S
C910 C912 1.391 . S
C910 H913 0.929 . S
C911 H893 0.930 . S
C911 N907 1.334 . S
C911 C909 1.394 . S
C912 C908 1.413 . S
C912 C910 1.391 . S
C912 C927 1.437 . S
H913 C910 0.929 . S
O914 Gd870 2.545 . S
O914 C929 1.258 . S
O915 Gd870 2.606 . S
O915 Gd871 2.362 . S
O915 C926 1.284 . S
O916 Gd871 2.324 . S
O916 C936 1.254 . S
O917 Gd870 2.429 . S
O917 C936 1.268 . S
O918 Gd870 2.545 . S
O918 C926 1.250 . S
O919 Gd870 2.412 . S
O919 C929 1.252 . S
O920 Gd871 2.545 . S
O920 C938 1.258 . S
O921 Gd870 2.362 . S
O921 Gd871 2.606 . S
O921 C937 1.284 . S
O922 Gd870 2.324 . S
O922 C945 1.254 . S
O923 Gd871 2.429 . S
O923 C945 1.268 . S
O924 Gd871 2.545 . S
O924 C937 1.250 . S
O925 Gd871 2.412 . S
O925 C938 1.252 . S
C926 O915 1.284 . S
C926 O918 1.250 . S
C927 H896 0.929 . S
C927 C912 1.437 . S
C927 C928 1.317 . S
C928 H899 0.930 . S
C928 C904 1.431 . S
C928 C927 1.317 . S
C929 Gd870 2.828 . S
C929 O914 1.258 . S
C929 O919 1.252 . S
C929 C930 1.497 . S
C930 C929 1.497 . S
C930 C931 1.395 . S
C930 C932 1.380 . S
C931 C930 1.395 . S
C931 C934 1.398 . S
C931 H946 0.930 . S
C932 C930 1.380 . S
C932 C933 1.391 . S
C932 H947 0.930 . S
C933 C932 1.391 . S
C933 C935 1.387 . S
C934 C931 1.398 . S
C934 C935 1.380 . S
C934 H948 0.930 . S
C935 C933 1.387 . S
C935 C934 1.380 . S
C935 H949 0.930 . S
C936 O916 1.254 . S
C936 O917 1.268 . S
C937 O921 1.284 . S
C937 O924 1.250 . S
C938 Gd871 2.828 . S
C938 O920 1.258 . S
C938 O925 1.252 . S
C938 C939 1.497 . S
C939 C938 1.497 . S
C939 C940 1.395 . S
C939 C941 1.380 . S
C940 C939 1.395 . S
C940 C943 1.398 . S
C940 H950 0.930 . S
C941 C939 1.380 . S
C941 C942 1.391 . S
C941 H951 0.930 . S
C942 C941 1.391 . S
C942 C944 1.387 . S
C943 C940 1.398 . S
C943 C944 1.380 . S
C943 H952 0.930 . S
C944 C942 1.387 . S
C944 C943 1.380 . S
C944 H953 0.930 . S
C945 O922 1.254 . S
C945 O923 1.268 . S
H946 C931 0.930 . S
H947 C932 0.930 . S
H948 C934 0.930 . S
H949 C935 0.930 . S
H950 C940 0.930 . S
H951 C941 0.930 . S
H952 C943 0.930 . S
H953 C944 0.930 . S
H954 C962 0.929 . S
H955 C964 0.930 . S
H956 C966 0.930 . S
H957 C969 0.929 . S
H958 C972 0.930 . S
H959 C974 0.960 . S
H960 C974 0.960 . S
H961 C974 0.960 . S
C962 H954 0.929 . S
C962 C963 1.377 . S
C962 C964 1.384 . S
C963 C962 1.377 . S
C963 C969 1.390 . S
C964 H955 0.930 . S
C964 C962 1.384 . S
C964 C965 1.372 . S
C965 C964 1.372 . S
C965 C966 1.400 . S
C965 C970 1.490 . S
C966 H956 0.930 . S
C966 C965 1.400 . S
C966 C969 1.386 . S
H967 C983 0.930 . S
H968 C984 0.931 . S
C969 H957 0.929 . S
C969 C963 1.390 . S
C969 C966 1.386 . S
C970 C965 1.490 . S
C970 C972 1.395 . S
C970 C973 1.403 . S
H971 C977 0.930 . S
C972 H958 0.930 . S
C972 C970 1.395 . S
C972 C975 1.403 . S
C973 C970 1.403 . S
C973 C974 1.524 . S
C973 C977 1.400 . S
C974 H959 0.960 . S
C974 H960 0.960 . S
C974 H961 0.960 . S
C974 C973 1.524 . S
C975 C972 1.403 . S
C975 C976 1.392 . S
C975 C979 1.495 . S
C976 C975 1.392 . S
C976 C977 1.385 . S
C976 C978 1.478 . S
C977 H971 0.930 . S
C977 C973 1.400 . S
C977 C976 1.385 . S
C978 C976 1.478 . S
C978 C980 1.381 . S
C978 C984 1.383 . S
C979 C975 1.495 . S
C979 H985 0.959 . S
C979 H986 0.961 . S
C979 H987 0.960 . S
C980 C978 1.381 . S
C980 C981 1.394 . S
C980 H988 0.930 . S
C981 C980 1.394 . S
C981 C982 1.383 . S
C981 H989 0.929 . S
C982 C981 1.383 . S
C982 C983 1.377 . S
C983 H967 0.930 . S
C983 C982 1.377 . S
C983 C984 1.379 . S
C984 H968 0.931 . S
C984 C978 1.383 . S
C984 C983 1.379 . S
H985 C979 0.959 . S
H986 C979 0.961 . S
H987 C979 0.960 . S
H988 C980 0.930 . S
H989 C981 0.929 . S
H990 C998 0.929 . S
H991 C1000 0.930 . S
H992 C1002 0.930 . S
H993 C1005 0.929 . S
H994 C1008 0.930 . S
H995 C1010 0.960 . S
H996 C1010 0.960 . S
H997 C1010 0.960 . S
C998 H990 0.929 . S
C998 C999 1.377 . S
C998 C1000 1.384 . S
C999 C998 1.377 . S
C999 C1005 1.390 . S
C1000 H991 0.930 . S
C1000 C998 1.384 . S
C1000 C1001 1.372 . S
C1001 C1000 1.372 . S
C1001 C1002 1.400 . S
C1001 C1006 1.490 . S
C1002 H992 0.930 . S
C1002 C1001 1.400 . S
C1002 C1005 1.386 . S
H1003 C1019 0.930 . S
H1004 C1020 0.931 . S
C1005 H993 0.929 . S
C1005 C999 1.390 . S
C1005 C1002 1.386 . S
C1006 C1001 1.490 . S
C1006 C1008 1.395 . S
C1006 C1009 1.403 . S
H1007 C1013 0.930 . S
C1008 H994 0.930 . S
C1008 C1006 1.395 . S
C1008 C1011 1.403 . S
C1009 C1006 1.403 . S
C1009 C1010 1.524 . S
C1009 C1013 1.400 . S
C1010 H995 0.960 . S
C1010 H996 0.960 . S
C1010 H997 0.960 . S
C1010 C1009 1.524 . S
C1011 C1008 1.403 . S
C1011 C1012 1.392 . S
C1011 C1015 1.495 . S
C1012 C1011 1.392 . S
C1012 C1013 1.385 . S
C1012 C1014 1.478 . S
C1013 H1007 0.930 . S
C1013 C1009 1.400 . S
C1013 C1012 1.385 . S
C1014 C1012 1.478 . S
C1014 C1016 1.381 . S
C1014 C1020 1.383 . S
C1015 C1011 1.495 . S
C1015 H1021 0.959 . S
C1015 H1022 0.961 . S
C1015 H1023 0.960 . S
C1016 C1014 1.381 . S
C1016 C1017 1.394 . S
C1016 H1024 0.930 . S
C1017 C1016 1.394 . S
C1017 C1018 1.383 . S
C1017 H1025 0.929 . S
C1018 C1017 1.383 . S
C1018 C1019 1.377 . S
C1019 H1003 0.930 . S
C1019 C1018 1.377 . S
C1019 C1020 1.379 . S
C1020 H1004 0.931 . S
C1020 C1014 1.383 . S
C1020 C1019 1.379 . S
H1021 C1015 0.959 . S
H1022 C1015 0.961 . S
H1023 C1015 0.960 . S
H1024 C1016 0.930 . S
H1025 C1017 0.929 . S
H1026 C1034 0.929 . S
H1027 C1036 0.930 . S
H1028 C1038 0.930 . S
H1029 C1041 0.929 . S
H1030 C1044 0.930 . S
H1031 C1046 0.960 . S
H1032 C1046 0.960 . S
H1033 C1046 0.960 . S
C1034 H1026 0.929 . S
C1034 C1035 1.377 . S
C1034 C1036 1.384 . S
C1035 C1034 1.377 . S
C1035 C1041 1.390 . S
C1036 H1027 0.930 . S
C1036 C1034 1.384 . S
C1036 C1037 1.372 . S
C1037 C1036 1.372 . S
C1037 C1038 1.400 . S
C1037 C1042 1.490 . S
C1038 H1028 0.930 . S
C1038 C1037 1.400 . S
C1038 C1041 1.386 . S
H1039 C1055 0.930 . S
H1040 C1056 0.931 . S
C1041 H1029 0.929 . S
C1041 C1035 1.390 . S
C1041 C1038 1.386 . S
C1042 C1037 1.490 . S
C1042 C1044 1.395 . S
C1042 C1045 1.403 . S
H1043 C1049 0.930 . S
C1044 H1030 0.930 . S
C1044 C1042 1.395 . S
C1044 C1047 1.403 . S
C1045 C1042 1.403 . S
C1045 C1046 1.524 . S
C1045 C1049 1.400 . S
C1046 H1031 0.960 . S
C1046 H1032 0.960 . S
C1046 H1033 0.960 . S
C1046 C1045 1.524 . S
C1047 C1044 1.403 . S
C1047 C1048 1.392 . S
C1047 C1051 1.495 . S
C1048 C1047 1.392 . S
C1048 C1049 1.385 . S
C1048 C1050 1.478 . S
C1049 H1043 0.930 . S
C1049 C1045 1.400 . S
C1049 C1048 1.385 . S
C1050 C1048 1.478 . S
C1050 C1052 1.381 . S
C1050 C1056 1.383 . S
C1051 C1047 1.495 . S
C1051 H1057 0.959 . S
C1051 H1058 0.961 . S
C1051 H1059 0.960 . S
C1052 C1050 1.381 . S
C1052 C1053 1.394 . S
C1052 H1060 0.930 . S
C1053 C1052 1.394 . S
C1053 C1054 1.383 . S
C1053 H1061 0.929 . S
C1054 C1053 1.383 . S
C1054 C1055 1.377 . S
C1055 H1039 0.930 . S
C1055 C1054 1.377 . S
C1055 C1056 1.379 . S
C1056 H1040 0.931 . S
C1056 C1050 1.383 . S
C1056 C1055 1.379 . S
H1057 C1051 0.959 . S
H1058 C1051 0.961 . S
H1059 C1051 0.960 . S
H1060 C1052 0.930 . S
H1061 C1053 0.929 . S
H1062 C1070 0.929 . S
H1063 C1072 0.930 . S
H1064 C1074 0.930 . S
H1065 C1077 0.929 . S
H1066 C1080 0.930 . S
H1067 C1082 0.960 . S
H1068 C1082 0.960 . S
H1069 C1082 0.960 . S
C1070 H1062 0.929 . S
C1070 C1071 1.377 . S
C1070 C1072 1.384 . S
C1071 C1070 1.377 . S
C1071 C1077 1.390 . S
C1072 H1063 0.930 . S
C1072 C1070 1.384 . S
C1072 C1073 1.372 . S
C1073 C1072 1.372 . S
C1073 C1074 1.400 . S
C1073 C1078 1.490 . S
C1074 H1064 0.930 . S
C1074 C1073 1.400 . S
C1074 C1077 1.386 . S
H1075 C1091 0.930 . S
H1076 C1092 0.931 . S
C1077 H1065 0.929 . S
C1077 C1071 1.390 . S
C1077 C1074 1.386 . S
C1078 C1073 1.490 . S
C1078 C1080 1.395 . S
C1078 C1081 1.403 . S
H1079 C1085 0.930 . S
C1080 H1066 0.930 . S
C1080 C1078 1.395 . S
C1080 C1083 1.403 . S
C1081 C1078 1.403 . S
C1081 C1082 1.524 . S
C1081 C1085 1.400 . S
C1082 H1067 0.960 . S
C1082 H1068 0.960 . S
C1082 H1069 0.960 . S
C1082 C1081 1.524 . S
C1083 C1080 1.403 . S
C1083 C1084 1.392 . S
C1083 C1087 1.495 . S
C1084 C1083 1.392 . S
C1084 C1085 1.385 . S
C1084 C1086 1.478 . S
C1085 H1079 0.930 . S
C1085 C1081 1.400 . S
C1085 C1084 1.385 . S
C1086 C1084 1.478 . S
C1086 C1088 1.381 . S
C1086 C1092 1.383 1_556 S
C1087 C1083 1.495 . S
C1087 H1093 0.959 . S
C1087 H1094 0.961 . S
C1087 H1095 0.960 . S
C1088 C1086 1.381 . S
C1088 C1089 1.394 . S
C1088 H1096 0.930 . S
C1089 C1088 1.394 . S
C1089 C1090 1.383 . S
C1089 H1097 0.929 . S
C1090 C1089 1.383 . S
C1090 C1091 1.377 1_556 S
C1091 H1075 0.930 . S
C1091 C1090 1.377 1_554 S
C1091 C1092 1.379 . S
C1092 H1076 0.931 . S
C1092 C1086 1.383 1_554 S
C1092 C1091 1.379 . S
H1093 C1087 0.959 . S
H1094 C1087 0.961 . S
H1095 C1087 0.960 . S
H1096 C1088 0.930 . S
H1097 C1089 0.929 . S
H1098 C1106 0.929 . S
H1099 C1108 0.930 . S
H1100 C1110 0.930 . S
H1101 C1113 0.929 . S
H1102 C1116 0.930 . S
H1103 C1118 0.960 . S
H1104 C1118 0.960 . S
H1105 C1118 0.960 . S
C1106 H1098 0.929 . S
C1106 C1107 1.377 . S
C1106 C1108 1.384 . S
C1107 C1106 1.377 . S
C1107 C1113 1.390 . S
C1108 H1099 0.930 . S
C1108 C1106 1.384 . S
C1108 C1109 1.372 . S
C1109 C1108 1.372 . S
C1109 C1110 1.400 . S
C1109 C1114 1.490 . S
C1110 H1100 0.930 . S
C1110 C1109 1.400 . S
C1110 C1113 1.386 . S
H1111 C1127 0.930 . S
H1112 C1128 0.931 . S
C1113 H1101 0.929 . S
C1113 C1107 1.390 . S
C1113 C1110 1.386 . S
C1114 C1109 1.490 . S
C1114 C1116 1.395 . S
C1114 C1117 1.403 . S
H1115 C1121 0.930 . S
C1116 H1102 0.930 . S
C1116 C1114 1.395 . S
C1116 C1119 1.403 . S
C1117 C1114 1.403 . S
C1117 C1118 1.524 . S
C1117 C1121 1.400 . S
C1118 H1103 0.960 . S
C1118 H1104 0.960 . S
C1118 H1105 0.960 . S
C1118 C1117 1.524 . S
C1119 C1116 1.403 . S
C1119 C1120 1.392 . S
C1119 C1123 1.495 . S
C1120 C1119 1.392 . S
C1120 C1121 1.385 . S
C1120 C1122 1.478 . S
C1121 H1115 0.930 . S
C1121 C1117 1.400 . S
C1121 C1120 1.385 . S
C1122 C1120 1.478 . S
C1122 C1124 1.381 . S
C1122 C1128 1.383 . S
C1123 C1119 1.495 . S
C1123 H1129 0.959 . S
C1123 H1130 0.961 . S
C1123 H1131 0.960 . S
C1124 C1122 1.381 . S
C1124 C1125 1.394 1_556 S
C1124 H1132 0.911 1_556 S
C1125 C1124 1.394 1_554 S
C1125 C1126 1.383 1_554 S
C1125 H1133 0.929 . S
C1126 C1125 1.383 1_556 S
C1126 C1127 1.377 . S
C1127 H1111 0.930 . S
C1127 C1126 1.377 . S
C1127 C1128 1.379 . S
C1128 H1112 0.931 . S
C1128 C1122 1.383 . S
C1128 C1127 1.379 . S
H1129 C1123 0.959 . S
H1130 C1123 0.961 . S
H1131 C1123 0.960 . S
H1132 C1124 0.911 1_554 S
H1133 C1125 0.929 . S
H1134 C1142 0.929 . S
H1135 C1144 0.930 . S
H1136 C1146 0.930 . S
H1137 C1149 0.929 . S
H1138 C1152 0.930 . S
H1139 C1154 0.989 . S
H1140 C1154 0.960 . S
H1141 C1154 0.960 . S
C1142 H1134 0.929 . S
C1142 C1143 1.377 . S
C1142 C1144 1.384 . S
C1143 C1142 1.377 . S
C1143 C1149 1.390 . S
C1144 H1135 0.930 . S
C1144 C1142 1.384 . S
C1144 C1145 1.372 . S
C1145 C1144 1.372 . S
C1145 C1146 1.400 . S
C1145 C1150 1.490 . S
C1146 H1136 0.930 . S
C1146 C1145 1.400 . S
C1146 C1149 1.386 . S
H1147 C1163 0.930 . S
H1148 C1164 0.931 . S
C1149 H1137 0.929 . S
C1149 C1143 1.390 . S
C1149 C1146 1.386 . S
C1150 C1145 1.490 . S
C1150 C1152 1.395 . S
C1150 C1153 1.403 . S
H1151 C1157 0.930 . S
C1152 H1138 0.930 . S
C1152 C1150 1.395 . S
C1152 C1155 1.403 . S
C1153 C1150 1.403 . S
C1153 C1154 1.524 . S
C1153 C1157 1.400 . S
C1154 H1139 0.989 . S
C1154 H1140 0.960 . S
C1154 H1141 0.960 . S
C1154 C1153 1.524 . S
C1155 C1152 1.403 . S
C1155 C1156 1.392 . S
C1155 C1159 1.495 . S
C1156 C1155 1.392 . S
C1156 C1157 1.385 . S
C1156 C1158 1.478 . S
C1157 H1151 0.930 . S
C1157 C1153 1.400 . S
C1157 C1156 1.385 . S
C1158 C1156 1.478 . S
C1158 C1160 1.381 . S
C1158 C1164 1.383 1_556 S
C1159 C1155 1.495 . S
C1159 H1165 0.959 . S
C1159 H1166 0.961 . S
C1159 H1167 0.960 . S
C1160 C1158 1.381 . S
C1160 C1161 1.394 . S
C1160 H1168 0.930 . S
C1161 C1160 1.394 . S
C1161 C1162 1.383 . S
C1161 H1169 0.929 . S
C1162 C1161 1.383 . S
C1162 C1163 1.377 1_556 S
C1163 H1147 0.930 . S
C1163 C1162 1.377 1_554 S
C1163 C1164 1.379 . S
C1164 H1148 0.931 . S
C1164 C1158 1.383 1_554 S
C1164 C1163 1.379 . S
H1165 C1159 0.959 . S
H1166 C1159 0.961 . S
H1167 C1159 0.960 . S
H1168 C1160 0.930 . S
H1169 C1161 0.929 . S
H1170 C1178 0.929 . S
H1171 C1180 0.930 . S
H1172 C1182 0.930 . S
H1173 C1185 0.929 . S
H1174 C1188 0.930 . S
H1175 C1190 0.960 . S
H1176 C1190 0.960 . S
H1177 C1190 0.960 . S
C1178 H1170 0.929 . S
C1178 C1179 1.377 . S
C1178 C1180 1.384 . S
C1179 C1178 1.377 . S
C1179 C1185 1.390 . S
C1180 H1171 0.930 . S
C1180 C1178 1.384 . S
C1180 C1181 1.372 . S
C1181 C1180 1.372 . S
C1181 C1182 1.400 . S
C1181 C1186 1.490 . S
C1182 H1172 0.930 . S
C1182 C1181 1.400 . S
C1182 C1185 1.386 . S
H1183 C1199 0.930 . S
H1184 C1200 0.931 . S
C1185 H1173 0.929 . S
C1185 C1179 1.390 . S
C1185 C1182 1.386 . S
C1186 C1181 1.490 . S
C1186 C1188 1.395 . S
C1186 C1189 1.403 . S
H1187 C1193 0.930 . S
C1188 H1174 0.930 . S
C1188 C1186 1.395 . S
C1188 C1191 1.403 . S
C1189 C1186 1.403 . S
C1189 C1190 1.524 . S
C1189 C1193 1.400 . S
C1190 H1175 0.960 . S
C1190 H1176 0.960 . S
C1190 H1177 0.960 . S
C1190 C1189 1.524 . S
C1191 C1188 1.403 . S
C1191 C1192 1.392 . S
C1191 C1195 1.495 1_556 S
C1192 C1191 1.392 . S
C1192 C1193 1.385 . S
C1192 C1194 1.478 . S
C1193 H1187 0.930 . S
C1193 C1189 1.400 . S
C1193 C1192 1.385 . S
C1194 C1192 1.478 . S
C1194 C1196 1.381 1_556 S
C1194 C1200 1.383 . S
C1195 C1191 1.495 1_554 S
C1195 H1201 0.959 . S
C1195 H1202 0.962 1_554 S
C1195 H1203 0.960 . S
C1196 C1194 1.381 1_554 S
C1196 C1197 1.394 . S
C1196 H1204 0.930 . S
C1197 C1196 1.394 . S
C1197 C1198 1.383 1_554 S
C1197 H1205 0.929 . S
C1198 C1197 1.383 1_556 S
C1198 C1199 1.377 . S
C1199 H1183 0.930 . S
C1199 C1198 1.377 . S
C1199 C1200 1.379 . S
C1200 H1184 0.931 . S
C1200 C1194 1.383 . S
C1200 C1199 1.379 . S
H1201 C1195 0.959 . S
H1202 C1195 0.962 1_556 S
H1203 C1195 0.960 . S
H1204 C1196 0.930 . S
H1205 C1197 0.929 . S
H1206 C1214 0.929 . S
H1207 C1216 0.930 . S
H1208 C1218 0.930 . S
H1209 C1221 0.929 . S
H1210 C1224 0.930 . S
H1211 C1226 0.994 . S
H1212 C1226 0.960 . S
H1213 C1226 0.960 . S
C1214 H1206 0.929 . S
C1214 C1215 1.377 . S
C1214 C1216 1.384 . S
C1215 C1214 1.377 . S
C1215 C1221 1.390 . S
C1216 H1207 0.930 . S
C1216 C1214 1.384 . S
C1216 C1217 1.372 . S
C1217 C1216 1.372 . S
C1217 C1218 1.400 . S
C1217 C1222 1.490 . S
C1218 H1208 0.930 . S
C1218 C1217 1.400 . S
C1218 C1221 1.386 . S
H1219 C1235 0.930 . S
H1220 C1236 0.931 . S
C1221 H1209 0.929 . S
C1221 C1215 1.390 . S
C1221 C1218 1.386 . S
C1222 C1217 1.490 . S
C1222 C1224 1.395 . S
C1222 C1225 1.403 . S
H1223 C1229 0.930 . S
C1224 H1210 0.930 . S
C1224 C1222 1.395 . S
C1224 C1227 1.403 . S
C1225 C1222 1.403 . S
C1225 C1226 1.524 . S
C1225 C1229 1.400 . S
C1226 H1211 0.994 . S
C1226 H1212 0.960 . S
C1226 H1213 0.960 . S
C1226 C1225 1.524 . S
C1227 C1224 1.403 . S
C1227 C1228 1.392 . S
C1227 C1231 1.495 . S
C1228 C1227 1.392 . S
C1228 C1229 1.385 . S
C1228 C1230 1.478 . S
C1229 H1223 0.930 . S
C1229 C1225 1.400 . S
C1229 C1228 1.385 . S
C1230 C1228 1.478 . S
C1230 C1232 1.381 . S
C1230 C1236 1.383 1_556 S
C1231 C1227 1.495 . S
C1231 H1237 0.959 . S
C1231 H1238 0.961 . S
C1231 H1239 0.960 . S
C1232 C1230 1.381 . S
C1232 C1233 1.394 . S
C1232 H1240 0.930 . S
C1233 C1232 1.394 . S
C1233 C1234 1.383 . S
C1233 H1241 0.929 . S
C1234 C1233 1.383 . S
C1234 C1235 1.377 1_556 S
C1235 H1219 0.930 . S
C1235 C1234 1.377 1_554 S
C1235 C1236 1.379 . S
C1236 H1220 0.931 . S
C1236 C1230 1.383 1_554 S
C1236 C1235 1.379 . S
H1237 C1231 0.959 . S
H1238 C1231 0.961 . S
H1239 C1231 0.960 . S
H1240 C1232 0.930 . S
H1241 C1233 0.929 . S
H1242 C1250 0.929 . S
H1243 C1252 0.930 . S
H1244 C1254 0.930 . S
H1245 C1257 0.929 . S
H1246 C1260 0.930 . S
H1247 C1262 0.960 . S
H1248 C1262 0.960 . S
H1249 C1262 0.960 . S
C1250 H1242 0.929 . S
C1250 C1251 1.377 . S
C1250 C1252 1.384 . S
C1251 C1250 1.377 . S
C1251 C1257 1.390 . S
C1252 H1243 0.930 . S
C1252 C1250 1.384 . S
C1252 C1253 1.372 . S
C1253 C1252 1.372 . S
C1253 C1254 1.400 . S
C1253 C1258 1.490 . S
C1254 H1244 0.930 . S
C1254 C1253 1.400 . S
C1254 C1257 1.386 . S
H1255 C1271 0.930 . S
H1256 C1272 0.964 . S
C1257 H1245 0.929 . S
C1257 C1251 1.390 . S
C1257 C1254 1.386 . S
C1258 C1253 1.490 . S
C1258 C1260 1.395 . S
C1258 C1261 1.403 . S
H1259 C1265 0.930 1_554 S
C1260 H1246 0.930 . S
C1260 C1258 1.395 . S
C1260 C1263 1.403 . S
C1261 C1258 1.403 . S
C1261 C1262 1.524 1_556 S
C1261 C1265 1.400 . S
C1262 H1247 0.960 . S
C1262 H1248 0.960 . S
C1262 H1249 0.960 . S
C1262 C1261 1.524 1_554 S
C1263 C1260 1.403 . S
C1263 C1264 1.392 . S
C1263 C1267 1.495 . S
C1264 C1263 1.392 . S
C1264 C1265 1.385 . S
C1264 C1266 1.478 . S
C1265 H1259 0.930 1_556 S
C1265 C1261 1.400 . S
C1265 C1264 1.385 . S
C1266 C1264 1.478 . S
C1266 C1268 1.381 . S
C1266 C1272 1.333 1_556 S
C1267 C1263 1.495 . S
C1267 H1273 0.959 . S
C1267 H1274 0.961 . S
C1267 H1275 0.960 . S
C1268 C1266 1.381 . S
C1268 C1269 1.394 . S
C1268 H1276 0.930 . S
C1269 C1268 1.394 . S
C1269 C1270 1.383 . S
C1269 H1277 0.929 . S
C1270 C1269 1.383 . S
C1270 C1271 1.377 1_556 S
C1271 H1255 0.930 . S
C1271 C1270 1.377 1_554 S
C1271 C1272 1.400 . S
C1272 H1256 0.964 . S
C1272 C1266 1.333 1_554 S
C1272 C1271 1.400 . S
H1273 C1267 0.959 . S
H1274 C1267 0.961 . S
H1275 C1267 0.960 . S
H1276 C1268 0.930 . S
H1277 C1269 0.929 . S
H1278 C1286 0.929 . S
H1279 C1288 0.930 . S
H1280 C1290 0.930 . S
H1281 C1293 0.929 . S
H1282 C1296 0.930 . S
H1283 C1298 0.960 . S
H1284 C1298 0.960 . S
H1285 C1298 0.960 . S
C1286 H1278 0.929 . S
C1286 C1287 1.377 . S
C1286 C1288 1.384 . S
C1287 C1286 1.377 . S
C1287 C1293 1.390 . S
C1288 H1279 0.930 . S
C1288 C1286 1.384 . S
C1288 C1289 1.372 . S
C1289 C1288 1.372 . S
C1289 C1290 1.400 . S
C1289 C1294 1.490 . S
C1290 H1280 0.930 . S
C1290 C1289 1.400 . S
C1290 C1293 1.386 . S
H1291 C1307 0.930 . S
H1292 C1308 0.931 . S
C1293 H1281 0.929 . S
C1293 C1287 1.390 . S
C1293 C1290 1.386 . S
C1294 C1289 1.490 . S
C1294 C1296 1.395 . S
C1294 C1297 1.403 . S
H1295 C1301 0.930 . S
C1296 H1282 0.930 . S
C1296 C1294 1.395 . S
C1296 C1299 1.403 . S
C1297 C1294 1.403 . S
C1297 C1298 1.524 . S
C1297 C1301 1.400 . S
C1298 H1283 0.960 . S
C1298 H1284 0.960 . S
C1298 H1285 0.960 . S
C1298 C1297 1.524 . S
C1299 C1296 1.403 . S
C1299 C1300 1.392 . S
C1299 C1303 1.495 . S
C1300 C1299 1.392 . S
C1300 C1301 1.385 . S
C1300 C1302 1.478 . S
C1301 H1295 0.930 . S
C1301 C1297 1.400 . S
C1301 C1300 1.385 . S
C1302 C1300 1.478 . S
C1302 C1304 1.381 . S
C1302 C1308 1.383 . S
C1303 C1299 1.495 . S
C1303 H1309 0.959 . S
C1303 H1310 0.961 . S
C1303 H1311 0.967 . S
C1304 C1302 1.381 . S
C1304 C1305 1.394 . S
C1304 H1312 0.930 . S
C1305 C1304 1.394 . S
C1305 C1306 1.383 . S
C1305 H1313 0.929 . S
C1306 C1305 1.383 . S
C1306 C1307 1.377 . S
C1307 H1291 0.930 . S
C1307 C1306 1.377 . S
C1307 C1308 1.379 . S
C1308 H1292 0.931 . S
C1308 C1302 1.383 . S
C1308 C1307 1.379 . S
H1309 C1303 0.959 . S
H1310 C1303 0.961 . S
H1311 C1303 0.967 . S
H1312 C1304 0.930 . S
H1313 C1305 0.929 . S
H1314 C1322 0.929 . S
H1315 C1324 0.930 . S
H1316 C1326 0.930 . S
H1317 C1329 0.929 . S
H1318 C1332 0.930 . S
H1319 C1334 0.960 . S
H1320 C1334 0.960 . S
H1321 C1334 0.960 . S
C1322 H1314 0.929 . S
C1322 C1323 1.377 . S
C1322 C1324 1.384 . S
C1323 C1322 1.377 . S
C1323 C1329 1.390 . S
C1324 H1315 0.930 . S
C1324 C1322 1.384 . S
C1324 C1325 1.372 . S
C1325 C1324 1.372 . S
C1325 C1326 1.400 . S
C1325 C1330 1.490 . S
C1326 H1316 0.930 . S
C1326 C1325 1.400 . S
C1326 C1329 1.386 . S
H1327 C1343 0.930 . S
H1328 C1344 0.931 . S
C1329 H1317 0.929 . S
C1329 C1323 1.390 . S
C1329 C1326 1.386 . S
C1330 C1325 1.490 . S
C1330 C1332 1.395 . S
C1330 C1333 1.403 . S
H1331 C1337 0.930 . S
C1332 H1318 0.930 . S
C1332 C1330 1.395 . S
C1332 C1335 1.403 . S
C1333 C1330 1.403 . S
C1333 C1334 1.524 . S
C1333 C1337 1.400 . S
C1334 H1319 0.960 . S
C1334 H1320 0.960 . S
C1334 H1321 0.960 . S
C1334 C1333 1.524 . S
C1335 C1332 1.403 . S
C1335 C1336 1.392 . S
C1335 C1339 1.495 . S
C1336 C1335 1.392 . S
C1336 C1337 1.385 . S
C1336 C1338 1.478 . S
C1337 H1331 0.930 . S
C1337 C1333 1.400 . S
C1337 C1336 1.385 . S
C1338 C1336 1.478 . S
C1338 C1340 1.381 . S
C1338 C1344 1.383 . S
C1339 C1335 1.495 . S
C1339 H1345 0.959 . S
C1339 H1346 0.961 . S
C1339 H1347 0.960 . S
C1340 C1338 1.381 . S
C1340 C1341 1.394 . S
C1340 H1348 0.930 . S
C1341 C1340 1.394 . S
C1341 C1342 1.383 . S
C1341 H1349 0.929 . S
C1342 C1341 1.383 . S
C1342 C1343 1.377 . S
C1343 H1327 0.930 . S
C1343 C1342 1.377 . S
C1343 C1344 1.379 . S
C1344 H1328 0.931 . S
C1344 C1338 1.383 . S
C1344 C1343 1.379 . S
H1345 C1339 0.959 . S
H1346 C1339 0.961 . S
H1347 C1339 0.960 . S
H1348 C1340 0.930 . S
H1349 C1341 0.929 . S
H1350 C1358 0.929 . S
H1351 C1360 0.930 . S
H1352 C1362 0.930 . S
H1353 C1365 0.929 . S
H1354 C1368 0.930 . S
H1355 C1370 0.960 . S
H1356 C1370 0.960 . S
H1357 C1370 0.960 . S
C1358 H1350 0.929 . S
C1358 C1359 1.377 . S
C1358 C1360 1.384 . S
C1359 C1358 1.377 . S
C1359 C1365 1.390 . S
C1360 H1351 0.930 . S
C1360 C1358 1.384 . S
C1360 C1361 1.372 . S
C1361 C1360 1.372 . S
C1361 C1362 1.400 . S
C1361 C1366 1.490 . S
C1362 H1352 0.930 . S
C1362 C1361 1.400 . S
C1362 C1365 1.386 . S
H1363 C1379 0.993 . S
H1364 C1380 0.931 . S
C1365 H1353 0.929 . S
C1365 C1359 1.390 . S
C1365 C1362 1.386 . S
C1366 C1361 1.490 . S
C1366 C1368 1.395 . S
C1366 C1369 1.403 . S
H1367 C1373 0.930 . S
C1368 H1354 0.930 . S
C1368 C1366 1.395 . S
C1368 C1371 1.403 . S
C1369 C1366 1.403 . S
C1369 C1370 1.524 . S
C1369 C1373 1.400 . S
C1370 H1355 0.960 . S
C1370 H1356 0.960 . S
C1370 H1357 0.960 . S
C1370 C1369 1.524 . S
C1371 C1368 1.403 . S
C1371 C1372 1.392 . S
C1371 C1375 1.495 . S
C1372 C1371 1.392 . S
C1372 C1373 1.385 . S
C1372 C1374 1.478 . S
C1373 H1367 0.930 . S
C1373 C1369 1.400 . S
C1373 C1372 1.385 . S
C1374 C1372 1.478 . S
C1374 C1376 1.381 . S
C1374 C1380 1.383 . S
C1375 C1371 1.495 . S
C1375 H1381 0.959 . S
C1375 H1382 0.961 . S
C1375 H1383 0.960 . S
C1376 C1374 1.381 . S
C1376 C1377 1.394 . S
C1376 H1384 0.930 . S
C1377 C1376 1.394 . S
C1377 C1378 1.383 . S
C1377 H1385 0.929 . S
C1378 C1377 1.383 . S
C1378 C1379 1.377 . S
C1379 H1363 0.993 . S
C1379 C1378 1.377 . S
C1379 C1380 1.379 . S
C1380 H1364 0.931 . S
C1380 C1374 1.383 . S
C1380 C1379 1.379 . S
H1381 C1375 0.959 . S
H1382 C1375 0.961 . S
H1383 C1375 0.960 . S
H1384 C1376 0.930 . S
H1385 C1377 0.929 . S
H1386 C1394 0.929 . S
H1387 C1396 0.930 . S
H1388 C1398 0.930 . S
H1389 C1401 0.929 . S
H1390 C1404 0.930 . S
H1391 C1406 0.960 . S
H1392 C1406 0.960 . S
H1393 C1406 0.908 1_655 S
C1394 H1386 0.929 . S
C1394 C1395 1.377 . S
C1394 C1396 1.384 . S
C1395 C1394 1.377 . S
C1395 C1401 1.390 . S
C1396 H1387 0.930 . S
C1396 C1394 1.384 . S
C1396 C1397 1.372 . S
C1397 C1396 1.372 . S
C1397 C1398 1.400 . S
C1397 C1402 1.490 . S
C1398 H1388 0.930 . S
C1398 C1397 1.400 . S
C1398 C1401 1.386 . S
H1399 C1415 0.930 . S
H1400 C1416 0.931 . S
C1401 H1389 0.929 . S
C1401 C1395 1.390 . S
C1401 C1398 1.386 . S
C1402 C1397 1.490 . S
C1402 C1404 1.395 . S
C1402 C1405 1.403 1_655 S
H1403 C1409 0.930 . S
C1404 H1390 0.930 . S
C1404 C1402 1.395 . S
C1404 C1407 1.403 1_655 S
C1405 C1402 1.403 1_455 S
C1405 C1406 1.524 . S
C1405 C1409 1.400 . S
C1406 H1391 0.960 . S
C1406 H1392 0.960 . S
C1406 H1393 0.908 1_455 S
C1406 C1405 1.524 . S
C1407 C1404 1.403 1_455 S
C1407 C1408 1.392 . S
C1407 C1411 1.495 . S
C1408 C1407 1.392 . S
C1408 C1409 1.385 . S
C1408 C1410 1.478 . S
C1409 H1403 0.930 . S
C1409 C1405 1.400 . S
C1409 C1408 1.385 . S
C1410 C1408 1.478 . S
C1410 C1412 1.381 . S
C1410 C1416 1.383 . S
C1411 C1407 1.495 . S
C1411 H1417 0.959 1_455 S
C1411 H1418 0.961 . S
C1411 H1419 0.960 . S
C1412 C1410 1.381 . S
C1412 C1413 1.394 . S
C1412 H1420 0.930 . S
C1413 C1412 1.394 . S
C1413 C1414 1.383 . S
C1413 H1421 0.929 . S
C1414 C1413 1.383 . S
C1414 C1415 1.377 . S
C1415 H1399 0.930 . S
C1415 C1414 1.377 . S
C1415 C1416 1.379 . S
C1416 H1400 0.931 . S
C1416 C1410 1.383 . S
C1416 C1415 1.379 . S
H1417 C1411 0.959 1_655 S
H1418 C1411 0.961 . S
H1419 C1411 0.960 . S
H1420 C1412 0.930 . S
H1421 C1413 0.929 . S
H1422 C1430 0.929 . S
H1423 C1432 0.930 . S
H1424 C1434 0.930 . S
H1425 C1437 0.929 . S
H1426 C1440 0.930 . S
H1427 C1442 0.960 . S
H1428 C1442 0.960 . S
H1429 C1442 0.960 . S
C1430 H1422 0.929 . S
C1430 C1431 1.377 . S
C1430 C1432 1.384 . S
C1431 C1430 1.377 . S
C1431 C1437 1.390 . S
C1432 H1423 0.930 . S
C1432 C1430 1.384 . S
C1432 C1433 1.372 . S
C1433 C1432 1.372 . S
C1433 C1434 1.400 . S
C1433 C1438 1.490 . S
C1434 H1424 0.930 . S
C1434 C1433 1.400 . S
C1434 C1437 1.386 . S
H1435 C1451 0.930 . S
H1436 C1452 0.931 . S
C1437 H1425 0.929 . S
C1437 C1431 1.390 . S
C1437 C1434 1.386 . S
C1438 C1433 1.490 . S
C1438 C1440 1.395 . S
C1438 C1441 1.403 . S
H1439 C1445 0.930 . S
C1440 H1426 0.930 . S
C1440 C1438 1.395 . S
C1440 C1443 1.403 . S
C1441 C1438 1.403 . S
C1441 C1442 1.524 . S
C1441 C1445 1.400 . S
C1442 H1427 0.960 . S
C1442 H1428 0.960 . S
C1442 H1429 0.960 . S
C1442 C1441 1.524 . S
C1443 C1440 1.403 . S
C1443 C1444 1.392 . S
C1443 C1447 1.495 . S
C1444 C1443 1.392 . S
C1444 C1445 1.385 . S
C1444 C1446 1.478 . S
C1445 H1439 0.930 . S
C1445 C1441 1.400 . S
C1445 C1444 1.385 . S
C1446 C1444 1.478 . S
C1446 C1448 1.381 . S
C1446 C1452 1.383 . S
C1447 C1443 1.495 . S
C1447 H1453 0.959 . S
C1447 H1454 0.961 . S
C1447 H1455 0.960 . S
C1448 C1446 1.381 . S
C1448 C1449 1.394 . S
C1448 H1456 0.930 . S
C1449 C1448 1.394 . S
C1449 C1450 1.383 . S
C1449 H1457 0.929 . S
C1450 C1449 1.383 . S
C1450 C1451 1.377 . S
C1451 H1435 0.930 . S
C1451 C1450 1.377 . S
C1451 C1452 1.379 . S
C1452 H1436 0.931 . S
C1452 C1446 1.383 . S
C1452 C1451 1.379 . S
H1453 C1447 0.959 . S
H1454 C1447 0.961 . S
H1455 C1447 0.960 . S
H1456 C1448 0.930 . S
H1457 C1449 0.929 . S
H1458 C1466 0.929 . S
H1459 C1468 0.930 . S
H1460 C1470 0.930 . S
H1461 C1473 0.929 . S
H1462 C1476 0.930 . S
H1463 C1478 0.960 . S
H1464 C1478 0.960 . S
H1465 C1478 0.960 . S
C1466 H1458 0.929 . S
C1466 C1467 1.377 . S
C1466 C1468 1.384 . S
C1467 C1466 1.377 . S
C1467 C1473 1.390 . S
C1468 H1459 0.930 . S
C1468 C1466 1.384 . S
C1468 C1469 1.372 . S
C1469 C1468 1.372 . S
C1469 C1470 1.400 . S
C1469 C1474 1.490 . S
C1470 H1460 0.930 . S
C1470 C1469 1.400 . S
C1470 C1473 1.386 . S
H1471 C1487 0.930 . S
H1472 C1488 0.931 . S
C1473 H1461 0.929 . S
C1473 C1467 1.390 . S
C1473 C1470 1.386 . S
C1474 C1469 1.490 . S
C1474 C1476 1.395 . S
C1474 C1477 1.403 . S
H1475 C1481 0.930 . S
C1476 H1462 0.930 . S
C1476 C1474 1.395 . S
C1476 C1479 1.403 1_545 S
C1477 C1474 1.403 . S
C1477 C1478 1.524 . S
C1477 C1481 1.400 1_545 S
C1478 H1463 0.960 . S
C1478 H1464 0.960 . S
C1478 H1465 0.960 . S
C1478 C1477 1.524 . S
C1479 C1476 1.403 1_565 S
C1479 C1480 1.392 . S
C1479 C1483 1.495 . S
C1480 C1479 1.392 . S
C1480 C1481 1.385 . S
C1480 C1482 1.478 . S
C1481 H1475 0.930 . S
C1481 C1477 1.400 1_565 S
C1481 C1480 1.385 . S
C1482 C1480 1.478 . S
C1482 C1484 1.381 . S
C1482 C1488 1.383 . S
C1483 C1479 1.495 . S
C1483 H1489 0.959 . S
C1483 H1490 0.961 . S
C1483 H1491 0.960 . S
C1484 C1482 1.381 . S
C1484 C1485 1.394 . S
C1484 H1492 0.930 . S
C1485 C1484 1.394 . S
C1485 C1486 1.383 . S
C1485 H1493 0.929 . S
C1486 C1485 1.383 . S
C1486 C1487 1.377 . S
C1487 H1471 0.930 . S
C1487 C1486 1.377 . S
C1487 C1488 1.379 . S
C1488 H1472 0.931 . S
C1488 C1482 1.383 . S
C1488 C1487 1.379 . S
H1489 C1483 0.959 . S
H1490 C1483 0.961 . S
H1491 C1483 0.960 . S
H1492 C1484 0.930 . S
H1493 C1485 0.929 . S
H1494 C1502 0.929 . S
H1495 C1504 0.930 . S
H1496 C1506 0.930 . S
H1497 C1509 0.929 . S
H1498 C1512 0.930 . S
H1499 C1514 0.960 . S
H1500 C1514 0.960 . S
H1501 C1514 0.960 . S
C1502 H1494 0.929 . S
C1502 C1503 1.377 . S
C1502 C1504 1.384 . S
C1503 C1502 1.377 . S
C1503 C1509 1.390 . S
C1504 H1495 0.930 . S
C1504 C1502 1.384 . S
C1504 C1505 1.372 . S
C1505 C1504 1.372 . S
C1505 C1506 1.400 . S
C1505 C1510 1.490 . S
C1506 H1496 0.930 . S
C1506 C1505 1.400 . S
C1506 C1509 1.386 . S
H1507 C1523 0.930 . S
H1508 C1524 0.931 . S
C1509 H1497 0.929 . S
C1509 C1503 1.390 . S
C1509 C1506 1.386 . S
C1510 C1505 1.490 . S
C1510 C1512 1.395 . S
C1510 C1513 1.403 . S
H1511 C1517 0.930 . S
C1512 H1498 0.930 . S
C1512 C1510 1.395 . S
C1512 C1515 1.403 . S
C1513 C1510 1.403 . S
C1513 C1514 1.524 . S
C1513 C1517 1.400 . S
C1514 H1499 0.960 . S
C1514 H1500 0.960 . S
C1514 H1501 0.960 . S
C1514 C1513 1.524 . S
C1515 C1512 1.403 . S
C1515 C1516 1.392 . S
C1515 C1519 1.495 . S
C1516 C1515 1.392 . S
C1516 C1517 1.385 . S
C1516 C1518 1.478 . S
C1517 H1511 0.930 . S
C1517 C1513 1.400 . S
C1517 C1516 1.385 . S
C1518 C1516 1.478 . S
C1518 C1520 1.381 . S
C1518 C1524 1.383 . S
C1519 C1515 1.495 . S
C1519 H1525 0.959 . S
C1519 H1526 0.961 . S
C1519 H1527 0.960 . S
C1520 C1518 1.381 . S
C1520 C1521 1.394 . S
C1520 H1528 0.930 . S
C1521 C1520 1.394 . S
C1521 C1522 1.383 . S
C1521 H1529 0.929 . S
C1522 C1521 1.383 . S
C1522 C1523 1.377 . S
C1523 H1507 0.930 . S
C1523 C1522 1.377 . S
C1523 C1524 1.379 . S
C1524 H1508 0.931 . S
C1524 C1518 1.383 . S
C1524 C1523 1.379 . S
H1525 C1519 0.959 . S
H1526 C1519 0.961 . S
H1527 C1519 0.960 . S
H1528 C1520 0.930 . S
H1529 C1521 0.929 . S
H1530 C1538 0.929 . S
H1531 C1540 0.930 . S
H1532 C1542 0.930 . S
H1533 C1545 0.929 . S
H1534 C1548 0.930 . S
H1535 C1550 0.960 . S
H1536 C1550 0.960 . S
H1537 C1550 0.960 . S
C1538 H1530 0.929 . S
C1538 C1539 1.377 . S
C1538 C1540 1.384 . S
C1539 C1538 1.377 . S
C1539 C1545 1.390 . S
C1540 H1531 0.930 . S
C1540 C1538 1.384 . S
C1540 C1541 1.372 . S
C1541 C1540 1.372 . S
C1541 C1542 1.400 . S
C1541 C1546 1.490 . S
C1542 H1532 0.930 . S
C1542 C1541 1.400 . S
C1542 C1545 1.386 . S
H1543 C1559 0.930 . S
H1544 C1560 0.931 . S
C1545 H1533 0.929 . S
C1545 C1539 1.390 . S
C1545 C1542 1.386 . S
C1546 C1541 1.490 . S
C1546 C1548 1.395 . S
C1546 C1549 1.403 . S
H1547 C1553 0.930 . S
C1548 H1534 0.930 . S
C1548 C1546 1.395 . S
C1548 C1551 1.403 . S
C1549 C1546 1.403 . S
C1549 C1550 1.524 . S
C1549 C1553 1.400 . S
C1550 H1535 0.960 . S
C1550 H1536 0.960 . S
C1550 H1537 0.960 . S
C1550 C1549 1.524 . S
C1551 C1548 1.403 . S
C1551 C1552 1.392 . S
C1551 C1555 1.495 . S
C1552 C1551 1.392 . S
C1552 C1553 1.385 . S
C1552 C1554 1.478 . S
C1553 H1547 0.930 . S
C1553 C1549 1.400 . S
C1553 C1552 1.385 . S
C1554 C1552 1.478 . S
C1554 C1556 1.381 . S
C1554 C1560 1.383 . S
C1555 C1551 1.495 . S
C1555 H1561 0.959 . S
C1555 H1562 0.961 . S
C1555 H1563 0.960 . S
C1556 C1554 1.381 . S
C1556 C1557 1.394 . S
C1556 H1564 0.930 . S
C1557 C1556 1.394 . S
C1557 C1558 1.383 . S
C1557 H1565 0.929 . S
C1558 C1557 1.383 . S
C1558 C1559 1.377 . S
C1559 H1543 0.930 . S
C1559 C1558 1.377 . S
C1559 C1560 1.379 . S
C1560 H1544 0.931 . S
C1560 C1554 1.383 . S
C1560 C1559 1.379 . S
H1561 C1555 0.959 . S
H1562 C1555 0.961 . S
H1563 C1555 0.960 . S
H1564 C1556 0.930 . S
H1565 C1557 0.929 . S
H1566 C1574 0.929 . S
H1567 C1576 0.930 . S
H1568 C1578 0.930 . S
H1569 C1581 0.929 . S
H1570 C1584 0.930 . S
H1571 C1586 0.960 . S
H1572 C1586 0.960 . S
H1573 C1586 0.960 . S
C1574 H1566 0.929 . S
C1574 C1575 1.377 . S
C1574 C1576 1.384 . S
C1575 C1574 1.377 . S
C1575 C1581 1.390 . S
C1576 H1567 0.930 . S
C1576 C1574 1.384 . S
C1576 C1577 1.372 . S
C1577 C1576 1.372 . S
C1577 C1578 1.400 . S
C1577 C1582 1.490 . S
C1578 H1568 0.930 . S
C1578 C1577 1.400 . S
C1578 C1581 1.386 . S
H1579 C1595 0.930 . S
H1580 C1596 0.931 . S
C1581 H1569 0.929 . S
C1581 C1575 1.390 . S
C1581 C1578 1.386 . S
C1582 C1577 1.490 . S
C1582 C1584 1.395 . S
C1582 C1585 1.403 . S
H1583 C1589 0.930 . S
C1584 H1570 0.930 . S
C1584 C1582 1.395 . S
C1584 C1587 1.403 . S
C1585 C1582 1.403 . S
C1585 C1586 1.524 . S
C1585 C1589 1.400 . S
C1586 H1571 0.960 . S
C1586 H1572 0.960 . S
C1586 H1573 0.960 . S
C1586 C1585 1.524 . S
C1587 C1584 1.403 . S
C1587 C1588 1.392 . S
C1587 C1591 1.495 . S
C1588 C1587 1.392 . S
C1588 C1589 1.385 . S
C1588 C1590 1.478 . S
C1589 H1583 0.930 . S
C1589 C1585 1.400 . S
C1589 C1588 1.385 . S
C1590 C1588 1.478 . S
C1590 C1592 1.381 . S
C1590 C1596 1.383 . S
C1591 C1587 1.495 . S
C1591 H1597 0.959 . S
C1591 H1598 0.961 . S
C1591 H1599 0.960 . S
C1592 C1590 1.381 . S
C1592 C1593 1.394 . S
C1592 H1600 0.930 . S
C1593 C1592 1.394 . S
C1593 C1594 1.383 . S
C1593 H1601 0.929 . S
C1594 C1593 1.383 . S
C1594 C1595 1.377 . S
C1595 H1579 0.930 . S
C1595 C1594 1.377 . S
C1595 C1596 1.379 . S
C1596 H1580 0.931 . S
C1596 C1590 1.383 . S
C1596 C1595 1.379 . S
H1597 C1591 0.959 . S
H1598 C1591 0.961 . S
H1599 C1591 0.960 . S
H1600 C1592 0.930 . S
H1601 C1593 0.929 . S
H1602 C1610 0.929 . S
H1603 C1612 0.930 . S
H1604 C1614 0.930 . S
H1605 C1617 0.929 . S
H1606 C1620 0.930 . S
H1607 C1622 0.960 . S
H1608 C1622 0.960 . S
H1609 C1622 0.960 . S
C1610 H1602 0.929 . S
C1610 C1611 1.377 . S
C1610 C1612 1.384 . S
C1611 C1610 1.377 . S
C1611 C1617 1.390 . S
C1612 H1603 0.930 . S
C1612 C1610 1.384 . S
C1612 C1613 1.372 . S
C1613 C1612 1.372 . S
C1613 C1614 1.400 . S
C1613 C1618 1.490 . S
C1614 H1604 0.930 . S
C1614 C1613 1.400 . S
C1614 C1617 1.386 . S
H1615 C1631 0.930 . S
H1616 C1632 0.931 . S
C1617 H1605 0.929 . S
C1617 C1611 1.390 . S
C1617 C1614 1.386 . S
C1618 C1613 1.490 . S
C1618 C1620 1.395 . S
C1618 C1621 1.403 . S
H1619 C1625 0.930 . S
C1620 H1606 0.930 . S
C1620 C1618 1.395 . S
C1620 C1623 1.403 . S
C1621 C1618 1.403 . S
C1621 C1622 1.524 . S
C1621 C1625 1.400 . S
C1622 H1607 0.960 . S
C1622 H1608 0.960 . S
C1622 H1609 0.960 . S
C1622 C1621 1.524 . S
C1623 C1620 1.403 . S
C1623 C1624 1.392 . S
C1623 C1627 1.495 . S
C1624 C1623 1.392 . S
C1624 C1625 1.385 . S
C1624 C1626 1.478 . S
C1625 H1619 0.930 . S
C1625 C1621 1.400 . S
C1625 C1624 1.385 . S
C1626 C1624 1.478 . S
C1626 C1628 1.381 . S
C1626 C1632 1.383 . S
C1627 C1623 1.495 . S
C1627 H1633 0.959 . S
C1627 H1634 0.961 . S
C1627 H1635 0.960 . S
C1628 C1626 1.381 . S
C1628 C1629 1.394 . S
C1628 H1636 0.930 . S
C1629 C1628 1.394 . S
C1629 C1630 1.383 . S
C1629 H1637 0.929 . S
C1630 C1629 1.383 . S
C1630 C1631 1.377 . S
C1631 H1615 0.930 . S
C1631 C1630 1.377 . S
C1631 C1632 1.379 . S
C1632 H1616 0.931 . S
C1632 C1626 1.383 . S
C1632 C1631 1.379 . S
H1633 C1627 0.959 . S
H1634 C1627 0.961 . S
H1635 C1627 0.960 . S
H1636 C1628 0.930 . S
H1637 C1629 0.929 . S
H1638 C1646 0.929 . S
H1639 C1648 0.930 . S
H1640 C1650 0.930 . S
H1641 C1653 0.929 . S
H1642 C1656 0.930 . S
H1643 C1658 0.960 . S
H1644 C1658 0.960 . S
H1645 C1658 0.960 . S
C1646 H1638 0.929 . S
C1646 C1647 1.377 . S
C1646 C1648 1.384 . S
C1647 C1646 1.377 . S
C1647 C1653 1.390 . S
C1648 H1639 0.930 . S
C1648 C1646 1.384 . S
C1648 C1649 1.372 . S
C1649 C1648 1.372 . S
C1649 C1650 1.400 . S
C1649 C1654 1.490 . S
C1650 H1640 0.930 . S
C1650 C1649 1.400 . S
C1650 C1653 1.386 . S
H1651 C1667 0.930 . S
H1652 C1668 0.931 . S
C1653 H1641 0.929 . S
C1653 C1647 1.390 . S
C1653 C1650 1.386 . S
C1654 C1649 1.490 . S
C1654 C1656 1.395 . S
C1654 C1657 1.403 . S
H1655 C1661 0.930 . S
C1656 H1642 0.930 . S
C1656 C1654 1.395 . S
C1656 C1659 1.403 . S
C1657 C1654 1.403 . S
C1657 C1658 1.524 . S
C1657 C1661 1.400 . S
C1658 H1643 0.960 . S
C1658 H1644 0.960 . S
C1658 H1645 0.960 . S
C1658 C1657 1.524 . S
C1659 C1656 1.403 . S
C1659 C1660 1.392 . S
C1659 C1663 1.495 . S
C1660 C1659 1.392 . S
C1660 C1661 1.385 . S
C1660 C1662 1.478 . S
C1661 H1655 0.930 . S
C1661 C1657 1.400 . S
C1661 C1660 1.385 . S
C1662 C1660 1.478 . S
C1662 C1664 1.381 . S
C1662 C1668 1.383 . S
C1663 C1659 1.495 . S
C1663 H1669 0.959 . S
C1663 H1670 0.961 . S
C1663 H1671 0.960 . S
C1664 C1662 1.381 . S
C1664 C1665 1.394 . S
C1664 H1672 0.930 . S
C1665 C1664 1.394 . S
C1665 C1666 1.383 . S
C1665 H1673 0.929 . S
C1666 C1665 1.383 . S
C1666 C1667 1.377 . S
C1667 H1651 0.930 . S
C1667 C1666 1.377 . S
C1667 C1668 1.379 . S
C1668 H1652 0.931 . S
C1668 C1662 1.383 . S
C1668 C1667 1.379 . S
H1669 C1663 0.959 . S
H1670 C1663 0.961 . S
H1671 C1663 0.960 . S
H1672 C1664 0.930 . S
H1673 C1665 0.929 . S
H1674 C1682 0.929 . S
H1675 C1684 0.930 . S
H1676 C1686 0.930 . S
H1677 C1689 0.929 . S
H1678 C1692 0.930 . S
H1679 C1694 0.960 . S
H1680 C1694 0.960 . S
H1681 C1694 0.960 . S
C1682 H1674 0.929 . S
C1682 C1683 1.377 . S
C1682 C1684 1.384 . S
C1683 C1682 1.377 . S
C1683 C1689 1.390 . S
C1684 H1675 0.930 . S
C1684 C1682 1.384 . S
C1684 C1685 1.372 . S
C1685 C1684 1.372 . S
C1685 C1686 1.400 . S
C1685 C1690 1.490 . S
C1686 H1676 0.930 . S
C1686 C1685 1.400 . S
C1686 C1689 1.386 . S
H1687 C1703 0.930 . S
H1688 C1704 0.931 . S
C1689 H1677 0.929 . S
C1689 C1683 1.390 . S
C1689 C1686 1.386 . S
C1690 C1685 1.490 . S
C1690 C1692 1.395 . S
C1690 C1693 1.403 . S
H1691 C1697 0.930 . S
C1692 H1678 0.930 . S
C1692 C1690 1.395 . S
C1692 C1695 1.403 . S
C1693 C1690 1.403 . S
C1693 C1694 1.524 . S
C1693 C1697 1.400 . S
C1694 H1679 0.960 . S
C1694 H1680 0.960 . S
C1694 H1681 0.960 . S
C1694 C1693 1.524 . S
C1695 C1692 1.403 . S
C1695 C1696 1.392 . S
C1695 C1699 1.495 . S
C1696 C1695 1.392 . S
C1696 C1697 1.385 . S
C1696 C1698 1.478 . S
C1697 H1691 0.930 . S
C1697 C1693 1.400 . S
C1697 C1696 1.385 . S
C1698 C1696 1.478 . S
C1698 C1700 1.381 . S
C1698 C1704 1.383 . S
C1699 C1695 1.495 . S
C1699 H1705 0.959 . S
C1699 H1706 0.961 . S
C1699 H1707 0.960 . S
C1700 C1698 1.381 . S
C1700 C1701 1.394 . S
C1700 H1708 0.930 . S
C1701 C1700 1.394 . S
C1701 C1702 1.383 . S
C1701 H1709 0.929 . S
C1702 C1701 1.383 . S
C1702 C1703 1.377 . S
C1703 H1687 0.930 . S
C1703 C1702 1.377 . S
C1703 C1704 1.379 . S
C1704 H1688 0.931 . S
C1704 C1698 1.383 . S
C1704 C1703 1.379 . S
H1705 C1699 0.959 . S
H1706 C1699 0.961 . S
H1707 C1699 0.960 . S
H1708 C1700 0.930 . S
H1709 C1701 0.929 . S
H1710 C1718 0.929 . S
H1711 C1720 0.930 1_565 S
H1712 C1722 0.930 . S
H1713 C1725 0.929 . S
H1714 C1728 0.930 . S
H1715 C1730 0.960 . S
H1716 C1730 0.960 . S
H1717 C1730 0.960 . S
C1718 H1710 0.929 . S
C1718 C1719 1.377 . S
C1718 C1720 1.384 . S
C1719 C1718 1.377 . S
C1719 C1725 1.390 . S
C1720 H1711 0.930 1_545 S
C1720 C1718 1.384 . S
C1720 C1721 1.372 1_545 S
C1721 C1720 1.372 1_565 S
C1721 C1722 1.400 1_565 S
C1721 C1726 1.490 . S
C1722 H1712 0.930 . S
C1722 C1721 1.400 1_545 S
C1722 C1725 1.386 . S
H1723 C1739 0.930 . S
H1724 C1740 0.931 . S
C1725 H1713 0.929 . S
C1725 C1719 1.390 . S
C1725 C1722 1.386 . S
C1726 C1721 1.490 . S
C1726 C1728 1.395 . S
C1726 C1729 1.403 . S
H1727 C1733 0.930 . S
C1728 H1714 0.930 . S
C1728 C1726 1.395 . S
C1728 C1731 1.403 . S
C1729 C1726 1.403 . S
C1729 C1730 1.524 . S
C1729 C1733 1.400 . S
C1730 H1715 0.960 . S
C1730 H1716 0.960 . S
C1730 H1717 0.960 . S
C1730 C1729 1.524 . S
C1731 C1728 1.403 . S
C1731 C1732 1.392 . S
C1731 C1735 1.495 . S
C1732 C1731 1.392 . S
C1732 C1733 1.385 . S
C1732 C1734 1.478 . S
C1733 H1727 0.930 . S
C1733 C1729 1.400 . S
C1733 C1732 1.385 . S
C1734 C1732 1.478 . S
C1734 C1736 1.381 . S
C1734 C1740 1.383 . S
C1735 C1731 1.495 . S
C1735 H1741 0.959 . S
C1735 H1742 0.961 . S
C1735 H1743 0.960 . S
C1736 C1734 1.381 . S
C1736 C1737 1.394 . S
C1736 H1744 0.930 . S
C1737 C1736 1.394 . S
C1737 C1738 1.383 . S
C1737 H1745 0.929 . S
C1738 C1737 1.383 . S
C1738 C1739 1.377 . S
C1739 H1723 0.930 . S
C1739 C1738 1.377 . S
C1739 C1740 1.379 . S
C1740 H1724 0.931 . S
C1740 C1734 1.383 . S
C1740 C1739 1.379 . S
H1741 C1735 0.959 . S
H1742 C1735 0.961 . S
H1743 C1735 0.960 . S
H1744 C1736 0.930 . S
H1745 C1737 0.929 . S
H1746 C1754 0.929 . S
H1747 C1756 0.930 . S
H1748 C1758 0.968 . S
H1749 C1761 0.929 . S
H1750 C1764 0.930 . S
H1751 C1766 0.960 . S
H1752 C1766 0.960 . S
H1753 C1766 0.960 . S
C1754 H1746 0.929 . S
C1754 C1755 1.377 . S
C1754 C1756 1.384 1_655 S
C1755 C1754 1.377 . S
C1755 C1761 1.390 . S
C1756 H1747 0.930 . S
C1756 C1754 1.384 1_455 S
C1756 C1757 1.372 . S
C1757 C1756 1.372 . S
C1757 C1758 1.420 . S
C1757 C1762 1.490 . S
C1758 H1748 0.968 . S
C1758 C1757 1.420 . S
C1758 C1761 1.330 1_455 S
H1759 C1775 0.930 . S
H1760 C1776 0.931 . S
C1761 H1749 0.929 . S
C1761 C1755 1.390 . S
C1761 C1758 1.330 1_655 S
C1762 C1757 1.490 . S
C1762 C1764 1.395 . S
C1762 C1765 1.403 . S
H1763 C1769 0.930 . S
C1764 H1750 0.930 . S
C1764 C1762 1.395 . S
C1764 C1767 1.403 . S
C1765 C1762 1.403 . S
C1765 C1766 1.524 . S
C1765 C1769 1.400 . S
C1766 H1751 0.960 . S
C1766 H1752 0.960 . S
C1766 H1753 0.960 . S
C1766 C1765 1.524 . S
C1767 C1764 1.403 . S
C1767 C1768 1.392 . S
C1767 C1771 1.495 . S
C1768 C1767 1.392 . S
C1768 C1769 1.385 . S
C1768 C1770 1.478 . S
C1769 H1763 0.930 . S
C1769 C1765 1.400 . S
C1769 C1768 1.385 . S
C1770 C1768 1.478 . S
C1770 C1772 1.381 . S
C1770 C1776 1.383 . S
C1771 C1767 1.495 . S
C1771 H1777 0.959 . S
C1771 H1778 0.961 . S
C1771 H1779 0.960 . S
C1772 C1770 1.381 . S
C1772 C1773 1.394 . S
C1772 H1780 0.930 . S
C1773 C1772 1.394 . S
C1773 C1774 1.383 . S
C1773 H1781 0.929 . S
C1774 C1773 1.383 . S
C1774 C1775 1.377 . S
C1775 H1759 0.930 . S
C1775 C1774 1.377 . S
C1775 C1776 1.379 . S
C1776 H1760 0.931 . S
C1776 C1770 1.383 . S
C1776 C1775 1.379 . S
H1777 C1771 0.959 . S
H1778 C1771 0.961 . S
H1779 C1771 0.960 . S
H1780 C1772 0.930 . S
H1781 C1773 0.929 . S
H1782 C1790 0.929 . S
H1783 C1792 0.930 . S
H1784 C1794 0.930 . S
H1785 C1797 0.929 . S
H1786 C1800 0.930 . S
H1787 C1802 0.960 . S
H1788 C1802 0.960 . S
H1789 C1802 0.960 . S
C1790 H1782 0.929 . S
C1790 C1791 1.377 . S
C1790 C1792 1.384 . S
C1791 C1790 1.377 . S
C1791 C1797 1.390 . S
C1792 H1783 0.930 . S
C1792 C1790 1.384 . S
C1792 C1793 1.372 . S
C1793 C1792 1.372 . S
C1793 C1794 1.400 . S
C1793 C1798 1.490 . S
C1794 H1784 0.930 . S
C1794 C1793 1.400 . S
C1794 C1797 1.386 . S
H1795 C1811 0.930 . S
H1796 C1812 0.931 . S
C1797 H1785 0.929 . S
C1797 C1791 1.390 . S
C1797 C1794 1.386 . S
C1798 C1793 1.490 . S
C1798 C1800 1.395 . S
C1798 C1801 1.403 . S
H1799 C1805 0.930 . S
C1800 H1786 0.930 . S
C1800 C1798 1.395 . S
C1800 C1803 1.403 . S
C1801 C1798 1.403 . S
C1801 C1802 1.524 . S
C1801 C1805 1.400 . S
C1802 H1787 0.960 . S
C1802 H1788 0.960 . S
C1802 H1789 0.960 . S
C1802 C1801 1.524 . S
C1803 C1800 1.403 . S
C1803 C1804 1.392 . S
C1803 C1807 1.495 . S
C1804 C1803 1.392 . S
C1804 C1805 1.385 . S
C1804 C1806 1.478 . S
C1805 H1799 0.930 . S
C1805 C1801 1.400 . S
C1805 C1804 1.385 . S
C1806 C1804 1.478 . S
C1806 C1808 1.381 . S
C1806 C1812 1.383 . S
C1807 C1803 1.495 . S
C1807 H1813 0.959 . S
C1807 H1814 0.961 . S
C1807 H1815 0.960 . S
C1808 C1806 1.381 . S
C1808 C1809 1.394 . S
C1808 H1816 0.930 . S
C1809 C1808 1.394 . S
C1809 C1810 1.383 . S
C1809 H1817 0.929 . S
C1810 C1809 1.383 . S
C1810 C1811 1.377 . S
C1811 H1795 0.930 . S
C1811 C1810 1.377 . S
C1811 C1812 1.379 . S
C1812 H1796 0.931 . S
C1812 C1806 1.383 . S
C1812 C1811 1.379 . S
H1813 C1807 0.959 . S
H1814 C1807 0.961 . S
H1815 C1807 0.960 . S
H1816 C1808 0.930 . S
H1817 C1809 0.929 . S
H1818 C1826 0.929 . S
H1819 C1828 0.930 . S
H1820 C1830 0.930 . S
H1821 C1833 0.929 . S
H1822 C1836 0.930 . S
H1823 C1838 0.960 . S
H1824 C1838 0.960 . S
H1825 C1838 0.960 . S
C1826 H1818 0.929 . S
C1826 C1827 1.377 . S
C1826 C1828 1.384 . S
C1827 C1826 1.377 . S
C1827 C1833 1.390 . S
C1828 H1819 0.930 . S
C1828 C1826 1.384 . S
C1828 C1829 1.372 . S
C1829 C1828 1.372 . S
C1829 C1830 1.400 . S
C1829 C1834 1.490 . S
C1830 H1820 0.930 . S
C1830 C1829 1.400 . S
C1830 C1833 1.386 . S
H1831 C1847 0.930 . S
H1832 C1848 0.931 . S
C1833 H1821 0.929 . S
C1833 C1827 1.390 . S
C1833 C1830 1.386 . S
C1834 C1829 1.490 . S
C1834 C1836 1.395 . S
C1834 C1837 1.403 . S
H1835 C1841 0.930 . S
C1836 H1822 0.930 . S
C1836 C1834 1.395 . S
C1836 C1839 1.403 . S
C1837 C1834 1.403 . S
C1837 C1838 1.524 . S
C1837 C1841 1.400 . S
C1838 H1823 0.960 . S
C1838 H1824 0.960 . S
C1838 H1825 0.960 . S
C1838 C1837 1.524 . S
C1839 C1836 1.403 . S
C1839 C1840 1.392 . S
C1839 C1843 1.495 . S
C1840 C1839 1.392 . S
C1840 C1841 1.385 . S
C1840 C1842 1.478 . S
C1841 H1835 0.930 . S
C1841 C1837 1.400 . S
C1841 C1840 1.385 . S
C1842 C1840 1.478 . S
C1842 C1844 1.381 . S
C1842 C1848 1.383 . S
C1843 C1839 1.495 . S
C1843 H1849 0.959 . S
C1843 H1850 0.961 . S
C1843 H1851 0.960 . S
C1844 C1842 1.381 . S
C1844 C1845 1.394 . S
C1844 H1852 0.930 . S
C1845 C1844 1.394 . S
C1845 C1846 1.383 . S
C1845 H1853 0.929 . S
C1846 C1845 1.383 . S
C1846 C1847 1.377 . S
C1847 H1831 0.930 . S
C1847 C1846 1.377 . S
C1847 C1848 1.379 . S
C1848 H1832 0.931 . S
C1848 C1842 1.383 . S
C1848 C1847 1.379 . S
H1849 C1843 0.959 . S
H1850 C1843 0.961 . S
H1851 C1843 0.960 . S
H1852 C1844 0.930 . S
H1853 C1845 0.929 . S
H1854 C1862 0.929 . S
H1855 C1864 0.930 . S
H1856 C1866 0.930 . S
H1857 C1869 0.929 . S
H1858 C1872 0.930 . S
H1859 C1874 0.960 . S
H1860 C1874 0.960 . S
H1861 C1874 0.960 . S
C1862 H1854 0.929 . S
C1862 C1863 1.377 . S
C1862 C1864 1.384 . S
C1863 C1862 1.377 . S
C1863 C1869 1.390 . S
C1864 H1855 0.930 . S
C1864 C1862 1.384 . S
C1864 C1865 1.372 . S
C1865 C1864 1.372 . S
C1865 C1866 1.400 . S
C1865 C1870 1.490 . S
C1866 H1856 0.930 . S
C1866 C1865 1.400 . S
C1866 C1869 1.386 . S
H1867 C1883 0.930 . S
H1868 C1884 0.931 . S
C1869 H1857 0.929 . S
C1869 C1863 1.390 . S
C1869 C1866 1.386 . S
C1870 C1865 1.490 . S
C1870 C1872 1.395 . S
C1870 C1873 1.403 . S
H1871 C1877 0.930 . S
C1872 H1858 0.930 . S
C1872 C1870 1.395 . S
C1872 C1875 1.403 . S
C1873 C1870 1.403 . S
C1873 C1874 1.524 . S
C1873 C1877 1.400 . S
C1874 H1859 0.960 . S
C1874 H1860 0.960 . S
C1874 H1861 0.960 . S
C1874 C1873 1.524 . S
C1875 C1872 1.403 . S
C1875 C1876 1.392 . S
C1875 C1879 1.495 . S
C1876 C1875 1.392 . S
C1876 C1877 1.385 . S
C1876 C1878 1.478 . S
C1877 H1871 0.930 . S
C1877 C1873 1.400 . S
C1877 C1876 1.385 . S
C1878 C1876 1.478 . S
C1878 C1880 1.381 . S
C1878 C1884 1.383 . S
C1879 C1875 1.495 . S
C1879 H1885 0.959 . S
C1879 H1886 0.961 . S
C1879 H1887 0.960 . S
C1880 C1878 1.381 . S
C1880 C1881 1.394 . S
C1880 H1888 0.930 . S
C1881 C1880 1.394 . S
C1881 C1882 1.383 . S
C1881 H1889 0.929 . S
C1882 C1881 1.383 . S
C1882 C1883 1.377 . S
C1883 H1867 0.930 . S
C1883 C1882 1.377 . S
C1883 C1884 1.379 . S
C1884 H1868 0.931 . S
C1884 C1878 1.383 . S
C1884 C1883 1.379 . S
H1885 C1879 0.959 . S
H1886 C1879 0.961 . S
H1887 C1879 0.960 . S
H1888 C1880 0.930 . S
H1889 C1881 0.929 . S
H1890 C1898 0.929 . S
H1891 C1900 0.930 . S
H1892 C1902 0.930 . S
H1893 C1905 0.929 . S
H1894 C1908 0.930 . S
H1895 C1910 0.960 . S
H1896 C1910 0.960 . S
H1897 C1910 0.960 . S
C1898 H1890 0.929 . S
C1898 C1899 1.377 . S
C1898 C1900 1.384 . S
C1899 C1898 1.377 . S
C1899 C1905 1.390 . S
C1900 H1891 0.930 . S
C1900 C1898 1.384 . S
C1900 C1901 1.372 . S
C1901 C1900 1.372 . S
C1901 C1902 1.400 . S
C1901 C1906 1.490 . S
C1902 H1892 0.930 . S
C1902 C1901 1.400 . S
C1902 C1905 1.386 . S
H1903 C1919 0.930 . S
H1904 C1920 0.931 . S
C1905 H1893 0.929 . S
C1905 C1899 1.390 . S
C1905 C1902 1.386 . S
C1906 C1901 1.490 . S
C1906 C1908 1.395 . S
C1906 C1909 1.403 . S
H1907 C1913 0.930 . S
C1908 H1894 0.930 . S
C1908 C1906 1.395 . S
C1908 C1911 1.403 . S
C1909 C1906 1.403 . S
C1909 C1910 1.524 . S
C1909 C1913 1.400 . S
C1910 H1895 0.960 . S
C1910 H1896 0.960 . S
C1910 H1897 0.960 . S
C1910 C1909 1.524 . S
C1911 C1908 1.403 . S
C1911 C1912 1.392 . S
C1911 C1915 1.495 . S
C1912 C1911 1.392 . S
C1912 C1913 1.385 . S
C1912 C1914 1.478 . S
C1913 H1907 0.930 . S
C1913 C1909 1.400 . S
C1913 C1912 1.385 . S
C1914 C1912 1.478 . S
C1914 C1916 1.381 . S
C1914 C1920 1.383 . S
C1915 C1911 1.495 . S
C1915 H1921 0.959 . S
C1915 H1922 0.961 . S
C1915 H1923 0.960 . S
C1916 C1914 1.381 . S
C1916 C1917 1.394 . S
C1916 H1924 0.930 . S
C1917 C1916 1.394 . S
C1917 C1918 1.383 . S
C1917 H1925 0.929 . S
C1918 C1917 1.383 . S
C1918 C1919 1.377 . S
C1919 H1903 0.930 . S
C1919 C1918 1.377 . S
C1919 C1920 1.379 . S
C1920 H1904 0.931 . S
C1920 C1914 1.383 . S
C1920 C1919 1.379 . S
H1921 C1915 0.959 . S
H1922 C1915 0.961 . S
H1923 C1915 0.960 . S
H1924 C1916 0.930 . S
H1925 C1917 0.929 . S
H1926 C1934 0.929 . S
H1927 C1936 0.930 . S
H1928 C1938 0.930 . S
H1929 C1941 0.929 . S
H1930 C1944 0.930 . S
H1931 C1946 0.960 . S
H1932 C1946 0.960 . S
H1933 C1946 0.960 . S
C1934 H1926 0.929 . S
C1934 C1935 1.377 . S
C1934 C1936 1.384 . S
C1935 C1934 1.377 . S
C1935 C1941 1.390 . S
C1936 H1927 0.930 . S
C1936 C1934 1.384 . S
C1936 C1937 1.372 . S
C1937 C1936 1.372 . S
C1937 C1938 1.400 . S
C1937 C1942 1.490 . S
C1938 H1928 0.930 . S
C1938 C1937 1.400 . S
C1938 C1941 1.386 . S
H1939 C1955 0.930 . S
H1940 C1956 0.931 . S
C1941 H1929 0.929 . S
C1941 C1935 1.390 . S
C1941 C1938 1.386 . S
C1942 C1937 1.490 . S
C1942 C1944 1.395 . S
C1942 C1945 1.403 1_565 S
H1943 C1949 0.930 . S
C1944 H1930 0.930 . S
C1944 C1942 1.395 . S
C1944 C1947 1.403 1_565 S
C1945 C1942 1.403 1_545 S
C1945 C1946 1.524 . S
C1945 C1949 1.400 . S
C1946 H1931 0.960 . S
C1946 H1932 0.960 . S
C1946 H1933 0.960 . S
C1946 C1945 1.524 . S
C1947 C1944 1.403 1_545 S
C1947 C1948 1.392 . S
C1947 C1951 1.495 . S
C1948 C1947 1.392 . S
C1948 C1949 1.385 . S
C1948 C1950 1.478 . S
C1949 H1943 0.930 . S
C1949 C1945 1.400 . S
C1949 C1948 1.385 . S
C1950 C1948 1.478 . S
C1950 C1952 1.381 . S
C1950 C1956 1.383 . S
C1951 C1947 1.495 . S
C1951 H1957 0.959 1_545 S
C1951 H1958 0.961 . S
C1951 H1959 0.960 . S
C1952 C1950 1.381 . S
C1952 C1953 1.394 . S
C1952 H1960 0.930 . S
C1953 C1952 1.394 . S
C1953 C1954 1.383 . S
C1953 H1961 0.929 . S
C1954 C1953 1.383 . S
C1954 C1955 1.377 . S
C1955 H1939 0.930 . S
C1955 C1954 1.377 . S
C1955 C1956 1.379 . S
C1956 H1940 0.931 . S
C1956 C1950 1.383 . S
C1956 C1955 1.379 . S
H1957 C1951 0.959 1_565 S
H1958 C1951 0.961 . S
H1959 C1951 0.960 . S
H1960 C1952 0.930 . S
H1961 C1953 0.929 . S
H1962 C1970 0.929 . S
H1963 C1972 0.930 . S
H1964 C1974 0.930 . S
H1965 C1977 0.929 . S
H1966 C1980 0.930 . S
H1967 C1982 0.960 . S
H1968 C1982 0.960 . S
H1969 C1982 0.960 . S
C1970 H1962 0.929 . S
C1970 C1971 1.377 . S
C1970 C1972 1.384 . S
C1971 C1970 1.377 . S
C1971 C1977 1.390 . S
C1972 H1963 0.930 . S
C1972 C1970 1.384 . S
C1972 C1973 1.372 . S
C1973 C1972 1.372 . S
C1973 C1974 1.400 . S
C1973 C1978 1.490 . S
C1974 H1964 0.930 . S
C1974 C1973 1.400 . S
C1974 C1977 1.386 . S
H1975 C1991 0.930 . S
H1976 C1992 0.931 . S
C1977 H1965 0.929 . S
C1977 C1971 1.390 . S
C1977 C1974 1.386 . S
C1978 C1973 1.490 . S
C1978 C1980 1.395 . S
C1978 C1981 1.403 . S
H1979 C1985 0.930 . S
C1980 H1966 0.930 . S
C1980 C1978 1.395 . S
C1980 C1983 1.403 1_455 S
C1981 C1978 1.403 . S
C1981 C1982 1.524 . S
C1981 C1985 1.400 1_455 S
C1982 H1967 0.960 . S
C1982 H1968 0.960 . S
C1982 H1969 0.960 . S
C1982 C1981 1.524 . S
C1983 C1980 1.403 1_655 S
C1983 C1984 1.392 . S
C1983 C1987 1.495 . S
C1984 C1983 1.392 . S
C1984 C1985 1.385 . S
C1984 C1986 1.478 . S
C1985 H1979 0.930 . S
C1985 C1981 1.400 1_655 S
C1985 C1984 1.385 . S
C1986 C1984 1.478 . S
C1986 C1988 1.381 . S
C1986 C1992 1.383 . S
C1987 C1983 1.495 . S
C1987 H1993 0.959 . S
C1987 H1994 0.961 . S
C1987 H1995 0.960 . S
C1988 C1986 1.381 . S
C1988 C1989 1.394 . S
C1988 H1996 0.930 . S
C1989 C1988 1.394 . S
C1989 C1990 1.383 . S
C1989 H1997 0.929 . S
C1990 C1989 1.383 . S
C1990 C1991 1.377 . S
C1991 H1975 0.930 . S
C1991 C1990 1.377 . S
C1991 C1992 1.379 . S
C1992 H1976 0.931 . S
C1992 C1986 1.383 . S
C1992 C1991 1.379 . S
H1993 C1987 0.959 . S
H1994 C1987 0.961 . S
H1995 C1987 0.960 . S
H1996 C1988 0.930 . S
H1997 C1989 0.929 . S
H1998 C2006 0.929 . S
H1999 C2008 0.930 . S
H2000 C2010 0.930 . S
H2001 C2013 0.929 . S
H2002 C2016 0.930 . S
H2003 C2018 0.960 . S
H2004 C2018 0.960 . S
H2005 C2018 0.960 . S
C2006 H1998 0.929 . S
C2006 C2007 1.377 . S
C2006 C2008 1.384 . S
C2007 C2006 1.377 . S
C2007 C2013 1.390 . S
C2008 H1999 0.930 . S
C2008 C2006 1.384 . S
C2008 C2009 1.372 . S
C2009 C2008 1.372 . S
C2009 C2010 1.400 . S
C2009 C2014 1.490 . S
C2010 H2000 0.930 . S
C2010 C2009 1.400 . S
C2010 C2013 1.386 . S
H2011 C2027 0.930 . S
H2012 C2028 0.931 . S
C2013 H2001 0.929 . S
C2013 C2007 1.390 . S
C2013 C2010 1.386 . S
C2014 C2009 1.490 . S
C2014 C2016 1.395 . S
C2014 C2017 1.403 . S
H2015 C2021 0.930 . S
C2016 H2002 0.930 . S
C2016 C2014 1.395 . S
C2016 C2019 1.403 . S
C2017 C2014 1.403 . S
C2017 C2018 1.524 . S
C2017 C2021 1.400 . S
C2018 H2003 0.960 . S
C2018 H2004 0.960 . S
C2018 H2005 0.960 . S
C2018 C2017 1.524 . S
C2019 C2016 1.403 . S
C2019 C2020 1.392 . S
C2019 C2023 1.495 . S
C2020 C2019 1.392 . S
C2020 C2021 1.385 . S
C2020 C2022 1.478 . S
C2021 H2015 0.930 . S
C2021 C2017 1.400 . S
C2021 C2020 1.385 . S
C2022 C2020 1.478 . S
C2022 C2024 1.381 . S
C2022 C2028 1.383 . S
C2023 C2019 1.495 . S
C2023 H2029 0.959 . S
C2023 H2030 0.961 . S
C2023 H2031 0.960 . S
C2024 C2022 1.381 . S
C2024 C2025 1.394 . S
C2024 H2032 0.930 . S
C2025 C2024 1.394 . S
C2025 C2026 1.383 . S
C2025 H2033 0.929 . S
C2026 C2025 1.383 . S
C2026 C2027 1.377 . S
C2027 H2011 0.930 . S
C2027 C2026 1.377 . S
C2027 C2028 1.379 . S
C2028 H2012 0.931 . S
C2028 C2022 1.383 . S
C2028 C2027 1.379 . S
H2029 C2023 0.959 . S
H2030 C2023 0.961 . S
H2031 C2023 0.960 . S
H2032 C2024 0.930 . S
H2033 C2025 0.929 . S
H2034 C2042 0.929 . S
H2035 C2044 0.930 . S
H2036 C2046 0.930 . S
H2037 C2049 0.929 . S
H2038 C2052 0.930 . S
H2039 C2054 0.960 . S
H2040 C2054 0.960 . S
H2041 C2054 0.960 . S
C2042 H2034 0.929 . S
C2042 C2043 1.377 . S
C2042 C2044 1.384 1_455 S
C2043 C2042 1.377 . S
C2043 C2049 1.390 . S
C2044 H2035 0.930 . S
C2044 C2042 1.384 1_655 S
C2044 C2045 1.372 . S
C2045 C2044 1.372 . S
C2045 C2046 1.400 1_655 S
C2045 C2050 1.490 . S
C2046 H2036 0.930 . S
C2046 C2045 1.400 1_455 S
C2046 C2049 1.386 . S
H2047 C2063 0.930 . S
H2048 C2064 0.931 . S
C2049 H2037 0.929 . S
C2049 C2043 1.390 . S
C2049 C2046 1.386 . S
C2050 C2045 1.490 . S
C2050 C2052 1.395 . S
C2050 C2053 1.403 . S
H2051 C2057 0.930 . S
C2052 H2038 0.930 . S
C2052 C2050 1.395 . S
C2052 C2055 1.403 . S
C2053 C2050 1.403 . S
C2053 C2054 1.524 . S
C2053 C2057 1.400 . S
C2054 H2039 0.960 . S
C2054 H2040 0.960 . S
C2054 H2041 0.960 . S
C2054 C2053 1.524 . S
C2055 C2052 1.403 . S
C2055 C2056 1.392 . S
C2055 C2059 1.495 . S
C2056 C2055 1.392 . S
C2056 C2057 1.385 . S
C2056 C2058 1.478 . S
C2057 H2051 0.930 . S
C2057 C2053 1.400 . S
C2057 C2056 1.385 . S
C2058 C2056 1.478 . S
C2058 C2060 1.381 . S
C2058 C2064 1.383 . S
C2059 C2055 1.495 . S
C2059 H2065 0.959 . S
C2059 H2066 0.961 . S
C2059 H2067 0.960 . S
C2060 C2058 1.381 . S
C2060 C2061 1.394 . S
C2060 H2068 0.930 . S
C2061 C2060 1.394 . S
C2061 C2062 1.383 . S
C2061 H2069 0.929 . S
C2062 C2061 1.383 . S
C2062 C2063 1.377 . S
C2063 H2047 0.930 . S
C2063 C2062 1.377 . S
C2063 C2064 1.379 . S
C2064 H2048 0.931 . S
C2064 C2058 1.383 . S
C2064 C2063 1.379 . S
H2065 C2059 0.959 . S
H2066 C2059 0.961 . S
H2067 C2059 0.960 . S
H2068 C2060 0.930 . S
H2069 C2061 0.929 . S
H2070 C2078 0.929 . S
H2071 C2080 0.930 . S
H2072 C2082 0.930 . S
H2073 C2085 0.929 . S
H2074 C2088 0.930 . S
H2075 C2090 0.960 . S
H2076 C2090 0.960 . S
H2077 C2090 0.960 . S
C2078 H2070 0.929 . S
C2078 C2079 1.377 . S
C2078 C2080 1.384 . S
C2079 C2078 1.377 . S
C2079 C2085 1.390 . S
C2080 H2071 0.930 . S
C2080 C2078 1.384 . S
C2080 C2081 1.372 . S
C2081 C2080 1.372 . S
C2081 C2082 1.400 . S
C2081 C2086 1.490 . S
C2082 H2072 0.930 . S
C2082 C2081 1.400 . S
C2082 C2085 1.386 . S
H2083 C2099 0.930 . S
H2084 C2100 0.931 . S
C2085 H2073 0.929 . S
C2085 C2079 1.390 . S
C2085 C2082 1.386 . S
C2086 C2081 1.490 . S
C2086 C2088 1.395 . S
C2086 C2089 1.403 . S
H2087 C2093 0.930 . S
C2088 H2074 0.930 . S
C2088 C2086 1.395 . S
C2088 C2091 1.403 . S
C2089 C2086 1.403 . S
C2089 C2090 1.524 . S
C2089 C2093 1.400 . S
C2090 H2075 0.960 . S
C2090 H2076 0.960 . S
C2090 H2077 0.960 . S
C2090 C2089 1.524 . S
C2091 C2088 1.403 . S
C2091 C2092 1.392 . S
C2091 C2095 1.495 . S
C2092 C2091 1.392 . S
C2092 C2093 1.385 . S
C2092 C2094 1.478 . S
C2093 H2087 0.930 . S
C2093 C2089 1.400 . S
C2093 C2092 1.385 . S
C2094 C2092 1.478 . S
C2094 C2096 1.381 . S
C2094 C2100 1.383 . S
C2095 C2091 1.495 . S
C2095 H2101 0.959 . S
C2095 H2102 0.961 . S
C2095 H2103 0.960 . S
C2096 C2094 1.381 . S
C2096 C2097 1.394 . S
C2096 H2104 0.930 . S
C2097 C2096 1.394 . S
C2097 C2098 1.383 . S
C2097 H2105 0.929 . S
C2098 C2097 1.383 . S
C2098 C2099 1.377 . S
C2099 H2083 0.930 . S
C2099 C2098 1.377 . S
C2099 C2100 1.379 . S
C2100 H2084 0.931 . S
C2100 C2094 1.383 . S
C2100 C2099 1.379 . S
H2101 C2095 0.959 . S
H2102 C2095 0.961 . S
H2103 C2095 0.960 . S
H2104 C2096 0.930 . S
H2105 C2097 0.929 . S
H2106 C2114 0.929 . S
H2107 C2116 0.930 . S
H2108 C2118 0.930 . S
H2109 C2121 0.929 . S
H2110 C2124 0.930 . S
H2111 C2126 0.960 . S
H2112 C2126 0.960 . S
H2113 C2126 0.960 . S
C2114 H2106 0.929 . S
C2114 C2115 1.377 . S
C2114 C2116 1.384 1_565 S
C2115 C2114 1.377 . S
C2115 C2121 1.390 . S
C2116 H2107 0.930 . S
C2116 C2114 1.384 1_545 S
C2116 C2117 1.372 . S
C2117 C2116 1.372 . S
C2117 C2118 1.400 1_545 S
C2117 C2122 1.490 . S
C2118 H2108 0.930 . S
C2118 C2117 1.400 1_565 S
C2118 C2121 1.386 . S
H2119 C2135 0.930 . S
H2120 C2136 0.931 . S
C2121 H2109 0.929 . S
C2121 C2115 1.390 . S
C2121 C2118 1.386 . S
C2122 C2117 1.490 . S
C2122 C2124 1.395 . S
C2122 C2125 1.403 . S
H2123 C2129 0.930 . S
C2124 H2110 0.930 . S
C2124 C2122 1.395 . S
C2124 C2127 1.403 . S
C2125 C2122 1.403 . S
C2125 C2126 1.524 . S
C2125 C2129 1.400 . S
C2126 H2111 0.960 . S
C2126 H2112 0.960 . S
C2126 H2113 0.960 . S
C2126 C2125 1.524 . S
C2127 C2124 1.403 . S
C2127 C2128 1.392 . S
C2127 C2131 1.495 . S
C2128 C2127 1.392 . S
C2128 C2129 1.385 . S
C2128 C2130 1.478 . S
C2129 H2123 0.930 . S
C2129 C2125 1.400 . S
C2129 C2128 1.385 . S
C2130 C2128 1.478 . S
C2130 C2132 1.381 . S
C2130 C2136 1.383 . S
C2131 C2127 1.495 . S
C2131 H2137 0.959 . S
C2131 H2138 0.961 . S
C2131 H2139 0.960 . S
C2132 C2130 1.381 . S
C2132 C2133 1.394 . S
C2132 H2140 0.930 . S
C2133 C2132 1.394 . S
C2133 C2134 1.383 . S
C2133 H2141 0.929 . S
C2134 C2133 1.383 . S
C2134 C2135 1.377 . S
C2135 H2119 0.930 . S
C2135 C2134 1.377 . S
C2135 C2136 1.379 . S
C2136 H2120 0.931 . S
C2136 C2130 1.383 . S
C2136 C2135 1.379 . S
H2137 C2131 0.959 . S
H2138 C2131 0.961 . S
H2139 C2131 0.960 . S
H2140 C2132 0.930 . S
H2141 C2133 0.929 . S
H2142 C2150 0.929 . S
H2143 C2152 0.930 . S
H2144 C2154 0.930 . S
H2145 C2157 0.929 . S
H2146 C2160 0.930 . S
H2147 C2162 0.960 . S
H2148 C2162 0.960 . S
H2149 C2162 0.960 . S
C2150 H2142 0.929 . S
C2150 C2151 1.377 . S
C2150 C2152 1.384 . S
C2151 C2150 1.377 . S
C2151 C2157 1.390 . S
C2152 H2143 0.930 . S
C2152 C2150 1.384 . S
C2152 C2153 1.372 . S
C2153 C2152 1.372 . S
C2153 C2154 1.400 . S
C2153 C2158 1.490 . S
C2154 H2144 0.930 . S
C2154 C2153 1.400 . S
C2154 C2157 1.386 . S
H2155 C2171 0.930 . S
H2156 C2172 0.931 . S
C2157 H2145 0.929 . S
C2157 C2151 1.390 . S
C2157 C2154 1.386 . S
C2158 C2153 1.490 . S
C2158 C2160 1.395 . S
C2158 C2161 1.403 . S
H2159 C2165 0.930 . S
C2160 H2146 0.930 . S
C2160 C2158 1.395 . S
C2160 C2163 1.403 . S
C2161 C2158 1.403 . S
C2161 C2162 1.524 . S
C2161 C2165 1.400 . S
C2162 H2147 0.960 . S
C2162 H2148 0.960 . S
C2162 H2149 0.960 . S
C2162 C2161 1.524 . S
C2163 C2160 1.403 . S
C2163 C2164 1.392 . S
C2163 C2167 1.495 . S
C2164 C2163 1.392 . S
C2164 C2165 1.385 . S
C2164 C2166 1.478 . S
C2165 H2159 0.930 . S
C2165 C2161 1.400 . S
C2165 C2164 1.385 . S
C2166 C2164 1.478 . S
C2166 C2168 1.381 . S
C2166 C2172 1.383 . S
C2167 C2163 1.495 . S
C2167 H2173 0.959 . S
C2167 H2174 0.961 . S
C2167 H2175 0.960 . S
C2168 C2166 1.381 . S
C2168 C2169 1.394 . S
C2168 H2176 0.930 . S
C2169 C2168 1.394 . S
C2169 C2170 1.383 . S
C2169 H2177 0.929 . S
C2170 C2169 1.383 . S
C2170 C2171 1.377 . S
C2171 H2155 0.930 . S
C2171 C2170 1.377 . S
C2171 C2172 1.379 . S
C2172 H2156 0.931 . S
C2172 C2166 1.383 . S
C2172 C2171 1.379 . S
H2173 C2167 0.959 . S
H2174 C2167 0.961 . S
H2175 C2167 0.960 . S
H2176 C2168 0.930 . S
H2177 C2169 0.929 . S
H2178 C2186 0.929 . S
H2179 C2188 0.930 . S
H2180 C2190 0.930 . S
H2181 C2193 0.929 . S
H2182 C2196 0.930 . S
H2183 C2198 0.960 . S
H2184 C2198 0.960 . S
H2185 C2198 0.960 . S
C2186 H2178 0.929 . S
C2186 C2187 1.377 . S
C2186 C2188 1.384 . S
C2187 C2186 1.377 . S
C2187 C2193 1.390 . S
C2188 H2179 0.930 . S
C2188 C2186 1.384 . S
C2188 C2189 1.372 . S
C2189 C2188 1.372 . S
C2189 C2190 1.400 . S
C2189 C2194 1.490 . S
C2190 H2180 0.930 . S
C2190 C2189 1.400 . S
C2190 C2193 1.386 . S
H2191 C2207 0.930 . S
H2192 C2208 0.931 . S
C2193 H2181 0.929 . S
C2193 C2187 1.390 . S
C2193 C2190 1.386 . S
C2194 C2189 1.490 . S
C2194 C2196 1.395 . S
C2194 C2197 1.403 . S
H2195 C2201 0.930 . S
C2196 H2182 0.930 . S
C2196 C2194 1.395 . S
C2196 C2199 1.403 . S
C2197 C2194 1.403 . S
C2197 C2198 1.524 . S
C2197 C2201 1.400 . S
C2198 H2183 0.960 . S
C2198 H2184 0.960 . S
C2198 H2185 0.960 . S
C2198 C2197 1.524 . S
C2199 C2196 1.403 . S
C2199 C2200 1.392 . S
C2199 C2203 1.495 . S
C2200 C2199 1.392 . S
C2200 C2201 1.385 . S
C2200 C2202 1.478 . S
C2201 H2195 0.930 . S
C2201 C2197 1.400 . S
C2201 C2200 1.385 . S
C2202 C2200 1.478 . S
C2202 C2204 1.381 . S
C2202 C2208 1.383 . S
C2203 C2199 1.495 . S
C2203 H2209 0.959 . S
C2203 H2210 0.961 . S
C2203 H2211 0.960 . S
C2204 C2202 1.381 . S
C2204 C2205 1.394 . S
C2204 H2212 0.930 . S
C2205 C2204 1.394 . S
C2205 C2206 1.383 . S
C2205 H2213 0.929 . S
C2206 C2205 1.383 . S
C2206 C2207 1.377 . S
C2207 H2191 0.930 . S
C2207 C2206 1.377 . S
C2207 C2208 1.379 . S
C2208 H2192 0.931 . S
C2208 C2202 1.383 . S
C2208 C2207 1.379 . S
H2209 C2203 0.959 . S
H2210 C2203 0.961 . S
H2211 C2203 0.960 . S
H2212 C2204 0.930 . S
H2213 C2205 0.929 . S
H2214 C2222 0.929 . S
H2215 C2224 0.930 . S
H2216 C2226 0.930 . S
H2217 C2229 0.929 . S
H2218 C2232 0.930 . S
H2219 C2234 0.960 . S
H2220 C2234 0.960 . S
H2221 C2234 0.960 . S
C2222 H2214 0.929 . S
C2222 C2223 1.377 . S
C2222 C2224 1.384 . S
C2223 C2222 1.377 . S
C2223 C2229 1.390 . S
C2224 H2215 0.930 . S
C2224 C2222 1.384 . S
C2224 C2225 1.372 . S
C2225 C2224 1.372 . S
C2225 C2226 1.400 . S
C2225 C2230 1.490 . S
C2226 H2216 0.930 . S
C2226 C2225 1.400 . S
C2226 C2229 1.386 . S
H2227 C2243 0.930 . S
H2228 C2244 0.931 . S
C2229 H2217 0.929 . S
C2229 C2223 1.390 . S
C2229 C2226 1.386 . S
C2230 C2225 1.490 . S
C2230 C2232 1.395 . S
C2230 C2233 1.403 . S
H2231 C2237 0.930 . S
C2232 H2218 0.930 . S
C2232 C2230 1.395 . S
C2232 C2235 1.403 . S
C2233 C2230 1.403 . S
C2233 C2234 1.524 . S
C2233 C2237 1.400 . S
C2234 H2219 0.960 . S
C2234 H2220 0.960 . S
C2234 H2221 0.960 . S
C2234 C2233 1.524 . S
C2235 C2232 1.403 . S
C2235 C2236 1.392 . S
C2235 C2239 1.495 . S
C2236 C2235 1.392 . S
C2236 C2237 1.385 . S
C2236 C2238 1.478 . S
C2237 H2231 0.930 . S
C2237 C2233 1.400 . S
C2237 C2236 1.385 . S
C2238 C2236 1.478 . S
C2238 C2240 1.381 . S
C2238 C2244 1.383 . S
C2239 C2235 1.495 . S
C2239 H2245 0.959 . S
C2239 H2246 0.961 . S
C2239 H2247 0.960 . S
C2240 C2238 1.381 . S
C2240 C2241 1.394 . S
C2240 H2248 0.930 . S
C2241 C2240 1.394 . S
C2241 C2242 1.383 . S
C2241 H2249 0.929 . S
C2242 C2241 1.383 . S
C2242 C2243 1.377 . S
C2243 H2227 0.930 . S
C2243 C2242 1.377 . S
C2243 C2244 1.379 . S
C2244 H2228 0.931 . S
C2244 C2238 1.383 . S
C2244 C2243 1.379 . S
H2245 C2239 0.959 . S
H2246 C2239 0.961 . S
H2247 C2239 0.960 . S
H2248 C2240 0.930 . S
H2249 C2241 0.929 . S
H2250 C2258 0.929 . S
H2251 C2260 0.930 . S
H2252 C2262 0.930 . S
H2253 C2265 0.929 . S
H2254 C2268 0.930 . S
H2255 C2270 0.960 . S
H2256 C2270 0.960 . S
H2257 C2270 0.960 . S
C2258 H2250 0.929 . S
C2258 C2259 1.377 . S
C2258 C2260 1.384 . S
C2259 C2258 1.377 . S
C2259 C2265 1.390 . S
C2260 H2251 0.930 . S
C2260 C2258 1.384 . S
C2260 C2261 1.372 . S
C2261 C2260 1.372 . S
C2261 C2262 1.400 . S
C2261 C2266 1.490 . S
C2262 H2252 0.930 . S
C2262 C2261 1.400 . S
C2262 C2265 1.386 . S
H2263 C2279 0.930 . S
H2264 C2280 0.931 . S
C2265 H2253 0.929 . S
C2265 C2259 1.390 . S
C2265 C2262 1.386 . S
C2266 C2261 1.490 . S
C2266 C2268 1.395 . S
C2266 C2269 1.403 . S
H2267 C2273 0.930 . S
C2268 H2254 0.930 . S
C2268 C2266 1.395 . S
C2268 C2271 1.403 . S
C2269 C2266 1.403 . S
C2269 C2270 1.524 . S
C2269 C2273 1.400 . S
C2270 H2255 0.960 . S
C2270 H2256 0.960 . S
C2270 H2257 0.960 . S
C2270 C2269 1.524 . S
C2271 C2268 1.403 . S
C2271 C2272 1.392 . S
C2271 C2275 1.495 . S
C2272 C2271 1.392 . S
C2272 C2273 1.385 . S
C2272 C2274 1.478 . S
C2273 H2267 0.930 . S
C2273 C2269 1.400 . S
C2273 C2272 1.385 . S
C2274 C2272 1.478 . S
C2274 C2276 1.381 . S
C2274 C2280 1.383 . S
C2275 C2271 1.495 . S
C2275 H2281 0.959 . S
C2275 H2282 0.961 . S
C2275 H2283 0.960 . S
C2276 C2274 1.381 . S
C2276 C2277 1.394 . S
C2276 H2284 0.930 . S
C2277 C2276 1.394 . S
C2277 C2278 1.383 . S
C2277 H2285 0.929 . S
C2278 C2277 1.383 . S
C2278 C2279 1.377 . S
C2279 H2263 0.930 . S
C2279 C2278 1.377 . S
C2279 C2280 1.379 . S
C2280 H2264 0.931 . S
C2280 C2274 1.383 . S
C2280 C2279 1.379 . S
H2281 C2275 0.959 . S
H2282 C2275 0.961 . S
H2283 C2275 0.960 . S
H2284 C2276 0.930 . S
H2285 C2277 0.929 . S
H2286 C2294 0.929 . S
H2287 C2296 0.930 . S
H2288 C2298 0.930 . S
H2289 C2301 0.929 . S
H2290 C2304 0.930 . S
H2291 C2306 0.960 . S
H2292 C2306 0.960 . S
H2293 C2306 0.960 . S
C2294 H2286 0.929 . S
C2294 C2295 1.377 . S
C2294 C2296 1.384 . S
C2295 C2294 1.377 . S
C2295 C2301 1.390 . S
C2296 H2287 0.930 . S
C2296 C2294 1.384 . S
C2296 C2297 1.372 . S
C2297 C2296 1.372 . S
C2297 C2298 1.400 . S
C2297 C2302 1.490 . S
C2298 H2288 0.930 . S
C2298 C2297 1.400 . S
C2298 C2301 1.386 . S
H2299 C2315 0.930 . S
H2300 C2316 0.931 . S
C2301 H2289 0.929 . S
C2301 C2295 1.390 . S
C2301 C2298 1.386 . S
C2302 C2297 1.490 . S
C2302 C2304 1.395 . S
C2302 C2305 1.403 . S
H2303 C2309 0.930 . S
C2304 H2290 0.930 . S
C2304 C2302 1.395 . S
C2304 C2307 1.403 . S
C2305 C2302 1.403 . S
C2305 C2306 1.524 . S
C2305 C2309 1.400 . S
C2306 H2291 0.960 . S
C2306 H2292 0.960 . S
C2306 H2293 0.960 . S
C2306 C2305 1.524 . S
C2307 C2304 1.403 . S
C2307 C2308 1.392 . S
C2307 C2311 1.495 . S
C2308 C2307 1.392 . S
C2308 C2309 1.385 . S
C2308 C2310 1.478 . S
C2309 H2303 0.930 . S
C2309 C2305 1.400 . S
C2309 C2308 1.385 . S
C2310 C2308 1.478 . S
C2310 C2312 1.381 . S
C2310 C2316 1.383 . S
C2311 C2307 1.495 . S
C2311 H2317 0.959 . S
C2311 H2318 0.961 . S
C2311 H2319 0.960 . S
C2312 C2310 1.381 . S
C2312 C2313 1.394 . S
C2312 H2320 0.930 . S
C2313 C2312 1.394 . S
C2313 C2314 1.383 . S
C2313 H2321 0.929 . S
C2314 C2313 1.383 . S
C2314 C2315 1.377 . S
C2315 H2299 0.930 . S
C2315 C2314 1.377 . S
C2315 C2316 1.379 . S
C2316 H2300 0.931 . S
C2316 C2310 1.383 . S
C2316 C2315 1.379 . S
H2317 C2311 0.959 . S
H2318 C2311 0.961 . S
H2319 C2311 0.960 . S
H2320 C2312 0.930 . S
H2321 C2313 0.929 . S
H2322 C2330 0.929 . S
H2323 C2332 0.930 . S
H2324 C2334 0.930 . S
H2325 C2337 0.929 . S
H2326 C2340 0.930 . S
H2327 C2342 0.960 . S
H2328 C2342 0.960 . S
H2329 C2342 0.960 . S
C2330 H2322 0.929 . S
C2330 C2331 1.377 . S
C2330 C2332 1.384 . S
C2331 C2330 1.377 . S
C2331 C2337 1.390 . S
C2332 H2323 0.930 . S
C2332 C2330 1.384 . S
C2332 C2333 1.372 . S
C2333 C2332 1.372 . S
C2333 C2334 1.400 . S
C2333 C2338 1.490 . S
C2334 H2324 0.930 . S
C2334 C2333 1.400 . S
C2334 C2337 1.386 . S
H2335 C2351 0.930 . S
H2336 C2352 0.931 . S
C2337 H2325 0.929 . S
C2337 C2331 1.390 . S
C2337 C2334 1.386 . S
C2338 C2333 1.490 . S
C2338 C2340 1.395 . S
C2338 C2341 1.403 . S
H2339 C2345 0.930 . S
C2340 H2326 0.930 . S
C2340 C2338 1.395 . S
C2340 C2343 1.403 . S
C2341 C2338 1.403 . S
C2341 C2342 1.524 . S
C2341 C2345 1.400 . S
C2342 H2327 0.960 . S
C2342 H2328 0.960 . S
C2342 H2329 0.960 . S
C2342 C2341 1.524 . S
C2343 C2340 1.403 . S
C2343 C2344 1.392 . S
C2343 C2347 1.495 . S
C2344 C2343 1.392 . S
C2344 C2345 1.385 . S
C2344 C2346 1.478 . S
C2345 H2339 0.930 . S
C2345 C2341 1.400 . S
C2345 C2344 1.385 . S
C2346 C2344 1.478 . S
C2346 C2348 1.381 . S
C2346 C2352 1.383 . S
C2347 C2343 1.495 . S
C2347 H2353 0.959 . S
C2347 H2354 0.961 . S
C2347 H2355 0.960 . S
C2348 C2346 1.381 . S
C2348 C2349 1.394 . S
C2348 H2356 0.930 . S
C2349 C2348 1.394 . S
C2349 C2350 1.383 . S
C2349 H2357 0.929 . S
C2350 C2349 1.383 . S
C2350 C2351 1.377 . S
C2351 H2335 0.930 . S
C2351 C2350 1.377 . S
C2351 C2352 1.379 . S
C2352 H2336 0.931 . S
C2352 C2346 1.383 . S
C2352 C2351 1.379 . S
H2353 C2347 0.959 . S
H2354 C2347 0.961 . S
H2355 C2347 0.960 . S
H2356 C2348 0.930 . S
H2357 C2349 0.929 . S
H2358 C2366 0.929 . S
H2359 C2368 0.930 . S
H2360 C2370 0.930 . S
H2361 C2373 0.929 . S
H2362 C2376 0.930 . S
H2363 C2378 0.960 . S
H2364 C2378 0.960 . S
H2365 C2378 0.960 . S
C2366 H2358 0.929 . S
C2366 C2367 1.377 . S
C2366 C2368 1.384 . S
C2367 C2366 1.377 . S
C2367 C2373 1.390 . S
C2368 H2359 0.930 . S
C2368 C2366 1.384 . S
C2368 C2369 1.372 . S
C2369 C2368 1.372 . S
C2369 C2370 1.400 . S
C2369 C2374 1.490 . S
C2370 H2360 0.930 . S
C2370 C2369 1.400 . S
C2370 C2373 1.386 . S
H2371 C2387 0.930 . S
H2372 C2388 0.931 . S
C2373 H2361 0.929 . S
C2373 C2367 1.390 . S
C2373 C2370 1.386 . S
C2374 C2369 1.490 . S
C2374 C2376 1.395 . S
C2374 C2377 1.403 . S
H2375 C2381 0.930 . S
C2376 H2362 0.930 . S
C2376 C2374 1.395 . S
C2376 C2379 1.403 . S
C2377 C2374 1.403 . S
C2377 C2378 1.524 . S
C2377 C2381 1.400 . S
C2378 H2363 0.960 . S
C2378 H2364 0.960 . S
C2378 H2365 0.960 . S
C2378 C2377 1.524 . S
C2379 C2376 1.403 . S
C2379 C2380 1.392 . S
C2379 C2383 1.495 . S
C2380 C2379 1.392 . S
C2380 C2381 1.385 . S
C2380 C2382 1.478 . S
C2381 H2375 0.930 . S
C2381 C2377 1.400 . S
C2381 C2380 1.385 . S
C2382 C2380 1.478 . S
C2382 C2384 1.381 . S
C2382 C2388 1.383 . S
C2383 C2379 1.495 . S
C2383 H2389 0.959 . S
C2383 H2390 0.961 . S
C2383 H2391 0.960 . S
C2384 C2382 1.381 . S
C2384 C2385 1.394 . S
C2384 H2392 0.930 . S
C2385 C2384 1.394 . S
C2385 C2386 1.383 . S
C2385 H2393 0.929 . S
C2386 C2385 1.383 . S
C2386 C2387 1.377 . S
C2387 H2371 0.930 . S
C2387 C2386 1.377 . S
C2387 C2388 1.379 . S
C2388 H2372 0.931 . S
C2388 C2382 1.383 . S
C2388 C2387 1.379 . S
H2389 C2383 0.959 . S
H2390 C2383 0.961 . S
H2391 C2383 0.960 . S
H2392 C2384 0.930 . S
H2393 C2385 0.929 . S
H2394 C2402 0.929 . S
H2395 C2404 0.930 . S
H2396 C2406 0.930 . S
H2397 C2409 0.929 . S
H2398 C2412 0.930 . S
H2399 C2414 0.960 . S
H2400 C2414 0.960 . S
H2401 C2414 0.960 . S
C2402 H2394 0.929 . S
C2402 C2403 1.377 . S
C2402 C2404 1.384 . S
C2403 C2402 1.377 . S
C2403 C2409 1.390 . S
C2404 H2395 0.930 . S
C2404 C2402 1.384 . S
C2404 C2405 1.372 . S
C2405 C2404 1.372 . S
C2405 C2406 1.400 . S
C2405 C2410 1.490 . S
C2406 H2396 0.930 . S
C2406 C2405 1.400 . S
C2406 C2409 1.386 . S
H2407 C2423 0.930 . S
H2408 C2424 0.931 . S
C2409 H2397 0.929 . S
C2409 C2403 1.390 . S
C2409 C2406 1.386 . S
C2410 C2405 1.490 . S
C2410 C2412 1.395 . S
C2410 C2413 1.403 . S
H2411 C2417 0.930 . S
C2412 H2398 0.930 . S
C2412 C2410 1.395 . S
C2412 C2415 1.403 . S
C2413 C2410 1.403 . S
C2413 C2414 1.524 . S
C2413 C2417 1.400 . S
C2414 H2399 0.960 . S
C2414 H2400 0.960 . S
C2414 H2401 0.960 . S
C2414 C2413 1.524 . S
C2415 C2412 1.403 . S
C2415 C2416 1.392 . S
C2415 C2419 1.495 . S
C2416 C2415 1.392 . S
C2416 C2417 1.385 . S
C2416 C2418 1.478 . S
C2417 H2411 0.930 . S
C2417 C2413 1.400 . S
C2417 C2416 1.385 . S
C2418 C2416 1.478 . S
C2418 C2420 1.381 . S
C2418 C2424 1.383 . S
C2419 C2415 1.495 . S
C2419 H2425 0.959 . S
C2419 H2426 0.961 . S
C2419 H2427 0.960 . S
C2420 C2418 1.381 . S
C2420 C2421 1.394 . S
C2420 H2428 0.930 . S
C2421 C2420 1.394 . S
C2421 C2422 1.383 . S
C2421 H2429 0.929 . S
C2422 C2421 1.383 . S
C2422 C2423 1.377 . S
C2423 H2407 0.930 . S
C2423 C2422 1.377 . S
C2423 C2424 1.379 . S
C2424 H2408 0.931 . S
C2424 C2418 1.383 . S
C2424 C2423 1.379 . S
H2425 C2419 0.959 . S
H2426 C2419 0.961 . S
H2427 C2419 0.960 . S
H2428 C2420 0.930 . S
H2429 C2421 0.929 . S
H2430 C2438 0.929 . S
H2431 C2440 0.930 . S
H2432 C2442 0.930 . S
H2433 C2445 0.929 . S
H2434 C2448 0.930 . S
H2435 C2450 0.960 . S
H2436 C2450 0.960 . S
H2437 C2450 0.960 . S
C2438 H2430 0.929 . S
C2438 C2439 1.377 . S
C2438 C2440 1.384 . S
C2439 C2438 1.377 . S
C2439 C2445 1.390 . S
C2440 H2431 0.930 . S
C2440 C2438 1.384 . S
C2440 C2441 1.372 . S
C2441 C2440 1.372 . S
C2441 C2442 1.400 . S
C2441 C2446 1.490 . S
C2442 H2432 0.930 . S
C2442 C2441 1.400 . S
C2442 C2445 1.386 . S
H2443 C2459 0.930 . S
H2444 C2460 0.931 . S
C2445 H2433 0.929 . S
C2445 C2439 1.390 . S
C2445 C2442 1.386 . S
C2446 C2441 1.490 . S
C2446 C2448 1.395 . S
C2446 C2449 1.403 . S
H2447 C2453 0.930 . S
C2448 H2434 0.930 . S
C2448 C2446 1.395 . S
C2448 C2451 1.403 . S
C2449 C2446 1.403 . S
C2449 C2450 1.524 . S
C2449 C2453 1.400 . S
C2450 H2435 0.960 . S
C2450 H2436 0.960 . S
C2450 H2437 0.960 . S
C2450 C2449 1.524 . S
C2451 C2448 1.403 . S
C2451 C2452 1.392 . S
C2451 C2455 1.495 . S
C2452 C2451 1.392 . S
C2452 C2453 1.385 . S
C2452 C2454 1.478 . S
C2453 H2447 0.930 . S
C2453 C2449 1.400 . S
C2453 C2452 1.385 . S
C2454 C2452 1.478 . S
C2454 C2456 1.381 . S
C2454 C2460 1.383 . S
C2455 C2451 1.495 . S
C2455 H2461 0.959 . S
C2455 H2462 0.961 . S
C2455 H2463 0.960 . S
C2456 C2454 1.381 . S
C2456 C2457 1.394 . S
C2456 H2464 0.930 . S
C2457 C2456 1.394 . S
C2457 C2458 1.383 . S
C2457 H2465 0.929 . S
C2458 C2457 1.383 . S
C2458 C2459 1.377 . S
C2459 H2443 0.930 . S
C2459 C2458 1.377 . S
C2459 C2460 1.379 . S
C2460 H2444 0.931 . S
C2460 C2454 1.383 . S
C2460 C2459 1.379 . S
H2461 C2455 0.959 . S
H2462 C2455 0.961 . S
H2463 C2455 0.960 . S
H2464 C2456 0.930 . S
H2465 C2457 0.929 . S
H2466 C2474 0.929 . S
H2467 C2476 0.930 . S
H2468 C2478 0.930 . S
H2469 C2481 0.929 . S
H2470 C2484 0.930 . S
H2471 C2486 0.960 . S
H2472 C2486 0.960 . S
H2473 C2486 0.960 . S
C2474 H2466 0.929 . S
C2474 C2475 1.377 . S
C2474 C2476 1.384 . S
C2475 C2474 1.377 . S
C2475 C2481 1.390 . S
C2476 H2467 0.930 . S
C2476 C2474 1.384 . S
C2476 C2477 1.372 . S
C2477 C2476 1.372 . S
C2477 C2478 1.400 . S
C2477 C2482 1.490 . S
C2478 H2468 0.930 . S
C2478 C2477 1.400 . S
C2478 C2481 1.386 . S
H2479 C2495 0.930 . S
H2480 C2496 0.931 . S
C2481 H2469 0.929 . S
C2481 C2475 1.390 . S
C2481 C2478 1.386 . S
C2482 C2477 1.490 . S
C2482 C2484 1.395 . S
C2482 C2485 1.403 . S
H2483 C2489 0.930 . S
C2484 H2470 0.930 . S
C2484 C2482 1.395 . S
C2484 C2487 1.403 . S
C2485 C2482 1.403 . S
C2485 C2486 1.524 . S
C2485 C2489 1.400 . S
C2486 H2471 0.960 . S
C2486 H2472 0.960 . S
C2486 H2473 0.960 . S
C2486 C2485 1.524 . S
C2487 C2484 1.403 . S
C2487 C2488 1.392 . S
C2487 C2491 1.495 . S
C2488 C2487 1.392 . S
C2488 C2489 1.385 . S
C2488 C2490 1.478 . S
C2489 H2483 0.930 . S
C2489 C2485 1.400 . S
C2489 C2488 1.385 . S
C2490 C2488 1.478 . S
C2490 C2492 1.381 . S
C2490 C2496 1.383 . S
C2491 C2487 1.495 . S
C2491 H2497 0.959 . S
C2491 H2498 0.961 . S
C2491 H2499 0.960 . S
C2492 C2490 1.381 . S
C2492 C2493 1.394 . S
C2492 H2500 0.930 . S
C2493 C2492 1.394 . S
C2493 C2494 1.383 . S
C2493 H2501 0.929 . S
C2494 C2493 1.383 . S
C2494 C2495 1.377 . S
C2495 H2479 0.930 . S
C2495 C2494 1.377 . S
C2495 C2496 1.379 . S
C2496 H2480 0.931 . S
C2496 C2490 1.383 . S
C2496 C2495 1.379 . S
H2497 C2491 0.959 . S
H2498 C2491 0.961 . S
H2499 C2491 0.960 . S
H2500 C2492 0.930 . S
H2501 C2493 0.929 . S
H2502 C2510 0.929 . S
H2503 C2512 0.930 . S
H2504 C2514 0.930 . S
H2505 C2517 0.929 . S
H2506 C2520 0.930 . S
H2507 C2522 0.960 . S
H2508 C2522 0.960 . S
H2509 C2522 0.960 . S
C2510 H2502 0.929 . S
C2510 C2511 1.377 . S
C2510 C2512 1.384 . S
C2511 C2510 1.377 . S
C2511 C2517 1.390 . S
C2512 H2503 0.930 . S
C2512 C2510 1.384 . S
C2512 C2513 1.372 . S
C2513 C2512 1.372 . S
C2513 C2514 1.400 . S
C2513 C2518 1.490 . S
C2514 H2504 0.930 . S
C2514 C2513 1.400 . S
C2514 C2517 1.386 . S
H2515 C2531 0.930 . S
H2516 C2532 0.931 . S
C2517 H2505 0.929 . S
C2517 C2511 1.390 . S
C2517 C2514 1.386 . S
C2518 C2513 1.490 . S
C2518 C2520 1.395 . S
C2518 C2521 1.403 . S
H2519 C2525 0.930 . S
C2520 H2506 0.930 . S
C2520 C2518 1.395 . S
C2520 C2523 1.403 . S
C2521 C2518 1.403 . S
C2521 C2522 1.524 . S
C2521 C2525 1.400 . S
C2522 H2507 0.960 . S
C2522 H2508 0.960 . S
C2522 H2509 0.960 . S
C2522 C2521 1.524 . S
C2523 C2520 1.403 . S
C2523 C2524 1.392 . S
C2523 C2527 1.495 . S
C2524 C2523 1.392 . S
C2524 C2525 1.385 . S
C2524 C2526 1.478 . S
C2525 H2519 0.930 . S
C2525 C2521 1.400 . S
C2525 C2524 1.385 . S
C2526 C2524 1.478 . S
C2526 C2528 1.381 . S
C2526 C2532 1.383 . S
C2527 C2523 1.495 . S
C2527 H2533 0.959 . S
C2527 H2534 0.961 . S
C2527 H2535 0.960 . S
C2528 C2526 1.381 . S
C2528 C2529 1.394 . S
C2528 H2536 0.930 . S
C2529 C2528 1.394 . S
C2529 C2530 1.383 . S
C2529 H2537 0.929 . S
C2530 C2529 1.383 . S
C2530 C2531 1.377 . S
C2531 H2515 0.930 . S
C2531 C2530 1.377 . S
C2531 C2532 1.379 . S
C2532 H2516 0.931 . S
C2532 C2526 1.383 . S
C2532 C2531 1.379 . S
H2533 C2527 0.959 . S
H2534 C2527 0.961 . S
H2535 C2527 0.960 . S
H2536 C2528 0.930 . S
H2537 C2529 0.929 . S
H2538 C2546 0.929 . S
H2539 C2548 0.930 . S
H2540 C2550 0.930 . S
H2541 C2553 0.929 . S
H2542 C2556 0.930 . S
H2543 C2558 0.960 . S
H2544 C2558 0.960 . S
H2545 C2558 0.960 . S
C2546 H2538 0.929 . S
C2546 C2547 1.377 . S
C2546 C2548 1.384 . S
C2547 C2546 1.377 . S
C2547 C2553 1.390 . S
C2548 H2539 0.930 . S
C2548 C2546 1.384 . S
C2548 C2549 1.372 . S
C2549 C2548 1.372 . S
C2549 C2550 1.400 . S
C2549 C2554 1.490 . S
C2550 H2540 0.930 . S
C2550 C2549 1.400 . S
C2550 C2553 1.386 . S
H2551 C2567 0.930 . S
H2552 C2568 0.931 . S
C2553 H2541 0.929 . S
C2553 C2547 1.390 . S
C2553 C2550 1.386 . S
C2554 C2549 1.490 . S
C2554 C2556 1.395 . S
C2554 C2557 1.403 . S
H2555 C2561 0.930 . S
C2556 H2542 0.930 . S
C2556 C2554 1.395 . S
C2556 C2559 1.403 . S
C2557 C2554 1.403 . S
C2557 C2558 1.524 . S
C2557 C2561 1.400 . S
C2558 H2543 0.960 . S
C2558 H2544 0.960 . S
C2558 H2545 0.960 . S
C2558 C2557 1.524 . S
C2559 C2556 1.403 . S
C2559 C2560 1.392 . S
C2559 C2563 1.495 . S
C2560 C2559 1.392 . S
C2560 C2561 1.385 . S
C2560 C2562 1.478 . S
C2561 H2555 0.930 . S
C2561 C2557 1.400 . S
C2561 C2560 1.385 . S
C2562 C2560 1.478 . S
C2562 C2564 1.381 . S
C2562 C2568 1.383 . S
C2563 C2559 1.495 . S
C2563 H2569 0.959 . S
C2563 H2570 0.961 . S
C2563 H2571 0.960 . S
C2564 C2562 1.381 . S
C2564 C2565 1.394 . S
C2564 H2572 0.930 . S
C2565 C2564 1.394 . S
C2565 C2566 1.383 . S
C2565 H2573 0.929 . S
C2566 C2565 1.383 . S
C2566 C2567 1.377 . S
C2567 H2551 0.930 . S
C2567 C2566 1.377 . S
C2567 C2568 1.379 . S
C2568 H2552 0.931 . S
C2568 C2562 1.383 . S
C2568 C2567 1.379 . S
H2569 C2563 0.959 . S
H2570 C2563 0.961 . S
H2571 C2563 0.960 . S
H2572 C2564 0.930 . S
H2573 C2565 0.929 . S
H2574 C2582 0.929 . S
H2575 C2584 0.930 . S
H2576 C2586 0.930 . S
H2577 C2589 0.929 . S
H2578 C2592 0.930 . S
H2579 C2594 0.960 . S
H2580 C2594 0.960 . S
H2581 C2594 0.960 . S
C2582 H2574 0.929 . S
C2582 C2583 1.377 . S
C2582 C2584 1.384 . S
C2583 C2582 1.377 . S
C2583 C2589 1.390 . S
C2584 H2575 0.930 . S
C2584 C2582 1.384 . S
C2584 C2585 1.372 . S
C2585 C2584 1.372 . S
C2585 C2586 1.400 . S
C2585 C2590 1.490 . S
C2586 H2576 0.930 . S
C2586 C2585 1.400 . S
C2586 C2589 1.386 . S
H2587 C2603 0.930 . S
H2588 C2604 0.931 . S
C2589 H2577 0.929 . S
C2589 C2583 1.390 . S
C2589 C2586 1.386 . S
C2590 C2585 1.490 . S
C2590 C2592 1.395 . S
C2590 C2593 1.403 . S
H2591 C2597 0.930 . S
C2592 H2578 0.930 . S
C2592 C2590 1.395 . S
C2592 C2595 1.403 . S
C2593 C2590 1.403 . S
C2593 C2594 1.524 . S
C2593 C2597 1.400 . S
C2594 H2579 0.960 . S
C2594 H2580 0.960 . S
C2594 H2581 0.960 . S
C2594 C2593 1.524 . S
C2595 C2592 1.403 . S
C2595 C2596 1.392 . S
C2595 C2599 1.495 . S
C2596 C2595 1.392 . S
C2596 C2597 1.385 . S
C2596 C2598 1.478 . S
C2597 H2591 0.930 . S
C2597 C2593 1.400 . S
C2597 C2596 1.385 . S
C2598 C2596 1.478 . S
C2598 C2600 1.381 . S
C2598 C2604 1.383 . S
C2599 C2595 1.495 . S
C2599 H2605 0.959 . S
C2599 H2606 0.961 . S
C2599 H2607 0.960 . S
C2600 C2598 1.381 . S
C2600 C2601 1.394 . S
C2600 H2608 0.930 . S
C2601 C2600 1.394 . S
C2601 C2602 1.383 . S
C2601 H2609 0.929 . S
C2602 C2601 1.383 . S
C2602 C2603 1.377 . S
C2603 H2587 0.930 . S
C2603 C2602 1.377 . S
C2603 C2604 1.379 . S
C2604 H2588 0.931 . S
C2604 C2598 1.383 . S
C2604 C2603 1.379 . S
H2605 C2599 0.959 . S
H2606 C2599 0.961 . S
H2607 C2599 0.960 . S
H2608 C2600 0.930 . S
H2609 C2601 0.929 . S
H2610 C2618 0.929 . S
H2611 C2620 0.930 . S
H2612 C2622 0.930 . S
H2613 C2625 0.929 . S
H2614 C2628 0.930 . S
H2615 C2630 0.960 . S
H2616 C2630 0.960 . S
H2617 C2630 0.960 . S
C2618 H2610 0.929 . S
C2618 C2619 1.377 . S
C2618 C2620 1.384 . S
C2619 C2618 1.377 . S
C2619 C2625 1.390 . S
C2620 H2611 0.930 . S
C2620 C2618 1.384 . S
C2620 C2621 1.372 . S
C2621 C2620 1.372 . S
C2621 C2622 1.400 . S
C2621 C2626 1.490 . S
C2622 H2612 0.930 . S
C2622 C2621 1.400 . S
C2622 C2625 1.386 . S
H2623 C2639 0.930 . S
H2624 C2640 0.931 . S
C2625 H2613 0.929 . S
C2625 C2619 1.390 . S
C2625 C2622 1.386 . S
C2626 C2621 1.490 . S
C2626 C2628 1.395 . S
C2626 C2629 1.403 . S
H2627 C2633 0.930 . S
C2628 H2614 0.930 . S
C2628 C2626 1.395 . S
C2628 C2631 1.403 . S
C2629 C2626 1.403 . S
C2629 C2630 1.524 . S
C2629 C2633 1.400 . S
C2630 H2615 0.960 . S
C2630 H2616 0.960 . S
C2630 H2617 0.960 . S
C2630 C2629 1.524 . S
C2631 C2628 1.403 . S
C2631 C2632 1.392 . S
C2631 C2635 1.495 . S
C2632 C2631 1.392 . S
C2632 C2633 1.385 . S
C2632 C2634 1.478 . S
C2633 H2627 0.930 . S
C2633 C2629 1.400 . S
C2633 C2632 1.385 . S
C2634 C2632 1.478 . S
C2634 C2636 1.381 . S
C2634 C2640 1.383 . S
C2635 C2631 1.495 . S
C2635 H2641 0.959 . S
C2635 H2642 0.961 . S
C2635 H2643 0.960 . S
C2636 C2634 1.381 . S
C2636 C2637 1.394 . S
C2636 H2644 0.930 . S
C2637 C2636 1.394 . S
C2637 C2638 1.383 . S
C2637 H2645 0.929 . S
C2638 C2637 1.383 . S
C2638 C2639 1.377 . S
C2639 H2623 0.930 . S
C2639 C2638 1.377 . S
C2639 C2640 1.379 . S
C2640 H2624 0.931 . S
C2640 C2634 1.383 . S
C2640 C2639 1.379 . S
H2641 C2635 0.959 . S
H2642 C2635 0.961 . S
H2643 C2635 0.960 . S
H2644 C2636 0.930 . S
H2645 C2637 0.929 . S
H2646 C2654 0.929 . S
H2647 C2656 0.930 . S
H2648 C2658 0.930 . S
H2649 C2661 0.929 . S
H2650 C2664 0.930 . S
H2651 C2666 0.960 . S
H2652 C2666 0.960 . S
H2653 C2666 0.960 . S
C2654 H2646 0.929 . S
C2654 C2655 1.377 . S
C2654 C2656 1.384 . S
C2655 C2654 1.377 . S
C2655 C2661 1.390 . S
C2656 H2647 0.930 . S
C2656 C2654 1.384 . S
C2656 C2657 1.372 . S
C2657 C2656 1.372 . S
C2657 C2658 1.400 . S
C2657 C2662 1.490 . S
C2658 H2648 0.930 . S
C2658 C2657 1.400 . S
C2658 C2661 1.386 . S
H2659 C2675 0.930 . S
H2660 C2676 0.931 . S
C2661 H2649 0.929 . S
C2661 C2655 1.390 . S
C2661 C2658 1.386 . S
C2662 C2657 1.490 . S
C2662 C2664 1.395 . S
C2662 C2665 1.403 . S
H2663 C2669 0.930 . S
C2664 H2650 0.930 . S
C2664 C2662 1.395 . S
C2664 C2667 1.403 . S
C2665 C2662 1.403 . S
C2665 C2666 1.524 . S
C2665 C2669 1.400 . S
C2666 H2651 0.960 . S
C2666 H2652 0.960 . S
C2666 H2653 0.960 . S
C2666 C2665 1.524 . S
C2667 C2664 1.403 . S
C2667 C2668 1.392 . S
C2667 C2671 1.495 . S
C2668 C2667 1.392 . S
C2668 C2669 1.385 . S
C2668 C2670 1.478 . S
C2669 H2663 0.930 . S
C2669 C2665 1.400 . S
C2669 C2668 1.385 . S
C2670 C2668 1.478 . S
C2670 C2672 1.381 . S
C2670 C2676 1.383 . S
C2671 C2667 1.495 . S
C2671 H2677 0.959 . S
C2671 H2678 0.961 . S
C2671 H2679 0.960 . S
C2672 C2670 1.381 . S
C2672 C2673 1.394 . S
C2672 H2680 0.930 . S
C2673 C2672 1.394 . S
C2673 C2674 1.383 . S
C2673 H2681 0.929 . S
C2674 C2673 1.383 . S
C2674 C2675 1.377 . S
C2675 H2659 0.930 . S
C2675 C2674 1.377 . S
C2675 C2676 1.379 . S
C2676 H2660 0.931 . S
C2676 C2670 1.383 . S
C2676 C2675 1.379 . S
H2677 C2671 0.959 . S
H2678 C2671 0.961 . S
H2679 C2671 0.960 . S
H2680 C2672 0.930 . S
H2681 C2673 0.929 . S
H2682 C2690 0.929 . S
H2683 C2692 0.930 . S
H2684 C2694 0.930 . S
H2685 C2697 0.929 . S
H2686 C2700 0.930 . S
H2687 C2702 0.960 . S
H2688 C2702 0.960 . S
H2689 C2702 0.960 . S
C2690 H2682 0.929 . S
C2690 C2691 1.377 . S
C2690 C2692 1.384 . S
C2691 C2690 1.377 . S
C2691 C2697 1.390 . S
C2692 H2683 0.930 . S
C2692 C2690 1.384 . S
C2692 C2693 1.372 . S
C2693 C2692 1.372 . S
C2693 C2694 1.400 . S
C2693 C2698 1.490 . S
C2694 H2684 0.930 . S
C2694 C2693 1.400 . S
C2694 C2697 1.386 . S
H2695 C2711 0.930 . S
H2696 C2712 0.931 . S
C2697 H2685 0.929 . S
C2697 C2691 1.390 . S
C2697 C2694 1.386 . S
C2698 C2693 1.490 . S
C2698 C2700 1.395 . S
C2698 C2701 1.403 . S
H2699 C2705 0.930 . S
C2700 H2686 0.930 . S
C2700 C2698 1.395 . S
C2700 C2703 1.403 . S
C2701 C2698 1.403 . S
C2701 C2702 1.524 . S
C2701 C2705 1.400 . S
C2702 H2687 0.960 . S
C2702 H2688 0.960 . S
C2702 H2689 0.960 . S
C2702 C2701 1.524 . S
C2703 C2700 1.403 . S
C2703 C2704 1.392 . S
C2703 C2707 1.495 . S
C2704 C2703 1.392 . S
C2704 C2705 1.385 . S
C2704 C2706 1.478 . S
C2705 H2699 0.930 . S
C2705 C2701 1.400 . S
C2705 C2704 1.385 . S
C2706 C2704 1.478 . S
C2706 C2708 1.381 . S
C2706 C2712 1.383 . S
C2707 C2703 1.495 . S
C2707 H2713 0.959 . S
C2707 H2714 0.961 . S
C2707 H2715 0.960 . S
C2708 C2706 1.381 . S
C2708 C2709 1.394 . S
C2708 H2716 0.930 . S
C2709 C2708 1.394 . S
C2709 C2710 1.383 . S
C2709 H2717 0.929 . S
C2710 C2709 1.383 . S
C2710 C2711 1.377 . S
C2711 H2695 0.930 . S
C2711 C2710 1.377 . S
C2711 C2712 1.379 . S
C2712 H2696 0.931 . S
C2712 C2706 1.383 . S
C2712 C2711 1.379 . S
H2713 C2707 0.959 . S
H2714 C2707 0.961 . S
H2715 C2707 0.960 . S
H2716 C2708 0.930 . S
H2717 C2709 0.929 . S
H2718 C2726 0.929 . S
H2719 C2728 0.930 . S
H2720 C2730 0.930 . S
H2721 C2733 0.929 . S
H2722 C2736 0.930 . S
H2723 C2738 0.960 . S
H2724 C2738 0.960 . S
H2725 C2738 0.960 . S
C2726 H2718 0.929 . S
C2726 C2727 1.377 . S
C2726 C2728 1.384 . S
C2727 C2726 1.377 . S
C2727 C2733 1.390 . S
C2728 H2719 0.930 . S
C2728 C2726 1.384 . S
C2728 C2729 1.372 . S
C2729 C2728 1.372 . S
C2729 C2730 1.400 . S
C2729 C2734 1.490 . S
C2730 H2720 0.930 . S
C2730 C2729 1.400 . S
C2730 C2733 1.386 . S
H2731 C2747 0.930 . S
H2732 C2748 0.931 . S
C2733 H2721 0.929 . S
C2733 C2727 1.390 . S
C2733 C2730 1.386 . S
C2734 C2729 1.490 . S
C2734 C2736 1.395 . S
C2734 C2737 1.403 . S
H2735 C2741 0.930 . S
C2736 H2722 0.930 . S
C2736 C2734 1.395 . S
C2736 C2739 1.403 . S
C2737 C2734 1.403 . S
C2737 C2738 1.524 . S
C2737 C2741 1.400 . S
C2738 H2723 0.960 . S
C2738 H2724 0.960 . S
C2738 H2725 0.960 . S
C2738 C2737 1.524 . S
C2739 C2736 1.403 . S
C2739 C2740 1.392 . S
C2739 C2743 1.495 . S
C2740 C2739 1.392 . S
C2740 C2741 1.385 . S
C2740 C2742 1.478 . S
C2741 H2735 0.930 . S
C2741 C2737 1.400 . S
C2741 C2740 1.385 . S
C2742 C2740 1.478 . S
C2742 C2744 1.381 . S
C2742 C2748 1.383 . S
C2743 C2739 1.495 . S
C2743 H2749 0.959 . S
C2743 H2750 0.961 . S
C2743 H2751 0.960 . S
C2744 C2742 1.381 . S
C2744 C2745 1.394 . S
C2744 H2752 0.930 . S
C2745 C2744 1.394 . S
C2745 C2746 1.383 . S
C2745 H2753 0.929 . S
C2746 C2745 1.383 . S
C2746 C2747 1.377 . S
C2747 H2731 0.930 . S
C2747 C2746 1.377 . S
C2747 C2748 1.379 . S
C2748 H2732 0.931 . S
C2748 C2742 1.383 . S
C2748 C2747 1.379 . S
H2749 C2743 0.959 . S
H2750 C2743 0.961 . S
H2751 C2743 0.960 . S
H2752 C2744 0.930 . S
H2753 C2745 0.929 . S
H2754 C2762 0.929 . S
H2755 C2764 0.930 . S
H2756 C2766 0.930 . S
H2757 C2769 0.929 . S
H2758 C2772 0.930 . S
H2759 C2774 0.960 . S
H2760 C2774 0.960 . S
H2761 C2774 0.960 . S
C2762 H2754 0.929 . S
C2762 C2763 1.377 . S
C2762 C2764 1.384 . S
C2763 C2762 1.377 . S
C2763 C2769 1.390 . S
C2764 H2755 0.930 . S
C2764 C2762 1.384 . S
C2764 C2765 1.372 . S
C2765 C2764 1.372 . S
C2765 C2766 1.400 . S
C2765 C2770 1.490 . S
C2766 H2756 0.930 . S
C2766 C2765 1.400 . S
C2766 C2769 1.386 . S
H2767 C2783 0.930 . S
H2768 C2784 0.931 . S
C2769 H2757 0.929 . S
C2769 C2763 1.390 . S
C2769 C2766 1.386 . S
C2770 C2765 1.490 . S
C2770 C2772 1.395 . S
C2770 C2773 1.403 . S
H2771 C2777 0.930 . S
C2772 H2758 0.930 . S
C2772 C2770 1.395 . S
C2772 C2775 1.403 . S
C2773 C2770 1.403 . S
C2773 C2774 1.524 . S
C2773 C2777 1.400 . S
C2774 H2759 0.960 . S
C2774 H2760 0.960 . S
C2774 H2761 0.960 . S
C2774 C2773 1.524 . S
C2775 C2772 1.403 . S
C2775 C2776 1.392 . S
C2775 C2779 1.495 . S
C2776 C2775 1.392 . S
C2776 C2777 1.385 . S
C2776 C2778 1.478 . S
C2777 H2771 0.930 . S
C2777 C2773 1.400 . S
C2777 C2776 1.385 . S
C2778 C2776 1.478 . S
C2778 C2780 1.381 . S
C2778 C2784 1.383 . S
C2779 C2775 1.495 . S
C2779 H2785 0.959 . S
C2779 H2786 0.961 . S
C2779 H2787 0.960 . S
C2780 C2778 1.381 . S
C2780 C2781 1.394 . S
C2780 H2788 0.930 . S
C2781 C2780 1.394 . S
C2781 C2782 1.383 . S
C2781 H2789 0.929 . S
C2782 C2781 1.383 . S
C2782 C2783 1.377 . S
C2783 H2767 0.930 . S
C2783 C2782 1.377 . S
C2783 C2784 1.379 . S
C2784 H2768 0.931 . S
C2784 C2778 1.383 . S
C2784 C2783 1.379 . S
H2785 C2779 0.959 . S
H2786 C2779 0.961 . S
H2787 C2779 0.960 . S
H2788 C2780 0.930 . S
H2789 C2781 0.929 . S
H2790 C2798 0.929 . S
H2791 C2800 0.930 . S
H2792 C2802 0.930 . S
H2793 C2805 0.929 . S
H2794 C2808 0.930 . S
H2795 C2810 0.960 . S
H2796 C2810 0.960 . S
H2797 C2810 0.960 . S
C2798 H2790 0.929 . S
C2798 C2799 1.377 . S
C2798 C2800 1.384 . S
C2799 C2798 1.377 . S
C2799 C2805 1.390 . S
C2800 H2791 0.930 . S
C2800 C2798 1.384 . S
C2800 C2801 1.372 . S
C2801 C2800 1.372 . S
C2801 C2802 1.400 . S
C2801 C2806 1.490 . S
C2802 H2792 0.930 . S
C2802 C2801 1.400 . S
C2802 C2805 1.386 . S
H2803 C2819 0.930 . S
H2804 C2820 0.931 . S
C2805 H2793 0.929 . S
C2805 C2799 1.390 . S
C2805 C2802 1.386 . S
C2806 C2801 1.490 . S
C2806 C2808 1.395 . S
C2806 C2809 1.403 . S
H2807 C2813 0.930 . S
C2808 H2794 0.930 . S
C2808 C2806 1.395 . S
C2808 C2811 1.403 . S
C2809 C2806 1.403 . S
C2809 C2810 1.524 . S
C2809 C2813 1.400 . S
C2810 H2795 0.960 . S
C2810 H2796 0.960 . S
C2810 H2797 0.960 . S
C2810 C2809 1.524 . S
C2811 C2808 1.403 . S
C2811 C2812 1.392 . S
C2811 C2815 1.495 . S
C2812 C2811 1.392 . S
C2812 C2813 1.385 . S
C2812 C2814 1.478 . S
C2813 H2807 0.930 . S
C2813 C2809 1.400 . S
C2813 C2812 1.385 . S
C2814 C2812 1.478 . S
C2814 C2816 1.381 . S
C2814 C2820 1.383 . S
C2815 C2811 1.495 . S
C2815 H2821 0.959 . S
C2815 H2822 0.961 . S
C2815 H2823 0.960 . S
C2816 C2814 1.381 . S
C2816 C2817 1.394 . S
C2816 H2824 0.930 . S
C2817 C2816 1.394 . S
C2817 C2818 1.383 . S
C2817 H2825 0.929 . S
C2818 C2817 1.383 . S
C2818 C2819 1.377 . S
C2819 H2803 0.930 . S
C2819 C2818 1.377 . S
C2819 C2820 1.379 . S
C2820 H2804 0.931 . S
C2820 C2814 1.383 . S
C2820 C2819 1.379 . S
H2821 C2815 0.959 . S
H2822 C2815 0.961 . S
H2823 C2815 0.960 . S
H2824 C2816 0.930 . S
H2825 C2817 0.929 . S
H2826 C2834 0.929 . S
H2827 C2836 0.930 . S
H2828 C2838 0.930 . S
H2829 C2841 0.929 . S
H2830 C2844 0.930 . S
H2831 C2846 0.960 . S
H2832 C2846 0.960 . S
H2833 C2846 0.960 . S
C2834 H2826 0.929 . S
C2834 C2835 1.377 . S
C2834 C2836 1.384 . S
C2835 C2834 1.377 . S
C2835 C2841 1.390 . S
C2836 H2827 0.930 . S
C2836 C2834 1.384 . S
C2836 C2837 1.372 . S
C2837 C2836 1.372 . S
C2837 C2838 1.400 . S
C2837 C2842 1.490 . S
C2838 H2828 0.930 . S
C2838 C2837 1.400 . S
C2838 C2841 1.386 . S
H2839 C2855 0.930 . S
H2840 C2856 0.931 . S
C2841 H2829 0.929 . S
C2841 C2835 1.390 . S
C2841 C2838 1.386 . S
C2842 C2837 1.490 . S
C2842 C2844 1.395 . S
C2842 C2845 1.403 . S
H2843 C2849 0.930 . S
C2844 H2830 0.930 . S
C2844 C2842 1.395 . S
C2844 C2847 1.403 . S
C2845 C2842 1.403 . S
C2845 C2846 1.524 . S
C2845 C2849 1.400 . S
C2846 H2831 0.960 . S
C2846 H2832 0.960 . S
C2846 H2833 0.960 . S
C2846 C2845 1.524 . S
C2847 C2844 1.403 . S
C2847 C2848 1.392 . S
C2847 C2851 1.495 . S
C2848 C2847 1.392 . S
C2848 C2849 1.385 . S
C2848 C2850 1.478 . S
C2849 H2843 0.930 . S
C2849 C2845 1.400 . S
C2849 C2848 1.385 . S
C2850 C2848 1.478 . S
C2850 C2852 1.381 . S
C2850 C2856 1.383 . S
C2851 C2847 1.495 . S
C2851 H2857 0.959 . S
C2851 H2858 0.961 . S
C2851 H2859 0.960 . S
C2852 C2850 1.381 . S
C2852 C2853 1.394 . S
C2852 H2860 0.930 . S
C2853 C2852 1.394 . S
C2853 C2854 1.383 . S
C2853 H2861 0.929 . S
C2854 C2853 1.383 . S
C2854 C2855 1.377 . S
C2855 H2839 0.930 . S
C2855 C2854 1.377 . S
C2855 C2856 1.379 . S
C2856 H2840 0.931 . S
C2856 C2850 1.383 . S
C2856 C2855 1.379 . S
H2857 C2851 0.959 . S
H2858 C2851 0.961 . S
H2859 C2851 0.960 . S
H2860 C2852 0.930 . S
H2861 C2853 0.929 . S
H2862 C2870 0.929 . S
H2863 C2872 0.930 . S
H2864 C2874 0.930 . S
H2865 C2877 0.929 . S
H2866 C2880 0.930 . S
H2867 C2882 0.960 . S
H2868 C2882 0.960 . S
H2869 C2882 0.960 . S
C2870 H2862 0.929 . S
C2870 C2871 1.377 . S
C2870 C2872 1.384 . S
C2871 C2870 1.377 . S
C2871 C2877 1.390 . S
C2872 H2863 0.930 . S
C2872 C2870 1.384 . S
C2872 C2873 1.372 . S
C2873 C2872 1.372 . S
C2873 C2874 1.400 . S
C2873 C2878 1.490 . S
C2874 H2864 0.930 . S
C2874 C2873 1.400 . S
C2874 C2877 1.386 . S
H2875 C2891 0.930 . S
H2876 C2892 0.931 . S
C2877 H2865 0.929 . S
C2877 C2871 1.390 . S
C2877 C2874 1.386 . S
C2878 C2873 1.490 . S
C2878 C2880 1.395 . S
C2878 C2881 1.403 . S
H2879 C2885 0.930 . S
C2880 H2866 0.930 . S
C2880 C2878 1.395 . S
C2880 C2883 1.403 . S
C2881 C2878 1.403 . S
C2881 C2882 1.524 . S
C2881 C2885 1.400 . S
C2882 H2867 0.960 . S
C2882 H2868 0.960 . S
C2882 H2869 0.960 . S
C2882 C2881 1.524 . S
C2883 C2880 1.403 . S
C2883 C2884 1.392 . S
C2883 C2887 1.495 . S
C2884 C2883 1.392 . S
C2884 C2885 1.385 . S
C2884 C2886 1.478 . S
C2885 H2879 0.930 . S
C2885 C2881 1.400 . S
C2885 C2884 1.385 . S
C2886 C2884 1.478 . S
C2886 C2888 1.381 . S
C2886 C2892 1.383 . S
C2887 C2883 1.495 . S
C2887 H2893 0.959 . S
C2887 H2894 0.961 . S
C2887 H2895 0.960 . S
C2888 C2886 1.381 . S
C2888 C2889 1.394 . S
C2888 H2896 0.930 . S
C2889 C2888 1.394 . S
C2889 C2890 1.383 . S
C2889 H2897 0.929 . S
C2890 C2889 1.383 . S
C2890 C2891 1.377 . S
C2891 H2875 0.930 . S
C2891 C2890 1.377 . S
C2891 C2892 1.379 . S
C2892 H2876 0.931 . S
C2892 C2886 1.383 . S
C2892 C2891 1.379 . S
H2893 C2887 0.959 . S
H2894 C2887 0.961 . S
H2895 C2887 0.960 . S
H2896 C2888 0.930 . S
H2897 C2889 0.929 . S
C963 C147 1.432 . S
C982 C254 1.387 . S
C999 C158 1.457 . S
C1018 C338 1.375 . S
C1035 C136 1.428 . S
C1054 C432 1.402 . S
C1071 C125 1.400 . S
C1090 C348 1.407 1_556 S
C1126 C422 1.326 . S
C1107 C103 1.411 . S
C1143 C114 1.377 . S
C1162 C264 1.383 1_556 S
C1198 C265 1.455 . S
C1179 C131 1.492 . S
C1234 C349 1.425 . S
C1215 C109 1.515 . S
C1251 C120 1.507 . S
C1270 C441 1.468 1_556 S
C1287 C153 1.477 . S
C1306 C357 1.446 . S
C1323 C164 1.461 . S
C1342 C433 1.364 . S
C1378 C273 1.400 . S
C1359 C142 1.451 . S
C1414 C506 1.395 . S
C1395 C15 1.432 . S
C1431 C26 1.456 . S
C1450 C590 1.393 . S
C1467 C4 1.424 . S
C1486 C684 1.428 . S
C1503 C191 1.405 . S
C1522 C600 1.380 . S
C1539 C169 1.409 . S
C1558 C674 1.317 . S
C1575 C180 1.380 . S
C1594 C516 1.361 . S
C1611 C197 1.488 . S
C1630 C517 1.418 . S
C1647 C175 1.514 . S
C1666 C601 1.479 . S
C1702 C693 1.497 . S
C1683 C186 1.511 . S
C1719 C21 1.478 . S
C1738 C609 1.457 . S
C1774 C685 1.371 . S
C1755 C32 1.462 . S
C1791 C10 1.455 . S
C1810 C525 1.443 . S
C1846 C758 1.401 . S
C1827 C81 1.431 . S
C1863 C92 1.458 . S
C1882 C842 1.370 . S
C1918 C936 1.429 . S
C1899 C70 1.424 . S
C1954 C852 1.379 . S
C1935 C59 1.405 . S
C1990 C926 1.318 . S
C1971 C37 1.410 . S
C2007 C48 1.378 . S
C2026 C768 1.367 . S
C2043 C65 1.492 . S
C2062 C769 1.399 . S
C2079 C43 1.515 . S
C2098 C853 1.424 . S
C2134 C945 1.460 . S
C2115 C54 1.507 . S
C2151 C87 1.477 . S
C2170 C861 1.450 . S
C2187 C98 1.463 . S
C2206 C937 1.421 . S
C2223 C76 1.449 . S
C2242 C777 1.391 . S
C2259 C170 1.545 . S
C2278 C261 1.442 . S
C2314 C345 1.454 . S
C2295 C181 1.618 . S
C2331 C192 1.564 . S
C2350 C438 1.415 . S
C2367 C71 1.594 . S
C2386 C354 1.423 . S
C2403 C82 1.578 . S
C2422 C429 1.475 . S
C2458 C270 1.385 . S
C2439 C93 1.520 . S
C2475 C38 1.548 . S
C2494 C513 1.435 . S
C2511 C49 1.619 . S
C2530 C597 1.436 . S
C2547 C60 1.559 . S
C2566 C690 1.339 . S
C2583 C137 1.591 . S
C2602 C606 1.359 . S
C2638 C681 1.427 . S
C2619 C148 1.574 . S
C2655 C159 1.518 . S
C2674 C522 1.317 . S
C2691 C104 1.544 . S
C2710 C765 1.418 . S
C2727 C115 1.618 . S
C2746 C849 1.448 . S
C2782 C942 1.386 . S
C2763 C126 1.562 . S
C2799 C5 1.593 . S
C2818 C858 1.384 . S
C2835 C16 1.574 . S
C2854 C933 1.441 . S
C2871 C27 1.517 . S
C2890 C774 1.329 . S
