# Generated by pormake.
# Topology tbo, (3,4)-cn, num edge types: 1
# Building blocks:
#     Node 0, Type 0, BuildingBlock: WUSLED_clean_sbu_0, # of connection points: 3
#     Node 1, Type 0, BuildingBlock: WUSLED_clean_sbu_0, # of connection points: 3
#     Node 2, Type 0, BuildingBlock: WUSLED_clean_sbu_0, # of connection points: 3
#     Node 3, Type 0, BuildingBlock: WUSLED_clean_sbu_0, # of connection points: 3
#     Node 4, Type 0, BuildingBlock: WUSLED_clean_sbu_0, # of connection points: 3
#     Node 5, Type 0, BuildingBlock: WUSLED_clean_sbu_0, # of connection points: 3
#     Node 6, Type 0, BuildingBlock: WUSLED_clean_sbu_0, # of connection points: 3
#     Node 7, Type 0, BuildingBlock: WUSLED_clean_sbu_0, # of connection points: 3
#     Node 8, Type 0, BuildingBlock: WUSLED_clean_sbu_0, # of connection points: 3
#     Node 9, Type 0, BuildingBlock: WUSLED_clean_sbu_0, # of connection points: 3
#     Node 10, Type 0, BuildingBlock: WUSLED_clean_sbu_0, # of connection points: 3
#     Node 11, Type 0, BuildingBlock: WUSLED_clean_sbu_0, # of connection points: 3
#     Node 12, Type 0, BuildingBlock: WUSLED_clean_sbu_0, # of connection points: 3
#     Node 13, Type 0, BuildingBlock: WUSLED_clean_sbu_0, # of connection points: 3
#     Node 14, Type 0, BuildingBlock: WUSLED_clean_sbu_0, # of connection points: 3
#     Node 15, Type 0, BuildingBlock: WUSLED_clean_sbu_0, # of connection points: 3
#     Node 16, Type 0, BuildingBlock: WUSLED_clean_sbu_0, # of connection points: 3
#     Node 17, Type 0, BuildingBlock: WUSLED_clean_sbu_0, # of connection points: 3
#     Node 18, Type 0, BuildingBlock: WUSLED_clean_sbu_0, # of connection points: 3
#     Node 19, Type 0, BuildingBlock: WUSLED_clean_sbu_0, # of connection points: 3
#     Node 20, Type 0, BuildingBlock: WUSLED_clean_sbu_0, # of connection points: 3
#     Node 21, Type 0, BuildingBlock: WUSLED_clean_sbu_0, # of connection points: 3
#     Node 22, Type 0, BuildingBlock: WUSLED_clean_sbu_0, # of connection points: 3
#     Node 23, Type 0, BuildingBlock: WUSLED_clean_sbu_0, # of connection points: 3
#     Node 24, Type 0, BuildingBlock: WUSLED_clean_sbu_0, # of connection points: 3
#     Node 25, Type 0, BuildingBlock: WUSLED_clean_sbu_0, # of connection points: 3
#     Node 26, Type 0, BuildingBlock: WUSLED_clean_sbu_0, # of connection points: 3
#     Node 27, Type 0, BuildingBlock: WUSLED_clean_sbu_0, # of connection points: 3
#     Node 28, Type 0, BuildingBlock: WUSLED_clean_sbu_0, # of connection points: 3
#     Node 29, Type 0, BuildingBlock: WUSLED_clean_sbu_0, # of connection points: 3
#     Node 30, Type 0, BuildingBlock: WUSLED_clean_sbu_0, # of connection points: 3
#     Node 31, Type 0, BuildingBlock: WUSLED_clean_sbu_0, # of connection points: 3
#     Node 32, Type 1, BuildingBlock: NAWXER_clean_linker_0, # of connection points: 4
#     Node 33, Type 1, BuildingBlock: NAWXER_clean_linker_0, # of connection points: 4
#     Node 34, Type 1, BuildingBlock: NAWXER_clean_linker_0, # of connection points: 4
#     Node 35, Type 1, BuildingBlock: NAWXER_clean_linker_0, # of connection points: 4
#     Node 36, Type 1, BuildingBlock: NAWXER_clean_linker_0, # of connection points: 4
#     Node 37, Type 1, BuildingBlock: NAWXER_clean_linker_0, # of connection points: 4
#     Node 38, Type 1, BuildingBlock: NAWXER_clean_linker_0, # of connection points: 4
#     Node 39, Type 1, BuildingBlock: NAWXER_clean_linker_0, # of connection points: 4
#     Node 40, Type 1, BuildingBlock: NAWXER_clean_linker_0, # of connection points: 4
#     Node 41, Type 1, BuildingBlock: NAWXER_clean_linker_0, # of connection points: 4
#     Node 42, Type 1, BuildingBlock: NAWXER_clean_linker_0, # of connection points: 4
#     Node 43, Type 1, BuildingBlock: NAWXER_clean_linker_0, # of connection points: 4
#     Node 44, Type 1, BuildingBlock: NAWXER_clean_linker_0, # of connection points: 4
#     Node 45, Type 1, BuildingBlock: NAWXER_clean_linker_0, # of connection points: 4
#     Node 46, Type 1, BuildingBlock: NAWXER_clean_linker_0, # of connection points: 4
#     Node 47, Type 1, BuildingBlock: NAWXER_clean_linker_0, # of connection points: 4
#     Node 48, Type 1, BuildingBlock: NAWXER_clean_linker_0, # of connection points: 4
#     Node 49, Type 1, BuildingBlock: NAWXER_clean_linker_0, # of connection points: 4
#     Node 50, Type 1, BuildingBlock: NAWXER_clean_linker_0, # of connection points: 4
#     Node 51, Type 1, BuildingBlock: NAWXER_clean_linker_0, # of connection points: 4
#     Node 52, Type 1, BuildingBlock: NAWXER_clean_linker_0, # of connection points: 4
#     Node 53, Type 1, BuildingBlock: NAWXER_clean_linker_0, # of connection points: 4
#     Node 54, Type 1, BuildingBlock: NAWXER_clean_linker_0, # of connection points: 4
#     Node 55, Type 1, BuildingBlock: NAWXER_clean_linker_0, # of connection points: 4
#     Edge 56, Type (0, 1), BuildingBlock: UVAHIK_clean_linker_0, # of connection points: 2
#     Edge 57, Type (0, 1), BuildingBlock: UVAHIK_clean_linker_0, # of connection points: 2
#     Edge 58, Type (0, 1), BuildingBlock: UVAHIK_clean_linker_0, # of connection points: 2
#     Edge 59, Type (0, 1), BuildingBlock: UVAHIK_clean_linker_0, # of connection points: 2
#     Edge 60, Type (0, 1), BuildingBlock: UVAHIK_clean_linker_0, # of connection points: 2
#     Edge 61, Type (0, 1), BuildingBlock: UVAHIK_clean_linker_0, # of connection points: 2
#     Edge 62, Type (0, 1), BuildingBlock: UVAHIK_clean_linker_0, # of connection points: 2
#     Edge 63, Type (0, 1), BuildingBlock: UVAHIK_clean_linker_0, # of connection points: 2
#     Edge 64, Type (0, 1), BuildingBlock: UVAHIK_clean_linker_0, # of connection points: 2
#     Edge 65, Type (0, 1), BuildingBlock: UVAHIK_clean_linker_0, # of connection points: 2
#     Edge 66, Type (0, 1), BuildingBlock: UVAHIK_clean_linker_0, # of connection points: 2
#     Edge 67, Type (0, 1), BuildingBlock: UVAHIK_clean_linker_0, # of connection points: 2
#     Edge 68, Type (0, 1), BuildingBlock: UVAHIK_clean_linker_0, # of connection points: 2
#     Edge 69, Type (0, 1), BuildingBlock: UVAHIK_clean_linker_0, # of connection points: 2
#     Edge 70, Type (0, 1), BuildingBlock: UVAHIK_clean_linker_0, # of connection points: 2
#     Edge 71, Type (0, 1), BuildingBlock: UVAHIK_clean_linker_0, # of connection points: 2
#     Edge 72, Type (0, 1), BuildingBlock: UVAHIK_clean_linker_0, # of connection points: 2
#     Edge 73, Type (0, 1), BuildingBlock: UVAHIK_clean_linker_0, # of connection points: 2
#     Edge 74, Type (0, 1), BuildingBlock: UVAHIK_clean_linker_0, # of connection points: 2
#     Edge 75, Type (0, 1), BuildingBlock: UVAHIK_clean_linker_0, # of connection points: 2
#     Edge 76, Type (0, 1), BuildingBlock: UVAHIK_clean_linker_0, # of connection points: 2
#     Edge 77, Type (0, 1), BuildingBlock: UVAHIK_clean_linker_0, # of connection points: 2
#     Edge 78, Type (0, 1), BuildingBlock: UVAHIK_clean_linker_0, # of connection points: 2
#     Edge 79, Type (0, 1), BuildingBlock: UVAHIK_clean_linker_0, # of connection points: 2
#     Edge 80, Type (0, 1), BuildingBlock: UVAHIK_clean_linker_0, # of connection points: 2
#     Edge 81, Type (0, 1), BuildingBlock: UVAHIK_clean_linker_0, # of connection points: 2
#     Edge 82, Type (0, 1), BuildingBlock: UVAHIK_clean_linker_0, # of connection points: 2
#     Edge 83, Type (0, 1), BuildingBlock: UVAHIK_clean_linker_0, # of connection points: 2
#     Edge 84, Type (0, 1), BuildingBlock: UVAHIK_clean_linker_0, # of connection points: 2
#     Edge 85, Type (0, 1), BuildingBlock: UVAHIK_clean_linker_0, # of connection points: 2
#     Edge 86, Type (0, 1), BuildingBlock: UVAHIK_clean_linker_0, # of connection points: 2
#     Edge 87, Type (0, 1), BuildingBlock: UVAHIK_clean_linker_0, # of connection points: 2
#     Edge 88, Type (0, 1), BuildingBlock: UVAHIK_clean_linker_0, # of connection points: 2
#     Edge 89, Type (0, 1), BuildingBlock: UVAHIK_clean_linker_0, # of connection points: 2
#     Edge 90, Type (0, 1), BuildingBlock: UVAHIK_clean_linker_0, # of connection points: 2
#     Edge 91, Type (0, 1), BuildingBlock: UVAHIK_clean_linker_0, # of connection points: 2
#     Edge 92, Type (0, 1), BuildingBlock: UVAHIK_clean_linker_0, # of connection points: 2
#     Edge 93, Type (0, 1), BuildingBlock: UVAHIK_clean_linker_0, # of connection points: 2
#     Edge 94, Type (0, 1), BuildingBlock: UVAHIK_clean_linker_0, # of connection points: 2
#     Edge 95, Type (0, 1), BuildingBlock: UVAHIK_clean_linker_0, # of connection points: 2
#     Edge 96, Type (0, 1), BuildingBlock: UVAHIK_clean_linker_0, # of connection points: 2
#     Edge 97, Type (0, 1), BuildingBlock: UVAHIK_clean_linker_0, # of connection points: 2
#     Edge 98, Type (0, 1), BuildingBlock: UVAHIK_clean_linker_0, # of connection points: 2
#     Edge 99, Type (0, 1), BuildingBlock: UVAHIK_clean_linker_0, # of connection points: 2
#     Edge 100, Type (0, 1), BuildingBlock: UVAHIK_clean_linker_0, # of connection points: 2
#     Edge 101, Type (0, 1), BuildingBlock: UVAHIK_clean_linker_0, # of connection points: 2
#     Edge 102, Type (0, 1), BuildingBlock: UVAHIK_clean_linker_0, # of connection points: 2
#     Edge 103, Type (0, 1), BuildingBlock: UVAHIK_clean_linker_0, # of connection points: 2
#     Edge 104, Type (0, 1), BuildingBlock: UVAHIK_clean_linker_0, # of connection points: 2
#     Edge 105, Type (0, 1), BuildingBlock: UVAHIK_clean_linker_0, # of connection points: 2
#     Edge 106, Type (0, 1), BuildingBlock: UVAHIK_clean_linker_0, # of connection points: 2
#     Edge 107, Type (0, 1), BuildingBlock: UVAHIK_clean_linker_0, # of connection points: 2
#     Edge 108, Type (0, 1), BuildingBlock: UVAHIK_clean_linker_0, # of connection points: 2
#     Edge 109, Type (0, 1), BuildingBlock: UVAHIK_clean_linker_0, # of connection points: 2
#     Edge 110, Type (0, 1), BuildingBlock: UVAHIK_clean_linker_0, # of connection points: 2
#     Edge 111, Type (0, 1), BuildingBlock: UVAHIK_clean_linker_0, # of connection points: 2
#     Edge 112, Type (0, 1), BuildingBlock: UVAHIK_clean_linker_0, # of connection points: 2
#     Edge 113, Type (0, 1), BuildingBlock: UVAHIK_clean_linker_0, # of connection points: 2
#     Edge 114, Type (0, 1), BuildingBlock: UVAHIK_clean_linker_0, # of connection points: 2
#     Edge 115, Type (0, 1), BuildingBlock: UVAHIK_clean_linker_0, # of connection points: 2
#     Edge 116, Type (0, 1), BuildingBlock: UVAHIK_clean_linker_0, # of connection points: 2
#     Edge 117, Type (0, 1), BuildingBlock: UVAHIK_clean_linker_0, # of connection points: 2
#     Edge 118, Type (0, 1), BuildingBlock: UVAHIK_clean_linker_0, # of connection points: 2
#     Edge 119, Type (0, 1), BuildingBlock: UVAHIK_clean_linker_0, # of connection points: 2
#     Edge 120, Type (0, 1), BuildingBlock: UVAHIK_clean_linker_0, # of connection points: 2
#     Edge 121, Type (0, 1), BuildingBlock: UVAHIK_clean_linker_0, # of connection points: 2
#     Edge 122, Type (0, 1), BuildingBlock: UVAHIK_clean_linker_0, # of connection points: 2
#     Edge 123, Type (0, 1), BuildingBlock: UVAHIK_clean_linker_0, # of connection points: 2
#     Edge 124, Type (0, 1), BuildingBlock: UVAHIK_clean_linker_0, # of connection points: 2
#     Edge 125, Type (0, 1), BuildingBlock: UVAHIK_clean_linker_0, # of connection points: 2
#     Edge 126, Type (0, 1), BuildingBlock: UVAHIK_clean_linker_0, # of connection points: 2
#     Edge 127, Type (0, 1), BuildingBlock: UVAHIK_clean_linker_0, # of connection points: 2
#     Edge 128, Type (0, 1), BuildingBlock: UVAHIK_clean_linker_0, # of connection points: 2
#     Edge 129, Type (0, 1), BuildingBlock: UVAHIK_clean_linker_0, # of connection points: 2
#     Edge 130, Type (0, 1), BuildingBlock: UVAHIK_clean_linker_0, # of connection points: 2
#     Edge 131, Type (0, 1), BuildingBlock: UVAHIK_clean_linker_0, # of connection points: 2
#     Edge 132, Type (0, 1), BuildingBlock: UVAHIK_clean_linker_0, # of connection points: 2
#     Edge 133, Type (0, 1), BuildingBlock: UVAHIK_clean_linker_0, # of connection points: 2
#     Edge 134, Type (0, 1), BuildingBlock: UVAHIK_clean_linker_0, # of connection points: 2
#     Edge 135, Type (0, 1), BuildingBlock: UVAHIK_clean_linker_0, # of connection points: 2
#     Edge 136, Type (0, 1), BuildingBlock: UVAHIK_clean_linker_0, # of connection points: 2
#     Edge 137, Type (0, 1), BuildingBlock: UVAHIK_clean_linker_0, # of connection points: 2
#     Edge 138, Type (0, 1), BuildingBlock: UVAHIK_clean_linker_0, # of connection points: 2
#     Edge 139, Type (0, 1), BuildingBlock: UVAHIK_clean_linker_0, # of connection points: 2
#     Edge 140, Type (0, 1), BuildingBlock: UVAHIK_clean_linker_0, # of connection points: 2
#     Edge 141, Type (0, 1), BuildingBlock: UVAHIK_clean_linker_0, # of connection points: 2
#     Edge 142, Type (0, 1), BuildingBlock: UVAHIK_clean_linker_0, # of connection points: 2
#     Edge 143, Type (0, 1), BuildingBlock: UVAHIK_clean_linker_0, # of connection points: 2
#     Edge 144, Type (0, 1), BuildingBlock: UVAHIK_clean_linker_0, # of connection points: 2
#     Edge 145, Type (0, 1), BuildingBlock: UVAHIK_clean_linker_0, # of connection points: 2
#     Edge 146, Type (0, 1), BuildingBlock: UVAHIK_clean_linker_0, # of connection points: 2
#     Edge 147, Type (0, 1), BuildingBlock: UVAHIK_clean_linker_0, # of connection points: 2
#     Edge 148, Type (0, 1), BuildingBlock: UVAHIK_clean_linker_0, # of connection points: 2
#     Edge 149, Type (0, 1), BuildingBlock: UVAHIK_clean_linker_0, # of connection points: 2
#     Edge 150, Type (0, 1), BuildingBlock: UVAHIK_clean_linker_0, # of connection points: 2
#     Edge 151, Type (0, 1), BuildingBlock: UVAHIK_clean_linker_0, # of connection points: 2
# Relax obj value: 0.000
# Max RMSD: 0.012
# Mean RMSD: 0.006
data_MOF--net-tbo--node1-WUSLED_clean_sbu_0--node2-NAWXER_clean_linker_0--edge1-UVAHIK_clean_linker_0
_symmetry_space_group_name_H-M    P1
_symmetry_Int_Tables_number       1
_symmetry_cell_setting            triclinic
loop_
_symmetry_equiv_pos_as_xyz
'x, y, z'
_cell_length_a     129.77229
_cell_length_b     130.10526
_cell_length_c     130.04715
_cell_angle_alpha  89.678008
_cell_angle_beta   90.306794
_cell_angle_gamma 90.64624
loop_
_atom_site_label
_atom_site_type_symbol
_atom_site_fract_x
_atom_site_fract_y
_atom_site_fract_z
_atom_type_partial_charge
C0 C 0.17884 0.15217 0.19332 0.0
C1 C 0.18417 0.14587 0.18646 0.0
C2 C 0.18965 0.13483 0.20066 0.0
C3 C 0.1895 0.13727 0.19009 0.0
C4 C 0.18445 0.14131 0.20749 0.0
C5 C 0.17909 0.14986 0.20385 0.0
U6 U 0.17386 0.17462 0.17469 0.0
O7 O 0.15918 0.18012 0.16822 0.0
O8 O 0.16866 0.19028 0.17791 0.0
C9 C 0.15983 0.18894 0.17307 0.0
C10 C 0.17285 0.16106 0.1897 0.0
C11 C 0.15055 0.192 0.17872 0.0
C12 C 0.14067 0.19316 0.19452 0.0
C13 C 0.1494 0.18984 0.18925 0.0
C14 C 0.13402 0.2006 0.17875 0.0
C15 C 0.13289 0.19862 0.18933 0.0
C16 C 0.14277 0.19734 0.17351 0.0
C17 C 0.19241 0.17989 0.15233 0.0
C18 C 0.18885 0.19087 0.13755 0.0
C19 C 0.20634 0.18558 0.14118 0.0
C20 C 0.20288 0.18006 0.14977 0.0
C21 C 0.19937 0.19103 0.13494 0.0
C22 C 0.1854 0.18538 0.1462 0.0
C23 C 0.18901 0.17395 0.1614 0.0
O24 O 0.17738 0.17009 0.19067 0.0
O25 O 0.16797 0.15995 0.18088 0.0
O26 O 0.18038 0.16865 0.16037 0.0
O27 O 0.18973 0.17877 0.17023 0.0
H28 H 0.18411 0.14754 0.17828 0.0
H29 H 0.19333 0.13242 0.18459 0.0
H30 H 0.18456 0.13982 0.21569 0.0
H31 H 0.17509 0.15467 0.20927 0.0
H32 H 0.13998 0.1914 0.20264 0.0
H33 H 0.15529 0.18565 0.19341 0.0
H34 H 0.12825 0.20489 0.17454 0.0
H35 H 0.14352 0.19908 0.16539 0.0
H36 H 0.18331 0.19508 0.13297 0.0
H37 H 0.21447 0.18544 0.13933 0.0
H38 H 0.2084 0.17587 0.15441 0.0
H39 H 0.17728 0.18542 0.14809 0.0
C40 C 0.82179 0.17939 0.15366 0.0
C41 C 0.82868 0.18556 0.148 0.0
C42 C 0.81481 0.19047 0.13633 0.0
C43 C 0.82523 0.19102 0.13937 0.0
C44 C 0.80795 0.1843 0.14208 0.0
C45 C 0.81143 0.1788 0.15066 0.0
U46 U 0.84056 0.1757 0.17594 0.0
O47 O 0.83753 0.17157 0.1921 0.0
O48 O 0.84715 0.16166 0.18259 0.0
C49 C 0.84231 0.16275 0.19137 0.0
C50 C 0.82524 0.17372 0.16284 0.0
C51 C 0.83643 0.1537 0.19496 0.0
C52 C 0.82469 0.13939 0.19171 0.0
C53 C 0.83018 0.14801 0.18818 0.0
C54 C 0.83147 0.14219 0.20888 0.0
C55 C 0.82527 0.13639 0.2021 0.0
C56 C 0.83701 0.15076 0.20532 0.0
C57 C 0.86317 0.19439 0.17921 0.0
C58 C 0.87415 0.19438 0.1944 0.0
C59 C 0.87843 0.20531 0.17985 0.0
C60 C 0.86972 0.20166 0.1746 0.0
C61 C 0.88073 0.20177 0.18984 0.0
C62 C 0.86545 0.19071 0.18912 0.0
C63 C 0.85397 0.19077 0.17364 0.0
O64 O 0.83398 0.1688 0.16195 0.0
O65 O 0.82447 0.17872 0.17155 0.0
O66 O 0.8452 0.19177 0.17853 0.0
O67 O 0.85484 0.18183 0.16908 0.0
H68 H 0.8367 0.1862 0.15028 0.0
H69 H 0.83067 0.19579 0.13516 0.0
H70 H 0.79991 0.18364 0.13987 0.0
H71 H 0.806 0.17409 0.15496 0.0
H72 H 0.81988 0.13515 0.18633 0.0
H73 H 0.82955 0.15023 0.18016 0.0
H74 H 0.83216 0.14001 0.2169 0.0
H75 H 0.84179 0.15508 0.21066 0.0
H76 H 0.87563 0.19156 0.20211 0.0
H77 H 0.88341 0.21086 0.17604 0.0
H78 H 0.86809 0.20453 0.16693 0.0
H79 H 0.86046 0.18507 0.19279 0.0
C80 C 0.82298 0.8365 0.15205 0.0
C81 C 0.83016 0.83099 0.14629 0.0
C82 C 0.81651 0.82512 0.13469 0.0
C83 C 0.82696 0.82538 0.13766 0.0
C84 C 0.80936 0.83059 0.14056 0.0
C85 C 0.81257 0.83623 0.14914 0.0
U86 U 0.84114 0.84224 0.17473 0.0
O87 O 0.84669 0.85704 0.18081 0.0
O88 O 0.83738 0.84678 0.19057 0.0
C89 C 0.84176 0.85588 0.18955 0.0
C90 C 0.82613 0.84255 0.16111 0.0
C91 C 0.83557 0.86468 0.19289 0.0
C92 C 0.82428 0.87906 0.1892 0.0
C93 C 0.82984 0.87055 0.18584 0.0
C94 C 0.82994 0.87578 0.20668 0.0
C95 C 0.82429 0.88179 0.19966 0.0
C96 C 0.83553 0.86733 0.20332 0.0
C97 C 0.86478 0.82534 0.17948 0.0
C98 C 0.8745 0.82424 0.1955 0.0
C99 C 0.88156 0.81724 0.17985 0.0
C100 C 0.87277 0.82031 0.17443 0.0
C101 C 0.88251 0.8191 0.19047 0.0
C102 C 0.86573 0.82738 0.19004 0.0
C103 C 0.85548 0.8282 0.17362 0.0
O104 O 0.82541 0.83776 0.17 0.0
O105 O 0.83466 0.84803 0.16018 0.0
O106 O 0.856 0.83701 0.16864 0.0
O107 O 0.84664 0.8267 0.17832 0.0
H108 H 0.83824 0.83103 0.14847 0.0
H109 H 0.83264 0.82116 0.13337 0.0
H110 H 0.80128 0.83066 0.13842 0.0
H111 H 0.80692 0.84043 0.15349 0.0
H112 H 0.81992 0.88345 0.18361 0.0
H113 H 0.8297 0.86858 0.17776 0.0
H114 H 0.83021 0.87774 0.21476 0.0
H115 H 0.83991 0.8629 0.20886 0.0
H116 H 0.87505 0.8259 0.20363 0.0
H117 H 0.88751 0.81319 0.17577 0.0
H118 H 0.87217 0.81867 0.16629 0.0
H119 H 0.85967 0.83132 0.19408 0.0
C120 C 0.15248 0.82235 0.17928 0.0
C121 C 0.15142 0.82435 0.18982 0.0
C122 C 0.13499 0.81503 0.19004 0.0
C123 C 0.14277 0.8207 0.19515 0.0
C124 C 0.13607 0.81321 0.17944 0.0
C125 C 0.14473 0.81682 0.17413 0.0
U126 U 0.17524 0.84089 0.1752 0.0
O127 O 0.19108 0.83787 0.17028 0.0
O128 O 0.18115 0.8477 0.1608 0.0
C129 C 0.18996 0.84285 0.16153 0.0
C130 C 0.16158 0.82596 0.17351 0.0
C131 C 0.19321 0.83735 0.15224 0.0
C132 C 0.19512 0.8216 0.14247 0.0
C133 C 0.19157 0.82672 0.15118 0.0
C134 C 0.20172 0.83772 0.13565 0.0
C135 C 0.20032 0.82702 0.13462 0.0
C136 C 0.19822 0.84281 0.14438 0.0
C137 C 0.18009 0.86293 0.19409 0.0
C138 C 0.19078 0.87804 0.19071 0.0
C139 C 0.18562 0.87393 0.20815 0.0
C140 C 0.18027 0.86526 0.20459 0.0
C141 C 0.19087 0.8805 0.20125 0.0
C142 C 0.18546 0.86932 0.18717 0.0
C143 C 0.1742 0.85387 0.19053 0.0
O144 O 0.16062 0.83489 0.16886 0.0
O145 O 0.17053 0.82487 0.17815 0.0
O146 O 0.179 0.84505 0.1912 0.0
O147 O 0.16905 0.85501 0.18187 0.0
H148 H 0.15731 0.82866 0.19393 0.0
H149 H 0.14226 0.82217 0.20332 0.0
H150 H 0.13016 0.80906 0.17519 0.0
H151 H 0.14538 0.81528 0.16598 0.0
H152 H 0.19399 0.81336 0.14201 0.0
H153 H 0.18767 0.82236 0.15715 0.0
H154 H 0.2055 0.84218 0.12968 0.0
H155 H 0.1995 0.85103 0.14502 0.0
H156 H 0.19464 0.88296 0.18517 0.0
H157 H 0.18568 0.87545 0.21632 0.0
H158 H 0.17623 0.86037 0.21005 0.0
H159 H 0.18547 0.86762 0.17902 0.0
C160 C 0.15322 0.82239 0.839 0.0
C161 C 0.14698 0.82929 0.83353 0.0
C162 C 0.13556 0.81521 0.82837 0.0
C163 C 0.1382 0.82573 0.8283 0.0
C164 C 0.14195 0.80833 0.83376 0.0
C165 C 0.15068 0.81191 0.83904 0.0
U166 U 0.17562 0.84128 0.84249 0.0
O167 O 0.18225 0.84811 0.85649 0.0
O168 O 0.1918 0.8384 0.8467 0.0
C169 C 0.19105 0.84331 0.85547 0.0
C170 C 0.16247 0.82597 0.84458 0.0
C171 C 0.19463 0.8376 0.86458 0.0
C172 C 0.19138 0.82596 0.8789 0.0
C173 C 0.18784 0.83132 0.87025 0.0
C174 C 0.20855 0.83294 0.87618 0.0
C175 C 0.20178 0.8267 0.88196 0.0
C176 C 0.20499 0.83836 0.86758 0.0
C177 C 0.17901 0.86359 0.8236 0.0
C178 C 0.19052 0.87815 0.82658 0.0
C179 C 0.18335 0.87523 0.80959 0.0
C180 C 0.17811 0.86653 0.81326 0.0
C181 C 0.18959 0.88118 0.81621 0.0
C182 C 0.1853 0.86941 0.83023 0.0
C183 C 0.17343 0.8544 0.82727 0.0
O184 O 0.17118 0.82517 0.83956 0.0
O185 O 0.16161 0.83474 0.84946 0.0
O186 O 0.16873 0.85532 0.83615 0.0
O187 O 0.17838 0.8457 0.82637 0.0
H188 H 0.14885 0.83742 0.83334 0.0
H189 H 0.13341 0.83126 0.82433 0.0
H190 H 0.14028 0.80016 0.83383 0.0
H191 H 0.15547 0.80646 0.84314 0.0
H192 H 0.18601 0.82112 0.88312 0.0
H193 H 0.17983 0.83056 0.86798 0.0
H194 H 0.21657 0.83375 0.8784 0.0
H195 H 0.21033 0.84315 0.86327 0.0
H196 H 0.19517 0.8826 0.83192 0.0
H197 H 0.18261 0.87721 0.80152 0.0
H198 H 0.17335 0.86208 0.80802 0.0
H199 H 0.18614 0.86722 0.83824 0.0
C200 C 0.15132 0.17853 0.82347 0.0
C201 C 0.14578 0.18441 0.83053 0.0
C202 C 0.13415 0.19004 0.81687 0.0
C203 C 0.13724 0.19008 0.82726 0.0
C204 C 0.13982 0.18422 0.80982 0.0
C205 C 0.1483 0.17852 0.8131 0.0
U206 U 0.17371 0.17274 0.84184 0.0
O207 O 0.17917 0.15788 0.84783 0.0
O208 O 0.18943 0.16763 0.83851 0.0
C209 C 0.18805 0.15868 0.84307 0.0
C210 C 0.1602 0.17233 0.82673 0.0
C211 C 0.1912 0.14957 0.83724 0.0
C212 C 0.19271 0.1401 0.82125 0.0
C213 C 0.1894 0.14876 0.82661 0.0
C214 C 0.19944 0.1329 0.83709 0.0
C215 C 0.19779 0.13207 0.82643 0.0
C216 C 0.19619 0.14157 0.84243 0.0
C217 C 0.17871 0.19015 0.86509 0.0
C218 C 0.1947 0.19125 0.8749 0.0
C219 C 0.17908 0.19851 0.88176 0.0
C220 C 0.17367 0.19535 0.87298 0.0
C221 C 0.18968 0.19657 0.8828 0.0
C222 C 0.18925 0.18803 0.86614 0.0
C223 C 0.17286 0.1872 0.8558 0.0
O224 O 0.16926 0.17689 0.82599 0.0
O225 O 0.15906 0.16709 0.83533 0.0
O226 O 0.16757 0.17855 0.85644 0.0
O227 O 0.17772 0.18833 0.84701 0.0
H228 H 0.14803 0.18458 0.83856 0.0
H229 H 0.13311 0.19457 0.83286 0.0
H230 H 0.13758 0.18393 0.80179 0.0
H231 H 0.15249 0.17403 0.80755 0.0
H232 H 0.19122 0.13965 0.81306 0.0
H233 H 0.18548 0.15483 0.82247 0.0
H234 H 0.20344 0.12692 0.8413 0.0
H235 H 0.19765 0.14206 0.85063 0.0
H236 H 0.20283 0.18953 0.87552 0.0
H237 H 0.17501 0.20268 0.88763 0.0
H238 H 0.16554 0.19706 0.87231 0.0
H239 H 0.19328 0.18396 0.86017 0.0
C240 C 0.82142 0.15332 0.83827 0.0
C241 C 0.82819 0.14761 0.83222 0.0
C242 C 0.8142 0.13583 0.82751 0.0
C243 C 0.82462 0.13893 0.82691 0.0
C244 C 0.80744 0.14171 0.83346 0.0
C245 C 0.81103 0.15035 0.8388 0.0
U246 U 0.84016 0.17582 0.84286 0.0
O247 O 0.83709 0.19159 0.84789 0.0
O248 O 0.84681 0.18157 0.85739 0.0
C249 C 0.84198 0.19037 0.85668 0.0
C250 C 0.82503 0.16231 0.84417 0.0
C251 C 0.83635 0.19351 0.86593 0.0
C252 C 0.82058 0.19452 0.87587 0.0
C253 C 0.82583 0.19121 0.86714 0.0
C254 C 0.83636 0.20226 0.88238 0.0
C255 C 0.82578 0.20011 0.88358 0.0
C256 C 0.84158 0.199 0.87363 0.0
C257 C 0.86246 0.18082 0.82428 0.0
C258 C 0.87704 0.1922 0.82779 0.0
C259 C 0.87375 0.18633 0.81042 0.0
C260 C 0.86517 0.18073 0.81387 0.0
C261 C 0.8798 0.19212 0.81734 0.0
C262 C 0.86841 0.18663 0.83123 0.0
C263 C 0.85336 0.17487 0.82768 0.0
O264 O 0.8339 0.16128 0.84899 0.0
O265 O 0.82409 0.17125 0.83953 0.0
O266 O 0.84453 0.17967 0.82695 0.0
O267 O 0.8544 0.16969 0.83633 0.0
H268 H 0.83625 0.1498 0.83168 0.0
H269 H 0.83006 0.13454 0.82249 0.0
H270 H 0.79934 0.1397 0.83395 0.0
H271 H 0.80568 0.15471 0.84337 0.0
H272 H 0.81247 0.19264 0.87662 0.0
H273 H 0.82167 0.18689 0.86131 0.0
H274 H 0.84056 0.20664 0.88812 0.0
H275 H 0.8497 0.20085 0.87283 0.0
H276 H 0.88147 0.19666 0.83329 0.0
H277 H 0.87573 0.18601 0.80235 0.0
H278 H 0.86067 0.17629 0.8084 0.0
H279 H 0.86638 0.18687 0.83929 0.0
C280 C 0.83759 0.86523 0.82326 0.0
C281 C 0.82704 0.86609 0.82539 0.0
C282 C 0.82662 0.88276 0.81672 0.0
C283 C 0.82159 0.87476 0.82211 0.0
C284 C 0.83722 0.88188 0.81472 0.0
C285 C 0.84263 0.8732 0.81794 0.0
U286 U 0.84257 0.84222 0.84114 0.0
O287 O 0.84731 0.8265 0.83747 0.0
O288 O 0.8573 0.83628 0.84706 0.0
C289 C 0.85628 0.82755 0.84211 0.0
C290 C 0.84347 0.8561 0.82641 0.0
C291 C 0.86536 0.82425 0.83627 0.0
C292 C 0.87486 0.82271 0.82028 0.0
C293 C 0.86632 0.82628 0.82569 0.0
C294 C 0.88167 0.81528 0.83599 0.0
C295 C 0.88261 0.81708 0.82535 0.0
C296 C 0.87313 0.81881 0.84137 0.0
C297 C 0.82497 0.83713 0.86427 0.0
C298 C 0.82314 0.82096 0.87362 0.0
C299 C 0.81726 0.83677 0.88126 0.0
C300 C 0.82043 0.84223 0.87253 0.0
C301 C 0.81852 0.82606 0.8819 0.0
C302 C 0.82638 0.82646 0.8649 0.0
C303 C 0.82805 0.84309 0.85509 0.0
O304 O 0.84864 0.85693 0.83509 0.0
O305 O 0.83872 0.84718 0.8254 0.0
O306 O 0.82682 0.83849 0.84618 0.0
O307 O 0.83684 0.84817 0.85585 0.0
H308 H 0.82301 0.86005 0.82957 0.0
H309 H 0.81347 0.87525 0.82387 0.0
H310 H 0.84131 0.88784 0.81048 0.0
H311 H 0.85077 0.87268 0.81622 0.0
H312 H 0.87528 0.82417 0.81209 0.0
H313 H 0.86041 0.83051 0.82161 0.0
H314 H 0.88756 0.81117 0.84019 0.0
H315 H 0.87255 0.81724 0.84954 0.0
H316 H 0.82433 0.81274 0.87392 0.0
H317 H 0.81363 0.84091 0.88745 0.0
H318 H 0.81927 0.85046 0.87219 0.0
H319 H 0.82995 0.82236 0.85865 0.0
C320 C 0.17908 0.65188 0.69309 0.0
C321 C 0.18245 0.64443 0.68611 0.0
C322 C 0.19012 0.63457 0.70014 0.0
C323 C 0.18787 0.63584 0.68962 0.0
C324 C 0.18688 0.64212 0.70707 0.0
C325 C 0.18138 0.65066 0.70358 0.0
U326 U 0.17389 0.67451 0.6748 0.0
O327 O 0.1592 0.68015 0.66845 0.0
O328 O 0.16881 0.69019 0.67816 0.0
C329 C 0.15996 0.68895 0.67332 0.0
C330 C 0.17301 0.66083 0.68969 0.0
C331 C 0.15071 0.69219 0.67891 0.0
C332 C 0.14092 0.69399 0.6947 0.0
C333 C 0.14959 0.69039 0.68951 0.0
C334 C 0.13429 0.70099 0.67871 0.0
C335 C 0.13321 0.69944 0.68938 0.0
C336 C 0.14296 0.69742 0.67356 0.0
C337 C 0.19231 0.67975 0.6523 0.0
C338 C 0.18875 0.69066 0.63748 0.0
C339 C 0.20625 0.68545 0.64116 0.0
C340 C 0.20279 0.67994 0.64976 0.0
C341 C 0.19927 0.69085 0.63489 0.0
C342 C 0.1853 0.6852 0.64614 0.0
C343 C 0.18892 0.67381 0.66138 0.0
O344 O 0.17755 0.66986 0.69072 0.0
O345 O 0.16793 0.65987 0.68097 0.0
O346 O 0.18024 0.66857 0.66039 0.0
O347 O 0.18974 0.67858 0.67022 0.0
H348 H 0.18085 0.64521 0.67797 0.0
H349 H 0.19037 0.63021 0.68407 0.0
H350 H 0.18839 0.64133 0.71523 0.0
H351 H 0.17885 0.6563 0.7091 0.0
H352 H 0.14039 0.69273 0.70292 0.0
H353 H 0.15547 0.68633 0.69379 0.0
H354 H 0.12843 0.70495 0.67432 0.0
H355 H 0.14365 0.69882 0.66537 0.0
H356 H 0.1832 0.69483 0.63287 0.0
H357 H 0.21438 0.68532 0.63933 0.0
H358 H 0.20831 0.67579 0.65443 0.0
H359 H 0.17717 0.68521 0.64801 0.0
C360 C 0.82207 0.67974 0.65329 0.0
C361 C 0.82487 0.69011 0.65189 0.0
C362 C 0.81553 0.69052 0.6356 0.0
C363 C 0.82158 0.69547 0.64314 0.0
C364 C 0.81284 0.6801 0.63702 0.0
C365 C 0.81607 0.67478 0.6458 0.0
U366 U 0.84073 0.67567 0.67562 0.0
O367 O 0.83791 0.67122 0.69169 0.0
O368 O 0.8472 0.66132 0.68184 0.0
C369 C 0.84247 0.66231 0.69069 0.0
C370 C 0.82545 0.67397 0.66244 0.0
C371 C 0.83658 0.6532 0.69419 0.0
C372 C 0.82034 0.64428 0.69745 0.0
C373 C 0.82576 0.65298 0.69398 0.0
C374 C 0.8365 0.63582 0.70113 0.0
C375 C 0.82566 0.63561 0.70105 0.0
C376 C 0.8419 0.64455 0.69776 0.0
C377 C 0.86361 0.69403 0.67912 0.0
C378 C 0.87392 0.69506 0.69475 0.0
C379 C 0.88003 0.70315 0.67906 0.0
C380 C 0.87115 0.69977 0.67391 0.0
C381 C 0.8815 0.70087 0.68954 0.0
C382 C 0.86507 0.69163 0.68957 0.0
C383 C 0.85431 0.69061 0.67355 0.0
O384 O 0.83417 0.66906 0.66144 0.0
O385 O 0.82469 0.6788 0.67125 0.0
O386 O 0.84556 0.69164 0.67847 0.0
O387 O 0.85506 0.68177 0.66881 0.0
H388 H 0.82959 0.69405 0.65756 0.0
H389 H 0.82387 0.70345 0.6422 0.0
H390 H 0.8081 0.67611 0.6314 0.0
H391 H 0.81386 0.66677 0.64675 0.0
H392 H 0.812 0.64429 0.69719 0.0
H393 H 0.82147 0.65952 0.69115 0.0
H394 H 0.8408 0.62928 0.70395 0.0
H395 H 0.85025 0.64456 0.69796 0.0
H396 H 0.8749 0.69309 0.70279 0.0
H397 H 0.88567 0.70769 0.67487 0.0
H398 H 0.87015 0.70168 0.66584 0.0
H399 H 0.85936 0.68711 0.6937 0.0
C400 C 0.82309 0.33609 0.65216 0.0
C401 C 0.83028 0.333 0.64477 0.0
C402 C 0.81656 0.32491 0.63467 0.0
C403 C 0.82702 0.32751 0.63608 0.0
C404 C 0.80943 0.32789 0.64217 0.0
C405 C 0.81267 0.33345 0.6508 0.0
U406 U 0.84122 0.34199 0.67488 0.0
O407 O 0.84665 0.35681 0.681 0.0
O408 O 0.83743 0.34644 0.69073 0.0
C409 C 0.84174 0.35557 0.68974 0.0
C410 C 0.82621 0.34215 0.66125 0.0
C411 C 0.83551 0.36432 0.69316 0.0
C412 C 0.82439 0.37886 0.68958 0.0
C413 C 0.82995 0.37038 0.68614 0.0
C414 C 0.8297 0.37515 0.70709 0.0
C415 C 0.82423 0.38136 0.7001 0.0
C416 C 0.83529 0.36673 0.70364 0.0
C417 C 0.86499 0.32524 0.67951 0.0
C418 C 0.87474 0.32409 0.69551 0.0
C419 C 0.8818 0.3172 0.67981 0.0
C420 C 0.873 0.32028 0.67442 0.0
C421 C 0.88275 0.319 0.69043 0.0
C422 C 0.86595 0.32722 0.69008 0.0
C423 C 0.85566 0.32808 0.67369 0.0
O424 O 0.82551 0.33736 0.67015 0.0
O425 O 0.83464 0.3478 0.66038 0.0
O426 O 0.85611 0.33691 0.66875 0.0
O427 O 0.84684 0.32649 0.67839 0.0
H428 H 0.83839 0.33486 0.64567 0.0
H429 H 0.83271 0.32522 0.6305 0.0
H430 H 0.8013 0.32612 0.64126 0.0
H431 H 0.807 0.33576 0.65639 0.0
H432 H 0.82017 0.38342 0.68403 0.0
H433 H 0.82995 0.36861 0.67801 0.0
H434 H 0.82984 0.37693 0.71522 0.0
H435 H 0.83955 0.36216 0.70916 0.0
H436 H 0.87529 0.32569 0.70365 0.0
H437 H 0.88776 0.3132 0.67569 0.0
H438 H 0.87239 0.31868 0.66627 0.0
H439 H 0.85988 0.33112 0.69415 0.0
C440 C 0.15232 0.32268 0.6794 0.0
C441 C 0.15116 0.32483 0.6899 0.0
C442 C 0.13488 0.31525 0.69019 0.0
C443 C 0.14254 0.32113 0.69525 0.0
C444 C 0.13604 0.31329 0.67962 0.0
C445 C 0.14468 0.31695 0.6743 0.0
U446 U 0.17489 0.34141 0.67503 0.0
O447 O 0.1908 0.33842 0.67029 0.0
O448 O 0.18083 0.34793 0.66052 0.0
C449 C 0.18967 0.34318 0.66141 0.0
C450 C 0.16142 0.32628 0.67364 0.0
C451 C 0.19299 0.3375 0.65225 0.0
C452 C 0.19479 0.32161 0.6427 0.0
C453 C 0.19139 0.32685 0.6514 0.0
C454 C 0.20122 0.33765 0.63552 0.0
C455 C 0.19976 0.32695 0.63466 0.0
C456 C 0.19789 0.34286 0.64424 0.0
C457 C 0.17925 0.36412 0.69318 0.0
C458 C 0.19508 0.37425 0.69421 0.0
C459 C 0.17948 0.38051 0.70204 0.0
C460 C 0.17416 0.37171 0.69875 0.0
C461 C 0.19001 0.38187 0.69985 0.0
C462 C 0.18973 0.36547 0.69086 0.0
C463 C 0.17348 0.35489 0.68989 0.0
O464 O 0.16038 0.33507 0.66874 0.0
O465 O 0.17034 0.32543 0.67839 0.0
O466 O 0.17833 0.34611 0.6909 0.0
O467 O 0.16847 0.35573 0.68113 0.0
H468 H 0.15696 0.32929 0.69397 0.0
H469 H 0.14196 0.32271 0.70339 0.0
H470 H 0.13022 0.30898 0.67541 0.0
H471 H 0.1454 0.31529 0.66619 0.0
H472 H 0.19345 0.31339 0.64221 0.0
H473 H 0.18753 0.32257 0.65746 0.0
H474 H 0.20512 0.34197 0.62952 0.0
H475 H 0.19919 0.35108 0.64476 0.0
H476 H 0.20316 0.37513 0.6923 0.0
H477 H 0.17537 0.38616 0.70647 0.0
H478 H 0.16607 0.3708 0.70061 0.0
H479 H 0.19378 0.35974 0.68648 0.0
C480 C 0.15238 0.32317 0.33913 0.0
C481 C 0.15095 0.32591 0.32876 0.0
C482 C 0.13467 0.31642 0.32835 0.0
C483 C 0.14219 0.32251 0.32341 0.0
C484 C 0.13609 0.31382 0.33878 0.0
C485 C 0.14489 0.31716 0.3441 0.0
U486 U 0.17527 0.3414 0.34252 0.0
O487 O 0.18195 0.34828 0.35648 0.0
O488 O 0.19132 0.33821 0.3469 0.0
C489 C 0.19065 0.34328 0.35557 0.0
C490 C 0.16162 0.32654 0.34482 0.0
C491 C 0.19411 0.33766 0.36478 0.0
C492 C 0.19069 0.3262 0.37921 0.0
C493 C 0.18723 0.33156 0.37052 0.0
C494 C 0.20797 0.33287 0.3764 0.0
C495 C 0.20111 0.32678 0.38223 0.0
C496 C 0.20448 0.33828 0.36776 0.0
C497 C 0.17936 0.36328 0.32323 0.0
C498 C 0.19094 0.3778 0.3261 0.0
C499 C 0.18394 0.37465 0.30909 0.0
C500 C 0.17859 0.36605 0.31284 0.0
C501 C 0.19012 0.38069 0.31568 0.0
C502 C 0.18563 0.36915 0.32984 0.0
C503 C 0.17355 0.35428 0.32703 0.0
O504 O 0.17042 0.32537 0.34002 0.0
O505 O 0.1609 0.33547 0.34942 0.0
O506 O 0.1688 0.35548 0.33584 0.0
O507 O 0.17829 0.34544 0.32634 0.0
H508 H 0.15663 0.33063 0.32481 0.0
H509 H 0.14125 0.32474 0.31542 0.0
H510 H 0.13049 0.30905 0.34277 0.0
H511 H 0.14587 0.31499 0.35211 0.0
H512 H 0.18526 0.32148 0.38348 0.0
H513 H 0.1792 0.33091 0.36827 0.0
H514 H 0.21601 0.33356 0.37859 0.0
H515 H 0.2099 0.34294 0.3634 0.0
H516 H 0.19554 0.38232 0.33142 0.0
H517 H 0.18328 0.37652 0.30099 0.0
H518 H 0.17385 0.36155 0.30762 0.0
H519 H 0.18635 0.3671 0.3379 0.0
C520 C 0.15108 0.6778 0.32287 0.0
C521 C 0.14535 0.68368 0.32978 0.0
C522 C 0.13363 0.68874 0.31594 0.0
C523 C 0.13669 0.68909 0.32634 0.0
C524 C 0.13954 0.68296 0.30905 0.0
C525 C 0.14815 0.67754 0.3125 0.0
U526 U 0.1735 0.6726 0.34145 0.0
O527 O 0.17915 0.65789 0.34762 0.0
O528 O 0.1893 0.66768 0.33822 0.0
C529 C 0.18802 0.65875 0.34286 0.0
C530 C 0.16005 0.67182 0.32631 0.0
C531 C 0.19126 0.64964 0.33708 0.0
C532 C 0.19285 0.6401 0.32114 0.0
C533 C 0.18948 0.64876 0.32646 0.0
C534 C 0.19963 0.63302 0.33703 0.0
C535 C 0.19799 0.63213 0.32636 0.0
C536 C 0.19631 0.6417 0.34231 0.0
C537 C 0.1781 0.69047 0.3645 0.0
C538 C 0.19403 0.69229 0.37432 0.0
C539 C 0.17816 0.6992 0.38097 0.0
C540 C 0.17287 0.69565 0.37227 0.0
C541 C 0.18883 0.69768 0.38207 0.0
C542 C 0.18871 0.68871 0.36563 0.0
C543 C 0.17238 0.68724 0.35522 0.0
O544 O 0.16904 0.67651 0.32554 0.0
O545 O 0.15894 0.66669 0.33498 0.0
O546 O 0.16724 0.67851 0.35597 0.0
O547 O 0.17727 0.68832 0.34644 0.0
H548 H 0.14751 0.68402 0.33783 0.0
H549 H 0.13229 0.69337 0.33188 0.0
H550 H 0.13756 0.68266 0.30096 0.0
H551 H 0.15251 0.6731 0.30704 0.0
H552 H 0.19137 0.63959 0.31295 0.0
H553 H 0.18551 0.65477 0.32228 0.0
H554 H 0.20366 0.6271 0.34126 0.0
H555 H 0.19776 0.64224 0.35051 0.0
H556 H 0.20225 0.69105 0.37486 0.0
H557 H 0.17386 0.70312 0.38685 0.0
H558 H 0.16467 0.69703 0.37157 0.0
H559 H 0.1929 0.68468 0.35973 0.0
C560 C 0.82262 0.65214 0.33854 0.0
C561 C 0.8241 0.65157 0.32787 0.0
C562 C 0.81614 0.6345 0.3276 0.0
C563 C 0.82084 0.64284 0.32244 0.0
C564 C 0.81481 0.63508 0.33831 0.0
C565 C 0.818 0.64382 0.34372 0.0
U566 U 0.8403 0.67546 0.34314 0.0
O567 O 0.83663 0.69113 0.34801 0.0
O568 O 0.84658 0.68153 0.35771 0.0
C569 C 0.84139 0.69011 0.3569 0.0
C570 C 0.82579 0.66129 0.34443 0.0
C571 C 0.83557 0.69316 0.36611 0.0
C572 C 0.81944 0.6968 0.37476 0.0
C573 C 0.82474 0.69341 0.36609 0.0
C574 C 0.83567 0.69943 0.38369 0.0
C575 C 0.82485 0.6999 0.38364 0.0
C576 C 0.84097 0.69613 0.375 0.0
C577 C 0.86257 0.68115 0.32465 0.0
C578 C 0.87704 0.69266 0.32818 0.0
C579 C 0.87369 0.68695 0.31077 0.0
C580 C 0.86521 0.68122 0.31422 0.0
C581 C 0.87974 0.69271 0.31771 0.0
C582 C 0.8685 0.68696 0.33162 0.0
C583 C 0.85366 0.67493 0.32806 0.0
O584 O 0.83468 0.66063 0.34928 0.0
O585 O 0.82447 0.67022 0.33984 0.0
O586 O 0.84465 0.67938 0.32723 0.0
O587 O 0.85484 0.66986 0.33676 0.0
H588 H 0.82774 0.65787 0.32374 0.0
H589 H 0.82208 0.64258 0.31422 0.0
H590 H 0.81112 0.62884 0.3425 0.0
H591 H 0.8168 0.64412 0.35195 0.0
H592 H 0.8111 0.69697 0.37453 0.0
H593 H 0.82037 0.69108 0.35937 0.0
H594 H 0.84006 0.70185 0.39038 0.0
H595 H 0.84932 0.696 0.37517 0.0
H596 H 0.88148 0.6971 0.3337 0.0
H597 H 0.87563 0.68673 0.30268 0.0
H598 H 0.86072 0.67678 0.30873 0.0
H599 H 0.86654 0.68707 0.3397 0.0
C600 C 0.83785 0.36481 0.323 0.0
C601 C 0.82733 0.36576 0.32526 0.0
C602 C 0.82695 0.38239 0.31651 0.0
C603 C 0.82192 0.37446 0.322 0.0
C604 C 0.83751 0.38143 0.31439 0.0
C605 C 0.84289 0.37271 0.31759 0.0
U606 U 0.84252 0.34176 0.34084 0.0
O607 O 0.84702 0.32597 0.33717 0.0
O608 O 0.85711 0.33558 0.34682 0.0
C609 C 0.85598 0.32685 0.34188 0.0
C610 C 0.84367 0.35563 0.32612 0.0
C611 C 0.86498 0.32349 0.336 0.0
C612 C 0.87565 0.32399 0.32068 0.0
C613 C 0.86713 0.32748 0.32619 0.0
C614 C 0.88001 0.31261 0.33481 0.0
C615 C 0.88217 0.31647 0.3249 0.0
C616 C 0.8715 0.31609 0.34028 0.0
C617 C 0.82452 0.33708 0.36382 0.0
C618 C 0.82263 0.32109 0.37347 0.0
C619 C 0.81576 0.33687 0.38028 0.0
C620 C 0.81933 0.34223 0.37163 0.0
C621 C 0.81726 0.32621 0.38127 0.0
C622 C 0.82625 0.32648 0.36483 0.0
C623 C 0.82789 0.3429 0.35466 0.0
O624 O 0.84881 0.35639 0.33482 0.0
O625 O 0.83884 0.34675 0.32508 0.0
O626 O 0.82668 0.33827 0.34577 0.0
O627 O 0.83677 0.34778 0.35551 0.0
H628 H 0.8233 0.35978 0.3295 0.0
H629 H 0.81382 0.37502 0.32386 0.0
H630 H 0.84159 0.38734 0.31009 0.0
H631 H 0.851 0.37211 0.31577 0.0
H632 H 0.87701 0.32706 0.31304 0.0
H633 H 0.86217 0.33322 0.32276 0.0
H634 H 0.88496 0.30696 0.33839 0.0
H635 H 0.87 0.31297 0.34788 0.0
H636 H 0.82386 0.31289 0.37393 0.0
H637 H 0.81185 0.34112 0.38621 0.0
H638 H 0.81799 0.35042 0.37103 0.0
H639 H 0.83028 0.32236 0.35889 0.0
C640 C 0.67832 0.15216 0.69331 0.0
C641 C 0.68358 0.14581 0.68645 0.0
C642 C 0.68884 0.13465 0.70065 0.0
C643 C 0.68877 0.13711 0.69009 0.0
C644 C 0.68366 0.14116 0.70747 0.0
C645 C 0.67845 0.1498 0.70383 0.0
U646 U 0.67395 0.17458 0.67451 0.0
O647 O 0.65952 0.18083 0.66831 0.0
O648 O 0.66964 0.19056 0.67781 0.0
C649 C 0.66068 0.18963 0.67313 0.0
C650 C 0.67265 0.16126 0.68971 0.0
C651 C 0.6517 0.19319 0.67895 0.0
C652 C 0.6369 0.18992 0.68995 0.0
C653 C 0.64558 0.18636 0.68474 0.0
C654 C 0.64053 0.20719 0.68382 0.0
C655 C 0.63422 0.20038 0.68951 0.0
C656 C 0.64915 0.20362 0.67859 0.0
C657 C 0.69207 0.17862 0.65161 0.0
C658 C 0.692 0.19385 0.64069 0.0
C659 C 0.70284 0.17947 0.63641 0.0
C660 C 0.69925 0.17413 0.64506 0.0
C661 C 0.69933 0.18943 0.63414 0.0
C662 C 0.6884 0.18848 0.64935 0.0
C663 C 0.68866 0.17294 0.66083 0.0
O664 O 0.67763 0.17008 0.69046 0.0
O665 O 0.66752 0.16027 0.68102 0.0
O666 O 0.67973 0.16814 0.66004 0.0
O667 O 0.68985 0.1778 0.6696 0.0
H668 H 0.68363 0.14752 0.67829 0.0
H669 H 0.69258 0.13224 0.6846 0.0
H670 H 0.68371 0.13964 0.71567 0.0
H671 H 0.6745 0.15466 0.70924 0.0
H672 H 0.63219 0.18443 0.69416 0.0
H673 H 0.64744 0.17827 0.68515 0.0
H674 H 0.63884 0.21532 0.68346 0.0
H675 H 0.65382 0.20902 0.67422 0.0
H676 H 0.6892 0.20154 0.63924 0.0
H677 H 0.70833 0.17575 0.63145 0.0
H678 H 0.70213 0.1665 0.64666 0.0
H679 H 0.68284 0.19206 0.65433 0.0
C680 C 0.3226 0.17884 0.65315 0.0
C681 C 0.32432 0.18946 0.65204 0.0
C682 C 0.31567 0.18925 0.63535 0.0
C683 C 0.32085 0.19463 0.64324 0.0
C684 C 0.31415 0.17857 0.63645 0.0
C685 C 0.31756 0.17343 0.64528 0.0
U686 U 0.34073 0.1757 0.67611 0.0
O687 O 0.33736 0.17135 0.69213 0.0
O688 O 0.34752 0.16178 0.68284 0.0
C689 C 0.34243 0.16269 0.69149 0.0
C690 C 0.32598 0.17329 0.66244 0.0
C691 C 0.33673 0.15348 0.69495 0.0
C692 C 0.32519 0.13904 0.69155 0.0
C693 C 0.33065 0.14772 0.68808 0.0
C694 C 0.33172 0.14192 0.7088 0.0
C695 C 0.32565 0.13607 0.70196 0.0
C696 C 0.33723 0.15054 0.70531 0.0
C697 C 0.3627 0.1949 0.68042 0.0
C698 C 0.37696 0.19181 0.69218 0.0
C699 C 0.37417 0.20892 0.68532 0.0
C700 C 0.36563 0.20528 0.67979 0.0
C701 C 0.37997 0.20222 0.69153 0.0
C702 C 0.36836 0.18819 0.68671 0.0
C703 C 0.35374 0.1912 0.67448 0.0
O704 O 0.33494 0.16875 0.66176 0.0
O705 O 0.32472 0.17813 0.67119 0.0
O706 O 0.34481 0.19189 0.67913 0.0
O707 O 0.35494 0.18241 0.66972 0.0
H708 H 0.32826 0.19377 0.65802 0.0
H709 H 0.32206 0.20286 0.64271 0.0
H710 H 0.31038 0.17415 0.63046 0.0
H711 H 0.31624 0.16522 0.64597 0.0
H712 H 0.32049 0.13476 0.68613 0.0
H713 H 0.33009 0.14994 0.68006 0.0
H714 H 0.33232 0.13977 0.71684 0.0
H715 H 0.34187 0.15493 0.71072 0.0
H716 H 0.3812 0.1865 0.697 0.0
H717 H 0.37635 0.21695 0.68458 0.0
H718 H 0.36133 0.21056 0.67499 0.0
H719 H 0.36616 0.18016 0.68736 0.0
C720 C 0.32466 0.83756 0.65057 0.0
C721 C 0.32631 0.82693 0.64991 0.0
C722 C 0.31851 0.82662 0.63281 0.0
C723 C 0.32321 0.8215 0.64113 0.0
C724 C 0.31706 0.8373 0.63344 0.0
C725 C 0.32009 0.8427 0.64225 0.0
U726 U 0.34172 0.84267 0.67424 0.0
O727 O 0.34703 0.85732 0.68087 0.0
O728 O 0.33728 0.84686 0.68999 0.0
C729 C 0.34174 0.85595 0.68938 0.0
C730 C 0.32741 0.84339 0.6599 0.0
C731 C 0.33548 0.86469 0.69273 0.0
C732 C 0.32445 0.87928 0.68905 0.0
C733 C 0.33007 0.87083 0.68565 0.0
C734 C 0.3294 0.87542 0.70663 0.0
C735 C 0.32407 0.88169 0.69959 0.0
C736 C 0.33505 0.86702 0.70322 0.0
C737 C 0.36518 0.82566 0.67966 0.0
C738 C 0.37343 0.82163 0.69604 0.0
C739 C 0.38304 0.82019 0.68021 0.0
C740 C 0.37439 0.82334 0.67462 0.0
C741 C 0.38265 0.81923 0.69098 0.0
C742 C 0.36479 0.82487 0.69044 0.0
C743 C 0.3561 0.82866 0.67349 0.0
O744 O 0.32621 0.8385 0.6687 0.0
O745 O 0.33601 0.84881 0.65946 0.0
O746 O 0.35683 0.83755 0.66869 0.0
O747 O 0.34702 0.82703 0.67768 0.0
H748 H 0.32991 0.82281 0.65621 0.0
H749 H 0.32455 0.81331 0.64082 0.0
H750 H 0.31337 0.84146 0.62722 0.0
H751 H 0.31874 0.85089 0.64261 0.0
H752 H 0.32034 0.88389 0.68345 0.0
H753 H 0.33024 0.86912 0.67751 0.0
H754 H 0.32938 0.87712 0.71477 0.0
H755 H 0.33919 0.86239 0.70879 0.0
H756 H 0.37292 0.82108 0.70433 0.0
H757 H 0.38998 0.81829 0.67608 0.0
H758 H 0.37486 0.82388 0.66632 0.0
H759 H 0.35781 0.82669 0.69454 0.0
C760 C 0.6529 0.82212 0.68069 0.0
C761 C 0.64718 0.82906 0.68654 0.0
C762 C 0.63554 0.8152 0.69186 0.0
C763 C 0.63854 0.82563 0.69204 0.0
C764 C 0.64135 0.8083 0.68603 0.0
C765 C 0.64993 0.81174 0.68049 0.0
U766 U 0.67533 0.84083 0.6758 0.0
O767 O 0.69138 0.83758 0.67155 0.0
O768 O 0.68164 0.84682 0.66129 0.0
C769 C 0.69045 0.84206 0.66251 0.0
C770 C 0.66201 0.82552 0.67484 0.0
C771 C 0.69404 0.83606 0.65366 0.0
C772 C 0.69068 0.82548 0.63863 0.0
C773 C 0.68708 0.83087 0.64715 0.0
C774 C 0.70823 0.83018 0.64318 0.0
C775 C 0.7013 0.82509 0.63654 0.0
C776 C 0.70462 0.83563 0.65164 0.0
C777 C 0.67931 0.86417 0.6932 0.0
C778 C 0.69515 0.87429 0.69421 0.0
C779 C 0.67944 0.88077 0.70165 0.0
C780 C 0.67416 0.8719 0.6985 0.0
C781 C 0.69001 0.88205 0.69959 0.0
C782 C 0.68983 0.86544 0.691 0.0
C783 C 0.67361 0.85482 0.69013 0.0
O784 O 0.66103 0.83408 0.66952 0.0
O785 O 0.67084 0.82494 0.67979 0.0
O786 O 0.67843 0.84609 0.69155 0.0
O787 O 0.66877 0.85535 0.68124 0.0
H788 H 0.6494 0.8371 0.68685 0.0
H789 H 0.63429 0.83112 0.69654 0.0
H790 H 0.63918 0.80025 0.68563 0.0
H791 H 0.65426 0.80628 0.67603 0.0
H792 H 0.68516 0.82154 0.63372 0.0
H793 H 0.67887 0.83102 0.64861 0.0
H794 H 0.71644 0.83012 0.64173 0.0
H795 H 0.7101 0.83959 0.65658 0.0
H796 H 0.70326 0.8751 0.69241 0.0
H797 H 0.67529 0.88654 0.70587 0.0
H798 H 0.66604 0.87105 0.70026 0.0
H799 H 0.69394 0.85959 0.68684 0.0
C800 C 0.65261 0.82271 0.33869 0.0
C801 C 0.65125 0.82517 0.32826 0.0
C802 C 0.63521 0.81522 0.32786 0.0
C803 C 0.64263 0.82143 0.32288 0.0
C804 C 0.63659 0.81291 0.33837 0.0
C805 C 0.64522 0.81661 0.34371 0.0
U806 U 0.67504 0.84158 0.34231 0.0
O807 O 0.681 0.84878 0.35647 0.0
O808 O 0.69099 0.83893 0.34728 0.0
C809 C 0.68985 0.84402 0.35591 0.0
C810 C 0.66165 0.82648 0.34447 0.0
C811 C 0.69308 0.83857 0.3653 0.0
C812 C 0.69379 0.82305 0.37576 0.0
C813 C 0.69044 0.82819 0.3669 0.0
C814 C 0.70223 0.83868 0.38163 0.0
C815 C 0.69975 0.82824 0.38321 0.0
C816 C 0.69894 0.84379 0.37273 0.0
C817 C 0.67958 0.86321 0.32294 0.0
C818 C 0.69135 0.87752 0.32613 0.0
C819 C 0.68476 0.87449 0.30892 0.0
C820 C 0.67913 0.866 0.31254 0.0
C821 C 0.69091 0.88036 0.31568 0.0
C822 C 0.68577 0.86898 0.32972 0.0
C823 C 0.67366 0.85421 0.32657 0.0
O824 O 0.67059 0.82543 0.3399 0.0
O825 O 0.66058 0.83549 0.34883 0.0
O826 O 0.66857 0.85546 0.33518 0.0
O827 O 0.67852 0.84542 0.32618 0.0
H828 H 0.65686 0.82992 0.32426 0.0
H829 H 0.64188 0.82327 0.31478 0.0
H830 H 0.63095 0.80832 0.3425 0.0
H831 H 0.64612 0.81472 0.35179 0.0
H832 H 0.69165 0.81505 0.37683 0.0
H833 H 0.68584 0.82405 0.36127 0.0
H834 H 0.70688 0.84286 0.38718 0.0
H835 H 0.70103 0.8518 0.37162 0.0
H836 H 0.6961 0.88182 0.33149 0.0
H837 H 0.68418 0.87655 0.30086 0.0
H838 H 0.67441 0.86162 0.3072 0.0
H839 H 0.68628 0.86687 0.33778 0.0
C840 C 0.65132 0.17784 0.32289 0.0
C841 C 0.64507 0.18301 0.32992 0.0
C842 C 0.63376 0.18862 0.31596 0.0
C843 C 0.63636 0.18832 0.32649 0.0
C844 C 0.64018 0.18357 0.30895 0.0
C845 C 0.64884 0.17823 0.31239 0.0
U846 U 0.67374 0.17268 0.3415 0.0
O847 O 0.67967 0.15798 0.34739 0.0
O848 O 0.68966 0.16815 0.33822 0.0
C849 C 0.68858 0.15915 0.34275 0.0
C850 C 0.66037 0.17195 0.32628 0.0
C851 C 0.69211 0.15025 0.33686 0.0
C852 C 0.6919 0.13972 0.32146 0.0
C853 C 0.68828 0.14817 0.32696 0.0
C854 C 0.70308 0.1353 0.33576 0.0
C855 C 0.6994 0.13321 0.32578 0.0
C856 C 0.69948 0.14374 0.34122 0.0
C857 C 0.6782 0.19001 0.36487 0.0
C858 C 0.69427 0.19166 0.37448 0.0
C859 C 0.67841 0.19796 0.38174 0.0
C860 C 0.67302 0.19475 0.37296 0.0
C861 C 0.68911 0.19653 0.38258 0.0
C862 C 0.68886 0.18839 0.36573 0.0
C863 C 0.67239 0.187 0.35557 0.0
O864 O 0.66928 0.1768 0.32564 0.0
O865 O 0.65931 0.16664 0.33485 0.0
O866 O 0.66736 0.17819 0.35613 0.0
O867 O 0.67718 0.18837 0.34678 0.0
H868 H 0.64687 0.18285 0.33806 0.0
H869 H 0.63156 0.19203 0.33212 0.0
H870 H 0.63857 0.18379 0.30078 0.0
H871 H 0.65361 0.17436 0.30684 0.0
H872 H 0.68896 0.13839 0.31377 0.0
H873 H 0.68256 0.15311 0.32348 0.0
H874 H 0.7087 0.13037 0.3394 0.0
H875 H 0.70247 0.1452 0.34888 0.0
H876 H 0.70249 0.19034 0.37494 0.0
H877 H 0.67422 0.20176 0.38779 0.0
H878 H 0.6648 0.19607 0.37245 0.0
H879 H 0.693 0.18466 0.3596 0.0
C880 C 0.32208 0.15245 0.33906 0.0
C881 C 0.32374 0.15169 0.32842 0.0
C882 C 0.31539 0.13481 0.32824 0.0
C883 C 0.32037 0.14298 0.32305 0.0
C884 C 0.31387 0.13557 0.33891 0.0
C885 C 0.31717 0.14432 0.34425 0.0
U886 U 0.34037 0.17529 0.34342 0.0
O887 O 0.33716 0.19115 0.34803 0.0
O888 O 0.34685 0.18141 0.35786 0.0
C889 C 0.34203 0.19019 0.35687 0.0
C890 C 0.32542 0.1616 0.34487 0.0
C891 C 0.33645 0.19368 0.36603 0.0
C892 C 0.3207 0.19549 0.37588 0.0
C893 C 0.32585 0.19178 0.36724 0.0
C894 C 0.33673 0.20278 0.38228 0.0
C895 C 0.32606 0.2011 0.38348 0.0
C896 C 0.34185 0.19912 0.37364 0.0
C897 C 0.36306 0.17981 0.32521 0.0
C898 C 0.37302 0.19572 0.32407 0.0
C899 C 0.3795 0.18017 0.31637 0.0
C900 C 0.37074 0.17479 0.31969 0.0
C901 C 0.38073 0.19071 0.31848 0.0
C902 C 0.36428 0.1903 0.32745 0.0
C903 C 0.35388 0.17396 0.32854 0.0
O904 O 0.33423 0.16076 0.34982 0.0
O905 O 0.3244 0.17049 0.34012 0.0
O906 O 0.34501 0.17866 0.32751 0.0
O907 O 0.3548 0.16903 0.33734 0.0
H908 H 0.32761 0.15785 0.32427 0.0
H909 H 0.32176 0.14257 0.31486 0.0
H910 H 0.30997 0.12947 0.34311 0.0
H911 H 0.31583 0.14475 0.35246 0.0
H912 H 0.31248 0.19412 0.37649 0.0
H913 H 0.32155 0.18755 0.36146 0.0
H914 H 0.34115 0.20688 0.38806 0.0
H915 H 0.35005 0.20059 0.37288 0.0
H916 H 0.37379 0.2038 0.32591 0.0
H917 H 0.38523 0.17612 0.31199 0.0
H918 H 0.36993 0.16669 0.31789 0.0
H919 H 0.35847 0.1943 0.33178 0.0
C920 C 0.33755 0.86502 0.32332 0.0
C921 C 0.32698 0.86582 0.3254 0.0
C922 C 0.32656 0.88257 0.31689 0.0
C923 C 0.32152 0.8745 0.32217 0.0
C924 C 0.33717 0.88176 0.31495 0.0
C925 C 0.3426 0.87306 0.31812 0.0
U926 U 0.3421 0.84162 0.34075 0.0
O927 O 0.34698 0.82601 0.33683 0.0
O928 O 0.35665 0.83554 0.34697 0.0
C929 C 0.35579 0.82692 0.34179 0.0
C930 C 0.34343 0.85587 0.32641 0.0
C931 C 0.365 0.8238 0.33609 0.0
C932 C 0.37579 0.82438 0.32085 0.0
C933 C 0.36717 0.82778 0.32627 0.0
C934 C 0.3802 0.81314 0.33508 0.0
C935 C 0.38236 0.81695 0.32516 0.0
C936 C 0.3716 0.81653 0.34047 0.0
C937 C 0.32357 0.83575 0.36296 0.0
C938 C 0.32711 0.82438 0.37744 0.0
C939 C 0.30964 0.82982 0.37399 0.0
C940 C 0.3131 0.83555 0.36553 0.0
C941 C 0.3166 0.8242 0.38008 0.0
C942 C 0.33056 0.83007 0.36893 0.0
C943 C 0.32701 0.84201 0.35411 0.0
O944 O 0.34828 0.85652 0.33529 0.0
O945 O 0.33879 0.84695 0.32502 0.0
O946 O 0.32616 0.83759 0.34508 0.0
O947 O 0.33572 0.84712 0.35532 0.0
H948 H 0.32294 0.85972 0.32948 0.0
H949 H 0.31338 0.87494 0.32389 0.0
H950 H 0.34126 0.88777 0.3108 0.0
H951 H 0.35075 0.87258 0.31644 0.0
H952 H 0.37717 0.82741 0.31321 0.0
H953 H 0.36215 0.83342 0.32277 0.0
H954 H 0.38518 0.80756 0.33873 0.0
H955 H 0.37006 0.81341 0.34806 0.0
H956 H 0.33266 0.82004 0.38191 0.0
H957 H 0.30152 0.82995 0.37587 0.0
H958 H 0.30759 0.83989 0.36102 0.0
H959 H 0.33868 0.83006 0.36703 0.0
C960 C 0.67821 0.65095 0.19223 0.0
C961 C 0.68877 0.64997 0.19022 0.0
C962 C 0.68885 0.63321 0.19871 0.0
C963 C 0.69406 0.6412 0.19347 0.0
C964 C 0.67823 0.63418 0.20055 0.0
C965 C 0.67298 0.64297 0.19736 0.0
U966 U 0.67401 0.6745 0.1749 0.0
O967 O 0.65962 0.68114 0.169 0.0
O968 O 0.66976 0.69027 0.17906 0.0
C969 C 0.66082 0.68965 0.17429 0.0
C970 C 0.67253 0.66025 0.18923 0.0
C971 C 0.65185 0.69306 0.18024 0.0
C972 C 0.63643 0.68952 0.19031 0.0
C973 C 0.64499 0.68602 0.18487 0.0
C974 C 0.64159 0.70712 0.18671 0.0
C975 C 0.63464 0.70012 0.19129 0.0
C976 C 0.65009 0.70362 0.18123 0.0
C977 C 0.69235 0.67984 0.15238 0.0
C978 C 0.68893 0.69108 0.13776 0.0
C979 C 0.70634 0.68549 0.14128 0.0
C980 C 0.70282 0.6799 0.14981 0.0
C981 C 0.69944 0.6911 0.13512 0.0
C982 C 0.68542 0.68554 0.14635 0.0
C983 C 0.68884 0.67369 0.16127 0.0
O984 O 0.67744 0.66905 0.19056 0.0
O985 O 0.66751 0.65976 0.18044 0.0
O986 O 0.67995 0.66886 0.1602 0.0
O987 O 0.68999 0.67805 0.17031 0.0
H988 H 0.69294 0.65602 0.18619 0.0
H989 H 0.70221 0.64064 0.19183 0.0
H990 H 0.67402 0.62823 0.20466 0.0
H991 H 0.66483 0.64358 0.19898 0.0
H992 H 0.63128 0.68394 0.19383 0.0
H993 H 0.64624 0.67782 0.18427 0.0
H994 H 0.64037 0.71532 0.18721 0.0
H995 H 0.65528 0.70917 0.17771 0.0
H996 H 0.68344 0.69542 0.13324 0.0
H997 H 0.71446 0.68525 0.1394 0.0
H998 H 0.70828 0.67555 0.15436 0.0
H999 H 0.6773 0.68566 0.14824 0.0
C1000 C 0.32154 0.67928 0.15368 0.0
C1001 C 0.32838 0.68551 0.14801 0.0
C1002 C 0.31447 0.69034 0.13637 0.0
C1003 C 0.32488 0.69095 0.13939 0.0
C1004 C 0.30765 0.68413 0.14212 0.0
C1005 C 0.31117 0.67864 0.15069 0.0
U1006 U 0.34045 0.6757 0.17582 0.0
O1007 O 0.3376 0.67149 0.192 0.0
O1008 O 0.34725 0.66172 0.18238 0.0
C1009 C 0.34248 0.66274 0.19121 0.0
C1010 C 0.32504 0.67362 0.16284 0.0
C1011 C 0.33678 0.65361 0.19485 0.0
C1012 C 0.32514 0.63918 0.19173 0.0
C1013 C 0.33036 0.64797 0.18819 0.0
C1014 C 0.33253 0.64173 0.20869 0.0
C1015 C 0.3262 0.63593 0.20203 0.0
C1016 C 0.33779 0.65047 0.20512 0.0
C1017 C 0.36302 0.69454 0.17882 0.0
C1018 C 0.37348 0.69598 0.19432 0.0
C1019 C 0.37908 0.70427 0.17855 0.0
C1020 C 0.37029 0.70054 0.17351 0.0
C1021 C 0.38076 0.70211 0.18904 0.0
C1022 C 0.3647 0.6922 0.18924 0.0
C1023 C 0.35375 0.69084 0.17339 0.0
O1024 O 0.33381 0.66874 0.16189 0.0
O1025 O 0.32431 0.67861 0.17155 0.0
O1026 O 0.34502 0.69179 0.17836 0.0
O1027 O 0.35463 0.68192 0.1688 0.0
H1028 H 0.3364 0.68618 0.15028 0.0
H1029 H 0.33029 0.69576 0.13519 0.0
H1030 H 0.29961 0.68343 0.13993 0.0
H1031 H 0.30578 0.67389 0.155 0.0
H1032 H 0.32043 0.63485 0.18636 0.0
H1033 H 0.32946 0.6503 0.18023 0.0
H1034 H 0.33338 0.63958 0.2167 0.0
H1035 H 0.34265 0.65479 0.21039 0.0
H1036 H 0.37446 0.69424 0.20241 0.0
H1037 H 0.38461 0.7088 0.1742 0.0
H1038 H 0.36915 0.70235 0.16544 0.0
H1039 H 0.35918 0.68753 0.19346 0.0
C1040 C 0.32304 0.33678 0.15215 0.0
C1041 C 0.33015 0.33112 0.14644 0.0
C1042 C 0.31647 0.32549 0.13477 0.0
C1043 C 0.3269 0.32556 0.1378 0.0
C1044 C 0.30938 0.3311 0.14058 0.0
C1045 C 0.31265 0.3367 0.14917 0.0
U1046 U 0.34115 0.34208 0.17495 0.0
O1047 O 0.34705 0.35675 0.18106 0.0
O1048 O 0.33742 0.34672 0.19076 0.0
C1049 C 0.34204 0.35571 0.18977 0.0
C1050 C 0.32626 0.34278 0.16121 0.0
C1051 C 0.33603 0.36464 0.19309 0.0
C1052 C 0.325 0.37923 0.18943 0.0
C1053 C 0.3305 0.37069 0.18604 0.0
C1054 C 0.33035 0.37564 0.20694 0.0
C1055 C 0.32486 0.3818 0.19993 0.0
C1056 C 0.33588 0.36716 0.20355 0.0
C1057 C 0.36412 0.32429 0.1799 0.0
C1058 C 0.37886 0.32805 0.19095 0.0
C1059 C 0.37577 0.31067 0.18501 0.0
C1060 C 0.36701 0.31395 0.17969 0.0
C1061 C 0.38187 0.31768 0.19065 0.0
C1062 C 0.37006 0.33132 0.18564 0.0
C1063 C 0.35497 0.32752 0.17401 0.0
O1064 O 0.32532 0.33805 0.17012 0.0
O1065 O 0.33494 0.34802 0.16035 0.0
O1066 O 0.3558 0.3363 0.16899 0.0
O1067 O 0.3461 0.32635 0.17871 0.0
H1068 H 0.33821 0.33101 0.14867 0.0
H1069 H 0.33253 0.32123 0.13355 0.0
H1070 H 0.30132 0.33131 0.1384 0.0
H1071 H 0.30705 0.34101 0.15348 0.0
H1072 H 0.32077 0.38375 0.18384 0.0
H1073 H 0.33045 0.36882 0.17793 0.0
H1074 H 0.33051 0.37748 0.21506 0.0
H1075 H 0.34011 0.36259 0.20911 0.0
H1076 H 0.38342 0.33368 0.19514 0.0
H1077 H 0.37771 0.3026 0.18476 0.0
H1078 H 0.36249 0.3084 0.17536 0.0
H1079 H 0.36793 0.33934 0.18594 0.0
C1080 C 0.65264 0.32207 0.18032 0.0
C1081 C 0.64706 0.32894 0.18638 0.0
C1082 C 0.63545 0.31506 0.1917 0.0
C1083 C 0.63851 0.32547 0.19199 0.0
C1084 C 0.64114 0.30821 0.18569 0.0
C1085 C 0.64965 0.31169 0.18005 0.0
U1086 U 0.67479 0.34096 0.17508 0.0
O1087 O 0.69071 0.33811 0.17026 0.0
O1088 O 0.6805 0.34725 0.16039 0.0
C1089 C 0.68945 0.3427 0.16132 0.0
C1090 C 0.66157 0.32556 0.17425 0.0
C1091 C 0.6929 0.337 0.15224 0.0
C1092 C 0.69517 0.32106 0.14288 0.0
C1093 C 0.69152 0.32631 0.15147 0.0
C1094 C 0.7014 0.33714 0.13564 0.0
C1095 C 0.70023 0.3264 0.13488 0.0
C1096 C 0.69779 0.34237 0.14424 0.0
C1097 C 0.67914 0.36399 0.19278 0.0
C1098 C 0.69501 0.37409 0.19359 0.0
C1099 C 0.67952 0.38041 0.20159 0.0
C1100 C 0.67414 0.37161 0.19838 0.0
C1101 C 0.69003 0.38172 0.19929 0.0
C1102 C 0.6896 0.36532 0.19032 0.0
C1103 C 0.67338 0.35468 0.18971 0.0
O1104 O 0.66039 0.33419 0.16909 0.0
O1105 O 0.67055 0.32496 0.17893 0.0
O1106 O 0.6783 0.34596 0.19083 0.0
O1107 O 0.66828 0.35533 0.18098 0.0
H1108 H 0.64931 0.33697 0.18676 0.0
H1109 H 0.63436 0.33091 0.19663 0.0
H1110 H 0.63893 0.30018 0.18521 0.0
H1111 H 0.65386 0.30628 0.17542 0.0
H1112 H 0.69422 0.31279 0.14261 0.0
H1113 H 0.68771 0.32202 0.15754 0.0
H1114 H 0.70506 0.34155 0.12956 0.0
H1115 H 0.69886 0.35063 0.14466 0.0
H1116 H 0.70307 0.37494 0.19159 0.0
H1117 H 0.67549 0.38608 0.20606 0.0
H1118 H 0.66607 0.37072 0.20035 0.0
H1119 H 0.69359 0.35956 0.18592 0.0
C1120 C 0.65273 0.32282 0.83899 0.0
C1121 C 0.64725 0.32964 0.83267 0.0
C1122 C 0.635 0.316 0.82824 0.0
C1123 C 0.63844 0.32627 0.82737 0.0
C1124 C 0.64061 0.30919 0.83453 0.0
C1125 C 0.64938 0.31259 0.83986 0.0
U1126 U 0.67551 0.34121 0.84244 0.0
O1127 O 0.68226 0.34797 0.85643 0.0
O1128 O 0.6916 0.33801 0.84671 0.0
C1129 C 0.69096 0.34299 0.85543 0.0
C1130 C 0.66201 0.32621 0.8446 0.0
C1131 C 0.69445 0.33729 0.86458 0.0
C1132 C 0.69106 0.32576 0.87896 0.0
C1133 C 0.68759 0.33114 0.87029 0.0
C1134 C 0.70832 0.3325 0.87619 0.0
C1135 C 0.70147 0.32638 0.882 0.0
C1136 C 0.70482 0.33792 0.86757 0.0
C1137 C 0.67959 0.36331 0.82347 0.0
C1138 C 0.69134 0.37765 0.82656 0.0
C1139 C 0.68469 0.37456 0.8094 0.0
C1140 C 0.67909 0.36607 0.81306 0.0
C1141 C 0.69086 0.38046 0.81611 0.0
C1142 C 0.6858 0.36911 0.83021 0.0
C1143 C 0.67371 0.35429 0.82713 0.0
O1144 O 0.67072 0.32519 0.83962 0.0
O1145 O 0.66132 0.33505 0.84939 0.0
O1146 O 0.66898 0.35537 0.83597 0.0
O1147 O 0.67842 0.34545 0.8263 0.0
H1148 H 0.64976 0.33757 0.83185 0.0
H1149 H 0.63425 0.33175 0.82269 0.0
H1150 H 0.63831 0.3012 0.83525 0.0
H1151 H 0.65357 0.3072 0.84464 0.0
H1152 H 0.68563 0.32102 0.88321 0.0
H1153 H 0.67956 0.33048 0.86803 0.0
H1154 H 0.71635 0.33321 0.8784 0.0
H1155 H 0.71022 0.34262 0.86323 0.0
H1156 H 0.69612 0.38198 0.83189 0.0
H1157 H 0.68407 0.37659 0.80133 0.0
H1158 H 0.67436 0.36166 0.80776 0.0
H1159 H 0.68636 0.36702 0.83827 0.0
C1160 C 0.65049 0.6772 0.82394 0.0
C1161 C 0.64967 0.68775 0.826 0.0
C1162 C 0.63292 0.68814 0.81742 0.0
C1163 C 0.64098 0.69318 0.82272 0.0
C1164 C 0.63375 0.67755 0.81549 0.0
C1165 C 0.64246 0.67215 0.8187 0.0
U1166 U 0.67355 0.67243 0.84181 0.0
O1167 O 0.6795 0.65782 0.84796 0.0
O1168 O 0.68931 0.66763 0.8382 0.0
C1169 C 0.68823 0.65872 0.84293 0.0
C1170 C 0.65963 0.67133 0.82711 0.0
C1171 C 0.69137 0.64959 0.83712 0.0
C1172 C 0.69269 0.64002 0.82117 0.0
C1173 C 0.68941 0.64869 0.82653 0.0
C1174 C 0.69973 0.63297 0.83696 0.0
C1175 C 0.69791 0.63206 0.82632 0.0
C1176 C 0.6965 0.64166 0.84229 0.0
C1177 C 0.67846 0.69054 0.86464 0.0
C1178 C 0.69448 0.69244 0.87429 0.0
C1179 C 0.67867 0.69937 0.88105 0.0
C1180 C 0.6733 0.69577 0.87242 0.0
C1181 C 0.68935 0.69785 0.88206 0.0
C1182 C 0.68907 0.68879 0.86566 0.0
C1183 C 0.67261 0.68716 0.85549 0.0
O1184 O 0.66858 0.67603 0.82602 0.0
O1185 O 0.6588 0.66629 0.83586 0.0
O1186 O 0.66758 0.67838 0.85642 0.0
O1187 O 0.6773 0.68821 0.8466 0.0
H1188 H 0.65576 0.69178 0.83011 0.0
H1189 H 0.64052 0.7013 0.82443 0.0
H1190 H 0.62774 0.67347 0.81133 0.0
H1191 H 0.64295 0.66402 0.81704 0.0
H1192 H 0.69107 0.6395 0.81301 0.0
H1193 H 0.68537 0.65469 0.82241 0.0
H1194 H 0.70382 0.62705 0.84114 0.0
H1195 H 0.69809 0.64221 0.85046 0.0
H1196 H 0.7027 0.69119 0.87476 0.0
H1197 H 0.67442 0.70331 0.88696 0.0
H1198 H 0.66509 0.69713 0.87181 0.0
H1199 H 0.6932 0.68473 0.85975 0.0
C1200 C 0.32139 0.65307 0.83858 0.0
C1201 C 0.32822 0.64743 0.83253 0.0
C1202 C 0.31435 0.63549 0.82786 0.0
C1203 C 0.32473 0.6387 0.82724 0.0
C1204 C 0.30754 0.6413 0.83382 0.0
C1205 C 0.31104 0.64999 0.83913 0.0
U1206 U 0.34017 0.6755 0.84306 0.0
O1207 O 0.33717 0.69139 0.84775 0.0
O1208 O 0.34672 0.68147 0.85753 0.0
C1209 C 0.34198 0.6903 0.85661 0.0
C1210 C 0.32492 0.66214 0.84439 0.0
C1211 C 0.33635 0.69368 0.86577 0.0
C1212 C 0.32058 0.69507 0.87567 0.0
C1213 C 0.32577 0.69166 0.86693 0.0
C1214 C 0.33654 0.70236 0.88226 0.0
C1215 C 0.32592 0.70046 0.88343 0.0
C1216 C 0.34169 0.69901 0.8735 0.0
C1217 C 0.36289 0.67976 0.8248 0.0
C1218 C 0.37297 0.69559 0.82356 0.0
C1219 C 0.37901 0.68011 0.81539 0.0
C1220 C 0.37033 0.67475 0.81897 0.0
C1221 C 0.3804 0.69063 0.81755 0.0
C1222 C 0.3643 0.6902 0.82717 0.0
C1223 C 0.35366 0.67402 0.82818 0.0
O1224 O 0.33368 0.66115 0.8494 0.0
O1225 O 0.32412 0.671 0.83957 0.0
O1226 O 0.34487 0.67885 0.82717 0.0
O1227 O 0.35454 0.66908 0.83698 0.0
H1228 H 0.33625 0.64972 0.83197 0.0
H1229 H 0.33022 0.63436 0.82282 0.0
H1230 H 0.29946 0.63919 0.83433 0.0
H1231 H 0.30565 0.6543 0.8437 0.0
H1232 H 0.31243 0.69339 0.8764 0.0
H1233 H 0.32152 0.68747 0.86108 0.0
H1234 H 0.34085 0.70659 0.88803 0.0
H1235 H 0.34986 0.70064 0.87274 0.0
H1236 H 0.37372 0.7037 0.82529 0.0
H1237 H 0.38465 0.67599 0.81097 0.0
H1238 H 0.3694 0.66668 0.81712 0.0
H1239 H 0.35865 0.6942 0.83171 0.0
C1240 C 0.33802 0.3651 0.82337 0.0
C1241 C 0.3275 0.36613 0.82557 0.0
C1242 C 0.32736 0.38288 0.81704 0.0
C1243 C 0.3222 0.37493 0.82239 0.0
C1244 C 0.33794 0.38185 0.81502 0.0
C1245 C 0.3432 0.37304 0.81814 0.0
U1246 U 0.34274 0.34166 0.84078 0.0
O1247 O 0.34687 0.32585 0.83657 0.0
O1248 O 0.35733 0.33509 0.84621 0.0
C1249 C 0.35597 0.32653 0.84102 0.0
C1250 C 0.34371 0.35576 0.82627 0.0
C1251 C 0.36476 0.32322 0.83476 0.0
C1252 C 0.37927 0.32696 0.82352 0.0
C1253 C 0.37078 0.3303 0.82916 0.0
C1254 C 0.37565 0.30942 0.82882 0.0
C1255 C 0.38181 0.31647 0.8233 0.0
C1256 C 0.36723 0.31277 0.8345 0.0
C1257 C 0.32549 0.33674 0.86424 0.0
C1258 C 0.32351 0.32054 0.8735 0.0
C1259 C 0.31795 0.33638 0.88131 0.0
C1260 C 0.32112 0.34186 0.87258 0.0
C1261 C 0.31906 0.32565 0.88186 0.0
C1262 C 0.32675 0.32604 0.86479 0.0
C1263 C 0.32859 0.34272 0.85508 0.0
O1264 O 0.34909 0.35631 0.83485 0.0
O1265 O 0.33868 0.347 0.82523 0.0
O1266 O 0.32702 0.3383 0.84614 0.0
O1267 O 0.33754 0.3475 0.85573 0.0
H1268 H 0.32337 0.36012 0.82967 0.0
H1269 H 0.31409 0.37554 0.82417 0.0
H1270 H 0.34211 0.38777 0.81082 0.0
H1271 H 0.35131 0.37238 0.81637 0.0
H1272 H 0.38379 0.33257 0.81926 0.0
H1273 H 0.36896 0.33841 0.8292 0.0
H1274 H 0.37746 0.30131 0.82892 0.0
H1275 H 0.36267 0.30719 0.83878 0.0
H1276 H 0.32458 0.31229 0.87374 0.0
H1277 H 0.31444 0.34054 0.88755 0.0
H1278 H 0.32008 0.35011 0.8723 0.0
H1279 H 0.33019 0.32194 0.85847 0.0
C1280 C 0.25221 0.24078 0.04317 0.0
C1281 C 0.24144 0.24066 0.04446 0.0
C1282 C 0.25664 0.24506 0.03432 0.0
C1283 C 0.25042 0.2494 0.0266 0.0
C1284 C 0.23524 0.24494 0.03667 0.0
C1285 C 0.23968 0.2492 0.02782 0.0
C1286 C 0.25498 0.25369 0.01704 0.0
C1287 C 0.26584 0.27428 0.04265 0.0
C1288 C 0.27658 0.27437 0.04425 0.0
C1289 C 0.26154 0.26981 0.03384 0.0
C1290 C 0.26787 0.26525 0.02646 0.0
C1291 C 0.2829 0.2699 0.03677 0.0
C1292 C 0.27859 0.26545 0.02794 0.0
C1293 C 0.26341 0.26068 0.01697 0.0
C1294 C 0.26572 0.27357 0.97244 0.0
C1295 C 0.27648 0.27418 0.9712 0.0
C1296 C 0.26144 0.26911 0.98128 0.0
C1297 C 0.2678 0.26499 0.98901 0.0
C1298 C 0.28283 0.27016 0.97902 0.0
C1299 C 0.27854 0.26566 0.98783 0.0
C1300 C 0.26338 0.26053 0.99858 0.0
C1301 C 0.25196 0.24023 0.97283 0.0
C1302 C 0.24119 0.24025 0.97148 0.0
C1303 C 0.25648 0.24457 0.98162 0.0
C1304 C 0.25033 0.24907 0.98919 0.0
C1305 C 0.23507 0.24465 0.97914 0.0
C1306 C 0.23958 0.24894 0.98793 0.0
C1307 C 0.25496 0.25352 0.99865 0.0
H1308 H 0.25722 0.23736 0.0489 0.0
H1309 H 0.26493 0.24482 0.03344 0.0
H1310 H 0.22694 0.24509 0.03743 0.0
H1311 H 0.23472 0.25244 0.02194 0.0
H1312 H 0.26075 0.27784 0.04812 0.0
H1313 H 0.25327 0.27005 0.03273 0.0
H1314 H 0.29118 0.26973 0.03778 0.0
H1315 H 0.28363 0.26205 0.02232 0.0
H1316 H 0.26057 0.27651 0.96657 0.0
H1317 H 0.25314 0.26901 0.9821 0.0
H1318 H 0.29114 0.27066 0.97843 0.0
H1319 H 0.28362 0.26269 0.99375 0.0
H1320 H 0.2569 0.23694 0.96706 0.0
H1321 H 0.26477 0.24434 0.98252 0.0
H1322 H 0.22675 0.24463 0.97843 0.0
H1323 H 0.23467 0.25224 0.99373 0.0
N1324 N 0.25106 0.25045 0.00788 0.0
N1325 N 0.26731 0.26376 0.00775 0.0
C1326 C 0.76588 0.24271 0.97424 0.0
C1327 C 0.77664 0.24275 0.97293 0.0
C1328 C 0.7615 0.24702 0.983 0.0
C1329 C 0.76778 0.25153 0.99061 0.0
C1330 C 0.78289 0.24722 0.98061 0.0
C1331 C 0.77851 0.2515 0.98938 0.0
C1332 C 0.76327 0.25586 1.00008 0.0
C1333 C 0.7527 0.2762 0.9741 0.0
C1334 C 0.74196 0.27605 0.97249 0.0
C1335 C 0.75697 0.27186 0.98298 0.0
C1336 C 0.7506 0.26721 0.99042 0.0
C1337 C 0.73561 0.27145 0.98 0.0
C1338 C 0.73989 0.26714 0.9889 0.0
C1339 C 0.75499 0.26283 0.99998 0.0
C1340 C 0.75283 0.27562 0.04443 0.0
C1341 C 0.74208 0.27636 0.04559 0.0
C1342 C 0.75702 0.27124 0.03562 0.0
C1343 C 0.75057 0.26731 0.02784 0.0
C1344 C 0.73565 0.27256 0.0377 0.0
C1345 C 0.73985 0.26813 0.02891 0.0
C1346 C 0.75492 0.26282 0.01835 0.0
C1347 C 0.76469 0.24184 0.04407 0.0
C1348 C 0.77538 0.24174 0.04587 0.0
C1349 C 0.76068 0.24644 0.03521 0.0
C1350 C 0.76728 0.25108 0.02798 0.0
C1351 C 0.78198 0.24634 0.03859 0.0
C1352 C 0.77796 0.25089 0.02968 0.0
C1353 C 0.76312 0.25574 0.01843 0.0
H1354 H 0.76084 0.23916 0.9686 0.0
H1355 H 0.75321 0.24667 0.9839 0.0
H1356 H 0.79119 0.24751 0.97981 0.0
H1357 H 0.78351 0.25488 0.99517 0.0
H1358 H 0.7578 0.27986 0.9686 0.0
H1359 H 0.76523 0.27227 0.98412 0.0
H1360 H 0.72733 0.27109 0.97897 0.0
H1361 H 0.73483 0.26366 0.99456 0.0
H1362 H 0.75803 0.27839 0.05036 0.0
H1363 H 0.76532 0.27103 0.03487 0.0
H1364 H 0.72735 0.27316 0.03822 0.0
H1365 H 0.73471 0.2653 0.02294 0.0
H1366 H 0.75941 0.23841 0.04956 0.0
H1367 H 0.75242 0.24629 0.03395 0.0
H1368 H 0.79025 0.24626 0.03969 0.0
H1369 H 0.7832 0.25432 0.02415 0.0
N1370 N 0.76703 0.25262 0.0093 0.0
N1371 N 0.75113 0.26601 0.00912 0.0
C1372 C 0.76591 0.77384 0.04262 0.0
C1373 C 0.77666 0.77396 0.04418 0.0
C1374 C 0.7616 0.7694 0.03381 0.0
C1375 C 0.76791 0.76488 0.02638 0.0
C1376 C 0.78296 0.76954 0.03666 0.0
C1377 C 0.77863 0.76511 0.02784 0.0
C1378 C 0.76343 0.76033 0.01689 0.0
C1379 C 0.75231 0.74038 0.04308 0.0
C1380 C 0.74155 0.74031 0.04442 0.0
C1381 C 0.75671 0.74465 0.03422 0.0
C1382 C 0.75047 0.74902 0.02653 0.0
C1383 C 0.73532 0.74461 0.03665 0.0
C1384 C 0.73974 0.74886 0.02778 0.0
C1385 C 0.75501 0.75334 0.01696 0.0
C1386 C 0.75182 0.74017 0.97264 0.0
C1387 C 0.74105 0.74021 0.97133 0.0
C1388 C 0.75638 0.7444 0.98146 0.0
C1389 C 0.75027 0.74882 0.98911 0.0
C1390 C 0.73496 0.7445 0.97908 0.0
C1391 C 0.73952 0.7487 0.9879 0.0
C1392 C 0.75493 0.75323 0.99858 0.0
C1393 C 0.76556 0.77342 0.97242 0.0
C1394 C 0.77631 0.77409 0.97115 0.0
C1395 C 0.76132 0.76891 0.98124 0.0
C1396 C 0.76772 0.76477 0.98893 0.0
C1397 C 0.7827 0.77006 0.97893 0.0
C1398 C 0.77845 0.7655 0.98773 0.0
C1399 C 0.76334 0.76025 0.9985 0.0
H1400 H 0.76083 0.77737 0.04812 0.0
H1401 H 0.75332 0.76962 0.03273 0.0
H1402 H 0.79125 0.7694 0.03764 0.0
H1403 H 0.78367 0.76175 0.02218 0.0
H1404 H 0.75733 0.73695 0.04879 0.0
H1405 H 0.765 0.74439 0.03331 0.0
H1406 H 0.72703 0.7448 0.03746 0.0
H1407 H 0.73476 0.75212 0.02193 0.0
H1408 H 0.75674 0.73695 0.96681 0.0
H1409 H 0.76468 0.74417 0.98232 0.0
H1410 H 0.72664 0.74451 0.9784 0.0
H1411 H 0.73463 0.75194 0.99375 0.0
H1412 H 0.76038 0.77637 0.96657 0.0
H1413 H 0.75302 0.76878 0.98209 0.0
H1414 H 0.79101 0.7706 0.97833 0.0
H1415 H 0.78356 0.76252 0.99362 0.0
N1416 N 0.7673 0.76346 0.00767 0.0
N1417 N 0.75107 0.75012 0.0078 0.0
C1418 C 0.26611 0.74287 0.97419 0.0
C1419 C 0.27688 0.74286 0.97299 0.0
C1420 C 0.26165 0.74715 0.98293 0.0
C1421 C 0.26787 0.75159 0.99062 0.0
C1422 C 0.28307 0.74726 0.98076 0.0
C1423 C 0.27862 0.75151 0.9895 0.0
C1424 C 0.2633 0.7559 1.00007 0.0
C1425 C 0.25291 0.77634 0.97408 0.0
C1426 C 0.24218 0.77619 0.9724 0.0
C1427 C 0.25712 0.77197 0.98298 0.0
C1428 C 0.25071 0.7673 0.99035 0.0
C1429 C 0.23579 0.77156 0.97986 0.0
C1430 C 0.24002 0.76723 0.98877 0.0
C1431 C 0.25505 0.7629 0.99994 0.0
C1432 C 0.25281 0.77578 0.04435 0.0
C1433 C 0.24207 0.77663 0.04545 0.0
C1434 C 0.257 0.77133 0.03558 0.0
C1435 C 0.25055 0.76744 0.02777 0.0
C1436 C 0.23563 0.77287 0.03754 0.0
C1437 C 0.23983 0.76836 0.02879 0.0
C1438 C 0.2549 0.7629 0.01831 0.0
C1439 C 0.26447 0.74189 0.04408 0.0
C1440 C 0.27515 0.74175 0.04592 0.0
C1441 C 0.26051 0.7465 0.0352 0.0
C1442 C 0.26716 0.75111 0.02799 0.0
C1443 C 0.2818 0.74631 0.03866 0.0
C1444 C 0.27784 0.75087 0.02974 0.0
C1445 C 0.26306 0.75578 0.01843 0.0
H1446 H 0.26111 0.73938 0.96847 0.0
H1447 H 0.25336 0.74684 0.98374 0.0
H1448 H 0.29138 0.7475 0.98006 0.0
H1449 H 0.28357 0.75483 0.99536 0.0
H1450 H 0.25805 0.78002 0.96862 0.0
H1451 H 0.26539 0.77238 0.98416 0.0
H1452 H 0.22752 0.77119 0.97877 0.0
H1453 H 0.23493 0.76373 0.99439 0.0
H1454 H 0.25801 0.77851 0.0503 0.0
H1455 H 0.2653 0.77104 0.03486 0.0
H1456 H 0.22734 0.77356 0.03802 0.0
H1457 H 0.23469 0.76557 0.02281 0.0
H1458 H 0.25915 0.73849 0.04955 0.0
H1459 H 0.25226 0.74639 0.03391 0.0
H1460 H 0.29007 0.74619 0.03979 0.0
H1461 H 0.28311 0.75427 0.02422 0.0
N1462 N 0.267 0.75264 0.00931 0.0
N1463 N 0.25116 0.7661 0.00906 0.0
C1464 C 0.97315 0.24302 0.25038 0.0
C1465 C 0.97166 0.24323 0.23966 0.0
C1466 C 0.98208 0.24723 0.25478 0.0
C1467 C 0.98967 0.25184 0.24855 0.0
C1468 C 0.97933 0.24776 0.23345 0.0
C1469 C 0.98827 0.25196 0.23785 0.0
C1470 C 0.99928 0.2561 0.25309 0.0
C1471 C 0.97365 0.27615 0.26411 0.0
C1472 C 0.97219 0.27601 0.27482 0.0
C1473 C 0.98246 0.27186 0.25979 0.0
C1474 C 0.98996 0.26724 0.26607 0.0
C1475 C 0.97979 0.27151 0.2811 0.0
C1476 C 0.9886 0.26723 0.27677 0.0
C1477 C 0.99942 0.26281 0.26161 0.0
C1478 C 0.04402 0.27533 0.26518 0.0
C1479 C 0.04539 0.27467 0.27589 0.0
C1480 C 0.03511 0.27131 0.26053 0.0
C1481 C 0.02744 0.26652 0.26652 0.0
C1482 C 0.03765 0.26995 0.28186 0.0
C1483 C 0.02873 0.26599 0.27722 0.0
C1484 C 0.01782 0.26251 0.26177 0.0
C1485 C 0.04337 0.24244 0.25026 0.0
C1486 C 0.04474 0.24278 0.23953 0.0
C1487 C 0.03465 0.24675 0.25474 0.0
C1488 C 0.02714 0.25156 0.2486 0.0
C1489 C 0.03716 0.24751 0.23341 0.0
C1490 C 0.02843 0.25179 0.23789 0.0
C1491 C 0.01769 0.25588 0.25319 0.0
H1492 H 0.96751 0.23941 0.25538 0.0
H1493 H 0.98313 0.24676 0.26303 0.0
H1494 H 0.97839 0.24816 0.22518 0.0
H1495 H 0.99405 0.25541 0.2329 0.0
H1496 H 0.96808 0.27973 0.25905 0.0
H1497 H 0.98347 0.27228 0.25153 0.0
H1498 H 0.97889 0.27116 0.28937 0.0
H1499 H 0.99431 0.26379 0.28179 0.0
H1500 H 0.04985 0.27889 0.26037 0.0
H1501 H 0.03418 0.27203 0.25228 0.0
H1502 H 0.03841 0.26947 0.29015 0.0
H1503 H 0.02285 0.26245 0.282 0.0
H1504 H 0.04906 0.2389 0.2552 0.0
H1505 H 0.03372 0.24621 0.263 0.0
H1506 H 0.03788 0.24776 0.22512 0.0
H1507 H 0.02269 0.25533 0.23299 0.0
N1508 N 0.00842 0.25297 0.24917 0.0
N1509 N 0.00869 0.26567 0.26566 0.0
C1510 C 0.74182 0.97247 0.26437 0.0
C1511 C 0.74201 0.97079 0.27507 0.0
C1512 C 0.74601 0.98147 0.26014 0.0
C1513 C 0.75056 0.98895 0.2665 0.0
C1514 C 0.74649 0.97835 0.28142 0.0
C1515 C 0.75066 0.98737 0.27718 0.0
C1516 C 0.75479 0.99864 0.26213 0.0
C1517 C 0.77521 0.97331 0.25117 0.0
C1518 C 0.77512 0.97191 0.24044 0.0
C1519 C 0.77086 0.98205 0.25551 0.0
C1520 C 0.76624 0.98955 0.24925 0.0
C1521 C 0.77062 0.97952 0.23418 0.0
C1522 C 0.76629 0.98827 0.23854 0.0
C1523 C 0.76171 0.99892 0.25376 0.0
C1524 C 0.77458 0.04337 0.25205 0.0
C1525 C 0.77445 0.04519 0.24138 0.0
C1526 C 0.77032 0.03434 0.25615 0.0
C1527 C 0.76577 0.02696 0.24967 0.0
C1528 C 0.76998 0.03772 0.2349 0.0
C1529 C 0.76574 0.02867 0.23901 0.0
C1530 C 0.76142 0.01727 0.25392 0.0
C1531 C 0.74104 0.04263 0.26489 0.0
C1532 C 0.741 0.04394 0.27562 0.0
C1533 C 0.74541 0.03391 0.26052 0.0
C1534 C 0.74993 0.02634 0.26678 0.0
C1535 C 0.7454 0.03627 0.28187 0.0
C1536 C 0.74976 0.02755 0.2775 0.0
C1537 C 0.75447 0.01698 0.26226 0.0
H1538 H 0.73823 0.96692 0.25927 0.0
H1539 H 0.74557 0.98265 0.2519 0.0
H1540 H 0.74687 0.97728 0.28968 0.0
H1541 H 0.75406 0.99308 0.28224 0.0
H1542 H 0.7788 0.96774 0.25621 0.0
H1543 H 0.77122 0.983 0.26378 0.0
H1544 H 0.77033 0.97866 0.22591 0.0
H1545 H 0.76284 0.99398 0.23355 0.0
H1546 H 0.77817 0.04883 0.25725 0.0
H1547 H 0.77071 0.03306 0.26438 0.0
H1548 H 0.76965 0.0389 0.22666 0.0
H1549 H 0.76234 0.02304 0.23386 0.0
H1550 H 0.73753 0.04826 0.25985 0.0
H1551 H 0.74514 0.03302 0.25225 0.0
H1552 H 0.74561 0.03706 0.29016 0.0
H1553 H 0.75313 0.02178 0.28249 0.0
N1554 N 0.75149 0.00767 0.26608 0.0
N1555 N 0.76471 0.00823 0.24995 0.0
C1556 C 0.04352 0.775 0.2524 0.0
C1557 C 0.04467 0.77478 0.24165 0.0
C1558 C 0.03457 0.77109 0.25701 0.0
C1559 C 0.0266 0.76684 0.25097 0.0
C1560 C 0.03663 0.77062 0.23563 0.0
C1561 C 0.02767 0.76676 0.24023 0.0
C1562 C 0.01698 0.76283 0.25569 0.0
C1563 C 0.04208 0.74148 0.26592 0.0
C1564 C 0.04392 0.74135 0.27659 0.0
C1565 C 0.03335 0.74627 0.26186 0.0
C1566 C 0.02631 0.75111 0.26836 0.0
C1567 C 0.03682 0.74616 0.28309 0.0
C1568 C 0.02807 0.75091 0.27902 0.0
C1569 C 0.01687 0.75591 0.26412 0.0
C1570 C 0.97243 0.74288 0.26638 0.0
C1571 C 0.97085 0.74285 0.27707 0.0
C1572 C 0.98134 0.74731 0.26218 0.0
C1573 C 0.98882 0.75189 0.26858 0.0
C1574 C 0.97839 0.74738 0.28346 0.0
C1575 C 0.98732 0.75178 0.27926 0.0
C1576 C 0.99845 0.75629 0.26423 0.0
C1577 C 0.97269 0.77632 0.2527 0.0
C1578 C 0.97138 0.77625 0.24196 0.0
C1579 C 0.98148 0.77206 0.25725 0.0
C1580 C 0.98911 0.76759 0.25114 0.0
C1581 C 0.9791 0.77189 0.23587 0.0
C1582 C 0.98789 0.76767 0.24041 0.0
C1583 C 0.99858 0.7632 0.25579 0.0
H1584 H 0.04958 0.77813 0.25726 0.0
H1585 H 0.03384 0.77147 0.26529 0.0
H1586 H 0.0372 0.77048 0.22732 0.0
H1587 H 0.02158 0.76363 0.23541 0.0
H1588 H 0.04741 0.73791 0.26069 0.0
H1589 H 0.03205 0.74607 0.25363 0.0
H1590 H 0.03793 0.74607 0.29135 0.0
H1591 H 0.02268 0.75448 0.28419 0.0
H1592 H 0.96676 0.73951 0.26123 0.0
H1593 H 0.98244 0.74704 0.25394 0.0
H1594 H 0.97747 0.74736 0.29174 0.0
H1595 H 0.99305 0.75514 0.28436 0.0
H1596 H 0.96689 0.77959 0.25762 0.0
H1597 H 0.98235 0.77234 0.26553 0.0
H1598 H 0.97842 0.77186 0.22756 0.0
H1599 H 0.99372 0.76438 0.23553 0.0
N1600 N 0.00784 0.76614 0.25183 0.0
N1601 N 0.0076 0.75297 0.2681 0.0
C1602 C 0.25187 0.97293 0.24191 0.0
C1603 C 0.24111 0.97179 0.24115 0.0
C1604 C 0.25627 0.9818 0.2462 0.0
C1605 C 0.24998 0.98962 0.25003 0.0
C1606 C 0.23485 0.97971 0.24482 0.0
C1607 C 0.23924 0.98853 0.24919 0.0
C1608 C 0.25445 0.9992 0.25444 0.0
C1609 C 0.26534 0.97346 0.27503 0.0
C1610 C 0.27611 0.97224 0.27519 0.0
C1611 C 0.26093 0.98222 0.27062 0.0
C1612 C 0.26719 0.98992 0.26618 0.0
C1613 C 0.28234 0.98004 0.27084 0.0
C1614 C 0.27793 0.9888 0.26645 0.0
C1615 C 0.26266 0.99934 0.26165 0.0
C1616 C 0.2639 0.04355 0.27521 0.0
C1617 C 0.27462 0.04511 0.2761 0.0
C1618 C 0.25989 0.0347 0.27056 0.0
C1619 C 0.2665 0.02728 0.26649 0.0
C1620 C 0.28121 0.03757 0.27218 0.0
C1621 C 0.27719 0.02875 0.26746 0.0
C1622 C 0.26237 0.01773 0.26174 0.0
C1623 C 0.25113 0.04395 0.24207 0.0
C1624 C 0.24033 0.04475 0.24146 0.0
C1625 C 0.25568 0.03514 0.24623 0.0
C1626 C 0.24955 0.02701 0.25003 0.0
C1627 C 0.23423 0.03647 0.24503 0.0
C1628 C 0.23879 0.0277 0.24922 0.0
C1629 C 0.25421 0.01758 0.25447 0.0
H1630 H 0.2569 0.96705 0.23898 0.0
H1631 H 0.26458 0.98259 0.24639 0.0
H1632 H 0.22653 0.97904 0.24442 0.0
H1633 H 0.23422 0.99448 0.25199 0.0
H1634 H 0.26031 0.96772 0.27848 0.0
H1635 H 0.25264 0.98303 0.27078 0.0
H1636 H 0.29064 0.97932 0.27071 0.0
H1637 H 0.28291 0.99467 0.26315 0.0
H1638 H 0.25858 0.0492 0.27808 0.0
H1639 H 0.25161 0.03362 0.27022 0.0
H1640 H 0.28949 0.03839 0.27291 0.0
H1641 H 0.28245 0.02307 0.26455 0.0
H1642 H 0.25608 0.05017 0.23945 0.0
H1643 H 0.26401 0.03469 0.24646 0.0
H1644 H 0.22591 0.03671 0.24448 0.0
H1645 H 0.23388 0.02147 0.25194 0.0
N1646 N 0.25055 0.00832 0.25119 0.0
N1647 N 0.26632 0.0086 0.26495 0.0
C1648 C 0.97329 0.74314 0.74999 0.0
C1649 C 0.97191 0.74345 0.73925 0.0
C1650 C 0.98213 0.74741 0.75452 0.0
C1651 C 0.98974 0.75215 0.74843 0.0
C1652 C 0.97959 0.74817 0.73318 0.0
C1653 C 0.98843 0.75241 0.73772 0.0
C1654 C 0.99932 0.75635 0.75308 0.0
C1655 C 0.97354 0.77616 0.76428 0.0
C1656 C 0.97204 0.77578 0.77498 0.0
C1657 C 0.98239 0.77202 0.7599 0.0
C1658 C 0.98991 0.76735 0.76612 0.0
C1659 C 0.97966 0.77124 0.7812 0.0
C1660 C 0.98853 0.76714 0.77682 0.0
C1661 C 0.9994 0.76304 0.76161 0.0
C1662 C 0.04437 0.77491 0.76548 0.0
C1663 C 0.04528 0.77503 0.77627 0.0
C1664 C 0.03548 0.77095 0.76075 0.0
C1665 C 0.0274 0.76684 0.7667 0.0
C1666 C 0.03707 0.77111 0.78219 0.0
C1667 C 0.02823 0.76708 0.77745 0.0
C1668 C 0.01782 0.76278 0.76186 0.0
C1669 C 0.04337 0.74255 0.75051 0.0
C1670 C 0.04479 0.74291 0.73979 0.0
C1671 C 0.03463 0.74686 0.75495 0.0
C1672 C 0.02717 0.75169 0.74878 0.0
C1673 C 0.03723 0.74762 0.73364 0.0
C1674 C 0.02849 0.75191 0.73808 0.0
C1675 C 0.01773 0.75609 0.75331 0.0
H1676 H 0.96764 0.7394 0.75488 0.0
H1677 H 0.9831 0.74684 0.76278 0.0
H1678 H 0.97873 0.74866 0.7249 0.0
H1679 H 0.99423 0.75596 0.73286 0.0
H1680 H 0.96781 0.77957 0.75926 0.0
H1681 H 0.98339 0.77254 0.75165 0.0
H1682 H 0.97884 0.77097 0.78948 0.0
H1683 H 0.99428 0.7637 0.78179 0.0
H1684 H 0.05054 0.77782 0.76067 0.0
H1685 H 0.03491 0.7712 0.75244 0.0
H1686 H 0.03739 0.77129 0.79051 0.0
H1687 H 0.02204 0.76412 0.78222 0.0
H1688 H 0.04905 0.73902 0.75548 0.0
H1689 H 0.03367 0.74635 0.76321 0.0
H1690 H 0.03798 0.74787 0.72535 0.0
H1691 H 0.02278 0.75545 0.73315 0.0
N1692 N 0.00847 0.75321 0.74923 0.0
N1693 N 0.00865 0.76592 0.7657 0.0
C1694 C 0.24134 0.97271 0.76415 0.0
C1695 C 0.24132 0.97096 0.77483 0.0
C1696 C 0.24585 0.98162 0.76005 0.0
C1697 C 0.25047 0.98894 0.76655 0.0
C1698 C 0.24594 0.97831 0.78132 0.0
C1699 C 0.2504 0.98726 0.77722 0.0
C1700 C 0.25489 0.99861 0.76232 0.0
C1701 C 0.27532 0.97327 0.75154 0.0
C1702 C 0.27547 0.97193 0.74082 0.0
C1703 C 0.27089 0.98198 0.75584 0.0
C1704 C 0.26641 0.98952 0.74952 0.0
C1705 C 0.27109 0.97955 0.7345 0.0
C1706 C 0.26667 0.98829 0.73881 0.0
C1707 C 0.26185 0.9989 0.754 0.0
C1708 C 0.27485 0.04333 0.75228 0.0
C1709 C 0.2747 0.04512 0.7416 0.0
C1710 C 0.27057 0.03432 0.75641 0.0
C1711 C 0.26598 0.02693 0.74996 0.0
C1712 C 0.27018 0.03765 0.73516 0.0
C1713 C 0.26593 0.02862 0.7393 0.0
C1714 C 0.26165 0.01725 0.75423 0.0
C1715 C 0.24134 0.04261 0.76562 0.0
C1716 C 0.24123 0.04369 0.77638 0.0
C1717 C 0.24576 0.03398 0.7611 0.0
C1718 C 0.25026 0.0263 0.76723 0.0
C1719 C 0.24567 0.03594 0.78249 0.0
C1720 C 0.25008 0.02732 0.77796 0.0
C1721 C 0.25471 0.01696 0.76259 0.0
H1722 H 0.23788 0.96717 0.75895 0.0
H1723 H 0.2456 0.98286 0.75181 0.0
H1724 H 0.24592 0.97725 0.78959 0.0
H1725 H 0.25382 0.99286 0.78238 0.0
H1726 H 0.27858 0.96753 0.75664 0.0
H1727 H 0.27104 0.98287 0.76412 0.0
H1728 H 0.27121 0.97884 0.72621 0.0
H1729 H 0.26339 0.99406 0.73377 0.0
H1730 H 0.27846 0.0488 0.75745 0.0
H1731 H 0.27098 0.03306 0.76465 0.0
H1732 H 0.26984 0.03881 0.72691 0.0
H1733 H 0.2625 0.02299 0.73418 0.0
H1734 H 0.23782 0.04832 0.76068 0.0
H1735 H 0.24551 0.03324 0.75281 0.0
H1736 H 0.24584 0.03656 0.79079 0.0
H1737 H 0.25344 0.02147 0.78286 0.0
N1738 N 0.25165 0.00764 0.76633 0.0
N1739 N 0.2649 0.00821 0.75024 0.0
C1740 C 0.04356 0.27469 0.75248 0.0
C1741 C 0.04483 0.2743 0.74176 0.0
C1742 C 0.0346 0.27076 0.75705 0.0
C1743 C 0.02675 0.26633 0.75099 0.0
C1744 C 0.03691 0.26996 0.73571 0.0
C1745 C 0.02794 0.26608 0.74028 0.0
C1746 C 0.0171 0.26233 0.75567 0.0
C1747 C 0.04236 0.24156 0.76663 0.0
C1748 C 0.04407 0.2417 0.77732 0.0
C1749 C 0.03358 0.24607 0.76235 0.0
C1750 C 0.02636 0.2509 0.76865 0.0
C1751 C 0.03674 0.24642 0.78362 0.0
C1752 C 0.02795 0.25092 0.77933 0.0
C1753 C 0.01692 0.25554 0.7642 0.0
C1754 C 0.97233 0.24281 0.76644 0.0
C1755 C 0.97074 0.2429 0.77714 0.0
C1756 C 0.9813 0.24708 0.7622 0.0
C1757 C 0.98885 0.25162 0.76856 0.0
C1758 C 0.97838 0.24736 0.78348 0.0
C1759 C 0.98736 0.25161 0.77923 0.0
C1760 C 0.99851 0.25591 0.76416 0.0
C1761 C 0.97298 0.27613 0.75241 0.0
C1762 C 0.97177 0.27618 0.74165 0.0
C1763 C 0.98166 0.27172 0.757 0.0
C1764 C 0.98927 0.26716 0.75094 0.0
C1765 C 0.97945 0.27166 0.73561 0.0
C1766 C 0.98812 0.26726 0.74021 0.0
C1767 C 0.99869 0.26272 0.75564 0.0
H1768 H 0.04953 0.27796 0.75735 0.0
H1769 H 0.03376 0.27127 0.76532 0.0
H1770 H 0.03758 0.26969 0.72742 0.0
H1771 H 0.02193 0.26282 0.73543 0.0
H1772 H 0.0477 0.23779 0.76156 0.0
H1773 H 0.03238 0.24565 0.75411 0.0
H1774 H 0.03783 0.24676 0.79187 0.0
H1775 H 0.02243 0.25452 0.78435 0.0
H1776 H 0.96675 0.23925 0.76133 0.0
H1777 H 0.98241 0.24668 0.75397 0.0
H1778 H 0.97738 0.24765 0.79173 0.0
H1779 H 0.99311 0.25498 0.78429 0.0
H1780 H 0.96733 0.27971 0.75729 0.0
H1781 H 0.9825 0.27203 0.76529 0.0
H1782 H 0.97872 0.27143 0.72732 0.0
H1783 H 0.99391 0.26385 0.73536 0.0
N1784 N 0.00798 0.2656 0.75171 0.0
N1785 N 0.00763 0.25265 0.76814 0.0
C1786 C 0.75134 0.97362 0.74139 0.0
C1787 C 0.74057 0.97219 0.7414 0.0
C1788 C 0.75582 0.98242 0.74573 0.0
C1789 C 0.74964 0.98993 0.75027 0.0
C1790 C 0.73442 0.97976 0.74591 0.0
C1791 C 0.73891 0.98855 0.75023 0.0
C1792 C 0.7542 0.99947 0.75462 0.0
C1793 C 0.76554 0.97356 0.77466 0.0
C1794 C 0.7763 0.97233 0.77463 0.0
C1795 C 0.76107 0.98235 0.77037 0.0
C1796 C 0.76725 0.99007 0.76588 0.0
C1797 C 0.78247 0.98014 0.7702 0.0
C1798 C 0.77799 0.98893 0.76594 0.0
C1799 C 0.76264 0.99955 0.76155 0.0
C1800 C 0.76388 0.04327 0.77606 0.0
C1801 C 0.77456 0.04527 0.77615 0.0
C1802 C 0.75989 0.03443 0.77137 0.0
C1803 C 0.76647 0.02744 0.76659 0.0
C1804 C 0.78114 0.03821 0.77143 0.0
C1805 C 0.77714 0.02935 0.76677 0.0
C1806 C 0.76233 0.01792 0.76182 0.0
C1807 C 0.7506 0.04429 0.74269 0.0
C1808 C 0.7398 0.04504 0.74215 0.0
C1809 C 0.75524 0.0355 0.74678 0.0
C1810 C 0.74918 0.02731 0.75059 0.0
C1811 C 0.73377 0.03673 0.74578 0.0
C1812 C 0.73841 0.02797 0.74992 0.0
C1813 C 0.75395 0.01784 0.75482 0.0
H1814 H 0.7563 0.96805 0.73782 0.0
H1815 H 0.76411 0.98344 0.7454 0.0
H1816 H 0.72612 0.97886 0.74619 0.0
H1817 H 0.73398 0.99426 0.75364 0.0
H1818 H 0.76056 0.96783 0.77818 0.0
H1819 H 0.75278 0.98318 0.77072 0.0
H1820 H 0.79077 0.97942 0.76993 0.0
H1821 H 0.78292 0.99481 0.76259 0.0
H1822 H 0.75859 0.04857 0.77958 0.0
H1823 H 0.75165 0.03302 0.77155 0.0
H1824 H 0.78941 0.03945 0.77149 0.0
H1825 H 0.78237 0.02399 0.76325 0.0
H1826 H 0.7555 0.05054 0.74002 0.0
H1827 H 0.76357 0.03508 0.74688 0.0
H1828 H 0.72544 0.03692 0.7453 0.0
H1829 H 0.73356 0.02171 0.75264 0.0
N1830 N 0.75018 0.00861 0.75157 0.0
N1831 N 0.7664 0.00878 0.76483 0.0
C1832 C 0.25221 0.74011 0.54285 0.0
C1833 C 0.24145 0.73993 0.54416 0.0
C1834 C 0.2566 0.74445 0.534 0.0
C1835 C 0.25034 0.74877 0.52631 0.0
C1836 C 0.2352 0.74419 0.53639 0.0
C1837 C 0.2396 0.7485 0.52754 0.0
C1838 C 0.25484 0.75318 0.51677 0.0
C1839 C 0.26558 0.77362 0.54256 0.0
C1840 C 0.27635 0.7744 0.54381 0.0
C1841 C 0.2613 0.769 0.53382 0.0
C1842 C 0.26766 0.76488 0.5262 0.0
C1843 C 0.28269 0.77038 0.5361 0.0
C1844 C 0.27839 0.76572 0.52738 0.0
C1845 C 0.26321 0.76025 0.51672 0.0
C1846 C 0.26517 0.77374 0.47246 0.0
C1847 C 0.27588 0.7739 0.47087 0.0
C1848 C 0.26099 0.76924 0.48132 0.0
C1849 C 0.26743 0.76472 0.48875 0.0
C1850 C 0.28232 0.76943 0.47836 0.0
C1851 C 0.27813 0.76496 0.48724 0.0
C1852 C 0.26311 0.76018 0.49832 0.0
C1853 C 0.25149 0.74028 0.47237 0.0
C1854 C 0.24071 0.74029 0.47112 0.0
C1855 C 0.25609 0.74448 0.48118 0.0
C1856 C 0.25 0.74884 0.4889 0.0
C1857 C 0.23465 0.74454 0.47893 0.0
C1858 C 0.23925 0.7487 0.48774 0.0
C1859 C 0.25471 0.75316 0.49838 0.0
H1860 H 0.25725 0.73672 0.54857 0.0
H1861 H 0.26489 0.74428 0.53311 0.0
H1862 H 0.2269 0.7443 0.53718 0.0
H1863 H 0.2346 0.75173 0.52169 0.0
H1864 H 0.26044 0.77655 0.54835 0.0
H1865 H 0.25299 0.76878 0.53297 0.0
H1866 H 0.291 0.77101 0.53669 0.0
H1867 H 0.28347 0.76276 0.52154 0.0
H1868 H 0.25998 0.77706 0.46683 0.0
H1869 H 0.25273 0.76941 0.48242 0.0
H1870 H 0.29061 0.76955 0.47745 0.0
H1871 H 0.28326 0.76164 0.49293 0.0
H1872 H 0.25638 0.7371 0.4665 0.0
H1873 H 0.26439 0.74425 0.482 0.0
H1874 H 0.22633 0.74452 0.47829 0.0
H1875 H 0.23438 0.7519 0.49364 0.0
N1876 N 0.25089 0.74999 0.5076 0.0
N1877 N 0.26705 0.7634 0.50749 0.0
C1878 C 0.7756 0.75253 0.54418 0.0
C1879 C 0.77497 0.74183 0.54567 0.0
C1880 C 0.77149 0.75706 0.53531 0.0
C1881 C 0.76664 0.75097 0.52778 0.0
C1882 C 0.77024 0.73575 0.53804 0.0
C1883 C 0.76619 0.74028 0.52915 0.0
C1884 C 0.76231 0.75562 0.51831 0.0
C1885 C 0.74297 0.76654 0.54459 0.0
C1886 C 0.74279 0.77728 0.54582 0.0
C1887 C 0.74706 0.7622 0.53571 0.0
C1888 C 0.75126 0.76849 0.52793 0.0
C1889 C 0.7468 0.78355 0.53791 0.0
C1890 C 0.75095 0.7792 0.52906 0.0
C1891 C 0.7555 0.76403 0.51838 0.0
C1892 C 0.74174 0.76728 0.47431 0.0
C1893 C 0.74203 0.77802 0.47296 0.0
C1894 C 0.74613 0.76274 0.48304 0.0
C1895 C 0.75097 0.76884 0.49056 0.0
C1896 C 0.74684 0.78409 0.48056 0.0
C1897 C 0.75119 0.77955 0.48929 0.0
C1898 C 0.75538 0.76421 0.50001 0.0
C1899 C 0.7748 0.75329 0.47375 0.0
C1900 C 0.77529 0.74256 0.4727 0.0
C1901 C 0.77054 0.75764 0.48255 0.0
C1902 C 0.76647 0.75134 0.4904 0.0
C1903 C 0.77137 0.73627 0.48063 0.0
C1904 C 0.76703 0.74062 0.48938 0.0
C1905 C 0.7622 0.7558 0.49994 0.0
H1906 H 0.77917 0.75742 0.54994 0.0
H1907 H 0.77214 0.76531 0.53432 0.0
H1908 H 0.76978 0.72747 0.53888 0.0
H1909 H 0.76259 0.73542 0.52338 0.0
H1910 H 0.74 0.76146 0.55053 0.0
H1911 H 0.74687 0.75392 0.53491 0.0
H1912 H 0.74661 0.79185 0.53848 0.0
H1913 H 0.75398 0.78423 0.5231 0.0
H1914 H 0.73794 0.76238 0.46872 0.0
H1915 H 0.74562 0.75447 0.48399 0.0
H1916 H 0.74733 0.79237 0.47972 0.0
H1917 H 0.75483 0.78442 0.49503 0.0
H1918 H 0.77793 0.75834 0.46786 0.0
H1919 H 0.7706 0.76592 0.48328 0.0
H1920 H 0.77159 0.72798 0.48002 0.0
H1921 H 0.76405 0.73559 0.49536 0.0
N1922 N 0.76533 0.75181 0.50911 0.0
N1923 N 0.75237 0.76802 0.50922 0.0
C1924 C 0.77549 0.26408 0.47235 0.0
C1925 C 0.77545 0.27482 0.47099 0.0
C1926 C 0.7713 0.25957 0.48121 0.0
C1927 C 0.76693 0.26571 0.48887 0.0
C1928 C 0.77123 0.28093 0.47876 0.0
C1929 C 0.76708 0.27643 0.48762 0.0
C1930 C 0.76254 0.26111 0.49838 0.0
C1931 C 0.74219 0.25035 0.47233 0.0
C1932 C 0.74142 0.23961 0.47121 0.0
C1933 C 0.74677 0.25466 0.48108 0.0
C1934 C 0.75088 0.24834 0.48885 0.0
C1935 C 0.74543 0.23331 0.47907 0.0
C1936 C 0.75006 0.23763 0.4878 0.0
C1937 C 0.75544 0.25278 0.49837 0.0
C1938 C 0.74182 0.25039 0.54252 0.0
C1939 C 0.7416 0.23966 0.54402 0.0
C1940 C 0.7463 0.2547 0.53371 0.0
C1941 C 0.75077 0.24839 0.52626 0.0
C1942 C 0.74597 0.23337 0.53647 0.0
C1943 C 0.75044 0.23769 0.52766 0.0
C1944 C 0.75537 0.25282 0.51677 0.0
C1945 C 0.77501 0.26409 0.54314 0.0
C1946 C 0.77572 0.27485 0.54403 0.0
C1947 C 0.77074 0.25959 0.53433 0.0
C1948 C 0.76687 0.26575 0.5263 0.0
C1949 C 0.77202 0.28099 0.5359 0.0
C1950 C 0.76767 0.27648 0.52713 0.0
C1951 C 0.76248 0.26114 0.51678 0.0
H1952 H 0.77865 0.25915 0.4665 0.0
H1953 H 0.77151 0.2513 0.4821 0.0
H1954 H 0.77124 0.28923 0.47805 0.0
H1955 H 0.76389 0.28134 0.49348 0.0
H1956 H 0.73926 0.25545 0.46642 0.0
H1957 H 0.74697 0.26294 0.48182 0.0
H1958 H 0.7448 0.22502 0.4786 0.0
H1959 H 0.75301 0.23258 0.49375 0.0
H1960 H 0.73836 0.25546 0.54807 0.0
H1961 H 0.74617 0.26296 0.53267 0.0
H1962 H 0.74604 0.2251 0.53741 0.0
H1963 H 0.75376 0.23266 0.52198 0.0
H1964 H 0.77796 0.25915 0.54918 0.0
H1965 H 0.77059 0.25129 0.53374 0.0
H1966 H 0.77238 0.28929 0.53637 0.0
H1967 H 0.76485 0.28141 0.52102 0.0
N1968 N 0.76572 0.26498 0.50757 0.0
N1969 N 0.7522 0.24894 0.50757 0.0
C1970 C 0.25241 0.27637 0.4742 0.0
C1971 C 0.24168 0.27624 0.47259 0.0
C1972 C 0.25668 0.27199 0.48308 0.0
C1973 C 0.2503 0.26734 0.49049 0.0
C1974 C 0.23533 0.27163 0.48009 0.0
C1975 C 0.23959 0.26729 0.48897 0.0
C1976 C 0.25468 0.26292 0.50005 0.0
C1977 C 0.26565 0.24306 0.47414 0.0
C1978 C 0.27641 0.24323 0.47286 0.0
C1979 C 0.26122 0.2472 0.48296 0.0
C1980 C 0.26745 0.25162 0.49066 0.0
C1981 C 0.28262 0.24755 0.48064 0.0
C1982 C 0.27819 0.25164 0.48948 0.0
C1983 C 0.2629 0.25589 0.50014 0.0
C1984 C 0.26451 0.24241 0.54449 0.0
C1985 C 0.27523 0.24148 0.54578 0.0
C1986 C 0.26043 0.24705 0.53567 0.0
C1987 C 0.26698 0.25107 0.52804 0.0
C1988 C 0.28176 0.24539 0.53806 0.0
C1989 C 0.27768 0.2501 0.52928 0.0
C1990 C 0.26277 0.25576 0.51851 0.0
C1991 C 0.25268 0.27599 0.5444 0.0
C1992 C 0.24194 0.2768 0.54555 0.0
C1993 C 0.25684 0.2715 0.53563 0.0
C1994 C 0.25036 0.26755 0.52788 0.0
C1995 C 0.23548 0.27299 0.53769 0.0
C1996 C 0.23965 0.26845 0.52894 0.0
C1997 C 0.25465 0.26294 0.51843 0.0
H1998 H 0.25753 0.28004 0.46871 0.0
H1999 H 0.26495 0.27239 0.48421 0.0
H2000 H 0.22704 0.27129 0.47905 0.0
H2001 H 0.23453 0.2638 0.49463 0.0
H2002 H 0.26065 0.23982 0.46827 0.0
H2003 H 0.25292 0.24686 0.4838 0.0
H2004 H 0.29094 0.24765 0.47998 0.0
H2005 H 0.28315 0.25489 0.49537 0.0
H2006 H 0.25924 0.23955 0.5503 0.0
H2007 H 0.25214 0.2474 0.53478 0.0
H2008 H 0.29005 0.24465 0.5387 0.0
H2009 H 0.28289 0.25299 0.52343 0.0
H2010 H 0.2579 0.27878 0.55031 0.0
H2011 H 0.26514 0.2712 0.53488 0.0
H2012 H 0.22719 0.27365 0.5382 0.0
H2013 H 0.23449 0.26561 0.523 0.0
N2014 N 0.25087 0.26615 0.50919 0.0
N2015 N 0.26663 0.25261 0.50936 0.0
C2016 C 0.74179 0.47248 0.76417 0.0
C2017 C 0.74171 0.47077 0.77486 0.0
C2018 C 0.74621 0.48144 0.76008 0.0
C2019 C 0.75068 0.48884 0.76658 0.0
C2020 C 0.74616 0.47821 0.78135 0.0
C2021 C 0.75053 0.4872 0.77725 0.0
C2022 C 0.75505 0.49853 0.76236 0.0
C2023 C 0.77572 0.47326 0.75182 0.0
C2024 C 0.77589 0.47188 0.7411 0.0
C2025 C 0.77125 0.48198 0.75607 0.0
C2026 C 0.76677 0.48949 0.74971 0.0
C2027 C 0.7715 0.47946 0.73474 0.0
C2028 C 0.76706 0.48821 0.73901 0.0
C2029 C 0.76213 0.49884 0.75414 0.0
C2030 C 0.77422 0.54371 0.75219 0.0
C2031 C 0.77494 0.54496 0.74148 0.0
C2032 C 0.76997 0.53472 0.7564 0.0
C2033 C 0.76612 0.52689 0.74998 0.0
C2034 C 0.77127 0.53705 0.73506 0.0
C2035 C 0.76692 0.52811 0.73928 0.0
C2036 C 0.7618 0.51721 0.7543 0.0
C2037 C 0.741 0.54238 0.76534 0.0
C2038 C 0.74084 0.54353 0.7761 0.0
C2039 C 0.74552 0.53377 0.76089 0.0
C2040 C 0.75008 0.52618 0.76709 0.0
C2041 C 0.74532 0.53585 0.78227 0.0
C2042 C 0.74983 0.52725 0.77781 0.0
C2043 C 0.75471 0.51688 0.76253 0.0
H2044 H 0.73847 0.46687 0.75896 0.0
H2045 H 0.74601 0.48264 0.75183 0.0
H2046 H 0.74609 0.47718 0.78962 0.0
H2047 H 0.75383 0.49287 0.78242 0.0
H2048 H 0.77897 0.46755 0.75695 0.0
H2049 H 0.77137 0.4829 0.76435 0.0
H2050 H 0.77164 0.47872 0.72645 0.0
H2051 H 0.76377 0.49395 0.73393 0.0
H2052 H 0.77718 0.54958 0.75733 0.0
H2053 H 0.76984 0.53383 0.76468 0.0
H2054 H 0.77168 0.53782 0.72678 0.0
H2055 H 0.76412 0.52214 0.73416 0.0
H2056 H 0.73745 0.54804 0.76035 0.0
H2057 H 0.74535 0.53299 0.7526 0.0
H2058 H 0.74546 0.53652 0.79056 0.0
H2059 H 0.75323 0.52146 0.78276 0.0
N2060 N 0.75167 0.50755 0.76627 0.0
N2061 N 0.76517 0.50817 0.7504 0.0
C2062 C 0.25149 0.47326 0.74196 0.0
C2063 C 0.24076 0.47164 0.7423 0.0
C2064 C 0.25593 0.48218 0.74611 0.0
C2065 C 0.24973 0.48963 0.75073 0.0
C2066 C 0.23458 0.47917 0.74682 0.0
C2067 C 0.23902 0.48809 0.75093 0.0
C2068 C 0.25427 0.49922 0.75499 0.0
C2069 C 0.26596 0.4734 0.77494 0.0
C2070 C 0.27672 0.47221 0.77469 0.0
C2071 C 0.26138 0.48217 0.77074 0.0
C2072 C 0.26746 0.48992 0.76615 0.0
C2073 C 0.28279 0.48005 0.7702 0.0
C2074 C 0.27821 0.48883 0.76604 0.0
C2075 C 0.26275 0.49937 0.76186 0.0
C2076 C 0.26403 0.54315 0.77617 0.0
C2077 C 0.27471 0.5451 0.77624 0.0
C2078 C 0.25999 0.53432 0.77149 0.0
C2079 C 0.26655 0.52728 0.76674 0.0
C2080 C 0.28126 0.53801 0.77152 0.0
C2081 C 0.27722 0.52915 0.76689 0.0
C2082 C 0.26238 0.51773 0.76205 0.0
C2083 C 0.25072 0.54393 0.74268 0.0
C2084 C 0.23994 0.54463 0.74199 0.0
C2085 C 0.25532 0.53519 0.74691 0.0
C2086 C 0.24923 0.52704 0.75075 0.0
C2087 C 0.23386 0.53639 0.74566 0.0
C2088 C 0.23846 0.52769 0.74997 0.0
C2089 C 0.25397 0.51759 0.75508 0.0
H2090 H 0.25647 0.4676 0.73856 0.0
H2091 H 0.2642 0.4833 0.74563 0.0
H2092 H 0.22628 0.47823 0.74705 0.0
H2093 H 0.23407 0.49379 0.75433 0.0
H2094 H 0.26106 0.4675 0.7783 0.0
H2095 H 0.2531 0.48293 0.77117 0.0
H2096 H 0.2911 0.47946 0.77003 0.0
H2097 H 0.28306 0.49476 0.76266 0.0
H2098 H 0.25877 0.54848 0.77969 0.0
H2099 H 0.25175 0.53293 0.77169 0.0
H2100 H 0.28953 0.53921 0.77158 0.0
H2101 H 0.28243 0.52377 0.76339 0.0
H2102 H 0.25562 0.55006 0.73975 0.0
H2103 H 0.26365 0.53475 0.74704 0.0
H2104 H 0.22553 0.53671 0.7453 0.0
H2105 H 0.23358 0.52148 0.75276 0.0
N2106 N 0.2502 0.50833 0.75191 0.0
N2107 N 0.26649 0.50862 0.76508 0.0
C2108 C 0.2414 0.47262 0.26384 0.0
C2109 C 0.24134 0.47087 0.27452 0.0
C2110 C 0.24588 0.48156 0.25977 0.0
C2111 C 0.25044 0.48891 0.2663 0.0
C2112 C 0.24589 0.47824 0.28104 0.0
C2113 C 0.25031 0.48721 0.27696 0.0
C2114 C 0.25486 0.49858 0.26209 0.0
C2115 C 0.27547 0.47332 0.25143 0.0
C2116 C 0.27566 0.47196 0.2407 0.0
C2117 C 0.27096 0.48201 0.2557 0.0
C2118 C 0.26646 0.48951 0.24935 0.0
C2119 C 0.27123 0.47953 0.23436 0.0
C2120 C 0.26675 0.48825 0.23864 0.0
C2121 C 0.26186 0.49887 0.2538 0.0
C2122 C 0.27539 0.54306 0.25239 0.0
C2123 C 0.2753 0.54492 0.24173 0.0
C2124 C 0.27087 0.53413 0.25644 0.0
C2125 C 0.26614 0.5269 0.24992 0.0
C2126 C 0.27057 0.53767 0.23521 0.0
C2127 C 0.26611 0.5287 0.23927 0.0
C2128 C 0.2617 0.51723 0.25409 0.0
C2129 C 0.24152 0.54265 0.26553 0.0
C2130 C 0.24135 0.54368 0.27629 0.0
C2131 C 0.24591 0.53403 0.26098 0.0
C2132 C 0.25032 0.52628 0.26709 0.0
C2133 C 0.24572 0.53586 0.28238 0.0
C2134 C 0.25009 0.52724 0.27783 0.0
C2135 C 0.25473 0.51693 0.26242 0.0
H2136 H 0.23801 0.46706 0.25862 0.0
H2137 H 0.24566 0.4828 0.25153 0.0
H2138 H 0.24583 0.47717 0.2893 0.0
H2139 H 0.25368 0.49283 0.28214 0.0
H2140 H 0.27876 0.46762 0.25654 0.0
H2141 H 0.27108 0.48291 0.26397 0.0
H2142 H 0.27138 0.47881 0.22607 0.0
H2143 H 0.26344 0.49399 0.23358 0.0
H2144 H 0.27894 0.54853 0.25761 0.0
H2145 H 0.27121 0.53281 0.26467 0.0
H2146 H 0.2705 0.53882 0.22696 0.0
H2147 H 0.2626 0.52317 0.23409 0.0
H2148 H 0.23805 0.54841 0.2606 0.0
H2149 H 0.24569 0.53334 0.25269 0.0
H2150 H 0.24585 0.53644 0.29068 0.0
H2151 H 0.25338 0.52134 0.28271 0.0
N2152 N 0.25163 0.50761 0.26611 0.0
N2153 N 0.26495 0.50819 0.25008 0.0
C2154 C 0.7512 0.47306 0.24188 0.0
C2155 C 0.74045 0.47147 0.24193 0.0
C2156 C 0.75558 0.48191 0.24623 0.0
C2157 C 0.74932 0.48932 0.2508 0.0
C2158 C 0.73422 0.47895 0.2465 0.0
C2159 C 0.7386 0.4878 0.25081 0.0
C2160 C 0.75378 0.49892 0.2551 0.0
C2161 C 0.76536 0.47319 0.27519 0.0
C2162 C 0.77613 0.47202 0.2751 0.0
C2163 C 0.76082 0.48195 0.27092 0.0
C2164 C 0.76693 0.48969 0.26637 0.0
C2165 C 0.78223 0.47986 0.27063 0.0
C2166 C 0.77768 0.48862 0.26638 0.0
C2167 C 0.76224 0.49912 0.262 0.0
C2168 C 0.76388 0.54346 0.27515 0.0
C2169 C 0.77462 0.54496 0.27583 0.0
C2170 C 0.75973 0.5346 0.27063 0.0
C2171 C 0.76621 0.52711 0.26651 0.0
C2172 C 0.78109 0.53738 0.27181 0.0
C2173 C 0.77693 0.52854 0.26724 0.0
C2174 C 0.76193 0.5175 0.26199 0.0
C2175 C 0.75033 0.54314 0.24168 0.0
C2176 C 0.73954 0.54415 0.24155 0.0
C2177 C 0.75491 0.53448 0.24611 0.0
C2178 C 0.74882 0.52668 0.25058 0.0
C2179 C 0.73347 0.53627 0.24597 0.0
C2180 C 0.73806 0.52761 0.25037 0.0
C2181 C 0.75352 0.51729 0.25503 0.0
H2182 H 0.75623 0.46758 0.23826 0.0
H2183 H 0.76385 0.48304 0.24585 0.0
H2184 H 0.72593 0.47793 0.24681 0.0
H2185 H 0.73361 0.49343 0.25424 0.0
H2186 H 0.76043 0.46743 0.27875 0.0
H2187 H 0.75253 0.48272 0.2713 0.0
H2188 H 0.79053 0.47918 0.27031 0.0
H2189 H 0.78256 0.49452 0.26299 0.0
H2190 H 0.75865 0.54915 0.27809 0.0
H2191 H 0.75144 0.53356 0.27049 0.0
H2192 H 0.78939 0.53816 0.27237 0.0
H2193 H 0.7821 0.5228 0.26427 0.0
H2194 H 0.75524 0.54895 0.23818 0.0
H2195 H 0.76322 0.53381 0.2459 0.0
H2196 H 0.72515 0.53683 0.24613 0.0
H2197 H 0.73319 0.52167 0.25371 0.0
N2198 N 0.74974 0.50801 0.25194 0.0
N2199 N 0.76601 0.5084 0.26513 0.0
C2200 C 0.54377 0.25268 0.74031 0.0
C2201 C 0.54503 0.24196 0.74011 0.0
C2202 C 0.53507 0.25697 0.74483 0.0
C2203 C 0.52746 0.25064 0.7493 0.0
C2204 C 0.53738 0.23563 0.74457 0.0
C2205 C 0.52865 0.23993 0.74904 0.0
C2206 C 0.518 0.25508 0.75376 0.0
C2207 C 0.54387 0.26525 0.77465 0.0
C2208 C 0.54561 0.27594 0.77477 0.0
C2209 C 0.53505 0.26112 0.76997 0.0
C2210 C 0.5278 0.2676 0.76527 0.0
C2211 C 0.53836 0.2824 0.77004 0.0
C2212 C 0.5295 0.27827 0.76541 0.0
C2213 C 0.51818 0.26335 0.76076 0.0
C2214 C 0.47396 0.26561 0.77418 0.0
C2215 C 0.47256 0.27631 0.77433 0.0
C2216 C 0.48276 0.26142 0.76976 0.0
C2217 C 0.49032 0.26783 0.76532 0.0
C2218 C 0.48019 0.28272 0.76997 0.0
C2219 C 0.48901 0.27852 0.76558 0.0
C2220 C 0.49978 0.26347 0.7608 0.0
C2221 C 0.47366 0.25337 0.74035 0.0
C2222 C 0.47181 0.2427 0.74041 0.0
C2223 C 0.48265 0.25746 0.74473 0.0
C2224 C 0.48996 0.25096 0.7493 0.0
C2225 C 0.47917 0.23621 0.74493 0.0
C2226 C 0.4882 0.2403 0.74926 0.0
C2227 C 0.4996 0.25521 0.75378 0.0
H2228 H 0.54953 0.25777 0.73699 0.0
H2229 H 0.53422 0.26524 0.74469 0.0
H2230 H 0.53804 0.22735 0.74442 0.0
H2231 H 0.52283 0.23488 0.75233 0.0
H2232 H 0.54934 0.26007 0.77819 0.0
H2233 H 0.5338 0.25288 0.77017 0.0
H2234 H 0.53942 0.29067 0.77012 0.0
H2235 H 0.52395 0.28342 0.76194 0.0
H2236 H 0.46822 0.26045 0.77742 0.0
H2237 H 0.48369 0.25316 0.7699 0.0
H2238 H 0.47942 0.291 0.77009 0.0
H2239 H 0.49479 0.28363 0.76232 0.0
H2240 H 0.46811 0.25857 0.73697 0.0
H2241 H 0.48394 0.26569 0.74446 0.0
H2242 H 0.47803 0.22795 0.74497 0.0
H2243 H 0.49379 0.23514 0.75264 0.0
N2244 N 0.50871 0.2513 0.75058 0.0
N2245 N 0.50907 0.26725 0.76397 0.0
C2246 C 0.47248 0.76641 0.74336 0.0
C2247 C 0.4716 0.77716 0.74284 0.0
C2248 C 0.48119 0.7619 0.74778 0.0
C2249 C 0.48912 0.76804 0.75198 0.0
C2250 C 0.47963 0.7833 0.74688 0.0
C2251 C 0.4883 0.77878 0.75137 0.0
C2252 C 0.49854 0.76338 0.75647 0.0
C2253 C 0.47225 0.75245 0.77637 0.0
C2254 C 0.4705 0.74177 0.77601 0.0
C2255 C 0.48126 0.75678 0.77226 0.0
C2256 C 0.48867 0.75051 0.76767 0.0
C2257 C 0.47801 0.73551 0.77153 0.0
C2258 C 0.48703 0.73984 0.76748 0.0
C2259 C 0.49832 0.75494 0.76338 0.0
C2260 C 0.54281 0.7509 0.77623 0.0
C2261 C 0.5437 0.74012 0.77623 0.0
C2262 C 0.53411 0.75562 0.77201 0.0
C2263 C 0.52614 0.74967 0.76762 0.0
C2264 C 0.53566 0.73421 0.77188 0.0
C2265 C 0.52696 0.73893 0.76769 0.0
C2266 C 0.51673 0.75452 0.76336 0.0
C2267 C 0.54265 0.76466 0.74271 0.0
C2268 C 0.5446 0.77532 0.74268 0.0
C2269 C 0.53374 0.76062 0.74725 0.0
C2270 C 0.52661 0.76713 0.75193 0.0
C2271 C 0.53742 0.78183 0.74731 0.0
C2272 C 0.52848 0.77778 0.75182 0.0
C2273 C 0.51696 0.76296 0.75646 0.0
H2274 H 0.46654 0.76147 0.74012 0.0
H2275 H 0.48178 0.75361 0.74776 0.0
H2276 H 0.47916 0.7916 0.74665 0.0
H2277 H 0.49436 0.7837 0.75444 0.0
H2278 H 0.46661 0.75748 0.77973 0.0
H2279 H 0.48246 0.76502 0.77271 0.0
H2280 H 0.47697 0.72725 0.77128 0.0
H2281 H 0.49269 0.73485 0.76409 0.0
H2282 H 0.54875 0.75569 0.77968 0.0
H2283 H 0.53354 0.76391 0.77233 0.0
H2284 H 0.53612 0.72591 0.77161 0.0
H2285 H 0.52089 0.73417 0.7644 0.0
H2286 H 0.54805 0.75942 0.73926 0.0
H2287 H 0.53235 0.7524 0.74699 0.0
H2288 H 0.53862 0.79008 0.74728 0.0
H2289 H 0.52303 0.78297 0.75526 0.0
N2290 N 0.50787 0.76709 0.75334 0.0
N2291 N 0.50741 0.75082 0.76649 0.0
C2292 C 0.47349 0.77634 0.26404 0.0
C2293 C 0.47204 0.77616 0.27476 0.0
C2294 C 0.48227 0.77202 0.25969 0.0
C2295 C 0.48974 0.76732 0.26595 0.0
C2296 C 0.47961 0.77156 0.28101 0.0
C2297 C 0.48838 0.76725 0.27665 0.0
C2298 C 0.49919 0.76288 0.26147 0.0
C2299 C 0.47284 0.74338 0.24981 0.0
C2300 C 0.47138 0.74393 0.2391 0.0
C2301 C 0.48179 0.74741 0.25435 0.0
C2302 C 0.48943 0.75211 0.24826 0.0
C2303 C 0.4791 0.74855 0.23303 0.0
C2304 C 0.48807 0.75253 0.23756 0.0
C2305 C 0.49905 0.7562 0.25293 0.0
C2306 C 0.54331 0.74264 0.25041 0.0
C2307 C 0.54457 0.74258 0.23966 0.0
C2308 C 0.53455 0.74692 0.25482 0.0
C2309 C 0.52691 0.75141 0.2486 0.0
C2310 C 0.5368 0.7469 0.23346 0.0
C2311 C 0.52806 0.75122 0.23788 0.0
C2312 C 0.51746 0.75583 0.25313 0.0
C2313 C 0.54384 0.77523 0.26504 0.0
C2314 C 0.54524 0.77455 0.27575 0.0
C2315 C 0.53489 0.77128 0.26042 0.0
C2316 C 0.5272 0.76654 0.26642 0.0
C2317 C 0.53746 0.76991 0.28174 0.0
C2318 C 0.5285 0.76602 0.27712 0.0
C2319 C 0.51759 0.7625 0.26168 0.0
H2320 H 0.46793 0.77999 0.25902 0.0
H2321 H 0.48327 0.77248 0.25144 0.0
H2322 H 0.47871 0.77119 0.28927 0.0
H2323 H 0.49407 0.76374 0.28164 0.0
H2324 H 0.46702 0.7399 0.2547 0.0
H2325 H 0.48277 0.74677 0.2626 0.0
H2326 H 0.47828 0.74895 0.22474 0.0
H2327 H 0.49392 0.75601 0.23271 0.0
H2328 H 0.54914 0.73944 0.25544 0.0
H2329 H 0.53372 0.74664 0.2631 0.0
H2330 H 0.53739 0.74681 0.22516 0.0
H2331 H 0.52221 0.75447 0.2329 0.0
H2332 H 0.5497 0.77874 0.26022 0.0
H2333 H 0.53395 0.772 0.25216 0.0
H2334 H 0.53824 0.76942 0.29002 0.0
H2335 H 0.52261 0.76251 0.28191 0.0
N2336 N 0.50846 0.76571 0.26554 0.0
N2337 N 0.50818 0.753 0.24906 0.0
C2338 C 0.47285 0.26641 0.24276 0.0
C2339 C 0.47151 0.27713 0.24269 0.0
C2340 C 0.48152 0.26207 0.24742 0.0
C2341 C 0.48901 0.26834 0.25218 0.0
C2342 C 0.47904 0.28339 0.24743 0.0
C2343 C 0.48774 0.27904 0.25206 0.0
C2344 C 0.49844 0.26383 0.25677 0.0
C2345 C 0.472 0.25263 0.27633 0.0
C2346 C 0.47046 0.24191 0.27613 0.0
C2347 C 0.48098 0.25706 0.27225 0.0
C2348 C 0.48856 0.25087 0.26785 0.0
C2349 C 0.47812 0.23574 0.2718 0.0
C2350 C 0.4871 0.24017 0.26778 0.0
C2351 C 0.49822 0.2554 0.26368 0.0
C2352 C 0.54309 0.25129 0.27587 0.0
C2353 C 0.54373 0.2405 0.27626 0.0
C2354 C 0.53432 0.25606 0.27184 0.0
C2355 C 0.52606 0.25015 0.26794 0.0
C2356 C 0.53534 0.23462 0.27256 0.0
C2357 C 0.52661 0.23939 0.26848 0.0
C2358 C 0.51664 0.25504 0.26371 0.0
C2359 C 0.5424 0.26496 0.24274 0.0
C2360 C 0.54446 0.2756 0.24276 0.0
C2361 C 0.53348 0.26099 0.24734 0.0
C2362 C 0.52647 0.26756 0.25212 0.0
C2363 C 0.53739 0.28217 0.24748 0.0
C2364 C 0.52844 0.27819 0.25204 0.0
C2365 C 0.51685 0.26345 0.25676 0.0
H2366 H 0.46718 0.26137 0.23922 0.0
H2367 H 0.48244 0.25381 0.24717 0.0
H2368 H 0.47832 0.29167 0.24739 0.0
H2369 H 0.49348 0.28403 0.25556 0.0
H2370 H 0.46624 0.2576 0.27958 0.0
H2371 H 0.48203 0.26532 0.27262 0.0
H2372 H 0.47725 0.22745 0.27168 0.0
H2373 H 0.49289 0.23523 0.26453 0.0
H2374 H 0.5494 0.25607 0.27861 0.0
H2375 H 0.534 0.26437 0.27184 0.0
H2376 H 0.53545 0.2263 0.27292 0.0
H2377 H 0.52029 0.23465 0.26567 0.0
H2378 H 0.54771 0.25969 0.23922 0.0
H2379 H 0.53201 0.25278 0.24707 0.0
H2380 H 0.53868 0.29041 0.24749 0.0
H2381 H 0.52308 0.28341 0.25556 0.0
N2382 N 0.50775 0.26755 0.25363 0.0
N2383 N 0.50732 0.25132 0.26683 0.0
C2384 C 0.21227 0.20261 0.12615 0.0
C2385 C 0.2031 0.19677 0.12572 0.0
C2386 C 0.21598 0.20772 0.11741 0.0
C2387 C 0.21466 0.20717 0.0891 0.0
H2388 H 0.22637 0.23464 0.09104 0.0
C2389 C 0.22755 0.23009 0.05308 0.0
C2390 C 0.2367 0.23594 0.05382 0.0
C2391 C 0.22315 0.22557 0.06184 0.0
C2392 C 0.22324 0.22692 0.09038 0.0
H2393 H 0.1906 0.19177 0.11574 0.0
H2394 H 0.19703 0.20076 0.10049 0.0
H2395 H 0.21919 0.22637 0.10632 0.0
H2396 H 0.24831 0.24174 0.06443 0.0
H2397 H 0.24081 0.23366 0.07963 0.0
H2398 H 0.21882 0.20764 0.07321 0.0
C2399 C 0.2014 0.20133 0.10759 0.0
C2400 C 0.2191 0.22219 0.09914 0.0
C2401 C 0.19765 0.19626 0.11635 0.0
C2402 C 0.24132 0.23719 0.06355 0.0
C2403 C 0.23694 0.23266 0.0723 0.0
C2404 C 0.21883 0.21188 0.08034 0.0
C2405 C 0.21063 0.20708 0.108 0.0
C2406 C 0.21479 0.21224 0.09862 0.0
C2407 C 0.2278 0.22677 0.07156 0.0
C2408 C 0.22321 0.22181 0.08087 0.0
H2409 H 0.2166 0.20325 0.13327 0.0
H2410 H 0.22316 0.21201 0.11798 0.0
H2411 H 0.21154 0.19944 0.08846 0.0
H2412 H 0.22383 0.22886 0.04571 0.0
H2413 H 0.21606 0.2212 0.06098 0.0
C2414 C 0.81676 0.19644 0.11804 0.0
C2415 C 0.81109 0.19629 0.12721 0.0
C2416 C 0.81308 0.20168 0.10937 0.0
C2417 C 0.78899 0.2119 0.09808 0.0
H2418 H 0.80771 0.22643 0.0798 0.0
C2419 C 0.77577 0.22712 0.05852 0.0
C2420 C 0.77963 0.23672 0.05523 0.0
C2421 C 0.77974 0.22238 0.06733 0.0
C2422 C 0.80236 0.22249 0.08487 0.0
H2423 H 0.79729 0.2018 0.1346 0.0
H2424 H 0.79093 0.21105 0.11955 0.0
H2425 H 0.81441 0.21818 0.09529 0.0
H2426 H 0.79063 0.2489 0.05865 0.0
H2427 H 0.79749 0.24069 0.07412 0.0
H2428 H 0.77691 0.21643 0.08783 0.0
C2429 C 0.7981 0.20692 0.11895 0.0
C2430 C 0.80622 0.21764 0.09369 0.0
C2431 C 0.80175 0.20163 0.12759 0.0
C2432 C 0.78758 0.24145 0.06093 0.0
C2433 C 0.79152 0.23673 0.06979 0.0
C2434 C 0.78513 0.21678 0.08929 0.0
C2435 C 0.80367 0.20694 0.1097 0.0
C2436 C 0.79958 0.21226 0.10039 0.0
C2437 C 0.78764 0.22713 0.0731 0.0
C2438 C 0.79176 0.2221 0.08255 0.0
H2439 H 0.82393 0.19231 0.11748 0.0
H2440 H 0.81751 0.2014 0.10234 0.0
H2441 H 0.78366 0.20773 0.10298 0.0
H2442 H 0.76977 0.2232 0.05419 0.0
H2443 H 0.7767 0.2149 0.06953 0.0
C2444 C 0.81871 0.81964 0.1163 0.0
C2445 C 0.81304 0.81924 0.12548 0.0
C2446 C 0.81523 0.81442 0.10754 0.0
C2447 C 0.79786 0.79331 0.09904 0.0
H2448 H 0.79873 0.80742 0.07271 0.0
C2449 C 0.77646 0.77769 0.06317 0.0
C2450 C 0.78125 0.77879 0.05355 0.0
C2451 C 0.78067 0.78235 0.07193 0.0
C2452 C 0.79856 0.80329 0.07997 0.0
H2453 H 0.79939 0.81279 0.13271 0.0
H2454 H 0.79327 0.80376 0.11742 0.0
H2455 H 0.80559 0.81591 0.08798 0.0
H2456 H 0.79428 0.78575 0.04564 0.0
H2457 H 0.80176 0.79366 0.06093 0.0
H2458 H 0.79084 0.78069 0.09104 0.0
C2459 C 0.80044 0.80809 0.117 0.0
C2460 C 0.80249 0.80818 0.08873 0.0
C2461 C 0.80389 0.81335 0.12573 0.0
C2462 C 0.79042 0.78463 0.05293 0.0
C2463 C 0.79465 0.78929 0.06169 0.0
C2464 C 0.79397 0.78841 0.09027 0.0
C2465 C 0.80602 0.80861 0.10777 0.0
C2466 C 0.80214 0.80327 0.09839 0.0
C2467 C 0.78981 0.78824 0.07131 0.0
C2468 C 0.7942 0.79336 0.08062 0.0
H2469 H 0.82575 0.82417 0.11582 0.0
H2470 H 0.81977 0.81491 0.10059 0.0
H2471 H 0.79761 0.78925 0.10633 0.0
H2472 H 0.76946 0.77315 0.06397 0.0
H2473 H 0.77666 0.78147 0.07917 0.0
C2474 C 0.19891 0.81338 0.12095 0.0
C2475 C 0.20445 0.82155 0.1255 0.0
C2476 C 0.20286 0.80824 0.11243 0.0
C2477 C 0.2273 0.8038 0.09843 0.0
H2478 H 0.20905 0.7954 0.07624 0.0
C2479 C 0.24245 0.79018 0.05919 0.0
C2480 C 0.23762 0.78154 0.05474 0.0
C2481 C 0.23833 0.79478 0.06792 0.0
C2482 C 0.21423 0.7976 0.08242 0.0
H2483 H 0.21858 0.83059 0.12466 0.0
H2484 H 0.22527 0.82189 0.10966 0.0
H2485 H 0.20199 0.80396 0.09124 0.0
H2486 H 0.22467 0.77094 0.0561 0.0
H2487 H 0.21741 0.77907 0.07125 0.0
H2488 H 0.23955 0.79757 0.08952 0.0
C2489 C 0.21794 0.81933 0.11276 0.0
C2490 C 0.21019 0.8025 0.09104 0.0
C2491 C 0.21402 0.82444 0.12129 0.0
C2492 C 0.22852 0.77767 0.05922 0.0
C2493 C 0.22436 0.78231 0.06792 0.0
C2494 C 0.23135 0.79897 0.08979 0.0
C2495 C 0.21244 0.81115 0.10823 0.0
C2496 C 0.21668 0.80571 0.09914 0.0
C2497 C 0.22923 0.79091 0.07239 0.0
C2498 C 0.22487 0.79585 0.08167 0.0
H2499 H 0.19147 0.81101 0.12391 0.0
H2500 H 0.19845 0.80191 0.10922 0.0
H2501 H 0.23252 0.80597 0.10459 0.0
H2502 H 0.24936 0.79351 0.05585 0.0
H2503 H 0.24218 0.8015 0.07108 0.0
C2504 C 0.21498 0.81585 0.89092 0.0
C2505 C 0.20555 0.82105 0.89116 0.0
C2506 C 0.21862 0.81067 0.89963 0.0
C2507 C 0.21651 0.81014 0.92779 0.0
H2508 H 0.22851 0.7831 0.92545 0.0
C2509 C 0.22847 0.78656 0.96354 0.0
C2510 C 0.23767 0.78099 0.963 0.0
C2511 C 0.2243 0.79118 0.95475 0.0
C2512 C 0.2253 0.7907 0.92623 0.0
H2513 H 0.19256 0.82492 0.90075 0.0
H2514 H 0.19891 0.81584 0.91597 0.0
H2515 H 0.22172 0.79165 0.91015 0.0
H2516 H 0.24962 0.77579 0.95271 0.0
H2517 H 0.24253 0.78411 0.93746 0.0
H2518 H 0.22021 0.8093 0.94381 0.0
C2519 C 0.20349 0.8158 0.90904 0.0
C2520 C 0.22138 0.79559 0.91746 0.0
C2521 C 0.19982 0.82092 0.9003 0.0
C2522 C 0.24258 0.78013 0.95344 0.0
C2523 C 0.23844 0.78479 0.94465 0.0
C2524 C 0.22047 0.80529 0.93655 0.0
C2525 C 0.21295 0.81064 0.90881 0.0
C2526 C 0.21696 0.80537 0.91814 0.0
C2527 C 0.22926 0.7904 0.9452 0.0
C2528 C 0.22493 0.79551 0.93588 0.0
H2529 H 0.21953 0.81574 0.88396 0.0
H2530 H 0.22597 0.80684 0.89923 0.0
H2531 H 0.21328 0.81774 0.92854 0.0
H2532 H 0.22454 0.78749 0.97079 0.0
H2533 H 0.21715 0.79533 0.95545 0.0
C2534 C 0.20522 0.20497 0.89097 0.0
C2535 C 0.19547 0.20026 0.892 0.0
C2536 C 0.21042 0.20891 0.89957 0.0
C2537 C 0.20569 0.21789 0.92612 0.0
H2538 H 0.2354 0.21621 0.92872 0.0
C2539 C 0.22809 0.24055 0.95717 0.0
C2540 C 0.23633 0.23563 0.96216 0.0
C2541 C 0.22334 0.23611 0.94857 0.0
C2542 C 0.22709 0.21667 0.92816 0.0
H2543 H 0.18373 0.19567 0.90294 0.0
H2544 H 0.19283 0.20242 0.91794 0.0
H2545 H 0.22672 0.20827 0.91405 0.0
H2546 H 0.24602 0.22217 0.962 0.0
H2547 H 0.23769 0.21439 0.94704 0.0
H2548 H 0.20601 0.22607 0.94033 0.0
C2549 C 0.19636 0.2033 0.91046 0.0
C2550 C 0.22212 0.21222 0.91968 0.0
C2551 C 0.19115 0.1994 0.90186 0.0
C2552 C 0.23977 0.22622 0.95827 0.0
C2553 C 0.235 0.22176 0.94968 0.0
C2554 C 0.21065 0.22231 0.9346 0.0
C2555 C 0.20602 0.20821 0.90942 0.0
C2556 C 0.21135 0.21279 0.91853 0.0
C2557 C 0.22668 0.22663 0.94475 0.0
C2558 C 0.22142 0.2218 0.93573 0.0
H2559 H 0.20871 0.20587 0.88347 0.0
H2560 H 0.21778 0.21276 0.89844 0.0
H2561 H 0.19741 0.2186 0.92544 0.0
H2562 H 0.22536 0.24789 0.95987 0.0
H2563 H 0.2171 0.24019 0.94486 0.0
C2564 C 0.82469 0.20317 0.90261 0.0
C2565 C 0.8202 0.20385 0.89278 0.0
C2566 C 0.81959 0.20698 0.91122 0.0
C2567 C 0.79987 0.2256 0.91868 0.0
H2568 H 0.79975 0.21043 0.94443 0.0
C2569 C 0.77671 0.23914 0.95391 0.0
C2570 C 0.78134 0.23805 0.96366 0.0
C2571 C 0.78114 0.23473 0.94522 0.0
C2572 C 0.79981 0.21483 0.93734 0.0
H2573 H 0.8068 0.20906 0.88427 0.0
H2574 H 0.79787 0.21566 0.89931 0.0
H2575 H 0.80802 0.20312 0.9294 0.0
H2576 H 0.79421 0.23129 0.97188 0.0
H2577 H 0.80208 0.22389 0.95672 0.0
H2578 H 0.79181 0.23738 0.92663 0.0
C2579 C 0.80537 0.21222 0.90035 0.0
C2580 C 0.80454 0.21062 0.92871 0.0
C2581 C 0.81044 0.20834 0.89175 0.0
C2582 C 0.7905 0.23241 0.96448 0.0
C2583 C 0.79494 0.22803 0.9558 0.0
C2584 C 0.79519 0.22983 0.92732 0.0
C2585 C 0.80991 0.21162 0.91018 0.0
C2586 C 0.80465 0.21597 0.91929 0.0
C2587 C 0.79032 0.22913 0.94604 0.0
C2588 C 0.79513 0.22452 0.93678 0.0
H2589 H 0.83216 0.19967 0.90367 0.0
H2590 H 0.82334 0.20647 0.91866 0.0
H2591 H 0.79995 0.22998 0.91158 0.0
H2592 H 0.76971 0.24351 0.95296 0.0
H2593 H 0.7773 0.23564 0.93786 0.0
C2594 C 0.80946 0.8109 0.89005 0.0
C2595 C 0.81489 0.82025 0.89112 0.0
C2596 C 0.80564 0.80569 0.8987 0.0
C2597 C 0.79864 0.81001 0.92597 0.0
H2598 H 0.79827 0.78024 0.92735 0.0
C2599 C 0.77634 0.78802 0.95761 0.0
C2600 C 0.78084 0.77915 0.96186 0.0
C2601 C 0.78063 0.79284 0.94898 0.0
C2602 C 0.7984 0.78856 0.92714 0.0
H2603 H 0.82088 0.83126 0.90214 0.0
H2604 H 0.81437 0.82213 0.91722 0.0
H2605 H 0.8059 0.7889 0.91252 0.0
H2606 H 0.79334 0.76837 0.96019 0.0
H2607 H 0.80097 0.77695 0.94532 0.0
H2608 H 0.79139 0.8097 0.94069 0.0
C2609 C 0.81282 0.81893 0.90969 0.0
C2610 C 0.80266 0.79353 0.91856 0.0
C2611 C 0.81658 0.82416 0.90104 0.0
C2612 C 0.78973 0.77524 0.95721 0.0
C2613 C 0.79404 0.7801 0.94859 0.0
C2614 C 0.79442 0.80504 0.93455 0.0
C2615 C 0.8072 0.80967 0.90864 0.0
C2616 C 0.80282 0.80433 0.91784 0.0
C2617 C 0.78956 0.78898 0.94437 0.0
C2618 C 0.7942 0.79425 0.93525 0.0
H2619 H 0.80792 0.80774 0.88251 0.0
H2620 H 0.80124 0.79867 0.89757 0.0
H2621 H 0.7985 0.81833 0.92565 0.0
H2622 H 0.76957 0.79133 0.96104 0.0
H2623 H 0.77688 0.79958 0.94588 0.0
C2624 C 0.11384 0.20179 0.19045 0.0
C2625 C 0.12372 0.20243 0.19493 0.0
C2626 C 0.10529 0.20577 0.1955 0.0
C2627 C 0.0961 0.21441 0.22104 0.0
H2628 H 0.07575 0.22883 0.20467 0.0
C2629 C 0.05764 0.22856 0.23813 0.0
C2630 C 0.05395 0.23811 0.23472 0.0
C2631 C 0.06616 0.22407 0.23344 0.0
C2632 C 0.0814 0.22491 0.20938 0.0
H2633 H 0.13231 0.20773 0.20825 0.0
H2634 H 0.11741 0.21475 0.21703 0.0
H2635 H 0.09057 0.2213 0.1963 0.0
H2636 H 0.05652 0.25057 0.22385 0.0
H2637 H 0.0714 0.24281 0.21574 0.0
H2638 H 0.08705 0.21828 0.23416 0.0
C2639 C 0.11624 0.21102 0.20969 0.0
C2640 C 0.08984 0.22045 0.20456 0.0
C2641 C 0.12479 0.207 0.20465 0.0
C2642 C 0.05905 0.24312 0.22657 0.0
C2643 C 0.06758 0.23866 0.2219 0.0
C2644 C 0.08766 0.21889 0.22588 0.0
C2645 C 0.10638 0.21053 0.20514 0.0
C2646 C 0.09731 0.21515 0.21032 0.0
C2647 C 0.07123 0.22905 0.22524 0.0
C2648 C 0.0802 0.22422 0.22011 0.0
H2649 H 0.11272 0.19816 0.18305 0.0
H2650 H 0.09779 0.20506 0.19186 0.0
H2651 H 0.10164 0.2103 0.22572 0.0
H2652 H 0.05381 0.22442 0.2443 0.0
H2653 H 0.06865 0.2166 0.23613 0.0
C2654 C 0.81418 0.12748 0.21524 0.0
C2655 C 0.8195 0.1272 0.20587 0.0
C2656 C 0.80891 0.11879 0.21889 0.0
C2657 C 0.79814 0.09354 0.21064 0.0
H2658 H 0.79931 0.08734 0.23983 0.0
C2659 C 0.7848 0.05452 0.22785 0.0
C2660 C 0.77912 0.05476 0.23702 0.0
C2661 C 0.78937 0.06347 0.22389 0.0
C2662 C 0.79881 0.08903 0.23167 0.0
H2663 H 0.82351 0.11755 0.193 0.0
H2664 H 0.81445 0.10232 0.19942 0.0
H2665 H 0.80798 0.10269 0.23322 0.0
H2666 H 0.77357 0.06473 0.24907 0.0
H2667 H 0.78165 0.08032 0.24222 0.0
H2668 H 0.78909 0.07975 0.20912 0.0
C2669 C 0.81416 0.10932 0.20386 0.0
C2670 C 0.80377 0.09784 0.22788 0.0
C2671 C 0.81938 0.11804 0.20019 0.0
C2672 C 0.77805 0.06421 0.24209 0.0
C2673 C 0.78266 0.07316 0.23816 0.0
C2674 C 0.79323 0.08469 0.21444 0.0
C2675 C 0.80888 0.10957 0.21328 0.0
C2676 C 0.8035 0.10022 0.21732 0.0
C2677 C 0.7884 0.07288 0.22904 0.0
C2678 C 0.79351 0.08234 0.22499 0.0
H2679 H 0.814 0.13448 0.21972 0.0
H2680 H 0.80477 0.11932 0.22608 0.0
H2681 H 0.79762 0.09521 0.20249 0.0
H2682 H 0.78593 0.04735 0.22383 0.0
H2683 H 0.79386 0.06298 0.21692 0.0
C2684 C 0.90163 0.81649 0.192 0.0
C2685 C 0.89173 0.81549 0.19625 0.0
C2686 C 0.91025 0.81268 0.19721 0.0
C2687 C 0.91942 0.80376 0.22286 0.0
H2688 H 0.94028 0.7902 0.20676 0.0
C2689 C 0.9581 0.79017 0.24054 0.0
C2690 C 0.96206 0.78079 0.23707 0.0
C2691 C 0.94949 0.79454 0.23576 0.0
C2692 C 0.93449 0.79388 0.2114 0.0
H2693 H 0.88315 0.8097 0.20936 0.0
H2694 H 0.89816 0.80296 0.21841 0.0
H2695 H 0.92536 0.79754 0.19817 0.0
H2696 H 0.95986 0.76853 0.22603 0.0
H2697 H 0.94484 0.77609 0.21775 0.0
H2698 H 0.92845 0.79984 0.23612 0.0
C2699 C 0.8993 0.80685 0.21112 0.0
C2700 C 0.92599 0.79823 0.20645 0.0
C2701 C 0.89068 0.81071 0.20593 0.0
C2702 C 0.95712 0.77584 0.22879 0.0
C2703 C 0.94851 0.7802 0.22403 0.0
C2704 C 0.92793 0.79939 0.22782 0.0
C2705 C 0.90919 0.8077 0.20679 0.0
C2706 C 0.91832 0.80322 0.2121 0.0
C2707 C 0.94461 0.78964 0.22741 0.0
C2708 C 0.93557 0.79437 0.22215 0.0
H2709 H 0.90273 0.82028 0.18464 0.0
H2710 H 0.91776 0.81366 0.19373 0.0
H2711 H 0.91373 0.80763 0.22746 0.0
H2712 H 0.96179 0.79425 0.24682 0.0
H2713 H 0.9468 0.80189 0.23848 0.0
C2714 C 0.19197 0.89583 0.21293 0.0
C2715 C 0.19628 0.88993 0.20504 0.0
C2716 C 0.19701 0.90466 0.21653 0.0
C2717 C 0.22257 0.91774 0.2173 0.0
H2718 H 0.20631 0.94133 0.22481 0.0
C2719 C 0.24006 0.95261 0.23901 0.0
C2720 C 0.23639 0.96244 0.23649 0.0
C2721 C 0.23539 0.94381 0.23485 0.0
C2722 C 0.211 0.93486 0.22265 0.0
H2723 H 0.20937 0.88873 0.19483 0.0
H2724 H 0.218 0.9043 0.2009 0.0
H2725 H 0.19778 0.92611 0.21794 0.0
H2726 H 0.22516 0.97074 0.22736 0.0
H2727 H 0.21712 0.95543 0.22001 0.0
H2728 H 0.23582 0.92662 0.22176 0.0
C2729 C 0.21079 0.902 0.20441 0.0
C2730 C 0.20608 0.92606 0.21884 0.0
C2731 C 0.20576 0.89313 0.20083 0.0
C2732 C 0.22806 0.96327 0.22959 0.0
C2733 C 0.22344 0.95448 0.22539 0.0
C2734 C 0.2275 0.92657 0.22107 0.0
C2735 C 0.20647 0.90789 0.21231 0.0
C2736 C 0.21178 0.91735 0.21616 0.0
C2737 C 0.22697 0.94462 0.22803 0.0
C2738 C 0.22178 0.93525 0.22384 0.0
H2739 H 0.18462 0.8937 0.21627 0.0
H2740 H 0.19351 0.90891 0.22272 0.0
H2741 H 0.22721 0.91115 0.21541 0.0
H2742 H 0.24639 0.95172 0.24438 0.0
H2743 H 0.23823 0.93635 0.23719 0.0
C2744 C 0.12006 0.80348 0.82716 0.0
C2745 C 0.12617 0.81139 0.82288 0.0
C2746 C 0.11131 0.79981 0.822 0.0
C2747 C 0.09896 0.79899 0.79621 0.0
H2748 H 0.07477 0.79106 0.81188 0.0
C2749 C 0.05975 0.78808 0.77737 0.0
C2750 C 0.0547 0.77931 0.78136 0.0
C2751 C 0.06849 0.79216 0.78227 0.0
C2752 C 0.0815 0.79317 0.80741 0.0
H2753 H 0.12781 0.82162 0.80974 0.0
H2754 H 0.11235 0.81547 0.80091 0.0
H2755 H 0.08984 0.79807 0.82076 0.0
H2756 H 0.0551 0.76783 0.79354 0.0
H2757 H 0.0702 0.77508 0.80216 0.0
H2758 H 0.0905 0.79419 0.78284 0.0
C2759 C 0.11444 0.81197 0.80819 0.0
C2760 C 0.09015 0.79717 0.81249 0.0
C2761 C 0.12324 0.81559 0.81333 0.0
C2762 C 0.05865 0.7747 0.79035 0.0
C2763 C 0.06732 0.77884 0.79529 0.0
C2764 C 0.09026 0.79507 0.79111 0.0
C2765 C 0.10837 0.80401 0.81246 0.0
C2766 C 0.09903 0.80005 0.80697 0.0
C2767 C 0.07232 0.78762 0.79132 0.0
C2768 C 0.08147 0.79204 0.79667 0.0
H2769 H 0.12199 0.80015 0.83457 0.0
H2770 H 0.10692 0.79359 0.82547 0.0
H2771 H 0.1057 0.80099 0.79172 0.0
H2772 H 0.05685 0.79192 0.77056 0.0
H2773 H 0.07212 0.799 0.7791 0.0
C2774 C 0.20646 0.12403 0.81124 0.0
C2775 C 0.2015 0.12292 0.82077 0.0
C2776 C 0.21041 0.11547 0.80619 0.0
C2777 C 0.21883 0.08875 0.8112 0.0
H2778 H 0.2174 0.08632 0.78152 0.0
C2779 C 0.23058 0.05169 0.79027 0.0
C2780 C 0.23639 0.0528 0.78123 0.0
C2781 C 0.22613 0.06023 0.7949 0.0
C2782 C 0.21795 0.08693 0.78981 0.0
H2783 H 0.19644 0.11186 0.83226 0.0
H2784 H 0.2032 0.09693 0.82343 0.0
H2785 H 0.20982 0.10117 0.78988 0.0
H2786 H 0.2421 0.06384 0.77 0.0
H2787 H 0.23429 0.07873 0.77806 0.0
H2788 H 0.22693 0.07451 0.81114 0.0
C2789 C 0.20428 0.10445 0.81996 0.0
C2790 C 0.21361 0.09545 0.79461 0.0
C2791 C 0.20038 0.11301 0.82502 0.0
C2792 C 0.23756 0.06267 0.77688 0.0
C2793 C 0.23308 0.07121 0.78151 0.0
C2794 C 0.22314 0.08023 0.80641 0.0
C2795 C 0.20945 0.10557 0.81053 0.0
C2796 C 0.21399 0.09647 0.80537 0.0
C2797 C 0.22735 0.0701 0.7906 0.0
C2798 C 0.22275 0.0792 0.79566 0.0
H2799 H 0.20756 0.13157 0.80781 0.0
H2800 H 0.21445 0.11665 0.799 0.0
H2801 H 0.21946 0.08936 0.81948 0.0
H2802 H 0.22934 0.04419 0.79373 0.0
H2803 H 0.22162 0.05907 0.80181 0.0
C2804 C 0.89829 0.19784 0.81918 0.0
C2805 C 0.88897 0.19798 0.81363 0.0
C2806 C 0.90702 0.20306 0.81547 0.0
C2807 C 0.91805 0.21382 0.7914 0.0
H2808 H 0.93693 0.2278 0.80997 0.0
C2809 C 0.95164 0.23932 0.77669 0.0
C2810 C 0.96123 0.23822 0.78164 0.0
C2811 C 0.94276 0.23471 0.78076 0.0
C2812 C 0.93178 0.22386 0.8047 0.0
H2813 H 0.88142 0.204 0.8 0.0
H2814 H 0.89656 0.21318 0.79359 0.0
H2815 H 0.92153 0.21932 0.8168 0.0
H2816 H 0.96896 0.23135 0.79478 0.0
H2817 H 0.95345 0.22339 0.80191 0.0
H2818 H 0.92827 0.21839 0.7793 0.0
C2819 C 0.89723 0.20885 0.80069 0.0
C2820 C 0.92295 0.21898 0.80861 0.0
C2821 C 0.88853 0.2036 0.80438 0.0
C2822 C 0.96169 0.2325 0.79084 0.0
C2823 C 0.95279 0.22792 0.79493 0.0
C2824 C 0.92684 0.21873 0.78749 0.0
C2825 C 0.90662 0.20858 0.80614 0.0
C2826 C 0.91598 0.21388 0.80201 0.0
C2827 C 0.94323 0.22892 0.78991 0.0
C2828 C 0.93382 0.2238 0.79409 0.0
H2829 H 0.89892 0.19349 0.82628 0.0
H2830 H 0.91414 0.20255 0.81981 0.0
H2831 H 0.91297 0.20981 0.7861 0.0
H2832 H 0.95096 0.24383 0.76969 0.0
H2833 H 0.93549 0.23577 0.77679 0.0
C2834 C 0.82522 0.90183 0.81393 0.0
C2835 C 0.82086 0.89193 0.81306 0.0
C2836 C 0.81997 0.91043 0.81019 0.0
C2837 C 0.79995 0.91798 0.79149 0.0
H2838 H 0.7999 0.94343 0.80687 0.0
C2839 C 0.77647 0.95325 0.77812 0.0
C2840 C 0.78109 0.96302 0.77929 0.0
C2841 C 0.78098 0.94452 0.78249 0.0
C2842 C 0.79993 0.93642 0.80241 0.0
H2843 H 0.80755 0.88331 0.8076 0.0
H2844 H 0.79836 0.89832 0.80113 0.0
H2845 H 0.80833 0.92835 0.81409 0.0
H2846 H 0.79404 0.97121 0.78614 0.0
H2847 H 0.80203 0.95599 0.79349 0.0
H2848 H 0.79169 0.92607 0.77974 0.0
C2849 C 0.80586 0.89943 0.80466 0.0
C2850 C 0.80476 0.92777 0.80657 0.0
C2851 C 0.81108 0.89084 0.80846 0.0
C2852 C 0.79032 0.96381 0.78496 0.0
C2853 C 0.79484 0.95509 0.78931 0.0
C2854 C 0.79516 0.92665 0.78731 0.0
C2855 C 0.81027 0.90933 0.80543 0.0
C2856 C 0.80486 0.91845 0.80115 0.0
C2857 C 0.79024 0.94532 0.78813 0.0
C2858 C 0.79513 0.93601 0.79269 0.0
H2859 H 0.83269 0.90296 0.81752 0.0
H2860 H 0.82363 0.91792 0.81084 0.0
H2861 H 0.80002 0.91097 0.78705 0.0
H2862 H 0.76942 0.95232 0.77372 0.0
H2863 H 0.77715 0.93715 0.78151 0.0
C2864 C 0.20455 0.12252 0.20037 0.0
C2865 C 0.19509 0.12554 0.20458 0.0
C2866 C 0.20966 0.11386 0.20418 0.0
C2867 C 0.21152 0.09726 0.22721 0.0
H2868 H 0.22369 0.07765 0.20866 0.0
C2869 C 0.2264 0.05806 0.24154 0.0
C2870 C 0.23542 0.05417 0.23715 0.0
C2871 C 0.22173 0.06684 0.23748 0.0
C2872 C 0.22047 0.08311 0.21396 0.0
H2873 H 0.18348 0.12155 0.21592 0.0
H2874 H 0.19245 0.10659 0.22262 0.0
H2875 H 0.21515 0.09281 0.20169 0.0
H2876 H 0.24655 0.05651 0.22494 0.0
H2877 H 0.23857 0.07197 0.21805 0.0
H2878 H 0.21687 0.08766 0.23948 0.0
C2879 C 0.19598 0.11101 0.21647 0.0
C2880 C 0.21555 0.0918 0.20996 0.0
C2881 C 0.19085 0.11961 0.21263 0.0
C2882 C 0.23968 0.05933 0.2286 0.0
C2883 C 0.23501 0.06814 0.22456 0.0
C2884 C 0.21647 0.08861 0.23122 0.0
C2885 C 0.20547 0.10804 0.21232 0.0
C2886 C 0.21095 0.09894 0.21654 0.0
C2887 C 0.22597 0.07201 0.22894 0.0
C2888 C 0.22095 0.08138 0.22465 0.0
H2889 H 0.20812 0.12695 0.19426 0.0
H2890 H 0.21701 0.11184 0.20088 0.0
H2891 H 0.20821 0.10269 0.2325 0.0
H2892 H 0.22296 0.05439 0.2482 0.0
H2893 H 0.2147 0.0695 0.24099 0.0
C2894 C 0.19032 0.89701 0.80505 0.0
C2895 C 0.19508 0.89051 0.81227 0.0
C2896 C 0.19552 0.90563 0.80114 0.0
C2897 C 0.21682 0.92373 0.80654 0.0
H2898 H 0.21546 0.92913 0.77721 0.0
C2899 C 0.24101 0.95599 0.78712 0.0
C2900 C 0.23627 0.96163 0.77919 0.0
C2901 C 0.23622 0.94721 0.79122 0.0
C2902 C 0.21582 0.92782 0.78543 0.0
H2903 H 0.20912 0.88803 0.82105 0.0
H2904 H 0.21814 0.90318 0.81433 0.0
H2905 H 0.2066 0.91412 0.78433 0.0
H2906 H 0.22266 0.96261 0.76951 0.0
H2907 H 0.21423 0.94741 0.77673 0.0
H2908 H 0.22592 0.93751 0.80768 0.0
C2909 C 0.21034 0.9016 0.81174 0.0
C2910 C 0.21075 0.9192 0.78951 0.0
C2911 C 0.20515 0.89294 0.8156 0.0
C2912 C 0.2266 0.95833 0.7755 0.0
C2913 C 0.22177 0.9496 0.77963 0.0
C2914 C 0.22184 0.9324 0.80247 0.0
C2915 C 0.2056 0.908 0.80441 0.0
C2916 C 0.21116 0.91708 0.80011 0.0
C2917 C 0.22653 0.94391 0.78752 0.0
C2918 C 0.22137 0.93458 0.79187 0.0
H2919 H 0.1825 0.89551 0.80246 0.0
H2920 H 0.1916 0.91051 0.79564 0.0
H2921 H 0.21718 0.92236 0.81476 0.0
H2922 H 0.24852 0.95828 0.79005 0.0
H2923 H 0.24017 0.94293 0.79719 0.0
C2924 C 0.12525 0.20154 0.80408 0.0
C2925 C 0.125 0.19594 0.81336 0.0
C2926 C 0.11657 0.20685 0.80063 0.0
C2927 C 0.08829 0.20733 0.80308 0.0
H2928 H 0.09107 0.23448 0.79089 0.0
C2929 C 0.0528 0.23123 0.79114 0.0
C2930 C 0.05341 0.23682 0.78187 0.0
C2931 C 0.06153 0.22652 0.79532 0.0
C2932 C 0.09016 0.22685 0.79417 0.0
H2933 H 0.1154 0.19156 0.82629 0.0
H2934 H 0.10026 0.20089 0.8203 0.0
H2935 H 0.10628 0.2258 0.79757 0.0
H2936 H 0.0638 0.24198 0.76984 0.0
H2937 H 0.07893 0.23357 0.77695 0.0
H2938 H 0.0722 0.20829 0.79957 0.0
C2939 C 0.10717 0.20112 0.81566 0.0
C2940 C 0.09889 0.22189 0.79801 0.0
C2941 C 0.11588 0.19586 0.81915 0.0
C2942 C 0.063 0.23764 0.77692 0.0
C2943 C 0.07172 0.23291 0.78108 0.0
C2944 C 0.07956 0.21227 0.7992 0.0
C2945 C 0.1074 0.20665 0.80634 0.0
C2946 C 0.09807 0.21205 0.80248 0.0
C2947 C 0.07111 0.22727 0.79032 0.0
C2948 C 0.08038 0.22209 0.79466 0.0
H2949 H 0.13219 0.20184 0.79949 0.0
H2950 H 0.11699 0.21095 0.79337 0.0
H2951 H 0.0874 0.19969 0.80634 0.0
H2952 H 0.04553 0.23034 0.79512 0.0
H2953 H 0.06078 0.22234 0.8025 0.0
C2954 C 0.81396 0.12402 0.81218 0.0
C2955 C 0.81038 0.12647 0.82206 0.0
C2956 C 0.81025 0.11528 0.80706 0.0
C2957 C 0.78817 0.09718 0.80645 0.0
H2958 H 0.80685 0.07937 0.79194 0.0
C2959 C 0.77498 0.05774 0.79083 0.0
C2960 C 0.7788 0.05462 0.78126 0.0
C2961 C 0.77894 0.06653 0.79565 0.0
C2962 C 0.8015 0.08433 0.79584 0.0
H2963 H 0.80028 0.12139 0.83438 0.0
H2964 H 0.79375 0.10627 0.82541 0.0
H2965 H 0.81357 0.09468 0.80056 0.0
H2966 H 0.78972 0.05836 0.76921 0.0
H2967 H 0.79656 0.07376 0.77756 0.0
H2968 H 0.77608 0.08693 0.80169 0.0
C2969 C 0.79932 0.1112 0.82157 0.0
C2970 C 0.80537 0.0931 0.80079 0.0
C2971 C 0.80306 0.1199 0.8267 0.0
C2972 C 0.7867 0.06049 0.77664 0.0
C2973 C 0.79063 0.06931 0.78144 0.0
C2974 C 0.7843 0.08845 0.80146 0.0
C2975 C 0.80285 0.1088 0.81168 0.0
C2976 C 0.79875 0.09959 0.80621 0.0
C2977 C 0.78679 0.07246 0.79101 0.0
C2978 C 0.79092 0.08187 0.79614 0.0
H2979 H 0.81949 0.12897 0.80831 0.0
H2980 H 0.81304 0.11371 0.79941 0.0
H2981 H 0.78284 0.10212 0.81041 0.0
H2982 H 0.76903 0.0533 0.79468 0.0
H2983 H 0.77593 0.06859 0.8031 0.0
C2984 C 0.89542 0.80315 0.82195 0.0
C2985 C 0.89156 0.81295 0.81959 0.0
C2986 C 0.90388 0.79926 0.81669 0.0
C2987 C 0.9262 0.80729 0.80077 0.0
H2988 H 0.92693 0.77828 0.79412 0.0
C2989 C 0.95864 0.78957 0.77623 0.0
C2990 C 0.9626 0.78012 0.77966 0.0
C2991 C 0.94982 0.79368 0.78072 0.0
C2992 C 0.92689 0.78638 0.796 0.0
H2993 H 0.89364 0.82633 0.80977 0.0
H2994 H 0.90825 0.81945 0.8004 0.0
H2995 H 0.91181 0.78526 0.8025 0.0
H2996 H 0.96026 0.76752 0.79041 0.0
H2997 H 0.94497 0.77472 0.7983 0.0
H2998 H 0.9413 0.80838 0.79424 0.0
C2999 C 0.90481 0.81482 0.80645 0.0
C3000 C 0.91822 0.79039 0.80082 0.0
C3001 C 0.89634 0.81872 0.81174 0.0
C3002 C 0.95748 0.77486 0.78765 0.0
C3003 C 0.94865 0.77893 0.7921 0.0
C3004 C 0.93487 0.80328 0.79591 0.0
C3005 C 0.9087 0.80504 0.80886 0.0
C3006 C 0.91779 0.80088 0.80335 0.0
C3007 C 0.94471 0.7884 0.78871 0.0
C3008 C 0.93536 0.79276 0.79355 0.0
H3009 H 0.89186 0.79841 0.82784 0.0
H3010 H 0.90672 0.79176 0.81886 0.0
H3011 H 0.92621 0.81537 0.80272 0.0
H3012 H 0.96244 0.79387 0.77016 0.0
H3013 H 0.94695 0.80095 0.77787 0.0
C3014 C 0.81292 0.89056 0.21244 0.0
C3015 C 0.81858 0.89095 0.20325 0.0
C3016 C 0.80785 0.89926 0.21603 0.0
C3017 C 0.80831 0.92755 0.21424 0.0
H3018 H 0.78101 0.92527 0.22607 0.0
C3019 C 0.78547 0.96332 0.22664 0.0
C3020 C 0.77979 0.9626 0.23581 0.0
C3021 C 0.78994 0.9546 0.22236 0.0
C3022 C 0.78868 0.92603 0.2229 0.0
H3023 H 0.82331 0.90083 0.19061 0.0
H3024 H 0.8144 0.91601 0.19683 0.0
H3025 H 0.7892 0.91004 0.21913 0.0
H3026 H 0.77427 0.95203 0.24757 0.0
H3027 H 0.78227 0.9369 0.24027 0.0
H3028 H 0.80787 0.94351 0.21811 0.0
C3029 C 0.81394 0.90897 0.20129 0.0
C3030 C 0.79337 0.9173 0.2189 0.0
C3031 C 0.81896 0.90024 0.19768 0.0
C3032 C 0.77868 0.95291 0.24056 0.0
C3033 C 0.78316 0.94419 0.2363 0.0
C3034 C 0.80363 0.93629 0.21827 0.0
C3035 C 0.80836 0.9086 0.21054 0.0
C3036 C 0.80325 0.91794 0.21455 0.0
C3037 C 0.78887 0.94492 0.22715 0.0
C3038 C 0.79377 0.93564 0.22268 0.0
H3039 H 0.81239 0.8835 0.21688 0.0
H3040 H 0.8037 0.89872 0.22321 0.0
H3041 H 0.81599 0.9283 0.21108 0.0
H3042 H 0.78659 0.97066 0.22282 0.0
H3043 H 0.79417 0.95544 0.21525 0.0
C3044 C 0.12112 0.8168 0.20341 0.0
C3045 C 0.12584 0.81097 0.1957 0.0
C3046 C 0.11244 0.81299 0.2086 0.0
C3047 C 0.09099 0.79435 0.20591 0.0
H3048 H 0.08864 0.79706 0.23547 0.0
C3049 C 0.05878 0.77362 0.22858 0.0
C3050 C 0.05416 0.77893 0.2367 0.0
C3051 C 0.06758 0.7776 0.22377 0.0
C3052 C 0.08911 0.79635 0.2272 0.0
H3053 H 0.12521 0.79642 0.18762 0.0
H3054 H 0.11004 0.78988 0.19656 0.0
H3055 H 0.10383 0.80398 0.22673 0.0
H3056 H 0.05516 0.79261 0.24611 0.0
H3057 H 0.07047 0.79961 0.23766 0.0
H3058 H 0.07626 0.78682 0.20631 0.0
C3059 C 0.11298 0.79745 0.1985 0.0
C3060 C 0.09782 0.80031 0.22219 0.0
C3061 C 0.12168 0.80122 0.19336 0.0
C3062 C 0.05861 0.78827 0.23996 0.0
C3063 C 0.06739 0.79228 0.23511 0.0
C3064 C 0.08226 0.79044 0.2109 0.0
C3065 C 0.10823 0.8033 0.20615 0.0
C3066 C 0.09889 0.7993 0.21149 0.0
C3067 C 0.07197 0.78701 0.22692 0.0
C3068 C 0.08122 0.79133 0.22162 0.0
H3069 H 0.12402 0.82439 0.20532 0.0
H3070 H 0.1089 0.81774 0.21438 0.0
H3071 H 0.09149 0.7936 0.19763 0.0
H3072 H 0.05564 0.76633 0.226 0.0
H3073 H 0.071 0.77322 0.21764 0.0
C3074 C 0.89605 0.19928 0.20151 0.0
C3075 C 0.8899 0.20583 0.19548 0.0
C3076 C 0.90473 0.20312 0.20671 0.0
C3077 C 0.91665 0.22736 0.21613 0.0
H3078 H 0.94169 0.21138 0.21659 0.0
C3079 C 0.95252 0.23991 0.23961 0.0
C3080 C 0.96219 0.23867 0.23496 0.0
C3081 C 0.94363 0.23567 0.23516 0.0
C3082 C 0.93478 0.21597 0.21648 0.0
H3083 H 0.88797 0.2216 0.19038 0.0
H3084 H 0.90322 0.22821 0.19921 0.0
H3085 H 0.92635 0.20456 0.20803 0.0
H3086 H 0.97007 0.23182 0.22207 0.0
H3087 H 0.95454 0.22467 0.21418 0.0
H3088 H 0.92516 0.23891 0.2243 0.0
C3089 C 0.90128 0.22013 0.20002 0.0
C3090 C 0.92594 0.212 0.21168 0.0
C3091 C 0.89261 0.21631 0.19484 0.0
C3092 C 0.96274 0.23304 0.22579 0.0
C3093 C 0.95384 0.22881 0.22133 0.0
C3094 C 0.92549 0.23134 0.22091 0.0
C3095 C 0.90746 0.21359 0.20601 0.0
C3096 C 0.91678 0.21767 0.21139 0.0
C3097 C 0.94417 0.23009 0.22595 0.0
C3098 C 0.93468 0.22572 0.2211 0.0
H3099 H 0.89425 0.19115 0.2021 0.0
H3100 H 0.90925 0.19788 0.21134 0.0
H3101 H 0.9097 0.23188 0.21617 0.0
H3102 H 0.9518 0.24428 0.24663 0.0
H3103 H 0.93632 0.2367 0.23898 0.0
C3104 C 0.21216 0.70241 0.62606 0.0
C3105 C 0.203 0.69655 0.62565 0.0
C3106 C 0.21589 0.70746 0.6173 0.0
C3107 C 0.21466 0.70667 0.58899 0.0
H3108 H 0.22637 0.73416 0.59074 0.0
C3109 C 0.22761 0.72933 0.55283 0.0
C3110 C 0.23675 0.73521 0.55354 0.0
C3111 C 0.22321 0.72486 0.5616 0.0
C3112 C 0.22324 0.72643 0.59013 0.0
H3113 H 0.19054 0.69146 0.61567 0.0
H3114 H 0.197 0.70035 0.60037 0.0
H3115 H 0.21914 0.72602 0.60606 0.0
H3116 H 0.24834 0.74108 0.56412 0.0
H3117 H 0.24084 0.73307 0.57936 0.0
H3118 H 0.21887 0.70701 0.57311 0.0
C3119 C 0.20134 0.70098 0.60748 0.0
C3120 C 0.21907 0.72177 0.59892 0.0
C3121 C 0.19758 0.69597 0.61627 0.0
C3122 C 0.24136 0.73651 0.56326 0.0
C3123 C 0.23698 0.73203 0.57203 0.0
C3124 C 0.21887 0.71131 0.58021 0.0
C3125 C 0.21057 0.70675 0.60787 0.0
C3126 C 0.21476 0.71182 0.59847 0.0
C3127 C 0.22785 0.72613 0.57132 0.0
C3128 C 0.22324 0.72124 0.58066 0.0
H3129 H 0.21647 0.7031 0.63319 0.0
H3130 H 0.22306 0.71177 0.61785 0.0
H3131 H 0.21155 0.69894 0.5884 0.0
H3132 H 0.22389 0.72806 0.54547 0.0
H3133 H 0.21612 0.72047 0.56077 0.0
C3134 C 0.80798 0.70613 0.62712 0.0
C3135 C 0.81198 0.69618 0.62631 0.0
C3136 C 0.80429 0.71129 0.61841 0.0
C3137 C 0.79475 0.70644 0.59197 0.0
H3138 H 0.79872 0.73585 0.58868 0.0
C3139 C 0.7737 0.72918 0.56025 0.0
C3140 C 0.77925 0.73698 0.55511 0.0
C3141 C 0.77779 0.72444 0.56901 0.0
C3142 C 0.79762 0.72762 0.58943 0.0
H3143 H 0.8156 0.68398 0.61567 0.0
H3144 H 0.80931 0.69303 0.60046 0.0
H3145 H 0.80609 0.72713 0.6036 0.0
H3146 H 0.79345 0.7459 0.55512 0.0
H3147 H 0.80067 0.73755 0.57035 0.0
H3148 H 0.78652 0.70686 0.5777 0.0
C3149 C 0.80877 0.69676 0.60786 0.0
C3150 C 0.80174 0.72263 0.59806 0.0
C3151 C 0.8124 0.69158 0.61657 0.0
C3152 C 0.78894 0.74 0.55898 0.0
C3153 C 0.79307 0.73522 0.56772 0.0
C3154 C 0.79067 0.71141 0.58335 0.0
C3155 C 0.80458 0.70665 0.60867 0.0
C3156 C 0.80034 0.71198 0.59944 0.0
C3157 C 0.78756 0.72734 0.57281 0.0
C3158 C 0.79201 0.72207 0.58198 0.0
H3159 H 0.80745 0.70983 0.63454 0.0
H3160 H 0.80099 0.71883 0.61936 0.0
H3161 H 0.7934 0.69825 0.59284 0.0
H3162 H 0.76613 0.72681 0.55755 0.0
H3163 H 0.77324 0.71856 0.57284 0.0
C3164 C 0.80574 0.31121 0.62614 0.0
C3165 C 0.81302 0.31926 0.62535 0.0
C3166 C 0.80216 0.30612 0.61735 0.0
C3167 C 0.79885 0.30969 0.58944 0.0
H3168 H 0.79546 0.28005 0.58911 0.0
C3169 C 0.78723 0.28805 0.55241 0.0
C3170 C 0.78037 0.27967 0.55334 0.0
C3171 C 0.79152 0.29267 0.56115 0.0
C3172 C 0.79623 0.28834 0.58911 0.0
H3173 H 0.82224 0.32827 0.61468 0.0
H3174 H 0.816 0.31938 0.59933 0.0
H3175 H 0.80239 0.28844 0.60443 0.0
H3176 H 0.77257 0.26961 0.5642 0.0
H3177 H 0.77991 0.27775 0.57947 0.0
H3178 H 0.79254 0.30966 0.57422 0.0
C3179 C 0.81305 0.31702 0.60676 0.0
C3180 C 0.80023 0.29315 0.59789 0.0
C3181 C 0.8167 0.32205 0.61556 0.0
C3182 C 0.77793 0.27598 0.56322 0.0
C3183 C 0.78217 0.28064 0.57197 0.0
C3184 C 0.79478 0.3049 0.58069 0.0
C3185 C 0.8057 0.30903 0.60754 0.0
C3186 C 0.80159 0.30388 0.59816 0.0
C3187 C 0.78901 0.28907 0.57106 0.0
C3188 C 0.79341 0.29416 0.58039 0.0
H3189 H 0.80283 0.30881 0.63358 0.0
H3190 H 0.79644 0.30005 0.61821 0.0
H3191 H 0.79965 0.31799 0.58945 0.0
H3192 H 0.7894 0.29098 0.5449 0.0
H3193 H 0.79691 0.29901 0.56012 0.0
C3194 C 0.20877 0.31207 0.62653 0.0
C3195 C 0.20354 0.32142 0.62546 0.0
C3196 C 0.21267 0.30708 0.6179 0.0
C3197 C 0.22023 0.31196 0.59082 0.0
H3198 H 0.2198 0.28222 0.58915 0.0
C3199 C 0.24223 0.29046 0.5592 0.0
C3200 C 0.2375 0.28173 0.55483 0.0
C3201 C 0.23802 0.29515 0.56783 0.0
C3202 C 0.2199 0.29053 0.58943 0.0
H3203 H 0.198 0.33268 0.61446 0.0
H3204 H 0.20465 0.32392 0.59941 0.0
H3205 H 0.2122 0.2906 0.60395 0.0
H3206 H 0.22464 0.27102 0.55628 0.0
H3207 H 0.21713 0.27937 0.57114 0.0
H3208 H 0.22767 0.31192 0.57619 0.0
C3209 C 0.20598 0.32055 0.60693 0.0
C3210 C 0.21566 0.29534 0.598 0.0
C3211 C 0.20214 0.32557 0.61556 0.0
C3212 C 0.22844 0.2778 0.55935 0.0
C3213 C 0.2242 0.28252 0.56797 0.0
C3214 C 0.22444 0.30715 0.58224 0.0
C3215 C 0.21138 0.31128 0.60799 0.0
C3216 C 0.21578 0.30612 0.59882 0.0
C3217 C 0.22892 0.29127 0.57232 0.0
C3218 C 0.22436 0.29637 0.58144 0.0
H3219 H 0.21008 0.30874 0.63407 0.0
H3220 H 0.21691 0.30004 0.61904 0.0
H3221 H 0.22059 0.32026 0.59122 0.0
H3222 H 0.24915 0.29378 0.55586 0.0
H3223 H 0.24195 0.30179 0.57104 0.0
C3224 C 0.21419 0.31576 0.39116 0.0
C3225 C 0.20484 0.32109 0.39144 0.0
C3226 C 0.21781 0.31056 0.39987 0.0
C3227 C 0.21584 0.31017 0.42805 0.0
H3228 H 0.22765 0.28305 0.42573 0.0
C3229 C 0.22795 0.28665 0.4638 0.0
C3230 C 0.23713 0.28104 0.46321 0.0
C3231 C 0.22373 0.29126 0.45503 0.0
C3232 C 0.22449 0.29067 0.4265 0.0
H3233 H 0.19195 0.32516 0.40108 0.0
H3234 H 0.19825 0.31604 0.4163 0.0
H3235 H 0.22081 0.29158 0.41045 0.0
H3236 H 0.24898 0.27578 0.45285 0.0
H3237 H 0.2418 0.28407 0.43762 0.0
H3238 H 0.21966 0.30937 0.44405 0.0
C3239 C 0.2028 0.31592 0.40934 0.0
C3240 C 0.22055 0.29554 0.41774 0.0
C3241 C 0.19915 0.32106 0.4006 0.0
C3242 C 0.24196 0.28014 0.45361 0.0
C3243 C 0.23777 0.28478 0.44485 0.0
C3244 C 0.21984 0.30533 0.4368 0.0
C3245 C 0.21219 0.31064 0.40908 0.0
C3246 C 0.2162 0.30536 0.41841 0.0
C3247 C 0.22861 0.29043 0.44545 0.0
C3248 C 0.22423 0.29552 0.43614 0.0
H3249 H 0.2187 0.31556 0.38418 0.0
H3250 H 0.22511 0.30663 0.39945 0.0
H3251 H 0.21267 0.3178 0.42879 0.0
H3252 H 0.22407 0.28761 0.47108 0.0
H3253 H 0.2166 0.29543 0.45576 0.0
C3254 C 0.20247 0.6963 0.39592 0.0
C3255 C 0.1945 0.70187 0.39116 0.0
C3256 C 0.20769 0.70026 0.40451 0.0
C3257 C 0.20482 0.71893 0.42558 0.0
H3258 H 0.23454 0.71707 0.42794 0.0
C3259 C 0.22748 0.74084 0.45695 0.0
C3260 C 0.23577 0.73584 0.46177 0.0
C3261 C 0.22266 0.73657 0.44831 0.0
C3262 C 0.22623 0.71754 0.42747 0.0
H3263 H 0.18604 0.71615 0.3916 0.0
H3264 H 0.19503 0.72296 0.40659 0.0
H3265 H 0.22574 0.70974 0.413 0.0
H3266 H 0.24547 0.7224 0.46125 0.0
H3267 H 0.23701 0.7149 0.44621 0.0
H3268 H 0.20526 0.72666 0.44005 0.0
C3269 C 0.19714 0.71546 0.40378 0.0
C3270 C 0.22118 0.71335 0.4189 0.0
C3271 C 0.19196 0.71153 0.39518 0.0
C3272 C 0.23919 0.72651 0.45766 0.0
C3273 C 0.23433 0.72221 0.44903 0.0
C3274 C 0.20985 0.72309 0.43416 0.0
C3275 C 0.20504 0.70986 0.40858 0.0
C3276 C 0.21042 0.71406 0.41781 0.0
C3277 C 0.22596 0.72716 0.44427 0.0
C3278 C 0.22063 0.72252 0.4352 0.0
H3279 H 0.20456 0.68879 0.39312 0.0
H3280 H 0.21366 0.69571 0.40809 0.0
H3281 H 0.19651 0.71945 0.42509 0.0
H3282 H 0.22477 0.74812 0.45981 0.0
H3283 H 0.21638 0.74071 0.44474 0.0
C3284 C 0.81125 0.71093 0.39148 0.0
C3285 C 0.81926 0.70384 0.39273 0.0
C3286 C 0.80623 0.71493 0.40004 0.0
C3287 C 0.80078 0.70994 0.4274 0.0
H3288 H 0.79619 0.73931 0.42857 0.0
C3289 C 0.78689 0.7297 0.46444 0.0
C3290 C 0.78003 0.73794 0.46345 0.0
C3291 C 0.79146 0.72544 0.45576 0.0
C3292 C 0.79726 0.73107 0.42832 0.0
H3293 H 0.82813 0.69522 0.40393 0.0
H3294 H 0.81934 0.70219 0.41889 0.0
H3295 H 0.80438 0.73197 0.41352 0.0
H3296 H 0.77243 0.74802 0.45254 0.0
H3297 H 0.78025 0.74048 0.43738 0.0
H3298 H 0.79357 0.70898 0.44214 0.0
C3299 C 0.81695 0.70465 0.41129 0.0
C3300 C 0.80199 0.72687 0.41969 0.0
C3301 C 0.82204 0.70073 0.40273 0.0
C3302 C 0.77779 0.74176 0.45357 0.0
C3303 C 0.7823 0.73745 0.44488 0.0
C3304 C 0.79598 0.71412 0.43601 0.0
C3305 C 0.80904 0.71186 0.41004 0.0
C3306 C 0.80384 0.71627 0.41915 0.0
C3307 C 0.78924 0.72925 0.44585 0.0
C3308 C 0.79419 0.72475 0.43661 0.0
H3309 H 0.80899 0.71355 0.38388 0.0
H3310 H 0.8001 0.7204 0.39883 0.0
H3311 H 0.80199 0.70172 0.42715 0.0
H3312 H 0.78888 0.72668 0.47196 0.0
H3313 H 0.7969 0.71927 0.45685 0.0
C3314 C 0.81873 0.31255 0.39506 0.0
C3315 C 0.81311 0.3205 0.39036 0.0
C3316 C 0.81484 0.30734 0.40369 0.0
C3317 C 0.79637 0.31029 0.42496 0.0
H3318 H 0.79829 0.28067 0.42749 0.0
C3319 C 0.77476 0.28789 0.45671 0.0
C3320 C 0.77983 0.27967 0.46154 0.0
C3321 C 0.77895 0.29264 0.44799 0.0
C3322 C 0.7978 0.28896 0.42697 0.0
H3323 H 0.79879 0.32894 0.39093 0.0
H3324 H 0.7921 0.31997 0.40598 0.0
H3325 H 0.80545 0.28937 0.4124 0.0
H3326 H 0.7933 0.27 0.46097 0.0
H3327 H 0.80066 0.27832 0.44578 0.0
H3328 H 0.78879 0.30994 0.43952 0.0
C3329 C 0.7996 0.31786 0.4031 0.0
C3330 C 0.8019 0.29394 0.41831 0.0
C3331 C 0.80345 0.32302 0.39446 0.0
C3332 C 0.78914 0.27623 0.45736 0.0
C3333 C 0.79335 0.28101 0.44864 0.0
C3334 C 0.7923 0.30533 0.43362 0.0
C3335 C 0.80526 0.30999 0.40786 0.0
C3336 C 0.80116 0.30467 0.41717 0.0
C3337 C 0.78834 0.28932 0.44387 0.0
C3338 C 0.79289 0.29458 0.43472 0.0
H3339 H 0.82624 0.31047 0.39219 0.0
H3340 H 0.81944 0.30139 0.40723 0.0
H3341 H 0.79584 0.31858 0.42443 0.0
H3342 H 0.76748 0.29061 0.45961 0.0
H3343 H 0.77475 0.29886 0.4444 0.0
C3344 C 0.12029 0.7134 0.69223 0.0
C3345 C 0.12416 0.70368 0.6949 0.0
C3346 C 0.11174 0.71738 0.69726 0.0
C3347 C 0.09648 0.71517 0.72109 0.0
H3348 H 0.07569 0.72914 0.70488 0.0
C3349 C 0.05786 0.7288 0.73842 0.0
C3350 C 0.05407 0.73832 0.735 0.0
C3351 C 0.06641 0.7244 0.73371 0.0
C3352 C 0.08148 0.72538 0.70955 0.0
H3353 H 0.12198 0.69054 0.70503 0.0
H3354 H 0.10707 0.69753 0.71388 0.0
H3355 H 0.09053 0.72177 0.69638 0.0
H3356 H 0.05653 0.75081 0.72415 0.0
H3357 H 0.07144 0.74318 0.71599 0.0
H3358 H 0.08744 0.71885 0.73428 0.0
C3359 C 0.11074 0.7021 0.70791 0.0
C3360 C 0.08999 0.72113 0.70466 0.0
C3361 C 0.1193 0.69809 0.70285 0.0
C3362 C 0.05912 0.74338 0.72685 0.0
C3363 C 0.06768 0.739 0.72216 0.0
C3364 C 0.08797 0.71944 0.72599 0.0
C3365 C 0.10682 0.71177 0.70514 0.0
C3366 C 0.09763 0.71603 0.71037 0.0
C3367 C 0.0714 0.72941 0.72548 0.0
C3368 C 0.08038 0.72466 0.72029 0.0
H3369 H 0.12395 0.71802 0.68631 0.0
H3370 H 0.10905 0.72493 0.69506 0.0
H3371 H 0.10228 0.71139 0.72573 0.0
H3372 H 0.05407 0.72464 0.74459 0.0
H3373 H 0.06898 0.71695 0.73638 0.0
C3374 C 0.82292 0.61649 0.70187 0.0
C3375 C 0.81994 0.6264 0.70482 0.0
C3376 C 0.81764 0.60781 0.70555 0.0
C3377 C 0.80161 0.59885 0.72699 0.0
H3378 H 0.79402 0.5766 0.70864 0.0
C3379 C 0.77713 0.56414 0.74081 0.0
C3380 C 0.77967 0.55441 0.73702 0.0
C3381 C 0.78168 0.57303 0.73668 0.0
C3382 C 0.79619 0.58268 0.7139 0.0
H3383 H 0.80912 0.63497 0.71396 0.0
H3384 H 0.7999 0.61979 0.72042 0.0
H3385 H 0.80271 0.59187 0.7018 0.0
H3386 H 0.78905 0.54634 0.72601 0.0
H3387 H 0.79714 0.5618 0.71893 0.0
H3388 H 0.79533 0.58962 0.73914 0.0
C3389 C 0.80633 0.61875 0.71526 0.0
C3390 C 0.80114 0.59144 0.70997 0.0
C3391 C 0.81154 0.62744 0.7115 0.0
C3392 C 0.78684 0.55375 0.729 0.0
C3393 C 0.79145 0.56262 0.72492 0.0
C3394 C 0.79674 0.59005 0.73095 0.0
C3395 C 0.80933 0.60885 0.71234 0.0
C3396 C 0.80391 0.59961 0.71647 0.0
C3397 C 0.78894 0.57239 0.72871 0.0
C3398 C 0.79398 0.58184 0.72446 0.0
H3399 H 0.82931 0.61546 0.69666 0.0
H3400 H 0.82017 0.60027 0.70322 0.0
H3401 H 0.80377 0.60497 0.73222 0.0
H3402 H 0.77153 0.56489 0.7469 0.0
H3403 H 0.77941 0.58042 0.73967 0.0
C3404 C 0.90189 0.31645 0.69193 0.0
C3405 C 0.89199 0.31538 0.69619 0.0
C3406 C 0.91052 0.31264 0.6971 0.0
C3407 C 0.91977 0.30366 0.7227 0.0
H3408 H 0.94064 0.29018 0.70654 0.0
C3409 C 0.95275 0.27992 0.74105 0.0
C3410 C 0.96261 0.28101 0.7367 0.0
C3411 C 0.94416 0.28436 0.73631 0.0
C3412 C 0.93495 0.29402 0.71116 0.0
H3413 H 0.88345 0.30949 0.70927 0.0
H3414 H 0.8985 0.30275 0.71826 0.0
H3415 H 0.92569 0.29753 0.69798 0.0
H3416 H 0.97116 0.28792 0.72409 0.0
H3417 H 0.95619 0.29558 0.71582 0.0
H3418 H 0.92902 0.30003 0.7359 0.0
C3419 C 0.89961 0.30669 0.71099 0.0
C3420 C 0.92636 0.29826 0.70625 0.0
C3421 C 0.89098 0.31055 0.70583 0.0
C3422 C 0.96366 0.28674 0.72755 0.0
C3423 C 0.95508 0.29115 0.72281 0.0
C3424 C 0.92835 0.29939 0.72762 0.0
C3425 C 0.9095 0.30761 0.70665 0.0
C3426 C 0.91866 0.30315 0.71194 0.0
C3427 C 0.94521 0.28999 0.7271 0.0
C3428 C 0.93605 0.29453 0.72191 0.0
H3429 H 0.90296 0.32029 0.68459 0.0
H3430 H 0.91803 0.31367 0.69361 0.0
H3431 H 0.91407 0.30749 0.72732 0.0
H3432 H 0.95163 0.27546 0.74801 0.0
H3433 H 0.93665 0.28321 0.73976 0.0
C3434 C 0.19113 0.4009 0.70292 0.0
C3435 C 0.19567 0.39115 0.70356 0.0
C3436 C 0.19627 0.40958 0.70676 0.0
C3437 C 0.22204 0.41936 0.71495 0.0
H3438 H 0.2059 0.43955 0.72937 0.0
C3439 C 0.23925 0.45837 0.72835 0.0
C3440 C 0.23599 0.46218 0.73787 0.0
C3441 C 0.23454 0.44965 0.72407 0.0
C3442 C 0.21055 0.43395 0.72545 0.0
H3443 H 0.20918 0.38291 0.70871 0.0
H3444 H 0.21811 0.39803 0.71551 0.0
H3445 H 0.1974 0.42447 0.72214 0.0
H3446 H 0.22542 0.45963 0.75051 0.0
H3447 H 0.21728 0.44438 0.74312 0.0
H3448 H 0.23524 0.42872 0.71852 0.0
C3449 C 0.21065 0.399 0.71188 0.0
C3450 C 0.20565 0.42536 0.72117 0.0
C3451 C 0.20553 0.39032 0.70799 0.0
C3452 C 0.228 0.45699 0.74308 0.0
C3453 C 0.22332 0.44825 0.73883 0.0
C3454 C 0.22696 0.42795 0.71926 0.0
C3455 C 0.20605 0.40874 0.71138 0.0
C3456 C 0.21132 0.41794 0.71585 0.0
C3457 C 0.22648 0.44451 0.72923 0.0
C3458 C 0.22128 0.43535 0.72459 0.0
H3459 H 0.18362 0.40183 0.6994 0.0
H3460 H 0.19257 0.41698 0.70605 0.0
H3461 H 0.22664 0.41386 0.71082 0.0
H3462 H 0.2453 0.46227 0.72408 0.0
H3463 H 0.23708 0.44708 0.7166 0.0
C3464 C 0.12637 0.30865 0.31269 0.0
C3465 C 0.12543 0.31266 0.32265 0.0
C3466 C 0.11772 0.30481 0.30745 0.0
C3467 C 0.09124 0.29494 0.31201 0.0
H3468 H 0.08827 0.29884 0.28256 0.0
C3469 C 0.05984 0.27355 0.28873 0.0
C3470 C 0.05479 0.27902 0.28088 0.0
C3471 C 0.06853 0.27773 0.29362 0.0
C3472 C 0.08893 0.29775 0.2908 0.0
H3473 H 0.11465 0.3161 0.33479 0.0
H3474 H 0.09954 0.30955 0.32562 0.0
H3475 H 0.10305 0.30639 0.2915 0.0
H3476 H 0.05486 0.29318 0.27203 0.0
H3477 H 0.06995 0.30055 0.28064 0.0
H3478 H 0.077 0.28654 0.31137 0.0
C3479 C 0.10698 0.30913 0.32193 0.0
C3480 C 0.09748 0.30198 0.29591 0.0
C3481 C 0.11564 0.31291 0.32719 0.0
C3482 C 0.05866 0.28873 0.27797 0.0
C3483 C 0.06732 0.29294 0.2829 0.0
C3484 C 0.08268 0.29075 0.30691 0.0
C3485 C 0.10792 0.30496 0.31203 0.0
C3486 C 0.09875 0.3006 0.30658 0.0
C3487 C 0.07234 0.28751 0.29082 0.0
C3488 C 0.08143 0.29206 0.29623 0.0
H3489 H 0.13383 0.30824 0.30904 0.0
H3490 H 0.11876 0.30152 0.29991 0.0
H3491 H 0.09202 0.29361 0.3202 0.0
H3492 H 0.05714 0.26598 0.29104 0.0
H3493 H 0.07231 0.27324 0.29955 0.0
C3494 C 0.20671 0.62407 0.31121 0.0
C3495 C 0.20175 0.62297 0.32075 0.0
C3496 C 0.21067 0.61549 0.30618 0.0
C3497 C 0.21909 0.58876 0.31121 0.0
H3498 H 0.21764 0.58635 0.28153 0.0
C3499 C 0.23072 0.55168 0.29021 0.0
C3500 C 0.23655 0.55279 0.28117 0.0
C3501 C 0.2263 0.56023 0.29486 0.0
C3502 C 0.21819 0.58696 0.28982 0.0
H3503 H 0.19675 0.61194 0.33229 0.0
H3504 H 0.20353 0.597 0.32349 0.0
H3505 H 0.21009 0.60121 0.28989 0.0
H3506 H 0.24231 0.56385 0.26999 0.0
H3507 H 0.23454 0.57874 0.27808 0.0
H3508 H 0.22715 0.5745 0.31113 0.0
C3509 C 0.20459 0.6045 0.31999 0.0
C3510 C 0.21387 0.59548 0.29462 0.0
C3511 C 0.20068 0.61307 0.32504 0.0
C3512 C 0.23776 0.56268 0.27686 0.0
C3513 C 0.23331 0.57122 0.2815 0.0
C3514 C 0.22337 0.58023 0.30641 0.0
C3515 C 0.20973 0.6056 0.31054 0.0
C3516 C 0.21426 0.5965 0.30538 0.0
C3517 C 0.22756 0.57011 0.29059 0.0
C3518 C 0.22298 0.57921 0.29566 0.0
H3519 H 0.20777 0.63159 0.30775 0.0
H3520 H 0.21469 0.61666 0.29898 0.0
H3521 H 0.21972 0.58937 0.31949 0.0
H3522 H 0.22945 0.54418 0.29364 0.0
H3523 H 0.22178 0.55906 0.30176 0.0
C3524 C 0.88842 0.70429 0.30479 0.0
C3525 C 0.88889 0.69862 0.31401 0.0
C3526 C 0.89712 0.7095 0.30107 0.0
C3527 C 0.92304 0.71934 0.30874 0.0
H3528 H 0.92802 0.71863 0.27939 0.0
C3529 C 0.9561 0.7427 0.28956 0.0
C3530 C 0.96144 0.73797 0.28152 0.0
C3531 C 0.9472 0.73812 0.29367 0.0
C3532 C 0.9268 0.71884 0.28761 0.0
H3533 H 0.8989 0.69402 0.32658 0.0
H3534 H 0.91413 0.70302 0.32004 0.0
H3535 H 0.91273 0.71023 0.28636 0.0
H3536 H 0.96176 0.72458 0.27168 0.0
H3537 H 0.94634 0.71657 0.27887 0.0
H3538 H 0.93729 0.7277 0.31001 0.0
C3539 C 0.90698 0.70359 0.31576 0.0
C3540 C 0.91794 0.71413 0.29161 0.0
C3541 C 0.89825 0.69842 0.31951 0.0
C3542 C 0.95773 0.72852 0.27774 0.0
C3543 C 0.94887 0.72393 0.28186 0.0
C3544 C 0.93192 0.72403 0.30475 0.0
C3545 C 0.90655 0.70913 0.30645 0.0
C3546 C 0.91594 0.7143 0.30222 0.0
C3547 C 0.94346 0.72868 0.28985 0.0
C3548 C 0.93394 0.72382 0.29413 0.0
H3549 H 0.88128 0.70475 0.30046 0.0
H3550 H 0.89644 0.71386 0.29399 0.0
H3551 H 0.9217 0.71971 0.31694 0.0
H3552 H 0.95869 0.75004 0.29256 0.0
H3553 H 0.94316 0.74207 0.29971 0.0
C3554 C 0.81137 0.39053 0.3084 0.0
C3555 C 0.82121 0.39159 0.31288 0.0
C3556 C 0.80614 0.39914 0.30465 0.0
C3557 C 0.80513 0.42747 0.30659 0.0
H3558 H 0.7917 0.42581 0.27994 0.0
C3559 C 0.79029 0.46354 0.28528 0.0
C3560 C 0.78099 0.46272 0.27971 0.0
C3561 C 0.79489 0.45481 0.28955 0.0
C3562 C 0.79528 0.42638 0.28746 0.0
H3563 H 0.83314 0.40257 0.31716 0.0
H3564 H 0.82406 0.41757 0.31057 0.0
H3565 H 0.80013 0.4107 0.2871 0.0
H3566 H 0.76931 0.45199 0.27424 0.0
H3567 H 0.77718 0.43683 0.2819 0.0
H3568 H 0.80026 0.44312 0.30699 0.0
C3569 C 0.82037 0.41009 0.30998 0.0
C3570 C 0.80013 0.41771 0.29156 0.0
C3571 C 0.82562 0.40148 0.31367 0.0
C3572 C 0.7764 0.45294 0.27856 0.0
C3573 C 0.781 0.44422 0.28285 0.0
C3574 C 0.80024 0.43613 0.30251 0.0
C3575 C 0.81059 0.40902 0.30536 0.0
C3576 C 0.80516 0.41816 0.30115 0.0
C3577 C 0.79032 0.44503 0.28839 0.0
C3578 C 0.7953 0.43572 0.29286 0.0
H3579 H 0.80778 0.38302 0.3076 0.0
H3580 H 0.79858 0.39806 0.30122 0.0
H3581 H 0.80881 0.42804 0.31406 0.0
H3582 H 0.79398 0.47095 0.28644 0.0
H3583 H 0.80212 0.45574 0.29365 0.0
C3584 C 0.20353 0.62624 0.71135 0.0
C3585 C 0.19566 0.62533 0.70393 0.0
C3586 C 0.20855 0.61752 0.71511 0.0
C3587 C 0.20502 0.58961 0.71856 0.0
H3588 H 0.23468 0.58957 0.72228 0.0
C3589 C 0.2267 0.55284 0.7305 0.0
C3590 C 0.23503 0.55387 0.73738 0.0
C3591 C 0.22206 0.56152 0.72618 0.0
C3592 C 0.22638 0.58948 0.72142 0.0
H3593 H 0.18689 0.61451 0.69465 0.0
H3594 H 0.19566 0.59928 0.7012 0.0
H3595 H 0.22634 0.60477 0.71519 0.0
H3596 H 0.24496 0.56486 0.7452 0.0
H3597 H 0.23678 0.58001 0.73782 0.0
H3598 H 0.20499 0.57442 0.72493 0.0
C3599 C 0.19793 0.60676 0.70413 0.0
C3600 C 0.2216 0.5982 0.71733 0.0
C3601 C 0.19297 0.61549 0.7003 0.0
C3602 C 0.23863 0.5638 0.73983 0.0
C3603 C 0.23395 0.57248 0.73557 0.0
C3604 C 0.20978 0.58092 0.72271 0.0
C3605 C 0.20575 0.60767 0.7116 0.0
C3606 C 0.21086 0.59836 0.71585 0.0
C3607 C 0.22559 0.57147 0.72869 0.0
C3608 C 0.22053 0.58073 0.7242 0.0
H3609 H 0.20584 0.63372 0.71424 0.0
H3610 H 0.21449 0.61848 0.72092 0.0
H3611 H 0.19672 0.58955 0.71766 0.0
H3612 H 0.22385 0.5453 0.72833 0.0
H3613 H 0.21578 0.56041 0.72078 0.0
C3614 C 0.19088 0.39641 0.30437 0.0
C3615 C 0.19561 0.38999 0.31169 0.0
C3616 C 0.19606 0.40504 0.30047 0.0
C3617 C 0.21712 0.42336 0.30604 0.0
H3618 H 0.21595 0.42874 0.2767 0.0
C3619 C 0.24111 0.45588 0.28681 0.0
C3620 C 0.23635 0.46148 0.27885 0.0
C3621 C 0.23638 0.44705 0.29087 0.0
C3622 C 0.21625 0.42743 0.28493 0.0
H3623 H 0.20958 0.38767 0.32063 0.0
H3624 H 0.21856 0.40284 0.3139 0.0
H3625 H 0.2072 0.41364 0.28375 0.0
H3626 H 0.2228 0.46232 0.26908 0.0
H3627 H 0.21449 0.44702 0.27623 0.0
H3628 H 0.22606 0.43723 0.30725 0.0
C3629 C 0.21079 0.40119 0.31124 0.0
C3630 C 0.21125 0.41876 0.28896 0.0
C3631 C 0.20563 0.39251 0.3151 0.0
C3632 C 0.22674 0.45808 0.27509 0.0
C3633 C 0.22199 0.44929 0.27918 0.0
C3634 C 0.22208 0.43208 0.30201 0.0
C3635 C 0.20608 0.40752 0.30383 0.0
C3636 C 0.21159 0.41664 0.29956 0.0
C3637 C 0.22675 0.44364 0.2871 0.0
C3638 C 0.22167 0.43425 0.2914 0.0
H3639 H 0.18309 0.39484 0.30172 0.0
H3640 H 0.19215 0.40987 0.2949 0.0
H3641 H 0.21743 0.42199 0.31426 0.0
H3642 H 0.24857 0.45825 0.28979 0.0
H3643 H 0.24035 0.44281 0.29686 0.0
C3644 C 0.1219 0.70409 0.31603 0.0
C3645 C 0.1243 0.69429 0.31225 0.0
C3646 C 0.11322 0.70932 0.31241 0.0
C3647 C 0.09533 0.71045 0.29025 0.0
H3648 H 0.07748 0.72486 0.30899 0.0
C3649 C 0.05617 0.72653 0.27704 0.0
C3650 C 0.05313 0.73609 0.28091 0.0
C3651 C 0.06485 0.72159 0.28102 0.0
C3652 C 0.08245 0.72099 0.30363 0.0
H3653 H 0.1192 0.68223 0.30188 0.0
H3654 H 0.10419 0.69138 0.29551 0.0
H3655 H 0.09263 0.71602 0.31566 0.0
H3656 H 0.05689 0.74798 0.29197 0.0
H3657 H 0.0721 0.7394 0.29885 0.0
H3658 H 0.08525 0.71544 0.27821 0.0
C3659 C 0.10911 0.69509 0.30117 0.0
C3660 C 0.09114 0.71591 0.30746 0.0
C3661 C 0.11774 0.68984 0.30482 0.0
C3662 C 0.05896 0.74056 0.2889 0.0
C3663 C 0.06767 0.73563 0.29285 0.0
C3664 C 0.08669 0.71555 0.28642 0.0
C3665 C 0.10676 0.70491 0.30488 0.0
C3666 C 0.09764 0.71052 0.30083 0.0
C3667 C 0.07076 0.72609 0.28894 0.0
C3668 C 0.08009 0.72084 0.29305 0.0
H3669 H 0.12684 0.70782 0.32166 0.0
H3670 H 0.11169 0.71692 0.31535 0.0
H3671 H 0.10028 0.70653 0.2849 0.0
H3672 H 0.05176 0.72278 0.27102 0.0
H3673 H 0.06685 0.71415 0.27795 0.0
C3674 C 0.81421 0.61535 0.32582 0.0
C3675 C 0.81252 0.62527 0.32187 0.0
C3676 C 0.81049 0.60668 0.32063 0.0
C3677 C 0.80054 0.59786 0.29525 0.0
H3678 H 0.78926 0.57534 0.31145 0.0
C3679 C 0.78795 0.55916 0.27699 0.0
C3680 C 0.77905 0.55428 0.2809 0.0
C3681 C 0.79218 0.56782 0.28185 0.0
C3682 C 0.79229 0.58159 0.30679 0.0
H3683 H 0.80558 0.63385 0.30934 0.0
H3684 H 0.79897 0.61874 0.30033 0.0
H3685 H 0.79624 0.59045 0.32006 0.0
H3686 H 0.76769 0.55471 0.29307 0.0
H3687 H 0.77485 0.56994 0.30132 0.0
H3688 H 0.79628 0.58912 0.28196 0.0
C3689 C 0.80334 0.61763 0.30735 0.0
C3690 C 0.79644 0.59021 0.31174 0.0
C3691 C 0.80712 0.62631 0.31253 0.0
C3692 C 0.77447 0.55833 0.28976 0.0
C3693 C 0.77867 0.567 0.29459 0.0
C3694 C 0.79635 0.58924 0.29029 0.0
C3695 C 0.80492 0.6077 0.31137 0.0
C3696 C 0.80061 0.59847 0.30605 0.0
C3697 C 0.78761 0.57184 0.29073 0.0
C3698 C 0.79215 0.581 0.29599 0.0
H3699 H 0.81848 0.61429 0.33292 0.0
H3700 H 0.81204 0.59916 0.32385 0.0
H3701 H 0.80378 0.60401 0.29061 0.0
H3702 H 0.79162 0.55634 0.27012 0.0
H3703 H 0.79912 0.57127 0.27872 0.0
C3704 C 0.89736 0.31927 0.31315 0.0
C3705 C 0.89115 0.31257 0.31904 0.0
C3706 C 0.90592 0.31559 0.30785 0.0
C3707 C 0.91743 0.29156 0.29797 0.0
H3708 H 0.94275 0.30766 0.29795 0.0
C3709 C 0.9531 0.27934 0.27471 0.0
C3710 C 0.9628 0.28058 0.27944 0.0
C3711 C 0.94428 0.28353 0.2791 0.0
C3712 C 0.93576 0.30303 0.29793 0.0
H3713 H 0.88899 0.29666 0.32373 0.0
H3714 H 0.904 0.29032 0.31474 0.0
H3715 H 0.92754 0.31429 0.30648 0.0
H3716 H 0.97082 0.28741 0.29244 0.0
H3717 H 0.95543 0.29448 0.30022 0.0
H3718 H 0.92572 0.28017 0.28971 0.0
C3719 C 0.90221 0.29841 0.31411 0.0
C3720 C 0.92699 0.3069 0.30271 0.0
C3721 C 0.89366 0.30208 0.31939 0.0
C3722 C 0.96346 0.28618 0.28864 0.0
C3723 C 0.95464 0.29036 0.29304 0.0
C3724 C 0.9262 0.28769 0.2932 0.0
C3725 C 0.90848 0.30511 0.3083 0.0
C3726 C 0.91772 0.30118 0.30286 0.0
C3727 C 0.94493 0.28907 0.28835 0.0
C3728 C 0.9355 0.29335 0.29317 0.0
H3729 H 0.89571 0.3274 0.31276 0.0
H3730 H 0.9105 0.32096 0.30336 0.0
H3731 H 0.9104 0.287 0.29782 0.0
H3732 H 0.95227 0.27499 0.26767 0.0
H3733 H 0.93695 0.28247 0.27521 0.0
C3734 C 0.81911 0.39991 0.69845 0.0
C3735 C 0.81855 0.3905 0.70381 0.0
C3736 C 0.81418 0.40862 0.70223 0.0
C3737 C 0.8037 0.41932 0.72634 0.0
H3738 H 0.79087 0.43898 0.70793 0.0
C3739 C 0.79001 0.45882 0.74055 0.0
C3740 C 0.78068 0.4626 0.73659 0.0
C3741 C 0.79449 0.45006 0.73639 0.0
C3742 C 0.79434 0.43353 0.71319 0.0
H3743 H 0.81203 0.38279 0.71713 0.0
H3744 H 0.80335 0.39791 0.72365 0.0
H3745 H 0.79852 0.4235 0.70094 0.0
H3746 H 0.76871 0.46004 0.72517 0.0
H3747 H 0.77648 0.44471 0.71794 0.0
H3748 H 0.79933 0.42921 0.73861 0.0
C3749 C 0.8078 0.39865 0.71666 0.0
C3750 C 0.79884 0.4247 0.70916 0.0
C3751 C 0.81276 0.38996 0.71291 0.0
C3752 C 0.77597 0.45741 0.72832 0.0
C3753 C 0.78043 0.44862 0.72417 0.0
C3754 C 0.79918 0.42813 0.73036 0.0
C3755 C 0.80853 0.40812 0.71143 0.0
C3756 C 0.8036 0.41748 0.71568 0.0
C3757 C 0.78974 0.44481 0.72817 0.0
C3758 C 0.79447 0.43537 0.72384 0.0
H3759 H 0.8236 0.40062 0.69149 0.0
H3760 H 0.81503 0.4158 0.69806 0.0
H3761 H 0.8074 0.41402 0.73159 0.0
H3762 H 0.79394 0.46272 0.7468 0.0
H3763 H 0.80176 0.44747 0.73954 0.0
C3764 C 0.12182 0.30125 0.69366 0.0
C3765 C 0.12578 0.31111 0.69587 0.0
C3766 C 0.11316 0.29739 0.69881 0.0
C3767 C 0.09779 0.30033 0.72236 0.0
H3768 H 0.07658 0.28624 0.70654 0.0
C3769 C 0.05861 0.28795 0.74 0.0
C3770 C 0.05433 0.2785 0.73685 0.0
C3771 C 0.06739 0.29201 0.73517 0.0
C3772 C 0.08248 0.29003 0.71111 0.0
H3773 H 0.12366 0.32463 0.70528 0.0
H3774 H 0.10861 0.31783 0.71436 0.0
H3775 H 0.09175 0.29315 0.69787 0.0
H3776 H 0.0561 0.26575 0.72636 0.0
H3777 H 0.07144 0.27274 0.71803 0.0
H3778 H 0.08857 0.29713 0.73562 0.0
C3779 C 0.11228 0.31307 0.70867 0.0
C3780 C 0.09118 0.29401 0.70612 0.0
C3781 C 0.12092 0.31696 0.70347 0.0
C3782 C 0.0591 0.27313 0.72885 0.0
C3783 C 0.0679 0.27716 0.72407 0.0
C3784 C 0.0891 0.2963 0.72736 0.0
C3785 C 0.10826 0.30327 0.70635 0.0
C3786 C 0.09895 0.29918 0.71168 0.0
C3787 C 0.07212 0.28669 0.72711 0.0
C3788 C 0.08135 0.29107 0.72181 0.0
H3789 H 0.12547 0.29643 0.68801 0.0
H3790 H 0.11037 0.28974 0.69697 0.0
H3791 H 0.1037 0.30417 0.72688 0.0
H3792 H 0.05505 0.29233 0.74605 0.0
H3793 H 0.07033 0.29942 0.73762 0.0
C3794 C 0.90059 0.70407 0.69038 0.0
C3795 C 0.89087 0.70464 0.69502 0.0
C3796 C 0.90937 0.70791 0.69537 0.0
C3797 C 0.91938 0.71592 0.72094 0.0
H3798 H 0.93972 0.73064 0.70462 0.0
C3799 C 0.95285 0.73967 0.73894 0.0
C3800 C 0.9626 0.73876 0.73438 0.0
C3801 C 0.9441 0.73529 0.73431 0.0
C3802 C 0.93416 0.72646 0.70927 0.0
H3803 H 0.88272 0.70969 0.70856 0.0
H3804 H 0.89801 0.71652 0.71725 0.0
H3805 H 0.92448 0.72337 0.69628 0.0
H3806 H 0.97079 0.73228 0.72148 0.0
H3807 H 0.95554 0.72477 0.71337 0.0
H3808 H 0.92905 0.71915 0.73396 0.0
C3809 C 0.8989 0.71293 0.70982 0.0
C3810 C 0.92543 0.72227 0.70449 0.0
C3811 C 0.89013 0.70903 0.70484 0.0
C3812 C 0.96339 0.73332 0.72511 0.0
C3813 C 0.95464 0.72898 0.72046 0.0
C3814 C 0.9281 0.72016 0.72574 0.0
C3815 C 0.90863 0.71248 0.70512 0.0
C3816 C 0.91793 0.71692 0.71025 0.0
C3817 C 0.9449 0.72994 0.725 0.0
C3818 C 0.9356 0.72546 0.71995 0.0
H3819 H 0.90143 0.70058 0.68289 0.0
H3820 H 0.91675 0.70725 0.69161 0.0
H3821 H 0.91384 0.71173 0.7256 0.0
H3822 H 0.95193 0.74392 0.74601 0.0
H3823 H 0.93668 0.73627 0.73793 0.0
C3824 C 0.69689 0.20123 0.61888 0.0
C3825 C 0.70341 0.19519 0.62506 0.0
C3826 C 0.70075 0.20651 0.61029 0.0
C3827 C 0.72515 0.2161 0.59867 0.0
H3828 H 0.70903 0.2167 0.5735 0.0
C3829 C 0.73817 0.23965 0.56308 0.0
C3830 C 0.73681 0.23504 0.55339 0.0
C3831 C 0.7338 0.23522 0.57189 0.0
C3832 C 0.71367 0.21656 0.58045 0.0
H3833 H 0.71918 0.19018 0.62711 0.0
H3834 H 0.72583 0.19914 0.61203 0.0
H3835 H 0.70211 0.20807 0.58869 0.0
H3836 H 0.72959 0.22224 0.54541 0.0
H3837 H 0.7222 0.21439 0.56077 0.0
H3838 H 0.73683 0.22431 0.59036 0.0
C3839 C 0.71775 0.1999 0.61387 0.0
C3840 C 0.70964 0.21171 0.58921 0.0
C3841 C 0.7139 0.19464 0.62246 0.0
C3842 C 0.73091 0.22593 0.55275 0.0
C3843 C 0.72655 0.2215 0.56155 0.0
C3844 C 0.72918 0.22093 0.58992 0.0
C3845 C 0.71123 0.20589 0.60766 0.0
C3846 C 0.71536 0.21136 0.59842 0.0
C3847 C 0.72796 0.22606 0.57125 0.0
C3848 C 0.72352 0.22118 0.58067 0.0
H3849 H 0.68876 0.20178 0.6206 0.0
H3850 H 0.69552 0.21113 0.60574 0.0
H3851 H 0.72973 0.2161 0.60566 0.0
H3852 H 0.74274 0.24661 0.56389 0.0
H3853 H 0.73496 0.23901 0.5792 0.0
C3854 C 0.31749 0.20286 0.62158 0.0
C3855 C 0.31177 0.19476 0.62606 0.0
C3856 C 0.31377 0.20802 0.61288 0.0
C3857 C 0.29597 0.20496 0.59096 0.0
H3858 H 0.29702 0.23473 0.5896 0.0
C3859 C 0.27471 0.2275 0.5592 0.0
C3860 C 0.27957 0.23628 0.55505 0.0
C3861 C 0.27882 0.22254 0.56783 0.0
C3862 C 0.2968 0.22641 0.58979 0.0
H3863 H 0.29753 0.18591 0.62496 0.0
H3864 H 0.29116 0.19479 0.60971 0.0
H3865 H 0.30399 0.22586 0.60465 0.0
H3866 H 0.29255 0.2468 0.55684 0.0
H3867 H 0.29988 0.23797 0.57169 0.0
H3868 H 0.28889 0.20544 0.57609 0.0
C3869 C 0.29857 0.19707 0.61288 0.0
C3870 C 0.30078 0.22133 0.59842 0.0
C3871 C 0.30225 0.19196 0.62161 0.0
C3872 C 0.28866 0.23998 0.55975 0.0
C3873 C 0.2928 0.23499 0.56836 0.0
C3874 C 0.29206 0.21002 0.5823 0.0
C3875 C 0.30429 0.20515 0.60841 0.0
C3876 C 0.30034 0.21055 0.59913 0.0
C3877 C 0.28794 0.22619 0.5725 0.0
C3878 C 0.29235 0.22081 0.58163 0.0
H3879 H 0.32492 0.20512 0.6247 0.0
H3880 H 0.31841 0.21414 0.60953 0.0
H3881 H 0.29567 0.19663 0.59121 0.0
H3882 H 0.26778 0.22434 0.55571 0.0
H3883 H 0.27478 0.21587 0.57088 0.0
C3884 C 0.31648 0.82488 0.61365 0.0
C3885 C 0.31491 0.82086 0.62358 0.0
C3886 C 0.31275 0.81965 0.605 0.0
C3887 C 0.30293 0.79415 0.59621 0.0
H3888 H 0.29131 0.81024 0.5739 0.0
C3889 C 0.2899 0.77575 0.55773 0.0
C3890 C 0.28092 0.77955 0.55302 0.0
C3891 C 0.29424 0.78067 0.56629 0.0
C3892 C 0.29444 0.80561 0.58009 0.0
H3893 H 0.30816 0.80818 0.63219 0.0
H3894 H 0.30153 0.79914 0.61714 0.0
H3895 H 0.29839 0.81891 0.58892 0.0
H3896 H 0.26953 0.79162 0.55366 0.0
H3897 H 0.27689 0.79997 0.56873 0.0
H3898 H 0.29866 0.78083 0.58751 0.0
C3899 C 0.30583 0.80623 0.616 0.0
C3900 C 0.29865 0.8106 0.58866 0.0
C3901 C 0.30962 0.81142 0.62464 0.0
C3902 C 0.27638 0.78838 0.55714 0.0
C3903 C 0.28069 0.79327 0.56572 0.0
C3904 C 0.29868 0.78915 0.58765 0.0
C3905 C 0.30728 0.81031 0.60605 0.0
C3906 C 0.30294 0.80495 0.59685 0.0
C3907 C 0.28971 0.78951 0.57039 0.0
C3908 C 0.29435 0.79481 0.57948 0.0
H3909 H 0.32066 0.83205 0.61255 0.0
H3910 H 0.3142 0.82294 0.59747 0.0
H3911 H 0.30627 0.78954 0.6023 0.0
H3912 H 0.29356 0.76891 0.55485 0.0
H3913 H 0.30124 0.7776 0.56961 0.0
C3914 C 0.71392 0.81333 0.62813 0.0
C3915 C 0.70516 0.81955 0.62738 0.0
C3916 C 0.71777 0.8084 0.61946 0.0
C3917 C 0.71082 0.80057 0.59281 0.0
H3918 H 0.74045 0.79917 0.58961 0.0
C3919 C 0.72956 0.77767 0.55993 0.0
C3920 C 0.7384 0.78193 0.55527 0.0
C3921 C 0.72544 0.78205 0.56879 0.0
C3922 C 0.73216 0.79957 0.59032 0.0
H3923 H 0.69358 0.82549 0.61692 0.0
H3924 H 0.70037 0.81702 0.60174 0.0
H3925 H 0.73333 0.80729 0.60476 0.0
H3926 H 0.74988 0.79413 0.55641 0.0
H3927 H 0.74253 0.80194 0.57162 0.0
H3928 H 0.70965 0.79315 0.5782 0.0
C3929 C 0.70416 0.81577 0.60907 0.0
C3930 C 0.72806 0.8041 0.5991 0.0
C3931 C 0.70027 0.82064 0.61777 0.0
C3932 C 0.743 0.7907 0.5597 0.0
C3933 C 0.73886 0.7951 0.56853 0.0
C3934 C 0.71492 0.79608 0.584 0.0
C3935 C 0.713 0.80963 0.60979 0.0
C3936 C 0.71734 0.80467 0.60047 0.0
C3937 C 0.73003 0.79083 0.5732 0.0
C3938 C 0.72564 0.79553 0.58263 0.0
H3939 H 0.71777 0.81221 0.63546 0.0
H3940 H 0.72446 0.80358 0.62035 0.0
H3941 H 0.70252 0.80076 0.59364 0.0
H3942 H 0.72573 0.77099 0.55667 0.0
H3943 H 0.71871 0.77847 0.57223 0.0
C3944 C 0.70307 0.82744 0.40223 0.0
C3945 C 0.70349 0.82276 0.39254 0.0
C3946 C 0.70685 0.82241 0.41097 0.0
C3947 C 0.71439 0.79671 0.42088 0.0
H3948 H 0.72944 0.81278 0.44113 0.0
C3949 C 0.73808 0.77838 0.45399 0.0
C3950 C 0.73726 0.7829 0.46375 0.0
C3951 C 0.7337 0.78307 0.44532 0.0
C3952 C 0.72517 0.8082 0.4356 0.0
H3953 H 0.70827 0.80914 0.38439 0.0
H3954 H 0.71501 0.8004 0.3996 0.0
H3955 H 0.72228 0.82126 0.426 0.0
H3956 H 0.7309 0.79577 0.47205 0.0
H3957 H 0.7234 0.80399 0.45694 0.0
H3958 H 0.71744 0.78362 0.43046 0.0
C3959 C 0.71156 0.80788 0.4005 0.0
C3960 C 0.72104 0.81306 0.42693 0.0
C3961 C 0.70771 0.81289 0.39178 0.0
C3962 C 0.73187 0.79218 0.46463 0.0
C3963 C 0.72755 0.79688 0.45597 0.0
C3964 C 0.71858 0.79184 0.42954 0.0
C3965 C 0.71123 0.81259 0.41021 0.0
C3966 C 0.71558 0.80739 0.41946 0.0
C3967 C 0.72844 0.7924 0.44622 0.0
C3968 C 0.724 0.79754 0.437 0.0
H3969 H 0.69972 0.83498 0.40309 0.0
H3970 H 0.70628 0.82619 0.41833 0.0
H3971 H 0.7101 0.79212 0.41537 0.0
H3972 H 0.74229 0.77132 0.45299 0.0
H3973 H 0.73462 0.77949 0.43789 0.0
C3974 C 0.69082 0.19888 0.40169 0.0
C3975 C 0.69487 0.20028 0.39177 0.0
C3976 C 0.69605 0.20273 0.41031 0.0
C3977 C 0.72163 0.21261 0.41913 0.0
H3978 H 0.70552 0.22451 0.44098 0.0
C3979 C 0.7401 0.226 0.45751 0.0
C3980 C 0.73629 0.235 0.46201 0.0
C3981 C 0.73517 0.2216 0.44898 0.0
C3982 C 0.71016 0.2213 0.43492 0.0
H3983 H 0.70759 0.20687 0.38314 0.0
H3984 H 0.71665 0.21371 0.39812 0.0
H3985 H 0.69682 0.21727 0.42604 0.0
H3986 H 0.7242 0.24636 0.461 0.0
H3987 H 0.71583 0.23891 0.44598 0.0
H3988 H 0.73499 0.21696 0.42787 0.0
C3989 C 0.70953 0.20945 0.39929 0.0
C3990 C 0.70515 0.217 0.4264 0.0
C3991 C 0.70433 0.20554 0.39068 0.0
C3992 C 0.72745 0.23951 0.45769 0.0
C3993 C 0.72255 0.23514 0.44914 0.0
C3994 C 0.72665 0.21695 0.42764 0.0
C3995 C 0.70543 0.20815 0.40922 0.0
C3996 C 0.71081 0.2126 0.41838 0.0
C3997 C 0.72631 0.2261 0.44469 0.0
C3998 C 0.72098 0.22138 0.43565 0.0
H3999 H 0.68363 0.19473 0.40281 0.0
H4000 H 0.69275 0.2014 0.41783 0.0
H4001 H 0.72625 0.20919 0.41317 0.0
H4002 H 0.74695 0.22238 0.46054 0.0
H4003 H 0.73823 0.21459 0.44584 0.0
C4004 C 0.31273 0.19964 0.39748 0.0
C4005 C 0.32059 0.20532 0.39256 0.0
C4006 C 0.30773 0.2036 0.40609 0.0
C4007 C 0.31119 0.22248 0.42694 0.0
H4008 H 0.28153 0.22012 0.4297 0.0
C4009 C 0.28939 0.24399 0.4586 0.0
C4010 C 0.28117 0.23885 0.46349 0.0
C4011 C 0.294 0.23981 0.44991 0.0
C4012 C 0.28983 0.22074 0.42912 0.0
H4013 H 0.32911 0.21977 0.3927 0.0
H4014 H 0.32049 0.22659 0.40773 0.0
H4015 H 0.28993 0.21289 0.41467 0.0
H4016 H 0.2714 0.22523 0.46309 0.0
H4017 H 0.27952 0.21787 0.44797 0.0
H4018 H 0.31116 0.23024 0.44139 0.0
C4019 C 0.3183 0.21901 0.40503 0.0
C4020 C 0.29464 0.2166 0.42049 0.0
C4021 C 0.32325 0.21508 0.39641 0.0
C4022 C 0.27763 0.22945 0.45943 0.0
C4023 C 0.28228 0.22524 0.45075 0.0
C4024 C 0.3064 0.22657 0.43557 0.0
C4025 C 0.31051 0.21331 0.41 0.0
C4026 C 0.30537 0.21748 0.41927 0.0
C4027 C 0.29056 0.23035 0.4459 0.0
C4028 C 0.29565 0.22582 0.43675 0.0
H4029 H 0.31056 0.19205 0.39481 0.0
H4030 H 0.30183 0.19897 0.40981 0.0
H4031 H 0.3195 0.22314 0.42632 0.0
H4032 H 0.29219 0.25133 0.46143 0.0
H4033 H 0.30022 0.24407 0.44626 0.0
C4034 C 0.30367 0.81256 0.38873 0.0
C4035 C 0.31289 0.81831 0.38921 0.0
C4036 C 0.29993 0.80737 0.39741 0.0
C4037 C 0.3076 0.79774 0.4233 0.0
H4038 H 0.27816 0.7981 0.42818 0.0
C4039 C 0.28845 0.77421 0.45617 0.0
C4040 C 0.28032 0.77883 0.46149 0.0
C4041 C 0.29256 0.77883 0.44733 0.0
C4042 C 0.28641 0.79798 0.42699 0.0
H4043 H 0.32544 0.82308 0.39923 0.0
H4044 H 0.31889 0.81412 0.41442 0.0
H4045 H 0.28514 0.80653 0.41296 0.0
H4046 H 0.27032 0.79206 0.4618 0.0
H4047 H 0.27751 0.80014 0.44646 0.0
H4048 H 0.30888 0.78944 0.43751 0.0
C4049 C 0.31461 0.81346 0.40727 0.0
C4050 C 0.29041 0.80271 0.41817 0.0
C4051 C 0.31837 0.81862 0.39856 0.0
C4052 C 0.27645 0.7882 0.45779 0.0
C4053 C 0.28058 0.79284 0.44898 0.0
C4054 C 0.3036 0.79303 0.43214 0.0
C4055 C 0.30529 0.80784 0.40684 0.0
C4056 C 0.30106 0.80267 0.4162 0.0
C4057 C 0.28866 0.7882 0.4436 0.0
C4058 C 0.29295 0.79311 0.43412 0.0
H4059 H 0.29934 0.81202 0.3816 0.0
H4060 H 0.29285 0.80295 0.39672 0.0
H4061 H 0.31583 0.79746 0.42199 0.0
H4062 H 0.29152 0.76693 0.45874 0.0
H4063 H 0.29867 0.77496 0.44331 0.0
C4064 C 0.61867 0.21174 0.69019 0.0
C4065 C 0.62486 0.20418 0.69482 0.0
C4066 C 0.60996 0.21543 0.69518 0.0
C4067 C 0.59797 0.21737 0.72094 0.0
H4068 H 0.57353 0.2239 0.70502 0.0
C4069 C 0.55938 0.22911 0.73968 0.0
C4070 C 0.55417 0.23738 0.73509 0.0
C4071 C 0.56794 0.22479 0.7349 0.0
C4072 C 0.58033 0.2222 0.70956 0.0
H4073 H 0.62665 0.19462 0.70842 0.0
H4074 H 0.61129 0.20086 0.717 0.0
H4075 H 0.58845 0.21671 0.69646 0.0
H4076 H 0.55379 0.24751 0.72179 0.0
H4077 H 0.56874 0.24004 0.7135 0.0
H4078 H 0.58978 0.22282 0.73406 0.0
C4079 C 0.61328 0.20404 0.70955 0.0
C4080 C 0.5889 0.21808 0.70465 0.0
C4081 C 0.62203 0.20036 0.70457 0.0
C4082 C 0.5577 0.24122 0.72559 0.0
C4083 C 0.5662 0.23686 0.72078 0.0
C4084 C 0.58937 0.22144 0.72586 0.0
C4085 C 0.60714 0.21164 0.70493 0.0
C4086 C 0.59787 0.21569 0.71025 0.0
C4087 C 0.57143 0.22859 0.72537 0.0
C4088 C 0.58048 0.22398 0.72021 0.0
H4089 H 0.6205 0.21477 0.68264 0.0
H4090 H 0.60551 0.22137 0.69143 0.0
H4091 H 0.60478 0.21576 0.72548 0.0
H4092 H 0.55691 0.22603 0.74703 0.0
H4093 H 0.57175 0.21839 0.7386 0.0
C4094 C 0.31441 0.12725 0.71502 0.0
C4095 C 0.31983 0.1269 0.70571 0.0
C4096 C 0.30912 0.11857 0.71868 0.0
C4097 C 0.29846 0.09325 0.71058 0.0
H4098 H 0.29955 0.08727 0.73981 0.0
C4099 C 0.28506 0.05435 0.72803 0.0
C4100 C 0.27938 0.05466 0.7372 0.0
C4101 C 0.28964 0.06328 0.72401 0.0
C4102 C 0.29908 0.08889 0.73165 0.0
H4103 H 0.32397 0.11718 0.69294 0.0
H4104 H 0.31485 0.10198 0.69938 0.0
H4105 H 0.30822 0.10258 0.73312 0.0
H4106 H 0.27385 0.0647 0.74919 0.0
H4107 H 0.28194 0.08024 0.74224 0.0
H4108 H 0.28943 0.07944 0.70913 0.0
C4109 C 0.31452 0.10901 0.70377 0.0
C4110 C 0.30404 0.09768 0.7278 0.0
C4111 C 0.31976 0.11771 0.70008 0.0
C4112 C 0.27833 0.06414 0.74222 0.0
C4113 C 0.28294 0.07305 0.73823 0.0
C4114 C 0.29355 0.08442 0.71443 0.0
C4115 C 0.30917 0.10931 0.71315 0.0
C4116 C 0.3038 0.09998 0.71722 0.0
C4117 C 0.28868 0.07272 0.7291 0.0
C4118 C 0.2938 0.08215 0.725 0.0
H4119 H 0.31418 0.13427 0.71945 0.0
H4120 H 0.30492 0.11915 0.72583 0.0
H4121 H 0.29798 0.09485 0.70242 0.0
H4122 H 0.28617 0.04716 0.72405 0.0
H4123 H 0.29412 0.06274 0.71704 0.0
C4124 C 0.39062 0.80813 0.7047 0.0
C4125 C 0.39177 0.81553 0.69686 0.0
C4126 C 0.39924 0.80435 0.70994 0.0
C4127 C 0.42763 0.80193 0.7075 0.0
H4128 H 0.42626 0.7953 0.73657 0.0
C4129 C 0.46358 0.79036 0.73118 0.0
C4130 C 0.46243 0.78194 0.73793 0.0
C4131 C 0.45498 0.7947 0.72638 0.0
C4132 C 0.42673 0.79704 0.72843 0.0
H4133 H 0.40285 0.82499 0.6886 0.0
H4134 H 0.41786 0.81853 0.69784 0.0
H4135 H 0.41127 0.80258 0.72791 0.0
H4136 H 0.45131 0.77163 0.74506 0.0
H4137 H 0.4363 0.7792 0.73664 0.0
H4138 H 0.44312 0.79645 0.70806 0.0
C4139 C 0.41033 0.81545 0.69978 0.0
C4140 C 0.41813 0.8012 0.72345 0.0
C4141 C 0.40172 0.81918 0.6945 0.0
C4142 C 0.45246 0.77805 0.73984 0.0
C4143 C 0.44386 0.78245 0.73509 0.0
C4144 C 0.43624 0.79783 0.71249 0.0
C4145 C 0.40923 0.80791 0.70752 0.0
C4146 C 0.41845 0.80367 0.7129 0.0
C4147 C 0.44502 0.79079 0.72826 0.0
C4148 C 0.43589 0.79531 0.72301 0.0
H4149 H 0.38308 0.80507 0.70661 0.0
H4150 H 0.39808 0.79844 0.71573 0.0
H4151 H 0.42812 0.80354 0.69934 0.0
H4152 H 0.47115 0.79348 0.72947 0.0
H4153 H 0.45613 0.80118 0.72122 0.0
C4154 C 0.69117 0.90114 0.70227 0.0
C4155 C 0.69565 0.89139 0.70319 0.0
C4156 C 0.69628 0.90988 0.706 0.0
C4157 C 0.72198 0.9197 0.71437 0.0
H4158 H 0.70576 0.94026 0.72819 0.0
C4159 C 0.74024 0.95318 0.73775 0.0
C4160 C 0.73573 0.96291 0.73664 0.0
C4161 C 0.73557 0.94446 0.73341 0.0
C4162 C 0.71039 0.93465 0.72426 0.0
H4163 H 0.70904 0.88319 0.70874 0.0
H4164 H 0.71793 0.89842 0.71535 0.0
H4165 H 0.69726 0.9251 0.72108 0.0
H4166 H 0.72292 0.9711 0.72978 0.0
H4167 H 0.71476 0.95592 0.72232 0.0
H4168 H 0.73513 0.92926 0.7177 0.0
C4169 C 0.71053 0.89935 0.71159 0.0
C4170 C 0.70551 0.92595 0.72016 0.0
C4171 C 0.70543 0.89061 0.70781 0.0
C4172 C 0.7265 0.96371 0.73098 0.0
C4173 C 0.72182 0.955 0.72668 0.0
C4174 C 0.72687 0.9284 0.71852 0.0
C4175 C 0.70599 0.90909 0.7108 0.0
C4176 C 0.71123 0.91837 0.71514 0.0
C4177 C 0.72627 0.94527 0.72788 0.0
C4178 C 0.72112 0.93599 0.72349 0.0
H4179 H 0.68372 0.90202 0.69861 0.0
H4180 H 0.69264 0.91727 0.70507 0.0
H4181 H 0.72662 0.9141 0.71044 0.0
H4182 H 0.74727 0.95225 0.74217 0.0
H4183 H 0.73913 0.93705 0.73458 0.0
C4184 C 0.62239 0.80109 0.3241 0.0
C4185 C 0.62609 0.81111 0.32215 0.0
C4186 C 0.61373 0.79726 0.3189 0.0
C4187 C 0.59796 0.80078 0.29555 0.0
H4188 H 0.57721 0.78579 0.31109 0.0
C4189 C 0.55876 0.78838 0.27779 0.0
C4190 C 0.55472 0.77873 0.28071 0.0
C4191 C 0.56753 0.79242 0.28268 0.0
C4192 C 0.58299 0.78984 0.3066 0.0
H4193 H 0.62351 0.82497 0.31318 0.0
H4194 H 0.60845 0.81822 0.30402 0.0
H4195 H 0.59239 0.79265 0.31988 0.0
H4196 H 0.55689 0.76563 0.29083 0.0
H4197 H 0.57223 0.77259 0.29926 0.0
H4198 H 0.58861 0.79788 0.28224 0.0
C4199 C 0.61233 0.81331 0.30953 0.0
C4200 C 0.59168 0.79379 0.31165 0.0
C4201 C 0.62097 0.81717 0.31478 0.0
C4202 C 0.55972 0.77315 0.28852 0.0
C4203 C 0.56851 0.77716 0.29337 0.0
C4204 C 0.58928 0.79678 0.29048 0.0
C4205 C 0.60858 0.80334 0.31158 0.0
C4206 C 0.59928 0.79927 0.30618 0.0
C4207 C 0.57248 0.78688 0.29057 0.0
C4208 C 0.5817 0.79123 0.29594 0.0
H4209 H 0.62626 0.79613 0.32957 0.0
H4210 H 0.61114 0.78948 0.32052 0.0
H4211 H 0.60375 0.80488 0.29111 0.0
H4212 H 0.55501 0.79291 0.27189 0.0
H4213 H 0.57029 0.79998 0.28042 0.0
C4214 C 0.71395 0.12182 0.32045 0.0
C4215 C 0.70343 0.12429 0.31993 0.0
C4216 C 0.71775 0.11334 0.31519 0.0
C4217 C 0.70952 0.08866 0.30353 0.0
H4218 H 0.73651 0.09012 0.29093 0.0
C4219 C 0.73059 0.05247 0.28941 0.0
C4220 C 0.73634 0.05324 0.28029 0.0
C4221 C 0.72632 0.06121 0.29384 0.0
C4222 C 0.72891 0.08959 0.29431 0.0
H4223 H 0.68868 0.11973 0.3134 0.0
H4224 H 0.69535 0.10504 0.30404 0.0
H4225 H 0.72948 0.10532 0.29904 0.0
H4226 H 0.7421 0.06389 0.26872 0.0
H4227 H 0.73446 0.07907 0.27631 0.0
H4228 H 0.70888 0.07298 0.29863 0.0
C4229 C 0.70064 0.10961 0.30864 0.0
C4230 C 0.72493 0.09829 0.29908 0.0
C4231 C 0.69683 0.11811 0.31391 0.0
C4232 C 0.73764 0.06298 0.27569 0.0
C4233 C 0.73336 0.07172 0.28011 0.0
C4234 C 0.7135 0.07996 0.29874 0.0
C4235 C 0.71114 0.10709 0.30924 0.0
C4236 C 0.71521 0.09792 0.30382 0.0
C4237 C 0.72767 0.07096 0.28927 0.0
C4238 C 0.72328 0.0803 0.29412 0.0
H4239 H 0.71929 0.12648 0.32489 0.0
H4240 H 0.72586 0.11158 0.31593 0.0
H4241 H 0.70205 0.08806 0.30717 0.0
H4242 H 0.72932 0.04509 0.2931 0.0
H4243 H 0.72209 0.06034 0.30095 0.0
C4244 C 0.39981 0.19204 0.31547 0.0
C4245 C 0.38998 0.19644 0.31476 0.0
C4246 C 0.40847 0.19723 0.31163 0.0
C4247 C 0.41799 0.22299 0.30325 0.0
H4248 H 0.43851 0.207 0.28909 0.0
C4249 C 0.45701 0.24046 0.28994 0.0
C4250 C 0.46096 0.23714 0.2805 0.0
C4251 C 0.44827 0.23572 0.2942 0.0
C4252 C 0.43282 0.21161 0.29293 0.0
H4253 H 0.38157 0.20977 0.30946 0.0
H4254 H 0.39665 0.2188 0.30265 0.0
H4255 H 0.42345 0.19841 0.29631 0.0
H4256 H 0.45862 0.22645 0.26795 0.0
H4257 H 0.44334 0.21827 0.27529 0.0
H4258 H 0.42725 0.23623 0.2996 0.0
C4259 C 0.39771 0.21141 0.30634 0.0
C4260 C 0.42424 0.20665 0.29722 0.0
C4261 C 0.38905 0.20623 0.31024 0.0
C4262 C 0.45588 0.22907 0.27533 0.0
C4263 C 0.44712 0.22437 0.27955 0.0
C4264 C 0.42657 0.22795 0.29894 0.0
C4265 C 0.40752 0.20694 0.30692 0.0
C4266 C 0.4167 0.21227 0.30244 0.0
C4267 C 0.44325 0.22757 0.28908 0.0
C4268 C 0.4341 0.22233 0.29371 0.0
H4269 H 0.40081 0.18458 0.31907 0.0
H4270 H 0.41592 0.19365 0.3124 0.0
H4271 H 0.4124 0.22755 0.3073 0.0
H4272 H 0.46083 0.24657 0.29418 0.0
H4273 H 0.4456 0.23831 0.30161 0.0
C4274 C 0.31103 0.89066 0.30862 0.0
C4275 C 0.32078 0.89175 0.31329 0.0
C4276 C 0.30578 0.89926 0.30488 0.0
C4277 C 0.30451 0.92757 0.30707 0.0
H4278 H 0.29158 0.92606 0.28017 0.0
C4279 C 0.29 0.96372 0.28569 0.0
C4280 C 0.28083 0.96293 0.27991 0.0
C4281 C 0.29451 0.95499 0.29002 0.0
C4282 C 0.29501 0.92658 0.28776 0.0
H4283 H 0.33253 0.9028 0.31791 0.0
H4284 H 0.32342 0.91778 0.31133 0.0
H4285 H 0.29997 0.91094 0.28736 0.0
H4286 H 0.26926 0.95222 0.27417 0.0
H4287 H 0.27698 0.93704 0.28194 0.0
H4288 H 0.29955 0.94319 0.3075 0.0
C4289 C 0.31981 0.91027 0.31059 0.0
C4290 C 0.29984 0.91791 0.29187 0.0
C4291 C 0.32508 0.90167 0.31427 0.0
C4292 C 0.27626 0.95316 0.27865 0.0
C4293 C 0.28076 0.94441 0.283 0.0
C4294 C 0.29964 0.93623 0.30298 0.0
C4295 C 0.31013 0.90917 0.30578 0.0
C4296 C 0.3047 0.91831 0.30155 0.0
C4297 C 0.28997 0.94521 0.28873 0.0
C4298 C 0.29489 0.93588 0.29323 0.0
H4299 H 0.30753 0.88312 0.30767 0.0
H4300 H 0.2983 0.89815 0.30131 0.0
H4301 H 0.30804 0.9281 0.31462 0.0
H4302 H 0.29367 0.97113 0.28695 0.0
H4303 H 0.30166 0.9559 0.29427 0.0
C4304 C 0.70369 0.12229 0.70044 0.0
C4305 C 0.69421 0.12532 0.70459 0.0
C4306 C 0.70879 0.11365 0.70432 0.0
C4307 C 0.71059 0.09722 0.72746 0.0
H4308 H 0.72293 0.07753 0.7091 0.0
C4309 C 0.72577 0.05826 0.74216 0.0
C4310 C 0.73482 0.05439 0.73779 0.0
C4311 C 0.72103 0.06696 0.73803 0.0
C4312 C 0.71965 0.08302 0.71435 0.0
H4313 H 0.68254 0.12138 0.71589 0.0
H4314 H 0.69149 0.10645 0.7227 0.0
H4315 H 0.71433 0.09259 0.70199 0.0
H4316 H 0.74591 0.05671 0.72554 0.0
H4317 H 0.73781 0.07205 0.71853 0.0
H4318 H 0.71596 0.08775 0.73983 0.0
C4319 C 0.69505 0.11084 0.71654 0.0
C4320 C 0.7147 0.09165 0.71027 0.0
C4321 C 0.68993 0.11943 0.71264 0.0
C4322 C 0.73902 0.05951 0.72919 0.0
C4323 C 0.73429 0.06825 0.72508 0.0
C4324 C 0.71558 0.08863 0.73155 0.0
C4325 C 0.70456 0.10787 0.71247 0.0
C4326 C 0.71005 0.09881 0.71678 0.0
C4327 C 0.72522 0.07209 0.72944 0.0
C4328 C 0.72012 0.08137 0.72506 0.0
H4329 H 0.7073 0.12671 0.69434 0.0
H4330 H 0.71616 0.11162 0.70108 0.0
H4331 H 0.70723 0.10268 0.7327 0.0
H4332 H 0.72238 0.05461 0.74886 0.0
H4333 H 0.71398 0.0696 0.74153 0.0
C4334 C 0.69693 0.8987 0.31736 0.0
C4335 C 0.6968 0.88944 0.31183 0.0
C4336 C 0.70223 0.90733 0.31357 0.0
C4337 C 0.71275 0.91834 0.28942 0.0
H4338 H 0.72743 0.93672 0.30791 0.0
C4339 C 0.73845 0.95174 0.27466 0.0
C4340 C 0.73738 0.96127 0.27958 0.0
C4341 C 0.73386 0.94286 0.27874 0.0
C4342 C 0.7233 0.9317 0.30266 0.0
H4343 H 0.70237 0.8819 0.29816 0.0
H4344 H 0.71173 0.89689 0.29162 0.0
H4345 H 0.71885 0.92139 0.31477 0.0
H4346 H 0.73059 0.96888 0.29268 0.0
H4347 H 0.7227 0.95335 0.29985 0.0
H4348 H 0.71726 0.92863 0.27731 0.0
C4349 C 0.70755 0.89757 0.29876 0.0
C4350 C 0.71836 0.92292 0.30659 0.0
C4351 C 0.7022 0.88897 0.30251 0.0
C4352 C 0.73172 0.96165 0.28876 0.0
C4353 C 0.72718 0.95275 0.29287 0.0
C4354 C 0.71774 0.92708 0.28549 0.0
C4355 C 0.70757 0.90689 0.3042 0.0
C4356 C 0.71299 0.91615 0.30002 0.0
C4357 C 0.72814 0.94327 0.28787 0.0
C4358 C 0.72303 0.93387 0.29206 0.0
H4359 H 0.69274 0.89934 0.3245 0.0
H4360 H 0.70195 0.91441 0.3179 0.0
H4361 H 0.70854 0.91341 0.28415 0.0
H4362 H 0.74291 0.95113 0.26768 0.0
H4363 H 0.73488 0.93563 0.27479 0.0
C4364 C 0.6183 0.18992 0.30427 0.0
C4365 C 0.62436 0.19406 0.31227 0.0
C4366 C 0.60955 0.19503 0.30069 0.0
C4367 C 0.59718 0.22062 0.30024 0.0
H4368 H 0.57303 0.20478 0.29208 0.0
C4369 C 0.55825 0.23939 0.28919 0.0
C4370 C 0.55305 0.23537 0.28055 0.0
C4371 C 0.56692 0.23449 0.29327 0.0
C4372 C 0.57974 0.20931 0.29424 0.0
H4373 H 0.6259 0.2069 0.32275 0.0
H4374 H 0.61048 0.21566 0.31672 0.0
H4375 H 0.58805 0.19598 0.29897 0.0
H4376 H 0.55313 0.2231 0.26931 0.0
H4377 H 0.56814 0.21451 0.27649 0.0
H4378 H 0.58879 0.23397 0.29556 0.0
C4379 C 0.61259 0.20852 0.3131 0.0
C4380 C 0.58837 0.20427 0.29818 0.0
C4381 C 0.62138 0.20342 0.31665 0.0
C4382 C 0.5568 0.22633 0.27608 0.0
C4383 C 0.56542 0.2214 0.28019 0.0
C4384 C 0.58851 0.22568 0.29634 0.0
C4385 C 0.60657 0.2044 0.30505 0.0
C4386 C 0.59725 0.20984 0.30116 0.0
C4387 C 0.57058 0.2254 0.28884 0.0
C4388 C 0.57972 0.22008 0.29323 0.0
H4389 H 0.62026 0.18266 0.30079 0.0
H4390 H 0.6052 0.19167 0.29441 0.0
H4391 H 0.60391 0.22517 0.30231 0.0
H4392 H 0.55551 0.24624 0.29294 0.0
H4393 H 0.57065 0.2377 0.30001 0.0
C4394 C 0.31316 0.11568 0.32665 0.0
C4395 C 0.31169 0.12558 0.32256 0.0
C4396 C 0.30944 0.107 0.32145 0.0
C4397 C 0.30003 0.0981 0.2959 0.0
H4398 H 0.28832 0.07569 0.31194 0.0
C4399 C 0.28786 0.05936 0.27752 0.0
C4400 C 0.27891 0.05445 0.28125 0.0
C4401 C 0.29196 0.06804 0.28244 0.0
C4402 C 0.29147 0.08191 0.30732 0.0
H4403 H 0.30514 0.13413 0.3098 0.0
H4404 H 0.29852 0.11902 0.3008 0.0
H4405 H 0.29512 0.09083 0.32064 0.0
H4406 H 0.26729 0.05487 0.29317 0.0
H4407 H 0.27421 0.07016 0.30153 0.0
H4408 H 0.29606 0.08931 0.28256 0.0
C4409 C 0.30273 0.11792 0.30793 0.0
C4410 C 0.29552 0.09055 0.31233 0.0
C4411 C 0.30651 0.1266 0.31309 0.0
C4412 C 0.27412 0.0585 0.28999 0.0
C4413 C 0.27819 0.0672 0.29489 0.0
C4414 C 0.29593 0.08948 0.29088 0.0
C4415 C 0.3041 0.10801 0.31206 0.0
C4416 C 0.29986 0.09877 0.30669 0.0
C4417 C 0.28719 0.07207 0.29121 0.0
C4418 C 0.29159 0.08126 0.29653 0.0
H4419 H 0.31726 0.11463 0.33385 0.0
H4420 H 0.31084 0.09949 0.32478 0.0
H4421 H 0.30341 0.10422 0.2913 0.0
H4422 H 0.2917 0.05654 0.27073 0.0
H4423 H 0.29896 0.0715 0.27944 0.0
C4424 C 0.39755 0.81972 0.3134 0.0
C4425 C 0.39137 0.81304 0.31934 0.0
C4426 C 0.4061 0.81602 0.30809 0.0
C4427 C 0.4175 0.79196 0.29821 0.0
H4428 H 0.44287 0.80797 0.29802 0.0
C4429 C 0.45297 0.77961 0.27472 0.0
C4430 C 0.4627 0.78078 0.27942 0.0
C4431 C 0.4442 0.78385 0.27916 0.0
C4432 C 0.43586 0.80337 0.29804 0.0
H4433 H 0.38924 0.79716 0.32412 0.0
H4434 H 0.40422 0.79078 0.3151 0.0
H4435 H 0.42773 0.81466 0.30663 0.0
H4436 H 0.47081 0.78753 0.2924 0.0
H4437 H 0.4555 0.79469 0.30026 0.0
H4438 H 0.4257 0.78053 0.28989 0.0
C4439 C 0.40242 0.79887 0.31445 0.0
C4440 C 0.42714 0.80727 0.30288 0.0
C4441 C 0.3939 0.80256 0.31975 0.0
C4442 C 0.46343 0.78636 0.28863 0.0
C4443 C 0.45466 0.79059 0.29307 0.0
C4444 C 0.42622 0.78806 0.29338 0.0
C4445 C 0.40866 0.80554 0.30857 0.0
C4446 C 0.41785 0.80158 0.30309 0.0
C4447 C 0.44492 0.78937 0.28842 0.0
C4448 C 0.43554 0.79368 0.29329 0.0
H4449 H 0.39589 0.82785 0.31297 0.0
H4450 H 0.41066 0.82137 0.30355 0.0
H4451 H 0.41045 0.78742 0.2981 0.0
H4452 H 0.4521 0.77529 0.26767 0.0
H4453 H 0.43685 0.78285 0.27529 0.0
C4454 C 0.31895 0.90024 0.698 0.0
C4455 C 0.31831 0.89079 0.70326 0.0
C4456 C 0.31397 0.90892 0.70177 0.0
C4457 C 0.30323 0.91943 0.72584 0.0
H4458 H 0.2906 0.93926 0.70748 0.0
C4459 C 0.28959 0.95886 0.74022 0.0
C4460 C 0.28027 0.96267 0.73625 0.0
C4461 C 0.29407 0.95012 0.73602 0.0
C4462 C 0.29402 0.93376 0.71273 0.0
H4463 H 0.31157 0.88296 0.71641 0.0
H4464 H 0.30281 0.89803 0.72293 0.0
H4465 H 0.2983 0.92382 0.70043 0.0
H4466 H 0.26833 0.9602 0.72478 0.0
H4467 H 0.27611 0.94491 0.71748 0.0
H4468 H 0.29878 0.92923 0.73815 0.0
C4469 C 0.30736 0.89882 0.71601 0.0
C4470 C 0.29854 0.92495 0.70867 0.0
C4471 C 0.31238 0.89017 0.71226 0.0
C4472 C 0.27558 0.95755 0.72793 0.0
C4473 C 0.28005 0.94878 0.72374 0.0
C4474 C 0.2987 0.92821 0.72989 0.0
C4475 C 0.30818 0.90835 0.71089 0.0
C4476 C 0.30322 0.91767 0.71517 0.0
C4477 C 0.28934 0.94493 0.72775 0.0
C4478 C 0.29406 0.93552 0.72339 0.0
H4479 H 0.32356 0.90101 0.69111 0.0
H4480 H 0.31488 0.91614 0.69769 0.0
H4481 H 0.30687 0.91407 0.73108 0.0
H4482 H 0.29351 0.96272 0.7465 0.0
H4483 H 0.30132 0.9475 0.73918 0.0
C4484 C 0.61717 0.8171 0.69758 0.0
C4485 C 0.62637 0.8115 0.69768 0.0
C4486 C 0.60844 0.81339 0.70274 0.0
C4487 C 0.597 0.78929 0.71317 0.0
H4488 H 0.57865 0.80782 0.72717 0.0
C4489 C 0.5573 0.77583 0.72815 0.0
C4490 C 0.55401 0.77962 0.73767 0.0
C4491 C 0.56613 0.77985 0.72343 0.0
C4492 C 0.58374 0.80252 0.72337 0.0
H4493 H 0.63371 0.79777 0.70359 0.0
H4494 H 0.61855 0.79137 0.71268 0.0
H4495 H 0.59419 0.81461 0.71901 0.0
H4496 H 0.5575 0.79056 0.74975 0.0
H4497 H 0.57297 0.79752 0.74156 0.0
H4498 H 0.58671 0.77717 0.71773 0.0
C4499 C 0.61798 0.79851 0.70841 0.0
C4500 C 0.59259 0.80644 0.71858 0.0
C4501 C 0.62669 0.80219 0.70322 0.0
C4502 C 0.55976 0.78756 0.74235 0.0
C4503 C 0.56862 0.79156 0.73765 0.0
C4504 C 0.58818 0.78537 0.71798 0.0
C4505 C 0.60871 0.80401 0.70817 0.0
C4506 C 0.59933 0.79987 0.7134 0.0
C4507 C 0.57193 0.78774 0.72813 0.0
C4508 C 0.5814 0.79194 0.72312 0.0
H4509 H 0.61664 0.82424 0.69329 0.0
H4510 H 0.6014 0.81777 0.70227 0.0
H4511 H 0.60194 0.78401 0.70915 0.0
H4512 H 0.55295 0.76984 0.72426 0.0
H4513 H 0.56832 0.77686 0.71602 0.0
C4514 C 0.38891 0.21549 0.70243 0.0
C4515 C 0.38918 0.20607 0.69721 0.0
C4516 C 0.39767 0.21926 0.70752 0.0
C4517 C 0.42317 0.21146 0.71787 0.0
H4518 H 0.42912 0.24068 0.71614 0.0
C4519 C 0.45664 0.23052 0.74064 0.0
C4520 C 0.46229 0.23836 0.73567 0.0
C4521 C 0.44764 0.22651 0.73619 0.0
C4522 C 0.42763 0.23249 0.71663 0.0
H4523 H 0.39885 0.19324 0.69321 0.0
H4524 H 0.41418 0.19987 0.70196 0.0
H4525 H 0.41372 0.23375 0.70787 0.0
H4526 H 0.46303 0.24796 0.72202 0.0
H4527 H 0.44742 0.2409 0.71418 0.0
H4528 H 0.43728 0.21016 0.72635 0.0
C4529 C 0.40715 0.20426 0.70231 0.0
C4530 C 0.41871 0.22853 0.71201 0.0
C4531 C 0.39837 0.20046 0.69727 0.0
C4532 C 0.45877 0.24204 0.72612 0.0
C4533 C 0.4498 0.238 0.72164 0.0
C4534 C 0.43213 0.21542 0.72247 0.0
C4535 C 0.40693 0.21374 0.70745 0.0
C4536 C 0.41636 0.21796 0.71255 0.0
C4537 C 0.44409 0.23021 0.72663 0.0
C4538 C 0.43449 0.22598 0.72188 0.0
H4539 H 0.3819 0.21991 0.70265 0.0
H4540 H 0.39715 0.22649 0.71156 0.0
H4541 H 0.42156 0.2033 0.71854 0.0
H4542 H 0.4591 0.22761 0.74807 0.0
H4543 H 0.44336 0.22062 0.74033 0.0
C4544 C 0.6977 0.6964 0.11656 0.0
C4545 C 0.7032 0.69682 0.1259 0.0
C4546 C 0.70147 0.70142 0.10778 0.0
C4547 C 0.7194 0.72204 0.09925 0.0
H4548 H 0.71881 0.70749 0.07332 0.0
C4549 C 0.74151 0.73685 0.06351 0.0
C4550 C 0.73683 0.73563 0.05381 0.0
C4551 C 0.73715 0.73236 0.07229 0.0
C4552 C 0.71891 0.71174 0.08046 0.0
H4553 H 0.71683 0.70308 0.13339 0.0
H4554 H 0.72344 0.71178 0.11807 0.0
H4555 H 0.71153 0.69937 0.08862 0.0
H4556 H 0.72386 0.72862 0.04578 0.0
H4557 H 0.71612 0.72104 0.0611 0.0
H4558 H 0.72674 0.73442 0.09111 0.0
C4559 C 0.7162 0.70759 0.11754 0.0
C4560 C 0.71474 0.70707 0.08924 0.0
C4561 C 0.71246 0.70252 0.12629 0.0
C4562 C 0.72763 0.72983 0.05313 0.0
C4563 C 0.72325 0.72536 0.06191 0.0
C4564 C 0.72353 0.72674 0.09046 0.0
C4565 C 0.71079 0.70704 0.10815 0.0
C4566 C 0.71497 0.71214 0.09875 0.0
C4567 C 0.72797 0.72654 0.07161 0.0
C4568 C 0.72339 0.72163 0.08095 0.0
H4569 H 0.69059 0.69201 0.11597 0.0
H4570 H 0.69707 0.70093 0.1007 0.0
H4571 H 0.71957 0.72622 0.10643 0.0
H4572 H 0.74853 0.74136 0.06435 0.0
H4573 H 0.74106 0.73334 0.0796 0.0
C4574 C 0.31638 0.69633 0.11808 0.0
C4575 C 0.31071 0.69614 0.12726 0.0
C4576 C 0.31269 0.70157 0.10942 0.0
C4577 C 0.28859 0.71181 0.09813 0.0
H4578 H 0.30734 0.72639 0.07993 0.0
C4579 C 0.27545 0.72714 0.05858 0.0
C4580 C 0.27935 0.73672 0.0553 0.0
C4581 C 0.27939 0.72238 0.0674 0.0
C4582 C 0.30198 0.72244 0.08498 0.0
H4583 H 0.29688 0.70158 0.13464 0.0
H4584 H 0.2905 0.71084 0.11961 0.0
H4585 H 0.31401 0.7181 0.0954 0.0
H4586 H 0.29036 0.74888 0.05877 0.0
H4587 H 0.29715 0.74065 0.07425 0.0
H4588 H 0.27653 0.71636 0.08788 0.0
C4589 C 0.29768 0.70674 0.119 0.0
C4590 C 0.30583 0.71757 0.09379 0.0
C4591 C 0.30134 0.70144 0.12763 0.0
C4592 C 0.28728 0.74144 0.06104 0.0
C4593 C 0.29118 0.7367 0.0699 0.0
C4594 C 0.28474 0.71671 0.08936 0.0
C4595 C 0.30326 0.7068 0.10976 0.0
C4596 C 0.29918 0.71216 0.10046 0.0
C4597 C 0.28728 0.72711 0.0732 0.0
C4598 C 0.29139 0.72205 0.08264 0.0
H4599 H 0.32356 0.69222 0.11752 0.0
H4600 H 0.31712 0.70133 0.1024 0.0
H4601 H 0.28325 0.70761 0.10302 0.0
H4602 H 0.26946 0.72323 0.05423 0.0
H4603 H 0.27633 0.71491 0.06958 0.0
C4604 C 0.30372 0.3139 0.12577 0.0
C4605 C 0.31295 0.31965 0.12555 0.0
C4606 C 0.30024 0.30865 0.11703 0.0
C4607 C 0.30245 0.30858 0.08879 0.0
H4608 H 0.29055 0.28121 0.09115 0.0
C4609 C 0.29037 0.285 0.05302 0.0
C4610 C 0.28116 0.27921 0.05362 0.0
C4611 C 0.29458 0.28966 0.06178 0.0
C4612 C 0.29374 0.2889 0.09036 0.0
H4613 H 0.32579 0.32437 0.11595 0.0
H4614 H 0.31976 0.31514 0.10071 0.0
H4615 H 0.29731 0.28978 0.10644 0.0
H4616 H 0.26929 0.27367 0.06401 0.0
H4617 H 0.27647 0.28201 0.0792 0.0
H4618 H 0.29877 0.30779 0.07275 0.0
C4619 C 0.31517 0.31475 0.10764 0.0
C4620 C 0.29763 0.2938 0.09913 0.0
C4621 C 0.31868 0.31995 0.1164 0.0
C4622 C 0.27632 0.27817 0.06322 0.0
C4623 C 0.28052 0.28285 0.07198 0.0
C4624 C 0.29852 0.3037 0.08002 0.0
C4625 C 0.30589 0.30906 0.10784 0.0
C4626 C 0.302 0.30372 0.09846 0.0
C4627 C 0.28969 0.28868 0.07138 0.0
C4628 C 0.29408 0.2938 0.08069 0.0
H4629 H 0.29917 0.31342 0.13272 0.0
H4630 H 0.29302 0.30441 0.11743 0.0
H4631 H 0.30563 0.31628 0.08802 0.0
H4632 H 0.29426 0.28607 0.04574 0.0
H4633 H 0.30172 0.29398 0.06104 0.0
C4634 C 0.699 0.3125 0.12146 0.0
C4635 C 0.70443 0.32083 0.12586 0.0
C4636 C 0.70297 0.30733 0.11297 0.0
C4637 C 0.72734 0.3032 0.09874 0.0
H4638 H 0.70902 0.29451 0.07672 0.0
C4639 C 0.74238 0.28987 0.05937 0.0
C4640 C 0.73763 0.28118 0.05492 0.0
C4641 C 0.73825 0.29438 0.06814 0.0
C4642 C 0.71422 0.29679 0.08285 0.0
H4643 H 0.71839 0.33009 0.1248 0.0
H4644 H 0.72512 0.32133 0.10986 0.0
H4645 H 0.70196 0.30296 0.09179 0.0
H4646 H 0.72483 0.27041 0.05633 0.0
H4647 H 0.71756 0.27838 0.07157 0.0
H4648 H 0.73961 0.29717 0.08972 0.0
C4649 C 0.71787 0.31868 0.11305 0.0
C4650 C 0.71017 0.30162 0.09151 0.0
C4651 C 0.71392 0.32382 0.12155 0.0
C4652 C 0.72861 0.27717 0.05945 0.0
C4653 C 0.72445 0.28173 0.0682 0.0
C4654 C 0.73138 0.29843 0.09006 0.0
C4655 C 0.71245 0.31036 0.10864 0.0
C4656 C 0.71669 0.30494 0.09954 0.0
C4657 C 0.72924 0.29037 0.07266 0.0
C4658 C 0.72488 0.29522 0.08199 0.0
H4659 H 0.69162 0.31004 0.12451 0.0
H4660 H 0.69864 0.3009 0.10985 0.0
H4661 H 0.73257 0.30546 0.10485 0.0
H4662 H 0.74921 0.2933 0.05599 0.0
H4663 H 0.74204 0.30114 0.0713 0.0
C4664 C 0.69947 0.32067 0.90037 0.0
C4665 C 0.70519 0.3207 0.89122 0.0
C4666 C 0.70312 0.31555 0.90912 0.0
C4667 C 0.72087 0.29521 0.91758 0.0
H4668 H 0.71992 0.30908 0.94387 0.0
C4669 C 0.74224 0.27988 0.9535 0.0
C4670 C 0.7374 0.28081 0.9631 0.0
C4671 C 0.73805 0.28451 0.94472 0.0
C4672 C 0.72011 0.30502 0.93662 0.0
H4673 H 0.71909 0.3152 0.884 0.0
H4674 H 0.72547 0.3063 0.89929 0.0
H4675 H 0.71296 0.31748 0.92858 0.0
H4676 H 0.72433 0.28738 0.97094 0.0
H4677 H 0.71687 0.29516 0.9556 0.0
H4678 H 0.72796 0.28273 0.9256 0.0
C4679 C 0.71816 0.31021 0.89969 0.0
C4680 C 0.71613 0.30985 0.92786 0.0
C4681 C 0.71456 0.31539 0.89097 0.0
C4682 C 0.72821 0.2864 0.96367 0.0
C4683 C 0.724 0.29099 0.95488 0.0
C4684 C 0.7248 0.29035 0.92636 0.0
C4685 C 0.71252 0.31029 0.90888 0.0
C4686 C 0.71651 0.30503 0.91823 0.0
C4687 C 0.72889 0.29014 0.9453 0.0
C4688 C 0.72452 0.29522 0.93598 0.0
H4689 H 0.69227 0.32475 0.90082 0.0
H4690 H 0.69855 0.31567 0.91606 0.0
H4691 H 0.72114 0.29124 0.91029 0.0
H4692 H 0.74926 0.27553 0.95275 0.0
H4693 H 0.74209 0.28379 0.93751 0.0
C4694 C 0.70304 0.69645 0.89586 0.0
C4695 C 0.69508 0.70205 0.89111 0.0
C4696 C 0.70826 0.70038 0.90446 0.0
C4697 C 0.70536 0.71899 0.92558 0.0
H4698 H 0.73505 0.71704 0.92808 0.0
C4699 C 0.7279 0.74079 0.95709 0.0
C4700 C 0.73615 0.73577 0.96195 0.0
C4701 C 0.72311 0.73654 0.94842 0.0
C4702 C 0.72674 0.71754 0.92757 0.0
H4703 H 0.68666 0.71635 0.89157 0.0
H4704 H 0.69566 0.72312 0.90657 0.0
H4705 H 0.72631 0.70978 0.91307 0.0
H4706 H 0.74582 0.7223 0.96148 0.0
H4707 H 0.73742 0.71483 0.94639 0.0
H4708 H 0.70573 0.72667 0.94007 0.0
C4709 C 0.69775 0.71561 0.90374 0.0
C4710 C 0.72173 0.71338 0.91896 0.0
C4711 C 0.69257 0.71171 0.89514 0.0
C4712 C 0.73956 0.72643 0.95785 0.0
C4713 C 0.73475 0.72215 0.94919 0.0
C4714 C 0.71035 0.72311 0.9342 0.0
C4715 C 0.70563 0.70998 0.90855 0.0
C4716 C 0.71098 0.71413 0.91782 0.0
C4717 C 0.72642 0.72712 0.94439 0.0
C4718 C 0.72112 0.72251 0.93528 0.0
H4719 H 0.70511 0.68893 0.89305 0.0
H4720 H 0.71422 0.69581 0.90804 0.0
H4721 H 0.69705 0.71953 0.92504 0.0
H4722 H 0.72519 0.74808 0.95993 0.0
H4723 H 0.71687 0.7407 0.94481 0.0
C4724 C 0.32498 0.70329 0.9025 0.0
C4725 C 0.32045 0.7042 0.8927 0.0
C4726 C 0.32004 0.70714 0.91117 0.0
C4727 C 0.29465 0.71583 0.9207 0.0
H4728 H 0.31138 0.72951 0.94141 0.0
C4729 C 0.27718 0.73938 0.95395 0.0
C4730 C 0.28166 0.73818 0.96375 0.0
C4731 C 0.28173 0.73504 0.94528 0.0
C4732 C 0.3066 0.72562 0.93575 0.0
H4733 H 0.30716 0.70985 0.88433 0.0
H4734 H 0.29858 0.71667 0.89944 0.0
H4735 H 0.31958 0.72228 0.92634 0.0
H4736 H 0.29434 0.73124 0.97211 0.0
H4737 H 0.30231 0.72378 0.957 0.0
H4738 H 0.28165 0.71932 0.93012 0.0
C4739 C 0.30587 0.71282 0.90046 0.0
C4740 C 0.31131 0.72145 0.92711 0.0
C4741 C 0.3108 0.70892 0.89179 0.0
C4742 C 0.29078 0.73249 0.96467 0.0
C4743 C 0.29534 0.7282 0.956 0.0
C4744 C 0.28993 0.72006 0.92934 0.0
C4745 C 0.31047 0.71204 0.91026 0.0
C4746 C 0.3054 0.71647 0.91947 0.0
C4747 C 0.29089 0.72944 0.9462 0.0
C4748 C 0.29586 0.72498 0.93698 0.0
H4749 H 0.33233 0.69954 0.90348 0.0
H4750 H 0.32371 0.7062 0.91861 0.0
H4751 H 0.28986 0.71194 0.91506 0.0
H4752 H 0.27024 0.74382 0.95293 0.0
H4753 H 0.27817 0.73625 0.93783 0.0
C4754 C 0.30987 0.31057 0.89003 0.0
C4755 C 0.31543 0.31985 0.89109 0.0
C4756 C 0.30603 0.30539 0.89869 0.0
C4757 C 0.29917 0.30979 0.92596 0.0
H4758 H 0.29845 0.28002 0.92737 0.0
C4759 C 0.27663 0.28806 0.95762 0.0
C4760 C 0.28105 0.27918 0.9619 0.0
C4761 C 0.28096 0.29283 0.94898 0.0
C4762 C 0.29867 0.28834 0.92715 0.0
H4763 H 0.32164 0.33074 0.90211 0.0
H4764 H 0.31508 0.32167 0.9172 0.0
H4765 H 0.30614 0.28858 0.91251 0.0
H4766 H 0.29346 0.26829 0.96028 0.0
H4767 H 0.30117 0.27676 0.94538 0.0
H4768 H 0.29193 0.30957 0.9407 0.0
C4769 C 0.31345 0.3185 0.90967 0.0
C4770 C 0.30297 0.29325 0.91856 0.0
C4771 C 0.31724 0.3237 0.90102 0.0
C4772 C 0.28991 0.27518 0.95727 0.0
C4773 C 0.29426 0.27997 0.94863 0.0
C4774 C 0.2949 0.30488 0.93456 0.0
C4775 C 0.30769 0.30933 0.90862 0.0
C4776 C 0.30326 0.30405 0.91784 0.0
C4777 C 0.28986 0.28888 0.94439 0.0
C4778 C 0.29455 0.29408 0.93526 0.0
H4779 H 0.30823 0.30746 0.88248 0.0
H4780 H 0.30152 0.29843 0.89756 0.0
H4781 H 0.29913 0.3181 0.92564 0.0
H4782 H 0.26988 0.29144 0.96104 0.0
H4783 H 0.27727 0.2996 0.94585 0.0
C4784 C 0.61574 0.69933 0.19553 0.0
C4785 C 0.6255 0.70393 0.19694 0.0
C4786 C 0.60707 0.70325 0.20047 0.0
C4787 C 0.59767 0.72698 0.21285 0.0
H4788 H 0.57597 0.70893 0.22295 0.0
C4789 C 0.55855 0.74264 0.2263 0.0
C4790 C 0.5539 0.73801 0.23494 0.0
C4791 C 0.56728 0.73835 0.22183 0.0
C4792 C 0.582 0.71409 0.22026 0.0
H4793 H 0.63386 0.716 0.20495 0.0
H4794 H 0.61881 0.72275 0.21365 0.0
H4795 H 0.59129 0.70159 0.21526 0.0
H4796 H 0.5548 0.72512 0.24555 0.0
H4797 H 0.57017 0.71781 0.23795 0.0
H4798 H 0.58851 0.73946 0.21806 0.0
C4799 C 0.61778 0.71627 0.20853 0.0
C4800 C 0.59074 0.70988 0.21573 0.0
C4801 C 0.62642 0.71239 0.20356 0.0
C4802 C 0.55823 0.72898 0.23899 0.0
C4803 C 0.56698 0.7247 0.23453 0.0
C4804 C 0.58895 0.73119 0.21741 0.0
C4805 C 0.60796 0.71183 0.20697 0.0
C4806 C 0.59869 0.71627 0.21194 0.0
C4807 C 0.57163 0.72933 0.2259 0.0
C4808 C 0.58098 0.72481 0.22115 0.0
H4809 H 0.61475 0.69287 0.19039 0.0
H4810 H 0.59963 0.6997 0.19896 0.0
H4811 H 0.60355 0.73216 0.20991 0.0
H4812 H 0.55551 0.74966 0.22303 0.0
H4813 H 0.57055 0.74207 0.21512 0.0
C4814 C 0.32571 0.61977 0.21272 0.0
C4815 C 0.3208 0.62648 0.20579 0.0
C4816 C 0.32067 0.61092 0.2163 0.0
C4817 C 0.29468 0.59918 0.21924 0.0
H4818 H 0.31018 0.57415 0.22327 0.0
C4819 C 0.27549 0.56005 0.22963 0.0
C4820 C 0.28034 0.55429 0.23741 0.0
C4821 C 0.28029 0.56884 0.22555 0.0
C4822 C 0.30576 0.58111 0.22226 0.0
H4823 H 0.30666 0.62911 0.19725 0.0
H4824 H 0.29798 0.61351 0.20325 0.0
H4825 H 0.31879 0.58944 0.21642 0.0
H4826 H 0.29407 0.55314 0.2469 0.0
H4827 H 0.30242 0.56849 0.2398 0.0
H4828 H 0.28163 0.59076 0.22502 0.0
C4829 C 0.30569 0.61518 0.20604 0.0
C4830 C 0.3107 0.58988 0.21835 0.0
C4831 C 0.31072 0.62407 0.20249 0.0
C4832 C 0.29009 0.55748 0.24098 0.0
C4833 C 0.29492 0.56621 0.23685 0.0
C4834 C 0.28973 0.59037 0.22309 0.0
C4835 C 0.31059 0.6085 0.21301 0.0
C4836 C 0.30524 0.59906 0.21687 0.0
C4837 C 0.29007 0.57199 0.22908 0.0
C4838 C 0.29524 0.58126 0.22471 0.0
H4839 H 0.33352 0.6213 0.21533 0.0
H4840 H 0.32464 0.60603 0.22176 0.0
H4841 H 0.29026 0.60614 0.21834 0.0
H4842 H 0.26794 0.55782 0.22678 0.0
H4843 H 0.27639 0.5731 0.21952 0.0
C4844 C 0.39777 0.30681 0.19158 0.0
C4845 C 0.39137 0.31416 0.19609 0.0
C4846 C 0.40657 0.30333 0.1967 0.0
C4847 C 0.41846 0.30145 0.22264 0.0
H4848 H 0.44312 0.29557 0.20712 0.0
C4849 C 0.45706 0.28988 0.24204 0.0
C4850 C 0.46241 0.28176 0.23749 0.0
C4851 C 0.4485 0.29421 0.23712 0.0
C4852 C 0.43626 0.29709 0.21156 0.0
H4853 H 0.38928 0.32361 0.2096 0.0
H4854 H 0.40479 0.31773 0.21842 0.0
H4855 H 0.42812 0.3026 0.19832 0.0
H4856 H 0.46303 0.27193 0.2241 0.0
H4857 H 0.44809 0.27941 0.21557 0.0
H4858 H 0.42666 0.29596 0.23589 0.0
C4859 C 0.40291 0.31454 0.21096 0.0
C4860 C 0.42765 0.30111 0.20651 0.0
C4861 C 0.39407 0.31801 0.20584 0.0
C4862 C 0.45903 0.2781 0.22788 0.0
C4863 C 0.45053 0.28247 0.22293 0.0
C4864 C 0.4271 0.29747 0.2277 0.0
C4865 C 0.40926 0.30712 0.20647 0.0
C4866 C 0.41859 0.30325 0.21196 0.0
C4867 C 0.44515 0.29057 0.22749 0.0
C4868 C 0.43608 0.29516 0.2222 0.0
H4869 H 0.39604 0.30377 0.18403 0.0
H4870 H 0.41119 0.29752 0.19305 0.0
H4871 H 0.41158 0.30286 0.22707 0.0
H4872 H 0.45941 0.29283 0.24948 0.0
H4873 H 0.44458 0.30049 0.24081 0.0
C4874 C 0.70568 0.38999 0.20736 0.0
C4875 C 0.6958 0.39094 0.20299 0.0
C4876 C 0.71094 0.39862 0.21119 0.0
C4877 C 0.71196 0.42697 0.20964 0.0
H4878 H 0.72534 0.42498 0.2363 0.0
C4879 C 0.72647 0.46283 0.23152 0.0
C4880 C 0.73574 0.46215 0.23714 0.0
C4881 C 0.72198 0.4541 0.22709 0.0
C4882 C 0.72178 0.42564 0.22877 0.0
H4883 H 0.68381 0.40174 0.19899 0.0
H4884 H 0.69296 0.41678 0.20571 0.0
H4885 H 0.71693 0.40985 0.22893 0.0
H4886 H 0.74751 0.45166 0.24248 0.0
H4887 H 0.73982 0.43647 0.23453 0.0
H4888 H 0.71682 0.44274 0.20944 0.0
C4889 C 0.69665 0.40937 0.20615 0.0
C4890 C 0.71695 0.41696 0.22456 0.0
C4891 C 0.69137 0.40074 0.20239 0.0
C4892 C 0.74043 0.4525 0.23814 0.0
C4893 C 0.73594 0.44376 0.23367 0.0
C4894 C 0.71684 0.43563 0.21383 0.0
C4895 C 0.70647 0.4084 0.21066 0.0
C4896 C 0.71192 0.41754 0.21497 0.0
C4897 C 0.72664 0.44443 0.22811 0.0
C4898 C 0.72175 0.43511 0.22349 0.0
H4899 H 0.70927 0.38254 0.20801 0.0
H4900 H 0.71852 0.39763 0.21453 0.0
H4901 H 0.70829 0.42763 0.20217 0.0
H4902 H 0.72271 0.47015 0.23047 0.0
H4903 H 0.71475 0.45491 0.22298 0.0
C4904 C 0.61871 0.30538 0.8273 0.0
C4905 C 0.62561 0.31237 0.82264 0.0
C4906 C 0.60999 0.30183 0.82201 0.0
C4907 C 0.59912 0.2991 0.79574 0.0
H4908 H 0.57355 0.29451 0.81046 0.0
C4909 C 0.56062 0.28829 0.77546 0.0
C4910 C 0.55481 0.28034 0.78005 0.0
C4911 C 0.56923 0.29247 0.78051 0.0
C4912 C 0.58066 0.29568 0.80626 0.0
H4913 H 0.62868 0.32111 0.80871 0.0
H4914 H 0.61329 0.31517 0.79961 0.0
H4915 H 0.58852 0.30149 0.81954 0.0
H4916 H 0.55337 0.27064 0.79359 0.0
H4917 H 0.5684 0.27792 0.80239 0.0
H4918 H 0.59117 0.29335 0.78243 0.0
C4919 C 0.61473 0.31229 0.8073 0.0
C4920 C 0.58925 0.29966 0.81147 0.0
C4921 C 0.62349 0.31581 0.81258 0.0
C4922 C 0.55776 0.27669 0.78981 0.0
C4923 C 0.5663 0.28093 0.79489 0.0
C4924 C 0.59049 0.29518 0.79052 0.0
C4925 C 0.60788 0.30523 0.81194 0.0
C4926 C 0.59862 0.30134 0.8063 0.0
C4927 C 0.57213 0.28887 0.7903 0.0
C4928 C 0.5812 0.29334 0.79574 0.0
H4929 H 0.62001 0.30267 0.83508 0.0
H4930 H 0.60497 0.2963 0.82579 0.0
H4931 H 0.60624 0.30014 0.79154 0.0
H4932 H 0.55857 0.29121 0.76791 0.0
H4933 H 0.57353 0.29863 0.77681 0.0
C4934 C 0.7064 0.62398 0.81105 0.0
C4935 C 0.70158 0.6229 0.82066 0.0
C4936 C 0.71028 0.6154 0.80597 0.0
C4937 C 0.71876 0.58868 0.81093 0.0
H4938 H 0.71694 0.5862 0.78128 0.0
C4939 C 0.73017 0.55156 0.78996 0.0
C4940 C 0.73595 0.55264 0.78089 0.0
C4941 C 0.72575 0.56011 0.79459 0.0
C4942 C 0.7176 0.58682 0.78956 0.0
H4943 H 0.69673 0.61188 0.83228 0.0
H4944 H 0.70337 0.59692 0.8234 0.0
H4945 H 0.7095 0.60108 0.78971 0.0
H4946 H 0.74159 0.56365 0.7696 0.0
H4947 H 0.73382 0.57856 0.77766 0.0
H4948 H 0.72681 0.57442 0.81079 0.0
C4949 C 0.70438 0.60443 0.81988 0.0
C4950 C 0.71334 0.59537 0.7944 0.0
C4951 C 0.70055 0.61301 0.82497 0.0
C4952 C 0.73708 0.5625 0.7765 0.0
C4953 C 0.73263 0.57106 0.78113 0.0
C4954 C 0.72298 0.58014 0.80611 0.0
C4955 C 0.7094 0.60552 0.81036 0.0
C4956 C 0.71386 0.5964 0.80516 0.0
C4957 C 0.72697 0.56997 0.79027 0.0
C4958 C 0.72245 0.57909 0.79536 0.0
H4959 H 0.70742 0.6315 0.80758 0.0
H4960 H 0.7142 0.61656 0.79872 0.0
H4961 H 0.7195 0.5893 0.81921 0.0
H4962 H 0.72895 0.54407 0.79344 0.0
H4963 H 0.72128 0.55897 0.80152 0.0
C4964 C 0.39459 0.70392 0.81933 0.0
C4965 C 0.38947 0.6964 0.81341 0.0
C4966 C 0.40311 0.7093 0.81539 0.0
C4967 C 0.41618 0.71591 0.79082 0.0
H4968 H 0.43969 0.72164 0.80848 0.0
C4969 C 0.45559 0.72933 0.77495 0.0
C4970 C 0.46091 0.73712 0.78031 0.0
C4971 C 0.44667 0.72483 0.77904 0.0
C4972 C 0.43314 0.7202 0.80348 0.0
H4973 H 0.38926 0.68881 0.79859 0.0
H4974 H 0.40425 0.69793 0.79187 0.0
H4975 H 0.42456 0.7129 0.81554 0.0
H4976 H 0.46103 0.74627 0.79419 0.0
H4977 H 0.4454 0.73844 0.80132 0.0
H4978 H 0.42484 0.72307 0.77872 0.0
C4979 C 0.40161 0.69978 0.79952 0.0
C4980 C 0.42445 0.7152 0.80752 0.0
C4981 C 0.39308 0.69444 0.80344 0.0
C4982 C 0.45707 0.74034 0.78984 0.0
C4983 C 0.44817 0.73579 0.79397 0.0
C4984 C 0.42488 0.72086 0.78676 0.0
C4985 C 0.40674 0.70729 0.80544 0.0
C4986 C 0.41588 0.71292 0.80123 0.0
C4987 C 0.44288 0.72797 0.78862 0.0
C4988 C 0.43349 0.72301 0.79303 0.0
H4989 H 0.39209 0.70558 0.82707 0.0
H4990 H 0.4068 0.7151 0.82013 0.0
H4991 H 0.40965 0.71447 0.78578 0.0
H4992 H 0.4583 0.72674 0.76755 0.0
H4993 H 0.44283 0.71876 0.77477 0.0
C4994 C 0.32624 0.40198 0.81424 0.0
C4995 C 0.32173 0.39214 0.8134 0.0
C4996 C 0.32116 0.41064 0.81043 0.0
C4997 C 0.2955 0.41999 0.80191 0.0
H4998 H 0.31181 0.44096 0.78804 0.0
C4999 C 0.27826 0.45879 0.78863 0.0
C5000 C 0.28163 0.4629 0.77918 0.0
C5001 C 0.28299 0.45015 0.79292 0.0
C5002 C 0.30711 0.43514 0.79181 0.0
H5003 H 0.30832 0.38371 0.8079 0.0
H5004 H 0.29949 0.39879 0.80116 0.0
H5005 H 0.32024 0.42592 0.79524 0.0
H5006 H 0.29246 0.46096 0.76674 0.0
H5007 H 0.30066 0.44586 0.77416 0.0
H5008 H 0.28233 0.4291 0.79822 0.0
C5009 C 0.30688 0.39985 0.80493 0.0
C5010 C 0.31197 0.42657 0.79608 0.0
C5011 C 0.31195 0.39119 0.80879 0.0
C5012 C 0.28979 0.4581 0.7741 0.0
C5013 C 0.2945 0.44944 0.77837 0.0
C5014 C 0.29062 0.42857 0.79762 0.0
C5015 C 0.31145 0.40968 0.80563 0.0
C5016 C 0.30624 0.41887 0.80119 0.0
C5017 C 0.29121 0.44538 0.78787 0.0
C5018 C 0.29637 0.43625 0.79249 0.0
H5019 H 0.33369 0.403 0.8179 0.0
H5020 H 0.32483 0.4181 0.8113 0.0
H5021 H 0.29083 0.41428 0.80588 0.0
H5022 H 0.27208 0.46239 0.79281 0.0
H5023 H 0.28035 0.44734 0.80031 0.0
C5024 C 0.69005 0.61411 0.20146 0.0
C5025 C 0.69447 0.62397 0.20242 0.0
C5026 C 0.69514 0.60547 0.2053 0.0
C5027 C 0.72077 0.59628 0.21413 0.0
H5028 H 0.70447 0.57508 0.22767 0.0
C5029 C 0.73898 0.56319 0.23788 0.0
C5030 C 0.73461 0.55331 0.23674 0.0
C5031 C 0.73426 0.57179 0.23345 0.0
C5032 C 0.70913 0.58087 0.22382 0.0
H5033 H 0.70774 0.63247 0.20818 0.0
H5034 H 0.71658 0.61742 0.21497 0.0
H5035 H 0.69597 0.59005 0.22036 0.0
H5036 H 0.72196 0.54476 0.22977 0.0
H5037 H 0.71371 0.55973 0.22216 0.0
H5038 H 0.73394 0.5871 0.21772 0.0
C5039 C 0.70925 0.61633 0.21109 0.0
C5040 C 0.70425 0.58946 0.2196 0.0
C5041 C 0.70418 0.62497 0.2072 0.0
C5042 C 0.72544 0.55226 0.23099 0.0
C5043 C 0.72071 0.56085 0.22661 0.0
C5044 C 0.72565 0.58769 0.21839 0.0
C5045 C 0.70477 0.60646 0.21025 0.0
C5046 C 0.71 0.59728 0.21469 0.0
C5047 C 0.72504 0.57072 0.22781 0.0
C5048 C 0.71989 0.57988 0.22327 0.0
H5049 H 0.68266 0.61305 0.19768 0.0
H5050 H 0.69154 0.59798 0.20433 0.0
H5051 H 0.72544 0.60206 0.21028 0.0
H5052 H 0.74595 0.56433 0.24236 0.0
H5053 H 0.73773 0.5793 0.23463 0.0
C5054 C 0.69682 0.39882 0.81765 0.0
C5055 C 0.69672 0.38952 0.8122 0.0
C5056 C 0.70205 0.40745 0.81378 0.0
C5057 C 0.71232 0.41831 0.78946 0.0
H5058 H 0.72669 0.43716 0.8077 0.0
C5059 C 0.72726 0.45782 0.77543 0.0
C5060 C 0.73681 0.46135 0.77922 0.0
C5061 C 0.72259 0.449 0.77956 0.0
C5062 C 0.7228 0.43193 0.80248 0.0
H5063 H 0.70231 0.38189 0.79858 0.0
H5064 H 0.71156 0.39688 0.79189 0.0
H5065 H 0.7185 0.42173 0.81474 0.0
H5066 H 0.74903 0.45832 0.79021 0.0
H5067 H 0.74096 0.44283 0.79733 0.0
H5068 H 0.71682 0.42835 0.77717 0.0
C5069 C 0.70739 0.3976 0.79903 0.0
C5070 C 0.71799 0.42314 0.80654 0.0
C5071 C 0.70211 0.389 0.80288 0.0
C5072 C 0.74161 0.45585 0.78722 0.0
C5073 C 0.73697 0.44699 0.79131 0.0
C5074 C 0.71716 0.42707 0.7854 0.0
C5075 C 0.70735 0.40697 0.80439 0.0
C5076 C 0.71265 0.41623 0.80008 0.0
C5077 C 0.72739 0.44345 0.78753 0.0
C5078 C 0.72242 0.43402 0.79186 0.0
H5079 H 0.69263 0.39949 0.8248 0.0
H5080 H 0.70172 0.41457 0.81803 0.0
H5081 H 0.70818 0.41324 0.78427 0.0
H5082 H 0.72329 0.46198 0.76939 0.0
H5083 H 0.71513 0.44662 0.77659 0.0
C5084 C 0.6248 0.7036 0.80911 0.0
C5085 C 0.62371 0.69389 0.81379 0.0
C5086 C 0.61617 0.7088 0.80533 0.0
C5087 C 0.5891 0.70422 0.79701 0.0
H5088 H 0.58706 0.73383 0.79928 0.0
C5089 C 0.55186 0.72585 0.78647 0.0
C5090 C 0.55292 0.73505 0.78081 0.0
C5091 C 0.56049 0.721 0.79065 0.0
C5092 C 0.58756 0.72557 0.7985 0.0
H5093 H 0.61266 0.68219 0.8185 0.0
H5094 H 0.59762 0.69128 0.81205 0.0
H5095 H 0.60206 0.72511 0.80643 0.0
H5096 H 0.56398 0.74632 0.77513 0.0
H5097 H 0.57903 0.73789 0.78251 0.0
H5098 H 0.57458 0.70468 0.78914 0.0
C5099 C 0.60515 0.6948 0.81105 0.0
C5100 C 0.59617 0.72056 0.80259 0.0
C5101 C 0.61378 0.68958 0.81478 0.0
C5102 C 0.56284 0.73933 0.77955 0.0
C5103 C 0.57148 0.73449 0.78378 0.0
C5104 C 0.58049 0.70922 0.79296 0.0
C5105 C 0.60623 0.70444 0.80619 0.0
C5106 C 0.59705 0.70981 0.8019 0.0
C5107 C 0.57041 0.72524 0.78934 0.0
C5108 C 0.57961 0.71995 0.79366 0.0
H5109 H 0.63235 0.70708 0.80812 0.0
H5110 H 0.61732 0.71614 0.80152 0.0
H5111 H 0.58959 0.69597 0.79614 0.0
H5112 H 0.54433 0.72244 0.78778 0.0
H5113 H 0.55938 0.71398 0.79503 0.0
C5114 C 0.30342 0.6194 0.82709 0.0
C5115 C 0.31063 0.62608 0.82242 0.0
C5116 C 0.29985 0.61062 0.822 0.0
C5117 C 0.29749 0.59907 0.79606 0.0
H5118 H 0.29253 0.57399 0.81159 0.0
C5119 C 0.28693 0.56025 0.77676 0.0
C5120 C 0.27902 0.5544 0.78138 0.0
C5121 C 0.291 0.56897 0.78164 0.0
C5122 C 0.29379 0.58096 0.80716 0.0
H5123 H 0.31969 0.62869 0.80866 0.0
H5124 H 0.31367 0.61321 0.7999 0.0
H5125 H 0.29937 0.58914 0.82031 0.0
H5126 H 0.26928 0.55307 0.79483 0.0
H5127 H 0.27632 0.5683 0.80331 0.0
H5128 H 0.29195 0.59082 0.78289 0.0
C5129 C 0.31066 0.61486 0.80746 0.0
C5130 C 0.2977 0.58966 0.81216 0.0
C5131 C 0.31422 0.62368 0.81254 0.0
C5132 C 0.2753 0.55746 0.79101 0.0
C5133 C 0.27941 0.56613 0.79592 0.0
C5134 C 0.29362 0.59034 0.79105 0.0
C5135 C 0.30342 0.60822 0.81211 0.0
C5136 C 0.29954 0.59886 0.8067 0.0
C5137 C 0.28731 0.57199 0.7913 0.0
C5138 C 0.29166 0.5812 0.79655 0.0
H5139 H 0.30059 0.62091 0.83475 0.0
H5140 H 0.29418 0.60577 0.82579 0.0
H5141 H 0.29866 0.60605 0.79163 0.0
H5142 H 0.28991 0.55814 0.76931 0.0
H5143 H 0.29713 0.57327 0.77791 0.0
C5144 C 0.39038 0.30379 0.8117 0.0
C5145 C 0.39094 0.31287 0.8175 0.0
C5146 C 0.39907 0.30014 0.80662 0.0
C5147 C 0.42514 0.30785 0.79742 0.0
H5148 H 0.42973 0.27846 0.79785 0.0
C5149 C 0.45802 0.28898 0.77444 0.0
C5150 C 0.46323 0.28076 0.77914 0.0
C5151 C 0.44919 0.29306 0.77892 0.0
C5152 C 0.42863 0.2867 0.79772 0.0
H5153 H 0.40108 0.32526 0.82245 0.0
H5154 H 0.41627 0.31885 0.81367 0.0
H5155 H 0.4145 0.28534 0.80602 0.0
H5156 H 0.46335 0.27057 0.79238 0.0
H5157 H 0.44803 0.2777 0.80023 0.0
H5158 H 0.43944 0.30921 0.78935 0.0
C5159 C 0.40907 0.31463 0.8129 0.0
C5160 C 0.41979 0.29064 0.80229 0.0
C5161 C 0.40036 0.3183 0.81795 0.0
C5162 C 0.45943 0.27678 0.78846 0.0
C5163 C 0.45062 0.28087 0.79296 0.0
C5164 C 0.43399 0.3039 0.79285 0.0
C5165 C 0.40856 0.30544 0.80724 0.0
C5166 C 0.41793 0.30127 0.80222 0.0
C5167 C 0.44535 0.28903 0.78822 0.0
C5168 C 0.43587 0.29327 0.79297 0.0
H5169 H 0.3832 0.29951 0.81105 0.0
H5170 H 0.39832 0.29316 0.80217 0.0
H5171 H 0.42391 0.31607 0.79711 0.0
H5172 H 0.46067 0.29214 0.76718 0.0
H5173 H 0.44525 0.29924 0.77497 0.0
C5174 C 0.31334 0.39038 0.21269 0.0
C5175 C 0.31913 0.39093 0.20359 0.0
C5176 C 0.30831 0.39904 0.21639 0.0
C5177 C 0.29915 0.425 0.20881 0.0
H5178 H 0.29953 0.42958 0.23824 0.0
C5179 C 0.27592 0.45753 0.22789 0.0
C5180 C 0.28057 0.46274 0.23618 0.0
C5181 C 0.28049 0.44878 0.22374 0.0
C5182 C 0.29942 0.42848 0.22999 0.0
H5183 H 0.32412 0.40103 0.19123 0.0
H5184 H 0.31543 0.41618 0.19774 0.0
H5185 H 0.30776 0.41445 0.23127 0.0
H5186 H 0.29381 0.463 0.24641 0.0
H5187 H 0.3018 0.44784 0.23915 0.0
H5188 H 0.29105 0.43921 0.20752 0.0
C5189 C 0.31463 0.40901 0.20193 0.0
C5190 C 0.30403 0.41971 0.226 0.0
C5191 C 0.31963 0.40032 0.1982 0.0
C5192 C 0.28993 0.45906 0.24015 0.0
C5193 C 0.29451 0.45035 0.23599 0.0
C5194 C 0.29456 0.4338 0.21281 0.0
C5195 C 0.30897 0.40851 0.21113 0.0
C5196 C 0.30396 0.41784 0.21535 0.0
C5197 C 0.28983 0.44506 0.22776 0.0
C5198 C 0.29465 0.43566 0.22346 0.0
H5199 H 0.31265 0.38322 0.21693 0.0
H5200 H 0.30385 0.3983 0.22338 0.0
H5201 H 0.29886 0.42378 0.20058 0.0
H5202 H 0.26864 0.46008 0.22472 0.0
H5203 H 0.27658 0.44483 0.2175 0.0
C5204 C 0.62658 0.30196 0.20295 0.0
C5205 C 0.6263 0.31134 0.19755 0.0
C5206 C 0.61789 0.29829 0.20818 0.0
C5207 C 0.59268 0.30636 0.21869 0.0
H5208 H 0.58646 0.27717 0.21757 0.0
C5209 C 0.55976 0.28765 0.24246 0.0
C5210 C 0.55389 0.27983 0.23774 0.0
C5211 C 0.56866 0.29158 0.23775 0.0
C5212 C 0.58803 0.28536 0.2179 0.0
H5213 H 0.61665 0.32423 0.19342 0.0
H5214 H 0.60145 0.31778 0.20244 0.0
H5215 H 0.6017 0.28393 0.20894 0.0
H5216 H 0.55265 0.27017 0.22425 0.0
H5217 H 0.56807 0.27706 0.21599 0.0
H5218 H 0.57882 0.30781 0.22739 0.0
C5219 C 0.60844 0.31334 0.2028 0.0
C5220 C 0.59686 0.28922 0.21306 0.0
C5221 C 0.61716 0.31703 0.19761 0.0
C5222 C 0.55709 0.27607 0.22818 0.0
C5223 C 0.56595 0.28002 0.22345 0.0
C5224 C 0.58382 0.30249 0.22351 0.0
C5225 C 0.60868 0.30388 0.20811 0.0
C5226 C 0.59931 0.29978 0.21338 0.0
C5227 C 0.57187 0.28781 0.22818 0.0
C5228 C 0.58136 0.29194 0.22315 0.0
H5229 H 0.63356 0.29747 0.20319 0.0
H5230 H 0.61843 0.29108 0.21235 0.0
H5231 H 0.59437 0.31451 0.21919 0.0
H5232 H 0.55758 0.29062 0.24989 0.0
H5233 H 0.5731 0.29746 0.2417 0.0
C5234 C 0.39533 0.70039 0.2018 0.0
C5235 C 0.39002 0.70631 0.19445 0.0
C5236 C 0.40406 0.70435 0.2068 0.0
C5237 C 0.42456 0.72395 0.20403 0.0
H5238 H 0.42812 0.72032 0.23345 0.0
C5239 C 0.4568 0.74505 0.2264 0.0
C5240 C 0.46191 0.73961 0.23424 0.0
C5241 C 0.44798 0.74093 0.22171 0.0
C5242 C 0.42732 0.7213 0.22521 0.0
H5243 H 0.38963 0.72118 0.18681 0.0
H5244 H 0.40492 0.72802 0.19543 0.0
H5245 H 0.41289 0.71313 0.22494 0.0
H5246 H 0.46179 0.72555 0.24326 0.0
H5247 H 0.44646 0.71829 0.23499 0.0
H5248 H 0.43901 0.73202 0.20424 0.0
C5249 C 0.40239 0.72026 0.19723 0.0
C5250 C 0.41858 0.71718 0.22034 0.0
C5251 C 0.39364 0.71632 0.19227 0.0
C5252 C 0.45795 0.72998 0.23733 0.0
C5253 C 0.44916 0.72584 0.23259 0.0
C5254 C 0.43332 0.72802 0.20888 0.0
C5255 C 0.40772 0.71432 0.20453 0.0
C5256 C 0.41708 0.71851 0.20971 0.0
C5257 C 0.44408 0.73125 0.2247 0.0
C5258 C 0.43479 0.72679 0.21954 0.0
H5259 H 0.39285 0.6926 0.20357 0.0
H5260 H 0.40807 0.69955 0.21231 0.0
H5261 H 0.42371 0.72496 0.1958 0.0
H5262 H 0.45957 0.75256 0.22397 0.0
H5263 H 0.44416 0.74541 0.2158 0.0
loop_
_geom_bond_atom_site_label_1
_geom_bond_atom_site_label_2
_geom_bond_distance
_geom_bond_site_symmetry_2
_ccdc_geom_bond_type
C0 C1 1.264 . S
C0 C5 1.479 . S
C0 C10 1.465 . S
C1 C0 1.264 . S
C1 C3 1.339 . S
C1 H28 0.931 . S
C2 C3 1.395 . S
C2 C4 1.320 . S
C3 C1 1.339 . S
C3 C2 1.395 . S
C3 H29 0.929 . S
C4 C2 1.320 . S
C4 C5 1.405 . S
C4 H30 0.930 . S
C5 C0 1.479 . S
C5 C4 1.405 . S
C5 H31 0.931 . S
U6 O7 2.454 . S
U6 O8 2.458 . S
U6 C9 2.984 . S
U6 C10 2.847 . S
U6 C23 2.882 . S
U6 O24 2.441 . S
U6 O25 2.420 . S
U6 O26 2.455 . S
U6 O27 2.449 . S
O7 U6 2.454 . S
O7 C9 1.353 . S
O8 U6 2.458 . S
O8 C9 1.286 . S
C9 U6 2.984 . S
C9 O7 1.353 . S
C9 O8 1.286 . S
C9 C11 1.363 . S
C10 C0 1.465 . S
C10 U6 2.847 . S
C10 O24 1.249 . S
C10 O25 1.202 . S
C11 C9 1.363 . S
C11 C13 1.408 . S
C11 C16 1.342 . S
C12 C13 1.310 . S
C12 C15 1.461 . S
C12 H32 0.932 . S
C13 C11 1.408 . S
C13 C12 1.310 . S
C13 H33 0.930 . S
C14 C15 1.474 . S
C14 C16 1.285 . S
C14 H34 0.929 . S
C15 C12 1.461 . S
C15 C14 1.474 . S
C16 C11 1.342 . S
C16 C14 1.285 . S
C16 H35 0.930 . S
C17 C20 1.424 . S
C17 C22 1.245 . S
C17 C23 1.428 . S
C18 C21 1.260 . S
C18 C22 1.477 . S
C18 H36 0.932 . S
C19 C20 1.384 . S
C19 C21 1.479 . S
C19 H37 0.929 . S
C20 C17 1.424 . S
C20 C19 1.384 . S
C20 H38 0.928 . S
C21 C18 1.260 . S
C21 C19 1.479 . S
C22 C17 1.245 . S
C22 C18 1.477 . S
C22 H39 0.932 . S
C23 U6 2.882 . S
C23 C17 1.428 . S
C23 O26 1.301 . S
C23 O27 1.282 . S
O24 U6 2.441 . S
O24 C10 1.249 . S
O25 U6 2.420 . S
O25 C10 1.202 . S
O26 U6 2.455 . S
O26 C23 1.301 . S
O27 U6 2.449 . S
O27 C23 1.282 . S
H28 C1 0.931 . S
H29 C3 0.929 . S
H30 C4 0.930 . S
H31 C5 0.931 . S
H32 C12 0.932 . S
H33 C13 0.930 . S
H34 C14 0.929 . S
H35 C16 0.930 . S
H36 C18 0.932 . S
H37 C19 0.929 . S
H38 C20 0.928 . S
H39 C22 0.932 . S
C40 C41 1.264 . S
C40 C45 1.479 . S
C40 C50 1.465 . S
C41 C40 1.264 . S
C41 C43 1.339 . S
C41 H68 0.931 . S
C42 C43 1.395 . S
C42 C44 1.320 . S
C43 C41 1.339 . S
C43 C42 1.395 . S
C43 H69 0.929 . S
C44 C42 1.320 . S
C44 C45 1.405 . S
C44 H70 0.930 . S
C45 C40 1.479 . S
C45 C44 1.405 . S
C45 H71 0.931 . S
U46 O47 2.454 . S
U46 O48 2.458 . S
U46 C49 2.984 . S
U46 C50 2.847 . S
U46 C63 2.882 . S
U46 O64 2.441 . S
U46 O65 2.420 . S
U46 O66 2.455 . S
U46 O67 2.449 . S
O47 U46 2.454 . S
O47 C49 1.353 . S
O48 U46 2.458 . S
O48 C49 1.286 . S
C49 U46 2.984 . S
C49 O47 1.353 . S
C49 O48 1.286 . S
C49 C51 1.363 . S
C50 C40 1.465 . S
C50 U46 2.847 . S
C50 O64 1.249 . S
C50 O65 1.202 . S
C51 C49 1.363 . S
C51 C53 1.408 . S
C51 C56 1.342 . S
C52 C53 1.310 . S
C52 C55 1.461 . S
C52 H72 0.932 . S
C53 C51 1.408 . S
C53 C52 1.310 . S
C53 H73 0.930 . S
C54 C55 1.474 . S
C54 C56 1.285 . S
C54 H74 0.929 . S
C55 C52 1.461 . S
C55 C54 1.474 . S
C56 C51 1.342 . S
C56 C54 1.285 . S
C56 H75 0.930 . S
C57 C60 1.424 . S
C57 C62 1.245 . S
C57 C63 1.428 . S
C58 C61 1.260 . S
C58 C62 1.477 . S
C58 H76 0.932 . S
C59 C60 1.384 . S
C59 C61 1.479 . S
C59 H77 0.929 . S
C60 C57 1.424 . S
C60 C59 1.384 . S
C60 H78 0.928 . S
C61 C58 1.260 . S
C61 C59 1.479 . S
C62 C57 1.245 . S
C62 C58 1.477 . S
C62 H79 0.932 . S
C63 U46 2.882 . S
C63 C57 1.428 . S
C63 O66 1.301 . S
C63 O67 1.282 . S
O64 U46 2.441 . S
O64 C50 1.249 . S
O65 U46 2.420 . S
O65 C50 1.202 . S
O66 U46 2.455 . S
O66 C63 1.301 . S
O67 U46 2.449 . S
O67 C63 1.282 . S
H68 C41 0.931 . S
H69 C43 0.929 . S
H70 C44 0.930 . S
H71 C45 0.931 . S
H72 C52 0.932 . S
H73 C53 0.930 . S
H74 C54 0.929 . S
H75 C56 0.930 . S
H76 C58 0.932 . S
H77 C59 0.929 . S
H78 C60 0.928 . S
H79 C62 0.932 . S
C80 C81 1.264 . S
C80 C85 1.479 . S
C80 C90 1.465 . S
C81 C80 1.264 . S
C81 C83 1.339 . S
C81 H108 0.931 . S
C82 C83 1.395 . S
C82 C84 1.320 . S
C83 C81 1.339 . S
C83 C82 1.395 . S
C83 H109 0.929 . S
C84 C82 1.320 . S
C84 C85 1.405 . S
C84 H110 0.930 . S
C85 C80 1.479 . S
C85 C84 1.405 . S
C85 H111 0.931 . S
U86 O87 2.454 . S
U86 O88 2.458 . S
U86 C89 2.984 . S
U86 C90 2.847 . S
U86 C103 2.882 . S
U86 O104 2.441 . S
U86 O105 2.420 . S
U86 O106 2.455 . S
U86 O107 2.449 . S
O87 U86 2.454 . S
O87 C89 1.353 . S
O88 U86 2.458 . S
O88 C89 1.286 . S
C89 U86 2.984 . S
C89 O87 1.353 . S
C89 O88 1.286 . S
C89 C91 1.363 . S
C90 C80 1.465 . S
C90 U86 2.847 . S
C90 O104 1.249 . S
C90 O105 1.202 . S
C91 C89 1.363 . S
C91 C93 1.408 . S
C91 C96 1.342 . S
C92 C93 1.310 . S
C92 C95 1.461 . S
C92 H112 0.932 . S
C93 C91 1.408 . S
C93 C92 1.310 . S
C93 H113 0.930 . S
C94 C95 1.474 . S
C94 C96 1.285 . S
C94 H114 0.929 . S
C95 C92 1.461 . S
C95 C94 1.474 . S
C96 C91 1.342 . S
C96 C94 1.285 . S
C96 H115 0.930 . S
C97 C100 1.424 . S
C97 C102 1.245 . S
C97 C103 1.428 . S
C98 C101 1.260 . S
C98 C102 1.477 . S
C98 H116 0.932 . S
C99 C100 1.384 . S
C99 C101 1.479 . S
C99 H117 0.929 . S
C100 C97 1.424 . S
C100 C99 1.384 . S
C100 H118 0.928 . S
C101 C98 1.260 . S
C101 C99 1.479 . S
C102 C97 1.245 . S
C102 C98 1.477 . S
C102 H119 0.932 . S
C103 U86 2.882 . S
C103 C97 1.428 . S
C103 O106 1.301 . S
C103 O107 1.282 . S
O104 U86 2.441 . S
O104 C90 1.249 . S
O105 U86 2.420 . S
O105 C90 1.202 . S
O106 U86 2.455 . S
O106 C103 1.301 . S
O107 U86 2.449 . S
O107 C103 1.282 . S
H108 C81 0.931 . S
H109 C83 0.929 . S
H110 C84 0.930 . S
H111 C85 0.931 . S
H112 C92 0.932 . S
H113 C93 0.930 . S
H114 C94 0.929 . S
H115 C96 0.930 . S
H116 C98 0.932 . S
H117 C99 0.929 . S
H118 C100 0.928 . S
H119 C102 0.932 . S
C120 C121 1.264 . S
C120 C125 1.479 . S
C120 C130 1.465 . S
C121 C120 1.264 . S
C121 C123 1.339 . S
C121 H148 0.931 . S
C122 C123 1.395 . S
C122 C124 1.320 . S
C123 C121 1.339 . S
C123 C122 1.395 . S
C123 H149 0.929 . S
C124 C122 1.320 . S
C124 C125 1.405 . S
C124 H150 0.930 . S
C125 C120 1.479 . S
C125 C124 1.405 . S
C125 H151 0.931 . S
U126 O127 2.454 . S
U126 O128 2.458 . S
U126 C129 2.984 . S
U126 C130 2.847 . S
U126 C143 2.882 . S
U126 O144 2.441 . S
U126 O145 2.420 . S
U126 O146 2.455 . S
U126 O147 2.449 . S
O127 U126 2.454 . S
O127 C129 1.353 . S
O128 U126 2.458 . S
O128 C129 1.286 . S
C129 U126 2.984 . S
C129 O127 1.353 . S
C129 O128 1.286 . S
C129 C131 1.363 . S
C130 C120 1.465 . S
C130 U126 2.847 . S
C130 O144 1.249 . S
C130 O145 1.202 . S
C131 C129 1.363 . S
C131 C133 1.408 . S
C131 C136 1.342 . S
C132 C133 1.310 . S
C132 C135 1.461 . S
C132 H152 0.932 . S
C133 C131 1.408 . S
C133 C132 1.310 . S
C133 H153 0.930 . S
C134 C135 1.474 . S
C134 C136 1.285 . S
C134 H154 0.929 . S
C135 C132 1.461 . S
C135 C134 1.474 . S
C136 C131 1.342 . S
C136 C134 1.285 . S
C136 H155 0.930 . S
C137 C140 1.424 . S
C137 C142 1.245 . S
C137 C143 1.428 . S
C138 C141 1.260 . S
C138 C142 1.477 . S
C138 H156 0.932 . S
C139 C140 1.384 . S
C139 C141 1.479 . S
C139 H157 0.929 . S
C140 C137 1.424 . S
C140 C139 1.384 . S
C140 H158 0.928 . S
C141 C138 1.260 . S
C141 C139 1.479 . S
C142 C137 1.245 . S
C142 C138 1.477 . S
C142 H159 0.932 . S
C143 U126 2.882 . S
C143 C137 1.428 . S
C143 O146 1.301 . S
C143 O147 1.282 . S
O144 U126 2.441 . S
O144 C130 1.249 . S
O145 U126 2.420 . S
O145 C130 1.202 . S
O146 U126 2.455 . S
O146 C143 1.301 . S
O147 U126 2.449 . S
O147 C143 1.282 . S
H148 C121 0.931 . S
H149 C123 0.929 . S
H150 C124 0.930 . S
H151 C125 0.931 . S
H152 C132 0.932 . S
H153 C133 0.930 . S
H154 C134 0.929 . S
H155 C136 0.930 . S
H156 C138 0.932 . S
H157 C139 0.929 . S
H158 C140 0.928 . S
H159 C142 0.932 . S
C160 C161 1.264 . S
C160 C165 1.479 . S
C160 C170 1.465 . S
C161 C160 1.264 . S
C161 C163 1.339 . S
C161 H188 0.931 . S
C162 C163 1.395 . S
C162 C164 1.320 . S
C163 C161 1.339 . S
C163 C162 1.395 . S
C163 H189 0.929 . S
C164 C162 1.320 . S
C164 C165 1.405 . S
C164 H190 0.930 . S
C165 C160 1.479 . S
C165 C164 1.405 . S
C165 H191 0.931 . S
U166 O167 2.454 . S
U166 O168 2.458 . S
U166 C169 2.984 . S
U166 C170 2.847 . S
U166 C183 2.882 . S
U166 O184 2.441 . S
U166 O185 2.420 . S
U166 O186 2.455 . S
U166 O187 2.449 . S
O167 U166 2.454 . S
O167 C169 1.353 . S
O168 U166 2.458 . S
O168 C169 1.286 . S
C169 U166 2.984 . S
C169 O167 1.353 . S
C169 O168 1.286 . S
C169 C171 1.363 . S
C170 C160 1.465 . S
C170 U166 2.847 . S
C170 O184 1.249 . S
C170 O185 1.202 . S
C171 C169 1.363 . S
C171 C173 1.408 . S
C171 C176 1.342 . S
C172 C173 1.310 . S
C172 C175 1.461 . S
C172 H192 0.932 . S
C173 C171 1.408 . S
C173 C172 1.310 . S
C173 H193 0.930 . S
C174 C175 1.474 . S
C174 C176 1.285 . S
C174 H194 0.929 . S
C175 C172 1.461 . S
C175 C174 1.474 . S
C176 C171 1.342 . S
C176 C174 1.285 . S
C176 H195 0.930 . S
C177 C180 1.424 . S
C177 C182 1.245 . S
C177 C183 1.428 . S
C178 C181 1.260 . S
C178 C182 1.477 . S
C178 H196 0.932 . S
C179 C180 1.384 . S
C179 C181 1.479 . S
C179 H197 0.929 . S
C180 C177 1.424 . S
C180 C179 1.384 . S
C180 H198 0.928 . S
C181 C178 1.260 . S
C181 C179 1.479 . S
C182 C177 1.245 . S
C182 C178 1.477 . S
C182 H199 0.932 . S
C183 U166 2.882 . S
C183 C177 1.428 . S
C183 O186 1.301 . S
C183 O187 1.282 . S
O184 U166 2.441 . S
O184 C170 1.249 . S
O185 U166 2.420 . S
O185 C170 1.202 . S
O186 U166 2.455 . S
O186 C183 1.301 . S
O187 U166 2.449 . S
O187 C183 1.282 . S
H188 C161 0.931 . S
H189 C163 0.929 . S
H190 C164 0.930 . S
H191 C165 0.931 . S
H192 C172 0.932 . S
H193 C173 0.930 . S
H194 C174 0.929 . S
H195 C176 0.930 . S
H196 C178 0.932 . S
H197 C179 0.929 . S
H198 C180 0.928 . S
H199 C182 0.932 . S
C200 C201 1.264 . S
C200 C205 1.479 . S
C200 C210 1.465 . S
C201 C200 1.264 . S
C201 C203 1.339 . S
C201 H228 0.931 . S
C202 C203 1.395 . S
C202 C204 1.320 . S
C203 C201 1.339 . S
C203 C202 1.395 . S
C203 H229 0.929 . S
C204 C202 1.320 . S
C204 C205 1.405 . S
C204 H230 0.930 . S
C205 C200 1.479 . S
C205 C204 1.405 . S
C205 H231 0.931 . S
U206 O207 2.454 . S
U206 O208 2.458 . S
U206 C209 2.984 . S
U206 C210 2.847 . S
U206 C223 2.882 . S
U206 O224 2.441 . S
U206 O225 2.420 . S
U206 O226 2.455 . S
U206 O227 2.449 . S
O207 U206 2.454 . S
O207 C209 1.353 . S
O208 U206 2.458 . S
O208 C209 1.286 . S
C209 U206 2.984 . S
C209 O207 1.353 . S
C209 O208 1.286 . S
C209 C211 1.363 . S
C210 C200 1.465 . S
C210 U206 2.847 . S
C210 O224 1.249 . S
C210 O225 1.202 . S
C211 C209 1.363 . S
C211 C213 1.408 . S
C211 C216 1.342 . S
C212 C213 1.310 . S
C212 C215 1.461 . S
C212 H232 0.932 . S
C213 C211 1.408 . S
C213 C212 1.310 . S
C213 H233 0.930 . S
C214 C215 1.474 . S
C214 C216 1.285 . S
C214 H234 0.929 . S
C215 C212 1.461 . S
C215 C214 1.474 . S
C216 C211 1.342 . S
C216 C214 1.285 . S
C216 H235 0.930 . S
C217 C220 1.424 . S
C217 C222 1.245 . S
C217 C223 1.428 . S
C218 C221 1.260 . S
C218 C222 1.477 . S
C218 H236 0.932 . S
C219 C220 1.384 . S
C219 C221 1.479 . S
C219 H237 0.929 . S
C220 C217 1.424 . S
C220 C219 1.384 . S
C220 H238 0.928 . S
C221 C218 1.260 . S
C221 C219 1.479 . S
C222 C217 1.245 . S
C222 C218 1.477 . S
C222 H239 0.932 . S
C223 U206 2.882 . S
C223 C217 1.428 . S
C223 O226 1.301 . S
C223 O227 1.282 . S
O224 U206 2.441 . S
O224 C210 1.249 . S
O225 U206 2.420 . S
O225 C210 1.202 . S
O226 U206 2.455 . S
O226 C223 1.301 . S
O227 U206 2.449 . S
O227 C223 1.282 . S
H228 C201 0.931 . S
H229 C203 0.929 . S
H230 C204 0.930 . S
H231 C205 0.931 . S
H232 C212 0.932 . S
H233 C213 0.930 . S
H234 C214 0.929 . S
H235 C216 0.930 . S
H236 C218 0.932 . S
H237 C219 0.929 . S
H238 C220 0.928 . S
H239 C222 0.932 . S
C240 C241 1.264 . S
C240 C245 1.479 . S
C240 C250 1.465 . S
C241 C240 1.264 . S
C241 C243 1.339 . S
C241 H268 0.931 . S
C242 C243 1.395 . S
C242 C244 1.320 . S
C243 C241 1.339 . S
C243 C242 1.395 . S
C243 H269 0.929 . S
C244 C242 1.320 . S
C244 C245 1.405 . S
C244 H270 0.930 . S
C245 C240 1.479 . S
C245 C244 1.405 . S
C245 H271 0.931 . S
U246 O247 2.454 . S
U246 O248 2.458 . S
U246 C249 2.984 . S
U246 C250 2.847 . S
U246 C263 2.882 . S
U246 O264 2.441 . S
U246 O265 2.420 . S
U246 O266 2.455 . S
U246 O267 2.449 . S
O247 U246 2.454 . S
O247 C249 1.353 . S
O248 U246 2.458 . S
O248 C249 1.286 . S
C249 U246 2.984 . S
C249 O247 1.353 . S
C249 O248 1.286 . S
C249 C251 1.363 . S
C250 C240 1.465 . S
C250 U246 2.847 . S
C250 O264 1.249 . S
C250 O265 1.202 . S
C251 C249 1.363 . S
C251 C253 1.408 . S
C251 C256 1.342 . S
C252 C253 1.310 . S
C252 C255 1.461 . S
C252 H272 0.932 . S
C253 C251 1.408 . S
C253 C252 1.310 . S
C253 H273 0.930 . S
C254 C255 1.474 . S
C254 C256 1.285 . S
C254 H274 0.929 . S
C255 C252 1.461 . S
C255 C254 1.474 . S
C256 C251 1.342 . S
C256 C254 1.285 . S
C256 H275 0.930 . S
C257 C260 1.424 . S
C257 C262 1.245 . S
C257 C263 1.428 . S
C258 C261 1.260 . S
C258 C262 1.477 . S
C258 H276 0.932 . S
C259 C260 1.384 . S
C259 C261 1.479 . S
C259 H277 0.929 . S
C260 C257 1.424 . S
C260 C259 1.384 . S
C260 H278 0.928 . S
C261 C258 1.260 . S
C261 C259 1.479 . S
C262 C257 1.245 . S
C262 C258 1.477 . S
C262 H279 0.932 . S
C263 U246 2.882 . S
C263 C257 1.428 . S
C263 O266 1.301 . S
C263 O267 1.282 . S
O264 U246 2.441 . S
O264 C250 1.249 . S
O265 U246 2.420 . S
O265 C250 1.202 . S
O266 U246 2.455 . S
O266 C263 1.301 . S
O267 U246 2.449 . S
O267 C263 1.282 . S
H268 C241 0.931 . S
H269 C243 0.929 . S
H270 C244 0.930 . S
H271 C245 0.931 . S
H272 C252 0.932 . S
H273 C253 0.930 . S
H274 C254 0.929 . S
H275 C256 0.930 . S
H276 C258 0.932 . S
H277 C259 0.929 . S
H278 C260 0.928 . S
H279 C262 0.932 . S
C280 C281 1.264 . S
C280 C285 1.479 . S
C280 C290 1.465 . S
C281 C280 1.264 . S
C281 C283 1.339 . S
C281 H308 0.931 . S
C282 C283 1.395 . S
C282 C284 1.320 . S
C283 C281 1.339 . S
C283 C282 1.395 . S
C283 H309 0.929 . S
C284 C282 1.320 . S
C284 C285 1.405 . S
C284 H310 0.930 . S
C285 C280 1.479 . S
C285 C284 1.405 . S
C285 H311 0.931 . S
U286 O287 2.454 . S
U286 O288 2.458 . S
U286 C289 2.984 . S
U286 C290 2.847 . S
U286 C303 2.882 . S
U286 O304 2.441 . S
U286 O305 2.420 . S
U286 O306 2.455 . S
U286 O307 2.449 . S
O287 U286 2.454 . S
O287 C289 1.353 . S
O288 U286 2.458 . S
O288 C289 1.286 . S
C289 U286 2.984 . S
C289 O287 1.353 . S
C289 O288 1.286 . S
C289 C291 1.363 . S
C290 C280 1.465 . S
C290 U286 2.847 . S
C290 O304 1.249 . S
C290 O305 1.202 . S
C291 C289 1.363 . S
C291 C293 1.408 . S
C291 C296 1.342 . S
C292 C293 1.310 . S
C292 C295 1.461 . S
C292 H312 0.932 . S
C293 C291 1.408 . S
C293 C292 1.310 . S
C293 H313 0.930 . S
C294 C295 1.474 . S
C294 C296 1.285 . S
C294 H314 0.929 . S
C295 C292 1.461 . S
C295 C294 1.474 . S
C296 C291 1.342 . S
C296 C294 1.285 . S
C296 H315 0.930 . S
C297 C300 1.424 . S
C297 C302 1.245 . S
C297 C303 1.428 . S
C298 C301 1.260 . S
C298 C302 1.477 . S
C298 H316 0.932 . S
C299 C300 1.384 . S
C299 C301 1.479 . S
C299 H317 0.929 . S
C300 C297 1.424 . S
C300 C299 1.384 . S
C300 H318 0.928 . S
C301 C298 1.260 . S
C301 C299 1.479 . S
C302 C297 1.245 . S
C302 C298 1.477 . S
C302 H319 0.932 . S
C303 U286 2.882 . S
C303 C297 1.428 . S
C303 O306 1.301 . S
C303 O307 1.282 . S
O304 U286 2.441 . S
O304 C290 1.249 . S
O305 U286 2.420 . S
O305 C290 1.202 . S
O306 U286 2.455 . S
O306 C303 1.301 . S
O307 U286 2.449 . S
O307 C303 1.282 . S
H308 C281 0.931 . S
H309 C283 0.929 . S
H310 C284 0.930 . S
H311 C285 0.931 . S
H312 C292 0.932 . S
H313 C293 0.930 . S
H314 C294 0.929 . S
H315 C296 0.930 . S
H316 C298 0.932 . S
H317 C299 0.929 . S
H318 C300 0.928 . S
H319 C302 0.932 . S
C320 C321 1.264 . S
C320 C325 1.479 . S
C320 C330 1.465 . S
C321 C320 1.264 . S
C321 C323 1.339 . S
C321 H348 0.931 . S
C322 C323 1.395 . S
C322 C324 1.320 . S
C323 C321 1.339 . S
C323 C322 1.395 . S
C323 H349 0.929 . S
C324 C322 1.320 . S
C324 C325 1.405 . S
C324 H350 0.930 . S
C325 C320 1.479 . S
C325 C324 1.405 . S
C325 H351 0.931 . S
U326 O327 2.454 . S
U326 O328 2.458 . S
U326 C329 2.984 . S
U326 C330 2.847 . S
U326 C343 2.882 . S
U326 O344 2.441 . S
U326 O345 2.420 . S
U326 O346 2.455 . S
U326 O347 2.449 . S
O327 U326 2.454 . S
O327 C329 1.353 . S
O328 U326 2.458 . S
O328 C329 1.286 . S
C329 U326 2.984 . S
C329 O327 1.353 . S
C329 O328 1.286 . S
C329 C331 1.363 . S
C330 C320 1.465 . S
C330 U326 2.847 . S
C330 O344 1.249 . S
C330 O345 1.202 . S
C331 C329 1.363 . S
C331 C333 1.408 . S
C331 C336 1.342 . S
C332 C333 1.310 . S
C332 C335 1.461 . S
C332 H352 0.932 . S
C333 C331 1.408 . S
C333 C332 1.310 . S
C333 H353 0.930 . S
C334 C335 1.474 . S
C334 C336 1.285 . S
C334 H354 0.929 . S
C335 C332 1.461 . S
C335 C334 1.474 . S
C336 C331 1.342 . S
C336 C334 1.285 . S
C336 H355 0.930 . S
C337 C340 1.424 . S
C337 C342 1.245 . S
C337 C343 1.428 . S
C338 C341 1.260 . S
C338 C342 1.477 . S
C338 H356 0.932 . S
C339 C340 1.384 . S
C339 C341 1.479 . S
C339 H357 0.929 . S
C340 C337 1.424 . S
C340 C339 1.384 . S
C340 H358 0.928 . S
C341 C338 1.260 . S
C341 C339 1.479 . S
C342 C337 1.245 . S
C342 C338 1.477 . S
C342 H359 0.932 . S
C343 U326 2.882 . S
C343 C337 1.428 . S
C343 O346 1.301 . S
C343 O347 1.282 . S
O344 U326 2.441 . S
O344 C330 1.249 . S
O345 U326 2.420 . S
O345 C330 1.202 . S
O346 U326 2.455 . S
O346 C343 1.301 . S
O347 U326 2.449 . S
O347 C343 1.282 . S
H348 C321 0.931 . S
H349 C323 0.929 . S
H350 C324 0.930 . S
H351 C325 0.931 . S
H352 C332 0.932 . S
H353 C333 0.930 . S
H354 C334 0.929 . S
H355 C336 0.930 . S
H356 C338 0.932 . S
H357 C339 0.929 . S
H358 C340 0.928 . S
H359 C342 0.932 . S
C360 C361 1.264 . S
C360 C365 1.479 . S
C360 C370 1.465 . S
C361 C360 1.264 . S
C361 C363 1.339 . S
C361 H388 0.931 . S
C362 C363 1.395 . S
C362 C364 1.320 . S
C363 C361 1.339 . S
C363 C362 1.395 . S
C363 H389 0.929 . S
C364 C362 1.320 . S
C364 C365 1.405 . S
C364 H390 0.930 . S
C365 C360 1.479 . S
C365 C364 1.405 . S
C365 H391 0.931 . S
U366 O367 2.454 . S
U366 O368 2.458 . S
U366 C369 2.984 . S
U366 C370 2.847 . S
U366 C383 2.882 . S
U366 O384 2.441 . S
U366 O385 2.420 . S
U366 O386 2.455 . S
U366 O387 2.449 . S
O367 U366 2.454 . S
O367 C369 1.353 . S
O368 U366 2.458 . S
O368 C369 1.286 . S
C369 U366 2.984 . S
C369 O367 1.353 . S
C369 O368 1.286 . S
C369 C371 1.363 . S
C370 C360 1.465 . S
C370 U366 2.847 . S
C370 O384 1.249 . S
C370 O385 1.202 . S
C371 C369 1.363 . S
C371 C373 1.408 . S
C371 C376 1.342 . S
C372 C373 1.310 . S
C372 C375 1.461 . S
C372 H392 0.932 . S
C373 C371 1.408 . S
C373 C372 1.310 . S
C373 H393 0.930 . S
C374 C375 1.474 . S
C374 C376 1.285 . S
C374 H394 0.929 . S
C375 C372 1.461 . S
C375 C374 1.474 . S
C376 C371 1.342 . S
C376 C374 1.285 . S
C376 H395 0.930 . S
C377 C380 1.424 . S
C377 C382 1.245 . S
C377 C383 1.428 . S
C378 C381 1.260 . S
C378 C382 1.477 . S
C378 H396 0.932 . S
C379 C380 1.384 . S
C379 C381 1.479 . S
C379 H397 0.929 . S
C380 C377 1.424 . S
C380 C379 1.384 . S
C380 H398 0.928 . S
C381 C378 1.260 . S
C381 C379 1.479 . S
C382 C377 1.245 . S
C382 C378 1.477 . S
C382 H399 0.932 . S
C383 U366 2.882 . S
C383 C377 1.428 . S
C383 O386 1.301 . S
C383 O387 1.282 . S
O384 U366 2.441 . S
O384 C370 1.249 . S
O385 U366 2.420 . S
O385 C370 1.202 . S
O386 U366 2.455 . S
O386 C383 1.301 . S
O387 U366 2.449 . S
O387 C383 1.282 . S
H388 C361 0.931 . S
H389 C363 0.929 . S
H390 C364 0.930 . S
H391 C365 0.931 . S
H392 C372 0.932 . S
H393 C373 0.930 . S
H394 C374 0.929 . S
H395 C376 0.930 . S
H396 C378 0.932 . S
H397 C379 0.929 . S
H398 C380 0.928 . S
H399 C382 0.932 . S
C400 C401 1.264 . S
C400 C405 1.479 . S
C400 C410 1.465 . S
C401 C400 1.264 . S
C401 C403 1.339 . S
C401 H428 0.931 . S
C402 C403 1.395 . S
C402 C404 1.320 . S
C403 C401 1.339 . S
C403 C402 1.395 . S
C403 H429 0.929 . S
C404 C402 1.320 . S
C404 C405 1.405 . S
C404 H430 0.930 . S
C405 C400 1.479 . S
C405 C404 1.405 . S
C405 H431 0.931 . S
U406 O407 2.454 . S
U406 O408 2.458 . S
U406 C409 2.984 . S
U406 C410 2.847 . S
U406 C423 2.882 . S
U406 O424 2.441 . S
U406 O425 2.420 . S
U406 O426 2.455 . S
U406 O427 2.449 . S
O407 U406 2.454 . S
O407 C409 1.353 . S
O408 U406 2.458 . S
O408 C409 1.286 . S
C409 U406 2.984 . S
C409 O407 1.353 . S
C409 O408 1.286 . S
C409 C411 1.363 . S
C410 C400 1.465 . S
C410 U406 2.847 . S
C410 O424 1.249 . S
C410 O425 1.202 . S
C411 C409 1.363 . S
C411 C413 1.408 . S
C411 C416 1.342 . S
C412 C413 1.310 . S
C412 C415 1.461 . S
C412 H432 0.932 . S
C413 C411 1.408 . S
C413 C412 1.310 . S
C413 H433 0.930 . S
C414 C415 1.474 . S
C414 C416 1.285 . S
C414 H434 0.929 . S
C415 C412 1.461 . S
C415 C414 1.474 . S
C416 C411 1.342 . S
C416 C414 1.285 . S
C416 H435 0.930 . S
C417 C420 1.424 . S
C417 C422 1.245 . S
C417 C423 1.428 . S
C418 C421 1.260 . S
C418 C422 1.477 . S
C418 H436 0.932 . S
C419 C420 1.384 . S
C419 C421 1.479 . S
C419 H437 0.929 . S
C420 C417 1.424 . S
C420 C419 1.384 . S
C420 H438 0.928 . S
C421 C418 1.260 . S
C421 C419 1.479 . S
C422 C417 1.245 . S
C422 C418 1.477 . S
C422 H439 0.932 . S
C423 U406 2.882 . S
C423 C417 1.428 . S
C423 O426 1.301 . S
C423 O427 1.282 . S
O424 U406 2.441 . S
O424 C410 1.249 . S
O425 U406 2.420 . S
O425 C410 1.202 . S
O426 U406 2.455 . S
O426 C423 1.301 . S
O427 U406 2.449 . S
O427 C423 1.282 . S
H428 C401 0.931 . S
H429 C403 0.929 . S
H430 C404 0.930 . S
H431 C405 0.931 . S
H432 C412 0.932 . S
H433 C413 0.930 . S
H434 C414 0.929 . S
H435 C416 0.930 . S
H436 C418 0.932 . S
H437 C419 0.929 . S
H438 C420 0.928 . S
H439 C422 0.932 . S
C440 C441 1.264 . S
C440 C445 1.479 . S
C440 C450 1.465 . S
C441 C440 1.264 . S
C441 C443 1.339 . S
C441 H468 0.931 . S
C442 C443 1.395 . S
C442 C444 1.320 . S
C443 C441 1.339 . S
C443 C442 1.395 . S
C443 H469 0.929 . S
C444 C442 1.320 . S
C444 C445 1.405 . S
C444 H470 0.930 . S
C445 C440 1.479 . S
C445 C444 1.405 . S
C445 H471 0.931 . S
U446 O447 2.454 . S
U446 O448 2.458 . S
U446 C449 2.984 . S
U446 C450 2.847 . S
U446 C463 2.882 . S
U446 O464 2.441 . S
U446 O465 2.420 . S
U446 O466 2.455 . S
U446 O467 2.449 . S
O447 U446 2.454 . S
O447 C449 1.353 . S
O448 U446 2.458 . S
O448 C449 1.286 . S
C449 U446 2.984 . S
C449 O447 1.353 . S
C449 O448 1.286 . S
C449 C451 1.363 . S
C450 C440 1.465 . S
C450 U446 2.847 . S
C450 O464 1.249 . S
C450 O465 1.202 . S
C451 C449 1.363 . S
C451 C453 1.408 . S
C451 C456 1.342 . S
C452 C453 1.310 . S
C452 C455 1.461 . S
C452 H472 0.932 . S
C453 C451 1.408 . S
C453 C452 1.310 . S
C453 H473 0.930 . S
C454 C455 1.474 . S
C454 C456 1.285 . S
C454 H474 0.929 . S
C455 C452 1.461 . S
C455 C454 1.474 . S
C456 C451 1.342 . S
C456 C454 1.285 . S
C456 H475 0.930 . S
C457 C460 1.424 . S
C457 C462 1.245 . S
C457 C463 1.428 . S
C458 C461 1.260 . S
C458 C462 1.477 . S
C458 H476 0.932 . S
C459 C460 1.384 . S
C459 C461 1.479 . S
C459 H477 0.929 . S
C460 C457 1.424 . S
C460 C459 1.384 . S
C460 H478 0.928 . S
C461 C458 1.260 . S
C461 C459 1.479 . S
C462 C457 1.245 . S
C462 C458 1.477 . S
C462 H479 0.932 . S
C463 U446 2.882 . S
C463 C457 1.428 . S
C463 O466 1.301 . S
C463 O467 1.282 . S
O464 U446 2.441 . S
O464 C450 1.249 . S
O465 U446 2.420 . S
O465 C450 1.202 . S
O466 U446 2.455 . S
O466 C463 1.301 . S
O467 U446 2.449 . S
O467 C463 1.282 . S
H468 C441 0.931 . S
H469 C443 0.929 . S
H470 C444 0.930 . S
H471 C445 0.931 . S
H472 C452 0.932 . S
H473 C453 0.930 . S
H474 C454 0.929 . S
H475 C456 0.930 . S
H476 C458 0.932 . S
H477 C459 0.929 . S
H478 C460 0.928 . S
H479 C462 0.932 . S
C480 C481 1.264 . S
C480 C485 1.479 . S
C480 C490 1.465 . S
C481 C480 1.264 . S
C481 C483 1.339 . S
C481 H508 0.931 . S
C482 C483 1.395 . S
C482 C484 1.320 . S
C483 C481 1.339 . S
C483 C482 1.395 . S
C483 H509 0.929 . S
C484 C482 1.320 . S
C484 C485 1.405 . S
C484 H510 0.930 . S
C485 C480 1.479 . S
C485 C484 1.405 . S
C485 H511 0.931 . S
U486 O487 2.454 . S
U486 O488 2.458 . S
U486 C489 2.984 . S
U486 C490 2.847 . S
U486 C503 2.882 . S
U486 O504 2.441 . S
U486 O505 2.420 . S
U486 O506 2.455 . S
U486 O507 2.449 . S
O487 U486 2.454 . S
O487 C489 1.353 . S
O488 U486 2.458 . S
O488 C489 1.286 . S
C489 U486 2.984 . S
C489 O487 1.353 . S
C489 O488 1.286 . S
C489 C491 1.363 . S
C490 C480 1.465 . S
C490 U486 2.847 . S
C490 O504 1.249 . S
C490 O505 1.202 . S
C491 C489 1.363 . S
C491 C493 1.408 . S
C491 C496 1.342 . S
C492 C493 1.310 . S
C492 C495 1.461 . S
C492 H512 0.932 . S
C493 C491 1.408 . S
C493 C492 1.310 . S
C493 H513 0.930 . S
C494 C495 1.474 . S
C494 C496 1.285 . S
C494 H514 0.929 . S
C495 C492 1.461 . S
C495 C494 1.474 . S
C496 C491 1.342 . S
C496 C494 1.285 . S
C496 H515 0.930 . S
C497 C500 1.424 . S
C497 C502 1.245 . S
C497 C503 1.428 . S
C498 C501 1.260 . S
C498 C502 1.477 . S
C498 H516 0.932 . S
C499 C500 1.384 . S
C499 C501 1.479 . S
C499 H517 0.929 . S
C500 C497 1.424 . S
C500 C499 1.384 . S
C500 H518 0.928 . S
C501 C498 1.260 . S
C501 C499 1.479 . S
C502 C497 1.245 . S
C502 C498 1.477 . S
C502 H519 0.932 . S
C503 U486 2.882 . S
C503 C497 1.428 . S
C503 O506 1.301 . S
C503 O507 1.282 . S
O504 U486 2.441 . S
O504 C490 1.249 . S
O505 U486 2.420 . S
O505 C490 1.202 . S
O506 U486 2.455 . S
O506 C503 1.301 . S
O507 U486 2.449 . S
O507 C503 1.282 . S
H508 C481 0.931 . S
H509 C483 0.929 . S
H510 C484 0.930 . S
H511 C485 0.931 . S
H512 C492 0.932 . S
H513 C493 0.930 . S
H514 C494 0.929 . S
H515 C496 0.930 . S
H516 C498 0.932 . S
H517 C499 0.929 . S
H518 C500 0.928 . S
H519 C502 0.932 . S
C520 C521 1.264 . S
C520 C525 1.479 . S
C520 C530 1.465 . S
C521 C520 1.264 . S
C521 C523 1.339 . S
C521 H548 0.931 . S
C522 C523 1.395 . S
C522 C524 1.320 . S
C523 C521 1.339 . S
C523 C522 1.395 . S
C523 H549 0.929 . S
C524 C522 1.320 . S
C524 C525 1.405 . S
C524 H550 0.930 . S
C525 C520 1.479 . S
C525 C524 1.405 . S
C525 H551 0.931 . S
U526 O527 2.454 . S
U526 O528 2.458 . S
U526 C529 2.984 . S
U526 C530 2.847 . S
U526 C543 2.882 . S
U526 O544 2.441 . S
U526 O545 2.420 . S
U526 O546 2.455 . S
U526 O547 2.449 . S
O527 U526 2.454 . S
O527 C529 1.353 . S
O528 U526 2.458 . S
O528 C529 1.286 . S
C529 U526 2.984 . S
C529 O527 1.353 . S
C529 O528 1.286 . S
C529 C531 1.363 . S
C530 C520 1.465 . S
C530 U526 2.847 . S
C530 O544 1.249 . S
C530 O545 1.202 . S
C531 C529 1.363 . S
C531 C533 1.408 . S
C531 C536 1.342 . S
C532 C533 1.310 . S
C532 C535 1.461 . S
C532 H552 0.932 . S
C533 C531 1.408 . S
C533 C532 1.310 . S
C533 H553 0.930 . S
C534 C535 1.474 . S
C534 C536 1.285 . S
C534 H554 0.929 . S
C535 C532 1.461 . S
C535 C534 1.474 . S
C536 C531 1.342 . S
C536 C534 1.285 . S
C536 H555 0.930 . S
C537 C540 1.424 . S
C537 C542 1.245 . S
C537 C543 1.428 . S
C538 C541 1.260 . S
C538 C542 1.477 . S
C538 H556 0.932 . S
C539 C540 1.384 . S
C539 C541 1.479 . S
C539 H557 0.929 . S
C540 C537 1.424 . S
C540 C539 1.384 . S
C540 H558 0.928 . S
C541 C538 1.260 . S
C541 C539 1.479 . S
C542 C537 1.245 . S
C542 C538 1.477 . S
C542 H559 0.932 . S
C543 U526 2.882 . S
C543 C537 1.428 . S
C543 O546 1.301 . S
C543 O547 1.282 . S
O544 U526 2.441 . S
O544 C530 1.249 . S
O545 U526 2.420 . S
O545 C530 1.202 . S
O546 U526 2.455 . S
O546 C543 1.301 . S
O547 U526 2.449 . S
O547 C543 1.282 . S
H548 C521 0.931 . S
H549 C523 0.929 . S
H550 C524 0.930 . S
H551 C525 0.931 . S
H552 C532 0.932 . S
H553 C533 0.930 . S
H554 C534 0.929 . S
H555 C536 0.930 . S
H556 C538 0.932 . S
H557 C539 0.929 . S
H558 C540 0.928 . S
H559 C542 0.932 . S
C560 C561 1.264 . S
C560 C565 1.479 . S
C560 C570 1.465 . S
C561 C560 1.264 . S
C561 C563 1.339 . S
C561 H588 0.931 . S
C562 C563 1.395 . S
C562 C564 1.320 . S
C563 C561 1.339 . S
C563 C562 1.395 . S
C563 H589 0.929 . S
C564 C562 1.320 . S
C564 C565 1.405 . S
C564 H590 0.930 . S
C565 C560 1.479 . S
C565 C564 1.405 . S
C565 H591 0.931 . S
U566 O567 2.454 . S
U566 O568 2.458 . S
U566 C569 2.984 . S
U566 C570 2.847 . S
U566 C583 2.882 . S
U566 O584 2.441 . S
U566 O585 2.420 . S
U566 O586 2.455 . S
U566 O587 2.449 . S
O567 U566 2.454 . S
O567 C569 1.353 . S
O568 U566 2.458 . S
O568 C569 1.286 . S
C569 U566 2.984 . S
C569 O567 1.353 . S
C569 O568 1.286 . S
C569 C571 1.363 . S
C570 C560 1.465 . S
C570 U566 2.847 . S
C570 O584 1.249 . S
C570 O585 1.202 . S
C571 C569 1.363 . S
C571 C573 1.408 . S
C571 C576 1.342 . S
C572 C573 1.310 . S
C572 C575 1.461 . S
C572 H592 0.932 . S
C573 C571 1.408 . S
C573 C572 1.310 . S
C573 H593 0.930 . S
C574 C575 1.474 . S
C574 C576 1.285 . S
C574 H594 0.929 . S
C575 C572 1.461 . S
C575 C574 1.474 . S
C576 C571 1.342 . S
C576 C574 1.285 . S
C576 H595 0.930 . S
C577 C580 1.424 . S
C577 C582 1.245 . S
C577 C583 1.428 . S
C578 C581 1.260 . S
C578 C582 1.477 . S
C578 H596 0.932 . S
C579 C580 1.384 . S
C579 C581 1.479 . S
C579 H597 0.929 . S
C580 C577 1.424 . S
C580 C579 1.384 . S
C580 H598 0.928 . S
C581 C578 1.260 . S
C581 C579 1.479 . S
C582 C577 1.245 . S
C582 C578 1.477 . S
C582 H599 0.932 . S
C583 U566 2.882 . S
C583 C577 1.428 . S
C583 O586 1.301 . S
C583 O587 1.282 . S
O584 U566 2.441 . S
O584 C570 1.249 . S
O585 U566 2.420 . S
O585 C570 1.202 . S
O586 U566 2.455 . S
O586 C583 1.301 . S
O587 U566 2.449 . S
O587 C583 1.282 . S
H588 C561 0.931 . S
H589 C563 0.929 . S
H590 C564 0.930 . S
H591 C565 0.931 . S
H592 C572 0.932 . S
H593 C573 0.930 . S
H594 C574 0.929 . S
H595 C576 0.930 . S
H596 C578 0.932 . S
H597 C579 0.929 . S
H598 C580 0.928 . S
H599 C582 0.932 . S
C600 C601 1.264 . S
C600 C605 1.479 . S
C600 C610 1.465 . S
C601 C600 1.264 . S
C601 C603 1.339 . S
C601 H628 0.931 . S
C602 C603 1.395 . S
C602 C604 1.320 . S
C603 C601 1.339 . S
C603 C602 1.395 . S
C603 H629 0.929 . S
C604 C602 1.320 . S
C604 C605 1.405 . S
C604 H630 0.930 . S
C605 C600 1.479 . S
C605 C604 1.405 . S
C605 H631 0.931 . S
U606 O607 2.454 . S
U606 O608 2.458 . S
U606 C609 2.984 . S
U606 C610 2.847 . S
U606 C623 2.882 . S
U606 O624 2.441 . S
U606 O625 2.420 . S
U606 O626 2.455 . S
U606 O627 2.449 . S
O607 U606 2.454 . S
O607 C609 1.353 . S
O608 U606 2.458 . S
O608 C609 1.286 . S
C609 U606 2.984 . S
C609 O607 1.353 . S
C609 O608 1.286 . S
C609 C611 1.363 . S
C610 C600 1.465 . S
C610 U606 2.847 . S
C610 O624 1.249 . S
C610 O625 1.202 . S
C611 C609 1.363 . S
C611 C613 1.408 . S
C611 C616 1.342 . S
C612 C613 1.310 . S
C612 C615 1.461 . S
C612 H632 0.932 . S
C613 C611 1.408 . S
C613 C612 1.310 . S
C613 H633 0.930 . S
C614 C615 1.474 . S
C614 C616 1.285 . S
C614 H634 0.929 . S
C615 C612 1.461 . S
C615 C614 1.474 . S
C616 C611 1.342 . S
C616 C614 1.285 . S
C616 H635 0.930 . S
C617 C620 1.424 . S
C617 C622 1.245 . S
C617 C623 1.428 . S
C618 C621 1.260 . S
C618 C622 1.477 . S
C618 H636 0.932 . S
C619 C620 1.384 . S
C619 C621 1.479 . S
C619 H637 0.929 . S
C620 C617 1.424 . S
C620 C619 1.384 . S
C620 H638 0.928 . S
C621 C618 1.260 . S
C621 C619 1.479 . S
C622 C617 1.245 . S
C622 C618 1.477 . S
C622 H639 0.932 . S
C623 U606 2.882 . S
C623 C617 1.428 . S
C623 O626 1.301 . S
C623 O627 1.282 . S
O624 U606 2.441 . S
O624 C610 1.249 . S
O625 U606 2.420 . S
O625 C610 1.202 . S
O626 U606 2.455 . S
O626 C623 1.301 . S
O627 U606 2.449 . S
O627 C623 1.282 . S
H628 C601 0.931 . S
H629 C603 0.929 . S
H630 C604 0.930 . S
H631 C605 0.931 . S
H632 C612 0.932 . S
H633 C613 0.930 . S
H634 C614 0.929 . S
H635 C616 0.930 . S
H636 C618 0.932 . S
H637 C619 0.929 . S
H638 C620 0.928 . S
H639 C622 0.932 . S
C640 C641 1.264 . S
C640 C645 1.479 . S
C640 C650 1.465 . S
C641 C640 1.264 . S
C641 C643 1.339 . S
C641 H668 0.931 . S
C642 C643 1.395 . S
C642 C644 1.320 . S
C643 C641 1.339 . S
C643 C642 1.395 . S
C643 H669 0.929 . S
C644 C642 1.320 . S
C644 C645 1.405 . S
C644 H670 0.930 . S
C645 C640 1.479 . S
C645 C644 1.405 . S
C645 H671 0.931 . S
U646 O647 2.454 . S
U646 O648 2.458 . S
U646 C649 2.984 . S
U646 C650 2.847 . S
U646 C663 2.882 . S
U646 O664 2.441 . S
U646 O665 2.420 . S
U646 O666 2.455 . S
U646 O667 2.449 . S
O647 U646 2.454 . S
O647 C649 1.353 . S
O648 U646 2.458 . S
O648 C649 1.286 . S
C649 U646 2.984 . S
C649 O647 1.353 . S
C649 O648 1.286 . S
C649 C651 1.363 . S
C650 C640 1.465 . S
C650 U646 2.847 . S
C650 O664 1.249 . S
C650 O665 1.202 . S
C651 C649 1.363 . S
C651 C653 1.408 . S
C651 C656 1.342 . S
C652 C653 1.310 . S
C652 C655 1.461 . S
C652 H672 0.932 . S
C653 C651 1.408 . S
C653 C652 1.310 . S
C653 H673 0.930 . S
C654 C655 1.474 . S
C654 C656 1.285 . S
C654 H674 0.929 . S
C655 C652 1.461 . S
C655 C654 1.474 . S
C656 C651 1.342 . S
C656 C654 1.285 . S
C656 H675 0.930 . S
C657 C660 1.424 . S
C657 C662 1.245 . S
C657 C663 1.428 . S
C658 C661 1.260 . S
C658 C662 1.477 . S
C658 H676 0.932 . S
C659 C660 1.384 . S
C659 C661 1.479 . S
C659 H677 0.929 . S
C660 C657 1.424 . S
C660 C659 1.384 . S
C660 H678 0.928 . S
C661 C658 1.260 . S
C661 C659 1.479 . S
C662 C657 1.245 . S
C662 C658 1.477 . S
C662 H679 0.932 . S
C663 U646 2.882 . S
C663 C657 1.428 . S
C663 O666 1.301 . S
C663 O667 1.282 . S
O664 U646 2.441 . S
O664 C650 1.249 . S
O665 U646 2.420 . S
O665 C650 1.202 . S
O666 U646 2.455 . S
O666 C663 1.301 . S
O667 U646 2.449 . S
O667 C663 1.282 . S
H668 C641 0.931 . S
H669 C643 0.929 . S
H670 C644 0.930 . S
H671 C645 0.931 . S
H672 C652 0.932 . S
H673 C653 0.930 . S
H674 C654 0.929 . S
H675 C656 0.930 . S
H676 C658 0.932 . S
H677 C659 0.929 . S
H678 C660 0.928 . S
H679 C662 0.932 . S
C680 C681 1.264 . S
C680 C685 1.479 . S
C680 C690 1.465 . S
C681 C680 1.264 . S
C681 C683 1.339 . S
C681 H708 0.931 . S
C682 C683 1.395 . S
C682 C684 1.320 . S
C683 C681 1.339 . S
C683 C682 1.395 . S
C683 H709 0.929 . S
C684 C682 1.320 . S
C684 C685 1.405 . S
C684 H710 0.930 . S
C685 C680 1.479 . S
C685 C684 1.405 . S
C685 H711 0.931 . S
U686 O687 2.454 . S
U686 O688 2.458 . S
U686 C689 2.984 . S
U686 C690 2.847 . S
U686 C703 2.882 . S
U686 O704 2.441 . S
U686 O705 2.420 . S
U686 O706 2.455 . S
U686 O707 2.449 . S
O687 U686 2.454 . S
O687 C689 1.353 . S
O688 U686 2.458 . S
O688 C689 1.286 . S
C689 U686 2.984 . S
C689 O687 1.353 . S
C689 O688 1.286 . S
C689 C691 1.363 . S
C690 C680 1.465 . S
C690 U686 2.847 . S
C690 O704 1.249 . S
C690 O705 1.202 . S
C691 C689 1.363 . S
C691 C693 1.408 . S
C691 C696 1.342 . S
C692 C693 1.310 . S
C692 C695 1.461 . S
C692 H712 0.932 . S
C693 C691 1.408 . S
C693 C692 1.310 . S
C693 H713 0.930 . S
C694 C695 1.474 . S
C694 C696 1.285 . S
C694 H714 0.929 . S
C695 C692 1.461 . S
C695 C694 1.474 . S
C696 C691 1.342 . S
C696 C694 1.285 . S
C696 H715 0.930 . S
C697 C700 1.424 . S
C697 C702 1.245 . S
C697 C703 1.428 . S
C698 C701 1.260 . S
C698 C702 1.477 . S
C698 H716 0.932 . S
C699 C700 1.384 . S
C699 C701 1.479 . S
C699 H717 0.929 . S
C700 C697 1.424 . S
C700 C699 1.384 . S
C700 H718 0.928 . S
C701 C698 1.260 . S
C701 C699 1.479 . S
C702 C697 1.245 . S
C702 C698 1.477 . S
C702 H719 0.932 . S
C703 U686 2.882 . S
C703 C697 1.428 . S
C703 O706 1.301 . S
C703 O707 1.282 . S
O704 U686 2.441 . S
O704 C690 1.249 . S
O705 U686 2.420 . S
O705 C690 1.202 . S
O706 U686 2.455 . S
O706 C703 1.301 . S
O707 U686 2.449 . S
O707 C703 1.282 . S
H708 C681 0.931 . S
H709 C683 0.929 . S
H710 C684 0.930 . S
H711 C685 0.931 . S
H712 C692 0.932 . S
H713 C693 0.930 . S
H714 C694 0.929 . S
H715 C696 0.930 . S
H716 C698 0.932 . S
H717 C699 0.929 . S
H718 C700 0.928 . S
H719 C702 0.932 . S
C720 C721 1.264 . S
C720 C725 1.479 . S
C720 C730 1.465 . S
C721 C720 1.264 . S
C721 C723 1.339 . S
C721 H748 0.931 . S
C722 C723 1.395 . S
C722 C724 1.320 . S
C723 C721 1.339 . S
C723 C722 1.395 . S
C723 H749 0.929 . S
C724 C722 1.320 . S
C724 C725 1.405 . S
C724 H750 0.930 . S
C725 C720 1.479 . S
C725 C724 1.405 . S
C725 H751 0.931 . S
U726 O727 2.454 . S
U726 O728 2.458 . S
U726 C729 2.984 . S
U726 C730 2.847 . S
U726 C743 2.882 . S
U726 O744 2.441 . S
U726 O745 2.420 . S
U726 O746 2.455 . S
U726 O747 2.449 . S
O727 U726 2.454 . S
O727 C729 1.353 . S
O728 U726 2.458 . S
O728 C729 1.286 . S
C729 U726 2.984 . S
C729 O727 1.353 . S
C729 O728 1.286 . S
C729 C731 1.363 . S
C730 C720 1.465 . S
C730 U726 2.847 . S
C730 O744 1.249 . S
C730 O745 1.202 . S
C731 C729 1.363 . S
C731 C733 1.408 . S
C731 C736 1.342 . S
C732 C733 1.310 . S
C732 C735 1.461 . S
C732 H752 0.932 . S
C733 C731 1.408 . S
C733 C732 1.310 . S
C733 H753 0.930 . S
C734 C735 1.474 . S
C734 C736 1.285 . S
C734 H754 0.929 . S
C735 C732 1.461 . S
C735 C734 1.474 . S
C736 C731 1.342 . S
C736 C734 1.285 . S
C736 H755 0.930 . S
C737 C740 1.424 . S
C737 C742 1.245 . S
C737 C743 1.428 . S
C738 C741 1.260 . S
C738 C742 1.477 . S
C738 H756 0.932 . S
C739 C740 1.384 . S
C739 C741 1.479 . S
C739 H757 0.929 . S
C740 C737 1.424 . S
C740 C739 1.384 . S
C740 H758 0.928 . S
C741 C738 1.260 . S
C741 C739 1.479 . S
C742 C737 1.245 . S
C742 C738 1.477 . S
C742 H759 0.932 . S
C743 U726 2.882 . S
C743 C737 1.428 . S
C743 O746 1.301 . S
C743 O747 1.282 . S
O744 U726 2.441 . S
O744 C730 1.249 . S
O745 U726 2.420 . S
O745 C730 1.202 . S
O746 U726 2.455 . S
O746 C743 1.301 . S
O747 U726 2.449 . S
O747 C743 1.282 . S
H748 C721 0.931 . S
H749 C723 0.929 . S
H750 C724 0.930 . S
H751 C725 0.931 . S
H752 C732 0.932 . S
H753 C733 0.930 . S
H754 C734 0.929 . S
H755 C736 0.930 . S
H756 C738 0.932 . S
H757 C739 0.929 . S
H758 C740 0.928 . S
H759 C742 0.932 . S
C760 C761 1.264 . S
C760 C765 1.479 . S
C760 C770 1.465 . S
C761 C760 1.264 . S
C761 C763 1.339 . S
C761 H788 0.931 . S
C762 C763 1.395 . S
C762 C764 1.320 . S
C763 C761 1.339 . S
C763 C762 1.395 . S
C763 H789 0.929 . S
C764 C762 1.320 . S
C764 C765 1.405 . S
C764 H790 0.930 . S
C765 C760 1.479 . S
C765 C764 1.405 . S
C765 H791 0.931 . S
U766 O767 2.454 . S
U766 O768 2.458 . S
U766 C769 2.984 . S
U766 C770 2.847 . S
U766 C783 2.882 . S
U766 O784 2.441 . S
U766 O785 2.420 . S
U766 O786 2.455 . S
U766 O787 2.449 . S
O767 U766 2.454 . S
O767 C769 1.353 . S
O768 U766 2.458 . S
O768 C769 1.286 . S
C769 U766 2.984 . S
C769 O767 1.353 . S
C769 O768 1.286 . S
C769 C771 1.363 . S
C770 C760 1.465 . S
C770 U766 2.847 . S
C770 O784 1.249 . S
C770 O785 1.202 . S
C771 C769 1.363 . S
C771 C773 1.408 . S
C771 C776 1.342 . S
C772 C773 1.310 . S
C772 C775 1.461 . S
C772 H792 0.932 . S
C773 C771 1.408 . S
C773 C772 1.310 . S
C773 H793 0.930 . S
C774 C775 1.474 . S
C774 C776 1.285 . S
C774 H794 0.929 . S
C775 C772 1.461 . S
C775 C774 1.474 . S
C776 C771 1.342 . S
C776 C774 1.285 . S
C776 H795 0.930 . S
C777 C780 1.424 . S
C777 C782 1.245 . S
C777 C783 1.428 . S
C778 C781 1.260 . S
C778 C782 1.477 . S
C778 H796 0.932 . S
C779 C780 1.384 . S
C779 C781 1.479 . S
C779 H797 0.929 . S
C780 C777 1.424 . S
C780 C779 1.384 . S
C780 H798 0.928 . S
C781 C778 1.260 . S
C781 C779 1.479 . S
C782 C777 1.245 . S
C782 C778 1.477 . S
C782 H799 0.932 . S
C783 U766 2.882 . S
C783 C777 1.428 . S
C783 O786 1.301 . S
C783 O787 1.282 . S
O784 U766 2.441 . S
O784 C770 1.249 . S
O785 U766 2.420 . S
O785 C770 1.202 . S
O786 U766 2.455 . S
O786 C783 1.301 . S
O787 U766 2.449 . S
O787 C783 1.282 . S
H788 C761 0.931 . S
H789 C763 0.929 . S
H790 C764 0.930 . S
H791 C765 0.931 . S
H792 C772 0.932 . S
H793 C773 0.930 . S
H794 C774 0.929 . S
H795 C776 0.930 . S
H796 C778 0.932 . S
H797 C779 0.929 . S
H798 C780 0.928 . S
H799 C782 0.932 . S
C800 C801 1.264 . S
C800 C805 1.479 . S
C800 C810 1.465 . S
C801 C800 1.264 . S
C801 C803 1.339 . S
C801 H828 0.931 . S
C802 C803 1.395 . S
C802 C804 1.320 . S
C803 C801 1.339 . S
C803 C802 1.395 . S
C803 H829 0.929 . S
C804 C802 1.320 . S
C804 C805 1.405 . S
C804 H830 0.930 . S
C805 C800 1.479 . S
C805 C804 1.405 . S
C805 H831 0.931 . S
U806 O807 2.454 . S
U806 O808 2.458 . S
U806 C809 2.984 . S
U806 C810 2.847 . S
U806 C823 2.882 . S
U806 O824 2.441 . S
U806 O825 2.420 . S
U806 O826 2.455 . S
U806 O827 2.449 . S
O807 U806 2.454 . S
O807 C809 1.353 . S
O808 U806 2.458 . S
O808 C809 1.286 . S
C809 U806 2.984 . S
C809 O807 1.353 . S
C809 O808 1.286 . S
C809 C811 1.363 . S
C810 C800 1.465 . S
C810 U806 2.847 . S
C810 O824 1.249 . S
C810 O825 1.202 . S
C811 C809 1.363 . S
C811 C813 1.408 . S
C811 C816 1.342 . S
C812 C813 1.310 . S
C812 C815 1.461 . S
C812 H832 0.932 . S
C813 C811 1.408 . S
C813 C812 1.310 . S
C813 H833 0.930 . S
C814 C815 1.474 . S
C814 C816 1.285 . S
C814 H834 0.929 . S
C815 C812 1.461 . S
C815 C814 1.474 . S
C816 C811 1.342 . S
C816 C814 1.285 . S
C816 H835 0.930 . S
C817 C820 1.424 . S
C817 C822 1.245 . S
C817 C823 1.428 . S
C818 C821 1.260 . S
C818 C822 1.477 . S
C818 H836 0.932 . S
C819 C820 1.384 . S
C819 C821 1.479 . S
C819 H837 0.929 . S
C820 C817 1.424 . S
C820 C819 1.384 . S
C820 H838 0.928 . S
C821 C818 1.260 . S
C821 C819 1.479 . S
C822 C817 1.245 . S
C822 C818 1.477 . S
C822 H839 0.932 . S
C823 U806 2.882 . S
C823 C817 1.428 . S
C823 O826 1.301 . S
C823 O827 1.282 . S
O824 U806 2.441 . S
O824 C810 1.249 . S
O825 U806 2.420 . S
O825 C810 1.202 . S
O826 U806 2.455 . S
O826 C823 1.301 . S
O827 U806 2.449 . S
O827 C823 1.282 . S
H828 C801 0.931 . S
H829 C803 0.929 . S
H830 C804 0.930 . S
H831 C805 0.931 . S
H832 C812 0.932 . S
H833 C813 0.930 . S
H834 C814 0.929 . S
H835 C816 0.930 . S
H836 C818 0.932 . S
H837 C819 0.929 . S
H838 C820 0.928 . S
H839 C822 0.932 . S
C840 C841 1.264 . S
C840 C845 1.479 . S
C840 C850 1.465 . S
C841 C840 1.264 . S
C841 C843 1.339 . S
C841 H868 0.931 . S
C842 C843 1.395 . S
C842 C844 1.320 . S
C843 C841 1.339 . S
C843 C842 1.395 . S
C843 H869 0.929 . S
C844 C842 1.320 . S
C844 C845 1.405 . S
C844 H870 0.930 . S
C845 C840 1.479 . S
C845 C844 1.405 . S
C845 H871 0.931 . S
U846 O847 2.454 . S
U846 O848 2.458 . S
U846 C849 2.984 . S
U846 C850 2.847 . S
U846 C863 2.882 . S
U846 O864 2.441 . S
U846 O865 2.420 . S
U846 O866 2.455 . S
U846 O867 2.449 . S
O847 U846 2.454 . S
O847 C849 1.353 . S
O848 U846 2.458 . S
O848 C849 1.286 . S
C849 U846 2.984 . S
C849 O847 1.353 . S
C849 O848 1.286 . S
C849 C851 1.363 . S
C850 C840 1.465 . S
C850 U846 2.847 . S
C850 O864 1.249 . S
C850 O865 1.202 . S
C851 C849 1.363 . S
C851 C853 1.408 . S
C851 C856 1.342 . S
C852 C853 1.310 . S
C852 C855 1.461 . S
C852 H872 0.932 . S
C853 C851 1.408 . S
C853 C852 1.310 . S
C853 H873 0.930 . S
C854 C855 1.474 . S
C854 C856 1.285 . S
C854 H874 0.929 . S
C855 C852 1.461 . S
C855 C854 1.474 . S
C856 C851 1.342 . S
C856 C854 1.285 . S
C856 H875 0.930 . S
C857 C860 1.424 . S
C857 C862 1.245 . S
C857 C863 1.428 . S
C858 C861 1.260 . S
C858 C862 1.477 . S
C858 H876 0.932 . S
C859 C860 1.384 . S
C859 C861 1.479 . S
C859 H877 0.929 . S
C860 C857 1.424 . S
C860 C859 1.384 . S
C860 H878 0.928 . S
C861 C858 1.260 . S
C861 C859 1.479 . S
C862 C857 1.245 . S
C862 C858 1.477 . S
C862 H879 0.932 . S
C863 U846 2.882 . S
C863 C857 1.428 . S
C863 O866 1.301 . S
C863 O867 1.282 . S
O864 U846 2.441 . S
O864 C850 1.249 . S
O865 U846 2.420 . S
O865 C850 1.202 . S
O866 U846 2.455 . S
O866 C863 1.301 . S
O867 U846 2.449 . S
O867 C863 1.282 . S
H868 C841 0.931 . S
H869 C843 0.929 . S
H870 C844 0.930 . S
H871 C845 0.931 . S
H872 C852 0.932 . S
H873 C853 0.930 . S
H874 C854 0.929 . S
H875 C856 0.930 . S
H876 C858 0.932 . S
H877 C859 0.929 . S
H878 C860 0.928 . S
H879 C862 0.932 . S
C880 C881 1.264 . S
C880 C885 1.479 . S
C880 C890 1.465 . S
C881 C880 1.264 . S
C881 C883 1.339 . S
C881 H908 0.931 . S
C882 C883 1.395 . S
C882 C884 1.320 . S
C883 C881 1.339 . S
C883 C882 1.395 . S
C883 H909 0.929 . S
C884 C882 1.320 . S
C884 C885 1.405 . S
C884 H910 0.930 . S
C885 C880 1.479 . S
C885 C884 1.405 . S
C885 H911 0.931 . S
U886 O887 2.454 . S
U886 O888 2.458 . S
U886 C889 2.984 . S
U886 C890 2.847 . S
U886 C903 2.882 . S
U886 O904 2.441 . S
U886 O905 2.420 . S
U886 O906 2.455 . S
U886 O907 2.449 . S
O887 U886 2.454 . S
O887 C889 1.353 . S
O888 U886 2.458 . S
O888 C889 1.286 . S
C889 U886 2.984 . S
C889 O887 1.353 . S
C889 O888 1.286 . S
C889 C891 1.363 . S
C890 C880 1.465 . S
C890 U886 2.847 . S
C890 O904 1.249 . S
C890 O905 1.202 . S
C891 C889 1.363 . S
C891 C893 1.408 . S
C891 C896 1.342 . S
C892 C893 1.310 . S
C892 C895 1.461 . S
C892 H912 0.932 . S
C893 C891 1.408 . S
C893 C892 1.310 . S
C893 H913 0.930 . S
C894 C895 1.474 . S
C894 C896 1.285 . S
C894 H914 0.929 . S
C895 C892 1.461 . S
C895 C894 1.474 . S
C896 C891 1.342 . S
C896 C894 1.285 . S
C896 H915 0.930 . S
C897 C900 1.424 . S
C897 C902 1.245 . S
C897 C903 1.428 . S
C898 C901 1.260 . S
C898 C902 1.477 . S
C898 H916 0.932 . S
C899 C900 1.384 . S
C899 C901 1.479 . S
C899 H917 0.929 . S
C900 C897 1.424 . S
C900 C899 1.384 . S
C900 H918 0.928 . S
C901 C898 1.260 . S
C901 C899 1.479 . S
C902 C897 1.245 . S
C902 C898 1.477 . S
C902 H919 0.932 . S
C903 U886 2.882 . S
C903 C897 1.428 . S
C903 O906 1.301 . S
C903 O907 1.282 . S
O904 U886 2.441 . S
O904 C890 1.249 . S
O905 U886 2.420 . S
O905 C890 1.202 . S
O906 U886 2.455 . S
O906 C903 1.301 . S
O907 U886 2.449 . S
O907 C903 1.282 . S
H908 C881 0.931 . S
H909 C883 0.929 . S
H910 C884 0.930 . S
H911 C885 0.931 . S
H912 C892 0.932 . S
H913 C893 0.930 . S
H914 C894 0.929 . S
H915 C896 0.930 . S
H916 C898 0.932 . S
H917 C899 0.929 . S
H918 C900 0.928 . S
H919 C902 0.932 . S
C920 C921 1.264 . S
C920 C925 1.479 . S
C920 C930 1.465 . S
C921 C920 1.264 . S
C921 C923 1.339 . S
C921 H948 0.931 . S
C922 C923 1.395 . S
C922 C924 1.320 . S
C923 C921 1.339 . S
C923 C922 1.395 . S
C923 H949 0.929 . S
C924 C922 1.320 . S
C924 C925 1.405 . S
C924 H950 0.930 . S
C925 C920 1.479 . S
C925 C924 1.405 . S
C925 H951 0.931 . S
U926 O927 2.454 . S
U926 O928 2.458 . S
U926 C929 2.984 . S
U926 C930 2.847 . S
U926 C943 2.882 . S
U926 O944 2.441 . S
U926 O945 2.420 . S
U926 O946 2.455 . S
U926 O947 2.449 . S
O927 U926 2.454 . S
O927 C929 1.353 . S
O928 U926 2.458 . S
O928 C929 1.286 . S
C929 U926 2.984 . S
C929 O927 1.353 . S
C929 O928 1.286 . S
C929 C931 1.363 . S
C930 C920 1.465 . S
C930 U926 2.847 . S
C930 O944 1.249 . S
C930 O945 1.202 . S
C931 C929 1.363 . S
C931 C933 1.408 . S
C931 C936 1.342 . S
C932 C933 1.310 . S
C932 C935 1.461 . S
C932 H952 0.932 . S
C933 C931 1.408 . S
C933 C932 1.310 . S
C933 H953 0.930 . S
C934 C935 1.474 . S
C934 C936 1.285 . S
C934 H954 0.929 . S
C935 C932 1.461 . S
C935 C934 1.474 . S
C936 C931 1.342 . S
C936 C934 1.285 . S
C936 H955 0.930 . S
C937 C940 1.424 . S
C937 C942 1.245 . S
C937 C943 1.428 . S
C938 C941 1.260 . S
C938 C942 1.477 . S
C938 H956 0.932 . S
C939 C940 1.384 . S
C939 C941 1.479 . S
C939 H957 0.929 . S
C940 C937 1.424 . S
C940 C939 1.384 . S
C940 H958 0.928 . S
C941 C938 1.260 . S
C941 C939 1.479 . S
C942 C937 1.245 . S
C942 C938 1.477 . S
C942 H959 0.932 . S
C943 U926 2.882 . S
C943 C937 1.428 . S
C943 O946 1.301 . S
C943 O947 1.282 . S
O944 U926 2.441 . S
O944 C930 1.249 . S
O945 U926 2.420 . S
O945 C930 1.202 . S
O946 U926 2.455 . S
O946 C943 1.301 . S
O947 U926 2.449 . S
O947 C943 1.282 . S
H948 C921 0.931 . S
H949 C923 0.929 . S
H950 C924 0.930 . S
H951 C925 0.931 . S
H952 C932 0.932 . S
H953 C933 0.930 . S
H954 C934 0.929 . S
H955 C936 0.930 . S
H956 C938 0.932 . S
H957 C939 0.929 . S
H958 C940 0.928 . S
H959 C942 0.932 . S
C960 C961 1.264 . S
C960 C965 1.479 . S
C960 C970 1.465 . S
C961 C960 1.264 . S
C961 C963 1.339 . S
C961 H988 0.931 . S
C962 C963 1.395 . S
C962 C964 1.320 . S
C963 C961 1.339 . S
C963 C962 1.395 . S
C963 H989 0.929 . S
C964 C962 1.320 . S
C964 C965 1.405 . S
C964 H990 0.930 . S
C965 C960 1.479 . S
C965 C964 1.405 . S
C965 H991 0.931 . S
U966 O967 2.454 . S
U966 O968 2.458 . S
U966 C969 2.984 . S
U966 C970 2.847 . S
U966 C983 2.882 . S
U966 O984 2.441 . S
U966 O985 2.420 . S
U966 O986 2.455 . S
U966 O987 2.449 . S
O967 U966 2.454 . S
O967 C969 1.353 . S
O968 U966 2.458 . S
O968 C969 1.286 . S
C969 U966 2.984 . S
C969 O967 1.353 . S
C969 O968 1.286 . S
C969 C971 1.363 . S
C970 C960 1.465 . S
C970 U966 2.847 . S
C970 O984 1.249 . S
C970 O985 1.202 . S
C971 C969 1.363 . S
C971 C973 1.408 . S
C971 C976 1.342 . S
C972 C973 1.310 . S
C972 C975 1.461 . S
C972 H992 0.932 . S
C973 C971 1.408 . S
C973 C972 1.310 . S
C973 H993 0.930 . S
C974 C975 1.474 . S
C974 C976 1.285 . S
C974 H994 0.929 . S
C975 C972 1.461 . S
C975 C974 1.474 . S
C976 C971 1.342 . S
C976 C974 1.285 . S
C976 H995 0.930 . S
C977 C980 1.424 . S
C977 C982 1.245 . S
C977 C983 1.428 . S
C978 C981 1.260 . S
C978 C982 1.477 . S
C978 H996 0.932 . S
C979 C980 1.384 . S
C979 C981 1.479 . S
C979 H997 0.929 . S
C980 C977 1.424 . S
C980 C979 1.384 . S
C980 H998 0.928 . S
C981 C978 1.260 . S
C981 C979 1.479 . S
C982 C977 1.245 . S
C982 C978 1.477 . S
C982 H999 0.932 . S
C983 U966 2.882 . S
C983 C977 1.428 . S
C983 O986 1.301 . S
C983 O987 1.282 . S
O984 U966 2.441 . S
O984 C970 1.249 . S
O985 U966 2.420 . S
O985 C970 1.202 . S
O986 U966 2.455 . S
O986 C983 1.301 . S
O987 U966 2.449 . S
O987 C983 1.282 . S
H988 C961 0.931 . S
H989 C963 0.929 . S
H990 C964 0.930 . S
H991 C965 0.931 . S
H992 C972 0.932 . S
H993 C973 0.930 . S
H994 C974 0.929 . S
H995 C976 0.930 . S
H996 C978 0.932 . S
H997 C979 0.929 . S
H998 C980 0.928 . S
H999 C982 0.932 . S
C1000 C1001 1.264 . S
C1000 C1005 1.479 . S
C1000 C1010 1.465 . S
C1001 C1000 1.264 . S
C1001 C1003 1.339 . S
C1001 H1028 0.931 . S
C1002 C1003 1.395 . S
C1002 C1004 1.320 . S
C1003 C1001 1.339 . S
C1003 C1002 1.395 . S
C1003 H1029 0.929 . S
C1004 C1002 1.320 . S
C1004 C1005 1.405 . S
C1004 H1030 0.930 . S
C1005 C1000 1.479 . S
C1005 C1004 1.405 . S
C1005 H1031 0.931 . S
U1006 O1007 2.454 . S
U1006 O1008 2.458 . S
U1006 C1009 2.984 . S
U1006 C1010 2.847 . S
U1006 C1023 2.882 . S
U1006 O1024 2.441 . S
U1006 O1025 2.420 . S
U1006 O1026 2.455 . S
U1006 O1027 2.449 . S
O1007 U1006 2.454 . S
O1007 C1009 1.353 . S
O1008 U1006 2.458 . S
O1008 C1009 1.286 . S
C1009 U1006 2.984 . S
C1009 O1007 1.353 . S
C1009 O1008 1.286 . S
C1009 C1011 1.363 . S
C1010 C1000 1.465 . S
C1010 U1006 2.847 . S
C1010 O1024 1.249 . S
C1010 O1025 1.202 . S
C1011 C1009 1.363 . S
C1011 C1013 1.408 . S
C1011 C1016 1.342 . S
C1012 C1013 1.310 . S
C1012 C1015 1.461 . S
C1012 H1032 0.932 . S
C1013 C1011 1.408 . S
C1013 C1012 1.310 . S
C1013 H1033 0.930 . S
C1014 C1015 1.474 . S
C1014 C1016 1.285 . S
C1014 H1034 0.929 . S
C1015 C1012 1.461 . S
C1015 C1014 1.474 . S
C1016 C1011 1.342 . S
C1016 C1014 1.285 . S
C1016 H1035 0.930 . S
C1017 C1020 1.424 . S
C1017 C1022 1.245 . S
C1017 C1023 1.428 . S
C1018 C1021 1.260 . S
C1018 C1022 1.477 . S
C1018 H1036 0.932 . S
C1019 C1020 1.384 . S
C1019 C1021 1.479 . S
C1019 H1037 0.929 . S
C1020 C1017 1.424 . S
C1020 C1019 1.384 . S
C1020 H1038 0.928 . S
C1021 C1018 1.260 . S
C1021 C1019 1.479 . S
C1022 C1017 1.245 . S
C1022 C1018 1.477 . S
C1022 H1039 0.932 . S
C1023 U1006 2.882 . S
C1023 C1017 1.428 . S
C1023 O1026 1.301 . S
C1023 O1027 1.282 . S
O1024 U1006 2.441 . S
O1024 C1010 1.249 . S
O1025 U1006 2.420 . S
O1025 C1010 1.202 . S
O1026 U1006 2.455 . S
O1026 C1023 1.301 . S
O1027 U1006 2.449 . S
O1027 C1023 1.282 . S
H1028 C1001 0.931 . S
H1029 C1003 0.929 . S
H1030 C1004 0.930 . S
H1031 C1005 0.931 . S
H1032 C1012 0.932 . S
H1033 C1013 0.930 . S
H1034 C1014 0.929 . S
H1035 C1016 0.930 . S
H1036 C1018 0.932 . S
H1037 C1019 0.929 . S
H1038 C1020 0.928 . S
H1039 C1022 0.932 . S
C1040 C1041 1.264 . S
C1040 C1045 1.479 . S
C1040 C1050 1.465 . S
C1041 C1040 1.264 . S
C1041 C1043 1.339 . S
C1041 H1068 0.931 . S
C1042 C1043 1.395 . S
C1042 C1044 1.320 . S
C1043 C1041 1.339 . S
C1043 C1042 1.395 . S
C1043 H1069 0.929 . S
C1044 C1042 1.320 . S
C1044 C1045 1.405 . S
C1044 H1070 0.930 . S
C1045 C1040 1.479 . S
C1045 C1044 1.405 . S
C1045 H1071 0.931 . S
U1046 O1047 2.454 . S
U1046 O1048 2.458 . S
U1046 C1049 2.984 . S
U1046 C1050 2.847 . S
U1046 C1063 2.882 . S
U1046 O1064 2.441 . S
U1046 O1065 2.420 . S
U1046 O1066 2.455 . S
U1046 O1067 2.449 . S
O1047 U1046 2.454 . S
O1047 C1049 1.353 . S
O1048 U1046 2.458 . S
O1048 C1049 1.286 . S
C1049 U1046 2.984 . S
C1049 O1047 1.353 . S
C1049 O1048 1.286 . S
C1049 C1051 1.363 . S
C1050 C1040 1.465 . S
C1050 U1046 2.847 . S
C1050 O1064 1.249 . S
C1050 O1065 1.202 . S
C1051 C1049 1.363 . S
C1051 C1053 1.408 . S
C1051 C1056 1.342 . S
C1052 C1053 1.310 . S
C1052 C1055 1.461 . S
C1052 H1072 0.932 . S
C1053 C1051 1.408 . S
C1053 C1052 1.310 . S
C1053 H1073 0.930 . S
C1054 C1055 1.474 . S
C1054 C1056 1.285 . S
C1054 H1074 0.929 . S
C1055 C1052 1.461 . S
C1055 C1054 1.474 . S
C1056 C1051 1.342 . S
C1056 C1054 1.285 . S
C1056 H1075 0.930 . S
C1057 C1060 1.424 . S
C1057 C1062 1.245 . S
C1057 C1063 1.428 . S
C1058 C1061 1.260 . S
C1058 C1062 1.477 . S
C1058 H1076 0.932 . S
C1059 C1060 1.384 . S
C1059 C1061 1.479 . S
C1059 H1077 0.929 . S
C1060 C1057 1.424 . S
C1060 C1059 1.384 . S
C1060 H1078 0.928 . S
C1061 C1058 1.260 . S
C1061 C1059 1.479 . S
C1062 C1057 1.245 . S
C1062 C1058 1.477 . S
C1062 H1079 0.932 . S
C1063 U1046 2.882 . S
C1063 C1057 1.428 . S
C1063 O1066 1.301 . S
C1063 O1067 1.282 . S
O1064 U1046 2.441 . S
O1064 C1050 1.249 . S
O1065 U1046 2.420 . S
O1065 C1050 1.202 . S
O1066 U1046 2.455 . S
O1066 C1063 1.301 . S
O1067 U1046 2.449 . S
O1067 C1063 1.282 . S
H1068 C1041 0.931 . S
H1069 C1043 0.929 . S
H1070 C1044 0.930 . S
H1071 C1045 0.931 . S
H1072 C1052 0.932 . S
H1073 C1053 0.930 . S
H1074 C1054 0.929 . S
H1075 C1056 0.930 . S
H1076 C1058 0.932 . S
H1077 C1059 0.929 . S
H1078 C1060 0.928 . S
H1079 C1062 0.932 . S
C1080 C1081 1.264 . S
C1080 C1085 1.479 . S
C1080 C1090 1.465 . S
C1081 C1080 1.264 . S
C1081 C1083 1.339 . S
C1081 H1108 0.931 . S
C1082 C1083 1.395 . S
C1082 C1084 1.320 . S
C1083 C1081 1.339 . S
C1083 C1082 1.395 . S
C1083 H1109 0.929 . S
C1084 C1082 1.320 . S
C1084 C1085 1.405 . S
C1084 H1110 0.930 . S
C1085 C1080 1.479 . S
C1085 C1084 1.405 . S
C1085 H1111 0.931 . S
U1086 O1087 2.454 . S
U1086 O1088 2.458 . S
U1086 C1089 2.984 . S
U1086 C1090 2.847 . S
U1086 C1103 2.882 . S
U1086 O1104 2.441 . S
U1086 O1105 2.420 . S
U1086 O1106 2.455 . S
U1086 O1107 2.449 . S
O1087 U1086 2.454 . S
O1087 C1089 1.353 . S
O1088 U1086 2.458 . S
O1088 C1089 1.286 . S
C1089 U1086 2.984 . S
C1089 O1087 1.353 . S
C1089 O1088 1.286 . S
C1089 C1091 1.363 . S
C1090 C1080 1.465 . S
C1090 U1086 2.847 . S
C1090 O1104 1.249 . S
C1090 O1105 1.202 . S
C1091 C1089 1.363 . S
C1091 C1093 1.408 . S
C1091 C1096 1.342 . S
C1092 C1093 1.310 . S
C1092 C1095 1.461 . S
C1092 H1112 0.932 . S
C1093 C1091 1.408 . S
C1093 C1092 1.310 . S
C1093 H1113 0.930 . S
C1094 C1095 1.474 . S
C1094 C1096 1.285 . S
C1094 H1114 0.929 . S
C1095 C1092 1.461 . S
C1095 C1094 1.474 . S
C1096 C1091 1.342 . S
C1096 C1094 1.285 . S
C1096 H1115 0.930 . S
C1097 C1100 1.424 . S
C1097 C1102 1.245 . S
C1097 C1103 1.428 . S
C1098 C1101 1.260 . S
C1098 C1102 1.477 . S
C1098 H1116 0.932 . S
C1099 C1100 1.384 . S
C1099 C1101 1.479 . S
C1099 H1117 0.929 . S
C1100 C1097 1.424 . S
C1100 C1099 1.384 . S
C1100 H1118 0.928 . S
C1101 C1098 1.260 . S
C1101 C1099 1.479 . S
C1102 C1097 1.245 . S
C1102 C1098 1.477 . S
C1102 H1119 0.932 . S
C1103 U1086 2.882 . S
C1103 C1097 1.428 . S
C1103 O1106 1.301 . S
C1103 O1107 1.282 . S
O1104 U1086 2.441 . S
O1104 C1090 1.249 . S
O1105 U1086 2.420 . S
O1105 C1090 1.202 . S
O1106 U1086 2.455 . S
O1106 C1103 1.301 . S
O1107 U1086 2.449 . S
O1107 C1103 1.282 . S
H1108 C1081 0.931 . S
H1109 C1083 0.929 . S
H1110 C1084 0.930 . S
H1111 C1085 0.931 . S
H1112 C1092 0.932 . S
H1113 C1093 0.930 . S
H1114 C1094 0.929 . S
H1115 C1096 0.930 . S
H1116 C1098 0.932 . S
H1117 C1099 0.929 . S
H1118 C1100 0.928 . S
H1119 C1102 0.932 . S
C1120 C1121 1.264 . S
C1120 C1125 1.479 . S
C1120 C1130 1.465 . S
C1121 C1120 1.264 . S
C1121 C1123 1.339 . S
C1121 H1148 0.931 . S
C1122 C1123 1.395 . S
C1122 C1124 1.320 . S
C1123 C1121 1.339 . S
C1123 C1122 1.395 . S
C1123 H1149 0.929 . S
C1124 C1122 1.320 . S
C1124 C1125 1.405 . S
C1124 H1150 0.930 . S
C1125 C1120 1.479 . S
C1125 C1124 1.405 . S
C1125 H1151 0.931 . S
U1126 O1127 2.454 . S
U1126 O1128 2.458 . S
U1126 C1129 2.984 . S
U1126 C1130 2.847 . S
U1126 C1143 2.882 . S
U1126 O1144 2.441 . S
U1126 O1145 2.420 . S
U1126 O1146 2.455 . S
U1126 O1147 2.449 . S
O1127 U1126 2.454 . S
O1127 C1129 1.353 . S
O1128 U1126 2.458 . S
O1128 C1129 1.286 . S
C1129 U1126 2.984 . S
C1129 O1127 1.353 . S
C1129 O1128 1.286 . S
C1129 C1131 1.363 . S
C1130 C1120 1.465 . S
C1130 U1126 2.847 . S
C1130 O1144 1.249 . S
C1130 O1145 1.202 . S
C1131 C1129 1.363 . S
C1131 C1133 1.408 . S
C1131 C1136 1.342 . S
C1132 C1133 1.310 . S
C1132 C1135 1.461 . S
C1132 H1152 0.932 . S
C1133 C1131 1.408 . S
C1133 C1132 1.310 . S
C1133 H1153 0.930 . S
C1134 C1135 1.474 . S
C1134 C1136 1.285 . S
C1134 H1154 0.929 . S
C1135 C1132 1.461 . S
C1135 C1134 1.474 . S
C1136 C1131 1.342 . S
C1136 C1134 1.285 . S
C1136 H1155 0.930 . S
C1137 C1140 1.424 . S
C1137 C1142 1.245 . S
C1137 C1143 1.428 . S
C1138 C1141 1.260 . S
C1138 C1142 1.477 . S
C1138 H1156 0.932 . S
C1139 C1140 1.384 . S
C1139 C1141 1.479 . S
C1139 H1157 0.929 . S
C1140 C1137 1.424 . S
C1140 C1139 1.384 . S
C1140 H1158 0.928 . S
C1141 C1138 1.260 . S
C1141 C1139 1.479 . S
C1142 C1137 1.245 . S
C1142 C1138 1.477 . S
C1142 H1159 0.932 . S
C1143 U1126 2.882 . S
C1143 C1137 1.428 . S
C1143 O1146 1.301 . S
C1143 O1147 1.282 . S
O1144 U1126 2.441 . S
O1144 C1130 1.249 . S
O1145 U1126 2.420 . S
O1145 C1130 1.202 . S
O1146 U1126 2.455 . S
O1146 C1143 1.301 . S
O1147 U1126 2.449 . S
O1147 C1143 1.282 . S
H1148 C1121 0.931 . S
H1149 C1123 0.929 . S
H1150 C1124 0.930 . S
H1151 C1125 0.931 . S
H1152 C1132 0.932 . S
H1153 C1133 0.930 . S
H1154 C1134 0.929 . S
H1155 C1136 0.930 . S
H1156 C1138 0.932 . S
H1157 C1139 0.929 . S
H1158 C1140 0.928 . S
H1159 C1142 0.932 . S
C1160 C1161 1.264 . S
C1160 C1165 1.479 . S
C1160 C1170 1.465 . S
C1161 C1160 1.264 . S
C1161 C1163 1.339 . S
C1161 H1188 0.931 . S
C1162 C1163 1.395 . S
C1162 C1164 1.320 . S
C1163 C1161 1.339 . S
C1163 C1162 1.395 . S
C1163 H1189 0.929 . S
C1164 C1162 1.320 . S
C1164 C1165 1.405 . S
C1164 H1190 0.930 . S
C1165 C1160 1.479 . S
C1165 C1164 1.405 . S
C1165 H1191 0.931 . S
U1166 O1167 2.454 . S
U1166 O1168 2.458 . S
U1166 C1169 2.984 . S
U1166 C1170 2.847 . S
U1166 C1183 2.882 . S
U1166 O1184 2.441 . S
U1166 O1185 2.420 . S
U1166 O1186 2.455 . S
U1166 O1187 2.449 . S
O1167 U1166 2.454 . S
O1167 C1169 1.353 . S
O1168 U1166 2.458 . S
O1168 C1169 1.286 . S
C1169 U1166 2.984 . S
C1169 O1167 1.353 . S
C1169 O1168 1.286 . S
C1169 C1171 1.363 . S
C1170 C1160 1.465 . S
C1170 U1166 2.847 . S
C1170 O1184 1.249 . S
C1170 O1185 1.202 . S
C1171 C1169 1.363 . S
C1171 C1173 1.408 . S
C1171 C1176 1.342 . S
C1172 C1173 1.310 . S
C1172 C1175 1.461 . S
C1172 H1192 0.932 . S
C1173 C1171 1.408 . S
C1173 C1172 1.310 . S
C1173 H1193 0.930 . S
C1174 C1175 1.474 . S
C1174 C1176 1.285 . S
C1174 H1194 0.929 . S
C1175 C1172 1.461 . S
C1175 C1174 1.474 . S
C1176 C1171 1.342 . S
C1176 C1174 1.285 . S
C1176 H1195 0.930 . S
C1177 C1180 1.424 . S
C1177 C1182 1.245 . S
C1177 C1183 1.428 . S
C1178 C1181 1.260 . S
C1178 C1182 1.477 . S
C1178 H1196 0.932 . S
C1179 C1180 1.384 . S
C1179 C1181 1.479 . S
C1179 H1197 0.929 . S
C1180 C1177 1.424 . S
C1180 C1179 1.384 . S
C1180 H1198 0.928 . S
C1181 C1178 1.260 . S
C1181 C1179 1.479 . S
C1182 C1177 1.245 . S
C1182 C1178 1.477 . S
C1182 H1199 0.932 . S
C1183 U1166 2.882 . S
C1183 C1177 1.428 . S
C1183 O1186 1.301 . S
C1183 O1187 1.282 . S
O1184 U1166 2.441 . S
O1184 C1170 1.249 . S
O1185 U1166 2.420 . S
O1185 C1170 1.202 . S
O1186 U1166 2.455 . S
O1186 C1183 1.301 . S
O1187 U1166 2.449 . S
O1187 C1183 1.282 . S
H1188 C1161 0.931 . S
H1189 C1163 0.929 . S
H1190 C1164 0.930 . S
H1191 C1165 0.931 . S
H1192 C1172 0.932 . S
H1193 C1173 0.930 . S
H1194 C1174 0.929 . S
H1195 C1176 0.930 . S
H1196 C1178 0.932 . S
H1197 C1179 0.929 . S
H1198 C1180 0.928 . S
H1199 C1182 0.932 . S
C1200 C1201 1.264 . S
C1200 C1205 1.479 . S
C1200 C1210 1.465 . S
C1201 C1200 1.264 . S
C1201 C1203 1.339 . S
C1201 H1228 0.931 . S
C1202 C1203 1.395 . S
C1202 C1204 1.320 . S
C1203 C1201 1.339 . S
C1203 C1202 1.395 . S
C1203 H1229 0.929 . S
C1204 C1202 1.320 . S
C1204 C1205 1.405 . S
C1204 H1230 0.930 . S
C1205 C1200 1.479 . S
C1205 C1204 1.405 . S
C1205 H1231 0.931 . S
U1206 O1207 2.454 . S
U1206 O1208 2.458 . S
U1206 C1209 2.984 . S
U1206 C1210 2.847 . S
U1206 C1223 2.882 . S
U1206 O1224 2.441 . S
U1206 O1225 2.420 . S
U1206 O1226 2.455 . S
U1206 O1227 2.449 . S
O1207 U1206 2.454 . S
O1207 C1209 1.353 . S
O1208 U1206 2.458 . S
O1208 C1209 1.286 . S
C1209 U1206 2.984 . S
C1209 O1207 1.353 . S
C1209 O1208 1.286 . S
C1209 C1211 1.363 . S
C1210 C1200 1.465 . S
C1210 U1206 2.847 . S
C1210 O1224 1.249 . S
C1210 O1225 1.202 . S
C1211 C1209 1.363 . S
C1211 C1213 1.408 . S
C1211 C1216 1.342 . S
C1212 C1213 1.310 . S
C1212 C1215 1.461 . S
C1212 H1232 0.932 . S
C1213 C1211 1.408 . S
C1213 C1212 1.310 . S
C1213 H1233 0.930 . S
C1214 C1215 1.474 . S
C1214 C1216 1.285 . S
C1214 H1234 0.929 . S
C1215 C1212 1.461 . S
C1215 C1214 1.474 . S
C1216 C1211 1.342 . S
C1216 C1214 1.285 . S
C1216 H1235 0.930 . S
C1217 C1220 1.424 . S
C1217 C1222 1.245 . S
C1217 C1223 1.428 . S
C1218 C1221 1.260 . S
C1218 C1222 1.477 . S
C1218 H1236 0.932 . S
C1219 C1220 1.384 . S
C1219 C1221 1.479 . S
C1219 H1237 0.929 . S
C1220 C1217 1.424 . S
C1220 C1219 1.384 . S
C1220 H1238 0.928 . S
C1221 C1218 1.260 . S
C1221 C1219 1.479 . S
C1222 C1217 1.245 . S
C1222 C1218 1.477 . S
C1222 H1239 0.932 . S
C1223 U1206 2.882 . S
C1223 C1217 1.428 . S
C1223 O1226 1.301 . S
C1223 O1227 1.282 . S
O1224 U1206 2.441 . S
O1224 C1210 1.249 . S
O1225 U1206 2.420 . S
O1225 C1210 1.202 . S
O1226 U1206 2.455 . S
O1226 C1223 1.301 . S
O1227 U1206 2.449 . S
O1227 C1223 1.282 . S
H1228 C1201 0.931 . S
H1229 C1203 0.929 . S
H1230 C1204 0.930 . S
H1231 C1205 0.931 . S
H1232 C1212 0.932 . S
H1233 C1213 0.930 . S
H1234 C1214 0.929 . S
H1235 C1216 0.930 . S
H1236 C1218 0.932 . S
H1237 C1219 0.929 . S
H1238 C1220 0.928 . S
H1239 C1222 0.932 . S
C1240 C1241 1.264 . S
C1240 C1245 1.479 . S
C1240 C1250 1.465 . S
C1241 C1240 1.264 . S
C1241 C1243 1.339 . S
C1241 H1268 0.931 . S
C1242 C1243 1.395 . S
C1242 C1244 1.320 . S
C1243 C1241 1.339 . S
C1243 C1242 1.395 . S
C1243 H1269 0.929 . S
C1244 C1242 1.320 . S
C1244 C1245 1.405 . S
C1244 H1270 0.930 . S
C1245 C1240 1.479 . S
C1245 C1244 1.405 . S
C1245 H1271 0.931 . S
U1246 O1247 2.454 . S
U1246 O1248 2.458 . S
U1246 C1249 2.984 . S
U1246 C1250 2.847 . S
U1246 C1263 2.882 . S
U1246 O1264 2.441 . S
U1246 O1265 2.420 . S
U1246 O1266 2.455 . S
U1246 O1267 2.449 . S
O1247 U1246 2.454 . S
O1247 C1249 1.353 . S
O1248 U1246 2.458 . S
O1248 C1249 1.286 . S
C1249 U1246 2.984 . S
C1249 O1247 1.353 . S
C1249 O1248 1.286 . S
C1249 C1251 1.363 . S
C1250 C1240 1.465 . S
C1250 U1246 2.847 . S
C1250 O1264 1.249 . S
C1250 O1265 1.202 . S
C1251 C1249 1.363 . S
C1251 C1253 1.408 . S
C1251 C1256 1.342 . S
C1252 C1253 1.310 . S
C1252 C1255 1.461 . S
C1252 H1272 0.932 . S
C1253 C1251 1.408 . S
C1253 C1252 1.310 . S
C1253 H1273 0.930 . S
C1254 C1255 1.474 . S
C1254 C1256 1.285 . S
C1254 H1274 0.929 . S
C1255 C1252 1.461 . S
C1255 C1254 1.474 . S
C1256 C1251 1.342 . S
C1256 C1254 1.285 . S
C1256 H1275 0.930 . S
C1257 C1260 1.424 . S
C1257 C1262 1.245 . S
C1257 C1263 1.428 . S
C1258 C1261 1.260 . S
C1258 C1262 1.477 . S
C1258 H1276 0.932 . S
C1259 C1260 1.384 . S
C1259 C1261 1.479 . S
C1259 H1277 0.929 . S
C1260 C1257 1.424 . S
C1260 C1259 1.384 . S
C1260 H1278 0.928 . S
C1261 C1258 1.260 . S
C1261 C1259 1.479 . S
C1262 C1257 1.245 . S
C1262 C1258 1.477 . S
C1262 H1279 0.932 . S
C1263 U1246 2.882 . S
C1263 C1257 1.428 . S
C1263 O1266 1.301 . S
C1263 O1267 1.282 . S
O1264 U1246 2.441 . S
O1264 C1250 1.249 . S
O1265 U1246 2.420 . S
O1265 C1250 1.202 . S
O1266 U1246 2.455 . S
O1266 C1263 1.301 . S
O1267 U1246 2.449 . S
O1267 C1263 1.282 . S
H1268 C1241 0.931 . S
H1269 C1243 0.929 . S
H1270 C1244 0.930 . S
H1271 C1245 0.931 . S
H1272 C1252 0.932 . S
H1273 C1253 0.930 . S
H1274 C1254 0.929 . S
H1275 C1256 0.930 . S
H1276 C1258 0.932 . S
H1277 C1259 0.929 . S
H1278 C1260 0.928 . S
H1279 C1262 0.932 . S
C1280 C1281 1.384 . S
C1280 C1282 1.384 . S
C1280 H1308 0.931 . S
C1281 C1280 1.384 . S
C1281 C1284 1.382 . S
C1282 C1280 1.384 . S
C1282 C1283 1.381 . S
C1282 H1309 0.930 . S
C1283 C1282 1.381 . S
C1283 C1285 1.381 . S
C1283 C1286 1.487 . S
C1284 C1281 1.382 . S
C1284 C1285 1.387 . S
C1284 H1310 0.930 . S
C1285 C1283 1.381 . S
C1285 C1284 1.387 . S
C1285 H1311 0.931 . S
C1286 C1283 1.487 . S
C1286 C1293 1.399 . S
C1286 N1324 1.343 . S
C1287 C1288 1.384 . S
C1287 C1289 1.384 . S
C1287 H1312 0.931 . S
C1288 C1287 1.384 . S
C1288 C1291 1.382 . S
C1289 C1287 1.384 . S
C1289 C1290 1.381 . S
C1289 H1313 0.930 . S
C1290 C1289 1.381 . S
C1290 C1292 1.381 . S
C1290 C1293 1.487 . S
C1291 C1288 1.382 . S
C1291 C1292 1.387 . S
C1291 H1314 0.930 . S
C1292 C1290 1.381 . S
C1292 C1291 1.387 . S
C1292 H1315 0.931 . S
C1293 C1286 1.399 . S
C1293 C1290 1.487 . S
C1293 N1325 1.343 . S
C1294 C1295 1.384 . S
C1294 C1296 1.384 . S
C1294 H1316 0.931 . S
C1295 C1294 1.384 . S
C1295 C1298 1.382 . S
C1296 C1294 1.384 . S
C1296 C1297 1.381 . S
C1296 H1317 0.930 . S
C1297 C1296 1.381 . S
C1297 C1299 1.381 . S
C1297 C1300 1.487 . S
C1298 C1295 1.382 . S
C1298 C1299 1.387 . S
C1298 H1318 0.930 . S
C1299 C1297 1.381 . S
C1299 C1298 1.387 . S
C1299 H1319 0.931 . S
C1300 C1297 1.487 . S
C1300 C1307 1.399 . S
C1300 N1325 1.343 1_556 S
C1301 C1302 1.384 . S
C1301 C1303 1.384 . S
C1301 H1320 0.931 . S
C1302 C1301 1.384 . S
C1302 C1305 1.382 . S
C1303 C1301 1.384 . S
C1303 C1304 1.381 . S
C1303 H1321 0.930 . S
C1304 C1303 1.381 . S
C1304 C1306 1.381 . S
C1304 C1307 1.487 . S
C1305 C1302 1.382 . S
C1305 C1306 1.387 . S
C1305 H1322 0.930 . S
C1306 C1304 1.381 . S
C1306 C1305 1.387 . S
C1306 H1323 0.931 . S
C1307 C1300 1.399 . S
C1307 C1304 1.487 . S
C1307 N1324 1.343 1_556 S
H1308 C1280 0.931 . S
H1309 C1282 0.930 . S
H1310 C1284 0.930 . S
H1311 C1285 0.931 . S
H1312 C1287 0.931 . S
H1313 C1289 0.930 . S
H1314 C1291 0.930 . S
H1315 C1292 0.931 . S
H1316 C1294 0.931 . S
H1317 C1296 0.930 . S
H1318 C1298 0.930 . S
H1319 C1299 0.931 . S
H1320 C1301 0.931 . S
H1321 C1303 0.930 . S
H1322 C1305 0.930 . S
H1323 C1306 0.931 . S
N1324 C1286 1.343 . S
N1324 C1307 1.343 1_554 S
N1325 C1293 1.343 . S
N1325 C1300 1.343 1_554 S
C1326 C1327 1.384 . S
C1326 C1328 1.384 . S
C1326 H1354 0.931 . S
C1327 C1326 1.384 . S
C1327 C1330 1.382 . S
C1328 C1326 1.384 . S
C1328 C1329 1.381 . S
C1328 H1355 0.930 . S
C1329 C1328 1.381 . S
C1329 C1331 1.381 . S
C1329 C1332 1.487 . S
C1330 C1327 1.382 . S
C1330 C1331 1.387 . S
C1330 H1356 0.930 . S
C1331 C1329 1.381 . S
C1331 C1330 1.387 . S
C1331 H1357 0.931 . S
C1332 C1329 1.487 . S
C1332 C1339 1.399 . S
C1332 N1370 1.343 1_556 S
C1333 C1334 1.384 . S
C1333 C1335 1.384 . S
C1333 H1358 0.931 . S
C1334 C1333 1.384 . S
C1334 C1337 1.382 . S
C1335 C1333 1.384 . S
C1335 C1336 1.381 . S
C1335 H1359 0.930 . S
C1336 C1335 1.381 . S
C1336 C1338 1.381 . S
C1336 C1339 1.487 . S
C1337 C1334 1.382 . S
C1337 C1338 1.387 . S
C1337 H1360 0.930 . S
C1338 C1336 1.381 . S
C1338 C1337 1.387 . S
C1338 H1361 0.931 . S
C1339 C1332 1.399 . S
C1339 C1336 1.487 . S
C1339 N1371 1.343 1_556 S
C1340 C1341 1.384 . S
C1340 C1342 1.384 . S
C1340 H1362 0.931 . S
C1341 C1340 1.384 . S
C1341 C1344 1.382 . S
C1342 C1340 1.384 . S
C1342 C1343 1.381 . S
C1342 H1363 0.930 . S
C1343 C1342 1.381 . S
C1343 C1345 1.381 . S
C1343 C1346 1.487 . S
C1344 C1341 1.382 . S
C1344 C1345 1.387 . S
C1344 H1364 0.930 . S
C1345 C1343 1.381 . S
C1345 C1344 1.387 . S
C1345 H1365 0.931 . S
C1346 C1343 1.487 . S
C1346 C1353 1.399 . S
C1346 N1371 1.343 . S
C1347 C1348 1.384 . S
C1347 C1349 1.384 . S
C1347 H1366 0.931 . S
C1348 C1347 1.384 . S
C1348 C1351 1.382 . S
C1349 C1347 1.384 . S
C1349 C1350 1.381 . S
C1349 H1367 0.930 . S
C1350 C1349 1.381 . S
C1350 C1352 1.381 . S
C1350 C1353 1.487 . S
C1351 C1348 1.382 . S
C1351 C1352 1.387 . S
C1351 H1368 0.930 . S
C1352 C1350 1.381 . S
C1352 C1351 1.387 . S
C1352 H1369 0.931 . S
C1353 C1346 1.399 . S
C1353 C1350 1.487 . S
C1353 N1370 1.343 . S
H1354 C1326 0.931 . S
H1355 C1328 0.930 . S
H1356 C1330 0.930 . S
H1357 C1331 0.931 . S
H1358 C1333 0.931 . S
H1359 C1335 0.930 . S
H1360 C1337 0.930 . S
H1361 C1338 0.931 . S
H1362 C1340 0.931 . S
H1363 C1342 0.930 . S
H1364 C1344 0.930 . S
H1365 C1345 0.931 . S
H1366 C1347 0.931 . S
H1367 C1349 0.930 . S
H1368 C1351 0.930 . S
H1369 C1352 0.931 . S
N1370 C1332 1.343 1_554 S
N1370 C1353 1.343 . S
N1371 C1339 1.343 1_554 S
N1371 C1346 1.343 . S
C1372 C1373 1.384 . S
C1372 C1374 1.384 . S
C1372 H1400 0.931 . S
C1373 C1372 1.384 . S
C1373 C1376 1.382 . S
C1374 C1372 1.384 . S
C1374 C1375 1.381 . S
C1374 H1401 0.930 . S
C1375 C1374 1.381 . S
C1375 C1377 1.381 . S
C1375 C1378 1.487 . S
C1376 C1373 1.382 . S
C1376 C1377 1.387 . S
C1376 H1402 0.930 . S
C1377 C1375 1.381 . S
C1377 C1376 1.387 . S
C1377 H1403 0.931 . S
C1378 C1375 1.487 . S
C1378 C1385 1.399 . S
C1378 N1416 1.343 . S
C1379 C1380 1.384 . S
C1379 C1381 1.384 . S
C1379 H1404 0.931 . S
C1380 C1379 1.384 . S
C1380 C1383 1.382 . S
C1381 C1379 1.384 . S
C1381 C1382 1.381 . S
C1381 H1405 0.930 . S
C1382 C1381 1.381 . S
C1382 C1384 1.381 . S
C1382 C1385 1.487 . S
C1383 C1380 1.382 . S
C1383 C1384 1.387 . S
C1383 H1406 0.930 . S
C1384 C1382 1.381 . S
C1384 C1383 1.387 . S
C1384 H1407 0.931 . S
C1385 C1378 1.399 . S
C1385 C1382 1.487 . S
C1385 N1417 1.343 . S
C1386 C1387 1.384 . S
C1386 C1388 1.384 . S
C1386 H1408 0.931 . S
C1387 C1386 1.384 . S
C1387 C1390 1.382 . S
C1388 C1386 1.384 . S
C1388 C1389 1.381 . S
C1388 H1409 0.930 . S
C1389 C1388 1.381 . S
C1389 C1391 1.381 . S
C1389 C1392 1.487 . S
C1390 C1387 1.382 . S
C1390 C1391 1.387 . S
C1390 H1410 0.930 . S
C1391 C1389 1.381 . S
C1391 C1390 1.387 . S
C1391 H1411 0.931 . S
C1392 C1389 1.487 . S
C1392 C1399 1.399 . S
C1392 N1417 1.343 1_556 S
C1393 C1394 1.384 . S
C1393 C1395 1.384 . S
C1393 H1412 0.931 . S
C1394 C1393 1.384 . S
C1394 C1397 1.382 . S
C1395 C1393 1.384 . S
C1395 C1396 1.381 . S
C1395 H1413 0.930 . S
C1396 C1395 1.381 . S
C1396 C1398 1.381 . S
C1396 C1399 1.487 . S
C1397 C1394 1.382 . S
C1397 C1398 1.387 . S
C1397 H1414 0.930 . S
C1398 C1396 1.381 . S
C1398 C1397 1.387 . S
C1398 H1415 0.931 . S
C1399 C1392 1.399 . S
C1399 C1396 1.487 . S
C1399 N1416 1.343 1_556 S
H1400 C1372 0.931 . S
H1401 C1374 0.930 . S
H1402 C1376 0.930 . S
H1403 C1377 0.931 . S
H1404 C1379 0.931 . S
H1405 C1381 0.930 . S
H1406 C1383 0.930 . S
H1407 C1384 0.931 . S
H1408 C1386 0.931 . S
H1409 C1388 0.930 . S
H1410 C1390 0.930 . S
H1411 C1391 0.931 . S
H1412 C1393 0.931 . S
H1413 C1395 0.930 . S
H1414 C1397 0.930 . S
H1415 C1398 0.931 . S
N1416 C1378 1.343 . S
N1416 C1399 1.343 1_554 S
N1417 C1385 1.343 . S
N1417 C1392 1.343 1_554 S
C1418 C1419 1.384 . S
C1418 C1420 1.384 . S
C1418 H1446 0.931 . S
C1419 C1418 1.384 . S
C1419 C1422 1.382 . S
C1420 C1418 1.384 . S
C1420 C1421 1.381 . S
C1420 H1447 0.930 . S
C1421 C1420 1.381 . S
C1421 C1423 1.381 . S
C1421 C1424 1.487 . S
C1422 C1419 1.382 . S
C1422 C1423 1.387 . S
C1422 H1448 0.930 . S
C1423 C1421 1.381 . S
C1423 C1422 1.387 . S
C1423 H1449 0.931 . S
C1424 C1421 1.487 . S
C1424 C1431 1.399 . S
C1424 N1462 1.343 1_556 S
C1425 C1426 1.384 . S
C1425 C1427 1.384 . S
C1425 H1450 0.931 . S
C1426 C1425 1.384 . S
C1426 C1429 1.382 . S
C1427 C1425 1.384 . S
C1427 C1428 1.381 . S
C1427 H1451 0.930 . S
C1428 C1427 1.381 . S
C1428 C1430 1.381 . S
C1428 C1431 1.487 . S
C1429 C1426 1.382 . S
C1429 C1430 1.387 . S
C1429 H1452 0.930 . S
C1430 C1428 1.381 . S
C1430 C1429 1.387 . S
C1430 H1453 0.931 . S
C1431 C1424 1.399 . S
C1431 C1428 1.487 . S
C1431 N1463 1.343 1_556 S
C1432 C1433 1.384 . S
C1432 C1434 1.384 . S
C1432 H1454 0.931 . S
C1433 C1432 1.384 . S
C1433 C1436 1.382 . S
C1434 C1432 1.384 . S
C1434 C1435 1.381 . S
C1434 H1455 0.930 . S
C1435 C1434 1.381 . S
C1435 C1437 1.381 . S
C1435 C1438 1.487 . S
C1436 C1433 1.382 . S
C1436 C1437 1.387 . S
C1436 H1456 0.930 . S
C1437 C1435 1.381 . S
C1437 C1436 1.387 . S
C1437 H1457 0.931 . S
C1438 C1435 1.487 . S
C1438 C1445 1.399 . S
C1438 N1463 1.343 . S
C1439 C1440 1.384 . S
C1439 C1441 1.384 . S
C1439 H1458 0.931 . S
C1440 C1439 1.384 . S
C1440 C1443 1.382 . S
C1441 C1439 1.384 . S
C1441 C1442 1.381 . S
C1441 H1459 0.930 . S
C1442 C1441 1.381 . S
C1442 C1444 1.381 . S
C1442 C1445 1.487 . S
C1443 C1440 1.382 . S
C1443 C1444 1.387 . S
C1443 H1460 0.930 . S
C1444 C1442 1.381 . S
C1444 C1443 1.387 . S
C1444 H1461 0.931 . S
C1445 C1438 1.399 . S
C1445 C1442 1.487 . S
C1445 N1462 1.343 . S
H1446 C1418 0.931 . S
H1447 C1420 0.930 . S
H1448 C1422 0.930 . S
H1449 C1423 0.931 . S
H1450 C1425 0.931 . S
H1451 C1427 0.930 . S
H1452 C1429 0.930 . S
H1453 C1430 0.931 . S
H1454 C1432 0.931 . S
H1455 C1434 0.930 . S
H1456 C1436 0.930 . S
H1457 C1437 0.931 . S
H1458 C1439 0.931 . S
H1459 C1441 0.930 . S
H1460 C1443 0.930 . S
H1461 C1444 0.931 . S
N1462 C1424 1.343 1_554 S
N1462 C1445 1.343 . S
N1463 C1431 1.343 1_554 S
N1463 C1438 1.343 . S
C1464 C1465 1.384 . S
C1464 C1466 1.384 . S
C1464 H1492 0.931 . S
C1465 C1464 1.384 . S
C1465 C1468 1.382 . S
C1466 C1464 1.384 . S
C1466 C1467 1.381 . S
C1466 H1493 0.930 . S
C1467 C1466 1.381 . S
C1467 C1469 1.381 . S
C1467 C1470 1.487 . S
C1468 C1465 1.382 . S
C1468 C1469 1.387 . S
C1468 H1494 0.930 . S
C1469 C1467 1.381 . S
C1469 C1468 1.387 . S
C1469 H1495 0.931 . S
C1470 C1467 1.487 . S
C1470 C1477 1.399 . S
C1470 N1508 1.343 1_655 S
C1471 C1472 1.384 . S
C1471 C1473 1.384 . S
C1471 H1496 0.931 . S
C1472 C1471 1.384 . S
C1472 C1475 1.382 . S
C1473 C1471 1.384 . S
C1473 C1474 1.381 . S
C1473 H1497 0.930 . S
C1474 C1473 1.381 . S
C1474 C1476 1.381 . S
C1474 C1477 1.487 . S
C1475 C1472 1.382 . S
C1475 C1476 1.387 . S
C1475 H1498 0.930 . S
C1476 C1474 1.381 . S
C1476 C1475 1.387 . S
C1476 H1499 0.931 . S
C1477 C1470 1.399 . S
C1477 C1474 1.487 . S
C1477 N1509 1.343 1_655 S
C1478 C1479 1.384 . S
C1478 C1480 1.384 . S
C1478 H1500 0.931 . S
C1479 C1478 1.384 . S
C1479 C1482 1.382 . S
C1480 C1478 1.384 . S
C1480 C1481 1.381 . S
C1480 H1501 0.930 . S
C1481 C1480 1.381 . S
C1481 C1483 1.381 . S
C1481 C1484 1.487 . S
C1482 C1479 1.382 . S
C1482 C1483 1.387 . S
C1482 H1502 0.930 . S
C1483 C1481 1.381 . S
C1483 C1482 1.387 . S
C1483 H1503 0.931 . S
C1484 C1481 1.487 . S
C1484 C1491 1.399 . S
C1484 N1509 1.343 . S
C1485 C1486 1.384 . S
C1485 C1487 1.384 . S
C1485 H1504 0.931 . S
C1486 C1485 1.384 . S
C1486 C1489 1.382 . S
C1487 C1485 1.384 . S
C1487 C1488 1.381 . S
C1487 H1505 0.930 . S
C1488 C1487 1.381 . S
C1488 C1490 1.381 . S
C1488 C1491 1.487 . S
C1489 C1486 1.382 . S
C1489 C1490 1.387 . S
C1489 H1506 0.930 . S
C1490 C1488 1.381 . S
C1490 C1489 1.387 . S
C1490 H1507 0.931 . S
C1491 C1484 1.399 . S
C1491 C1488 1.487 . S
C1491 N1508 1.343 . S
H1492 C1464 0.931 . S
H1493 C1466 0.930 . S
H1494 C1468 0.930 . S
H1495 C1469 0.931 . S
H1496 C1471 0.931 . S
H1497 C1473 0.930 . S
H1498 C1475 0.930 . S
H1499 C1476 0.931 . S
H1500 C1478 0.931 . S
H1501 C1480 0.930 . S
H1502 C1482 0.930 . S
H1503 C1483 0.931 . S
H1504 C1485 0.931 . S
H1505 C1487 0.930 . S
H1506 C1489 0.930 . S
H1507 C1490 0.931 . S
N1508 C1470 1.343 1_455 S
N1508 C1491 1.343 . S
N1509 C1477 1.343 1_455 S
N1509 C1484 1.343 . S
C1510 C1511 1.384 . S
C1510 C1512 1.384 . S
C1510 H1538 0.931 . S
C1511 C1510 1.384 . S
C1511 C1514 1.382 . S
C1512 C1510 1.384 . S
C1512 C1513 1.381 . S
C1512 H1539 0.930 . S
C1513 C1512 1.381 . S
C1513 C1515 1.381 . S
C1513 C1516 1.487 . S
C1514 C1511 1.382 . S
C1514 C1515 1.387 . S
C1514 H1540 0.930 . S
C1515 C1513 1.381 . S
C1515 C1514 1.387 . S
C1515 H1541 0.931 . S
C1516 C1513 1.487 . S
C1516 C1523 1.399 . S
C1516 N1554 1.267 1_565 S
C1517 C1518 1.384 . S
C1517 C1519 1.384 . S
C1517 H1542 0.931 . S
C1518 C1517 1.384 . S
C1518 C1521 1.382 . S
C1519 C1517 1.384 . S
C1519 C1520 1.381 . S
C1519 H1543 0.930 . S
C1520 C1519 1.381 . S
C1520 C1522 1.381 . S
C1520 C1523 1.487 . S
C1521 C1518 1.382 . S
C1521 C1522 1.387 . S
C1521 H1544 0.930 . S
C1522 C1520 1.381 . S
C1522 C1521 1.387 . S
C1522 H1545 0.931 . S
C1523 C1516 1.399 . S
C1523 C1520 1.487 . S
C1523 N1555 1.343 1_565 S
C1524 C1525 1.384 . S
C1524 C1526 1.384 . S
C1524 H1546 0.931 . S
C1525 C1524 1.384 . S
C1525 C1528 1.382 . S
C1526 C1524 1.384 . S
C1526 C1527 1.381 . S
C1526 H1547 0.930 . S
C1527 C1526 1.381 . S
C1527 C1529 1.381 . S
C1527 C1530 1.487 . S
C1528 C1525 1.382 . S
C1528 C1529 1.387 . S
C1528 H1548 0.930 . S
C1529 C1527 1.381 . S
C1529 C1528 1.387 . S
C1529 H1549 0.931 . S
C1530 C1527 1.487 . S
C1530 C1537 1.399 . S
C1530 N1555 1.343 . S
C1531 C1532 1.384 . S
C1531 C1533 1.384 . S
C1531 H1550 0.931 . S
C1532 C1531 1.384 . S
C1532 C1535 1.382 . S
C1533 C1531 1.384 . S
C1533 C1534 1.381 . S
C1533 H1551 0.930 . S
C1534 C1533 1.381 . S
C1534 C1536 1.381 . S
C1534 C1537 1.487 . S
C1535 C1532 1.382 . S
C1535 C1536 1.387 . S
C1535 H1552 0.930 . S
C1536 C1534 1.381 . S
C1536 C1535 1.387 . S
C1536 H1553 0.931 . S
C1537 C1530 1.399 . S
C1537 C1534 1.487 . S
C1537 N1554 1.421 . S
H1538 C1510 0.931 . S
H1539 C1512 0.930 . S
H1540 C1514 0.930 . S
H1541 C1515 0.931 . S
H1542 C1517 0.931 . S
H1543 C1519 0.930 . S
H1544 C1521 0.930 . S
H1545 C1522 0.931 . S
H1546 C1524 0.931 . S
H1547 C1526 0.930 . S
H1548 C1528 0.930 . S
H1549 C1529 0.931 . S
H1550 C1531 0.931 . S
H1551 C1533 0.930 . S
H1552 C1535 0.930 . S
H1553 C1536 0.931 . S
N1554 C1516 1.267 1_545 S
N1554 C1537 1.421 . S
N1555 C1523 1.343 1_545 S
N1555 C1530 1.343 . S
C1556 C1557 1.384 . S
C1556 C1558 1.384 . S
C1556 H1584 0.931 . S
C1557 C1556 1.384 . S
C1557 C1560 1.382 . S
C1558 C1556 1.384 . S
C1558 C1559 1.381 . S
C1558 H1585 0.930 . S
C1559 C1558 1.381 . S
C1559 C1561 1.381 . S
C1559 C1562 1.487 . S
C1560 C1557 1.382 . S
C1560 C1561 1.387 . S
C1560 H1586 0.930 . S
C1561 C1559 1.381 . S
C1561 C1560 1.387 . S
C1561 H1587 0.931 . S
C1562 C1559 1.487 . S
C1562 C1569 1.399 . S
C1562 N1600 1.343 . S
C1563 C1564 1.384 . S
C1563 C1565 1.384 . S
C1563 H1588 0.931 . S
C1564 C1563 1.384 . S
C1564 C1567 1.382 . S
C1565 C1563 1.384 . S
C1565 C1566 1.381 . S
C1565 H1589 0.930 . S
C1566 C1565 1.381 . S
C1566 C1568 1.381 . S
C1566 C1569 1.487 . S
C1567 C1564 1.382 . S
C1567 C1568 1.387 . S
C1567 H1590 0.930 . S
C1568 C1566 1.381 . S
C1568 C1567 1.387 . S
C1568 H1591 0.931 . S
C1569 C1562 1.399 . S
C1569 C1566 1.487 . S
C1569 N1601 1.443 . S
C1570 C1571 1.384 . S
C1570 C1572 1.384 . S
C1570 H1592 0.931 . S
C1571 C1570 1.384 . S
C1571 C1574 1.382 . S
C1572 C1570 1.384 . S
C1572 C1573 1.381 . S
C1572 H1593 0.930 . S
C1573 C1572 1.381 . S
C1573 C1575 1.381 . S
C1573 C1576 1.487 . S
C1574 C1571 1.382 . S
C1574 C1575 1.387 . S
C1574 H1594 0.930 . S
C1575 C1573 1.381 . S
C1575 C1574 1.387 . S
C1575 H1595 0.931 . S
C1576 C1573 1.487 . S
C1576 C1583 1.399 . S
C1576 N1601 1.246 1_655 S
C1577 C1578 1.384 . S
C1577 C1579 1.384 . S
C1577 H1596 0.931 . S
C1578 C1577 1.384 . S
C1578 C1581 1.382 . S
C1579 C1577 1.384 . S
C1579 C1580 1.381 . S
C1579 H1597 0.930 . S
C1580 C1579 1.381 . S
C1580 C1582 1.381 . S
C1580 C1583 1.487 . S
C1581 C1578 1.382 . S
C1581 C1582 1.387 . S
C1581 H1598 0.930 . S
C1582 C1580 1.381 . S
C1582 C1581 1.387 . S
C1582 H1599 0.931 . S
C1583 C1576 1.399 . S
C1583 C1580 1.487 . S
C1583 N1600 1.343 1_655 S
H1584 C1556 0.931 . S
H1585 C1558 0.930 . S
H1586 C1560 0.930 . S
H1587 C1561 0.931 . S
H1588 C1563 0.931 . S
H1589 C1565 0.930 . S
H1590 C1567 0.930 . S
H1591 C1568 0.931 . S
H1592 C1570 0.931 . S
H1593 C1572 0.930 . S
H1594 C1574 0.930 . S
H1595 C1575 0.931 . S
H1596 C1577 0.931 . S
H1597 C1579 0.930 . S
H1598 C1581 0.930 . S
H1599 C1582 0.931 . S
N1600 C1562 1.343 . S
N1600 C1583 1.343 1_455 S
N1601 C1569 1.443 . S
N1601 C1576 1.246 1_455 S
C1602 C1603 1.384 . S
C1602 C1604 1.384 . S
C1602 H1630 0.931 . S
C1603 C1602 1.384 . S
C1603 C1606 1.382 . S
C1604 C1602 1.384 . S
C1604 C1605 1.381 . S
C1604 H1631 0.930 . S
C1605 C1604 1.381 . S
C1605 C1607 1.381 . S
C1605 C1608 1.487 . S
C1606 C1603 1.382 . S
C1606 C1607 1.387 . S
C1606 H1632 0.930 . S
C1607 C1605 1.381 . S
C1607 C1606 1.387 . S
C1607 H1633 0.931 . S
C1608 C1605 1.487 . S
C1608 C1615 1.399 . S
C1608 N1646 1.343 1_565 S
C1609 C1610 1.384 . S
C1609 C1611 1.384 . S
C1609 H1634 0.931 . S
C1610 C1609 1.384 . S
C1610 C1613 1.382 . S
C1611 C1609 1.384 . S
C1611 C1612 1.381 . S
C1611 H1635 0.930 . S
C1612 C1611 1.381 . S
C1612 C1614 1.381 . S
C1612 C1615 1.487 . S
C1613 C1610 1.382 . S
C1613 C1614 1.387 . S
C1613 H1636 0.930 . S
C1614 C1612 1.381 . S
C1614 C1613 1.387 . S
C1614 H1637 0.931 . S
C1615 C1608 1.399 . S
C1615 C1612 1.487 . S
C1615 N1647 1.343 1_565 S
C1616 C1617 1.384 . S
C1616 C1618 1.384 . S
C1616 H1638 0.931 . S
C1617 C1616 1.384 . S
C1617 C1620 1.382 . S
C1618 C1616 1.384 . S
C1618 C1619 1.381 . S
C1618 H1639 0.930 . S
C1619 C1618 1.381 . S
C1619 C1621 1.381 . S
C1619 C1622 1.487 . S
C1620 C1617 1.382 . S
C1620 C1621 1.387 . S
C1620 H1640 0.930 . S
C1621 C1619 1.381 . S
C1621 C1620 1.387 . S
C1621 H1641 0.931 . S
C1622 C1619 1.487 . S
C1622 C1629 1.399 . S
C1622 N1647 1.343 . S
C1623 C1624 1.384 . S
C1623 C1625 1.384 . S
C1623 H1642 0.931 . S
C1624 C1623 1.384 . S
C1624 C1627 1.382 . S
C1625 C1623 1.384 . S
C1625 C1626 1.381 . S
C1625 H1643 0.930 . S
C1626 C1625 1.381 . S
C1626 C1628 1.381 . S
C1626 C1629 1.487 . S
C1627 C1624 1.382 . S
C1627 C1628 1.387 . S
C1627 H1644 0.930 . S
C1628 C1626 1.381 . S
C1628 C1627 1.387 . S
C1628 H1645 0.931 . S
C1629 C1622 1.399 . S
C1629 C1626 1.487 . S
C1629 N1646 1.343 . S
H1630 C1602 0.931 . S
H1631 C1604 0.930 . S
H1632 C1606 0.930 . S
H1633 C1607 0.931 . S
H1634 C1609 0.931 . S
H1635 C1611 0.930 . S
H1636 C1613 0.930 . S
H1637 C1614 0.931 . S
H1638 C1616 0.931 . S
H1639 C1618 0.930 . S
H1640 C1620 0.930 . S
H1641 C1621 0.931 . S
H1642 C1623 0.931 . S
H1643 C1625 0.930 . S
H1644 C1627 0.930 . S
H1645 C1628 0.931 . S
N1646 C1608 1.343 1_545 S
N1646 C1629 1.343 . S
N1647 C1615 1.343 1_545 S
N1647 C1622 1.343 . S
C1648 C1649 1.384 . S
C1648 C1650 1.384 . S
C1648 H1676 0.931 . S
C1649 C1648 1.384 . S
C1649 C1652 1.382 . S
C1650 C1648 1.384 . S
C1650 C1651 1.381 . S
C1650 H1677 0.930 . S
C1651 C1650 1.381 . S
C1651 C1653 1.381 . S
C1651 C1654 1.487 . S
C1652 C1649 1.382 . S
C1652 C1653 1.387 . S
C1652 H1678 0.930 . S
C1653 C1651 1.381 . S
C1653 C1652 1.387 . S
C1653 H1679 0.931 . S
C1654 C1651 1.487 . S
C1654 C1661 1.399 . S
C1654 N1692 1.343 1_655 S
C1655 C1656 1.384 . S
C1655 C1657 1.384 . S
C1655 H1680 0.931 . S
C1656 C1655 1.384 . S
C1656 C1659 1.382 . S
C1657 C1655 1.384 . S
C1657 C1658 1.381 . S
C1657 H1681 0.930 . S
C1658 C1657 1.381 . S
C1658 C1660 1.381 . S
C1658 C1661 1.487 . S
C1659 C1656 1.382 . S
C1659 C1660 1.387 . S
C1659 H1682 0.930 . S
C1660 C1658 1.381 . S
C1660 C1659 1.387 . S
C1660 H1683 0.931 . S
C1661 C1654 1.399 . S
C1661 C1658 1.487 . S
C1661 N1693 1.343 1_655 S
C1662 C1663 1.384 . S
C1662 C1664 1.384 . S
C1662 H1684 0.931 . S
C1663 C1662 1.384 . S
C1663 C1666 1.382 . S
C1664 C1662 1.384 . S
C1664 C1665 1.381 . S
C1664 H1685 0.930 . S
C1665 C1664 1.381 . S
C1665 C1667 1.381 . S
C1665 C1668 1.487 . S
C1666 C1663 1.382 . S
C1666 C1667 1.387 . S
C1666 H1686 0.930 . S
C1667 C1665 1.381 . S
C1667 C1666 1.387 . S
C1667 H1687 0.931 . S
C1668 C1665 1.487 . S
C1668 C1675 1.399 . S
C1668 N1693 1.343 . S
C1669 C1670 1.384 . S
C1669 C1671 1.384 . S
C1669 H1688 0.931 . S
C1670 C1669 1.384 . S
C1670 C1673 1.382 . S
C1671 C1669 1.384 . S
C1671 C1672 1.381 . S
C1671 H1689 0.930 . S
C1672 C1671 1.381 . S
C1672 C1674 1.381 . S
C1672 C1675 1.487 . S
C1673 C1670 1.382 . S
C1673 C1674 1.387 . S
C1673 H1690 0.930 . S
C1674 C1672 1.381 . S
C1674 C1673 1.387 . S
C1674 H1691 0.931 . S
C1675 C1668 1.399 . S
C1675 C1672 1.487 . S
C1675 N1692 1.343 . S
H1676 C1648 0.931 . S
H1677 C1650 0.930 . S
H1678 C1652 0.930 . S
H1679 C1653 0.931 . S
H1680 C1655 0.931 . S
H1681 C1657 0.930 . S
H1682 C1659 0.930 . S
H1683 C1660 0.931 . S
H1684 C1662 0.931 . S
H1685 C1664 0.930 . S
H1686 C1666 0.930 . S
H1687 C1667 0.931 . S
H1688 C1669 0.931 . S
H1689 C1671 0.930 . S
H1690 C1673 0.930 . S
H1691 C1674 0.931 . S
N1692 C1654 1.343 1_455 S
N1692 C1675 1.343 . S
N1693 C1661 1.343 1_455 S
N1693 C1668 1.343 . S
C1694 C1695 1.384 . S
C1694 C1696 1.384 . S
C1694 H1722 0.931 . S
C1695 C1694 1.384 . S
C1695 C1698 1.382 . S
C1696 C1694 1.384 . S
C1696 C1697 1.381 . S
C1696 H1723 0.930 . S
C1697 C1696 1.381 . S
C1697 C1699 1.381 . S
C1697 C1700 1.487 . S
C1698 C1695 1.382 . S
C1698 C1699 1.387 . S
C1698 H1724 0.930 . S
C1699 C1697 1.381 . S
C1699 C1698 1.387 . S
C1699 H1725 0.931 . S
C1700 C1697 1.487 . S
C1700 C1707 1.399 . S
C1700 N1738 1.266 1_565 S
C1701 C1702 1.384 . S
C1701 C1703 1.384 . S
C1701 H1726 0.931 . S
C1702 C1701 1.384 . S
C1702 C1705 1.382 . S
C1703 C1701 1.384 . S
C1703 C1704 1.381 . S
C1703 H1727 0.930 . S
C1704 C1703 1.381 . S
C1704 C1706 1.381 . S
C1704 C1707 1.487 . S
C1705 C1702 1.382 . S
C1705 C1706 1.387 . S
C1705 H1728 0.930 . S
C1706 C1704 1.381 . S
C1706 C1705 1.387 . S
C1706 H1729 0.931 . S
C1707 C1700 1.399 . S
C1707 C1704 1.487 . S
C1707 N1739 1.343 1_565 S
C1708 C1709 1.384 . S
C1708 C1710 1.384 . S
C1708 H1730 0.931 . S
C1709 C1708 1.384 . S
C1709 C1712 1.382 . S
C1710 C1708 1.384 . S
C1710 C1711 1.381 . S
C1710 H1731 0.930 . S
C1711 C1710 1.381 . S
C1711 C1713 1.381 . S
C1711 C1714 1.487 . S
C1712 C1709 1.382 . S
C1712 C1713 1.387 . S
C1712 H1732 0.930 . S
C1713 C1711 1.381 . S
C1713 C1712 1.387 . S
C1713 H1733 0.931 . S
C1714 C1711 1.487 . S
C1714 C1721 1.399 . S
C1714 N1739 1.343 . S
C1715 C1716 1.384 . S
C1715 C1717 1.384 . S
C1715 H1734 0.931 . S
C1716 C1715 1.384 . S
C1716 C1719 1.382 . S
C1717 C1715 1.384 . S
C1717 C1718 1.381 . S
C1717 H1735 0.930 . S
C1718 C1717 1.381 . S
C1718 C1720 1.381 . S
C1718 C1721 1.487 . S
C1719 C1716 1.382 . S
C1719 C1720 1.387 . S
C1719 H1736 0.930 . S
C1720 C1718 1.381 . S
C1720 C1719 1.387 . S
C1720 H1737 0.931 . S
C1721 C1714 1.399 . S
C1721 C1718 1.487 . S
C1721 N1738 1.422 . S
H1722 C1694 0.931 . S
H1723 C1696 0.930 . S
H1724 C1698 0.930 . S
H1725 C1699 0.931 . S
H1726 C1701 0.931 . S
H1727 C1703 0.930 . S
H1728 C1705 0.930 . S
H1729 C1706 0.931 . S
H1730 C1708 0.931 . S
H1731 C1710 0.930 . S
H1732 C1712 0.930 . S
H1733 C1713 0.931 . S
H1734 C1715 0.931 . S
H1735 C1717 0.930 . S
H1736 C1719 0.930 . S
H1737 C1720 0.931 . S
N1738 C1700 1.266 1_545 S
N1738 C1721 1.422 . S
N1739 C1707 1.343 1_545 S
N1739 C1714 1.343 . S
C1740 C1741 1.384 . S
C1740 C1742 1.384 . S
C1740 H1768 0.931 . S
C1741 C1740 1.384 . S
C1741 C1744 1.382 . S
C1742 C1740 1.384 . S
C1742 C1743 1.381 . S
C1742 H1769 0.930 . S
C1743 C1742 1.381 . S
C1743 C1745 1.381 . S
C1743 C1746 1.487 . S
C1744 C1741 1.382 . S
C1744 C1745 1.387 . S
C1744 H1770 0.930 . S
C1745 C1743 1.381 . S
C1745 C1744 1.387 . S
C1745 H1771 0.931 . S
C1746 C1743 1.487 . S
C1746 C1753 1.399 . S
C1746 N1784 1.343 . S
C1747 C1748 1.384 . S
C1747 C1749 1.384 . S
C1747 H1772 0.931 . S
C1748 C1747 1.384 . S
C1748 C1751 1.382 . S
C1749 C1747 1.384 . S
C1749 C1750 1.381 . S
C1749 H1773 0.930 . S
C1750 C1749 1.381 . S
C1750 C1752 1.381 . S
C1750 C1753 1.487 . S
C1751 C1748 1.382 . S
C1751 C1752 1.387 . S
C1751 H1774 0.930 . S
C1752 C1750 1.381 . S
C1752 C1751 1.387 . S
C1752 H1775 0.931 . S
C1753 C1746 1.399 . S
C1753 C1750 1.487 . S
C1753 N1785 1.444 . S
C1754 C1755 1.384 . S
C1754 C1756 1.384 . S
C1754 H1776 0.931 . S
C1755 C1754 1.384 . S
C1755 C1758 1.382 . S
C1756 C1754 1.384 . S
C1756 C1757 1.381 . S
C1756 H1777 0.930 . S
C1757 C1756 1.381 . S
C1757 C1759 1.381 . S
C1757 C1760 1.487 . S
C1758 C1755 1.382 . S
C1758 C1759 1.387 . S
C1758 H1778 0.930 . S
C1759 C1757 1.381 . S
C1759 C1758 1.387 . S
C1759 H1779 0.931 . S
C1760 C1757 1.487 . S
C1760 C1767 1.399 . S
C1760 N1785 1.245 1_655 S
C1761 C1762 1.384 . S
C1761 C1763 1.384 . S
C1761 H1780 0.931 . S
C1762 C1761 1.384 . S
C1762 C1765 1.382 . S
C1763 C1761 1.384 . S
C1763 C1764 1.381 . S
C1763 H1781 0.930 . S
C1764 C1763 1.381 . S
C1764 C1766 1.381 . S
C1764 C1767 1.487 . S
C1765 C1762 1.382 . S
C1765 C1766 1.387 . S
C1765 H1782 0.930 . S
C1766 C1764 1.381 . S
C1766 C1765 1.387 . S
C1766 H1783 0.931 . S
C1767 C1760 1.399 . S
C1767 C1764 1.487 . S
C1767 N1784 1.343 1_655 S
H1768 C1740 0.931 . S
H1769 C1742 0.930 . S
H1770 C1744 0.930 . S
H1771 C1745 0.931 . S
H1772 C1747 0.931 . S
H1773 C1749 0.930 . S
H1774 C1751 0.930 . S
H1775 C1752 0.931 . S
H1776 C1754 0.931 . S
H1777 C1756 0.930 . S
H1778 C1758 0.930 . S
H1779 C1759 0.931 . S
H1780 C1761 0.931 . S
H1781 C1763 0.930 . S
H1782 C1765 0.930 . S
H1783 C1766 0.931 . S
N1784 C1746 1.343 . S
N1784 C1767 1.343 1_455 S
N1785 C1753 1.444 . S
N1785 C1760 1.245 1_455 S
C1786 C1787 1.384 . S
C1786 C1788 1.384 . S
C1786 H1814 0.931 . S
C1787 C1786 1.384 . S
C1787 C1790 1.382 . S
C1788 C1786 1.384 . S
C1788 C1789 1.381 . S
C1788 H1815 0.930 . S
C1789 C1788 1.381 . S
C1789 C1791 1.381 . S
C1789 C1792 1.487 . S
C1790 C1787 1.382 . S
C1790 C1791 1.387 . S
C1790 H1816 0.930 . S
C1791 C1789 1.381 . S
C1791 C1790 1.387 . S
C1791 H1817 0.931 . S
C1792 C1789 1.487 . S
C1792 C1799 1.399 . S
C1792 N1830 1.343 1_565 S
C1793 C1794 1.384 . S
C1793 C1795 1.384 . S
C1793 H1818 0.931 . S
C1794 C1793 1.384 . S
C1794 C1797 1.382 . S
C1795 C1793 1.384 . S
C1795 C1796 1.381 . S
C1795 H1819 0.930 . S
C1796 C1795 1.381 . S
C1796 C1798 1.381 . S
C1796 C1799 1.487 . S
C1797 C1794 1.382 . S
C1797 C1798 1.387 . S
C1797 H1820 0.930 . S
C1798 C1796 1.381 . S
C1798 C1797 1.387 . S
C1798 H1821 0.931 . S
C1799 C1792 1.399 . S
C1799 C1796 1.487 . S
C1799 N1831 1.343 1_565 S
C1800 C1801 1.384 . S
C1800 C1802 1.384 . S
C1800 H1822 0.931 . S
C1801 C1800 1.384 . S
C1801 C1804 1.382 . S
C1802 C1800 1.384 . S
C1802 C1803 1.381 . S
C1802 H1823 0.930 . S
C1803 C1802 1.381 . S
C1803 C1805 1.381 . S
C1803 C1806 1.487 . S
C1804 C1801 1.382 . S
C1804 C1805 1.387 . S
C1804 H1824 0.930 . S
C1805 C1803 1.381 . S
C1805 C1804 1.387 . S
C1805 H1825 0.931 . S
C1806 C1803 1.487 . S
C1806 C1813 1.399 . S
C1806 N1831 1.343 . S
C1807 C1808 1.384 . S
C1807 C1809 1.384 . S
C1807 H1826 0.931 . S
C1808 C1807 1.384 . S
C1808 C1811 1.382 . S
C1809 C1807 1.384 . S
C1809 C1810 1.381 . S
C1809 H1827 0.930 . S
C1810 C1809 1.381 . S
C1810 C1812 1.381 . S
C1810 C1813 1.487 . S
C1811 C1808 1.382 . S
C1811 C1812 1.387 . S
C1811 H1828 0.930 . S
C1812 C1810 1.381 . S
C1812 C1811 1.387 . S
C1812 H1829 0.931 . S
C1813 C1806 1.399 . S
C1813 C1810 1.487 . S
C1813 N1830 1.343 . S
H1814 C1786 0.931 . S
H1815 C1788 0.930 . S
H1816 C1790 0.930 . S
H1817 C1791 0.931 . S
H1818 C1793 0.931 . S
H1819 C1795 0.930 . S
H1820 C1797 0.930 . S
H1821 C1798 0.931 . S
H1822 C1800 0.931 . S
H1823 C1802 0.930 . S
H1824 C1804 0.930 . S
H1825 C1805 0.931 . S
H1826 C1807 0.931 . S
H1827 C1809 0.930 . S
H1828 C1811 0.930 . S
H1829 C1812 0.931 . S
N1830 C1792 1.343 1_545 S
N1830 C1813 1.343 . S
N1831 C1799 1.343 1_545 S
N1831 C1806 1.343 . S
C1832 C1833 1.384 . S
C1832 C1834 1.384 . S
C1832 H1860 0.931 . S
C1833 C1832 1.384 . S
C1833 C1836 1.382 . S
C1834 C1832 1.384 . S
C1834 C1835 1.381 . S
C1834 H1861 0.930 . S
C1835 C1834 1.381 . S
C1835 C1837 1.381 . S
C1835 C1838 1.487 . S
C1836 C1833 1.382 . S
C1836 C1837 1.387 . S
C1836 H1862 0.930 . S
C1837 C1835 1.381 . S
C1837 C1836 1.387 . S
C1837 H1863 0.931 . S
C1838 C1835 1.487 . S
C1838 C1845 1.399 . S
C1838 N1876 1.343 . S
C1839 C1840 1.384 . S
C1839 C1841 1.384 . S
C1839 H1864 0.931 . S
C1840 C1839 1.384 . S
C1840 C1843 1.382 . S
C1841 C1839 1.384 . S
C1841 C1842 1.381 . S
C1841 H1865 0.930 . S
C1842 C1841 1.381 . S
C1842 C1844 1.381 . S
C1842 C1845 1.487 . S
C1843 C1840 1.382 . S
C1843 C1844 1.387 . S
C1843 H1866 0.930 . S
C1844 C1842 1.381 . S
C1844 C1843 1.387 . S
C1844 H1867 0.931 . S
C1845 C1838 1.399 . S
C1845 C1842 1.487 . S
C1845 N1877 1.343 . S
C1846 C1847 1.384 . S
C1846 C1848 1.384 . S
C1846 H1868 0.931 . S
C1847 C1846 1.384 . S
C1847 C1850 1.382 . S
C1848 C1846 1.384 . S
C1848 C1849 1.381 . S
C1848 H1869 0.930 . S
C1849 C1848 1.381 . S
C1849 C1851 1.381 . S
C1849 C1852 1.487 . S
C1850 C1847 1.382 . S
C1850 C1851 1.387 . S
C1850 H1870 0.930 . S
C1851 C1849 1.381 . S
C1851 C1850 1.387 . S
C1851 H1871 0.931 . S
C1852 C1849 1.487 . S
C1852 C1859 1.399 . S
C1852 N1877 1.343 . S
C1853 C1854 1.384 . S
C1853 C1855 1.384 . S
C1853 H1872 0.931 . S
C1854 C1853 1.384 . S
C1854 C1857 1.382 . S
C1855 C1853 1.384 . S
C1855 C1856 1.381 . S
C1855 H1873 0.930 . S
C1856 C1855 1.381 . S
C1856 C1858 1.381 . S
C1856 C1859 1.487 . S
C1857 C1854 1.382 . S
C1857 C1858 1.387 . S
C1857 H1874 0.930 . S
C1858 C1856 1.381 . S
C1858 C1857 1.387 . S
C1858 H1875 0.931 . S
C1859 C1852 1.399 . S
C1859 C1856 1.487 . S
C1859 N1876 1.343 . S
H1860 C1832 0.931 . S
H1861 C1834 0.930 . S
H1862 C1836 0.930 . S
H1863 C1837 0.931 . S
H1864 C1839 0.931 . S
H1865 C1841 0.930 . S
H1866 C1843 0.930 . S
H1867 C1844 0.931 . S
H1868 C1846 0.931 . S
H1869 C1848 0.930 . S
H1870 C1850 0.930 . S
H1871 C1851 0.931 . S
H1872 C1853 0.931 . S
H1873 C1855 0.930 . S
H1874 C1857 0.930 . S
H1875 C1858 0.931 . S
N1876 C1838 1.343 . S
N1876 C1859 1.343 . S
N1877 C1845 1.343 . S
N1877 C1852 1.343 . S
C1878 C1879 1.384 . S
C1878 C1880 1.384 . S
C1878 H1906 0.931 . S
C1879 C1878 1.384 . S
C1879 C1882 1.382 . S
C1880 C1878 1.384 . S
C1880 C1881 1.381 . S
C1880 H1907 0.930 . S
C1881 C1880 1.381 . S
C1881 C1883 1.381 . S
C1881 C1884 1.487 . S
C1882 C1879 1.382 . S
C1882 C1883 1.387 . S
C1882 H1908 0.930 . S
C1883 C1881 1.381 . S
C1883 C1882 1.387 . S
C1883 H1909 0.931 . S
C1884 C1881 1.487 . S
C1884 C1891 1.399 . S
C1884 N1922 1.343 . S
C1885 C1886 1.384 . S
C1885 C1887 1.384 . S
C1885 H1910 0.931 . S
C1886 C1885 1.384 . S
C1886 C1889 1.382 . S
C1887 C1885 1.384 . S
C1887 C1888 1.381 . S
C1887 H1911 0.930 . S
C1888 C1887 1.381 . S
C1888 C1890 1.381 . S
C1888 C1891 1.487 . S
C1889 C1886 1.382 . S
C1889 C1890 1.387 . S
C1889 H1912 0.930 . S
C1890 C1888 1.381 . S
C1890 C1889 1.387 . S
C1890 H1913 0.931 . S
C1891 C1884 1.399 . S
C1891 C1888 1.487 . S
C1891 N1923 1.343 . S
C1892 C1893 1.384 . S
C1892 C1894 1.384 . S
C1892 H1914 0.931 . S
C1893 C1892 1.384 . S
C1893 C1896 1.382 . S
C1894 C1892 1.384 . S
C1894 C1895 1.381 . S
C1894 H1915 0.930 . S
C1895 C1894 1.381 . S
C1895 C1897 1.381 . S
C1895 C1898 1.487 . S
C1896 C1893 1.382 . S
C1896 C1897 1.387 . S
C1896 H1916 0.930 . S
C1897 C1895 1.381 . S
C1897 C1896 1.387 . S
C1897 H1917 0.931 . S
C1898 C1895 1.487 . S
C1898 C1905 1.399 . S
C1898 N1923 1.343 . S
C1899 C1900 1.384 . S
C1899 C1901 1.384 . S
C1899 H1918 0.931 . S
C1900 C1899 1.384 . S
C1900 C1903 1.382 . S
C1901 C1899 1.384 . S
C1901 C1902 1.381 . S
C1901 H1919 0.930 . S
C1902 C1901 1.381 . S
C1902 C1904 1.381 . S
C1902 C1905 1.487 . S
C1903 C1900 1.382 . S
C1903 C1904 1.387 . S
C1903 H1920 0.930 . S
C1904 C1902 1.381 . S
C1904 C1903 1.387 . S
C1904 H1921 0.931 . S
C1905 C1898 1.399 . S
C1905 C1902 1.487 . S
C1905 N1922 1.343 . S
H1906 C1878 0.931 . S
H1907 C1880 0.930 . S
H1908 C1882 0.930 . S
H1909 C1883 0.931 . S
H1910 C1885 0.931 . S
H1911 C1887 0.930 . S
H1912 C1889 0.930 . S
H1913 C1890 0.931 . S
H1914 C1892 0.931 . S
H1915 C1894 0.930 . S
H1916 C1896 0.930 . S
H1917 C1897 0.931 . S
H1918 C1899 0.931 . S
H1919 C1901 0.930 . S
H1920 C1903 0.930 . S
H1921 C1904 0.931 . S
N1922 C1884 1.343 . S
N1922 C1905 1.343 . S
N1923 C1891 1.343 . S
N1923 C1898 1.343 . S
C1924 C1925 1.384 . S
C1924 C1926 1.384 . S
C1924 H1952 0.931 . S
C1925 C1924 1.384 . S
C1925 C1928 1.382 . S
C1926 C1924 1.384 . S
C1926 C1927 1.381 . S
C1926 H1953 0.930 . S
C1927 C1926 1.381 . S
C1927 C1929 1.381 . S
C1927 C1930 1.487 . S
C1928 C1925 1.382 . S
C1928 C1929 1.387 . S
C1928 H1954 0.930 . S
C1929 C1927 1.381 . S
C1929 C1928 1.387 . S
C1929 H1955 0.931 . S
C1930 C1927 1.487 . S
C1930 C1937 1.399 . S
C1930 N1968 1.343 . S
C1931 C1932 1.384 . S
C1931 C1933 1.384 . S
C1931 H1956 0.931 . S
C1932 C1931 1.384 . S
C1932 C1935 1.382 . S
C1933 C1931 1.384 . S
C1933 C1934 1.381 . S
C1933 H1957 0.930 . S
C1934 C1933 1.381 . S
C1934 C1936 1.381 . S
C1934 C1937 1.487 . S
C1935 C1932 1.382 . S
C1935 C1936 1.387 . S
C1935 H1958 0.930 . S
C1936 C1934 1.381 . S
C1936 C1935 1.387 . S
C1936 H1959 0.931 . S
C1937 C1930 1.399 . S
C1937 C1934 1.487 . S
C1937 N1969 1.343 . S
C1938 C1939 1.384 . S
C1938 C1940 1.384 . S
C1938 H1960 0.931 . S
C1939 C1938 1.384 . S
C1939 C1942 1.382 . S
C1940 C1938 1.384 . S
C1940 C1941 1.381 . S
C1940 H1961 0.930 . S
C1941 C1940 1.381 . S
C1941 C1943 1.381 . S
C1941 C1944 1.487 . S
C1942 C1939 1.382 . S
C1942 C1943 1.387 . S
C1942 H1962 0.930 . S
C1943 C1941 1.381 . S
C1943 C1942 1.387 . S
C1943 H1963 0.931 . S
C1944 C1941 1.487 . S
C1944 C1951 1.399 . S
C1944 N1969 1.343 . S
C1945 C1946 1.384 . S
C1945 C1947 1.384 . S
C1945 H1964 0.931 . S
C1946 C1945 1.384 . S
C1946 C1949 1.382 . S
C1947 C1945 1.384 . S
C1947 C1948 1.381 . S
C1947 H1965 0.930 . S
C1948 C1947 1.381 . S
C1948 C1950 1.381 . S
C1948 C1951 1.487 . S
C1949 C1946 1.382 . S
C1949 C1950 1.387 . S
C1949 H1966 0.930 . S
C1950 C1948 1.381 . S
C1950 C1949 1.387 . S
C1950 H1967 0.931 . S
C1951 C1944 1.399 . S
C1951 C1948 1.487 . S
C1951 N1968 1.343 . S
H1952 C1924 0.931 . S
H1953 C1926 0.930 . S
H1954 C1928 0.930 . S
H1955 C1929 0.931 . S
H1956 C1931 0.931 . S
H1957 C1933 0.930 . S
H1958 C1935 0.930 . S
H1959 C1936 0.931 . S
H1960 C1938 0.931 . S
H1961 C1940 0.930 . S
H1962 C1942 0.930 . S
H1963 C1943 0.931 . S
H1964 C1945 0.931 . S
H1965 C1947 0.930 . S
H1966 C1949 0.930 . S
H1967 C1950 0.931 . S
N1968 C1930 1.343 . S
N1968 C1951 1.343 . S
N1969 C1937 1.343 . S
N1969 C1944 1.343 . S
C1970 C1971 1.384 . S
C1970 C1972 1.384 . S
C1970 H1998 0.931 . S
C1971 C1970 1.384 . S
C1971 C1974 1.382 . S
C1972 C1970 1.384 . S
C1972 C1973 1.381 . S
C1972 H1999 0.930 . S
C1973 C1972 1.381 . S
C1973 C1975 1.381 . S
C1973 C1976 1.487 . S
C1974 C1971 1.382 . S
C1974 C1975 1.387 . S
C1974 H2000 0.930 . S
C1975 C1973 1.381 . S
C1975 C1974 1.387 . S
C1975 H2001 0.931 . S
C1976 C1973 1.487 . S
C1976 C1983 1.399 . S
C1976 N2014 1.343 . S
C1977 C1978 1.384 . S
C1977 C1979 1.384 . S
C1977 H2002 0.931 . S
C1978 C1977 1.384 . S
C1978 C1981 1.382 . S
C1979 C1977 1.384 . S
C1979 C1980 1.381 . S
C1979 H2003 0.930 . S
C1980 C1979 1.381 . S
C1980 C1982 1.381 . S
C1980 C1983 1.487 . S
C1981 C1978 1.382 . S
C1981 C1982 1.387 . S
C1981 H2004 0.930 . S
C1982 C1980 1.381 . S
C1982 C1981 1.387 . S
C1982 H2005 0.931 . S
C1983 C1976 1.399 . S
C1983 C1980 1.487 . S
C1983 N2015 1.343 . S
C1984 C1985 1.384 . S
C1984 C1986 1.384 . S
C1984 H2006 0.931 . S
C1985 C1984 1.384 . S
C1985 C1988 1.382 . S
C1986 C1984 1.384 . S
C1986 C1987 1.381 . S
C1986 H2007 0.930 . S
C1987 C1986 1.381 . S
C1987 C1989 1.381 . S
C1987 C1990 1.487 . S
C1988 C1985 1.382 . S
C1988 C1989 1.387 . S
C1988 H2008 0.930 . S
C1989 C1987 1.381 . S
C1989 C1988 1.387 . S
C1989 H2009 0.931 . S
C1990 C1987 1.487 . S
C1990 C1997 1.399 . S
C1990 N2015 1.343 . S
C1991 C1992 1.384 . S
C1991 C1993 1.384 . S
C1991 H2010 0.931 . S
C1992 C1991 1.384 . S
C1992 C1995 1.382 . S
C1993 C1991 1.384 . S
C1993 C1994 1.381 . S
C1993 H2011 0.930 . S
C1994 C1993 1.381 . S
C1994 C1996 1.381 . S
C1994 C1997 1.487 . S
C1995 C1992 1.382 . S
C1995 C1996 1.387 . S
C1995 H2012 0.930 . S
C1996 C1994 1.381 . S
C1996 C1995 1.387 . S
C1996 H2013 0.931 . S
C1997 C1990 1.399 . S
C1997 C1994 1.487 . S
C1997 N2014 1.343 . S
H1998 C1970 0.931 . S
H1999 C1972 0.930 . S
H2000 C1974 0.930 . S
H2001 C1975 0.931 . S
H2002 C1977 0.931 . S
H2003 C1979 0.930 . S
H2004 C1981 0.930 . S
H2005 C1982 0.931 . S
H2006 C1984 0.931 . S
H2007 C1986 0.930 . S
H2008 C1988 0.930 . S
H2009 C1989 0.931 . S
H2010 C1991 0.931 . S
H2011 C1993 0.930 . S
H2012 C1995 0.930 . S
H2013 C1996 0.931 . S
N2014 C1976 1.343 . S
N2014 C1997 1.343 . S
N2015 C1983 1.343 . S
N2015 C1990 1.343 . S
C2016 C2017 1.384 . S
C2016 C2018 1.384 . S
C2016 H2044 0.931 . S
C2017 C2016 1.384 . S
C2017 C2020 1.382 . S
C2018 C2016 1.384 . S
C2018 C2019 1.381 . S
C2018 H2045 0.930 . S
C2019 C2018 1.381 . S
C2019 C2021 1.381 . S
C2019 C2022 1.487 . S
C2020 C2017 1.382 . S
C2020 C2021 1.387 . S
C2020 H2046 0.930 . S
C2021 C2019 1.381 . S
C2021 C2020 1.387 . S
C2021 H2047 0.931 . S
C2022 C2019 1.487 . S
C2022 C2029 1.399 . S
C2022 N2060 1.343 . S
C2023 C2024 1.384 . S
C2023 C2025 1.384 . S
C2023 H2048 0.931 . S
C2024 C2023 1.384 . S
C2024 C2027 1.382 . S
C2025 C2023 1.384 . S
C2025 C2026 1.381 . S
C2025 H2049 0.930 . S
C2026 C2025 1.381 . S
C2026 C2028 1.381 . S
C2026 C2029 1.487 . S
C2027 C2024 1.382 . S
C2027 C2028 1.387 . S
C2027 H2050 0.930 . S
C2028 C2026 1.381 . S
C2028 C2027 1.387 . S
C2028 H2051 0.931 . S
C2029 C2022 1.399 . S
C2029 C2026 1.487 . S
C2029 N2061 1.343 . S
C2030 C2031 1.384 . S
C2030 C2032 1.384 . S
C2030 H2052 0.931 . S
C2031 C2030 1.384 . S
C2031 C2034 1.382 . S
C2032 C2030 1.384 . S
C2032 C2033 1.381 . S
C2032 H2053 0.930 . S
C2033 C2032 1.381 . S
C2033 C2035 1.381 . S
C2033 C2036 1.487 . S
C2034 C2031 1.382 . S
C2034 C2035 1.387 . S
C2034 H2054 0.930 . S
C2035 C2033 1.381 . S
C2035 C2034 1.387 . S
C2035 H2055 0.931 . S
C2036 C2033 1.487 . S
C2036 C2043 1.399 . S
C2036 N2061 1.343 . S
C2037 C2038 1.384 . S
C2037 C2039 1.384 . S
C2037 H2056 0.931 . S
C2038 C2037 1.384 . S
C2038 C2041 1.382 . S
C2039 C2037 1.384 . S
C2039 C2040 1.381 . S
C2039 H2057 0.930 . S
C2040 C2039 1.381 . S
C2040 C2042 1.381 . S
C2040 C2043 1.487 . S
C2041 C2038 1.382 . S
C2041 C2042 1.387 . S
C2041 H2058 0.930 . S
C2042 C2040 1.381 . S
C2042 C2041 1.387 . S
C2042 H2059 0.931 . S
C2043 C2036 1.399 . S
C2043 C2040 1.487 . S
C2043 N2060 1.343 . S
H2044 C2016 0.931 . S
H2045 C2018 0.930 . S
H2046 C2020 0.930 . S
H2047 C2021 0.931 . S
H2048 C2023 0.931 . S
H2049 C2025 0.930 . S
H2050 C2027 0.930 . S
H2051 C2028 0.931 . S
H2052 C2030 0.931 . S
H2053 C2032 0.930 . S
H2054 C2034 0.930 . S
H2055 C2035 0.931 . S
H2056 C2037 0.931 . S
H2057 C2039 0.930 . S
H2058 C2041 0.930 . S
H2059 C2042 0.931 . S
N2060 C2022 1.343 . S
N2060 C2043 1.343 . S
N2061 C2029 1.343 . S
N2061 C2036 1.343 . S
C2062 C2063 1.384 . S
C2062 C2064 1.384 . S
C2062 H2090 0.931 . S
C2063 C2062 1.384 . S
C2063 C2066 1.382 . S
C2064 C2062 1.384 . S
C2064 C2065 1.381 . S
C2064 H2091 0.930 . S
C2065 C2064 1.381 . S
C2065 C2067 1.381 . S
C2065 C2068 1.487 . S
C2066 C2063 1.382 . S
C2066 C2067 1.387 . S
C2066 H2092 0.930 . S
C2067 C2065 1.381 . S
C2067 C2066 1.387 . S
C2067 H2093 0.931 . S
C2068 C2065 1.487 . S
C2068 C2075 1.399 . S
C2068 N2106 1.343 . S
C2069 C2070 1.384 . S
C2069 C2071 1.384 . S
C2069 H2094 0.931 . S
C2070 C2069 1.384 . S
C2070 C2073 1.382 . S
C2071 C2069 1.384 . S
C2071 C2072 1.381 . S
C2071 H2095 0.930 . S
C2072 C2071 1.381 . S
C2072 C2074 1.381 . S
C2072 C2075 1.487 . S
C2073 C2070 1.382 . S
C2073 C2074 1.387 . S
C2073 H2096 0.930 . S
C2074 C2072 1.381 . S
C2074 C2073 1.387 . S
C2074 H2097 0.931 . S
C2075 C2068 1.399 . S
C2075 C2072 1.487 . S
C2075 N2107 1.343 . S
C2076 C2077 1.384 . S
C2076 C2078 1.384 . S
C2076 H2098 0.931 . S
C2077 C2076 1.384 . S
C2077 C2080 1.382 . S
C2078 C2076 1.384 . S
C2078 C2079 1.381 . S
C2078 H2099 0.930 . S
C2079 C2078 1.381 . S
C2079 C2081 1.381 . S
C2079 C2082 1.487 . S
C2080 C2077 1.382 . S
C2080 C2081 1.387 . S
C2080 H2100 0.930 . S
C2081 C2079 1.381 . S
C2081 C2080 1.387 . S
C2081 H2101 0.931 . S
C2082 C2079 1.487 . S
C2082 C2089 1.399 . S
C2082 N2107 1.343 . S
C2083 C2084 1.384 . S
C2083 C2085 1.384 . S
C2083 H2102 0.931 . S
C2084 C2083 1.384 . S
C2084 C2087 1.382 . S
C2085 C2083 1.384 . S
C2085 C2086 1.381 . S
C2085 H2103 0.930 . S
C2086 C2085 1.381 . S
C2086 C2088 1.381 . S
C2086 C2089 1.487 . S
C2087 C2084 1.382 . S
C2087 C2088 1.387 . S
C2087 H2104 0.930 . S
C2088 C2086 1.381 . S
C2088 C2087 1.387 . S
C2088 H2105 0.931 . S
C2089 C2082 1.399 . S
C2089 C2086 1.487 . S
C2089 N2106 1.343 . S
H2090 C2062 0.931 . S
H2091 C2064 0.930 . S
H2092 C2066 0.930 . S
H2093 C2067 0.931 . S
H2094 C2069 0.931 . S
H2095 C2071 0.930 . S
H2096 C2073 0.930 . S
H2097 C2074 0.931 . S
H2098 C2076 0.931 . S
H2099 C2078 0.930 . S
H2100 C2080 0.930 . S
H2101 C2081 0.931 . S
H2102 C2083 0.931 . S
H2103 C2085 0.930 . S
H2104 C2087 0.930 . S
H2105 C2088 0.931 . S
N2106 C2068 1.343 . S
N2106 C2089 1.343 . S
N2107 C2075 1.343 . S
N2107 C2082 1.343 . S
C2108 C2109 1.384 . S
C2108 C2110 1.384 . S
C2108 H2136 0.931 . S
C2109 C2108 1.384 . S
C2109 C2112 1.382 . S
C2110 C2108 1.384 . S
C2110 C2111 1.381 . S
C2110 H2137 0.930 . S
C2111 C2110 1.381 . S
C2111 C2113 1.381 . S
C2111 C2114 1.487 . S
C2112 C2109 1.382 . S
C2112 C2113 1.387 . S
C2112 H2138 0.930 . S
C2113 C2111 1.381 . S
C2113 C2112 1.387 . S
C2113 H2139 0.931 . S
C2114 C2111 1.487 . S
C2114 C2121 1.399 . S
C2114 N2152 1.343 . S
C2115 C2116 1.384 . S
C2115 C2117 1.384 . S
C2115 H2140 0.931 . S
C2116 C2115 1.384 . S
C2116 C2119 1.382 . S
C2117 C2115 1.384 . S
C2117 C2118 1.381 . S
C2117 H2141 0.930 . S
C2118 C2117 1.381 . S
C2118 C2120 1.381 . S
C2118 C2121 1.487 . S
C2119 C2116 1.382 . S
C2119 C2120 1.387 . S
C2119 H2142 0.930 . S
C2120 C2118 1.381 . S
C2120 C2119 1.387 . S
C2120 H2143 0.931 . S
C2121 C2114 1.399 . S
C2121 C2118 1.487 . S
C2121 N2153 1.343 . S
C2122 C2123 1.384 . S
C2122 C2124 1.384 . S
C2122 H2144 0.931 . S
C2123 C2122 1.384 . S
C2123 C2126 1.382 . S
C2124 C2122 1.384 . S
C2124 C2125 1.381 . S
C2124 H2145 0.930 . S
C2125 C2124 1.381 . S
C2125 C2127 1.381 . S
C2125 C2128 1.487 . S
C2126 C2123 1.382 . S
C2126 C2127 1.387 . S
C2126 H2146 0.930 . S
C2127 C2125 1.381 . S
C2127 C2126 1.387 . S
C2127 H2147 0.931 . S
C2128 C2125 1.487 . S
C2128 C2135 1.399 . S
C2128 N2153 1.343 . S
C2129 C2130 1.384 . S
C2129 C2131 1.384 . S
C2129 H2148 0.931 . S
C2130 C2129 1.384 . S
C2130 C2133 1.382 . S
C2131 C2129 1.384 . S
C2131 C2132 1.381 . S
C2131 H2149 0.930 . S
C2132 C2131 1.381 . S
C2132 C2134 1.381 . S
C2132 C2135 1.487 . S
C2133 C2130 1.382 . S
C2133 C2134 1.387 . S
C2133 H2150 0.930 . S
C2134 C2132 1.381 . S
C2134 C2133 1.387 . S
C2134 H2151 0.931 . S
C2135 C2128 1.399 . S
C2135 C2132 1.487 . S
C2135 N2152 1.343 . S
H2136 C2108 0.931 . S
H2137 C2110 0.930 . S
H2138 C2112 0.930 . S
H2139 C2113 0.931 . S
H2140 C2115 0.931 . S
H2141 C2117 0.930 . S
H2142 C2119 0.930 . S
H2143 C2120 0.931 . S
H2144 C2122 0.931 . S
H2145 C2124 0.930 . S
H2146 C2126 0.930 . S
H2147 C2127 0.931 . S
H2148 C2129 0.931 . S
H2149 C2131 0.930 . S
H2150 C2133 0.930 . S
H2151 C2134 0.931 . S
N2152 C2114 1.343 . S
N2152 C2135 1.343 . S
N2153 C2121 1.343 . S
N2153 C2128 1.343 . S
C2154 C2155 1.384 . S
C2154 C2156 1.384 . S
C2154 H2182 0.931 . S
C2155 C2154 1.384 . S
C2155 C2158 1.382 . S
C2156 C2154 1.384 . S
C2156 C2157 1.381 . S
C2156 H2183 0.930 . S
C2157 C2156 1.381 . S
C2157 C2159 1.381 . S
C2157 C2160 1.487 . S
C2158 C2155 1.382 . S
C2158 C2159 1.387 . S
C2158 H2184 0.930 . S
C2159 C2157 1.381 . S
C2159 C2158 1.387 . S
C2159 H2185 0.931 . S
C2160 C2157 1.487 . S
C2160 C2167 1.399 . S
C2160 N2198 1.343 . S
C2161 C2162 1.384 . S
C2161 C2163 1.384 . S
C2161 H2186 0.931 . S
C2162 C2161 1.384 . S
C2162 C2165 1.382 . S
C2163 C2161 1.384 . S
C2163 C2164 1.381 . S
C2163 H2187 0.930 . S
C2164 C2163 1.381 . S
C2164 C2166 1.381 . S
C2164 C2167 1.487 . S
C2165 C2162 1.382 . S
C2165 C2166 1.387 . S
C2165 H2188 0.930 . S
C2166 C2164 1.381 . S
C2166 C2165 1.387 . S
C2166 H2189 0.931 . S
C2167 C2160 1.399 . S
C2167 C2164 1.487 . S
C2167 N2199 1.343 . S
C2168 C2169 1.384 . S
C2168 C2170 1.384 . S
C2168 H2190 0.931 . S
C2169 C2168 1.384 . S
C2169 C2172 1.382 . S
C2170 C2168 1.384 . S
C2170 C2171 1.381 . S
C2170 H2191 0.930 . S
C2171 C2170 1.381 . S
C2171 C2173 1.381 . S
C2171 C2174 1.487 . S
C2172 C2169 1.382 . S
C2172 C2173 1.387 . S
C2172 H2192 0.930 . S
C2173 C2171 1.381 . S
C2173 C2172 1.387 . S
C2173 H2193 0.931 . S
C2174 C2171 1.487 . S
C2174 C2181 1.399 . S
C2174 N2199 1.343 . S
C2175 C2176 1.384 . S
C2175 C2177 1.384 . S
C2175 H2194 0.931 . S
C2176 C2175 1.384 . S
C2176 C2179 1.382 . S
C2177 C2175 1.384 . S
C2177 C2178 1.381 . S
C2177 H2195 0.930 . S
C2178 C2177 1.381 . S
C2178 C2180 1.381 . S
C2178 C2181 1.487 . S
C2179 C2176 1.382 . S
C2179 C2180 1.387 . S
C2179 H2196 0.930 . S
C2180 C2178 1.381 . S
C2180 C2179 1.387 . S
C2180 H2197 0.931 . S
C2181 C2174 1.399 . S
C2181 C2178 1.487 . S
C2181 N2198 1.343 . S
H2182 C2154 0.931 . S
H2183 C2156 0.930 . S
H2184 C2158 0.930 . S
H2185 C2159 0.931 . S
H2186 C2161 0.931 . S
H2187 C2163 0.930 . S
H2188 C2165 0.930 . S
H2189 C2166 0.931 . S
H2190 C2168 0.931 . S
H2191 C2170 0.930 . S
H2192 C2172 0.930 . S
H2193 C2173 0.931 . S
H2194 C2175 0.931 . S
H2195 C2177 0.930 . S
H2196 C2179 0.930 . S
H2197 C2180 0.931 . S
N2198 C2160 1.343 . S
N2198 C2181 1.343 . S
N2199 C2167 1.343 . S
N2199 C2174 1.343 . S
C2200 C2201 1.384 . S
C2200 C2202 1.384 . S
C2200 H2228 0.931 . S
C2201 C2200 1.384 . S
C2201 C2204 1.382 . S
C2202 C2200 1.384 . S
C2202 C2203 1.381 . S
C2202 H2229 0.930 . S
C2203 C2202 1.381 . S
C2203 C2205 1.381 . S
C2203 C2206 1.487 . S
C2204 C2201 1.382 . S
C2204 C2205 1.387 . S
C2204 H2230 0.930 . S
C2205 C2203 1.381 . S
C2205 C2204 1.387 . S
C2205 H2231 0.931 . S
C2206 C2203 1.487 . S
C2206 C2213 1.399 . S
C2206 N2244 1.343 . S
C2207 C2208 1.384 . S
C2207 C2209 1.384 . S
C2207 H2232 0.931 . S
C2208 C2207 1.384 . S
C2208 C2211 1.382 . S
C2209 C2207 1.384 . S
C2209 C2210 1.381 . S
C2209 H2233 0.930 . S
C2210 C2209 1.381 . S
C2210 C2212 1.381 . S
C2210 C2213 1.487 . S
C2211 C2208 1.382 . S
C2211 C2212 1.387 . S
C2211 H2234 0.930 . S
C2212 C2210 1.381 . S
C2212 C2211 1.387 . S
C2212 H2235 0.931 . S
C2213 C2206 1.399 . S
C2213 C2210 1.487 . S
C2213 N2245 1.343 . S
C2214 C2215 1.384 . S
C2214 C2216 1.384 . S
C2214 H2236 0.931 . S
C2215 C2214 1.384 . S
C2215 C2218 1.382 . S
C2216 C2214 1.384 . S
C2216 C2217 1.381 . S
C2216 H2237 0.930 . S
C2217 C2216 1.381 . S
C2217 C2219 1.381 . S
C2217 C2220 1.487 . S
C2218 C2215 1.382 . S
C2218 C2219 1.387 . S
C2218 H2238 0.930 . S
C2219 C2217 1.381 . S
C2219 C2218 1.387 . S
C2219 H2239 0.931 . S
C2220 C2217 1.487 . S
C2220 C2227 1.399 . S
C2220 N2245 1.343 . S
C2221 C2222 1.384 . S
C2221 C2223 1.384 . S
C2221 H2240 0.931 . S
C2222 C2221 1.384 . S
C2222 C2225 1.382 . S
C2223 C2221 1.384 . S
C2223 C2224 1.381 . S
C2223 H2241 0.930 . S
C2224 C2223 1.381 . S
C2224 C2226 1.381 . S
C2224 C2227 1.487 . S
C2225 C2222 1.382 . S
C2225 C2226 1.387 . S
C2225 H2242 0.930 . S
C2226 C2224 1.381 . S
C2226 C2225 1.387 . S
C2226 H2243 0.931 . S
C2227 C2220 1.399 . S
C2227 C2224 1.487 . S
C2227 N2244 1.343 . S
H2228 C2200 0.931 . S
H2229 C2202 0.930 . S
H2230 C2204 0.930 . S
H2231 C2205 0.931 . S
H2232 C2207 0.931 . S
H2233 C2209 0.930 . S
H2234 C2211 0.930 . S
H2235 C2212 0.931 . S
H2236 C2214 0.931 . S
H2237 C2216 0.930 . S
H2238 C2218 0.930 . S
H2239 C2219 0.931 . S
H2240 C2221 0.931 . S
H2241 C2223 0.930 . S
H2242 C2225 0.930 . S
H2243 C2226 0.931 . S
N2244 C2206 1.343 . S
N2244 C2227 1.343 . S
N2245 C2213 1.343 . S
N2245 C2220 1.343 . S
C2246 C2247 1.384 . S
C2246 C2248 1.384 . S
C2246 H2274 0.931 . S
C2247 C2246 1.384 . S
C2247 C2250 1.382 . S
C2248 C2246 1.384 . S
C2248 C2249 1.381 . S
C2248 H2275 0.930 . S
C2249 C2248 1.381 . S
C2249 C2251 1.381 . S
C2249 C2252 1.487 . S
C2250 C2247 1.382 . S
C2250 C2251 1.387 . S
C2250 H2276 0.930 . S
C2251 C2249 1.381 . S
C2251 C2250 1.387 . S
C2251 H2277 0.931 . S
C2252 C2249 1.487 . S
C2252 C2259 1.399 . S
C2252 N2290 1.343 . S
C2253 C2254 1.384 . S
C2253 C2255 1.384 . S
C2253 H2278 0.931 . S
C2254 C2253 1.384 . S
C2254 C2257 1.382 . S
C2255 C2253 1.384 . S
C2255 C2256 1.381 . S
C2255 H2279 0.930 . S
C2256 C2255 1.381 . S
C2256 C2258 1.381 . S
C2256 C2259 1.487 . S
C2257 C2254 1.382 . S
C2257 C2258 1.387 . S
C2257 H2280 0.930 . S
C2258 C2256 1.381 . S
C2258 C2257 1.387 . S
C2258 H2281 0.931 . S
C2259 C2252 1.399 . S
C2259 C2256 1.487 . S
C2259 N2291 1.343 . S
C2260 C2261 1.384 . S
C2260 C2262 1.384 . S
C2260 H2282 0.931 . S
C2261 C2260 1.384 . S
C2261 C2264 1.382 . S
C2262 C2260 1.384 . S
C2262 C2263 1.381 . S
C2262 H2283 0.930 . S
C2263 C2262 1.381 . S
C2263 C2265 1.381 . S
C2263 C2266 1.487 . S
C2264 C2261 1.382 . S
C2264 C2265 1.387 . S
C2264 H2284 0.930 . S
C2265 C2263 1.381 . S
C2265 C2264 1.387 . S
C2265 H2285 0.931 . S
C2266 C2263 1.487 . S
C2266 C2273 1.399 . S
C2266 N2291 1.343 . S
C2267 C2268 1.384 . S
C2267 C2269 1.384 . S
C2267 H2286 0.931 . S
C2268 C2267 1.384 . S
C2268 C2271 1.382 . S
C2269 C2267 1.384 . S
C2269 C2270 1.381 . S
C2269 H2287 0.930 . S
C2270 C2269 1.381 . S
C2270 C2272 1.381 . S
C2270 C2273 1.487 . S
C2271 C2268 1.382 . S
C2271 C2272 1.387 . S
C2271 H2288 0.930 . S
C2272 C2270 1.381 . S
C2272 C2271 1.387 . S
C2272 H2289 0.931 . S
C2273 C2266 1.399 . S
C2273 C2270 1.487 . S
C2273 N2290 1.343 . S
H2274 C2246 0.931 . S
H2275 C2248 0.930 . S
H2276 C2250 0.930 . S
H2277 C2251 0.931 . S
H2278 C2253 0.931 . S
H2279 C2255 0.930 . S
H2280 C2257 0.930 . S
H2281 C2258 0.931 . S
H2282 C2260 0.931 . S
H2283 C2262 0.930 . S
H2284 C2264 0.930 . S
H2285 C2265 0.931 . S
H2286 C2267 0.931 . S
H2287 C2269 0.930 . S
H2288 C2271 0.930 . S
H2289 C2272 0.931 . S
N2290 C2252 1.343 . S
N2290 C2273 1.343 . S
N2291 C2259 1.343 . S
N2291 C2266 1.343 . S
C2292 C2293 1.384 . S
C2292 C2294 1.384 . S
C2292 H2320 0.931 . S
C2293 C2292 1.384 . S
C2293 C2296 1.382 . S
C2294 C2292 1.384 . S
C2294 C2295 1.381 . S
C2294 H2321 0.930 . S
C2295 C2294 1.381 . S
C2295 C2297 1.381 . S
C2295 C2298 1.487 . S
C2296 C2293 1.382 . S
C2296 C2297 1.387 . S
C2296 H2322 0.930 . S
C2297 C2295 1.381 . S
C2297 C2296 1.387 . S
C2297 H2323 0.931 . S
C2298 C2295 1.487 . S
C2298 C2305 1.399 . S
C2298 N2336 1.343 . S
C2299 C2300 1.384 . S
C2299 C2301 1.384 . S
C2299 H2324 0.931 . S
C2300 C2299 1.384 . S
C2300 C2303 1.382 . S
C2301 C2299 1.384 . S
C2301 C2302 1.381 . S
C2301 H2325 0.930 . S
C2302 C2301 1.381 . S
C2302 C2304 1.381 . S
C2302 C2305 1.487 . S
C2303 C2300 1.382 . S
C2303 C2304 1.387 . S
C2303 H2326 0.930 . S
C2304 C2302 1.381 . S
C2304 C2303 1.387 . S
C2304 H2327 0.931 . S
C2305 C2298 1.399 . S
C2305 C2302 1.487 . S
C2305 N2337 1.343 . S
C2306 C2307 1.384 . S
C2306 C2308 1.384 . S
C2306 H2328 0.931 . S
C2307 C2306 1.384 . S
C2307 C2310 1.382 . S
C2308 C2306 1.384 . S
C2308 C2309 1.381 . S
C2308 H2329 0.930 . S
C2309 C2308 1.381 . S
C2309 C2311 1.381 . S
C2309 C2312 1.487 . S
C2310 C2307 1.382 . S
C2310 C2311 1.387 . S
C2310 H2330 0.930 . S
C2311 C2309 1.381 . S
C2311 C2310 1.387 . S
C2311 H2331 0.931 . S
C2312 C2309 1.487 . S
C2312 C2319 1.399 . S
C2312 N2337 1.343 . S
C2313 C2314 1.384 . S
C2313 C2315 1.384 . S
C2313 H2332 0.931 . S
C2314 C2313 1.384 . S
C2314 C2317 1.382 . S
C2315 C2313 1.384 . S
C2315 C2316 1.381 . S
C2315 H2333 0.930 . S
C2316 C2315 1.381 . S
C2316 C2318 1.381 . S
C2316 C2319 1.487 . S
C2317 C2314 1.382 . S
C2317 C2318 1.387 . S
C2317 H2334 0.930 . S
C2318 C2316 1.381 . S
C2318 C2317 1.387 . S
C2318 H2335 0.931 . S
C2319 C2312 1.399 . S
C2319 C2316 1.487 . S
C2319 N2336 1.343 . S
H2320 C2292 0.931 . S
H2321 C2294 0.930 . S
H2322 C2296 0.930 . S
H2323 C2297 0.931 . S
H2324 C2299 0.931 . S
H2325 C2301 0.930 . S
H2326 C2303 0.930 . S
H2327 C2304 0.931 . S
H2328 C2306 0.931 . S
H2329 C2308 0.930 . S
H2330 C2310 0.930 . S
H2331 C2311 0.931 . S
H2332 C2313 0.931 . S
H2333 C2315 0.930 . S
H2334 C2317 0.930 . S
H2335 C2318 0.931 . S
N2336 C2298 1.343 . S
N2336 C2319 1.343 . S
N2337 C2305 1.343 . S
N2337 C2312 1.343 . S
C2338 C2339 1.384 . S
C2338 C2340 1.384 . S
C2338 H2366 0.931 . S
C2339 C2338 1.384 . S
C2339 C2342 1.382 . S
C2340 C2338 1.384 . S
C2340 C2341 1.381 . S
C2340 H2367 0.930 . S
C2341 C2340 1.381 . S
C2341 C2343 1.381 . S
C2341 C2344 1.487 . S
C2342 C2339 1.382 . S
C2342 C2343 1.387 . S
C2342 H2368 0.930 . S
C2343 C2341 1.381 . S
C2343 C2342 1.387 . S
C2343 H2369 0.931 . S
C2344 C2341 1.487 . S
C2344 C2351 1.399 . S
C2344 N2382 1.343 . S
C2345 C2346 1.384 . S
C2345 C2347 1.384 . S
C2345 H2370 0.931 . S
C2346 C2345 1.384 . S
C2346 C2349 1.382 . S
C2347 C2345 1.384 . S
C2347 C2348 1.381 . S
C2347 H2371 0.930 . S
C2348 C2347 1.381 . S
C2348 C2350 1.381 . S
C2348 C2351 1.487 . S
C2349 C2346 1.382 . S
C2349 C2350 1.387 . S
C2349 H2372 0.930 . S
C2350 C2348 1.381 . S
C2350 C2349 1.387 . S
C2350 H2373 0.931 . S
C2351 C2344 1.399 . S
C2351 C2348 1.487 . S
C2351 N2383 1.343 . S
C2352 C2353 1.384 . S
C2352 C2354 1.384 . S
C2352 H2374 0.931 . S
C2353 C2352 1.384 . S
C2353 C2356 1.382 . S
C2354 C2352 1.384 . S
C2354 C2355 1.381 . S
C2354 H2375 0.930 . S
C2355 C2354 1.381 . S
C2355 C2357 1.381 . S
C2355 C2358 1.487 . S
C2356 C2353 1.382 . S
C2356 C2357 1.387 . S
C2356 H2376 0.930 . S
C2357 C2355 1.381 . S
C2357 C2356 1.387 . S
C2357 H2377 0.931 . S
C2358 C2355 1.487 . S
C2358 C2365 1.399 . S
C2358 N2383 1.343 . S
C2359 C2360 1.384 . S
C2359 C2361 1.384 . S
C2359 H2378 0.931 . S
C2360 C2359 1.384 . S
C2360 C2363 1.382 . S
C2361 C2359 1.384 . S
C2361 C2362 1.381 . S
C2361 H2379 0.930 . S
C2362 C2361 1.381 . S
C2362 C2364 1.381 . S
C2362 C2365 1.487 . S
C2363 C2360 1.382 . S
C2363 C2364 1.387 . S
C2363 H2380 0.930 . S
C2364 C2362 1.381 . S
C2364 C2363 1.387 . S
C2364 H2381 0.931 . S
C2365 C2358 1.399 . S
C2365 C2362 1.487 . S
C2365 N2382 1.343 . S
H2366 C2338 0.931 . S
H2367 C2340 0.930 . S
H2368 C2342 0.930 . S
H2369 C2343 0.931 . S
H2370 C2345 0.931 . S
H2371 C2347 0.930 . S
H2372 C2349 0.930 . S
H2373 C2350 0.931 . S
H2374 C2352 0.931 . S
H2375 C2354 0.930 . S
H2376 C2356 0.930 . S
H2377 C2357 0.931 . S
H2378 C2359 0.931 . S
H2379 C2361 0.930 . S
H2380 C2363 0.930 . S
H2381 C2364 0.931 . S
N2382 C2344 1.343 . S
N2382 C2365 1.343 . S
N2383 C2351 1.343 . S
N2383 C2358 1.343 . S
C2384 C2385 1.349 . S
C2384 C2386 1.327 . S
C2384 H2409 0.950 . S
C2385 C2384 1.349 . S
C2385 C2401 1.349 . S
C2386 C2384 1.327 . S
C2386 C2405 1.429 . S
C2386 H2410 0.950 . S
C2387 C2404 1.574 . S
C2387 C2406 1.368 . S
C2387 H2411 0.949 . S
H2388 C2392 0.949 . S
C2389 C2390 1.349 . S
C2389 C2391 1.327 . S
C2389 H2412 0.950 . S
C2390 C2389 1.349 . S
C2390 C2402 1.349 . S
C2391 C2389 1.327 . S
C2391 C2407 1.429 . S
C2391 H2413 0.950 . S
C2392 H2388 0.949 . S
C2392 C2400 1.574 . S
C2392 C2408 1.368 . S
H2393 C2401 0.950 . S
H2394 C2399 0.950 . S
H2395 C2400 0.949 . S
H2396 C2402 0.950 . S
H2397 C2403 0.950 . S
H2398 C2404 0.949 . S
C2399 H2394 0.950 . S
C2399 C2401 1.327 . S
C2399 C2405 1.429 . S
C2400 C2392 1.574 . S
C2400 H2395 0.949 . S
C2400 C2406 1.368 . S
C2401 C2385 1.349 . S
C2401 H2393 0.950 . S
C2401 C2399 1.327 . S
C2402 C2390 1.349 . S
C2402 H2396 0.950 . S
C2402 C2403 1.327 . S
C2403 H2397 0.950 . S
C2403 C2402 1.327 . S
C2403 C2407 1.429 . S
C2404 C2387 1.574 . S
C2404 H2398 0.949 . S
C2404 C2408 1.368 . S
C2405 C2386 1.429 . S
C2405 C2399 1.429 . S
C2405 C2406 1.523 . S
C2406 C2387 1.368 . S
C2406 C2400 1.368 . S
C2406 C2405 1.523 . S
C2407 C2391 1.429 . S
C2407 C2403 1.429 . S
C2407 C2408 1.523 . S
C2408 C2392 1.368 . S
C2408 C2404 1.368 . S
C2408 C2407 1.523 . S
H2409 C2384 0.950 . S
H2410 C2386 0.950 . S
H2411 C2387 0.949 . S
H2412 C2389 0.950 . S
H2413 C2391 0.950 . S
C2414 C2415 1.349 . S
C2414 C2416 1.327 . S
C2414 H2439 0.950 . S
C2415 C2414 1.349 . S
C2415 C2431 1.349 . S
C2416 C2414 1.327 . S
C2416 C2435 1.429 . S
C2416 H2440 0.950 . S
C2417 C2434 1.574 . S
C2417 C2436 1.368 . S
C2417 H2441 0.949 . S
H2418 C2422 0.949 . S
C2419 C2420 1.349 . S
C2419 C2421 1.327 . S
C2419 H2442 0.950 . S
C2420 C2419 1.349 . S
C2420 C2432 1.349 . S
C2421 C2419 1.327 . S
C2421 C2437 1.429 . S
C2421 H2443 0.950 . S
C2422 H2418 0.949 . S
C2422 C2430 1.574 . S
C2422 C2438 1.368 . S
H2423 C2431 0.950 . S
H2424 C2429 0.950 . S
H2425 C2430 0.949 . S
H2426 C2432 0.950 . S
H2427 C2433 0.950 . S
H2428 C2434 0.949 . S
C2429 H2424 0.950 . S
C2429 C2431 1.327 . S
C2429 C2435 1.429 . S
C2430 C2422 1.574 . S
C2430 H2425 0.949 . S
C2430 C2436 1.368 . S
C2431 C2415 1.349 . S
C2431 H2423 0.950 . S
C2431 C2429 1.327 . S
C2432 C2420 1.349 . S
C2432 H2426 0.950 . S
C2432 C2433 1.327 . S
C2433 H2427 0.950 . S
C2433 C2432 1.327 . S
C2433 C2437 1.429 . S
C2434 C2417 1.574 . S
C2434 H2428 0.949 . S
C2434 C2438 1.368 . S
C2435 C2416 1.429 . S
C2435 C2429 1.429 . S
C2435 C2436 1.523 . S
C2436 C2417 1.368 . S
C2436 C2430 1.368 . S
C2436 C2435 1.523 . S
C2437 C2421 1.429 . S
C2437 C2433 1.429 . S
C2437 C2438 1.523 . S
C2438 C2422 1.368 . S
C2438 C2434 1.368 . S
C2438 C2437 1.523 . S
H2439 C2414 0.950 . S
H2440 C2416 0.950 . S
H2441 C2417 0.949 . S
H2442 C2419 0.950 . S
H2443 C2421 0.950 . S
C2444 C2445 1.349 . S
C2444 C2446 1.327 . S
C2444 H2469 0.950 . S
C2445 C2444 1.349 . S
C2445 C2461 1.349 . S
C2446 C2444 1.327 . S
C2446 C2465 1.429 . S
C2446 H2470 0.950 . S
C2447 C2464 1.574 . S
C2447 C2466 1.368 . S
C2447 H2471 0.949 . S
H2448 C2452 0.949 . S
C2449 C2450 1.349 . S
C2449 C2451 1.327 . S
C2449 H2472 0.950 . S
C2450 C2449 1.349 . S
C2450 C2462 1.349 . S
C2451 C2449 1.327 . S
C2451 C2467 1.429 . S
C2451 H2473 0.950 . S
C2452 H2448 0.949 . S
C2452 C2460 1.574 . S
C2452 C2468 1.368 . S
H2453 C2461 0.950 . S
H2454 C2459 0.950 . S
H2455 C2460 0.949 . S
H2456 C2462 0.950 . S
H2457 C2463 0.950 . S
H2458 C2464 0.949 . S
C2459 H2454 0.950 . S
C2459 C2461 1.327 . S
C2459 C2465 1.429 . S
C2460 C2452 1.574 . S
C2460 H2455 0.949 . S
C2460 C2466 1.368 . S
C2461 C2445 1.349 . S
C2461 H2453 0.950 . S
C2461 C2459 1.327 . S
C2462 C2450 1.349 . S
C2462 H2456 0.950 . S
C2462 C2463 1.327 . S
C2463 H2457 0.950 . S
C2463 C2462 1.327 . S
C2463 C2467 1.429 . S
C2464 C2447 1.574 . S
C2464 H2458 0.949 . S
C2464 C2468 1.368 . S
C2465 C2446 1.429 . S
C2465 C2459 1.429 . S
C2465 C2466 1.523 . S
C2466 C2447 1.368 . S
C2466 C2460 1.368 . S
C2466 C2465 1.523 . S
C2467 C2451 1.429 . S
C2467 C2463 1.429 . S
C2467 C2468 1.523 . S
C2468 C2452 1.368 . S
C2468 C2464 1.368 . S
C2468 C2467 1.523 . S
H2469 C2444 0.950 . S
H2470 C2446 0.950 . S
H2471 C2447 0.949 . S
H2472 C2449 0.950 . S
H2473 C2451 0.950 . S
C2474 C2475 1.349 . S
C2474 C2476 1.327 . S
C2474 H2499 0.950 . S
C2475 C2474 1.349 . S
C2475 C2491 1.349 . S
C2476 C2474 1.327 . S
C2476 C2495 1.429 . S
C2476 H2500 0.950 . S
C2477 C2494 1.574 . S
C2477 C2496 1.368 . S
C2477 H2501 0.949 . S
H2478 C2482 0.949 . S
C2479 C2480 1.349 . S
C2479 C2481 1.327 . S
C2479 H2502 0.950 . S
C2480 C2479 1.349 . S
C2480 C2492 1.349 . S
C2481 C2479 1.327 . S
C2481 C2497 1.429 . S
C2481 H2503 0.950 . S
C2482 H2478 0.949 . S
C2482 C2490 1.574 . S
C2482 C2498 1.368 . S
H2483 C2491 0.950 . S
H2484 C2489 0.950 . S
H2485 C2490 0.949 . S
H2486 C2492 0.950 . S
H2487 C2493 0.950 . S
H2488 C2494 0.949 . S
C2489 H2484 0.950 . S
C2489 C2491 1.327 . S
C2489 C2495 1.429 . S
C2490 C2482 1.574 . S
C2490 H2485 0.949 . S
C2490 C2496 1.368 . S
C2491 C2475 1.349 . S
C2491 H2483 0.950 . S
C2491 C2489 1.327 . S
C2492 C2480 1.349 . S
C2492 H2486 0.950 . S
C2492 C2493 1.327 . S
C2493 H2487 0.950 . S
C2493 C2492 1.327 . S
C2493 C2497 1.429 . S
C2494 C2477 1.574 . S
C2494 H2488 0.949 . S
C2494 C2498 1.368 . S
C2495 C2476 1.429 . S
C2495 C2489 1.429 . S
C2495 C2496 1.523 . S
C2496 C2477 1.368 . S
C2496 C2490 1.368 . S
C2496 C2495 1.523 . S
C2497 C2481 1.429 . S
C2497 C2493 1.429 . S
C2497 C2498 1.523 . S
C2498 C2482 1.368 . S
C2498 C2494 1.368 . S
C2498 C2497 1.523 . S
H2499 C2474 0.950 . S
H2500 C2476 0.950 . S
H2501 C2477 0.949 . S
H2502 C2479 0.950 . S
H2503 C2481 0.950 . S
C2504 C2505 1.349 . S
C2504 C2506 1.327 . S
C2504 H2529 0.950 . S
C2505 C2504 1.349 . S
C2505 C2521 1.349 . S
C2506 C2504 1.327 . S
C2506 C2525 1.429 . S
C2506 H2530 0.950 . S
C2507 C2524 1.574 . S
C2507 C2526 1.368 . S
C2507 H2531 0.949 . S
H2508 C2512 0.949 . S
C2509 C2510 1.349 . S
C2509 C2511 1.327 . S
C2509 H2532 0.950 . S
C2510 C2509 1.349 . S
C2510 C2522 1.349 . S
C2511 C2509 1.327 . S
C2511 C2527 1.429 . S
C2511 H2533 0.950 . S
C2512 H2508 0.949 . S
C2512 C2520 1.574 . S
C2512 C2528 1.368 . S
H2513 C2521 0.950 . S
H2514 C2519 0.950 . S
H2515 C2520 0.949 . S
H2516 C2522 0.950 . S
H2517 C2523 0.950 . S
H2518 C2524 0.949 . S
C2519 H2514 0.950 . S
C2519 C2521 1.327 . S
C2519 C2525 1.429 . S
C2520 C2512 1.574 . S
C2520 H2515 0.949 . S
C2520 C2526 1.368 . S
C2521 C2505 1.349 . S
C2521 H2513 0.950 . S
C2521 C2519 1.327 . S
C2522 C2510 1.349 . S
C2522 H2516 0.950 . S
C2522 C2523 1.327 . S
C2523 H2517 0.950 . S
C2523 C2522 1.327 . S
C2523 C2527 1.429 . S
C2524 C2507 1.574 . S
C2524 H2518 0.949 . S
C2524 C2528 1.368 . S
C2525 C2506 1.429 . S
C2525 C2519 1.429 . S
C2525 C2526 1.523 . S
C2526 C2507 1.368 . S
C2526 C2520 1.368 . S
C2526 C2525 1.523 . S
C2527 C2511 1.429 . S
C2527 C2523 1.429 . S
C2527 C2528 1.523 . S
C2528 C2512 1.368 . S
C2528 C2524 1.368 . S
C2528 C2527 1.523 . S
H2529 C2504 0.950 . S
H2530 C2506 0.950 . S
H2531 C2507 0.949 . S
H2532 C2509 0.950 . S
H2533 C2511 0.950 . S
C2534 C2535 1.349 . S
C2534 C2536 1.327 . S
C2534 H2559 0.950 . S
C2535 C2534 1.349 . S
C2535 C2551 1.349 . S
C2536 C2534 1.327 . S
C2536 C2555 1.429 . S
C2536 H2560 0.950 . S
C2537 C2554 1.574 . S
C2537 C2556 1.368 . S
C2537 H2561 0.949 . S
H2538 C2542 0.949 . S
C2539 C2540 1.349 . S
C2539 C2541 1.327 . S
C2539 H2562 0.950 . S
C2540 C2539 1.349 . S
C2540 C2552 1.349 . S
C2541 C2539 1.327 . S
C2541 C2557 1.429 . S
C2541 H2563 0.950 . S
C2542 H2538 0.949 . S
C2542 C2550 1.574 . S
C2542 C2558 1.368 . S
H2543 C2551 0.950 . S
H2544 C2549 0.950 . S
H2545 C2550 0.949 . S
H2546 C2552 0.950 . S
H2547 C2553 0.950 . S
H2548 C2554 0.949 . S
C2549 H2544 0.950 . S
C2549 C2551 1.327 . S
C2549 C2555 1.429 . S
C2550 C2542 1.574 . S
C2550 H2545 0.949 . S
C2550 C2556 1.368 . S
C2551 C2535 1.349 . S
C2551 H2543 0.950 . S
C2551 C2549 1.327 . S
C2552 C2540 1.349 . S
C2552 H2546 0.950 . S
C2552 C2553 1.327 . S
C2553 H2547 0.950 . S
C2553 C2552 1.327 . S
C2553 C2557 1.429 . S
C2554 C2537 1.574 . S
C2554 H2548 0.949 . S
C2554 C2558 1.368 . S
C2555 C2536 1.429 . S
C2555 C2549 1.429 . S
C2555 C2556 1.523 . S
C2556 C2537 1.368 . S
C2556 C2550 1.368 . S
C2556 C2555 1.523 . S
C2557 C2541 1.429 . S
C2557 C2553 1.429 . S
C2557 C2558 1.523 . S
C2558 C2542 1.368 . S
C2558 C2554 1.368 . S
C2558 C2557 1.523 . S
H2559 C2534 0.950 . S
H2560 C2536 0.950 . S
H2561 C2537 0.949 . S
H2562 C2539 0.950 . S
H2563 C2541 0.950 . S
C2564 C2565 1.349 . S
C2564 C2566 1.327 . S
C2564 H2589 0.950 . S
C2565 C2564 1.349 . S
C2565 C2581 1.349 . S
C2566 C2564 1.327 . S
C2566 C2585 1.429 . S
C2566 H2590 0.950 . S
C2567 C2584 1.574 . S
C2567 C2586 1.368 . S
C2567 H2591 0.949 . S
H2568 C2572 0.949 . S
C2569 C2570 1.349 . S
C2569 C2571 1.327 . S
C2569 H2592 0.950 . S
C2570 C2569 1.349 . S
C2570 C2582 1.349 . S
C2571 C2569 1.327 . S
C2571 C2587 1.429 . S
C2571 H2593 0.950 . S
C2572 H2568 0.949 . S
C2572 C2580 1.574 . S
C2572 C2588 1.368 . S
H2573 C2581 0.950 . S
H2574 C2579 0.950 . S
H2575 C2580 0.949 . S
H2576 C2582 0.950 . S
H2577 C2583 0.950 . S
H2578 C2584 0.949 . S
C2579 H2574 0.950 . S
C2579 C2581 1.327 . S
C2579 C2585 1.429 . S
C2580 C2572 1.574 . S
C2580 H2575 0.949 . S
C2580 C2586 1.368 . S
C2581 C2565 1.349 . S
C2581 H2573 0.950 . S
C2581 C2579 1.327 . S
C2582 C2570 1.349 . S
C2582 H2576 0.950 . S
C2582 C2583 1.327 . S
C2583 H2577 0.950 . S
C2583 C2582 1.327 . S
C2583 C2587 1.429 . S
C2584 C2567 1.574 . S
C2584 H2578 0.949 . S
C2584 C2588 1.368 . S
C2585 C2566 1.429 . S
C2585 C2579 1.429 . S
C2585 C2586 1.523 . S
C2586 C2567 1.368 . S
C2586 C2580 1.368 . S
C2586 C2585 1.523 . S
C2587 C2571 1.429 . S
C2587 C2583 1.429 . S
C2587 C2588 1.523 . S
C2588 C2572 1.368 . S
C2588 C2584 1.368 . S
C2588 C2587 1.523 . S
H2589 C2564 0.950 . S
H2590 C2566 0.950 . S
H2591 C2567 0.949 . S
H2592 C2569 0.950 . S
H2593 C2571 0.950 . S
C2594 C2595 1.349 . S
C2594 C2596 1.327 . S
C2594 H2619 0.950 . S
C2595 C2594 1.349 . S
C2595 C2611 1.349 . S
C2596 C2594 1.327 . S
C2596 C2615 1.429 . S
C2596 H2620 0.950 . S
C2597 C2614 1.574 . S
C2597 C2616 1.368 . S
C2597 H2621 0.949 . S
H2598 C2602 0.949 . S
C2599 C2600 1.349 . S
C2599 C2601 1.327 . S
C2599 H2622 0.950 . S
C2600 C2599 1.349 . S
C2600 C2612 1.349 . S
C2601 C2599 1.327 . S
C2601 C2617 1.429 . S
C2601 H2623 0.950 . S
C2602 H2598 0.949 . S
C2602 C2610 1.574 . S
C2602 C2618 1.368 . S
H2603 C2611 0.950 . S
H2604 C2609 0.950 . S
H2605 C2610 0.949 . S
H2606 C2612 0.950 . S
H2607 C2613 0.950 . S
H2608 C2614 0.949 . S
C2609 H2604 0.950 . S
C2609 C2611 1.327 . S
C2609 C2615 1.429 . S
C2610 C2602 1.574 . S
C2610 H2605 0.949 . S
C2610 C2616 1.368 . S
C2611 C2595 1.349 . S
C2611 H2603 0.950 . S
C2611 C2609 1.327 . S
C2612 C2600 1.349 . S
C2612 H2606 0.950 . S
C2612 C2613 1.327 . S
C2613 H2607 0.950 . S
C2613 C2612 1.327 . S
C2613 C2617 1.429 . S
C2614 C2597 1.574 . S
C2614 H2608 0.949 . S
C2614 C2618 1.368 . S
C2615 C2596 1.429 . S
C2615 C2609 1.429 . S
C2615 C2616 1.523 . S
C2616 C2597 1.368 . S
C2616 C2610 1.368 . S
C2616 C2615 1.523 . S
C2617 C2601 1.429 . S
C2617 C2613 1.429 . S
C2617 C2618 1.523 . S
C2618 C2602 1.368 . S
C2618 C2614 1.368 . S
C2618 C2617 1.523 . S
H2619 C2594 0.950 . S
H2620 C2596 0.950 . S
H2621 C2597 0.949 . S
H2622 C2599 0.950 . S
H2623 C2601 0.950 . S
C2624 C2625 1.349 . S
C2624 C2626 1.327 . S
C2624 H2649 0.950 . S
C2625 C2624 1.349 . S
C2625 C2641 1.349 . S
C2626 C2624 1.327 . S
C2626 C2645 1.429 . S
C2626 H2650 0.950 . S
C2627 C2644 1.574 . S
C2627 C2646 1.368 . S
C2627 H2651 0.949 . S
H2628 C2632 0.949 . S
C2629 C2630 1.349 . S
C2629 C2631 1.327 . S
C2629 H2652 0.950 . S
C2630 C2629 1.349 . S
C2630 C2642 1.349 . S
C2631 C2629 1.327 . S
C2631 C2647 1.429 . S
C2631 H2653 0.950 . S
C2632 H2628 0.949 . S
C2632 C2640 1.574 . S
C2632 C2648 1.368 . S
H2633 C2641 0.950 . S
H2634 C2639 0.950 . S
H2635 C2640 0.949 . S
H2636 C2642 0.950 . S
H2637 C2643 0.950 . S
H2638 C2644 0.949 . S
C2639 H2634 0.950 . S
C2639 C2641 1.327 . S
C2639 C2645 1.429 . S
C2640 C2632 1.574 . S
C2640 H2635 0.949 . S
C2640 C2646 1.368 . S
C2641 C2625 1.349 . S
C2641 H2633 0.950 . S
C2641 C2639 1.327 . S
C2642 C2630 1.349 . S
C2642 H2636 0.950 . S
C2642 C2643 1.327 . S
C2643 H2637 0.950 . S
C2643 C2642 1.327 . S
C2643 C2647 1.429 . S
C2644 C2627 1.574 . S
C2644 H2638 0.949 . S
C2644 C2648 1.368 . S
C2645 C2626 1.429 . S
C2645 C2639 1.429 . S
C2645 C2646 1.523 . S
C2646 C2627 1.368 . S
C2646 C2640 1.368 . S
C2646 C2645 1.523 . S
C2647 C2631 1.429 . S
C2647 C2643 1.429 . S
C2647 C2648 1.523 . S
C2648 C2632 1.368 . S
C2648 C2644 1.368 . S
C2648 C2647 1.523 . S
H2649 C2624 0.950 . S
H2650 C2626 0.950 . S
H2651 C2627 0.949 . S
H2652 C2629 0.950 . S
H2653 C2631 0.950 . S
C2654 C2655 1.349 . S
C2654 C2656 1.327 . S
C2654 H2679 0.950 . S
C2655 C2654 1.349 . S
C2655 C2671 1.349 . S
C2656 C2654 1.327 . S
C2656 C2675 1.429 . S
C2656 H2680 0.950 . S
C2657 C2674 1.574 . S
C2657 C2676 1.368 . S
C2657 H2681 0.949 . S
H2658 C2662 0.949 . S
C2659 C2660 1.349 . S
C2659 C2661 1.327 . S
C2659 H2682 0.950 . S
C2660 C2659 1.349 . S
C2660 C2672 1.349 . S
C2661 C2659 1.327 . S
C2661 C2677 1.429 . S
C2661 H2683 0.950 . S
C2662 H2658 0.949 . S
C2662 C2670 1.574 . S
C2662 C2678 1.368 . S
H2663 C2671 0.950 . S
H2664 C2669 0.950 . S
H2665 C2670 0.949 . S
H2666 C2672 0.950 . S
H2667 C2673 0.950 . S
H2668 C2674 0.949 . S
C2669 H2664 0.950 . S
C2669 C2671 1.327 . S
C2669 C2675 1.429 . S
C2670 C2662 1.574 . S
C2670 H2665 0.949 . S
C2670 C2676 1.368 . S
C2671 C2655 1.349 . S
C2671 H2663 0.950 . S
C2671 C2669 1.327 . S
C2672 C2660 1.349 . S
C2672 H2666 0.950 . S
C2672 C2673 1.327 . S
C2673 H2667 0.950 . S
C2673 C2672 1.327 . S
C2673 C2677 1.429 . S
C2674 C2657 1.574 . S
C2674 H2668 0.949 . S
C2674 C2678 1.368 . S
C2675 C2656 1.429 . S
C2675 C2669 1.429 . S
C2675 C2676 1.523 . S
C2676 C2657 1.368 . S
C2676 C2670 1.368 . S
C2676 C2675 1.523 . S
C2677 C2661 1.429 . S
C2677 C2673 1.429 . S
C2677 C2678 1.523 . S
C2678 C2662 1.368 . S
C2678 C2674 1.368 . S
C2678 C2677 1.523 . S
H2679 C2654 0.950 . S
H2680 C2656 0.950 . S
H2681 C2657 0.949 . S
H2682 C2659 0.950 . S
H2683 C2661 0.950 . S
C2684 C2685 1.349 . S
C2684 C2686 1.327 . S
C2684 H2709 0.950 . S
C2685 C2684 1.349 . S
C2685 C2701 1.349 . S
C2686 C2684 1.327 . S
C2686 C2705 1.429 . S
C2686 H2710 0.950 . S
C2687 C2704 1.574 . S
C2687 C2706 1.368 . S
C2687 H2711 0.949 . S
H2688 C2692 0.949 . S
C2689 C2690 1.349 . S
C2689 C2691 1.327 . S
C2689 H2712 0.950 . S
C2690 C2689 1.349 . S
C2690 C2702 1.349 . S
C2691 C2689 1.327 . S
C2691 C2707 1.429 . S
C2691 H2713 0.950 . S
C2692 H2688 0.949 . S
C2692 C2700 1.574 . S
C2692 C2708 1.368 . S
H2693 C2701 0.950 . S
H2694 C2699 0.950 . S
H2695 C2700 0.949 . S
H2696 C2702 0.950 . S
H2697 C2703 0.950 . S
H2698 C2704 0.949 . S
C2699 H2694 0.950 . S
C2699 C2701 1.327 . S
C2699 C2705 1.429 . S
C2700 C2692 1.574 . S
C2700 H2695 0.949 . S
C2700 C2706 1.368 . S
C2701 C2685 1.349 . S
C2701 H2693 0.950 . S
C2701 C2699 1.327 . S
C2702 C2690 1.349 . S
C2702 H2696 0.950 . S
C2702 C2703 1.327 . S
C2703 H2697 0.950 . S
C2703 C2702 1.327 . S
C2703 C2707 1.429 . S
C2704 C2687 1.574 . S
C2704 H2698 0.949 . S
C2704 C2708 1.368 . S
C2705 C2686 1.429 . S
C2705 C2699 1.429 . S
C2705 C2706 1.523 . S
C2706 C2687 1.368 . S
C2706 C2700 1.368 . S
C2706 C2705 1.523 . S
C2707 C2691 1.429 . S
C2707 C2703 1.429 . S
C2707 C2708 1.523 . S
C2708 C2692 1.368 . S
C2708 C2704 1.368 . S
C2708 C2707 1.523 . S
H2709 C2684 0.950 . S
H2710 C2686 0.950 . S
H2711 C2687 0.949 . S
H2712 C2689 0.950 . S
H2713 C2691 0.950 . S
C2714 C2715 1.349 . S
C2714 C2716 1.327 . S
C2714 H2739 0.950 . S
C2715 C2714 1.349 . S
C2715 C2731 1.349 . S
C2716 C2714 1.327 . S
C2716 C2735 1.429 . S
C2716 H2740 0.950 . S
C2717 C2734 1.574 . S
C2717 C2736 1.368 . S
C2717 H2741 0.949 . S
H2718 C2722 0.949 . S
C2719 C2720 1.349 . S
C2719 C2721 1.327 . S
C2719 H2742 0.950 . S
C2720 C2719 1.349 . S
C2720 C2732 1.349 . S
C2721 C2719 1.327 . S
C2721 C2737 1.429 . S
C2721 H2743 0.950 . S
C2722 H2718 0.949 . S
C2722 C2730 1.574 . S
C2722 C2738 1.368 . S
H2723 C2731 0.950 . S
H2724 C2729 0.950 . S
H2725 C2730 0.949 . S
H2726 C2732 0.950 . S
H2727 C2733 0.950 . S
H2728 C2734 0.949 . S
C2729 H2724 0.950 . S
C2729 C2731 1.327 . S
C2729 C2735 1.429 . S
C2730 C2722 1.574 . S
C2730 H2725 0.949 . S
C2730 C2736 1.368 . S
C2731 C2715 1.349 . S
C2731 H2723 0.950 . S
C2731 C2729 1.327 . S
C2732 C2720 1.349 . S
C2732 H2726 0.950 . S
C2732 C2733 1.327 . S
C2733 H2727 0.950 . S
C2733 C2732 1.327 . S
C2733 C2737 1.429 . S
C2734 C2717 1.574 . S
C2734 H2728 0.949 . S
C2734 C2738 1.368 . S
C2735 C2716 1.429 . S
C2735 C2729 1.429 . S
C2735 C2736 1.523 . S
C2736 C2717 1.368 . S
C2736 C2730 1.368 . S
C2736 C2735 1.523 . S
C2737 C2721 1.429 . S
C2737 C2733 1.429 . S
C2737 C2738 1.523 . S
C2738 C2722 1.368 . S
C2738 C2734 1.368 . S
C2738 C2737 1.523 . S
H2739 C2714 0.950 . S
H2740 C2716 0.950 . S
H2741 C2717 0.949 . S
H2742 C2719 0.950 . S
H2743 C2721 0.950 . S
C2744 C2745 1.349 . S
C2744 C2746 1.327 . S
C2744 H2769 0.950 . S
C2745 C2744 1.349 . S
C2745 C2761 1.349 . S
C2746 C2744 1.327 . S
C2746 C2765 1.429 . S
C2746 H2770 0.950 . S
C2747 C2764 1.574 . S
C2747 C2766 1.368 . S
C2747 H2771 0.949 . S
H2748 C2752 0.949 . S
C2749 C2750 1.349 . S
C2749 C2751 1.327 . S
C2749 H2772 0.950 . S
C2750 C2749 1.349 . S
C2750 C2762 1.349 . S
C2751 C2749 1.327 . S
C2751 C2767 1.429 . S
C2751 H2773 0.950 . S
C2752 H2748 0.949 . S
C2752 C2760 1.574 . S
C2752 C2768 1.368 . S
H2753 C2761 0.950 . S
H2754 C2759 0.950 . S
H2755 C2760 0.949 . S
H2756 C2762 0.950 . S
H2757 C2763 0.950 . S
H2758 C2764 0.949 . S
C2759 H2754 0.950 . S
C2759 C2761 1.327 . S
C2759 C2765 1.429 . S
C2760 C2752 1.574 . S
C2760 H2755 0.949 . S
C2760 C2766 1.368 . S
C2761 C2745 1.349 . S
C2761 H2753 0.950 . S
C2761 C2759 1.327 . S
C2762 C2750 1.349 . S
C2762 H2756 0.950 . S
C2762 C2763 1.327 . S
C2763 H2757 0.950 . S
C2763 C2762 1.327 . S
C2763 C2767 1.429 . S
C2764 C2747 1.574 . S
C2764 H2758 0.949 . S
C2764 C2768 1.368 . S
C2765 C2746 1.429 . S
C2765 C2759 1.429 . S
C2765 C2766 1.523 . S
C2766 C2747 1.368 . S
C2766 C2760 1.368 . S
C2766 C2765 1.523 . S
C2767 C2751 1.429 . S
C2767 C2763 1.429 . S
C2767 C2768 1.523 . S
C2768 C2752 1.368 . S
C2768 C2764 1.368 . S
C2768 C2767 1.523 . S
H2769 C2744 0.950 . S
H2770 C2746 0.950 . S
H2771 C2747 0.949 . S
H2772 C2749 0.950 . S
H2773 C2751 0.950 . S
C2774 C2775 1.349 . S
C2774 C2776 1.327 . S
C2774 H2799 0.950 . S
C2775 C2774 1.349 . S
C2775 C2791 1.349 . S
C2776 C2774 1.327 . S
C2776 C2795 1.429 . S
C2776 H2800 0.950 . S
C2777 C2794 1.574 . S
C2777 C2796 1.368 . S
C2777 H2801 0.949 . S
H2778 C2782 0.949 . S
C2779 C2780 1.349 . S
C2779 C2781 1.327 . S
C2779 H2802 0.950 . S
C2780 C2779 1.349 . S
C2780 C2792 1.349 . S
C2781 C2779 1.327 . S
C2781 C2797 1.429 . S
C2781 H2803 0.950 . S
C2782 H2778 0.949 . S
C2782 C2790 1.574 . S
C2782 C2798 1.368 . S
H2783 C2791 0.950 . S
H2784 C2789 0.950 . S
H2785 C2790 0.949 . S
H2786 C2792 0.950 . S
H2787 C2793 0.950 . S
H2788 C2794 0.949 . S
C2789 H2784 0.950 . S
C2789 C2791 1.327 . S
C2789 C2795 1.429 . S
C2790 C2782 1.574 . S
C2790 H2785 0.949 . S
C2790 C2796 1.368 . S
C2791 C2775 1.349 . S
C2791 H2783 0.950 . S
C2791 C2789 1.327 . S
C2792 C2780 1.349 . S
C2792 H2786 0.950 . S
C2792 C2793 1.327 . S
C2793 H2787 0.950 . S
C2793 C2792 1.327 . S
C2793 C2797 1.429 . S
C2794 C2777 1.574 . S
C2794 H2788 0.949 . S
C2794 C2798 1.368 . S
C2795 C2776 1.429 . S
C2795 C2789 1.429 . S
C2795 C2796 1.523 . S
C2796 C2777 1.368 . S
C2796 C2790 1.368 . S
C2796 C2795 1.523 . S
C2797 C2781 1.429 . S
C2797 C2793 1.429 . S
C2797 C2798 1.523 . S
C2798 C2782 1.368 . S
C2798 C2794 1.368 . S
C2798 C2797 1.523 . S
H2799 C2774 0.950 . S
H2800 C2776 0.950 . S
H2801 C2777 0.949 . S
H2802 C2779 0.950 . S
H2803 C2781 0.950 . S
C2804 C2805 1.349 . S
C2804 C2806 1.327 . S
C2804 H2829 0.950 . S
C2805 C2804 1.349 . S
C2805 C2821 1.349 . S
C2806 C2804 1.327 . S
C2806 C2825 1.429 . S
C2806 H2830 0.950 . S
C2807 C2824 1.574 . S
C2807 C2826 1.368 . S
C2807 H2831 0.949 . S
H2808 C2812 0.949 . S
C2809 C2810 1.349 . S
C2809 C2811 1.327 . S
C2809 H2832 0.950 . S
C2810 C2809 1.349 . S
C2810 C2822 1.349 . S
C2811 C2809 1.327 . S
C2811 C2827 1.429 . S
C2811 H2833 0.950 . S
C2812 H2808 0.949 . S
C2812 C2820 1.574 . S
C2812 C2828 1.368 . S
H2813 C2821 0.950 . S
H2814 C2819 0.950 . S
H2815 C2820 0.949 . S
H2816 C2822 0.950 . S
H2817 C2823 0.950 . S
H2818 C2824 0.949 . S
C2819 H2814 0.950 . S
C2819 C2821 1.327 . S
C2819 C2825 1.429 . S
C2820 C2812 1.574 . S
C2820 H2815 0.949 . S
C2820 C2826 1.368 . S
C2821 C2805 1.349 . S
C2821 H2813 0.950 . S
C2821 C2819 1.327 . S
C2822 C2810 1.349 . S
C2822 H2816 0.950 . S
C2822 C2823 1.327 . S
C2823 H2817 0.950 . S
C2823 C2822 1.327 . S
C2823 C2827 1.429 . S
C2824 C2807 1.574 . S
C2824 H2818 0.949 . S
C2824 C2828 1.368 . S
C2825 C2806 1.429 . S
C2825 C2819 1.429 . S
C2825 C2826 1.523 . S
C2826 C2807 1.368 . S
C2826 C2820 1.368 . S
C2826 C2825 1.523 . S
C2827 C2811 1.429 . S
C2827 C2823 1.429 . S
C2827 C2828 1.523 . S
C2828 C2812 1.368 . S
C2828 C2824 1.368 . S
C2828 C2827 1.523 . S
H2829 C2804 0.950 . S
H2830 C2806 0.950 . S
H2831 C2807 0.949 . S
H2832 C2809 0.950 . S
H2833 C2811 0.950 . S
C2834 C2835 1.349 . S
C2834 C2836 1.327 . S
C2834 H2859 0.950 . S
C2835 C2834 1.349 . S
C2835 C2851 1.349 . S
C2836 C2834 1.327 . S
C2836 C2855 1.429 . S
C2836 H2860 0.950 . S
C2837 C2854 1.574 . S
C2837 C2856 1.368 . S
C2837 H2861 0.949 . S
H2838 C2842 0.949 . S
C2839 C2840 1.349 . S
C2839 C2841 1.327 . S
C2839 H2862 0.950 . S
C2840 C2839 1.349 . S
C2840 C2852 1.349 . S
C2841 C2839 1.327 . S
C2841 C2857 1.429 . S
C2841 H2863 0.950 . S
C2842 H2838 0.949 . S
C2842 C2850 1.574 . S
C2842 C2858 1.368 . S
H2843 C2851 0.950 . S
H2844 C2849 0.950 . S
H2845 C2850 0.949 . S
H2846 C2852 0.950 . S
H2847 C2853 0.950 . S
H2848 C2854 0.949 . S
C2849 H2844 0.950 . S
C2849 C2851 1.327 . S
C2849 C2855 1.429 . S
C2850 C2842 1.574 . S
C2850 H2845 0.949 . S
C2850 C2856 1.368 . S
C2851 C2835 1.349 . S
C2851 H2843 0.950 . S
C2851 C2849 1.327 . S
C2852 C2840 1.349 . S
C2852 H2846 0.950 . S
C2852 C2853 1.327 . S
C2853 H2847 0.950 . S
C2853 C2852 1.327 . S
C2853 C2857 1.429 . S
C2854 C2837 1.574 . S
C2854 H2848 0.949 . S
C2854 C2858 1.368 . S
C2855 C2836 1.429 . S
C2855 C2849 1.429 . S
C2855 C2856 1.523 . S
C2856 C2837 1.368 . S
C2856 C2850 1.368 . S
C2856 C2855 1.523 . S
C2857 C2841 1.429 . S
C2857 C2853 1.429 . S
C2857 C2858 1.523 . S
C2858 C2842 1.368 . S
C2858 C2854 1.368 . S
C2858 C2857 1.523 . S
H2859 C2834 0.950 . S
H2860 C2836 0.950 . S
H2861 C2837 0.949 . S
H2862 C2839 0.950 . S
H2863 C2841 0.950 . S
C2864 C2865 1.349 . S
C2864 C2866 1.327 . S
C2864 H2889 0.950 . S
C2865 C2864 1.349 . S
C2865 C2881 1.349 . S
C2866 C2864 1.327 . S
C2866 C2885 1.429 . S
C2866 H2890 0.950 . S
C2867 C2884 1.574 . S
C2867 C2886 1.368 . S
C2867 H2891 0.949 . S
H2868 C2872 0.949 . S
C2869 C2870 1.349 . S
C2869 C2871 1.327 . S
C2869 H2892 0.950 . S
C2870 C2869 1.349 . S
C2870 C2882 1.349 . S
C2871 C2869 1.327 . S
C2871 C2887 1.429 . S
C2871 H2893 0.950 . S
C2872 H2868 0.949 . S
C2872 C2880 1.574 . S
C2872 C2888 1.368 . S
H2873 C2881 0.950 . S
H2874 C2879 0.950 . S
H2875 C2880 0.949 . S
H2876 C2882 0.950 . S
H2877 C2883 0.950 . S
H2878 C2884 0.949 . S
C2879 H2874 0.950 . S
C2879 C2881 1.327 . S
C2879 C2885 1.429 . S
C2880 C2872 1.574 . S
C2880 H2875 0.949 . S
C2880 C2886 1.368 . S
C2881 C2865 1.349 . S
C2881 H2873 0.950 . S
C2881 C2879 1.327 . S
C2882 C2870 1.349 . S
C2882 H2876 0.950 . S
C2882 C2883 1.327 . S
C2883 H2877 0.950 . S
C2883 C2882 1.327 . S
C2883 C2887 1.429 . S
C2884 C2867 1.574 . S
C2884 H2878 0.949 . S
C2884 C2888 1.368 . S
C2885 C2866 1.429 . S
C2885 C2879 1.429 . S
C2885 C2886 1.523 . S
C2886 C2867 1.368 . S
C2886 C2880 1.368 . S
C2886 C2885 1.523 . S
C2887 C2871 1.429 . S
C2887 C2883 1.429 . S
C2887 C2888 1.523 . S
C2888 C2872 1.368 . S
C2888 C2884 1.368 . S
C2888 C2887 1.523 . S
H2889 C2864 0.950 . S
H2890 C2866 0.950 . S
H2891 C2867 0.949 . S
H2892 C2869 0.950 . S
H2893 C2871 0.950 . S
C2894 C2895 1.349 . S
C2894 C2896 1.327 . S
C2894 H2919 0.950 . S
C2895 C2894 1.349 . S
C2895 C2911 1.349 . S
C2896 C2894 1.327 . S
C2896 C2915 1.429 . S
C2896 H2920 0.950 . S
C2897 C2914 1.574 . S
C2897 C2916 1.368 . S
C2897 H2921 0.949 . S
H2898 C2902 0.949 . S
C2899 C2900 1.349 . S
C2899 C2901 1.327 . S
C2899 H2922 0.950 . S
C2900 C2899 1.349 . S
C2900 C2912 1.349 . S
C2901 C2899 1.327 . S
C2901 C2917 1.429 . S
C2901 H2923 0.950 . S
C2902 H2898 0.949 . S
C2902 C2910 1.574 . S
C2902 C2918 1.368 . S
H2903 C2911 0.950 . S
H2904 C2909 0.950 . S
H2905 C2910 0.949 . S
H2906 C2912 0.950 . S
H2907 C2913 0.950 . S
H2908 C2914 0.949 . S
C2909 H2904 0.950 . S
C2909 C2911 1.327 . S
C2909 C2915 1.429 . S
C2910 C2902 1.574 . S
C2910 H2905 0.949 . S
C2910 C2916 1.368 . S
C2911 C2895 1.349 . S
C2911 H2903 0.950 . S
C2911 C2909 1.327 . S
C2912 C2900 1.349 . S
C2912 H2906 0.950 . S
C2912 C2913 1.327 . S
C2913 H2907 0.950 . S
C2913 C2912 1.327 . S
C2913 C2917 1.429 . S
C2914 C2897 1.574 . S
C2914 H2908 0.949 . S
C2914 C2918 1.368 . S
C2915 C2896 1.429 . S
C2915 C2909 1.429 . S
C2915 C2916 1.523 . S
C2916 C2897 1.368 . S
C2916 C2910 1.368 . S
C2916 C2915 1.523 . S
C2917 C2901 1.429 . S
C2917 C2913 1.429 . S
C2917 C2918 1.523 . S
C2918 C2902 1.368 . S
C2918 C2914 1.368 . S
C2918 C2917 1.523 . S
H2919 C2894 0.950 . S
H2920 C2896 0.950 . S
H2921 C2897 0.949 . S
H2922 C2899 0.950 . S
H2923 C2901 0.950 . S
C2924 C2925 1.349 . S
C2924 C2926 1.327 . S
C2924 H2949 0.950 . S
C2925 C2924 1.349 . S
C2925 C2941 1.349 . S
C2926 C2924 1.327 . S
C2926 C2945 1.429 . S
C2926 H2950 0.950 . S
C2927 C2944 1.574 . S
C2927 C2946 1.368 . S
C2927 H2951 0.949 . S
H2928 C2932 0.949 . S
C2929 C2930 1.349 . S
C2929 C2931 1.327 . S
C2929 H2952 0.950 . S
C2930 C2929 1.349 . S
C2930 C2942 1.349 . S
C2931 C2929 1.327 . S
C2931 C2947 1.429 . S
C2931 H2953 0.950 . S
C2932 H2928 0.949 . S
C2932 C2940 1.574 . S
C2932 C2948 1.368 . S
H2933 C2941 0.950 . S
H2934 C2939 0.950 . S
H2935 C2940 0.949 . S
H2936 C2942 0.950 . S
H2937 C2943 0.950 . S
H2938 C2944 0.949 . S
C2939 H2934 0.950 . S
C2939 C2941 1.327 . S
C2939 C2945 1.429 . S
C2940 C2932 1.574 . S
C2940 H2935 0.949 . S
C2940 C2946 1.368 . S
C2941 C2925 1.349 . S
C2941 H2933 0.950 . S
C2941 C2939 1.327 . S
C2942 C2930 1.349 . S
C2942 H2936 0.950 . S
C2942 C2943 1.327 . S
C2943 H2937 0.950 . S
C2943 C2942 1.327 . S
C2943 C2947 1.429 . S
C2944 C2927 1.574 . S
C2944 H2938 0.949 . S
C2944 C2948 1.368 . S
C2945 C2926 1.429 . S
C2945 C2939 1.429 . S
C2945 C2946 1.523 . S
C2946 C2927 1.368 . S
C2946 C2940 1.368 . S
C2946 C2945 1.523 . S
C2947 C2931 1.429 . S
C2947 C2943 1.429 . S
C2947 C2948 1.523 . S
C2948 C2932 1.368 . S
C2948 C2944 1.368 . S
C2948 C2947 1.523 . S
H2949 C2924 0.950 . S
H2950 C2926 0.950 . S
H2951 C2927 0.949 . S
H2952 C2929 0.950 . S
H2953 C2931 0.950 . S
C2954 C2955 1.349 . S
C2954 C2956 1.327 . S
C2954 H2979 0.950 . S
C2955 C2954 1.349 . S
C2955 C2971 1.349 . S
C2956 C2954 1.327 . S
C2956 C2975 1.429 . S
C2956 H2980 0.950 . S
C2957 C2974 1.574 . S
C2957 C2976 1.368 . S
C2957 H2981 0.949 . S
H2958 C2962 0.949 . S
C2959 C2960 1.349 . S
C2959 C2961 1.327 . S
C2959 H2982 0.950 . S
C2960 C2959 1.349 . S
C2960 C2972 1.349 . S
C2961 C2959 1.327 . S
C2961 C2977 1.429 . S
C2961 H2983 0.950 . S
C2962 H2958 0.949 . S
C2962 C2970 1.574 . S
C2962 C2978 1.368 . S
H2963 C2971 0.950 . S
H2964 C2969 0.950 . S
H2965 C2970 0.949 . S
H2966 C2972 0.950 . S
H2967 C2973 0.950 . S
H2968 C2974 0.949 . S
C2969 H2964 0.950 . S
C2969 C2971 1.327 . S
C2969 C2975 1.429 . S
C2970 C2962 1.574 . S
C2970 H2965 0.949 . S
C2970 C2976 1.368 . S
C2971 C2955 1.349 . S
C2971 H2963 0.950 . S
C2971 C2969 1.327 . S
C2972 C2960 1.349 . S
C2972 H2966 0.950 . S
C2972 C2973 1.327 . S
C2973 H2967 0.950 . S
C2973 C2972 1.327 . S
C2973 C2977 1.429 . S
C2974 C2957 1.574 . S
C2974 H2968 0.949 . S
C2974 C2978 1.368 . S
C2975 C2956 1.429 . S
C2975 C2969 1.429 . S
C2975 C2976 1.523 . S
C2976 C2957 1.368 . S
C2976 C2970 1.368 . S
C2976 C2975 1.523 . S
C2977 C2961 1.429 . S
C2977 C2973 1.429 . S
C2977 C2978 1.523 . S
C2978 C2962 1.368 . S
C2978 C2974 1.368 . S
C2978 C2977 1.523 . S
H2979 C2954 0.950 . S
H2980 C2956 0.950 . S
H2981 C2957 0.949 . S
H2982 C2959 0.950 . S
H2983 C2961 0.950 . S
C2984 C2985 1.349 . S
C2984 C2986 1.327 . S
C2984 H3009 0.950 . S
C2985 C2984 1.349 . S
C2985 C3001 1.349 . S
C2986 C2984 1.327 . S
C2986 C3005 1.429 . S
C2986 H3010 0.950 . S
C2987 C3004 1.574 . S
C2987 C3006 1.368 . S
C2987 H3011 0.949 . S
H2988 C2992 0.949 . S
C2989 C2990 1.349 . S
C2989 C2991 1.327 . S
C2989 H3012 0.950 . S
C2990 C2989 1.349 . S
C2990 C3002 1.349 . S
C2991 C2989 1.327 . S
C2991 C3007 1.429 . S
C2991 H3013 0.950 . S
C2992 H2988 0.949 . S
C2992 C3000 1.574 . S
C2992 C3008 1.368 . S
H2993 C3001 0.950 . S
H2994 C2999 0.950 . S
H2995 C3000 0.949 . S
H2996 C3002 0.950 . S
H2997 C3003 0.950 . S
H2998 C3004 0.949 . S
C2999 H2994 0.950 . S
C2999 C3001 1.327 . S
C2999 C3005 1.429 . S
C3000 C2992 1.574 . S
C3000 H2995 0.949 . S
C3000 C3006 1.368 . S
C3001 C2985 1.349 . S
C3001 H2993 0.950 . S
C3001 C2999 1.327 . S
C3002 C2990 1.349 . S
C3002 H2996 0.950 . S
C3002 C3003 1.327 . S
C3003 H2997 0.950 . S
C3003 C3002 1.327 . S
C3003 C3007 1.429 . S
C3004 C2987 1.574 . S
C3004 H2998 0.949 . S
C3004 C3008 1.368 . S
C3005 C2986 1.429 . S
C3005 C2999 1.429 . S
C3005 C3006 1.523 . S
C3006 C2987 1.368 . S
C3006 C3000 1.368 . S
C3006 C3005 1.523 . S
C3007 C2991 1.429 . S
C3007 C3003 1.429 . S
C3007 C3008 1.523 . S
C3008 C2992 1.368 . S
C3008 C3004 1.368 . S
C3008 C3007 1.523 . S
H3009 C2984 0.950 . S
H3010 C2986 0.950 . S
H3011 C2987 0.949 . S
H3012 C2989 0.950 . S
H3013 C2991 0.950 . S
C3014 C3015 1.349 . S
C3014 C3016 1.327 . S
C3014 H3039 0.950 . S
C3015 C3014 1.349 . S
C3015 C3031 1.349 . S
C3016 C3014 1.327 . S
C3016 C3035 1.429 . S
C3016 H3040 0.950 . S
C3017 C3034 1.574 . S
C3017 C3036 1.368 . S
C3017 H3041 0.949 . S
H3018 C3022 0.949 . S
C3019 C3020 1.349 . S
C3019 C3021 1.327 . S
C3019 H3042 0.950 . S
C3020 C3019 1.349 . S
C3020 C3032 1.349 . S
C3021 C3019 1.327 . S
C3021 C3037 1.429 . S
C3021 H3043 0.950 . S
C3022 H3018 0.949 . S
C3022 C3030 1.574 . S
C3022 C3038 1.368 . S
H3023 C3031 0.950 . S
H3024 C3029 0.950 . S
H3025 C3030 0.949 . S
H3026 C3032 0.950 . S
H3027 C3033 0.950 . S
H3028 C3034 0.949 . S
C3029 H3024 0.950 . S
C3029 C3031 1.327 . S
C3029 C3035 1.429 . S
C3030 C3022 1.574 . S
C3030 H3025 0.949 . S
C3030 C3036 1.368 . S
C3031 C3015 1.349 . S
C3031 H3023 0.950 . S
C3031 C3029 1.327 . S
C3032 C3020 1.349 . S
C3032 H3026 0.950 . S
C3032 C3033 1.327 . S
C3033 H3027 0.950 . S
C3033 C3032 1.327 . S
C3033 C3037 1.429 . S
C3034 C3017 1.574 . S
C3034 H3028 0.949 . S
C3034 C3038 1.368 . S
C3035 C3016 1.429 . S
C3035 C3029 1.429 . S
C3035 C3036 1.523 . S
C3036 C3017 1.368 . S
C3036 C3030 1.368 . S
C3036 C3035 1.523 . S
C3037 C3021 1.429 . S
C3037 C3033 1.429 . S
C3037 C3038 1.523 . S
C3038 C3022 1.368 . S
C3038 C3034 1.368 . S
C3038 C3037 1.523 . S
H3039 C3014 0.950 . S
H3040 C3016 0.950 . S
H3041 C3017 0.949 . S
H3042 C3019 0.950 . S
H3043 C3021 0.950 . S
C3044 C3045 1.349 . S
C3044 C3046 1.327 . S
C3044 H3069 0.950 . S
C3045 C3044 1.349 . S
C3045 C3061 1.349 . S
C3046 C3044 1.327 . S
C3046 C3065 1.429 . S
C3046 H3070 0.950 . S
C3047 C3064 1.574 . S
C3047 C3066 1.368 . S
C3047 H3071 0.949 . S
H3048 C3052 0.949 . S
C3049 C3050 1.349 . S
C3049 C3051 1.327 . S
C3049 H3072 0.950 . S
C3050 C3049 1.349 . S
C3050 C3062 1.349 . S
C3051 C3049 1.327 . S
C3051 C3067 1.429 . S
C3051 H3073 0.950 . S
C3052 H3048 0.949 . S
C3052 C3060 1.574 . S
C3052 C3068 1.368 . S
H3053 C3061 0.950 . S
H3054 C3059 0.950 . S
H3055 C3060 0.949 . S
H3056 C3062 0.950 . S
H3057 C3063 0.950 . S
H3058 C3064 0.949 . S
C3059 H3054 0.950 . S
C3059 C3061 1.327 . S
C3059 C3065 1.429 . S
C3060 C3052 1.574 . S
C3060 H3055 0.949 . S
C3060 C3066 1.368 . S
C3061 C3045 1.349 . S
C3061 H3053 0.950 . S
C3061 C3059 1.327 . S
C3062 C3050 1.349 . S
C3062 H3056 0.950 . S
C3062 C3063 1.327 . S
C3063 H3057 0.950 . S
C3063 C3062 1.327 . S
C3063 C3067 1.429 . S
C3064 C3047 1.574 . S
C3064 H3058 0.949 . S
C3064 C3068 1.368 . S
C3065 C3046 1.429 . S
C3065 C3059 1.429 . S
C3065 C3066 1.523 . S
C3066 C3047 1.368 . S
C3066 C3060 1.368 . S
C3066 C3065 1.523 . S
C3067 C3051 1.429 . S
C3067 C3063 1.429 . S
C3067 C3068 1.523 . S
C3068 C3052 1.368 . S
C3068 C3064 1.368 . S
C3068 C3067 1.523 . S
H3069 C3044 0.950 . S
H3070 C3046 0.950 . S
H3071 C3047 0.949 . S
H3072 C3049 0.950 . S
H3073 C3051 0.950 . S
C3074 C3075 1.349 . S
C3074 C3076 1.327 . S
C3074 H3099 0.950 . S
C3075 C3074 1.349 . S
C3075 C3091 1.349 . S
C3076 C3074 1.327 . S
C3076 C3095 1.429 . S
C3076 H3100 0.950 . S
C3077 C3094 1.574 . S
C3077 C3096 1.368 . S
C3077 H3101 0.949 . S
H3078 C3082 0.949 . S
C3079 C3080 1.349 . S
C3079 C3081 1.327 . S
C3079 H3102 0.950 . S
C3080 C3079 1.349 . S
C3080 C3092 1.349 . S
C3081 C3079 1.327 . S
C3081 C3097 1.429 . S
C3081 H3103 0.950 . S
C3082 H3078 0.949 . S
C3082 C3090 1.574 . S
C3082 C3098 1.368 . S
H3083 C3091 0.950 . S
H3084 C3089 0.950 . S
H3085 C3090 0.949 . S
H3086 C3092 0.950 . S
H3087 C3093 0.950 . S
H3088 C3094 0.949 . S
C3089 H3084 0.950 . S
C3089 C3091 1.327 . S
C3089 C3095 1.429 . S
C3090 C3082 1.574 . S
C3090 H3085 0.949 . S
C3090 C3096 1.368 . S
C3091 C3075 1.349 . S
C3091 H3083 0.950 . S
C3091 C3089 1.327 . S
C3092 C3080 1.349 . S
C3092 H3086 0.950 . S
C3092 C3093 1.327 . S
C3093 H3087 0.950 . S
C3093 C3092 1.327 . S
C3093 C3097 1.429 . S
C3094 C3077 1.574 . S
C3094 H3088 0.949 . S
C3094 C3098 1.368 . S
C3095 C3076 1.429 . S
C3095 C3089 1.429 . S
C3095 C3096 1.523 . S
C3096 C3077 1.368 . S
C3096 C3090 1.368 . S
C3096 C3095 1.523 . S
C3097 C3081 1.429 . S
C3097 C3093 1.429 . S
C3097 C3098 1.523 . S
C3098 C3082 1.368 . S
C3098 C3094 1.368 . S
C3098 C3097 1.523 . S
H3099 C3074 0.950 . S
H3100 C3076 0.950 . S
H3101 C3077 0.949 . S
H3102 C3079 0.950 . S
H3103 C3081 0.950 . S
C3104 C3105 1.349 . S
C3104 C3106 1.327 . S
C3104 H3129 0.950 . S
C3105 C3104 1.349 . S
C3105 C3121 1.349 . S
C3106 C3104 1.327 . S
C3106 C3125 1.429 . S
C3106 H3130 0.950 . S
C3107 C3124 1.574 . S
C3107 C3126 1.368 . S
C3107 H3131 0.949 . S
H3108 C3112 0.949 . S
C3109 C3110 1.349 . S
C3109 C3111 1.327 . S
C3109 H3132 0.950 . S
C3110 C3109 1.349 . S
C3110 C3122 1.349 . S
C3111 C3109 1.327 . S
C3111 C3127 1.429 . S
C3111 H3133 0.950 . S
C3112 H3108 0.949 . S
C3112 C3120 1.574 . S
C3112 C3128 1.368 . S
H3113 C3121 0.950 . S
H3114 C3119 0.950 . S
H3115 C3120 0.949 . S
H3116 C3122 0.950 . S
H3117 C3123 0.950 . S
H3118 C3124 0.949 . S
C3119 H3114 0.950 . S
C3119 C3121 1.327 . S
C3119 C3125 1.429 . S
C3120 C3112 1.574 . S
C3120 H3115 0.949 . S
C3120 C3126 1.368 . S
C3121 C3105 1.349 . S
C3121 H3113 0.950 . S
C3121 C3119 1.327 . S
C3122 C3110 1.349 . S
C3122 H3116 0.950 . S
C3122 C3123 1.327 . S
C3123 H3117 0.950 . S
C3123 C3122 1.327 . S
C3123 C3127 1.429 . S
C3124 C3107 1.574 . S
C3124 H3118 0.949 . S
C3124 C3128 1.368 . S
C3125 C3106 1.429 . S
C3125 C3119 1.429 . S
C3125 C3126 1.523 . S
C3126 C3107 1.368 . S
C3126 C3120 1.368 . S
C3126 C3125 1.523 . S
C3127 C3111 1.429 . S
C3127 C3123 1.429 . S
C3127 C3128 1.523 . S
C3128 C3112 1.368 . S
C3128 C3124 1.368 . S
C3128 C3127 1.523 . S
H3129 C3104 0.950 . S
H3130 C3106 0.950 . S
H3131 C3107 0.949 . S
H3132 C3109 0.950 . S
H3133 C3111 0.950 . S
C3134 C3135 1.349 . S
C3134 C3136 1.327 . S
C3134 H3159 0.950 . S
C3135 C3134 1.349 . S
C3135 C3151 1.349 . S
C3136 C3134 1.327 . S
C3136 C3155 1.429 . S
C3136 H3160 0.950 . S
C3137 C3154 1.574 . S
C3137 C3156 1.368 . S
C3137 H3161 0.949 . S
H3138 C3142 0.949 . S
C3139 C3140 1.349 . S
C3139 C3141 1.327 . S
C3139 H3162 0.950 . S
C3140 C3139 1.349 . S
C3140 C3152 1.349 . S
C3141 C3139 1.327 . S
C3141 C3157 1.429 . S
C3141 H3163 0.950 . S
C3142 H3138 0.949 . S
C3142 C3150 1.574 . S
C3142 C3158 1.368 . S
H3143 C3151 0.950 . S
H3144 C3149 0.950 . S
H3145 C3150 0.949 . S
H3146 C3152 0.950 . S
H3147 C3153 0.950 . S
H3148 C3154 0.949 . S
C3149 H3144 0.950 . S
C3149 C3151 1.327 . S
C3149 C3155 1.429 . S
C3150 C3142 1.574 . S
C3150 H3145 0.949 . S
C3150 C3156 1.368 . S
C3151 C3135 1.349 . S
C3151 H3143 0.950 . S
C3151 C3149 1.327 . S
C3152 C3140 1.349 . S
C3152 H3146 0.950 . S
C3152 C3153 1.327 . S
C3153 H3147 0.950 . S
C3153 C3152 1.327 . S
C3153 C3157 1.429 . S
C3154 C3137 1.574 . S
C3154 H3148 0.949 . S
C3154 C3158 1.368 . S
C3155 C3136 1.429 . S
C3155 C3149 1.429 . S
C3155 C3156 1.523 . S
C3156 C3137 1.368 . S
C3156 C3150 1.368 . S
C3156 C3155 1.523 . S
C3157 C3141 1.429 . S
C3157 C3153 1.429 . S
C3157 C3158 1.523 . S
C3158 C3142 1.368 . S
C3158 C3154 1.368 . S
C3158 C3157 1.523 . S
H3159 C3134 0.950 . S
H3160 C3136 0.950 . S
H3161 C3137 0.949 . S
H3162 C3139 0.950 . S
H3163 C3141 0.950 . S
C3164 C3165 1.349 . S
C3164 C3166 1.327 . S
C3164 H3189 0.950 . S
C3165 C3164 1.349 . S
C3165 C3181 1.349 . S
C3166 C3164 1.327 . S
C3166 C3185 1.429 . S
C3166 H3190 0.950 . S
C3167 C3184 1.574 . S
C3167 C3186 1.368 . S
C3167 H3191 0.949 . S
H3168 C3172 0.949 . S
C3169 C3170 1.349 . S
C3169 C3171 1.327 . S
C3169 H3192 0.950 . S
C3170 C3169 1.349 . S
C3170 C3182 1.349 . S
C3171 C3169 1.327 . S
C3171 C3187 1.429 . S
C3171 H3193 0.950 . S
C3172 H3168 0.949 . S
C3172 C3180 1.574 . S
C3172 C3188 1.368 . S
H3173 C3181 0.950 . S
H3174 C3179 0.950 . S
H3175 C3180 0.949 . S
H3176 C3182 0.950 . S
H3177 C3183 0.950 . S
H3178 C3184 0.949 . S
C3179 H3174 0.950 . S
C3179 C3181 1.327 . S
C3179 C3185 1.429 . S
C3180 C3172 1.574 . S
C3180 H3175 0.949 . S
C3180 C3186 1.368 . S
C3181 C3165 1.349 . S
C3181 H3173 0.950 . S
C3181 C3179 1.327 . S
C3182 C3170 1.349 . S
C3182 H3176 0.950 . S
C3182 C3183 1.327 . S
C3183 H3177 0.950 . S
C3183 C3182 1.327 . S
C3183 C3187 1.429 . S
C3184 C3167 1.574 . S
C3184 H3178 0.949 . S
C3184 C3188 1.368 . S
C3185 C3166 1.429 . S
C3185 C3179 1.429 . S
C3185 C3186 1.523 . S
C3186 C3167 1.368 . S
C3186 C3180 1.368 . S
C3186 C3185 1.523 . S
C3187 C3171 1.429 . S
C3187 C3183 1.429 . S
C3187 C3188 1.523 . S
C3188 C3172 1.368 . S
C3188 C3184 1.368 . S
C3188 C3187 1.523 . S
H3189 C3164 0.950 . S
H3190 C3166 0.950 . S
H3191 C3167 0.949 . S
H3192 C3169 0.950 . S
H3193 C3171 0.950 . S
C3194 C3195 1.349 . S
C3194 C3196 1.327 . S
C3194 H3219 0.950 . S
C3195 C3194 1.349 . S
C3195 C3211 1.349 . S
C3196 C3194 1.327 . S
C3196 C3215 1.429 . S
C3196 H3220 0.950 . S
C3197 C3214 1.574 . S
C3197 C3216 1.368 . S
C3197 H3221 0.949 . S
H3198 C3202 0.949 . S
C3199 C3200 1.349 . S
C3199 C3201 1.327 . S
C3199 H3222 0.950 . S
C3200 C3199 1.349 . S
C3200 C3212 1.349 . S
C3201 C3199 1.327 . S
C3201 C3217 1.429 . S
C3201 H3223 0.950 . S
C3202 H3198 0.949 . S
C3202 C3210 1.574 . S
C3202 C3218 1.368 . S
H3203 C3211 0.950 . S
H3204 C3209 0.950 . S
H3205 C3210 0.949 . S
H3206 C3212 0.950 . S
H3207 C3213 0.950 . S
H3208 C3214 0.949 . S
C3209 H3204 0.950 . S
C3209 C3211 1.327 . S
C3209 C3215 1.429 . S
C3210 C3202 1.574 . S
C3210 H3205 0.949 . S
C3210 C3216 1.368 . S
C3211 C3195 1.349 . S
C3211 H3203 0.950 . S
C3211 C3209 1.327 . S
C3212 C3200 1.349 . S
C3212 H3206 0.950 . S
C3212 C3213 1.327 . S
C3213 H3207 0.950 . S
C3213 C3212 1.327 . S
C3213 C3217 1.429 . S
C3214 C3197 1.574 . S
C3214 H3208 0.949 . S
C3214 C3218 1.368 . S
C3215 C3196 1.429 . S
C3215 C3209 1.429 . S
C3215 C3216 1.523 . S
C3216 C3197 1.368 . S
C3216 C3210 1.368 . S
C3216 C3215 1.523 . S
C3217 C3201 1.429 . S
C3217 C3213 1.429 . S
C3217 C3218 1.523 . S
C3218 C3202 1.368 . S
C3218 C3214 1.368 . S
C3218 C3217 1.523 . S
H3219 C3194 0.950 . S
H3220 C3196 0.950 . S
H3221 C3197 0.949 . S
H3222 C3199 0.950 . S
H3223 C3201 0.950 . S
C3224 C3225 1.349 . S
C3224 C3226 1.327 . S
C3224 H3249 0.950 . S
C3225 C3224 1.349 . S
C3225 C3241 1.349 . S
C3226 C3224 1.327 . S
C3226 C3245 1.429 . S
C3226 H3250 0.950 . S
C3227 C3244 1.574 . S
C3227 C3246 1.368 . S
C3227 H3251 0.949 . S
H3228 C3232 0.949 . S
C3229 C3230 1.349 . S
C3229 C3231 1.327 . S
C3229 H3252 0.950 . S
C3230 C3229 1.349 . S
C3230 C3242 1.349 . S
C3231 C3229 1.327 . S
C3231 C3247 1.429 . S
C3231 H3253 0.950 . S
C3232 H3228 0.949 . S
C3232 C3240 1.574 . S
C3232 C3248 1.368 . S
H3233 C3241 0.950 . S
H3234 C3239 0.950 . S
H3235 C3240 0.949 . S
H3236 C3242 0.950 . S
H3237 C3243 0.950 . S
H3238 C3244 0.949 . S
C3239 H3234 0.950 . S
C3239 C3241 1.327 . S
C3239 C3245 1.429 . S
C3240 C3232 1.574 . S
C3240 H3235 0.949 . S
C3240 C3246 1.368 . S
C3241 C3225 1.349 . S
C3241 H3233 0.950 . S
C3241 C3239 1.327 . S
C3242 C3230 1.349 . S
C3242 H3236 0.950 . S
C3242 C3243 1.327 . S
C3243 H3237 0.950 . S
C3243 C3242 1.327 . S
C3243 C3247 1.429 . S
C3244 C3227 1.574 . S
C3244 H3238 0.949 . S
C3244 C3248 1.368 . S
C3245 C3226 1.429 . S
C3245 C3239 1.429 . S
C3245 C3246 1.523 . S
C3246 C3227 1.368 . S
C3246 C3240 1.368 . S
C3246 C3245 1.523 . S
C3247 C3231 1.429 . S
C3247 C3243 1.429 . S
C3247 C3248 1.523 . S
C3248 C3232 1.368 . S
C3248 C3244 1.368 . S
C3248 C3247 1.523 . S
H3249 C3224 0.950 . S
H3250 C3226 0.950 . S
H3251 C3227 0.949 . S
H3252 C3229 0.950 . S
H3253 C3231 0.950 . S
C3254 C3255 1.349 . S
C3254 C3256 1.327 . S
C3254 H3279 0.950 . S
C3255 C3254 1.349 . S
C3255 C3271 1.349 . S
C3256 C3254 1.327 . S
C3256 C3275 1.429 . S
C3256 H3280 0.950 . S
C3257 C3274 1.574 . S
C3257 C3276 1.368 . S
C3257 H3281 0.949 . S
H3258 C3262 0.949 . S
C3259 C3260 1.349 . S
C3259 C3261 1.327 . S
C3259 H3282 0.950 . S
C3260 C3259 1.349 . S
C3260 C3272 1.349 . S
C3261 C3259 1.327 . S
C3261 C3277 1.429 . S
C3261 H3283 0.950 . S
C3262 H3258 0.949 . S
C3262 C3270 1.574 . S
C3262 C3278 1.368 . S
H3263 C3271 0.950 . S
H3264 C3269 0.950 . S
H3265 C3270 0.949 . S
H3266 C3272 0.950 . S
H3267 C3273 0.950 . S
H3268 C3274 0.949 . S
C3269 H3264 0.950 . S
C3269 C3271 1.327 . S
C3269 C3275 1.429 . S
C3270 C3262 1.574 . S
C3270 H3265 0.949 . S
C3270 C3276 1.368 . S
C3271 C3255 1.349 . S
C3271 H3263 0.950 . S
C3271 C3269 1.327 . S
C3272 C3260 1.349 . S
C3272 H3266 0.950 . S
C3272 C3273 1.327 . S
C3273 H3267 0.950 . S
C3273 C3272 1.327 . S
C3273 C3277 1.429 . S
C3274 C3257 1.574 . S
C3274 H3268 0.949 . S
C3274 C3278 1.368 . S
C3275 C3256 1.429 . S
C3275 C3269 1.429 . S
C3275 C3276 1.523 . S
C3276 C3257 1.368 . S
C3276 C3270 1.368 . S
C3276 C3275 1.523 . S
C3277 C3261 1.429 . S
C3277 C3273 1.429 . S
C3277 C3278 1.523 . S
C3278 C3262 1.368 . S
C3278 C3274 1.368 . S
C3278 C3277 1.523 . S
H3279 C3254 0.950 . S
H3280 C3256 0.950 . S
H3281 C3257 0.949 . S
H3282 C3259 0.950 . S
H3283 C3261 0.950 . S
C3284 C3285 1.349 . S
C3284 C3286 1.327 . S
C3284 H3309 0.950 . S
C3285 C3284 1.349 . S
C3285 C3301 1.349 . S
C3286 C3284 1.327 . S
C3286 C3305 1.429 . S
C3286 H3310 0.950 . S
C3287 C3304 1.574 . S
C3287 C3306 1.368 . S
C3287 H3311 0.949 . S
H3288 C3292 0.949 . S
C3289 C3290 1.349 . S
C3289 C3291 1.327 . S
C3289 H3312 0.950 . S
C3290 C3289 1.349 . S
C3290 C3302 1.349 . S
C3291 C3289 1.327 . S
C3291 C3307 1.429 . S
C3291 H3313 0.950 . S
C3292 H3288 0.949 . S
C3292 C3300 1.574 . S
C3292 C3308 1.368 . S
H3293 C3301 0.950 . S
H3294 C3299 0.950 . S
H3295 C3300 0.949 . S
H3296 C3302 0.950 . S
H3297 C3303 0.950 . S
H3298 C3304 0.949 . S
C3299 H3294 0.950 . S
C3299 C3301 1.327 . S
C3299 C3305 1.429 . S
C3300 C3292 1.574 . S
C3300 H3295 0.949 . S
C3300 C3306 1.368 . S
C3301 C3285 1.349 . S
C3301 H3293 0.950 . S
C3301 C3299 1.327 . S
C3302 C3290 1.349 . S
C3302 H3296 0.950 . S
C3302 C3303 1.327 . S
C3303 H3297 0.950 . S
C3303 C3302 1.327 . S
C3303 C3307 1.429 . S
C3304 C3287 1.574 . S
C3304 H3298 0.949 . S
C3304 C3308 1.368 . S
C3305 C3286 1.429 . S
C3305 C3299 1.429 . S
C3305 C3306 1.523 . S
C3306 C3287 1.368 . S
C3306 C3300 1.368 . S
C3306 C3305 1.523 . S
C3307 C3291 1.429 . S
C3307 C3303 1.429 . S
C3307 C3308 1.523 . S
C3308 C3292 1.368 . S
C3308 C3304 1.368 . S
C3308 C3307 1.523 . S
H3309 C3284 0.950 . S
H3310 C3286 0.950 . S
H3311 C3287 0.949 . S
H3312 C3289 0.950 . S
H3313 C3291 0.950 . S
C3314 C3315 1.349 . S
C3314 C3316 1.327 . S
C3314 H3339 0.950 . S
C3315 C3314 1.349 . S
C3315 C3331 1.349 . S
C3316 C3314 1.327 . S
C3316 C3335 1.429 . S
C3316 H3340 0.950 . S
C3317 C3334 1.574 . S
C3317 C3336 1.368 . S
C3317 H3341 0.949 . S
H3318 C3322 0.949 . S
C3319 C3320 1.349 . S
C3319 C3321 1.327 . S
C3319 H3342 0.950 . S
C3320 C3319 1.349 . S
C3320 C3332 1.349 . S
C3321 C3319 1.327 . S
C3321 C3337 1.429 . S
C3321 H3343 0.950 . S
C3322 H3318 0.949 . S
C3322 C3330 1.574 . S
C3322 C3338 1.368 . S
H3323 C3331 0.950 . S
H3324 C3329 0.950 . S
H3325 C3330 0.949 . S
H3326 C3332 0.950 . S
H3327 C3333 0.950 . S
H3328 C3334 0.949 . S
C3329 H3324 0.950 . S
C3329 C3331 1.327 . S
C3329 C3335 1.429 . S
C3330 C3322 1.574 . S
C3330 H3325 0.949 . S
C3330 C3336 1.368 . S
C3331 C3315 1.349 . S
C3331 H3323 0.950 . S
C3331 C3329 1.327 . S
C3332 C3320 1.349 . S
C3332 H3326 0.950 . S
C3332 C3333 1.327 . S
C3333 H3327 0.950 . S
C3333 C3332 1.327 . S
C3333 C3337 1.429 . S
C3334 C3317 1.574 . S
C3334 H3328 0.949 . S
C3334 C3338 1.368 . S
C3335 C3316 1.429 . S
C3335 C3329 1.429 . S
C3335 C3336 1.523 . S
C3336 C3317 1.368 . S
C3336 C3330 1.368 . S
C3336 C3335 1.523 . S
C3337 C3321 1.429 . S
C3337 C3333 1.429 . S
C3337 C3338 1.523 . S
C3338 C3322 1.368 . S
C3338 C3334 1.368 . S
C3338 C3337 1.523 . S
H3339 C3314 0.950 . S
H3340 C3316 0.950 . S
H3341 C3317 0.949 . S
H3342 C3319 0.950 . S
H3343 C3321 0.950 . S
C3344 C3345 1.349 . S
C3344 C3346 1.327 . S
C3344 H3369 0.950 . S
C3345 C3344 1.349 . S
C3345 C3361 1.349 . S
C3346 C3344 1.327 . S
C3346 C3365 1.429 . S
C3346 H3370 0.950 . S
C3347 C3364 1.574 . S
C3347 C3366 1.368 . S
C3347 H3371 0.949 . S
H3348 C3352 0.949 . S
C3349 C3350 1.349 . S
C3349 C3351 1.327 . S
C3349 H3372 0.950 . S
C3350 C3349 1.349 . S
C3350 C3362 1.349 . S
C3351 C3349 1.327 . S
C3351 C3367 1.429 . S
C3351 H3373 0.950 . S
C3352 H3348 0.949 . S
C3352 C3360 1.574 . S
C3352 C3368 1.368 . S
H3353 C3361 0.950 . S
H3354 C3359 0.950 . S
H3355 C3360 0.949 . S
H3356 C3362 0.950 . S
H3357 C3363 0.950 . S
H3358 C3364 0.949 . S
C3359 H3354 0.950 . S
C3359 C3361 1.327 . S
C3359 C3365 1.429 . S
C3360 C3352 1.574 . S
C3360 H3355 0.949 . S
C3360 C3366 1.368 . S
C3361 C3345 1.349 . S
C3361 H3353 0.950 . S
C3361 C3359 1.327 . S
C3362 C3350 1.349 . S
C3362 H3356 0.950 . S
C3362 C3363 1.327 . S
C3363 H3357 0.950 . S
C3363 C3362 1.327 . S
C3363 C3367 1.429 . S
C3364 C3347 1.574 . S
C3364 H3358 0.949 . S
C3364 C3368 1.368 . S
C3365 C3346 1.429 . S
C3365 C3359 1.429 . S
C3365 C3366 1.523 . S
C3366 C3347 1.368 . S
C3366 C3360 1.368 . S
C3366 C3365 1.523 . S
C3367 C3351 1.429 . S
C3367 C3363 1.429 . S
C3367 C3368 1.523 . S
C3368 C3352 1.368 . S
C3368 C3364 1.368 . S
C3368 C3367 1.523 . S
H3369 C3344 0.950 . S
H3370 C3346 0.950 . S
H3371 C3347 0.949 . S
H3372 C3349 0.950 . S
H3373 C3351 0.950 . S
C3374 C3375 1.349 . S
C3374 C3376 1.327 . S
C3374 H3399 0.950 . S
C3375 C3374 1.349 . S
C3375 C3391 1.349 . S
C3376 C3374 1.327 . S
C3376 C3395 1.429 . S
C3376 H3400 0.950 . S
C3377 C3394 1.574 . S
C3377 C3396 1.368 . S
C3377 H3401 0.949 . S
H3378 C3382 0.949 . S
C3379 C3380 1.349 . S
C3379 C3381 1.327 . S
C3379 H3402 0.950 . S
C3380 C3379 1.349 . S
C3380 C3392 1.349 . S
C3381 C3379 1.327 . S
C3381 C3397 1.429 . S
C3381 H3403 0.950 . S
C3382 H3378 0.949 . S
C3382 C3390 1.574 . S
C3382 C3398 1.368 . S
H3383 C3391 0.950 . S
H3384 C3389 0.950 . S
H3385 C3390 0.949 . S
H3386 C3392 0.950 . S
H3387 C3393 0.950 . S
H3388 C3394 0.949 . S
C3389 H3384 0.950 . S
C3389 C3391 1.327 . S
C3389 C3395 1.429 . S
C3390 C3382 1.574 . S
C3390 H3385 0.949 . S
C3390 C3396 1.368 . S
C3391 C3375 1.349 . S
C3391 H3383 0.950 . S
C3391 C3389 1.327 . S
C3392 C3380 1.349 . S
C3392 H3386 0.950 . S
C3392 C3393 1.327 . S
C3393 H3387 0.950 . S
C3393 C3392 1.327 . S
C3393 C3397 1.429 . S
C3394 C3377 1.574 . S
C3394 H3388 0.949 . S
C3394 C3398 1.368 . S
C3395 C3376 1.429 . S
C3395 C3389 1.429 . S
C3395 C3396 1.523 . S
C3396 C3377 1.368 . S
C3396 C3390 1.368 . S
C3396 C3395 1.523 . S
C3397 C3381 1.429 . S
C3397 C3393 1.429 . S
C3397 C3398 1.523 . S
C3398 C3382 1.368 . S
C3398 C3394 1.368 . S
C3398 C3397 1.523 . S
H3399 C3374 0.950 . S
H3400 C3376 0.950 . S
H3401 C3377 0.949 . S
H3402 C3379 0.950 . S
H3403 C3381 0.950 . S
C3404 C3405 1.349 . S
C3404 C3406 1.327 . S
C3404 H3429 0.950 . S
C3405 C3404 1.349 . S
C3405 C3421 1.349 . S
C3406 C3404 1.327 . S
C3406 C3425 1.429 . S
C3406 H3430 0.950 . S
C3407 C3424 1.574 . S
C3407 C3426 1.368 . S
C3407 H3431 0.949 . S
H3408 C3412 0.949 . S
C3409 C3410 1.349 . S
C3409 C3411 1.327 . S
C3409 H3432 0.950 . S
C3410 C3409 1.349 . S
C3410 C3422 1.349 . S
C3411 C3409 1.327 . S
C3411 C3427 1.429 . S
C3411 H3433 0.950 . S
C3412 H3408 0.949 . S
C3412 C3420 1.574 . S
C3412 C3428 1.368 . S
H3413 C3421 0.950 . S
H3414 C3419 0.950 . S
H3415 C3420 0.949 . S
H3416 C3422 0.950 . S
H3417 C3423 0.950 . S
H3418 C3424 0.949 . S
C3419 H3414 0.950 . S
C3419 C3421 1.327 . S
C3419 C3425 1.429 . S
C3420 C3412 1.574 . S
C3420 H3415 0.949 . S
C3420 C3426 1.368 . S
C3421 C3405 1.349 . S
C3421 H3413 0.950 . S
C3421 C3419 1.327 . S
C3422 C3410 1.349 . S
C3422 H3416 0.950 . S
C3422 C3423 1.327 . S
C3423 H3417 0.950 . S
C3423 C3422 1.327 . S
C3423 C3427 1.429 . S
C3424 C3407 1.574 . S
C3424 H3418 0.949 . S
C3424 C3428 1.368 . S
C3425 C3406 1.429 . S
C3425 C3419 1.429 . S
C3425 C3426 1.523 . S
C3426 C3407 1.368 . S
C3426 C3420 1.368 . S
C3426 C3425 1.523 . S
C3427 C3411 1.429 . S
C3427 C3423 1.429 . S
C3427 C3428 1.523 . S
C3428 C3412 1.368 . S
C3428 C3424 1.368 . S
C3428 C3427 1.523 . S
H3429 C3404 0.950 . S
H3430 C3406 0.950 . S
H3431 C3407 0.949 . S
H3432 C3409 0.950 . S
H3433 C3411 0.950 . S
C3434 C3435 1.349 . S
C3434 C3436 1.327 . S
C3434 H3459 0.950 . S
C3435 C3434 1.349 . S
C3435 C3451 1.349 . S
C3436 C3434 1.327 . S
C3436 C3455 1.429 . S
C3436 H3460 0.950 . S
C3437 C3454 1.574 . S
C3437 C3456 1.368 . S
C3437 H3461 0.949 . S
H3438 C3442 0.949 . S
C3439 C3440 1.349 . S
C3439 C3441 1.327 . S
C3439 H3462 0.950 . S
C3440 C3439 1.349 . S
C3440 C3452 1.349 . S
C3441 C3439 1.327 . S
C3441 C3457 1.429 . S
C3441 H3463 0.950 . S
C3442 H3438 0.949 . S
C3442 C3450 1.574 . S
C3442 C3458 1.368 . S
H3443 C3451 0.950 . S
H3444 C3449 0.950 . S
H3445 C3450 0.949 . S
H3446 C3452 0.950 . S
H3447 C3453 0.950 . S
H3448 C3454 0.949 . S
C3449 H3444 0.950 . S
C3449 C3451 1.327 . S
C3449 C3455 1.429 . S
C3450 C3442 1.574 . S
C3450 H3445 0.949 . S
C3450 C3456 1.368 . S
C3451 C3435 1.349 . S
C3451 H3443 0.950 . S
C3451 C3449 1.327 . S
C3452 C3440 1.349 . S
C3452 H3446 0.950 . S
C3452 C3453 1.327 . S
C3453 H3447 0.950 . S
C3453 C3452 1.327 . S
C3453 C3457 1.429 . S
C3454 C3437 1.574 . S
C3454 H3448 0.949 . S
C3454 C3458 1.368 . S
C3455 C3436 1.429 . S
C3455 C3449 1.429 . S
C3455 C3456 1.523 . S
C3456 C3437 1.368 . S
C3456 C3450 1.368 . S
C3456 C3455 1.523 . S
C3457 C3441 1.429 . S
C3457 C3453 1.429 . S
C3457 C3458 1.523 . S
C3458 C3442 1.368 . S
C3458 C3454 1.368 . S
C3458 C3457 1.523 . S
H3459 C3434 0.950 . S
H3460 C3436 0.950 . S
H3461 C3437 0.949 . S
H3462 C3439 0.950 . S
H3463 C3441 0.950 . S
C3464 C3465 1.349 . S
C3464 C3466 1.327 . S
C3464 H3489 0.950 . S
C3465 C3464 1.349 . S
C3465 C3481 1.349 . S
C3466 C3464 1.327 . S
C3466 C3485 1.429 . S
C3466 H3490 0.950 . S
C3467 C3484 1.574 . S
C3467 C3486 1.368 . S
C3467 H3491 0.949 . S
H3468 C3472 0.949 . S
C3469 C3470 1.349 . S
C3469 C3471 1.327 . S
C3469 H3492 0.950 . S
C3470 C3469 1.349 . S
C3470 C3482 1.349 . S
C3471 C3469 1.327 . S
C3471 C3487 1.429 . S
C3471 H3493 0.950 . S
C3472 H3468 0.949 . S
C3472 C3480 1.574 . S
C3472 C3488 1.368 . S
H3473 C3481 0.950 . S
H3474 C3479 0.950 . S
H3475 C3480 0.949 . S
H3476 C3482 0.950 . S
H3477 C3483 0.950 . S
H3478 C3484 0.949 . S
C3479 H3474 0.950 . S
C3479 C3481 1.327 . S
C3479 C3485 1.429 . S
C3480 C3472 1.574 . S
C3480 H3475 0.949 . S
C3480 C3486 1.368 . S
C3481 C3465 1.349 . S
C3481 H3473 0.950 . S
C3481 C3479 1.327 . S
C3482 C3470 1.349 . S
C3482 H3476 0.950 . S
C3482 C3483 1.327 . S
C3483 H3477 0.950 . S
C3483 C3482 1.327 . S
C3483 C3487 1.429 . S
C3484 C3467 1.574 . S
C3484 H3478 0.949 . S
C3484 C3488 1.368 . S
C3485 C3466 1.429 . S
C3485 C3479 1.429 . S
C3485 C3486 1.523 . S
C3486 C3467 1.368 . S
C3486 C3480 1.368 . S
C3486 C3485 1.523 . S
C3487 C3471 1.429 . S
C3487 C3483 1.429 . S
C3487 C3488 1.523 . S
C3488 C3472 1.368 . S
C3488 C3484 1.368 . S
C3488 C3487 1.523 . S
H3489 C3464 0.950 . S
H3490 C3466 0.950 . S
H3491 C3467 0.949 . S
H3492 C3469 0.950 . S
H3493 C3471 0.950 . S
C3494 C3495 1.349 . S
C3494 C3496 1.327 . S
C3494 H3519 0.950 . S
C3495 C3494 1.349 . S
C3495 C3511 1.349 . S
C3496 C3494 1.327 . S
C3496 C3515 1.429 . S
C3496 H3520 0.950 . S
C3497 C3514 1.574 . S
C3497 C3516 1.368 . S
C3497 H3521 0.949 . S
H3498 C3502 0.949 . S
C3499 C3500 1.349 . S
C3499 C3501 1.327 . S
C3499 H3522 0.950 . S
C3500 C3499 1.349 . S
C3500 C3512 1.349 . S
C3501 C3499 1.327 . S
C3501 C3517 1.429 . S
C3501 H3523 0.950 . S
C3502 H3498 0.949 . S
C3502 C3510 1.574 . S
C3502 C3518 1.368 . S
H3503 C3511 0.950 . S
H3504 C3509 0.950 . S
H3505 C3510 0.949 . S
H3506 C3512 0.950 . S
H3507 C3513 0.950 . S
H3508 C3514 0.949 . S
C3509 H3504 0.950 . S
C3509 C3511 1.327 . S
C3509 C3515 1.429 . S
C3510 C3502 1.574 . S
C3510 H3505 0.949 . S
C3510 C3516 1.368 . S
C3511 C3495 1.349 . S
C3511 H3503 0.950 . S
C3511 C3509 1.327 . S
C3512 C3500 1.349 . S
C3512 H3506 0.950 . S
C3512 C3513 1.327 . S
C3513 H3507 0.950 . S
C3513 C3512 1.327 . S
C3513 C3517 1.429 . S
C3514 C3497 1.574 . S
C3514 H3508 0.949 . S
C3514 C3518 1.368 . S
C3515 C3496 1.429 . S
C3515 C3509 1.429 . S
C3515 C3516 1.523 . S
C3516 C3497 1.368 . S
C3516 C3510 1.368 . S
C3516 C3515 1.523 . S
C3517 C3501 1.429 . S
C3517 C3513 1.429 . S
C3517 C3518 1.523 . S
C3518 C3502 1.368 . S
C3518 C3514 1.368 . S
C3518 C3517 1.523 . S
H3519 C3494 0.950 . S
H3520 C3496 0.950 . S
H3521 C3497 0.949 . S
H3522 C3499 0.950 . S
H3523 C3501 0.950 . S
C3524 C3525 1.349 . S
C3524 C3526 1.327 . S
C3524 H3549 0.950 . S
C3525 C3524 1.349 . S
C3525 C3541 1.349 . S
C3526 C3524 1.327 . S
C3526 C3545 1.429 . S
C3526 H3550 0.950 . S
C3527 C3544 1.574 . S
C3527 C3546 1.368 . S
C3527 H3551 0.949 . S
H3528 C3532 0.949 . S
C3529 C3530 1.349 . S
C3529 C3531 1.327 . S
C3529 H3552 0.950 . S
C3530 C3529 1.349 . S
C3530 C3542 1.349 . S
C3531 C3529 1.327 . S
C3531 C3547 1.429 . S
C3531 H3553 0.950 . S
C3532 H3528 0.949 . S
C3532 C3540 1.574 . S
C3532 C3548 1.368 . S
H3533 C3541 0.950 . S
H3534 C3539 0.950 . S
H3535 C3540 0.949 . S
H3536 C3542 0.950 . S
H3537 C3543 0.950 . S
H3538 C3544 0.949 . S
C3539 H3534 0.950 . S
C3539 C3541 1.327 . S
C3539 C3545 1.429 . S
C3540 C3532 1.574 . S
C3540 H3535 0.949 . S
C3540 C3546 1.368 . S
C3541 C3525 1.349 . S
C3541 H3533 0.950 . S
C3541 C3539 1.327 . S
C3542 C3530 1.349 . S
C3542 H3536 0.950 . S
C3542 C3543 1.327 . S
C3543 H3537 0.950 . S
C3543 C3542 1.327 . S
C3543 C3547 1.429 . S
C3544 C3527 1.574 . S
C3544 H3538 0.949 . S
C3544 C3548 1.368 . S
C3545 C3526 1.429 . S
C3545 C3539 1.429 . S
C3545 C3546 1.523 . S
C3546 C3527 1.368 . S
C3546 C3540 1.368 . S
C3546 C3545 1.523 . S
C3547 C3531 1.429 . S
C3547 C3543 1.429 . S
C3547 C3548 1.523 . S
C3548 C3532 1.368 . S
C3548 C3544 1.368 . S
C3548 C3547 1.523 . S
H3549 C3524 0.950 . S
H3550 C3526 0.950 . S
H3551 C3527 0.949 . S
H3552 C3529 0.950 . S
H3553 C3531 0.950 . S
C3554 C3555 1.349 . S
C3554 C3556 1.327 . S
C3554 H3579 0.950 . S
C3555 C3554 1.349 . S
C3555 C3571 1.349 . S
C3556 C3554 1.327 . S
C3556 C3575 1.429 . S
C3556 H3580 0.950 . S
C3557 C3574 1.574 . S
C3557 C3576 1.368 . S
C3557 H3581 0.949 . S
H3558 C3562 0.949 . S
C3559 C3560 1.349 . S
C3559 C3561 1.327 . S
C3559 H3582 0.950 . S
C3560 C3559 1.349 . S
C3560 C3572 1.349 . S
C3561 C3559 1.327 . S
C3561 C3577 1.429 . S
C3561 H3583 0.950 . S
C3562 H3558 0.949 . S
C3562 C3570 1.574 . S
C3562 C3578 1.368 . S
H3563 C3571 0.950 . S
H3564 C3569 0.950 . S
H3565 C3570 0.949 . S
H3566 C3572 0.950 . S
H3567 C3573 0.950 . S
H3568 C3574 0.949 . S
C3569 H3564 0.950 . S
C3569 C3571 1.327 . S
C3569 C3575 1.429 . S
C3570 C3562 1.574 . S
C3570 H3565 0.949 . S
C3570 C3576 1.368 . S
C3571 C3555 1.349 . S
C3571 H3563 0.950 . S
C3571 C3569 1.327 . S
C3572 C3560 1.349 . S
C3572 H3566 0.950 . S
C3572 C3573 1.327 . S
C3573 H3567 0.950 . S
C3573 C3572 1.327 . S
C3573 C3577 1.429 . S
C3574 C3557 1.574 . S
C3574 H3568 0.949 . S
C3574 C3578 1.368 . S
C3575 C3556 1.429 . S
C3575 C3569 1.429 . S
C3575 C3576 1.523 . S
C3576 C3557 1.368 . S
C3576 C3570 1.368 . S
C3576 C3575 1.523 . S
C3577 C3561 1.429 . S
C3577 C3573 1.429 . S
C3577 C3578 1.523 . S
C3578 C3562 1.368 . S
C3578 C3574 1.368 . S
C3578 C3577 1.523 . S
H3579 C3554 0.950 . S
H3580 C3556 0.950 . S
H3581 C3557 0.949 . S
H3582 C3559 0.950 . S
H3583 C3561 0.950 . S
C3584 C3585 1.349 . S
C3584 C3586 1.327 . S
C3584 H3609 0.950 . S
C3585 C3584 1.349 . S
C3585 C3601 1.349 . S
C3586 C3584 1.327 . S
C3586 C3605 1.429 . S
C3586 H3610 0.950 . S
C3587 C3604 1.574 . S
C3587 C3606 1.368 . S
C3587 H3611 0.949 . S
H3588 C3592 0.949 . S
C3589 C3590 1.349 . S
C3589 C3591 1.327 . S
C3589 H3612 0.950 . S
C3590 C3589 1.349 . S
C3590 C3602 1.349 . S
C3591 C3589 1.327 . S
C3591 C3607 1.429 . S
C3591 H3613 0.950 . S
C3592 H3588 0.949 . S
C3592 C3600 1.574 . S
C3592 C3608 1.368 . S
H3593 C3601 0.950 . S
H3594 C3599 0.950 . S
H3595 C3600 0.949 . S
H3596 C3602 0.950 . S
H3597 C3603 0.950 . S
H3598 C3604 0.949 . S
C3599 H3594 0.950 . S
C3599 C3601 1.327 . S
C3599 C3605 1.429 . S
C3600 C3592 1.574 . S
C3600 H3595 0.949 . S
C3600 C3606 1.368 . S
C3601 C3585 1.349 . S
C3601 H3593 0.950 . S
C3601 C3599 1.327 . S
C3602 C3590 1.349 . S
C3602 H3596 0.950 . S
C3602 C3603 1.327 . S
C3603 H3597 0.950 . S
C3603 C3602 1.327 . S
C3603 C3607 1.429 . S
C3604 C3587 1.574 . S
C3604 H3598 0.949 . S
C3604 C3608 1.368 . S
C3605 C3586 1.429 . S
C3605 C3599 1.429 . S
C3605 C3606 1.523 . S
C3606 C3587 1.368 . S
C3606 C3600 1.368 . S
C3606 C3605 1.523 . S
C3607 C3591 1.429 . S
C3607 C3603 1.429 . S
C3607 C3608 1.523 . S
C3608 C3592 1.368 . S
C3608 C3604 1.368 . S
C3608 C3607 1.523 . S
H3609 C3584 0.950 . S
H3610 C3586 0.950 . S
H3611 C3587 0.949 . S
H3612 C3589 0.950 . S
H3613 C3591 0.950 . S
C3614 C3615 1.349 . S
C3614 C3616 1.327 . S
C3614 H3639 0.950 . S
C3615 C3614 1.349 . S
C3615 C3631 1.349 . S
C3616 C3614 1.327 . S
C3616 C3635 1.429 . S
C3616 H3640 0.950 . S
C3617 C3634 1.574 . S
C3617 C3636 1.368 . S
C3617 H3641 0.949 . S
H3618 C3622 0.949 . S
C3619 C3620 1.349 . S
C3619 C3621 1.327 . S
C3619 H3642 0.950 . S
C3620 C3619 1.349 . S
C3620 C3632 1.349 . S
C3621 C3619 1.327 . S
C3621 C3637 1.429 . S
C3621 H3643 0.950 . S
C3622 H3618 0.949 . S
C3622 C3630 1.574 . S
C3622 C3638 1.368 . S
H3623 C3631 0.950 . S
H3624 C3629 0.950 . S
H3625 C3630 0.949 . S
H3626 C3632 0.950 . S
H3627 C3633 0.950 . S
H3628 C3634 0.949 . S
C3629 H3624 0.950 . S
C3629 C3631 1.327 . S
C3629 C3635 1.429 . S
C3630 C3622 1.574 . S
C3630 H3625 0.949 . S
C3630 C3636 1.368 . S
C3631 C3615 1.349 . S
C3631 H3623 0.950 . S
C3631 C3629 1.327 . S
C3632 C3620 1.349 . S
C3632 H3626 0.950 . S
C3632 C3633 1.327 . S
C3633 H3627 0.950 . S
C3633 C3632 1.327 . S
C3633 C3637 1.429 . S
C3634 C3617 1.574 . S
C3634 H3628 0.949 . S
C3634 C3638 1.368 . S
C3635 C3616 1.429 . S
C3635 C3629 1.429 . S
C3635 C3636 1.523 . S
C3636 C3617 1.368 . S
C3636 C3630 1.368 . S
C3636 C3635 1.523 . S
C3637 C3621 1.429 . S
C3637 C3633 1.429 . S
C3637 C3638 1.523 . S
C3638 C3622 1.368 . S
C3638 C3634 1.368 . S
C3638 C3637 1.523 . S
H3639 C3614 0.950 . S
H3640 C3616 0.950 . S
H3641 C3617 0.949 . S
H3642 C3619 0.950 . S
H3643 C3621 0.950 . S
C3644 C3645 1.349 . S
C3644 C3646 1.327 . S
C3644 H3669 0.950 . S
C3645 C3644 1.349 . S
C3645 C3661 1.349 . S
C3646 C3644 1.327 . S
C3646 C3665 1.429 . S
C3646 H3670 0.950 . S
C3647 C3664 1.574 . S
C3647 C3666 1.368 . S
C3647 H3671 0.949 . S
H3648 C3652 0.949 . S
C3649 C3650 1.349 . S
C3649 C3651 1.327 . S
C3649 H3672 0.950 . S
C3650 C3649 1.349 . S
C3650 C3662 1.349 . S
C3651 C3649 1.327 . S
C3651 C3667 1.429 . S
C3651 H3673 0.950 . S
C3652 H3648 0.949 . S
C3652 C3660 1.574 . S
C3652 C3668 1.368 . S
H3653 C3661 0.950 . S
H3654 C3659 0.950 . S
H3655 C3660 0.949 . S
H3656 C3662 0.950 . S
H3657 C3663 0.950 . S
H3658 C3664 0.949 . S
C3659 H3654 0.950 . S
C3659 C3661 1.327 . S
C3659 C3665 1.429 . S
C3660 C3652 1.574 . S
C3660 H3655 0.949 . S
C3660 C3666 1.368 . S
C3661 C3645 1.349 . S
C3661 H3653 0.950 . S
C3661 C3659 1.327 . S
C3662 C3650 1.349 . S
C3662 H3656 0.950 . S
C3662 C3663 1.327 . S
C3663 H3657 0.950 . S
C3663 C3662 1.327 . S
C3663 C3667 1.429 . S
C3664 C3647 1.574 . S
C3664 H3658 0.949 . S
C3664 C3668 1.368 . S
C3665 C3646 1.429 . S
C3665 C3659 1.429 . S
C3665 C3666 1.523 . S
C3666 C3647 1.368 . S
C3666 C3660 1.368 . S
C3666 C3665 1.523 . S
C3667 C3651 1.429 . S
C3667 C3663 1.429 . S
C3667 C3668 1.523 . S
C3668 C3652 1.368 . S
C3668 C3664 1.368 . S
C3668 C3667 1.523 . S
H3669 C3644 0.950 . S
H3670 C3646 0.950 . S
H3671 C3647 0.949 . S
H3672 C3649 0.950 . S
H3673 C3651 0.950 . S
C3674 C3675 1.349 . S
C3674 C3676 1.327 . S
C3674 H3699 0.950 . S
C3675 C3674 1.349 . S
C3675 C3691 1.349 . S
C3676 C3674 1.327 . S
C3676 C3695 1.429 . S
C3676 H3700 0.950 . S
C3677 C3694 1.574 . S
C3677 C3696 1.368 . S
C3677 H3701 0.949 . S
H3678 C3682 0.949 . S
C3679 C3680 1.349 . S
C3679 C3681 1.327 . S
C3679 H3702 0.950 . S
C3680 C3679 1.349 . S
C3680 C3692 1.349 . S
C3681 C3679 1.327 . S
C3681 C3697 1.429 . S
C3681 H3703 0.950 . S
C3682 H3678 0.949 . S
C3682 C3690 1.574 . S
C3682 C3698 1.368 . S
H3683 C3691 0.950 . S
H3684 C3689 0.950 . S
H3685 C3690 0.949 . S
H3686 C3692 0.950 . S
H3687 C3693 0.950 . S
H3688 C3694 0.949 . S
C3689 H3684 0.950 . S
C3689 C3691 1.327 . S
C3689 C3695 1.429 . S
C3690 C3682 1.574 . S
C3690 H3685 0.949 . S
C3690 C3696 1.368 . S
C3691 C3675 1.349 . S
C3691 H3683 0.950 . S
C3691 C3689 1.327 . S
C3692 C3680 1.349 . S
C3692 H3686 0.950 . S
C3692 C3693 1.327 . S
C3693 H3687 0.950 . S
C3693 C3692 1.327 . S
C3693 C3697 1.429 . S
C3694 C3677 1.574 . S
C3694 H3688 0.949 . S
C3694 C3698 1.368 . S
C3695 C3676 1.429 . S
C3695 C3689 1.429 . S
C3695 C3696 1.523 . S
C3696 C3677 1.368 . S
C3696 C3690 1.368 . S
C3696 C3695 1.523 . S
C3697 C3681 1.429 . S
C3697 C3693 1.429 . S
C3697 C3698 1.523 . S
C3698 C3682 1.368 . S
C3698 C3694 1.368 . S
C3698 C3697 1.523 . S
H3699 C3674 0.950 . S
H3700 C3676 0.950 . S
H3701 C3677 0.949 . S
H3702 C3679 0.950 . S
H3703 C3681 0.950 . S
C3704 C3705 1.349 . S
C3704 C3706 1.327 . S
C3704 H3729 0.950 . S
C3705 C3704 1.349 . S
C3705 C3721 1.349 . S
C3706 C3704 1.327 . S
C3706 C3725 1.429 . S
C3706 H3730 0.950 . S
C3707 C3724 1.574 . S
C3707 C3726 1.368 . S
C3707 H3731 0.949 . S
H3708 C3712 0.949 . S
C3709 C3710 1.349 . S
C3709 C3711 1.327 . S
C3709 H3732 0.950 . S
C3710 C3709 1.349 . S
C3710 C3722 1.349 . S
C3711 C3709 1.327 . S
C3711 C3727 1.429 . S
C3711 H3733 0.950 . S
C3712 H3708 0.949 . S
C3712 C3720 1.574 . S
C3712 C3728 1.368 . S
H3713 C3721 0.950 . S
H3714 C3719 0.950 . S
H3715 C3720 0.949 . S
H3716 C3722 0.950 . S
H3717 C3723 0.950 . S
H3718 C3724 0.949 . S
C3719 H3714 0.950 . S
C3719 C3721 1.327 . S
C3719 C3725 1.429 . S
C3720 C3712 1.574 . S
C3720 H3715 0.949 . S
C3720 C3726 1.368 . S
C3721 C3705 1.349 . S
C3721 H3713 0.950 . S
C3721 C3719 1.327 . S
C3722 C3710 1.349 . S
C3722 H3716 0.950 . S
C3722 C3723 1.327 . S
C3723 H3717 0.950 . S
C3723 C3722 1.327 . S
C3723 C3727 1.429 . S
C3724 C3707 1.574 . S
C3724 H3718 0.949 . S
C3724 C3728 1.368 . S
C3725 C3706 1.429 . S
C3725 C3719 1.429 . S
C3725 C3726 1.523 . S
C3726 C3707 1.368 . S
C3726 C3720 1.368 . S
C3726 C3725 1.523 . S
C3727 C3711 1.429 . S
C3727 C3723 1.429 . S
C3727 C3728 1.523 . S
C3728 C3712 1.368 . S
C3728 C3724 1.368 . S
C3728 C3727 1.523 . S
H3729 C3704 0.950 . S
H3730 C3706 0.950 . S
H3731 C3707 0.949 . S
H3732 C3709 0.950 . S
H3733 C3711 0.950 . S
C3734 C3735 1.349 . S
C3734 C3736 1.327 . S
C3734 H3759 0.950 . S
C3735 C3734 1.349 . S
C3735 C3751 1.349 . S
C3736 C3734 1.327 . S
C3736 C3755 1.429 . S
C3736 H3760 0.950 . S
C3737 C3754 1.574 . S
C3737 C3756 1.368 . S
C3737 H3761 0.949 . S
H3738 C3742 0.949 . S
C3739 C3740 1.349 . S
C3739 C3741 1.327 . S
C3739 H3762 0.950 . S
C3740 C3739 1.349 . S
C3740 C3752 1.349 . S
C3741 C3739 1.327 . S
C3741 C3757 1.429 . S
C3741 H3763 0.950 . S
C3742 H3738 0.949 . S
C3742 C3750 1.574 . S
C3742 C3758 1.368 . S
H3743 C3751 0.950 . S
H3744 C3749 0.950 . S
H3745 C3750 0.949 . S
H3746 C3752 0.950 . S
H3747 C3753 0.950 . S
H3748 C3754 0.949 . S
C3749 H3744 0.950 . S
C3749 C3751 1.327 . S
C3749 C3755 1.429 . S
C3750 C3742 1.574 . S
C3750 H3745 0.949 . S
C3750 C3756 1.368 . S
C3751 C3735 1.349 . S
C3751 H3743 0.950 . S
C3751 C3749 1.327 . S
C3752 C3740 1.349 . S
C3752 H3746 0.950 . S
C3752 C3753 1.327 . S
C3753 H3747 0.950 . S
C3753 C3752 1.327 . S
C3753 C3757 1.429 . S
C3754 C3737 1.574 . S
C3754 H3748 0.949 . S
C3754 C3758 1.368 . S
C3755 C3736 1.429 . S
C3755 C3749 1.429 . S
C3755 C3756 1.523 . S
C3756 C3737 1.368 . S
C3756 C3750 1.368 . S
C3756 C3755 1.523 . S
C3757 C3741 1.429 . S
C3757 C3753 1.429 . S
C3757 C3758 1.523 . S
C3758 C3742 1.368 . S
C3758 C3754 1.368 . S
C3758 C3757 1.523 . S
H3759 C3734 0.950 . S
H3760 C3736 0.950 . S
H3761 C3737 0.949 . S
H3762 C3739 0.950 . S
H3763 C3741 0.950 . S
C3764 C3765 1.349 . S
C3764 C3766 1.327 . S
C3764 H3789 0.950 . S
C3765 C3764 1.349 . S
C3765 C3781 1.349 . S
C3766 C3764 1.327 . S
C3766 C3785 1.429 . S
C3766 H3790 0.950 . S
C3767 C3784 1.574 . S
C3767 C3786 1.368 . S
C3767 H3791 0.949 . S
H3768 C3772 0.949 . S
C3769 C3770 1.349 . S
C3769 C3771 1.327 . S
C3769 H3792 0.950 . S
C3770 C3769 1.349 . S
C3770 C3782 1.349 . S
C3771 C3769 1.327 . S
C3771 C3787 1.429 . S
C3771 H3793 0.950 . S
C3772 H3768 0.949 . S
C3772 C3780 1.574 . S
C3772 C3788 1.368 . S
H3773 C3781 0.950 . S
H3774 C3779 0.950 . S
H3775 C3780 0.949 . S
H3776 C3782 0.950 . S
H3777 C3783 0.950 . S
H3778 C3784 0.949 . S
C3779 H3774 0.950 . S
C3779 C3781 1.327 . S
C3779 C3785 1.429 . S
C3780 C3772 1.574 . S
C3780 H3775 0.949 . S
C3780 C3786 1.368 . S
C3781 C3765 1.349 . S
C3781 H3773 0.950 . S
C3781 C3779 1.327 . S
C3782 C3770 1.349 . S
C3782 H3776 0.950 . S
C3782 C3783 1.327 . S
C3783 H3777 0.950 . S
C3783 C3782 1.327 . S
C3783 C3787 1.429 . S
C3784 C3767 1.574 . S
C3784 H3778 0.949 . S
C3784 C3788 1.368 . S
C3785 C3766 1.429 . S
C3785 C3779 1.429 . S
C3785 C3786 1.523 . S
C3786 C3767 1.368 . S
C3786 C3780 1.368 . S
C3786 C3785 1.523 . S
C3787 C3771 1.429 . S
C3787 C3783 1.429 . S
C3787 C3788 1.523 . S
C3788 C3772 1.368 . S
C3788 C3784 1.368 . S
C3788 C3787 1.523 . S
H3789 C3764 0.950 . S
H3790 C3766 0.950 . S
H3791 C3767 0.949 . S
H3792 C3769 0.950 . S
H3793 C3771 0.950 . S
C3794 C3795 1.349 . S
C3794 C3796 1.327 . S
C3794 H3819 0.950 . S
C3795 C3794 1.349 . S
C3795 C3811 1.349 . S
C3796 C3794 1.327 . S
C3796 C3815 1.429 . S
C3796 H3820 0.950 . S
C3797 C3814 1.574 . S
C3797 C3816 1.368 . S
C3797 H3821 0.949 . S
H3798 C3802 0.949 . S
C3799 C3800 1.349 . S
C3799 C3801 1.327 . S
C3799 H3822 0.950 . S
C3800 C3799 1.349 . S
C3800 C3812 1.349 . S
C3801 C3799 1.327 . S
C3801 C3817 1.429 . S
C3801 H3823 0.950 . S
C3802 H3798 0.949 . S
C3802 C3810 1.574 . S
C3802 C3818 1.368 . S
H3803 C3811 0.950 . S
H3804 C3809 0.950 . S
H3805 C3810 0.949 . S
H3806 C3812 0.950 . S
H3807 C3813 0.950 . S
H3808 C3814 0.949 . S
C3809 H3804 0.950 . S
C3809 C3811 1.327 . S
C3809 C3815 1.429 . S
C3810 C3802 1.574 . S
C3810 H3805 0.949 . S
C3810 C3816 1.368 . S
C3811 C3795 1.349 . S
C3811 H3803 0.950 . S
C3811 C3809 1.327 . S
C3812 C3800 1.349 . S
C3812 H3806 0.950 . S
C3812 C3813 1.327 . S
C3813 H3807 0.950 . S
C3813 C3812 1.327 . S
C3813 C3817 1.429 . S
C3814 C3797 1.574 . S
C3814 H3808 0.949 . S
C3814 C3818 1.368 . S
C3815 C3796 1.429 . S
C3815 C3809 1.429 . S
C3815 C3816 1.523 . S
C3816 C3797 1.368 . S
C3816 C3810 1.368 . S
C3816 C3815 1.523 . S
C3817 C3801 1.429 . S
C3817 C3813 1.429 . S
C3817 C3818 1.523 . S
C3818 C3802 1.368 . S
C3818 C3814 1.368 . S
C3818 C3817 1.523 . S
H3819 C3794 0.950 . S
H3820 C3796 0.950 . S
H3821 C3797 0.949 . S
H3822 C3799 0.950 . S
H3823 C3801 0.950 . S
C3824 C3825 1.349 . S
C3824 C3826 1.327 . S
C3824 H3849 0.950 . S
C3825 C3824 1.349 . S
C3825 C3841 1.349 . S
C3826 C3824 1.327 . S
C3826 C3845 1.429 . S
C3826 H3850 0.950 . S
C3827 C3844 1.574 . S
C3827 C3846 1.368 . S
C3827 H3851 0.949 . S
H3828 C3832 0.949 . S
C3829 C3830 1.349 . S
C3829 C3831 1.327 . S
C3829 H3852 0.950 . S
C3830 C3829 1.349 . S
C3830 C3842 1.349 . S
C3831 C3829 1.327 . S
C3831 C3847 1.429 . S
C3831 H3853 0.950 . S
C3832 H3828 0.949 . S
C3832 C3840 1.574 . S
C3832 C3848 1.368 . S
H3833 C3841 0.950 . S
H3834 C3839 0.950 . S
H3835 C3840 0.949 . S
H3836 C3842 0.950 . S
H3837 C3843 0.950 . S
H3838 C3844 0.949 . S
C3839 H3834 0.950 . S
C3839 C3841 1.327 . S
C3839 C3845 1.429 . S
C3840 C3832 1.574 . S
C3840 H3835 0.949 . S
C3840 C3846 1.368 . S
C3841 C3825 1.349 . S
C3841 H3833 0.950 . S
C3841 C3839 1.327 . S
C3842 C3830 1.349 . S
C3842 H3836 0.950 . S
C3842 C3843 1.327 . S
C3843 H3837 0.950 . S
C3843 C3842 1.327 . S
C3843 C3847 1.429 . S
C3844 C3827 1.574 . S
C3844 H3838 0.949 . S
C3844 C3848 1.368 . S
C3845 C3826 1.429 . S
C3845 C3839 1.429 . S
C3845 C3846 1.523 . S
C3846 C3827 1.368 . S
C3846 C3840 1.368 . S
C3846 C3845 1.523 . S
C3847 C3831 1.429 . S
C3847 C3843 1.429 . S
C3847 C3848 1.523 . S
C3848 C3832 1.368 . S
C3848 C3844 1.368 . S
C3848 C3847 1.523 . S
H3849 C3824 0.950 . S
H3850 C3826 0.950 . S
H3851 C3827 0.949 . S
H3852 C3829 0.950 . S
H3853 C3831 0.950 . S
C3854 C3855 1.349 . S
C3854 C3856 1.327 . S
C3854 H3879 0.950 . S
C3855 C3854 1.349 . S
C3855 C3871 1.349 . S
C3856 C3854 1.327 . S
C3856 C3875 1.429 . S
C3856 H3880 0.950 . S
C3857 C3874 1.574 . S
C3857 C3876 1.368 . S
C3857 H3881 0.949 . S
H3858 C3862 0.949 . S
C3859 C3860 1.349 . S
C3859 C3861 1.327 . S
C3859 H3882 0.950 . S
C3860 C3859 1.349 . S
C3860 C3872 1.349 . S
C3861 C3859 1.327 . S
C3861 C3877 1.429 . S
C3861 H3883 0.950 . S
C3862 H3858 0.949 . S
C3862 C3870 1.574 . S
C3862 C3878 1.368 . S
H3863 C3871 0.950 . S
H3864 C3869 0.950 . S
H3865 C3870 0.949 . S
H3866 C3872 0.950 . S
H3867 C3873 0.950 . S
H3868 C3874 0.949 . S
C3869 H3864 0.950 . S
C3869 C3871 1.327 . S
C3869 C3875 1.429 . S
C3870 C3862 1.574 . S
C3870 H3865 0.949 . S
C3870 C3876 1.368 . S
C3871 C3855 1.349 . S
C3871 H3863 0.950 . S
C3871 C3869 1.327 . S
C3872 C3860 1.349 . S
C3872 H3866 0.950 . S
C3872 C3873 1.327 . S
C3873 H3867 0.950 . S
C3873 C3872 1.327 . S
C3873 C3877 1.429 . S
C3874 C3857 1.574 . S
C3874 H3868 0.949 . S
C3874 C3878 1.368 . S
C3875 C3856 1.429 . S
C3875 C3869 1.429 . S
C3875 C3876 1.523 . S
C3876 C3857 1.368 . S
C3876 C3870 1.368 . S
C3876 C3875 1.523 . S
C3877 C3861 1.429 . S
C3877 C3873 1.429 . S
C3877 C3878 1.523 . S
C3878 C3862 1.368 . S
C3878 C3874 1.368 . S
C3878 C3877 1.523 . S
H3879 C3854 0.950 . S
H3880 C3856 0.950 . S
H3881 C3857 0.949 . S
H3882 C3859 0.950 . S
H3883 C3861 0.950 . S
C3884 C3885 1.349 . S
C3884 C3886 1.327 . S
C3884 H3909 0.950 . S
C3885 C3884 1.349 . S
C3885 C3901 1.349 . S
C3886 C3884 1.327 . S
C3886 C3905 1.429 . S
C3886 H3910 0.950 . S
C3887 C3904 1.574 . S
C3887 C3906 1.368 . S
C3887 H3911 0.949 . S
H3888 C3892 0.949 . S
C3889 C3890 1.349 . S
C3889 C3891 1.327 . S
C3889 H3912 0.950 . S
C3890 C3889 1.349 . S
C3890 C3902 1.349 . S
C3891 C3889 1.327 . S
C3891 C3907 1.429 . S
C3891 H3913 0.950 . S
C3892 H3888 0.949 . S
C3892 C3900 1.574 . S
C3892 C3908 1.368 . S
H3893 C3901 0.950 . S
H3894 C3899 0.950 . S
H3895 C3900 0.949 . S
H3896 C3902 0.950 . S
H3897 C3903 0.950 . S
H3898 C3904 0.949 . S
C3899 H3894 0.950 . S
C3899 C3901 1.327 . S
C3899 C3905 1.429 . S
C3900 C3892 1.574 . S
C3900 H3895 0.949 . S
C3900 C3906 1.368 . S
C3901 C3885 1.349 . S
C3901 H3893 0.950 . S
C3901 C3899 1.327 . S
C3902 C3890 1.349 . S
C3902 H3896 0.950 . S
C3902 C3903 1.327 . S
C3903 H3897 0.950 . S
C3903 C3902 1.327 . S
C3903 C3907 1.429 . S
C3904 C3887 1.574 . S
C3904 H3898 0.949 . S
C3904 C3908 1.368 . S
C3905 C3886 1.429 . S
C3905 C3899 1.429 . S
C3905 C3906 1.523 . S
C3906 C3887 1.368 . S
C3906 C3900 1.368 . S
C3906 C3905 1.523 . S
C3907 C3891 1.429 . S
C3907 C3903 1.429 . S
C3907 C3908 1.523 . S
C3908 C3892 1.368 . S
C3908 C3904 1.368 . S
C3908 C3907 1.523 . S
H3909 C3884 0.950 . S
H3910 C3886 0.950 . S
H3911 C3887 0.949 . S
H3912 C3889 0.950 . S
H3913 C3891 0.950 . S
C3914 C3915 1.349 . S
C3914 C3916 1.327 . S
C3914 H3939 0.950 . S
C3915 C3914 1.349 . S
C3915 C3931 1.349 . S
C3916 C3914 1.327 . S
C3916 C3935 1.429 . S
C3916 H3940 0.950 . S
C3917 C3934 1.574 . S
C3917 C3936 1.368 . S
C3917 H3941 0.949 . S
H3918 C3922 0.949 . S
C3919 C3920 1.349 . S
C3919 C3921 1.327 . S
C3919 H3942 0.950 . S
C3920 C3919 1.349 . S
C3920 C3932 1.349 . S
C3921 C3919 1.327 . S
C3921 C3937 1.429 . S
C3921 H3943 0.950 . S
C3922 H3918 0.949 . S
C3922 C3930 1.574 . S
C3922 C3938 1.368 . S
H3923 C3931 0.950 . S
H3924 C3929 0.950 . S
H3925 C3930 0.949 . S
H3926 C3932 0.950 . S
H3927 C3933 0.950 . S
H3928 C3934 0.949 . S
C3929 H3924 0.950 . S
C3929 C3931 1.327 . S
C3929 C3935 1.429 . S
C3930 C3922 1.574 . S
C3930 H3925 0.949 . S
C3930 C3936 1.368 . S
C3931 C3915 1.349 . S
C3931 H3923 0.950 . S
C3931 C3929 1.327 . S
C3932 C3920 1.349 . S
C3932 H3926 0.950 . S
C3932 C3933 1.327 . S
C3933 H3927 0.950 . S
C3933 C3932 1.327 . S
C3933 C3937 1.429 . S
C3934 C3917 1.574 . S
C3934 H3928 0.949 . S
C3934 C3938 1.368 . S
C3935 C3916 1.429 . S
C3935 C3929 1.429 . S
C3935 C3936 1.523 . S
C3936 C3917 1.368 . S
C3936 C3930 1.368 . S
C3936 C3935 1.523 . S
C3937 C3921 1.429 . S
C3937 C3933 1.429 . S
C3937 C3938 1.523 . S
C3938 C3922 1.368 . S
C3938 C3934 1.368 . S
C3938 C3937 1.523 . S
H3939 C3914 0.950 . S
H3940 C3916 0.950 . S
H3941 C3917 0.949 . S
H3942 C3919 0.950 . S
H3943 C3921 0.950 . S
C3944 C3945 1.349 . S
C3944 C3946 1.327 . S
C3944 H3969 0.950 . S
C3945 C3944 1.349 . S
C3945 C3961 1.349 . S
C3946 C3944 1.327 . S
C3946 C3965 1.429 . S
C3946 H3970 0.950 . S
C3947 C3964 1.574 . S
C3947 C3966 1.368 . S
C3947 H3971 0.949 . S
H3948 C3952 0.949 . S
C3949 C3950 1.349 . S
C3949 C3951 1.327 . S
C3949 H3972 0.950 . S
C3950 C3949 1.349 . S
C3950 C3962 1.349 . S
C3951 C3949 1.327 . S
C3951 C3967 1.429 . S
C3951 H3973 0.950 . S
C3952 H3948 0.949 . S
C3952 C3960 1.574 . S
C3952 C3968 1.368 . S
H3953 C3961 0.950 . S
H3954 C3959 0.950 . S
H3955 C3960 0.949 . S
H3956 C3962 0.950 . S
H3957 C3963 0.950 . S
H3958 C3964 0.949 . S
C3959 H3954 0.950 . S
C3959 C3961 1.327 . S
C3959 C3965 1.429 . S
C3960 C3952 1.574 . S
C3960 H3955 0.949 . S
C3960 C3966 1.368 . S
C3961 C3945 1.349 . S
C3961 H3953 0.950 . S
C3961 C3959 1.327 . S
C3962 C3950 1.349 . S
C3962 H3956 0.950 . S
C3962 C3963 1.327 . S
C3963 H3957 0.950 . S
C3963 C3962 1.327 . S
C3963 C3967 1.429 . S
C3964 C3947 1.574 . S
C3964 H3958 0.949 . S
C3964 C3968 1.368 . S
C3965 C3946 1.429 . S
C3965 C3959 1.429 . S
C3965 C3966 1.523 . S
C3966 C3947 1.368 . S
C3966 C3960 1.368 . S
C3966 C3965 1.523 . S
C3967 C3951 1.429 . S
C3967 C3963 1.429 . S
C3967 C3968 1.523 . S
C3968 C3952 1.368 . S
C3968 C3964 1.368 . S
C3968 C3967 1.523 . S
H3969 C3944 0.950 . S
H3970 C3946 0.950 . S
H3971 C3947 0.949 . S
H3972 C3949 0.950 . S
H3973 C3951 0.950 . S
C3974 C3975 1.349 . S
C3974 C3976 1.327 . S
C3974 H3999 0.950 . S
C3975 C3974 1.349 . S
C3975 C3991 1.349 . S
C3976 C3974 1.327 . S
C3976 C3995 1.429 . S
C3976 H4000 0.950 . S
C3977 C3994 1.574 . S
C3977 C3996 1.368 . S
C3977 H4001 0.949 . S
H3978 C3982 0.949 . S
C3979 C3980 1.349 . S
C3979 C3981 1.327 . S
C3979 H4002 0.950 . S
C3980 C3979 1.349 . S
C3980 C3992 1.349 . S
C3981 C3979 1.327 . S
C3981 C3997 1.429 . S
C3981 H4003 0.950 . S
C3982 H3978 0.949 . S
C3982 C3990 1.574 . S
C3982 C3998 1.368 . S
H3983 C3991 0.950 . S
H3984 C3989 0.950 . S
H3985 C3990 0.949 . S
H3986 C3992 0.950 . S
H3987 C3993 0.950 . S
H3988 C3994 0.949 . S
C3989 H3984 0.950 . S
C3989 C3991 1.327 . S
C3989 C3995 1.429 . S
C3990 C3982 1.574 . S
C3990 H3985 0.949 . S
C3990 C3996 1.368 . S
C3991 C3975 1.349 . S
C3991 H3983 0.950 . S
C3991 C3989 1.327 . S
C3992 C3980 1.349 . S
C3992 H3986 0.950 . S
C3992 C3993 1.327 . S
C3993 H3987 0.950 . S
C3993 C3992 1.327 . S
C3993 C3997 1.429 . S
C3994 C3977 1.574 . S
C3994 H3988 0.949 . S
C3994 C3998 1.368 . S
C3995 C3976 1.429 . S
C3995 C3989 1.429 . S
C3995 C3996 1.523 . S
C3996 C3977 1.368 . S
C3996 C3990 1.368 . S
C3996 C3995 1.523 . S
C3997 C3981 1.429 . S
C3997 C3993 1.429 . S
C3997 C3998 1.523 . S
C3998 C3982 1.368 . S
C3998 C3994 1.368 . S
C3998 C3997 1.523 . S
H3999 C3974 0.950 . S
H4000 C3976 0.950 . S
H4001 C3977 0.949 . S
H4002 C3979 0.950 . S
H4003 C3981 0.950 . S
C4004 C4005 1.349 . S
C4004 C4006 1.327 . S
C4004 H4029 0.950 . S
C4005 C4004 1.349 . S
C4005 C4021 1.349 . S
C4006 C4004 1.327 . S
C4006 C4025 1.429 . S
C4006 H4030 0.950 . S
C4007 C4024 1.574 . S
C4007 C4026 1.368 . S
C4007 H4031 0.949 . S
H4008 C4012 0.949 . S
C4009 C4010 1.349 . S
C4009 C4011 1.327 . S
C4009 H4032 0.950 . S
C4010 C4009 1.349 . S
C4010 C4022 1.349 . S
C4011 C4009 1.327 . S
C4011 C4027 1.429 . S
C4011 H4033 0.950 . S
C4012 H4008 0.949 . S
C4012 C4020 1.574 . S
C4012 C4028 1.368 . S
H4013 C4021 0.950 . S
H4014 C4019 0.950 . S
H4015 C4020 0.949 . S
H4016 C4022 0.950 . S
H4017 C4023 0.950 . S
H4018 C4024 0.949 . S
C4019 H4014 0.950 . S
C4019 C4021 1.327 . S
C4019 C4025 1.429 . S
C4020 C4012 1.574 . S
C4020 H4015 0.949 . S
C4020 C4026 1.368 . S
C4021 C4005 1.349 . S
C4021 H4013 0.950 . S
C4021 C4019 1.327 . S
C4022 C4010 1.349 . S
C4022 H4016 0.950 . S
C4022 C4023 1.327 . S
C4023 H4017 0.950 . S
C4023 C4022 1.327 . S
C4023 C4027 1.429 . S
C4024 C4007 1.574 . S
C4024 H4018 0.949 . S
C4024 C4028 1.368 . S
C4025 C4006 1.429 . S
C4025 C4019 1.429 . S
C4025 C4026 1.523 . S
C4026 C4007 1.368 . S
C4026 C4020 1.368 . S
C4026 C4025 1.523 . S
C4027 C4011 1.429 . S
C4027 C4023 1.429 . S
C4027 C4028 1.523 . S
C4028 C4012 1.368 . S
C4028 C4024 1.368 . S
C4028 C4027 1.523 . S
H4029 C4004 0.950 . S
H4030 C4006 0.950 . S
H4031 C4007 0.949 . S
H4032 C4009 0.950 . S
H4033 C4011 0.950 . S
C4034 C4035 1.349 . S
C4034 C4036 1.327 . S
C4034 H4059 0.950 . S
C4035 C4034 1.349 . S
C4035 C4051 1.349 . S
C4036 C4034 1.327 . S
C4036 C4055 1.429 . S
C4036 H4060 0.950 . S
C4037 C4054 1.574 . S
C4037 C4056 1.368 . S
C4037 H4061 0.949 . S
H4038 C4042 0.949 . S
C4039 C4040 1.349 . S
C4039 C4041 1.327 . S
C4039 H4062 0.950 . S
C4040 C4039 1.349 . S
C4040 C4052 1.349 . S
C4041 C4039 1.327 . S
C4041 C4057 1.429 . S
C4041 H4063 0.950 . S
C4042 H4038 0.949 . S
C4042 C4050 1.574 . S
C4042 C4058 1.368 . S
H4043 C4051 0.950 . S
H4044 C4049 0.950 . S
H4045 C4050 0.949 . S
H4046 C4052 0.950 . S
H4047 C4053 0.950 . S
H4048 C4054 0.949 . S
C4049 H4044 0.950 . S
C4049 C4051 1.327 . S
C4049 C4055 1.429 . S
C4050 C4042 1.574 . S
C4050 H4045 0.949 . S
C4050 C4056 1.368 . S
C4051 C4035 1.349 . S
C4051 H4043 0.950 . S
C4051 C4049 1.327 . S
C4052 C4040 1.349 . S
C4052 H4046 0.950 . S
C4052 C4053 1.327 . S
C4053 H4047 0.950 . S
C4053 C4052 1.327 . S
C4053 C4057 1.429 . S
C4054 C4037 1.574 . S
C4054 H4048 0.949 . S
C4054 C4058 1.368 . S
C4055 C4036 1.429 . S
C4055 C4049 1.429 . S
C4055 C4056 1.523 . S
C4056 C4037 1.368 . S
C4056 C4050 1.368 . S
C4056 C4055 1.523 . S
C4057 C4041 1.429 . S
C4057 C4053 1.429 . S
C4057 C4058 1.523 . S
C4058 C4042 1.368 . S
C4058 C4054 1.368 . S
C4058 C4057 1.523 . S
H4059 C4034 0.950 . S
H4060 C4036 0.950 . S
H4061 C4037 0.949 . S
H4062 C4039 0.950 . S
H4063 C4041 0.950 . S
C4064 C4065 1.349 . S
C4064 C4066 1.327 . S
C4064 H4089 0.950 . S
C4065 C4064 1.349 . S
C4065 C4081 1.349 . S
C4066 C4064 1.327 . S
C4066 C4085 1.429 . S
C4066 H4090 0.950 . S
C4067 C4084 1.574 . S
C4067 C4086 1.368 . S
C4067 H4091 0.949 . S
H4068 C4072 0.949 . S
C4069 C4070 1.349 . S
C4069 C4071 1.327 . S
C4069 H4092 0.950 . S
C4070 C4069 1.349 . S
C4070 C4082 1.349 . S
C4071 C4069 1.327 . S
C4071 C4087 1.429 . S
C4071 H4093 0.950 . S
C4072 H4068 0.949 . S
C4072 C4080 1.574 . S
C4072 C4088 1.368 . S
H4073 C4081 0.950 . S
H4074 C4079 0.950 . S
H4075 C4080 0.949 . S
H4076 C4082 0.950 . S
H4077 C4083 0.950 . S
H4078 C4084 0.949 . S
C4079 H4074 0.950 . S
C4079 C4081 1.327 . S
C4079 C4085 1.429 . S
C4080 C4072 1.574 . S
C4080 H4075 0.949 . S
C4080 C4086 1.368 . S
C4081 C4065 1.349 . S
C4081 H4073 0.950 . S
C4081 C4079 1.327 . S
C4082 C4070 1.349 . S
C4082 H4076 0.950 . S
C4082 C4083 1.327 . S
C4083 H4077 0.950 . S
C4083 C4082 1.327 . S
C4083 C4087 1.429 . S
C4084 C4067 1.574 . S
C4084 H4078 0.949 . S
C4084 C4088 1.368 . S
C4085 C4066 1.429 . S
C4085 C4079 1.429 . S
C4085 C4086 1.523 . S
C4086 C4067 1.368 . S
C4086 C4080 1.368 . S
C4086 C4085 1.523 . S
C4087 C4071 1.429 . S
C4087 C4083 1.429 . S
C4087 C4088 1.523 . S
C4088 C4072 1.368 . S
C4088 C4084 1.368 . S
C4088 C4087 1.523 . S
H4089 C4064 0.950 . S
H4090 C4066 0.950 . S
H4091 C4067 0.949 . S
H4092 C4069 0.950 . S
H4093 C4071 0.950 . S
C4094 C4095 1.349 . S
C4094 C4096 1.327 . S
C4094 H4119 0.950 . S
C4095 C4094 1.349 . S
C4095 C4111 1.349 . S
C4096 C4094 1.327 . S
C4096 C4115 1.429 . S
C4096 H4120 0.950 . S
C4097 C4114 1.574 . S
C4097 C4116 1.368 . S
C4097 H4121 0.949 . S
H4098 C4102 0.949 . S
C4099 C4100 1.349 . S
C4099 C4101 1.327 . S
C4099 H4122 0.950 . S
C4100 C4099 1.349 . S
C4100 C4112 1.349 . S
C4101 C4099 1.327 . S
C4101 C4117 1.429 . S
C4101 H4123 0.950 . S
C4102 H4098 0.949 . S
C4102 C4110 1.574 . S
C4102 C4118 1.368 . S
H4103 C4111 0.950 . S
H4104 C4109 0.950 . S
H4105 C4110 0.949 . S
H4106 C4112 0.950 . S
H4107 C4113 0.950 . S
H4108 C4114 0.949 . S
C4109 H4104 0.950 . S
C4109 C4111 1.327 . S
C4109 C4115 1.429 . S
C4110 C4102 1.574 . S
C4110 H4105 0.949 . S
C4110 C4116 1.368 . S
C4111 C4095 1.349 . S
C4111 H4103 0.950 . S
C4111 C4109 1.327 . S
C4112 C4100 1.349 . S
C4112 H4106 0.950 . S
C4112 C4113 1.327 . S
C4113 H4107 0.950 . S
C4113 C4112 1.327 . S
C4113 C4117 1.429 . S
C4114 C4097 1.574 . S
C4114 H4108 0.949 . S
C4114 C4118 1.368 . S
C4115 C4096 1.429 . S
C4115 C4109 1.429 . S
C4115 C4116 1.523 . S
C4116 C4097 1.368 . S
C4116 C4110 1.368 . S
C4116 C4115 1.523 . S
C4117 C4101 1.429 . S
C4117 C4113 1.429 . S
C4117 C4118 1.523 . S
C4118 C4102 1.368 . S
C4118 C4114 1.368 . S
C4118 C4117 1.523 . S
H4119 C4094 0.950 . S
H4120 C4096 0.950 . S
H4121 C4097 0.949 . S
H4122 C4099 0.950 . S
H4123 C4101 0.950 . S
C4124 C4125 1.349 . S
C4124 C4126 1.327 . S
C4124 H4149 0.950 . S
C4125 C4124 1.349 . S
C4125 C4141 1.349 . S
C4126 C4124 1.327 . S
C4126 C4145 1.429 . S
C4126 H4150 0.950 . S
C4127 C4144 1.574 . S
C4127 C4146 1.368 . S
C4127 H4151 0.949 . S
H4128 C4132 0.949 . S
C4129 C4130 1.349 . S
C4129 C4131 1.327 . S
C4129 H4152 0.950 . S
C4130 C4129 1.349 . S
C4130 C4142 1.349 . S
C4131 C4129 1.327 . S
C4131 C4147 1.429 . S
C4131 H4153 0.950 . S
C4132 H4128 0.949 . S
C4132 C4140 1.574 . S
C4132 C4148 1.368 . S
H4133 C4141 0.950 . S
H4134 C4139 0.950 . S
H4135 C4140 0.949 . S
H4136 C4142 0.950 . S
H4137 C4143 0.950 . S
H4138 C4144 0.949 . S
C4139 H4134 0.950 . S
C4139 C4141 1.327 . S
C4139 C4145 1.429 . S
C4140 C4132 1.574 . S
C4140 H4135 0.949 . S
C4140 C4146 1.368 . S
C4141 C4125 1.349 . S
C4141 H4133 0.950 . S
C4141 C4139 1.327 . S
C4142 C4130 1.349 . S
C4142 H4136 0.950 . S
C4142 C4143 1.327 . S
C4143 H4137 0.950 . S
C4143 C4142 1.327 . S
C4143 C4147 1.429 . S
C4144 C4127 1.574 . S
C4144 H4138 0.949 . S
C4144 C4148 1.368 . S
C4145 C4126 1.429 . S
C4145 C4139 1.429 . S
C4145 C4146 1.523 . S
C4146 C4127 1.368 . S
C4146 C4140 1.368 . S
C4146 C4145 1.523 . S
C4147 C4131 1.429 . S
C4147 C4143 1.429 . S
C4147 C4148 1.523 . S
C4148 C4132 1.368 . S
C4148 C4144 1.368 . S
C4148 C4147 1.523 . S
H4149 C4124 0.950 . S
H4150 C4126 0.950 . S
H4151 C4127 0.949 . S
H4152 C4129 0.950 . S
H4153 C4131 0.950 . S
C4154 C4155 1.349 . S
C4154 C4156 1.327 . S
C4154 H4179 0.950 . S
C4155 C4154 1.349 . S
C4155 C4171 1.349 . S
C4156 C4154 1.327 . S
C4156 C4175 1.429 . S
C4156 H4180 0.950 . S
C4157 C4174 1.574 . S
C4157 C4176 1.368 . S
C4157 H4181 0.949 . S
H4158 C4162 0.949 . S
C4159 C4160 1.349 . S
C4159 C4161 1.327 . S
C4159 H4182 0.950 . S
C4160 C4159 1.349 . S
C4160 C4172 1.349 . S
C4161 C4159 1.327 . S
C4161 C4177 1.429 . S
C4161 H4183 0.950 . S
C4162 H4158 0.949 . S
C4162 C4170 1.574 . S
C4162 C4178 1.368 . S
H4163 C4171 0.950 . S
H4164 C4169 0.950 . S
H4165 C4170 0.949 . S
H4166 C4172 0.950 . S
H4167 C4173 0.950 . S
H4168 C4174 0.949 . S
C4169 H4164 0.950 . S
C4169 C4171 1.327 . S
C4169 C4175 1.429 . S
C4170 C4162 1.574 . S
C4170 H4165 0.949 . S
C4170 C4176 1.368 . S
C4171 C4155 1.349 . S
C4171 H4163 0.950 . S
C4171 C4169 1.327 . S
C4172 C4160 1.349 . S
C4172 H4166 0.950 . S
C4172 C4173 1.327 . S
C4173 H4167 0.950 . S
C4173 C4172 1.327 . S
C4173 C4177 1.429 . S
C4174 C4157 1.574 . S
C4174 H4168 0.949 . S
C4174 C4178 1.368 . S
C4175 C4156 1.429 . S
C4175 C4169 1.429 . S
C4175 C4176 1.523 . S
C4176 C4157 1.368 . S
C4176 C4170 1.368 . S
C4176 C4175 1.523 . S
C4177 C4161 1.429 . S
C4177 C4173 1.429 . S
C4177 C4178 1.523 . S
C4178 C4162 1.368 . S
C4178 C4174 1.368 . S
C4178 C4177 1.523 . S
H4179 C4154 0.950 . S
H4180 C4156 0.950 . S
H4181 C4157 0.949 . S
H4182 C4159 0.950 . S
H4183 C4161 0.950 . S
C4184 C4185 1.349 . S
C4184 C4186 1.327 . S
C4184 H4209 0.950 . S
C4185 C4184 1.349 . S
C4185 C4201 1.349 . S
C4186 C4184 1.327 . S
C4186 C4205 1.429 . S
C4186 H4210 0.950 . S
C4187 C4204 1.574 . S
C4187 C4206 1.368 . S
C4187 H4211 0.949 . S
H4188 C4192 0.949 . S
C4189 C4190 1.349 . S
C4189 C4191 1.327 . S
C4189 H4212 0.950 . S
C4190 C4189 1.349 . S
C4190 C4202 1.349 . S
C4191 C4189 1.327 . S
C4191 C4207 1.429 . S
C4191 H4213 0.950 . S
C4192 H4188 0.949 . S
C4192 C4200 1.574 . S
C4192 C4208 1.368 . S
H4193 C4201 0.950 . S
H4194 C4199 0.950 . S
H4195 C4200 0.949 . S
H4196 C4202 0.950 . S
H4197 C4203 0.950 . S
H4198 C4204 0.949 . S
C4199 H4194 0.950 . S
C4199 C4201 1.327 . S
C4199 C4205 1.429 . S
C4200 C4192 1.574 . S
C4200 H4195 0.949 . S
C4200 C4206 1.368 . S
C4201 C4185 1.349 . S
C4201 H4193 0.950 . S
C4201 C4199 1.327 . S
C4202 C4190 1.349 . S
C4202 H4196 0.950 . S
C4202 C4203 1.327 . S
C4203 H4197 0.950 . S
C4203 C4202 1.327 . S
C4203 C4207 1.429 . S
C4204 C4187 1.574 . S
C4204 H4198 0.949 . S
C4204 C4208 1.368 . S
C4205 C4186 1.429 . S
C4205 C4199 1.429 . S
C4205 C4206 1.523 . S
C4206 C4187 1.368 . S
C4206 C4200 1.368 . S
C4206 C4205 1.523 . S
C4207 C4191 1.429 . S
C4207 C4203 1.429 . S
C4207 C4208 1.523 . S
C4208 C4192 1.368 . S
C4208 C4204 1.368 . S
C4208 C4207 1.523 . S
H4209 C4184 0.950 . S
H4210 C4186 0.950 . S
H4211 C4187 0.949 . S
H4212 C4189 0.950 . S
H4213 C4191 0.950 . S
C4214 C4215 1.349 . S
C4214 C4216 1.327 . S
C4214 H4239 0.950 . S
C4215 C4214 1.349 . S
C4215 C4231 1.349 . S
C4216 C4214 1.327 . S
C4216 C4235 1.429 . S
C4216 H4240 0.950 . S
C4217 C4234 1.574 . S
C4217 C4236 1.368 . S
C4217 H4241 0.949 . S
H4218 C4222 0.949 . S
C4219 C4220 1.349 . S
C4219 C4221 1.327 . S
C4219 H4242 0.950 . S
C4220 C4219 1.349 . S
C4220 C4232 1.349 . S
C4221 C4219 1.327 . S
C4221 C4237 1.429 . S
C4221 H4243 0.950 . S
C4222 H4218 0.949 . S
C4222 C4230 1.574 . S
C4222 C4238 1.368 . S
H4223 C4231 0.950 . S
H4224 C4229 0.950 . S
H4225 C4230 0.949 . S
H4226 C4232 0.950 . S
H4227 C4233 0.950 . S
H4228 C4234 0.949 . S
C4229 H4224 0.950 . S
C4229 C4231 1.327 . S
C4229 C4235 1.429 . S
C4230 C4222 1.574 . S
C4230 H4225 0.949 . S
C4230 C4236 1.368 . S
C4231 C4215 1.349 . S
C4231 H4223 0.950 . S
C4231 C4229 1.327 . S
C4232 C4220 1.349 . S
C4232 H4226 0.950 . S
C4232 C4233 1.327 . S
C4233 H4227 0.950 . S
C4233 C4232 1.327 . S
C4233 C4237 1.429 . S
C4234 C4217 1.574 . S
C4234 H4228 0.949 . S
C4234 C4238 1.368 . S
C4235 C4216 1.429 . S
C4235 C4229 1.429 . S
C4235 C4236 1.523 . S
C4236 C4217 1.368 . S
C4236 C4230 1.368 . S
C4236 C4235 1.523 . S
C4237 C4221 1.429 . S
C4237 C4233 1.429 . S
C4237 C4238 1.523 . S
C4238 C4222 1.368 . S
C4238 C4234 1.368 . S
C4238 C4237 1.523 . S
H4239 C4214 0.950 . S
H4240 C4216 0.950 . S
H4241 C4217 0.949 . S
H4242 C4219 0.950 . S
H4243 C4221 0.950 . S
C4244 C4245 1.349 . S
C4244 C4246 1.327 . S
C4244 H4269 0.950 . S
C4245 C4244 1.349 . S
C4245 C4261 1.349 . S
C4246 C4244 1.327 . S
C4246 C4265 1.429 . S
C4246 H4270 0.950 . S
C4247 C4264 1.574 . S
C4247 C4266 1.368 . S
C4247 H4271 0.949 . S
H4248 C4252 0.949 . S
C4249 C4250 1.349 . S
C4249 C4251 1.327 . S
C4249 H4272 0.950 . S
C4250 C4249 1.349 . S
C4250 C4262 1.349 . S
C4251 C4249 1.327 . S
C4251 C4267 1.429 . S
C4251 H4273 0.950 . S
C4252 H4248 0.949 . S
C4252 C4260 1.574 . S
C4252 C4268 1.368 . S
H4253 C4261 0.950 . S
H4254 C4259 0.950 . S
H4255 C4260 0.949 . S
H4256 C4262 0.950 . S
H4257 C4263 0.950 . S
H4258 C4264 0.949 . S
C4259 H4254 0.950 . S
C4259 C4261 1.327 . S
C4259 C4265 1.429 . S
C4260 C4252 1.574 . S
C4260 H4255 0.949 . S
C4260 C4266 1.368 . S
C4261 C4245 1.349 . S
C4261 H4253 0.950 . S
C4261 C4259 1.327 . S
C4262 C4250 1.349 . S
C4262 H4256 0.950 . S
C4262 C4263 1.327 . S
C4263 H4257 0.950 . S
C4263 C4262 1.327 . S
C4263 C4267 1.429 . S
C4264 C4247 1.574 . S
C4264 H4258 0.949 . S
C4264 C4268 1.368 . S
C4265 C4246 1.429 . S
C4265 C4259 1.429 . S
C4265 C4266 1.523 . S
C4266 C4247 1.368 . S
C4266 C4260 1.368 . S
C4266 C4265 1.523 . S
C4267 C4251 1.429 . S
C4267 C4263 1.429 . S
C4267 C4268 1.523 . S
C4268 C4252 1.368 . S
C4268 C4264 1.368 . S
C4268 C4267 1.523 . S
H4269 C4244 0.950 . S
H4270 C4246 0.950 . S
H4271 C4247 0.949 . S
H4272 C4249 0.950 . S
H4273 C4251 0.950 . S
C4274 C4275 1.349 . S
C4274 C4276 1.327 . S
C4274 H4299 0.950 . S
C4275 C4274 1.349 . S
C4275 C4291 1.349 . S
C4276 C4274 1.327 . S
C4276 C4295 1.429 . S
C4276 H4300 0.950 . S
C4277 C4294 1.574 . S
C4277 C4296 1.368 . S
C4277 H4301 0.949 . S
H4278 C4282 0.949 . S
C4279 C4280 1.349 . S
C4279 C4281 1.327 . S
C4279 H4302 0.950 . S
C4280 C4279 1.349 . S
C4280 C4292 1.349 . S
C4281 C4279 1.327 . S
C4281 C4297 1.429 . S
C4281 H4303 0.950 . S
C4282 H4278 0.949 . S
C4282 C4290 1.574 . S
C4282 C4298 1.368 . S
H4283 C4291 0.950 . S
H4284 C4289 0.950 . S
H4285 C4290 0.949 . S
H4286 C4292 0.950 . S
H4287 C4293 0.950 . S
H4288 C4294 0.949 . S
C4289 H4284 0.950 . S
C4289 C4291 1.327 . S
C4289 C4295 1.429 . S
C4290 C4282 1.574 . S
C4290 H4285 0.949 . S
C4290 C4296 1.368 . S
C4291 C4275 1.349 . S
C4291 H4283 0.950 . S
C4291 C4289 1.327 . S
C4292 C4280 1.349 . S
C4292 H4286 0.950 . S
C4292 C4293 1.327 . S
C4293 H4287 0.950 . S
C4293 C4292 1.327 . S
C4293 C4297 1.429 . S
C4294 C4277 1.574 . S
C4294 H4288 0.949 . S
C4294 C4298 1.368 . S
C4295 C4276 1.429 . S
C4295 C4289 1.429 . S
C4295 C4296 1.523 . S
C4296 C4277 1.368 . S
C4296 C4290 1.368 . S
C4296 C4295 1.523 . S
C4297 C4281 1.429 . S
C4297 C4293 1.429 . S
C4297 C4298 1.523 . S
C4298 C4282 1.368 . S
C4298 C4294 1.368 . S
C4298 C4297 1.523 . S
H4299 C4274 0.950 . S
H4300 C4276 0.950 . S
H4301 C4277 0.949 . S
H4302 C4279 0.950 . S
H4303 C4281 0.950 . S
C4304 C4305 1.349 . S
C4304 C4306 1.327 . S
C4304 H4329 0.950 . S
C4305 C4304 1.349 . S
C4305 C4321 1.349 . S
C4306 C4304 1.327 . S
C4306 C4325 1.429 . S
C4306 H4330 0.950 . S
C4307 C4324 1.574 . S
C4307 C4326 1.368 . S
C4307 H4331 0.949 . S
H4308 C4312 0.949 . S
C4309 C4310 1.349 . S
C4309 C4311 1.327 . S
C4309 H4332 0.950 . S
C4310 C4309 1.349 . S
C4310 C4322 1.349 . S
C4311 C4309 1.327 . S
C4311 C4327 1.429 . S
C4311 H4333 0.950 . S
C4312 H4308 0.949 . S
C4312 C4320 1.574 . S
C4312 C4328 1.368 . S
H4313 C4321 0.950 . S
H4314 C4319 0.950 . S
H4315 C4320 0.949 . S
H4316 C4322 0.950 . S
H4317 C4323 0.950 . S
H4318 C4324 0.949 . S
C4319 H4314 0.950 . S
C4319 C4321 1.327 . S
C4319 C4325 1.429 . S
C4320 C4312 1.574 . S
C4320 H4315 0.949 . S
C4320 C4326 1.368 . S
C4321 C4305 1.349 . S
C4321 H4313 0.950 . S
C4321 C4319 1.327 . S
C4322 C4310 1.349 . S
C4322 H4316 0.950 . S
C4322 C4323 1.327 . S
C4323 H4317 0.950 . S
C4323 C4322 1.327 . S
C4323 C4327 1.429 . S
C4324 C4307 1.574 . S
C4324 H4318 0.949 . S
C4324 C4328 1.368 . S
C4325 C4306 1.429 . S
C4325 C4319 1.429 . S
C4325 C4326 1.523 . S
C4326 C4307 1.368 . S
C4326 C4320 1.368 . S
C4326 C4325 1.523 . S
C4327 C4311 1.429 . S
C4327 C4323 1.429 . S
C4327 C4328 1.523 . S
C4328 C4312 1.368 . S
C4328 C4324 1.368 . S
C4328 C4327 1.523 . S
H4329 C4304 0.950 . S
H4330 C4306 0.950 . S
H4331 C4307 0.949 . S
H4332 C4309 0.950 . S
H4333 C4311 0.950 . S
C4334 C4335 1.349 . S
C4334 C4336 1.327 . S
C4334 H4359 0.950 . S
C4335 C4334 1.349 . S
C4335 C4351 1.349 . S
C4336 C4334 1.327 . S
C4336 C4355 1.429 . S
C4336 H4360 0.950 . S
C4337 C4354 1.574 . S
C4337 C4356 1.368 . S
C4337 H4361 0.949 . S
H4338 C4342 0.949 . S
C4339 C4340 1.349 . S
C4339 C4341 1.327 . S
C4339 H4362 0.950 . S
C4340 C4339 1.349 . S
C4340 C4352 1.349 . S
C4341 C4339 1.327 . S
C4341 C4357 1.429 . S
C4341 H4363 0.950 . S
C4342 H4338 0.949 . S
C4342 C4350 1.574 . S
C4342 C4358 1.368 . S
H4343 C4351 0.950 . S
H4344 C4349 0.950 . S
H4345 C4350 0.949 . S
H4346 C4352 0.950 . S
H4347 C4353 0.950 . S
H4348 C4354 0.949 . S
C4349 H4344 0.950 . S
C4349 C4351 1.327 . S
C4349 C4355 1.429 . S
C4350 C4342 1.574 . S
C4350 H4345 0.949 . S
C4350 C4356 1.368 . S
C4351 C4335 1.349 . S
C4351 H4343 0.950 . S
C4351 C4349 1.327 . S
C4352 C4340 1.349 . S
C4352 H4346 0.950 . S
C4352 C4353 1.327 . S
C4353 H4347 0.950 . S
C4353 C4352 1.327 . S
C4353 C4357 1.429 . S
C4354 C4337 1.574 . S
C4354 H4348 0.949 . S
C4354 C4358 1.368 . S
C4355 C4336 1.429 . S
C4355 C4349 1.429 . S
C4355 C4356 1.523 . S
C4356 C4337 1.368 . S
C4356 C4350 1.368 . S
C4356 C4355 1.523 . S
C4357 C4341 1.429 . S
C4357 C4353 1.429 . S
C4357 C4358 1.523 . S
C4358 C4342 1.368 . S
C4358 C4354 1.368 . S
C4358 C4357 1.523 . S
H4359 C4334 0.950 . S
H4360 C4336 0.950 . S
H4361 C4337 0.949 . S
H4362 C4339 0.950 . S
H4363 C4341 0.950 . S
C4364 C4365 1.349 . S
C4364 C4366 1.327 . S
C4364 H4389 0.950 . S
C4365 C4364 1.349 . S
C4365 C4381 1.349 . S
C4366 C4364 1.327 . S
C4366 C4385 1.429 . S
C4366 H4390 0.950 . S
C4367 C4384 1.574 . S
C4367 C4386 1.368 . S
C4367 H4391 0.949 . S
H4368 C4372 0.949 . S
C4369 C4370 1.349 . S
C4369 C4371 1.327 . S
C4369 H4392 0.950 . S
C4370 C4369 1.349 . S
C4370 C4382 1.349 . S
C4371 C4369 1.327 . S
C4371 C4387 1.429 . S
C4371 H4393 0.950 . S
C4372 H4368 0.949 . S
C4372 C4380 1.574 . S
C4372 C4388 1.368 . S
H4373 C4381 0.950 . S
H4374 C4379 0.950 . S
H4375 C4380 0.949 . S
H4376 C4382 0.950 . S
H4377 C4383 0.950 . S
H4378 C4384 0.949 . S
C4379 H4374 0.950 . S
C4379 C4381 1.327 . S
C4379 C4385 1.429 . S
C4380 C4372 1.574 . S
C4380 H4375 0.949 . S
C4380 C4386 1.368 . S
C4381 C4365 1.349 . S
C4381 H4373 0.950 . S
C4381 C4379 1.327 . S
C4382 C4370 1.349 . S
C4382 H4376 0.950 . S
C4382 C4383 1.327 . S
C4383 H4377 0.950 . S
C4383 C4382 1.327 . S
C4383 C4387 1.429 . S
C4384 C4367 1.574 . S
C4384 H4378 0.949 . S
C4384 C4388 1.368 . S
C4385 C4366 1.429 . S
C4385 C4379 1.429 . S
C4385 C4386 1.523 . S
C4386 C4367 1.368 . S
C4386 C4380 1.368 . S
C4386 C4385 1.523 . S
C4387 C4371 1.429 . S
C4387 C4383 1.429 . S
C4387 C4388 1.523 . S
C4388 C4372 1.368 . S
C4388 C4384 1.368 . S
C4388 C4387 1.523 . S
H4389 C4364 0.950 . S
H4390 C4366 0.950 . S
H4391 C4367 0.949 . S
H4392 C4369 0.950 . S
H4393 C4371 0.950 . S
C4394 C4395 1.349 . S
C4394 C4396 1.327 . S
C4394 H4419 0.950 . S
C4395 C4394 1.349 . S
C4395 C4411 1.349 . S
C4396 C4394 1.327 . S
C4396 C4415 1.429 . S
C4396 H4420 0.950 . S
C4397 C4414 1.574 . S
C4397 C4416 1.368 . S
C4397 H4421 0.949 . S
H4398 C4402 0.949 . S
C4399 C4400 1.349 . S
C4399 C4401 1.327 . S
C4399 H4422 0.950 . S
C4400 C4399 1.349 . S
C4400 C4412 1.349 . S
C4401 C4399 1.327 . S
C4401 C4417 1.429 . S
C4401 H4423 0.950 . S
C4402 H4398 0.949 . S
C4402 C4410 1.574 . S
C4402 C4418 1.368 . S
H4403 C4411 0.950 . S
H4404 C4409 0.950 . S
H4405 C4410 0.949 . S
H4406 C4412 0.950 . S
H4407 C4413 0.950 . S
H4408 C4414 0.949 . S
C4409 H4404 0.950 . S
C4409 C4411 1.327 . S
C4409 C4415 1.429 . S
C4410 C4402 1.574 . S
C4410 H4405 0.949 . S
C4410 C4416 1.368 . S
C4411 C4395 1.349 . S
C4411 H4403 0.950 . S
C4411 C4409 1.327 . S
C4412 C4400 1.349 . S
C4412 H4406 0.950 . S
C4412 C4413 1.327 . S
C4413 H4407 0.950 . S
C4413 C4412 1.327 . S
C4413 C4417 1.429 . S
C4414 C4397 1.574 . S
C4414 H4408 0.949 . S
C4414 C4418 1.368 . S
C4415 C4396 1.429 . S
C4415 C4409 1.429 . S
C4415 C4416 1.523 . S
C4416 C4397 1.368 . S
C4416 C4410 1.368 . S
C4416 C4415 1.523 . S
C4417 C4401 1.429 . S
C4417 C4413 1.429 . S
C4417 C4418 1.523 . S
C4418 C4402 1.368 . S
C4418 C4414 1.368 . S
C4418 C4417 1.523 . S
H4419 C4394 0.950 . S
H4420 C4396 0.950 . S
H4421 C4397 0.949 . S
H4422 C4399 0.950 . S
H4423 C4401 0.950 . S
C4424 C4425 1.349 . S
C4424 C4426 1.327 . S
C4424 H4449 0.950 . S
C4425 C4424 1.349 . S
C4425 C4441 1.349 . S
C4426 C4424 1.327 . S
C4426 C4445 1.429 . S
C4426 H4450 0.950 . S
C4427 C4444 1.574 . S
C4427 C4446 1.368 . S
C4427 H4451 0.949 . S
H4428 C4432 0.949 . S
C4429 C4430 1.349 . S
C4429 C4431 1.327 . S
C4429 H4452 0.950 . S
C4430 C4429 1.349 . S
C4430 C4442 1.349 . S
C4431 C4429 1.327 . S
C4431 C4447 1.429 . S
C4431 H4453 0.950 . S
C4432 H4428 0.949 . S
C4432 C4440 1.574 . S
C4432 C4448 1.368 . S
H4433 C4441 0.950 . S
H4434 C4439 0.950 . S
H4435 C4440 0.949 . S
H4436 C4442 0.950 . S
H4437 C4443 0.950 . S
H4438 C4444 0.949 . S
C4439 H4434 0.950 . S
C4439 C4441 1.327 . S
C4439 C4445 1.429 . S
C4440 C4432 1.574 . S
C4440 H4435 0.949 . S
C4440 C4446 1.368 . S
C4441 C4425 1.349 . S
C4441 H4433 0.950 . S
C4441 C4439 1.327 . S
C4442 C4430 1.349 . S
C4442 H4436 0.950 . S
C4442 C4443 1.327 . S
C4443 H4437 0.950 . S
C4443 C4442 1.327 . S
C4443 C4447 1.429 . S
C4444 C4427 1.574 . S
C4444 H4438 0.949 . S
C4444 C4448 1.368 . S
C4445 C4426 1.429 . S
C4445 C4439 1.429 . S
C4445 C4446 1.523 . S
C4446 C4427 1.368 . S
C4446 C4440 1.368 . S
C4446 C4445 1.523 . S
C4447 C4431 1.429 . S
C4447 C4443 1.429 . S
C4447 C4448 1.523 . S
C4448 C4432 1.368 . S
C4448 C4444 1.368 . S
C4448 C4447 1.523 . S
H4449 C4424 0.950 . S
H4450 C4426 0.950 . S
H4451 C4427 0.949 . S
H4452 C4429 0.950 . S
H4453 C4431 0.950 . S
C4454 C4455 1.349 . S
C4454 C4456 1.327 . S
C4454 H4479 0.950 . S
C4455 C4454 1.349 . S
C4455 C4471 1.349 . S
C4456 C4454 1.327 . S
C4456 C4475 1.429 . S
C4456 H4480 0.950 . S
C4457 C4474 1.574 . S
C4457 C4476 1.368 . S
C4457 H4481 0.949 . S
H4458 C4462 0.949 . S
C4459 C4460 1.349 . S
C4459 C4461 1.327 . S
C4459 H4482 0.950 . S
C4460 C4459 1.349 . S
C4460 C4472 1.349 . S
C4461 C4459 1.327 . S
C4461 C4477 1.429 . S
C4461 H4483 0.950 . S
C4462 H4458 0.949 . S
C4462 C4470 1.574 . S
C4462 C4478 1.368 . S
H4463 C4471 0.950 . S
H4464 C4469 0.950 . S
H4465 C4470 0.949 . S
H4466 C4472 0.950 . S
H4467 C4473 0.950 . S
H4468 C4474 0.949 . S
C4469 H4464 0.950 . S
C4469 C4471 1.327 . S
C4469 C4475 1.429 . S
C4470 C4462 1.574 . S
C4470 H4465 0.949 . S
C4470 C4476 1.368 . S
C4471 C4455 1.349 . S
C4471 H4463 0.950 . S
C4471 C4469 1.327 . S
C4472 C4460 1.349 . S
C4472 H4466 0.950 . S
C4472 C4473 1.327 . S
C4473 H4467 0.950 . S
C4473 C4472 1.327 . S
C4473 C4477 1.429 . S
C4474 C4457 1.574 . S
C4474 H4468 0.949 . S
C4474 C4478 1.368 . S
C4475 C4456 1.429 . S
C4475 C4469 1.429 . S
C4475 C4476 1.523 . S
C4476 C4457 1.368 . S
C4476 C4470 1.368 . S
C4476 C4475 1.523 . S
C4477 C4461 1.429 . S
C4477 C4473 1.429 . S
C4477 C4478 1.523 . S
C4478 C4462 1.368 . S
C4478 C4474 1.368 . S
C4478 C4477 1.523 . S
H4479 C4454 0.950 . S
H4480 C4456 0.950 . S
H4481 C4457 0.949 . S
H4482 C4459 0.950 . S
H4483 C4461 0.950 . S
C4484 C4485 1.349 . S
C4484 C4486 1.327 . S
C4484 H4509 0.950 . S
C4485 C4484 1.349 . S
C4485 C4501 1.349 . S
C4486 C4484 1.327 . S
C4486 C4505 1.429 . S
C4486 H4510 0.950 . S
C4487 C4504 1.574 . S
C4487 C4506 1.368 . S
C4487 H4511 0.949 . S
H4488 C4492 0.949 . S
C4489 C4490 1.349 . S
C4489 C4491 1.327 . S
C4489 H4512 0.950 . S
C4490 C4489 1.349 . S
C4490 C4502 1.349 . S
C4491 C4489 1.327 . S
C4491 C4507 1.429 . S
C4491 H4513 0.950 . S
C4492 H4488 0.949 . S
C4492 C4500 1.574 . S
C4492 C4508 1.368 . S
H4493 C4501 0.950 . S
H4494 C4499 0.950 . S
H4495 C4500 0.949 . S
H4496 C4502 0.950 . S
H4497 C4503 0.950 . S
H4498 C4504 0.949 . S
C4499 H4494 0.950 . S
C4499 C4501 1.327 . S
C4499 C4505 1.429 . S
C4500 C4492 1.574 . S
C4500 H4495 0.949 . S
C4500 C4506 1.368 . S
C4501 C4485 1.349 . S
C4501 H4493 0.950 . S
C4501 C4499 1.327 . S
C4502 C4490 1.349 . S
C4502 H4496 0.950 . S
C4502 C4503 1.327 . S
C4503 H4497 0.950 . S
C4503 C4502 1.327 . S
C4503 C4507 1.429 . S
C4504 C4487 1.574 . S
C4504 H4498 0.949 . S
C4504 C4508 1.368 . S
C4505 C4486 1.429 . S
C4505 C4499 1.429 . S
C4505 C4506 1.523 . S
C4506 C4487 1.368 . S
C4506 C4500 1.368 . S
C4506 C4505 1.523 . S
C4507 C4491 1.429 . S
C4507 C4503 1.429 . S
C4507 C4508 1.523 . S
C4508 C4492 1.368 . S
C4508 C4504 1.368 . S
C4508 C4507 1.523 . S
H4509 C4484 0.950 . S
H4510 C4486 0.950 . S
H4511 C4487 0.949 . S
H4512 C4489 0.950 . S
H4513 C4491 0.950 . S
C4514 C4515 1.349 . S
C4514 C4516 1.327 . S
C4514 H4539 0.950 . S
C4515 C4514 1.349 . S
C4515 C4531 1.349 . S
C4516 C4514 1.327 . S
C4516 C4535 1.429 . S
C4516 H4540 0.950 . S
C4517 C4534 1.574 . S
C4517 C4536 1.368 . S
C4517 H4541 0.949 . S
H4518 C4522 0.949 . S
C4519 C4520 1.349 . S
C4519 C4521 1.327 . S
C4519 H4542 0.950 . S
C4520 C4519 1.349 . S
C4520 C4532 1.349 . S
C4521 C4519 1.327 . S
C4521 C4537 1.429 . S
C4521 H4543 0.950 . S
C4522 H4518 0.949 . S
C4522 C4530 1.574 . S
C4522 C4538 1.368 . S
H4523 C4531 0.950 . S
H4524 C4529 0.950 . S
H4525 C4530 0.949 . S
H4526 C4532 0.950 . S
H4527 C4533 0.950 . S
H4528 C4534 0.949 . S
C4529 H4524 0.950 . S
C4529 C4531 1.327 . S
C4529 C4535 1.429 . S
C4530 C4522 1.574 . S
C4530 H4525 0.949 . S
C4530 C4536 1.368 . S
C4531 C4515 1.349 . S
C4531 H4523 0.950 . S
C4531 C4529 1.327 . S
C4532 C4520 1.349 . S
C4532 H4526 0.950 . S
C4532 C4533 1.327 . S
C4533 H4527 0.950 . S
C4533 C4532 1.327 . S
C4533 C4537 1.429 . S
C4534 C4517 1.574 . S
C4534 H4528 0.949 . S
C4534 C4538 1.368 . S
C4535 C4516 1.429 . S
C4535 C4529 1.429 . S
C4535 C4536 1.523 . S
C4536 C4517 1.368 . S
C4536 C4530 1.368 . S
C4536 C4535 1.523 . S
C4537 C4521 1.429 . S
C4537 C4533 1.429 . S
C4537 C4538 1.523 . S
C4538 C4522 1.368 . S
C4538 C4534 1.368 . S
C4538 C4537 1.523 . S
H4539 C4514 0.950 . S
H4540 C4516 0.950 . S
H4541 C4517 0.949 . S
H4542 C4519 0.950 . S
H4543 C4521 0.950 . S
C4544 C4545 1.349 . S
C4544 C4546 1.327 . S
C4544 H4569 0.950 . S
C4545 C4544 1.349 . S
C4545 C4561 1.349 . S
C4546 C4544 1.327 . S
C4546 C4565 1.429 . S
C4546 H4570 0.950 . S
C4547 C4564 1.574 . S
C4547 C4566 1.368 . S
C4547 H4571 0.949 . S
H4548 C4552 0.949 . S
C4549 C4550 1.349 . S
C4549 C4551 1.327 . S
C4549 H4572 0.950 . S
C4550 C4549 1.349 . S
C4550 C4562 1.349 . S
C4551 C4549 1.327 . S
C4551 C4567 1.429 . S
C4551 H4573 0.950 . S
C4552 H4548 0.949 . S
C4552 C4560 1.574 . S
C4552 C4568 1.368 . S
H4553 C4561 0.950 . S
H4554 C4559 0.950 . S
H4555 C4560 0.949 . S
H4556 C4562 0.950 . S
H4557 C4563 0.950 . S
H4558 C4564 0.949 . S
C4559 H4554 0.950 . S
C4559 C4561 1.327 . S
C4559 C4565 1.429 . S
C4560 C4552 1.574 . S
C4560 H4555 0.949 . S
C4560 C4566 1.368 . S
C4561 C4545 1.349 . S
C4561 H4553 0.950 . S
C4561 C4559 1.327 . S
C4562 C4550 1.349 . S
C4562 H4556 0.950 . S
C4562 C4563 1.327 . S
C4563 H4557 0.950 . S
C4563 C4562 1.327 . S
C4563 C4567 1.429 . S
C4564 C4547 1.574 . S
C4564 H4558 0.949 . S
C4564 C4568 1.368 . S
C4565 C4546 1.429 . S
C4565 C4559 1.429 . S
C4565 C4566 1.523 . S
C4566 C4547 1.368 . S
C4566 C4560 1.368 . S
C4566 C4565 1.523 . S
C4567 C4551 1.429 . S
C4567 C4563 1.429 . S
C4567 C4568 1.523 . S
C4568 C4552 1.368 . S
C4568 C4564 1.368 . S
C4568 C4567 1.523 . S
H4569 C4544 0.950 . S
H4570 C4546 0.950 . S
H4571 C4547 0.949 . S
H4572 C4549 0.950 . S
H4573 C4551 0.950 . S
C4574 C4575 1.349 . S
C4574 C4576 1.327 . S
C4574 H4599 0.950 . S
C4575 C4574 1.349 . S
C4575 C4591 1.349 . S
C4576 C4574 1.327 . S
C4576 C4595 1.429 . S
C4576 H4600 0.950 . S
C4577 C4594 1.574 . S
C4577 C4596 1.368 . S
C4577 H4601 0.949 . S
H4578 C4582 0.949 . S
C4579 C4580 1.349 . S
C4579 C4581 1.327 . S
C4579 H4602 0.950 . S
C4580 C4579 1.349 . S
C4580 C4592 1.349 . S
C4581 C4579 1.327 . S
C4581 C4597 1.429 . S
C4581 H4603 0.950 . S
C4582 H4578 0.949 . S
C4582 C4590 1.574 . S
C4582 C4598 1.368 . S
H4583 C4591 0.950 . S
H4584 C4589 0.950 . S
H4585 C4590 0.949 . S
H4586 C4592 0.950 . S
H4587 C4593 0.950 . S
H4588 C4594 0.949 . S
C4589 H4584 0.950 . S
C4589 C4591 1.327 . S
C4589 C4595 1.429 . S
C4590 C4582 1.574 . S
C4590 H4585 0.949 . S
C4590 C4596 1.368 . S
C4591 C4575 1.349 . S
C4591 H4583 0.950 . S
C4591 C4589 1.327 . S
C4592 C4580 1.349 . S
C4592 H4586 0.950 . S
C4592 C4593 1.327 . S
C4593 H4587 0.950 . S
C4593 C4592 1.327 . S
C4593 C4597 1.429 . S
C4594 C4577 1.574 . S
C4594 H4588 0.949 . S
C4594 C4598 1.368 . S
C4595 C4576 1.429 . S
C4595 C4589 1.429 . S
C4595 C4596 1.523 . S
C4596 C4577 1.368 . S
C4596 C4590 1.368 . S
C4596 C4595 1.523 . S
C4597 C4581 1.429 . S
C4597 C4593 1.429 . S
C4597 C4598 1.523 . S
C4598 C4582 1.368 . S
C4598 C4594 1.368 . S
C4598 C4597 1.523 . S
H4599 C4574 0.950 . S
H4600 C4576 0.950 . S
H4601 C4577 0.949 . S
H4602 C4579 0.950 . S
H4603 C4581 0.950 . S
C4604 C4605 1.349 . S
C4604 C4606 1.327 . S
C4604 H4629 0.950 . S
C4605 C4604 1.349 . S
C4605 C4621 1.349 . S
C4606 C4604 1.327 . S
C4606 C4625 1.429 . S
C4606 H4630 0.950 . S
C4607 C4624 1.574 . S
C4607 C4626 1.368 . S
C4607 H4631 0.949 . S
H4608 C4612 0.949 . S
C4609 C4610 1.349 . S
C4609 C4611 1.327 . S
C4609 H4632 0.950 . S
C4610 C4609 1.349 . S
C4610 C4622 1.349 . S
C4611 C4609 1.327 . S
C4611 C4627 1.429 . S
C4611 H4633 0.950 . S
C4612 H4608 0.949 . S
C4612 C4620 1.574 . S
C4612 C4628 1.368 . S
H4613 C4621 0.950 . S
H4614 C4619 0.950 . S
H4615 C4620 0.949 . S
H4616 C4622 0.950 . S
H4617 C4623 0.950 . S
H4618 C4624 0.949 . S
C4619 H4614 0.950 . S
C4619 C4621 1.327 . S
C4619 C4625 1.429 . S
C4620 C4612 1.574 . S
C4620 H4615 0.949 . S
C4620 C4626 1.368 . S
C4621 C4605 1.349 . S
C4621 H4613 0.950 . S
C4621 C4619 1.327 . S
C4622 C4610 1.349 . S
C4622 H4616 0.950 . S
C4622 C4623 1.327 . S
C4623 H4617 0.950 . S
C4623 C4622 1.327 . S
C4623 C4627 1.429 . S
C4624 C4607 1.574 . S
C4624 H4618 0.949 . S
C4624 C4628 1.368 . S
C4625 C4606 1.429 . S
C4625 C4619 1.429 . S
C4625 C4626 1.523 . S
C4626 C4607 1.368 . S
C4626 C4620 1.368 . S
C4626 C4625 1.523 . S
C4627 C4611 1.429 . S
C4627 C4623 1.429 . S
C4627 C4628 1.523 . S
C4628 C4612 1.368 . S
C4628 C4624 1.368 . S
C4628 C4627 1.523 . S
H4629 C4604 0.950 . S
H4630 C4606 0.950 . S
H4631 C4607 0.949 . S
H4632 C4609 0.950 . S
H4633 C4611 0.950 . S
C4634 C4635 1.349 . S
C4634 C4636 1.327 . S
C4634 H4659 0.950 . S
C4635 C4634 1.349 . S
C4635 C4651 1.349 . S
C4636 C4634 1.327 . S
C4636 C4655 1.429 . S
C4636 H4660 0.950 . S
C4637 C4654 1.574 . S
C4637 C4656 1.368 . S
C4637 H4661 0.949 . S
H4638 C4642 0.949 . S
C4639 C4640 1.349 . S
C4639 C4641 1.327 . S
C4639 H4662 0.950 . S
C4640 C4639 1.349 . S
C4640 C4652 1.349 . S
C4641 C4639 1.327 . S
C4641 C4657 1.429 . S
C4641 H4663 0.950 . S
C4642 H4638 0.949 . S
C4642 C4650 1.574 . S
C4642 C4658 1.368 . S
H4643 C4651 0.950 . S
H4644 C4649 0.950 . S
H4645 C4650 0.949 . S
H4646 C4652 0.950 . S
H4647 C4653 0.950 . S
H4648 C4654 0.949 . S
C4649 H4644 0.950 . S
C4649 C4651 1.327 . S
C4649 C4655 1.429 . S
C4650 C4642 1.574 . S
C4650 H4645 0.949 . S
C4650 C4656 1.368 . S
C4651 C4635 1.349 . S
C4651 H4643 0.950 . S
C4651 C4649 1.327 . S
C4652 C4640 1.349 . S
C4652 H4646 0.950 . S
C4652 C4653 1.327 . S
C4653 H4647 0.950 . S
C4653 C4652 1.327 . S
C4653 C4657 1.429 . S
C4654 C4637 1.574 . S
C4654 H4648 0.949 . S
C4654 C4658 1.368 . S
C4655 C4636 1.429 . S
C4655 C4649 1.429 . S
C4655 C4656 1.523 . S
C4656 C4637 1.368 . S
C4656 C4650 1.368 . S
C4656 C4655 1.523 . S
C4657 C4641 1.429 . S
C4657 C4653 1.429 . S
C4657 C4658 1.523 . S
C4658 C4642 1.368 . S
C4658 C4654 1.368 . S
C4658 C4657 1.523 . S
H4659 C4634 0.950 . S
H4660 C4636 0.950 . S
H4661 C4637 0.949 . S
H4662 C4639 0.950 . S
H4663 C4641 0.950 . S
C4664 C4665 1.349 . S
C4664 C4666 1.327 . S
C4664 H4689 0.950 . S
C4665 C4664 1.349 . S
C4665 C4681 1.349 . S
C4666 C4664 1.327 . S
C4666 C4685 1.429 . S
C4666 H4690 0.950 . S
C4667 C4684 1.574 . S
C4667 C4686 1.368 . S
C4667 H4691 0.949 . S
H4668 C4672 0.949 . S
C4669 C4670 1.349 . S
C4669 C4671 1.327 . S
C4669 H4692 0.950 . S
C4670 C4669 1.349 . S
C4670 C4682 1.349 . S
C4671 C4669 1.327 . S
C4671 C4687 1.429 . S
C4671 H4693 0.950 . S
C4672 H4668 0.949 . S
C4672 C4680 1.574 . S
C4672 C4688 1.368 . S
H4673 C4681 0.950 . S
H4674 C4679 0.950 . S
H4675 C4680 0.949 . S
H4676 C4682 0.950 . S
H4677 C4683 0.950 . S
H4678 C4684 0.949 . S
C4679 H4674 0.950 . S
C4679 C4681 1.327 . S
C4679 C4685 1.429 . S
C4680 C4672 1.574 . S
C4680 H4675 0.949 . S
C4680 C4686 1.368 . S
C4681 C4665 1.349 . S
C4681 H4673 0.950 . S
C4681 C4679 1.327 . S
C4682 C4670 1.349 . S
C4682 H4676 0.950 . S
C4682 C4683 1.327 . S
C4683 H4677 0.950 . S
C4683 C4682 1.327 . S
C4683 C4687 1.429 . S
C4684 C4667 1.574 . S
C4684 H4678 0.949 . S
C4684 C4688 1.368 . S
C4685 C4666 1.429 . S
C4685 C4679 1.429 . S
C4685 C4686 1.523 . S
C4686 C4667 1.368 . S
C4686 C4680 1.368 . S
C4686 C4685 1.523 . S
C4687 C4671 1.429 . S
C4687 C4683 1.429 . S
C4687 C4688 1.523 . S
C4688 C4672 1.368 . S
C4688 C4684 1.368 . S
C4688 C4687 1.523 . S
H4689 C4664 0.950 . S
H4690 C4666 0.950 . S
H4691 C4667 0.949 . S
H4692 C4669 0.950 . S
H4693 C4671 0.950 . S
C4694 C4695 1.349 . S
C4694 C4696 1.327 . S
C4694 H4719 0.950 . S
C4695 C4694 1.349 . S
C4695 C4711 1.349 . S
C4696 C4694 1.327 . S
C4696 C4715 1.429 . S
C4696 H4720 0.950 . S
C4697 C4714 1.574 . S
C4697 C4716 1.368 . S
C4697 H4721 0.949 . S
H4698 C4702 0.949 . S
C4699 C4700 1.349 . S
C4699 C4701 1.327 . S
C4699 H4722 0.950 . S
C4700 C4699 1.349 . S
C4700 C4712 1.349 . S
C4701 C4699 1.327 . S
C4701 C4717 1.429 . S
C4701 H4723 0.950 . S
C4702 H4698 0.949 . S
C4702 C4710 1.574 . S
C4702 C4718 1.368 . S
H4703 C4711 0.950 . S
H4704 C4709 0.950 . S
H4705 C4710 0.949 . S
H4706 C4712 0.950 . S
H4707 C4713 0.950 . S
H4708 C4714 0.949 . S
C4709 H4704 0.950 . S
C4709 C4711 1.327 . S
C4709 C4715 1.429 . S
C4710 C4702 1.574 . S
C4710 H4705 0.949 . S
C4710 C4716 1.368 . S
C4711 C4695 1.349 . S
C4711 H4703 0.950 . S
C4711 C4709 1.327 . S
C4712 C4700 1.349 . S
C4712 H4706 0.950 . S
C4712 C4713 1.327 . S
C4713 H4707 0.950 . S
C4713 C4712 1.327 . S
C4713 C4717 1.429 . S
C4714 C4697 1.574 . S
C4714 H4708 0.949 . S
C4714 C4718 1.368 . S
C4715 C4696 1.429 . S
C4715 C4709 1.429 . S
C4715 C4716 1.523 . S
C4716 C4697 1.368 . S
C4716 C4710 1.368 . S
C4716 C4715 1.523 . S
C4717 C4701 1.429 . S
C4717 C4713 1.429 . S
C4717 C4718 1.523 . S
C4718 C4702 1.368 . S
C4718 C4714 1.368 . S
C4718 C4717 1.523 . S
H4719 C4694 0.950 . S
H4720 C4696 0.950 . S
H4721 C4697 0.949 . S
H4722 C4699 0.950 . S
H4723 C4701 0.950 . S
C4724 C4725 1.349 . S
C4724 C4726 1.327 . S
C4724 H4749 0.950 . S
C4725 C4724 1.349 . S
C4725 C4741 1.349 . S
C4726 C4724 1.327 . S
C4726 C4745 1.429 . S
C4726 H4750 0.950 . S
C4727 C4744 1.574 . S
C4727 C4746 1.368 . S
C4727 H4751 0.949 . S
H4728 C4732 0.949 . S
C4729 C4730 1.349 . S
C4729 C4731 1.327 . S
C4729 H4752 0.950 . S
C4730 C4729 1.349 . S
C4730 C4742 1.349 . S
C4731 C4729 1.327 . S
C4731 C4747 1.429 . S
C4731 H4753 0.950 . S
C4732 H4728 0.949 . S
C4732 C4740 1.574 . S
C4732 C4748 1.368 . S
H4733 C4741 0.950 . S
H4734 C4739 0.950 . S
H4735 C4740 0.949 . S
H4736 C4742 0.950 . S
H4737 C4743 0.950 . S
H4738 C4744 0.949 . S
C4739 H4734 0.950 . S
C4739 C4741 1.327 . S
C4739 C4745 1.429 . S
C4740 C4732 1.574 . S
C4740 H4735 0.949 . S
C4740 C4746 1.368 . S
C4741 C4725 1.349 . S
C4741 H4733 0.950 . S
C4741 C4739 1.327 . S
C4742 C4730 1.349 . S
C4742 H4736 0.950 . S
C4742 C4743 1.327 . S
C4743 H4737 0.950 . S
C4743 C4742 1.327 . S
C4743 C4747 1.429 . S
C4744 C4727 1.574 . S
C4744 H4738 0.949 . S
C4744 C4748 1.368 . S
C4745 C4726 1.429 . S
C4745 C4739 1.429 . S
C4745 C4746 1.523 . S
C4746 C4727 1.368 . S
C4746 C4740 1.368 . S
C4746 C4745 1.523 . S
C4747 C4731 1.429 . S
C4747 C4743 1.429 . S
C4747 C4748 1.523 . S
C4748 C4732 1.368 . S
C4748 C4744 1.368 . S
C4748 C4747 1.523 . S
H4749 C4724 0.950 . S
H4750 C4726 0.950 . S
H4751 C4727 0.949 . S
H4752 C4729 0.950 . S
H4753 C4731 0.950 . S
C4754 C4755 1.349 . S
C4754 C4756 1.327 . S
C4754 H4779 0.950 . S
C4755 C4754 1.349 . S
C4755 C4771 1.349 . S
C4756 C4754 1.327 . S
C4756 C4775 1.429 . S
C4756 H4780 0.950 . S
C4757 C4774 1.574 . S
C4757 C4776 1.368 . S
C4757 H4781 0.949 . S
H4758 C4762 0.949 . S
C4759 C4760 1.349 . S
C4759 C4761 1.327 . S
C4759 H4782 0.950 . S
C4760 C4759 1.349 . S
C4760 C4772 1.349 . S
C4761 C4759 1.327 . S
C4761 C4777 1.429 . S
C4761 H4783 0.950 . S
C4762 H4758 0.949 . S
C4762 C4770 1.574 . S
C4762 C4778 1.368 . S
H4763 C4771 0.950 . S
H4764 C4769 0.950 . S
H4765 C4770 0.949 . S
H4766 C4772 0.950 . S
H4767 C4773 0.950 . S
H4768 C4774 0.949 . S
C4769 H4764 0.950 . S
C4769 C4771 1.327 . S
C4769 C4775 1.429 . S
C4770 C4762 1.574 . S
C4770 H4765 0.949 . S
C4770 C4776 1.368 . S
C4771 C4755 1.349 . S
C4771 H4763 0.950 . S
C4771 C4769 1.327 . S
C4772 C4760 1.349 . S
C4772 H4766 0.950 . S
C4772 C4773 1.327 . S
C4773 H4767 0.950 . S
C4773 C4772 1.327 . S
C4773 C4777 1.429 . S
C4774 C4757 1.574 . S
C4774 H4768 0.949 . S
C4774 C4778 1.368 . S
C4775 C4756 1.429 . S
C4775 C4769 1.429 . S
C4775 C4776 1.523 . S
C4776 C4757 1.368 . S
C4776 C4770 1.368 . S
C4776 C4775 1.523 . S
C4777 C4761 1.429 . S
C4777 C4773 1.429 . S
C4777 C4778 1.523 . S
C4778 C4762 1.368 . S
C4778 C4774 1.368 . S
C4778 C4777 1.523 . S
H4779 C4754 0.950 . S
H4780 C4756 0.950 . S
H4781 C4757 0.949 . S
H4782 C4759 0.950 . S
H4783 C4761 0.950 . S
C4784 C4785 1.349 . S
C4784 C4786 1.327 . S
C4784 H4809 0.950 . S
C4785 C4784 1.349 . S
C4785 C4801 1.349 . S
C4786 C4784 1.327 . S
C4786 C4805 1.429 . S
C4786 H4810 0.950 . S
C4787 C4804 1.574 . S
C4787 C4806 1.368 . S
C4787 H4811 0.949 . S
H4788 C4792 0.949 . S
C4789 C4790 1.349 . S
C4789 C4791 1.327 . S
C4789 H4812 0.950 . S
C4790 C4789 1.349 . S
C4790 C4802 1.349 . S
C4791 C4789 1.327 . S
C4791 C4807 1.429 . S
C4791 H4813 0.950 . S
C4792 H4788 0.949 . S
C4792 C4800 1.574 . S
C4792 C4808 1.368 . S
H4793 C4801 0.950 . S
H4794 C4799 0.950 . S
H4795 C4800 0.949 . S
H4796 C4802 0.950 . S
H4797 C4803 0.950 . S
H4798 C4804 0.949 . S
C4799 H4794 0.950 . S
C4799 C4801 1.327 . S
C4799 C4805 1.429 . S
C4800 C4792 1.574 . S
C4800 H4795 0.949 . S
C4800 C4806 1.368 . S
C4801 C4785 1.349 . S
C4801 H4793 0.950 . S
C4801 C4799 1.327 . S
C4802 C4790 1.349 . S
C4802 H4796 0.950 . S
C4802 C4803 1.327 . S
C4803 H4797 0.950 . S
C4803 C4802 1.327 . S
C4803 C4807 1.429 . S
C4804 C4787 1.574 . S
C4804 H4798 0.949 . S
C4804 C4808 1.368 . S
C4805 C4786 1.429 . S
C4805 C4799 1.429 . S
C4805 C4806 1.523 . S
C4806 C4787 1.368 . S
C4806 C4800 1.368 . S
C4806 C4805 1.523 . S
C4807 C4791 1.429 . S
C4807 C4803 1.429 . S
C4807 C4808 1.523 . S
C4808 C4792 1.368 . S
C4808 C4804 1.368 . S
C4808 C4807 1.523 . S
H4809 C4784 0.950 . S
H4810 C4786 0.950 . S
H4811 C4787 0.949 . S
H4812 C4789 0.950 . S
H4813 C4791 0.950 . S
C4814 C4815 1.349 . S
C4814 C4816 1.327 . S
C4814 H4839 0.950 . S
C4815 C4814 1.349 . S
C4815 C4831 1.349 . S
C4816 C4814 1.327 . S
C4816 C4835 1.429 . S
C4816 H4840 0.950 . S
C4817 C4834 1.574 . S
C4817 C4836 1.368 . S
C4817 H4841 0.949 . S
H4818 C4822 0.949 . S
C4819 C4820 1.349 . S
C4819 C4821 1.327 . S
C4819 H4842 0.950 . S
C4820 C4819 1.349 . S
C4820 C4832 1.349 . S
C4821 C4819 1.327 . S
C4821 C4837 1.429 . S
C4821 H4843 0.950 . S
C4822 H4818 0.949 . S
C4822 C4830 1.574 . S
C4822 C4838 1.368 . S
H4823 C4831 0.950 . S
H4824 C4829 0.950 . S
H4825 C4830 0.949 . S
H4826 C4832 0.950 . S
H4827 C4833 0.950 . S
H4828 C4834 0.949 . S
C4829 H4824 0.950 . S
C4829 C4831 1.327 . S
C4829 C4835 1.429 . S
C4830 C4822 1.574 . S
C4830 H4825 0.949 . S
C4830 C4836 1.368 . S
C4831 C4815 1.349 . S
C4831 H4823 0.950 . S
C4831 C4829 1.327 . S
C4832 C4820 1.349 . S
C4832 H4826 0.950 . S
C4832 C4833 1.327 . S
C4833 H4827 0.950 . S
C4833 C4832 1.327 . S
C4833 C4837 1.429 . S
C4834 C4817 1.574 . S
C4834 H4828 0.949 . S
C4834 C4838 1.368 . S
C4835 C4816 1.429 . S
C4835 C4829 1.429 . S
C4835 C4836 1.523 . S
C4836 C4817 1.368 . S
C4836 C4830 1.368 . S
C4836 C4835 1.523 . S
C4837 C4821 1.429 . S
C4837 C4833 1.429 . S
C4837 C4838 1.523 . S
C4838 C4822 1.368 . S
C4838 C4834 1.368 . S
C4838 C4837 1.523 . S
H4839 C4814 0.950 . S
H4840 C4816 0.950 . S
H4841 C4817 0.949 . S
H4842 C4819 0.950 . S
H4843 C4821 0.950 . S
C4844 C4845 1.349 . S
C4844 C4846 1.327 . S
C4844 H4869 0.950 . S
C4845 C4844 1.349 . S
C4845 C4861 1.349 . S
C4846 C4844 1.327 . S
C4846 C4865 1.429 . S
C4846 H4870 0.950 . S
C4847 C4864 1.574 . S
C4847 C4866 1.368 . S
C4847 H4871 0.949 . S
H4848 C4852 0.949 . S
C4849 C4850 1.349 . S
C4849 C4851 1.327 . S
C4849 H4872 0.950 . S
C4850 C4849 1.349 . S
C4850 C4862 1.349 . S
C4851 C4849 1.327 . S
C4851 C4867 1.429 . S
C4851 H4873 0.950 . S
C4852 H4848 0.949 . S
C4852 C4860 1.574 . S
C4852 C4868 1.368 . S
H4853 C4861 0.950 . S
H4854 C4859 0.950 . S
H4855 C4860 0.949 . S
H4856 C4862 0.950 . S
H4857 C4863 0.950 . S
H4858 C4864 0.949 . S
C4859 H4854 0.950 . S
C4859 C4861 1.327 . S
C4859 C4865 1.429 . S
C4860 C4852 1.574 . S
C4860 H4855 0.949 . S
C4860 C4866 1.368 . S
C4861 C4845 1.349 . S
C4861 H4853 0.950 . S
C4861 C4859 1.327 . S
C4862 C4850 1.349 . S
C4862 H4856 0.950 . S
C4862 C4863 1.327 . S
C4863 H4857 0.950 . S
C4863 C4862 1.327 . S
C4863 C4867 1.429 . S
C4864 C4847 1.574 . S
C4864 H4858 0.949 . S
C4864 C4868 1.368 . S
C4865 C4846 1.429 . S
C4865 C4859 1.429 . S
C4865 C4866 1.523 . S
C4866 C4847 1.368 . S
C4866 C4860 1.368 . S
C4866 C4865 1.523 . S
C4867 C4851 1.429 . S
C4867 C4863 1.429 . S
C4867 C4868 1.523 . S
C4868 C4852 1.368 . S
C4868 C4864 1.368 . S
C4868 C4867 1.523 . S
H4869 C4844 0.950 . S
H4870 C4846 0.950 . S
H4871 C4847 0.949 . S
H4872 C4849 0.950 . S
H4873 C4851 0.950 . S
C4874 C4875 1.349 . S
C4874 C4876 1.327 . S
C4874 H4899 0.950 . S
C4875 C4874 1.349 . S
C4875 C4891 1.349 . S
C4876 C4874 1.327 . S
C4876 C4895 1.429 . S
C4876 H4900 0.950 . S
C4877 C4894 1.574 . S
C4877 C4896 1.368 . S
C4877 H4901 0.949 . S
H4878 C4882 0.949 . S
C4879 C4880 1.349 . S
C4879 C4881 1.327 . S
C4879 H4902 0.950 . S
C4880 C4879 1.349 . S
C4880 C4892 1.349 . S
C4881 C4879 1.327 . S
C4881 C4897 1.429 . S
C4881 H4903 0.950 . S
C4882 H4878 0.949 . S
C4882 C4890 1.574 . S
C4882 C4898 1.368 . S
H4883 C4891 0.950 . S
H4884 C4889 0.950 . S
H4885 C4890 0.949 . S
H4886 C4892 0.950 . S
H4887 C4893 0.950 . S
H4888 C4894 0.949 . S
C4889 H4884 0.950 . S
C4889 C4891 1.327 . S
C4889 C4895 1.429 . S
C4890 C4882 1.574 . S
C4890 H4885 0.949 . S
C4890 C4896 1.368 . S
C4891 C4875 1.349 . S
C4891 H4883 0.950 . S
C4891 C4889 1.327 . S
C4892 C4880 1.349 . S
C4892 H4886 0.950 . S
C4892 C4893 1.327 . S
C4893 H4887 0.950 . S
C4893 C4892 1.327 . S
C4893 C4897 1.429 . S
C4894 C4877 1.574 . S
C4894 H4888 0.949 . S
C4894 C4898 1.368 . S
C4895 C4876 1.429 . S
C4895 C4889 1.429 . S
C4895 C4896 1.523 . S
C4896 C4877 1.368 . S
C4896 C4890 1.368 . S
C4896 C4895 1.523 . S
C4897 C4881 1.429 . S
C4897 C4893 1.429 . S
C4897 C4898 1.523 . S
C4898 C4882 1.368 . S
C4898 C4894 1.368 . S
C4898 C4897 1.523 . S
H4899 C4874 0.950 . S
H4900 C4876 0.950 . S
H4901 C4877 0.949 . S
H4902 C4879 0.950 . S
H4903 C4881 0.950 . S
C4904 C4905 1.349 . S
C4904 C4906 1.327 . S
C4904 H4929 0.950 . S
C4905 C4904 1.349 . S
C4905 C4921 1.349 . S
C4906 C4904 1.327 . S
C4906 C4925 1.429 . S
C4906 H4930 0.950 . S
C4907 C4924 1.574 . S
C4907 C4926 1.368 . S
C4907 H4931 0.949 . S
H4908 C4912 0.949 . S
C4909 C4910 1.349 . S
C4909 C4911 1.327 . S
C4909 H4932 0.950 . S
C4910 C4909 1.349 . S
C4910 C4922 1.349 . S
C4911 C4909 1.327 . S
C4911 C4927 1.429 . S
C4911 H4933 0.950 . S
C4912 H4908 0.949 . S
C4912 C4920 1.574 . S
C4912 C4928 1.368 . S
H4913 C4921 0.950 . S
H4914 C4919 0.950 . S
H4915 C4920 0.949 . S
H4916 C4922 0.950 . S
H4917 C4923 0.950 . S
H4918 C4924 0.949 . S
C4919 H4914 0.950 . S
C4919 C4921 1.327 . S
C4919 C4925 1.429 . S
C4920 C4912 1.574 . S
C4920 H4915 0.949 . S
C4920 C4926 1.368 . S
C4921 C4905 1.349 . S
C4921 H4913 0.950 . S
C4921 C4919 1.327 . S
C4922 C4910 1.349 . S
C4922 H4916 0.950 . S
C4922 C4923 1.327 . S
C4923 H4917 0.950 . S
C4923 C4922 1.327 . S
C4923 C4927 1.429 . S
C4924 C4907 1.574 . S
C4924 H4918 0.949 . S
C4924 C4928 1.368 . S
C4925 C4906 1.429 . S
C4925 C4919 1.429 . S
C4925 C4926 1.523 . S
C4926 C4907 1.368 . S
C4926 C4920 1.368 . S
C4926 C4925 1.523 . S
C4927 C4911 1.429 . S
C4927 C4923 1.429 . S
C4927 C4928 1.523 . S
C4928 C4912 1.368 . S
C4928 C4924 1.368 . S
C4928 C4927 1.523 . S
H4929 C4904 0.950 . S
H4930 C4906 0.950 . S
H4931 C4907 0.949 . S
H4932 C4909 0.950 . S
H4933 C4911 0.950 . S
C4934 C4935 1.349 . S
C4934 C4936 1.327 . S
C4934 H4959 0.950 . S
C4935 C4934 1.349 . S
C4935 C4951 1.349 . S
C4936 C4934 1.327 . S
C4936 C4955 1.429 . S
C4936 H4960 0.950 . S
C4937 C4954 1.574 . S
C4937 C4956 1.368 . S
C4937 H4961 0.949 . S
H4938 C4942 0.949 . S
C4939 C4940 1.349 . S
C4939 C4941 1.327 . S
C4939 H4962 0.950 . S
C4940 C4939 1.349 . S
C4940 C4952 1.349 . S
C4941 C4939 1.327 . S
C4941 C4957 1.429 . S
C4941 H4963 0.950 . S
C4942 H4938 0.949 . S
C4942 C4950 1.574 . S
C4942 C4958 1.368 . S
H4943 C4951 0.950 . S
H4944 C4949 0.950 . S
H4945 C4950 0.949 . S
H4946 C4952 0.950 . S
H4947 C4953 0.950 . S
H4948 C4954 0.949 . S
C4949 H4944 0.950 . S
C4949 C4951 1.327 . S
C4949 C4955 1.429 . S
C4950 C4942 1.574 . S
C4950 H4945 0.949 . S
C4950 C4956 1.368 . S
C4951 C4935 1.349 . S
C4951 H4943 0.950 . S
C4951 C4949 1.327 . S
C4952 C4940 1.349 . S
C4952 H4946 0.950 . S
C4952 C4953 1.327 . S
C4953 H4947 0.950 . S
C4953 C4952 1.327 . S
C4953 C4957 1.429 . S
C4954 C4937 1.574 . S
C4954 H4948 0.949 . S
C4954 C4958 1.368 . S
C4955 C4936 1.429 . S
C4955 C4949 1.429 . S
C4955 C4956 1.523 . S
C4956 C4937 1.368 . S
C4956 C4950 1.368 . S
C4956 C4955 1.523 . S
C4957 C4941 1.429 . S
C4957 C4953 1.429 . S
C4957 C4958 1.523 . S
C4958 C4942 1.368 . S
C4958 C4954 1.368 . S
C4958 C4957 1.523 . S
H4959 C4934 0.950 . S
H4960 C4936 0.950 . S
H4961 C4937 0.949 . S
H4962 C4939 0.950 . S
H4963 C4941 0.950 . S
C4964 C4965 1.349 . S
C4964 C4966 1.327 . S
C4964 H4989 0.950 . S
C4965 C4964 1.349 . S
C4965 C4981 1.349 . S
C4966 C4964 1.327 . S
C4966 C4985 1.429 . S
C4966 H4990 0.950 . S
C4967 C4984 1.574 . S
C4967 C4986 1.368 . S
C4967 H4991 0.949 . S
H4968 C4972 0.949 . S
C4969 C4970 1.349 . S
C4969 C4971 1.327 . S
C4969 H4992 0.950 . S
C4970 C4969 1.349 . S
C4970 C4982 1.349 . S
C4971 C4969 1.327 . S
C4971 C4987 1.429 . S
C4971 H4993 0.950 . S
C4972 H4968 0.949 . S
C4972 C4980 1.574 . S
C4972 C4988 1.368 . S
H4973 C4981 0.950 . S
H4974 C4979 0.950 . S
H4975 C4980 0.949 . S
H4976 C4982 0.950 . S
H4977 C4983 0.950 . S
H4978 C4984 0.949 . S
C4979 H4974 0.950 . S
C4979 C4981 1.327 . S
C4979 C4985 1.429 . S
C4980 C4972 1.574 . S
C4980 H4975 0.949 . S
C4980 C4986 1.368 . S
C4981 C4965 1.349 . S
C4981 H4973 0.950 . S
C4981 C4979 1.327 . S
C4982 C4970 1.349 . S
C4982 H4976 0.950 . S
C4982 C4983 1.327 . S
C4983 H4977 0.950 . S
C4983 C4982 1.327 . S
C4983 C4987 1.429 . S
C4984 C4967 1.574 . S
C4984 H4978 0.949 . S
C4984 C4988 1.368 . S
C4985 C4966 1.429 . S
C4985 C4979 1.429 . S
C4985 C4986 1.523 . S
C4986 C4967 1.368 . S
C4986 C4980 1.368 . S
C4986 C4985 1.523 . S
C4987 C4971 1.429 . S
C4987 C4983 1.429 . S
C4987 C4988 1.523 . S
C4988 C4972 1.368 . S
C4988 C4984 1.368 . S
C4988 C4987 1.523 . S
H4989 C4964 0.950 . S
H4990 C4966 0.950 . S
H4991 C4967 0.949 . S
H4992 C4969 0.950 . S
H4993 C4971 0.950 . S
C4994 C4995 1.349 . S
C4994 C4996 1.327 . S
C4994 H5019 0.950 . S
C4995 C4994 1.349 . S
C4995 C5011 1.349 . S
C4996 C4994 1.327 . S
C4996 C5015 1.429 . S
C4996 H5020 0.950 . S
C4997 C5014 1.574 . S
C4997 C5016 1.368 . S
C4997 H5021 0.949 . S
H4998 C5002 0.949 . S
C4999 C5000 1.349 . S
C4999 C5001 1.327 . S
C4999 H5022 0.950 . S
C5000 C4999 1.349 . S
C5000 C5012 1.349 . S
C5001 C4999 1.327 . S
C5001 C5017 1.429 . S
C5001 H5023 0.950 . S
C5002 H4998 0.949 . S
C5002 C5010 1.574 . S
C5002 C5018 1.368 . S
H5003 C5011 0.950 . S
H5004 C5009 0.950 . S
H5005 C5010 0.949 . S
H5006 C5012 0.950 . S
H5007 C5013 0.950 . S
H5008 C5014 0.949 . S
C5009 H5004 0.950 . S
C5009 C5011 1.327 . S
C5009 C5015 1.429 . S
C5010 C5002 1.574 . S
C5010 H5005 0.949 . S
C5010 C5016 1.368 . S
C5011 C4995 1.349 . S
C5011 H5003 0.950 . S
C5011 C5009 1.327 . S
C5012 C5000 1.349 . S
C5012 H5006 0.950 . S
C5012 C5013 1.327 . S
C5013 H5007 0.950 . S
C5013 C5012 1.327 . S
C5013 C5017 1.429 . S
C5014 C4997 1.574 . S
C5014 H5008 0.949 . S
C5014 C5018 1.368 . S
C5015 C4996 1.429 . S
C5015 C5009 1.429 . S
C5015 C5016 1.523 . S
C5016 C4997 1.368 . S
C5016 C5010 1.368 . S
C5016 C5015 1.523 . S
C5017 C5001 1.429 . S
C5017 C5013 1.429 . S
C5017 C5018 1.523 . S
C5018 C5002 1.368 . S
C5018 C5014 1.368 . S
C5018 C5017 1.523 . S
H5019 C4994 0.950 . S
H5020 C4996 0.950 . S
H5021 C4997 0.949 . S
H5022 C4999 0.950 . S
H5023 C5001 0.950 . S
C5024 C5025 1.349 . S
C5024 C5026 1.327 . S
C5024 H5049 0.950 . S
C5025 C5024 1.349 . S
C5025 C5041 1.349 . S
C5026 C5024 1.327 . S
C5026 C5045 1.429 . S
C5026 H5050 0.950 . S
C5027 C5044 1.574 . S
C5027 C5046 1.368 . S
C5027 H5051 0.949 . S
H5028 C5032 0.949 . S
C5029 C5030 1.349 . S
C5029 C5031 1.327 . S
C5029 H5052 0.950 . S
C5030 C5029 1.349 . S
C5030 C5042 1.349 . S
C5031 C5029 1.327 . S
C5031 C5047 1.429 . S
C5031 H5053 0.950 . S
C5032 H5028 0.949 . S
C5032 C5040 1.574 . S
C5032 C5048 1.368 . S
H5033 C5041 0.950 . S
H5034 C5039 0.950 . S
H5035 C5040 0.949 . S
H5036 C5042 0.950 . S
H5037 C5043 0.950 . S
H5038 C5044 0.949 . S
C5039 H5034 0.950 . S
C5039 C5041 1.327 . S
C5039 C5045 1.429 . S
C5040 C5032 1.574 . S
C5040 H5035 0.949 . S
C5040 C5046 1.368 . S
C5041 C5025 1.349 . S
C5041 H5033 0.950 . S
C5041 C5039 1.327 . S
C5042 C5030 1.349 . S
C5042 H5036 0.950 . S
C5042 C5043 1.327 . S
C5043 H5037 0.950 . S
C5043 C5042 1.327 . S
C5043 C5047 1.429 . S
C5044 C5027 1.574 . S
C5044 H5038 0.949 . S
C5044 C5048 1.368 . S
C5045 C5026 1.429 . S
C5045 C5039 1.429 . S
C5045 C5046 1.523 . S
C5046 C5027 1.368 . S
C5046 C5040 1.368 . S
C5046 C5045 1.523 . S
C5047 C5031 1.429 . S
C5047 C5043 1.429 . S
C5047 C5048 1.523 . S
C5048 C5032 1.368 . S
C5048 C5044 1.368 . S
C5048 C5047 1.523 . S
H5049 C5024 0.950 . S
H5050 C5026 0.950 . S
H5051 C5027 0.949 . S
H5052 C5029 0.950 . S
H5053 C5031 0.950 . S
C5054 C5055 1.349 . S
C5054 C5056 1.327 . S
C5054 H5079 0.950 . S
C5055 C5054 1.349 . S
C5055 C5071 1.349 . S
C5056 C5054 1.327 . S
C5056 C5075 1.429 . S
C5056 H5080 0.950 . S
C5057 C5074 1.574 . S
C5057 C5076 1.368 . S
C5057 H5081 0.949 . S
H5058 C5062 0.949 . S
C5059 C5060 1.349 . S
C5059 C5061 1.327 . S
C5059 H5082 0.950 . S
C5060 C5059 1.349 . S
C5060 C5072 1.349 . S
C5061 C5059 1.327 . S
C5061 C5077 1.429 . S
C5061 H5083 0.950 . S
C5062 H5058 0.949 . S
C5062 C5070 1.574 . S
C5062 C5078 1.368 . S
H5063 C5071 0.950 . S
H5064 C5069 0.950 . S
H5065 C5070 0.949 . S
H5066 C5072 0.950 . S
H5067 C5073 0.950 . S
H5068 C5074 0.949 . S
C5069 H5064 0.950 . S
C5069 C5071 1.327 . S
C5069 C5075 1.429 . S
C5070 C5062 1.574 . S
C5070 H5065 0.949 . S
C5070 C5076 1.368 . S
C5071 C5055 1.349 . S
C5071 H5063 0.950 . S
C5071 C5069 1.327 . S
C5072 C5060 1.349 . S
C5072 H5066 0.950 . S
C5072 C5073 1.327 . S
C5073 H5067 0.950 . S
C5073 C5072 1.327 . S
C5073 C5077 1.429 . S
C5074 C5057 1.574 . S
C5074 H5068 0.949 . S
C5074 C5078 1.368 . S
C5075 C5056 1.429 . S
C5075 C5069 1.429 . S
C5075 C5076 1.523 . S
C5076 C5057 1.368 . S
C5076 C5070 1.368 . S
C5076 C5075 1.523 . S
C5077 C5061 1.429 . S
C5077 C5073 1.429 . S
C5077 C5078 1.523 . S
C5078 C5062 1.368 . S
C5078 C5074 1.368 . S
C5078 C5077 1.523 . S
H5079 C5054 0.950 . S
H5080 C5056 0.950 . S
H5081 C5057 0.949 . S
H5082 C5059 0.950 . S
H5083 C5061 0.950 . S
C5084 C5085 1.349 . S
C5084 C5086 1.327 . S
C5084 H5109 0.950 . S
C5085 C5084 1.349 . S
C5085 C5101 1.349 . S
C5086 C5084 1.327 . S
C5086 C5105 1.429 . S
C5086 H5110 0.950 . S
C5087 C5104 1.574 . S
C5087 C5106 1.368 . S
C5087 H5111 0.949 . S
H5088 C5092 0.949 . S
C5089 C5090 1.349 . S
C5089 C5091 1.327 . S
C5089 H5112 0.950 . S
C5090 C5089 1.349 . S
C5090 C5102 1.349 . S
C5091 C5089 1.327 . S
C5091 C5107 1.429 . S
C5091 H5113 0.950 . S
C5092 H5088 0.949 . S
C5092 C5100 1.574 . S
C5092 C5108 1.368 . S
H5093 C5101 0.950 . S
H5094 C5099 0.950 . S
H5095 C5100 0.949 . S
H5096 C5102 0.950 . S
H5097 C5103 0.950 . S
H5098 C5104 0.949 . S
C5099 H5094 0.950 . S
C5099 C5101 1.327 . S
C5099 C5105 1.429 . S
C5100 C5092 1.574 . S
C5100 H5095 0.949 . S
C5100 C5106 1.368 . S
C5101 C5085 1.349 . S
C5101 H5093 0.950 . S
C5101 C5099 1.327 . S
C5102 C5090 1.349 . S
C5102 H5096 0.950 . S
C5102 C5103 1.327 . S
C5103 H5097 0.950 . S
C5103 C5102 1.327 . S
C5103 C5107 1.429 . S
C5104 C5087 1.574 . S
C5104 H5098 0.949 . S
C5104 C5108 1.368 . S
C5105 C5086 1.429 . S
C5105 C5099 1.429 . S
C5105 C5106 1.523 . S
C5106 C5087 1.368 . S
C5106 C5100 1.368 . S
C5106 C5105 1.523 . S
C5107 C5091 1.429 . S
C5107 C5103 1.429 . S
C5107 C5108 1.523 . S
C5108 C5092 1.368 . S
C5108 C5104 1.368 . S
C5108 C5107 1.523 . S
H5109 C5084 0.950 . S
H5110 C5086 0.950 . S
H5111 C5087 0.949 . S
H5112 C5089 0.950 . S
H5113 C5091 0.950 . S
C5114 C5115 1.349 . S
C5114 C5116 1.327 . S
C5114 H5139 0.950 . S
C5115 C5114 1.349 . S
C5115 C5131 1.349 . S
C5116 C5114 1.327 . S
C5116 C5135 1.429 . S
C5116 H5140 0.950 . S
C5117 C5134 1.574 . S
C5117 C5136 1.368 . S
C5117 H5141 0.949 . S
H5118 C5122 0.949 . S
C5119 C5120 1.349 . S
C5119 C5121 1.327 . S
C5119 H5142 0.950 . S
C5120 C5119 1.349 . S
C5120 C5132 1.349 . S
C5121 C5119 1.327 . S
C5121 C5137 1.429 . S
C5121 H5143 0.950 . S
C5122 H5118 0.949 . S
C5122 C5130 1.574 . S
C5122 C5138 1.368 . S
H5123 C5131 0.950 . S
H5124 C5129 0.950 . S
H5125 C5130 0.949 . S
H5126 C5132 0.950 . S
H5127 C5133 0.950 . S
H5128 C5134 0.949 . S
C5129 H5124 0.950 . S
C5129 C5131 1.327 . S
C5129 C5135 1.429 . S
C5130 C5122 1.574 . S
C5130 H5125 0.949 . S
C5130 C5136 1.368 . S
C5131 C5115 1.349 . S
C5131 H5123 0.950 . S
C5131 C5129 1.327 . S
C5132 C5120 1.349 . S
C5132 H5126 0.950 . S
C5132 C5133 1.327 . S
C5133 H5127 0.950 . S
C5133 C5132 1.327 . S
C5133 C5137 1.429 . S
C5134 C5117 1.574 . S
C5134 H5128 0.949 . S
C5134 C5138 1.368 . S
C5135 C5116 1.429 . S
C5135 C5129 1.429 . S
C5135 C5136 1.523 . S
C5136 C5117 1.368 . S
C5136 C5130 1.368 . S
C5136 C5135 1.523 . S
C5137 C5121 1.429 . S
C5137 C5133 1.429 . S
C5137 C5138 1.523 . S
C5138 C5122 1.368 . S
C5138 C5134 1.368 . S
C5138 C5137 1.523 . S
H5139 C5114 0.950 . S
H5140 C5116 0.950 . S
H5141 C5117 0.949 . S
H5142 C5119 0.950 . S
H5143 C5121 0.950 . S
C5144 C5145 1.349 . S
C5144 C5146 1.327 . S
C5144 H5169 0.950 . S
C5145 C5144 1.349 . S
C5145 C5161 1.349 . S
C5146 C5144 1.327 . S
C5146 C5165 1.429 . S
C5146 H5170 0.950 . S
C5147 C5164 1.574 . S
C5147 C5166 1.368 . S
C5147 H5171 0.949 . S
H5148 C5152 0.949 . S
C5149 C5150 1.349 . S
C5149 C5151 1.327 . S
C5149 H5172 0.950 . S
C5150 C5149 1.349 . S
C5150 C5162 1.349 . S
C5151 C5149 1.327 . S
C5151 C5167 1.429 . S
C5151 H5173 0.950 . S
C5152 H5148 0.949 . S
C5152 C5160 1.574 . S
C5152 C5168 1.368 . S
H5153 C5161 0.950 . S
H5154 C5159 0.950 . S
H5155 C5160 0.949 . S
H5156 C5162 0.950 . S
H5157 C5163 0.950 . S
H5158 C5164 0.949 . S
C5159 H5154 0.950 . S
C5159 C5161 1.327 . S
C5159 C5165 1.429 . S
C5160 C5152 1.574 . S
C5160 H5155 0.949 . S
C5160 C5166 1.368 . S
C5161 C5145 1.349 . S
C5161 H5153 0.950 . S
C5161 C5159 1.327 . S
C5162 C5150 1.349 . S
C5162 H5156 0.950 . S
C5162 C5163 1.327 . S
C5163 H5157 0.950 . S
C5163 C5162 1.327 . S
C5163 C5167 1.429 . S
C5164 C5147 1.574 . S
C5164 H5158 0.949 . S
C5164 C5168 1.368 . S
C5165 C5146 1.429 . S
C5165 C5159 1.429 . S
C5165 C5166 1.523 . S
C5166 C5147 1.368 . S
C5166 C5160 1.368 . S
C5166 C5165 1.523 . S
C5167 C5151 1.429 . S
C5167 C5163 1.429 . S
C5167 C5168 1.523 . S
C5168 C5152 1.368 . S
C5168 C5164 1.368 . S
C5168 C5167 1.523 . S
H5169 C5144 0.950 . S
H5170 C5146 0.950 . S
H5171 C5147 0.949 . S
H5172 C5149 0.950 . S
H5173 C5151 0.950 . S
C5174 C5175 1.349 . S
C5174 C5176 1.327 . S
C5174 H5199 0.950 . S
C5175 C5174 1.349 . S
C5175 C5191 1.349 . S
C5176 C5174 1.327 . S
C5176 C5195 1.429 . S
C5176 H5200 0.950 . S
C5177 C5194 1.574 . S
C5177 C5196 1.368 . S
C5177 H5201 0.949 . S
H5178 C5182 0.949 . S
C5179 C5180 1.349 . S
C5179 C5181 1.327 . S
C5179 H5202 0.950 . S
C5180 C5179 1.349 . S
C5180 C5192 1.349 . S
C5181 C5179 1.327 . S
C5181 C5197 1.429 . S
C5181 H5203 0.950 . S
C5182 H5178 0.949 . S
C5182 C5190 1.574 . S
C5182 C5198 1.368 . S
H5183 C5191 0.950 . S
H5184 C5189 0.950 . S
H5185 C5190 0.949 . S
H5186 C5192 0.950 . S
H5187 C5193 0.950 . S
H5188 C5194 0.949 . S
C5189 H5184 0.950 . S
C5189 C5191 1.327 . S
C5189 C5195 1.429 . S
C5190 C5182 1.574 . S
C5190 H5185 0.949 . S
C5190 C5196 1.368 . S
C5191 C5175 1.349 . S
C5191 H5183 0.950 . S
C5191 C5189 1.327 . S
C5192 C5180 1.349 . S
C5192 H5186 0.950 . S
C5192 C5193 1.327 . S
C5193 H5187 0.950 . S
C5193 C5192 1.327 . S
C5193 C5197 1.429 . S
C5194 C5177 1.574 . S
C5194 H5188 0.949 . S
C5194 C5198 1.368 . S
C5195 C5176 1.429 . S
C5195 C5189 1.429 . S
C5195 C5196 1.523 . S
C5196 C5177 1.368 . S
C5196 C5190 1.368 . S
C5196 C5195 1.523 . S
C5197 C5181 1.429 . S
C5197 C5193 1.429 . S
C5197 C5198 1.523 . S
C5198 C5182 1.368 . S
C5198 C5194 1.368 . S
C5198 C5197 1.523 . S
H5199 C5174 0.950 . S
H5200 C5176 0.950 . S
H5201 C5177 0.949 . S
H5202 C5179 0.950 . S
H5203 C5181 0.950 . S
C5204 C5205 1.349 . S
C5204 C5206 1.327 . S
C5204 H5229 0.950 . S
C5205 C5204 1.349 . S
C5205 C5221 1.349 . S
C5206 C5204 1.327 . S
C5206 C5225 1.429 . S
C5206 H5230 0.950 . S
C5207 C5224 1.574 . S
C5207 C5226 1.368 . S
C5207 H5231 0.949 . S
H5208 C5212 0.949 . S
C5209 C5210 1.349 . S
C5209 C5211 1.327 . S
C5209 H5232 0.950 . S
C5210 C5209 1.349 . S
C5210 C5222 1.349 . S
C5211 C5209 1.327 . S
C5211 C5227 1.429 . S
C5211 H5233 0.950 . S
C5212 H5208 0.949 . S
C5212 C5220 1.574 . S
C5212 C5228 1.368 . S
H5213 C5221 0.950 . S
H5214 C5219 0.950 . S
H5215 C5220 0.949 . S
H5216 C5222 0.950 . S
H5217 C5223 0.950 . S
H5218 C5224 0.949 . S
C5219 H5214 0.950 . S
C5219 C5221 1.327 . S
C5219 C5225 1.429 . S
C5220 C5212 1.574 . S
C5220 H5215 0.949 . S
C5220 C5226 1.368 . S
C5221 C5205 1.349 . S
C5221 H5213 0.950 . S
C5221 C5219 1.327 . S
C5222 C5210 1.349 . S
C5222 H5216 0.950 . S
C5222 C5223 1.327 . S
C5223 H5217 0.950 . S
C5223 C5222 1.327 . S
C5223 C5227 1.429 . S
C5224 C5207 1.574 . S
C5224 H5218 0.949 . S
C5224 C5228 1.368 . S
C5225 C5206 1.429 . S
C5225 C5219 1.429 . S
C5225 C5226 1.523 . S
C5226 C5207 1.368 . S
C5226 C5220 1.368 . S
C5226 C5225 1.523 . S
C5227 C5211 1.429 . S
C5227 C5223 1.429 . S
C5227 C5228 1.523 . S
C5228 C5212 1.368 . S
C5228 C5224 1.368 . S
C5228 C5227 1.523 . S
H5229 C5204 0.950 . S
H5230 C5206 0.950 . S
H5231 C5207 0.949 . S
H5232 C5209 0.950 . S
H5233 C5211 0.950 . S
C5234 C5235 1.349 . S
C5234 C5236 1.327 . S
C5234 H5259 0.950 . S
C5235 C5234 1.349 . S
C5235 C5251 1.349 . S
C5236 C5234 1.327 . S
C5236 C5255 1.429 . S
C5236 H5260 0.950 . S
C5237 C5254 1.574 . S
C5237 C5256 1.368 . S
C5237 H5261 0.949 . S
H5238 C5242 0.949 . S
C5239 C5240 1.349 . S
C5239 C5241 1.327 . S
C5239 H5262 0.950 . S
C5240 C5239 1.349 . S
C5240 C5252 1.349 . S
C5241 C5239 1.327 . S
C5241 C5257 1.429 . S
C5241 H5263 0.950 . S
C5242 H5238 0.949 . S
C5242 C5250 1.574 . S
C5242 C5258 1.368 . S
H5243 C5251 0.950 . S
H5244 C5249 0.950 . S
H5245 C5250 0.949 . S
H5246 C5252 0.950 . S
H5247 C5253 0.950 . S
H5248 C5254 0.949 . S
C5249 H5244 0.950 . S
C5249 C5251 1.327 . S
C5249 C5255 1.429 . S
C5250 C5242 1.574 . S
C5250 H5245 0.949 . S
C5250 C5256 1.368 . S
C5251 C5235 1.349 . S
C5251 H5243 0.950 . S
C5251 C5249 1.327 . S
C5252 C5240 1.349 . S
C5252 H5246 0.950 . S
C5252 C5253 1.327 . S
C5253 H5247 0.950 . S
C5253 C5252 1.327 . S
C5253 C5257 1.429 . S
C5254 C5237 1.574 . S
C5254 H5248 0.949 . S
C5254 C5258 1.368 . S
C5255 C5236 1.429 . S
C5255 C5249 1.429 . S
C5255 C5256 1.523 . S
C5256 C5237 1.368 . S
C5256 C5250 1.368 . S
C5256 C5255 1.523 . S
C5257 C5241 1.429 . S
C5257 C5253 1.429 . S
C5257 C5258 1.523 . S
C5258 C5242 1.368 . S
C5258 C5254 1.368 . S
C5258 C5257 1.523 . S
H5259 C5234 0.950 . S
H5260 C5236 0.950 . S
H5261 C5237 0.949 . S
H5262 C5239 0.950 . S
H5263 C5241 0.950 . S
C2390 C1281 1.556 . S
C2385 C21 1.549 . S
C2420 C1348 1.423 . S
C2415 C42 1.411 . S
C2445 C82 1.525 . S
C2450 C1373 1.535 . S
C2480 C1433 1.492 . S
C2475 C135 1.493 . S
C2505 C175 1.411 . S
C2510 C1426 1.409 . S
C2535 C221 1.543 . S
C2540 C1302 1.550 . S
C2565 C255 1.480 . S
C2570 C1327 1.480 . S
C2600 C1394 1.571 . S
C2595 C301 1.556 . S
C2630 C1486 1.521 . S
C2625 C15 1.522 . S
C2655 C55 1.423 . S
C2660 C1525 1.422 . S
C2685 C101 1.554 . S
C2690 C1578 1.562 . S
C2720 C1603 1.503 . S
C2715 C141 1.490 . S
C2745 C162 1.437 . S
C2750 C1663 1.447 . S
C2780 C1716 1.519 . S
C2775 C215 1.520 . S
C2805 C261 1.494 . S
C2810 C1755 1.507 . S
C2840 C1794 1.529 . S
C2835 C282 1.513 . S
C2865 C2 1.525 . S
C2870 C1624 1.536 . S
C2895 C181 1.418 . S
C2900 C1695 1.427 . S
C2930 C1748 1.552 . S
C2925 C202 1.542 . S
C2955 C242 1.495 . S
C2960 C1801 1.509 . S
C2990 C1656 1.515 . S
C2985 C295 1.516 . S
C3020 C1518 1.525 . S
C3015 C95 1.526 . S
C3045 C122 1.484 . S
C3050 C1557 1.499 . S
C3080 C1465 1.440 . S
C3075 C61 1.428 . S
C3110 C1833 1.557 . S
C3105 C341 1.549 . S
C3135 C362 1.411 . S
C3140 C1879 1.422 . S
C3165 C402 1.525 . S
C3170 C1946 1.535 . S
C3200 C1992 1.492 . S
C3195 C455 1.493 . S
C3225 C495 1.410 . S
C3230 C1971 1.408 . S
C3255 C541 1.542 . S
C3260 C1854 1.550 . S
C3285 C575 1.480 . S
C3290 C1900 1.479 . S
C3315 C621 1.557 . S
C3320 C1925 1.571 . S
C3350 C1670 1.521 . S
C3345 C335 1.521 . S
C3375 C375 1.423 . S
C3380 C2031 1.422 . S
C3410 C1762 1.561 . S
C3405 C421 1.554 . S
C3435 C461 1.490 . S
C3440 C2063 1.503 . S
C3465 C482 1.438 . S
C3470 C1479 1.448 . S
C3500 C2130 1.519 . S
C3495 C535 1.520 . S
C3525 C581 1.494 . S
C3530 C1571 1.507 . S
C3560 C2162 1.529 . S
C3555 C602 1.513 . S
C3585 C322 1.525 . S
C3590 C2084 1.536 . S
C3620 C2109 1.427 . S
C3615 C501 1.418 . S
C3645 C522 1.542 . S
C3650 C1564 1.552 . S
C3680 C2169 1.510 . S
C3675 C562 1.495 . S
C3705 C615 1.515 . S
C3710 C1472 1.514 . S
C3735 C415 1.526 . S
C3740 C2024 1.525 . S
C3765 C442 1.484 . S
C3770 C1741 1.499 . S
C3795 C381 1.429 . S
C3800 C1649 1.440 . S
C3825 C661 1.549 . S
C3830 C1939 1.557 . S
C3860 C1985 1.423 . S
C3855 C682 1.411 . S
C3885 C722 1.525 . S
C3890 C1840 1.535 . S
C3915 C775 1.493 . S
C3920 C1886 1.493 . S
C3945 C815 1.411 . S
C3950 C1893 1.410 . S
C3975 C861 1.543 . S
C3980 C1932 1.551 . S
C4010 C1978 1.479 . S
C4005 C895 1.480 . S
C4035 C941 1.557 . S
C4040 C1847 1.571 . S
C4070 C2201 1.521 . S
C4065 C655 1.522 . S
C4095 C695 1.423 . S
C4100 C1709 1.422 . S
C4130 C2247 1.562 . S
C4125 C741 1.554 . S
C4155 C781 1.491 . S
C4160 C1787 1.504 . S
C4185 C802 1.438 . S
C4190 C2314 1.448 . S
C4215 C855 1.520 . S
C4220 C1532 1.519 . S
C4250 C2346 1.506 . S
C4245 C901 1.493 . S
C4275 C922 1.513 . S
C4280 C1610 1.529 . S
C4310 C1808 1.535 . S
C4305 C642 1.524 . S
C4340 C1511 1.427 . S
C4335 C821 1.418 . S
C4365 C842 1.542 . S
C4370 C2353 1.552 . S
C4395 C882 1.495 . S
C4400 C1617 1.510 . S
C4430 C2293 1.514 . S
C4425 C935 1.515 . S
C4460 C1702 1.525 . S
C4455 C735 1.526 . S
C4490 C2268 1.499 . S
C4485 C762 1.484 . S
C4520 C2222 1.439 . S
C4515 C701 1.428 . S
C4545 C981 1.549 . S
C4550 C1380 1.557 . S
C4575 C1002 1.411 . S
C4580 C1440 1.423 . S
C4610 C1288 1.534 . S
C4605 C1042 1.524 . S
C4640 C1341 1.492 . S
C4635 C1095 1.493 . S
C4670 C1334 1.409 . S
C4665 C1135 1.411 . S
C4700 C1387 1.549 . S
C4695 C1181 1.542 . S
C4730 C1419 1.480 . S
C4725 C1215 1.480 . S
C4755 C1261 1.557 . S
C4760 C1295 1.572 . S
C4785 C975 1.522 . S
C4790 C2307 1.521 . S
C4820 C2123 1.421 . S
C4815 C1015 1.422 . S
C4850 C2339 1.562 . S
C4845 C1061 1.554 . S
C4880 C2155 1.503 . S
C4875 C1101 1.490 . S
C4905 C1122 1.438 . S
C4910 C2208 1.449 . S
C4940 C2038 1.520 . S
C4935 C1175 1.521 . S
C4970 C2254 1.506 . S
C4965 C1221 1.493 . S
C4995 C1242 1.512 . S
C5000 C2070 1.529 . S
C5030 C2176 1.536 . S
C5025 C962 1.524 . S
C5060 C2017 1.427 . S
C5055 C1141 1.418 . S
C5090 C2261 1.552 . S
C5085 C1162 1.542 . S
C5115 C1202 1.495 . S
C5120 C2077 1.510 . S
C5145 C1255 1.515 . S
C5150 C2215 1.515 . S
C5175 C1055 1.526 . S
C5180 C2116 1.525 . S
C5205 C1082 1.483 . S
C5210 C2360 1.498 . S
C5240 C2300 1.439 . S
C5235 C1021 1.428 . S
