# Generated by pormake.
# Topology anh, (6,3)-cn, num edge types: 1
# Building blocks:
#     Node 0, Type 0, BuildingBlock: CUKXOW_clean_sbu_0, # of connection points: 6
#     Node 1, Type 0, BuildingBlock: CUKXOW_clean_sbu_0, # of connection points: 6
#     Node 2, Type 0, BuildingBlock: CUKXOW_clean_sbu_0, # of connection points: 6
#     Node 3, Type 1, BuildingBlock: PAMTOO_clean_linker_0, # of connection points: 3
#     Node 4, Type 1, BuildingBlock: PAMTOO_clean_linker_0, # of connection points: 3
#     Node 5, Type 1, BuildingBlock: PAMTOO_clean_linker_0, # of connection points: 3
#     Node 6, Type 1, BuildingBlock: PAMTOO_clean_linker_0, # of connection points: 3
#     Node 7, Type 1, BuildingBlock: PAMTOO_clean_linker_0, # of connection points: 3
#     Node 8, Type 1, BuildingBlock: PAMTOO_clean_linker_0, # of connection points: 3
#     Edge 9, Type (0, 1), BuildingBlock: AJUNOK_clean_linker_0, # of connection points: 2
#     Edge 10, Type (0, 1), BuildingBlock: AJUNOK_clean_linker_0, # of connection points: 2
#     Edge 11, Type (0, 1), BuildingBlock: AJUNOK_clean_linker_0, # of connection points: 2
#     Edge 12, Type (0, 1), BuildingBlock: AJUNOK_clean_linker_0, # of connection points: 2
#     Edge 13, Type (0, 1), BuildingBlock: AJUNOK_clean_linker_0, # of connection points: 2
#     Edge 14, Type (0, 1), BuildingBlock: AJUNOK_clean_linker_0, # of connection points: 2
#     Edge 15, Type (0, 1), BuildingBlock: AJUNOK_clean_linker_0, # of connection points: 2
#     Edge 16, Type (0, 1), BuildingBlock: AJUNOK_clean_linker_0, # of connection points: 2
#     Edge 17, Type (0, 1), BuildingBlock: AJUNOK_clean_linker_0, # of connection points: 2
#     Edge 18, Type (0, 1), BuildingBlock: AJUNOK_clean_linker_0, # of connection points: 2
#     Edge 19, Type (0, 1), BuildingBlock: AJUNOK_clean_linker_0, # of connection points: 2
#     Edge 20, Type (0, 1), BuildingBlock: AJUNOK_clean_linker_0, # of connection points: 2
#     Edge 21, Type (0, 1), BuildingBlock: AJUNOK_clean_linker_0, # of connection points: 2
#     Edge 22, Type (0, 1), BuildingBlock: AJUNOK_clean_linker_0, # of connection points: 2
#     Edge 23, Type (0, 1), BuildingBlock: AJUNOK_clean_linker_0, # of connection points: 2
#     Edge 24, Type (0, 1), BuildingBlock: AJUNOK_clean_linker_0, # of connection points: 2
#     Edge 25, Type (0, 1), BuildingBlock: AJUNOK_clean_linker_0, # of connection points: 2
#     Edge 26, Type (0, 1), BuildingBlock: AJUNOK_clean_linker_0, # of connection points: 2
# Relax obj value: 0.111
# Max RMSD: 0.161
# Mean RMSD: 0.123
data_MOF--net-anh--node1-CUKXOW_clean_sbu_0--node2-PAMTOO_clean_linker_0--edge1-AJUNOK_clean_linker_0
_symmetry_space_group_name_H-M    P1
_symmetry_Int_Tables_number       1
_symmetry_cell_setting            triclinic
loop_
_symmetry_equiv_pos_as_xyz
'x, y, z'
_cell_length_a     20.605118
_cell_length_b     20.1237
_cell_length_c     35.854549
_cell_angle_alpha  89.216527
_cell_angle_beta   92.447277
_cell_angle_gamma 110.03236
loop_
_atom_site_label
_atom_site_type_symbol
_atom_site_fract_x
_atom_site_fract_y
_atom_site_fract_z
_atom_type_partial_charge
Tb0 Tb 0.13315 0.59336 0.15664 0.0
C1 C 0.10459 0.51297 0.2332 0.0
Tb2 Tb 1.05663 0.43677 0.15447 0.0
O3 O 1.03861 0.61712 0.16836 0.0
O4 O 1.03134 0.52763 0.13909 0.0
O5 O 0.1408 0.57211 0.21616 0.0
C6 C 0.94514 0.32252 0.16466 0.0
O7 O 0.06645 0.45545 0.21461 0.0
C8 C 0.19251 0.47161 0.15047 0.0
C9 C 0.09274 0.51402 0.07855 0.0
O10 O 0.95317 0.38664 0.17425 0.0
O11 O 1.00151 0.32159 0.1498 0.0
O12 O 0.14764 0.41318 0.13699 0.0
O13 O 0.15999 0.50229 0.16928 0.0
O14 O 1.05042 0.45772 0.09529 0.0
O15 O 0.13289 0.57077 0.09715 0.0
C16 C 0.23858 0.71468 0.14826 0.0
O17 O 0.18393 0.70757 0.16698 0.0
O18 O 0.2325 0.65422 0.13384 0.0
C19 C 0.99531 0.5585 0.15444 0.0
Tb20 Tb 0.53092 1.00925 0.48986 0.0
C21 C 0.60172 0.04601 0.4121 0.0
Tb22 Tb 0.68153 0.09259 0.48861 0.0
O23 O 0.50677 0.10264 0.50602 0.0
O24 O 0.59035 0.1139 0.47342 0.0
O25 O 0.54917 1.00298 0.43043 0.0
C26 C 0.80235 0.19866 0.49197 0.0
O27 O 0.65481 0.0943 0.42938 0.0
C28 C 0.65169 0.95407 0.48585 0.0
C29 C 0.6126 0.04831 0.56675 0.0
O30 O 0.79321 0.13443 0.48169 0.0
O31 O 0.74356 0.20262 0.50102 0.0
O32 O 0.70564 0.99965 0.47131 0.0
O33 O 0.62218 0.98762 0.50428 0.0
O34 O 0.66475 0.09333 0.54876 0.0
O35 O 0.55934 1.00219 0.54841 0.0
C36 C 0.40766 0.90693 0.4846 0.0
O37 O 0.42169 0.96525 0.5032 0.0
O38 O 0.46273 0.9068 0.46854 0.0
C39 C 0.56089 0.14774 0.49158 0.0
Tb40 Tb 0.56868 0.50305 0.80463 0.0
C41 C 0.63878 0.52896 0.8842 0.0
Tb42 Tb 0.71419 0.5666 0.81015 0.0
O43 O 0.58101 0.41316 0.77624 0.0
O44 O 0.6492 0.46212 0.81938 0.0
O45 O 0.58398 0.53101 0.86415 0.0
C46 C 0.84713 0.58823 0.80094 0.0
O47 O 0.69513 0.52974 0.86747 0.0
C48 C 0.6556 0.6616 0.81922 0.0
C49 C 0.63879 0.54859 0.7297 0.0
O50 O 0.82361 0.62778 0.82074 0.0
O51 O 0.7957 0.53628 0.78717 0.0
O52 O 0.71244 0.66155 0.83614 0.0
O53 O 0.63479 0.61022 0.79638 0.0
O54 O 0.69815 0.56445 0.74918 0.0
O55 O 0.5792 0.52893 0.74613 0.0
C56 C 0.43248 0.44297 0.80509 0.0
O57 O 0.4765 0.41928 0.82216 0.0
O58 O 0.46478 0.50351 0.7899 0.0
C59 C 0.63496 0.41305 0.79579 0.0
H60 H 0.72589 0.12033 0.25644 0.0
H61 H 0.52963 0.95404 0.23651 0.0
H62 H 0.65875 0.04452 0.14501 0.0
H63 H 0.50165 0.98262 0.11873 0.0
C64 C 0.48837 0.96515 0.14781 0.0
O65 O 0.54235 0.94856 0.1648 0.0
H66 H 0.47979 1.00972 0.16252 0.0
C67 C 0.68762 0.08436 0.23766 0.0
C68 C 0.69926 0.0881 0.19935 0.0
C69 C 0.62683 0.03606 0.25175 0.0
C70 C 0.57791 0.99041 0.22671 0.0
C71 C 0.58987 0.9929 0.18844 0.0
C72 C 0.65063 0.04158 0.17474 0.0
H73 H 0.63627 0.69024 0.57548 0.0
H74 H 0.64176 0.48273 0.55405 0.0
H75 H 0.63705 0.62105 0.46223 0.0
H76 H 0.58685 0.45048 0.43509 0.0
C77 C 0.5861 0.44368 0.4659 0.0
O78 O 0.6434 0.49548 0.48168 0.0
H79 H 0.5372 0.4502 0.47434 0.0
C80 C 0.63643 0.64999 0.5557 0.0
C81 C 0.6345 0.66356 0.5172 0.0
C82 C 0.6385 0.58503 0.56909 0.0
C83 C 0.63953 0.5329 0.54386 0.0
C84 C 0.63929 0.5457 0.50542 0.0
C85 C 0.63719 0.61128 0.49201 0.0
H86 H 1.04621 0.5715 0.90614 0.0
H87 H 0.16811 0.43768 0.9236 0.0
H88 H 0.13212 0.50237 0.81268 0.0
H89 H 0.11418 0.36441 0.81504 0.0
C90 C 0.15681 0.36247 0.8347 0.0
O91 O 0.18696 0.4258 0.85328 0.0
H92 H 0.13555 0.31894 0.85503 0.0
C93 C 0.0778 0.5438 0.89484 0.0
C94 C 0.08433 0.54084 0.8561 0.0
C95 C 0.10928 0.50811 0.91917 0.0
C96 C 0.14517 0.46718 0.90499 0.0
C97 C 0.1519 0.46451 0.86668 0.0
C98 C 0.12484 0.504 0.84236 0.0
H99 H 1.01087 0.39986 0.39262 0.0
H100 H 0.18157 0.59552 0.40709 0.0
H101 H 0.07173 0.49005 0.50208 0.0
H102 H 0.12935 0.65568 0.51262 0.0
C103 C 0.15468 0.66167 0.48543 0.0
O104 O 0.17059 0.60151 0.47927 0.0
H105 H 0.11812 0.66898 0.46328 0.0
C106 C 1.04591 0.44058 0.41055 0.0
C107 C 1.03627 0.43731 0.44912 0.0
C108 C 0.09841 0.49728 0.39492 0.0
C109 C 0.14094 0.55118 0.41852 0.0
C110 C 0.13071 0.54862 0.45696 0.0
C111 C 0.0788 0.49171 0.47226 0.0
H112 H 0.62069 0.9067 0.7217 0.0
H113 H 0.67702 0.12983 0.74201 0.0
H114 H 0.67892 0.99032 0.83298 0.0
H115 H 0.69144 0.14981 0.86504 0.0
C116 C 0.6688 0.14581 0.83613 0.0
O117 O 0.70814 0.12207 0.81306 0.0
H118 H 0.61517 0.1071 0.8375 0.0
C119 C 0.63414 0.95035 0.74124 0.0
C120 C 0.64536 0.93858 0.77935 0.0
C121 C 0.64399 1.0188 0.72758 0.0
C122 C 0.66777 0.07655 0.75218 0.0
C123 C 0.68088 0.06592 0.78997 0.0
C124 C 0.66889 0.99731 0.80355 0.0
H125 H 0.74928 0.53861 0.0519 0.0
H126 H 0.53188 0.50662 0.05341 0.0
H127 H 0.65034 0.5202 0.15682 0.0
H128 H 0.50488 0.59424 0.10813 0.0
C129 C 0.49713 0.5581 0.13258 0.0
O130 O 0.52413 0.50471 0.12576 0.0
H131 H 0.52706 0.58957 0.15674 0.0
C132 C 0.70304 0.53028 0.06732 0.0
C133 C 0.70799 0.52799 0.10652 0.0
C134 C 0.64006 0.52147 0.04767 0.0
C135 C 0.58102 0.51428 0.06803 0.0
C136 C 0.58404 0.51542 0.10731 0.0
C137 C 0.64803 0.52208 0.12662 0.0
C138 C 0.29872 0.45565 0.12366 0.0
C139 C 0.27018 0.49254 0.14779 0.0
C140 C 0.37111 0.4748 0.11971 0.0
C141 C 0.41896 0.53117 0.14016 0.0
H142 H 0.26467 0.41207 0.10706 0.0
H143 H 0.38967 0.44586 0.09998 0.0
S144 S 0.37218 0.64613 0.20673 0.0
N145 N 0.29688 0.58867 0.19243 0.0
N146 N 0.43128 0.62515 0.18472 0.0
C147 C 0.39096 0.56858 0.16427 0.0
C148 C 0.31741 0.54907 0.16829 0.0
C149 C 0.92098 0.24993 0.4685 0.0
C150 C 0.86574 0.25971 0.4866 0.0
C151 C 0.9772 0.30786 0.45751 0.0
C152 C 0.9804 0.37738 0.46469 0.0
H153 H 0.91954 0.19729 0.46135 0.0
H154 H 1.01772 0.29832 0.4425 0.0
S155 S 0.85104 0.43142 0.5131 0.0
N156 N 0.81913 0.34411 0.51273 0.0
N157 N 0.92541 0.4531 0.49224 0.0
C158 C 0.92715 0.38792 0.48425 0.0
C159 C 0.86958 0.32895 0.49519 0.0
C160 C 0.69244 0.79186 0.82826 0.0
C161 C 0.64391 0.72965 0.81296 0.0
C162 C 0.69085 0.85863 0.8182 0.0
C163 C 0.63974 0.8664 0.79298 0.0
H164 H 0.73445 0.78949 0.84684 0.0
H165 H 0.73222 0.9045 0.82906 0.0
S166 S 0.49307 0.71943 0.75029 0.0
N167 N 0.53892 0.67932 0.77445 0.0
N168 N 0.53344 0.80507 0.75687 0.0
C169 C 0.58767 0.80432 0.77961 0.0
C170 C 0.5902 0.73599 0.78936 0.0
C171 C 0.88678 0.59201 0.15848 0.0
C172 C 0.91919 0.54536 0.1456 0.0
C173 C 0.81713 0.58402 0.14806 0.0
C174 C 0.77635 0.52871 0.12438 0.0
H175 H 0.91615 0.63655 0.17594 0.0
H176 H 0.79617 0.62329 0.15725 0.0
S177 S 0.83289 0.38816 0.08547 0.0
N178 N 0.902 0.43939 0.10913 0.0
N179 N 0.77243 0.42345 0.09078 0.0
C180 C 0.8071 0.47995 0.11283 0.0
C181 C 0.87783 0.48843 0.12305 0.0
C182 C 0.33355 0.78841 0.4615 0.0
C183 C 0.34182 0.84726 0.48421 0.0
C184 C 0.27318 0.72916 0.46184 0.0
C185 C 0.21945 0.72594 0.48556 0.0
H186 H 0.37416 0.78786 0.44341 0.0
H187 H 0.26917 0.68531 0.44369 0.0
S188 S 0.2141 0.86812 0.54873 0.0
N189 N 0.29018 0.90052 0.52969 0.0
N190 N 0.17663 0.78846 0.53056 0.0
C191 C 0.22632 0.7853 0.50762 0.0
C192 C 0.28767 0.84601 0.50705 0.0
C193 C 0.60808 0.28365 0.78611 0.0
C194 C 0.65165 0.34782 0.80207 0.0
C195 C 0.61546 0.21912 0.79639 0.0
C196 C 0.66668 0.21647 0.82292 0.0
H197 H 0.56601 0.28275 0.76672 0.0
H198 H 0.57939 0.17066 0.78445 0.0
S199 S 0.8015 0.37027 0.86788 0.0
N200 N 0.75306 0.4054 0.84224 0.0
N201 N 0.76737 0.28391 0.86122 0.0
C202 C 0.71385 0.28053 0.83694 0.0
C203 C 0.70612 0.34629 0.82665 0.0
C204 C 0.6871 0.84831 0.47466 0.0
C205 C 0.64108 0.87732 0.49035 0.0
C206 C 0.68244 0.77775 0.4816 0.0
C207 C 0.63155 0.73352 0.5045 0.0
H208 H 0.72854 0.881 0.45786 0.0
H209 H 0.72088 0.75877 0.4704 0.0
S210 S 0.49304 0.78055 0.54837 0.0
N211 N 0.53928 0.85378 0.52721 0.0
N212 N 0.52996 0.72166 0.53971 0.0
C213 C 0.5829 0.7607 0.51857 0.0
C214 C 0.58778 0.83237 0.51164 0.0
C215 C 0.96795 0.64035 0.82541 0.0
C216 C 0.91854 0.58933 0.80309 0.0
C217 C 1.02773 0.62873 0.83893 0.0
C218 C 1.03895 0.56543 0.83081 0.0
H219 H 0.95752 0.68618 0.8353 0.0
H220 H 0.06189 0.66617 0.8587 0.0
S221 S 0.93218 0.42377 0.76611 0.0
N222 N 0.89108 0.48109 0.76694 0.0
N223 N 1.00165 0.45722 0.79374 0.0
C224 C 0.99436 0.51879 0.80441 0.0
C225 C 0.93425 0.53133 0.79017 0.0
C226 C 0.30407 0.84114 0.16482 0.0
C227 C 0.30108 0.77864 0.14663 0.0
C228 C 0.36434 0.90115 0.16506 0.0
C229 C 0.42362 0.90065 0.1471 0.0
H230 H 0.25982 0.84355 0.17926 0.0
H231 H 0.36465 0.94811 0.17958 0.0
S232 S 0.44288 0.75012 0.09596 0.0
N233 N 0.36302 0.71985 0.11044 0.0
N234 N 0.47573 0.83273 0.1108 0.0
C235 C 0.42113 0.83867 0.1287 0.0
C236 C 0.36001 0.77764 0.12848 0.0
C237 C 0.61436 0.2651 0.45973 0.0
C238 C 0.57334 0.22492 0.48809 0.0
C239 C 0.62052 0.3363 0.45368 0.0
C240 C 0.58609 0.37001 0.47582 0.0
H241 H 0.63996 0.24077 0.44124 0.0
H242 H 0.65057 0.36452 0.43073 0.0
S243 S 0.48126 0.29162 0.55721 0.0
N244 N 0.50392 0.22664 0.54097 0.0
N245 N 0.51606 0.3601 0.52976 0.0
C246 C 0.54875 0.3318 0.50572 0.0
C247 C 0.54206 0.25933 0.51173 0.0
C248 C 0.32926 0.35022 0.82857 0.0
C249 C 0.35771 0.40621 0.80371 0.0
C250 C 0.25819 0.32407 0.83366 0.0
C251 C 0.21411 0.35326 0.81389 0.0
H252 H 0.36238 0.33084 0.84661 0.0
H253 H 0.23911 0.28777 0.85652 0.0
S254 S 0.2616 0.48558 0.7379 0.0
N255 N 0.33578 0.47888 0.75337 0.0
N256 N 0.20145 0.42893 0.76276 0.0
C257 C 0.24083 0.40068 0.78466 0.0
C258 C 0.31328 0.42822 0.77991 0.0
C259 C 0.87903 0.19174 0.16683 0.0
C260 C 0.88069 0.26199 0.16976 0.0
C261 C 0.8189 0.13458 0.17477 0.0
C262 C 0.75889 0.14635 0.18552 0.0
H263 H 0.92496 0.18097 0.15958 0.0
H264 H 0.82002 0.08121 0.17377 0.0
S265 S 0.73401 0.31923 0.19341 0.0
N266 N 0.81497 0.33927 0.18149 0.0
N267 N 0.70285 0.2321 0.19609 0.0
C268 C 0.75904 0.21591 0.18688 0.0
C269 C 0.81977 0.27375 0.17905 0.0
C270 C 0.15784 0.54718 0.0208 0.0
C271 C 0.0946 0.5144 0.03782 0.0
C272 C 0.16212 0.54512 -0.01789 0.0
C273 C 0.10301 0.51158 0.95946 0.0
H274 H 0.20461 0.57295 0.03755 0.0
H275 H 0.21183 0.56967 0.96979 0.0
S276 S 0.92487 0.42168 -0.00996 0.0
N277 N 0.97139 0.44938 0.02908 0.0
N278 N 0.97951 0.44708 0.95596 0.0
C279 C 1.03926 0.48026 0.9759 0.0
C280 C 1.03503 0.4812 0.01531 0.0
C281 C 0.62601 0.10381 0.35006 0.0
C282 C 0.60121 0.04155 0.37111 0.0
C283 C 0.6316 0.10125 0.3114 0.0
C284 C 0.61431 0.03628 0.29236 0.0
H285 H 0.64149 0.155 0.36362 0.0
H286 H 0.65046 0.15082 0.29638 0.0
S287 S 0.54841 0.85794 0.33542 0.0
N288 N 0.55834 0.91314 0.3706 0.0
N289 N 0.57189 0.90792 0.29802 0.0
C290 C 0.58856 0.97346 0.31318 0.0
C291 C 0.58142 0.97622 0.35255 0.0
C292 C 0.69407 0.60688 0.67159 0.0
C293 C 0.63911 0.55504 0.68865 0.0
C294 C 0.69383 0.61588 0.63275 0.0
C295 C 0.63946 0.57223 0.60971 0.0
H296 H 0.7367 0.6419 0.6884 0.0
H297 H 0.7363 0.65737 0.62062 0.0
S298 S 0.48535 0.42651 0.64025 0.0
N299 N 0.52982 0.45821 0.67938 0.0
N300 N 0.53044 0.47445 0.60628 0.0
C301 C 0.58519 0.51912 0.62625 0.0
C302 C 0.5847 0.51074 0.66579 0.0
C303 C 0.67686 0.08642 0.62824 0.0
C304 C 0.61723 0.04376 0.60814 0.0
C305 C 0.68437 0.07956 0.66703 0.0
C306 C 0.63264 0.02969 0.68717 0.0
H307 H 0.71888 0.12446 0.61391 0.0
H308 H 0.73196 0.11203 0.68119 0.0
S309 S 0.46376 0.90975 0.64889 0.0
N310 N 0.50331 0.95285 0.6122 0.0
N311 N 0.51788 0.94067 0.68492 0.0
C312 C 0.57183 0.9885 0.66777 0.0
C313 C 0.56397 0.99541 0.62835 0.0
C314 C 0.60013 0.55825 0.94563 0.0
C315 C 0.63676 0.52386 0.9256 0.0
C316 C 0.60046 0.55644 -0.01505 0.0
C317 C 0.6366 0.51927 0.00577 0.0
H318 H 0.57255 0.58843 0.93089 0.0
H319 H 0.57354 0.58583 -0.00088 0.0
S320 S 0.73192 0.4115 0.96602 0.0
N321 N 0.70534 0.44685 0.92924 0.0
N322 N 0.70347 0.44055 0.00257 0.0
C323 C 0.67065 0.48187 -0.01424 0.0
C324 C 0.67138 0.48491 0.94589 0.0
C325 C 0.11515 0.56944 0.29584 0.0
C326 C 0.10869 0.50947 0.27435 0.0
C327 C 0.11347 0.56554 0.3349 0.0
C328 C 0.10617 0.50173 0.35384 0.0
H329 H 0.11903 0.61908 0.28235 0.0
H330 H 0.11567 0.61229 0.35026 0.0
S331 S 0.09798 0.33249 0.31047 0.0
N332 N 0.10105 0.38616 0.27483 0.0
N333 N 0.1002 0.37943 0.3482 0.0
C334 C 0.1033 0.44239 0.33266 0.0
C335 C 0.10401 0.44611 0.29294 0.0
loop_
_geom_bond_atom_site_label_1
_geom_bond_atom_site_label_2
_geom_bond_distance
_geom_bond_site_symmetry_2
_ccdc_geom_bond_type
Tb0 O3 2.453 1_455 S
Tb0 O4 2.596 1_455 S
Tb0 O5 2.374 . S
Tb0 O13 2.343 . S
Tb0 O15 2.353 . S
Tb0 O17 2.427 . S
Tb0 O18 2.513 . S
C1 O5 1.251 1_655 S
C1 O7 1.263 . S
Tb2 O4 2.343 . S
Tb2 O7 2.353 . S
Tb2 O10 2.427 . S
Tb2 O11 2.513 . S
Tb2 O12 2.453 1_655 S
Tb2 O13 2.596 1_655 S
Tb2 O14 2.374 . S
O3 Tb0 2.453 1_655 S
O3 C19 1.245 . S
O4 Tb0 2.596 1_655 S
O4 Tb2 2.343 . S
O4 C19 1.259 . S
O5 Tb0 2.374 . S
O5 C1 1.251 1_455 S
C6 O10 1.275 . S
C6 O11 1.246 . S
O7 C1 1.263 . S
O7 Tb2 2.353 . S
C8 O12 1.245 . S
C8 O13 1.259 . S
C9 O14 1.250 1_455 S
C9 O15 1.263 . S
O10 Tb2 2.427 . S
O10 C6 1.275 . S
O11 Tb2 2.513 . S
O11 C6 1.246 . S
O12 Tb2 2.453 1_455 S
O12 C8 1.245 . S
O13 Tb0 2.343 . S
O13 Tb2 2.596 1_455 S
O13 C8 1.259 . S
O14 Tb2 2.374 . S
O14 C9 1.250 1_655 S
O15 Tb0 2.353 . S
O15 C9 1.263 . S
C16 O17 1.275 . S
C16 O18 1.246 . S
O17 Tb0 2.427 . S
O17 C16 1.275 . S
O18 Tb0 2.513 . S
O18 C16 1.246 . S
C19 O3 1.245 . S
C19 O4 1.259 . S
Tb20 O23 2.453 1_565 S
Tb20 O24 2.596 1_565 S
Tb20 O25 2.374 1_565 S
Tb20 O33 2.343 . S
Tb20 O35 2.353 1_565 S
Tb20 O37 2.427 . S
Tb20 O38 2.513 . S
C21 O25 1.251 . S
C21 O27 1.263 . S
Tb22 O24 2.343 . S
Tb22 O27 2.353 . S
Tb22 O30 2.427 . S
Tb22 O31 2.513 . S
Tb22 O32 2.453 1_545 S
Tb22 O33 2.596 1_545 S
Tb22 O34 2.374 . S
O23 Tb20 2.453 1_545 S
O23 C39 1.245 . S
O24 Tb20 2.596 1_545 S
O24 Tb22 2.343 . S
O24 C39 1.259 . S
O25 Tb20 2.374 1_545 S
O25 C21 1.251 . S
C26 O30 1.275 . S
C26 O31 1.246 . S
O27 C21 1.263 . S
O27 Tb22 2.353 . S
C28 O32 1.245 . S
C28 O33 1.259 . S
C29 O34 1.250 . S
C29 O35 1.263 . S
O30 Tb22 2.427 . S
O30 C26 1.275 . S
O31 Tb22 2.513 . S
O31 C26 1.246 . S
O32 Tb22 2.453 1_565 S
O32 C28 1.245 . S
O33 Tb20 2.343 . S
O33 Tb22 2.596 1_565 S
O33 C28 1.259 . S
O34 Tb22 2.374 . S
O34 C29 1.250 . S
O35 Tb20 2.353 1_545 S
O35 C29 1.263 . S
C36 O37 1.275 . S
C36 O38 1.246 . S
O37 Tb20 2.427 . S
O37 C36 1.275 . S
O38 Tb20 2.513 . S
O38 C36 1.246 . S
C39 O23 1.245 . S
C39 O24 1.259 . S
Tb40 O43 2.453 . S
Tb40 O44 2.596 . S
Tb40 O45 2.374 . S
Tb40 O53 2.343 . S
Tb40 O55 2.353 . S
Tb40 O57 2.427 . S
Tb40 O58 2.513 . S
C41 O45 1.251 . S
C41 O47 1.263 . S
Tb42 O44 2.343 . S
Tb42 O47 2.353 . S
Tb42 O50 2.427 . S
Tb42 O51 2.513 . S
Tb42 O52 2.453 . S
Tb42 O53 2.596 . S
Tb42 O54 2.374 . S
O43 Tb40 2.453 . S
O43 C59 1.245 . S
O44 Tb40 2.596 . S
O44 Tb42 2.343 . S
O44 C59 1.259 . S
O45 Tb40 2.374 . S
O45 C41 1.251 . S
C46 O50 1.275 . S
C46 O51 1.246 . S
O47 C41 1.263 . S
O47 Tb42 2.353 . S
C48 O52 1.245 . S
C48 O53 1.259 . S
C49 O54 1.250 . S
C49 O55 1.263 . S
O50 Tb42 2.427 . S
O50 C46 1.275 . S
O51 Tb42 2.513 . S
O51 C46 1.246 . S
O52 Tb42 2.453 . S
O52 C48 1.245 . S
O53 Tb40 2.343 . S
O53 Tb42 2.596 . S
O53 C48 1.259 . S
O54 Tb42 2.374 . S
O54 C49 1.250 . S
O55 Tb40 2.353 . S
O55 C49 1.263 . S
C56 O57 1.275 . S
C56 O58 1.246 . S
O57 Tb40 2.427 . S
O57 C56 1.275 . S
O58 Tb40 2.513 . S
O58 C56 1.246 . S
C59 O43 1.245 . S
C59 O44 1.259 . S
H60 C67 0.929 . S
H61 C70 0.930 . S
H62 C72 0.929 . S
H63 C64 0.969 . S
C64 H63 0.969 . S
C64 O65 1.550 . S
C64 H66 0.973 . S
O65 C64 1.550 . S
O65 C71 1.412 . S
H66 C64 0.973 . S
C67 H60 0.929 . S
C67 C68 1.400 . S
C67 C69 1.364 . S
C68 C67 1.400 . S
C68 C72 1.377 . S
C69 C67 1.364 . S
C69 C70 1.374 1_545 S
C70 H61 0.930 . S
C70 C69 1.374 1_565 S
C70 C71 1.383 . S
C71 O65 1.412 . S
C71 C70 1.383 . S
C71 C72 1.394 1_565 S
C72 H62 0.929 . S
C72 C68 1.377 . S
C72 C71 1.394 1_545 S
H73 C80 0.929 . S
H74 C83 0.930 . S
H75 C85 0.929 . S
H76 C77 0.969 . S
C77 H76 0.969 . S
C77 O78 1.550 . S
C77 H79 0.973 . S
O78 C77 1.550 . S
O78 C84 1.412 . S
H79 C77 0.973 . S
C80 H73 0.929 . S
C80 C81 1.400 . S
C80 C82 1.364 . S
C81 C80 1.400 . S
C81 C85 1.377 . S
C82 C80 1.364 . S
C82 C83 1.374 . S
C83 H74 0.930 . S
C83 C82 1.374 . S
C83 C84 1.383 . S
C84 O78 1.412 . S
C84 C83 1.383 . S
C84 C85 1.394 . S
C85 H75 0.929 . S
C85 C81 1.377 . S
C85 C84 1.394 . S
H86 C93 0.929 1_655 S
H87 C96 0.930 . S
H88 C98 0.929 . S
H89 C90 0.969 . S
C90 H89 0.969 . S
C90 O91 1.550 . S
C90 H92 0.973 . S
O91 C90 1.550 . S
O91 C97 1.412 . S
H92 C90 0.973 . S
C93 H86 0.929 1_455 S
C93 C94 1.400 . S
C93 C95 1.364 . S
C94 C93 1.400 . S
C94 C98 1.377 . S
C95 C93 1.364 . S
C95 C96 1.374 . S
C96 H87 0.930 . S
C96 C95 1.374 . S
C96 C97 1.383 . S
C97 O91 1.412 . S
C97 C96 1.383 . S
C97 C98 1.394 . S
C98 H88 0.929 . S
C98 C94 1.377 . S
C98 C97 1.394 . S
H99 C106 0.929 . S
H100 C109 0.930 . S
H101 C111 0.929 . S
H102 C103 0.969 . S
C103 H102 0.969 . S
C103 O104 1.550 . S
C103 H105 0.973 . S
O104 C103 1.550 . S
O104 C110 1.412 . S
H105 C103 0.973 . S
C106 H99 0.929 . S
C106 C107 1.400 . S
C106 C108 1.364 1_655 S
C107 C106 1.400 . S
C107 C111 1.377 1_655 S
C108 C106 1.364 1_455 S
C108 C109 1.374 . S
C109 H100 0.930 . S
C109 C108 1.374 . S
C109 C110 1.383 . S
C110 O104 1.412 . S
C110 C109 1.383 . S
C110 C111 1.394 . S
C111 H101 0.929 . S
C111 C107 1.377 1_455 S
C111 C110 1.394 . S
H112 C119 0.929 . S
H113 C122 0.930 . S
H114 C124 0.929 . S
H115 C116 0.969 . S
C116 H115 0.969 . S
C116 O117 1.550 . S
C116 H118 0.973 . S
O117 C116 1.550 . S
O117 C123 1.412 . S
H118 C116 0.973 . S
C119 H112 0.929 . S
C119 C120 1.400 . S
C119 C121 1.364 . S
C120 C119 1.400 . S
C120 C124 1.377 . S
C121 C119 1.364 . S
C121 C122 1.374 1_565 S
C122 H113 0.930 . S
C122 C121 1.374 1_545 S
C122 C123 1.383 . S
C123 O117 1.412 . S
C123 C122 1.383 . S
C123 C124 1.394 1_545 S
C124 H114 0.929 . S
C124 C120 1.377 . S
C124 C123 1.394 1_565 S
H125 C132 0.929 . S
H126 C135 0.930 . S
H127 C137 0.929 . S
H128 C129 0.969 . S
C129 H128 0.969 . S
C129 O130 1.550 . S
C129 H131 0.973 . S
O130 C129 1.550 . S
O130 C136 1.412 . S
H131 C129 0.973 . S
C132 H125 0.929 . S
C132 C133 1.400 . S
C132 C134 1.364 . S
C133 C132 1.400 . S
C133 C137 1.377 . S
C134 C132 1.364 . S
C134 C135 1.374 . S
C135 H126 0.930 . S
C135 C134 1.374 . S
C135 C136 1.383 . S
C136 O130 1.412 . S
C136 C135 1.383 . S
C136 C137 1.394 . S
C137 H127 0.929 . S
C137 C133 1.377 . S
C137 C136 1.394 . S
C138 C139 1.369 . S
C138 C140 1.419 . S
C138 H142 0.930 . S
C139 C138 1.369 . S
C139 C148 1.429 . S
C140 C138 1.419 . S
C140 C141 1.363 . S
C140 H143 0.929 . S
C141 C140 1.363 . S
C141 C147 1.428 . S
H142 C138 0.930 . S
H143 C140 0.929 . S
S144 N145 1.613 . S
S144 N146 1.610 . S
N145 S144 1.613 . S
N145 C148 1.350 . S
N146 S144 1.610 . S
N146 C147 1.351 . S
C147 C141 1.428 . S
C147 N146 1.351 . S
C147 C148 1.434 . S
C148 C139 1.429 . S
C148 N145 1.350 . S
C148 C147 1.434 . S
C149 C150 1.369 . S
C149 C151 1.419 . S
C149 H153 0.930 . S
C150 C149 1.369 . S
C150 C159 1.429 . S
C151 C149 1.419 . S
C151 C152 1.363 . S
C151 H154 0.929 . S
C152 C151 1.363 . S
C152 C158 1.428 . S
H153 C149 0.930 . S
H154 C151 0.929 . S
S155 N156 1.613 . S
S155 N157 1.610 . S
N156 S155 1.613 . S
N156 C159 1.350 . S
N157 S155 1.610 . S
N157 C158 1.351 . S
C158 C152 1.428 . S
C158 N157 1.351 . S
C158 C159 1.434 . S
C159 C150 1.429 . S
C159 N156 1.350 . S
C159 C158 1.434 . S
C160 C161 1.369 . S
C160 C162 1.419 . S
C160 H164 0.930 . S
C161 C160 1.369 . S
C161 C170 1.429 . S
C162 C160 1.419 . S
C162 C163 1.363 . S
C162 H165 0.929 . S
C163 C162 1.363 . S
C163 C169 1.428 . S
H164 C160 0.930 . S
H165 C162 0.929 . S
S166 N167 1.613 . S
S166 N168 1.610 . S
N167 S166 1.613 . S
N167 C170 1.350 . S
N168 S166 1.610 . S
N168 C169 1.351 . S
C169 C163 1.428 . S
C169 N168 1.351 . S
C169 C170 1.434 . S
C170 C161 1.429 . S
C170 N167 1.350 . S
C170 C169 1.434 . S
C171 C172 1.369 . S
C171 C173 1.419 . S
C171 H175 0.930 . S
C172 C171 1.369 . S
C172 C181 1.429 . S
C173 C171 1.419 . S
C173 C174 1.363 . S
C173 H176 0.929 . S
C174 C173 1.363 . S
C174 C180 1.428 . S
H175 C171 0.930 . S
H176 C173 0.929 . S
S177 N178 1.613 . S
S177 N179 1.610 . S
N178 S177 1.613 . S
N178 C181 1.350 . S
N179 S177 1.610 . S
N179 C180 1.351 . S
C180 C174 1.428 . S
C180 N179 1.351 . S
C180 C181 1.434 . S
C181 C172 1.429 . S
C181 N178 1.350 . S
C181 C180 1.434 . S
C182 C183 1.369 . S
C182 C184 1.419 . S
C182 H186 0.930 . S
C183 C182 1.369 . S
C183 C192 1.429 . S
C184 C182 1.419 . S
C184 C185 1.363 . S
C184 H187 0.929 . S
C185 C184 1.363 . S
C185 C191 1.428 . S
H186 C182 0.930 . S
H187 C184 0.929 . S
S188 N189 1.613 . S
S188 N190 1.610 . S
N189 S188 1.613 . S
N189 C192 1.350 . S
N190 S188 1.610 . S
N190 C191 1.351 . S
C191 C185 1.428 . S
C191 N190 1.351 . S
C191 C192 1.434 . S
C192 C183 1.429 . S
C192 N189 1.350 . S
C192 C191 1.434 . S
C193 C194 1.369 . S
C193 C195 1.419 . S
C193 H197 0.930 . S
C194 C193 1.369 . S
C194 C203 1.429 . S
C195 C193 1.419 . S
C195 C196 1.363 . S
C195 H198 0.929 . S
C196 C195 1.363 . S
C196 C202 1.428 . S
H197 C193 0.930 . S
H198 C195 0.929 . S
S199 N200 1.613 . S
S199 N201 1.610 . S
N200 S199 1.613 . S
N200 C203 1.350 . S
N201 S199 1.610 . S
N201 C202 1.351 . S
C202 C196 1.428 . S
C202 N201 1.351 . S
C202 C203 1.434 . S
C203 C194 1.429 . S
C203 N200 1.350 . S
C203 C202 1.434 . S
C204 C205 1.369 . S
C204 C206 1.419 . S
C204 H208 0.930 . S
C205 C204 1.369 . S
C205 C214 1.429 . S
C206 C204 1.419 . S
C206 C207 1.363 . S
C206 H209 0.929 . S
C207 C206 1.363 . S
C207 C213 1.428 . S
H208 C204 0.930 . S
H209 C206 0.929 . S
S210 N211 1.613 . S
S210 N212 1.610 . S
N211 S210 1.613 . S
N211 C214 1.350 . S
N212 S210 1.610 . S
N212 C213 1.351 . S
C213 C207 1.428 . S
C213 N212 1.351 . S
C213 C214 1.434 . S
C214 C205 1.429 . S
C214 N211 1.350 . S
C214 C213 1.434 . S
C215 C216 1.369 . S
C215 C217 1.419 . S
C215 H219 0.930 . S
C216 C215 1.369 . S
C216 C225 1.429 . S
C217 C215 1.419 . S
C217 C218 1.363 . S
C217 H220 0.929 . S
C218 C217 1.363 . S
C218 C224 1.428 . S
H219 C215 0.930 . S
H220 C217 0.929 . S
S221 N222 1.613 . S
S221 N223 1.610 . S
N222 S221 1.613 . S
N222 C225 1.350 . S
N223 S221 1.610 . S
N223 C224 1.351 . S
C224 C218 1.428 . S
C224 N223 1.351 . S
C224 C225 1.434 . S
C225 C216 1.429 . S
C225 N222 1.350 . S
C225 C224 1.434 . S
C226 C227 1.369 . S
C226 C228 1.419 . S
C226 H230 0.930 . S
C227 C226 1.369 . S
C227 C236 1.429 . S
C228 C226 1.419 . S
C228 C229 1.363 . S
C228 H231 0.929 . S
C229 C228 1.363 . S
C229 C235 1.428 . S
H230 C226 0.930 . S
H231 C228 0.929 . S
S232 N233 1.613 . S
S232 N234 1.610 . S
N233 S232 1.613 . S
N233 C236 1.350 . S
N234 S232 1.610 . S
N234 C235 1.351 . S
C235 C229 1.428 . S
C235 N234 1.351 . S
C235 C236 1.434 . S
C236 C227 1.429 . S
C236 N233 1.350 . S
C236 C235 1.434 . S
C237 C238 1.369 . S
C237 C239 1.419 . S
C237 H241 0.930 . S
C238 C237 1.369 . S
C238 C247 1.429 . S
C239 C237 1.419 . S
C239 C240 1.363 . S
C239 H242 0.929 . S
C240 C239 1.363 . S
C240 C246 1.428 . S
H241 C237 0.930 . S
H242 C239 0.929 . S
S243 N244 1.613 . S
S243 N245 1.610 . S
N244 S243 1.613 . S
N244 C247 1.350 . S
N245 S243 1.610 . S
N245 C246 1.351 . S
C246 C240 1.428 . S
C246 N245 1.351 . S
C246 C247 1.434 . S
C247 C238 1.429 . S
C247 N244 1.350 . S
C247 C246 1.434 . S
C248 C249 1.369 . S
C248 C250 1.419 . S
C248 H252 0.930 . S
C249 C248 1.369 . S
C249 C258 1.429 . S
C250 C248 1.419 . S
C250 C251 1.363 . S
C250 H253 0.929 . S
C251 C250 1.363 . S
C251 C257 1.428 . S
H252 C248 0.930 . S
H253 C250 0.929 . S
S254 N255 1.613 . S
S254 N256 1.610 . S
N255 S254 1.613 . S
N255 C258 1.350 . S
N256 S254 1.610 . S
N256 C257 1.351 . S
C257 C251 1.428 . S
C257 N256 1.351 . S
C257 C258 1.434 . S
C258 C249 1.429 . S
C258 N255 1.350 . S
C258 C257 1.434 . S
C259 C260 1.369 . S
C259 C261 1.419 . S
C259 H263 0.930 . S
C260 C259 1.369 . S
C260 C269 1.429 . S
C261 C259 1.419 . S
C261 C262 1.363 . S
C261 H264 0.929 . S
C262 C261 1.363 . S
C262 C268 1.428 . S
H263 C259 0.930 . S
H264 C261 0.929 . S
S265 N266 1.613 . S
S265 N267 1.610 . S
N266 S265 1.613 . S
N266 C269 1.350 . S
N267 S265 1.610 . S
N267 C268 1.351 . S
C268 C262 1.428 . S
C268 N267 1.351 . S
C268 C269 1.434 . S
C269 C260 1.429 . S
C269 N266 1.350 . S
C269 C268 1.434 . S
C270 C271 1.369 . S
C270 C272 1.419 1_554 S
C270 H274 0.930 . S
C271 C270 1.369 . S
C271 C280 1.429 1_455 S
C272 C270 1.419 1_556 S
C272 C273 1.363 . S
C272 H275 0.929 . S
C273 C272 1.363 . S
C273 C279 1.428 1_455 S
H274 C270 0.930 . S
H275 C272 0.929 . S
S276 N277 1.613 1_556 S
S276 N278 1.610 . S
N277 S276 1.613 1_554 S
N277 C280 1.350 . S
N278 S276 1.610 . S
N278 C279 1.351 . S
C279 C273 1.428 1_655 S
C279 N278 1.351 . S
C279 C280 1.434 1_556 S
C280 C271 1.429 1_655 S
C280 N277 1.350 . S
C280 C279 1.434 1_554 S
C281 C282 1.369 . S
C281 C283 1.419 . S
C281 H285 0.930 . S
C282 C281 1.369 . S
C282 C291 1.429 1_545 S
C283 C281 1.419 . S
C283 C284 1.363 . S
C283 H286 0.929 . S
C284 C283 1.363 . S
C284 C290 1.428 1_545 S
H285 C281 0.930 . S
H286 C283 0.929 . S
S287 N288 1.613 . S
S287 N289 1.610 . S
N288 S287 1.613 . S
N288 C291 1.350 . S
N289 S287 1.610 . S
N289 C290 1.351 . S
C290 C284 1.428 1_565 S
C290 N289 1.351 . S
C290 C291 1.434 . S
C291 C282 1.429 1_565 S
C291 N288 1.350 . S
C291 C290 1.434 . S
C292 C293 1.369 . S
C292 C294 1.419 . S
C292 H296 0.930 . S
C293 C292 1.369 . S
C293 C302 1.429 . S
C294 C292 1.419 . S
C294 C295 1.363 . S
C294 H297 0.929 . S
C295 C294 1.363 . S
C295 C301 1.428 . S
H296 C292 0.930 . S
H297 C294 0.929 . S
S298 N299 1.613 . S
S298 N300 1.610 . S
N299 S298 1.613 . S
N299 C302 1.350 . S
N300 S298 1.610 . S
N300 C301 1.351 . S
C301 C295 1.428 . S
C301 N300 1.351 . S
C301 C302 1.434 . S
C302 C293 1.429 . S
C302 N299 1.350 . S
C302 C301 1.434 . S
C303 C304 1.369 1_545 S
C303 C305 1.419 . S
C303 H307 0.930 . S
C304 C303 1.369 1_565 S
C304 C313 1.429 . S
C305 C303 1.419 . S
C305 C306 1.363 1_545 S
C305 H308 0.929 . S
C306 C305 1.363 1_565 S
C306 C312 1.428 . S
H307 C303 0.930 . S
H308 C305 0.929 . S
S309 N310 1.613 . S
S309 N311 1.610 . S
N310 S309 1.613 . S
N310 C313 1.350 . S
N311 S309 1.610 . S
N311 C312 1.351 . S
C312 C306 1.428 . S
C312 N311 1.351 . S
C312 C313 1.434 . S
C313 C304 1.429 . S
C313 N310 1.350 . S
C313 C312 1.434 . S
C314 C315 1.369 . S
C314 C316 1.419 1_556 S
C314 H318 0.930 . S
C315 C314 1.369 . S
C315 C324 1.429 . S
C316 C314 1.419 1_554 S
C316 C317 1.363 . S
C316 H319 0.929 . S
C317 C316 1.363 . S
C317 C323 1.428 . S
H318 C314 0.930 . S
H319 C316 0.929 . S
S320 N321 1.613 1_554 S
S320 N322 1.610 . S
N321 S320 1.613 1_556 S
N321 C324 1.350 . S
N322 S320 1.610 . S
N322 C323 1.351 . S
C323 C317 1.428 . S
C323 N322 1.351 . S
C323 C324 1.434 1_554 S
C324 C315 1.429 . S
C324 N321 1.350 . S
C324 C323 1.434 1_556 S
C325 C326 1.369 . S
C325 C327 1.419 . S
C325 H329 0.930 . S
C326 C325 1.369 . S
C326 C335 1.429 1_655 S
C327 C325 1.419 . S
C327 C328 1.363 . S
C327 H330 0.929 . S
C328 C327 1.363 . S
C328 C334 1.428 1_655 S
H329 C325 0.930 . S
H330 C327 0.929 . S
S331 N332 1.613 . S
S331 N333 1.610 . S
N332 S331 1.613 . S
N332 C335 1.350 . S
N333 S331 1.610 . S
N333 C334 1.351 . S
C334 C328 1.428 1_455 S
C334 N333 1.351 . S
C334 C335 1.434 . S
C335 C326 1.429 1_455 S
C335 N332 1.350 . S
C335 C334 1.434 . S
C139 C8 1.990 . S
C141 C129 1.894 . S
C150 C26 1.338 . S
C152 C107 1.325 . S
C161 C48 1.493 . S
C163 C120 1.527 . S
C172 C19 1.780 . S
C174 C133 1.825 . S
C185 C103 1.480 . S
C183 C36 1.520 . S
C196 C116 1.601 . S
C194 C59 1.645 . S
C205 C28 1.503 . S
C207 C81 1.525 . S
C216 C46 1.098 . S
C218 C94 1.095 1_655 S
C227 C16 1.514 . S
C229 C64 1.426 . S
C240 C77 1.589 . S
C238 C39 1.648 . S
C251 C90 1.114 . S
C249 C56 1.121 . S
C260 C6 1.377 . S
C262 C68 1.367 . S
C273 C95 1.493 . S
C271 C9 1.471 . S
C282 C21 1.525 . S
C284 C69 1.549 . S
C293 C49 1.542 . S
C295 C82 1.587 . S
C306 C121 1.553 . S
C304 C29 1.521 1_565 S
C317 C134 1.613 . S
C315 C41 1.595 . S
C326 C1 1.540 . S
C328 C108 1.573 1_655 S
