# Generated by pormake.
# Topology anh, (6,3)-cn, num edge types: 1
# Building blocks:
#     Node 0, Type 0, BuildingBlock: HISSIN_clean_sbu_0, # of connection points: 6
#     Node 1, Type 0, BuildingBlock: HISSIN_clean_sbu_0, # of connection points: 6
#     Node 2, Type 0, BuildingBlock: HISSIN_clean_sbu_0, # of connection points: 6
#     Node 3, Type 1, BuildingBlock: MIDCAF_clean_linker_0, # of connection points: 3
#     Node 4, Type 1, BuildingBlock: MIDCAF_clean_linker_0, # of connection points: 3
#     Node 5, Type 1, BuildingBlock: MIDCAF_clean_linker_0, # of connection points: 3
#     Node 6, Type 1, BuildingBlock: MIDCAF_clean_linker_0, # of connection points: 3
#     Node 7, Type 1, BuildingBlock: MIDCAF_clean_linker_0, # of connection points: 3
#     Node 8, Type 1, BuildingBlock: MIDCAF_clean_linker_0, # of connection points: 3
#     Edge 9, Type (0, 1), BuildingBlock: XUDNAN_clean_linker_2, # of connection points: 2
#     Edge 10, Type (0, 1), BuildingBlock: XUDNAN_clean_linker_2, # of connection points: 2
#     Edge 11, Type (0, 1), BuildingBlock: XUDNAN_clean_linker_2, # of connection points: 2
#     Edge 12, Type (0, 1), BuildingBlock: XUDNAN_clean_linker_2, # of connection points: 2
#     Edge 13, Type (0, 1), BuildingBlock: XUDNAN_clean_linker_2, # of connection points: 2
#     Edge 14, Type (0, 1), BuildingBlock: XUDNAN_clean_linker_2, # of connection points: 2
#     Edge 15, Type (0, 1), BuildingBlock: XUDNAN_clean_linker_2, # of connection points: 2
#     Edge 16, Type (0, 1), BuildingBlock: XUDNAN_clean_linker_2, # of connection points: 2
#     Edge 17, Type (0, 1), BuildingBlock: XUDNAN_clean_linker_2, # of connection points: 2
#     Edge 18, Type (0, 1), BuildingBlock: XUDNAN_clean_linker_2, # of connection points: 2
#     Edge 19, Type (0, 1), BuildingBlock: XUDNAN_clean_linker_2, # of connection points: 2
#     Edge 20, Type (0, 1), BuildingBlock: XUDNAN_clean_linker_2, # of connection points: 2
#     Edge 21, Type (0, 1), BuildingBlock: XUDNAN_clean_linker_2, # of connection points: 2
#     Edge 22, Type (0, 1), BuildingBlock: XUDNAN_clean_linker_2, # of connection points: 2
#     Edge 23, Type (0, 1), BuildingBlock: XUDNAN_clean_linker_2, # of connection points: 2
#     Edge 24, Type (0, 1), BuildingBlock: XUDNAN_clean_linker_2, # of connection points: 2
#     Edge 25, Type (0, 1), BuildingBlock: XUDNAN_clean_linker_2, # of connection points: 2
#     Edge 26, Type (0, 1), BuildingBlock: XUDNAN_clean_linker_2, # of connection points: 2
# Relax obj value: 0.238
# Max RMSD: 0.188
# Mean RMSD: 0.155
data_MOF--net-anh--node1-HISSIN_clean_sbu_0--node2-MIDCAF_clean_linker_0--edge1-XUDNAN_clean_linker_2
_symmetry_space_group_name_H-M    P1
_symmetry_Int_Tables_number       1
_symmetry_cell_setting            triclinic
loop_
_symmetry_equiv_pos_as_xyz
'x, y, z'
_cell_length_a     35.608869
_cell_length_b     35.582702
_cell_length_c     66.377676
_cell_angle_alpha  93.883904
_cell_angle_beta   89.706677
_cell_angle_gamma 120.06937
loop_
_atom_site_label
_atom_site_type_symbol
_atom_site_fract_x
_atom_site_fract_y
_atom_site_fract_z
_atom_type_partial_charge
Eu0 Eu 1.09985 0.53674 0.16829 0.0
Eu1 Eu 0.13838 0.64008 0.18099 0.0
C2 C 1.10272 0.57228 0.21554 0.0
C3 C 1.00863 0.42801 0.15952 0.0
C4 C 0.98816 0.44673 0.17087 0.0
C5 C 0.93833 0.37152 0.14575 0.0
C6 C 0.94362 0.4295 0.16898 0.0
C7 C 0.98353 0.38983 0.14721 0.0
C8 C 0.9177 0.39213 0.156 0.0
C9 C 1.05584 0.4538 0.15804 0.0
O10 O 0.19668 0.63143 0.17441 0.0
O11 O 0.17 0.55796 0.17553 0.0
C12 C 0.20286 0.59792 0.17502 0.0
O13 O 0.13742 0.57111 0.14162 0.0
O14 O 0.1858 0.70165 0.19693 0.0
O15 O 0.14184 0.70104 0.17441 0.0
O16 O 0.12574 0.628 0.1474 0.0
C17 C 0.13683 0.60487 0.13535 0.0
O18 O 1.047 0.55298 0.16187 0.0
O19 O 1.06597 0.61284 0.18365 0.0
O20 O 0.12787 0.61296 0.21145 0.0
O21 O 1.06806 0.48326 0.14501 0.0
O22 O 1.07765 0.46971 0.17523 0.0
O23 O 1.08495 0.54034 0.20127 0.0
C24 C 0.21572 0.75112 0.17229 0.0
C25 C 0.22606 0.72986 0.15649 0.0
C26 C 0.28327 0.8176 0.16767 0.0
C27 C 0.26526 0.75167 0.14687 0.0
C28 C 0.24395 0.79545 0.17752 0.0
C29 C 0.2946 0.7953 0.15277 0.0
C30 C 0.17859 0.72448 0.18455 0.0
C31 C 1.03697 0.57997 0.17177 0.0
H32 H 1.00703 0.47662 0.18032 0.0
H33 H 0.92013 0.34166 0.13629 0.0
H34 H 0.93065 0.44755 0.17708 0.0
H35 H 0.99889 0.37504 0.13824 0.0
H36 H 0.20496 0.69554 0.15239 0.0
H37 H 0.3061 0.85119 0.17264 0.0
H38 H 0.27373 0.73384 0.13564 0.0
H39 H 0.23671 0.81218 0.18981 0.0
Eu40 Eu 0.61191 1.05943 0.50502 0.0
Eu41 Eu 0.56597 0.1148 0.52077 0.0
C42 C 0.59961 1.07472 0.55284 0.0
C43 C 0.63436 0.97199 0.48207 0.0
C44 C 0.60017 0.93581 0.49044 0.0
C45 C 0.64911 0.92365 0.46039 0.0
C46 C 0.59243 0.89403 0.48478 0.0
C47 C 0.6573 0.96556 0.46631 0.0
C48 C 0.61849 0.88774 0.47048 0.0
C49 C 0.64881 1.01631 0.49078 0.0
O50 O 0.63825 0.1621 0.52548 0.0
O51 O 0.66323 0.13045 0.50209 0.0
C52 C 0.66932 0.16435 0.51394 0.0
O53 O 0.57055 1.05843 0.47954 0.0
O54 O 0.55957 0.16205 0.54099 0.0
O55 O 0.51843 0.13412 0.51393 0.0
O56 O 0.58332 0.12636 0.48824 0.0
C57 C 0.57342 0.09452 0.47447 0.0
O58 O 0.54318 1.00519 0.5098 0.0
O59 O 0.50934 1.04558 0.51578 0.0
O60 O 0.56964 0.08446 0.54868 0.0
O61 O 0.64097 1.04096 0.47996 0.0
O62 O 0.64155 1.02018 0.50989 0.0
O63 O 0.62433 1.0714 0.53886 0.0
C64 C 0.55287 0.21052 0.52092 0.0
C65 C 0.5525 0.21658 0.50014 0.0
C66 C 0.60691 0.28696 0.5271 0.0
C67 C 0.58058 0.25707 0.49287 0.0
C68 C 0.57857 0.24675 0.5344 0.0
C69 C 0.60939 0.2918 0.50624 0.0
C70 C 0.53487 0.16631 0.52792 0.0
C71 C 0.50787 1.0078 0.51268 0.0
H72 H 0.58132 0.94 0.50233 0.0
H73 H 0.66898 0.91978 0.44896 0.0
H74 H 0.56862 0.86738 0.49296 0.0
H75 H 0.6832 0.99312 0.45938 0.0
H76 H 0.53291 0.18943 0.48931 0.0
H77 H 0.62864 0.31376 0.53766 0.0
H78 H 0.58193 0.26038 0.47673 0.0
H79 H 0.57938 0.24319 0.55045 0.0
Eu80 Eu 0.58901 0.56908 0.84127 0.0
Eu81 Eu 0.69223 0.60341 0.84078 0.0
C82 C 0.64595 0.60013 0.88265 0.0
C83 C 0.48897 0.56705 0.82609 0.0
C84 C 0.44442 0.55222 0.82608 0.0
C85 C 0.50077 0.62828 0.80745 0.0
C86 C 0.42819 0.57582 0.81706 0.0
C87 C 0.51689 0.60456 0.81629 0.0
C88 C 0.45648 0.61459 0.80814 0.0
C89 C 0.50743 0.54541 0.83705 0.0
O90 O 0.66449 0.53259 0.84719 0.0
O91 O 0.59197 0.50659 0.8402 0.0
C92 C 0.62446 0.49999 0.84405 0.0
O93 O 0.61318 0.58562 0.80965 0.0
O94 O 0.75321 0.61435 0.85384 0.0
O95 O 0.75152 0.63482 0.82392 0.0
O96 O 0.66058 0.56173 0.81237 0.0
C97 C 0.63555 0.56924 0.80118 0.0
O98 O 0.61847 0.6423 0.84385 0.0
O99 O 0.6867 0.66192 0.83299 0.0
O100 O 0.67998 0.62289 0.87188 0.0
O101 O 0.52603 0.52839 0.82577 0.0
O102 O 0.53124 0.56794 0.85307 0.0
O103 O 0.60848 0.57079 0.87397 0.0
C104 C 0.79247 0.60124 0.82888 0.0
C105 C 0.76532 0.5598 0.81917 0.0
C106 C 0.85313 0.58867 0.82644 0.0
C107 C 0.78182 0.53259 0.81349 0.0
C108 C 0.83658 0.61593 0.83212 0.0
C109 C 0.82561 0.54635 0.81752 0.0
C110 C 0.77357 0.62707 0.83703 0.0
C111 C 0.6563 0.67164 0.83756 0.0
H112 H 0.42251 0.52332 0.83356 0.0
H113 H 0.52298 0.65784 0.80054 0.0
H114 H 0.39391 0.56506 0.81798 0.0
H115 H 0.55141 0.61624 0.81602 0.0
H116 H 0.73105 0.54795 0.81658 0.0
H117 H 0.88694 0.59987 0.83001 0.0
H118 H 0.7602 0.50041 0.80645 0.0
H119 H 0.85781 0.64771 0.83971 0.0
C120 C 0.55371 0.94874 0.20931 0.0
C121 C 0.57312 0.95683 0.19032 0.0
C122 C 0.61044 0.99728 0.18804 0.0
C123 C 0.62329 1.03111 0.20307 0.0
H124 H 0.56677 0.1265 0.19683 0.0
H125 H 0.58881 0.1852 0.17449 0.0
H126 H 0.68553 0.27392 0.21984 0.0
H127 H 0.66037 0.21632 0.24235 0.0
H128 H 0.6261 0.17099 0.2887 0.0
H129 H 0.61711 0.17502 0.32488 0.0
H130 H 0.55324 1.03465 0.32392 0.0
H131 H 0.56382 1.03079 0.28764 0.0
H132 H 0.54852 0.9767 0.23808 0.0
H133 H 0.52485 0.91799 0.21167 0.0
H134 H 0.62669 1.00419 0.17378 0.0
H135 H 0.64923 1.06332 0.20007 0.0
N136 N 0.60614 0.09594 0.22244 0.0
N137 N 0.60412 0.13223 0.25277 0.0
N138 N 0.59819 1.06333 0.25293 0.0
C139 C 0.60658 0.13058 0.2324 0.0
C140 C 0.59954 0.09857 0.26314 0.0
C141 C 0.6025 1.06252 0.23256 0.0
C142 C 0.61263 0.16706 0.22104 0.0
C143 C 0.5917 0.15914 0.2021 0.0
C144 C 0.60462 0.19277 0.18928 0.0
C145 C 0.6401 0.23442 0.19482 0.0
C146 C 0.65792 0.24283 0.21472 0.0
C147 C 0.64387 0.20956 0.22775 0.0
C148 C 0.59545 0.10053 0.28529 0.0
C149 C 0.61018 0.14094 0.29619 0.0
C150 C 0.60474 0.14323 0.31695 0.0
C151 C 0.5839 0.10514 0.32731 0.0
C152 C 0.56976 1.06468 0.31646 0.0
C153 C 0.57571 1.06243 0.29566 0.0
C154 C 0.59966 1.02463 0.22077 0.0
C155 C 0.56706 0.98249 0.2245 0.0
C156 C 0.82653 0.55016 0.55345 0.0
C157 C 0.83671 0.56303 0.53362 0.0
C158 C 0.85499 0.60727 0.53034 0.0
C159 C 0.85547 0.63634 0.54568 0.0
H160 H 0.79841 0.70418 0.53524 0.0
H161 H 0.75927 0.72183 0.51137 0.0
H162 H 0.6648 0.70468 0.55627 0.0
H163 H 0.70344 0.68584 0.58023 0.0
H164 H 0.71532 0.65993 0.62276 0.0
H165 H 0.68351 0.63511 0.65509 0.0
H166 H 0.76733 0.58157 0.663 0.0
H167 H 0.7985 0.60533 0.63035 0.0
H168 H 0.81324 0.56681 0.58313 0.0
H169 H 0.81258 0.51628 0.55653 0.0
H170 H 0.86389 0.61821 0.5153 0.0
H171 H 0.86484 0.66907 0.54202 0.0
N172 N 0.80244 0.66488 0.5651 0.0
N173 N 0.76184 0.66792 0.59224 0.0
N174 N 0.80342 0.63383 0.59492 0.0
C175 C 0.77483 0.67711 0.57307 0.0
C176 C 0.77649 0.64691 0.60341 0.0
C177 C 0.817 0.64335 0.57577 0.0
C178 C 0.75407 0.69352 0.55969 0.0
C179 C 0.76945 0.70437 0.54016 0.0
C180 C 0.74702 0.71448 0.52642 0.0
C181 C 0.70874 0.71414 0.53188 0.0
C182 C 0.69378 0.70433 0.55154 0.0
C183 C 0.7163 0.69421 0.56535 0.0
C184 C 0.75941 0.63444 0.62381 0.0
C185 C 0.72723 0.64304 0.63138 0.0
C186 C 0.70902 0.62896 0.65001 0.0
C187 C 0.7226 0.60607 0.66159 0.0
C188 C 0.75549 0.59836 0.65427 0.0
C189 C 0.77362 0.6123 0.6356 0.0
C190 C 0.83727 0.62135 0.56439 0.0
C191 C 0.82686 0.57924 0.5688 0.0
C192 C 1.02395 0.48957 0.87982 0.0
C193 C 1.02761 0.48266 0.85893 0.0
C194 C 1.06917 0.50042 0.85093 0.0
C195 C 1.10579 0.52904 0.86295 0.0
H196 H 0.1882 0.68023 0.86088 0.0
H197 H 0.24152 0.7186 0.83569 0.0
H198 H 0.34151 0.72204 0.87396 0.0
H199 H 0.28875 0.68693 0.89944 0.0
H200 H 0.23574 0.6846 0.94978 0.0
H201 H 0.23842 0.69221 0.98655 0.0
H202 H 0.1242 0.56485 0.98758 0.0
H203 H 0.12165 0.55674 0.95085 0.0
H204 H 1.05663 0.52517 0.90761 0.0
H205 H 0.99241 0.47664 0.88647 0.0
H206 H 1.07305 0.49506 0.83498 0.0
H207 H 0.13712 0.54475 0.856 0.0
N208 N 0.16809 0.61047 0.88401 0.0
N209 N 0.20524 0.649 0.91422 0.0
N210 N 0.1417 0.58071 0.91488 0.0
C211 C 0.20134 0.64634 0.89378 0.0
C212 C 0.17521 0.61639 0.92491 0.0
C213 C 0.13839 0.57739 0.8944 0.0
C214 C 0.23446 0.67991 0.88179 0.0
C215 C 0.22203 0.69096 0.86412 0.0
C216 C 0.25258 0.71272 0.84967 0.0
C217 C 0.2957 0.7221 0.85229 0.0
C218 C 0.30883 0.71561 0.87117 0.0
C219 C 0.27846 0.69504 0.88587 0.0
C220 C 0.1783 0.62015 0.94728 0.0
C221 C 0.21132 0.65803 0.95779 0.0
C222 C 0.21281 0.66251 0.97888 0.0
C223 C 0.18143 0.62921 0.98993 0.0
C224 C 0.14911 0.59089 0.97948 0.0
C225 C 0.14751 0.58642 0.95839 0.0
C226 C 1.10158 0.53974 0.88328 0.0
C227 C 1.06075 0.51776 0.89193 0.0
C228 C 0.23913 0.70321 0.46727 0.0
C229 C 0.23846 0.72054 0.48685 0.0
C230 C 0.20129 0.69647 0.49828 0.0
C231 C 0.16548 0.65716 0.49009 0.0
H232 H 1.04865 0.51741 0.50024 0.0
H233 H 0.98676 0.4563 0.51521 0.0
H234 H 0.91722 0.41787 0.45756 0.0
H235 H 0.97831 0.47733 0.44275 0.0
H236 H 1.02082 0.50845 0.40366 0.0
H237 H 1.01741 0.50208 0.36697 0.0
H238 H 0.15017 0.60737 0.36621 0.0
H239 H 0.15329 0.61463 0.40305 0.0
H240 H 0.20536 0.65307 0.44376 0.0
H241 H 0.2666 0.72058 0.45782 0.0
H242 H 0.1996 0.70828 0.51353 0.0
H243 H 0.13715 0.6403 0.49912 0.0
N244 N 1.09254 0.57181 0.47031 0.0
N245 N 1.05632 0.53546 0.43939 0.0
N246 N 0.12417 0.59854 0.43936 0.0
C247 C 1.05718 0.53784 0.45994 0.0
C248 C 1.08939 0.56542 0.42896 0.0
C249 C 0.12639 0.60243 0.45992 0.0
C250 C 1.01915 0.5026 0.47018 0.0
C251 C 1.0201 0.49597 0.49081 0.0
C252 C 0.98441 0.46079 0.49939 0.0
C253 C 0.94674 0.43126 0.4876 0.0
C254 C 0.94573 0.43871 0.46713 0.0
C255 C 0.98109 0.47347 0.45862 0.0
C256 C 1.08741 0.56193 0.40645 0.0
C257 C 1.04937 0.53034 0.39575 0.0
C258 C 1.04747 0.52652 0.37462 0.0
C259 C 1.08362 0.55397 0.36352 0.0
C260 C 0.12153 0.58595 0.3742 0.0
C261 C 0.12339 0.58991 0.39538 0.0
C262 C 0.16566 0.641 0.47017 0.0
C263 C 0.20347 0.66433 0.4591 0.0
C264 C 0.58152 0.18362 0.80681 0.0
C265 C 0.61091 0.21467 0.82156 0.0
C266 C 0.6438 0.20805 0.82934 0.0
C267 C 0.64724 0.17148 0.82235 0.0
H268 H 0.60243 0.9984 0.82742 0.0
H269 H 0.61231 0.93865 0.83816 0.0
H270 H 0.71327 0.971 0.79507 0.0
H271 H 0.70336 1.02958 0.78452 0.0
H272 H 0.67901 1.05296 0.73989 0.0
H273 H 0.67729 1.04826 0.70323 0.0
H274 H 0.57682 0.08289 0.70333 0.0
H275 H 0.5811 0.09055 0.74014 0.0
H276 H 0.56305 0.12566 0.78773 0.0
H277 H 0.55605 0.18765 0.80029 0.0
H278 H 0.66689 0.23118 0.84077 0.0
H279 H 0.67354 0.1679 0.82818 0.0
N280 N 0.63523 0.08018 0.80659 0.0
N281 N 0.64136 1.0487 0.77525 0.0
N282 N 0.62351 0.10363 0.77602 0.0
C283 C 0.6427 1.0504 0.79576 0.0
C284 C 0.63156 0.07481 0.76528 0.0
C285 C 0.62582 0.1072 0.79658 0.0
C286 C 0.65255 1.01927 0.80531 0.0
C287 C 0.62738 0.99325 0.82065 0.0
C288 C 0.63261 0.95861 0.82657 0.0
C289 C 0.66367 0.94983 0.81753 0.0
C290 C 0.68941 0.97683 0.80261 0.0
C291 C 0.68376 1.01064 0.79655 0.0
C292 C 0.63013 1.07201 0.7429 0.0
C293 C 0.65664 1.05966 0.73205 0.0
C294 C 0.65531 1.05661 0.71093 0.0
C295 C 0.62652 1.06465 0.70002 0.0
C296 C 0.59998 0.0771 0.711 0.0
C297 C 0.60215 0.08122 0.73217 0.0
C298 C 0.61842 0.1413 0.80714 0.0
C299 C 0.58546 0.14787 0.79962 0.0
C300 C 0.76855 0.61726 0.14242 0.0
C301 C 0.76066 0.58104 0.15285 0.0
C302 C 0.71732 0.55125 0.1574 0.0
C303 C 0.68273 0.55655 0.15088 0.0
H304 H 0.53988 0.55537 0.15879 0.0
H305 H 0.47703 0.56072 0.17133 0.0
H306 H 0.49468 0.64795 0.12552 0.0
H307 H 0.55583 0.64199 0.11283 0.0
H308 H 0.56911 0.59159 0.06789 0.0
H309 H 0.57784 0.59764 0.03148 0.0
H310 H 0.70383 0.60898 0.03738 0.0
H311 H 0.69553 0.60329 0.07361 0.0
H312 H 0.74115 0.64884 0.12647 0.0
H313 H 0.80127 0.64059 0.13844 0.0
H314 H 0.71003 0.523 0.16545 0.0
H315 H 0.64971 0.53198 0.15374 0.0
N316 N 0.62012 0.59153 0.13711 0.0
N317 N 0.59372 0.59581 0.10533 0.0
N318 N 0.65812 0.59383 0.1076 0.0
C319 C 0.58952 0.5941 0.1257 0.0
C320 C 0.62754 0.59525 0.09612 0.0
C321 C 0.65489 0.5918 0.12794 0.0
C322 C 0.55307 0.59827 0.1348 0.0
C323 C 0.53033 0.57576 0.1515 0.0
C324 C 0.49414 0.57849 0.15854 0.0
C325 C 0.48077 0.60466 0.14935 0.0
C326 C 0.50402 0.62751 0.13293 0.0
C327 C 0.53919 0.62403 0.12567 0.0
C328 C 0.63177 0.59732 0.07382 0.0
C329 C 0.59866 0.59527 0.06144 0.0
C330 C 0.60347 0.59842 0.04053 0.0
C331 C 0.64163 0.60409 0.03156 0.0
C332 C 0.67428 0.60526 0.04386 0.0
C333 C 0.6694 0.60182 0.06468 0.0
C334 C 0.69064 0.59131 0.13933 0.0
C335 C 0.73402 0.62199 0.13555 0.0
H336 H 0.2313 0.5382 0.16766 0.0
H337 H 0.27831 0.67651 0.17935 0.0
H338 H 0.35353 0.69182 0.17632 0.0
H339 H 0.32057 0.53646 0.19421 0.0
H340 H 0.32257 0.49801 0.17574 0.0
H341 H 0.27207 0.49705 0.17999 0.0
H342 H 0.26476 0.50514 0.14197 0.0
H343 H 0.31515 0.50604 0.1376 0.0
H344 H 0.30832 0.55009 0.13016 0.0
H345 H 0.42397 0.69308 0.17117 0.0
H346 H 0.48432 0.68069 0.16185 0.0
H347 H 0.39405 0.54183 0.15327 0.0
C348 C 0.25742 0.57165 0.16986 0.0
C349 C 0.24844 0.60605 0.17396 0.0
C350 C 0.28387 0.64941 0.17633 0.0
C351 C 0.32695 0.65853 0.17467 0.0
C352 C 0.33463 0.62404 0.17058 0.0
C353 C 0.30093 0.58145 0.16811 0.0
C354 C 0.31836 0.55078 0.16278 0.0
C355 C 0.30776 0.51867 0.17916 0.0
C356 C 0.30059 0.52659 0.14189 0.0
C357 C 0.367 0.58281 0.1625 0.0
C358 C 0.3755 0.62486 0.16719 0.0
C359 C 0.41761 0.66034 0.16737 0.0
C360 C 0.45177 0.65296 0.16214 0.0
C361 C 0.4441 0.61034 0.15697 0.0
C362 C 0.40107 0.57471 0.15747 0.0
H363 H 0.73108 0.19396 0.48443 0.0
H364 H 0.70376 0.23056 0.54399 0.0
H365 H 0.77341 0.30012 0.5448 0.0
H366 H 0.84824 0.24364 0.49166 0.0
H367 H 0.85965 0.26226 0.46657 0.0
H368 H 0.80906 0.21412 0.4712 0.0
H369 H 0.76671 0.24785 0.45622 0.0
H370 H 0.81707 0.29611 0.45154 0.0
H371 H 0.77675 0.30044 0.46642 0.0
H372 H 0.84706 0.36699 0.53895 0.0
H373 H 0.91324 0.42729 0.52564 0.0
H374 H 0.89176 0.34848 0.46939 0.0
C375 C 0.73995 0.21637 0.49774 0.0
C376 C 0.71191 0.20623 0.51428 0.0
C377 C 0.72454 0.23719 0.53117 0.0
C378 C 0.76425 0.27686 0.5318 0.0
C379 C 0.79116 0.28578 0.51531 0.0
C380 C 0.77922 0.25661 0.49847 0.0
C381 C 0.81263 0.27531 0.48221 0.0
C382 C 0.83364 0.24715 0.47765 0.0
C383 C 0.79206 0.28023 0.46296 0.0
C384 C 0.84513 0.31949 0.49248 0.0
C385 C 0.83257 0.32466 0.5117 0.0
C386 C 0.85726 0.36304 0.52395 0.0
C387 C 0.89514 0.3972 0.51626 0.0
C388 C 0.90821 0.39329 0.49635 0.0
C389 C 0.88277 0.35331 0.48454 0.0
H390 H 0.5974 0.701 0.83436 0.0
H391 H 0.73542 0.74573 0.83613 0.0
H392 H 0.75142 0.82104 0.83317 0.0
H393 H 0.60375 0.77278 0.79701 0.0
H394 H 0.56283 0.78316 0.80753 0.0
H395 H 0.56066 0.73245 0.81105 0.0
H396 H 0.55969 0.74478 0.84949 0.0
H397 H 0.56188 0.79592 0.8469 0.0
H398 H 0.60222 0.7941 0.86239 0.0
H399 H 0.75314 0.89171 0.82983 0.0
H400 H 0.74059 0.95231 0.82416 0.0
H401 H 0.60141 0.86359 0.82339 0.0
C402 C 0.63101 0.72669 0.83428 0.0
C403 C 0.66521 0.71715 0.83564 0.0
C404 C 0.70863 0.75185 0.83512 0.0
C405 C 0.71807 0.79492 0.83352 0.0
C406 C 0.68381 0.8032 0.83225 0.0
C407 C 0.64109 0.77008 0.83241 0.0
C408 C 0.6105 0.78793 0.82982 0.0
C409 C 0.58279 0.7679 0.81018 0.0
C410 C 0.58187 0.78021 0.84825 0.0
C411 C 0.64269 0.83625 0.82845 0.0
C412 C 0.68479 0.84415 0.82992 0.0
C413 C 0.7203 0.88581 0.82861 0.0
C414 C 0.71279 0.92012 0.82532 0.0
C415 C 0.67004 0.91308 0.82322 0.0
C416 C 0.63451 0.87041 0.82516 0.0
H417 H 1.00491 0.6364 0.18146 0.0
H418 H 0.96711 0.50796 0.15378 0.0
H419 H 0.89213 0.49242 0.14924 0.0
H420 H 0.90332 0.61022 0.2059 0.0
H421 H 0.90434 0.65915 0.19952 0.0
H422 H 0.95449 0.65906 0.20287 0.0
H423 H 0.97704 0.68583 0.16714 0.0
H424 H 0.92706 0.68618 0.16372 0.0
H425 H 0.94119 0.65541 0.1457 0.0
H426 H 0.82061 0.49005 0.14761 0.0
H427 H 0.75996 0.50446 0.14468 0.0
H428 H 0.84384 0.63741 0.16934 0.0
C429 C 0.98072 0.60484 0.17468 0.0
C430 C 0.99192 0.57263 0.1688 0.0
C431 C 0.95936 0.53247 0.15926 0.0
C432 C 0.91651 0.52342 0.15643 0.0
C433 C 0.90644 0.55546 0.16254 0.0
C434 C 0.93773 0.59577 0.17104 0.0
C435 C 0.91877 0.62567 0.17444 0.0
C436 C 0.92033 0.63933 0.19703 0.0
C437 C 0.94242 0.66564 0.16201 0.0
C438 C 0.87212 0.59583 0.16657 0.0
C439 C 0.86565 0.55521 0.16016 0.0
C440 C 0.82534 0.5218 0.15253 0.0
C441 C 0.7909 0.53022 0.15104 0.0
C442 C 0.79681 0.57199 0.1568 0.0
C443 C 0.83815 0.60514 0.16478 0.0
H444 H 0.48432 0.92457 0.49609 0.0
H445 H 0.43213 0.99831 0.52769 0.0
H446 H 0.35946 0.93266 0.52602 0.0
H447 H 0.39272 0.86222 0.46191 0.0
H448 H 0.39508 0.81279 0.46182 0.0
H449 H 0.44384 0.86479 0.46653 0.0
H450 H 0.45771 0.84066 0.50025 0.0
H451 H 0.40898 0.78852 0.49567 0.0
H452 H 0.4161 0.82147 0.51875 0.0
H453 H 0.29143 0.85927 0.52033 0.0
H454 H 0.23291 0.78497 0.50964 0.0
H455 H 0.32751 0.75751 0.48116 0.0
C456 C 0.45771 0.9268 0.50286 0.0
C457 C 0.46436 0.96694 0.51214 0.0
C458 C 0.42825 0.96828 0.5205 0.0
C459 C 0.38668 0.93098 0.51968 0.0
C460 C 0.38117 0.89217 0.51032 0.0
C461 C 0.41562 0.88978 0.50197 0.0
C462 C 0.40023 0.84436 0.49199 0.0
C463 C 0.40845 0.84617 0.46921 0.0
C464 C 0.42206 0.82246 0.50228 0.0
C465 C 0.35181 0.82179 0.49595 0.0
C466 C 0.34166 0.84994 0.50671 0.0
C467 C 0.2991 0.8369 0.51199 0.0
C468 C 0.26596 0.79429 0.50596 0.0
C469 C 0.27508 0.76472 0.49459 0.0
C470 C 0.31897 0.77901 0.48971 0.0
H471 H 0.68235 0.46922 0.83905 0.0
H472 H 0.54611 0.42604 0.84766 0.0
H473 H 0.52942 0.34972 0.84508 0.0
H474 H 0.66414 0.38283 0.80197 0.0
H475 H 0.70946 0.37833 0.81079 0.0
H476 H 0.71042 0.42937 0.81447 0.0
H477 H 0.72399 0.43064 0.85312 0.0
H478 H 0.72273 0.37941 0.849 0.0
H479 H 0.6867 0.38476 0.86663 0.0
H480 H 0.52626 0.27762 0.83993 0.0
H481 H 0.53663 0.21479 0.83192 0.0
H482 H 0.67469 0.30251 0.82624 0.0
C483 C 0.64911 0.44375 0.84074 0.0
C484 C 0.61559 0.45403 0.84377 0.0
C485 C 0.57244 0.4194 0.84541 0.0
C486 C 0.56261 0.37576 0.844 0.0
C487 C 0.59615 0.36675 0.84084 0.0
C488 C 0.63857 0.39969 0.83919 0.0
C489 C 0.66803 0.38064 0.8348 0.0
C490 C 0.68926 0.39354 0.81428 0.0
C491 C 0.70241 0.39469 0.85191 0.0
C492 C 0.63555 0.33196 0.83417 0.0
C493 C 0.5943 0.32485 0.83776 0.0
C494 C 0.55847 0.28287 0.83719 0.0
C495 C 0.56469 0.24728 0.83255 0.0
C496 C 0.60644 0.25337 0.82845 0.0
C497 C 0.64245 0.29653 0.8296 0.0
H498 H 0.69098 0.88091 0.46854 0.0
H499 H 0.5511 0.80316 0.4725 0.0
H500 H 0.55876 0.74216 0.48314 0.0
H501 H 0.71084 0.78519 0.45389 0.0
H502 H 0.76047 0.8124 0.46908 0.0
H503 H 0.74296 0.84381 0.4558 0.0
H504 H 0.74755 0.88713 0.48954 0.0
H505 H 0.76363 0.85531 0.50305 0.0
H506 H 0.71633 0.85824 0.51046 0.0
H507 H 0.58276 0.69907 0.50203 0.0
H508 H 0.62077 0.67457 0.52413 0.0
H509 H 0.74456 0.78089 0.50738 0.0
C510 C 0.66164 0.85025 0.47036 0.0
C511 C 0.62046 0.84696 0.46973 0.0
C512 C 0.58307 0.80659 0.47304 0.0
C513 C 0.5871 0.77165 0.47898 0.0
C514 C 0.62863 0.77735 0.48108 0.0
C515 C 0.66521 0.81532 0.47629 0.0
C516 C 0.70642 0.8164 0.48276 0.0
C517 C 0.73165 0.81431 0.46428 0.0
C518 C 0.73508 0.85661 0.49732 0.0
C519 C 0.68739 0.77484 0.49339 0.0
C520 C 0.64252 0.75215 0.4919 0.0
C521 C 0.61788 0.71578 0.50275 0.0
C522 C 0.63968 0.70245 0.51546 0.0
C523 C 0.68559 0.72571 0.5173 0.0
C524 C 0.70951 0.76177 0.50581 0.0
H525 H 0.90072 0.56007 0.80059 0.0
H526 H 0.7878 0.4643 0.83008 0.0
H527 H 0.82374 0.42165 0.83476 0.0
H528 H 0.93983 0.47953 0.77945 0.0
H529 H 0.9953 0.52208 0.78454 0.0
H530 H 0.95536 0.5354 0.77643 0.0
H531 H 0.97495 0.58965 0.80797 0.0
H532 H 1.01451 0.57659 0.81609 0.0
H533 H 0.97193 0.57051 0.83274 0.0
H534 H 0.87836 0.40451 0.84654 0.0
H535 H 0.9448 0.41366 0.86291 0.0
H536 H 1.02295 0.51893 0.82532 0.0
C537 C 0.883 0.52898 0.80712 0.0
C538 C 0.84168 0.51531 0.81493 0.0
C539 C 0.81927 0.47491 0.82368 0.0
C540 C 0.83951 0.45044 0.82639 0.0
C541 C 0.88182 0.46645 0.8199 0.0
C542 C 0.90295 0.50436 0.80993 0.0
C543 C 0.95061 0.51925 0.80791 0.0
C544 C 0.96086 0.51371 0.78577 0.0
C545 C 0.97962 0.56672 0.81673 0.0
C546 C 0.95407 0.48703 0.82041 0.0
C547 C 0.91384 0.45573 0.82654 0.0
C548 C 0.90985 0.4277 0.84122 0.0
C549 C 0.94775 0.43324 0.85055 0.0
C550 C 0.98901 0.46673 0.84524 0.0
C551 C 0.99196 0.49205 0.82919 0.0
H552 H 0.35098 0.77007 0.16249 0.0
H553 H 0.33933 0.86568 0.13046 0.0
H554 H 0.41864 0.90546 0.12593 0.0
H555 H 0.42811 0.8371 0.19258 0.0
H556 H 0.45862 0.80938 0.1942 0.0
H557 H 0.40223 0.77891 0.18712 0.0
H558 H 0.41933 0.74878 0.1536 0.0
H559 H 0.47601 0.77842 0.16149 0.0
H560 H 0.45917 0.78603 0.13727 0.0
H561 H 0.49618 0.94399 0.13274 0.0
H562 H 0.56031 0.98432 0.15509 0.0
H563 H 0.52515 0.86755 0.1854 0.0
C564 C 0.36528 0.79821 0.15362 0.0
C565 C 0.33968 0.81466 0.14641 0.0
C566 C 0.35879 0.85247 0.13572 0.0
C567 C 0.40366 0.87484 0.13292 0.0
C568 C 0.42878 0.85911 0.14113 0.0
C569 C 0.41014 0.82151 0.15134 0.0
C570 C 0.44401 0.81735 0.16314 0.0
C571 C 0.43255 0.81038 0.18557 0.0
C572 C 0.45003 0.78047 0.15329 0.0
C573 C 0.48354 0.86133 0.16037 0.0
C574 C 0.47478 0.88333 0.14635 0.0
C575 C 0.5038 0.92678 0.14334 0.0
C576 C 0.54056 0.94951 0.15617 0.0
C577 C 0.54747 0.92905 0.17219 0.0
C578 C 0.52051 0.88371 0.17322 0.0
H579 H 0.69464 0.32078 0.51149 0.0
H580 H 0.60413 0.35228 0.48495 0.0
H581 H 0.66492 0.42551 0.47869 0.0
H582 H 0.7519 0.40618 0.53973 0.0
H583 H 0.8055 0.41406 0.53582 0.0
H584 H 0.75907 0.36102 0.53115 0.0
H585 H 0.78296 0.35677 0.49456 0.0
H586 H 0.82993 0.41069 0.49897 0.0
H587 H 0.79267 0.39864 0.47813 0.0
H588 H 0.72935 0.49833 0.48404 0.0
H589 H 0.78644 0.56319 0.50313 0.0
H590 H 0.83672 0.48617 0.52693 0.0
C591 C 0.68821 0.34276 0.50362 0.0
C592 C 0.64526 0.33156 0.49868 0.0
C593 C 0.63714 0.36057 0.48862 0.0
C594 C 0.67151 0.40197 0.48489 0.0
C595 C 0.71366 0.41314 0.49089 0.0
C596 C 0.72216 0.38394 0.49973 0.0
C597 C 0.76856 0.40577 0.50783 0.0
C598 C 0.77134 0.39624 0.52994 0.0
C599 C 0.79515 0.39214 0.49408 0.0
C600 C 0.78223 0.45292 0.50565 0.0
C601 C 0.75148 0.45623 0.49438 0.0
C602 C 0.75419 0.49619 0.49235 0.0
C603 C 0.78705 0.53308 0.50326 0.0
C604 C 0.81604 0.52956 0.51651 0.0
C605 C 0.81525 0.48959 0.51668 0.0
H606 H 0.4834 0.69596 0.82401 0.0
H607 H 0.39124 0.5958 0.78089 0.0
H608 H 0.35218 0.63626 0.77858 0.0
H609 H 0.41662 0.70093 0.85276 0.0
H610 H 0.44255 0.75853 0.85988 0.0
H611 H 0.47461 0.73545 0.85111 0.0
H612 H 0.50473 0.78968 0.82332 0.0
H613 H 0.47222 0.81303 0.83187 0.0
H614 H 0.46811 0.79289 0.80584 0.0
H615 H 0.31074 0.66977 0.78932 0.0
H616 H 0.26854 0.68598 0.81356 0.0
H617 H 0.38496 0.76826 0.85075 0.0
C618 C 0.45661 0.68435 0.81315 0.0
C619 C 0.44054 0.6435 0.80234 0.0
C620 C 0.4042 0.62749 0.78901 0.0
C621 C 0.38213 0.65055 0.78752 0.0
C622 C 0.39671 0.68941 0.79954 0.0
C623 C 0.43369 0.70665 0.81197 0.0
C624 C 0.43636 0.74198 0.82705 0.0
C625 C 0.44281 0.73361 0.84896 0.0
C626 C 0.47249 0.78706 0.82168 0.0
C627 C 0.39213 0.73705 0.82328 0.0
C628 C 0.37113 0.7088 0.80646 0.0
C629 C 0.32728 0.69295 0.8021 0.0
C630 C 0.30337 0.70268 0.81611 0.0
C631 C 0.32323 0.72787 0.83445 0.0
C632 C 0.36883 0.74839 0.83703 0.0
H633 H 0.86357 0.40774 0.18123 0.0
H634 H 0.86111 0.33773 0.1244 0.0
H635 H 0.78194 0.30242 0.123 0.0
H636 H 0.7859 0.33586 0.20335 0.0
H637 H 0.76162 0.36639 0.21394 0.0
H638 H 0.8176 0.39433 0.20788 0.0
H639 H 0.8048 0.44285 0.18465 0.0
H640 H 0.74833 0.41531 0.19105 0.0
H641 H 0.76305 0.41791 0.16496 0.0
H642 H 0.70686 0.25933 0.13346 0.0
H643 H 0.64625 0.21518 0.15433 0.0
H644 H 0.69142 0.32377 0.19973 0.0
C645 C 0.8475 0.38703 0.16779 0.0
C646 C 0.8699 0.37531 0.15325 0.0
C647 C 0.84564 0.34643 0.13639 0.0
C648 C 0.80032 0.32689 0.1351 0.0
C649 C 0.77955 0.33818 0.15014 0.0
C650 C 0.80261 0.36888 0.16579 0.0
C651 C 0.77271 0.37168 0.18134 0.0
C652 C 0.7852 0.36668 0.20285 0.0
C653 C 0.77219 0.41447 0.18044 0.0
C654 C 0.72983 0.33314 0.1736 0.0
C655 C 0.73417 0.3152 0.15516 0.0
C656 C 0.70236 0.27394 0.14742 0.0
C657 C 0.6675 0.24891 0.15953 0.0
C658 C 0.66439 0.26541 0.17917 0.0
C659 C 0.69346 0.30967 0.18511 0.0
H660 H 0.14142 0.55548 0.10274 0.0
H661 H 0.15748 0.68247 0.12081 0.0
H662 H 0.17536 0.70386 0.08603 0.0
H663 H 0.22714 0.59181 0.06591 0.0
H664 H 0.19643 0.5449 0.04843 0.0
H665 H 0.18806 0.54042 0.07516 0.0
H666 H 1.1059 0.51117 0.06891 0.0
H667 H 0.114 0.51559 0.04219 0.0
H668 H 1.08882 0.54267 0.05543 0.0
H669 H 0.18864 0.71086 0.04933 0.0
H670 H 0.19345 0.70176 0.01241 0.0
H671 H 0.16755 0.56997 0.01769 0.0
C672 C 0.14918 0.58792 0.0994 0.0
C673 C 0.14831 0.61737 0.1145 0.0
C674 C 0.158 0.65934 0.1095 0.0
C675 C 0.16835 0.6719 0.0898 0.0
C676 C 0.1686 0.64205 0.07523 0.0
C677 C 0.1591 0.60087 0.07971 0.0
C678 C 0.15925 0.57427 0.06093 0.0
C679 C 0.19485 0.56215 0.06272 0.0
C680 C 0.11432 0.53352 0.05661 0.0
C681 C 0.1698 0.60681 0.04521 0.0
C682 C 0.17553 0.64583 0.05384 0.0
C683 C 0.18458 0.68059 0.04238 0.0
C684 C 0.18748 0.6752 0.02145 0.0
C685 C 0.18107 0.63526 0.01221 0.0
C686 C 0.17243 0.6008 0.02433 0.0
H687 H 0.58098 1.04847 0.4417 0.0
H688 H 0.55822 0.15509 0.45893 0.0
H689 H 0.55458 0.16696 0.42288 0.0
H690 H 0.65141 0.09997 0.40211 0.0
H691 H 0.63246 1.0506 0.38601 0.0
H692 H 0.6297 1.04831 0.41301 0.0
H693 H 0.54711 0.99317 0.40941 0.0
H694 H 0.54958 0.99528 0.38236 0.0
H695 H 0.51235 1.00707 0.39602 0.0
H696 H 0.55462 0.16773 0.38509 0.0
H697 H 0.56219 0.1603 0.34834 0.0
H698 H 0.58984 1.05622 0.3562 0.0
C699 C 0.57456 1.07389 0.43789 0.0
C700 C 0.56938 0.1006 0.45303 0.0
C701 C 0.56205 0.13417 0.4475 0.0
C702 C 0.55983 0.14106 0.4271 0.0
C703 C 0.5654 0.11431 0.41252 0.0
C704 C 0.57289 0.0816 0.41766 0.0
C705 C 0.58047 1.0592 0.3992 0.0
C706 C 0.62623 1.06488 0.40015 0.0
C707 C 0.54527 1.01081 0.3966 0.0
C708 C 0.57621 0.08453 0.38284 0.0
C709 C 0.56709 0.11586 0.39082 0.0
C710 C 0.56196 0.14345 0.37867 0.0
C711 C 0.56669 0.13918 0.35782 0.0
C712 C 0.577 0.10791 0.34933 0.0
C713 C 0.58146 0.08009 0.36211 0.0
H714 H 0.64165 0.62342 0.77243 0.0
H715 H 0.63388 0.50006 0.78091 0.0
H716 H 0.64727 0.49234 0.74475 0.0
H717 H 0.59613 0.59721 0.71902 0.0
H718 H 0.63422 0.65118 0.71201 0.0
H719 H 0.61557 0.64304 0.7375 0.0
H720 H 0.69529 0.68126 0.75104 0.0
H721 H 0.7142 0.68909 0.72566 0.0
H722 H 0.73019 0.66094 0.74213 0.0
H723 H 0.6696 0.50164 0.70917 0.0
H724 H 0.70029 0.52761 0.67621 0.0
H725 H 0.69872 0.64756 0.69112 0.0
C726 C 0.64109 0.59408 0.7664 0.0
C727 C 0.63586 0.56182 0.77918 0.0
C728 C 0.63722 0.52471 0.77115 0.0
C729 C 0.64474 0.52005 0.75067 0.0
C730 C 0.65127 0.55306 0.73851 0.0
C731 C 0.64948 0.58937 0.746 0.0
C732 C 0.66293 0.62244 0.73029 0.0
C733 C 0.62494 0.62883 0.72436 0.0
C734 C 0.70303 0.66599 0.73773 0.0
C735 C 0.67369 0.59957 0.71307 0.0
C736 C 0.66602 0.55931 0.71804 0.0
C737 C 0.67542 0.53297 0.70502 0.0
C738 C 0.69331 0.54823 0.68642 0.0
C739 C 0.70215 0.58972 0.68108 0.0
C740 C 0.69175 0.61543 0.69459 0.0
H741 H 0.588 0.11307 0.58777 0.0
H742 H 0.62599 1.01999 0.56536 0.0
H743 H 0.63558 1.00625 0.60046 0.0
H744 H 0.66638 0.15888 0.62968 0.0
H745 H 0.63084 0.16736 0.64641 0.0
H746 H 0.62538 0.16858 0.61954 0.0
H747 H 0.54438 0.10875 0.62031 0.0
H748 H 0.54965 0.1072 0.64717 0.0
H749 H 0.53002 1.05803 0.63085 0.0
H750 H 0.63764 1.00022 0.63789 0.0
H751 H 0.63901 1.00697 0.67498 0.0
H752 H 0.60734 0.10999 0.67327 0.0
C753 C 0.59812 0.08965 0.5903 0.0
C754 C 0.60592 1.06726 0.57389 0.0
C755 C 0.61989 1.03746 0.57774 0.0
C756 C 0.62525 1.02934 0.59761 0.0
C757 C 0.61726 1.05188 0.61346 0.0
C758 C 0.60462 0.08191 0.61006 0.0
C759 C 0.60012 0.10316 0.6298 0.0
C760 C 0.63262 0.15241 0.63145 0.0
C761 C 0.55325 0.0937 0.63217 0.0
C762 C 0.61166 0.07998 0.64483 0.0
C763 C 0.62099 1.05025 0.63507 0.0
C764 C 0.63114 1.02395 0.64571 0.0
C765 C 0.63224 1.02841 0.66688 0.0
C766 C 0.62404 1.05959 0.67738 0.0
C767 C 0.61349 0.08555 0.66599 0.0
H768 H 0.58655 0.55605 0.91188 0.0
H769 H 0.71756 0.66253 0.90427 0.0
H770 H 0.72906 0.67555 0.94107 0.0
H771 H 0.56404 0.60686 0.95653 0.0
H772 H 0.53407 0.55659 0.96857 0.0
H773 H 0.53488 0.55591 0.9414 0.0
H774 H 0.56334 0.50162 0.94026 0.0
H775 H 0.56267 0.50218 0.96741 0.0
H776 H 0.61207 0.51549 0.95457 0.0
H777 H 0.72841 0.67626 0.97833 0.0
H778 H 0.71478 0.66508 0.01445 0.0
H779 H 0.58438 0.55859 0.99911 0.0
C780 C 0.6175 0.5823 0.91797 0.0
C781 C 0.6511 0.6082 0.90503 0.0
C782 C 0.69121 0.64209 0.9137 0.0
C783 C 0.69816 0.64987 0.93466 0.0
C784 C 0.66471 0.62366 0.94694 0.0
C785 C 0.6251 0.59065 0.93902 0.0
C786 C 0.59509 0.56693 0.95584 0.0
C787 C 0.55462 0.57188 0.95556 0.0
C788 C 0.58257 0.5187 0.95443 0.0
C789 C 0.6243 0.59161 0.97433 0.0
C790 C 0.66427 0.6242 0.96875 0.0
C791 C 0.69721 0.6509 0.98293 0.0
C792 C 0.68924 0.64411 0.00342 0.0
C793 C 0.64863 0.61086 0.00965 0.0
C794 C 0.61563 0.5845 0.99484 0.0
H795 H 0.13032 0.6285 0.25012 0.0
H796 H 1.0559 0.49128 0.22962 0.0
H797 H 1.04329 0.47227 0.26495 0.0
H798 H 0.18195 0.61601 0.29339 0.0
H799 H 0.17895 0.65749 0.30928 0.0
H800 H 0.1819 0.66087 0.28231 0.0
H801 H 1.11121 0.66477 0.28162 0.0
H802 H 1.10815 0.6616 0.30861 0.0
H803 H 1.06299 0.62274 0.29235 0.0
H804 H 1.04006 0.4675 0.30238 0.0
H805 H 1.04458 0.47746 0.33953 0.0
H806 H 0.11914 0.61774 0.33624 0.0
C807 C 1.11123 0.59445 0.25303 0.0
C808 C 1.09416 0.56144 0.23696 0.0
C809 C 1.06936 0.51729 0.24155 0.0
C810 C 1.06201 0.50607 0.26161 0.0
C811 C 1.07949 0.5393 0.27704 0.0
C812 C 1.10341 0.5826 0.27303 0.0
C813 C 0.11841 0.61187 0.2925 0.0
C814 C 0.16827 0.6381 0.29448 0.0
C815 C 1.09902 0.64202 0.29385 0.0
C816 C 1.09939 0.57818 0.30803 0.0
C817 C 1.07712 0.53655 0.29874 0.0
C818 C 1.05708 0.49997 0.30983 0.0
C819 C 1.05961 0.50603 0.33098 0.0
C820 C 1.08184 0.5484 0.34096 0.0
C821 C 1.10213 0.58488 0.32919 0.0
loop_
_geom_bond_atom_site_label_1
_geom_bond_atom_site_label_2
_geom_bond_distance
_geom_bond_site_symmetry_2
_ccdc_geom_bond_type
Eu0 C9 2.828 . S
Eu0 O11 2.392 1_655 S
Eu0 O13 2.418 . S
Eu0 O18 2.373 . S
Eu0 O21 2.488 . S
Eu0 O22 2.471 . S
Eu0 O23 2.349 . S
Eu1 O10 2.373 . S
Eu1 O14 2.488 . S
Eu1 O15 2.471 . S
Eu1 O16 2.349 . S
Eu1 O19 2.392 1_455 S
Eu1 O20 2.418 . S
Eu1 C30 2.828 . S
C2 O20 1.244 . S
C2 O23 1.265 1_455 S
C3 C4 1.379 . S
C3 C7 1.373 . S
C3 C9 1.505 . S
C4 C3 1.379 . S
C4 C6 1.369 . S
C4 H32 0.930 . S
C5 C7 1.383 . S
C5 C8 1.382 . S
C5 H33 0.930 . S
C6 C4 1.369 . S
C6 C8 1.392 . S
C6 H34 0.930 . S
C7 C3 1.373 . S
C7 C5 1.383 . S
C7 H35 0.931 . S
C8 C5 1.382 . S
C8 C6 1.392 . S
C9 Eu0 2.828 . S
C9 C3 1.505 . S
C9 O21 1.249 . S
C9 O22 1.244 . S
O10 Eu1 2.373 . S
O10 C12 1.258 . S
O11 Eu0 2.392 1_455 S
O11 C12 1.242 . S
C12 O10 1.258 . S
C12 O11 1.242 . S
O13 Eu0 2.418 . S
O13 C17 1.243 . S
O14 Eu1 2.488 . S
O14 C30 1.249 . S
O15 Eu1 2.471 . S
O15 C30 1.244 . S
O16 Eu1 2.349 . S
O16 C17 1.265 1_455 S
C17 O13 1.243 . S
C17 O16 1.265 1_655 S
O18 Eu0 2.373 . S
O18 C31 1.258 . S
O19 Eu1 2.392 1_655 S
O19 C31 1.242 . S
O20 Eu1 2.418 . S
O20 C2 1.244 . S
O21 Eu0 2.488 . S
O21 C9 1.249 . S
O22 Eu0 2.471 . S
O22 C9 1.244 . S
O23 Eu0 2.349 . S
O23 C2 1.265 1_655 S
C24 C25 1.379 . S
C24 C28 1.373 . S
C24 C30 1.505 . S
C25 C24 1.379 . S
C25 C27 1.369 . S
C25 H36 0.930 . S
C26 C28 1.383 . S
C26 C29 1.382 . S
C26 H37 0.930 . S
C27 C25 1.369 . S
C27 C29 1.392 . S
C27 H38 0.930 . S
C28 C24 1.373 . S
C28 C26 1.383 . S
C28 H39 0.931 . S
C29 C26 1.382 . S
C29 C27 1.392 . S
C30 Eu1 2.828 . S
C30 O14 1.249 . S
C30 O15 1.244 . S
C30 C24 1.505 . S
C31 O18 1.258 . S
C31 O19 1.242 . S
H32 C4 0.930 . S
H33 C5 0.930 . S
H34 C6 0.930 . S
H35 C7 0.931 . S
H36 C25 0.930 . S
H37 C26 0.930 . S
H38 C27 0.930 . S
H39 C28 0.931 . S
Eu40 C49 2.828 . S
Eu40 O51 2.392 1_565 S
Eu40 O53 2.418 . S
Eu40 O58 2.373 . S
Eu40 O61 2.488 . S
Eu40 O62 2.471 . S
Eu40 O63 2.354 . S
Eu41 O50 2.373 . S
Eu41 O54 2.488 . S
Eu41 O55 2.471 . S
Eu41 O56 2.349 . S
Eu41 O59 2.392 1_545 S
Eu41 O60 2.418 . S
Eu41 C70 2.828 . S
C42 O60 1.244 . S
C42 O63 1.260 1_545 S
C43 C44 1.379 . S
C43 C47 1.373 . S
C43 C49 1.505 . S
C44 C43 1.379 . S
C44 C46 1.369 . S
C44 H72 0.930 . S
C45 C47 1.383 . S
C45 C48 1.382 . S
C45 H73 0.930 . S
C46 C44 1.369 . S
C46 C48 1.392 . S
C46 H74 0.930 . S
C47 C43 1.373 . S
C47 C45 1.383 . S
C47 H75 0.931 . S
C48 C45 1.382 . S
C48 C46 1.392 . S
C49 Eu40 2.828 . S
C49 C43 1.505 . S
C49 O61 1.249 . S
C49 O62 1.244 . S
O50 Eu41 2.373 . S
O50 C52 1.258 . S
O51 Eu40 2.392 1_545 S
O51 C52 1.242 . S
C52 O50 1.258 . S
C52 O51 1.242 . S
O53 Eu40 2.418 . S
O53 C57 1.244 1_565 S
O54 Eu41 2.488 . S
O54 C70 1.249 . S
O55 Eu41 2.471 . S
O55 C70 1.244 . S
O56 Eu41 2.349 . S
O56 C57 1.265 . S
C57 O53 1.244 1_545 S
C57 O56 1.265 . S
O58 Eu40 2.373 . S
O58 C71 1.258 . S
O59 Eu41 2.392 1_565 S
O59 C71 1.242 . S
O60 Eu41 2.418 . S
O60 C42 1.244 . S
O61 Eu40 2.488 . S
O61 C49 1.249 . S
O62 Eu40 2.471 . S
O62 C49 1.244 . S
O63 Eu40 2.354 . S
O63 C42 1.260 1_565 S
C64 C65 1.379 . S
C64 C68 1.373 . S
C64 C70 1.505 . S
C65 C64 1.379 . S
C65 C67 1.369 . S
C65 H76 0.930 . S
C66 C68 1.383 . S
C66 C69 1.382 . S
C66 H77 0.930 . S
C67 C65 1.369 . S
C67 C69 1.392 . S
C67 H78 0.930 . S
C68 C64 1.373 . S
C68 C66 1.383 . S
C68 H79 0.931 . S
C69 C66 1.382 . S
C69 C67 1.392 . S
C70 Eu41 2.828 . S
C70 O54 1.249 . S
C70 O55 1.244 . S
C70 C64 1.505 . S
C71 O58 1.258 . S
C71 O59 1.242 . S
H72 C44 0.930 . S
H73 C45 0.930 . S
H74 C46 0.930 . S
H75 C47 0.931 . S
H76 C65 0.930 . S
H77 C66 0.930 . S
H78 C67 0.930 . S
H79 C68 0.931 . S
Eu80 C89 2.828 . S
Eu80 O91 2.392 . S
Eu80 O93 2.418 . S
Eu80 O98 2.373 . S
Eu80 O101 2.488 . S
Eu80 O102 2.471 . S
Eu80 O103 2.349 . S
Eu81 O90 2.373 . S
Eu81 O94 2.488 . S
Eu81 O95 2.471 . S
Eu81 O96 2.349 . S
Eu81 O99 2.392 . S
Eu81 O100 2.418 . S
Eu81 C110 2.828 . S
C82 O100 1.244 . S
C82 O103 1.265 . S
C83 C84 1.379 . S
C83 C87 1.373 . S
C83 C89 1.505 . S
C84 C83 1.379 . S
C84 C86 1.369 . S
C84 H112 0.930 . S
C85 C87 1.383 . S
C85 C88 1.382 . S
C85 H113 0.930 . S
C86 C84 1.369 . S
C86 C88 1.392 . S
C86 H114 0.930 . S
C87 C83 1.373 . S
C87 C85 1.383 . S
C87 H115 0.931 . S
C88 C85 1.382 . S
C88 C86 1.392 . S
C89 Eu80 2.828 . S
C89 C83 1.505 . S
C89 O101 1.249 . S
C89 O102 1.244 . S
O90 Eu81 2.373 . S
O90 C92 1.258 . S
O91 Eu80 2.392 . S
O91 C92 1.242 . S
C92 O90 1.258 . S
C92 O91 1.242 . S
O93 Eu80 2.418 . S
O93 C97 1.244 . S
O94 Eu81 2.488 . S
O94 C110 1.249 . S
O95 Eu81 2.471 . S
O95 C110 1.244 . S
O96 Eu81 2.349 . S
O96 C97 1.265 . S
C97 O93 1.244 . S
C97 O96 1.265 . S
O98 Eu80 2.373 . S
O98 C111 1.258 . S
O99 Eu81 2.392 . S
O99 C111 1.242 . S
O100 Eu81 2.418 . S
O100 C82 1.244 . S
O101 Eu80 2.488 . S
O101 C89 1.249 . S
O102 Eu80 2.471 . S
O102 C89 1.244 . S
O103 Eu80 2.349 . S
O103 C82 1.265 . S
C104 C105 1.379 . S
C104 C108 1.373 . S
C104 C110 1.505 . S
C105 C104 1.379 . S
C105 C107 1.369 . S
C105 H116 0.930 . S
C106 C108 1.383 . S
C106 C109 1.382 . S
C106 H117 0.930 . S
C107 C105 1.369 . S
C107 C109 1.392 . S
C107 H118 0.930 . S
C108 C104 1.373 . S
C108 C106 1.383 . S
C108 H119 0.931 . S
C109 C106 1.382 . S
C109 C107 1.392 . S
C110 Eu81 2.828 . S
C110 O94 1.249 . S
C110 O95 1.244 . S
C110 C104 1.505 . S
C111 O98 1.258 . S
C111 O99 1.242 . S
H112 C84 0.930 . S
H113 C85 0.930 . S
H114 C86 0.930 . S
H115 C87 0.931 . S
H116 C105 0.930 . S
H117 C106 0.930 . S
H118 C107 0.930 . S
H119 C108 0.931 . S
C120 C121 1.384 . S
C120 H133 0.947 . S
C120 C155 1.382 . S
C121 C120 1.384 . S
C121 C122 1.378 . S
C122 C121 1.378 . S
C122 C123 1.378 . S
C122 H134 0.952 . S
C123 C122 1.378 . S
C123 H135 0.950 . S
C123 C154 1.383 . S
H124 C143 0.947 . S
H125 C144 0.946 . S
H126 C146 0.953 . S
H127 C147 0.945 . S
H128 C149 0.952 . S
H129 C150 0.949 . S
H130 C152 0.950 . S
H131 C153 0.948 . S
H132 C155 0.951 . S
H133 C120 0.947 . S
H134 C122 0.952 . S
H135 C123 0.950 . S
N136 C139 1.382 . S
N136 C141 1.363 1_545 S
N137 C139 1.371 . S
N137 C140 1.372 . S
N138 C140 1.361 1_565 S
N138 C141 1.377 . S
C139 N136 1.382 . S
C139 N137 1.371 . S
C139 C142 1.480 . S
C140 N137 1.372 . S
C140 N138 1.361 1_545 S
C140 C148 1.457 . S
C141 N136 1.363 1_565 S
C141 N138 1.377 . S
C141 C154 1.479 . S
C142 C139 1.480 . S
C142 C143 1.383 . S
C142 C147 1.385 . S
C143 H124 0.947 . S
C143 C142 1.383 . S
C143 C144 1.388 . S
C144 H125 0.946 . S
C144 C143 1.388 . S
C144 C145 1.384 . S
C145 C144 1.384 . S
C145 C146 1.377 . S
C146 H126 0.953 . S
C146 C145 1.377 . S
C146 C147 1.369 . S
C147 H127 0.945 . S
C147 C142 1.385 . S
C147 C146 1.369 . S
C148 C140 1.457 . S
C148 C149 1.372 . S
C148 C153 1.364 1_545 S
C149 H128 0.952 . S
C149 C148 1.372 . S
C149 C150 1.389 . S
C150 H129 0.949 . S
C150 C149 1.389 . S
C150 C151 1.387 . S
C151 C150 1.387 . S
C151 C152 1.372 1_545 S
C152 H130 0.950 . S
C152 C151 1.372 1_565 S
C152 C153 1.379 . S
C153 H131 0.948 . S
C153 C148 1.364 1_565 S
C153 C152 1.379 . S
C154 C123 1.383 . S
C154 C141 1.479 . S
C154 C155 1.398 . S
C155 C120 1.382 . S
C155 H132 0.951 . S
C155 C154 1.398 . S
C156 C157 1.384 . S
C156 H169 0.947 . S
C156 C191 1.382 . S
C157 C156 1.384 . S
C157 C158 1.378 . S
C158 C157 1.378 . S
C158 C159 1.378 . S
C158 H170 0.952 . S
C159 C158 1.378 . S
C159 H171 0.950 . S
C159 C190 1.383 . S
H160 C179 0.947 . S
H161 C180 0.946 . S
H162 C182 0.953 . S
H163 C183 0.945 . S
H164 C185 0.952 . S
H165 C186 0.949 . S
H166 C188 0.950 . S
H167 C189 0.948 . S
H168 C191 0.951 . S
H169 C156 0.947 . S
H170 C158 0.952 . S
H171 C159 0.950 . S
N172 C175 1.382 . S
N172 C177 1.363 . S
N173 C175 1.371 . S
N173 C176 1.372 . S
N174 C176 1.361 . S
N174 C177 1.377 . S
C175 N172 1.382 . S
C175 N173 1.371 . S
C175 C178 1.480 . S
C176 N173 1.372 . S
C176 N174 1.361 . S
C176 C184 1.457 . S
C177 N172 1.363 . S
C177 N174 1.377 . S
C177 C190 1.479 . S
C178 C175 1.480 . S
C178 C179 1.383 . S
C178 C183 1.385 . S
C179 H160 0.947 . S
C179 C178 1.383 . S
C179 C180 1.388 . S
C180 H161 0.946 . S
C180 C179 1.388 . S
C180 C181 1.384 . S
C181 C180 1.384 . S
C181 C182 1.377 . S
C182 H162 0.953 . S
C182 C181 1.377 . S
C182 C183 1.369 . S
C183 H163 0.945 . S
C183 C178 1.385 . S
C183 C182 1.369 . S
C184 C176 1.457 . S
C184 C185 1.372 . S
C184 C189 1.364 . S
C185 H164 0.952 . S
C185 C184 1.372 . S
C185 C186 1.389 . S
C186 H165 0.949 . S
C186 C185 1.389 . S
C186 C187 1.387 . S
C187 C186 1.387 . S
C187 C188 1.372 . S
C188 H166 0.950 . S
C188 C187 1.372 . S
C188 C189 1.379 . S
C189 H167 0.948 . S
C189 C184 1.364 . S
C189 C188 1.379 . S
C190 C159 1.383 . S
C190 C177 1.479 . S
C190 C191 1.398 . S
C191 C156 1.382 . S
C191 H168 0.951 . S
C191 C190 1.398 . S
C192 C193 1.384 . S
C192 H205 0.947 . S
C192 C227 1.382 . S
C193 C192 1.384 . S
C193 C194 1.378 . S
C194 C193 1.378 . S
C194 C195 1.378 . S
C194 H206 0.952 . S
C195 C194 1.378 . S
C195 H207 0.950 . S
C195 C226 1.383 . S
H196 C215 0.947 . S
H197 C216 0.946 . S
H198 C218 0.953 . S
H199 C219 0.945 . S
H200 C221 0.952 . S
H201 C222 0.949 . S
H202 C224 0.930 1_655 S
H203 C225 0.961 . S
H204 C227 0.951 . S
H205 C192 0.947 . S
H206 C194 0.952 . S
H207 C195 0.950 . S
N208 C211 1.382 . S
N208 C213 1.363 . S
N209 C211 1.371 . S
N209 C212 1.372 . S
N210 C212 1.361 . S
N210 C213 1.377 . S
C211 N208 1.382 . S
C211 N209 1.371 . S
C211 C214 1.480 . S
C212 N209 1.372 . S
C212 N210 1.361 . S
C212 C220 1.457 . S
C213 N208 1.363 . S
C213 N210 1.377 . S
C213 C226 1.479 1_455 S
C214 C211 1.480 . S
C214 C215 1.383 . S
C214 C219 1.385 . S
C215 H196 0.947 . S
C215 C214 1.383 . S
C215 C216 1.388 . S
C216 H197 0.946 . S
C216 C215 1.388 . S
C216 C217 1.384 . S
C217 C216 1.384 . S
C217 C218 1.377 . S
C218 H198 0.953 . S
C218 C217 1.377 . S
C218 C219 1.369 . S
C219 H199 0.945 . S
C219 C214 1.385 . S
C219 C218 1.369 . S
C220 C212 1.457 . S
C220 C221 1.372 . S
C220 C225 1.350 1_455 S
C221 H200 0.952 . S
C221 C220 1.372 . S
C221 C222 1.389 . S
C222 H201 0.949 . S
C222 C221 1.389 . S
C222 C223 1.387 . S
C223 C222 1.387 . S
C223 C224 1.391 . S
C224 H202 0.930 1_455 S
C224 C223 1.391 . S
C224 C225 1.379 1_455 S
C225 H203 0.961 . S
C225 C220 1.350 1_655 S
C225 C224 1.379 1_655 S
C226 C195 1.383 . S
C226 C213 1.479 1_655 S
C226 C227 1.398 . S
C227 C192 1.382 . S
C227 H204 0.951 . S
C227 C226 1.398 . S
C228 C229 1.384 . S
C228 H241 0.947 . S
C228 C263 1.382 . S
C229 C228 1.384 . S
C229 C230 1.378 . S
C230 C229 1.378 . S
C230 C231 1.378 . S
C230 H242 0.952 . S
C231 C230 1.378 . S
C231 H243 0.950 . S
C231 C262 1.383 . S
H232 C251 0.947 . S
H233 C252 0.946 . S
H234 C254 0.953 . S
H235 C255 0.945 . S
H236 C257 0.952 . S
H237 C258 0.949 . S
H238 C260 0.950 . S
H239 C261 0.948 . S
H240 C263 0.951 . S
H241 C228 0.947 . S
H242 C230 0.952 . S
H243 C231 0.950 . S
N244 C247 1.382 1_455 S
N244 C249 1.363 . S
N245 C247 1.371 . S
N245 C248 1.372 1_655 S
N246 C248 1.361 . S
N246 C249 1.377 . S
C247 N244 1.382 1_655 S
C247 N245 1.371 . S
C247 C250 1.480 . S
C248 N245 1.372 1_455 S
C248 N246 1.361 . S
C248 C256 1.457 . S
C249 N244 1.363 . S
C249 N246 1.377 . S
C249 C262 1.479 . S
C250 C247 1.480 . S
C250 C251 1.383 . S
C250 C255 1.385 . S
C251 H232 0.947 . S
C251 C250 1.383 . S
C251 C252 1.388 . S
C252 H233 0.946 . S
C252 C251 1.388 . S
C252 C253 1.384 . S
C253 C252 1.384 . S
C253 C254 1.377 . S
C254 H234 0.953 . S
C254 C253 1.377 . S
C254 C255 1.369 . S
C255 H235 0.945 . S
C255 C250 1.385 . S
C255 C254 1.369 . S
C256 C248 1.457 . S
C256 C257 1.372 1_455 S
C256 C261 1.364 . S
C257 H236 0.952 . S
C257 C256 1.372 1_655 S
C257 C258 1.389 . S
C258 H237 0.949 . S
C258 C257 1.389 . S
C258 C259 1.387 1_655 S
C259 C258 1.387 1_455 S
C259 C260 1.372 . S
C260 H238 0.950 . S
C260 C259 1.372 . S
C260 C261 1.379 . S
C261 H239 0.948 . S
C261 C256 1.364 . S
C261 C260 1.379 . S
C262 C231 1.383 . S
C262 C249 1.479 . S
C262 C263 1.398 . S
C263 C228 1.382 . S
C263 H240 0.951 . S
C263 C262 1.398 . S
C264 C265 1.384 . S
C264 H277 0.947 . S
C264 C299 1.382 . S
C265 C264 1.384 . S
C265 C266 1.378 . S
C266 C265 1.378 . S
C266 C267 1.378 . S
C266 H278 0.952 . S
C267 C266 1.378 . S
C267 H279 0.950 . S
C267 C298 1.383 . S
H268 C287 0.947 . S
H269 C288 0.946 . S
H270 C290 0.953 . S
H271 C291 0.945 . S
H272 C293 0.952 . S
H273 C294 0.949 . S
H274 C296 0.950 . S
H275 C297 0.948 . S
H276 C299 0.951 . S
H277 C264 0.947 . S
H278 C266 0.952 . S
H279 C267 0.950 . S
N280 C283 1.382 1_545 S
N280 C285 1.363 . S
N281 C283 1.371 . S
N281 C284 1.372 1_565 S
N282 C284 1.361 . S
N282 C285 1.377 . S
C283 N280 1.382 1_565 S
C283 N281 1.371 . S
C283 C286 1.480 . S
C284 N281 1.372 1_545 S
C284 N282 1.361 . S
C284 C292 1.457 . S
C285 N280 1.363 . S
C285 N282 1.377 . S
C285 C298 1.479 . S
C286 C283 1.480 . S
C286 C287 1.383 . S
C286 C291 1.385 . S
C287 H268 0.947 . S
C287 C286 1.383 . S
C287 C288 1.388 . S
C288 H269 0.946 . S
C288 C287 1.388 . S
C288 C289 1.384 . S
C289 C288 1.384 . S
C289 C290 1.377 . S
C290 H270 0.953 . S
C290 C289 1.377 . S
C290 C291 1.369 . S
C291 H271 0.945 . S
C291 C286 1.385 . S
C291 C290 1.369 . S
C292 C284 1.457 . S
C292 C293 1.372 1_545 S
C292 C297 1.364 . S
C293 H272 0.952 . S
C293 C292 1.372 1_565 S
C293 C294 1.389 . S
C294 H273 0.949 . S
C294 C293 1.389 . S
C294 C295 1.387 1_565 S
C295 C294 1.387 1_545 S
C295 C296 1.372 . S
C296 H274 0.950 . S
C296 C295 1.372 . S
C296 C297 1.379 . S
C297 H275 0.948 . S
C297 C292 1.364 . S
C297 C296 1.379 . S
C298 C267 1.383 . S
C298 C285 1.479 . S
C298 C299 1.398 . S
C299 C264 1.382 . S
C299 H276 0.951 . S
C299 C298 1.398 . S
C300 C301 1.384 . S
C300 H313 0.947 . S
C300 C335 1.382 . S
C301 C300 1.384 . S
C301 C302 1.378 . S
C302 C301 1.378 . S
C302 C303 1.378 . S
C302 H314 0.952 . S
C303 C302 1.378 . S
C303 H315 0.950 . S
C303 C334 1.383 . S
H304 C323 0.947 . S
H305 C324 0.946 . S
H306 C326 0.953 . S
H307 C327 0.945 . S
H308 C329 0.952 . S
H309 C330 0.949 . S
H310 C332 0.950 . S
H311 C333 0.948 . S
H312 C335 0.951 . S
H313 C300 0.947 . S
H314 C302 0.952 . S
H315 C303 0.950 . S
N316 C319 1.382 . S
N316 C321 1.363 . S
N317 C319 1.371 . S
N317 C320 1.372 . S
N318 C320 1.361 . S
N318 C321 1.377 . S
C319 N316 1.382 . S
C319 N317 1.371 . S
C319 C322 1.480 . S
C320 N317 1.372 . S
C320 N318 1.361 . S
C320 C328 1.457 . S
C321 N316 1.363 . S
C321 N318 1.377 . S
C321 C334 1.479 . S
C322 C319 1.480 . S
C322 C323 1.383 . S
C322 C327 1.385 . S
C323 H304 0.947 . S
C323 C322 1.383 . S
C323 C324 1.388 . S
C324 H305 0.946 . S
C324 C323 1.388 . S
C324 C325 1.384 . S
C325 C324 1.384 . S
C325 C326 1.377 . S
C326 H306 0.953 . S
C326 C325 1.377 . S
C326 C327 1.369 . S
C327 H307 0.945 . S
C327 C322 1.385 . S
C327 C326 1.369 . S
C328 C320 1.457 . S
C328 C329 1.372 . S
C328 C333 1.364 . S
C329 H308 0.952 . S
C329 C328 1.372 . S
C329 C330 1.389 . S
C330 H309 0.949 . S
C330 C329 1.389 . S
C330 C331 1.387 . S
C331 C330 1.387 . S
C331 C332 1.372 . S
C332 H310 0.950 . S
C332 C331 1.372 . S
C332 C333 1.379 . S
C333 H311 0.948 . S
C333 C328 1.364 . S
C333 C332 1.379 . S
C334 C303 1.383 . S
C334 C321 1.479 . S
C334 C335 1.398 . S
C335 C300 1.382 . S
C335 H312 0.951 . S
C335 C334 1.398 . S
H336 C348 0.930 . S
H337 C350 0.930 . S
H338 C351 0.930 . S
H339 C355 0.959 . S
H340 C355 0.959 . S
H341 C355 0.961 . S
H342 C356 0.960 . S
H343 C356 0.961 . S
H344 C356 0.959 . S
H345 C359 0.929 . S
H346 C360 0.931 . S
H347 C362 0.930 . S
C348 H336 0.930 . S
C348 C349 1.399 . S
C348 C353 1.399 . S
C349 C348 1.399 . S
C349 C350 1.376 . S
C350 H337 0.930 . S
C350 C349 1.376 . S
C350 C351 1.388 . S
C351 H338 0.930 . S
C351 C350 1.388 . S
C351 C352 1.390 . S
C352 C351 1.390 . S
C352 C353 1.394 . S
C352 C358 1.465 . S
C353 C348 1.399 . S
C353 C352 1.394 . S
C353 C354 1.516 . S
C354 C353 1.516 . S
C354 C355 1.502 . S
C354 C356 1.561 . S
C354 C357 1.526 . S
C355 H339 0.959 . S
C355 H340 0.959 . S
C355 H341 0.961 . S
C355 C354 1.502 . S
C356 H342 0.960 . S
C356 H343 0.961 . S
C356 H344 0.959 . S
C356 C354 1.561 . S
C357 C354 1.526 . S
C357 C358 1.396 . S
C357 C362 1.390 . S
C358 C352 1.465 . S
C358 C357 1.396 . S
C358 C359 1.399 . S
C359 H345 0.929 . S
C359 C358 1.399 . S
C359 C360 1.385 . S
C360 H346 0.931 . S
C360 C359 1.385 . S
C360 C361 1.389 . S
C361 C360 1.389 . S
C361 C362 1.387 . S
C362 H347 0.930 . S
C362 C357 1.390 . S
C362 C361 1.387 . S
H363 C375 0.930 . S
H364 C377 0.930 . S
H365 C378 0.930 . S
H366 C382 0.959 . S
H367 C382 0.959 . S
H368 C382 0.961 . S
H369 C383 0.960 . S
H370 C383 0.961 . S
H371 C383 0.959 . S
H372 C386 0.929 . S
H373 C387 0.931 . S
H374 C389 0.930 . S
C375 H363 0.930 . S
C375 C376 1.399 . S
C375 C380 1.399 . S
C376 C375 1.399 . S
C376 C377 1.376 . S
C377 H364 0.930 . S
C377 C376 1.376 . S
C377 C378 1.388 . S
C378 H365 0.930 . S
C378 C377 1.388 . S
C378 C379 1.390 . S
C379 C378 1.390 . S
C379 C380 1.394 . S
C379 C385 1.465 . S
C380 C375 1.399 . S
C380 C379 1.394 . S
C380 C381 1.516 . S
C381 C380 1.516 . S
C381 C382 1.502 . S
C381 C383 1.561 . S
C381 C384 1.526 . S
C382 H366 0.959 . S
C382 H367 0.959 . S
C382 H368 0.961 . S
C382 C381 1.502 . S
C383 H369 0.960 . S
C383 H370 0.961 . S
C383 H371 0.959 . S
C383 C381 1.561 . S
C384 C381 1.526 . S
C384 C385 1.396 . S
C384 C389 1.390 . S
C385 C379 1.465 . S
C385 C384 1.396 . S
C385 C386 1.399 . S
C386 H372 0.929 . S
C386 C385 1.399 . S
C386 C387 1.385 . S
C387 H373 0.931 . S
C387 C386 1.385 . S
C387 C388 1.389 . S
C388 C387 1.389 . S
C388 C389 1.387 . S
C389 H374 0.930 . S
C389 C384 1.390 . S
C389 C388 1.387 . S
H390 C402 0.930 . S
H391 C404 0.930 . S
H392 C405 0.930 . S
H393 C409 0.959 . S
H394 C409 0.959 . S
H395 C409 0.961 . S
H396 C410 0.960 . S
H397 C410 0.961 . S
H398 C410 0.959 . S
H399 C413 0.929 . S
H400 C414 0.931 . S
H401 C416 0.930 . S
C402 H390 0.930 . S
C402 C403 1.399 . S
C402 C407 1.399 . S
C403 C402 1.399 . S
C403 C404 1.376 . S
C404 H391 0.930 . S
C404 C403 1.376 . S
C404 C405 1.388 . S
C405 H392 0.930 . S
C405 C404 1.388 . S
C405 C406 1.390 . S
C406 C405 1.390 . S
C406 C407 1.394 . S
C406 C412 1.465 . S
C407 C402 1.399 . S
C407 C406 1.394 . S
C407 C408 1.516 . S
C408 C407 1.516 . S
C408 C409 1.502 . S
C408 C410 1.561 . S
C408 C411 1.526 . S
C409 H393 0.959 . S
C409 H394 0.959 . S
C409 H395 0.961 . S
C409 C408 1.502 . S
C410 H396 0.960 . S
C410 H397 0.961 . S
C410 H398 0.959 . S
C410 C408 1.561 . S
C411 C408 1.526 . S
C411 C412 1.396 . S
C411 C416 1.390 . S
C412 C406 1.465 . S
C412 C411 1.396 . S
C412 C413 1.399 . S
C413 H399 0.929 . S
C413 C412 1.399 . S
C413 C414 1.385 . S
C414 H400 0.931 . S
C414 C413 1.385 . S
C414 C415 1.389 . S
C415 C414 1.389 . S
C415 C416 1.387 . S
C416 H401 0.930 . S
C416 C411 1.390 . S
C416 C415 1.387 . S
H417 C429 0.930 . S
H418 C431 0.930 . S
H419 C432 0.930 . S
H420 C436 0.959 . S
H421 C436 0.959 . S
H422 C436 0.961 . S
H423 C437 0.960 . S
H424 C437 0.961 . S
H425 C437 0.959 . S
H426 C440 0.929 . S
H427 C441 0.931 . S
H428 C443 0.930 . S
C429 H417 0.930 . S
C429 C430 1.399 . S
C429 C434 1.399 . S
C430 C429 1.399 . S
C430 C431 1.376 . S
C431 H418 0.930 . S
C431 C430 1.376 . S
C431 C432 1.388 . S
C432 H419 0.930 . S
C432 C431 1.388 . S
C432 C433 1.390 . S
C433 C432 1.390 . S
C433 C434 1.394 . S
C433 C439 1.465 . S
C434 C429 1.399 . S
C434 C433 1.394 . S
C434 C435 1.516 . S
C435 C434 1.516 . S
C435 C436 1.502 . S
C435 C437 1.561 . S
C435 C438 1.526 . S
C436 H420 0.959 . S
C436 H421 0.959 . S
C436 H422 0.961 . S
C436 C435 1.502 . S
C437 H423 0.960 . S
C437 H424 0.961 . S
C437 H425 0.959 . S
C437 C435 1.561 . S
C438 C435 1.526 . S
C438 C439 1.396 . S
C438 C443 1.390 . S
C439 C433 1.465 . S
C439 C438 1.396 . S
C439 C440 1.399 . S
C440 H426 0.929 . S
C440 C439 1.399 . S
C440 C441 1.385 . S
C441 H427 0.931 . S
C441 C440 1.385 . S
C441 C442 1.389 . S
C442 C441 1.389 . S
C442 C443 1.387 . S
C443 H428 0.930 . S
C443 C438 1.390 . S
C443 C442 1.387 . S
H444 C456 0.930 . S
H445 C458 0.930 . S
H446 C459 0.930 . S
H447 C463 0.959 . S
H448 C463 0.959 . S
H449 C463 0.961 . S
H450 C464 0.960 . S
H451 C464 0.961 . S
H452 C464 0.959 . S
H453 C467 0.929 . S
H454 C468 0.931 . S
H455 C470 0.930 . S
C456 H444 0.930 . S
C456 C457 1.399 . S
C456 C461 1.399 . S
C457 C456 1.399 . S
C457 C458 1.376 . S
C458 H445 0.930 . S
C458 C457 1.376 . S
C458 C459 1.388 . S
C459 H446 0.930 . S
C459 C458 1.388 . S
C459 C460 1.390 . S
C460 C459 1.390 . S
C460 C461 1.394 . S
C460 C466 1.465 . S
C461 C456 1.399 . S
C461 C460 1.394 . S
C461 C462 1.516 . S
C462 C461 1.516 . S
C462 C463 1.502 . S
C462 C464 1.561 . S
C462 C465 1.526 . S
C463 H447 0.959 . S
C463 H448 0.959 . S
C463 H449 0.961 . S
C463 C462 1.502 . S
C464 H450 0.960 . S
C464 H451 0.961 . S
C464 H452 0.959 . S
C464 C462 1.561 . S
C465 C462 1.526 . S
C465 C466 1.396 . S
C465 C470 1.390 . S
C466 C460 1.465 . S
C466 C465 1.396 . S
C466 C467 1.399 . S
C467 H453 0.929 . S
C467 C466 1.399 . S
C467 C468 1.385 . S
C468 H454 0.931 . S
C468 C467 1.385 . S
C468 C469 1.389 . S
C469 C468 1.389 . S
C469 C470 1.387 . S
C470 H455 0.930 . S
C470 C465 1.390 . S
C470 C469 1.387 . S
H471 C483 0.930 . S
H472 C485 0.930 . S
H473 C486 0.930 . S
H474 C490 0.959 . S
H475 C490 0.959 . S
H476 C490 0.961 . S
H477 C491 0.960 . S
H478 C491 0.961 . S
H479 C491 0.959 . S
H480 C494 0.929 . S
H481 C495 0.931 . S
H482 C497 0.930 . S
C483 H471 0.930 . S
C483 C484 1.399 . S
C483 C488 1.399 . S
C484 C483 1.399 . S
C484 C485 1.376 . S
C485 H472 0.930 . S
C485 C484 1.376 . S
C485 C486 1.388 . S
C486 H473 0.930 . S
C486 C485 1.388 . S
C486 C487 1.390 . S
C487 C486 1.390 . S
C487 C488 1.394 . S
C487 C493 1.465 . S
C488 C483 1.399 . S
C488 C487 1.394 . S
C488 C489 1.516 . S
C489 C488 1.516 . S
C489 C490 1.502 . S
C489 C491 1.561 . S
C489 C492 1.526 . S
C490 H474 0.959 . S
C490 H475 0.959 . S
C490 H476 0.961 . S
C490 C489 1.502 . S
C491 H477 0.960 . S
C491 H478 0.961 . S
C491 H479 0.959 . S
C491 C489 1.561 . S
C492 C489 1.526 . S
C492 C493 1.396 . S
C492 C497 1.390 . S
C493 C487 1.465 . S
C493 C492 1.396 . S
C493 C494 1.399 . S
C494 H480 0.929 . S
C494 C493 1.399 . S
C494 C495 1.385 . S
C495 H481 0.931 . S
C495 C494 1.385 . S
C495 C496 1.389 . S
C496 C495 1.389 . S
C496 C497 1.387 . S
C497 H482 0.930 . S
C497 C492 1.390 . S
C497 C496 1.387 . S
H498 C510 0.930 . S
H499 C512 0.930 . S
H500 C513 0.930 . S
H501 C517 0.959 . S
H502 C517 0.959 . S
H503 C517 0.961 . S
H504 C518 0.960 . S
H505 C518 0.961 . S
H506 C518 0.959 . S
H507 C521 0.929 . S
H508 C522 0.931 . S
H509 C524 0.930 . S
C510 H498 0.930 . S
C510 C511 1.399 . S
C510 C515 1.399 . S
C511 C510 1.399 . S
C511 C512 1.376 . S
C512 H499 0.930 . S
C512 C511 1.376 . S
C512 C513 1.388 . S
C513 H500 0.930 . S
C513 C512 1.388 . S
C513 C514 1.390 . S
C514 C513 1.390 . S
C514 C515 1.394 . S
C514 C520 1.465 . S
C515 C510 1.399 . S
C515 C514 1.394 . S
C515 C516 1.516 . S
C516 C515 1.516 . S
C516 C517 1.502 . S
C516 C518 1.561 . S
C516 C519 1.526 . S
C517 H501 0.959 . S
C517 H502 0.959 . S
C517 H503 0.961 . S
C517 C516 1.502 . S
C518 H504 0.960 . S
C518 H505 0.961 . S
C518 H506 0.959 . S
C518 C516 1.561 . S
C519 C516 1.526 . S
C519 C520 1.396 . S
C519 C524 1.390 . S
C520 C514 1.465 . S
C520 C519 1.396 . S
C520 C521 1.399 . S
C521 H507 0.929 . S
C521 C520 1.399 . S
C521 C522 1.385 . S
C522 H508 0.931 . S
C522 C521 1.385 . S
C522 C523 1.389 . S
C523 C522 1.389 . S
C523 C524 1.387 . S
C524 H509 0.930 . S
C524 C519 1.390 . S
C524 C523 1.387 . S
H525 C537 0.930 . S
H526 C539 0.930 . S
H527 C540 0.930 . S
H528 C544 0.959 . S
H529 C544 0.959 . S
H530 C544 0.961 . S
H531 C545 0.960 . S
H532 C545 0.961 . S
H533 C545 0.959 . S
H534 C548 0.929 . S
H535 C549 0.931 . S
H536 C551 0.930 . S
C537 H525 0.930 . S
C537 C538 1.399 . S
C537 C542 1.399 . S
C538 C537 1.399 . S
C538 C539 1.376 . S
C539 H526 0.930 . S
C539 C538 1.376 . S
C539 C540 1.388 . S
C540 H527 0.930 . S
C540 C539 1.388 . S
C540 C541 1.390 . S
C541 C540 1.390 . S
C541 C542 1.394 . S
C541 C547 1.465 . S
C542 C537 1.399 . S
C542 C541 1.394 . S
C542 C543 1.516 . S
C543 C542 1.516 . S
C543 C544 1.502 . S
C543 C545 1.561 . S
C543 C546 1.526 . S
C544 H528 0.959 . S
C544 H529 0.959 . S
C544 H530 0.961 . S
C544 C543 1.502 . S
C545 H531 0.960 . S
C545 H532 0.961 . S
C545 H533 0.959 . S
C545 C543 1.561 . S
C546 C543 1.526 . S
C546 C547 1.396 . S
C546 C551 1.390 . S
C547 C541 1.465 . S
C547 C546 1.396 . S
C547 C548 1.399 . S
C548 H534 0.929 . S
C548 C547 1.399 . S
C548 C549 1.385 . S
C549 H535 0.931 . S
C549 C548 1.385 . S
C549 C550 1.389 . S
C550 C549 1.389 . S
C550 C551 1.387 . S
C551 H536 0.930 . S
C551 C546 1.390 . S
C551 C550 1.387 . S
H552 C564 0.930 . S
H553 C566 0.930 . S
H554 C567 0.930 . S
H555 C571 0.959 . S
H556 C571 0.959 . S
H557 C571 0.961 . S
H558 C572 0.960 . S
H559 C572 0.961 . S
H560 C572 0.959 . S
H561 C575 0.929 . S
H562 C576 0.931 . S
H563 C578 0.930 . S
C564 H552 0.930 . S
C564 C565 1.399 . S
C564 C569 1.399 . S
C565 C564 1.399 . S
C565 C566 1.376 . S
C566 H553 0.930 . S
C566 C565 1.376 . S
C566 C567 1.388 . S
C567 H554 0.930 . S
C567 C566 1.388 . S
C567 C568 1.390 . S
C568 C567 1.390 . S
C568 C569 1.394 . S
C568 C574 1.465 . S
C569 C564 1.399 . S
C569 C568 1.394 . S
C569 C570 1.516 . S
C570 C569 1.516 . S
C570 C571 1.502 . S
C570 C572 1.561 . S
C570 C573 1.526 . S
C571 H555 0.959 . S
C571 H556 0.959 . S
C571 H557 0.961 . S
C571 C570 1.502 . S
C572 H558 0.960 . S
C572 H559 0.961 . S
C572 H560 0.959 . S
C572 C570 1.561 . S
C573 C570 1.526 . S
C573 C574 1.396 . S
C573 C578 1.390 . S
C574 C568 1.465 . S
C574 C573 1.396 . S
C574 C575 1.399 . S
C575 H561 0.929 . S
C575 C574 1.399 . S
C575 C576 1.385 . S
C576 H562 0.931 . S
C576 C575 1.385 . S
C576 C577 1.389 . S
C577 C576 1.389 . S
C577 C578 1.387 . S
C578 H563 0.930 . S
C578 C573 1.390 . S
C578 C577 1.387 . S
H579 C591 0.930 . S
H580 C593 0.930 . S
H581 C594 0.930 . S
H582 C598 0.959 . S
H583 C598 0.959 . S
H584 C598 0.961 . S
H585 C599 0.960 . S
H586 C599 0.961 . S
H587 C599 0.959 . S
H588 C602 0.929 . S
H589 C603 0.931 . S
H590 C605 0.930 . S
C591 H579 0.930 . S
C591 C592 1.399 . S
C591 C596 1.399 . S
C592 C591 1.399 . S
C592 C593 1.376 . S
C593 H580 0.930 . S
C593 C592 1.376 . S
C593 C594 1.388 . S
C594 H581 0.930 . S
C594 C593 1.388 . S
C594 C595 1.390 . S
C595 C594 1.390 . S
C595 C596 1.394 . S
C595 C601 1.465 . S
C596 C591 1.399 . S
C596 C595 1.394 . S
C596 C597 1.516 . S
C597 C596 1.516 . S
C597 C598 1.502 . S
C597 C599 1.561 . S
C597 C600 1.526 . S
C598 H582 0.959 . S
C598 H583 0.959 . S
C598 H584 0.961 . S
C598 C597 1.502 . S
C599 H585 0.960 . S
C599 H586 0.961 . S
C599 H587 0.959 . S
C599 C597 1.561 . S
C600 C597 1.526 . S
C600 C601 1.396 . S
C600 C605 1.390 . S
C601 C595 1.465 . S
C601 C600 1.396 . S
C601 C602 1.399 . S
C602 H588 0.929 . S
C602 C601 1.399 . S
C602 C603 1.385 . S
C603 H589 0.931 . S
C603 C602 1.385 . S
C603 C604 1.389 . S
C604 C603 1.389 . S
C604 C605 1.387 . S
C605 H590 0.930 . S
C605 C600 1.390 . S
C605 C604 1.387 . S
H606 C618 0.930 . S
H607 C620 0.930 . S
H608 C621 0.930 . S
H609 C625 0.959 . S
H610 C625 0.959 . S
H611 C625 0.961 . S
H612 C626 0.960 . S
H613 C626 0.961 . S
H614 C626 0.959 . S
H615 C629 0.929 . S
H616 C630 0.931 . S
H617 C632 0.930 . S
C618 H606 0.930 . S
C618 C619 1.399 . S
C618 C623 1.399 . S
C619 C618 1.399 . S
C619 C620 1.376 . S
C620 H607 0.930 . S
C620 C619 1.376 . S
C620 C621 1.388 . S
C621 H608 0.930 . S
C621 C620 1.388 . S
C621 C622 1.390 . S
C622 C621 1.390 . S
C622 C623 1.394 . S
C622 C628 1.465 . S
C623 C618 1.399 . S
C623 C622 1.394 . S
C623 C624 1.516 . S
C624 C623 1.516 . S
C624 C625 1.502 . S
C624 C626 1.561 . S
C624 C627 1.526 . S
C625 H609 0.959 . S
C625 H610 0.959 . S
C625 H611 0.961 . S
C625 C624 1.502 . S
C626 H612 0.960 . S
C626 H613 0.961 . S
C626 H614 0.959 . S
C626 C624 1.561 . S
C627 C624 1.526 . S
C627 C628 1.396 . S
C627 C632 1.390 . S
C628 C622 1.465 . S
C628 C627 1.396 . S
C628 C629 1.399 . S
C629 H615 0.929 . S
C629 C628 1.399 . S
C629 C630 1.385 . S
C630 H616 0.931 . S
C630 C629 1.385 . S
C630 C631 1.389 . S
C631 C630 1.389 . S
C631 C632 1.387 . S
C632 H617 0.930 . S
C632 C627 1.390 . S
C632 C631 1.387 . S
H633 C645 0.930 . S
H634 C647 0.930 . S
H635 C648 0.930 . S
H636 C652 0.959 . S
H637 C652 0.959 . S
H638 C652 0.961 . S
H639 C653 0.960 . S
H640 C653 0.961 . S
H641 C653 0.959 . S
H642 C656 0.929 . S
H643 C657 0.931 . S
H644 C659 0.930 . S
C645 H633 0.930 . S
C645 C646 1.399 . S
C645 C650 1.399 . S
C646 C645 1.399 . S
C646 C647 1.376 . S
C647 H634 0.930 . S
C647 C646 1.376 . S
C647 C648 1.388 . S
C648 H635 0.930 . S
C648 C647 1.388 . S
C648 C649 1.390 . S
C649 C648 1.390 . S
C649 C650 1.394 . S
C649 C655 1.465 . S
C650 C645 1.399 . S
C650 C649 1.394 . S
C650 C651 1.516 . S
C651 C650 1.516 . S
C651 C652 1.502 . S
C651 C653 1.561 . S
C651 C654 1.526 . S
C652 H636 0.959 . S
C652 H637 0.959 . S
C652 H638 0.961 . S
C652 C651 1.502 . S
C653 H639 0.960 . S
C653 H640 0.961 . S
C653 H641 0.959 . S
C653 C651 1.561 . S
C654 C651 1.526 . S
C654 C655 1.396 . S
C654 C659 1.390 . S
C655 C649 1.465 . S
C655 C654 1.396 . S
C655 C656 1.399 . S
C656 H642 0.929 . S
C656 C655 1.399 . S
C656 C657 1.385 . S
C657 H643 0.931 . S
C657 C656 1.385 . S
C657 C658 1.389 . S
C658 C657 1.389 . S
C658 C659 1.387 . S
C659 H644 0.930 . S
C659 C654 1.390 . S
C659 C658 1.387 . S
H660 C672 0.930 1_655 S
H661 C674 0.930 . S
H662 C675 0.930 . S
H663 C679 0.959 . S
H664 C679 0.959 . S
H665 C679 0.961 . S
H666 C680 0.960 . S
H667 C680 0.961 . S
H668 C680 0.959 . S
H669 C683 0.929 . S
H670 C684 0.931 . S
H671 C686 0.930 . S
C672 H660 0.930 1_455 S
C672 C673 1.399 . S
C672 C677 1.399 . S
C673 C672 1.399 . S
C673 C674 1.376 . S
C674 H661 0.930 . S
C674 C673 1.376 . S
C674 C675 1.388 . S
C675 H662 0.930 . S
C675 C674 1.388 . S
C675 C676 1.390 . S
C676 C675 1.390 . S
C676 C677 1.394 . S
C676 C682 1.465 . S
C677 C672 1.399 . S
C677 C676 1.394 . S
C677 C678 1.516 . S
C678 C677 1.516 . S
C678 C679 1.502 . S
C678 C680 1.561 1_455 S
C678 C681 1.526 . S
C679 H663 0.959 . S
C679 H664 0.959 . S
C679 H665 0.961 . S
C679 C678 1.502 . S
C680 H666 0.960 . S
C680 H667 0.961 . S
C680 H668 0.959 . S
C680 C678 1.561 1_655 S
C681 C678 1.526 . S
C681 C682 1.396 . S
C681 C686 1.390 . S
C682 C676 1.465 . S
C682 C681 1.396 . S
C682 C683 1.399 . S
C683 H669 0.929 . S
C683 C682 1.399 . S
C683 C684 1.385 . S
C684 H670 0.931 . S
C684 C683 1.385 . S
C684 C685 1.389 . S
C685 C684 1.389 . S
C685 C686 1.387 . S
C686 H671 0.930 . S
C686 C681 1.390 . S
C686 C685 1.387 . S
H687 C699 0.930 . S
H688 C701 0.930 . S
H689 C702 0.930 . S
H690 C706 0.959 . S
H691 C706 0.959 . S
H692 C706 0.961 . S
H693 C707 0.960 . S
H694 C707 0.961 . S
H695 C707 0.959 . S
H696 C710 0.929 . S
H697 C711 0.931 . S
H698 C713 0.903 1_565 S
C699 H687 0.930 . S
C699 C700 1.399 1_565 S
C699 C704 1.399 . S
C700 C699 1.399 1_545 S
C700 C701 1.376 . S
C701 H688 0.930 . S
C701 C700 1.376 . S
C701 C702 1.388 . S
C702 H689 0.930 . S
C702 C701 1.388 . S
C702 C703 1.390 . S
C703 C702 1.390 . S
C703 C704 1.394 1_545 S
C703 C709 1.465 . S
C704 C699 1.399 . S
C704 C703 1.394 1_565 S
C704 C705 1.516 . S
C705 C704 1.516 . S
C705 C706 1.502 . S
C705 C707 1.561 . S
C705 C708 1.526 1_565 S
C706 H690 0.959 . S
C706 H691 0.959 . S
C706 H692 0.961 . S
C706 C705 1.502 . S
C707 H693 0.960 . S
C707 H694 0.961 . S
C707 H695 0.959 . S
C707 C705 1.561 . S
C708 C705 1.526 1_545 S
C708 C709 1.396 . S
C708 C713 1.390 . S
C709 C703 1.465 . S
C709 C708 1.396 . S
C709 C710 1.399 . S
C710 H696 0.929 . S
C710 C709 1.399 . S
C710 C711 1.385 . S
C711 H697 0.931 . S
C711 C710 1.385 . S
C711 C712 1.389 . S
C712 C711 1.389 . S
C712 C713 1.414 . S
C713 H698 0.903 1_545 S
C713 C708 1.390 . S
C713 C712 1.414 . S
H714 C726 0.930 . S
H715 C728 0.930 . S
H716 C729 0.930 . S
H717 C733 0.959 . S
H718 C733 0.959 . S
H719 C733 0.961 . S
H720 C734 0.960 . S
H721 C734 0.961 . S
H722 C734 0.959 . S
H723 C737 0.929 . S
H724 C738 0.931 . S
H725 C740 0.930 . S
C726 H714 0.930 . S
C726 C727 1.399 . S
C726 C731 1.399 . S
C727 C726 1.399 . S
C727 C728 1.376 . S
C728 H715 0.930 . S
C728 C727 1.376 . S
C728 C729 1.388 . S
C729 H716 0.930 . S
C729 C728 1.388 . S
C729 C730 1.390 . S
C730 C729 1.390 . S
C730 C731 1.394 . S
C730 C736 1.465 . S
C731 C726 1.399 . S
C731 C730 1.394 . S
C731 C732 1.516 . S
C732 C731 1.516 . S
C732 C733 1.502 . S
C732 C734 1.561 . S
C732 C735 1.526 . S
C733 H717 0.959 . S
C733 H718 0.959 . S
C733 H719 0.961 . S
C733 C732 1.502 . S
C734 H720 0.960 . S
C734 H721 0.961 . S
C734 H722 0.959 . S
C734 C732 1.561 . S
C735 C732 1.526 . S
C735 C736 1.396 . S
C735 C740 1.390 . S
C736 C730 1.465 . S
C736 C735 1.396 . S
C736 C737 1.399 . S
C737 H723 0.929 . S
C737 C736 1.399 . S
C737 C738 1.385 . S
C738 H724 0.931 . S
C738 C737 1.385 . S
C738 C739 1.389 . S
C739 C738 1.389 . S
C739 C740 1.387 . S
C740 H725 0.930 . S
C740 C735 1.390 . S
C740 C739 1.387 . S
H741 C753 0.930 . S
H742 C755 0.930 . S
H743 C756 0.930 . S
H744 C760 0.959 . S
H745 C760 0.959 . S
H746 C760 0.961 . S
H747 C761 0.960 . S
H748 C761 0.961 . S
H749 C761 0.959 . S
H750 C764 0.929 . S
H751 C765 0.931 . S
H752 C767 0.930 . S
C753 H741 0.930 . S
C753 C754 1.399 . S
C753 C758 1.399 . S
C754 C753 1.399 . S
C754 C755 1.376 1_545 S
C755 H742 0.930 . S
C755 C754 1.376 1_565 S
C755 C756 1.388 . S
C756 H743 0.930 . S
C756 C755 1.388 . S
C756 C757 1.390 . S
C757 C756 1.390 . S
C757 C758 1.394 1_565 S
C757 C763 1.465 . S
C758 C753 1.399 . S
C758 C757 1.394 1_545 S
C758 C759 1.516 . S
C759 C758 1.516 . S
C759 C760 1.502 . S
C759 C761 1.561 . S
C759 C762 1.526 . S
C760 H744 0.959 . S
C760 H745 0.959 . S
C760 H746 0.961 . S
C760 C759 1.502 . S
C761 H747 0.960 . S
C761 H748 0.961 . S
C761 H749 0.959 . S
C761 C759 1.561 . S
C762 C759 1.526 . S
C762 C763 1.396 1_545 S
C762 C767 1.390 . S
C763 C757 1.465 . S
C763 C762 1.396 1_565 S
C763 C764 1.399 . S
C764 H750 0.929 . S
C764 C763 1.399 . S
C764 C765 1.385 . S
C765 H751 0.931 . S
C765 C764 1.385 . S
C765 C766 1.389 1_565 S
C766 C765 1.389 1_545 S
C766 C767 1.387 . S
C767 H752 0.930 . S
C767 C762 1.390 . S
C767 C766 1.387 . S
H768 C780 0.930 . S
H769 C782 0.930 . S
H770 C783 0.930 . S
H771 C787 0.959 . S
H772 C787 0.959 . S
H773 C787 0.961 . S
H774 C788 0.960 . S
H775 C788 0.961 . S
H776 C788 0.959 . S
H777 C791 0.929 . S
H778 C792 0.931 1_554 S
H779 C794 0.930 . S
C780 H768 0.930 . S
C780 C781 1.399 . S
C780 C785 1.399 . S
C781 C780 1.399 . S
C781 C782 1.376 . S
C782 H769 0.930 . S
C782 C781 1.376 . S
C782 C783 1.388 . S
C783 H770 0.930 . S
C783 C782 1.388 . S
C783 C784 1.390 . S
C784 C783 1.390 . S
C784 C785 1.394 . S
C784 C790 1.465 . S
C785 C780 1.399 . S
C785 C784 1.394 . S
C785 C786 1.516 . S
C786 C785 1.516 . S
C786 C787 1.502 . S
C786 C788 1.561 . S
C786 C789 1.526 . S
C787 H771 0.959 . S
C787 H772 0.959 . S
C787 H773 0.961 . S
C787 C786 1.502 . S
C788 H774 0.960 . S
C788 H775 0.961 . S
C788 H776 0.959 . S
C788 C786 1.561 . S
C789 C786 1.526 . S
C789 C790 1.396 . S
C789 C794 1.390 . S
C790 C784 1.465 . S
C790 C789 1.396 . S
C790 C791 1.399 . S
C791 H777 0.929 . S
C791 C790 1.399 . S
C791 C792 1.385 . S
C792 H778 0.931 1_556 S
C792 C791 1.385 . S
C792 C793 1.389 . S
C793 C792 1.389 . S
C793 C794 1.387 . S
C794 H779 0.930 . S
C794 C789 1.390 . S
C794 C793 1.387 . S
H795 C807 0.930 . S
H796 C809 0.930 . S
H797 C810 0.930 . S
H798 C814 0.959 . S
H799 C814 0.959 . S
H800 C814 0.961 . S
H801 C815 0.960 . S
H802 C815 0.961 . S
H803 C815 0.959 . S
H804 C818 0.929 . S
H805 C819 0.931 . S
H806 C821 0.930 . S
C807 H795 0.930 . S
C807 C808 1.399 1_455 S
C807 C812 1.399 . S
C808 C807 1.399 1_655 S
C808 C809 1.376 . S
C809 H796 0.930 . S
C809 C808 1.376 . S
C809 C810 1.388 . S
C810 H797 0.930 . S
C810 C809 1.388 . S
C810 C811 1.390 . S
C811 C810 1.390 . S
C811 C812 1.394 1_655 S
C811 C817 1.465 . S
C812 C807 1.399 . S
C812 C811 1.394 1_455 S
C812 C813 1.516 . S
C813 C812 1.516 . S
C813 C814 1.502 . S
C813 C815 1.561 . S
C813 C816 1.526 . S
C814 H798 0.959 . S
C814 H799 0.959 . S
C814 H800 0.961 . S
C814 C813 1.502 . S
C815 H801 0.960 . S
C815 H802 0.961 . S
C815 H803 0.959 . S
C815 C813 1.561 . S
C816 C813 1.526 . S
C816 C817 1.396 1_455 S
C816 C821 1.390 . S
C817 C811 1.465 . S
C817 C816 1.396 1_655 S
C817 C818 1.399 . S
C818 H804 0.929 . S
C818 C817 1.399 . S
C818 C819 1.385 . S
C819 H805 0.931 . S
C819 C818 1.385 . S
C819 C820 1.389 1_655 S
C820 C819 1.389 1_455 S
C820 C821 1.387 . S
C821 H806 0.930 . S
C821 C816 1.390 . S
C821 C820 1.387 . S
C349 C12 2.935 . S
C361 C325 2.849 . S
C376 C52 2.938 . S
C388 C253 2.881 . S
C403 C111 2.982 . S
C415 C289 2.894 . S
C430 C31 3.129 . S
C442 C301 3.067 . S
C469 C229 3.091 . S
C457 C71 3.130 . S
C496 C265 3.014 . S
C484 C92 3.070 . S
C511 C48 0.487 . S
C523 C181 0.387 . S
C538 C109 0.469 . S
C550 C193 0.424 . S
C565 C29 0.632 . S
C577 C121 0.436 . S
C604 C157 0.316 . S
C592 C69 0.348 . S
C631 C217 0.333 . S
C619 C88 0.355 . S
C646 C8 0.419 . S
C658 C145 0.426 . S
C685 C223 1.087 1_554 S
C673 C17 1.093 1_455 S
C700 C57 1.090 . S
C712 C151 1.090 . S
C727 C97 1.081 . S
C739 C187 1.075 . S
C766 C295 1.786 . S
C754 C42 1.709 . S
C793 C331 1.777 1_556 S
C781 C82 1.698 . S
C808 C2 1.753 1_655 S
C820 C259 1.782 . S
