# Generated by pormake.
# Topology anh, (6,3)-cn, num edge types: 1
# Building blocks:
#     Node 0, Type 0, BuildingBlock: MIFKUJ_clean_sbu_0, # of connection points: 6
#     Node 1, Type 0, BuildingBlock: MIFKUJ_clean_sbu_0, # of connection points: 6
#     Node 2, Type 0, BuildingBlock: MIFKUJ_clean_sbu_0, # of connection points: 6
#     Node 3, Type 1, BuildingBlock: VETTIZ_charged_linker_0, # of connection points: 3
#     Node 4, Type 1, BuildingBlock: VETTIZ_charged_linker_0, # of connection points: 3
#     Node 5, Type 1, BuildingBlock: VETTIZ_charged_linker_0, # of connection points: 3
#     Node 6, Type 1, BuildingBlock: VETTIZ_charged_linker_0, # of connection points: 3
#     Node 7, Type 1, BuildingBlock: VETTIZ_charged_linker_0, # of connection points: 3
#     Node 8, Type 1, BuildingBlock: VETTIZ_charged_linker_0, # of connection points: 3
#     Edge 9, Type (0, 1), BuildingBlock: EZIPEK_clean_linker_0, # of connection points: 2
#     Edge 10, Type (0, 1), BuildingBlock: EZIPEK_clean_linker_0, # of connection points: 2
#     Edge 11, Type (0, 1), BuildingBlock: EZIPEK_clean_linker_0, # of connection points: 2
#     Edge 12, Type (0, 1), BuildingBlock: EZIPEK_clean_linker_0, # of connection points: 2
#     Edge 13, Type (0, 1), BuildingBlock: EZIPEK_clean_linker_0, # of connection points: 2
#     Edge 14, Type (0, 1), BuildingBlock: EZIPEK_clean_linker_0, # of connection points: 2
#     Edge 15, Type (0, 1), BuildingBlock: EZIPEK_clean_linker_0, # of connection points: 2
#     Edge 16, Type (0, 1), BuildingBlock: EZIPEK_clean_linker_0, # of connection points: 2
#     Edge 17, Type (0, 1), BuildingBlock: EZIPEK_clean_linker_0, # of connection points: 2
#     Edge 18, Type (0, 1), BuildingBlock: EZIPEK_clean_linker_0, # of connection points: 2
#     Edge 19, Type (0, 1), BuildingBlock: EZIPEK_clean_linker_0, # of connection points: 2
#     Edge 20, Type (0, 1), BuildingBlock: EZIPEK_clean_linker_0, # of connection points: 2
#     Edge 21, Type (0, 1), BuildingBlock: EZIPEK_clean_linker_0, # of connection points: 2
#     Edge 22, Type (0, 1), BuildingBlock: EZIPEK_clean_linker_0, # of connection points: 2
#     Edge 23, Type (0, 1), BuildingBlock: EZIPEK_clean_linker_0, # of connection points: 2
#     Edge 24, Type (0, 1), BuildingBlock: EZIPEK_clean_linker_0, # of connection points: 2
#     Edge 25, Type (0, 1), BuildingBlock: EZIPEK_clean_linker_0, # of connection points: 2
#     Edge 26, Type (0, 1), BuildingBlock: EZIPEK_clean_linker_0, # of connection points: 2
# Relax obj value: 0.138
# Max RMSD: 0.187
# Mean RMSD: 0.152
data_MOF--net-anh--node1-MIFKUJ_clean_sbu_0--node2-VETTIZ_charged_linker_0--edge1-EZIPEK_clean_linker_0
_symmetry_space_group_name_H-M    P1
_symmetry_Int_Tables_number       1
_symmetry_cell_setting            triclinic
loop_
_symmetry_equiv_pos_as_xyz
'x, y, z'
_cell_length_a     30.017883
_cell_length_b     29.448254
_cell_length_c     50.094202
_cell_angle_alpha  93.848964
_cell_angle_beta   90.926693
_cell_angle_gamma 120.57268
loop_
_atom_site_label
_atom_site_type_symbol
_atom_site_fract_x
_atom_site_fract_y
_atom_site_fract_z
_atom_type_partial_charge
Zn0 Zn 0.05417 0.53897 0.15944 0.0
Zn1 Zn 0.8877 0.46137 0.16223 0.0
C2 C 0.1419 0.53011 0.16317 0.0
O3 O 0.15768 0.57811 0.17403 0.0
C4 C 0.83706 0.52447 0.15937 0.0
O5 O 0.87895 0.55856 0.14809 0.0
O6 O 0.10069 0.61427 0.15004 0.0
O7 O 0.98466 0.50445 0.14288 0.0
O8 O 0.90947 0.47633 0.12397 0.0
C9 C 0.12164 0.62497 0.12768 0.0
O10 O 0.10669 0.58719 0.10818 0.0
O11 O 0.09435 0.50074 0.15523 0.0
C12 C 0.80861 0.3609 0.17674 0.0
O13 O 0.79903 0.3919 0.19257 0.0
O14 O 0.84736 0.38137 0.16226 0.0
O15 O 0.9483 0.49645 0.19222 0.0
O16 O 0.03518 0.53847 0.19721 0.0
O17 O 0.83458 0.48376 0.16812 0.0
C18 C 0.95764 0.49691 0.12185 0.0
C19 C -0.00934 0.51964 0.20702 0.0
Zn20 Zn 0.56117 0.09198 0.48644 0.0
Zn21 Zn 0.49521 0.93484 0.4924 0.0
C22 C 0.66322 0.16566 0.50594 0.0
O23 O 0.63398 0.17584 0.52147 0.0
C24 C 0.39306 0.84585 0.49275 0.0
O25 O 0.40728 0.83663 0.46933 0.0
O26 O 0.55085 0.15363 0.4831 0.0
O27 O 0.5242 0.0434 0.45324 0.0
O28 O 0.48376 0.95638 0.45714 0.0
C29 C 0.56676 0.17974 0.46266 0.0
O30 O 0.58627 0.16402 0.44337 0.0
O31 O 0.6399 0.12719 0.48788 0.0
C32 C 0.53568 0.86885 0.50319 0.0
O33 O 0.52685 0.87965 0.52771 0.0
O34 O 0.52626 0.88919 0.48396 0.0
O35 O 0.54416 0.99429 0.51948 0.0
O36 O 0.53344 0.06313 0.52158 0.0
O37 O 0.42465 0.8874 0.50756 0.0
C38 C 0.49581 0.99559 0.44359 0.0
C39 C 0.53172 0.02445 0.53229 0.0
Zn40 Zn 0.56615 0.49642 0.82552 0.0
Zn41 Zn 0.45844 0.53938 0.81911 0.0
C42 C 0.55855 0.39889 0.84236 0.0
O43 O 0.60419 0.43267 0.8542 0.0
C44 C 0.48223 0.64431 0.8133 0.0
O45 O 0.45296 0.61888 0.79145 0.0
O46 O 0.6436 0.52909 0.82259 0.0
O47 O 0.53933 0.50532 0.79026 0.0
O48 O 0.47824 0.52515 0.78297 0.0
C49 C 0.6629 0.50296 0.81205 0.0
O50 O 0.63123 0.45527 0.80048 0.0
O51 O 0.53381 0.41718 0.83058 0.0
C52 C 0.36362 0.52358 0.83654 0.0
O53 O 0.39343 0.54556 0.85862 0.0
O54 O 0.38195 0.51294 0.81603 0.0
O55 O 0.47252 0.5022 0.84718 0.0
O56 O 0.55446 0.53185 0.85808 0.0
O57 O 0.49326 0.61906 0.82922 0.0
C58 C 0.51138 0.51386 0.77439 0.0
C59 C 0.51168 0.52819 0.86354 0.0
C60 C 0.59886 0.11272 0.17202 0.0
C61 C 0.63929 0.15637 0.18774 0.0
C62 C 0.63752 0.15906 0.21575 0.0
C63 C 0.55511 0.07715 0.21247 0.0
C64 C 0.55662 0.07378 0.18488 0.0
C65 C 0.50799 0.02608 0.17185 0.0
H66 H 0.27298 0.80736 0.18873 0.0
C67 C 0.5059 0.03223 0.21983 0.0
C68 C 0.4774 0.00205 0.19624 0.0
H69 H 0.34395 0.8586 0.11397 0.0
H70 H 0.41791 0.93597 0.1378 0.0
H71 H 0.37209 0.82702 0.21941 0.0
H72 H 0.30341 0.92418 0.21625 0.0
H73 H 0.32358 0.92766 0.24986 0.0
H74 H 0.27548 0.86465 0.23317 0.0
H75 H 0.31575 0.81348 0.23714 0.0
H76 H 0.38037 0.85749 0.25185 0.0
C77 C 0.52358 0.98907 0.1569 0.0
C78 C 0.48043 0.04575 0.1536 0.0
C79 C 0.47542 0.00826 0.31816 0.0
C80 C 0.43519 0.96951 0.33175 0.0
C81 C 0.38991 0.92962 0.31736 0.0
C82 C 0.38573 0.92743 0.2893 0.0
C83 C 0.42738 0.96549 0.27573 0.0
C84 C 0.47076 0.00549 0.29028 0.0
C85 C 0.5113 0.04241 0.27283 0.0
C86 C 0.48592 0.01714 0.24523 0.0
C87 C 0.43695 0.97228 0.24699 0.0
C88 C 0.56116 0.04009 0.27826 0.0
C89 C 0.51783 0.09806 0.27859 0.0
C90 C 0.30421 0.83578 0.17754 0.0
C91 C 0.30301 0.82764 0.14965 0.0
C92 C 0.34439 0.86472 0.13556 0.0
C93 C 0.38715 0.90922 0.14943 0.0
C94 C 0.38834 0.91627 0.17759 0.0
C95 C 0.34695 0.87983 0.19104 0.0
C96 C 0.35487 0.89178 0.22086 0.0
C97 C 0.40766 0.94166 0.22333 0.0
C98 C 0.42751 0.95622 0.198 0.0
C99 C 0.35552 0.84512 0.23318 0.0
C100 C 0.31206 0.90233 0.23079 0.0
H101 H 0.59707 0.12475 0.24958 0.0
H102 H 0.59943 0.11009 0.15037 0.0
H103 H 0.48167 0.08136 0.16352 0.0
H104 H 0.43896 0.01636 0.14927 0.0
H105 H 0.49954 0.05673 0.13435 0.0
H106 H 0.55305 0.98613 0.16922 0.0
H107 H 0.54057 0.00433 0.13764 0.0
H108 H 0.49087 0.94811 0.15287 0.0
H109 H 0.51049 0.03925 0.32903 0.0
H110 H 0.35862 0.89951 0.32781 0.0
H111 H 0.35077 0.89561 0.27925 0.0
H112 H 0.55134 0.99927 0.28202 0.0
H113 H 0.58432 0.06677 0.29616 0.0
H114 H 0.58612 0.04995 0.2611 0.0
H115 H 0.48201 0.0954 0.2862 0.0
H116 H 0.52466 0.11938 0.26033 0.0
H117 H 0.54988 0.12289 0.2939 0.0
H118 H 0.66827 0.19239 0.22809 0.0
C119 C 0.59589 0.11983 0.22817 0.0
C120 C 0.59379 0.67509 0.50103 0.0
C121 C 0.5944 0.71726 0.51643 0.0
C122 C 0.60147 0.72134 0.54448 0.0
C123 C 0.59724 0.63715 0.542 0.0
C124 C 0.59461 0.63493 0.51432 0.0
C125 C 0.5891 0.58404 0.50179 0.0
H126 H 0.54134 0.33648 0.52014 0.0
C127 C 0.58797 0.586 0.54987 0.0
C128 C 0.5827 0.5542 0.52648 0.0
H129 H 0.5872 0.41645 0.4478 0.0
H130 H 0.58817 0.4933 0.47002 0.0
H131 H 0.62229 0.43723 0.56118 0.0
H132 H 0.46163 0.36906 0.53629 0.0
H133 H 0.4691 0.40184 0.56816 0.0
H134 H 0.48073 0.3473 0.5645 0.0
H135 H 0.57125 0.37152 0.5666 0.0
H136 H 0.58469 0.4268 0.58949 0.0
C137 C 0.63979 0.59761 0.48808 0.0
C138 C 0.54007 0.55562 0.48252 0.0
C139 C 0.56412 0.54897 0.64761 0.0
C140 C 0.53848 0.50159 0.66014 0.0
C141 C 0.51898 0.45296 0.64452 0.0
C142 C 0.52629 0.45172 0.617 0.0
C143 C 0.55169 0.49948 0.60478 0.0
C144 C 0.56815 0.54679 0.61988 0.0
C145 C 0.58384 0.59203 0.6028 0.0
C146 C 0.578 0.56461 0.57508 0.0
C147 C 0.56068 0.5109 0.57654 0.0
C148 C 0.64103 0.63452 0.61063 0.0
C149 C 0.54503 0.612 0.6064 0.0
C150 C 0.55112 0.37051 0.50914 0.0
C151 C 0.56423 0.37111 0.48246 0.0
C152 C 0.57697 0.41569 0.46847 0.0
C153 C 0.57792 0.4601 0.48143 0.0
C154 C 0.56638 0.45964 0.50858 0.0
C155 C 0.55303 0.41511 0.52188 0.0
C156 C 0.54401 0.4219 0.55086 0.0
C157 C 0.55717 0.479 0.55324 0.0
C158 C 0.56914 0.50072 0.52837 0.0
C159 C 0.58235 0.41384 0.5681 0.0
C160 C 0.48606 0.38296 0.55537 0.0
H161 H 0.60812 0.6868 0.57873 0.0
H162 H 0.58942 0.67196 0.47937 0.0
H163 H 0.50651 0.5541 0.49245 0.0
H164 H 0.52857 0.51428 0.47629 0.0
H165 H 0.54606 0.57681 0.46419 0.0
H166 H 0.67363 0.63413 0.49806 0.0
H167 H 0.63721 0.60436 0.4667 0.0
H168 H 0.64992 0.56659 0.48943 0.0
H169 H 0.57803 0.58682 0.65897 0.0
H170 H 0.49809 0.41594 0.65369 0.0
H171 H 0.51116 0.41366 0.60619 0.0
H172 H 0.66487 0.61573 0.61281 0.0
H173 H 0.64437 0.65692 0.63004 0.0
H174 H 0.6591 0.66288 0.59529 0.0
H175 H 0.50968 0.58372 0.61628 0.0
H176 H 0.52999 0.61632 0.58698 0.0
H177 H 0.56291 0.65037 0.6189 0.0
H178 H 0.60321 0.75421 0.55656 0.0
C179 C 0.6035 0.68183 0.55731 0.0
C180 C 0.14774 0.53741 0.84899 0.0
C181 C 0.19014 0.53986 0.86291 0.0
C182 C 0.19817 0.55368 0.89071 0.0
C183 C 0.11988 0.55776 0.89102 0.0
C184 C 0.11346 0.54739 0.86345 0.0
C185 C 0.06711 0.54872 0.85232 0.0
H186 H 0.83674 0.52754 0.87718 0.0
C187 C 0.07539 0.56088 0.90056 0.0
C188 C 0.0442 0.55593 0.87806 0.0
H189 H 0.91096 0.55997 0.80198 0.0
H190 H 0.98632 0.56275 0.82301 0.0
H191 H 0.87891 0.45472 0.90145 0.0
H192 H 0.93122 0.62082 0.90688 0.0
H193 H 0.94977 0.60949 0.93793 0.0
H194 H 0.88183 0.57655 0.92736 0.0
H195 H 0.84614 0.48352 0.91885 0.0
H196 H 0.8976 0.4793 0.93524 0.0
C197 C 0.03011 0.4953 0.83616 0.0
C198 C 0.08661 0.59709 0.83557 0.0
C199 C 0.0477 0.55939 0.00027 0.0
C200 C 0.00492 0.55095 0.01473 0.0
C201 C 0.96165 0.54774 0.00148 0.0
C202 C 0.96002 0.55079 0.97378 0.0
C203 C 0.00204 0.55678 0.95922 0.0
C204 C 0.04516 0.5616 0.97251 0.0
C205 C 0.08472 0.56466 0.9536 0.0
C206 C 0.05851 0.56162 0.92679 0.0
C207 C 0.01023 0.55698 0.93026 0.0
C208 C 0.09074 0.51583 0.95656 0.0
C209 C 0.13517 0.61894 0.95993 0.0
C210 C 0.8689 0.53456 0.86508 0.0
C211 C 0.86734 0.54187 0.83775 0.0
C212 C 0.91079 0.55282 0.82292 0.0
C213 C 0.95446 0.5549 0.83516 0.0
C214 C 0.95527 0.54795 0.86265 0.0
C215 C 0.91352 0.53976 0.87721 0.0
C216 C 0.92384 0.54194 0.90678 0.0
C217 C 0.97844 0.55168 0.90766 0.0
C218 C -0.00395 0.55313 0.88173 0.0
C219 C 0.88455 0.48728 0.91633 0.0
C220 C 0.92128 0.58928 0.92066 0.0
H221 H 0.17101 0.57186 0.92606 0.0
H222 H 0.1416 0.52788 0.82749 0.0
H223 H 0.12753 0.6279 0.8415 0.0
H224 H 0.0645 0.61755 0.83872 0.0
H225 H 0.08469 0.58537 0.81385 0.0
H226 H 0.02053 0.46186 0.84855 0.0
H227 H 0.04828 0.49009 0.81797 0.0
H228 H -0.00684 0.49178 0.82958 0.0
H229 H 0.08115 0.56154 0.01018 0.0
H230 H 0.92847 0.54131 0.01254 0.0
H231 H 0.9255 0.5469 0.96473 0.0
H232 H 0.05383 0.48124 0.96201 0.0
H233 H 0.12084 0.52443 0.97249 0.0
H234 H 0.09994 0.50134 0.9378 0.0
H235 H 0.12624 0.65029 0.96624 0.0
H236 H 0.15856 0.63325 0.94227 0.0
H237 H 0.15939 0.61741 0.97644 0.0
H238 H 0.23102 0.55634 0.90161 0.0
C239 C 0.16332 0.56262 0.90482 0.0
C240 C 0.89404 0.38355 0.4876 0.0
C241 C 0.84693 0.34259 0.47477 0.0
C242 C 0.83504 0.34544 0.44792 0.0
C243 C 0.91598 0.42832 0.44665 0.0
C244 C 0.92771 0.42656 0.47321 0.0
C245 C 0.97842 0.4754 0.48347 0.0
H246 H 0.19045 0.7083 0.45416 0.0
C247 C 0.95768 0.47783 0.43723 0.0
C248 C -0.00578 0.50676 0.45879 0.0
H249 H 0.16423 0.63918 0.52963 0.0
H250 H 0.07894 0.56727 0.51207 0.0
H251 H 0.14242 0.59484 0.41569 0.0
H252 H 0.08679 0.69693 0.44413 0.0
H253 H 0.0485 0.66255 0.41461 0.0
H254 H 0.1177 0.70582 0.41306 0.0
H255 H 0.16978 0.66322 0.40953 0.0
H256 H 0.11714 0.61228 0.38867 0.0
C257 C 0.01692 0.45772 0.49131 0.0
C258 C 0.96754 0.50465 0.50685 0.0
C259 C 0.9662 0.50294 0.33774 0.0
C260 C 0.0029 0.54388 0.32298 0.0
C261 C 0.03258 0.59449 0.33734 0.0
C262 C 0.03638 0.60024 0.36535 0.0
C263 C 0.00807 0.55564 0.37944 0.0
C264 C 0.97043 0.50924 0.36582 0.0
C265 C 0.93722 0.46895 0.38461 0.0
C266 C 0.9655 0.49725 0.41153 0.0
C267 C 0.0075 0.54759 0.40815 0.0
C268 C 0.93927 0.41802 0.37767 0.0
C269 C 0.8819 0.4608 0.38222 0.0
C270 C 0.16619 0.67766 0.46689 0.0
C271 C 0.18394 0.67875 0.49302 0.0
C272 C 0.15123 0.63869 0.50927 0.0
C273 C 0.10204 0.59701 0.49898 0.0
C274 C 0.08558 0.59556 0.47223 0.0
C275 C 0.11763 0.6361 0.45692 0.0
C276 C 0.09539 0.62916 0.42898 0.0
C277 C 0.04469 0.57719 0.42963 0.0
C278 C 0.03864 0.5571 0.45492 0.0
C279 C 0.13292 0.6247 0.40953 0.0
C280 C 0.08681 0.67601 0.42479 0.0
H281 H 0.85786 0.38737 0.41344 0.0
H282 H 0.90385 0.38233 0.50833 0.0
H283 H 0.93215 0.50629 0.50191 0.0
H284 H -0.00094 0.54615 0.51111 0.0
H285 H 0.96122 0.484 0.52542 0.0
H286 H 0.01541 0.42821 0.47568 0.0
H287 H 0.00731 0.43904 0.51056 0.0
H288 H 0.05751 0.49057 0.49309 0.0
H289 H 0.9351 0.46625 0.32798 0.0
H290 H 0.05329 0.63038 0.32745 0.0
H291 H 0.06196 0.639 0.37498 0.0
H292 H 0.98005 0.42791 0.37569 0.0
H293 H 0.91724 0.39728 0.35837 0.0
H294 H 0.92366 0.38975 0.39314 0.0
H295 H 0.88103 0.49273 0.37196 0.0
H296 H 0.86673 0.46202 0.40214 0.0
H297 H 0.85432 0.4227 0.37062 0.0
H298 H 0.79902 0.31448 0.4378 0.0
C299 C 0.86918 0.3879 0.43385 0.0
C300 C 0.51935 0.89185 0.81438 0.0
C301 C 0.51982 0.8487 0.80052 0.0
C302 C 0.52415 0.84776 0.77264 0.0
C303 C 0.52589 0.93068 0.77222 0.0
C304 C 0.52224 0.93249 0.79972 0.0
C305 C 0.52002 0.9807 0.81031 0.0
H306 H 0.55003 0.219 0.78331 0.0
C307 C 0.52789 0.97784 0.76261 0.0
C308 C 0.5253 0.00823 0.78478 0.0
H309 H 0.50553 0.1475 0.85811 0.0
H310 H 0.50821 0.07048 0.83894 0.0
H311 H 0.62773 0.1784 0.76266 0.0
H312 H 0.46513 0.12215 0.75294 0.0
H313 H 0.47898 0.09734 0.7235 0.0
H314 H 0.51023 0.16809 0.73142 0.0
H315 H 0.60029 0.2099 0.74457 0.0
H316 H 0.60851 0.15838 0.72842 0.0
C317 C 0.56619 0.01441 0.83082 0.0
C318 C 0.46667 0.96157 0.8221 0.0
C319 C 0.53632 8e-05 0.66275 0.0
C320 C 0.53821 0.03948 0.64775 0.0
C321 C 0.54149 0.08483 0.66091 0.0
C322 C 0.54237 0.09074 0.6889 0.0
C323 C 0.53923 0.05049 0.70381 0.0
C324 C 0.53651 0.00626 0.69071 0.0
C325 C 0.53296 0.96746 0.7098 0.0
C326 C 0.53246 0.99503 0.73647 0.0
C327 C 0.53644 0.04357 0.73279 0.0
C328 C 0.58224 0.96306 0.70776 0.0
C329 C 0.48109 0.91474 0.70287 0.0
C330 C 0.54161 0.18718 0.79579 0.0
C331 C 0.52902 0.19004 0.82243 0.0
C332 C 0.51654 0.14679 0.83767 0.0
C333 C 0.51767 0.10205 0.82645 0.0
C334 C 0.52937 0.09969 0.79942 0.0
C335 C 0.53972 0.14159 0.78457 0.0
C336 C 0.54292 0.13007 0.75536 0.0
C337 C 0.53588 0.07546 0.75507 0.0
C338 C 0.52905 0.05771 0.78094 0.0
C339 C 0.59754 0.17137 0.74708 0.0
C340 C 0.49736 0.12963 0.73983 0.0
H341 H 0.53012 0.88469 0.73726 0.0
H342 H 0.5158 0.89321 0.83585 0.0
H343 H 0.43556 0.9267 0.80959 0.0
H344 H 0.45518 0.99172 0.82244 0.0
H345 H 0.46634 0.94971 0.84272 0.0
H346 H 0.60298 0.0218 0.8222 0.0
H347 H 0.56133 0.9937 0.84925 0.0
H348 H 0.57106 0.0535 0.8367 0.0
H349 H 0.53399 0.965 0.65287 0.0
H350 H 0.54339 0.11563 0.64945 0.0
H351 H 0.54533 0.12638 0.69778 0.0
H352 H 0.61533 0.99956 0.7008 0.0
H353 H 0.57524 0.92937 0.6934 0.0
H354 H 0.59668 0.95895 0.72738 0.0
H355 H 0.4497 0.92246 0.69719 0.0
H356 H 0.46671 0.89015 0.71993 0.0
H357 H 0.48464 0.89105 0.68572 0.0
H358 H 0.52452 0.81493 0.76171 0.0
C359 C 0.52729 0.88834 0.75849 0.0
C360 C 0.61637 0.53593 0.14448 0.0
C361 C 0.66334 0.54695 0.13335 0.0
C362 C 0.67365 0.56477 0.10762 0.0
C363 C 0.58958 0.55663 0.1032 0.0
C364 C 0.58004 0.54148 0.12901 0.0
C365 C 0.52721 0.5307 0.13676 0.0
H366 H 0.31127 0.54048 0.10294 0.0
C367 C 0.54378 0.55592 0.09168 0.0
C368 C 0.50719 0.54198 0.11133 0.0
H369 H 0.34107 0.48718 0.17565 0.0
H370 H 0.4231 0.50165 0.15957 0.0
H371 H 0.42768 0.63421 0.09123 0.0
H372 H 0.33348 0.46782 0.06844 0.0
H373 H 0.37586 0.49221 0.04249 0.0
H374 H 0.33122 0.51524 0.0488 0.0
H375 H 0.36925 0.60341 0.06992 0.0
H376 H 0.43108 0.62314 0.0564 0.0
C377 C 0.53489 0.57008 0.16084 0.0
C378 C 0.4942 0.47193 0.1425 0.0
C379 C 0.53181 0.5741 -0.00762 0.0
C380 C 0.4917 0.5692 0.97547 0.0
C381 C 0.44828 0.56767 0.98652 0.0
C382 C 0.44371 0.56833 0.01432 0.0
C383 C 0.48252 0.56952 0.03102 0.0
C384 C 0.52625 0.57372 0.02003 0.0
C385 C 0.56279 0.57306 0.04063 0.0
C386 C 0.53233 0.56465 0.06559 0.0
C387 C 0.48564 0.56284 0.05984 0.0
C388 C 0.61371 0.6278 0.04269 0.0
C389 C 0.56977 0.52538 0.03248 0.0
C390 C 0.3357 0.53241 0.11553 0.0
C391 C 0.32061 0.51428 0.14087 0.0
C392 C 0.35258 0.50235 0.15628 0.0
C393 C 0.4 0.51071 0.1469 0.0
C394 C 0.41461 0.52941 0.12148 0.0
C395 C 0.38162 0.53829 0.10604 0.0
C396 C 0.39876 0.5505 0.0782 0.0
C397 C 0.44962 0.55152 0.07991 0.0
C398 C 0.45951 0.53993 0.1054 0.0
C399 C 0.40696 0.6056 0.07345 0.0
C400 C 0.35786 0.50448 0.05833 0.0
H401 H 0.64715 0.58254 0.07289 0.0
H402 H 0.60775 0.52207 0.16428 0.0
H403 H 0.50206 0.44644 0.12831 0.0
H404 H 0.45218 0.45631 0.13968 0.0
H405 H 0.50314 0.46611 0.16316 0.0
H406 H 0.56533 0.61097 0.15707 0.0
H407 H 0.54731 0.55971 0.17935 0.0
H408 H 0.49966 0.57169 0.16469 0.0
H409 H 0.56535 0.57506 0.98407 0.0
H410 H 0.41714 0.56392 0.97355 0.0
H411 H 0.40944 0.56629 0.02165 0.0
H412 H 0.60778 0.65899 0.03493 0.0
H413 H 0.64416 0.62634 0.031 0.0
H414 H 0.62887 0.64263 0.06372 0.0
H415 H 0.53191 0.48984 0.02545 0.0
H416 H 0.5845 0.51308 0.04914 0.0
H417 H 0.59642 0.53431 0.01592 0.0
H418 H 0.70963 0.57339 0.09886 0.0
C419 C 0.63722 0.56985 0.09256 0.0
C420 C 0.18305 0.48611 0.13585 0.0
C421 C 0.1808 0.51311 0.15997 0.0
C422 C 0.26901 0.5358 0.17373 0.0
C423 C 0.27054 0.50716 0.15018 0.0
N424 N 0.22172 0.43942 0.11431 0.0
N425 N 0.21398 0.54444 0.20585 0.0
C426 C 0.22487 0.47678 0.13318 0.0
C427 C 0.22125 0.53145 0.18027 0.0
N428 N 0.14834 0.47294 0.1146 0.0
N429 N 0.31328 0.57001 0.18897 0.0
H430 H 0.17846 0.53905 0.21162 0.0
H431 H 0.24101 0.55425 0.22177 0.0
H432 H 0.34978 0.57683 0.18439 0.0
H433 H 0.31427 0.59555 0.20474 0.0
H434 H 0.15246 0.45841 0.09582 0.0
H435 H 0.11848 0.48111 0.11457 0.0
H436 H 0.18772 0.41326 0.10284 0.0
H437 H 0.25136 0.43092 0.11234 0.0
C438 C 0.74058 0.25604 0.52006 0.0
C439 C 0.72028 0.20598 0.50533 0.0
C440 C 0.7982 0.24441 0.47929 0.0
C441 C 0.80896 0.29591 0.48864 0.0
N442 N 0.78816 0.35066 0.51771 0.0
N443 N 0.73915 0.14902 0.4772 0.0
C444 C 0.78012 0.30185 0.50929 0.0
C445 C 0.75222 0.19896 0.48688 0.0
N446 N 0.72409 0.25961 0.54491 0.0
N447 N 0.83255 0.23943 0.46357 0.0
H448 H 0.71182 0.11558 0.48605 0.0
H449 H 0.7561 0.1406 0.46115 0.0
H450 H 0.86702 0.27213 0.45851 0.0
H451 H 0.82928 0.20351 0.45711 0.0
H452 H 0.74021 0.29504 0.5571 0.0
H453 H 0.70038 0.22609 0.5548 0.0
H454 H 0.76386 0.35584 0.5306 0.0
H455 H 0.8162 0.38548 0.51018 0.0
C456 C 0.45813 0.71201 0.8258 0.0
C457 C 0.49747 0.70049 0.81981 0.0
C458 C 0.55721 0.79422 0.81414 0.0
C459 C 0.51467 0.80269 0.81393 0.0
N460 N 0.42392 0.76971 0.81983 0.0
N461 N 0.58583 0.73036 0.80993 0.0
C462 C 0.4651 0.76198 0.82049 0.0
C463 C 0.54788 0.74181 0.81506 0.0
N464 N 0.4142 0.67493 0.83661 0.0
N465 N 0.60622 0.83642 0.81299 0.0
H466 H 0.58037 0.69269 0.81136 0.0
H467 H 0.62175 0.75735 0.80322 0.0
H468 H 0.61353 0.87501 0.81243 0.0
H469 H 0.63952 0.83405 0.81501 0.0
H470 H 0.38557 0.68206 0.84348 0.0
H471 H 0.40931 0.63874 0.84126 0.0
H472 H 0.3857 0.73939 0.82107 0.0
H473 H 0.42755 0.80598 0.81654 0.0
C474 C 0.74601 0.48681 0.14039 0.0
C475 C 0.78917 0.52721 0.15658 0.0
C476 C 0.74457 0.57745 0.16227 0.0
C477 C 0.70116 0.53619 0.14671 0.0
N478 N 0.65468 0.44594 0.12742 0.0
N479 N 0.82596 0.60583 0.18721 0.0
C480 C 0.69987 0.48876 0.1382 0.0
C481 C 0.78728 0.57097 0.16894 0.0
N482 N 0.75039 0.44905 0.12523 0.0
N483 N 0.74569 0.62352 0.1697 0.0
H484 H 0.85766 0.60204 0.1924 0.0
H485 H 0.82466 0.63583 0.19876 0.0
H486 H 0.714 0.62827 0.16612 0.0
H487 H 0.7785 0.65759 0.17826 0.0
H488 H 0.72192 0.42207 0.11097 0.0
H489 H 0.78448 0.44785 0.12478 0.0
H490 H 0.65009 0.40862 0.12317 0.0
H491 H 0.62032 0.44652 0.12532 0.0
C492 C 0.33105 0.75395 0.50411 0.0
C493 C 0.34142 0.80604 0.50161 0.0
C494 C 0.24894 0.77474 0.50536 0.0
C495 C 0.23778 0.72162 0.50204 0.0
N496 N 0.26828 0.65997 0.49776 0.0
N497 N 0.31093 0.86742 0.50057 0.0
C498 C 0.2789 0.71095 0.50184 0.0
C499 C 0.30068 0.81712 0.50304 0.0
N500 N 0.37136 0.74593 0.50888 0.0
N501 N 0.20971 0.78425 0.51042 0.0
H502 H 0.3484 0.89946 0.4995 0.0
H503 H 0.28228 0.87706 0.49821 0.0
H504 H 0.17169 0.75368 0.51224 0.0
H505 H 0.21547 0.82187 0.51523 0.0
H506 H 0.36654 0.70958 0.51306 0.0
H507 H 0.40965 0.77726 0.51151 0.0
H508 H 0.29653 0.65015 0.49407 0.0
H509 H 0.23074 0.62732 0.49645 0.0
C510 C 0.51066 0.30592 0.81738 0.0
C511 C 0.54022 0.34069 0.8403 0.0
C512 C 0.55716 0.27228 0.85464 0.0
C513 C 0.52555 0.2372 0.8325 0.0
N514 N 0.45564 0.21444 0.80006 0.0
N515 N 0.57234 0.34587 0.88572 0.0
C516 C 0.49617 0.25187 0.81661 0.0
C517 C 0.55719 0.32026 0.8606 0.0
N518 N 0.50037 0.32417 0.79512 0.0
N519 N 0.58939 0.26193 0.86911 0.0
H520 H 0.56895 0.37866 0.89144 0.0
H521 H 0.58165 0.33039 0.90157 0.0
H522 H 0.59207 0.22829 0.86501 0.0
H523 H 0.61677 0.28931 0.88371 0.0
H524 H 0.4826 0.29992 0.77748 0.0
H525 H 0.51539 0.3639 0.79252 0.0
H526 H 0.43079 0.22273 0.78945 0.0
H527 H 0.44376 0.17431 0.79944 0.0
C528 C 0.60702 0.84862 0.50673 0.0
C529 C 0.55529 0.83218 0.4984 0.0
C530 C 0.53221 0.7395 0.49504 0.0
C531 C 0.58354 0.75562 0.50438 0.0
N532 N 0.67294 0.82455 0.51146 0.0
N533 N 0.47465 0.76514 0.4757 0.0
C534 C 0.62212 0.81011 0.50751 0.0
C535 C 0.52002 0.77864 0.48936 0.0
N536 N 0.64105 0.90074 0.51467 0.0
N537 N 0.49404 0.68734 0.49364 0.0
H538 H 0.46487 0.7931 0.47118 0.0
H539 H 0.44946 0.72735 0.46654 0.0
H540 H 0.50065 0.657 0.49775 0.0
H541 H 0.45488 0.67443 0.49032 0.0
H542 H 0.67751 0.91453 0.52392 0.0
H543 H 0.63175 0.93013 0.51293 0.0
H544 H 0.70358 0.86346 0.51191 0.0
H545 H 0.68457 0.79665 0.51183 0.0
C546 C 0.75074 0.55628 0.83832 0.0
C547 C 0.71962 0.52245 0.81549 0.0
C548 C 0.78944 0.50545 0.80439 0.0
C549 C 0.82109 0.54167 0.82618 0.0
N550 N 0.83841 0.61733 0.85598 0.0
N551 N 0.72044 0.48382 0.77138 0.0
C552 C 0.80406 0.57294 0.84016 0.0
C553 C 0.74255 0.5032 0.79668 0.0
N554 N 0.72982 0.5687 0.85961 0.0
N555 N 0.80191 0.47105 0.79196 0.0
H556 H 0.6886 0.48567 0.76426 0.0
H557 H 0.73792 0.47261 0.7566 0.0
H558 H 0.83463 0.46951 0.79758 0.0
H559 H 0.77691 0.44073 0.77767 0.0
H560 H 0.75181 0.59002 0.87715 0.0
H561 H 0.69035 0.55211 0.86185 0.0
H562 H 0.82812 0.64327 0.86516 0.0
H563 H 0.87806 0.63088 0.85731 0.0
C564 C 0.21835 0.68152 0.1269 0.0
C565 C 0.16902 0.6774 0.12592 0.0
C566 C 0.21128 0.77435 0.13076 0.0
C567 C 0.25942 0.77778 0.13617 0.0
N568 N 0.31028 0.73606 0.13958 0.0
N569 N 0.11744 0.71866 0.12548 0.0
C570 C 0.26356 0.73182 0.13371 0.0
C571 C 0.16525 0.72361 0.12709 0.0
N572 N 0.22201 0.63732 0.12184 0.0
N573 N 0.20997 0.81984 0.1293 0.0
H574 H 0.08342 0.68219 0.12126 0.0
H575 H 0.11105 0.75002 0.12916 0.0
H576 H 0.24334 0.85729 0.13195 0.0
H577 H 0.17705 0.82076 0.12345 0.0
H578 H 0.25689 0.63838 0.11948 0.0
H579 H 0.19002 0.59936 0.11796 0.0
H580 H 0.31495 0.70385 0.14191 0.0
H581 H 0.34457 0.77239 0.14353 0.0
C582 C 0.61573 0.2786 0.46858 0.0
C583 C 0.56816 0.23052 0.46211 0.0
C584 C 0.5221 0.27923 0.46017 0.0
C585 C 0.56796 0.32582 0.47053 0.0
N586 N 0.65853 0.37147 0.48491 0.0
N587 N 0.47629 0.18353 0.4509 0.0
C588 C 0.61511 0.3262 0.47433 0.0
C589 C 0.52142 0.23046 0.45735 0.0
N590 N 0.6613 0.27856 0.46955 0.0
N591 N 0.47942 0.28203 0.45314 0.0
H592 H 0.47506 0.14756 0.44737 0.0
H593 H 0.43981 0.17956 0.45003 0.0
H594 H 0.47925 0.31745 0.45508 0.0
H595 H 0.44574 0.2507 0.4435 0.0
H596 H 0.69772 0.31278 0.47141 0.0
H597 H 0.66314 0.2442 0.46658 0.0
H598 H 0.69235 0.37303 0.49155 0.0
H599 H 0.66005 0.40758 0.4883 0.0
C600 C 0.27399 0.47988 0.85271 0.0
C601 C 0.31062 0.51517 0.8357 0.0
C602 C 0.26168 0.56025 0.83157 0.0
C603 C 0.22591 0.52619 0.84938 0.0
N604 N 0.18826 0.44361 0.86973 0.0
N605 N 0.32813 0.57401 0.80097 0.0
C606 C 0.22879 0.48243 0.85748 0.0
C607 C 0.30051 0.55018 0.82231 0.0
N608 N 0.28327 0.4451 0.86487 0.0
N609 N 0.26105 0.6042 0.82495 0.0
H610 H 0.35537 0.56574 0.79315 0.0
H611 H 0.31977 0.59695 0.78924 0.0
H612 H 0.23365 0.61352 0.83151 0.0
H613 H 0.29019 0.63363 0.81466 0.0
H614 H 0.26135 0.42278 0.88002 0.0
H615 H 0.31453 0.44022 0.86041 0.0
H616 H 0.18617 0.4086 0.87425 0.0
H617 H 0.15433 0.44428 0.873 0.0
C618 C 0.77685 0.26488 0.18204 0.0
C619 C 0.76858 0.30406 0.17214 0.0
C620 C 0.67558 0.24044 0.16482 0.0
C621 C 0.68323 0.20175 0.176 0.0
N622 N 0.74114 0.17148 0.18779 0.0
N623 N 0.71486 0.32497 0.14571 0.0
C624 C 0.73417 0.21215 0.18191 0.0
C625 C 0.71939 0.29025 0.16065 0.0
N626 N 0.82459 0.2787 0.19289 0.0
N627 N 0.62659 0.23124 0.15999 0.0
H628 H 0.74682 0.36128 0.14203 0.0
H629 H 0.68104 0.3156 0.13476 0.0
H630 H 0.59327 0.19516 0.16242 0.0
H631 H 0.61888 0.26049 0.15511 0.0
H632 H 0.83181 0.2534 0.20325 0.0
H633 H 0.85673 0.31675 0.19268 0.0
H634 H 0.77738 0.17522 0.19038 0.0
H635 H 0.71017 0.1326 0.18762 0.0
C636 C 0.98802 0.48159 0.07826 0.0
C637 C 0.98095 0.51599 0.09639 0.0
C638 C 0.00535 0.57995 0.06281 0.0
C639 C 0.00314 0.54145 0.04341 0.0
N640 N -0.01104 0.45382 0.03184 0.0
N641 N 0.98302 0.59804 0.10699 0.0
C642 C -0.00558 0.49203 0.05094 0.0
C643 C -0.00981 0.56556 0.08907 0.0
N644 N 0.98838 0.43894 0.08721 0.0
N645 N 0.0226 0.63028 0.05613 0.0
H646 H 0.97514 0.59008 0.1269 0.0
H647 H 0.98282 0.63165 0.10191 0.0
H648 H 0.03426 0.64185 0.03701 0.0
H649 H 0.02972 0.66155 0.06997 0.0
H650 H -0.00149 0.41532 0.07554 0.0
H651 H 0.98335 0.43019 0.10718 0.0
H652 H 0.9766 0.41504 0.03583 0.0
H653 H -0.00707 0.45947 0.0115 0.0
C654 C 0.49031 0.95634 0.39694 0.0
C655 C 0.47622 0.98506 0.41532 0.0
C656 C 0.43077 -4e-05 0.37899 0.0
C657 C 0.44314 0.96945 0.3609 0.0
N658 N 0.4752 0.90979 0.35294 0.0
N659 N 0.42447 0.0248 0.42529 0.0
C660 C 0.46966 0.94457 0.37005 0.0
C661 C 0.44389 0.00418 0.40678 0.0
N662 N 0.52588 0.94314 0.40473 0.0
N663 N 0.40784 0.02607 0.36947 0.0
H664 H 0.43266 0.02784 0.44587 0.0
H665 H 0.39671 0.03466 0.42054 0.0
H666 H 0.39566 0.02192 0.34937 0.0
H667 H 0.40362 0.05414 0.38112 0.0
H668 H 0.54205 0.92754 0.39148 0.0
H669 H 0.543 0.95208 0.4241 0.0
H670 H 0.48924 0.8861 0.35913 0.0
H671 H 0.46151 0.90109 0.33289 0.0
C672 C 0.52876 0.47182 0.73333 0.0
C673 C 0.51717 0.50973 0.74502 0.0
C674 C 0.50854 0.53308 0.70017 0.0
C675 C 0.52997 0.50308 0.6893 0.0
N676 N 0.5733 0.45466 0.69805 0.0
N677 N 0.51181 0.58794 0.73883 0.0
C678 C 0.544 0.47559 0.70659 0.0
C679 C 0.51147 0.54377 0.72829 0.0
N680 N 0.5227 0.43059 0.74696 0.0
N681 N 0.48405 0.55012 0.68394 0.0
H682 H 0.51978 0.60103 0.75913 0.0
H683 H 0.51127 0.61534 0.72687 0.0
H684 H 0.47767 0.5399 0.66331 0.0
H685 H 0.46476 0.56888 0.6915 0.0
H686 H 0.52758 0.40036 0.73822 0.0
H687 H 0.50597 0.42265 0.76539 0.0
H688 H 0.58759 0.43803 0.71094 0.0
H689 H 0.58821 0.45938 0.67912 0.0
C690 C 0.58224 0.05357 0.57647 0.0
C691 C 0.53351 0.02678 0.56178 0.0
C692 C 0.48818 0.00384 0.6034 0.0
C693 C 0.53672 0.03354 0.61813 0.0
N694 N 0.62967 0.08982 0.61969 0.0
N695 N 0.44023 0.98083 0.5603 0.0
C696 C 0.58375 0.05918 0.60493 0.0
C697 C 0.48645 0.00298 0.57498 0.0
N698 N 0.62697 0.07309 0.56315 0.0
N699 N 0.44388 0.97604 0.61664 0.0
H700 H 0.43754 0.97832 0.5394 0.0
H701 H 0.40465 0.96783 0.56865 0.0
H702 H 0.44337 0.97746 0.63749 0.0
H703 H 0.40797 0.94892 0.60715 0.0
H704 H 0.6635 0.08777 0.57247 0.0
H705 H 0.6276 0.07205 0.54232 0.0
H706 H 0.66471 0.11472 0.6115 0.0
H707 H 0.63257 0.09267 0.64059 0.0
C708 C 0.47719 0.49536 0.90777 0.0
C709 C 0.50397 0.53855 0.89182 0.0
C710 C 0.51567 0.60127 0.92988 0.0
C711 C 0.49247 0.55855 0.94625 0.0
N712 N 0.45422 0.46562 0.95217 0.0
N713 N 0.55381 0.63252 0.88769 0.0
C714 C 0.47363 0.50568 0.93552 0.0
C715 C 0.52454 0.59154 0.90286 0.0
N716 N 0.45555 0.44447 0.89642 0.0
N717 N 0.52857 0.65092 0.94018 0.0
H718 H 0.56051 0.62685 0.86772 0.0
H719 H 0.57444 0.67207 0.89523 0.0
H720 H 0.52341 0.65934 0.96007 0.0
H721 H 0.54074 0.68297 0.92872 0.0
H722 H 0.42976 0.41131 0.90587 0.0
H723 H 0.46137 0.43494 0.87688 0.0
H724 H 0.44602 0.42737 0.94655 0.0
H725 H 0.44874 0.47107 0.97238 0.0
C726 C 0.96677 0.47844 0.25098 0.0
C727 C -0.01 0.52439 0.23661 0.0
C728 C 0.03865 0.57737 0.27761 0.0
C729 C 0.00682 0.53493 0.29299 0.0
N730 N 0.97431 0.44121 0.29111 0.0
N731 N 0.04344 0.61966 0.23752 0.0
C732 C 0.97939 0.48364 0.27898 0.0
C733 C 0.02416 0.57449 0.25039 0.0
N734 N 0.93369 0.42975 0.23807 0.0
N735 N 0.08764 0.61475 0.28705 0.0
H736 H 0.03254 0.61964 0.21762 0.0
H737 H 0.06604 0.6572 0.24763 0.0
H738 H 0.10432 0.61078 0.30453 0.0
H739 H 0.11381 0.64403 0.27548 0.0
H740 H 0.91127 0.39635 0.24827 0.0
H741 H 0.92573 0.42311 0.21742 0.0
H742 H 0.95907 0.40354 0.2813 0.0
H743 H -0.00716 0.44576 0.30975 0.0
loop_
_geom_bond_atom_site_label_1
_geom_bond_atom_site_label_2
_geom_bond_distance
_geom_bond_site_symmetry_2
_ccdc_geom_bond_type
Zn0 O6 1.969 . S
Zn0 O7 1.965 . S
Zn0 O11 2.024 . S
Zn0 O16 1.969 . S
Zn1 O8 1.969 . S
Zn1 O14 1.969 . S
Zn1 O15 1.965 . S
Zn1 O17 2.024 . S
C2 O3 1.229 . S
C2 O11 1.058 . S
O3 C2 1.229 . S
C4 O5 1.229 . S
C4 O17 1.058 . S
O5 C4 1.229 . S
O6 Zn0 1.969 . S
O6 C9 1.267 . S
O7 Zn0 1.965 . S
O7 C18 1.260 1_455 S
O8 Zn1 1.969 . S
O8 C18 1.258 . S
C9 O6 1.267 . S
C9 O10 1.228 . S
O10 C9 1.228 . S
O11 Zn0 2.024 . S
O11 C2 1.058 . S
C12 O13 1.228 . S
C12 O14 1.267 . S
O13 C12 1.228 . S
O14 Zn1 1.969 . S
O14 C12 1.267 . S
O15 Zn1 1.965 . S
O15 C19 1.260 1_655 S
O16 Zn0 1.969 . S
O16 C19 1.258 . S
O17 Zn1 2.024 . S
O17 C4 1.058 . S
C18 O7 1.260 1_655 S
C18 O8 1.258 . S
C19 O15 1.260 1_455 S
C19 O16 1.258 . S
Zn20 O26 1.969 . S
Zn20 O27 1.965 . S
Zn20 O31 2.024 . S
Zn20 O36 1.969 . S
Zn21 O28 1.969 . S
Zn21 O34 1.969 . S
Zn21 O35 1.965 . S
Zn21 O37 2.024 . S
C22 O23 1.229 . S
C22 O31 1.058 . S
O23 C22 1.229 . S
C24 O25 1.229 . S
C24 O37 1.058 . S
O25 C24 1.229 . S
O26 Zn20 1.969 . S
O26 C29 1.267 . S
O27 Zn20 1.965 . S
O27 C38 1.260 . S
O28 Zn21 1.969 . S
O28 C38 1.258 1_565 S
C29 O26 1.267 . S
C29 O30 1.228 . S
O30 C29 1.228 . S
O31 Zn20 2.024 . S
O31 C22 1.058 . S
C32 O33 1.228 . S
C32 O34 1.267 . S
O33 C32 1.228 . S
O34 Zn21 1.969 . S
O34 C32 1.267 . S
O35 Zn21 1.965 . S
O35 C39 1.260 1_565 S
O36 Zn20 1.969 . S
O36 C39 1.258 . S
O37 Zn21 2.024 . S
O37 C24 1.058 . S
C38 O27 1.260 . S
C38 O28 1.258 1_545 S
C39 O35 1.260 1_545 S
C39 O36 1.258 . S
Zn40 O46 1.969 . S
Zn40 O47 1.965 . S
Zn40 O51 2.024 . S
Zn40 O56 1.969 . S
Zn41 O48 1.969 . S
Zn41 O54 1.969 . S
Zn41 O55 1.965 . S
Zn41 O57 2.024 . S
C42 O43 1.229 . S
C42 O51 1.058 . S
O43 C42 1.229 . S
C44 O45 1.229 . S
C44 O57 1.058 . S
O45 C44 1.229 . S
O46 Zn40 1.969 . S
O46 C49 1.267 . S
O47 Zn40 1.965 . S
O47 C58 1.260 . S
O48 Zn41 1.969 . S
O48 C58 1.258 . S
C49 O46 1.267 . S
C49 O50 1.228 . S
O50 C49 1.228 . S
O51 Zn40 2.024 . S
O51 C42 1.058 . S
C52 O53 1.228 . S
C52 O54 1.267 . S
O53 C52 1.228 . S
O54 Zn41 1.969 . S
O54 C52 1.267 . S
O55 Zn41 1.965 . S
O55 C59 1.260 . S
O56 Zn40 1.969 . S
O56 C59 1.258 . S
O57 Zn41 2.024 . S
O57 C44 1.058 . S
C58 O47 1.260 . S
C58 O48 1.258 . S
C59 O55 1.260 . S
C59 O56 1.258 . S
C60 C61 1.391 . S
C60 C64 1.391 . S
C60 H102 0.948 . S
C61 C60 1.391 . S
C61 C62 1.391 . S
C62 C61 1.391 . S
C62 H118 0.947 . S
C62 C119 1.392 . S
C63 C64 1.391 . S
C63 C67 1.397 . S
C63 C119 1.419 . S
C64 C60 1.391 . S
C64 C63 1.391 . S
C64 C65 1.399 . S
C65 C64 1.399 . S
C65 C68 1.396 . S
C65 C77 1.453 . S
C65 C78 1.684 . S
H66 C90 0.948 . S
C67 C63 1.397 . S
C67 C68 1.394 . S
C67 C86 1.723 . S
C68 C65 1.396 . S
C68 C67 1.394 . S
C68 C98 1.723 1_545 S
H69 C92 0.947 . S
H70 C93 0.948 . S
H71 C99 0.982 . S
H72 C100 0.979 . S
H73 C100 0.980 . S
H74 C100 0.983 . S
H75 C99 0.979 . S
H76 C99 0.977 . S
C77 C65 1.453 . S
C77 H106 0.982 . S
C77 H107 0.979 . S
C77 H108 0.977 . S
C78 C65 1.684 . S
C78 H103 0.979 . S
C78 H104 0.980 . S
C78 H105 0.983 . S
C79 C80 1.391 . S
C79 C84 1.391 . S
C79 H109 0.948 . S
C80 C79 1.391 . S
C80 C81 1.391 1_545 S
C81 C80 1.391 1_565 S
C81 C82 1.392 . S
C81 H110 0.947 . S
C82 C81 1.392 . S
C82 C83 1.419 1_565 S
C82 H111 0.948 . S
C83 C82 1.419 1_545 S
C83 C84 1.391 . S
C83 C87 1.397 . S
C84 C79 1.391 . S
C84 C83 1.391 . S
C84 C85 1.399 . S
C85 C84 1.399 . S
C85 C86 1.396 . S
C85 C88 1.453 . S
C85 C89 1.684 . S
C86 C67 1.723 . S
C86 C85 1.396 . S
C86 C87 1.394 . S
C87 C83 1.397 . S
C87 C86 1.394 . S
C87 C97 1.723 1_545 S
C88 C85 1.453 . S
C88 H112 0.982 . S
C88 H113 0.979 . S
C88 H114 0.977 . S
C89 C85 1.684 . S
C89 H115 0.979 . S
C89 H116 0.980 . S
C89 H117 0.983 . S
C90 H66 0.948 . S
C90 C91 1.391 . S
C90 C95 1.391 . S
C91 C90 1.391 . S
C91 C92 1.391 . S
C92 H69 0.947 . S
C92 C91 1.391 . S
C92 C93 1.392 . S
C93 H70 0.948 . S
C93 C92 1.392 . S
C93 C94 1.419 . S
C94 C93 1.419 . S
C94 C95 1.391 . S
C94 C98 1.397 . S
C95 C90 1.391 . S
C95 C94 1.391 . S
C95 C96 1.399 . S
C96 C95 1.399 . S
C96 C97 1.396 . S
C96 C99 1.453 . S
C96 C100 1.684 . S
C97 C87 1.723 1_565 S
C97 C96 1.396 . S
C97 C98 1.394 . S
C98 C68 1.723 1_565 S
C98 C94 1.397 . S
C98 C97 1.394 . S
C99 H71 0.982 . S
C99 H75 0.979 . S
C99 H76 0.977 . S
C99 C96 1.453 . S
C100 H72 0.979 . S
C100 H73 0.980 . S
C100 H74 0.983 . S
C100 C96 1.684 . S
H101 C119 0.948 . S
H102 C60 0.948 . S
H103 C78 0.979 . S
H104 C78 0.980 . S
H105 C78 0.983 . S
H106 C77 0.982 . S
H107 C77 0.979 . S
H108 C77 0.977 . S
H109 C79 0.948 . S
H110 C81 0.947 . S
H111 C82 0.948 . S
H112 C88 0.982 . S
H113 C88 0.979 . S
H114 C88 0.977 . S
H115 C89 0.979 . S
H116 C89 0.980 . S
H117 C89 0.983 . S
H118 C62 0.947 . S
C119 C62 1.392 . S
C119 C63 1.419 . S
C119 H101 0.948 . S
C120 C121 1.391 . S
C120 C124 1.391 . S
C120 H162 0.948 . S
C121 C120 1.391 . S
C121 C122 1.391 . S
C122 C121 1.391 . S
C122 H178 0.947 . S
C122 C179 1.392 . S
C123 C124 1.391 . S
C123 C127 1.397 . S
C123 C179 1.419 . S
C124 C120 1.391 . S
C124 C123 1.391 . S
C124 C125 1.399 . S
C125 C124 1.399 . S
C125 C128 1.396 . S
C125 C137 1.453 . S
C125 C138 1.684 . S
H126 C150 0.948 . S
C127 C123 1.397 . S
C127 C128 1.394 . S
C127 C146 1.723 . S
C128 C125 1.396 . S
C128 C127 1.394 . S
C128 C158 1.723 . S
H129 C152 0.947 . S
H130 C153 0.948 . S
H131 C159 0.982 . S
H132 C160 0.979 . S
H133 C160 0.980 . S
H134 C160 0.983 . S
H135 C159 0.979 . S
H136 C159 0.977 . S
C137 C125 1.453 . S
C137 H166 0.982 . S
C137 H167 0.979 . S
C137 H168 0.977 . S
C138 C125 1.684 . S
C138 H163 0.979 . S
C138 H164 0.980 . S
C138 H165 0.983 . S
C139 C140 1.391 . S
C139 C144 1.391 . S
C139 H169 0.948 . S
C140 C139 1.391 . S
C140 C141 1.391 . S
C141 C140 1.391 . S
C141 C142 1.392 . S
C141 H170 0.947 . S
C142 C141 1.392 . S
C142 C143 1.419 . S
C142 H171 0.948 . S
C143 C142 1.419 . S
C143 C144 1.391 . S
C143 C147 1.397 . S
C144 C139 1.391 . S
C144 C143 1.391 . S
C144 C145 1.399 . S
C145 C144 1.399 . S
C145 C146 1.396 . S
C145 C148 1.453 . S
C145 C149 1.684 . S
C146 C127 1.723 . S
C146 C145 1.396 . S
C146 C147 1.394 . S
C147 C143 1.397 . S
C147 C146 1.394 . S
C147 C157 1.723 . S
C148 C145 1.453 . S
C148 H172 0.982 . S
C148 H173 0.979 . S
C148 H174 0.977 . S
C149 C145 1.684 . S
C149 H175 0.979 . S
C149 H176 0.980 . S
C149 H177 0.983 . S
C150 H126 0.948 . S
C150 C151 1.391 . S
C150 C155 1.391 . S
C151 C150 1.391 . S
C151 C152 1.391 . S
C152 H129 0.947 . S
C152 C151 1.391 . S
C152 C153 1.392 . S
C153 H130 0.948 . S
C153 C152 1.392 . S
C153 C154 1.419 . S
C154 C153 1.419 . S
C154 C155 1.391 . S
C154 C158 1.397 . S
C155 C150 1.391 . S
C155 C154 1.391 . S
C155 C156 1.399 . S
C156 C155 1.399 . S
C156 C157 1.396 . S
C156 C159 1.453 . S
C156 C160 1.684 . S
C157 C147 1.723 . S
C157 C156 1.396 . S
C157 C158 1.394 . S
C158 C128 1.723 . S
C158 C154 1.397 . S
C158 C157 1.394 . S
C159 H131 0.982 . S
C159 H135 0.979 . S
C159 H136 0.977 . S
C159 C156 1.453 . S
C160 H132 0.979 . S
C160 H133 0.980 . S
C160 H134 0.983 . S
C160 C156 1.684 . S
H161 C179 0.948 . S
H162 C120 0.948 . S
H163 C138 0.979 . S
H164 C138 0.980 . S
H165 C138 0.983 . S
H166 C137 0.982 . S
H167 C137 0.979 . S
H168 C137 0.977 . S
H169 C139 0.948 . S
H170 C141 0.947 . S
H171 C142 0.948 . S
H172 C148 0.982 . S
H173 C148 0.979 . S
H174 C148 0.977 . S
H175 C149 0.979 . S
H176 C149 0.980 . S
H177 C149 0.983 . S
H178 C122 0.947 . S
C179 C122 1.392 . S
C179 C123 1.419 . S
C179 H161 0.948 . S
C180 C181 1.391 . S
C180 C184 1.391 . S
C180 H222 0.948 . S
C181 C180 1.391 . S
C181 C182 1.391 . S
C182 C181 1.391 . S
C182 H238 0.947 . S
C182 C239 1.392 . S
C183 C184 1.391 . S
C183 C187 1.397 . S
C183 C239 1.419 . S
C184 C180 1.391 . S
C184 C183 1.391 . S
C184 C185 1.399 . S
C185 C184 1.399 . S
C185 C188 1.396 . S
C185 C197 1.453 . S
C185 C198 1.684 . S
H186 C210 0.948 . S
C187 C183 1.397 . S
C187 C188 1.394 . S
C187 C206 1.723 . S
C188 C185 1.396 . S
C188 C187 1.394 . S
C188 C218 1.723 1_455 S
H189 C212 0.947 . S
H190 C213 0.948 . S
H191 C219 0.982 . S
H192 C220 0.979 . S
H193 C220 0.980 . S
H194 C220 0.983 . S
H195 C219 0.979 . S
H196 C219 0.977 . S
C197 C185 1.453 . S
C197 H226 0.982 . S
C197 H227 0.979 . S
C197 H228 0.977 . S
C198 C185 1.684 . S
C198 H223 0.979 . S
C198 H224 0.980 . S
C198 H225 0.983 . S
C199 C200 1.391 1_556 S
C199 C204 1.391 . S
C199 H229 0.948 1_556 S
C200 C199 1.391 1_554 S
C200 C201 1.391 1_454 S
C201 C200 1.391 1_656 S
C201 C202 1.393 . S
C201 H230 0.946 1_556 S
C202 C201 1.393 . S
C202 C203 1.419 1_655 S
C202 H231 0.948 . S
C203 C202 1.419 1_455 S
C203 C204 1.391 . S
C203 C207 1.397 . S
C204 C199 1.391 . S
C204 C203 1.391 . S
C204 C205 1.399 . S
C205 C204 1.399 . S
C205 C206 1.396 . S
C205 C208 1.453 . S
C205 C209 1.684 . S
C206 C187 1.723 . S
C206 C205 1.396 . S
C206 C207 1.394 . S
C207 C203 1.397 . S
C207 C206 1.394 . S
C207 C217 1.723 1_455 S
C208 C205 1.453 . S
C208 H232 0.982 . S
C208 H233 0.979 . S
C208 H234 0.977 . S
C209 C205 1.684 . S
C209 H235 0.979 . S
C209 H236 0.980 . S
C209 H237 0.983 . S
C210 H186 0.948 . S
C210 C211 1.391 . S
C210 C215 1.391 . S
C211 C210 1.391 . S
C211 C212 1.391 . S
C212 H189 0.947 . S
C212 C211 1.391 . S
C212 C213 1.392 . S
C213 H190 0.948 . S
C213 C212 1.392 . S
C213 C214 1.419 . S
C214 C213 1.419 . S
C214 C215 1.391 . S
C214 C218 1.397 . S
C215 C210 1.391 . S
C215 C214 1.391 . S
C215 C216 1.399 . S
C216 C215 1.399 . S
C216 C217 1.396 . S
C216 C219 1.453 . S
C216 C220 1.684 . S
C217 C207 1.723 1_655 S
C217 C216 1.396 . S
C217 C218 1.394 . S
C218 C188 1.723 1_655 S
C218 C214 1.397 . S
C218 C217 1.394 . S
C219 H191 0.982 . S
C219 H195 0.979 . S
C219 H196 0.977 . S
C219 C216 1.453 . S
C220 H192 0.979 . S
C220 H193 0.980 . S
C220 H194 0.983 . S
C220 C216 1.684 . S
H221 C239 0.948 . S
H222 C180 0.948 . S
H223 C198 0.979 . S
H224 C198 0.980 . S
H225 C198 0.983 . S
H226 C197 0.982 . S
H227 C197 0.979 . S
H228 C197 0.977 . S
H229 C199 0.948 1_554 S
H230 C201 0.946 1_554 S
H231 C202 0.948 . S
H232 C208 0.982 . S
H233 C208 0.979 . S
H234 C208 0.977 . S
H235 C209 0.979 . S
H236 C209 0.980 . S
H237 C209 0.983 . S
H238 C182 0.947 . S
C239 C182 1.392 . S
C239 C183 1.419 . S
C239 H221 0.948 . S
C240 C241 1.391 . S
C240 C244 1.391 . S
C240 H282 0.948 . S
C241 C240 1.391 . S
C241 C242 1.391 . S
C242 C241 1.391 . S
C242 H298 0.947 . S
C242 C299 1.392 . S
C243 C244 1.391 . S
C243 C247 1.397 . S
C243 C299 1.419 . S
C244 C240 1.391 . S
C244 C243 1.391 . S
C244 C245 1.399 . S
C245 C244 1.399 . S
C245 C248 1.396 1_655 S
C245 C257 1.453 1_655 S
C245 C258 1.684 . S
H246 C270 0.948 . S
C247 C243 1.397 . S
C247 C248 1.394 1_655 S
C247 C266 1.723 . S
C248 C245 1.396 1_455 S
C248 C247 1.394 1_455 S
C248 C278 1.723 . S
H249 C272 0.947 . S
H250 C273 0.948 . S
H251 C279 0.982 . S
H252 C280 0.979 . S
H253 C280 0.980 . S
H254 C280 0.983 . S
H255 C279 0.979 . S
H256 C279 0.977 . S
C257 C245 1.453 1_455 S
C257 H286 0.982 . S
C257 H287 0.979 . S
C257 H288 0.977 . S
C258 C245 1.684 . S
C258 H283 0.979 . S
C258 H284 0.980 1_655 S
C258 H285 0.983 . S
C259 C260 1.391 1_655 S
C259 C264 1.391 . S
C259 H289 0.948 . S
C260 C259 1.391 1_455 S
C260 C261 1.391 . S
C261 C260 1.391 . S
C261 C262 1.392 . S
C261 H290 0.947 . S
C262 C261 1.392 . S
C262 C263 1.419 . S
C262 H291 0.948 . S
C263 C262 1.419 . S
C263 C264 1.391 1_455 S
C263 C267 1.397 . S
C264 C259 1.391 . S
C264 C263 1.391 1_655 S
C264 C265 1.399 . S
C265 C264 1.399 . S
C265 C266 1.396 . S
C265 C268 1.453 . S
C265 C269 1.684 . S
C266 C247 1.723 . S
C266 C265 1.396 . S
C266 C267 1.394 1_655 S
C267 C263 1.397 . S
C267 C266 1.394 1_455 S
C267 C277 1.723 . S
C268 C265 1.453 . S
C268 H292 0.982 . S
C268 H293 0.979 . S
C268 H294 0.977 . S
C269 C265 1.684 . S
C269 H295 0.979 . S
C269 H296 0.980 . S
C269 H297 0.983 . S
C270 H246 0.948 . S
C270 C271 1.391 . S
C270 C275 1.391 . S
C271 C270 1.391 . S
C271 C272 1.391 . S
C272 H249 0.947 . S
C272 C271 1.391 . S
C272 C273 1.392 . S
C273 H250 0.948 . S
C273 C272 1.392 . S
C273 C274 1.419 . S
C274 C273 1.419 . S
C274 C275 1.391 . S
C274 C278 1.397 . S
C275 C270 1.391 . S
C275 C274 1.391 . S
C275 C276 1.399 . S
C276 C275 1.399 . S
C276 C277 1.396 . S
C276 C279 1.453 . S
C276 C280 1.684 . S
C277 C267 1.723 . S
C277 C276 1.396 . S
C277 C278 1.394 . S
C278 C248 1.723 . S
C278 C274 1.397 . S
C278 C277 1.394 . S
C279 H251 0.982 . S
C279 H255 0.979 . S
C279 H256 0.977 . S
C279 C276 1.453 . S
C280 H252 0.979 . S
C280 H253 0.980 . S
C280 H254 0.983 . S
C280 C276 1.684 . S
H281 C299 0.948 . S
H282 C240 0.948 . S
H283 C258 0.979 . S
H284 C258 0.980 1_455 S
H285 C258 0.983 . S
H286 C257 0.982 . S
H287 C257 0.979 . S
H288 C257 0.977 . S
H289 C259 0.948 . S
H290 C261 0.947 . S
H291 C262 0.948 . S
H292 C268 0.982 . S
H293 C268 0.979 . S
H294 C268 0.977 . S
H295 C269 0.979 . S
H296 C269 0.980 . S
H297 C269 0.983 . S
H298 C242 0.947 . S
C299 C242 1.392 . S
C299 C243 1.419 . S
C299 H281 0.948 . S
C300 C301 1.391 . S
C300 C304 1.391 . S
C300 H342 0.948 . S
C301 C300 1.391 . S
C301 C302 1.391 . S
C302 C301 1.391 . S
C302 H358 0.947 . S
C302 C359 1.392 . S
C303 C304 1.391 . S
C303 C307 1.397 . S
C303 C359 1.419 . S
C304 C300 1.391 . S
C304 C303 1.391 . S
C304 C305 1.399 . S
C305 C304 1.399 . S
C305 C308 1.396 1_565 S
C305 C317 1.453 1_565 S
C305 C318 1.684 . S
H306 C330 0.948 . S
C307 C303 1.397 . S
C307 C308 1.394 1_565 S
C307 C326 1.723 . S
C308 C305 1.396 1_545 S
C308 C307 1.394 1_545 S
C308 C338 1.723 . S
H309 C332 0.947 . S
H310 C333 0.948 . S
H311 C339 0.982 . S
H312 C340 0.979 . S
H313 C340 0.980 . S
H314 C340 0.983 . S
H315 C339 0.979 . S
H316 C339 0.977 . S
C317 C305 1.453 1_545 S
C317 H346 0.982 . S
C317 H347 0.979 1_545 S
C317 H348 0.977 . S
C318 C305 1.684 . S
C318 H343 0.979 . S
C318 H344 0.980 1_565 S
C318 H345 0.983 . S
C319 C320 1.391 1_565 S
C319 C324 1.391 . S
C319 H349 0.948 . S
C320 C319 1.391 1_545 S
C320 C321 1.391 . S
C321 C320 1.391 . S
C321 C322 1.392 . S
C321 H350 0.947 . S
C322 C321 1.392 . S
C322 C323 1.419 . S
C322 H351 0.948 . S
C323 C322 1.419 . S
C323 C324 1.391 1_545 S
C323 C327 1.397 . S
C324 C319 1.391 . S
C324 C323 1.391 1_565 S
C324 C325 1.399 . S
C325 C324 1.399 . S
C325 C326 1.396 . S
C325 C328 1.453 . S
C325 C329 1.684 . S
C326 C307 1.723 . S
C326 C325 1.396 . S
C326 C327 1.394 1_565 S
C327 C323 1.397 . S
C327 C326 1.394 1_545 S
C327 C337 1.723 . S
C328 C325 1.453 . S
C328 H352 0.982 . S
C328 H353 0.979 . S
C328 H354 0.977 . S
C329 C325 1.684 . S
C329 H355 0.979 . S
C329 H356 0.980 . S
C329 H357 0.983 . S
C330 H306 0.948 . S
C330 C331 1.391 . S
C330 C335 1.391 . S
C331 C330 1.391 . S
C331 C332 1.391 . S
C332 H309 0.947 . S
C332 C331 1.391 . S
C332 C333 1.392 . S
C333 H310 0.948 . S
C333 C332 1.392 . S
C333 C334 1.419 . S
C334 C333 1.419 . S
C334 C335 1.391 . S
C334 C338 1.397 . S
C335 C330 1.391 . S
C335 C334 1.391 . S
C335 C336 1.399 . S
C336 C335 1.399 . S
C336 C337 1.396 . S
C336 C339 1.453 . S
C336 C340 1.684 . S
C337 C327 1.723 . S
C337 C336 1.396 . S
C337 C338 1.394 . S
C338 C308 1.723 . S
C338 C334 1.397 . S
C338 C337 1.394 . S
C339 H311 0.982 . S
C339 H315 0.979 . S
C339 H316 0.977 . S
C339 C336 1.453 . S
C340 H312 0.979 . S
C340 H313 0.980 . S
C340 H314 0.983 . S
C340 C336 1.684 . S
H341 C359 0.948 . S
H342 C300 0.948 . S
H343 C318 0.979 . S
H344 C318 0.980 1_545 S
H345 C318 0.983 . S
H346 C317 0.982 . S
H347 C317 0.979 1_565 S
H348 C317 0.977 . S
H349 C319 0.948 . S
H350 C321 0.947 . S
H351 C322 0.948 . S
H352 C328 0.982 . S
H353 C328 0.979 . S
H354 C328 0.977 . S
H355 C329 0.979 . S
H356 C329 0.980 . S
H357 C329 0.983 . S
H358 C302 0.947 . S
C359 C302 1.392 . S
C359 C303 1.419 . S
C359 H341 0.948 . S
C360 C361 1.391 . S
C360 C364 1.391 . S
C360 H402 0.948 . S
C361 C360 1.391 . S
C361 C362 1.391 . S
C362 C361 1.391 . S
C362 H418 0.947 . S
C362 C419 1.392 . S
C363 C364 1.391 . S
C363 C367 1.397 . S
C363 C419 1.419 . S
C364 C360 1.391 . S
C364 C363 1.391 . S
C364 C365 1.399 . S
C365 C364 1.399 . S
C365 C368 1.396 . S
C365 C377 1.453 . S
C365 C378 1.684 . S
H366 C390 0.948 . S
C367 C363 1.397 . S
C367 C368 1.394 . S
C367 C386 1.723 . S
C368 C365 1.396 . S
C368 C367 1.394 . S
C368 C398 1.723 . S
H369 C392 0.947 . S
H370 C393 0.948 . S
H371 C399 0.982 . S
H372 C400 0.979 . S
H373 C400 0.980 . S
H374 C400 0.983 . S
H375 C399 0.979 . S
H376 C399 0.977 . S
C377 C365 1.453 . S
C377 H406 0.982 . S
C377 H407 0.979 . S
C377 H408 0.977 . S
C378 C365 1.684 . S
C378 H403 0.979 . S
C378 H404 0.980 . S
C378 H405 0.983 . S
C379 C380 1.391 1_554 S
C379 C384 1.391 . S
C379 H409 0.948 1_554 S
C380 C379 1.391 1_556 S
C380 C381 1.387 1_556 S
C381 C380 1.387 1_554 S
C381 C382 1.403 . S
C381 H410 0.941 1_554 S
C382 C381 1.403 . S
C382 C383 1.419 . S
C382 H411 0.948 . S
C383 C382 1.419 . S
C383 C384 1.391 . S
C383 C387 1.397 . S
C384 C379 1.391 . S
C384 C383 1.391 . S
C384 C385 1.399 . S
C385 C384 1.399 . S
C385 C386 1.396 . S
C385 C388 1.453 . S
C385 C389 1.684 . S
C386 C367 1.723 . S
C386 C385 1.396 . S
C386 C387 1.394 . S
C387 C383 1.397 . S
C387 C386 1.394 . S
C387 C397 1.723 . S
C388 C385 1.453 . S
C388 H412 0.982 . S
C388 H413 0.979 . S
C388 H414 0.977 . S
C389 C385 1.684 . S
C389 H415 0.979 . S
C389 H416 0.980 . S
C389 H417 0.983 . S
C390 H366 0.948 . S
C390 C391 1.391 . S
C390 C395 1.391 . S
C391 C390 1.391 . S
C391 C392 1.391 . S
C392 H369 0.947 . S
C392 C391 1.391 . S
C392 C393 1.392 . S
C393 H370 0.948 . S
C393 C392 1.392 . S
C393 C394 1.419 . S
C394 C393 1.419 . S
C394 C395 1.391 . S
C394 C398 1.397 . S
C395 C390 1.391 . S
C395 C394 1.391 . S
C395 C396 1.399 . S
C396 C395 1.399 . S
C396 C397 1.396 . S
C396 C399 1.453 . S
C396 C400 1.684 . S
C397 C387 1.723 . S
C397 C396 1.396 . S
C397 C398 1.394 . S
C398 C368 1.723 . S
C398 C394 1.397 . S
C398 C397 1.394 . S
C399 H371 0.982 . S
C399 H375 0.979 . S
C399 H376 0.977 . S
C399 C396 1.453 . S
C400 H372 0.979 . S
C400 H373 0.980 . S
C400 H374 0.983 . S
C400 C396 1.684 . S
H401 C419 0.948 . S
H402 C360 0.948 . S
H403 C378 0.979 . S
H404 C378 0.980 . S
H405 C378 0.983 . S
H406 C377 0.982 . S
H407 C377 0.979 . S
H408 C377 0.977 . S
H409 C379 0.948 1_556 S
H410 C381 0.941 1_556 S
H411 C382 0.948 . S
H412 C388 0.982 . S
H413 C388 0.979 . S
H414 C388 0.977 . S
H415 C389 0.979 . S
H416 C389 0.980 . S
H417 C389 0.983 . S
H418 C362 0.947 . S
C419 C362 1.392 . S
C419 C363 1.419 . S
C419 H401 0.948 . S
C420 C421 1.363 . S
C420 C426 1.379 . S
C420 N428 1.356 . S
C421 C420 1.363 . S
C421 C427 1.363 . S
C422 C423 1.363 . S
C422 C427 1.379 . S
C422 N429 1.356 . S
C423 C422 1.363 . S
C423 C426 1.363 . S
N424 C426 1.356 . S
N424 H436 0.984 . S
N424 H437 0.985 . S
N425 C427 1.356 . S
N425 H430 0.984 . S
N425 H431 0.985 . S
C426 C420 1.379 . S
C426 C423 1.363 . S
C426 N424 1.356 . S
C427 C421 1.363 . S
C427 C422 1.379 . S
C427 N425 1.356 . S
N428 C420 1.356 . S
N428 H434 0.984 . S
N428 H435 0.984 . S
N429 C422 1.356 . S
N429 H432 0.984 . S
N429 H433 0.985 . S
H430 N425 0.984 . S
H431 N425 0.985 . S
H432 N429 0.984 . S
H433 N429 0.985 . S
H434 N428 0.984 . S
H435 N428 0.984 . S
H436 N424 0.984 . S
H437 N424 0.985 . S
C438 C439 1.363 . S
C438 C444 1.379 . S
C438 N446 1.356 . S
C439 C438 1.363 . S
C439 C445 1.363 . S
C440 C441 1.363 . S
C440 C445 1.379 . S
C440 N447 1.356 . S
C441 C440 1.363 . S
C441 C444 1.363 . S
N442 C444 1.356 . S
N442 H454 0.984 . S
N442 H455 0.985 . S
N443 C445 1.356 . S
N443 H448 0.984 . S
N443 H449 0.985 . S
C444 C438 1.379 . S
C444 C441 1.363 . S
C444 N442 1.356 . S
C445 C439 1.363 . S
C445 C440 1.379 . S
C445 N443 1.356 . S
N446 C438 1.356 . S
N446 H452 0.984 . S
N446 H453 0.984 . S
N447 C440 1.356 . S
N447 H450 0.984 . S
N447 H451 0.985 . S
H448 N443 0.984 . S
H449 N443 0.985 . S
H450 N447 0.984 . S
H451 N447 0.985 . S
H452 N446 0.984 . S
H453 N446 0.984 . S
H454 N442 0.984 . S
H455 N442 0.985 . S
C456 C457 1.363 . S
C456 C462 1.379 . S
C456 N464 1.356 . S
C457 C456 1.363 . S
C457 C463 1.363 . S
C458 C459 1.363 . S
C458 C463 1.379 . S
C458 N465 1.356 . S
C459 C458 1.363 . S
C459 C462 1.363 . S
N460 C462 1.356 . S
N460 H472 0.984 . S
N460 H473 0.985 . S
N461 C463 1.356 . S
N461 H466 0.984 . S
N461 H467 0.985 . S
C462 C456 1.379 . S
C462 C459 1.363 . S
C462 N460 1.356 . S
C463 C457 1.363 . S
C463 C458 1.379 . S
C463 N461 1.356 . S
N464 C456 1.356 . S
N464 H470 0.984 . S
N464 H471 0.984 . S
N465 C458 1.356 . S
N465 H468 0.984 . S
N465 H469 0.985 . S
H466 N461 0.984 . S
H467 N461 0.985 . S
H468 N465 0.984 . S
H469 N465 0.985 . S
H470 N464 0.984 . S
H471 N464 0.984 . S
H472 N460 0.984 . S
H473 N460 0.985 . S
C474 C475 1.363 . S
C474 C480 1.379 . S
C474 N482 1.356 . S
C475 C474 1.363 . S
C475 C481 1.363 . S
C476 C477 1.363 . S
C476 C481 1.379 . S
C476 N483 1.356 . S
C477 C476 1.363 . S
C477 C480 1.363 . S
N478 C480 1.356 . S
N478 H490 0.984 . S
N478 H491 0.985 . S
N479 C481 1.356 . S
N479 H484 0.984 . S
N479 H485 0.985 . S
C480 C474 1.379 . S
C480 C477 1.363 . S
C480 N478 1.356 . S
C481 C475 1.363 . S
C481 C476 1.379 . S
C481 N479 1.356 . S
N482 C474 1.356 . S
N482 H488 0.984 . S
N482 H489 0.984 . S
N483 C476 1.356 . S
N483 H486 0.984 . S
N483 H487 0.985 . S
H484 N479 0.984 . S
H485 N479 0.985 . S
H486 N483 0.984 . S
H487 N483 0.985 . S
H488 N482 0.984 . S
H489 N482 0.984 . S
H490 N478 0.984 . S
H491 N478 0.985 . S
C492 C493 1.363 . S
C492 C498 1.379 . S
C492 N500 1.356 . S
C493 C492 1.363 . S
C493 C499 1.363 . S
C494 C495 1.363 . S
C494 C499 1.379 . S
C494 N501 1.356 . S
C495 C494 1.363 . S
C495 C498 1.363 . S
N496 C498 1.356 . S
N496 H508 0.984 . S
N496 H509 0.985 . S
N497 C499 1.356 . S
N497 H502 0.984 . S
N497 H503 0.985 . S
C498 C492 1.379 . S
C498 C495 1.363 . S
C498 N496 1.356 . S
C499 C493 1.363 . S
C499 C494 1.379 . S
C499 N497 1.356 . S
N500 C492 1.356 . S
N500 H506 0.984 . S
N500 H507 0.984 . S
N501 C494 1.356 . S
N501 H504 0.984 . S
N501 H505 0.985 . S
H502 N497 0.984 . S
H503 N497 0.985 . S
H504 N501 0.984 . S
H505 N501 0.985 . S
H506 N500 0.984 . S
H507 N500 0.984 . S
H508 N496 0.984 . S
H509 N496 0.985 . S
C510 C511 1.363 . S
C510 C516 1.379 . S
C510 N518 1.356 . S
C511 C510 1.363 . S
C511 C517 1.363 . S
C512 C513 1.363 . S
C512 C517 1.379 . S
C512 N519 1.356 . S
C513 C512 1.363 . S
C513 C516 1.363 . S
N514 C516 1.356 . S
N514 H526 0.984 . S
N514 H527 0.985 . S
N515 C517 1.356 . S
N515 H520 0.984 . S
N515 H521 0.985 . S
C516 C510 1.379 . S
C516 C513 1.363 . S
C516 N514 1.356 . S
C517 C511 1.363 . S
C517 C512 1.379 . S
C517 N515 1.356 . S
N518 C510 1.356 . S
N518 H524 0.984 . S
N518 H525 0.984 . S
N519 C512 1.356 . S
N519 H522 0.984 . S
N519 H523 0.985 . S
H520 N515 0.984 . S
H521 N515 0.985 . S
H522 N519 0.984 . S
H523 N519 0.985 . S
H524 N518 0.984 . S
H525 N518 0.984 . S
H526 N514 0.984 . S
H527 N514 0.985 . S
C528 C529 1.363 . S
C528 C534 1.379 . S
C528 N536 1.356 . S
C529 C528 1.363 . S
C529 C535 1.363 . S
C530 C531 1.363 . S
C530 C535 1.379 . S
C530 N537 1.356 . S
C531 C530 1.363 . S
C531 C534 1.363 . S
N532 C534 1.356 . S
N532 H544 0.984 . S
N532 H545 0.985 . S
N533 C535 1.356 . S
N533 H538 0.984 . S
N533 H539 0.985 . S
C534 C528 1.379 . S
C534 C531 1.363 . S
C534 N532 1.356 . S
C535 C529 1.363 . S
C535 C530 1.379 . S
C535 N533 1.356 . S
N536 C528 1.356 . S
N536 H542 0.984 . S
N536 H543 0.984 . S
N537 C530 1.356 . S
N537 H540 0.984 . S
N537 H541 0.985 . S
H538 N533 0.984 . S
H539 N533 0.985 . S
H540 N537 0.984 . S
H541 N537 0.985 . S
H542 N536 0.984 . S
H543 N536 0.984 . S
H544 N532 0.984 . S
H545 N532 0.985 . S
C546 C547 1.363 . S
C546 C552 1.379 . S
C546 N554 1.356 . S
C547 C546 1.363 . S
C547 C553 1.363 . S
C548 C549 1.363 . S
C548 C553 1.379 . S
C548 N555 1.356 . S
C549 C548 1.363 . S
C549 C552 1.363 . S
N550 C552 1.356 . S
N550 H562 0.984 . S
N550 H563 0.985 . S
N551 C553 1.356 . S
N551 H556 0.984 . S
N551 H557 0.985 . S
C552 C546 1.379 . S
C552 C549 1.363 . S
C552 N550 1.356 . S
C553 C547 1.363 . S
C553 C548 1.379 . S
C553 N551 1.356 . S
N554 C546 1.356 . S
N554 H560 0.984 . S
N554 H561 0.984 . S
N555 C548 1.356 . S
N555 H558 0.984 . S
N555 H559 0.985 . S
H556 N551 0.984 . S
H557 N551 0.985 . S
H558 N555 0.984 . S
H559 N555 0.985 . S
H560 N554 0.984 . S
H561 N554 0.984 . S
H562 N550 0.984 . S
H563 N550 0.985 . S
C564 C565 1.363 . S
C564 C570 1.379 . S
C564 N572 1.356 . S
C565 C564 1.363 . S
C565 C571 1.363 . S
C566 C567 1.363 . S
C566 C571 1.379 . S
C566 N573 1.356 . S
C567 C566 1.363 . S
C567 C570 1.363 . S
N568 C570 1.356 . S
N568 H580 0.984 . S
N568 H581 0.985 . S
N569 C571 1.356 . S
N569 H574 0.984 . S
N569 H575 0.985 . S
C570 C564 1.379 . S
C570 C567 1.363 . S
C570 N568 1.356 . S
C571 C565 1.363 . S
C571 C566 1.379 . S
C571 N569 1.356 . S
N572 C564 1.356 . S
N572 H578 0.984 . S
N572 H579 0.984 . S
N573 C566 1.356 . S
N573 H576 0.984 . S
N573 H577 0.985 . S
H574 N569 0.984 . S
H575 N569 0.985 . S
H576 N573 0.984 . S
H577 N573 0.985 . S
H578 N572 0.984 . S
H579 N572 0.984 . S
H580 N568 0.984 . S
H581 N568 0.985 . S
C582 C583 1.363 . S
C582 C588 1.379 . S
C582 N590 1.356 . S
C583 C582 1.363 . S
C583 C589 1.363 . S
C584 C585 1.363 . S
C584 C589 1.379 . S
C584 N591 1.356 . S
C585 C584 1.363 . S
C585 C588 1.363 . S
N586 C588 1.356 . S
N586 H598 0.984 . S
N586 H599 0.985 . S
N587 C589 1.356 . S
N587 H592 0.984 . S
N587 H593 0.985 . S
C588 C582 1.379 . S
C588 C585 1.363 . S
C588 N586 1.356 . S
C589 C583 1.363 . S
C589 C584 1.379 . S
C589 N587 1.356 . S
N590 C582 1.356 . S
N590 H596 0.984 . S
N590 H597 0.984 . S
N591 C584 1.356 . S
N591 H594 0.984 . S
N591 H595 0.985 . S
H592 N587 0.984 . S
H593 N587 0.985 . S
H594 N591 0.984 . S
H595 N591 0.985 . S
H596 N590 0.984 . S
H597 N590 0.984 . S
H598 N586 0.984 . S
H599 N586 0.985 . S
C600 C601 1.363 . S
C600 C606 1.379 . S
C600 N608 1.356 . S
C601 C600 1.363 . S
C601 C607 1.363 . S
C602 C603 1.363 . S
C602 C607 1.379 . S
C602 N609 1.356 . S
C603 C602 1.363 . S
C603 C606 1.363 . S
N604 C606 1.356 . S
N604 H616 0.984 . S
N604 H617 0.985 . S
N605 C607 1.356 . S
N605 H610 0.984 . S
N605 H611 0.985 . S
C606 C600 1.379 . S
C606 C603 1.363 . S
C606 N604 1.356 . S
C607 C601 1.363 . S
C607 C602 1.379 . S
C607 N605 1.356 . S
N608 C600 1.356 . S
N608 H614 0.984 . S
N608 H615 0.984 . S
N609 C602 1.356 . S
N609 H612 0.984 . S
N609 H613 0.985 . S
H610 N605 0.984 . S
H611 N605 0.985 . S
H612 N609 0.984 . S
H613 N609 0.985 . S
H614 N608 0.984 . S
H615 N608 0.984 . S
H616 N604 0.984 . S
H617 N604 0.985 . S
C618 C619 1.363 . S
C618 C624 1.379 . S
C618 N626 1.356 . S
C619 C618 1.363 . S
C619 C625 1.363 . S
C620 C621 1.363 . S
C620 C625 1.379 . S
C620 N627 1.356 . S
C621 C620 1.363 . S
C621 C624 1.363 . S
N622 C624 1.356 . S
N622 H634 0.984 . S
N622 H635 0.985 . S
N623 C625 1.356 . S
N623 H628 0.984 . S
N623 H629 0.985 . S
C624 C618 1.379 . S
C624 C621 1.363 . S
C624 N622 1.356 . S
C625 C619 1.363 . S
C625 C620 1.379 . S
C625 N623 1.356 . S
N626 C618 1.356 . S
N626 H632 0.984 . S
N626 H633 0.984 . S
N627 C620 1.356 . S
N627 H630 0.984 . S
N627 H631 0.985 . S
H628 N623 0.984 . S
H629 N623 0.985 . S
H630 N627 0.984 . S
H631 N627 0.985 . S
H632 N626 0.984 . S
H633 N626 0.984 . S
H634 N622 0.984 . S
H635 N622 0.985 . S
C636 C637 1.363 . S
C636 C642 1.379 . S
C636 N644 1.356 . S
C637 C636 1.363 . S
C637 C643 1.363 . S
C638 C639 1.363 . S
C638 C643 1.379 . S
C638 N645 1.356 . S
C639 C638 1.363 . S
C639 C642 1.363 . S
N640 C642 1.356 . S
N640 H652 0.984 . S
N640 H653 0.985 . S
N641 C643 1.356 . S
N641 H646 0.984 1_455 S
N641 H647 0.985 . S
C642 C636 1.379 . S
C642 C639 1.363 . S
C642 N640 1.356 . S
C643 C637 1.363 . S
C643 C638 1.379 . S
C643 N641 1.356 . S
N644 C636 1.356 . S
N644 H650 0.984 . S
N644 H651 0.984 . S
N645 C638 1.356 . S
N645 H648 0.984 . S
N645 H649 0.985 . S
H646 N641 0.984 1_655 S
H647 N641 0.985 . S
H648 N645 0.984 . S
H649 N645 0.985 . S
H650 N644 0.984 . S
H651 N644 0.984 . S
H652 N640 0.984 . S
H653 N640 0.985 . S
C654 C655 1.363 1_565 S
C654 C660 1.379 . S
C654 N662 1.356 . S
C655 C654 1.363 1_545 S
C655 C661 1.363 . S
C656 C657 1.363 . S
C656 C661 1.379 . S
C656 N663 1.356 . S
C657 C656 1.363 . S
C657 C660 1.363 1_545 S
N658 C660 1.356 . S
N658 H670 0.984 . S
N658 H671 0.985 . S
N659 C661 1.356 . S
N659 H664 0.984 . S
N659 H665 0.985 . S
C660 C654 1.379 . S
C660 C657 1.363 1_565 S
C660 N658 1.356 . S
C661 C655 1.363 . S
C661 C656 1.379 . S
C661 N659 1.356 . S
N662 C654 1.356 . S
N662 H668 0.984 . S
N662 H669 0.984 . S
N663 C656 1.356 . S
N663 H666 0.984 . S
N663 H667 0.985 . S
H664 N659 0.984 . S
H665 N659 0.985 . S
H666 N663 0.984 . S
H667 N663 0.985 . S
H668 N662 0.984 . S
H669 N662 0.984 . S
H670 N658 0.984 . S
H671 N658 0.985 . S
C672 C673 1.363 . S
C672 C678 1.379 . S
C672 N680 1.356 . S
C673 C672 1.363 . S
C673 C679 1.363 . S
C674 C675 1.363 . S
C674 C679 1.379 . S
C674 N681 1.356 . S
C675 C674 1.363 . S
C675 C678 1.363 . S
N676 C678 1.356 . S
N676 H688 0.984 . S
N676 H689 0.985 . S
N677 C679 1.356 . S
N677 H682 0.984 . S
N677 H683 0.985 . S
C678 C672 1.379 . S
C678 C675 1.363 . S
C678 N676 1.356 . S
C679 C673 1.363 . S
C679 C674 1.379 . S
C679 N677 1.356 . S
N680 C672 1.356 . S
N680 H686 0.984 . S
N680 H687 0.984 . S
N681 C674 1.356 . S
N681 H684 0.984 . S
N681 H685 0.985 . S
H682 N677 0.984 . S
H683 N677 0.985 . S
H684 N681 0.984 . S
H685 N681 0.985 . S
H686 N680 0.984 . S
H687 N680 0.984 . S
H688 N676 0.984 . S
H689 N676 0.985 . S
C690 C691 1.363 . S
C690 C696 1.379 . S
C690 N698 1.356 . S
C691 C690 1.363 . S
C691 C697 1.363 1_545 S
C692 C693 1.363 1_565 S
C692 C697 1.379 . S
C692 N699 1.356 . S
C693 C692 1.363 1_545 S
C693 C696 1.363 . S
N694 C696 1.356 . S
N694 H706 0.984 . S
N694 H707 0.985 . S
N695 C697 1.356 . S
N695 H700 0.984 . S
N695 H701 0.985 . S
C696 C690 1.379 . S
C696 C693 1.363 . S
C696 N694 1.356 . S
C697 C691 1.363 1_565 S
C697 C692 1.379 . S
C697 N695 1.356 . S
N698 C690 1.356 . S
N698 H704 0.984 . S
N698 H705 0.984 . S
N699 C692 1.356 . S
N699 H702 0.984 . S
N699 H703 0.985 . S
H700 N695 0.984 . S
H701 N695 0.985 . S
H702 N699 0.984 . S
H703 N699 0.985 . S
H704 N698 0.984 . S
H705 N698 0.984 . S
H706 N694 0.984 . S
H707 N694 0.985 . S
C708 C709 1.363 . S
C708 C714 1.379 . S
C708 N716 1.356 . S
C709 C708 1.363 . S
C709 C715 1.363 . S
C710 C711 1.363 . S
C710 C715 1.379 . S
C710 N717 1.356 . S
C711 C710 1.363 . S
C711 C714 1.363 . S
N712 C714 1.356 . S
N712 H724 0.984 . S
N712 H725 0.985 . S
N713 C715 1.356 . S
N713 H718 0.984 . S
N713 H719 0.985 . S
C714 C708 1.379 . S
C714 C711 1.363 . S
C714 N712 1.356 . S
C715 C709 1.363 . S
C715 C710 1.379 . S
C715 N713 1.356 . S
N716 C708 1.356 . S
N716 H722 0.984 . S
N716 H723 0.984 . S
N717 C710 1.356 . S
N717 H720 0.984 . S
N717 H721 0.985 . S
H718 N713 0.984 . S
H719 N713 0.985 . S
H720 N717 0.984 . S
H721 N717 0.985 . S
H722 N716 0.984 . S
H723 N716 0.984 . S
H724 N712 0.984 . S
H725 N712 0.985 . S
C726 C727 1.363 . S
C726 C732 1.379 . S
C726 N734 1.356 . S
C727 C726 1.363 . S
C727 C733 1.363 1_655 S
C728 C729 1.362 1_455 S
C728 C733 1.379 . S
C728 N735 1.356 . S
C729 C728 1.362 1_655 S
C729 C732 1.364 . S
N730 C732 1.356 . S
N730 H742 0.984 . S
N730 H743 0.985 . S
N731 C733 1.356 . S
N731 H736 0.984 . S
N731 H737 0.985 . S
C732 C726 1.379 . S
C732 C729 1.364 . S
C732 N730 1.356 . S
C733 C727 1.363 1_455 S
C733 C728 1.379 . S
C733 N731 1.356 . S
N734 C726 1.356 . S
N734 H740 0.984 . S
N734 H741 0.984 . S
N735 C728 1.356 . S
N735 H738 0.984 . S
N735 H739 0.985 . S
H736 N731 0.984 . S
H737 N731 0.985 . S
H738 N735 0.984 . S
H739 N735 0.985 . S
H740 N734 0.984 . S
H741 N734 0.984 . S
H742 N730 0.984 . S
H743 N730 0.985 . S
C421 C2 1.454 . S
C423 C391 1.548 . S
C439 C22 1.431 . S
C441 C241 1.443 . S
C457 C44 1.494 . S
C459 C301 1.464 . S
C475 C4 1.632 . S
C477 C361 1.583 . S
C495 C271 1.754 . S
C493 C24 1.672 . S
C513 C331 1.687 . S
C511 C42 1.584 . S
C529 C32 1.424 . S
C531 C121 1.301 . S
C547 C49 1.379 . S
C549 C211 1.399 . S
C565 C9 1.365 . S
C567 C91 1.389 . S
C585 C151 1.376 . S
C583 C29 1.323 . S
C603 C181 1.318 . S
C601 C52 1.347 . S
C619 C12 1.340 . S
C621 C61 1.301 . S
C639 C200 1.420 . S
C637 C18 1.441 1_455 S
C655 C38 1.432 . S
C657 C80 1.421 . S
C673 C58 1.423 . S
C675 C140 1.411 . S
C693 C320 1.490 . S
C691 C39 1.496 . S
C711 C380 1.485 . S
C709 C59 1.476 . S
C727 C19 1.479 1_655 S
C729 C260 1.472 1_655 S
