# Generated by pormake.
# Topology pth, (4,4)-cn, num edge types: 1
# Building blocks:
#     Node 0, Type 0, BuildingBlock: QUQFOY_clean_sbu_3, # of connection points: 4
#     Node 1, Type 0, BuildingBlock: QUQFOY_clean_sbu_3, # of connection points: 4
#     Node 2, Type 0, BuildingBlock: QUQFOY_clean_sbu_3, # of connection points: 4
#     Node 3, Type 1, BuildingBlock: AZAVOO_clean_linker_0, # of connection points: 4
#     Node 4, Type 1, BuildingBlock: AZAVOO_clean_linker_0, # of connection points: 4
#     Node 5, Type 1, BuildingBlock: AZAVOO_clean_linker_0, # of connection points: 4
#     Edge 6, Type (0, 1), BuildingBlock: AJUNOK_clean_linker_0, # of connection points: 2
#     Edge 7, Type (0, 1), BuildingBlock: AJUNOK_clean_linker_0, # of connection points: 2
#     Edge 8, Type (0, 1), BuildingBlock: AJUNOK_clean_linker_0, # of connection points: 2
#     Edge 9, Type (0, 1), BuildingBlock: AJUNOK_clean_linker_0, # of connection points: 2
#     Edge 10, Type (0, 1), BuildingBlock: AJUNOK_clean_linker_0, # of connection points: 2
#     Edge 11, Type (0, 1), BuildingBlock: AJUNOK_clean_linker_0, # of connection points: 2
#     Edge 12, Type (0, 1), BuildingBlock: AJUNOK_clean_linker_0, # of connection points: 2
#     Edge 13, Type (0, 1), BuildingBlock: AJUNOK_clean_linker_0, # of connection points: 2
#     Edge 14, Type (0, 1), BuildingBlock: AJUNOK_clean_linker_0, # of connection points: 2
#     Edge 15, Type (0, 1), BuildingBlock: AJUNOK_clean_linker_0, # of connection points: 2
#     Edge 16, Type (0, 1), BuildingBlock: AJUNOK_clean_linker_0, # of connection points: 2
#     Edge 17, Type (0, 1), BuildingBlock: AJUNOK_clean_linker_0, # of connection points: 2
# Relax obj value: 0.124
# Max RMSD: 0.224
# Mean RMSD: 0.148
data_MOF--net-pth--node1-QUQFOY_clean_sbu_3--node2-AZAVOO_clean_linker_0--edge1-AJUNOK_clean_linker_0
_symmetry_space_group_name_H-M    P1
_symmetry_Int_Tables_number       1
_symmetry_cell_setting            triclinic
loop_
_symmetry_equiv_pos_as_xyz
'x, y, z'
_cell_length_a     20.629547
_cell_length_b     20.676085
_cell_length_c     56.662635
_cell_angle_alpha  92.828225
_cell_angle_beta   89.421541
_cell_angle_gamma 120.91323
loop_
_atom_site_label
_atom_site_type_symbol
_atom_site_fract_x
_atom_site_fract_y
_atom_site_fract_z
_atom_type_partial_charge
C0 C 0.00228 0.12689 0.12435 0.0
O1 O 0.95977 0.12136 0.10733 0.0
Cd2 Cd 0.9709 0.08399 0.0674 0.0
O3 O 0.05377 0.11095 0.12106 0.0
Cd4 Cd 0.10954 0.06301 0.09152 0.0
C5 C 0.16232 0.21426 0.05887 0.0
O6 O 0.99198 0.98325 0.07141 0.0
O7 O 0.08641 0.9814 0.05564 0.0
O8 O 0.10919 0.00167 0.12628 0.0
C9 C 0.01698 0.9602 0.05458 0.0
O10 O 0.09206 0.18643 0.05455 0.0
C11 C 0.17005 0.00236 0.12216 0.0
O12 O 0.18509 0.18345 0.07297 0.0
O13 O 0.205 0.0327 0.1035 0.0
C14 C 0.21351 0.14112 0.43233 0.0
O15 O 0.23854 0.1687 0.41244 0.0
Cd16 Cd 0.15187 0.16015 0.3825 0.0
O17 O 0.14329 0.10852 0.43653 0.0
Cd18 Cd 0.02086 0.07284 0.41916 0.0
C19 C 0.04312 0.96688 0.37638 0.0
O20 O 0.06706 0.1928 0.40171 0.0
O21 O 0.95341 0.1064 0.39133 0.0
O22 O -0.00127 0.09948 0.45947 0.0
C23 C 0.00637 0.17474 0.39075 0.0
O24 O 0.08909 0.02885 0.36715 0.0
C25 C 0.93339 0.04135 0.46072 0.0
O26 O 0.01328 0.96621 0.3962 0.0
O27 O 0.90802 -0.00268 0.44233 0.0
C28 C 0.95461 0.15163 0.7248 0.0
O29 O 0.96319 0.20487 0.73906 0.0
Cd30 Cd 0.03918 0.24286 0.7743 0.0
O31 O 0.99237 0.11917 0.72722 0.0
Cd32 Cd 0.09633 0.13363 0.75317 0.0
C33 C 0.97057 0.068 0.79725 0.0
O34 O 0.16063 0.27103 0.76082 0.0
O35 O 0.20122 0.21138 0.78043 0.0
O36 O 0.14924 0.11495 0.71673 0.0
C37 C 0.20844 0.27354 0.77526 0.0
O38 O 0.97425 0.13146 0.79793 0.0
C39 C 0.17024 0.073 0.72538 0.0
O40 O 0.00831 0.05309 0.78238 0.0
O41 O 0.15416 0.05662 0.74677 0.0
H42 H 0.07188 0.34487 0.10864 0.0
H43 H 0.16394 0.0316 0.28495 0.0
H44 H 0.91647 0.36638 0.23805 0.0
H45 H 0.88926 0.25145 0.21511 0.0
H46 H 0.12827 0.33192 0.21316 0.0
H47 H 0.15449 0.44495 0.23664 0.0
H48 H 0.97441 0.44779 0.19207 0.0
H49 H 0.9931 0.39556 0.15472 0.0
H50 H 0.23484 0.52642 0.16707 0.0
H51 H 0.21525 0.5782 0.20448 0.0
H52 H 0.03235 0.61149 0.18613 0.0
H53 H 0.07828 0.71271 0.15844 0.0
H54 H 0.27762 0.84875 0.20222 0.0
H55 H 0.23313 0.74596 0.22947 0.0
H56 H -0.00471 0.69019 0.22959 0.0
H57 H 0.00767 0.81406 0.236 0.0
H58 H 0.19158 0.88025 0.28571 0.0
H59 H 0.17965 0.75686 0.27875 0.0
H60 H 0.92232 0.59427 0.27484 0.0
H61 H 0.90531 0.67291 0.30499 0.0
H62 H 0.10623 0.71387 0.34171 0.0
H63 H 0.12374 0.63586 0.31122 0.0
H64 H 0.90975 0.42783 0.28922 0.0
H65 H 0.89327 0.34783 0.32236 0.0
H66 H 0.1304 0.4206 0.3199 0.0
H67 H 0.14637 0.50004 0.28729 0.0
O68 O 0.06604 0.36849 0.12302 0.0
O69 O 0.19013 0.44144 0.12912 0.0
O70 O 0.06508 0.94662 0.25562 0.0
O71 O 0.15895 0.98281 0.28165 0.0
C72 C 0.05463 0.49247 0.2433 0.0
C73 C 0.08117 0.54244 0.22462 0.0
C74 C 0.0959 0.61657 0.22854 0.0
C75 C 0.0771 0.63834 0.25034 0.0
C76 C 0.04846 0.58741 0.26877 0.0
C77 C 0.04114 0.516 0.26561 0.0
C78 C 0.03748 0.41415 0.23864 0.0
C79 C 0.96244 0.357 0.23383 0.0
C80 C 0.94707 0.29182 0.22055 0.0
C81 C 0.00668 0.28333 0.21208 0.0
C82 C 0.08104 0.3363 0.21965 0.0
C83 C 0.09626 0.40114 0.23304 0.0
C84 C 0.09347 0.51653 0.20097 0.0
C85 C 0.03137 0.46548 0.18659 0.0
C86 C 0.0422 0.43555 0.1653 0.0
C87 C 0.11542 0.45625 0.15801 0.0
C88 C 0.17768 0.50907 0.17221 0.0
C89 C 0.16674 0.53901 0.19351 0.0
C90 C 0.12934 0.67156 0.2098 0.0
C91 C 0.08732 0.66179 0.18926 0.0
C92 C 0.11356 0.71941 0.17349 0.0
C93 C 0.18141 0.78778 0.17831 0.0
C94 C 0.2255 0.79601 0.19816 0.0
C95 C 0.19995 0.73776 0.2137 0.0
C96 C 0.08626 0.71444 0.25381 0.0
C97 C 0.03852 0.73175 0.24173 0.0
C98 C 0.04558 0.80241 0.24548 0.0
C99 C 0.10042 0.85695 0.26146 0.0
C100 C 0.14867 0.83956 0.27333 0.0
C101 C 0.14181 0.76904 0.26946 0.0
C102 C 0.02447 0.60988 0.29083 0.0
C103 C 0.96066 0.61728 0.28997 0.0
C104 C 0.95123 0.66242 0.30708 0.0
C105 C 0.00477 0.69952 0.32545 0.0
C106 C 0.06391 0.68512 0.32777 0.0
C107 C 0.07381 0.64045 0.31046 0.0
C108 C 0.02933 0.46982 0.28607 0.0
C109 C 0.95801 0.42684 0.2961 0.0
C110 C 0.94871 0.38129 0.31487 0.0
C111 C 0.01088 0.37921 0.32387 0.0
C112 C 0.08199 0.4226 0.3137 0.0
C113 C 0.09109 0.46752 0.29501 0.0
C114 C 0.12643 0.42195 0.13584 0.0
C115 C 0.10694 0.93142 0.26597 0.0
H116 H 0.65036 0.00561 0.4336 0.0
H117 H 0.15653 0.13293 0.62977 0.0
H118 H 0.59166 0.91462 0.57037 0.0
H119 H 0.68689 0.90388 0.54722 0.0
H120 H 0.81669 0.14655 0.5435 0.0
H121 H 0.72348 0.15677 0.56766 0.0
H122 H 0.52149 0.93368 0.52782 0.0
H123 H 0.56536 0.94097 0.48721 0.0
H124 H 0.66816 0.18368 0.49282 0.0
H125 H 0.62309 0.17539 0.53334 0.0
H126 H 0.39933 0.96574 0.52557 0.0
H127 H 0.34567 -0.0029 0.49266 0.0
H128 H 0.4242 0.21776 0.526 0.0
H129 H 0.48048 0.18737 0.55848 0.0
H130 H 0.3088 0.94943 0.57561 0.0
H131 H 0.19679 0.95603 0.58611 0.0
H132 H 0.34025 0.17573 0.62092 0.0
H133 H 0.45162 0.16887 0.60997 0.0
H134 H 0.37612 0.9143 0.62032 0.0
H135 H 0.29536 0.90572 0.65352 0.0
H136 H 0.45775 0.13544 0.67635 0.0
H137 H 0.53631 0.14528 0.64257 0.0
H138 H 0.58987 0.93388 0.61607 0.0
H139 H 0.68773 0.95491 0.64484 0.0
H140 H 0.74389 0.18638 0.6569 0.0
H141 H 0.65184 0.16664 0.62661 0.0
O142 O 0.63266 0.00395 0.44957 0.0
O143 O 0.68538 0.12863 0.45347 0.0
O144 O 0.12869 0.01862 0.60551 0.0
O145 O 0.19985 0.12966 0.62483 0.0
C146 C 0.58344 0.04105 0.57664 0.0
C147 C 0.54315 0.0494 0.55819 0.0
C148 C 0.48078 0.05759 0.56339 0.0
C149 C 0.4557 0.05262 0.58681 0.0
C150 C 0.49499 0.04238 0.60522 0.0
C151 C 0.56109 0.04022 0.60028 0.0
C152 C 0.65084 0.03645 0.57057 0.0
C153 C 0.64267 0.96554 0.56558 0.0
C154 C 0.69635 0.95947 0.55201 0.0
C155 C 0.75779 0.0242 0.54292 0.0
C156 C 0.76985 0.09563 0.55021 0.0
C157 C 0.71683 0.10169 0.56407 0.0
C158 C 0.56928 0.05399 0.53346 0.0
C159 C 0.55351 0.98831 0.52022 0.0
C160 C 0.57872 0.99269 0.49705 0.0
C161 C 0.62072 0.06296 0.48681 0.0
C162 C 0.63614 0.12868 0.50018 0.0
C163 C 0.61044 0.12416 0.52329 0.0
C164 C 0.44381 0.07436 0.54434 0.0
C165 C 0.4054 0.021 0.52568 0.0
C166 C 0.37528 0.039 0.50693 0.0
C167 C 0.3821 0.11008 0.50683 0.0
C168 C 0.41903 0.16287 0.52574 0.0
C169 C 0.45042 0.14537 0.54429 0.0
C170 C 0.38814 0.05842 0.59217 0.0
C171 C 0.31583 -0.00086 0.58533 0.0
C172 C 0.25203 0.00301 0.59141 0.0
C173 C 0.25957 0.06633 0.60445 0.0
C174 C 0.33237 0.1261 0.61094 0.0
C175 C 0.39606 0.12227 0.60476 0.0
C176 C 0.46285 0.03002 0.62921 0.0
C177 C 0.39602 0.9616 0.63312 0.0
C178 C 0.34982 0.9568 0.65194 0.0
C179 C 0.371 0.01979 0.66738 0.0
C180 C 0.44127 0.08582 0.66483 0.0
C181 C 0.48668 0.0912 0.64569 0.0
C182 C 0.61269 0.04834 0.61965 0.0
C183 C 0.62315 0.98885 0.62509 0.0
C184 C 0.67861 0.00086 0.64169 0.0
C185 C 0.72326 0.07221 0.65341 0.0
C186 C 0.71113 0.13094 0.64811 0.0
C187 C 0.65741 0.11941 0.63115 0.0
C188 C 0.6483 0.06747 0.4623 0.0
C189 C 0.19196 0.06989 0.61153 0.0
H190 H 0.70021 0.75888 0.07767 0.0
H191 H 0.1446 0.20037 0.88037 0.0
H192 H 0.66183 0.82404 0.95721 0.0
H193 H 0.77191 0.89946 0.98295 0.0
H194 H 0.87991 0.7857 0.95079 0.0
H195 H 0.76678 0.70689 0.92601 0.0
H196 H 0.54616 0.71039 0.98663 0.0
H197 H 0.5967 0.73832 0.02719 0.0
H198 H 0.73089 0.63751 0.00927 0.0
H199 H 0.68072 0.61095 0.96873 0.0
H200 H 0.39423 0.58716 0.96426 0.0
H201 H 0.3145 0.50714 -0.00443 0.0
H202 H 0.43957 0.39155 0.99391 0.0
H203 H 0.52022 0.47328 0.96318 0.0
H204 H 0.36327 0.57085 0.90529 0.0
H205 H 0.24217 0.46291 0.89121 0.0
H206 H 0.32582 0.3136 0.90353 0.0
H207 H 0.44684 0.42217 0.91733 0.0
H208 H 0.47475 0.67024 0.87174 0.0
H209 H 0.40479 0.60467 0.83494 0.0
H210 H 0.47486 0.44163 0.84083 0.0
H211 H 0.54637 0.50885 0.87669 0.0
H212 H 0.649 0.82802 0.90616 0.0
H213 H 0.73878 0.9201 0.87943 0.0
H214 H 0.76397 0.74522 0.8434 0.0
H215 H 0.67849 0.6547 0.87148 0.0
O216 O 0.67952 0.7457 0.06172 0.0
O217 O 0.74763 0.6936 0.05152 0.0
O218 O 0.15034 0.32278 0.8809 0.0
O219 O 0.19155 0.24395 0.88617 0.0
C220 C 0.63077 0.69567 0.93256 0.0
C221 C 0.58344 0.64672 0.94982 0.0
C222 C 0.51186 0.58521 0.94326 0.0
C223 C 0.48853 0.57032 0.91937 0.0
C224 C 0.53739 0.61722 0.90192 0.0
C225 C 0.60782 0.68139 0.90855 0.0
C226 C 0.70601 0.75919 0.94019 0.0
C227 C 0.71043 0.81744 0.9551 0.0
C228 C 0.77342 0.86038 0.96983 0.0
C229 C 0.83335 0.84644 0.96947 0.0
C230 C 0.83319 0.7955 0.95204 0.0
C231 C 0.76938 0.75151 0.93758 0.0
C232 C 0.61006 0.65896 0.97481 0.0
C233 C 0.58612 0.69402 0.99158 0.0
C234 C 0.61529 0.71011 0.01469 0.0
C235 C 0.66846 0.69083 0.02141 0.0
C236 C 0.6907 0.65386 0.00462 0.0
C237 C 0.66191 0.6383 0.9815 0.0
C238 C 0.46237 0.53541 0.96152 0.0
C239 C 0.40427 0.54462 0.97077 0.0
C240 C 0.3592 0.49922 0.98862 0.0
C241 C 0.37166 0.44398 -0.00262 0.0
C242 C 0.43003 0.43501 0.98796 0.0
C243 C 0.47534 0.48076 0.97024 0.0
C244 C 0.41352 0.50416 0.9124 0.0
C245 C 0.35505 0.51469 0.90506 0.0
C246 C 0.28606 0.45298 0.897 0.0
C247 C 0.27434 0.37958 0.89621 0.0
C248 C 0.33293 0.36929 0.90389 0.0
C249 C 0.40193 0.4311 0.91192 0.0
C250 C 0.51523 0.59394 0.87681 0.0
C251 C 0.4774 0.62226 0.86444 0.0
C252 C 0.43663 0.5841 0.84368 0.0
C253 C 0.4328 0.51691 0.83533 0.0
C254 C 0.47675 0.49324 0.8467 0.0
C255 C 0.51778 0.5316 0.8672 0.0
C256 C 0.65717 0.73464 0.89079 0.0
C257 C 0.67418 0.80968 0.89255 0.0
C258 C 0.72515 0.86209 0.87717 0.0
C259 C 0.75932 0.84027 0.85945 0.0
C260 C 0.7403 0.76437 0.85725 0.0
C261 C 0.69035 0.71221 0.87299 0.0
C262 C 0.70098 0.70987 0.04576 0.0
C263 C 0.2016 0.31395 0.8873 0.0
C264 C 0.95497 0.19459 0.15021 0.0
C265 C -0.0052 0.15623 0.14797 0.0
C266 C 0.95469 0.231 0.17163 0.0
C267 C 0.99405 0.23037 0.19167 0.0
H268 H 0.92669 0.19975 0.13505 0.0
H269 H 0.92702 0.26358 0.17207 0.0
S270 S 0.09636 0.1276 0.19637 0.0
N271 N 0.06707 0.11216 0.16853 0.0
N272 N 0.06605 0.18088 0.20884 0.0
C273 C 0.02971 0.18803 0.19018 0.0
C274 C 0.0302 0.1509 0.16833 0.0
C275 C 0.92358 0.07234 0.50322 0.0
C276 C 0.88856 0.02815 0.48239 0.0
C277 C 0.88155 0.06734 0.52331 0.0
C278 C 0.80286 0.01805 0.52334 0.0
H279 H 0.98379 0.11274 0.50387 0.0
H280 H 0.91052 0.10418 0.53869 0.0
S281 S 0.68442 0.88701 0.47372 0.0
N282 N 0.77108 0.93039 0.46344 0.0
N283 N 0.69178 0.92192 0.50105 0.0
C284 C 0.76754 0.97104 0.50298 0.0
C285 C 0.81045 0.9759 0.48254 0.0
C286 C 0.85025 0.00521 0.81933 0.0
C287 C 0.91853 0.00965 0.81317 0.0
C288 C 0.79884 0.94963 0.83397 0.0
C289 C 0.81424 0.89704 0.84336 0.0
H290 H 0.83572 0.04421 0.81244 0.0
H291 H 0.7463 0.9476 0.83782 0.0
S292 S 0.98833 0.88876 0.83403 0.0
N293 N 0.00033 0.95866 0.81805 0.0
N294 N 0.90513 0.85592 0.84644 0.0
C295 C 0.88304 0.90168 0.83762 0.0
C296 C 0.93485 0.95759 0.82234 0.0
C297 C 0.20956 0.90863 0.12697 0.0
C298 C 0.19289 0.96156 0.13727 0.0
C299 C 0.21088 0.85459 0.14066 0.0
C300 C 0.19778 0.85373 0.16505 0.0
H301 H 0.21545 0.90503 0.108 0.0
H302 H 0.21823 0.81095 0.13198 0.0
S303 S 0.16077 0.98598 0.2007 0.0
N304 N 0.16917 0.01372 0.17341 0.0
N305 N 0.17409 0.91369 0.19924 0.0
C306 C 0.18712 0.91008 0.17578 0.0
C307 C 0.18412 0.9638 0.16183 0.0
C308 C 0.2468 0.14779 0.47471 0.0
C309 C 0.26441 0.14351 0.45084 0.0
C310 C 0.28772 0.14045 0.49282 0.0
C311 C 0.34662 0.12716 0.48762 0.0
H312 H 0.19989 0.15521 0.47941 0.0
H313 H 0.27114 0.14199 0.51095 0.0
S314 S 0.41792 0.11528 0.42829 0.0
N315 N 0.3475 0.12929 0.42307 0.0
N316 N 0.42356 0.1138 0.4573 0.0
C317 C 0.36658 0.12519 0.46396 0.0
C318 C 0.32576 0.13401 0.44549 0.0
C319 C 0.34221 0.36763 0.78546 0.0
C320 C 0.26551 0.34423 0.78746 0.0
C321 C 0.39705 0.42803 0.79973 0.0
C322 C 0.3767 0.4657 0.81692 0.0
H323 H 0.35963 0.33755 0.77328 0.0
H324 H 0.45547 0.44304 0.79807 0.0
S325 S 0.18195 0.42423 0.8289 0.0
N326 N 0.17133 0.3636 0.80701 0.0
N327 N 0.27359 0.47487 0.8348 0.0
C328 C 0.29996 0.44405 0.81846 0.0
C329 C 0.24445 0.38357 0.80352 0.0
C330 C 0.90958 0.1758 0.68776 0.0
C331 C 0.89874 0.1265 0.70549 0.0
C332 C 0.8537 0.15616 0.67045 0.0
C333 C 0.78402 0.08735 0.67066 0.0
H334 H 0.96133 0.23025 0.68741 0.0
H335 H 0.86481 0.19593 0.65701 0.0
S336 S 0.72866 0.93971 0.71414 0.0
N337 N 0.81534 0.00602 0.72236 0.0
N338 N 0.70803 0.97008 0.69057 0.0
C339 C 0.77327 0.03708 0.68827 0.0
C340 C 0.83113 0.05658 0.70557 0.0
C341 C 0.96094 0.97888 0.01907 0.0
C342 C 0.97538 0.93153 0.0321 0.0
C343 C 0.9188 0.95225 -0.00205 0.0
C344 C 0.88911 0.87713 0.98932 0.0
H345 H 0.98191 0.03672 0.02534 0.0
H346 H 0.90771 0.99017 0.98863 0.0
S347 S 0.91353 0.7318 0.01721 0.0
N348 N 0.96041 0.8081 0.03492 0.0
N349 N 0.87865 0.75624 -0.00442 0.0
C350 C 0.90535 0.82996 0.00202 0.0
C351 C 0.94909 0.85763 0.02338 0.0
C352 C 0.02625 0.89005 0.33924 0.0
C353 C 0.02665 0.89529 0.36407 0.0
C354 C 0.01594 0.82494 0.32701 0.0
C355 C 0.00722 0.76334 0.33915 0.0
H356 H 0.03459 0.93687 0.32916 0.0
H357 H 0.01723 0.8237 0.30788 0.0
S358 S 0.00389 0.74831 0.40403 0.0
N359 N 0.01597 0.83262 0.4004 0.0
N360 N -0.00129 0.71073 0.37718 0.0
C361 C 0.00682 0.76731 0.36391 0.0
C362 C 0.01579 0.83314 0.37644 0.0
C363 C 0.20531 0.03728 0.68684 0.0
C364 C 0.21586 0.04909 0.71148 0.0
C365 C 0.25348 0.02314 0.67288 0.0
C366 C 0.31479 0.02218 0.68304 0.0
H367 H 0.16047 0.04051 0.67822 0.0
H368 H 0.24479 0.01626 0.65389 0.0
S369 S 0.3662 0.04817 0.74661 0.0
N370 N 0.29046 0.05594 0.74556 0.0
N371 N 0.38275 0.03208 0.719 0.0
C372 C 0.32513 0.03217 0.70763 0.0
C373 C 0.27503 0.0448 0.72196 0.0
C374 C 0.19151 0.30092 0.02612 0.0
C375 C 0.2175 0.27926 0.04538 0.0
C376 C 0.24182 0.35593 0.0112 0.0
C377 C 0.32022 0.39193 0.01498 0.0
H378 H 0.13174 0.27334 0.02188 0.0
H379 H 0.21906 0.36822 -0.00395 0.0
S380 S 0.41781 0.36402 0.06458 0.0
N381 N 0.32721 0.30347 0.0686 0.0
N382 N 0.42185 0.4081 0.0406 0.0
C383 C 0.34722 0.37392 0.03479 0.0
C384 C 0.29589 0.31744 0.05 0.0
C385 C 0.94853 0.20209 0.35688 0.0
C386 C 0.00149 0.22861 0.37571 0.0
C387 C 0.94908 0.25178 0.34078 0.0
C388 C 0.00233 0.32955 0.34307 0.0
H389 H 0.90854 0.14224 0.35394 0.0
H390 H 0.91004 0.22875 0.32582 0.0
S391 S 0.14437 0.42888 0.39145 0.0
N392 N 0.10274 0.33876 0.39721 0.0
N393 N 0.10295 0.43189 0.36709 0.0
C394 C 0.05212 0.35726 0.36267 0.0
C395 C 0.05192 0.30685 0.37895 0.0
loop_
_geom_bond_atom_site_label_1
_geom_bond_atom_site_label_2
_geom_bond_distance
_geom_bond_site_symmetry_2
_ccdc_geom_bond_type
C0 O1 1.306 . S
C0 O3 1.160 . S
O1 C0 1.306 . S
O1 Cd2 2.228 . S
Cd2 O1 2.228 . S
Cd2 O6 2.273 1_455 S
Cd2 O10 2.277 . S
O3 C0 1.160 . S
O3 Cd4 2.203 . S
Cd4 O3 2.203 . S
Cd4 O6 2.411 1_455 S
Cd4 O7 2.333 1_545 S
Cd4 O8 2.352 1_545 S
Cd4 O12 2.277 . S
Cd4 O13 2.356 . S
C5 O10 1.209 . S
C5 O12 1.226 . S
O6 Cd2 2.273 1_655 S
O6 Cd4 2.411 1_655 S
O6 C9 1.320 1_545 S
O7 Cd4 2.333 1_565 S
O7 C9 1.214 1_455 S
O8 Cd4 2.352 1_565 S
O8 C11 1.258 . S
C9 O6 1.320 1_565 S
C9 O7 1.214 1_655 S
O10 Cd2 2.277 . S
O10 C5 1.209 . S
C11 O8 1.258 . S
C11 O13 1.282 1_565 S
O12 Cd4 2.277 . S
O12 C5 1.226 . S
O13 Cd4 2.356 . S
O13 C11 1.282 1_545 S
C14 O15 1.306 . S
C14 O17 1.160 . S
O15 C14 1.306 . S
O15 Cd16 2.228 . S
Cd16 O15 2.228 . S
Cd16 O20 2.273 . S
Cd16 O24 2.277 1_545 S
O17 C14 1.160 . S
O17 Cd18 2.203 . S
Cd18 O17 2.203 . S
Cd18 O20 2.411 . S
Cd18 O21 2.333 1_455 S
Cd18 O22 2.352 1_455 S
Cd18 O26 2.277 1_445 S
Cd18 O27 2.356 1_445 S
C19 O24 1.209 . S
C19 O26 1.226 1_455 S
O20 Cd16 2.273 . S
O20 Cd18 2.411 . S
O20 C23 1.320 . S
O21 Cd18 2.333 1_655 S
O21 C23 1.214 1_655 S
O22 Cd18 2.352 1_655 S
O22 C25 1.258 . S
C23 O20 1.320 . S
C23 O21 1.214 1_455 S
O24 Cd16 2.277 1_565 S
O24 C19 1.209 . S
C25 O22 1.258 . S
C25 O27 1.282 1_545 S
O26 Cd18 2.277 1_665 S
O26 C19 1.226 1_655 S
O27 Cd18 2.356 1_665 S
O27 C25 1.282 1_565 S
C28 O29 1.306 . S
C28 O31 1.160 . S
O29 C28 1.306 . S
O29 Cd30 2.228 . S
Cd30 O29 2.228 . S
Cd30 O34 2.273 . S
Cd30 O38 2.277 . S
O31 C28 1.160 . S
O31 Cd32 2.203 . S
Cd32 O31 2.203 . S
Cd32 O34 2.411 . S
Cd32 O35 2.333 . S
Cd32 O36 2.352 . S
Cd32 O40 2.277 . S
Cd32 O41 2.356 . S
C33 O38 1.209 . S
C33 O40 1.226 . S
O34 Cd30 2.273 . S
O34 Cd32 2.411 . S
O34 C37 1.320 . S
O35 Cd32 2.333 . S
O35 C37 1.214 . S
O36 Cd32 2.352 . S
O36 C39 1.258 . S
C37 O34 1.320 . S
C37 O35 1.214 . S
O38 Cd30 2.277 . S
O38 C33 1.209 . S
C39 O36 1.258 . S
C39 O41 1.282 . S
O40 Cd32 2.277 . S
O40 C33 1.226 . S
O41 Cd32 2.356 . S
O41 C39 1.282 . S
H42 O68 0.856 . S
H43 O71 0.859 . S
H44 C79 0.930 . S
H45 C80 0.930 . S
H46 C82 0.930 . S
H47 C83 0.930 . S
H48 C85 0.931 1_655 S
H49 C86 0.930 1_655 S
H50 C88 0.930 . S
H51 C89 0.929 . S
H52 C91 0.930 1_655 S
H53 C92 0.931 1_655 S
H54 C94 0.930 . S
H55 C95 0.929 . S
H56 C97 0.931 1_655 S
H57 C98 0.930 1_655 S
H58 C100 0.930 . S
H59 C101 0.932 . S
H60 C103 0.930 . S
H61 C104 0.929 . S
H62 C106 0.931 . S
H63 C107 0.930 . S
H64 C109 0.929 . S
H65 C110 0.931 1_655 S
H66 C112 0.930 . S
H67 C113 0.929 . S
O68 H42 0.856 . S
O68 C114 1.300 . S
O69 C114 1.209 . S
O70 C115 1.199 . S
O71 H43 0.859 . S
O71 C115 1.294 1_545 S
C72 C73 1.404 . S
C72 C77 1.397 . S
C72 C78 1.492 . S
C73 C72 1.404 . S
C73 C74 1.396 . S
C73 C84 1.492 . S
C74 C73 1.396 . S
C74 C75 1.397 . S
C74 C90 1.509 . S
C75 C74 1.397 . S
C75 C76 1.412 . S
C75 C96 1.485 . S
C76 C75 1.412 . S
C76 C77 1.388 . S
C76 C102 1.490 . S
C77 C72 1.397 . S
C77 C76 1.388 . S
C77 C108 1.519 . S
C78 C72 1.492 . S
C78 C79 1.363 1_455 S
C78 C83 1.390 . S
C79 H44 0.930 . S
C79 C78 1.363 1_655 S
C79 C80 1.372 . S
C80 H45 0.930 . S
C80 C79 1.372 . S
C80 C81 1.383 1_655 S
C81 C80 1.383 1_455 S
C81 C82 1.395 . S
C82 H46 0.930 . S
C82 C81 1.395 . S
C82 C83 1.362 . S
C83 H47 0.930 . S
C83 C78 1.390 . S
C83 C82 1.362 . S
C84 C73 1.492 . S
C84 C85 1.377 . S
C84 C89 1.397 . S
C85 H48 0.931 1_455 S
C85 C84 1.377 . S
C85 C86 1.376 . S
C86 H49 0.930 1_455 S
C86 C85 1.376 . S
C86 C87 1.376 . S
C87 C86 1.376 . S
C87 C88 1.378 . S
C87 C114 1.486 . S
C88 H50 0.930 . S
C88 C87 1.378 . S
C88 C89 1.376 . S
C89 H51 0.929 . S
C89 C84 1.397 . S
C89 C88 1.376 . S
C90 C74 1.509 . S
C90 C91 1.391 . S
C90 C95 1.386 . S
C91 H52 0.930 1_455 S
C91 C90 1.391 . S
C91 C92 1.375 . S
C92 H53 0.931 1_455 S
C92 C91 1.375 . S
C92 C93 1.375 . S
C93 C92 1.375 . S
C93 C94 1.361 . S
C94 H54 0.930 . S
C94 C93 1.361 . S
C94 C95 1.399 . S
C95 H55 0.929 . S
C95 C90 1.386 . S
C95 C94 1.399 . S
C96 C75 1.485 . S
C96 C97 1.394 . S
C96 C101 1.360 . S
C97 H56 0.931 1_455 S
C97 C96 1.394 . S
C97 C98 1.372 . S
C98 H57 0.930 1_455 S
C98 C97 1.372 . S
C98 C99 1.397 . S
C99 C98 1.397 . S
C99 C100 1.390 . S
C99 C115 1.476 . S
C100 H58 0.930 . S
C100 C99 1.390 . S
C100 C101 1.366 . S
C101 H59 0.932 . S
C101 C96 1.360 . S
C101 C100 1.366 . S
C102 C76 1.490 . S
C102 C103 1.380 1_455 S
C102 C107 1.386 . S
C103 H60 0.930 . S
C103 C102 1.380 1_655 S
C103 C104 1.381 . S
C104 H61 0.929 . S
C104 C103 1.381 . S
C104 C105 1.371 1_655 S
C105 C104 1.371 1_455 S
C105 C106 1.380 . S
C106 H62 0.931 . S
C106 C105 1.380 . S
C106 C107 1.387 . S
C107 H63 0.930 . S
C107 C102 1.386 . S
C107 C106 1.387 . S
C108 C77 1.519 . S
C108 C109 1.377 1_455 S
C108 C113 1.361 . S
C109 H64 0.929 . S
C109 C108 1.377 1_655 S
C109 C110 1.386 1_655 S
C110 H65 0.931 1_455 S
C110 C109 1.386 1_455 S
C110 C111 1.363 . S
C111 C110 1.363 . S
C111 C112 1.385 . S
C112 H66 0.930 . S
C112 C111 1.385 . S
C112 C113 1.396 . S
C113 H67 0.929 . S
C113 C108 1.361 . S
C113 C112 1.396 . S
C114 O68 1.300 . S
C114 O69 1.209 . S
C114 C87 1.486 . S
C115 O70 1.199 . S
C115 O71 1.294 1_565 S
C115 C99 1.476 . S
H116 O142 0.856 . S
H117 O145 0.854 . S
H118 C153 0.930 1_565 S
H119 C154 0.930 1_565 S
H120 C156 0.930 . S
H121 C157 0.930 . S
H122 C159 0.931 1_565 S
H123 C160 0.930 1_565 S
H124 C162 0.930 . S
H125 C163 0.929 . S
H126 C165 0.919 1_565 S
H127 C166 0.931 . S
H128 C168 0.930 . S
H129 C169 0.929 . S
H130 C171 0.931 . S
H131 C172 0.930 . S
H132 C174 0.930 . S
H133 C175 0.932 . S
H134 C177 0.930 1_565 S
H135 C178 0.929 1_565 S
H136 C180 0.931 . S
H137 C181 0.930 . S
H138 C183 0.929 . S
H139 C184 0.931 . S
H140 C186 0.930 . S
H141 C187 0.929 . S
O142 H116 0.856 . S
O142 C188 1.300 . S
O143 C188 1.209 . S
O144 C189 1.199 . S
O145 H117 0.854 . S
O145 C189 1.297 . S
C146 C147 1.404 . S
C146 C151 1.397 . S
C146 C152 1.492 . S
C147 C146 1.404 . S
C147 C148 1.396 . S
C147 C158 1.492 . S
C148 C147 1.396 . S
C148 C149 1.397 . S
C148 C164 1.509 . S
C149 C148 1.397 . S
C149 C150 1.412 . S
C149 C170 1.485 . S
C150 C149 1.412 . S
C150 C151 1.388 . S
C150 C176 1.490 . S
C151 C146 1.397 . S
C151 C150 1.388 . S
C151 C182 1.519 . S
C152 C146 1.492 . S
C152 C153 1.363 . S
C152 C157 1.390 . S
C153 H118 0.930 1_545 S
C153 C152 1.363 . S
C153 C154 1.372 . S
C154 H119 0.930 1_545 S
C154 C153 1.372 . S
C154 C155 1.383 . S
C155 C154 1.383 . S
C155 C156 1.395 . S
C156 H120 0.930 . S
C156 C155 1.395 . S
C156 C157 1.362 . S
C157 H121 0.930 . S
C157 C152 1.390 . S
C157 C156 1.362 . S
C158 C147 1.492 . S
C158 C159 1.377 . S
C158 C163 1.397 . S
C159 H122 0.931 1_545 S
C159 C158 1.377 . S
C159 C160 1.376 . S
C160 H123 0.930 1_545 S
C160 C159 1.376 . S
C160 C161 1.376 . S
C161 C160 1.376 . S
C161 C162 1.378 . S
C161 C188 1.486 . S
C162 H124 0.930 . S
C162 C161 1.378 . S
C162 C163 1.376 . S
C163 H125 0.929 . S
C163 C158 1.397 . S
C163 C162 1.376 . S
C164 C148 1.509 . S
C164 C165 1.391 . S
C164 C169 1.386 . S
C165 H126 0.919 1_545 S
C165 C164 1.391 . S
C165 C166 1.375 . S
C166 H127 0.931 . S
C166 C165 1.375 . S
C166 C167 1.375 . S
C167 C166 1.375 . S
C167 C168 1.361 . S
C168 H128 0.930 . S
C168 C167 1.361 . S
C168 C169 1.399 . S
C169 H129 0.929 . S
C169 C164 1.386 . S
C169 C168 1.399 . S
C170 C149 1.485 . S
C170 C171 1.394 . S
C170 C175 1.360 . S
C171 H130 0.931 . S
C171 C170 1.394 . S
C171 C172 1.372 . S
C172 H131 0.930 . S
C172 C171 1.372 . S
C172 C173 1.397 . S
C173 C172 1.397 . S
C173 C174 1.390 . S
C173 C189 1.476 . S
C174 H132 0.930 . S
C174 C173 1.390 . S
C174 C175 1.366 . S
C175 H133 0.932 . S
C175 C170 1.360 . S
C175 C174 1.366 . S
C176 C150 1.490 . S
C176 C177 1.380 . S
C176 C181 1.386 . S
C177 H134 0.930 1_545 S
C177 C176 1.380 . S
C177 C178 1.381 . S
C178 H135 0.929 1_545 S
C178 C177 1.381 . S
C178 C179 1.371 . S
C179 C178 1.371 . S
C179 C180 1.380 . S
C180 H136 0.931 . S
C180 C179 1.380 . S
C180 C181 1.387 . S
C181 H137 0.930 . S
C181 C176 1.386 . S
C181 C180 1.387 . S
C182 C151 1.519 . S
C182 C183 1.377 . S
C182 C187 1.361 . S
C183 H138 0.929 . S
C183 C182 1.377 . S
C183 C184 1.386 . S
C184 H139 0.931 . S
C184 C183 1.386 . S
C184 C185 1.363 . S
C185 C184 1.363 . S
C185 C186 1.385 . S
C186 H140 0.930 . S
C186 C185 1.385 . S
C186 C187 1.396 . S
C187 H141 0.929 . S
C187 C182 1.361 . S
C187 C186 1.396 . S
C188 O142 1.300 . S
C188 O143 1.209 . S
C188 C161 1.486 . S
C189 O144 1.199 . S
C189 O145 1.297 . S
C189 C173 1.476 . S
H190 O216 0.856 . S
H191 O219 0.854 . S
H192 C227 0.930 . S
H193 C228 0.930 . S
H194 C230 0.930 . S
H195 C231 0.930 . S
H196 C233 0.931 . S
H197 C234 0.930 . S
H198 C236 0.930 . S
H199 C237 0.929 . S
H200 C239 0.930 . S
H201 C240 0.931 1_554 S
H202 C242 0.930 . S
H203 C243 0.929 . S
H204 C245 0.931 . S
H205 C246 0.930 . S
H206 C248 0.930 . S
H207 C249 0.932 . S
H208 C251 0.930 . S
H209 C252 0.929 . S
H210 C254 0.931 . S
H211 C255 0.930 . S
H212 C257 0.929 . S
H213 C258 0.931 . S
H214 C260 0.930 . S
H215 C261 0.929 . S
O216 H190 0.856 . S
O216 C262 1.300 . S
O217 C262 1.209 . S
O218 C263 1.199 . S
O219 H191 0.854 . S
O219 C263 1.297 . S
C220 C221 1.404 . S
C220 C225 1.397 . S
C220 C226 1.492 . S
C221 C220 1.404 . S
C221 C222 1.396 . S
C221 C232 1.492 . S
C222 C221 1.396 . S
C222 C223 1.397 . S
C222 C238 1.509 . S
C223 C222 1.397 . S
C223 C224 1.412 . S
C223 C244 1.485 . S
C224 C223 1.412 . S
C224 C225 1.388 . S
C224 C250 1.490 . S
C225 C220 1.397 . S
C225 C224 1.388 . S
C225 C256 1.519 . S
C226 C220 1.492 . S
C226 C227 1.363 . S
C226 C231 1.390 . S
C227 H192 0.930 . S
C227 C226 1.363 . S
C227 C228 1.372 . S
C228 H193 0.930 . S
C228 C227 1.372 . S
C228 C229 1.383 . S
C229 C228 1.383 . S
C229 C230 1.395 . S
C230 H194 0.930 . S
C230 C229 1.395 . S
C230 C231 1.362 . S
C231 H195 0.930 . S
C231 C226 1.390 . S
C231 C230 1.362 . S
C232 C221 1.492 . S
C232 C233 1.377 1_556 S
C232 C237 1.397 . S
C233 H196 0.931 . S
C233 C232 1.377 1_554 S
C233 C234 1.376 . S
C234 H197 0.930 . S
C234 C233 1.376 . S
C234 C235 1.376 . S
C235 C234 1.376 . S
C235 C236 1.378 . S
C235 C262 1.486 . S
C236 H198 0.930 . S
C236 C235 1.378 . S
C236 C237 1.376 1_554 S
C237 H199 0.929 . S
C237 C232 1.397 . S
C237 C236 1.376 1_556 S
C238 C222 1.509 . S
C238 C239 1.391 . S
C238 C243 1.386 . S
C239 H200 0.930 . S
C239 C238 1.391 . S
C239 C240 1.375 . S
C240 H201 0.931 1_556 S
C240 C239 1.375 . S
C240 C241 1.375 1_556 S
C241 C240 1.375 1_554 S
C241 C242 1.361 . S
C242 H202 0.930 . S
C242 C241 1.361 . S
C242 C243 1.399 1_554 S
C243 H203 0.929 . S
C243 C238 1.386 . S
C243 C242 1.399 1_556 S
C244 C223 1.485 . S
C244 C245 1.394 . S
C244 C249 1.360 . S
C245 H204 0.931 . S
C245 C244 1.394 . S
C245 C246 1.372 . S
C246 H205 0.930 . S
C246 C245 1.372 . S
C246 C247 1.397 . S
C247 C246 1.397 . S
C247 C248 1.390 . S
C247 C263 1.476 . S
C248 H206 0.930 . S
C248 C247 1.390 . S
C248 C249 1.366 . S
C249 H207 0.932 . S
C249 C244 1.360 . S
C249 C248 1.366 . S
C250 C224 1.490 . S
C250 C251 1.380 . S
C250 C255 1.386 . S
C251 H208 0.930 . S
C251 C250 1.380 . S
C251 C252 1.381 . S
C252 H209 0.929 . S
C252 C251 1.381 . S
C252 C253 1.371 . S
C253 C252 1.371 . S
C253 C254 1.380 . S
C254 H210 0.931 . S
C254 C253 1.380 . S
C254 C255 1.387 . S
C255 H211 0.930 . S
C255 C250 1.386 . S
C255 C254 1.387 . S
C256 C225 1.519 . S
C256 C257 1.377 . S
C256 C261 1.361 . S
C257 H212 0.929 . S
C257 C256 1.377 . S
C257 C258 1.386 . S
C258 H213 0.931 . S
C258 C257 1.386 . S
C258 C259 1.363 . S
C259 C258 1.363 . S
C259 C260 1.385 . S
C260 H214 0.930 . S
C260 C259 1.385 . S
C260 C261 1.396 . S
C261 H215 0.929 . S
C261 C256 1.361 . S
C261 C260 1.396 . S
C262 O216 1.300 . S
C262 O217 1.209 . S
C262 C235 1.486 . S
C263 O218 1.199 . S
C263 O219 1.297 . S
C263 C247 1.476 . S
C264 C265 1.369 . S
C264 C266 1.419 1_455 S
C264 H268 0.930 1_455 S
C265 C264 1.369 . S
C265 C274 1.429 . S
C266 C264 1.419 1_655 S
C266 C267 1.363 1_655 S
C266 H269 0.929 . S
C267 C266 1.363 1_455 S
C267 C273 1.428 . S
H268 C264 0.930 1_655 S
H269 C266 0.929 . S
S270 N271 1.613 . S
S270 N272 1.610 . S
N271 S270 1.613 . S
N271 C274 1.350 . S
N272 S270 1.610 . S
N272 C273 1.351 . S
C273 C267 1.428 . S
C273 N272 1.351 . S
C273 C274 1.434 . S
C274 C265 1.429 . S
C274 N271 1.350 . S
C274 C273 1.434 . S
C275 C276 1.369 . S
C275 C277 1.419 . S
C275 H279 0.930 . S
C276 C275 1.369 . S
C276 C285 1.429 1_545 S
C277 C275 1.419 . S
C277 C278 1.363 . S
C277 H280 0.929 . S
C278 C277 1.363 . S
C278 C284 1.428 1_545 S
H279 C275 0.930 . S
H280 C277 0.929 . S
S281 N282 1.613 . S
S281 N283 1.610 . S
N282 S281 1.613 . S
N282 C285 1.350 . S
N283 S281 1.610 . S
N283 C284 1.351 . S
C284 C278 1.428 1_565 S
C284 N283 1.351 . S
C284 C285 1.434 . S
C285 C276 1.429 1_565 S
C285 N282 1.350 . S
C285 C284 1.434 . S
C286 C287 1.369 . S
C286 C288 1.419 . S
C286 H290 0.930 1_565 S
C287 C286 1.369 . S
C287 C296 1.429 . S
C288 C286 1.419 . S
C288 C289 1.363 . S
C288 H291 0.929 . S
C289 C288 1.363 . S
C289 C295 1.428 . S
H290 C286 0.930 1_545 S
H291 C288 0.929 . S
S292 N293 1.613 . S
S292 N294 1.610 . S
N293 S292 1.613 . S
N293 C296 1.350 . S
N294 S292 1.610 . S
N294 C295 1.351 . S
C295 C289 1.428 . S
C295 N294 1.351 . S
C295 C296 1.434 . S
C296 C287 1.429 . S
C296 N293 1.350 . S
C296 C295 1.434 . S
C297 C298 1.369 . S
C297 C299 1.419 . S
C297 H301 0.930 . S
C298 C297 1.369 . S
C298 C307 1.429 . S
C299 C297 1.419 . S
C299 C300 1.363 . S
C299 H302 0.929 . S
C300 C299 1.363 . S
C300 C306 1.428 . S
H301 C297 0.930 . S
H302 C299 0.929 . S
S303 N304 1.613 . S
S303 N305 1.610 1_545 S
N304 S303 1.613 . S
N304 C307 1.350 1_545 S
N305 S303 1.610 1_565 S
N305 C306 1.351 . S
C306 C300 1.428 . S
C306 N305 1.351 . S
C306 C307 1.434 . S
C307 C298 1.429 . S
C307 N304 1.350 1_565 S
C307 C306 1.434 . S
C308 C309 1.369 . S
C308 C310 1.419 . S
C308 H312 0.930 . S
C309 C308 1.369 . S
C309 C318 1.429 . S
C310 C308 1.419 . S
C310 C311 1.363 . S
C310 H313 0.929 . S
C311 C310 1.363 . S
C311 C317 1.428 . S
H312 C308 0.930 . S
H313 C310 0.929 . S
S314 N315 1.613 . S
S314 N316 1.610 . S
N315 S314 1.613 . S
N315 C318 1.350 1_565 S
N316 S314 1.610 . S
N316 C317 1.351 1_565 S
C317 C311 1.428 . S
C317 N316 1.351 1_545 S
C317 C318 1.434 . S
C318 C309 1.429 . S
C318 N315 1.350 1_545 S
C318 C317 1.434 . S
C319 C320 1.369 . S
C319 C321 1.419 . S
C319 H323 0.930 . S
C320 C319 1.369 . S
C320 C329 1.429 . S
C321 C319 1.419 . S
C321 C322 1.363 . S
C321 H324 0.929 . S
C322 C321 1.363 . S
C322 C328 1.428 . S
H323 C319 0.930 . S
H324 C321 0.929 . S
S325 N326 1.613 . S
S325 N327 1.610 . S
N326 S325 1.613 . S
N326 C329 1.350 . S
N327 S325 1.610 . S
N327 C328 1.351 . S
C328 C322 1.428 . S
C328 N327 1.351 . S
C328 C329 1.434 . S
C329 C320 1.429 . S
C329 N326 1.350 . S
C329 C328 1.434 . S
C330 C331 1.369 . S
C330 C332 1.419 . S
C330 H334 0.930 1_655 S
C331 C330 1.369 . S
C331 C340 1.429 . S
C332 C330 1.419 . S
C332 C333 1.363 . S
C332 H335 0.929 . S
C333 C332 1.363 . S
C333 C339 1.428 . S
H334 C330 0.930 1_455 S
H335 C332 0.929 . S
S336 N337 1.613 1_565 S
S336 N338 1.610 1_565 S
N337 S336 1.613 1_545 S
N337 C340 1.350 . S
N338 S336 1.610 1_545 S
N338 C339 1.351 . S
C339 C333 1.428 . S
C339 N338 1.351 . S
C339 C340 1.434 . S
C340 C331 1.429 . S
C340 N337 1.350 . S
C340 C339 1.434 . S
C341 C342 1.369 . S
C341 C343 1.419 . S
C341 H345 0.930 1_565 S
C342 C341 1.369 . S
C342 C351 1.429 . S
C343 C341 1.419 . S
C343 C344 1.363 1_554 S
C343 H346 0.929 . S
C344 C343 1.363 1_556 S
C344 C350 1.428 . S
H345 C341 0.930 1_545 S
H346 C343 0.929 . S
S347 N348 1.613 1_556 S
S347 N349 1.610 . S
N348 S347 1.613 1_554 S
N348 C351 1.350 . S
N349 S347 1.610 . S
N349 C350 1.351 . S
C350 C344 1.428 . S
C350 N349 1.351 . S
C350 C351 1.434 1_556 S
C351 C342 1.429 . S
C351 N348 1.350 . S
C351 C350 1.434 1_554 S
C352 C353 1.369 1_655 S
C352 C354 1.419 . S
C352 H356 0.930 . S
C353 C352 1.369 1_455 S
C353 C362 1.429 . S
C354 C352 1.419 . S
C354 C355 1.363 1_655 S
C354 H357 0.929 . S
C355 C354 1.363 1_455 S
C355 C361 1.428 . S
H356 C352 0.930 . S
H357 C354 0.929 . S
S358 N359 1.613 . S
S358 N360 1.610 . S
N359 S358 1.613 . S
N359 C362 1.350 . S
N360 S358 1.610 . S
N360 C361 1.351 . S
C361 C355 1.428 . S
C361 N360 1.351 . S
C361 C362 1.434 . S
C362 C353 1.429 . S
C362 N359 1.350 . S
C362 C361 1.434 . S
C363 C364 1.369 . S
C363 C365 1.419 . S
C363 H367 0.930 . S
C364 C363 1.369 . S
C364 C373 1.429 . S
C365 C363 1.419 . S
C365 C366 1.363 . S
C365 H368 0.929 . S
C366 C365 1.363 . S
C366 C372 1.428 . S
H367 C363 0.930 . S
H368 C365 0.929 . S
S369 N370 1.613 . S
S369 N371 1.610 . S
N370 S369 1.613 . S
N370 C373 1.350 . S
N371 S369 1.610 . S
N371 C372 1.351 . S
C372 C366 1.428 . S
C372 N371 1.351 . S
C372 C373 1.434 . S
C373 C364 1.429 . S
C373 N370 1.350 . S
C373 C372 1.434 . S
C374 C375 1.369 . S
C374 C376 1.419 . S
C374 H378 0.930 . S
C375 C374 1.369 . S
C375 C384 1.429 . S
C376 C374 1.419 . S
C376 C377 1.363 . S
C376 H379 0.929 . S
C377 C376 1.363 . S
C377 C383 1.428 . S
H378 C374 0.930 . S
H379 C376 0.929 . S
S380 N381 1.613 . S
S380 N382 1.610 . S
N381 S380 1.613 . S
N381 C384 1.350 . S
N382 S380 1.610 . S
N382 C383 1.351 . S
C383 C377 1.428 . S
C383 N382 1.351 . S
C383 C384 1.434 . S
C384 C375 1.429 . S
C384 N381 1.350 . S
C384 C383 1.434 . S
C385 C386 1.369 . S
C385 C387 1.419 . S
C385 H389 0.930 . S
C386 C385 1.369 . S
C386 C395 1.429 . S
C387 C385 1.419 . S
C387 C388 1.363 . S
C387 H390 0.929 . S
C388 C387 1.363 . S
C388 C394 1.428 . S
H389 C385 0.930 . S
H390 C387 0.929 . S
S391 N392 1.613 . S
S391 N393 1.610 . S
N392 S391 1.613 . S
N392 C395 1.350 . S
N393 S391 1.610 . S
N393 C394 1.351 . S
C394 C388 1.428 . S
C394 N393 1.351 . S
C394 C395 1.434 . S
C395 C386 1.429 . S
C395 N392 1.350 . S
C395 C394 1.434 . S
C267 C81 1.494 . S
C265 C0 1.655 . S
C276 C25 1.604 . S
C278 C155 1.456 . S
C287 C33 2.054 1_665 S
C289 C259 2.055 . S
C298 C11 0.926 . S
C300 C93 0.923 . S
C311 C167 0.947 . S
C309 C14 0.959 . S
C320 C37 1.773 . S
C322 C253 1.574 . S
C333 C185 2.047 . S
C331 C28 2.055 1_655 S
C342 C9 1.700 . S
C344 C229 1.529 . S
C355 C105 1.603 . S
C353 C19 1.792 . S
C366 C179 1.508 . S
C364 C39 1.659 . S
C377 C241 0.948 . S
C375 C5 0.948 . S
C386 C23 2.143 . S
C388 C111 2.140 . S
