# Generated by pormake.
# Topology rtl, (3,6)-cn, num edge types: 1
# Building blocks:
#     Node 0, Type 0, BuildingBlock: BETDAH_clean_linker_0, # of connection points: 3
#     Node 1, Type 0, BuildingBlock: BETDAH_clean_linker_0, # of connection points: 3
#     Node 2, Type 0, BuildingBlock: BETDAH_clean_linker_0, # of connection points: 3
#     Node 3, Type 0, BuildingBlock: BETDAH_clean_linker_0, # of connection points: 3
#     Node 4, Type 1, BuildingBlock: KUMJIN_clean_sbu_1, # of connection points: 6
#     Node 5, Type 1, BuildingBlock: KUMJIN_clean_sbu_1, # of connection points: 6
#     Edge 6, Type (0, 1), BuildingBlock: OJICUG_clean_linker_0, # of connection points: 2
#     Edge 7, Type (0, 1), BuildingBlock: OJICUG_clean_linker_0, # of connection points: 2
#     Edge 8, Type (0, 1), BuildingBlock: OJICUG_clean_linker_0, # of connection points: 2
#     Edge 9, Type (0, 1), BuildingBlock: OJICUG_clean_linker_0, # of connection points: 2
#     Edge 10, Type (0, 1), BuildingBlock: OJICUG_clean_linker_0, # of connection points: 2
#     Edge 11, Type (0, 1), BuildingBlock: OJICUG_clean_linker_0, # of connection points: 2
#     Edge 12, Type (0, 1), BuildingBlock: OJICUG_clean_linker_0, # of connection points: 2
#     Edge 13, Type (0, 1), BuildingBlock: OJICUG_clean_linker_0, # of connection points: 2
#     Edge 14, Type (0, 1), BuildingBlock: OJICUG_clean_linker_0, # of connection points: 2
#     Edge 15, Type (0, 1), BuildingBlock: OJICUG_clean_linker_0, # of connection points: 2
#     Edge 16, Type (0, 1), BuildingBlock: OJICUG_clean_linker_0, # of connection points: 2
#     Edge 17, Type (0, 1), BuildingBlock: OJICUG_clean_linker_0, # of connection points: 2
# Relax obj value: 0.051
# Max RMSD: 0.240
# Mean RMSD: 0.169
data_MOF--net-rtl--node1-KUMJIN_clean_sbu_1--node2-BETDAH_clean_linker_0--edge1-OJICUG_clean_linker_0
_symmetry_space_group_name_H-M    P1
_symmetry_Int_Tables_number       1
_symmetry_cell_setting            triclinic
loop_
_symmetry_equiv_pos_as_xyz
'x, y, z'
_cell_length_a     26.149048
_cell_length_b     26.398468
_cell_length_c     20.620397
_cell_angle_alpha  74.605194
_cell_angle_beta   101.22176
_cell_angle_gamma 91.586264
loop_
_atom_site_label
_atom_site_type_symbol
_atom_site_fract_x
_atom_site_fract_y
_atom_site_fract_z
_atom_type_partial_charge
H0 H 0.12158 0.90733 0.97985 0.0
H1 H 0.19359 0.78028 0.1491 0.0
H2 H 0.21895 0.79233 0.94597 0.0
C3 C 0.14638 0.8723 1.00058 0.0
C4 C 0.16815 0.8522 0.95527 0.0
C5 C 0.15473 0.84697 0.07089 0.0
C6 C 0.18761 0.80194 0.09556 0.0
C7 C 0.21244 0.78318 0.05175 0.0
C8 C 0.2025 0.80827 0.98093 0.0
N9 N 0.24367 0.73658 0.08089 0.0
C10 C 0.28385 0.72069 0.05486 0.0
H11 H 0.65149 0.60919 0.69981 0.0
H12 H 0.73629 0.73947 0.60061 0.0
H13 H 0.6939 0.73556 0.79343 0.0
C14 C 0.67132 0.64577 0.70023 0.0
C15 C 0.67058 0.66854 0.75424 0.0
C16 C 0.6946 0.67096 0.64457 0.0
C17 C 0.71879 0.71947 0.64371 0.0
C18 C 0.71887 0.74254 0.69807 0.0
C19 C 0.69409 0.71727 0.75221 0.0
N20 N 0.7405 0.79244 0.69872 0.0
C21 C 0.78216 0.81438 0.66876 0.0
H22 H 0.93569 0.1583 0.14012 0.0
H23 H 0.79876 0.18232 0.21645 0.0
H24 H 0.7936 0.22212 0.99958 0.0
C25 C 0.89572 0.17259 0.13055 0.0
C26 C 0.8682 0.19163 0.06262 0.0
C27 C 0.87073 0.16877 0.1862 0.0
C28 C 0.81859 0.18615 0.17391 0.0
C29 C 0.79117 0.20624 0.10666 0.0
C30 C 0.81569 0.20801 0.05141 0.0
N31 N 0.73705 0.21802 0.09397 0.0
C32 C 0.71704 0.26374 0.10209 0.0
H33 H 0.41241 0.41462 0.45918 0.0
H34 H 0.29902 0.30148 0.52868 0.0
H35 H 0.34439 0.31304 0.33584 0.0
C36 C 0.38727 0.38223 0.45278 0.0
C37 C 0.38302 0.36547 0.39287 0.0
C38 C 0.35665 0.35983 0.50199 0.0
C39 C 0.32266 0.31905 0.49124 0.0
C40 C 0.31849 0.30182 0.4315 0.0
C41 C 0.3485 0.32547 0.38264 0.0
N42 N 0.28355 0.26222 0.41702 0.0
C43 C 0.25213 0.23251 0.45974 0.0
Eu44 Eu 0.05238 0.96729 0.53437 0.0
C45 C 0.90539 0.14911 0.5069 0.0
N46 N 0.95628 0.14723 0.53796 0.0
C47 C 0.96711 0.235 0.47195 0.0
C48 C 0.88373 0.19353 0.45462 0.0
C49 C 0.98684 0.18988 0.52327 0.0
C50 C 0.91553 0.23654 0.43669 0.0
C51 C 0.82097 0.10879 0.50094 0.0
C52 C 0.8747 0.10711 0.52942 0.0
C53 C 0.79963 0.15166 0.44627 0.0
C54 C 0.83098 0.19396 0.42312 0.0
Eu55 Eu 0.98865 0.06784 0.61866 0.0
N56 N 0.89654 0.06659 0.58277 0.0
C57 C 0.78994 0.06845 0.53021 0.0
C58 C 0.86545 0.03039 0.61582 0.0
C59 C 0.81209 0.02977 0.58898 0.0
H60 H 0.02678 0.18843 0.55011 0.0
H61 H 0.788 0.99989 0.61419 0.0
H62 H 0.96414 0.87186 0.52083 0.0
H63 H 0.25908 0.93546 0.64961 0.0
H64 H 0.88152 1.00202 0.66332 0.0
H65 H 0.74849 0.06824 0.5099 0.0
H66 H 0.18128 0.98247 0.56942 0.0
H67 H 0.99173 0.26839 0.45935 0.0
H68 H 0.75859 0.15327 0.42308 0.0
H69 H 0.81374 0.22741 0.38217 0.0
H70 H 0.94834 0.78205 0.58676 0.0
H71 H 0.90037 0.27144 0.39678 0.0
H72 H 0.24953 0.84889 0.7296 0.0
N73 N 0.03607 0.87834 0.58688 0.0
C74 C 0.0752 0.85164 0.63667 0.0
C75 C 0.98385 0.80147 0.60218 0.0
C76 C 0.0688 0.79961 0.67432 0.0
C77 C 0.99254 0.8527 0.56567 0.0
C78 C 0.02162 0.77525 0.65796 0.0
N79 N 0.12901 0.9234 0.60515 0.0
C80 C 0.17722 0.94448 0.60393 0.0
C81 C 0.16641 0.84645 0.69204 0.0
C82 C 0.12342 0.87458 0.64534 0.0
C83 C 0.21553 0.86923 0.69441 0.0
C84 C 0.2211 0.91806 0.64926 0.0
H85 H 0.0151 0.73533 0.68566 0.0
H86 H 0.10604 0.73304 0.75467 0.0
H87 H 0.19156 0.77423 0.77039 0.0
O88 O 0.07027 1.0003 0.43224 0.0
O89 O 0.09316 0.9852 0.63346 0.0
O90 O 0.02504 0.99004 0.68504 0.0
O91 O 0.07333 0.91655 0.47529 0.0
O92 O 0.09319 0.04533 0.52551 0.0
O93 O 0.06956 0.09353 0.59649 0.0
O94 O 0.94989 0.09267 0.69064 0.0
O95 O 0.9934 0.08925 0.50526 0.0
O96 O 0.97612 0.01073 0.48072 0.0
O97 O 0.03282 0.10199 0.69765 0.0
O98 O 0.96578 0.98142 0.64297 0.0
O99 O 0.96676 0.95775 0.5437 0.0
C100 C 0.07272 0.97434 0.68839 0.0
C101 C 0.04609 0.94661 0.35684 0.0
C102 C 0.04549 0.91879 0.2527 0.0
C103 C 0.99046 0.91947 0.24106 0.0
C104 C 0.99146 0.94742 0.34398 0.0
C105 C 0.96385 0.93433 0.28593 0.0
C106 C 0.07285 0.93338 0.31076 0.0
C107 C 0.09909 0.0848 0.55466 0.0
C108 C 0.07557 0.95462 0.42128 0.0
C109 C 0.11049 0.77272 0.72445 0.0
C110 C 0.15925 0.7961 0.73326 0.0
C111 C 0.97298 0.06216 0.46212 0.0
C112 C 0.98824 0.15694 0.74509 0.0
C113 C 0.96354 0.1985 0.82801 0.0
C114 C 0.98491 0.2456 0.79524 0.0
C115 C 0.00886 0.20447 0.71282 0.0
C116 C 0.96516 0.15433 0.80217 0.0
C117 C 1.00706 0.24854 0.73785 0.0
C118 C 0.94841 0.95282 0.60006 0.0
C119 C 0.99227 0.1088 0.72274 0.0
H120 H 0.96767 0.90734 0.1983 0.0
H121 H 0.97033 0.95697 0.3796 0.0
H122 H 0.92165 0.93443 0.27653 0.0
H123 H 0.11505 0.93392 0.32112 0.0
H124 H 0.98391 0.28035 0.81352 0.0
H125 H 0.02676 0.20737 0.66886 0.0
H126 H 0.9496 0.11748 0.82751 0.0
H127 H 0.02314 0.2851 0.71287 0.0
Eu128 Eu 0.46965 0.48152 1.00425 0.0
C129 C 0.67931 0.57841 0.06825 0.0
N130 N 0.65999 0.53594 0.10891 0.0
C131 C 0.73937 0.48707 0.1236 0.0
C132 C 0.72848 0.57576 0.05059 0.0
C133 C 0.69082 0.49199 0.14048 0.0
C134 C 0.75781 0.52874 0.07723 0.0
C135 C 0.67192 0.67157 0.01002 0.0
C136 C 0.65152 0.62577 0.04813 0.0
C137 C 0.71952 0.66843 0.98924 0.0
C138 C 0.74767 0.62058 0.00932 0.0
Eu139 Eu 0.57509 0.54731 0.12895 0.0
N140 N 0.60492 0.62734 0.06728 0.0
C141 C 0.64406 0.71923 0.99459 0.0
C142 C 0.57878 0.67395 0.05551 0.0
C143 C 0.59764 0.72052 0.01828 0.0
H144 H 0.67843 0.46067 0.17932 0.0
H145 H 0.57631 0.7573 0.00765 0.0
H146 H 0.35207 0.51859 0.01632 0.0
H147 H 0.54286 0.28055 0.0459 0.0
H148 H 0.54282 0.67476 0.07374 0.0
H149 H 0.65843 0.75529 0.9654 0.0
H150 H 0.53466 0.37604 0.99191 0.0
H151 H 0.76289 0.45146 0.14722 0.0
H152 H 0.7354 0.70299 0.95885 0.0
H153 H 0.78502 0.61907 0.9945 0.0
H154 H 0.27844 0.48097 0.07202 0.0
H155 H 0.79572 0.52506 0.06486 0.0
H156 H 0.48337 0.2379 0.12297 0.0
N157 N 0.39716 0.44757 0.05281 0.0
C158 C 0.39894 0.39562 0.08542 0.0
C159 C 0.31228 0.45663 0.07662 0.0
C160 C 0.35841 0.37251 0.1185 0.0
C161 C 0.35377 0.4778 0.04515 0.0
C162 C 0.31507 0.40398 0.11466 0.0
N163 N 0.47571 0.3884 0.04449 0.0
C164 C 0.51019 0.35829 0.02796 0.0
C165 C 0.44176 0.31045 0.11191 0.0
C166 C 0.44003 0.36518 0.08206 0.0
C167 C 0.48061 0.28007 0.10089 0.0
C168 C 0.51425 0.30398 0.05744 0.0
H169 H 0.28303 0.38771 0.13928 0.0
H170 H 0.33137 0.30023 0.1789 0.0
H171 H 0.40444 0.24576 0.17308 0.0
O172 O 0.43539 0.44649 0.91936 0.0
O173 O 0.45546 0.48587 0.10843 0.0
O174 O 0.53634 0.47241 0.17756 0.0
O175 O 0.4252 0.53032 0.90903 0.0
O176 O 0.5555 0.45737 0.0256 0.0
O177 O 0.58587 0.45992 0.13717 0.0
O178 O 0.55592 0.58179 0.20693 0.0
O179 O 0.55085 0.58454 0.01365 0.0
O180 O 0.54298 0.51451 0.96784 0.0
O181 O 0.63499 0.55691 0.2148 0.0
O182 O 0.49288 0.58276 0.10406 0.0
O183 O 0.4484 0.56505 1.00287 0.0
C184 C 0.48557 0.46701 0.16873 0.0
C185 C 0.38285 0.49982 0.81158 0.0
C186 C 0.35283 0.47291 0.70591 0.0
C187 C 0.31824 0.51667 0.68163 0.0
C188 C 0.34807 0.54332 0.78575 0.0
C189 C 0.31603 0.55157 0.72126 0.0
C190 C 0.38534 0.46467 0.77125 0.0
C191 C 0.58642 0.43934 0.08565 0.0
C192 C 0.4152 0.49156 0.88099 0.0
C193 C 0.36168 0.31862 0.15218 0.0
C194 C 0.40335 0.28763 0.14897 0.0
C195 C 0.55892 0.56219 0.9667 0.0
C196 C 0.60748 0.55361 0.31785 0.0
C197 C 0.6349 0.56184 0.43496 0.0
C198 C 0.61583 0.51126 0.45932 0.0
C199 C 0.58931 0.50325 0.34341 0.0
C200 C 0.63031 0.58281 0.36357 0.0
C201 C 0.59337 0.4823 0.41384 0.0
C202 C 0.45438 0.5916 0.04986 0.0
C203 C 0.6029 0.57596 0.24362 0.0
H204 H 0.29334 0.52439 0.63132 0.0
H205 H 0.34523 0.57083 0.81573 0.0
H206 H 0.28936 0.58521 0.70187 0.0
H207 H 0.41204 0.43099 0.79068 0.0
H208 H 0.61742 0.49428 0.51362 0.0
H209 H 0.57193 0.48031 0.30883 0.0
H210 H 0.64483 0.62151 0.34349 0.0
H211 H 0.5788 0.44355 0.43326 0.0
C212 C 0.18404 0.20633 0.53141 0.0
C213 C 0.21711 0.19446 0.49108 0.0
H214 H 0.12117 0.1805 0.58482 0.0
C215 C 0.21338 0.14585 0.47566 0.0
H216 H 0.18624 0.2439 0.5436 0.0
C217 C 0.17615 0.11005 0.49814 0.0
C218 C 0.14154 0.12187 0.53695 0.0
H219 H 0.2384 0.13601 0.44434 0.0
H220 H 0.17395 0.07345 0.48353 0.0
C221 C 0.14672 0.1701 0.55466 0.0
C222 C 0.32517 0.66838 0.99479 0.0
C223 C 0.32916 0.69578 0.04506 0.0
H224 H 0.36213 0.61457 0.95579 0.0
C225 C 0.37581 0.69264 0.09289 0.0
H226 H 0.28916 0.66996 0.95787 0.0
C227 C 0.41736 0.66056 0.09259 0.0
C228 C 0.41295 0.63086 0.04437 0.0
H229 H 0.37935 0.7132 0.13254 0.0
H230 H 0.4522 0.65768 0.13176 0.0
C231 C 0.3669 0.63646 0.99407 0.0
C232 C 0.83071 0.86575 0.58135 0.0
C233 C 0.82671 0.8445 0.6501 0.0
H234 H 0.87285 0.91695 0.5113 0.0
C235 C 0.8639 0.85707 0.70192 0.0
H236 H 0.80196 0.85699 0.54057 0.0
C237 C 0.90391 0.89141 0.68547 0.0
C238 C 0.90766 0.91382 0.61673 0.0
H239 H 0.86119 0.84144 0.75531 0.0
H240 H 0.9315 0.90108 0.72665 0.0
C241 C 0.87112 0.90002 0.56475 0.0
C242 C 0.67525 0.3494 0.03935 0.0
C243 C 0.68959 0.31075 0.10135 0.0
H244 H 0.63174 0.42069 0.98614 0.0
C245 C 0.6728 0.316 0.15995 0.0
H246 H 0.68763 0.34586 0.9935 0.0
C247 C 0.64071 0.35896 0.15591 0.0
C248 C 0.62459 0.3967 0.09299 0.0
H249 H 0.68322 0.2862 0.20821 0.0
H250 H 0.62692 0.3616 0.20119 0.0
C251 C 0.64309 0.39198 0.03517 0.0
C252 C 0.14993 0.85936 0.187 0.0
C253 C 0.12728 0.86616 0.11744 0.0
H254 H 0.14171 0.868 0.28432 0.0
C255 C 0.07766 0.89101 0.09283 0.0
H256 H 0.1883 0.84123 0.20811 0.0
C257 C 0.05197 0.90913 0.13599 0.0
C258 C 0.0741 0.90139 0.20588 0.0
H259 H 0.05789 0.89608 0.04023 0.0
H260 H 0.01462 0.9293 0.11405 0.0
C261 C 0.12345 0.87596 0.23073 0.0
C262 C 0.64835 0.58696 0.83838 0.0
C263 C 0.64362 0.64184 0.8111 0.0
H264 H 0.62524 0.51897 0.90881 0.0
C265 C 0.61114 0.67044 0.83641 0.0
H266 H 0.67357 0.56379 0.82082 0.0
C267 C 0.58343 0.64461 0.88688 0.0
C268 C 0.58794 0.5898 0.9134 0.0
H269 H 0.60608 0.71263 0.81601 0.0
H270 H 0.55797 0.66742 0.90458 0.0
C271 C 0.62065 0.56124 0.8887 0.0
C272 C 0.88343 0.0908 0.28781 0.0
C273 C 0.89726 0.14197 0.25676 0.0
H274 H 0.89689 0.02528 0.37707 0.0
C275 C 0.93611 0.16699 0.29339 0.0
H276 H 0.85352 0.07086 0.26029 0.0
C277 C 0.96057 0.1412 0.36044 0.0
C278 C 0.94702 0.08975 0.39149 0.0
H279 H 0.94723 0.20651 0.27028 0.0
H280 H 0.99053 0.16125 0.38766 0.0
C281 C 0.90835 0.06475 0.35437 0.0
C282 C 0.40351 0.39741 0.59728 0.0
C283 C 0.35676 0.3825 0.56096 0.0
H284 H 0.43902 0.43705 0.67258 0.0
C285 C 0.30936 0.39315 0.57786 0.0
H286 H 0.4407 0.38934 0.58588 0.0
C287 C 0.30848 0.42032 0.62729 0.0
C288 C 0.35495 0.43729 0.66139 0.0
H289 H 0.27262 0.38269 0.5506 0.0
H290 H 0.27117 0.42947 0.63746 0.0
C291 C 0.40263 0.42428 0.64731 0.0
C292 C 0.66255 0.67372 0.52079 0.0
C293 C 0.68947 0.64689 0.58632 0.0
H294 H 0.62332 0.66781 0.42169 0.0
C295 C 0.70358 0.59372 0.59887 0.0
H296 H 0.65064 0.71456 0.51013 0.0
C297 C 0.68831 0.567 0.54843 0.0
C298 C 0.65794 0.5926 0.48435 0.0
H299 H 0.72447 0.57219 0.64896 0.0
H300 H 0.69886 0.52569 0.56056 0.0
C301 C 0.6468 0.64681 0.47027 0.0
C302 C 0.86755 0.17207 0.94946 0.0
C303 C 0.8933 0.19237 1.00336 0.0
H304 H 0.86968 0.15764 0.85238 0.0
C305 C 0.94284 0.21374 0.99979 0.0
H306 H 0.82956 0.15489 0.95102 0.0
C307 C 0.96559 0.21575 0.94297 0.0
C308 C 0.93975 0.19557 0.88899 0.0
H309 H 0.96357 0.22978 0.0404 0.0
H310 H 1.00364 0.2328 0.94144 0.0
C311 C 0.89067 0.17328 0.89323 0.0
C312 C 0.38361 0.4299 0.28015 0.0
C313 C 0.41075 0.39287 0.33774 0.0
H314 H 0.38675 0.484 0.18344 0.0
C315 C 0.46353 0.38151 0.34117 0.0
H316 H 0.34298 0.4395 0.27668 0.0
C317 C 0.48838 0.40599 0.28673 0.0
C318 C 0.46089 0.44252 0.22836 0.0
H319 H 0.48517 0.353 0.38527 0.0
H320 H 0.52872 0.39559 0.28975 0.0
C321 C 0.40856 0.45487 0.22649 0.0
C322 C 0.09547 0.86897 0.8553 0.0
C323 C 0.14844 0.87463 0.88124 0.0
H324 H 0.03013 0.89642 0.77382 0.0
C325 C 0.178 0.90988 0.84042 0.0
H326 H 0.07191 0.84227 0.88631 0.0
C327 C 0.15391 0.94122 0.77589 0.0
C328 C 0.10008 0.93781 0.75218 0.0
H329 H 0.21871 0.91537 0.86004 0.0
H330 H 0.17668 0.96984 0.74613 0.0
C331 C 0.07146 0.9004 0.79155 0.0
loop_
_geom_bond_atom_site_label_1
_geom_bond_atom_site_label_2
_geom_bond_distance
_geom_bond_site_symmetry_2
_ccdc_geom_bond_type
H0 C3 0.929 . S
H1 C6 0.929 . S
H2 C8 0.930 . S
C3 H0 0.929 . S
C3 C4 1.398 1_554 S
C3 C5 1.396 . S
C4 C3 1.398 1_556 S
C4 C8 1.407 . S
C5 C3 1.396 . S
C5 C6 1.394 . S
C6 H1 0.929 . S
C6 C5 1.394 . S
C6 C7 1.382 . S
C7 C6 1.382 . S
C7 C8 1.392 1_554 S
C7 N9 1.420 . S
C8 H2 0.930 . S
C8 C4 1.407 . S
C8 C7 1.392 1_556 S
N9 C7 1.420 . S
N9 C10 1.244 . S
C10 N9 1.244 . S
H11 C14 0.929 . S
H12 C17 0.929 . S
H13 C19 0.930 . S
C14 H11 0.929 . S
C14 C15 1.398 . S
C14 C16 1.396 . S
C15 C14 1.398 . S
C15 C19 1.407 . S
C16 C14 1.396 . S
C16 C17 1.394 . S
C17 H12 0.929 . S
C17 C16 1.394 . S
C17 C18 1.382 . S
C18 C17 1.382 . S
C18 C19 1.392 . S
C18 N20 1.420 . S
C19 H13 0.930 . S
C19 C15 1.407 . S
C19 C18 1.392 . S
N20 C18 1.420 . S
N20 C21 1.244 . S
C21 N20 1.244 . S
H22 C25 0.929 . S
H23 C28 0.929 . S
H24 C30 0.930 1_556 S
C25 H22 0.929 . S
C25 C26 1.398 . S
C25 C27 1.396 . S
C26 C25 1.398 . S
C26 C30 1.407 . S
C27 C25 1.396 . S
C27 C28 1.394 . S
C28 H23 0.929 . S
C28 C27 1.394 . S
C28 C29 1.382 . S
C29 C28 1.382 . S
C29 C30 1.392 . S
C29 N31 1.420 . S
C30 H24 0.930 1_554 S
C30 C26 1.407 . S
C30 C29 1.392 . S
N31 C29 1.420 . S
N31 C32 1.244 . S
C32 N31 1.244 . S
H33 C36 0.929 . S
H34 C39 0.929 . S
H35 C41 0.930 . S
C36 H33 0.929 . S
C36 C37 1.398 . S
C36 C38 1.396 . S
C37 C36 1.398 . S
C37 C41 1.407 . S
C38 C36 1.396 . S
C38 C39 1.394 . S
C39 H34 0.929 . S
C39 C38 1.394 . S
C39 C40 1.382 . S
C40 C39 1.382 . S
C40 C41 1.392 . S
C40 N42 1.420 . S
C41 H35 0.930 . S
C41 C37 1.407 . S
C41 C40 1.392 . S
N42 C40 1.420 . S
N42 C43 1.244 . S
C43 N42 1.244 . S
Eu44 N73 2.600 . S
Eu44 N79 2.562 . S
Eu44 O88 2.462 . S
Eu44 O89 2.373 . S
Eu44 O91 2.432 . S
Eu44 O92 2.291 1_565 S
Eu44 O96 2.335 1_465 S
Eu44 O99 2.372 1_455 S
Eu44 C108 2.787 . S
C45 N46 1.365 . S
C45 C48 1.405 . S
C45 C52 1.448 . S
N46 C45 1.365 . S
N46 C49 1.319 1_655 S
N46 Eu55 2.600 . S
C47 C49 1.397 . S
C47 C50 1.367 1_455 S
C47 H67 0.931 . S
C48 C45 1.405 . S
C48 C50 1.403 . S
C48 C54 1.439 . S
C49 N46 1.319 1_455 S
C49 C47 1.397 . S
C49 H60 0.930 . S
C50 C47 1.367 1_655 S
C50 C48 1.403 . S
C50 H71 0.929 . S
C51 C52 1.430 . S
C51 C53 1.387 . S
C51 C57 1.404 . S
C52 C45 1.448 . S
C52 C51 1.430 . S
C52 N56 1.351 . S
C53 C51 1.387 . S
C53 C54 1.374 . S
C53 H68 0.931 . S
C54 C48 1.439 . S
C54 C53 1.374 . S
C54 H69 0.931 . S
Eu55 N46 2.600 . S
Eu55 N56 2.562 . S
Eu55 O90 2.335 1_655 S
Eu55 O93 2.372 1_655 S
Eu55 O94 2.462 . S
Eu55 O95 2.373 . S
Eu55 O97 2.432 . S
Eu55 O98 2.291 1_545 S
Eu55 C119 2.787 . S
N56 C52 1.351 . S
N56 Eu55 2.562 . S
N56 C58 1.325 . S
C57 C51 1.404 . S
C57 C59 1.366 . S
C57 H65 0.930 . S
C58 N56 1.325 . S
C58 C59 1.416 . S
C58 H64 0.929 . S
C59 C57 1.366 . S
C59 C58 1.416 . S
C59 H61 0.930 . S
H60 C49 0.930 . S
H61 C59 0.930 . S
H62 C77 0.930 1_655 S
H63 C84 0.930 . S
H64 C58 0.929 . S
H65 C57 0.930 . S
H66 C80 0.929 . S
H67 C47 0.931 . S
H68 C53 0.931 . S
H69 C54 0.931 . S
H70 C75 0.931 1_655 S
H71 C50 0.929 . S
H72 C83 0.930 . S
N73 Eu44 2.600 . S
N73 C74 1.365 . S
N73 C77 1.319 . S
C74 N73 1.365 . S
C74 C76 1.405 . S
C74 C82 1.448 . S
C75 H70 0.931 1_455 S
C75 C77 1.397 . S
C75 C78 1.367 . S
C76 C74 1.405 . S
C76 C78 1.403 . S
C76 C109 1.439 . S
C77 H62 0.930 1_455 S
C77 N73 1.319 . S
C77 C75 1.397 . S
C78 C75 1.367 . S
C78 C76 1.403 . S
C78 H85 0.929 . S
N79 Eu44 2.562 . S
N79 C80 1.325 . S
N79 C82 1.351 . S
C80 H66 0.929 . S
C80 N79 1.325 . S
C80 C84 1.416 . S
C81 C82 1.430 . S
C81 C83 1.404 . S
C81 C110 1.387 . S
C82 C74 1.448 . S
C82 N79 1.351 . S
C82 C81 1.430 . S
C83 H72 0.930 . S
C83 C81 1.404 . S
C83 C84 1.366 . S
C84 H63 0.930 . S
C84 C80 1.416 . S
C84 C83 1.366 . S
H85 C78 0.929 . S
H86 C109 0.931 . S
H87 C110 0.931 . S
O88 Eu44 2.462 . S
O88 C108 1.252 . S
O89 Eu44 2.373 . S
O89 C100 1.249 . S
O90 Eu55 2.335 1_455 S
O90 C100 1.264 1_545 S
O91 Eu44 2.432 . S
O91 C108 1.268 . S
O92 Eu44 2.291 1_545 S
O92 C107 1.255 . S
O93 Eu55 2.372 1_455 S
O93 C107 1.257 . S
O94 Eu55 2.462 . S
O94 C119 1.252 . S
O95 Eu55 2.373 . S
O95 C111 1.249 . S
O96 Eu44 2.335 1_645 S
O96 C111 1.264 . S
O97 Eu55 2.432 . S
O97 C119 1.268 . S
O98 Eu55 2.291 1_565 S
O98 C118 1.255 . S
O99 Eu44 2.372 1_655 S
O99 C118 1.257 . S
C100 O89 1.249 . S
C100 O90 1.264 1_565 S
C101 C104 1.382 . S
C101 C106 1.390 . S
C101 C108 1.506 . S
C102 C103 1.398 . S
C102 C106 1.392 . S
C103 C102 1.398 . S
C103 C105 1.372 . S
C103 H120 0.931 . S
C104 C101 1.382 . S
C104 C105 1.390 . S
C104 H121 0.931 . S
C105 C103 1.372 . S
C105 C104 1.390 . S
C105 H122 0.929 . S
C106 C101 1.390 . S
C106 C102 1.392 . S
C106 H123 0.930 . S
C107 O92 1.255 . S
C107 O93 1.257 . S
C108 Eu44 2.787 . S
C108 O88 1.252 . S
C108 O91 1.268 . S
C108 C101 1.506 . S
C109 C76 1.439 . S
C109 H86 0.931 . S
C109 C110 1.374 . S
C110 C81 1.387 . S
C110 H87 0.931 . S
C110 C109 1.374 . S
C111 O95 1.249 . S
C111 O96 1.264 . S
C112 C115 1.382 . S
C112 C116 1.390 . S
C112 C119 1.506 . S
C113 C114 1.398 . S
C113 C116 1.392 . S
C114 C113 1.398 . S
C114 C117 1.372 . S
C114 H124 0.931 . S
C115 C112 1.382 . S
C115 C117 1.390 . S
C115 H125 0.931 . S
C116 C112 1.390 . S
C116 C113 1.392 . S
C116 H126 0.930 . S
C117 C114 1.372 . S
C117 C115 1.390 . S
C117 H127 0.929 . S
C118 O98 1.255 . S
C118 O99 1.257 . S
C119 Eu55 2.787 . S
C119 O94 1.252 . S
C119 O97 1.268 . S
C119 C112 1.506 . S
H120 C103 0.931 . S
H121 C104 0.931 . S
H122 C105 0.929 . S
H123 C106 0.930 . S
H124 C114 0.931 . S
H125 C115 0.931 . S
H126 C116 0.930 . S
H127 C117 0.929 . S
Eu128 N157 2.600 . S
Eu128 N163 2.562 . S
Eu128 O172 2.462 1_554 S
Eu128 O173 2.373 . S
Eu128 O175 2.432 1_554 S
Eu128 O176 2.291 . S
Eu128 O180 2.335 1_554 S
Eu128 O183 2.372 . S
Eu128 C192 2.787 1_554 S
C129 N130 1.365 . S
C129 C132 1.405 . S
C129 C136 1.448 . S
N130 C129 1.365 . S
N130 C133 1.319 . S
N130 Eu139 2.600 . S
C131 C133 1.397 . S
C131 C134 1.367 . S
C131 H151 0.931 . S
C132 C129 1.405 . S
C132 C134 1.403 . S
C132 C138 1.439 . S
C133 N130 1.319 . S
C133 C131 1.397 . S
C133 H144 0.930 . S
C134 C131 1.367 . S
C134 C132 1.403 . S
C134 H155 0.929 . S
C135 C136 1.430 . S
C135 C137 1.387 . S
C135 C141 1.404 . S
C136 C129 1.448 . S
C136 C135 1.430 . S
C136 N140 1.351 . S
C137 C135 1.387 . S
C137 C138 1.374 . S
C137 H152 0.931 . S
C138 C132 1.439 . S
C138 C137 1.374 . S
C138 H153 0.931 . S
Eu139 N130 2.600 . S
Eu139 N140 2.562 . S
Eu139 O174 2.335 . S
Eu139 O177 2.372 . S
Eu139 O178 2.462 . S
Eu139 O179 2.373 . S
Eu139 O181 2.432 . S
Eu139 O182 2.291 . S
Eu139 C203 2.787 . S
N140 C136 1.351 . S
N140 Eu139 2.562 . S
N140 C142 1.325 . S
C141 C135 1.404 . S
C141 C143 1.366 . S
C141 H149 0.930 . S
C142 N140 1.325 . S
C142 C143 1.416 . S
C142 H148 0.929 . S
C143 C141 1.366 . S
C143 C142 1.416 . S
C143 H145 0.930 . S
H144 C133 0.930 . S
H145 C143 0.930 . S
H146 C161 0.930 . S
H147 C168 0.930 . S
H148 C142 0.929 . S
H149 C141 0.930 . S
H150 C164 0.929 . S
H151 C131 0.931 . S
H152 C137 0.931 . S
H153 C138 0.931 . S
H154 C159 0.931 . S
H155 C134 0.929 . S
H156 C167 0.930 . S
N157 Eu128 2.600 . S
N157 C158 1.365 . S
N157 C161 1.319 1_554 S
C158 N157 1.365 . S
C158 C160 1.405 . S
C158 C166 1.448 . S
C159 H154 0.931 . S
C159 C161 1.397 . S
C159 C162 1.367 1_556 S
C160 C158 1.405 . S
C160 C162 1.403 . S
C160 C193 1.439 . S
C161 H146 0.930 . S
C161 N157 1.319 1_556 S
C161 C159 1.397 . S
C162 C159 1.367 1_554 S
C162 C160 1.403 . S
C162 H169 0.929 . S
N163 Eu128 2.562 . S
N163 C164 1.325 . S
N163 C166 1.351 . S
C164 H150 0.929 . S
C164 N163 1.325 . S
C164 C168 1.416 . S
C165 C166 1.430 . S
C165 C167 1.404 . S
C165 C194 1.387 . S
C166 C158 1.448 . S
C166 N163 1.351 . S
C166 C165 1.430 . S
C167 H156 0.930 . S
C167 C165 1.404 . S
C167 C168 1.366 . S
C168 H147 0.930 . S
C168 C164 1.416 . S
C168 C167 1.366 . S
H169 C162 0.929 . S
H170 C193 0.931 . S
H171 C194 0.931 . S
O172 Eu128 2.462 1_556 S
O172 C192 1.252 . S
O173 Eu128 2.373 . S
O173 C184 1.249 . S
O174 Eu139 2.335 . S
O174 C184 1.264 . S
O175 Eu128 2.432 1_556 S
O175 C192 1.268 . S
O176 Eu128 2.291 . S
O176 C191 1.255 . S
O177 Eu139 2.372 . S
O177 C191 1.257 . S
O178 Eu139 2.462 . S
O178 C203 1.252 . S
O179 Eu139 2.373 . S
O179 C195 1.249 1_554 S
O180 Eu128 2.335 1_556 S
O180 C195 1.264 . S
O181 Eu139 2.432 . S
O181 C203 1.268 . S
O182 Eu139 2.291 . S
O182 C202 1.255 . S
O183 Eu128 2.372 . S
O183 C202 1.257 . S
C184 O173 1.249 . S
C184 O174 1.264 . S
C185 C188 1.382 . S
C185 C190 1.390 . S
C185 C192 1.506 . S
C186 C187 1.398 . S
C186 C190 1.392 . S
C187 C186 1.398 . S
C187 C189 1.372 . S
C187 H204 0.931 . S
C188 C185 1.382 . S
C188 C189 1.390 . S
C188 H205 0.931 . S
C189 C187 1.372 . S
C189 C188 1.390 . S
C189 H206 0.929 . S
C190 C185 1.390 . S
C190 C186 1.392 . S
C190 H207 0.930 . S
C191 O176 1.255 . S
C191 O177 1.257 . S
C192 Eu128 2.787 1_556 S
C192 O172 1.252 . S
C192 O175 1.268 . S
C192 C185 1.506 . S
C193 C160 1.439 . S
C193 H170 0.931 . S
C193 C194 1.374 . S
C194 C165 1.387 . S
C194 H171 0.931 . S
C194 C193 1.374 . S
C195 O179 1.249 1_556 S
C195 O180 1.264 . S
C196 C199 1.382 . S
C196 C200 1.390 . S
C196 C203 1.506 . S
C197 C198 1.398 . S
C197 C200 1.392 . S
C198 C197 1.398 . S
C198 C201 1.372 . S
C198 H208 0.931 . S
C199 C196 1.382 . S
C199 C201 1.390 . S
C199 H209 0.931 . S
C200 C196 1.390 . S
C200 C197 1.392 . S
C200 H210 0.930 . S
C201 C198 1.372 . S
C201 C199 1.390 . S
C201 H211 0.929 . S
C202 O182 1.255 . S
C202 O183 1.257 . S
C203 Eu139 2.787 . S
C203 O178 1.252 . S
C203 O181 1.268 . S
C203 C196 1.506 . S
H204 C187 0.931 . S
H205 C188 0.931 . S
H206 C189 0.929 . S
H207 C190 0.930 . S
H208 C198 0.931 . S
H209 C199 0.931 . S
H210 C200 0.930 . S
H211 C201 0.929 . S
C212 C213 1.387 . S
C212 H216 0.950 . S
C212 C221 1.390 . S
C213 C212 1.387 . S
C213 C215 1.387 . S
H214 C221 0.950 . S
C215 C213 1.387 . S
C215 C217 1.390 . S
C215 H219 0.950 . S
H216 C212 0.950 . S
C217 C215 1.390 . S
C217 C218 1.387 . S
C217 H220 0.950 . S
C218 C217 1.387 . S
C218 C221 1.387 . S
H219 C215 0.950 . S
H220 C217 0.950 . S
C221 C212 1.390 . S
C221 H214 0.950 . S
C221 C218 1.387 . S
C222 C223 1.387 . S
C222 H226 0.950 1_554 S
C222 C231 1.390 . S
C223 C222 1.387 . S
C223 C225 1.387 . S
H224 C231 0.950 1_556 S
C225 C223 1.387 . S
C225 C227 1.390 . S
C225 H229 0.950 . S
H226 C222 0.950 1_556 S
C227 C225 1.390 . S
C227 C228 1.387 . S
C227 H230 0.950 . S
C228 C227 1.387 . S
C228 C231 1.387 . S
H229 C225 0.950 . S
H230 C227 0.950 . S
C231 C222 1.390 . S
C231 H224 0.950 1_554 S
C231 C228 1.387 . S
C232 C233 1.387 . S
C232 H236 0.950 . S
C232 C241 1.390 . S
C233 C232 1.387 . S
C233 C235 1.387 . S
H234 C241 0.950 . S
C235 C233 1.387 . S
C235 C237 1.390 . S
C235 H239 0.950 . S
H236 C232 0.950 . S
C237 C235 1.390 . S
C237 C238 1.387 . S
C237 H240 0.950 . S
C238 C237 1.387 . S
C238 C241 1.387 . S
H239 C235 0.950 . S
H240 C237 0.950 . S
C241 C232 1.390 . S
C241 H234 0.950 . S
C241 C238 1.387 . S
C242 C243 1.387 . S
C242 H246 0.950 1_554 S
C242 C251 1.390 . S
C243 C242 1.387 . S
C243 C245 1.387 . S
H244 C251 0.950 1_556 S
C245 C243 1.387 . S
C245 C247 1.390 . S
C245 H249 0.950 . S
H246 C242 0.950 1_556 S
C247 C245 1.390 . S
C247 C248 1.387 . S
C247 H250 0.950 . S
C248 C247 1.387 . S
C248 C251 1.387 . S
H249 C245 0.950 . S
H250 C247 0.950 . S
C251 C242 1.390 . S
C251 H244 0.950 1_554 S
C251 C248 1.387 . S
C252 C253 1.387 . S
C252 H256 0.950 . S
C252 C261 1.390 . S
C253 C252 1.387 . S
C253 C255 1.387 . S
H254 C261 0.950 . S
C255 C253 1.387 . S
C255 C257 1.390 . S
C255 H259 0.950 . S
H256 C252 0.950 . S
C257 C255 1.390 . S
C257 C258 1.387 . S
C257 H260 0.950 . S
C258 C257 1.387 . S
C258 C261 1.387 . S
H259 C255 0.950 . S
H260 C257 0.950 . S
C261 C252 1.390 . S
C261 H254 0.950 . S
C261 C258 1.387 . S
C262 C263 1.387 . S
C262 H266 0.950 . S
C262 C271 1.390 . S
C263 C262 1.387 . S
C263 C265 1.387 . S
H264 C271 0.950 . S
C265 C263 1.387 . S
C265 C267 1.390 . S
C265 H269 0.950 . S
H266 C262 0.950 . S
C267 C265 1.390 . S
C267 C268 1.387 . S
C267 H270 0.950 . S
C268 C267 1.387 . S
C268 C271 1.387 . S
H269 C265 0.950 . S
H270 C267 0.950 . S
C271 C262 1.390 . S
C271 H264 0.950 . S
C271 C268 1.387 . S
C272 C273 1.387 . S
C272 H276 0.950 . S
C272 C281 1.390 . S
C273 C272 1.387 . S
C273 C275 1.387 . S
H274 C281 0.950 1_565 S
C275 C273 1.387 . S
C275 C277 1.390 . S
C275 H279 0.950 . S
H276 C272 0.950 . S
C277 C275 1.390 . S
C277 C278 1.387 . S
C277 H280 0.950 . S
C278 C277 1.387 . S
C278 C281 1.387 . S
H279 C275 0.950 . S
H280 C277 0.950 . S
C281 C272 1.390 . S
C281 H274 0.950 1_545 S
C281 C278 1.387 . S
C282 C283 1.387 . S
C282 H286 0.950 . S
C282 C291 1.390 . S
C283 C282 1.387 . S
C283 C285 1.387 . S
H284 C291 0.950 . S
C285 C283 1.387 . S
C285 C287 1.390 . S
C285 H289 0.950 . S
H286 C282 0.950 . S
C287 C285 1.390 . S
C287 C288 1.387 . S
C287 H290 0.950 . S
C288 C287 1.387 . S
C288 C291 1.387 . S
H289 C285 0.950 . S
H290 C287 0.950 . S
C291 C282 1.390 . S
C291 H284 0.950 . S
C291 C288 1.387 . S
C292 C293 1.387 . S
C292 H296 0.950 . S
C292 C301 1.390 . S
C293 C292 1.387 . S
C293 C295 1.387 . S
H294 C301 0.950 . S
C295 C293 1.387 . S
C295 C297 1.390 . S
C295 H299 0.950 . S
H296 C292 0.950 . S
C297 C295 1.390 . S
C297 C298 1.387 . S
C297 H300 0.950 . S
C298 C297 1.387 . S
C298 C301 1.387 . S
H299 C295 0.950 . S
H300 C297 0.950 . S
C301 C292 1.390 . S
C301 H294 0.950 . S
C301 C298 1.387 . S
C302 C303 1.387 . S
C302 H306 0.950 . S
C302 C311 1.390 . S
C303 C302 1.387 . S
C303 C305 1.387 1_556 S
H304 C311 0.950 . S
C305 C303 1.387 1_554 S
C305 C307 1.390 1_554 S
C305 H309 0.950 . S
H306 C302 0.950 . S
C307 C305 1.390 1_556 S
C307 C308 1.387 . S
C307 H310 0.950 . S
C308 C307 1.387 . S
C308 C311 1.387 . S
H309 C305 0.950 . S
H310 C307 0.950 . S
C311 C302 1.390 . S
C311 H304 0.950 . S
C311 C308 1.387 . S
C312 C313 1.387 . S
C312 H316 0.950 . S
C312 C321 1.390 . S
C313 C312 1.387 . S
C313 C315 1.387 . S
H314 C321 0.950 . S
C315 C313 1.387 . S
C315 C317 1.390 . S
C315 H319 0.950 . S
H316 C312 0.950 . S
C317 C315 1.390 . S
C317 C318 1.387 . S
C317 H320 0.950 . S
C318 C317 1.387 . S
C318 C321 1.387 . S
H319 C315 0.950 . S
H320 C317 0.950 . S
C321 C312 1.390 . S
C321 H314 0.950 . S
C321 C318 1.387 . S
C322 C323 1.387 . S
C322 H326 0.950 . S
C322 C331 1.390 . S
C323 C322 1.387 . S
C323 C325 1.387 . S
H324 C331 0.950 . S
C325 C323 1.387 . S
C325 C327 1.390 . S
C325 H329 0.945 1_565 S
H326 C322 0.950 . S
C327 C325 1.390 . S
C327 C328 1.387 . S
C327 H330 0.950 1_565 S
C328 C327 1.387 . S
C328 C331 1.387 . S
H329 C325 0.945 1_545 S
H330 C327 0.950 1_545 S
C331 C322 1.390 . S
C331 H324 0.950 . S
C331 C328 1.387 . S
C218 C107 1.629 . S
C213 C43 1.640 . S
C223 C10 1.639 . S
C228 C202 1.637 . S
C233 C21 1.637 . S
C238 C118 1.650 . S
C243 C32 1.603 . S
C248 C191 1.606 . S
C258 C102 1.414 . S
C253 C5 1.586 . S
C268 C195 1.687 . S
C263 C15 1.682 . S
C273 C27 1.625 . S
C278 C111 1.651 . S
C283 C38 1.588 . S
C288 C186 1.424 . S
C298 C197 1.391 . S
C293 C16 1.553 . S
C308 C113 1.355 . S
C303 C26 1.542 1_556 S
C318 C184 1.618 . S
C313 C37 1.605 . S
C323 C4 1.569 . S
C328 C100 1.592 . S
