# Generated by pormake.
# Topology tsx, (6,3)-cn, num edge types: 1
# Building blocks:
#     Node 0, Type 0, BuildingBlock: LEVNOQ01_clean_sbu_1, # of connection points: 6
#     Node 1, Type 0, BuildingBlock: LEVNOQ01_clean_sbu_1, # of connection points: 6
#     Node 2, Type 1, BuildingBlock: INOVEN_clean_linker_0, # of connection points: 3
#     Node 3, Type 1, BuildingBlock: INOVEN_clean_linker_0, # of connection points: 3
#     Node 4, Type 1, BuildingBlock: INOVEN_clean_linker_0, # of connection points: 3
#     Node 5, Type 1, BuildingBlock: INOVEN_clean_linker_0, # of connection points: 3
#     Edge 6, Type (0, 1), BuildingBlock: ZUJKAS_clean_linker_0, # of connection points: 2
#     Edge 7, Type (0, 1), BuildingBlock: ZUJKAS_clean_linker_0, # of connection points: 2
#     Edge 8, Type (0, 1), BuildingBlock: ZUJKAS_clean_linker_0, # of connection points: 2
#     Edge 9, Type (0, 1), BuildingBlock: ZUJKAS_clean_linker_0, # of connection points: 2
#     Edge 10, Type (0, 1), BuildingBlock: ZUJKAS_clean_linker_0, # of connection points: 2
#     Edge 11, Type (0, 1), BuildingBlock: ZUJKAS_clean_linker_0, # of connection points: 2
#     Edge 12, Type (0, 1), BuildingBlock: ZUJKAS_clean_linker_0, # of connection points: 2
#     Edge 13, Type (0, 1), BuildingBlock: ZUJKAS_clean_linker_0, # of connection points: 2
#     Edge 14, Type (0, 1), BuildingBlock: ZUJKAS_clean_linker_0, # of connection points: 2
#     Edge 15, Type (0, 1), BuildingBlock: ZUJKAS_clean_linker_0, # of connection points: 2
#     Edge 16, Type (0, 1), BuildingBlock: ZUJKAS_clean_linker_0, # of connection points: 2
#     Edge 17, Type (0, 1), BuildingBlock: ZUJKAS_clean_linker_0, # of connection points: 2
# Relax obj value: 0.091
# Max RMSD: 0.143
# Mean RMSD: 0.106
data_MOF--net-tsx--node1-LEVNOQ01_clean_sbu_1--node2-INOVEN_clean_linker_0--edge1-ZUJKAS_clean_linker_0
_symmetry_space_group_name_H-M    P1
_symmetry_Int_Tables_number       1
_symmetry_cell_setting            triclinic
loop_
_symmetry_equiv_pos_as_xyz
'x, y, z'
_cell_length_a     24.65255
_cell_length_b     29.573508
_cell_length_c     44.105428
_cell_angle_alpha  97.68913
_cell_angle_beta   99.443988
_cell_angle_gamma 90.903626
loop_
_atom_site_label
_atom_site_type_symbol
_atom_site_fract_x
_atom_site_fract_y
_atom_site_fract_z
_atom_type_partial_charge
O0 O 0.13421 -0.00066 0.07896 0.0
Mg1 Mg 0.1709 0.01522 0.04128 0.0
O2 O 0.04672 0.00156 0.05669 0.0
Mg3 Mg 0.05071 0.00785 0.00515 0.0
O4 O 0.12379 0.05976 0.01843 0.0
O5 O 0.20937 0.0778 0.04306 0.0
O6 O 0.05914 0.01569 0.95363 0.0
O7 O 0.99685 0.0716 0.00861 0.0
Mg8 Mg 0.94359 0.98659 0.95592 0.0
O9 O 0.97602 0.95756 0.99368 0.0
O10 O 0.99266 0.97443 0.92157 0.0
O11 O 0.92634 0.05567 0.96978 0.0
O12 O 0.89628 0.93312 0.96382 0.0
C13 C 0.15152 0.93132 -0.0005 0.0
C14 C 0.08312 -0.00304 0.08016 0.0
C15 C 0.16523 0.08882 0.02603 0.0
C16 C 0.03768 -0.00269 0.92636 0.0
C17 C 0.95303 0.083 0.9921 0.0
C18 C 0.9339 0.92915 0.98724 0.0
O19 O 0.19017 0.96064 0.01001 0.0
O20 O 0.10149 0.94124 8e-05 0.0
O21 O 0.63343 0.52949 0.58441 0.0
Mg22 Mg 0.67298 0.53275 0.54605 0.0
O23 O 0.55248 0.50677 0.55571 0.0
Mg24 Mg 0.55674 0.5078 0.50339 0.0
O25 O 0.62532 0.56377 0.51311 0.0
O26 O 0.70712 0.5927 0.53818 0.0
O27 O 0.56011 0.50932 0.4507 0.0
O28 O 0.50009 0.57248 0.50463 0.0
Mg29 Mg 0.45175 0.49758 0.4755 0.0
O30 O 0.4903 0.44641 0.49551 0.0
O31 O 0.47227 0.51954 0.43545 0.0
O32 O 0.41784 0.54469 0.50541 0.0
O33 O 0.40737 0.43865 0.46445 0.0
C34 C 0.66717 0.4389 0.51196 0.0
C35 C 0.58364 0.51611 0.582 0.0
C36 C 0.66338 0.59589 0.51816 0.0
C37 C 0.52094 0.51851 0.42997 0.0
C38 C 0.45041 0.5788 0.50837 0.0
C39 C 0.44558 0.42226 0.48306 0.0
O40 O 0.6999 0.47009 0.52765 0.0
O41 O 0.61671 0.44657 0.50254 0.0
H42 H 0.08826 0.97967 0.48906 0.0
H43 H 0.12205 0.92251 0.39925 0.0
H44 H 0.02181 0.03957 0.4083 0.0
N45 N 0.01974 0.04206 0.46785 0.0
N46 N 0.97043 0.04642 0.45698 0.0
C47 C 0.08443 0.98037 0.4643 0.0
C48 C 0.10977 0.94749 0.44574 0.0
C49 C 0.05111 0.01235 0.4504 0.0
C50 C 0.04591 0.01332 0.41838 0.0
C51 C 0.0713 0.98122 0.39958 0.0
C52 C 0.10288 0.94813 0.4135 0.0
H53 H 0.97094 0.0218 0.51892 0.0
H54 H 0.92369 0.9831 0.60185 0.0
H55 H 0.04502 0.09098 0.6088 0.0
N56 N 0.04434 0.08748 0.54759 0.0
N57 N 0.06613 0.12423 0.5619 0.0
C58 C 0.9743 0.02667 0.54392 0.0
C59 C 0.94145 -0.00032 0.55821 0.0
C60 C 0.01071 0.06056 0.56199 0.0
C61 C 0.01552 0.0661 0.59454 0.0
C62 C 0.98506 0.03772 0.60894 0.0
C63 C 0.94753 0.00505 0.59069 0.0
H64 H 0.56651 0.46639 0.98354 0.0
H65 H 0.63699 0.43417 0.90008 0.0
H66 H 0.51816 0.5373 0.90513 0.0
N67 N 0.50734 0.53516 0.96402 0.0
N68 N 0.49588 0.57334 0.9562 0.0
C69 C 0.57048 0.47196 0.96021 0.0
C70 C 0.60491 0.44475 0.94325 0.0
C71 C 0.54087 0.50664 0.94692 0.0
C72 C 0.54362 0.51254 0.91609 0.0
C73 C 0.57699 0.48564 0.89887 0.0
C74 C 0.6089 0.45311 0.91298 0.0
H75 H 0.48142 0.50758 0.02112 0.0
H76 H 0.42803 0.49105 0.1075 0.0
H77 H 0.54326 0.59928 0.10422 0.0
N78 N 0.54531 0.58254 0.04352 0.0
N79 N 0.55635 0.62396 0.05244 0.0
C80 C 0.48109 0.51919 0.04543 0.0
C81 C 0.44918 0.4952 0.06222 0.0
C82 C 0.51319 0.55797 0.06021 0.0
C83 C 0.51623 0.57086 0.09232 0.0
C84 C 0.48664 0.5462 0.1095 0.0
C85 C 0.45167 0.50958 0.09417 0.0
H86 H 0.16492 0.11247 0.96856 0.0
H87 H 0.19608 0.18756 0.95829 0.0
H88 H 0.19609 0.24244 0.05393 0.0
H89 H 0.16611 0.16762 0.06426 0.0
H90 H 0.16735 0.30643 0.00307 0.0
H91 H 0.36278 0.21295 0.0078 0.0
H92 H 0.30218 0.18796 0.98212 0.0
H93 H 0.30515 0.19262 0.02331 0.0
C94 C 0.169 0.14125 0.98689 0.0
C95 C 0.16313 0.13477 0.01713 0.0
C96 C 0.18692 0.18395 0.98106 0.0
C97 C 0.1986 0.2203 0.00543 0.0
C98 C 0.18691 0.21487 0.03481 0.0
H99 H 0.43925 0.41527 0.08542 0.0
H100 H 0.37594 0.35073 0.06434 0.0
C101 C 0.16978 0.17222 0.0407 0.0
C102 C 0.2336 0.26008 0.00272 0.0
H103 H 0.36922 0.29216 0.01057 0.0
C104 C 0.21134 0.30349 0.00389 0.0
C105 C 0.29101 0.25582 0.00428 0.0
C106 C 0.31714 0.20998 0.00444 0.0
C107 C 0.24556 0.34315 0.00817 0.0
C108 C 0.30328 0.33889 0.01114 0.0
C109 C 0.32497 0.29526 0.0081 0.0
C110 C 0.3424 0.37842 0.02249 0.0
C111 C 0.22012 0.38923 0.0116 0.0
C112 C 0.34538 0.41528 0.0057 0.0
C113 C 0.38125 0.45294 0.01805 0.0
C114 C 0.41471 0.45404 0.04728 0.0
C115 C 0.41311 0.41609 0.06323 0.0
C116 C 0.37721 0.37893 0.05108 0.0
H117 H 0.17564 0.38648 0.01302 0.0
H118 H 0.24158 0.41111 0.03273 0.0
H119 H 0.22453 0.40651 0.99126 0.0
H120 H 0.31969 0.41514 0.98328 0.0
H121 H 0.38163 0.48162 0.00519 0.0
H122 H 0.12017 0.85671 0.02317 0.0
H123 H 0.16878 0.78465 0.02294 0.0
H124 H 0.26687 0.82846 0.95898 0.0
H125 H 0.21989 0.90078 0.96002 0.0
H126 H 0.19916 0.71228 0.97391 0.0
H127 H 0.37432 0.82051 0.04249 0.0
H128 H 0.30449 0.83944 0.03727 0.0
H129 H 0.3452 0.84109 0.0071 0.0
C130 C 0.15066 0.85001 0.00818 0.0
C131 C 0.16669 0.88398 0.99165 0.0
C132 C 0.17852 0.80909 0.00821 0.0
C133 C 0.22203 0.8019 0.99145 0.0
C134 C 0.23393 0.83388 0.97244 0.0
H135 H 0.48512 0.65835 0.94708 0.0
H136 H 0.41587 0.71027 0.96307 0.0
C137 C 0.20693 0.87493 0.97285 0.0
C138 C 0.2598 0.76432 -0.0036 0.0
H139 H 0.39568 0.74654 0.01936 0.0
C140 C 0.24196 0.71931 0.98432 0.0
C141 C 0.31518 0.77379 0.01069 0.0
C142 C 0.33592 0.82127 0.02542 0.0
C143 C 0.27957 0.68406 0.98345 0.0
C144 C 0.336 0.69442 -0.00459 0.0
C145 C 0.35255 0.73873 0.00997 0.0
C146 C 0.37969 0.66286 0.98825 0.0
C147 C 0.25928 0.63691 0.96786 0.0
C148 C 0.38308 0.61917 -0.00248 0.0
C149 C 0.42245 0.58926 0.9879 0.0
C150 C 0.45954 0.60334 0.96964 0.0
C151 C 0.45722 0.64735 0.96149 0.0
C152 C 0.41774 0.67684 0.97062 0.0
H153 H 0.21586 0.63633 0.95596 0.0
H154 H 0.28531 0.62375 0.95059 0.0
H155 H 0.26182 0.61333 0.98557 0.0
H156 H 0.3547 0.60789 0.01152 0.0
H157 H 0.42239 0.55493 0.99363 0.0
H158 H 0.94927 0.8397 0.972 0.0
H159 H 0.89766 0.77861 0.98845 0.0
H160 H 0.84414 0.87597 0.05822 0.0
H161 H 0.89612 0.93714 0.04185 0.0
H162 H 0.87025 0.74685 0.05155 0.0
H163 H 0.71379 0.83731 0.97817 0.0
H164 H 0.78647 0.84329 0.97732 0.0
H165 H 0.75839 0.87163 0.0095 0.0
C166 C 0.92923 0.84743 0.99209 0.0
C167 C 0.92651 0.89277 0.0058 0.0
C168 C 0.89965 0.81259 0.00139 0.0
C169 C 0.86666 0.82305 0.02421 0.0
C170 C 0.86959 0.86737 0.0406 0.0
H171 H 0.56943 0.71306 0.06399 0.0
H172 H 0.6459 0.75941 0.05385 0.0
C173 C 0.89946 0.90221 0.03138 0.0
C174 C 0.8201 0.79158 0.02518 0.0
H175 H 0.68192 0.77549 -0.00033 0.0
C176 C 0.82904 0.75287 0.04023 0.0
C177 C 0.76671 0.79945 0.00992 0.0
C178 C 0.75543 0.83995 0.99259 0.0
C179 C 0.78513 0.72248 0.04132 0.0
C180 C 0.73152 0.7308 0.02641 0.0
C181 C 0.72309 0.76909 0.01088 0.0
C182 C 0.68266 0.70289 0.02917 0.0
C183 C 0.796 0.68267 0.05928 0.0
C184 C 0.67661 0.6562 0.01733 0.0
C185 C 0.63248 0.62981 0.02291 0.0
C186 C 0.59414 0.65012 0.04036 0.0
C187 C 0.59855 0.69711 0.05039 0.0
C188 C 0.64227 0.72338 0.04478 0.0
H189 H 0.83722 0.68596 0.07418 0.0
H190 H 0.76425 0.67954 0.07415 0.0
H191 H 0.79407 0.65066 0.04277 0.0
H192 H 0.70676 0.64 0.00462 0.0
H193 H 0.62995 0.59345 0.01499 0.0
H194 H 0.93568 0.14214 0.95064 0.0
H195 H 0.88281 0.2114 0.9547 0.0
H196 H 0.86863 0.1957 0.04891 0.0
H197 H 0.92302 0.12649 0.04513 0.0
H198 H 0.76649 0.19051 0.9808 0.0
H199 H 0.89976 0.34447 0.03269 0.0
H200 H 0.92673 0.29899 0.00851 0.0
H201 H 0.91207 0.28948 0.04564 0.0
C202 C 0.92283 0.15441 0.97254 0.0
C203 C 0.93298 0.1293 -0.00244 0.0
C204 C 0.89287 0.1939 0.97486 0.0
C205 C 0.87207 0.20846 0.00209 0.0
C206 C 0.88509 0.18511 0.02787 0.0
H207 H 0.65459 0.44112 0.00382 0.0
H208 H 0.71335 0.38151 0.02312 0.0
C209 C 0.916 0.14577 0.02571 0.0
C210 C 0.82889 0.24239 0.00103 0.0
H211 H 0.80858 0.35673 0.00965 0.0
C212 C 0.77526 0.22687 0.98761 0.0
C213 C 0.84074 0.28945 0.01019 0.0
C214 C 0.89787 0.307 0.02518 0.0
C215 C 0.73323 0.25745 0.98191 0.0
C216 C 0.74567 0.30503 0.98907 0.0
C217 C 0.79893 0.32037 0.00403 0.0
C218 C 0.70585 0.33919 0.9785 0.0
C219 C 0.67626 0.23805 0.96785 0.0
C220 C 0.68152 0.33505 0.94717 0.0
C221 C 0.64642 0.36792 0.9364 0.0
C222 C 0.6368 0.40728 0.95628 0.0
C223 C 0.66066 0.41126 0.98784 0.0
C224 C 0.69477 0.37741 -0.00115 0.0
H225 H 0.66875 0.20449 0.97543 0.0
H226 H 0.6438 0.26133 0.97419 0.0
H227 H 0.67264 0.23216 0.94219 0.0
H228 H 0.69055 0.30681 0.93069 0.0
H229 H 0.62774 0.36272 0.91214 0.0
H230 H 0.61647 0.67239 0.53951 0.0
H231 H 0.64601 0.74904 0.53218 0.0
H232 H 0.73248 0.69073 0.45984 0.0
H233 H 0.70358 0.61397 0.46749 0.0
H234 H 0.7791 0.74625 0.53821 0.0
H235 H 0.66159 0.82807 0.44234 0.0
H236 H 0.62763 0.79181 0.46401 0.0
H237 H 0.67013 0.76708 0.43743 0.0
C238 C 0.63875 0.67618 0.5207 0.0
C239 C 0.65739 0.63767 0.50379 0.0
C240 C 0.65585 0.7199 0.51664 0.0
C241 C 0.69128 0.72535 0.49544 0.0
C242 C 0.70449 0.6871 0.47598 0.0
H243 H 0.96187 0.92601 0.51799 0.0
H244 H 0.89894 0.85959 0.49729 0.0
C245 C 0.68775 0.64334 0.48023 0.0
C246 C 0.72556 0.76774 0.49954 0.0
H247 H 0.74155 0.86824 0.47134 0.0
C248 C 0.77108 0.7729 0.52355 0.0
C249 C 0.71467 0.80208 0.48032 0.0
C250 C 0.66584 0.79744 0.45451 0.0
C251 C 0.80612 0.81185 0.52899 0.0
C252 C 0.7955 0.84631 0.50973 0.0
C253 C 0.74982 0.84131 0.48572 0.0
C254 C 0.82967 0.88901 0.51613 0.0
C255 C 0.8537 0.81642 0.5557 0.0
C256 C 0.81074 0.9277 0.53262 0.0
C257 C 0.84652 0.96517 0.5446 0.0
C258 C 0.90154 0.96461 0.53999 0.0
C259 C 0.91943 0.92723 0.52156 0.0
C260 C 0.88368 0.88943 0.50982 0.0
H261 H 0.85246 0.78898 0.57053 0.0
H262 H 0.89301 0.81479 0.5465 0.0
H263 H 0.85355 0.85 0.57037 0.0
H264 H 0.76931 0.92776 0.53786 0.0
H265 H 0.83203 -0.00627 0.55879 0.0
H266 H 0.74886 0.40423 0.54949 0.0
H267 H 0.78897 0.32986 0.54181 0.0
H268 H 0.67321 0.29324 0.45708 0.0
H269 H 0.63198 0.36851 0.46478 0.0
H270 H 0.74083 0.23776 0.53281 0.0
H271 H 0.83177 0.28516 0.43317 0.0
H272 H 0.80445 0.32701 0.45975 0.0
H273 H 0.75854 0.28968 0.43105 0.0
C274 C 0.73173 0.38044 0.52917 0.0
C275 C 0.68801 0.39245 0.50734 0.0
C276 C 0.75441 0.33779 0.52502 0.0
C277 C 0.73435 0.3064 0.49881 0.0
C278 C 0.68936 0.31737 0.47739 0.0
H279 H 0.8623 0.04137 0.44786 0.0
H280 H 0.80127 0.10288 0.46163 0.0
C281 C 0.66595 0.36017 0.48177 0.0
C282 C 0.76403 0.26395 0.49326 0.0
H283 H 0.85542 0.21473 0.44983 0.0
C284 C 0.76532 0.23228 0.51442 0.0
C285 C 0.79678 0.25769 0.46967 0.0
C286 C 0.7984 0.29171 0.44716 0.0
C287 C 0.79888 0.19445 0.51259 0.0
C288 C 0.83176 0.18854 0.48917 0.0
C289 C 0.83008 0.2198 0.46783 0.0
C290 C 0.86756 0.1495 0.48581 0.0
C291 C 0.8003 0.1615 0.53598 0.0
C292 C 0.92465 0.15541 0.49554 0.0
C293 C 0.95931 0.12022 0.48793 0.0
C294 C 0.93692 0.07904 0.47037 0.0
C295 C 0.87984 0.07275 0.4618 0.0
C296 C 0.84522 0.10767 0.46957 0.0
H297 H 0.7745 0.17226 0.55389 0.0
H298 H 0.78538 0.12711 0.52389 0.0
H299 H 0.84335 0.15847 0.54761 0.0
H300 H 0.94243 0.18783 0.50779 0.0
H301 H 0.00341 0.12622 0.494 0.0
H302 H 0.41175 0.34295 0.44644 0.0
H303 H 0.35797 0.2816 0.46118 0.0
H304 H 0.39125 0.34479 0.55657 0.0
H305 H 0.44644 0.40568 0.542 0.0
H306 H 0.3746 0.22466 0.52585 0.0
H307 H 0.21566 0.35394 0.50338 0.0
H308 H 0.27419 0.35015 0.48352 0.0
H309 H 0.28353 0.37203 0.52398 0.0
C310 C 0.41 0.34229 0.47077 0.0
C311 C 0.43318 0.37862 0.49316 0.0
C312 C 0.37923 0.30742 0.47913 0.0
C313 C 0.37055 0.30906 0.50984 0.0
C314 C 0.3981 0.3429 0.5328 0.0
H315 H 0.10379 0.20648 0.58725 0.0
H316 H 0.17777 0.2512 0.57282 0.0
C317 C 0.42979 0.37744 0.5245 0.0
C318 C 0.32454 0.28163 0.51638 0.0
H319 H 0.1866 0.28495 0.51744 0.0
C320 C 0.33345 0.23762 0.52405 0.0
C321 C 0.27115 0.29899 0.5139 0.0
C322 C 0.26002 0.34632 0.5057 0.0
C323 C 0.28989 0.21043 0.52967 0.0
C324 C 0.23628 0.22765 0.52688 0.0
C325 C 0.22765 0.27175 0.51921 0.0
C326 C 0.18918 0.20165 0.53381 0.0
C327 C 0.3017 0.16405 0.53931 0.0
C328 C 0.16994 0.15981 0.51595 0.0
C329 C 0.12744 0.13447 0.5241 0.0
C330 C 0.10384 0.15098 0.55019 0.0
C331 C 0.12163 0.19351 0.56709 0.0
C332 C 0.16379 0.21882 0.55893 0.0
H333 H 0.34644 0.15992 0.5467 0.0
H334 H 0.2799 0.15827 0.55867 0.0
H335 H 0.28676 0.13731 0.5194 0.0
H336 H 0.18839 0.14648 0.49609 0.0
H337 H 0.11437 0.10159 0.5107 0.0
H338 H 0.36791 0.59349 0.46402 0.0
H339 H 0.31861 0.6634 0.4584 0.0
H340 H 0.42751 0.73376 0.53792 0.0
H341 H 0.47838 0.66302 0.54329 0.0
H342 H 0.2679 0.70483 0.51028 0.0
H343 H 0.40874 0.82256 0.4682 0.0
H344 H 0.41346 0.76126 0.46128 0.0
H345 H 0.43646 0.79142 0.49936 0.0
C346 C 0.38163 0.62398 0.4802 0.0
C347 C 0.42589 0.62295 0.50453 0.0
C348 C 0.35369 0.66385 0.47683 0.0
C349 C 0.36925 0.70345 0.49785 0.0
C350 C 0.41524 0.70339 0.5214 0.0
H351 H 0.19282 0.95826 0.49578 0.0
H352 H 0.2556 0.89978 0.51345 0.0
C353 C 0.44395 0.66319 0.52457 0.0
C354 C 0.33305 0.74262 0.49656 0.0
H355 H 0.32065 0.84831 0.47396 0.0
C356 C 0.27961 0.73655 0.5028 0.0
C357 C 0.34852 0.78349 0.48647 0.0
C358 C 0.40479 0.79039 0.47824 0.0
C359 C 0.24065 0.77006 0.49866 0.0
C360 C 0.25562 0.81061 0.48791 0.0
C361 C 0.30961 0.81731 0.48253 0.0
C362 C 0.21475 0.84485 0.47968 0.0
C363 C 0.18355 0.76135 0.50529 0.0
C364 C 0.17072 0.83296 0.45525 0.0
C365 C 0.13504 0.86605 0.44525 0.0
C366 C 0.14298 0.9117 0.45936 0.0
C367 C 0.18573 0.92326 0.48465 0.0
C368 C 0.22168 0.89005 0.4946 0.0
H369 H 0.18332 0.73565 0.5215 0.0
H370 H 0.1663 0.7933 0.51535 0.0
H371 H 0.15615 0.74783 0.48327 0.0
H372 H 0.16509 0.79838 0.44319 0.0
H373 H 0.10206 0.8562 0.42587 0.0
H374 H 0.99353 0.02933 0.10461 0.0
H375 H 0.97729 0.0272 0.15806 0.0
H376 H 0.12002 0.94612 0.1755 0.0
H377 H 0.1369 0.94864 0.12277 0.0
H378 H 0.9736 0.9451 0.19617 0.0
H379 H 0.1472 0.07265 0.23637 0.0
H380 H 0.10987 0.06465 0.19708 0.0
H381 H 0.16035 0.02476 0.20924 0.0
C382 C 0.02063 0.01031 0.11973 0.0
C383 C 0.06693 0.98976 0.10987 0.0
C384 C 0.01138 0.00917 0.15013 0.0
C385 C 0.04803 0.98707 0.17062 0.0
C386 C 0.09181 0.96382 0.16003 0.0
H387 H 0.14706 0.96179 0.36097 0.0
H388 H 0.13502 0.96339 0.30518 0.0
C389 C 0.10141 0.96538 0.12998 0.0
C390 C 0.04436 0.99118 0.20388 0.0
H391 H 0.1156 0.03521 0.27483 0.0
C392 C 0.004 0.96522 0.21351 0.0
C393 C 0.08425 0.01752 0.22617 0.0
C394 C 0.1277 0.04683 0.21682 0.0
C395 C 0.00432 0.963 0.24516 0.0
C396 C 0.04552 0.9882 0.26749 0.0
C397 C 0.08437 0.01564 0.25769 0.0
C398 C 0.05102 0.98524 0.30109 0.0
C399 C 0.96223 0.93208 0.25424 0.0
C400 C 0.00781 -0.00305 0.31732 0.0
C401 C 0.01401 -0.0052 0.34911 0.0
C402 C 0.06413 0.98207 0.36551 0.0
C403 C 0.10756 0.97087 0.34913 0.0
C404 C 0.10094 0.97224 0.31725 0.0
H405 H 0.94318 0.90654 0.23439 0.0
H406 H 0.98097 0.91368 0.27349 0.0
H407 H 0.92893 0.95295 0.2622 0.0
H408 H 0.96941 0.00815 0.30549 0.0
H409 H 0.97932 0.00303 0.36076 0.0
H410 H 0.06727 0.93882 0.88005 0.0
H411 H 0.07152 0.95565 0.82768 0.0
H412 H 0.04983 0.09832 0.8575 0.0
H413 H 0.04862 0.08166 0.91033 0.0
H414 H 0.97986 0.98673 0.79687 0.0
H415 H 0.1545 0.10815 0.79723 0.0
H416 H 0.15099 0.07594 0.82893 0.0
H417 H 0.11051 0.12548 0.82497 0.0
C418 C 0.06636 0.97403 0.87568 0.0
C419 C 0.05838 0.00907 0.89903 0.0
C420 C 0.0683 0.98363 0.84578 0.0
C421 C 0.06093 0.02824 0.83863 0.0
C422 C 0.05684 0.06385 0.86255 0.0
H423 H 0.97988 0.11168 0.65264 0.0
H424 H 0.99646 0.11359 0.70941 0.0
C425 C 0.05622 0.05435 0.89273 0.0
C426 C 0.04848 0.03548 0.80564 0.0
H427 H 0.09004 0.09234 0.75044 0.0
C428 C 0.0042 0.00972 0.78675 0.0
C429 C 0.07909 0.06654 0.79267 0.0
C430 C 0.12669 0.09541 0.81191 0.0
C431 C 0.9908 0.01289 0.75508 0.0
C432 C 0.02313 0.0421 0.74173 0.0
C433 C 0.0658 0.06958 0.76077 0.0
C434 C 0.01506 0.0421 0.70777 0.0
C435 C 0.94211 0.98478 0.73618 0.0
C436 C 0.02094 0.00155 0.68829 0.0
C437 C 0.01068 0.00026 0.65617 0.0
C438 C 0.99542 0.03974 0.64299 0.0
C439 C 0.99135 0.08081 0.66243 0.0
C440 C 0.00092 0.08194 0.6947 0.0
H441 H 0.91231 0.97576 0.75098 0.0
H442 H 0.92032 0.00323 0.71773 0.0
H443 H 0.95674 0.95245 0.72497 0.0
H444 H 0.03321 0.97075 0.69796 0.0
H445 H 0.01521 0.9685 0.64158 0.0
H446 H 0.62259 0.45189 0.61609 0.0
H447 H 0.60765 0.44384 0.66857 0.0
H448 H 0.4907 0.5508 0.66462 0.0
H449 H 0.50492 0.55822 0.61142 0.0
H450 H 0.63367 0.52522 0.71355 0.0
H451 H 0.42317 0.45063 0.70965 0.0
H452 H 0.45962 0.44032 0.67716 0.0
H453 H 0.43092 0.49483 0.68606 0.0
C454 C 0.59244 0.47264 0.62614 0.0
C455 C 0.56491 0.5057 0.61014 0.0
C456 C 0.58394 0.46803 0.65598 0.0
C457 C 0.5482 0.49677 0.67035 0.0
C458 C 0.51791 0.52797 0.65366 0.0
H459 H 0.57463 0.56361 0.87119 0.0
H460 H 0.56582 0.5688 0.81562 0.0
C461 C 0.52604 0.53226 0.62346 0.0
C462 C 0.54986 0.49861 0.70404 0.0
H463 H 0.47721 0.47192 0.75912 0.0
C464 C 0.59936 0.51388 0.72359 0.0
C465 C 0.50503 0.48359 0.71679 0.0
C466 C 0.4516 0.46614 0.69647 0.0
C467 C 0.60557 0.51394 0.75569 0.0
C468 C 0.56094 0.49865 0.76847 0.0
C469 C 0.51114 0.48383 0.74903 0.0
C470 C 0.56631 0.49584 0.8019 0.0
C471 C 0.66025 0.52892 0.77568 0.0
C472 C 0.56967 0.45311 0.81228 0.0
C473 C 0.57446 0.44996 0.84386 0.0
C474 C 0.57584 0.48957 0.86559 0.0
C475 C 0.57314 0.53246 0.85502 0.0
C476 C 0.56834 0.53554 0.82338 0.0
H477 H 0.69246 0.53524 0.76167 0.0
H478 H 0.6555 0.56089 0.79118 0.0
H479 H 0.67441 0.50253 0.79059 0.0
H480 H 0.56836 0.42218 0.7959 0.0
H481 H 0.57566 0.4164 0.85115 0.0
H482 H 0.45492 0.56521 0.391 0.0
H483 H 0.46315 0.57606 0.33827 0.0
H484 H 0.61559 0.50557 0.34605 0.0
H485 H 0.60752 0.49423 0.3995 0.0
H486 H 0.54864 0.61837 0.31387 0.0
H487 H 0.51157 0.43293 0.27001 0.0
H488 H 0.4971 0.45775 0.30736 0.0
H489 H 0.56685 0.44832 0.30206 0.0
C490 C 0.49048 0.55213 0.38166 0.0
C491 C 0.53031 0.52833 0.39925 0.0
C492 C 0.49519 0.55863 0.35155 0.0
C493 C 0.5396 0.54125 0.33823 0.0
C494 C 0.58071 0.51885 0.35596 0.0
H495 H 0.58563 0.55287 0.14752 0.0
H496 H 0.60299 0.55653 0.20415 0.0
C497 C 0.57623 0.51259 0.38643 0.0
C498 C 0.54033 0.54493 0.30521 0.0
H499 H 0.5184 0.48231 0.23316 0.0
C500 C 0.54288 0.58863 0.29622 0.0
C501 C 0.53173 0.50603 0.28231 0.0
C502 C 0.52622 0.45854 0.2907 0.0
C503 C 0.53641 0.59439 0.26477 0.0
C504 C 0.52712 0.55557 0.24202 0.0
C505 C 0.52568 0.51189 0.25092 0.0
C506 C 0.5171 0.55942 0.20864 0.0
C507 C 0.538 0.64177 0.25583 0.0
C508 C 0.46307 0.56055 0.19279 0.0
C509 C 0.45298 0.55828 0.1605 0.0
C510 C 0.49691 0.55511 0.14378 0.0
C511 C 0.55113 0.55595 0.15994 0.0
C512 C 0.56112 0.55784 0.19217 0.0
H513 H 0.54772 0.66849 0.27638 0.0
H514 H 0.56932 0.6443 0.24062 0.0
H515 H 0.49749 0.64851 0.24236 0.0
H516 H 0.42869 0.56168 0.20532 0.0
H517 H 0.4109 0.55785 0.14851 0.0
loop_
_geom_bond_atom_site_label_1
_geom_bond_atom_site_label_2
_geom_bond_distance
_geom_bond_site_symmetry_2
_ccdc_geom_bond_type
O0 Mg1 1.990 . S
O0 C14 1.253 . S
Mg1 O0 1.990 . S
Mg1 O4 2.180 . S
Mg1 O5 2.117 . S
Mg1 O19 2.030 1_545 S
O2 Mg3 2.072 . S
O2 C14 1.260 . S
Mg3 O2 2.072 . S
Mg3 O4 2.099 . S
Mg3 O6 2.079 1_554 S
Mg3 O7 2.072 . S
Mg3 O9 2.099 1_444 S
Mg3 O20 2.079 1_545 S
O4 Mg1 2.180 . S
O4 Mg3 2.099 . S
O4 C15 1.279 . S
O5 Mg1 2.117 . S
O5 C15 1.250 . S
O6 Mg3 2.079 1_556 S
O6 C16 1.264 . S
O7 Mg3 2.072 . S
O7 C17 1.260 1_454 S
Mg8 O9 2.180 . S
Mg8 O10 2.030 1_565 S
Mg8 O11 1.990 1_565 S
Mg8 O12 2.117 . S
O9 Mg3 2.099 1_666 S
O9 Mg8 2.180 . S
O9 C18 1.278 1_556 S
O10 Mg8 2.030 1_545 S
O10 C16 1.248 1_655 S
O11 Mg8 1.990 1_545 S
O11 C17 1.253 . S
O12 Mg8 2.117 . S
O12 C18 1.250 1_556 S
C13 O19 1.248 . S
C13 O20 1.264 . S
C14 O0 1.253 . S
C14 O2 1.260 . S
C15 O4 1.279 . S
C15 O5 1.250 . S
C16 O6 1.264 . S
C16 O10 1.248 1_455 S
C17 O7 1.260 1_656 S
C17 O11 1.253 . S
C18 O9 1.278 1_554 S
C18 O12 1.250 1_554 S
O19 Mg1 2.030 1_565 S
O19 C13 1.248 . S
O20 Mg3 2.079 1_565 S
O20 C13 1.264 . S
O21 Mg22 1.990 . S
O21 C35 1.253 . S
Mg22 O21 1.990 . S
Mg22 O25 2.180 . S
Mg22 O26 2.117 . S
Mg22 O40 2.030 . S
O23 Mg24 2.072 . S
O23 C35 1.260 . S
Mg24 O23 2.072 . S
Mg24 O25 2.099 . S
Mg24 O27 2.079 . S
Mg24 O28 2.072 . S
Mg24 O30 2.099 . S
Mg24 O41 2.079 . S
O25 Mg22 2.180 . S
O25 Mg24 2.099 . S
O25 C36 1.279 . S
O26 Mg22 2.117 . S
O26 C36 1.250 . S
O27 Mg24 2.079 . S
O27 C37 1.264 . S
O28 Mg24 2.072 . S
O28 C38 1.260 . S
Mg29 O30 2.180 . S
Mg29 O31 2.030 . S
Mg29 O32 1.990 . S
Mg29 O33 2.117 . S
O30 Mg24 2.099 . S
O30 Mg29 2.180 . S
O30 C39 1.279 . S
O31 Mg29 2.030 . S
O31 C37 1.248 . S
O32 Mg29 1.990 . S
O32 C38 1.253 . S
O33 Mg29 2.117 . S
O33 C39 1.250 . S
C34 O40 1.248 . S
C34 O41 1.264 . S
C35 O21 1.253 . S
C35 O23 1.260 . S
C36 O25 1.279 . S
C36 O26 1.250 . S
C37 O27 1.264 . S
C37 O31 1.248 . S
C38 O28 1.260 . S
C38 O32 1.253 . S
C39 O30 1.279 . S
C39 O33 1.250 . S
O40 Mg22 2.030 . S
O40 C34 1.248 . S
O41 Mg24 2.079 . S
O41 C34 1.264 . S
H42 C47 0.929 . S
H43 C52 0.931 . S
H44 C50 0.930 . S
N45 N46 1.234 1_455 S
N45 C49 1.453 . S
N46 N45 1.234 1_655 S
C47 H42 0.929 . S
C47 C48 1.373 . S
C47 C49 1.368 1_565 S
C48 C47 1.373 . S
C48 C52 1.397 . S
C49 N45 1.453 . S
C49 C47 1.368 1_545 S
C49 C50 1.373 . S
C50 H44 0.930 . S
C50 C49 1.373 . S
C50 C51 1.371 1_545 S
C51 C50 1.371 1_565 S
C51 C52 1.383 . S
C52 H43 0.931 . S
C52 C48 1.397 . S
C52 C51 1.383 . S
H53 C58 0.929 . S
H54 C63 0.931 . S
H55 C61 0.930 . S
N56 N57 1.234 . S
N56 C60 1.453 . S
N57 N56 1.234 . S
C58 H53 0.929 . S
C58 C59 1.373 . S
C58 C60 1.368 1_655 S
C59 C58 1.373 . S
C59 C63 1.397 . S
C60 N56 1.453 . S
C60 C58 1.368 1_455 S
C60 C61 1.373 . S
C61 H55 0.930 . S
C61 C60 1.373 . S
C61 C62 1.371 1_455 S
C62 C61 1.371 1_655 S
C62 C63 1.383 . S
C63 H54 0.931 . S
C63 C59 1.397 . S
C63 C62 1.383 . S
H64 C69 0.929 . S
H65 C74 0.931 . S
H66 C72 0.930 . S
N67 N68 1.234 . S
N67 C71 1.453 . S
N68 N67 1.234 . S
C69 H64 0.929 . S
C69 C70 1.373 . S
C69 C71 1.368 . S
C70 C69 1.373 . S
C70 C74 1.397 . S
C71 N67 1.453 . S
C71 C69 1.368 . S
C71 C72 1.373 . S
C72 H66 0.930 . S
C72 C71 1.373 . S
C72 C73 1.371 . S
C73 C72 1.371 . S
C73 C74 1.383 . S
C74 H65 0.931 . S
C74 C70 1.397 . S
C74 C73 1.383 . S
H75 C80 0.929 . S
H76 C85 0.931 . S
H77 C83 0.930 . S
N78 N79 1.234 . S
N78 C82 1.453 . S
N79 N78 1.234 . S
C80 H75 0.929 . S
C80 C81 1.373 . S
C80 C82 1.368 . S
C81 C80 1.373 . S
C81 C85 1.397 . S
C82 N78 1.453 . S
C82 C80 1.368 . S
C82 C83 1.373 . S
C83 H77 0.930 . S
C83 C82 1.373 . S
C83 C84 1.371 . S
C84 C83 1.371 . S
C84 C85 1.383 . S
C85 H76 0.931 . S
C85 C81 1.397 . S
C85 C84 1.383 . S
H86 C94 0.929 . S
H87 C96 0.930 . S
H88 C98 0.930 . S
H89 C101 0.929 . S
H90 C104 0.930 . S
H91 C106 0.960 . S
H92 C106 0.960 . S
H93 C106 0.960 . S
C94 H86 0.929 . S
C94 C95 1.377 1_556 S
C94 C96 1.384 . S
C95 C94 1.377 1_554 S
C95 C101 1.390 . S
C96 H87 0.930 . S
C96 C94 1.384 . S
C96 C97 1.372 1_556 S
C97 C96 1.372 1_554 S
C97 C98 1.400 . S
C97 C102 1.490 . S
C98 H88 0.930 . S
C98 C97 1.400 . S
C98 C101 1.386 . S
H99 C115 0.930 . S
H100 C116 0.931 . S
C101 H89 0.929 . S
C101 C95 1.390 . S
C101 C98 1.386 . S
C102 C97 1.490 . S
C102 C104 1.395 . S
C102 C105 1.403 . S
H103 C109 0.930 . S
C104 H90 0.930 . S
C104 C102 1.395 . S
C104 C107 1.403 . S
C105 C102 1.403 . S
C105 C106 1.524 . S
C105 C109 1.400 . S
C106 H91 0.960 . S
C106 H92 0.960 . S
C106 H93 0.960 . S
C106 C105 1.524 . S
C107 C104 1.403 . S
C107 C108 1.392 . S
C107 C111 1.495 . S
C108 C107 1.392 . S
C108 C109 1.385 . S
C108 C110 1.478 . S
C109 H103 0.930 . S
C109 C105 1.400 . S
C109 C108 1.385 . S
C110 C108 1.478 . S
C110 C112 1.381 . S
C110 C116 1.383 . S
C111 C107 1.495 . S
C111 H117 0.959 . S
C111 H118 0.961 . S
C111 H119 0.960 . S
C112 C110 1.381 . S
C112 C113 1.394 . S
C112 H120 0.930 1_554 S
C113 C112 1.394 . S
C113 C114 1.383 . S
C113 H121 0.929 . S
C114 C113 1.383 . S
C114 C115 1.377 . S
C115 H99 0.930 . S
C115 C114 1.377 . S
C115 C116 1.379 . S
C116 H100 0.931 . S
C116 C110 1.383 . S
C116 C115 1.379 . S
H117 C111 0.959 . S
H118 C111 0.961 . S
H119 C111 0.960 . S
H120 C112 0.930 1_556 S
H121 C113 0.929 . S
H122 C130 0.929 . S
H123 C132 0.930 . S
H124 C134 0.930 . S
H125 C137 0.929 . S
H126 C140 0.930 . S
H127 C142 0.960 . S
H128 C142 0.960 . S
H129 C142 0.960 . S
C130 H122 0.929 . S
C130 C131 1.377 . S
C130 C132 1.384 . S
C131 C130 1.377 . S
C131 C137 1.390 1_554 S
C132 H123 0.930 . S
C132 C130 1.384 . S
C132 C133 1.372 . S
C133 C132 1.372 . S
C133 C134 1.400 1_554 S
C133 C138 1.490 . S
C134 H124 0.930 . S
C134 C133 1.400 1_556 S
C134 C137 1.386 . S
H135 C151 0.930 . S
H136 C152 0.931 . S
C137 H125 0.929 . S
C137 C131 1.390 1_556 S
C137 C134 1.386 . S
C138 C133 1.490 . S
C138 C140 1.395 1_554 S
C138 C141 1.403 . S
H139 C145 0.930 . S
C140 H126 0.930 . S
C140 C138 1.395 1_556 S
C140 C143 1.403 . S
C141 C138 1.403 . S
C141 C142 1.524 . S
C141 C145 1.400 . S
C142 H127 0.960 . S
C142 H128 0.960 . S
C142 H129 0.960 . S
C142 C141 1.524 . S
C143 C140 1.403 . S
C143 C144 1.392 . S
C143 C147 1.495 . S
C144 C143 1.392 . S
C144 C145 1.385 1_556 S
C144 C146 1.478 . S
C145 H139 0.930 . S
C145 C141 1.400 . S
C145 C144 1.385 1_554 S
C146 C144 1.478 . S
C146 C148 1.381 1_556 S
C146 C152 1.383 . S
C147 C143 1.495 . S
C147 H153 0.959 . S
C147 H154 0.961 . S
C147 H155 0.960 . S
C148 C146 1.381 1_554 S
C148 C149 1.394 . S
C148 H156 0.930 . S
C149 C148 1.394 . S
C149 C150 1.383 1_554 S
C149 H157 0.929 . S
C150 C149 1.383 1_556 S
C150 C151 1.377 . S
C151 H135 0.930 . S
C151 C150 1.377 . S
C151 C152 1.379 . S
C152 H136 0.931 . S
C152 C146 1.383 . S
C152 C151 1.379 . S
H153 C147 0.959 . S
H154 C147 0.961 . S
H155 C147 0.960 . S
H156 C148 0.930 . S
H157 C149 0.929 . S
H158 C166 0.936 . S
H159 C168 0.930 1_556 S
H160 C170 0.930 . S
H161 C173 0.929 . S
H162 C176 0.930 . S
H163 C178 0.960 . S
H164 C178 0.960 . S
H165 C178 0.960 1_554 S
C166 H158 0.936 . S
C166 C167 1.374 1_556 S
C166 C168 1.380 1_556 S
C167 C166 1.374 1_554 S
C167 C173 1.390 . S
C168 H159 0.930 1_554 S
C168 C166 1.380 1_554 S
C168 C169 1.372 . S
C169 C168 1.372 . S
C169 C170 1.400 . S
C169 C174 1.490 . S
C170 H160 0.930 . S
C170 C169 1.400 . S
C170 C173 1.386 . S
H171 C187 0.930 . S
H172 C188 0.931 . S
C173 H161 0.929 . S
C173 C167 1.390 . S
C173 C170 1.386 . S
C174 C169 1.490 . S
C174 C176 1.395 . S
C174 C177 1.403 . S
H175 C181 0.930 . S
C176 H162 0.930 . S
C176 C174 1.395 . S
C176 C179 1.403 . S
C177 C174 1.403 . S
C177 C178 1.524 1_554 S
C177 C181 1.400 . S
C178 H163 0.960 . S
C178 H164 0.960 . S
C178 H165 0.960 1_556 S
C178 C177 1.524 1_556 S
C179 C176 1.403 . S
C179 C180 1.392 . S
C179 C183 1.495 . S
C180 C179 1.392 . S
C180 C181 1.385 . S
C180 C182 1.478 . S
C181 H175 0.930 . S
C181 C177 1.400 . S
C181 C180 1.385 . S
C182 C180 1.478 . S
C182 C184 1.381 . S
C182 C188 1.383 . S
C183 C179 1.495 . S
C183 H189 0.959 . S
C183 H190 0.961 . S
C183 H191 0.960 . S
C184 C182 1.381 . S
C184 C185 1.394 . S
C184 H192 0.930 . S
C185 C184 1.394 . S
C185 C186 1.383 . S
C185 H193 0.929 . S
C186 C185 1.383 . S
C186 C187 1.377 . S
C187 H171 0.930 . S
C187 C186 1.377 . S
C187 C188 1.379 . S
C188 H172 0.931 . S
C188 C182 1.383 . S
C188 C187 1.379 . S
H189 C183 0.959 . S
H190 C183 0.961 . S
H191 C183 0.960 . S
H192 C184 0.930 . S
H193 C185 0.929 . S
H194 C202 0.929 . S
H195 C204 0.930 . S
H196 C206 0.930 . S
H197 C209 0.929 . S
H198 C212 0.930 . S
H199 C214 0.960 . S
H200 C214 0.960 . S
H201 C214 0.960 . S
C202 H194 0.929 . S
C202 C203 1.377 . S
C202 C204 1.384 . S
C203 C202 1.377 . S
C203 C209 1.390 1_556 S
C204 H195 0.930 . S
C204 C202 1.384 . S
C204 C205 1.372 . S
C205 C204 1.372 . S
C205 C206 1.400 1_556 S
C205 C210 1.490 . S
C206 H196 0.930 . S
C206 C205 1.400 1_554 S
C206 C209 1.386 . S
H207 C223 0.930 1_554 S
H208 C224 0.931 1_554 S
C209 H197 0.929 . S
C209 C203 1.390 1_554 S
C209 C206 1.386 . S
C210 C205 1.490 . S
C210 C212 1.395 . S
C210 C213 1.403 . S
H211 C217 0.923 1_554 S
C212 H198 0.930 . S
C212 C210 1.395 . S
C212 C215 1.403 . S
C213 C210 1.403 . S
C213 C214 1.524 1_556 S
C213 C217 1.400 . S
C214 H199 0.960 . S
C214 H200 0.960 . S
C214 H201 0.960 . S
C214 C213 1.524 1_554 S
C215 C212 1.403 . S
C215 C216 1.392 . S
C215 C219 1.495 . S
C216 C215 1.392 . S
C216 C217 1.385 . S
C216 C218 1.478 . S
C217 H211 0.923 1_556 S
C217 C213 1.400 . S
C217 C216 1.385 . S
C218 C216 1.478 . S
C218 C220 1.381 . S
C218 C224 1.383 . S
C219 C215 1.495 . S
C219 H225 0.959 . S
C219 H226 0.961 . S
C219 H227 0.960 . S
C220 C218 1.381 . S
C220 C221 1.394 . S
C220 H228 0.930 . S
C221 C220 1.394 . S
C221 C222 1.383 . S
C221 H229 0.929 . S
C222 C221 1.383 . S
C222 C223 1.377 . S
C223 H207 0.930 1_556 S
C223 C222 1.377 . S
C223 C224 1.379 . S
C224 H208 0.931 1_556 S
C224 C218 1.383 . S
C224 C223 1.379 . S
H225 C219 0.959 . S
H226 C219 0.961 . S
H227 C219 0.960 . S
H228 C220 0.930 . S
H229 C221 0.929 . S
H230 C238 0.929 . S
H231 C240 0.930 . S
H232 C242 0.930 . S
H233 C245 0.929 . S
H234 C248 0.930 . S
H235 C250 0.960 . S
H236 C250 0.960 . S
H237 C250 0.960 . S
C238 H230 0.929 . S
C238 C239 1.377 . S
C238 C240 1.384 . S
C239 C238 1.377 . S
C239 C245 1.390 . S
C240 H231 0.930 . S
C240 C238 1.384 . S
C240 C241 1.372 . S
C241 C240 1.372 . S
C241 C242 1.400 . S
C241 C246 1.490 . S
C242 H232 0.930 . S
C242 C241 1.400 . S
C242 C245 1.386 . S
H243 C259 0.930 . S
H244 C260 0.931 . S
C245 H233 0.929 . S
C245 C239 1.390 . S
C245 C242 1.386 . S
C246 C241 1.490 . S
C246 C248 1.395 . S
C246 C249 1.403 . S
H247 C253 0.930 . S
C248 H234 0.930 . S
C248 C246 1.395 . S
C248 C251 1.403 . S
C249 C246 1.403 . S
C249 C250 1.524 . S
C249 C253 1.400 . S
C250 H235 0.960 . S
C250 H236 0.960 . S
C250 H237 0.960 . S
C250 C249 1.524 . S
C251 C248 1.403 . S
C251 C252 1.392 . S
C251 C255 1.495 . S
C252 C251 1.392 . S
C252 C253 1.385 . S
C252 C254 1.478 . S
C253 H247 0.930 . S
C253 C249 1.400 . S
C253 C252 1.385 . S
C254 C252 1.478 . S
C254 C256 1.381 . S
C254 C260 1.383 . S
C255 C251 1.495 . S
C255 H261 0.959 . S
C255 H262 0.961 . S
C255 H263 0.960 . S
C256 C254 1.381 . S
C256 C257 1.394 . S
C256 H264 0.930 . S
C257 C256 1.394 . S
C257 C258 1.383 . S
C257 H265 0.929 . S
C258 C257 1.383 . S
C258 C259 1.377 . S
C259 H243 0.930 . S
C259 C258 1.377 . S
C259 C260 1.379 . S
C260 H244 0.931 . S
C260 C254 1.383 . S
C260 C259 1.379 . S
H261 C255 0.959 . S
H262 C255 0.961 . S
H263 C255 0.960 . S
H264 C256 0.930 . S
H265 C257 0.929 . S
H266 C274 0.929 . S
H267 C276 0.930 . S
H268 C278 0.930 . S
H269 C281 0.929 . S
H270 C284 0.930 . S
H271 C286 0.960 . S
H272 C286 0.960 . S
H273 C286 0.960 . S
C274 H266 0.929 . S
C274 C275 1.377 . S
C274 C276 1.384 . S
C275 C274 1.377 . S
C275 C281 1.390 . S
C276 H267 0.930 . S
C276 C274 1.384 . S
C276 C277 1.372 . S
C277 C276 1.372 . S
C277 C278 1.400 . S
C277 C282 1.490 . S
C278 H268 0.930 . S
C278 C277 1.400 . S
C278 C281 1.386 . S
H279 C295 0.930 . S
H280 C296 0.931 . S
C281 H269 0.929 . S
C281 C275 1.390 . S
C281 C278 1.386 . S
C282 C277 1.490 . S
C282 C284 1.395 . S
C282 C285 1.403 . S
H283 C289 0.930 . S
C284 H270 0.930 . S
C284 C282 1.395 . S
C284 C287 1.403 . S
C285 C282 1.403 . S
C285 C286 1.524 . S
C285 C289 1.400 . S
C286 H271 0.960 . S
C286 H272 0.960 . S
C286 H273 0.960 . S
C286 C285 1.524 . S
C287 C284 1.403 . S
C287 C288 1.392 . S
C287 C291 1.495 . S
C288 C287 1.392 . S
C288 C289 1.385 . S
C288 C290 1.478 . S
C289 H283 0.930 . S
C289 C285 1.400 . S
C289 C288 1.385 . S
C290 C288 1.478 . S
C290 C292 1.381 . S
C290 C296 1.383 . S
C291 C287 1.495 . S
C291 H297 0.959 . S
C291 H298 0.961 . S
C291 H299 0.960 . S
C292 C290 1.381 . S
C292 C293 1.394 . S
C292 H300 0.930 . S
C293 C292 1.394 . S
C293 C294 1.383 . S
C293 H301 0.929 1_655 S
C294 C293 1.383 . S
C294 C295 1.377 . S
C295 H279 0.930 . S
C295 C294 1.377 . S
C295 C296 1.379 . S
C296 H280 0.931 . S
C296 C290 1.383 . S
C296 C295 1.379 . S
H297 C291 0.959 . S
H298 C291 0.961 . S
H299 C291 0.960 . S
H300 C292 0.930 . S
H301 C293 0.929 1_455 S
H302 C310 0.929 . S
H303 C312 0.930 . S
H304 C314 0.930 . S
H305 C317 0.929 . S
H306 C320 0.930 . S
H307 C322 0.960 . S
H308 C322 0.960 . S
H309 C322 0.960 . S
C310 H302 0.929 . S
C310 C311 1.377 . S
C310 C312 1.384 . S
C311 C310 1.377 . S
C311 C317 1.390 . S
C312 H303 0.930 . S
C312 C310 1.384 . S
C312 C313 1.372 . S
C313 C312 1.372 . S
C313 C314 1.400 . S
C313 C318 1.490 . S
C314 H304 0.930 . S
C314 C313 1.400 . S
C314 C317 1.386 . S
H315 C331 0.930 . S
H316 C332 0.931 . S
C317 H305 0.929 . S
C317 C311 1.390 . S
C317 C314 1.386 . S
C318 C313 1.490 . S
C318 C320 1.395 . S
C318 C321 1.403 . S
H319 C325 0.930 . S
C320 H306 0.930 . S
C320 C318 1.395 . S
C320 C323 1.403 . S
C321 C318 1.403 . S
C321 C322 1.524 . S
C321 C325 1.400 . S
C322 H307 0.960 . S
C322 H308 0.960 . S
C322 H309 0.960 . S
C322 C321 1.524 . S
C323 C320 1.403 . S
C323 C324 1.392 . S
C323 C327 1.495 . S
C324 C323 1.392 . S
C324 C325 1.385 . S
C324 C326 1.478 . S
C325 H319 0.930 . S
C325 C321 1.400 . S
C325 C324 1.385 . S
C326 C324 1.478 . S
C326 C328 1.381 . S
C326 C332 1.383 . S
C327 C323 1.495 . S
C327 H333 0.959 . S
C327 H334 0.961 . S
C327 H335 0.960 . S
C328 C326 1.381 . S
C328 C329 1.394 . S
C328 H336 0.930 . S
C329 C328 1.394 . S
C329 C330 1.383 . S
C329 H337 0.929 . S
C330 C329 1.383 . S
C330 C331 1.377 . S
C331 H315 0.930 . S
C331 C330 1.377 . S
C331 C332 1.379 . S
C332 H316 0.931 . S
C332 C326 1.383 . S
C332 C331 1.379 . S
H333 C327 0.959 . S
H334 C327 0.961 . S
H335 C327 0.960 . S
H336 C328 0.930 . S
H337 C329 0.929 . S
H338 C346 0.929 . S
H339 C348 0.930 . S
H340 C350 0.930 . S
H341 C353 0.929 . S
H342 C356 0.930 . S
H343 C358 0.960 . S
H344 C358 0.960 . S
H345 C358 0.960 . S
C346 H338 0.929 . S
C346 C347 1.377 . S
C346 C348 1.384 . S
C347 C346 1.377 . S
C347 C353 1.390 . S
C348 H339 0.930 . S
C348 C346 1.384 . S
C348 C349 1.372 . S
C349 C348 1.372 . S
C349 C350 1.400 . S
C349 C354 1.490 . S
C350 H340 0.930 . S
C350 C349 1.400 . S
C350 C353 1.386 . S
H351 C367 0.930 . S
H352 C368 0.931 . S
C353 H341 0.929 . S
C353 C347 1.390 . S
C353 C350 1.386 . S
C354 C349 1.490 . S
C354 C356 1.395 . S
C354 C357 1.403 . S
H355 C361 0.930 . S
C356 H342 0.930 . S
C356 C354 1.395 . S
C356 C359 1.403 . S
C357 C354 1.403 . S
C357 C358 1.524 . S
C357 C361 1.400 . S
C358 H343 0.960 . S
C358 H344 0.960 . S
C358 H345 0.960 . S
C358 C357 1.524 . S
C359 C356 1.403 . S
C359 C360 1.392 . S
C359 C363 1.495 . S
C360 C359 1.392 . S
C360 C361 1.385 . S
C360 C362 1.478 . S
C361 H355 0.930 . S
C361 C357 1.400 . S
C361 C360 1.385 . S
C362 C360 1.478 . S
C362 C364 1.381 . S
C362 C368 1.383 . S
C363 C359 1.495 . S
C363 H369 0.959 . S
C363 H370 0.961 . S
C363 H371 0.960 . S
C364 C362 1.381 . S
C364 C365 1.394 . S
C364 H372 0.930 . S
C365 C364 1.394 . S
C365 C366 1.383 . S
C365 H373 0.929 . S
C366 C365 1.383 . S
C366 C367 1.377 . S
C367 H351 0.930 . S
C367 C366 1.377 . S
C367 C368 1.379 . S
C368 H352 0.931 . S
C368 C362 1.383 . S
C368 C367 1.379 . S
H369 C363 0.959 . S
H370 C363 0.961 . S
H371 C363 0.960 . S
H372 C364 0.930 . S
H373 C365 0.929 . S
H374 C382 0.928 1_655 S
H375 C384 0.930 1_655 S
H376 C386 0.930 . S
H377 C389 0.929 . S
H378 C392 0.930 1_655 S
H379 C394 0.960 . S
H380 C394 0.960 . S
H381 C394 0.960 . S
C382 H374 0.928 1_455 S
C382 C383 1.377 . S
C382 C384 1.384 . S
C383 C382 1.377 . S
C383 C389 1.390 1_545 S
C384 H375 0.930 1_455 S
C384 C382 1.384 . S
C384 C385 1.372 . S
C385 C384 1.372 . S
C385 C386 1.400 1_545 S
C385 C390 1.492 . S
C386 H376 0.930 . S
C386 C385 1.400 1_565 S
C386 C389 1.386 . S
H387 C403 0.930 . S
H388 C404 0.931 . S
C389 H377 0.929 . S
C389 C383 1.390 1_565 S
C389 C386 1.386 . S
C390 C385 1.492 . S
C390 C392 1.390 1_545 S
C390 C393 1.406 . S
H391 C397 0.930 . S
C392 H378 0.930 1_455 S
C392 C390 1.390 1_565 S
C392 C395 1.403 . S
C393 C390 1.406 . S
C393 C394 1.524 . S
C393 C397 1.400 . S
C394 H379 0.960 . S
C394 H380 0.960 . S
C394 H381 0.960 . S
C394 C393 1.524 . S
C395 C392 1.403 . S
C395 C396 1.392 . S
C395 C399 1.495 1_455 S
C396 C395 1.392 . S
C396 C397 1.385 1_565 S
C396 C398 1.478 . S
C397 H391 0.930 . S
C397 C393 1.400 . S
C397 C396 1.385 1_545 S
C398 C396 1.478 . S
C398 C400 1.381 1_565 S
C398 C404 1.383 . S
C399 C395 1.495 1_655 S
C399 H405 0.959 . S
C399 H406 0.961 . S
C399 H407 0.960 . S
C400 C398 1.381 1_545 S
C400 C401 1.394 . S
C400 H408 0.930 1_455 S
C401 C400 1.394 . S
C401 C402 1.383 1_545 S
C401 H409 0.929 . S
C402 C401 1.383 1_565 S
C402 C403 1.377 . S
C403 H387 0.930 . S
C403 C402 1.377 . S
C403 C404 1.379 . S
C404 H388 0.931 . S
C404 C398 1.383 . S
C404 C403 1.379 . S
H405 C399 0.959 . S
H406 C399 0.961 . S
H407 C399 0.960 . S
H408 C400 0.930 1_655 S
H409 C401 0.929 . S
H410 C418 0.929 . S
H411 C420 0.930 . S
H412 C422 0.930 . S
H413 C425 0.929 . S
H414 C428 0.930 1_565 S
H415 C430 0.960 . S
H416 C430 0.960 . S
H417 C430 0.960 . S
C418 H410 0.929 . S
C418 C419 1.377 1_565 S
C418 C420 1.384 . S
C419 C418 1.377 1_545 S
C419 C425 1.390 . S
C420 H411 0.930 . S
C420 C418 1.384 . S
C420 C421 1.372 1_565 S
C421 C420 1.372 1_545 S
C421 C422 1.400 . S
C421 C426 1.490 . S
C422 H412 0.930 . S
C422 C421 1.400 . S
C422 C425 1.386 . S
H423 C439 0.930 . S
H424 C440 0.931 . S
C425 H413 0.929 . S
C425 C419 1.390 . S
C425 C422 1.386 . S
C426 C421 1.490 . S
C426 C428 1.395 1_455 S
C426 C429 1.403 . S
H427 C433 0.930 . S
C428 H414 0.930 1_545 S
C428 C426 1.395 1_655 S
C428 C431 1.403 . S
C429 C426 1.403 . S
C429 C430 1.524 . S
C429 C433 1.400 . S
C430 H415 0.960 . S
C430 H416 0.960 . S
C430 H417 0.960 . S
C430 C429 1.524 . S
C431 C428 1.403 . S
C431 C432 1.392 1_655 S
C431 C435 1.495 1_545 S
C432 C431 1.392 1_455 S
C432 C433 1.385 . S
C432 C434 1.478 1_455 S
C433 H427 0.930 . S
C433 C429 1.400 . S
C433 C432 1.385 . S
C434 C432 1.478 1_655 S
C434 C436 1.381 1_655 S
C434 C440 1.383 . S
C435 C431 1.495 1_565 S
C435 H441 0.959 . S
C435 H442 0.961 . S
C435 H443 0.960 . S
C436 C434 1.381 1_455 S
C436 C437 1.394 . S
C436 H444 0.930 1_545 S
C437 C436 1.394 . S
C437 C438 1.383 1_455 S
C437 H445 0.929 1_545 S
C438 C437 1.383 1_655 S
C438 C439 1.377 . S
C439 H423 0.930 . S
C439 C438 1.377 . S
C439 C440 1.379 . S
C440 H424 0.931 . S
C440 C434 1.383 . S
C440 C439 1.379 . S
H441 C435 0.959 . S
H442 C435 0.961 . S
H443 C435 0.960 . S
H444 C436 0.930 1_565 S
H445 C437 0.929 1_565 S
H446 C454 0.929 . S
H447 C456 0.930 . S
H448 C458 0.930 . S
H449 C461 0.929 . S
H450 C464 0.930 . S
H451 C466 0.960 . S
H452 C466 0.960 . S
H453 C466 0.960 . S
C454 H446 0.929 . S
C454 C455 1.377 . S
C454 C456 1.384 . S
C455 C454 1.377 . S
C455 C461 1.390 . S
C456 H447 0.930 . S
C456 C454 1.384 . S
C456 C457 1.372 . S
C457 C456 1.372 . S
C457 C458 1.400 . S
C457 C462 1.490 . S
C458 H448 0.930 . S
C458 C457 1.400 . S
C458 C461 1.386 . S
H459 C475 0.930 . S
H460 C476 0.931 . S
C461 H449 0.929 . S
C461 C455 1.390 . S
C461 C458 1.386 . S
C462 C457 1.490 . S
C462 C464 1.395 . S
C462 C465 1.403 . S
H463 C469 0.930 . S
C464 H450 0.930 . S
C464 C462 1.395 . S
C464 C467 1.403 . S
C465 C462 1.403 . S
C465 C466 1.524 . S
C465 C469 1.400 . S
C466 H451 0.960 . S
C466 H452 0.960 . S
C466 H453 0.960 . S
C466 C465 1.524 . S
C467 C464 1.403 . S
C467 C468 1.392 . S
C467 C471 1.495 . S
C468 C467 1.392 . S
C468 C469 1.385 . S
C468 C470 1.478 . S
C469 H463 0.930 . S
C469 C465 1.400 . S
C469 C468 1.385 . S
C470 C468 1.478 . S
C470 C472 1.381 . S
C470 C476 1.383 . S
C471 C467 1.495 . S
C471 H477 0.959 . S
C471 H478 0.961 . S
C471 H479 0.960 . S
C472 C470 1.381 . S
C472 C473 1.394 . S
C472 H480 0.930 . S
C473 C472 1.394 . S
C473 C474 1.383 . S
C473 H481 0.929 . S
C474 C473 1.383 . S
C474 C475 1.377 . S
C475 H459 0.930 . S
C475 C474 1.377 . S
C475 C476 1.379 . S
C476 H460 0.931 . S
C476 C470 1.383 . S
C476 C475 1.379 . S
H477 C471 0.959 . S
H478 C471 0.961 . S
H479 C471 0.960 . S
H480 C472 0.930 . S
H481 C473 0.929 . S
H482 C490 0.929 . S
H483 C492 0.930 . S
H484 C494 0.930 . S
H485 C497 0.929 . S
H486 C500 0.930 . S
H487 C502 0.960 . S
H488 C502 0.960 . S
H489 C502 0.960 . S
C490 H482 0.929 . S
C490 C491 1.377 . S
C490 C492 1.384 . S
C491 C490 1.377 . S
C491 C497 1.390 . S
C492 H483 0.930 . S
C492 C490 1.384 . S
C492 C493 1.372 . S
C493 C492 1.372 . S
C493 C494 1.400 . S
C493 C498 1.490 . S
C494 H484 0.930 . S
C494 C493 1.400 . S
C494 C497 1.386 . S
H495 C511 0.930 . S
H496 C512 0.931 . S
C497 H485 0.929 . S
C497 C491 1.390 . S
C497 C494 1.386 . S
C498 C493 1.490 . S
C498 C500 1.395 . S
C498 C501 1.403 . S
H499 C505 0.930 . S
C500 H486 0.930 . S
C500 C498 1.395 . S
C500 C503 1.403 . S
C501 C498 1.403 . S
C501 C502 1.524 . S
C501 C505 1.400 . S
C502 H487 0.960 . S
C502 H488 0.960 . S
C502 H489 0.960 . S
C502 C501 1.524 . S
C503 C500 1.403 . S
C503 C504 1.392 . S
C503 C507 1.495 . S
C504 C503 1.392 . S
C504 C505 1.385 . S
C504 C506 1.478 . S
C505 H499 0.930 . S
C505 C501 1.400 . S
C505 C504 1.385 . S
C506 C504 1.478 . S
C506 C508 1.381 . S
C506 C512 1.383 . S
C507 C503 1.495 . S
C507 H513 0.959 . S
C507 H514 0.961 . S
C507 H515 0.960 . S
C508 C506 1.381 . S
C508 C509 1.394 . S
C508 H516 0.930 . S
C509 C508 1.394 . S
C509 C510 1.383 . S
C509 H517 0.929 . S
C510 C509 1.383 . S
C510 C511 1.377 . S
C511 H495 0.930 . S
C511 C510 1.377 . S
C511 C512 1.379 . S
C512 H496 0.931 . S
C512 C506 1.383 . S
C512 C511 1.379 . S
H513 C507 0.959 . S
H514 C507 0.961 . S
H515 C507 0.960 . S
H516 C508 0.930 . S
H517 C509 0.929 . S
C114 C81 1.438 . S
C95 C15 1.283 . S
C131 C13 1.371 . S
C150 N68 1.346 . S
C167 C18 1.250 . S
C186 N79 1.378 . S
C203 C17 1.411 . S
C222 C70 1.435 . S
C239 C36 1.285 . S
C258 C59 1.405 1_565 S
C275 C34 1.369 . S
C294 N46 1.374 . S
C330 N57 1.385 . S
C311 C39 1.246 . S
C366 C48 1.449 . S
C347 C38 1.405 . S
C383 C14 1.572 . S
C402 C51 1.616 . S
C419 C16 1.385 . S
C438 C62 1.391 . S
C474 C73 1.617 . S
C455 C35 1.578 . S
C491 C37 1.375 . S
C510 C84 1.418 . S
