# Generated by pormake.
# Topology rtl, (3,6)-cn, num edge types: 1
# Building blocks:
#     Node 0, Type 0, BuildingBlock: ESEHIV_clean_linker_0, # of connection points: 3
#     Node 1, Type 0, BuildingBlock: ESEHIV_clean_linker_0, # of connection points: 3
#     Node 2, Type 0, BuildingBlock: ESEHIV_clean_linker_0, # of connection points: 3
#     Node 3, Type 0, BuildingBlock: ESEHIV_clean_linker_0, # of connection points: 3
#     Node 4, Type 1, BuildingBlock: VOLQOD_clean_sbu_1, # of connection points: 6
#     Node 5, Type 1, BuildingBlock: VOLQOD_clean_sbu_1, # of connection points: 6
#     Edge 6, Type (0, 1), BuildingBlock: KIFKEQ_clean_linker_1, # of connection points: 2
#     Edge 7, Type (0, 1), BuildingBlock: KIFKEQ_clean_linker_1, # of connection points: 2
#     Edge 8, Type (0, 1), BuildingBlock: KIFKEQ_clean_linker_1, # of connection points: 2
#     Edge 9, Type (0, 1), BuildingBlock: KIFKEQ_clean_linker_1, # of connection points: 2
#     Edge 10, Type (0, 1), BuildingBlock: KIFKEQ_clean_linker_1, # of connection points: 2
#     Edge 11, Type (0, 1), BuildingBlock: KIFKEQ_clean_linker_1, # of connection points: 2
#     Edge 12, Type (0, 1), BuildingBlock: KIFKEQ_clean_linker_1, # of connection points: 2
#     Edge 13, Type (0, 1), BuildingBlock: KIFKEQ_clean_linker_1, # of connection points: 2
#     Edge 14, Type (0, 1), BuildingBlock: KIFKEQ_clean_linker_1, # of connection points: 2
#     Edge 15, Type (0, 1), BuildingBlock: KIFKEQ_clean_linker_1, # of connection points: 2
#     Edge 16, Type (0, 1), BuildingBlock: KIFKEQ_clean_linker_1, # of connection points: 2
#     Edge 17, Type (0, 1), BuildingBlock: KIFKEQ_clean_linker_1, # of connection points: 2
# Relax obj value: 0.079
# Max RMSD: 0.156
# Mean RMSD: 0.088
data_MOF--net-rtl--node1-VOLQOD_clean_sbu_1--node2-ESEHIV_clean_linker_0--edge1-KIFKEQ_clean_linker_1
_symmetry_space_group_name_H-M    P1
_symmetry_Int_Tables_number       1
_symmetry_cell_setting            triclinic
loop_
_symmetry_equiv_pos_as_xyz
'x, y, z'
_cell_length_a     35.708764
_cell_length_b     30.299489
_cell_length_c     23.290574
_cell_angle_alpha  90.141686
_cell_angle_beta   90.67187
_cell_angle_gamma 89.912103
loop_
_atom_site_label
_atom_site_type_symbol
_atom_site_fract_x
_atom_site_fract_y
_atom_site_fract_z
_atom_type_partial_charge
H0 H 0.06568 0.78545 0.00481 0.0
H1 H 0.1477 0.70565 0.09144 0.0
H2 H 0.13667 0.69874 0.90762 0.0
C3 C 0.08671 0.75969 0.003 0.0
C4 C 0.09857 0.74353 0.94954 0.0
C5 C 0.10388 0.74566 0.05428 0.0
C6 C 0.1334 0.71514 0.05205 0.0
C7 C 0.14575 0.69858 -0.00085 0.0
C8 C 0.12754 0.71207 0.94833 0.0
H9 H 0.56374 0.74614 0.53511 0.0
H10 H 0.64792 0.81042 0.43456 0.0
H11 H 0.64875 0.82391 0.61845 0.0
C12 C 0.58777 0.76778 0.53224 0.0
C13 C 0.60441 0.78393 0.5829 0.0
C14 C 0.60331 0.77679 0.47836 0.0
C15 C 0.63476 0.80455 0.47552 0.0
C16 C 0.65128 0.82182 0.52585 0.0
C17 C 0.63584 0.8114 0.57934 0.0
H18 H 0.93292 0.2445 0.98991 0.0
H19 H 0.84861 0.30901 0.09073 0.0
H20 H 0.84868 0.32369 0.90707 0.0
C21 C 0.90899 0.26638 -0.00708 0.0
C22 C 0.89266 0.28304 0.94239 0.0
C23 C 0.89325 0.27521 0.04679 0.0
C24 C 0.86191 0.30327 0.0498 0.0
C25 C 0.84569 0.32101 -0.00041 0.0
C26 C 0.86136 0.31081 0.9461 0.0
H27 H 0.43203 0.28626 0.52383 0.0
H28 H 0.35449 0.20327 0.61371 0.0
H29 H 0.35175 0.2094 0.42929 0.0
C30 C 0.41029 0.26134 0.52343 0.0
C31 C 0.39421 0.24879 0.4707 0.0
C32 C 0.39641 0.24501 0.57554 0.0
C33 C 0.3661 0.21532 0.57398 0.0
C34 C 0.34929 0.20305 0.52144 0.0
C35 C 0.36422 0.21908 0.47006 0.0
O36 O 0.90768 0.01022 0.49919 0.0
Zn37 Zn 0.95381 0.04915 0.49915 0.0
O38 O -0.00026 0.01335 0.50211 0.0
Zn39 Zn 0.02745 0.02615 0.57301 0.0
Zn40 Zn 0.98743 0.95052 0.49976 0.0
Zn41 Zn 0.03091 0.02717 0.4365 0.0
O42 O 0.0802 0.04602 0.55697 0.0
O43 O 0.0813 0.04939 0.46185 0.0
O44 O 0.95121 0.09056 0.56716 0.0
O45 O 0.00256 0.07443 0.61755 0.0
O46 O 0.03023 0.97281 0.62399 0.0
O47 O 0.00691 0.91875 0.56986 0.0
O48 O 0.00832 0.92013 0.43008 0.0
O49 O 0.95216 0.087 0.42795 0.0
O50 O 0.03987 0.97363 0.38756 0.0
O51 O 0.0065 0.073 0.3862 0.0
C52 C 0.90365 0.96841 0.49871 0.0
C53 C 0.09729 0.05434 0.51057 0.0
C54 C 0.02201 0.93233 0.6164 0.0
C55 C 0.97272 0.09688 0.61044 0.0
C56 C 0.02907 0.93367 0.38974 0.0
C57 C 0.97532 0.0934 0.38762 0.0
O58 O 0.93182 0.94261 0.49845 0.0
O59 O 0.58965 0.51142 0.02546 0.0
Zn60 Zn 0.54347 0.5505 0.02531 0.0
O61 O 0.49754 0.51486 0.02227 0.0
Zn62 Zn 0.47013 0.52702 0.9511 0.0
Zn63 Zn 0.50983 0.45202 0.02507 0.0
Zn64 Zn 0.46605 0.52947 0.08746 0.0
O65 O 0.41733 0.54676 0.96682 0.0
O66 O 0.41524 0.5507 0.06186 0.0
O67 O 0.5461 0.59145 0.95711 0.0
O68 O 0.495 0.57496 0.90631 0.0
O69 O 0.46721 0.47315 0.90079 0.0
O70 O 0.48943 0.41927 0.95605 0.0
O71 O 0.49002 0.42282 0.09599 0.0
O72 O 0.5449 0.5889 0.09629 0.0
O73 O 0.4581 0.47668 0.1377 0.0
O74 O 0.49001 0.57619 0.13686 0.0
C75 C 0.59362 0.46959 0.0253 0.0
C76 C 0.39967 0.55515 0.01277 0.0
C77 C 0.47464 0.43256 0.90919 0.0
C78 C 0.52475 0.59748 0.91361 0.0
C79 C 0.46948 0.43687 0.13641 0.0
C80 C 0.52134 0.59616 0.1359 0.0
O81 O 0.56542 0.44394 0.0252 0.0
H82 H 0.33015 0.13073 0.58617 0.0
H83 H 0.28768 0.21856 0.45465 0.0
H84 H 0.27049 0.0908 0.5844 0.0
H85 H 0.22888 0.17863 0.45247 0.0
H86 H 0.14237 0.07414 0.42038 0.0
H87 H 0.20487 0.10574 0.42362 0.0
H88 H 0.20314 0.10468 0.60899 0.0
H89 H 0.14051 0.07235 0.60602 0.0
C90 C 0.30818 0.14144 0.55691 0.0
C91 C 0.31385 0.17745 0.52004 0.0
C92 C 0.2741 0.11862 0.5559 0.0
C93 C 0.2452 0.13135 0.51788 0.0
C94 C 0.25091 0.16739 0.4813 0.0
C95 C 0.28471 0.19021 0.48248 0.0
C96 C 0.15529 0.08034 0.46194 0.0
C97 C 0.13621 0.07112 0.51297 0.0
C98 C 0.1911 0.09857 0.46373 0.0
C99 C 0.20873 0.10805 0.51654 0.0
C100 C 0.19031 0.09746 0.56765 0.0
C101 C 0.15435 0.07922 0.5659 0.0
H102 H 0.16618 0.62965 0.06907 0.0
H103 H 0.20352 0.70627 0.92443 0.0
H104 H 0.22583 0.58995 0.0704 0.0
H105 H 0.26282 0.66684 0.92578 0.0
H106 H 0.35646 0.5672 0.91614 0.0
H107 H 0.29273 0.59584 0.91019 0.0
H108 H 0.29061 0.60817 0.09497 0.0
H109 H 0.35394 0.57872 0.10116 0.0
C110 C 0.18702 0.63779 0.03738 0.0
C111 C 0.18013 0.67107 -0.00335 0.0
C112 C 0.22116 0.61515 0.03819 0.0
C113 C 0.2491 0.62535 -0.00169 0.0
C114 C 0.2417 0.65767 0.95652 0.0
C115 C 0.20764 0.68026 0.95571 0.0
C116 C 0.34234 0.57576 0.95555 0.0
C117 C 0.36045 0.57094 0.00911 0.0
C118 C 0.30585 0.5923 0.95209 0.0
C119 C 0.28665 0.6044 0.00208 0.0
C120 C 0.30443 0.59862 0.05569 0.0
C121 C 0.34089 0.58206 0.05918 0.0
H122 H 0.66958 0.88859 0.45203 0.0
H123 H 0.71362 0.81087 0.59274 0.0
H124 H 0.73006 0.92619 0.44428 0.0
H125 H 0.77335 0.8489 0.58583 0.0
H126 H 0.88563 0.88133 0.5073 0.0
H127 H 0.82381 0.84865 0.51347 0.0
H128 H 0.77332 0.97785 0.50025 0.0
H129 H 0.8356 0.01105 0.49363 0.0
C130 C 0.69208 0.8798 0.48147 0.0
C131 C 0.68688 0.84685 0.52302 0.0
C132 C 0.72651 0.90151 0.47732 0.0
C133 C 0.75642 0.89026 0.51424 0.0
C134 C 0.75092 0.85791 0.55638 0.0
C135 C 0.71657 0.83647 0.56074 0.0
C136 C 0.86147 0.90295 0.5055 0.0
C137 C 0.86566 0.9489 0.50025 0.0
C138 C 0.82601 0.88416 0.50938 0.0
C139 C 0.79379 0.91074 0.5079 0.0
C140 C 0.79773 0.95659 0.50133 0.0
C141 C 0.83337 0.97555 0.49779 0.0
H142 H 0.82711 0.38746 0.07433 0.0
H143 H 0.78373 0.31097 0.93165 0.0
H144 H 0.76673 0.42563 0.08164 0.0
H145 H 0.72414 0.34956 0.93812 0.0
H146 H 0.61145 0.38247 0.0153 0.0
H147 H 0.6732 0.34933 0.00961 0.0
H148 H 0.72403 0.47804 0.02567 0.0
H149 H 0.66178 0.51171 0.03182 0.0
C150 C 0.80479 0.37906 0.04438 0.0
C151 C 0.81015 0.3463 0.00238 0.0
C152 C 0.77042 0.40109 0.04827 0.0
C153 C 0.74073 0.39036 0.01064 0.0
C154 C 0.7464 0.35818 0.9681 0.0
C155 C 0.78067 0.33642 0.96401 0.0
C156 C 0.63567 0.40389 0.0178 0.0
C157 C 0.63158 0.44984 0.02374 0.0
C158 C 0.67109 0.38484 0.0142 0.0
C159 C 0.70339 0.41114 0.01665 0.0
C160 C 0.69955 0.45699 0.02385 0.0
C161 C 0.66394 0.47622 0.0271 0.0
H162 H 0.03355 0.75919 0.09566 0.0
H163 H 0.15048 0.7803 0.13624 0.0
H164 H 0.01609 0.80138 0.18099 0.0
H165 H 0.13307 0.82195 0.2218 0.0
H166 H 0.00157 0.85102 0.36668 0.0
H167 H 0.02042 0.8008 0.28984 0.0
H168 H 0.102 0.8959 0.23354 0.0
H169 H 0.08337 0.94601 0.30995 0.0
C170 C 0.05546 0.77238 0.12328 0.0
C171 C 0.09334 0.76659 0.10935 0.0
C172 C 0.0455 0.79623 0.17222 0.0
C173 C 0.07325 0.81511 0.20775 0.0
C174 C 0.11113 0.80807 0.19483 0.0
C175 C 0.12108 0.78389 0.14622 0.0
C176 C 0.02366 0.8611 0.33807 0.0
C177 C 0.0409 0.90257 0.34432 0.0
C178 C 0.03431 0.83242 0.29403 0.0
C179 C 0.06273 0.84443 0.25593 0.0
C180 C 0.08033 0.88556 0.26274 0.0
C181 C 0.06943 0.91439 0.30627 0.0
H182 H 0.53272 0.77772 0.62233 0.0
H183 H 0.64778 0.75076 0.66936 0.0
H184 H 0.51188 0.73901 0.70807 0.0
H185 H 0.62718 0.71126 0.75405 0.0
H186 H 0.58078 0.65919 0.91939 0.0
H187 H 0.59821 0.71238 0.84597 0.0
H188 H 0.50946 0.66329 0.73544 0.0
H189 H 0.49136 0.61137 0.80918 0.0
C190 C 0.55352 0.76395 0.65143 0.0
C191 C 0.59182 0.76709 0.63914 0.0
C192 C 0.54164 0.74157 0.70032 0.0
C193 C 0.56783 0.72148 0.73762 0.0
C194 C 0.60622 0.7267 0.72675 0.0
C195 C 0.61808 0.74937 0.67814 0.0
C196 C 0.56485 0.65999 0.87955 0.0
C197 C 0.53481 0.63083 0.87007 0.0
C198 C 0.5749 0.69041 0.83739 0.0
C199 C 0.55527 0.69216 0.78472 0.0
C200 C 0.5248 0.66351 0.77582 0.0
C201 C 0.51462 0.63337 0.81802 0.0
H202 H 0.90075 0.3064 0.1576 0.0
H203 H 0.91621 0.18932 0.05391 0.0
H204 H 0.92188 0.26537 0.2426 0.0
H205 H 0.93831 0.14939 0.13787 0.0
H206 H 0.01194 0.10497 0.28652 0.0
H207 H 0.99385 0.15217 0.20635 0.0
H208 H 0.89839 0.19878 0.30111 0.0
H209 H 0.91637 0.15146 0.38179 0.0
C210 C 0.90872 0.2721 0.15282 0.0
C211 C 0.90722 0.25141 0.09866 0.0
C212 C 0.92085 0.24871 0.20141 0.0
C213 C 0.93206 0.20439 0.19659 0.0
C214 C 0.93057 0.18379 0.14262 0.0
C215 C 0.91808 0.20686 0.09439 0.0
C216 C 0.98724 0.12547 0.29061 0.0
C217 C 0.96543 0.12413 0.34044 0.0
C218 C 0.97685 0.1524 0.24458 0.0
C219 C 0.94464 0.17891 0.24748 0.0
C220 C 0.92349 0.17884 0.29794 0.0
C221 C 0.93367 0.15152 0.3439 0.0
H222 H 0.35689 0.2647 0.67301 0.0
H223 H 0.46884 0.26757 0.6038 0.0
H224 H 0.37925 0.30404 0.75814 0.0
H225 H 0.4902 0.30951 0.68771 0.0
H226 H 0.47233 0.44756 0.79419 0.0
H227 H 0.4568 0.39494 0.71777 0.0
H228 H 0.44077 0.29282 0.84373 0.0
H229 H 0.45751 0.34511 0.92065 0.0
C230 C 0.38638 0.27265 0.67629 0.0
C231 C 0.41096 0.26315 0.63099 0.0
C232 C 0.39903 0.29545 0.72498 0.0
C233 C 0.43625 0.30979 0.72886 0.0
C234 C 0.46128 0.29881 0.68521 0.0
C235 C 0.4489 0.27517 0.63709 0.0
C236 C 0.46573 0.41383 0.80561 0.0
C237 C 0.46604 0.40038 0.86328 0.0
C238 C 0.4571 0.3838 0.76195 0.0
C239 C 0.44783 0.34009 0.77527 0.0
C240 C 0.44802 0.32644 0.83277 0.0
C241 C 0.4576 0.35626 0.87649 0.0
H242 H 0.59589 0.80861 0.36801 0.0
H243 H 0.57964 0.69127 0.47007 0.0
H244 H 0.57465 0.76817 0.2824 0.0
H245 H 0.55734 0.652 0.38552 0.0
H246 H 0.48385 0.609 0.23604 0.0
H247 H 0.50173 0.6562 0.31654 0.0
H248 H 0.59834 0.70095 0.2236 0.0
H249 H 0.5806 0.65357 0.14258 0.0
C250 C 0.5877 0.7744 0.37233 0.0
C251 C 0.58906 0.75345 0.4262 0.0
C252 C 0.5755 0.75135 0.32339 0.0
C253 C 0.56404 0.70715 0.32759 0.0
C254 C 0.5653 0.68632 0.38128 0.0
C255 C 0.57789 0.70903 0.42984 0.0
C256 C 0.50875 0.62912 0.23238 0.0
C257 C 0.53098 0.62719 0.18301 0.0
C258 C 0.519 0.65605 0.2786 0.0
C259 C 0.5515 0.68198 0.27633 0.0
C260 C 0.57303 0.68144 0.22626 0.0
C261 C 0.56299 0.65409 0.18012 0.0
H262 H 0.96445 0.27665 0.90335 0.0
H263 H 0.84948 0.25056 0.85519 0.0
H264 H 0.98547 0.23826 0.81717 0.0
H265 H 0.87025 0.2113 0.77012 0.0
H266 H 0.91679 0.15893 0.60478 0.0
H267 H 0.89934 0.21224 0.67848 0.0
H268 H 0.98797 0.16279 0.78889 0.0
H269 H 0.00611 0.11079 0.71488 0.0
C270 C 0.94371 0.26314 0.87391 0.0
C271 C 0.90538 0.26643 0.886 0.0
C272 C 0.95569 0.24094 0.82477 0.0
C273 C 0.92958 0.22114 0.78704 0.0
C274 C 0.89116 0.22653 0.79773 0.0
C275 C 0.87921 0.24904 0.84658 0.0
C276 C 0.93269 0.15969 0.64466 0.0
C277 C 0.96271 0.13041 0.65403 0.0
C278 C 0.92264 0.19018 0.68697 0.0
C279 C 0.94221 0.19186 0.7397 0.0
C280 C 0.97267 0.16309 0.74847 0.0
C281 C 0.98288 0.1329 0.70612 0.0
H282 H 0.34899 0.28436 0.38811 0.0
H283 H 0.46543 0.26388 0.43303 0.0
H284 H 0.36742 0.32663 0.30418 0.0
H285 H 0.48391 0.30692 0.34909 0.0
H286 H 0.49845 0.35518 0.16122 0.0
H287 H 0.48051 0.30588 0.23924 0.0
H288 H 0.39816 0.40089 0.29461 0.0
H289 H 0.41587 0.45008 0.21709 0.0
C290 C 0.37854 0.28828 0.37948 0.0
C291 C 0.40581 0.27079 0.41703 0.0
C292 C 0.38906 0.31284 0.33179 0.0
C293 C 0.42705 0.32027 0.32045 0.0
C294 C 0.45442 0.30148 0.35675 0.0
C295 C 0.44387 0.27716 0.40486 0.0
C296 C 0.47643 0.36546 0.18994 0.0
C297 C 0.45857 0.40655 0.18296 0.0
C298 C 0.46634 0.33733 0.23468 0.0
C299 C 0.43787 0.34954 0.27269 0.0
C300 C 0.41989 0.39043 0.26546 0.0
C301 C 0.43023 0.41871 0.22126 0.0
H302 H 0.13629 0.7603 0.84977 0.0
H303 H 0.0268 0.77242 0.92627 0.0
H304 H 0.11374 0.80043 0.76582 0.0
H305 H 0.00544 0.8153 0.84337 0.0
H306 H 0.02432 0.94888 0.73119 0.0
H307 H 0.03866 0.89683 0.80855 0.0
H308 H 0.05302 0.79262 0.68422 0.0
H309 H 0.03749 0.84434 0.60647 0.0
C310 C 0.10724 0.77053 0.84845 0.0
C311 C 0.08348 0.76316 0.89535 0.0
C312 C 0.0945 0.79381 0.80039 0.0
C313 C 0.05806 0.81094 0.79868 0.0
C314 C 0.03379 0.80247 0.84419 0.0
C315 C 0.0462 0.77827 0.89173 0.0
C316 C 0.03029 0.91481 0.72037 0.0
C317 C 0.02992 0.90061 0.66291 0.0
C318 C 0.0382 0.8851 0.76456 0.0
C319 C 0.04669 0.84095 0.75196 0.0
C320 C 0.04636 0.82658 0.69466 0.0
C321 C 0.0375 0.85608 0.65044 0.0
loop_
_geom_bond_atom_site_label_1
_geom_bond_atom_site_label_2
_geom_bond_distance
_geom_bond_site_symmetry_2
_ccdc_geom_bond_type
H0 C3 0.931 . S
H1 C6 0.928 . S
H2 C8 0.930 . S
C3 H0 0.931 . S
C3 C4 1.413 1_554 S
C3 C5 1.360 . S
C4 C3 1.413 1_556 S
C4 C8 1.429 . S
C5 C3 1.360 . S
C5 C6 1.372 . S
C6 H1 0.928 . S
C6 C5 1.372 . S
C6 C7 1.404 . S
C7 C6 1.404 . S
C7 C8 1.391 1_554 S
C8 H2 0.930 . S
C8 C4 1.429 . S
C8 C7 1.391 1_556 S
H9 C12 0.931 . S
H10 C15 0.928 . S
H11 C17 0.930 . S
C12 H9 0.931 . S
C12 C13 1.413 . S
C12 C14 1.360 . S
C13 C12 1.413 . S
C13 C17 1.429 . S
C14 C12 1.360 . S
C14 C15 1.372 . S
C15 H10 0.928 . S
C15 C14 1.372 . S
C15 C16 1.404 . S
C16 C15 1.404 . S
C16 C17 1.391 . S
C17 H11 0.930 . S
C17 C13 1.429 . S
C17 C16 1.391 . S
H18 C21 0.931 . S
H19 C24 0.928 . S
H20 C26 0.930 . S
C21 H18 0.931 . S
C21 C22 1.413 1_554 S
C21 C23 1.360 . S
C22 C21 1.413 1_556 S
C22 C26 1.429 . S
C23 C21 1.360 . S
C23 C24 1.372 . S
C24 H19 0.928 . S
C24 C23 1.372 . S
C24 C25 1.404 . S
C25 C24 1.404 . S
C25 C26 1.391 1_554 S
C26 H20 0.930 . S
C26 C22 1.429 . S
C26 C25 1.391 1_556 S
H27 C30 0.931 . S
H28 C33 0.928 . S
H29 C35 0.930 . S
C30 H27 0.931 . S
C30 C31 1.413 . S
C30 C32 1.360 . S
C31 C30 1.413 . S
C31 C35 1.429 . S
C32 C30 1.360 . S
C32 C33 1.372 . S
C33 H28 0.928 . S
C33 C32 1.372 . S
C33 C34 1.404 . S
C34 C33 1.404 . S
C34 C35 1.391 . S
C35 H29 0.930 . S
C35 C31 1.429 . S
C35 C34 1.391 . S
O36 Zn37 1.953 1_565 S
O36 C52 1.225 . S
Zn37 O36 1.953 1_545 S
Zn37 O38 1.949 1_655 S
Zn37 O44 1.919 . S
Zn37 O49 1.924 . S
O38 Zn37 1.949 1_455 S
O38 Zn39 1.923 . S
O38 Zn40 1.950 1_445 S
O38 Zn41 1.945 . S
Zn39 O38 1.923 . S
Zn39 O42 1.933 . S
Zn39 O45 1.941 . S
Zn39 O46 1.965 1_545 S
Zn40 O38 1.950 1_665 S
Zn40 O47 1.938 1_655 S
Zn40 O48 1.906 1_655 S
Zn40 O58 1.953 . S
Zn41 O38 1.945 . S
Zn41 O43 1.932 . S
Zn41 O50 1.977 1_545 S
Zn41 O51 1.910 1_455 S
O42 Zn39 1.933 . S
O42 C53 1.226 . S
O43 Zn41 1.932 . S
O43 C53 1.307 . S
O44 Zn37 1.919 . S
O44 C55 1.253 . S
O45 Zn39 1.941 . S
O45 C55 1.283 1_455 S
O46 Zn39 1.965 1_565 S
O46 C54 1.303 . S
O47 Zn40 1.938 1_455 S
O47 C54 1.247 . S
O48 Zn40 1.906 1_455 S
O48 C56 1.304 . S
O49 Zn37 1.924 . S
O49 C57 1.311 . S
O50 Zn41 1.977 1_565 S
O50 C56 1.272 . S
O51 Zn41 1.910 1_655 S
O51 C57 1.231 . S
C52 O36 1.225 . S
C52 O58 1.298 . S
C53 O42 1.226 . S
C53 O43 1.307 . S
C54 O46 1.303 . S
C54 O47 1.247 . S
C55 O44 1.253 . S
C55 O45 1.283 1_655 S
C56 O48 1.304 . S
C56 O50 1.272 . S
C57 O49 1.311 . S
C57 O51 1.231 . S
O58 Zn40 1.953 . S
O58 C52 1.298 . S
O59 Zn60 1.953 . S
O59 C75 1.225 . S
Zn60 O59 1.953 . S
Zn60 O61 1.949 . S
Zn60 O67 1.919 1_554 S
Zn60 O72 1.924 . S
O61 Zn60 1.949 . S
O61 Zn62 1.923 1_554 S
O61 Zn63 1.950 . S
O61 Zn64 1.945 . S
Zn62 O61 1.923 1_556 S
Zn62 O65 1.933 . S
Zn62 O68 1.941 . S
Zn62 O69 1.965 . S
Zn63 O61 1.950 . S
Zn63 O70 1.938 1_554 S
Zn63 O71 1.906 . S
Zn63 O81 1.953 . S
Zn64 O61 1.945 . S
Zn64 O66 1.932 . S
Zn64 O73 1.977 . S
Zn64 O74 1.910 . S
O65 Zn62 1.933 . S
O65 C76 1.226 1_556 S
O66 Zn64 1.932 . S
O66 C76 1.307 . S
O67 Zn60 1.919 1_556 S
O67 C78 1.253 . S
O68 Zn62 1.941 . S
O68 C78 1.283 . S
O69 Zn62 1.965 . S
O69 C77 1.303 . S
O70 Zn63 1.938 1_556 S
O70 C77 1.247 . S
O71 Zn63 1.906 . S
O71 C79 1.304 . S
O72 Zn60 1.924 . S
O72 C80 1.311 . S
O73 Zn64 1.977 . S
O73 C79 1.272 . S
O74 Zn64 1.910 . S
O74 C80 1.231 . S
C75 O59 1.225 . S
C75 O81 1.298 . S
C76 O65 1.226 1_554 S
C76 O66 1.307 . S
C77 O69 1.303 . S
C77 O70 1.247 . S
C78 O67 1.253 . S
C78 O68 1.283 . S
C79 O71 1.304 . S
C79 O73 1.272 . S
C80 O72 1.311 . S
C80 O74 1.231 . S
O81 Zn63 1.953 . S
O81 C75 1.298 . S
H82 C90 0.950 . S
H83 C95 0.950 . S
H84 C92 0.950 . S
H85 C94 0.950 . S
H86 C96 0.950 . S
H87 C98 0.950 . S
H88 C100 0.950 . S
H89 C101 0.950 . S
C90 H82 0.950 . S
C90 C91 1.386 . S
C90 C92 1.391 . S
C91 C90 1.386 . S
C91 C95 1.393 . S
C92 H84 0.950 . S
C92 C90 1.391 . S
C92 C93 1.400 . S
C93 C92 1.400 . S
C93 C94 1.398 . S
C93 C99 1.491 . S
C94 H85 0.950 . S
C94 C93 1.398 . S
C94 C95 1.391 . S
C95 H83 0.950 . S
C95 C91 1.393 . S
C95 C94 1.391 . S
C96 H86 0.950 . S
C96 C97 1.386 . S
C96 C98 1.391 . S
C97 C96 1.386 . S
C97 C101 1.393 . S
C98 H87 0.950 . S
C98 C96 1.391 . S
C98 C99 1.400 . S
C99 C93 1.491 . S
C99 C98 1.400 . S
C99 C100 1.398 . S
C100 H88 0.950 . S
C100 C99 1.398 . S
C100 C101 1.391 . S
C101 H89 0.950 . S
C101 C97 1.393 . S
C101 C100 1.391 . S
H102 C110 0.950 . S
H103 C115 0.950 . S
H104 C112 0.950 . S
H105 C114 0.950 . S
H106 C116 0.950 . S
H107 C118 0.950 . S
H108 C120 0.950 . S
H109 C121 0.950 . S
C110 H102 0.950 . S
C110 C111 1.386 . S
C110 C112 1.391 . S
C111 C110 1.386 . S
C111 C115 1.393 1_554 S
C112 H104 0.950 . S
C112 C110 1.391 . S
C112 C113 1.400 . S
C113 C112 1.400 . S
C113 C114 1.398 1_554 S
C113 C119 1.491 . S
C114 H105 0.950 . S
C114 C113 1.398 1_556 S
C114 C115 1.391 . S
C115 H103 0.950 . S
C115 C111 1.393 1_556 S
C115 C114 1.391 . S
C116 H106 0.950 . S
C116 C117 1.386 1_556 S
C116 C118 1.391 . S
C117 C116 1.386 1_554 S
C117 C121 1.393 . S
C118 H107 0.950 . S
C118 C116 1.391 . S
C118 C119 1.400 1_556 S
C119 C113 1.491 . S
C119 C118 1.400 1_554 S
C119 C120 1.398 . S
C120 H108 0.950 . S
C120 C119 1.398 . S
C120 C121 1.391 . S
C121 H109 0.950 . S
C121 C117 1.393 . S
C121 C120 1.391 . S
H122 C130 0.950 . S
H123 C135 0.950 . S
H124 C132 0.950 . S
H125 C134 0.950 . S
H126 C136 0.950 . S
H127 C138 0.950 . S
H128 C140 0.950 . S
H129 C141 0.950 . S
C130 H122 0.950 . S
C130 C131 1.386 . S
C130 C132 1.391 . S
C131 C130 1.386 . S
C131 C135 1.393 . S
C132 H124 0.950 . S
C132 C130 1.391 . S
C132 C133 1.400 . S
C133 C132 1.400 . S
C133 C134 1.398 . S
C133 C139 1.491 . S
C134 H125 0.950 . S
C134 C133 1.398 . S
C134 C135 1.391 . S
C135 H123 0.950 . S
C135 C131 1.393 . S
C135 C134 1.391 . S
C136 H126 0.950 . S
C136 C137 1.386 . S
C136 C138 1.391 . S
C137 C136 1.386 . S
C137 C141 1.393 . S
C138 H127 0.950 . S
C138 C136 1.391 . S
C138 C139 1.400 . S
C139 C133 1.491 . S
C139 C138 1.400 . S
C139 C140 1.398 . S
C140 H128 0.950 . S
C140 C139 1.398 . S
C140 C141 1.391 . S
C141 H129 0.950 . S
C141 C137 1.393 . S
C141 C140 1.391 . S
H142 C150 0.950 . S
H143 C155 0.950 . S
H144 C152 0.950 . S
H145 C154 0.950 . S
H146 C156 0.950 . S
H147 C158 0.950 . S
H148 C160 0.950 . S
H149 C161 0.950 . S
C150 H142 0.950 . S
C150 C151 1.386 . S
C150 C152 1.391 . S
C151 C150 1.386 . S
C151 C155 1.393 1_554 S
C152 H144 0.950 . S
C152 C150 1.391 . S
C152 C153 1.400 . S
C153 C152 1.400 . S
C153 C154 1.398 1_554 S
C153 C159 1.491 . S
C154 H145 0.950 . S
C154 C153 1.398 1_556 S
C154 C155 1.391 . S
C155 H143 0.950 . S
C155 C151 1.393 1_556 S
C155 C154 1.391 . S
C156 H146 0.950 . S
C156 C157 1.386 1_556 S
C156 C158 1.391 . S
C157 C156 1.386 1_554 S
C157 C161 1.393 . S
C158 H147 0.950 . S
C158 C156 1.391 . S
C158 C159 1.400 1_556 S
C159 C153 1.491 . S
C159 C158 1.400 1_554 S
C159 C160 1.398 . S
C160 H148 0.950 . S
C160 C159 1.398 . S
C160 C161 1.391 . S
C161 H149 0.950 . S
C161 C157 1.393 . S
C161 C160 1.391 . S
H162 C170 0.950 . S
H163 C175 0.950 . S
H164 C172 0.950 . S
H165 C174 0.950 . S
H166 C176 0.950 . S
H167 C178 0.950 . S
H168 C180 0.950 . S
H169 C181 0.950 . S
C170 H162 0.950 . S
C170 C171 1.386 . S
C170 C172 1.391 . S
C171 C170 1.386 . S
C171 C175 1.393 . S
C172 H164 0.950 . S
C172 C170 1.391 . S
C172 C173 1.400 . S
C173 C172 1.400 . S
C173 C174 1.398 . S
C173 C179 1.491 . S
C174 H165 0.950 . S
C174 C173 1.398 . S
C174 C175 1.391 . S
C175 H163 0.950 . S
C175 C171 1.393 . S
C175 C174 1.391 . S
C176 H166 0.950 . S
C176 C177 1.386 . S
C176 C178 1.391 . S
C177 C176 1.386 . S
C177 C181 1.393 . S
C178 H167 0.950 . S
C178 C176 1.391 . S
C178 C179 1.400 . S
C179 C173 1.491 . S
C179 C178 1.400 . S
C179 C180 1.398 . S
C180 H168 0.950 . S
C180 C179 1.398 . S
C180 C181 1.391 . S
C181 H169 0.950 . S
C181 C177 1.393 . S
C181 C180 1.391 . S
H182 C190 0.950 . S
H183 C195 0.950 . S
H184 C192 0.950 . S
H185 C194 0.950 . S
H186 C196 0.950 . S
H187 C198 0.950 . S
H188 C200 0.950 . S
H189 C201 0.950 . S
C190 H182 0.950 . S
C190 C191 1.386 . S
C190 C192 1.391 . S
C191 C190 1.386 . S
C191 C195 1.393 . S
C192 H184 0.950 . S
C192 C190 1.391 . S
C192 C193 1.400 . S
C193 C192 1.400 . S
C193 C194 1.398 . S
C193 C199 1.491 . S
C194 H185 0.950 . S
C194 C193 1.398 . S
C194 C195 1.391 . S
C195 H183 0.950 . S
C195 C191 1.393 . S
C195 C194 1.391 . S
C196 H186 0.950 . S
C196 C197 1.386 . S
C196 C198 1.391 . S
C197 C196 1.386 . S
C197 C201 1.393 . S
C198 H187 0.950 . S
C198 C196 1.391 . S
C198 C199 1.400 . S
C199 C193 1.491 . S
C199 C198 1.400 . S
C199 C200 1.398 . S
C200 H188 0.950 . S
C200 C199 1.398 . S
C200 C201 1.391 . S
C201 H189 0.950 . S
C201 C197 1.393 . S
C201 C200 1.391 . S
H202 C210 0.950 . S
H203 C215 0.950 . S
H204 C212 0.950 . S
H205 C214 0.950 . S
H206 C216 0.950 . S
H207 C218 0.950 . S
H208 C220 0.950 . S
H209 C221 0.950 . S
C210 H202 0.950 . S
C210 C211 1.386 . S
C210 C212 1.391 . S
C211 C210 1.386 . S
C211 C215 1.393 . S
C212 H204 0.950 . S
C212 C210 1.391 . S
C212 C213 1.400 . S
C213 C212 1.400 . S
C213 C214 1.398 . S
C213 C219 1.491 . S
C214 H205 0.950 . S
C214 C213 1.398 . S
C214 C215 1.391 . S
C215 H203 0.950 . S
C215 C211 1.393 . S
C215 C214 1.391 . S
C216 H206 0.950 . S
C216 C217 1.386 . S
C216 C218 1.391 . S
C217 C216 1.386 . S
C217 C221 1.393 . S
C218 H207 0.950 . S
C218 C216 1.391 . S
C218 C219 1.400 . S
C219 C213 1.491 . S
C219 C218 1.400 . S
C219 C220 1.398 . S
C220 H208 0.950 . S
C220 C219 1.398 . S
C220 C221 1.391 . S
C221 H209 0.950 . S
C221 C217 1.393 . S
C221 C220 1.391 . S
H222 C230 0.950 . S
H223 C235 0.950 . S
H224 C232 0.950 . S
H225 C234 0.950 . S
H226 C236 0.950 . S
H227 C238 0.950 . S
H228 C240 0.950 . S
H229 C241 0.950 . S
C230 H222 0.950 . S
C230 C231 1.386 . S
C230 C232 1.391 . S
C231 C230 1.386 . S
C231 C235 1.393 . S
C232 H224 0.950 . S
C232 C230 1.391 . S
C232 C233 1.400 . S
C233 C232 1.400 . S
C233 C234 1.398 . S
C233 C239 1.491 . S
C234 H225 0.950 . S
C234 C233 1.398 . S
C234 C235 1.391 . S
C235 H223 0.950 . S
C235 C231 1.393 . S
C235 C234 1.391 . S
C236 H226 0.950 . S
C236 C237 1.386 . S
C236 C238 1.391 . S
C237 C236 1.386 . S
C237 C241 1.393 . S
C238 H227 0.950 . S
C238 C236 1.391 . S
C238 C239 1.400 . S
C239 C233 1.491 . S
C239 C238 1.400 . S
C239 C240 1.398 . S
C240 H228 0.950 . S
C240 C239 1.398 . S
C240 C241 1.391 . S
C241 H229 0.950 . S
C241 C237 1.393 . S
C241 C240 1.391 . S
H242 C250 0.950 . S
H243 C255 0.950 . S
H244 C252 0.950 . S
H245 C254 0.950 . S
H246 C256 0.950 . S
H247 C258 0.950 . S
H248 C260 0.950 . S
H249 C261 0.950 . S
C250 H242 0.950 . S
C250 C251 1.386 . S
C250 C252 1.391 . S
C251 C250 1.386 . S
C251 C255 1.393 . S
C252 H244 0.950 . S
C252 C250 1.391 . S
C252 C253 1.400 . S
C253 C252 1.400 . S
C253 C254 1.398 . S
C253 C259 1.491 . S
C254 H245 0.950 . S
C254 C253 1.398 . S
C254 C255 1.391 . S
C255 H243 0.950 . S
C255 C251 1.393 . S
C255 C254 1.391 . S
C256 H246 0.950 . S
C256 C257 1.386 . S
C256 C258 1.391 . S
C257 C256 1.386 . S
C257 C261 1.393 . S
C258 H247 0.950 . S
C258 C256 1.391 . S
C258 C259 1.400 . S
C259 C253 1.491 . S
C259 C258 1.400 . S
C259 C260 1.398 . S
C260 H248 0.950 . S
C260 C259 1.398 . S
C260 C261 1.391 . S
C261 H249 0.950 . S
C261 C257 1.393 . S
C261 C260 1.391 . S
H262 C270 0.950 . S
H263 C275 0.950 . S
H264 C272 0.950 . S
H265 C274 0.950 . S
H266 C276 0.950 . S
H267 C278 0.950 . S
H268 C280 0.950 1_455 S
H269 C281 0.950 . S
C270 H262 0.950 . S
C270 C271 1.386 . S
C270 C272 1.391 . S
C271 C270 1.386 . S
C271 C275 1.393 . S
C272 H264 0.950 . S
C272 C270 1.391 . S
C272 C273 1.400 . S
C273 C272 1.400 . S
C273 C274 1.398 . S
C273 C279 1.491 . S
C274 H265 0.950 . S
C274 C273 1.398 . S
C274 C275 1.391 . S
C275 H263 0.950 . S
C275 C271 1.393 . S
C275 C274 1.391 . S
C276 H266 0.950 . S
C276 C277 1.386 . S
C276 C278 1.391 . S
C277 C276 1.386 . S
C277 C281 1.393 1_655 S
C278 H267 0.950 . S
C278 C276 1.391 . S
C278 C279 1.400 . S
C279 C273 1.491 . S
C279 C278 1.400 . S
C279 C280 1.398 . S
C280 H268 0.950 1_655 S
C280 C279 1.398 . S
C280 C281 1.391 1_655 S
C281 H269 0.950 . S
C281 C277 1.393 1_455 S
C281 C280 1.391 1_455 S
H282 C290 0.950 . S
H283 C295 0.950 . S
H284 C292 0.950 . S
H285 C294 0.950 . S
H286 C296 0.950 . S
H287 C298 0.950 . S
H288 C300 0.950 . S
H289 C301 0.950 . S
C290 H282 0.950 . S
C290 C291 1.386 . S
C290 C292 1.391 . S
C291 C290 1.386 . S
C291 C295 1.393 . S
C292 H284 0.950 . S
C292 C290 1.391 . S
C292 C293 1.400 . S
C293 C292 1.400 . S
C293 C294 1.398 . S
C293 C299 1.491 . S
C294 H285 0.950 . S
C294 C293 1.398 . S
C294 C295 1.391 . S
C295 H283 0.950 . S
C295 C291 1.393 . S
C295 C294 1.391 . S
C296 H286 0.950 . S
C296 C297 1.386 . S
C296 C298 1.391 . S
C297 C296 1.386 . S
C297 C301 1.393 . S
C298 H287 0.950 . S
C298 C296 1.391 . S
C298 C299 1.400 . S
C299 C293 1.491 . S
C299 C298 1.400 . S
C299 C300 1.398 . S
C300 H288 0.950 . S
C300 C299 1.398 . S
C300 C301 1.391 . S
C301 H289 0.950 . S
C301 C297 1.393 . S
C301 C300 1.391 . S
H302 C310 0.950 . S
H303 C315 0.950 . S
H304 C312 0.950 . S
H305 C314 0.950 . S
H306 C316 0.950 1_655 S
H307 C318 0.950 . S
H308 C320 0.950 . S
H309 C321 0.950 . S
C310 H302 0.950 . S
C310 C311 1.386 . S
C310 C312 1.391 . S
C311 C310 1.386 . S
C311 C315 1.393 . S
C312 H304 0.950 . S
C312 C310 1.391 . S
C312 C313 1.400 . S
C313 C312 1.400 . S
C313 C314 1.398 . S
C313 C319 1.491 . S
C314 H305 0.950 . S
C314 C313 1.398 . S
C314 C315 1.391 . S
C315 H303 0.950 . S
C315 C311 1.393 . S
C315 C314 1.391 . S
C316 H306 0.950 1_455 S
C316 C317 1.386 . S
C316 C318 1.391 . S
C317 C316 1.386 . S
C317 C321 1.393 . S
C318 H307 0.950 . S
C318 C316 1.391 . S
C318 C319 1.400 . S
C319 C313 1.491 . S
C319 C318 1.400 . S
C319 C320 1.398 . S
C320 H308 0.950 . S
C320 C319 1.398 . S
C320 C321 1.391 . S
C321 H309 0.950 . S
C321 C317 1.393 . S
C321 C320 1.391 . S
C97 C53 1.528 . S
C91 C34 1.513 . S
C111 C7 1.519 . S
C117 C76 1.532 . S
C131 C16 1.526 . S
C137 C52 1.546 . S
C151 C25 1.532 . S
C157 C75 1.547 . S
C177 C56 1.489 . S
C171 C5 1.525 . S
C197 C78 1.517 . S
C191 C13 1.542 . S
C211 C23 1.520 . S
C217 C57 1.486 . S
C231 C32 1.543 . S
C237 C77 1.501 . S
C257 C80 1.483 . S
C251 C14 1.517 . S
C277 C55 1.514 . S
C271 C22 1.540 . S
C297 C79 1.489 . S
C291 C31 1.515 . S
C311 C4 1.538 . S
C317 C54 1.495 . S
