# Generated by pormake.
# Topology bwt, (3,3)-cn, num edge types: 1
# Building blocks:
#     Node 0, Type 0, BuildingBlock: OLANEW_clean_sbu_2, # of connection points: 3
#     Node 1, Type 0, BuildingBlock: OLANEW_clean_sbu_2, # of connection points: 3
#     Node 2, Type 0, BuildingBlock: OLANEW_clean_sbu_2, # of connection points: 3
#     Node 3, Type 0, BuildingBlock: OLANEW_clean_sbu_2, # of connection points: 3
#     Node 4, Type 0, BuildingBlock: OLANEW_clean_sbu_2, # of connection points: 3
#     Node 5, Type 0, BuildingBlock: OLANEW_clean_sbu_2, # of connection points: 3
#     Node 6, Type 0, BuildingBlock: OLANEW_clean_sbu_2, # of connection points: 3
#     Node 7, Type 0, BuildingBlock: OLANEW_clean_sbu_2, # of connection points: 3
#     Node 8, Type 0, BuildingBlock: OLANEW_clean_sbu_2, # of connection points: 3
#     Node 9, Type 0, BuildingBlock: OLANEW_clean_sbu_2, # of connection points: 3
#     Node 10, Type 0, BuildingBlock: OLANEW_clean_sbu_2, # of connection points: 3
#     Node 11, Type 0, BuildingBlock: OLANEW_clean_sbu_2, # of connection points: 3
#     Node 12, Type 0, BuildingBlock: OLANEW_clean_sbu_2, # of connection points: 3
#     Node 13, Type 0, BuildingBlock: OLANEW_clean_sbu_2, # of connection points: 3
#     Node 14, Type 0, BuildingBlock: OLANEW_clean_sbu_2, # of connection points: 3
#     Node 15, Type 0, BuildingBlock: OLANEW_clean_sbu_2, # of connection points: 3
#     Node 16, Type 0, BuildingBlock: OLANEW_clean_sbu_2, # of connection points: 3
#     Node 17, Type 0, BuildingBlock: OLANEW_clean_sbu_2, # of connection points: 3
#     Node 18, Type 0, BuildingBlock: OLANEW_clean_sbu_2, # of connection points: 3
#     Node 19, Type 0, BuildingBlock: OLANEW_clean_sbu_2, # of connection points: 3
#     Node 20, Type 0, BuildingBlock: OLANEW_clean_sbu_2, # of connection points: 3
#     Node 21, Type 0, BuildingBlock: OLANEW_clean_sbu_2, # of connection points: 3
#     Node 22, Type 0, BuildingBlock: OLANEW_clean_sbu_2, # of connection points: 3
#     Node 23, Type 0, BuildingBlock: OLANEW_clean_sbu_2, # of connection points: 3
#     Node 24, Type 1, BuildingBlock: QEWDON_clean_linker_0, # of connection points: 3
#     Node 25, Type 1, BuildingBlock: QEWDON_clean_linker_0, # of connection points: 3
#     Node 26, Type 1, BuildingBlock: QEWDON_clean_linker_0, # of connection points: 3
#     Node 27, Type 1, BuildingBlock: QEWDON_clean_linker_0, # of connection points: 3
#     Node 28, Type 1, BuildingBlock: QEWDON_clean_linker_0, # of connection points: 3
#     Node 29, Type 1, BuildingBlock: QEWDON_clean_linker_0, # of connection points: 3
#     Node 30, Type 1, BuildingBlock: QEWDON_clean_linker_0, # of connection points: 3
#     Node 31, Type 1, BuildingBlock: QEWDON_clean_linker_0, # of connection points: 3
#     Node 32, Type 1, BuildingBlock: QEWDON_clean_linker_0, # of connection points: 3
#     Node 33, Type 1, BuildingBlock: QEWDON_clean_linker_0, # of connection points: 3
#     Node 34, Type 1, BuildingBlock: QEWDON_clean_linker_0, # of connection points: 3
#     Node 35, Type 1, BuildingBlock: QEWDON_clean_linker_0, # of connection points: 3
#     Node 36, Type 1, BuildingBlock: QEWDON_clean_linker_0, # of connection points: 3
#     Node 37, Type 1, BuildingBlock: QEWDON_clean_linker_0, # of connection points: 3
#     Node 38, Type 1, BuildingBlock: QEWDON_clean_linker_0, # of connection points: 3
#     Node 39, Type 1, BuildingBlock: QEWDON_clean_linker_0, # of connection points: 3
#     Node 40, Type 1, BuildingBlock: QEWDON_clean_linker_0, # of connection points: 3
#     Node 41, Type 1, BuildingBlock: QEWDON_clean_linker_0, # of connection points: 3
#     Node 42, Type 1, BuildingBlock: QEWDON_clean_linker_0, # of connection points: 3
#     Node 43, Type 1, BuildingBlock: QEWDON_clean_linker_0, # of connection points: 3
#     Node 44, Type 1, BuildingBlock: QEWDON_clean_linker_0, # of connection points: 3
#     Node 45, Type 1, BuildingBlock: QEWDON_clean_linker_0, # of connection points: 3
#     Node 46, Type 1, BuildingBlock: QEWDON_clean_linker_0, # of connection points: 3
#     Node 47, Type 1, BuildingBlock: QEWDON_clean_linker_0, # of connection points: 3
#     Edge 48, Type (0, 1), None
#     Edge 49, Type (0, 1), None
#     Edge 50, Type (0, 1), None
#     Edge 51, Type (0, 1), None
#     Edge 52, Type (0, 1), None
#     Edge 53, Type (0, 1), None
#     Edge 54, Type (0, 1), None
#     Edge 55, Type (0, 1), None
#     Edge 56, Type (0, 1), None
#     Edge 57, Type (0, 1), None
#     Edge 58, Type (0, 1), None
#     Edge 59, Type (0, 1), None
#     Edge 60, Type (0, 1), None
#     Edge 61, Type (0, 1), None
#     Edge 62, Type (0, 1), None
#     Edge 63, Type (0, 1), None
#     Edge 64, Type (0, 1), None
#     Edge 65, Type (0, 1), None
#     Edge 66, Type (0, 1), None
#     Edge 67, Type (0, 1), None
#     Edge 68, Type (0, 1), None
#     Edge 69, Type (0, 1), None
#     Edge 70, Type (0, 1), None
#     Edge 71, Type (0, 1), None
#     Edge 72, Type (0, 1), None
#     Edge 73, Type (0, 1), None
#     Edge 74, Type (0, 1), None
#     Edge 75, Type (0, 1), None
#     Edge 76, Type (0, 1), None
#     Edge 77, Type (0, 1), None
#     Edge 78, Type (0, 1), None
#     Edge 79, Type (0, 1), None
#     Edge 80, Type (0, 1), None
#     Edge 81, Type (0, 1), None
#     Edge 82, Type (0, 1), None
#     Edge 83, Type (0, 1), None
#     Edge 84, Type (0, 1), None
#     Edge 85, Type (0, 1), None
#     Edge 86, Type (0, 1), None
#     Edge 87, Type (0, 1), None
#     Edge 88, Type (0, 1), None
#     Edge 89, Type (0, 1), None
#     Edge 90, Type (0, 1), None
#     Edge 91, Type (0, 1), None
#     Edge 92, Type (0, 1), None
#     Edge 93, Type (0, 1), None
#     Edge 94, Type (0, 1), None
#     Edge 95, Type (0, 1), None
#     Edge 96, Type (0, 1), None
#     Edge 97, Type (0, 1), None
#     Edge 98, Type (0, 1), None
#     Edge 99, Type (0, 1), None
#     Edge 100, Type (0, 1), None
#     Edge 101, Type (0, 1), None
#     Edge 102, Type (0, 1), None
#     Edge 103, Type (0, 1), None
#     Edge 104, Type (0, 1), None
#     Edge 105, Type (0, 1), None
#     Edge 106, Type (0, 1), None
#     Edge 107, Type (0, 1), None
#     Edge 108, Type (0, 1), None
#     Edge 109, Type (0, 1), None
#     Edge 110, Type (0, 1), None
#     Edge 111, Type (0, 1), None
#     Edge 112, Type (0, 1), None
#     Edge 113, Type (0, 1), None
#     Edge 114, Type (0, 1), None
#     Edge 115, Type (0, 1), None
#     Edge 116, Type (0, 1), None
#     Edge 117, Type (0, 1), None
#     Edge 118, Type (0, 1), None
#     Edge 119, Type (0, 1), None
# Relax obj value: 0.017
# Max RMSD: 0.078
# Mean RMSD: 0.061
data_MOF--net-bwt--node1-OLANEW_clean_sbu_2--node2-QEWDON_clean_linker_0--edge1-none
_symmetry_space_group_name_H-M    P1
_symmetry_Int_Tables_number       1
_symmetry_cell_setting            triclinic
loop_
_symmetry_equiv_pos_as_xyz
'x, y, z'
_cell_length_a     30.491439
_cell_length_b     30.49172
_cell_length_c     30.492276
_cell_angle_alpha  90.824482
_cell_angle_beta   90.82466
_cell_angle_gamma 90.824612
loop_
_atom_site_label
_atom_site_type_symbol
_atom_site_fract_x
_atom_site_fract_y
_atom_site_fract_z
_atom_type_partial_charge
O0 O 0.24631 0.5431 0.44464 0.0
Cd1 Cd 0.24742 0.51476 0.36907 0.0
O2 O 0.3026 0.58178 0.42266 0.0
Cd3 Cd 0.36023 0.62507 0.42857 0.0
O4 O 0.42166 0.64891 0.40065 0.0
C5 C 0.45108 0.62095 0.39249 0.0
O6 O 0.44437 0.58002 0.40385 0.0
C7 C 0.27658 0.57118 0.453 0.0
C8 C 0.16709 0.50086 0.3257 0.0
O9 O 0.18494 0.53916 0.32814 0.0
O10 O 0.18649 0.46935 0.34506 0.0
O11 O 0.26212 0.4619 0.94244 0.0
Cd12 Cd 0.26076 0.48851 0.8669 0.0
O13 O 0.20588 0.42312 0.91779 0.0
Cd14 Cd 0.14811 0.38024 0.92197 0.0
O15 O 0.08536 0.35612 0.89495 0.0
C16 C 0.05656 0.38441 0.88576 0.0
O17 O 0.06499 0.42587 0.89534 0.0
C18 C 0.23164 0.43408 0.94927 0.0
C19 C 0.34035 0.50267 0.82488 0.0
O20 O 0.3234 0.46407 0.82728 0.0
O21 O 0.32052 0.53439 0.84378 0.0
O22 O 0.74009 0.96382 0.5546 0.0
Cd23 Cd 0.74098 0.99132 0.63063 0.0
O24 O 0.79056 0.92087 0.58093 0.0
Cd25 Cd 0.84447 0.87462 0.57754 0.0
O26 O 0.90621 0.85061 0.60455 0.0
C27 C 0.9368 0.87865 0.61175 0.0
O28 O 0.93054 0.91949 0.60028 0.0
C29 C 0.76775 0.93364 0.54852 0.0
C30 C 0.66144 0.00336 0.67314 0.0
O31 O 0.67854 0.96529 0.67013 0.0
O32 O 0.68103 0.03543 0.65452 0.0
O33 O 0.75772 0.03613 0.05458 0.0
Cd34 Cd 0.75616 0.00899 0.12997 0.0
O35 O 0.70284 0.075 0.07798 0.0
Cd36 Cd 0.64588 0.11747 0.07327 0.0
O37 O 0.58468 0.14125 0.1009 0.0
C38 C 0.5556 0.11292 0.11076 0.0
O39 O 0.56261 0.07142 0.10146 0.0
C40 C 0.72807 0.06403 0.04705 0.0
C41 C 0.83553 0.99596 0.17445 0.0
O42 O 0.8189 0.03424 0.17191 0.0
O43 O 0.8155 0.96405 0.15453 0.0
O44 O 0.44467 0.2463 0.54309 0.0
Cd45 Cd 0.36909 0.24741 0.51475 0.0
O46 O 0.42268 0.30258 0.58177 0.0
Cd47 Cd 0.42859 0.36021 0.62506 0.0
O48 O 0.40067 0.42164 0.6489 0.0
C49 C 0.39251 0.45107 0.62094 0.0
O50 O 0.40388 0.44435 0.58001 0.0
C51 C 0.45303 0.27656 0.57117 0.0
C52 C 0.32572 0.16708 0.50085 0.0
O53 O 0.32817 0.18492 0.53915 0.0
O54 O 0.34508 0.18648 0.46934 0.0
O55 O 0.0546 0.75771 0.03612 0.0
Cd56 Cd 0.12999 0.75615 0.00897 0.0
O57 O 0.07801 0.70283 0.07499 0.0
Cd58 Cd 0.0733 0.64587 0.11746 0.0
O59 O 0.10093 0.58467 0.14123 0.0
C60 C 0.11079 0.55559 0.11291 0.0
O61 O 0.10149 0.56261 0.0714 0.0
C62 C 0.04708 0.72806 0.06402 0.0
C63 C 0.17447 0.83552 0.99595 0.0
O64 O 0.17194 0.81889 0.03422 0.0
O65 O 0.15455 0.81549 0.96403 0.0
O66 O 0.94246 0.26211 0.46188 0.0
Cd67 Cd 0.86693 0.26075 0.48849 0.0
O68 O 0.91781 0.20587 0.4231 0.0
Cd69 Cd 0.92199 0.14811 0.38023 0.0
O70 O 0.89497 0.08535 0.3561 0.0
C71 C 0.88579 0.05655 0.3844 0.0
O72 O 0.89537 0.06498 0.42585 0.0
C73 C 0.94929 0.23163 0.43407 0.0
C74 C 0.8249 0.34034 0.50266 0.0
O75 O 0.8273 0.32339 0.46406 0.0
O76 O 0.84381 0.32051 0.53437 0.0
O77 O 0.55463 0.74008 0.96381 0.0
Cd78 Cd 0.63066 0.74097 0.9913 0.0
O79 O 0.58096 0.79055 0.92085 0.0
Cd80 Cd 0.57757 0.84445 0.87461 0.0
O81 O 0.60458 0.9062 0.85059 0.0
C82 C 0.61177 0.93678 0.87863 0.0
O83 O 0.60031 0.93052 0.91948 0.0
C84 C 0.54854 0.76774 0.93363 0.0
C85 C 0.67316 0.66143 0.00335 0.0
O86 O 0.67016 0.67853 0.96527 0.0
O87 O 0.65454 0.68102 0.03541 0.0
O88 O 0.54312 0.44466 0.24628 0.0
Cd89 Cd 0.51478 0.36908 0.24739 0.0
O90 O 0.58179 0.42267 0.30257 0.0
Cd91 Cd 0.62508 0.42858 0.3602 0.0
O92 O 0.64892 0.40066 0.42163 0.0
C93 C 0.62097 0.3925 0.45106 0.0
O94 O 0.58003 0.40387 0.44434 0.0
C95 C 0.57119 0.45301 0.27655 0.0
C96 C 0.50088 0.32571 0.16706 0.0
O97 O 0.53918 0.32816 0.18491 0.0
O98 O 0.46937 0.34507 0.18646 0.0
O99 O 0.03615 0.0546 0.75769 0.0
Cd100 Cd 0.009 0.12999 0.75613 0.0
O101 O 0.07502 0.078 0.70281 0.0
Cd102 Cd 0.11748 0.07329 0.64585 0.0
O103 O 0.14126 0.10092 0.58465 0.0
C104 C 0.11293 0.11078 0.55557 0.0
O105 O 0.07143 0.10148 0.56259 0.0
C106 C 0.06404 0.04707 0.72804 0.0
C107 C 0.99598 0.17446 0.8355 0.0
O108 O 0.03425 0.17193 0.81887 0.0
O109 O 0.96406 0.15454 0.81548 0.0
O110 O 0.4619 0.94245 0.26209 0.0
Cd111 Cd 0.48852 0.86691 0.26074 0.0
O112 O 0.42313 0.9178 0.20586 0.0
Cd113 Cd 0.38026 0.92198 0.14809 0.0
O114 O 0.35613 0.89496 0.08533 0.0
C115 C 0.38442 0.88578 0.05653 0.0
O116 O 0.42588 0.89536 0.06496 0.0
C117 C 0.43409 0.94928 0.23161 0.0
C118 C 0.50268 0.82489 0.34033 0.0
O119 O 0.46408 0.82729 0.32338 0.0
O120 O 0.5344 0.84379 0.3205 0.0
O121 O 0.96383 0.55462 0.74006 0.0
Cd122 Cd 0.99132 0.63065 0.74096 0.0
O123 O 0.92088 0.58095 0.79053 0.0
Cd124 Cd 0.87463 0.57756 0.84444 0.0
O125 O 0.85062 0.60457 0.90619 0.0
C126 C 0.87866 0.61176 0.93677 0.0
O127 O 0.9195 0.6003 0.93051 0.0
C128 C 0.93365 0.54853 0.76772 0.0
C129 C 0.00337 0.67315 0.66142 0.0
O130 O 0.96529 0.67015 0.67851 0.0
O131 O 0.03544 0.65454 0.68101 0.0
O132 O 0.74499 0.40669 0.63566 0.0
Cd133 Cd 0.72781 0.42139 0.71234 0.0
O134 O 0.70318 0.45834 0.60881 0.0
Cd135 Cd 0.66473 0.46552 0.66841 0.0
O136 O 0.60208 0.45945 0.70213 0.0
C137 C 0.58375 0.42175 0.70048 0.0
O138 O 0.60447 0.38937 0.6813 0.0
C139 C 0.73225 0.42935 0.60334 0.0
C140 C 0.80815 0.44278 0.75288 0.0
O141 O 0.79337 0.40321 0.75222 0.0
O142 O 0.784 0.47246 0.73615 0.0
O143 O 0.75301 0.59356 0.13624 0.0
Cd144 Cd 0.77221 0.58056 0.21292 0.0
O145 O 0.8006 0.54828 0.1073 0.0
Cd146 Cd 0.84051 0.54217 0.16702 0.0
O147 O 0.90475 0.54776 0.19989 0.0
C148 C 0.92505 0.58416 0.19588 0.0
O149 O 0.90545 0.61588 0.17486 0.0
C150 C 0.76822 0.57377 0.10291 0.0
C151 C 0.69364 0.56003 0.25465 0.0
O152 O 0.70813 0.59966 0.25358 0.0
O153 O 0.71713 0.52999 0.23746 0.0
O154 O 0.25018 0.09244 0.3656 0.0
Cd155 Cd 0.23275 0.07574 0.28866 0.0
O156 O 0.20163 0.0469 0.39335 0.0
Cd157 Cd 0.16312 0.03852 0.33273 0.0
O158 O 0.09909 0.04408 0.30002 0.0
C159 C 0.0802 0.08073 0.30463 0.0
O160 O 0.10108 0.11259 0.32605 0.0
C161 C 0.23398 0.07333 0.39856 0.0
C162 C 0.31199 0.05473 0.24896 0.0
O163 O 0.29785 0.09412 0.24899 0.0
O164 O 0.28787 0.02507 0.26626 0.0
O165 O 0.24995 0.90593 0.86226 0.0
Cd166 Cd 0.26638 0.92125 0.78579 0.0
O167 O 0.30014 0.95056 0.8914 0.0
Cd168 Cd 0.3381 0.95803 0.83152 0.0
O169 O 0.40107 0.95347 0.79806 0.0
C170 C 0.42032 0.91688 0.80075 0.0
O171 O 0.40039 0.88454 0.82085 0.0
C172 C 0.26719 0.92501 0.89574 0.0
C173 C 0.1864 0.94167 0.74559 0.0
O174 O 0.20045 0.90226 0.74543 0.0
O175 O 0.21099 0.97167 0.76324 0.0
O176 O 0.63568 0.74498 0.40667 0.0
Cd177 Cd 0.71237 0.7278 0.42138 0.0
O178 O 0.60884 0.70318 0.45833 0.0
Cd179 Cd 0.66844 0.66472 0.46551 0.0
O180 O 0.70216 0.60207 0.45943 0.0
C181 C 0.70051 0.58374 0.42173 0.0
O182 O 0.68133 0.60446 0.38936 0.0
C183 C 0.60336 0.73224 0.42933 0.0
C184 C 0.75291 0.80814 0.44277 0.0
O185 O 0.75225 0.79336 0.4032 0.0
O186 O 0.73617 0.78399 0.47244 0.0
O187 O 0.86229 0.24994 0.90591 0.0
Cd188 Cd 0.78582 0.26637 0.92123 0.0
O189 O 0.89143 0.30013 0.95054 0.0
Cd190 Cd 0.83155 0.33808 0.95801 0.0
O191 O 0.79809 0.40105 0.95345 0.0
C192 C 0.80077 0.4203 0.91686 0.0
O193 O 0.82087 0.40038 0.88452 0.0
C194 C 0.89577 0.26718 0.92499 0.0
C195 C 0.74562 0.18639 0.94166 0.0
O196 O 0.74546 0.20043 0.90224 0.0
O197 O 0.76327 0.21097 0.97165 0.0
O198 O 0.13627 0.753 0.59354 0.0
Cd199 Cd 0.21295 0.7722 0.58054 0.0
O200 O 0.10733 0.80058 0.54827 0.0
Cd201 Cd 0.16705 0.84049 0.54216 0.0
O202 O 0.19992 0.90474 0.54774 0.0
C203 C 0.19591 0.92504 0.58414 0.0
O204 O 0.17489 0.90544 0.61587 0.0
C205 C 0.10293 0.76821 0.57375 0.0
C206 C 0.25467 0.69362 0.56002 0.0
O207 O 0.25361 0.70811 0.59965 0.0
O208 O 0.23749 0.71712 0.52998 0.0
O209 O 0.36562 0.25017 0.09243 0.0
Cd210 Cd 0.28869 0.23274 0.07572 0.0
O211 O 0.39337 0.20162 0.04688 0.0
Cd212 Cd 0.33275 0.16311 0.03851 0.0
O213 O 0.30005 0.09908 0.04407 0.0
C214 C 0.30466 0.08019 0.08071 0.0
O215 O 0.32608 0.10107 0.11257 0.0
C216 C 0.39858 0.23397 0.07332 0.0
C217 C 0.24899 0.31198 0.05472 0.0
O218 O 0.24901 0.29785 0.0941 0.0
O219 O 0.26629 0.28786 0.02506 0.0
O220 O 0.4067 0.63568 0.74496 0.0
Cd221 Cd 0.4214 0.71236 0.72779 0.0
O222 O 0.45835 0.60883 0.70316 0.0
Cd223 Cd 0.46553 0.66843 0.6647 0.0
O224 O 0.45946 0.70215 0.60205 0.0
C225 C 0.42176 0.7005 0.58372 0.0
O226 O 0.38938 0.68132 0.60444 0.0
C227 C 0.42936 0.60335 0.73222 0.0
C228 C 0.44279 0.7529 0.80813 0.0
O229 O 0.40322 0.75224 0.79334 0.0
O230 O 0.47247 0.73616 0.78398 0.0
O231 O 0.90594 0.86227 0.24992 0.0
Cd232 Cd 0.92126 0.7858 0.26635 0.0
O233 O 0.95056 0.89141 0.30012 0.0
Cd234 Cd 0.95804 0.83153 0.33807 0.0
O235 O 0.95348 0.79808 0.40104 0.0
C236 C 0.91688 0.80076 0.42029 0.0
O237 O 0.88454 0.82086 0.40036 0.0
C238 C 0.92502 0.89576 0.26716 0.0
C239 C 0.94168 0.74561 0.18637 0.0
O240 O 0.90227 0.74544 0.20042 0.0
O241 O 0.97168 0.76326 0.21096 0.0
O242 O 0.59357 0.13626 0.75298 0.0
Cd243 Cd 0.58057 0.21294 0.77218 0.0
O244 O 0.5483 0.10732 0.80057 0.0
Cd245 Cd 0.54219 0.16704 0.84048 0.0
O246 O 0.54777 0.19991 0.90472 0.0
C247 C 0.58417 0.1959 0.92503 0.0
O248 O 0.6159 0.17488 0.90543 0.0
C249 C 0.57378 0.10292 0.7682 0.0
C250 C 0.56005 0.25466 0.69361 0.0
O251 O 0.59968 0.2536 0.7081 0.0
O252 O 0.53001 0.23748 0.7171 0.0
O253 O 0.09246 0.36561 0.25016 0.0
Cd254 Cd 0.07575 0.28867 0.23272 0.0
O255 O 0.04691 0.39336 0.2016 0.0
Cd256 Cd 0.03854 0.33274 0.16309 0.0
O257 O 0.0441 0.30004 0.09907 0.0
C258 C 0.08074 0.30464 0.08018 0.0
O259 O 0.1126 0.32607 0.10106 0.0
C260 C 0.07335 0.39857 0.23395 0.0
C261 C 0.05475 0.24897 0.31196 0.0
O262 O 0.09413 0.249 0.29783 0.0
O263 O 0.02508 0.26627 0.28785 0.0
H264 H 0.30662 0.52986 0.52362 0.0
C265 C 0.29879 0.56366 0.53113 0.0
C266 C 0.28233 0.58971 0.49744 0.0
C267 C 0.30441 0.5807 0.57409 0.0
H268 H 0.25591 0.65221 0.48042 0.0
C269 C 0.26965 0.63274 0.50658 0.0
C270 C 0.2728 0.64988 0.54955 0.0
C271 C 0.29136 0.62413 0.5828 0.0
C272 C 0.32204 0.55245 0.60985 0.0
H273 H 0.29535 0.63799 0.61552 0.0
C274 C 0.35232 0.51913 0.60048 0.0
C275 C 0.36562 0.48946 0.63286 0.0
C276 C 0.30715 0.55697 0.65319 0.0
H277 H 0.28327 0.5814 0.66186 0.0
C278 C 0.3216 0.52873 0.68583 0.0
H279 H 0.36493 0.51559 0.56763 0.0
C280 C 0.35023 0.49489 0.67574 0.0
H281 H 0.3595 0.47242 0.70129 0.0
H282 H 0.30954 0.53233 0.71889 0.0
H283 H 0.2008 0.47647 0.01933 0.0
C284 C 0.20803 0.44262 0.02651 0.0
C285 C 0.22518 0.41619 0.99319 0.0
C286 C 0.20063 0.42577 0.06863 0.0
H287 H 0.25095 0.35313 0.97616 0.0
C288 C 0.23684 0.37297 0.002 0.0
C289 C 0.232 0.35601 0.04428 0.0
C290 C 0.21276 0.38216 0.077 0.0
C291 C 0.18161 0.45415 0.10387 0.0
H292 H 0.20736 0.36839 0.10903 0.0
C293 C 0.15207 0.48774 0.09325 0.0
C294 C 0.13706 0.51711 0.12558 0.0
C295 C 0.19411 0.4492 0.14818 0.0
H296 H 0.21737 0.42457 0.15792 0.0
C297 C 0.17791 0.47714 0.18062 0.0
H298 H 0.14123 0.49161 0.0596 0.0
C299 C 0.14995 0.51116 0.16945 0.0
H300 H 0.13924 0.53334 0.19503 0.0
H301 H 0.18805 0.47314 0.21447 0.0
H302 H 0.79658 0.97607 0.47806 0.0
C303 C 0.79047 0.9416 0.47098 0.0
C304 C 0.7746 0.91502 0.50448 0.0
C305 C 0.79837 0.92395 0.42887 0.0
H306 H 0.75134 0.8508 0.52167 0.0
C307 C 0.7646 0.8708 0.49576 0.0
C308 C 0.76949 0.85305 0.45337 0.0
C309 C 0.78766 0.87942 0.42054 0.0
C310 C 0.81655 0.95234 0.39361 0.0
H311 H 0.7932 0.86513 0.38843 0.0
C312 C 0.84549 0.98757 0.40417 0.0
C313 C 0.86002 0.01663 0.37179 0.0
C314 C 0.80402 0.94555 0.34934 0.0
H315 H 0.7812 0.91956 0.33968 0.0
C316 C 0.8197 0.97327 0.31685 0.0
H317 H 0.85628 0.99291 0.43782 0.0
C318 C 0.84718 0.00881 0.32794 0.0
H319 H 0.8576 0.03066 0.3023 0.0
H320 H 0.80957 0.96782 0.28302 0.0
H321 H 0.69873 0.02024 0.97581 0.0
C322 C 0.70554 0.05438 0.96885 0.0
C323 C 0.72174 0.08166 0.00286 0.0
C324 C 0.69855 0.07077 0.92636 0.0
H325 H 0.7465 0.14588 0.0207 0.0
C326 C 0.73296 0.12535 0.99436 0.0
C327 C 0.72861 0.1419 0.95176 0.0
C328 C 0.71016 0.11484 0.91834 0.0
C329 C 0.68064 0.04143 0.89036 0.0
H330 H 0.70513 0.1282 0.88599 0.0
C331 C 0.65137 0.00666 0.89973 0.0
C332 C 0.63757 0.97637 0.86691 0.0
C333 C 0.694 0.04664 0.84667 0.0
H334 H 0.71708 0.07222 0.83792 0.0
C335 C 0.67894 0.01776 0.81364 0.0
H336 H 0.63992 0.00254 0.93287 0.0
C337 C 0.6513 0.98256 0.82366 0.0
H338 H 0.64143 0.95975 0.79772 0.0
H339 H 0.68974 0.02198 0.78029 0.0
H340 H 0.52364 0.30661 0.52985 0.0
C341 C 0.53116 0.29878 0.56365 0.0
C342 C 0.49746 0.28232 0.58969 0.0
C343 C 0.57412 0.3044 0.58069 0.0
H344 H 0.48045 0.2559 0.65219 0.0
C345 C 0.50661 0.26964 0.63272 0.0
C346 C 0.54958 0.27279 0.64987 0.0
C347 C 0.58282 0.29135 0.62412 0.0
C348 C 0.60988 0.32203 0.55244 0.0
H349 H 0.61555 0.29534 0.63797 0.0
C350 C 0.6005 0.35231 0.51911 0.0
C351 C 0.63289 0.36561 0.48945 0.0
C352 C 0.65322 0.30714 0.55696 0.0
H353 H 0.66189 0.28326 0.58139 0.0
C354 C 0.68586 0.32159 0.52871 0.0
H355 H 0.56766 0.36492 0.51558 0.0
C356 C 0.67577 0.35022 0.49487 0.0
H357 H 0.70132 0.35949 0.4724 0.0
H358 H 0.71892 0.30953 0.53231 0.0
H359 H 0.97583 0.69872 0.02022 0.0
C360 C 0.96888 0.70553 0.05436 0.0
C361 C 0.00288 0.72173 0.08165 0.0
C362 C 0.92638 0.69853 0.07075 0.0
H363 H 0.02072 0.74648 0.14586 0.0
C364 C 0.99439 0.73295 0.12533 0.0
C365 C 0.95178 0.72859 0.14189 0.0
C366 C 0.91836 0.71014 0.11482 0.0
C367 C 0.89038 0.68062 0.04142 0.0
H368 H 0.88601 0.70511 0.12818 0.0
C369 C 0.89976 0.65136 0.00665 0.0
C370 C 0.86694 0.63756 0.97635 0.0
C371 C 0.84669 0.69399 0.04663 0.0
H372 H 0.83795 0.71707 0.07221 0.0
C373 C 0.81367 0.67893 0.01774 0.0
H374 H 0.9329 0.6399 0.00252 0.0
C375 C 0.82369 0.65128 0.98255 0.0
H376 H 0.79775 0.64141 0.95973 0.0
H377 H 0.78031 0.68973 0.02196 0.0
H378 H 0.01936 0.20079 0.47645 0.0
C379 C 0.02654 0.20802 0.44261 0.0
C380 C 0.99321 0.22517 0.41618 0.0
C381 C 0.06865 0.20062 0.42575 0.0
H382 H 0.97619 0.25094 0.35311 0.0
C383 C 0.00202 0.23683 0.37295 0.0
C384 C 0.0443 0.23199 0.35599 0.0
C385 C 0.07703 0.21274 0.38214 0.0
C386 C 0.1039 0.1816 0.45413 0.0
H387 H 0.10906 0.20734 0.36838 0.0
C388 C 0.09328 0.15206 0.48772 0.0
C389 C 0.12561 0.13705 0.5171 0.0
C390 C 0.14821 0.1941 0.44918 0.0
H391 H 0.15795 0.21735 0.42456 0.0
C392 C 0.18065 0.1779 0.47712 0.0
H393 H 0.05962 0.14121 0.49159 0.0
C394 C 0.16948 0.14994 0.51114 0.0
H395 H 0.19506 0.13923 0.53332 0.0
H396 H 0.2145 0.18804 0.47312 0.0
H397 H 0.47808 0.79657 0.97606 0.0
C398 C 0.47101 0.79046 0.94158 0.0
C399 C 0.50451 0.77459 0.91501 0.0
C400 C 0.4289 0.79836 0.92393 0.0
H401 H 0.5217 0.75133 0.85079 0.0
C402 C 0.49578 0.76459 0.87079 0.0
C403 C 0.4534 0.76948 0.85304 0.0
C404 C 0.42057 0.78765 0.8794 0.0
C405 C 0.39364 0.81654 0.95232 0.0
H406 H 0.38846 0.79319 0.86512 0.0
C407 C 0.4042 0.84548 0.98756 0.0
C408 C 0.37182 0.86001 0.01661 0.0
C409 C 0.34936 0.80401 0.94553 0.0
H410 H 0.3397 0.78119 0.91954 0.0
C411 C 0.31688 0.81969 0.97325 0.0
H412 H 0.43785 0.85627 0.99289 0.0
C413 C 0.32796 0.84717 0.0088 0.0
H414 H 0.30233 0.85759 0.03064 0.0
H415 H 0.28304 0.80956 0.96781 0.0
H416 H 0.52988 0.52363 0.3066 0.0
C417 C 0.56367 0.53114 0.29877 0.0
C418 C 0.58972 0.49745 0.28231 0.0
C419 C 0.58071 0.5741 0.30439 0.0
H420 H 0.65222 0.48043 0.25588 0.0
C421 C 0.63275 0.5066 0.26962 0.0
C422 C 0.6499 0.54957 0.27277 0.0
C423 C 0.62415 0.58281 0.29134 0.0
C424 C 0.55247 0.60987 0.32202 0.0
H425 H 0.638 0.61553 0.29532 0.0
C426 C 0.51914 0.60049 0.35229 0.0
C427 C 0.48947 0.63288 0.3656 0.0
C428 C 0.55698 0.6532 0.30712 0.0
H429 H 0.58142 0.66188 0.28325 0.0
C430 C 0.52874 0.68585 0.32158 0.0
H431 H 0.51561 0.56765 0.3649 0.0
C432 C 0.4949 0.67576 0.35021 0.0
H433 H 0.47243 0.70131 0.35948 0.0
H434 H 0.53234 0.7189 0.30952 0.0
H435 H 0.02025 0.97583 0.6987 0.0
C436 C 0.05439 0.96887 0.70551 0.0
C437 C 0.08167 0.00288 0.72172 0.0
C438 C 0.07078 0.92638 0.69852 0.0
H439 H 0.14589 0.02071 0.74647 0.0
C440 C 0.12536 0.99438 0.73294 0.0
C441 C 0.14192 0.95177 0.72858 0.0
C442 C 0.11485 0.91836 0.71013 0.0
C443 C 0.04145 0.89038 0.68061 0.0
H444 H 0.12821 0.886 0.7051 0.0
C445 C 0.00667 0.89975 0.65134 0.0
C446 C 0.97638 0.86693 0.63754 0.0
C447 C 0.04665 0.84668 0.69397 0.0
H448 H 0.07224 0.83794 0.71705 0.0
C449 C 0.01777 0.81366 0.67891 0.0
H450 H 0.00255 0.93289 0.63989 0.0
C451 C 0.98258 0.82368 0.65127 0.0
H452 H 0.95976 0.79774 0.6414 0.0
H453 H 0.02199 0.7803 0.68971 0.0
H454 H 0.47647 0.01934 0.20077 0.0
C455 C 0.44263 0.02653 0.208 0.0
C456 C 0.4162 0.9932 0.22515 0.0
C457 C 0.42577 0.06864 0.2006 0.0
H458 H 0.35314 0.97617 0.25093 0.0
C459 C 0.37298 0.00201 0.23681 0.0
C460 C 0.35602 0.04429 0.23197 0.0
C461 C 0.38217 0.07702 0.21273 0.0
C462 C 0.45415 0.10388 0.18158 0.0
H463 H 0.3684 0.10904 0.20733 0.0
C464 C 0.48774 0.09327 0.15204 0.0
C465 C 0.51712 0.12559 0.13703 0.0
C466 C 0.44921 0.14819 0.19408 0.0
H467 H 0.42458 0.15793 0.21734 0.0
C468 C 0.47715 0.18064 0.17788 0.0
H469 H 0.49161 0.05961 0.1412 0.0
C470 C 0.51117 0.16947 0.14992 0.0
H471 H 0.53335 0.19505 0.13921 0.0
H472 H 0.47315 0.21449 0.18802 0.0
H473 H 0.97608 0.47807 0.79656 0.0
C474 C 0.9416 0.471 0.79045 0.0
C475 C 0.91503 0.5045 0.77457 0.0
C476 C 0.92396 0.42889 0.79835 0.0
H477 H 0.85081 0.52169 0.75131 0.0
C478 C 0.87081 0.49577 0.76457 0.0
C479 C 0.85306 0.45339 0.76946 0.0
C480 C 0.87943 0.42056 0.78763 0.0
C481 C 0.95235 0.39363 0.81653 0.0
H482 H 0.86514 0.38845 0.79318 0.0
C483 C 0.98758 0.40419 0.84547 0.0
C484 C 0.01664 0.37181 0.86 0.0
C485 C 0.94556 0.34936 0.804 0.0
H486 H 0.91957 0.3397 0.78118 0.0
C487 C 0.97328 0.31687 0.81968 0.0
H488 H 0.99292 0.43784 0.85626 0.0
C489 C 0.00882 0.32795 0.84716 0.0
H490 H 0.03067 0.30232 0.85758 0.0
H491 H 0.96783 0.28304 0.80954 0.0
H492 H 0.71481 0.47341 0.52879 0.0
C493 C 0.73904 0.44827 0.52391 0.0
C494 C 0.75141 0.42205 0.55943 0.0
C495 C 0.75667 0.44143 0.48198 0.0
H496 H 0.79006 0.36684 0.57941 0.0
C497 C 0.78129 0.38805 0.55255 0.0
C498 C 0.79816 0.37971 0.51072 0.0
C499 C 0.78649 0.40706 0.47593 0.0
C500 C 0.74241 0.46875 0.4442 0.0
H501 H 0.80057 0.40122 0.44402 0.0
C502 C 0.73147 0.51329 0.45029 0.0
C503 C 0.716 0.53829 0.41496 0.0
C504 C 0.73833 0.45003 0.4018 0.0
H505 H 0.74501 0.41572 0.3958 0.0
C506 C 0.72424 0.47505 0.36654 0.0
H507 H 0.73465 0.5285 0.4825 0.0
C508 C 0.71319 0.51879 0.37302 0.0
H509 H 0.70195 0.53726 0.34525 0.0
H510 H 0.72116 0.46026 0.33413 0.0
H511 H 0.78555 0.53 0.02737 0.0
C512 C 0.76088 0.55478 0.02279 0.0
C513 C 0.74835 0.58064 0.05891 0.0
C514 C 0.74274 0.56142 0.98073 0.0
H515 H 0.70896 0.63507 0.07991 0.0
C516 C 0.71778 0.61408 0.05254 0.0
C517 C 0.70044 0.62233 0.01063 0.0
C518 C 0.71231 0.59534 0.97517 0.0
C519 C 0.75727 0.53455 0.94236 0.0
H520 H 0.69794 0.60112 0.94313 0.0
C521 C 0.7689 0.49014 0.94714 0.0
C522 C 0.78495 0.46571 0.91139 0.0
C523 C 0.76106 0.55365 0.90077 0.0
H524 H 0.7537 0.58785 0.8958 0.0
C525 C 0.77594 0.52926 0.8651 0.0
H526 H 0.76584 0.47462 0.97869 0.0
C527 C 0.7879 0.48572 0.87034 0.0
H528 H 0.7999 0.46784 0.84228 0.0
H529 H 0.77897 0.54441 0.83337 0.0
H530 H 0.21441 0.03138 0.47358 0.0
C531 C 0.23883 0.05711 0.47885 0.0
C532 C 0.2525 0.08221 0.44308 0.0
C533 C 0.25546 0.06578 0.52145 0.0
H534 H 0.29241 0.13725 0.42318 0.0
C535 C 0.28271 0.11688 0.45033 0.0
C536 C 0.29857 0.12706 0.49276 0.0
C537 C 0.28556 0.10085 0.52788 0.0
C538 C 0.2396 0.03985 0.55943 0.0
H539 H 0.29879 0.10812 0.56037 0.0
C540 C 0.22848 0.99488 0.5546 0.0
C541 C 0.21119 0.9712 0.58988 0.0
C542 C 0.23401 0.06037 0.60061 0.0
H543 H 0.24088 0.09503 0.60551 0.0
C544 C 0.21793 0.03676 0.63588 0.0
H545 H 0.23289 0.97833 0.52335 0.0
C546 C 0.2065 0.99261 0.63058 0.0
H547 H 0.1935 0.97536 0.65829 0.0
H548 H 0.21354 0.05298 0.66729 0.0
H549 H 0.28752 0.96896 0.97119 0.0
C550 C 0.2629 0.94358 0.97589 0.0
C551 C 0.24889 0.91748 0.93985 0.0
C552 C 0.24615 0.93659 0.01802 0.0
H553 H 0.20817 0.86233 0.91903 0.0
C554 C 0.21822 0.88342 0.94638 0.0
C555 C 0.20228 0.87485 0.98843 0.0
C556 C 0.21572 0.90205 0.02382 0.0
C557 C 0.26189 0.96409 0.05617 0.0
H558 H 0.20246 0.89607 0.05598 0.0
C559 C 0.27267 0.00892 0.05111 0.0
C560 C 0.28969 0.0342 0.08661 0.0
C561 C 0.26755 0.9453 0.09775 0.0
H562 H 0.2608 0.91082 0.10284 0.0
C563 C 0.28341 0.97049 0.13322 0.0
H564 H 0.26819 0.02413 0.01952 0.0
C565 C 0.29446 0.01454 0.12772 0.0
H566 H 0.30717 0.03313 0.1556 0.0
H567 H 0.28783 0.95562 0.16498 0.0
H568 H 0.52882 0.7148 0.4734 0.0
C569 C 0.52394 0.73903 0.44825 0.0
C570 C 0.55946 0.75139 0.42203 0.0
C571 C 0.482 0.75666 0.44142 0.0
H572 H 0.57944 0.79005 0.36682 0.0
C573 C 0.55258 0.78128 0.38803 0.0
C574 C 0.51075 0.79815 0.3797 0.0
C575 C 0.47596 0.78647 0.40705 0.0
C576 C 0.44422 0.7424 0.46874 0.0
H577 H 0.44404 0.80056 0.40121 0.0
C578 C 0.45031 0.73145 0.51327 0.0
C579 C 0.41498 0.71599 0.53827 0.0
C580 C 0.40182 0.73832 0.45002 0.0
H581 H 0.39582 0.745 0.41571 0.0
C582 C 0.36656 0.72423 0.47503 0.0
H583 H 0.48253 0.73464 0.52848 0.0
C584 C 0.37305 0.71318 0.51878 0.0
H585 H 0.34527 0.70194 0.53724 0.0
H586 H 0.33415 0.72115 0.46025 0.0
H587 H 0.97121 0.28751 0.96894 0.0
C588 C 0.97592 0.26289 0.94356 0.0
C589 C 0.93987 0.24888 0.91746 0.0
C590 C 0.01805 0.24614 0.93658 0.0
H591 H 0.91906 0.20816 0.86232 0.0
C592 C 0.94641 0.21821 0.88341 0.0
C593 C 0.98846 0.20227 0.87483 0.0
C594 C 0.02385 0.21571 0.90203 0.0
C595 C 0.0562 0.26188 0.96407 0.0
H596 H 0.05601 0.20245 0.89605 0.0
C597 C 0.05114 0.27266 0.00891 0.0
C598 C 0.08664 0.28968 0.03418 0.0
C599 C 0.09778 0.26754 0.94529 0.0
H600 H 0.10287 0.26079 0.9108 0.0
C601 C 0.13325 0.28339 0.97048 0.0
H602 H 0.01955 0.26818 0.02411 0.0
C603 C 0.12775 0.29445 0.01452 0.0
H604 H 0.15563 0.30716 0.03312 0.0
H605 H 0.16501 0.28782 0.95561 0.0
H606 H 0.02739 0.78554 0.52999 0.0
C607 C 0.02282 0.76087 0.55476 0.0
C608 C 0.05893 0.74834 0.58062 0.0
C609 C 0.98075 0.74273 0.56141 0.0
H610 H 0.07994 0.70895 0.63505 0.0
C611 C 0.05256 0.71777 0.61407 0.0
C612 C 0.01065 0.70043 0.62232 0.0
C613 C 0.9752 0.7123 0.59532 0.0
C614 C 0.94238 0.75726 0.53453 0.0
H615 H 0.94315 0.69793 0.6011 0.0
C616 C 0.94716 0.76889 0.49013 0.0
C617 C 0.91141 0.78494 0.4657 0.0
C618 C 0.90079 0.76105 0.55363 0.0
H619 H 0.89582 0.75369 0.58783 0.0
C620 C 0.86512 0.77593 0.52924 0.0
H621 H 0.97871 0.76583 0.47461 0.0
C622 C 0.87036 0.78788 0.48571 0.0
H623 H 0.84231 0.79989 0.46782 0.0
H624 H 0.83339 0.77895 0.5444 0.0
H625 H 0.4736 0.2144 0.03136 0.0
C626 C 0.47888 0.23882 0.0571 0.0
C627 C 0.44311 0.25248 0.0822 0.0
C628 C 0.52148 0.25545 0.06577 0.0
H629 H 0.42321 0.29239 0.13723 0.0
C630 C 0.45036 0.2827 0.11687 0.0
C631 C 0.49278 0.29856 0.12704 0.0
C632 C 0.52791 0.28555 0.10084 0.0
C633 C 0.55946 0.23959 0.03983 0.0
H634 H 0.5604 0.29877 0.1081 0.0
C635 C 0.55463 0.22847 0.99486 0.0
C636 C 0.58991 0.21118 0.97118 0.0
C637 C 0.60064 0.23399 0.06035 0.0
H638 H 0.60554 0.24087 0.09501 0.0
C639 C 0.63591 0.21792 0.03675 0.0
H640 H 0.52338 0.23288 0.97832 0.0
C641 C 0.63061 0.20649 0.99259 0.0
H642 H 0.65832 0.19349 0.97534 0.0
H643 H 0.66733 0.21353 0.05297 0.0
H644 H 0.47342 0.52881 0.71478 0.0
C645 C 0.44827 0.52393 0.73901 0.0
C646 C 0.42206 0.55945 0.75138 0.0
C647 C 0.44144 0.482 0.75664 0.0
H648 H 0.36685 0.57943 0.79003 0.0
C649 C 0.38806 0.55257 0.78126 0.0
C650 C 0.37972 0.51074 0.79814 0.0
C651 C 0.40707 0.47595 0.78646 0.0
C652 C 0.46876 0.44422 0.74238 0.0
H653 H 0.40123 0.44403 0.80054 0.0
C654 C 0.51329 0.45031 0.73144 0.0
C655 C 0.5383 0.41497 0.71597 0.0
C656 C 0.45004 0.40181 0.7383 0.0
H657 H 0.41573 0.39581 0.74498 0.0
C658 C 0.47506 0.36655 0.72421 0.0
H659 H 0.52851 0.48252 0.73463 0.0
C660 C 0.5188 0.37304 0.71316 0.0
H661 H 0.53727 0.34526 0.70192 0.0
H662 H 0.46027 0.33414 0.72113 0.0
H663 H 0.96896 0.9712 0.2875 0.0
C664 C 0.94359 0.9759 0.26288 0.0
C665 C 0.91749 0.93986 0.24886 0.0
C666 C 0.9366 0.01804 0.24613 0.0
H667 H 0.86234 0.91905 0.20815 0.0
C668 C 0.88343 0.9464 0.21819 0.0
C669 C 0.87486 0.98845 0.20225 0.0
C670 C 0.90206 0.02383 0.21569 0.0
C671 C 0.9641 0.05618 0.26187 0.0
H672 H 0.89608 0.056 0.20244 0.0
C673 C 0.00893 0.05113 0.27265 0.0
C674 C 0.03421 0.08663 0.28966 0.0
C675 C 0.94531 0.09777 0.26752 0.0
H676 H 0.91082 0.10286 0.26077 0.0
C677 C 0.9705 0.13323 0.28338 0.0
H678 H 0.02414 0.01953 0.26816 0.0
C679 C 0.01455 0.12774 0.29444 0.0
H680 H 0.03314 0.15561 0.30715 0.0
H681 H 0.95563 0.16499 0.28781 0.0
H682 H 0.53002 0.02738 0.78552 0.0
C683 C 0.55479 0.02281 0.76086 0.0
C684 C 0.58065 0.05893 0.74832 0.0
C685 C 0.56144 0.98075 0.74271 0.0
H686 H 0.63508 0.07993 0.70893 0.0
C687 C 0.6141 0.05256 0.71775 0.0
C688 C 0.62235 0.01064 0.70041 0.0
C689 C 0.59535 0.97519 0.71229 0.0
C690 C 0.53456 0.94237 0.75724 0.0
H691 H 0.60113 0.94314 0.69792 0.0
C692 C 0.49016 0.94716 0.76888 0.0
C693 C 0.46573 0.9114 0.78493 0.0
C694 C 0.55366 0.90078 0.76104 0.0
H695 H 0.58786 0.89581 0.75368 0.0
C696 C 0.52927 0.86511 0.77591 0.0
H697 H 0.47464 0.9787 0.76581 0.0
C698 C 0.48574 0.87035 0.78787 0.0
H699 H 0.46785 0.8423 0.79988 0.0
H700 H 0.54443 0.83338 0.77894 0.0
H701 H 0.03139 0.47359 0.21439 0.0
C702 C 0.05713 0.47886 0.23881 0.0
C703 C 0.08223 0.4431 0.25247 0.0
C704 C 0.0658 0.52146 0.25543 0.0
H705 H 0.13726 0.4232 0.29238 0.0
C706 C 0.1169 0.45034 0.28268 0.0
C707 C 0.12707 0.49277 0.29855 0.0
C708 C 0.10086 0.5279 0.28553 0.0
C709 C 0.03986 0.55945 0.23957 0.0
H710 H 0.10813 0.56039 0.29876 0.0
C711 C 0.99489 0.55461 0.22845 0.0
C712 C 0.97121 0.5899 0.21117 0.0
C713 C 0.06038 0.60063 0.23398 0.0
H714 H 0.09504 0.60552 0.24086 0.0
C715 C 0.03678 0.6359 0.21791 0.0
H716 H 0.97834 0.52336 0.23287 0.0
C717 C 0.99262 0.6306 0.20647 0.0
H718 H 0.97537 0.6583 0.19348 0.0
H719 H 0.053 0.66731 0.21351 0.0
loop_
_geom_bond_atom_site_label_1
_geom_bond_atom_site_label_2
_geom_bond_distance
_geom_bond_site_symmetry_2
_ccdc_geom_bond_type
O0 Cd1 2.300 . S
O0 C7 1.275 . S
Cd1 O0 2.300 . S
Cd1 O9 2.381 . S
Cd1 O10 2.378 . S
O2 Cd3 2.385 . S
O2 C7 1.255 . S
Cd3 O2 2.385 . S
Cd3 O4 2.317 . S
O4 Cd3 2.317 . S
O4 C5 1.232 . S
C5 O4 1.232 . S
C5 O6 1.218 . S
O6 C5 1.218 . S
C7 O0 1.275 . S
C7 O2 1.255 . S
C8 O9 1.258 . S
C8 O10 1.256 . S
O9 Cd1 2.381 . S
O9 C8 1.258 . S
O10 Cd1 2.378 . S
O10 C8 1.256 . S
O11 Cd12 2.300 . S
O11 C18 1.275 . S
Cd12 O11 2.300 . S
Cd12 O20 2.381 . S
Cd12 O21 2.378 . S
O13 Cd14 2.385 . S
O13 C18 1.255 . S
Cd14 O13 2.385 . S
Cd14 O15 2.317 . S
O15 Cd14 2.317 . S
O15 C16 1.232 . S
C16 O15 1.232 . S
C16 O17 1.218 . S
O17 C16 1.218 . S
C18 O11 1.275 . S
C18 O13 1.255 . S
C19 O20 1.258 . S
C19 O21 1.256 . S
O20 Cd12 2.381 . S
O20 C19 1.258 . S
O21 Cd12 2.378 . S
O21 C19 1.256 . S
O22 Cd23 2.300 1_545 S
O22 C29 1.275 . S
Cd23 O22 2.300 1_565 S
Cd23 O31 2.381 1_565 S
Cd23 O32 2.378 . S
O24 Cd25 2.385 . S
O24 C29 1.255 1_565 S
Cd25 O24 2.385 . S
Cd25 O26 2.317 . S
O26 Cd25 2.317 . S
O26 C27 1.232 . S
C27 O26 1.232 . S
C27 O28 1.218 . S
O28 C27 1.218 . S
C29 O22 1.275 . S
C29 O24 1.255 1_545 S
C30 O31 1.258 1_565 S
C30 O32 1.256 . S
O31 Cd23 2.381 1_545 S
O31 C30 1.258 1_545 S
O32 Cd23 2.378 . S
O32 C30 1.256 . S
O33 Cd34 2.300 1_565 S
O33 C40 1.275 . S
Cd34 O33 2.300 1_545 S
Cd34 O42 2.381 1_545 S
Cd34 O43 2.378 . S
O35 Cd36 2.385 . S
O35 C40 1.255 1_545 S
Cd36 O35 2.385 . S
Cd36 O37 2.317 . S
O37 Cd36 2.317 . S
O37 C38 1.232 . S
C38 O37 1.232 . S
C38 O39 1.218 . S
O39 C38 1.218 . S
C40 O33 1.275 . S
C40 O35 1.255 1_565 S
C41 O42 1.258 1_545 S
C41 O43 1.256 . S
O42 Cd34 2.381 1_565 S
O42 C41 1.258 1_565 S
O43 Cd34 2.378 . S
O43 C41 1.256 . S
O44 Cd45 2.300 . S
O44 C51 1.275 . S
Cd45 O44 2.300 . S
Cd45 O53 2.381 . S
Cd45 O54 2.378 . S
O46 Cd47 2.385 . S
O46 C51 1.255 . S
Cd47 O46 2.385 . S
Cd47 O48 2.317 . S
O48 Cd47 2.317 . S
O48 C49 1.232 . S
C49 O48 1.232 . S
C49 O50 1.218 . S
O50 C49 1.218 . S
C51 O44 1.275 . S
C51 O46 1.255 . S
C52 O53 1.258 . S
C52 O54 1.256 . S
O53 Cd45 2.381 . S
O53 C52 1.258 . S
O54 Cd45 2.378 . S
O54 C52 1.256 . S
O55 Cd56 2.300 1_556 S
O55 C62 1.275 . S
Cd56 O55 2.300 1_554 S
Cd56 O64 2.381 1_554 S
Cd56 O65 2.378 . S
O57 Cd58 2.385 . S
O57 C62 1.255 1_554 S
Cd58 O57 2.385 . S
Cd58 O59 2.317 . S
O59 Cd58 2.317 . S
O59 C60 1.232 . S
C60 O59 1.232 . S
C60 O61 1.218 . S
O61 C60 1.218 . S
C62 O55 1.275 . S
C62 O57 1.255 1_556 S
C63 O64 1.258 1_554 S
C63 O65 1.256 . S
O64 Cd56 2.381 1_556 S
O64 C63 1.258 1_556 S
O65 Cd56 2.378 . S
O65 C63 1.256 . S
O66 Cd67 2.300 . S
O66 C73 1.275 . S
Cd67 O66 2.300 . S
Cd67 O75 2.381 . S
Cd67 O76 2.378 . S
O68 Cd69 2.385 . S
O68 C73 1.255 . S
Cd69 O68 2.385 . S
Cd69 O70 2.317 . S
O70 Cd69 2.317 . S
O70 C71 1.232 . S
C71 O70 1.232 . S
C71 O72 1.218 . S
O72 C71 1.218 . S
C73 O66 1.275 . S
C73 O68 1.255 . S
C74 O75 1.258 . S
C74 O76 1.256 . S
O75 Cd67 2.381 . S
O75 C74 1.258 . S
O76 Cd67 2.378 . S
O76 C74 1.256 . S
O77 Cd78 2.300 1_554 S
O77 C84 1.275 . S
Cd78 O77 2.300 1_556 S
Cd78 O86 2.381 1_556 S
Cd78 O87 2.378 . S
O79 Cd80 2.385 . S
O79 C84 1.255 1_556 S
Cd80 O79 2.385 . S
Cd80 O81 2.317 . S
O81 Cd80 2.317 . S
O81 C82 1.232 . S
C82 O81 1.232 . S
C82 O83 1.218 . S
O83 C82 1.218 . S
C84 O77 1.275 . S
C84 O79 1.255 1_554 S
C85 O86 1.258 1_556 S
C85 O87 1.256 . S
O86 Cd78 2.381 1_554 S
O86 C85 1.258 1_554 S
O87 Cd78 2.378 . S
O87 C85 1.256 . S
O88 Cd89 2.300 . S
O88 C95 1.275 . S
Cd89 O88 2.300 . S
Cd89 O97 2.381 . S
Cd89 O98 2.378 . S
O90 Cd91 2.385 . S
O90 C95 1.255 . S
Cd91 O90 2.385 . S
Cd91 O92 2.317 . S
O92 Cd91 2.317 . S
O92 C93 1.232 . S
C93 O92 1.232 . S
C93 O94 1.218 . S
O94 C93 1.218 . S
C95 O88 1.275 . S
C95 O90 1.255 . S
C96 O97 1.258 . S
C96 O98 1.256 . S
O97 Cd89 2.381 . S
O97 C96 1.258 . S
O98 Cd89 2.378 . S
O98 C96 1.256 . S
O99 Cd100 2.300 1_655 S
O99 C106 1.275 . S
Cd100 O99 2.300 1_455 S
Cd100 O108 2.381 1_455 S
Cd100 O109 2.378 . S
O101 Cd102 2.385 . S
O101 C106 1.255 1_455 S
Cd102 O101 2.385 . S
Cd102 O103 2.317 . S
O103 Cd102 2.317 . S
O103 C104 1.232 . S
C104 O103 1.232 . S
C104 O105 1.218 . S
O105 C104 1.218 . S
C106 O99 1.275 . S
C106 O101 1.255 1_655 S
C107 O108 1.258 1_455 S
C107 O109 1.256 . S
O108 Cd100 2.381 1_655 S
O108 C107 1.258 1_655 S
O109 Cd100 2.378 . S
O109 C107 1.256 . S
O110 Cd111 2.300 . S
O110 C117 1.275 . S
Cd111 O110 2.300 . S
Cd111 O119 2.381 . S
Cd111 O120 2.378 . S
O112 Cd113 2.385 . S
O112 C117 1.255 . S
Cd113 O112 2.385 . S
Cd113 O114 2.317 . S
O114 Cd113 2.317 . S
O114 C115 1.232 . S
C115 O114 1.232 . S
C115 O116 1.218 . S
O116 C115 1.218 . S
C117 O110 1.275 . S
C117 O112 1.255 . S
C118 O119 1.258 . S
C118 O120 1.256 . S
O119 Cd111 2.381 . S
O119 C118 1.258 . S
O120 Cd111 2.378 . S
O120 C118 1.256 . S
O121 Cd122 2.300 1_455 S
O121 C128 1.275 . S
Cd122 O121 2.300 1_655 S
Cd122 O130 2.381 1_655 S
Cd122 O131 2.378 . S
O123 Cd124 2.385 . S
O123 C128 1.255 1_655 S
Cd124 O123 2.385 . S
Cd124 O125 2.317 . S
O125 Cd124 2.317 . S
O125 C126 1.232 . S
C126 O125 1.232 . S
C126 O127 1.218 . S
O127 C126 1.218 . S
C128 O121 1.275 . S
C128 O123 1.255 1_455 S
C129 O130 1.258 1_655 S
C129 O131 1.256 . S
O130 Cd122 2.381 1_455 S
O130 C129 1.258 1_455 S
O131 Cd122 2.378 . S
O131 C129 1.256 . S
O132 Cd133 2.300 . S
O132 C139 1.275 . S
Cd133 O132 2.300 . S
Cd133 O141 2.381 . S
Cd133 O142 2.378 . S
O134 Cd135 2.385 . S
O134 C139 1.255 . S
Cd135 O134 2.385 . S
Cd135 O136 2.317 . S
O136 Cd135 2.317 . S
O136 C137 1.232 . S
C137 O136 1.232 . S
C137 O138 1.218 . S
O138 C137 1.218 . S
C139 O132 1.275 . S
C139 O134 1.255 . S
C140 O141 1.258 . S
C140 O142 1.256 . S
O141 Cd133 2.381 . S
O141 C140 1.258 . S
O142 Cd133 2.378 . S
O142 C140 1.256 . S
O143 Cd144 2.300 . S
O143 C150 1.275 . S
Cd144 O143 2.300 . S
Cd144 O152 2.381 . S
Cd144 O153 2.378 . S
O145 Cd146 2.385 . S
O145 C150 1.255 . S
Cd146 O145 2.385 . S
Cd146 O147 2.317 . S
O147 Cd146 2.317 . S
O147 C148 1.232 . S
C148 O147 1.232 . S
C148 O149 1.218 . S
O149 C148 1.218 . S
C150 O143 1.275 . S
C150 O145 1.255 . S
C151 O152 1.258 . S
C151 O153 1.256 . S
O152 Cd144 2.381 . S
O152 C151 1.258 . S
O153 Cd144 2.378 . S
O153 C151 1.256 . S
O154 Cd155 2.296 1_545 S
O154 C161 1.270 1_545 S
Cd155 O154 2.296 1_565 S
Cd155 O163 2.381 1_565 S
Cd155 O164 2.378 . S
O156 Cd157 2.385 . S
O156 C161 1.255 . S
Cd157 O156 2.385 . S
Cd157 O158 2.317 . S
O158 Cd157 2.317 . S
O158 C159 1.232 . S
C159 O158 1.232 . S
C159 O160 1.218 . S
O160 C159 1.218 . S
C161 O154 1.270 1_565 S
C161 O156 1.255 . S
C162 O163 1.262 . S
C162 O164 1.250 1_545 S
O163 Cd155 2.381 1_545 S
O163 C162 1.262 . S
O164 Cd155 2.378 . S
O164 C162 1.250 1_565 S
O165 Cd166 2.300 . S
O165 C172 1.275 . S
Cd166 O165 2.300 . S
Cd166 O174 2.381 1_545 S
Cd166 O175 2.378 . S
O167 Cd168 2.385 . S
O167 C172 1.255 . S
Cd168 O167 2.385 . S
Cd168 O169 2.317 . S
O169 Cd168 2.317 . S
O169 C170 1.232 . S
C170 O169 1.232 . S
C170 O171 1.218 . S
O171 C170 1.218 . S
C172 O165 1.275 . S
C172 O167 1.255 . S
C173 O174 1.258 . S
C173 O175 1.256 1_565 S
O174 Cd166 2.381 1_565 S
O174 C173 1.258 . S
O175 Cd166 2.378 . S
O175 C173 1.256 1_545 S
O176 Cd177 2.300 . S
O176 C183 1.275 . S
Cd177 O176 2.300 . S
Cd177 O185 2.381 . S
Cd177 O186 2.378 . S
O178 Cd179 2.385 . S
O178 C183 1.255 . S
Cd179 O178 2.385 . S
Cd179 O180 2.317 . S
O180 Cd179 2.317 . S
O180 C181 1.232 . S
C181 O180 1.232 . S
C181 O182 1.218 . S
O182 C181 1.218 . S
C183 O176 1.275 . S
C183 O178 1.255 . S
C184 O185 1.258 . S
C184 O186 1.256 . S
O185 Cd177 2.381 . S
O185 C184 1.258 . S
O186 Cd177 2.378 . S
O186 C184 1.256 . S
O187 Cd188 2.300 . S
O187 C194 1.275 . S
Cd188 O187 2.300 . S
Cd188 O196 2.381 1_554 S
Cd188 O197 2.378 . S
O189 Cd190 2.385 . S
O189 C194 1.255 . S
Cd190 O189 2.385 . S
Cd190 O191 2.317 . S
O191 Cd190 2.317 . S
O191 C192 1.232 . S
C192 O191 1.232 . S
C192 O193 1.218 . S
O193 C192 1.218 . S
C194 O187 1.275 . S
C194 O189 1.255 . S
C195 O196 1.258 . S
C195 O197 1.256 1_556 S
O196 Cd188 2.381 1_556 S
O196 C195 1.258 . S
O197 Cd188 2.378 . S
O197 C195 1.256 1_554 S
O198 Cd199 2.300 . S
O198 C205 1.275 . S
Cd199 O198 2.300 . S
Cd199 O207 2.381 . S
Cd199 O208 2.378 . S
O200 Cd201 2.385 . S
O200 C205 1.255 . S
Cd201 O200 2.385 . S
Cd201 O202 2.317 . S
O202 Cd201 2.317 . S
O202 C203 1.232 . S
C203 O202 1.232 . S
C203 O204 1.218 . S
O204 C203 1.218 . S
C205 O198 1.275 . S
C205 O200 1.255 . S
C206 O207 1.258 . S
C206 O208 1.256 . S
O207 Cd199 2.381 . S
O207 C206 1.258 . S
O208 Cd199 2.378 . S
O208 C206 1.256 . S
O209 Cd210 2.296 1_554 S
O209 C216 1.270 1_554 S
Cd210 O209 2.296 1_556 S
Cd210 O218 2.381 1_556 S
Cd210 O219 2.378 . S
O211 Cd212 2.385 . S
O211 C216 1.255 . S
Cd212 O211 2.385 . S
Cd212 O213 2.317 . S
O213 Cd212 2.317 . S
O213 C214 1.232 . S
C214 O213 1.232 . S
C214 O215 1.218 . S
O215 C214 1.218 . S
C216 O209 1.270 1_556 S
C216 O211 1.255 . S
C217 O218 1.262 . S
C217 O219 1.250 1_554 S
O218 Cd210 2.381 1_554 S
O218 C217 1.262 . S
O219 Cd210 2.378 . S
O219 C217 1.250 1_556 S
O220 Cd221 2.300 . S
O220 C227 1.275 . S
Cd221 O220 2.300 . S
Cd221 O229 2.381 . S
Cd221 O230 2.378 . S
O222 Cd223 2.385 . S
O222 C227 1.255 . S
Cd223 O222 2.385 . S
Cd223 O224 2.317 . S
O224 Cd223 2.317 . S
O224 C225 1.232 . S
C225 O224 1.232 . S
C225 O226 1.218 . S
O226 C225 1.218 . S
C227 O220 1.275 . S
C227 O222 1.255 . S
C228 O229 1.258 . S
C228 O230 1.256 . S
O229 Cd221 2.381 . S
O229 C228 1.258 . S
O230 Cd221 2.378 . S
O230 C228 1.256 . S
O231 Cd232 2.300 . S
O231 C238 1.275 . S
Cd232 O231 2.300 . S
Cd232 O240 2.381 1_455 S
Cd232 O241 2.378 . S
O233 Cd234 2.385 . S
O233 C238 1.255 . S
Cd234 O233 2.385 . S
Cd234 O235 2.317 . S
O235 Cd234 2.317 . S
O235 C236 1.232 . S
C236 O235 1.232 . S
C236 O237 1.218 . S
O237 C236 1.218 . S
C238 O231 1.275 . S
C238 O233 1.255 . S
C239 O240 1.258 . S
C239 O241 1.256 1_655 S
O240 Cd232 2.381 1_655 S
O240 C239 1.258 . S
O241 Cd232 2.378 . S
O241 C239 1.256 1_455 S
O242 Cd243 2.300 . S
O242 C249 1.275 . S
Cd243 O242 2.300 . S
Cd243 O251 2.381 . S
Cd243 O252 2.378 . S
O244 Cd245 2.385 . S
O244 C249 1.255 . S
Cd245 O244 2.385 . S
Cd245 O246 2.317 . S
O246 Cd245 2.317 . S
O246 C247 1.232 . S
C247 O246 1.232 . S
C247 O248 1.218 . S
O248 C247 1.218 . S
C249 O242 1.275 . S
C249 O244 1.255 . S
C250 O251 1.258 . S
C250 O252 1.256 . S
O251 Cd243 2.381 . S
O251 C250 1.258 . S
O252 Cd243 2.378 . S
O252 C250 1.256 . S
O253 Cd254 2.296 1_455 S
O253 C260 1.270 1_455 S
Cd254 O253 2.296 1_655 S
Cd254 O262 2.381 1_655 S
Cd254 O263 2.378 . S
O255 Cd256 2.385 . S
O255 C260 1.255 . S
Cd256 O255 2.385 . S
Cd256 O257 2.317 . S
O257 Cd256 2.317 . S
O257 C258 1.232 . S
C258 O257 1.232 . S
C258 O259 1.218 . S
O259 C258 1.218 . S
C260 O253 1.270 1_655 S
C260 O255 1.255 . S
C261 O262 1.262 . S
C261 O263 1.250 1_455 S
O262 Cd254 2.381 1_455 S
O262 C261 1.262 . S
O263 Cd254 2.378 . S
O263 C261 1.250 1_655 S
H264 C265 0.949 . S
C265 H264 0.949 . S
C265 C266 1.395 . S
C265 C267 1.391 . S
C266 C265 1.395 . S
C266 C269 1.390 . S
C267 C265 1.391 . S
C267 C271 1.387 . S
C267 C272 1.491 . S
H268 C269 0.950 . S
C269 C266 1.390 . S
C269 H268 0.950 . S
C269 C270 1.378 . S
C270 C269 1.378 . S
C270 C271 1.409 . S
C271 C267 1.387 . S
C271 C270 1.409 . S
C271 H273 0.951 . S
C272 C267 1.491 . S
C272 C274 1.382 . S
C272 C276 1.404 . S
H273 C271 0.951 . S
C274 C272 1.382 . S
C274 C275 1.390 . S
C274 H279 0.949 . S
C275 C274 1.390 . S
C275 C280 1.399 . S
C276 C272 1.404 . S
C276 H277 0.950 . S
C276 C278 1.375 . S
H277 C276 0.950 . S
C278 C276 1.375 . S
C278 C280 1.382 . S
C278 H282 0.950 . S
H279 C274 0.949 . S
C280 C275 1.399 . S
C280 C278 1.382 . S
C280 H281 0.952 . S
H281 C280 0.952 . S
H282 C278 0.950 . S
H283 C284 0.949 . S
C284 H283 0.949 . S
C284 C285 1.395 . S
C284 C286 1.391 . S
C285 C284 1.395 . S
C285 C288 1.390 . S
C286 C284 1.391 . S
C286 C290 1.387 1_556 S
C286 C291 1.491 1_556 S
H287 C288 0.950 . S
C288 C285 1.390 . S
C288 H287 0.950 . S
C288 C289 1.378 . S
C289 C288 1.378 . S
C289 C290 1.409 1_556 S
C290 C286 1.387 1_554 S
C290 C289 1.409 1_554 S
C290 H292 0.951 . S
C291 C286 1.491 1_554 S
C291 C293 1.382 1_554 S
C291 C295 1.404 . S
H292 C290 0.951 . S
C293 C291 1.382 1_556 S
C293 C294 1.390 1_556 S
C293 H298 0.949 . S
C294 C293 1.390 1_554 S
C294 C299 1.399 . S
C295 C291 1.404 . S
C295 H296 0.950 . S
C295 C297 1.375 . S
H296 C295 0.950 . S
C297 C295 1.375 . S
C297 C299 1.382 . S
C297 H301 0.950 . S
H298 C293 0.949 . S
C299 C294 1.399 . S
C299 C297 1.382 . S
C299 H300 0.952 . S
H300 C299 0.952 . S
H301 C297 0.950 . S
H302 C303 0.949 . S
C303 H302 0.949 . S
C303 C304 1.395 . S
C303 C305 1.391 . S
C304 C303 1.395 . S
C304 C307 1.390 1_545 S
C305 C303 1.391 . S
C305 C309 1.387 . S
C305 C310 1.491 . S
H306 C307 0.950 . S
C307 C304 1.390 1_565 S
C307 H306 0.950 . S
C307 C308 1.378 . S
C308 C307 1.378 . S
C308 C309 1.409 1_565 S
C309 C305 1.387 . S
C309 C308 1.409 1_545 S
C309 H311 0.951 . S
C310 C305 1.491 . S
C310 C312 1.382 . S
C310 C314 1.404 . S
H311 C309 0.951 . S
C312 C310 1.382 . S
C312 C313 1.390 . S
C312 H317 0.949 . S
C313 C312 1.390 . S
C313 C318 1.399 . S
C314 C310 1.404 . S
C314 H315 0.950 . S
C314 C316 1.375 . S
H315 C314 0.950 . S
C316 C314 1.375 . S
C316 C318 1.382 . S
C316 H320 0.950 . S
H317 C312 0.949 . S
C318 C313 1.399 . S
C318 C316 1.382 . S
C318 H319 0.952 . S
H319 C318 0.952 . S
H320 C316 0.950 . S
H321 C322 0.949 . S
C322 H321 0.949 . S
C322 C323 1.395 . S
C322 C324 1.391 . S
C323 C322 1.395 . S
C323 C326 1.390 1_565 S
C324 C322 1.391 . S
C324 C328 1.387 1_554 S
C324 C329 1.491 1_554 S
H325 C326 0.950 . S
C326 C323 1.390 1_545 S
C326 H325 0.950 . S
C326 C327 1.378 . S
C327 C326 1.378 . S
C327 C328 1.409 1_544 S
C328 C324 1.387 1_556 S
C328 C327 1.409 1_566 S
C328 H330 0.951 . S
C329 C324 1.491 1_556 S
C329 C331 1.382 1_556 S
C329 C333 1.404 . S
H330 C328 0.951 . S
C331 C329 1.382 1_554 S
C331 C332 1.390 1_554 S
C331 H336 0.949 . S
C332 C331 1.390 1_556 S
C332 C337 1.399 . S
C333 C329 1.404 . S
C333 H334 0.950 . S
C333 C335 1.375 . S
H334 C333 0.950 . S
C335 C333 1.375 . S
C335 C337 1.382 . S
C335 H339 0.950 . S
H336 C331 0.949 . S
C337 C332 1.399 . S
C337 C335 1.382 . S
C337 H338 0.952 . S
H338 C337 0.952 . S
H339 C335 0.950 . S
H340 C341 0.949 . S
C341 H340 0.949 . S
C341 C342 1.395 . S
C341 C343 1.391 . S
C342 C341 1.395 . S
C342 C345 1.390 . S
C343 C341 1.391 . S
C343 C347 1.387 . S
C343 C348 1.491 . S
H344 C345 0.950 . S
C345 C342 1.390 . S
C345 H344 0.950 . S
C345 C346 1.378 . S
C346 C345 1.378 . S
C346 C347 1.409 . S
C347 C343 1.387 . S
C347 C346 1.409 . S
C347 H349 0.951 . S
C348 C343 1.491 . S
C348 C350 1.382 . S
C348 C352 1.404 . S
H349 C347 0.951 . S
C350 C348 1.382 . S
C350 C351 1.390 . S
C350 H355 0.949 . S
C351 C350 1.390 . S
C351 C356 1.399 . S
C352 C348 1.404 . S
C352 H353 0.950 . S
C352 C354 1.375 . S
H353 C352 0.950 . S
C354 C352 1.375 . S
C354 C356 1.382 . S
C354 H358 0.950 . S
H355 C350 0.949 . S
C356 C351 1.399 . S
C356 C354 1.382 . S
C356 H357 0.952 . S
H357 C356 0.952 . S
H358 C354 0.950 . S
H359 C360 0.949 . S
C360 H359 0.949 . S
C360 C361 1.395 . S
C360 C362 1.391 . S
C361 C360 1.395 . S
C361 C364 1.390 1_556 S
C362 C360 1.391 . S
C362 C366 1.387 1_455 S
C362 C367 1.491 1_455 S
H363 C364 0.950 . S
C364 C361 1.390 1_554 S
C364 H363 0.950 . S
C364 C365 1.378 . S
C365 C364 1.378 . S
C365 C366 1.409 1_454 S
C366 C362 1.387 1_655 S
C366 C365 1.409 1_656 S
C366 H368 0.951 . S
C367 C362 1.491 1_655 S
C367 C369 1.382 1_655 S
C367 C371 1.404 . S
H368 C366 0.951 . S
C369 C367 1.382 1_455 S
C369 C370 1.390 1_455 S
C369 H374 0.949 . S
C370 C369 1.390 1_655 S
C370 C375 1.399 . S
C371 C367 1.404 . S
C371 H372 0.950 . S
C371 C373 1.375 . S
H372 C371 0.950 . S
C373 C371 1.375 . S
C373 C375 1.382 . S
C373 H377 0.950 . S
H374 C369 0.949 . S
C375 C370 1.399 . S
C375 C373 1.382 . S
C375 H376 0.952 . S
H376 C375 0.952 . S
H377 C373 0.950 . S
H378 C379 0.949 . S
C379 H378 0.949 . S
C379 C380 1.395 . S
C379 C381 1.391 . S
C380 C379 1.395 . S
C380 C383 1.390 . S
C381 C379 1.391 . S
C381 C385 1.387 1_655 S
C381 C386 1.491 1_655 S
H382 C383 0.950 . S
C383 C380 1.390 . S
C383 H382 0.950 . S
C383 C384 1.378 . S
C384 C383 1.378 . S
C384 C385 1.409 1_655 S
C385 C381 1.387 1_455 S
C385 C384 1.409 1_455 S
C385 H387 0.951 . S
C386 C381 1.491 1_455 S
C386 C388 1.382 1_455 S
C386 C390 1.404 . S
H387 C385 0.951 . S
C388 C386 1.382 1_655 S
C388 C389 1.390 1_655 S
C388 H393 0.949 . S
C389 C388 1.390 1_455 S
C389 C394 1.399 . S
C390 C386 1.404 . S
C390 H391 0.950 . S
C390 C392 1.375 . S
H391 C390 0.950 . S
C392 C390 1.375 . S
C392 C394 1.382 . S
C392 H396 0.950 . S
H393 C388 0.949 . S
C394 C389 1.399 . S
C394 C392 1.382 . S
C394 H395 0.952 . S
H395 C394 0.952 . S
H396 C392 0.950 . S
H397 C398 0.949 . S
C398 H397 0.949 . S
C398 C399 1.395 . S
C398 C400 1.391 . S
C399 C398 1.395 . S
C399 C402 1.390 1_554 S
C400 C398 1.391 . S
C400 C404 1.387 . S
C400 C405 1.491 . S
H401 C402 0.950 . S
C402 C399 1.390 1_556 S
C402 H401 0.950 . S
C402 C403 1.378 . S
C403 C402 1.378 . S
C403 C404 1.409 1_556 S
C404 C400 1.387 . S
C404 C403 1.409 1_554 S
C404 H406 0.951 . S
C405 C400 1.491 . S
C405 C407 1.382 . S
C405 C409 1.404 . S
H406 C404 0.951 . S
C407 C405 1.382 . S
C407 C408 1.390 . S
C407 H412 0.949 . S
C408 C407 1.390 . S
C408 C413 1.399 . S
C409 C405 1.404 . S
C409 H410 0.950 . S
C409 C411 1.375 . S
H410 C409 0.950 . S
C411 C409 1.375 . S
C411 C413 1.382 . S
C411 H415 0.950 . S
H412 C407 0.949 . S
C413 C408 1.399 . S
C413 C411 1.382 . S
C413 H414 0.952 . S
H414 C413 0.952 . S
H415 C411 0.950 . S
H416 C417 0.949 . S
C417 H416 0.949 . S
C417 C418 1.395 . S
C417 C419 1.391 . S
C418 C417 1.395 . S
C418 C421 1.390 . S
C419 C417 1.391 . S
C419 C423 1.387 . S
C419 C424 1.491 . S
H420 C421 0.950 . S
C421 C418 1.390 . S
C421 H420 0.950 . S
C421 C422 1.378 . S
C422 C421 1.378 . S
C422 C423 1.409 . S
C423 C419 1.387 . S
C423 C422 1.409 . S
C423 H425 0.951 . S
C424 C419 1.491 . S
C424 C426 1.382 . S
C424 C428 1.404 . S
H425 C423 0.951 . S
C426 C424 1.382 . S
C426 C427 1.390 . S
C426 H431 0.949 . S
C427 C426 1.390 . S
C427 C432 1.399 . S
C428 C424 1.404 . S
C428 H429 0.950 . S
C428 C430 1.375 . S
H429 C428 0.950 . S
C430 C428 1.375 . S
C430 C432 1.382 . S
C430 H434 0.950 . S
H431 C426 0.949 . S
C432 C427 1.399 . S
C432 C430 1.382 . S
C432 H433 0.952 . S
H433 C432 0.952 . S
H434 C430 0.950 . S
H435 C436 0.949 . S
C436 H435 0.949 . S
C436 C437 1.395 . S
C436 C438 1.391 . S
C437 C436 1.395 . S
C437 C440 1.390 1_655 S
C438 C436 1.391 . S
C438 C442 1.387 1_545 S
C438 C443 1.491 1_545 S
H439 C440 0.950 . S
C440 C437 1.390 1_455 S
C440 H439 0.950 . S
C440 C441 1.378 . S
C441 C440 1.378 . S
C441 C442 1.409 1_445 S
C442 C438 1.387 1_565 S
C442 C441 1.409 1_665 S
C442 H444 0.951 . S
C443 C438 1.491 1_565 S
C443 C445 1.382 1_565 S
C443 C447 1.404 . S
H444 C442 0.951 . S
C445 C443 1.382 1_545 S
C445 C446 1.390 1_545 S
C445 H450 0.949 . S
C446 C445 1.390 1_565 S
C446 C451 1.399 . S
C447 C443 1.404 . S
C447 H448 0.950 . S
C447 C449 1.375 . S
H448 C447 0.950 . S
C449 C447 1.375 . S
C449 C451 1.382 . S
C449 H453 0.950 . S
H450 C445 0.949 . S
C451 C446 1.399 . S
C451 C449 1.382 . S
C451 H452 0.952 . S
H452 C451 0.952 . S
H453 C449 0.950 . S
H454 C455 0.949 . S
C455 H454 0.949 . S
C455 C456 1.395 . S
C455 C457 1.391 . S
C456 C455 1.395 . S
C456 C459 1.390 . S
C457 C455 1.391 . S
C457 C461 1.387 1_565 S
C457 C462 1.491 1_565 S
H458 C459 0.950 . S
C459 C456 1.390 . S
C459 H458 0.950 . S
C459 C460 1.378 . S
C460 C459 1.378 . S
C460 C461 1.409 1_565 S
C461 C457 1.387 1_545 S
C461 C460 1.409 1_545 S
C461 H463 0.951 . S
C462 C457 1.491 1_545 S
C462 C464 1.382 1_545 S
C462 C466 1.404 . S
H463 C461 0.951 . S
C464 C462 1.382 1_565 S
C464 C465 1.390 1_565 S
C464 H469 0.949 . S
C465 C464 1.390 1_545 S
C465 C470 1.399 . S
C466 C462 1.404 . S
C466 H467 0.950 . S
C466 C468 1.375 . S
H467 C466 0.950 . S
C468 C466 1.375 . S
C468 C470 1.382 . S
C468 H472 0.950 . S
H469 C464 0.949 . S
C470 C465 1.399 . S
C470 C468 1.382 . S
C470 H471 0.952 . S
H471 C470 0.952 . S
H472 C468 0.950 . S
H473 C474 0.949 . S
C474 H473 0.949 . S
C474 C475 1.395 . S
C474 C476 1.391 . S
C475 C474 1.395 . S
C475 C478 1.390 1_455 S
C476 C474 1.391 . S
C476 C480 1.387 . S
C476 C481 1.491 . S
H477 C478 0.950 . S
C478 C475 1.390 1_655 S
C478 H477 0.950 . S
C478 C479 1.378 . S
C479 C478 1.378 . S
C479 C480 1.409 1_655 S
C480 C476 1.387 . S
C480 C479 1.409 1_455 S
C480 H482 0.951 . S
C481 C476 1.491 . S
C481 C483 1.382 . S
C481 C485 1.404 . S
H482 C480 0.951 . S
C483 C481 1.382 . S
C483 C484 1.390 . S
C483 H488 0.949 . S
C484 C483 1.390 . S
C484 C489 1.399 . S
C485 C481 1.404 . S
C485 H486 0.950 . S
C485 C487 1.375 . S
H486 C485 0.950 . S
C487 C485 1.375 . S
C487 C489 1.382 . S
C487 H491 0.950 . S
H488 C483 0.949 . S
C489 C484 1.399 . S
C489 C487 1.382 . S
C489 H490 0.952 . S
H490 C489 0.952 . S
H491 C487 0.950 . S
H492 C493 0.949 . S
C493 H492 0.949 . S
C493 C494 1.395 . S
C493 C495 1.391 . S
C494 C493 1.395 . S
C494 C497 1.390 . S
C495 C493 1.391 . S
C495 C499 1.387 . S
C495 C500 1.491 . S
H496 C497 0.950 . S
C497 C494 1.390 . S
C497 H496 0.950 . S
C497 C498 1.378 . S
C498 C497 1.378 . S
C498 C499 1.409 . S
C499 C495 1.387 . S
C499 C498 1.409 . S
C499 H501 0.951 . S
C500 C495 1.491 . S
C500 C502 1.382 . S
C500 C504 1.404 . S
H501 C499 0.951 . S
C502 C500 1.382 . S
C502 C503 1.390 . S
C502 H507 0.949 . S
C503 C502 1.390 . S
C503 C508 1.399 . S
C504 C500 1.404 . S
C504 H505 0.950 . S
C504 C506 1.375 . S
H505 C504 0.950 . S
C506 C504 1.375 . S
C506 C508 1.382 . S
C506 H510 0.950 . S
H507 C502 0.949 . S
C508 C503 1.399 . S
C508 C506 1.382 . S
C508 H509 0.952 . S
H509 C508 0.952 . S
H510 C506 0.950 . S
H511 C512 0.949 . S
C512 H511 0.949 . S
C512 C513 1.395 . S
C512 C514 1.391 . S
C513 C512 1.395 . S
C513 C516 1.390 . S
C514 C512 1.391 . S
C514 C518 1.387 1_554 S
C514 C519 1.491 . S
H515 C516 0.950 . S
C516 C513 1.390 . S
C516 H515 0.950 . S
C516 C517 1.378 . S
C517 C516 1.378 . S
C517 C518 1.409 1_554 S
C518 C514 1.387 1_556 S
C518 C517 1.409 1_556 S
C518 H520 0.951 . S
C519 C514 1.491 . S
C519 C521 1.382 . S
C519 C523 1.404 1_554 S
H520 C518 0.951 . S
C521 C519 1.382 . S
C521 C522 1.390 1_554 S
C521 H526 0.949 . S
C522 C521 1.390 1_556 S
C522 C527 1.399 . S
C523 C519 1.404 1_556 S
C523 H524 0.950 . S
C523 C525 1.375 . S
H524 C523 0.950 . S
C525 C523 1.375 . S
C525 C527 1.382 . S
C525 H529 0.950 . S
H526 C521 0.949 . S
C527 C522 1.399 . S
C527 C525 1.382 . S
C527 H528 0.952 . S
H528 C527 0.952 . S
H529 C525 0.950 . S
H530 C531 0.949 . S
C531 H530 0.949 . S
C531 C532 1.395 . S
C531 C533 1.391 . S
C532 C531 1.395 . S
C532 C535 1.390 1_565 S
C533 C531 1.391 . S
C533 C537 1.387 . S
C533 C538 1.491 . S
H534 C535 0.950 . S
C535 C532 1.390 1_545 S
C535 H534 0.950 . S
C535 C536 1.378 . S
C536 C535 1.378 . S
C536 C537 1.409 1_545 S
C537 C533 1.387 . S
C537 C536 1.409 1_565 S
C537 H539 0.951 . S
C538 C533 1.491 . S
C538 C540 1.382 . S
C538 C542 1.404 . S
H539 C537 0.951 . S
C540 C538 1.382 . S
C540 C541 1.390 . S
C540 H545 0.949 . S
C541 C540 1.390 . S
C541 C546 1.399 . S
C542 C538 1.404 . S
C542 H543 0.950 . S
C542 C544 1.375 . S
H543 C542 0.950 . S
C544 C542 1.375 . S
C544 C546 1.382 . S
C544 H548 0.950 . S
H545 C540 0.949 . S
C546 C541 1.399 . S
C546 C544 1.382 . S
C546 H547 0.952 . S
H547 C546 0.952 . S
H548 C544 0.950 . S
H549 C550 0.949 . S
C550 H549 0.949 . S
C550 C551 1.395 . S
C550 C552 1.391 . S
C551 C550 1.395 . S
C551 C554 1.390 1_545 S
C552 C550 1.391 . S
C552 C556 1.387 1_556 S
C552 C557 1.492 . S
H553 C554 0.950 . S
C554 C551 1.390 1_565 S
C554 H553 0.950 . S
C554 C555 1.378 . S
C555 C554 1.378 . S
C555 C556 1.409 1_566 S
C556 C552 1.387 1_554 S
C556 C555 1.409 1_544 S
C556 H558 0.951 . S
C557 C552 1.492 . S
C557 C559 1.382 . S
C557 C561 1.402 1_556 S
H558 C556 0.951 . S
C559 C557 1.382 . S
C559 C560 1.390 1_556 S
C559 H564 0.949 . S
C560 C559 1.390 1_554 S
C560 C565 1.399 . S
C561 C557 1.402 1_554 S
C561 H562 0.950 . S
C561 C563 1.375 . S
H562 C561 0.950 . S
C563 C561 1.375 . S
C563 C565 1.382 . S
C563 H567 0.950 . S
H564 C559 0.949 . S
C565 C560 1.399 . S
C565 C563 1.382 . S
C565 H566 0.952 . S
H566 C565 0.952 . S
H567 C563 0.950 . S
H568 C569 0.949 . S
C569 H568 0.949 . S
C569 C570 1.395 . S
C569 C571 1.391 . S
C570 C569 1.395 . S
C570 C573 1.390 . S
C571 C569 1.391 . S
C571 C575 1.387 . S
C571 C576 1.491 . S
H572 C573 0.950 . S
C573 C570 1.390 . S
C573 H572 0.950 . S
C573 C574 1.378 . S
C574 C573 1.378 . S
C574 C575 1.409 . S
C575 C571 1.387 . S
C575 C574 1.409 . S
C575 H577 0.951 . S
C576 C571 1.491 . S
C576 C578 1.382 . S
C576 C580 1.404 . S
H577 C575 0.951 . S
C578 C576 1.382 . S
C578 C579 1.390 . S
C578 H583 0.949 . S
C579 C578 1.390 . S
C579 C584 1.399 . S
C580 C576 1.404 . S
C580 H581 0.950 . S
C580 C582 1.375 . S
H581 C580 0.950 . S
C582 C580 1.375 . S
C582 C584 1.382 . S
C582 H586 0.950 . S
H583 C578 0.949 . S
C584 C579 1.399 . S
C584 C582 1.382 . S
C584 H585 0.952 . S
H585 C584 0.952 . S
H586 C582 0.950 . S
H587 C588 0.949 . S
C588 H587 0.949 . S
C588 C589 1.395 . S
C588 C590 1.391 . S
C589 C588 1.395 . S
C589 C592 1.390 1_554 S
C590 C588 1.391 . S
C590 C594 1.387 1_655 S
C590 C595 1.492 . S
H591 C592 0.950 . S
C592 C589 1.390 1_556 S
C592 H591 0.950 . S
C592 C593 1.378 . S
C593 C592 1.378 . S
C593 C594 1.409 1_656 S
C594 C590 1.387 1_455 S
C594 C593 1.409 1_454 S
C594 H596 0.951 . S
C595 C590 1.492 . S
C595 C597 1.382 . S
C595 C599 1.402 1_655 S
H596 C594 0.951 . S
C597 C595 1.382 . S
C597 C598 1.390 1_655 S
C597 H602 0.949 . S
C598 C597 1.390 1_455 S
C598 C603 1.399 . S
C599 C595 1.402 1_455 S
C599 H600 0.950 . S
C599 C601 1.375 . S
H600 C599 0.950 . S
C601 C599 1.375 . S
C601 C603 1.382 . S
C601 H605 0.950 . S
H602 C597 0.949 . S
C603 C598 1.399 . S
C603 C601 1.382 . S
C603 H604 0.952 . S
H604 C603 0.952 . S
H605 C601 0.950 . S
H606 C607 0.949 . S
C607 H606 0.949 . S
C607 C608 1.395 . S
C607 C609 1.391 . S
C608 C607 1.395 . S
C608 C611 1.390 . S
C609 C607 1.391 . S
C609 C613 1.387 1_455 S
C609 C614 1.491 . S
H610 C611 0.950 . S
C611 C608 1.390 . S
C611 H610 0.950 . S
C611 C612 1.378 . S
C612 C611 1.378 . S
C612 C613 1.409 1_455 S
C613 C609 1.387 1_655 S
C613 C612 1.409 1_655 S
C613 H615 0.951 . S
C614 C609 1.491 . S
C614 C616 1.382 . S
C614 C618 1.404 1_455 S
H615 C613 0.951 . S
C616 C614 1.382 . S
C616 C617 1.390 1_455 S
C616 H621 0.949 . S
C617 C616 1.390 1_655 S
C617 C622 1.399 . S
C618 C614 1.404 1_655 S
C618 H619 0.950 . S
C618 C620 1.375 . S
H619 C618 0.950 . S
C620 C618 1.375 . S
C620 C622 1.382 . S
C620 H624 0.950 . S
H621 C616 0.949 . S
C622 C617 1.399 . S
C622 C620 1.382 . S
C622 H623 0.952 . S
H623 C622 0.952 . S
H624 C620 0.950 . S
H625 C626 0.949 . S
C626 H625 0.949 . S
C626 C627 1.395 . S
C626 C628 1.391 . S
C627 C626 1.395 . S
C627 C630 1.390 1_556 S
C628 C626 1.391 . S
C628 C632 1.387 . S
C628 C633 1.491 . S
H629 C630 0.950 . S
C630 C627 1.390 1_554 S
C630 H629 0.950 . S
C630 C631 1.378 . S
C631 C630 1.378 . S
C631 C632 1.409 1_554 S
C632 C628 1.387 . S
C632 C631 1.409 1_556 S
C632 H634 0.951 . S
C633 C628 1.491 . S
C633 C635 1.382 . S
C633 C637 1.404 . S
H634 C632 0.951 . S
C635 C633 1.382 . S
C635 C636 1.390 . S
C635 H640 0.949 . S
C636 C635 1.390 . S
C636 C641 1.399 . S
C637 C633 1.404 . S
C637 H638 0.950 . S
C637 C639 1.375 . S
H638 C637 0.950 . S
C639 C637 1.375 . S
C639 C641 1.382 . S
C639 H643 0.950 . S
H640 C635 0.949 . S
C641 C636 1.399 . S
C641 C639 1.382 . S
C641 H642 0.952 . S
H642 C641 0.952 . S
H643 C639 0.950 . S
H644 C645 0.949 . S
C645 H644 0.949 . S
C645 C646 1.395 . S
C645 C647 1.391 . S
C646 C645 1.395 . S
C646 C649 1.390 . S
C647 C645 1.391 . S
C647 C651 1.387 . S
C647 C652 1.491 . S
H648 C649 0.950 . S
C649 C646 1.390 . S
C649 H648 0.950 . S
C649 C650 1.378 . S
C650 C649 1.378 . S
C650 C651 1.409 . S
C651 C647 1.387 . S
C651 C650 1.409 . S
C651 H653 0.951 . S
C652 C647 1.491 . S
C652 C654 1.382 . S
C652 C656 1.404 . S
H653 C651 0.951 . S
C654 C652 1.382 . S
C654 C655 1.390 . S
C654 H659 0.949 . S
C655 C654 1.390 . S
C655 C660 1.399 . S
C656 C652 1.404 . S
C656 H657 0.950 . S
C656 C658 1.375 . S
H657 C656 0.950 . S
C658 C656 1.375 . S
C658 C660 1.382 . S
C658 H662 0.950 . S
H659 C654 0.949 . S
C660 C655 1.399 . S
C660 C658 1.382 . S
C660 H661 0.952 . S
H661 C660 0.952 . S
H662 C658 0.950 . S
H663 C664 0.949 . S
C664 H663 0.949 . S
C664 C665 1.395 . S
C664 C666 1.391 . S
C665 C664 1.395 . S
C665 C668 1.390 1_455 S
C666 C664 1.391 . S
C666 C670 1.387 1_565 S
C666 C671 1.492 . S
H667 C668 0.950 . S
C668 C665 1.390 1_655 S
C668 H667 0.950 . S
C668 C669 1.378 . S
C669 C668 1.378 . S
C669 C670 1.409 1_665 S
C670 C666 1.387 1_545 S
C670 C669 1.409 1_445 S
C670 H672 0.951 . S
C671 C666 1.492 . S
C671 C673 1.382 . S
C671 C675 1.402 1_565 S
H672 C670 0.951 . S
C673 C671 1.382 . S
C673 C674 1.390 1_565 S
C673 H678 0.949 . S
C674 C673 1.390 1_545 S
C674 C679 1.399 . S
C675 C671 1.402 1_545 S
C675 H676 0.950 . S
C675 C677 1.375 . S
H676 C675 0.950 . S
C677 C675 1.375 . S
C677 C679 1.382 . S
C677 H681 0.950 . S
H678 C673 0.949 . S
C679 C674 1.399 . S
C679 C677 1.382 . S
C679 H680 0.952 . S
H680 C679 0.952 . S
H681 C677 0.950 . S
H682 C683 0.949 . S
C683 H682 0.949 . S
C683 C684 1.395 . S
C683 C685 1.391 . S
C684 C683 1.395 . S
C684 C687 1.390 . S
C685 C683 1.391 . S
C685 C689 1.387 1_545 S
C685 C690 1.491 . S
H686 C687 0.950 . S
C687 C684 1.390 . S
C687 H686 0.950 . S
C687 C688 1.378 . S
C688 C687 1.378 . S
C688 C689 1.409 1_545 S
C689 C685 1.387 1_565 S
C689 C688 1.409 1_565 S
C689 H691 0.951 . S
C690 C685 1.491 . S
C690 C692 1.382 . S
C690 C694 1.404 1_545 S
H691 C689 0.951 . S
C692 C690 1.382 . S
C692 C693 1.390 1_545 S
C692 H697 0.949 . S
C693 C692 1.390 1_565 S
C693 C698 1.399 . S
C694 C690 1.404 1_565 S
C694 H695 0.950 . S
C694 C696 1.375 . S
H695 C694 0.950 . S
C696 C694 1.375 . S
C696 C698 1.382 . S
C696 H700 0.950 . S
H697 C692 0.949 . S
C698 C693 1.399 . S
C698 C696 1.382 . S
C698 H699 0.952 . S
H699 C698 0.952 . S
H700 C696 0.950 . S
H701 C702 0.949 . S
C702 H701 0.949 . S
C702 C703 1.395 . S
C702 C704 1.391 . S
C703 C702 1.395 . S
C703 C706 1.390 1_655 S
C704 C702 1.391 . S
C704 C708 1.387 . S
C704 C709 1.491 . S
H705 C706 0.950 . S
C706 C703 1.390 1_455 S
C706 H705 0.950 . S
C706 C707 1.378 . S
C707 C706 1.378 . S
C707 C708 1.409 1_455 S
C708 C704 1.387 . S
C708 C707 1.409 1_655 S
C708 H710 0.951 . S
C709 C704 1.491 . S
C709 C711 1.382 . S
C709 C713 1.404 . S
H710 C708 0.951 . S
C711 C709 1.382 . S
C711 C712 1.390 . S
C711 H716 0.949 . S
C712 C711 1.390 . S
C712 C717 1.399 . S
C713 C709 1.404 . S
C713 H714 0.950 . S
C713 C715 1.375 . S
H714 C713 0.950 . S
C715 C713 1.375 . S
C715 C717 1.382 . S
C715 H719 0.950 . S
H716 C711 0.949 . S
C717 C712 1.399 . S
C717 C715 1.382 . S
C717 H718 0.952 . S
H718 C717 0.952 . S
H719 C715 0.950 . S
C707 C8 1.666 . S
C650 C19 1.721 . S
C688 C30 1.539 1_545 S
C669 C41 1.669 1_565 S
C536 C52 1.666 . S
C63 C555 1.669 1_554 S
C498 C74 1.721 . S
C85 C517 1.539 1_556 S
C631 C96 1.666 . S
C107 C593 1.669 1_455 S
C118 C574 1.721 . S
C612 C129 1.539 1_455 S
C479 C140 1.524 . S
C151 C422 1.558 . S
C460 C162 1.411 1_565 S
C173 C441 1.536 1_565 S
C308 C184 1.524 . S
C327 C195 1.536 1_554 S
C206 C270 1.558 . S
C217 C289 1.411 1_554 S
C228 C403 1.524 . S
C239 C365 1.536 1_655 S
C346 C250 1.558 . S
C261 C384 1.411 1_455 S
C266 C7 1.584 . S
C285 C18 1.600 . S
C29 C304 1.479 . S
C40 C323 1.486 . S
C342 C51 1.584 . S
C62 C361 1.486 . S
C380 C73 1.600 . S
C399 C84 1.479 . S
C418 C95 1.584 . S
C106 C437 1.486 . S
C117 C456 1.600 . S
C128 C475 1.479 . S
C139 C494 1.353 . S
C150 C513 1.306 . S
C161 C532 1.289 . S
C172 C551 1.287 . S
C183 C570 1.353 . S
C589 C194 1.287 . S
C608 C205 1.306 . S
C627 C216 1.289 . S
C646 C227 1.353 . S
C238 C665 1.287 . S
C249 C684 1.306 . S
C260 C703 1.289 . S
C5 C427 1.305 . S
C484 C16 1.304 . S
C27 C446 1.227 . S
C465 C38 1.235 . S
C49 C275 1.305 . S
C60 C294 1.235 . S
C71 C313 1.304 . S
C82 C332 1.227 . S
C351 C93 1.305 . S
C389 C104 1.235 . S
C115 C408 1.304 . S
C126 C370 1.227 . S
C655 C137 1.253 . S
C712 C148 1.296 . S
C159 C674 1.334 1_565 S
C693 C170 1.256 1_565 S
C181 C503 1.253 . S
C192 C522 1.256 1_554 S
C203 C541 1.296 . S
C560 C214 1.334 1_554 S
C579 C225 1.253 . S
C617 C236 1.256 1_655 S
C247 C636 1.296 . S
C598 C258 1.334 1_455 S
