# Generated by pormake.
# Topology ssc, (4,4)-cn, num edge types: 1
# Building blocks:
#     Node 0, Type 0, BuildingBlock: ESEHIV_clean_sbu_0, # of connection points: 4
#     Node 1, Type 0, BuildingBlock: ESEHIV_clean_sbu_0, # of connection points: 4
#     Node 2, Type 0, BuildingBlock: ESEHIV_clean_sbu_0, # of connection points: 4
#     Node 3, Type 0, BuildingBlock: ESEHIV_clean_sbu_0, # of connection points: 4
#     Node 4, Type 0, BuildingBlock: ESEHIV_clean_sbu_0, # of connection points: 4
#     Node 5, Type 0, BuildingBlock: ESEHIV_clean_sbu_0, # of connection points: 4
#     Node 6, Type 0, BuildingBlock: ESEHIV_clean_sbu_0, # of connection points: 4
#     Node 7, Type 0, BuildingBlock: ESEHIV_clean_sbu_0, # of connection points: 4
#     Node 8, Type 0, BuildingBlock: ESEHIV_clean_sbu_0, # of connection points: 4
#     Node 9, Type 0, BuildingBlock: ESEHIV_clean_sbu_0, # of connection points: 4
#     Node 10, Type 0, BuildingBlock: ESEHIV_clean_sbu_0, # of connection points: 4
#     Node 11, Type 0, BuildingBlock: ESEHIV_clean_sbu_0, # of connection points: 4
#     Node 12, Type 1, BuildingBlock: GIZVER_clean_linker_0, # of connection points: 4
#     Node 13, Type 1, BuildingBlock: GIZVER_clean_linker_0, # of connection points: 4
#     Node 14, Type 1, BuildingBlock: GIZVER_clean_linker_0, # of connection points: 4
#     Node 15, Type 1, BuildingBlock: GIZVER_clean_linker_0, # of connection points: 4
#     Node 16, Type 1, BuildingBlock: GIZVER_clean_linker_0, # of connection points: 4
#     Node 17, Type 1, BuildingBlock: GIZVER_clean_linker_0, # of connection points: 4
#     Node 18, Type 1, BuildingBlock: GIZVER_clean_linker_0, # of connection points: 4
#     Node 19, Type 1, BuildingBlock: GIZVER_clean_linker_0, # of connection points: 4
#     Node 20, Type 1, BuildingBlock: GIZVER_clean_linker_0, # of connection points: 4
#     Node 21, Type 1, BuildingBlock: GIZVER_clean_linker_0, # of connection points: 4
#     Node 22, Type 1, BuildingBlock: GIZVER_clean_linker_0, # of connection points: 4
#     Node 23, Type 1, BuildingBlock: GIZVER_clean_linker_0, # of connection points: 4
#     Edge 24, Type (0, 1), BuildingBlock: UVAHIK_clean_linker_0, # of connection points: 2
#     Edge 25, Type (0, 1), BuildingBlock: UVAHIK_clean_linker_0, # of connection points: 2
#     Edge 26, Type (0, 1), BuildingBlock: UVAHIK_clean_linker_0, # of connection points: 2
#     Edge 27, Type (0, 1), BuildingBlock: UVAHIK_clean_linker_0, # of connection points: 2
#     Edge 28, Type (0, 1), BuildingBlock: UVAHIK_clean_linker_0, # of connection points: 2
#     Edge 29, Type (0, 1), BuildingBlock: UVAHIK_clean_linker_0, # of connection points: 2
#     Edge 30, Type (0, 1), BuildingBlock: UVAHIK_clean_linker_0, # of connection points: 2
#     Edge 31, Type (0, 1), BuildingBlock: UVAHIK_clean_linker_0, # of connection points: 2
#     Edge 32, Type (0, 1), BuildingBlock: UVAHIK_clean_linker_0, # of connection points: 2
#     Edge 33, Type (0, 1), BuildingBlock: UVAHIK_clean_linker_0, # of connection points: 2
#     Edge 34, Type (0, 1), BuildingBlock: UVAHIK_clean_linker_0, # of connection points: 2
#     Edge 35, Type (0, 1), BuildingBlock: UVAHIK_clean_linker_0, # of connection points: 2
#     Edge 36, Type (0, 1), BuildingBlock: UVAHIK_clean_linker_0, # of connection points: 2
#     Edge 37, Type (0, 1), BuildingBlock: UVAHIK_clean_linker_0, # of connection points: 2
#     Edge 38, Type (0, 1), BuildingBlock: UVAHIK_clean_linker_0, # of connection points: 2
#     Edge 39, Type (0, 1), BuildingBlock: UVAHIK_clean_linker_0, # of connection points: 2
#     Edge 40, Type (0, 1), BuildingBlock: UVAHIK_clean_linker_0, # of connection points: 2
#     Edge 41, Type (0, 1), BuildingBlock: UVAHIK_clean_linker_0, # of connection points: 2
#     Edge 42, Type (0, 1), BuildingBlock: UVAHIK_clean_linker_0, # of connection points: 2
#     Edge 43, Type (0, 1), BuildingBlock: UVAHIK_clean_linker_0, # of connection points: 2
#     Edge 44, Type (0, 1), BuildingBlock: UVAHIK_clean_linker_0, # of connection points: 2
#     Edge 45, Type (0, 1), BuildingBlock: UVAHIK_clean_linker_0, # of connection points: 2
#     Edge 46, Type (0, 1), BuildingBlock: UVAHIK_clean_linker_0, # of connection points: 2
#     Edge 47, Type (0, 1), BuildingBlock: UVAHIK_clean_linker_0, # of connection points: 2
#     Edge 48, Type (0, 1), BuildingBlock: UVAHIK_clean_linker_0, # of connection points: 2
#     Edge 49, Type (0, 1), BuildingBlock: UVAHIK_clean_linker_0, # of connection points: 2
#     Edge 50, Type (0, 1), BuildingBlock: UVAHIK_clean_linker_0, # of connection points: 2
#     Edge 51, Type (0, 1), BuildingBlock: UVAHIK_clean_linker_0, # of connection points: 2
#     Edge 52, Type (0, 1), BuildingBlock: UVAHIK_clean_linker_0, # of connection points: 2
#     Edge 53, Type (0, 1), BuildingBlock: UVAHIK_clean_linker_0, # of connection points: 2
#     Edge 54, Type (0, 1), BuildingBlock: UVAHIK_clean_linker_0, # of connection points: 2
#     Edge 55, Type (0, 1), BuildingBlock: UVAHIK_clean_linker_0, # of connection points: 2
#     Edge 56, Type (0, 1), BuildingBlock: UVAHIK_clean_linker_0, # of connection points: 2
#     Edge 57, Type (0, 1), BuildingBlock: UVAHIK_clean_linker_0, # of connection points: 2
#     Edge 58, Type (0, 1), BuildingBlock: UVAHIK_clean_linker_0, # of connection points: 2
#     Edge 59, Type (0, 1), BuildingBlock: UVAHIK_clean_linker_0, # of connection points: 2
#     Edge 60, Type (0, 1), BuildingBlock: UVAHIK_clean_linker_0, # of connection points: 2
#     Edge 61, Type (0, 1), BuildingBlock: UVAHIK_clean_linker_0, # of connection points: 2
#     Edge 62, Type (0, 1), BuildingBlock: UVAHIK_clean_linker_0, # of connection points: 2
#     Edge 63, Type (0, 1), BuildingBlock: UVAHIK_clean_linker_0, # of connection points: 2
#     Edge 64, Type (0, 1), BuildingBlock: UVAHIK_clean_linker_0, # of connection points: 2
#     Edge 65, Type (0, 1), BuildingBlock: UVAHIK_clean_linker_0, # of connection points: 2
#     Edge 66, Type (0, 1), BuildingBlock: UVAHIK_clean_linker_0, # of connection points: 2
#     Edge 67, Type (0, 1), BuildingBlock: UVAHIK_clean_linker_0, # of connection points: 2
#     Edge 68, Type (0, 1), BuildingBlock: UVAHIK_clean_linker_0, # of connection points: 2
#     Edge 69, Type (0, 1), BuildingBlock: UVAHIK_clean_linker_0, # of connection points: 2
#     Edge 70, Type (0, 1), BuildingBlock: UVAHIK_clean_linker_0, # of connection points: 2
#     Edge 71, Type (0, 1), BuildingBlock: UVAHIK_clean_linker_0, # of connection points: 2
# Relax obj value: 0.047
# Max RMSD: 0.289
# Mean RMSD: 0.195
data_MOF--net-ssc--node1-ESEHIV_clean_sbu_0--node2-GIZVER_clean_linker_0--edge1-UVAHIK_clean_linker_0
_symmetry_space_group_name_H-M    P1
_symmetry_Int_Tables_number       1
_symmetry_cell_setting            triclinic
loop_
_symmetry_equiv_pos_as_xyz
'x, y, z'
_cell_length_a     42.151189
_cell_length_b     42.162798
_cell_length_c     42.052342
_cell_angle_alpha  90.015209
_cell_angle_beta   92.788429
_cell_angle_gamma 96.067923
loop_
_atom_site_label
_atom_site_type_symbol
_atom_site_fract_x
_atom_site_fract_y
_atom_site_fract_z
_atom_type_partial_charge
Cu0 Cu 0.98629 0.27169 0.14269 0.0
N1 N 0.96586 0.23098 0.14956 0.0
N2 N 0.93153 0.19587 0.17385 0.0
C3 C 0.94642 0.2258 0.17386 0.0
C4 C 0.94222 0.18149 0.14829 0.0
C5 C 0.96349 0.20325 0.13332 0.0
O6 O 0.01586 0.28104 0.17985 0.0
C7 C 0.9266 0.29345 0.12276 0.0
O8 O 0.90354 0.31187 0.12469 0.0
H9 H 0.94235 0.24436 0.19048 0.0
H10 H 0.9754 0.19941 0.11167 0.0
N11 N 1.00737 0.27776 0.10457 0.0
N12 N 0.02542 0.30375 0.06152 0.0
C13 C 0.01056 0.30579 0.08903 0.0
C14 C 0.02133 0.2573 0.08659 0.0
C15 C 0.03257 0.27334 0.06 0.0
C16 C 0.04542 0.2911 0.17885 0.0
O17 O 0.05749 0.2984 0.15126 0.0
H18 H 1.00146 0.32716 0.0975 0.0
H19 H 0.02288 0.23247 0.09217 0.0
O20 O 0.95174 0.29889 0.14105 0.0
H21 H 0.93504 0.15715 0.14073 0.0
H22 H 0.04425 0.2632 0.04063 0.0
Cu23 Cu 1.00708 0.8157 0.3802 0.0
N24 N 0.96976 0.83119 0.39306 0.0
N25 N 0.9411 0.8613 0.42215 0.0
C26 C 0.97045 0.85632 0.41292 0.0
C27 C 0.92108 0.83819 0.40722 0.0
C28 C 0.93885 0.81955 0.38947 0.0
O29 O 0.02266 0.79076 0.41586 0.0
C30 C 0.03443 0.87137 0.34877 0.0
O31 O 0.05681 0.89495 0.34484 0.0
H32 H 0.99244 0.87025 0.42079 0.0
H33 H 0.92994 0.79826 0.37618 0.0
N34 N 1.00352 0.79202 0.3422 0.0
N35 N 0.02021 0.77338 0.29665 0.0
C36 C 0.0289 0.78695 0.3253 0.0
C37 C 0.97772 0.78096 0.32378 0.0
C38 C 0.98795 0.76928 0.29574 0.0
C39 C 0.01539 0.76073 0.41812 0.0
O40 O 0.99858 0.74538 0.3947 0.0
H41 H 0.05329 0.79443 0.33344 0.0
H42 H 0.95326 0.78272 0.32945 0.0
O43 O 0.037 0.85288 0.37259 0.0
H44 H 0.89561 0.83397 0.41005 0.0
H45 H 0.97277 0.7602 0.27556 0.0
Cu46 Cu 0.54266 0.80111 0.64673 0.0
N47 N 0.57855 0.82161 0.62829 0.0
N48 N 0.60453 0.85528 0.59493 0.0
C49 C 0.57588 0.84236 0.60428 0.0
C50 C 0.62626 0.84154 0.61351 0.0
C51 C 0.61012 0.8207 0.63411 0.0
O52 O 0.52749 0.76447 0.61955 0.0
C53 C 0.51301 0.85523 0.66787 0.0
O54 O 0.48941 0.87322 0.66786 0.0
H55 H 0.5531 0.84796 0.59407 0.0
H56 H 0.62068 0.80623 0.6521 0.0
N57 N 0.54808 0.78793 0.68895 0.0
N58 N 0.53154 0.77893 0.73837 0.0
C59 C 0.52287 0.7821 0.70727 0.0
C60 C 0.57399 0.78802 0.70897 0.0
C61 C 0.56385 0.78237 0.73948 0.0
C62 C 0.51142 0.7678 0.59354 0.0
O63 O 0.50315 0.79616 0.58611 0.0
H64 H 0.49858 0.78298 0.69803 0.0
H65 H 0.59837 0.79376 0.70236 0.0
O66 O 0.51171 0.83232 0.64773 0.0
H67 H 0.65192 0.84662 0.61274 0.0
H68 H 0.57917 0.78225 0.76087 0.0
Cu69 Cu 0.56171 0.24994 0.90296 0.0
N70 N 0.54434 0.24869 0.94313 0.0
N71 N 0.53448 0.26705 0.9912 0.0
C72 C 0.54514 0.2745 0.96212 0.0
C73 C 0.52617 0.23523 0.99035 0.0
C74 C 0.53244 0.22391 0.96065 0.0
O75 O 0.60184 0.27732 0.90638 0.0
C76 C 0.50327 0.25517 0.86903 0.0
O77 O 0.4919 0.23581 0.8912 0.0
H78 H 0.55442 0.29821 0.95498 0.0
H79 H 0.52972 0.19928 0.95291 0.0
N80 N 0.5697 0.21085 0.88617 0.0
N81 N 0.58601 0.18113 0.84736 0.0
C82 C 0.59144 0.20861 0.86405 0.0
C83 C 0.54987 0.18369 0.88356 0.0
C84 C 0.55989 0.16528 0.85956 0.0
C85 C 0.62248 0.27808 0.9297 0.0
O86 O 0.64714 0.29991 0.93001 0.0
H87 H 0.60853 0.22835 0.85779 0.0
H88 H 0.52787 0.17911 0.89576 0.0
O89 O 0.53263 0.26619 0.87112 0.0
H90 H 0.51758 0.22099 0.0102 0.0
H91 H 0.54753 0.14319 0.85017 0.0
Cu92 Cu 0.15886 0.01183 0.24542 0.0
N93 N 0.14133 0.01588 0.28497 0.0
N94 N 0.10744 0.0107 0.32457 0.0
C95 C 0.11097 0.0075 0.29291 0.0
C96 C 0.1369 0.02147 0.33675 0.0
C97 C 0.15764 0.02453 0.31237 0.0
O98 O 0.12662 0.01695 0.21151 0.0
C99 C 0.19504 0.07259 0.24653 0.0
O100 O 0.16764 0.08243 0.25354 0.0
H101 H 0.09206 0.99894 0.27573 0.0
H102 H 0.18306 0.03172 0.31453 0.0
N103 N 0.17103 0.97063 0.24351 0.0
N104 N 0.19833 0.92837 0.25117 0.0
C105 C 0.19831 0.96018 0.25535 0.0
C106 C 0.15309 0.94464 0.2317 0.0
C107 C 0.16989 0.91857 0.23623 0.0
C108 C 0.13107 0.0099 0.18272 0.0
O109 O 0.15856 1.00031 0.17569 0.0
H110 H 0.21775 0.97568 0.2666 0.0
H111 H 0.12927 0.94463 0.22091 0.0
O112 O 0.19631 0.04293 0.2417 0.0
H113 H 0.14345 0.02603 0.36165 0.0
H114 H 0.16155 0.89423 0.22951 0.0
Cu115 Cu 0.28572 0.93773 0.49909 0.0
N116 N 0.32132 0.92668 0.47855 0.0
N117 N 0.34738 0.89975 0.44405 0.0
C118 C 0.3187 0.90647 0.45353 0.0
C119 C 0.36903 0.91637 0.46415 0.0
C120 C 0.35285 0.93301 0.48544 0.0
O121 O 0.27388 0.90334 0.52901 0.0
C122 C 0.24912 0.96425 0.44787 0.0
O123 O 0.22373 0.96381 0.42844 0.0
H124 H 0.29596 0.89589 0.44332 0.0
H125 H 0.3633 0.94782 0.50502 0.0
N126 N 0.28971 0.9774 0.51975 0.0
N127 N 0.27081 0.02217 0.5359 0.0
C128 C 0.26372 0.99137 0.52699 0.0
C129 C 0.31456 0.99988 0.52486 0.0
C130 C 0.30296 0.02757 0.53486 0.0
C131 C 0.27971 0.90593 0.55901 0.0
O132 O 0.29291 0.93324 0.57095 0.0
H133 H 0.23974 0.97974 0.52287 0.0
H134 H 0.33898 0.99711 0.51965 0.0
O135 O 0.25217 0.94027 0.46597 0.0
H136 H 0.39466 0.91615 0.46386 0.0
H137 H 0.31702 0.05022 0.53944 0.0
Cu138 Cu 0.38188 0.96364 0.77783 0.0
N139 N 0.39002 0.92498 0.79667 0.0
N140 N 0.41583 0.89344 0.82947 0.0
C141 C 0.40646 0.92276 0.82474 0.0
C142 C 0.40512 0.87654 0.80312 0.0
C143 C 0.38912 0.89604 0.78295 0.0
O144 O 0.41478 0.97182 0.74674 0.0
C145 C 0.36761 1.00303 0.83114 0.0
O146 O 0.37551 0.02723 0.85063 0.0
H147 H 0.41357 0.94302 0.84027 0.0
H148 H 0.37965 0.89027 0.75904 0.0
N149 N 0.34048 0.96413 0.75914 0.0
N150 N 0.29419 0.98378 0.74586 0.0
C151 C 0.3254 0.9906 0.75495 0.0
C152 C 0.31827 0.93959 0.7518 0.0
C153 C 0.28974 0.95163 0.74357 0.0
C154 C 0.41002 0.97251 0.7166 0.0
O155 O 0.38065 0.97011 0.70423 0.0
H156 H 0.33688 0.01433 0.76015 0.0
H157 H 0.32204 0.91471 0.7541 0.0
O158 O 0.38789 0.99596 0.81136 0.0
H159 H 0.40993 0.85243 0.79803 0.0
H160 H 0.26704 0.93763 0.73838 0.0
Cu161 Cu 0.26935 0.18239 0.04984 0.0
N162 N 0.25491 0.22267 0.05425 0.0
N163 N 0.24641 0.27156 0.03701 0.0
C164 C 0.25148 0.24163 0.02881 0.0
C165 C 0.24576 0.27122 0.06911 0.0
C166 C 0.25111 0.241 0.07972 0.0
O167 O 0.30347 0.1888 0.02009 0.0
C168 C 0.21601 0.13533 0.05062 0.0
O169 O 0.22117 0.13831 0.08157 0.0
H170 H 0.25452 0.2339 1.00471 0.0
H171 H 0.25407 0.23366 0.10422 0.0
N172 N 0.28755 0.16372 0.08592 0.0
N173 N 0.31764 0.13038 0.11199 0.0
C174 C 0.30845 0.14189 0.08344 0.0
C175 C 0.2832 0.16625 0.1173 0.0
C176 C 0.30168 0.14557 0.13346 0.0
C177 C 0.3253 0.21234 0.02 0.0
O178 O 0.34501 0.21448 0.99667 0.0
H179 H 0.31614 0.13403 0.06083 0.0
H180 H 0.26739 0.18156 0.12764 0.0
O181 O 0.23398 0.15245 0.03229 0.0
H182 H 0.24372 0.29181 0.08396 0.0
H183 H 0.30325 0.14204 0.15896 0.0
Cu184 Cu 0.80462 0.42541 0.00748 0.0
N185 N 0.83763 0.41676 0.98174 0.0
N186 N 0.85946 0.39208 0.9423 0.0
C187 C 0.83232 0.39708 0.95643 0.0
C188 C 0.88296 0.40959 0.9596 0.0
C189 C 0.86942 0.4247 0.98403 0.0
O190 O 0.80182 0.39223 0.04002 0.0
C191 C 0.75571 0.44226 0.96087 0.0
O192 O 0.72785 0.43563 0.94565 0.0
H193 H 0.80868 0.38657 0.94876 0.0
H194 H 0.88192 0.43964 1.00253 0.0
N195 N 0.8077 0.46627 0.02581 0.0
N196 N 0.78858 0.5112 0.04121 0.0
C197 C 0.7818 0.4799 0.03409 0.0
C198 C 0.83217 0.48948 0.02867 0.0
C199 C 0.82043 0.51724 0.03823 0.0
C200 C 0.8108 0.3968 0.0692 0.0
O201 O 0.82114 0.42575 0.07917 0.0
H202 H 0.75804 0.46732 0.03294 0.0
H203 H 0.85629 0.48705 0.02217 0.0
O204 O 0.76593 0.4213 0.97965 0.0
H205 H 0.90823 0.41063 0.95566 0.0
H206 H 0.83391 0.54051 0.04045 0.0
Cu207 Cu 0.88621 0.52094 0.26695 0.0
N208 N 0.89762 0.48274 0.28396 0.0
N209 N 0.92761 0.45335 0.31496 0.0
C210 C 0.91876 0.48261 0.30894 0.0
C211 C 0.91146 0.43413 0.29256 0.0
C212 C 0.89289 0.4524 0.2734 0.0
O213 O 0.91856 0.53418 0.23662 0.0
C214 C 0.86691 0.55244 0.32292 0.0
O215 O 0.87094 0.57539 0.3443 0.0
H216 H 0.92887 0.50413 0.32132 0.0
H217 H 0.87826 0.44445 0.25248 0.0
N218 N 0.84503 0.52074 0.24819 0.0
N219 N 0.79951 0.54242 0.23722 0.0
C220 C 0.83106 0.54786 0.24491 0.0
C221 C 0.82175 0.497 0.24144 0.0
C222 C 0.79356 0.51036 0.23454 0.0
C223 C 0.9141 0.53051 0.20659 0.0
O224 O 0.88561 0.51983 0.19464 0.0
H225 H 0.84361 0.5711 0.25031 0.0
H226 H 0.82445 0.47187 0.24375 0.0
O227 O 0.88843 0.55061 0.30275 0.0
H228 H 0.91361 0.40896 0.28966 0.0
H229 H 0.77015 0.4974 0.23048 0.0
Cu230 Cu 0.76653 0.64337 0.55901 0.0
N231 N 0.73813 0.66275 0.53158 0.0
N232 N 0.7236 0.69801 0.49516 0.0
C233 C 0.74811 0.68565 0.51092 0.0
C234 C 0.69699 0.68213 0.50656 0.0
C235 C 0.70603 0.66044 0.52908 0.0
O236 O 0.77699 0.67295 0.5946 0.0
C237 C 0.80687 0.6147 0.5157 0.0
O238 O 0.83458 0.61327 0.5031 0.0
H239 H 0.77307 0.69383 0.50845 0.0
H240 H 0.69032 0.64475 0.54307 0.0
N241 N 0.7527 0.60291 0.57465 0.0
N242 N 0.7604 0.55285 0.58856 0.0
C243 C 0.77386 0.58309 0.58515 0.0
C244 C 0.72435 0.58491 0.57214 0.0
C245 C 0.72906 0.55395 0.58064 0.0
C246 C 0.80149 0.67372 0.61366 0.0
O247 O 0.82237 0.65316 0.60989 0.0
H248 H 0.79932 0.59017 0.58682 0.0
H249 H 0.70241 0.59292 0.56238 0.0
O250 O 0.80371 0.63784 0.5346 0.0
H251 H 0.67271 0.68602 0.49942 0.0
H252 H 0.71112 0.53359 0.57915 0.0
Cu253 Cu 0.62356 0.51708 0.74535 0.0
N254 N 0.58436 0.53114 0.73155 0.0
N255 N 0.53438 0.54242 0.73929 0.0
C256 C 0.56404 0.54061 0.75248 0.0
C257 C 0.53668 0.53499 0.70824 0.0
C258 C 0.56749 0.52801 0.70355 0.0
O259 O 0.61461 0.49223 0.78365 0.0
C260 C 0.65378 0.58163 0.74494 0.0
O261 O 0.62757 0.58829 0.72935 0.0
H262 H 0.57061 0.54367 0.77754 0.0
H263 H 0.57601 0.5187 0.68197 0.0
N264 N 0.64214 0.48991 0.71814 0.0
N265 N 0.67395 0.45284 0.70534 0.0
C266 C 0.66209 0.46897 0.72905 0.0
C267 C 0.64135 0.48726 0.68624 0.0
C268 C 0.6609 0.46436 0.67827 0.0
C269 C 0.59005 0.47244 0.78814 0.0
O270 O 0.58681 0.45971 0.81645 0.0
H271 H 0.66836 0.46635 0.7541 0.0
H272 H 0.62795 0.50122 0.66992 0.0
O273 O 0.65593 0.55323 0.75464 0.0
H274 H 0.51697 0.5321 0.69065 0.0
H275 H 0.66509 0.45688 0.65436 0.0
H276 H 0.03683 0.22389 0.72607 0.0
H277 H 0.02144 0.24177 0.62571 0.0
H278 H 0.06397 0.15837 0.65733 0.0
H279 H 0.0165 0.27188 0.7108 0.0
H280 H 0.029 0.28553 0.67311 0.0
H281 H 0.95913 0.25244 0.71864 0.0
H282 H 0.89225 0.29152 0.65364 0.0
H283 H 0.99086 0.29707 0.63168 0.0
C284 C 0.03639 0.21595 0.70153 0.0
C285 C 0.05065 0.18831 0.69433 0.0
C286 C 0.02387 0.23462 0.67686 0.0
C287 C 0.02774 0.22603 0.64483 0.0
C288 C 0.04182 0.19815 0.63775 0.0
C289 C 0.05151 0.17888 0.66267 0.0
C290 C 0.013 0.26686 0.68482 0.0
C291 C 0.97852 0.27076 0.67452 0.0
C292 C 0.95373 0.26257 0.69558 0.0
C293 C 0.92246 0.26985 0.68776 0.0
C294 C 0.91599 0.28435 0.65865 0.0
C295 C 0.9404 0.29516 0.6388 0.0
C296 C 0.97166 0.28783 0.64644 0.0
H297 H 0.04152 0.81425 0.84989 0.0
H298 H 0.99097 0.84728 0.92821 0.0
H299 H 0.05552 0.91256 0.87803 0.0
H300 H 0.01253 0.77614 0.88034 0.0
H301 H 0.00993 0.78872 0.92042 0.0
H302 H 0.95877 0.80021 0.84417 0.0
H303 H 0.87748 0.74446 0.8806 0.0
H304 H 0.96532 0.75703 0.93694 0.0
C305 C 0.03471 0.83363 0.86413 0.0
C306 C 0.05027 0.86445 0.86036 0.0
C307 C 0.01226 0.82726 0.88784 0.0
C308 C 1.00609 0.85231 0.90832 0.0
C309 C 0.02117 0.8834 0.90421 0.0
C310 C 0.04235 0.88912 0.87971 0.0
C311 C 1.00108 0.7928 0.89555 0.0
C312 C 0.96523 0.78334 0.89259 0.0
C313 C 0.94739 0.78783 0.86385 0.0
C314 C 0.9154 0.77426 0.85993 0.0
C315 C 0.90149 0.75634 0.8846 0.0
C316 C 0.91941 0.74933 0.91203 0.0
C317 C 0.9511 0.7633 0.91616 0.0
H318 H 0.53616 0.74902 0.08805 0.0
H319 H 0.54475 0.77406 0.18809 0.0
H320 H 0.62 0.73195 0.14388 0.0
H321 H 0.49946 0.78387 0.10827 0.0
H322 H 0.48724 0.7546 0.13621 0.0
H323 H 0.50741 0.8409 0.12296 0.0
H324 H 0.46269 0.8662 0.20751 0.0
H325 H 0.47753 0.76861 0.19095 0.0
C326 C 0.55025 0.75199 0.11031 0.0
C327 C 0.58004 0.73997 0.11291 0.0
C328 C 0.5378 0.7662 0.13691 0.0
C329 C 0.55497 0.76613 0.16674 0.0
C330 C 0.58503 0.75433 0.16907 0.0
C331 C 0.59763 0.74263 0.1418 0.0
C332 C 0.50424 0.77631 0.13325 0.0
C333 C 0.49623 0.80215 0.15579 0.0
C334 C 0.49831 0.83436 0.14598 0.0
C335 C 0.48651 0.85768 0.16486 0.0
C336 C 0.47352 0.84867 0.19392 0.0
C337 C 0.46976 0.81667 0.20332 0.0
C338 C 0.48155 0.79353 0.18442 0.0
H339 H 0.56888 0.31249 0.33854 0.0
H340 H 0.55375 0.32664 0.43811 0.0
H341 H 0.59656 0.40348 0.3826 0.0
H342 H 0.55629 0.26726 0.37208 0.0
H343 H 0.55596 0.27267 0.41397 0.0
H344 H 0.50339 0.28563 0.33942 0.0
H345 H 0.42076 0.23575 0.37961 0.0
H346 H 0.50914 0.24844 0.43501 0.0
C347 C 0.56859 0.32827 0.35885 0.0
C348 C 0.58292 0.35985 0.35696 0.0
C349 C 0.55618 0.31637 0.38771 0.0
C350 C 0.56007 0.33629 0.41511 0.0
C351 C 0.57432 0.36799 0.41311 0.0
C352 C 0.58394 0.37969 0.38366 0.0
C353 C 0.54576 0.28084 0.39087 0.0
C354 C 0.50978 0.27155 0.38878 0.0
C355 C 0.49184 0.27483 0.35982 0.0
C356 C 0.45947 0.26229 0.35673 0.0
C357 C 0.44519 0.24683 0.38263 0.0
C358 C 0.46288 0.24116 0.41056 0.0
C359 C 0.49514 0.25376 0.41376 0.0
H360 H 0.65714 0.05772 0.21168 0.0
H361 H 0.75042 0.08489 0.25638 0.0
H362 H 0.69971 0.15453 0.20721 0.0
H363 H 0.68654 0.01729 0.23182 0.0
H364 H 0.72877 0.02752 0.23308 0.0
H365 H 0.67368 0.05358 0.295 0.0
H366 H 0.70395 0.9863 0.36363 0.0
H367 H 0.73772 0.98514 0.26931 0.0
C368 C 0.67604 0.07605 0.21908 0.0
C369 C 0.67462 0.10741 0.20807 0.0
C370 C 0.70282 0.06779 0.23768 0.0
C371 C 0.72865 0.09138 0.24452 0.0
C372 C 0.72705 0.12284 0.23396 0.0
C373 C 0.6997 0.13065 0.21686 0.0
C374 C 0.7064 0.03282 0.24405 0.0
C375 C 0.70805 0.02286 0.27878 0.0
C376 C 0.68877 0.03511 0.30151 0.0
C377 C 0.68803 0.02224 0.33235 0.0
C378 C 0.70592 0.99703 0.34022 0.0
C379 C 0.72378 0.98341 0.31786 0.0
C380 C 0.72481 0.99638 0.2871 0.0
H381 H 0.27688 0.29425 0.57845 0.0
H382 H 0.29385 0.39432 0.55583 0.0
H383 H 0.36923 0.34497 0.59786 0.0
H384 H 0.23402 0.31893 0.55597 0.0
H385 H 0.23688 0.35803 0.57205 0.0
H386 H 0.25375 0.3156 0.4954 0.0
H387 H 0.20235 0.37918 0.43807 0.0
H388 H 0.21297 0.39361 0.53892 0.0
C389 C 0.29322 0.31564 0.57597 0.0
C390 C 0.32472 0.31611 0.58865 0.0
C391 C 0.28214 0.34337 0.56226 0.0
C392 C 0.30283 0.37216 0.56315 0.0
C393 C 0.33457 0.37244 0.5755 0.0
C394 C 0.34536 0.34411 0.5867 0.0
C395 C 0.24666 0.34329 0.5537 0.0
C396 C 0.23807 0.35557 0.52071 0.0
C397 C 0.24242 0.33744 0.49318 0.0
C398 C 0.22991 0.34639 0.46316 0.0
C399 C 0.21359 0.37353 0.46087 0.0
C400 C 0.20663 0.39011 0.48797 0.0
C401 C 0.21935 0.38147 0.51781 0.0
H402 H 0.91363 0.05036 0.72157 0.0
H403 H 0.88697 0.98466 0.79673 0.0
H404 H 0.85571 0.96249 0.69982 0.0
H405 H 0.93332 0.02592 0.80325 0.0
H406 H 0.94227 0.05477 0.7732 0.0
H407 H 0.91708 0.04787 0.85033 0.0
H408 H 0.87445 0.13563 0.84998 0.0
H409 H 0.89623 0.0943 0.76127 0.0
C410 C 0.89994 0.0289 0.7296 0.0
C411 C 0.88344 0.00786 0.70701 0.0
C412 C 0.90042 0.02134 0.76234 0.0
C413 C 0.8849 0.99179 0.77202 0.0
C414 C 0.86832 0.97064 0.7495 0.0
C415 C 0.86697 0.97948 0.7174 0.0
C416 C 0.92225 0.04182 0.78581 0.0
C417 C 0.90574 0.06643 0.80339 0.0
C418 C 0.9063 0.06636 0.8371 0.0
C419 C 0.8947 0.09123 0.85382 0.0
C420 C 0.88206 0.11579 0.83687 0.0
C421 C 0.88268 0.11732 0.80364 0.0
C422 C 0.89452 0.09257 0.78685 0.0
H423 H 0.24842 0.6868 0.04241 0.0
H424 H 0.21281 0.59265 0.00804 0.0
H425 H 0.14933 0.6531 0.04834 0.0
H426 H 0.28516 0.64813 0.0314 0.0
H427 H 0.2705 0.60806 0.0217 0.0
H428 H 0.28904 0.69005 0.98784 0.0
H429 H 0.31314 0.65289 0.89815 0.0
H430 H 0.27372 0.5888 0.96857 0.0
C431 C 0.22857 0.66898 0.03642 0.0
C432 C 0.19784 0.67375 0.04587 0.0
C433 C 0.234 0.64027 0.02113 0.0
C434 C 0.20843 0.61585 0.01693 0.0
C435 C 0.17773 0.62063 0.02644 0.0
C436 C 0.17258 0.65008 0.0394 0.0
C437 C 0.26787 0.63328 0.01526 0.0
C438 C 0.27746 0.63907 0.98121 0.0
C439 C 0.28866 0.67017 0.97144 0.0
C440 C 0.30123 0.67522 0.94124 0.0
C441 C 0.30185 0.64921 0.92071 0.0
C442 C 0.29249 0.61805 0.93034 0.0
C443 C 0.27997 0.61299 0.96057 0.0
H444 H 0.78762 0.83837 0.06364 0.0
H445 H 0.82298 0.90657 0.99374 0.0
H446 H 0.85745 0.91572 0.09155 0.0
H447 H 0.79947 0.84578 0.98249 0.0
H448 H 0.77131 0.82891 0.00952 0.0
H449 H 0.77685 0.8681 0.9366 0.0
H450 H 0.68326 0.89893 0.93582 0.0
H451 H 0.7252 0.86584 0.02307 0.0
C452 C 0.80147 0.86053 0.05774 0.0
C453 C 0.8218 0.87662 0.08137 0.0
C454 C 0.80056 0.872 0.02609 0.0
C455 C 0.82147 0.89907 0.01832 0.0
C456 C 0.84173 0.91525 0.04207 0.0
C457 C 0.84073 0.90437 0.07349 0.0
C458 C 0.78203 0.85196 0.99991 0.0
C459 C 0.75556 0.86807 0.98271 0.0
C460 C 0.75655 0.87381 0.94952 0.0
C461 C 0.73055 0.88539 0.93272 0.0
C462 C 0.70391 0.89152 0.94918 0.0
C463 C 0.70143 0.88426 0.98144 0.0
C464 C 0.72738 0.87262 0.99835 0.0
H465 H 0.4844 0.52697 0.23015 0.0
H466 H 0.3817 0.51328 0.23225 0.0
H467 H 0.43487 0.43352 0.21793 0.0
H468 H 0.45655 0.57221 0.23115 0.0
H469 H 0.41591 0.56594 0.21676 0.0
H470 H 0.45358 0.54845 0.2989 0.0
H471 H 0.40688 0.62117 0.34365 0.0
H472 H 0.39581 0.60845 0.24256 0.0
C473 C 0.46245 0.51119 0.23119 0.0
C474 C 0.46301 0.47854 0.22485 0.0
C475 C 0.43327 0.5239 0.23584 0.0
C476 C 0.40442 0.50341 0.23233 0.0
C477 C 0.40507 0.47057 0.22635 0.0
C478 C 0.43451 0.45839 0.22454 0.0
C479 C 0.43275 0.55994 0.2365 0.0
C480 C 0.42303 0.5742 0.26737 0.0
C481 C 0.43703 0.56644 0.29729 0.0
C482 C 0.43057 0.5831 0.32493 0.0
C483 C 0.41058 0.6075 0.3225 0.0
C484 C 0.39833 0.6171 0.29304 0.0
C485 C 0.4045 0.60036 0.26552 0.0
H486 H 0.75106 0.10931 0.54661 0.0
H487 H 0.7096 0.01611 0.51505 0.0
H488 H 0.65209 0.07991 0.55915 0.0
H489 H 0.78496 0.07487 0.52685 0.0
H490 H 0.77113 0.03509 0.53725 0.0
H491 H 0.74939 0.08045 0.46179 0.0
H492 H 0.80661 0.0267 0.40466 0.0
H493 H 0.8051 0.01041 0.50504 0.0
C494 C 0.7302 0.09239 0.54172 0.0
C495 C 0.70092 0.09856 0.55376 0.0
C496 C 0.73336 0.0632 0.52616 0.0
C497 C 0.70672 0.03978 0.52371 0.0
C498 C 0.67711 0.04627 0.53497 0.0
C499 C 0.67435 0.07606 0.54854 0.0
C500 C 0.76672 0.05461 0.52033 0.0
C501 C 0.77319 0.04396 0.48689 0.0
C502 C 0.76402 0.061 0.45956 0.0
C503 C 0.77543 0.05401 0.42959 0.0
C504 C 0.79619 0.03035 0.4273 0.0
C505 C 0.80765 0.01508 0.45433 0.0
C506 C 0.79549 0.02144 0.4839 0.0
H507 H 0.09995 0.56907 0.71599 0.0
H508 H 0.19465 0.59893 0.75628 0.0
H509 H 0.14413 0.66367 0.69972 0.0
H510 H 0.1281 0.53064 0.74235 0.0
H511 H 0.1699 0.53857 0.73905 0.0
H512 H 0.10403 0.5446 0.7961 0.0
H513 H 0.16209 0.51533 0.87525 0.0
H514 H 0.20256 0.52995 0.78442 0.0
C515 C 0.11939 0.58761 0.72098 0.0
C516 C 0.1183 0.61762 0.70644 0.0
C517 C 0.14634 0.58091 0.74038 0.0
C518 C 0.17279 0.6045 0.7439 0.0
C519 C 0.17158 0.63454 0.72952 0.0
C520 C 0.14405 0.64099 0.71197 0.0
C521 C 0.1493 0.54679 0.7511 0.0
C522 C 0.15389 0.54205 0.78689 0.0
C523 C 0.12732 0.54055 0.8064 0.0
C524 C 0.13034 0.53117 0.83852 0.0
C525 C 0.16018 0.52436 0.85112 0.0
C526 C 0.18597 0.52296 0.83178 0.0
C527 C 0.18301 0.53233 0.79976 0.0
C528 C 0.00834 0.35057 0.03232 0.0
C529 C 0.0308 0.32853 0.03807 0.0
C530 C 0.01369 0.37494 0.00994 0.0
C531 C 0.07812 0.42369 0.97232 0.0
H532 H 0.01424 0.44141 0.90698 0.0
C533 C 0.08254 0.49291 0.8477 0.0
C534 C 0.10256 0.52026 0.8577 0.0
C535 C 0.06672 0.4731 0.87006 0.0
C536 C 0.03219 0.43686 0.92524 0.0
H537 H 0.07637 0.31476 0.02477 0.0
H538 H 0.08615 0.35781 0.98614 0.0
H539 H 1.00228 0.39811 0.9451 0.0
H540 H 0.11846 0.55035 0.8983 0.0
H541 H 0.09056 0.51615 0.93718 0.0
H542 H 0.1081 0.46215 0.95266 0.0
C543 C 0.06428 0.35605 0.99884 0.0
C544 C 0.02534 0.41215 0.94707 0.0
C545 C 0.05864 0.33131 0.02078 0.0
C546 C 0.10306 0.52954 0.88988 0.0
C547 C 0.0875 0.50966 0.91221 0.0
C548 C 0.08472 0.44867 0.95096 0.0
C549 C 0.0419 0.37819 0.99321 0.0
C550 C 0.04843 0.40504 0.97058 0.0
C551 C 0.07075 0.48029 0.90278 0.0
C552 C 0.06198 0.45544 0.92698 0.0
H553 H 0.98649 0.34879 0.045 0.0
H554 H 0.99606 0.39166 1.00621 0.0
H555 H 0.09629 0.41898 0.9903 0.0
H556 H 0.08206 0.48487 0.82319 0.0
H557 H 0.05392 0.45067 0.86202 0.0
C558 C 0.97738 0.87495 0.33114 0.0
C559 C 0.00761 0.86614 0.32477 0.0
C560 C 0.95235 0.87125 0.30783 0.0
C561 C 0.92399 0.82803 0.23408 0.0
H562 H 0.87978 0.90214 0.21433 0.0
C563 C 0.85217 0.8409 0.11503 0.0
C564 C 0.82906 0.86253 0.11281 0.0
C565 C 0.86877 0.83628 0.14404 0.0
C566 C 0.89109 0.8808 0.21986 0.0
H567 H 0.03612 0.84835 0.2887 0.0
H568 H 0.99217 0.84095 0.24806 0.0
H569 H 0.91904 0.90421 0.25871 0.0
H570 H 0.80355 0.89465 0.13943 0.0
H571 H 0.83063 0.88493 0.19063 0.0
H572 H 0.89595 0.80437 0.19556 0.0
C573 C 0.98758 0.85015 0.27126 0.0
C574 C 0.91389 0.88217 0.2453 0.0
C575 C 0.01271 0.85442 0.29442 0.0
C576 C 0.82088 0.87739 0.14066 0.0
C577 C 0.83702 0.87232 0.16985 0.0
C578 C 0.90074 0.82642 0.20894 0.0
C579 C 0.95714 0.85866 0.27765 0.0
C580 C 0.93104 0.85604 0.25232 0.0
C581 C 0.86242 0.853 0.17169 0.0
C582 C 0.88434 0.85303 0.20097 0.0
H583 H 0.97329 0.88543 0.35385 0.0
H584 H 0.92927 0.87833 0.31335 0.0
H585 H 0.93659 0.80737 0.2392 0.0
H586 H 0.85953 0.82985 0.09371 0.0
H587 H 0.88822 0.82147 0.14403 0.0
C588 C 0.48235 0.74357 0.54449 0.0
C589 C 0.50381 0.74075 0.57074 0.0
C590 C 0.47623 0.71905 0.52191 0.0
C591 C 0.5109 0.65133 0.48706 0.0
H592 H 0.42451 0.6303 0.45191 0.0
C593 C 0.47772 0.59735 0.3616 0.0
C594 C 0.44757 0.58007 0.35626 0.0
C595 C 0.48789 0.60859 0.39221 0.0
C596 C 0.44875 0.63531 0.46174 0.0
H597 H 0.53563 0.70965 0.59379 0.0
H598 H 0.52507 0.66679 0.55405 0.0
H599 H 0.43429 0.6671 0.49665 0.0
H600 H 0.406 0.55805 0.37906 0.0
H601 H 0.42421 0.57634 0.43263 0.0
H602 H 0.52538 0.62 0.45146 0.0
C603 C 0.51298 0.68809 0.55107 0.0
C604 C 0.45439 0.65683 0.4872 0.0
C605 C 0.51885 0.71256 0.57394 0.0
C606 C 0.42957 0.57091 0.38261 0.0
C607 C 0.43975 0.58199 0.41319 0.0
C608 C 0.50527 0.62988 0.46133 0.0
C609 C 0.4916 0.69107 0.52474 0.0
C610 C 0.48557 0.66563 0.4998 0.0
C611 C 0.46805 0.60271 0.41802 0.0
C612 C 0.47414 0.62196 0.448 0.0
H613 H 0.47037 0.76491 0.54118 0.0
H614 H 0.45994 0.72235 0.50175 0.0
H615 H 0.53523 0.65768 0.49612 0.0
H616 H 0.49172 0.60536 0.34163 0.0
H617 H 0.50979 0.62447 0.39492 0.0
C618 C 0.63317 0.18064 0.81485 0.0
C619 C 0.60005 0.17473 0.81779 0.0
C620 C 0.64665 0.17662 0.78549 0.0
C621 C 0.62665 0.14112 0.70411 0.0
H622 H 0.70414 0.19308 0.68265 0.0
C623 C 0.67088 0.13956 0.57859 0.0
C624 C 0.69864 0.12373 0.57818 0.0
C625 C 0.66187 0.15269 0.60688 0.0
C626 C 0.68242 0.17858 0.68839 0.0
H627 H 0.55491 0.16098 0.79232 0.0
H628 H 0.57782 0.15535 0.74095 0.0
H629 H 0.68121 0.20043 0.73418 0.0
H630 H 0.7408 0.11318 0.60613 0.0
H631 H 0.72562 0.13747 0.65522 0.0
H632 H 0.62745 0.12013 0.65782 0.0
C633 C 0.5939 0.16165 0.76134 0.0
C634 C 0.66938 0.18244 0.71805 0.0
C635 C 0.5806 0.16493 0.79083 0.0
C636 C 0.71941 0.12537 0.60552 0.0
C637 C 0.7106 0.13902 0.63375 0.0
C638 C 0.63923 0.13786 0.67432 0.0
C639 C 0.62719 0.16736 0.75813 0.0
C640 C 0.6413 0.16364 0.72645 0.0
C641 C 0.68086 0.15102 0.63506 0.0
C642 C 0.66723 0.15646 0.66619 0.0
H643 H 0.64859 0.1883 0.83537 0.0
H644 H 0.67235 0.18067 0.78441 0.0
H645 H 0.60565 0.12546 0.70967 0.0
H646 H 0.65453 0.13893 0.55785 0.0
H647 H 0.63895 0.16212 0.60726 0.0
C648 C 0.02199 0.70991 0.44781 0.0
C649 C 0.02364 0.74343 0.44773 0.0
C650 C 0.02814 0.69337 0.47597 0.0
C651 C 0.02684 0.69987 0.56301 0.0
H652 H 0.08563 0.6351 0.56483 0.0
C653 C 0.08168 0.65398 0.68035 0.0
C654 C 0.09376 0.62413 0.68119 0.0
C655 C 0.06743 0.66502 0.65234 0.0
C656 C 0.06852 0.65252 0.56478 0.0
H657 H 0.03305 0.78578 0.47736 0.0
H658 H 0.04327 0.75684 0.52663 0.0
H659 H 0.07354 0.66173 0.51499 0.0
H660 H 0.09744 0.58118 0.65403 0.0
H661 H 0.07095 0.59961 0.60554 0.0
H662 H 0.02129 0.69053 0.61253 0.0
C663 C 0.03732 0.74341 0.5048 0.0
C664 C 0.06182 0.66801 0.53611 0.0
C665 C 0.03172 0.76 0.47652 0.0
C666 C 0.08825 0.60421 0.65426 0.0
C667 C 0.07365 0.61514 0.6262 0.0
C668 C 0.03312 0.68404 0.59158 0.0
C669 C 0.03552 0.70989 0.50488 0.0
C670 C 0.04135 0.69226 0.53501 0.0
C671 C 0.0644 0.64633 0.62437 0.0
C672 C 0.05456 0.66052 0.59311 0.0
H673 H 0.01583 0.69638 0.42608 0.0
H674 H 0.02646 0.66756 0.47526 0.0
H675 H 0.01052 0.71807 0.56281 0.0
H676 H 0.08554 0.66989 0.70073 0.0
H677 H 0.06089 0.68916 0.6522 0.0
C678 C 0.57074 0.86959 0.68408 0.0
C679 C 0.53929 0.86069 0.69253 0.0
C680 C 0.59578 0.87325 0.70733 0.0
C681 C 0.61381 0.89186 0.79173 0.0
H682 H 0.69025 0.8496 0.78184 0.0
C683 C 0.72117 0.85717 0.88056 0.0
C684 C 0.72694 0.88614 0.89746 0.0
C685 C 0.70381 0.85567 0.85115 0.0
C686 C 0.66913 0.86166 0.78481 0.0
H687 H 0.50866 0.85195 0.7321 0.0
H688 H 0.55229 0.8592 0.77309 0.0
H689 H 0.6468 0.84358 0.74048 0.0
H690 H 0.72221 0.93669 0.89538 0.0
H691 H 0.69263 0.93427 0.84389 0.0
H692 H 0.63574 0.90975 0.83601 0.0
C693 C 0.55782 0.86226 0.74832 0.0
C694 C 0.64433 0.85831 0.76114 0.0
C695 C 0.53287 0.85809 0.72492 0.0
C696 C 0.71836 0.91412 0.88271 0.0
C697 C 0.70094 0.91262 0.85349 0.0
C698 C 0.63871 0.89558 0.81509 0.0
C699 C 0.58966 0.86933 0.73972 0.0
C700 C 0.6163 0.87321 0.76447 0.0
C701 C 0.69187 0.88312 0.83829 0.0
C702 C 0.66664 0.88047 0.81202 0.0
H703 H 0.5759 0.87449 0.65959 0.0
H704 H 0.61988 0.87978 0.70002 0.0
H705 H 0.59263 0.90376 0.79492 0.0
H706 H 0.72695 0.83517 0.89162 0.0
H707 H 0.69727 0.83259 0.84002 0.0
C708 C 0.51086 0.28387 0.04046 0.0
C709 C 0.53454 0.28839 0.01807 0.0
C710 C 0.51036 0.30537 0.06583 0.0
C711 C 0.54372 0.38776 0.09217 0.0
H712 H 0.50502 0.36045 0.17056 0.0
C713 C 0.50186 0.43805 0.22109 0.0
C714 C 0.49003 0.46597 0.20949 0.0
C715 C 0.51651 0.41832 0.20078 0.0
C716 C 0.51664 0.36862 0.14922 0.0
H717 H 0.57692 0.31838 1.00546 0.0
H718 H 0.57727 0.35463 0.05029 0.0
H719 H 0.51204 0.32129 0.13018 0.0
H720 H 0.4866 0.49648 0.16844 0.0
H721 H 0.51126 0.4622 0.13293 0.0
H722 H 0.54948 0.43492 0.11174 0.0
C723 C 0.55816 0.3354 0.04781 0.0
C724 C 0.52002 0.34603 0.12556 0.0
C725 C 0.55817 0.31437 0.02209 0.0
C726 C 0.49606 0.47542 0.17818 0.0
C727 C 0.5101 0.45544 0.15769 0.0
C728 C 0.54095 0.41026 0.1161 0.0
C729 C 0.53399 0.33158 0.06989 0.0
C730 C 0.53287 0.35531 0.09629 0.0
C731 C 0.51895 0.42572 0.16823 0.0
C732 C 0.52658 0.40122 0.14471 0.0
H733 H 0.49217 0.26424 0.0378 0.0
H734 H 0.49091 0.30175 0.08175 0.0
H735 H 0.55349 0.39621 0.07001 0.0
H736 H 0.49723 0.43009 0.24508 0.0
H737 H 0.52401 0.39627 0.2102 0.0
C738 C 0.90814 0.19675 0.22671 0.0
C739 C 0.90848 0.18306 0.19621 0.0
C740 C 0.88578 0.18499 0.24839 0.0
C741 C 0.83361 0.1126 0.26792 0.0
H742 H 0.79887 0.16976 0.32614 0.0
C743 C 0.76346 0.05994 0.3714 0.0
C744 C 0.77179 0.07445 0.40113 0.0
C745 C 0.77072 0.07594 0.34313 0.0
C746 C 0.80849 0.15337 0.31028 0.0
H747 H 0.88488 0.14628 0.16466 0.0
H748 H 0.84601 0.12536 0.20278 0.0
H749 H 0.83122 0.19159 0.28323 0.0
H750 H 0.79267 0.11789 0.42453 0.0
H751 H 0.80648 0.14565 0.37552 0.0
H752 H 0.81236 0.07439 0.29555 0.0
C753 C 0.86334 0.14521 0.2099 0.0
C754 C 0.82709 0.16593 0.2856 0.0
C755 C 0.8857 0.15714 0.18804 0.0
C756 C 0.78531 0.10633 0.40196 0.0
C757 C 0.79336 0.12218 0.37367 0.0
C758 C 0.81535 0.10003 0.29278 0.0
C759 C 0.86309 0.15902 0.24039 0.0
C760 C 0.84045 0.14571 0.26448 0.0
C761 C 0.78765 0.10657 0.34391 0.0
C762 C 0.80304 0.1202 0.3148 0.0
H763 H 0.9256 0.21629 0.23423 0.0
H764 H 0.8869 0.19579 0.27184 0.0
H765 H 0.84372 0.09625 0.25239 0.0
H766 H 0.75371 0.0352 0.37022 0.0
H767 H 0.76492 0.06338 0.32079 0.0
C768 C 0.05163 0.98524 0.32845 0.0
C769 C 0.07861 1.00398 0.34196 0.0
C770 C 0.02346 0.97989 0.34499 0.0
C771 C 0.98212 0.01602 0.40953 0.0
H772 H 0.92377 0.93871 0.40156 0.0
C773 C 0.86435 0.00922 0.47133 0.0
C774 C 0.83724 0.99896 0.45177 0.0
C775 C 0.89474 1.00321 0.46262 0.0
C776 C 0.93986 0.96039 0.40421 0.0
H777 H 0.09678 0.03095 0.38422 0.0
H778 H 0.04857 0.02083 0.41308 0.0
H779 H 0.97537 0.94141 0.37707 0.0
H780 H 0.8204 0.97088 0.40998 0.0
H781 H 0.87338 0.96011 0.39491 0.0
H782 H 0.94679 0.03532 0.43606 0.0
C783 C 0.04883 0.01082 0.38939 0.0
C784 C 0.9694 0.96204 0.38994 0.0
C785 C 0.07682 0.01634 0.37284 0.0
C786 C 0.8409 0.97933 0.42539 0.0
C787 C 0.87134 0.97317 0.41676 0.0
C788 C 0.95288 0.01427 0.42396 0.0
C789 C 0.02153 0.99306 0.37551 0.0
C790 C 0.9908 0.99005 0.39213 0.0
C791 C 0.89878 0.98652 0.43434 0.0
C792 C 0.93116 0.98657 0.42135 0.0
H793 H 0.05206 0.97477 0.30503 0.0
H794 H 1.00294 0.96619 0.3334 0.0
H795 H 0.99747 0.0383 0.41116 0.0
H796 H 0.86249 0.02444 0.49176 0.0
H797 H 0.91525 0.0133 0.47712 0.0
C798 C 0.27174 0.88274 0.61339 0.0
C799 C 0.27311 0.87815 0.58036 0.0
C800 C 0.26638 0.85667 0.63379 0.0
C801 C 0.27437 0.77115 0.64167 0.0
H802 H 0.20616 0.77064 0.70021 0.0
C803 C 0.21795 0.65598 0.69957 0.0
C804 C 0.19987 0.65811 0.7265 0.0
C805 C 0.23397 0.68339 0.6866 0.0
C806 C 0.22593 0.77049 0.68475 0.0
H807 H 0.27031 0.84242 0.54296 0.0
H808 H 0.26152 0.79681 0.57874 0.0
H809 H 0.21895 0.81717 0.66735 0.0
H810 H 0.1869 0.68992 0.76281 0.0
H811 H 0.21694 0.73743 0.74192 0.0
H812 H 0.28182 0.72474 0.65921 0.0
C813 C 0.26444 0.82068 0.58875 0.0
C814 C 0.23301 0.79722 0.66562 0.0
C815 C 0.26921 0.8468 0.56824 0.0
C816 C 0.20114 0.68753 0.74235 0.0
C817 C 0.2177 0.71491 0.72977 0.0
C818 C 0.2677 0.74458 0.66124 0.0
C819 C 0.26288 0.82533 0.62174 0.0
C820 C 0.25688 0.79763 0.64343 0.0
C821 C 0.23261 0.71361 0.70053 0.0
C822 C 0.2429 0.74351 0.68269 0.0
H823 H 0.27466 0.90655 0.62353 0.0
H824 H 0.26539 0.861 0.6591 0.0
H825 H 0.29324 0.77099 0.62509 0.0
H826 H 0.21665 0.63373 0.68642 0.0
H827 H 0.24489 0.68104 0.66408 0.0
C828 C 0.4622 0.86604 0.84866 0.0
C829 C 0.4374 0.88459 0.85485 0.0
C830 C 0.48581 0.86145 0.87234 0.0
C831 C 0.52126 0.89877 0.94848 0.0
H832 H 0.57347 0.82879 0.94481 0.0
C833 C 0.65083 0.85403 0.99685 0.0
C834 C 0.669 0.88365 0.99375 0.0
C835 C 0.61754 0.85134 0.9915 0.0
C836 C 0.55888 0.84824 0.94697 0.0
H837 H 0.41639 0.91069 0.89124 0.0
H838 H 0.45644 0.90147 0.93303 0.0
H839 H 0.52434 0.82693 0.91228 0.0
H840 H 0.66645 0.93416 0.98727 0.0
H841 H 0.60912 0.92981 0.97769 0.0
H842 H 0.55533 0.91966 0.98381 0.0
C843 C 0.45876 0.89161 0.90959 0.0
C844 C 0.53081 0.84746 0.92761 0.0
C845 C 0.43557 0.89673 0.88572 0.0
C846 C 0.65297 0.91106 0.99003 0.0
C847 C 0.61985 0.90839 0.98424 0.0
C848 C 0.54899 0.89925 0.9683 0.0
C849 C 0.48489 0.8748 0.90304 0.0
C850 C 0.51216 0.87326 0.92714 0.0
C851 C 0.60191 0.87821 0.98265 0.0
C852 C 0.56896 0.8746 0.96698 0.0
H853 H 0.46435 0.85654 0.82503 0.0
H854 H 0.50558 0.84874 0.86593 0.0
H855 H 0.50791 0.9193 0.94896 0.0
H856 H 0.66257 0.83246 0.99956 0.0
H857 H 0.6045 0.82781 0.99178 0.0
C858 C 0.33015 0.23238 0.07655 0.0
C859 C 0.32754 0.23853 0.04382 0.0
C860 C 0.33159 0.25729 0.09881 0.0
C861 C 0.31583 0.34227 0.10754 0.0
H862 H 0.37461 0.34069 0.18114 0.0
C863 C 0.3658 0.45375 0.18215 0.0
C864 C 0.37688 0.4494 0.21374 0.0
C865 C 0.35144 0.42777 0.16393 0.0
C866 C 0.35748 0.34134 0.16117 0.0
H867 H 0.32795 0.27586 0.00858 0.0
H868 H 0.33019 0.31952 0.0472 0.0
H869 H 0.3681 0.29601 0.14421 0.0
H870 H 0.3783 0.41537 0.2521 0.0
H871 H 0.35181 0.3704 0.22099 0.0
H872 H 0.30593 0.38816 0.12424 0.0
C873 C 0.32971 0.29531 0.05588 0.0
C874 C 0.35384 0.31561 0.13982 0.0
C875 C 0.32849 0.27034 0.03371 0.0
C876 C 0.36965 0.41949 0.22792 0.0
C877 C 0.35511 0.39358 0.20982 0.0
C878 C 0.3195 0.3681 0.12896 0.0
C879 C 0.33104 0.28912 0.08879 0.0
C880 C 0.3333 0.31585 0.11247 0.0
C881 C 0.34772 0.39693 0.17704 0.0
C882 C 0.34067 0.36816 0.15593 0.0
H883 H 0.33201 0.20848 0.08496 0.0
H884 H 0.33299 0.25153 0.12389 0.0
H885 H 0.29938 0.34306 0.08702 0.0
H886 H 0.37165 0.47634 0.17041 0.0
H887 H 0.34611 0.43141 0.13884 0.0
C888 C 0.0758 0.02168 0.16455 0.0
C889 C 0.10462 0.00955 0.15798 0.0
C890 C 0.04998 0.01887 0.14211 0.0
C891 C 0.01558 0.96643 0.07748 0.0
H892 H 0.9574 0.03102 0.06401 0.0
C893 C 0.89351 0.93035 0.01703 0.0
C894 C 0.86862 0.93941 0.03488 0.0
C895 C 0.92442 0.94614 0.02135 0.0
C896 C 0.97337 0.01268 0.06744 0.0
H897 H 0.12918 0.98597 0.12206 0.0
H898 H 0.08395 0.98057 0.08324 0.0
H899 H 0.00812 0.04427 0.09414 0.0
H900 H 0.85547 0.97449 0.06794 0.0
H901 H 0.90888 1.00183 0.07573 0.0
H902 H 0.9805 0.93429 0.05253 0.0
C903 C 0.08137 0.99231 0.10574 0.0
C904 C 1.00245 0.02032 0.08472 0.0
C905 C 0.10732 0.99548 0.12801 0.0
C906 C 0.87424 0.96709 0.0538 0.0
C907 C 0.90507 0.98272 0.05832 0.0
C908 C 0.98647 0.95873 0.06042 0.0
C909 C 0.05224 1.00356 0.11269 0.0
C910 C 0.0235 0.99703 0.09067 0.0
C911 C 0.93098 0.97116 0.04375 0.0
C912 C 0.96444 0.98144 0.05598 0.0
H913 H 0.07292 0.03274 0.18733 0.0
H914 H 0.02778 0.02749 0.14836 0.0
H915 H 0.03112 0.94785 0.0818 0.0
H916 H 0.88993 0.909 1.00238 0.0
H917 H 0.94357 0.93716 0.00895 0.0
C918 C 0.37954 0.85961 0.42217 0.0
C919 C 0.35289 0.87704 0.41965 0.0
C920 C 0.38297 0.83524 0.40034 0.0
C921 C 0.33415 0.77885 0.34605 0.0
H922 H 0.41669 0.75764 0.32109 0.0
C923 C 0.35906 0.65198 0.31263 0.0
C924 C 0.38347 0.64753 0.29202 0.0
C925 C 0.35182 0.68264 0.32001 0.0
C926 C 0.39334 0.7634 0.32734 0.0
H927 H 0.31016 0.88393 0.39078 0.0
H928 H 0.31623 0.84162 0.35265 0.0
H929 H 0.413 0.80723 0.34977 0.0
H930 H 0.41776 0.67151 0.26104 0.0
H931 H 0.40463 0.7253 0.27333 0.0
H932 H 0.31453 0.73486 0.32396 0.0
C933 C 0.33407 0.84622 0.37197 0.0
C934 C 0.3913 0.7917 0.34421 0.0
C935 C 0.33059 0.8705 0.39385 0.0
C936 C 0.39858 0.67423 0.27673 0.0
C937 C 0.39141 0.70504 0.2842 0.0
C938 C 0.3362 0.75051 0.32927 0.0
C939 C 0.35992 0.82776 0.37534 0.0
C940 C 0.36177 0.79949 0.35437 0.0
C941 C 0.36892 0.70967 0.30703 0.0
C942 C 0.36591 0.74204 0.32029 0.0
H943 H 0.39703 0.86381 0.44181 0.0
H944 H 0.40302 0.82134 0.40393 0.0
H945 H 0.311 0.78393 0.35356 0.0
H946 H 0.34727 0.63181 0.32496 0.0
H947 H 0.33452 0.68514 0.33781 0.0
C948 C 0.43397 0.98314 0.66355 0.0
C949 C 0.43746 0.97397 0.69555 0.0
C950 C 0.45974 0.98406 0.6436 0.0
C951 C 0.54869 0.9862 0.64647 0.0
H952 H 0.53455 0.97159 0.55561 0.0
C953 C 0.65458 0.99964 0.56558 0.0
C954 C 0.65064 0.02118 0.5406 0.0
C955 C 0.62808 0.98596 0.58145 0.0
C956 C 0.53895 0.97558 0.58095 0.0
H957 H 0.47056 0.95754 0.73138 0.0
H958 H 0.51503 0.95796 0.6965 0.0
H959 H 0.48963 0.96375 0.59021 0.0
H960 H 0.61587 0.04257 0.51036 0.0
H961 H 0.56952 0.01795 0.53727 0.0
H962 H 0.59795 0.99806 0.63718 0.0
C963 C 0.49279 0.96559 0.68691 0.0
C964 C 0.51309 0.97137 0.60085 0.0
C965 C 0.46719 0.96523 0.70698 0.0
C966 C 0.61951 0.02574 0.52933 0.0
C967 C 0.59299 0.01185 0.545 0.0
C968 C 0.57453 0.98996 0.62665 0.0
C969 C 0.4896 0.97528 0.65494 0.0
C970 C 0.51745 0.97724 0.63387 0.0
C971 C 0.59711 0.99336 0.57244 0.0
C972 C 0.56998 0.98524 0.59357 0.0
H973 H 0.4114 0.99006 0.65399 0.0
H974 H 0.4563 0.99225 0.61941 0.0
H975 H 0.55319 0.99155 0.67155 0.0
H976 H 0.6783 0.99602 0.575 0.0
H977 H 0.632 0.97112 0.60199 0.0
C978 C 0.2639 0.29999 0.9883 0.0
C979 C 0.2465 0.29881 0.01605 0.0
C980 C 0.26447 0.32626 0.96799 0.0
C981 C 0.24132 0.41011 0.96146 0.0
H982 H 0.25105 0.3949 0.87179 0.0
C983 C 0.22873 0.51181 0.87226 0.0
C984 C 0.21097 0.50315 0.84386 0.0
C985 C 0.24125 0.48851 0.89152 0.0
C986 C 0.248 0.39974 0.89666 0.0
H987 H 0.21557 0.32441 0.04383 0.0
H988 H 0.21471 0.36946 0.00747 0.0
H989 H 0.25283 0.35139 0.90888 0.0
H990 H 0.1945 0.46382 0.81222 0.0
H991 H 0.21535 0.42331 0.84557 0.0
H992 H 0.23373 0.45785 0.94877 0.0
C993 C 0.22923 0.35069 1.00195 0.0
C994 C 0.24962 0.37465 0.9183 0.0
C995 C 0.22943 0.32468 0.02281 0.0
C996 C 0.2087 0.47129 0.83362 0.0
C997 C 0.22057 0.44792 0.85311 0.0
C998 C 0.23894 0.43505 0.93969 0.0
C999 C 0.24676 0.35193 0.97409 0.0
C1000 C 0.24606 0.37926 0.95111 0.0
C1001 C 0.2356 0.4559 0.88319 0.0
C1002 C 0.24187 0.43023 0.90682 0.0
H1003 H 0.27757 0.28073 0.98232 0.0
H1004 H 0.27909 0.32632 0.94755 0.0
H1005 H 0.23915 0.41515 0.98644 0.0
H1006 H 0.23051 0.53618 0.8809 0.0
H1007 H 0.25367 0.49597 0.91384 0.0
C1008 C 0.33562 0.08505 0.14334 0.0
C1009 C 0.33915 0.10615 0.11757 0.0
C1010 C 0.35531 0.06035 0.14736 0.0
C1011 C 0.40928 0.01358 0.10246 0.0
H1012 H 0.4337 0.98486 0.18674 0.0
C1013 C 0.49 0.91697 0.17201 0.0
C1014 C 0.48133 0.88995 0.15266 0.0
C1015 C 0.47713 0.94571 0.16554 0.0
C1016 C 0.42761 0.9928 0.16295 0.0
H1017 H 0.36727 0.11869 0.07676 0.0
H1018 H 0.40185 0.07631 0.08403 0.0
H1019 H 0.40286 0.03022 0.18104 0.0
H1020 H 0.45363 0.87239 0.11044 0.0
H1021 H 0.43095 0.92229 0.09915 0.0
H1022 H 0.43463 0.97655 0.08439 0.0
C1023 C 0.38326 0.07803 0.10064 0.0
C1024 C 0.40934 0.01861 0.15969 0.0
C1025 C 0.36344 0.10249 0.09649 0.0
C1026 C 0.46124 0.89296 0.12542 0.0
C1027 C 0.44808 0.92164 0.1191 0.0
C1028 C 0.42773 0.98787 0.10572 0.0
C1029 C 0.37927 0.05628 0.12588 0.0
C1030 C 0.39964 0.02927 0.12941 0.0
C1031 C 0.45488 0.94808 0.13978 0.0
C1032 C 0.437 0.9769 0.13603 0.0
H1033 H 0.317 0.087 0.15986 0.0
H1034 H 0.35112 0.04394 0.16688 0.0
H1035 H 0.40204 0.0207 0.0787 0.0
H1036 H 0.50532 0.91527 0.19326 0.0
H1037 H 0.48371 0.9657 0.18154 0.0
C1038 C 0.7557 0.50147 0.96052 0.0
C1039 C 0.77262 0.47471 0.95804 0.0
C1040 C 0.77162 0.53233 0.96014 0.0
C1041 C 0.85256 0.57619 0.97186 0.0
H1042 H 0.81392 0.644 0.9274 0.0
C1043 C 0.92276 0.69506 0.93505 0.0
C1044 C 0.9064 0.72235 0.93197 0.0
C1045 C 0.90688 0.666 0.94458 0.0
C1046 C 0.82487 0.62558 0.94053 0.0
H1047 H 0.8183 0.45958 0.94749 0.0
H1048 H 0.84653 0.51311 0.94746 0.0
H1049 H 0.78497 0.59109 0.92914 0.0
H1050 H 0.8616 0.74137 0.93939 0.0
H1051 H 0.83414 0.691 0.95701 0.0
H1052 H 0.89273 0.6107 0.98279 0.0
C1053 C 0.82126 0.5103 0.95175 0.0
C1054 C 0.80824 0.59511 0.94141 0.0
C1055 C 0.80524 0.47949 0.95224 0.0
C1056 C 0.87476 0.72069 0.94148 0.0
C1057 C 0.85894 0.69171 0.95117 0.0
C1058 C 0.86921 0.60675 0.97104 0.0
C1059 C 0.80478 0.53712 0.95641 0.0
C1060 C 0.822 0.56991 0.95673 0.0
C1061 C 0.87432 0.66365 0.95135 0.0
C1062 C 0.85572 0.6318 0.95506 0.0
H1063 H 0.73023 0.49849 0.96376 0.0
H1064 H 0.75805 0.55238 0.96355 0.0
H1065 H 0.86364 0.55746 0.98437 0.0
H1066 H 0.94698 0.69547 0.92743 0.0
H1067 H 0.91952 0.64495 0.9443 0.0
C1068 C 0.78266 0.59288 0.25738 0.0
C1069 C 0.77653 0.56554 0.23798 0.0
C1070 C 0.76013 0.61467 0.25949 0.0
C1071 C 0.67488 0.62696 0.23582 0.0
H1072 H 0.70632 0.71518 0.25348 0.0
C1073 C 0.58894 0.72113 0.21726 0.0
C1074 C 0.60171 0.74729 0.19963 0.0
C1075 C 0.60929 0.70183 0.23368 0.0
C1076 C 0.69694 0.69075 0.24825 0.0
H1077 H 0.74208 0.54039 0.20463 0.0
H1078 H 0.70364 0.57963 0.20614 0.0
H1079 H 0.74338 0.67541 0.25373 0.0
H1080 H 0.64504 0.77697 0.18977 0.0
H1081 H 0.68039 0.74365 0.21738 0.0
H1082 H 0.62894 0.64286 0.22709 0.0
C1083 C 0.72518 0.58348 0.2213 0.0
C1084 C 0.71834 0.66753 0.24897 0.0
C1085 C 0.7474 0.56099 0.22008 0.0
C1086 C 0.63461 0.75692 0.20325 0.0
C1087 C 0.65498 0.73737 0.219 0.0
C1088 C 0.65362 0.65034 0.23416 0.0
C1089 C 0.73112 0.61069 0.24119 0.0
C1090 C 0.70781 0.63524 0.24226 0.0
C1091 C 0.64275 0.70819 0.23235 0.0
C1092 C 0.66438 0.68278 0.2397 0.0
H1093 H 0.80472 0.59732 0.27161 0.0
H1094 H 0.76564 0.63454 0.27581 0.0
H1095 H 0.66537 0.60242 0.23142 0.0
H1096 H 0.56363 0.71318 0.21496 0.0
H1097 H 0.59875 0.68047 0.245 0.0
C1098 C 0.75044 0.59392 0.49858 0.0
C1099 C 0.78126 0.58816 0.5095 0.0
C1100 C 0.72628 0.56862 0.49363 0.0
C1101 C 0.71299 0.48078 0.48058 0.0
H1102 H 0.62682 0.49149 0.50378 0.0
C1103 C 0.61354 0.3785 0.4589 0.0
C1104 C 0.58684 0.38758 0.44127 0.0
C1105 C 0.63518 0.40151 0.47469 0.0
C1106 C 0.65074 0.48809 0.49716 0.0
H1107 H 0.81182 0.55127 0.52117 0.0
H1108 H 0.77005 0.50705 0.51207 0.0
H1109 H 0.66959 0.53464 0.51399 0.0
H1110 H 0.56011 0.4273 0.42917 0.0
H1111 H 0.59722 0.46729 0.45721 0.0
H1112 H 0.69421 0.43451 0.46334 0.0
C1113 C 0.76405 0.53111 0.5081 0.0
C1114 C 0.67528 0.51293 0.50283 0.0
C1115 C 0.78805 0.55645 0.51333 0.0
C1116 C 0.5802 0.41953 0.44301 0.0
C1117 C 0.60174 0.44252 0.45887 0.0
C1118 C 0.68853 0.45595 0.47503 0.0
C1119 C 0.73261 0.53683 0.49883 0.0
C1120 C 0.70668 0.50982 0.49418 0.0
C1121 C 0.63048 0.43409 0.4733 0.0
C1122 C 0.65695 0.45934 0.48285 0.0
H1123 H 0.74512 0.61786 0.49323 0.0
H1124 H 0.70275 0.57399 0.48529 0.0
H1125 H 0.73668 0.47752 0.47317 0.0
H1126 H 0.61958 0.3542 0.45759 0.0
H1127 H 0.6567 0.39404 0.48618 0.0
C1128 C 0.24587 0.91802 0.28516 0.0
C1129 C 0.22365 0.90899 0.2599 0.0
C1130 C 0.27144 0.90013 0.2923 0.0
C1131 C 0.30429 0.82334 0.27369 0.0
H1132 H 0.38543 0.87573 0.28199 0.0
C1133 C 0.41724 0.79083 0.21886 0.0
C1134 C 0.44661 0.80796 0.22809 0.0
C1135 C 0.39006 0.79438 0.23575 0.0
C1136 C 0.36316 0.86034 0.28062 0.0
H1137 H 0.21057 0.87353 0.2229 0.0
H1138 H 0.25521 0.84284 0.23483 0.0
H1139 H 0.3366 0.9001 0.28661 0.0
H1140 H 0.4719 0.83782 0.26494 0.0
H1141 H 0.42488 0.84272 0.29548 0.0
H1142 H 0.33103 0.78382 0.26598 0.0
C1143 C 0.25261 0.86329 0.2497 0.0
C1144 C 0.33492 0.87451 0.28319 0.0
C1145 C 0.22701 0.88105 0.24269 0.0
C1146 C 0.44941 0.82458 0.25721 0.0
C1147 C 0.42232 0.82779 0.27436 0.0
C1148 C 0.33261 0.80914 0.27102 0.0
C1149 C 0.27551 0.87288 0.27422 0.0
C1150 C 0.30509 0.85648 0.27835 0.0
C1151 C 0.39189 0.81492 0.26236 0.0
C1152 C 0.36242 0.8277 0.2731 0.0
H1153 H 0.24362 0.93903 0.29932 0.0
H1154 H 0.28834 0.90796 0.31167 0.0
H1155 H 0.28171 0.80856 0.27072 0.0
H1156 H 0.41438 0.77795 0.19642 0.0
H1157 H 0.36724 0.78381 0.22573 0.0
C1158 C 0.25614 0.07794 0.5362 0.0
C1159 C 0.24794 0.04497 0.54036 0.0
C1160 C 0.23309 0.09948 0.53836 0.0
C1161 C 0.14582 0.10358 0.53198 0.0
H1162 H 0.16261 0.17735 0.58752 0.0
C1163 C 0.04757 0.1607 0.59336 0.0
C1164 C 0.05409 0.19159 0.60622 0.0
C1165 C 0.06987 0.14778 0.57498 0.0
C1166 C 0.15757 0.15743 0.57115 0.0
H1167 H 0.209 0.00937 0.55139 0.0
H1168 H 0.16911 0.04661 0.55444 0.0
H1169 H 0.20549 0.14487 0.57734 0.0
H1170 H 0.08673 0.23475 0.60605 0.0
H1171 H 0.12491 0.21293 0.57249 0.0
H1172 H 0.09785 0.11571 0.52604 0.0
C1173 C 0.19322 0.05574 0.54902 0.0
C1174 C 0.18226 0.13866 0.56552 0.0
C1175 C 0.21623 0.03435 0.54728 0.0
C1176 C 0.08095 0.21094 0.59629 0.0
C1177 C 0.10323 0.1981 0.57768 0.0
C1178 C 0.12122 0.12254 0.53729 0.0
C1179 C 0.20126 0.08852 0.54435 0.0
C1180 C 0.1764 0.11095 0.5467 0.0
C1181 C 0.09905 0.16565 0.56873 0.0
C1182 C 0.12643 0.14917 0.55781 0.0
H1183 H 0.28012 0.08711 0.5305 0.0
H1184 H 0.24001 0.12464 0.53467 0.0
H1185 H 0.14073 0.08268 0.51686 0.0
H1186 H 0.02722 0.14516 0.60095 0.0
H1187 H 0.06552 0.12277 0.56862 0.0
C1188 C 0.80732 0.54508 0.31944 0.0
C1189 C 0.83633 0.53153 0.32102 0.0
C1190 C 0.77822 0.5258 0.31581 0.0
C1191 C 0.74379 0.44243 0.29456 0.0
H1192 H 0.67017 0.46762 0.33596 0.0
C1193 C 0.63334 0.35802 0.32932 0.0
C1194 C 0.60419 0.37114 0.33126 0.0
C1195 C 0.66024 0.37654 0.31851 0.0
C1196 C 0.69027 0.46047 0.32365 0.0
H1197 H 0.85728 0.48714 0.32584 0.0
H1198 H 0.80688 0.45318 0.31958 0.0
H1199 H 0.71996 0.50226 0.33931 0.0
H1200 H 0.57916 0.41206 0.31929 0.0
H1201 H 0.62576 0.44405 0.29958 0.0
H1202 H 0.71406 0.39974 0.28029 0.0
C1203 C 0.8065 0.4788 0.31864 0.0
C1204 C 0.71898 0.48041 0.32562 0.0
C1205 C 0.83557 0.49822 0.32181 0.0
C1206 C 0.60129 0.40132 0.31789 0.0
C1207 C 0.62815 0.41983 0.30716 0.0
C1208 C 0.71505 0.42226 0.29289 0.0
C1209 C 0.77738 0.4923 0.31498 0.0
C1210 C 0.74631 0.47158 0.31141 0.0
C1211 C 0.65836 0.40843 0.3094 0.0
C1212 C 0.68799 0.43095 0.30763 0.0
H1213 H 0.8072 0.57071 0.3203 0.0
H1214 H 0.75645 0.53726 0.31315 0.0
H1215 H 0.76408 0.43506 0.28275 0.0
H1216 H 0.63639 0.33503 0.33987 0.0
H1217 H 0.6831 0.36695 0.32046 0.0
C1218 C 0.71232 0.59851 0.75626 0.0
C1219 C 0.68121 0.60673 0.74959 0.0
C1220 C 0.73829 0.62217 0.75935 0.0
C1221 C 0.75925 0.7052 0.78248 0.0
H1222 H 0.83864 0.6964 0.74231 0.0
C1223 C 0.86979 0.78681 0.82399 0.0
C1224 C 0.89749 0.7713 0.82872 0.0
C1225 C 0.8443 0.77331 0.804 0.0
C1226 C 0.81682 0.69936 0.75393 0.0
H1227 H 0.65307 0.64636 0.74116 0.0
H1228 H 0.69832 0.68767 0.74761 0.0
H1229 H 0.79206 0.65846 0.72979 0.0
H1230 H 0.92163 0.73151 0.81388 0.0
H1231 H 0.87757 0.70747 0.78015 0.0
H1232 H 0.78388 0.74461 0.80817 0.0
C1233 C 0.70259 0.66287 0.75003 0.0
C1234 C 0.79004 0.6775 0.74663 0.0
C1235 C 0.67669 0.63919 0.74634 0.0
C1236 C 0.90074 0.74426 0.81021 0.0
C1237 C 0.87504 0.73029 0.79092 0.0
C1238 C 0.78612 0.72678 0.79016 0.0
C1239 C 0.73371 0.65463 0.75641 0.0
C1240 C 0.76117 0.67974 0.7614 0.0
C1241 C 0.84559 0.74344 0.78919 0.0
C1242 C 0.81568 0.72384 0.77662 0.0
H1243 H 0.71669 0.57375 0.7587 0.0
H1244 H 0.76194 0.6151 0.76464 0.0
H1245 H 0.73737 0.70748 0.79437 0.0
H1246 H 0.86655 0.80755 0.8382 0.0
H1247 H 0.82273 0.78514 0.80227 0.0
C1248 C 0.58684 0.89985 0.56271 0.0
C1249 C 0.61008 0.87919 0.57065 0.0
C1250 C 0.59138 0.92214 0.53838 0.0
C1251 C 0.65498 0.96341 0.4895 0.0
H1252 H 0.58239 0.98421 0.43633 0.0
C1253 C 0.67787 0.04473 0.3846 0.0
C1254 C 0.66533 0.02987 0.35614 0.0
C1255 C 0.66529 0.0352 0.41369 0.0
C1256 C 0.60291 0.97883 0.45106 0.0
H1257 H 0.65652 0.86611 0.55918 0.0
H1258 H 0.66465 0.90508 0.51685 0.0
H1259 H 0.57421 0.94645 0.47957 0.0
H1260 H 0.6266 0.99783 0.33509 0.0
H1261 H 0.60423 0.98156 0.38535 0.0
H1262 H 0.68389 0.99429 0.45979 0.0
C1263 C 0.64295 0.90437 0.52968 0.0
C1264 C 0.59824 0.95726 0.47613 0.0
C1265 C 0.63831 0.88188 0.55398 0.0
C1266 C 0.63656 0.00986 0.35668 0.0
C1267 C 0.624 1.00019 0.38572 0.0
C1268 C 0.65966 0.98479 0.46436 0.0
C1269 C 0.61952 0.92489 0.52151 0.0
C1270 C 0.62428 0.94886 0.49548 0.0
C1271 C 0.63983 0.01081 0.41464 0.0
C1272 C 0.63377 0.99243 0.44444 0.0
H1273 H 0.5651 0.89906 0.57548 0.0
H1274 H 0.57293 0.9376 0.53323 0.0
H1275 H 0.6756 0.95834 0.50423 0.0
H1276 H 0.69984 0.0605 0.38481 0.0
H1277 H 0.6774 0.04474 0.4355 0.0
C1278 C 0.44991 0.25369 0.83959 0.0
C1279 C 0.48333 0.25993 0.83972 0.0
C1280 C 0.43122 0.25525 0.81127 0.0
C1281 C 0.43508 0.28464 0.72736 0.0
H1282 H 0.35683 0.22783 0.71474 0.0
C1283 C 0.36592 0.28136 0.60784 0.0
C1284 C 0.33526 0.29112 0.61043 0.0
C1285 C 0.38237 0.27017 0.6345 0.0
C1286 C 0.37869 0.24371 0.71795 0.0
H1287 H 0.52337 0.27253 0.81013 0.0
H1288 H 0.49118 0.27416 0.76075 0.0
H1289 H 0.38945 0.22532 0.76421 0.0
H1290 H 0.29626 0.29286 0.64183 0.0
H1291 H 0.32461 0.27218 0.68819 0.0
H1292 H 0.42453 0.30256 0.68087 0.0
C1293 C 0.47904 0.26906 0.78255 0.0
C1294 C 0.3973 0.24258 0.74643 0.0
C1295 C 0.49764 0.26808 0.81096 0.0
C1296 C 0.31971 0.28522 0.639 0.0
C1297 C 0.33609 0.27369 0.66567 0.0
C1298 C 0.41683 0.28533 0.69878 0.0
C1299 C 0.44551 0.26252 0.78219 0.0
C1300 C 0.42571 0.26321 0.75167 0.0
C1301 C 0.36826 0.26803 0.66412 0.0
C1302 C 0.38839 0.265 0.69377 0.0
H1303 H 0.43815 0.24741 0.8614 0.0
H1304 H 0.40553 0.25076 0.8123 0.0
H1305 H 0.45622 0.30149 0.73053 0.0
H1306 H 0.37847 0.28569 0.58612 0.0
H1307 H 0.40697 0.26545 0.63251 0.0
C1308 C 0.90252 0.23918 0.10442 0.0
C1309 C 0.92295 0.26706 0.09926 0.0
C1310 C 0.89907 0.21434 0.08186 0.0
C1311 C 0.94005 0.17686 0.02107 0.0
H1312 H 0.85839 0.15469 0.97595 0.0
C1313 C 0.92991 0.11194 0.89977 0.0
C1314 C 0.90059 0.09604 0.88858 0.0
C1315 C 0.93295 0.1267 0.92975 0.0
C1316 C 0.88128 0.15971 0.98872 0.0
H1317 H 0.95208 0.29259 0.06481 0.0
H1318 H 0.9484 0.24836 0.02663 0.0
H1319 H 0.86241 0.19237 0.02024 0.0
H1320 H 0.85194 0.08146 0.90047 0.0
H1321 H 0.85766 0.10501 0.95383 0.0
H1322 H 0.9591 0.144 0.99036 0.0
C1323 C 0.93576 0.24532 0.04843 0.0
C1324 C 0.88352 0.18161 0.01402 0.0
C1325 C 0.9384 0.27038 0.07051 0.0
C1326 C 0.87498 0.0931 0.90884 0.0
C1327 C 0.87817 0.10729 0.93917 0.0
C1328 C 0.93772 0.15438 0.99628 0.0
C1329 C 0.91619 0.217 0.05395 0.0
C1330 C 0.91306 0.19096 0.02988 0.0
C1331 C 0.90677 0.12563 0.94954 0.0
C1332 C 0.90846 0.14607 0.97903 0.0
H1333 H 0.8897 0.23637 0.12611 0.0
H1334 H 0.88352 0.19287 0.08645 0.0
H1335 H 0.96307 0.18354 0.03317 0.0
H1336 H 0.94973 0.11531 0.88421 0.0
H1337 H 0.95527 0.14081 0.93623 0.0
C1338 C 0.07024 0.78649 0.26837 0.0
C1339 C 0.04085 0.76772 0.27119 0.0
C1340 C 0.08996 0.78142 0.24338 0.0
C1341 C 0.08862 0.74278 0.16341 0.0
H1342 H 0.18066 0.75143 0.17802 0.0
C1343 C 0.16759 0.71878 0.061 0.0
C1344 C 0.19188 0.69925 0.06847 0.0
C1345 C 0.15292 0.73383 0.08516 0.0
C1346 C 0.15501 0.74883 0.17348 0.0
H1347 H 0.00953 0.72854 0.25006 0.0
H1348 H 0.04405 0.71918 0.20691 0.0
H1349 H 0.1468 0.76178 0.22141 0.0
H1350 H 0.22129 0.68185 0.10681 0.0
H1351 H 0.19574 0.70777 0.14902 0.0
H1352 H 0.09656 0.7283 0.11606 0.0
C1353 C 0.05162 0.73841 0.22355 0.0
C1354 C 0.13552 0.75511 0.19836 0.0
C1355 C 0.03179 0.74366 0.24841 0.0
C1356 C 0.20312 0.69735 0.10032 0.0
C1357 C 0.18819 0.71208 0.12457 0.0
C1358 C 0.10804 0.73633 0.13865 0.0
C1359 C 0.08097 0.7573 0.22056 0.0
C1360 C 0.10198 0.75183 0.19378 0.0
C1361 C 0.16181 0.72923 0.11743 0.0
C1362 C 0.14155 0.739 0.14331 0.0
H1363 H 0.07778 0.80562 0.2851 0.0
H1364 H 0.11203 0.79685 0.24168 0.0
H1365 H 0.063 0.7405 0.15867 0.0
H1366 H 0.15822 0.7203 0.03665 0.0
H1367 H 0.13335 0.74758 0.07857 0.0
C1368 C 0.61462 0.22326 0.95314 0.0
C1369 C 0.61848 0.25648 0.95725 0.0
C1370 C 0.61206 0.20303 0.97952 0.0
C1371 C 0.59532 0.2001 0.06521 0.0
H1372 H 0.65169 0.13316 0.06875 0.0
C1373 C 0.63926 0.14561 0.18278 0.0
C1374 C 0.6511 0.11563 0.18253 0.0
C1375 C 0.6265 0.15832 0.15485 0.0
C1376 C 0.63509 0.1511 0.06806 0.0
H1377 H 0.62427 0.29469 0.99203 0.0
H1378 H 0.61913 0.25951 0.03822 0.0
H1379 H 0.64683 0.16431 0.02056 0.0
H1380 H 0.65516 0.07395 0.15349 0.0
H1381 H 0.63129 0.09531 0.10518 0.0
H1382 H 0.58376 0.18714 0.11284 0.0
C1383 C 0.61735 0.249 0.01461 0.0
C1384 C 0.63248 0.16914 0.04033 0.0
C1385 C 0.62041 0.26914 0.98823 0.0
C1386 C 0.64631 0.0971 0.15458 0.0
C1387 C 0.63317 0.10968 0.12666 0.0
C1388 C 0.59764 0.18179 0.0929 0.0
C1389 C 0.61341 0.21567 0.01059 0.0
C1390 C 0.61317 0.19433 0.03882 0.0
C1391 C 0.62478 0.14119 0.12597 0.0
C1392 C 0.61819 0.1575 0.09504 0.0
H1393 H 0.61477 0.21288 0.9297 0.0
H1394 H 0.60935 0.17748 0.97563 0.0
H1395 H 0.57987 0.21908 0.06459 0.0
H1396 H 0.64231 0.16036 0.20403 0.0
H1397 H 0.62037 0.18259 0.15557 0.0
C1398 C 0.05639 0.27759 0.23645 0.0
C1399 C 0.06669 0.29248 0.20829 0.0
C1400 C 0.07706 0.27749 0.26361 0.0
C1401 C 0.16373 0.29215 0.29044 0.0
H1402 H 0.12914 0.29924 0.37353 0.0
C1403 C 0.23644 0.33672 0.40555 0.0
C1404 C 0.22596 0.32492 0.43495 0.0
C1405 C 0.2208 0.32544 0.37694 0.0
C1406 C 0.13919 0.29663 0.35057 0.0
H1407 H 0.10683 0.31937 0.18692 0.0
H1408 H 0.14237 0.32025 0.23438 0.0
H1409 H 0.09343 0.29627 0.32628 0.0
H1410 H 0.19306 0.2899 0.45724 0.0
H1411 H 0.16617 0.26969 0.40734 0.0
H1412 H 0.20977 0.29401 0.31506 0.0
C1413 C 0.11864 0.30778 0.23537 0.0
C1414 C 0.11863 0.29494 0.32332 0.0
C1415 C 0.09808 0.30757 0.20813 0.0
C1416 C 0.20204 0.29905 0.43495 0.0
C1417 C 0.18619 0.28795 0.40637 0.0
C1418 C 0.18437 0.29419 0.31776 0.0
C1419 C 0.10855 0.29259 0.26354 0.0
C1420 C 0.13054 0.29297 0.29275 0.0
C1421 C 0.1942 0.30229 0.37719 0.0
C1422 C 0.17238 0.29667 0.34818 0.0
H1423 H 0.0325 0.26544 0.23738 0.0
H1424 H 0.0684 0.26508 0.28453 0.0
H1425 H 0.17389 0.28999 0.26749 0.0
H1426 H 0.25435 0.3571 0.40489 0.0
H1427 H 0.22763 0.33705 0.35496 0.0
C1428 C 0.95748 0.89958 0.46633 0.0
C1429 C 0.93347 0.88439 0.44541 0.0
C1430 C 0.95011 0.92076 0.48975 0.0
C1431 C 0.883 0.93973 0.53697 0.0
H1432 H 0.9429 0.01146 0.56538 0.0
C1433 C 0.86108 1.00673 0.65073 0.0
C1434 C 0.88771 0.0114 0.67229 0.0
C1435 C 0.8649 0.99977 0.61869 0.0
C1436 C 0.92593 0.99147 0.55785 0.0
H1437 H 0.88279 0.88114 0.43226 0.0
H1438 H 0.86996 0.91802 0.47322 0.0
H1439 H 0.95275 0.98197 0.51759 0.0
H1440 H 0.9393 0.01479 0.67679 0.0
H1441 H 0.94613 1.00234 0.62114 0.0
H1442 H 0.85682 0.94826 0.57775 0.0
C1443 C 0.8945 0.91295 0.47177 0.0
C1444 C 0.93163 0.97447 0.53045 0.0
C1445 C 0.90188 0.89171 0.44824 0.0
C1446 C 0.91838 0.01176 0.66062 0.0
C1447 C 0.92223 1.00446 0.62863 0.0
C1448 C 0.87742 0.95656 0.56446 0.0
C1449 C 0.91849 0.92747 0.49311 0.0
C1450 C 0.91059 0.94792 0.52002 0.0
C1451 C 0.89544 0.99687 0.60757 0.0
C1452 C 0.89918 0.98223 0.57574 0.0
H1453 H 0.98202 0.89452 0.46549 0.0
H1454 H 0.96918 0.93096 0.50601 0.0
H1455 H 0.86645 0.91922 0.52999 0.0
H1456 H 0.83715 1.00632 0.65915 0.0
H1457 H 0.84377 0.99496 0.60304 0.0
C1458 C 0.47746 0.76706 0.75892 0.0
C1459 C 0.51029 0.7766 0.76458 0.0
C1460 C 0.45636 0.76645 0.78353 0.0
C1461 C 0.45015 0.7551 0.86824 0.0
H1462 H 0.36849 0.78847 0.85322 0.0
C1463 C 0.348 0.71643 0.94925 0.0
C1464 C 0.31949 0.70562 0.93208 0.0
C1465 C 0.37193 0.73621 0.93471 0.0
C1466 C 0.39109 0.77891 0.85791 0.0
H1467 H 0.54637 0.79267 0.80139 0.0
H1468 H 0.5094 0.79021 0.84472 0.0
H1469 H 0.41011 0.79928 0.81531 0.0
H1470 H 0.29217 0.70977 0.8877 0.0
H1471 H 0.33339 0.74374 0.8623 0.0
H1472 H 0.43044 0.73221 0.90924 0.0
C1473 C 0.50023 0.78372 0.82084 0.0
C1474 C 0.41505 0.7854 0.83625 0.0
C1475 C 0.52142 0.78486 0.79598 0.0
C1476 C 0.31385 0.71794 0.90155 0.0
C1477 C 0.33772 0.73746 0.88696 0.0
C1478 C 0.42593 0.748 0.88963 0.0
C1479 C 0.4674 0.77482 0.81473 0.0
C1480 C 0.44446 0.77273 0.84063 0.0
C1481 C 0.36782 0.74542 0.90267 0.0
C1482 C 0.39559 0.75882 0.88413 0.0
H1483 H 0.46785 0.75977 0.73544 0.0
H1484 H 0.43132 0.75877 0.7782 0.0
H1485 H 0.47255 0.74491 0.87218 0.0
H1486 H 0.3531 0.7071 0.97274 0.0
H1487 H 0.3944 0.74252 0.94792 0.0
C1488 C 0.47685 0.55148 0.73967 0.0
C1489 C 0.50548 0.54536 0.75609 0.0
C1490 C 0.44863 0.55262 0.75591 0.0
C1491 C 0.41122 0.52823 0.83203 0.0
H1492 H 0.35882 0.59678 0.81395 0.0
C1493 C 0.32855 0.57605 0.92213 0.0
C1494 C 0.30275 0.59202 0.91072 0.0
C1495 C 0.34773 0.56219 0.90085 0.0
C1496 C 0.37265 0.57698 0.81895 0.0
H1497 H 0.52609 0.53569 0.80312 0.0
H1498 H 0.47773 0.5383 0.83093 0.0
H1499 H 0.40361 0.59013 0.78112 0.0
H1500 H 0.27449 0.60277 0.86854 0.0
H1501 H 0.30703 0.57745 0.83146 0.0
H1502 H 0.38073 0.5156 0.87041 0.0
C1503 C 0.47687 0.54174 0.80539 0.0
C1504 C 0.39851 0.57325 0.80008 0.0
C1505 C 0.50498 0.54075 0.78928 0.0
C1506 C 0.29419 0.59049 0.87798 0.0
C1507 C 0.31322 0.57648 0.85671 0.0
C1508 C 0.3853 0.53191 0.85088 0.0
C1509 C 0.44825 0.54756 0.789 0.0
C1510 C 0.41862 0.5493 0.80681 0.0
C1511 C 0.34136 0.5639 0.86771 0.0
C1512 C 0.36603 0.55677 0.84504 0.0
H1513 H 0.47612 0.55537 0.71424 0.0
H1514 H 0.42701 0.5571 0.74245 0.0
H1515 H 0.42578 0.50909 0.83753 0.0
H1516 H 0.33601 0.57731 0.94716 0.0
H1517 H 0.36914 0.55277 0.91034 0.0
C1518 C 0.81014 0.33814 0.08036 0.0
C1519 C 0.8105 0.36959 0.09166 0.0
C1520 C 0.81018 0.31256 0.10164 0.0
C1521 C 0.78326 0.28801 0.17923 0.0
H1522 H 0.8378 0.22004 0.17229 0.0
C1523 C 0.75486 0.17536 0.251 0.0
C1524 C 0.75516 0.14694 0.23373 0.0
C1525 C 0.7715 0.20369 0.24064 0.0
C1526 C 0.82217 0.23864 0.17451 0.0
H1527 H 0.81143 0.39879 0.13421 0.0
H1528 H 0.81033 0.35397 0.17126 0.0
H1529 H 0.8457 0.26714 0.13844 0.0
H1530 H 0.77514 0.12515 0.19385 0.0
H1531 H 0.80324 0.17425 0.1751 0.0
H1532 H 0.75802 0.25925 0.21327 0.0
C1533 C 0.81044 0.34923 0.14595 0.0
C1534 C 0.82687 0.26567 0.15516 0.0
C1535 C 0.81106 0.37486 0.12472 0.0
C1536 C 0.77504 0.14666 0.20794 0.0
C1537 C 0.79101 0.17509 0.19706 0.0
C1538 C 0.77809 0.26081 0.19806 0.0
C1539 C 0.80994 0.3178 0.13464 0.0
C1540 C 0.80712 0.29039 0.15699 0.0
C1541 C 0.78789 0.20439 0.21214 0.0
C1542 C 0.79705 0.23533 0.19564 0.0
H1543 H 0.80999 0.33328 0.05505 0.0
H1544 H 0.80952 0.28856 0.09223 0.0
H1545 H 0.76747 0.30655 0.18098 0.0
H1546 H 0.73943 0.17624 0.27077 0.0
H1547 H 0.76951 0.22542 0.25376 0.0
C1548 C 0.97268 0.4228 0.33161 0.0
C1549 C 0.95231 0.44609 0.33799 0.0
C1550 C 0.99914 0.41888 0.35217 0.0
C1551 C 0.03533 0.43777 0.43337 0.0
H1552 H 0.11451 0.42926 0.39259 0.0
C1553 C 0.15055 0.39949 0.49706 0.0
C1554 C 0.17997 0.41034 0.48441 0.0
C1555 C 0.12205 0.40909 0.48362 0.0
C1556 C 0.09273 0.43211 0.40444 0.0
H1557 H 0.94259 0.48204 0.372 0.0
H1558 H 0.98874 0.4754 0.40764 0.0
H1559 H 0.06568 0.43241 0.3601 0.0
H1560 H 0.20305 0.44247 0.45045 0.0
H1561 H 0.15353 0.46019 0.42776 0.0
H1562 H 0.06265 0.43755 0.47779 0.0
C1563 C 0.98441 0.46019 0.38678 0.0
C1564 C 0.06457 0.43333 0.38576 0.0
C1565 C 0.9581 0.4642 0.36618 0.0
C1566 C 0.18069 0.43387 0.46074 0.0
C1567 C 0.15227 0.44355 0.44739 0.0
C1568 C 0.06358 0.4364 0.45213 0.0
C1569 C 1.0057 0.438 0.37967 0.0
C1570 C 0.03546 0.43605 0.39993 0.0
C1571 C 0.12254 0.42979 0.45736 0.0
C1572 C 0.09266 0.43357 0.43787 0.0
H1573 H 0.96897 0.40855 0.31008 0.0
H1574 H 0.01479 0.40119 0.34625 0.0
H1575 H 0.01329 0.43974 0.44507 0.0
H1576 H 0.14925 0.38096 0.51494 0.0
H1577 H 0.09962 0.39803 0.49194 0.0
C1578 C 0.78387 0.71968 0.64393 0.0
C1579 C 0.80691 0.69858 0.63906 0.0
C1580 C 0.78961 0.74429 0.66648 0.0
C1581 C 0.8566 0.79376 0.70815 0.0
H1582 H 0.78802 0.82769 0.75099 0.0
C1583 C 0.87898 0.9163 0.76829 0.0
C1584 C 0.85697 0.93703 0.75713 0.0
C1585 C 0.87182 0.88317 0.76494 0.0
C1586 C 0.80748 0.81848 0.73929 0.0
H1587 H 0.85368 0.68624 0.65516 0.0
H1588 H 0.86373 0.72919 0.69445 0.0
H1589 H 0.77799 0.77646 0.72321 0.0
H1590 H 0.80916 0.93939 0.73674 0.0
H1591 H 0.79649 0.88191 0.73113 0.0
H1592 H 0.88588 0.83602 0.7234 0.0
C1593 C 0.84131 0.72695 0.68051 0.0
C1594 C 0.8017 0.78916 0.72319 0.0
C1595 C 0.83547 0.70218 0.65806 0.0
C1596 C 0.8265 0.92394 0.7457 0.0
C1597 C 0.81928 0.8909 0.74248 0.0
C1598 C 0.86242 0.82294 0.72437 0.0
C1599 C 0.8186 0.74862 0.6848 0.0
C1600 C 0.82589 0.77697 0.70637 0.0
C1601 C 0.84246 0.87015 0.75047 0.0
C1602 C 0.83767 0.83627 0.73921 0.0
H1603 H 0.76153 0.71761 0.62984 0.0
H1604 H 0.7717 0.76068 0.66863 0.0
H1605 H 0.87583 0.78541 0.69538 0.0
H1606 H 0.90275 0.92571 0.77691 0.0
H1607 H 0.89001 0.86786 0.77189 0.0
C1608 C 0.53213 0.46811 0.77089 0.0
C1609 C 0.56387 0.46544 0.76347 0.0
C1610 C 0.50727 0.4631 0.74747 0.0
C1611 C 0.48651 0.42578 0.66792 0.0
H1612 H 0.41805 0.48051 0.66628 0.0
C1613 C 0.38631 0.40588 0.57191 0.0
C1614 C 0.3557 0.40187 0.58409 0.0
C1615 C 0.41223 0.42113 0.59009 0.0
C1616 C 0.43697 0.46502 0.66638 0.0
H1617 H 0.5937 0.45079 0.72708 0.0
H1618 H 0.55096 0.4433 0.6857 0.0
H1619 H 0.46196 0.48922 0.70649 0.0
H1620 H 0.32759 0.41389 0.62314 0.0
H1621 H 0.3725 0.44098 0.65466 0.0
H1622 H 0.46141 0.40118 0.62831 0.0
C1623 C 0.54513 0.45011 0.70936 0.0
C1624 C 0.46212 0.4699 0.68958 0.0
C1625 C 0.56992 0.45522 0.73284 0.0
C1626 C 0.35078 0.41718 0.61285 0.0
C1627 C 0.37673 0.43236 0.63114 0.0
C1628 C 0.46149 0.42097 0.64474 0.0
C1629 C 0.51348 0.45459 0.71617 0.0
C1630 C 0.48711 0.45013 0.69087 0.0
C1631 C 0.40807 0.43264 0.62089 0.0
C1632 C 0.4362 0.44034 0.64373 0.0
H1633 H 0.52663 0.47491 0.79468 0.0
H1634 H 0.48317 0.46589 0.75397 0.0
H1635 H 0.50491 0.40968 0.66839 0.0
H1636 H 0.39088 0.3939 0.55005 0.0
H1637 H 0.4359 0.42167 0.58104 0.0
C1638 C 0.88983 0.37338 0.89774 0.0
C1639 C 0.86232 0.37086 0.91568 0.0
C1640 C 0.89253 0.35217 0.87248 0.0
C1641 C 0.84466 0.2914 0.81987 0.0
H1642 H 0.92243 0.25001 0.82142 0.0
C1643 C 0.84698 0.15993 0.79457 0.0
C1644 C 0.876 0.14794 0.78882 0.0
C1645 C 0.84507 0.19279 0.79531 0.0
C1646 C 0.90079 0.26175 0.81973 0.0
H1647 H 0.81622 0.34337 0.92076 0.0
H1648 H 0.82089 0.30713 0.87727 0.0
H1649 H 0.92041 0.29773 0.85314 0.0
H1650 H 0.92437 0.16051 0.77474 0.0
H1651 H 0.92077 0.21803 0.77468 0.0
H1652 H 0.82459 0.25463 0.78749 0.0
C1653 C 0.84014 0.32587 0.88213 0.0
C1654 C 0.89962 0.28921 0.83816 0.0
C1655 C 0.83752 0.34681 0.90734 0.0
C1656 C 0.90166 0.16913 0.77913 0.0
C1657 C 0.89974 0.20213 0.77972 0.0
C1658 C 0.84586 0.26404 0.80131 0.0
C1659 C 0.8677 0.32807 0.86445 0.0
C1660 C 0.87109 0.30349 0.83964 0.0
C1661 C 0.87219 0.21438 0.79023 0.0
C1662 C 0.87345 0.24791 0.80218 0.0
H1663 H 0.9093 0.39172 0.90312 0.0
H1664 H 0.91408 0.3546 0.85929 0.0
H1665 H 0.8225 0.30226 0.81985 0.0
H1666 H 0.82693 0.14407 0.8023 0.0
H1667 H 0.82337 0.20103 0.80342 0.0
C1668 C 0.97276 0.53378 0.19777 0.0
C1669 C 0.9414 0.53538 0.18549 0.0
C1670 C 0.99837 0.53636 0.17763 0.0
C1671 C 0.01766 0.53506 0.09116 0.0
H1672 H 0.09939 0.57545 0.12444 0.0
C1673 C 0.12117 0.59668 0.01903 0.0
C1674 C 0.15251 0.59398 0.03098 0.0
C1675 C 0.09503 0.58095 0.03398 0.0
C1676 C 0.07686 0.56361 0.11491 0.0
H1677 H 0.91234 0.54141 0.14245 0.0
H1678 H 0.95702 0.54774 0.10753 0.0
H1679 H 0.05486 0.56814 0.15901 0.0
H1680 H 0.18117 0.57022 0.0657 0.0
H1681 H 0.13558 0.5427 0.09178 0.0
H1682 H 0.0398 0.53265 0.04632 0.0
C1683 C 0.96195 0.54329 0.13254 0.0
C1684 C 0.05118 0.55931 0.13481 0.0
C1685 C 0.93625 0.54003 0.15264 0.0
C1686 C 0.15731 0.57236 0.0557 0.0
C1687 C 0.1312 0.557 0.07094 0.0
C1688 C 0.04331 0.53997 0.07104 0.0
C1689 C 0.99345 0.54133 0.14467 0.0
C1690 C 0.02108 0.54506 0.12331 0.0
C1691 C 0.09986 0.56261 0.06135 0.0
C1692 C 0.07318 0.55432 0.08275 0.0
H1693 H 0.97749 0.52969 0.22291 0.0
H1694 H 0.02199 0.53394 0.188 0.0
H1695 H 0.99517 0.52344 0.08141 0.0
H1696 H 0.11684 0.61358 1.00032 0.0
H1697 H 0.07117 0.58574 0.02608 0.0
C1698 C 0.70069 0.74311 0.46743 0.0
C1699 C 0.72587 0.724 0.47253 0.0
C1700 C 0.70366 0.76919 0.4467 0.0
C1701 C 0.76449 0.82552 0.40963 0.0
H1702 H 0.69217 0.84679 0.35642 0.0
C1703 C 0.75424 0.95045 0.35545 0.0
C1704 C 0.73653 0.95283 0.32647 0.0
C1705 C 0.75763 0.92065 0.3691 0.0
C1706 C 0.71281 0.841 0.37073 0.0
H1707 H 0.77352 0.71693 0.45852 0.0
H1708 H 0.77868 0.76231 0.42268 0.0
H1709 H 0.68735 0.79841 0.38827 0.0
H1710 H 0.71057 0.92582 0.28797 0.0
H1711 H 0.71708 0.87363 0.31138 0.0
H1712 H 0.78988 0.86827 0.3922 0.0
C1713 C 0.75683 0.75748 0.43516 0.0
C1714 C 0.70987 0.81343 0.38939 0.0
C1715 C 0.75384 0.73138 0.4558 0.0
C1716 C 0.72464 0.9247 0.31012 0.0
C1717 C 0.72791 0.89484 0.32384 0.0
C1718 C 0.76739 0.85318 0.39105 0.0
C1719 C 0.73189 0.77691 0.43049 0.0
C1720 C 0.73554 0.80548 0.40938 0.0
C1721 C 0.74326 0.8925 0.35415 0.0
C1722 C 0.74148 0.86149 0.37157 0.0
H1723 H 0.67895 0.7385 0.48006 0.0
H1724 H 0.68409 0.78383 0.44405 0.0
H1725 H 0.78471 0.82033 0.42489 0.0
H1726 H 0.76344 0.97179 0.36869 0.0
H1727 H 0.76953 0.91992 0.39245 0.0
C1728 C 0.8087 0.5282 0.60714 0.0
C1729 C 0.77768 0.5251 0.59273 0.0
C1730 C 0.82753 0.50282 0.60715 0.0
C1731 C 0.82473 0.4153 0.59654 0.0
H1732 H 0.91465 0.43529 0.58113 0.0
C1733 C 0.90597 0.31517 0.59496 0.0
C1734 C 0.93304 0.32052 0.61594 0.0
C1735 C 0.88928 0.34058 0.58473 0.0
C1736 C 0.88962 0.42928 0.58548 0.0
H1737 H 0.74172 0.49185 0.5684 0.0
H1738 H 0.7745 0.44754 0.56855 0.0
H1739 H 0.87961 0.47785 0.58064 0.0
H1740 H 0.9659 0.35696 0.63954 0.0
H1741 H 0.93732 0.40135 0.62121 0.0
H1742 H 0.83479 0.36687 0.60196 0.0
C1743 C 0.78428 0.46976 0.57984 0.0
C1744 C 0.86952 0.45371 0.58537 0.0
C1745 C 0.76537 0.49522 0.57989 0.0
C1746 C 0.94542 0.35212 0.623 0.0
C1747 C 0.92873 0.37758 0.61276 0.0
C1748 C 0.84481 0.39088 0.5966 0.0
C1749 C 0.81589 0.47348 0.59285 0.0
C1750 C 0.83688 0.44713 0.59137 0.0
C1751 C 0.89939 0.3719 0.59514 0.0
C1752 C 0.87762 0.39757 0.59144 0.0
H1753 H 0.81874 0.55051 0.61803 0.0
H1754 H 0.85136 0.50631 0.61827 0.0
H1755 H 0.79987 0.40934 0.60162 0.0
H1756 H 0.89578 0.29103 0.58933 0.0
H1757 H 0.86722 0.33543 0.57048 0.0
C1758 C 0.2615 0.02307 0.45606 0.0
C1759 C 0.27212 0.99336 0.44968 0.0
C1760 C 0.28308 0.05074 0.45805 0.0
C1761 C 0.37003 0.07852 0.46811 0.0
H1762 H 0.34437 0.15642 0.4308 0.0
C1763 C 0.45875 0.18631 0.43315 0.0
C1764 C 0.44809 0.21677 0.43238 0.0
C1765 C 0.43855 0.15974 0.44262 0.0
C1766 C 0.35186 0.13513 0.44198 0.0
H1767 H 0.31279 0.96997 0.43663 0.0
H1768 H 0.35077 0.01788 0.44079 0.0
H1769 H 0.30629 0.10902 0.43115 0.0
H1770 H 0.40926 0.24382 0.44368 0.0
H1771 H 0.37455 0.19788 0.46154 0.0
H1772 H 0.41592 0.10463 0.4783 0.0
C1773 C 0.32606 0.01971 0.44576 0.0
C1774 C 0.32993 0.10779 0.44208 0.0
C1775 C 0.30441 0.9921 0.44375 0.0
C1776 C 0.41818 0.22064 0.44433 0.0
C1777 C 0.39809 0.19418 0.45398 0.0
C1778 C 0.39204 0.10593 0.46802 0.0
C1779 C 0.31575 0.04942 0.45319 0.0
C1780 C 0.33877 0.07898 0.45478 0.0
C1781 C 0.40731 0.16316 0.45159 0.0
C1782 C 0.38335 0.13458 0.45467 0.0
H1783 H 0.23658 0.02476 0.46027 0.0
H1784 H 0.2742 0.0731 0.46389 0.0
H1785 H 0.37754 0.05691 0.4786 0.0
H1786 H 0.48141 0.18253 0.42345 0.0
H1787 H 0.44655 0.13631 0.44036 0.0
C1788 C 0.27375 0.03449 0.76111 0.0
C1789 C 0.26983 1.00565 0.74389 0.0
C1790 C 0.24921 0.05434 0.76158 0.0
C1791 C 0.16188 0.05714 0.73663 0.0
H1792 H 0.18348 0.14665 0.75652 0.0
C1793 C 0.06327 0.14216 0.72821 0.0
C1794 C 0.07207 0.17308 0.71721 0.0
C1795 C 0.08668 0.12268 0.73871 0.0
C1796 C 0.17674 0.12187 0.75036 0.0
H1797 H 0.23743 0.97638 0.71169 0.0
H1798 H 0.19577 0.01203 0.7101 0.0
H1799 H 0.22515 0.11205 0.75579 0.0
H1800 H 0.11195 0.20832 0.70952 0.0
H1801 H 0.15254 0.17468 0.72614 0.0
H1802 H 0.11389 0.06769 0.72797 0.0
C1803 C 0.21693 0.01854 0.72524 0.0
C1804 C 0.20094 0.10151 0.75067 0.0
C1805 C 0.24111 0.99804 0.72579 0.0
C1806 C 0.10448 0.18488 0.71884 0.0
C1807 C 0.1279 0.16522 0.72832 0.0
C1808 C 0.13783 0.07774 0.73518 0.0
C1809 C 0.22027 0.04691 0.74356 0.0
C1810 C 0.19408 0.0687 0.74369 0.0
C1811 C 0.11954 0.13326 0.73722 0.0
C1812 C 0.14479 0.11061 0.74176 0.0
H1813 H 0.29547 0.04145 0.7752 0.0
H1814 H 0.25306 0.07526 0.7767 0.0
H1815 H 0.15494 0.03208 0.73195 0.0
H1816 H 0.03845 0.13227 0.72656 0.0
H1817 H 0.07884 0.09878 0.74641 0.0
C1818 C 0.17731 0.11369 1.00631 0.0
C1819 C 0.18987 0.11169 0.0377 0.0
C1820 C 0.15248 0.09133 0.99459 0.0
C1821 C 0.09199 0.02491 0.02039 0.0
H1822 H 0.09143 1.00115 0.93135 0.0
C1823 C 0.03501 0.90625 0.95855 0.0
C1824 C 0.0208 0.9095 0.92793 0.0
C1825 C 0.04803 0.93334 0.97602 0.0
C1826 C 0.09099 0.00781 0.9562 0.0
H1827 H 0.18629 0.08441 0.08132 0.0
H1828 H 0.14438 0.04477 0.06063 0.0
H1829 H 0.13091 0.04288 0.95236 0.0
H1830 H 1.00551 0.94349 0.8934 0.0
H1831 H 0.0282 0.99059 0.92374 0.0
H1832 H 0.05304 0.98792 0.02408 0.0
C1833 C 0.15267 0.06412 0.04519 0.0
C1834 C 0.11362 0.03196 0.96833 0.0
C1835 C 0.17705 0.08679 0.05705 0.0
C1836 C 0.01624 0.94029 0.91696 0.0
C1837 C 0.02955 0.96724 0.93416 0.0
C1838 C 0.06973 1.00017 0.0083 0.0
C1839 C 0.13995 0.06594 0.01372 0.0
C1840 C 0.11465 0.04091 1.00066 0.0
C1841 C 0.0472 0.96397 0.96295 0.0
C1842 C 0.06902 0.99141 0.97606 0.0
H1843 H 0.18639 0.13277 0.9909 0.0
H1844 H 0.14302 0.09419 0.97049 0.0
H1845 H 0.09136 0.03142 0.04522 0.0
H1846 H 0.03924 0.88287 0.96743 0.0
H1847 H 0.06144 0.93015 0.99821 0.0
C1848 C 0.70047 0.41278 0.73754 0.0
C1849 C 0.69653 0.42919 0.70865 0.0
C1850 C 0.72293 0.39064 0.74118 0.0
C1851 C 0.7706 0.3393 0.6953 0.0
H1852 H 0.82461 0.3399 0.77268 0.0
C1853 C 0.89994 0.29801 0.73129 0.0
C1854 C 0.89756 0.27103 0.71134 0.0
C1855 C 0.87247 0.31191 0.73886 0.0
C1856 C 0.80957 0.33916 0.75104 0.0
H1857 H 0.71358 0.43474 0.66091 0.0
H1858 H 0.75246 0.39604 0.66718 0.0
H1859 H 0.7832 0.37623 0.76754 0.0
H1860 H 0.86458 0.23426 0.68855 0.0
H1861 H 0.81658 0.25724 0.70334 0.0
H1862 H 0.79751 0.3032 0.67821 0.0
C1863 C 0.73788 0.40015 0.68698 0.0
C1864 C 0.7857 0.35996 0.74811 0.0
C1865 C 0.7155 0.42241 0.68336 0.0
C1866 C 0.86713 0.25502 0.70402 0.0
C1867 C 0.83964 0.26873 0.71179 0.0
C1868 C 0.79424 0.31839 0.6983 0.0
C1869 C 0.742 0.38404 0.716 0.0
C1870 C 0.76623 0.36066 0.71997 0.0
C1871 C 0.84209 0.2987 0.72705 0.0
C1872 C 0.81436 0.31822 0.72606 0.0
H1873 H 0.68601 0.41676 0.75741 0.0
H1874 H 0.72507 0.37837 0.76369 0.0
H1875 H 0.75587 0.33887 0.67344 0.0
H1876 H 0.92307 0.31102 0.73708 0.0
H1877 H 0.87544 0.33474 0.75103 0.0
C1878 C 0.77475 0.5633 0.0611 0.0
C1879 C 0.76581 0.53414 0.04526 0.0
C1880 C 0.75281 0.5859 0.06377 0.0
C1881 C 0.66474 0.59502 0.05122 0.0
H1882 H 0.69516 0.68427 0.06294 0.0
C1883 C 0.58219 0.6856 0.09232 0.0
C1884 C 0.59099 0.71839 0.08903 0.0
C1885 C 0.60124 0.66338 0.08083 0.0
C1886 C 0.68592 0.65961 0.05889 0.0
H1887 H 0.72635 0.50616 0.01993 0.0
H1888 H 0.68959 0.5458 0.02201 0.0
H1889 H 0.73306 0.64612 0.05557 0.0
H1890 H 0.6251 0.75375 0.06898 0.0
H1891 H 0.65683 0.71506 0.04605 0.0
H1892 H 0.61755 0.60869 0.05218 0.0
C1893 C 0.71288 0.55113 0.03389 0.0
C1894 C 0.708 0.63735 0.05546 0.0
C1895 C 0.73436 0.52822 0.03228 0.0
C1896 C 0.61747 0.72853 0.07126 0.0
C1897 C 0.63614 0.70623 0.05892 0.0
C1898 C 0.64266 0.61736 0.05359 0.0
C1899 C 0.72151 0.58036 0.04987 0.0
C1900 C 0.69787 0.60453 0.05217 0.0
C1901 C 0.62936 0.67335 0.06509 0.0
C1902 C 0.65282 0.65 0.05826 0.0
H1903 H 0.7986 0.5685 0.07182 0.0
H1904 H 0.7605 0.60753 0.07707 0.0
H1905 H 0.65548 0.57015 0.04932 0.0
H1906 H 0.56242 0.67724 0.10678 0.0
H1907 H 0.59502 0.63861 0.0867 0.0
C1908 C 0.32855 0.95365 0.83206 0.0
C1909 C 0.33465 0.98694 0.83081 0.0
C1910 C 0.29716 0.93886 0.83053 0.0
C1911 C 0.21271 0.95596 0.83916 0.0
H1912 H 0.19331 0.8733 0.79809 0.0
C1913 C 0.08404 0.8995 0.82435 0.0
C1914 C 0.07914 0.8708 0.84135 0.0
C1915 C 0.11472 0.91155 0.81619 0.0
C1916 C 0.19844 0.89643 0.80949 0.0
H1917 H 0.31283 0.03108 0.82992 0.0
H1918 H 0.25816 1.0057 0.82586 0.0
H1919 H 0.24788 0.8998 0.79903 0.0
H1920 H 0.10207 0.8305 0.85979 0.0
H1921 H 0.1556 0.85112 0.8445 0.0
H1922 H 0.16315 0.95281 0.84895 0.0
C1923 C 0.27737 0.99061 0.828 0.0
C1924 C 0.22976 0.91155 0.81037 0.0
C1925 C 0.30876 1.00528 0.83002 0.0
C1926 C 0.10497 0.85253 0.84649 0.0
C1927 C 0.13569 0.86445 0.83795 0.0
C1928 C 0.18142 0.94118 0.83768 0.0
C1929 C 0.27104 0.95711 0.82784 0.0
C1930 C 0.23745 0.9414 0.82561 0.0
C1931 C 0.14105 0.89488 0.82434 0.0
C1932 C 0.17398 0.91116 0.82312 0.0
H1933 H 0.34789 0.939 0.83489 0.0
H1934 H 0.29348 0.91311 0.83186 0.0
H1935 H 0.2175 0.97846 0.85176 0.0
H1936 H 0.06455 0.91397 0.81981 0.0
H1937 H 0.11815 0.93486 0.80527 0.0
C1938 C 0.22346 0.12753 0.25558 0.0
C1939 C 0.22433 0.09566 0.24605 0.0
C1940 C 0.25126 0.14892 0.25714 0.0
C1941 C 0.33905 0.14985 0.26628 0.0
H1942 H 0.33739 0.24066 0.25281 0.0
C1943 C 0.44855 0.2347 0.30465 0.0
C1944 C 0.44105 0.2583 0.32577 0.0
C1945 C 0.42471 0.21883 0.28425 0.0
C1946 C 0.33833 0.21536 0.25657 0.0
H1947 H 0.25512 0.06175 0.22937 0.0
H1948 H 0.30355 0.0992 0.23155 0.0
H1949 H 0.29017 0.20393 0.2381 0.0
H1950 H 0.40385 0.2864 0.33945 0.0
H1951 H 0.3625 0.25943 0.3036 0.0
H1952 H 0.38672 0.1612 0.28565 0.0
C1953 C 0.28143 0.10751 0.23849 0.0
C1954 C 0.31117 0.19426 0.24826 0.0
C1955 C 0.2536 0.08603 0.2371 0.0
C1956 C 0.4104 0.26862 0.32307 0.0
C1957 C 0.38659 0.25287 0.30265 0.0
C1958 C 0.36618 0.17088 0.27446 0.0
C1959 C 0.28077 0.13915 0.24905 0.0
C1960 C 0.31086 0.16127 0.25381 0.0
C1961 C 0.39295 0.22639 0.28452 0.0
C1962 C 0.36597 0.20402 0.27049 0.0
H1963 H 0.20139 0.13585 0.26266 0.0
H1964 H 0.24974 0.17286 0.26583 0.0
H1965 H 0.33974 0.12475 0.27135 0.0
H1966 H 0.47183 0.22594 0.30652 0.0
H1967 H 0.43063 0.19903 0.27008 0.0
loop_
_geom_bond_atom_site_label_1
_geom_bond_atom_site_label_2
_geom_bond_distance
_geom_bond_site_symmetry_2
_ccdc_geom_bond_type
Cu0 N1 1.999 1_455 S
Cu0 O6 1.974 . S
Cu0 N11 1.985 . S
Cu0 O20 1.959 1_455 S
N1 Cu0 1.999 1_655 S
N1 C3 1.263 . S
N1 C5 1.389 . S
N2 C3 1.358 . S
N2 C4 1.400 . S
C3 N1 1.263 . S
C3 N2 1.358 . S
C3 H9 0.930 1_655 S
C4 N2 1.400 . S
C4 C5 1.351 . S
C4 H21 0.930 . S
C5 N1 1.389 . S
C5 C4 1.351 . S
C5 H10 0.930 . S
O6 Cu0 1.974 . S
O6 C16 1.282 . S
C7 O8 1.261 1_655 S
C7 O20 1.251 . S
O8 C7 1.261 1_455 S
H9 C3 0.930 1_455 S
H10 C5 0.930 . S
N11 Cu0 1.985 . S
N11 C13 1.335 . S
N11 C14 1.390 . S
N12 C13 1.345 . S
N12 C15 1.336 . S
C13 N11 1.335 . S
C13 N12 1.345 . S
C13 H18 0.930 . S
C14 N11 1.390 . S
C14 C15 1.346 . S
C14 H19 0.930 . S
C15 N12 1.336 . S
C15 C14 1.346 . S
C15 H22 0.929 . S
C16 O6 1.282 . S
C16 O17 1.216 . S
O17 C16 1.216 . S
H18 C13 0.930 . S
H19 C14 0.930 . S
O20 Cu0 1.959 1_655 S
O20 C7 1.251 . S
H21 C4 0.930 . S
H22 C15 0.929 . S
Cu23 N24 2.002 . S
Cu23 O29 1.974 . S
Cu23 N34 1.985 . S
Cu23 O43 1.959 . S
N24 Cu23 2.002 . S
N24 C26 1.261 1_455 S
N24 C28 1.388 1_455 S
N25 C26 1.358 . S
N25 C27 1.400 . S
C26 N24 1.261 1_655 S
C26 N25 1.358 . S
C26 H32 0.930 . S
C27 N25 1.400 . S
C27 C28 1.351 . S
C27 H44 0.930 . S
C28 N24 1.388 1_655 S
C28 C27 1.351 . S
C28 H33 0.930 . S
O29 Cu23 1.974 . S
O29 C39 1.282 . S
C30 O31 1.261 . S
C30 O43 1.251 1_655 S
O31 C30 1.261 . S
H32 C26 0.930 . S
H33 C28 0.930 . S
N34 Cu23 1.985 . S
N34 C36 1.335 . S
N34 C37 1.390 . S
N35 C36 1.345 . S
N35 C38 1.336 . S
C36 N34 1.335 . S
C36 N35 1.345 . S
C36 H41 0.930 . S
C37 N34 1.390 . S
C37 C38 1.346 . S
C37 H42 0.930 . S
C38 N35 1.336 . S
C38 C37 1.346 . S
C38 H45 0.929 . S
C39 O29 1.282 . S
C39 O40 1.216 . S
O40 C39 1.216 . S
H41 C36 0.930 . S
H42 C37 0.930 . S
O43 Cu23 1.959 . S
O43 C30 1.251 1_455 S
H44 C27 0.930 . S
H45 C38 0.929 . S
Cu46 N47 1.999 . S
Cu46 O52 1.974 . S
Cu46 N57 1.985 . S
Cu46 O66 1.959 . S
N47 Cu46 1.999 . S
N47 C49 1.263 . S
N47 C51 1.389 . S
N48 C49 1.358 . S
N48 C50 1.400 . S
C49 N47 1.263 . S
C49 N48 1.358 . S
C49 H55 0.930 . S
C50 N48 1.400 . S
C50 C51 1.351 . S
C50 H67 0.930 . S
C51 N47 1.389 . S
C51 C50 1.351 . S
C51 H56 0.930 . S
O52 Cu46 1.974 . S
O52 C62 1.282 . S
C53 O54 1.261 . S
C53 O66 1.251 . S
O54 C53 1.261 . S
H55 C49 0.930 . S
H56 C51 0.930 . S
N57 Cu46 1.985 . S
N57 C59 1.335 . S
N57 C60 1.390 . S
N58 C59 1.345 . S
N58 C61 1.336 . S
C59 N57 1.335 . S
C59 N58 1.345 . S
C59 H64 0.930 . S
C60 N57 1.390 . S
C60 C61 1.346 . S
C60 H65 0.930 . S
C61 N58 1.336 . S
C61 C60 1.346 . S
C61 H68 0.929 . S
C62 O52 1.282 . S
C62 O63 1.216 . S
O63 C62 1.216 . S
H64 C59 0.930 . S
H65 C60 0.930 . S
O66 Cu46 1.959 . S
O66 C53 1.251 . S
H67 C50 0.930 . S
H68 C61 0.929 . S
Cu69 N70 1.999 . S
Cu69 O75 1.974 . S
Cu69 N80 1.985 . S
Cu69 O89 1.959 . S
N70 Cu69 1.999 . S
N70 C72 1.263 . S
N70 C74 1.389 . S
N71 C72 1.358 . S
N71 C73 1.400 . S
C72 N70 1.263 . S
C72 N71 1.358 . S
C72 H78 0.930 . S
C73 N71 1.400 . S
C73 C74 1.351 . S
C73 H90 0.930 . S
C74 N70 1.389 . S
C74 C73 1.351 . S
C74 H79 0.930 . S
O75 Cu69 1.974 . S
O75 C85 1.282 . S
C76 O77 1.261 . S
C76 O89 1.251 . S
O77 C76 1.261 . S
H78 C72 0.930 . S
H79 C74 0.930 . S
N80 Cu69 1.985 . S
N80 C82 1.335 . S
N80 C83 1.390 . S
N81 C82 1.345 . S
N81 C84 1.336 . S
C82 N80 1.335 . S
C82 N81 1.345 . S
C82 H87 0.930 . S
C83 N80 1.390 . S
C83 C84 1.346 . S
C83 H88 0.930 . S
C84 N81 1.336 . S
C84 C83 1.346 . S
C84 H91 0.929 . S
C85 O75 1.282 . S
C85 O86 1.216 . S
O86 C85 1.216 . S
H87 C82 0.930 . S
H88 C83 0.930 . S
O89 Cu69 1.959 . S
O89 C76 1.251 . S
H90 C73 0.930 . S
H91 C84 0.929 . S
Cu92 N93 1.999 1_565 S
Cu92 O98 1.974 . S
Cu92 N103 1.985 . S
Cu92 O112 1.959 1_565 S
N93 Cu92 1.999 1_545 S
N93 C95 1.263 . S
N93 C97 1.389 . S
N94 C95 1.358 . S
N94 C96 1.400 . S
C95 N93 1.263 . S
C95 N94 1.358 . S
C95 H101 0.930 . S
C96 N94 1.400 . S
C96 C97 1.351 . S
C96 H113 0.930 . S
C97 N93 1.389 . S
C97 C96 1.351 . S
C97 H102 0.930 . S
O98 Cu92 1.974 . S
O98 C108 1.282 . S
C99 O100 1.261 . S
C99 O112 1.251 . S
O100 C99 1.261 . S
H101 C95 0.930 . S
H102 C97 0.930 . S
N103 Cu92 1.985 . S
N103 C105 1.335 . S
N103 C106 1.390 . S
N104 C105 1.345 . S
N104 C107 1.336 . S
C105 N103 1.335 . S
C105 N104 1.345 . S
C105 H110 0.930 . S
C106 N103 1.390 . S
C106 C107 1.346 . S
C106 H111 0.930 . S
C107 N104 1.336 . S
C107 C106 1.346 . S
C107 H114 0.929 . S
C108 O98 1.282 . S
C108 O109 1.219 . S
O109 C108 1.219 . S
H110 C105 0.930 . S
H111 C106 0.930 . S
O112 Cu92 1.959 1_545 S
O112 C99 1.251 . S
H113 C96 0.930 . S
H114 C107 0.929 . S
Cu115 N116 1.999 . S
Cu115 O121 1.974 . S
Cu115 N126 1.985 . S
Cu115 O135 1.959 . S
N116 Cu115 1.999 . S
N116 C118 1.263 . S
N116 C120 1.389 . S
N117 C118 1.358 . S
N117 C119 1.400 . S
C118 N116 1.263 . S
C118 N117 1.358 . S
C118 H124 0.930 . S
C119 N117 1.400 . S
C119 C120 1.351 . S
C119 H136 0.930 . S
C120 N116 1.389 . S
C120 C119 1.351 . S
C120 H125 0.930 . S
O121 Cu115 1.974 . S
O121 C131 1.282 . S
C122 O123 1.261 . S
C122 O135 1.251 . S
O123 C122 1.261 . S
H124 C118 0.930 . S
H125 C120 0.930 . S
N126 Cu115 1.985 . S
N126 C128 1.335 . S
N126 C129 1.390 . S
N127 C128 1.345 . S
N127 C130 1.336 . S
C128 N126 1.335 . S
C128 N127 1.345 . S
C128 H133 0.930 . S
C129 N126 1.390 . S
C129 C130 1.346 . S
C129 H134 0.930 . S
C130 N127 1.336 . S
C130 C129 1.346 . S
C130 H137 0.929 . S
C131 O121 1.282 . S
C131 O132 1.216 . S
O132 C131 1.216 . S
H133 C128 0.930 . S
H134 C129 0.930 . S
O135 Cu115 1.959 . S
O135 C122 1.251 . S
H136 C119 0.930 . S
H137 C130 0.929 . S
Cu138 N139 1.999 . S
Cu138 O144 1.974 . S
Cu138 N149 1.985 . S
Cu138 O158 1.959 . S
N139 Cu138 1.999 . S
N139 C141 1.263 1_545 S
N139 C143 1.389 1_545 S
N140 C141 1.358 . S
N140 C142 1.400 . S
C141 N139 1.263 1_565 S
C141 N140 1.358 . S
C141 H147 0.930 . S
C142 N140 1.400 . S
C142 C143 1.351 . S
C142 H159 0.930 . S
C143 N139 1.389 1_565 S
C143 C142 1.351 . S
C143 H148 0.926 1_565 S
O144 Cu138 1.974 . S
O144 C154 1.282 . S
C145 O146 1.261 . S
C145 O158 1.251 1_565 S
O146 C145 1.261 . S
H147 C141 0.930 . S
H148 C143 0.926 1_545 S
N149 Cu138 1.985 . S
N149 C151 1.335 . S
N149 C152 1.390 . S
N150 C151 1.345 . S
N150 C153 1.336 . S
C151 N149 1.335 . S
C151 N150 1.345 . S
C151 H156 0.930 . S
C152 N149 1.390 . S
C152 C153 1.346 . S
C152 H157 0.930 . S
C153 N150 1.336 . S
C153 C152 1.346 . S
C153 H160 0.929 . S
C154 O144 1.282 . S
C154 O155 1.216 . S
O155 C154 1.216 . S
H156 C151 0.930 . S
H157 C152 0.930 . S
O158 Cu138 1.959 . S
O158 C145 1.251 1_545 S
H159 C142 0.930 . S
H160 C153 0.929 . S
Cu161 N162 1.999 . S
Cu161 O167 1.974 1_556 S
Cu161 N172 1.985 1_556 S
Cu161 O181 1.959 . S
N162 Cu161 1.999 . S
N162 C164 1.263 . S
N162 C166 1.389 . S
N163 C164 1.358 . S
N163 C165 1.400 . S
C164 N162 1.263 . S
C164 N163 1.358 . S
C164 H170 0.930 . S
C165 N163 1.400 . S
C165 C166 1.351 . S
C165 H182 0.930 . S
C166 N162 1.389 . S
C166 C165 1.351 . S
C166 H171 0.930 . S
O167 Cu161 1.974 1_554 S
O167 C177 1.282 . S
C168 O169 1.261 1_556 S
C168 O181 1.251 . S
O169 C168 1.261 1_554 S
H170 C164 0.930 . S
H171 C166 0.930 . S
N172 Cu161 1.985 1_554 S
N172 C174 1.335 . S
N172 C175 1.390 . S
N173 C174 1.345 . S
N173 C176 1.336 . S
C174 N172 1.335 . S
C174 N173 1.345 . S
C174 H179 0.930 1_554 S
C175 N172 1.390 . S
C175 C176 1.346 . S
C175 H180 0.930 . S
C176 N173 1.336 . S
C176 C175 1.346 . S
C176 H183 0.929 . S
C177 O167 1.282 . S
C177 O178 1.216 . S
O178 C177 1.216 . S
H179 C174 0.930 1_556 S
H180 C175 0.930 . S
O181 Cu161 1.959 . S
O181 C168 1.251 . S
H182 C165 0.930 . S
H183 C176 0.929 . S
Cu184 N185 1.999 . S
Cu184 O190 1.974 1_556 S
Cu184 N195 1.985 1_556 S
Cu184 O204 1.959 . S
N185 Cu184 1.999 . S
N185 C187 1.263 . S
N185 C189 1.389 . S
N186 C187 1.358 . S
N186 C188 1.400 . S
C187 N185 1.263 . S
C187 N186 1.358 . S
C187 H193 0.930 . S
C188 N186 1.400 . S
C188 C189 1.351 . S
C188 H205 0.930 . S
C189 N185 1.389 . S
C189 C188 1.351 . S
C189 H194 0.930 . S
O190 Cu184 1.974 1_554 S
O190 C200 1.282 . S
C191 O192 1.261 1_556 S
C191 O204 1.251 . S
O192 C191 1.261 1_554 S
H193 C187 0.930 . S
H194 C189 0.930 . S
N195 Cu184 1.985 1_554 S
N195 C197 1.335 . S
N195 C198 1.390 . S
N196 C197 1.345 . S
N196 C199 1.336 . S
C197 N195 1.335 . S
C197 N196 1.345 . S
C197 H202 0.930 1_554 S
C198 N195 1.390 . S
C198 C199 1.346 . S
C198 H203 0.930 . S
C199 N196 1.336 . S
C199 C198 1.346 . S
C199 H206 0.929 . S
C200 O190 1.282 . S
C200 O201 1.216 . S
O201 C200 1.216 . S
H202 C197 0.930 1_556 S
H203 C198 0.930 . S
O204 Cu184 1.959 . S
O204 C191 1.251 . S
H205 C188 0.930 . S
H206 C199 0.929 . S
Cu207 N208 1.999 . S
Cu207 O213 1.974 . S
Cu207 N218 1.985 . S
Cu207 O227 1.959 . S
N208 Cu207 1.999 . S
N208 C210 1.263 . S
N208 C212 1.389 . S
N209 C210 1.358 . S
N209 C211 1.400 . S
C210 N208 1.263 . S
C210 N209 1.358 . S
C210 H216 0.930 . S
C211 N209 1.400 . S
C211 C212 1.351 . S
C211 H228 0.930 . S
C212 N208 1.389 . S
C212 C211 1.351 . S
C212 H217 0.930 . S
O213 Cu207 1.974 . S
O213 C223 1.282 . S
C214 O215 1.261 . S
C214 O227 1.251 . S
O215 C214 1.261 . S
H216 C210 0.930 . S
H217 C212 0.930 . S
N218 Cu207 1.985 . S
N218 C220 1.335 . S
N218 C221 1.390 . S
N219 C220 1.345 . S
N219 C222 1.336 . S
C220 N218 1.335 . S
C220 N219 1.345 . S
C220 H225 0.930 . S
C221 N218 1.390 . S
C221 C222 1.346 . S
C221 H226 0.930 . S
C222 N219 1.336 . S
C222 C221 1.346 . S
C222 H229 0.929 . S
C223 O213 1.282 . S
C223 O224 1.216 . S
O224 C223 1.216 . S
H225 C220 0.930 . S
H226 C221 0.930 . S
O227 Cu207 1.959 . S
O227 C214 1.251 . S
H228 C211 0.930 . S
H229 C222 0.929 . S
Cu230 N231 1.999 . S
Cu230 O236 1.974 . S
Cu230 N241 1.985 . S
Cu230 O250 1.959 . S
N231 Cu230 1.999 . S
N231 C233 1.263 . S
N231 C235 1.389 . S
N232 C233 1.358 . S
N232 C234 1.400 . S
C233 N231 1.263 . S
C233 N232 1.358 . S
C233 H239 0.930 . S
C234 N232 1.400 . S
C234 C235 1.351 . S
C234 H251 0.930 . S
C235 N231 1.389 . S
C235 C234 1.351 . S
C235 H240 0.930 . S
O236 Cu230 1.974 . S
O236 C246 1.282 . S
C237 O238 1.261 . S
C237 O250 1.251 . S
O238 C237 1.261 . S
H239 C233 0.930 . S
H240 C235 0.930 . S
N241 Cu230 1.985 . S
N241 C243 1.335 . S
N241 C244 1.390 . S
N242 C243 1.345 . S
N242 C245 1.336 . S
C243 N241 1.335 . S
C243 N242 1.345 . S
C243 H248 0.930 . S
C244 N241 1.390 . S
C244 C245 1.346 . S
C244 H249 0.930 . S
C245 N242 1.336 . S
C245 C244 1.346 . S
C245 H252 0.929 . S
C246 O236 1.282 . S
C246 O247 1.216 . S
O247 C246 1.216 . S
H248 C243 0.930 . S
H249 C244 0.930 . S
O250 Cu230 1.959 . S
O250 C237 1.251 . S
H251 C234 0.930 . S
H252 C245 0.929 . S
Cu253 N254 1.999 . S
Cu253 O259 1.974 . S
Cu253 N264 1.985 . S
Cu253 O273 1.959 . S
N254 Cu253 1.999 . S
N254 C256 1.263 . S
N254 C258 1.389 . S
N255 C256 1.358 . S
N255 C257 1.400 . S
C256 N254 1.263 . S
C256 N255 1.358 . S
C256 H262 0.930 . S
C257 N255 1.400 . S
C257 C258 1.351 . S
C257 H274 0.930 . S
C258 N254 1.389 . S
C258 C257 1.351 . S
C258 H263 0.930 . S
O259 Cu253 1.974 . S
O259 C269 1.282 . S
C260 O261 1.261 . S
C260 O273 1.251 . S
O261 C260 1.261 . S
H262 C256 0.930 . S
H263 C258 0.930 . S
N264 Cu253 1.985 . S
N264 C266 1.335 . S
N264 C267 1.390 . S
N265 C266 1.345 . S
N265 C268 1.336 . S
C266 N264 1.335 . S
C266 N265 1.345 . S
C266 H271 0.930 . S
C267 N264 1.390 . S
C267 C268 1.346 . S
C267 H272 0.930 . S
C268 N265 1.336 . S
C268 C267 1.346 . S
C268 H275 0.929 . S
C269 O259 1.282 . S
C269 O270 1.216 . S
O270 C269 1.216 . S
H271 C266 0.930 . S
H272 C267 0.930 . S
O273 Cu253 1.959 . S
O273 C260 1.251 . S
H274 C257 0.930 . S
H275 C268 0.929 . S
H276 C284 0.930 . S
H277 C287 0.930 . S
H278 C289 0.930 . S
H279 C290 0.970 . S
H280 C290 0.970 . S
H281 C292 0.930 . S
H282 C294 0.930 . S
H283 C296 0.930 . S
C284 H276 0.930 . S
C284 C285 1.382 . S
C284 C286 1.426 . S
C285 C284 1.382 . S
C285 C289 1.389 . S
C286 C284 1.426 . S
C286 C287 1.375 . S
C286 C290 1.532 . S
C287 H277 0.930 . S
C287 C286 1.375 . S
C287 C288 1.416 . S
C288 C287 1.416 . S
C288 C289 1.371 . S
C289 H278 0.930 . S
C289 C285 1.389 . S
C289 C288 1.371 . S
C290 H279 0.970 . S
C290 H280 0.970 . S
C290 C286 1.532 . S
C290 C291 1.499 . S
C291 C290 1.499 . S
C291 C292 1.370 . S
C291 C296 1.415 . S
C292 H281 0.930 . S
C292 C291 1.370 . S
C292 C293 1.407 1_455 S
C293 C292 1.407 1_655 S
C293 C294 1.365 . S
C294 H282 0.930 . S
C294 C293 1.365 . S
C294 C295 1.393 . S
C295 C294 1.393 . S
C295 C296 1.387 1_655 S
C296 H283 0.930 . S
C296 C291 1.415 . S
C296 C295 1.387 1_455 S
H297 C305 0.930 . S
H298 C308 0.930 . S
H299 C310 0.930 . S
H300 C311 0.970 . S
H301 C311 0.970 . S
H302 C313 0.930 . S
H303 C315 0.930 . S
H304 C317 0.930 . S
C305 H297 0.930 . S
C305 C306 1.382 . S
C305 C307 1.426 . S
C306 C305 1.382 . S
C306 C310 1.389 . S
C307 C305 1.426 . S
C307 C308 1.375 . S
C307 C311 1.532 . S
C308 H298 0.930 . S
C308 C307 1.375 . S
C308 C309 1.416 . S
C309 C308 1.416 . S
C309 C310 1.371 . S
C310 H299 0.930 . S
C310 C306 1.389 . S
C310 C309 1.371 . S
C311 H300 0.970 . S
C311 H301 0.970 . S
C311 C307 1.532 . S
C311 C312 1.499 . S
C312 C311 1.499 . S
C312 C313 1.370 1_455 S
C312 C317 1.415 1_455 S
C313 H302 0.930 . S
C313 C312 1.370 1_655 S
C313 C314 1.407 . S
C314 C313 1.407 . S
C314 C315 1.365 . S
C315 H303 0.930 . S
C315 C314 1.365 . S
C315 C316 1.393 . S
C316 C315 1.393 . S
C316 C317 1.387 . S
C317 H304 0.930 . S
C317 C312 1.415 1_655 S
C317 C316 1.387 . S
H318 C326 0.930 . S
H319 C329 0.930 . S
H320 C331 0.930 . S
H321 C332 0.970 . S
H322 C332 0.970 . S
H323 C334 0.930 . S
H324 C336 0.930 . S
H325 C338 0.930 . S
C326 H318 0.930 . S
C326 C327 1.382 . S
C326 C328 1.426 . S
C327 C326 1.382 . S
C327 C331 1.389 . S
C328 C326 1.426 . S
C328 C329 1.375 . S
C328 C332 1.532 . S
C329 H319 0.930 . S
C329 C328 1.375 . S
C329 C330 1.416 . S
C330 C329 1.416 . S
C330 C331 1.371 . S
C331 H320 0.930 . S
C331 C327 1.389 . S
C331 C330 1.371 . S
C332 H321 0.970 . S
C332 H322 0.970 . S
C332 C328 1.532 . S
C332 C333 1.499 . S
C333 C332 1.499 . S
C333 C334 1.370 . S
C333 C338 1.415 . S
C334 H323 0.930 . S
C334 C333 1.370 . S
C334 C335 1.407 . S
C335 C334 1.407 . S
C335 C336 1.365 . S
C336 H324 0.930 . S
C336 C335 1.365 . S
C336 C337 1.393 . S
C337 C336 1.393 . S
C337 C338 1.387 . S
C338 H325 0.930 . S
C338 C333 1.415 . S
C338 C337 1.387 . S
H339 C347 0.930 . S
H340 C350 0.930 . S
H341 C352 0.930 . S
H342 C353 0.970 . S
H343 C353 0.970 . S
H344 C355 0.930 . S
H345 C357 0.930 . S
H346 C359 0.930 . S
C347 H339 0.930 . S
C347 C348 1.382 . S
C347 C349 1.426 . S
C348 C347 1.382 . S
C348 C352 1.389 . S
C349 C347 1.426 . S
C349 C350 1.375 . S
C349 C353 1.532 . S
C350 H340 0.930 . S
C350 C349 1.375 . S
C350 C351 1.416 . S
C351 C350 1.416 . S
C351 C352 1.371 . S
C352 H341 0.930 . S
C352 C348 1.389 . S
C352 C351 1.371 . S
C353 H342 0.970 . S
C353 H343 0.970 . S
C353 C349 1.532 . S
C353 C354 1.499 . S
C354 C353 1.499 . S
C354 C355 1.370 . S
C354 C359 1.415 . S
C355 H344 0.930 . S
C355 C354 1.370 . S
C355 C356 1.407 . S
C356 C355 1.407 . S
C356 C357 1.365 . S
C357 H345 0.930 . S
C357 C356 1.365 . S
C357 C358 1.393 . S
C358 C357 1.393 . S
C358 C359 1.387 . S
C359 H346 0.930 . S
C359 C354 1.415 . S
C359 C358 1.387 . S
H360 C368 0.930 . S
H361 C371 0.930 . S
H362 C373 0.930 . S
H363 C374 0.968 1_565 S
H364 C374 0.970 . S
H365 C376 0.930 . S
H366 C378 0.930 . S
H367 C380 0.929 . S
C368 H360 0.930 . S
C368 C369 1.382 . S
C368 C370 1.426 . S
C369 C368 1.382 . S
C369 C373 1.389 . S
C370 C368 1.426 . S
C370 C371 1.375 . S
C370 C374 1.532 . S
C371 H361 0.930 . S
C371 C370 1.375 . S
C371 C372 1.416 . S
C372 C371 1.416 . S
C372 C373 1.371 . S
C373 H362 0.930 . S
C373 C369 1.389 . S
C373 C372 1.371 . S
C374 H363 0.968 1_545 S
C374 H364 0.970 . S
C374 C370 1.532 . S
C374 C375 1.499 . S
C375 C374 1.499 . S
C375 C376 1.370 . S
C375 C380 1.423 . S
C376 H365 0.930 . S
C376 C375 1.370 . S
C376 C377 1.407 1_545 S
C377 C376 1.407 1_565 S
C377 C378 1.365 . S
C378 H366 0.930 . S
C378 C377 1.365 . S
C378 C379 1.393 . S
C379 C378 1.393 . S
C379 C380 1.383 1_565 S
C380 H367 0.929 . S
C380 C375 1.423 . S
C380 C379 1.383 1_545 S
H381 C389 0.930 . S
H382 C392 0.930 . S
H383 C394 0.930 . S
H384 C395 0.970 . S
H385 C395 0.970 . S
H386 C397 0.930 . S
H387 C399 0.930 . S
H388 C401 0.930 . S
C389 H381 0.930 . S
C389 C390 1.382 . S
C389 C391 1.426 . S
C390 C389 1.382 . S
C390 C394 1.389 . S
C391 C389 1.426 . S
C391 C392 1.375 . S
C391 C395 1.532 . S
C392 H382 0.930 . S
C392 C391 1.375 . S
C392 C393 1.416 . S
C393 C392 1.416 . S
C393 C394 1.371 . S
C394 H383 0.930 . S
C394 C390 1.389 . S
C394 C393 1.371 . S
C395 H384 0.970 . S
C395 H385 0.970 . S
C395 C391 1.532 . S
C395 C396 1.499 . S
C396 C395 1.499 . S
C396 C397 1.370 . S
C396 C401 1.415 . S
C397 H386 0.930 . S
C397 C396 1.370 . S
C397 C398 1.407 . S
C398 C397 1.407 . S
C398 C399 1.365 . S
C399 H387 0.930 . S
C399 C398 1.365 . S
C399 C400 1.393 . S
C400 C399 1.393 . S
C400 C401 1.387 . S
C401 H388 0.930 . S
C401 C396 1.415 . S
C401 C400 1.387 . S
H402 C410 0.930 . S
H403 C413 0.930 . S
H404 C415 0.930 . S
H405 C416 0.970 . S
H406 C416 0.970 . S
H407 C418 0.930 . S
H408 C420 0.930 . S
H409 C422 0.930 . S
C410 H402 0.930 . S
C410 C411 1.382 1_545 S
C410 C412 1.426 . S
C411 C410 1.382 1_565 S
C411 C415 1.389 . S
C412 C410 1.426 . S
C412 C413 1.375 . S
C412 C416 1.532 . S
C413 H403 0.930 . S
C413 C412 1.375 . S
C413 C414 1.416 1_545 S
C414 C413 1.416 1_565 S
C414 C415 1.371 . S
C415 H404 0.930 . S
C415 C411 1.389 . S
C415 C414 1.371 . S
C416 H405 0.970 . S
C416 H406 0.970 . S
C416 C412 1.532 . S
C416 C417 1.499 . S
C417 C416 1.499 . S
C417 C418 1.370 . S
C417 C422 1.415 . S
C418 H407 0.930 . S
C418 C417 1.370 . S
C418 C419 1.407 . S
C419 C418 1.407 . S
C419 C420 1.365 . S
C420 H408 0.930 . S
C420 C419 1.365 . S
C420 C421 1.393 . S
C421 C420 1.393 . S
C421 C422 1.387 . S
C422 H409 0.930 . S
C422 C417 1.415 . S
C422 C421 1.387 . S
H423 C431 0.930 . S
H424 C434 0.930 . S
H425 C436 0.930 . S
H426 C437 0.970 . S
H427 C437 0.970 . S
H428 C439 0.930 1_554 S
H429 C441 0.930 . S
H430 C443 0.947 . S
C431 H423 0.930 . S
C431 C432 1.382 . S
C431 C433 1.426 . S
C432 C431 1.382 . S
C432 C436 1.389 . S
C433 C431 1.426 . S
C433 C434 1.375 . S
C433 C437 1.532 . S
C434 H424 0.930 . S
C434 C433 1.375 . S
C434 C435 1.416 . S
C435 C434 1.416 . S
C435 C436 1.371 . S
C436 H425 0.930 . S
C436 C432 1.389 . S
C436 C435 1.371 . S
C437 H426 0.970 . S
C437 H427 0.970 . S
C437 C433 1.532 . S
C437 C438 1.499 . S
C438 C437 1.499 . S
C438 C439 1.370 1_554 S
C438 C443 1.428 . S
C439 H428 0.930 1_556 S
C439 C438 1.370 1_556 S
C439 C440 1.407 . S
C440 C439 1.407 . S
C440 C441 1.365 . S
C441 H429 0.930 . S
C441 C440 1.365 . S
C441 C442 1.393 . S
C442 C441 1.393 . S
C442 C443 1.358 1_556 S
C443 H430 0.947 . S
C443 C438 1.428 . S
C443 C442 1.358 1_554 S
H444 C452 0.930 . S
H445 C455 0.930 . S
H446 C457 0.930 . S
H447 C458 0.970 . S
H448 C458 0.970 . S
H449 C460 0.930 1_554 S
H450 C462 0.930 . S
H451 C464 0.930 1_554 S
C452 H444 0.930 . S
C452 C453 1.382 . S
C452 C454 1.426 . S
C453 C452 1.382 . S
C453 C457 1.389 . S
C454 C452 1.426 . S
C454 C455 1.375 . S
C454 C458 1.532 . S
C455 H445 0.930 . S
C455 C454 1.375 . S
C455 C456 1.416 . S
C456 C455 1.416 . S
C456 C457 1.371 . S
C457 H446 0.930 . S
C457 C453 1.389 . S
C457 C456 1.371 . S
C458 H447 0.970 . S
C458 H448 0.970 . S
C458 C454 1.532 . S
C458 C459 1.499 . S
C459 C458 1.499 . S
C459 C460 1.370 1_554 S
C459 C464 1.415 1_554 S
C460 H449 0.930 1_556 S
C460 C459 1.370 1_556 S
C460 C461 1.407 . S
C461 C460 1.407 . S
C461 C462 1.365 . S
C462 H450 0.930 . S
C462 C461 1.365 . S
C462 C463 1.393 . S
C463 C462 1.393 . S
C463 C464 1.387 . S
C464 H451 0.930 1_556 S
C464 C459 1.415 1_556 S
C464 C463 1.387 . S
H465 C473 0.930 . S
H466 C476 0.930 . S
H467 C478 0.930 . S
H468 C479 0.970 . S
H469 C479 0.970 . S
H470 C481 0.930 . S
H471 C483 0.930 . S
H472 C485 0.930 . S
C473 H465 0.930 . S
C473 C474 1.382 . S
C473 C475 1.426 . S
C474 C473 1.382 . S
C474 C478 1.389 . S
C475 C473 1.426 . S
C475 C476 1.375 . S
C475 C479 1.532 . S
C476 H466 0.930 . S
C476 C475 1.375 . S
C476 C477 1.416 . S
C477 C476 1.416 . S
C477 C478 1.371 . S
C478 H467 0.930 . S
C478 C474 1.389 . S
C478 C477 1.371 . S
C479 H468 0.970 . S
C479 H469 0.970 . S
C479 C475 1.532 . S
C479 C480 1.499 . S
C480 C479 1.499 . S
C480 C481 1.370 . S
C480 C485 1.415 . S
C481 H470 0.930 . S
C481 C480 1.370 . S
C481 C482 1.407 . S
C482 C481 1.407 . S
C482 C483 1.365 . S
C483 H471 0.930 . S
C483 C482 1.365 . S
C483 C484 1.393 . S
C484 C483 1.393 . S
C484 C485 1.387 . S
C485 H472 0.930 . S
C485 C480 1.415 . S
C485 C484 1.387 . S
H486 C494 0.930 . S
H487 C497 0.930 . S
H488 C499 0.930 . S
H489 C500 0.970 . S
H490 C500 0.970 . S
H491 C502 0.930 . S
H492 C504 0.930 . S
H493 C506 0.930 . S
C494 H486 0.930 . S
C494 C495 1.382 . S
C494 C496 1.426 . S
C495 C494 1.382 . S
C495 C499 1.389 . S
C496 C494 1.426 . S
C496 C497 1.375 . S
C496 C500 1.532 . S
C497 H487 0.930 . S
C497 C496 1.375 . S
C497 C498 1.416 . S
C498 C497 1.416 . S
C498 C499 1.371 . S
C499 H488 0.930 . S
C499 C495 1.389 . S
C499 C498 1.371 . S
C500 H489 0.970 . S
C500 H490 0.970 . S
C500 C496 1.532 . S
C500 C501 1.499 . S
C501 C500 1.499 . S
C501 C502 1.370 . S
C501 C506 1.415 . S
C502 H491 0.930 . S
C502 C501 1.370 . S
C502 C503 1.407 . S
C503 C502 1.407 . S
C503 C504 1.365 . S
C504 H492 0.930 . S
C504 C503 1.365 . S
C504 C505 1.393 . S
C505 C504 1.393 . S
C505 C506 1.387 . S
C506 H493 0.930 . S
C506 C501 1.415 . S
C506 C505 1.387 . S
H507 C515 0.930 . S
H508 C518 0.930 . S
H509 C520 0.930 . S
H510 C521 0.970 . S
H511 C521 0.970 . S
H512 C523 0.930 . S
H513 C525 0.930 . S
H514 C527 0.930 . S
C515 H507 0.930 . S
C515 C516 1.382 . S
C515 C517 1.426 . S
C516 C515 1.382 . S
C516 C520 1.389 . S
C517 C515 1.426 . S
C517 C518 1.375 . S
C517 C521 1.532 . S
C518 H508 0.930 . S
C518 C517 1.375 . S
C518 C519 1.416 . S
C519 C518 1.416 . S
C519 C520 1.371 . S
C520 H509 0.930 . S
C520 C516 1.389 . S
C520 C519 1.371 . S
C521 H510 0.970 . S
C521 H511 0.970 . S
C521 C517 1.532 . S
C521 C522 1.499 . S
C522 C521 1.499 . S
C522 C523 1.370 . S
C522 C527 1.415 . S
C523 H512 0.930 . S
C523 C522 1.370 . S
C523 C524 1.407 . S
C524 C523 1.407 . S
C524 C525 1.365 . S
C525 H513 0.930 . S
C525 C524 1.365 . S
C525 C526 1.393 . S
C526 C525 1.393 . S
C526 C527 1.387 . S
C527 H514 0.930 . S
C527 C522 1.415 . S
C527 C526 1.387 . S
C528 C529 1.349 . S
C528 C530 1.327 1_554 S
C528 H553 0.950 . S
C529 C528 1.349 . S
C529 C545 1.349 . S
C530 C528 1.327 1_556 S
C530 C549 1.429 . S
C530 H554 0.950 . S
C531 C548 1.574 . S
C531 C550 1.368 . S
C531 H555 0.949 . S
H532 C536 0.949 . S
C533 C534 1.349 . S
C533 C535 1.327 . S
C533 H556 0.950 . S
C534 C533 1.349 . S
C534 C546 1.349 . S
C535 C533 1.327 . S
C535 C551 1.429 . S
C535 H557 0.950 . S
C536 H532 0.949 . S
C536 C544 1.574 . S
C536 C552 1.368 . S
H537 C545 0.950 . S
H538 C543 0.941 1_556 S
H539 C544 0.949 . S
H540 C546 0.950 . S
H541 C547 0.950 . S
H542 C548 0.949 . S
C543 H538 0.941 1_554 S
C543 C545 1.327 . S
C543 C549 1.429 1_554 S
C544 C536 1.574 . S
C544 H539 0.949 . S
C544 C550 1.368 . S
C545 C529 1.349 . S
C545 H537 0.950 . S
C545 C543 1.327 . S
C546 C534 1.349 . S
C546 H540 0.950 . S
C546 C547 1.327 . S
C547 H541 0.950 . S
C547 C546 1.327 . S
C547 C551 1.429 . S
C548 C531 1.574 . S
C548 H542 0.949 . S
C548 C552 1.368 . S
C549 C530 1.429 . S
C549 C543 1.429 1_556 S
C549 C550 1.523 . S
C550 C531 1.368 . S
C550 C544 1.368 . S
C550 C549 1.523 . S
C551 C535 1.429 . S
C551 C547 1.429 . S
C551 C552 1.523 . S
C552 C536 1.368 . S
C552 C548 1.368 . S
C552 C551 1.523 . S
H553 C528 0.950 . S
H554 C530 0.950 . S
H555 C531 0.949 . S
H556 C533 0.950 . S
H557 C535 0.950 . S
C558 C559 1.349 . S
C558 C560 1.327 . S
C558 H583 0.950 . S
C559 C558 1.349 . S
C559 C575 1.349 . S
C560 C558 1.327 . S
C560 C579 1.429 . S
C560 H584 0.950 . S
C561 C578 1.574 . S
C561 C580 1.368 . S
C561 H585 0.949 . S
H562 C566 0.949 . S
C563 C564 1.349 . S
C563 C565 1.327 . S
C563 H586 0.950 . S
C564 C563 1.349 . S
C564 C576 1.349 . S
C565 C563 1.327 . S
C565 C581 1.429 . S
C565 H587 0.950 . S
C566 H562 0.949 . S
C566 C574 1.574 . S
C566 C582 1.368 . S
H567 C575 0.950 . S
H568 C573 0.950 . S
H569 C574 0.949 . S
H570 C576 0.950 . S
H571 C577 0.950 . S
H572 C578 0.949 . S
C573 H568 0.950 . S
C573 C575 1.327 . S
C573 C579 1.429 . S
C574 C566 1.574 . S
C574 H569 0.949 . S
C574 C580 1.368 . S
C575 C559 1.349 . S
C575 H567 0.950 . S
C575 C573 1.327 . S
C576 C564 1.349 . S
C576 H570 0.950 . S
C576 C577 1.327 . S
C577 H571 0.950 . S
C577 C576 1.327 . S
C577 C581 1.429 . S
C578 C561 1.574 . S
C578 H572 0.949 . S
C578 C582 1.368 . S
C579 C560 1.429 . S
C579 C573 1.429 . S
C579 C580 1.523 . S
C580 C561 1.368 . S
C580 C574 1.368 . S
C580 C579 1.523 . S
C581 C565 1.429 . S
C581 C577 1.429 . S
C581 C582 1.523 . S
C582 C566 1.368 . S
C582 C578 1.368 . S
C582 C581 1.523 . S
H583 C558 0.950 . S
H584 C560 0.950 . S
H585 C561 0.949 . S
H586 C563 0.950 . S
H587 C565 0.950 . S
C588 C589 1.349 . S
C588 C590 1.327 . S
C588 H613 0.950 . S
C589 C588 1.349 . S
C589 C605 1.349 . S
C590 C588 1.327 . S
C590 C609 1.429 . S
C590 H614 0.950 . S
C591 C608 1.574 . S
C591 C610 1.368 . S
C591 H615 0.949 . S
H592 C596 0.949 . S
C593 C594 1.349 . S
C593 C595 1.327 . S
C593 H616 0.950 . S
C594 C593 1.349 . S
C594 C606 1.349 . S
C595 C593 1.327 . S
C595 C611 1.429 . S
C595 H617 0.950 . S
C596 H592 0.949 . S
C596 C604 1.574 . S
C596 C612 1.368 . S
H597 C605 0.950 . S
H598 C603 0.950 . S
H599 C604 0.949 . S
H600 C606 0.950 . S
H601 C607 0.950 . S
H602 C608 0.949 . S
C603 H598 0.950 . S
C603 C605 1.327 . S
C603 C609 1.429 . S
C604 C596 1.574 . S
C604 H599 0.949 . S
C604 C610 1.368 . S
C605 C589 1.349 . S
C605 H597 0.950 . S
C605 C603 1.327 . S
C606 C594 1.349 . S
C606 H600 0.950 . S
C606 C607 1.327 . S
C607 H601 0.950 . S
C607 C606 1.327 . S
C607 C611 1.429 . S
C608 C591 1.574 . S
C608 H602 0.949 . S
C608 C612 1.368 . S
C609 C590 1.429 . S
C609 C603 1.429 . S
C609 C610 1.523 . S
C610 C591 1.368 . S
C610 C604 1.368 . S
C610 C609 1.523 . S
C611 C595 1.429 . S
C611 C607 1.429 . S
C611 C612 1.523 . S
C612 C596 1.368 . S
C612 C608 1.368 . S
C612 C611 1.523 . S
H613 C588 0.950 . S
H614 C590 0.950 . S
H615 C591 0.949 . S
H616 C593 0.950 . S
H617 C595 0.950 . S
C618 C619 1.349 . S
C618 C620 1.327 . S
C618 H643 0.950 . S
C619 C618 1.349 . S
C619 C635 1.349 . S
C620 C618 1.327 . S
C620 C639 1.429 . S
C620 H644 0.950 . S
C621 C638 1.574 . S
C621 C640 1.368 . S
C621 H645 0.949 . S
H622 C626 0.949 . S
C623 C624 1.349 . S
C623 C625 1.327 . S
C623 H646 0.950 . S
C624 C623 1.349 . S
C624 C636 1.349 . S
C625 C623 1.327 . S
C625 C641 1.429 . S
C625 H647 0.950 . S
C626 H622 0.949 . S
C626 C634 1.574 . S
C626 C642 1.368 . S
H627 C635 0.950 . S
H628 C633 0.950 . S
H629 C634 0.949 . S
H630 C636 0.950 . S
H631 C637 0.950 . S
H632 C638 0.949 . S
C633 H628 0.950 . S
C633 C635 1.327 . S
C633 C639 1.429 . S
C634 C626 1.574 . S
C634 H629 0.949 . S
C634 C640 1.368 . S
C635 C619 1.349 . S
C635 H627 0.950 . S
C635 C633 1.327 . S
C636 C624 1.349 . S
C636 H630 0.950 . S
C636 C637 1.327 . S
C637 H631 0.950 . S
C637 C636 1.327 . S
C637 C641 1.429 . S
C638 C621 1.574 . S
C638 H632 0.949 . S
C638 C642 1.368 . S
C639 C620 1.429 . S
C639 C633 1.429 . S
C639 C640 1.523 . S
C640 C621 1.368 . S
C640 C634 1.368 . S
C640 C639 1.523 . S
C641 C625 1.429 . S
C641 C637 1.429 . S
C641 C642 1.523 . S
C642 C626 1.368 . S
C642 C638 1.368 . S
C642 C641 1.523 . S
H643 C618 0.950 . S
H644 C620 0.950 . S
H645 C621 0.949 . S
H646 C623 0.950 . S
H647 C625 0.950 . S
C648 C649 1.349 . S
C648 C650 1.327 . S
C648 H673 0.950 . S
C649 C648 1.349 . S
C649 C665 1.349 . S
C650 C648 1.327 . S
C650 C669 1.429 . S
C650 H674 0.950 . S
C651 C668 1.574 . S
C651 C670 1.368 . S
C651 H675 0.949 . S
H652 C656 0.949 . S
C653 C654 1.349 . S
C653 C655 1.327 . S
C653 H676 0.950 . S
C654 C653 1.349 . S
C654 C666 1.349 . S
C655 C653 1.327 . S
C655 C671 1.429 . S
C655 H677 0.950 . S
C656 H652 0.949 . S
C656 C664 1.574 . S
C656 C672 1.368 . S
H657 C665 0.950 . S
H658 C663 0.950 . S
H659 C664 0.949 . S
H660 C666 0.950 . S
H661 C667 0.950 . S
H662 C668 0.949 . S
C663 H658 0.950 . S
C663 C665 1.327 . S
C663 C669 1.429 . S
C664 C656 1.574 . S
C664 H659 0.949 . S
C664 C670 1.368 . S
C665 C649 1.349 . S
C665 H657 0.950 . S
C665 C663 1.327 . S
C666 C654 1.349 . S
C666 H660 0.950 . S
C666 C667 1.327 . S
C667 H661 0.950 . S
C667 C666 1.327 . S
C667 C671 1.429 . S
C668 C651 1.574 . S
C668 H662 0.949 . S
C668 C672 1.368 . S
C669 C650 1.429 . S
C669 C663 1.429 . S
C669 C670 1.523 . S
C670 C651 1.368 . S
C670 C664 1.368 . S
C670 C669 1.523 . S
C671 C655 1.429 . S
C671 C667 1.429 . S
C671 C672 1.523 . S
C672 C656 1.368 . S
C672 C668 1.368 . S
C672 C671 1.523 . S
H673 C648 0.950 . S
H674 C650 0.950 . S
H675 C651 0.949 . S
H676 C653 0.950 . S
H677 C655 0.950 . S
C678 C679 1.349 . S
C678 C680 1.327 . S
C678 H703 0.950 . S
C679 C678 1.349 . S
C679 C695 1.349 . S
C680 C678 1.327 . S
C680 C699 1.429 . S
C680 H704 0.950 . S
C681 C698 1.574 . S
C681 C700 1.368 . S
C681 H705 0.949 . S
H682 C686 0.949 . S
C683 C684 1.349 . S
C683 C685 1.327 . S
C683 H706 0.950 . S
C684 C683 1.349 . S
C684 C696 1.349 . S
C685 C683 1.327 . S
C685 C701 1.429 . S
C685 H707 0.950 . S
C686 H682 0.949 . S
C686 C694 1.574 . S
C686 C702 1.368 . S
H687 C695 0.950 . S
H688 C693 0.950 . S
H689 C694 0.949 . S
H690 C696 0.950 . S
H691 C697 0.950 . S
H692 C698 0.949 . S
C693 H688 0.950 . S
C693 C695 1.327 . S
C693 C699 1.429 . S
C694 C686 1.574 . S
C694 H689 0.949 . S
C694 C700 1.368 . S
C695 C679 1.349 . S
C695 H687 0.950 . S
C695 C693 1.327 . S
C696 C684 1.349 . S
C696 H690 0.950 . S
C696 C697 1.327 . S
C697 H691 0.950 . S
C697 C696 1.327 . S
C697 C701 1.429 . S
C698 C681 1.574 . S
C698 H692 0.949 . S
C698 C702 1.368 . S
C699 C680 1.429 . S
C699 C693 1.429 . S
C699 C700 1.523 . S
C700 C681 1.368 . S
C700 C694 1.368 . S
C700 C699 1.523 . S
C701 C685 1.429 . S
C701 C697 1.429 . S
C701 C702 1.523 . S
C702 C686 1.368 . S
C702 C698 1.368 . S
C702 C701 1.523 . S
H703 C678 0.950 . S
H704 C680 0.950 . S
H705 C681 0.949 . S
H706 C683 0.950 . S
H707 C685 0.950 . S
C708 C709 1.349 . S
C708 C710 1.327 1_556 S
C708 H733 0.950 . S
C709 C708 1.349 . S
C709 C725 1.366 . S
C710 C708 1.327 1_554 S
C710 C729 1.429 . S
C710 H734 0.950 . S
C711 C728 1.574 . S
C711 C730 1.368 . S
C711 H735 0.949 . S
H712 C716 0.949 . S
C713 C714 1.349 . S
C713 C715 1.327 . S
C713 H736 0.950 . S
C714 C713 1.349 . S
C714 C726 1.349 . S
C715 C713 1.327 . S
C715 C731 1.429 . S
C715 H737 0.950 . S
C716 H712 0.949 . S
C716 C724 1.574 . S
C716 C732 1.368 . S
H717 C725 0.960 . S
H718 C723 0.950 . S
H719 C724 0.949 . S
H720 C726 0.950 . S
H721 C727 0.950 . S
H722 C728 0.949 . S
C723 H718 0.950 . S
C723 C725 1.300 1_554 S
C723 C729 1.429 . S
C724 C716 1.574 . S
C724 H719 0.949 . S
C724 C730 1.368 . S
C725 C709 1.366 . S
C725 H717 0.960 . S
C725 C723 1.300 1_556 S
C726 C714 1.349 . S
C726 H720 0.950 . S
C726 C727 1.327 . S
C727 H721 0.950 . S
C727 C726 1.327 . S
C727 C731 1.429 . S
C728 C711 1.574 . S
C728 H722 0.949 . S
C728 C732 1.368 . S
C729 C710 1.429 . S
C729 C723 1.429 . S
C729 C730 1.523 . S
C730 C711 1.368 . S
C730 C724 1.368 . S
C730 C729 1.523 . S
C731 C715 1.429 . S
C731 C727 1.429 . S
C731 C732 1.523 . S
C732 C716 1.368 . S
C732 C728 1.368 . S
C732 C731 1.523 . S
H733 C708 0.950 . S
H734 C710 0.950 . S
H735 C711 0.949 . S
H736 C713 0.950 . S
H737 C715 0.950 . S
C738 C739 1.349 . S
C738 C740 1.327 . S
C738 H763 0.950 . S
C739 C738 1.349 . S
C739 C755 1.349 . S
C740 C738 1.327 . S
C740 C759 1.429 . S
C740 H764 0.950 . S
C741 C758 1.574 . S
C741 C760 1.368 . S
C741 H765 0.949 . S
H742 C746 0.949 . S
C743 C744 1.349 . S
C743 C745 1.327 . S
C743 H766 0.950 . S
C744 C743 1.349 . S
C744 C756 1.349 . S
C745 C743 1.327 . S
C745 C761 1.429 . S
C745 H767 0.950 . S
C746 H742 0.949 . S
C746 C754 1.574 . S
C746 C762 1.368 . S
H747 C755 0.950 . S
H748 C753 0.950 . S
H749 C754 0.949 . S
H750 C756 0.950 . S
H751 C757 0.950 . S
H752 C758 0.949 . S
C753 H748 0.950 . S
C753 C755 1.327 . S
C753 C759 1.429 . S
C754 C746 1.574 . S
C754 H749 0.949 . S
C754 C760 1.368 . S
C755 C739 1.349 . S
C755 H747 0.950 . S
C755 C753 1.327 . S
C756 C744 1.349 . S
C756 H750 0.950 . S
C756 C757 1.327 . S
C757 H751 0.950 . S
C757 C756 1.327 . S
C757 C761 1.429 . S
C758 C741 1.574 . S
C758 H752 0.949 . S
C758 C762 1.368 . S
C759 C740 1.429 . S
C759 C753 1.429 . S
C759 C760 1.523 . S
C760 C741 1.368 . S
C760 C754 1.368 . S
C760 C759 1.523 . S
C761 C745 1.429 . S
C761 C757 1.429 . S
C761 C762 1.523 . S
C762 C746 1.368 . S
C762 C758 1.368 . S
C762 C761 1.523 . S
H763 C738 0.950 . S
H764 C740 0.950 . S
H765 C741 0.949 . S
H766 C743 0.950 . S
H767 C745 0.950 . S
C768 C769 1.349 . S
C768 C770 1.327 1_455 S
C768 H793 0.950 1_545 S
C769 C768 1.349 . S
C769 C785 1.349 . S
C770 C768 1.327 1_655 S
C770 C789 1.429 . S
C770 H794 0.950 . S
C771 C788 1.574 . S
C771 C790 1.368 . S
C771 H795 0.949 . S
H772 C776 0.949 . S
C773 C774 1.349 . S
C773 C775 1.327 . S
C773 H796 0.950 . S
C774 C773 1.349 . S
C774 C786 1.349 . S
C775 C773 1.327 . S
C775 C791 1.429 . S
C775 H797 0.950 . S
C776 H772 0.949 . S
C776 C784 1.574 . S
C776 C792 1.368 . S
H777 C785 0.950 . S
H778 C783 0.950 . S
H779 C784 0.949 . S
H780 C786 0.950 . S
H781 C787 0.950 . S
H782 C788 0.949 . S
C783 H778 0.950 . S
C783 C785 1.327 . S
C783 C789 1.429 1_455 S
C784 C776 1.574 . S
C784 H779 0.949 . S
C784 C790 1.368 . S
C785 C769 1.349 . S
C785 H777 0.950 . S
C785 C783 1.327 . S
C786 C774 1.349 . S
C786 H780 0.950 . S
C786 C787 1.327 . S
C787 H781 0.950 . S
C787 C786 1.327 . S
C787 C791 1.429 . S
C788 C771 1.574 . S
C788 H782 0.949 . S
C788 C792 1.368 . S
C789 C770 1.429 . S
C789 C783 1.429 1_655 S
C789 C790 1.523 . S
C790 C771 1.368 . S
C790 C784 1.368 . S
C790 C789 1.523 . S
C791 C775 1.429 . S
C791 C787 1.429 . S
C791 C792 1.523 . S
C792 C776 1.368 . S
C792 C788 1.368 . S
C792 C791 1.523 . S
H793 C768 0.950 1_565 S
H794 C770 0.950 . S
H795 C771 0.949 . S
H796 C773 0.950 . S
H797 C775 0.950 . S
C798 C799 1.349 . S
C798 C800 1.327 . S
C798 H823 0.950 . S
C799 C798 1.349 . S
C799 C815 1.349 . S
C800 C798 1.327 . S
C800 C819 1.429 . S
C800 H824 0.950 . S
C801 C818 1.574 . S
C801 C820 1.368 . S
C801 H825 0.949 . S
H802 C806 0.949 . S
C803 C804 1.349 . S
C803 C805 1.327 . S
C803 H826 0.950 . S
C804 C803 1.349 . S
C804 C816 1.349 . S
C805 C803 1.327 . S
C805 C821 1.429 . S
C805 H827 0.950 . S
C806 H802 0.949 . S
C806 C814 1.574 . S
C806 C822 1.368 . S
H807 C815 0.950 . S
H808 C813 0.950 . S
H809 C814 0.949 . S
H810 C816 0.950 . S
H811 C817 0.950 . S
H812 C818 0.949 . S
C813 H808 0.950 . S
C813 C815 1.327 . S
C813 C819 1.429 . S
C814 C806 1.574 . S
C814 H809 0.949 . S
C814 C820 1.368 . S
C815 C799 1.349 . S
C815 H807 0.950 . S
C815 C813 1.327 . S
C816 C804 1.349 . S
C816 H810 0.950 . S
C816 C817 1.327 . S
C817 H811 0.950 . S
C817 C816 1.327 . S
C817 C821 1.429 . S
C818 C801 1.574 . S
C818 H812 0.949 . S
C818 C822 1.368 . S
C819 C800 1.429 . S
C819 C813 1.429 . S
C819 C820 1.523 . S
C820 C801 1.368 . S
C820 C814 1.368 . S
C820 C819 1.523 . S
C821 C805 1.429 . S
C821 C817 1.429 . S
C821 C822 1.523 . S
C822 C806 1.368 . S
C822 C818 1.368 . S
C822 C821 1.523 . S
H823 C798 0.950 . S
H824 C800 0.950 . S
H825 C801 0.949 . S
H826 C803 0.950 . S
H827 C805 0.950 . S
C828 C829 1.349 . S
C828 C830 1.327 . S
C828 H853 0.950 . S
C829 C828 1.349 . S
C829 C845 1.349 . S
C830 C828 1.327 . S
C830 C849 1.429 . S
C830 H854 0.950 . S
C831 C848 1.574 . S
C831 C850 1.368 . S
C831 H855 0.949 . S
H832 C836 0.949 . S
C833 C834 1.349 . S
C833 C835 1.327 . S
C833 H856 0.950 . S
C834 C833 1.349 . S
C834 C846 1.349 . S
C835 C833 1.327 . S
C835 C851 1.429 . S
C835 H857 0.950 . S
C836 H832 0.949 . S
C836 C844 1.574 . S
C836 C852 1.368 . S
H837 C845 0.950 1_545 S
H838 C843 0.950 . S
H839 C844 0.949 . S
H840 C846 0.950 . S
H841 C847 0.950 . S
H842 C848 0.949 . S
C843 H838 0.950 . S
C843 C845 1.327 . S
C843 C849 1.429 . S
C844 C836 1.574 . S
C844 H839 0.949 . S
C844 C850 1.368 . S
C845 C829 1.349 . S
C845 H837 0.950 1_565 S
C845 C843 1.327 . S
C846 C834 1.349 . S
C846 H840 0.950 . S
C846 C847 1.327 . S
C847 H841 0.950 . S
C847 C846 1.327 . S
C847 C851 1.429 . S
C848 C831 1.574 . S
C848 H842 0.949 . S
C848 C852 1.368 . S
C849 C830 1.429 . S
C849 C843 1.429 . S
C849 C850 1.523 . S
C850 C831 1.368 . S
C850 C844 1.368 . S
C850 C849 1.523 . S
C851 C835 1.429 . S
C851 C847 1.429 . S
C851 C852 1.523 . S
C852 C836 1.368 . S
C852 C848 1.368 . S
C852 C851 1.523 . S
H853 C828 0.950 . S
H854 C830 0.950 . S
H855 C831 0.949 . S
H856 C833 0.950 . S
H857 C835 0.950 . S
C858 C859 1.349 . S
C858 C860 1.327 . S
C858 H883 0.950 . S
C859 C858 1.349 . S
C859 C875 1.349 . S
C860 C858 1.327 . S
C860 C879 1.429 . S
C860 H884 0.950 . S
C861 C878 1.574 . S
C861 C880 1.368 . S
C861 H885 0.949 . S
H862 C866 0.949 . S
C863 C864 1.349 . S
C863 C865 1.327 . S
C863 H886 0.950 . S
C864 C863 1.349 . S
C864 C876 1.349 . S
C865 C863 1.327 . S
C865 C881 1.429 . S
C865 H887 0.950 . S
C866 H862 0.949 . S
C866 C874 1.574 . S
C866 C882 1.368 . S
H867 C875 0.950 . S
H868 C873 0.950 . S
H869 C874 0.949 . S
H870 C876 0.950 . S
H871 C877 0.950 . S
H872 C878 0.949 . S
C873 H868 0.950 . S
C873 C875 1.327 . S
C873 C879 1.429 . S
C874 C866 1.574 . S
C874 H869 0.949 . S
C874 C880 1.368 . S
C875 C859 1.349 . S
C875 H867 0.950 . S
C875 C873 1.327 . S
C876 C864 1.349 . S
C876 H870 0.950 . S
C876 C877 1.327 . S
C877 H871 0.950 . S
C877 C876 1.327 . S
C877 C881 1.429 . S
C878 C861 1.574 . S
C878 H872 0.949 . S
C878 C882 1.368 . S
C879 C860 1.429 . S
C879 C873 1.429 . S
C879 C880 1.523 . S
C880 C861 1.368 . S
C880 C874 1.368 . S
C880 C879 1.523 . S
C881 C865 1.429 . S
C881 C877 1.429 . S
C881 C882 1.523 . S
C882 C866 1.368 . S
C882 C878 1.368 . S
C882 C881 1.523 . S
H883 C858 0.950 . S
H884 C860 0.950 . S
H885 C861 0.949 . S
H886 C863 0.950 . S
H887 C865 0.950 . S
C888 C889 1.349 . S
C888 C890 1.327 . S
C888 H913 0.950 . S
C889 C888 1.349 . S
C889 C905 1.349 . S
C890 C888 1.327 . S
C890 C909 1.429 . S
C890 H914 0.950 1_455 S
C891 C908 1.574 . S
C891 C910 1.368 . S
C891 H915 0.949 1_655 S
H892 C896 0.949 . S
C893 C894 1.349 . S
C893 C895 1.327 . S
C893 H916 0.950 . S
C894 C893 1.349 . S
C894 C906 1.349 . S
C895 C893 1.327 . S
C895 C911 1.429 . S
C895 H917 0.950 . S
C896 H892 0.949 . S
C896 C904 1.574 . S
C896 C912 1.368 . S
H897 C905 0.950 . S
H898 C903 0.950 . S
H899 C904 0.949 . S
H900 C906 0.950 . S
H901 C907 0.950 . S
H902 C908 0.949 . S
C903 H898 0.950 . S
C903 C905 1.327 . S
C903 C909 1.429 . S
C904 C896 1.574 . S
C904 H899 0.949 . S
C904 C910 1.368 . S
C905 C889 1.349 . S
C905 H897 0.950 . S
C905 C903 1.327 . S
C906 C894 1.349 . S
C906 H900 0.950 . S
C906 C907 1.327 . S
C907 H901 0.950 . S
C907 C906 1.327 . S
C907 C911 1.429 . S
C908 C891 1.574 . S
C908 H902 0.949 . S
C908 C912 1.368 . S
C909 C890 1.429 . S
C909 C903 1.429 . S
C909 C910 1.523 1_455 S
C910 C891 1.368 . S
C910 C904 1.368 . S
C910 C909 1.523 1_655 S
C911 C895 1.429 . S
C911 C907 1.429 . S
C911 C912 1.523 . S
C912 C896 1.368 . S
C912 C908 1.368 . S
C912 C911 1.523 . S
H913 C888 0.950 . S
H914 C890 0.950 1_655 S
H915 C891 0.949 1_455 S
H916 C893 0.950 . S
H917 C895 0.950 . S
C918 C919 1.349 . S
C918 C920 1.327 . S
C918 H943 0.950 . S
C919 C918 1.349 . S
C919 C935 1.349 . S
C920 C918 1.327 . S
C920 C939 1.429 . S
C920 H944 0.950 . S
C921 C938 1.574 . S
C921 C940 1.368 . S
C921 H945 0.949 . S
H922 C926 0.949 . S
C923 C924 1.349 . S
C923 C925 1.327 . S
C923 H946 0.950 . S
C924 C923 1.349 . S
C924 C936 1.349 . S
C925 C923 1.327 . S
C925 C941 1.429 . S
C925 H947 0.950 . S
C926 H922 0.949 . S
C926 C934 1.574 . S
C926 C942 1.368 . S
H927 C935 0.950 . S
H928 C933 0.950 . S
H929 C934 0.949 . S
H930 C936 0.950 . S
H931 C937 0.950 . S
H932 C938 0.949 . S
C933 H928 0.950 . S
C933 C935 1.327 . S
C933 C939 1.429 . S
C934 C926 1.574 . S
C934 H929 0.949 . S
C934 C940 1.368 . S
C935 C919 1.349 . S
C935 H927 0.950 . S
C935 C933 1.327 . S
C936 C924 1.349 . S
C936 H930 0.950 . S
C936 C937 1.327 . S
C937 H931 0.950 . S
C937 C936 1.327 . S
C937 C941 1.429 . S
C938 C921 1.574 . S
C938 H932 0.949 . S
C938 C942 1.368 . S
C939 C920 1.429 . S
C939 C933 1.429 . S
C939 C940 1.523 . S
C940 C921 1.368 . S
C940 C934 1.368 . S
C940 C939 1.523 . S
C941 C925 1.429 . S
C941 C937 1.429 . S
C941 C942 1.523 . S
C942 C926 1.368 . S
C942 C938 1.368 . S
C942 C941 1.523 . S
H943 C918 0.950 . S
H944 C920 0.950 . S
H945 C921 0.949 . S
H946 C923 0.950 . S
H947 C925 0.950 . S
C948 C949 1.349 . S
C948 C950 1.327 . S
C948 H973 0.950 . S
C949 C948 1.349 . S
C949 C965 1.349 . S
C950 C948 1.327 . S
C950 C969 1.429 . S
C950 H974 0.950 . S
C951 C968 1.574 . S
C951 C970 1.368 . S
C951 H975 0.949 . S
H952 C956 0.949 . S
C953 C954 1.349 . S
C953 C955 1.327 . S
C953 H976 0.950 . S
C954 C953 1.349 . S
C954 C966 1.349 . S
C955 C953 1.327 . S
C955 C971 1.429 . S
C955 H977 0.950 . S
C956 H952 0.949 . S
C956 C964 1.574 . S
C956 C972 1.368 . S
H957 C965 0.950 . S
H958 C963 0.950 . S
H959 C964 0.949 . S
H960 C966 0.950 . S
H961 C967 0.950 . S
H962 C968 0.949 . S
C963 H958 0.950 . S
C963 C965 1.327 . S
C963 C969 1.429 . S
C964 C956 1.574 . S
C964 H959 0.949 . S
C964 C970 1.368 . S
C965 C949 1.349 . S
C965 H957 0.950 . S
C965 C963 1.327 . S
C966 C954 1.349 . S
C966 H960 0.950 . S
C966 C967 1.327 . S
C967 H961 0.950 . S
C967 C966 1.327 . S
C967 C971 1.429 . S
C968 C951 1.574 . S
C968 H962 0.949 . S
C968 C972 1.368 . S
C969 C950 1.429 . S
C969 C963 1.429 . S
C969 C970 1.523 . S
C970 C951 1.368 . S
C970 C964 1.368 . S
C970 C969 1.523 . S
C971 C955 1.429 . S
C971 C967 1.429 . S
C971 C972 1.523 . S
C972 C956 1.368 . S
C972 C968 1.368 . S
C972 C971 1.523 . S
H973 C948 0.950 . S
H974 C950 0.950 . S
H975 C951 0.949 . S
H976 C953 0.950 . S
H977 C955 0.950 . S
C978 C979 1.349 . S
C978 C980 1.327 . S
C978 H1003 0.950 . S
C979 C978 1.349 . S
C979 C995 1.349 . S
C980 C978 1.327 . S
C980 C999 1.429 . S
C980 H1004 0.950 . S
C981 C998 1.574 . S
C981 C1000 1.368 . S
C981 H1005 0.949 . S
H982 C986 0.949 . S
C983 C984 1.349 . S
C983 C985 1.327 . S
C983 H1006 0.950 . S
C984 C983 1.349 . S
C984 C996 1.349 . S
C985 C983 1.327 . S
C985 C1001 1.429 . S
C985 H1007 0.950 . S
C986 H982 0.949 . S
C986 C994 1.574 . S
C986 C1002 1.368 . S
H987 C995 0.950 . S
H988 C993 0.950 . S
H989 C994 0.949 . S
H990 C996 0.950 . S
H991 C997 0.950 . S
H992 C998 0.949 . S
C993 H988 0.950 . S
C993 C995 1.327 . S
C993 C999 1.429 . S
C994 C986 1.574 . S
C994 H989 0.949 . S
C994 C1000 1.368 . S
C995 C979 1.349 . S
C995 H987 0.950 . S
C995 C993 1.327 . S
C996 C984 1.349 . S
C996 H990 0.950 . S
C996 C997 1.327 . S
C997 H991 0.950 . S
C997 C996 1.327 . S
C997 C1001 1.429 . S
C998 C981 1.574 . S
C998 H992 0.949 . S
C998 C1002 1.368 . S
C999 C980 1.429 . S
C999 C993 1.429 . S
C999 C1000 1.523 . S
C1000 C981 1.368 . S
C1000 C994 1.368 . S
C1000 C999 1.523 . S
C1001 C985 1.429 . S
C1001 C997 1.429 . S
C1001 C1002 1.523 . S
C1002 C986 1.368 . S
C1002 C998 1.368 . S
C1002 C1001 1.523 . S
H1003 C978 0.950 . S
H1004 C980 0.950 . S
H1005 C981 0.949 . S
H1006 C983 0.950 . S
H1007 C985 0.950 . S
C1008 C1009 1.349 . S
C1008 C1010 1.327 . S
C1008 H1033 0.950 . S
C1009 C1008 1.349 . S
C1009 C1025 1.349 . S
C1010 C1008 1.327 . S
C1010 C1029 1.429 . S
C1010 H1034 0.950 . S
C1011 C1028 1.574 . S
C1011 C1030 1.368 . S
C1011 H1035 0.949 . S
H1012 C1016 0.949 . S
C1013 C1014 1.349 . S
C1013 C1015 1.327 . S
C1013 H1036 0.950 . S
C1014 C1013 1.349 . S
C1014 C1026 1.349 . S
C1015 C1013 1.327 . S
C1015 C1031 1.429 . S
C1015 H1037 0.950 . S
C1016 H1012 0.949 . S
C1016 C1024 1.574 . S
C1016 C1032 1.368 . S
H1017 C1025 0.950 . S
H1018 C1023 0.950 . S
H1019 C1024 0.949 . S
H1020 C1026 0.950 . S
H1021 C1027 0.950 . S
H1022 C1028 0.949 . S
C1023 H1018 0.950 . S
C1023 C1025 1.327 . S
C1023 C1029 1.429 . S
C1024 C1016 1.574 . S
C1024 H1019 0.949 . S
C1024 C1030 1.368 . S
C1025 C1009 1.349 . S
C1025 H1017 0.950 . S
C1025 C1023 1.327 . S
C1026 C1014 1.349 . S
C1026 H1020 0.950 . S
C1026 C1027 1.327 . S
C1027 H1021 0.950 . S
C1027 C1026 1.327 . S
C1027 C1031 1.429 . S
C1028 C1011 1.574 . S
C1028 H1022 0.949 . S
C1028 C1032 1.368 . S
C1029 C1010 1.429 . S
C1029 C1023 1.429 . S
C1029 C1030 1.523 1_545 S
C1030 C1011 1.368 . S
C1030 C1024 1.368 . S
C1030 C1029 1.523 1_565 S
C1031 C1015 1.429 . S
C1031 C1027 1.429 . S
C1031 C1032 1.523 . S
C1032 C1016 1.368 . S
C1032 C1028 1.368 . S
C1032 C1031 1.523 . S
H1033 C1008 0.950 . S
H1034 C1010 0.950 . S
H1035 C1011 0.949 . S
H1036 C1013 0.950 . S
H1037 C1015 0.950 . S
C1038 C1039 1.349 . S
C1038 C1040 1.327 . S
C1038 H1063 0.950 . S
C1039 C1038 1.349 . S
C1039 C1055 1.349 . S
C1040 C1038 1.327 . S
C1040 C1059 1.429 . S
C1040 H1064 0.950 . S
C1041 C1058 1.574 . S
C1041 C1060 1.368 . S
C1041 H1065 0.949 . S
H1042 C1046 0.949 . S
C1043 C1044 1.349 . S
C1043 C1045 1.327 . S
C1043 H1066 0.950 . S
C1044 C1043 1.349 . S
C1044 C1056 1.349 . S
C1045 C1043 1.327 . S
C1045 C1061 1.429 . S
C1045 H1067 0.950 . S
C1046 H1042 0.949 . S
C1046 C1054 1.574 . S
C1046 C1062 1.368 . S
H1047 C1055 0.950 1_554 S
H1048 C1053 0.950 1_554 S
H1049 C1054 0.949 . S
H1050 C1056 0.950 . S
H1051 C1057 0.950 . S
H1052 C1058 0.949 . S
C1053 H1048 0.950 1_556 S
C1053 C1055 1.327 . S
C1053 C1059 1.429 . S
C1054 C1046 1.574 . S
C1054 H1049 0.949 . S
C1054 C1060 1.368 . S
C1055 C1039 1.349 . S
C1055 H1047 0.950 1_556 S
C1055 C1053 1.327 . S
C1056 C1044 1.349 . S
C1056 H1050 0.950 . S
C1056 C1057 1.327 . S
C1057 H1051 0.950 . S
C1057 C1056 1.327 . S
C1057 C1061 1.429 . S
C1058 C1041 1.574 . S
C1058 H1052 0.949 . S
C1058 C1062 1.368 . S
C1059 C1040 1.429 . S
C1059 C1053 1.429 . S
C1059 C1060 1.523 . S
C1060 C1041 1.368 . S
C1060 C1054 1.368 . S
C1060 C1059 1.523 . S
C1061 C1045 1.429 . S
C1061 C1057 1.429 . S
C1061 C1062 1.523 . S
C1062 C1046 1.368 . S
C1062 C1058 1.368 . S
C1062 C1061 1.523 . S
H1063 C1038 0.950 . S
H1064 C1040 0.950 . S
H1065 C1041 0.949 . S
H1066 C1043 0.950 . S
H1067 C1045 0.950 . S
C1068 C1069 1.349 . S
C1068 C1070 1.327 . S
C1068 H1093 0.950 . S
C1069 C1068 1.349 . S
C1069 C1085 1.349 . S
C1070 C1068 1.327 . S
C1070 C1089 1.429 . S
C1070 H1094 0.950 . S
C1071 C1088 1.574 . S
C1071 C1090 1.368 . S
C1071 H1095 0.949 . S
H1072 C1076 0.949 . S
C1073 C1074 1.349 . S
C1073 C1075 1.327 . S
C1073 H1096 0.950 . S
C1074 C1073 1.349 . S
C1074 C1086 1.349 . S
C1075 C1073 1.327 . S
C1075 C1091 1.429 . S
C1075 H1097 0.950 . S
C1076 H1072 0.949 . S
C1076 C1084 1.574 . S
C1076 C1092 1.368 . S
H1077 C1085 0.950 . S
H1078 C1083 0.950 . S
H1079 C1084 0.949 . S
H1080 C1086 0.950 . S
H1081 C1087 0.950 . S
H1082 C1088 0.949 . S
C1083 H1078 0.950 . S
C1083 C1085 1.327 . S
C1083 C1089 1.429 . S
C1084 C1076 1.574 . S
C1084 H1079 0.949 . S
C1084 C1090 1.368 . S
C1085 C1069 1.349 . S
C1085 H1077 0.950 . S
C1085 C1083 1.327 . S
C1086 C1074 1.349 . S
C1086 H1080 0.950 . S
C1086 C1087 1.327 . S
C1087 H1081 0.950 . S
C1087 C1086 1.327 . S
C1087 C1091 1.429 . S
C1088 C1071 1.574 . S
C1088 H1082 0.949 . S
C1088 C1092 1.368 . S
C1089 C1070 1.429 . S
C1089 C1083 1.429 . S
C1089 C1090 1.523 . S
C1090 C1071 1.368 . S
C1090 C1084 1.368 . S
C1090 C1089 1.523 . S
C1091 C1075 1.429 . S
C1091 C1087 1.429 . S
C1091 C1092 1.523 . S
C1092 C1076 1.368 . S
C1092 C1088 1.368 . S
C1092 C1091 1.523 . S
H1093 C1068 0.950 . S
H1094 C1070 0.950 . S
H1095 C1071 0.949 . S
H1096 C1073 0.950 . S
H1097 C1075 0.950 . S
C1098 C1099 1.349 . S
C1098 C1100 1.327 . S
C1098 H1123 0.950 . S
C1099 C1098 1.349 . S
C1099 C1115 1.349 . S
C1100 C1098 1.327 . S
C1100 C1119 1.429 . S
C1100 H1124 0.950 . S
C1101 C1118 1.574 . S
C1101 C1120 1.368 . S
C1101 H1125 0.949 . S
H1102 C1106 0.949 . S
C1103 C1104 1.349 . S
C1103 C1105 1.327 . S
C1103 H1126 0.950 . S
C1104 C1103 1.349 . S
C1104 C1116 1.349 . S
C1105 C1103 1.327 . S
C1105 C1121 1.429 . S
C1105 H1127 0.950 . S
C1106 H1102 0.949 . S
C1106 C1114 1.574 . S
C1106 C1122 1.368 . S
H1107 C1115 0.950 . S
H1108 C1113 0.950 . S
H1109 C1114 0.949 . S
H1110 C1116 0.950 . S
H1111 C1117 0.950 . S
H1112 C1118 0.949 . S
C1113 H1108 0.950 . S
C1113 C1115 1.327 . S
C1113 C1119 1.429 . S
C1114 C1106 1.574 . S
C1114 H1109 0.949 . S
C1114 C1120 1.368 . S
C1115 C1099 1.349 . S
C1115 H1107 0.950 . S
C1115 C1113 1.327 . S
C1116 C1104 1.349 . S
C1116 H1110 0.950 . S
C1116 C1117 1.327 . S
C1117 H1111 0.950 . S
C1117 C1116 1.327 . S
C1117 C1121 1.429 . S
C1118 C1101 1.574 . S
C1118 H1112 0.949 . S
C1118 C1122 1.368 . S
C1119 C1100 1.429 . S
C1119 C1113 1.429 . S
C1119 C1120 1.523 . S
C1120 C1101 1.368 . S
C1120 C1114 1.368 . S
C1120 C1119 1.523 . S
C1121 C1105 1.429 . S
C1121 C1117 1.429 . S
C1121 C1122 1.523 . S
C1122 C1106 1.368 . S
C1122 C1118 1.368 . S
C1122 C1121 1.523 . S
H1123 C1098 0.950 . S
H1124 C1100 0.950 . S
H1125 C1101 0.949 . S
H1126 C1103 0.950 . S
H1127 C1105 0.950 . S
C1128 C1129 1.349 . S
C1128 C1130 1.327 . S
C1128 H1153 0.950 . S
C1129 C1128 1.349 . S
C1129 C1145 1.349 . S
C1130 C1128 1.327 . S
C1130 C1149 1.429 . S
C1130 H1154 0.950 . S
C1131 C1148 1.574 . S
C1131 C1150 1.368 . S
C1131 H1155 0.949 . S
H1132 C1136 0.949 . S
C1133 C1134 1.349 . S
C1133 C1135 1.327 . S
C1133 H1156 0.950 . S
C1134 C1133 1.349 . S
C1134 C1146 1.349 . S
C1135 C1133 1.327 . S
C1135 C1151 1.429 . S
C1135 H1157 0.950 . S
C1136 H1132 0.949 . S
C1136 C1144 1.574 . S
C1136 C1152 1.368 . S
H1137 C1145 0.950 . S
H1138 C1143 0.950 . S
H1139 C1144 0.949 . S
H1140 C1146 0.950 . S
H1141 C1147 0.950 . S
H1142 C1148 0.949 . S
C1143 H1138 0.950 . S
C1143 C1145 1.327 . S
C1143 C1149 1.429 . S
C1144 C1136 1.574 . S
C1144 H1139 0.949 . S
C1144 C1150 1.368 . S
C1145 C1129 1.349 . S
C1145 H1137 0.950 . S
C1145 C1143 1.327 . S
C1146 C1134 1.349 . S
C1146 H1140 0.950 . S
C1146 C1147 1.327 . S
C1147 H1141 0.950 . S
C1147 C1146 1.327 . S
C1147 C1151 1.429 . S
C1148 C1131 1.574 . S
C1148 H1142 0.949 . S
C1148 C1152 1.368 . S
C1149 C1130 1.429 . S
C1149 C1143 1.429 . S
C1149 C1150 1.523 . S
C1150 C1131 1.368 . S
C1150 C1144 1.368 . S
C1150 C1149 1.523 . S
C1151 C1135 1.429 . S
C1151 C1147 1.429 . S
C1151 C1152 1.523 . S
C1152 C1136 1.368 . S
C1152 C1148 1.368 . S
C1152 C1151 1.523 . S
H1153 C1128 0.950 . S
H1154 C1130 0.950 . S
H1155 C1131 0.949 . S
H1156 C1133 0.950 . S
H1157 C1135 0.950 . S
C1158 C1159 1.349 . S
C1158 C1160 1.327 . S
C1158 H1183 0.950 . S
C1159 C1158 1.349 . S
C1159 C1175 1.349 . S
C1160 C1158 1.327 . S
C1160 C1179 1.429 . S
C1160 H1184 0.950 . S
C1161 C1178 1.574 . S
C1161 C1180 1.368 . S
C1161 H1185 0.949 . S
H1162 C1166 0.949 . S
C1163 C1164 1.349 . S
C1163 C1165 1.327 . S
C1163 H1186 0.950 . S
C1164 C1163 1.349 . S
C1164 C1176 1.349 . S
C1165 C1163 1.327 . S
C1165 C1181 1.429 . S
C1165 H1187 0.950 . S
C1166 H1162 0.949 . S
C1166 C1174 1.574 . S
C1166 C1182 1.368 . S
H1167 C1175 0.950 . S
H1168 C1173 0.950 . S
H1169 C1174 0.949 . S
H1170 C1176 0.950 . S
H1171 C1177 0.950 . S
H1172 C1178 0.949 . S
C1173 H1168 0.950 . S
C1173 C1175 1.327 . S
C1173 C1179 1.429 . S
C1174 C1166 1.574 . S
C1174 H1169 0.949 . S
C1174 C1180 1.368 . S
C1175 C1159 1.349 . S
C1175 H1167 0.950 . S
C1175 C1173 1.327 . S
C1176 C1164 1.349 . S
C1176 H1170 0.950 . S
C1176 C1177 1.327 . S
C1177 H1171 0.950 . S
C1177 C1176 1.327 . S
C1177 C1181 1.429 . S
C1178 C1161 1.574 . S
C1178 H1172 0.949 . S
C1178 C1182 1.368 . S
C1179 C1160 1.429 . S
C1179 C1173 1.429 . S
C1179 C1180 1.523 . S
C1180 C1161 1.368 . S
C1180 C1174 1.368 . S
C1180 C1179 1.523 . S
C1181 C1165 1.429 . S
C1181 C1177 1.429 . S
C1181 C1182 1.523 . S
C1182 C1166 1.368 . S
C1182 C1178 1.368 . S
C1182 C1181 1.523 . S
H1183 C1158 0.950 . S
H1184 C1160 0.950 . S
H1185 C1161 0.949 . S
H1186 C1163 0.950 . S
H1187 C1165 0.950 . S
C1188 C1189 1.349 . S
C1188 C1190 1.327 . S
C1188 H1213 0.950 . S
C1189 C1188 1.349 . S
C1189 C1205 1.349 . S
C1190 C1188 1.327 . S
C1190 C1209 1.429 . S
C1190 H1214 0.950 . S
C1191 C1208 1.574 . S
C1191 C1210 1.368 . S
C1191 H1215 0.949 . S
H1192 C1196 0.949 . S
C1193 C1194 1.349 . S
C1193 C1195 1.327 . S
C1193 H1216 0.950 . S
C1194 C1193 1.349 . S
C1194 C1206 1.349 . S
C1195 C1193 1.327 . S
C1195 C1211 1.429 . S
C1195 H1217 0.950 . S
C1196 H1192 0.949 . S
C1196 C1204 1.574 . S
C1196 C1212 1.368 . S
H1197 C1205 0.950 . S
H1198 C1203 0.950 . S
H1199 C1204 0.949 . S
H1200 C1206 0.950 . S
H1201 C1207 0.950 . S
H1202 C1208 0.949 . S
C1203 H1198 0.950 . S
C1203 C1205 1.327 . S
C1203 C1209 1.429 . S
C1204 C1196 1.574 . S
C1204 H1199 0.949 . S
C1204 C1210 1.368 . S
C1205 C1189 1.349 . S
C1205 H1197 0.950 . S
C1205 C1203 1.327 . S
C1206 C1194 1.349 . S
C1206 H1200 0.950 . S
C1206 C1207 1.327 . S
C1207 H1201 0.950 . S
C1207 C1206 1.327 . S
C1207 C1211 1.429 . S
C1208 C1191 1.574 . S
C1208 H1202 0.949 . S
C1208 C1212 1.368 . S
C1209 C1190 1.429 . S
C1209 C1203 1.429 . S
C1209 C1210 1.523 . S
C1210 C1191 1.368 . S
C1210 C1204 1.368 . S
C1210 C1209 1.523 . S
C1211 C1195 1.429 . S
C1211 C1207 1.429 . S
C1211 C1212 1.523 . S
C1212 C1196 1.368 . S
C1212 C1208 1.368 . S
C1212 C1211 1.523 . S
H1213 C1188 0.950 . S
H1214 C1190 0.950 . S
H1215 C1191 0.949 . S
H1216 C1193 0.950 . S
H1217 C1195 0.950 . S
C1218 C1219 1.349 . S
C1218 C1220 1.327 . S
C1218 H1243 0.950 . S
C1219 C1218 1.349 . S
C1219 C1235 1.349 . S
C1220 C1218 1.327 . S
C1220 C1239 1.429 . S
C1220 H1244 0.950 . S
C1221 C1238 1.574 . S
C1221 C1240 1.368 . S
C1221 H1245 0.949 . S
H1222 C1226 0.949 . S
C1223 C1224 1.349 . S
C1223 C1225 1.327 . S
C1223 H1246 0.950 . S
C1224 C1223 1.349 . S
C1224 C1236 1.349 . S
C1225 C1223 1.327 . S
C1225 C1241 1.429 . S
C1225 H1247 0.950 . S
C1226 H1222 0.949 . S
C1226 C1234 1.574 . S
C1226 C1242 1.368 . S
H1227 C1235 0.950 . S
H1228 C1233 0.950 . S
H1229 C1234 0.949 . S
H1230 C1236 0.950 . S
H1231 C1237 0.950 . S
H1232 C1238 0.949 . S
C1233 H1228 0.950 . S
C1233 C1235 1.327 . S
C1233 C1239 1.429 . S
C1234 C1226 1.574 . S
C1234 H1229 0.949 . S
C1234 C1240 1.368 . S
C1235 C1219 1.349 . S
C1235 H1227 0.950 . S
C1235 C1233 1.327 . S
C1236 C1224 1.349 . S
C1236 H1230 0.950 . S
C1236 C1237 1.327 . S
C1237 H1231 0.950 . S
C1237 C1236 1.327 . S
C1237 C1241 1.429 . S
C1238 C1221 1.574 . S
C1238 H1232 0.949 . S
C1238 C1242 1.368 . S
C1239 C1220 1.429 . S
C1239 C1233 1.429 . S
C1239 C1240 1.523 . S
C1240 C1221 1.368 . S
C1240 C1234 1.368 . S
C1240 C1239 1.523 . S
C1241 C1225 1.429 . S
C1241 C1237 1.429 . S
C1241 C1242 1.523 . S
C1242 C1226 1.368 . S
C1242 C1238 1.368 . S
C1242 C1241 1.523 . S
H1243 C1218 0.950 . S
H1244 C1220 0.950 . S
H1245 C1221 0.949 . S
H1246 C1223 0.950 . S
H1247 C1225 0.950 . S
C1248 C1249 1.349 . S
C1248 C1250 1.327 . S
C1248 H1273 0.950 . S
C1249 C1248 1.349 . S
C1249 C1265 1.349 . S
C1250 C1248 1.327 . S
C1250 C1269 1.429 . S
C1250 H1274 0.950 . S
C1251 C1268 1.574 . S
C1251 C1270 1.368 . S
C1251 H1275 0.949 . S
H1252 C1256 0.949 . S
C1253 C1254 1.349 . S
C1253 C1255 1.327 . S
C1253 H1276 0.950 1_565 S
C1254 C1253 1.349 . S
C1254 C1266 1.349 . S
C1255 C1253 1.327 . S
C1255 C1271 1.429 . S
C1255 H1277 0.950 . S
C1256 H1252 0.949 . S
C1256 C1264 1.574 . S
C1256 C1272 1.368 . S
H1257 C1265 0.950 . S
H1258 C1263 0.950 . S
H1259 C1264 0.949 . S
H1260 C1266 0.950 . S
H1261 C1267 0.950 . S
H1262 C1268 0.949 . S
C1263 H1258 0.950 . S
C1263 C1265 1.327 . S
C1263 C1269 1.429 . S
C1264 C1256 1.574 . S
C1264 H1259 0.949 . S
C1264 C1270 1.368 . S
C1265 C1249 1.349 . S
C1265 H1257 0.950 . S
C1265 C1263 1.327 . S
C1266 C1254 1.349 . S
C1266 H1260 0.950 . S
C1266 C1267 1.327 . S
C1267 H1261 0.950 . S
C1267 C1266 1.327 . S
C1267 C1271 1.429 . S
C1268 C1251 1.574 . S
C1268 H1262 0.949 . S
C1268 C1272 1.368 . S
C1269 C1250 1.429 . S
C1269 C1263 1.429 . S
C1269 C1270 1.523 . S
C1270 C1251 1.368 . S
C1270 C1264 1.368 . S
C1270 C1269 1.523 . S
C1271 C1255 1.429 . S
C1271 C1267 1.429 . S
C1271 C1272 1.523 . S
C1272 C1256 1.368 . S
C1272 C1268 1.368 . S
C1272 C1271 1.523 . S
H1273 C1248 0.950 . S
H1274 C1250 0.950 . S
H1275 C1251 0.949 . S
H1276 C1253 0.950 1_545 S
H1277 C1255 0.950 . S
C1278 C1279 1.349 . S
C1278 C1280 1.327 . S
C1278 H1303 0.950 . S
C1279 C1278 1.349 . S
C1279 C1295 1.349 . S
C1280 C1278 1.327 . S
C1280 C1299 1.429 . S
C1280 H1304 0.950 . S
C1281 C1298 1.574 . S
C1281 C1300 1.368 . S
C1281 H1305 0.949 . S
H1282 C1286 0.949 . S
C1283 C1284 1.349 . S
C1283 C1285 1.327 . S
C1283 H1306 0.950 . S
C1284 C1283 1.349 . S
C1284 C1296 1.349 . S
C1285 C1283 1.327 . S
C1285 C1301 1.429 . S
C1285 H1307 0.950 . S
C1286 H1282 0.949 . S
C1286 C1294 1.574 . S
C1286 C1302 1.368 . S
H1287 C1295 0.950 . S
H1288 C1293 0.950 . S
H1289 C1294 0.949 . S
H1290 C1296 0.950 . S
H1291 C1297 0.950 . S
H1292 C1298 0.949 . S
C1293 H1288 0.950 . S
C1293 C1295 1.327 . S
C1293 C1299 1.429 . S
C1294 C1286 1.574 . S
C1294 H1289 0.949 . S
C1294 C1300 1.368 . S
C1295 C1279 1.349 . S
C1295 H1287 0.950 . S
C1295 C1293 1.327 . S
C1296 C1284 1.349 . S
C1296 H1290 0.950 . S
C1296 C1297 1.327 . S
C1297 H1291 0.950 . S
C1297 C1296 1.327 . S
C1297 C1301 1.429 . S
C1298 C1281 1.574 . S
C1298 H1292 0.949 . S
C1298 C1302 1.368 . S
C1299 C1280 1.429 . S
C1299 C1293 1.429 . S
C1299 C1300 1.523 . S
C1300 C1281 1.368 . S
C1300 C1294 1.368 . S
C1300 C1299 1.523 . S
C1301 C1285 1.429 . S
C1301 C1297 1.429 . S
C1301 C1302 1.523 . S
C1302 C1286 1.368 . S
C1302 C1298 1.368 . S
C1302 C1301 1.523 . S
H1303 C1278 0.950 . S
H1304 C1280 0.950 . S
H1305 C1281 0.949 . S
H1306 C1283 0.950 . S
H1307 C1285 0.950 . S
C1308 C1309 1.349 . S
C1308 C1310 1.327 . S
C1308 H1333 0.950 . S
C1309 C1308 1.349 . S
C1309 C1325 1.349 . S
C1310 C1308 1.327 . S
C1310 C1329 1.429 . S
C1310 H1334 0.950 . S
C1311 C1328 1.574 . S
C1311 C1330 1.368 . S
C1311 H1335 0.949 . S
H1312 C1316 0.949 . S
C1313 C1314 1.349 . S
C1313 C1315 1.327 . S
C1313 H1336 0.950 . S
C1314 C1313 1.349 . S
C1314 C1326 1.349 . S
C1315 C1313 1.327 . S
C1315 C1331 1.429 . S
C1315 H1337 0.950 . S
C1316 H1312 0.949 . S
C1316 C1324 1.574 . S
C1316 C1332 1.368 . S
H1317 C1325 0.950 1_455 S
H1318 C1323 0.950 1_556 S
H1319 C1324 0.949 . S
H1320 C1326 0.950 . S
H1321 C1327 0.950 . S
H1322 C1328 0.949 . S
C1323 H1318 0.950 1_554 S
C1323 C1325 1.327 . S
C1323 C1329 1.429 . S
C1324 C1316 1.574 . S
C1324 H1319 0.949 . S
C1324 C1330 1.368 . S
C1325 C1309 1.349 . S
C1325 H1317 0.950 1_655 S
C1325 C1323 1.327 . S
C1326 C1314 1.349 . S
C1326 H1320 0.950 . S
C1326 C1327 1.327 . S
C1327 H1321 0.950 . S
C1327 C1326 1.327 . S
C1327 C1331 1.429 . S
C1328 C1311 1.574 . S
C1328 H1322 0.949 . S
C1328 C1332 1.368 . S
C1329 C1310 1.429 . S
C1329 C1323 1.429 . S
C1329 C1330 1.523 1_554 S
C1330 C1311 1.368 . S
C1330 C1324 1.368 . S
C1330 C1329 1.523 1_556 S
C1331 C1315 1.429 . S
C1331 C1327 1.429 . S
C1331 C1332 1.523 . S
C1332 C1316 1.368 . S
C1332 C1328 1.368 . S
C1332 C1331 1.523 . S
H1333 C1308 0.950 . S
H1334 C1310 0.950 . S
H1335 C1311 0.949 . S
H1336 C1313 0.950 . S
H1337 C1315 0.950 . S
C1338 C1339 1.349 . S
C1338 C1340 1.327 . S
C1338 H1363 0.950 . S
C1339 C1338 1.349 . S
C1339 C1355 1.349 . S
C1340 C1338 1.327 . S
C1340 C1359 1.429 . S
C1340 H1364 0.950 . S
C1341 C1358 1.574 . S
C1341 C1360 1.368 . S
C1341 H1365 0.949 . S
H1342 C1346 0.949 . S
C1343 C1344 1.349 . S
C1343 C1345 1.327 . S
C1343 H1366 0.950 . S
C1344 C1343 1.349 . S
C1344 C1356 1.349 . S
C1345 C1343 1.327 . S
C1345 C1361 1.429 . S
C1345 H1367 0.950 . S
C1346 H1342 0.949 . S
C1346 C1354 1.574 . S
C1346 C1362 1.368 . S
H1347 C1355 0.950 . S
H1348 C1353 0.950 . S
H1349 C1354 0.949 . S
H1350 C1356 0.950 . S
H1351 C1357 0.950 . S
H1352 C1358 0.949 . S
C1353 H1348 0.950 . S
C1353 C1355 1.327 . S
C1353 C1359 1.429 . S
C1354 C1346 1.574 . S
C1354 H1349 0.949 . S
C1354 C1360 1.368 . S
C1355 C1339 1.349 . S
C1355 H1347 0.950 . S
C1355 C1353 1.327 . S
C1356 C1344 1.349 . S
C1356 H1350 0.950 . S
C1356 C1357 1.327 . S
C1357 H1351 0.950 . S
C1357 C1356 1.327 . S
C1357 C1361 1.429 . S
C1358 C1341 1.574 . S
C1358 H1352 0.949 . S
C1358 C1362 1.368 . S
C1359 C1340 1.429 . S
C1359 C1353 1.429 . S
C1359 C1360 1.523 . S
C1360 C1341 1.368 . S
C1360 C1354 1.368 . S
C1360 C1359 1.523 . S
C1361 C1345 1.429 . S
C1361 C1357 1.429 . S
C1361 C1362 1.523 . S
C1362 C1346 1.368 . S
C1362 C1358 1.368 . S
C1362 C1361 1.523 . S
H1363 C1338 0.950 . S
H1364 C1340 0.950 . S
H1365 C1341 0.949 . S
H1366 C1343 0.950 . S
H1367 C1345 0.950 . S
C1368 C1369 1.349 . S
C1368 C1370 1.327 . S
C1368 H1393 0.950 . S
C1369 C1368 1.349 . S
C1369 C1385 1.349 . S
C1370 C1368 1.327 . S
C1370 C1389 1.429 1_556 S
C1370 H1394 0.950 . S
C1371 C1388 1.574 . S
C1371 C1390 1.368 . S
C1371 H1395 0.949 . S
H1372 C1376 0.949 . S
C1373 C1374 1.349 . S
C1373 C1375 1.327 . S
C1373 H1396 0.950 . S
C1374 C1373 1.349 . S
C1374 C1386 1.349 . S
C1375 C1373 1.327 . S
C1375 C1391 1.429 . S
C1375 H1397 0.950 . S
C1376 H1372 0.949 . S
C1376 C1384 1.574 . S
C1376 C1392 1.368 . S
H1377 C1385 0.950 . S
H1378 C1383 0.950 . S
H1379 C1384 0.949 . S
H1380 C1386 0.950 . S
H1381 C1387 0.950 . S
H1382 C1388 0.949 . S
C1383 H1378 0.950 . S
C1383 C1385 1.327 1_554 S
C1383 C1389 1.429 . S
C1384 C1376 1.574 . S
C1384 H1379 0.949 . S
C1384 C1390 1.368 . S
C1385 C1369 1.349 . S
C1385 H1377 0.950 . S
C1385 C1383 1.327 1_556 S
C1386 C1374 1.349 . S
C1386 H1380 0.950 . S
C1386 C1387 1.327 . S
C1387 H1381 0.950 . S
C1387 C1386 1.327 . S
C1387 C1391 1.429 . S
C1388 C1371 1.574 . S
C1388 H1382 0.949 . S
C1388 C1392 1.368 . S
C1389 C1370 1.429 1_554 S
C1389 C1383 1.429 . S
C1389 C1390 1.523 . S
C1390 C1371 1.368 . S
C1390 C1384 1.368 . S
C1390 C1389 1.523 . S
C1391 C1375 1.429 . S
C1391 C1387 1.429 . S
C1391 C1392 1.523 . S
C1392 C1376 1.368 . S
C1392 C1388 1.368 . S
C1392 C1391 1.523 . S
H1393 C1368 0.950 . S
H1394 C1370 0.950 . S
H1395 C1371 0.949 . S
H1396 C1373 0.950 . S
H1397 C1375 0.950 . S
C1398 C1399 1.349 . S
C1398 C1400 1.327 . S
C1398 H1423 0.950 . S
C1399 C1398 1.349 . S
C1399 C1415 1.349 . S
C1400 C1398 1.327 . S
C1400 C1419 1.429 . S
C1400 H1424 0.950 . S
C1401 C1418 1.574 . S
C1401 C1420 1.368 . S
C1401 H1425 0.949 . S
H1402 C1406 0.949 . S
C1403 C1404 1.349 . S
C1403 C1405 1.327 . S
C1403 H1426 0.950 . S
C1404 C1403 1.349 . S
C1404 C1416 1.349 . S
C1405 C1403 1.327 . S
C1405 C1421 1.429 . S
C1405 H1427 0.950 . S
C1406 H1402 0.949 . S
C1406 C1414 1.574 . S
C1406 C1422 1.368 . S
H1407 C1415 0.950 . S
H1408 C1413 0.950 . S
H1409 C1414 0.949 . S
H1410 C1416 0.950 . S
H1411 C1417 0.950 . S
H1412 C1418 0.949 . S
C1413 H1408 0.950 . S
C1413 C1415 1.327 . S
C1413 C1419 1.429 . S
C1414 C1406 1.574 . S
C1414 H1409 0.949 . S
C1414 C1420 1.368 . S
C1415 C1399 1.349 . S
C1415 H1407 0.950 . S
C1415 C1413 1.327 . S
C1416 C1404 1.349 . S
C1416 H1410 0.950 . S
C1416 C1417 1.327 . S
C1417 H1411 0.950 . S
C1417 C1416 1.327 . S
C1417 C1421 1.429 . S
C1418 C1401 1.574 . S
C1418 H1412 0.949 . S
C1418 C1422 1.368 . S
C1419 C1400 1.429 . S
C1419 C1413 1.429 . S
C1419 C1420 1.523 . S
C1420 C1401 1.368 . S
C1420 C1414 1.368 . S
C1420 C1419 1.523 . S
C1421 C1405 1.429 . S
C1421 C1417 1.429 . S
C1421 C1422 1.523 . S
C1422 C1406 1.368 . S
C1422 C1418 1.368 . S
C1422 C1421 1.523 . S
H1423 C1398 0.950 . S
H1424 C1400 0.950 . S
H1425 C1401 0.949 . S
H1426 C1403 0.950 . S
H1427 C1405 0.950 . S
C1428 C1429 1.349 . S
C1428 C1430 1.327 . S
C1428 H1453 0.950 1_655 S
C1429 C1428 1.349 . S
C1429 C1445 1.349 . S
C1430 C1428 1.327 . S
C1430 C1449 1.429 . S
C1430 H1454 0.950 1_655 S
C1431 C1448 1.574 . S
C1431 C1450 1.368 . S
C1431 H1455 0.949 . S
H1432 C1436 0.949 . S
C1433 C1434 1.349 . S
C1433 C1435 1.327 . S
C1433 H1456 0.950 . S
C1434 C1433 1.349 . S
C1434 C1446 1.349 . S
C1435 C1433 1.327 . S
C1435 C1451 1.429 . S
C1435 H1457 0.950 . S
C1436 H1432 0.949 . S
C1436 C1444 1.574 . S
C1436 C1452 1.368 . S
H1437 C1445 0.950 . S
H1438 C1443 0.950 . S
H1439 C1444 0.950 . S
H1440 C1446 0.950 . S
H1441 C1447 0.950 . S
H1442 C1448 0.949 . S
C1443 H1438 0.950 . S
C1443 C1445 1.327 . S
C1443 C1449 1.429 . S
C1444 C1436 1.574 . S
C1444 H1439 0.950 . S
C1444 C1450 1.368 . S
C1445 C1429 1.349 . S
C1445 H1437 0.950 . S
C1445 C1443 1.327 . S
C1446 C1434 1.349 . S
C1446 H1440 0.950 . S
C1446 C1447 1.327 . S
C1447 H1441 0.950 . S
C1447 C1446 1.327 . S
C1447 C1451 1.429 . S
C1448 C1431 1.574 . S
C1448 H1442 0.949 . S
C1448 C1452 1.368 . S
C1449 C1430 1.429 . S
C1449 C1443 1.429 . S
C1449 C1450 1.523 . S
C1450 C1431 1.368 . S
C1450 C1444 1.368 . S
C1450 C1449 1.523 . S
C1451 C1435 1.429 . S
C1451 C1447 1.429 . S
C1451 C1452 1.523 . S
C1452 C1436 1.368 . S
C1452 C1448 1.368 . S
C1452 C1451 1.523 . S
H1453 C1428 0.950 1_455 S
H1454 C1430 0.950 1_455 S
H1455 C1431 0.949 . S
H1456 C1433 0.950 . S
H1457 C1435 0.950 . S
C1458 C1459 1.349 . S
C1458 C1460 1.327 . S
C1458 H1483 0.950 . S
C1459 C1458 1.349 . S
C1459 C1475 1.349 . S
C1460 C1458 1.327 . S
C1460 C1479 1.429 . S
C1460 H1484 0.950 . S
C1461 C1478 1.574 . S
C1461 C1480 1.368 . S
C1461 H1485 0.949 . S
H1462 C1466 0.949 . S
C1463 C1464 1.349 . S
C1463 C1465 1.327 . S
C1463 H1486 0.950 . S
C1464 C1463 1.349 . S
C1464 C1476 1.349 . S
C1465 C1463 1.327 . S
C1465 C1481 1.429 . S
C1465 H1487 0.950 . S
C1466 H1462 0.949 . S
C1466 C1474 1.574 . S
C1466 C1482 1.368 . S
H1467 C1475 0.950 . S
H1468 C1473 0.950 . S
H1469 C1474 0.949 . S
H1470 C1476 0.950 . S
H1471 C1477 0.950 . S
H1472 C1478 0.949 . S
C1473 H1468 0.950 . S
C1473 C1475 1.327 . S
C1473 C1479 1.429 . S
C1474 C1466 1.574 . S
C1474 H1469 0.949 . S
C1474 C1480 1.368 . S
C1475 C1459 1.349 . S
C1475 H1467 0.950 . S
C1475 C1473 1.327 . S
C1476 C1464 1.349 . S
C1476 H1470 0.950 . S
C1476 C1477 1.327 . S
C1477 H1471 0.950 . S
C1477 C1476 1.327 . S
C1477 C1481 1.429 . S
C1478 C1461 1.574 . S
C1478 H1472 0.949 . S
C1478 C1482 1.368 . S
C1479 C1460 1.429 . S
C1479 C1473 1.429 . S
C1479 C1480 1.523 . S
C1480 C1461 1.368 . S
C1480 C1474 1.368 . S
C1480 C1479 1.523 . S
C1481 C1465 1.429 . S
C1481 C1477 1.429 . S
C1481 C1482 1.523 . S
C1482 C1466 1.368 . S
C1482 C1478 1.368 . S
C1482 C1481 1.523 . S
H1483 C1458 0.950 . S
H1484 C1460 0.950 . S
H1485 C1461 0.949 . S
H1486 C1463 0.950 . S
H1487 C1465 0.950 . S
C1488 C1489 1.349 . S
C1488 C1490 1.327 . S
C1488 H1513 0.950 . S
C1489 C1488 1.349 . S
C1489 C1505 1.349 . S
C1490 C1488 1.327 . S
C1490 C1509 1.429 . S
C1490 H1514 0.950 . S
C1491 C1508 1.574 . S
C1491 C1510 1.368 . S
C1491 H1515 0.949 . S
H1492 C1496 0.949 . S
C1493 C1494 1.349 . S
C1493 C1495 1.327 . S
C1493 H1516 0.950 . S
C1494 C1493 1.349 . S
C1494 C1506 1.349 . S
C1495 C1493 1.327 . S
C1495 C1511 1.429 . S
C1495 H1517 0.950 . S
C1496 H1492 0.949 . S
C1496 C1504 1.574 . S
C1496 C1512 1.368 . S
H1497 C1505 0.950 . S
H1498 C1503 0.950 . S
H1499 C1504 0.949 . S
H1500 C1506 0.950 . S
H1501 C1507 0.950 . S
H1502 C1508 0.949 . S
C1503 H1498 0.950 . S
C1503 C1505 1.327 . S
C1503 C1509 1.429 . S
C1504 C1496 1.574 . S
C1504 H1499 0.949 . S
C1504 C1510 1.368 . S
C1505 C1489 1.349 . S
C1505 H1497 0.950 . S
C1505 C1503 1.327 . S
C1506 C1494 1.349 . S
C1506 H1500 0.950 . S
C1506 C1507 1.327 . S
C1507 H1501 0.950 . S
C1507 C1506 1.327 . S
C1507 C1511 1.429 . S
C1508 C1491 1.574 . S
C1508 H1502 0.949 . S
C1508 C1512 1.368 . S
C1509 C1490 1.429 . S
C1509 C1503 1.429 . S
C1509 C1510 1.523 . S
C1510 C1491 1.368 . S
C1510 C1504 1.368 . S
C1510 C1509 1.523 . S
C1511 C1495 1.429 . S
C1511 C1507 1.429 . S
C1511 C1512 1.523 . S
C1512 C1496 1.368 . S
C1512 C1508 1.368 . S
C1512 C1511 1.523 . S
H1513 C1488 0.950 . S
H1514 C1490 0.950 . S
H1515 C1491 0.949 . S
H1516 C1493 0.950 . S
H1517 C1495 0.950 . S
C1518 C1519 1.349 . S
C1518 C1520 1.327 . S
C1518 H1543 0.950 . S
C1519 C1518 1.349 . S
C1519 C1535 1.349 . S
C1520 C1518 1.327 . S
C1520 C1539 1.429 . S
C1520 H1544 0.950 . S
C1521 C1538 1.574 . S
C1521 C1540 1.368 . S
C1521 H1545 0.949 . S
H1522 C1526 0.949 . S
C1523 C1524 1.349 . S
C1523 C1525 1.327 . S
C1523 H1546 0.950 . S
C1524 C1523 1.349 . S
C1524 C1536 1.349 . S
C1525 C1523 1.327 . S
C1525 C1541 1.429 . S
C1525 H1547 0.950 . S
C1526 H1522 0.949 . S
C1526 C1534 1.574 . S
C1526 C1542 1.368 . S
H1527 C1535 0.950 . S
H1528 C1533 0.950 . S
H1529 C1534 0.949 . S
H1530 C1536 0.950 . S
H1531 C1537 0.950 . S
H1532 C1538 0.949 . S
C1533 H1528 0.950 . S
C1533 C1535 1.327 . S
C1533 C1539 1.429 . S
C1534 C1526 1.574 . S
C1534 H1529 0.949 . S
C1534 C1540 1.368 . S
C1535 C1519 1.349 . S
C1535 H1527 0.950 . S
C1535 C1533 1.327 . S
C1536 C1524 1.349 . S
C1536 H1530 0.950 . S
C1536 C1537 1.327 . S
C1537 H1531 0.950 . S
C1537 C1536 1.327 . S
C1537 C1541 1.429 . S
C1538 C1521 1.574 . S
C1538 H1532 0.949 . S
C1538 C1542 1.368 . S
C1539 C1520 1.429 . S
C1539 C1533 1.429 . S
C1539 C1540 1.523 . S
C1540 C1521 1.368 . S
C1540 C1534 1.368 . S
C1540 C1539 1.523 . S
C1541 C1525 1.429 . S
C1541 C1537 1.429 . S
C1541 C1542 1.523 . S
C1542 C1526 1.368 . S
C1542 C1538 1.368 . S
C1542 C1541 1.523 . S
H1543 C1518 0.950 . S
H1544 C1520 0.950 . S
H1545 C1521 0.949 . S
H1546 C1523 0.950 . S
H1547 C1525 0.950 . S
C1548 C1549 1.349 1_455 S
C1548 C1550 1.327 . S
C1548 H1573 0.947 1_455 S
C1549 C1548 1.349 1_655 S
C1549 C1565 1.349 . S
C1550 C1548 1.327 . S
C1550 C1569 1.429 . S
C1550 H1574 0.950 . S
C1551 C1568 1.574 . S
C1551 C1570 1.368 . S
C1551 H1575 0.949 . S
H1552 C1556 0.949 . S
C1553 C1554 1.349 . S
C1553 C1555 1.327 . S
C1553 H1576 0.950 . S
C1554 C1553 1.349 . S
C1554 C1566 1.349 . S
C1555 C1553 1.327 . S
C1555 C1571 1.429 . S
C1555 H1577 0.950 . S
C1556 H1552 0.949 . S
C1556 C1564 1.574 . S
C1556 C1572 1.368 . S
H1557 C1565 0.950 . S
H1558 C1563 0.950 . S
H1559 C1564 0.949 . S
H1560 C1566 0.950 . S
H1561 C1567 0.950 . S
H1562 C1568 0.949 . S
C1563 H1558 0.950 . S
C1563 C1565 1.327 1_455 S
C1563 C1569 1.429 . S
C1564 C1556 1.574 . S
C1564 H1559 0.949 . S
C1564 C1570 1.368 . S
C1565 C1549 1.349 . S
C1565 H1557 0.950 . S
C1565 C1563 1.327 1_655 S
C1566 C1554 1.349 . S
C1566 H1560 0.950 . S
C1566 C1567 1.327 . S
C1567 H1561 0.950 . S
C1567 C1566 1.327 . S
C1567 C1571 1.429 . S
C1568 C1551 1.574 . S
C1568 H1562 0.949 . S
C1568 C1572 1.368 . S
C1569 C1550 1.429 . S
C1569 C1563 1.429 . S
C1569 C1570 1.523 . S
C1570 C1551 1.368 . S
C1570 C1564 1.368 . S
C1570 C1569 1.523 . S
C1571 C1555 1.429 . S
C1571 C1567 1.429 . S
C1571 C1572 1.523 . S
C1572 C1556 1.368 . S
C1572 C1568 1.368 . S
C1572 C1571 1.523 . S
H1573 C1548 0.947 1_655 S
H1574 C1550 0.950 . S
H1575 C1551 0.949 . S
H1576 C1553 0.950 . S
H1577 C1555 0.950 . S
C1578 C1579 1.349 . S
C1578 C1580 1.327 . S
C1578 H1603 0.950 . S
C1579 C1578 1.349 . S
C1579 C1595 1.349 . S
C1580 C1578 1.327 . S
C1580 C1599 1.429 . S
C1580 H1604 0.950 . S
C1581 C1598 1.574 . S
C1581 C1600 1.368 . S
C1581 H1605 0.949 . S
H1582 C1586 0.949 . S
C1583 C1584 1.349 . S
C1583 C1585 1.327 . S
C1583 H1606 0.950 . S
C1584 C1583 1.349 . S
C1584 C1596 1.349 . S
C1585 C1583 1.327 . S
C1585 C1601 1.429 . S
C1585 H1607 0.950 . S
C1586 H1582 0.949 . S
C1586 C1594 1.574 . S
C1586 C1602 1.368 . S
H1587 C1595 0.950 . S
H1588 C1593 0.950 . S
H1589 C1594 0.949 . S
H1590 C1596 0.950 . S
H1591 C1597 0.950 . S
H1592 C1598 0.949 . S
C1593 H1588 0.950 . S
C1593 C1595 1.327 . S
C1593 C1599 1.429 . S
C1594 C1586 1.574 . S
C1594 H1589 0.949 . S
C1594 C1600 1.368 . S
C1595 C1579 1.349 . S
C1595 H1587 0.950 . S
C1595 C1593 1.327 . S
C1596 C1584 1.349 . S
C1596 H1590 0.950 . S
C1596 C1597 1.327 . S
C1597 H1591 0.950 . S
C1597 C1596 1.327 . S
C1597 C1601 1.429 . S
C1598 C1581 1.574 . S
C1598 H1592 0.949 . S
C1598 C1602 1.368 . S
C1599 C1580 1.429 . S
C1599 C1593 1.429 . S
C1599 C1600 1.523 . S
C1600 C1581 1.368 . S
C1600 C1594 1.368 . S
C1600 C1599 1.523 . S
C1601 C1585 1.429 . S
C1601 C1597 1.429 . S
C1601 C1602 1.523 . S
C1602 C1586 1.368 . S
C1602 C1598 1.368 . S
C1602 C1601 1.523 . S
H1603 C1578 0.950 . S
H1604 C1580 0.950 . S
H1605 C1581 0.949 . S
H1606 C1583 0.950 . S
H1607 C1585 0.950 . S
C1608 C1609 1.349 . S
C1608 C1610 1.327 . S
C1608 H1633 0.950 . S
C1609 C1608 1.349 . S
C1609 C1625 1.349 . S
C1610 C1608 1.327 . S
C1610 C1629 1.429 . S
C1610 H1634 0.950 . S
C1611 C1628 1.574 . S
C1611 C1630 1.368 . S
C1611 H1635 0.949 . S
H1612 C1616 0.949 . S
C1613 C1614 1.349 . S
C1613 C1615 1.327 . S
C1613 H1636 0.950 . S
C1614 C1613 1.349 . S
C1614 C1626 1.349 . S
C1615 C1613 1.327 . S
C1615 C1631 1.429 . S
C1615 H1637 0.950 . S
C1616 H1612 0.949 . S
C1616 C1624 1.574 . S
C1616 C1632 1.368 . S
H1617 C1625 0.950 . S
H1618 C1623 0.950 . S
H1619 C1624 0.949 . S
H1620 C1626 0.950 . S
H1621 C1627 0.950 . S
H1622 C1628 0.949 . S
C1623 H1618 0.950 . S
C1623 C1625 1.327 . S
C1623 C1629 1.429 . S
C1624 C1616 1.574 . S
C1624 H1619 0.949 . S
C1624 C1630 1.368 . S
C1625 C1609 1.349 . S
C1625 H1617 0.950 . S
C1625 C1623 1.327 . S
C1626 C1614 1.349 . S
C1626 H1620 0.950 . S
C1626 C1627 1.327 . S
C1627 H1621 0.950 . S
C1627 C1626 1.327 . S
C1627 C1631 1.429 . S
C1628 C1611 1.574 . S
C1628 H1622 0.949 . S
C1628 C1632 1.368 . S
C1629 C1610 1.429 . S
C1629 C1623 1.429 . S
C1629 C1630 1.523 . S
C1630 C1611 1.368 . S
C1630 C1624 1.368 . S
C1630 C1629 1.523 . S
C1631 C1615 1.429 . S
C1631 C1627 1.429 . S
C1631 C1632 1.523 . S
C1632 C1616 1.368 . S
C1632 C1628 1.368 . S
C1632 C1631 1.523 . S
H1633 C1608 0.950 . S
H1634 C1610 0.950 . S
H1635 C1611 0.949 . S
H1636 C1613 0.950 . S
H1637 C1615 0.950 . S
C1638 C1639 1.349 . S
C1638 C1640 1.327 . S
C1638 H1663 0.950 . S
C1639 C1638 1.349 . S
C1639 C1655 1.349 . S
C1640 C1638 1.327 . S
C1640 C1659 1.429 . S
C1640 H1664 0.950 . S
C1641 C1658 1.574 . S
C1641 C1660 1.368 . S
C1641 H1665 0.949 . S
H1642 C1646 0.949 . S
C1643 C1644 1.349 . S
C1643 C1645 1.327 . S
C1643 H1666 0.950 . S
C1644 C1643 1.349 . S
C1644 C1656 1.349 . S
C1645 C1643 1.327 . S
C1645 C1661 1.429 . S
C1645 H1667 0.950 . S
C1646 H1642 0.949 . S
C1646 C1654 1.574 . S
C1646 C1662 1.368 . S
H1647 C1655 0.950 . S
H1648 C1653 0.950 . S
H1649 C1654 0.949 . S
H1650 C1656 0.950 . S
H1651 C1657 0.950 . S
H1652 C1658 0.949 . S
C1653 H1648 0.950 . S
C1653 C1655 1.327 . S
C1653 C1659 1.429 . S
C1654 C1646 1.574 . S
C1654 H1649 0.949 . S
C1654 C1660 1.368 . S
C1655 C1639 1.349 . S
C1655 H1647 0.950 . S
C1655 C1653 1.327 . S
C1656 C1644 1.349 . S
C1656 H1650 0.950 . S
C1656 C1657 1.327 . S
C1657 H1651 0.950 . S
C1657 C1656 1.327 . S
C1657 C1661 1.429 . S
C1658 C1641 1.574 . S
C1658 H1652 0.949 . S
C1658 C1662 1.368 . S
C1659 C1640 1.429 . S
C1659 C1653 1.429 . S
C1659 C1660 1.523 . S
C1660 C1641 1.368 . S
C1660 C1654 1.368 . S
C1660 C1659 1.523 . S
C1661 C1645 1.429 . S
C1661 C1657 1.429 . S
C1661 C1662 1.523 . S
C1662 C1646 1.368 . S
C1662 C1658 1.368 . S
C1662 C1661 1.523 . S
H1663 C1638 0.950 . S
H1664 C1640 0.950 . S
H1665 C1641 0.949 . S
H1666 C1643 0.950 . S
H1667 C1645 0.950 . S
C1668 C1669 1.349 . S
C1668 C1670 1.327 1_655 S
C1668 H1693 0.950 . S
C1669 C1668 1.349 . S
C1669 C1685 1.349 . S
C1670 C1668 1.327 1_455 S
C1670 C1689 1.429 . S
C1670 H1694 0.950 . S
C1671 C1688 1.574 . S
C1671 C1690 1.368 . S
C1671 H1695 0.949 . S
H1672 C1676 0.949 . S
C1673 C1674 1.349 . S
C1673 C1675 1.327 . S
C1673 H1696 0.950 . S
C1674 C1673 1.349 . S
C1674 C1686 1.349 . S
C1675 C1673 1.327 . S
C1675 C1691 1.429 . S
C1675 H1697 0.950 . S
C1676 H1672 0.949 . S
C1676 C1684 1.574 . S
C1676 C1692 1.368 . S
H1677 C1685 0.950 . S
H1678 C1683 0.950 1_455 S
H1679 C1684 0.949 . S
H1680 C1686 0.950 . S
H1681 C1687 0.950 . S
H1682 C1688 0.949 . S
C1683 H1678 0.950 1_655 S
C1683 C1685 1.327 . S
C1683 C1689 1.429 1_655 S
C1684 C1676 1.574 . S
C1684 H1679 0.949 . S
C1684 C1690 1.368 . S
C1685 C1669 1.349 . S
C1685 H1677 0.950 . S
C1685 C1683 1.327 . S
C1686 C1674 1.349 . S
C1686 H1680 0.950 . S
C1686 C1687 1.327 . S
C1687 H1681 0.950 . S
C1687 C1686 1.327 . S
C1687 C1691 1.429 . S
C1688 C1671 1.574 . S
C1688 H1682 0.949 . S
C1688 C1692 1.368 . S
C1689 C1670 1.429 . S
C1689 C1683 1.429 1_455 S
C1689 C1690 1.523 . S
C1690 C1671 1.368 . S
C1690 C1684 1.368 . S
C1690 C1689 1.523 . S
C1691 C1675 1.429 . S
C1691 C1687 1.429 . S
C1691 C1692 1.523 . S
C1692 C1676 1.368 . S
C1692 C1688 1.368 . S
C1692 C1691 1.523 . S
H1693 C1668 0.950 . S
H1694 C1670 0.950 . S
H1695 C1671 0.949 . S
H1696 C1673 0.950 . S
H1697 C1675 0.950 . S
C1698 C1699 1.349 . S
C1698 C1700 1.327 . S
C1698 H1723 0.950 . S
C1699 C1698 1.349 . S
C1699 C1715 1.349 . S
C1700 C1698 1.327 . S
C1700 C1719 1.429 . S
C1700 H1724 0.950 . S
C1701 C1718 1.574 . S
C1701 C1720 1.368 . S
C1701 H1725 0.949 . S
H1702 C1706 0.949 . S
C1703 C1704 1.349 . S
C1703 C1705 1.327 . S
C1703 H1726 0.950 1_565 S
C1704 C1703 1.349 . S
C1704 C1716 1.349 . S
C1705 C1703 1.327 . S
C1705 C1721 1.429 . S
C1705 H1727 0.950 . S
C1706 H1702 0.949 . S
C1706 C1714 1.574 . S
C1706 C1722 1.368 . S
H1707 C1715 0.950 . S
H1708 C1713 0.950 . S
H1709 C1714 0.949 . S
H1710 C1716 0.950 . S
H1711 C1717 0.950 . S
H1712 C1718 0.949 . S
C1713 H1708 0.950 . S
C1713 C1715 1.327 . S
C1713 C1719 1.429 . S
C1714 C1706 1.574 . S
C1714 H1709 0.949 . S
C1714 C1720 1.368 . S
C1715 C1699 1.349 . S
C1715 H1707 0.950 . S
C1715 C1713 1.327 . S
C1716 C1704 1.349 . S
C1716 H1710 0.950 . S
C1716 C1717 1.327 . S
C1717 H1711 0.950 . S
C1717 C1716 1.327 . S
C1717 C1721 1.429 . S
C1718 C1701 1.574 . S
C1718 H1712 0.949 . S
C1718 C1722 1.368 . S
C1719 C1700 1.429 . S
C1719 C1713 1.429 . S
C1719 C1720 1.523 . S
C1720 C1701 1.368 . S
C1720 C1714 1.368 . S
C1720 C1719 1.523 . S
C1721 C1705 1.429 . S
C1721 C1717 1.429 . S
C1721 C1722 1.523 . S
C1722 C1706 1.368 . S
C1722 C1718 1.368 . S
C1722 C1721 1.523 . S
H1723 C1698 0.950 . S
H1724 C1700 0.950 . S
H1725 C1701 0.949 . S
H1726 C1703 0.950 1_545 S
H1727 C1705 0.950 . S
C1728 C1729 1.349 . S
C1728 C1730 1.327 . S
C1728 H1753 0.950 . S
C1729 C1728 1.349 . S
C1729 C1745 1.349 . S
C1730 C1728 1.327 . S
C1730 C1749 1.429 . S
C1730 H1754 0.950 . S
C1731 C1748 1.574 . S
C1731 C1750 1.368 . S
C1731 H1755 0.949 . S
H1732 C1736 0.949 . S
C1733 C1734 1.349 . S
C1733 C1735 1.327 . S
C1733 H1756 0.950 . S
C1734 C1733 1.349 . S
C1734 C1746 1.349 . S
C1735 C1733 1.327 . S
C1735 C1751 1.429 . S
C1735 H1757 0.950 . S
C1736 H1732 0.949 . S
C1736 C1744 1.574 . S
C1736 C1752 1.368 . S
H1737 C1745 0.950 . S
H1738 C1743 0.950 . S
H1739 C1744 0.949 . S
H1740 C1746 0.950 . S
H1741 C1747 0.950 . S
H1742 C1748 0.949 . S
C1743 H1738 0.950 . S
C1743 C1745 1.327 . S
C1743 C1749 1.429 . S
C1744 C1736 1.574 . S
C1744 H1739 0.949 . S
C1744 C1750 1.368 . S
C1745 C1729 1.349 . S
C1745 H1737 0.950 . S
C1745 C1743 1.327 . S
C1746 C1734 1.349 . S
C1746 H1740 0.950 . S
C1746 C1747 1.327 . S
C1747 H1741 0.950 . S
C1747 C1746 1.327 . S
C1747 C1751 1.429 . S
C1748 C1731 1.574 . S
C1748 H1742 0.949 . S
C1748 C1752 1.368 . S
C1749 C1730 1.429 . S
C1749 C1743 1.429 . S
C1749 C1750 1.523 . S
C1750 C1731 1.368 . S
C1750 C1744 1.368 . S
C1750 C1749 1.523 . S
C1751 C1735 1.429 . S
C1751 C1747 1.429 . S
C1751 C1752 1.523 . S
C1752 C1736 1.368 . S
C1752 C1748 1.368 . S
C1752 C1751 1.523 . S
H1753 C1728 0.950 . S
H1754 C1730 0.950 . S
H1755 C1731 0.949 . S
H1756 C1733 0.950 . S
H1757 C1735 0.950 . S
C1758 C1759 1.349 1_545 S
C1758 C1760 1.327 . S
C1758 H1783 0.950 1_545 S
C1759 C1758 1.349 1_565 S
C1759 C1775 1.349 . S
C1760 C1758 1.327 . S
C1760 C1779 1.429 . S
C1760 H1784 0.950 . S
C1761 C1778 1.574 . S
C1761 C1780 1.368 . S
C1761 H1785 0.949 . S
H1762 C1766 0.949 . S
C1763 C1764 1.349 . S
C1763 C1765 1.327 . S
C1763 H1786 0.950 . S
C1764 C1763 1.349 . S
C1764 C1776 1.349 . S
C1765 C1763 1.327 . S
C1765 C1781 1.429 . S
C1765 H1787 0.950 . S
C1766 H1762 0.949 . S
C1766 C1774 1.574 . S
C1766 C1782 1.368 . S
H1767 C1775 0.950 . S
H1768 C1773 0.950 . S
H1769 C1774 0.949 . S
H1770 C1776 0.950 . S
H1771 C1777 0.950 . S
H1772 C1778 0.949 . S
C1773 H1768 0.950 . S
C1773 C1775 1.327 1_545 S
C1773 C1779 1.429 . S
C1774 C1766 1.574 . S
C1774 H1769 0.949 . S
C1774 C1780 1.368 . S
C1775 C1759 1.349 . S
C1775 H1767 0.950 . S
C1775 C1773 1.327 1_565 S
C1776 C1764 1.349 . S
C1776 H1770 0.950 . S
C1776 C1777 1.327 . S
C1777 H1771 0.950 . S
C1777 C1776 1.327 . S
C1777 C1781 1.429 . S
C1778 C1761 1.574 . S
C1778 H1772 0.949 . S
C1778 C1782 1.368 . S
C1779 C1760 1.429 . S
C1779 C1773 1.429 . S
C1779 C1780 1.523 . S
C1780 C1761 1.368 . S
C1780 C1774 1.368 . S
C1780 C1779 1.523 . S
C1781 C1765 1.429 . S
C1781 C1777 1.429 . S
C1781 C1782 1.523 . S
C1782 C1766 1.368 . S
C1782 C1778 1.368 . S
C1782 C1781 1.523 . S
H1783 C1758 0.950 1_565 S
H1784 C1760 0.950 . S
H1785 C1761 0.949 . S
H1786 C1763 0.950 . S
H1787 C1765 0.950 . S
C1788 C1789 1.349 . S
C1788 C1790 1.327 . S
C1788 H1813 0.950 . S
C1789 C1788 1.349 . S
C1789 C1805 1.349 . S
C1790 C1788 1.327 . S
C1790 C1809 1.429 . S
C1790 H1814 0.950 . S
C1791 C1808 1.574 . S
C1791 C1810 1.368 . S
C1791 H1815 0.949 . S
H1792 C1796 0.949 . S
C1793 C1794 1.349 . S
C1793 C1795 1.327 . S
C1793 H1816 0.950 . S
C1794 C1793 1.349 . S
C1794 C1806 1.349 . S
C1795 C1793 1.327 . S
C1795 C1811 1.429 . S
C1795 H1817 0.950 . S
C1796 H1792 0.949 . S
C1796 C1804 1.574 . S
C1796 C1812 1.368 . S
H1797 C1805 0.950 . S
H1798 C1803 0.950 . S
H1799 C1804 0.949 . S
H1800 C1806 0.950 . S
H1801 C1807 0.950 . S
H1802 C1808 0.949 . S
C1803 H1798 0.950 . S
C1803 C1805 1.327 . S
C1803 C1809 1.429 . S
C1804 C1796 1.574 . S
C1804 H1799 0.949 . S
C1804 C1810 1.368 . S
C1805 C1789 1.349 . S
C1805 H1797 0.950 . S
C1805 C1803 1.327 . S
C1806 C1794 1.349 . S
C1806 H1800 0.950 . S
C1806 C1807 1.327 . S
C1807 H1801 0.950 . S
C1807 C1806 1.327 . S
C1807 C1811 1.429 . S
C1808 C1791 1.574 . S
C1808 H1802 0.949 . S
C1808 C1812 1.368 . S
C1809 C1790 1.429 . S
C1809 C1803 1.429 . S
C1809 C1810 1.523 . S
C1810 C1791 1.368 . S
C1810 C1804 1.368 . S
C1810 C1809 1.523 . S
C1811 C1795 1.429 . S
C1811 C1807 1.429 . S
C1811 C1812 1.523 . S
C1812 C1796 1.368 . S
C1812 C1808 1.368 . S
C1812 C1811 1.523 . S
H1813 C1788 0.950 . S
H1814 C1790 0.950 . S
H1815 C1791 0.949 . S
H1816 C1793 0.950 . S
H1817 C1795 0.950 . S
C1818 C1819 1.349 . S
C1818 C1820 1.327 . S
C1818 H1843 0.950 . S
C1819 C1818 1.349 . S
C1819 C1835 1.349 . S
C1820 C1818 1.327 . S
C1820 C1839 1.429 . S
C1820 H1844 0.950 . S
C1821 C1838 1.574 . S
C1821 C1840 1.368 . S
C1821 H1845 0.949 . S
H1822 C1826 0.949 . S
C1823 C1824 1.349 . S
C1823 C1825 1.327 . S
C1823 H1846 0.950 . S
C1824 C1823 1.349 . S
C1824 C1836 1.349 . S
C1825 C1823 1.327 . S
C1825 C1841 1.429 . S
C1825 H1847 0.950 . S
C1826 H1822 0.949 . S
C1826 C1834 1.595 . S
C1826 C1842 1.368 . S
H1827 C1835 0.950 1_554 S
H1828 C1833 0.950 . S
H1829 C1834 0.927 1_545 S
H1830 C1836 0.950 . S
H1831 C1837 0.950 . S
H1832 C1838 0.949 . S
C1833 H1828 0.950 . S
C1833 C1835 1.327 . S
C1833 C1839 1.429 . S
C1834 C1826 1.595 . S
C1834 H1829 0.927 1_565 S
C1834 C1840 1.373 . S
C1835 C1819 1.349 . S
C1835 H1827 0.950 1_556 S
C1835 C1833 1.327 . S
C1836 C1824 1.349 . S
C1836 H1830 0.950 . S
C1836 C1837 1.327 . S
C1837 H1831 0.950 . S
C1837 C1836 1.327 . S
C1837 C1841 1.429 . S
C1838 C1821 1.574 . S
C1838 H1832 0.949 . S
C1838 C1842 1.368 . S
C1839 C1820 1.429 . S
C1839 C1833 1.429 . S
C1839 C1840 1.523 1_545 S
C1840 C1821 1.368 . S
C1840 C1834 1.373 . S
C1840 C1839 1.523 1_565 S
C1841 C1825 1.429 . S
C1841 C1837 1.429 . S
C1841 C1842 1.523 . S
C1842 C1826 1.368 . S
C1842 C1838 1.368 . S
C1842 C1841 1.523 . S
H1843 C1818 0.950 . S
H1844 C1820 0.950 . S
H1845 C1821 0.949 . S
H1846 C1823 0.950 . S
H1847 C1825 0.950 . S
C1848 C1849 1.349 . S
C1848 C1850 1.327 . S
C1848 H1873 0.950 . S
C1849 C1848 1.349 . S
C1849 C1865 1.349 . S
C1850 C1848 1.327 . S
C1850 C1869 1.429 . S
C1850 H1874 0.950 . S
C1851 C1868 1.574 . S
C1851 C1870 1.368 . S
C1851 H1875 0.949 . S
H1852 C1856 0.949 . S
C1853 C1854 1.349 . S
C1853 C1855 1.327 . S
C1853 H1876 0.950 . S
C1854 C1853 1.349 . S
C1854 C1866 1.349 . S
C1855 C1853 1.327 . S
C1855 C1871 1.429 . S
C1855 H1877 0.950 . S
C1856 H1852 0.949 . S
C1856 C1864 1.574 . S
C1856 C1872 1.368 . S
H1857 C1865 0.950 . S
H1858 C1863 0.950 . S
H1859 C1864 0.949 . S
H1860 C1866 0.950 . S
H1861 C1867 0.950 . S
H1862 C1868 0.949 . S
C1863 H1858 0.950 . S
C1863 C1865 1.327 . S
C1863 C1869 1.429 . S
C1864 C1856 1.574 . S
C1864 H1859 0.949 . S
C1864 C1870 1.368 . S
C1865 C1849 1.349 . S
C1865 H1857 0.950 . S
C1865 C1863 1.327 . S
C1866 C1854 1.349 . S
C1866 H1860 0.950 . S
C1866 C1867 1.327 . S
C1867 H1861 0.950 . S
C1867 C1866 1.327 . S
C1867 C1871 1.429 . S
C1868 C1851 1.574 . S
C1868 H1862 0.949 . S
C1868 C1872 1.368 . S
C1869 C1850 1.429 . S
C1869 C1863 1.429 . S
C1869 C1870 1.523 . S
C1870 C1851 1.368 . S
C1870 C1864 1.368 . S
C1870 C1869 1.523 . S
C1871 C1855 1.429 . S
C1871 C1867 1.429 . S
C1871 C1872 1.523 . S
C1872 C1856 1.368 . S
C1872 C1868 1.368 . S
C1872 C1871 1.523 . S
H1873 C1848 0.950 . S
H1874 C1850 0.950 . S
H1875 C1851 0.949 . S
H1876 C1853 0.950 . S
H1877 C1855 0.950 . S
C1878 C1879 1.349 . S
C1878 C1880 1.327 . S
C1878 H1903 0.950 . S
C1879 C1878 1.349 . S
C1879 C1895 1.349 . S
C1880 C1878 1.327 . S
C1880 C1899 1.429 . S
C1880 H1904 0.950 . S
C1881 C1898 1.574 . S
C1881 C1900 1.368 . S
C1881 H1905 0.949 . S
H1882 C1886 0.949 . S
C1883 C1884 1.349 . S
C1883 C1885 1.327 . S
C1883 H1906 0.950 . S
C1884 C1883 1.349 . S
C1884 C1896 1.349 . S
C1885 C1883 1.327 . S
C1885 C1901 1.429 . S
C1885 H1907 0.950 . S
C1886 H1882 0.949 . S
C1886 C1894 1.574 . S
C1886 C1902 1.368 . S
H1887 C1895 0.950 . S
H1888 C1893 0.950 . S
H1889 C1894 0.949 . S
H1890 C1896 0.950 . S
H1891 C1897 0.950 . S
H1892 C1898 0.949 . S
C1893 H1888 0.950 . S
C1893 C1895 1.327 . S
C1893 C1899 1.429 . S
C1894 C1886 1.574 . S
C1894 H1889 0.949 . S
C1894 C1900 1.368 . S
C1895 C1879 1.349 . S
C1895 H1887 0.950 . S
C1895 C1893 1.327 . S
C1896 C1884 1.349 . S
C1896 H1890 0.950 . S
C1896 C1897 1.327 . S
C1897 H1891 0.950 . S
C1897 C1896 1.327 . S
C1897 C1901 1.429 . S
C1898 C1881 1.574 . S
C1898 H1892 0.949 . S
C1898 C1902 1.368 . S
C1899 C1880 1.429 . S
C1899 C1893 1.429 . S
C1899 C1900 1.523 . S
C1900 C1881 1.368 . S
C1900 C1894 1.368 . S
C1900 C1899 1.523 . S
C1901 C1885 1.429 . S
C1901 C1897 1.429 . S
C1901 C1902 1.523 . S
C1902 C1886 1.368 . S
C1902 C1898 1.368 . S
C1902 C1901 1.523 . S
H1903 C1878 0.950 . S
H1904 C1880 0.950 . S
H1905 C1881 0.949 . S
H1906 C1883 0.950 . S
H1907 C1885 0.950 . S
C1908 C1909 1.349 . S
C1908 C1910 1.327 . S
C1908 H1933 0.950 . S
C1909 C1908 1.349 . S
C1909 C1925 1.349 . S
C1910 C1908 1.327 . S
C1910 C1929 1.429 . S
C1910 H1934 0.950 . S
C1911 C1928 1.574 . S
C1911 C1930 1.368 . S
C1911 H1935 0.949 . S
H1912 C1916 0.949 . S
C1913 C1914 1.349 . S
C1913 C1915 1.327 . S
C1913 H1936 0.950 . S
C1914 C1913 1.349 . S
C1914 C1926 1.349 . S
C1915 C1913 1.327 . S
C1915 C1931 1.429 . S
C1915 H1937 0.950 . S
C1916 H1912 0.949 . S
C1916 C1924 1.574 . S
C1916 C1932 1.368 . S
H1917 C1925 0.950 1_545 S
H1918 C1923 0.950 . S
H1919 C1924 0.949 . S
H1920 C1926 0.950 . S
H1921 C1927 0.950 . S
H1922 C1928 0.949 . S
C1923 H1918 0.950 . S
C1923 C1925 1.327 . S
C1923 C1929 1.429 . S
C1924 C1916 1.574 . S
C1924 H1919 0.949 . S
C1924 C1930 1.368 . S
C1925 C1909 1.349 . S
C1925 H1917 0.950 1_565 S
C1925 C1923 1.327 . S
C1926 C1914 1.349 . S
C1926 H1920 0.950 . S
C1926 C1927 1.327 . S
C1927 H1921 0.950 . S
C1927 C1926 1.327 . S
C1927 C1931 1.429 . S
C1928 C1911 1.574 . S
C1928 H1922 0.949 . S
C1928 C1932 1.368 . S
C1929 C1910 1.429 . S
C1929 C1923 1.429 . S
C1929 C1930 1.523 . S
C1930 C1911 1.368 . S
C1930 C1924 1.368 . S
C1930 C1929 1.523 . S
C1931 C1915 1.429 . S
C1931 C1927 1.429 . S
C1931 C1932 1.523 . S
C1932 C1916 1.368 . S
C1932 C1928 1.368 . S
C1932 C1931 1.523 . S
H1933 C1908 0.950 . S
H1934 C1910 0.950 . S
H1935 C1911 0.949 . S
H1936 C1913 0.950 . S
H1937 C1915 0.950 . S
C1938 C1939 1.349 . S
C1938 C1940 1.327 . S
C1938 H1963 0.950 . S
C1939 C1938 1.349 . S
C1939 C1955 1.349 . S
C1940 C1938 1.327 . S
C1940 C1959 1.429 . S
C1940 H1964 0.950 . S
C1941 C1958 1.574 . S
C1941 C1960 1.368 . S
C1941 H1965 0.949 . S
H1942 C1946 0.949 . S
C1943 C1944 1.349 . S
C1943 C1945 1.327 . S
C1943 H1966 0.950 . S
C1944 C1943 1.349 . S
C1944 C1956 1.349 . S
C1945 C1943 1.327 . S
C1945 C1961 1.429 . S
C1945 H1967 0.950 . S
C1946 H1942 0.949 . S
C1946 C1954 1.574 . S
C1946 C1962 1.368 . S
H1947 C1955 0.950 . S
H1948 C1953 0.950 . S
H1949 C1954 0.949 . S
H1950 C1956 0.950 . S
H1951 C1957 0.950 . S
H1952 C1958 0.949 . S
C1953 H1948 0.950 . S
C1953 C1955 1.327 . S
C1953 C1959 1.429 . S
C1954 C1946 1.574 . S
C1954 H1949 0.949 . S
C1954 C1960 1.368 . S
C1955 C1939 1.349 . S
C1955 H1947 0.950 . S
C1955 C1953 1.327 . S
C1956 C1944 1.349 . S
C1956 H1950 0.950 . S
C1956 C1957 1.327 . S
C1957 H1951 0.950 . S
C1957 C1956 1.327 . S
C1957 C1961 1.429 . S
C1958 C1941 1.574 . S
C1958 H1952 0.949 . S
C1958 C1962 1.368 . S
C1959 C1940 1.429 . S
C1959 C1953 1.429 . S
C1959 C1960 1.523 . S
C1960 C1941 1.368 . S
C1960 C1954 1.368 . S
C1960 C1959 1.523 . S
C1961 C1945 1.429 . S
C1961 C1957 1.429 . S
C1961 C1962 1.523 . S
C1962 C1946 1.368 . S
C1962 C1958 1.368 . S
C1962 C1961 1.523 . S
H1963 C1938 0.950 . S
H1964 C1940 0.950 . S
H1965 C1941 0.949 . S
H1966 C1943 0.950 . S
H1967 C1945 0.950 . S
C534 C524 1.182 . S
C529 N12 1.324 . S
C559 C30 1.374 . S
C564 C453 1.154 . S
C589 C62 1.280 . S
C594 C482 1.179 . S
C624 C495 1.127 . S
C619 N81 1.296 . S
C649 C39 1.270 . S
C654 C516 1.101 . S
C684 C461 1.203 . S
C679 C53 1.357 . S
C714 C474 1.119 . S
C709 N71 1.267 . S
C744 C503 1.179 . S
C739 N2 1.248 . S
C769 N94 1.310 . S
C774 C505 1.163 . S
C804 C519 1.184 . S
C799 C131 1.309 . S
C834 C463 1.163 . S
C829 N140 1.263 . S
C864 C477 1.144 . S
C859 C177 1.266 . S
C889 C108 1.254 . S
C894 C456 1.154 . S
C919 N117 1.294 . S
C924 C484 1.183 . S
C949 C154 1.282 . S
C954 C498 1.143 . S
C984 C526 1.151 . S
C979 N163 1.276 . S
C1014 C335 1.187 . S
C1009 N173 1.313 . S
C1044 C316 1.117 . S
C1039 C191 1.294 . S
C1074 C330 1.145 . S
C1069 N219 1.296 . S
C1104 C351 1.215 . S
C1099 C237 1.349 . S
C1129 N104 1.294 . S
C1134 C337 1.144 . S
C1159 N127 1.267 1_545 S
C1164 C288 1.133 . S
C1189 C214 1.356 . S
C1194 C348 1.172 . S
C1219 C260 1.358 . S
C1224 C314 1.198 . S
C1254 C377 1.191 . S
C1249 N48 1.284 . S
C1284 C390 1.124 . S
C1279 C76 1.336 . S
C1309 C7 1.316 . S
C1314 C419 1.190 . S
C1339 N35 1.264 . S
C1344 C432 1.103 . S
C1374 C369 1.127 . S
C1369 C85 1.302 . S
C1404 C398 1.191 . S
C1399 C16 1.319 . S
C1429 N25 1.304 . S
C1434 C411 1.148 . S
C1464 C440 1.172 . S
C1459 N58 1.286 . S
C1489 N255 1.316 . S
C1494 C442 1.176 . S
C1519 C200 1.287 . S
C1524 C372 1.163 . S
C1554 C400 1.173 . S
C1549 N209 1.270 . S
C1579 C246 1.236 . S
C1584 C414 1.118 . S
C1614 C393 1.177 . S
C1609 C269 1.283 . S
C1639 N186 1.290 . S
C1644 C421 1.175 . S
C1674 C435 1.165 . S
C1669 C223 1.307 . S
C1704 C379 1.140 . S
C1699 N232 1.268 . S
C1734 C295 1.169 . S
C1729 N242 1.307 . S
C1764 C358 1.145 . S
C1759 C122 1.329 . S
C1789 N150 1.294 . S
C1794 C285 1.120 . S
C1824 C309 1.240 . S
C1819 C168 1.378 . S
C1854 C293 1.176 . S
C1849 N265 1.291 . S
C1879 N196 1.272 . S
C1884 C327 1.086 . S
C1909 C145 1.323 . S
C1914 C306 1.146 . S
C1939 C99 1.328 . S
C1944 C356 1.170 . S
