# Generated by pormake.
# Topology nom, (4,4)-cn, num edge types: 1
# Building blocks:
#     Node 0, Type 0, BuildingBlock: NAWXER_clean_linker_0, # of connection points: 4
#     Node 1, Type 0, BuildingBlock: NAWXER_clean_linker_0, # of connection points: 4
#     Node 2, Type 0, BuildingBlock: NAWXER_clean_linker_0, # of connection points: 4
#     Node 3, Type 0, BuildingBlock: NAWXER_clean_linker_0, # of connection points: 4
#     Node 4, Type 0, BuildingBlock: NAWXER_clean_linker_0, # of connection points: 4
#     Node 5, Type 0, BuildingBlock: NAWXER_clean_linker_0, # of connection points: 4
#     Node 6, Type 1, BuildingBlock: UXUYUI_clean_sbu_0, # of connection points: 4
#     Node 7, Type 1, BuildingBlock: UXUYUI_clean_sbu_0, # of connection points: 4
#     Node 8, Type 1, BuildingBlock: UXUYUI_clean_sbu_0, # of connection points: 4
#     Node 9, Type 1, BuildingBlock: UXUYUI_clean_sbu_0, # of connection points: 4
#     Node 10, Type 1, BuildingBlock: UXUYUI_clean_sbu_0, # of connection points: 4
#     Node 11, Type 1, BuildingBlock: UXUYUI_clean_sbu_0, # of connection points: 4
#     Edge 12, Type (0, 1), BuildingBlock: OJICUG_clean_linker_0, # of connection points: 2
#     Edge 13, Type (0, 1), BuildingBlock: OJICUG_clean_linker_0, # of connection points: 2
#     Edge 14, Type (0, 1), BuildingBlock: OJICUG_clean_linker_0, # of connection points: 2
#     Edge 15, Type (0, 1), BuildingBlock: OJICUG_clean_linker_0, # of connection points: 2
#     Edge 16, Type (0, 1), BuildingBlock: OJICUG_clean_linker_0, # of connection points: 2
#     Edge 17, Type (0, 1), BuildingBlock: OJICUG_clean_linker_0, # of connection points: 2
#     Edge 18, Type (0, 1), BuildingBlock: OJICUG_clean_linker_0, # of connection points: 2
#     Edge 19, Type (0, 1), BuildingBlock: OJICUG_clean_linker_0, # of connection points: 2
#     Edge 20, Type (0, 1), BuildingBlock: OJICUG_clean_linker_0, # of connection points: 2
#     Edge 21, Type (0, 1), BuildingBlock: OJICUG_clean_linker_0, # of connection points: 2
#     Edge 22, Type (0, 1), BuildingBlock: OJICUG_clean_linker_0, # of connection points: 2
#     Edge 23, Type (0, 1), BuildingBlock: OJICUG_clean_linker_0, # of connection points: 2
#     Edge 24, Type (0, 1), BuildingBlock: OJICUG_clean_linker_0, # of connection points: 2
#     Edge 25, Type (0, 1), BuildingBlock: OJICUG_clean_linker_0, # of connection points: 2
#     Edge 26, Type (0, 1), BuildingBlock: OJICUG_clean_linker_0, # of connection points: 2
#     Edge 27, Type (0, 1), BuildingBlock: OJICUG_clean_linker_0, # of connection points: 2
#     Edge 28, Type (0, 1), BuildingBlock: OJICUG_clean_linker_0, # of connection points: 2
#     Edge 29, Type (0, 1), BuildingBlock: OJICUG_clean_linker_0, # of connection points: 2
#     Edge 30, Type (0, 1), BuildingBlock: OJICUG_clean_linker_0, # of connection points: 2
#     Edge 31, Type (0, 1), BuildingBlock: OJICUG_clean_linker_0, # of connection points: 2
#     Edge 32, Type (0, 1), BuildingBlock: OJICUG_clean_linker_0, # of connection points: 2
#     Edge 33, Type (0, 1), BuildingBlock: OJICUG_clean_linker_0, # of connection points: 2
#     Edge 34, Type (0, 1), BuildingBlock: OJICUG_clean_linker_0, # of connection points: 2
#     Edge 35, Type (0, 1), BuildingBlock: OJICUG_clean_linker_0, # of connection points: 2
# Relax obj value: 0.041
# Max RMSD: 0.144
# Mean RMSD: 0.123
data_MOF--net-nom--node1-UXUYUI_clean_sbu_0--node2-NAWXER_clean_linker_0--edge1-OJICUG_clean_linker_0
_symmetry_space_group_name_H-M    P1
_symmetry_Int_Tables_number       1
_symmetry_cell_setting            triclinic
loop_
_symmetry_equiv_pos_as_xyz
'x, y, z'
_cell_length_a     50.686916
_cell_length_b     50.67435
_cell_length_c     56.26494
_cell_angle_alpha  89.957481
_cell_angle_beta   90.05251
_cell_angle_gamma 120.01361
loop_
_atom_site_label
_atom_site_type_symbol
_atom_site_fract_x
_atom_site_fract_y
_atom_site_fract_z
_atom_type_partial_charge
C0 C 0.91422 0.5023 0.33924 0.0
C1 C 0.90026 0.48036 0.35725 0.0
C2 C 0.94372 0.51123 0.33174 0.0
C3 C 0.95993 0.4983 0.34195 0.0
C4 C 0.91663 0.46758 0.3676 0.0
C5 C 0.9463 0.47666 0.36012 0.0
C6 C 0.99187 0.50931 0.33489 0.0
C7 C 0.93571 0.45852 0.27163 0.0
C8 C 0.94059 0.4761 0.25103 0.0
C9 C 0.95523 0.4706 0.29116 0.0
C10 C 0.97982 0.50067 0.29062 0.0
C11 C 0.96542 0.50606 0.25044 0.0
C12 C 0.98488 0.51815 0.26999 0.0
C13 C 0.00131 0.51347 0.31091 0.0
C14 C 0.1393 0.57695 0.31755 0.0
C15 C 0.14562 0.59971 0.30055 0.0
C16 C 0.10928 0.55723 0.32483 0.0
C17 C 0.08531 0.56065 0.31576 0.0
C18 C 0.12152 0.60236 0.29093 0.0
C19 C 0.09171 0.58307 0.29848 0.0
C20 C 0.05328 0.541 0.3234 0.0
C21 C 0.10685 0.58473 0.39055 0.0
C22 C 0.10463 0.5632 0.40746 0.0
C23 C 0.08713 0.57568 0.37102 0.0
C24 C 0.06513 0.54488 0.36781 0.0
C25 C 0.08211 0.53248 0.4044 0.0
C26 C 0.06251 0.52347 0.38484 0.0
C27 C 0.04385 0.53468 0.34741 0.0
H28 H 0.90265 0.51321 0.3313 0.0
H29 H 0.95413 0.5288 0.31829 0.0
H30 H 0.90648 0.45046 0.38139 0.0
H31 H 0.95856 0.4667 0.36845 0.0
H32 H 0.91713 0.43519 0.27249 0.0
H33 H 0.95137 0.45621 0.30651 0.0
H34 H 0.96963 0.52033 0.23494 0.0
H35 H 0.00378 0.54132 0.26905 0.0
H36 H 0.15752 0.57423 0.32498 0.0
H37 H 0.10489 0.53942 0.33752 0.0
H38 H 0.1258 0.61982 0.27791 0.0
H39 H 0.07363 0.58605 0.29106 0.0
H40 H 0.124 0.60855 0.39228 0.0
H41 H 0.08907 0.59275 0.35843 0.0
H42 H 0.07929 0.5154 0.4173 0.0
H43 H 0.04536 0.49965 0.38291 0.0
N44 N 0.01347 0.51935 0.3522 0.0
N45 N 0.03159 0.52972 0.30615 0.0
C46 C 0.43202 0.91426 0.50842 0.0
C47 C 0.44095 0.90091 0.52626 0.0
C48 C 0.45196 0.94375 0.50049 0.0
C49 C 0.48145 0.96051 0.51002 0.0
C50 C 0.47036 0.91785 0.53604 0.0
C51 C 0.49038 0.94747 0.52807 0.0
C52 C 0.50182 0.9924 0.5024 0.0
C53 C 0.49321 0.93546 0.439 0.0
C54 C 0.47965 0.94002 0.41877 0.0
C55 C 0.50149 0.95528 0.45838 0.0
C56 C 0.49592 0.97981 0.45814 0.0
C57 C 0.47459 0.9649 0.41842 0.0
C58 C 0.4827 0.98459 0.43787 0.0
C59 C 0.50533 0.00152 0.47833 0.0
C60 C 0.57843 0.13947 0.48258 0.0
C61 C 0.56024 0.14519 0.46687 0.0
C62 C 0.56885 0.10978 0.49039 0.0
C63 C 0.54066 0.08544 0.48296 0.0
C64 C 0.5323 0.12072 0.45925 0.0
C65 C 0.52267 0.0912 0.46717 0.0
C66 C 0.5297 0.0536 0.49047 0.0
C67 C 0.54121 0.10458 0.55996 0.0
C68 C 0.56447 0.1052 0.57413 0.0
C69 C 0.52989 0.08529 0.54021 0.0
C70 C 0.54153 0.06619 0.53432 0.0
C71 C 0.57617 0.08614 0.56789 0.0
C72 C 0.56458 0.06662 0.54837 0.0
C73 C 0.52889 0.04454 0.51434 0.0
H74 H 0.40929 0.90219 0.50093 0.0
H75 H 0.44403 0.95369 0.48723 0.0
H76 H 0.47796 0.90815 0.54975 0.0
H77 H 0.51286 0.96016 0.53592 0.0
H78 H 0.4973 0.91645 0.43996 0.0
H79 H 0.51255 0.95156 0.47343 0.0
H80 H 0.46476 0.96947 0.40297 0.0
H81 H 0.47855 0.00358 0.43706 0.0
H82 H 0.60029 0.15786 0.48847 0.0
H83 H 0.58365 0.10587 0.50194 0.0
H84 H 0.51762 0.12443 0.44738 0.0
H85 H 0.5009 0.07281 0.46109 0.0
H86 H 0.53121 0.11847 0.56439 0.0
H87 H 0.51171 0.08488 0.52979 0.0
H88 H 0.59444 0.08633 0.57803 0.0
H89 H 0.57377 0.05195 0.5441 0.0
N90 N 0.51454 0.01426 0.51944 0.0
N91 N 0.51839 0.03172 0.47339 0.0
C92 C 0.58085 0.49556 0.60178 0.0
C93 C 0.56183 0.47968 0.58251 0.0
C94 C 0.5692 0.50311 0.6215 0.0
C95 C 0.53831 0.49491 0.62231 0.0
C96 C 0.53099 0.47167 0.58331 0.0
C97 C 0.51941 0.47944 0.60293 0.0
C98 C 0.52596 0.50372 0.64272 0.0
C99 C 0.54413 0.43238 0.6715 0.0
C100 C 0.56372 0.44038 0.69114 0.0
C101 C 0.53425 0.45197 0.66334 0.0
C102 C 0.54448 0.48048 0.67417 0.0
C103 C 0.5736 0.46859 0.70231 0.0
C104 C 0.5641 0.48849 0.69386 0.0
C105 C 0.53211 0.50028 0.66668 0.0
C106 C 0.46094 0.54272 0.72425 0.0
C107 C 0.48408 0.56432 0.73904 0.0
C108 C 0.4682 0.53069 0.70459 0.0
C109 C 0.49874 0.54021 0.6993 0.0
C110 C 0.5146 0.57364 0.73371 0.0
C111 C 0.52181 0.56153 0.71414 0.0
C112 C 0.50703 0.52719 0.67911 0.0
C113 C 0.46117 0.57663 0.64807 0.0
C114 C 0.43592 0.55763 0.63373 0.0
C115 C 0.48177 0.56733 0.65515 0.0
C116 C 0.47723 0.53873 0.64823 0.0
C117 C 0.43198 0.52938 0.62639 0.0
C118 C 0.45243 0.5201 0.63352 0.0
C119 C 0.49825 0.52783 0.65537 0.0
H120 H 0.60468 0.50193 0.60168 0.0
H121 H 0.58441 0.51566 0.63599 0.0
H122 H 0.51589 0.45977 0.56858 0.0
H123 H 0.4956 0.47317 0.60305 0.0
H124 H 0.53563 0.41047 0.6629 0.0
H125 H 0.51784 0.44428 0.64898 0.0
H126 H 0.58869 0.47524 0.71754 0.0
H127 H 0.57187 0.51005 0.70285 0.0
H128 H 0.43722 0.53519 0.72783 0.0
H129 H 0.44999 0.51378 0.69365 0.0
H130 H 0.5329 0.58984 0.74497 0.0
H131 H 0.5455 0.56887 0.71052 0.0
H132 H 0.46484 0.59852 0.65406 0.0
H133 H 0.50119 0.58249 0.66597 0.0
H134 H 0.4132 0.51448 0.61493 0.0
H135 H 0.44867 0.4981 0.6277 0.0
N136 N 0.50854 0.51654 0.63808 0.0
N137 N 0.5232 0.51301 0.68388 0.0
C138 C 0.91122 0.43389 0.81656 0.0
C139 C 0.89919 0.44333 0.79805 0.0
C140 C 0.94025 0.45348 0.82554 0.0
C141 C 0.9578 0.48314 0.81646 0.0
C142 C 0.9167 0.47307 0.78901 0.0
C143 C 0.94583 0.49271 0.79803 0.0
C144 C 0.98966 0.50282 0.82444 0.0
C145 C 0.93349 0.49448 0.88855 0.0
C146 C 0.93694 0.47889 0.90789 0.0
C147 C 0.95321 0.5029 0.86908 0.0
C148 C 0.97668 0.49579 0.86856 0.0
C149 C 0.96053 0.47193 0.90736 0.0
C150 C 0.98032 0.48049 0.88796 0.0
C151 C 0.99855 0.50576 0.84852 0.0
C152 C 0.13654 0.58008 0.8443 0.0
C153 C 0.14288 0.56133 0.85889 0.0
C154 C 0.1066 0.57068 0.83731 0.0
C155 C 0.08259 0.54215 0.84447 0.0
C156 C 0.11856 0.5334 0.86677 0.0
C157 C 0.0888 0.52396 0.85965 0.0
C158 C 0.05077 0.5307 0.83674 0.0
C159 C 0.10572 0.54589 0.7695 0.0
C160 C 0.10316 0.56563 0.75328 0.0
C161 C 0.08591 0.53413 0.7889 0.0
C162 C 0.06366 0.54246 0.79272 0.0
C163 C 0.08051 0.57347 0.75694 0.0
C164 C 0.06093 0.56193 0.77642 0.0
C165 C 0.04194 0.52987 0.81276 0.0
H166 H 0.89822 0.41124 0.82407 0.0
H167 H 0.94927 0.44508 0.83918 0.0
H168 H 0.90819 0.48089 0.77457 0.0
H169 H 0.95916 0.51529 0.79045 0.0
H170 H 0.91546 0.50004 0.8884 0.0
H171 H 0.95036 0.51536 0.85461 0.0
H172 H 0.96404 0.46032 0.92215 0.0
H173 H 0.99846 0.47506 0.88809 0.0
H174 H 0.15474 0.60174 0.83789 0.0
H175 H 0.10229 0.58554 0.82616 0.0
H176 H 0.12248 0.51874 0.87849 0.0
H177 H 0.0706 0.50206 0.86571 0.0
H178 H 0.1226 0.53902 0.7669 0.0
H179 H 0.08781 0.51831 0.80076 0.0
H180 H 0.07809 0.58875 0.74482 0.0
H181 H 0.04369 0.56838 0.77886 0.0
N182 N 0.0117 0.51567 0.80756 0.0
N183 N 0.02871 0.51894 0.85366 0.0
C184 C 0.49936 0.91226 0.98487 0.0
C185 C 0.47676 0.89827 0.96731 0.0
C186 C 0.50796 0.94146 0.99301 0.0
C187 C 0.4941 0.95735 0.98388 0.0
C188 C 0.46294 0.91428 0.95813 0.0
C189 C 0.47173 0.94366 0.96621 0.0
C190 C 0.50503 0.98916 0.99133 0.0
C191 C 0.45805 0.93242 0.05551 0.0
C192 C 0.47613 0.93848 0.076 0.0
C193 C 0.46913 0.9516 0.0357 0.0
C194 C 0.49878 0.97697 0.03575 0.0
C195 C 0.50563 0.96411 0.07608 0.0
C196 C 0.51679 0.98309 0.05622 0.0
C197 C 0.51048 0.99845 0.01536 0.0
C198 C 0.5751 0.13647 0.01013 0.0
C199 C 0.59903 0.14229 0.02583 0.0
C200 C 0.55476 0.10668 0.00267 0.0
C201 C 0.55847 0.08236 0.01042 0.0
C202 C 0.60225 0.11783 0.03388 0.0
C203 C 0.58219 0.08823 0.02628 0.0
C204 C 0.53774 0.05048 0.00296 0.0
C205 C 0.57854 0.1031 0.93488 0.0
C206 C 0.55627 0.10271 0.91964 0.0
C207 C 0.5701 0.08325 0.95429 0.0
C208 C 0.53923 0.06276 0.95893 0.0
C209 C 0.52539 0.08189 0.9243 0.0
C210 C 0.517 0.06199 0.94364 0.0
C211 C 0.52984 0.04123 0.97908 0.0
H212 H 0.51106 0.901 0.99193 0.0
H213 H 0.52607 0.95193 0.00604 0.0
H214 H 0.44528 0.9041 0.94474 0.0
H215 H 0.46103 0.95569 0.9587 0.0
H216 H 0.4353 0.91281 0.05473 0.0
H217 H 0.45427 0.94682 0.02053 0.0
H218 H 0.52001 0.96991 0.09168 0.0
H219 H 0.53956 0.00271 0.05691 0.0
H220 H 0.57186 0.15489 0.00391 0.0
H221 H 0.53609 0.10268 0.99103 0.0
H222 H 0.62064 0.12163 0.04577 0.0
H223 H 0.58548 0.06987 0.03259 0.0
H224 H 0.60255 0.11836 0.93158 0.0
H225 H 0.58767 0.08372 0.96555 0.0
H226 H 0.50762 0.08115 0.91314 0.0
H227 H 0.49307 0.04618 0.94684 0.0
N228 N 0.51413 0.01089 0.97416 0.0
N229 N 0.52725 0.02872 0.02013 0.0
C230 C 0.50162 0.61063 0.1734 0.0
C231 C 0.47995 0.6022 0.19163 0.0
C232 C 0.50979 0.58993 0.16477 0.0
C233 C 0.49624 0.56021 0.17399 0.0
C234 C 0.46624 0.5724 0.20079 0.0
C235 C 0.47453 0.55167 0.19218 0.0
C236 C 0.50702 0.53932 0.16626 0.0
C237 C 0.45999 0.55032 0.10277 0.0
C238 C 0.47815 0.56304 0.08243 0.0
C239 C 0.47093 0.54143 0.12221 0.0
C240 C 0.50052 0.54558 0.12195 0.0
C241 C 0.50753 0.56662 0.08207 0.0
C242 C 0.51854 0.55797 0.10157 0.0
C243 C 0.51227 0.53555 0.14217 0.0
C244 C 0.57669 0.46197 0.147 0.0
C245 C 0.60176 0.48096 0.1325 0.0
C246 C 0.55592 0.47107 0.15394 0.0
C247 C 0.56011 0.49946 0.14672 0.0
C248 C 0.60519 0.50886 0.12471 0.0
C249 C 0.58458 0.51794 0.13171 0.0
C250 C 0.53943 0.51057 0.15426 0.0
C251 C 0.5804 0.4973 0.22167 0.0
C252 C 0.55826 0.47688 0.2377 0.0
C253 C 0.57199 0.50879 0.20228 0.0
C254 C 0.54124 0.49968 0.19833 0.0
C255 C 0.52756 0.46822 0.23385 0.0
C256 C 0.51918 0.47961 0.21442 0.0
C257 C 0.5318 0.51192 0.17822 0.0
H258 H 0.5124 0.63333 0.16585 0.0
H259 H 0.52729 0.59744 0.15125 0.0
H260 H 0.4497 0.56538 0.21502 0.0
H261 H 0.46418 0.52903 0.19983 0.0
H262 H 0.43733 0.54735 0.10376 0.0
H263 H 0.45607 0.53099 0.13732 0.0
H264 H 0.52194 0.57571 0.06655 0.0
H265 H 0.54126 0.56104 0.10072 0.0
H266 H 0.57342 0.44034 0.15331 0.0
H267 H 0.53677 0.45606 0.16504 0.0
H268 H 0.6238 0.5237 0.1131 0.0
H269 H 0.58807 0.53978 0.12566 0.0
H270 H 0.6043 0.50489 0.22439 0.0
H271 H 0.58954 0.52499 0.19052 0.0
H272 H 0.50993 0.45238 0.24574 0.0
H273 H 0.49536 0.47254 0.21184 0.0
N274 N 0.5162 0.5266 0.18329 0.0
N275 N 0.52892 0.52199 0.1372 0.0
Li276 Li 0.63738 0.41529 0.43226 0.0
Li277 Li 0.62834 0.36787 0.41396 0.0
Li278 Li 0.67754 0.41659 0.40639 0.0
Li279 Li 0.62999 0.40721 0.388 0.0
C280 C 0.67489 0.39884 0.45833 0.0
N281 N 0.70317 0.40814 0.50206 0.0
C282 C 0.66208 0.37658 0.47605 0.0
C283 C 0.70249 0.42552 0.46272 0.0
C284 C 0.67658 0.38179 0.49808 0.0
C285 C 0.71634 0.42989 0.48496 0.0
C286 C 0.57208 0.36057 0.41662 0.0
C287 C 0.52964 0.3148 0.40069 0.0
N288 N 0.51472 0.31007 0.42172 0.0
C289 C 0.55616 0.35547 0.43797 0.0
C290 C 0.55858 0.34027 0.39774 0.0
C291 C 0.52726 0.32974 0.44024 0.0
C292 C 0.62914 0.4577 0.46042 0.0
N293 N 0.6277 0.43017 0.46005 0.0
C294 C 0.60741 0.41925 0.49944 0.0
C295 C 0.61708 0.41102 0.47901 0.0
C296 C 0.60857 0.44749 0.50038 0.0
C297 C 0.61993 0.46701 0.48063 0.0
H298 H 0.6368 0.47215 0.44486 0.0
H299 H 0.61512 0.38883 0.47795 0.0
C300 C 0.61921 0.30851 0.40676 0.0
N301 N 0.61197 0.32583 0.42075 0.0
C302 C 0.61031 0.2786 0.4133 0.0
C303 C 0.58663 0.28495 0.44844 0.0
C304 C 0.59585 0.31463 0.44116 0.0
C305 C 0.5942 0.26665 0.4346 0.0
H306 H 0.63278 0.31825 0.39095 0.0
H307 H 0.59105 0.32913 0.45225 0.0
C308 C 0.68207 0.47429 0.40805 0.0
N309 N 0.72637 0.53492 0.4126 0.0
C310 C 0.6899 0.49399 0.3886 0.0
C311 C 0.69639 0.48561 0.42992 0.0
C312 C 0.71247 0.52451 0.39122 0.0
C313 C 0.71881 0.51627 0.43184 0.0
C314 C 0.64979 0.37704 0.36015 0.0
C315 C 0.67395 0.39581 0.34514 0.0
C316 C 0.62422 0.35153 0.35076 0.0
C317 C 0.67181 0.38918 0.32088 0.0
C318 C 0.62293 0.34563 0.32641 0.0
N319 N 0.64653 0.36446 0.31209 0.0
C320 C 0.733 0.41723 0.41056 0.0
C321 C 0.73522 0.45586 0.38544 0.0
C322 C 0.763 0.42561 0.4049 0.0
N323 N 0.71977 0.43232 0.40078 0.0
C324 C 0.76516 0.46483 0.37912 0.0
C325 C 0.77927 0.44937 0.38866 0.0
H326 H 0.71991 0.39807 0.42224 0.0
H327 H 0.72393 0.46683 0.3773 0.0
C328 C 0.58458 0.40675 0.35743 0.0
N329 N 0.61472 0.41635 0.36004 0.0
C330 C 0.57417 0.41491 0.33725 0.0
C331 C 0.626 0.44274 0.32289 0.0
C332 C 0.63536 0.43404 0.3433 0.0
C333 C 0.59503 0.43331 0.31967 0.0
H334 H 0.56866 0.39312 0.37115 0.0
H335 H 0.65926 0.44188 0.34602 0.0
O336 O 0.66103 0.39398 0.43657 0.0
O337 O 0.60059 0.38544 0.41415 0.0
O338 O 0.66005 0.44428 0.40576 0.0
O339 O 0.65139 0.38334 0.38394 0.0
H340 H 0.64104 0.35555 0.47291 0.0
H341 H 0.7134 0.44255 0.44903 0.0
H342 H 0.66673 0.36485 0.512 0.0
H343 H 0.73765 0.4505 0.48858 0.0
H344 H 0.51901 0.29883 0.38624 0.0
H345 H 0.566 0.37114 0.45267 0.0
H346 H 0.57026 0.34421 0.38095 0.0
H347 H 0.51478 0.32542 0.45673 0.0
H348 H 0.59885 0.40355 0.51429 0.0
H349 H 0.62072 0.48877 0.48051 0.0
H350 H 0.61693 0.26537 0.40227 0.0
H351 H 0.57401 0.27654 0.46487 0.0
H352 H 0.67879 0.48583 0.37163 0.0
H353 H 0.68993 0.47104 0.44536 0.0
H354 H 0.71889 0.53993 0.37626 0.0
H355 H 0.73009 0.52528 0.44867 0.0
H356 H 0.69401 0.4155 0.35207 0.0
H357 H 0.60566 0.33627 0.36216 0.0
H358 H 0.69023 0.4037 0.30904 0.0
H359 H 0.60321 0.32604 0.31892 0.0
H360 H 0.77292 0.41285 0.41239 0.0
H361 H 0.77698 0.48334 0.36659 0.0
H362 H 0.55006 0.40693 0.33545 0.0
H363 H 0.64299 0.45739 0.31009 0.0
Li364 Li 0.24419 0.63842 0.60306 0.0
Li365 Li 0.28225 0.62896 0.58471 0.0
Li366 Li 0.28319 0.6786 0.57749 0.0
Li367 Li 0.24453 0.63143 0.5587 0.0
C368 C 0.29672 0.67205 0.63031 0.0
N369 N 0.31238 0.69311 0.6764 0.0
C370 C 0.30204 0.65497 0.64717 0.0
C371 C 0.3001 0.70021 0.63679 0.0
C372 C 0.3097 0.66587 0.67041 0.0
C373 C 0.30785 0.71037 0.6602 0.0
C374 C 0.23142 0.57236 0.58468 0.0
C375 C 0.23278 0.5308 0.56497 0.0
N376 N 0.22086 0.5133 0.58472 0.0
C377 C 0.21884 0.55384 0.60468 0.0
C378 C 0.23815 0.56065 0.56458 0.0
C379 C 0.2138 0.52409 0.60439 0.0
C380 C 0.19653 0.6352 0.63251 0.0
N381 N 0.21949 0.62877 0.63084 0.0
C382 C 0.20659 0.60424 0.66878 0.0
C383 C 0.22466 0.61349 0.6484 0.0
C384 C 0.18277 0.61066 0.67115 0.0
C385 C 0.17798 0.62654 0.65268 0.0
H386 H 0.19225 0.64659 0.61805 0.0
H387 H 0.24234 0.6077 0.64627 0.0
C388 C 0.3344 0.62322 0.57874 0.0
N389 N 0.30778 0.61225 0.59089 0.0
C390 C 0.35522 0.61388 0.58473 0.0
C391 C 0.32083 0.58213 0.61562 0.0
C392 C 0.30068 0.59204 0.60899 0.0
C393 C 0.3487 0.5933 0.60358 0.0
H394 H 0.33982 0.63986 0.5648 0.0
H395 H 0.2799 0.58451 0.61893 0.0
C396 C 0.23158 0.68464 0.57826 0.0
N397 N 0.21887 0.73162 0.5809 0.0
C398 C 0.21847 0.69114 0.55889 0.0
C399 C 0.23775 0.70173 0.59908 0.0
C400 C 0.21236 0.71507 0.56053 0.0
C401 C 0.23128 0.72546 0.60005 0.0
C402 C 0.29614 0.65065 0.53144 0.0
C403 C 0.30147 0.67422 0.51577 0.0
C404 C 0.2982 0.62573 0.52319 0.0
C405 C 0.30793 0.67207 0.49195 0.0
C406 C 0.30475 0.62442 0.49926 0.0
N407 N 0.30938 0.6474 0.48424 0.0
C408 C 0.33769 0.73465 0.58233 0.0
C409 C 0.30206 0.73554 0.55551 0.0
C410 C 0.35931 0.76458 0.57633 0.0
N411 N 0.30978 0.72079 0.57182 0.0
C412 C 0.32297 0.76539 0.54892 0.0
C413 C 0.3522 0.78012 0.55909 0.0
H414 H 0.3435 0.7221 0.5948 0.0
H415 H 0.28013 0.72374 0.54683 0.0
C416 C 0.19825 0.5874 0.52797 0.0
N417 N 0.22018 0.6171 0.53062 0.0
C418 C 0.17989 0.57796 0.50765 0.0
C419 C 0.20673 0.62988 0.49335 0.0
C420 C 0.2246 0.63825 0.51386 0.0
C421 C 0.1839 0.59939 0.49007 0.0
H422 H 0.19455 0.57112 0.54182 0.0
H423 H 0.24168 0.66183 0.51664 0.0
O424 O 0.28928 0.66174 0.60743 0.0
O425 O 0.23691 0.6017 0.58474 0.0
O426 O 0.23809 0.66151 0.57685 0.0
O427 O 0.28974 0.65237 0.55484 0.0
H428 H 0.30004 0.63339 0.64244 0.0
H429 H 0.29714 0.71429 0.62385 0.0
H430 H 0.31356 0.65271 0.68368 0.0
H431 H 0.3104 0.73206 0.66545 0.0
H432 H 0.23799 0.52151 0.54954 0.0
H433 H 0.21307 0.56231 0.62028 0.0
H434 H 0.24715 0.57438 0.54878 0.0
H435 H 0.20425 0.50959 0.6198 0.0
H436 H 0.21073 0.59141 0.6822 0.0
H437 H 0.16002 0.63216 0.65374 0.0
H438 H 0.37629 0.62288 0.57483 0.0
H439 H 0.31509 0.56674 0.63056 0.0
H440 H 0.21314 0.67792 0.54272 0.0
H441 H 0.24701 0.69644 0.61445 0.0
H442 H 0.20239 0.72046 0.54562 0.0
H443 H 0.236 0.73889 0.61607 0.0
H444 H 0.30035 0.69385 0.52185 0.0
H445 H 0.29512 0.60773 0.53516 0.0
H446 H 0.3118 0.69002 0.4796 0.0
H447 H 0.30628 0.6052 0.49264 0.0
H448 H 0.38171 0.77496 0.58437 0.0
H449 H 0.31649 0.77662 0.53566 0.0
H450 H 0.16221 0.55431 0.50602 0.0
H451 H 0.21075 0.64713 0.48022 0.0
Li452 Li 0.67492 0.28427 0.75164 0.0
Li453 Li 0.63031 0.24559 0.77007 0.0
Li454 Li 0.63727 0.24435 0.72566 0.0
Li455 Li 0.62709 0.28281 0.7454 0.0
C456 C 0.68736 0.23857 0.75034 0.0
N457 N 0.74022 0.23559 0.74693 0.0
C458 C 0.70702 0.24631 0.76982 0.0
C459 C 0.69459 0.22925 0.72914 0.0
C460 C 0.73364 0.24468 0.76773 0.0
C461 C 0.72142 0.2279 0.72777 0.0
C462 C 0.64566 0.29024 0.79923 0.0
C463 C 0.61484 0.28689 0.83298 0.0
N464 N 0.63681 0.28849 0.84779 0.0
C465 C 0.66803 0.29202 0.81478 0.0
C466 C 0.61892 0.28782 0.80838 0.0
C467 C 0.6631 0.29105 0.83927 0.0
C468 C 0.72328 0.33706 0.77075 0.0
N469 N 0.71744 0.31358 0.75591 0.0
C470 C 0.7708 0.33407 0.74925 0.0
C471 C 0.74047 0.3122 0.74465 0.0
C472 C 0.77743 0.35787 0.76527 0.0
C473 C 0.75315 0.35941 0.7758 0.0
H474 H 0.70467 0.3384 0.77883 0.0
H475 H 0.73541 0.29415 0.73212 0.0
C476 C 0.58424 0.20346 0.80194 0.0
N477 N 0.61467 0.21983 0.7975 0.0
C478 C 0.57338 0.18464 0.822 0.0
C479 C 0.62533 0.19997 0.83247 0.0
C480 C 0.6351 0.21818 0.81218 0.0
C481 C 0.5941 0.18284 0.83761 0.0
H482 H 0.56838 0.20486 0.7899 0.0
H483 H 0.65907 0.23114 0.8082 0.0
C484 C 0.68223 0.31331 0.71134 0.0
N485 N 0.73338 0.3636 0.69337 0.0
C486 C 0.68829 0.34266 0.71708 0.0
C487 C 0.70215 0.30952 0.69645 0.0
C488 C 0.71429 0.3678 0.70782 0.0
C489 C 0.72788 0.33525 0.68754 0.0
C490 C 0.57274 0.23378 0.73799 0.0
C491 C 0.56118 0.22412 0.7151 0.0
C492 C 0.55597 0.2401 0.75442 0.0
C493 C 0.53314 0.22124 0.70896 0.0
C494 C 0.52805 0.23699 0.74759 0.0
N495 N 0.51731 0.22771 0.72519 0.0
C496 C 0.61149 0.18872 0.70082 0.0
C497 C 0.63542 0.23261 0.67635 0.0
C498 C 0.60176 0.16979 0.68086 0.0
N499 N 0.62784 0.21947 0.6982 0.0
C500 C 0.62652 0.21457 0.65592 0.0
C501 C 0.6091 0.18265 0.65794 0.0
H502 H 0.60533 0.17896 0.71844 0.0
H503 H 0.64785 0.25714 0.67476 0.0
C504 C 0.61532 0.3312 0.75397 0.0
N505 N 0.61018 0.30811 0.73896 0.0
C506 C 0.60715 0.35275 0.74734 0.0
C507 C 0.58785 0.32577 0.71026 0.0
C508 C 0.59678 0.30507 0.71746 0.0
C509 C 0.59363 0.35048 0.72502 0.0
H510 H 0.62706 0.33374 0.7706 0.0
H511 H 0.594 0.28718 0.7055 0.0
O512 O 0.66093 0.23956 0.75207 0.0
O513 O 0.64979 0.2905 0.77517 0.0
O514 O 0.65732 0.28845 0.72073 0.0
O515 O 0.6003 0.23704 0.74427 0.0
H516 H 0.70224 0.25421 0.7862 0.0
H517 H 0.67972 0.22314 0.71387 0.0
H518 H 0.74916 0.25085 0.78261 0.0
H519 H 0.72729 0.22076 0.71146 0.0
H520 H 0.59418 0.28489 0.8403 0.0
H521 H 0.68875 0.2936 0.80803 0.0
H522 H 0.60146 0.28658 0.79662 0.0
H523 H 0.68011 0.29217 0.85151 0.0
H524 H 0.78883 0.3324 0.74034 0.0
H525 H 0.75715 0.37727 0.7883 0.0
H526 H 0.5491 0.17186 0.82535 0.0
H527 H 0.64205 0.1989 0.84381 0.0
H528 H 0.67327 0.34599 0.72876 0.0
H529 H 0.69811 0.28697 0.6922 0.0
H530 H 0.71934 0.39064 0.71219 0.0
H531 H 0.7436 0.33267 0.67611 0.0
H532 H 0.57379 0.21914 0.70212 0.0
H533 H 0.56451 0.24753 0.77221 0.0
H534 H 0.524 0.21393 0.69127 0.0
H535 H 0.51492 0.24196 0.7601 0.0
H536 H 0.5879 0.14542 0.68341 0.0
H537 H 0.63314 0.22559 0.63874 0.0
H538 H 0.61258 0.37166 0.75915 0.0
H539 H 0.57709 0.32272 0.69307 0.0
Li540 Li 0.40636 0.63076 0.93101 0.0
Li541 Li 0.41549 0.67814 0.91285 0.0
Li542 Li 0.36878 0.62927 0.90399 0.0
Li543 Li 0.41683 0.63849 0.88802 0.0
C544 C 0.37509 0.64961 0.95793 0.0
N545 N 0.3615 0.64581 0.00581 0.0
C546 C 0.3948 0.67254 0.97349 0.0
C547 C 0.34818 0.62504 0.96666 0.0
C548 C 0.38762 0.67012 0.99765 0.0
C549 C 0.34179 0.62345 0.99093 0.0
C550 C 0.47237 0.68287 0.90634 0.0
C551 C 0.50395 0.72279 0.8788 0.0
N552 N 0.52914 0.72418 0.88864 0.0
C553 C 0.49854 0.6847 0.91619 0.0
C554 C 0.47504 0.70207 0.88751 0.0
C555 C 0.52705 0.70574 0.90699 0.0
C556 C 0.40399 0.58615 0.96391 0.0
N557 N 0.41544 0.61628 0.95934 0.0
C558 C 0.44513 0.62986 0.99494 0.0
C559 C 0.4358 0.63803 0.97426 0.0
C560 C 0.43396 0.59891 1.00014 0.0
C561 C 0.41294 0.57691 0.98433 0.0
H562 H 0.38853 0.56928 0.95145 0.0
H563 H 0.44511 0.66185 0.96989 0.0
C564 C 0.41427 0.73278 0.91069 0.0
N565 N 0.43051 0.71999 0.91895 0.0
C566 C 0.42239 0.7625 0.91713 0.0
C567 C 0.46388 0.76529 0.94039 0.0
C568 C 0.45512 0.73562 0.93331 0.0
C569 C 0.44716 0.77891 0.93252 0.0
H570 H 0.39435 0.71947 0.89979 0.0
H571 H 0.46726 0.72465 0.93997 0.0
C572 C 0.36155 0.57265 0.90265 0.0
N573 N 0.31165 0.5148 0.89806 0.0
C574 C 0.35762 0.55567 0.88203 0.0
C575 C 0.34027 0.56005 0.92102 0.0
C576 C 0.3322 0.5265 0.88003 0.0
C577 C 0.31515 0.53083 0.91834 0.0
C578 C 0.38295 0.65817 0.85941 0.0
C579 C 0.3732 0.63102 0.84693 0.0
C580 C 0.37936 0.68138 0.8493 0.0
C581 C 0.35984 0.62742 0.82457 0.0
C582 C 0.36589 0.67693 0.82688 0.0
N583 N 0.35648 0.65026 0.81509 0.0
C584 C 0.31229 0.62607 0.90898 0.0
C585 C 0.31191 0.59205 0.87996 0.0
C586 C 0.28216 0.61756 0.90361 0.0
N587 N 0.32653 0.61331 0.89717 0.0
C588 C 0.28187 0.58299 0.87393 0.0
C589 C 0.26661 0.5959 0.88571 0.0
H590 H 0.32455 0.64329 0.92233 0.0
H591 H 0.32369 0.58262 0.8704 0.0
C592 C 0.43794 0.60471 0.86378 0.0
N593 N 0.43578 0.6303 0.8621 0.0
C594 C 0.44754 0.59466 0.84432 0.0
C595 C 0.45423 0.63849 0.82216 0.0
C596 C 0.44437 0.64764 0.84206 0.0
C597 C 0.45519 0.61125 0.82297 0.0
H598 H 0.43114 0.59151 0.88002 0.0
H599 H 0.44243 0.66793 0.84121 0.0
O600 O 0.38187 0.65145 0.93424 0.0
O601 O 0.44435 0.66235 0.91522 0.0
O602 O 0.38617 0.60137 0.90487 0.0
O603 O 0.39622 0.66226 0.88131 0.0
H604 H 0.41559 0.69183 0.96703 0.0
H605 H 0.33226 0.60749 0.95481 0.0
H606 H 0.40283 0.68757 0.00991 0.0
H607 H 0.3211 0.6045 0.99794 0.0
H608 H 0.50637 0.73778 0.86423 0.0
H609 H 0.49681 0.67001 0.93081 0.0
H610 H 0.45507 0.70109 0.8797 0.0
H611 H 0.54751 0.70741 0.91444 0.0
H612 H 0.46105 0.64767 0.00666 0.0
H613 H 0.40417 0.55282 0.9873 0.0
H614 H 0.4087 0.77205 0.91095 0.0
H615 H 0.48322 0.77728 0.95216 0.0
H616 H 0.37382 0.56496 0.8676 0.0
H617 H 0.34317 0.5727 0.93718 0.0
H618 H 0.32879 0.51319 0.86412 0.0
H619 H 0.29845 0.52087 0.9324 0.0
H620 H 0.37586 0.61287 0.85445 0.0
H621 H 0.38698 0.70265 0.85861 0.0
H622 H 0.35214 0.60647 0.81476 0.0
H623 H 0.36296 0.6947 0.81885 0.0
H624 H 0.27123 0.62789 0.91335 0.0
H625 H 0.27104 0.56664 0.85971 0.0
H626 H 0.4485 0.57385 0.84584 0.0
H627 H 0.45979 0.65189 0.80602 0.0
Li628 Li 0.75867 0.41363 0.08448 0.0
Li629 Li 0.7969 0.40376 0.10244 0.0
Li630 Li 0.79653 0.41181 0.05814 0.0
Li631 Li 0.75797 0.36451 0.07636 0.0
C632 C 0.81101 0.47058 0.08624 0.0
N633 N 0.82537 0.53075 0.0895 0.0
C634 C 0.82066 0.48609 0.10787 0.0
C635 C 0.80927 0.48589 0.06617 0.0
C636 C 0.82764 0.51644 0.1092 0.0
C637 C 0.81646 0.51625 0.0682 0.0
C638 C 0.74437 0.36963 0.12947 0.0
C639 C 0.73795 0.33315 0.15975 0.0
N640 N 0.7292 0.34775 0.17539 0.0
C641 C 0.73485 0.38399 0.14575 0.0
C642 C 0.74556 0.34377 0.13643 0.0
C643 C 0.72746 0.37271 0.16892 0.0
C644 C 0.70598 0.41819 0.07886 0.0
N645 N 0.73271 0.42975 0.09096 0.0
C646 C 0.71871 0.45903 0.11574 0.0
C647 C 0.73936 0.44977 0.10913 0.0
C648 C 0.6908 0.44735 0.10366 0.0
C649 C 0.68469 0.42688 0.08482 0.0
H650 H 0.70084 0.4016 0.06495 0.0
H651 H 0.76009 0.45754 0.11919 0.0
C652 C 0.84739 0.41013 0.12944 0.0
N653 N 0.82195 0.4127 0.12997 0.0
C654 C 0.86665 0.41851 0.14921 0.0
C655 C 0.83328 0.43221 0.16961 0.0
C656 C 0.81476 0.42364 0.14947 0.0
C657 C 0.85973 0.42986 0.16964 0.0
H658 H 0.85301 0.40205 0.11352 0.0
H659 H 0.79515 0.42668 0.14911 0.0
C660 C 0.74489 0.39698 0.03183 0.0
N661 N 0.73144 0.40876 0.9868 0.0
C662 C 0.73582 0.37493 0.014 0.0
C663 C 0.74651 0.42478 0.02687 0.0
C664 C 0.72931 0.38139 0.99131 0.0
C665 C 0.73978 0.43037 0.00398 0.0
C666 C 0.80801 0.35719 0.07553 0.0
C667 C 0.81545 0.34818 0.05428 0.0
C668 C 0.80627 0.34171 0.09656 0.0
C669 C 0.82024 0.32332 0.05432 0.0
C670 C 0.81125 0.31698 0.09589 0.0
N671 N 0.81802 0.30833 0.07495 0.0
C672 C 0.84546 0.45528 0.02918 0.0
C673 C 0.81366 0.40682 0.01191 0.0
C674 C 0.86395 0.46483 0.00894 0.0
N675 N 0.82083 0.42672 0.03023 0.0
C676 C 0.83153 0.41532 0.99143 0.0
C677 C 0.85721 0.44458 0.98982 0.0
H678 H 0.85119 0.4704 0.04425 0.0
H679 H 0.79443 0.38401 0.01343 0.0
C680 C 0.70614 0.3064 0.08338 0.0
N681 N 0.73137 0.32261 0.06975 0.0
C682 C 0.68447 0.27664 0.07709 0.0
C683 C 0.71496 0.28096 0.04271 0.0
C684 C 0.73614 0.31054 0.04976 0.0
C685 C 0.68858 0.26372 0.05634 0.0
H686 H 0.70229 0.31691 0.09867 0.0
H687 H 0.75583 0.32427 0.0388 0.0
O688 O 0.80404 0.44081 0.08465 0.0
O689 O 0.75179 0.38046 0.10671 0.0
O690 O 0.75149 0.39109 0.05415 0.0
O691 O 0.80312 0.38142 0.07581 0.0
H692 H 0.82256 0.47478 0.12353 0.0
H693 H 0.80281 0.47461 0.04913 0.0
H694 H 0.83489 0.52862 0.12588 0.0
H695 H 0.8151 0.52832 0.0528 0.0
H696 H 0.73887 0.31321 0.16537 0.0
H697 H 0.73343 0.4038 0.14063 0.0
H698 H 0.75186 0.33175 0.1239 0.0
H699 H 0.72033 0.38378 0.18174 0.0
H700 H 0.72411 0.47431 0.13071 0.0
H701 H 0.66357 0.41747 0.07491 0.0
H702 H 0.88677 0.41625 0.14848 0.0
H703 H 0.82744 0.44153 0.1847 0.0
H704 H 0.73403 0.35313 0.01756 0.0
H705 H 0.75251 0.44172 0.0406 0.0
H706 H 0.72252 0.36461 0.9773 0.0
H707 H 0.74104 0.45184 0.99989 0.0
H708 H 0.81736 0.36013 0.03789 0.0
H709 H 0.80146 0.34889 0.11327 0.0
H710 H 0.82576 0.31597 0.03796 0.0
H711 H 0.80985 0.30475 0.11203 0.0
H712 H 0.88382 0.48743 0.00858 0.0
H713 H 0.82539 0.39905 0.97707 0.0
H714 H 0.66419 0.26429 0.08787 0.0
H715 H 0.71904 0.27179 0.02664 0.0
Li716 Li 0.41514 0.79779 0.2693 0.0
Li717 Li 0.36805 0.75839 0.2517 0.0
Li718 Li 0.41711 0.76119 0.24286 0.0
Li719 Li 0.4065 0.79896 0.2264 0.0
C720 C 0.39887 0.74735 0.29654 0.0
N721 N 0.40571 0.73614 0.34357 0.0
C722 C 0.37719 0.74403 0.3134 0.0
C723 C 0.42367 0.74428 0.30351 0.0
C724 C 0.38116 0.73859 0.33712 0.0
C725 C 0.42682 0.73879 0.32739 0.0
C726 C 0.36144 0.80915 0.24442 0.0
C727 C 0.32057 0.79861 0.21717 0.0
N728 N 0.31861 0.82235 0.22644 0.0
C729 C 0.359 0.8334 0.25371 0.0
C730 C 0.34206 0.79155 0.22603 0.0
C731 C 0.3372 0.83972 0.24437 0.0
C732 C 0.4593 0.84301 0.30084 0.0
N733 N 0.42943 0.82222 0.29718 0.0
C734 C 0.41537 0.83738 0.33298 0.0
C735 C 0.40755 0.81935 0.31261 0.0
C736 C 0.44602 0.85915 0.33731 0.0
C737 C 0.46816 0.86171 0.32094 0.0
H738 H 0.47618 0.84572 0.28789 0.0
H739 H 0.38388 0.80332 0.30887 0.0
C740 C 0.3127 0.70345 0.24738 0.0
N741 N 0.32651 0.73112 0.25819 0.0
C742 C 0.28293 0.68163 0.25345 0.0
C743 C 0.28231 0.71722 0.28177 0.0
C744 C 0.31195 0.73851 0.2749 0.0
C745 C 0.26757 0.68829 0.2711 0.0
H746 H 0.32513 0.69808 0.23451 0.0
H747 H 0.3237 0.76065 0.28333 0.0
C748 C 0.47366 0.81247 0.2423 0.0
N749 N 0.53298 0.82389 0.24078 0.0
C750 C 0.49169 0.82604 0.22222 0.0
C751 C 0.48594 0.80503 0.26167 0.0
C752 C 0.52159 0.83155 0.22178 0.0
C753 C 0.51593 0.81089 0.26056 0.0
C754 C 0.38933 0.74699 0.19807 0.0
C755 C 0.41769 0.76487 0.18731 0.0
C756 C 0.36663 0.72163 0.18606 0.0
C757 C 0.42297 0.75701 0.16475 0.0
C758 C 0.37278 0.7145 0.1635 0.0
N759 N 0.40059 0.73218 0.1534 0.0
C760 C 0.41831 0.70705 0.24672 0.0
C761 C 0.45667 0.7427 0.22108 0.0
C762 C 0.42636 0.68513 0.24128 0.0
N763 N 0.43338 0.73514 0.23657 0.0
C764 C 0.46543 0.72148 0.21509 0.0
C765 C 0.44999 0.69211 0.22503 0.0
H766 H 0.39952 0.70144 0.25866 0.0
H767 H 0.46781 0.76477 0.21267 0.0
C768 C 0.43964 0.853 0.20103 0.0
N769 N 0.41386 0.82532 0.20003 0.0
C770 C 0.44904 0.87221 0.18128 0.0
C771 C 0.40417 0.83484 0.16025 0.0
C772 C 0.39577 0.81619 0.18039 0.0
C773 C 0.43152 0.86294 0.1604 0.0
H774 H 0.45343 0.85972 0.21696 0.0
H775 H 0.37541 0.79399 0.18004 0.0
O776 O 0.39539 0.75278 0.27323 0.0
O777 O 0.3827 0.80278 0.25346 0.0
O778 O 0.4442 0.80658 0.24296 0.0
O779 O 0.3836 0.7543 0.22016 0.0
H780 H 0.35762 0.74587 0.30829 0.0
H781 H 0.44018 0.74582 0.29061 0.0
H782 H 0.3647 0.73627 0.35038 0.0
H783 H 0.44599 0.7365 0.33304 0.0
H784 H 0.30545 0.7852 0.20293 0.0
H785 H 0.37381 0.84719 0.26799 0.0
H786 H 0.34351 0.77263 0.21866 0.0
H787 H 0.33506 0.85844 0.25138 0.0
H788 H 0.39752 0.83436 0.34514 0.0
H789 H 0.49197 0.87861 0.32324 0.0
H790 H 0.27238 0.65946 0.24499 0.0
H791 H 0.27107 0.72324 0.29531 0.0
H792 H 0.48267 0.83201 0.20702 0.0
H793 H 0.47252 0.79505 0.27747 0.0
H794 H 0.53572 0.84186 0.2063 0.0
H795 H 0.52566 0.80517 0.27543 0.0
H796 H 0.43542 0.78465 0.19627 0.0
H797 H 0.34446 0.70763 0.19402 0.0
H798 H 0.44485 0.77067 0.15626 0.0
H799 H 0.35542 0.69492 0.15401 0.0
H800 H 0.41401 0.66288 0.24954 0.0
H801 H 0.48338 0.7277 0.20213 0.0
H802 H 0.47003 0.8939 0.18221 0.0
H803 H 0.39011 0.82684 0.14445 0.0
C804 C 0.2001 0.63708 0.31003 0.0
C805 C 0.17726 0.62117 0.29303 0.0
H806 H 0.24665 0.67113 0.31635 0.0
C807 C 0.18443 0.627 0.26878 0.0
H808 H 0.19506 0.63315 0.32884 0.0
C809 C 0.21387 0.64854 0.26165 0.0
C810 C 0.23655 0.66497 0.27864 0.0
H811 H 0.16721 0.61491 0.25534 0.0
H812 H 0.21876 0.6528 0.24284 0.0
C813 C 0.22945 0.65897 0.3029 0.0
C814 C 0.56648 0.1819 0.43446 0.0
C815 C 0.57008 0.17653 0.45845 0.0
H816 H 0.57112 0.21451 0.40815 0.0
C817 C 0.58221 0.2011 0.47443 0.0
H818 H 0.55747 0.16345 0.42168 0.0
C819 C 0.59006 0.23033 0.46667 0.0
C820 C 0.58613 0.23564 0.44273 0.0
H821 H 0.58504 0.19762 0.49305 0.0
H822 H 0.59936 0.24884 0.47941 0.0
C823 C 0.57451 0.21116 0.42667 0.0
C824 C 0.4235 0.59717 0.6193 0.0
C825 C 0.41366 0.56702 0.6263 0.0
H826 H 0.41079 0.62916 0.60681 0.0
C827 C 0.3823 0.54563 0.62577 0.0
H828 H 0.4475 0.61414 0.61929 0.0
C829 C 0.36132 0.55409 0.61826 0.0
C830 C 0.37113 0.5842 0.61117 0.0
H831 H 0.37389 0.52229 0.63133 0.0
H832 H 0.33739 0.53693 0.61781 0.0
C833 C 0.40248 0.60567 0.61182 0.0
C834 C 0.85975 0.39119 0.78429 0.0
C835 C 0.86863 0.42196 0.78813 0.0
H836 H 0.82406 0.3469 0.77413 0.0
C837 C 0.84785 0.43187 0.78302 0.0
H838 H 0.87541 0.38294 0.7877 0.0
C839 C 0.8185 0.41126 0.77497 0.0
C840 C 0.80935 0.38031 0.7718 0.0
H841 H 0.85397 0.4554 0.78587 0.0
H842 H 0.80287 0.41951 0.77145 0.0
C843 C 0.83046 0.37061 0.77621 0.0
C844 C 0.46696 0.84508 0.974 0.0
C845 C 0.46831 0.8674 0.95836 0.0
H846 H 0.45921 0.79976 0.97808 0.0
C847 C 0.46232 0.86021 0.93408 0.0
H848 H 0.47081 0.84958 0.99287 0.0
C849 C 0.45539 0.83148 0.92565 0.0
C850 C 0.45456 0.80944 0.94128 0.0
H851 H 0.46361 0.87696 0.92147 0.0
H852 H 0.45122 0.82668 0.90684 0.0
C853 C 0.46031 0.81651 0.96554 0.0
C854 C 0.61522 0.44193 0.11885 0.0
C855 C 0.62448 0.47205 0.12552 0.0
H856 H 0.62885 0.41045 0.1069 0.0
C857 C 0.65571 0.49388 0.1251 0.0
H858 H 0.59133 0.42463 0.1188 0.0
C859 C 0.67715 0.4859 0.11794 0.0
C860 C 0.66791 0.45585 0.1111 0.0
H861 H 0.66366 0.5172 0.13043 0.0
H862 H 0.70096 0.50339 0.11752 0.0
C863 C 0.6367 0.43392 0.11171 0.0
C864 C 0.40032 0.84689 0.51854 0.0
C865 C 0.41924 0.86963 0.53477 0.0
H866 H 0.36463 0.80089 0.51348 0.0
C867 C 0.41649 0.86248 0.55913 0.0
H868 H 0.40226 0.85145 0.49962 0.0
C869 C 0.39488 0.83338 0.56709 0.0
C870 C 0.37554 0.81091 0.55085 0.0
H871 H 0.43049 0.87958 0.57212 0.0
H872 H 0.39286 0.82868 0.58599 0.0
C873 C 0.37871 0.81792 0.52649 0.0
C874 C 0.58363 0.40478 0.68441 0.0
C875 C 0.57294 0.41873 0.70019 0.0
H876 H 0.59941 0.37317 0.67991 0.0
C877 C 0.56981 0.41082 0.72437 0.0
H878 H 0.5866 0.41076 0.66573 0.0
C879 C 0.57651 0.38873 0.7325 0.0
C880 C 0.58682 0.37435 0.71664 0.0
H881 H 0.5613 0.42106 0.73685 0.0
H882 H 0.57296 0.38246 0.75111 0.0
C883 C 0.59071 0.38303 0.69255 0.0
C884 C 0.19583 0.60081 0.87154 0.0
C885 C 0.17468 0.57045 0.86568 0.0
H886 H 0.24143 0.63275 0.88222 0.0
C887 C 0.18403 0.5486 0.86649 0.0
H888 H 0.18932 0.61817 0.8713 0.0
C889 C 0.21369 0.55681 0.87317 0.0
C890 C 0.23487 0.58716 0.87904 0.0
H891 H 0.16849 0.52508 0.86176 0.0
H892 H 0.21992 0.53927 0.8739 0.0
C893 C 0.22559 0.60908 0.87813 0.0
C894 C 0.63401 0.19775 0.01733 0.0
C895 C 0.6209 0.1737 0.03377 0.0
H896 H 0.66576 0.2451 0.01159 0.0
C897 C 0.62973 0.17959 0.05776 0.0
H898 H 0.62779 0.19382 0.99871 0.0
C899 C 0.65151 0.20884 0.06511 0.0
C900 C 0.66508 0.23278 0.0486 0.0
H901 H 0.6198 0.16152 0.07086 0.0
H902 H 0.65814 0.21259 0.08366 0.0
C903 C 0.65599 0.22698 0.02466 0.0
C904 C 0.49537 0.65486 0.20574 0.0
C905 C 0.47225 0.62476 0.20125 0.0
H906 H 0.50658 0.69949 0.21725 0.0
C907 C 0.44181 0.61662 0.20556 0.0
H908 H 0.51909 0.66167 0.20301 0.0
C909 C 0.43461 0.63834 0.21365 0.0
C910 C 0.45772 0.66862 0.2177 0.0
H911 H 0.4235 0.59367 0.20206 0.0
H912 H 0.41086 0.63158 0.21606 0.0
C913 C 0.4882 0.67652 0.2139 0.0
C914 C 0.86127 0.46662 0.38964 0.0
C915 C 0.86897 0.47144 0.36538 0.0
H916 H 0.82694 0.45616 0.41606 0.0
C917 C 0.84676 0.46849 0.34892 0.0
H918 H 0.87793 0.46911 0.40283 0.0
C919 C 0.81777 0.46146 0.35654 0.0
C920 C 0.81019 0.45697 0.38078 0.0
H921 H 0.85169 0.47142 0.33007 0.0
H922 H 0.80112 0.45914 0.34338 0.0
C923 C 0.83213 0.45935 0.39724 0.0
C924 C 0.13697 0.55433 0.43676 0.0
C925 C 0.12538 0.57271 0.4284 0.0
H926 H 0.16471 0.54843 0.46257 0.0
C927 C 0.13342 0.60004 0.44042 0.0
H928 H 0.13165 0.53338 0.42771 0.0
C929 C 0.15248 0.60871 0.46032 0.0
C930 C 0.16391 0.59024 0.46874 0.0
H931 H 0.12451 0.61449 0.43475 0.0
H932 H 0.15778 0.62964 0.46939 0.0
C933 C 0.15595 0.56295 0.45672 0.0
C934 C 0.57883 0.1542 0.59565 0.0
C935 C 0.57616 0.12521 0.59551 0.0
H936 H 0.5905 0.19461 0.61536 0.0
C937 C 0.58465 0.1154 0.61606 0.0
H938 H 0.57291 0.16276 0.5801 0.0
C939 C 0.59562 0.13409 0.63612 0.0
C940 C 0.59805 0.16298 0.63634 0.0
H941 H 0.5825 0.09306 0.61684 0.0
H942 H 0.60236 0.12586 0.65141 0.0
C943 C 0.58945 0.17275 0.61582 0.0
C944 C 0.45237 0.55702 0.77529 0.0
C945 C 0.47647 0.57656 0.76031 0.0
H946 H 0.42674 0.55267 0.80669 0.0
C947 C 0.49357 0.60771 0.76606 0.0
H948 H 0.43896 0.53287 0.77148 0.0
C949 C 0.48672 0.61904 0.78636 0.0
C950 C 0.46276 0.59943 0.80143 0.0
H951 H 0.51214 0.62338 0.75476 0.0
H952 H 0.5004 0.6431 0.79041 0.0
C953 C 0.44563 0.56831 0.79562 0.0
C954 C 0.90449 0.4411 0.93902 0.0
C955 C 0.91618 0.47007 0.92868 0.0
H956 H 0.87693 0.41047 0.96645 0.0
C957 C 0.90818 0.49062 0.9385 0.0
H958 H 0.91004 0.42469 0.93174 0.0
C959 C 0.88908 0.48242 0.95836 0.0
C960 C 0.87739 0.45343 0.96868 0.0
H961 H 0.91705 0.51321 0.93105 0.0
H962 H 0.88325 0.49869 0.96552 0.0
C963 C 0.88528 0.43286 0.95875 0.0
C964 C 0.48376 0.91227 0.11108 0.0
C965 C 0.4643 0.91848 0.09733 0.0
H966 H 0.4886 0.88987 0.14162 0.0
C967 C 0.43367 0.90581 0.10438 0.0
H968 H 0.50728 0.92104 0.10596 0.0
C969 C 0.42288 0.88758 0.12474 0.0
C970 C 0.44256 0.88191 0.13862 0.0
H971 H 0.41812 0.91044 0.09445 0.0
H972 H 0.3993 0.87843 0.1299 0.0
C973 C 0.47306 0.89435 0.13152 0.0
C974 C 0.55395 0.46289 0.28095 0.0
C975 C 0.56719 0.46504 0.25856 0.0
H976 H 0.55258 0.45164 0.31775 0.0
C977 C 0.58915 0.456 0.2563 0.0
H978 H 0.53728 0.47008 0.28337 0.0
C979 C 0.59784 0.44529 0.27601 0.0
C980 C 0.58485 0.44345 0.29847 0.0
H981 H 0.59943 0.45692 0.23923 0.0
H982 H 0.61463 0.43826 0.2736 0.0
C983 C 0.56268 0.45225 0.30066 0.0
C984 C 0.44394 0.91058 0.38545 0.0
C985 C 0.471 0.91906 0.39804 0.0
H986 H 0.41518 0.88566 0.35632 0.0
C987 C 0.48974 0.90751 0.39056 0.0
H988 H 0.42877 0.91873 0.39085 0.0
C989 C 0.48163 0.88801 0.37097 0.0
C990 C 0.45463 0.87964 0.35833 0.0
H991 H 0.51092 0.91384 0.39966 0.0
H992 H 0.49644 0.8793 0.36585 0.0
C993 C 0.43592 0.89122 0.36581 0.0
C994 C 0.55777 0.44218 0.55169 0.0
C995 C 0.57406 0.4715 0.56159 0.0
H996 H 0.55588 0.41169 0.52459 0.0
C997 C 0.60191 0.49294 0.55127 0.0
H998 H 0.53636 0.42513 0.55937 0.0
C999 C 0.61312 0.48525 0.53132 0.0
C1000 C 0.59685 0.45587 0.5215 0.0
H1001 H 0.61483 0.51579 0.55842 0.0
H1002 H 0.63465 0.50218 0.52373 0.0
C1003 C 0.56909 0.43442 0.53192 0.0
C1004 C 0.11187 0.57782 0.7098 0.0
C1005 C 0.12366 0.57762 0.73237 0.0
H1006 H 0.12103 0.58777 0.67281 0.0
C1007 C 0.15509 0.58885 0.73479 0.0
H1008 H 0.08767 0.56893 0.70734 0.0
C1009 C 0.17432 0.59999 0.71503 0.0
C1010 C 0.16251 0.59991 0.69236 0.0
H1011 H 0.16487 0.58936 0.75202 0.0
H1012 H 0.19849 0.60887 0.71758 0.0
C1013 C 0.13104 0.58874 0.69002 0.0
C1014 C 0.54975 0.11352 0.87701 0.0
C1015 C 0.56525 0.12361 0.89882 0.0
H1016 H 0.54672 0.12425 0.84062 0.0
C1017 C 0.58964 0.15372 0.90047 0.0
H1018 H 0.53115 0.09036 0.87496 0.0
C1019 C 0.59866 0.17304 0.88073 0.0
C1020 C 0.58342 0.1628 0.85887 0.0
H1021 H 0.60171 0.16247 0.91708 0.0
H1022 H 0.61755 0.1961 0.88258 0.0
C1023 C 0.55866 0.13293 0.85729 0.0
C1024 C 0.48616 0.59869 0.04858 0.0
C1025 C 0.46655 0.57238 0.0616 0.0
H1026 H 0.49159 0.62725 0.0189 0.0
C1027 C 0.43594 0.55497 0.05437 0.0
H1028 H 0.50976 0.61291 0.05377 0.0
C1029 C 0.42529 0.56362 0.03459 0.0
C1030 C 0.445 0.58981 0.02146 0.0
H1031 H 0.42024 0.53437 0.06378 0.0
H1032 H 0.40152 0.54984 0.02969 0.0
C1033 C 0.47558 0.6072 0.02873 0.0
C1034 C 0.93173 0.46885 0.20698 0.0
C1035 C 0.91993 0.46329 0.2302 0.0
H1036 H 0.92206 0.46279 0.16971 0.0
C1037 C 0.88822 0.44573 0.23337 0.0
H1038 H 0.95607 0.48198 0.20394 0.0
C1039 C 0.86874 0.43447 0.21375 0.0
C1040 C 0.88051 0.44042 0.19051 0.0
H1041 H 0.87839 0.4412 0.25102 0.0
H1042 H 0.84441 0.42112 0.2168 0.0
C1043 C 0.91225 0.45752 0.18736 0.0
loop_
_geom_bond_atom_site_label_1
_geom_bond_atom_site_label_2
_geom_bond_distance
_geom_bond_site_symmetry_2
_ccdc_geom_bond_type
C0 C1 1.384 . S
C0 C2 1.384 . S
C0 H28 0.931 . S
C1 C0 1.384 . S
C1 C4 1.382 . S
C2 C0 1.384 . S
C2 C3 1.381 . S
C2 H29 0.930 . S
C3 C2 1.381 . S
C3 C5 1.381 . S
C3 C6 1.487 . S
C4 C1 1.382 . S
C4 C5 1.387 . S
C4 H30 0.930 . S
C5 C3 1.381 . S
C5 C4 1.387 . S
C5 H31 0.931 . S
C6 C3 1.487 . S
C6 C13 1.399 1_655 S
C6 N44 1.343 1_655 S
C7 C8 1.384 . S
C7 C9 1.384 . S
C7 H32 0.931 . S
C8 C7 1.384 . S
C8 C11 1.382 . S
C9 C7 1.384 . S
C9 C10 1.381 . S
C9 H33 0.930 . S
C10 C9 1.381 . S
C10 C12 1.381 . S
C10 C13 1.487 1_655 S
C11 C8 1.382 . S
C11 C12 1.387 . S
C11 H34 0.930 . S
C12 C10 1.381 . S
C12 C11 1.387 . S
C12 H35 0.931 1_655 S
C13 C6 1.399 1_455 S
C13 C10 1.487 1_455 S
C13 N45 1.343 . S
C14 C15 1.384 . S
C14 C16 1.384 . S
C14 H36 0.931 . S
C15 C14 1.384 . S
C15 C18 1.382 . S
C16 C14 1.384 . S
C16 C17 1.381 . S
C16 H37 0.930 . S
C17 C16 1.381 . S
C17 C19 1.381 . S
C17 C20 1.487 . S
C18 C15 1.382 . S
C18 C19 1.387 . S
C18 H38 0.930 . S
C19 C17 1.381 . S
C19 C18 1.387 . S
C19 H39 0.931 . S
C20 C17 1.487 . S
C20 C27 1.399 . S
C20 N45 1.343 . S
C21 C22 1.384 . S
C21 C23 1.384 . S
C21 H40 0.931 . S
C22 C21 1.384 . S
C22 C25 1.382 . S
C23 C21 1.384 . S
C23 C24 1.381 . S
C23 H41 0.930 . S
C24 C23 1.381 . S
C24 C26 1.381 . S
C24 C27 1.487 . S
C25 C22 1.382 . S
C25 C26 1.387 . S
C25 H42 0.930 . S
C26 C24 1.381 . S
C26 C25 1.387 . S
C26 H43 0.931 . S
C27 C20 1.399 . S
C27 C24 1.487 . S
C27 N44 1.343 . S
H28 C0 0.931 . S
H29 C2 0.930 . S
H30 C4 0.930 . S
H31 C5 0.931 . S
H32 C7 0.931 . S
H33 C9 0.930 . S
H34 C11 0.930 . S
H35 C12 0.931 1_455 S
H36 C14 0.931 . S
H37 C16 0.930 . S
H38 C18 0.930 . S
H39 C19 0.931 . S
H40 C21 0.931 . S
H41 C23 0.930 . S
H42 C25 0.930 . S
H43 C26 0.931 . S
N44 C6 1.343 1_455 S
N44 C27 1.343 . S
N45 C13 1.343 . S
N45 C20 1.343 . S
C46 C47 1.384 . S
C46 C48 1.384 . S
C46 H74 0.931 . S
C47 C46 1.384 . S
C47 C50 1.382 . S
C48 C46 1.384 . S
C48 C49 1.381 . S
C48 H75 0.930 . S
C49 C48 1.381 . S
C49 C51 1.381 . S
C49 C52 1.487 . S
C50 C47 1.382 . S
C50 C51 1.387 . S
C50 H76 0.930 . S
C51 C49 1.381 . S
C51 C50 1.387 . S
C51 H77 0.931 . S
C52 C49 1.487 . S
C52 C59 1.399 1_565 S
C52 N90 1.343 1_565 S
C53 C54 1.384 . S
C53 C55 1.384 . S
C53 H78 0.931 . S
C54 C53 1.384 . S
C54 C57 1.382 . S
C55 C53 1.384 . S
C55 C56 1.381 . S
C55 H79 0.930 . S
C56 C55 1.381 . S
C56 C58 1.381 . S
C56 C59 1.487 1_565 S
C57 C54 1.382 . S
C57 C58 1.387 . S
C57 H80 0.930 . S
C58 C56 1.381 . S
C58 C57 1.387 . S
C58 H81 0.931 1_565 S
C59 C52 1.399 1_545 S
C59 C56 1.487 1_545 S
C59 N91 1.343 . S
C60 C61 1.384 . S
C60 C62 1.384 . S
C60 H82 0.931 . S
C61 C60 1.384 . S
C61 C64 1.382 . S
C62 C60 1.384 . S
C62 C63 1.381 . S
C62 H83 0.930 . S
C63 C62 1.381 . S
C63 C65 1.381 . S
C63 C66 1.487 . S
C64 C61 1.382 . S
C64 C65 1.387 . S
C64 H84 0.930 . S
C65 C63 1.381 . S
C65 C64 1.387 . S
C65 H85 0.931 . S
C66 C63 1.487 . S
C66 C73 1.399 . S
C66 N91 1.343 . S
C67 C68 1.384 . S
C67 C69 1.384 . S
C67 H86 0.931 . S
C68 C67 1.384 . S
C68 C71 1.382 . S
C69 C67 1.384 . S
C69 C70 1.381 . S
C69 H87 0.930 . S
C70 C69 1.381 . S
C70 C72 1.381 . S
C70 C73 1.487 . S
C71 C68 1.382 . S
C71 C72 1.387 . S
C71 H88 0.930 . S
C72 C70 1.381 . S
C72 C71 1.387 . S
C72 H89 0.931 . S
C73 C66 1.399 . S
C73 C70 1.487 . S
C73 N90 1.343 . S
H74 C46 0.931 . S
H75 C48 0.930 . S
H76 C50 0.930 . S
H77 C51 0.931 . S
H78 C53 0.931 . S
H79 C55 0.930 . S
H80 C57 0.930 . S
H81 C58 0.931 1_545 S
H82 C60 0.931 . S
H83 C62 0.930 . S
H84 C64 0.930 . S
H85 C65 0.931 . S
H86 C67 0.931 . S
H87 C69 0.930 . S
H88 C71 0.930 . S
H89 C72 0.931 . S
N90 C52 1.343 1_545 S
N90 C73 1.343 . S
N91 C59 1.343 . S
N91 C66 1.343 . S
C92 C93 1.384 . S
C92 C94 1.384 . S
C92 H120 0.931 . S
C93 C92 1.384 . S
C93 C96 1.382 . S
C94 C92 1.384 . S
C94 C95 1.381 . S
C94 H121 0.930 . S
C95 C94 1.381 . S
C95 C97 1.381 . S
C95 C98 1.487 . S
C96 C93 1.382 . S
C96 C97 1.387 . S
C96 H122 0.930 . S
C97 C95 1.381 . S
C97 C96 1.387 . S
C97 H123 0.931 . S
C98 C95 1.487 . S
C98 C105 1.399 . S
C98 N136 1.343 . S
C99 C100 1.384 . S
C99 C101 1.384 . S
C99 H124 0.931 . S
C100 C99 1.384 . S
C100 C103 1.382 . S
C101 C99 1.384 . S
C101 C102 1.381 . S
C101 H125 0.930 . S
C102 C101 1.381 . S
C102 C104 1.381 . S
C102 C105 1.487 . S
C103 C100 1.382 . S
C103 C104 1.387 . S
C103 H126 0.930 . S
C104 C102 1.381 . S
C104 C103 1.387 . S
C104 H127 0.931 . S
C105 C98 1.399 . S
C105 C102 1.487 . S
C105 N137 1.343 . S
C106 C107 1.384 . S
C106 C108 1.384 . S
C106 H128 0.931 . S
C107 C106 1.384 . S
C107 C110 1.382 . S
C108 C106 1.384 . S
C108 C109 1.381 . S
C108 H129 0.930 . S
C109 C108 1.381 . S
C109 C111 1.381 . S
C109 C112 1.487 . S
C110 C107 1.382 . S
C110 C111 1.387 . S
C110 H130 0.930 . S
C111 C109 1.381 . S
C111 C110 1.387 . S
C111 H131 0.931 . S
C112 C109 1.487 . S
C112 C119 1.399 . S
C112 N137 1.343 . S
C113 C114 1.384 . S
C113 C115 1.384 . S
C113 H132 0.931 . S
C114 C113 1.384 . S
C114 C117 1.382 . S
C115 C113 1.384 . S
C115 C116 1.381 . S
C115 H133 0.930 . S
C116 C115 1.381 . S
C116 C118 1.381 . S
C116 C119 1.487 . S
C117 C114 1.382 . S
C117 C118 1.387 . S
C117 H134 0.930 . S
C118 C116 1.381 . S
C118 C117 1.387 . S
C118 H135 0.931 . S
C119 C112 1.399 . S
C119 C116 1.487 . S
C119 N136 1.343 . S
H120 C92 0.931 . S
H121 C94 0.930 . S
H122 C96 0.930 . S
H123 C97 0.931 . S
H124 C99 0.931 . S
H125 C101 0.930 . S
H126 C103 0.930 . S
H127 C104 0.931 . S
H128 C106 0.931 . S
H129 C108 0.930 . S
H130 C110 0.930 . S
H131 C111 0.931 . S
H132 C113 0.931 . S
H133 C115 0.930 . S
H134 C117 0.930 . S
H135 C118 0.931 . S
N136 C98 1.343 . S
N136 C119 1.343 . S
N137 C105 1.343 . S
N137 C112 1.343 . S
C138 C139 1.384 . S
C138 C140 1.384 . S
C138 H166 0.931 . S
C139 C138 1.384 . S
C139 C142 1.382 . S
C140 C138 1.384 . S
C140 C141 1.381 . S
C140 H167 0.930 . S
C141 C140 1.381 . S
C141 C143 1.381 . S
C141 C144 1.487 . S
C142 C139 1.382 . S
C142 C143 1.387 . S
C142 H168 0.930 . S
C143 C141 1.381 . S
C143 C142 1.387 . S
C143 H169 0.931 . S
C144 C141 1.487 . S
C144 C151 1.399 1_655 S
C144 N182 1.343 1_655 S
C145 C146 1.384 . S
C145 C147 1.384 . S
C145 H170 0.931 . S
C146 C145 1.384 . S
C146 C149 1.382 . S
C147 C145 1.384 . S
C147 C148 1.381 . S
C147 H171 0.930 . S
C148 C147 1.381 . S
C148 C150 1.381 . S
C148 C151 1.487 1_655 S
C149 C146 1.382 . S
C149 C150 1.387 . S
C149 H172 0.930 . S
C150 C148 1.381 . S
C150 C149 1.387 . S
C150 H173 0.931 1_655 S
C151 C144 1.399 1_455 S
C151 C148 1.487 1_455 S
C151 N183 1.343 . S
C152 C153 1.384 . S
C152 C154 1.384 . S
C152 H174 0.931 . S
C153 C152 1.384 . S
C153 C156 1.382 . S
C154 C152 1.384 . S
C154 C155 1.381 . S
C154 H175 0.930 . S
C155 C154 1.381 . S
C155 C157 1.381 . S
C155 C158 1.487 . S
C156 C153 1.382 . S
C156 C157 1.387 . S
C156 H176 0.930 . S
C157 C155 1.381 . S
C157 C156 1.387 . S
C157 H177 0.931 . S
C158 C155 1.487 . S
C158 C165 1.399 . S
C158 N183 1.343 . S
C159 C160 1.384 . S
C159 C161 1.384 . S
C159 H178 0.931 . S
C160 C159 1.384 . S
C160 C163 1.382 . S
C161 C159 1.384 . S
C161 C162 1.381 . S
C161 H179 0.930 . S
C162 C161 1.381 . S
C162 C164 1.381 . S
C162 C165 1.487 . S
C163 C160 1.382 . S
C163 C164 1.387 . S
C163 H180 0.930 . S
C164 C162 1.381 . S
C164 C163 1.387 . S
C164 H181 0.931 . S
C165 C158 1.399 . S
C165 C162 1.487 . S
C165 N182 1.343 . S
H166 C138 0.931 . S
H167 C140 0.930 . S
H168 C142 0.930 . S
H169 C143 0.931 . S
H170 C145 0.931 . S
H171 C147 0.930 . S
H172 C149 0.930 . S
H173 C150 0.931 1_455 S
H174 C152 0.931 . S
H175 C154 0.930 . S
H176 C156 0.930 . S
H177 C157 0.931 . S
H178 C159 0.931 . S
H179 C161 0.930 . S
H180 C163 0.930 . S
H181 C164 0.931 . S
N182 C144 1.343 1_455 S
N182 C165 1.343 . S
N183 C151 1.343 . S
N183 C158 1.343 . S
C184 C185 1.384 . S
C184 C186 1.384 . S
C184 H212 0.931 . S
C185 C184 1.384 . S
C185 C188 1.382 . S
C186 C184 1.384 . S
C186 C187 1.381 . S
C186 H213 0.930 1_556 S
C187 C186 1.381 . S
C187 C189 1.381 . S
C187 C190 1.487 . S
C188 C185 1.382 . S
C188 C189 1.387 . S
C188 H214 0.930 . S
C189 C187 1.381 . S
C189 C188 1.387 . S
C189 H215 0.931 . S
C190 C187 1.487 . S
C190 C197 1.399 1_566 S
C190 N228 1.343 1_565 S
C191 C192 1.384 . S
C191 C193 1.384 . S
C191 H216 0.931 . S
C192 C191 1.384 . S
C192 C195 1.382 . S
C193 C191 1.384 . S
C193 C194 1.381 . S
C193 H217 0.930 . S
C194 C193 1.381 . S
C194 C196 1.381 . S
C194 C197 1.487 1_565 S
C195 C192 1.382 . S
C195 C196 1.387 . S
C195 H218 0.930 . S
C196 C194 1.381 . S
C196 C195 1.387 . S
C196 H219 0.931 1_565 S
C197 C190 1.399 1_544 S
C197 C194 1.487 1_545 S
C197 N229 1.343 . S
C198 C199 1.384 . S
C198 C200 1.384 1_554 S
C198 H220 0.931 . S
C199 C198 1.384 . S
C199 C202 1.382 . S
C200 C198 1.384 1_556 S
C200 C201 1.381 1_556 S
C200 H221 0.930 . S
C201 C200 1.381 1_554 S
C201 C203 1.381 . S
C201 C204 1.488 . S
C202 C199 1.382 . S
C202 C203 1.387 . S
C202 H222 0.930 . S
C203 C201 1.381 . S
C203 C202 1.387 . S
C203 H223 0.931 . S
C204 C201 1.488 . S
C204 C211 1.395 1_554 S
C204 N229 1.346 . S
C205 C206 1.384 . S
C205 C207 1.384 . S
C205 H224 0.931 . S
C206 C205 1.384 . S
C206 C209 1.382 . S
C207 C205 1.384 . S
C207 C208 1.381 . S
C207 H225 0.930 . S
C208 C207 1.381 . S
C208 C210 1.381 . S
C208 C211 1.487 . S
C209 C206 1.382 . S
C209 C210 1.387 . S
C209 H226 0.930 . S
C210 C208 1.381 . S
C210 C209 1.387 . S
C210 H227 0.931 . S
C211 C204 1.395 1_556 S
C211 C208 1.487 . S
C211 N228 1.343 . S
H212 C184 0.931 . S
H213 C186 0.930 1_554 S
H214 C188 0.930 . S
H215 C189 0.931 . S
H216 C191 0.931 . S
H217 C193 0.930 . S
H218 C195 0.930 . S
H219 C196 0.931 1_545 S
H220 C198 0.931 . S
H221 C200 0.930 . S
H222 C202 0.930 . S
H223 C203 0.931 . S
H224 C205 0.931 . S
H225 C207 0.930 . S
H226 C209 0.930 . S
H227 C210 0.931 . S
N228 C190 1.343 1_545 S
N228 C211 1.343 . S
N229 C197 1.343 . S
N229 C204 1.346 . S
C230 C231 1.384 . S
C230 C232 1.384 . S
C230 H258 0.931 . S
C231 C230 1.384 . S
C231 C234 1.382 . S
C232 C230 1.384 . S
C232 C233 1.381 . S
C232 H259 0.930 . S
C233 C232 1.381 . S
C233 C235 1.381 . S
C233 C236 1.487 . S
C234 C231 1.382 . S
C234 C235 1.387 . S
C234 H260 0.930 . S
C235 C233 1.381 . S
C235 C234 1.387 . S
C235 H261 0.931 . S
C236 C233 1.487 . S
C236 C243 1.399 . S
C236 N274 1.343 . S
C237 C238 1.384 . S
C237 C239 1.384 . S
C237 H262 0.931 . S
C238 C237 1.384 . S
C238 C241 1.382 . S
C239 C237 1.384 . S
C239 C240 1.381 . S
C239 H263 0.930 . S
C240 C239 1.381 . S
C240 C242 1.381 . S
C240 C243 1.487 . S
C241 C238 1.382 . S
C241 C242 1.387 . S
C241 H264 0.930 . S
C242 C240 1.381 . S
C242 C241 1.387 . S
C242 H265 0.931 . S
C243 C236 1.399 . S
C243 C240 1.487 . S
C243 N275 1.343 . S
C244 C245 1.384 . S
C244 C246 1.384 . S
C244 H266 0.931 . S
C245 C244 1.384 . S
C245 C248 1.382 . S
C246 C244 1.384 . S
C246 C247 1.381 . S
C246 H267 0.930 . S
C247 C246 1.381 . S
C247 C249 1.381 . S
C247 C250 1.487 . S
C248 C245 1.382 . S
C248 C249 1.387 . S
C248 H268 0.930 . S
C249 C247 1.381 . S
C249 C248 1.387 . S
C249 H269 0.931 . S
C250 C247 1.487 . S
C250 C257 1.399 . S
C250 N275 1.343 . S
C251 C252 1.384 . S
C251 C253 1.384 . S
C251 H270 0.931 . S
C252 C251 1.384 . S
C252 C255 1.382 . S
C253 C251 1.384 . S
C253 C254 1.381 . S
C253 H271 0.930 . S
C254 C253 1.381 . S
C254 C256 1.381 . S
C254 C257 1.487 . S
C255 C252 1.382 . S
C255 C256 1.387 . S
C255 H272 0.930 . S
C256 C254 1.381 . S
C256 C255 1.387 . S
C256 H273 0.931 . S
C257 C250 1.399 . S
C257 C254 1.487 . S
C257 N274 1.343 . S
H258 C230 0.931 . S
H259 C232 0.930 . S
H260 C234 0.930 . S
H261 C235 0.931 . S
H262 C237 0.931 . S
H263 C239 0.930 . S
H264 C241 0.930 . S
H265 C242 0.931 . S
H266 C244 0.931 . S
H267 C246 0.930 . S
H268 C248 0.930 . S
H269 C249 0.931 . S
H270 C251 0.931 . S
H271 C253 0.930 . S
H272 C255 0.930 . S
H273 C256 0.931 . S
N274 C236 1.343 . S
N274 C257 1.343 . S
N275 C243 1.343 . S
N275 C250 1.343 . S
Li276 N293 1.990 . S
Li276 O336 1.956 . S
Li276 O337 1.970 . S
Li276 O338 1.961 . S
Li277 N301 1.990 . S
Li277 O336 1.970 . S
Li277 O337 1.956 . S
Li277 O339 1.961 . S
Li278 N323 1.990 . S
Li278 O336 1.961 . S
Li278 O338 1.956 . S
Li278 O339 1.970 . S
Li279 N329 1.990 . S
Li279 O337 1.961 . S
Li279 O338 1.970 . S
Li279 O339 1.956 . S
C280 C282 1.348 . S
C280 C283 1.356 . S
C280 O336 1.325 . S
N281 C284 1.314 . S
N281 C285 1.279 . S
C282 C280 1.348 . S
C282 C284 1.353 . S
C282 H340 0.929 . S
C283 C280 1.356 . S
C283 C285 1.358 . S
C283 H341 0.930 . S
C284 N281 1.314 . S
C284 C282 1.353 . S
C284 H342 0.930 . S
C285 N281 1.279 . S
C285 C283 1.358 . S
C285 H343 0.930 . S
C286 C289 1.348 . S
C286 C290 1.356 . S
C286 O337 1.325 . S
C287 N288 1.279 . S
C287 C290 1.358 . S
C287 H344 0.930 . S
N288 C287 1.279 . S
N288 C291 1.314 . S
C289 C286 1.348 . S
C289 C291 1.353 . S
C289 H345 0.929 . S
C290 C286 1.356 . S
C290 C287 1.358 . S
C290 H346 0.930 . S
C291 N288 1.314 . S
C291 C289 1.353 . S
C291 H347 0.930 . S
C292 N293 1.314 . S
C292 C297 1.353 . S
C292 H298 0.930 . S
N293 Li276 1.990 . S
N293 C292 1.314 . S
N293 C295 1.279 . S
C294 C295 1.358 . S
C294 C296 1.356 . S
C294 H348 0.930 . S
C295 N293 1.279 . S
C295 C294 1.358 . S
C295 H299 0.930 . S
C296 C294 1.356 . S
C296 C297 1.348 . S
C297 C292 1.353 . S
C297 C296 1.348 . S
C297 H349 0.929 . S
H298 C292 0.930 . S
H299 C295 0.930 . S
C300 N301 1.314 . S
C300 C302 1.353 . S
C300 H306 0.930 . S
N301 Li277 1.990 . S
N301 C300 1.314 . S
N301 C304 1.279 . S
C302 C300 1.353 . S
C302 C305 1.348 . S
C302 H350 0.929 . S
C303 C304 1.358 . S
C303 C305 1.356 . S
C303 H351 0.930 . S
C304 N301 1.279 . S
C304 C303 1.358 . S
C304 H307 0.930 . S
C305 C302 1.348 . S
C305 C303 1.356 . S
H306 C300 0.930 . S
H307 C304 0.930 . S
C308 C310 1.348 . S
C308 C311 1.356 . S
C308 O338 1.325 . S
N309 C312 1.314 . S
N309 C313 1.279 . S
C310 C308 1.348 . S
C310 C312 1.353 . S
C310 H352 0.929 . S
C311 C308 1.356 . S
C311 C313 1.358 . S
C311 H353 0.930 . S
C312 N309 1.314 . S
C312 C310 1.353 . S
C312 H354 0.930 . S
C313 N309 1.279 . S
C313 C311 1.358 . S
C313 H355 0.930 . S
C314 C315 1.348 . S
C314 C316 1.356 . S
C314 O339 1.325 . S
C315 C314 1.348 . S
C315 C317 1.353 . S
C315 H356 0.929 . S
C316 C314 1.356 . S
C316 C318 1.358 . S
C316 H357 0.930 . S
C317 C315 1.353 . S
C317 N319 1.314 . S
C317 H358 0.930 . S
C318 C316 1.358 . S
C318 N319 1.279 . S
C318 H359 0.930 . S
N319 C317 1.314 . S
N319 C318 1.279 . S
C320 C322 1.353 . S
C320 N323 1.314 . S
C320 H326 0.930 . S
C321 N323 1.279 . S
C321 C324 1.358 . S
C321 H327 0.930 . S
C322 C320 1.353 . S
C322 C325 1.348 . S
C322 H360 0.929 . S
N323 Li278 1.990 . S
N323 C320 1.314 . S
N323 C321 1.279 . S
C324 C321 1.358 . S
C324 C325 1.356 . S
C324 H361 0.930 . S
C325 C322 1.348 . S
C325 C324 1.356 . S
H326 C320 0.930 . S
H327 C321 0.930 . S
C328 N329 1.314 . S
C328 C330 1.353 . S
C328 H334 0.930 . S
N329 Li279 1.990 . S
N329 C328 1.314 . S
N329 C332 1.279 . S
C330 C328 1.353 . S
C330 C333 1.348 . S
C330 H362 0.929 . S
C331 C332 1.358 . S
C331 C333 1.356 . S
C331 H363 0.930 . S
C332 N329 1.279 . S
C332 C331 1.358 . S
C332 H335 0.930 . S
C333 C330 1.348 . S
C333 C331 1.356 . S
H334 C328 0.930 . S
H335 C332 0.930 . S
O336 Li276 1.956 . S
O336 Li277 1.970 . S
O336 Li278 1.961 . S
O336 C280 1.325 . S
O337 Li276 1.970 . S
O337 Li277 1.956 . S
O337 Li279 1.961 . S
O337 C286 1.325 . S
O338 Li276 1.961 . S
O338 Li278 1.956 . S
O338 Li279 1.970 . S
O338 C308 1.325 . S
O339 Li277 1.961 . S
O339 Li278 1.970 . S
O339 Li279 1.956 . S
O339 C314 1.325 . S
H340 C282 0.929 . S
H341 C283 0.930 . S
H342 C284 0.930 . S
H343 C285 0.930 . S
H344 C287 0.930 . S
H345 C289 0.929 . S
H346 C290 0.930 . S
H347 C291 0.930 . S
H348 C294 0.930 . S
H349 C297 0.929 . S
H350 C302 0.929 . S
H351 C303 0.930 . S
H352 C310 0.929 . S
H353 C311 0.930 . S
H354 C312 0.930 . S
H355 C313 0.930 . S
H356 C315 0.929 . S
H357 C316 0.930 . S
H358 C317 0.930 . S
H359 C318 0.930 . S
H360 C322 0.929 . S
H361 C324 0.930 . S
H362 C330 0.929 . S
H363 C331 0.930 . S
Li364 N381 1.990 . S
Li364 O424 1.956 . S
Li364 O425 1.970 . S
Li364 O426 1.961 . S
Li365 N389 1.990 . S
Li365 O424 1.970 . S
Li365 O425 1.956 . S
Li365 O427 1.961 . S
Li366 N411 1.990 . S
Li366 O424 1.961 . S
Li366 O426 1.956 . S
Li366 O427 1.970 . S
Li367 N417 1.990 . S
Li367 O425 1.961 . S
Li367 O426 1.970 . S
Li367 O427 1.956 . S
C368 C370 1.348 . S
C368 C371 1.356 . S
C368 O424 1.325 . S
N369 C372 1.314 . S
N369 C373 1.279 . S
C370 C368 1.348 . S
C370 C372 1.353 . S
C370 H428 0.929 . S
C371 C368 1.356 . S
C371 C373 1.358 . S
C371 H429 0.930 . S
C372 N369 1.314 . S
C372 C370 1.353 . S
C372 H430 0.930 . S
C373 N369 1.279 . S
C373 C371 1.358 . S
C373 H431 0.930 . S
C374 C377 1.348 . S
C374 C378 1.356 . S
C374 O425 1.325 . S
C375 N376 1.279 . S
C375 C378 1.358 . S
C375 H432 0.930 . S
N376 C375 1.279 . S
N376 C379 1.314 . S
C377 C374 1.348 . S
C377 C379 1.353 . S
C377 H433 0.929 . S
C378 C374 1.356 . S
C378 C375 1.358 . S
C378 H434 0.930 . S
C379 N376 1.314 . S
C379 C377 1.353 . S
C379 H435 0.930 . S
C380 N381 1.314 . S
C380 C385 1.353 . S
C380 H386 0.930 . S
N381 Li364 1.990 . S
N381 C380 1.314 . S
N381 C383 1.279 . S
C382 C383 1.358 . S
C382 C384 1.356 . S
C382 H436 0.930 . S
C383 N381 1.279 . S
C383 C382 1.358 . S
C383 H387 0.930 . S
C384 C382 1.356 . S
C384 C385 1.348 . S
C385 C380 1.353 . S
C385 C384 1.348 . S
C385 H437 0.929 . S
H386 C380 0.930 . S
H387 C383 0.930 . S
C388 N389 1.314 . S
C388 C390 1.353 . S
C388 H394 0.930 . S
N389 Li365 1.990 . S
N389 C388 1.314 . S
N389 C392 1.279 . S
C390 C388 1.353 . S
C390 C393 1.348 . S
C390 H438 0.929 . S
C391 C392 1.358 . S
C391 C393 1.356 . S
C391 H439 0.930 . S
C392 N389 1.279 . S
C392 C391 1.358 . S
C392 H395 0.930 . S
C393 C390 1.348 . S
C393 C391 1.356 . S
H394 C388 0.930 . S
H395 C392 0.930 . S
C396 C398 1.348 . S
C396 C399 1.356 . S
C396 O426 1.325 . S
N397 C400 1.314 . S
N397 C401 1.279 . S
C398 C396 1.348 . S
C398 C400 1.353 . S
C398 H440 0.929 . S
C399 C396 1.356 . S
C399 C401 1.358 . S
C399 H441 0.930 . S
C400 N397 1.314 . S
C400 C398 1.353 . S
C400 H442 0.930 . S
C401 N397 1.279 . S
C401 C399 1.358 . S
C401 H443 0.930 . S
C402 C403 1.348 . S
C402 C404 1.356 . S
C402 O427 1.325 . S
C403 C402 1.348 . S
C403 C405 1.353 . S
C403 H444 0.929 . S
C404 C402 1.356 . S
C404 C406 1.358 . S
C404 H445 0.930 . S
C405 C403 1.353 . S
C405 N407 1.314 . S
C405 H446 0.930 . S
C406 C404 1.358 . S
C406 N407 1.279 . S
C406 H447 0.930 . S
N407 C405 1.314 . S
N407 C406 1.279 . S
C408 C410 1.353 . S
C408 N411 1.314 . S
C408 H414 0.930 . S
C409 N411 1.279 . S
C409 C412 1.358 . S
C409 H415 0.930 . S
C410 C408 1.353 . S
C410 C413 1.348 . S
C410 H448 0.929 . S
N411 Li366 1.990 . S
N411 C408 1.314 . S
N411 C409 1.279 . S
C412 C409 1.358 . S
C412 C413 1.356 . S
C412 H449 0.930 . S
C413 C410 1.348 . S
C413 C412 1.356 . S
H414 C408 0.930 . S
H415 C409 0.930 . S
C416 N417 1.314 . S
C416 C418 1.353 . S
C416 H422 0.930 . S
N417 Li367 1.990 . S
N417 C416 1.314 . S
N417 C420 1.279 . S
C418 C416 1.353 . S
C418 C421 1.348 . S
C418 H450 0.929 . S
C419 C420 1.358 . S
C419 C421 1.356 . S
C419 H451 0.930 . S
C420 N417 1.279 . S
C420 C419 1.358 . S
C420 H423 0.930 . S
C421 C418 1.348 . S
C421 C419 1.356 . S
H422 C416 0.930 . S
H423 C420 0.930 . S
O424 Li364 1.956 . S
O424 Li365 1.970 . S
O424 Li366 1.961 . S
O424 C368 1.325 . S
O425 Li364 1.970 . S
O425 Li365 1.956 . S
O425 Li367 1.961 . S
O425 C374 1.325 . S
O426 Li364 1.961 . S
O426 Li366 1.956 . S
O426 Li367 1.970 . S
O426 C396 1.325 . S
O427 Li365 1.961 . S
O427 Li366 1.970 . S
O427 Li367 1.956 . S
O427 C402 1.325 . S
H428 C370 0.929 . S
H429 C371 0.930 . S
H430 C372 0.930 . S
H431 C373 0.930 . S
H432 C375 0.930 . S
H433 C377 0.929 . S
H434 C378 0.930 . S
H435 C379 0.930 . S
H436 C382 0.930 . S
H437 C385 0.929 . S
H438 C390 0.929 . S
H439 C391 0.930 . S
H440 C398 0.929 . S
H441 C399 0.930 . S
H442 C400 0.930 . S
H443 C401 0.930 . S
H444 C403 0.929 . S
H445 C404 0.930 . S
H446 C405 0.930 . S
H447 C406 0.930 . S
H448 C410 0.929 . S
H449 C412 0.930 . S
H450 C418 0.929 . S
H451 C419 0.930 . S
Li452 N469 1.990 . S
Li452 O512 1.956 . S
Li452 O513 1.970 . S
Li452 O514 1.961 . S
Li453 N477 1.990 . S
Li453 O512 1.970 . S
Li453 O513 1.956 . S
Li453 O515 1.961 . S
Li454 N499 1.990 . S
Li454 O512 1.961 . S
Li454 O514 1.956 . S
Li454 O515 1.970 . S
Li455 N505 1.990 . S
Li455 O513 1.961 . S
Li455 O514 1.970 . S
Li455 O515 1.956 . S
C456 C458 1.348 . S
C456 C459 1.356 . S
C456 O512 1.325 . S
N457 C460 1.314 . S
N457 C461 1.279 . S
C458 C456 1.348 . S
C458 C460 1.353 . S
C458 H516 0.929 . S
C459 C456 1.356 . S
C459 C461 1.358 . S
C459 H517 0.930 . S
C460 N457 1.314 . S
C460 C458 1.353 . S
C460 H518 0.930 . S
C461 N457 1.279 . S
C461 C459 1.358 . S
C461 H519 0.930 . S
C462 C465 1.348 . S
C462 C466 1.356 . S
C462 O513 1.325 . S
C463 N464 1.279 . S
C463 C466 1.358 . S
C463 H520 0.930 . S
N464 C463 1.279 . S
N464 C467 1.314 . S
C465 C462 1.348 . S
C465 C467 1.353 . S
C465 H521 0.929 . S
C466 C462 1.356 . S
C466 C463 1.358 . S
C466 H522 0.930 . S
C467 N464 1.314 . S
C467 C465 1.353 . S
C467 H523 0.930 . S
C468 N469 1.314 . S
C468 C473 1.353 . S
C468 H474 0.930 . S
N469 Li452 1.990 . S
N469 C468 1.314 . S
N469 C471 1.279 . S
C470 C471 1.358 . S
C470 C472 1.356 . S
C470 H524 0.930 . S
C471 N469 1.279 . S
C471 C470 1.358 . S
C471 H475 0.930 . S
C472 C470 1.356 . S
C472 C473 1.348 . S
C473 C468 1.353 . S
C473 C472 1.348 . S
C473 H525 0.929 . S
H474 C468 0.930 . S
H475 C471 0.930 . S
C476 N477 1.314 . S
C476 C478 1.353 . S
C476 H482 0.930 . S
N477 Li453 1.990 . S
N477 C476 1.314 . S
N477 C480 1.279 . S
C478 C476 1.353 . S
C478 C481 1.348 . S
C478 H526 0.929 . S
C479 C480 1.358 . S
C479 C481 1.356 . S
C479 H527 0.930 . S
C480 N477 1.279 . S
C480 C479 1.358 . S
C480 H483 0.930 . S
C481 C478 1.348 . S
C481 C479 1.356 . S
H482 C476 0.930 . S
H483 C480 0.930 . S
C484 C486 1.348 . S
C484 C487 1.356 . S
C484 O514 1.325 . S
N485 C488 1.314 . S
N485 C489 1.279 . S
C486 C484 1.348 . S
C486 C488 1.353 . S
C486 H528 0.929 . S
C487 C484 1.356 . S
C487 C489 1.358 . S
C487 H529 0.930 . S
C488 N485 1.314 . S
C488 C486 1.353 . S
C488 H530 0.930 . S
C489 N485 1.279 . S
C489 C487 1.358 . S
C489 H531 0.930 . S
C490 C491 1.348 . S
C490 C492 1.356 . S
C490 O515 1.325 . S
C491 C490 1.348 . S
C491 C493 1.353 . S
C491 H532 0.929 . S
C492 C490 1.356 . S
C492 C494 1.358 . S
C492 H533 0.930 . S
C493 C491 1.353 . S
C493 N495 1.314 . S
C493 H534 0.930 . S
C494 C492 1.358 . S
C494 N495 1.279 . S
C494 H535 0.930 . S
N495 C493 1.314 . S
N495 C494 1.279 . S
C496 C498 1.353 . S
C496 N499 1.314 . S
C496 H502 0.930 . S
C497 N499 1.279 . S
C497 C500 1.358 . S
C497 H503 0.930 . S
C498 C496 1.353 . S
C498 C501 1.348 . S
C498 H536 0.929 . S
N499 Li454 1.990 . S
N499 C496 1.314 . S
N499 C497 1.279 . S
C500 C497 1.358 . S
C500 C501 1.356 . S
C500 H537 0.930 . S
C501 C498 1.348 . S
C501 C500 1.356 . S
H502 C496 0.930 . S
H503 C497 0.930 . S
C504 N505 1.314 . S
C504 C506 1.353 . S
C504 H510 0.930 . S
N505 Li455 1.990 . S
N505 C504 1.314 . S
N505 C508 1.279 . S
C506 C504 1.353 . S
C506 C509 1.348 . S
C506 H538 0.929 . S
C507 C508 1.358 . S
C507 C509 1.356 . S
C507 H539 0.930 . S
C508 N505 1.279 . S
C508 C507 1.358 . S
C508 H511 0.930 . S
C509 C506 1.348 . S
C509 C507 1.356 . S
H510 C504 0.930 . S
H511 C508 0.930 . S
O512 Li452 1.956 . S
O512 Li453 1.970 . S
O512 Li454 1.961 . S
O512 C456 1.325 . S
O513 Li452 1.970 . S
O513 Li453 1.956 . S
O513 Li455 1.961 . S
O513 C462 1.325 . S
O514 Li452 1.961 . S
O514 Li454 1.956 . S
O514 Li455 1.970 . S
O514 C484 1.325 . S
O515 Li453 1.961 . S
O515 Li454 1.970 . S
O515 Li455 1.956 . S
O515 C490 1.325 . S
H516 C458 0.929 . S
H517 C459 0.930 . S
H518 C460 0.930 . S
H519 C461 0.930 . S
H520 C463 0.930 . S
H521 C465 0.929 . S
H522 C466 0.930 . S
H523 C467 0.930 . S
H524 C470 0.930 . S
H525 C473 0.929 . S
H526 C478 0.929 . S
H527 C479 0.930 . S
H528 C486 0.929 . S
H529 C487 0.930 . S
H530 C488 0.930 . S
H531 C489 0.930 . S
H532 C491 0.929 . S
H533 C492 0.930 . S
H534 C493 0.930 . S
H535 C494 0.930 . S
H536 C498 0.929 . S
H537 C500 0.930 . S
H538 C506 0.929 . S
H539 C507 0.930 . S
Li540 N557 1.990 . S
Li540 O600 1.956 . S
Li540 O601 1.970 . S
Li540 O602 1.961 . S
Li541 N565 1.990 . S
Li541 O600 1.970 . S
Li541 O601 1.956 . S
Li541 O603 1.961 . S
Li542 N587 1.990 . S
Li542 O600 1.961 . S
Li542 O602 1.956 . S
Li542 O603 1.970 . S
Li543 N593 1.990 . S
Li543 O601 1.961 . S
Li543 O602 1.970 . S
Li543 O603 1.956 . S
C544 C546 1.348 . S
C544 C547 1.356 . S
C544 O600 1.325 . S
N545 C548 1.314 . S
N545 C549 1.279 . S
C546 C544 1.348 . S
C546 C548 1.353 . S
C546 H604 0.929 . S
C547 C544 1.356 . S
C547 C549 1.358 . S
C547 H605 0.930 . S
C548 N545 1.314 . S
C548 C546 1.353 . S
C548 H606 0.930 . S
C549 N545 1.279 . S
C549 C547 1.358 . S
C549 H607 0.930 . S
C550 C553 1.348 . S
C550 C554 1.356 . S
C550 O601 1.325 . S
C551 N552 1.279 . S
C551 C554 1.358 . S
C551 H608 0.930 . S
N552 C551 1.279 . S
N552 C555 1.314 . S
C553 C550 1.348 . S
C553 C555 1.353 . S
C553 H609 0.929 . S
C554 C550 1.356 . S
C554 C551 1.358 . S
C554 H610 0.930 . S
C555 N552 1.314 . S
C555 C553 1.353 . S
C555 H611 0.930 . S
C556 N557 1.314 . S
C556 C561 1.353 . S
C556 H562 0.930 . S
N557 Li540 1.990 . S
N557 C556 1.314 . S
N557 C559 1.279 . S
C558 C559 1.358 1_554 S
C558 C560 1.356 . S
C558 H612 0.930 . S
C559 N557 1.279 . S
C559 C558 1.358 1_556 S
C559 H563 0.930 . S
C560 C558 1.356 . S
C560 C561 1.348 1_554 S
C561 C556 1.353 . S
C561 C560 1.348 1_556 S
C561 H613 0.929 . S
H562 C556 0.930 . S
H563 C559 0.930 . S
C564 N565 1.314 . S
C564 C566 1.353 . S
C564 H570 0.930 . S
N565 Li541 1.990 . S
N565 C564 1.314 . S
N565 C568 1.279 . S
C566 C564 1.353 . S
C566 C569 1.348 . S
C566 H614 0.929 . S
C567 C568 1.358 . S
C567 C569 1.356 . S
C567 H615 0.930 . S
C568 N565 1.279 . S
C568 C567 1.358 . S
C568 H571 0.930 . S
C569 C566 1.348 . S
C569 C567 1.356 . S
H570 C564 0.930 . S
H571 C568 0.930 . S
C572 C574 1.348 . S
C572 C575 1.356 . S
C572 O602 1.325 . S
N573 C576 1.314 . S
N573 C577 1.279 . S
C574 C572 1.348 . S
C574 C576 1.353 . S
C574 H616 0.929 . S
C575 C572 1.356 . S
C575 C577 1.358 . S
C575 H617 0.930 . S
C576 N573 1.314 . S
C576 C574 1.353 . S
C576 H618 0.930 . S
C577 N573 1.279 . S
C577 C575 1.358 . S
C577 H619 0.930 . S
C578 C579 1.348 . S
C578 C580 1.356 . S
C578 O603 1.325 . S
C579 C578 1.348 . S
C579 C581 1.353 . S
C579 H620 0.929 . S
C580 C578 1.356 . S
C580 C582 1.358 . S
C580 H621 0.930 . S
C581 C579 1.353 . S
C581 N583 1.314 . S
C581 H622 0.930 . S
C582 C580 1.358 . S
C582 N583 1.279 . S
C582 H623 0.930 . S
N583 C581 1.314 . S
N583 C582 1.279 . S
C584 C586 1.353 . S
C584 N587 1.314 . S
C584 H590 0.930 . S
C585 N587 1.279 . S
C585 C588 1.358 . S
C585 H591 0.930 . S
C586 C584 1.353 . S
C586 C589 1.348 . S
C586 H624 0.929 . S
N587 Li542 1.990 . S
N587 C584 1.314 . S
N587 C585 1.279 . S
C588 C585 1.358 . S
C588 C589 1.356 . S
C588 H625 0.930 . S
C589 C586 1.348 . S
C589 C588 1.356 . S
H590 C584 0.930 . S
H591 C585 0.930 . S
C592 N593 1.314 . S
C592 C594 1.353 . S
C592 H598 0.930 . S
N593 Li543 1.990 . S
N593 C592 1.314 . S
N593 C596 1.279 . S
C594 C592 1.353 . S
C594 C597 1.348 . S
C594 H626 0.929 . S
C595 C596 1.358 . S
C595 C597 1.356 . S
C595 H627 0.930 . S
C596 N593 1.279 . S
C596 C595 1.358 . S
C596 H599 0.930 . S
C597 C594 1.348 . S
C597 C595 1.356 . S
H598 C592 0.930 . S
H599 C596 0.930 . S
O600 Li540 1.956 . S
O600 Li541 1.970 . S
O600 Li542 1.961 . S
O600 C544 1.325 . S
O601 Li540 1.970 . S
O601 Li541 1.956 . S
O601 Li543 1.961 . S
O601 C550 1.325 . S
O602 Li540 1.961 . S
O602 Li542 1.956 . S
O602 Li543 1.970 . S
O602 C572 1.325 . S
O603 Li541 1.961 . S
O603 Li542 1.970 . S
O603 Li543 1.956 . S
O603 C578 1.325 . S
H604 C546 0.929 . S
H605 C547 0.930 . S
H606 C548 0.930 . S
H607 C549 0.930 . S
H608 C551 0.930 . S
H609 C553 0.929 . S
H610 C554 0.930 . S
H611 C555 0.930 . S
H612 C558 0.930 . S
H613 C561 0.929 . S
H614 C566 0.929 . S
H615 C567 0.930 . S
H616 C574 0.929 . S
H617 C575 0.930 . S
H618 C576 0.930 . S
H619 C577 0.930 . S
H620 C579 0.929 . S
H621 C580 0.930 . S
H622 C581 0.930 . S
H623 C582 0.930 . S
H624 C586 0.929 . S
H625 C588 0.930 . S
H626 C594 0.929 . S
H627 C595 0.930 . S
Li628 N645 1.990 . S
Li628 O688 1.956 . S
Li628 O689 1.970 . S
Li628 O690 1.961 . S
Li629 N653 1.990 . S
Li629 O688 1.970 . S
Li629 O689 1.956 . S
Li629 O691 1.961 . S
Li630 N675 1.990 . S
Li630 O688 1.961 . S
Li630 O690 1.956 . S
Li630 O691 1.970 . S
Li631 N681 1.990 . S
Li631 O689 1.961 . S
Li631 O690 1.970 . S
Li631 O691 1.956 . S
C632 C634 1.348 . S
C632 C635 1.356 . S
C632 O688 1.325 . S
N633 C636 1.314 . S
N633 C637 1.279 . S
C634 C632 1.348 . S
C634 C636 1.353 . S
C634 H692 0.929 . S
C635 C632 1.356 . S
C635 C637 1.358 . S
C635 H693 0.930 . S
C636 N633 1.314 . S
C636 C634 1.353 . S
C636 H694 0.930 . S
C637 N633 1.279 . S
C637 C635 1.358 . S
C637 H695 0.930 . S
C638 C641 1.348 . S
C638 C642 1.356 . S
C638 O689 1.325 . S
C639 N640 1.279 . S
C639 C642 1.358 . S
C639 H696 0.930 . S
N640 C639 1.279 . S
N640 C643 1.314 . S
C641 C638 1.348 . S
C641 C643 1.353 . S
C641 H697 0.929 . S
C642 C638 1.356 . S
C642 C639 1.358 . S
C642 H698 0.930 . S
C643 N640 1.314 . S
C643 C641 1.353 . S
C643 H699 0.930 . S
C644 N645 1.314 . S
C644 C649 1.353 . S
C644 H650 0.930 . S
N645 Li628 1.990 . S
N645 C644 1.314 . S
N645 C647 1.279 . S
C646 C647 1.358 . S
C646 C648 1.356 . S
C646 H700 0.930 . S
C647 N645 1.279 . S
C647 C646 1.358 . S
C647 H651 0.930 . S
C648 C646 1.356 . S
C648 C649 1.348 . S
C649 C644 1.353 . S
C649 C648 1.348 . S
C649 H701 0.929 . S
H650 C644 0.930 . S
H651 C647 0.930 . S
C652 N653 1.314 . S
C652 C654 1.353 . S
C652 H658 0.930 . S
N653 Li629 1.990 . S
N653 C652 1.314 . S
N653 C656 1.279 . S
C654 C652 1.353 . S
C654 C657 1.348 . S
C654 H702 0.929 . S
C655 C656 1.358 . S
C655 C657 1.356 . S
C655 H703 0.930 . S
C656 N653 1.279 . S
C656 C655 1.358 . S
C656 H659 0.930 . S
C657 C654 1.348 . S
C657 C655 1.356 . S
H658 C652 0.930 . S
H659 C656 0.930 . S
C660 C662 1.348 . S
C660 C663 1.356 . S
C660 O690 1.325 . S
N661 C664 1.314 1_556 S
N661 C665 1.279 1_556 S
C662 C660 1.348 . S
C662 C664 1.353 . S
C662 H704 0.929 . S
C663 C660 1.356 . S
C663 C665 1.358 . S
C663 H705 0.930 . S
C664 N661 1.314 1_554 S
C664 C662 1.353 . S
C664 H706 0.930 1_554 S
C665 N661 1.279 1_554 S
C665 C663 1.358 . S
C665 H707 0.923 1_554 S
C666 C667 1.348 . S
C666 C668 1.356 . S
C666 O691 1.325 . S
C667 C666 1.348 . S
C667 C669 1.353 . S
C667 H708 0.929 . S
C668 C666 1.356 . S
C668 C670 1.358 . S
C668 H709 0.930 . S
C669 C667 1.353 . S
C669 N671 1.314 . S
C669 H710 0.930 . S
C670 C668 1.358 . S
C670 N671 1.279 . S
C670 H711 0.930 . S
N671 C669 1.314 . S
N671 C670 1.279 . S
C672 C674 1.353 . S
C672 N675 1.314 . S
C672 H678 0.930 . S
C673 N675 1.279 . S
C673 C676 1.358 1_554 S
C673 H679 0.930 . S
C674 C672 1.353 . S
C674 C677 1.348 1_554 S
C674 H712 0.929 . S
N675 Li630 1.990 . S
N675 C672 1.314 . S
N675 C673 1.279 . S
C676 C673 1.358 1_556 S
C676 C677 1.356 . S
C676 H713 0.930 . S
C677 C674 1.348 1_556 S
C677 C676 1.356 . S
H678 C672 0.930 . S
H679 C673 0.930 . S
C680 N681 1.314 . S
C680 C682 1.353 . S
C680 H686 0.930 . S
N681 Li631 1.990 . S
N681 C680 1.314 . S
N681 C684 1.279 . S
C682 C680 1.353 . S
C682 C685 1.348 . S
C682 H714 0.929 . S
C683 C684 1.358 . S
C683 C685 1.356 . S
C683 H715 0.930 . S
C684 N681 1.279 . S
C684 C683 1.358 . S
C684 H687 0.930 . S
C685 C682 1.348 . S
C685 C683 1.356 . S
H686 C680 0.930 . S
H687 C684 0.930 . S
O688 Li628 1.956 . S
O688 Li629 1.970 . S
O688 Li630 1.961 . S
O688 C632 1.325 . S
O689 Li628 1.970 . S
O689 Li629 1.956 . S
O689 Li631 1.961 . S
O689 C638 1.325 . S
O690 Li628 1.961 . S
O690 Li630 1.956 . S
O690 Li631 1.970 . S
O690 C660 1.325 . S
O691 Li629 1.961 . S
O691 Li630 1.970 . S
O691 Li631 1.956 . S
O691 C666 1.325 . S
H692 C634 0.929 . S
H693 C635 0.930 . S
H694 C636 0.930 . S
H695 C637 0.930 . S
H696 C639 0.930 . S
H697 C641 0.929 . S
H698 C642 0.930 . S
H699 C643 0.930 . S
H700 C646 0.930 . S
H701 C649 0.929 . S
H702 C654 0.929 . S
H703 C655 0.930 . S
H704 C662 0.929 . S
H705 C663 0.930 . S
H706 C664 0.930 1_556 S
H707 C665 0.923 1_556 S
H708 C667 0.929 . S
H709 C668 0.930 . S
H710 C669 0.930 . S
H711 C670 0.930 . S
H712 C674 0.929 . S
H713 C676 0.930 . S
H714 C682 0.929 . S
H715 C683 0.930 . S
Li716 N733 1.990 . S
Li716 O776 1.956 . S
Li716 O777 1.970 . S
Li716 O778 1.961 . S
Li717 N741 1.990 . S
Li717 O776 1.970 . S
Li717 O777 1.956 . S
Li717 O779 1.961 . S
Li718 N763 1.990 . S
Li718 O776 1.961 . S
Li718 O778 1.956 . S
Li718 O779 1.970 . S
Li719 N769 1.990 . S
Li719 O777 1.961 . S
Li719 O778 1.970 . S
Li719 O779 1.956 . S
C720 C722 1.348 . S
C720 C723 1.356 . S
C720 O776 1.325 . S
N721 C724 1.314 . S
N721 C725 1.279 . S
C722 C720 1.348 . S
C722 C724 1.353 . S
C722 H780 0.929 . S
C723 C720 1.356 . S
C723 C725 1.358 . S
C723 H781 0.930 . S
C724 N721 1.314 . S
C724 C722 1.353 . S
C724 H782 0.930 . S
C725 N721 1.279 . S
C725 C723 1.358 . S
C725 H783 0.930 . S
C726 C729 1.348 . S
C726 C730 1.356 . S
C726 O777 1.325 . S
C727 N728 1.279 . S
C727 C730 1.358 . S
C727 H784 0.930 . S
N728 C727 1.279 . S
N728 C731 1.314 . S
C729 C726 1.348 . S
C729 C731 1.353 . S
C729 H785 0.929 . S
C730 C726 1.356 . S
C730 C727 1.358 . S
C730 H786 0.930 . S
C731 N728 1.314 . S
C731 C729 1.353 . S
C731 H787 0.930 . S
C732 N733 1.314 . S
C732 C737 1.353 . S
C732 H738 0.930 . S
N733 Li716 1.990 . S
N733 C732 1.314 . S
N733 C735 1.279 . S
C734 C735 1.358 . S
C734 C736 1.356 . S
C734 H788 0.930 . S
C735 N733 1.279 . S
C735 C734 1.358 . S
C735 H739 0.930 . S
C736 C734 1.356 . S
C736 C737 1.348 . S
C737 C732 1.353 . S
C737 C736 1.348 . S
C737 H789 0.929 . S
H738 C732 0.930 . S
H739 C735 0.930 . S
C740 N741 1.314 . S
C740 C742 1.353 . S
C740 H746 0.930 . S
N741 Li717 1.990 . S
N741 C740 1.314 . S
N741 C744 1.279 . S
C742 C740 1.353 . S
C742 C745 1.348 . S
C742 H790 0.929 . S
C743 C744 1.358 . S
C743 C745 1.356 . S
C743 H791 0.930 . S
C744 N741 1.279 . S
C744 C743 1.358 . S
C744 H747 0.930 . S
C745 C742 1.348 . S
C745 C743 1.356 . S
H746 C740 0.930 . S
H747 C744 0.930 . S
C748 C750 1.348 . S
C748 C751 1.356 . S
C748 O778 1.325 . S
N749 C752 1.314 . S
N749 C753 1.279 . S
C750 C748 1.348 . S
C750 C752 1.353 . S
C750 H792 0.929 . S
C751 C748 1.356 . S
C751 C753 1.358 . S
C751 H793 0.930 . S
C752 N749 1.314 . S
C752 C750 1.353 . S
C752 H794 0.930 . S
C753 N749 1.279 . S
C753 C751 1.358 . S
C753 H795 0.930 . S
C754 C755 1.348 . S
C754 C756 1.356 . S
C754 O779 1.325 . S
C755 C754 1.348 . S
C755 C757 1.353 . S
C755 H796 0.929 . S
C756 C754 1.356 . S
C756 C758 1.358 . S
C756 H797 0.930 . S
C757 C755 1.353 . S
C757 N759 1.314 . S
C757 H798 0.930 . S
C758 C756 1.358 . S
C758 N759 1.279 . S
C758 H799 0.930 . S
N759 C757 1.314 . S
N759 C758 1.279 . S
C760 C762 1.353 . S
C760 N763 1.314 . S
C760 H766 0.930 . S
C761 N763 1.279 . S
C761 C764 1.358 . S
C761 H767 0.930 . S
C762 C760 1.353 . S
C762 C765 1.348 . S
C762 H800 0.929 . S
N763 Li718 1.990 . S
N763 C760 1.314 . S
N763 C761 1.279 . S
C764 C761 1.358 . S
C764 C765 1.356 . S
C764 H801 0.930 . S
C765 C762 1.348 . S
C765 C764 1.356 . S
H766 C760 0.930 . S
H767 C761 0.930 . S
C768 N769 1.314 . S
C768 C770 1.353 . S
C768 H774 0.930 . S
N769 Li719 1.990 . S
N769 C768 1.314 . S
N769 C772 1.279 . S
C770 C768 1.353 . S
C770 C773 1.348 . S
C770 H802 0.929 . S
C771 C772 1.358 . S
C771 C773 1.356 . S
C771 H803 0.930 . S
C772 N769 1.279 . S
C772 C771 1.358 . S
C772 H775 0.930 . S
C773 C770 1.348 . S
C773 C771 1.356 . S
H774 C768 0.930 . S
H775 C772 0.930 . S
O776 Li716 1.956 . S
O776 Li717 1.970 . S
O776 Li718 1.961 . S
O776 C720 1.325 . S
O777 Li716 1.970 . S
O777 Li717 1.956 . S
O777 Li719 1.961 . S
O777 C726 1.325 . S
O778 Li716 1.961 . S
O778 Li718 1.956 . S
O778 Li719 1.970 . S
O778 C748 1.325 . S
O779 Li717 1.961 . S
O779 Li718 1.970 . S
O779 Li719 1.956 . S
O779 C754 1.325 . S
H780 C722 0.929 . S
H781 C723 0.930 . S
H782 C724 0.930 . S
H783 C725 0.930 . S
H784 C727 0.930 . S
H785 C729 0.929 . S
H786 C730 0.930 . S
H787 C731 0.930 . S
H788 C734 0.930 . S
H789 C737 0.929 . S
H790 C742 0.929 . S
H791 C743 0.930 . S
H792 C750 0.929 . S
H793 C751 0.930 . S
H794 C752 0.930 . S
H795 C753 0.930 . S
H796 C755 0.929 . S
H797 C756 0.930 . S
H798 C757 0.930 . S
H799 C758 0.930 . S
H800 C762 0.929 . S
H801 C764 0.930 . S
H802 C770 0.929 . S
H803 C771 0.930 . S
C804 C805 1.387 . S
C804 H808 0.950 . S
C804 C813 1.390 . S
C805 C804 1.387 . S
C805 C807 1.387 . S
H806 C813 0.950 . S
C807 C805 1.387 . S
C807 C809 1.390 . S
C807 H811 0.950 . S
H808 C804 0.950 . S
C809 C807 1.390 . S
C809 C810 1.387 . S
C809 H812 0.950 . S
C810 C809 1.387 . S
C810 C813 1.387 . S
H811 C807 0.950 . S
H812 C809 0.950 . S
C813 C804 1.390 . S
C813 H806 0.950 . S
C813 C810 1.387 . S
C814 C815 1.387 . S
C814 H818 0.950 . S
C814 C823 1.390 . S
C815 C814 1.387 . S
C815 C817 1.387 . S
H816 C823 0.950 . S
C817 C815 1.387 . S
C817 C819 1.390 . S
C817 H821 0.950 . S
H818 C814 0.950 . S
C819 C817 1.390 . S
C819 C820 1.387 . S
C819 H822 0.950 . S
C820 C819 1.387 . S
C820 C823 1.387 . S
H821 C817 0.950 . S
H822 C819 0.950 . S
C823 C814 1.390 . S
C823 H816 0.950 . S
C823 C820 1.387 . S
C824 C825 1.387 . S
C824 H828 0.950 . S
C824 C833 1.390 . S
C825 C824 1.387 . S
C825 C827 1.387 . S
H826 C833 0.950 . S
C827 C825 1.387 . S
C827 C829 1.390 . S
C827 H831 0.950 . S
H828 C824 0.950 . S
C829 C827 1.390 . S
C829 C830 1.387 . S
C829 H832 0.950 . S
C830 C829 1.387 . S
C830 C833 1.387 . S
H831 C827 0.950 . S
H832 C829 0.950 . S
C833 C824 1.390 . S
C833 H826 0.950 . S
C833 C830 1.387 . S
C834 C835 1.387 . S
C834 H838 0.950 . S
C834 C843 1.390 . S
C835 C834 1.387 . S
C835 C837 1.387 . S
H836 C843 0.950 . S
C837 C835 1.387 . S
C837 C839 1.390 . S
C837 H841 0.950 . S
H838 C834 0.950 . S
C839 C837 1.390 . S
C839 C840 1.387 . S
C839 H842 0.950 . S
C840 C839 1.387 . S
C840 C843 1.387 . S
H841 C837 0.950 . S
H842 C839 0.950 . S
C843 C834 1.390 . S
C843 H836 0.950 . S
C843 C840 1.387 . S
C844 C845 1.387 . S
C844 H848 0.950 . S
C844 C853 1.390 . S
C845 C844 1.387 . S
C845 C847 1.387 . S
H846 C853 0.950 . S
C847 C845 1.387 . S
C847 C849 1.390 . S
C847 H851 0.950 . S
H848 C844 0.950 . S
C849 C847 1.390 . S
C849 C850 1.387 . S
C849 H852 0.950 . S
C850 C849 1.387 . S
C850 C853 1.387 . S
H851 C847 0.950 . S
H852 C849 0.950 . S
C853 C844 1.390 . S
C853 H846 0.950 . S
C853 C850 1.387 . S
C854 C855 1.387 . S
C854 H858 0.950 . S
C854 C863 1.390 . S
C855 C854 1.387 . S
C855 C857 1.387 . S
H856 C863 0.950 . S
C857 C855 1.387 . S
C857 C859 1.390 . S
C857 H861 0.950 . S
H858 C854 0.950 . S
C859 C857 1.390 . S
C859 C860 1.387 . S
C859 H862 0.950 . S
C860 C859 1.387 . S
C860 C863 1.387 . S
H861 C857 0.950 . S
H862 C859 0.950 . S
C863 C854 1.390 . S
C863 H856 0.950 . S
C863 C860 1.387 . S
C864 C865 1.387 . S
C864 H868 0.950 . S
C864 C873 1.390 . S
C865 C864 1.387 . S
C865 C867 1.387 . S
H866 C873 0.950 . S
C867 C865 1.387 . S
C867 C869 1.390 . S
C867 H871 0.950 . S
H868 C864 0.950 . S
C869 C867 1.390 . S
C869 C870 1.387 . S
C869 H872 0.950 . S
C870 C869 1.387 . S
C870 C873 1.387 . S
H871 C867 0.950 . S
H872 C869 0.950 . S
C873 C864 1.390 . S
C873 H866 0.950 . S
C873 C870 1.387 . S
C874 C875 1.387 . S
C874 H878 0.950 . S
C874 C883 1.390 . S
C875 C874 1.387 . S
C875 C877 1.387 . S
H876 C883 0.950 . S
C877 C875 1.387 . S
C877 C879 1.390 . S
C877 H881 0.950 . S
H878 C874 0.950 . S
C879 C877 1.390 . S
C879 C880 1.387 . S
C879 H882 0.950 . S
C880 C879 1.387 . S
C880 C883 1.387 . S
H881 C877 0.950 . S
H882 C879 0.950 . S
C883 C874 1.390 . S
C883 H876 0.950 . S
C883 C880 1.387 . S
C884 C885 1.387 . S
C884 H888 0.950 . S
C884 C893 1.390 . S
C885 C884 1.387 . S
C885 C887 1.387 . S
H886 C893 0.950 . S
C887 C885 1.387 . S
C887 C889 1.390 . S
C887 H891 0.950 . S
H888 C884 0.950 . S
C889 C887 1.390 . S
C889 C890 1.387 . S
C889 H892 0.950 . S
C890 C889 1.387 . S
C890 C893 1.387 . S
H891 C887 0.950 . S
H892 C889 0.950 . S
C893 C884 1.390 . S
C893 H886 0.950 . S
C893 C890 1.387 . S
C894 C895 1.387 . S
C894 H898 0.950 . S
C894 C903 1.390 . S
C895 C894 1.387 . S
C895 C897 1.387 . S
H896 C903 0.950 . S
C897 C895 1.387 . S
C897 C899 1.390 . S
C897 H901 0.950 . S
H898 C894 0.950 . S
C899 C897 1.390 . S
C899 C900 1.387 . S
C899 H902 0.950 . S
C900 C899 1.387 . S
C900 C903 1.387 . S
H901 C897 0.950 . S
H902 C899 0.950 . S
C903 C894 1.390 . S
C903 H896 0.950 . S
C903 C900 1.387 . S
C904 C905 1.387 . S
C904 H908 0.950 . S
C904 C913 1.390 . S
C905 C904 1.387 . S
C905 C907 1.387 . S
H906 C913 0.950 . S
C907 C905 1.387 . S
C907 C909 1.390 . S
C907 H911 0.950 . S
H908 C904 0.950 . S
C909 C907 1.390 . S
C909 C910 1.387 . S
C909 H912 0.950 . S
C910 C909 1.387 . S
C910 C913 1.387 . S
H911 C907 0.950 . S
H912 C909 0.950 . S
C913 C904 1.390 . S
C913 H906 0.950 . S
C913 C910 1.387 . S
C914 C915 1.387 . S
C914 H918 0.950 . S
C914 C923 1.390 . S
C915 C914 1.387 . S
C915 C917 1.387 . S
H916 C923 0.950 . S
C917 C915 1.387 . S
C917 C919 1.390 . S
C917 H921 0.950 . S
H918 C914 0.950 . S
C919 C917 1.390 . S
C919 C920 1.387 . S
C919 H922 0.950 . S
C920 C919 1.387 . S
C920 C923 1.387 . S
H921 C917 0.950 . S
H922 C919 0.950 . S
C923 C914 1.390 . S
C923 H916 0.950 . S
C923 C920 1.387 . S
C924 C925 1.387 . S
C924 H928 0.950 . S
C924 C933 1.390 . S
C925 C924 1.387 . S
C925 C927 1.387 . S
H926 C933 0.950 . S
C927 C925 1.387 . S
C927 C929 1.390 . S
C927 H931 0.950 . S
H928 C924 0.950 . S
C929 C927 1.390 . S
C929 C930 1.387 . S
C929 H932 0.950 . S
C930 C929 1.387 . S
C930 C933 1.387 . S
H931 C927 0.950 . S
H932 C929 0.950 . S
C933 C924 1.390 . S
C933 H926 0.950 . S
C933 C930 1.387 . S
C934 C935 1.387 . S
C934 H938 0.950 . S
C934 C943 1.390 . S
C935 C934 1.387 . S
C935 C937 1.387 . S
H936 C943 0.950 . S
C937 C935 1.387 . S
C937 C939 1.390 . S
C937 H941 0.950 . S
H938 C934 0.950 . S
C939 C937 1.390 . S
C939 C940 1.387 . S
C939 H942 0.950 . S
C940 C939 1.387 . S
C940 C943 1.387 . S
H941 C937 0.950 . S
H942 C939 0.950 . S
C943 C934 1.390 . S
C943 H936 0.950 . S
C943 C940 1.387 . S
C944 C945 1.387 . S
C944 H948 0.950 . S
C944 C953 1.390 . S
C945 C944 1.387 . S
C945 C947 1.387 . S
H946 C953 0.950 . S
C947 C945 1.387 . S
C947 C949 1.390 . S
C947 H951 0.950 . S
H948 C944 0.950 . S
C949 C947 1.390 . S
C949 C950 1.387 . S
C949 H952 0.950 . S
C950 C949 1.387 . S
C950 C953 1.387 . S
H951 C947 0.950 . S
H952 C949 0.950 . S
C953 C944 1.390 . S
C953 H946 0.950 . S
C953 C950 1.387 . S
C954 C955 1.387 . S
C954 H958 0.950 . S
C954 C963 1.390 . S
C955 C954 1.387 . S
C955 C957 1.387 . S
H956 C963 0.950 . S
C957 C955 1.387 . S
C957 C959 1.390 . S
C957 H961 0.950 . S
H958 C954 0.950 . S
C959 C957 1.390 . S
C959 C960 1.387 . S
C959 H962 0.950 . S
C960 C959 1.387 . S
C960 C963 1.387 . S
H961 C957 0.950 . S
H962 C959 0.950 . S
C963 C954 1.390 . S
C963 H956 0.950 . S
C963 C960 1.387 . S
C964 C965 1.387 . S
C964 H968 0.950 . S
C964 C973 1.390 . S
C965 C964 1.387 . S
C965 C967 1.387 . S
H966 C973 0.950 . S
C967 C965 1.387 . S
C967 C969 1.390 . S
C967 H971 0.950 . S
H968 C964 0.950 . S
C969 C967 1.390 . S
C969 C970 1.387 . S
C969 H972 0.950 . S
C970 C969 1.387 . S
C970 C973 1.387 . S
H971 C967 0.950 . S
H972 C969 0.950 . S
C973 C964 1.390 . S
C973 H966 0.950 . S
C973 C970 1.387 . S
C974 C975 1.387 . S
C974 H978 0.950 . S
C974 C983 1.390 . S
C975 C974 1.387 . S
C975 C977 1.387 . S
H976 C983 0.950 . S
C977 C975 1.387 . S
C977 C979 1.390 . S
C977 H981 0.950 . S
H978 C974 0.950 . S
C979 C977 1.390 . S
C979 C980 1.387 . S
C979 H982 0.950 . S
C980 C979 1.387 . S
C980 C983 1.387 . S
H981 C977 0.950 . S
H982 C979 0.950 . S
C983 C974 1.390 . S
C983 H976 0.950 . S
C983 C980 1.387 . S
C984 C985 1.387 . S
C984 H988 0.950 . S
C984 C993 1.390 . S
C985 C984 1.387 . S
C985 C987 1.387 . S
H986 C993 0.950 . S
C987 C985 1.387 . S
C987 C989 1.390 . S
C987 H991 0.950 . S
H988 C984 0.950 . S
C989 C987 1.390 . S
C989 C990 1.387 . S
C989 H992 0.950 . S
C990 C989 1.387 . S
C990 C993 1.387 . S
H991 C987 0.950 . S
H992 C989 0.950 . S
C993 C984 1.390 . S
C993 H986 0.950 . S
C993 C990 1.387 . S
C994 C995 1.387 . S
C994 H998 0.950 . S
C994 C1003 1.390 . S
C995 C994 1.387 . S
C995 C997 1.387 . S
H996 C1003 0.950 . S
C997 C995 1.387 . S
C997 C999 1.390 . S
C997 H1001 0.950 . S
H998 C994 0.950 . S
C999 C997 1.390 . S
C999 C1000 1.387 . S
C999 H1002 0.950 . S
C1000 C999 1.387 . S
C1000 C1003 1.387 . S
H1001 C997 0.950 . S
H1002 C999 0.950 . S
C1003 C994 1.390 . S
C1003 H996 0.950 . S
C1003 C1000 1.387 . S
C1004 C1005 1.387 . S
C1004 H1008 0.950 . S
C1004 C1013 1.390 . S
C1005 C1004 1.387 . S
C1005 C1007 1.387 . S
H1006 C1013 0.950 . S
C1007 C1005 1.387 . S
C1007 C1009 1.390 . S
C1007 H1011 0.950 . S
H1008 C1004 0.950 . S
C1009 C1007 1.390 . S
C1009 C1010 1.387 . S
C1009 H1012 0.950 . S
C1010 C1009 1.387 . S
C1010 C1013 1.387 . S
H1011 C1007 0.950 . S
H1012 C1009 0.950 . S
C1013 C1004 1.390 . S
C1013 H1006 0.950 . S
C1013 C1010 1.387 . S
C1014 C1015 1.387 . S
C1014 H1018 0.950 . S
C1014 C1023 1.390 . S
C1015 C1014 1.387 . S
C1015 C1017 1.387 . S
H1016 C1023 0.950 . S
C1017 C1015 1.387 . S
C1017 C1019 1.390 . S
C1017 H1021 0.950 . S
H1018 C1014 0.950 . S
C1019 C1017 1.390 . S
C1019 C1020 1.387 . S
C1019 H1022 0.950 . S
C1020 C1019 1.387 . S
C1020 C1023 1.387 . S
H1021 C1017 0.950 . S
H1022 C1019 0.950 . S
C1023 C1014 1.390 . S
C1023 H1016 0.950 . S
C1023 C1020 1.387 . S
C1024 C1025 1.387 . S
C1024 H1028 0.950 . S
C1024 C1033 1.390 . S
C1025 C1024 1.387 . S
C1025 C1027 1.387 . S
H1026 C1033 0.950 . S
C1027 C1025 1.387 . S
C1027 C1029 1.390 . S
C1027 H1031 0.950 . S
H1028 C1024 0.950 . S
C1029 C1027 1.390 . S
C1029 C1030 1.387 . S
C1029 H1032 0.950 . S
C1030 C1029 1.387 . S
C1030 C1033 1.387 . S
H1031 C1027 0.950 . S
H1032 C1029 0.950 . S
C1033 C1024 1.390 . S
C1033 H1026 0.950 . S
C1033 C1030 1.387 . S
C1034 C1035 1.387 . S
C1034 H1038 0.950 . S
C1034 C1043 1.390 . S
C1035 C1034 1.387 . S
C1035 C1037 1.387 . S
H1036 C1043 0.950 . S
C1037 C1035 1.387 . S
C1037 C1039 1.390 . S
C1037 H1041 0.950 . S
H1038 C1034 0.950 . S
C1039 C1037 1.390 . S
C1039 C1040 1.387 . S
C1039 H1042 0.950 . S
C1040 C1039 1.387 . S
C1040 C1043 1.387 . S
H1041 C1037 0.950 . S
H1042 C1039 0.950 . S
C1043 C1034 1.390 . S
C1043 H1036 0.950 . S
C1043 C1040 1.387 . S
C810 C745 1.755 . S
C805 C15 1.715 . S
C815 C61 1.718 . S
C820 C305 1.758 . S
C825 C114 1.717 . S
C830 C393 1.758 . S
C835 C139 1.743 . S
C840 C472 1.755 . S
C850 C569 1.756 . S
C845 C185 1.743 . S
C855 C245 1.717 . S
C860 C648 1.758 . S
C865 C47 1.743 . S
C870 C413 1.755 . S
C875 C100 1.743 . S
C880 C509 1.756 . S
C885 C153 1.716 . S
C890 C589 1.757 . S
C900 C685 1.756 . S
C895 C199 1.714 . S
C910 C765 1.756 . S
C905 C231 1.744 . S
C920 C325 1.759 . S
C915 C1 1.746 . S
C925 C22 1.491 . S
C930 C421 1.489 . S
C935 C68 1.490 . S
C940 C501 1.487 . S
C950 C597 1.489 . S
C945 C107 1.491 . S
C955 C146 1.495 . S
C960 C677 1.487 . S
C970 C773 1.488 . S
C965 C192 1.495 . S
C980 C333 1.489 . S
C975 C252 1.491 . S
C990 C736 1.488 . S
C985 C54 1.496 . S
C995 C93 1.495 . S
C1000 C296 1.488 . S
C1010 C384 1.489 . S
C1005 C160 1.491 . S
C1015 C206 1.491 . S
C1020 C481 1.489 . S
C1025 C238 1.496 . S
C1030 C560 1.488 . S
C1035 C8 1.496 . S
C1040 C657 1.489 . S
