# Generated by pormake.
# Topology nom, (4,4)-cn, num edge types: 1
# Building blocks:
#     Node 0, Type 0, BuildingBlock: MIFKUJ_clean_linker_1, # of connection points: 4
#     Node 1, Type 0, BuildingBlock: MIFKUJ_clean_linker_1, # of connection points: 4
#     Node 2, Type 0, BuildingBlock: MIFKUJ_clean_linker_1, # of connection points: 4
#     Node 3, Type 0, BuildingBlock: MIFKUJ_clean_linker_1, # of connection points: 4
#     Node 4, Type 0, BuildingBlock: MIFKUJ_clean_linker_1, # of connection points: 4
#     Node 5, Type 0, BuildingBlock: MIFKUJ_clean_linker_1, # of connection points: 4
#     Node 6, Type 1, BuildingBlock: TATPOV_clean_sbu_0, # of connection points: 4
#     Node 7, Type 1, BuildingBlock: TATPOV_clean_sbu_0, # of connection points: 4
#     Node 8, Type 1, BuildingBlock: TATPOV_clean_sbu_0, # of connection points: 4
#     Node 9, Type 1, BuildingBlock: TATPOV_clean_sbu_0, # of connection points: 4
#     Node 10, Type 1, BuildingBlock: TATPOV_clean_sbu_0, # of connection points: 4
#     Node 11, Type 1, BuildingBlock: TATPOV_clean_sbu_0, # of connection points: 4
#     Edge 12, Type (0, 1), BuildingBlock: OJICUG_clean_linker_0, # of connection points: 2
#     Edge 13, Type (0, 1), BuildingBlock: OJICUG_clean_linker_0, # of connection points: 2
#     Edge 14, Type (0, 1), BuildingBlock: OJICUG_clean_linker_0, # of connection points: 2
#     Edge 15, Type (0, 1), BuildingBlock: OJICUG_clean_linker_0, # of connection points: 2
#     Edge 16, Type (0, 1), BuildingBlock: OJICUG_clean_linker_0, # of connection points: 2
#     Edge 17, Type (0, 1), BuildingBlock: OJICUG_clean_linker_0, # of connection points: 2
#     Edge 18, Type (0, 1), BuildingBlock: OJICUG_clean_linker_0, # of connection points: 2
#     Edge 19, Type (0, 1), BuildingBlock: OJICUG_clean_linker_0, # of connection points: 2
#     Edge 20, Type (0, 1), BuildingBlock: OJICUG_clean_linker_0, # of connection points: 2
#     Edge 21, Type (0, 1), BuildingBlock: OJICUG_clean_linker_0, # of connection points: 2
#     Edge 22, Type (0, 1), BuildingBlock: OJICUG_clean_linker_0, # of connection points: 2
#     Edge 23, Type (0, 1), BuildingBlock: OJICUG_clean_linker_0, # of connection points: 2
#     Edge 24, Type (0, 1), BuildingBlock: OJICUG_clean_linker_0, # of connection points: 2
#     Edge 25, Type (0, 1), BuildingBlock: OJICUG_clean_linker_0, # of connection points: 2
#     Edge 26, Type (0, 1), BuildingBlock: OJICUG_clean_linker_0, # of connection points: 2
#     Edge 27, Type (0, 1), BuildingBlock: OJICUG_clean_linker_0, # of connection points: 2
#     Edge 28, Type (0, 1), BuildingBlock: OJICUG_clean_linker_0, # of connection points: 2
#     Edge 29, Type (0, 1), BuildingBlock: OJICUG_clean_linker_0, # of connection points: 2
#     Edge 30, Type (0, 1), BuildingBlock: OJICUG_clean_linker_0, # of connection points: 2
#     Edge 31, Type (0, 1), BuildingBlock: OJICUG_clean_linker_0, # of connection points: 2
#     Edge 32, Type (0, 1), BuildingBlock: OJICUG_clean_linker_0, # of connection points: 2
#     Edge 33, Type (0, 1), BuildingBlock: OJICUG_clean_linker_0, # of connection points: 2
#     Edge 34, Type (0, 1), BuildingBlock: OJICUG_clean_linker_0, # of connection points: 2
#     Edge 35, Type (0, 1), BuildingBlock: OJICUG_clean_linker_0, # of connection points: 2
# Relax obj value: 0.019
# Max RMSD: 0.115
# Mean RMSD: 0.105
data_MOF--net-nom--node1-TATPOV_clean_sbu_0--node2-MIFKUJ_clean_linker_1--edge1-OJICUG_clean_linker_0
_symmetry_space_group_name_H-M    P1
_symmetry_Int_Tables_number       1
_symmetry_cell_setting            triclinic
loop_
_symmetry_equiv_pos_as_xyz
'x, y, z'
_cell_length_a     41.036581
_cell_length_b     41.568528
_cell_length_c     43.28522
_cell_angle_alpha  90.706784
_cell_angle_beta   90.697186
_cell_angle_gamma 120.0155
loop_
_atom_site_label
_atom_site_type_symbol
_atom_site_fract_x
_atom_site_fract_y
_atom_site_fract_z
_atom_type_partial_charge
H0 H 0.92765 0.37416 0.27793 0.0
H1 H 0.88583 0.3623 0.23291 0.0
H2 H 0.95063 0.47855 0.21021 0.0
H3 H 0.99249 0.48964 0.25403 0.0
H4 H 0.03851 0.46801 0.26874 0.0
H5 H 0.92332 0.37824 0.363 0.0
H6 H 0.86569 0.3741 0.38352 0.0
H7 H 0.88389 0.46715 0.3282 0.0
H8 H 0.94131 0.47196 0.30874 0.0
H9 H 0.02592 0.50195 0.39504 0.0
H10 H 0.06715 0.53748 0.43806 0.0
H11 H 0.15206 0.51381 0.40511 0.0
H12 H 0.10947 0.47619 0.36234 0.0
H13 H 0.99029 0.43888 0.37508 0.0
H14 H 0.08176 0.54794 0.33725 0.0
H15 H 0.13905 0.6027 0.32115 0.0
H16 H 0.1656 0.53351 0.26372 0.0
H17 H 0.10833 0.4782 0.28081 0.0
C18 C 0.96359 0.43265 0.26905 0.0
C19 C 0.93289 0.3969 0.26298 0.0
C20 C 0.90892 0.39023 0.23735 0.0
C21 C 0.91512 0.41932 0.21754 0.0
C22 C 0.94558 0.45513 0.22419 0.0
C23 C 0.9696 0.46162 0.24941 0.0
C24 C 0.98901 0.44078 0.29637 0.0
C25 C 0.02806 0.46088 0.29202 0.0
C26 C 0.97525 0.43369 0.3268 0.0
C27 C 0.93637 0.42495 0.33383 0.0
C28 C 0.91424 0.39704 0.3547 0.0
C29 C 0.88142 0.39472 0.36642 0.0
C30 C 0.87071 0.42064 0.35774 0.0
C31 C 0.89175 0.4471 0.33559 0.0
C32 C 0.9243 0.44941 0.32397 0.0
C33 C 0.06443 0.48626 0.37525 0.0
C34 C 0.05297 0.50344 0.39729 0.0
C35 C 0.07687 0.52431 0.42174 0.0
C36 C 0.11316 0.52904 0.42468 0.0
C37 C 0.12426 0.51066 0.40343 0.0
C38 C 0.10004 0.4894 0.37889 0.0
C39 C 0.03983 0.46754 0.3476 0.0
C40 C 0.00095 0.44447 0.35178 0.0
C41 C 0.05338 0.47674 0.31717 0.0
C42 C 0.09107 0.50881 0.31074 0.0
C43 C 0.10043 0.54429 0.32197 0.0
C44 C 0.13292 0.5757 0.31233 0.0
C45 C 0.15659 0.57247 0.29086 0.0
C46 C 0.14799 0.53684 0.2804 0.0
C47 C 0.11532 0.50526 0.29012 0.0
H48 H 0.44121 0.96607 0.51053 0.0
H49 H 0.39091 0.90598 0.52642 0.0
H50 H 0.46572 0.86111 0.51935 0.0
H51 H 0.51702 0.9228 0.50553 0.0
H52 H 0.51848 0.00523 0.54523 0.0
H53 H 0.47151 0.99466 0.42414 0.0
H54 H 0.43943 0.94884 0.38272 0.0
H55 H 0.497 0.89053 0.41116 0.0
H56 H 0.53079 0.93808 0.45163 0.0
H57 H 0.61513 0.10806 0.45222 0.0
H58 H 0.63514 0.17068 0.43407 0.0
H59 H 0.53584 0.16469 0.47318 0.0
H60 H 0.51655 0.10257 0.49167 0.0
H61 H 0.54656 0.04294 0.43621 0.0
H62 H 0.60837 0.11653 0.53131 0.0
H63 H 0.61614 0.1602 0.5733 0.0
H64 H 0.49979 0.08893 0.59734 0.0
H65 H 0.4918 0.04697 0.55482 0.0
C66 C 0.48251 0.94859 0.50622 0.0
C67 C 0.44673 0.94323 0.51233 0.0
C68 C 0.41788 0.90865 0.52118 0.0
C69 C 0.42387 0.87826 0.52365 0.0
C70 C 0.46004 0.88383 0.51778 0.0
C71 C 0.48927 0.91889 0.50943 0.0
C72 C 0.51253 0.98624 0.4981 0.0
C73 C 0.52564 0.01366 0.52149 0.0
C74 C 0.52092 0.99684 0.46704 0.0
C75 C 0.50308 0.96945 0.44125 0.0
C76 C 0.4775 0.9722 0.42128 0.0
C77 C 0.45882 0.94567 0.39782 0.0
C78 C 0.46506 0.91552 0.39393 0.0
C79 C 0.49151 0.91334 0.4135 0.0
C80 C 0.5105 0.94022 0.43688 0.0
C81 C 0.56474 0.10095 0.47375 0.0
C82 C 0.59791 0.12045 0.45706 0.0
C83 C 0.60911 0.15612 0.4465 0.0
C84 C 0.5871 0.1728 0.45214 0.0
C85 C 0.55384 0.15305 0.46887 0.0
C86 C 0.54275 0.11749 0.47949 0.0
C87 C 0.55153 0.06229 0.48338 0.0
C88 C 0.54149 0.03481 0.46018 0.0
C89 C 0.5437 0.05156 0.51454 0.0
C90 C 0.54951 0.07843 0.53988 0.0
C91 C 0.58452 0.11064 0.54548 0.0
C92 C 0.58898 0.13539 0.56963 0.0
C93 C 0.55852 0.12822 0.58859 0.0
C94 C 0.52368 0.09583 0.58288 0.0
C95 C 0.51919 0.07143 0.55877 0.0
H96 H 0.54678 0.60938 0.71968 0.0
H97 H 0.51647 0.62043 0.76375 0.0
H98 H 0.40742 0.54412 0.72303 0.0
H99 H 0.43783 0.53262 0.67945 0.0
H100 H 0.53208 0.5356 0.70783 0.0
H101 H 0.50865 0.62669 0.65468 0.0
H102 H 0.46353 0.64497 0.63651 0.0
H103 H 0.40843 0.54608 0.57845 0.0
H104 H 0.45253 0.52724 0.5973 0.0
H105 H 0.51279 0.4874 0.57824 0.0
H106 H 0.54307 0.46663 0.54083 0.0
H107 H 0.64626 0.52174 0.5953 0.0
H108 H 0.61608 0.54283 0.63239 0.0
H109 H 0.52385 0.5521 0.5953 0.0
H110 H 0.51235 0.45218 0.64401 0.0
H111 H 0.51928 0.40265 0.66685 0.0
H112 H 0.60225 0.48146 0.73195 0.0
H113 H 0.59544 0.53158 0.70863 0.0
C114 C 0.49454 0.57031 0.69627 0.0
C115 C 0.51634 0.59568 0.71998 0.0
C116 C 0.49903 0.60213 0.74503 0.0
C117 C 0.45962 0.58293 0.74691 0.0
C118 C 0.43788 0.55903 0.72231 0.0
C119 C 0.45518 0.55264 0.69729 0.0
C120 C 0.51283 0.55885 0.67275 0.0
C121 C 0.53145 0.54036 0.68328 0.0
C122 C 0.50845 0.56169 0.64054 0.0
C123 C 0.4838 0.57529 0.62772 0.0
C124 C 0.48678 0.60884 0.63815 0.0
C125 C 0.46105 0.6193 0.62773 0.0
C126 C 0.43241 0.59683 0.60617 0.0
C127 C 0.43038 0.56407 0.59487 0.0
C128 C 0.45567 0.55335 0.60563 0.0
C129 C 0.56218 0.51678 0.60807 0.0
C130 C 0.54194 0.49505 0.58209 0.0
C131 C 0.55914 0.48285 0.56093 0.0
C132 C 0.59702 0.49251 0.56519 0.0
C133 C 0.61712 0.51404 0.59133 0.0
C134 C 0.59985 0.52597 0.61258 0.0
C135 C 0.54421 0.53002 0.63057 0.0
C136 C 0.52563 0.54854 0.61993 0.0
C137 C 0.5453 0.52418 0.66256 0.0
C138 C 0.55372 0.49571 0.67434 0.0
C139 C 0.53272 0.45911 0.66271 0.0
C140 C 0.53633 0.43071 0.67604 0.0
C141 C 0.56097 0.43821 0.70137 0.0
C142 C 0.58308 0.47503 0.7124 0.0
C143 C 0.57921 0.50357 0.69915 0.0
H144 H 0.02984 0.58062 0.75566 0.0
H145 H 0.07859 0.61166 0.71783 0.0
H146 H 0.13059 0.54834 0.74709 0.0
H147 H 0.07977 0.51534 0.7835 0.0
H148 H 0.97787 0.50723 0.75912 0.0
H149 H 0.09365 0.59467 0.82286 0.0
H150 H 0.15665 0.6094 0.84129 0.0
H151 H 0.10796 0.50179 0.88346 0.0
H152 H 0.04642 0.48637 0.86336 0.0
H153 H 0.94847 0.44493 0.88256 0.0
H154 H 0.90123 0.42476 0.92275 0.0
H155 H 0.85315 0.48505 0.8794 0.0
H156 H 0.90109 0.50599 0.83979 0.0
H157 H 0.00197 0.51213 0.87209 0.0
H158 H 0.91147 0.41602 0.81011 0.0
H159 H 0.84726 0.37416 0.79165 0.0
H160 H 0.84432 0.46658 0.74967 0.0
H161 H 0.90941 0.50823 0.76756 0.0
C162 C 0.0514 0.54607 0.77282 0.0
C163 C 0.05168 0.57332 0.75388 0.0
C164 C 0.08001 0.59146 0.73248 0.0
C165 C 0.10917 0.58314 0.72962 0.0
C166 C 0.10864 0.55548 0.74847 0.0
C167 C 0.07979 0.53683 0.76959 0.0
C168 C 0.02068 0.52723 0.79527 0.0
C169 C 0.98329 0.5088 0.78385 0.0
C170 C 0.0275 0.52698 0.82746 0.0
C171 C 0.06539 0.53902 0.84101 0.0
C172 C 0.09672 0.57428 0.83594 0.0
C173 C 0.1326 0.58283 0.84679 0.0
C174 C 0.13737 0.55644 0.86327 0.0
C175 C 0.10548 0.52234 0.87007 0.0
C176 C 0.0701 0.51362 0.85884 0.0
C177 C 0.92846 0.47712 0.85824 0.0
C178 C 0.92752 0.4535 0.88155 0.0
C179 C 0.90024 0.44165 0.90431 0.0
C180 C 0.8735 0.4534 0.9043 0.0
C181 C 0.87356 0.47579 0.88018 0.0
C182 C 0.9008 0.48758 0.85741 0.0
C183 C 0.95966 0.49278 0.83593 0.0
C184 C 0.9968 0.51096 0.84735 0.0
C185 C 0.95293 0.49031 0.80371 0.0
C186 C 0.91489 0.46523 0.79051 0.0
C187 C 0.89703 0.4272 0.79677 0.0
C188 C 0.86025 0.40336 0.78634 0.0
C189 C 0.84041 0.41709 0.76956 0.0
C190 C 0.85888 0.45506 0.76235 0.0
C191 C 0.89597 0.47893 0.77263 0.0
H192 H 0.59961 0.07408 0.03268 0.0
H193 H 0.63476 0.13872 0.05103 0.0
H194 H 0.54805 0.1575 0.01275 0.0
H195 H 0.51248 0.0924 0.9953 0.0
H196 H 0.52557 0.01759 0.0461 0.0
H197 H 0.59248 0.09444 0.95601 0.0
H198 H 0.60217 0.14226 0.91893 0.0
H199 H 0.48555 0.07677 0.88909 0.0
H200 H 0.47562 0.03068 0.92739 0.0
H201 H 0.43908 0.9256 0.93856 0.0
H202 H 0.41381 0.86161 0.91972 0.0
H203 H 0.49748 0.85293 0.97496 0.0
H204 H 0.5219 0.91647 0.99416 0.0
H205 H 0.50424 0.98647 0.93398 0.0
H206 H 0.42829 0.92016 0.01318 0.0
H207 H 0.39582 0.87508 0.05334 0.0
H208 H 0.50089 0.91696 0.10438 0.0
H209 H 0.53356 0.96158 0.06356 0.0
C210 C 0.55367 0.07854 0.01231 0.0
C211 C 0.58805 0.09207 0.02846 0.0
C212 C 0.60827 0.12913 0.03869 0.0
C213 C 0.59442 0.15343 0.03313 0.0
C214 C 0.55943 0.13951 0.01761 0.0
C215 C 0.53919 0.10238 0.0074 0.0
C216 C 0.53358 0.0396 0.00031 0.0
C217 C 0.5215 0.01077 0.02157 0.0
C218 C 0.52576 0.03066 0.96837 0.0
C219 C 0.53314 0.05919 0.94488 0.0
C220 C 0.56893 0.09069 0.94173 0.0
C221 C 0.57451 0.11786 0.92026 0.0
C222 C 0.54454 0.11372 0.90117 0.0
C223 C 0.50908 0.08157 0.90389 0.0
C224 C 0.50345 0.0548 0.92554 0.0
C225 C 0.48216 0.92575 0.968 0.0
C226 C 0.45198 0.90988 0.94654 0.0
C227 C 0.43768 0.87331 0.93568 0.0
C228 C 0.4535 0.85195 0.94585 0.0
C229 C 0.48407 0.8682 0.96706 0.0
C230 C 0.49818 0.90463 0.97802 0.0
C231 C 0.49749 0.96453 0.97973 0.0
C232 C 0.50866 0.99326 0.95851 0.0
C233 C 0.50218 0.97331 0.01174 0.0
C234 C 0.48347 0.9441 0.03518 0.0
C235 C 0.44455 0.91917 0.03267 0.0
C236 C 0.42592 0.89363 0.05581 0.0
C237 C 0.44574 0.89255 0.0821 0.0
C238 C 0.48489 0.91686 0.08425 0.0
C239 C 0.50355 0.94255 0.06107 0.0
H240 H 0.48615 0.42337 0.22011 0.0
H241 H 0.51858 0.40507 0.25787 0.0
H242 H 0.61239 0.51789 0.2606 0.0
H243 H 0.58062 0.53499 0.22175 0.0
H244 H 0.49137 0.51359 0.22921 0.0
H245 H 0.51418 0.42101 0.1672 0.0
H246 H 0.56208 0.40551 0.15159 0.0
H247 H 0.6285 0.51558 0.11496 0.0
H248 H 0.58174 0.53131 0.13192 0.0
H249 H 0.51797 0.56552 0.10289 0.0
H250 H 0.48914 0.58238 0.06101 0.0
H251 H 0.38147 0.52299 0.10508 0.0
H252 H 0.41028 0.50561 0.14658 0.0
H253 H 0.50561 0.4998 0.11694 0.0
H254 H 0.51189 0.59879 0.1723 0.0
H255 H 0.49328 0.6425 0.19131 0.0
H256 H 0.40076 0.5536 0.23922 0.0
H257 H 0.42072 0.51022 0.22091 0.0
C258 C 0.5313 0.48037 0.21806 0.0
C259 C 0.51384 0.44392 0.22882 0.0
C260 C 0.53234 0.43362 0.25052 0.0
C261 C 0.56836 0.45985 0.26217 0.0
C262 C 0.58521 0.49659 0.25161 0.0
C263 C 0.56696 0.50663 0.22965 0.0
C264 C 0.51256 0.49143 0.19466 0.0
C265 C 0.49333 0.50953 0.20464 0.0
C266 C 0.51807 0.48894 0.16275 0.0
C267 C 0.54481 0.47757 0.15133 0.0
C268 C 0.53928 0.44184 0.15611 0.0
C269 C 0.56643 0.43288 0.14682 0.0
C270 C 0.59938 0.4595 0.13243 0.0
C271 C 0.60391 0.49471 0.12663 0.0
C272 C 0.57701 0.50364 0.13604 0.0
C273 C 0.46625 0.53412 0.12777 0.0
C274 C 0.48823 0.55643 0.10367 0.0
C275 C 0.47181 0.56636 0.07992 0.0
C276 C 0.43302 0.55389 0.07973 0.0
C277 C 0.41137 0.53274 0.1045 0.0
C278 C 0.42784 0.52298 0.12831 0.0
C279 C 0.48283 0.52059 0.15135 0.0
C280 C 0.50207 0.50247 0.14146 0.0
C281 C 0.47968 0.52538 0.18335 0.0
C282 C 0.46736 0.5512 0.19488 0.0
C283 C 0.4875 0.58871 0.18682 0.0
C284 C 0.4767 0.61365 0.19764 0.0
C285 C 0.44526 0.60162 0.21662 0.0
C286 C 0.42536 0.56399 0.22496 0.0
C287 C 0.43651 0.53906 0.21435 0.0
Zn288 Zn 0.70703 0.47219 0.40985 0.0
Zn289 Zn 0.6617 0.39949 0.41594 0.0
O290 O 0.71495 0.40728 0.40802 0.0
O291 O 0.75319 0.46766 0.4073 0.0
O292 O 0.63289 0.34465 0.42495 0.0
O293 O 0.69069 0.48325 0.45035 0.0
O294 O 0.65288 0.42309 0.455 0.0
C295 C 0.74803 0.43504 0.40553 0.0
C296 C 0.64838 0.43692 0.36179 0.0
O297 O 0.63699 0.40743 0.37731 0.0
O298 O 0.67748 0.46686 0.37047 0.0
C299 C 0.6369 0.32139 0.40843 0.0
O300 O 0.65755 0.333 0.38365 0.0
C301 C 0.66595 0.45627 0.46529 0.0
Zn302 Zn 0.22122 0.68644 0.56975 0.0
Zn303 Zn 0.26269 0.65492 0.57742 0.0
O304 O 0.30056 0.71012 0.5676 0.0
O305 O 0.26543 0.73566 0.56008 0.0
O306 O 0.29821 0.63605 0.58762 0.0
O307 O 0.20106 0.67412 0.61277 0.0
O308 O 0.2309 0.64269 0.617 0.0
C309 C 0.29745 0.7382 0.5606 0.0
C310 C 0.2045 0.62667 0.52527 0.0
O311 O 0.23076 0.62438 0.53933 0.0
O312 O 0.19528 0.65006 0.53438 0.0
C313 C 0.31894 0.63285 0.56767 0.0
O314 O 0.31584 0.63996 0.53863 0.0
C315 C 0.20862 0.65279 0.62797 0.0
Zn316 Zn 0.53026 0.23029 0.74858 0.0
Zn317 Zn 0.60561 0.26614 0.75144 0.0
O318 O 0.59198 0.30739 0.74717 0.0
O319 O 0.53015 0.27861 0.74698 0.0
O320 O 0.66167 0.2958 0.75704 0.0
O321 O 0.52773 0.20576 0.7893 0.0
O322 O 0.58959 0.23393 0.79021 0.0
C323 C 0.56149 0.30843 0.74568 0.0
C324 C 0.56576 0.21371 0.69728 0.0
O325 O 0.59648 0.23571 0.71156 0.0
O326 O 0.53454 0.20725 0.70819 0.0
C327 C 0.68259 0.32067 0.73828 0.0
O328 O 0.66738 0.32619 0.71349 0.0
C329 C 0.55816 0.2117 0.80221 0.0
Zn330 Zn 0.33286 0.54725 0.90798 0.0
Zn331 Zn 0.36688 0.61994 0.91289 0.0
O332 O 0.31125 0.60521 0.90387 0.0
O333 O 0.28371 0.54433 0.89941 0.0
O334 O 0.39211 0.67519 0.92162 0.0
O335 O 0.34729 0.54091 0.95071 0.0
O336 O 0.37875 0.60194 0.95394 0.0
C337 C 0.28182 0.57376 0.89851 0.0
C338 C 0.3879 0.5836 0.86105 0.0
O339 O 0.39239 0.6133 0.87413 0.0
O340 O 0.36507 0.55226 0.87196 0.0
C341 C 0.39173 0.69887 0.90353 0.0
O342 O 0.37511 0.68777 0.87623 0.0
C343 C 0.3688 0.57048 0.96581 0.0
Zn344 Zn 0.79515 0.45586 0.07971 0.0
Zn345 Zn 0.75042 0.38312 0.07359 0.0
O346 O 0.71445 0.40222 0.08694 0.0
O347 O 0.75304 0.46177 0.09631 0.0
O348 O 0.71668 0.32754 0.06577 0.0
O349 O 0.8063 0.46158 0.03464 0.0
O350 O 0.77565 0.40053 0.03094 0.0
C351 C 0.7201 0.43394 0.0961 0.0
C352 C 0.81816 0.41472 0.11827 0.0
O353 O 0.7874 0.38688 0.10844 0.0
O354 O 0.82857 0.44689 0.10837 0.0
C355 C 0.68128 0.30933 0.06969 0.0
O356 O 0.66426 0.32664 0.08043 0.0
C357 C 0.79581 0.43215 0.01876 0.0
Zn358 Zn 0.32645 0.78737 0.2428 0.0
Zn359 Zn 0.37033 0.75661 0.24247 0.0
O360 O 0.31638 0.7134 0.24918 0.0
O361 O 0.27947 0.73753 0.24697 0.0
O362 O 0.39848 0.72885 0.23737 0.0
O363 O 0.34534 0.80974 0.20097 0.0
O364 O 0.38208 0.78533 0.20184 0.0
C365 C 0.28362 0.70957 0.25032 0.0
C366 C 0.38317 0.81276 0.29303 0.0
O367 O 0.39341 0.79145 0.28039 0.0
O368 O 0.35578 0.81506 0.28166 0.0
C369 C 0.39382 0.70264 0.25491 0.0
O370 O 0.37233 0.69522 0.27909 0.0
C371 C 0.37044 0.80499 0.18853 0.0
C372 C 0.18441 0.63666 0.27025 0.0
C373 C 0.1889 0.60647 0.27843 0.0
H374 H 0.21045 0.69249 0.25465 0.0
C375 C 0.22434 0.60946 0.27516 0.0
H376 H 0.15726 0.63494 0.27184 0.0
C377 C 0.25501 0.64257 0.26509 0.0
C378 C 0.25072 0.67322 0.25796 0.0
H379 H 0.22863 0.58664 0.2813 0.0
H380 H 0.28223 0.64443 0.26366 0.0
C381 C 0.2149 0.66959 0.26015 0.0
C382 C 0.59368 0.2361 0.45845 0.0
C383 C 0.59859 0.2105 0.44043 0.0
H384 H 0.60154 0.29093 0.46245 0.0
C385 C 0.61471 0.22128 0.41117 0.0
H386 H 0.58176 0.22895 0.48122 0.0
C387 C 0.62631 0.25696 0.40049 0.0
C388 C 0.62195 0.28271 0.41874 0.0
H389 H 0.61828 0.20208 0.39642 0.0
H390 H 0.63905 0.26444 0.37802 0.0
C391 C 0.60513 0.27173 0.44771 0.0
C392 C 0.39392 0.60498 0.56475 0.0
C393 C 0.40389 0.60675 0.59616 0.0
H394 H 0.35943 0.61205 0.53106 0.0
C395 C 0.38556 0.61691 0.61812 0.0
H396 H 0.40771 0.59735 0.54733 0.0
C397 C 0.35762 0.62486 0.60888 0.0
C398 C 0.34775 0.6233 0.57744 0.0
H399 H 0.39238 0.61808 0.64251 0.0
H400 H 0.34398 0.63253 0.6264 0.0
C401 C 0.36633 0.61344 0.55545 0.0
C402 C 0.7854 0.39475 0.73219 0.0
C403 C 0.80016 0.392 0.76089 0.0
H404 H 0.73668 0.37419 0.70237 0.0
C405 C 0.77599 0.36522 0.78171 0.0
H406 H 0.80333 0.41482 0.7155 0.0
C407 C 0.73808 0.34173 0.77407 0.0
C408 C 0.72322 0.34462 0.74551 0.0
H409 H 0.78618 0.3628 0.80427 0.0
H410 H 0.7203 0.32169 0.79085 0.0
C411 C 0.74727 0.37131 0.72459 0.0
C412 C 0.4357 0.78552 0.95493 0.0
C413 C 0.43805 0.8128 0.9347 0.0
H414 H 0.41957 0.72853 0.96101 0.0
C415 C 0.42541 0.80226 0.90388 0.0
H416 H 0.44453 0.79238 0.97894 0.0
C417 C 0.41062 0.76538 0.89364 0.0
C418 C 0.40829 0.7382 0.91394 0.0
H419 H 0.42727 0.82259 0.88752 0.0
H420 H 0.40105 0.75821 0.8698 0.0
C421 C 0.42117 0.74877 0.94466 0.0
C422 C 0.62163 0.41717 0.11095 0.0
C423 C 0.62975 0.45151 0.12428 0.0
H424 H 0.64382 0.38453 0.0914 0.0
C425 C 0.66756 0.47899 0.12937 0.0
H426 H 0.59277 0.39548 0.10663 0.0
C427 C 0.69656 0.4729 0.12048 0.0
C428 C 0.68864 0.43901 0.10645 0.0
H429 H 0.67485 0.50541 0.14028 0.0
H430 H 0.7253 0.49498 0.12458 0.0
C431 C 0.65085 0.41096 0.10212 0.0
C432 C 0.39787 0.81709 0.5512 0.0
C433 C 0.39215 0.84122 0.53221 0.0
H434 H 0.37235 0.76531 0.57509 0.0
C435 C 0.3553 0.83021 0.52203 0.0
H436 H 0.42579 0.8247 0.55967 0.0
C437 C 0.3249 0.79697 0.53155 0.0
C438 C 0.33044 0.77323 0.55093 0.0
H439 H 0.34974 0.84728 0.50659 0.0
H440 H 0.29693 0.78969 0.52337 0.0
C441 C 0.36728 0.78321 0.56026 0.0
C442 C 0.52816 0.375 0.72377 0.0
C443 C 0.56203 0.40705 0.71662 0.0
H444 H 0.50146 0.31911 0.73913 0.0
C445 C 0.59624 0.40797 0.7224 0.0
H446 H 0.50142 0.37383 0.72006 0.0
C447 C 0.59635 0.37644 0.73334 0.0
C448 C 0.56224 0.34363 0.73888 0.0
H449 H 0.62273 0.43242 0.71711 0.0
H450 H 0.62304 0.37732 0.73626 0.0
C451 C 0.52825 0.34372 0.73486 0.0
C452 C 0.18236 0.53301 0.86787 0.0
C453 C 0.17527 0.56253 0.87162 0.0
H454 H 0.22087 0.51335 0.87361 0.0
C455 C 0.20417 0.5968 0.88361 0.0
H456 H 0.1612 0.50659 0.85784 0.0
C457 C 0.23915 0.60094 0.8924 0.0
C458 C 0.24554 0.5708 0.88944 0.0
H459 H 0.19952 0.62007 0.88672 0.0
H460 H 0.26091 0.62744 0.90183 0.0
C461 C 0.21679 0.53698 0.87685 0.0
C462 C 0.65598 0.21326 0.03961 0.0
C463 C 0.61671 0.19324 0.04306 0.0
H464 H 0.7071 0.26537 0.04526 0.0
C465 C 0.59897 0.21166 0.05581 0.0
H466 H 0.67051 0.2001 0.02949 0.0
C467 C 0.61996 0.2492 0.06474 0.0
C468 C 0.65919 0.26924 0.06109 0.0
H469 H 0.56885 0.19698 0.05915 0.0
H470 H 0.60535 0.26251 0.0744 0.0
C471 C 0.67696 0.25077 0.04852 0.0
C472 C 0.43578 0.65595 0.20725 0.0
C473 C 0.43309 0.62819 0.22709 0.0
H474 H 0.42609 0.70134 0.20057 0.0
C475 C 0.41851 0.62604 0.25674 0.0
H476 H 0.44617 0.65811 0.18405 0.0
C477 C 0.4064 0.65065 0.26608 0.0
C478 C 0.40892 0.67816 0.24608 0.0
H479 H 0.41656 0.60544 0.27283 0.0
H480 H 0.3949 0.64798 0.28891 0.0
C481 C 0.42409 0.68073 0.21669 0.0
C482 C 0.84579 0.4573 0.38394 0.0
C483 C 0.83978 0.42267 0.37326 0.0
H484 H 0.82186 0.48817 0.40297 0.0
C485 C 0.80408 0.39108 0.37643 0.0
H486 H 0.87327 0.48198 0.38247 0.0
C487 C 0.77433 0.39458 0.38835 0.0
C488 C 0.78 0.42971 0.39741 0.0
H489 H 0.79881 0.36404 0.3685 0.0
H490 H 0.74667 0.37008 0.3893 0.0
C491 C 0.81633 0.46078 0.39587 0.0
C492 C 0.16217 0.54567 0.46722 0.0
C493 C 0.13946 0.55483 0.44897 0.0
H494 H 0.20085 0.5613 0.50596 0.0
C495 C 0.14079 0.58879 0.4547 0.0
H496 H 0.16177 0.5197 0.46328 0.0
C497 C 0.16262 0.61215 0.479 0.0
C498 C 0.18411 0.60248 0.49817 0.0
H499 H 0.12453 0.59722 0.44053 0.0
H500 H 0.16226 0.63776 0.48292 0.0
C501 C 0.18442 0.56939 0.49165 0.0
C502 C 0.53276 0.15983 0.62166 0.0
C503 C 0.56258 0.15364 0.61469 0.0
H504 H 0.51037 0.18339 0.65315 0.0
C505 C 0.59496 0.16997 0.63398 0.0
H506 H 0.50783 0.14858 0.60687 0.0
C507 C 0.59669 0.19063 0.66039 0.0
C508 C 0.56591 0.19497 0.6681 0.0
H509 H 0.61835 0.16559 0.62939 0.0
H510 H 0.62149 0.202 0.67533 0.0
C511 C 0.53427 0.17994 0.64815 0.0
C512 C 0.41377 0.5509 0.7885 0.0
C513 C 0.44132 0.58426 0.77585 0.0
H514 H 0.37592 0.52459 0.8251 0.0
C515 C 0.45202 0.61796 0.79173 0.0
H516 H 0.4055 0.52443 0.77719 0.0
C517 C 0.43492 0.61815 0.81957 0.0
C518 C 0.40729 0.58459 0.83212 0.0
H519 H 0.4733 0.64409 0.78248 0.0
H520 H 0.44334 0.64445 0.83122 0.0
C521 C 0.39709 0.55103 0.81623 0.0
C522 C 0.84471 0.47459 0.94444 0.0
C523 C 0.84853 0.44571 0.93109 0.0
H524 H 0.82478 0.49278 0.98239 0.0
C525 C 0.8312 0.41085 0.94519 0.0
H526 H 0.85801 0.50188 0.93437 0.0
C527 C 0.81195 0.40556 0.97287 0.0
C528 C 0.81014 0.4352 0.98709 0.0
H529 H 0.83338 0.38797 0.93526 0.0
H530 H 0.80013 0.37886 0.98386 0.0
C531 C 0.82585 0.46943 0.97213 0.0
C532 C 0.43968 0.84799 0.12354 0.0
C533 C 0.42523 0.86783 0.10802 0.0
H534 H 0.43341 0.81203 0.16084 0.0
C535 C 0.39152 0.86506 0.11817 0.0
H536 H 0.46541 0.84931 0.11607 0.0
C537 C 0.37322 0.84379 0.14373 0.0
C538 C 0.38806 0.8246 0.15972 0.0
H539 H 0.37986 0.88032 0.10695 0.0
H540 H 0.34779 0.84303 0.15132 0.0
C541 C 0.42118 0.82644 0.14903 0.0
C542 C 0.62771 0.46659 0.28575 0.0
C543 C 0.58824 0.44962 0.28572 0.0
H544 H 0.67751 0.4758 0.30992 0.0
C545 C 0.56843 0.42464 0.30936 0.0
H546 H 0.64393 0.48497 0.26745 0.0
C547 C 0.58784 0.41845 0.33328 0.0
C548 C 0.62734 0.43764 0.33423 0.0
H549 H 0.53806 0.41119 0.31026 0.0
H550 H 0.57208 0.40042 0.35191 0.0
C551 C 0.64701 0.46105 0.30991 0.0
C552 C 0.46081 0.87088 0.35181 0.0
C553 C 0.44358 0.88657 0.36964 0.0
H554 H 0.45512 0.83488 0.31357 0.0
C555 C 0.40563 0.87534 0.36343 0.0
H556 H 0.49004 0.87901 0.35588 0.0
C557 C 0.38596 0.85066 0.33907 0.0
C558 C 0.4035 0.83605 0.3205 0.0
H559 H 0.39108 0.88595 0.37723 0.0
H560 H 0.357 0.84332 0.33458 0.0
C561 C 0.44087 0.84568 0.32753 0.0
C562 C 0.59824 0.44584 0.52839 0.0
C563 C 0.61605 0.48187 0.54159 0.0
H564 H 0.6004 0.40916 0.49428 0.0
C565 C 0.65164 0.50839 0.53109 0.0
H566 H 0.57095 0.42474 0.53626 0.0
C567 C 0.66841 0.49957 0.50708 0.0
C568 C 0.65015 0.46391 0.49317 0.0
H569 H 0.66593 0.53645 0.54064 0.0
H570 H 0.69535 0.52104 0.49891 0.0
C571 C 0.61524 0.43686 0.50454 0.0
C572 C 0.15114 0.63975 0.69899 0.0
C573 C 0.13901 0.60256 0.70629 0.0
H574 H 0.1826 0.68469 0.66854 0.0
C575 C 0.15392 0.58365 0.68971 0.0
H576 H 0.14138 0.65573 0.71181 0.0
C577 C 0.17864 0.60084 0.66543 0.0
C578 C 0.18844 0.63703 0.6569 0.0
H579 H 0.14515 0.55496 0.69441 0.0
H580 H 0.1883 0.58502 0.65221 0.0
C581 C 0.17514 0.65658 0.67437 0.0
C582 C 0.52078 0.14968 0.87134 0.0
C583 C 0.54995 0.14215 0.87799 0.0
H584 H 0.50052 0.17748 0.84231 0.0
C585 C 0.58336 0.16061 0.8612 0.0
H586 H 0.49507 0.1369 0.88433 0.0
C587 C 0.58679 0.18468 0.83751 0.0
C588 C 0.55673 0.19043 0.82984 0.0
H589 H 0.60632 0.15535 0.86545 0.0
H590 H 0.61235 0.19745 0.8243 0.0
C591 C 0.524 0.17323 0.8474 0.0
C592 C 0.43115 0.59429 0.03766 0.0
C593 C 0.4147 0.55982 0.05236 0.0
H594 H 0.4292 0.62499 0.99888 0.0
C595 C 0.38173 0.52988 0.03944 0.0
H596 H 0.45645 0.61791 0.04724 0.0
C597 C 0.36634 0.53384 0.01184 0.0
C598 C 0.38337 0.56791 0.99657 0.0
H599 H 0.36862 0.50287 0.05 0.0
H600 H 0.34147 0.50985 0.00212 0.0
C601 C 0.41546 0.59838 0.0101 0.0
C602 C 0.90501 0.43349 0.16332 0.0
C603 C 0.88992 0.41325 0.19033 0.0
H604 H 0.89396 0.44981 0.11958 0.0
C605 C 0.85063 0.38957 0.19166 0.0
H606 H 0.93512 0.45102 0.16092 0.0
C607 C 0.82699 0.38803 0.16729 0.0
C608 C 0.84228 0.41058 0.14152 0.0
H609 H 0.83798 0.37366 0.21211 0.0
H610 H 0.79678 0.37094 0.1694 0.0
C611 C 0.88147 0.43257 0.13945 0.0
loop_
_geom_bond_atom_site_label_1
_geom_bond_atom_site_label_2
_geom_bond_distance
_geom_bond_site_symmetry_2
_ccdc_geom_bond_type
H0 C19 0.949 . S
H1 C20 0.950 . S
H2 C22 0.950 . S
H3 C23 0.950 . S
H4 C25 0.950 . S
H5 C28 0.950 . S
H6 C29 0.950 . S
H7 C31 0.951 . S
H8 C32 0.949 . S
H9 C34 0.949 . S
H10 C35 0.950 . S
H11 C37 0.950 . S
H12 C38 0.950 . S
H13 C40 0.950 . S
H14 C43 0.950 . S
H15 C44 0.950 . S
H16 C46 0.951 . S
H17 C47 0.949 . S
C18 C19 1.376 . S
C18 C23 1.386 . S
C18 C24 1.483 . S
C19 H0 0.949 . S
C19 C18 1.376 . S
C19 C20 1.397 . S
C20 H1 0.950 . S
C20 C19 1.397 . S
C20 C21 1.391 . S
C21 C20 1.391 . S
C21 C22 1.405 . S
C22 H2 0.950 . S
C22 C21 1.405 . S
C22 C23 1.367 . S
C23 H3 0.950 . S
C23 C18 1.386 . S
C23 C22 1.367 . S
C24 C18 1.483 . S
C24 C25 1.382 1_655 S
C24 C26 1.403 . S
C25 H4 0.950 . S
C25 C24 1.382 1_455 S
C25 C41 1.411 . S
C26 C24 1.403 . S
C26 C27 1.489 . S
C26 C40 1.411 . S
C27 C26 1.489 . S
C27 C28 1.383 . S
C27 C32 1.382 . S
C28 H5 0.950 . S
C28 C27 1.383 . S
C28 C29 1.395 . S
C29 H6 0.950 . S
C29 C28 1.395 . S
C29 C30 1.288 . S
C30 C29 1.288 . S
C30 C31 1.392 . S
C31 H7 0.951 . S
C31 C30 1.392 . S
C31 C32 1.392 . S
C32 H8 0.949 . S
C32 C27 1.382 . S
C32 C31 1.392 . S
C33 C34 1.376 . S
C33 C38 1.386 . S
C33 C39 1.483 . S
C34 H9 0.949 . S
C34 C33 1.376 . S
C34 C35 1.397 . S
C35 H10 0.950 . S
C35 C34 1.397 . S
C35 C36 1.391 . S
C36 C35 1.391 . S
C36 C37 1.405 . S
C37 H11 0.950 . S
C37 C36 1.405 . S
C37 C38 1.367 . S
C38 H12 0.950 . S
C38 C33 1.386 . S
C38 C37 1.367 . S
C39 C33 1.483 . S
C39 C40 1.382 1_455 S
C39 C41 1.403 . S
C40 H13 0.950 . S
C40 C26 1.411 . S
C40 C39 1.382 1_655 S
C41 C25 1.411 . S
C41 C39 1.403 . S
C41 C42 1.489 . S
C42 C41 1.489 . S
C42 C43 1.383 . S
C42 C47 1.382 . S
C43 H14 0.950 . S
C43 C42 1.383 . S
C43 C44 1.395 . S
C44 H15 0.950 . S
C44 C43 1.395 . S
C44 C45 1.288 . S
C45 C44 1.288 . S
C45 C46 1.392 . S
C46 H16 0.951 . S
C46 C45 1.392 . S
C46 C47 1.392 . S
C47 H17 0.949 . S
C47 C42 1.382 . S
C47 C46 1.392 . S
H48 C67 0.949 . S
H49 C68 0.950 . S
H50 C70 0.950 . S
H51 C71 0.950 . S
H52 C73 0.950 . S
H53 C76 0.950 . S
H54 C77 0.950 . S
H55 C79 0.951 . S
H56 C80 0.949 . S
H57 C82 0.949 . S
H58 C83 0.950 . S
H59 C85 0.950 . S
H60 C86 0.950 . S
H61 C88 0.950 . S
H62 C91 0.950 . S
H63 C92 0.950 . S
H64 C94 0.951 . S
H65 C95 0.949 . S
C66 C67 1.376 . S
C66 C71 1.386 . S
C66 C72 1.483 . S
C67 H48 0.949 . S
C67 C66 1.376 . S
C67 C68 1.397 . S
C68 H49 0.950 . S
C68 C67 1.397 . S
C68 C69 1.391 . S
C69 C68 1.391 . S
C69 C70 1.405 . S
C70 H50 0.950 . S
C70 C69 1.405 . S
C70 C71 1.367 . S
C71 H51 0.950 . S
C71 C66 1.386 . S
C71 C70 1.367 . S
C72 C66 1.483 . S
C72 C73 1.382 . S
C72 C74 1.403 . S
C73 H52 0.950 . S
C73 C72 1.382 . S
C73 C89 1.411 1_565 S
C74 C72 1.403 . S
C74 C75 1.489 . S
C74 C88 1.411 1_565 S
C75 C74 1.489 . S
C75 C76 1.383 . S
C75 C80 1.382 . S
C76 H53 0.950 . S
C76 C75 1.383 . S
C76 C77 1.395 . S
C77 H54 0.950 . S
C77 C76 1.395 . S
C77 C78 1.288 . S
C78 C77 1.288 . S
C78 C79 1.392 . S
C79 H55 0.951 . S
C79 C78 1.392 . S
C79 C80 1.392 . S
C80 H56 0.949 . S
C80 C75 1.382 . S
C80 C79 1.392 . S
C81 C82 1.376 . S
C81 C86 1.386 . S
C81 C87 1.483 . S
C82 H57 0.949 . S
C82 C81 1.376 . S
C82 C83 1.397 . S
C83 H58 0.950 . S
C83 C82 1.397 . S
C83 C84 1.391 . S
C84 C83 1.391 . S
C84 C85 1.405 . S
C85 H59 0.950 . S
C85 C84 1.405 . S
C85 C86 1.367 . S
C86 H60 0.950 . S
C86 C81 1.386 . S
C86 C85 1.367 . S
C87 C81 1.483 . S
C87 C88 1.382 . S
C87 C89 1.403 . S
C88 H61 0.950 . S
C88 C74 1.411 1_545 S
C88 C87 1.382 . S
C89 C73 1.411 1_545 S
C89 C87 1.403 . S
C89 C90 1.489 . S
C90 C89 1.489 . S
C90 C91 1.383 . S
C90 C95 1.382 . S
C91 H62 0.950 . S
C91 C90 1.383 . S
C91 C92 1.395 . S
C92 H63 0.950 . S
C92 C91 1.395 . S
C92 C93 1.288 . S
C93 C92 1.288 . S
C93 C94 1.392 . S
C94 H64 0.951 . S
C94 C93 1.392 . S
C94 C95 1.392 . S
C95 H65 0.949 . S
C95 C90 1.382 . S
C95 C94 1.392 . S
H96 C115 0.949 . S
H97 C116 0.950 . S
H98 C118 0.950 . S
H99 C119 0.950 . S
H100 C121 0.950 . S
H101 C124 0.950 . S
H102 C125 0.950 . S
H103 C127 0.951 . S
H104 C128 0.949 . S
H105 C130 0.949 . S
H106 C131 0.950 . S
H107 C133 0.950 . S
H108 C134 0.950 . S
H109 C136 0.950 . S
H110 C139 0.950 . S
H111 C140 0.950 . S
H112 C142 0.951 . S
H113 C143 0.949 . S
C114 C115 1.376 . S
C114 C119 1.386 . S
C114 C120 1.483 . S
C115 H96 0.949 . S
C115 C114 1.376 . S
C115 C116 1.397 . S
C116 H97 0.950 . S
C116 C115 1.397 . S
C116 C117 1.391 . S
C117 C116 1.391 . S
C117 C118 1.405 . S
C118 H98 0.950 . S
C118 C117 1.405 . S
C118 C119 1.367 . S
C119 H99 0.950 . S
C119 C114 1.386 . S
C119 C118 1.367 . S
C120 C114 1.483 . S
C120 C121 1.382 . S
C120 C122 1.403 . S
C121 H100 0.950 . S
C121 C120 1.382 . S
C121 C137 1.411 . S
C122 C120 1.403 . S
C122 C123 1.489 . S
C122 C136 1.411 . S
C123 C122 1.489 . S
C123 C124 1.383 . S
C123 C128 1.382 . S
C124 H101 0.950 . S
C124 C123 1.383 . S
C124 C125 1.395 . S
C125 H102 0.950 . S
C125 C124 1.395 . S
C125 C126 1.288 . S
C126 C125 1.288 . S
C126 C127 1.392 . S
C127 H103 0.951 . S
C127 C126 1.392 . S
C127 C128 1.392 . S
C128 H104 0.949 . S
C128 C123 1.382 . S
C128 C127 1.392 . S
C129 C130 1.376 . S
C129 C134 1.386 . S
C129 C135 1.483 . S
C130 H105 0.949 . S
C130 C129 1.376 . S
C130 C131 1.397 . S
C131 H106 0.950 . S
C131 C130 1.397 . S
C131 C132 1.391 . S
C132 C131 1.391 . S
C132 C133 1.405 . S
C133 H107 0.950 . S
C133 C132 1.405 . S
C133 C134 1.367 . S
C134 H108 0.950 . S
C134 C129 1.386 . S
C134 C133 1.367 . S
C135 C129 1.483 . S
C135 C136 1.382 . S
C135 C137 1.403 . S
C136 H109 0.950 . S
C136 C122 1.411 . S
C136 C135 1.382 . S
C137 C121 1.411 . S
C137 C135 1.403 . S
C137 C138 1.489 . S
C138 C137 1.489 . S
C138 C139 1.383 . S
C138 C143 1.382 . S
C139 H110 0.950 . S
C139 C138 1.383 . S
C139 C140 1.395 . S
C140 H111 0.950 . S
C140 C139 1.395 . S
C140 C141 1.288 . S
C141 C140 1.288 . S
C141 C142 1.392 . S
C142 H112 0.951 . S
C142 C141 1.392 . S
C142 C143 1.392 . S
C143 H113 0.949 . S
C143 C138 1.382 . S
C143 C142 1.392 . S
H144 C163 0.949 . S
H145 C164 0.950 . S
H146 C166 0.950 . S
H147 C167 0.950 . S
H148 C169 0.951 . S
H149 C172 0.950 . S
H150 C173 0.950 . S
H151 C175 0.951 . S
H152 C176 0.949 . S
H153 C178 0.949 . S
H154 C179 0.950 . S
H155 C181 0.950 . S
H156 C182 0.950 . S
H157 C184 0.950 . S
H158 C187 0.950 . S
H159 C188 0.950 . S
H160 C190 0.951 . S
H161 C191 0.949 . S
C162 C163 1.376 . S
C162 C167 1.386 . S
C162 C168 1.483 . S
C163 H144 0.949 . S
C163 C162 1.376 . S
C163 C164 1.397 . S
C164 H145 0.950 . S
C164 C163 1.397 . S
C164 C165 1.391 . S
C165 C164 1.391 . S
C165 C166 1.405 . S
C166 H146 0.950 . S
C166 C165 1.405 . S
C166 C167 1.367 . S
C167 H147 0.950 . S
C167 C162 1.386 . S
C167 C166 1.367 . S
C168 C162 1.483 . S
C168 C169 1.380 1_455 S
C168 C170 1.403 . S
C169 H148 0.951 . S
C169 C168 1.380 1_655 S
C169 C185 1.412 . S
C170 C168 1.403 . S
C170 C171 1.489 . S
C170 C184 1.411 . S
C171 C170 1.489 . S
C171 C172 1.383 . S
C171 C176 1.382 . S
C172 H149 0.950 . S
C172 C171 1.383 . S
C172 C173 1.395 . S
C173 H150 0.950 . S
C173 C172 1.395 . S
C173 C174 1.288 . S
C174 C173 1.288 . S
C174 C175 1.392 . S
C175 H151 0.951 . S
C175 C174 1.392 . S
C175 C176 1.392 . S
C176 H152 0.949 . S
C176 C171 1.382 . S
C176 C175 1.392 . S
C177 C178 1.376 . S
C177 C182 1.386 . S
C177 C183 1.483 . S
C178 H153 0.949 . S
C178 C177 1.376 . S
C178 C179 1.397 . S
C179 H154 0.950 . S
C179 C178 1.397 . S
C179 C180 1.391 . S
C180 C179 1.391 . S
C180 C181 1.405 . S
C181 H155 0.950 . S
C181 C180 1.405 . S
C181 C182 1.367 . S
C182 H156 0.950 . S
C182 C177 1.386 . S
C182 C181 1.367 . S
C183 C177 1.483 . S
C183 C184 1.382 1_655 S
C183 C185 1.403 . S
C184 H157 0.950 . S
C184 C170 1.411 . S
C184 C183 1.382 1_455 S
C185 C169 1.412 . S
C185 C183 1.403 . S
C185 C186 1.489 . S
C186 C185 1.489 . S
C186 C187 1.383 . S
C186 C191 1.382 . S
C187 H158 0.950 . S
C187 C186 1.383 . S
C187 C188 1.395 . S
C188 H159 0.950 . S
C188 C187 1.395 . S
C188 C189 1.288 . S
C189 C188 1.288 . S
C189 C190 1.392 . S
C190 H160 0.951 . S
C190 C189 1.392 . S
C190 C191 1.392 . S
C191 H161 0.949 . S
C191 C186 1.382 . S
C191 C190 1.392 . S
H192 C211 0.949 . S
H193 C212 0.950 . S
H194 C214 0.950 . S
H195 C215 0.965 . S
H196 C217 0.950 . S
H197 C220 0.950 . S
H198 C221 0.950 . S
H199 C223 0.951 . S
H200 C224 0.949 . S
H201 C226 0.949 . S
H202 C227 0.950 . S
H203 C229 0.950 . S
H204 C230 0.950 . S
H205 C232 0.950 . S
H206 C235 0.950 . S
H207 C236 0.950 . S
H208 C238 0.951 . S
H209 C239 0.949 . S
C210 C211 1.376 . S
C210 C215 1.380 1_554 S
C210 C216 1.483 1_554 S
C211 H192 0.949 . S
C211 C210 1.376 . S
C211 C212 1.397 . S
C212 H193 0.950 . S
C212 C211 1.397 . S
C212 C213 1.391 . S
C213 C212 1.391 . S
C213 C214 1.405 . S
C214 H194 0.950 . S
C214 C213 1.405 . S
C214 C215 1.359 1_554 S
C215 H195 0.965 . S
C215 C210 1.380 1_556 S
C215 C214 1.359 1_556 S
C216 C210 1.483 1_556 S
C216 C217 1.382 1_556 S
C216 C218 1.403 . S
C217 H196 0.950 . S
C217 C216 1.382 1_554 S
C217 C233 1.411 1_545 S
C218 C216 1.403 . S
C218 C219 1.489 . S
C218 C232 1.411 1_545 S
C219 C218 1.489 . S
C219 C220 1.383 . S
C219 C224 1.382 . S
C220 H197 0.950 . S
C220 C219 1.383 . S
C220 C221 1.395 . S
C221 H198 0.950 . S
C221 C220 1.395 . S
C221 C222 1.288 . S
C222 C221 1.288 . S
C222 C223 1.392 . S
C223 H199 0.951 . S
C223 C222 1.392 . S
C223 C224 1.392 . S
C224 H200 0.949 . S
C224 C219 1.382 . S
C224 C223 1.392 . S
C225 C226 1.376 . S
C225 C230 1.386 . S
C225 C231 1.483 . S
C226 H201 0.949 . S
C226 C225 1.376 . S
C226 C227 1.397 . S
C227 H202 0.950 . S
C227 C226 1.397 . S
C227 C228 1.391 . S
C228 C227 1.391 . S
C228 C229 1.405 . S
C229 H203 0.950 . S
C229 C228 1.405 . S
C229 C230 1.367 . S
C230 H204 0.950 . S
C230 C225 1.386 . S
C230 C229 1.367 . S
C231 C225 1.483 . S
C231 C232 1.382 . S
C231 C233 1.403 1_556 S
C232 H205 0.950 . S
C232 C218 1.411 1_565 S
C232 C231 1.382 . S
C233 C217 1.411 1_565 S
C233 C231 1.403 1_554 S
C233 C234 1.489 . S
C234 C233 1.489 . S
C234 C235 1.383 . S
C234 C239 1.382 . S
C235 H206 0.950 . S
C235 C234 1.383 . S
C235 C236 1.395 . S
C236 H207 0.950 . S
C236 C235 1.395 . S
C236 C237 1.288 . S
C237 C236 1.288 . S
C237 C238 1.392 . S
C238 H208 0.951 . S
C238 C237 1.392 . S
C238 C239 1.392 . S
C239 H209 0.949 . S
C239 C234 1.382 . S
C239 C238 1.392 . S
H240 C259 0.949 . S
H241 C260 0.950 . S
H242 C262 0.950 . S
H243 C263 0.950 . S
H244 C265 0.950 . S
H245 C268 0.950 . S
H246 C269 0.950 . S
H247 C271 0.951 . S
H248 C272 0.949 . S
H249 C274 0.949 . S
H250 C275 0.950 . S
H251 C277 0.950 . S
H252 C278 0.950 . S
H253 C280 0.950 . S
H254 C283 0.950 . S
H255 C284 0.950 . S
H256 C286 0.951 . S
H257 C287 0.949 . S
C258 C259 1.376 . S
C258 C263 1.386 . S
C258 C264 1.483 . S
C259 H240 0.949 . S
C259 C258 1.376 . S
C259 C260 1.397 . S
C260 H241 0.950 . S
C260 C259 1.397 . S
C260 C261 1.391 . S
C261 C260 1.391 . S
C261 C262 1.405 . S
C262 H242 0.950 . S
C262 C261 1.405 . S
C262 C263 1.367 . S
C263 H243 0.950 . S
C263 C258 1.386 . S
C263 C262 1.367 . S
C264 C258 1.483 . S
C264 C265 1.382 . S
C264 C266 1.403 . S
C265 H244 0.950 . S
C265 C264 1.382 . S
C265 C281 1.411 . S
C266 C264 1.403 . S
C266 C267 1.489 . S
C266 C280 1.411 . S
C267 C266 1.489 . S
C267 C268 1.383 . S
C267 C272 1.382 . S
C268 H245 0.950 . S
C268 C267 1.383 . S
C268 C269 1.395 . S
C269 H246 0.950 . S
C269 C268 1.395 . S
C269 C270 1.288 . S
C270 C269 1.288 . S
C270 C271 1.392 . S
C271 H247 0.951 . S
C271 C270 1.392 . S
C271 C272 1.392 . S
C272 H248 0.949 . S
C272 C267 1.382 . S
C272 C271 1.392 . S
C273 C274 1.376 . S
C273 C278 1.386 . S
C273 C279 1.483 . S
C274 H249 0.949 . S
C274 C273 1.376 . S
C274 C275 1.397 . S
C275 H250 0.950 . S
C275 C274 1.397 . S
C275 C276 1.391 . S
C276 C275 1.391 . S
C276 C277 1.405 . S
C277 H251 0.950 . S
C277 C276 1.405 . S
C277 C278 1.367 . S
C278 H252 0.950 . S
C278 C273 1.386 . S
C278 C277 1.367 . S
C279 C273 1.483 . S
C279 C280 1.382 . S
C279 C281 1.403 . S
C280 H253 0.950 . S
C280 C266 1.411 . S
C280 C279 1.382 . S
C281 C265 1.411 . S
C281 C279 1.403 . S
C281 C282 1.489 . S
C282 C281 1.489 . S
C282 C283 1.383 . S
C282 C287 1.382 . S
C283 H254 0.950 . S
C283 C282 1.383 . S
C283 C284 1.395 . S
C284 H255 0.950 . S
C284 C283 1.395 . S
C284 C285 1.288 . S
C285 C284 1.288 . S
C285 C286 1.392 . S
C286 H256 0.951 . S
C286 C285 1.392 . S
C286 C287 1.392 . S
C287 H257 0.949 . S
C287 C282 1.382 . S
C287 C286 1.392 . S
Zn288 O291 2.031 . S
Zn288 O293 2.049 . S
Zn288 O298 2.067 . S
Zn289 O290 1.962 . S
Zn289 O292 1.986 . S
Zn289 O294 1.996 . S
Zn289 O297 1.943 . S
O290 Zn289 1.962 . S
O290 C295 1.254 . S
O291 Zn288 2.031 . S
O291 C295 1.269 . S
O292 Zn289 1.986 . S
O292 C299 1.262 . S
O293 Zn288 2.049 . S
O293 C301 1.260 . S
O294 Zn289 1.996 . S
O294 C301 1.257 . S
C295 O290 1.254 . S
C295 O291 1.269 . S
C296 O297 1.249 . S
C296 O298 1.270 . S
O297 Zn289 1.943 . S
O297 C296 1.249 . S
O298 Zn288 2.067 . S
O298 C296 1.270 . S
C299 O292 1.262 . S
C299 O300 1.232 . S
O300 C299 1.232 . S
C301 O293 1.260 . S
C301 O294 1.257 . S
Zn302 O305 2.031 . S
Zn302 O307 2.049 . S
Zn302 O312 2.067 . S
Zn303 O304 1.962 . S
Zn303 O306 1.986 . S
Zn303 O308 1.996 . S
Zn303 O311 1.943 . S
O304 Zn303 1.962 . S
O304 C309 1.254 . S
O305 Zn302 2.031 . S
O305 C309 1.269 . S
O306 Zn303 1.986 . S
O306 C313 1.262 . S
O307 Zn302 2.049 . S
O307 C315 1.260 . S
O308 Zn303 1.996 . S
O308 C315 1.257 . S
C309 O304 1.254 . S
C309 O305 1.269 . S
C310 O311 1.249 . S
C310 O312 1.270 . S
O311 Zn303 1.943 . S
O311 C310 1.249 . S
O312 Zn302 2.067 . S
O312 C310 1.270 . S
C313 O306 1.262 . S
C313 O314 1.232 . S
O314 C313 1.232 . S
C315 O307 1.260 . S
C315 O308 1.257 . S
Zn316 O319 2.031 . S
Zn316 O321 2.049 . S
Zn316 O326 2.067 . S
Zn317 O318 1.962 . S
Zn317 O320 1.986 . S
Zn317 O322 1.996 . S
Zn317 O325 1.943 . S
O318 Zn317 1.962 . S
O318 C323 1.254 . S
O319 Zn316 2.031 . S
O319 C323 1.269 . S
O320 Zn317 1.986 . S
O320 C327 1.262 . S
O321 Zn316 2.049 . S
O321 C329 1.260 . S
O322 Zn317 1.996 . S
O322 C329 1.257 . S
C323 O318 1.254 . S
C323 O319 1.269 . S
C324 O325 1.249 . S
C324 O326 1.270 . S
O325 Zn317 1.943 . S
O325 C324 1.249 . S
O326 Zn316 2.067 . S
O326 C324 1.270 . S
C327 O320 1.262 . S
C327 O328 1.232 . S
O328 C327 1.232 . S
C329 O321 1.260 . S
C329 O322 1.257 . S
Zn330 O333 2.031 . S
Zn330 O335 2.049 . S
Zn330 O340 2.067 . S
Zn331 O332 1.962 . S
Zn331 O334 1.986 . S
Zn331 O336 1.996 . S
Zn331 O339 1.943 . S
O332 Zn331 1.962 . S
O332 C337 1.254 . S
O333 Zn330 2.031 . S
O333 C337 1.269 . S
O334 Zn331 1.986 . S
O334 C341 1.262 . S
O335 Zn330 2.049 . S
O335 C343 1.260 . S
O336 Zn331 1.996 . S
O336 C343 1.257 . S
C337 O332 1.254 . S
C337 O333 1.269 . S
C338 O339 1.249 . S
C338 O340 1.270 . S
O339 Zn331 1.943 . S
O339 C338 1.249 . S
O340 Zn330 2.067 . S
O340 C338 1.270 . S
C341 O334 1.262 . S
C341 O342 1.232 . S
O342 C341 1.232 . S
C343 O335 1.260 . S
C343 O336 1.257 . S
Zn344 O347 2.031 . S
Zn344 O349 2.049 . S
Zn344 O354 2.067 . S
Zn345 O346 1.962 . S
Zn345 O348 1.986 . S
Zn345 O350 1.996 . S
Zn345 O353 1.943 . S
O346 Zn345 1.962 . S
O346 C351 1.254 . S
O347 Zn344 2.031 . S
O347 C351 1.269 . S
O348 Zn345 1.986 . S
O348 C355 1.262 . S
O349 Zn344 2.049 . S
O349 C357 1.260 . S
O350 Zn345 1.996 . S
O350 C357 1.257 . S
C351 O346 1.254 . S
C351 O347 1.269 . S
C352 O353 1.249 . S
C352 O354 1.270 . S
O353 Zn345 1.943 . S
O353 C352 1.249 . S
O354 Zn344 2.067 . S
O354 C352 1.270 . S
C355 O348 1.262 . S
C355 O356 1.232 . S
O356 C355 1.232 . S
C357 O349 1.260 . S
C357 O350 1.257 . S
Zn358 O361 2.031 . S
Zn358 O363 2.049 . S
Zn358 O368 2.067 . S
Zn359 O360 1.962 . S
Zn359 O362 1.986 . S
Zn359 O364 1.996 . S
Zn359 O367 1.943 . S
O360 Zn359 1.962 . S
O360 C365 1.254 . S
O361 Zn358 2.031 . S
O361 C365 1.269 . S
O362 Zn359 1.986 . S
O362 C369 1.262 . S
O363 Zn358 2.049 . S
O363 C371 1.260 . S
O364 Zn359 1.996 . S
O364 C371 1.257 . S
C365 O360 1.254 . S
C365 O361 1.269 . S
C366 O367 1.249 . S
C366 O368 1.270 . S
O367 Zn359 1.943 . S
O367 C366 1.249 . S
O368 Zn358 2.067 . S
O368 C366 1.270 . S
C369 O362 1.262 . S
C369 O370 1.232 . S
O370 C369 1.232 . S
C371 O363 1.260 . S
C371 O364 1.257 . S
C372 C373 1.387 . S
C372 H376 0.950 . S
C372 C381 1.390 . S
C373 C372 1.387 . S
C373 C375 1.387 . S
H374 C381 0.950 . S
C375 C373 1.387 . S
C375 C377 1.390 . S
C375 H379 0.950 . S
H376 C372 0.950 . S
C377 C375 1.390 . S
C377 C378 1.387 . S
C377 H380 0.950 . S
C378 C377 1.387 . S
C378 C381 1.387 . S
H379 C375 0.950 . S
H380 C377 0.950 . S
C381 C372 1.390 . S
C381 H374 0.950 . S
C381 C378 1.387 . S
C382 C383 1.387 . S
C382 H386 0.950 . S
C382 C391 1.390 . S
C383 C382 1.387 . S
C383 C385 1.387 . S
H384 C391 0.950 . S
C385 C383 1.387 . S
C385 C387 1.390 . S
C385 H389 0.950 . S
H386 C382 0.950 . S
C387 C385 1.390 . S
C387 C388 1.387 . S
C387 H390 0.950 . S
C388 C387 1.387 . S
C388 C391 1.387 . S
H389 C385 0.950 . S
H390 C387 0.950 . S
C391 C382 1.390 . S
C391 H384 0.950 . S
C391 C388 1.387 . S
C392 C393 1.387 . S
C392 H396 0.950 . S
C392 C401 1.390 . S
C393 C392 1.387 . S
C393 C395 1.387 . S
H394 C401 0.950 . S
C395 C393 1.387 . S
C395 C397 1.390 . S
C395 H399 0.950 . S
H396 C392 0.950 . S
C397 C395 1.390 . S
C397 C398 1.387 . S
C397 H400 0.950 . S
C398 C397 1.387 . S
C398 C401 1.387 . S
H399 C395 0.950 . S
H400 C397 0.950 . S
C401 C392 1.390 . S
C401 H394 0.950 . S
C401 C398 1.387 . S
C402 C403 1.387 . S
C402 H406 0.950 . S
C402 C411 1.390 . S
C403 C402 1.387 . S
C403 C405 1.387 . S
H404 C411 0.950 . S
C405 C403 1.387 . S
C405 C407 1.390 . S
C405 H409 0.950 . S
H406 C402 0.950 . S
C407 C405 1.390 . S
C407 C408 1.387 . S
C407 H410 0.950 . S
C408 C407 1.387 . S
C408 C411 1.387 . S
H409 C405 0.950 . S
H410 C407 0.950 . S
C411 C402 1.390 . S
C411 H404 0.950 . S
C411 C408 1.387 . S
C412 C413 1.387 . S
C412 H416 0.950 . S
C412 C421 1.390 . S
C413 C412 1.387 . S
C413 C415 1.387 . S
H414 C421 0.950 . S
C415 C413 1.387 . S
C415 C417 1.390 . S
C415 H419 0.950 . S
H416 C412 0.950 . S
C417 C415 1.390 . S
C417 C418 1.387 . S
C417 H420 0.950 . S
C418 C417 1.387 . S
C418 C421 1.387 . S
H419 C415 0.950 . S
H420 C417 0.950 . S
C421 C412 1.390 . S
C421 H414 0.950 . S
C421 C418 1.387 . S
C422 C423 1.387 . S
C422 H426 0.950 . S
C422 C431 1.390 . S
C423 C422 1.387 . S
C423 C425 1.387 . S
H424 C431 0.950 . S
C425 C423 1.387 . S
C425 C427 1.390 . S
C425 H429 0.950 . S
H426 C422 0.950 . S
C427 C425 1.390 . S
C427 C428 1.387 . S
C427 H430 0.950 . S
C428 C427 1.387 . S
C428 C431 1.387 . S
H429 C425 0.950 . S
H430 C427 0.950 . S
C431 C422 1.390 . S
C431 H424 0.950 . S
C431 C428 1.387 . S
C432 C433 1.387 . S
C432 H436 0.950 . S
C432 C441 1.390 . S
C433 C432 1.387 . S
C433 C435 1.387 . S
H434 C441 0.950 . S
C435 C433 1.387 . S
C435 C437 1.390 . S
C435 H439 0.950 . S
H436 C432 0.950 . S
C437 C435 1.390 . S
C437 C438 1.387 . S
C437 H440 0.950 . S
C438 C437 1.387 . S
C438 C441 1.387 . S
H439 C435 0.950 . S
H440 C437 0.950 . S
C441 C432 1.390 . S
C441 H434 0.950 . S
C441 C438 1.387 . S
C442 C443 1.387 . S
C442 H446 0.950 . S
C442 C451 1.390 . S
C443 C442 1.387 . S
C443 C445 1.387 . S
H444 C451 0.950 . S
C445 C443 1.387 . S
C445 C447 1.390 . S
C445 H449 0.950 . S
H446 C442 0.950 . S
C447 C445 1.390 . S
C447 C448 1.387 . S
C447 H450 0.950 . S
C448 C447 1.387 . S
C448 C451 1.387 . S
H449 C445 0.950 . S
H450 C447 0.950 . S
C451 C442 1.390 . S
C451 H444 0.950 . S
C451 C448 1.387 . S
C452 C453 1.387 . S
C452 H456 0.950 . S
C452 C461 1.390 . S
C453 C452 1.387 . S
C453 C455 1.387 . S
H454 C461 0.950 . S
C455 C453 1.387 . S
C455 C457 1.390 . S
C455 H459 0.950 . S
H456 C452 0.950 . S
C457 C455 1.390 . S
C457 C458 1.387 . S
C457 H460 0.950 . S
C458 C457 1.387 . S
C458 C461 1.387 . S
H459 C455 0.950 . S
H460 C457 0.950 . S
C461 C452 1.390 . S
C461 H454 0.950 . S
C461 C458 1.387 . S
C462 C463 1.387 . S
C462 H466 0.950 1_554 S
C462 C471 1.390 . S
C463 C462 1.387 . S
C463 C465 1.387 . S
H464 C471 0.950 . S
C465 C463 1.387 . S
C465 C467 1.390 . S
C465 H469 0.950 . S
H466 C462 0.950 1_556 S
C467 C465 1.390 . S
C467 C468 1.387 . S
C467 H470 0.950 . S
C468 C467 1.387 . S
C468 C471 1.387 . S
H469 C465 0.950 . S
H470 C467 0.950 . S
C471 C462 1.390 . S
C471 H464 0.950 . S
C471 C468 1.387 . S
C472 C473 1.387 . S
C472 H476 0.950 . S
C472 C481 1.390 . S
C473 C472 1.387 . S
C473 C475 1.387 . S
H474 C481 0.950 . S
C475 C473 1.387 . S
C475 C477 1.390 . S
C475 H479 0.950 . S
H476 C472 0.950 . S
C477 C475 1.390 . S
C477 C478 1.387 . S
C477 H480 0.950 . S
C478 C477 1.387 . S
C478 C481 1.387 . S
H479 C475 0.950 . S
H480 C477 0.950 . S
C481 C472 1.390 . S
C481 H474 0.950 . S
C481 C478 1.387 . S
C482 C483 1.387 . S
C482 H486 0.950 . S
C482 C491 1.390 . S
C483 C482 1.387 . S
C483 C485 1.387 . S
H484 C491 0.950 . S
C485 C483 1.387 . S
C485 C487 1.390 . S
C485 H489 0.950 . S
H486 C482 0.950 . S
C487 C485 1.390 . S
C487 C488 1.387 . S
C487 H490 0.950 . S
C488 C487 1.387 . S
C488 C491 1.387 . S
H489 C485 0.950 . S
H490 C487 0.950 . S
C491 C482 1.390 . S
C491 H484 0.950 . S
C491 C488 1.387 . S
C492 C493 1.387 . S
C492 H496 0.950 . S
C492 C501 1.390 . S
C493 C492 1.387 . S
C493 C495 1.387 . S
H494 C501 0.950 . S
C495 C493 1.387 . S
C495 C497 1.390 . S
C495 H499 0.950 . S
H496 C492 0.950 . S
C497 C495 1.390 . S
C497 C498 1.387 . S
C497 H500 0.950 . S
C498 C497 1.387 . S
C498 C501 1.387 . S
H499 C495 0.950 . S
H500 C497 0.950 . S
C501 C492 1.390 . S
C501 H494 0.950 . S
C501 C498 1.387 . S
C502 C503 1.387 . S
C502 H506 0.950 . S
C502 C511 1.390 . S
C503 C502 1.387 . S
C503 C505 1.387 . S
H504 C511 0.950 . S
C505 C503 1.387 . S
C505 C507 1.390 . S
C505 H509 0.950 . S
H506 C502 0.950 . S
C507 C505 1.390 . S
C507 C508 1.387 . S
C507 H510 0.950 . S
C508 C507 1.387 . S
C508 C511 1.387 . S
H509 C505 0.950 . S
H510 C507 0.950 . S
C511 C502 1.390 . S
C511 H504 0.950 . S
C511 C508 1.387 . S
C512 C513 1.387 . S
C512 H516 0.950 . S
C512 C521 1.390 . S
C513 C512 1.387 . S
C513 C515 1.387 . S
H514 C521 0.950 . S
C515 C513 1.387 . S
C515 C517 1.390 . S
C515 H519 0.950 . S
H516 C512 0.950 . S
C517 C515 1.390 . S
C517 C518 1.387 . S
C517 H520 0.950 . S
C518 C517 1.387 . S
C518 C521 1.387 . S
H519 C515 0.950 . S
H520 C517 0.950 . S
C521 C512 1.390 . S
C521 H514 0.950 . S
C521 C518 1.387 . S
C522 C523 1.387 . S
C522 H526 0.950 . S
C522 C531 1.390 . S
C523 C522 1.387 . S
C523 C525 1.387 . S
H524 C531 0.950 1_554 S
C525 C523 1.387 . S
C525 C527 1.390 . S
C525 H529 0.950 . S
H526 C522 0.950 . S
C527 C525 1.390 . S
C527 C528 1.398 . S
C527 H530 0.950 . S
C528 C527 1.398 . S
C528 C531 1.392 . S
H529 C525 0.950 . S
H530 C527 0.950 . S
C531 C522 1.390 . S
C531 H524 0.950 1_556 S
C531 C528 1.392 . S
C532 C533 1.387 . S
C532 H536 0.950 . S
C532 C541 1.390 . S
C533 C532 1.387 . S
C533 C535 1.387 . S
H534 C541 0.950 . S
C535 C533 1.387 . S
C535 C537 1.390 . S
C535 H539 0.950 . S
H536 C532 0.950 . S
C537 C535 1.390 . S
C537 C538 1.387 . S
C537 H540 0.950 . S
C538 C537 1.387 . S
C538 C541 1.387 . S
H539 C535 0.950 . S
H540 C537 0.950 . S
C541 C532 1.390 . S
C541 H534 0.950 . S
C541 C538 1.387 . S
C542 C543 1.387 . S
C542 H546 0.950 . S
C542 C551 1.390 . S
C543 C542 1.387 . S
C543 C545 1.387 . S
H544 C551 0.950 . S
C545 C543 1.387 . S
C545 C547 1.390 . S
C545 H549 0.950 . S
H546 C542 0.950 . S
C547 C545 1.390 . S
C547 C548 1.387 . S
C547 H550 0.950 . S
C548 C547 1.387 . S
C548 C551 1.387 . S
H549 C545 0.950 . S
H550 C547 0.950 . S
C551 C542 1.390 . S
C551 H544 0.950 . S
C551 C548 1.387 . S
C552 C553 1.387 . S
C552 H556 0.950 . S
C552 C561 1.390 . S
C553 C552 1.387 . S
C553 C555 1.387 . S
H554 C561 0.950 . S
C555 C553 1.387 . S
C555 C557 1.390 . S
C555 H559 0.950 . S
H556 C552 0.950 . S
C557 C555 1.390 . S
C557 C558 1.387 . S
C557 H560 0.950 . S
C558 C557 1.387 . S
C558 C561 1.387 . S
H559 C555 0.950 . S
H560 C557 0.950 . S
C561 C552 1.390 . S
C561 H554 0.950 . S
C561 C558 1.387 . S
C562 C563 1.387 . S
C562 H566 0.950 . S
C562 C571 1.390 . S
C563 C562 1.387 . S
C563 C565 1.387 . S
H564 C571 0.950 . S
C565 C563 1.387 . S
C565 C567 1.390 . S
C565 H569 0.950 . S
H566 C562 0.950 . S
C567 C565 1.390 . S
C567 C568 1.387 . S
C567 H570 0.950 . S
C568 C567 1.387 . S
C568 C571 1.387 . S
H569 C565 0.950 . S
H570 C567 0.950 . S
C571 C562 1.390 . S
C571 H564 0.950 . S
C571 C568 1.387 . S
C572 C573 1.387 . S
C572 H576 0.950 . S
C572 C581 1.390 . S
C573 C572 1.387 . S
C573 C575 1.387 . S
H574 C581 0.950 . S
C575 C573 1.387 . S
C575 C577 1.390 . S
C575 H579 0.950 . S
H576 C572 0.950 . S
C577 C575 1.390 . S
C577 C578 1.387 . S
C577 H580 0.950 . S
C578 C577 1.387 . S
C578 C581 1.387 . S
H579 C575 0.950 . S
H580 C577 0.950 . S
C581 C572 1.390 . S
C581 H574 0.950 . S
C581 C578 1.387 . S
C582 C583 1.387 . S
C582 H586 0.950 . S
C582 C591 1.390 . S
C583 C582 1.387 . S
C583 C585 1.387 . S
H584 C591 0.950 . S
C585 C583 1.387 . S
C585 C587 1.390 . S
C585 H589 0.950 . S
H586 C582 0.950 . S
C587 C585 1.390 . S
C587 C588 1.387 . S
C587 H590 0.950 . S
C588 C587 1.387 . S
C588 C591 1.387 . S
H589 C585 0.950 . S
H590 C587 0.950 . S
C591 C582 1.390 . S
C591 H584 0.950 . S
C591 C588 1.387 . S
C592 C593 1.387 . S
C592 H596 0.950 . S
C592 C601 1.390 . S
C593 C592 1.387 . S
C593 C595 1.387 . S
H594 C601 0.950 . S
C595 C593 1.387 . S
C595 C597 1.390 1_554 S
C595 H599 0.950 . S
H596 C592 0.950 . S
C597 C595 1.390 1_556 S
C597 C598 1.387 . S
C597 H600 0.950 . S
C598 C597 1.387 . S
C598 C601 1.387 1_556 S
H599 C595 0.950 . S
H600 C597 0.950 . S
C601 C592 1.390 . S
C601 H594 0.950 . S
C601 C598 1.387 1_554 S
C602 C603 1.387 . S
C602 H606 0.950 . S
C602 C611 1.390 . S
C603 C602 1.387 . S
C603 C605 1.387 . S
H604 C611 0.950 . S
C605 C603 1.387 . S
C605 C607 1.390 . S
C605 H609 0.950 . S
H606 C602 0.950 . S
C607 C605 1.390 . S
C607 C608 1.387 . S
C607 H610 0.950 . S
C608 C607 1.387 . S
C608 C611 1.387 . S
H609 C605 0.950 . S
H610 C607 0.950 . S
C611 C602 1.390 . S
C611 H604 0.950 . S
C611 C608 1.387 . S
C378 C365 1.599 . S
C373 C45 1.593 . S
C383 C84 1.521 . S
C388 C299 1.498 . S
C393 C126 1.438 . S
C398 C313 1.456 . S
C403 C189 1.559 . S
C408 C327 1.517 . S
C418 C341 1.568 . S
C413 C228 1.600 . S
C423 C270 1.526 . S
C428 C351 1.597 . S
C433 C69 1.583 . S
C438 C309 1.623 . S
C443 C141 1.690 . S
C448 C323 1.698 . S
C453 C174 1.578 . S
C458 C337 1.655 . S
C468 C355 1.554 . S
C463 C213 1.558 . S
C478 C369 1.544 . S
C473 C285 1.583 . S
C488 C295 1.583 . S
C483 C30 1.533 . S
C493 C36 1.522 . S
C498 C310 1.450 . S
C503 C93 1.582 . S
C508 C324 1.506 . S
C518 C338 1.511 . S
C513 C117 1.574 . S
C523 C180 1.495 . S
C528 C357 1.428 1_556 S
C538 C371 1.403 . S
C533 C237 1.471 . S
C548 C296 1.424 . S
C543 C261 1.488 . S
C558 C366 1.427 . S
C553 C78 1.482 . S
C563 C132 1.414 . S
C568 C301 1.371 . S
C578 C315 1.382 . S
C573 C165 1.411 . S
C583 C222 1.464 . S
C588 C329 1.419 . S
C593 C276 1.498 . S
C598 C343 1.449 . S
C603 C21 1.517 . S
C608 C352 1.453 . S
