# Generated by pormake.
# Topology zzz, (3,6)-cn, num edge types: 1
# Building blocks:
#     Node 0, Type 0, BuildingBlock: PAMTOO_clean_linker_0, # of connection points: 3
#     Node 1, Type 0, BuildingBlock: PAMTOO_clean_linker_0, # of connection points: 3
#     Node 2, Type 0, BuildingBlock: PAMTOO_clean_linker_0, # of connection points: 3
#     Node 3, Type 0, BuildingBlock: PAMTOO_clean_linker_0, # of connection points: 3
#     Node 4, Type 0, BuildingBlock: PAMTOO_clean_linker_0, # of connection points: 3
#     Node 5, Type 0, BuildingBlock: PAMTOO_clean_linker_0, # of connection points: 3
#     Node 6, Type 0, BuildingBlock: PAMTOO_clean_linker_0, # of connection points: 3
#     Node 7, Type 0, BuildingBlock: PAMTOO_clean_linker_0, # of connection points: 3
#     Node 8, Type 1, BuildingBlock: CUKXOW_clean_sbu_0, # of connection points: 6
#     Node 9, Type 1, BuildingBlock: CUKXOW_clean_sbu_0, # of connection points: 6
#     Node 10, Type 1, BuildingBlock: CUKXOW_clean_sbu_0, # of connection points: 6
#     Node 11, Type 1, BuildingBlock: CUKXOW_clean_sbu_0, # of connection points: 6
#     Edge 12, Type (0, 1), BuildingBlock: UVAHIK_clean_linker_0, # of connection points: 2
#     Edge 13, Type (0, 1), BuildingBlock: UVAHIK_clean_linker_0, # of connection points: 2
#     Edge 14, Type (0, 1), BuildingBlock: UVAHIK_clean_linker_0, # of connection points: 2
#     Edge 15, Type (0, 1), BuildingBlock: UVAHIK_clean_linker_0, # of connection points: 2
#     Edge 16, Type (0, 1), BuildingBlock: UVAHIK_clean_linker_0, # of connection points: 2
#     Edge 17, Type (0, 1), BuildingBlock: UVAHIK_clean_linker_0, # of connection points: 2
#     Edge 18, Type (0, 1), BuildingBlock: UVAHIK_clean_linker_0, # of connection points: 2
#     Edge 19, Type (0, 1), BuildingBlock: UVAHIK_clean_linker_0, # of connection points: 2
#     Edge 20, Type (0, 1), BuildingBlock: UVAHIK_clean_linker_0, # of connection points: 2
#     Edge 21, Type (0, 1), BuildingBlock: UVAHIK_clean_linker_0, # of connection points: 2
#     Edge 22, Type (0, 1), BuildingBlock: UVAHIK_clean_linker_0, # of connection points: 2
#     Edge 23, Type (0, 1), BuildingBlock: UVAHIK_clean_linker_0, # of connection points: 2
#     Edge 24, Type (0, 1), BuildingBlock: UVAHIK_clean_linker_0, # of connection points: 2
#     Edge 25, Type (0, 1), BuildingBlock: UVAHIK_clean_linker_0, # of connection points: 2
#     Edge 26, Type (0, 1), BuildingBlock: UVAHIK_clean_linker_0, # of connection points: 2
#     Edge 27, Type (0, 1), BuildingBlock: UVAHIK_clean_linker_0, # of connection points: 2
#     Edge 28, Type (0, 1), BuildingBlock: UVAHIK_clean_linker_0, # of connection points: 2
#     Edge 29, Type (0, 1), BuildingBlock: UVAHIK_clean_linker_0, # of connection points: 2
#     Edge 30, Type (0, 1), BuildingBlock: UVAHIK_clean_linker_0, # of connection points: 2
#     Edge 31, Type (0, 1), BuildingBlock: UVAHIK_clean_linker_0, # of connection points: 2
#     Edge 32, Type (0, 1), BuildingBlock: UVAHIK_clean_linker_0, # of connection points: 2
#     Edge 33, Type (0, 1), BuildingBlock: UVAHIK_clean_linker_0, # of connection points: 2
#     Edge 34, Type (0, 1), BuildingBlock: UVAHIK_clean_linker_0, # of connection points: 2
#     Edge 35, Type (0, 1), BuildingBlock: UVAHIK_clean_linker_0, # of connection points: 2
# Relax obj value: 0.069
# Max RMSD: 0.117
# Mean RMSD: 0.082
data_MOF--net-zzz--node1-CUKXOW_clean_sbu_0--node2-PAMTOO_clean_linker_0--edge1-UVAHIK_clean_linker_0
_symmetry_space_group_name_H-M    P1
_symmetry_Int_Tables_number       1
_symmetry_cell_setting            triclinic
loop_
_symmetry_equiv_pos_as_xyz
'x, y, z'
_cell_length_a     65.581826
_cell_length_b     67.506152
_cell_length_c     20.064643
_cell_angle_alpha  92.776913
_cell_angle_beta   86.974112
_cell_angle_gamma 93.746025
loop_
_atom_site_label
_atom_site_type_symbol
_atom_site_fract_x
_atom_site_fract_y
_atom_site_fract_z
_atom_type_partial_charge
H0 H 0.81911 0.53939 0.09266 0.0
H1 H 0.76264 0.54021 0.9938 0.0
H2 H 0.76216 0.52313 0.19801 0.0
H3 H 0.72937 0.50086 0.12683 0.0
C4 C 0.73087 0.50956 0.08095 0.0
O5 O 0.73954 0.52825 0.09697 0.0
H6 H 0.74073 0.50153 0.04313 0.0
C7 C 0.80251 0.53766 0.09426 0.0
C8 C 0.79194 0.53089 0.15202 0.0
C9 C 0.79214 0.5412 0.03727 0.0
C10 C 0.7708 0.53814 0.03826 0.0
C11 C 0.76 0.53194 0.09675 0.0
C12 C 0.77055 0.52853 0.15385 0.0
H13 H 0.94791 0.81876 0.06881 0.0
H14 H 0.96397 0.76833 0.94188 0.0
H15 H 0.95711 0.76316 0.15454 0.0
H16 H 0.99142 0.7409 0.09178 0.0
C17 C 0.98646 0.74015 0.03949 0.0
O18 O 0.96621 0.74464 0.04007 0.0
H19 H 0.99632 0.75104 0.01036 0.0
C20 C 0.95059 0.80309 0.06221 0.0
C21 C 0.95109 0.79182 0.11895 0.0
C22 C 0.95534 0.79494 0.99797 0.0
C23 C 0.96009 0.77494 0.99081 0.0
C24 C 0.96063 0.76354 0.04724 0.0
C25 C 0.9562 0.77197 0.11118 0.0
H26 H 0.67944 0.9534 0.12974 0.0
H27 H 0.7292 0.95682 0.981 0.0
H28 H 0.74096 0.96639 0.18912 0.0
H29 H 0.76391 0.99376 0.10135 0.0
C30 C 0.7651 0.98433 0.0544 0.0
O31 O 0.75744 0.96527 0.06702 0.0
H32 H 0.756 0.99077 0.01643 0.0
C33 C 0.6957 0.95471 0.11649 0.0
C34 C 0.70938 0.95909 0.16723 0.0
C35 C 0.70251 0.95409 0.04894 0.0
C36 C 0.72357 0.95705 0.03276 0.0
C37 C 0.7374 0.96127 0.08333 0.0
C38 C 0.7303 0.96242 0.15049 0.0
H39 H 0.5536 0.68887 0.11788 0.0
H40 H 0.54806 0.74215 0.01341 0.0
H41 H 0.56795 0.746 0.21497 0.0
H42 H 0.54705 0.78388 0.18676 0.0
C43 C 0.5439 0.77782 0.1356 0.0
O44 O 0.55973 0.76639 0.11238 0.0
H45 H 0.52914 0.76865 0.13912 0.0
C46 C 0.55537 0.70495 0.11664 0.0
C47 C 0.56176 0.7162 0.17318 0.0
C48 C 0.55038 0.71415 0.05923 0.0
C49 C 0.55203 0.7349 0.05754 0.0
C50 C 0.55843 0.74636 0.11374 0.0
C51 C 0.56324 0.73703 0.17156 0.0
H52 H 0.1941 0.49577 0.27393 0.0
H53 H 0.2522 0.50646 0.36335 0.0
H54 H 0.24933 0.48083 0.16303 0.0
H55 H 0.28599 0.46665 0.22112 0.0
C56 C 0.28216 0.47416 0.27024 0.0
O57 O 0.27352 0.4918 0.25976 0.0
H58 H 0.27115 0.46395 0.29836 0.0
C59 C 0.21061 0.495 0.27088 0.0
C60 C 0.2203 0.48721 0.21249 0.0
C61 C 0.22198 0.50224 0.3249 0.0
C62 C 0.24328 0.50118 0.32138 0.0
C63 C 0.25308 0.49335 0.26294 0.0
C64 C 0.24164 0.48679 0.20803 0.0
H65 H 0.02858 0.18964 0.29054 0.0
H66 H 0.03092 0.24071 0.42747 0.0
H67 H 0.04438 0.24774 0.21728 0.0
H68 H 0.06708 0.27889 0.30085 0.0
C69 C 0.05764 0.27695 0.34803 0.0
O70 O 0.03955 0.26635 0.33443 0.0
H71 H 0.06651 0.26885 0.38265 0.0
C72 C 0.0312 0.20556 0.29992 0.0
C73 C 0.03689 0.21766 0.24655 0.0
C74 C 0.02917 0.21366 0.36531 0.0
C75 C 0.03276 0.23419 0.37725 0.0
C76 C 0.03805 0.24646 0.3237 0.0
C77 C 0.04038 0.23818 0.25845 0.0
H78 H 0.33163 0.0441 0.22415 0.0
H79 H 0.28182 0.04858 0.37172 0.0
H80 H 0.26961 0.03515 0.16523 0.0
H81 H 0.23867 0.0598 0.23205 0.0
C82 C 0.24093 0.05648 0.28483 0.0
O83 O 0.25317 0.04069 0.28639 0.0
H84 H 0.24838 0.07 0.30959 0.0
C85 C 0.31536 0.04413 0.23718 0.0
C86 C 0.3015 0.03968 0.18718 0.0
C87 C 0.30855 0.04742 0.30396 0.0
C88 C 0.28742 0.04643 0.32027 0.0
C89 C 0.27341 0.04232 0.27006 0.0
C90 C 0.28046 0.03887 0.20349 0.0
H91 H 0.45591 0.3216 0.25607 0.0
H92 H 0.46454 0.26871 0.35902 0.0
H93 H 0.44609 0.26413 0.15586 0.0
H94 H 0.42896 0.22791 0.23326 0.0
C95 C 0.43784 0.23234 0.27789 0.0
O96 O 0.45491 0.24414 0.25864 0.0
H97 H 0.4276 0.2406 0.3139 0.0
C98 C 0.45516 0.3055 0.25666 0.0
C99 C 0.44993 0.29406 0.19915 0.0
C100 C 0.4605 0.29652 0.31407 0.0
C101 C 0.46027 0.27579 0.31491 0.0
C102 C 0.45482 0.26413 0.25801 0.0
C103 C 0.4499 0.27325 0.19995 0.0
Tb104 Tb 0.0018 0.98693 0.63459 0.0
C105 C 0.04665 0.00626 0.62625 0.0
Tb106 Tb 0.0143 0.01799 0.74551 0.0
O107 O 0.00324 0.01018 0.56172 0.0
O108 O 0.99567 0.01651 0.66278 0.0
O109 O 0.03391 0.99174 0.60283 0.0
C110 C 0.02615 0.05258 0.80589 0.0
O111 O 0.04187 0.01814 0.67889 0.0
C112 C 0.01627 0.98071 0.7732 0.0
C113 C 0.96996 0.9987 0.75404 0.0
O114 O 0.02097 0.05006 0.74458 0.0
O115 O 0.02467 0.03554 0.83383 0.0
O116 O 0.01286 0.99472 0.8185 0.0
O117 O 0.02014 0.98839 0.71783 0.0
O118 O 0.9816 0.01501 0.76873 0.0
O119 O 0.97599 0.98481 0.70917 0.0
C120 C 0.98925 0.95343 0.56912 0.0
O121 O 0.98117 0.97041 0.56652 0.0
O122 O 0.00459 0.9554 0.60763 0.0
C123 C 0.99956 0.02408 0.60716 0.0
Tb124 Tb 0.50702 0.02605 0.65048 0.0
C125 C 0.54209 0.99871 0.6018 0.0
Tb126 Tb 0.50635 0.98339 0.70464 0.0
O127 O 0.53506 0.03528 0.70087 0.0
O128 O 0.51514 0.01277 0.7378 0.0
O129 O 0.53176 0.01416 0.5876 0.0
C130 C 0.5142 0.95057 0.76536 0.0
O131 O 0.53586 0.98616 0.64887 0.0
C132 C 0.48073 0.98793 0.61116 0.0
C133 C 0.47113 0.01071 0.75255 0.0
O134 O 0.51294 0.95188 0.70134 0.0
O135 O 0.51091 0.96766 0.79492 0.0
O136 O 0.47838 0.97402 0.65398 0.0
O137 O 0.49816 0.99666 0.61757 0.0
O138 O 0.48159 0.99542 0.76737 0.0
O139 O 0.47741 0.02317 0.70531 0.0
C140 C 0.49872 0.05905 0.59172 0.0
O141 O 0.50089 0.05765 0.65527 0.0
O142 O 0.50143 0.04194 0.56137 0.0
C143 C 0.5326 0.02145 0.74399 0.0
Tb144 Tb 0.51316 0.52201 0.64077 0.0
C145 C 0.4691 0.50289 0.61912 0.0
Tb146 Tb 0.49586 0.48925 0.7357 0.0
O147 O 0.51392 0.50014 0.55653 0.0
O148 O 0.51736 0.49178 0.65402 0.0
O149 O 0.48195 0.51861 0.60859 0.0
C150 C 0.4818 0.4547 0.78549 0.0
O151 O 0.47252 0.48904 0.66151 0.0
C152 C 0.49353 0.52601 0.78144 0.0
C153 C 0.53999 0.50806 0.757 0.0
O154 O 0.47488 0.4719 0.80292 0.0
O155 O 0.49662 0.45707 0.74078 0.0
O156 O 0.49518 0.51125 0.81976 0.0
O157 O 0.49164 0.51942 0.72225 0.0
O158 O 0.527 0.49245 0.76734 0.0
O159 O 0.53674 0.522 0.71467 0.0
C160 C 0.52736 0.55647 0.59057 0.0
O161 O 0.53409 0.53921 0.57308 0.0
O162 O 0.51263 0.55424 0.6357 0.0
C163 C 0.51551 0.48532 0.59463 0.0
Tb164 Tb 0.99171 0.51004 0.6347 0.0
C165 C 0.00556 0.46608 0.64539 0.0
Tb166 Tb 0.02102 0.50141 0.74485 0.0
O167 O 0.01622 0.52826 0.58296 0.0
O168 O 0.02281 0.50499 0.6411 0.0
O169 O 0.99345 0.47797 0.61701 0.0
C170 C 0.05351 0.49266 0.80843 0.0
O171 O 0.01776 0.47218 0.69422 0.0
C172 C 0.98266 0.50513 0.78407 0.0
C173 C 0.00799 0.54485 0.73165 0.0
O174 O 0.03521 0.48426 0.81754 0.0
O175 O 0.05337 0.50616 0.76454 0.0
O176 O 0.99781 0.50939 0.82258 0.0
O177 O 0.98945 0.49767 0.72945 0.0
O178 O 0.02285 0.53378 0.74785 0.0
O179 O 0.99267 0.53775 0.69498 0.0
C180 C 0.95831 0.51227 0.56662 0.0
O181 O 0.95982 0.51703 0.62965 0.0
O182 O 0.97572 0.50641 0.54149 0.0
C183 C 0.03066 0.51928 0.60894 0.0
C184 C 0.21605 0.05839 0.38497 0.0
C185 C 0.22058 0.05115 0.31948 0.0
C186 C 0.19729 0.05301 0.41754 0.0
C187 C 0.15457 0.01476 0.41716 0.0
H188 H 0.12505 0.05539 0.51691 0.0
C189 C 0.07186 1.00045 0.52962 0.0
C190 C 0.06709 0.00972 0.59225 0.0
C191 C 0.09075 0.00485 0.496 0.0
C192 C 0.1332 0.0438 0.49004 0.0
H193 H 0.20956 0.03217 0.23734 0.0
H194 H 0.1766 0.02276 0.29416 0.0
H195 H 0.15766 0.06439 0.45907 0.0
H196 H 0.07875 0.03039 0.6696 0.0
H197 H 0.11164 0.03769 0.61183 0.0
H198 H 0.13017 0.99413 0.44862 0.0
C199 C 0.1875 0.03263 0.32027 0.0
C200 C 0.15188 0.04898 0.45678 0.0
C201 C 0.20624 0.03811 0.28759 0.0
C202 C 0.0818 0.02309 0.62117 0.0
C203 C 0.10066 0.0274 0.58781 0.0
C204 C 0.13589 0.00955 0.45074 0.0
C205 C 0.18279 0.0401 0.38552 0.0
C206 C 0.16281 0.03453 0.42015 0.0
C207 C 0.10528 0.01856 0.52441 0.0
C208 C 0.12502 0.024 0.48783 0.0
H209 H 0.22704 0.06819 0.41096 0.0
H210 H 0.19424 0.05875 0.46819 0.0
H211 H 0.16275 0.00325 0.38991 0.0
H212 H 0.06085 0.99015 0.50576 0.0
H213 H 0.09373 0.9979 0.44698 0.0
C214 C 0.4471 0.19655 0.2723 0.0
C215 C 0.44443 0.2143 0.31014 0.0
C216 C 0.45339 0.17986 0.30233 0.0
C217 C 0.47891 0.16456 0.45019 0.0
H218 H 0.45292 0.11278 0.4047 0.0
C219 C 0.49096 0.09487 0.59667 0.0
C220 C 0.49323 0.07696 0.55928 0.0
C221 C 0.48538 0.11173 0.56596 0.0
C222 C 0.4605 0.1271 0.4174 0.0
H223 H 0.44701 0.22895 0.40789 0.0
H224 H 0.45776 0.19972 0.46099 0.0
H225 H 0.44262 0.14201 0.35157 0.0
H226 H 0.49145 0.06254 0.46075 0.0
H227 H 0.48186 0.09201 0.40688 0.0
H228 H 0.49674 0.14963 0.51621 0.0
C229 C 0.455 0.19862 0.40815 0.0
C230 C 0.4546 0.14386 0.38691 0.0
C231 C 0.4487 0.21529 0.37805 0.0
C232 C 0.48984 0.07619 0.4907 0.0
C233 C 0.48421 0.09303 0.45999 0.0
C234 C 0.4848 0.14779 0.48072 0.0
C235 C 0.45733 0.18066 0.37073 0.0
C236 C 0.46372 0.16281 0.40293 0.0
C237 C 0.48187 0.111 0.49727 0.0
C238 C 0.47566 0.12885 0.4647 0.0
H239 H 0.44426 0.19559 0.2195 0.0
H240 H 0.4554 0.16639 0.27178 0.0
H241 H 0.48647 0.17889 0.46295 0.0
H242 H 0.49341 0.09582 0.64974 0.0
H243 H 0.48346 0.12526 0.59628 0.0
C244 C 0.31673 0.49209 0.28429 0.0
C245 C 0.30143 0.47819 0.30733 0.0
C246 C 0.33499 0.49529 0.31722 0.0
C247 C 0.36804 0.47092 0.42559 0.0
H248 H 0.39062 0.52431 0.46784 0.0
C249 C 0.43498 0.48557 0.59855 0.0
C250 C 0.45004 0.50058 0.58245 0.0
C251 C 0.41704 0.48317 0.56382 0.0
C252 C 0.38468 0.50931 0.45558 0.0
H253 H 0.29326 0.45645 0.38171 0.0
H254 H 0.32518 0.462 0.43931 0.0
H255 H 0.35889 0.51954 0.40901 0.0
H256 H 0.45811 0.5248 0.5168 0.0
H257 H 0.42692 0.52037 0.45532 0.0
H258 H 0.39382 0.46061 0.47131 0.0
C259 C 0.32305 0.47046 0.39597 0.0
C260 C 0.36649 0.50659 0.42205 0.0
C261 C 0.30476 0.46738 0.36335 0.0
C262 C 0.44676 0.51316 0.53075 0.0
C263 C 0.42883 0.51068 0.49569 0.0
C264 C 0.38627 0.47362 0.45866 0.0
C265 C 0.33837 0.48441 0.37316 0.0
C266 C 0.35791 0.48737 0.40723 0.0
C267 C 0.41378 0.49563 0.51177 0.0
C268 C 0.39473 0.49284 0.47459 0.0
H269 H 0.3146 0.50036 0.24053 0.0
H270 H 0.34664 0.50596 0.29811 0.0
H271 H 0.36196 0.45593 0.41377 0.0
H272 H 0.43692 0.47568 0.63834 0.0
H273 H 0.40562 0.47166 0.57836 0.0
C274 C 0.05502 0.30157 0.44652 0.0
C275 C 0.05264 0.29694 0.37834 0.0
C276 C 0.04884 0.31961 0.47532 0.0
C277 C 0.03518 0.36985 0.43287 0.0
H278 H 0.00998 0.37066 0.6122 0.0
C279 C 8e-05 0.43981 0.55434 0.0
C280 C 0.00687 0.44542 0.61822 0.0
C281 C 0.00376 0.42104 0.52538 0.0
C282 C 0.01704 0.37064 0.56215 0.0
H283 H 0.04177 0.30716 0.28689 0.0
H284 H 0.03056 0.33855 0.33715 0.0
H285 H 0.02089 0.33941 0.56031 0.0
H286 H 0.02188 0.43535 0.70319 0.0
H287 H 0.02807 0.4026 0.65286 0.0
H288 H 0.03117 0.40109 0.43479 0.0
C289 C 0.03767 0.32857 0.36823 0.0
C290 C 0.02341 0.35278 0.53251 0.0
C291 C 0.04401 0.31061 0.3394 0.0
C292 C 0.01653 0.43154 0.65376 0.0
C293 C 0.01999 0.41273 0.6251 0.0
C294 C 0.02865 0.38766 0.46231 0.0
C295 C 0.0399 0.33326 0.43667 0.0
C296 C 0.03273 0.35219 0.46771 0.0
C297 C 0.01406 0.40745 0.56008 0.0
C298 C 0.01967 0.38827 0.52743 0.0
H299 H 0.06149 0.29116 0.47765 0.0
H300 H 0.0511 0.32285 0.5279 0.0
H301 H 0.04257 0.37002 0.38333 0.0
H302 H 0.99263 0.45016 0.52559 0.0
H303 H 0.99883 0.41726 0.47541 0.0
C304 C 0.79243 0.97118 0.97385 0.0
C305 C 0.78697 0.98418 0.02766 0.0
C306 C 0.81249 0.9719 0.94623 0.0
C307 C 0.85815 0.00598 0.92704 0.0
H308 H 0.88652 0.95813 0.88209 0.0
C309 C 0.94321 0.00956 0.83932 0.0
C310 C 0.94934 0.99615 0.78748 0.0
C311 C 0.92362 0.00749 0.86999 0.0
C312 C 0.87873 0.97163 0.8936 0.0
H313 H 0.79794 0.00836 0.09395 0.0
H314 H 0.833 0.00965 0.04586 0.0
H315 H 0.85183 0.95556 0.93291 0.0
H316 H 0.9397 0.96987 0.72779 0.0
H317 H 0.90538 0.96651 0.78036 0.0
H318 H 0.88477 0.02209 0.88694 0.0
C319 C 0.82184 0.99884 0.02518 0.0
C320 C 0.85888 0.97014 0.92284 0.0
C321 C 0.80184 0.99802 0.05302 0.0
C322 C 0.93549 0.98047 0.76759 0.0
C323 C 0.91583 0.97846 0.79805 0.0
C324 C 0.87791 0.00747 0.89747 0.0
C325 C 0.82736 0.98587 0.97125 0.0
C326 C 0.84841 0.98732 0.9401 0.0
C327 C 0.90961 0.99203 0.84936 0.0
C328 C 0.8885 0.99033 0.88059 0.0
H329 H 0.78111 0.96064 0.95268 0.0
H330 H 0.81622 0.9619 0.90414 0.0
H331 H 0.85034 0.01947 0.93869 0.0
H332 H 0.95353 0.02171 0.85639 0.0
H333 H 0.9195 0.01799 0.91022 0.0
C334 C 0.52398 0.79733 0.05963 0.0
C335 C 0.54228 0.79482 0.09062 0.0
C336 C 0.5222 0.81367 0.02059 0.0
C337 C 0.5451 0.86441 0.99368 0.0
H338 H 0.51311 0.85972 0.83596 0.0
C339 C 0.51903 0.93308 0.86945 0.0
C340 C 0.51867 0.93261 0.79954 0.0
C341 C 0.52301 0.91607 0.90235 0.0
C342 C 0.5223 0.86128 0.87942 0.0
H343 H 0.57311 0.80713 0.10465 0.0
H344 H 0.57025 0.83553 0.0352 0.0
H345 H 0.51855 0.83014 0.89589 0.0
H346 H 0.52246 0.91419 0.7089 0.0
H347 H 0.52975 0.88448 0.76618 0.0
H348 H 0.54918 0.89548 0.97651 0.0
C349 C 0.55713 0.82509 0.04183 0.0
C350 C 0.5252 0.84433 0.91434 0.0
C351 C 0.55886 0.80878 0.08115 0.0
C352 C 0.52255 0.91489 0.76294 0.0
C353 C 0.52661 0.89787 0.79582 0.0
C354 C 0.54227 0.88134 0.95862 0.0
C355 C 0.53871 0.82785 0.01151 0.0
C356 C 0.53647 0.84571 0.97232 0.0
C357 C 0.52682 0.89822 0.866 0.0
C358 C 0.53065 0.88003 0.90143 0.0
H359 H 0.51093 0.78682 0.06644 0.0
H360 H 0.50769 0.81545 -0.00106 0.0
H361 H 0.55368 0.8661 0.03846 0.0
H362 H 0.51608 0.94656 0.89887 0.0
H363 H 0.52273 0.91684 0.95642 0.0
C364 C 0.70856 0.5235 0.99847 0.0
C365 C 0.71041 0.51119 0.05201 0.0
C366 C 0.68982 0.52421 0.96894 0.0
C367 C 0.64206 0.49432 0.94283 0.0
H368 H 0.62092 0.5441 0.89836 0.0
C369 C 0.5616 0.49702 0.84551 0.0
C370 C 0.5591 0.50969 0.7934 0.0
C371 C 0.5798 0.49804 0.87881 0.0
C372 C 0.62673 0.53007 0.90975 0.0
H373 H 0.69437 0.48976 0.11606 0.0
H374 H 0.66155 0.49097 0.06448 0.0
H375 H 0.6533 0.54437 0.95338 0.0
H376 H 0.5737 0.53363 0.73612 0.0
H377 H 0.60568 0.53511 0.79341 0.0
H378 H 0.61582 0.47993 0.8984 0.0
C379 C 0.67455 0.50013 0.04551 0.0
C380 C 0.64524 0.53024 0.94138 0.0
C381 C 0.69326 0.49952 0.07528 0.0
C382 C 0.57512 0.52365 0.77608 0.0
C383 C 0.59342 0.52458 0.80918 0.0
C384 C 0.62366 0.49414 0.91089 0.0
C385 C 0.67267 0.5124 0.99181 0.0
C386 C 0.65304 0.51236 0.95845 0.0
C387 C 0.59603 0.51165 0.86056 0.0
C388 C 0.61571 0.512 0.8942 0.0
H389 H 0.7217 0.53237 0.97902 0.0
H390 H 0.68887 0.5336 0.92707 0.0
H391 H 0.64788 0.48029 0.95429 0.0
H392 H 0.54949 0.48626 0.86076 0.0
H393 H 0.58112 0.48816 0.91909 0.0
C394 C 0.00233 0.70704 0.03356 0.0
C395 C 0.98904 0.7198 0.00738 0.0
C396 C 0.00541 0.68844 0.00232 0.0
C397 C 0.99936 0.65979 0.84104 0.0
H398 H 0.00378 0.61445 0.94975 0.0
C399 C 0.9937 0.57841 0.73679 0.0
C400 C 0.0078 0.56562 0.75863 0.0
C401 C 0.99261 0.59764 0.76514 0.0
C402 C 0.0028 0.62702 0.91877 0.0
H403 H 0.96926 0.72363 0.92649 0.0
H404 H 0.97399 0.69089 0.87307 0.0
H405 H 0.99916 0.64709 0.00364 0.0
H406 H 0.032 0.56312 0.82694 0.0
H407 H 0.02997 0.5967 0.87663 0.0
H408 H 0.00251 0.63949 0.75621 0.0
C409 C 0.98218 0.69521 0.91748 0.0
C410 C 0.00019 0.64575 0.94959 0.0
C411 C 0.97925 0.71386 0.94845 0.0
C412 C 0.021 0.5726 0.80881 0.0
C413 C 0.01976 0.59177 0.83762 0.0
C414 C 0.00179 0.64102 0.81026 0.0
C415 C 0.9953 0.68225 0.94403 0.0
C416 C 0.99839 0.66237 0.91113 0.0
C417 C 0.00546 0.60443 0.81637 0.0
C418 C 0.0035 0.62445 0.84883 0.0
H419 H 0.01045 0.7115 0.07804 0.0
H420 H 0.01595 0.67905 0.02336 0.0
H421 H 0.99842 0.6723 0.8098 0.0
H422 H 0.98329 0.57352 0.69828 0.0
H423 H 0.98132 0.60702 0.7482 0.0
C424 C 0.03704 0.19734 0.46919 0.0
C425 C 0.02332 0.20019 0.41973 0.0
C426 C 0.03368 0.18119 0.5105 0.0
C427 C 0.99584 0.1402 0.55958 0.0
H428 H 0.04311 0.10832 0.54743 0.0
C429 C 0.99241 0.05895 0.64273 0.0
C430 C 0.00179 0.04554 0.59701 0.0
C431 C 0.99534 0.07941 0.63495 0.0
C432 C 0.0298 0.11708 0.55147 0.0
H433 H 0.99468 0.1897 0.37764 0.0
H434 H 0.98865 0.1617 0.44972 0.0
H435 H 0.04683 0.14273 0.51486 0.0
H436 H 0.0212 0.04277 0.50683 0.0
H437 H 0.02611 0.07853 0.49241 0.0
H438 H 0.97861 0.11417 0.59282 0.0
C439 C 0.00195 0.17178 0.4572 0.0
C440 C 0.03198 0.13688 0.53374 0.0
C441 C 0.00541 0.18775 0.41569 0.0
C442 C 0.01384 0.05285 0.54274 0.0
C443 C 0.01683 0.07329 0.53505 0.0
C444 C 0.99368 0.1204 0.57756 0.0
C445 C 0.01645 0.16784 0.50316 0.0
C446 C 0.01488 0.14845 0.53547 0.0
C447 C 0.00769 0.0868 0.58121 0.0
C448 C 0.01051 0.10846 0.57148 0.0
H449 H 0.05102 0.20673 0.47274 0.0
H450 H 0.04502 0.1786 0.5459 0.0
H451 H 0.98243 0.14881 0.56195 0.0
H452 H 0.98296 0.0536 0.68486 0.0
H453 H 0.98815 0.08945 0.67137 0.0
C454 C 0.32245 0.03715 0.40994 0.0
C455 C 0.32394 0.04966 0.35573 0.0
C456 C 0.33943 0.03526 0.44802 0.0
C457 C 0.37813 0.03736 0.52935 0.0
H458 H 0.42389 0.02486 0.40747 0.0
C459 C 0.44341 0.99227 0.60881 0.0
C460 C 0.46334 0.9966 0.58222 0.0
C461 C 0.42694 0.00163 0.58593 0.0
C462 C 0.41151 0.0287 0.44262 0.0
H463 H 0.34342 0.0717 0.30369 0.0
H464 H 0.37306 0.06835 0.37002 0.0
H465 H 0.39383 0.03802 0.36472 0.0
H466 H 0.4816 0.01305 0.50842 0.0
H467 H 0.45304 0.0303 0.47021 0.0
H468 H 0.3958 0.02798 0.60736 0.0
C469 C 0.35894 0.05976 0.38234 0.0
C470 C 0.39424 0.03624 0.418 0.0
C471 C 0.34199 0.06171 0.34458 0.0
C472 C 0.46646 0.01003 0.5311 0.0
C473 C 0.45002 0.01962 0.50862 0.0
C474 C 0.39556 0.03005 0.55424 0.0
C475 C 0.35812 0.04583 0.43228 0.0
C476 C 0.37723 0.0403 0.46085 0.0
C477 C 0.43002 0.01559 0.53597 0.0
C478 C 0.4123 0.0252 0.5109 0.0
H479 H 0.30878 0.02761 0.41942 0.0
H480 H 0.3384 0.02438 0.48619 0.0
H481 H 0.36527 0.04049 0.56349 0.0
H482 H 0.44054 0.98191 0.64833 0.0
H483 H 0.41176 0.99773 0.60708 0.0
C484 C 0.45326 0.31745 0.41678 0.0
C485 C 0.46756 0.30947 0.37036 0.0
C486 C 0.45894 0.33399 0.45795 0.0
C487 C 0.50336 0.3682 0.50779 0.0
H488 H 0.46376 0.40827 0.50331 0.0
C489 C 0.51867 0.44931 0.61148 0.0
C490 C 0.51155 0.46426 0.57421 0.0
C491 C 0.51338 0.4293 0.59561 0.0
C492 C 0.47503 0.39728 0.50475 0.0
H493 H 0.49899 0.31153 0.33198 0.0
H494 H 0.509 0.34046 0.40305 0.0
H495 H 0.45454 0.37434 0.46543 0.0
H496 H 0.49423 0.47023 0.48931 0.0
H497 H 0.48544 0.43531 0.46009 0.0
H498 H 0.52421 0.39153 0.5438 0.0
C499 C 0.49355 0.33389 0.40929 0.0
C500 C 0.46962 0.3777 0.48414 0.0
C501 C 0.48788 0.3173 0.36853 0.0
C502 C 0.4998 0.45894 0.51904 0.0
C503 C 0.49457 0.43896 0.50294 0.0
C504 C 0.50881 0.38786 0.52821 0.0
C505 C 0.47893 0.34295 0.45245 0.0
C506 C 0.48384 0.36297 0.48405 0.0
C507 C 0.50102 0.42391 0.54166 0.0
C508 C 0.49485 0.40271 0.52542 0.0
H509 H 0.43743 0.31172 0.41811 0.0
H510 H 0.4474 0.34038 0.49147 0.0
H511 H 0.51461 0.3572 0.50905 0.0
H512 H 0.5281 0.45312 0.65354 0.0
H513 H 0.5186 0.41812 0.6265 0.0
C514 C 0.20153 0.49865 0.43156 0.0
C515 C 0.21087 0.51108 0.38338 0.0
C516 C 0.1856 0.50529 0.47413 0.0
C517 C 0.14409 0.53763 0.46208 0.0
H518 H 0.12803 0.51975 0.63897 0.0
C519 C 0.06078 0.54084 0.56758 0.0
C520 C 0.05284 0.52332 0.59672 0.0
C521 C 0.08189 0.54405 0.55433 0.0
C522 C 0.1323 0.52487 0.58954 0.0
H523 H 0.21211 0.5404 0.34405 0.0
H524 H 0.18445 0.55225 0.41928 0.0
H525 H 0.16339 0.51741 0.59598 0.0
H526 H 0.06056 0.4954 0.63484 0.0
H527 H 0.09713 0.5008 0.61137 0.0
H528 H 0.11289 0.54402 0.45375 0.0
C529 C 0.18931 0.53738 0.4242 0.0
C530 C 0.15256 0.5236 0.56509 0.0
C531 C 0.20526 0.53073 0.38174 0.0
C532 C 0.06631 0.50921 0.61326 0.0
C533 C 0.08731 0.51237 0.60012 0.0
C534 C 0.12384 0.53881 0.48633 0.0
C535 C 0.17864 0.52441 0.46854 0.0
C536 C 0.15852 0.52938 0.50025 0.0
C537 C 0.09539 0.52972 0.56983 0.0
C538 C 0.11754 0.53182 0.54943 0.0
H539 H 0.2054 0.48331 0.43251 0.0
H540 H 0.17759 0.49485 0.50721 0.0
H541 H 0.14807 0.54195 0.41151 0.0
H542 H 0.05067 0.55198 0.55464 0.0
H543 H 0.08763 0.55764 0.53139 0.0
C544 C 0.9752 0.80799 0.8973 0.0
C545 C 0.95776 0.80832 0.94104 0.0
C546 C 0.98026 0.82374 0.8554 0.0
C547 C 0.96232 0.87239 0.80403 0.0
H548 H 0.01972 0.88925 0.81665 0.0
C549 C 0.99364 0.95394 0.82431 0.0
C550 C 0.01015 0.95958 0.78059 0.0
C551 C 0.98677 0.93397 0.82746 0.0
C552 C 0.00372 0.8846 0.81179 0.0
H553 H 0.93063 0.82409 0.96903 0.0
H554 H 0.9398 0.8518 0.89901 0.0
H555 H 0.00779 0.85583 0.84627 0.0
H556 H 0.03273 0.94909 0.70689 0.0
H557 H 0.02117 0.91387 0.71439 0.0
H558 H 0.95824 0.90195 0.77455 0.0
C559 C 0.94962 0.83948 0.89596 0.0
C560 C 0.99683 0.86535 0.82824 0.0
C561 C 0.94443 0.82364 0.93696 0.0
C562 C 0.01997 0.94498 0.74101 0.0
C563 C 0.01335 0.92494 0.74512 0.0
C564 C 0.96917 0.89177 0.78887 0.0
C565 C 0.96812 0.84023 0.85703 0.0
C566 C 0.97591 0.85916 0.82661 0.0
C567 C 0.99658 0.91932 0.78798 0.0
C568 C 0.98982 0.89816 0.7944 0.0
H569 H 0.98577 0.79638 0.89894 0.0
H570 H 0.99431 0.82349 0.82459 0.0
H571 H 0.94621 0.86806 0.80046 0.0
H572 H 0.98573 0.96499 0.85481 0.0
H573 H 0.97395 0.92993 0.86146 0.0
C574 C 0.66882 0.94142 0.00469 0.0
C575 C 0.68711 0.95337 0.99702 0.0
C576 C 0.65204 0.94464 0.96751 0.0
C577 C 0.634 0.97006 0.82533 0.0
H578 H 0.58834 0.98243 0.94774 0.0
C579 C 0.56989 0.01704 0.74798 0.0
C580 C 0.54985 0.01278 0.77367 0.0
C581 C 0.58617 0.00744 0.77112 0.0
C582 C 0.60068 0.97866 0.91239 0.0
H583 H 0.70275 0.97671 0.93943 0.0
H584 H 0.67358 0.98194 0.87331 0.0
H585 H 0.61776 0.96772 0.98913 0.0
H586 H 0.53122 0.9963 0.84652 0.0
H587 H 0.55938 0.97854 0.88475 0.0
H588 H 0.61693 0.98091 0.74839 0.0
C589 C 0.6722 0.97022 0.9086 0.0
C590 C 0.61759 0.97023 0.93625 0.0
C591 C 0.68895 0.96715 0.94633 0.0
C592 C 0.54644 0.99925 0.8244 0.0
C593 C 0.56268 0.98938 0.84698 0.0
C594 C 0.61692 0.97821 0.80114 0.0
C595 C 0.65333 0.95966 0.92122 0.0
C596 C 0.63455 0.96617 0.89324 0.0
C597 C 0.58277 0.99325 0.82028 0.0
C598 C 0.60021 0.98302 0.84468 0.0
H599 H 0.66707 0.93042 0.04246 0.0
H600 H 0.63774 0.93608 0.97734 0.0
H601 H 0.64686 0.96697 0.79113 0.0
H602 H 0.57298 0.0275 0.70886 0.0
H603 H 0.60144 0.01126 0.75056 0.0
C604 C 0.52243 0.69311 0.00878 0.0
C605 C 0.54254 0.70146 0.00342 0.0
C606 C 0.51638 0.67676 0.96764 0.0
C607 C 0.50561 0.64308 0.86762 0.0
H608 H 0.5459 0.60345 0.86491 0.0
C609 C 0.49014 0.56195 0.76419 0.0
C610 C 0.49758 0.5471 0.8012 0.0
C611 C 0.49546 0.58199 0.77933 0.0
C612 C 0.53446 0.61433 0.86539 0.0
H613 H 0.57183 0.70034 0.94915 0.0
H614 H 0.56118 0.67191 0.8756 0.0
H615 H 0.55523 0.63746 0.90221 0.0
H616 H 0.51559 0.54135 0.88469 0.0
H617 H 0.52455 0.57635 0.91242 0.0
H618 H 0.48456 0.61959 0.83392 0.0
C619 C 0.5501 0.67784 0.91192 0.0
C620 C 0.5399 0.63394 0.8857 0.0
C621 C 0.55615 0.69422 0.95326 0.0
C622 C 0.50974 0.55256 0.85526 0.0
C623 C 0.51506 0.57258 0.8705 0.0
C624 C 0.50015 0.62342 0.84731 0.0
C625 C 0.53042 0.66838 0.9207 0.0
C626 C 0.52542 0.64847 0.88857 0.0
C627 C 0.50822 0.58751 0.83212 0.0
C628 C 0.51439 0.60873 0.84762 0.0
H629 H 0.51186 0.69833 0.04812 0.0
H630 H 0.5012 0.66976 0.97637 0.0
H631 H 0.49415 0.65396 0.86868 0.0
H632 H 0.48045 0.55803 0.72286 0.0
H633 H 0.48996 0.59311 0.74878 0.0
C634 C 0.81795 0.56291 0.97664 0.0
C635 C 0.80461 0.5458 0.97609 0.0
C636 C 0.83565 0.56366 0.93485 0.0
C637 C 0.86657 0.53666 0.80353 0.0
H638 H 0.90863 0.54525 0.93243 0.0
C639 C 0.94524 0.5027 0.76615 0.0
C640 C 0.96219 0.51269 0.79528 0.0
C641 C 0.92582 0.51003 0.77643 0.0
C642 C 0.89733 0.54325 0.89487 0.0
H643 H 0.79781 0.51711 0.92682 0.0
H644 H 0.8288 0.51834 0.85355 0.0
H645 H 0.87422 0.55405 0.96325 0.0
H646 H 0.97259 0.53852 0.85528 0.0
H647 H 0.93895 0.55179 0.87144 0.0
H648 H 0.88983 0.52556 0.73531 0.0
C649 C 0.82559 0.53125 0.88566 0.0
C650 C 0.87748 0.54833 0.9127 0.0
C651 C 0.8078 0.53055 0.92737 0.0
C652 C 0.95961 0.53035 0.83346 0.0
C653 C 0.94031 0.53791 0.84266 0.0
C654 C 0.88662 0.53182 0.78518 0.0
C655 C 0.84034 0.54721 0.89246 0.0
C656 C 0.86179 0.54477 0.86782 0.0
C657 C 0.92305 0.52767 0.81534 0.0
C658 C 0.90217 0.53466 0.83125 0.0
H659 H 0.81581 0.57477 0.01422 0.0
H660 H 0.84661 0.57628 0.94029 0.0
H661 H 0.85474 0.53374 0.768 0.0
H662 H 0.94698 0.48905 0.73625 0.0
H663 H 0.91293 0.50155 0.75534 0.0
C664 C 0.0581 0.20514 0.14875 0.0
C665 C 0.03874 0.20828 0.17898 0.0
C666 C 0.06 0.19193 0.09316 0.0
C667 C 0.05834 0.15045 0.02581 0.0
H668 H 0.01843 0.14199 0.88978 0.0
C669 C 0.03647 0.07341 0.90622 0.0
C670 C 0.03185 0.07197 0.83868 0.0
C671 C 0.04073 0.092 0.93791 0.0
C672 C 0.02993 0.14427 0.92667 0.0
H673 H 0.00621 0.20126 0.17381 0.0
H674 H 0.00937 0.17843 0.07644 0.0
H675 H 0.01975 0.17292 0.95784 0.0
H676 H 0.0286 0.0886 0.75047 0.0
H677 H 0.03612 0.12109 0.80572 0.0
H678 H 0.06816 0.12159 0.99582 0.0
C679 C 0.02311 0.18616 0.09475 0.0
C680 C 0.03058 0.16193 0.96594 0.0
C681 C 0.02125 0.19918 0.15048 0.0
C682 C 0.03204 0.08934 0.8028 0.0
C683 C 0.03627 0.10793 0.83444 0.0
C684 C 0.05765 0.13276 0.98664 0.0
C685 C 0.04253 0.18181 0.06701 0.0
C686 C 0.04439 0.16497 0.0172 0.0
C687 C 0.04041 0.10949 0.90257 0.0
C688 C 0.04305 0.12925 0.93793 0.0
H689 H 0.07177 0.21187 0.17073 0.0
H690 H 0.07514 0.18896 0.07249 0.0
H691 H 0.06904 0.15225 0.06529 0.0
H692 H 0.03639 0.06022 0.93491 0.0
H693 H 0.04357 0.09271 0.99068 0.0
C694 C 0.31835 0.01601 0.10797 0.0
C695 C 0.30981 0.03443 0.11962 0.0
C696 C 0.33172 0.0128 0.0527 0.0
C697 C 0.36895 0.04226 0.95027 0.0
H698 H 0.37943 0.99081 0.86559 0.0
C699 C 0.43989 0.02996 0.77399 0.0
C700 C 0.45091 0.01348 0.78699 0.0
C701 C 0.42052 0.03234 0.80446 0.0
C702 C 0.37668 0.00526 0.88894 0.0
H703 H 0.3073 0.06353 0.08156 0.0
H704 H 0.33028 0.0578 0.98315 0.0
H705 H 0.34744 0.99507 0.93121 0.0
H706 H 0.45 0.98643 0.84156 0.0
H707 H 0.4162 0.99072 0.89518 0.0
H708 H 0.39833 0.05234 0.90904 0.0
C709 C 0.3269 0.04589 0.0171 0.0
C710 C 0.35836 0.00773 0.92639 0.0
C711 C 0.31355 0.04911 0.07272 0.0
C712 C 0.44202 0.99936 0.83078 0.0
C713 C 0.42256 0.0017 0.86096 0.0
C714 C 0.38717 0.03983 0.91243 0.0
C715 C 0.33687 0.02801 0.00815 0.0
C716 C 0.3545 0.02613 0.95896 0.0
C717 C 0.41165 0.01825 0.84827 0.0
C718 C 0.39144 0.0212 0.88275 0.0
H719 H 0.31589 0.00465 0.14442 0.0
H720 H 0.33923 0.99895 0.04807 0.0
H721 H 0.36673 0.05655 0.97556 0.0
H722 H 0.44616 0.04106 0.74009 0.0
H723 H 0.4124 0.04516 0.79335 0.0
C724 C 0.43393 0.3208 0.14214 0.0
C725 C 0.44618 0.30443 0.13788 0.0
C726 C 0.4341 0.33359 0.0895 0.0
C727 C 0.46991 0.3512 0.95643 0.0
H728 H 0.42535 0.38312 0.91705 0.0
C729 C 0.48327 0.41797 0.78828 0.0
C730 C 0.4746 0.43549 0.81307 0.0
C731 C 0.47741 0.39983 0.81653 0.0
C732 C 0.43795 0.37435 0.92764 0.0
H733 H 0.46687 0.28762 0.07314 0.0
H734 H 0.46691 0.30979 0.98022 0.0
H735 H 0.4184 0.35391 0.98394 0.0
H736 H 0.4526 0.44782 0.88517 0.0
H737 H 0.44252 0.41615 0.93544 0.0
H738 H 0.48956 0.3719 0.90211 0.0
C739 C 0.45746 0.31295 0.02488 0.0
C740 C 0.43396 0.35759 0.9658 0.0
C741 C 0.45726 0.30011 0.07771 0.0
C742 C 0.45953 0.43451 0.86527 0.0
C743 C 0.45367 0.41634 0.89364 0.0
C744 C 0.47387 0.3679 0.91824 0.0
C745 C 0.44653 0.33028 0.03129 0.0
C746 C 0.44998 0.34608 0.98198 0.0
C747 C 0.46277 0.39884 0.87025 0.0
C748 C 0.45803 0.37993 0.90463 0.0
H749 H 0.4251 0.32435 0.18783 0.0
H750 H 0.42558 0.3468 0.09649 0.0
H751 H 0.48269 0.34294 0.96886 0.0
H752 H 0.49481 0.4183 0.74759 0.0
H753 H 0.48451 0.38659 0.79672 0.0
C754 C 0.1917 0.46549 0.16772 0.0
C755 C 0.20765 0.48001 0.15671 0.0
C756 C 0.17682 0.46165 0.1209 0.0
C757 C 0.16165 0.47285 0.95104 0.0
H758 H 0.10766 0.4734 0.03972 0.0
C759 C 0.09085 0.4973 0.82582 0.0
C760 C 0.07181 0.48743 0.84128 0.0
C761 C 0.1082 0.49271 0.85792 0.0
C762 C 0.12256 0.47283 0.01393 0.0
H763 H 0.22154 0.50097 0.08701 0.0
H764 H 0.19523 0.49464 0.00529 0.0
H765 H 0.13729 0.47098 0.10538 0.0
H766 H 0.05594 0.46465 0.90033 0.0
H767 H 0.0863 0.45654 0.95648 0.0
H768 H 0.14673 0.47543 0.85963 0.0
C769 C 0.19434 0.48594 0.04942 0.0
C770 C 0.1396 0.4714 0.0516 0.0
C771 C 0.20939 0.48961 0.0961 0.0
C772 C 0.07044 0.47258 0.88808 0.0
C773 C 0.0878 0.46798 0.9202 0.0
C774 C 0.14453 0.47431 0.91323 0.0
C775 C 0.17744 0.4725 0.06269 0.0
C776 C 0.15938 0.47168 0.02082 0.0
C777 C 0.10682 0.47817 0.90605 0.0
C778 C 0.12484 0.47464 0.9445 0.0
H779 H 0.1902 0.45784 0.21414 0.0
H780 H 0.16427 0.45087 0.13185 0.0
H781 H 0.17666 0.47291 0.92579 0.0
H782 H 0.0923 0.50875 0.78954 0.0
H783 H 0.12256 0.501 0.84652 0.0
C784 C 0.96414 0.80196 0.23118 0.0
C785 C 0.9486 0.80197 0.18564 0.0
C786 C 0.96463 0.81569 0.28569 0.0
C787 C 0.94964 0.86612 0.32127 0.0
H788 H 0.97008 0.86003 0.49641 0.0
C789 C 0.96386 0.93392 0.50011 0.0
C790 C 0.9819 0.93475 0.5349 0.0
C791 C 0.95705 0.91634 0.46646 0.0
C792 C 0.96448 0.86198 0.44749 0.0
H793 H 0.92027 0.81471 0.16491 0.0
H794 H 0.92092 0.83847 0.26056 0.0
H795 H 0.96219 0.83056 0.42417 0.0
H796 H 0.00675 0.91787 0.56363 0.0
H797 H 0.9953 0.88729 0.50292 0.0
H798 H 0.95269 0.89739 0.34255 0.0
C799 C 0.93297 0.82822 0.25346 0.0
C800 C 0.95988 0.8451 0.40635 0.0
C801 C 0.93253 0.81458 0.19902 0.0
C802 C 0.99282 0.91761 0.53676 0.0
C803 C 0.98613 0.90005 0.50255 0.0
C804 C 0.95436 0.88293 0.36199 0.0
C805 C 0.94955 0.82959 0.29541 0.0
C806 C 0.95256 0.84703 0.34257 0.0
C807 C 0.96827 0.89926 0.46631 0.0
C808 C 0.96202 0.88112 0.42537 0.0
H809 H 0.97678 0.79249 0.22167 0.0
H810 H 0.97763 0.81642 0.31702 0.0
H811 H 0.9445 0.86817 0.27178 0.0
H812 H 0.95502 0.94689 0.49867 0.0
H813 H 0.94302 0.91618 0.44023 0.0
C814 C 0.68791 0.94827 0.26653 0.0
C815 C 0.70082 0.96292 0.23577 0.0
C816 C 0.675 0.95333 0.32145 0.0
C817 C 0.64523 0.99428 0.37339 0.0
H818 H 0.63005 0.96471 0.53117 0.0
C819 C 0.57364 0.01197 0.53912 0.0
C820 C 0.56206 0.99583 0.56641 0.0
C821 C 0.59297 0.00937 0.50843 0.0
C822 C 0.63394 0.97301 0.48696 0.0
H823 H 0.71144 0.99396 0.24015 0.0
H824 H 0.6886 0.00293 0.33596 0.0
H825 H 0.661 0.95723 0.46401 0.0
H826 H 0.56155 0.96431 0.58294 0.0
H827 H 0.59468 0.9595 0.52648 0.0
H828 H 0.61768 0.00913 0.39277 0.0
C829 C 0.68863 0.98753 0.31801 0.0
C830 C 0.65179 0.96884 0.44903 0.0
C831 C 0.70179 0.98239 0.26374 0.0
C832 C 0.57015 0.97704 0.56235 0.0
C833 C 0.5893 0.97435 0.5306 0.0
C834 C 0.62722 0.9982 0.41049 0.0
C835 C 0.67456 0.9732 0.34556 0.0
C836 C 0.65744 0.97927 0.39144 0.0
C837 C 0.60102 0.99048 0.50325 0.0
C838 C 0.62113 0.98741 0.46721 0.0
H839 H 0.68679 0.93321 0.24516 0.0
H840 H 0.6642 0.94203 0.34144 0.0
H841 H 0.64903 0.00229 0.32845 0.0
H842 H 0.56795 0.02672 0.54268 0.0
H843 H 0.60166 0.02224 0.48928 0.0
C844 C 0.57683 0.68882 0.2296 0.0
C845 C 0.56531 0.70571 0.23432 0.0
C846 C 0.57642 0.67609 0.28247 0.0
C847 C 0.54078 0.65977 0.41758 0.0
H848 H 0.5846 0.62686 0.45632 0.0
C849 C 0.5263 0.59326 0.587 0.0
C850 C 0.53469 0.57558 0.56249 0.0
C851 C 0.53238 0.6113 0.55827 0.0
C852 C 0.5722 0.6359 0.44592 0.0
H853 H 0.54563 0.7234 0.29975 0.0
H854 H 0.5451 0.70125 0.393 0.0
H855 H 0.59207 0.65576 0.38837 0.0
H856 H 0.5564 0.56283 0.49027 0.0
H857 H 0.56685 0.59427 0.43922 0.0
H858 H 0.52079 0.63961 0.47299 0.0
C859 C 0.55421 0.6977 0.34793 0.0
C860 C 0.57649 0.65249 0.40717 0.0
C861 C 0.55469 0.7105 0.29492 0.0
C862 C 0.54969 0.57628 0.51001 0.0
C863 C 0.55577 0.59432 0.48118 0.0
C864 C 0.53651 0.64322 0.4563 0.0
C865 C 0.56444 0.67995 0.34129 0.0
C866 C 0.56073 0.66435 0.3912 0.0
C867 C 0.54698 0.612 0.50437 0.0
C868 C 0.55207 0.63081 0.46965 0.0
H869 H 0.58525 0.68487 0.18348 0.0
H870 H 0.58438 0.66254 0.27532 0.0
H871 H 0.5282 0.66834 0.40537 0.0
H872 H 0.51481 0.59314 0.62786 0.0
H873 H 0.52552 0.62467 0.57794 0.0
C874 C 0.81899 0.51122 0.19238 0.0
C875 C 0.80395 0.52486 0.20695 0.0
C876 C 0.83348 0.50834 0.23853 0.0
C877 C 0.84841 0.51492 0.41095 0.0
H878 H 0.90282 0.52384 0.3279 0.0
C879 C 0.92218 0.52129 0.56075 0.0
C880 C 0.93959 0.51306 0.52987 0.0
C881 C 0.90449 0.52229 0.52541 0.0
C882 C 0.88779 0.52099 0.35182 0.0
H883 H 0.79111 0.54503 0.28263 0.0
H884 H 0.8167 0.53986 0.36464 0.0
H885 H 0.87309 0.52521 0.26157 0.0
H886 H 0.95212 0.49883 0.43916 0.0
H887 H 0.92118 0.50004 0.37792 0.0
H888 H 0.86322 0.51031 0.50115 0.0
C889 C 0.81719 0.53148 0.31722 0.0
C890 C 0.87075 0.52188 0.31382 0.0
C891 C 0.80259 0.53441 0.27061 0.0
C892 C 0.93895 0.50547 0.46376 0.0
C893 C 0.92125 0.50628 0.42866 0.0
C894 C 0.86556 0.51381 0.4491 0.0
C895 C 0.83322 0.51902 0.30026 0.0
C896 C 0.85093 0.51864 0.34272 0.0
C897 C 0.90387 0.51493 0.45871 0.0
C898 C 0.88546 0.51663 0.41967 0.0
H899 H 0.82016 0.50354 0.14375 0.0
H900 H 0.84549 0.4984 0.22478 0.0
H901 H 0.83324 0.5124 0.43425 0.0
H902 H 0.9223 0.52719 0.61195 0.0
H903 H 0.89148 0.5292 0.54991 0.0
loop_
_geom_bond_atom_site_label_1
_geom_bond_atom_site_label_2
_geom_bond_distance
_geom_bond_site_symmetry_2
_ccdc_geom_bond_type
H0 C7 0.929 . S
H1 C10 0.930 1_556 S
H2 C12 0.929 . S
H3 C4 0.969 . S
C4 H3 0.969 . S
C4 O5 1.550 . S
C4 H6 0.973 1_554 S
O5 C4 1.550 . S
O5 C11 1.412 . S
H6 C4 0.973 1_556 S
C7 H0 0.929 . S
C7 C8 1.400 . S
C7 C9 1.364 . S
C8 C7 1.400 . S
C8 C12 1.377 . S
C9 C7 1.364 . S
C9 C10 1.374 . S
C10 H1 0.930 1_554 S
C10 C9 1.374 . S
C10 C11 1.383 . S
C11 O5 1.412 . S
C11 C10 1.383 . S
C11 C12 1.394 . S
C12 H2 0.929 . S
C12 C8 1.377 . S
C12 C11 1.394 . S
H13 C20 0.929 . S
H14 C23 0.930 . S
H15 C25 0.929 . S
H16 C17 0.969 . S
C17 H16 0.969 . S
C17 O18 1.550 1_556 S
C17 H19 0.973 . S
O18 C17 1.550 1_554 S
O18 C24 1.412 . S
H19 C17 0.973 . S
C20 H13 0.929 . S
C20 C21 1.400 . S
C20 C22 1.364 1_554 S
C21 C20 1.400 . S
C21 C25 1.377 . S
C22 C20 1.364 1_556 S
C22 C23 1.374 . S
C23 H14 0.930 . S
C23 C22 1.374 . S
C23 C24 1.383 1_556 S
C24 O18 1.412 . S
C24 C23 1.383 1_554 S
C24 C25 1.394 . S
C25 H15 0.929 . S
C25 C21 1.377 . S
C25 C24 1.394 . S
H26 C33 0.929 . S
H27 C36 0.930 1_556 S
H28 C38 0.929 . S
H29 C30 0.968 1_556 S
C30 H29 0.968 1_554 S
C30 O31 1.550 . S
C30 H32 0.973 1_554 S
O31 C30 1.550 . S
O31 C37 1.412 . S
H32 C30 0.973 1_556 S
C33 H26 0.929 . S
C33 C34 1.400 . S
C33 C35 1.364 . S
C34 C33 1.400 . S
C34 C38 1.377 . S
C35 C33 1.364 . S
C35 C36 1.374 . S
C36 H27 0.930 1_554 S
C36 C35 1.374 . S
C36 C37 1.383 . S
C37 O31 1.412 . S
C37 C36 1.383 . S
C37 C38 1.394 . S
C38 H28 0.929 . S
C38 C34 1.377 . S
C38 C37 1.394 . S
H39 C46 0.929 . S
H40 C49 0.930 1_556 S
H41 C51 0.929 . S
H42 C43 0.969 . S
C43 H42 0.969 . S
C43 O44 1.550 . S
C43 H45 0.973 1_554 S
O44 C43 1.550 . S
O44 C50 1.412 . S
H45 C43 0.973 1_556 S
C46 H39 0.929 . S
C46 C47 1.400 . S
C46 C48 1.364 . S
C47 C46 1.400 . S
C47 C51 1.377 . S
C48 C46 1.364 . S
C48 C49 1.374 . S
C49 H40 0.930 1_554 S
C49 C48 1.374 . S
C49 C50 1.383 . S
C50 O44 1.412 . S
C50 C49 1.383 . S
C50 C51 1.394 . S
C51 H41 0.929 . S
C51 C47 1.377 . S
C51 C50 1.394 . S
H52 C59 0.929 . S
H53 C62 0.930 . S
H54 C64 0.929 . S
H55 C56 0.969 . S
C56 H55 0.969 . S
C56 O57 1.550 . S
C56 H58 0.973 . S
O57 C56 1.550 . S
O57 C63 1.412 . S
H58 C56 0.973 . S
C59 H52 0.929 . S
C59 C60 1.400 . S
C59 C61 1.364 . S
C60 C59 1.400 . S
C60 C64 1.377 . S
C61 C59 1.364 . S
C61 C62 1.374 . S
C62 H53 0.930 . S
C62 C61 1.374 . S
C62 C63 1.383 . S
C63 O57 1.412 . S
C63 C62 1.383 . S
C63 C64 1.394 . S
C64 H54 0.929 . S
C64 C60 1.377 . S
C64 C63 1.394 . S
H65 C72 0.929 . S
H66 C75 0.930 . S
H67 C77 0.929 . S
H68 C69 0.969 . S
C69 H68 0.969 . S
C69 O70 1.550 . S
C69 H71 0.973 . S
O70 C69 1.550 . S
O70 C76 1.412 . S
H71 C69 0.973 . S
C72 H65 0.929 . S
C72 C73 1.400 . S
C72 C74 1.364 . S
C73 C72 1.400 . S
C73 C77 1.377 . S
C74 C72 1.364 . S
C74 C75 1.374 . S
C75 H66 0.930 . S
C75 C74 1.374 . S
C75 C76 1.383 . S
C76 O70 1.412 . S
C76 C75 1.383 . S
C76 C77 1.394 . S
C77 H67 0.929 . S
C77 C73 1.377 . S
C77 C76 1.394 . S
H78 C85 0.929 . S
H79 C88 0.930 . S
H80 C90 0.929 . S
H81 C82 0.969 . S
C82 H81 0.969 . S
C82 O83 1.550 . S
C82 H84 0.973 . S
O83 C82 1.550 . S
O83 C89 1.412 . S
H84 C82 0.973 . S
C85 H78 0.929 . S
C85 C86 1.400 . S
C85 C87 1.364 . S
C86 C85 1.400 . S
C86 C90 1.377 . S
C87 C85 1.364 . S
C87 C88 1.374 . S
C88 H79 0.930 . S
C88 C87 1.374 . S
C88 C89 1.383 . S
C89 O83 1.412 . S
C89 C88 1.383 . S
C89 C90 1.394 . S
C90 H80 0.929 . S
C90 C86 1.377 . S
C90 C89 1.394 . S
H91 C98 0.929 . S
H92 C101 0.930 . S
H93 C103 0.929 . S
H94 C95 0.969 . S
C95 H94 0.969 . S
C95 O96 1.550 . S
C95 H97 0.973 . S
O96 C95 1.550 . S
O96 C102 1.412 . S
H97 C95 0.973 . S
C98 H91 0.929 . S
C98 C99 1.400 . S
C98 C100 1.364 . S
C99 C98 1.400 . S
C99 C103 1.377 . S
C100 C98 1.364 . S
C100 C101 1.374 . S
C101 H92 0.930 . S
C101 C100 1.374 . S
C101 C102 1.383 . S
C102 O96 1.412 . S
C102 C101 1.383 . S
C102 C103 1.394 . S
C103 H93 0.929 . S
C103 C99 1.377 . S
C103 C102 1.394 . S
Tb104 O107 2.453 1_565 S
Tb104 O108 2.596 1_665 S
Tb104 O109 2.374 1_665 S
Tb104 O117 2.343 1_655 S
Tb104 O119 2.353 1_565 S
Tb104 O121 2.427 . S
Tb104 O122 2.513 1_655 S
C105 O109 1.251 . S
C105 O111 1.263 . S
Tb106 O108 2.343 . S
Tb106 O111 2.353 . S
Tb106 O114 2.427 . S
Tb106 O115 2.513 . S
Tb106 O116 2.453 1_545 S
Tb106 O117 2.596 1_545 S
Tb106 O118 2.374 1_455 S
O107 Tb104 2.453 1_545 S
O107 C123 1.245 1_655 S
O108 Tb104 2.596 1_445 S
O108 Tb106 2.343 . S
O108 C123 1.259 . S
O109 Tb104 2.374 1_445 S
O109 C105 1.251 . S
C110 O114 1.275 . S
C110 O115 1.246 . S
O111 C105 1.263 . S
O111 Tb106 2.353 . S
C112 O116 1.245 . S
C112 O117 1.259 . S
C113 O118 1.250 . S
C113 O119 1.263 . S
O114 Tb106 2.427 . S
O114 C110 1.275 . S
O115 Tb106 2.513 . S
O115 C110 1.246 . S
O116 Tb106 2.453 1_565 S
O116 C112 1.245 . S
O117 Tb104 2.343 1_455 S
O117 Tb106 2.596 1_565 S
O117 C112 1.259 . S
O118 Tb106 2.374 1_655 S
O118 C113 1.250 . S
O119 Tb104 2.353 1_545 S
O119 C113 1.263 . S
C120 O121 1.275 . S
C120 O122 1.246 1_655 S
O121 Tb104 2.427 . S
O121 C120 1.275 . S
O122 Tb104 2.513 1_455 S
O122 C120 1.246 1_455 S
C123 O107 1.245 1_455 S
C123 O108 1.259 . S
Tb124 O127 2.453 . S
Tb124 O128 2.596 1_545 S
Tb124 O129 2.374 . S
Tb124 O137 2.343 . S
Tb124 O139 2.353 . S
Tb124 O141 2.427 . S
Tb124 O142 2.513 . S
C125 O129 1.201 1_565 S
C125 O131 1.301 . S
Tb126 O128 2.343 . S
Tb126 O131 2.353 . S
Tb126 O134 2.427 . S
Tb126 O135 2.513 . S
Tb126 O136 2.453 . S
Tb126 O137 2.596 1_565 S
Tb126 O138 2.374 . S
O127 Tb124 2.453 . S
O127 C143 1.245 . S
O128 Tb124 2.596 1_565 S
O128 Tb126 2.343 . S
O128 C143 1.259 1_565 S
O129 Tb124 2.374 . S
O129 C125 1.201 1_545 S
C130 O134 1.275 . S
C130 O135 1.246 . S
O131 C125 1.301 . S
O131 Tb126 2.353 . S
C132 O136 1.245 1_545 S
C132 O137 1.259 . S
C133 O138 1.250 1_545 S
C133 O139 1.263 . S
O134 Tb126 2.427 . S
O134 C130 1.275 . S
O135 Tb126 2.513 . S
O135 C130 1.246 . S
O136 Tb126 2.453 . S
O136 C132 1.245 1_565 S
O137 Tb124 2.343 . S
O137 Tb126 2.596 1_545 S
O137 C132 1.259 . S
O138 Tb126 2.374 . S
O138 C133 1.250 1_565 S
O139 Tb124 2.353 . S
O139 C133 1.263 . S
C140 O141 1.275 . S
C140 O142 1.246 . S
O141 Tb124 2.427 . S
O141 C140 1.275 . S
O142 Tb124 2.513 . S
O142 C140 1.246 . S
C143 O127 1.245 . S
C143 O128 1.259 1_545 S
Tb144 O147 2.453 . S
Tb144 O148 2.596 . S
Tb144 O149 2.374 . S
Tb144 O157 2.343 . S
Tb144 O159 2.353 . S
Tb144 O161 2.427 . S
Tb144 O162 2.513 . S
C145 O149 1.251 . S
C145 O151 1.263 . S
Tb146 O148 2.343 . S
Tb146 O151 2.353 . S
Tb146 O154 2.427 . S
Tb146 O155 2.513 . S
Tb146 O156 2.453 . S
Tb146 O157 2.596 . S
Tb146 O158 2.374 . S
O147 Tb144 2.453 . S
O147 C163 1.245 . S
O148 Tb144 2.596 . S
O148 Tb146 2.343 . S
O148 C163 1.259 . S
O149 Tb144 2.374 . S
O149 C145 1.251 . S
C150 O154 1.275 . S
C150 O155 1.246 . S
O151 C145 1.263 . S
O151 Tb146 2.353 . S
C152 O156 1.245 . S
C152 O157 1.259 . S
C153 O158 1.250 . S
C153 O159 1.263 . S
O154 Tb146 2.427 . S
O154 C150 1.275 . S
O155 Tb146 2.513 . S
O155 C150 1.246 . S
O156 Tb146 2.453 . S
O156 C152 1.245 . S
O157 Tb144 2.343 . S
O157 Tb146 2.596 . S
O157 C152 1.259 . S
O158 Tb146 2.374 . S
O158 C153 1.250 . S
O159 Tb144 2.353 . S
O159 C153 1.263 . S
C160 O161 1.275 . S
C160 O162 1.246 . S
O161 Tb144 2.427 . S
O161 C160 1.275 . S
O162 Tb144 2.513 . S
O162 C160 1.246 . S
C163 O147 1.245 . S
C163 O148 1.259 . S
Tb164 O167 2.453 1_655 S
Tb164 O168 2.596 1_655 S
Tb164 O169 2.374 1_655 S
Tb164 O177 2.343 . S
Tb164 O179 2.353 1_655 S
Tb164 O181 2.427 . S
Tb164 O182 2.513 . S
C165 O169 1.251 . S
C165 O171 1.263 . S
Tb166 O168 2.343 . S
Tb166 O171 2.353 . S
Tb166 O174 2.427 . S
Tb166 O175 2.513 . S
Tb166 O176 2.453 1_455 S
Tb166 O177 2.596 1_455 S
Tb166 O178 2.374 . S
O167 Tb164 2.453 1_455 S
O167 C183 1.245 . S
O168 Tb164 2.596 1_455 S
O168 Tb166 2.343 . S
O168 C183 1.259 . S
O169 Tb164 2.374 1_455 S
O169 C165 1.251 . S
C170 O174 1.275 . S
C170 O175 1.246 . S
O171 C165 1.263 . S
O171 Tb166 2.353 . S
C172 O176 1.245 . S
C172 O177 1.259 . S
C173 O178 1.250 . S
C173 O179 1.263 . S
O174 Tb166 2.427 . S
O174 C170 1.275 . S
O175 Tb166 2.513 . S
O175 C170 1.246 . S
O176 Tb166 2.453 1_655 S
O176 C172 1.245 . S
O177 Tb164 2.343 . S
O177 Tb166 2.596 1_655 S
O177 C172 1.259 . S
O178 Tb166 2.374 . S
O178 C173 1.250 . S
O179 Tb164 2.353 1_455 S
O179 C173 1.263 . S
C180 O181 1.275 . S
C180 O182 1.246 . S
O181 Tb164 2.427 . S
O181 C180 1.275 . S
O182 Tb164 2.513 . S
O182 C180 1.246 . S
C183 O167 1.245 . S
C183 O168 1.259 . S
C184 C185 1.349 . S
C184 C186 1.327 . S
C184 H209 0.950 . S
C185 C184 1.349 . S
C185 C201 1.349 . S
C186 C184 1.327 . S
C186 C205 1.429 . S
C186 H210 0.950 . S
C187 C204 1.574 . S
C187 C206 1.368 . S
C187 H211 0.949 . S
H188 C192 0.949 . S
C189 C190 1.363 . S
C189 C191 1.330 . S
C189 H212 0.932 1_545 S
C190 C189 1.363 . S
C190 C202 1.349 . S
C191 C189 1.330 . S
C191 C207 1.429 . S
C191 H213 0.950 1_545 S
C192 H188 0.949 . S
C192 C200 1.574 . S
C192 C208 1.368 . S
H193 C201 0.950 . S
H194 C199 0.950 . S
H195 C200 0.949 . S
H196 C202 0.950 . S
H197 C203 0.950 . S
H198 C204 0.906 1_565 S
C199 H194 0.950 . S
C199 C201 1.327 . S
C199 C205 1.429 . S
C200 C192 1.574 . S
C200 H195 0.949 . S
C200 C206 1.368 . S
C201 C185 1.349 . S
C201 H193 0.950 . S
C201 C199 1.327 . S
C202 C190 1.349 . S
C202 H196 0.950 . S
C202 C203 1.327 . S
C203 H197 0.950 . S
C203 C202 1.327 . S
C203 C207 1.429 . S
C204 C187 1.574 . S
C204 H198 0.906 1_545 S
C204 C208 1.368 . S
C205 C186 1.429 . S
C205 C199 1.429 . S
C205 C206 1.523 . S
C206 C187 1.368 . S
C206 C200 1.368 . S
C206 C205 1.523 . S
C207 C191 1.429 . S
C207 C203 1.429 . S
C207 C208 1.523 . S
C208 C192 1.368 . S
C208 C204 1.368 . S
C208 C207 1.523 . S
H209 C184 0.950 . S
H210 C186 0.950 . S
H211 C187 0.949 . S
H212 C189 0.932 1_565 S
H213 C191 0.950 1_565 S
C214 C215 1.349 . S
C214 C216 1.327 . S
C214 H239 0.950 . S
C215 C214 1.349 . S
C215 C231 1.349 . S
C216 C214 1.327 . S
C216 C235 1.429 . S
C216 H240 0.950 . S
C217 C234 1.574 . S
C217 C236 1.368 . S
C217 H241 0.949 . S
H218 C222 0.949 . S
C219 C220 1.349 . S
C219 C221 1.327 . S
C219 H242 0.950 . S
C220 C219 1.349 . S
C220 C232 1.349 . S
C221 C219 1.327 . S
C221 C237 1.429 . S
C221 H243 0.950 . S
C222 H218 0.949 . S
C222 C230 1.574 . S
C222 C238 1.368 . S
H223 C231 0.950 . S
H224 C229 0.950 . S
H225 C230 0.949 . S
H226 C232 0.950 . S
H227 C233 0.950 . S
H228 C234 0.949 . S
C229 H224 0.950 . S
C229 C231 1.327 . S
C229 C235 1.429 . S
C230 C222 1.574 . S
C230 H225 0.949 . S
C230 C236 1.368 . S
C231 C215 1.349 . S
C231 H223 0.950 . S
C231 C229 1.327 . S
C232 C220 1.349 . S
C232 H226 0.950 . S
C232 C233 1.327 . S
C233 H227 0.950 . S
C233 C232 1.327 . S
C233 C237 1.429 . S
C234 C217 1.574 . S
C234 H228 0.949 . S
C234 C238 1.368 . S
C235 C216 1.429 . S
C235 C229 1.429 . S
C235 C236 1.523 . S
C236 C217 1.368 . S
C236 C230 1.368 . S
C236 C235 1.523 . S
C237 C221 1.429 . S
C237 C233 1.429 . S
C237 C238 1.523 . S
C238 C222 1.368 . S
C238 C234 1.368 . S
C238 C237 1.523 . S
H239 C214 0.950 . S
H240 C216 0.950 . S
H241 C217 0.949 . S
H242 C219 0.950 . S
H243 C221 0.950 . S
C244 C245 1.349 . S
C244 C246 1.327 . S
C244 H269 0.950 . S
C245 C244 1.349 . S
C245 C261 1.349 . S
C246 C244 1.327 . S
C246 C265 1.429 . S
C246 H270 0.950 . S
C247 C264 1.574 . S
C247 C266 1.368 . S
C247 H271 0.949 . S
H248 C252 0.949 . S
C249 C250 1.349 . S
C249 C251 1.327 . S
C249 H272 0.950 . S
C250 C249 1.349 . S
C250 C262 1.349 . S
C251 C249 1.327 . S
C251 C267 1.429 . S
C251 H273 0.950 . S
C252 H248 0.949 . S
C252 C260 1.574 . S
C252 C268 1.368 . S
H253 C261 0.950 . S
H254 C259 0.950 . S
H255 C260 0.949 . S
H256 C262 0.950 . S
H257 C263 0.950 . S
H258 C264 0.949 . S
C259 H254 0.950 . S
C259 C261 1.327 . S
C259 C265 1.429 . S
C260 C252 1.574 . S
C260 H255 0.949 . S
C260 C266 1.368 . S
C261 C245 1.349 . S
C261 H253 0.950 . S
C261 C259 1.327 . S
C262 C250 1.349 . S
C262 H256 0.950 . S
C262 C263 1.327 . S
C263 H257 0.950 . S
C263 C262 1.327 . S
C263 C267 1.429 . S
C264 C247 1.574 . S
C264 H258 0.949 . S
C264 C268 1.368 . S
C265 C246 1.429 . S
C265 C259 1.429 . S
C265 C266 1.523 . S
C266 C247 1.368 . S
C266 C260 1.368 . S
C266 C265 1.523 . S
C267 C251 1.429 . S
C267 C263 1.429 . S
C267 C268 1.523 . S
C268 C252 1.368 . S
C268 C264 1.368 . S
C268 C267 1.523 . S
H269 C244 0.950 . S
H270 C246 0.950 . S
H271 C247 0.949 . S
H272 C249 0.950 . S
H273 C251 0.950 . S
C274 C275 1.349 . S
C274 C276 1.327 . S
C274 H299 0.950 . S
C275 C274 1.349 . S
C275 C291 1.349 . S
C276 C274 1.327 . S
C276 C295 1.429 . S
C276 H300 0.950 . S
C277 C294 1.574 . S
C277 C296 1.368 . S
C277 H301 0.949 . S
H278 C282 0.949 . S
C279 C280 1.349 . S
C279 C281 1.327 . S
C279 H302 0.950 . S
C280 C279 1.349 . S
C280 C292 1.349 . S
C281 C279 1.327 . S
C281 C297 1.429 . S
C281 H303 0.950 . S
C282 H278 0.949 . S
C282 C290 1.574 . S
C282 C298 1.368 . S
H283 C291 0.950 . S
H284 C289 0.950 . S
H285 C290 0.949 . S
H286 C292 0.950 . S
H287 C293 0.950 . S
H288 C294 0.949 . S
C289 H284 0.950 . S
C289 C291 1.327 . S
C289 C295 1.429 . S
C290 C282 1.574 . S
C290 H285 0.949 . S
C290 C296 1.368 . S
C291 C275 1.349 . S
C291 H283 0.950 . S
C291 C289 1.327 . S
C292 C280 1.349 . S
C292 H286 0.950 . S
C292 C293 1.327 . S
C293 H287 0.950 . S
C293 C292 1.327 . S
C293 C297 1.429 . S
C294 C277 1.574 . S
C294 H288 0.949 . S
C294 C298 1.368 . S
C295 C276 1.429 . S
C295 C289 1.429 . S
C295 C296 1.523 . S
C296 C277 1.368 . S
C296 C290 1.368 . S
C296 C295 1.523 . S
C297 C281 1.429 . S
C297 C293 1.429 . S
C297 C298 1.523 . S
C298 C282 1.368 . S
C298 C294 1.368 . S
C298 C297 1.523 . S
H299 C274 0.950 . S
H300 C276 0.950 . S
H301 C277 0.949 . S
H302 C279 0.950 . S
H303 C281 0.950 . S
C304 C305 1.349 . S
C304 C306 1.327 . S
C304 H329 0.950 . S
C305 C304 1.349 . S
C305 C321 1.349 1_556 S
C306 C304 1.327 . S
C306 C325 1.429 . S
C306 H330 0.950 . S
C307 C324 1.574 . S
C307 C326 1.368 . S
C307 H331 0.949 . S
H308 C312 0.949 . S
C309 C310 1.349 1_545 S
C309 C311 1.327 . S
C309 H332 0.950 . S
C310 C309 1.349 1_565 S
C310 C322 1.349 . S
C311 C309 1.327 . S
C311 C327 1.429 1_545 S
C311 H333 0.950 . S
C312 H308 0.949 . S
C312 C320 1.574 . S
C312 C328 1.368 . S
H313 C321 0.950 . S
H314 C319 0.950 1_554 S
H315 C320 0.949 . S
H316 C322 0.950 . S
H317 C323 0.950 . S
H318 C324 0.949 1_545 S
C319 H314 0.950 1_556 S
C319 C321 1.327 1_556 S
C319 C325 1.429 . S
C320 C312 1.574 . S
C320 H315 0.949 . S
C320 C326 1.368 . S
C321 C305 1.349 1_554 S
C321 H313 0.950 . S
C321 C319 1.327 1_554 S
C322 C310 1.349 . S
C322 H316 0.950 . S
C322 C323 1.327 . S
C323 H317 0.950 . S
C323 C322 1.327 . S
C323 C327 1.429 . S
C324 C307 1.574 . S
C324 H318 0.949 1_565 S
C324 C328 1.368 . S
C325 C306 1.429 . S
C325 C319 1.429 . S
C325 C326 1.523 . S
C326 C307 1.368 . S
C326 C320 1.368 . S
C326 C325 1.523 . S
C327 C311 1.429 1_565 S
C327 C323 1.429 . S
C327 C328 1.523 . S
C328 C312 1.368 . S
C328 C324 1.368 . S
C328 C327 1.523 . S
H329 C304 0.950 . S
H330 C306 0.950 . S
H331 C307 0.949 . S
H332 C309 0.950 . S
H333 C311 0.950 . S
C334 C335 1.349 1_556 S
C334 C336 1.327 . S
C334 H359 0.950 . S
C335 C334 1.349 1_554 S
C335 C351 1.349 . S
C336 C334 1.327 . S
C336 C355 1.429 . S
C336 H360 0.950 . S
C337 C354 1.574 . S
C337 C356 1.368 . S
C337 H361 0.949 . S
H338 C342 0.949 . S
C339 C340 1.349 . S
C339 C341 1.327 . S
C339 H362 0.950 . S
C340 C339 1.349 . S
C340 C352 1.349 . S
C341 C339 1.327 . S
C341 C357 1.429 . S
C341 H363 0.950 . S
C342 H338 0.949 . S
C342 C350 1.574 . S
C342 C358 1.368 . S
H343 C351 0.950 . S
H344 C349 0.950 . S
H345 C350 0.949 . S
H346 C352 0.950 . S
H347 C353 0.950 . S
H348 C354 0.949 . S
C349 H344 0.950 . S
C349 C351 1.327 . S
C349 C355 1.429 1_554 S
C350 C342 1.574 . S
C350 H345 0.949 . S
C350 C356 1.368 . S
C351 C335 1.349 . S
C351 H343 0.950 . S
C351 C349 1.327 . S
C352 C340 1.349 . S
C352 H346 0.950 . S
C352 C353 1.327 . S
C353 H347 0.950 . S
C353 C352 1.327 . S
C353 C357 1.429 . S
C354 C337 1.574 . S
C354 H348 0.949 . S
C354 C358 1.368 . S
C355 C336 1.429 . S
C355 C349 1.429 1_556 S
C355 C356 1.523 . S
C356 C337 1.368 . S
C356 C350 1.368 . S
C356 C355 1.523 . S
C357 C341 1.429 . S
C357 C353 1.429 . S
C357 C358 1.523 . S
C358 C342 1.368 . S
C358 C354 1.368 . S
C358 C357 1.523 . S
H359 C334 0.950 . S
H360 C336 0.950 . S
H361 C337 0.949 . S
H362 C339 0.950 . S
H363 C341 0.950 . S
C364 C365 1.349 1_556 S
C364 C366 1.327 . S
C364 H389 0.950 . S
C365 C364 1.349 1_554 S
C365 C381 1.349 . S
C366 C364 1.327 . S
C366 C385 1.429 . S
C366 H390 0.950 . S
C367 C384 1.574 . S
C367 C386 1.368 . S
C367 H391 0.949 . S
H368 C372 0.949 . S
C369 C370 1.349 . S
C369 C371 1.327 . S
C369 H392 0.950 . S
C370 C369 1.349 . S
C370 C382 1.349 . S
C371 C369 1.327 . S
C371 C387 1.429 . S
C371 H393 0.950 . S
C372 H368 0.949 . S
C372 C380 1.574 . S
C372 C388 1.368 . S
H373 C381 0.950 . S
H374 C379 0.950 1_554 S
H375 C380 0.949 . S
H376 C382 0.950 . S
H377 C383 0.950 . S
H378 C384 0.949 . S
C379 H374 0.950 1_556 S
C379 C381 1.327 1_556 S
C379 C385 1.429 . S
C380 C372 1.574 . S
C380 H375 0.949 . S
C380 C386 1.368 . S
C381 C365 1.349 . S
C381 H373 0.950 . S
C381 C379 1.327 1_554 S
C382 C370 1.349 . S
C382 H376 0.950 . S
C382 C383 1.327 . S
C383 H377 0.950 . S
C383 C382 1.327 . S
C383 C387 1.429 . S
C384 C367 1.574 . S
C384 H378 0.949 . S
C384 C388 1.368 . S
C385 C366 1.429 . S
C385 C379 1.429 . S
C385 C386 1.523 . S
C386 C367 1.368 . S
C386 C380 1.368 . S
C386 C385 1.523 . S
C387 C371 1.429 . S
C387 C383 1.429 . S
C387 C388 1.523 . S
C388 C372 1.368 . S
C388 C384 1.368 . S
C388 C387 1.523 . S
H389 C364 0.950 . S
H390 C366 0.950 . S
H391 C367 0.949 . S
H392 C369 0.950 . S
H393 C371 0.950 . S
C394 C395 1.349 . S
C394 C396 1.327 . S
C394 H419 0.950 1_556 S
C395 C394 1.349 . S
C395 C411 1.349 . S
C396 C394 1.327 . S
C396 C415 1.429 . S
C396 H420 0.950 . S
C397 C414 1.574 . S
C397 C416 1.368 . S
C397 H421 0.949 . S
H398 C402 0.949 . S
C399 C400 1.349 1_455 S
C399 C401 1.327 1_455 S
C399 H422 0.950 . S
C400 C399 1.349 1_655 S
C400 C412 1.349 . S
C401 C399 1.327 1_655 S
C401 C417 1.429 . S
C401 H423 0.950 1_655 S
C402 H398 0.949 . S
C402 C410 1.574 . S
C402 C418 1.368 . S
H403 C411 0.950 . S
H404 C409 0.950 . S
H405 C410 0.949 . S
H406 C412 0.950 . S
H407 C413 0.950 . S
H408 C414 0.949 . S
C409 H404 0.950 . S
C409 C411 1.327 . S
C409 C415 1.429 . S
C410 C402 1.574 . S
C410 H405 0.949 . S
C410 C416 1.368 . S
C411 C395 1.349 . S
C411 H403 0.950 . S
C411 C409 1.327 . S
C412 C400 1.349 . S
C412 H406 0.950 . S
C412 C413 1.327 . S
C413 H407 0.950 . S
C413 C412 1.327 . S
C413 C417 1.429 . S
C414 C397 1.574 . S
C414 H408 0.949 . S
C414 C418 1.368 . S
C415 C396 1.429 . S
C415 C409 1.429 . S
C415 C416 1.523 . S
C416 C397 1.368 . S
C416 C410 1.368 . S
C416 C415 1.523 . S
C417 C401 1.429 . S
C417 C413 1.429 . S
C417 C418 1.523 . S
C418 C402 1.368 . S
C418 C414 1.368 . S
C418 C417 1.523 . S
H419 C394 0.950 1_554 S
H420 C396 0.950 . S
H421 C397 0.949 . S
H422 C399 0.950 . S
H423 C401 0.950 1_455 S
C424 C425 1.349 . S
C424 C426 1.327 . S
C424 H449 0.950 . S
C425 C424 1.349 . S
C425 C441 1.349 . S
C426 C424 1.327 . S
C426 C445 1.429 . S
C426 H450 0.950 . S
C427 C444 1.574 . S
C427 C446 1.368 . S
C427 H451 0.949 . S
H428 C432 0.949 . S
C429 C430 1.312 1_655 S
C429 C431 1.320 1_655 S
C429 H452 0.996 . S
C430 C429 1.312 1_455 S
C430 C442 1.349 . S
C431 C429 1.320 1_455 S
C431 C447 1.429 . S
C431 H453 0.950 1_455 S
C432 H428 0.949 . S
C432 C440 1.574 . S
C432 C448 1.368 . S
H433 C441 0.950 . S
H434 C439 0.950 . S
H435 C440 0.949 . S
H436 C442 0.950 . S
H437 C443 0.950 . S
H438 C444 0.962 . S
C439 H434 0.950 . S
C439 C441 1.327 . S
C439 C445 1.429 . S
C440 C432 1.574 . S
C440 H435 0.949 . S
C440 C446 1.368 . S
C441 C425 1.349 . S
C441 H433 0.950 . S
C441 C439 1.327 . S
C442 C430 1.349 . S
C442 H436 0.950 . S
C442 C443 1.327 . S
C443 H437 0.950 . S
C443 C442 1.327 . S
C443 C447 1.429 . S
C444 C427 1.574 . S
C444 H438 0.962 . S
C444 C448 1.368 . S
C445 C426 1.429 . S
C445 C439 1.429 . S
C445 C446 1.523 . S
C446 C427 1.368 . S
C446 C440 1.368 . S
C446 C445 1.523 . S
C447 C431 1.429 . S
C447 C443 1.429 . S
C447 C448 1.523 . S
C448 C432 1.368 . S
C448 C444 1.368 . S
C448 C447 1.523 . S
H449 C424 0.950 . S
H450 C426 0.950 . S
H451 C427 0.949 . S
H452 C429 0.996 . S
H453 C431 0.950 1_655 S
C454 C455 1.349 . S
C454 C456 1.327 . S
C454 H479 0.950 . S
C455 C454 1.349 . S
C455 C471 1.349 . S
C456 C454 1.327 . S
C456 C475 1.429 . S
C456 H480 0.950 . S
C457 C474 1.574 . S
C457 C476 1.368 . S
C457 H481 0.949 . S
H458 C462 0.949 . S
C459 C460 1.349 . S
C459 C461 1.327 . S
C459 H482 0.950 . S
C460 C459 1.349 . S
C460 C472 1.349 . S
C461 C459 1.327 . S
C461 C477 1.429 . S
C461 H483 0.950 . S
C462 H458 0.949 . S
C462 C470 1.574 . S
C462 C478 1.368 . S
H463 C471 0.950 . S
H464 C469 0.950 . S
H465 C470 0.949 . S
H466 C472 0.947 1_565 S
H467 C473 0.950 . S
H468 C474 0.949 . S
C469 H464 0.950 . S
C469 C471 1.327 . S
C469 C475 1.429 . S
C470 C462 1.574 . S
C470 H465 0.949 . S
C470 C476 1.368 . S
C471 C455 1.349 . S
C471 H463 0.950 . S
C471 C469 1.327 . S
C472 C460 1.349 . S
C472 H466 0.947 1_545 S
C472 C473 1.327 . S
C473 H467 0.950 . S
C473 C472 1.327 . S
C473 C477 1.429 . S
C474 C457 1.574 . S
C474 H468 0.949 . S
C474 C478 1.368 . S
C475 C456 1.429 . S
C475 C469 1.429 . S
C475 C476 1.523 . S
C476 C457 1.368 . S
C476 C470 1.368 . S
C476 C475 1.523 . S
C477 C461 1.429 . S
C477 C473 1.429 . S
C477 C478 1.523 . S
C478 C462 1.368 . S
C478 C474 1.368 . S
C478 C477 1.523 . S
H479 C454 0.950 . S
H480 C456 0.950 . S
H481 C457 0.949 . S
H482 C459 0.950 . S
H483 C461 0.950 . S
C484 C485 1.349 . S
C484 C486 1.327 . S
C484 H509 0.950 . S
C485 C484 1.349 . S
C485 C501 1.349 . S
C486 C484 1.327 . S
C486 C505 1.429 . S
C486 H510 0.950 . S
C487 C504 1.574 . S
C487 C506 1.368 . S
C487 H511 0.949 . S
H488 C492 0.949 . S
C489 C490 1.349 . S
C489 C491 1.327 . S
C489 H512 0.950 . S
C490 C489 1.349 . S
C490 C502 1.349 . S
C491 C489 1.327 . S
C491 C507 1.429 . S
C491 H513 0.950 . S
C492 H488 0.949 . S
C492 C500 1.574 . S
C492 C508 1.368 . S
H493 C501 0.950 . S
H494 C499 0.950 . S
H495 C500 0.949 . S
H496 C502 0.950 . S
H497 C503 0.950 . S
H498 C504 0.949 . S
C499 H494 0.950 . S
C499 C501 1.327 . S
C499 C505 1.429 . S
C500 C492 1.574 . S
C500 H495 0.949 . S
C500 C506 1.368 . S
C501 C485 1.349 . S
C501 H493 0.950 . S
C501 C499 1.327 . S
C502 C490 1.349 . S
C502 H496 0.950 . S
C502 C503 1.327 . S
C503 H497 0.950 . S
C503 C502 1.327 . S
C503 C507 1.429 . S
C504 C487 1.574 . S
C504 H498 0.949 . S
C504 C508 1.368 . S
C505 C486 1.429 . S
C505 C499 1.429 . S
C505 C506 1.523 . S
C506 C487 1.368 . S
C506 C500 1.368 . S
C506 C505 1.523 . S
C507 C491 1.429 . S
C507 C503 1.429 . S
C507 C508 1.523 . S
C508 C492 1.368 . S
C508 C504 1.368 . S
C508 C507 1.523 . S
H509 C484 0.950 . S
H510 C486 0.950 . S
H511 C487 0.949 . S
H512 C489 0.950 . S
H513 C491 0.950 . S
C514 C515 1.349 . S
C514 C516 1.327 . S
C514 H539 0.950 . S
C515 C514 1.349 . S
C515 C531 1.349 . S
C516 C514 1.327 . S
C516 C535 1.429 . S
C516 H540 0.950 . S
C517 C534 1.574 . S
C517 C536 1.368 . S
C517 H541 0.949 . S
H518 C522 0.949 . S
C519 C520 1.349 . S
C519 C521 1.327 . S
C519 H542 0.950 . S
C520 C519 1.349 . S
C520 C532 1.349 . S
C521 C519 1.327 . S
C521 C537 1.429 . S
C521 H543 0.950 . S
C522 H518 0.949 . S
C522 C530 1.574 . S
C522 C538 1.368 . S
H523 C531 0.950 . S
H524 C529 0.950 . S
H525 C530 0.949 . S
H526 C532 0.950 . S
H527 C533 0.950 . S
H528 C534 0.949 . S
C529 H524 0.950 . S
C529 C531 1.327 . S
C529 C535 1.429 . S
C530 C522 1.574 . S
C530 H525 0.949 . S
C530 C536 1.368 . S
C531 C515 1.349 . S
C531 H523 0.950 . S
C531 C529 1.327 . S
C532 C520 1.349 . S
C532 H526 0.950 . S
C532 C533 1.327 . S
C533 H527 0.950 . S
C533 C532 1.327 . S
C533 C537 1.429 . S
C534 C517 1.574 . S
C534 H528 0.949 . S
C534 C538 1.368 . S
C535 C516 1.429 . S
C535 C529 1.429 . S
C535 C536 1.523 . S
C536 C517 1.368 . S
C536 C530 1.368 . S
C536 C535 1.523 . S
C537 C521 1.429 . S
C537 C533 1.429 . S
C537 C538 1.523 . S
C538 C522 1.368 . S
C538 C534 1.368 . S
C538 C537 1.523 . S
H539 C514 0.950 . S
H540 C516 0.950 . S
H541 C517 0.949 . S
H542 C519 0.950 . S
H543 C521 0.950 . S
C544 C545 1.349 . S
C544 C546 1.327 . S
C544 H569 0.950 . S
C545 C544 1.349 . S
C545 C561 1.349 . S
C546 C544 1.327 . S
C546 C565 1.429 . S
C546 H570 0.950 . S
C547 C564 1.574 . S
C547 C566 1.368 . S
C547 H571 0.949 . S
H548 C552 0.949 1_455 S
C549 C550 1.349 . S
C549 C551 1.327 . S
C549 H572 0.950 . S
C550 C549 1.349 . S
C550 C562 1.349 1_655 S
C551 C549 1.327 . S
C551 C567 1.429 . S
C551 H573 0.950 . S
C552 H548 0.949 1_655 S
C552 C560 1.574 . S
C552 C568 1.368 . S
H553 C561 0.950 . S
H554 C559 0.950 . S
H555 C560 0.949 1_455 S
H556 C562 0.950 . S
H557 C563 0.950 . S
H558 C564 0.949 . S
C559 H554 0.950 . S
C559 C561 1.327 . S
C559 C565 1.429 . S
C560 C552 1.574 . S
C560 H555 0.949 1_655 S
C560 C566 1.368 . S
C561 C545 1.349 . S
C561 H553 0.950 . S
C561 C559 1.327 . S
C562 C550 1.349 1_455 S
C562 H556 0.950 . S
C562 C563 1.327 . S
C563 H557 0.950 . S
C563 C562 1.327 . S
C563 C567 1.429 1_455 S
C564 C547 1.574 . S
C564 H558 0.949 . S
C564 C568 1.368 . S
C565 C546 1.429 . S
C565 C559 1.429 . S
C565 C566 1.523 . S
C566 C547 1.368 . S
C566 C560 1.368 . S
C566 C565 1.523 . S
C567 C551 1.429 . S
C567 C563 1.429 1_655 S
C567 C568 1.523 . S
C568 C552 1.368 . S
C568 C564 1.368 . S
C568 C567 1.523 . S
H569 C544 0.950 . S
H570 C546 0.950 . S
H571 C547 0.949 . S
H572 C549 0.950 . S
H573 C551 0.950 . S
C574 C575 1.349 . S
C574 C576 1.327 . S
C574 H599 0.950 . S
C575 C574 1.349 . S
C575 C591 1.349 1_556 S
C576 C574 1.327 . S
C576 C595 1.429 . S
C576 H600 0.950 . S
C577 C594 1.582 . S
C577 C596 1.368 . S
C577 H601 0.949 1_565 S
H578 C582 0.949 . S
C579 C580 1.349 1_545 S
C579 C581 1.327 . S
C579 H602 0.950 . S
C580 C579 1.349 1_565 S
C580 C592 1.349 . S
C581 C579 1.327 . S
C581 C597 1.429 1_545 S
C581 H603 0.950 . S
C582 H578 0.949 . S
C582 C590 1.574 . S
C582 C598 1.368 . S
H583 C591 0.950 . S
H584 C589 0.950 . S
H585 C590 0.949 . S
H586 C592 0.950 . S
H587 C593 0.950 . S
H588 C594 0.926 1_545 S
C589 H584 0.950 . S
C589 C591 1.327 1_556 S
C589 C595 1.429 . S
C590 C582 1.574 . S
C590 H585 0.949 . S
C590 C596 1.368 . S
C591 C575 1.349 1_554 S
C591 H583 0.950 . S
C591 C589 1.327 1_554 S
C592 C580 1.349 . S
C592 H586 0.950 . S
C592 C593 1.327 . S
C593 H587 0.950 . S
C593 C592 1.327 . S
C593 C597 1.429 . S
C594 C577 1.582 . S
C594 H588 0.926 1_565 S
C594 C598 1.386 . S
C595 C576 1.429 . S
C595 C589 1.429 . S
C595 C596 1.523 . S
C596 C577 1.368 . S
C596 C590 1.368 . S
C596 C595 1.523 . S
C597 C581 1.429 1_565 S
C597 C593 1.429 . S
C597 C598 1.523 . S
C598 C582 1.368 . S
C598 C594 1.386 . S
C598 C597 1.523 . S
H599 C574 0.950 . S
H600 C576 0.950 . S
H601 C577 0.949 1_545 S
H602 C579 0.950 . S
H603 C581 0.950 . S
C604 C605 1.349 1_554 S
C604 C606 1.327 . S
C604 H629 0.950 . S
C605 C604 1.349 1_556 S
C605 C621 1.348 . S
C606 C604 1.327 . S
C606 C625 1.429 1_554 S
C606 H630 0.950 . S
C607 C624 1.574 . S
C607 C626 1.368 . S
C607 H631 0.949 . S
H608 C612 0.949 . S
C609 C610 1.349 . S
C609 C611 1.327 . S
C609 H632 0.950 . S
C610 C609 1.349 . S
C610 C622 1.349 . S
C611 C609 1.327 . S
C611 C627 1.429 . S
C611 H633 0.950 . S
C612 H608 0.949 . S
C612 C620 1.574 . S
C612 C628 1.368 . S
H613 C621 0.950 . S
H614 C619 0.950 . S
H615 C620 0.949 . S
H616 C622 0.950 . S
H617 C623 0.950 . S
H618 C624 0.949 . S
C619 H614 0.950 . S
C619 C621 1.327 . S
C619 C625 1.429 . S
C620 C612 1.574 . S
C620 H615 0.949 . S
C620 C626 1.368 . S
C621 C605 1.348 . S
C621 H613 0.950 . S
C621 C619 1.327 . S
C622 C610 1.349 . S
C622 H616 0.950 . S
C622 C623 1.327 . S
C623 H617 0.950 . S
C623 C622 1.327 . S
C623 C627 1.429 . S
C624 C607 1.574 . S
C624 H618 0.949 . S
C624 C628 1.368 . S
C625 C606 1.429 1_556 S
C625 C619 1.429 . S
C625 C626 1.523 . S
C626 C607 1.368 . S
C626 C620 1.368 . S
C626 C625 1.523 . S
C627 C611 1.429 . S
C627 C623 1.429 . S
C627 C628 1.523 . S
C628 C612 1.368 . S
C628 C624 1.368 . S
C628 C627 1.523 . S
H629 C604 0.950 . S
H630 C606 0.950 . S
H631 C607 0.949 . S
H632 C609 0.950 . S
H633 C611 0.950 . S
C634 C635 1.349 . S
C634 C636 1.327 . S
C634 H659 0.950 . S
C635 C634 1.349 . S
C635 C651 1.349 . S
C636 C634 1.327 . S
C636 C655 1.429 . S
C636 H660 0.950 . S
C637 C654 1.574 . S
C637 C656 1.368 . S
C637 H661 0.949 . S
H638 C642 0.949 . S
C639 C640 1.349 . S
C639 C641 1.327 . S
C639 H662 0.950 . S
C640 C639 1.349 . S
C640 C652 1.349 . S
C641 C639 1.327 . S
C641 C657 1.429 . S
C641 H663 0.950 . S
C642 H638 0.949 . S
C642 C650 1.574 . S
C642 C658 1.368 . S
H643 C651 0.950 . S
H644 C649 0.950 . S
H645 C650 0.949 . S
H646 C652 0.950 . S
H647 C653 0.950 . S
H648 C654 0.949 . S
C649 H644 0.950 . S
C649 C651 1.327 . S
C649 C655 1.429 . S
C650 C642 1.574 . S
C650 H645 0.949 . S
C650 C656 1.368 . S
C651 C635 1.349 . S
C651 H643 0.950 . S
C651 C649 1.327 . S
C652 C640 1.349 . S
C652 H646 0.950 . S
C652 C653 1.327 . S
C653 H647 0.950 . S
C653 C652 1.327 . S
C653 C657 1.429 . S
C654 C637 1.574 . S
C654 H648 0.949 . S
C654 C658 1.368 . S
C655 C636 1.429 . S
C655 C649 1.429 . S
C655 C656 1.523 . S
C656 C637 1.368 . S
C656 C650 1.368 . S
C656 C655 1.523 . S
C657 C641 1.429 . S
C657 C653 1.429 . S
C657 C658 1.523 . S
C658 C642 1.368 . S
C658 C654 1.368 . S
C658 C657 1.523 . S
H659 C634 0.950 . S
H660 C636 0.950 . S
H661 C637 0.949 . S
H662 C639 0.950 . S
H663 C641 0.950 . S
C664 C665 1.349 . S
C664 C666 1.327 . S
C664 H689 0.950 . S
C665 C664 1.349 . S
C665 C681 1.349 . S
C666 C664 1.327 . S
C666 C685 1.429 . S
C666 H690 0.950 . S
C667 C684 1.574 . S
C667 C686 1.368 . S
C667 H691 0.949 . S
H668 C672 0.949 . S
C669 C670 1.349 . S
C669 C671 1.327 . S
C669 H692 0.950 . S
C670 C669 1.349 . S
C670 C682 1.349 . S
C671 C669 1.327 . S
C671 C687 1.429 . S
C671 H693 0.950 1_556 S
C672 H668 0.949 . S
C672 C680 1.574 1_556 S
C672 C688 1.368 . S
H673 C681 0.950 . S
H674 C679 0.950 . S
H675 C680 0.951 . S
H676 C682 0.950 . S
H677 C683 0.950 . S
H678 C684 0.949 . S
C679 H674 0.950 . S
C679 C681 1.327 . S
C679 C685 1.429 . S
C680 C672 1.574 1_554 S
C680 H675 0.951 . S
C680 C686 1.368 . S
C681 C665 1.349 . S
C681 H673 0.950 . S
C681 C679 1.327 . S
C682 C670 1.349 . S
C682 H676 0.950 . S
C682 C683 1.327 . S
C683 H677 0.950 . S
C683 C682 1.327 . S
C683 C687 1.429 . S
C684 C667 1.574 . S
C684 H678 0.949 . S
C684 C688 1.368 1_554 S
C685 C666 1.429 . S
C685 C679 1.429 . S
C685 C686 1.523 . S
C686 C667 1.368 . S
C686 C680 1.368 . S
C686 C685 1.523 . S
C687 C671 1.429 . S
C687 C683 1.429 . S
C687 C688 1.523 . S
C688 C672 1.368 . S
C688 C684 1.368 1_556 S
C688 C687 1.523 . S
H689 C664 0.950 . S
H690 C666 0.950 . S
H691 C667 0.949 . S
H692 C669 0.950 . S
H693 C671 0.950 1_554 S
C694 C695 1.349 . S
C694 C696 1.327 . S
C694 H719 0.950 . S
C695 C694 1.349 . S
C695 C711 1.349 . S
C696 C694 1.327 . S
C696 C715 1.429 . S
C696 H720 0.950 . S
C697 C714 1.574 1_554 S
C697 C716 1.368 . S
C697 H721 0.949 . S
H698 C702 0.912 1_565 S
C699 C700 1.349 . S
C699 C701 1.327 . S
C699 H722 0.950 . S
C700 C699 1.349 . S
C700 C712 1.349 . S
C701 C699 1.327 . S
C701 C717 1.429 . S
C701 H723 0.950 . S
C702 H698 0.912 1_545 S
C702 C710 1.574 1_556 S
C702 C718 1.368 . S
H703 C711 0.950 . S
H704 C709 0.950 . S
H705 C710 0.949 . S
H706 C712 0.950 1_565 S
H707 C713 0.950 1_565 S
H708 C714 0.949 . S
C709 H704 0.950 . S
C709 C711 1.327 . S
C709 C715 1.429 . S
C710 C702 1.574 1_554 S
C710 H705 0.949 . S
C710 C716 1.368 . S
C711 C695 1.349 . S
C711 H703 0.950 . S
C711 C709 1.327 . S
C712 C700 1.349 . S
C712 H706 0.950 1_545 S
C712 C713 1.327 . S
C713 H707 0.950 1_545 S
C713 C712 1.327 . S
C713 C717 1.429 . S
C714 C697 1.574 1_556 S
C714 H708 0.949 . S
C714 C718 1.368 . S
C715 C696 1.429 . S
C715 C709 1.429 . S
C715 C716 1.523 . S
C716 C697 1.368 . S
C716 C710 1.368 . S
C716 C715 1.523 . S
C717 C701 1.429 . S
C717 C713 1.429 . S
C717 C718 1.523 . S
C718 C702 1.368 . S
C718 C714 1.368 . S
C718 C717 1.523 . S
H719 C694 0.950 . S
H720 C696 0.950 . S
H721 C697 0.949 . S
H722 C699 0.950 . S
H723 C701 0.950 . S
C724 C725 1.349 . S
C724 C726 1.327 . S
C724 H749 0.950 . S
C725 C724 1.349 . S
C725 C741 1.349 . S
C726 C724 1.327 . S
C726 C745 1.429 . S
C726 H750 0.950 . S
C727 C744 1.574 . S
C727 C746 1.368 . S
C727 H751 0.949 . S
H728 C732 0.949 . S
C729 C730 1.349 . S
C729 C731 1.327 . S
C729 H752 0.950 . S
C730 C729 1.349 . S
C730 C742 1.349 . S
C731 C729 1.327 . S
C731 C747 1.429 . S
C731 H753 0.950 . S
C732 H728 0.949 . S
C732 C740 1.574 . S
C732 C748 1.368 . S
H733 C741 0.950 . S
H734 C739 0.950 . S
H735 C740 0.949 . S
H736 C742 0.950 . S
H737 C743 0.950 . S
H738 C744 0.949 . S
C739 H734 0.950 . S
C739 C741 1.327 . S
C739 C745 1.429 . S
C740 C732 1.574 . S
C740 H735 0.949 . S
C740 C746 1.368 1_556 S
C741 C725 1.349 . S
C741 H733 0.950 . S
C741 C739 1.327 . S
C742 C730 1.349 . S
C742 H736 0.950 . S
C742 C743 1.327 . S
C743 H737 0.950 . S
C743 C742 1.327 . S
C743 C747 1.429 . S
C744 C727 1.574 . S
C744 H738 0.949 . S
C744 C748 1.368 1_554 S
C745 C726 1.429 . S
C745 C739 1.429 . S
C745 C746 1.523 . S
C746 C727 1.368 . S
C746 C740 1.368 1_554 S
C746 C745 1.523 . S
C747 C731 1.429 . S
C747 C743 1.429 . S
C747 C748 1.523 . S
C748 C732 1.368 . S
C748 C744 1.368 1_556 S
C748 C747 1.523 . S
H749 C724 0.950 . S
H750 C726 0.950 . S
H751 C727 0.949 . S
H752 C729 0.950 . S
H753 C731 0.950 . S
C754 C755 1.349 . S
C754 C756 1.327 . S
C754 H779 0.950 . S
C755 C754 1.349 . S
C755 C771 1.349 . S
C756 C754 1.327 . S
C756 C775 1.429 . S
C756 H780 0.950 . S
C757 C774 1.574 1_554 S
C757 C776 1.368 . S
C757 H781 0.949 . S
H758 C762 0.949 . S
C759 C760 1.349 . S
C759 C761 1.327 . S
C759 H782 0.950 . S
C760 C759 1.349 . S
C760 C772 1.349 . S
C761 C759 1.327 . S
C761 C777 1.429 . S
C761 H783 0.950 . S
C762 H758 0.949 . S
C762 C770 1.574 . S
C762 C778 1.368 1_554 S
H763 C771 0.950 . S
H764 C769 0.950 . S
H765 C770 0.949 . S
H766 C772 0.950 . S
H767 C773 0.950 . S
H768 C774 0.949 . S
C769 H764 0.950 . S
C769 C771 1.327 . S
C769 C775 1.429 . S
C770 C762 1.574 . S
C770 H765 0.949 . S
C770 C776 1.368 . S
C771 C755 1.349 . S
C771 H763 0.950 . S
C771 C769 1.327 . S
C772 C760 1.349 . S
C772 H766 0.950 . S
C772 C773 1.327 . S
C773 H767 0.950 . S
C773 C772 1.327 . S
C773 C777 1.429 . S
C774 C757 1.574 1_556 S
C774 H768 0.949 . S
C774 C778 1.368 . S
C775 C756 1.429 . S
C775 C769 1.429 . S
C775 C776 1.523 . S
C776 C757 1.368 . S
C776 C770 1.368 . S
C776 C775 1.523 . S
C777 C761 1.429 . S
C777 C773 1.429 . S
C777 C778 1.523 . S
C778 C762 1.368 1_556 S
C778 C774 1.368 . S
C778 C777 1.523 . S
H779 C754 0.950 . S
H780 C756 0.950 . S
H781 C757 0.949 . S
H782 C759 0.950 . S
H783 C761 0.950 . S
C784 C785 1.349 . S
C784 C786 1.327 . S
C784 H809 0.950 . S
C785 C784 1.349 . S
C785 C801 1.349 . S
C786 C784 1.327 . S
C786 C805 1.429 . S
C786 H810 0.950 . S
C787 C804 1.574 . S
C787 C806 1.368 . S
C787 H811 0.949 . S
H788 C792 0.949 1_455 S
C789 C790 1.349 . S
C789 C791 1.327 . S
C789 H812 0.950 . S
C790 C789 1.349 . S
C790 C802 1.321 1_655 S
C791 C789 1.327 . S
C791 C807 1.429 . S
C791 H813 0.950 . S
C792 H788 0.949 1_655 S
C792 C800 1.574 . S
C792 C808 1.368 . S
H793 C801 0.950 . S
H794 C799 0.950 . S
H795 C800 0.949 . S
H796 C802 0.985 . S
H797 C803 0.950 1_455 S
H798 C804 0.949 . S
C799 H794 0.950 . S
C799 C801 1.327 . S
C799 C805 1.429 . S
C800 C792 1.574 . S
C800 H795 0.949 . S
C800 C806 1.368 . S
C801 C785 1.349 . S
C801 H793 0.950 . S
C801 C799 1.327 . S
C802 C790 1.321 1_455 S
C802 H796 0.985 . S
C802 C803 1.322 1_455 S
C803 H797 0.950 1_655 S
C803 C802 1.322 1_655 S
C803 C807 1.429 . S
C804 C787 1.574 . S
C804 H798 0.949 . S
C804 C808 1.368 . S
C805 C786 1.429 . S
C805 C799 1.429 . S
C805 C806 1.523 . S
C806 C787 1.368 . S
C806 C800 1.368 . S
C806 C805 1.523 . S
C807 C791 1.429 . S
C807 C803 1.429 . S
C807 C808 1.523 . S
C808 C792 1.368 . S
C808 C804 1.368 . S
C808 C807 1.523 . S
H809 C784 0.950 . S
H810 C786 0.950 . S
H811 C787 0.949 . S
H812 C789 0.950 . S
H813 C791 0.950 . S
C814 C815 1.349 . S
C814 C816 1.327 . S
C814 H839 0.950 . S
C815 C814 1.349 . S
C815 C831 1.349 . S
C816 C814 1.327 . S
C816 C835 1.429 . S
C816 H840 0.950 . S
C817 C834 1.574 . S
C817 C836 1.368 . S
C817 H841 0.949 . S
H818 C822 0.949 . S
C819 C820 1.357 . S
C819 C821 1.333 . S
C819 H842 0.937 1_565 S
C820 C819 1.357 . S
C820 C832 1.349 . S
C821 C819 1.333 . S
C821 C837 1.429 . S
C821 H843 0.954 . S
C822 H818 0.949 . S
C822 C830 1.574 . S
C822 C838 1.368 . S
H823 C831 0.950 . S
H824 C829 0.950 . S
H825 C830 0.949 . S
H826 C832 0.950 . S
H827 C833 0.950 . S
H828 C834 0.949 . S
C829 H824 0.950 . S
C829 C831 1.327 . S
C829 C835 1.429 . S
C830 C822 1.574 . S
C830 H825 0.949 . S
C830 C836 1.368 . S
C831 C815 1.349 . S
C831 H823 0.950 . S
C831 C829 1.327 . S
C832 C820 1.349 . S
C832 H826 0.950 . S
C832 C833 1.327 . S
C833 H827 0.950 . S
C833 C832 1.327 . S
C833 C837 1.429 . S
C834 C817 1.574 . S
C834 H828 0.949 . S
C834 C838 1.368 . S
C835 C816 1.429 . S
C835 C829 1.429 . S
C835 C836 1.523 . S
C836 C817 1.368 . S
C836 C830 1.368 . S
C836 C835 1.523 . S
C837 C821 1.429 . S
C837 C833 1.429 . S
C837 C838 1.523 . S
C838 C822 1.368 . S
C838 C834 1.368 . S
C838 C837 1.523 . S
H839 C814 0.950 . S
H840 C816 0.950 . S
H841 C817 0.949 . S
H842 C819 0.937 1_545 S
H843 C821 0.954 . S
C844 C845 1.349 . S
C844 C846 1.327 . S
C844 H869 0.950 . S
C845 C844 1.349 . S
C845 C861 1.349 . S
C846 C844 1.327 . S
C846 C865 1.429 . S
C846 H870 0.950 . S
C847 C864 1.574 . S
C847 C866 1.368 . S
C847 H871 0.949 . S
H848 C852 0.949 . S
C849 C850 1.349 . S
C849 C851 1.327 . S
C849 H872 0.950 . S
C850 C849 1.349 . S
C850 C862 1.349 . S
C851 C849 1.327 . S
C851 C867 1.429 . S
C851 H873 0.950 . S
C852 H848 0.949 . S
C852 C860 1.574 . S
C852 C868 1.368 . S
H853 C861 0.950 . S
H854 C859 0.950 . S
H855 C860 0.949 . S
H856 C862 0.950 . S
H857 C863 0.950 . S
H858 C864 0.949 . S
C859 H854 0.950 . S
C859 C861 1.327 . S
C859 C865 1.429 . S
C860 C852 1.574 . S
C860 H855 0.949 . S
C860 C866 1.368 . S
C861 C845 1.349 . S
C861 H853 0.950 . S
C861 C859 1.327 . S
C862 C850 1.349 . S
C862 H856 0.950 . S
C862 C863 1.327 . S
C863 H857 0.950 . S
C863 C862 1.327 . S
C863 C867 1.429 . S
C864 C847 1.574 . S
C864 H858 0.949 . S
C864 C868 1.368 . S
C865 C846 1.429 . S
C865 C859 1.429 . S
C865 C866 1.523 . S
C866 C847 1.368 . S
C866 C860 1.368 . S
C866 C865 1.523 . S
C867 C851 1.429 . S
C867 C863 1.429 . S
C867 C868 1.523 . S
C868 C852 1.368 . S
C868 C864 1.368 . S
C868 C867 1.523 . S
H869 C844 0.950 . S
H870 C846 0.950 . S
H871 C847 0.949 . S
H872 C849 0.950 . S
H873 C851 0.950 . S
C874 C875 1.349 . S
C874 C876 1.327 . S
C874 H899 0.950 . S
C875 C874 1.349 . S
C875 C891 1.349 . S
C876 C874 1.327 . S
C876 C895 1.429 . S
C876 H900 0.950 . S
C877 C894 1.574 . S
C877 C896 1.368 . S
C877 H901 0.949 . S
H878 C882 0.949 . S
C879 C880 1.349 . S
C879 C881 1.327 . S
C879 H902 0.950 . S
C880 C879 1.349 . S
C880 C892 1.349 . S
C881 C879 1.327 . S
C881 C897 1.429 . S
C881 H903 0.950 . S
C882 H878 0.949 . S
C882 C890 1.574 . S
C882 C898 1.368 . S
H883 C891 0.950 . S
H884 C889 0.950 . S
H885 C890 0.949 . S
H886 C892 0.950 . S
H887 C893 0.950 . S
H888 C894 0.949 . S
C889 H884 0.950 . S
C889 C891 1.327 . S
C889 C895 1.429 . S
C890 C882 1.574 . S
C890 H885 0.949 . S
C890 C896 1.368 . S
C891 C875 1.349 . S
C891 H883 0.950 . S
C891 C889 1.327 . S
C892 C880 1.349 . S
C892 H886 0.950 . S
C892 C893 1.327 . S
C893 H887 0.950 . S
C893 C892 1.327 . S
C893 C897 1.429 . S
C894 C877 1.574 . S
C894 H888 0.949 . S
C894 C898 1.368 . S
C895 C876 1.429 . S
C895 C889 1.429 . S
C895 C896 1.523 . S
C896 C877 1.368 . S
C896 C890 1.368 . S
C896 C895 1.523 . S
C897 C881 1.429 . S
C897 C893 1.429 . S
C897 C898 1.523 . S
C898 C882 1.368 . S
C898 C894 1.368 . S
C898 C897 1.523 . S
H899 C874 0.950 . S
H900 C876 0.950 . S
H901 C877 0.949 . S
H902 C879 0.950 . S
H903 C881 0.950 . S
C185 C82 1.538 . S
C190 C105 1.611 . S
C220 C140 1.630 . S
C215 C95 1.551 . S
C250 C145 1.288 . S
C245 C56 1.217 . S
C280 C165 1.404 . S
C275 C69 1.351 . S
C310 C113 1.612 1_565 S
C305 C30 1.491 1_556 S
C335 C43 1.480 . S
C340 C130 1.630 . S
C365 C4 1.197 . S
C370 C153 1.288 . S
C395 C17 1.305 . S
C400 C173 1.405 1_655 S
C430 C123 1.102 . S
C425 C74 1.096 . S
C460 C132 0.799 . S
C455 C87 0.797 . S
C490 C163 1.215 . S
C485 C100 1.208 . S
C515 C61 0.851 . S
C520 C183 0.849 . S
C545 C22 1.094 . S
C550 C112 1.103 1_655 S
C580 C143 0.798 1_565 S
C575 C35 0.796 1_556 S
C610 C152 1.215 . S
C605 C48 1.205 1_556 S
C635 C9 0.851 1_556 S
C640 C172 0.849 . S
C665 C73 1.466 . S
C670 C110 1.479 . S
C695 C86 1.408 . S
C700 C133 1.456 . S
C730 C150 1.598 . S
C725 C99 1.560 . S
C760 C170 1.604 . S
C755 C60 1.580 . S
C785 C21 1.462 . S
C790 C120 1.479 . S
C820 C125 1.470 . S
C815 C34 1.404 . S
C850 C160 1.598 . S
C845 C47 1.553 . S
C875 C8 1.578 . S
C880 C180 1.604 . S
