# Generated by pormake.
# Topology pyr, (3,6)-cn, num edge types: 1
# Building blocks:
#     Node 0, Type 0, BuildingBlock: CUQRIR_clean_linker_1, # of connection points: 3
#     Node 1, Type 0, BuildingBlock: CUQRIR_clean_linker_1, # of connection points: 3
#     Node 2, Type 0, BuildingBlock: CUQRIR_clean_linker_1, # of connection points: 3
#     Node 3, Type 0, BuildingBlock: CUQRIR_clean_linker_1, # of connection points: 3
#     Node 4, Type 0, BuildingBlock: CUQRIR_clean_linker_1, # of connection points: 3
#     Node 5, Type 0, BuildingBlock: CUQRIR_clean_linker_1, # of connection points: 3
#     Node 6, Type 0, BuildingBlock: CUQRIR_clean_linker_1, # of connection points: 3
#     Node 7, Type 0, BuildingBlock: CUQRIR_clean_linker_1, # of connection points: 3
#     Node 8, Type 1, BuildingBlock: INOVEN_clean_sbu_0, # of connection points: 6
#     Node 9, Type 1, BuildingBlock: INOVEN_clean_sbu_0, # of connection points: 6
#     Node 10, Type 1, BuildingBlock: INOVEN_clean_sbu_0, # of connection points: 6
#     Node 11, Type 1, BuildingBlock: INOVEN_clean_sbu_0, # of connection points: 6
#     Edge 12, Type (0, 1), BuildingBlock: EZIPEK_clean_linker_0, # of connection points: 2
#     Edge 13, Type (0, 1), BuildingBlock: EZIPEK_clean_linker_0, # of connection points: 2
#     Edge 14, Type (0, 1), BuildingBlock: EZIPEK_clean_linker_0, # of connection points: 2
#     Edge 15, Type (0, 1), BuildingBlock: EZIPEK_clean_linker_0, # of connection points: 2
#     Edge 16, Type (0, 1), BuildingBlock: EZIPEK_clean_linker_0, # of connection points: 2
#     Edge 17, Type (0, 1), BuildingBlock: EZIPEK_clean_linker_0, # of connection points: 2
#     Edge 18, Type (0, 1), BuildingBlock: EZIPEK_clean_linker_0, # of connection points: 2
#     Edge 19, Type (0, 1), BuildingBlock: EZIPEK_clean_linker_0, # of connection points: 2
#     Edge 20, Type (0, 1), BuildingBlock: EZIPEK_clean_linker_0, # of connection points: 2
#     Edge 21, Type (0, 1), BuildingBlock: EZIPEK_clean_linker_0, # of connection points: 2
#     Edge 22, Type (0, 1), BuildingBlock: EZIPEK_clean_linker_0, # of connection points: 2
#     Edge 23, Type (0, 1), BuildingBlock: EZIPEK_clean_linker_0, # of connection points: 2
#     Edge 24, Type (0, 1), BuildingBlock: EZIPEK_clean_linker_0, # of connection points: 2
#     Edge 25, Type (0, 1), BuildingBlock: EZIPEK_clean_linker_0, # of connection points: 2
#     Edge 26, Type (0, 1), BuildingBlock: EZIPEK_clean_linker_0, # of connection points: 2
#     Edge 27, Type (0, 1), BuildingBlock: EZIPEK_clean_linker_0, # of connection points: 2
#     Edge 28, Type (0, 1), BuildingBlock: EZIPEK_clean_linker_0, # of connection points: 2
#     Edge 29, Type (0, 1), BuildingBlock: EZIPEK_clean_linker_0, # of connection points: 2
#     Edge 30, Type (0, 1), BuildingBlock: EZIPEK_clean_linker_0, # of connection points: 2
#     Edge 31, Type (0, 1), BuildingBlock: EZIPEK_clean_linker_0, # of connection points: 2
#     Edge 32, Type (0, 1), BuildingBlock: EZIPEK_clean_linker_0, # of connection points: 2
#     Edge 33, Type (0, 1), BuildingBlock: EZIPEK_clean_linker_0, # of connection points: 2
#     Edge 34, Type (0, 1), BuildingBlock: EZIPEK_clean_linker_0, # of connection points: 2
#     Edge 35, Type (0, 1), BuildingBlock: EZIPEK_clean_linker_0, # of connection points: 2
# Relax obj value: 0.294
# Max RMSD: 0.273
# Mean RMSD: 0.177
data_MOF--net-pyr--node1-INOVEN_clean_sbu_0--node2-CUQRIR_clean_linker_1--edge1-EZIPEK_clean_linker_0
_symmetry_space_group_name_H-M    P1
_symmetry_Int_Tables_number       1
_symmetry_cell_setting            triclinic
loop_
_symmetry_equiv_pos_as_xyz
'x, y, z'
_cell_length_a     25.172866
_cell_length_b     26.178841
_cell_length_c     23.711348
_cell_angle_alpha  90.221317
_cell_angle_beta   89.503094
_cell_angle_gamma 108.4347
loop_
_atom_site_label
_atom_site_type_symbol
_atom_site_fract_x
_atom_site_fract_y
_atom_site_fract_z
_atom_type_partial_charge
C0 C 0.41659 0.44021 0.26685 0.0
N1 N 0.44755 0.40653 0.2668 0.0
N2 N 0.42127 0.46625 0.21692 0.0
C3 C 0.37412 0.44021 0.31195 0.0
C4 C 0.45833 0.44818 0.18716 0.0
N5 N 0.47417 0.41156 0.21756 0.0
C6 C 0.47742 0.46531 0.12809 0.0
H7 H 0.33514 0.40643 0.30417 0.0
H8 H 0.36391 0.4784 0.31211 0.0
H9 H 0.39033 0.43438 0.35395 0.0
H10 H 0.48945 0.50982 0.12509 0.0
H11 H 0.44261 0.44843 0.09822 0.0
H12 H 0.51345 0.45179 0.11577 0.0
C13 C 0.16945 0.89389 0.6944 0.0
N14 N 0.18426 0.94489 0.71475 0.0
N15 N 0.19828 0.86508 0.7208 0.0
C16 C 0.12389 0.87193 0.65197 0.0
C17 C 0.22901 0.89999 0.75968 0.0
N18 N 0.21993 0.9478 0.75641 0.0
C19 C 0.26952 0.88831 0.80016 0.0
H20 H 0.11631 0.82838 0.64421 0.0
H21 H 0.13494 0.8947 0.61186 0.0
H22 H 0.08478 0.87812 0.66791 0.0
H23 H 0.2964 0.8685 0.77771 0.0
H24 H 0.24582 0.86075 0.83363 0.0
H25 H 0.29683 0.92548 0.82043 0.0
C26 C 0.64444 0.45576 0.89099 0.0
N27 N 0.67497 0.44753 0.93568 0.0
N28 N 0.6635 0.50742 0.87188 0.0
C29 C 0.59486 0.41351 0.86642 0.0
C30 C 0.70759 0.5305 0.90633 0.0
N31 N 0.71531 0.49475 0.94482 0.0
C32 C 0.74386 0.58824 0.90204 0.0
H33 H 0.59756 0.37254 0.87355 0.0
H34 H 0.59189 0.42028 0.82054 0.0
H35 H 0.55614 0.41632 0.88703 0.0
H36 H 0.724 0.61206 0.87586 0.0
H37 H 0.7846 0.58992 0.88255 0.0
H38 H 0.75235 0.60639 0.94473 0.0
C39 C 0.86147 0.77862 0.39883 0.0
N40 N 0.91376 0.81196 0.3839 0.0
N41 N 0.84283 0.79375 0.44805 0.0
C42 C 0.82911 0.72938 0.36626 0.0
C43 C 0.88527 0.83771 0.4634 0.0
N44 N 0.92828 0.85047 0.42492 0.0
C45 C 0.88283 0.8706 0.51521 0.0
H46 H 0.83583 0.73639 0.32025 0.0
H47 H 0.7837 0.71791 0.37612 0.0
H48 H 0.84414 0.69536 0.37802 0.0
H49 H 0.85685 0.84513 0.54889 0.0
H50 H 0.86347 0.90179 0.50394 0.0
H51 H 0.9253 0.89091 0.53197 0.0
C52 C 0.61631 0.87398 0.95717 0.0
N53 N 0.65634 0.85532 0.93494 0.0
N54 N 0.60399 0.90867 0.92109 0.0
C55 C 0.59153 0.86126 1.0155 0.0
C56 C 0.6339 0.90599 0.87398 0.0
N57 N 0.66679 0.87479 0.88282 0.0
C58 C 0.63777 0.94065 0.82263 0.0
H59 H 0.54551 0.84273 1.01233 0.0
H60 H 0.59941 0.89893 1.04032 0.0
H61 H 0.60864 0.83294 1.03803 0.0
H62 H 0.60616 0.96209 0.82409 0.0
H63 H 0.63107 0.91518 0.78421 0.0
H64 H 0.68037 0.97034 0.81939 0.0
C65 C 0.8619 0.35198 0.57599 0.0
N66 N 0.87209 0.31838 0.53678 0.0
N67 N 0.82841 0.3785 0.55414 0.0
C68 C 0.88614 0.36005 0.63411 0.0
C69 C 0.81933 0.36031 0.50056 0.0
N70 N 0.84659 0.32474 0.48989 0.0
C71 C 0.7846 0.37811 0.45814 0.0
H72 H 0.86736 0.32293 0.65919 0.0
H73 H 0.87798 0.39453 0.6557 0.0
H74 H 0.93191 0.36687 0.6315 0.0
H75 H 0.74833 0.38594 0.47906 0.0
H76 H 0.76919 0.34742 0.42463 0.0
H77 H 0.81084 0.41603 0.43811 0.0
C78 C 0.36165 0.7992 0.31637 0.0
N79 N 0.41453 0.83184 0.32926 0.0
N80 N 0.34543 0.80985 0.2646 0.0
C81 C 0.32642 0.75444 0.35328 0.0
C82 C 0.38939 0.85059 0.24573 0.0
N83 N 0.43117 0.86556 0.28452 0.0
C84 C 0.3895 0.87935 0.19057 0.0
H85 H 0.3315 0.71582 0.33899 0.0
H86 H 0.28147 0.7508 0.34955 0.0
H87 H 0.33916 0.76132 0.39808 0.0
H88 H 0.38042 0.9175 0.19884 0.0
H89 H 0.3575 0.8549 0.1611 0.0
H90 H 0.4312 0.88936 0.16985 0.0
C91 C 0.14664 0.47544 0.81267 0.0
N92 N 0.18019 0.46879 0.7691 0.0
N93 N 0.16678 0.52505 0.83741 0.0
C94 C 0.09365 0.43306 0.8308 0.0
C95 C 0.21439 0.54846 0.80676 0.0
N96 N 0.22274 0.51541 0.76492 0.0
C97 C 0.25213 0.60485 0.81641 0.0
H98 H 0.0737 0.44638 0.86745 0.0
H99 H 0.10292 0.39566 0.84193 0.0
H100 H 0.06399 0.42338 0.795 0.0
H101 H 0.24639 0.6195 0.85924 0.0
H102 H 0.24177 0.63143 0.78506 0.0
H103 H 0.29659 0.60728 0.81009 0.0
Gd104 Gd 0.11764 0.18705 0.53434 0.0
Gd105 Gd 0.05074 0.13176 0.62891 0.0
C106 C 0.1165 0.26033 0.64642 0.0
C107 C 0.18141 0.25043 0.46173 0.0
C108 C 0.23884 0.25628 0.44505 0.0
C109 C 0.25927 0.21215 0.44579 0.0
C110 C 0.27569 0.30805 0.43609 0.0
C111 C 0.35115 0.27076 0.41834 0.0
C112 C 0.33148 0.31533 0.4233 0.0
C113 C 0.3154 0.21943 0.43283 0.0
C114 C 0.16859 0.12901 0.59715 0.0
C115 C 0.04322 1.06443 0.51181 0.0
C116 C 1.00609 1.07593 0.71567 0.0
C117 C 0.9551 1.02966 0.72414 0.0
C118 C 0.90259 1.03739 0.72914 0.0
C119 C 0.95871 0.97718 0.72842 0.0
C120 C 0.86017 0.94308 0.75209 0.0
C121 C 0.91125 0.9339 0.7418 0.0
C122 C 0.8555 0.99435 0.74285 0.0
C123 C 0.98984 0.16724 0.55196 0.0
O124 O 0.12623 0.25996 0.59144 0.0
O125 O 0.09083 0.21401 0.67267 0.0
O126 O 0.14225 0.20627 0.44687 0.0
O127 O 0.17723 0.26384 0.51398 0.0
O128 O 0.16878 0.13051 0.54298 0.0
O129 O 0.14098 0.15801 0.61481 0.0
O130 O 0.04559 1.06174 0.56761 0.0
O131 O 0.06009 0.11289 0.48783 0.0
O132 O 0.99946 0.12252 0.7042 0.0
O133 O 0.04537 1.06613 0.68531 0.0
O134 O 0.97158 0.12249 0.57962 0.0
O135 O 1.03842 0.19101 0.5686 0.0
H136 H 0.23169 0.17203 0.45498 0.0
H137 H 0.26103 0.34276 0.43781 0.0
H138 H 0.35803 0.35541 0.41238 0.0
H139 H 0.32979 0.18464 0.43031 0.0
H140 H 0.89814 1.07704 0.72517 0.0
H141 H 0.99863 0.96999 0.72405 0.0
H142 H 0.91549 0.89461 0.74943 0.0
H143 H 0.81624 1.00199 0.75099 0.0
Gd144 Gd 0.61165 0.16055 0.13796 0.0
Gd145 Gd 0.50717 0.15377 0.10242 0.0
C146 C 0.55089 0.22969 0.20271 0.0
C147 C 0.71719 0.17097 0.14627 0.0
C148 C 0.76567 0.20811 0.17367 0.0
C149 C 0.80956 0.18902 0.18946 0.0
C150 C 0.76057 0.25508 0.19821 0.0
C151 C 0.83192 0.25391 0.26528 0.0
C152 C 0.79383 0.27803 0.24399 0.0
C153 C 0.84307 0.21217 0.2353 0.0
C154 C 0.53627 1.08012 0.19781 0.0
C155 C 0.55622 1.08123 1.03227 0.0
C156 C 0.40339 0.14728 0.08764 0.0
C157 C 0.36488 0.12216 1.04178 0.0
C158 C 0.3356 0.15177 1.01327 0.0
C159 C 0.36201 1.07068 1.02203 0.0
C160 C 0.30383 1.07992 0.94449 0.0
C161 C 0.33156 1.04974 0.97391 0.0
C162 C 0.30515 0.13073 0.96469 0.0
C163 C 0.58864 0.23593 1.04637 0.0
O164 O 0.60046 0.23452 0.18072 0.0
O165 O 0.51252 0.18446 0.19084 0.0
O166 O 0.67884 0.14408 0.18181 0.0
O167 O 0.69629 0.18894 0.10335 0.0
O168 O 0.57764 0.11801 0.21948 0.0
O169 O 0.53413 1.08861 0.14479 0.0
O170 O 0.50884 1.08952 1.04302 0.0
O171 O 0.60206 0.10888 1.05922 0.0
O172 O 0.44509 0.18917 0.0731 0.0
O173 O 0.41901 0.11476 0.12029 0.0
O174 O 0.54726 0.19967 1.02273 0.0
O175 O 0.58584 0.22552 0.09857 0.0
H176 H 0.81355 0.1525 0.17091 0.0
H177 H 0.72661 0.26999 0.18662 0.0
H178 H 0.78511 0.31048 0.26683 0.0
H179 H 0.87242 0.19333 0.2515 0.0
H180 H 0.33784 0.19177 1.02752 0.0
H181 H 0.38472 1.04718 1.04262 0.0
H182 H 0.33088 1.01046 0.95863 0.0
H183 H 0.28387 0.1544 0.94217 0.0
Gd184 Gd 0.52326 0.6188 0.56477 0.0
Gd185 Gd 0.53553 0.70553 0.63779 0.0
C186 C 0.57708 0.61282 0.68959 0.0
C187 C 0.54517 0.54431 0.50716 0.0
C188 C 0.59633 0.52947 0.51309 0.0
C189 C 0.59516 0.47618 0.50537 0.0
C190 C 0.64479 0.56752 0.53461 0.0
C191 C 0.6892 0.49843 0.5437 0.0
C192 C 0.6906 0.55198 0.55042 0.0
C193 C 0.64158 0.46083 0.52 0.0
C194 C 0.42328 0.60655 0.62097 0.0
C195 C 0.49091 0.71694 0.50992 0.0
C196 C 0.51166 0.77371 0.70381 0.0
C197 C 0.45549 0.7699 0.72421 0.0
C198 C 0.44043 0.81665 0.72984 0.0
C199 C 0.41384 0.71918 0.72665 0.0
C200 C 0.34221 0.76243 0.73099 0.0
C201 C 0.35738 0.7155 0.72999 0.0
C202 C 0.38402 0.81292 0.73324 0.0
C203 C 0.63518 0.7179 0.58129 0.0
O204 O 0.57501 0.59786 0.63597 0.0
O205 O 0.55837 0.65294 0.70288 0.0
O206 O 0.51231 0.53398 0.5513 0.0
O207 O 0.55243 0.59234 0.48706 0.0
O208 O 0.42805 0.59649 0.56776 0.0
O209 O 0.47224 0.62346 0.6416 0.0
O210 O 0.48724 0.7288 0.56415 0.0
O211 O 0.50932 0.67602 0.49817 0.0
O212 O 0.51866 0.78117 0.64958 0.0
O213 O 0.53163 0.73671 0.7221 0.0
O214 O 0.63091 0.73434 0.63221 0.0
O215 O 0.58624 0.69991 0.5617 0.0
H216 H 0.55774 0.44623 0.49013 0.0
H217 H 0.6463 0.60886 0.54163 0.0
H218 H 0.72677 0.58149 0.56874 0.0
H219 H 0.63968 0.41916 0.51467 0.0
H220 H 0.47186 0.85598 0.72721 0.0
H221 H 0.42465 0.68252 0.7217 0.0
H222 H 0.3257 0.67652 0.72739 0.0
H223 H 0.37295 0.84965 0.73305 0.0
Gd224 Gd 1.02712 0.61517 0.14955 0.0
Gd225 Gd 1.02785 0.69604 0.07472 0.0
C226 C 0.13872 0.71605 0.14278 0.0
C227 C 0.06038 0.54642 0.20607 0.0
C228 C 0.11346 0.53333 0.20208 0.0
C229 C 0.14474 0.53316 0.2508 0.0
C230 C 0.13572 0.52547 0.14933 0.0
C231 C 0.21981 0.51842 0.194 0.0
C232 C 0.18858 0.51863 0.14529 0.0
C233 C 0.19731 0.52548 0.24684 0.0
C234 C 0.98189 0.68838 0.20328 0.0
C235 C 0.91713 0.58776 0.07744 0.0
C236 C 0.99816 0.76729 1.01847 0.0
C237 C 0.94209 0.77175 1.0088 0.0
C238 C 0.93427 0.80782 0.96871 0.0
C239 C 0.8958 0.74005 1.04021 0.0
C240 C 0.83527 0.78167 0.99337 0.0
C241 C 0.84269 0.74449 1.03214 0.0
C242 C 0.88108 0.8129 0.96117 0.0
C243 C 0.08319 0.63145 1.02471 0.0
O244 O 0.11926 0.6633 0.14598 0.0
O245 O 0.10785 0.74218 0.11916 0.0
O246 O 0.06512 0.59454 0.22455 0.0
O247 O 1.02645 0.53291 0.1633 0.0
O248 O 0.96335 0.63617 0.20785 0.0
O249 O 1.02341 0.69884 0.16923 0.0
O250 O 0.9377 0.63965 1.06642 0.0
O251 O 0.94625 0.56513 0.10883 0.0
O252 O 1.00817 0.72626 0.99483 0.0
O253 O 1.01528 0.77414 0.07044 0.0
O254 O 0.09866 0.68368 1.02219 0.0
O255 O 1.03827 0.61556 1.05468 0.0
H256 H 0.12876 0.53959 0.29188 0.0
H257 H 0.11257 0.5253 0.11103 0.0
H258 H 0.2049 0.51276 0.10421 0.0
H259 H 0.22058 0.52522 0.28499 0.0
H260 H 0.9693 0.83252 0.94394 0.0
H261 H 0.90054 0.71272 0.07209 0.0
H262 H 0.8078 0.72031 1.05744 0.0
H263 H 0.8757 0.84163 0.93084 0.0
C264 C 0.39278 0.31241 0.28894 0.0
C265 C 0.43654 0.36008 0.30276 0.0
C266 C 0.44838 0.32045 0.39293 0.0
C267 C 0.39984 0.27714 0.38065 0.0
N268 N 0.35131 0.21719 0.30806 0.0
N269 N 0.51434 0.40576 0.36167 0.0
C270 C 0.38301 0.26745 0.3244 0.0
C271 C 0.4682 0.36238 0.35238 0.0
N272 N 0.35788 0.31151 0.24511 0.0
N273 N 0.47015 0.32371 0.44568 0.0
H274 H 0.52645 0.43828 0.33389 0.0
H275 H 0.54155 0.40838 0.39511 0.0
H276 H 0.45376 0.29275 0.47484 0.0
H277 H 0.50297 0.35611 0.46028 0.0
H278 H 0.32228 0.27898 0.23682 0.0
H279 H 0.36216 0.34502 0.22 0.0
H280 H 0.33639 0.20798 0.26721 0.0
H281 H 0.34495 0.18407 0.33459 0.0
C282 C 0.28621 1.03218 0.79319 0.0
C283 C 0.23546 0.98928 0.7989 0.0
C284 C 0.22167 1.01949 0.89414 0.0
C285 C 0.2757 1.05774 0.89118 0.0
N286 N 0.35918 0.10414 0.83874 0.0
N287 N 0.15715 0.93788 0.85556 0.0
C288 C 0.30746 1.06599 0.84038 0.0
C289 C 0.20328 0.98232 0.84932 0.0
N290 N 0.31497 1.03858 0.74332 0.0
N291 N 0.1884 1.01862 0.94021 0.0
H292 H 0.14217 0.90999 0.82328 0.0
H293 H 0.13564 0.92676 0.89355 0.0
H294 H 0.20134 1.04547 0.97378 0.0
H295 H 0.14655 0.99495 0.9429 0.0
H296 H 0.34971 1.07143 0.73353 0.0
H297 H 0.30268 1.01095 0.71055 0.0
H298 H 0.38735 0.10937 0.80529 0.0
H299 H 0.37476 0.13056 0.87213 0.0
C300 C 0.66722 0.53994 0.77186 0.0
C301 C 0.64135 0.53243 0.82591 0.0
C302 C 0.56977 0.5703 0.78882 0.0
C303 C 0.59894 0.58349 0.73597 0.0
N304 N 0.68154 0.58614 0.68182 0.0
N305 N 0.57267 0.54783 0.88825 0.0
C306 C 0.64912 0.56928 0.72871 0.0
C307 C 0.594 0.54983 0.8349 0.0
N308 N 0.70885 0.51801 0.76146 0.0
N309 N 0.51708 0.57413 0.79434 0.0
H310 H 0.58896 0.5325 0.92217 0.0
H311 H 0.54234 0.56539 0.89964 0.0
H312 H 0.49626 0.58589 0.76159 0.0
H313 H 0.49146 0.55995 0.82934 0.0
H314 H 0.72593 0.51648 0.72159 0.0
H315 H 0.7232 0.49736 0.79232 0.0
H316 H 0.72162 0.58318 0.67704 0.0
H317 H 0.67051 0.60734 0.64954 0.0
C318 C 0.94611 0.80718 0.283 0.0
C319 C 0.94826 0.79408 0.34111 0.0
C320 C 0.98496 0.71983 0.30852 0.0
C321 C 0.974 0.72748 0.25055 0.0
N322 N 0.94056 0.77909 0.18426 0.0
N323 N 0.96546 0.73237 0.40769 0.0
C324 C 0.95429 0.77193 0.23845 0.0
C325 C 0.96732 0.74922 0.35311 0.0
N326 N 0.93614 0.85397 0.27036 0.0
N327 N 1.014 0.6854 0.32136 0.0
H328 H 0.95409 0.753 0.44099 0.0
H329 H 0.97135 0.69623 0.41934 0.0
H330 H 1.0289 0.66477 0.29055 0.0
H331 H 1.02844 0.68177 0.3617 0.0
H332 H 0.93804 0.86937 0.22972 0.0
H333 H 0.93226 0.88025 0.30194 0.0
H334 H 0.92022 0.80629 0.17232 0.0
H335 H 0.94586 0.75445 0.15167 0.0
C336 C 0.55474 0.3772 0.22233 0.0
C337 C 0.50208 0.37371 0.19896 0.0
C338 C 0.47809 0.27665 0.1948 0.0
C339 C 0.53279 0.27877 0.21225 0.0
N340 N 0.62416 0.33322 0.24384 0.0
N341 N 0.42553 0.32227 0.14186 0.0
C342 C 0.57188 0.32997 0.22574 0.0
C343 C 0.46847 0.32423 0.17718 0.0
N344 N 0.58713 0.42565 0.24284 0.0
N345 N 0.43371 0.23055 0.19932 0.0
H346 H 0.41762 0.35692 0.12847 0.0
H347 H 0.40218 0.28692 0.12168 0.0
H348 H 0.43449 0.1987 0.22519 0.0
H349 H 0.39355 0.22796 0.18618 0.0
H350 H 0.62347 0.43104 0.26594 0.0
H351 H 0.57577 0.46045 0.23788 0.0
H352 H 0.65658 0.36936 0.24806 0.0
H353 H 0.63505 0.29929 0.25467 0.0
C354 C 0.15557 1.02611 0.70983 0.0
C355 C 0.1818 0.99166 0.68435 0.0
C356 C 0.21271 1.05505 0.60556 0.0
C357 C 0.18496 1.08874 0.63135 0.0
N358 N 0.15893 0.11856 0.72092 0.0
N359 N 0.24933 0.9806 0.61628 0.0
C360 C 0.16543 1.07831 0.68767 0.0
C361 C 0.21416 1.00792 0.6342 0.0
N362 N 0.12013 1.00838 0.75444 0.0
N363 N 0.23977 1.06919 0.55506 0.0
H364 H 0.25533 0.9489 0.6388 0.0
H365 H 0.27743 0.99275 0.58279 0.0
H366 H 0.25115 0.10835 0.5394 0.0
H367 H 0.25175 1.04239 0.52928 0.0
H368 H 0.09739 1.03113 0.77304 0.0
H369 H 0.10903 0.9686 0.76819 0.0
H370 H 0.148 0.11314 0.76351 0.0
H371 H 0.17223 0.15861 0.70804 0.0
C372 C 0.75988 0.53026 1.03751 0.0
C373 C 0.76316 0.50711 0.98363 0.0
C374 C 0.86518 0.52638 0.99846 0.0
C375 C 0.86298 0.55479 1.04926 0.0
N376 N 0.80809 0.58687 0.11554 0.0
N377 N 0.82273 0.49606 0.90781 0.0
C378 C 0.81008 0.5572 0.06851 0.0
C379 C 0.81684 0.50816 0.96309 0.0
N380 N 0.70847 0.52758 1.05836 0.0
N381 N 0.91389 0.5173 0.98329 0.0
H382 H 0.78932 0.48566 0.87982 0.0
H383 H 0.86141 0.50183 0.8883 0.0
H384 H 0.95023 0.53067 1.00724 0.0
H385 H 0.91675 0.49238 0.94982 0.0
H386 H 0.70133 0.5385 0.09928 0.0
H387 H 0.6722 0.51107 1.03517 0.0
H388 H 0.77256 0.59584 0.12887 0.0
H389 H 0.84332 0.60506 0.14001 0.0
C390 C 0.74218 0.78684 0.46288 0.0
C391 C 0.78911 0.77087 0.47759 0.0
C392 C 0.73796 0.72609 0.56261 0.0
C393 C 0.68872 0.73787 0.54584 0.0
N394 N 0.64504 0.7814 0.47901 0.0
N395 N 0.82877 0.7182 0.53586 0.0
C396 C 0.69103 0.7683 0.49527 0.0
C397 C 0.78581 0.73816 0.52573 0.0
N398 N 0.74775 0.82218 0.4193 0.0
N399 N 0.74023 0.70544 0.61499 0.0
H400 H 0.86425 0.72717 0.50994 0.0
H401 H 0.82706 0.68926 0.56644 0.0
H402 H 0.70747 0.69786 0.64405 0.0
H403 H 0.77644 0.70076 0.63189 0.0
H404 H 0.71828 0.84096 0.4094 0.0
H405 H 0.78398 0.8352 0.39455 0.0
H406 H 0.64051 0.79586 0.43912 0.0
H407 H 0.61075 0.77757 0.50534 0.0
C408 C 0.37556 0.53714 0.21318 0.0
C409 C 0.37785 0.48625 0.19557 0.0
C410 C 0.27813 0.45798 0.172 0.0
C411 C 0.27528 0.50894 0.19002 0.0
N412 N 0.32372 0.60128 0.21524 0.0
N413 N 0.33892 0.40552 0.14455 0.0
C414 C 0.32496 0.55004 0.20652 0.0
C415 C 0.33114 0.44935 0.16971 0.0
N416 N 0.42127 0.57185 0.23863 0.0
N417 N 0.23002 0.41664 0.16174 0.0
H418 H 0.30872 0.3771 0.12111 0.0
H419 H 0.30872 0.3771 0.12111 0.0
H420 H 0.19019 0.42059 0.16483 0.0
H421 H 0.22889 0.37695 0.15547 0.0
H422 H 0.42111 0.60728 0.2586 0.0
H423 H 0.459 0.56337 0.24173 0.0
H424 H 0.35924 0.63389 0.22326 0.0
H425 H 0.28756 0.61205 0.20985 0.0
C426 C 0.60969 0.38505 1.0043 0.0
C427 C 0.65932 0.39815 0.97044 0.0
C428 C 0.66438 0.30607 0.9891 0.0
C429 C 0.61412 0.29257 1.02178 0.0
N430 N 0.54083 0.32085 1.0637 0.0
N431 N 0.72581 0.3661 0.92072 0.0
C432 C 0.58756 0.33276 1.03031 0.0
C433 C 0.68488 0.35741 0.9609 0.0
N434 N 0.58161 0.42193 1.00833 0.0
N435 N 0.69306 0.26974 0.98533 0.0
H436 H 0.73895 0.40148 0.89744 0.0
H437 H 0.74278 0.33687 0.90659 0.0
H438 H 0.67831 0.23146 1.00324 0.0
H439 H 0.73311 0.27866 0.96806 0.0
H440 H 0.54213 0.41468 1.02623 0.0
H441 H 0.59654 0.46009 0.99037 0.0
H442 H 0.5211 0.34851 0.07563 0.0
H443 H 0.52239 0.28307 0.08155 0.0
C444 C 1.01883 0.91711 0.457 0.0
C445 C 0.96863 0.90597 0.42526 0.0
C446 C 0.9715 1.00157 0.44321 0.0
C447 C 1.02065 1.01188 0.4768 0.0
N448 N 0.09743 0.98185 0.50489 0.0
N449 N 0.90126 0.94067 0.38251 0.0
C450 C 0.04616 0.97024 0.48016 0.0
C451 C 0.9475 0.94995 0.41557 0.0
N452 N 1.0384 0.87527 0.46807 0.0
N453 N 0.94488 1.03968 0.44138 0.0
H454 H 0.87972 0.9025 0.36697 0.0
H455 H 0.88595 0.97063 0.3678 0.0
H456 H 0.96027 1.07706 0.46104 0.0
H457 H 0.90583 1.03368 0.42347 0.0
H458 H 0.06993 0.87699 0.49681 0.0
H459 H 1.02091 0.8377 0.44924 0.0
H460 H 0.12124 0.9558 0.50499 0.0
H461 H 0.11845 1.01974 0.52145 0.0
C462 C 0.2386 0.80988 0.65971 0.0
C463 C 0.20515 0.81373 0.70712 0.0
C464 C 0.24447 0.7562 0.76194 0.0
C465 C 0.28434 0.76079 0.71835 0.0
N466 N 0.30318 0.76773 0.61882 0.0
N467 N 0.1572 0.77092 0.79002 0.0
C468 C 0.27487 0.77844 0.66438 0.0
C469 C 0.20017 0.77778 0.75256 0.0
N470 N 0.24039 0.84037 0.61288 0.0
N471 N 0.25242 0.737 0.81349 0.0
H472 H 0.12686 0.78988 0.78392 0.0
H473 H 0.14961 0.74372 0.82341 0.0
H474 H 0.28591 0.72269 0.82131 0.0
H475 H 0.22752 0.73759 0.84864 0.0
H476 H 0.27031 0.84538 0.58098 0.0
H477 H 0.2126 0.8616 0.60622 0.0
H478 H 0.29521 0.77627 0.57747 0.0
H479 H 0.33074 0.74535 0.62245 0.0
C480 C 0.71565 0.85815 0.79644 0.0
C481 C 0.71767 0.87951 0.85159 0.0
C482 C 0.81929 0.91595 0.84518 0.0
C483 C 0.8161 0.90562 0.78673 0.0
N484 N 0.76325 0.86394 0.70566 0.0
N485 N 0.76862 0.93663 0.92399 0.0
C486 C 0.76486 0.87481 0.76205 0.0
C487 C 0.76925 0.90972 0.87514 0.0
N488 N 0.66664 0.82324 0.77719 0.0
N489 N 0.86999 0.93416 0.8713 0.0
H490 H 0.80371 0.96433 0.94203 0.0
H491 H 0.80371 0.96433 0.94203 0.0
H492 H 0.90778 0.93963 0.85008 0.0
H493 H 0.87407 0.93777 0.91496 0.0
H494 H 0.66297 0.80315 0.73873 0.0
H495 H 0.63031 0.81195 0.80198 0.0
H496 H 0.72641 0.84615 0.6836 0.0
H497 H 0.79958 0.87436 0.68084 0.0
C498 C 0.89003 0.33195 0.39553 0.0
C499 C 0.8511 0.30143 0.43596 0.0
C500 C 0.81037 0.23193 0.36615 0.0
C501 C 0.84749 0.26354 0.32498 0.0
N502 N 0.93024 0.33613 0.30131 0.0
N503 N 0.772 0.22351 0.45883 0.0
C504 C 0.89021 0.31108 0.34019 0.0
C505 C 0.8119 0.25142 0.42155 0.0
N506 N 0.92339 0.38264 0.409 0.0
N507 N 0.77099 0.18434 0.35193 0.0
H508 H 0.76745 0.2369 0.49951 0.0
H509 H 0.76745 0.2369 0.49951 0.0
H510 H 0.76718 0.16792 0.3115 0.0
H511 H 0.74265 0.1607 0.38124 0.0
H512 H 0.94913 0.40928 0.38023 0.0
H513 H 0.92221 0.39975 0.44855 0.0
H514 H 0.96536 0.36875 0.3105 0.0
H515 H 0.93055 0.32097 0.26055 0.0
C516 C 0.45447 0.76038 0.36039 0.0
C517 C 0.44926 0.81244 0.36918 0.0
C518 C 0.48332 0.80705 0.467 0.0
C519 C 0.47652 0.75056 0.46151 0.0
N520 N 0.44074 0.67248 0.40112 0.0
N521 N 0.45517 0.88326 0.43548 0.0
C522 C 0.45867 0.72714 0.40739 0.0
C523 C 0.46268 0.83505 0.42394 0.0
N524 N 0.45284 0.74156 0.30655 0.0
N525 N 0.51242 0.83542 0.51142 0.0
H526 H 0.44384 0.90563 0.40435 0.0
H527 H 0.45753 0.89919 0.47608 0.0
H528 H 0.53316 0.81892 0.54038 0.0
H529 H 0.52229 0.87705 0.51513 0.0
H530 H 0.4606 0.70578 0.29643 0.0
H531 H 0.44979 0.765 0.27197 0.0
H532 H 0.42317 0.65347 0.3639 0.0
H533 H 0.43567 0.64597 0.43485 0.0
C534 C 0.09669 0.56734 0.87755 0.0
C535 C 0.1433 0.54831 0.88516 0.0
C536 C 0.14966 0.58222 0.98421 0.0
C537 C 0.1009 0.59849 0.978 0.0
N538 N 1.02476 0.6011 0.91859 0.0
N539 N 0.20845 0.53038 0.94891 0.0
C540 C 0.07343 0.58914 0.92456 0.0
C541 C 0.16799 0.5538 0.93953 0.0
N542 N 0.07606 0.56661 0.8244 0.0
N543 N 0.17992 0.5955 1.03255 0.0
H544 H 0.22261 0.50992 0.91729 0.0
H545 H 0.22459 0.52744 0.98861 0.0
H546 H 0.16613 0.61264 1.06714 0.0
H547 H 0.21982 0.59228 1.03722 0.0
H548 H 0.04624 0.58465 0.81346 0.0
H549 H 0.09203 0.55101 0.79001 0.0
H550 H 0.99905 0.5904 0.8835 0.0
H551 H 1.00777 0.61852 0.95075 0.0
C552 C 0.532 0.94529 0.95943 0.0
C553 C 0.5869 0.95409 0.93876 0.0
C554 C 0.6082 1.05003 0.95836 0.0
C555 C 0.5594 1.03901 0.9919 0.0
N556 N 0.47588 0.97201 1.02941 0.0
N557 N 0.68191 1.01548 0.93141 0.0
C558 C 0.52062 0.98571 0.99315 0.0
C559 C 0.62631 1.0068 0.94088 0.0
N560 N 0.49142 0.89789 0.94794 0.0
N561 N 0.63804 0.1018 0.94443 0.0
H562 H 0.69849 0.98451 0.92458 0.0
H563 H 0.71221 1.05284 0.93748 0.0
H564 H 0.62455 0.13438 0.95543 0.0
H565 H 0.67214 0.11119 0.91669 0.0
H566 H 0.44935 0.8908 0.9582 0.0
H567 H 0.49959 0.86794 0.92343 0.0
H568 H 0.45051 0.93234 1.03534 0.0
H569 H 0.46671 0.9987 1.05747 0.0
C570 C 0.9565 0.29287 0.51955 0.0
C571 C 0.90209 0.28017 0.54264 0.0
C572 C 0.89737 0.18572 0.55253 0.0
C573 C 0.95377 0.19956 0.53407 0.0
N574 N 1.02844 0.25979 0.47976 0.0
N575 N 0.82346 0.21759 0.58958 0.0
C576 C 0.98065 0.25132 0.51109 0.0
C577 C 0.87317 0.22734 0.56143 0.0
N578 N 0.98607 0.34542 0.50908 0.0
N579 N 0.86594 0.13284 0.55749 0.0
H580 H 0.8051 0.24759 0.59687 0.0
H581 H 0.80288 0.18126 0.60953 0.0
H582 H 0.88064 0.1018 0.5439 0.0
H583 H 0.82333 0.12002 0.5671 0.0
H584 H 1.02784 0.35854 0.49622 0.0
H585 H 0.97025 0.37657 0.51959 0.0
H586 H 0.04829 0.29544 0.45831 0.0
H587 H 0.04453 0.22857 0.47024 0.0
C588 C 0.24503 0.80031 0.24966 0.0
C589 C 0.2928 0.7852 0.23558 0.0
C590 C 0.24282 0.73478 0.15378 0.0
C591 C 0.19298 0.74484 0.17135 0.0
N592 N 0.14477 0.78148 0.24149 0.0
N593 N 0.3357 0.73295 0.17874 0.0
C594 C 0.19361 0.77632 0.22068 0.0
C595 C 0.29103 0.75064 0.18901 0.0
N596 N 0.24939 0.83889 0.28982 0.0
N597 N 0.24482 0.71252 0.10197 0.0
H598 H 0.37134 0.74428 0.20389 0.0
H599 H 0.3356 0.70393 0.14857 0.0
H600 H 0.21151 0.70448 0.07389 0.0
H601 H 0.28098 0.70768 0.08443 0.0
H602 H 0.21822 0.85637 0.29781 0.0
H603 H 0.28612 0.85634 0.31228 0.0
H604 H 0.14151 0.79819 0.28079 0.0
H605 H 0.10644 0.7656 0.22146 0.0
C606 C 0.31996 0.51949 0.73353 0.0
C607 C 0.26942 0.5313 0.72335 0.0
C608 C 0.31949 0.5925 0.64537 0.0
C609 C 0.36961 0.57951 0.65528 0.0
N610 N 0.41051 0.51786 0.69883 0.0
N611 N 0.22429 0.58628 0.67476 0.0
C612 C 0.36775 0.53944 0.6966 0.0
C613 C 0.27001 0.56924 0.6799 0.0
N614 N 0.32404 0.4926 0.78159 0.0
N615 N 0.31926 0.62739 0.60267 0.0
H616 H 0.18864 0.57132 0.69989 0.0
H617 H 0.22247 0.61764 0.64892 0.0
H618 H 0.35495 0.64737 0.57918 0.0
H619 H 0.28364 0.63513 0.5884 0.0
H620 H 0.36135 0.48786 0.79545 0.0
H621 H 0.29142 0.48037 0.81079 0.0
H622 H 0.40912 0.48474 0.72369 0.0
H623 H 0.44486 0.52918 0.67147 0.0
C624 C 0.72567 0.85086 1.0083 0.0
C625 C 0.68955 0.82687 0.96282 0.0
C626 C 0.74291 0.76484 0.94521 0.0
C627 C 0.78027 0.7905 0.98856 0.0
N628 N 0.79762 0.84489 0.07283 0.0
N629 N 0.65263 0.75142 0.9014 0.0
C630 C 0.76781 0.82858 1.02446 0.0
C631 C 0.69438 0.78014 0.9362 0.0
N632 N 0.72445 0.89829 1.0317 0.0
N633 N 0.75508 0.72767 0.9113 0.0
H634 H 0.61666 0.76238 0.89517 0.0
H635 H 0.65118 0.7147 0.88329 0.0
H636 H 0.78935 0.71425 0.91821 0.0
H637 H 0.73296 0.71229 0.87482 0.0
H638 H 0.75383 0.92026 1.06059 0.0
H639 H 0.69882 0.91971 1.01755 0.0
H640 H 0.78636 0.86801 0.10373 0.0
H641 H 0.83053 0.83119 0.08471 0.0
C642 C 0.44732 0.96436 0.29438 0.0
C643 C 0.46928 0.92137 0.28217 0.0
C644 C 0.53671 0.98289 0.21549 0.0
C645 C 0.51364 1.02528 0.22699 0.0
N646 N 0.45669 1.05967 0.28895 0.0
N647 N 0.54149 0.89339 0.23957 0.0
C648 C 0.47245 1.01706 0.2705 0.0
C649 C 0.51684 0.93256 0.246 0.0
N650 N 0.39854 0.95326 0.32452 0.0
N651 N 0.57692 0.99027 0.1745 0.0
H652 H 0.5266 0.8569 0.26126 0.0
H653 H 0.57838 0.89821 0.21703 0.0
H654 H 0.59383 1.02664 0.15317 0.0
H655 H 0.59184 0.95994 0.15953 0.0
H656 H 0.37555 0.97991 0.32849 0.0
H657 H 0.37901 0.91567 0.34249 0.0
H658 H 0.43175 1.05803 0.32462 0.0
H659 H 0.47206 0.09799 0.2712 0.0
C660 C 0.13419 0.41004 0.68703 0.0
C661 C 0.16947 0.41885 0.73516 0.0
C662 C 0.17214 0.32482 0.72402 0.0
C663 C 0.13396 0.31469 0.67805 0.0
N664 N 0.0717 0.34675 0.62216 0.0
N665 N 0.20868 0.37814 0.80762 0.0
C666 C 0.11362 0.35741 0.66098 0.0
C667 C 0.18479 0.37436 0.75572 0.0
N668 N 0.11905 0.4521 0.66693 0.0
N669 N 0.19816 0.28784 0.73656 0.0
H670 H 0.21575 0.41221 0.83295 0.0
H671 H 0.21575 0.3457 0.82794 0.0
H672 H 0.19089 0.25202 0.71413 0.0
H673 H 0.23072 0.29502 0.76538 0.0
H674 H 0.09932 0.45164 0.62845 0.0
H675 H 0.12902 0.48883 0.68797 0.0
H676 H 0.05033 0.37353 0.61191 0.0
H677 H 0.05451 0.30896 0.60373 0.0
C678 C 0.75764 0.40478 0.6076 0.0
C679 C 0.80871 0.41994 0.57739 0.0
C680 C 0.78962 0.49827 0.53876 0.0
C681 C 0.7356 0.48002 0.56429 0.0
N682 N 0.67801 0.43035 0.6402 0.0
N683 N 0.8829 0.48942 0.53408 0.0
C684 C 0.72321 0.43832 0.60513 0.0
C685 C 0.8284 0.4708 0.55139 0.0
N686 N 0.73997 0.35608 0.63401 0.0
N687 N 0.80203 0.53768 0.4986 0.0
H688 H 0.91036 0.46751 0.54161 0.0
H689 H 0.90152 0.52779 0.51752 0.0
H690 H 0.77407 0.55732 0.48596 0.0
H691 H 0.83877 0.54828 0.47467 0.0
H692 H 0.69994 0.33958 0.65109 0.0
H693 H 0.76513 0.33127 0.63648 0.0
H694 H 0.66922 0.40294 0.67343 0.0
H695 H 0.65279 0.45525 0.63942 0.0
loop_
_geom_bond_atom_site_label_1
_geom_bond_atom_site_label_2
_geom_bond_distance
_geom_bond_site_symmetry_2
_ccdc_geom_bond_type
C0 N1 1.317 . S
C0 N2 1.348 . S
C0 C3 1.485 . S
N1 C0 1.317 . S
N1 N5 1.370 . S
N2 C0 1.348 . S
N2 C4 1.346 . S
C3 C0 1.485 . S
C3 H7 0.960 . S
C3 H8 0.961 . S
C3 H9 0.960 . S
C4 N2 1.346 . S
C4 N5 1.307 . S
C4 C6 1.486 . S
N5 N1 1.370 . S
N5 C4 1.307 . S
C6 C4 1.486 . S
C6 H10 0.960 . S
C6 H11 0.960 . S
C6 H12 0.959 . S
H7 C3 0.960 . S
H8 C3 0.961 . S
H9 C3 0.960 . S
H10 C6 0.960 . S
H11 C6 0.960 . S
H12 C6 0.959 . S
C13 N14 1.317 . S
C13 N15 1.348 . S
C13 C16 1.485 . S
N14 C13 1.317 . S
N14 N18 1.370 . S
N15 C13 1.348 . S
N15 C17 1.346 . S
C16 C13 1.485 . S
C16 H20 0.960 . S
C16 H21 0.961 . S
C16 H22 0.960 . S
C17 N15 1.346 . S
C17 N18 1.307 . S
C17 C19 1.486 . S
N18 N14 1.370 . S
N18 C17 1.307 . S
C19 C17 1.486 . S
C19 H23 0.960 . S
C19 H24 0.960 . S
C19 H25 0.959 . S
H20 C16 0.960 . S
H21 C16 0.961 . S
H22 C16 0.960 . S
H23 C19 0.960 . S
H24 C19 0.960 . S
H25 C19 0.959 . S
C26 N27 1.317 . S
C26 N28 1.348 . S
C26 C29 1.485 . S
N27 C26 1.317 . S
N27 N31 1.370 . S
N28 C26 1.348 . S
N28 C30 1.346 . S
C29 C26 1.485 . S
C29 H33 0.960 . S
C29 H34 0.961 . S
C29 H35 0.960 . S
C30 N28 1.346 . S
C30 N31 1.307 . S
C30 C32 1.486 . S
N31 N27 1.370 . S
N31 C30 1.307 . S
C32 C30 1.486 . S
C32 H36 0.960 . S
C32 H37 0.960 . S
C32 H38 0.959 . S
H33 C29 0.960 . S
H34 C29 0.961 . S
H35 C29 0.960 . S
H36 C32 0.960 . S
H37 C32 0.960 . S
H38 C32 0.959 . S
C39 N40 1.317 . S
C39 N41 1.348 . S
C39 C42 1.485 . S
N40 C39 1.317 . S
N40 N44 1.370 . S
N41 C39 1.348 . S
N41 C43 1.346 . S
C42 C39 1.485 . S
C42 H46 0.960 . S
C42 H47 0.961 . S
C42 H48 0.960 . S
C43 N41 1.346 . S
C43 N44 1.307 . S
C43 C45 1.486 . S
N44 N40 1.370 . S
N44 C43 1.307 . S
C45 C43 1.486 . S
C45 H49 0.960 . S
C45 H50 0.960 . S
C45 H51 0.959 . S
H46 C42 0.960 . S
H47 C42 0.961 . S
H48 C42 0.960 . S
H49 C45 0.960 . S
H50 C45 0.960 . S
H51 C45 0.959 . S
C52 N53 1.317 . S
C52 N54 1.348 . S
C52 C55 1.485 . S
N53 C52 1.317 . S
N53 N57 1.370 . S
N54 C52 1.348 . S
N54 C56 1.346 . S
C55 C52 1.485 . S
C55 H59 0.960 . S
C55 H60 0.961 . S
C55 H61 0.960 . S
C56 N54 1.346 . S
C56 N57 1.307 . S
C56 C58 1.486 . S
N57 N53 1.370 . S
N57 C56 1.307 . S
C58 C56 1.486 . S
C58 H62 0.960 . S
C58 H63 0.960 . S
C58 H64 0.959 . S
H59 C55 0.960 . S
H60 C55 0.961 . S
H61 C55 0.960 . S
H62 C58 0.960 . S
H63 C58 0.960 . S
H64 C58 0.959 . S
C65 N66 1.317 . S
C65 N67 1.348 . S
C65 C68 1.485 . S
N66 C65 1.317 . S
N66 N70 1.370 . S
N67 C65 1.348 . S
N67 C69 1.346 . S
C68 C65 1.485 . S
C68 H72 0.960 . S
C68 H73 0.961 . S
C68 H74 0.960 . S
C69 N67 1.346 . S
C69 N70 1.307 . S
C69 C71 1.486 . S
N70 N66 1.370 . S
N70 C69 1.307 . S
C71 C69 1.486 . S
C71 H75 0.960 . S
C71 H76 0.960 . S
C71 H77 0.959 . S
H72 C68 0.960 . S
H73 C68 0.961 . S
H74 C68 0.960 . S
H75 C71 0.960 . S
H76 C71 0.960 . S
H77 C71 0.959 . S
C78 N79 1.317 . S
C78 N80 1.348 . S
C78 C81 1.485 . S
N79 C78 1.317 . S
N79 N83 1.370 . S
N80 C78 1.348 . S
N80 C82 1.346 . S
C81 C78 1.485 . S
C81 H85 0.960 . S
C81 H86 0.961 . S
C81 H87 0.960 . S
C82 N80 1.346 . S
C82 N83 1.307 . S
C82 C84 1.486 . S
N83 N79 1.370 . S
N83 C82 1.307 . S
C84 C82 1.486 . S
C84 H88 0.960 . S
C84 H89 0.960 . S
C84 H90 0.959 . S
H85 C81 0.960 . S
H86 C81 0.961 . S
H87 C81 0.960 . S
H88 C84 0.960 . S
H89 C84 0.960 . S
H90 C84 0.959 . S
C91 N92 1.317 . S
C91 N93 1.348 . S
C91 C94 1.485 . S
N92 C91 1.317 . S
N92 N96 1.370 . S
N93 C91 1.348 . S
N93 C95 1.346 . S
C94 C91 1.485 . S
C94 H98 0.960 . S
C94 H99 0.961 . S
C94 H100 0.960 . S
C95 N93 1.346 . S
C95 N96 1.307 . S
C95 C97 1.486 . S
N96 N92 1.370 . S
N96 C95 1.307 . S
C97 C95 1.486 . S
C97 H101 0.960 . S
C97 H102 0.960 . S
C97 H103 0.959 . S
H98 C94 0.960 . S
H99 C94 0.961 . S
H100 C94 0.960 . S
H101 C97 0.960 . S
H102 C97 0.960 . S
H103 C97 0.959 . S
Gd104 C107 2.818 . S
Gd104 O124 2.377 . S
Gd104 O126 2.448 . S
Gd104 O127 2.506 . S
Gd104 O128 2.435 . S
Gd104 O129 2.717 . S
Gd104 O131 2.395 1_545 S
Gd104 O135 2.327 . S
Gd105 C116 2.818 1_545 S
Gd105 O125 2.395 1_655 S
Gd105 O129 2.327 1_655 S
Gd105 O130 2.377 1_545 S
Gd105 O132 2.448 1_545 S
Gd105 O133 2.506 1_545 S
Gd105 O134 2.435 . S
Gd105 O135 2.717 1_655 S
C106 O124 1.240 . S
C106 O125 1.240 . S
C107 Gd104 2.818 . S
C107 C108 1.510 . S
C107 O126 1.249 . S
C107 O127 1.252 . S
C108 C107 1.510 . S
C108 C109 1.404 . S
C108 C110 1.352 . S
C109 C108 1.404 . S
C109 C113 1.389 . S
C109 H136 0.930 . S
C110 C108 1.352 . S
C110 C112 1.374 . S
C110 H137 0.931 . S
C111 C112 1.359 . S
C111 C113 1.364 . S
C112 C110 1.374 . S
C112 C111 1.359 . S
C112 H138 0.931 . S
C113 C109 1.389 . S
C113 C111 1.364 . S
C113 H139 0.931 . S
C114 O128 1.256 1_565 S
C114 O129 1.257 1_565 S
C115 O130 1.240 . S
C115 O131 1.240 1_655 S
C116 Gd105 2.818 1_565 S
C116 C117 1.510 . S
C116 O132 1.249 . S
C116 O133 1.252 . S
C117 C116 1.510 . S
C117 C118 1.404 . S
C117 C119 1.352 . S
C118 C117 1.404 . S
C118 C122 1.389 . S
C118 H140 0.930 . S
C119 C117 1.352 . S
C119 C121 1.374 . S
C119 H141 0.931 . S
C120 C121 1.359 . S
C120 C122 1.364 . S
C121 C119 1.374 . S
C121 C120 1.359 . S
C121 H142 0.931 . S
C122 C118 1.389 . S
C122 C120 1.364 . S
C122 H143 0.931 . S
C123 O134 1.256 . S
C123 O135 1.257 1_655 S
O124 Gd104 2.377 . S
O124 C106 1.240 . S
O125 Gd105 2.395 1_455 S
O125 C106 1.240 . S
O126 Gd104 2.448 . S
O126 C107 1.249 . S
O127 Gd104 2.506 . S
O127 C107 1.252 . S
O128 Gd104 2.435 . S
O128 C114 1.256 1_545 S
O129 Gd104 2.717 . S
O129 Gd105 2.327 1_455 S
O129 C114 1.257 1_545 S
O130 Gd105 2.377 1_565 S
O130 C115 1.240 . S
O131 Gd104 2.395 1_565 S
O131 C115 1.240 1_455 S
O132 Gd105 2.448 1_565 S
O132 C116 1.249 . S
O133 Gd105 2.506 1_565 S
O133 C116 1.252 . S
O134 Gd105 2.435 . S
O134 C123 1.256 . S
O135 Gd104 2.327 . S
O135 Gd105 2.717 1_455 S
O135 C123 1.257 1_455 S
H136 C109 0.930 . S
H137 C110 0.931 . S
H138 C112 0.931 . S
H139 C113 0.931 . S
H140 C118 0.930 . S
H141 C119 0.931 . S
H142 C121 0.931 . S
H143 C122 0.931 . S
Gd144 C147 2.818 . S
Gd144 O164 2.377 . S
Gd144 O166 2.448 . S
Gd144 O167 2.506 . S
Gd144 O168 2.435 1_545 S
Gd144 O169 2.717 . S
Gd144 O171 2.395 . S
Gd144 O175 2.327 . S
Gd145 C156 2.818 1_554 S
Gd145 O165 2.395 . S
Gd145 O169 2.327 . S
Gd145 O170 2.377 1_554 S
Gd145 O172 2.448 1_554 S
Gd145 O173 2.506 1_544 S
Gd145 O174 2.435 1_554 S
Gd145 O175 2.717 . S
C146 O164 1.240 . S
C146 O165 1.240 . S
C147 Gd144 2.818 . S
C147 C148 1.510 . S
C147 O166 1.249 . S
C147 O167 1.252 . S
C148 C147 1.510 . S
C148 C149 1.404 . S
C148 C150 1.352 . S
C149 C148 1.404 . S
C149 C153 1.389 . S
C149 H176 0.930 . S
C150 C148 1.352 . S
C150 C152 1.374 . S
C150 H177 0.931 . S
C151 C152 1.359 . S
C151 C153 1.364 . S
C152 C150 1.374 . S
C152 C151 1.359 . S
C152 H178 0.931 . S
C153 C149 1.389 . S
C153 C151 1.364 . S
C153 H179 0.931 . S
C154 O168 1.256 . S
C154 O169 1.257 1_565 S
C155 O170 1.253 . S
C155 O171 1.241 1_556 S
C156 Gd145 2.818 1_556 S
C156 C157 1.510 1_545 S
C156 O172 1.249 . S
C156 O173 1.252 1_545 S
C157 C156 1.510 1_565 S
C157 C158 1.404 . S
C157 C159 1.352 . S
C158 C157 1.404 . S
C158 C162 1.389 . S
C158 H180 0.930 1_565 S
C159 C157 1.352 . S
C159 C161 1.374 . S
C159 H181 0.931 . S
C160 C161 1.359 . S
C160 C162 1.364 . S
C161 C159 1.374 . S
C161 C160 1.359 . S
C161 H182 0.931 . S
C162 C158 1.389 . S
C162 C160 1.364 . S
C162 H183 0.931 . S
C163 O174 1.256 1_554 S
C163 O175 1.257 . S
O164 Gd144 2.377 . S
O164 C146 1.240 . S
O165 Gd145 2.395 . S
O165 C146 1.240 . S
O166 Gd144 2.448 . S
O166 C147 1.249 . S
O167 Gd144 2.506 . S
O167 C147 1.252 . S
O168 Gd144 2.435 1_565 S
O168 C154 1.256 . S
O169 Gd144 2.717 . S
O169 Gd145 2.327 . S
O169 C154 1.257 1_545 S
O170 Gd145 2.377 1_556 S
O170 C155 1.253 . S
O171 Gd144 2.395 . S
O171 C155 1.241 1_554 S
O172 Gd145 2.448 1_556 S
O172 C156 1.249 . S
O173 Gd145 2.506 1_566 S
O173 C156 1.252 1_565 S
O174 Gd145 2.435 1_556 S
O174 C163 1.256 1_556 S
O175 Gd144 2.327 . S
O175 Gd145 2.717 . S
O175 C163 1.257 . S
H176 C149 0.930 . S
H177 C150 0.931 . S
H178 C152 0.931 . S
H179 C153 0.931 . S
H180 C158 0.930 1_545 S
H181 C159 0.931 . S
H182 C161 0.931 . S
H183 C162 0.931 . S
Gd184 C187 2.818 . S
Gd184 O204 2.377 . S
Gd184 O206 2.448 . S
Gd184 O207 2.506 . S
Gd184 O208 2.435 . S
Gd184 O209 2.717 . S
Gd184 O211 2.395 . S
Gd184 O215 2.327 . S
Gd185 C196 2.818 . S
Gd185 O205 2.395 . S
Gd185 O209 2.327 . S
Gd185 O210 2.377 . S
Gd185 O212 2.448 . S
Gd185 O213 2.506 . S
Gd185 O214 2.435 . S
Gd185 O215 2.717 . S
C186 O204 1.240 . S
C186 O205 1.240 . S
C187 Gd184 2.818 . S
C187 C188 1.510 . S
C187 O206 1.249 . S
C187 O207 1.252 . S
C188 C187 1.510 . S
C188 C189 1.404 . S
C188 C190 1.352 . S
C189 C188 1.404 . S
C189 C193 1.389 . S
C189 H216 0.930 . S
C190 C188 1.352 . S
C190 C192 1.374 . S
C190 H217 0.931 . S
C191 C192 1.359 . S
C191 C193 1.364 . S
C192 C190 1.374 . S
C192 C191 1.359 . S
C192 H218 0.931 . S
C193 C189 1.389 . S
C193 C191 1.364 . S
C193 H219 0.931 . S
C194 O208 1.256 . S
C194 O209 1.257 . S
C195 O210 1.240 . S
C195 O211 1.240 . S
C196 Gd185 2.818 . S
C196 C197 1.510 . S
C196 O212 1.249 . S
C196 O213 1.252 . S
C197 C196 1.510 . S
C197 C198 1.404 . S
C197 C199 1.352 . S
C198 C197 1.404 . S
C198 C202 1.389 . S
C198 H220 0.930 . S
C199 C197 1.352 . S
C199 C201 1.374 . S
C199 H221 0.931 . S
C200 C201 1.359 . S
C200 C202 1.364 . S
C201 C199 1.374 . S
C201 C200 1.359 . S
C201 H222 0.931 . S
C202 C198 1.389 . S
C202 C200 1.364 . S
C202 H223 0.931 . S
C203 O214 1.256 . S
C203 O215 1.257 . S
O204 Gd184 2.377 . S
O204 C186 1.240 . S
O205 Gd185 2.395 . S
O205 C186 1.240 . S
O206 Gd184 2.448 . S
O206 C187 1.249 . S
O207 Gd184 2.506 . S
O207 C187 1.252 . S
O208 Gd184 2.435 . S
O208 C194 1.256 . S
O209 Gd184 2.717 . S
O209 Gd185 2.327 . S
O209 C194 1.257 . S
O210 Gd185 2.377 . S
O210 C195 1.240 . S
O211 Gd184 2.395 . S
O211 C195 1.240 . S
O212 Gd185 2.448 . S
O212 C196 1.249 . S
O213 Gd185 2.506 . S
O213 C196 1.252 . S
O214 Gd185 2.435 . S
O214 C203 1.256 . S
O215 Gd184 2.327 . S
O215 Gd185 2.717 . S
O215 C203 1.257 . S
H216 C189 0.930 . S
H217 C190 0.931 . S
H218 C192 0.931 . S
H219 C193 0.931 . S
H220 C198 0.930 . S
H221 C199 0.931 . S
H222 C201 0.931 . S
H223 C202 0.931 . S
Gd224 C227 2.818 . S
Gd224 O244 2.377 . S
Gd224 O246 2.448 . S
Gd224 O247 2.506 . S
Gd224 O248 2.435 1_455 S
Gd224 O249 2.717 1_455 S
Gd224 O251 2.395 1_455 S
Gd224 O255 2.327 1_554 S
Gd225 C236 2.818 1_455 S
Gd225 O245 2.395 1_556 S
Gd225 O249 2.327 1_456 S
Gd225 O250 2.377 1_455 S
Gd225 O252 2.448 1_455 S
Gd225 O253 2.506 1_455 S
Gd225 O254 2.435 . S
Gd225 O255 2.717 . S
C226 O244 1.240 . S
C226 O245 1.240 . S
C227 Gd224 2.818 . S
C227 C228 1.510 . S
C227 O246 1.249 . S
C227 O247 1.252 . S
C228 C227 1.510 . S
C228 C229 1.404 . S
C228 C230 1.352 . S
C229 C228 1.404 . S
C229 C233 1.389 . S
C229 H256 0.930 . S
C230 C228 1.352 . S
C230 C232 1.374 . S
C230 H257 0.931 . S
C231 C232 1.359 . S
C231 C233 1.364 . S
C232 C230 1.374 . S
C232 C231 1.359 . S
C232 H258 0.931 . S
C233 C229 1.389 . S
C233 C231 1.364 . S
C233 H259 0.931 . S
C234 O248 1.256 . S
C234 O249 1.257 . S
C235 O250 1.240 . S
C235 O251 1.240 1_556 S
C236 Gd225 2.818 1_655 S
C236 C237 1.510 . S
C236 O252 1.249 . S
C236 O253 1.252 . S
C237 C236 1.510 . S
C237 C238 1.404 . S
C237 C239 1.352 . S
C238 C237 1.404 . S
C238 C242 1.389 . S
C238 H260 0.930 . S
C239 C237 1.352 . S
C239 C241 1.374 . S
C239 H261 0.931 . S
C240 C241 1.359 . S
C240 C242 1.364 . S
C241 C239 1.374 . S
C241 C240 1.359 . S
C241 H262 0.931 . S
C242 C238 1.389 . S
C242 C240 1.364 . S
C242 H263 0.931 . S
C243 O254 1.256 . S
C243 O255 1.257 . S
O244 Gd224 2.377 . S
O244 C226 1.240 . S
O245 Gd225 2.395 1_554 S
O245 C226 1.240 . S
O246 Gd224 2.448 . S
O246 C227 1.249 . S
O247 Gd224 2.506 . S
O247 C227 1.252 . S
O248 Gd224 2.435 1_655 S
O248 C234 1.256 . S
O249 Gd224 2.717 1_655 S
O249 Gd225 2.327 1_654 S
O249 C234 1.257 . S
O250 Gd225 2.377 1_655 S
O250 C235 1.240 . S
O251 Gd224 2.395 1_655 S
O251 C235 1.240 1_554 S
O252 Gd225 2.448 1_655 S
O252 C236 1.249 . S
O253 Gd225 2.506 1_655 S
O253 C236 1.252 . S
O254 Gd225 2.435 . S
O254 C243 1.256 . S
O255 Gd224 2.327 1_556 S
O255 Gd225 2.717 . S
O255 C243 1.257 . S
H256 C229 0.930 . S
H257 C230 0.931 . S
H258 C232 0.931 . S
H259 C233 0.931 . S
H260 C238 0.930 . S
H261 C239 0.931 . S
H262 C241 0.931 . S
H263 C242 0.931 . S
C264 C265 1.363 . S
C264 C270 1.379 . S
C264 N272 1.356 . S
C265 C264 1.363 . S
C265 C271 1.363 . S
C266 C267 1.363 . S
C266 C271 1.379 . S
C266 N273 1.356 . S
C267 C266 1.363 . S
C267 C270 1.363 . S
N268 C270 1.356 . S
N268 H280 0.984 . S
N268 H281 0.985 . S
N269 C271 1.356 . S
N269 H274 0.984 . S
N269 H275 0.985 . S
C270 C264 1.379 . S
C270 C267 1.363 . S
C270 N268 1.356 . S
C271 C265 1.363 . S
C271 C266 1.379 . S
C271 N269 1.356 . S
N272 C264 1.356 . S
N272 H278 0.984 . S
N272 H279 0.984 . S
N273 C266 1.356 . S
N273 H276 0.984 . S
N273 H277 0.985 . S
H274 N269 0.984 . S
H275 N269 0.985 . S
H276 N273 0.984 . S
H277 N273 0.985 . S
H278 N272 0.984 . S
H279 N272 0.984 . S
H280 N268 0.984 . S
H281 N268 0.985 . S
C282 C283 1.363 . S
C282 C288 1.379 . S
C282 N290 1.356 . S
C283 C282 1.363 . S
C283 C289 1.363 . S
C284 C285 1.363 . S
C284 C289 1.379 . S
C284 N291 1.356 . S
C285 C284 1.363 . S
C285 C288 1.363 . S
N286 C288 1.356 . S
N286 H298 0.984 1_565 S
N286 H299 0.985 . S
N287 C289 1.356 . S
N287 H292 0.984 . S
N287 H293 0.985 . S
C288 C282 1.379 . S
C288 C285 1.363 . S
C288 N286 1.356 . S
C289 C283 1.363 . S
C289 C284 1.379 . S
C289 N287 1.356 . S
N290 C282 1.356 . S
N290 H296 0.984 1_565 S
N290 H297 0.984 . S
N291 C284 1.356 . S
N291 H294 0.984 . S
N291 H295 0.985 . S
H292 N287 0.984 . S
H293 N287 0.985 . S
H294 N291 0.984 . S
H295 N291 0.985 . S
H296 N290 0.984 1_545 S
H297 N290 0.984 . S
H298 N286 0.984 1_545 S
H299 N286 0.985 . S
C300 C301 1.363 . S
C300 C306 1.379 . S
C300 N308 1.356 . S
C301 C300 1.363 . S
C301 C307 1.363 . S
C302 C303 1.363 . S
C302 C307 1.379 . S
C302 N309 1.356 . S
C303 C302 1.363 . S
C303 C306 1.363 . S
N304 C306 1.356 . S
N304 H316 0.984 . S
N304 H317 0.985 . S
N305 C307 1.356 . S
N305 H310 0.984 . S
N305 H311 0.985 . S
C306 C300 1.379 . S
C306 C303 1.363 . S
C306 N304 1.356 . S
C307 C301 1.363 . S
C307 C302 1.379 . S
C307 N305 1.356 . S
N308 C300 1.356 . S
N308 H314 0.984 . S
N308 H315 0.984 . S
N309 C302 1.356 . S
N309 H312 0.984 . S
N309 H313 0.985 . S
H310 N305 0.984 . S
H311 N305 0.985 . S
H312 N309 0.984 . S
H313 N309 0.985 . S
H314 N308 0.984 . S
H315 N308 0.984 . S
H316 N304 0.984 . S
H317 N304 0.985 . S
C318 C319 1.363 . S
C318 C324 1.379 . S
C318 N326 1.356 . S
C319 C318 1.363 . S
C319 C325 1.363 . S
C320 C321 1.363 . S
C320 C325 1.379 . S
C320 N327 1.356 . S
C321 C320 1.363 . S
C321 C324 1.363 . S
N322 C324 1.356 . S
N322 H334 0.984 . S
N322 H335 0.985 . S
N323 C325 1.356 . S
N323 H328 0.984 . S
N323 H329 0.985 . S
C324 C318 1.379 . S
C324 C321 1.363 . S
C324 N322 1.356 . S
C325 C319 1.363 . S
C325 C320 1.379 . S
C325 N323 1.356 . S
N326 C318 1.356 . S
N326 H332 0.984 . S
N326 H333 0.984 . S
N327 C320 1.356 . S
N327 H330 0.984 . S
N327 H331 0.985 1_655 S
H328 N323 0.984 . S
H329 N323 0.985 . S
H330 N327 0.984 . S
H331 N327 0.985 1_455 S
H332 N326 0.984 . S
H333 N326 0.984 . S
H334 N322 0.984 . S
H335 N322 0.985 . S
C336 C337 1.363 . S
C336 C342 1.379 . S
C336 N344 1.356 . S
C337 C336 1.363 . S
C337 C343 1.363 . S
C338 C339 1.363 . S
C338 C343 1.379 . S
C338 N345 1.356 . S
C339 C338 1.363 . S
C339 C342 1.363 . S
N340 C342 1.356 . S
N340 H352 0.984 . S
N340 H353 0.985 . S
N341 C343 1.356 . S
N341 H346 0.984 . S
N341 H347 0.985 . S
C342 C336 1.379 . S
C342 C339 1.363 . S
C342 N340 1.356 . S
C343 C337 1.363 . S
C343 C338 1.379 . S
C343 N341 1.356 . S
N344 C336 1.356 . S
N344 H350 0.984 . S
N344 H351 0.984 . S
N345 C338 1.356 . S
N345 H348 0.984 . S
N345 H349 0.985 . S
H346 N341 0.984 . S
H347 N341 0.985 . S
H348 N345 0.984 . S
H349 N345 0.985 . S
H350 N344 0.984 . S
H351 N344 0.984 . S
H352 N340 0.984 . S
H353 N340 0.985 . S
C354 C355 1.363 . S
C354 C360 1.379 . S
C354 N362 1.356 . S
C355 C354 1.363 . S
C355 C361 1.363 . S
C356 C357 1.363 . S
C356 C361 1.379 . S
C356 N363 1.356 1_565 S
C357 C356 1.363 . S
C357 C360 1.363 . S
N358 C360 1.356 . S
N358 H370 0.984 . S
N358 H371 0.985 . S
N359 C361 1.356 . S
N359 H364 0.984 . S
N359 H365 0.985 . S
C360 C354 1.379 . S
C360 C357 1.363 . S
C360 N358 1.356 . S
C361 C355 1.363 . S
C361 C356 1.379 . S
C361 N359 1.356 . S
N362 C354 1.356 . S
N362 H368 0.984 . S
N362 H369 0.984 . S
N363 C356 1.356 1_545 S
N363 H366 0.984 . S
N363 H367 0.985 . S
H364 N359 0.984 . S
H365 N359 0.985 . S
H366 N363 0.984 . S
H367 N363 0.985 . S
H368 N362 0.984 . S
H369 N362 0.984 . S
H370 N358 0.984 . S
H371 N358 0.985 . S
C372 C373 1.363 . S
C372 C378 1.379 . S
C372 N380 1.356 . S
C373 C372 1.363 . S
C373 C379 1.363 . S
C374 C375 1.363 . S
C374 C379 1.379 . S
C374 N381 1.356 . S
C375 C374 1.363 . S
C375 C378 1.363 . S
N376 C378 1.356 1_554 S
N376 H388 0.984 . S
N376 H389 0.985 . S
N377 C379 1.356 . S
N377 H382 0.984 . S
N377 H383 0.985 . S
C378 C372 1.379 . S
C378 C375 1.363 . S
C378 N376 1.356 1_556 S
C379 C373 1.363 . S
C379 C374 1.379 . S
C379 N377 1.356 . S
N380 C372 1.356 . S
N380 H386 0.984 1_556 S
N380 H387 0.984 . S
N381 C374 1.356 . S
N381 H384 0.984 . S
N381 H385 0.985 . S
H382 N377 0.984 . S
H383 N377 0.985 . S
H384 N381 0.984 . S
H385 N381 0.985 . S
H386 N380 0.984 1_554 S
H387 N380 0.984 . S
H388 N376 0.984 . S
H389 N376 0.985 . S
C390 C391 1.363 . S
C390 C396 1.379 . S
C390 N398 1.356 . S
C391 C390 1.363 . S
C391 C397 1.363 . S
C392 C393 1.363 . S
C392 C397 1.379 . S
C392 N399 1.356 . S
C393 C392 1.363 . S
C393 C396 1.363 . S
N394 C396 1.356 . S
N394 H406 0.984 . S
N394 H407 0.985 . S
N395 C397 1.356 . S
N395 H400 0.984 . S
N395 H401 0.985 . S
C396 C390 1.379 . S
C396 C393 1.363 . S
C396 N394 1.356 . S
C397 C391 1.363 . S
C397 C392 1.379 . S
C397 N395 1.356 . S
N398 C390 1.356 . S
N398 H404 0.984 . S
N398 H405 0.984 . S
N399 C392 1.356 . S
N399 H402 0.984 . S
N399 H403 0.985 . S
H400 N395 0.984 . S
H401 N395 0.985 . S
H402 N399 0.984 . S
H403 N399 0.985 . S
H404 N398 0.984 . S
H405 N398 0.984 . S
H406 N394 0.984 . S
H407 N394 0.985 . S
C408 C409 1.363 . S
C408 C414 1.379 . S
C408 N416 1.356 . S
C409 C408 1.363 . S
C409 C415 1.363 . S
C410 C411 1.363 . S
C410 C415 1.379 . S
C410 N417 1.356 . S
C411 C410 1.363 . S
C411 C414 1.363 . S
N412 C414 1.356 . S
N412 H424 0.984 . S
N412 H425 0.985 . S
N413 C415 1.356 . S
N413 H418 0.984 . S
N413 H419 0.985 . S
C414 C408 1.379 . S
C414 C411 1.363 . S
C414 N412 1.356 . S
C415 C409 1.363 . S
C415 C410 1.379 . S
C415 N413 1.356 . S
N416 C408 1.356 . S
N416 H422 0.984 . S
N416 H423 0.984 . S
N417 C410 1.356 . S
N417 H420 0.984 . S
N417 H421 0.985 . S
H418 N413 0.984 . S
H419 N413 0.985 . S
H420 N417 0.984 . S
H421 N417 0.985 . S
H422 N416 0.984 . S
H423 N416 0.984 . S
H424 N412 0.984 . S
H425 N412 0.985 . S
C426 C427 1.363 . S
C426 C432 1.379 . S
C426 N434 1.356 . S
C427 C426 1.363 . S
C427 C433 1.363 . S
C428 C429 1.363 . S
C428 C433 1.379 . S
C428 N435 1.356 . S
C429 C428 1.363 . S
C429 C432 1.363 . S
N430 C432 1.356 1_554 S
N430 H442 0.984 . S
N430 H443 0.985 . S
N431 C433 1.356 . S
N431 H436 0.984 . S
N431 H437 0.985 . S
C432 C426 1.379 . S
C432 C429 1.363 . S
C432 N430 1.356 1_556 S
C433 C427 1.363 . S
C433 C428 1.379 . S
C433 N431 1.356 . S
N434 C426 1.356 . S
N434 H440 0.984 1_556 S
N434 H441 0.984 . S
N435 C428 1.356 . S
N435 H438 0.984 . S
N435 H439 0.985 . S
H436 N431 0.984 . S
H437 N431 0.985 . S
H438 N435 0.984 . S
H439 N435 0.985 . S
H440 N434 0.984 1_554 S
H441 N434 0.984 . S
H442 N430 0.984 . S
H443 N430 0.985 . S
C444 C445 1.363 . S
C444 C450 1.379 . S
C444 N452 1.356 . S
C445 C444 1.363 . S
C445 C451 1.363 . S
C446 C447 1.363 . S
C446 C451 1.379 . S
C446 N453 1.356 . S
C447 C446 1.363 . S
C447 C450 1.363 . S
N448 C450 1.356 1_455 S
N448 H460 0.984 . S
N448 H461 0.985 . S
N449 C451 1.356 . S
N449 H454 0.984 . S
N449 H455 0.985 . S
C450 C444 1.379 . S
C450 C447 1.363 . S
C450 N448 1.356 1_655 S
C451 C445 1.363 . S
C451 C446 1.379 . S
C451 N449 1.356 . S
N452 C444 1.356 . S
N452 H458 0.984 1_655 S
N452 H459 0.984 . S
N453 C446 1.356 . S
N453 H456 0.984 . S
N453 H457 0.985 . S
H454 N449 0.984 . S
H455 N449 0.985 . S
H456 N453 0.984 . S
H457 N453 0.985 . S
H458 N452 0.984 1_455 S
H459 N452 0.984 . S
H460 N448 0.984 . S
H461 N448 0.985 . S
C462 C463 1.363 . S
C462 C468 1.379 . S
C462 N470 1.356 . S
C463 C462 1.363 . S
C463 C469 1.363 . S
C464 C465 1.363 . S
C464 C469 1.379 . S
C464 N471 1.356 . S
C465 C464 1.363 . S
C465 C468 1.363 . S
N466 C468 1.356 . S
N466 H478 0.984 . S
N466 H479 0.985 . S
N467 C469 1.356 . S
N467 H472 0.984 . S
N467 H473 0.985 . S
C468 C462 1.379 . S
C468 C465 1.363 . S
C468 N466 1.356 . S
C469 C463 1.363 . S
C469 C464 1.379 . S
C469 N467 1.356 . S
N470 C462 1.356 . S
N470 H476 0.984 . S
N470 H477 0.984 . S
N471 C464 1.356 . S
N471 H474 0.984 . S
N471 H475 0.985 . S
H472 N467 0.984 . S
H473 N467 0.985 . S
H474 N471 0.984 . S
H475 N471 0.985 . S
H476 N470 0.984 . S
H477 N470 0.984 . S
H478 N466 0.984 . S
H479 N466 0.985 . S
C480 C481 1.363 . S
C480 C486 1.379 . S
C480 N488 1.356 . S
C481 C480 1.363 . S
C481 C487 1.363 . S
C482 C483 1.363 . S
C482 C487 1.379 . S
C482 N489 1.356 . S
C483 C482 1.363 . S
C483 C486 1.363 . S
N484 C486 1.356 . S
N484 H496 0.984 . S
N484 H497 0.985 . S
N485 C487 1.356 . S
N485 H490 0.984 . S
N485 H491 0.985 . S
C486 C480 1.379 . S
C486 C483 1.363 . S
C486 N484 1.356 . S
C487 C481 1.363 . S
C487 C482 1.379 . S
C487 N485 1.356 . S
N488 C480 1.356 . S
N488 H494 0.984 . S
N488 H495 0.984 . S
N489 C482 1.356 . S
N489 H492 0.984 . S
N489 H493 0.985 . S
H490 N485 0.984 . S
H491 N485 0.985 . S
H492 N489 0.984 . S
H493 N489 0.985 . S
H494 N488 0.984 . S
H495 N488 0.984 . S
H496 N484 0.984 . S
H497 N484 0.985 . S
C498 C499 1.363 . S
C498 C504 1.379 . S
C498 N506 1.356 . S
C499 C498 1.363 . S
C499 C505 1.363 . S
C500 C501 1.363 . S
C500 C505 1.379 . S
C500 N507 1.356 . S
C501 C500 1.363 . S
C501 C504 1.363 . S
N502 C504 1.356 . S
N502 H514 0.984 . S
N502 H515 0.985 . S
N503 C505 1.356 . S
N503 H508 0.984 . S
N503 H509 0.985 . S
C504 C498 1.379 . S
C504 C501 1.363 . S
C504 N502 1.356 . S
C505 C499 1.363 . S
C505 C500 1.379 . S
C505 N503 1.356 . S
N506 C498 1.356 . S
N506 H512 0.984 . S
N506 H513 0.984 . S
N507 C500 1.356 . S
N507 H510 0.984 . S
N507 H511 0.985 . S
H508 N503 0.984 . S
H509 N503 0.985 . S
H510 N507 0.984 . S
H511 N507 0.985 . S
H512 N506 0.984 . S
H513 N506 0.984 . S
H514 N502 0.984 . S
H515 N502 0.985 . S
C516 C517 1.363 . S
C516 C522 1.379 . S
C516 N524 1.356 . S
C517 C516 1.363 . S
C517 C523 1.363 . S
C518 C519 1.363 . S
C518 C523 1.379 . S
C518 N525 1.356 . S
C519 C518 1.363 . S
C519 C522 1.363 . S
N520 C522 1.356 . S
N520 H532 0.984 . S
N520 H533 0.985 . S
N521 C523 1.356 . S
N521 H526 0.984 . S
N521 H527 0.985 . S
C522 C516 1.379 . S
C522 C519 1.363 . S
C522 N520 1.356 . S
C523 C517 1.363 . S
C523 C518 1.379 . S
C523 N521 1.356 . S
N524 C516 1.356 . S
N524 H530 0.984 . S
N524 H531 0.984 . S
N525 C518 1.356 . S
N525 H528 0.984 . S
N525 H529 0.985 . S
H526 N521 0.984 . S
H527 N521 0.985 . S
H528 N525 0.984 . S
H529 N525 0.985 . S
H530 N524 0.984 . S
H531 N524 0.984 . S
H532 N520 0.984 . S
H533 N520 0.985 . S
C534 C535 1.363 . S
C534 C540 1.379 . S
C534 N542 1.356 . S
C535 C534 1.363 . S
C535 C541 1.363 . S
C536 C537 1.363 . S
C536 C541 1.379 . S
C536 N543 1.356 . S
C537 C536 1.363 . S
C537 C540 1.363 . S
N538 C540 1.356 . S
N538 H550 0.984 . S
N538 H551 0.985 . S
N539 C541 1.356 . S
N539 H544 0.984 . S
N539 H545 0.985 . S
C540 C534 1.379 . S
C540 C537 1.363 . S
C540 N538 1.356 . S
C541 C535 1.363 . S
C541 C536 1.379 . S
C541 N539 1.356 . S
N542 C534 1.356 . S
N542 H548 0.984 . S
N542 H549 0.984 . S
N543 C536 1.356 . S
N543 H546 0.984 . S
N543 H547 0.985 . S
H544 N539 0.984 . S
H545 N539 0.985 . S
H546 N543 0.984 . S
H547 N543 0.985 . S
H548 N542 0.984 . S
H549 N542 0.984 . S
H550 N538 0.984 . S
H551 N538 0.985 . S
C552 C553 1.363 . S
C552 C558 1.379 . S
C552 N560 1.356 . S
C553 C552 1.363 . S
C553 C559 1.363 . S
C554 C555 1.363 . S
C554 C559 1.379 . S
C554 N561 1.356 . S
C555 C554 1.363 . S
C555 C558 1.363 . S
N556 C558 1.356 . S
N556 H568 0.984 . S
N556 H569 0.985 1_556 S
N557 C559 1.356 . S
N557 H562 0.984 . S
N557 H563 0.985 . S
C558 C552 1.379 . S
C558 C555 1.363 . S
C558 N556 1.356 . S
C559 C553 1.363 . S
C559 C554 1.379 . S
C559 N557 1.356 . S
N560 C552 1.356 . S
N560 H566 0.984 . S
N560 H567 0.984 . S
N561 C554 1.356 . S
N561 H564 0.984 1_565 S
N561 H565 0.985 . S
H562 N557 0.984 . S
H563 N557 0.985 . S
H564 N561 0.984 1_545 S
H565 N561 0.985 . S
H566 N560 0.984 . S
H567 N560 0.984 . S
H568 N556 0.984 . S
H569 N556 0.985 1_554 S
C570 C571 1.363 . S
C570 C576 1.379 . S
C570 N578 1.356 . S
C571 C570 1.363 . S
C571 C577 1.363 . S
C572 C573 1.363 . S
C572 C577 1.379 . S
C572 N579 1.356 . S
C573 C572 1.363 . S
C573 C576 1.363 . S
N574 C576 1.356 . S
N574 H586 0.984 . S
N574 H587 0.985 . S
N575 C577 1.356 . S
N575 H580 0.984 . S
N575 H581 0.985 . S
C576 C570 1.379 . S
C576 C573 1.363 . S
C576 N574 1.356 . S
C577 C571 1.363 . S
C577 C572 1.379 . S
C577 N575 1.356 . S
N578 C570 1.356 . S
N578 H584 0.984 . S
N578 H585 0.984 . S
N579 C572 1.356 . S
N579 H582 0.984 . S
N579 H583 0.985 . S
H580 N575 0.984 . S
H581 N575 0.985 . S
H582 N579 0.984 . S
H583 N579 0.985 . S
H584 N578 0.984 . S
H585 N578 0.984 . S
H586 N574 0.984 . S
H587 N574 0.985 . S
C588 C589 1.363 . S
C588 C594 1.379 . S
C588 N596 1.356 . S
C589 C588 1.363 . S
C589 C595 1.363 . S
C590 C591 1.363 . S
C590 C595 1.379 . S
C590 N597 1.356 . S
C591 C590 1.363 . S
C591 C594 1.363 . S
N592 C594 1.356 . S
N592 H604 0.984 . S
N592 H605 0.985 . S
N593 C595 1.356 . S
N593 H598 0.984 . S
N593 H599 0.985 . S
C594 C588 1.379 . S
C594 C591 1.363 . S
C594 N592 1.356 . S
C595 C589 1.363 . S
C595 C590 1.379 . S
C595 N593 1.356 . S
N596 C588 1.356 . S
N596 H602 0.984 . S
N596 H603 0.984 . S
N597 C590 1.356 . S
N597 H600 0.984 . S
N597 H601 0.985 . S
H598 N593 0.984 . S
H599 N593 0.985 . S
H600 N597 0.984 . S
H601 N597 0.985 . S
H602 N596 0.984 . S
H603 N596 0.984 . S
H604 N592 0.984 . S
H605 N592 0.985 . S
C606 C607 1.363 . S
C606 C612 1.379 . S
C606 N614 1.356 . S
C607 C606 1.363 . S
C607 C613 1.363 . S
C608 C609 1.363 . S
C608 C613 1.379 . S
C608 N615 1.356 . S
C609 C608 1.363 . S
C609 C612 1.363 . S
N610 C612 1.356 . S
N610 H622 0.984 . S
N610 H623 0.985 . S
N611 C613 1.356 . S
N611 H616 0.984 . S
N611 H617 0.985 . S
C612 C606 1.379 . S
C612 C609 1.363 . S
C612 N610 1.356 . S
C613 C607 1.363 . S
C613 C608 1.379 . S
C613 N611 1.356 . S
N614 C606 1.356 . S
N614 H620 0.984 . S
N614 H621 0.984 . S
N615 C608 1.356 . S
N615 H618 0.984 . S
N615 H619 0.985 . S
H616 N611 0.984 . S
H617 N611 0.985 . S
H618 N615 0.984 . S
H619 N615 0.985 . S
H620 N614 0.984 . S
H621 N614 0.984 . S
H622 N610 0.984 . S
H623 N610 0.985 . S
C624 C625 1.363 . S
C624 C630 1.379 . S
C624 N632 1.356 . S
C625 C624 1.363 . S
C625 C631 1.363 . S
C626 C627 1.363 . S
C626 C631 1.379 . S
C626 N633 1.356 . S
C627 C626 1.363 . S
C627 C630 1.363 . S
N628 C630 1.356 . S
N628 H640 0.984 . S
N628 H641 0.985 . S
N629 C631 1.356 . S
N629 H634 0.984 . S
N629 H635 0.985 . S
C630 C624 1.379 . S
C630 C627 1.363 . S
C630 N628 1.356 . S
C631 C625 1.363 . S
C631 C626 1.379 . S
C631 N629 1.356 . S
N632 C624 1.356 . S
N632 H638 0.984 . S
N632 H639 0.984 . S
N633 C626 1.356 . S
N633 H636 0.984 . S
N633 H637 0.985 . S
H634 N629 0.984 . S
H635 N629 0.985 . S
H636 N633 0.984 . S
H637 N633 0.985 . S
H638 N632 0.984 . S
H639 N632 0.984 . S
H640 N628 0.984 . S
H641 N628 0.985 . S
C642 C643 1.363 . S
C642 C648 1.379 . S
C642 N650 1.356 . S
C643 C642 1.363 . S
C643 C649 1.363 . S
C644 C645 1.363 . S
C644 C649 1.379 . S
C644 N651 1.356 . S
C645 C644 1.363 . S
C645 C648 1.363 . S
N646 C648 1.356 . S
N646 H658 0.984 . S
N646 H659 0.985 . S
N647 C649 1.356 . S
N647 H652 0.984 . S
N647 H653 0.985 . S
C648 C642 1.379 . S
C648 C645 1.363 . S
C648 N646 1.356 . S
C649 C643 1.363 . S
C649 C644 1.379 . S
C649 N647 1.356 . S
N650 C642 1.356 . S
N650 H656 0.984 . S
N650 H657 0.984 . S
N651 C644 1.356 . S
N651 H654 0.984 . S
N651 H655 0.985 . S
H652 N647 0.984 . S
H653 N647 0.985 . S
H654 N651 0.984 . S
H655 N651 0.985 . S
H656 N650 0.984 . S
H657 N650 0.984 . S
H658 N646 0.984 . S
H659 N646 0.985 . S
C660 C661 1.363 . S
C660 C666 1.379 . S
C660 N668 1.356 . S
C661 C660 1.363 . S
C661 C667 1.363 . S
C662 C663 1.363 . S
C662 C667 1.379 . S
C662 N669 1.356 . S
C663 C662 1.363 . S
C663 C666 1.363 . S
N664 C666 1.356 . S
N664 H676 0.984 . S
N664 H677 0.985 . S
N665 C667 1.356 . S
N665 H670 0.984 . S
N665 H671 0.985 . S
C666 C660 1.379 . S
C666 C663 1.363 . S
C666 N664 1.356 . S
C667 C661 1.363 . S
C667 C662 1.379 . S
C667 N665 1.356 . S
N668 C660 1.356 . S
N668 H674 0.984 . S
N668 H675 0.984 . S
N669 C662 1.356 . S
N669 H672 0.984 . S
N669 H673 0.985 . S
H670 N665 0.984 . S
H671 N665 0.985 . S
H672 N669 0.984 . S
H673 N669 0.985 . S
H674 N668 0.984 . S
H675 N668 0.984 . S
H676 N664 0.984 . S
H677 N664 0.985 . S
C678 C679 1.363 . S
C678 C684 1.379 . S
C678 N686 1.356 . S
C679 C678 1.363 . S
C679 C685 1.363 . S
C680 C681 1.363 . S
C680 C685 1.379 . S
C680 N687 1.356 . S
C681 C680 1.363 . S
C681 C684 1.363 . S
N682 C684 1.356 . S
N682 H694 0.984 . S
N682 H695 0.985 . S
N683 C685 1.356 . S
N683 H688 0.984 . S
N683 H689 0.985 . S
C684 C678 1.379 . S
C684 C681 1.363 . S
C684 N682 1.356 . S
C685 C679 1.363 . S
C685 C680 1.379 . S
C685 N683 1.356 . S
N686 C678 1.356 . S
N686 H692 0.984 . S
N686 H693 0.984 . S
N687 C680 1.356 . S
N687 H690 0.984 . S
N687 H691 0.985 . S
H688 N683 0.984 . S
H689 N683 0.985 . S
H690 N687 0.984 . S
H691 N687 0.985 . S
H692 N686 0.984 . S
H693 N686 0.984 . S
H694 N682 0.984 . S
H695 N682 0.985 . S
C265 N1 0.975 . S
C267 C111 1.006 . S
C283 N18 1.116 . S
C285 C160 1.183 . S
C303 C186 2.181 . S
C301 N28 2.225 . S
C319 N40 2.665 . S
C321 C234 2.677 . S
C339 C146 2.257 . S
C337 N5 2.173 . S
C357 C114 0.639 . S
C355 N14 0.631 . S
C375 C235 2.057 . S
C373 N31 2.049 . S
C393 C203 1.578 . S
C391 N41 1.593 . S
C409 N2 1.324 . S
C411 C231 1.367 . S
C429 C163 2.477 1_556 S
C427 N27 2.539 . S
C445 N44 2.429 . S
C447 C115 2.497 . S
C463 N15 1.002 . S
C465 C200 1.004 . S
C483 C120 1.493 . S
C481 N57 1.550 . S
C499 N70 1.000 . S
C501 C151 1.092 . S
C517 N79 2.361 . S
C519 C195 2.407 . S
C535 N93 2.498 . S
C537 C243 2.476 . S
C553 N54 1.856 . S
C555 C155 2.022 1_565 S
C573 C123 1.395 . S
C571 N66 1.476 . S
C591 C226 1.601 . S
C589 N80 1.658 . S
C609 C194 1.811 . S
C607 N96 1.817 . S
C625 N53 1.533 . S
C627 C240 1.540 . S
C645 C154 2.200 . S
C643 N83 2.196 . S
C663 C106 2.639 . S
C661 N92 2.644 . S
C679 N67 1.201 . S
C681 C191 1.239 . S
