# Generated by pormake.
# Topology nom, (4,4)-cn, num edge types: 1
# Building blocks:
#     Node 0, Type 0, BuildingBlock: NAWXER_clean_linker_0, # of connection points: 4
#     Node 1, Type 0, BuildingBlock: NAWXER_clean_linker_0, # of connection points: 4
#     Node 2, Type 0, BuildingBlock: NAWXER_clean_linker_0, # of connection points: 4
#     Node 3, Type 0, BuildingBlock: NAWXER_clean_linker_0, # of connection points: 4
#     Node 4, Type 0, BuildingBlock: NAWXER_clean_linker_0, # of connection points: 4
#     Node 5, Type 0, BuildingBlock: NAWXER_clean_linker_0, # of connection points: 4
#     Node 6, Type 1, BuildingBlock: TATPOV_clean_sbu_0, # of connection points: 4
#     Node 7, Type 1, BuildingBlock: TATPOV_clean_sbu_0, # of connection points: 4
#     Node 8, Type 1, BuildingBlock: TATPOV_clean_sbu_0, # of connection points: 4
#     Node 9, Type 1, BuildingBlock: TATPOV_clean_sbu_0, # of connection points: 4
#     Node 10, Type 1, BuildingBlock: TATPOV_clean_sbu_0, # of connection points: 4
#     Node 11, Type 1, BuildingBlock: TATPOV_clean_sbu_0, # of connection points: 4
#     Edge 12, Type (0, 1), BuildingBlock: OJICUG_clean_linker_0, # of connection points: 2
#     Edge 13, Type (0, 1), BuildingBlock: OJICUG_clean_linker_0, # of connection points: 2
#     Edge 14, Type (0, 1), BuildingBlock: OJICUG_clean_linker_0, # of connection points: 2
#     Edge 15, Type (0, 1), BuildingBlock: OJICUG_clean_linker_0, # of connection points: 2
#     Edge 16, Type (0, 1), BuildingBlock: OJICUG_clean_linker_0, # of connection points: 2
#     Edge 17, Type (0, 1), BuildingBlock: OJICUG_clean_linker_0, # of connection points: 2
#     Edge 18, Type (0, 1), BuildingBlock: OJICUG_clean_linker_0, # of connection points: 2
#     Edge 19, Type (0, 1), BuildingBlock: OJICUG_clean_linker_0, # of connection points: 2
#     Edge 20, Type (0, 1), BuildingBlock: OJICUG_clean_linker_0, # of connection points: 2
#     Edge 21, Type (0, 1), BuildingBlock: OJICUG_clean_linker_0, # of connection points: 2
#     Edge 22, Type (0, 1), BuildingBlock: OJICUG_clean_linker_0, # of connection points: 2
#     Edge 23, Type (0, 1), BuildingBlock: OJICUG_clean_linker_0, # of connection points: 2
#     Edge 24, Type (0, 1), BuildingBlock: OJICUG_clean_linker_0, # of connection points: 2
#     Edge 25, Type (0, 1), BuildingBlock: OJICUG_clean_linker_0, # of connection points: 2
#     Edge 26, Type (0, 1), BuildingBlock: OJICUG_clean_linker_0, # of connection points: 2
#     Edge 27, Type (0, 1), BuildingBlock: OJICUG_clean_linker_0, # of connection points: 2
#     Edge 28, Type (0, 1), BuildingBlock: OJICUG_clean_linker_0, # of connection points: 2
#     Edge 29, Type (0, 1), BuildingBlock: OJICUG_clean_linker_0, # of connection points: 2
#     Edge 30, Type (0, 1), BuildingBlock: OJICUG_clean_linker_0, # of connection points: 2
#     Edge 31, Type (0, 1), BuildingBlock: OJICUG_clean_linker_0, # of connection points: 2
#     Edge 32, Type (0, 1), BuildingBlock: OJICUG_clean_linker_0, # of connection points: 2
#     Edge 33, Type (0, 1), BuildingBlock: OJICUG_clean_linker_0, # of connection points: 2
#     Edge 34, Type (0, 1), BuildingBlock: OJICUG_clean_linker_0, # of connection points: 2
#     Edge 35, Type (0, 1), BuildingBlock: OJICUG_clean_linker_0, # of connection points: 2
# Relax obj value: 0.025
# Max RMSD: 0.117
# Mean RMSD: 0.110
data_MOF--net-nom--node1-TATPOV_clean_sbu_0--node2-NAWXER_clean_linker_0--edge1-OJICUG_clean_linker_0
_symmetry_space_group_name_H-M    P1
_symmetry_Int_Tables_number       1
_symmetry_cell_setting            triclinic
loop_
_symmetry_equiv_pos_as_xyz
'x, y, z'
_cell_length_a     40.42709
_cell_length_b     40.862692
_cell_length_c     44.243148
_cell_angle_alpha  90.6103
_cell_angle_beta   90.802285
_cell_angle_gamma 120.07742
loop_
_atom_site_label
_atom_site_type_symbol
_atom_site_fract_x
_atom_site_fract_y
_atom_site_fract_z
_atom_type_partial_charge
C0 C 0.89338 0.4584 0.33857 0.0
C1 C 0.87603 0.43674 0.36408 0.0
C2 C 0.92446 0.45814 0.32567 0.0
C3 C 0.93861 0.43575 0.33766 0.0
C4 C 0.88932 0.41339 0.37563 0.0
C5 C 0.92073 0.41326 0.3627 0.0
C6 C 0.97581 0.44156 0.32743 0.0
C7 C 0.89223 0.39297 0.24869 0.0
C8 C 0.90223 0.41796 0.22446 0.0
C9 C 0.91901 0.39977 0.27201 0.0
C10 C 0.956 0.43168 0.2713 0.0
C11 C 0.93973 0.44846 0.22309 0.0
C12 C 0.9662 0.45522 0.24613 0.0
C13 C 0.98455 0.4424 0.29648 0.0
C14 C 0.15771 0.53618 0.29469 0.0
C15 C 0.15847 0.56462 0.27635 0.0
C16 C 0.12297 0.5071 0.30552 0.0
C17 C 0.08858 0.50583 0.29776 0.0
C18 C 0.12367 0.56279 0.26882 0.0
C19 C 0.0893 0.5336 0.27904 0.0
C20 C 0.05122 0.47732 0.30945 0.0
C21 C 0.1144 0.55729 0.38835 0.0
C22 C 0.11764 0.53937 0.41425 0.0
C23 C 0.09128 0.53605 0.36381 0.0
C24 C 0.07141 0.49637 0.36435 0.0
C25 C 0.09861 0.49962 0.41447 0.0
C26 C 0.07539 0.4783 0.38979 0.0
C27 C 0.04257 0.47425 0.34042 0.0
H28 H 0.88352 0.47639 0.32902 0.0
H29 H 0.93855 0.47694 0.30716 0.0
H30 H 0.87655 0.39659 0.3954 0.0
H31 H 0.9318 0.39653 0.37278 0.0
H32 H 0.86348 0.36911 0.25011 0.0
H33 H 0.91062 0.38061 0.29077 0.0
H34 H 0.9484 0.4678 0.20441 0.0
H35 H 0.99443 0.47992 0.24468 0.0
H36 H 0.18384 0.5364 0.30078 0.0
H37 H 0.12295 0.48582 0.31992 0.0
H38 H 0.12276 0.58459 0.25577 0.0
H39 H 0.06314 0.53355 0.27317 0.0
H40 H 0.12886 0.58786 0.38743 0.0
H41 H 0.08766 0.55075 0.34497 0.0
H42 H 0.10018 0.48504 0.43425 0.0
H43 H 0.05968 0.44772 0.3909 0.0
N44 N 0.00516 0.45649 0.34817 0.0
N45 N 0.02193 0.46046 0.28897 0.0
C46 C 0.40176 0.89975 0.50416 0.0
C47 C 0.41041 0.88241 0.52783 0.0
C48 C 0.42967 0.93436 0.49318 0.0
C49 C 0.4671 0.95226 0.50527 0.0
C50 C 0.44802 0.89998 0.53969 0.0
C51 C 0.47607 0.93488 0.52869 0.0
C52 C 0.49522 0.99088 0.49569 0.0
C53 C 0.47146 0.91345 0.41607 0.0
C54 C 0.4531 0.9199 0.39155 0.0
C55 C 0.48777 0.94003 0.43981 0.0
C56 C 0.48567 0.97335 0.43956 0.0
C57 C 0.45234 0.95391 0.3909 0.0
C58 C 0.46851 0.98034 0.4146 0.0
C59 C 0.50114 0.00121 0.465 0.0
C60 C 0.60347 0.17108 0.47016 0.0
C61 C 0.58204 0.1809 0.45082 0.0
C62 C 0.58812 0.13389 0.47996 0.0
C63 C 0.55134 0.10594 0.47023 0.0
C64 C 0.54525 0.15288 0.4412 0.0
C65 C 0.53023 0.11565 0.45055 0.0
C66 C 0.53443 0.06638 0.48002 0.0
C67 C 0.53022 0.12959 0.56295 0.0
C68 C 0.55036 0.12755 0.58832 0.0
C69 C 0.52525 0.1077 0.53704 0.0
C70 C 0.54058 0.08357 0.53594 0.0
C71 C 0.56684 0.10441 0.58682 0.0
C72 C 0.56165 0.0823 0.56091 0.0
C73 C 0.5302 0.05605 0.51067 0.0
H74 H 0.37315 0.88675 0.49435 0.0
H75 H 0.4216 0.94767 0.4758 0.0
H76 H 0.45539 0.88738 0.5581 0.0
H77 H 0.5046 0.94854 0.53871 0.0
H78 H 0.47256 0.88754 0.41721 0.0
H79 H 0.50178 0.93442 0.45843 0.0
H80 H 0.43919 0.96014 0.37201 0.0
H81 H 0.46687 0.00598 0.41368 0.0
H82 H 0.6319 0.19226 0.47791 0.0
H83 H 0.60503 0.12689 0.49491 0.0
H84 H 0.52833 0.15968 0.4261 0.0
H85 H 0.50182 0.09447 0.44273 0.0
H86 H 0.51736 0.14732 0.56347 0.0
H87 H 0.50793 0.10837 0.51843 0.0
H88 H 0.58214 0.10201 0.60618 0.0
H89 H 0.57317 0.0634 0.56066 0.0
N90 N 0.51058 0.0187 0.51732 0.0
N91 N 0.52003 0.03857 0.45841 0.0
C92 C 0.60472 0.50945 0.59205 0.0
C93 C 0.58596 0.49219 0.56456 0.0
C94 C 0.58631 0.51902 0.61394 0.0
C95 C 0.54875 0.51155 0.60879 0.0
C96 C 0.54827 0.48445 0.55948 0.0
C97 C 0.52996 0.49439 0.58131 0.0
C98 C 0.52981 0.52285 0.63173 0.0
C99 C 0.52557 0.42239 0.67422 0.0
C100 C 0.54656 0.42885 0.70134 0.0
C101 C 0.52258 0.45154 0.66086 0.0
C102 C 0.54065 0.48788 0.67427 0.0
C103 C 0.56582 0.46546 0.71428 0.0
C104 C 0.56248 0.49468 0.70101 0.0
C105 C 0.5317 0.51654 0.66285 0.0
C106 C 0.42915 0.55543 0.72514 0.0
C107 C 0.45261 0.5765 0.74995 0.0
C108 C 0.44508 0.54946 0.69935 0.0
C109 C 0.48475 0.56462 0.69792 0.0
C110 C 0.49244 0.59346 0.74778 0.0
C111 C 0.50835 0.58723 0.72205 0.0
C112 C 0.50106 0.55195 0.67399 0.0
C113 C 0.45506 0.61978 0.62966 0.0
C114 C 0.42324 0.59688 0.61072 0.0
C115 C 0.47918 0.60663 0.63982 0.0
C116 C 0.47203 0.57052 0.63096 0.0
C117 C 0.41661 0.56106 0.60149 0.0
C118 C 0.44101 0.54817 0.61129 0.0
C119 C 0.49563 0.55497 0.64276 0.0
H120 H 0.63373 0.5157 0.59659 0.0
H121 H 0.60174 0.5329 0.63471 0.0
H122 H 0.53332 0.47161 0.53831 0.0
H123 H 0.50108 0.48856 0.57677 0.0
H124 H 0.51069 0.39447 0.66367 0.0
H125 H 0.50454 0.44508 0.6408 0.0
H126 H 0.58206 0.47105 0.73527 0.0
H127 H 0.57613 0.52233 0.71201 0.0
H128 H 0.39833 0.54216 0.72625 0.0
H129 H 0.42624 0.53119 0.68133 0.0
H130 H 0.51109 0.6095 0.76669 0.0
H131 H 0.539 0.59873 0.7215 0.0
H132 H 0.46076 0.64748 0.63716 0.0
H133 H 0.50319 0.6245 0.65475 0.0
H134 H 0.39256 0.54303 0.58664 0.0
H135 H 0.43503 0.52024 0.60415 0.0
N136 N 0.51089 0.54092 0.62273 0.0
N137 N 0.51821 0.53222 0.68279 0.0
C138 C 0.8486 0.39734 0.78965 0.0
C139 C 0.82945 0.41156 0.77221 0.0
C140 C 0.88605 0.42107 0.79983 0.0
C141 C 0.90534 0.45951 0.79269 0.0
C142 C 0.84934 0.44989 0.76414 0.0
C143 C 0.88719 0.47365 0.77414 0.0
C144 C 0.9445 0.48425 0.80475 0.0
C145 C 0.87078 0.47073 0.88456 0.0
C146 C 0.87453 0.45068 0.90873 0.0
C147 C 0.89523 0.48073 0.86008 0.0
C148 C 0.92393 0.47095 0.8594 0.0
C149 C 0.90221 0.43957 0.9074 0.0
C150 C 0.92691 0.44992 0.88307 0.0
C151 C 0.95326 0.48586 0.83582 0.0
C152 C 0.12696 0.57335 0.84254 0.0
C153 C 0.13068 0.54718 0.8606 0.0
C154 C 0.09086 0.5651 0.83143 0.0
C155 C 0.05833 0.53025 0.83777 0.0
C156 C 0.09763 0.51377 0.86862 0.0
C157 C 0.06203 0.50535 0.85721 0.0
C158 C 0.01977 0.51844 0.82525 0.0
C159 C 0.09721 0.5474 0.74472 0.0
C160 C 0.09527 0.57383 0.7257 0.0
C161 C 0.06971 0.52904 0.76682 0.0
C162 C 0.04035 0.53751 0.77083 0.0
C163 C 0.06479 0.58088 0.72908 0.0
C164 C 0.03779 0.56301 0.75138 0.0
C165 C 0.01109 0.51924 0.79422 0.0
H166 H 0.8346 0.36778 0.79555 0.0
H167 H 0.89997 0.40938 0.81345 0.0
H168 H 0.83537 0.46177 0.75083 0.0
H169 H 0.90186 0.50321 0.76819 0.0
H170 H 0.84961 0.47957 0.88502 0.0
H171 H 0.89279 0.49756 0.84238 0.0
H172 H 0.90602 0.4245 0.92588 0.0
H173 H 0.94899 0.44226 0.88309 0.0
H174 H 0.15195 0.59949 0.83621 0.0
H175 H 0.08854 0.58547 0.81745 0.0
H176 H 0.09936 0.49357 0.88326 0.0
H177 H 0.03734 0.47863 0.86303 0.0
H178 H 0.12013 0.54112 0.7428 0.0
H179 H 0.07155 0.50842 0.78084 0.0
H180 H 0.06141 0.59998 0.71427 0.0
H181 H 0.01491 0.56936 0.75357 0.0
N182 N 0.97363 0.50175 0.78514 0.0
N183 N 0.99043 0.50224 0.84474 0.0
C184 C 0.48432 0.86159 0.96544 0.0
C185 C 0.45423 0.84635 0.94381 0.0
C186 C 0.499 0.89839 0.97674 0.0
C187 C 0.48395 0.92086 0.96673 0.0
C188 C 0.43995 0.86932 0.93313 0.0
C189 C 0.45488 0.90634 0.94436 0.0
C190 C 0.49913 0.95963 0.97931 0.0
C191 C 0.43173 0.8858 0.05492 0.0
C192 C 0.45225 0.88859 0.08163 0.0
C193 C 0.44946 0.91072 0.0314 0.0
C194 C 0.48826 0.93871 0.03389 0.0
C195 C 0.49133 0.91596 0.08384 0.0
C196 C 0.5091 0.94099 0.06025 0.0
C197 C 0.50561 0.96804 0.01058 0.0
C198 C 0.56863 0.13656 0.02036 0.0
C199 C 0.60145 0.14659 0.03835 0.0
C200 C 0.54678 0.09984 0.00827 0.0
C201 C 0.55801 0.07287 0.0133 0.0
C202 C 0.61169 0.1191 0.04428 0.0
C203 C 0.59016 0.08263 0.0319 0.0
C204 C 0.53616 0.03398 0.00042 0.0
C205 C 0.57101 0.11364 0.92148 0.0
C206 C 0.53963 0.10717 0.90289 0.0
C207 C 0.56731 0.08704 0.94289 0.0
C208 C 0.53195 0.05388 0.94652 0.0
C209 C 0.50474 0.07327 0.90601 0.0
C210 C 0.50098 0.04706 0.92755 0.0
C211 C 0.52623 0.02536 0.96935 0.0
H212 H 0.49672 0.84512 0.97359 0.0
H213 H 0.52227 0.90935 0.99331 0.0
H214 H 0.41664 0.85843 0.91663 0.0
H215 H 0.44307 0.92331 0.93612 0.0
H216 H 0.40165 0.86489 0.05249 0.0
H217 H 0.4323 0.90899 0.01178 0.0
H218 H 0.50777 0.91909 0.10431 0.0
H219 H 0.5389 0.96266 0.06286 0.0
H220 H 0.55974 0.15704 0.01583 0.0
H221 H 0.52129 0.09261 0.99491 0.0
H222 H 0.63693 0.12606 0.05791 0.0
H223 H 0.59906 0.06214 0.03644 0.0
H224 H 0.59833 0.13938 0.91973 0.0
H225 H 0.59198 0.09248 0.95664 0.0
H226 H 0.48026 0.06663 0.89154 0.0
H227 H 0.47356 0.02143 0.92957 0.0
N228 N 0.50866 0.98848 0.95999 0.0
N229 N 0.52489 0.00489 0.01983 0.0
C230 C 0.4777 0.60956 0.19869 0.0
C231 C 0.44783 0.59988 0.21898 0.0
C232 C 0.48444 0.58191 0.18655 0.0
C233 C 0.46186 0.54403 0.19469 0.0
C234 C 0.42552 0.5618 0.22739 0.0
C235 C 0.4328 0.53416 0.21558 0.0
C236 C 0.47065 0.51571 0.18237 0.0
C237 C 0.40098 0.52753 0.10644 0.0
C238 C 0.42258 0.5455 0.08093 0.0
C239 C 0.41706 0.51734 0.13014 0.0
C240 C 0.45478 0.52458 0.12846 0.0
C241 C 0.46087 0.55431 0.08004 0.0
C242 C 0.47669 0.54362 0.10346 0.0
C243 C 0.47056 0.50942 0.15105 0.0
C244 C 0.55581 0.42131 0.14425 0.0
C245 C 0.57969 0.44251 0.12068 0.0
C246 C 0.52946 0.4305 0.15613 0.0
C247 C 0.52736 0.46156 0.14502 0.0
C248 C 0.57472 0.47103 0.10778 0.0
C249 C 0.54905 0.48055 0.11989 0.0
C250 C 0.50437 0.47629 0.15941 0.0
C251 C 0.58465 0.48178 0.23438 0.0
C252 C 0.5658 0.46004 0.25958 0.0
C253 C 0.56424 0.488 0.21167 0.0
C254 C 0.52447 0.47201 0.2134 0.0
C255 C 0.52587 0.4436 0.26102 0.0
C256 C 0.50544 0.44978 0.23821 0.0
C257 C 0.50333 0.48152 0.19102 0.0
H258 H 0.49618 0.63862 0.19227 0.0
H259 H 0.50771 0.5902 0.17103 0.0
H260 H 0.402 0.55317 0.24267 0.0
H261 H 0.4154 0.50505 0.22233 0.0
H262 H 0.37138 0.52045 0.10763 0.0
H263 H 0.39951 0.50229 0.14907 0.0
H264 H 0.478 0.56771 0.06049 0.0
H265 H 0.50585 0.54942 0.10171 0.0
H266 H 0.55876 0.3989 0.15445 0.0
H267 H 0.51185 0.41424 0.17463 0.0
H268 H 0.59187 0.48712 0.08901 0.0
H269 H 0.54757 0.50411 0.11036 0.0
H270 H 0.61534 0.49463 0.23251 0.0
H271 H 0.57966 0.50603 0.19309 0.0
H272 H 0.51061 0.42722 0.28035 0.0
H273 H 0.47484 0.43775 0.24018 0.0
N274 N 0.48656 0.50113 0.20125 0.0
N275 N 0.48755 0.4902 0.14083 0.0
Zn276 Zn 0.7073 0.48836 0.41285 0.0
Zn277 Zn 0.6629 0.41258 0.41577 0.0
O278 O 0.71841 0.42372 0.4111 0.0
O279 O 0.75531 0.48542 0.4095 0.0
O280 O 0.63382 0.35591 0.4219 0.0
O281 O 0.68856 0.49488 0.45323 0.0
O282 O 0.6499 0.43323 0.45381 0.0
C283 C 0.75148 0.45274 0.40871 0.0
C284 C 0.64987 0.453 0.36391 0.0
O285 O 0.64052 0.42202 0.37709 0.0
O286 O 0.6768 0.484 0.37472 0.0
C287 C 0.64565 0.33478 0.41097 0.0
O288 O 0.67539 0.3495 0.39339 0.0
C289 C 0.6623 0.46597 0.46576 0.0
Zn290 Zn 0.20596 0.68492 0.56904 0.0
Zn291 Zn 0.24996 0.65357 0.57554 0.0
O292 O 0.28738 0.71107 0.56978 0.0
O293 O 0.25116 0.73673 0.56453 0.0
O294 O 0.28553 0.63266 0.58308 0.0
O295 O 0.18372 0.66717 0.60995 0.0
O296 O 0.21669 0.63777 0.61387 0.0
C297 C 0.28401 0.7401 0.56552 0.0
C298 C 0.19289 0.62858 0.5225 0.0
O299 O 0.21906 0.62593 0.53678 0.0
O300 O 0.18237 0.65127 0.53194 0.0
C301 C 0.31985 0.64924 0.57407 0.0
O302 O 0.33242 0.68 0.55814 0.0
C303 C 0.19247 0.64597 0.62446 0.0
Zn304 Zn 0.5149 0.21725 0.7514 0.0
Zn305 Zn 0.59184 0.2557 0.75315 0.0
O306 O 0.5769 0.29658 0.74876 0.0
O307 O 0.51406 0.26615 0.74815 0.0
O308 O 0.64867 0.28696 0.75823 0.0
O309 O 0.51429 0.19446 0.79206 0.0
O310 O 0.57711 0.22397 0.79147 0.0
C311 C 0.5456 0.29686 0.74681 0.0
C312 C 0.55112 0.20041 0.70129 0.0
O313 O 0.58238 0.22444 0.71441 0.0
O314 O 0.51937 0.19256 0.7126 0.0
C315 C 0.66973 0.31277 0.74014 0.0
O316 O 0.65426 0.31832 0.71585 0.0
C317 C 0.54584 0.20148 0.80411 0.0
Zn318 Zn 0.32651 0.53493 0.90946 0.0
Zn319 Zn 0.36092 0.60968 0.91407 0.0
O320 O 0.30504 0.59484 0.90427 0.0
O321 O 0.27704 0.53285 0.90009 0.0
O322 O 0.38654 0.66576 0.92206 0.0
O323 O 0.34042 0.52962 0.95204 0.0
O324 O 0.37161 0.59178 0.95478 0.0
C325 C 0.27527 0.56285 0.8988 0.0
C326 C 0.3833 0.57297 0.86412 0.0
O327 O 0.38732 0.60292 0.8769 0.0
O328 O 0.36031 0.54084 0.87462 0.0
C329 C 0.38829 0.69007 0.9035 0.0
O330 O 0.37351 0.679 0.87612 0.0
C331 C 0.36137 0.55998 0.96682 0.0
Zn332 Zn 0.7894 0.45653 0.08009 0.0
Zn333 Zn 0.74866 0.38193 0.07377 0.0
O334 O 0.70857 0.39773 0.08315 0.0
O335 O 0.74247 0.45979 0.08676 0.0
O336 O 0.71515 0.32646 0.0639 0.0
O337 O 0.8106 0.46296 0.03852 0.0
O338 O 0.77809 0.40093 0.0339 0.0
C339 C 0.71053 0.42953 0.08759 0.0
C340 C 0.80746 0.41602 0.1251 0.0
O341 O 0.78229 0.38626 0.11102 0.0
O342 O 0.81533 0.44837 0.11595 0.0
C343 C 0.70087 0.29981 0.0827 0.0
O344 O 0.70891 0.30755 0.11168 0.0
C345 C 0.80088 0.43319 0.02304 0.0
Zn346 Zn 0.32802 0.7844 0.23843 0.0
Zn347 Zn 0.37833 0.75975 0.2436 0.0
O348 O 0.32557 0.71291 0.24897 0.0
O349 O 0.28348 0.73088 0.23963 0.0
O350 O 0.4107 0.73547 0.24169 0.0
O351 O 0.34966 0.80789 0.19835 0.0
O352 O 0.39032 0.78729 0.20307 0.0
C353 C 0.29108 0.70521 0.24599 0.0
C354 C 0.38206 0.81503 0.29064 0.0
O355 O 0.39635 0.7958 0.28009 0.0
O356 O 0.35335 0.81391 0.27753 0.0
C357 C 0.4059 0.70908 0.25923 0.0
O358 O 0.3827 0.7008 0.28202 0.0
C359 C 0.37723 0.80502 0.18819 0.0
C360 C 0.196 0.61544 0.23901 0.0
C361 C 0.195 0.59748 0.2663 0.0
H362 H 0.22693 0.6642 0.21167 0.0
C363 C 0.22808 0.61348 0.28503 0.0
H364 H 0.1718 0.60338 0.22333 0.0
C365 C 0.26036 0.64762 0.27747 0.0
C366 C 0.25973 0.66678 0.25154 0.0
H367 H 0.2285 0.60082 0.30629 0.0
H368 H 0.28496 0.66014 0.2928 0.0
C369 C 0.22768 0.65012 0.23207 0.0
C370 C 0.57707 0.23895 0.44301 0.0
C371 C 0.59807 0.22019 0.44039 0.0
H372 H 0.57578 0.29013 0.43597 0.0
C373 C 0.63428 0.23899 0.42741 0.0
H374 H 0.54909 0.22502 0.45303 0.0
C375 C 0.64925 0.27589 0.41718 0.0
C376 C 0.62857 0.29497 0.42023 0.0
H377 H 0.65086 0.22499 0.42492 0.0
H378 H 0.67735 0.28971 0.4074 0.0
C379 C 0.59234 0.27615 0.43329 0.0
C380 C 0.41087 0.64634 0.58915 0.0
C381 C 0.39669 0.61005 0.60091 0.0
H382 H 0.39768 0.68692 0.57103 0.0
C383 C 0.35697 0.58642 0.60337 0.0
H384 H 0.44134 0.66501 0.58681 0.0
C385 C 0.33192 0.59904 0.59461 0.0
C386 C 0.34609 0.63533 0.58278 0.0
H387 H 0.3453 0.5584 0.61257 0.0
H388 H 0.30148 0.58034 0.59707 0.0
C389 C 0.38582 0.65874 0.57996 0.0
C390 C 0.76347 0.36004 0.78415 0.0
C391 C 0.78855 0.38648 0.76353 0.0
H392 H 0.70674 0.31602 0.79287 0.0
C393 C 0.77418 0.38847 0.73489 0.0
H394 H 0.77329 0.35827 0.80665 0.0
C395 C 0.73559 0.36439 0.72707 0.0
C396 C 0.71074 0.33778 0.7477 0.0
H397 H 0.79281 0.40829 0.71839 0.0
H398 H 0.72529 0.36654 0.70487 0.0
C399 C 0.72516 0.33587 0.77628 0.0
C400 C 0.43249 0.77822 0.95349 0.0
C401 C 0.43742 0.80638 0.93309 0.0
H402 H 0.41344 0.7198 0.9602 0.0
C403 C 0.4261 0.79594 0.90265 0.0
H404 H 0.44017 0.78503 0.97721 0.0
C405 C 0.41026 0.75821 0.89289 0.0
C406 C 0.40555 0.73019 0.91336 0.0
H407 H 0.42986 0.81697 0.88626 0.0
H408 H 0.40184 0.75107 0.86932 0.0
C409 C 0.41692 0.74068 0.94374 0.0
C410 C 0.60876 0.4022 0.10741 0.0
C411 C 0.61229 0.43801 0.11136 0.0
H412 H 0.63709 0.37121 0.09637 0.0
C413 C 0.64796 0.47047 0.107 0.0
H414 H 0.58156 0.37671 0.11057 0.0
C415 C 0.67935 0.46741 0.09879 0.0
C416 C 0.67612 0.43176 0.09487 0.0
H417 H 0.65192 0.4985 0.11052 0.0
H418 H 0.70637 0.49321 0.09589 0.0
C419 C 0.64044 0.39909 0.09912 0.0
C420 C 0.34372 0.84321 0.5459 0.0
C421 C 0.37956 0.84687 0.54053 0.0
H422 H 0.28586 0.80706 0.55833 0.0
C423 C 0.38486 0.81598 0.54612 0.0
H424 H 0.33899 0.86678 0.54245 0.0
C425 C 0.35423 0.78148 0.55542 0.0
C426 C 0.31786 0.77739 0.55936 0.0
H427 H 0.41222 0.81804 0.5422 0.0
H428 H 0.35877 0.75777 0.55854 0.0
C429 C 0.31329 0.80897 0.55519 0.0
C430 C 0.51184 0.36302 0.72041 0.0
C431 C 0.54655 0.39672 0.71647 0.0
H432 H 0.48425 0.30535 0.73367 0.0
C433 C 0.58088 0.39864 0.72559 0.0
H434 H 0.48492 0.36104 0.714 0.0
C435 C 0.5806 0.36658 0.73681 0.0
C436 C 0.54591 0.33226 0.73939 0.0
H437 H 0.60799 0.42437 0.72281 0.0
H438 H 0.60761 0.36837 0.74247 0.0
C439 C 0.51149 0.3312 0.73187 0.0
C440 C 0.17458 0.52174 0.86814 0.0
C441 C 0.16859 0.55271 0.86972 0.0
H442 H 0.21231 0.5006 0.87633 0.0
C443 C 0.19847 0.58785 0.88047 0.0
H444 H 0.15256 0.49454 0.85921 0.0
C445 C 0.23341 0.59153 0.89011 0.0
C446 C 0.23879 0.56008 0.88918 0.0
H447 H 0.1946 0.61219 0.88195 0.0
H448 H 0.25598 0.61879 0.89848 0.0
C449 C 0.20902 0.52529 0.87792 0.0
C450 C 0.63638 0.2166 0.03109 0.0
C451 C 0.62568 0.18584 0.0502 0.0
H452 H 0.66875 0.27657 0.02625 0.0
C453 C 0.63943 0.19281 0.08032 0.0
H454 H 0.62654 0.21205 0.0077 0.0
C455 C 0.66357 0.22983 0.09105 0.0
C456 C 0.67478 0.26056 0.07176 0.0
H457 H 0.63142 0.1696 0.09561 0.0
H458 H 0.67376 0.2343 0.11433 0.0
C459 C 0.66081 0.25353 0.04169 0.0
C460 C 0.42641 0.62819 0.25993 0.0
C461 C 0.43945 0.62932 0.23041 0.0
H462 H 0.40588 0.65278 0.29238 0.0
C463 C 0.44376 0.65855 0.21144 0.0
H464 H 0.42341 0.60654 0.27537 0.0
C465 C 0.43469 0.68549 0.22144 0.0
C466 C 0.42039 0.68359 0.25051 0.0
H467 H 0.45299 0.66005 0.18839 0.0
H468 H 0.43748 0.70695 0.20585 0.0
C469 C 0.41677 0.65494 0.26981 0.0
C470 C 0.85004 0.4764 0.38425 0.0
C471 C 0.84543 0.44035 0.3791 0.0
H472 H 0.82436 0.50859 0.39809 0.0
C473 C 0.81097 0.40829 0.38695 0.0
H474 H 0.87663 0.50164 0.37901 0.0
C475 C 0.78082 0.41223 0.39801 0.0
C476 C 0.78476 0.44832 0.40156 0.0
H477 H 0.80675 0.38018 0.3833 0.0
H478 H 0.75405 0.38697 0.40275 0.0
C479 C 0.82012 0.48035 0.39539 0.0
C480 C 0.13169 0.59161 0.45115 0.0
C481 C 0.13788 0.56221 0.44177 0.0
H482 H 0.14397 0.63527 0.4837 0.0
C483 C 0.16255 0.5546 0.45918 0.0
H484 H 0.11233 0.59777 0.43857 0.0
C485 C 0.1809 0.57628 0.48532 0.0
C486 C 0.17448 0.60562 0.49468 0.0
H487 H 0.16789 0.53213 0.45243 0.0
H488 H 0.1998 0.56989 0.49829 0.0
C489 C 0.14967 0.61296 0.47723 0.0
C490 C 0.51745 0.14413 0.6278 0.0
C491 C 0.55129 0.14702 0.61702 0.0
H492 H 0.49082 0.15837 0.66283 0.0
C493 C 0.58532 0.16752 0.63421 0.0
H494 H 0.49068 0.128 0.61525 0.0
C495 C 0.58548 0.18512 0.66158 0.0
C496 C 0.55149 0.18203 0.6724 0.0
H497 H 0.61181 0.1702 0.62635 0.0
H498 H 0.61213 0.2009 0.67432 0.0
C499 C 0.5175 0.16129 0.6552 0.0
C500 C 0.40705 0.54225 0.79075 0.0
C501 C 0.43532 0.57664 0.77917 0.0
H502 H 0.36914 0.51413 0.82664 0.0
C503 C 0.44765 0.61017 0.7962 0.0
H504 H 0.39756 0.51588 0.77839 0.0
C505 C 0.43118 0.60929 0.82409 0.0
C506 C 0.40268 0.57474 0.83555 0.0
H507 H 0.46961 0.63703 0.78776 0.0
H508 H 0.44066 0.63555 0.83658 0.0
C509 C 0.39108 0.54126 0.81861 0.0
C510 C 0.85084 0.47514 0.95002 0.0
C511 C 0.8524 0.44469 0.93657 0.0
H512 H 0.83352 0.49538 0.98788 0.0
C513 C 0.8351 0.40965 0.95101 0.0
H514 H 0.86432 0.5026 0.93959 0.0
C515 C 0.81715 0.40538 0.9787 0.0
C516 C 0.81684 0.4363 0.99264 0.0
H517 H 0.83583 0.3857 0.94103 0.0
H518 H 0.80457 0.37825 0.9896 0.0
C519 C 0.83346 0.47106 0.97782 0.0
C520 C 0.39673 0.86042 0.11625 0.0
C521 C 0.43219 0.86502 0.10788 0.0
H522 H 0.35161 0.83789 0.14799 0.0
C523 C 0.44874 0.84825 0.12541 0.0
H524 H 0.38346 0.87341 0.10344 0.0
C525 C 0.4304 0.82776 0.15105 0.0
C526 C 0.39535 0.82399 0.1598 0.0
H527 H 0.47593 0.85111 0.11936 0.0
H528 H 0.44411 0.81561 0.16436 0.0
C529 C 0.37857 0.84023 0.14192 0.0
C530 C 0.57526 0.42286 0.30052 0.0
C531 C 0.58809 0.45707 0.2853 0.0
H532 H 0.58488 0.39449 0.33721 0.0
C533 C 0.62186 0.48927 0.29558 0.0
H534 H 0.54945 0.3975 0.29298 0.0
C535 C 0.64205 0.48757 0.32072 0.0
C536 C 0.62904 0.4536 0.3363 0.0
H537 H 0.63223 0.5162 0.28469 0.0
H538 H 0.66767 0.51318 0.32817 0.0
C539 C 0.59563 0.4211 0.32573 0.0
C540 C 0.45167 0.87191 0.35459 0.0
C541 C 0.43422 0.89128 0.36682 0.0
H542 H 0.4489 0.83252 0.32086 0.0
C543 C 0.39872 0.88382 0.35479 0.0
H544 H 0.47913 0.87721 0.36329 0.0
C545 C 0.38159 0.85854 0.33048 0.0
C546 C 0.39944 0.83991 0.31765 0.0
H547 H 0.38412 0.89764 0.36412 0.0
H548 H 0.35445 0.85391 0.32158 0.0
C549 C 0.43442 0.84643 0.33023 0.0
C550 C 0.64351 0.51186 0.53297 0.0
C551 C 0.60639 0.48408 0.54069 0.0
H552 H 0.6903 0.52786 0.50334 0.0
C553 C 0.5887 0.44923 0.52485 0.0
H554 H 0.65775 0.53909 0.54464 0.0
C555 C 0.60752 0.4426 0.50131 0.0
C556 C 0.64414 0.47095 0.4929 0.0
H557 H 0.56021 0.42721 0.53053 0.0
H558 H 0.59286 0.41577 0.48908 0.0
C559 C 0.6621 0.50545 0.50924 0.0
C560 C 0.13494 0.63108 0.69456 0.0
C561 C 0.12417 0.59368 0.70197 0.0
H562 H 0.16489 0.67675 0.66431 0.0
C563 C 0.13974 0.5751 0.68546 0.0
H564 H 0.12466 0.64684 0.7073 0.0
C565 C 0.16389 0.59287 0.66122 0.0
C566 C 0.17241 0.62926 0.65277 0.0
H567 H 0.132 0.54625 0.69034 0.0
H568 H 0.17421 0.57737 0.64814 0.0
C569 C 0.15836 0.64844 0.67007 0.0
C570 C 0.51194 0.14021 0.87311 0.0
C571 C 0.54303 0.13482 0.8797 0.0
H572 H 0.48843 0.1654 0.84416 0.0
C573 C 0.57642 0.15447 0.8628 0.0
H574 H 0.48614 0.12642 0.88614 0.0
C575 C 0.57799 0.17758 0.83909 0.0
C576 C 0.54607 0.18117 0.83153 0.0
H577 H 0.60082 0.15084 0.86702 0.0
H578 H 0.60364 0.19129 0.82586 0.0
C579 C 0.51332 0.16282 0.84916 0.0
C580 C 0.37038 0.52111 0.04166 0.0
C581 C 0.4044 0.55134 0.05384 0.0
H582 H 0.33027 0.50013 0.00451 0.0
C583 C 0.42268 0.58559 0.03828 0.0
H584 H 0.35594 0.49428 0.05302 0.0
C585 C 0.40782 0.58908 0.01053 0.0
C586 C 0.37486 0.55813 0.99763 0.0
H587 H 0.44892 0.60934 0.04728 0.0
H588 H 0.423 0.61546 0.99863 0.0
C589 C 0.3559 0.52438 0.01376 0.0
C590 C 0.85115 0.38118 0.18449 0.0
C591 C 0.8738 0.41473 0.20138 0.0
H592 H 0.81213 0.35506 0.14663 0.0
C593 C 0.87168 0.44707 0.1946 0.0
H594 H 0.85231 0.35585 0.18937 0.0
C595 C 0.84925 0.44676 0.1704 0.0
C596 C 0.8281 0.41401 0.1523 0.0
H597 H 0.88826 0.4731 0.20763 0.0
H598 H 0.84916 0.47265 0.16556 0.0
C599 C 0.82837 0.38081 0.16004 0.0
loop_
_geom_bond_atom_site_label_1
_geom_bond_atom_site_label_2
_geom_bond_distance
_geom_bond_site_symmetry_2
_ccdc_geom_bond_type
C0 C1 1.384 . S
C0 C2 1.384 . S
C0 H28 0.931 . S
C1 C0 1.384 . S
C1 C4 1.382 . S
C2 C0 1.384 . S
C2 C3 1.381 . S
C2 H29 0.930 . S
C3 C2 1.381 . S
C3 C5 1.381 . S
C3 C6 1.487 . S
C4 C1 1.382 . S
C4 C5 1.387 . S
C4 H30 0.930 . S
C5 C3 1.381 . S
C5 C4 1.387 . S
C5 H31 0.931 . S
C6 C3 1.487 . S
C6 C13 1.399 . S
C6 N44 1.343 . S
C7 C8 1.384 . S
C7 C9 1.384 . S
C7 H32 0.931 . S
C8 C7 1.384 . S
C8 C11 1.382 . S
C9 C7 1.384 . S
C9 C10 1.381 . S
C9 H33 0.930 . S
C10 C9 1.381 . S
C10 C12 1.381 . S
C10 C13 1.487 . S
C11 C8 1.382 . S
C11 C12 1.387 . S
C11 H34 0.930 . S
C12 C10 1.381 . S
C12 C11 1.387 . S
C12 H35 0.931 . S
C13 C6 1.399 . S
C13 C10 1.487 . S
C13 N45 1.343 1_655 S
C14 C15 1.384 . S
C14 C16 1.384 . S
C14 H36 0.931 . S
C15 C14 1.384 . S
C15 C18 1.382 . S
C16 C14 1.384 . S
C16 C17 1.381 . S
C16 H37 0.930 . S
C17 C16 1.381 . S
C17 C19 1.381 . S
C17 C20 1.487 . S
C18 C15 1.382 . S
C18 C19 1.387 . S
C18 H38 0.930 . S
C19 C17 1.381 . S
C19 C18 1.387 . S
C19 H39 0.931 . S
C20 C17 1.487 . S
C20 C27 1.399 . S
C20 N45 1.343 . S
C21 C22 1.384 . S
C21 C23 1.384 . S
C21 H40 0.931 . S
C22 C21 1.384 . S
C22 C25 1.382 . S
C23 C21 1.384 . S
C23 C24 1.381 . S
C23 H41 0.930 . S
C24 C23 1.381 . S
C24 C26 1.381 . S
C24 C27 1.487 . S
C25 C22 1.382 . S
C25 C26 1.387 . S
C25 H42 0.930 . S
C26 C24 1.381 . S
C26 C25 1.387 . S
C26 H43 0.931 . S
C27 C20 1.399 . S
C27 C24 1.487 . S
C27 N44 1.343 1_455 S
H28 C0 0.931 . S
H29 C2 0.930 . S
H30 C4 0.930 . S
H31 C5 0.931 . S
H32 C7 0.931 . S
H33 C9 0.930 . S
H34 C11 0.930 . S
H35 C12 0.931 . S
H36 C14 0.931 . S
H37 C16 0.930 . S
H38 C18 0.930 . S
H39 C19 0.931 . S
H40 C21 0.931 . S
H41 C23 0.930 . S
H42 C25 0.930 . S
H43 C26 0.931 . S
N44 C6 1.343 . S
N44 C27 1.343 1_655 S
N45 C13 1.343 1_455 S
N45 C20 1.343 . S
C46 C47 1.384 . S
C46 C48 1.384 . S
C46 H74 0.931 . S
C47 C46 1.384 . S
C47 C50 1.382 . S
C48 C46 1.384 . S
C48 C49 1.381 . S
C48 H75 0.930 . S
C49 C48 1.381 . S
C49 C51 1.381 . S
C49 C52 1.487 . S
C50 C47 1.382 . S
C50 C51 1.387 . S
C50 H76 0.930 . S
C51 C49 1.381 . S
C51 C50 1.387 . S
C51 H77 0.931 . S
C52 C49 1.487 . S
C52 C59 1.399 . S
C52 N90 1.343 . S
C53 C54 1.384 . S
C53 C55 1.384 . S
C53 H78 0.931 . S
C54 C53 1.384 . S
C54 C57 1.382 . S
C55 C53 1.384 . S
C55 C56 1.381 . S
C55 H79 0.930 . S
C56 C55 1.381 . S
C56 C58 1.381 . S
C56 C59 1.487 . S
C57 C54 1.382 . S
C57 C58 1.387 . S
C57 H80 0.930 . S
C58 C56 1.381 . S
C58 C57 1.387 . S
C58 H81 0.931 . S
C59 C52 1.399 . S
C59 C56 1.487 . S
C59 N91 1.343 1_565 S
C60 C61 1.384 . S
C60 C62 1.384 . S
C60 H82 0.931 . S
C61 C60 1.384 . S
C61 C64 1.382 . S
C62 C60 1.384 . S
C62 C63 1.381 . S
C62 H83 0.930 . S
C63 C62 1.381 . S
C63 C65 1.381 . S
C63 C66 1.487 . S
C64 C61 1.382 . S
C64 C65 1.387 . S
C64 H84 0.930 . S
C65 C63 1.381 . S
C65 C64 1.387 . S
C65 H85 0.931 . S
C66 C63 1.487 . S
C66 C73 1.399 . S
C66 N91 1.343 . S
C67 C68 1.384 . S
C67 C69 1.384 . S
C67 H86 0.931 . S
C68 C67 1.384 . S
C68 C71 1.382 . S
C69 C67 1.384 . S
C69 C70 1.381 . S
C69 H87 0.930 . S
C70 C69 1.381 . S
C70 C72 1.381 . S
C70 C73 1.487 . S
C71 C68 1.382 . S
C71 C72 1.387 . S
C71 H88 0.930 . S
C72 C70 1.381 . S
C72 C71 1.387 . S
C72 H89 0.931 . S
C73 C66 1.399 . S
C73 C70 1.487 . S
C73 N90 1.343 1_545 S
H74 C46 0.931 . S
H75 C48 0.930 . S
H76 C50 0.930 . S
H77 C51 0.931 . S
H78 C53 0.931 . S
H79 C55 0.930 . S
H80 C57 0.930 . S
H81 C58 0.931 . S
H82 C60 0.931 . S
H83 C62 0.930 . S
H84 C64 0.930 . S
H85 C65 0.931 . S
H86 C67 0.931 . S
H87 C69 0.930 . S
H88 C71 0.930 . S
H89 C72 0.931 . S
N90 C52 1.343 . S
N90 C73 1.343 1_565 S
N91 C59 1.343 1_545 S
N91 C66 1.343 . S
C92 C93 1.384 . S
C92 C94 1.384 . S
C92 H120 0.931 . S
C93 C92 1.384 . S
C93 C96 1.382 . S
C94 C92 1.384 . S
C94 C95 1.381 . S
C94 H121 0.930 . S
C95 C94 1.381 . S
C95 C97 1.381 . S
C95 C98 1.487 . S
C96 C93 1.382 . S
C96 C97 1.387 . S
C96 H122 0.930 . S
C97 C95 1.381 . S
C97 C96 1.387 . S
C97 H123 0.931 . S
C98 C95 1.487 . S
C98 C105 1.399 . S
C98 N136 1.343 . S
C99 C100 1.384 . S
C99 C101 1.384 . S
C99 H124 0.931 . S
C100 C99 1.384 . S
C100 C103 1.382 . S
C101 C99 1.384 . S
C101 C102 1.381 . S
C101 H125 0.930 . S
C102 C101 1.381 . S
C102 C104 1.381 . S
C102 C105 1.487 . S
C103 C100 1.382 . S
C103 C104 1.387 . S
C103 H126 0.930 . S
C104 C102 1.381 . S
C104 C103 1.387 . S
C104 H127 0.931 . S
C105 C98 1.399 . S
C105 C102 1.487 . S
C105 N137 1.343 . S
C106 C107 1.384 . S
C106 C108 1.384 . S
C106 H128 0.931 . S
C107 C106 1.384 . S
C107 C110 1.382 . S
C108 C106 1.384 . S
C108 C109 1.381 . S
C108 H129 0.930 . S
C109 C108 1.381 . S
C109 C111 1.381 . S
C109 C112 1.487 . S
C110 C107 1.382 . S
C110 C111 1.387 . S
C110 H130 0.930 . S
C111 C109 1.381 . S
C111 C110 1.387 . S
C111 H131 0.931 . S
C112 C109 1.487 . S
C112 C119 1.399 . S
C112 N137 1.343 . S
C113 C114 1.384 . S
C113 C115 1.384 . S
C113 H132 0.931 . S
C114 C113 1.384 . S
C114 C117 1.382 . S
C115 C113 1.384 . S
C115 C116 1.381 . S
C115 H133 0.930 . S
C116 C115 1.381 . S
C116 C118 1.381 . S
C116 C119 1.487 . S
C117 C114 1.382 . S
C117 C118 1.387 . S
C117 H134 0.930 . S
C118 C116 1.381 . S
C118 C117 1.387 . S
C118 H135 0.931 . S
C119 C112 1.399 . S
C119 C116 1.487 . S
C119 N136 1.343 . S
H120 C92 0.931 . S
H121 C94 0.930 . S
H122 C96 0.930 . S
H123 C97 0.931 . S
H124 C99 0.931 . S
H125 C101 0.930 . S
H126 C103 0.930 . S
H127 C104 0.931 . S
H128 C106 0.931 . S
H129 C108 0.930 . S
H130 C110 0.930 . S
H131 C111 0.931 . S
H132 C113 0.931 . S
H133 C115 0.930 . S
H134 C117 0.930 . S
H135 C118 0.931 . S
N136 C98 1.343 . S
N136 C119 1.343 . S
N137 C105 1.343 . S
N137 C112 1.343 . S
C138 C139 1.384 . S
C138 C140 1.384 . S
C138 H166 0.931 . S
C139 C138 1.384 . S
C139 C142 1.382 . S
C140 C138 1.384 . S
C140 C141 1.381 . S
C140 H167 0.930 . S
C141 C140 1.381 . S
C141 C143 1.381 . S
C141 C144 1.487 . S
C142 C139 1.382 . S
C142 C143 1.387 . S
C142 H168 0.930 . S
C143 C141 1.381 . S
C143 C142 1.387 . S
C143 H169 0.931 . S
C144 C141 1.487 . S
C144 C151 1.399 . S
C144 N182 1.343 . S
C145 C146 1.384 . S
C145 C147 1.384 . S
C145 H170 0.931 . S
C146 C145 1.384 . S
C146 C149 1.382 . S
C147 C145 1.384 . S
C147 C148 1.381 . S
C147 H171 0.930 . S
C148 C147 1.381 . S
C148 C150 1.381 . S
C148 C151 1.487 . S
C149 C146 1.382 . S
C149 C150 1.387 . S
C149 H172 0.930 . S
C150 C148 1.381 . S
C150 C149 1.387 . S
C150 H173 0.931 . S
C151 C144 1.399 . S
C151 C148 1.487 . S
C151 N183 1.343 1_655 S
C152 C153 1.384 . S
C152 C154 1.384 . S
C152 H174 0.931 . S
C153 C152 1.384 . S
C153 C156 1.382 . S
C154 C152 1.384 . S
C154 C155 1.381 . S
C154 H175 0.930 . S
C155 C154 1.381 . S
C155 C157 1.381 . S
C155 C158 1.487 . S
C156 C153 1.382 . S
C156 C157 1.387 . S
C156 H176 0.930 . S
C157 C155 1.381 . S
C157 C156 1.387 . S
C157 H177 0.931 . S
C158 C155 1.487 . S
C158 C165 1.399 . S
C158 N183 1.343 . S
C159 C160 1.384 . S
C159 C161 1.384 . S
C159 H178 0.931 . S
C160 C159 1.384 . S
C160 C163 1.382 . S
C161 C159 1.384 . S
C161 C162 1.381 . S
C161 H179 0.930 . S
C162 C161 1.381 . S
C162 C164 1.381 . S
C162 C165 1.487 . S
C163 C160 1.382 . S
C163 C164 1.387 . S
C163 H180 0.930 . S
C164 C162 1.381 . S
C164 C163 1.387 . S
C164 H181 0.931 . S
C165 C158 1.399 . S
C165 C162 1.487 . S
C165 N182 1.343 1_455 S
H166 C138 0.931 . S
H167 C140 0.930 . S
H168 C142 0.930 . S
H169 C143 0.931 . S
H170 C145 0.931 . S
H171 C147 0.930 . S
H172 C149 0.930 . S
H173 C150 0.931 . S
H174 C152 0.931 . S
H175 C154 0.930 . S
H176 C156 0.930 . S
H177 C157 0.931 . S
H178 C159 0.931 . S
H179 C161 0.930 . S
H180 C163 0.930 . S
H181 C164 0.931 . S
N182 C144 1.343 . S
N182 C165 1.343 1_655 S
N183 C151 1.343 1_455 S
N183 C158 1.343 . S
C184 C185 1.384 . S
C184 C186 1.384 . S
C184 H212 0.931 . S
C185 C184 1.384 . S
C185 C188 1.382 . S
C186 C184 1.384 . S
C186 C187 1.381 . S
C186 H213 0.930 1_556 S
C187 C186 1.381 . S
C187 C189 1.381 . S
C187 C190 1.487 . S
C188 C185 1.382 . S
C188 C189 1.387 . S
C188 H214 0.930 . S
C189 C187 1.381 . S
C189 C188 1.387 . S
C189 H215 0.931 . S
C190 C187 1.487 . S
C190 C197 1.399 1_556 S
C190 N228 1.343 . S
C191 C192 1.384 . S
C191 C193 1.384 . S
C191 H216 0.931 . S
C192 C191 1.384 . S
C192 C195 1.382 . S
C193 C191 1.384 . S
C193 C194 1.381 . S
C193 H217 0.930 . S
C194 C193 1.381 . S
C194 C196 1.381 . S
C194 C197 1.487 . S
C195 C192 1.382 . S
C195 C196 1.387 . S
C195 H218 0.930 . S
C196 C194 1.381 . S
C196 C195 1.387 . S
C196 H219 0.931 . S
C197 C190 1.399 1_554 S
C197 C194 1.487 . S
C197 N229 1.343 1_565 S
C198 C199 1.384 . S
C198 C200 1.384 1_554 S
C198 H220 0.940 . S
C199 C198 1.384 . S
C199 C202 1.382 . S
C200 C198 1.384 1_556 S
C200 C201 1.381 1_556 S
C200 H221 0.930 . S
C201 C200 1.381 1_554 S
C201 C203 1.381 . S
C201 C204 1.487 1_554 S
C202 C199 1.382 . S
C202 C203 1.387 . S
C202 H222 0.930 . S
C203 C201 1.381 . S
C203 C202 1.387 . S
C203 H223 0.931 . S
C204 C201 1.487 1_556 S
C204 C211 1.399 . S
C204 N229 1.343 1_556 S
C205 C206 1.384 . S
C205 C207 1.384 . S
C205 H224 0.931 . S
C206 C205 1.384 . S
C206 C209 1.382 . S
C207 C205 1.384 . S
C207 C208 1.381 . S
C207 H225 0.930 . S
C208 C207 1.381 . S
C208 C210 1.381 . S
C208 C211 1.487 . S
C209 C206 1.382 . S
C209 C210 1.387 . S
C209 H226 0.930 . S
C210 C208 1.381 . S
C210 C209 1.387 . S
C210 H227 0.931 . S
C211 C204 1.399 . S
C211 C208 1.487 . S
C211 N228 1.343 1_545 S
H212 C184 0.931 . S
H213 C186 0.930 1_554 S
H214 C188 0.930 . S
H215 C189 0.931 . S
H216 C191 0.931 . S
H217 C193 0.930 . S
H218 C195 0.930 . S
H219 C196 0.931 . S
H220 C198 0.940 . S
H221 C200 0.930 . S
H222 C202 0.930 . S
H223 C203 0.931 . S
H224 C205 0.931 . S
H225 C207 0.930 . S
H226 C209 0.930 . S
H227 C210 0.931 . S
N228 C190 1.343 . S
N228 C211 1.343 1_565 S
N229 C197 1.343 1_545 S
N229 C204 1.343 1_554 S
C230 C231 1.384 . S
C230 C232 1.384 . S
C230 H258 0.931 . S
C231 C230 1.384 . S
C231 C234 1.382 . S
C232 C230 1.384 . S
C232 C233 1.381 . S
C232 H259 0.930 . S
C233 C232 1.381 . S
C233 C235 1.381 . S
C233 C236 1.487 . S
C234 C231 1.382 . S
C234 C235 1.387 . S
C234 H260 0.930 . S
C235 C233 1.381 . S
C235 C234 1.387 . S
C235 H261 0.931 . S
C236 C233 1.487 . S
C236 C243 1.399 . S
C236 N274 1.343 . S
C237 C238 1.384 . S
C237 C239 1.384 . S
C237 H262 0.931 . S
C238 C237 1.384 . S
C238 C241 1.382 . S
C239 C237 1.384 . S
C239 C240 1.381 . S
C239 H263 0.930 . S
C240 C239 1.381 . S
C240 C242 1.381 . S
C240 C243 1.487 . S
C241 C238 1.382 . S
C241 C242 1.387 . S
C241 H264 0.930 . S
C242 C240 1.381 . S
C242 C241 1.387 . S
C242 H265 0.931 . S
C243 C236 1.399 . S
C243 C240 1.487 . S
C243 N275 1.343 . S
C244 C245 1.384 . S
C244 C246 1.384 . S
C244 H266 0.931 . S
C245 C244 1.384 . S
C245 C248 1.382 . S
C246 C244 1.384 . S
C246 C247 1.381 . S
C246 H267 0.930 . S
C247 C246 1.381 . S
C247 C249 1.381 . S
C247 C250 1.487 . S
C248 C245 1.382 . S
C248 C249 1.387 . S
C248 H268 0.930 . S
C249 C247 1.381 . S
C249 C248 1.387 . S
C249 H269 0.931 . S
C250 C247 1.487 . S
C250 C257 1.399 . S
C250 N275 1.343 . S
C251 C252 1.384 . S
C251 C253 1.384 . S
C251 H270 0.931 . S
C252 C251 1.384 . S
C252 C255 1.382 . S
C253 C251 1.384 . S
C253 C254 1.381 . S
C253 H271 0.930 . S
C254 C253 1.381 . S
C254 C256 1.381 . S
C254 C257 1.487 . S
C255 C252 1.382 . S
C255 C256 1.387 . S
C255 H272 0.930 . S
C256 C254 1.381 . S
C256 C255 1.387 . S
C256 H273 0.931 . S
C257 C250 1.399 . S
C257 C254 1.487 . S
C257 N274 1.343 . S
H258 C230 0.931 . S
H259 C232 0.930 . S
H260 C234 0.930 . S
H261 C235 0.931 . S
H262 C237 0.931 . S
H263 C239 0.930 . S
H264 C241 0.930 . S
H265 C242 0.931 . S
H266 C244 0.931 . S
H267 C246 0.930 . S
H268 C248 0.930 . S
H269 C249 0.931 . S
H270 C251 0.931 . S
H271 C253 0.930 . S
H272 C255 0.930 . S
H273 C256 0.931 . S
N274 C236 1.343 . S
N274 C257 1.343 . S
N275 C243 1.343 . S
N275 C250 1.343 . S
Zn276 O279 2.031 . S
Zn276 O281 2.049 . S
Zn276 O286 2.067 . S
Zn277 O278 1.962 . S
Zn277 O280 1.986 . S
Zn277 O282 1.996 . S
Zn277 O285 1.943 . S
O278 Zn277 1.962 . S
O278 C283 1.254 . S
O279 Zn276 2.031 . S
O279 C283 1.269 . S
O280 Zn277 1.986 . S
O280 C287 1.262 . S
O281 Zn276 2.049 . S
O281 C289 1.260 . S
O282 Zn277 1.996 . S
O282 C289 1.257 . S
C283 O278 1.254 . S
C283 O279 1.269 . S
C284 O285 1.249 . S
C284 O286 1.270 . S
O285 Zn277 1.943 . S
O285 C284 1.249 . S
O286 Zn276 2.067 . S
O286 C284 1.270 . S
C287 O280 1.262 . S
C287 O288 1.232 . S
O288 C287 1.232 . S
C289 O281 1.260 . S
C289 O282 1.257 . S
Zn290 O293 2.031 . S
Zn290 O295 2.049 . S
Zn290 O300 2.067 . S
Zn291 O292 1.962 . S
Zn291 O294 1.986 . S
Zn291 O296 1.996 . S
Zn291 O299 1.943 . S
O292 Zn291 1.962 . S
O292 C297 1.254 . S
O293 Zn290 2.031 . S
O293 C297 1.269 . S
O294 Zn291 1.986 . S
O294 C301 1.262 . S
O295 Zn290 2.049 . S
O295 C303 1.260 . S
O296 Zn291 1.996 . S
O296 C303 1.257 . S
C297 O292 1.254 . S
C297 O293 1.269 . S
C298 O299 1.249 . S
C298 O300 1.270 . S
O299 Zn291 1.943 . S
O299 C298 1.249 . S
O300 Zn290 2.067 . S
O300 C298 1.270 . S
C301 O294 1.262 . S
C301 O302 1.232 . S
O302 C301 1.232 . S
C303 O295 1.260 . S
C303 O296 1.257 . S
Zn304 O307 2.031 . S
Zn304 O309 2.049 . S
Zn304 O314 2.067 . S
Zn305 O306 1.962 . S
Zn305 O308 1.986 . S
Zn305 O310 1.996 . S
Zn305 O313 1.943 . S
O306 Zn305 1.962 . S
O306 C311 1.254 . S
O307 Zn304 2.031 . S
O307 C311 1.269 . S
O308 Zn305 1.986 . S
O308 C315 1.262 . S
O309 Zn304 2.049 . S
O309 C317 1.260 . S
O310 Zn305 1.996 . S
O310 C317 1.257 . S
C311 O306 1.254 . S
C311 O307 1.269 . S
C312 O313 1.249 . S
C312 O314 1.270 . S
O313 Zn305 1.943 . S
O313 C312 1.249 . S
O314 Zn304 2.067 . S
O314 C312 1.270 . S
C315 O308 1.262 . S
C315 O316 1.232 . S
O316 C315 1.232 . S
C317 O309 1.260 . S
C317 O310 1.257 . S
Zn318 O321 2.031 . S
Zn318 O323 2.049 . S
Zn318 O328 2.067 . S
Zn319 O320 1.962 . S
Zn319 O322 1.986 . S
Zn319 O324 1.996 . S
Zn319 O327 1.943 . S
O320 Zn319 1.962 . S
O320 C325 1.254 . S
O321 Zn318 2.031 . S
O321 C325 1.269 . S
O322 Zn319 1.986 . S
O322 C329 1.262 . S
O323 Zn318 2.049 . S
O323 C331 1.260 . S
O324 Zn319 1.996 . S
O324 C331 1.257 . S
C325 O320 1.254 . S
C325 O321 1.269 . S
C326 O327 1.249 . S
C326 O328 1.270 . S
O327 Zn319 1.943 . S
O327 C326 1.249 . S
O328 Zn318 2.067 . S
O328 C326 1.270 . S
C329 O322 1.262 . S
C329 O330 1.232 . S
O330 C329 1.232 . S
C331 O323 1.260 . S
C331 O324 1.257 . S
Zn332 O335 2.031 . S
Zn332 O337 2.049 . S
Zn332 O342 2.067 . S
Zn333 O334 1.962 . S
Zn333 O336 1.986 . S
Zn333 O338 1.996 . S
Zn333 O341 1.943 . S
O334 Zn333 1.962 . S
O334 C339 1.254 . S
O335 Zn332 2.031 . S
O335 C339 1.269 . S
O336 Zn333 1.986 . S
O336 C343 1.262 . S
O337 Zn332 2.049 . S
O337 C345 1.260 . S
O338 Zn333 1.996 . S
O338 C345 1.257 . S
C339 O334 1.254 . S
C339 O335 1.269 . S
C340 O341 1.249 . S
C340 O342 1.270 . S
O341 Zn333 1.943 . S
O341 C340 1.249 . S
O342 Zn332 2.067 . S
O342 C340 1.270 . S
C343 O336 1.262 . S
C343 O344 1.232 . S
O344 C343 1.232 . S
C345 O337 1.260 . S
C345 O338 1.257 . S
Zn346 O349 2.031 . S
Zn346 O351 2.049 . S
Zn346 O356 2.067 . S
Zn347 O348 1.962 . S
Zn347 O350 1.986 . S
Zn347 O352 1.996 . S
Zn347 O355 1.943 . S
O348 Zn347 1.962 . S
O348 C353 1.254 . S
O349 Zn346 2.031 . S
O349 C353 1.269 . S
O350 Zn347 1.986 . S
O350 C357 1.262 . S
O351 Zn346 2.049 . S
O351 C359 1.260 . S
O352 Zn347 1.996 . S
O352 C359 1.257 . S
C353 O348 1.254 . S
C353 O349 1.269 . S
C354 O355 1.249 . S
C354 O356 1.270 . S
O355 Zn347 1.943 . S
O355 C354 1.249 . S
O356 Zn346 2.067 . S
O356 C354 1.270 . S
C357 O350 1.262 . S
C357 O358 1.232 . S
O358 C357 1.232 . S
C359 O351 1.260 . S
C359 O352 1.257 . S
C360 C361 1.387 . S
C360 H364 0.950 . S
C360 C369 1.390 . S
C361 C360 1.387 . S
C361 C363 1.387 . S
H362 C369 0.950 . S
C363 C361 1.387 . S
C363 C365 1.390 . S
C363 H367 0.950 . S
H364 C360 0.950 . S
C365 C363 1.390 . S
C365 C366 1.387 . S
C365 H368 0.950 . S
C366 C365 1.387 . S
C366 C369 1.387 . S
H367 C363 0.950 . S
H368 C365 0.950 . S
C369 C360 1.390 . S
C369 H362 0.950 . S
C369 C366 1.387 . S
C370 C371 1.387 . S
C370 H374 0.950 . S
C370 C379 1.390 . S
C371 C370 1.387 . S
C371 C373 1.387 . S
H372 C379 0.950 . S
C373 C371 1.387 . S
C373 C375 1.390 . S
C373 H377 0.950 . S
H374 C370 0.950 . S
C375 C373 1.390 . S
C375 C376 1.387 . S
C375 H378 0.950 . S
C376 C375 1.387 . S
C376 C379 1.387 . S
H377 C373 0.950 . S
H378 C375 0.950 . S
C379 C370 1.390 . S
C379 H372 0.950 . S
C379 C376 1.387 . S
C380 C381 1.387 . S
C380 H384 0.950 . S
C380 C389 1.390 . S
C381 C380 1.387 . S
C381 C383 1.387 . S
H382 C389 0.950 . S
C383 C381 1.387 . S
C383 C385 1.390 . S
C383 H387 0.950 . S
H384 C380 0.950 . S
C385 C383 1.390 . S
C385 C386 1.387 . S
C385 H388 0.950 . S
C386 C385 1.387 . S
C386 C389 1.387 . S
H387 C383 0.950 . S
H388 C385 0.950 . S
C389 C380 1.390 . S
C389 H382 0.950 . S
C389 C386 1.387 . S
C390 C391 1.387 . S
C390 H394 0.950 . S
C390 C399 1.390 . S
C391 C390 1.387 . S
C391 C393 1.387 . S
H392 C399 0.950 . S
C393 C391 1.387 . S
C393 C395 1.390 . S
C393 H397 0.950 . S
H394 C390 0.950 . S
C395 C393 1.390 . S
C395 C396 1.387 . S
C395 H398 0.950 . S
C396 C395 1.387 . S
C396 C399 1.387 . S
H397 C393 0.950 . S
H398 C395 0.950 . S
C399 C390 1.390 . S
C399 H392 0.950 . S
C399 C396 1.387 . S
C400 C401 1.387 . S
C400 H404 0.950 . S
C400 C409 1.390 . S
C401 C400 1.387 . S
C401 C403 1.387 . S
H402 C409 0.950 . S
C403 C401 1.387 . S
C403 C405 1.390 . S
C403 H407 0.950 . S
H404 C400 0.950 . S
C405 C403 1.390 . S
C405 C406 1.387 . S
C405 H408 0.950 . S
C406 C405 1.387 . S
C406 C409 1.387 . S
H407 C403 0.950 . S
H408 C405 0.950 . S
C409 C400 1.390 . S
C409 H402 0.950 . S
C409 C406 1.387 . S
C410 C411 1.387 . S
C410 H414 0.950 . S
C410 C419 1.390 . S
C411 C410 1.387 . S
C411 C413 1.387 . S
H412 C419 0.950 . S
C413 C411 1.387 . S
C413 C415 1.390 . S
C413 H417 0.950 . S
H414 C410 0.950 . S
C415 C413 1.390 . S
C415 C416 1.387 . S
C415 H418 0.950 . S
C416 C415 1.387 . S
C416 C419 1.387 . S
H417 C413 0.950 . S
H418 C415 0.950 . S
C419 C410 1.390 . S
C419 H412 0.950 . S
C419 C416 1.387 . S
C420 C421 1.387 . S
C420 H424 0.950 . S
C420 C429 1.390 . S
C421 C420 1.387 . S
C421 C423 1.387 . S
H422 C429 0.950 . S
C423 C421 1.387 . S
C423 C425 1.390 . S
C423 H427 0.950 . S
H424 C420 0.950 . S
C425 C423 1.390 . S
C425 C426 1.387 . S
C425 H428 0.950 . S
C426 C425 1.387 . S
C426 C429 1.387 . S
H427 C423 0.950 . S
H428 C425 0.950 . S
C429 C420 1.390 . S
C429 H422 0.950 . S
C429 C426 1.387 . S
C430 C431 1.387 . S
C430 H434 0.950 . S
C430 C439 1.390 . S
C431 C430 1.387 . S
C431 C433 1.387 . S
H432 C439 0.950 . S
C433 C431 1.387 . S
C433 C435 1.390 . S
C433 H437 0.950 . S
H434 C430 0.950 . S
C435 C433 1.390 . S
C435 C436 1.387 . S
C435 H438 0.950 . S
C436 C435 1.387 . S
C436 C439 1.387 . S
H437 C433 0.950 . S
H438 C435 0.950 . S
C439 C430 1.390 . S
C439 H432 0.950 . S
C439 C436 1.387 . S
C440 C441 1.387 . S
C440 H444 0.950 . S
C440 C449 1.390 . S
C441 C440 1.387 . S
C441 C443 1.387 . S
H442 C449 0.950 . S
C443 C441 1.387 . S
C443 C445 1.390 . S
C443 H447 0.950 . S
H444 C440 0.950 . S
C445 C443 1.390 . S
C445 C446 1.387 . S
C445 H448 0.950 . S
C446 C445 1.387 . S
C446 C449 1.387 . S
H447 C443 0.950 . S
H448 C445 0.950 . S
C449 C440 1.390 . S
C449 H442 0.950 . S
C449 C446 1.387 . S
C450 C451 1.387 . S
C450 H454 0.950 1_554 S
C450 C459 1.390 . S
C451 C450 1.387 . S
C451 C453 1.387 . S
H452 C459 0.950 . S
C453 C451 1.387 . S
C453 C455 1.390 . S
C453 H457 0.950 . S
H454 C450 0.950 1_556 S
C455 C453 1.390 . S
C455 C456 1.387 . S
C455 H458 0.950 . S
C456 C455 1.387 . S
C456 C459 1.387 . S
H457 C453 0.950 . S
H458 C455 0.950 . S
C459 C450 1.390 . S
C459 H452 0.950 . S
C459 C456 1.387 . S
C460 C461 1.387 . S
C460 H464 0.950 . S
C460 C469 1.390 . S
C461 C460 1.387 . S
C461 C463 1.387 . S
H462 C469 0.950 . S
C463 C461 1.387 . S
C463 C465 1.390 . S
C463 H467 0.950 . S
H464 C460 0.950 . S
C465 C463 1.390 . S
C465 C466 1.387 . S
C465 H468 0.950 . S
C466 C465 1.387 . S
C466 C469 1.387 . S
H467 C463 0.950 . S
H468 C465 0.950 . S
C469 C460 1.390 . S
C469 H462 0.950 . S
C469 C466 1.387 . S
C470 C471 1.387 . S
C470 H474 0.950 . S
C470 C479 1.390 . S
C471 C470 1.387 . S
C471 C473 1.387 . S
H472 C479 0.950 . S
C473 C471 1.387 . S
C473 C475 1.390 . S
C473 H477 0.950 . S
H474 C470 0.950 . S
C475 C473 1.390 . S
C475 C476 1.387 . S
C475 H478 0.950 . S
C476 C475 1.387 . S
C476 C479 1.387 . S
H477 C473 0.950 . S
H478 C475 0.950 . S
C479 C470 1.390 . S
C479 H472 0.950 . S
C479 C476 1.387 . S
C480 C481 1.387 . S
C480 H484 0.950 . S
C480 C489 1.390 . S
C481 C480 1.387 . S
C481 C483 1.387 . S
H482 C489 0.950 . S
C483 C481 1.387 . S
C483 C485 1.390 . S
C483 H487 0.950 . S
H484 C480 0.950 . S
C485 C483 1.390 . S
C485 C486 1.387 . S
C485 H488 0.950 . S
C486 C485 1.387 . S
C486 C489 1.387 . S
H487 C483 0.950 . S
H488 C485 0.950 . S
C489 C480 1.390 . S
C489 H482 0.950 . S
C489 C486 1.387 . S
C490 C491 1.387 . S
C490 H494 0.950 . S
C490 C499 1.390 . S
C491 C490 1.387 . S
C491 C493 1.387 . S
H492 C499 0.950 . S
C493 C491 1.387 . S
C493 C495 1.390 . S
C493 H497 0.950 . S
H494 C490 0.950 . S
C495 C493 1.390 . S
C495 C496 1.387 . S
C495 H498 0.950 . S
C496 C495 1.387 . S
C496 C499 1.387 . S
H497 C493 0.950 . S
H498 C495 0.950 . S
C499 C490 1.390 . S
C499 H492 0.950 . S
C499 C496 1.387 . S
C500 C501 1.387 . S
C500 H504 0.950 . S
C500 C509 1.390 . S
C501 C500 1.387 . S
C501 C503 1.387 . S
H502 C509 0.950 . S
C503 C501 1.387 . S
C503 C505 1.390 . S
C503 H507 0.950 . S
H504 C500 0.950 . S
C505 C503 1.390 . S
C505 C506 1.387 . S
C505 H508 0.950 . S
C506 C505 1.387 . S
C506 C509 1.387 . S
H507 C503 0.950 . S
H508 C505 0.950 . S
C509 C500 1.390 . S
C509 H502 0.950 . S
C509 C506 1.387 . S
C510 C511 1.387 . S
C510 H514 0.950 . S
C510 C519 1.390 . S
C511 C510 1.387 . S
C511 C513 1.387 . S
H512 C519 0.950 1_554 S
C513 C511 1.387 . S
C513 C515 1.390 . S
C513 H517 0.950 . S
H514 C510 0.950 . S
C515 C513 1.390 . S
C515 C516 1.387 1_556 S
C515 H518 0.950 . S
C516 C515 1.387 1_554 S
C516 C519 1.387 1_554 S
H517 C513 0.950 . S
H518 C515 0.950 . S
C519 C510 1.390 . S
C519 H512 0.950 1_556 S
C519 C516 1.387 1_556 S
C520 C521 1.387 . S
C520 H524 0.950 . S
C520 C529 1.390 . S
C521 C520 1.387 . S
C521 C523 1.387 . S
H522 C529 0.950 . S
C523 C521 1.387 . S
C523 C525 1.390 . S
C523 H527 0.950 . S
H524 C520 0.950 . S
C525 C523 1.390 . S
C525 C526 1.387 . S
C525 H528 0.950 . S
C526 C525 1.387 . S
C526 C529 1.387 . S
H527 C523 0.950 . S
H528 C525 0.950 . S
C529 C520 1.390 . S
C529 H522 0.950 . S
C529 C526 1.387 . S
C530 C531 1.387 . S
C530 H534 0.950 . S
C530 C539 1.390 . S
C531 C530 1.387 . S
C531 C533 1.387 . S
H532 C539 0.950 . S
C533 C531 1.387 . S
C533 C535 1.390 . S
C533 H537 0.950 . S
H534 C530 0.950 . S
C535 C533 1.390 . S
C535 C536 1.387 . S
C535 H538 0.950 . S
C536 C535 1.387 . S
C536 C539 1.387 . S
H537 C533 0.950 . S
H538 C535 0.950 . S
C539 C530 1.390 . S
C539 H532 0.950 . S
C539 C536 1.387 . S
C540 C541 1.387 . S
C540 H544 0.950 . S
C540 C549 1.390 . S
C541 C540 1.387 . S
C541 C543 1.387 . S
H542 C549 0.950 . S
C543 C541 1.387 . S
C543 C545 1.390 . S
C543 H547 0.950 . S
H544 C540 0.950 . S
C545 C543 1.390 . S
C545 C546 1.387 . S
C545 H548 0.950 . S
C546 C545 1.387 . S
C546 C549 1.387 . S
H547 C543 0.950 . S
H548 C545 0.950 . S
C549 C540 1.390 . S
C549 H542 0.950 . S
C549 C546 1.387 . S
C550 C551 1.387 . S
C550 H554 0.950 . S
C550 C559 1.390 . S
C551 C550 1.387 . S
C551 C553 1.387 . S
H552 C559 0.950 . S
C553 C551 1.387 . S
C553 C555 1.390 . S
C553 H557 0.950 . S
H554 C550 0.950 . S
C555 C553 1.390 . S
C555 C556 1.387 . S
C555 H558 0.950 . S
C556 C555 1.387 . S
C556 C559 1.387 . S
H557 C553 0.950 . S
H558 C555 0.950 . S
C559 C550 1.390 . S
C559 H552 0.950 . S
C559 C556 1.387 . S
C560 C561 1.387 . S
C560 H564 0.950 . S
C560 C569 1.390 . S
C561 C560 1.387 . S
C561 C563 1.387 . S
H562 C569 0.950 . S
C563 C561 1.387 . S
C563 C565 1.390 . S
C563 H567 0.950 . S
H564 C560 0.950 . S
C565 C563 1.390 . S
C565 C566 1.387 . S
C565 H568 0.950 . S
C566 C565 1.387 . S
C566 C569 1.387 . S
H567 C563 0.950 . S
H568 C565 0.950 . S
C569 C560 1.390 . S
C569 H562 0.950 . S
C569 C566 1.387 . S
C570 C571 1.387 . S
C570 H574 0.950 . S
C570 C579 1.390 . S
C571 C570 1.387 . S
C571 C573 1.387 . S
H572 C579 0.950 . S
C573 C571 1.387 . S
C573 C575 1.390 . S
C573 H577 0.950 . S
H574 C570 0.950 . S
C575 C573 1.390 . S
C575 C576 1.387 . S
C575 H578 0.950 . S
C576 C575 1.387 . S
C576 C579 1.387 . S
H577 C573 0.950 . S
H578 C575 0.950 . S
C579 C570 1.390 . S
C579 H572 0.950 . S
C579 C576 1.387 . S
C580 C581 1.387 . S
C580 H584 0.950 . S
C580 C589 1.390 1_554 S
C581 C580 1.387 . S
C581 C583 1.387 . S
H582 C589 0.950 . S
C583 C581 1.387 . S
C583 C585 1.390 . S
C583 H587 0.950 . S
H584 C580 0.950 . S
C585 C583 1.390 . S
C585 C586 1.387 1_554 S
C585 H588 0.950 . S
C586 C585 1.387 1_556 S
C586 C589 1.387 . S
H587 C583 0.950 . S
H588 C585 0.950 . S
C589 C580 1.390 1_556 S
C589 H582 0.950 . S
C589 C586 1.387 . S
C590 C591 1.387 . S
C590 H594 0.950 . S
C590 C599 1.390 . S
C591 C590 1.387 . S
C591 C593 1.387 . S
H592 C599 0.950 . S
C593 C591 1.387 . S
C593 C595 1.390 . S
C593 H597 0.950 . S
H594 C590 0.950 . S
C595 C593 1.390 . S
C595 C596 1.387 . S
C595 H598 0.950 . S
C596 C595 1.387 . S
C596 C599 1.387 . S
H597 C593 0.950 . S
H598 C595 0.950 . S
C599 C590 1.390 . S
C599 H592 0.950 . S
C599 C596 1.387 . S
C366 C353 1.602 . S
C361 C15 1.566 . S
C371 C61 1.505 . S
C376 C287 1.499 . S
C381 C114 1.462 . S
C386 C301 1.457 . S
C391 C139 1.549 . S
C396 C315 1.522 . S
C406 C329 1.579 . S
C401 C185 1.609 . S
C411 C245 1.554 . S
C416 C339 1.604 . S
C421 C47 1.602 . S
C426 C297 1.630 . S
C431 C100 1.677 . S
C436 C311 1.709 . S
C441 C153 1.610 . S
C446 C325 1.666 . S
C456 C343 1.565 . S
C451 C199 1.570 . S
C466 C357 1.551 . S
C461 C231 1.574 . S
C476 C283 1.583 . S
C471 C1 1.562 . S
C481 C22 1.494 . S
C486 C298 1.435 . S
C491 C68 1.560 . S
C496 C312 1.503 . S
C506 C326 1.502 . S
C501 C107 1.561 . S
C511 C146 1.482 . S
C516 C345 1.435 . S
C526 C359 1.400 . S
C521 C192 1.459 . S
C536 C284 1.413 . S
C531 C252 1.472 . S
C546 C354 1.418 . S
C541 C54 1.483 . S
C551 C93 1.401 . S
C556 C289 1.362 . S
C566 C303 1.373 . S
C561 C160 1.399 . S
C571 C206 1.463 . S
C576 C317 1.414 . S
C581 C238 1.489 . S
C586 C331 1.444 . S
C591 C8 1.513 . S
C596 C340 1.446 . S
