# Generated by pormake.
# Topology ptr, (4,4)-cn, num edge types: 1
# Building blocks:
#     Node 0, Type 0, BuildingBlock: CEKHIL_clean_sbu_0, # of connection points: 4
#     Node 1, Type 0, BuildingBlock: CEKHIL_clean_sbu_0, # of connection points: 4
#     Node 2, Type 0, BuildingBlock: CEKHIL_clean_sbu_0, # of connection points: 4
#     Node 3, Type 0, BuildingBlock: CEKHIL_clean_sbu_0, # of connection points: 4
#     Node 4, Type 0, BuildingBlock: CEKHIL_clean_sbu_0, # of connection points: 4
#     Node 5, Type 0, BuildingBlock: CEKHIL_clean_sbu_0, # of connection points: 4
#     Node 6, Type 0, BuildingBlock: CEKHIL_clean_sbu_0, # of connection points: 4
#     Node 7, Type 0, BuildingBlock: CEKHIL_clean_sbu_0, # of connection points: 4
#     Node 8, Type 0, BuildingBlock: CEKHIL_clean_sbu_0, # of connection points: 4
#     Node 9, Type 0, BuildingBlock: CEKHIL_clean_sbu_0, # of connection points: 4
#     Node 10, Type 0, BuildingBlock: CEKHIL_clean_sbu_0, # of connection points: 4
#     Node 11, Type 0, BuildingBlock: CEKHIL_clean_sbu_0, # of connection points: 4
#     Node 12, Type 0, BuildingBlock: CEKHIL_clean_sbu_0, # of connection points: 4
#     Node 13, Type 0, BuildingBlock: CEKHIL_clean_sbu_0, # of connection points: 4
#     Node 14, Type 0, BuildingBlock: CEKHIL_clean_sbu_0, # of connection points: 4
#     Node 15, Type 0, BuildingBlock: CEKHIL_clean_sbu_0, # of connection points: 4
#     Node 16, Type 0, BuildingBlock: CEKHIL_clean_sbu_0, # of connection points: 4
#     Node 17, Type 0, BuildingBlock: CEKHIL_clean_sbu_0, # of connection points: 4
#     Node 18, Type 1, BuildingBlock: KUFVIS_clean_linker_0, # of connection points: 4
#     Node 19, Type 1, BuildingBlock: KUFVIS_clean_linker_0, # of connection points: 4
#     Node 20, Type 1, BuildingBlock: KUFVIS_clean_linker_0, # of connection points: 4
#     Node 21, Type 1, BuildingBlock: KUFVIS_clean_linker_0, # of connection points: 4
#     Node 22, Type 1, BuildingBlock: KUFVIS_clean_linker_0, # of connection points: 4
#     Node 23, Type 1, BuildingBlock: KUFVIS_clean_linker_0, # of connection points: 4
#     Node 24, Type 1, BuildingBlock: KUFVIS_clean_linker_0, # of connection points: 4
#     Node 25, Type 1, BuildingBlock: KUFVIS_clean_linker_0, # of connection points: 4
#     Node 26, Type 1, BuildingBlock: KUFVIS_clean_linker_0, # of connection points: 4
#     Node 27, Type 1, BuildingBlock: KUFVIS_clean_linker_0, # of connection points: 4
#     Node 28, Type 1, BuildingBlock: KUFVIS_clean_linker_0, # of connection points: 4
#     Node 29, Type 1, BuildingBlock: KUFVIS_clean_linker_0, # of connection points: 4
#     Node 30, Type 1, BuildingBlock: KUFVIS_clean_linker_0, # of connection points: 4
#     Node 31, Type 1, BuildingBlock: KUFVIS_clean_linker_0, # of connection points: 4
#     Node 32, Type 1, BuildingBlock: KUFVIS_clean_linker_0, # of connection points: 4
#     Node 33, Type 1, BuildingBlock: KUFVIS_clean_linker_0, # of connection points: 4
#     Node 34, Type 1, BuildingBlock: KUFVIS_clean_linker_0, # of connection points: 4
#     Node 35, Type 1, BuildingBlock: KUFVIS_clean_linker_0, # of connection points: 4
#     Edge 36, Type (0, 1), BuildingBlock: CIFDUS_clean_linker_0, # of connection points: 2
#     Edge 37, Type (0, 1), BuildingBlock: CIFDUS_clean_linker_0, # of connection points: 2
#     Edge 38, Type (0, 1), BuildingBlock: CIFDUS_clean_linker_0, # of connection points: 2
#     Edge 39, Type (0, 1), BuildingBlock: CIFDUS_clean_linker_0, # of connection points: 2
#     Edge 40, Type (0, 1), BuildingBlock: CIFDUS_clean_linker_0, # of connection points: 2
#     Edge 41, Type (0, 1), BuildingBlock: CIFDUS_clean_linker_0, # of connection points: 2
#     Edge 42, Type (0, 1), BuildingBlock: CIFDUS_clean_linker_0, # of connection points: 2
#     Edge 43, Type (0, 1), BuildingBlock: CIFDUS_clean_linker_0, # of connection points: 2
#     Edge 44, Type (0, 1), BuildingBlock: CIFDUS_clean_linker_0, # of connection points: 2
#     Edge 45, Type (0, 1), BuildingBlock: CIFDUS_clean_linker_0, # of connection points: 2
#     Edge 46, Type (0, 1), BuildingBlock: CIFDUS_clean_linker_0, # of connection points: 2
#     Edge 47, Type (0, 1), BuildingBlock: CIFDUS_clean_linker_0, # of connection points: 2
#     Edge 48, Type (0, 1), BuildingBlock: CIFDUS_clean_linker_0, # of connection points: 2
#     Edge 49, Type (0, 1), BuildingBlock: CIFDUS_clean_linker_0, # of connection points: 2
#     Edge 50, Type (0, 1), BuildingBlock: CIFDUS_clean_linker_0, # of connection points: 2
#     Edge 51, Type (0, 1), BuildingBlock: CIFDUS_clean_linker_0, # of connection points: 2
#     Edge 52, Type (0, 1), BuildingBlock: CIFDUS_clean_linker_0, # of connection points: 2
#     Edge 53, Type (0, 1), BuildingBlock: CIFDUS_clean_linker_0, # of connection points: 2
#     Edge 54, Type (0, 1), BuildingBlock: CIFDUS_clean_linker_0, # of connection points: 2
#     Edge 55, Type (0, 1), BuildingBlock: CIFDUS_clean_linker_0, # of connection points: 2
#     Edge 56, Type (0, 1), BuildingBlock: CIFDUS_clean_linker_0, # of connection points: 2
#     Edge 57, Type (0, 1), BuildingBlock: CIFDUS_clean_linker_0, # of connection points: 2
#     Edge 58, Type (0, 1), BuildingBlock: CIFDUS_clean_linker_0, # of connection points: 2
#     Edge 59, Type (0, 1), BuildingBlock: CIFDUS_clean_linker_0, # of connection points: 2
#     Edge 60, Type (0, 1), BuildingBlock: CIFDUS_clean_linker_0, # of connection points: 2
#     Edge 61, Type (0, 1), BuildingBlock: CIFDUS_clean_linker_0, # of connection points: 2
#     Edge 62, Type (0, 1), BuildingBlock: CIFDUS_clean_linker_0, # of connection points: 2
#     Edge 63, Type (0, 1), BuildingBlock: CIFDUS_clean_linker_0, # of connection points: 2
#     Edge 64, Type (0, 1), BuildingBlock: CIFDUS_clean_linker_0, # of connection points: 2
#     Edge 65, Type (0, 1), BuildingBlock: CIFDUS_clean_linker_0, # of connection points: 2
#     Edge 66, Type (0, 1), BuildingBlock: CIFDUS_clean_linker_0, # of connection points: 2
#     Edge 67, Type (0, 1), BuildingBlock: CIFDUS_clean_linker_0, # of connection points: 2
#     Edge 68, Type (0, 1), BuildingBlock: CIFDUS_clean_linker_0, # of connection points: 2
#     Edge 69, Type (0, 1), BuildingBlock: CIFDUS_clean_linker_0, # of connection points: 2
#     Edge 70, Type (0, 1), BuildingBlock: CIFDUS_clean_linker_0, # of connection points: 2
#     Edge 71, Type (0, 1), BuildingBlock: CIFDUS_clean_linker_0, # of connection points: 2
#     Edge 72, Type (0, 1), BuildingBlock: CIFDUS_clean_linker_0, # of connection points: 2
#     Edge 73, Type (0, 1), BuildingBlock: CIFDUS_clean_linker_0, # of connection points: 2
#     Edge 74, Type (0, 1), BuildingBlock: CIFDUS_clean_linker_0, # of connection points: 2
#     Edge 75, Type (0, 1), BuildingBlock: CIFDUS_clean_linker_0, # of connection points: 2
#     Edge 76, Type (0, 1), BuildingBlock: CIFDUS_clean_linker_0, # of connection points: 2
#     Edge 77, Type (0, 1), BuildingBlock: CIFDUS_clean_linker_0, # of connection points: 2
#     Edge 78, Type (0, 1), BuildingBlock: CIFDUS_clean_linker_0, # of connection points: 2
#     Edge 79, Type (0, 1), BuildingBlock: CIFDUS_clean_linker_0, # of connection points: 2
#     Edge 80, Type (0, 1), BuildingBlock: CIFDUS_clean_linker_0, # of connection points: 2
#     Edge 81, Type (0, 1), BuildingBlock: CIFDUS_clean_linker_0, # of connection points: 2
#     Edge 82, Type (0, 1), BuildingBlock: CIFDUS_clean_linker_0, # of connection points: 2
#     Edge 83, Type (0, 1), BuildingBlock: CIFDUS_clean_linker_0, # of connection points: 2
#     Edge 84, Type (0, 1), BuildingBlock: CIFDUS_clean_linker_0, # of connection points: 2
#     Edge 85, Type (0, 1), BuildingBlock: CIFDUS_clean_linker_0, # of connection points: 2
#     Edge 86, Type (0, 1), BuildingBlock: CIFDUS_clean_linker_0, # of connection points: 2
#     Edge 87, Type (0, 1), BuildingBlock: CIFDUS_clean_linker_0, # of connection points: 2
#     Edge 88, Type (0, 1), BuildingBlock: CIFDUS_clean_linker_0, # of connection points: 2
#     Edge 89, Type (0, 1), BuildingBlock: CIFDUS_clean_linker_0, # of connection points: 2
#     Edge 90, Type (0, 1), BuildingBlock: CIFDUS_clean_linker_0, # of connection points: 2
#     Edge 91, Type (0, 1), BuildingBlock: CIFDUS_clean_linker_0, # of connection points: 2
#     Edge 92, Type (0, 1), BuildingBlock: CIFDUS_clean_linker_0, # of connection points: 2
#     Edge 93, Type (0, 1), BuildingBlock: CIFDUS_clean_linker_0, # of connection points: 2
#     Edge 94, Type (0, 1), BuildingBlock: CIFDUS_clean_linker_0, # of connection points: 2
#     Edge 95, Type (0, 1), BuildingBlock: CIFDUS_clean_linker_0, # of connection points: 2
#     Edge 96, Type (0, 1), BuildingBlock: CIFDUS_clean_linker_0, # of connection points: 2
#     Edge 97, Type (0, 1), BuildingBlock: CIFDUS_clean_linker_0, # of connection points: 2
#     Edge 98, Type (0, 1), BuildingBlock: CIFDUS_clean_linker_0, # of connection points: 2
#     Edge 99, Type (0, 1), BuildingBlock: CIFDUS_clean_linker_0, # of connection points: 2
#     Edge 100, Type (0, 1), BuildingBlock: CIFDUS_clean_linker_0, # of connection points: 2
#     Edge 101, Type (0, 1), BuildingBlock: CIFDUS_clean_linker_0, # of connection points: 2
#     Edge 102, Type (0, 1), BuildingBlock: CIFDUS_clean_linker_0, # of connection points: 2
#     Edge 103, Type (0, 1), BuildingBlock: CIFDUS_clean_linker_0, # of connection points: 2
#     Edge 104, Type (0, 1), BuildingBlock: CIFDUS_clean_linker_0, # of connection points: 2
#     Edge 105, Type (0, 1), BuildingBlock: CIFDUS_clean_linker_0, # of connection points: 2
#     Edge 106, Type (0, 1), BuildingBlock: CIFDUS_clean_linker_0, # of connection points: 2
#     Edge 107, Type (0, 1), BuildingBlock: CIFDUS_clean_linker_0, # of connection points: 2
# Relax obj value: 0.047
# Max RMSD: 0.106
# Mean RMSD: 0.081
data_MOF--net-ptr--node1-CEKHIL_clean_sbu_0--node2-KUFVIS_clean_linker_0--edge1-CIFDUS_clean_linker_0
_symmetry_space_group_name_H-M    P1
_symmetry_Int_Tables_number       1
_symmetry_cell_setting            triclinic
loop_
_symmetry_equiv_pos_as_xyz
'x, y, z'
_cell_length_a     69.173008
_cell_length_b     68.363866
_cell_length_c     43.71123
_cell_angle_alpha  90.647577
_cell_angle_beta   89.761002
_cell_angle_gamma 121.04324
loop_
_atom_site_label
_atom_site_type_symbol
_atom_site_fract_x
_atom_site_fract_y
_atom_site_fract_z
_atom_type_partial_charge
Co0 Co 1.01063 0.3556 0.01068 0.0
O1 O 0.02053 0.34043 0.03784 0.0
O2 O 0.04334 0.36913 0.00824 0.0
C3 C 0.98077 0.32293 0.99166 0.0
O4 O 1.00646 0.37513 0.97892 0.0
Co5 Co 0.96287 0.34963 0.0178 0.0
O6 O 0.97115 0.36885 0.98092 0.0
C7 C 0.99905 0.37758 0.06208 0.0
C8 C 0.04093 0.3541 0.0283 0.0
C9 C 0.99089 0.37874 0.96942 0.0
O10 O 0.01406 0.37765 0.04446 0.0
O11 O 0.97781 0.36533 0.05714 0.0
O12 O 1.00088 0.33047 0.9807 0.0
O13 O 0.97971 0.33435 0.01451 0.0
Co14 Co 0.66483 0.66273 0.01081 0.0
O15 O 0.68997 0.67212 0.98288 0.0
O16 O 0.68066 0.6468 0.01952 0.0
C17 C 0.67193 0.69862 0.02125 0.0
O18 O 0.64111 0.64901 0.04487 0.0
Co19 Co 0.62593 0.67232 0.00017 0.0
O20 O 0.61792 0.66295 0.04325 0.0
C21 C 0.62423 0.63202 0.97052 0.0
C22 C 0.69426 0.65827 -0.00266 0.0
C23 C 0.62503 0.65121 0.05603 0.0
O24 O 0.64333 0.63702 0.98232 0.0
O25 O 0.61541 0.6444 0.97401 0.0
O26 O 0.68314 0.69082 0.03512 0.0
O27 O 0.65818 0.68534 0.00035 0.0
Co28 Co 0.36341 0.01084 0.00546 0.0
O29 O 0.3511 0.02494 0.97998 0.0
O30 O 0.3775 0.0432 0.01512 0.0
C31 C 0.32981 0.979 0.0173 0.0
O32 O 0.37983 1.00245 0.03723 0.0
Co33 Co 0.35804 0.96384 0.98833 0.0
O34 O 0.37003 0.96578 0.02994 0.0
C35 C 0.39319 1.00568 0.95798 0.0
C36 C 0.36476 0.04402 0.99401 0.0
C37 C 0.38001 0.9844 0.04517 0.0
O38 O 0.38791 0.01805 0.97429 0.0
O39 O 0.38267 0.98387 0.95922 0.0
O40 O 0.33656 0.99815 0.0319 0.0
O41 O 0.34239 0.98022 0.99465 0.0
Co42 Co 1.01158 0.65964 0.00958 0.0
O43 O 1.00157 0.67504 0.98297 0.0
O44 O 0.97895 0.64662 0.01309 0.0
C45 C 0.04219 0.69224 0.02759 0.0
O46 O 0.01582 0.64 0.04111 0.0
Co47 Co 0.05883 0.66458 0.00112 0.0
O48 O 0.05085 0.64558 0.03817 0.0
C49 C 0.02181 0.63689 0.95777 0.0
C50 C 0.9813 0.66171 0.9932 0.0
C51 C 0.03128 0.63607 0.05019 0.0
O52 O 1.00719 0.63724 0.97576 0.0
O53 O 0.04314 0.64881 0.9622 0.0
O54 O 0.02235 0.68512 0.03931 0.0
O55 O 0.04253 0.68041 0.00475 0.0
Co56 Co 0.35444 0.35311 0.00976 0.0
O57 O 0.33006 0.33857 0.03872 0.0
O58 O 0.33465 0.36543 0.00671 0.0
C59 C 0.35165 0.3201 0.99324 0.0
O60 O 0.37688 0.37188 0.97604 0.0
Co61 Co 0.39758 0.34953 0.01423 0.0
O62 O 0.40728 0.36802 0.97669 0.0
C63 C 0.3931 0.3828 0.05325 0.0
C64 C 0.32264 0.35115 0.02805 0.0
C65 C 0.39633 0.37664 0.96571 0.0
O66 O 0.37411 0.37744 0.04077 0.0
O67 O 0.40387 0.37262 0.04714 0.0
O68 O 0.33837 0.3265 0.98224 0.0
O69 O 0.36505 0.33293 0.01469 0.0
Co70 Co 0.66156 0.00859 0.0065 0.0
O71 O 0.67716 1.00053 0.03562 0.0
O72 O 0.65077 0.97584 0.00424 0.0
C73 C 0.69323 0.04029 0.98898 0.0
O74 O 0.64258 0.01091 0.97206 0.0
Co75 Co 0.66341 0.05528 0.01263 0.0
O76 O 0.64864 0.0467 0.97206 0.0
C77 C 0.63526 0.0176 0.05474 0.0
C78 C 0.66553 0.9797 0.02543 0.0
C79 C 0.63998 0.02674 0.96049 0.0
O80 O 0.63778 1.00329 0.03826 0.0
O81 O 0.64591 0.03912 0.04999 0.0
O82 O 0.68765 0.02014 0.97866 0.0
O83 O 0.68071 0.04042 0.01076 0.0
Co84 Co 0.68466 0.69124 0.34221 0.0
O85 O 0.69383 0.67555 0.36959 0.0
O86 O 0.71718 0.70341 0.33922 0.0
C87 C 0.65362 0.65896 0.32444 0.0
O88 O 0.68122 0.71101 0.31 0.0
Co89 Co 0.63796 0.68776 0.34978 0.0
O90 O 0.6465 0.70628 0.31222 0.0
C91 C 0.67508 0.71502 0.3932 0.0
C92 C 0.71426 0.6884 0.35961 0.0
C93 C 0.6661 0.71528 0.3004 0.0
O94 O 0.68954 0.71416 0.37545 0.0
O95 O 0.65375 0.7035 0.38866 0.0
O96 O 0.67338 0.6654 0.31298 0.0
O97 O 0.65358 0.67122 0.34692 0.0
Co98 Co 0.33198 0.99467 0.34041 0.0
O99 O 0.35768 0.00915 0.31381 0.0
O100 O 0.34765 0.97761 0.3392 0.0
C101 C 0.34036 0.02789 0.36425 0.0
O102 O 0.30672 0.97533 0.37099 0.0
Co103 Co 0.29563 0.00866 0.33769 0.0
O104 O 0.28375 0.98951 0.37456 0.0
C105 C 0.29667 0.97806 0.2902 0.0
C106 C 0.36208 0.99356 0.32117 0.0
C107 C 0.28972 0.97558 0.38291 0.0
O108 O 0.31157 0.97611 0.30525 0.0
O109 O 0.29005 0.99181 0.29783 0.0
O110 O 0.3498 0.01663 0.37286 0.0
O111 O 0.32732 0.01948 0.34076 0.0
Co112 Co 0.03089 0.3407 0.34085 0.0
O113 O 0.02123 0.35673 0.31417 0.0
O114 O 0.04731 0.37324 0.35007 0.0
C115 C 0.99558 0.31089 0.35215 0.0
O116 O 0.04508 0.33072 0.37377 0.0
Co117 Co 0.02083 0.29136 0.32729 0.0
O118 O 0.03208 0.29308 0.36939 0.0
C119 C 0.05953 0.33095 0.29698 0.0
C120 C 0.03569 0.37537 0.32849 0.0
C121 C 0.04351 0.31215 0.3833 0.0
O122 O 0.05544 0.34513 0.31103 0.0
O123 O 0.04704 0.30924 0.29934 0.0
O124 O 1.0037 0.33043 0.36627 0.0
O125 O 1.00803 0.31059 0.33036 0.0
Co126 Co 0.67335 0.99267 0.34644 0.0
O127 O 0.65851 1.00406 0.32066 0.0
O128 O 0.64082 0.9735 0.34965 0.0
C129 C 0.69925 0.02732 0.36646 0.0
O130 O 0.68158 0.97558 0.37708 0.0
Co131 Co 0.72317 1.00628 0.33999 0.0
O132 O 0.71824 0.98662 0.37563 0.0
C133 C 0.68908 0.97136 0.29813 0.0
C134 C 0.6395 0.98714 0.33047 0.0
C135 C 0.6985 0.97421 0.38649 0.0
O136 O 0.67338 0.97271 0.31208 0.0
O137 O 0.71003 0.98409 0.30479 0.0
O138 O 0.67886 0.0158 0.37731 0.0
O139 O 0.70313 0.01829 0.34285 0.0
Co140 Co 0.0274 0.68947 0.34084 0.0
O141 O 1.00242 0.67812 0.36936 0.0
O142 O 0.01323 0.70754 0.33879 0.0
C143 C 0.01791 0.65453 0.32183 0.0
O144 O 0.05088 0.70599 0.30748 0.0
Co145 Co 0.06449 0.67692 0.34197 0.0
O146 O 0.07697 0.69588 0.30495 0.0
C147 C 0.06806 0.7135 0.38331 0.0
C148 C 0.99911 0.69394 0.35915 0.0
C149 C 0.0687 0.7076 0.29558 0.0
O150 O 0.04965 0.71116 0.37254 0.0
O151 O 0.07566 0.70063 0.37534 0.0
O152 O 1.00806 0.66513 0.31209 0.0
O153 O 0.03224 0.66464 0.3438 0.0
Co154 Co 0.33046 0.34012 0.33818 0.0
O155 O 0.34257 0.32631 0.36483 0.0
O156 O 0.31279 0.30704 0.33492 0.0
C157 C 0.36426 0.36756 0.31875 0.0
O158 O 0.31304 0.34703 0.3065 0.0
Co159 Co 0.34146 0.38988 0.34517 0.0
O160 O 0.32225 0.38369 0.30865 0.0
C161 C 0.30722 0.3545 0.38545 0.0
C162 C 0.32646 0.30662 0.3548 0.0
C163 C 0.31098 0.3637 0.2971 0.0
O164 O 0.30974 0.33921 0.37167 0.0
O165 O 0.31907 0.37579 0.37932 0.0
O166 O 0.354 0.34673 0.30816 0.0
O167 O 0.35476 0.37089 0.34213 0.0
Co168 Co 0.34762 0.02448 0.67097 0.0
O169 O 0.36308 0.01259 0.69422 0.0
O170 O 0.38017 0.04386 0.6665 0.0
C171 C 0.32112 0.99073 0.64992 0.0
O172 O 0.33764 0.04157 0.64268 0.0
Co173 Co 0.29735 0.00891 0.6832 0.0
O174 O 0.2997 0.02351 0.64337 0.0
C175 C 0.33313 0.04472 0.72243 0.0
C176 C 0.38188 0.02976 0.68446 0.0
C177 C 0.31873 0.03837 0.63238 0.0
O178 O 0.34844 0.04362 0.707 0.0
O179 O 0.31196 0.03175 0.71732 0.0
O180 O 0.3412 1.0023 0.63812 0.0
O181 O 0.31834 0.99874 0.67531 0.0
Co182 Co 1.00045 0.33067 0.67231 0.0
O183 O 0.02638 0.3431 0.64521 0.0
O184 O 0.01404 0.31204 0.67293 0.0
C185 C 1.00968 0.36465 0.69435 0.0
O186 O 0.97597 0.31284 0.70396 0.0
Co187 Co 0.96383 0.34397 0.67197 0.0
O188 O 0.9503 0.32346 0.70751 0.0
C189 C 0.96379 0.31306 0.62398 0.0
C190 C 0.02899 0.32651 0.65405 0.0
C191 C 0.95814 0.31114 0.71595 0.0
O192 O 0.97913 0.31131 0.63818 0.0
O193 O 0.95738 0.32687 0.63218 0.0
O194 O 0.01908 0.35343 0.7034 0.0
O195 O 0.99603 0.35573 0.67147 0.0
Co196 Co 0.69738 0.6773 0.67921 0.0
O197 O 0.68689 0.69261 0.65261 0.0
O198 O 0.71376 0.70985 0.68742 0.0
C199 C 0.66282 0.64746 0.69226 0.0
O200 O 0.71257 0.66846 0.71188 0.0
Co201 Co 0.68879 0.62855 0.6672 0.0
O202 O 0.70409 0.63214 0.70685 0.0
C203 C 0.72461 0.66743 0.63281 0.0
C204 C 0.70176 0.71154 0.66603 0.0
C205 C 0.71401 0.65133 0.7208 0.0
O206 O 0.72109 0.68153 0.64817 0.0
O207 O 0.71263 0.64575 0.63581 0.0
O208 O 0.67091 0.66723 0.70578 0.0
O209 O 0.67484 0.64691 0.66999 0.0
Co210 Co 0.34641 0.33192 0.67664 0.0
O211 O 0.3378 0.34758 0.64831 0.0
O212 O 0.31395 0.32005 0.67871 0.0
C213 C 0.37728 0.3641 0.695 0.0
O214 O 0.34897 0.31212 0.70964 0.0
Co215 Co 0.39308 0.33496 0.67187 0.0
O216 O 0.38365 0.31673 0.70966 0.0
C217 C 0.35534 0.30369 0.63081 0.0
C218 C 0.31725 0.33501 0.65803 0.0
C219 C 0.36372 0.3077 0.72031 0.0
O220 O 0.34162 0.30841 0.64434 0.0
O221 O 0.37642 0.31368 0.63708 0.0
O222 O 0.35732 0.35787 0.70548 0.0
O223 O 0.37774 0.3518 0.67285 0.0
Co224 Co 0.69023 0.02073 0.66694 0.0
O225 O 0.66426 1.00705 0.6931 0.0
O226 O 0.67363 0.03671 0.66371 0.0
C227 C 0.68341 0.98686 0.64765 0.0
O228 O 0.71557 0.03879 0.63584 0.0
Co229 Co 0.72833 0.00983 0.67498 0.0
O230 O 0.73773 0.0236 0.63407 0.0
C231 C 0.72736 0.04477 0.71467 0.0
C232 C 0.65933 0.02163 0.68276 0.0
C233 C 0.73177 0.03709 0.62393 0.0
O234 O 0.7097 0.04192 0.70078 0.0
O235 O 0.73658 0.03303 0.70865 0.0
O236 O 0.67338 0.99685 0.63649 0.0
O237 O 0.69618 0.99686 0.67111 0.0
Co238 Co 0.99935 0.67855 0.68012 0.0
O239 O 1.01245 0.66675 0.70795 0.0
O240 O 0.98598 0.64559 0.67423 0.0
C241 C 0.03275 0.70956 0.66549 0.0
O242 O 0.98246 0.68475 0.64652 0.0
Co243 Co 1.0048 0.72636 0.6907 0.0
O244 O 0.9937 0.72213 0.64811 0.0
C245 C 0.97015 0.68668 0.72547 0.0
C246 C 0.99962 0.64677 0.69557 0.0
C247 C 0.98304 0.70249 0.63544 0.0
O248 O 0.97516 0.67327 0.71111 0.0
O249 O 0.98076 0.70832 0.72162 0.0
O250 O 0.0258 0.6896 0.65323 0.0
O251 O 0.02042 0.70975 0.6876 0.0
H252 H 0.25368 0.36159 0.1426 0.0
H253 H 0.20612 0.36956 0.09053 0.0
H254 H 0.20247 0.3661 0.19012 0.0
H255 H 0.17983 0.37724 0.18912 0.0
H256 H 0.12634 0.37647 0.14084 0.0
H257 H 0.17304 0.36542 0.09049 0.0
C258 C 0.23873 0.36295 0.14198 0.0
C259 C 0.22896 0.36398 0.16934 0.0
C260 C 0.23023 0.36435 0.11375 0.0
C261 C 0.21174 0.36772 0.11273 0.0
C262 C 0.20086 0.3685 0.14015 0.0
C263 C 0.20994 0.36636 0.16838 0.0
C264 C 0.18033 0.3714 0.13968 0.0
C265 C 0.17186 0.37542 0.16732 0.0
C266 C 0.1524 0.37698 0.16778 0.0
C267 C 0.14163 0.37569 0.1404 0.0
C268 C 0.14903 0.37159 0.11267 0.0
C269 C 0.16827 0.36939 0.11217 0.0
H270 H 0.67126 0.90739 0.14067 0.0
H271 H 0.66699 0.85159 0.08878 0.0
H272 H 0.68324 0.85969 0.18576 0.0
H273 H 0.66577 0.82259 0.18591 0.0
H274 H 0.68147 0.77649 0.14169 0.0
H275 H 0.68425 0.83068 0.08975 0.0
C276 C 0.67196 0.89189 0.13973 0.0
C277 C 0.67659 0.88409 0.16638 0.0
C278 C 0.66927 0.88088 0.11158 0.0
C279 C 0.66982 0.86043 0.11048 0.0
C280 C 0.6743 0.85184 0.13751 0.0
C281 C 0.67844 0.86462 0.16503 0.0
C282 C 0.67527 0.83013 0.13782 0.0
C283 C 0.67119 0.81771 0.16548 0.0
C284 C 0.67429 0.79895 0.16732 0.0
C285 C 0.68002 0.79156 0.14087 0.0
C286 C 0.68323 0.80258 0.113 0.0
C287 C 0.68102 0.82195 0.11133 0.0
H288 H 0.25483 0.9081 0.13446 0.0
H289 H 0.20055 0.85242 0.08572 0.0
H290 H 0.19978 0.85629 0.18513 0.0
H291 H 0.1785 0.81989 0.18445 0.0
H292 H 0.11617 0.77109 0.14255 0.0
H293 H 0.16442 0.82762 0.08972 0.0
C294 C 0.23888 0.89196 0.13482 0.0
C295 C 0.22852 0.88292 0.16273 0.0
C296 C 0.22856 0.8815 0.10725 0.0
C297 C 0.20795 0.86039 0.10746 0.0
C298 C 0.19725 0.85009 0.13568 0.0
C299 C 0.20783 0.86217 0.16318 0.0
C300 C 0.17489 0.82756 0.13696 0.0
C301 C 0.16773 0.81472 0.16452 0.0
C302 C 0.14623 0.79497 0.1669 0.0
C303 C 0.13243 0.78686 0.14117 0.0
C304 C 0.13912 0.79824 0.11345 0.0
C305 C 0.1601 0.81874 0.11125 0.0
H306 H 0.35255 0.11084 0.8785 0.0
H307 H 0.3539 0.16554 0.92924 0.0
H308 H 0.34201 0.15879 0.83118 0.0
H309 H 0.35808 0.19562 0.83129 0.0
H310 H 0.34222 0.24169 0.87522 0.0
H311 H 0.33837 0.18711 0.92705 0.0
C312 C 0.35207 0.12647 0.87882 0.0
C313 C 0.34812 0.13435 0.85167 0.0
C314 C 0.35352 0.13718 0.90678 0.0
C315 C 0.35231 0.15722 0.90742 0.0
C316 C 0.34903 0.16617 0.87986 0.0
C317 C 0.34616 0.15377 0.85235 0.0
C318 C 0.34783 0.18772 0.87914 0.0
C319 C 0.35234 0.20032 0.85155 0.0
C320 C 0.34944 0.21922 0.84966 0.0
C321 C 0.34342 0.22648 0.87596 0.0
C322 C 0.33992 0.21531 0.90372 0.0
C323 C 0.34183 0.19583 0.90543 0.0
H324 H 0.77303 0.10925 0.8706 0.0
H325 H 0.82407 0.16566 0.92281 0.0
H326 H 0.83106 0.16133 0.82457 0.0
H327 H 0.84916 0.19847 0.82626 0.0
H328 H 0.91077 0.24696 0.87028 0.0
H329 H 0.86178 0.18906 0.92079 0.0
C330 C 0.78877 0.1256 0.87136 0.0
C331 C 0.80074 0.13476 0.84442 0.0
C332 C 0.79732 0.13626 0.89957 0.0
C333 C 0.81796 0.15735 0.90081 0.0
C334 C 0.83033 0.16743 0.87353 0.0
C335 C 0.82164 0.15523 0.84563 0.0
C336 C 0.85233 0.19014 0.87347 0.0
C337 C 0.85971 0.20351 0.84644 0.0
C338 C 0.8811 0.22346 0.8449 0.0
C339 C 0.89455 0.23111 0.87102 0.0
C340 C 0.88748 0.21912 0.89833 0.0
C341 C 0.86655 0.1985 0.89966 0.0
H342 H 0.76642 0.65389 0.88394 0.0
H343 H 0.82397 0.66334 0.93366 0.0
H344 H 0.81591 0.64565 0.83677 0.0
H345 H 0.85234 0.6652 0.83622 0.0
H346 H 0.90387 0.65874 0.87937 0.0
H347 H 0.84764 0.64938 0.93296 0.0
C348 C 0.78216 0.65397 0.88428 0.0
C349 C 0.79049 0.65035 0.8571 0.0
C350 C 0.79379 0.65816 0.91185 0.0
C351 C 0.81463 0.65896 0.9124 0.0
C352 C 0.82337 0.65464 0.88524 0.0
C353 C 0.81045 0.64966 0.85788 0.0
C354 C 0.84608 0.65611 0.88451 0.0
C355 C 0.85833 0.66117 0.85661 0.0
C356 C 0.87866 0.66129 0.85447 0.0
C357 C 0.88774 0.65781 0.88077 0.0
C358 C 0.8772 0.65436 0.90919 0.0
C359 C 0.85602 0.65284 0.91103 0.0
H360 H 0.92286 0.68762 0.47472 0.0
H361 H 0.86874 0.68513 0.4245 0.0
H362 H 0.87494 0.69783 0.52279 0.0
H363 H 0.83918 0.68233 0.52236 0.0
H364 H 0.78991 0.69177 0.47814 0.0
H365 H 0.84511 0.69792 0.4254 0.0
C366 C 0.90799 0.68912 0.47457 0.0
C367 C 0.89978 0.69253 0.50201 0.0
C368 C 0.89728 0.68713 0.44679 0.0
C369 C 0.87719 0.68769 0.4462 0.0
C370 C 0.86813 0.69107 0.47369 0.0
C371 C 0.88022 0.69399 0.50141 0.0
C372 C 0.84615 0.69116 0.47407 0.0
C373 C 0.83385 0.68683 0.50178 0.0
C374 C 0.81417 0.68793 0.50352 0.0
C375 C 0.80565 0.69187 0.47703 0.0
C376 C 0.81617 0.6946 0.44875 0.0
C377 C 0.83681 0.69498 0.4473 0.0
H378 H 0.33288 0.23728 0.47388 0.0
H379 H 0.32948 0.18142 0.4236 0.0
H380 H 0.34021 0.18767 0.52192 0.0
H381 H 0.32543 0.1519 0.52326 0.0
H382 H 0.3352 0.10185 0.47966 0.0
H383 H 0.34062 0.15647 0.42586 0.0
C384 C 0.33255 0.22122 0.47373 0.0
C385 C 0.33561 0.21286 0.50104 0.0
C386 C 0.33099 0.2104 0.44583 0.0
C387 C 0.33117 0.18976 0.44541 0.0
C388 C 0.33354 0.18031 0.47316 0.0
C389 C 0.3366 0.1929 0.50055 0.0
C390 C 0.33346 0.15801 0.47432 0.0
C391 C 0.3297 0.14623 0.50255 0.0
C392 C 0.33071 0.12629 0.50449 0.0
C393 C 0.33472 0.11743 0.47811 0.0
C394 C 0.33815 0.12806 0.44986 0.0
C395 C 0.33748 0.1483 0.44784 0.0
H396 H 0.91738 0.24356 0.46943 0.0
H397 H 0.86277 0.1888 0.42025 0.0
H398 H 0.862 0.19223 0.51989 0.0
H399 H 0.83795 0.15722 0.52031 0.0
H400 H 0.77887 0.10555 0.47564 0.0
H401 H 0.8283 0.16109 0.42245 0.0
C402 C 0.90119 0.22766 0.46973 0.0
C403 C 0.89079 0.21861 0.49758 0.0
C404 C 0.89082 0.21746 0.4421 0.0
C405 C 0.87005 0.19648 0.44212 0.0
C406 C 0.85916 0.18602 0.47026 0.0
C407 C 0.86989 0.19801 0.49787 0.0
C408 C 0.83669 0.16329 0.47125 0.0
C409 C 0.82836 0.15132 0.49936 0.0
C410 C 0.80752 0.13071 0.50085 0.0
C411 C 0.79488 0.12158 0.47434 0.0
C412 C 0.80231 0.13227 0.44619 0.0
C413 C 0.82319 0.15308 0.4445 0.0
H414 H 0.03792 0.45124 0.21847 0.0
H415 H 0.03223 0.50273 0.26685 0.0
H416 H 0.02524 0.49624 0.16784 0.0
H417 H 0.03551 0.53099 0.16581 0.0
H418 H 0.02162 0.57865 0.20807 0.0
H419 H 0.02202 0.52775 0.26359 0.0
C420 C 0.03591 0.46598 0.21805 0.0
C421 C 0.03209 0.47312 0.19023 0.0
C422 C 0.03503 0.47589 0.2456 0.0
C423 C 0.03255 0.4952 0.24516 0.0
C424 C 0.03043 0.50425 0.21682 0.0
C425 C 0.02935 0.49206 0.18965 0.0
C426 C 0.02833 0.5254 0.21493 0.0
C427 C 0.0308 0.5364 0.18634 0.0
C428 C 0.0273 0.55484 0.1836 0.0
C429 C 0.02287 0.56352 0.20986 0.0
C430 C 0.02125 0.55408 0.2386 0.0
C431 C 0.02383 0.53497 0.24118 0.0
H432 H 0.43958 0.44812 0.2052 0.0
H433 H 0.49177 0.50161 0.25995 0.0
H434 H 0.49827 0.50029 0.16111 0.0
H435 H 0.5185 0.53656 0.16372 0.0
H436 H 0.57981 0.58344 0.20922 0.0
H437 H 0.52918 0.52583 0.25864 0.0
C438 C 0.4557 0.46403 0.20676 0.0
C439 C 0.46761 0.47398 0.18009 0.0
C440 C 0.46463 0.4732 0.23557 0.0
C441 C 0.48545 0.4942 0.23757 0.0
C442 C 0.49796 0.50505 0.21054 0.0
C443 C 0.48889 0.49389 0.1821 0.0
C444 C 0.52047 0.52745 0.21108 0.0
C445 C 0.52865 0.541 0.18421 0.0
C446 C 0.55007 0.56094 0.18337 0.0
C447 C 0.56318 0.5681 0.20975 0.0
C448 C 0.55558 0.55582 0.23681 0.0
C449 C 0.53438 0.5354 0.23763 0.0
H450 H 0.43388 0.9887 0.20661 0.0
H451 H 0.48131 0.97996 0.25751 0.0
H452 H 0.4899 0.99289 0.15946 0.0
H453 H 0.51381 0.98262 0.15985 0.0
H454 H 0.56436 0.97976 0.21161 0.0
H455 H 0.51657 0.9905 0.259 0.0
C456 C 0.44916 0.98792 0.20703 0.0
C457 C 0.4606 0.99007 0.17981 0.0
C458 C 0.45681 0.98476 0.23488 0.0
C459 C 0.47643 0.98338 0.23572 0.0
C460 C 0.48929 0.98642 0.20868 0.0
C461 C 0.48102 0.99016 0.18078 0.0
C462 C 0.51077 0.98525 0.20948 0.0
C463 C 0.52078 0.98308 0.18202 0.0
C464 C 0.54072 0.98227 0.18268 0.0
C465 C 0.54949 0.98127 0.2109 0.0
C466 C 0.54105 0.98446 0.2382 0.0
C467 C 0.52203 0.98694 0.23758 0.0
H468 H 0.58527 0.01932 0.79363 0.0
H469 H 0.54045 0.0354 0.74895 0.0
H470 H 0.53298 0.01911 0.84581 0.0
H471 H 0.51387 0.03502 0.84845 0.0
H472 H 0.45725 0.03198 0.80525 0.0
H473 H 0.50424 0.02441 0.75014 0.0
C474 C 0.57106 0.02187 0.79508 0.0
C475 C 0.56083 0.02011 0.82332 0.0
C476 C 0.5638 0.02727 0.76848 0.0
C477 C 0.54527 0.03049 0.76967 0.0
C478 C 0.53325 0.02729 0.79746 0.0
C479 C 0.54139 0.02186 0.82411 0.0
C480 C 0.51257 0.02972 0.79895 0.0
C481 C 0.50475 0.03295 0.82753 0.0
C482 C 0.48458 0.0331 0.83005 0.0
C483 C 0.47306 0.03229 0.80349 0.0
C484 C 0.48036 0.02972 0.77472 0.0
C485 C 0.49974 0.02784 0.77242 0.0
H486 H 0.98337 0.56289 0.8016 0.0
H487 H 0.98899 0.51137 0.75313 0.0
H488 H 0.9979 0.51895 0.85184 0.0
H489 H 0.98599 0.48344 0.85359 0.0
H490 H 1.00239 0.43734 0.81201 0.0
H491 H 1.00244 0.48865 0.7567 0.0
C492 C 0.98593 0.54849 0.80202 0.0
C493 C 0.99025 0.54167 0.82976 0.0
C494 C 0.98669 0.53856 0.77442 0.0
C495 C 0.98911 0.51921 0.77476 0.0
C496 C 0.99194 0.51062 0.80306 0.0
C497 C 0.99335 0.52296 0.83021 0.0
C498 C 0.99445 0.48978 0.80492 0.0
C499 C 0.99145 0.47845 0.83335 0.0
C500 C 0.99544 0.46034 0.83622 0.0
C501 C 1.00085 0.4523 0.81017 0.0
C502 C 1.00312 0.46216 0.78155 0.0
C503 C 1.00007 0.48097 0.77891 0.0
H504 H 0.5927 0.57069 0.81267 0.0
H505 H 0.53002 0.52951 0.76582 0.0
H506 H 0.53973 0.51302 0.85821 0.0
H507 H 0.50415 0.49528 0.86223 0.0
H508 H 0.44609 0.4439 0.81445 0.0
H509 H 0.50232 0.49345 0.7627 0.0
C510 C 0.57592 0.55555 0.81216 0.0
C511 C 0.56735 0.54244 0.83839 0.0
C512 C 0.56267 0.55081 0.78606 0.0
C513 C 0.54024 0.53217 0.78584 0.0
C514 C 0.5312 0.51773 0.81176 0.0
C515 C 0.5454 0.52324 0.83783 0.0
C516 C 0.50708 0.49755 0.81232 0.0
C517 C 0.49612 0.48789 0.84058 0.0
C518 C 0.4743 0.46841 0.84152 0.0
C519 C 0.46276 0.45918 0.81415 0.0
C520 C 0.47256 0.46847 0.78604 0.0
C521 C 0.49479 0.4873 0.78489 0.0
H522 H 0.71245 0.78901 0.55003 0.0
H523 H 0.70184 0.83795 0.59595 0.0
H524 H 0.70122 0.83392 0.49656 0.0
H525 H 0.70779 0.86745 0.49426 0.0
H526 H 0.69235 0.91393 0.53683 0.0
H527 H 0.69352 0.86357 0.59205 0.0
C528 C 0.71001 0.80344 0.54882 0.0
C529 C 0.70731 0.81075 0.52038 0.0
C530 C 0.70695 0.81246 0.5758 0.0
C531 C 0.7039 0.83132 0.57449 0.0
C532 C 0.7033 0.84087 0.54579 0.0
C533 C 0.70418 0.82945 0.5189 0.0
C534 C 0.70051 0.86157 0.54347 0.0
C535 C 0.7029 0.8726 0.51486 0.0
C536 C 0.69896 0.89078 0.51228 0.0
C537 C 0.69409 0.89907 0.53853 0.0
C538 C 0.69234 0.88944 0.56708 0.0
C539 C 0.69542 0.87073 0.56962 0.0
H540 H 0.10188 0.78233 0.54197 0.0
H541 H 0.165 0.82646 0.58689 0.0
H542 H 0.15589 0.83446 0.49044 0.0
H543 H 0.19146 0.85074 0.48679 0.0
H544 H 0.25058 0.90419 0.52896 0.0
H545 H 0.19186 0.86426 0.5844 0.0
C546 C 0.11884 0.79719 0.5413 0.0
C547 C 0.1278 0.80761 0.51342 0.0
C548 C 0.13203 0.80394 0.56777 0.0
C549 C 0.15471 0.82214 0.5665 0.0
C550 C 0.16402 0.83403 0.53867 0.0
C551 C 0.14995 0.82635 0.51231 0.0
C552 C 0.18834 0.85358 0.53645 0.0
C553 C 0.1996 0.8598 0.50766 0.0
C554 C 0.22169 0.87844 0.50514 0.0
C555 C 0.23334 0.89006 0.53137 0.0
C556 C 0.2226 0.88578 0.55977 0.0
C557 C 0.2002 0.86722 0.56249 0.0
H558 H 0.10491 0.32857 0.54076 0.0
H559 H 0.16179 0.33809 0.59204 0.0
H560 H 0.1566 0.3238 0.49416 0.0
H561 H 0.19275 0.34194 0.49519 0.0
H562 H 0.24318 0.33498 0.54061 0.0
H563 H 0.18623 0.32581 0.59206 0.0
C564 C 0.12073 0.32882 0.54143 0.0
C565 C 0.12985 0.32621 0.51435 0.0
C566 C 0.13188 0.33265 0.56932 0.0
C567 C 0.15305 0.33424 0.57035 0.0
C568 C 0.16279 0.33125 0.54324 0.0
C569 C 0.15054 0.32697 0.51535 0.0
C570 C 0.18557 0.33284 0.54342 0.0
C571 C 0.1983 0.33789 0.51596 0.0
C572 C 0.21851 0.33776 0.51471 0.0
C573 C 0.22715 0.3343 0.54144 0.0
C574 C 0.21617 0.3309 0.56948 0.0
C575 C 0.19499 0.32942 0.57042 0.0
H576 H 0.0285 0.42348 0.06504 0.0
H577 H 0.9839 0.36488 0.11928 0.0
H578 H 0.99006 0.38952 0.16353 0.0
H579 H 1.00612 0.42743 0.18579 0.0
H580 H 0.05024 0.4869 0.13271 0.0
H581 H 0.0457 0.46232 0.08848 0.0
C582 C 0.02059 0.41622 0.08681 0.0
C583 C 1.00602 0.39248 0.08926 0.0
C584 C 0.02366 0.43062 0.11194 0.0
C585 C 0.99533 0.38313 0.11716 0.0
C586 C 0.9987 0.39719 0.14232 0.0
C587 C 0.01498 0.43505 0.16465 0.0
C588 C 0.0287 0.4589 0.16256 0.0
C589 C 1.01249 0.42092 0.13978 0.0
C590 C 0.03954 0.46856 0.13478 0.0
C591 C 0.03709 0.45451 0.10965 0.0
H592 H 0.60376 0.60534 0.06172 0.0
H593 H 0.61663 0.6666 0.1089 0.0
H594 H 0.59288 0.64384 0.15162 0.0
H595 H 0.56898 0.60655 0.17579 0.0
H596 H 0.55444 0.545 0.12781 0.0
H597 H 0.57762 0.56767 0.08461 0.0
C598 C 0.60153 0.61362 0.0816 0.0
C599 C 0.61233 0.63758 0.08273 0.0
C600 C 0.58717 0.60035 0.10549 0.0
C601 C 0.60878 0.64819 0.10797 0.0
C602 C 0.59509 0.63519 0.1322 0.0
C603 C 0.57064 0.59811 0.15564 0.0
C604 C 0.56003 0.57414 0.15493 0.0
C605 C 0.58417 0.61127 0.13118 0.0
C606 C 0.56222 0.56339 0.1287 0.0
C607 C 0.57572 0.57638 0.10421 0.0
H608 H 0.42442 0.01357 0.06054 0.0
H609 H 0.36282 0.95438 0.09097 0.0
H610 H 0.38276 0.95009 0.13386 0.0
H611 H 0.41749 0.96241 0.16207 0.0
H612 H 0.47981 0.02125 0.13303 0.0
H613 H 0.46013 0.026 0.08957 0.0
C614 C 0.4154 1.00005 0.07698 0.0
C615 C 0.3921 0.98452 0.07303 0.0
C616 C 0.42721 0.99729 0.10127 0.0
C617 C 0.38067 0.96666 0.09386 0.0
C618 C 0.3921 0.96409 0.1182 0.0
C619 C 0.42682 0.97628 0.14619 0.0
C620 C 0.45006 0.99152 0.15087 0.0
C621 C 0.41535 0.97913 0.12193 0.0
C622 C 0.46196 0.00918 0.12982 0.0
C623 C 0.45063 0.01204 0.10521 0.0
H624 H 0.42328 0.99288 0.94558 0.0
H625 H 0.40658 0.0437 0.92332 0.0
H626 H 0.4359 0.05899 0.88373 0.0
H627 H 0.46336 0.05493 0.85193 0.0
H628 H 0.47971 1.00393 0.87519 0.0
H629 H 0.454 0.99218 0.91855 0.0
C630 C 0.42621 1.00744 0.93222 0.0
C631 C 0.41255 0.01688 0.93682 0.0
C632 C 0.44313 0.01617 0.90983 0.0
C633 C 0.41682 0.03607 0.91995 0.0
C634 C 0.43353 0.04475 0.89732 0.0
C635 C 0.46157 0.04154 0.86687 0.0
C636 C 0.47331 0.0302 0.86014 0.0
C637 C 0.44638 0.03454 0.89153 0.0
C638 C 0.47106 0.01308 0.87992 0.0
C639 C 0.45613 1.00614 0.90453 0.0
H640 H 0.96566 0.397 0.95207 0.0
H641 H 0.02789 0.39916 0.93171 0.0
H642 H 0.03581 0.42653 0.89099 0.0
H643 H 0.02419 0.44832 0.85957 0.0
H644 H 0.96155 0.4454 0.87888 0.0
H645 H 0.95505 0.42042 0.92236 0.0
C646 C 0.98098 0.40339 0.93875 0.0
C647 C 0.99602 0.3957 0.94483 0.0
C648 C 0.98547 0.4192 0.91542 0.0
C649 C 0.01593 0.40457 0.92753 0.0
C650 C 0.02049 0.42028 0.90425 0.0
C651 C 1.00916 0.44234 0.87343 0.0
C652 C 0.99326 0.4486 0.86577 0.0
C653 C 1.00527 0.42752 0.89781 0.0
C654 C 0.97412 0.44102 0.88431 0.0
C655 C 0.97028 0.42651 0.90896 0.0
H656 H 0.63897 0.61016 0.93235 0.0
H657 H 0.57889 0.60547 0.96969 0.0
H658 H 0.55538 0.57324 0.93606 0.0
H659 H 0.55206 0.55076 0.89059 0.0
H660 H 0.61168 0.55671 0.84997 0.0
H661 H 0.63505 0.58343 0.89056 0.0
C662 C 0.62073 0.60175 0.93343 0.0
C663 C 0.61072 0.6105 0.95297 0.0
C664 C 0.60718 0.58343 0.91334 0.0
C665 C 0.58704 0.5994 0.9543 0.0
C666 C 0.57353 0.58088 0.93517 0.0
C667 C 0.57005 0.5572 0.89132 0.0
C668 C 0.58014 0.55186 0.86735 0.0
C669 C 0.58342 0.57332 0.91381 0.0
C670 C 0.60355 0.56063 0.86827 0.0
C671 C 0.61693 0.57609 0.89128 0.0
H672 H 0.994 0.59075 0.95562 0.0
H673 H 0.03448 0.64982 0.89991 0.0
H674 H 0.02849 0.62533 0.85553 0.0
H675 H 0.01418 0.58758 0.83366 0.0
H676 H 0.97383 0.52764 0.88802 0.0
H677 H 0.97804 0.55197 0.93238 0.0
C678 C 1.00097 0.5981 0.93351 0.0
C679 C 0.01434 0.62195 0.93065 0.0
C680 C 0.99803 0.58383 0.90827 0.0
C681 C 0.0239 0.63148 0.9023 0.0
C682 C 0.02067 0.61751 0.87708 0.0
C683 C 1.00598 0.57976 0.85507 0.0
C684 C 0.99347 0.55585 0.85747 0.0
C685 C 1.00816 0.59373 0.87999 0.0
C686 C 0.98361 0.54603 0.88566 0.0
C687 C 0.98584 0.55992 0.91088 0.0
H688 H 0.44113 0.40163 0.95309 0.0
H689 H 0.37699 0.39236 0.92577 0.0
H690 H 0.39599 0.42227 0.8875 0.0
H691 H 0.43059 0.44966 0.86024 0.0
H692 H 0.49447 0.45812 0.88701 0.0
H693 H 0.47587 0.4306 0.92803 0.0
C694 C 0.43123 0.40601 0.93866 0.0
C695 C 0.40756 0.39441 0.94194 0.0
C696 C 0.44228 0.42339 0.91702 0.0
C697 C 0.39515 0.40079 0.92353 0.0
C698 C 0.40603 0.41797 0.90174 0.0
C699 C 0.44048 0.44563 0.87524 0.0
C700 C 0.4639 0.45582 0.87034 0.0
C701 C 0.42956 0.42923 0.89813 0.0
C702 C 0.47651 0.45074 0.89037 0.0
C703 C 0.46581 0.43473 0.91356 0.0
H704 H 0.59439 1.00206 0.95007 0.0
H705 H 0.65866 0.04484 0.90661 0.0
H706 H 0.63976 0.0468 0.86073 0.0
H707 H 0.60567 0.03944 0.83505 0.0
H708 H 0.54051 0.99531 0.87594 0.0
H709 H 0.55906 0.99159 0.92131 0.0
C710 C 0.6041 0.01118 0.93012 0.0
C711 C 0.62786 0.02292 0.93132 0.0
C712 C 0.59303 0.01259 0.90385 0.0
C713 C 0.64037 0.03532 0.90583 0.0
C714 C 0.62958 0.03666 0.87978 0.0
C715 C 0.59529 0.02843 0.85337 0.0
C716 C 0.57156 0.0175 0.8516 0.0
C717 C 0.60599 0.02579 0.87881 0.0
C718 C 0.55875 1.00417 0.87652 0.0
C719 C 0.56937 1.00182 0.90241 0.0
H720 H 0.5898 0.98612 0.05711 0.0
H721 H 0.64732 0.03287 0.11205 0.0
H722 H 0.62292 0.02628 0.15587 0.0
H723 H 0.58565 0.00972 0.17747 0.0
H724 H 0.52698 0.96226 0.12497 0.0
H725 H 0.55127 0.96732 0.08077 0.0
C726 C 0.59689 0.99435 0.07895 0.0
C727 C 0.62032 0.00976 0.08162 0.0
C728 C 0.58256 0.99086 0.10408 0.0
C729 C 0.62937 0.02082 0.10968 0.0
C730 C 0.61542 0.01721 0.13463 0.0
C731 C 0.57806 1.00003 0.15661 0.0
C732 C 0.55451 0.9853 0.15479 0.0
C733 C 0.59204 1.00264 0.1319 0.0
C734 C 0.54504 0.9737 0.12705 0.0
C735 C 0.55896 0.97646 0.10189 0.0
H736 H 0.05591 0.61692 0.06653 0.0
H737 H 0.99502 0.6168 0.08926 0.0
H738 H 0.98731 0.58971 0.13031 0.0
H739 H 0.99882 0.56764 0.16138 0.0
H740 H 0.06013 0.56851 0.13958 0.0
H741 H 0.06631 0.59316 0.09583 0.0
C742 C 0.04093 0.61104 0.08043 0.0
C743 C 0.02622 0.61923 0.07492 0.0
C744 C 0.03655 0.59538 0.10395 0.0
C745 C 1.00673 0.611 0.09298 0.0
C746 C 1.00229 0.59545 0.11646 0.0
C747 C 0.01348 0.5731 0.14691 0.0
C748 C 0.02911 0.56635 0.15394 0.0
C749 C 0.0172 0.58774 0.12234 0.0
C750 C 0.04776 0.57325 0.13463 0.0
C751 C 0.05143 0.58759 0.10983 0.0
H752 H 0.43754 0.40907 0.06561 0.0
H753 H 0.37294 0.40034 0.08937 0.0
H754 H 0.39114 0.43048 0.12846 0.0
H755 H 0.42491 0.45651 0.15886 0.0
H756 H 0.48902 0.46384 0.13574 0.0
H757 H 0.47157 0.43743 0.09261 0.0
C758 C 0.4274 0.41375 0.0793 0.0
C759 C 0.40385 0.40216 0.07513 0.0
C760 C 0.43793 0.43093 0.10159 0.0
C761 C 0.39105 0.40887 0.0924 0.0
C762 C 0.40145 0.42607 0.11471 0.0
C763 C 0.43508 0.45251 0.14409 0.0
C764 C 0.45816 0.46191 0.1506 0.0
C765 C 0.4248 0.43682 0.11994 0.0
C766 C 0.47128 0.45695 0.13108 0.0
C767 C 0.46125 0.44165 0.10666 0.0
H768 H 0.70451 0.76093 0.39557 0.0
H769 H 0.66138 0.70237 0.45077 0.0
H770 H 0.66771 0.72711 0.49493 0.0
H771 H 0.68272 0.76495 0.51645 0.0
H772 H 0.72579 0.82452 0.46283 0.0
H773 H 0.72162 0.79988 0.41883 0.0
C774 C 0.69705 0.75373 0.41755 0.0
C775 C 0.68275 0.72996 0.42029 0.0
C776 C 0.70022 0.76817 0.44266 0.0
C777 C 0.6726 0.72064 0.44846 0.0
C778 C 0.67605 0.73476 0.47355 0.0
C779 C 0.69161 0.77264 0.49535 0.0
C780 C 0.70482 0.79652 0.49302 0.0
C781 C 0.6894 0.75849 0.47069 0.0
C782 C 0.7155 0.80616 0.46514 0.0
C783 C 0.71326 0.79208 0.44013 0.0
H784 H 0.28644 0.93459 0.39682 0.0
H785 H 0.26019 0.97789 0.42151 0.0
H786 H 0.23435 0.94966 0.45743 0.0
H787 H 0.22006 0.91363 0.48375 0.0
H788 H 0.24713 0.87072 0.46348 0.0
H789 H 0.27116 0.89726 0.42331 0.0
C790 C 0.27516 0.93787 0.4102 0.0
C791 C 0.27539 0.95847 0.40631 0.0
C792 C 0.26008 0.92136 0.43115 0.0
C793 C 0.26046 0.96227 0.42377 0.0
C794 C 0.24553 0.94606 0.44432 0.0
C795 C 0.23073 0.90977 0.4698 0.0
C796 C 0.23142 0.89003 0.4758 0.0
C797 C 0.24516 0.92559 0.44817 0.0
C798 C 0.24587 0.88552 0.45853 0.0
C799 C 0.25986 0.9009 0.436 0.0
H800 H 0.08851 0.34006 0.39352 0.0
H801 H 0.02782 0.28452 0.43237 0.0
H802 H 0.04951 0.28262 0.47513 0.0
H803 H 0.0856 0.29695 0.50169 0.0
H804 H 0.14679 0.35149 0.46245 0.0
H805 H 0.12529 0.35308 0.41903 0.0
C806 C 0.08009 0.3278 0.41164 0.0
C807 C 0.05656 0.31279 0.41033 0.0
C808 C 0.09283 0.32627 0.43561 0.0
C809 C 0.04586 0.29645 0.43329 0.0
C810 C 0.05827 0.29525 0.45755 0.0
C811 C 0.09426 0.30899 0.4834 0.0
C812 C 0.11775 0.32409 0.48525 0.0
C813 C 0.08175 0.31 0.45888 0.0
C814 C 0.12878 0.3395 0.46135 0.0
C815 C 0.11643 0.34062 0.43676 0.0
H816 H 0.08265 0.37118 0.26522 0.0
H817 H 0.08299 0.30987 0.28663 0.0
H818 H 0.11474 0.32105 0.25249 0.0
H819 H 0.13939 0.34561 0.21196 0.0
H820 H 0.13786 0.40554 0.18698 0.0
H821 H 0.11016 0.39793 0.22731 0.0
C822 C 0.08989 0.36047 0.26264 0.0
C823 C 0.08015 0.33952 0.27806 0.0
C824 C 0.10803 0.36678 0.2423 0.0
C825 C 0.0898 0.32584 0.27456 0.0
C826 C 0.10808 0.33226 0.25514 0.0
C827 C 0.13355 0.35741 0.21606 0.0
C828 C 0.14072 0.37616 0.19674 0.0
C829 C 0.11694 0.35235 0.23828 0.0
C830 C 0.13263 0.39105 0.20178 0.0
C831 C 0.11665 0.38657 0.22462 0.0
H832 H 0.64201 0.73467 0.28254 0.0
H833 H 0.70292 0.73415 0.26225 0.0
H834 H 0.71167 0.76152 0.22121 0.0
H835 H 0.70137 0.78448 0.18995 0.0
H836 H 0.64014 0.78439 0.20949 0.0
H837 H 0.63255 0.75888 0.25266 0.0
C838 C 0.65721 0.74044 0.26916 0.0
C839 C 0.67165 0.73204 0.2754 0.0
C840 C 0.6622 0.75628 0.24568 0.0
C841 C 0.69141 0.74013 0.25797 0.0
C842 C 0.69645 0.75583 0.23451 0.0
C843 C 0.68636 0.77893 0.20371 0.0
C844 C 0.67122 0.78622 0.19626 0.0
C845 C 0.68188 0.76387 0.22803 0.0
C846 C 0.65214 0.77922 0.21475 0.0
C847 C 0.64768 0.76442 0.23925 0.0
H848 H 0.28272 0.93294 0.28328 0.0
H849 H 0.28464 0.98967 0.23799 0.0
H850 H 0.26238 0.96473 0.19568 0.0
H851 H 0.24206 0.92705 0.17187 0.0
H852 H 0.23912 0.86956 0.21605 0.0
H853 H 0.26143 0.89432 0.25914 0.0
C854 C 0.27851 0.9398 0.26387 0.0
C855 C 0.28549 0.96313 0.26347 0.0
C856 C 0.26515 0.92518 0.23989 0.0
C857 C 0.27954 0.9718 0.23863 0.0
C858 C 0.26671 0.95755 0.21456 0.0
C859 C 0.24627 0.91993 0.191 0.0
C860 C 0.23916 0.89662 0.19081 0.0
C861 C 0.2593 0.93424 0.2151 0.0
C862 C 0.24435 0.88747 0.21587 0.0
C863 C 0.25729 0.90166 0.24026 0.0
H864 H 0.713 0.95216 0.2788 0.0
H865 H 0.65053 0.9505 0.26371 0.0
H866 H 0.64032 0.92177 0.22329 0.0
H867 H 0.64999 0.89856 0.19065 0.0
H868 H 0.71225 0.89997 0.20583 0.0
H869 H 0.72148 0.92699 0.24842 0.0
C870 C 0.69718 0.94557 0.2666 0.0
C871 C 0.6827 0.95373 0.27393 0.0
C872 C 0.69129 0.92886 0.24368 0.0
C873 C 0.66203 0.94463 0.25839 0.0
C874 C 0.65617 0.92819 0.23531 0.0
C875 C 0.66548 0.90465 0.20353 0.0
C876 C 0.6805 0.89742 0.19508 0.0
C877 C 0.67077 0.92036 0.2276 0.0
C878 C 0.70037 0.90517 0.21208 0.0
C879 C 0.70574 0.92078 0.23619 0.0
H880 H 0.11219 0.72524 0.27585 0.0
H881 H 0.05266 0.72945 0.26172 0.0
H882 H 0.07259 0.75893 0.22359 0.0
H883 H 0.10616 0.78238 0.19279 0.0
H884 H 0.1656 0.77801 0.20492 0.0
H885 H 0.14677 0.75033 0.24616 0.0
C886 C 0.10353 0.7325 0.2643 0.0
C887 C 0.08081 0.72487 0.27147 0.0
C888 C 0.1152 0.74969 0.24245 0.0
C889 C 0.07003 0.73482 0.25662 0.0
C890 C 0.08145 0.75178 0.23487 0.0
C891 C 0.11509 0.77555 0.20474 0.0
C892 C 0.13718 0.78211 0.19578 0.0
C893 C 0.10395 0.75924 0.22753 0.0
C894 C 0.14867 0.77336 0.21159 0.0
C895 C 0.13778 0.75732 0.23485 0.0
H896 H 0.29034 0.38779 0.28639 0.0
H897 H 0.29321 0.32949 0.25389 0.0
H898 H 0.26604 0.32291 0.21351 0.0
H899 H 0.2432 0.33507 0.18565 0.0
H900 H 0.24031 0.3933 0.2181 0.0
H901 H 0.26516 0.3981 0.26091 0.0
C902 C 0.28507 0.37365 0.27044 0.0
C903 C 0.29414 0.35938 0.27288 0.0
C904 C 0.26921 0.36979 0.24752 0.0
C905 C 0.28668 0.34084 0.25243 0.0
C906 C 0.2711 0.33705 0.22936 0.0
C907 C 0.2478 0.34865 0.20233 0.0
C908 C 0.24002 0.36392 0.19855 0.0
C909 C 0.26246 0.35157 0.22648 0.0
C910 C 0.24588 0.38122 0.22057 0.0
C911 C 0.26033 0.38413 0.24484 0.0
H912 H 0.28595 0.37679 0.40377 0.0
H913 H 0.28776 0.31549 0.41924 0.0
H914 H 0.2588 0.30392 0.45869 0.0
H915 H 0.23456 0.31226 0.49068 0.0
H916 H 0.23243 0.37328 0.47516 0.0
H917 H 0.25955 0.38368 0.4332 0.0
C918 C 0.28005 0.36091 0.41581 0.0
C919 C 0.28929 0.3472 0.4089 0.0
C920 C 0.2632 0.35423 0.43819 0.0
C921 C 0.28107 0.32643 0.42424 0.0
C922 C 0.26449 0.31979 0.44678 0.0
C923 C 0.23986 0.3277 0.47782 0.0
C924 C 0.23164 0.34207 0.48604 0.0
C925 C 0.25564 0.33368 0.45415 0.0
C926 C 0.23841 0.36189 0.46909 0.0
C927 C 0.25408 0.36794 0.44535 0.0
H928 H 0.72655 0.9586 0.40184 0.0
H929 H 0.66147 0.94985 0.42276 0.0
H930 H 0.65476 0.92091 0.46034 0.0
H931 H 0.66809 0.89967 0.48937 0.0
H932 H 0.73341 0.90882 0.47023 0.0
H933 H 0.73895 0.93536 0.42902 0.0
C934 C 0.71091 0.95043 0.41466 0.0
C935 C 0.69466 0.95673 0.40965 0.0
C936 C 0.70706 0.93359 0.43621 0.0
C937 C 0.67435 0.94557 0.42618 0.0
C938 C 0.67045 0.92892 0.44764 0.0
C939 C 0.68342 0.90721 0.47582 0.0
C940 C 0.70037 0.90236 0.48292 0.0
C941 C 0.68675 0.92296 0.45303 0.0
C942 C 0.72003 0.9121 0.46507 0.0
C943 C 0.72331 0.92752 0.44181 0.0
H944 H 0.05616 0.73949 0.41812 0.0
H945 H 0.11257 0.73151 0.39524 0.0
H946 H 0.13682 0.76272 0.4296 0.0
H947 H 0.14161 0.79015 0.46938 0.0
H948 H 0.08526 0.79669 0.49633 0.0
H949 H 0.06164 0.76879 0.45679 0.0
C950 C 0.07377 0.74467 0.4206 0.0
C951 C 0.08234 0.73285 0.40438 0.0
C952 C 0.08777 0.7626 0.44094 0.0
C953 C 0.10529 0.7399 0.40779 0.0
C954 C 0.11931 0.75793 0.42731 0.0
C955 C 0.12436 0.78598 0.46588 0.0
C956 C 0.11525 0.79566 0.48525 0.0
C957 C 0.11069 0.76916 0.44432 0.0
C958 C 0.09267 0.78964 0.48125 0.0
C959 C 0.07913 0.77351 0.45893 0.0
H960 H 0.31058 0.06539 0.74065 0.0
H961 H 0.37179 0.06481 0.75678 0.0
H962 H 0.38281 0.09414 0.7967 0.0
H963 H 0.37397 0.11844 0.82865 0.0
H964 H 0.31298 0.11919 0.81176 0.0
H965 H 0.30317 0.09165 0.76983 0.0
C966 C 0.3263 0.07161 0.75299 0.0
C967 C 0.34016 0.06266 0.74623 0.0
C968 C 0.33265 0.08865 0.77545 0.0
C969 C 0.36076 0.07131 0.7618 0.0
C970 C 0.36706 0.08808 0.78455 0.0
C971 C 0.35866 0.11271 0.81552 0.0
C972 C 0.34415 0.12072 0.82329 0.0
C973 C 0.35302 0.09668 0.79176 0.0
C974 C 0.32449 0.11342 0.806 0.0
C975 C 0.31877 0.0975 0.78227 0.0
H976 H 0.91458 0.29319 0.73573 0.0
H977 H 0.97427 0.28916 0.74925 0.0
H978 H 0.95473 0.26001 0.78787 0.0
H979 H 0.92147 0.23682 0.81936 0.0
H980 H 0.86166 0.24054 0.80728 0.0
H981 H 0.8802 0.26813 0.76587 0.0
C982 C 0.92333 0.28599 0.74721 0.0
C983 C 0.946 0.2936 0.73974 0.0
C984 C 0.91189 0.26896 0.76935 0.0
C985 C 0.95691 0.28376 0.75453 0.0
C986 C 0.94573 0.26702 0.77661 0.0
C987 C 0.91241 0.24352 0.80742 0.0
C988 C 0.8903 0.2368 0.81642 0.0
C989 C 0.92332 0.25963 0.78432 0.0
C990 C 0.87864 0.24535 0.80059 0.0
C991 C 0.88934 0.2613 0.7772 0.0
H992 H 0.73112 0.62466 0.7369 0.0
H993 H 0.73035 0.68515 0.76429 0.0
H994 H 0.75501 0.69077 0.80745 0.0
H995 H 0.77618 0.67825 0.838 0.0
H996 H 0.77735 0.61797 0.81132 0.0
H997 H 0.7536 0.61283 0.76678 0.0
C998 C 0.73624 0.63901 0.75239 0.0
C999 C 0.72864 0.65434 0.74743 0.0
C1000 C 0.75069 0.64231 0.77707 0.0
C1001 C 0.7358 0.67304 0.76752 0.0
C1002 C 0.74996 0.6763 0.79221 0.0
C1003 C 0.77124 0.66397 0.8224 0.0
C1004 C 0.77833 0.64836 0.82811 0.0
C1005 C 0.75743 0.66102 0.79724 0.0
C1006 C 0.77219 0.63024 0.80738 0.0
C1007 C 0.75846 0.62721 0.78209 0.0
H1008 H 0.74758 0.64711 0.61475 0.0
H1009 H 0.74436 0.70785 0.60173 0.0
H1010 H 0.77358 0.72066 0.56226 0.0
H1011 H 0.79782 0.71298 0.52884 0.0
H1012 H 0.80083 0.6522 0.54227 0.0
H1013 H 0.7742 0.64121 0.58476 0.0
C1014 C 0.7533 0.6632 0.60334 0.0
C1015 C 0.74353 0.67633 0.61076 0.0
C1016 C 0.77012 0.67046 0.58091 0.0
C1017 C 0.75151 0.69738 0.5963 0.0
C1018 C 0.76817 0.70467 0.57372 0.0
C1019 C 0.79281 0.69746 0.54136 0.0
C1020 C 0.80114 0.68332 0.53235 0.0
C1021 C 0.77728 0.69113 0.56547 0.0
C1022 C 0.79478 0.66342 0.54891 0.0
C1023 C 0.77939 0.65704 0.57299 0.0
H1024 H 0.34563 0.08456 0.62409 0.0
H1025 H 0.29041 0.02327 0.58401 0.0
H1026 H 0.28759 0.04542 0.54274 0.0
H1027 H 0.30146 0.0819 0.517 0.0
H1028 H 0.35594 0.14374 0.55667 0.0
H1029 H 0.35796 0.12198 0.59963 0.0
C1030 C 0.33315 0.07614 0.60614 0.0
C1031 C 0.31847 0.05227 0.6068 0.0
C1032 C 0.33118 0.08914 0.58278 0.0
C1033 C 0.302 0.04158 0.58384 0.0
C1034 C 0.30029 0.05425 0.56033 0.0
C1035 C 0.31347 0.09065 0.53541 0.0
C1036 C 0.32846 0.11438 0.53378 0.0
C1037 C 0.31477 0.07799 0.55955 0.0
C1038 C 0.344 0.12554 0.55767 0.0
C1039 C 0.34536 0.11303 0.58198 0.0
H1040 H 0.94768 0.26731 0.61725 0.0
H1041 H 0.95246 0.32539 0.57195 0.0
H1042 H 0.92873 0.30085 0.53032 0.0
H1043 H 0.90625 0.26319 0.50712 0.0
H1044 H 0.90074 0.20434 0.55077 0.0
H1045 H 0.92436 0.22863 0.5934 0.0
C1046 C 0.94379 0.27453 0.59795 0.0
C1047 C 0.952 0.29815 0.5974 0.0
C1048 C 0.92957 0.26014 0.5743 0.0
C1049 C 0.94644 0.30729 0.57271 0.0
C1050 C 0.93275 0.29326 0.54903 0.0
C1051 C 0.91016 0.25565 0.52603 0.0
C1052 C 0.90191 0.23207 0.52577 0.0
C1053 C 0.92407 0.2697 0.54975 0.0
C1054 C 0.90679 0.22244 0.55061 0.0
C1055 C 0.92051 0.23638 0.57473 0.0
H1056 H 0.37358 0.27844 0.61521 0.0
H1057 H 0.31749 0.28714 0.59472 0.0
H1058 H 0.3052 0.25804 0.5541 0.0
H1059 H 0.31209 0.23209 0.52242 0.0
H1060 H 0.36882 0.22448 0.54315 0.0
H1061 H 0.37892 0.25095 0.58628 0.0
C1062 C 0.35865 0.27402 0.60186 0.0
C1063 C 0.34669 0.28523 0.60754 0.0
C1064 C 0.35175 0.2574 0.5788 0.0
C1065 C 0.32707 0.27887 0.59061 0.0
C1066 C 0.32007 0.26228 0.5674 0.0
C1067 C 0.32657 0.23614 0.53657 0.0
C1068 C 0.33976 0.22642 0.52956 0.0
C1069 C 0.33253 0.25172 0.561 0.0
C1070 C 0.35827 0.23153 0.54825 0.0
C1071 C 0.36419 0.24684 0.57272 0.0
H1072 H 0.74894 0.08298 0.61798 0.0
H1073 H 0.74593 0.02473 0.57386 0.0
H1074 H 0.77158 0.04919 0.53404 0.0
H1075 H 0.79421 0.08679 0.5111 0.0
H1076 H 0.79788 0.14561 0.55403 0.0
H1077 H 0.77347 0.12159 0.59569 0.0
C1078 C 0.7537 0.07571 0.59936 0.0
C1079 C 0.74525 0.05203 0.59847 0.0
C1080 C 0.76904 0.09005 0.57687 0.0
C1081 C 0.75202 0.04285 0.57477 0.0
C1082 C 0.76682 0.05684 0.55216 0.0
C1083 C 0.79 0.0944 0.52994 0.0
C1084 C 0.79787 0.11791 0.52964 0.0
C1085 C 0.77549 0.08043 0.55305 0.0
C1086 C 0.79229 0.12761 0.55405 0.0
C1087 C 0.77804 0.1138 0.57755 0.0
H1088 H 0.93751 0.67854 0.62689 0.0
H1089 H 1.00057 0.72387 0.58226 0.0
H1090 H 0.98036 0.72611 0.53792 0.0
H1091 H 0.94498 0.71603 0.51245 0.0
H1092 H 0.88145 0.67101 0.5564 0.0
H1093 H 0.90151 0.66851 0.60094 0.0
C1094 C 0.9467 0.68847 0.6071 0.0
C1095 C 0.97045 0.70058 0.60732 0.0
C1096 C 0.9349 0.69024 0.58204 0.0
C1097 C 0.98229 0.71407 0.58217 0.0
C1098 C 0.97075 0.71553 0.55701 0.0
C1099 C 0.93548 0.70564 0.53177 0.0
C1100 C 0.91171 0.69363 0.53097 0.0
C1101 C 0.94709 0.70389 0.55684 0.0
C1102 C 0.89972 0.68063 0.5565 0.0
C1103 C 0.9112 0.67895 0.5818 0.0
H1104 H 0.94515 0.70499 0.74341 0.0
H1105 H 0.95207 0.64643 0.75676 0.0
H1106 H 0.92256 0.6322 0.79589 0.0
H1107 H 0.89692 0.63802 0.82896 0.0
H1108 H 0.89022 0.69664 0.81551 0.0
H1109 H 0.91717 0.70898 0.77319 0.0
C1110 C 0.94018 0.68906 0.7548 0.0
C1111 C 0.9511 0.67697 0.7475 0.0
C1112 C 0.92316 0.68096 0.77711 0.0
C1113 C 0.94407 0.65613 0.76203 0.0
C1114 C 0.92721 0.64801 0.78443 0.0
C1115 C 0.90118 0.65335 0.81648 0.0
C1116 C 0.89171 0.6665 0.82548 0.0
C1117 C 0.91694 0.6605 0.79252 0.0
C1118 C 0.89713 0.68616 0.80891 0.0
C1119 C 0.91272 0.69333 0.78493 0.0
H1120 H 0.38659 0.28717 0.7386 0.0
H1121 H 0.32574 0.2884 0.75631 0.0
H1122 H 0.31499 0.25939 0.79563 0.0
H1123 H 0.32351 0.23476 0.82616 0.0
H1124 H 0.38473 0.23422 0.80933 0.0
H1125 H 0.39429 0.26134 0.76764 0.0
C1126 C 0.37099 0.28123 0.7511 0.0
C1127 C 0.35714 0.29029 0.74465 0.0
C1128 C 0.36483 0.26442 0.77351 0.0
C1129 C 0.33682 0.28195 0.76083 0.0
C1130 C 0.33063 0.26529 0.78328 0.0
C1131 C 0.33892 0.24049 0.81327 0.0
C1132 C 0.35349 0.23257 0.82108 0.0
C1133 C 0.34458 0.25653 0.78992 0.0
C1134 C 0.37314 0.23984 0.80373 0.0
C1135 C 0.37873 0.25558 0.78012 0.0
H1136 H 0.77134 0.06778 0.73153 0.0
H1137 H 0.70769 0.06304 0.74987 0.0
H1138 H 0.72551 0.09235 0.7899 0.0
H1139 H 0.75864 0.11747 0.82169 0.0
H1140 H 0.82222 0.12227 0.80318 0.0
H1141 H 0.80509 0.09514 0.76054 0.0
C1142 C 0.76135 0.07314 0.74433 0.0
C1143 C 0.73815 0.06299 0.73816 0.0
C1144 C 0.77174 0.09012 0.76699 0.0
C1145 C 0.72554 0.07049 0.75437 0.0
C1146 C 0.73572 0.08724 0.77722 0.0
C1147 C 0.76876 0.11274 0.80802 0.0
C1148 C 0.79158 0.12168 0.81556 0.0
C1149 C 0.75872 0.09693 0.78396 0.0
C1150 C 0.80466 0.11571 0.7976 0.0
C1151 C 0.79481 0.10003 0.77348 0.0
H1152 H 0.08679 0.38429 0.02205 0.0
H1153 H 0.03819 0.31966 0.06176 0.0
H1154 H 0.06838 0.31714 0.08599 0.0
H1155 H 0.10791 0.33534 0.10157 0.0
H1156 H 0.15683 0.401 0.06581 0.0
H1157 H 0.12764 0.40079 0.0337 0.0
C1158 C 0.08287 0.36954 0.03567 0.0
C1159 C 0.06012 0.35234 0.04034 0.0
C1160 C 0.1005 0.3683 0.05012 0.0
C1161 C 0.05542 0.33332 0.05804 0.0
C1162 C 0.07273 0.33179 0.07187 0.0
C1163 C 0.11232 0.34915 0.08574 0.0
C1164 C 0.13455 0.36796 0.0856 0.0
C1165 C 0.09524 0.3494 0.06874 0.0
C1166 C 0.13997 0.38609 0.06574 0.0
C1167 C 0.12315 0.38613 0.04783 0.0
H1168 H 0.70658 0.7366 0.04871 0.0
H1169 H 0.63866 0.70845 0.01519 0.0
H1170 H 0.63773 0.7413 0.03533 0.0
H1171 H 0.65436 0.7755 0.06874 0.0
H1172 H 0.72251 0.80436 0.10109 0.0
H1173 H 0.72563 0.77456 0.07416 0.0
C1174 C 0.69169 0.73781 0.04559 0.0
C1175 C 0.67253 0.71978 0.03115 0.0
C1176 C 0.69144 0.75715 0.05663 0.0
C1177 C 0.65353 0.72184 0.02662 0.0
C1178 C 0.653 0.74073 0.03805 0.0
C1179 C 0.67025 0.7759 0.06852 0.0
C1180 C 0.68827 0.79224 0.08653 0.0
C1181 C 0.67164 0.75824 0.05376 0.0
C1182 C 0.70859 0.79222 0.08682 0.0
C1183 C 0.7102 0.77488 0.07196 0.0
H1184 H 0.28842 0.97013 0.03581 0.0
H1185 H 0.32738 0.93803 0.02093 0.0
H1186 H 0.29724 0.9026 0.04287 0.0
H1187 H 0.26167 0.88238 0.07245 0.0
H1188 H 0.22131 0.91325 0.08331 0.0
H1189 H 0.24944 0.94699 0.05571 0.0
C1190 C 0.29015 0.95527 0.03712 0.0
C1191 C 0.31041 0.95694 0.02768 0.0
C1192 C 0.27226 0.93454 0.04858 0.0
C1193 C 0.31221 0.9374 0.02867 0.0
C1194 C 0.29488 0.91703 0.04107 0.0
C1195 C 0.25852 0.89598 0.0673 0.0
C1196 C 0.23927 0.89517 0.0795 0.0
C1197 C 0.27501 0.91554 0.05176 0.0
C1198 C 0.23571 0.91324 0.07347 0.0
C1199 C 0.25206 0.93277 0.05827 0.0
H1200 H 0.33125 0.05327 0.98549 0.0
H1201 H 0.40335 0.08364 0.98084 0.0
H1202 H 0.40714 0.11798 0.95782 0.0
H1203 H 0.38915 0.13691 0.93246 0.0
H1204 H 0.31735 0.10748 0.93986 0.0
H1205 H 0.31421 0.0757 0.96921 0.0
C1206 C 0.3478 0.06761 0.97993 0.0
C1207 C 0.36699 0.06586 0.98446 0.0
C1208 C 0.34988 0.08757 0.96742 0.0
C1209 C 0.38836 0.08462 0.97751 0.0
C1210 C 0.39052 0.10423 0.96429 0.0
C1211 C 0.37302 0.12413 0.94187 0.0
C1212 C 0.35355 0.12476 0.93444 0.0
C1213 C 0.37134 0.10568 0.95841 0.0
C1214 C 0.33262 0.10769 0.94595 0.0
C1215 C 0.33078 0.08927 0.96223 0.0
H1216 H 0.97716 0.28515 0.96421 0.0
H1217 H 0.93814 0.31503 0.99254 0.0
H1218 H 0.90393 0.28221 0.97183 0.0
H1219 H 0.88596 0.24715 0.94042 0.0
H1220 H 0.92459 0.2171 0.91176 0.0
H1221 H 0.95778 0.24712 0.93891 0.0
C1222 C 0.96113 0.28438 0.96584 0.0
C1223 C 0.96024 0.30269 0.97928 0.0
C1224 C 0.94135 0.26515 0.95441 0.0
C1225 C 0.93931 0.30128 0.98198 0.0
C1226 C 0.9197 0.28245 0.97028 0.0
C1227 C 0.90135 0.2466 0.94149 0.0
C1228 C 0.90278 0.22977 0.92471 0.0
C1229 C 0.92056 0.26446 0.95601 0.0
C1230 C 0.923 0.22959 0.92527 0.0
C1231 C 0.9421 0.24704 0.94019 0.0
H1232 H 0.73598 0.69084 0.9776 0.0
H1233 H 0.69546 0.61911 -0.0024 0.0
H1234 H 0.72535 0.61318 0.97819 0.0
H1235 H 0.76089 0.62769 0.94911 0.0
H1236 H 0.80186 0.69952 0.9307 0.0
H1237 H 0.7745 0.70636 0.95688 0.0
C1238 C 0.73385 0.67397 0.97801 0.0
C1239 C 0.71337 0.65534 0.98846 0.0
C1240 C 0.75137 0.6708 0.96748 0.0
C1241 C 0.71099 0.63367 0.98945 0.0
C1242 C 0.7281 0.63029 0.97838 0.0
C1243 C 0.76434 0.64497 0.95229 0.0
C1244 C 0.7836 0.66315 0.93851 0.0
C1245 C 0.74816 0.64863 0.96667 0.0
C1246 C 0.78751 0.68538 0.94184 0.0
C1247 C 0.7716 0.68919 0.95624 0.0
H1248 H 0.93546 0.62989 0.99205 0.0
H1249 H 0.98461 0.69989 0.97066 0.0
H1250 H 0.95521 0.70498 0.94892 0.0
H1251 H 0.91674 0.6886 0.93001 0.0
H1252 H 0.8676 0.61791 0.94575 0.0
H1253 H 0.89524 0.61416 0.97645 0.0
C1254 C 0.9396 0.64631 0.98301 0.0
C1255 C 0.96233 0.66443 0.98274 0.0
C1256 C 0.92249 0.64902 0.96965 0.0
C1257 C 0.9674 0.68557 0.97083 0.0
C1258 C 0.95054 0.68855 0.95847 0.0
C1259 C 0.91186 0.67259 0.94114 0.0
C1260 C 0.89008 0.65365 0.93598 0.0
C1261 C 0.92818 0.67029 0.95704 0.0
C1262 C 0.88408 0.63285 0.94992 0.0
C1263 C 0.90006 0.63064 0.96699 0.0
H1264 H 0.31669 0.28094 0.96896 0.0
H1265 H 0.38695 0.31324 0.99374 0.0
H1266 H 0.38819 0.28033 0.9742 0.0
H1267 H 0.37051 0.24453 0.94426 0.0
H1268 H 0.30047 0.21218 0.91916 0.0
H1269 H 0.29753 0.24224 0.94578 0.0
C1270 C 0.33221 0.28067 0.97014 0.0
C1271 C 0.35182 0.29968 0.98213 0.0
C1272 C 0.33269 0.26143 0.95938 0.0
C1273 C 0.37169 0.29893 0.98426 0.0
C1274 C 0.3724 0.28006 0.97322 0.0
C1275 C 0.35436 0.24351 0.94605 0.0
C1276 C 0.33564 0.22603 0.93031 0.0
C1277 C 0.35312 0.26139 0.96021 0.0
C1278 C 0.31493 0.2252 0.93182 0.0
C1279 C 0.31341 0.24267 0.94642 0.0
H1280 H 0.73633 0.05098 0.97799 0.0
H1281 H 0.69224 0.07788 0.97209 0.0
H1282 H 0.72225 0.11256 0.94825 0.0
H1283 H 0.75991 0.13339 0.92406 0.0
H1284 H 0.80482 0.10773 0.93271 0.0
H1285 H 0.77616 0.07498 0.96152 0.0
C1286 C 0.73342 0.06454 0.97159 0.0
C1287 C 0.71195 0.06166 0.97601 0.0
C1288 C 0.75109 0.08486 0.95892 0.0
C1289 C 0.70849 0.07954 0.96844 0.0
C1290 C 0.72571 0.09944 0.95494 0.0
C1291 C 0.76375 0.12119 0.93359 0.0
C1292 C 0.7846 0.12318 0.92681 0.0
C1293 C 0.74698 0.10215 0.94961 0.0
C1294 C 0.78914 0.10687 0.93838 0.0
C1295 C 0.77256 0.08789 0.9543 0.0
H1296 H 0.63723 0.93254 0.02704 0.0
H1297 H 0.70462 0.98716 0.04938 0.0
H1298 H 0.71314 0.96004 0.0717 0.0
H1299 H 0.70046 0.92191 0.09059 0.0
H1300 H 0.6323 0.86726 0.07435 0.0
H1301 H 0.62527 0.89274 0.04317 0.0
C1302 C 0.65382 0.93839 0.03648 0.0
C1303 C 0.67019 0.962 0.03676 0.0
C1304 C 0.65854 0.92257 0.05022 0.0
C1305 C 0.69159 0.96924 0.04919 0.0
C1306 C 0.69655 0.95369 0.06186 0.0
C1307 C 0.68431 0.91536 0.07926 0.0
C1308 C 0.66705 0.89262 0.08441 0.0
C1309 C 0.68005 0.93045 0.06318 0.0
C1310 C 0.64602 0.88451 0.0702 0.0
C1311 C 0.64191 0.89926 0.05286 0.0
H1312 H 0.04747 0.73153 0.05255 0.0
H1313 H 0.08421 0.69865 0.02681 0.0
H1314 H 0.11931 0.73166 0.04504 0.0
H1315 H 0.13884 0.76806 0.07345 0.0
H1316 H 0.10256 0.80118 0.09954 0.0
H1317 H 0.06835 0.77062 0.07487 0.0
C1318 C 0.06319 0.73167 0.05098 0.0
C1319 C 0.06318 0.71249 0.03896 0.0
C1320 C 0.08352 0.75103 0.06091 0.0
C1321 C 0.08373 0.71309 0.0363 0.0
C1322 C 0.10386 0.73203 0.04656 0.0
C1323 C 0.12373 0.76912 0.07229 0.0
C1324 C 0.1233 0.78704 0.08766 0.0
C1325 C 0.10392 0.75096 0.05929 0.0
C1326 C 0.10342 0.78787 0.08705 0.0
C1327 C 0.08373 0.7701 0.07359 0.0
H1328 H 0.30811 0.38175 0.02453 0.0
H1329 H 0.28914 0.31494 0.05768 0.0
H1330 H 0.25538 0.31113 0.08099 0.0
H1331 H 0.234 0.32854 0.09789 0.0
H1332 H 0.25428 0.3967 0.07029 0.0
H1333 H 0.28405 0.39796 0.03791 0.0
C1334 C 0.2964 0.36627 0.03652 0.0
C1335 C 0.30133 0.34877 0.03969 0.0
C1336 C 0.2771 0.36438 0.05067 0.0
C1337 C 0.28599 0.32881 0.05529 0.0
C1338 C 0.26657 0.32655 0.06852 0.0
C1339 C 0.24444 0.34335 0.08387 0.0
C1340 C 0.2419 0.36243 0.08627 0.0
C1341 C 0.26229 0.34443 0.06708 0.0
C1342 C 0.25569 0.38167 0.06841 0.0
C1343 C 0.27298 0.38252 0.05038 0.0
H1344 H 0.76024 0.71961 0.3617 0.0
H1345 H 0.70984 0.65014 0.38367 0.0
H1346 H 0.73842 0.64471 0.40748 0.0
H1347 H 0.77645 0.66073 0.42788 0.0
H1348 H 0.82683 0.73089 0.41123 0.0
H1349 H 0.80006 0.73489 0.37886 0.0
C1350 C 0.75565 0.70322 0.37131 0.0
C1351 C 0.7328 0.68537 0.37112 0.0
C1352 C 0.77227 0.70031 0.38585 0.0
C1353 C 0.72715 0.66426 0.3838 0.0
C1354 C 0.74353 0.66108 0.39736 0.0
C1355 C 0.78179 0.67667 0.41624 0.0
C1356 C 0.80367 0.69538 0.42157 0.0
C1357 C 0.76598 0.67911 0.39924 0.0
C1358 C 0.81026 0.7161 0.40695 0.0
C1359 C 0.79478 0.71846 0.38889 0.0
H1360 H 0.31943 0.05196 0.3545 0.0
H1361 H 0.37249 0.05265 0.40704 0.0
H1362 H 0.38024 0.08783 0.43277 0.0
H1363 H 0.3692 0.11571 0.44458 0.0
H1364 H 0.31348 0.11293 0.39689 0.0
H1365 H 0.31028 0.08214 0.36378 0.0
C1366 C 0.33276 0.0599 0.37147 0.0
C1367 C 0.34516 0.04951 0.37917 0.0
C1368 C 0.33689 0.08 0.38662 0.0
C1369 C 0.36248 0.06008 0.40102 0.0
C1370 C 0.36704 0.0803 0.4156 0.0
C1371 C 0.35679 0.10879 0.42628 0.0
C1372 C 0.34152 0.11646 0.42322 0.0
C1373 C 0.35404 0.09011 0.40905 0.0
C1374 C 0.32555 0.10746 0.39948 0.0
C1375 C 0.32345 0.08954 0.38101 0.0
H1376 H 0.95553 0.30539 0.37192 0.0
H1377 H 0.98944 0.26827 0.35517 0.0
H1378 H 0.95771 0.23391 0.37671 0.0
H1379 H 0.92217 0.21572 0.40635 0.0
H1380 H 0.88674 0.25161 0.41939 0.0
H1381 H 0.91646 0.2846 0.39224 0.0
C1382 C 0.95583 0.2897 0.37278 0.0
C1383 C 0.97518 0.28965 0.36282 0.0
C1384 C 0.93698 0.26957 0.38408 0.0
C1385 C 0.97506 0.26902 0.36326 0.0
C1386 C 0.95679 0.24924 0.37544 0.0
C1387 C 0.92041 0.23029 0.40177 0.0
C1388 C 0.90209 0.23106 0.41444 0.0
C1389 C 0.93783 0.24941 0.38654 0.0
C1390 C 0.90038 0.25038 0.40916 0.0
C1391 C 0.91765 0.26947 0.39423 0.0
H1392 H 1.00452 0.38789 0.31887 0.0
H1393 H 0.076 0.41385 0.31803 0.0
H1394 H 0.08307 0.45019 0.29762 0.0
H1395 H 0.06828 0.47246 0.2734 0.0
H1396 H 0.99707 0.44739 0.27671 0.0
H1397 H 0.99055 0.41339 0.30382 0.0
C1398 C 0.02164 0.40166 0.31458 0.0
C1399 C 0.03971 0.39808 0.31942 0.0
C1400 C 0.02562 0.42282 0.30366 0.0
C1401 C 0.06183 0.41616 0.31431 0.0
C1402 C 0.06587 0.43696 0.30265 0.0
C1403 C 0.05152 0.46013 0.28155 0.0
C1404 C 0.03322 0.46267 0.27342 0.0
C1405 C 0.04786 0.44031 0.29656 0.0
C1406 C 1.01149 0.44618 0.28334 0.0
C1407 C 1.0077 0.42644 0.29824 0.0
H1408 H 0.64697 0.61902 0.2998 0.0
H1409 H 0.61227 0.65418 0.32469 0.0
H1410 H 0.57672 0.62203 0.30614 0.0
H1411 H 0.55639 0.58591 0.27736 0.0
H1412 H 0.59058 0.55054 0.25185 0.0
H1413 H 0.62504 0.58001 0.27734 0.0
C1414 C 0.63159 0.61955 0.30113 0.0
C1415 C 0.63233 0.63915 0.31298 0.0
C1416 C 0.61098 0.60068 0.29097 0.0
C1417 C 0.6122 0.63942 0.31534 0.0
C1418 C 0.59181 0.62097 0.30489 0.0
C1419 C 0.57105 0.5841 0.27884 0.0
C1420 C 0.57088 0.56592 0.26332 0.0
C1421 C 0.59104 0.60166 0.29223 0.0
C1422 C 0.59019 0.56408 0.26441 0.0
C1423 C 0.61004 0.58124 0.27832 0.0
H1424 H 0.37288 0.95986 0.31599 0.0
H1425 H 0.39959 0.03187 0.30301 0.0
H1426 H 0.43405 0.03627 0.28171 0.0
H1427 H 0.45453 0.01919 0.26024 0.0
H1428 H 0.42748 0.94698 0.26778 0.0
H1429 H 0.39588 0.94317 0.29851 0.0
C1430 C 0.38639 0.9765 0.30882 0.0
C1431 C 0.38343 0.99542 0.31066 0.0
C1432 C 0.40628 0.97893 0.29579 0.0
C1433 C 0.40115 0.01691 0.30135 0.0
C1434 C 0.421 0.01953 0.2893 0.0
C1435 C 0.44219 1.00279 0.26975 0.0
C1436 C 0.44348 0.98348 0.26226 0.0
C1437 C 0.42351 1.0006 0.28563 0.0
C1438 C 0.4271 0.96218 0.2739 0.0
C1439 C 0.4088 0.95996 0.29095 0.0
H1440 H 0.62832 0.01862 0.31455 0.0
H1441 H 0.60098 0.94616 0.32171 0.0
H1442 H 0.56556 0.93858 0.29865 0.0
H1443 H 0.54432 0.95263 0.27038 0.0
H1444 H 0.57095 0.02493 0.26471 0.0
H1445 H 0.60424 0.03256 0.29414 0.0
C1446 C 0.61449 1.00119 0.31135 0.0
C1447 C 0.6174 0.98296 0.31932 0.0
C1448 C 0.59391 0.99695 0.29868 0.0
C1449 C 0.59921 0.96048 0.31559 0.0
C1450 C 0.57893 0.95613 0.30241 0.0
C1451 C 0.55691 0.96999 0.27692 0.0
C1452 C 0.555 0.98819 0.26585 0.0
C1453 C 0.57626 0.97422 0.29323 0.0
C1454 C 0.57176 0.01065 0.27366 0.0
C1455 C 0.59103 0.01501 0.28995 0.0
H1456 H 0.04057 0.63203 0.33136 0.0
H1457 H 0.98406 0.6271 0.28257 0.0
H1458 H 0.97678 0.59171 0.25806 0.0
H1459 H 0.98913 0.56493 0.24565 0.0
H1460 H 0.04788 0.57166 0.28966 0.0
H1461 H 0.05096 0.60272 0.32204 0.0
C1462 C 0.02655 0.62308 0.31557 0.0
C1463 C 1.01307 0.6324 0.30848 0.0
C1464 C 0.02269 0.60285 0.30102 0.0
C1465 C 0.9949 0.62052 0.28811 0.0
C1466 C 0.99063 0.60019 0.2742 0.0
C1467 C 1.0022 0.57277 0.26302 0.0
C1468 C 0.01832 0.56611 0.26517 0.0
C1469 C 1.00473 0.59152 0.2799 0.0
C1470 C 0.03515 0.57632 0.28774 0.0
C1471 C 0.03716 0.59439 0.30582 0.0
H1472 H 0.38421 0.41427 0.32458 0.0
H1473 H 0.39342 0.36184 0.28384 0.0
H1474 H 0.42856 0.39084 0.26053 0.0
H1475 H 0.45448 0.43054 0.24705 0.0
H1476 H 0.44369 0.48335 0.28161 0.0
H1477 H 0.41215 0.45515 0.31303 0.0
C1478 C 0.39404 0.40926 0.31079 0.0
C1479 C 0.38603 0.38583 0.30577 0.0
C1480 C 0.41416 0.42619 0.29666 0.0
C1481 C 0.39897 0.37965 0.2878 0.0
C1482 C 0.41918 0.39625 0.27459 0.0
C1483 C 0.44566 0.43599 0.26226 0.0
C1484 C 0.45154 0.45904 0.26221 0.0
C1485 C 0.42669 0.4195 0.27835 0.0
C1486 C 0.43979 0.46583 0.28164 0.0
C1487 C 0.42146 0.44959 0.29912 0.0
H1488 H 0.35817 0.29492 0.36498 0.0
H1489 H 0.28684 0.26919 0.37109 0.0
H1490 H 0.2809 0.23441 0.39544 0.0
H1491 H 0.29684 0.21354 0.42067 0.0
H1492 H 0.36774 0.23816 0.41206 0.0
H1493 H 0.37297 0.27061 0.38217 0.0
C1494 C 0.34132 0.28154 0.37135 0.0
C1495 C 0.323 0.28477 0.36673 0.0
C1496 C 0.33794 0.26123 0.38455 0.0
C1497 C 0.3012 0.26715 0.37457 0.0
C1498 C 0.2978 0.24725 0.38848 0.0
C1499 C 0.31319 0.22541 0.41093 0.0
C1500 C 0.33181 0.22319 0.41808 0.0
C1501 C 0.3161 0.24428 0.39417 0.0
C1502 C 0.35306 0.23913 0.40616 0.0
C1503 C 0.35612 0.25797 0.38959 0.0
H1504 H 0.74491 0.05186 0.35579 0.0
H1505 H 0.69194 0.05401 0.40539 0.0
H1506 H 0.71949 0.09062 0.42825 0.0
H1507 H 0.75872 0.11949 0.43919 0.0
H1508 H 0.81242 0.11559 0.39517 0.0
H1509 H 0.78473 0.08312 0.3639 0.0
C1510 C 0.73943 0.06046 0.37142 0.0
C1511 C 0.71637 0.05001 0.37917 0.0
C1512 C 0.75554 0.08146 0.38512 0.0
C1513 C 0.70955 0.06143 0.39937 0.0
C1514 C 0.7253 0.08249 0.41231 0.0
C1515 C 0.76436 0.11202 0.42191 0.0
C1516 C 0.78757 0.11995 0.41945 0.0
C1517 C 0.74834 0.09238 0.40591 0.0
C1518 C 0.7947 0.11003 0.39722 0.0
C1519 C 0.77881 0.09113 0.37984 0.0
H1520 H 0.95721 0.65991 0.37552 0.0
H1521 H 0.99793 0.73293 0.36568 0.0
H1522 H 0.96726 0.73709 0.38635 0.0
H1523 H 0.93078 0.72019 0.41337 0.0
H1524 H 0.88991 0.64725 0.42252 0.0
H1525 H 0.91818 0.64263 0.39485 0.0
C1526 C 0.95926 0.6767 0.37774 0.0
C1527 C 0.97995 0.69614 0.36977 0.0
C1528 C 0.94135 0.6789 0.389 0.0
C1529 C 0.98224 0.71775 0.37201 0.0
C1530 C 0.96468 0.72012 0.38373 0.0
C1531 C 0.9276 0.70326 0.40786 0.0
C1532 C 0.90812 0.68405 0.41941 0.0
C1533 C 0.94434 0.70086 0.39291 0.0
C1534 C 0.90448 0.66221 0.4131 0.0
C1535 C 0.92089 0.65963 0.39789 0.0
H1536 H 0.39243 0.99776 0.69939 0.0
H1537 H 0.42109 0.07046 0.69297 0.0
H1538 H 0.45615 0.07714 0.71634 0.0
H1539 H 0.47677 0.06217 0.74448 0.0
H1540 H 0.44867 0.98957 0.74917 0.0
H1541 H 0.41561 0.9829 0.71997 0.0
C1542 C 0.40649 0.01505 0.70273 0.0
C1543 C 0.40404 0.0336 0.69485 0.0
C1544 C 0.42678 0.01875 0.7157 0.0
C1545 C 0.42251 0.0559 0.6989 0.0
C1546 C 0.44256 0.05972 0.71233 0.0
C1547 C 0.46383 0.04495 0.73791 0.0
C1548 C 0.46532 0.02637 0.74847 0.0
C1549 C 0.4447 0.04129 0.72149 0.0
C1550 C 0.44816 1.00411 0.74063 0.0
C1551 C 0.42908 1.00031 0.72437 0.0
H1552 H 0.98803 0.38798 0.68451 0.0
H1553 H 0.04133 0.38971 0.7377 0.0
H1554 H 0.04757 0.42405 0.76442 0.0
H1555 H 0.03507 0.45076 0.77679 0.0
H1556 H 0.97916 0.44682 0.72799 0.0
H1557 H 0.97752 0.41707 0.69426 0.0
C1558 C 1.00112 0.39599 0.70179 0.0
C1559 C 0.014 0.38609 0.70941 0.0
C1560 C 1.00435 0.41556 0.71751 0.0
C1561 C 0.03099 0.39676 0.7317 0.0
C1562 C 0.03465 0.41649 0.74687 0.0
C1563 C 0.0229 0.44378 0.75822 0.0
C1564 C 1.00712 0.45082 0.75505 0.0
C1565 C 0.02109 0.42569 0.74046 0.0
C1566 C 0.99158 0.44182 0.7308 0.0
C1567 C 0.99038 0.4245 0.7119 0.0
H1568 H 0.62666 0.64346 0.72372 0.0
H1569 H 0.65323 0.60379 0.68507 0.0
H1570 H 0.62169 0.569 0.70599 0.0
H1571 H 0.58897 0.55047 0.74056 0.0
H1572 H 0.56164 0.58949 0.77842 0.0
H1573 H 0.59034 0.62359 0.75178 0.0
C1574 C 0.6254 0.62716 0.71971 0.0
C1575 C 0.64256 0.62634 0.70337 0.0
C1576 C 0.60682 0.60698 0.73132 0.0
C1577 C 0.64046 0.60502 0.69782 0.0
C1578 C 0.62234 0.58503 0.70973 0.0
C1579 C 0.58869 0.56619 0.74172 0.0
C1580 C 0.57297 0.56739 0.76088 0.0
C1581 C 0.60566 0.58585 0.72703 0.0
C1582 C 0.5732 0.58804 0.7631 0.0
C1583 C 0.58991 0.60764 0.74836 0.0
H1584 H 0.67125 0.72379 0.65003 0.0
H1585 H 0.74253 0.75008 0.65933 0.0
H1586 H 0.75098 0.78638 0.63723 0.0
H1587 H 0.73798 0.80858 0.60883 0.0
H1588 H 0.66686 0.78328 0.60185 0.0
H1589 H 0.6584 0.74917 0.6304 0.0
C1590 C 0.6886 0.73762 0.64755 0.0
C1591 C 0.70627 0.73415 0.65579 0.0
C1592 C 0.69334 0.75875 0.63557 0.0
C1593 C 0.72866 0.75231 0.653 0.0
C1594 C 0.7335 0.77308 0.64037 0.0
C1595 C 0.72072 0.79613 0.61497 0.0
C1596 C 0.70308 0.79861 0.60362 0.0
C1597 C 0.71599 0.77632 0.6309 0.0
C1598 C 0.68073 0.78204 0.61097 0.0
C1599 C 0.67588 0.76228 0.62674 0.0
H1600 H 0.28993 0.94674 0.66507 0.0
H1601 H 0.30882 0.99686 0.59436 0.0
H1602 H 0.27633 0.96976 0.56367 0.0
H1603 H 0.24459 0.93147 0.55515 0.0
H1604 H 0.2292 0.87841 0.62009 0.0
H1605 H 0.2574 0.90702 0.65567 0.0
C1606 C 0.2868 0.95156 0.64292 0.0
C1607 C 0.30167 0.97366 0.63178 0.0
C1608 C 0.26858 0.93543 0.62468 0.0
C1609 C 0.29765 0.97988 0.60314 0.0
C1610 C 0.27904 0.96445 0.58572 0.0
C1611 C 0.24732 0.92609 0.57716 0.0
C1612 C 0.23512 0.90276 0.58471 0.0
C1613 C 0.26467 0.94213 0.59604 0.0
C1614 C 0.23836 0.89622 0.61369 0.0
C1615 C 0.25473 0.91255 0.63378 0.0
H1616 H 0.07126 0.36049 0.63816 0.0
H1617 H 0.02996 0.28744 0.64737 0.0
H1618 H 0.06068 0.28307 0.62764 0.0
H1619 H 0.09755 0.29975 0.60186 0.0
H1620 H 0.13908 0.37266 0.59308 0.0
H1621 H 0.11055 0.37753 0.61963 0.0
C1622 C 0.06908 0.34365 0.63598 0.0
C1623 C 0.0482 0.32426 0.64357 0.0
C1624 C 0.08704 0.3413 0.62521 0.0
C1625 C 0.04577 0.30259 0.64135 0.0
C1626 C 0.06336 0.30008 0.63016 0.0
C1627 C 0.10079 0.31672 0.60719 0.0
C1628 C 0.12057 0.33585 0.5961 0.0
C1629 C 0.08392 0.31927 0.62146 0.0
C1630 C 0.12428 0.35775 0.60216 0.0
C1631 C 0.10772 0.36048 0.61673 0.0
H1632 H 0.27114 0.30445 0.65605 0.0
H1633 H 0.32244 0.37347 0.63351 0.0
H1634 H 0.29418 0.37963 0.61018 0.0
H1635 H 0.25609 0.36437 0.59049 0.0
H1636 H 0.20485 0.29452 0.6072 0.0
H1637 H 0.23136 0.28989 0.63929 0.0
C1638 C 0.27601 0.32089 0.64636 0.0
C1639 C 0.299 0.33841 0.6463 0.0
C1640 C 0.25957 0.32422 0.63208 0.0
C1641 C 0.30501 0.35959 0.63356 0.0
C1642 C 0.28881 0.3632 0.62029 0.0
C1643 C 0.25051 0.34836 0.60207 0.0
C1644 C 0.22847 0.3299 0.59678 0.0
C1645 C 0.26619 0.34551 0.61875 0.0
C1646 C 0.22156 0.30911 0.6114 0.0
C1647 C 0.23689 0.30639 0.62928 0.0
H1648 H 0.70771 0.96633 0.65858 0.0
H1649 H 0.65021 0.95814 0.6087 0.0
H1650 H 0.64443 0.923 0.5853 0.0
H1651 H 0.65852 0.89763 0.57379 0.0
H1652 H 0.71852 0.90788 0.61826 0.0
H1653 H 0.71988 0.93831 0.65025 0.0
C1654 C 0.69381 0.9567 0.64281 0.0
C1655 C 0.67961 0.96501 0.63501 0.0
C1656 C 0.69087 0.93668 0.62882 0.0
C1657 C 0.6616 0.95233 0.61468 0.0
C1658 C 0.65817 0.93214 0.60144 0.0
C1659 C 0.67146 0.90606 0.59123 0.0
C1660 C 0.68846 0.90068 0.59362 0.0
C1661 C 0.67304 0.92451 0.60771 0.0
C1662 C 0.70516 0.91162 0.61621 0.0
C1663 C 0.70617 0.92932 0.63404 0.0
H1664 H 0.0712 0.715 0.63974 0.0
H1665 H 0.03849 0.75208 0.66487 0.0
H1666 H 0.06892 0.78651 0.64123 0.0
H1667 H 0.10257 0.80475 0.60795 0.0
H1668 H 0.1363 0.76846 0.58482 0.0
H1669 H 0.10838 0.73544 0.61397 0.0
C1670 C 0.07088 0.7307 0.64025 0.0
C1671 C 0.05233 0.73082 0.65343 0.0
C1672 C 0.08885 0.75071 0.62734 0.0
C1673 C 0.05239 0.75141 0.65455 0.0
C1674 C 0.06985 0.77116 0.64109 0.0
C1675 C 0.10437 0.79001 0.61059 0.0
C1676 C 0.1217 0.78918 0.59477 0.0
C1677 C 0.08794 0.77091 0.62687 0.0
C1678 C 0.12347 0.76971 0.5975 0.0
C1679 C 0.10723 0.75065 0.61366 0.0
H1680 H 0.96749 0.60062 0.69249 0.0
H1681 H 0.03617 0.64829 0.71991 0.0
H1682 H 0.03983 0.61717 0.73949 0.0
H1683 H 0.02227 0.57749 0.75536 0.0
H1684 H 0.95245 0.53 0.73471 0.0
H1685 H 0.95063 0.55934 0.70501 0.0
C1686 C 0.98332 0.60409 0.70238 0.0
C1687 C 1.00148 0.62689 0.70497 0.0
C1688 C 0.98515 0.58596 0.71456 0.0
C1689 C 0.02183 0.63104 0.71797 0.0
C1690 C 0.024 0.6132 0.72906 0.0
C1691 C 1.00696 0.57328 0.7431 0.0
C1692 C 0.98769 0.55141 0.74659 0.0
C1693 C 1.00564 0.5907 0.72821 0.0
C1694 C 0.96769 0.54644 0.73162 0.0
C1695 C 0.96655 0.56343 0.71523 0.0
H1696 H 0.38517 0.40583 0.71294 0.0
H1697 H 0.41674 0.36571 0.70479 0.0
H1698 H 0.45158 0.39698 0.72687 0.0
H1699 H 0.4716 0.43419 0.7537 0.0
H1700 H 0.44054 0.47472 0.76098 0.0
H1701 H 0.40744 0.44547 0.73293 0.0
C1702 C 0.39974 0.40405 0.71599 0.0
C1703 C 0.39829 0.38337 0.70792 0.0
C1704 C 0.41998 0.42239 0.72793 0.0
C1705 C 0.4174 0.38139 0.71117 0.0
C1706 C 0.43737 0.39931 0.72366 0.0
C1707 C 0.45804 0.43704 0.74774 0.0
C1708 C 0.45864 0.45672 0.75878 0.0
C1709 C 0.43876 0.41977 0.73255 0.0
C1710 C 0.44066 0.45996 0.75193 0.0
C1711 C 0.42153 0.443 0.7365 0.0
H1712 H 0.6488 0.05534 0.68954 0.0
H1713 H 0.62068 0.98258 0.69464 0.0
H1714 H 0.58546 0.97742 0.71437 0.0
H1715 H 0.56501 0.99382 0.738 0.0
H1716 H 0.59369 0.06655 0.739 0.0
H1717 H 0.62569 0.07155 0.7082 0.0
C1718 C 0.63478 0.03838 0.69448 0.0
C1719 C 0.63748 0.0194 0.69107 0.0
C1720 C 0.61454 0.03554 0.70682 0.0
C1721 C 0.61919 0.99751 0.69759 0.0
C1722 C 0.59896 0.9945 0.70874 0.0
C1723 C 0.57778 0.01065 0.73023 0.0
C1724 C 0.57691 0.02974 0.74037 0.0
C1725 C 0.59672 0.01341 0.71445 0.0
C1726 C 0.59379 0.05157 0.7309 0.0
C1727 C 0.61232 0.05443 0.71383 0.0
loop_
_geom_bond_atom_site_label_1
_geom_bond_atom_site_label_2
_geom_bond_distance
_geom_bond_site_symmetry_2
_ccdc_geom_bond_type
Co0 O1 2.216 . S
Co0 O2 2.091 . S
Co0 O4 2.004 1_554 S
Co0 O10 2.021 . S
Co0 O12 2.137 1_454 S
Co0 O13 2.244 1_455 S
O1 Co0 2.216 . S
O1 C8 1.247 . S
O2 Co0 2.091 . S
O2 C8 1.261 . S
C3 O12 1.247 . S
C3 O13 1.272 1_556 S
O4 Co0 2.004 1_556 S
O4 C9 1.259 1_455 S
Co5 O6 2.061 1_554 S
Co5 O11 2.052 . S
Co5 O13 2.135 . S
O6 Co5 2.061 1_556 S
O6 C9 1.235 . S
C7 O10 1.238 1_655 S
C7 O11 1.241 . S
C8 O1 1.247 . S
C8 O2 1.261 . S
C9 O4 1.259 1_655 S
C9 O6 1.235 . S
O10 Co0 2.021 . S
O10 C7 1.238 1_455 S
O11 Co5 2.052 . S
O11 C7 1.241 . S
O12 Co0 2.137 1_656 S
O12 C3 1.247 . S
O13 Co0 2.244 1_655 S
O13 C3 1.272 1_554 S
O13 Co5 2.135 . S
Co14 O15 2.216 1_554 S
Co14 O16 2.091 . S
Co14 O18 2.004 . S
Co14 O24 2.021 1_554 S
Co14 O26 2.137 . S
Co14 O27 2.244 . S
O15 Co14 2.216 1_556 S
O15 C22 1.247 . S
O16 Co14 2.091 . S
O16 C22 1.261 1_554 S
C17 O26 1.247 . S
C17 O27 1.272 . S
O18 Co14 2.004 . S
O18 C23 1.259 . S
Co19 O20 2.061 . S
Co19 O25 2.052 1_554 S
Co19 O27 2.135 . S
O20 Co19 2.061 . S
O20 C23 1.235 . S
C21 O24 1.238 . S
C21 O25 1.241 . S
C22 O15 1.247 . S
C22 O16 1.261 1_556 S
C23 O18 1.259 . S
C23 O20 1.235 . S
O24 Co14 2.021 1_556 S
O24 C21 1.238 . S
O25 Co19 2.052 1_556 S
O25 C21 1.241 . S
O26 Co14 2.137 . S
O26 C17 1.247 . S
O27 Co14 2.244 . S
O27 C17 1.272 . S
O27 Co19 2.135 . S
Co28 O29 2.216 1_554 S
Co28 O30 2.091 . S
Co28 O32 2.004 . S
Co28 O38 2.021 1_554 S
Co28 O40 2.137 1_545 S
Co28 O41 2.244 1_545 S
O29 Co28 2.216 1_556 S
O29 C36 1.247 . S
O30 Co28 2.091 . S
O30 C36 1.261 1_554 S
C31 O40 1.247 . S
C31 O41 1.272 . S
O32 Co28 2.004 . S
O32 C37 1.259 . S
Co33 O34 2.061 . S
Co33 O39 2.052 1_554 S
Co33 O41 2.135 . S
O34 Co33 2.061 . S
O34 C37 1.235 1_565 S
C35 O38 1.238 1_565 S
C35 O39 1.241 . S
C36 O29 1.247 . S
C36 O30 1.261 1_556 S
C37 O32 1.259 . S
C37 O34 1.235 1_545 S
O38 Co28 2.021 1_556 S
O38 C35 1.238 1_545 S
O39 Co33 2.052 1_556 S
O39 C35 1.241 . S
O40 Co28 2.137 1_565 S
O40 C31 1.247 . S
O41 Co28 2.244 1_565 S
O41 C31 1.272 . S
O41 Co33 2.135 . S
Co42 O43 2.216 1_554 S
Co42 O44 2.091 . S
Co42 O46 2.004 . S
Co42 O52 2.021 1_554 S
Co42 O54 2.137 1_655 S
Co42 O55 2.244 1_655 S
O43 Co42 2.216 1_556 S
O43 C50 1.247 . S
O44 Co42 2.091 . S
O44 C50 1.261 1_554 S
C45 O54 1.247 . S
C45 O55 1.272 . S
O46 Co42 2.004 . S
O46 C51 1.259 1_655 S
Co47 O48 2.061 . S
Co47 O53 2.052 1_554 S
Co47 O55 2.135 . S
O48 Co47 2.061 . S
O48 C51 1.235 . S
C49 O52 1.238 1_455 S
C49 O53 1.241 . S
C50 O43 1.247 . S
C50 O44 1.261 1_556 S
C51 O46 1.259 1_455 S
C51 O48 1.235 . S
O52 Co42 2.021 1_556 S
O52 C49 1.238 1_655 S
O53 Co47 2.052 1_556 S
O53 C49 1.241 . S
O54 Co42 2.137 1_455 S
O54 C45 1.247 . S
O55 Co42 2.244 1_455 S
O55 C45 1.272 . S
O55 Co47 2.135 . S
Co56 O57 2.216 . S
Co56 O58 2.091 . S
Co56 O60 2.004 1_554 S
Co56 O66 2.021 . S
Co56 O68 2.137 1_554 S
Co56 O69 2.244 . S
O57 Co56 2.216 . S
O57 C64 1.247 . S
O58 Co56 2.091 . S
O58 C64 1.261 . S
C59 O68 1.247 . S
C59 O69 1.272 1_556 S
O60 Co56 2.004 1_556 S
O60 C65 1.259 . S
Co61 O62 2.061 1_554 S
Co61 O67 2.052 . S
Co61 O69 2.135 . S
O62 Co61 2.061 1_556 S
O62 C65 1.235 . S
C63 O66 1.238 . S
C63 O67 1.241 . S
C64 O57 1.247 . S
C64 O58 1.261 . S
C65 O60 1.259 . S
C65 O62 1.235 . S
O66 Co56 2.021 . S
O66 C63 1.238 . S
O67 Co61 2.052 . S
O67 C63 1.241 . S
O68 Co56 2.137 1_556 S
O68 C59 1.247 . S
O69 Co56 2.244 . S
O69 C59 1.272 1_554 S
O69 Co61 2.135 . S
Co70 O71 2.216 . S
Co70 O72 2.091 . S
Co70 O74 2.004 1_554 S
Co70 O80 2.021 . S
Co70 O82 2.137 1_564 S
Co70 O83 2.244 1_565 S
O71 Co70 2.216 . S
O71 C78 1.247 . S
O72 Co70 2.091 . S
O72 C78 1.261 . S
C73 O82 1.247 . S
C73 O83 1.272 1_556 S
O74 Co70 2.004 1_556 S
O74 C79 1.259 1_565 S
Co75 O76 2.061 1_554 S
Co75 O81 2.052 . S
Co75 O83 2.135 . S
O76 Co75 2.061 1_556 S
O76 C79 1.235 . S
C77 O80 1.238 1_545 S
C77 O81 1.241 . S
C78 O71 1.247 . S
C78 O72 1.261 . S
C79 O74 1.259 1_545 S
C79 O76 1.235 . S
O80 Co70 2.021 . S
O80 C77 1.238 1_565 S
O81 Co75 2.052 . S
O81 C77 1.241 . S
O82 Co70 2.137 1_546 S
O82 C73 1.247 . S
O83 Co70 2.244 1_545 S
O83 C73 1.272 1_554 S
O83 Co75 2.135 . S
Co84 O85 2.216 . S
Co84 O86 2.091 . S
Co84 O88 2.004 . S
Co84 O94 2.021 . S
Co84 O96 2.137 . S
Co84 O97 2.244 . S
O85 Co84 2.216 . S
O85 C92 1.247 . S
O86 Co84 2.091 . S
O86 C92 1.261 . S
C87 O96 1.247 . S
C87 O97 1.272 . S
O88 Co84 2.004 . S
O88 C93 1.259 . S
Co89 O90 2.061 . S
Co89 O95 2.052 . S
Co89 O97 2.135 . S
O90 Co89 2.061 . S
O90 C93 1.235 . S
C91 O94 1.238 . S
C91 O95 1.241 . S
C92 O85 1.247 . S
C92 O86 1.261 . S
C93 O88 1.259 . S
C93 O90 1.235 . S
O94 Co84 2.021 . S
O94 C91 1.238 . S
O95 Co89 2.052 . S
O95 C91 1.241 . S
O96 Co84 2.137 . S
O96 C87 1.247 . S
O97 Co84 2.244 . S
O97 C87 1.272 . S
O97 Co89 2.135 . S
Co98 O99 2.216 1_565 S
Co98 O100 2.091 . S
Co98 O102 2.004 . S
Co98 O108 2.021 . S
Co98 O110 2.137 1_565 S
Co98 O111 2.244 1_565 S
O99 Co98 2.216 1_545 S
O99 C106 1.247 1_545 S
O100 Co98 2.091 . S
O100 C106 1.261 . S
C101 O110 1.247 . S
C101 O111 1.272 . S
O102 Co98 2.004 . S
O102 C107 1.259 . S
Co103 O104 2.061 . S
Co103 O109 2.052 . S
Co103 O111 2.135 1_565 S
O104 Co103 2.061 . S
O104 C107 1.235 . S
C105 O108 1.238 . S
C105 O109 1.241 . S
C106 O99 1.247 1_565 S
C106 O100 1.261 . S
C107 O102 1.259 . S
C107 O104 1.235 . S
O108 Co98 2.021 . S
O108 C105 1.238 . S
O109 Co103 2.052 . S
O109 C105 1.241 . S
O110 Co98 2.137 1_545 S
O110 C101 1.247 . S
O111 Co98 2.244 1_545 S
O111 C101 1.272 . S
O111 Co103 2.135 1_545 S
Co112 O113 2.216 . S
Co112 O114 2.091 . S
Co112 O116 2.004 . S
Co112 O122 2.021 . S
Co112 O124 2.137 1_455 S
Co112 O125 2.244 1_455 S
O113 Co112 2.216 . S
O113 C120 1.247 . S
O114 Co112 2.091 . S
O114 C120 1.261 . S
C115 O124 1.247 . S
C115 O125 1.272 . S
O116 Co112 2.004 . S
O116 C121 1.259 . S
Co117 O118 2.061 . S
Co117 O123 2.052 . S
Co117 O125 2.135 1_455 S
O118 Co117 2.061 . S
O118 C121 1.235 . S
C119 O122 1.238 . S
C119 O123 1.241 . S
C120 O113 1.247 . S
C120 O114 1.261 . S
C121 O116 1.259 . S
C121 O118 1.235 . S
O122 Co112 2.021 . S
O122 C119 1.238 . S
O123 Co117 2.052 . S
O123 C119 1.241 . S
O124 Co112 2.137 1_655 S
O124 C115 1.247 . S
O125 Co112 2.244 1_655 S
O125 C115 1.272 . S
O125 Co117 2.135 1_655 S
Co126 O127 2.216 1_565 S
Co126 O128 2.091 . S
Co126 O130 2.004 . S
Co126 O136 2.021 . S
Co126 O138 2.137 1_565 S
Co126 O139 2.244 1_565 S
O127 Co126 2.216 1_545 S
O127 C134 1.247 1_545 S
O128 Co126 2.091 . S
O128 C134 1.261 . S
C129 O138 1.247 . S
C129 O139 1.272 . S
O130 Co126 2.004 . S
O130 C135 1.259 . S
Co131 O132 2.061 . S
Co131 O137 2.052 . S
Co131 O139 2.135 1_565 S
O132 Co131 2.061 . S
O132 C135 1.235 . S
C133 O136 1.238 . S
C133 O137 1.241 . S
C134 O127 1.247 1_565 S
C134 O128 1.261 . S
C135 O130 1.259 . S
C135 O132 1.235 . S
O136 Co126 2.021 . S
O136 C133 1.238 . S
O137 Co131 2.052 . S
O137 C133 1.241 . S
O138 Co126 2.137 1_545 S
O138 C129 1.247 . S
O139 Co126 2.244 1_545 S
O139 C129 1.272 . S
O139 Co131 2.135 1_545 S
Co140 O141 2.216 1_455 S
Co140 O142 2.091 1_455 S
Co140 O144 2.004 . S
Co140 O150 2.021 . S
Co140 O152 2.137 1_455 S
Co140 O153 2.244 . S
O141 Co140 2.216 1_655 S
O141 C148 1.247 . S
O142 Co140 2.091 1_655 S
O142 C148 1.261 . S
C143 O152 1.247 1_455 S
C143 O153 1.272 . S
O144 Co140 2.004 . S
O144 C149 1.259 . S
Co145 O146 2.061 . S
Co145 O151 2.052 . S
Co145 O153 2.135 . S
O146 Co145 2.061 . S
O146 C149 1.235 . S
C147 O150 1.238 . S
C147 O151 1.241 . S
C148 O141 1.247 . S
C148 O142 1.261 . S
C149 O144 1.259 . S
C149 O146 1.235 . S
O150 Co140 2.021 . S
O150 C147 1.238 . S
O151 Co145 2.052 . S
O151 C147 1.241 . S
O152 Co140 2.137 1_655 S
O152 C143 1.247 1_655 S
O153 Co140 2.244 . S
O153 C143 1.272 . S
O153 Co145 2.135 . S
Co154 O155 2.216 . S
Co154 O156 2.091 . S
Co154 O158 2.004 . S
Co154 O164 2.021 . S
Co154 O166 2.137 . S
Co154 O167 2.244 . S
O155 Co154 2.216 . S
O155 C162 1.247 . S
O156 Co154 2.091 . S
O156 C162 1.261 . S
C157 O166 1.247 . S
C157 O167 1.272 . S
O158 Co154 2.004 . S
O158 C163 1.259 . S
Co159 O160 2.061 . S
Co159 O165 2.052 . S
Co159 O167 2.135 . S
O160 Co159 2.061 . S
O160 C163 1.235 . S
C161 O164 1.238 . S
C161 O165 1.241 . S
C162 O155 1.247 . S
C162 O156 1.261 . S
C163 O158 1.259 . S
C163 O160 1.235 . S
O164 Co154 2.021 . S
O164 C161 1.238 . S
O165 Co159 2.052 . S
O165 C161 1.241 . S
O166 Co154 2.137 . S
O166 C157 1.247 . S
O167 Co154 2.244 . S
O167 C157 1.272 . S
O167 Co159 2.135 . S
Co168 O169 2.214 . S
Co168 O170 2.091 . S
Co168 O172 2.004 . S
Co168 O178 2.021 . S
Co168 O180 2.137 1_545 S
Co168 O181 2.244 1_545 S
O169 Co168 2.214 . S
O169 C176 1.247 . S
O170 Co168 2.091 . S
O170 C176 1.261 . S
C171 O180 1.247 . S
C171 O181 1.272 . S
O172 Co168 2.004 . S
O172 C177 1.259 . S
Co173 O174 2.061 . S
Co173 O179 2.052 . S
Co173 O181 2.135 1_545 S
O174 Co173 2.061 . S
O174 C177 1.235 . S
C175 O178 1.238 . S
C175 O179 1.241 . S
C176 O169 1.247 . S
C176 O170 1.261 . S
C177 O172 1.259 . S
C177 O174 1.235 . S
O178 Co168 2.021 . S
O178 C175 1.238 . S
O179 Co173 2.052 . S
O179 C175 1.241 . S
O180 Co168 2.137 1_565 S
O180 C171 1.247 . S
O181 Co168 2.244 1_565 S
O181 C171 1.272 . S
O181 Co173 2.135 1_565 S
Co182 O183 2.216 1_655 S
Co182 O184 2.091 1_655 S
Co182 O186 2.004 . S
Co182 O192 2.021 . S
Co182 O194 2.137 1_655 S
Co182 O195 2.244 . S
O183 Co182 2.216 1_455 S
O183 C190 1.247 . S
O184 Co182 2.091 1_455 S
O184 C190 1.261 . S
C185 O194 1.247 1_655 S
C185 O195 1.272 . S
O186 Co182 2.004 . S
O186 C191 1.259 . S
Co187 O188 2.061 . S
Co187 O193 2.052 . S
Co187 O195 2.135 . S
O188 Co187 2.061 . S
O188 C191 1.235 . S
C189 O192 1.238 . S
C189 O193 1.241 . S
C190 O183 1.247 . S
C190 O184 1.261 . S
C191 O186 1.259 . S
C191 O188 1.235 . S
O192 Co182 2.021 . S
O192 C189 1.238 . S
O193 Co187 2.052 . S
O193 C189 1.241 . S
O194 Co182 2.137 1_455 S
O194 C185 1.247 1_455 S
O195 Co182 2.244 . S
O195 C185 1.272 . S
O195 Co187 2.135 . S
Co196 O197 2.216 . S
Co196 O198 2.091 . S
Co196 O200 2.004 . S
Co196 O206 2.021 . S
Co196 O208 2.137 . S
Co196 O209 2.244 . S
O197 Co196 2.216 . S
O197 C204 1.247 . S
O198 Co196 2.091 . S
O198 C204 1.261 . S
C199 O208 1.247 . S
C199 O209 1.272 . S
O200 Co196 2.004 . S
O200 C205 1.259 . S
Co201 O202 2.061 . S
Co201 O207 2.052 . S
Co201 O209 2.135 . S
O202 Co201 2.061 . S
O202 C205 1.235 . S
C203 O206 1.238 . S
C203 O207 1.241 . S
C204 O197 1.247 . S
C204 O198 1.261 . S
C205 O200 1.259 . S
C205 O202 1.235 . S
O206 Co196 2.021 . S
O206 C203 1.238 . S
O207 Co201 2.052 . S
O207 C203 1.241 . S
O208 Co196 2.137 . S
O208 C199 1.247 . S
O209 Co196 2.244 . S
O209 C199 1.272 . S
O209 Co201 2.135 . S
Co210 O211 2.216 . S
Co210 O212 2.091 . S
Co210 O214 2.004 . S
Co210 O220 2.021 . S
Co210 O222 2.137 . S
Co210 O223 2.244 . S
O211 Co210 2.216 . S
O211 C218 1.247 . S
O212 Co210 2.091 . S
O212 C218 1.261 . S
C213 O222 1.247 . S
C213 O223 1.272 . S
O214 Co210 2.004 . S
O214 C219 1.259 . S
Co215 O216 2.061 . S
Co215 O221 2.052 . S
Co215 O223 2.135 . S
O216 Co215 2.061 . S
O216 C219 1.235 . S
C217 O220 1.238 . S
C217 O221 1.241 . S
C218 O211 1.247 . S
C218 O212 1.261 . S
C219 O214 1.259 . S
C219 O216 1.235 . S
O220 Co210 2.021 . S
O220 C217 1.238 . S
O221 Co215 2.052 . S
O221 C217 1.241 . S
O222 Co210 2.137 . S
O222 C213 1.247 . S
O223 Co210 2.244 . S
O223 C213 1.272 . S
O223 Co215 2.135 . S
Co224 O225 2.217 . S
Co224 O226 2.091 . S
Co224 O228 2.004 . S
Co224 O234 2.021 . S
Co224 O236 2.137 1_545 S
Co224 O237 2.244 1_545 S
O225 Co224 2.217 . S
O225 C232 1.249 . S
O226 Co224 2.091 . S
O226 C232 1.261 . S
C227 O236 1.247 . S
C227 O237 1.272 . S
O228 Co224 2.004 . S
O228 C233 1.259 . S
Co229 O230 2.061 . S
Co229 O235 2.052 . S
Co229 O237 2.135 1_545 S
O230 Co229 2.061 . S
O230 C233 1.235 . S
C231 O234 1.238 . S
C231 O235 1.241 . S
C232 O225 1.249 . S
C232 O226 1.261 . S
C233 O228 1.259 . S
C233 O230 1.235 . S
O234 Co224 2.021 . S
O234 C231 1.238 . S
O235 Co229 2.052 . S
O235 C231 1.241 . S
O236 Co224 2.137 1_565 S
O236 C227 1.247 . S
O237 Co224 2.244 1_565 S
O237 C227 1.272 . S
O237 Co229 2.135 1_565 S
Co238 O239 2.216 . S
Co238 O240 2.091 . S
Co238 O242 2.004 . S
Co238 O248 2.021 . S
Co238 O250 2.137 1_655 S
Co238 O251 2.244 1_655 S
O239 Co238 2.216 . S
O239 C246 1.247 . S
O240 Co238 2.091 . S
O240 C246 1.261 . S
C241 O250 1.247 . S
C241 O251 1.272 . S
O242 Co238 2.004 . S
O242 C247 1.259 . S
Co243 O244 2.061 . S
Co243 O249 2.052 . S
Co243 O251 2.135 1_655 S
O244 Co243 2.061 . S
O244 C247 1.235 . S
C245 O248 1.238 . S
C245 O249 1.241 . S
C246 O239 1.247 . S
C246 O240 1.261 . S
C247 O242 1.259 . S
C247 O244 1.235 . S
O248 Co238 2.021 . S
O248 C245 1.238 . S
O249 Co243 2.052 . S
O249 C245 1.241 . S
O250 Co238 2.137 1_455 S
O250 C241 1.247 . S
O251 Co238 2.244 1_455 S
O251 C241 1.272 . S
O251 Co243 2.135 1_455 S
H252 C258 0.930 . S
H253 C261 0.931 . S
H254 C263 0.931 . S
H255 C265 0.930 . S
H256 C267 0.930 . S
H257 C269 0.931 . S
C258 H252 0.930 . S
C258 C259 1.380 . S
C258 C260 1.394 . S
C259 C258 1.380 . S
C259 C263 1.382 . S
C260 C258 1.394 . S
C260 C261 1.400 . S
C261 H253 0.931 . S
C261 C260 1.400 . S
C261 C262 1.375 . S
C262 C261 1.375 . S
C262 C263 1.415 . S
C262 C264 1.501 . S
C263 H254 0.931 . S
C263 C259 1.382 . S
C263 C262 1.415 . S
C264 C262 1.501 . S
C264 C265 1.384 . S
C264 C269 1.408 . S
C265 H255 0.930 . S
C265 C264 1.384 . S
C265 C266 1.389 . S
C266 C265 1.389 . S
C266 C267 1.405 . S
C267 H256 0.930 . S
C267 C266 1.405 . S
C267 C268 1.364 . S
C268 C267 1.364 . S
C268 C269 1.400 . S
C269 H257 0.931 . S
C269 C264 1.408 . S
C269 C268 1.400 . S
H270 C276 0.930 . S
H271 C279 0.931 . S
H272 C281 0.931 . S
H273 C283 0.930 . S
H274 C285 0.930 . S
H275 C287 0.931 . S
C276 H270 0.930 . S
C276 C277 1.380 . S
C276 C278 1.394 . S
C277 C276 1.380 . S
C277 C281 1.382 . S
C278 C276 1.394 . S
C278 C279 1.400 . S
C279 H271 0.931 . S
C279 C278 1.400 . S
C279 C280 1.375 . S
C280 C279 1.375 . S
C280 C281 1.415 . S
C280 C282 1.501 . S
C281 H272 0.931 . S
C281 C277 1.382 . S
C281 C280 1.415 . S
C282 C280 1.501 . S
C282 C283 1.384 . S
C282 C287 1.408 . S
C283 H273 0.930 . S
C283 C282 1.384 . S
C283 C284 1.389 . S
C284 C283 1.389 . S
C284 C285 1.405 . S
C285 H274 0.930 . S
C285 C284 1.405 . S
C285 C286 1.364 . S
C286 C285 1.364 . S
C286 C287 1.400 . S
C287 H275 0.931 . S
C287 C282 1.408 . S
C287 C286 1.400 . S
H288 C294 0.930 . S
H289 C297 0.931 . S
H290 C299 0.931 . S
H291 C301 0.930 . S
H292 C303 0.930 . S
H293 C305 0.931 . S
C294 H288 0.930 . S
C294 C295 1.380 . S
C294 C296 1.394 . S
C295 C294 1.380 . S
C295 C299 1.382 . S
C296 C294 1.394 . S
C296 C297 1.400 . S
C297 H289 0.931 . S
C297 C296 1.400 . S
C297 C298 1.375 . S
C298 C297 1.375 . S
C298 C299 1.415 . S
C298 C300 1.501 . S
C299 H290 0.931 . S
C299 C295 1.382 . S
C299 C298 1.415 . S
C300 C298 1.501 . S
C300 C301 1.384 . S
C300 C305 1.408 . S
C301 H291 0.930 . S
C301 C300 1.384 . S
C301 C302 1.389 . S
C302 C301 1.389 . S
C302 C303 1.405 . S
C303 H292 0.930 . S
C303 C302 1.405 . S
C303 C304 1.364 . S
C304 C303 1.364 . S
C304 C305 1.400 . S
C305 H293 0.931 . S
C305 C300 1.408 . S
C305 C304 1.400 . S
H306 C312 0.930 . S
H307 C315 0.931 . S
H308 C317 0.931 . S
H309 C319 0.930 . S
H310 C321 0.930 . S
H311 C323 0.931 . S
C312 H306 0.930 . S
C312 C313 1.380 . S
C312 C314 1.394 . S
C313 C312 1.380 . S
C313 C317 1.382 . S
C314 C312 1.394 . S
C314 C315 1.400 . S
C315 H307 0.931 . S
C315 C314 1.400 . S
C315 C316 1.375 . S
C316 C315 1.375 . S
C316 C317 1.415 . S
C316 C318 1.501 . S
C317 H308 0.931 . S
C317 C313 1.382 . S
C317 C316 1.415 . S
C318 C316 1.501 . S
C318 C319 1.384 . S
C318 C323 1.408 . S
C319 H309 0.930 . S
C319 C318 1.384 . S
C319 C320 1.389 . S
C320 C319 1.389 . S
C320 C321 1.405 . S
C321 H310 0.930 . S
C321 C320 1.405 . S
C321 C322 1.364 . S
C322 C321 1.364 . S
C322 C323 1.400 . S
C323 H311 0.931 . S
C323 C318 1.408 . S
C323 C322 1.400 . S
H324 C330 0.930 . S
H325 C333 0.931 . S
H326 C335 0.931 . S
H327 C337 0.930 . S
H328 C339 0.930 . S
H329 C341 0.931 . S
C330 H324 0.930 . S
C330 C331 1.380 . S
C330 C332 1.394 . S
C331 C330 1.380 . S
C331 C335 1.382 . S
C332 C330 1.394 . S
C332 C333 1.400 . S
C333 H325 0.931 . S
C333 C332 1.400 . S
C333 C334 1.375 . S
C334 C333 1.375 . S
C334 C335 1.415 . S
C334 C336 1.501 . S
C335 H326 0.931 . S
C335 C331 1.382 . S
C335 C334 1.415 . S
C336 C334 1.501 . S
C336 C337 1.384 . S
C336 C341 1.408 . S
C337 H327 0.930 . S
C337 C336 1.384 . S
C337 C338 1.389 . S
C338 C337 1.389 . S
C338 C339 1.405 . S
C339 H328 0.930 . S
C339 C338 1.405 . S
C339 C340 1.364 . S
C340 C339 1.364 . S
C340 C341 1.400 . S
C341 H329 0.931 . S
C341 C336 1.408 . S
C341 C340 1.400 . S
H342 C348 0.930 . S
H343 C351 0.931 . S
H344 C353 0.931 . S
H345 C355 0.930 . S
H346 C357 0.930 . S
H347 C359 0.931 . S
C348 H342 0.930 . S
C348 C349 1.380 . S
C348 C350 1.394 . S
C349 C348 1.380 . S
C349 C353 1.382 . S
C350 C348 1.394 . S
C350 C351 1.400 . S
C351 H343 0.931 . S
C351 C350 1.400 . S
C351 C352 1.375 . S
C352 C351 1.375 . S
C352 C353 1.415 . S
C352 C354 1.501 . S
C353 H344 0.931 . S
C353 C349 1.382 . S
C353 C352 1.415 . S
C354 C352 1.501 . S
C354 C355 1.384 . S
C354 C359 1.408 . S
C355 H345 0.930 . S
C355 C354 1.384 . S
C355 C356 1.389 . S
C356 C355 1.389 . S
C356 C357 1.405 . S
C357 H346 0.930 . S
C357 C356 1.405 . S
C357 C358 1.364 . S
C358 C357 1.364 . S
C358 C359 1.400 . S
C359 H347 0.931 . S
C359 C354 1.408 . S
C359 C358 1.400 . S
H360 C366 0.930 . S
H361 C369 0.931 . S
H362 C371 0.931 . S
H363 C373 0.930 . S
H364 C375 0.930 . S
H365 C377 0.931 . S
C366 H360 0.930 . S
C366 C367 1.380 . S
C366 C368 1.394 . S
C367 C366 1.380 . S
C367 C371 1.382 . S
C368 C366 1.394 . S
C368 C369 1.400 . S
C369 H361 0.931 . S
C369 C368 1.400 . S
C369 C370 1.375 . S
C370 C369 1.375 . S
C370 C371 1.415 . S
C370 C372 1.501 . S
C371 H362 0.931 . S
C371 C367 1.382 . S
C371 C370 1.415 . S
C372 C370 1.501 . S
C372 C373 1.384 . S
C372 C377 1.408 . S
C373 H363 0.930 . S
C373 C372 1.384 . S
C373 C374 1.389 . S
C374 C373 1.389 . S
C374 C375 1.405 . S
C375 H364 0.930 . S
C375 C374 1.405 . S
C375 C376 1.364 . S
C376 C375 1.364 . S
C376 C377 1.400 . S
C377 H365 0.931 . S
C377 C372 1.408 . S
C377 C376 1.400 . S
H378 C384 0.930 . S
H379 C387 0.931 . S
H380 C389 0.931 . S
H381 C391 0.930 . S
H382 C393 0.930 . S
H383 C395 0.931 . S
C384 H378 0.930 . S
C384 C385 1.380 . S
C384 C386 1.394 . S
C385 C384 1.380 . S
C385 C389 1.382 . S
C386 C384 1.394 . S
C386 C387 1.400 . S
C387 H379 0.931 . S
C387 C386 1.400 . S
C387 C388 1.375 . S
C388 C387 1.375 . S
C388 C389 1.415 . S
C388 C390 1.501 . S
C389 H380 0.931 . S
C389 C385 1.382 . S
C389 C388 1.415 . S
C390 C388 1.501 . S
C390 C391 1.384 . S
C390 C395 1.408 . S
C391 H381 0.930 . S
C391 C390 1.384 . S
C391 C392 1.389 . S
C392 C391 1.389 . S
C392 C393 1.405 . S
C393 H382 0.930 . S
C393 C392 1.405 . S
C393 C394 1.364 . S
C394 C393 1.364 . S
C394 C395 1.400 . S
C395 H383 0.931 . S
C395 C390 1.408 . S
C395 C394 1.400 . S
H396 C402 0.930 . S
H397 C405 0.931 . S
H398 C407 0.931 . S
H399 C409 0.930 . S
H400 C411 0.930 . S
H401 C413 0.931 . S
C402 H396 0.930 . S
C402 C403 1.380 . S
C402 C404 1.394 . S
C403 C402 1.380 . S
C403 C407 1.382 . S
C404 C402 1.394 . S
C404 C405 1.400 . S
C405 H397 0.931 . S
C405 C404 1.400 . S
C405 C406 1.375 . S
C406 C405 1.375 . S
C406 C407 1.415 . S
C406 C408 1.501 . S
C407 H398 0.931 . S
C407 C403 1.382 . S
C407 C406 1.415 . S
C408 C406 1.501 . S
C408 C409 1.384 . S
C408 C413 1.408 . S
C409 H399 0.930 . S
C409 C408 1.384 . S
C409 C410 1.389 . S
C410 C409 1.389 . S
C410 C411 1.405 . S
C411 H400 0.930 . S
C411 C410 1.405 . S
C411 C412 1.364 . S
C412 C411 1.364 . S
C412 C413 1.400 . S
C413 H401 0.931 . S
C413 C408 1.408 . S
C413 C412 1.400 . S
H414 C420 0.928 . S
H415 C423 0.931 . S
H416 C425 0.931 . S
H417 C427 0.930 . S
H418 C429 0.930 . S
H419 C431 0.940 1_655 S
C420 H414 0.928 . S
C420 C421 1.382 . S
C420 C422 1.395 1_655 S
C421 C420 1.382 . S
C421 C425 1.382 . S
C422 C420 1.395 1_455 S
C422 C423 1.400 . S
C423 H415 0.931 . S
C423 C422 1.400 . S
C423 C424 1.375 . S
C424 C423 1.375 . S
C424 C425 1.415 1_455 S
C424 C426 1.501 . S
C425 H416 0.931 . S
C425 C421 1.382 . S
C425 C424 1.415 1_655 S
C426 C424 1.501 . S
C426 C427 1.384 . S
C426 C431 1.417 . S
C427 H417 0.930 . S
C427 C426 1.384 . S
C427 C428 1.389 . S
C428 C427 1.389 . S
C428 C429 1.405 . S
C429 H418 0.930 . S
C429 C428 1.405 . S
C429 C430 1.363 . S
C430 C429 1.363 . S
C430 C431 1.389 . S
C431 H419 0.940 1_455 S
C431 C426 1.417 . S
C431 C430 1.389 . S
H432 C438 0.930 . S
H433 C441 0.931 . S
H434 C443 0.931 . S
H435 C445 0.930 . S
H436 C447 0.930 . S
H437 C449 0.931 . S
C438 H432 0.930 . S
C438 C439 1.380 . S
C438 C440 1.394 . S
C439 C438 1.380 . S
C439 C443 1.382 . S
C440 C438 1.394 . S
C440 C441 1.400 . S
C441 H433 0.931 . S
C441 C440 1.400 . S
C441 C442 1.375 . S
C442 C441 1.375 . S
C442 C443 1.415 . S
C442 C444 1.501 . S
C443 H434 0.931 . S
C443 C439 1.382 . S
C443 C442 1.415 . S
C444 C442 1.501 . S
C444 C445 1.384 . S
C444 C449 1.408 . S
C445 H435 0.930 . S
C445 C444 1.384 . S
C445 C446 1.389 . S
C446 C445 1.389 . S
C446 C447 1.405 . S
C447 H436 0.930 . S
C447 C446 1.405 . S
C447 C448 1.364 . S
C448 C447 1.364 . S
C448 C449 1.400 . S
C449 H437 0.931 . S
C449 C444 1.408 . S
C449 C448 1.400 . S
H450 C456 0.957 . S
H451 C459 0.931 . S
H452 C461 0.931 . S
H453 C463 0.930 . S
H454 C465 0.930 . S
H455 C467 0.919 1_545 S
C456 H450 0.957 . S
C456 C457 1.375 . S
C456 C458 1.375 1_545 S
C457 C456 1.375 . S
C457 C461 1.382 . S
C458 C456 1.375 1_565 S
C458 C459 1.400 . S
C459 H451 0.931 . S
C459 C458 1.400 . S
C459 C460 1.375 . S
C460 C459 1.375 . S
C460 C461 1.415 1_565 S
C460 C462 1.501 . S
C461 H452 0.931 . S
C461 C457 1.382 . S
C461 C460 1.415 1_545 S
C462 C460 1.501 . S
C462 C463 1.384 . S
C462 C467 1.397 . S
C463 H453 0.930 . S
C463 C462 1.384 . S
C463 C464 1.389 . S
C464 C463 1.389 . S
C464 C465 1.405 . S
C465 H454 0.930 . S
C465 C464 1.405 . S
C465 C466 1.377 . S
C466 C465 1.377 . S
C466 C467 1.403 . S
C467 H455 0.919 1_565 S
C467 C462 1.397 . S
C467 C466 1.403 . S
H468 C474 0.919 . S
H469 C477 0.931 . S
H470 C479 0.926 1_545 S
H471 C481 0.930 . S
H472 C483 0.930 . S
H473 C485 0.931 . S
C474 H468 0.919 . S
C474 C475 1.381 . S
C474 C476 1.399 1_545 S
C475 C474 1.381 . S
C475 C479 1.400 1_545 S
C476 C474 1.399 1_565 S
C476 C477 1.400 . S
C477 H469 0.931 . S
C477 C476 1.400 . S
C477 C478 1.375 . S
C478 C477 1.375 . S
C478 C479 1.411 . S
C478 C480 1.501 . S
C479 H470 0.926 1_565 S
C479 C475 1.400 1_565 S
C479 C478 1.411 . S
C480 C478 1.501 . S
C480 C481 1.384 . S
C480 C485 1.408 1_565 S
C481 H471 0.930 . S
C481 C480 1.384 . S
C481 C482 1.389 . S
C482 C481 1.389 . S
C482 C483 1.405 . S
C483 H472 0.930 . S
C483 C482 1.405 . S
C483 C484 1.364 1_565 S
C484 C483 1.364 1_545 S
C484 C485 1.400 . S
C485 H473 0.931 . S
C485 C480 1.408 1_545 S
C485 C484 1.400 . S
H486 C492 0.930 . S
H487 C495 0.931 . S
H488 C497 0.933 1_655 S
H489 C499 0.930 . S
H490 C501 0.930 . S
H491 C503 0.931 . S
C492 H486 0.930 . S
C492 C493 1.394 . S
C492 C494 1.383 1_655 S
C493 C492 1.394 . S
C493 C497 1.355 1_655 S
C494 C492 1.383 1_455 S
C494 C495 1.423 . S
C495 H487 0.931 . S
C495 C494 1.423 . S
C495 C496 1.375 . S
C496 C495 1.375 . S
C496 C497 1.416 . S
C496 C498 1.501 . S
C497 H488 0.933 1_455 S
C497 C493 1.355 1_455 S
C497 C496 1.416 . S
C498 C496 1.501 . S
C498 C499 1.384 . S
C498 C503 1.408 1_455 S
C499 H489 0.930 . S
C499 C498 1.384 . S
C499 C500 1.389 . S
C500 C499 1.389 . S
C500 C501 1.405 . S
C501 H490 0.930 . S
C501 C500 1.405 . S
C501 C502 1.364 1_455 S
C502 C501 1.364 1_655 S
C502 C503 1.400 . S
C503 H491 0.931 . S
C503 C498 1.408 1_655 S
C503 C502 1.400 . S
H504 C510 0.930 . S
H505 C513 0.931 . S
H506 C515 0.931 . S
H507 C517 0.930 . S
H508 C519 0.930 . S
H509 C521 0.931 . S
C510 H504 0.930 . S
C510 C511 1.380 . S
C510 C512 1.394 . S
C511 C510 1.380 . S
C511 C515 1.382 . S
C512 C510 1.394 . S
C512 C513 1.400 . S
C513 H505 0.931 . S
C513 C512 1.400 . S
C513 C514 1.375 . S
C514 C513 1.375 . S
C514 C515 1.415 . S
C514 C516 1.501 . S
C515 H506 0.931 . S
C515 C511 1.382 . S
C515 C514 1.415 . S
C516 C514 1.501 . S
C516 C517 1.384 . S
C516 C521 1.408 . S
C517 H507 0.930 . S
C517 C516 1.384 . S
C517 C518 1.389 . S
C518 C517 1.389 . S
C518 C519 1.405 . S
C519 H508 0.930 . S
C519 C518 1.405 . S
C519 C520 1.364 . S
C520 C519 1.364 . S
C520 C521 1.400 . S
C521 H509 0.931 . S
C521 C516 1.408 . S
C521 C520 1.400 . S
H522 C528 0.930 . S
H523 C531 0.931 . S
H524 C533 0.931 . S
H525 C535 0.930 . S
H526 C537 0.930 . S
H527 C539 0.931 . S
C528 H522 0.930 . S
C528 C529 1.380 . S
C528 C530 1.394 . S
C529 C528 1.380 . S
C529 C533 1.382 . S
C530 C528 1.394 . S
C530 C531 1.400 . S
C531 H523 0.931 . S
C531 C530 1.400 . S
C531 C532 1.375 . S
C532 C531 1.375 . S
C532 C533 1.415 . S
C532 C534 1.501 . S
C533 H524 0.931 . S
C533 C529 1.382 . S
C533 C532 1.415 . S
C534 C532 1.501 . S
C534 C535 1.384 . S
C534 C539 1.408 . S
C535 H525 0.930 . S
C535 C534 1.384 . S
C535 C536 1.389 . S
C536 C535 1.389 . S
C536 C537 1.405 . S
C537 H526 0.930 . S
C537 C536 1.405 . S
C537 C538 1.364 . S
C538 C537 1.364 . S
C538 C539 1.400 . S
C539 H527 0.931 . S
C539 C534 1.408 . S
C539 C538 1.400 . S
H540 C546 0.930 . S
H541 C549 0.931 . S
H542 C551 0.931 . S
H543 C553 0.930 . S
H544 C555 0.930 . S
H545 C557 0.931 . S
C546 H540 0.930 . S
C546 C547 1.380 . S
C546 C548 1.394 . S
C547 C546 1.380 . S
C547 C551 1.382 . S
C548 C546 1.394 . S
C548 C549 1.400 . S
C549 H541 0.931 . S
C549 C548 1.400 . S
C549 C550 1.375 . S
C550 C549 1.375 . S
C550 C551 1.415 . S
C550 C552 1.501 . S
C551 H542 0.931 . S
C551 C547 1.382 . S
C551 C550 1.415 . S
C552 C550 1.501 . S
C552 C553 1.384 . S
C552 C557 1.408 . S
C553 H543 0.930 . S
C553 C552 1.384 . S
C553 C554 1.389 . S
C554 C553 1.389 . S
C554 C555 1.405 . S
C555 H544 0.930 . S
C555 C554 1.405 . S
C555 C556 1.364 . S
C556 C555 1.364 . S
C556 C557 1.400 . S
C557 H545 0.931 . S
C557 C552 1.408 . S
C557 C556 1.400 . S
H558 C564 0.930 . S
H559 C567 0.931 . S
H560 C569 0.931 . S
H561 C571 0.930 . S
H562 C573 0.930 . S
H563 C575 0.931 . S
C564 H558 0.930 . S
C564 C565 1.380 . S
C564 C566 1.394 . S
C565 C564 1.380 . S
C565 C569 1.382 . S
C566 C564 1.394 . S
C566 C567 1.400 . S
C567 H559 0.931 . S
C567 C566 1.400 . S
C567 C568 1.375 . S
C568 C567 1.375 . S
C568 C569 1.415 . S
C568 C570 1.501 . S
C569 H560 0.931 . S
C569 C565 1.382 . S
C569 C568 1.415 . S
C570 C568 1.501 . S
C570 C571 1.384 . S
C570 C575 1.408 . S
C571 H561 0.930 . S
C571 C570 1.384 . S
C571 C572 1.389 . S
C572 C571 1.389 . S
C572 C573 1.405 . S
C573 H562 0.930 . S
C573 C572 1.405 . S
C573 C574 1.364 . S
C574 C573 1.364 . S
C574 C575 1.400 . S
C575 H563 0.931 . S
C575 C570 1.408 . S
C575 C574 1.400 . S
H576 C582 0.934 1_455 S
H577 C585 0.930 . S
H578 C586 0.930 . S
H579 C587 0.930 . S
H580 C590 0.930 . S
H581 C591 0.928 . S
C582 H576 0.934 1_655 S
C582 C583 1.333 . S
C582 C584 1.435 . S
C583 C582 1.333 . S
C583 C585 1.419 . S
C584 C582 1.435 . S
C584 C589 1.425 . S
C584 C591 1.409 . S
C585 H577 0.930 . S
C585 C583 1.419 . S
C585 C586 1.362 . S
C586 H578 0.930 . S
C586 C585 1.362 . S
C586 C589 1.409 . S
C587 H579 0.930 . S
C587 C588 1.355 . S
C587 C589 1.415 . S
C588 C587 1.355 . S
C588 C590 1.419 . S
C589 C584 1.425 . S
C589 C586 1.409 . S
C589 C587 1.415 . S
C590 H580 0.930 . S
C590 C588 1.419 . S
C590 C591 1.362 . S
C591 H581 0.928 . S
C591 C584 1.409 . S
C591 C590 1.362 . S
H592 C598 0.930 . S
H593 C601 0.930 . S
H594 C602 0.930 . S
H595 C603 0.930 . S
H596 C606 0.930 . S
H597 C607 0.930 . S
C598 H592 0.930 . S
C598 C599 1.355 . S
C598 C600 1.415 . S
C599 C598 1.355 . S
C599 C601 1.419 . S
C600 C598 1.415 . S
C600 C605 1.425 . S
C600 C607 1.409 . S
C601 H593 0.930 . S
C601 C599 1.419 . S
C601 C602 1.362 . S
C602 H594 0.930 . S
C602 C601 1.362 . S
C602 C605 1.409 . S
C603 H595 0.930 . S
C603 C604 1.355 . S
C603 C605 1.415 . S
C604 C603 1.355 . S
C604 C606 1.419 . S
C605 C600 1.425 . S
C605 C602 1.409 . S
C605 C603 1.415 . S
C606 H596 0.930 . S
C606 C604 1.419 . S
C606 C607 1.362 . S
C607 H597 0.930 . S
C607 C600 1.409 . S
C607 C606 1.362 . S
H608 C614 0.930 . S
H609 C617 0.930 . S
H610 C618 0.930 . S
H611 C619 0.930 . S
H612 C622 0.930 . S
H613 C623 0.930 . S
C614 H608 0.930 . S
C614 C615 1.355 . S
C614 C616 1.415 . S
C615 C614 1.355 . S
C615 C617 1.419 . S
C616 C614 1.415 . S
C616 C621 1.425 . S
C616 C623 1.409 . S
C617 H609 0.930 . S
C617 C615 1.419 . S
C617 C618 1.362 . S
C618 H610 0.930 . S
C618 C617 1.362 . S
C618 C621 1.409 . S
C619 H611 0.930 . S
C619 C620 1.355 . S
C619 C621 1.415 . S
C620 C619 1.355 . S
C620 C622 1.419 . S
C621 C616 1.425 . S
C621 C618 1.409 . S
C621 C619 1.415 . S
C622 H612 0.930 . S
C622 C620 1.419 . S
C622 C623 1.362 . S
C623 H613 0.930 . S
C623 C616 1.409 . S
C623 C622 1.362 . S
H624 C630 0.930 . S
H625 C633 0.932 . S
H626 C634 0.930 . S
H627 C635 0.930 . S
H628 C638 0.930 . S
H629 C639 0.930 . S
C630 H624 0.930 . S
C630 C631 1.355 . S
C630 C632 1.415 . S
C631 C630 1.355 . S
C631 C633 1.419 . S
C632 C630 1.415 . S
C632 C637 1.425 . S
C632 C639 1.409 . S
C633 H625 0.932 . S
C633 C631 1.419 . S
C633 C634 1.362 . S
C634 H626 0.930 . S
C634 C633 1.362 . S
C634 C637 1.409 . S
C635 H627 0.930 . S
C635 C636 1.355 . S
C635 C637 1.415 . S
C636 C635 1.355 . S
C636 C638 1.419 . S
C637 C632 1.425 . S
C637 C634 1.409 . S
C637 C635 1.415 . S
C638 H628 0.930 . S
C638 C636 1.419 . S
C638 C639 1.362 . S
C639 H629 0.930 . S
C639 C632 1.409 . S
C639 C638 1.362 . S
H640 C646 0.930 . S
H641 C649 0.930 . S
H642 C650 0.930 . S
H643 C651 0.930 . S
H644 C654 0.930 . S
H645 C655 0.930 . S
C646 H640 0.930 . S
C646 C647 1.355 1_655 S
C646 C648 1.415 . S
C647 C646 1.355 1_455 S
C647 C649 1.419 . S
C648 C646 1.415 . S
C648 C653 1.425 1_655 S
C648 C655 1.409 . S
C649 H641 0.930 . S
C649 C647 1.419 . S
C649 C650 1.362 . S
C650 H642 0.930 . S
C650 C649 1.362 . S
C650 C653 1.409 . S
C651 H643 0.930 . S
C651 C652 1.355 . S
C651 C653 1.415 . S
C652 C651 1.355 . S
C652 C654 1.419 1_455 S
C653 C648 1.425 1_455 S
C653 C650 1.409 . S
C653 C651 1.415 . S
C654 H644 0.930 . S
C654 C652 1.419 1_655 S
C654 C655 1.362 . S
C655 H645 0.930 . S
C655 C648 1.409 . S
C655 C654 1.362 . S
H656 C662 0.930 . S
H657 C665 0.930 . S
H658 C666 0.930 . S
H659 C667 0.930 . S
H660 C670 0.930 . S
H661 C671 0.930 . S
C662 H656 0.930 . S
C662 C663 1.355 . S
C662 C664 1.415 . S
C663 C662 1.355 . S
C663 C665 1.419 . S
C664 C662 1.415 . S
C664 C669 1.425 . S
C664 C671 1.409 . S
C665 H657 0.930 . S
C665 C663 1.419 . S
C665 C666 1.362 . S
C666 H658 0.930 . S
C666 C665 1.362 . S
C666 C669 1.409 . S
C667 H659 0.930 . S
C667 C668 1.355 . S
C667 C669 1.415 . S
C668 C667 1.355 . S
C668 C670 1.419 . S
C669 C664 1.425 . S
C669 C666 1.409 . S
C669 C667 1.415 . S
C670 H660 0.930 . S
C670 C668 1.419 . S
C670 C671 1.362 . S
C671 H661 0.930 . S
C671 C664 1.409 . S
C671 C670 1.362 . S
H672 C678 0.930 . S
H673 C681 0.930 . S
H674 C682 0.930 . S
H675 C683 0.930 . S
H676 C686 0.930 . S
H677 C687 0.930 . S
C678 H672 0.930 . S
C678 C679 1.355 1_655 S
C678 C680 1.415 . S
C679 C678 1.355 1_455 S
C679 C681 1.419 . S
C680 C678 1.415 . S
C680 C685 1.425 1_655 S
C680 C687 1.409 . S
C681 H673 0.930 . S
C681 C679 1.419 . S
C681 C682 1.362 . S
C682 H674 0.930 . S
C682 C681 1.362 . S
C682 C685 1.409 . S
C683 H675 0.930 . S
C683 C684 1.355 1_455 S
C683 C685 1.415 . S
C684 C683 1.355 1_655 S
C684 C686 1.419 . S
C685 C680 1.425 1_455 S
C685 C682 1.409 . S
C685 C683 1.415 . S
C686 H676 0.930 . S
C686 C684 1.419 . S
C686 C687 1.362 . S
C687 H677 0.930 . S
C687 C680 1.409 . S
C687 C686 1.362 . S
H688 C694 0.930 . S
H689 C697 0.930 . S
H690 C698 0.930 . S
H691 C699 0.930 . S
H692 C702 0.930 . S
H693 C703 0.930 . S
C694 H688 0.930 . S
C694 C695 1.355 . S
C694 C696 1.415 . S
C695 C694 1.355 . S
C695 C697 1.419 . S
C696 C694 1.415 . S
C696 C701 1.425 . S
C696 C703 1.409 . S
C697 H689 0.930 . S
C697 C695 1.419 . S
C697 C698 1.362 . S
C698 H690 0.930 . S
C698 C697 1.362 . S
C698 C701 1.409 . S
C699 H691 0.930 . S
C699 C700 1.355 . S
C699 C701 1.415 . S
C700 C699 1.355 . S
C700 C702 1.419 . S
C701 C696 1.425 . S
C701 C698 1.409 . S
C701 C699 1.415 . S
C702 H692 0.930 . S
C702 C700 1.419 . S
C702 C703 1.362 . S
C703 H693 0.930 . S
C703 C696 1.409 . S
C703 C702 1.362 . S
H704 C710 0.930 . S
H705 C713 0.930 . S
H706 C714 0.930 . S
H707 C715 0.930 . S
H708 C718 0.930 . S
H709 C719 0.930 . S
C710 H704 0.930 . S
C710 C711 1.355 . S
C710 C712 1.415 . S
C711 C710 1.355 . S
C711 C713 1.419 1_565 S
C712 C710 1.415 . S
C712 C717 1.425 1_565 S
C712 C719 1.409 . S
C713 H705 0.930 . S
C713 C711 1.419 1_545 S
C713 C714 1.362 . S
C714 H706 0.930 . S
C714 C713 1.362 . S
C714 C717 1.409 . S
C715 H707 0.930 . S
C715 C716 1.355 1_545 S
C715 C717 1.415 . S
C716 C715 1.355 1_565 S
C716 C718 1.420 . S
C717 C712 1.425 1_545 S
C717 C714 1.409 . S
C717 C715 1.415 . S
C718 H708 0.930 . S
C718 C716 1.420 . S
C718 C719 1.362 . S
C719 H709 0.930 . S
C719 C712 1.409 . S
C719 C718 1.362 . S
H720 C726 0.931 1_565 S
H721 C729 0.930 . S
H722 C730 0.930 . S
H723 C731 0.930 . S
H724 C734 0.930 . S
H725 C735 0.930 . S
C726 H720 0.931 1_545 S
C726 C727 1.355 . S
C726 C728 1.414 1_545 S
C727 C726 1.355 . S
C727 C729 1.419 . S
C728 C726 1.414 1_565 S
C728 C733 1.425 1_565 S
C728 C735 1.410 . S
C729 H721 0.930 . S
C729 C727 1.419 . S
C729 C730 1.362 . S
C730 H722 0.930 . S
C730 C729 1.362 . S
C730 C733 1.409 . S
C731 H723 0.930 . S
C731 C732 1.355 1_545 S
C731 C733 1.415 . S
C732 C731 1.355 1_565 S
C732 C734 1.419 . S
C733 C728 1.425 1_545 S
C733 C730 1.409 . S
C733 C731 1.415 . S
C734 H724 0.930 . S
C734 C732 1.419 . S
C734 C735 1.362 . S
C735 H725 0.930 . S
C735 C728 1.410 . S
C735 C734 1.362 . S
H736 C742 0.930 . S
H737 C745 0.930 . S
H738 C746 0.930 . S
H739 C747 0.930 . S
H740 C750 0.930 . S
H741 C751 0.930 . S
C742 H736 0.930 . S
C742 C743 1.355 1_455 S
C742 C744 1.415 . S
C743 C742 1.355 1_655 S
C743 C745 1.419 . S
C744 C742 1.415 . S
C744 C749 1.425 1_455 S
C744 C751 1.409 . S
C745 H737 0.930 . S
C745 C743 1.419 . S
C745 C746 1.362 . S
C746 H738 0.930 . S
C746 C745 1.362 . S
C746 C749 1.409 . S
C747 H739 0.930 . S
C747 C748 1.354 1_655 S
C747 C749 1.415 . S
C748 C747 1.354 1_455 S
C748 C750 1.419 . S
C749 C744 1.425 1_655 S
C749 C746 1.409 . S
C749 C747 1.415 . S
C750 H740 0.930 . S
C750 C748 1.419 . S
C750 C751 1.362 . S
C751 H741 0.930 . S
C751 C744 1.409 . S
C751 C750 1.362 . S
H752 C758 0.930 . S
H753 C761 0.930 . S
H754 C762 0.930 . S
H755 C763 0.930 . S
H756 C766 0.930 . S
H757 C767 0.930 . S
C758 H752 0.930 . S
C758 C759 1.355 . S
C758 C760 1.415 . S
C759 C758 1.355 . S
C759 C761 1.419 . S
C760 C758 1.415 . S
C760 C765 1.425 . S
C760 C767 1.409 . S
C761 H753 0.930 . S
C761 C759 1.419 . S
C761 C762 1.362 . S
C762 H754 0.930 . S
C762 C761 1.362 . S
C762 C765 1.409 . S
C763 H755 0.930 . S
C763 C764 1.355 . S
C763 C765 1.415 . S
C764 C763 1.355 . S
C764 C766 1.419 . S
C765 C760 1.425 . S
C765 C762 1.409 . S
C765 C763 1.415 . S
C766 H756 0.930 . S
C766 C764 1.419 . S
C766 C767 1.362 . S
C767 H757 0.930 . S
C767 C760 1.409 . S
C767 C766 1.362 . S
H768 C774 0.930 . S
H769 C777 0.930 . S
H770 C778 0.930 . S
H771 C779 0.930 . S
H772 C782 0.930 . S
H773 C783 0.930 . S
C774 H768 0.930 . S
C774 C775 1.355 . S
C774 C776 1.415 . S
C775 C774 1.355 . S
C775 C777 1.419 . S
C776 C774 1.415 . S
C776 C781 1.425 . S
C776 C783 1.409 . S
C777 H769 0.930 . S
C777 C775 1.419 . S
C777 C778 1.362 . S
C778 H770 0.930 . S
C778 C777 1.362 . S
C778 C781 1.409 . S
C779 H771 0.930 . S
C779 C780 1.355 . S
C779 C781 1.415 . S
C780 C779 1.355 . S
C780 C782 1.419 . S
C781 C776 1.425 . S
C781 C778 1.409 . S
C781 C779 1.415 . S
C782 H772 0.930 . S
C782 C780 1.419 . S
C782 C783 1.362 . S
C783 H773 0.930 . S
C783 C776 1.409 . S
C783 C782 1.362 . S
H784 C790 0.930 . S
H785 C793 0.930 . S
H786 C794 0.930 . S
H787 C795 0.930 . S
H788 C798 0.930 . S
H789 C799 0.930 . S
C790 H784 0.930 . S
C790 C791 1.355 . S
C790 C792 1.415 . S
C791 C790 1.355 . S
C791 C793 1.419 . S
C792 C790 1.415 . S
C792 C797 1.425 . S
C792 C799 1.409 . S
C793 H785 0.930 . S
C793 C791 1.419 . S
C793 C794 1.362 . S
C794 H786 0.930 . S
C794 C793 1.362 . S
C794 C797 1.409 . S
C795 H787 0.930 . S
C795 C796 1.355 . S
C795 C797 1.415 . S
C796 C795 1.355 . S
C796 C798 1.419 . S
C797 C792 1.425 . S
C797 C794 1.409 . S
C797 C795 1.415 . S
C798 H788 0.930 . S
C798 C796 1.419 . S
C798 C799 1.362 . S
C799 H789 0.930 . S
C799 C792 1.409 . S
C799 C798 1.362 . S
H800 C806 0.930 . S
H801 C809 0.930 . S
H802 C810 0.930 . S
H803 C811 0.930 . S
H804 C814 0.930 . S
H805 C815 0.930 . S
C806 H800 0.930 . S
C806 C807 1.355 . S
C806 C808 1.415 . S
C807 C806 1.355 . S
C807 C809 1.419 . S
C808 C806 1.415 . S
C808 C813 1.425 . S
C808 C815 1.409 . S
C809 H801 0.930 . S
C809 C807 1.419 . S
C809 C810 1.362 . S
C810 H802 0.930 . S
C810 C809 1.362 . S
C810 C813 1.409 . S
C811 H803 0.930 . S
C811 C812 1.355 . S
C811 C813 1.415 . S
C812 C811 1.355 . S
C812 C814 1.419 . S
C813 C808 1.425 . S
C813 C810 1.409 . S
C813 C811 1.415 . S
C814 H804 0.930 . S
C814 C812 1.419 . S
C814 C815 1.362 . S
C815 H805 0.930 . S
C815 C808 1.409 . S
C815 C814 1.362 . S
H816 C822 0.930 . S
H817 C825 0.930 . S
H818 C826 0.930 . S
H819 C827 0.930 . S
H820 C830 0.930 . S
H821 C831 0.930 . S
C822 H816 0.930 . S
C822 C823 1.355 . S
C822 C824 1.415 . S
C823 C822 1.355 . S
C823 C825 1.419 . S
C824 C822 1.415 . S
C824 C829 1.425 . S
C824 C831 1.409 . S
C825 H817 0.930 . S
C825 C823 1.419 . S
C825 C826 1.362 . S
C826 H818 0.930 . S
C826 C825 1.362 . S
C826 C829 1.409 . S
C827 H819 0.930 . S
C827 C828 1.355 . S
C827 C829 1.415 . S
C828 C827 1.355 . S
C828 C830 1.419 . S
C829 C824 1.425 . S
C829 C826 1.409 . S
C829 C827 1.415 . S
C830 H820 0.930 . S
C830 C828 1.419 . S
C830 C831 1.362 . S
C831 H821 0.930 . S
C831 C824 1.409 . S
C831 C830 1.362 . S
H832 C838 0.930 . S
H833 C841 0.930 . S
H834 C842 0.930 . S
H835 C843 0.930 . S
H836 C846 0.930 . S
H837 C847 0.930 . S
C838 H832 0.930 . S
C838 C839 1.355 . S
C838 C840 1.415 . S
C839 C838 1.355 . S
C839 C841 1.419 . S
C840 C838 1.415 . S
C840 C845 1.425 . S
C840 C847 1.409 . S
C841 H833 0.930 . S
C841 C839 1.419 . S
C841 C842 1.362 . S
C842 H834 0.930 . S
C842 C841 1.362 . S
C842 C845 1.409 . S
C843 H835 0.930 . S
C843 C844 1.355 . S
C843 C845 1.415 . S
C844 C843 1.355 . S
C844 C846 1.419 . S
C845 C840 1.425 . S
C845 C842 1.409 . S
C845 C843 1.415 . S
C846 H836 0.930 . S
C846 C844 1.419 . S
C846 C847 1.362 . S
C847 H837 0.930 . S
C847 C840 1.409 . S
C847 C846 1.362 . S
H848 C854 0.930 . S
H849 C857 0.930 . S
H850 C858 0.930 . S
H851 C859 0.930 . S
H852 C862 0.930 . S
H853 C863 0.930 . S
C854 H848 0.930 . S
C854 C855 1.355 . S
C854 C856 1.415 . S
C855 C854 1.355 . S
C855 C857 1.419 . S
C856 C854 1.415 . S
C856 C861 1.425 . S
C856 C863 1.409 . S
C857 H849 0.930 . S
C857 C855 1.419 . S
C857 C858 1.362 . S
C858 H850 0.930 . S
C858 C857 1.362 . S
C858 C861 1.409 . S
C859 H851 0.930 . S
C859 C860 1.355 . S
C859 C861 1.415 . S
C860 C859 1.355 . S
C860 C862 1.419 . S
C861 C856 1.425 . S
C861 C858 1.409 . S
C861 C859 1.415 . S
C862 H852 0.930 . S
C862 C860 1.419 . S
C862 C863 1.362 . S
C863 H853 0.930 . S
C863 C856 1.409 . S
C863 C862 1.362 . S
H864 C870 0.930 . S
H865 C873 0.930 . S
H866 C874 0.930 . S
H867 C875 0.930 . S
H868 C878 0.930 . S
H869 C879 0.930 . S
C870 H864 0.930 . S
C870 C871 1.355 . S
C870 C872 1.415 . S
C871 C870 1.355 . S
C871 C873 1.419 . S
C872 C870 1.415 . S
C872 C877 1.425 . S
C872 C879 1.409 . S
C873 H865 0.930 . S
C873 C871 1.419 . S
C873 C874 1.362 . S
C874 H866 0.930 . S
C874 C873 1.362 . S
C874 C877 1.409 . S
C875 H867 0.930 . S
C875 C876 1.355 . S
C875 C877 1.415 . S
C876 C875 1.355 . S
C876 C878 1.419 . S
C877 C872 1.425 . S
C877 C874 1.409 . S
C877 C875 1.415 . S
C878 H868 0.930 . S
C878 C876 1.419 . S
C878 C879 1.362 . S
C879 H869 0.930 . S
C879 C872 1.409 . S
C879 C878 1.362 . S
H880 C886 0.930 . S
H881 C889 0.930 . S
H882 C890 0.930 . S
H883 C891 0.930 . S
H884 C894 0.930 . S
H885 C895 0.930 . S
C886 H880 0.930 . S
C886 C887 1.355 . S
C886 C888 1.415 . S
C887 C886 1.355 . S
C887 C889 1.419 . S
C888 C886 1.415 . S
C888 C893 1.425 . S
C888 C895 1.409 . S
C889 H881 0.930 . S
C889 C887 1.419 . S
C889 C890 1.362 . S
C890 H882 0.930 . S
C890 C889 1.362 . S
C890 C893 1.409 . S
C891 H883 0.930 . S
C891 C892 1.355 . S
C891 C893 1.415 . S
C892 C891 1.355 . S
C892 C894 1.419 . S
C893 C888 1.425 . S
C893 C890 1.409 . S
C893 C891 1.415 . S
C894 H884 0.930 . S
C894 C892 1.419 . S
C894 C895 1.362 . S
C895 H885 0.930 . S
C895 C888 1.409 . S
C895 C894 1.362 . S
H896 C902 0.930 . S
H897 C905 0.930 . S
H898 C906 0.930 . S
H899 C907 0.930 . S
H900 C910 0.930 . S
H901 C911 0.930 . S
C902 H896 0.930 . S
C902 C903 1.355 . S
C902 C904 1.415 . S
C903 C902 1.355 . S
C903 C905 1.419 . S
C904 C902 1.415 . S
C904 C909 1.425 . S
C904 C911 1.409 . S
C905 H897 0.930 . S
C905 C903 1.419 . S
C905 C906 1.362 . S
C906 H898 0.930 . S
C906 C905 1.362 . S
C906 C909 1.409 . S
C907 H899 0.930 . S
C907 C908 1.355 . S
C907 C909 1.415 . S
C908 C907 1.355 . S
C908 C910 1.419 . S
C909 C904 1.425 . S
C909 C906 1.409 . S
C909 C907 1.415 . S
C910 H900 0.930 . S
C910 C908 1.419 . S
C910 C911 1.362 . S
C911 H901 0.930 . S
C911 C904 1.409 . S
C911 C910 1.362 . S
H912 C918 0.930 . S
H913 C921 0.930 . S
H914 C922 0.930 . S
H915 C923 0.930 . S
H916 C926 0.930 . S
H917 C927 0.930 . S
C918 H912 0.930 . S
C918 C919 1.355 . S
C918 C920 1.415 . S
C919 C918 1.355 . S
C919 C921 1.419 . S
C920 C918 1.415 . S
C920 C925 1.425 . S
C920 C927 1.409 . S
C921 H913 0.930 . S
C921 C919 1.419 . S
C921 C922 1.362 . S
C922 H914 0.930 . S
C922 C921 1.362 . S
C922 C925 1.409 . S
C923 H915 0.930 . S
C923 C924 1.355 . S
C923 C925 1.415 . S
C924 C923 1.355 . S
C924 C926 1.419 . S
C925 C920 1.425 . S
C925 C922 1.409 . S
C925 C923 1.415 . S
C926 H916 0.930 . S
C926 C924 1.419 . S
C926 C927 1.362 . S
C927 H917 0.930 . S
C927 C920 1.409 . S
C927 C926 1.362 . S
H928 C934 0.930 . S
H929 C937 0.930 . S
H930 C938 0.930 . S
H931 C939 0.930 . S
H932 C942 0.930 . S
H933 C943 0.930 . S
C934 H928 0.930 . S
C934 C935 1.355 . S
C934 C936 1.415 . S
C935 C934 1.355 . S
C935 C937 1.419 . S
C936 C934 1.415 . S
C936 C941 1.425 . S
C936 C943 1.409 . S
C937 H929 0.930 . S
C937 C935 1.419 . S
C937 C938 1.362 . S
C938 H930 0.930 . S
C938 C937 1.362 . S
C938 C941 1.409 . S
C939 H931 0.930 . S
C939 C940 1.355 . S
C939 C941 1.415 . S
C940 C939 1.355 . S
C940 C942 1.419 . S
C941 C936 1.425 . S
C941 C938 1.409 . S
C941 C939 1.415 . S
C942 H932 0.930 . S
C942 C940 1.419 . S
C942 C943 1.362 . S
C943 H933 0.930 . S
C943 C936 1.409 . S
C943 C942 1.362 . S
H944 C950 0.930 . S
H945 C953 0.930 . S
H946 C954 0.930 . S
H947 C955 0.930 . S
H948 C958 0.930 . S
H949 C959 0.930 . S
C950 H944 0.930 . S
C950 C951 1.355 . S
C950 C952 1.415 . S
C951 C950 1.355 . S
C951 C953 1.419 . S
C952 C950 1.415 . S
C952 C957 1.425 . S
C952 C959 1.409 . S
C953 H945 0.930 . S
C953 C951 1.419 . S
C953 C954 1.362 . S
C954 H946 0.930 . S
C954 C953 1.362 . S
C954 C957 1.409 . S
C955 H947 0.930 . S
C955 C956 1.355 . S
C955 C957 1.415 . S
C956 C955 1.355 . S
C956 C958 1.419 . S
C957 C952 1.425 . S
C957 C954 1.409 . S
C957 C955 1.415 . S
C958 H948 0.930 . S
C958 C956 1.419 . S
C958 C959 1.362 . S
C959 H949 0.930 . S
C959 C952 1.409 . S
C959 C958 1.362 . S
H960 C966 0.930 . S
H961 C969 0.930 . S
H962 C970 0.930 . S
H963 C971 0.930 . S
H964 C974 0.930 . S
H965 C975 0.930 . S
C966 H960 0.930 . S
C966 C967 1.355 . S
C966 C968 1.415 . S
C967 C966 1.355 . S
C967 C969 1.419 . S
C968 C966 1.415 . S
C968 C973 1.425 . S
C968 C975 1.409 . S
C969 H961 0.930 . S
C969 C967 1.419 . S
C969 C970 1.362 . S
C970 H962 0.930 . S
C970 C969 1.362 . S
C970 C973 1.409 . S
C971 H963 0.930 . S
C971 C972 1.355 . S
C971 C973 1.415 . S
C972 C971 1.355 . S
C972 C974 1.419 . S
C973 C968 1.425 . S
C973 C970 1.409 . S
C973 C971 1.415 . S
C974 H964 0.930 . S
C974 C972 1.419 . S
C974 C975 1.362 . S
C975 H965 0.930 . S
C975 C968 1.409 . S
C975 C974 1.362 . S
H976 C982 0.930 . S
H977 C985 0.930 . S
H978 C986 0.930 . S
H979 C987 0.930 . S
H980 C990 0.930 . S
H981 C991 0.930 . S
C982 H976 0.930 . S
C982 C983 1.355 . S
C982 C984 1.415 . S
C983 C982 1.355 . S
C983 C985 1.419 . S
C984 C982 1.415 . S
C984 C989 1.425 . S
C984 C991 1.409 . S
C985 H977 0.930 . S
C985 C983 1.419 . S
C985 C986 1.362 . S
C986 H978 0.930 . S
C986 C985 1.362 . S
C986 C989 1.409 . S
C987 H979 0.930 . S
C987 C988 1.355 . S
C987 C989 1.415 . S
C988 C987 1.355 . S
C988 C990 1.419 . S
C989 C984 1.425 . S
C989 C986 1.409 . S
C989 C987 1.415 . S
C990 H980 0.930 . S
C990 C988 1.419 . S
C990 C991 1.362 . S
C991 H981 0.930 . S
C991 C984 1.409 . S
C991 C990 1.362 . S
H992 C998 0.930 . S
H993 C1001 0.930 . S
H994 C1002 0.930 . S
H995 C1003 0.930 . S
H996 C1006 0.930 . S
H997 C1007 0.930 . S
C998 H992 0.930 . S
C998 C999 1.355 . S
C998 C1000 1.415 . S
C999 C998 1.355 . S
C999 C1001 1.419 . S
C1000 C998 1.415 . S
C1000 C1005 1.425 . S
C1000 C1007 1.409 . S
C1001 H993 0.930 . S
C1001 C999 1.419 . S
C1001 C1002 1.362 . S
C1002 H994 0.930 . S
C1002 C1001 1.362 . S
C1002 C1005 1.409 . S
C1003 H995 0.930 . S
C1003 C1004 1.355 . S
C1003 C1005 1.415 . S
C1004 C1003 1.355 . S
C1004 C1006 1.419 . S
C1005 C1000 1.425 . S
C1005 C1002 1.409 . S
C1005 C1003 1.415 . S
C1006 H996 0.930 . S
C1006 C1004 1.419 . S
C1006 C1007 1.362 . S
C1007 H997 0.930 . S
C1007 C1000 1.409 . S
C1007 C1006 1.362 . S
H1008 C1014 0.930 . S
H1009 C1017 0.930 . S
H1010 C1018 0.930 . S
H1011 C1019 0.930 . S
H1012 C1022 0.930 . S
H1013 C1023 0.930 . S
C1014 H1008 0.930 . S
C1014 C1015 1.355 . S
C1014 C1016 1.415 . S
C1015 C1014 1.355 . S
C1015 C1017 1.419 . S
C1016 C1014 1.415 . S
C1016 C1021 1.425 . S
C1016 C1023 1.409 . S
C1017 H1009 0.930 . S
C1017 C1015 1.419 . S
C1017 C1018 1.362 . S
C1018 H1010 0.930 . S
C1018 C1017 1.362 . S
C1018 C1021 1.409 . S
C1019 H1011 0.930 . S
C1019 C1020 1.355 . S
C1019 C1021 1.415 . S
C1020 C1019 1.355 . S
C1020 C1022 1.419 . S
C1021 C1016 1.425 . S
C1021 C1018 1.409 . S
C1021 C1019 1.415 . S
C1022 H1012 0.930 . S
C1022 C1020 1.419 . S
C1022 C1023 1.362 . S
C1023 H1013 0.930 . S
C1023 C1016 1.409 . S
C1023 C1022 1.362 . S
H1024 C1030 0.930 . S
H1025 C1033 0.930 . S
H1026 C1034 0.930 . S
H1027 C1035 0.930 . S
H1028 C1038 0.930 . S
H1029 C1039 0.930 . S
C1030 H1024 0.930 . S
C1030 C1031 1.355 . S
C1030 C1032 1.415 . S
C1031 C1030 1.355 . S
C1031 C1033 1.419 . S
C1032 C1030 1.415 . S
C1032 C1037 1.425 . S
C1032 C1039 1.409 . S
C1033 H1025 0.930 . S
C1033 C1031 1.419 . S
C1033 C1034 1.362 . S
C1034 H1026 0.930 . S
C1034 C1033 1.362 . S
C1034 C1037 1.409 . S
C1035 H1027 0.930 . S
C1035 C1036 1.355 . S
C1035 C1037 1.415 . S
C1036 C1035 1.355 . S
C1036 C1038 1.419 . S
C1037 C1032 1.425 . S
C1037 C1034 1.409 . S
C1037 C1035 1.415 . S
C1038 H1028 0.930 . S
C1038 C1036 1.419 . S
C1038 C1039 1.362 . S
C1039 H1029 0.930 . S
C1039 C1032 1.409 . S
C1039 C1038 1.362 . S
H1040 C1046 0.930 . S
H1041 C1049 0.930 . S
H1042 C1050 0.930 . S
H1043 C1051 0.930 . S
H1044 C1054 0.930 . S
H1045 C1055 0.930 . S
C1046 H1040 0.930 . S
C1046 C1047 1.355 . S
C1046 C1048 1.415 . S
C1047 C1046 1.355 . S
C1047 C1049 1.419 . S
C1048 C1046 1.415 . S
C1048 C1053 1.425 . S
C1048 C1055 1.409 . S
C1049 H1041 0.930 . S
C1049 C1047 1.419 . S
C1049 C1050 1.362 . S
C1050 H1042 0.930 . S
C1050 C1049 1.362 . S
C1050 C1053 1.409 . S
C1051 H1043 0.930 . S
C1051 C1052 1.355 . S
C1051 C1053 1.415 . S
C1052 C1051 1.355 . S
C1052 C1054 1.419 . S
C1053 C1048 1.425 . S
C1053 C1050 1.409 . S
C1053 C1051 1.415 . S
C1054 H1044 0.930 . S
C1054 C1052 1.419 . S
C1054 C1055 1.362 . S
C1055 H1045 0.930 . S
C1055 C1048 1.409 . S
C1055 C1054 1.362 . S
H1056 C1062 0.930 . S
H1057 C1065 0.930 . S
H1058 C1066 0.930 . S
H1059 C1067 0.930 . S
H1060 C1070 0.930 . S
H1061 C1071 0.930 . S
C1062 H1056 0.930 . S
C1062 C1063 1.355 . S
C1062 C1064 1.415 . S
C1063 C1062 1.355 . S
C1063 C1065 1.419 . S
C1064 C1062 1.415 . S
C1064 C1069 1.425 . S
C1064 C1071 1.409 . S
C1065 H1057 0.930 . S
C1065 C1063 1.419 . S
C1065 C1066 1.362 . S
C1066 H1058 0.930 . S
C1066 C1065 1.362 . S
C1066 C1069 1.409 . S
C1067 H1059 0.930 . S
C1067 C1068 1.355 . S
C1067 C1069 1.415 . S
C1068 C1067 1.355 . S
C1068 C1070 1.419 . S
C1069 C1064 1.425 . S
C1069 C1066 1.409 . S
C1069 C1067 1.415 . S
C1070 H1060 0.930 . S
C1070 C1068 1.419 . S
C1070 C1071 1.362 . S
C1071 H1061 0.930 . S
C1071 C1064 1.409 . S
C1071 C1070 1.362 . S
H1072 C1078 0.930 . S
H1073 C1081 0.930 . S
H1074 C1082 0.930 . S
H1075 C1083 0.930 . S
H1076 C1086 0.930 . S
H1077 C1087 0.930 . S
C1078 H1072 0.930 . S
C1078 C1079 1.355 . S
C1078 C1080 1.415 . S
C1079 C1078 1.355 . S
C1079 C1081 1.419 . S
C1080 C1078 1.415 . S
C1080 C1085 1.425 . S
C1080 C1087 1.409 . S
C1081 H1073 0.930 . S
C1081 C1079 1.419 . S
C1081 C1082 1.362 . S
C1082 H1074 0.930 . S
C1082 C1081 1.362 . S
C1082 C1085 1.409 . S
C1083 H1075 0.930 . S
C1083 C1084 1.355 . S
C1083 C1085 1.415 . S
C1084 C1083 1.355 . S
C1084 C1086 1.419 . S
C1085 C1080 1.425 . S
C1085 C1082 1.409 . S
C1085 C1083 1.415 . S
C1086 H1076 0.930 . S
C1086 C1084 1.419 . S
C1086 C1087 1.362 . S
C1087 H1077 0.930 . S
C1087 C1080 1.409 . S
C1087 C1086 1.362 . S
H1088 C1094 0.930 . S
H1089 C1097 0.930 . S
H1090 C1098 0.930 . S
H1091 C1099 0.930 . S
H1092 C1102 0.930 . S
H1093 C1103 0.930 . S
C1094 H1088 0.930 . S
C1094 C1095 1.355 . S
C1094 C1096 1.415 . S
C1095 C1094 1.355 . S
C1095 C1097 1.419 . S
C1096 C1094 1.415 . S
C1096 C1101 1.425 . S
C1096 C1103 1.409 . S
C1097 H1089 0.930 . S
C1097 C1095 1.419 . S
C1097 C1098 1.362 . S
C1098 H1090 0.930 . S
C1098 C1097 1.362 . S
C1098 C1101 1.409 . S
C1099 H1091 0.930 . S
C1099 C1100 1.355 . S
C1099 C1101 1.415 . S
C1100 C1099 1.355 . S
C1100 C1102 1.419 . S
C1101 C1096 1.425 . S
C1101 C1098 1.409 . S
C1101 C1099 1.415 . S
C1102 H1092 0.930 . S
C1102 C1100 1.419 . S
C1102 C1103 1.362 . S
C1103 H1093 0.930 . S
C1103 C1096 1.409 . S
C1103 C1102 1.362 . S
H1104 C1110 0.930 . S
H1105 C1113 0.930 . S
H1106 C1114 0.930 . S
H1107 C1115 0.930 . S
H1108 C1118 0.930 . S
H1109 C1119 0.930 . S
C1110 H1104 0.930 . S
C1110 C1111 1.355 . S
C1110 C1112 1.415 . S
C1111 C1110 1.355 . S
C1111 C1113 1.419 . S
C1112 C1110 1.415 . S
C1112 C1117 1.425 . S
C1112 C1119 1.409 . S
C1113 H1105 0.930 . S
C1113 C1111 1.419 . S
C1113 C1114 1.362 . S
C1114 H1106 0.930 . S
C1114 C1113 1.362 . S
C1114 C1117 1.409 . S
C1115 H1107 0.930 . S
C1115 C1116 1.355 . S
C1115 C1117 1.415 . S
C1116 C1115 1.355 . S
C1116 C1118 1.419 . S
C1117 C1112 1.425 . S
C1117 C1114 1.409 . S
C1117 C1115 1.415 . S
C1118 H1108 0.930 . S
C1118 C1116 1.419 . S
C1118 C1119 1.362 . S
C1119 H1109 0.930 . S
C1119 C1112 1.409 . S
C1119 C1118 1.362 . S
H1120 C1126 0.930 . S
H1121 C1129 0.930 . S
H1122 C1130 0.930 . S
H1123 C1131 0.930 . S
H1124 C1134 0.930 . S
H1125 C1135 0.930 . S
C1126 H1120 0.930 . S
C1126 C1127 1.355 . S
C1126 C1128 1.415 . S
C1127 C1126 1.355 . S
C1127 C1129 1.419 . S
C1128 C1126 1.415 . S
C1128 C1133 1.425 . S
C1128 C1135 1.409 . S
C1129 H1121 0.930 . S
C1129 C1127 1.419 . S
C1129 C1130 1.362 . S
C1130 H1122 0.930 . S
C1130 C1129 1.362 . S
C1130 C1133 1.409 . S
C1131 H1123 0.930 . S
C1131 C1132 1.355 . S
C1131 C1133 1.415 . S
C1132 C1131 1.355 . S
C1132 C1134 1.419 . S
C1133 C1128 1.425 . S
C1133 C1130 1.409 . S
C1133 C1131 1.415 . S
C1134 H1124 0.930 . S
C1134 C1132 1.419 . S
C1134 C1135 1.362 . S
C1135 H1125 0.930 . S
C1135 C1128 1.409 . S
C1135 C1134 1.362 . S
H1136 C1142 0.930 . S
H1137 C1145 0.930 . S
H1138 C1146 0.930 . S
H1139 C1147 0.930 . S
H1140 C1150 0.930 . S
H1141 C1151 0.930 . S
C1142 H1136 0.930 . S
C1142 C1143 1.355 . S
C1142 C1144 1.415 . S
C1143 C1142 1.355 . S
C1143 C1145 1.419 . S
C1144 C1142 1.415 . S
C1144 C1149 1.425 . S
C1144 C1151 1.409 . S
C1145 H1137 0.930 . S
C1145 C1143 1.419 . S
C1145 C1146 1.362 . S
C1146 H1138 0.930 . S
C1146 C1145 1.362 . S
C1146 C1149 1.409 . S
C1147 H1139 0.930 . S
C1147 C1148 1.355 . S
C1147 C1149 1.415 . S
C1148 C1147 1.355 . S
C1148 C1150 1.419 . S
C1149 C1144 1.425 . S
C1149 C1146 1.409 . S
C1149 C1147 1.415 . S
C1150 H1140 0.930 . S
C1150 C1148 1.419 . S
C1150 C1151 1.362 . S
C1151 H1141 0.930 . S
C1151 C1144 1.409 . S
C1151 C1150 1.362 . S
H1152 C1158 0.930 . S
H1153 C1161 0.930 . S
H1154 C1162 0.930 . S
H1155 C1163 0.930 . S
H1156 C1166 0.930 . S
H1157 C1167 0.930 . S
C1158 H1152 0.930 . S
C1158 C1159 1.355 . S
C1158 C1160 1.415 . S
C1159 C1158 1.355 . S
C1159 C1161 1.419 . S
C1160 C1158 1.415 . S
C1160 C1165 1.425 . S
C1160 C1167 1.409 . S
C1161 H1153 0.930 . S
C1161 C1159 1.419 . S
C1161 C1162 1.362 . S
C1162 H1154 0.930 . S
C1162 C1161 1.362 . S
C1162 C1165 1.409 . S
C1163 H1155 0.930 . S
C1163 C1164 1.355 . S
C1163 C1165 1.415 . S
C1164 C1163 1.355 . S
C1164 C1166 1.419 . S
C1165 C1160 1.425 . S
C1165 C1162 1.409 . S
C1165 C1163 1.415 . S
C1166 H1156 0.930 . S
C1166 C1164 1.419 . S
C1166 C1167 1.362 . S
C1167 H1157 0.930 . S
C1167 C1160 1.409 . S
C1167 C1166 1.362 . S
H1168 C1174 0.930 . S
H1169 C1177 0.930 . S
H1170 C1178 0.930 . S
H1171 C1179 0.930 . S
H1172 C1182 0.930 . S
H1173 C1183 0.930 . S
C1174 H1168 0.930 . S
C1174 C1175 1.355 . S
C1174 C1176 1.415 . S
C1175 C1174 1.355 . S
C1175 C1177 1.419 . S
C1176 C1174 1.415 . S
C1176 C1181 1.425 . S
C1176 C1183 1.409 . S
C1177 H1169 0.930 . S
C1177 C1175 1.419 . S
C1177 C1178 1.362 . S
C1178 H1170 0.930 . S
C1178 C1177 1.362 . S
C1178 C1181 1.409 . S
C1179 H1171 0.930 . S
C1179 C1180 1.355 . S
C1179 C1181 1.415 . S
C1180 C1179 1.355 . S
C1180 C1182 1.419 . S
C1181 C1176 1.425 . S
C1181 C1178 1.409 . S
C1181 C1179 1.415 . S
C1182 H1172 0.930 . S
C1182 C1180 1.419 . S
C1182 C1183 1.362 . S
C1183 H1173 0.930 . S
C1183 C1176 1.409 . S
C1183 C1182 1.362 . S
H1184 C1190 0.930 . S
H1185 C1193 0.930 . S
H1186 C1194 0.930 . S
H1187 C1195 0.930 . S
H1188 C1198 0.930 . S
H1189 C1199 0.930 . S
C1190 H1184 0.930 . S
C1190 C1191 1.355 . S
C1190 C1192 1.415 . S
C1191 C1190 1.355 . S
C1191 C1193 1.419 . S
C1192 C1190 1.415 . S
C1192 C1197 1.425 . S
C1192 C1199 1.409 . S
C1193 H1185 0.930 . S
C1193 C1191 1.419 . S
C1193 C1194 1.362 . S
C1194 H1186 0.930 . S
C1194 C1193 1.362 . S
C1194 C1197 1.409 . S
C1195 H1187 0.930 . S
C1195 C1196 1.355 . S
C1195 C1197 1.415 . S
C1196 C1195 1.355 . S
C1196 C1198 1.419 . S
C1197 C1192 1.425 . S
C1197 C1194 1.409 . S
C1197 C1195 1.415 . S
C1198 H1188 0.930 . S
C1198 C1196 1.419 . S
C1198 C1199 1.362 . S
C1199 H1189 0.930 . S
C1199 C1192 1.409 . S
C1199 C1198 1.362 . S
H1200 C1206 0.930 1_554 S
H1201 C1209 0.930 . S
H1202 C1210 0.930 . S
H1203 C1211 0.930 . S
H1204 C1214 0.930 . S
H1205 C1215 0.930 1_554 S
C1206 H1200 0.930 1_556 S
C1206 C1207 1.355 . S
C1206 C1208 1.415 . S
C1207 C1206 1.355 . S
C1207 C1209 1.419 . S
C1208 C1206 1.415 . S
C1208 C1213 1.425 . S
C1208 C1215 1.409 . S
C1209 H1201 0.930 . S
C1209 C1207 1.419 . S
C1209 C1210 1.362 . S
C1210 H1202 0.930 . S
C1210 C1209 1.362 . S
C1210 C1213 1.409 . S
C1211 H1203 0.930 . S
C1211 C1212 1.355 . S
C1211 C1213 1.415 . S
C1212 C1211 1.355 . S
C1212 C1214 1.419 . S
C1213 C1208 1.425 . S
C1213 C1210 1.409 . S
C1213 C1211 1.415 . S
C1214 H1204 0.930 . S
C1214 C1212 1.419 . S
C1214 C1215 1.362 . S
C1215 H1205 0.930 1_556 S
C1215 C1208 1.409 . S
C1215 C1214 1.362 . S
H1216 C1222 0.930 . S
H1217 C1225 0.930 . S
H1218 C1226 0.930 . S
H1219 C1227 0.930 . S
H1220 C1230 0.930 . S
H1221 C1231 0.930 . S
C1222 H1216 0.930 . S
C1222 C1223 1.355 . S
C1222 C1224 1.415 . S
C1223 C1222 1.355 . S
C1223 C1225 1.419 . S
C1224 C1222 1.415 . S
C1224 C1229 1.425 . S
C1224 C1231 1.409 . S
C1225 H1217 0.930 . S
C1225 C1223 1.419 . S
C1225 C1226 1.362 . S
C1226 H1218 0.930 . S
C1226 C1225 1.362 . S
C1226 C1229 1.409 . S
C1227 H1219 0.930 . S
C1227 C1228 1.355 . S
C1227 C1229 1.415 . S
C1228 C1227 1.355 . S
C1228 C1230 1.419 . S
C1229 C1224 1.425 . S
C1229 C1226 1.409 . S
C1229 C1227 1.415 . S
C1230 H1220 0.930 . S
C1230 C1228 1.419 . S
C1230 C1231 1.362 . S
C1231 H1221 0.930 . S
C1231 C1224 1.409 . S
C1231 C1230 1.362 . S
H1232 C1238 0.930 . S
H1233 C1241 0.930 . S
H1234 C1242 0.930 . S
H1235 C1243 0.930 . S
H1236 C1246 0.930 . S
H1237 C1247 0.930 . S
C1238 H1232 0.930 . S
C1238 C1239 1.355 . S
C1238 C1240 1.415 . S
C1239 C1238 1.355 . S
C1239 C1241 1.419 . S
C1240 C1238 1.415 . S
C1240 C1245 1.425 . S
C1240 C1247 1.409 . S
C1241 H1233 0.930 . S
C1241 C1239 1.419 . S
C1241 C1242 1.362 . S
C1242 H1234 0.930 . S
C1242 C1241 1.362 . S
C1242 C1245 1.409 . S
C1243 H1235 0.930 . S
C1243 C1244 1.355 . S
C1243 C1245 1.415 . S
C1244 C1243 1.355 . S
C1244 C1246 1.419 . S
C1245 C1240 1.425 . S
C1245 C1242 1.409 . S
C1245 C1243 1.415 . S
C1246 H1236 0.930 . S
C1246 C1244 1.419 . S
C1246 C1247 1.362 . S
C1247 H1237 0.930 . S
C1247 C1240 1.409 . S
C1247 C1246 1.362 . S
H1248 C1254 0.930 . S
H1249 C1257 0.930 1_554 S
H1250 C1258 0.930 1_554 S
H1251 C1259 0.930 . S
H1252 C1262 0.930 . S
H1253 C1263 0.930 . S
C1254 H1248 0.930 . S
C1254 C1255 1.355 . S
C1254 C1256 1.415 . S
C1255 C1254 1.355 . S
C1255 C1257 1.419 . S
C1256 C1254 1.415 . S
C1256 C1261 1.425 . S
C1256 C1263 1.409 . S
C1257 H1249 0.930 1_556 S
C1257 C1255 1.419 . S
C1257 C1258 1.362 . S
C1258 H1250 0.930 1_556 S
C1258 C1257 1.362 . S
C1258 C1261 1.409 . S
C1259 H1251 0.930 . S
C1259 C1260 1.355 . S
C1259 C1261 1.415 . S
C1260 C1259 1.355 . S
C1260 C1262 1.419 . S
C1261 C1256 1.425 . S
C1261 C1258 1.409 . S
C1261 C1259 1.415 . S
C1262 H1252 0.930 . S
C1262 C1260 1.419 . S
C1262 C1263 1.362 . S
C1263 H1253 0.930 . S
C1263 C1256 1.409 . S
C1263 C1262 1.362 . S
H1264 C1270 0.930 . S
H1265 C1273 0.930 1_554 S
H1266 C1274 0.930 1_554 S
H1267 C1275 0.930 . S
H1268 C1278 0.930 . S
H1269 C1279 0.930 . S
C1270 H1264 0.930 . S
C1270 C1271 1.355 . S
C1270 C1272 1.415 . S
C1271 C1270 1.355 . S
C1271 C1273 1.419 . S
C1272 C1270 1.415 . S
C1272 C1277 1.425 . S
C1272 C1279 1.409 . S
C1273 H1265 0.930 1_556 S
C1273 C1271 1.419 . S
C1273 C1274 1.362 . S
C1274 H1266 0.930 1_556 S
C1274 C1273 1.362 . S
C1274 C1277 1.409 . S
C1275 H1267 0.930 . S
C1275 C1276 1.355 . S
C1275 C1277 1.415 . S
C1276 C1275 1.355 . S
C1276 C1278 1.419 . S
C1277 C1272 1.425 . S
C1277 C1274 1.409 . S
C1277 C1275 1.415 . S
C1278 H1268 0.930 . S
C1278 C1276 1.419 . S
C1278 C1279 1.362 . S
C1279 H1269 0.930 . S
C1279 C1272 1.409 . S
C1279 C1278 1.362 . S
H1280 C1286 0.930 . S
H1281 C1289 0.930 . S
H1282 C1290 0.930 . S
H1283 C1291 0.930 . S
H1284 C1294 0.930 . S
H1285 C1295 0.930 . S
C1286 H1280 0.930 . S
C1286 C1287 1.355 . S
C1286 C1288 1.415 . S
C1287 C1286 1.355 . S
C1287 C1289 1.419 . S
C1288 C1286 1.415 . S
C1288 C1293 1.425 . S
C1288 C1295 1.409 . S
C1289 H1281 0.930 . S
C1289 C1287 1.419 . S
C1289 C1290 1.362 . S
C1290 H1282 0.930 . S
C1290 C1289 1.362 . S
C1290 C1293 1.409 . S
C1291 H1283 0.930 . S
C1291 C1292 1.355 . S
C1291 C1293 1.415 . S
C1292 C1291 1.355 . S
C1292 C1294 1.419 . S
C1293 C1288 1.425 . S
C1293 C1290 1.409 . S
C1293 C1291 1.415 . S
C1294 H1284 0.930 . S
C1294 C1292 1.419 . S
C1294 C1295 1.362 . S
C1295 H1285 0.930 . S
C1295 C1288 1.409 . S
C1295 C1294 1.362 . S
H1296 C1302 0.930 . S
H1297 C1305 0.930 . S
H1298 C1306 0.930 . S
H1299 C1307 0.930 . S
H1300 C1310 0.930 . S
H1301 C1311 0.930 . S
C1302 H1296 0.930 . S
C1302 C1303 1.355 . S
C1302 C1304 1.415 . S
C1303 C1302 1.355 . S
C1303 C1305 1.419 . S
C1304 C1302 1.415 . S
C1304 C1309 1.425 . S
C1304 C1311 1.409 . S
C1305 H1297 0.930 . S
C1305 C1303 1.419 . S
C1305 C1306 1.362 . S
C1306 H1298 0.930 . S
C1306 C1305 1.362 . S
C1306 C1309 1.409 . S
C1307 H1299 0.930 . S
C1307 C1308 1.355 . S
C1307 C1309 1.415 . S
C1308 C1307 1.355 . S
C1308 C1310 1.419 . S
C1309 C1304 1.425 . S
C1309 C1306 1.409 . S
C1309 C1307 1.415 . S
C1310 H1300 0.930 . S
C1310 C1308 1.419 . S
C1310 C1311 1.362 . S
C1311 H1301 0.930 . S
C1311 C1304 1.409 . S
C1311 C1310 1.362 . S
H1312 C1318 0.930 . S
H1313 C1321 0.930 1_556 S
H1314 C1322 0.930 . S
H1315 C1323 0.930 . S
H1316 C1326 0.930 . S
H1317 C1327 0.930 . S
C1318 H1312 0.930 . S
C1318 C1319 1.355 . S
C1318 C1320 1.415 . S
C1319 C1318 1.355 . S
C1319 C1321 1.419 . S
C1320 C1318 1.415 . S
C1320 C1325 1.425 . S
C1320 C1327 1.409 . S
C1321 H1313 0.930 1_554 S
C1321 C1319 1.419 . S
C1321 C1322 1.362 . S
C1322 H1314 0.930 . S
C1322 C1321 1.362 . S
C1322 C1325 1.409 . S
C1323 H1315 0.930 . S
C1323 C1324 1.355 . S
C1323 C1325 1.415 . S
C1324 C1323 1.355 . S
C1324 C1326 1.419 . S
C1325 C1320 1.425 . S
C1325 C1322 1.409 . S
C1325 C1323 1.415 . S
C1326 H1316 0.930 . S
C1326 C1324 1.419 . S
C1326 C1327 1.362 . S
C1327 H1317 0.930 . S
C1327 C1320 1.409 . S
C1327 C1326 1.362 . S
H1328 C1334 0.930 . S
H1329 C1337 0.930 . S
H1330 C1338 0.930 . S
H1331 C1339 0.930 . S
H1332 C1342 0.930 . S
H1333 C1343 0.930 . S
C1334 H1328 0.930 . S
C1334 C1335 1.355 . S
C1334 C1336 1.415 . S
C1335 C1334 1.355 . S
C1335 C1337 1.419 . S
C1336 C1334 1.415 . S
C1336 C1341 1.425 . S
C1336 C1343 1.409 . S
C1337 H1329 0.930 . S
C1337 C1335 1.419 . S
C1337 C1338 1.362 . S
C1338 H1330 0.930 . S
C1338 C1337 1.362 . S
C1338 C1341 1.409 . S
C1339 H1331 0.930 . S
C1339 C1340 1.355 . S
C1339 C1341 1.415 . S
C1340 C1339 1.355 . S
C1340 C1342 1.419 . S
C1341 C1336 1.425 . S
C1341 C1338 1.409 . S
C1341 C1339 1.415 . S
C1342 H1332 0.930 . S
C1342 C1340 1.419 . S
C1342 C1343 1.362 . S
C1343 H1333 0.930 . S
C1343 C1336 1.409 . S
C1343 C1342 1.362 . S
H1344 C1350 0.930 . S
H1345 C1353 0.930 . S
H1346 C1354 0.930 . S
H1347 C1355 0.930 . S
H1348 C1358 0.930 . S
H1349 C1359 0.930 . S
C1350 H1344 0.930 . S
C1350 C1351 1.355 . S
C1350 C1352 1.415 . S
C1351 C1350 1.355 . S
C1351 C1353 1.419 . S
C1352 C1350 1.415 . S
C1352 C1357 1.425 . S
C1352 C1359 1.409 . S
C1353 H1345 0.930 . S
C1353 C1351 1.419 . S
C1353 C1354 1.362 . S
C1354 H1346 0.930 . S
C1354 C1353 1.362 . S
C1354 C1357 1.409 . S
C1355 H1347 0.930 . S
C1355 C1356 1.355 . S
C1355 C1357 1.415 . S
C1356 C1355 1.355 . S
C1356 C1358 1.419 . S
C1357 C1352 1.425 . S
C1357 C1354 1.409 . S
C1357 C1355 1.415 . S
C1358 H1348 0.930 . S
C1358 C1356 1.419 . S
C1358 C1359 1.362 . S
C1359 H1349 0.930 . S
C1359 C1352 1.409 . S
C1359 C1358 1.362 . S
H1360 C1366 0.930 . S
H1361 C1369 0.930 . S
H1362 C1370 0.930 . S
H1363 C1371 0.930 . S
H1364 C1374 0.930 . S
H1365 C1375 0.930 . S
C1366 H1360 0.930 . S
C1366 C1367 1.355 . S
C1366 C1368 1.415 . S
C1367 C1366 1.355 . S
C1367 C1369 1.419 . S
C1368 C1366 1.415 . S
C1368 C1373 1.425 . S
C1368 C1375 1.409 . S
C1369 H1361 0.930 . S
C1369 C1367 1.419 . S
C1369 C1370 1.362 . S
C1370 H1362 0.930 . S
C1370 C1369 1.362 . S
C1370 C1373 1.409 . S
C1371 H1363 0.930 . S
C1371 C1372 1.355 . S
C1371 C1373 1.415 . S
C1372 C1371 1.355 . S
C1372 C1374 1.419 . S
C1373 C1368 1.425 . S
C1373 C1370 1.409 . S
C1373 C1371 1.415 . S
C1374 H1364 0.930 . S
C1374 C1372 1.419 . S
C1374 C1375 1.362 . S
C1375 H1365 0.930 . S
C1375 C1368 1.409 . S
C1375 C1374 1.362 . S
H1376 C1382 0.930 . S
H1377 C1385 0.930 . S
H1378 C1386 0.930 . S
H1379 C1387 0.930 . S
H1380 C1390 0.930 . S
H1381 C1391 0.930 . S
C1382 H1376 0.930 . S
C1382 C1383 1.355 . S
C1382 C1384 1.415 . S
C1383 C1382 1.355 . S
C1383 C1385 1.419 . S
C1384 C1382 1.415 . S
C1384 C1389 1.425 . S
C1384 C1391 1.409 . S
C1385 H1377 0.930 . S
C1385 C1383 1.419 . S
C1385 C1386 1.362 . S
C1386 H1378 0.930 . S
C1386 C1385 1.362 . S
C1386 C1389 1.409 . S
C1387 H1379 0.930 . S
C1387 C1388 1.355 . S
C1387 C1389 1.415 . S
C1388 C1387 1.355 . S
C1388 C1390 1.419 . S
C1389 C1384 1.425 . S
C1389 C1386 1.409 . S
C1389 C1387 1.415 . S
C1390 H1380 0.930 . S
C1390 C1388 1.419 . S
C1390 C1391 1.362 . S
C1391 H1381 0.930 . S
C1391 C1384 1.409 . S
C1391 C1390 1.362 . S
H1392 C1398 0.930 . S
H1393 C1401 0.930 . S
H1394 C1402 0.930 . S
H1395 C1403 0.930 . S
H1396 C1406 0.930 . S
H1397 C1407 0.930 . S
C1398 H1392 0.930 . S
C1398 C1399 1.355 1_655 S
C1398 C1400 1.415 . S
C1399 C1398 1.355 1_455 S
C1399 C1401 1.419 . S
C1400 C1398 1.415 . S
C1400 C1405 1.425 1_655 S
C1400 C1407 1.409 . S
C1401 H1393 0.930 . S
C1401 C1399 1.419 . S
C1401 C1402 1.362 . S
C1402 H1394 0.930 . S
C1402 C1401 1.362 . S
C1402 C1405 1.409 . S
C1403 H1395 0.930 . S
C1403 C1404 1.355 . S
C1403 C1405 1.415 . S
C1404 C1403 1.355 . S
C1404 C1406 1.419 1_455 S
C1405 C1400 1.425 1_455 S
C1405 C1402 1.409 . S
C1405 C1403 1.415 . S
C1406 H1396 0.930 . S
C1406 C1404 1.419 1_655 S
C1406 C1407 1.362 . S
C1407 H1397 0.930 . S
C1407 C1400 1.409 . S
C1407 C1406 1.362 . S
H1408 C1414 0.930 . S
H1409 C1417 0.930 . S
H1410 C1418 0.930 . S
H1411 C1419 0.930 . S
H1412 C1422 0.930 . S
H1413 C1423 0.930 . S
C1414 H1408 0.930 . S
C1414 C1415 1.355 . S
C1414 C1416 1.415 . S
C1415 C1414 1.355 . S
C1415 C1417 1.419 . S
C1416 C1414 1.415 . S
C1416 C1421 1.425 . S
C1416 C1423 1.409 . S
C1417 H1409 0.930 . S
C1417 C1415 1.419 . S
C1417 C1418 1.362 . S
C1418 H1410 0.930 . S
C1418 C1417 1.362 . S
C1418 C1421 1.409 . S
C1419 H1411 0.930 . S
C1419 C1420 1.355 . S
C1419 C1421 1.415 . S
C1420 C1419 1.355 . S
C1420 C1422 1.419 . S
C1421 C1416 1.425 . S
C1421 C1418 1.409 . S
C1421 C1419 1.415 . S
C1422 H1412 0.930 . S
C1422 C1420 1.419 . S
C1422 C1423 1.362 . S
C1423 H1413 0.930 . S
C1423 C1416 1.409 . S
C1423 C1422 1.362 . S
H1424 C1430 0.930 . S
H1425 C1433 0.922 1_545 S
H1426 C1434 0.924 . S
H1427 C1435 0.930 1_545 S
H1428 C1438 0.930 . S
H1429 C1439 0.930 . S
C1430 H1424 0.930 . S
C1430 C1431 1.355 . S
C1430 C1432 1.415 . S
C1431 C1430 1.355 . S
C1431 C1433 1.414 . S
C1432 C1430 1.415 . S
C1432 C1437 1.425 . S
C1432 C1439 1.409 . S
C1433 H1425 0.922 1_565 S
C1433 C1431 1.414 . S
C1433 C1434 1.391 1_565 S
C1434 H1426 0.924 . S
C1434 C1433 1.391 1_545 S
C1434 C1437 1.401 1_545 S
C1435 H1427 0.930 1_565 S
C1435 C1436 1.355 . S
C1435 C1437 1.415 . S
C1436 C1435 1.355 . S
C1436 C1438 1.419 . S
C1437 C1432 1.425 . S
C1437 C1434 1.401 1_565 S
C1437 C1435 1.415 . S
C1438 H1428 0.930 . S
C1438 C1436 1.419 . S
C1438 C1439 1.362 . S
C1439 H1429 0.930 . S
C1439 C1432 1.409 . S
C1439 C1438 1.362 . S
H1440 C1446 0.930 . S
H1441 C1449 0.930 . S
H1442 C1450 0.930 . S
H1443 C1451 0.930 . S
H1444 C1454 0.930 . S
H1445 C1455 0.930 . S
C1446 H1440 0.930 . S
C1446 C1447 1.355 1_545 S
C1446 C1448 1.415 . S
C1447 C1446 1.355 1_565 S
C1447 C1449 1.419 . S
C1448 C1446 1.415 . S
C1448 C1453 1.425 1_545 S
C1448 C1455 1.409 . S
C1449 H1441 0.930 . S
C1449 C1447 1.419 . S
C1449 C1450 1.362 . S
C1450 H1442 0.930 . S
C1450 C1449 1.362 . S
C1450 C1453 1.409 . S
C1451 H1443 0.930 . S
C1451 C1452 1.350 1_565 S
C1451 C1453 1.415 . S
C1452 C1451 1.350 1_545 S
C1452 C1454 1.420 . S
C1453 C1448 1.425 1_565 S
C1453 C1450 1.409 . S
C1453 C1451 1.415 . S
C1454 H1444 0.930 . S
C1454 C1452 1.420 . S
C1454 C1455 1.362 . S
C1455 H1445 0.930 . S
C1455 C1448 1.409 . S
C1455 C1454 1.362 . S
H1456 C1462 0.930 . S
H1457 C1465 0.930 . S
H1458 C1466 0.930 . S
H1459 C1467 0.930 . S
H1460 C1470 0.930 . S
H1461 C1471 0.930 . S
C1462 H1456 0.930 . S
C1462 C1463 1.355 . S
C1462 C1464 1.415 . S
C1463 C1462 1.355 . S
C1463 C1465 1.419 1_455 S
C1464 C1462 1.415 . S
C1464 C1469 1.425 1_455 S
C1464 C1471 1.409 . S
C1465 H1457 0.930 . S
C1465 C1463 1.419 1_655 S
C1465 C1466 1.362 . S
C1466 H1458 0.930 . S
C1466 C1465 1.362 . S
C1466 C1469 1.409 . S
C1467 H1459 0.930 . S
C1467 C1468 1.355 1_655 S
C1467 C1469 1.415 . S
C1468 C1467 1.355 1_455 S
C1468 C1470 1.419 . S
C1469 C1464 1.425 1_655 S
C1469 C1466 1.409 . S
C1469 C1467 1.415 . S
C1470 H1460 0.930 . S
C1470 C1468 1.419 . S
C1470 C1471 1.362 . S
C1471 H1461 0.930 . S
C1471 C1464 1.409 . S
C1471 C1470 1.362 . S
H1472 C1478 0.930 . S
H1473 C1481 0.930 . S
H1474 C1482 0.930 . S
H1475 C1483 0.930 . S
H1476 C1486 0.930 . S
H1477 C1487 0.930 . S
C1478 H1472 0.930 . S
C1478 C1479 1.355 . S
C1478 C1480 1.415 . S
C1479 C1478 1.355 . S
C1479 C1481 1.419 . S
C1480 C1478 1.415 . S
C1480 C1485 1.425 . S
C1480 C1487 1.409 . S
C1481 H1473 0.930 . S
C1481 C1479 1.419 . S
C1481 C1482 1.362 . S
C1482 H1474 0.930 . S
C1482 C1481 1.362 . S
C1482 C1485 1.409 . S
C1483 H1475 0.930 . S
C1483 C1484 1.355 . S
C1483 C1485 1.415 . S
C1484 C1483 1.355 . S
C1484 C1486 1.419 . S
C1485 C1480 1.425 . S
C1485 C1482 1.409 . S
C1485 C1483 1.415 . S
C1486 H1476 0.930 . S
C1486 C1484 1.419 . S
C1486 C1487 1.362 . S
C1487 H1477 0.930 . S
C1487 C1480 1.409 . S
C1487 C1486 1.362 . S
H1488 C1494 0.930 . S
H1489 C1497 0.930 . S
H1490 C1498 0.930 . S
H1491 C1499 0.930 . S
H1492 C1502 0.930 . S
H1493 C1503 0.930 . S
C1494 H1488 0.930 . S
C1494 C1495 1.355 . S
C1494 C1496 1.415 . S
C1495 C1494 1.355 . S
C1495 C1497 1.419 . S
C1496 C1494 1.415 . S
C1496 C1501 1.425 . S
C1496 C1503 1.409 . S
C1497 H1489 0.930 . S
C1497 C1495 1.419 . S
C1497 C1498 1.362 . S
C1498 H1490 0.930 . S
C1498 C1497 1.362 . S
C1498 C1501 1.409 . S
C1499 H1491 0.930 . S
C1499 C1500 1.355 . S
C1499 C1501 1.415 . S
C1500 C1499 1.355 . S
C1500 C1502 1.419 . S
C1501 C1496 1.425 . S
C1501 C1498 1.409 . S
C1501 C1499 1.415 . S
C1502 H1492 0.930 . S
C1502 C1500 1.419 . S
C1502 C1503 1.362 . S
C1503 H1493 0.930 . S
C1503 C1496 1.409 . S
C1503 C1502 1.362 . S
H1504 C1510 0.930 . S
H1505 C1513 0.930 . S
H1506 C1514 0.930 . S
H1507 C1515 0.930 . S
H1508 C1518 0.930 . S
H1509 C1519 0.930 . S
C1510 H1504 0.930 . S
C1510 C1511 1.355 . S
C1510 C1512 1.415 . S
C1511 C1510 1.355 . S
C1511 C1513 1.419 . S
C1512 C1510 1.415 . S
C1512 C1517 1.425 . S
C1512 C1519 1.409 . S
C1513 H1505 0.930 . S
C1513 C1511 1.419 . S
C1513 C1514 1.362 . S
C1514 H1506 0.930 . S
C1514 C1513 1.362 . S
C1514 C1517 1.409 . S
C1515 H1507 0.930 . S
C1515 C1516 1.355 . S
C1515 C1517 1.415 . S
C1516 C1515 1.355 . S
C1516 C1518 1.419 . S
C1517 C1512 1.425 . S
C1517 C1514 1.409 . S
C1517 C1515 1.415 . S
C1518 H1508 0.930 . S
C1518 C1516 1.419 . S
C1518 C1519 1.362 . S
C1519 H1509 0.930 . S
C1519 C1512 1.409 . S
C1519 C1518 1.362 . S
H1520 C1526 0.930 . S
H1521 C1529 0.930 . S
H1522 C1530 0.930 . S
H1523 C1531 0.930 . S
H1524 C1534 0.930 . S
H1525 C1535 0.930 . S
C1526 H1520 0.930 . S
C1526 C1527 1.355 . S
C1526 C1528 1.415 . S
C1527 C1526 1.355 . S
C1527 C1529 1.419 . S
C1528 C1526 1.415 . S
C1528 C1533 1.425 . S
C1528 C1535 1.409 . S
C1529 H1521 0.930 . S
C1529 C1527 1.419 . S
C1529 C1530 1.362 . S
C1530 H1522 0.930 . S
C1530 C1529 1.362 . S
C1530 C1533 1.409 . S
C1531 H1523 0.930 . S
C1531 C1532 1.355 . S
C1531 C1533 1.415 . S
C1532 C1531 1.355 . S
C1532 C1534 1.419 . S
C1533 C1528 1.425 . S
C1533 C1530 1.409 . S
C1533 C1531 1.415 . S
C1534 H1524 0.930 . S
C1534 C1532 1.419 . S
C1534 C1535 1.362 . S
C1535 H1525 0.930 . S
C1535 C1528 1.409 . S
C1535 C1534 1.362 . S
H1536 C1542 0.930 . S
H1537 C1545 0.930 . S
H1538 C1546 0.930 . S
H1539 C1547 0.930 . S
H1540 C1550 0.930 . S
H1541 C1551 0.930 . S
C1542 H1536 0.930 . S
C1542 C1543 1.355 1_565 S
C1542 C1544 1.414 1_565 S
C1543 C1542 1.355 1_545 S
C1543 C1545 1.419 . S
C1544 C1542 1.414 1_545 S
C1544 C1549 1.425 . S
C1544 C1551 1.410 1_545 S
C1545 H1537 0.930 . S
C1545 C1543 1.419 . S
C1545 C1546 1.362 . S
C1546 H1538 0.930 . S
C1546 C1545 1.362 . S
C1546 C1549 1.409 . S
C1547 H1539 0.930 . S
C1547 C1548 1.355 . S
C1547 C1549 1.415 . S
C1548 C1547 1.355 . S
C1548 C1550 1.419 1_545 S
C1549 C1544 1.425 . S
C1549 C1546 1.409 . S
C1549 C1547 1.415 . S
C1550 H1540 0.930 . S
C1550 C1548 1.419 1_565 S
C1550 C1551 1.362 . S
C1551 H1541 0.930 . S
C1551 C1544 1.410 1_565 S
C1551 C1550 1.362 . S
H1552 C1558 0.930 . S
H1553 C1561 0.930 . S
H1554 C1562 0.930 . S
H1555 C1563 0.930 . S
H1556 C1566 0.930 . S
H1557 C1567 0.930 . S
C1558 H1552 0.930 . S
C1558 C1559 1.355 . S
C1558 C1560 1.415 . S
C1559 C1558 1.355 . S
C1559 C1561 1.419 1_655 S
C1560 C1558 1.415 . S
C1560 C1565 1.425 1_655 S
C1560 C1567 1.409 . S
C1561 H1553 0.930 . S
C1561 C1559 1.419 1_455 S
C1561 C1562 1.362 . S
C1562 H1554 0.930 . S
C1562 C1561 1.362 . S
C1562 C1565 1.409 . S
C1563 H1555 0.930 . S
C1563 C1564 1.355 1_455 S
C1563 C1565 1.415 . S
C1564 C1563 1.355 1_655 S
C1564 C1566 1.419 . S
C1565 C1560 1.425 1_455 S
C1565 C1562 1.409 . S
C1565 C1563 1.415 . S
C1566 H1556 0.930 . S
C1566 C1564 1.419 . S
C1566 C1567 1.362 . S
C1567 H1557 0.930 . S
C1567 C1560 1.409 . S
C1567 C1566 1.362 . S
H1568 C1574 0.930 . S
H1569 C1577 0.930 . S
H1570 C1578 0.930 . S
H1571 C1579 0.930 . S
H1572 C1582 0.930 . S
H1573 C1583 0.930 . S
C1574 H1568 0.930 . S
C1574 C1575 1.355 . S
C1574 C1576 1.415 . S
C1575 C1574 1.355 . S
C1575 C1577 1.419 . S
C1576 C1574 1.415 . S
C1576 C1581 1.425 . S
C1576 C1583 1.409 . S
C1577 H1569 0.930 . S
C1577 C1575 1.419 . S
C1577 C1578 1.362 . S
C1578 H1570 0.930 . S
C1578 C1577 1.362 . S
C1578 C1581 1.409 . S
C1579 H1571 0.930 . S
C1579 C1580 1.355 . S
C1579 C1581 1.415 . S
C1580 C1579 1.355 . S
C1580 C1582 1.419 . S
C1581 C1576 1.425 . S
C1581 C1578 1.409 . S
C1581 C1579 1.415 . S
C1582 H1572 0.930 . S
C1582 C1580 1.419 . S
C1582 C1583 1.362 . S
C1583 H1573 0.930 . S
C1583 C1576 1.409 . S
C1583 C1582 1.362 . S
H1584 C1590 0.930 . S
H1585 C1593 0.930 . S
H1586 C1594 0.930 . S
H1587 C1595 0.930 . S
H1588 C1598 0.930 . S
H1589 C1599 0.930 . S
C1590 H1584 0.930 . S
C1590 C1591 1.355 . S
C1590 C1592 1.415 . S
C1591 C1590 1.355 . S
C1591 C1593 1.419 . S
C1592 C1590 1.415 . S
C1592 C1597 1.425 . S
C1592 C1599 1.409 . S
C1593 H1585 0.930 . S
C1593 C1591 1.419 . S
C1593 C1594 1.362 . S
C1594 H1586 0.930 . S
C1594 C1593 1.362 . S
C1594 C1597 1.409 . S
C1595 H1587 0.930 . S
C1595 C1596 1.355 . S
C1595 C1597 1.415 . S
C1596 C1595 1.355 . S
C1596 C1598 1.419 . S
C1597 C1592 1.425 . S
C1597 C1594 1.409 . S
C1597 C1595 1.415 . S
C1598 H1588 0.930 . S
C1598 C1596 1.419 . S
C1598 C1599 1.362 . S
C1599 H1589 0.930 . S
C1599 C1592 1.409 . S
C1599 C1598 1.362 . S
H1600 C1606 0.930 . S
H1601 C1609 0.930 . S
H1602 C1610 0.930 . S
H1603 C1611 0.930 . S
H1604 C1614 0.930 . S
H1605 C1615 0.930 . S
C1606 H1600 0.930 . S
C1606 C1607 1.355 . S
C1606 C1608 1.415 . S
C1607 C1606 1.355 . S
C1607 C1609 1.419 . S
C1608 C1606 1.415 . S
C1608 C1613 1.425 . S
C1608 C1615 1.409 . S
C1609 H1601 0.930 . S
C1609 C1607 1.419 . S
C1609 C1610 1.362 . S
C1610 H1602 0.930 . S
C1610 C1609 1.362 . S
C1610 C1613 1.409 . S
C1611 H1603 0.930 . S
C1611 C1612 1.355 . S
C1611 C1613 1.415 . S
C1612 C1611 1.355 . S
C1612 C1614 1.419 . S
C1613 C1608 1.425 . S
C1613 C1610 1.409 . S
C1613 C1611 1.415 . S
C1614 H1604 0.930 . S
C1614 C1612 1.419 . S
C1614 C1615 1.362 . S
C1615 H1605 0.930 . S
C1615 C1608 1.409 . S
C1615 C1614 1.362 . S
H1616 C1622 0.930 . S
H1617 C1625 0.930 . S
H1618 C1626 0.930 . S
H1619 C1627 0.930 . S
H1620 C1630 0.930 . S
H1621 C1631 0.930 . S
C1622 H1616 0.930 . S
C1622 C1623 1.355 . S
C1622 C1624 1.415 . S
C1623 C1622 1.355 . S
C1623 C1625 1.419 . S
C1624 C1622 1.415 . S
C1624 C1629 1.425 . S
C1624 C1631 1.409 . S
C1625 H1617 0.930 . S
C1625 C1623 1.419 . S
C1625 C1626 1.362 . S
C1626 H1618 0.930 . S
C1626 C1625 1.362 . S
C1626 C1629 1.409 . S
C1627 H1619 0.930 . S
C1627 C1628 1.355 . S
C1627 C1629 1.415 . S
C1628 C1627 1.355 . S
C1628 C1630 1.419 . S
C1629 C1624 1.425 . S
C1629 C1626 1.409 . S
C1629 C1627 1.415 . S
C1630 H1620 0.930 . S
C1630 C1628 1.419 . S
C1630 C1631 1.362 . S
C1631 H1621 0.930 . S
C1631 C1624 1.409 . S
C1631 C1630 1.362 . S
H1632 C1638 0.930 . S
H1633 C1641 0.930 . S
H1634 C1642 0.930 . S
H1635 C1643 0.930 . S
H1636 C1646 0.930 . S
H1637 C1647 0.930 . S
C1638 H1632 0.930 . S
C1638 C1639 1.355 . S
C1638 C1640 1.415 . S
C1639 C1638 1.355 . S
C1639 C1641 1.419 . S
C1640 C1638 1.415 . S
C1640 C1645 1.425 . S
C1640 C1647 1.409 . S
C1641 H1633 0.930 . S
C1641 C1639 1.419 . S
C1641 C1642 1.362 . S
C1642 H1634 0.930 . S
C1642 C1641 1.362 . S
C1642 C1645 1.409 . S
C1643 H1635 0.930 . S
C1643 C1644 1.355 . S
C1643 C1645 1.415 . S
C1644 C1643 1.355 . S
C1644 C1646 1.419 . S
C1645 C1640 1.425 . S
C1645 C1642 1.409 . S
C1645 C1643 1.415 . S
C1646 H1636 0.930 . S
C1646 C1644 1.419 . S
C1646 C1647 1.362 . S
C1647 H1637 0.930 . S
C1647 C1640 1.409 . S
C1647 C1646 1.362 . S
H1648 C1654 0.930 . S
H1649 C1657 0.930 . S
H1650 C1658 0.930 . S
H1651 C1659 0.930 . S
H1652 C1662 0.930 . S
H1653 C1663 0.930 . S
C1654 H1648 0.930 . S
C1654 C1655 1.355 . S
C1654 C1656 1.415 . S
C1655 C1654 1.355 . S
C1655 C1657 1.419 . S
C1656 C1654 1.415 . S
C1656 C1661 1.425 . S
C1656 C1663 1.409 . S
C1657 H1649 0.930 . S
C1657 C1655 1.419 . S
C1657 C1658 1.362 . S
C1658 H1650 0.930 . S
C1658 C1657 1.362 . S
C1658 C1661 1.409 . S
C1659 H1651 0.930 . S
C1659 C1660 1.355 . S
C1659 C1661 1.415 . S
C1660 C1659 1.355 . S
C1660 C1662 1.419 . S
C1661 C1656 1.425 . S
C1661 C1658 1.409 . S
C1661 C1659 1.415 . S
C1662 H1652 0.930 . S
C1662 C1660 1.419 . S
C1662 C1663 1.362 . S
C1663 H1653 0.930 . S
C1663 C1656 1.409 . S
C1663 C1662 1.362 . S
H1664 C1670 0.930 . S
H1665 C1673 0.930 . S
H1666 C1674 0.930 . S
H1667 C1675 0.930 . S
H1668 C1678 0.930 . S
H1669 C1679 0.930 . S
C1670 H1664 0.930 . S
C1670 C1671 1.355 . S
C1670 C1672 1.415 . S
C1671 C1670 1.355 . S
C1671 C1673 1.419 . S
C1672 C1670 1.415 . S
C1672 C1677 1.425 . S
C1672 C1679 1.409 . S
C1673 H1665 0.930 . S
C1673 C1671 1.419 . S
C1673 C1674 1.362 . S
C1674 H1666 0.930 . S
C1674 C1673 1.362 . S
C1674 C1677 1.409 . S
C1675 H1667 0.930 . S
C1675 C1676 1.355 . S
C1675 C1677 1.415 . S
C1676 C1675 1.355 . S
C1676 C1678 1.419 . S
C1677 C1672 1.425 . S
C1677 C1674 1.409 . S
C1677 C1675 1.415 . S
C1678 H1668 0.930 . S
C1678 C1676 1.419 . S
C1678 C1679 1.362 . S
C1679 H1669 0.930 . S
C1679 C1672 1.409 . S
C1679 C1678 1.362 . S
H1680 C1686 0.930 . S
H1681 C1689 0.930 . S
H1682 C1690 0.930 . S
H1683 C1691 0.930 . S
H1684 C1694 0.930 . S
H1685 C1695 0.930 . S
C1686 H1680 0.930 . S
C1686 C1687 1.355 . S
C1686 C1688 1.415 . S
C1687 C1686 1.355 . S
C1687 C1689 1.419 1_655 S
C1688 C1686 1.415 . S
C1688 C1693 1.425 1_655 S
C1688 C1695 1.409 . S
C1689 H1681 0.930 . S
C1689 C1687 1.419 1_455 S
C1689 C1690 1.362 . S
C1690 H1682 0.930 . S
C1690 C1689 1.362 . S
C1690 C1693 1.409 . S
C1691 H1683 0.930 . S
C1691 C1692 1.355 1_455 S
C1691 C1693 1.415 . S
C1692 C1691 1.355 1_655 S
C1692 C1694 1.419 . S
C1693 C1688 1.425 1_455 S
C1693 C1690 1.409 . S
C1693 C1691 1.415 . S
C1694 H1684 0.930 . S
C1694 C1692 1.419 . S
C1694 C1695 1.362 . S
C1695 H1685 0.930 . S
C1695 C1688 1.409 . S
C1695 C1694 1.362 . S
H1696 C1702 0.930 . S
H1697 C1705 0.930 . S
H1698 C1706 0.930 . S
H1699 C1707 0.930 . S
H1700 C1710 0.930 . S
H1701 C1711 0.930 . S
C1702 H1696 0.930 . S
C1702 C1703 1.355 . S
C1702 C1704 1.415 . S
C1703 C1702 1.355 . S
C1703 C1705 1.419 . S
C1704 C1702 1.415 . S
C1704 C1709 1.425 . S
C1704 C1711 1.409 . S
C1705 H1697 0.930 . S
C1705 C1703 1.419 . S
C1705 C1706 1.362 . S
C1706 H1698 0.930 . S
C1706 C1705 1.362 . S
C1706 C1709 1.409 . S
C1707 H1699 0.930 . S
C1707 C1708 1.355 . S
C1707 C1709 1.415 . S
C1708 C1707 1.355 . S
C1708 C1710 1.419 . S
C1709 C1704 1.425 . S
C1709 C1706 1.409 . S
C1709 C1707 1.415 . S
C1710 H1700 0.930 . S
C1710 C1708 1.419 . S
C1710 C1711 1.362 . S
C1711 H1701 0.930 . S
C1711 C1704 1.409 . S
C1711 C1710 1.362 . S
H1712 C1718 0.930 . S
H1713 C1721 0.932 . S
H1714 C1722 0.947 . S
H1715 C1723 0.930 . S
H1716 C1726 0.930 . S
H1717 C1727 0.930 . S
C1718 H1712 0.930 . S
C1718 C1719 1.355 . S
C1718 C1720 1.415 . S
C1719 C1718 1.355 . S
C1719 C1721 1.419 . S
C1720 C1718 1.415 . S
C1720 C1725 1.437 . S
C1720 C1727 1.409 . S
C1721 H1713 0.932 . S
C1721 C1719 1.419 . S
C1721 C1722 1.382 1_545 S
C1722 H1714 0.947 . S
C1722 C1721 1.382 1_565 S
C1722 C1725 1.355 1_565 S
C1723 H1715 0.930 . S
C1723 C1724 1.363 . S
C1723 C1725 1.428 1_565 S
C1724 C1723 1.363 . S
C1724 C1726 1.415 1_565 S
C1725 C1720 1.437 . S
C1725 C1722 1.355 1_545 S
C1725 C1723 1.428 1_545 S
C1726 H1716 0.930 . S
C1726 C1724 1.415 1_545 S
C1726 C1727 1.362 . S
C1727 H1717 0.930 . S
C1727 C1720 1.409 . S
C1727 C1726 1.362 . S
C583 C7 1.529 . S
C588 C421 1.540 . S
C599 C23 1.561 . S
C604 C446 1.571 . S
C620 C457 1.546 . S
C615 C37 1.532 . S
C631 C35 1.477 . S
C636 C482 1.498 . S
C647 C9 1.555 1_455 S
C652 C500 1.537 . S
C663 C21 1.507 . S
C668 C511 1.524 . S
C679 C49 1.506 . S
C684 C493 1.543 . S
C700 C518 1.508 . S
C695 C65 1.528 . S
C716 C475 1.539 1_565 S
C711 C79 1.529 1_565 S
C727 C77 1.514 . S
C732 C464 1.527 . S
C748 C428 1.499 . S
C743 C51 1.499 1_655 S
C759 C63 1.530 . S
C764 C439 1.536 . S
C775 C91 1.557 . S
C780 C529 1.574 . S
C791 C107 1.601 . S
C796 C554 1.607 . S
C812 C565 1.613 . S
C807 C121 1.623 . S
C823 C119 1.535 . S
C828 C266 1.560 . S
C839 C93 1.619 . S
C844 C284 1.571 . S
C855 C105 1.533 . S
C860 C295 1.546 . S
C871 C133 1.513 . S
C876 C277 1.522 . S
C887 C149 1.567 . S
C892 C302 1.573 . S
C908 C259 1.572 . S
C903 C163 1.593 . S
C924 C572 1.606 . S
C919 C161 1.594 . S
C940 C536 1.535 . S
C935 C135 1.560 . S
C956 C547 1.558 . S
C951 C147 1.517 . S
C967 C175 1.530 . S
C972 C313 1.540 . S
C983 C191 1.610 . S
C988 C338 1.576 . S
C999 C205 1.626 . S
C1004 C349 1.602 . S
C1015 C203 1.629 . S
C1020 C374 1.644 . S
C1036 C392 1.600 . S
C1031 C177 1.607 . S
C1052 C403 1.617 . S
C1047 C189 1.603 . S
C1068 C385 1.566 . S
C1063 C217 1.553 . S
C1084 C410 1.586 . S
C1079 C233 1.572 . S
C1095 C247 1.573 . S
C1100 C367 1.582 . S
C1116 C356 1.562 . S
C1111 C245 1.543 . S
C1127 C219 1.567 . S
C1132 C320 1.537 . S
C1148 C331 1.565 . S
C1143 C231 1.560 . S
C1164 C268 1.407 . S
C1159 C8 1.504 . S
C1175 C17 1.470 . S
C1180 C286 1.432 . S
C1196 C296 1.479 . S
C1191 C31 1.508 . S
C1212 C314 1.492 . S
C1207 C36 1.525 . S
C1228 C340 1.444 . S
C1223 C3 1.504 . S
C1244 C350 1.440 . S
C1239 C22 1.477 . S
C1255 C50 1.542 . S
C1260 C358 1.416 . S
C1271 C59 1.500 . S
C1276 C322 1.356 . S
C1287 C73 1.546 . S
C1292 C332 1.452 . S
C1303 C78 1.571 . S
C1308 C278 1.531 . S
C1324 C304 1.390 . S
C1319 C45 1.533 . S
C1335 C64 1.502 . S
C1340 C260 1.393 . S
C1356 C376 1.398 . S
C1351 C92 1.501 . S
C1367 C101 1.542 . S
C1372 C394 1.447 . S
C1383 C115 1.558 . S
C1388 C404 1.503 . S
C1404 C422 1.426 . S
C1399 C120 1.468 . S
C1415 C87 1.506 . S
C1420 C448 1.459 . S
C1431 C106 1.443 . S
C1436 C458 1.346 . S
C1447 C134 1.461 . S
C1452 C466 1.375 1_545 S
C1463 C143 1.469 . S
C1468 C430 1.408 . S
C1484 C440 1.458 . S
C1479 C157 1.537 . S
C1495 C162 1.554 . S
C1500 C386 1.505 . S
C1511 C129 1.580 . S
C1516 C412 1.428 . S
C1532 C368 1.493 . S
C1527 C148 1.566 . S
C1548 C484 1.365 . S
C1543 C176 1.453 . S
C1559 C185 1.472 . S
C1564 C502 1.375 . S
C1575 C199 1.520 . S
C1580 C512 1.463 . S
C1596 C530 1.459 . S
C1591 C204 1.511 . S
C1612 C556 1.510 . S
C1607 C171 1.548 . S
C1623 C190 1.526 . S
C1628 C566 1.440 . S
C1639 C218 1.552 . S
C1644 C574 1.486 . S
C1655 C227 1.563 . S
C1660 C538 1.488 . S
C1676 C548 1.502 . S
C1671 C241 1.581 . S
C1692 C494 1.417 1_655 S
C1687 C246 1.485 . S
C1708 C520 1.444 . S
C1703 C213 1.541 . S
C1719 C232 1.465 . S
C1724 C476 1.432 . S
