# Generated by pormake.
# Topology pyr, (3,6)-cn, num edge types: 1
# Building blocks:
#     Node 0, Type 0, BuildingBlock: CUQRIR_clean_linker_1, # of connection points: 3
#     Node 1, Type 0, BuildingBlock: CUQRIR_clean_linker_1, # of connection points: 3
#     Node 2, Type 0, BuildingBlock: CUQRIR_clean_linker_1, # of connection points: 3
#     Node 3, Type 0, BuildingBlock: CUQRIR_clean_linker_1, # of connection points: 3
#     Node 4, Type 0, BuildingBlock: CUQRIR_clean_linker_1, # of connection points: 3
#     Node 5, Type 0, BuildingBlock: CUQRIR_clean_linker_1, # of connection points: 3
#     Node 6, Type 0, BuildingBlock: CUQRIR_clean_linker_1, # of connection points: 3
#     Node 7, Type 0, BuildingBlock: CUQRIR_clean_linker_1, # of connection points: 3
#     Node 8, Type 1, BuildingBlock: CIFDUS_clean_sbu_1, # of connection points: 6
#     Node 9, Type 1, BuildingBlock: CIFDUS_clean_sbu_1, # of connection points: 6
#     Node 10, Type 1, BuildingBlock: CIFDUS_clean_sbu_1, # of connection points: 6
#     Node 11, Type 1, BuildingBlock: CIFDUS_clean_sbu_1, # of connection points: 6
#     Edge 12, Type (0, 1), BuildingBlock: UVAHIK_clean_linker_0, # of connection points: 2
#     Edge 13, Type (0, 1), BuildingBlock: UVAHIK_clean_linker_0, # of connection points: 2
#     Edge 14, Type (0, 1), BuildingBlock: UVAHIK_clean_linker_0, # of connection points: 2
#     Edge 15, Type (0, 1), BuildingBlock: UVAHIK_clean_linker_0, # of connection points: 2
#     Edge 16, Type (0, 1), BuildingBlock: UVAHIK_clean_linker_0, # of connection points: 2
#     Edge 17, Type (0, 1), BuildingBlock: UVAHIK_clean_linker_0, # of connection points: 2
#     Edge 18, Type (0, 1), BuildingBlock: UVAHIK_clean_linker_0, # of connection points: 2
#     Edge 19, Type (0, 1), BuildingBlock: UVAHIK_clean_linker_0, # of connection points: 2
#     Edge 20, Type (0, 1), BuildingBlock: UVAHIK_clean_linker_0, # of connection points: 2
#     Edge 21, Type (0, 1), BuildingBlock: UVAHIK_clean_linker_0, # of connection points: 2
#     Edge 22, Type (0, 1), BuildingBlock: UVAHIK_clean_linker_0, # of connection points: 2
#     Edge 23, Type (0, 1), BuildingBlock: UVAHIK_clean_linker_0, # of connection points: 2
#     Edge 24, Type (0, 1), BuildingBlock: UVAHIK_clean_linker_0, # of connection points: 2
#     Edge 25, Type (0, 1), BuildingBlock: UVAHIK_clean_linker_0, # of connection points: 2
#     Edge 26, Type (0, 1), BuildingBlock: UVAHIK_clean_linker_0, # of connection points: 2
#     Edge 27, Type (0, 1), BuildingBlock: UVAHIK_clean_linker_0, # of connection points: 2
#     Edge 28, Type (0, 1), BuildingBlock: UVAHIK_clean_linker_0, # of connection points: 2
#     Edge 29, Type (0, 1), BuildingBlock: UVAHIK_clean_linker_0, # of connection points: 2
#     Edge 30, Type (0, 1), BuildingBlock: UVAHIK_clean_linker_0, # of connection points: 2
#     Edge 31, Type (0, 1), BuildingBlock: UVAHIK_clean_linker_0, # of connection points: 2
#     Edge 32, Type (0, 1), BuildingBlock: UVAHIK_clean_linker_0, # of connection points: 2
#     Edge 33, Type (0, 1), BuildingBlock: UVAHIK_clean_linker_0, # of connection points: 2
#     Edge 34, Type (0, 1), BuildingBlock: UVAHIK_clean_linker_0, # of connection points: 2
#     Edge 35, Type (0, 1), BuildingBlock: UVAHIK_clean_linker_0, # of connection points: 2
# Relax obj value: 0.102
# Max RMSD: 0.219
# Mean RMSD: 0.159
data_MOF--net-pry--node1-CIFDUS_clean_sbu_1--node2-CUQRIR_clean_linker_1--edge1-UVAHIK_clean_linker_0
_symmetry_space_group_name_H-M    P1
_symmetry_Int_Tables_number       1
_symmetry_cell_setting            triclinic
loop_
_symmetry_equiv_pos_as_xyz
'x, y, z'
_cell_length_a     45.157055
_cell_length_b     43.387598
_cell_length_c     42.126983
_cell_angle_alpha  90.642743
_cell_angle_beta   92.643957
_cell_angle_gamma 96.245506
loop_
_atom_site_label
_atom_site_type_symbol
_atom_site_fract_x
_atom_site_fract_y
_atom_site_fract_z
_atom_type_partial_charge
C0 C 0.15056 0.19131 0.15105 0.0
N1 N 0.16952 0.17008 0.15927 0.0
N2 N 0.16058 0.2085 0.12629 0.0
C3 C 0.12382 0.1975 0.16927 0.0
C4 C 0.1866 0.19727 0.11996 0.0
N5 N 0.19223 0.17406 0.14004 0.0
C6 C 0.20588 0.20811 0.09321 0.0
H7 H 0.10422 0.18171 0.16016 0.0
H8 H 0.11866 0.22175 0.16637 0.0
H9 H 0.12759 0.19319 0.19497 0.0
H10 H 0.22384 0.22579 0.10258 0.0
H11 H 0.19271 0.2187 0.07418 0.0
H12 H 0.21643 0.18854 0.08299 0.0
C13 C 0.39248 0.8873 0.61528 0.0
N14 N 0.38471 0.90817 0.63663 0.0
N15 N 0.41857 0.87678 0.62441 0.0
C16 C 0.37384 0.8758 0.58613 0.0
C17 C 0.42654 0.89202 0.65219 0.0
N18 N 0.40615 0.91138 0.65954 0.0
C19 C 0.45224 0.88517 0.67396 0.0
H20 H 0.35791 0.85581 0.59256 0.0
H21 H 0.38814 0.86793 0.56759 0.0
H22 H 0.36096 0.89425 0.57646 0.0
H23 H 0.46998 0.87609 0.66036 0.0
H24 H 0.4441 0.86733 0.69112 0.0
H25 H 0.46163 0.90629 0.6876 0.0
C26 C 0.60717 0.38962 0.85922 0.0
N27 N 0.62608 0.38502 0.88406 0.0
N28 N 0.61695 0.41541 0.84328 0.0
C29 C 0.57977 0.368 0.84983 0.0
C30 C 0.64247 0.42654 0.85966 0.0
N31 N 0.64793 0.40807 0.8844 0.0
C32 C 0.66419 0.45275 0.8488 0.0
H33 H 0.58641 0.34743 0.83722 0.0
H34 H 0.56415 0.37962 0.83411 0.0
H35 H 0.5683 0.35969 0.87138 0.0
H36 H 0.65583 0.47512 0.85477 0.0
H37 H 0.66611 0.45153 0.82267 0.0
H38 H 0.68674 0.45242 0.86028 0.0
C39 C 0.87362 0.6029 0.39368 0.0
N40 N 0.89603 0.62434 0.38572 0.0
N41 N 0.86377 0.60927 0.42259 0.0
C42 C 0.85968 0.57677 0.37229 0.0
C43 C 0.88128 0.63533 0.43219 0.0
N44 N 0.90105 0.64438 0.40999 0.0
C45 C 0.87548 0.65489 0.46049 0.0
H46 H 0.84137 0.585 0.35731 0.0
H47 H 0.8501 0.55714 0.38662 0.0
H48 H 0.87638 0.5687 0.3565 0.0
H49 H 0.86215 0.64114 0.47791 0.0
H50 H 0.863 0.67421 0.45224 0.0
H51 H 0.89677 0.66512 0.47236 0.0
C52 C 0.86966 0.90237 0.91764 0.0
N53 N 0.8904 0.89393 0.8978 0.0
N54 N 0.85896 0.9289 0.90797 0.0
C55 C 0.85924 0.88424 0.9461 0.0
C56 C 0.87429 0.93657 0.88172 0.0
N57 N 0.89366 0.9156 0.87569 0.0
C58 C 0.86982 0.96408 0.8613 0.0
H59 H 0.83982 0.86744 0.93861 0.0
H60 H 0.85212 0.89953 0.96483 0.0
H61 H 0.87715 0.87128 0.95642 0.0
H62 H 0.89075 0.98007 0.8619 0.0
H63 H 0.8517 0.97708 0.86944 0.0
H64 H 0.86481 0.95621 0.83628 0.0
C65 C 0.69578 0.18211 0.44302 0.0
N66 N 0.70261 0.15792 0.42504 0.0
N67 N 0.66951 0.19154 0.43257 0.0
C68 C 0.71606 0.19854 0.46867 0.0
C69 C 0.66053 0.17232 0.40771 0.0
N70 N 0.68056 0.1519 0.40302 0.0
C71 C 0.63257 0.17418 0.38723 0.0
H72 H 0.71144 0.18727 0.49169 0.0
H73 H 0.71214 0.22326 0.47087 0.0
H74 H 0.73981 0.19712 0.46375 0.0
H75 H 0.63824 0.1881 0.36598 0.0
H76 H 0.61573 0.18536 0.40032 0.0
H77 H 0.62281 0.15074 0.37897 0.0
C78 C 0.3671 0.65487 0.16949 0.0
N79 N 0.39097 0.67523 0.17819 0.0
N80 N 0.35481 0.66288 0.1414 0.0
C81 C 0.35354 0.62946 0.19011 0.0
C82 C 0.37226 0.68861 0.13314 0.0
N83 N 0.39438 0.69613 0.15553 0.0
C84 C 0.36574 0.70832 0.10501 0.0
H85 H 0.34748 0.60794 0.17577 0.0
H86 H 0.33275 0.63653 0.19966 0.0
H87 H 0.36892 0.62444 0.21021 0.0
H88 H 0.35772 0.7301 0.11351 0.0
H89 H 0.3487 0.6961 0.08815 0.0
H90 H 0.38636 0.71464 0.09219 0.0
C91 C 0.10349 0.40056 0.64878 0.0
N92 N 0.12091 0.39485 0.62452 0.0
N93 N 0.11469 0.42669 0.66497 0.0
C94 C 0.07788 0.37849 0.65921 0.0
C95 C 0.13964 0.43654 0.64987 0.0
N96 N 0.14351 0.41724 0.62534 0.0
C97 C 0.1619 0.46308 0.66134 0.0
H98 H 0.06084 0.3742 0.63939 0.0
H99 H 0.06726 0.38768 0.68002 0.0
H100 H 0.08599 0.35594 0.66527 0.0
H101 H 0.17806 0.45432 0.67874 0.0
H102 H 0.15056 0.4811 0.67337 0.0
H103 H 0.17436 0.4735 0.64129 0.0
O104 O 1.0024 0.03934 0.50292 0.0
Mn105 Mn 0.04176 0.01808 0.51285 0.0
O106 O 0.98642 0.02287 0.45401 0.0
Mn107 Mn 0.01631 0.99786 0.44931 0.0
O108 O 0.08172 0.99774 0.52332 0.0
O109 O 0.0566 0.0561 0.54051 0.0
Mn110 Mn 0.07008 0.04219 0.5771 0.0
O111 O 0.02018 0.99516 0.55176 0.0
O112 O 0.10225 0.02164 0.56812 0.0
O113 O 0.0644 0.04177 0.47492 0.0
O114 O 0.0494 0.01543 0.43035 0.0
O115 O 0.07587 0.08414 0.58178 0.0
O116 O 0.03938 0.0198 0.59658 0.0
C117 C 0.01595 0.95417 0.46768 0.0
C118 C 0.9839 0.03912 0.47874 0.0
C119 C 0.10319 1.00316 0.54466 0.0
C120 C 0.06491 0.08356 0.55279 0.0
C121 C 0.02104 0.99949 0.58227 0.0
C122 C 0.06672 0.0361 0.44504 0.0
O123 O 0.02595 0.97889 0.48519 0.0
O124 O 0.00552 0.95824 0.43902 0.0
O125 O 0.50866 0.03031 0.99046 0.0
Mn126 Mn 0.52541 0.04072 0.0377 0.0
O127 O 0.5146 0.97985 0.98224 0.0
Mn128 Mn 0.53567 0.97372 0.01979 0.0
O129 O 0.54271 0.0501 0.08474 0.0
O130 O 0.5316 0.08613 0.02715 0.0
Mn131 Mn 0.51771 0.1075 0.05797 0.0
O132 O 0.48061 0.04477 0.05102 0.0
O133 O 0.5404 0.10084 0.09424 0.0
O134 O 0.56987 0.03722 0.02407 0.0
O135 O 0.5759 0.98652 0.02099 0.0
O136 O 0.5321 0.13655 0.0299 0.0
O137 O 0.4774 0.09578 0.05848 0.0
C138 C 0.51193 0.96958 0.06209 0.0
C139 C 0.50533 0.00522 0.9732 0.0
C140 C 0.54844 0.07471 0.10233 0.0
C141 C 0.53918 0.11266 0.01445 0.0
C142 C 0.46551 0.06788 0.05658 0.0
C143 C 0.58628 0.0149 0.0206 0.0
O144 O 0.51971 0.99558 0.0486 0.0
O145 O 0.52017 0.94538 0.04819 0.0
O146 O 0.54145 0.53444 0.49805 0.0
Mn147 Mn 0.49708 0.51719 0.50351 0.0
O148 O 0.55158 0.52313 0.44742 0.0
Mn149 Mn 0.51587 0.49908 0.43609 0.0
O150 O 0.45229 0.49885 0.50885 0.0
O151 O 0.50514 0.51854 0.55002 0.0
Mn152 Mn 0.47584 0.53006 0.57137 0.0
O153 O 0.48526 0.5626 0.50585 0.0
O154 O 0.44516 0.49941 0.56147 0.0
O155 O 0.5097 0.4719 0.50197 0.0
O156 O 0.51291 0.45888 0.45038 0.0
O157 O 0.50673 0.52485 0.6008 0.0
O158 O 0.47037 0.56881 0.5559 0.0
C159 C 0.4769 0.52316 0.43004 0.0
C160 C 0.55901 0.53524 0.47484 0.0
C161 C 0.43675 0.4912 0.53305 0.0
C162 C 0.52064 0.51771 0.57607 0.0
C163 C 0.47523 0.57876 0.52801 0.0
C164 C 0.51328 0.45219 0.47974 0.0
O165 O 0.48922 0.51661 0.45676 0.0
O166 O 0.48932 0.51251 0.40577 0.0
O167 O 0.95492 0.52217 0.01345 0.0
Mn168 Mn 0.9997 0.54036 0.01426 0.0
O169 O 0.93608 0.53211 0.96438 0.0
Mn170 Mn 0.97032 0.55194 0.94817 0.0
O171 O 0.04418 0.55852 0.01364 0.0
O172 O 0.99874 0.54586 0.06271 0.0
Mn173 Mn 0.03084 0.52969 0.07759 0.0
O174 O 0.01299 0.4946 0.01772 0.0
O175 O 0.06407 0.55212 0.06268 0.0
O176 O 0.98801 0.58667 1.00957 0.0
O177 O 0.97822 0.59358 0.95736 0.0
O178 O 0.01471 0.54255 0.11306 0.0
O179 O 0.0276 0.48804 0.06846 0.0
C180 C 0.00678 0.52632 0.93904 0.0
C181 C 0.93346 0.5211 0.99218 0.0
C182 C 0.06593 0.56161 0.03436 0.0
C183 C 0.99485 0.55111 0.0928 0.0
C184 C 0.02225 0.47765 0.04034 0.0
C185 C 0.98329 0.60418 0.98554 0.0
O186 O 0.99989 0.53486 0.96691 0.0
O187 O 0.98939 0.53431 0.91603 0.0
C188 C 0.18758 0.15316 0.21203 0.0
C189 C 0.16656 0.14979 0.18626 0.0
C190 C 0.18079 0.13983 0.2415 0.0
C191 C 0.11495 0.11715 0.28827 0.0
H192 H 0.16947 0.07815 0.34463 0.0
C193 C 0.08358 0.08471 0.41644 0.0
C194 C 0.08826 0.05443 0.42523 0.0
C195 C 0.09671 0.09803 0.38943 0.0
C196 C 0.15396 0.08905 0.32922 0.0
H197 H 0.12304 0.12804 0.17031 0.0
H198 H 0.11107 0.10484 0.22145 0.0
H199 H 0.18507 0.09499 0.29206 0.0
H200 H 0.11105 0.01482 0.41333 0.0
H201 H 0.13461 0.03817 0.36712 0.0
H202 H 0.08373 0.11103 0.32508 0.0
C203 C 0.13263 0.11806 0.21926 0.0
C204 C 0.16298 0.09883 0.2991 0.0
C205 C 0.13958 0.13102 0.18986 0.0
C206 C 0.10774 0.03855 0.40766 0.0
C207 C 0.12107 0.0519 0.38096 0.0
C208 C 0.10606 0.10771 0.31845 0.0
C209 C 0.15271 0.12314 0.24581 0.0
C210 C 0.1435 0.11277 0.27809 0.0
C211 C 0.11489 0.08138 0.37071 0.0
C212 C 0.12535 0.09336 0.33936 0.0
H213 H 0.20835 0.16785 0.21 0.0
H214 H 0.19682 0.14419 0.26139 0.0
H215 H 0.09944 0.12814 0.27294 0.0
H216 H 0.06799 0.09715 0.42894 0.0
H217 H 0.09167 0.12091 0.3825 0.0
C218 C 0.39774 0.91125 0.71653 0.0
C219 C 0.40582 0.92779 0.68933 0.0
C220 C 0.40575 0.92387 0.74681 0.0
C221 C 0.43471 0.99537 0.79284 0.0
H222 H 0.46804 0.93625 0.84863 0.0
C223 C 0.49538 0.02616 0.91825 0.0
C224 C 0.48925 1.00381 0.94165 0.0
C225 C 0.48423 0.02039 0.88667 0.0
C226 C 0.45854 0.95306 0.83355 0.0
H227 H 0.42756 0.97064 0.67201 0.0
H228 H 0.44124 0.99331 0.7251 0.0
H229 H 0.44878 0.91981 0.79571 0.0
H230 H 0.46513 0.95913 0.95094 0.0
H231 H 0.44528 0.9496 0.8969 0.0
H232 H 0.44461 0.02864 0.83117 0.0
C233 C 0.42846 0.9707 0.72315 0.0
C234 C 0.44739 0.94357 0.80315 0.0
C235 C 0.42047 0.95792 0.69281 0.0
C236 C 0.47044 0.97669 0.93338 0.0
C237 C 0.45929 0.97107 0.90226 0.0
C238 C 0.44585 0.00492 0.82353 0.0
C239 C 0.42219 0.95331 0.75052 0.0
C240 C 0.43477 0.96437 0.78256 0.0
C241 C 0.4668 0.99225 0.87819 0.0
C242 C 0.45731 0.98364 0.84451 0.0
H243 H 0.38703 0.8877 0.71424 0.0
H244 H 0.40014 0.91 0.76735 0.0
H245 H 0.42533 0.01204 0.77748 0.0
H246 H 0.51008 0.04712 0.92393 0.0
H247 H 0.49038 0.03723 0.86868 0.0
C248 C 0.60753 0.39965 0.7873 0.0
C249 C 0.6089 0.42271 0.81111 0.0
C250 C 0.60436 0.4073 0.75544 0.0
C251 C 0.62336 0.46917 0.70155 0.0
H252 H 0.55885 0.43005 0.64628 0.0
C253 C 0.57159 0.52597 0.59856 0.0
C254 C 0.55032 0.50762 0.57938 0.0
C255 C 0.59151 0.51194 0.61834 0.0
C256 C 0.57776 0.44049 0.66084 0.0
H257 H 0.60724 0.47153 0.82072 0.0
H258 H 0.60257 0.48531 0.7644 0.0
H259 H 0.56362 0.41384 0.70092 0.0
H260 H 0.5366 0.46152 0.56062 0.0
H261 H 0.57276 0.43697 0.59354 0.0
H262 H 0.63746 0.49609 0.66167 0.0
C263 C 0.60379 0.46131 0.77063 0.0
C264 C 0.58008 0.43147 0.69236 0.0
C265 C 0.60625 0.45349 0.80262 0.0
C266 C 0.55309 0.47607 0.5751 0.0
C267 C 0.57339 0.46199 0.59455 0.0
C268 C 0.6214 0.47786 0.66977 0.0
C269 C 0.60333 0.43827 0.74688 0.0
C270 C 0.60229 0.44643 0.71313 0.0
C271 C 0.59013 0.47939 0.61895 0.0
C272 C 0.59789 0.46444 0.6493 0.0
H273 H 0.61039 0.37592 0.79323 0.0
H274 H 0.60407 0.38923 0.73743 0.0
H275 H 0.64104 0.48053 0.71721 0.0
H276 H 0.56978 0.55049 0.60191 0.0
H277 H 0.60442 0.52636 0.63626 0.0
C278 C 0.88574 0.63341 0.32923 0.0
C279 C 0.90635 0.62847 0.35409 0.0
C280 C 0.8928 0.62962 0.29762 0.0
C281 C 0.95433 0.62404 0.24383 0.0
H282 H 0.89345 0.57489 0.19128 0.0
C283 C 0.97586 0.59754 0.11411 0.0
C284 C 0.97026 0.56602 0.10562 0.0
C285 C 0.96344 0.60903 0.14109 0.0
C286 C 0.91068 0.5887 0.20554 0.0
H287 H 0.95091 0.61728 0.36579 0.0
H288 H 0.96395 0.61142 0.31009 0.0
H289 H 0.88385 0.58726 0.24619 0.0
H290 H 0.94527 0.52248 0.11675 0.0
H291 H 0.92306 0.54237 0.16321 0.0
H292 H 0.9816 0.62453 0.20362 0.0
C293 C 0.9422 0.61811 0.31506 0.0
C294 C 0.9051 0.59601 0.23699 0.0
C295 C 0.93493 0.62165 0.34686 0.0
C296 C 0.94924 0.5471 0.12223 0.0
C297 C 0.93687 0.55849 0.14924 0.0
C298 C 0.95989 0.61681 0.21233 0.0
C299 C 0.9208 0.62106 0.29012 0.0
C300 C 0.92687 0.61373 0.25655 0.0
C301 C 0.94526 0.58914 0.1601 0.0
C302 C 0.93817 0.59896 0.19275 0.0
H303 H 0.8635 0.63848 0.33446 0.0
H304 H 0.876 0.63259 0.27905 0.0
H305 H 0.97152 0.63778 0.25821 0.0
H306 H 0.99258 0.61242 0.10221 0.0
H307 H 0.96981 0.63296 0.14831 0.0
C308 C 0.24671 0.17291 0.1439 0.0
C309 C 0.21803 0.15695 0.1397 0.0
C310 C 0.27199 0.15865 0.13659 0.0
C311 C 0.30087 0.08312 0.11779 0.0
H312 H 0.35931 0.1365 0.07356 0.0
C313 C 0.42085 0.05195 0.08875 0.0
C314 C 0.43279 0.06395 0.06062 0.0
C315 C 0.39246 0.05865 0.09771 0.0
C316 C 0.34318 0.12104 0.08559 0.0
H317 H 0.19332 0.11317 0.12561 0.0
H318 H 0.23762 0.08781 0.11285 0.0
H319 H 0.31513 0.15708 0.09182 0.0
H320 H 0.42371 0.09101 0.01919 0.0
H321 H 0.37432 0.10175 0.034 0.0
H322 H 0.32923 0.04696 0.11111 0.0
C323 C 0.24066 0.11138 0.12212 0.0
C324 C 0.31789 0.13306 0.09656 0.0
C325 C 0.21525 0.12577 0.12956 0.0
C326 C 0.41493 0.08093 0.04071 0.0
C327 C 0.38677 0.08758 0.04956 0.0
C328 C 0.32645 0.07107 0.10693 0.0
C329 C 0.26938 0.12797 0.12459 0.0
C330 C 0.29632 0.11442 0.11296 0.0
C331 C 0.37558 0.07775 0.07884 0.0
C332 C 0.34795 0.08986 0.09052 0.0
H333 H 0.24937 0.197 0.15154 0.0
H334 H 0.29363 0.17206 0.13956 0.0
H335 H 0.28488 0.06801 0.13037 0.0
H336 H 0.43439 0.03957 0.10503 0.0
H337 H 0.38469 0.05069 0.12045 0.0
C338 C 0.33028 0.89867 0.63734 0.0
C339 C 0.35608 0.9198 0.63666 0.0
C340 C 0.30249 0.90743 0.62747 0.0
C341 C 0.2607 0.97443 0.60957 0.0
H342 H 0.21415 0.91669 0.55071 0.0
C343 C 0.15781 0.01055 0.5419 0.0
C344 C 0.13168 0.98983 0.54222 0.0
C345 C 0.18551 1.00086 0.55042 0.0
C346 C 0.22673 0.93294 0.5673 0.0
H347 H 0.3731 0.96701 0.62718 0.0
H348 H 0.3242 0.98303 0.61081 0.0
H349 H 0.26114 0.90313 0.57496 0.0
H350 H 0.11407 0.94233 0.55004 0.0
H351 H 0.16285 0.92495 0.56455 0.0
H352 H 0.22636 0.00419 0.60211 0.0
C353 C 0.32542 0.95953 0.61875 0.0
C354 C 0.25364 0.92516 0.58129 0.0
C355 C 0.35335 0.95057 0.62839 0.0
C356 C 0.13399 0.95856 0.54893 0.0
C357 C 0.1619 0.94876 0.55752 0.0
C358 C 0.23382 0.98218 0.59565 0.0
C359 C 0.29985 0.93769 0.61699 0.0
C360 C 0.27096 0.94582 0.60261 0.0
C361 C 0.18779 0.9702 0.55976 0.0
C362 C 0.21653 0.96162 0.5742 0.0
H363 H 0.33207 0.87472 0.64339 0.0
H364 H 0.28322 0.8902 0.62702 0.0
H365 H 0.27326 0.9907 0.62615 0.0
H366 H 0.15654 0.0349 0.53721 0.0
H367 H 0.205 0.01782 0.55111 0.0
C368 C 0.6958 0.3924 0.90539 0.0
C369 C 0.67332 0.41227 0.90632 0.0
C370 C 0.72315 0.40031 0.92204 0.0
C371 C 0.77198 0.46821 0.94054 0.0
H372 H 0.81316 0.42358 1.00515 0.0
C373 C 0.88009 0.52462 0.9978 0.0
C374 C 0.90384 0.50639 0.99898 0.0
C375 C 0.85092 0.51077 0.99313 0.0
C376 C 0.80197 0.43615 0.98698 0.0
H377 H 0.66087 0.45505 0.9256 0.0
H378 H 0.70889 0.46932 0.95438 0.0
H379 H 0.7637 0.40189 0.98334 0.0
H380 H 0.91623 0.45965 0.99811 0.0
H381 H 0.86494 0.43511 0.98954 0.0
H382 H 0.81005 0.50188 0.94292 0.0
C383 C 0.70526 0.44748 0.94132 0.0
C384 C 0.7738 0.42376 0.9746 0.0
C385 C 0.67792 0.43934 0.9251 0.0
C386 C 0.89802 0.47399 0.9979 0.0
C387 C 0.86872 0.46004 0.99282 0.0
C388 C 0.80007 0.48036 0.95255 0.0
C389 C 0.7283 0.42843 0.93924 0.0
C390 C 0.7585 0.44004 0.95168 0.0
C391 C 0.84507 0.47846 0.98879 0.0
C392 C 0.8152 0.46481 0.97634 0.0
H393 H 0.69295 0.37192 0.89022 0.0
H394 H 0.74085 0.38556 0.91982 0.0
H395 H 0.76077 0.48078 0.92234 0.0
H396 H 0.88429 0.54971 0.99817 0.0
H397 H 0.8331 0.52555 0.99092 0.0
C398 C 0.82927 0.58188 0.45933 0.0
C399 C 0.83417 0.60037 0.43261 0.0
C400 C 0.80034 0.57531 0.47003 0.0
C401 C 0.72806 0.60724 0.46708 0.0
H402 H 0.69327 0.52414 0.4857 0.0
C403 C 0.60283 0.56931 0.45768 0.0
C404 C 0.5901 0.5489 0.48007 0.0
C405 C 0.6335 0.57807 0.45898 0.0
C406 C 0.70289 0.54757 0.48125 0.0
H407 H 0.81361 0.62611 0.39572 0.0
H408 H 0.76309 0.61472 0.41407 0.0
H409 H 0.74599 0.53314 0.47338 0.0
H410 H 0.59891 0.52206 0.52182 0.0
H411 H 0.6531 0.53688 0.52369 0.0
H412 H 0.68488 0.62156 0.47375 0.0
C413 C 0.78131 0.60546 0.42706 0.0
C414 C 0.73301 0.55268 0.47412 0.0
C415 C 0.81002 0.61177 0.41637 0.0
C416 C 0.60832 0.5382 0.50456 0.0
C417 C 0.63923 0.54642 0.50544 0.0
C418 C 0.69807 0.60214 0.47413 0.0
C419 C 0.77618 0.58759 0.45429 0.0
C420 C 0.7456 0.58244 0.46601 0.0
C421 C 0.65213 0.56602 0.48228 0.0
C422 C 0.68495 0.57214 0.48039 0.0
H423 H 0.84785 0.57303 0.47206 0.0
H424 H 0.79699 0.56143 0.49103 0.0
H425 H 0.73736 0.63055 0.46161 0.0
H426 H 0.58914 0.57764 0.4385 0.0
H427 H 0.64281 0.59298 0.44064 0.0
C428 C 0.16329 0.26363 0.11081 0.0
C429 C 0.14731 0.23407 0.11161 0.0
C430 C 0.14972 0.28889 0.09861 0.0
C431 C 0.08374 0.31014 0.04941 0.0
H432 H 0.1025 0.38923 0.09344 0.0
C433 C 0.01724 0.41939 0.03406 0.0
C434 C 0.03478 0.44819 0.03377 0.0
C435 C 0.03076 0.39186 0.0387 0.0
C436 C 0.0972 0.3674 0.08062 0.0
H437 H 0.10492 0.20751 0.09966 0.0
H438 H 0.08096 0.25149 0.07847 0.0
H439 H 0.12648 0.34458 0.1115 0.0
H440 H 0.08 0.4707 0.03723 0.0
H441 H 0.10339 0.42318 0.0453 0.0
H442 H 0.0538 0.33325 0.01901 0.0
C443 C 0.10407 0.25533 0.087 0.0
C444 C 0.11109 0.34171 0.09093 0.0
C445 C 0.11766 0.23012 0.09932 0.0
C446 C 0.06597 0.44875 0.03658 0.0
C447 C 0.07935 0.42155 0.04171 0.0
C448 C 0.06961 0.33591 0.03923 0.0
C449 C 0.11976 0.28525 0.08682 0.0
C450 C 0.10476 0.31266 0.07543 0.0
C451 C 0.06194 0.39285 0.04397 0.0
C452 C 0.07635 0.36495 0.05458 0.0
H453 H 0.18611 0.2673 0.12033 0.0
H454 H 0.16278 0.31135 0.09851 0.0
H455 H 0.07845 0.28833 0.03659 0.0
H456 H 0.99314 0.41837 0.03287 0.0
H457 H 0.0167 0.37012 0.04035 0.0
C458 C 0.63942 0.33203 0.88318 0.0
C459 C 0.62744 0.35586 0.89928 0.0
C460 C 0.63572 0.30176 0.89423 0.0
C461 C 0.5816 0.25204 0.93657 0.0
H462 H 0.6398 0.19253 0.93502 0.0
C463 C 0.54224 0.12795 0.95927 0.0
C464 C 0.55701 0.11788 0.98658 0.0
C465 C 0.55578 0.15226 0.94174 0.0
C466 C 0.62332 0.20888 0.93532 0.0
H467 H 0.6029 0.36768 0.93956 0.0
H468 H 0.5963 0.31439 0.95945 0.0
H469 H 0.65499 0.24722 0.92388 0.0
H470 H 0.59903 0.12099 0.01373 0.0
H471 H 0.62296 0.16304 0.98297 0.0
H472 H 0.55003 0.21424 0.94841 0.0
C473 C 0.60871 0.31909 0.93832 0.0
C474 C 0.63199 0.24012 0.92904 0.0
C475 C 0.61264 0.34947 0.92728 0.0
C476 C 0.58732 0.12823 0.99253 0.0
C477 C 0.60089 0.15268 0.97512 0.0
C478 C 0.57292 0.22093 0.94254 0.0
C479 C 0.61951 0.2948 0.92136 0.0
C480 C 0.61119 0.26201 0.92974 0.0
C481 C 0.58425 0.16662 0.95137 0.0
C482 C 0.59361 0.19894 0.9419 0.0
H483 H 0.6503 0.33671 0.86109 0.0
H484 H 0.64392 0.28356 0.88042 0.0
H485 H 0.56496 0.26822 0.93682 0.0
H486 H 0.51877 0.12046 0.95437 0.0
H487 H 0.54272 0.16204 0.92294 0.0
C488 C 0.91054 0.69948 0.39634 0.0
C489 C 0.9201 0.67325 0.41107 0.0
C490 C 0.92432 0.72922 0.40469 0.0
C491 C 0.99121 0.77176 0.44729 0.0
H492 H 0.93858 0.83565 0.45788 0.0
C493 C 0.9923 0.90804 0.49508 0.0
C494 C 0.01589 0.92173 0.47764 0.0
C495 C 0.98304 0.87609 0.49183 0.0
C496 C 0.95356 0.81797 0.4555 0.0
H497 H 0.95171 0.65706 0.44518 0.0
H498 H 0.97613 0.70868 0.4597 0.0
H499 H 0.91796 0.78393 0.43922 0.0
H500 H 0.04902 0.91261 0.44432 0.0
H501 H 0.03366 0.85725 0.43929 0.0
H502 H 0.02678 0.80585 0.46357 0.0
C503 C 0.95836 0.70663 0.4414 0.0
C504 C 0.94179 0.78841 0.44423 0.0
C505 C 0.94459 0.67702 0.43298 0.0
C506 C 0.03155 0.9025 0.45904 0.0
C507 C 0.02243 0.87074 0.45583 0.0
C508 C 1.00298 0.80135 0.45839 0.0
C509 C 0.94787 0.73325 0.42807 0.0
C510 C 0.96048 0.76492 0.43973 0.0
C511 C 0.99725 0.85733 0.47106 0.0
C512 C 0.98436 0.82493 0.46246 0.0
H513 H 0.89127 0.69703 0.37987 0.0
H514 H 0.91594 0.7491 0.39351 0.0
H515 H 0.00634 0.75438 0.44407 0.0
H516 H 0.9792 0.92243 0.50874 0.0
H517 H 0.96376 0.86641 0.50418 0.0
C518 C 0.41182 0.82027 0.61914 0.0
C519 C 0.42871 0.84849 0.61357 0.0
C520 C 0.42027 0.79265 0.6072 0.0
C521 C 0.46335 0.7607 0.54499 0.0
H522 H 0.45087 0.6869 0.59584 0.0
C523 C 0.49233 0.63386 0.51582 0.0
C524 C 0.4692 0.61091 0.52263 0.0
C525 C 0.4894 0.66519 0.52223 0.0
C526 C 0.45442 0.70733 0.58134 0.0
H527 H 0.46756 0.87065 0.59165 0.0
H528 H 0.48296 0.82187 0.57068 0.0
H529 H 0.4442 0.73709 0.61903 0.0
H530 H 0.42414 0.60242 0.5384 0.0
H531 H 0.41885 0.65677 0.54901 0.0
H532 H 0.47369 0.73031 0.50729 0.0
C533 C 0.46301 0.82111 0.58409 0.0
C534 C 0.45055 0.73606 0.59459 0.0
C535 C 0.45445 0.84887 0.59618 0.0
C536 C 0.4422 0.61978 0.53283 0.0
C537 C 0.43929 0.6508 0.5392 0.0
C538 C 0.46752 0.73176 0.53176 0.0
C539 C 0.44593 0.79268 0.58946 0.0
C540 C 0.45407 0.76299 0.57633 0.0
C541 C 0.46337 0.67358 0.53555 0.0
C542 C 0.46219 0.70478 0.54961 0.0
H543 H 0.39179 0.81979 0.6324 0.0
H544 H 0.40627 0.77131 0.61129 0.0
H545 H 0.46617 0.78103 0.53029 0.0
H546 H 0.51352 0.62742 0.50844 0.0
H547 H 0.50824 0.68244 0.51923 0.0
C548 C 0.9041 0.8949 0.82288 0.0
C549 C 0.9119 0.91578 0.84834 0.0
C550 C 0.91697 0.89978 0.7933 0.0
C551 C 0.95234 0.96471 0.74622 0.0
H552 H 0.96749 0.8997 0.68722 0.0
C553 C 0.97753 0.99405 0.61652 0.0
C554 C 1.00111 0.98056 0.60328 0.0
C555 C 0.96536 0.98283 0.64478 0.0
C556 C 0.96348 0.91819 0.7034 0.0
H557 H 0.94033 0.95696 0.86362 0.0
H558 H 0.96341 0.96527 0.81256 0.0
H559 H 0.95201 0.88633 0.74073 0.0
H560 H 0.03019 0.9444 0.60919 0.0
H561 H 0.00869 0.92431 0.65815 0.0
H562 H 0.96422 0.99663 0.7094 0.0
C563 C 0.94693 0.94544 0.81488 0.0
C564 C 0.95435 0.91048 0.7341 0.0
C565 C 0.93406 0.94052 0.8443 0.0
C566 C 0.01125 0.95453 0.61813 0.0
C567 C 0.9991 0.94325 0.64647 0.0
C568 C 0.96132 0.97238 0.71562 0.0
C569 C 0.93787 0.92577 0.78855 0.0
C570 C 0.9486 0.93364 0.75601 0.0
C571 C 0.97672 0.95801 0.6609 0.0
C572 C 0.96685 0.94928 0.69357 0.0
H573 H 0.8867 0.87596 0.82532 0.0
H574 H 0.90925 0.88416 0.77371 0.0
H575 H 0.9478 0.98329 0.76205 0.0
H576 H 0.9699 0.01474 0.60623 0.0
H577 H 0.94782 0.99453 0.65469 0.0
C578 C 0.68874 0.14611 0.34669 0.0
C579 C 0.68001 0.13235 0.3752 0.0
C580 C 0.6776 0.13311 0.31752 0.0
C581 C 0.63859 0.06744 0.27238 0.0
H582 H 0.59775 0.13112 0.2307 0.0
C583 C 0.56357 0.04898 0.15349 0.0
C584 C 0.56624 0.07422 0.13276 0.0
C585 C 0.57815 0.05144 0.18389 0.0
C586 C 0.60926 0.11308 0.24173 0.0
H587 H 0.65443 0.09327 0.39577 0.0
H588 H 0.63542 0.06966 0.34435 0.0
H589 H 0.62458 0.14258 0.28143 0.0
H590 H 0.58808 0.12063 0.12649 0.0
H591 H 0.61384 0.1245 0.17818 0.0
H592 H 0.62371 0.03816 0.23188 0.0
C593 C 0.65106 0.09045 0.34466 0.0
C594 C 0.62459 0.11969 0.27088 0.0
C595 C 0.66215 0.1037 0.37399 0.0
C596 C 0.58502 0.10101 0.14215 0.0
C597 C 0.59969 0.1033 0.17197 0.0
C598 C 0.62341 0.06086 0.24272 0.0
C599 C 0.65749 0.10597 0.31627 0.0
C600 C 0.63999 0.09725 0.28619 0.0
C601 C 0.59574 0.07907 0.19373 0.0
C602 C 0.60923 0.08396 0.22668 0.0
H603 H 0.7017 0.16865 0.34717 0.0
H604 H 0.68296 0.14551 0.29598 0.0
H605 H 0.65003 0.04965 0.28396 0.0
H606 H 0.54927 0.02801 0.14681 0.0
H607 H 0.57476 0.03227 0.20003 0.0
C608 C 0.43167 0.65988 0.21235 0.0
C609 C 0.40675 0.67622 0.20844 0.0
C610 C 0.4409 0.65102 0.24265 0.0
C611 C 0.42867 0.65688 0.32904 0.0
H612 H 0.43134 0.56796 0.32437 0.0
C613 C 0.4668 0.57741 0.42865 0.0
C614 C 0.45573 0.54599 0.42551 0.0
C615 C 0.45562 0.59909 0.40833 0.0
C616 C 0.43014 0.59271 0.32618 0.0
H617 H 0.37313 0.69816 0.23229 0.0
H618 H 0.38948 0.68337 0.2855 0.0
H619 H 0.42907 0.59703 0.27582 0.0
H620 H 0.4214 0.51316 0.40325 0.0
H621 H 0.4007 0.55117 0.36904 0.0
H622 H 0.42961 0.65213 0.37978 0.0
C623 C 0.40219 0.67759 0.26549 0.0
C624 C 0.42957 0.60949 0.29831 0.0
C625 C 0.39291 0.68624 0.23518 0.0
C626 C 0.43012 0.53737 0.40609 0.0
C627 C 0.41864 0.55904 0.38618 0.0
C628 C 0.42946 0.64 0.35716 0.0
C629 C 0.42516 0.6584 0.26928 0.0
C630 C 0.42881 0.64172 0.29938 0.0
C631 C 0.43314 0.58935 0.38507 0.0
C632 C 0.42989 0.60768 0.35593 0.0
H633 H 0.44213 0.65157 0.19177 0.0
H634 H 0.45888 0.63646 0.24499 0.0
H635 H 0.42795 0.68173 0.33045 0.0
H636 H 0.48687 0.58441 0.44322 0.0
H637 H 0.4671 0.62234 0.4082 0.0
C638 C 0.09132 0.45895 0.70281 0.0
C639 C 0.10867 0.4349 0.69688 0.0
C640 C 0.0861 0.46719 0.73408 0.0
C641 C 0.08734 0.43704 0.81606 0.0
H642 H 0.0833 0.52328 0.83843 0.0
C643 C 0.02384 0.47828 0.91991 0.0
C644 C 0.03136 0.50848 0.93196 0.0
C645 C 0.04121 0.46619 0.89726 0.0
C646 C 0.08503 0.49913 0.83291 0.0
H647 H 0.13457 0.40076 0.71785 0.0
H648 H 0.12597 0.41525 0.77275 0.0
H649 H 0.0965 0.50962 0.78525 0.0
H650 H 0.06453 0.54838 0.93316 0.0
H651 H 0.09576 0.52685 0.89451 0.0
H652 H 0.07584 0.42658 0.86379 0.0
C653 C 0.11584 0.42747 0.75355 0.0
C654 C 0.09202 0.49125 0.80213 0.0
C655 C 0.1209 0.41923 0.72232 0.0
C656 C 0.05859 0.52479 0.9245 0.0
C657 C 0.07609 0.5127 0.90186 0.0
C658 C 0.0805 0.44493 0.84693 0.0
C659 C 0.09835 0.45155 0.75986 0.0
C660 C 0.0927 0.46007 0.79314 0.0
C661 C 0.06637 0.48424 0.88633 0.0
C662 C 0.07869 0.47603 0.85558 0.0
H663 H 0.08186 0.47121 0.68323 0.0
H664 H 0.07216 0.48553 0.73804 0.0
H665 H 0.08744 0.41275 0.80991 0.0
H666 H 1.00259 0.46559 0.92492 0.0
H667 H 0.03294 0.44423 0.88589 0.0
C668 C 0.83515 0.95553 0.95079 0.0
C669 C 0.83384 0.94267 0.91994 0.0
C670 C 0.81016 0.96734 0.96292 0.0
C671 C 0.74089 0.99999 0.93935 0.0
H672 H 0.71249 0.97106 0.02031 0.0
C673 C 0.62392 0.02207 0.9796 0.0
C674 C 0.6177 0.0208 0.01189 0.0
C675 C 0.65212 0.01676 0.9695 0.0
C676 C 0.72029 0.98015 0.99802 0.0
H677 H 0.80578 0.93251 0.8774 0.0
H678 H 0.76225 0.95406 0.8981 0.0
H679 H 0.75791 0.95377 1.00077 0.0
H680 H 0.63629 0.01379 0.0591 0.0
H681 H 0.68617 0.00702 0.04208 0.0
H682 H 0.70418 0.02714 0.93669 0.0
C683 C 0.7825 0.95481 0.91304 0.0
C684 C 0.74636 0.96991 0.98671 0.0
C685 C 0.80731 0.9425 0.90117 0.0
C686 C 0.64074 0.01578 0.03411 0.0
C687 C 0.66919 0.01109 0.02412 0.0
C688 C 0.71522 0.0108 0.95094 0.0
C689 C 0.78352 0.96713 0.94417 0.0
C690 C 0.75673 0.97935 0.95703 0.0
C691 C 0.6751 0.01027 0.99149 0.0
C692 C 0.70409 1.00073 0.98028 0.0
H693 H 0.8555 0.95619 0.96554 0.0
H694 H 0.81174 0.9769 0.98688 0.0
H695 H 0.74852 0.00799 0.91656 0.0
H696 H 0.60625 0.02475 0.96189 0.0
H697 H 0.65507 0.01585 0.94419 0.0
C698 C 0.7357 0.1299 0.45938 0.0
C699 C 0.72883 0.14193 0.42947 0.0
C700 C 0.76344 0.11937 0.46614 0.0
C701 C 0.84085 0.12838 0.43903 0.0
H702 H 0.85068 0.0589 0.4942 0.0
C703 C 0.94918 0.07026 0.44914 0.0
C704 C 0.9584 0.05795 0.47823 0.0
C705 C 0.92237 0.08333 0.44589 0.0
C706 C 0.84839 0.0787 0.47921 0.0
H707 H 0.74516 0.15163 0.38284 0.0
H708 H 0.79331 0.1319 0.39391 0.0
H709 H 0.80081 0.07316 0.48122 0.0
H710 H 0.94731 0.05094 0.52724 0.0
H711 H 0.89993 0.07406 0.52166 0.0
H712 H 0.88838 0.13364 0.43667 0.0
C713 C 0.7775 0.1312 0.41251 0.0
C714 C 0.81974 0.08682 0.47161 0.0
C715 C 0.74972 0.14196 0.40587 0.0
C716 C 0.94083 0.06042 0.5046 0.0
C717 C 0.91359 0.07332 0.50126 0.0
C718 C 0.86945 0.12023 0.44657 0.0
C719 C 0.78501 0.12043 0.44301 0.0
C720 C 0.81553 0.1116 0.45114 0.0
C721 C 0.90378 0.08435 0.47162 0.0
C722 C 0.87361 0.09505 0.46647 0.0
H723 H 0.71992 0.12989 0.47797 0.0
H724 H 0.76837 0.11162 0.48995 0.0
H725 H 0.83867 0.14808 0.42387 0.0
H726 H 0.96229 0.06875 0.42838 0.0
H727 H 0.91554 0.09124 0.42267 0.0
C728 C 0.31844 0.62231 0.11718 0.0
C729 C 0.32536 0.65263 0.12895 0.0
C730 C 0.29003 0.61286 0.10387 0.0
C731 C 0.22792 0.64391 0.06242 0.0
H732 H 0.1837 0.56534 0.08196 0.0
C733 C 0.10345 0.60667 0.03071 0.0
C734 C 0.09523 0.57492 0.02557 0.0
C735 C 0.13346 0.61768 0.03623 0.0
C736 C 0.19611 0.58705 0.07577 0.0
H737 H 0.30841 0.69645 0.13807 0.0
H738 H 0.25861 0.68022 0.11401 0.0
H739 H 0.23127 0.58125 0.11023 0.0
H740 H 0.11098 0.5301 0.01871 0.0
H741 H 0.16357 0.54938 0.02753 0.0
H742 H 0.1925 0.64981 0.02814 0.0
C743 C 0.27513 0.66389 0.11473 0.0
C744 C 0.22314 0.59621 0.09214 0.0
C745 C 0.30341 0.67314 0.12837 0.0
C746 C 0.11715 0.5548 0.02225 0.0
C747 C 0.14708 0.56574 0.02772 0.0
C748 C 0.20085 0.63469 0.04594 0.0
C749 C 0.26839 0.63381 0.10196 0.0
C750 C 0.23928 0.62464 0.08551 0.0
C751 C 0.15522 0.59684 0.03687 0.0
C752 C 0.18484 0.60609 0.05235 0.0
H753 H 0.33524 0.6063 0.11765 0.0
H754 H 0.28527 0.58955 0.0941 0.0
H755 H 0.2402 0.66586 0.05678 0.0
H756 H 0.08662 0.6223 0.03384 0.0
H757 H 0.13919 0.64177 0.04322 0.0
C758 C 0.17228 0.42996 0.57808 0.0
C759 C 0.17041 0.41734 0.60848 0.0
C760 C 0.20002 0.43553 0.5643 0.0
C761 C 0.28001 0.44892 0.58944 0.0
H762 H 0.2946 0.43688 0.50034 0.0
C763 C 0.39796 0.45158 0.551 0.0
C764 C 0.40659 0.47445 0.52896 0.0
C765 C 0.3679 0.44212 0.55489 0.0
C766 C 0.29068 0.4405 0.52521 0.0
H767 H 0.19505 0.39981 0.64814 0.0
H768 H 0.24328 0.40814 0.62394 0.0
H769 H 0.24389 0.42502 0.51912 0.0
H770 H 0.39082 0.50367 0.49191 0.0
H771 H 0.33763 0.4868 0.49866 0.0
H772 H 0.32659 0.46376 0.5958 0.0
C773 C 0.22375 0.41446 0.61074 0.0
C774 C 0.26173 0.4338 0.53597 0.0
C775 C 0.1962 0.40921 0.62446 0.0
C776 C 0.38468 0.48567 0.50876 0.0
C777 C 0.35433 0.47619 0.51276 0.0
C778 C 0.30873 0.45526 0.57881 0.0
C779 C 0.2262 0.42857 0.5809 0.0
C780 C 0.25624 0.43732 0.5684 0.0
C781 C 0.34577 0.45545 0.53695 0.0
C782 C 0.31453 0.45052 0.54677 0.0
H783 H 0.15253 0.43686 0.56579 0.0
H784 H 0.20111 0.44659 0.54141 0.0
H785 H 0.2765 0.453 0.61433 0.0
H786 H 0.41444 0.44261 0.56685 0.0
H787 H 0.36189 0.42574 0.57336 0.0
C788 C 0.8873 0.83716 0.9022 0.0
C789 C 0.90483 0.86579 0.89999 0.0
C790 C 0.89997 0.81085 0.91265 0.0
C791 C 0.9642 0.76944 0.91991 0.0
H792 H 0.93301 0.7387 0.99922 0.0
C793 C 1.00353 0.65849 0.97526 0.0
C794 C 0.98184 0.63792 0.98919 0.0
C795 C 0.99794 0.68886 0.96796 0.0
C796 C 0.9418 0.74656 0.97689 0.0
H797 H 0.94977 0.88878 0.90435 0.0
H798 H 0.97252 0.84191 0.92112 0.0
H799 H 0.91593 0.78526 0.97603 0.0
H800 H 0.93741 0.63311 1.00668 0.0
H801 H 0.92726 0.68566 0.99385 0.0
H802 H 0.98871 0.72995 0.91945 0.0
C803 C 0.94874 0.84025 0.91551 0.0
C804 C 0.93213 0.77348 0.96375 0.0
C805 C 0.93585 0.86692 0.90566 0.0
C806 C 0.95495 0.6488 0.99702 0.0
C807 C 0.94912 0.67904 0.98935 0.0
C808 C 0.97347 0.74209 0.93271 0.0
C809 C 0.93067 0.81228 0.92025 0.0
C810 C 0.94298 0.78504 0.935 0.0
C811 C 0.97013 0.69929 0.97367 0.0
C812 C 0.96217 0.72994 0.96129 0.0
H813 H 0.86338 0.83567 0.8977 0.0
H814 H 0.88559 0.78953 0.91572 0.0
H815 H 0.97274 0.77774 0.89759 0.0
H816 H 0.02417 0.65043 0.96816 0.0
H817 H 0.01507 0.7037 0.95668 0.0
C818 C 0.40415 0.74791 0.18001 0.0
C819 C 0.4119 0.72571 0.15839 0.0
C820 C 0.41527 0.77903 0.17738 0.0
C821 C 0.43687 0.83222 0.11485 0.0
H822 H 0.46438 0.89103 0.18274 0.0
C823 C 0.46283 0.9564 0.08261 0.0
C824 C 0.49326 0.96527 0.0894 0.0
C825 C 0.44788 0.93249 0.0996 0.0
C826 C 0.45641 0.87488 0.16365 0.0
H827 H 0.43843 0.71765 0.11842 0.0
H828 H 0.458 0.77229 0.11345 0.0
H829 H 0.45342 0.83585 0.19467 0.0
H830 H 0.53038 0.96093 0.12263 0.0
H831 H 0.50433 0.9199 0.15284 0.0
H832 H 0.44038 0.87065 0.08364 0.0
C833 C 0.44333 0.76573 0.13246 0.0
C834 C 0.45026 0.84338 0.17044 0.0
C835 C 0.43246 0.73458 0.13541 0.0
C836 C 0.50681 0.95452 0.11713 0.0
C837 C 0.49192 0.93067 0.13422 0.0
C838 C 0.44271 0.86359 0.10813 0.0
C839 C 0.43395 0.78838 0.15271 0.0
C840 C 0.44087 0.82173 0.14598 0.0
C841 C 0.46326 0.91759 0.12372 0.0
C842 C 0.4528 0.8853 0.13238 0.0
H843 H 0.38768 0.74158 0.1973 0.0
H844 H 0.40751 0.79601 0.19313 0.0
H845 H 0.42916 0.81612 0.09561 0.0
H846 H 0.45198 0.96427 0.06116 0.0
H847 H 0.42549 0.92336 0.09151 0.0
C848 C 0.13948 0.34527 0.61086 0.0
C849 C 0.11854 0.36652 0.60602 0.0
C850 C 0.13451 0.31557 0.59703 0.0
C851 C 0.08491 0.26628 0.53775 0.0
H852 H 0.10912 0.19963 0.59009 0.0
C853 C 0.04279 0.13168 0.53956 0.0
C854 C 0.06601 0.11305 0.53592 0.0
C855 C 0.04866 0.16413 0.5398 0.0
C856 C 0.10242 0.21809 0.57516 0.0
H857 H 0.0765 0.37409 0.58263 0.0
H858 H 0.0671 0.32203 0.55909 0.0
H859 H 0.12145 0.25316 0.60823 0.0
H860 H 0.11293 0.11351 0.52749 0.0
H861 H 0.12317 0.17 0.52792 0.0
H862 H 0.06453 0.2304 0.50552 0.0
C863 C 0.08779 0.32821 0.5728 0.0
C864 C 0.10969 0.24884 0.58537 0.0
C865 C 0.09301 0.358 0.58636 0.0
C866 C 0.09445 0.12731 0.52932 0.0
C867 C 0.10043 0.15962 0.53006 0.0
C868 C 0.07718 0.23535 0.5278 0.0
C869 C 0.10817 0.30628 0.57848 0.0
C870 C 0.10115 0.27348 0.5668 0.0
C871 C 0.0779 0.17821 0.5368 0.0
C872 C 0.08601 0.21108 0.54641 0.0
H873 H 0.15899 0.35113 0.62653 0.0
H874 H 0.15105 0.29967 0.60155 0.0
H875 H 0.07822 0.2845 0.52256 0.0
H876 H 0.02095 0.12129 0.5458 0.0
H877 H 0.03103 0.17806 0.54538 0.0
C878 C 0.64529 0.22052 0.47275 0.0
C879 C 0.65616 0.21846 0.44228 0.0
C880 C 0.62961 0.24534 0.48096 0.0
C881 C 0.5864 0.30379 0.44275 0.0
H882 H 0.59111 0.34127 0.52706 0.0
C883 C 0.5097 0.39528 0.47136 0.0
C884 C 0.52316 0.42191 0.48761 0.0
C885 C 0.52402 0.36835 0.47072 0.0
C886 C 0.5896 0.33112 0.50337 0.0
H887 H 0.66106 0.24097 0.39709 0.0
H888 H 0.6344 0.2848 0.41139 0.0
H889 H 0.62233 0.30039 0.51538 0.0
H890 H 0.5618 0.44134 0.5163 0.0
H891 H 0.58696 0.39445 0.51528 0.0
H892 H 0.55481 0.33519 0.43014 0.0
C893 C 0.63699 0.26697 0.42877 0.0
C894 C 0.60731 0.30747 0.49675 0.0
C895 C 0.65241 0.24211 0.42058 0.0
C896 C 0.5504 0.4207 0.50472 0.0
C897 C 0.56495 0.39386 0.50379 0.0
C898 C 0.56893 0.32747 0.44927 0.0
C899 C 0.62476 0.26856 0.45881 0.0
C900 C 0.60601 0.29363 0.46628 0.0
C901 C 0.55247 0.36776 0.48569 0.0
C902 C 0.57022 0.34146 0.47966 0.0
H903 H 0.64805 0.20235 0.4897 0.0
H904 H 0.62038 0.24569 0.50422 0.0
H905 H 0.58439 0.29337 0.41916 0.0
H906 H 0.48891 0.39589 0.45757 0.0
H907 H 0.5134 0.34848 0.45718 0.0
loop_
_geom_bond_atom_site_label_1
_geom_bond_atom_site_label_2
_geom_bond_distance
_geom_bond_site_symmetry_2
_ccdc_geom_bond_type
C0 N1 1.317 . S
C0 N2 1.348 . S
C0 C3 1.485 . S
N1 C0 1.317 . S
N1 N5 1.370 . S
N2 C0 1.348 . S
N2 C4 1.346 . S
C3 C0 1.485 . S
C3 H7 0.960 . S
C3 H8 0.961 . S
C3 H9 0.960 . S
C4 N2 1.346 . S
C4 N5 1.307 . S
C4 C6 1.486 . S
N5 N1 1.370 . S
N5 C4 1.307 . S
C6 C4 1.486 . S
C6 H10 0.960 . S
C6 H11 0.960 . S
C6 H12 0.959 . S
H7 C3 0.960 . S
H8 C3 0.961 . S
H9 C3 0.960 . S
H10 C6 0.960 . S
H11 C6 0.960 . S
H12 C6 0.959 . S
C13 N14 1.317 . S
C13 N15 1.348 . S
C13 C16 1.485 . S
N14 C13 1.317 . S
N14 N18 1.370 . S
N15 C13 1.348 . S
N15 C17 1.346 . S
C16 C13 1.485 . S
C16 H20 0.960 . S
C16 H21 0.961 . S
C16 H22 0.960 . S
C17 N15 1.346 . S
C17 N18 1.307 . S
C17 C19 1.486 . S
N18 N14 1.370 . S
N18 C17 1.307 . S
C19 C17 1.486 . S
C19 H23 0.960 . S
C19 H24 0.960 . S
C19 H25 0.959 . S
H20 C16 0.960 . S
H21 C16 0.961 . S
H22 C16 0.960 . S
H23 C19 0.960 . S
H24 C19 0.960 . S
H25 C19 0.959 . S
C26 N27 1.317 . S
C26 N28 1.348 . S
C26 C29 1.485 . S
N27 C26 1.317 . S
N27 N31 1.370 . S
N28 C26 1.348 . S
N28 C30 1.346 . S
C29 C26 1.485 . S
C29 H33 0.960 . S
C29 H34 0.961 . S
C29 H35 0.960 . S
C30 N28 1.346 . S
C30 N31 1.307 . S
C30 C32 1.486 . S
N31 N27 1.370 . S
N31 C30 1.307 . S
C32 C30 1.486 . S
C32 H36 0.960 . S
C32 H37 0.960 . S
C32 H38 0.959 . S
H33 C29 0.960 . S
H34 C29 0.961 . S
H35 C29 0.960 . S
H36 C32 0.960 . S
H37 C32 0.960 . S
H38 C32 0.959 . S
C39 N40 1.317 . S
C39 N41 1.348 . S
C39 C42 1.485 . S
N40 C39 1.317 . S
N40 N44 1.370 . S
N41 C39 1.348 . S
N41 C43 1.346 . S
C42 C39 1.485 . S
C42 H46 0.960 . S
C42 H47 0.961 . S
C42 H48 0.960 . S
C43 N41 1.346 . S
C43 N44 1.307 . S
C43 C45 1.486 . S
N44 N40 1.370 . S
N44 C43 1.307 . S
C45 C43 1.486 . S
C45 H49 0.960 . S
C45 H50 0.960 . S
C45 H51 0.959 . S
H46 C42 0.960 . S
H47 C42 0.961 . S
H48 C42 0.960 . S
H49 C45 0.960 . S
H50 C45 0.960 . S
H51 C45 0.959 . S
C52 N53 1.317 . S
C52 N54 1.348 . S
C52 C55 1.485 . S
N53 C52 1.317 . S
N53 N57 1.370 . S
N54 C52 1.348 . S
N54 C56 1.346 . S
C55 C52 1.485 . S
C55 H59 0.960 . S
C55 H60 0.961 . S
C55 H61 0.960 . S
C56 N54 1.346 . S
C56 N57 1.307 . S
C56 C58 1.486 . S
N57 N53 1.370 . S
N57 C56 1.307 . S
C58 C56 1.486 . S
C58 H62 0.960 . S
C58 H63 0.960 . S
C58 H64 0.959 . S
H59 C55 0.960 . S
H60 C55 0.961 . S
H61 C55 0.960 . S
H62 C58 0.960 . S
H63 C58 0.960 . S
H64 C58 0.959 . S
C65 N66 1.317 . S
C65 N67 1.348 . S
C65 C68 1.485 . S
N66 C65 1.317 . S
N66 N70 1.370 . S
N67 C65 1.348 . S
N67 C69 1.346 . S
C68 C65 1.485 . S
C68 H72 0.960 . S
C68 H73 0.961 . S
C68 H74 0.960 . S
C69 N67 1.346 . S
C69 N70 1.307 . S
C69 C71 1.486 . S
N70 N66 1.370 . S
N70 C69 1.307 . S
C71 C69 1.486 . S
C71 H75 0.960 . S
C71 H76 0.960 . S
C71 H77 0.959 . S
H72 C68 0.960 . S
H73 C68 0.961 . S
H74 C68 0.960 . S
H75 C71 0.960 . S
H76 C71 0.960 . S
H77 C71 0.959 . S
C78 N79 1.317 . S
C78 N80 1.348 . S
C78 C81 1.485 . S
N79 C78 1.317 . S
N79 N83 1.370 . S
N80 C78 1.348 . S
N80 C82 1.346 . S
C81 C78 1.485 . S
C81 H85 0.960 . S
C81 H86 0.961 . S
C81 H87 0.960 . S
C82 N80 1.346 . S
C82 N83 1.307 . S
C82 C84 1.486 . S
N83 N79 1.370 . S
N83 C82 1.307 . S
C84 C82 1.486 . S
C84 H88 0.960 . S
C84 H89 0.960 . S
C84 H90 0.959 . S
H85 C81 0.960 . S
H86 C81 0.961 . S
H87 C81 0.960 . S
H88 C84 0.960 . S
H89 C84 0.960 . S
H90 C84 0.959 . S
C91 N92 1.317 . S
C91 N93 1.348 . S
C91 C94 1.485 . S
N92 C91 1.317 . S
N92 N96 1.370 . S
N93 C91 1.348 . S
N93 C95 1.346 . S
C94 C91 1.485 . S
C94 H98 0.960 . S
C94 H99 0.961 . S
C94 H100 0.960 . S
C95 N93 1.346 . S
C95 N96 1.307 . S
C95 C97 1.486 . S
N96 N92 1.370 . S
N96 C95 1.307 . S
C97 C95 1.486 . S
C97 H101 0.960 . S
C97 H102 0.960 . S
C97 H103 0.959 . S
H98 C94 0.960 . S
H99 C94 0.961 . S
H100 C94 0.960 . S
H101 C97 0.960 . S
H102 C97 0.960 . S
H103 C97 0.959 . S
O104 Mn105 2.163 . S
O104 C118 1.244 1_455 S
Mn105 O104 2.163 . S
Mn105 O108 2.160 1_545 S
Mn105 O109 2.221 . S
Mn105 O111 2.163 1_545 S
Mn105 O113 2.160 . S
Mn105 O123 2.221 1_545 S
O106 Mn107 2.087 1_645 S
O106 C118 1.256 . S
Mn107 O106 2.087 1_465 S
Mn107 O114 2.089 1_565 S
Mn107 O123 2.290 . S
Mn107 O124 2.251 1_455 S
O108 Mn105 2.160 1_565 S
O108 C119 1.239 . S
O109 Mn105 2.221 . S
O109 Mn110 2.290 . S
O109 C120 1.278 . S
Mn110 O109 2.290 . S
Mn110 O112 2.089 . S
Mn110 O115 2.251 . S
Mn110 O116 2.087 . S
O111 Mn105 2.163 1_565 S
O111 C121 1.244 . S
O112 Mn110 2.089 . S
O112 C119 1.256 1_545 S
O113 Mn105 2.160 . S
O113 C122 1.239 . S
O114 Mn107 2.089 1_545 S
O114 C122 1.256 . S
O115 Mn110 2.251 . S
O115 C120 1.241 . S
O116 Mn110 2.087 . S
O116 C121 1.256 1_545 S
C117 O123 1.278 . S
C117 O124 1.241 1_455 S
C118 O104 1.244 1_655 S
C118 O106 1.256 . S
C119 O108 1.239 . S
C119 O112 1.256 1_565 S
C120 O109 1.278 . S
C120 O115 1.241 . S
C121 O111 1.244 . S
C121 O116 1.256 1_565 S
C122 O113 1.239 . S
C122 O114 1.256 . S
O123 Mn105 2.221 1_565 S
O123 Mn107 2.290 . S
O123 C117 1.278 . S
O124 Mn107 2.251 1_655 S
O124 C117 1.241 1_655 S
O125 Mn126 2.163 1_556 S
O125 C139 1.244 . S
Mn126 O125 2.163 1_554 S
Mn126 O129 2.160 . S
Mn126 O130 2.221 . S
Mn126 O132 2.163 . S
Mn126 O134 2.160 . S
Mn126 O144 2.221 1_545 S
O127 Mn128 2.087 1_556 S
O127 C139 1.256 1_565 S
Mn128 O127 2.087 1_554 S
Mn128 O135 2.089 1_554 S
Mn128 O144 2.290 . S
Mn128 O145 2.251 . S
O129 Mn126 2.160 . S
O129 C140 1.239 . S
O130 Mn126 2.221 . S
O130 Mn131 2.290 . S
O130 C141 1.278 . S
Mn131 O130 2.290 . S
Mn131 O133 2.089 . S
Mn131 O136 2.251 . S
Mn131 O137 2.087 . S
O132 Mn126 2.163 . S
O132 C142 1.244 . S
O133 Mn131 2.089 . S
O133 C140 1.256 . S
O134 Mn126 2.160 . S
O134 C143 1.239 . S
O135 Mn128 2.089 1_556 S
O135 C143 1.256 1_566 S
O136 Mn131 2.251 . S
O136 C141 1.241 . S
O137 Mn131 2.087 . S
O137 C142 1.256 . S
C138 O144 1.278 . S
C138 O145 1.241 . S
C139 O125 1.244 . S
C139 O127 1.256 1_545 S
C140 O129 1.239 . S
C140 O133 1.256 . S
C141 O130 1.278 . S
C141 O136 1.241 . S
C142 O132 1.244 . S
C142 O137 1.256 . S
C143 O134 1.239 . S
C143 O135 1.256 1_544 S
O144 Mn126 2.221 1_565 S
O144 Mn128 2.290 . S
O144 C138 1.278 . S
O145 Mn128 2.251 . S
O145 C138 1.241 . S
O146 Mn147 2.163 . S
O146 C160 1.244 . S
Mn147 O146 2.163 . S
Mn147 O150 2.160 . S
Mn147 O151 2.221 . S
Mn147 O153 2.163 . S
Mn147 O155 2.160 . S
Mn147 O165 2.221 . S
O148 Mn149 2.087 . S
O148 C160 1.256 . S
Mn149 O148 2.087 . S
Mn149 O156 2.089 . S
Mn149 O165 2.290 . S
Mn149 O166 2.251 . S
O150 Mn147 2.160 . S
O150 C161 1.239 . S
O151 Mn147 2.221 . S
O151 Mn152 2.290 . S
O151 C162 1.278 . S
Mn152 O151 2.290 . S
Mn152 O154 2.089 . S
Mn152 O157 2.251 . S
Mn152 O158 2.087 . S
O153 Mn147 2.163 . S
O153 C163 1.244 . S
O154 Mn152 2.089 . S
O154 C161 1.256 . S
O155 Mn147 2.160 . S
O155 C164 1.239 . S
O156 Mn149 2.089 . S
O156 C164 1.256 . S
O157 Mn152 2.251 . S
O157 C162 1.241 . S
O158 Mn152 2.087 . S
O158 C163 1.256 . S
C159 O165 1.278 . S
C159 O166 1.241 . S
C160 O146 1.244 . S
C160 O148 1.256 . S
C161 O150 1.239 . S
C161 O154 1.256 . S
C162 O151 1.278 . S
C162 O157 1.241 . S
C163 O153 1.244 . S
C163 O158 1.256 . S
C164 O155 1.239 . S
C164 O156 1.256 . S
O165 Mn147 2.221 . S
O165 Mn149 2.290 . S
O165 C159 1.278 . S
O166 Mn149 2.251 . S
O166 C159 1.241 . S
O167 Mn168 2.163 1_656 S
O167 C181 1.244 . S
Mn168 O167 2.163 1_454 S
Mn168 O171 2.160 . S
Mn168 O172 2.221 1_455 S
Mn168 O174 2.163 . S
Mn168 O176 2.160 1_454 S
Mn168 O186 2.221 1_554 S
O169 Mn170 2.087 . S
O169 C181 1.256 . S
Mn170 O169 2.087 . S
Mn170 O177 2.089 . S
Mn170 O186 2.290 1_655 S
Mn170 O187 2.251 . S
O171 Mn168 2.160 . S
O171 C182 1.239 . S
O172 Mn168 2.221 1_655 S
O172 Mn173 2.290 1_655 S
O172 C183 1.278 . S
Mn173 O172 2.290 1_455 S
Mn173 O175 2.089 . S
Mn173 O178 2.251 1_455 S
Mn173 O179 2.087 . S
O174 Mn168 2.163 . S
O174 C184 1.244 . S
O175 Mn173 2.089 . S
O175 C182 1.256 . S
O176 Mn168 2.160 1_656 S
O176 C185 1.239 . S
O177 Mn170 2.089 . S
O177 C185 1.256 . S
O178 Mn173 2.251 1_655 S
O178 C183 1.241 . S
O179 Mn173 2.087 . S
O179 C184 1.256 . S
C180 O186 1.278 . S
C180 O187 1.241 1_455 S
C181 O167 1.244 . S
C181 O169 1.256 . S
C182 O171 1.239 . S
C182 O175 1.256 . S
C183 O172 1.278 . S
C183 O178 1.241 . S
C184 O174 1.244 . S
C184 O179 1.256 . S
C185 O176 1.239 . S
C185 O177 1.256 . S
O186 Mn168 2.221 1_556 S
O186 Mn170 2.290 1_455 S
O186 C180 1.278 . S
O187 Mn170 2.251 . S
O187 C180 1.241 1_655 S
C188 C189 1.349 . S
C188 C190 1.327 . S
C188 H213 0.950 . S
C189 C188 1.349 . S
C189 C205 1.349 . S
C190 C188 1.327 . S
C190 C209 1.429 . S
C190 H214 0.950 . S
C191 C208 1.574 . S
C191 C210 1.368 . S
C191 H215 0.949 . S
H192 C196 0.949 . S
C193 C194 1.349 . S
C193 C195 1.327 . S
C193 H216 0.950 . S
C194 C193 1.349 . S
C194 C206 1.349 . S
C195 C193 1.327 . S
C195 C211 1.429 . S
C195 H217 0.950 . S
C196 H192 0.949 . S
C196 C204 1.574 . S
C196 C212 1.368 . S
H197 C205 0.950 . S
H198 C203 0.950 . S
H199 C204 0.949 . S
H200 C206 0.950 . S
H201 C207 0.950 . S
H202 C208 0.949 . S
C203 H198 0.950 . S
C203 C205 1.327 . S
C203 C209 1.429 . S
C204 C196 1.574 . S
C204 H199 0.949 . S
C204 C210 1.368 . S
C205 C189 1.349 . S
C205 H197 0.950 . S
C205 C203 1.327 . S
C206 C194 1.349 . S
C206 H200 0.950 . S
C206 C207 1.327 . S
C207 H201 0.950 . S
C207 C206 1.327 . S
C207 C211 1.429 . S
C208 C191 1.574 . S
C208 H202 0.949 . S
C208 C212 1.368 . S
C209 C190 1.429 . S
C209 C203 1.429 . S
C209 C210 1.523 . S
C210 C191 1.368 . S
C210 C204 1.368 . S
C210 C209 1.523 . S
C211 C195 1.429 . S
C211 C207 1.429 . S
C211 C212 1.523 . S
C212 C196 1.368 . S
C212 C208 1.368 . S
C212 C211 1.523 . S
H213 C188 0.950 . S
H214 C190 0.950 . S
H215 C191 0.949 . S
H216 C193 0.950 . S
H217 C195 0.950 . S
C218 C219 1.349 . S
C218 C220 1.327 . S
C218 H243 0.950 . S
C219 C218 1.349 . S
C219 C235 1.349 . S
C220 C218 1.327 . S
C220 C239 1.429 . S
C220 H244 0.950 . S
C221 C238 1.574 . S
C221 C240 1.368 . S
C221 H245 0.949 . S
H222 C226 0.949 . S
C223 C224 1.349 . S
C223 C225 1.327 . S
C223 H246 0.950 . S
C224 C223 1.349 . S
C224 C236 1.349 1_545 S
C225 C223 1.327 . S
C225 C241 1.429 1_545 S
C225 H247 0.950 . S
C226 H222 0.949 . S
C226 C234 1.574 . S
C226 C242 1.368 . S
H227 C235 0.950 . S
H228 C233 0.950 . S
H229 C234 0.949 . S
H230 C236 0.950 . S
H231 C237 0.950 . S
H232 C238 0.949 1_545 S
C233 H228 0.950 . S
C233 C235 1.327 . S
C233 C239 1.429 . S
C234 C226 1.574 . S
C234 H229 0.949 . S
C234 C240 1.368 . S
C235 C219 1.349 . S
C235 H227 0.950 . S
C235 C233 1.327 . S
C236 C224 1.349 1_565 S
C236 H230 0.950 . S
C236 C237 1.327 . S
C237 H231 0.950 . S
C237 C236 1.327 . S
C237 C241 1.429 . S
C238 C221 1.574 . S
C238 H232 0.949 1_565 S
C238 C242 1.368 . S
C239 C220 1.429 . S
C239 C233 1.429 . S
C239 C240 1.523 . S
C240 C221 1.368 . S
C240 C234 1.368 . S
C240 C239 1.523 . S
C241 C225 1.429 1_565 S
C241 C237 1.429 . S
C241 C242 1.523 . S
C242 C226 1.368 . S
C242 C238 1.368 . S
C242 C241 1.523 . S
H243 C218 0.950 . S
H244 C220 0.950 . S
H245 C221 0.949 . S
H246 C223 0.950 . S
H247 C225 0.950 . S
C248 C249 1.349 . S
C248 C250 1.327 . S
C248 H273 0.950 . S
C249 C248 1.349 . S
C249 C265 1.349 . S
C250 C248 1.327 . S
C250 C269 1.429 . S
C250 H274 0.950 . S
C251 C268 1.574 . S
C251 C270 1.368 . S
C251 H275 0.949 . S
H252 C256 0.949 . S
C253 C254 1.349 . S
C253 C255 1.327 . S
C253 H276 0.950 . S
C254 C253 1.349 . S
C254 C266 1.349 . S
C255 C253 1.327 . S
C255 C271 1.429 . S
C255 H277 0.950 . S
C256 H252 0.949 . S
C256 C264 1.574 . S
C256 C272 1.368 . S
H257 C265 0.950 . S
H258 C263 0.950 . S
H259 C264 0.949 . S
H260 C266 0.950 . S
H261 C267 0.950 . S
H262 C268 0.949 . S
C263 H258 0.950 . S
C263 C265 1.327 . S
C263 C269 1.429 . S
C264 C256 1.574 . S
C264 H259 0.949 . S
C264 C270 1.368 . S
C265 C249 1.349 . S
C265 H257 0.950 . S
C265 C263 1.327 . S
C266 C254 1.349 . S
C266 H260 0.950 . S
C266 C267 1.327 . S
C267 H261 0.950 . S
C267 C266 1.327 . S
C267 C271 1.429 . S
C268 C251 1.574 . S
C268 H262 0.949 . S
C268 C272 1.368 . S
C269 C250 1.429 . S
C269 C263 1.429 . S
C269 C270 1.523 . S
C270 C251 1.368 . S
C270 C264 1.368 . S
C270 C269 1.523 . S
C271 C255 1.429 . S
C271 C267 1.429 . S
C271 C272 1.523 . S
C272 C256 1.368 . S
C272 C268 1.368 . S
C272 C271 1.523 . S
H273 C248 0.950 . S
H274 C250 0.950 . S
H275 C251 0.949 . S
H276 C253 0.950 . S
H277 C255 0.950 . S
C278 C279 1.349 . S
C278 C280 1.327 . S
C278 H303 0.950 . S
C279 C278 1.349 . S
C279 C295 1.349 . S
C280 C278 1.327 . S
C280 C299 1.429 . S
C280 H304 0.950 . S
C281 C298 1.574 . S
C281 C300 1.368 . S
C281 H305 0.949 . S
H282 C286 0.949 . S
C283 C284 1.349 . S
C283 C285 1.327 . S
C283 H306 0.950 . S
C284 C283 1.349 . S
C284 C296 1.349 . S
C285 C283 1.327 . S
C285 C301 1.429 . S
C285 H307 0.950 . S
C286 H282 0.949 . S
C286 C294 1.574 . S
C286 C302 1.368 . S
H287 C295 0.950 . S
H288 C293 0.950 . S
H289 C294 0.949 . S
H290 C296 0.950 . S
H291 C297 0.950 . S
H292 C298 0.949 . S
C293 H288 0.950 . S
C293 C295 1.327 . S
C293 C299 1.429 . S
C294 C286 1.574 . S
C294 H289 0.949 . S
C294 C300 1.368 . S
C295 C279 1.349 . S
C295 H287 0.950 . S
C295 C293 1.327 . S
C296 C284 1.349 . S
C296 H290 0.950 . S
C296 C297 1.327 . S
C297 H291 0.950 . S
C297 C296 1.327 . S
C297 C301 1.429 . S
C298 C281 1.574 . S
C298 H292 0.949 . S
C298 C302 1.368 . S
C299 C280 1.429 . S
C299 C293 1.429 . S
C299 C300 1.523 . S
C300 C281 1.368 . S
C300 C294 1.368 . S
C300 C299 1.523 . S
C301 C285 1.429 . S
C301 C297 1.429 . S
C301 C302 1.523 . S
C302 C286 1.368 . S
C302 C298 1.368 . S
C302 C301 1.523 . S
H303 C278 0.950 . S
H304 C280 0.950 . S
H305 C281 0.949 . S
H306 C283 0.950 . S
H307 C285 0.950 . S
C308 C309 1.349 . S
C308 C310 1.327 . S
C308 H333 0.950 . S
C309 C308 1.349 . S
C309 C325 1.349 . S
C310 C308 1.327 . S
C310 C329 1.429 . S
C310 H334 0.950 . S
C311 C328 1.574 . S
C311 C330 1.368 . S
C311 H335 0.949 . S
H312 C316 0.949 . S
C313 C314 1.349 . S
C313 C315 1.327 . S
C313 H336 0.950 . S
C314 C313 1.349 . S
C314 C326 1.349 . S
C315 C313 1.327 . S
C315 C331 1.429 . S
C315 H337 0.950 . S
C316 H312 0.949 . S
C316 C324 1.574 . S
C316 C332 1.368 . S
H317 C325 0.950 . S
H318 C323 0.950 . S
H319 C324 0.949 . S
H320 C326 0.950 . S
H321 C327 0.950 . S
H322 C328 0.949 . S
C323 H318 0.950 . S
C323 C325 1.327 . S
C323 C329 1.429 . S
C324 C316 1.574 . S
C324 H319 0.949 . S
C324 C330 1.368 . S
C325 C309 1.349 . S
C325 H317 0.950 . S
C325 C323 1.327 . S
C326 C314 1.349 . S
C326 H320 0.950 . S
C326 C327 1.327 . S
C327 H321 0.950 . S
C327 C326 1.327 . S
C327 C331 1.429 . S
C328 C311 1.574 . S
C328 H322 0.949 . S
C328 C332 1.368 . S
C329 C310 1.429 . S
C329 C323 1.429 . S
C329 C330 1.523 . S
C330 C311 1.368 . S
C330 C324 1.368 . S
C330 C329 1.523 . S
C331 C315 1.429 . S
C331 C327 1.429 . S
C331 C332 1.523 . S
C332 C316 1.368 . S
C332 C328 1.368 . S
C332 C331 1.523 . S
H333 C308 0.950 . S
H334 C310 0.950 . S
H335 C311 0.949 . S
H336 C313 0.950 . S
H337 C315 0.950 . S
C338 C339 1.349 . S
C338 C340 1.327 . S
C338 H363 0.950 . S
C339 C338 1.349 . S
C339 C355 1.349 . S
C340 C338 1.327 . S
C340 C359 1.429 . S
C340 H364 0.950 . S
C341 C358 1.574 . S
C341 C360 1.368 . S
C341 H365 0.949 . S
H342 C346 0.949 . S
C343 C344 1.349 . S
C343 C345 1.327 . S
C343 H366 0.950 1_565 S
C344 C343 1.349 . S
C344 C356 1.349 . S
C345 C343 1.327 . S
C345 C361 1.429 . S
C345 H367 0.969 . S
C346 H342 0.949 . S
C346 C354 1.574 . S
C346 C362 1.368 . S
H347 C355 0.950 . S
H348 C353 0.950 . S
H349 C354 0.949 . S
H350 C356 0.950 . S
H351 C357 0.950 . S
H352 C358 0.949 . S
C353 H348 0.950 . S
C353 C355 1.327 . S
C353 C359 1.429 . S
C354 C346 1.574 . S
C354 H349 0.949 . S
C354 C360 1.368 . S
C355 C339 1.349 . S
C355 H347 0.950 . S
C355 C353 1.327 . S
C356 C344 1.349 . S
C356 H350 0.950 . S
C356 C357 1.327 . S
C357 H351 0.950 . S
C357 C356 1.327 . S
C357 C361 1.429 . S
C358 C341 1.574 . S
C358 H352 0.949 . S
C358 C362 1.368 . S
C359 C340 1.429 . S
C359 C353 1.429 . S
C359 C360 1.523 . S
C360 C341 1.368 . S
C360 C354 1.368 . S
C360 C359 1.523 . S
C361 C345 1.429 . S
C361 C357 1.429 . S
C361 C362 1.523 . S
C362 C346 1.368 . S
C362 C358 1.368 . S
C362 C361 1.523 . S
H363 C338 0.950 . S
H364 C340 0.950 . S
H365 C341 0.949 . S
H366 C343 0.950 1_545 S
H367 C345 0.969 . S
C368 C369 1.349 . S
C368 C370 1.327 . S
C368 H393 0.950 . S
C369 C368 1.349 . S
C369 C385 1.349 . S
C370 C368 1.327 . S
C370 C389 1.429 . S
C370 H394 0.950 . S
C371 C388 1.574 . S
C371 C390 1.368 . S
C371 H395 0.949 . S
H372 C376 0.949 . S
C373 C374 1.349 . S
C373 C375 1.327 . S
C373 H396 0.950 . S
C374 C373 1.349 . S
C374 C386 1.349 . S
C375 C373 1.327 . S
C375 C391 1.429 . S
C375 H397 0.950 . S
C376 H372 0.949 . S
C376 C384 1.574 . S
C376 C392 1.368 . S
H377 C385 0.950 . S
H378 C383 0.950 . S
H379 C384 0.949 . S
H380 C386 0.950 . S
H381 C387 0.950 . S
H382 C388 0.949 . S
C383 H378 0.950 . S
C383 C385 1.327 . S
C383 C389 1.429 . S
C384 C376 1.574 . S
C384 H379 0.949 . S
C384 C390 1.368 . S
C385 C369 1.349 . S
C385 H377 0.950 . S
C385 C383 1.327 . S
C386 C374 1.349 . S
C386 H380 0.950 . S
C386 C387 1.327 . S
C387 H381 0.950 . S
C387 C386 1.327 . S
C387 C391 1.429 . S
C388 C371 1.574 . S
C388 H382 0.949 . S
C388 C392 1.368 . S
C389 C370 1.429 . S
C389 C383 1.429 . S
C389 C390 1.523 . S
C390 C371 1.368 . S
C390 C384 1.368 . S
C390 C389 1.523 . S
C391 C375 1.429 . S
C391 C387 1.429 . S
C391 C392 1.523 . S
C392 C376 1.368 . S
C392 C388 1.368 . S
C392 C391 1.523 . S
H393 C368 0.950 . S
H394 C370 0.950 . S
H395 C371 0.949 . S
H396 C373 0.950 . S
H397 C375 0.950 . S
C398 C399 1.349 . S
C398 C400 1.327 . S
C398 H423 0.950 . S
C399 C398 1.349 . S
C399 C415 1.349 . S
C400 C398 1.327 . S
C400 C419 1.429 . S
C400 H424 0.950 . S
C401 C418 1.574 . S
C401 C420 1.368 . S
C401 H425 0.949 . S
H402 C406 0.949 . S
C403 C404 1.349 . S
C403 C405 1.327 . S
C403 H426 0.950 . S
C404 C403 1.349 . S
C404 C416 1.349 . S
C405 C403 1.327 . S
C405 C421 1.429 . S
C405 H427 0.950 . S
C406 H402 0.949 . S
C406 C414 1.574 . S
C406 C422 1.368 . S
H407 C415 0.950 . S
H408 C413 0.950 . S
H409 C414 0.949 . S
H410 C416 0.950 . S
H411 C417 0.950 . S
H412 C418 0.949 . S
C413 H408 0.950 . S
C413 C415 1.327 . S
C413 C419 1.429 . S
C414 C406 1.574 . S
C414 H409 0.949 . S
C414 C420 1.368 . S
C415 C399 1.349 . S
C415 H407 0.950 . S
C415 C413 1.327 . S
C416 C404 1.349 . S
C416 H410 0.950 . S
C416 C417 1.327 . S
C417 H411 0.950 . S
C417 C416 1.327 . S
C417 C421 1.429 . S
C418 C401 1.574 . S
C418 H412 0.949 . S
C418 C422 1.368 . S
C419 C400 1.429 . S
C419 C413 1.429 . S
C419 C420 1.523 . S
C420 C401 1.368 . S
C420 C414 1.368 . S
C420 C419 1.523 . S
C421 C405 1.429 . S
C421 C417 1.429 . S
C421 C422 1.523 . S
C422 C406 1.368 . S
C422 C418 1.368 . S
C422 C421 1.523 . S
H423 C398 0.950 . S
H424 C400 0.950 . S
H425 C401 0.949 . S
H426 C403 0.950 . S
H427 C405 0.950 . S
C428 C429 1.349 . S
C428 C430 1.327 . S
C428 H453 0.950 . S
C429 C428 1.349 . S
C429 C445 1.349 . S
C430 C428 1.327 . S
C430 C449 1.429 . S
C430 H454 0.950 . S
C431 C448 1.574 . S
C431 C450 1.368 . S
C431 H455 0.949 . S
H432 C436 0.949 . S
C433 C434 1.349 . S
C433 C435 1.327 . S
C433 H456 0.939 1_554 S
C434 C433 1.349 . S
C434 C446 1.349 . S
C435 C433 1.327 . S
C435 C451 1.429 . S
C435 H457 0.950 . S
C436 H432 0.949 . S
C436 C444 1.574 . S
C436 C452 1.368 . S
H437 C445 0.950 . S
H438 C443 0.950 . S
H439 C444 0.949 . S
H440 C446 0.950 . S
H441 C447 0.950 . S
H442 C448 0.949 . S
C443 H438 0.950 . S
C443 C445 1.327 . S
C443 C449 1.429 . S
C444 C436 1.574 . S
C444 H439 0.949 . S
C444 C450 1.368 . S
C445 C429 1.349 . S
C445 H437 0.950 . S
C445 C443 1.327 . S
C446 C434 1.349 . S
C446 H440 0.950 . S
C446 C447 1.327 . S
C447 H441 0.950 . S
C447 C446 1.327 . S
C447 C451 1.429 . S
C448 C431 1.574 . S
C448 H442 0.949 . S
C448 C452 1.368 . S
C449 C430 1.429 . S
C449 C443 1.429 . S
C449 C450 1.523 . S
C450 C431 1.368 . S
C450 C444 1.368 . S
C450 C449 1.523 . S
C451 C435 1.429 . S
C451 C447 1.429 . S
C451 C452 1.523 . S
C452 C436 1.368 . S
C452 C448 1.368 . S
C452 C451 1.523 . S
H453 C428 0.950 . S
H454 C430 0.950 . S
H455 C431 0.949 . S
H456 C433 0.939 1_556 S
H457 C435 0.950 . S
C458 C459 1.349 . S
C458 C460 1.327 . S
C458 H483 0.950 . S
C459 C458 1.349 . S
C459 C475 1.349 . S
C460 C458 1.327 . S
C460 C479 1.429 . S
C460 H484 0.950 . S
C461 C478 1.574 . S
C461 C480 1.368 . S
C461 H485 0.949 . S
H462 C466 0.949 . S
C463 C464 1.349 . S
C463 C465 1.327 . S
C463 H486 0.950 . S
C464 C463 1.349 . S
C464 C476 1.349 . S
C465 C463 1.327 . S
C465 C481 1.429 . S
C465 H487 0.950 . S
C466 H462 0.949 . S
C466 C474 1.574 . S
C466 C482 1.368 . S
H467 C475 0.950 . S
H468 C473 0.950 . S
H469 C474 0.949 . S
H470 C476 0.950 . S
H471 C477 0.950 . S
H472 C478 0.949 . S
C473 H468 0.950 . S
C473 C475 1.327 . S
C473 C479 1.429 . S
C474 C466 1.574 . S
C474 H469 0.949 . S
C474 C480 1.368 . S
C475 C459 1.349 . S
C475 H467 0.950 . S
C475 C473 1.327 . S
C476 C464 1.349 . S
C476 H470 0.950 . S
C476 C477 1.327 . S
C477 H471 0.950 . S
C477 C476 1.327 . S
C477 C481 1.429 . S
C478 C461 1.574 . S
C478 H472 0.949 . S
C478 C482 1.368 . S
C479 C460 1.429 . S
C479 C473 1.429 . S
C479 C480 1.523 . S
C480 C461 1.368 . S
C480 C474 1.368 . S
C480 C479 1.523 . S
C481 C465 1.429 . S
C481 C477 1.429 . S
C481 C482 1.523 . S
C482 C466 1.368 . S
C482 C478 1.368 . S
C482 C481 1.523 . S
H483 C458 0.950 . S
H484 C460 0.950 . S
H485 C461 0.949 . S
H486 C463 0.950 . S
H487 C465 0.950 . S
C488 C489 1.349 . S
C488 C490 1.327 . S
C488 H513 0.950 . S
C489 C488 1.349 . S
C489 C505 1.349 . S
C490 C488 1.327 . S
C490 C509 1.429 . S
C490 H514 0.950 . S
C491 C508 1.574 . S
C491 C510 1.368 . S
C491 H515 0.949 . S
H492 C496 0.949 . S
C493 C494 1.349 . S
C493 C495 1.327 . S
C493 H516 0.950 . S
C494 C493 1.349 . S
C494 C506 1.349 1_455 S
C495 C493 1.327 . S
C495 C511 1.429 1_455 S
C495 H517 0.950 . S
C496 H492 0.949 . S
C496 C504 1.574 . S
C496 C512 1.368 . S
H497 C505 0.950 . S
H498 C503 0.950 . S
H499 C504 0.949 . S
H500 C506 0.950 . S
H501 C507 0.950 . S
H502 C508 0.949 . S
C503 H498 0.950 . S
C503 C505 1.327 . S
C503 C509 1.429 . S
C504 C496 1.574 . S
C504 H499 0.949 . S
C504 C510 1.368 . S
C505 C489 1.349 . S
C505 H497 0.950 . S
C505 C503 1.327 . S
C506 C494 1.349 1_655 S
C506 H500 0.950 . S
C506 C507 1.327 . S
C507 H501 0.950 . S
C507 C506 1.327 . S
C507 C511 1.429 . S
C508 C491 1.574 . S
C508 H502 0.949 . S
C508 C512 1.368 . S
C509 C490 1.429 . S
C509 C503 1.429 . S
C509 C510 1.523 . S
C510 C491 1.368 . S
C510 C504 1.368 . S
C510 C509 1.523 . S
C511 C495 1.429 1_655 S
C511 C507 1.429 . S
C511 C512 1.523 . S
C512 C496 1.368 . S
C512 C508 1.368 . S
C512 C511 1.523 . S
H513 C488 0.950 . S
H514 C490 0.950 . S
H515 C491 0.949 . S
H516 C493 0.950 . S
H517 C495 0.950 . S
C518 C519 1.349 . S
C518 C520 1.327 . S
C518 H543 0.950 . S
C519 C518 1.349 . S
C519 C535 1.349 . S
C520 C518 1.327 . S
C520 C539 1.429 . S
C520 H544 0.950 . S
C521 C538 1.574 . S
C521 C540 1.368 . S
C521 H545 0.949 . S
H522 C526 0.949 . S
C523 C524 1.349 . S
C523 C525 1.327 . S
C523 H546 0.950 . S
C524 C523 1.349 . S
C524 C536 1.349 . S
C525 C523 1.327 . S
C525 C541 1.429 . S
C525 H547 0.950 . S
C526 H522 0.949 . S
C526 C534 1.574 . S
C526 C542 1.368 . S
H527 C535 0.950 . S
H528 C533 0.950 . S
H529 C534 0.949 . S
H530 C536 0.950 . S
H531 C537 0.950 . S
H532 C538 0.949 . S
C533 H528 0.950 . S
C533 C535 1.327 . S
C533 C539 1.429 . S
C534 C526 1.574 . S
C534 H529 0.949 . S
C534 C540 1.368 . S
C535 C519 1.349 . S
C535 H527 0.950 . S
C535 C533 1.327 . S
C536 C524 1.349 . S
C536 H530 0.950 . S
C536 C537 1.327 . S
C537 H531 0.950 . S
C537 C536 1.327 . S
C537 C541 1.429 . S
C538 C521 1.574 . S
C538 H532 0.949 . S
C538 C542 1.368 . S
C539 C520 1.429 . S
C539 C533 1.429 . S
C539 C540 1.523 . S
C540 C521 1.368 . S
C540 C534 1.368 . S
C540 C539 1.523 . S
C541 C525 1.429 . S
C541 C537 1.429 . S
C541 C542 1.523 . S
C542 C526 1.368 . S
C542 C538 1.368 . S
C542 C541 1.523 . S
H543 C518 0.950 . S
H544 C520 0.950 . S
H545 C521 0.949 . S
H546 C523 0.950 . S
H547 C525 0.950 . S
C548 C549 1.349 . S
C548 C550 1.327 . S
C548 H573 0.950 . S
C549 C548 1.349 . S
C549 C565 1.349 . S
C550 C548 1.327 . S
C550 C569 1.429 . S
C550 H574 0.950 . S
C551 C568 1.574 . S
C551 C570 1.368 . S
C551 H575 0.949 . S
H552 C556 0.949 . S
C553 C554 1.374 . S
C553 C555 1.332 1_455 S
C553 H576 0.920 1_565 S
C554 C553 1.374 . S
C554 C566 1.349 . S
C555 C553 1.332 1_655 S
C555 C571 1.429 . S
C555 H577 0.950 1_565 S
C556 H552 0.949 . S
C556 C564 1.574 . S
C556 C572 1.368 . S
H557 C565 0.950 . S
H558 C563 0.950 . S
H559 C564 0.949 . S
H560 C566 0.950 . S
H561 C567 0.950 . S
H562 C568 0.949 1_545 S
C563 H558 0.950 . S
C563 C565 1.327 . S
C563 C569 1.429 . S
C564 C556 1.574 . S
C564 H559 0.949 . S
C564 C570 1.368 . S
C565 C549 1.349 . S
C565 H557 0.950 . S
C565 C563 1.327 . S
C566 C554 1.349 . S
C566 H560 0.950 . S
C566 C567 1.327 1_455 S
C567 H561 0.950 . S
C567 C566 1.327 1_655 S
C567 C571 1.429 . S
C568 C551 1.574 . S
C568 H562 0.949 1_565 S
C568 C572 1.368 . S
C569 C550 1.429 . S
C569 C563 1.429 . S
C569 C570 1.523 . S
C570 C551 1.368 . S
C570 C564 1.368 . S
C570 C569 1.523 . S
C571 C555 1.429 . S
C571 C567 1.429 . S
C571 C572 1.523 . S
C572 C556 1.368 . S
C572 C568 1.368 . S
C572 C571 1.523 . S
H573 C548 0.950 . S
H574 C550 0.950 . S
H575 C551 0.949 . S
H576 C553 0.920 1_545 S
H577 C555 0.950 1_545 S
C578 C579 1.349 . S
C578 C580 1.327 . S
C578 H603 0.950 . S
C579 C578 1.349 . S
C579 C595 1.349 . S
C580 C578 1.327 . S
C580 C599 1.429 . S
C580 H604 0.950 . S
C581 C598 1.574 . S
C581 C600 1.368 . S
C581 H605 0.949 . S
H582 C586 0.949 . S
C583 C584 1.349 . S
C583 C585 1.327 . S
C583 H606 0.950 . S
C584 C583 1.349 . S
C584 C596 1.349 . S
C585 C583 1.327 . S
C585 C601 1.429 . S
C585 H607 0.950 . S
C586 H582 0.949 . S
C586 C594 1.574 . S
C586 C602 1.368 . S
H587 C595 0.950 . S
H588 C593 0.950 . S
H589 C594 0.949 . S
H590 C596 0.950 . S
H591 C597 0.950 . S
H592 C598 0.949 . S
C593 H588 0.950 . S
C593 C595 1.327 . S
C593 C599 1.429 . S
C594 C586 1.574 . S
C594 H589 0.949 . S
C594 C600 1.368 . S
C595 C579 1.349 . S
C595 H587 0.950 . S
C595 C593 1.327 . S
C596 C584 1.349 . S
C596 H590 0.950 . S
C596 C597 1.327 . S
C597 H591 0.950 . S
C597 C596 1.327 . S
C597 C601 1.429 . S
C598 C581 1.574 . S
C598 H592 0.949 . S
C598 C602 1.368 . S
C599 C580 1.429 . S
C599 C593 1.429 . S
C599 C600 1.523 . S
C600 C581 1.368 . S
C600 C594 1.368 . S
C600 C599 1.523 . S
C601 C585 1.429 . S
C601 C597 1.429 . S
C601 C602 1.523 . S
C602 C586 1.368 . S
C602 C598 1.368 . S
C602 C601 1.523 . S
H603 C578 0.950 . S
H604 C580 0.950 . S
H605 C581 0.949 . S
H606 C583 0.950 . S
H607 C585 0.950 . S
C608 C609 1.349 . S
C608 C610 1.327 . S
C608 H633 0.950 . S
C609 C608 1.349 . S
C609 C625 1.349 . S
C610 C608 1.327 . S
C610 C629 1.429 . S
C610 H634 0.950 . S
C611 C628 1.574 . S
C611 C630 1.368 . S
C611 H635 0.949 . S
H612 C616 0.949 . S
C613 C614 1.349 . S
C613 C615 1.327 . S
C613 H636 0.950 . S
C614 C613 1.349 . S
C614 C626 1.349 . S
C615 C613 1.327 . S
C615 C631 1.429 . S
C615 H637 0.950 . S
C616 H612 0.949 . S
C616 C624 1.574 . S
C616 C632 1.368 . S
H617 C625 0.950 . S
H618 C623 0.950 . S
H619 C624 0.949 . S
H620 C626 0.950 . S
H621 C627 0.950 . S
H622 C628 0.949 . S
C623 H618 0.950 . S
C623 C625 1.327 . S
C623 C629 1.429 . S
C624 C616 1.574 . S
C624 H619 0.949 . S
C624 C630 1.368 . S
C625 C609 1.349 . S
C625 H617 0.950 . S
C625 C623 1.327 . S
C626 C614 1.349 . S
C626 H620 0.950 . S
C626 C627 1.327 . S
C627 H621 0.950 . S
C627 C626 1.327 . S
C627 C631 1.429 . S
C628 C611 1.574 . S
C628 H622 0.949 . S
C628 C632 1.368 . S
C629 C610 1.429 . S
C629 C623 1.429 . S
C629 C630 1.523 . S
C630 C611 1.368 . S
C630 C624 1.368 . S
C630 C629 1.523 . S
C631 C615 1.429 . S
C631 C627 1.429 . S
C631 C632 1.523 . S
C632 C616 1.368 . S
C632 C628 1.368 . S
C632 C631 1.523 . S
H633 C608 0.950 . S
H634 C610 0.950 . S
H635 C611 0.949 . S
H636 C613 0.950 . S
H637 C615 0.950 . S
C638 C639 1.349 . S
C638 C640 1.327 . S
C638 H663 0.950 . S
C639 C638 1.349 . S
C639 C655 1.349 . S
C640 C638 1.327 . S
C640 C659 1.429 . S
C640 H664 0.950 . S
C641 C658 1.574 . S
C641 C660 1.368 . S
C641 H665 0.949 . S
H642 C646 0.949 . S
C643 C644 1.349 . S
C643 C645 1.327 . S
C643 H666 0.950 . S
C644 C643 1.349 . S
C644 C656 1.349 . S
C645 C643 1.327 . S
C645 C661 1.429 . S
C645 H667 0.950 . S
C646 H642 0.949 . S
C646 C654 1.574 . S
C646 C662 1.368 . S
H647 C655 0.950 . S
H648 C653 0.950 . S
H649 C654 0.949 . S
H650 C656 0.950 . S
H651 C657 0.950 . S
H652 C658 0.949 . S
C653 H648 0.950 . S
C653 C655 1.327 . S
C653 C659 1.429 . S
C654 C646 1.574 . S
C654 H649 0.949 . S
C654 C660 1.368 . S
C655 C639 1.349 . S
C655 H647 0.950 . S
C655 C653 1.327 . S
C656 C644 1.349 . S
C656 H650 0.950 . S
C656 C657 1.327 . S
C657 H651 0.950 . S
C657 C656 1.327 . S
C657 C661 1.429 . S
C658 C641 1.574 . S
C658 H652 0.949 . S
C658 C662 1.368 . S
C659 C640 1.429 . S
C659 C653 1.429 . S
C659 C660 1.523 . S
C660 C641 1.368 . S
C660 C654 1.368 . S
C660 C659 1.523 . S
C661 C645 1.429 . S
C661 C657 1.429 . S
C661 C662 1.523 . S
C662 C646 1.368 . S
C662 C658 1.368 . S
C662 C661 1.523 . S
H663 C638 0.950 . S
H664 C640 0.950 . S
H665 C641 0.949 . S
H666 C643 0.950 . S
H667 C645 0.950 . S
C668 C669 1.349 . S
C668 C670 1.327 . S
C668 H693 0.950 . S
C669 C668 1.349 . S
C669 C685 1.349 . S
C670 C668 1.327 . S
C670 C689 1.429 . S
C670 H694 0.950 . S
C671 C688 1.574 . S
C671 C690 1.368 . S
C671 H695 0.949 . S
H672 C676 0.949 1_554 S
C673 C674 1.349 1_556 S
C673 C675 1.327 1_545 S
C673 H696 0.950 . S
C674 C673 1.349 1_554 S
C674 C686 1.349 1_545 S
C675 C673 1.327 1_565 S
C675 C691 1.429 . S
C675 H697 0.950 1_565 S
C676 H672 0.949 1_556 S
C676 C684 1.574 . S
C676 C692 1.368 . S
H677 C685 0.950 . S
H678 C683 0.950 . S
H679 C684 0.949 . S
H680 C686 0.950 . S
H681 C687 0.950 . S
H682 C688 0.949 . S
C683 H678 0.950 . S
C683 C685 1.327 . S
C683 C689 1.429 . S
C684 C676 1.574 . S
C684 H679 0.949 . S
C684 C690 1.368 . S
C685 C669 1.349 . S
C685 H677 0.950 . S
C685 C683 1.327 . S
C686 C674 1.349 1_565 S
C686 H680 0.950 . S
C686 C687 1.327 . S
C687 H681 0.950 . S
C687 C686 1.327 . S
C687 C691 1.429 1_554 S
C688 C671 1.574 . S
C688 H682 0.949 . S
C688 C692 1.368 . S
C689 C670 1.429 . S
C689 C683 1.429 . S
C689 C690 1.523 . S
C690 C671 1.368 . S
C690 C684 1.368 . S
C690 C689 1.523 . S
C691 C675 1.429 . S
C691 C687 1.429 1_556 S
C691 C692 1.523 . S
C692 C676 1.368 . S
C692 C688 1.368 . S
C692 C691 1.523 . S
H693 C668 0.950 . S
H694 C670 0.950 . S
H695 C671 0.949 . S
H696 C673 0.950 . S
H697 C675 0.950 1_545 S
C698 C699 1.349 . S
C698 C700 1.327 . S
C698 H723 0.950 . S
C699 C698 1.349 . S
C699 C715 1.349 . S
C700 C698 1.327 . S
C700 C719 1.429 . S
C700 H724 0.950 . S
C701 C718 1.574 . S
C701 C720 1.368 . S
C701 H725 0.949 . S
H702 C706 0.949 . S
C703 C704 1.349 . S
C703 C705 1.327 . S
C703 H726 0.950 . S
C704 C703 1.349 . S
C704 C716 1.349 . S
C705 C703 1.327 . S
C705 C721 1.429 . S
C705 H727 0.950 . S
C706 H702 0.949 . S
C706 C714 1.574 . S
C706 C722 1.368 . S
H707 C715 0.950 . S
H708 C713 0.950 . S
H709 C714 0.949 . S
H710 C716 0.950 . S
H711 C717 0.950 . S
H712 C718 0.949 . S
C713 H708 0.950 . S
C713 C715 1.327 . S
C713 C719 1.429 . S
C714 C706 1.574 . S
C714 H709 0.949 . S
C714 C720 1.368 . S
C715 C699 1.349 . S
C715 H707 0.950 . S
C715 C713 1.327 . S
C716 C704 1.349 . S
C716 H710 0.950 . S
C716 C717 1.327 . S
C717 H711 0.950 . S
C717 C716 1.327 . S
C717 C721 1.429 . S
C718 C701 1.574 . S
C718 H712 0.949 . S
C718 C722 1.368 . S
C719 C700 1.429 . S
C719 C713 1.429 . S
C719 C720 1.523 . S
C720 C701 1.368 . S
C720 C714 1.368 . S
C720 C719 1.523 . S
C721 C705 1.429 . S
C721 C717 1.429 . S
C721 C722 1.523 . S
C722 C706 1.368 . S
C722 C718 1.368 . S
C722 C721 1.523 . S
H723 C698 0.950 . S
H724 C700 0.950 . S
H725 C701 0.949 . S
H726 C703 0.950 . S
H727 C705 0.950 . S
C728 C729 1.349 . S
C728 C730 1.327 . S
C728 H753 0.950 . S
C729 C728 1.349 . S
C729 C745 1.349 . S
C730 C728 1.327 . S
C730 C749 1.429 . S
C730 H754 0.950 . S
C731 C748 1.574 . S
C731 C750 1.368 . S
C731 H755 0.949 . S
H732 C736 0.949 . S
C733 C734 1.349 . S
C733 C735 1.327 . S
C733 H756 0.950 . S
C734 C733 1.349 . S
C734 C746 1.349 . S
C735 C733 1.327 . S
C735 C751 1.429 . S
C735 H757 0.950 . S
C736 H732 0.949 . S
C736 C744 1.574 . S
C736 C752 1.368 . S
H737 C745 0.950 . S
H738 C743 0.950 . S
H739 C744 0.949 . S
H740 C746 0.950 . S
H741 C747 0.950 . S
H742 C748 0.949 . S
C743 H738 0.950 . S
C743 C745 1.327 . S
C743 C749 1.429 . S
C744 C736 1.574 . S
C744 H739 0.949 . S
C744 C750 1.368 . S
C745 C729 1.349 . S
C745 H737 0.950 . S
C745 C743 1.327 . S
C746 C734 1.349 . S
C746 H740 0.950 . S
C746 C747 1.327 . S
C747 H741 0.950 . S
C747 C746 1.327 . S
C747 C751 1.429 . S
C748 C731 1.574 . S
C748 H742 0.949 . S
C748 C752 1.368 . S
C749 C730 1.429 . S
C749 C743 1.429 . S
C749 C750 1.523 . S
C750 C731 1.368 . S
C750 C744 1.368 . S
C750 C749 1.523 . S
C751 C735 1.429 . S
C751 C747 1.429 . S
C751 C752 1.523 . S
C752 C736 1.368 . S
C752 C748 1.368 . S
C752 C751 1.523 . S
H753 C728 0.950 . S
H754 C730 0.950 . S
H755 C731 0.949 . S
H756 C733 0.950 . S
H757 C735 0.950 . S
C758 C759 1.349 . S
C758 C760 1.327 . S
C758 H783 0.950 . S
C759 C758 1.349 . S
C759 C775 1.349 . S
C760 C758 1.327 . S
C760 C779 1.429 . S
C760 H784 0.950 . S
C761 C778 1.574 . S
C761 C780 1.368 . S
C761 H785 0.949 . S
H762 C766 0.949 . S
C763 C764 1.349 . S
C763 C765 1.327 . S
C763 H786 0.950 . S
C764 C763 1.349 . S
C764 C776 1.349 . S
C765 C763 1.327 . S
C765 C781 1.429 . S
C765 H787 0.950 . S
C766 H762 0.949 . S
C766 C774 1.574 . S
C766 C782 1.368 . S
H767 C775 0.950 . S
H768 C773 0.950 . S
H769 C774 0.949 . S
H770 C776 0.950 . S
H771 C777 0.950 . S
H772 C778 0.949 . S
C773 H768 0.950 . S
C773 C775 1.327 . S
C773 C779 1.429 . S
C774 C766 1.574 . S
C774 H769 0.949 . S
C774 C780 1.368 . S
C775 C759 1.349 . S
C775 H767 0.950 . S
C775 C773 1.327 . S
C776 C764 1.349 . S
C776 H770 0.950 . S
C776 C777 1.327 . S
C777 H771 0.950 . S
C777 C776 1.327 . S
C777 C781 1.429 . S
C778 C761 1.574 . S
C778 H772 0.949 . S
C778 C782 1.368 . S
C779 C760 1.429 . S
C779 C773 1.429 . S
C779 C780 1.523 . S
C780 C761 1.368 . S
C780 C774 1.368 . S
C780 C779 1.523 . S
C781 C765 1.429 . S
C781 C777 1.429 . S
C781 C782 1.523 . S
C782 C766 1.368 . S
C782 C778 1.368 . S
C782 C781 1.523 . S
H783 C758 0.950 . S
H784 C760 0.950 . S
H785 C761 0.949 . S
H786 C763 0.950 . S
H787 C765 0.950 . S
C788 C789 1.349 . S
C788 C790 1.327 . S
C788 H813 0.950 . S
C789 C788 1.349 . S
C789 C805 1.349 . S
C790 C788 1.327 . S
C790 C809 1.429 . S
C790 H814 0.950 . S
C791 C808 1.574 . S
C791 C810 1.368 . S
C791 H815 0.949 . S
H792 C796 0.949 . S
C793 C794 1.349 . S
C793 C795 1.327 . S
C793 H816 0.950 . S
C794 C793 1.349 . S
C794 C806 1.349 . S
C795 C793 1.327 . S
C795 C811 1.429 . S
C795 H817 0.950 . S
C796 H792 0.949 . S
C796 C804 1.574 . S
C796 C812 1.368 . S
H797 C805 0.950 . S
H798 C803 0.950 . S
H799 C804 0.949 . S
H800 C806 0.950 1_554 S
H801 C807 0.950 . S
H802 C808 0.949 . S
C803 H798 0.950 . S
C803 C805 1.327 . S
C803 C809 1.429 . S
C804 C796 1.574 . S
C804 H799 0.949 . S
C804 C810 1.368 . S
C805 C789 1.349 . S
C805 H797 0.950 . S
C805 C803 1.327 . S
C806 C794 1.349 . S
C806 H800 0.950 1_556 S
C806 C807 1.327 . S
C807 H801 0.950 . S
C807 C806 1.327 . S
C807 C811 1.429 . S
C808 C791 1.574 . S
C808 H802 0.949 . S
C808 C812 1.368 . S
C809 C790 1.429 . S
C809 C803 1.429 . S
C809 C810 1.523 . S
C810 C791 1.368 . S
C810 C804 1.368 . S
C810 C809 1.523 . S
C811 C795 1.429 . S
C811 C807 1.429 . S
C811 C812 1.523 . S
C812 C796 1.368 . S
C812 C808 1.368 . S
C812 C811 1.523 . S
H813 C788 0.950 . S
H814 C790 0.950 . S
H815 C791 0.949 . S
H816 C793 0.950 . S
H817 C795 0.950 . S
C818 C819 1.349 . S
C818 C820 1.327 . S
C818 H843 0.950 . S
C819 C818 1.349 . S
C819 C835 1.349 . S
C820 C818 1.327 . S
C820 C839 1.429 . S
C820 H844 0.950 . S
C821 C838 1.574 . S
C821 C840 1.368 . S
C821 H845 0.949 . S
H822 C826 0.949 . S
C823 C824 1.349 . S
C823 C825 1.327 . S
C823 H846 0.950 . S
C824 C823 1.349 . S
C824 C836 1.349 . S
C825 C823 1.327 . S
C825 C841 1.429 . S
C825 H847 0.950 . S
C826 H822 0.949 . S
C826 C834 1.574 . S
C826 C842 1.368 . S
H827 C835 0.950 . S
H828 C833 0.950 . S
H829 C834 0.949 . S
H830 C836 0.950 . S
H831 C837 0.950 . S
H832 C838 0.949 . S
C833 H828 0.950 . S
C833 C835 1.327 . S
C833 C839 1.429 . S
C834 C826 1.574 . S
C834 H829 0.949 . S
C834 C840 1.368 . S
C835 C819 1.349 . S
C835 H827 0.950 . S
C835 C833 1.327 . S
C836 C824 1.349 . S
C836 H830 0.950 . S
C836 C837 1.327 . S
C837 H831 0.950 . S
C837 C836 1.327 . S
C837 C841 1.429 . S
C838 C821 1.574 . S
C838 H832 0.949 . S
C838 C842 1.368 . S
C839 C820 1.429 . S
C839 C833 1.429 . S
C839 C840 1.523 . S
C840 C821 1.368 . S
C840 C834 1.368 . S
C840 C839 1.523 . S
C841 C825 1.429 . S
C841 C837 1.429 . S
C841 C842 1.523 . S
C842 C826 1.368 . S
C842 C838 1.368 . S
C842 C841 1.523 . S
H843 C818 0.950 . S
H844 C820 0.950 . S
H845 C821 0.949 . S
H846 C823 0.950 . S
H847 C825 0.950 . S
C848 C849 1.349 . S
C848 C850 1.327 . S
C848 H873 0.950 . S
C849 C848 1.349 . S
C849 C865 1.349 . S
C850 C848 1.327 . S
C850 C869 1.429 . S
C850 H874 0.950 . S
C851 C868 1.574 . S
C851 C870 1.368 . S
C851 H875 0.949 . S
H852 C856 0.949 . S
C853 C854 1.349 . S
C853 C855 1.327 . S
C853 H876 0.950 . S
C854 C853 1.349 . S
C854 C866 1.349 . S
C855 C853 1.327 . S
C855 C871 1.429 . S
C855 H877 0.950 . S
C856 H852 0.949 . S
C856 C864 1.574 . S
C856 C872 1.368 . S
H857 C865 0.950 . S
H858 C863 0.950 . S
H859 C864 0.949 . S
H860 C866 0.950 . S
H861 C867 0.950 . S
H862 C868 0.949 . S
C863 H858 0.950 . S
C863 C865 1.327 . S
C863 C869 1.429 . S
C864 C856 1.574 . S
C864 H859 0.949 . S
C864 C870 1.368 . S
C865 C849 1.349 . S
C865 H857 0.950 . S
C865 C863 1.327 . S
C866 C854 1.349 . S
C866 H860 0.950 . S
C866 C867 1.327 . S
C867 H861 0.950 . S
C867 C866 1.327 . S
C867 C871 1.429 . S
C868 C851 1.574 . S
C868 H862 0.949 . S
C868 C872 1.368 . S
C869 C850 1.429 . S
C869 C863 1.429 . S
C869 C870 1.523 . S
C870 C851 1.368 . S
C870 C864 1.368 . S
C870 C869 1.523 . S
C871 C855 1.429 . S
C871 C867 1.429 . S
C871 C872 1.523 . S
C872 C856 1.368 . S
C872 C868 1.368 . S
C872 C871 1.523 . S
H873 C848 0.950 . S
H874 C850 0.950 . S
H875 C851 0.949 . S
H876 C853 0.950 . S
H877 C855 0.950 . S
C878 C879 1.349 . S
C878 C880 1.327 . S
C878 H903 0.950 . S
C879 C878 1.349 . S
C879 C895 1.349 . S
C880 C878 1.327 . S
C880 C899 1.429 . S
C880 H904 0.950 . S
C881 C898 1.574 . S
C881 C900 1.368 . S
C881 H905 0.949 . S
H882 C886 0.949 . S
C883 C884 1.349 . S
C883 C885 1.327 . S
C883 H906 0.950 . S
C884 C883 1.349 . S
C884 C896 1.349 . S
C885 C883 1.327 . S
C885 C901 1.429 . S
C885 H907 0.950 . S
C886 H882 0.949 . S
C886 C894 1.574 . S
C886 C902 1.368 . S
H887 C895 0.950 . S
H888 C893 0.950 . S
H889 C894 0.949 . S
H890 C896 0.950 . S
H891 C897 0.950 . S
H892 C898 0.949 . S
C893 H888 0.950 . S
C893 C895 1.327 . S
C893 C899 1.429 . S
C894 C886 1.574 . S
C894 H889 0.949 . S
C894 C900 1.368 . S
C895 C879 1.349 . S
C895 H887 0.950 . S
C895 C893 1.327 . S
C896 C884 1.349 . S
C896 H890 0.950 . S
C896 C897 1.327 . S
C897 H891 0.950 . S
C897 C896 1.327 . S
C897 C901 1.429 . S
C898 C881 1.574 . S
C898 H892 0.949 . S
C898 C902 1.368 . S
C899 C880 1.429 . S
C899 C893 1.429 . S
C899 C900 1.523 . S
C900 C881 1.368 . S
C900 C894 1.368 . S
C900 C899 1.523 . S
C901 C885 1.429 . S
C901 C897 1.429 . S
C901 C902 1.523 . S
C902 C886 1.368 . S
C902 C898 1.368 . S
C902 C901 1.523 . S
H903 C878 0.950 . S
H904 C880 0.950 . S
H905 C881 0.949 . S
H906 C883 0.950 . S
H907 C885 0.950 . S
C189 N1 1.545 . S
C194 C122 1.544 . S
C219 N18 1.860 . S
C224 C139 1.820 . S
C254 C162 0.819 . S
C249 N28 0.890 . S
C279 N40 1.909 . S
C284 C183 1.622 . S
C314 C142 2.168 . S
C309 N5 2.225 . S
C344 C119 1.679 . S
C339 N14 1.716 . S
C374 C181 1.232 . S
C369 N31 1.272 . S
C404 C160 0.987 . S
C399 N41 1.012 . S
C429 N2 1.617 . S
C434 C184 1.578 . S
C464 C141 1.411 1_556 S
C459 N27 1.654 . S
C489 N44 1.774 . S
C494 C117 1.562 . S
C519 N15 1.315 . S
C524 C163 1.276 . S
C554 C121 1.943 . S
C549 N57 2.003 . S
C579 N70 1.106 . S
C584 C140 1.097 . S
C609 N79 1.347 . S
C614 C159 1.199 . S
C639 N93 1.442 . S
C644 C180 1.231 . S
C669 N54 1.649 . S
C674 C143 1.602 . S
C704 C118 2.261 . S
C699 N66 2.293 . S
C734 C182 0.639 . S
C729 N80 0.610 . S
C764 C161 1.453 . S
C759 N96 1.507 . S
C789 N53 1.526 . S
C794 C185 1.507 . S
C824 C138 1.155 . S
C819 N83 1.359 . S
C854 C120 1.405 . S
C849 N92 1.567 . S
C879 N67 1.358 . S
C884 C164 1.332 . S
