# Generated by pormake.
# Topology zzz, (3,6)-cn, num edge types: 1
# Building blocks:
#     Node 0, Type 0, BuildingBlock: QEWDON_clean_linker_0, # of connection points: 3
#     Node 1, Type 0, BuildingBlock: QEWDON_clean_linker_0, # of connection points: 3
#     Node 2, Type 0, BuildingBlock: QEWDON_clean_linker_0, # of connection points: 3
#     Node 3, Type 0, BuildingBlock: QEWDON_clean_linker_0, # of connection points: 3
#     Node 4, Type 0, BuildingBlock: QEWDON_clean_linker_0, # of connection points: 3
#     Node 5, Type 0, BuildingBlock: QEWDON_clean_linker_0, # of connection points: 3
#     Node 6, Type 0, BuildingBlock: QEWDON_clean_linker_0, # of connection points: 3
#     Node 7, Type 0, BuildingBlock: QEWDON_clean_linker_0, # of connection points: 3
#     Node 8, Type 1, BuildingBlock: BETDIP_clean_sbu_0, # of connection points: 6
#     Node 9, Type 1, BuildingBlock: BETDIP_clean_sbu_0, # of connection points: 6
#     Node 10, Type 1, BuildingBlock: BETDIP_clean_sbu_0, # of connection points: 6
#     Node 11, Type 1, BuildingBlock: BETDIP_clean_sbu_0, # of connection points: 6
#     Edge 12, Type (0, 1), BuildingBlock: OJICUG_clean_linker_0, # of connection points: 2
#     Edge 13, Type (0, 1), BuildingBlock: OJICUG_clean_linker_0, # of connection points: 2
#     Edge 14, Type (0, 1), BuildingBlock: OJICUG_clean_linker_0, # of connection points: 2
#     Edge 15, Type (0, 1), BuildingBlock: OJICUG_clean_linker_0, # of connection points: 2
#     Edge 16, Type (0, 1), BuildingBlock: OJICUG_clean_linker_0, # of connection points: 2
#     Edge 17, Type (0, 1), BuildingBlock: OJICUG_clean_linker_0, # of connection points: 2
#     Edge 18, Type (0, 1), BuildingBlock: OJICUG_clean_linker_0, # of connection points: 2
#     Edge 19, Type (0, 1), BuildingBlock: OJICUG_clean_linker_0, # of connection points: 2
#     Edge 20, Type (0, 1), BuildingBlock: OJICUG_clean_linker_0, # of connection points: 2
#     Edge 21, Type (0, 1), BuildingBlock: OJICUG_clean_linker_0, # of connection points: 2
#     Edge 22, Type (0, 1), BuildingBlock: OJICUG_clean_linker_0, # of connection points: 2
#     Edge 23, Type (0, 1), BuildingBlock: OJICUG_clean_linker_0, # of connection points: 2
#     Edge 24, Type (0, 1), BuildingBlock: OJICUG_clean_linker_0, # of connection points: 2
#     Edge 25, Type (0, 1), BuildingBlock: OJICUG_clean_linker_0, # of connection points: 2
#     Edge 26, Type (0, 1), BuildingBlock: OJICUG_clean_linker_0, # of connection points: 2
#     Edge 27, Type (0, 1), BuildingBlock: OJICUG_clean_linker_0, # of connection points: 2
#     Edge 28, Type (0, 1), BuildingBlock: OJICUG_clean_linker_0, # of connection points: 2
#     Edge 29, Type (0, 1), BuildingBlock: OJICUG_clean_linker_0, # of connection points: 2
#     Edge 30, Type (0, 1), BuildingBlock: OJICUG_clean_linker_0, # of connection points: 2
#     Edge 31, Type (0, 1), BuildingBlock: OJICUG_clean_linker_0, # of connection points: 2
#     Edge 32, Type (0, 1), BuildingBlock: OJICUG_clean_linker_0, # of connection points: 2
#     Edge 33, Type (0, 1), BuildingBlock: OJICUG_clean_linker_0, # of connection points: 2
#     Edge 34, Type (0, 1), BuildingBlock: OJICUG_clean_linker_0, # of connection points: 2
#     Edge 35, Type (0, 1), BuildingBlock: OJICUG_clean_linker_0, # of connection points: 2
# Relax obj value: 0.237
# Max RMSD: 0.169
# Mean RMSD: 0.109
data_MOF--net-zzz--node1-BETDIP_clean_sbu_0--node2-QEWDON_clean_linker_0--edge1-OJICUG_clean_linker_0
_symmetry_space_group_name_H-M    P1
_symmetry_Int_Tables_number       1
_symmetry_cell_setting            triclinic
loop_
_symmetry_equiv_pos_as_xyz
'x, y, z'
_cell_length_a     41.1944
_cell_length_b     41.200996
_cell_length_c     9.8954803
_cell_angle_alpha  89.615993
_cell_angle_beta   89.924512
_cell_angle_gamma 90.356659
loop_
_atom_site_label
_atom_site_type_symbol
_atom_site_fract_x
_atom_site_fract_y
_atom_site_fract_z
_atom_type_partial_charge
H0 H 0.75629 0.47479 0.27341 0.0
C1 C 0.77588 0.48506 0.33251 0.0
C2 C 0.80625 0.47032 0.32637 0.0
C3 C 0.77062 0.51206 0.41629 0.0
H4 H 0.85598 0.47141 0.3922 0.0
C5 C 0.83226 0.48256 0.40195 0.0
C6 C 0.829 0.50958 0.48475 0.0
C7 C 0.79775 0.52436 0.49315 0.0
C8 C 0.73625 0.52512 0.42779 0.0
H9 H 0.7948 0.5454 0.55676 0.0
C10 C 0.71328 0.52361 0.31887 0.0
C11 C 0.67978 0.53174 0.33688 0.0
C12 C 0.72513 0.53616 0.55329 0.0
H13 H 0.74123 0.5372 0.63953 0.0
C14 C 0.69263 0.5444 0.57203 0.0
H15 H 0.72159 0.51627 0.22012 0.0
C16 C 0.67025 0.54185 0.46665 0.0
H17 H 0.6452 0.54729 0.48923 0.0
H18 H 0.68448 0.55213 0.67071 0.0
H19 H 0.07813 0.75711 0.29149 0.0
C20 C 0.06663 0.77705 0.34335 0.0
C21 C 0.08393 0.80629 0.35637 0.0
C22 C 0.03513 0.77344 0.39796 0.0
H23 H 0.08231 0.85565 0.42859 0.0
C24 C 0.06959 0.83254 0.42338 0.0
C25 C 0.03842 0.83067 0.4773 0.0
C26 C 1.02102 0.80091 0.4648 0.0
C27 C 1.01843 0.74046 0.39223 0.0
H28 H 0.99668 0.79936 0.50571 0.0
C29 C 1.02375 0.71751 0.2858 0.0
C30 C 1.01041 0.68545 0.29249 0.0
C31 C 0.99878 0.73062 0.50153 0.0
H32 H 0.99459 0.74656 0.58618 0.0
C33 C 0.98519 0.69956 0.50702 0.0
H34 H 0.03855 0.72419 0.19946 0.0
C35 C 0.99103 0.67725 0.40473 0.0
H36 H 0.98004 0.65336 0.41326 0.0
H37 H 0.97032 0.69253 0.59274 0.0
H38 H 0.79768 0.0788 0.28482 0.0
C39 C 0.77805 0.0685 0.34428 0.0
C40 C 0.74845 0.08487 0.34615 0.0
C41 C 0.78233 0.03956 0.41896 0.0
H42 H 0.69921 0.08496 0.41945 0.0
C43 C 0.72244 0.07265 0.42287 0.0
C44 C 0.7248 0.04381 0.49632 0.0
C45 C 0.755 0.0271 0.4947 0.0
C46 C 0.81568 1.02392 0.42104 0.0
H47 H 0.7569 1.00444 0.54992 0.0
C48 C 0.83859 0.02733 0.31222 0.0
C49 C 0.87092 1.01519 0.32235 0.0
C50 C 0.8259 1.00742 0.53805 0.0
H51 H 0.81001 1.00479 0.62462 0.0
C52 C 0.85733 0.99527 0.54846 0.0
H53 H 0.83129 0.03907 0.21917 0.0
C54 C 0.87959 0.99931 0.44321 0.0
H55 H 0.904 0.99046 0.45864 0.0
H56 H 0.86478 0.98315 0.64065 0.0
H57 H 0.47805 0.79499 0.29724 0.0
C58 C 0.48939 0.77555 0.35373 0.0
C59 C 0.47306 0.7457 0.36456 0.0
C60 C 0.51966 0.78035 0.4179 0.0
H61 H 0.47478 0.69669 0.44125 0.0
C62 C 0.487 0.72012 0.43753 0.0
C63 C 0.51713 0.72314 0.49925 0.0
C64 C 0.53366 0.75342 0.48974 0.0
C65 C 0.53509 0.81388 0.41699 0.0
H66 H 0.55721 0.75579 0.53705 0.0
C67 C 0.53095 0.83679 0.30866 0.0
C68 C 0.54295 0.86923 0.31857 0.0
C69 C 0.5522 0.82418 0.5321 0.0
H70 H 0.55531 0.80823 0.61837 0.0
C71 C 0.56453 0.85568 0.54092 0.0
H72 H 0.51805 0.82975 0.21818 0.0
C73 C 0.55988 0.87794 0.43623 0.0
H74 H 0.56983 0.90218 0.44731 0.0
H75 H 0.57746 0.86307 0.63091 0.0
H76 H 0.2967 0.57722 0.29868 0.0
C77 C 0.27725 0.56675 0.23938 0.0
C78 C 0.24684 0.58144 0.24373 0.0
C79 C 0.28275 0.53953 0.15712 0.0
H80 H 0.19725 0.58007 0.17617 0.0
C81 C 0.22101 0.56896 0.16778 0.0
C82 C 0.22449 0.5417 0.0865 0.0
C83 C 0.25578 0.52694 0.08003 0.0
C84 C 0.31718 0.52654 0.14723 0.0
H85 H 0.25889 0.50572 0.01761 0.0
C86 C 0.34004 0.52853 0.25652 0.0
C87 C 0.37359 0.52047 0.23967 0.0
C88 C 0.32849 0.51508 0.02269 0.0
H89 H 0.3125 0.51367 0.93619 0.0
C90 C 0.36103 0.5069 1.0051 0.0
H91 H 0.33158 0.53618 0.35463 0.0
C92 C 0.38329 0.50993 0.11069 0.0
H93 H 0.40838 0.50451 0.0888 0.0
H94 H 0.36932 0.49885 0.90707 0.0
H95 H 0.97974 0.29001 0.29314 0.0
C96 C 0.99127 0.27117 0.2348 0.0
C97 C 0.97522 0.24127 0.22163 0.0
C98 C 1.02138 0.27687 0.16999 0.0
H99 H 0.97705 0.19302 0.13986 0.0
C100 C 0.98922 0.21644 0.14567 0.0
C101 C 1.01918 0.22025 0.08256 0.0
C102 C 0.03547 0.25064 0.09471 0.0
C103 C 0.03643 0.31069 0.17344 0.0
H104 H 0.05893 0.2536 0.04675 0.0
C105 C 0.0316 0.33312 0.28229 0.0
C106 C 0.0433 0.3658 0.27395 0.0
C107 C 0.05391 0.32179 0.05977 0.0
H108 H 0.05754 0.30638 0.97304 0.0
C109 C 0.06598 0.35343 0.05269 0.0
H110 H 1.01841 0.32556 0.37183 0.0
C111 C 0.06067 0.37515 0.15757 0.0
H112 H 0.07043 0.39953 0.14757 0.0
H113 H 0.07921 0.36139 0.96371 0.0
H114 H 0.25718 0.97915 0.3178 0.0
C115 C 0.27694 0.98936 0.25874 0.0
C116 C 0.30732 0.97476 0.2679 0.0
C117 C 0.27191 1.01614 0.17205 0.0
H118 H 0.35724 0.97583 0.20425 0.0
C119 C 0.33354 0.9869 0.1924 0.0
C120 C 0.3304 1.01364 0.10646 0.0
C121 C 0.29917 0.02828 0.095 0.0
C122 C 0.23765 0.02915 0.15812 0.0
H123 H 0.29635 0.04911 0.02897 0.0
C124 C 0.21457 0.02788 0.26672 0.0
C125 C 0.18107 0.03556 0.24717 0.0
C126 C 0.22672 0.03979 0.03124 0.0
H127 H 0.24297 0.04066 0.94524 0.0
C128 C 0.19421 0.04779 0.01105 0.0
H129 H 0.22283 1.02097 0.36639 0.0
C130 C 0.17165 0.04528 0.11621 0.0
H131 H 0.14657 0.05032 0.09244 0.0
H132 H 0.18617 0.05518 0.91142 0.0
H133 H 0.57677 0.26056 0.28828 0.0
C134 C 0.56526 0.27977 0.23103 0.0
C135 C 0.58188 0.30934 0.21478 0.0
C136 C 0.53444 0.27496 0.17154 0.0
H137 H 0.58013 0.35788 0.13264 0.0
C138 C 0.56771 0.3346 0.14055 0.0
C139 C 0.53704 0.33161 0.08364 0.0
C140 C 0.52018 0.30165 0.09911 0.0
C141 C 0.5186 0.24164 0.17784 0.0
H142 H 0.49619 0.29934 0.0557 0.0
C143 C 0.52341 0.2192 0.28739 0.0
C144 C 0.51087 0.18689 0.28206 0.0
C145 C 0.50032 0.23101 0.06639 0.0
H146 H 0.49666 0.24656 0.97926 0.0
C147 C 0.48746 0.19967 0.06222 0.0
H148 H 0.53722 0.22648 0.37518 0.0
C149 C 0.49275 0.17786 0.16796 0.0
H150 H 0.48239 0.1537 0.16052 0.0
H151 H 0.47362 0.19203 0.97497 0.0
Tb152 Tb 0.04494 1.01512 0.90128 0.0
Tb153 Tb 1.00365 0.03693 0.67118 0.0
C154 C 0.06549 0.99202 0.11846 0.0
C155 C 0.08291 0.96102 0.1365 0.0
C156 C 0.06618 0.93159 0.11908 0.0
C157 C 0.08281 0.90244 0.11709 0.0
C158 C 0.11673 0.90161 0.13345 0.0
C159 C 0.13357 0.93087 0.15522 0.0
C160 C 0.11679 0.96042 0.15551 0.0
C161 C 0.08412 1.02293 0.68577 0.0
C162 C 1.02239 0.96099 0.69627 0.0
C163 C 0.9725 0.05096 0.46181 0.0
C164 C 0.95037 0.07802 0.43357 0.0
C165 C 0.95183 0.09352 0.30766 0.0
C166 C 0.93717 0.12364 0.28903 0.0
C167 C 0.92154 0.13914 0.3975 0.0
C168 C 0.91776 0.12233 0.52027 0.0
C169 C 0.93185 0.09182 0.53783 0.0
C170 C 0.97281 0.03544 0.90925 0.0
C171 C 0.03306 0.09097 0.85855 0.0
O172 O 0.0351 0.98965 0.08047 0.0
O173 O 0.08112 1.01463 0.05108 0.0
O174 O 0.05379 0.02762 0.6923 0.0
O175 O 0.09284 1.01258 0.80334 0.0
O176 O 0.03594 0.96709 0.81474 0.0
O177 O 1.01022 0.98487 0.62095 0.0
O178 O 1.00286 0.05955 0.48084 0.0
O179 O 0.96242 0.02955 0.55107 0.0
O180 O 0.99315 1.01496 0.86558 0.0
O181 O 0.96945 0.05731 0.81668 0.0
O182 O 1.02325 0.08434 0.73389 0.0
O183 O 0.03882 0.06714 0.94621 0.0
H184 H 0.04012 0.93089 0.10486 0.0
H185 H 0.06871 0.88031 0.1066 0.0
H186 H 0.15954 0.93085 0.17223 0.0
H187 H 0.1303 0.98278 0.16864 0.0
H188 H 0.96634 0.0835 0.22679 0.0
H189 H 0.94108 0.13621 0.19382 0.0
H190 H 0.90611 0.13383 0.60553 0.0
H191 H 0.93022 0.08022 0.63598 0.0
Tb192 Tb 0.53533 0.04795 0.90851 0.0
Tb193 Tb 0.52017 1.00912 0.69571 0.0
C194 C 0.5611 0.07639 0.10494 0.0
C195 C 0.58971 0.09755 0.11055 0.0
C196 C 0.60354 0.105 0.23525 0.0
C197 C 0.63338 0.12102 0.24046 0.0
C198 C 0.65015 0.12942 0.12057 0.0
C199 C 0.63489 0.12407 0.9957 0.0
C200 C 0.60481 0.10826 0.99078 0.0
C201 C 0.51863 0.08403 0.69439 0.0
C202 C 0.59293 0.02761 0.70796 0.0
C203 C 0.49438 0.98005 0.50124 0.0
C204 C 0.46573 0.95895 0.49939 0.0
C205 C 0.45124 0.95106 0.37651 0.0
C206 C 0.42107 0.93563 0.37516 0.0
C207 C 0.40465 0.92837 0.4971 0.0
C208 C 0.4206 0.93395 0.62021 0.0
C209 C 0.45103 0.94909 0.62127 0.0
C210 C 0.53692 0.97325 0.91031 0.0
C211 C 0.46241 0.02969 0.89472 0.0
O212 O 0.5669 0.04615 0.07477 0.0
O213 O 0.53668 0.08801 0.03705 0.0
O214 O 0.5363 0.05892 0.69249 0.0
O215 O 0.50991 0.08894 0.81747 0.0
O216 O 0.58494 0.0365 0.83195 0.0
O217 O 0.5694 1.01997 0.6234 0.0
O218 O 0.48869 1.01044 0.52916 0.0
O219 O 0.51896 0.96871 0.56894 0.0
O220 O 0.51905 0.99822 0.91159 0.0
O221 O 0.54597 0.96849 0.78756 0.0
O222 O 0.47049 1.02079 0.77088 0.0
O223 O 0.48591 0.03727 0.97961 0.0
H224 H 0.59224 0.0968 0.32841 0.0
H225 H 0.64459 0.12401 0.33858 0.0
H226 H 0.64722 0.13006 0.90195 0.0
H227 H 0.5942 0.10281 0.89332 0.0
H228 H 0.46224 0.9586 0.2818 0.0
H229 H 0.40934 0.93238 0.27827 0.0
H230 H 0.40852 0.92885 0.71539 0.0
H231 H 0.46217 0.95487 0.71737 0.0
Tb232 Tb 0.50476 0.53711 0.91217 0.0
Tb233 Tb 0.54826 0.51702 0.6654 0.0
C234 C 0.48269 0.55771 0.13044 0.0
C235 C 0.45929 0.58391 0.15207 0.0
C236 C 0.45537 0.59729 0.2804 0.0
C237 C 0.43889 0.62662 0.29505 0.0
C238 C 0.42641 0.64311 0.18099 0.0
C239 C 0.4277 0.62788 0.05479 0.0
C240 C 0.44418 0.59863 0.0404 0.0
C241 C 0.46827 0.53164 0.6864 0.0
C242 C 0.53105 0.59203 0.70851 0.0
C243 C 0.57025 0.49673 0.44632 0.0
C244 C 0.59404 0.47097 0.42265 0.0
C245 C 0.59721 0.45735 0.29438 0.0
C246 C 0.61427 0.4284 0.27846 0.0
C247 C 0.62806 0.41248 0.39126 0.0
C248 C 0.62745 0.42799 0.51697 0.0
C249 C 0.61042 0.45689 0.5326 0.0
C250 C 0.58479 0.52236 0.89089 0.0
C251 C 0.52215 0.46217 0.87019 0.0
O252 O 0.51062 0.56735 0.07964 0.0
O253 O 0.47117 0.53184 0.07013 0.0
O254 O 0.49843 0.52708 0.70162 0.0
O255 O 0.45781 0.53952 0.80447 0.0
O256 O 0.51897 0.58494 0.82998 0.0
O257 O 0.54074 0.56907 0.62373 0.0
O258 O 0.54262 0.48659 0.49834 0.0
O259 O 0.58151 0.52272 0.50648 0.0
O260 O 0.55463 0.52701 0.87601 0.0
O261 O 0.59521 0.51454 0.77268 0.0
O262 O 0.53419 0.46919 0.74848 0.0
O263 O 0.51238 0.48516 0.95463 0.0
H264 H 0.46701 0.58637 0.36752 0.0
H265 H 0.43884 0.63785 0.39371 0.0
H266 H 0.41842 0.63993 0.96534 0.0
H267 H 0.44716 0.58893 0.94011 0.0
H268 H 0.58461 0.46777 0.20857 0.0
H269 H 0.61377 0.41693 0.18031 0.0
H270 H 0.63772 0.41635 0.60548 0.0
H271 H 0.60811 0.46678 0.63281 0.0
Tb272 Tb 1.01957 0.5058 0.89166 0.0
Tb273 Tb 0.03409 0.54475 0.67858 0.0
C274 C 0.99402 0.47675 0.08878 0.0
C275 C 0.96537 0.45563 0.09335 0.0
C276 C 0.95093 0.44811 0.21733 0.0
C277 C 0.92081 0.43259 0.22096 0.0
C278 C 0.90438 0.42486 0.10018 0.0
C279 C 0.92022 0.43017 0.97616 0.0
C280 C 0.95061 0.4454 0.97284 0.0
C281 C 0.03603 0.46973 0.67844 0.0
C282 C 0.96129 0.52598 0.69369 0.0
C283 C 0.05928 0.57407 0.48128 0.0
C284 C 0.08764 0.59556 0.47636 0.0
C285 C 0.10182 0.60337 0.35216 0.0
C286 C 0.1318 0.61916 0.34811 0.0
C287 C 0.14834 0.62689 0.46867 0.0
C288 C 0.13265 0.62139 0.59293 0.0
C289 C 0.10243 0.60585 0.59669 0.0
C290 C 1.01762 0.58068 0.89216 0.0
C291 C 0.09241 0.52456 0.87644 0.0
O292 O 0.98826 0.5071 0.05904 0.0
O293 O 1.01852 0.46541 0.02091 0.0
O294 O 1.01821 0.49478 0.67603 0.0
O295 O 0.04525 0.4651 0.80124 0.0
O296 O 0.9696 0.517 0.81759 0.0
O297 O 0.98469 0.53389 0.60824 0.0
O298 O 0.06545 0.54381 0.51128 0.0
O299 O 0.03468 0.58513 0.54929 0.0
O300 O 0.03554 0.55571 0.89409 0.0
O301 O 1.00833 0.58532 0.76947 0.0
O302 O 0.08409 0.53367 0.75268 0.0
O303 O 0.06903 0.51649 0.9618 0.0
H304 H 0.96192 0.456 0.311 0.0
H305 H 0.90913 0.42958 0.31841 0.0
H306 H 0.90811 0.42473 0.8818 0.0
H307 H 0.96168 0.45092 0.87592 0.0
H308 H 0.09076 0.59548 0.25862 0.0
H309 H 0.14333 0.62234 0.25044 0.0
H310 H 0.14482 0.62687 0.68714 0.0
H311 H 0.09154 0.60012 0.69377 0.0
C312 C 0.1599 1.01096 0.46909 0.0
C313 C 0.1556 0.03244 0.35917 0.0
H314 H 0.14115 0.99135 0.65487 0.0
C315 C 0.12602 0.05009 0.35584 0.0
H316 H 0.18137 0.99608 0.4764 0.0
C317 C 0.10203 0.0463 0.45732 0.0
C318 C 0.10706 1.02536 0.56768 0.0
H319 H 0.12133 0.0675 0.27617 0.0
H320 H 0.08008 0.06057 0.45161 0.0
C321 C 0.13634 1.00782 0.57158 0.0
C322 C 0.52482 0.12968 0.35673 0.0
C323 C 0.51626 0.1617 0.39142 0.0
H324 H 0.53263 0.08037 0.42254 0.0
C325 C 0.50973 0.16803 0.52821 0.0
H326 H 0.52994 0.12397 0.25269 0.0
C327 C 0.51061 0.14285 0.62566 0.0
C328 C 0.51863 0.11069 0.58988 0.0
H329 H 0.5027 0.19215 0.55915 0.0
H330 H 0.50472 0.14861 0.72945 0.0
C331 C 0.52627 0.10464 0.45415 0.0
C332 C 0.39464 0.54565 0.45943 0.0
C333 C 0.39884 0.52367 0.35239 0.0
H334 H 0.41296 0.56526 0.64474 0.0
C335 C 0.42804 0.50533 0.3532 0.0
H336 H 0.37347 0.561 0.46361 0.0
C337 C 0.45165 0.5088 0.45614 0.0
C338 C 0.44663 0.53014 0.56401 0.0
H339 H 0.43263 0.48749 0.27603 0.0
H340 H 0.47314 0.49381 0.45405 0.0
C341 C 0.4178 0.54849 0.56337 0.0
C342 C 0.02861 0.42296 0.34544 0.0
C343 C 0.03787 0.39112 0.38202 0.0
H344 H 1.02044 0.47235 0.40727 0.0
C345 C 0.04523 0.3853 0.51879 0.0
H346 H 1.02284 0.42835 0.24143 0.0
C347 C 0.04449 0.41074 0.61396 0.0
C348 C 0.0358 0.44273 0.57618 0.0
H349 H 0.05284 0.36138 0.55133 0.0
H350 H 0.05104 0.40532 0.71761 0.0
C351 C 0.02732 0.44827 0.44062 0.0
C352 C 0.92113 0.99643 0.1914 0.0
C353 C 0.89631 1.01962 0.21169 0.0
H354 H 0.96451 0.98301 0.08346 0.0
C355 C 0.89731 0.04775 0.13005 0.0
H356 H 0.92127 0.97404 0.24917 0.0
C357 C 0.9222 0.05266 0.03392 0.0
C358 C 0.94716 0.02973 0.01561 0.0
H359 H 0.87934 0.06656 0.14263 0.0
H360 H 0.92201 0.07481 0.97438 0.0
C361 C 0.94613 1.00144 0.09555 0.0
C362 C 0.52928 0.92668 0.24556 0.0
C363 C 0.53824 0.89481 0.21016 0.0
H364 H 0.52146 0.97612 0.18127 0.0
C365 C 0.54563 0.88893 0.07377 0.0
H366 H 0.52346 0.93205 0.3493 0.0
C367 C 0.54514 0.91437 0.97749 0.0
C368 C 0.53665 0.94637 0.01391 0.0
H369 H 0.55298 0.86495 0.04231 0.0
H370 H 0.55164 0.90893 0.87403 0.0
C371 C 0.52821 0.95199 0.14918 0.0
C372 C 0.65837 0.50721 0.11664 0.0
C373 C 0.65443 0.52901 0.22445 0.0
H374 H 0.63975 0.48814 0.93093 0.0
C375 C 0.62541 0.54762 0.22471 0.0
H376 H 0.67939 0.49167 0.11171 0.0
C377 C 0.6017 0.54458 0.12189 0.0
C378 C 0.60647 0.52342 0.01322 0.0
H379 H 0.62104 0.56532 0.30268 0.0
H380 H 0.58035 0.55976 0.12474 0.0
C381 C 0.63512 0.50479 0.01291 0.0
C382 C 1.02358 0.62756 0.22545 0.0
C383 C 1.01603 0.65971 0.18643 0.0
H384 H 0.03049 0.57779 0.16594 0.0
C385 C 1.01041 0.66563 0.04832 0.0
H386 H 0.0279 0.62207 0.33065 0.0
C387 C 1.01112 0.64005 0.95391 0.0
C388 C 1.01813 0.60779 0.99384 0.0
H389 H 1.00413 0.68979 0.01392 0.0
H390 H 1.00586 0.64558 0.84907 0.0
C391 C 1.02495 0.6021 0.13094 0.0
C392 C 0.91989 0.21873 0.22754 0.0
C393 C 0.94586 0.23257 0.29961 0.0
H394 H 0.89095 0.17581 0.20392 0.0
C395 C 0.95096 0.22261 0.43363 0.0
H396 H 0.91505 0.22656 0.12479 0.0
C397 C 0.93708 0.19354 0.47947 0.0
C398 C 0.91797 0.17484 0.39118 0.0
H399 H 0.97038 0.23335 0.49241 0.0
H400 H 0.946 0.1832 0.57321 0.0
C401 C 0.90629 0.18942 0.27232 0.0
C402 C 0.32758 0.9202 0.3205 0.0
C403 C 0.31428 0.94926 0.36814 0.0
H404 H 0.36846 0.88864 0.33247 0.0
C405 C 0.32251 0.95982 0.49805 0.0
H406 H 0.32098 0.91124 0.22152 0.0
C407 C 0.35005 0.94723 0.56082 0.0
C408 C 0.36894 0.92413 0.49278 0.0
H409 H 0.312 0.98181 0.53808 0.0
H410 H 0.35956 0.95997 0.64774 0.0
C411 C 0.35498 0.90742 0.38377 0.0
C412 C 0.60591 0.32634 0.42701 0.0
C413 C 0.61135 0.31767 0.29221 0.0
H414 H 0.60726 0.36542 0.56661 0.0
C415 C 0.63651 0.33353 0.22103 0.0
H416 H 0.58751 0.31377 0.48616 0.0
C417 C 0.64741 0.36385 0.26527 0.0
C418 C 0.63428 0.37711 0.38364 0.0
H419 H 0.64204 0.32649 0.11827 0.0
H420 H 0.66175 0.37882 0.19706 0.0
C421 C 0.61705 0.35641 0.47249 0.0
C422 C 0.23122 0.59701 0.4719 0.0
C423 C 0.23927 0.60723 0.34066 0.0
H424 H 0.19414 0.59659 0.62182 0.0
C425 C 0.22533 0.63579 0.28955 0.0
H426 H 0.24222 0.57543 0.51463 0.0
C427 C 0.1976 0.64817 0.35129 0.0
C428 C 0.184 0.63161 0.46258 0.0
H429 H 0.23178 0.64452 0.18947 0.0
H430 H 0.18374 0.66646 0.29787 0.0
C431 C 0.20337 0.6092 0.53323 0.0
C432 C 0.13753 0.83311 0.34132 0.0
C433 C 0.11427 0.81282 0.27991 0.0
H434 H 0.15675 0.88138 0.33773 0.0
C435 C 0.11093 0.81483 0.13901 0.0
H436 H 0.14223 0.83078 0.44866 0.0
C437 C 0.12035 0.84349 0.07315 0.0
C438 C 0.13229 0.8695 0.15064 0.0
H439 H 0.09479 0.79835 0.08638 0.0
H440 H 0.11146 0.8478 0.97161 0.0
C441 C 0.14585 0.86238 0.27741 0.0
C442 C 0.72661 0.13938 0.30217 0.0
C443 C 0.74131 0.1114 0.25046 0.0
H444 H 0.68417 0.16891 0.29436 0.0
C445 C 0.73399 0.10199 0.11802 0.0
H446 H 0.73258 0.14765 0.4029 0.0
C447 C 0.70587 0.11369 0.0567 0.0
C448 C 0.68568 0.13504 0.1281 0.0
H449 H 0.74568 0.08102 0.0743 0.0
H450 H 0.69722 0.1014 0.96714 0.0
C451 C 0.69863 0.15133 0.24041 0.0
C452 C 0.41836 0.722 0.35257 0.0
C453 C 0.44404 0.73767 0.28396 0.0
H454 H 0.3923 0.67709 0.37298 0.0
C455 C 0.45019 0.72902 0.14967 0.0
H456 H 0.41236 0.72901 0.45492 0.0
C457 C 0.43892 0.69914 0.10258 0.0
C458 C 0.42085 0.6786 0.18919 0.0
H459 H 0.46908 0.7414 0.09261 0.0
H460 H 0.44912 0.6901 0.00928 0.0
C461 C 0.40726 0.69191 0.30656 0.0
C462 C 0.8273 0.41595 0.27842 0.0
C463 C 0.81356 0.4447 0.22833 0.0
H464 H 0.86875 0.3851 0.26933 0.0
C465 C 0.82169 0.45514 0.09746 0.0
H466 H 0.82078 0.40705 0.37818 0.0
C467 C 0.84949 0.44292 0.03581 0.0
C468 C 0.86871 0.42025 0.10576 0.0
H469 H 0.81084 0.47688 0.05549 0.0
H470 H 0.85884 0.45565 0.94773 0.0
C471 C 0.85498 0.40354 0.2164 0.0
C472 C 0.04523 0.16516 0.08742 0.0
C473 C 0.03188 0.19075 0.01085 0.0
H474 H 0.05622 0.11434 0.10093 0.0
C475 C 1.0214 0.18362 0.87863 0.0
H476 H 0.05234 0.16931 0.19127 0.0
C477 C 1.02323 0.15178 0.82652 0.0
C478 C 0.03512 0.12583 0.90583 0.0
H479 H 1.00974 0.20227 0.81856 0.0
H480 H 1.01369 0.14724 0.72644 0.0
C481 C 0.04692 0.13336 0.0359 0.0
C482 C 0.3695 1.01528 0.90678 0.0
C483 C 0.3613 1.02531 0.03845 0.0
H484 H 0.40719 1.00869 0.758 0.0
C485 C 0.38645 0.03838 0.11843 0.0
H486 H 0.35123 1.00393 0.84389 0.0
C487 C 0.41868 0.04057 0.07055 0.0
C488 C 0.42724 0.02957 0.94068 0.0
H489 H 0.38147 0.0453 0.2218 0.0
H490 H 0.43716 0.04999 0.13771 0.0
C491 C 0.40186 1.01757 0.85834 0.0
C492 C 0.53538 0.36987 0.88446 0.0
C493 C 0.52421 0.3615 0.01482 0.0
H494 H 0.5435 0.4075 0.73657 0.0
C495 C 0.51017 0.38618 0.09301 0.0
H496 H 0.54755 0.35187 0.82355 0.0
C497 C 0.50839 0.41839 0.04448 0.0
C498 C 0.52086 0.42712 0.91624 0.0
H499 H 0.50256 0.38099 0.19578 0.0
H500 H 0.49845 0.43673 0.11031 0.0
C501 C 0.53354 0.40205 0.83555 0.0
C502 C 0.16883 0.51581 0.09837 0.0
C503 C 0.19376 0.5297 0.01847 0.0
H504 H 0.11826 0.50333 0.11825 0.0
C505 C 0.18522 0.5404 0.88751 0.0
H506 H 0.17397 0.50843 0.20139 0.0
C507 C 0.15285 0.53785 0.83959 0.0
C508 C 0.12769 0.52497 0.9218 0.0
H509 H 0.20324 0.55245 0.82473 0.0
H510 H 0.14731 0.54723 0.73978 0.0
C511 C 0.13655 0.51339 0.05106 0.0
C512 C 1.01458 0.887 0.46102 0.0
C513 C 1.02591 0.86119 0.54235 0.0
H514 H 1.00436 0.93806 0.44403 0.0
C515 C 0.0343 0.86836 0.67691 0.0
H516 H 1.00925 0.88282 0.35536 0.0
C517 C 0.03219 0.90027 0.72748 0.0
C518 C 1.02182 0.92636 0.64501 0.0
H519 H 0.04438 0.84955 0.74104 0.0
H520 H 0.03982 0.90464 0.83048 0.0
C521 C 1.01229 0.91893 0.51166 0.0
C522 C 0.66891 1.01869 0.48421 0.0
C523 C 0.69394 0.03204 0.56389 0.0
H524 H 0.61821 1.00685 0.46538 0.0
C525 C 0.68563 0.04248 0.69487 0.0
H526 H 0.67396 1.01159 0.38113 0.0
C527 C 0.65332 0.04014 0.74338 0.0
C528 C 0.62805 0.02778 0.66159 0.0
H529 H 0.70381 0.05413 0.75728 0.0
H530 H 0.64794 0.04927 0.84327 0.0
C531 C 0.63666 1.0165 0.53213 0.0
C532 C 0.51857 0.6845 0.69735 0.0
C533 C 0.52971 0.69301 0.56713 0.0
H534 H 0.51022 0.64664 0.84408 0.0
C535 C 0.54344 0.66833 0.48791 0.0
H536 H 0.50661 0.70248 0.75902 0.0
C537 C 0.54498 0.63601 0.53531 0.0
C538 C 0.53254 0.62715 0.66342 0.0
H539 H 0.55102 0.67364 0.38519 0.0
H540 H 0.55471 0.61771 0.46874 0.0
C541 C 0.52015 0.65219 0.74512 0.0
C542 C 0.86835 0.51086 0.68356 0.0
C543 C 0.85988 0.52135 0.55223 0.0
H544 H 0.90623 0.50402 0.83139 0.0
C545 C 0.88492 0.53485 0.47174 0.0
H546 H 0.85023 0.49913 0.74685 0.0
C547 C 0.91722 0.53707 0.51881 0.0
C548 C 0.92601 0.5257 0.64845 0.0
H549 H 0.87982 0.54207 0.3685 0.0
H550 H 0.93558 0.54684 0.4512 0.0
C551 C 0.90076 0.51321 0.73124 0.0
loop_
_geom_bond_atom_site_label_1
_geom_bond_atom_site_label_2
_geom_bond_distance
_geom_bond_site_symmetry_2
_ccdc_geom_bond_type
H0 C1 0.949 . S
C1 H0 0.949 . S
C1 C2 1.395 . S
C1 C3 1.391 . S
C2 C1 1.395 . S
C2 C5 1.390 . S
C3 C1 1.391 . S
C3 C7 1.387 . S
C3 C8 1.491 . S
H4 C5 0.950 . S
C5 C2 1.390 . S
C5 H4 0.950 . S
C5 C6 1.378 . S
C6 C5 1.378 . S
C6 C7 1.409 . S
C7 C3 1.387 . S
C7 C6 1.409 . S
C7 H9 0.951 . S
C8 C3 1.491 . S
C8 C10 1.382 . S
C8 C12 1.404 . S
H9 C7 0.951 . S
C10 C8 1.382 . S
C10 C11 1.390 . S
C10 H15 0.949 . S
C11 C10 1.390 . S
C11 C16 1.399 . S
C12 C8 1.404 . S
C12 H13 0.950 . S
C12 C14 1.375 . S
H13 C12 0.950 . S
C14 C12 1.375 . S
C14 C16 1.382 . S
C14 H18 0.950 . S
H15 C10 0.949 . S
C16 C11 1.399 . S
C16 C14 1.382 . S
C16 H17 0.952 . S
H17 C16 0.952 . S
H18 C14 0.950 . S
H19 C20 0.949 . S
C20 H19 0.949 . S
C20 C21 1.395 . S
C20 C22 1.391 . S
C21 C20 1.395 . S
C21 C24 1.390 1_655 S
C22 C20 1.391 . S
C22 C26 1.387 . S
C22 C27 1.491 . S
H23 C24 0.950 . S
C24 C21 1.390 1_455 S
C24 H23 0.950 . S
C24 C25 1.377 1_455 S
C25 C24 1.377 1_655 S
C25 C26 1.413 . S
C26 C22 1.387 . S
C26 C25 1.413 . S
C26 H28 0.951 . S
C27 C22 1.491 . S
C27 C29 1.382 . S
C27 C31 1.404 . S
H28 C26 0.951 . S
C29 C27 1.382 . S
C29 C30 1.390 . S
C29 H34 0.949 1_655 S
C30 C29 1.390 . S
C30 C35 1.399 . S
C31 C27 1.404 . S
C31 H32 0.950 . S
C31 C33 1.375 . S
H32 C31 0.950 . S
C33 C31 1.375 . S
C33 C35 1.382 . S
C33 H37 0.950 . S
H34 C29 0.949 1_455 S
C35 C30 1.399 . S
C35 C33 1.382 . S
C35 H36 0.952 . S
H36 C35 0.952 . S
H37 C33 0.950 . S
H38 C39 0.949 . S
C39 H38 0.949 . S
C39 C40 1.395 . S
C39 C41 1.391 . S
C40 C39 1.395 . S
C40 C43 1.390 1_565 S
C41 C39 1.391 . S
C41 C45 1.387 . S
C41 C46 1.491 . S
H42 C43 0.950 . S
C43 C40 1.390 1_545 S
C43 H42 0.950 . S
C43 C44 1.377 1_545 S
C44 C43 1.377 1_565 S
C44 C45 1.413 . S
C45 C41 1.387 . S
C45 C44 1.413 . S
C45 H47 0.951 . S
C46 C41 1.491 . S
C46 C48 1.382 . S
C46 C50 1.404 . S
H47 C45 0.951 . S
C48 C46 1.382 . S
C48 C49 1.390 . S
C48 H53 0.949 1_565 S
C49 C48 1.390 . S
C49 C54 1.399 . S
C50 C46 1.404 . S
C50 H51 0.950 . S
C50 C52 1.375 . S
H51 C50 0.950 . S
C52 C50 1.375 . S
C52 C54 1.382 . S
C52 H56 0.950 . S
H53 C48 0.949 1_545 S
C54 C49 1.399 . S
C54 C52 1.382 . S
C54 H55 0.952 . S
H55 C54 0.952 . S
H56 C52 0.950 . S
H57 C58 0.949 . S
C58 H57 0.949 . S
C58 C59 1.395 . S
C58 C60 1.391 . S
C59 C58 1.395 . S
C59 C62 1.390 . S
C60 C58 1.391 . S
C60 C64 1.387 . S
C60 C65 1.491 . S
H61 C62 0.950 . S
C62 C59 1.390 . S
C62 H61 0.950 . S
C62 C63 1.378 . S
C63 C62 1.378 . S
C63 C64 1.409 . S
C64 C60 1.387 . S
C64 C63 1.409 . S
C64 H66 0.951 . S
C65 C60 1.491 . S
C65 C67 1.382 . S
C65 C69 1.404 . S
H66 C64 0.951 . S
C67 C65 1.382 . S
C67 C68 1.390 . S
C67 H72 0.949 . S
C68 C67 1.390 . S
C68 C73 1.399 . S
C69 C65 1.404 . S
C69 H70 0.950 . S
C69 C71 1.375 . S
H70 C69 0.950 . S
C71 C69 1.375 . S
C71 C73 1.382 . S
C71 H75 0.950 . S
H72 C67 0.949 . S
C73 C68 1.399 . S
C73 C71 1.382 . S
C73 H74 0.952 . S
H74 C73 0.952 . S
H75 C71 0.950 . S
H76 C77 0.949 . S
C77 H76 0.949 . S
C77 C78 1.395 . S
C77 C79 1.391 1_554 S
C78 C77 1.395 . S
C78 C81 1.390 1_554 S
C79 C77 1.391 1_556 S
C79 C83 1.387 . S
C79 C84 1.491 . S
H80 C81 0.950 . S
C81 C78 1.390 1_556 S
C81 H80 0.950 . S
C81 C82 1.378 . S
C82 C81 1.378 . S
C82 C83 1.409 . S
C83 C79 1.387 . S
C83 C82 1.409 . S
C83 H85 0.951 . S
C84 C79 1.491 . S
C84 C86 1.382 1_556 S
C84 C88 1.404 . S
H85 C83 0.951 . S
C86 C84 1.382 1_554 S
C86 C87 1.390 . S
C86 H91 0.949 . S
C87 C86 1.390 . S
C87 C92 1.399 1_554 S
C88 C84 1.404 . S
C88 H89 0.950 . S
C88 C90 1.375 . S
H89 C88 0.950 . S
C90 C88 1.375 . S
C90 C92 1.382 . S
C90 H94 0.950 . S
H91 C86 0.949 . S
C92 C87 1.399 1_556 S
C92 C90 1.382 . S
C92 H93 0.952 . S
H93 C92 0.952 . S
H94 C90 0.950 . S
H95 C96 0.949 . S
C96 H95 0.949 . S
C96 C97 1.394 . S
C96 C98 1.391 1_554 S
C97 C96 1.394 . S
C97 C100 1.390 1_654 S
C98 C96 1.391 1_556 S
C98 C102 1.387 . S
C98 C103 1.491 . S
H99 C100 0.950 . S
C100 C97 1.390 1_456 S
C100 H99 0.950 . S
C100 C101 1.377 1_455 S
C101 C100 1.377 1_655 S
C101 C102 1.411 . S
C102 C98 1.387 . S
C102 C101 1.411 . S
C102 H104 0.951 . S
C103 C98 1.491 . S
C103 C105 1.382 1_556 S
C103 C107 1.404 . S
H104 C102 0.951 . S
C105 C103 1.382 1_554 S
C105 C106 1.390 . S
C105 H110 0.949 1_655 S
C106 C105 1.390 . S
C106 C111 1.403 . S
C107 C103 1.404 . S
C107 H108 0.950 . S
C107 C109 1.375 . S
H108 C107 0.950 . S
C109 C107 1.375 . S
C109 C111 1.378 1_556 S
C109 H113 0.950 . S
H110 C105 0.949 1_455 S
C111 C106 1.403 . S
C111 C109 1.378 1_554 S
C111 H112 0.952 . S
H112 C111 0.952 . S
H113 C109 0.950 . S
H114 C115 0.949 . S
C115 H114 0.949 . S
C115 C116 1.394 . S
C115 C117 1.391 1_554 S
C116 C115 1.394 . S
C116 C119 1.390 1_564 S
C117 C115 1.391 1_556 S
C117 C121 1.387 . S
C117 C122 1.491 . S
H118 C119 0.950 . S
C119 C116 1.390 1_546 S
C119 H118 0.950 . S
C119 C120 1.377 1_545 S
C120 C119 1.377 1_565 S
C120 C121 1.411 . S
C121 C117 1.387 . S
C121 C120 1.411 . S
C121 H123 0.951 . S
C122 C117 1.491 . S
C122 C124 1.382 1_556 S
C122 C126 1.404 . S
H123 C121 0.951 . S
C124 C122 1.382 1_554 S
C124 C125 1.390 . S
C124 H129 0.949 1_565 S
C125 C124 1.390 . S
C125 C130 1.397 1_554 S
C126 C122 1.404 . S
C126 H127 0.950 . S
C126 C128 1.375 . S
H127 C126 0.950 . S
C128 C126 1.375 . S
C128 C130 1.384 . S
C128 H132 0.950 . S
H129 C124 0.949 1_545 S
C130 C125 1.397 1_556 S
C130 C128 1.384 . S
C130 H131 0.951 1_556 S
H131 C130 0.951 1_554 S
H132 C128 0.950 . S
H133 C134 0.949 . S
C134 H133 0.949 . S
C134 C135 1.395 . S
C134 C136 1.391 1_554 S
C135 C134 1.395 . S
C135 C138 1.390 1_554 S
C136 C134 1.391 1_556 S
C136 C140 1.387 . S
C136 C141 1.491 . S
H137 C138 0.950 . S
C138 C135 1.390 1_556 S
C138 H137 0.950 . S
C138 C139 1.378 . S
C139 C138 1.378 . S
C139 C140 1.409 . S
C140 C136 1.387 . S
C140 C139 1.409 . S
C140 H142 0.951 . S
C141 C136 1.491 . S
C141 C143 1.382 1_556 S
C141 C145 1.404 . S
H142 C140 0.951 . S
C143 C141 1.382 1_554 S
C143 C144 1.390 . S
C143 H148 0.949 . S
C144 C143 1.390 . S
C144 C149 1.399 1_554 S
C145 C141 1.404 . S
C145 H146 0.950 . S
C145 C147 1.375 . S
H146 C145 0.950 . S
C147 C145 1.375 . S
C147 C149 1.382 . S
C147 H151 0.950 . S
H148 C143 0.949 . S
C149 C144 1.399 1_556 S
C149 C147 1.382 . S
C149 H150 0.952 . S
H150 C149 0.952 . S
H151 C147 0.950 . S
Tb152 C154 2.809 1_556 S
Tb152 O172 2.484 1_556 S
Tb152 O173 2.440 1_556 S
Tb152 O174 2.658 1_565 S
Tb152 O175 2.409 . S
Tb152 O176 2.378 . S
Tb152 O180 2.325 1_455 S
Tb152 O183 2.341 1_565 S
Tb153 C163 2.809 . S
Tb153 O174 2.325 1_655 S
Tb153 O177 2.341 1_545 S
Tb153 O178 2.484 . S
Tb153 O179 2.440 . S
Tb153 O180 2.658 1_545 S
Tb153 O181 2.409 . S
Tb153 O182 2.378 . S
C154 Tb152 2.809 1_554 S
C154 C155 1.514 . S
C154 O172 1.248 . S
C154 O173 1.266 . S
C155 C154 1.514 . S
C155 C156 1.359 . S
C155 C160 1.348 . S
C156 C155 1.359 . S
C156 C157 1.380 . S
C156 H184 0.929 1_455 S
C157 C156 1.380 . S
C157 C158 1.347 . S
C157 H185 0.931 1_455 S
C158 C157 1.347 . S
C158 C159 1.369 . S
C159 C158 1.369 . S
C159 C160 1.408 . S
C159 H186 0.930 . S
C160 C155 1.348 . S
C160 C159 1.408 . S
C160 H187 0.930 . S
C161 O174 1.281 1_565 S
C161 O175 1.254 . S
C162 O176 1.236 1_655 S
C162 O177 1.266 . S
C163 Tb153 2.809 . S
C163 C164 1.514 . S
C163 O178 1.248 . S
C163 O179 1.266 . S
C164 C163 1.514 . S
C164 C165 1.359 . S
C164 C169 1.348 . S
C165 C164 1.359 . S
C165 C166 1.380 . S
C165 H188 0.929 1_655 S
C166 C165 1.380 . S
C166 C167 1.347 . S
C166 H189 0.931 1_655 S
C167 C166 1.347 . S
C167 C168 1.369 . S
C168 C167 1.369 . S
C168 C169 1.408 . S
C168 H190 0.930 . S
C169 C164 1.348 . S
C169 C168 1.408 . S
C169 H191 0.930 . S
C170 O180 1.281 1_545 S
C170 O181 1.254 . S
C171 O182 1.236 1_455 S
C171 O183 1.266 . S
O172 Tb152 2.484 1_554 S
O172 C154 1.248 . S
O173 Tb152 2.440 1_554 S
O173 C154 1.266 . S
O174 Tb152 2.658 1_545 S
O174 Tb153 2.325 1_455 S
O174 C161 1.281 1_545 S
O175 Tb152 2.409 . S
O175 C161 1.254 . S
O176 Tb152 2.378 . S
O176 C162 1.236 1_455 S
O177 Tb153 2.341 1_565 S
O177 C162 1.266 . S
O178 Tb153 2.484 . S
O178 C163 1.248 . S
O179 Tb153 2.440 . S
O179 C163 1.266 . S
O180 Tb152 2.325 1_655 S
O180 Tb153 2.658 1_565 S
O180 C170 1.281 1_565 S
O181 Tb153 2.409 . S
O181 C170 1.254 . S
O182 Tb153 2.378 . S
O182 C171 1.236 1_655 S
O183 Tb152 2.341 1_545 S
O183 C171 1.266 . S
H184 C156 0.929 1_655 S
H185 C157 0.931 1_655 S
H186 C159 0.930 . S
H187 C160 0.930 . S
H188 C165 0.929 1_455 S
H189 C166 0.931 1_455 S
H190 C168 0.930 . S
H191 C169 0.930 . S
Tb192 C194 2.809 1_556 S
Tb192 O212 2.484 1_556 S
Tb192 O213 2.440 1_556 S
Tb192 O214 2.658 . S
Tb192 O215 2.409 . S
Tb192 O216 2.378 . S
Tb192 O220 2.325 1_545 S
Tb192 O223 2.341 . S
Tb193 C203 2.809 . S
Tb193 O214 2.325 1_565 S
Tb193 O217 2.341 . S
Tb193 O218 2.498 . S
Tb193 O219 2.440 . S
Tb193 O220 2.658 . S
Tb193 O221 2.409 . S
Tb193 O222 2.378 . S
C194 Tb192 2.809 1_554 S
C194 C195 1.514 . S
C194 O212 1.248 . S
C194 O213 1.266 . S
C195 C194 1.514 . S
C195 C196 1.359 . S
C195 C200 1.348 . S
C196 C195 1.359 . S
C196 C197 1.380 . S
C196 H224 0.929 1_545 S
C197 C196 1.380 . S
C197 C198 1.347 . S
C197 H225 0.931 1_545 S
C198 C197 1.347 . S
C198 C199 1.369 . S
C199 C198 1.369 . S
C199 C200 1.408 . S
C199 H226 0.930 . S
C200 C195 1.348 . S
C200 C199 1.408 . S
C200 H227 0.930 . S
C201 O214 1.281 . S
C201 O215 1.254 . S
C202 O216 1.236 1_565 S
C202 O217 1.266 . S
C203 Tb193 2.809 . S
C203 C204 1.514 . S
C203 O218 1.280 . S
C203 O219 1.266 . S
C204 C203 1.514 . S
C204 C205 1.359 . S
C204 C209 1.348 . S
C205 C204 1.359 . S
C205 C206 1.380 . S
C205 H228 0.929 1_565 S
C206 C205 1.380 . S
C206 C207 1.347 . S
C206 H229 0.931 1_565 S
C207 C206 1.347 . S
C207 C208 1.369 . S
C208 C207 1.369 . S
C208 C209 1.408 . S
C208 H230 0.930 . S
C209 C204 1.348 . S
C209 C208 1.408 . S
C209 H231 0.930 . S
C210 O220 1.281 . S
C210 O221 1.254 . S
C211 O222 1.236 1_545 S
C211 O223 1.266 . S
O212 Tb192 2.484 1_554 S
O212 C194 1.248 . S
O213 Tb192 2.440 1_554 S
O213 C194 1.266 . S
O214 Tb192 2.658 . S
O214 Tb193 2.325 1_545 S
O214 C201 1.281 . S
O215 Tb192 2.409 . S
O215 C201 1.254 . S
O216 Tb192 2.378 . S
O216 C202 1.236 1_545 S
O217 Tb193 2.341 . S
O217 C202 1.266 . S
O218 Tb193 2.498 . S
O218 C203 1.280 . S
O219 Tb193 2.440 . S
O219 C203 1.266 . S
O220 Tb192 2.325 1_565 S
O220 Tb193 2.658 . S
O220 C210 1.281 . S
O221 Tb193 2.409 . S
O221 C210 1.254 . S
O222 Tb193 2.378 . S
O222 C211 1.236 1_565 S
O223 Tb192 2.341 . S
O223 C211 1.266 . S
H224 C196 0.929 1_565 S
H225 C197 0.931 1_565 S
H226 C199 0.930 . S
H227 C200 0.930 . S
H228 C205 0.929 1_545 S
H229 C206 0.931 1_545 S
H230 C208 0.930 . S
H231 C209 0.930 . S
Tb232 C234 2.809 1_556 S
Tb232 O252 2.484 1_556 S
Tb232 O253 2.440 1_556 S
Tb232 O254 2.658 . S
Tb232 O255 2.409 . S
Tb232 O256 2.378 . S
Tb232 O260 2.325 . S
Tb232 O263 2.341 . S
Tb233 C243 2.809 . S
Tb233 O254 2.325 . S
Tb233 O257 2.341 . S
Tb233 O258 2.484 . S
Tb233 O259 2.440 . S
Tb233 O260 2.658 . S
Tb233 O261 2.409 . S
Tb233 O262 2.378 . S
C234 Tb232 2.809 1_554 S
C234 C235 1.514 . S
C234 O252 1.248 . S
C234 O253 1.266 . S
C235 C234 1.514 . S
C235 C236 1.359 . S
C235 C240 1.348 . S
C236 C235 1.359 . S
C236 C237 1.380 . S
C236 H264 0.929 . S
C237 C236 1.380 . S
C237 C238 1.347 . S
C237 H265 0.931 . S
C238 C237 1.347 . S
C238 C239 1.369 . S
C239 C238 1.369 . S
C239 C240 1.408 . S
C239 H266 0.930 . S
C240 C235 1.348 . S
C240 C239 1.408 . S
C240 H267 0.930 . S
C241 O254 1.281 . S
C241 O255 1.254 . S
C242 O256 1.236 . S
C242 O257 1.266 . S
C243 Tb233 2.809 . S
C243 C244 1.514 . S
C243 O258 1.248 . S
C243 O259 1.266 . S
C244 C243 1.514 . S
C244 C245 1.359 . S
C244 C249 1.348 . S
C245 C244 1.359 . S
C245 C246 1.380 . S
C245 H268 0.929 . S
C246 C245 1.380 . S
C246 C247 1.347 . S
C246 H269 0.931 . S
C247 C246 1.347 . S
C247 C248 1.369 . S
C248 C247 1.369 . S
C248 C249 1.408 . S
C248 H270 0.930 . S
C249 C244 1.348 . S
C249 C248 1.408 . S
C249 H271 0.930 . S
C250 O260 1.281 . S
C250 O261 1.254 . S
C251 O262 1.236 . S
C251 O263 1.266 . S
O252 Tb232 2.484 1_554 S
O252 C234 1.248 . S
O253 Tb232 2.440 1_554 S
O253 C234 1.266 . S
O254 Tb232 2.658 . S
O254 Tb233 2.325 . S
O254 C241 1.281 . S
O255 Tb232 2.409 . S
O255 C241 1.254 . S
O256 Tb232 2.378 . S
O256 C242 1.236 . S
O257 Tb233 2.341 . S
O257 C242 1.266 . S
O258 Tb233 2.484 . S
O258 C243 1.248 . S
O259 Tb233 2.440 . S
O259 C243 1.266 . S
O260 Tb232 2.325 . S
O260 Tb233 2.658 . S
O260 C250 1.281 . S
O261 Tb233 2.409 . S
O261 C250 1.254 . S
O262 Tb233 2.378 . S
O262 C251 1.236 . S
O263 Tb232 2.341 . S
O263 C251 1.266 . S
H264 C236 0.929 . S
H265 C237 0.931 . S
H266 C239 0.930 . S
H267 C240 0.930 . S
H268 C245 0.929 . S
H269 C246 0.931 . S
H270 C248 0.930 . S
H271 C249 0.930 . S
Tb272 C274 2.809 1_556 S
Tb272 O292 2.484 1_556 S
Tb272 O293 2.440 1_556 S
Tb272 O294 2.658 1_655 S
Tb272 O295 2.409 . S
Tb272 O296 2.378 . S
Tb272 O300 2.325 . S
Tb272 O303 2.341 1_655 S
Tb273 C283 2.809 . S
Tb273 O294 2.325 . S
Tb273 O297 2.341 1_455 S
Tb273 O298 2.484 . S
Tb273 O299 2.440 . S
Tb273 O300 2.658 1_455 S
Tb273 O301 2.409 . S
Tb273 O302 2.378 . S
C274 Tb272 2.809 1_554 S
C274 C275 1.514 . S
C274 O292 1.248 . S
C274 O293 1.266 . S
C275 C274 1.514 . S
C275 C276 1.359 . S
C275 C280 1.348 . S
C276 C275 1.359 . S
C276 C277 1.380 . S
C276 H304 0.929 . S
C277 C276 1.380 . S
C277 C278 1.347 . S
C277 H305 0.931 . S
C278 C277 1.347 . S
C278 C279 1.369 . S
C279 C278 1.369 . S
C279 C280 1.408 . S
C279 H306 0.930 . S
C280 C275 1.348 . S
C280 C279 1.408 . S
C280 H307 0.930 . S
C281 O294 1.274 1_655 S
C281 O295 1.262 . S
C282 O296 1.236 . S
C282 O297 1.266 . S
C283 Tb273 2.809 . S
C283 C284 1.514 . S
C283 O298 1.248 . S
C283 O299 1.266 . S
C284 C283 1.514 . S
C284 C285 1.359 . S
C284 C289 1.348 . S
C285 C284 1.359 . S
C285 C286 1.380 . S
C285 H308 0.929 . S
C286 C285 1.380 . S
C286 C287 1.347 . S
C286 H309 0.931 . S
C287 C286 1.347 . S
C287 C288 1.369 . S
C288 C287 1.369 . S
C288 C289 1.408 . S
C288 H310 0.930 . S
C289 C284 1.348 . S
C289 C288 1.408 . S
C289 H311 0.930 . S
C290 O300 1.272 1_455 S
C290 O301 1.266 . S
C291 O302 1.236 . S
C291 O303 1.266 . S
O292 Tb272 2.484 1_554 S
O292 C274 1.248 . S
O293 Tb272 2.440 1_554 S
O293 C274 1.266 . S
O294 Tb272 2.658 1_455 S
O294 Tb273 2.325 . S
O294 C281 1.274 1_455 S
O295 Tb272 2.409 . S
O295 C281 1.262 . S
O296 Tb272 2.378 . S
O296 C282 1.236 . S
O297 Tb273 2.341 1_655 S
O297 C282 1.266 . S
O298 Tb273 2.484 . S
O298 C283 1.248 . S
O299 Tb273 2.440 . S
O299 C283 1.266 . S
O300 Tb272 2.325 . S
O300 Tb273 2.658 1_655 S
O300 C290 1.272 1_655 S
O301 Tb273 2.409 . S
O301 C290 1.266 . S
O302 Tb273 2.378 . S
O302 C291 1.236 . S
O303 Tb272 2.341 1_455 S
O303 C291 1.266 . S
H304 C276 0.929 . S
H305 C277 0.931 . S
H306 C279 0.930 . S
H307 C280 0.930 . S
H308 C285 0.929 . S
H309 C286 0.931 . S
H310 C288 0.930 . S
H311 C289 0.930 . S
C312 C313 1.385 . S
C312 H316 0.950 . S
C312 C321 1.390 . S
C313 C312 1.385 . S
C313 C315 1.390 1_565 S
H314 C321 0.950 . S
C315 C313 1.390 1_545 S
C315 C317 1.390 . S
C315 H319 0.950 . S
H316 C312 0.950 . S
C317 C315 1.390 . S
C317 C318 1.382 1_545 S
C317 H320 0.950 . S
C318 C317 1.382 1_565 S
C318 C321 1.393 . S
H319 C315 0.950 . S
H320 C317 0.950 . S
C321 C312 1.390 . S
C321 H314 0.950 . S
C321 C318 1.393 . S
C322 C323 1.387 . S
C322 H326 0.950 . S
C322 C331 1.390 . S
C323 C322 1.387 . S
C323 C325 1.387 . S
H324 C331 0.950 . S
C325 C323 1.387 . S
C325 C327 1.390 . S
C325 H329 0.950 . S
H326 C322 0.950 . S
C327 C325 1.390 . S
C327 C328 1.387 . S
C327 H330 0.950 . S
C328 C327 1.387 . S
C328 C331 1.387 . S
H329 C325 0.950 . S
H330 C327 0.950 . S
C331 C322 1.390 . S
C331 H324 0.950 . S
C331 C328 1.387 . S
C332 C333 1.387 . S
C332 H336 0.950 . S
C332 C341 1.390 . S
C333 C332 1.387 . S
C333 C335 1.387 . S
H334 C341 0.950 . S
C335 C333 1.387 . S
C335 C337 1.390 . S
C335 H339 0.950 . S
H336 C332 0.950 . S
C337 C335 1.390 . S
C337 C338 1.387 . S
C337 H340 0.950 . S
C338 C337 1.387 . S
C338 C341 1.387 . S
H339 C335 0.950 . S
H340 C337 0.950 . S
C341 C332 1.390 . S
C341 H334 0.950 . S
C341 C338 1.387 . S
C342 C343 1.378 1_655 S
C342 H346 0.950 . S
C342 C351 1.390 . S
C343 C342 1.378 1_455 S
C343 C345 1.398 . S
H344 C351 0.950 . S
C345 C343 1.398 . S
C345 C347 1.390 . S
C345 H349 0.950 . S
H346 C342 0.950 . S
C347 C345 1.390 . S
C347 C348 1.416 . S
C347 H350 0.950 . S
C348 C347 1.416 . S
C348 C351 1.359 1_455 S
H349 C345 0.950 . S
H350 C347 0.950 . S
C351 C342 1.390 . S
C351 H344 0.950 . S
C351 C348 1.359 1_655 S
C352 C353 1.383 1_565 S
C352 H356 0.950 . S
C352 C361 1.390 . S
C353 C352 1.383 1_545 S
C353 C355 1.392 . S
H354 C361 0.950 . S
C355 C353 1.392 . S
C355 C357 1.390 . S
C355 H359 0.950 . S
H356 C352 0.950 . S
C357 C355 1.390 . S
C357 C358 1.401 . S
C357 H360 0.950 . S
C358 C357 1.401 . S
C358 C361 1.374 1_545 S
H359 C355 0.950 . S
H360 C357 0.950 . S
C361 C352 1.390 . S
C361 H354 0.950 . S
C361 C358 1.374 1_565 S
C362 C363 1.387 . S
C362 H366 0.950 . S
C362 C371 1.390 . S
C363 C362 1.387 . S
C363 C365 1.387 . S
H364 C371 0.950 . S
C365 C363 1.387 . S
C365 C367 1.390 . S
C365 H369 0.950 . S
H366 C362 0.950 . S
C367 C365 1.390 . S
C367 C368 1.387 . S
C367 H370 0.950 . S
C368 C367 1.387 . S
C368 C371 1.387 . S
H369 C365 0.950 . S
H370 C367 0.950 . S
C371 C362 1.390 . S
C371 H364 0.950 . S
C371 C368 1.387 . S
C372 C373 1.387 . S
C372 H376 0.950 . S
C372 C381 1.390 . S
C373 C372 1.387 . S
C373 C375 1.387 . S
H374 C381 0.950 . S
C375 C373 1.387 . S
C375 C377 1.390 . S
C375 H379 0.950 . S
H376 C372 0.950 . S
C377 C375 1.390 . S
C377 C378 1.387 . S
C377 H380 0.950 . S
C378 C377 1.387 . S
C378 C381 1.387 . S
H379 C375 0.950 . S
H380 C377 0.950 . S
C381 C372 1.390 . S
C381 H374 0.950 . S
C381 C378 1.387 . S
C382 C383 1.378 1_455 S
C382 H386 0.950 . S
C382 C391 1.390 . S
C383 C382 1.378 1_655 S
C383 C385 1.397 . S
H384 C391 0.950 . S
C385 C383 1.397 . S
C385 C387 1.390 . S
C385 H389 0.950 . S
H386 C382 0.950 . S
C387 C385 1.390 . S
C387 C388 1.416 . S
C387 H390 0.950 . S
C388 C387 1.416 . S
C388 C391 1.358 1_655 S
H389 C385 0.950 . S
H390 C387 0.950 . S
C391 C382 1.390 . S
C391 H384 0.950 . S
C391 C388 1.358 1_455 S
C392 C393 1.398 . S
C392 H396 0.950 . S
C392 C401 1.390 . S
C393 C392 1.398 . S
C393 C395 1.383 1_655 S
H394 C401 0.950 . S
C395 C393 1.383 1_455 S
C395 C397 1.390 1_455 S
C395 H399 0.950 . S
H396 C392 0.950 . S
C397 C395 1.390 1_655 S
C397 C398 1.387 . S
C397 H400 0.938 1_655 S
C398 C397 1.387 . S
C398 C401 1.387 . S
H399 C395 0.950 . S
H400 C397 0.938 1_455 S
C401 C392 1.390 . S
C401 H394 0.950 . S
C401 C398 1.387 . S
C402 C403 1.397 . S
C402 H406 0.950 . S
C402 C411 1.390 . S
C403 C402 1.397 . S
C403 C405 1.384 1_565 S
H404 C411 0.950 . S
C405 C403 1.384 1_545 S
C405 C407 1.390 1_545 S
C405 H409 0.950 . S
H406 C402 0.950 . S
C407 C405 1.390 1_565 S
C407 C408 1.387 . S
C407 H410 0.950 . S
C408 C407 1.387 . S
C408 C411 1.387 . S
H409 C405 0.950 . S
H410 C407 0.950 . S
C411 C402 1.390 . S
C411 H404 0.950 . S
C411 C408 1.387 . S
C412 C413 1.387 . S
C412 H416 0.950 . S
C412 C421 1.390 . S
C413 C412 1.387 . S
C413 C415 1.387 . S
H414 C421 0.950 . S
C415 C413 1.387 . S
C415 C417 1.390 . S
C415 H419 0.950 1_554 S
H416 C412 0.950 . S
C417 C415 1.390 . S
C417 C418 1.387 . S
C417 H420 0.950 . S
C418 C417 1.387 . S
C418 C421 1.387 . S
H419 C415 0.950 1_556 S
H420 C417 0.950 . S
C421 C412 1.390 . S
C421 H414 0.950 . S
C421 C418 1.387 . S
C422 C423 1.387 . S
C422 H426 0.950 . S
C422 C431 1.390 . S
C423 C422 1.387 . S
C423 C425 1.387 . S
H424 C431 0.950 . S
C425 C423 1.387 . S
C425 C427 1.390 . S
C425 H429 0.950 . S
H426 C422 0.950 . S
C427 C425 1.390 . S
C427 C428 1.387 . S
C427 H430 0.950 . S
C428 C427 1.387 . S
C428 C431 1.387 . S
H429 C425 0.950 . S
H430 C427 0.950 . S
C431 C422 1.390 . S
C431 H424 0.950 . S
C431 C428 1.387 . S
C432 C433 1.396 . S
C432 H436 0.950 . S
C432 C441 1.390 . S
C433 C432 1.396 . S
C433 C435 1.389 . S
H434 C441 0.950 . S
C435 C433 1.389 . S
C435 C437 1.390 . S
C435 H439 0.950 1_455 S
H436 C432 0.950 . S
C437 C435 1.390 . S
C437 C438 1.387 . S
C437 H440 0.950 . S
C438 C437 1.387 . S
C438 C441 1.387 . S
H439 C435 0.950 1_655 S
H440 C437 0.950 . S
C441 C432 1.390 . S
C441 H434 0.950 . S
C441 C438 1.387 . S
C442 C443 1.407 . S
C442 H446 0.950 . S
C442 C451 1.390 . S
C443 C442 1.407 . S
C443 C445 1.381 1_545 S
H444 C451 0.950 . S
C445 C443 1.381 1_565 S
C445 C447 1.390 1_565 S
C445 H449 0.950 . S
H446 C442 0.950 . S
C447 C445 1.390 1_545 S
C447 C448 1.387 . S
C447 H450 0.950 . S
C448 C447 1.387 . S
C448 C451 1.387 . S
H449 C445 0.950 . S
H450 C447 0.950 . S
C451 C442 1.390 . S
C451 H444 0.950 . S
C451 C448 1.387 . S
C452 C453 1.387 . S
C452 H456 0.950 . S
C452 C461 1.390 . S
C453 C452 1.387 . S
C453 C455 1.387 . S
H454 C461 0.950 . S
C455 C453 1.387 . S
C455 C457 1.390 . S
C455 H459 0.950 . S
H456 C452 0.950 . S
C457 C455 1.390 . S
C457 C458 1.387 . S
C457 H460 0.950 . S
C458 C457 1.387 . S
C458 C461 1.387 . S
H459 C455 0.950 . S
H460 C457 0.950 . S
C461 C452 1.390 . S
C461 H454 0.950 . S
C461 C458 1.387 . S
C462 C463 1.387 . S
C462 H466 0.950 . S
C462 C471 1.390 . S
C463 C462 1.387 . S
C463 C465 1.387 . S
H464 C471 0.950 . S
C465 C463 1.387 . S
C465 C467 1.390 . S
C465 H469 0.950 . S
H466 C462 0.950 . S
C467 C465 1.390 . S
C467 C468 1.387 . S
C467 H470 0.950 . S
C468 C467 1.387 . S
C468 C471 1.387 . S
H469 C465 0.950 . S
H470 C467 0.950 . S
C471 C462 1.390 . S
C471 H464 0.950 . S
C471 C468 1.387 . S
C472 C473 1.387 . S
C472 H476 0.950 1_556 S
C472 C481 1.390 . S
C473 C472 1.387 . S
C473 C475 1.387 1_455 S
H474 C481 0.950 1_554 S
C475 C473 1.387 1_655 S
C475 C477 1.389 1_655 S
C475 H479 0.950 . S
H476 C472 0.950 1_554 S
C477 C475 1.389 1_455 S
C477 C478 1.393 . S
C477 H480 0.946 1_455 S
C478 C477 1.393 . S
C478 C481 1.387 . S
H479 C475 0.950 . S
H480 C477 0.946 1_655 S
C481 C472 1.390 . S
C481 H474 0.950 1_556 S
C481 C478 1.387 . S
C482 C483 1.387 1_565 S
C482 H486 0.950 . S
C482 C491 1.390 . S
C483 C482 1.387 1_545 S
C483 C485 1.387 . S
H484 C491 0.950 . S
C485 C483 1.387 . S
C485 C487 1.390 . S
C485 H489 0.950 . S
H486 C482 0.950 . S
C487 C485 1.390 . S
C487 C488 1.387 . S
C487 H490 0.950 . S
C488 C487 1.387 . S
C488 C491 1.387 1_545 S
H489 C485 0.950 . S
H490 C487 0.950 . S
C491 C482 1.390 . S
C491 H484 0.950 . S
C491 C488 1.387 1_565 S
C492 C493 1.387 . S
C492 H496 0.950 . S
C492 C501 1.390 . S
C493 C492 1.387 . S
C493 C495 1.387 . S
H494 C501 0.950 . S
C495 C493 1.387 . S
C495 C497 1.390 . S
C495 H499 0.950 . S
H496 C492 0.950 . S
C497 C495 1.390 . S
C497 C498 1.387 . S
C497 H500 0.950 . S
C498 C497 1.387 . S
C498 C501 1.387 . S
H499 C495 0.950 . S
H500 C497 0.950 . S
C501 C492 1.390 . S
C501 H494 0.950 . S
C501 C498 1.387 . S
C502 C503 1.387 . S
C502 H506 0.950 . S
C502 C511 1.390 . S
C503 C502 1.387 . S
C503 C505 1.387 . S
H504 C511 0.950 . S
C505 C503 1.387 . S
C505 C507 1.390 . S
C505 H509 0.950 1_556 S
H506 C502 0.950 . S
C507 C505 1.390 . S
C507 C508 1.387 . S
C507 H510 0.950 1_556 S
C508 C507 1.387 . S
C508 C511 1.387 . S
H509 C505 0.950 1_554 S
H510 C507 0.950 1_554 S
C511 C502 1.390 . S
C511 H504 0.950 . S
C511 C508 1.387 . S
C512 C513 1.387 . S
C512 H516 0.950 . S
C512 C521 1.390 . S
C513 C512 1.387 . S
C513 C515 1.387 1_655 S
H514 C521 0.950 . S
C515 C513 1.387 1_455 S
C515 C517 1.390 . S
C515 H519 0.950 . S
H516 C512 0.950 . S
C517 C515 1.390 . S
C517 C518 1.387 1_455 S
C517 H520 0.950 . S
C518 C517 1.387 1_655 S
C518 C521 1.387 . S
H519 C515 0.950 . S
H520 C517 0.950 . S
C521 C512 1.390 . S
C521 H514 0.950 . S
C521 C518 1.387 . S
C522 C523 1.387 . S
C522 H526 0.950 . S
C522 C531 1.390 . S
C523 C522 1.387 . S
C523 C525 1.387 1_565 S
H524 C531 0.950 . S
C525 C523 1.387 1_545 S
C525 C527 1.390 . S
C525 H529 0.950 . S
H526 C522 0.950 . S
C527 C525 1.390 . S
C527 C528 1.387 1_545 S
C527 H530 0.950 . S
C528 C527 1.387 1_565 S
C528 C531 1.387 . S
H529 C525 0.950 . S
H530 C527 0.950 . S
C531 C522 1.390 . S
C531 H524 0.950 . S
C531 C528 1.387 . S
C532 C533 1.387 . S
C532 H536 0.950 . S
C532 C541 1.390 . S
C533 C532 1.387 . S
C533 C535 1.387 . S
H534 C541 0.950 . S
C535 C533 1.387 . S
C535 C537 1.390 . S
C535 H539 0.950 . S
H536 C532 0.950 . S
C537 C535 1.390 . S
C537 C538 1.387 . S
C537 H540 0.950 . S
C538 C537 1.387 . S
C538 C541 1.387 . S
H539 C535 0.950 . S
H540 C537 0.950 . S
C541 C532 1.390 . S
C541 H534 0.950 . S
C541 C538 1.387 . S
C542 C543 1.387 . S
C542 H546 0.950 . S
C542 C551 1.390 . S
C543 C542 1.387 . S
C543 C545 1.387 . S
H544 C551 0.950 . S
C545 C543 1.387 . S
C545 C547 1.390 . S
C545 H549 0.950 . S
H546 C542 0.950 . S
C547 C545 1.390 . S
C547 C548 1.387 . S
C547 H550 0.950 . S
C548 C547 1.387 . S
C548 C551 1.387 . S
H549 C545 0.950 . S
H550 C547 0.950 . S
C551 C542 1.390 . S
C551 H544 0.950 . S
C551 C548 1.387 . S
C313 C125 2.096 . S
C318 C161 2.157 . S
C328 C201 2.178 . S
C323 C144 2.133 . S
C338 C241 2.189 . S
C333 C87 2.149 . S
C348 C281 2.169 1_455 S
C343 C106 2.108 1_455 S
C358 C170 2.160 1_554 S
C353 C49 2.101 1_545 S
C363 C68 2.097 . S
C368 C210 2.178 1_554 S
C373 C11 2.107 . S
C378 C250 2.188 1_554 S
C383 C30 2.109 . S
C388 C290 2.170 1_654 S
C398 C167 0.773 . S
C393 C97 0.772 . S
C408 C207 0.779 . S
C403 C116 0.779 . S
C418 C247 0.775 . S
C413 C135 0.772 . S
C423 C78 0.762 . S
C428 C287 0.762 . S
C433 C21 0.767 1_455 S
C438 C158 0.771 . S
C448 C198 0.774 . S
C443 C40 0.770 1_545 S
C458 C238 0.774 . S
C453 C59 0.770 . S
C463 C2 0.761 . S
C468 C278 0.768 . S
C473 C101 2.256 1_455 S
C478 C171 2.554 . S
C483 C120 2.212 1_545 S
C488 C211 2.517 . S
C498 C251 2.502 . S
C493 C139 2.200 . S
C508 C291 2.544 . S
C503 C82 2.240 . S
C513 C25 2.254 . S
C518 C162 2.564 . S
C528 C202 2.517 . S
C523 C44 2.212 . S
C538 C242 2.502 . S
C533 C63 2.198 . S
C543 C6 2.240 . S
C548 C282 2.548 . S
