# Generated by pormake.
# Topology anh, (6,3)-cn, num edge types: 1
# Building blocks:
#     Node 0, Type 0, BuildingBlock: NUHQIS_clean_sbu_0, # of connection points: 6
#     Node 1, Type 0, BuildingBlock: NUHQIS_clean_sbu_0, # of connection points: 6
#     Node 2, Type 0, BuildingBlock: NUHQIS_clean_sbu_0, # of connection points: 6
#     Node 3, Type 1, BuildingBlock: CUQRIR_clean_linker_1, # of connection points: 3
#     Node 4, Type 1, BuildingBlock: CUQRIR_clean_linker_1, # of connection points: 3
#     Node 5, Type 1, BuildingBlock: CUQRIR_clean_linker_1, # of connection points: 3
#     Node 6, Type 1, BuildingBlock: CUQRIR_clean_linker_1, # of connection points: 3
#     Node 7, Type 1, BuildingBlock: CUQRIR_clean_linker_1, # of connection points: 3
#     Node 8, Type 1, BuildingBlock: CUQRIR_clean_linker_1, # of connection points: 3
#     Edge 9, Type (0, 1), BuildingBlock: XUDNAN_clean_linker_2, # of connection points: 2
#     Edge 10, Type (0, 1), BuildingBlock: XUDNAN_clean_linker_2, # of connection points: 2
#     Edge 11, Type (0, 1), BuildingBlock: XUDNAN_clean_linker_2, # of connection points: 2
#     Edge 12, Type (0, 1), BuildingBlock: XUDNAN_clean_linker_2, # of connection points: 2
#     Edge 13, Type (0, 1), BuildingBlock: XUDNAN_clean_linker_2, # of connection points: 2
#     Edge 14, Type (0, 1), BuildingBlock: XUDNAN_clean_linker_2, # of connection points: 2
#     Edge 15, Type (0, 1), BuildingBlock: XUDNAN_clean_linker_2, # of connection points: 2
#     Edge 16, Type (0, 1), BuildingBlock: XUDNAN_clean_linker_2, # of connection points: 2
#     Edge 17, Type (0, 1), BuildingBlock: XUDNAN_clean_linker_2, # of connection points: 2
#     Edge 18, Type (0, 1), BuildingBlock: XUDNAN_clean_linker_2, # of connection points: 2
#     Edge 19, Type (0, 1), BuildingBlock: XUDNAN_clean_linker_2, # of connection points: 2
#     Edge 20, Type (0, 1), BuildingBlock: XUDNAN_clean_linker_2, # of connection points: 2
#     Edge 21, Type (0, 1), BuildingBlock: XUDNAN_clean_linker_2, # of connection points: 2
#     Edge 22, Type (0, 1), BuildingBlock: XUDNAN_clean_linker_2, # of connection points: 2
#     Edge 23, Type (0, 1), BuildingBlock: XUDNAN_clean_linker_2, # of connection points: 2
#     Edge 24, Type (0, 1), BuildingBlock: XUDNAN_clean_linker_2, # of connection points: 2
#     Edge 25, Type (0, 1), BuildingBlock: XUDNAN_clean_linker_2, # of connection points: 2
#     Edge 26, Type (0, 1), BuildingBlock: XUDNAN_clean_linker_2, # of connection points: 2
# Relax obj value: 0.301
# Max RMSD: 0.224
# Mean RMSD: 0.160
data_MOF--net-anh--node1-NUHQIS_clean_sbu_0--node2-CUQRIR_clean_linker_1--edge1-XUDNAN_clean_linker_2
_symmetry_space_group_name_H-M    P1
_symmetry_Int_Tables_number       1
_symmetry_cell_setting            triclinic
loop_
_symmetry_equiv_pos_as_xyz
'x, y, z'
_cell_length_a     28.738655
_cell_length_b     28.900295
_cell_length_c     47.069666
_cell_angle_alpha  87.11623
_cell_angle_beta   92.341488
_cell_angle_gamma 120.06266
loop_
_atom_site_label
_atom_site_type_symbol
_atom_site_fract_x
_atom_site_fract_y
_atom_site_fract_z
_atom_type_partial_charge
Tb0 Tb 0.14766 0.49702 0.1703 0.0
Eu1 Eu 1.08314 0.55738 0.15737 0.0
C2 C 1.11129 0.54147 0.21926 0.0
C3 C 1.014 0.42327 0.17033 0.0
C4 C 0.25224 0.47551 0.20305 0.0
C5 C 0.31894 0.5475 0.23169 0.0
C6 C 0.2666 0.51849 0.2208 0.0
C7 C 0.28954 0.45921 0.19824 0.0
C8 C 0.34202 0.48828 0.20914 0.0
C9 C 0.35783 0.53425 0.22481 0.0
C10 C 0.20197 0.45362 0.18624 0.0
O11 O 0.13297 0.4887 0.12382 0.0
O12 O 0.11849 0.55873 0.11516 0.0
O13 O 0.17106 0.62808 0.16792 0.0
O14 O 0.216 0.58216 0.1641 0.0
C15 C 0.12928 0.52329 0.10583 0.0
O16 O 1.06777 0.62264 0.16475 0.0
O17 O 1.02019 0.56321 0.13336 0.0
O18 O 1.07047 0.53335 0.20303 0.0
O19 O 0.15153 0.53929 0.20863 0.0
O20 O 1.06231 0.42726 0.17312 0.0
O21 O 1.01231 0.46785 0.16361 0.0
C22 C 0.21783 0.62877 0.16708 0.0
O23 O 0.15995 0.44673 0.19957 0.0
O24 O 0.20627 0.477 0.16128 0.0
C25 C 1.03457 0.65092 0.12436 0.0
C26 C 1.0145 0.72009 0.08857 0.0
C27 C 1.0179 0.678 0.07708 0.0
C28 C 1.02804 0.6437 0.09482 0.0
C29 C 1.03661 0.69612 0.13534 0.0
C30 C 1.02699 0.73067 0.11755 0.0
C31 C 1.03173 0.60853 0.14423 0.0
H32 H 0.33004 0.58267 0.24373 0.0
H33 H 0.23846 0.53188 0.22475 0.0
H34 H 0.27921 0.42636 0.18446 0.0
H35 H 0.37128 0.47753 0.20313 0.0
H36 H 1.00839 0.66907 0.0548 0.0
H37 H 1.02701 0.60957 0.08564 0.0
H38 H 1.04174 0.70259 0.158 0.0
H39 H 1.02398 0.76242 0.12707 0.0
Tb40 Tb 0.72287 0.09134 0.50115 0.0
Eu41 Eu 0.59563 1.02946 0.495 0.0
C42 C 0.6566 1.06381 0.55503 0.0
C43 C 0.66092 0.95843 0.50541 0.0
C44 C 0.85419 0.20041 0.48594 0.0
C45 C 0.93352 0.28755 0.47821 0.0
C46 C 0.90753 0.23788 0.49299 0.0
C47 C 0.82748 0.2127 0.46387 0.0
C48 C 0.85322 0.26167 0.44912 0.0
C49 C 0.90632 0.29991 0.45622 0.0
C50 C 0.82359 0.15028 0.5026 0.0
O51 O 0.7103 0.08949 0.45474 0.0
O52 O 0.61892 1.04297 0.44864 0.0
O53 O 0.61248 0.11691 0.49594 0.0
O54 O 0.70342 0.15973 0.50414 0.0
C55 C 0.66731 1.06873 0.43806 0.0
O56 O 0.52012 0.96863 0.514 0.0
O57 O 0.51954 1.00777 0.47341 0.0
O58 O 0.6168 1.06098 0.53925 0.0
O59 O 0.69603 1.06149 0.54373 0.0
O60 O 0.70711 1.00518 0.50742 0.0
O61 O 0.61609 0.96037 0.49967 0.0
C62 C 0.65787 0.16213 0.5012 0.0
O63 O 0.79204 0.15162 0.52122 0.0
O64 O 0.79853 0.10747 0.48763 0.0
C65 C 0.44342 0.97645 0.50223 0.0
C66 C 0.34538 0.9743 0.50887 0.0
C67 C 0.34811 0.92684 0.51118 0.0
C68 C 0.39659 0.92805 0.50797 0.0
C69 C 0.44225 1.0245 0.50189 0.0
C70 C 0.39348 1.02343 0.50525 0.0
C71 C 0.4909 0.97448 0.49378 0.0
H72 H 0.97447 0.31642 0.48416 0.0
H73 H 0.9285 0.22928 0.51023 0.0
H74 H 0.78591 0.18505 0.45855 0.0
H75 H 0.83057 0.27035 0.43289 0.0
H76 H 0.31225 0.88795 0.51324 0.0
H77 H 0.39683 0.89064 0.50828 0.0
H78 H 0.47839 1.06245 0.49771 0.0
H79 H 0.393 1.0607 0.50361 0.0
Tb80 Tb 0.64573 0.66345 0.83053 0.0
Eu81 Eu 0.58161 0.53704 0.83284 0.0
C82 C 0.62093 0.60415 0.88918 0.0
C83 C 0.71688 0.60107 0.83827 0.0
C84 C 0.7448 0.80252 0.80942 0.0
C85 C 0.81974 0.89261 0.80331 0.0
C86 C 0.78298 0.85112 0.82099 0.0
C87 C 0.74753 0.79377 0.78059 0.0
C88 C 0.78394 0.83534 0.76286 0.0
C89 C 0.81815 0.88602 0.77382 0.0
C90 C 0.69924 0.7638 0.8267 0.0
O91 O 0.65381 0.64377 0.78767 0.0
O92 O 0.58368 0.55865 0.78495 0.0
O93 O 0.51244 0.55659 0.8396 0.0
O94 O 0.55968 0.64692 0.83102 0.0
C95 C 0.62169 0.60254 0.77244 0.0
O96 O 0.56204 0.45911 0.81758 0.0
O97 O 0.51862 0.46373 0.85281 0.0
O98 O 0.6157 0.56182 0.87722 0.0
O99 O 0.62057 0.64282 0.87389 0.0
O100 O 0.71368 0.64567 0.83799 0.0
O101 O 0.67127 0.55448 0.83557 0.0
C102 C 0.51291 0.60289 0.83714 0.0
O103 O 0.65427 0.73488 0.81274 0.0
O104 O 0.7091 0.73564 0.84594 0.0
C105 C 0.53813 0.39395 0.85434 0.0
C106 C 0.57156 0.32467 0.87912 0.0
C107 C 0.53115 0.30683 0.85775 0.0
C108 C 0.51467 0.34135 0.84541 0.0
C109 C 0.57517 0.41057 0.87722 0.0
C110 C 0.59153 0.37604 0.88965 0.0
C111 C 0.5283 0.43275 0.83795 0.0
H112 H 0.84523 0.93149 0.81226 0.0
H113 H 0.78182 0.85832 0.84325 0.0
H114 H 0.71879 0.75625 0.7713 0.0
H115 H 0.78179 0.82946 0.74018 0.0
H116 H 0.51555 0.26784 0.84883 0.0
H117 H 0.48602 0.328 0.82777 0.0
H118 H 0.59364 0.45116 0.88443 0.0
H119 H 0.62256 0.39077 0.90611 0.0
C120 C 0.61704 1.02832 0.18589 0.0
N121 N 0.65355 1.06741 0.2042 0.0
N122 N 0.57225 0.98657 0.19948 0.0
C123 C 0.62468 1.03148 0.15443 0.0
C124 C 0.58461 1.00152 0.22704 0.0
N125 N 0.63174 1.04958 0.22997 0.0
C126 C 0.55463 0.96439 0.25182 0.0
H127 H 0.58523 1.01128 0.14305 0.0
H128 H 0.64727 1.01103 0.14967 0.0
H129 H 0.64817 1.07379 0.14669 0.0
H130 H 0.53475 0.92189 0.24598 0.0
H131 H 0.52334 0.97307 0.2586 0.0
H132 H 0.58201 0.96941 0.27018 0.0
C133 C 0.65997 0.56072 0.52247 0.0
N134 N 0.66141 0.59843 0.5406 0.0
N135 N 0.66368 0.51874 0.5365 0.0
C136 C 0.65435 0.56455 0.49082 0.0
C137 C 0.66524 0.53204 0.56411 0.0
N138 N 0.66295 0.57813 0.56669 0.0
C139 C 0.66542 0.49757 0.58921 0.0
H140 H 0.61099 0.54553 0.48499 0.0
H141 H 0.6717 0.54329 0.48026 0.0
H142 H 0.67428 0.60705 0.48325 0.0
H143 H 0.68729 0.47644 0.58474 0.0
H144 H 0.6233 0.467 0.59417 0.0
H145 H 0.68428 0.52171 0.60828 0.0
C146 C 1.11538 0.59659 0.85661 0.0
N147 N 0.14931 0.58484 0.87377 0.0
N148 N 1.06685 0.58292 0.86923 0.0
C149 C 0.12924 0.62131 0.82723 0.0
C150 C 1.07367 0.56358 0.89509 0.0
N151 N 0.12238 0.56543 0.89816 0.0
C152 C 1.03383 0.54668 0.91871 0.0
H153 H 0.15199 0.66548 0.82866 0.0
H154 H 1.09216 0.61008 0.81429 0.0
H155 H 0.15471 0.60867 0.81668 0.0
H156 H 0.99201 0.52478 0.91033 0.0
H157 H 1.03949 0.5829 0.92902 0.0
H158 H 1.03917 0.52057 0.93502 0.0
C159 C 1.02889 0.70657 0.42092 0.0
N160 N 1.03411 0.67385 0.40339 0.0
N161 N 1.06538 0.75855 0.41473 0.0
C162 C 0.98709 0.6878 0.4435 0.0
C163 C 1.09309 0.75585 0.39273 0.0
N164 N 1.0738 0.70453 0.38587 0.0
C165 C 0.14299 0.80241 0.38026 0.0
H166 H 0.97837 0.71988 0.44829 0.0
H167 H 1.00191 0.67648 0.46326 0.0
H168 H 0.94953 0.6519 0.43654 0.0
H169 H 0.17003 0.82777 0.39743 0.0
H170 H 0.13141 0.8272 0.36629 0.0
H171 H 0.16532 0.78904 0.36743 0.0
C172 C 0.79958 0.19344 0.78752 0.0
N173 N 0.79658 0.18287 0.75956 0.0
N174 N 0.76784 0.21392 0.7929 0.0
C175 C 0.8273 0.17676 0.81017 0.0
C176 C 0.74492 0.2149 0.7674 0.0
N177 N 0.76142 0.19502 0.74712 0.0
C178 C 0.70409 0.23278 0.76297 0.0
H179 H 0.81664 0.18105 0.83188 0.0
H180 H 0.87145 0.20213 0.80794 0.0
H181 H 0.81655 0.1346 0.80741 0.0
H182 H 0.71546 0.26814 0.77588 0.0
H183 H 0.66437 0.20029 0.77035 0.0
H184 H 0.70067 0.24299 0.74023 0.0
C185 C 0.71191 0.76833 0.12006 0.0
N186 N 0.71659 0.75851 0.09277 0.0
N187 N 0.65956 0.7441 0.12729 0.0
C188 C 0.75838 0.79553 0.14073 0.0
C189 C 0.63257 0.71868 0.10351 0.0
N190 N 0.66713 0.72675 0.08268 0.0
C191 C 0.57258 0.682 0.10169 0.0
H192 H 0.78344 0.77622 0.14089 0.0
H193 H 0.74475 0.79433 0.1626 0.0
H194 H 0.78397 0.83801 0.13382 0.0
H195 H 0.55162 0.70069 0.11121 0.0
H196 H 0.56176 0.64429 0.114 0.0
H197 H 0.55818 0.67265 0.07936 0.0
H198 H 0.40536 0.63928 0.21052 0.0
H199 H 0.44024 0.51717 0.24336 0.0
H200 H 0.53652 0.57768 0.23383 0.0
H201 H 0.47388 0.66514 0.15307 0.0
H202 H 0.49603 0.73562 0.1498 0.0
H203 H 0.43686 0.69145 0.16937 0.0
H204 H 0.47957 0.75293 0.21253 0.0
H205 H 0.54059 0.7949 0.19332 0.0
H206 H 0.54329 0.76429 0.22718 0.0
H207 H 0.61855 0.63552 0.20748 0.0
H208 H 0.67637 0.68307 0.16642 0.0
H209 H 0.59063 0.76875 0.14931 0.0
C210 C 0.43384 0.62666 0.21736 0.0
C211 C 0.4157 0.574 0.228 0.0
C212 C 0.45356 0.55766 0.23546 0.0
C213 C 0.50837 0.59198 0.23023 0.0
C214 C 0.52456 0.64241 0.21755 0.0
C215 C 0.48828 0.65998 0.21152 0.0
C216 C 0.51208 0.70925 0.19187 0.0
C217 C 0.47775 0.69979 0.1644 0.0
C218 C 0.51932 0.75824 0.20716 0.0
C219 C 0.56571 0.71426 0.18592 0.0
C220 C 0.57303 0.6765 0.2017 0.0
C221 C 0.61441 0.66659 0.19589 0.0
C222 C 0.64714 0.69372 0.17259 0.0
C223 C 0.63806 0.72997 0.15538 0.0
C224 C 0.59891 0.74237 0.16298 0.0
H225 H 0.96416 0.39734 0.48082 0.0
H226 H 0.90159 0.32355 0.39953 0.0
H227 H 0.92691 0.41191 0.37719 0.0
H228 H 0.92013 0.48947 0.47477 0.0
H229 H 0.97886 0.54385 0.49084 0.0
H230 H 0.96048 0.47576 0.50035 0.0
H231 H 1.05445 0.4937 0.48608 0.0
H232 H 1.0737 0.56231 0.47728 0.0
H233 H 1.07929 0.52188 0.45118 0.0
H234 H 0.94993 0.50625 0.36492 0.0
H235 H 0.98087 0.60323 0.36221 0.0
H236 H 1.03376 0.61621 0.45037 0.0
C237 C 0.95731 0.39997 0.45816 0.0
C238 C 0.93064 0.35359 0.44194 0.0
C239 C 0.92142 0.35858 0.41241 0.0
C240 C 0.93567 0.40853 0.39953 0.0
C241 C 0.95975 0.45313 0.41639 0.0
C242 C 0.97163 0.44959 0.44491 0.0
C243 C 0.99673 0.50359 0.45834 0.0
C244 C 0.96196 0.5031 0.4825 0.0
C245 C 1.05448 0.52143 0.46883 0.0
C246 C 0.99609 0.53773 0.43307 0.0
C247 C 0.97434 0.50783 0.40911 0.0
C248 C 0.96778 0.53026 0.38342 0.0
C249 C 0.98524 0.58509 0.38206 0.0
C250 C 1.00943 0.61665 0.40607 0.0
C251 C 1.01444 0.59255 0.43191 0.0
H252 H 0.75832 0.90746 0.73689 0.0
H253 H 0.91986 0.97402 0.77153 0.0
H254 H 0.93949 1.06424 0.75484 0.0
H255 H 0.78397 1.02012 0.67914 0.0
H256 H 0.72172 1.01605 0.68852 0.0
H257 H 0.72717 0.95647 0.68925 0.0
H258 H 0.69688 0.93594 0.74139 0.0
H259 H 0.69086 0.99446 0.7412 0.0
H260 H 0.7334 0.98577 0.76761 0.0
H261 H 0.933 0.14573 0.74931 0.0
H262 H 0.90037 0.20802 0.75863 0.0
H263 H 0.7389 0.08724 0.73554 0.0
C264 C 0.79895 0.9407 0.73904 0.0
C265 C 0.83798 0.93405 0.75484 0.0
C266 C 0.88994 0.97844 0.75884 0.0
C267 C 0.90126 1.02979 0.74938 0.0
C268 C 0.85993 1.03591 0.73642 0.0
C269 C 0.80962 0.99215 0.73108 0.0
C270 C 0.76784 1.00876 0.72485 0.0
C271 C 0.74909 0.99987 0.69357 0.0
C272 C 0.71956 0.97957 0.74499 0.0
C273 C 0.80098 1.06767 0.73057 0.0
C274 C 0.85463 0.0833 0.73543 0.0
C275 C 0.89146 0.13426 0.74477 0.0
C276 C 0.87263 0.16915 0.75032 0.0
C277 C 0.81733 0.15224 0.74749 0.0
C278 C 0.7816 0.10166 0.73669 0.0
H279 H 0.91738 0.6646 0.06371 0.0
H280 H 1.04168 0.82582 0.08211 0.0
H281 H 0.97733 0.85775 0.07153 0.0
H282 H 0.82943 0.70043 0.01142 0.0
H283 H 0.76975 0.64633 0.02731 0.0
H284 H 0.82847 0.63983 0.02365 0.0
H285 H 0.82754 0.61753 0.0777 0.0
H286 H 0.76967 0.62431 0.08161 0.0
H287 H 0.82957 0.66398 0.10262 0.0
H288 H 0.89616 0.86778 0.07156 0.0
H289 H 0.80731 0.85407 0.08461 0.0
H290 H 0.73692 0.68415 0.07392 0.0
C291 C 0.93187 0.70716 0.06358 0.0
C292 C 0.98454 0.743 0.07308 0.0
C293 C 1.00165 0.79803 0.0743 0.0
C294 C 0.96531 0.81642 0.06825 0.0
C295 C 0.91212 0.77917 0.06119 0.0
C296 C 0.89559 0.72551 0.05857 0.0
C297 C 0.83489 0.69144 0.05783 0.0
C298 C 0.81445 0.66814 0.02829 0.0
C299 C 0.81431 0.64681 0.08135 0.0
C300 C 0.81998 0.73334 0.06328 0.0
C301 C 0.86462 0.78409 0.06355 0.0
C302 C 0.86089 0.82836 0.07078 0.0
C303 C 0.81062 0.82024 0.07851 0.0
C304 C 0.76547 0.76811 0.08 0.0
C305 C 0.77024 0.72456 0.07178 0.0
H306 H 0.2517 0.90376 0.53513 0.0
H307 H 0.31755 1.03363 0.472 0.0
H308 H 0.22803 1.00118 0.45075 0.0
H309 H 0.2003 0.81554 0.49137 0.0
H310 H 0.13915 0.76693 0.50872 0.0
H311 H 0.1946 0.81372 0.52951 0.0
H312 H 0.13463 0.84604 0.55081 0.0
H313 H 1.07825 0.79845 0.52993 0.0
H314 H 1.09774 0.86828 0.52759 0.0
H315 H 0.14672 0.93997 0.42498 0.0
H316 H 1.08959 0.85907 0.39776 0.0
H317 H 1.08233 0.76026 0.47126 0.0
C318 C 0.2465 0.92654 0.5176 0.0
C319 C 0.29178 0.97027 0.50487 0.0
C320 C 0.28372 1.00004 0.48238 0.0
C321 C 0.23252 0.98158 0.47001 0.0
C322 C 0.1899 0.93315 0.48016 0.0
C323 C 0.19626 0.90627 0.50394 0.0
C324 C 0.15117 0.84852 0.50564 0.0
C325 C 0.17266 0.80898 0.50892 0.0
C326 C 1.11319 0.83984 0.52993 0.0
C327 C 0.12374 0.84505 0.47705 0.0
C328 C 0.14371 0.89504 0.46373 0.0
C329 C 0.12994 0.90091 0.43551 0.0
C330 C 1.09802 0.85481 0.42006 0.0
C331 C 1.08218 0.80367 0.43247 0.0
C332 C 1.09264 0.79886 0.46165 0.0
H333 H 0.67894 0.36654 0.87986 0.0
H334 H 0.52988 0.21627 0.88886 0.0
H335 H 0.57817 0.16755 0.88133 0.0
H336 H 0.71298 0.33879 0.82288 0.0
H337 H 0.78477 0.3725 0.82869 0.0
H338 H 0.74518 0.39327 0.84684 0.0
H339 H 0.7821 0.37734 0.89621 0.0
H340 H 0.82326 0.35929 0.8768 0.0
H341 H 0.77867 0.31408 0.90379 0.0
H342 H 0.63254 0.13793 0.85756 0.0
H343 H 0.68611 0.13116 0.81987 0.0
H344 H 0.79936 0.3 0.82372 0.0
C345 C 0.65718 0.32334 0.88214 0.0
C346 C 0.60089 0.29515 0.88512 0.0
C347 C 0.57317 0.2386 0.88676 0.0
C348 C 0.60045 0.21065 0.88264 0.0
C349 C 0.6554 0.23986 0.87704 0.0
C350 C 0.68369 0.2952 0.87727 0.0
C351 C 0.73826 0.318 0.86395 0.0
C352 C 0.74567 0.35793 0.83912 0.0
C353 C 0.78328 0.34371 0.88651 0.0
C354 C 0.73426 0.26759 0.85352 0.0
C355 C 0.68723 0.22258 0.86241 0.0
C356 C 0.67034 0.1725 0.85144 0.0
C357 C 0.70077 0.16888 0.83007 0.0
C358 C 0.74692 0.21507 0.81974 0.0
C359 C 0.76513 0.26429 0.83235 0.0
H360 H 0.7344 0.91961 0.52852 0.0
H361 H 0.57531 0.86033 0.49076 0.0
H362 H 0.55986 0.76861 0.49509 0.0
H363 H 0.76324 0.82176 0.49627 0.0
H364 H 0.79673 0.81231 0.52734 0.0
H365 H 0.79719 0.87464 0.52113 0.0
H366 H 0.7569 0.86407 0.57055 0.0
H367 H 0.75615 0.8016 0.57685 0.0
H368 H 0.69507 0.80403 0.57965 0.0
H369 H 0.55975 0.67646 0.50297 0.0
H370 H 0.57489 0.6004 0.51485 0.0
H371 H 0.73263 0.711 0.54886 0.0
C372 C 0.69621 0.88766 0.52094 0.0
C373 C 0.65634 0.90066 0.50887 0.0
C374 C 0.60739 0.85481 0.49997 0.0
C375 C 0.59796 0.80115 0.50238 0.0
C376 C 0.63721 0.79003 0.5142 0.0
C377 C 0.6856 0.83225 0.52353 0.0
C378 C 0.7204 0.80808 0.53595 0.0
C379 C 0.77252 0.83056 0.51919 0.0
C380 C 0.73292 0.82021 0.56763 0.0
C381 C 0.68458 0.74651 0.53207 0.0
C382 C 0.63665 0.73732 0.51929 0.0
C383 C 0.59735 0.68423 0.5131 0.0
C384 C 0.60638 0.6403 0.51997 0.0
C385 C 0.65449 0.64678 0.5335 0.0
C386 C 0.69433 0.70213 0.53936 0.0
H387 H 0.75183 0.52091 0.84503 0.0
H388 H 0.8174 0.69261 0.83956 0.0
H389 H 0.90897 0.70602 0.84469 0.0
H390 H 0.84955 0.52081 0.89778 0.0
H391 H 0.85526 0.46835 0.88209 0.0
H392 H 0.79408 0.47123 0.87734 0.0
H393 H 0.80246 0.47447 0.82173 0.0
H394 H 0.8614 0.46783 0.82792 0.0
H395 H 0.86526 0.52264 0.80612 0.0
H396 H 1.00032 0.70201 0.85016 0.0
H397 H 1.07339 0.68034 0.85813 0.0
H398 H 0.95438 0.51183 0.86191 0.0
C399 C 0.78519 0.56156 0.84485 0.0
C400 C 0.77443 0.60564 0.84167 0.0
C401 C 0.82163 0.65743 0.84182 0.0
C402 C 0.87506 0.66567 0.84475 0.0
C403 C 0.884 0.62205 0.8478 0.0
C404 C 0.84 0.57075 0.84796 0.0
C405 C 0.8613 0.53086 0.85178 0.0
C406 C 0.83862 0.49564 0.87884 0.0
C407 C 0.84667 0.49679 0.82537 0.0
C408 C 0.92332 0.56711 0.85448 0.0
C409 C 0.93557 0.61984 0.85157 0.0
C410 C 0.99012 0.66056 0.8525 0.0
C411 C 1.03225 0.64781 0.85687 0.0
C412 C 1.02197 0.5943 0.86073 0.0
C413 C 0.9655 0.55349 0.85922 0.0
H414 H 0.2577 0.7289 0.19727 0.0
H415 H 0.31111 0.65416 0.13921 0.0
H416 H 0.40117 0.73507 0.1387 0.0
H417 H 0.33993 0.86791 0.16885 0.0
H418 H 0.35606 0.89802 0.20312 0.0
H419 H 0.29445 0.83569 0.19795 0.0
H420 H 0.32092 0.79177 0.23973 0.0
H421 H 0.38259 0.85399 0.24501 0.0
H422 H 0.38464 0.79383 0.23936 0.0
H423 H 0.49369 0.82753 0.14682 0.0
H424 H 0.56948 0.91541 0.16095 0.0
H425 H 0.46216 0.93462 0.21487 0.0
C426 C 0.28815 0.72912 0.18439 0.0
C427 C 0.2745 0.68254 0.16799 0.0
C428 C 0.31796 0.68709 0.15208 0.0
C429 C 0.37045 0.73372 0.15182 0.0
C430 C 0.38269 0.7777 0.16846 0.0
C431 C 0.3424 0.77566 0.18458 0.0
C432 C 0.36681 0.82848 0.20094 0.0
C433 C 0.33755 0.85935 0.19221 0.0
C434 C 0.36351 0.81629 0.23318 0.0
C435 C 0.42646 0.86037 0.19159 0.0
C436 C 0.4347 0.83017 0.17272 0.0
C437 C 0.48655 0.85092 0.16145 0.0
C438 C 0.53024 0.90216 0.16952 0.0
C439 C 0.52434 0.93497 0.18907 0.0
C440 C 0.47023 0.91239 0.19993 0.0
H441 H 0.73123 0.26906 0.52532 0.0
H442 H 0.57621 0.18107 0.48262 0.0
H443 H 0.5634 0.25878 0.48515 0.0
H444 H 0.68918 0.33803 0.57376 0.0
H445 H 0.75176 0.40063 0.57278 0.0
H446 H 0.75096 0.33901 0.567 0.0
H447 H 0.79774 0.37764 0.51902 0.0
H448 H 0.79865 0.43935 0.52468 0.0
H449 H 0.76815 0.40322 0.49277 0.0
H450 H 0.56576 0.35149 0.49204 0.0
H451 H 0.5814 0.44046 0.50496 0.0
H452 H 0.73318 0.47427 0.54479 0.0
C453 C 0.69457 0.26581 0.51621 0.0
C454 C 0.65501 0.21592 0.50332 0.0
C455 C 0.60797 0.21643 0.4925 0.0
C456 C 0.6001 0.2615 0.49384 0.0
C457 C 0.63905 0.309 0.5065 0.0
C458 C 0.68552 0.31139 0.51773 0.0
C459 C 0.72016 0.36739 0.53096 0.0
C460 C 0.72855 0.36088 0.56303 0.0
C461 C 0.77442 0.39876 0.51598 0.0
C462 C 0.68637 0.39578 0.52549 0.0
C463 C 0.63972 0.36114 0.51106 0.0
C464 C 0.60239 0.37814 0.50341 0.0
C465 C 0.61184 0.42992 0.51075 0.0
C466 C 0.65844 0.46705 0.5262 0.0
C467 C 0.69644 0.44846 0.53327 0.0
H468 H 0.40361 0.52526 0.85662 0.0
H469 H 0.49889 0.69088 0.8277 0.0
H470 H 0.42105 0.70328 0.83382 0.0
H471 H 0.27434 0.50152 0.82368 0.0
H472 H 0.23335 0.46035 0.85282 0.0
H473 H 0.29607 0.4632 0.84608 0.0
H474 H 0.3278 0.49128 0.89758 0.0
H475 H 0.26524 0.48872 0.90443 0.0
H476 H 0.3282 0.54911 0.91058 0.0
H477 H 0.32803 0.69905 0.84308 0.0
H478 H 0.23628 0.67875 0.85457 0.0
H479 H 0.19478 0.51611 0.87849 0.0
C480 C 0.4085 0.56431 0.8514 0.0
C481 C 0.46023 0.60704 0.84124 0.0
C482 C 0.46194 0.65684 0.83528 0.0
C483 C 0.41692 0.66444 0.83879 0.0
C484 C 0.36751 0.62223 0.84869 0.0
C485 C 0.36302 0.57287 0.85502 0.0
C486 C 0.30489 0.53439 0.86566 0.0
C487 C 0.27541 0.48702 0.84589 0.0
C488 C 0.30664 0.51467 0.89638 0.0
C489 C 0.2775 0.56931 0.86428 0.0
C490 C 0.31476 0.62001 0.8543 0.0
C491 C 0.29929 0.65923 0.85086 0.0
C492 C 0.24597 0.64714 0.85746 0.0
C493 C 0.20566 0.59577 0.86785 0.0
C494 C 0.22308 0.55638 0.87124 0.0
H495 H 0.90466 0.38639 0.19131 0.0
H496 H 1.0002 0.32471 0.15769 0.0
H497 H 0.92262 0.23311 0.16185 0.0
H498 H 0.83349 0.27295 0.24364 0.0
H499 H 0.77004 0.27138 0.24021 0.0
H500 H 0.83188 0.33318 0.23362 0.0
H501 H 0.79629 0.34251 0.18377 0.0
H502 H 0.73436 0.28075 0.19023 0.0
H503 H 0.77342 0.28872 0.15947 0.0
H504 H 0.82929 0.14251 0.1682 0.0
H505 H 0.73824 1.06766 0.17943 0.0
H506 H 0.6984 0.17952 0.21361 0.0
C507 C 0.90955 0.35387 0.18456 0.0
C508 C 0.96122 0.36575 0.17354 0.0
C509 C 0.96321 0.31955 0.16593 0.0
C510 C 0.91833 0.2662 0.16826 0.0
C511 C 0.86897 0.25613 0.17902 0.0
C512 C 0.86449 0.29889 0.1875 0.0
C513 C 0.80702 0.27587 0.19966 0.0
C514 C 0.81083 0.28917 0.23115 0.0
C515 C 0.77593 0.29833 0.18226 0.0
C516 C 0.77985 0.21419 0.1964 0.0
C517 C 0.81664 0.20411 0.18408 0.0
C518 C 0.80105 0.15091 0.17802 0.0
C519 C 0.74821 0.10775 0.18449 0.0
C520 C 0.70871 0.11515 0.19766 0.0
C521 C 0.72613 0.17045 0.20377 0.0
H522 H 0.14006 0.5991 0.06432 0.0
H523 H 0.13473 0.44664 0.07515 0.0
H524 H 0.14317 0.44525 0.02299 0.0
H525 H 1.06282 0.57115 0.00011 0.0
H526 H 1.10148 0.63803 0.98508 0.0
H527 H 1.09721 0.62714 0.02309 0.0
H528 H 0.20127 0.67654 0.02699 0.0
H529 H 0.20568 0.68684 0.98888 0.0
H530 H 0.23786 0.65372 0.00714 0.0
H531 H 0.14294 0.45727 0.96772 0.0
H532 H 0.13435 0.48153 0.91723 0.0
H533 H 0.14836 0.62939 0.94289 0.0
C534 C 0.14107 0.56545 0.05588 0.0
C535 C 0.13661 0.52284 0.07425 0.0
C536 C 0.13817 0.47987 0.06187 0.0
C537 C 0.14301 0.4788 0.03212 0.0
C538 C 0.14712 0.52138 0.0147 0.0
C539 C 0.14657 0.5641 0.0263 0.0
C540 C 0.15019 0.60439 0.00313 0.0
C541 C 1.09995 0.61052 0.00285 0.0
C542 C 0.20183 0.65858 0.00676 0.0
C543 C 0.15213 0.57759 0.97655 0.0
C544 C 0.15015 0.52959 0.98353 0.0
C545 C 0.14612 0.49554 0.96222 0.0
C546 C 0.14228 0.51003 0.93339 0.0
C547 C 0.14354 0.55868 0.92577 0.0
C548 C 0.15002 0.59325 0.94787 0.0
H549 H 0.59532 1.06287 0.39482 0.0
H550 H 0.75628 0.08785 0.40879 0.0
H551 H 0.76927 0.09558 0.35682 0.0
H552 H 0.56177 0.98518 0.33287 0.0
H553 H 0.52582 1.01492 0.31518 0.0
H554 H 0.52994 1.01226 0.35344 0.0
H555 H 0.57012 0.11501 0.35369 0.0
H556 H 0.56666 0.11787 0.31537 0.0
H557 H 0.6298 0.15809 0.33371 0.0
H558 H 0.76096 0.0914 0.30197 0.0
H559 H 0.73194 0.07735 0.25122 0.0
H560 H 0.5822 1.06768 0.2724 0.0
C561 C 0.63339 1.07012 0.38699 0.0
C562 C 0.67461 1.07434 0.40626 0.0
C563 C 0.72392 0.08438 0.39478 0.0
C564 C 0.73176 0.08891 0.36513 0.0
C565 C 0.69043 0.08456 0.34676 0.0
C566 C 0.6424 0.07602 0.35733 0.0
C567 C 0.60438 1.07285 0.33305 0.0
C568 C 0.55241 1.01805 0.33368 0.0
C569 C 0.59202 0.11869 0.33402 0.0
C570 C 0.63782 0.07959 0.30724 0.0
C571 C 0.68731 0.08599 0.3155 0.0
C572 C 0.72272 0.08759 0.29534 0.0
C573 C 0.70631 0.08035 0.26636 0.0
C574 C 0.65513 1.07224 0.25751 0.0
C575 C 0.6219 1.07455 0.27832 0.0
H576 H 0.56082 0.53408 0.72747 0.0
H577 H 0.7078 0.68287 0.74476 0.0
H578 H 0.72854 0.69665 0.69414 0.0
H579 H 0.61724 0.49335 0.673 0.0
H580 H 0.55755 0.46485 0.65069 0.0
H581 H 0.55202 0.46685 0.68854 0.0
H582 H 0.49944 0.51751 0.67978 0.0
H583 H 0.50535 0.51607 0.64189 0.0
H584 H 0.52896 0.57898 0.6586 0.0
H585 H 0.73827 0.69325 0.64156 0.0
H586 H 0.7362 0.66955 0.59159 0.0
H587 H 0.58241 0.52648 0.6052 0.0
C588 C 0.59719 0.56965 0.7206 0.0
C589 C 0.63202 0.60766 0.74075 0.0
C590 C 0.67946 0.65332 0.73034 0.0
C591 C 0.69197 0.66166 0.70133 0.0
C592 C 0.65695 0.62415 0.68215 0.0
C593 C 0.61055 0.57886 0.69125 0.0
C594 C 0.58111 0.54424 0.66584 0.0
C595 C 0.57672 0.48905 0.66976 0.0
C596 C 0.52539 0.53888 0.66126 0.0
C597 C 0.61846 0.57692 0.6414 0.0
C598 C 0.66193 0.62298 0.65138 0.0
C599 C 0.70371 0.65786 0.63339 0.0
C600 C 0.70185 0.64474 0.60474 0.0
C601 C 0.65822 0.59757 0.59386 0.0
C602 C 0.61551 0.56382 0.61256 0.0
H603 H 0.74837 0.12425 0.58551 0.0
H604 H 0.57461 1.03492 0.59186 0.0
H605 H 0.58262 1.06154 0.64185 0.0
H606 H 0.78155 0.09787 0.65629 0.0
H607 H 0.83795 0.16417 0.66061 0.0
H608 H 0.81892 0.13681 0.62572 0.0
H609 H 0.80998 0.21804 0.6075 0.0
H610 H 0.82918 0.24613 0.64222 0.0
H611 H 0.76684 0.23498 0.62572 0.0
H612 H 0.61019 0.09415 0.69144 0.0
H613 H 0.65477 0.13382 0.73685 0.0
H614 H 0.80994 0.21029 0.6966 0.0
C615 C 0.71205 0.10969 0.59758 0.0
C616 C 0.66085 0.0768 0.58517 0.0
C617 C 0.61414 1.05976 0.60122 0.0
C618 C 0.61834 1.07473 0.62951 0.0
C619 C 0.66948 0.10764 0.64104 0.0
C620 C 0.71548 0.12533 0.62552 0.0
C621 C 0.76545 0.1621 0.64253 0.0
C622 C 0.80321 0.13886 0.64652 0.0
C623 C 0.79456 0.21866 0.62866 0.0
C624 C 0.74045 0.16147 0.6703 0.0
C625 C 0.68508 0.12963 0.669 0.0
C626 C 0.65335 0.12019 0.69252 0.0
C627 C 0.67893 0.1435 0.7181 0.0
C628 C 0.73555 0.17667 0.71985 0.0
C629 C 0.76653 0.1861 0.69553 0.0
H630 H 0.6707 0.69704 0.91698 0.0
H631 H 0.58571 0.5248 0.93131 0.0
H632 H 0.58968 0.53731 0.98337 0.0
H633 H 0.75909 0.72794 0.9805 0.0
H634 H 0.75764 0.78844 0.98603 0.0
H635 H 0.75132 0.76505 0.95053 0.0
H636 H 0.66178 0.76605 0.94331 0.0
H637 H 0.66741 0.78859 0.97889 0.0
H638 H 0.60799 0.72841 0.96794 0.0
H639 H 0.59756 0.5699 0.03354 0.0
H640 H 0.61425 0.61942 0.07779 0.0
H641 H 0.69426 0.76969 0.02965 0.0
C642 C 0.65329 0.66185 0.93106 0.0
C643 C 0.62745 0.6099 0.92025 0.0
C644 C 0.60575 0.5649 0.93929 0.0
C645 C 0.60773 0.57169 0.96879 0.0
C646 C 0.63235 0.62368 0.97867 0.0
C647 C 0.65554 0.66793 0.96033 0.0
C648 C 0.67892 0.71955 0.97601 0.0
C649 C 0.74039 0.75216 0.97309 0.0
C650 C 0.65241 0.75257 0.96593 0.0
C651 C 0.66352 0.69763 0.00604 0.0
C652 C 0.63704 0.64227 0.00725 0.0
C653 C 0.61827 0.61317 0.03278 0.0
C654 C 0.62725 0.64146 0.05767 0.0
C655 C 0.65442 0.6981 0.05674 0.0
C656 C 0.67286 0.72638 0.03065 0.0
H657 H 1.06785 0.60071 0.23408 0.0
H658 H 0.16692 0.53549 0.26719 0.0
H659 H 0.17302 0.57491 0.31395 0.0
H660 H 0.14023 0.72581 0.26984 0.0
H661 H 1.08035 0.72924 0.27541 0.0
H662 H 1.08424 0.69578 0.24508 0.0
H663 H 0.99699 0.60935 0.2604 0.0
H664 H 0.9926 0.64272 0.29057 0.0
H665 H 0.99328 0.58086 0.29579 0.0
H666 H 0.16058 0.61593 0.35831 0.0
H667 H 0.13595 0.65933 0.39464 0.0
H668 H 1.05255 0.70314 0.33006 0.0
C669 C 1.09065 0.59435 0.25118 0.0
C670 C 1.11615 0.56427 0.24731 0.0
C671 C 0.14674 0.55808 0.26993 0.0
C672 C 0.15043 0.58036 0.29645 0.0
C673 C 0.12437 0.60965 0.29955 0.0
C674 C 1.0957 0.61716 0.2773 0.0
C675 C 1.07179 0.65059 0.28556 0.0
C676 C 1.09559 0.70349 0.26792 0.0
C677 C 1.01001 0.61897 0.28293 0.0
C678 C 1.09033 0.65998 0.31624 0.0
C679 C 0.12039 0.63589 0.32411 0.0
C680 C 0.13812 0.63584 0.35216 0.0
C681 C 0.12424 0.66053 0.37257 0.0
C682 C 1.09363 0.68519 0.36462 0.0
C683 C 1.0773 0.68566 0.33615 0.0
loop_
_geom_bond_atom_site_label_1
_geom_bond_atom_site_label_2
_geom_bond_distance
_geom_bond_site_symmetry_2
_ccdc_geom_bond_type
Tb0 C10 2.825 . S
Tb0 O11 2.347 . S
Tb0 O14 2.366 . S
Tb0 O19 2.418 . S
Tb0 O20 2.384 1_455 S
Tb0 O23 2.479 . S
Tb0 O24 2.471 . S
Eu1 O12 2.418 . S
Eu1 O13 2.384 1_655 S
Eu1 O16 2.479 . S
Eu1 O17 2.471 . S
Eu1 O18 2.347 . S
Eu1 O21 2.366 . S
Eu1 C31 2.825 . S
C2 O18 1.259 1_455 S
C2 O19 1.265 . S
C3 O20 1.255 . S
C3 O21 1.265 . S
C4 C6 1.380 . S
C4 C7 1.374 . S
C4 C10 1.507 . S
C5 C6 1.384 . S
C5 C9 1.387 . S
C5 H32 0.930 . S
C6 C4 1.380 . S
C6 C5 1.384 . S
C6 H33 0.931 . S
C7 C4 1.374 . S
C7 C8 1.390 . S
C7 H34 0.930 . S
C8 C7 1.390 . S
C8 C9 1.391 . S
C8 H35 0.930 . S
C9 C5 1.387 . S
C9 C8 1.391 . S
C10 Tb0 2.825 . S
C10 C4 1.507 . S
C10 O23 1.238 . S
C10 O24 1.247 . S
O11 Tb0 2.347 . S
O11 C15 1.268 . S
O12 Eu1 2.418 . S
O12 C15 1.245 1_655 S
O13 Eu1 2.384 1_455 S
O13 C22 1.255 . S
O14 Tb0 2.366 . S
O14 C22 1.265 . S
C15 O11 1.268 . S
C15 O12 1.245 1_455 S
O16 Eu1 2.479 . S
O16 C31 1.238 . S
O17 Eu1 2.471 . S
O17 C31 1.247 . S
O18 Eu1 2.347 . S
O18 C2 1.259 1_655 S
O19 Tb0 2.418 . S
O19 C2 1.265 . S
O20 Tb0 2.384 1_655 S
O20 C3 1.255 . S
O21 Eu1 2.366 . S
O21 C3 1.265 . S
C22 O13 1.255 . S
C22 O14 1.265 . S
O23 Tb0 2.479 . S
O23 C10 1.238 . S
O24 Tb0 2.471 . S
O24 C10 1.247 . S
C25 C28 1.380 . S
C25 C29 1.374 . S
C25 C31 1.507 . S
C26 C27 1.387 . S
C26 C30 1.391 . S
C27 C26 1.387 . S
C27 C28 1.384 . S
C27 H36 0.930 . S
C28 C25 1.380 . S
C28 C27 1.384 . S
C28 H37 0.931 . S
C29 C25 1.374 . S
C29 C30 1.390 . S
C29 H38 0.930 . S
C30 C26 1.391 . S
C30 C29 1.390 . S
C30 H39 0.930 . S
C31 Eu1 2.825 . S
C31 O16 1.238 . S
C31 O17 1.247 . S
C31 C25 1.507 . S
H32 C5 0.930 . S
H33 C6 0.931 . S
H34 C7 0.930 . S
H35 C8 0.930 . S
H36 C27 0.930 . S
H37 C28 0.931 . S
H38 C29 0.930 . S
H39 C30 0.930 . S
Tb40 C50 2.825 . S
Tb40 O51 2.347 . S
Tb40 O54 2.366 . S
Tb40 O59 2.418 . S
Tb40 O60 2.384 1_545 S
Tb40 O63 2.479 . S
Tb40 O64 2.471 . S
Eu41 O52 2.418 . S
Eu41 O53 2.384 . S
Eu41 O56 2.479 1_545 S
Eu41 O57 2.471 1_545 S
Eu41 O58 2.347 . S
Eu41 O61 2.366 1_545 S
Eu41 C71 2.825 1_545 S
C42 O58 1.259 . S
C42 O59 1.265 . S
C43 O60 1.255 . S
C43 O61 1.265 . S
C44 C46 1.380 . S
C44 C47 1.374 . S
C44 C50 1.507 . S
C45 C46 1.384 . S
C45 C49 1.387 . S
C45 H72 0.930 . S
C46 C44 1.380 . S
C46 C45 1.384 . S
C46 H73 0.931 . S
C47 C44 1.374 . S
C47 C48 1.390 . S
C47 H74 0.930 . S
C48 C47 1.390 . S
C48 C49 1.391 . S
C48 H75 0.930 . S
C49 C45 1.387 . S
C49 C48 1.391 . S
C50 Tb40 2.825 . S
C50 C44 1.507 . S
C50 O63 1.238 . S
C50 O64 1.247 . S
O51 Tb40 2.347 . S
O51 C55 1.259 . S
O52 Eu41 2.418 . S
O52 C55 1.265 . S
O53 Eu41 2.384 . S
O53 C62 1.255 . S
O54 Tb40 2.366 . S
O54 C62 1.265 . S
C55 O51 1.259 . S
C55 O52 1.265 . S
O56 Eu41 2.479 1_565 S
O56 C71 1.238 . S
O57 Eu41 2.471 1_565 S
O57 C71 1.247 . S
O58 Eu41 2.347 . S
O58 C42 1.259 . S
O59 Tb40 2.418 . S
O59 C42 1.265 . S
O60 Tb40 2.384 1_565 S
O60 C43 1.255 . S
O61 Eu41 2.366 1_565 S
O61 C43 1.265 . S
C62 O53 1.255 . S
C62 O54 1.265 . S
O63 Tb40 2.479 . S
O63 C50 1.238 . S
O64 Tb40 2.471 . S
O64 C50 1.247 . S
C65 C68 1.380 . S
C65 C69 1.374 . S
C65 C71 1.507 . S
C66 C67 1.387 . S
C66 C70 1.391 . S
C67 C66 1.387 . S
C67 C68 1.384 . S
C67 H76 0.930 . S
C68 C65 1.380 . S
C68 C67 1.384 . S
C68 H77 0.931 . S
C69 C65 1.374 . S
C69 C70 1.390 . S
C69 H78 0.930 . S
C70 C66 1.391 . S
C70 C69 1.390 . S
C70 H79 0.930 . S
C71 Eu41 2.825 1_565 S
C71 O56 1.238 . S
C71 O57 1.247 . S
C71 C65 1.507 . S
H72 C45 0.930 . S
H73 C46 0.931 . S
H74 C47 0.930 . S
H75 C48 0.930 . S
H76 C67 0.930 . S
H77 C68 0.931 . S
H78 C69 0.930 . S
H79 C70 0.930 . S
Tb80 C90 2.825 . S
Tb80 O91 2.347 . S
Tb80 O94 2.366 . S
Tb80 O99 2.418 . S
Tb80 O100 2.384 . S
Tb80 O103 2.479 . S
Tb80 O104 2.471 . S
Eu81 O92 2.418 . S
Eu81 O93 2.384 . S
Eu81 O96 2.479 . S
Eu81 O97 2.471 . S
Eu81 O98 2.347 . S
Eu81 O101 2.366 . S
Eu81 C111 2.825 . S
C82 O98 1.259 . S
C82 O99 1.265 . S
C83 O100 1.255 . S
C83 O101 1.265 . S
C84 C86 1.380 . S
C84 C87 1.374 . S
C84 C90 1.507 . S
C85 C86 1.384 . S
C85 C89 1.387 . S
C85 H112 0.930 . S
C86 C84 1.380 . S
C86 C85 1.384 . S
C86 H113 0.931 . S
C87 C84 1.374 . S
C87 C88 1.390 . S
C87 H114 0.930 . S
C88 C87 1.390 . S
C88 C89 1.391 . S
C88 H115 0.930 . S
C89 C85 1.387 . S
C89 C88 1.391 . S
C90 Tb80 2.825 . S
C90 C84 1.507 . S
C90 O103 1.238 . S
C90 O104 1.247 . S
O91 Tb80 2.347 . S
O91 C95 1.259 . S
O92 Eu81 2.418 . S
O92 C95 1.265 . S
O93 Eu81 2.384 . S
O93 C102 1.255 . S
O94 Tb80 2.366 . S
O94 C102 1.265 . S
C95 O91 1.259 . S
C95 O92 1.265 . S
O96 Eu81 2.479 . S
O96 C111 1.238 . S
O97 Eu81 2.471 . S
O97 C111 1.247 . S
O98 Eu81 2.347 . S
O98 C82 1.259 . S
O99 Tb80 2.418 . S
O99 C82 1.265 . S
O100 Tb80 2.384 . S
O100 C83 1.255 . S
O101 Eu81 2.366 . S
O101 C83 1.265 . S
C102 O93 1.255 . S
C102 O94 1.265 . S
O103 Tb80 2.479 . S
O103 C90 1.238 . S
O104 Tb80 2.471 . S
O104 C90 1.247 . S
C105 C108 1.380 . S
C105 C109 1.374 . S
C105 C111 1.507 . S
C106 C107 1.387 . S
C106 C110 1.391 . S
C107 C106 1.387 . S
C107 C108 1.384 . S
C107 H116 0.930 . S
C108 C105 1.380 . S
C108 C107 1.384 . S
C108 H117 0.931 . S
C109 C105 1.374 . S
C109 C110 1.390 . S
C109 H118 0.930 . S
C110 C106 1.391 . S
C110 C109 1.390 . S
C110 H119 0.930 . S
C111 Eu81 2.825 . S
C111 O96 1.238 . S
C111 O97 1.247 . S
C111 C105 1.507 . S
H112 C85 0.930 . S
H113 C86 0.931 . S
H114 C87 0.930 . S
H115 C88 0.930 . S
H116 C107 0.930 . S
H117 C108 0.931 . S
H118 C109 0.930 . S
H119 C110 0.930 . S
C120 N121 1.317 . S
C120 N122 1.348 1_545 S
C120 C123 1.485 . S
N121 C120 1.317 . S
N121 N125 1.370 . S
N122 C120 1.348 1_565 S
N122 C124 1.346 . S
C123 C120 1.485 . S
C123 H127 0.960 . S
C123 H128 0.961 1_545 S
C123 H129 0.960 . S
C124 N122 1.346 . S
C124 N125 1.307 1_565 S
C124 C126 1.486 . S
N125 N121 1.370 . S
N125 C124 1.307 1_545 S
C126 C124 1.486 . S
C126 H130 0.960 . S
C126 H131 0.960 . S
C126 H132 0.959 . S
H127 C123 0.960 . S
H128 C123 0.961 1_565 S
H129 C123 0.960 . S
H130 C126 0.960 . S
H131 C126 0.960 . S
H132 C126 0.959 . S
C133 N134 1.317 . S
C133 N135 1.348 . S
C133 C136 1.485 . S
N134 C133 1.317 . S
N134 N138 1.370 . S
N135 C133 1.348 . S
N135 C137 1.346 . S
C136 C133 1.485 . S
C136 H140 0.960 . S
C136 H141 0.961 . S
C136 H142 0.960 . S
C137 N135 1.346 . S
C137 N138 1.307 . S
C137 C139 1.486 . S
N138 N134 1.370 . S
N138 C137 1.307 . S
C139 C137 1.486 . S
C139 H143 0.960 . S
C139 H144 0.960 . S
C139 H145 0.959 . S
H140 C136 0.960 . S
H141 C136 0.961 . S
H142 C136 0.960 . S
H143 C139 0.960 . S
H144 C139 0.960 . S
H145 C139 0.959 . S
C146 N147 1.317 . S
C146 N148 1.348 1_455 S
C146 C149 1.485 . S
N147 C146 1.317 . S
N147 N151 1.370 . S
N148 C146 1.348 1_655 S
N148 C150 1.346 . S
C149 C146 1.485 . S
C149 H153 0.960 . S
C149 H154 0.961 . S
C149 H155 0.960 . S
C150 N148 1.346 . S
C150 N151 1.307 1_655 S
C150 C152 1.486 . S
N151 N147 1.370 . S
N151 C150 1.307 1_455 S
C152 C150 1.486 . S
C152 H156 0.960 . S
C152 H157 0.960 . S
C152 H158 0.959 . S
H153 C149 0.960 . S
H154 C149 0.961 . S
H155 C149 0.960 . S
H156 C152 0.960 . S
H157 C152 0.960 . S
H158 C152 0.959 . S
C159 N160 1.317 . S
C159 N161 1.348 . S
C159 C162 1.485 . S
N160 C159 1.317 . S
N160 N164 1.370 . S
N161 C159 1.348 . S
N161 C163 1.346 . S
C162 C159 1.485 . S
C162 H166 0.960 . S
C162 H167 0.961 . S
C162 H168 0.960 . S
C163 N161 1.346 . S
C163 N164 1.307 . S
C163 C165 1.486 . S
N164 N160 1.370 . S
N164 C163 1.307 . S
C165 C163 1.486 . S
C165 H169 0.960 . S
C165 H170 0.960 . S
C165 H171 0.959 . S
H166 C162 0.960 . S
H167 C162 0.961 . S
H168 C162 0.960 . S
H169 C165 0.960 . S
H170 C165 0.960 . S
H171 C165 0.959 . S
C172 N173 1.317 . S
C172 N174 1.348 . S
C172 C175 1.485 . S
N173 C172 1.317 . S
N173 N177 1.370 . S
N174 C172 1.348 . S
N174 C176 1.346 . S
C175 C172 1.485 . S
C175 H179 0.960 . S
C175 H180 0.961 . S
C175 H181 0.960 . S
C176 N174 1.346 . S
C176 N177 1.307 . S
C176 C178 1.486 . S
N177 N173 1.370 . S
N177 C176 1.307 . S
C178 C176 1.486 . S
C178 H182 0.960 . S
C178 H183 0.960 . S
C178 H184 0.959 . S
H179 C175 0.960 . S
H180 C175 0.961 . S
H181 C175 0.960 . S
H182 C178 0.960 . S
H183 C178 0.960 . S
H184 C178 0.959 . S
C185 N186 1.317 . S
C185 N187 1.348 . S
C185 C188 1.485 . S
N186 C185 1.317 . S
N186 N190 1.370 . S
N187 C185 1.348 . S
N187 C189 1.346 . S
C188 C185 1.485 . S
C188 H192 0.960 . S
C188 H193 0.961 . S
C188 H194 0.960 . S
C189 N187 1.346 . S
C189 N190 1.307 . S
C189 C191 1.486 . S
N190 N186 1.370 . S
N190 C189 1.307 . S
C191 C189 1.486 . S
C191 H195 0.960 . S
C191 H196 0.960 . S
C191 H197 0.959 . S
H192 C188 0.960 . S
H193 C188 0.961 . S
H194 C188 0.960 . S
H195 C191 0.960 . S
H196 C191 0.960 . S
H197 C191 0.959 . S
H198 C210 0.930 . S
H199 C212 0.930 . S
H200 C213 0.930 . S
H201 C217 0.959 . S
H202 C217 0.959 . S
H203 C217 0.961 . S
H204 C218 0.960 . S
H205 C218 0.961 . S
H206 C218 0.959 . S
H207 C221 0.929 . S
H208 C222 0.931 . S
H209 C224 0.930 . S
C210 H198 0.930 . S
C210 C211 1.399 . S
C210 C215 1.399 . S
C211 C210 1.399 . S
C211 C212 1.376 . S
C212 H199 0.930 . S
C212 C211 1.376 . S
C212 C213 1.388 . S
C213 H200 0.930 . S
C213 C212 1.388 . S
C213 C214 1.390 . S
C214 C213 1.390 . S
C214 C215 1.394 . S
C214 C220 1.465 . S
C215 C210 1.399 . S
C215 C214 1.394 . S
C215 C216 1.516 . S
C216 C215 1.516 . S
C216 C217 1.502 . S
C216 C218 1.561 . S
C216 C219 1.526 . S
C217 H201 0.959 . S
C217 H202 0.959 . S
C217 H203 0.961 . S
C217 C216 1.502 . S
C218 H204 0.960 . S
C218 H205 0.961 . S
C218 H206 0.959 . S
C218 C216 1.561 . S
C219 C216 1.526 . S
C219 C220 1.396 . S
C219 C224 1.390 . S
C220 C214 1.465 . S
C220 C219 1.396 . S
C220 C221 1.399 . S
C221 H207 0.929 . S
C221 C220 1.399 . S
C221 C222 1.385 . S
C222 H208 0.931 . S
C222 C221 1.385 . S
C222 C223 1.389 . S
C223 C222 1.389 . S
C223 C224 1.387 . S
C224 H209 0.930 . S
C224 C219 1.390 . S
C224 C223 1.387 . S
H225 C237 0.930 . S
H226 C239 0.930 . S
H227 C240 0.930 . S
H228 C244 0.959 . S
H229 C244 0.959 . S
H230 C244 0.961 . S
H231 C245 0.960 . S
H232 C245 0.961 1_455 S
H233 C245 0.959 . S
H234 C248 0.929 . S
H235 C249 0.931 . S
H236 C251 0.930 1_455 S
C237 H225 0.930 . S
C237 C238 1.399 . S
C237 C242 1.399 . S
C238 C237 1.399 . S
C238 C239 1.376 . S
C239 H226 0.930 . S
C239 C238 1.376 . S
C239 C240 1.388 . S
C240 H227 0.930 . S
C240 C239 1.388 . S
C240 C241 1.390 . S
C241 C240 1.390 . S
C241 C242 1.394 . S
C241 C247 1.465 . S
C242 C237 1.399 . S
C242 C241 1.394 . S
C242 C243 1.516 . S
C243 C242 1.516 . S
C243 C244 1.502 . S
C243 C245 1.561 . S
C243 C246 1.526 . S
C244 H228 0.959 . S
C244 H229 0.959 . S
C244 H230 0.961 . S
C244 C243 1.502 . S
C245 H231 0.960 . S
C245 H232 0.961 1_655 S
C245 H233 0.959 . S
C245 C243 1.561 . S
C246 C243 1.526 . S
C246 C247 1.396 . S
C246 C251 1.390 . S
C247 C241 1.465 . S
C247 C246 1.396 . S
C247 C248 1.399 . S
C248 H234 0.929 . S
C248 C247 1.399 . S
C248 C249 1.385 . S
C249 H235 0.931 . S
C249 C248 1.385 . S
C249 C250 1.389 . S
C250 C249 1.389 . S
C250 C251 1.387 . S
C251 H236 0.930 1_655 S
C251 C246 1.390 . S
C251 C250 1.387 . S
H252 C264 0.930 . S
H253 C266 0.930 . S
H254 C267 0.930 . S
H255 C271 0.959 . S
H256 C271 0.959 . S
H257 C271 0.961 . S
H258 C272 0.960 . S
H259 C272 0.961 . S
H260 C272 0.959 . S
H261 C275 0.930 . S
H262 C276 0.931 . S
H263 C278 0.930 . S
C264 H252 0.930 . S
C264 C265 1.399 . S
C264 C269 1.399 . S
C265 C264 1.399 . S
C265 C266 1.376 . S
C266 H253 0.930 . S
C266 C265 1.376 . S
C266 C267 1.388 . S
C267 H254 0.930 . S
C267 C266 1.388 . S
C267 C268 1.390 . S
C268 C267 1.390 . S
C268 C269 1.394 . S
C268 C274 1.465 . S
C269 C264 1.399 . S
C269 C268 1.394 . S
C269 C270 1.516 . S
C270 C269 1.516 . S
C270 C271 1.502 . S
C270 C272 1.561 . S
C270 C273 1.526 . S
C271 H255 0.959 . S
C271 H256 0.959 . S
C271 H257 0.961 . S
C271 C270 1.502 . S
C272 H258 0.960 . S
C272 H259 0.961 . S
C272 H260 0.959 . S
C272 C270 1.561 . S
C273 C270 1.526 . S
C273 C274 1.396 . S
C273 C278 1.390 . S
C274 C268 1.465 . S
C274 C273 1.396 . S
C274 C275 1.399 . S
C275 H261 0.930 . S
C275 C274 1.399 . S
C275 C276 1.385 1_565 S
C276 H262 0.931 . S
C276 C275 1.385 1_545 S
C276 C277 1.389 . S
C277 C276 1.389 . S
C277 C278 1.387 1_545 S
C278 H263 0.930 . S
C278 C273 1.390 . S
C278 C277 1.387 1_565 S
H279 C291 0.930 . S
H280 C293 0.930 . S
H281 C294 0.930 . S
H282 C298 0.959 . S
H283 C298 0.959 . S
H284 C298 0.961 . S
H285 C299 0.960 . S
H286 C299 0.961 . S
H287 C299 0.959 . S
H288 C302 0.929 . S
H289 C303 0.931 . S
H290 C305 0.930 . S
C291 H279 0.930 . S
C291 C292 1.399 . S
C291 C296 1.399 . S
C292 C291 1.399 . S
C292 C293 1.376 . S
C293 H280 0.930 . S
C293 C292 1.376 . S
C293 C294 1.388 . S
C294 H281 0.930 . S
C294 C293 1.388 . S
C294 C295 1.390 . S
C295 C294 1.390 . S
C295 C296 1.394 . S
C295 C301 1.465 . S
C296 C291 1.399 . S
C296 C295 1.394 . S
C296 C297 1.516 . S
C297 C296 1.516 . S
C297 C298 1.502 . S
C297 C299 1.561 . S
C297 C300 1.526 . S
C298 H282 0.959 . S
C298 H283 0.959 . S
C298 H284 0.961 . S
C298 C297 1.502 . S
C299 H285 0.960 . S
C299 H286 0.961 . S
C299 H287 0.959 . S
C299 C297 1.561 . S
C300 C297 1.526 . S
C300 C301 1.396 . S
C300 C305 1.390 . S
C301 C295 1.465 . S
C301 C300 1.396 . S
C301 C302 1.399 . S
C302 H288 0.929 . S
C302 C301 1.399 . S
C302 C303 1.385 . S
C303 H289 0.931 . S
C303 C302 1.385 . S
C303 C304 1.389 . S
C304 C303 1.389 . S
C304 C305 1.387 . S
C305 H290 0.930 . S
C305 C300 1.390 . S
C305 C304 1.387 . S
H306 C318 0.930 . S
H307 C320 0.930 . S
H308 C321 0.930 . S
H309 C325 0.959 . S
H310 C325 0.959 . S
H311 C325 0.961 . S
H312 C326 0.960 . S
H313 C326 0.961 . S
H314 C326 0.959 . S
H315 C329 0.929 . S
H316 C330 0.931 . S
H317 C332 0.930 . S
C318 H306 0.930 . S
C318 C319 1.399 . S
C318 C323 1.399 . S
C319 C318 1.399 . S
C319 C320 1.376 . S
C320 H307 0.930 . S
C320 C319 1.376 . S
C320 C321 1.388 . S
C321 H308 0.930 . S
C321 C320 1.388 . S
C321 C322 1.390 . S
C322 C321 1.390 . S
C322 C323 1.394 . S
C322 C328 1.465 . S
C323 C318 1.399 . S
C323 C322 1.394 . S
C323 C324 1.516 . S
C324 C323 1.516 . S
C324 C325 1.502 . S
C324 C326 1.561 . S
C324 C327 1.526 . S
C325 H309 0.959 . S
C325 H310 0.959 . S
C325 H311 0.961 . S
C325 C324 1.502 . S
C326 H312 0.960 . S
C326 H313 0.961 . S
C326 H314 0.959 . S
C326 C324 1.561 . S
C327 C324 1.526 . S
C327 C328 1.396 . S
C327 C332 1.390 . S
C328 C322 1.465 . S
C328 C327 1.396 . S
C328 C329 1.399 . S
C329 H315 0.929 . S
C329 C328 1.399 . S
C329 C330 1.385 . S
C330 H316 0.931 . S
C330 C329 1.385 . S
C330 C331 1.389 . S
C331 C330 1.389 . S
C331 C332 1.387 . S
C332 H317 0.930 . S
C332 C327 1.390 . S
C332 C331 1.387 . S
H333 C345 0.930 . S
H334 C347 0.930 . S
H335 C348 0.930 . S
H336 C352 0.959 . S
H337 C352 0.959 . S
H338 C352 0.961 . S
H339 C353 0.960 . S
H340 C353 0.961 . S
H341 C353 0.959 . S
H342 C356 0.929 . S
H343 C357 0.931 . S
H344 C359 0.930 . S
C345 H333 0.930 . S
C345 C346 1.399 . S
C345 C350 1.399 . S
C346 C345 1.399 . S
C346 C347 1.376 . S
C347 H334 0.930 . S
C347 C346 1.376 . S
C347 C348 1.388 . S
C348 H335 0.930 . S
C348 C347 1.388 . S
C348 C349 1.390 . S
C349 C348 1.390 . S
C349 C350 1.394 . S
C349 C355 1.465 . S
C350 C345 1.399 . S
C350 C349 1.394 . S
C350 C351 1.516 . S
C351 C350 1.516 . S
C351 C352 1.502 . S
C351 C353 1.561 . S
C351 C354 1.526 . S
C352 H336 0.959 . S
C352 H337 0.959 . S
C352 H338 0.961 . S
C352 C351 1.502 . S
C353 H339 0.960 . S
C353 H340 0.961 . S
C353 H341 0.959 . S
C353 C351 1.561 . S
C354 C351 1.526 . S
C354 C355 1.396 . S
C354 C359 1.390 . S
C355 C349 1.465 . S
C355 C354 1.396 . S
C355 C356 1.399 . S
C356 H342 0.929 . S
C356 C355 1.399 . S
C356 C357 1.385 . S
C357 H343 0.931 . S
C357 C356 1.385 . S
C357 C358 1.389 . S
C358 C357 1.389 . S
C358 C359 1.387 . S
C359 H344 0.930 . S
C359 C354 1.390 . S
C359 C358 1.387 . S
H360 C372 0.930 . S
H361 C374 0.930 . S
H362 C375 0.930 . S
H363 C379 0.959 . S
H364 C379 0.959 . S
H365 C379 0.961 . S
H366 C380 0.960 . S
H367 C380 0.961 . S
H368 C380 0.959 . S
H369 C383 0.929 . S
H370 C384 0.931 . S
H371 C386 0.930 . S
C372 H360 0.930 . S
C372 C373 1.399 . S
C372 C377 1.399 . S
C373 C372 1.399 . S
C373 C374 1.376 . S
C374 H361 0.930 . S
C374 C373 1.376 . S
C374 C375 1.388 . S
C375 H362 0.930 . S
C375 C374 1.388 . S
C375 C376 1.390 . S
C376 C375 1.390 . S
C376 C377 1.394 . S
C376 C382 1.465 . S
C377 C372 1.399 . S
C377 C376 1.394 . S
C377 C378 1.516 . S
C378 C377 1.516 . S
C378 C379 1.502 . S
C378 C380 1.561 . S
C378 C381 1.526 . S
C379 H363 0.959 . S
C379 H364 0.959 . S
C379 H365 0.961 . S
C379 C378 1.502 . S
C380 H366 0.960 . S
C380 H367 0.961 . S
C380 H368 0.959 . S
C380 C378 1.561 . S
C381 C378 1.526 . S
C381 C382 1.396 . S
C381 C386 1.390 . S
C382 C376 1.465 . S
C382 C381 1.396 . S
C382 C383 1.399 . S
C383 H369 0.929 . S
C383 C382 1.399 . S
C383 C384 1.385 . S
C384 H370 0.931 . S
C384 C383 1.385 . S
C384 C385 1.389 . S
C385 C384 1.389 . S
C385 C386 1.387 . S
C386 H371 0.930 . S
C386 C381 1.390 . S
C386 C385 1.387 . S
H387 C399 0.930 . S
H388 C401 0.930 . S
H389 C402 0.930 . S
H390 C406 0.959 . S
H391 C406 0.959 . S
H392 C406 0.961 . S
H393 C407 0.960 . S
H394 C407 0.961 . S
H395 C407 0.959 . S
H396 C410 0.929 . S
H397 C411 0.931 . S
H398 C413 0.930 . S
C399 H387 0.930 . S
C399 C400 1.399 . S
C399 C404 1.399 . S
C400 C399 1.399 . S
C400 C401 1.376 . S
C401 H388 0.930 . S
C401 C400 1.376 . S
C401 C402 1.388 . S
C402 H389 0.930 . S
C402 C401 1.388 . S
C402 C403 1.390 . S
C403 C402 1.390 . S
C403 C404 1.394 . S
C403 C409 1.465 . S
C404 C399 1.399 . S
C404 C403 1.394 . S
C404 C405 1.516 . S
C405 C404 1.516 . S
C405 C406 1.502 . S
C405 C407 1.561 . S
C405 C408 1.526 . S
C406 H390 0.959 . S
C406 H391 0.959 . S
C406 H392 0.961 . S
C406 C405 1.502 . S
C407 H393 0.960 . S
C407 H394 0.961 . S
C407 H395 0.959 . S
C407 C405 1.561 . S
C408 C405 1.526 . S
C408 C409 1.396 . S
C408 C413 1.390 . S
C409 C403 1.465 . S
C409 C408 1.396 . S
C409 C410 1.399 . S
C410 H396 0.929 . S
C410 C409 1.399 . S
C410 C411 1.385 . S
C411 H397 0.931 . S
C411 C410 1.385 . S
C411 C412 1.389 . S
C412 C411 1.389 . S
C412 C413 1.387 . S
C413 H398 0.930 . S
C413 C408 1.390 . S
C413 C412 1.387 . S
H414 C426 0.930 . S
H415 C428 0.930 . S
H416 C429 0.930 . S
H417 C433 0.959 . S
H418 C433 0.959 . S
H419 C433 0.961 . S
H420 C434 0.960 . S
H421 C434 0.961 . S
H422 C434 0.959 . S
H423 C437 0.929 . S
H424 C438 0.931 . S
H425 C440 0.930 . S
C426 H414 0.930 . S
C426 C427 1.399 . S
C426 C431 1.399 . S
C427 C426 1.399 . S
C427 C428 1.376 . S
C428 H415 0.930 . S
C428 C427 1.376 . S
C428 C429 1.388 . S
C429 H416 0.930 . S
C429 C428 1.388 . S
C429 C430 1.390 . S
C430 C429 1.390 . S
C430 C431 1.394 . S
C430 C436 1.465 . S
C431 C426 1.399 . S
C431 C430 1.394 . S
C431 C432 1.516 . S
C432 C431 1.516 . S
C432 C433 1.502 . S
C432 C434 1.561 . S
C432 C435 1.526 . S
C433 H417 0.959 . S
C433 H418 0.959 . S
C433 H419 0.961 . S
C433 C432 1.502 . S
C434 H420 0.960 . S
C434 H421 0.961 . S
C434 H422 0.959 . S
C434 C432 1.561 . S
C435 C432 1.526 . S
C435 C436 1.396 . S
C435 C440 1.390 . S
C436 C430 1.465 . S
C436 C435 1.396 . S
C436 C437 1.399 . S
C437 H423 0.929 . S
C437 C436 1.399 . S
C437 C438 1.385 . S
C438 H424 0.931 . S
C438 C437 1.385 . S
C438 C439 1.389 . S
C439 C438 1.389 . S
C439 C440 1.387 . S
C440 H425 0.930 . S
C440 C435 1.390 . S
C440 C439 1.387 . S
H441 C453 0.930 . S
H442 C455 0.930 . S
H443 C456 0.930 . S
H444 C460 0.959 . S
H445 C460 0.959 . S
H446 C460 0.961 . S
H447 C461 0.960 . S
H448 C461 0.961 . S
H449 C461 0.959 . S
H450 C464 0.929 . S
H451 C465 0.931 . S
H452 C467 0.930 . S
C453 H441 0.930 . S
C453 C454 1.399 . S
C453 C458 1.399 . S
C454 C453 1.399 . S
C454 C455 1.376 . S
C455 H442 0.930 . S
C455 C454 1.376 . S
C455 C456 1.388 . S
C456 H443 0.930 . S
C456 C455 1.388 . S
C456 C457 1.390 . S
C457 C456 1.390 . S
C457 C458 1.394 . S
C457 C463 1.465 . S
C458 C453 1.399 . S
C458 C457 1.394 . S
C458 C459 1.516 . S
C459 C458 1.516 . S
C459 C460 1.502 . S
C459 C461 1.561 . S
C459 C462 1.526 . S
C460 H444 0.959 . S
C460 H445 0.959 . S
C460 H446 0.961 . S
C460 C459 1.502 . S
C461 H447 0.960 . S
C461 H448 0.961 . S
C461 H449 0.959 . S
C461 C459 1.561 . S
C462 C459 1.526 . S
C462 C463 1.396 . S
C462 C467 1.390 . S
C463 C457 1.465 . S
C463 C462 1.396 . S
C463 C464 1.399 . S
C464 H450 0.929 . S
C464 C463 1.399 . S
C464 C465 1.385 . S
C465 H451 0.931 . S
C465 C464 1.385 . S
C465 C466 1.389 . S
C466 C465 1.389 . S
C466 C467 1.387 . S
C467 H452 0.930 . S
C467 C462 1.390 . S
C467 C466 1.387 . S
H468 C480 0.930 . S
H469 C482 0.930 . S
H470 C483 0.930 . S
H471 C487 0.959 . S
H472 C487 0.959 . S
H473 C487 0.961 . S
H474 C488 0.960 . S
H475 C488 0.961 . S
H476 C488 0.959 . S
H477 C491 0.929 . S
H478 C492 0.931 . S
H479 C494 0.930 . S
C480 H468 0.930 . S
C480 C481 1.399 . S
C480 C485 1.399 . S
C481 C480 1.399 . S
C481 C482 1.376 . S
C482 H469 0.930 . S
C482 C481 1.376 . S
C482 C483 1.388 . S
C483 H470 0.930 . S
C483 C482 1.388 . S
C483 C484 1.390 . S
C484 C483 1.390 . S
C484 C485 1.394 . S
C484 C490 1.465 . S
C485 C480 1.399 . S
C485 C484 1.394 . S
C485 C486 1.516 . S
C486 C485 1.516 . S
C486 C487 1.502 . S
C486 C488 1.561 . S
C486 C489 1.526 . S
C487 H471 0.959 . S
C487 H472 0.959 . S
C487 H473 0.961 . S
C487 C486 1.502 . S
C488 H474 0.960 . S
C488 H475 0.961 . S
C488 H476 0.959 . S
C488 C486 1.561 . S
C489 C486 1.526 . S
C489 C490 1.396 . S
C489 C494 1.390 . S
C490 C484 1.465 . S
C490 C489 1.396 . S
C490 C491 1.399 . S
C491 H477 0.929 . S
C491 C490 1.399 . S
C491 C492 1.385 . S
C492 H478 0.931 . S
C492 C491 1.385 . S
C492 C493 1.389 . S
C493 C492 1.389 . S
C493 C494 1.387 . S
C494 H479 0.930 . S
C494 C489 1.390 . S
C494 C493 1.387 . S
H495 C507 0.930 . S
H496 C509 0.930 . S
H497 C510 0.930 . S
H498 C514 0.959 . S
H499 C514 0.959 . S
H500 C514 0.961 . S
H501 C515 0.960 . S
H502 C515 0.961 . S
H503 C515 0.959 . S
H504 C518 0.929 . S
H505 C519 0.931 . S
H506 C521 0.930 . S
C507 H495 0.930 . S
C507 C508 1.399 . S
C507 C512 1.399 . S
C508 C507 1.399 . S
C508 C509 1.376 . S
C509 H496 0.930 . S
C509 C508 1.376 . S
C509 C510 1.388 . S
C510 H497 0.930 . S
C510 C509 1.388 . S
C510 C511 1.390 . S
C511 C510 1.390 . S
C511 C512 1.394 . S
C511 C517 1.465 . S
C512 C507 1.399 . S
C512 C511 1.394 . S
C512 C513 1.516 . S
C513 C512 1.516 . S
C513 C514 1.502 . S
C513 C515 1.561 . S
C513 C516 1.526 . S
C514 H498 0.959 . S
C514 H499 0.959 . S
C514 H500 0.961 . S
C514 C513 1.502 . S
C515 H501 0.960 . S
C515 H502 0.961 . S
C515 H503 0.959 . S
C515 C513 1.561 . S
C516 C513 1.526 . S
C516 C517 1.396 . S
C516 C521 1.390 . S
C517 C511 1.465 . S
C517 C516 1.396 . S
C517 C518 1.399 . S
C518 H504 0.929 . S
C518 C517 1.399 . S
C518 C519 1.385 . S
C519 H505 0.931 . S
C519 C518 1.385 . S
C519 C520 1.389 . S
C520 C519 1.389 . S
C520 C521 1.387 . S
C521 H506 0.930 . S
C521 C516 1.390 . S
C521 C520 1.387 . S
H522 C534 0.930 . S
H523 C536 0.930 . S
H524 C537 0.929 . S
H525 C541 0.959 1_655 S
H526 C541 0.959 1_556 S
H527 C541 0.961 . S
H528 C542 0.960 . S
H529 C542 0.961 1_556 S
H530 C542 0.959 . S
H531 C545 0.929 1_655 S
H532 C546 0.931 . S
H533 C548 0.930 . S
C534 H522 0.930 . S
C534 C535 1.399 . S
C534 C539 1.399 . S
C535 C534 1.399 . S
C535 C536 1.376 1_455 S
C536 H523 0.930 . S
C536 C535 1.376 1_655 S
C536 C537 1.389 . S
C537 H524 0.929 . S
C537 C536 1.389 . S
C537 C538 1.390 1_655 S
C538 C537 1.390 1_455 S
C538 C539 1.394 . S
C538 C544 1.465 1_554 S
C539 C534 1.399 . S
C539 C538 1.394 . S
C539 C540 1.516 . S
C540 C539 1.516 . S
C540 C541 1.502 . S
C540 C542 1.561 . S
C540 C543 1.526 1_554 S
C541 H525 0.959 1_455 S
C541 H526 0.959 1_554 S
C541 H527 0.961 . S
C541 C540 1.502 . S
C542 H528 0.960 . S
C542 H529 0.961 1_554 S
C542 H530 0.959 . S
C542 C540 1.561 . S
C543 C540 1.526 1_556 S
C543 C544 1.396 . S
C543 C548 1.390 . S
C544 C538 1.465 1_556 S
C544 C543 1.396 . S
C544 C545 1.399 . S
C545 H531 0.929 1_455 S
C545 C544 1.399 . S
C545 C546 1.385 . S
C546 H532 0.931 . S
C546 C545 1.385 . S
C546 C547 1.389 . S
C547 C546 1.389 . S
C547 C548 1.387 . S
C548 H533 0.930 . S
C548 C543 1.390 . S
C548 C547 1.387 . S
H549 C561 0.930 . S
H550 C563 0.930 1_565 S
H551 C564 0.930 . S
H552 C568 0.959 . S
H553 C568 0.959 . S
H554 C568 0.961 . S
H555 C569 0.960 . S
H556 C569 0.961 . S
H557 C569 0.959 . S
H558 C572 0.929 . S
H559 C573 0.931 . S
H560 C575 0.930 . S
C561 H549 0.930 . S
C561 C562 1.399 . S
C561 C566 1.399 . S
C562 C561 1.399 . S
C562 C563 1.376 . S
C563 H550 0.930 1_545 S
C563 C562 1.376 . S
C563 C564 1.388 1_545 S
C564 H551 0.930 . S
C564 C563 1.388 1_565 S
C564 C565 1.390 1_565 S
C565 C564 1.390 1_545 S
C565 C566 1.394 . S
C565 C571 1.465 . S
C566 C561 1.399 . S
C566 C565 1.394 . S
C566 C567 1.516 . S
C567 C566 1.516 . S
C567 C568 1.502 . S
C567 C569 1.561 . S
C567 C570 1.526 . S
C568 H552 0.959 . S
C568 H553 0.959 . S
C568 H554 0.961 . S
C568 C567 1.502 . S
C569 H555 0.960 . S
C569 H556 0.961 . S
C569 H557 0.959 . S
C569 C567 1.561 . S
C570 C567 1.526 . S
C570 C571 1.396 . S
C570 C575 1.390 . S
C571 C565 1.465 . S
C571 C570 1.396 . S
C571 C572 1.399 1_545 S
C572 H558 0.929 . S
C572 C571 1.399 1_565 S
C572 C573 1.385 . S
C573 H559 0.931 . S
C573 C572 1.385 . S
C573 C574 1.389 1_565 S
C574 C573 1.389 1_545 S
C574 C575 1.387 . S
C575 H560 0.930 . S
C575 C570 1.390 . S
C575 C574 1.387 . S
H576 C588 0.930 . S
H577 C590 0.930 . S
H578 C591 0.930 . S
H579 C595 0.959 . S
H580 C595 0.959 . S
H581 C595 0.961 . S
H582 C596 0.960 . S
H583 C596 0.961 . S
H584 C596 0.959 . S
H585 C599 0.929 . S
H586 C600 0.931 . S
H587 C602 0.930 . S
C588 H576 0.930 . S
C588 C589 1.399 . S
C588 C593 1.399 . S
C589 C588 1.399 . S
C589 C590 1.376 . S
C590 H577 0.930 . S
C590 C589 1.376 . S
C590 C591 1.388 . S
C591 H578 0.930 . S
C591 C590 1.388 . S
C591 C592 1.390 . S
C592 C591 1.390 . S
C592 C593 1.394 . S
C592 C598 1.465 . S
C593 C588 1.399 . S
C593 C592 1.394 . S
C593 C594 1.516 . S
C594 C593 1.516 . S
C594 C595 1.502 . S
C594 C596 1.561 . S
C594 C597 1.526 . S
C595 H579 0.959 . S
C595 H580 0.959 . S
C595 H581 0.961 . S
C595 C594 1.502 . S
C596 H582 0.960 . S
C596 H583 0.961 . S
C596 H584 0.959 . S
C596 C594 1.561 . S
C597 C594 1.526 . S
C597 C598 1.396 . S
C597 C602 1.390 . S
C598 C592 1.465 . S
C598 C597 1.396 . S
C598 C599 1.399 . S
C599 H585 0.929 . S
C599 C598 1.399 . S
C599 C600 1.385 . S
C600 H586 0.931 . S
C600 C599 1.385 . S
C600 C601 1.389 . S
C601 C600 1.389 . S
C601 C602 1.387 . S
C602 H587 0.930 . S
C602 C597 1.390 . S
C602 C601 1.387 . S
H603 C615 0.930 . S
H604 C617 0.930 . S
H605 C618 0.930 . S
H606 C622 0.959 . S
H607 C622 0.959 . S
H608 C622 0.961 . S
H609 C623 0.960 . S
H610 C623 0.961 . S
H611 C623 0.959 . S
H612 C626 0.929 . S
H613 C627 0.931 . S
H614 C629 0.930 . S
C615 H603 0.930 . S
C615 C616 1.399 . S
C615 C620 1.399 . S
C616 C615 1.399 . S
C616 C617 1.376 1_545 S
C617 H604 0.930 . S
C617 C616 1.376 1_565 S
C617 C618 1.388 . S
C618 H605 0.930 . S
C618 C617 1.388 . S
C618 C619 1.390 1_565 S
C619 C618 1.390 1_545 S
C619 C620 1.394 . S
C619 C625 1.465 . S
C620 C615 1.399 . S
C620 C619 1.394 . S
C620 C621 1.516 . S
C621 C620 1.516 . S
C621 C622 1.502 . S
C621 C623 1.561 . S
C621 C624 1.526 . S
C622 H606 0.959 . S
C622 H607 0.959 . S
C622 H608 0.961 . S
C622 C621 1.502 . S
C623 H609 0.960 . S
C623 H610 0.961 . S
C623 H611 0.959 . S
C623 C621 1.561 . S
C624 C621 1.526 . S
C624 C625 1.396 . S
C624 C629 1.390 . S
C625 C619 1.465 . S
C625 C624 1.396 . S
C625 C626 1.399 1_545 S
C626 H612 0.929 . S
C626 C625 1.399 1_565 S
C626 C627 1.385 . S
C627 H613 0.931 . S
C627 C626 1.385 . S
C627 C628 1.389 1_565 S
C628 C627 1.389 1_545 S
C628 C629 1.387 . S
C629 H614 0.930 . S
C629 C624 1.390 . S
C629 C628 1.387 . S
H630 C642 0.930 . S
H631 C644 0.930 . S
H632 C645 0.930 . S
H633 C649 0.959 . S
H634 C649 0.959 1_554 S
H635 C649 0.961 . S
H636 C650 0.960 . S
H637 C650 0.961 1_554 S
H638 C650 0.959 . S
H639 C653 0.929 . S
H640 C654 0.931 . S
H641 C656 0.930 . S
C642 H630 0.930 . S
C642 C643 1.399 . S
C642 C647 1.399 . S
C643 C642 1.399 . S
C643 C644 1.376 . S
C644 H631 0.930 . S
C644 C643 1.376 . S
C644 C645 1.388 . S
C645 H632 0.930 . S
C645 C644 1.388 . S
C645 C646 1.390 . S
C646 C645 1.390 . S
C646 C647 1.394 . S
C646 C652 1.465 . S
C647 C642 1.399 . S
C647 C646 1.394 . S
C647 C648 1.516 . S
C648 C647 1.516 . S
C648 C649 1.502 . S
C648 C650 1.561 . S
C648 C651 1.526 1_556 S
C649 H633 0.959 . S
C649 H634 0.959 1_556 S
C649 H635 0.961 . S
C649 C648 1.502 . S
C650 H636 0.960 . S
C650 H637 0.961 1_556 S
C650 H638 0.959 . S
C650 C648 1.561 . S
C651 C648 1.526 1_554 S
C651 C652 1.396 1_554 S
C651 C656 1.390 . S
C652 C646 1.465 . S
C652 C651 1.396 1_556 S
C652 C653 1.399 1_556 S
C653 H639 0.929 . S
C653 C652 1.399 1_554 S
C653 C654 1.385 . S
C654 H640 0.931 . S
C654 C653 1.385 . S
C654 C655 1.389 . S
C655 C654 1.389 . S
C655 C656 1.387 . S
C656 H641 0.930 . S
C656 C651 1.390 . S
C656 C655 1.387 . S
H657 C669 0.930 . S
H658 C671 0.930 . S
H659 C672 0.930 . S
H660 C676 0.959 . S
H661 C676 0.959 . S
H662 C676 0.961 . S
H663 C677 0.960 . S
H664 C677 0.961 . S
H665 C677 0.959 . S
H666 C680 0.929 . S
H667 C681 0.931 . S
H668 C683 0.930 . S
C669 H657 0.930 . S
C669 C670 1.399 1_455 S
C669 C674 1.399 . S
C670 C669 1.399 1_655 S
C670 C671 1.376 . S
C671 H658 0.930 . S
C671 C670 1.376 . S
C671 C672 1.388 . S
C672 H659 0.930 . S
C672 C671 1.388 . S
C672 C673 1.390 . S
C673 C672 1.390 . S
C673 C674 1.394 1_655 S
C673 C679 1.465 . S
C674 C669 1.399 . S
C674 C673 1.394 1_455 S
C674 C675 1.516 . S
C675 C674 1.516 . S
C675 C676 1.502 . S
C675 C677 1.561 . S
C675 C678 1.526 . S
C676 H660 0.959 . S
C676 H661 0.959 . S
C676 H662 0.961 . S
C676 C675 1.502 . S
C677 H663 0.960 . S
C677 H664 0.961 . S
C677 H665 0.959 . S
C677 C675 1.561 . S
C678 C675 1.526 . S
C678 C679 1.396 1_455 S
C678 C683 1.390 . S
C679 C673 1.465 . S
C679 C678 1.396 1_655 S
C679 C680 1.399 . S
C680 H666 0.929 . S
C680 C679 1.399 . S
C680 C681 1.385 . S
C681 H667 0.931 . S
C681 C680 1.385 . S
C681 C682 1.389 1_655 S
C682 C681 1.389 1_455 S
C682 C683 1.387 . S
C683 H668 0.930 . S
C683 C678 1.390 . S
C683 C682 1.387 . S
C211 C9 0.321 . S
C223 N187 0.348 . S
C238 C49 0.217 . S
C250 N160 0.423 1_655 S
C265 C89 0.363 . S
C277 N173 0.239 . S
C292 C26 0.666 . S
C304 N186 0.572 . S
C331 N161 0.683 . S
C319 C66 0.574 . S
C358 N174 0.595 . S
C346 C106 0.768 . S
C373 C43 2.863 . S
C385 N134 2.862 . S
C400 C83 2.792 . S
C412 N148 2.734 . S
C427 C22 3.145 . S
C439 N122 3.114 . S
C466 N135 3.107 . S
C454 C62 3.140 . S
C493 N147 3.274 . S
C481 C102 3.268 . S
C508 C3 2.856 . S
C520 N121 2.864 . S
C547 N151 1.773 . S
C535 C15 1.788 . S
C562 C55 1.717 . S
C574 N125 1.765 . S
C589 C95 1.736 . S
C601 N138 1.782 . S
C628 N177 1.256 . S
C616 C42 1.261 . S
C655 N190 1.184 . S
C643 C82 1.218 . S
C670 C2 1.248 1_655 S
C682 N164 1.250 . S
