# Generated by pormake.
# Topology wbl, (4,4)-cn, num edge types: 1
# Building blocks:
#     Node 0, Type 0, BuildingBlock: MIFKUJ_clean_linker_1, # of connection points: 4
#     Node 1, Type 0, BuildingBlock: MIFKUJ_clean_linker_1, # of connection points: 4
#     Node 2, Type 0, BuildingBlock: MIFKUJ_clean_linker_1, # of connection points: 4
#     Node 3, Type 0, BuildingBlock: MIFKUJ_clean_linker_1, # of connection points: 4
#     Node 4, Type 0, BuildingBlock: MIFKUJ_clean_linker_1, # of connection points: 4
#     Node 5, Type 0, BuildingBlock: MIFKUJ_clean_linker_1, # of connection points: 4
#     Node 6, Type 0, BuildingBlock: MIFKUJ_clean_linker_1, # of connection points: 4
#     Node 7, Type 0, BuildingBlock: MIFKUJ_clean_linker_1, # of connection points: 4
#     Node 8, Type 1, BuildingBlock: KUFVIS_clean_sbu_0, # of connection points: 4
#     Node 9, Type 1, BuildingBlock: KUFVIS_clean_sbu_0, # of connection points: 4
#     Node 10, Type 1, BuildingBlock: KUFVIS_clean_sbu_0, # of connection points: 4
#     Node 11, Type 1, BuildingBlock: KUFVIS_clean_sbu_0, # of connection points: 4
#     Node 12, Type 1, BuildingBlock: KUFVIS_clean_sbu_0, # of connection points: 4
#     Node 13, Type 1, BuildingBlock: KUFVIS_clean_sbu_0, # of connection points: 4
#     Node 14, Type 1, BuildingBlock: KUFVIS_clean_sbu_0, # of connection points: 4
#     Node 15, Type 1, BuildingBlock: KUFVIS_clean_sbu_0, # of connection points: 4
#     Edge 16, Type (0, 1), BuildingBlock: XIVTED_clean_linker_0, # of connection points: 2
#     Edge 17, Type (0, 1), BuildingBlock: XIVTED_clean_linker_0, # of connection points: 2
#     Edge 18, Type (0, 1), BuildingBlock: XIVTED_clean_linker_0, # of connection points: 2
#     Edge 19, Type (0, 1), BuildingBlock: XIVTED_clean_linker_0, # of connection points: 2
#     Edge 20, Type (0, 1), BuildingBlock: XIVTED_clean_linker_0, # of connection points: 2
#     Edge 21, Type (0, 1), BuildingBlock: XIVTED_clean_linker_0, # of connection points: 2
#     Edge 22, Type (0, 1), BuildingBlock: XIVTED_clean_linker_0, # of connection points: 2
#     Edge 23, Type (0, 1), BuildingBlock: XIVTED_clean_linker_0, # of connection points: 2
#     Edge 24, Type (0, 1), BuildingBlock: XIVTED_clean_linker_0, # of connection points: 2
#     Edge 25, Type (0, 1), BuildingBlock: XIVTED_clean_linker_0, # of connection points: 2
#     Edge 26, Type (0, 1), BuildingBlock: XIVTED_clean_linker_0, # of connection points: 2
#     Edge 27, Type (0, 1), BuildingBlock: XIVTED_clean_linker_0, # of connection points: 2
#     Edge 28, Type (0, 1), BuildingBlock: XIVTED_clean_linker_0, # of connection points: 2
#     Edge 29, Type (0, 1), BuildingBlock: XIVTED_clean_linker_0, # of connection points: 2
#     Edge 30, Type (0, 1), BuildingBlock: XIVTED_clean_linker_0, # of connection points: 2
#     Edge 31, Type (0, 1), BuildingBlock: XIVTED_clean_linker_0, # of connection points: 2
#     Edge 32, Type (0, 1), BuildingBlock: XIVTED_clean_linker_0, # of connection points: 2
#     Edge 33, Type (0, 1), BuildingBlock: XIVTED_clean_linker_0, # of connection points: 2
#     Edge 34, Type (0, 1), BuildingBlock: XIVTED_clean_linker_0, # of connection points: 2
#     Edge 35, Type (0, 1), BuildingBlock: XIVTED_clean_linker_0, # of connection points: 2
#     Edge 36, Type (0, 1), BuildingBlock: XIVTED_clean_linker_0, # of connection points: 2
#     Edge 37, Type (0, 1), BuildingBlock: XIVTED_clean_linker_0, # of connection points: 2
#     Edge 38, Type (0, 1), BuildingBlock: XIVTED_clean_linker_0, # of connection points: 2
#     Edge 39, Type (0, 1), BuildingBlock: XIVTED_clean_linker_0, # of connection points: 2
#     Edge 40, Type (0, 1), BuildingBlock: XIVTED_clean_linker_0, # of connection points: 2
#     Edge 41, Type (0, 1), BuildingBlock: XIVTED_clean_linker_0, # of connection points: 2
#     Edge 42, Type (0, 1), BuildingBlock: XIVTED_clean_linker_0, # of connection points: 2
#     Edge 43, Type (0, 1), BuildingBlock: XIVTED_clean_linker_0, # of connection points: 2
#     Edge 44, Type (0, 1), BuildingBlock: XIVTED_clean_linker_0, # of connection points: 2
#     Edge 45, Type (0, 1), BuildingBlock: XIVTED_clean_linker_0, # of connection points: 2
#     Edge 46, Type (0, 1), BuildingBlock: XIVTED_clean_linker_0, # of connection points: 2
#     Edge 47, Type (0, 1), BuildingBlock: XIVTED_clean_linker_0, # of connection points: 2
# Relax obj value: 0.148
# Max RMSD: 0.142
# Mean RMSD: 0.130
data_MOF--net-wbl--node1-KUFVIS_clean_sbu_0--node2-MIFKUJ_clean_linker_1--edge1-XIVTED_clean_linker_0
_symmetry_space_group_name_H-M    P1
_symmetry_Int_Tables_number       1
_symmetry_cell_setting            triclinic
loop_
_symmetry_equiv_pos_as_xyz
'x, y, z'
_cell_length_a     46.27655
_cell_length_b     46.258822
_cell_length_c     74.417049
_cell_angle_alpha  90.040254
_cell_angle_beta   90.622412
_cell_angle_gamma 90.015659
loop_
_atom_site_label
_atom_site_type_symbol
_atom_site_fract_x
_atom_site_fract_y
_atom_site_fract_z
_atom_type_partial_charge
H0 H 0.00987 0.08426 0.34699 0.0
H1 H 0.9774 0.1057 0.36894 0.0
H2 H 0.90786 0.05158 0.34915 0.0
H3 H 0.94074 0.02962 0.32757 0.0
H4 H 0.02339 0.02693 0.348 0.0
H5 H 0.98306 0.09315 0.30344 0.0
H6 H 0.94085 0.11563 0.28918 0.0
H7 H 0.91095 0.03128 0.27206 0.0
H8 H 0.95356 0.00925 0.28587 0.0
H9 H 0.02968 0.95806 0.28296 0.0
H10 H 0.06677 0.93101 0.26653 0.0
H11 H 0.13243 0.98787 0.28834 0.0
H12 H 0.09553 0.01474 0.30445 0.0
H13 H 0.0129 0.01589 0.28194 0.0
H14 H 0.04499 0.94884 0.32645 0.0
H15 H 0.07306 0.92094 0.34835 0.0
H16 H 0.11199 0.99995 0.36814 0.0
H17 H 0.08302 0.02769 0.34662 0.0
C18 C 0.97774 0.05539 0.33562 0.0
C19 C 0.98748 0.07741 0.34717 0.0
C20 C 0.96881 0.0898 0.35963 0.0
C21 C 0.94005 0.08025 0.36087 0.0
C22 C 0.92997 0.05919 0.34866 0.0
C23 C 0.94867 0.04682 0.33619 0.0
C24 C 0.99874 0.03918 0.32455 0.0
C25 C 0.02151 0.02513 0.33349 0.0
C26 C 0.99535 0.03555 0.30577 0.0
C27 C 0.9713 0.04953 0.29579 0.0
C28 C 0.96751 0.07961 0.29643 0.0
C29 C 0.94328 0.09239 0.28835 0.0
C30 C 0.92233 0.0753 0.27953 0.0
C31 C 0.92678 0.04523 0.27846 0.0
C32 C 0.95111 0.03252 0.28641 0.0
C33 C 0.05991 0.98828 0.29499 0.0
C34 C 0.05207 0.96474 0.28405 0.0
C35 C 0.07324 0.94925 0.27478 0.0
C36 C 0.10248 0.95741 0.27608 0.0
C37 C 0.11007 0.98129 0.28684 0.0
C38 C 0.08903 0.99652 0.29619 0.0
C39 C 0.03801 0.00429 0.30543 0.0
C40 C 0.01507 0.01815 0.2964 0.0
C41 C 0.04082 0.00737 0.32425 0.0
C42 C 0.06186 0.99032 0.33499 0.0
C43 C 0.06009 0.96004 0.33524 0.0
C44 C 0.07623 0.94411 0.34776 0.0
C45 C 0.09449 0.95822 0.36022 0.0
C46 C 0.09761 0.98843 0.35906 0.0
C47 C 0.08126 0.00434 0.34668 0.0
H48 H 0.00672 0.44417 0.53075 0.0
H49 H 0.98523 0.40286 0.51518 0.0
H50 H 0.90247 0.42314 0.53851 0.0
H51 H 0.92373 0.46541 0.55307 0.0
H52 H 0.00048 0.50049 0.5306 0.0
H53 H 0.98656 0.42576 0.5761 0.0
H54 H 0.9638 0.39255 0.59733 0.0
H55 H 0.90852 0.46174 0.61547 0.0
H56 H 0.93082 0.49445 0.594 0.0
H57 H 0.98391 0.56913 0.59373 0.0
H58 H 0.00883 0.60038 0.61537 0.0
H59 H 0.09058 0.56301 0.59994 0.0
H60 H 0.06549 0.53276 0.57786 0.0
H61 H 0.98796 0.50807 0.59657 0.0
H62 H 0.99309 0.57953 0.54975 0.0
H63 H 0.01843 0.61907 0.53492 0.0
H64 H 0.08903 0.56148 0.52272 0.0
H65 H 0.06317 0.52163 0.53754 0.0
C66 C 0.96702 0.45758 0.54341 0.0
C67 C 0.98383 0.44 0.53226 0.0
C68 C 0.97154 0.41618 0.5235 0.0
C69 C 0.94217 0.4093 0.52579 0.0
C70 C 0.92509 0.42777 0.53631 0.0
C71 C 0.93734 0.45177 0.5449 0.0
C72 C 0.98076 0.48126 0.55395 0.0
C73 C 0.99797 0.5018 0.54505 0.0
C74 C 0.97684 0.48384 0.57275 0.0
C75 C 0.96036 0.46256 0.58347 0.0
C76 C 0.96902 0.43351 0.58433 0.0
C77 C 0.95615 0.41464 0.59657 0.0
C78 C 0.93446 0.42453 0.60819 0.0
C79 C 0.92489 0.45327 0.60661 0.0
C80 C 0.93777 0.47209 0.59442 0.0
C81 C 0.02288 0.54868 0.58424 0.0
C82 C 0.00726 0.56819 0.59478 0.0
C83 C 0.02156 0.58585 0.60723 0.0
C84 C 0.05172 0.58393 0.60964 0.0
C85 C 0.06742 0.56535 0.59837 0.0
C86 C 0.0531 0.54793 0.58575 0.0
C87 C 0.00749 0.52677 0.57325 0.0
C88 C 0.99022 0.50659 0.58209 0.0
C89 C 0.0111 0.52466 0.55452 0.0
C90 C 0.02623 0.54773 0.54462 0.0
C91 C 0.01388 0.57535 0.54372 0.0
C92 C 0.02835 0.59786 0.53521 0.0
C93 C 0.05563 0.59328 0.5276 0.0
C94 C 0.06805 0.56556 0.52851 0.0
C95 C 0.05328 0.54283 0.53683 0.0
H96 H 0.47414 0.57552 0.82225 0.0
H97 H 0.44179 0.60039 0.84302 0.0
H98 H 0.42679 0.51955 0.87053 0.0
H99 H 0.45815 0.49488 0.84945 0.0
H100 H 0.5136 0.50377 0.84665 0.0
H101 H 0.48715 0.56479 0.78116 0.0
H102 H 0.4438 0.58454 0.76614 0.0
H103 H 0.39206 0.51783 0.79058 0.0
H104 H 0.43513 0.49844 0.8055 0.0
H105 H 0.53164 0.4508 0.77728 0.0
H106 H 0.57164 0.42793 0.76119 0.0
H107 H 0.63232 0.48197 0.79027 0.0
H108 H 0.5924 0.50487 0.80604 0.0
H109 H 0.51159 0.50626 0.78001 0.0
H110 H 0.55165 0.43408 0.81818 0.0
H111 H 0.58269 0.40539 0.83796 0.0
H112 H 0.59631 0.48054 0.87169 0.0
H113 H 0.56738 0.50935 0.85112 0.0
C114 C 0.46852 0.53331 0.83428 0.0
C115 C 0.46328 0.56309 0.83249 0.0
C116 C 0.44502 0.57733 0.84449 0.0
C117 C 0.43171 0.56203 0.85849 0.0
C118 C 0.43625 0.53201 0.85977 0.0
C119 C 0.45443 0.51785 0.84781 0.0
C120 C 0.49068 0.51872 0.8232 0.0
C121 C 0.51337 0.50447 0.83207 0.0
C122 C 0.48974 0.51888 0.80423 0.0
C123 C 0.46422 0.53024 0.79443 0.0
C124 C 0.46645 0.55439 0.78313 0.0
C125 C 0.44174 0.56571 0.77467 0.0
C126 C 0.41464 0.55263 0.77716 0.0
C127 C 0.4127 0.52814 0.78825 0.0
C128 C 0.43723 0.51713 0.79684 0.0
C129 C 0.55909 0.47939 0.79292 0.0
C130 C 0.55356 0.45791 0.77999 0.0
C131 C 0.57641 0.44473 0.77092 0.0
C132 C 0.60513 0.45314 0.77446 0.0
C133 C 0.61045 0.47523 0.78707 0.0
C134 C 0.58767 0.48821 0.7962 0.0
C135 C 0.53523 0.49192 0.80354 0.0
C136 C 0.51221 0.50586 0.79458 0.0
C137 C 0.53543 0.49067 0.82256 0.0
C138 C 0.55725 0.47399 0.83307 0.0
C139 C 0.56219 0.44459 0.82948 0.0
C140 C 0.57959 0.42804 0.84103 0.0
C141 C 0.59194 0.44041 0.85662 0.0
C142 C 0.58774 0.47014 0.85974 0.0
C143 C 0.57082 0.48671 0.84805 0.0
H144 H 0.501 0.93471 0.03902 0.0
H145 H 0.47715 0.8949 0.02335 0.0
H146 H 0.39451 0.93691 0.03072 0.0
H147 H 0.41866 0.97567 0.04739 0.0
H148 H 0.49753 0.99971 0.03328 0.0
H149 H 0.47771 0.92284 0.07653 0.0
H150 H 0.45336 0.88996 0.09718 0.0
H151 H 0.40008 0.96056 0.11555 0.0
H152 H 0.42391 0.99297 0.09454 0.0
H153 H 0.48299 0.06126 0.10032 0.0
H154 H 0.50963 0.09025 0.12233 0.0
H155 H 0.58992 0.05404 0.10341 0.0
H156 H 0.56304 0.02579 0.08101 0.0
H157 H 0.4826 0.00246 0.09918 0.0
H158 H 0.50464 0.07999 0.0623 0.0
H159 H 0.53551 0.11726 0.04953 0.0
H160 H 0.58123 0.05238 0.01943 0.0
H161 H 0.55131 0.01448 0.03314 0.0
C162 C 0.46155 0.95795 0.0444 0.0
C163 C 0.47778 0.93539 0.03705 0.0
C164 C 0.46402 0.91271 0.02797 0.0
C165 C 0.43373 0.91243 0.02573 0.0
C166 C 0.41774 0.93591 0.03247 0.0
C167 C 0.4315 0.95828 0.04187 0.0
C168 C 0.47587 0.98009 0.0557 0.0
C169 C 0.49453 0.00024 0.04771 0.0
C170 C 0.47098 0.9814 0.07438 0.0
C171 C 0.45255 0.96033 0.08395 0.0
C172 C 0.46007 0.93096 0.08453 0.0
C173 C 0.44635 0.91227 0.0965 0.0
C174 C 0.42497 0.92269 0.10817 0.0
C175 C 0.41621 0.9517 0.10667 0.0
C176 C 0.42993 0.97034 0.09472 0.0
C177 C 0.52104 0.04136 0.08909 0.0
C178 C 0.50635 0.05984 0.10081 0.0
C179 C 0.52163 0.07627 0.11343 0.0
C180 C 0.55192 0.0742 0.11481 0.0
C181 C 0.56666 0.05639 0.10262 0.0
C182 C 0.55133 0.04012 0.08985 0.0
C183 C 0.50453 0.02193 0.07693 0.0
C184 C 0.48543 0.00225 0.08472 0.0
C185 C 0.50858 0.0216 0.0581 0.0
C186 C 0.52612 0.04424 0.04912 0.0
C187 C 0.52164 0.07354 0.05325 0.0
C188 C 0.53917 0.09488 0.0459 0.0
C189 C 0.56092 0.08751 0.03377 0.0
C190 C 0.56469 0.05843 0.02891 0.0
C191 C 0.54753 0.03688 0.03665 0.0
H192 H 0.00448 0.57058 0.90675 0.0
H193 H 0.03756 0.59343 0.88579 0.0
H194 H 0.10658 0.53815 0.90496 0.0
H195 H 0.07298 0.51489 0.92573 0.0
H196 H 0.99206 0.5114 0.905 0.0
H197 H 0.03666 0.57927 0.94679 0.0
H198 H 0.08134 0.59779 0.9601 0.0
H199 H 0.09504 0.51568 0.98663 0.0
H200 H 0.05158 0.49669 0.97215 0.0
H201 H 0.97152 0.44376 0.96655 0.0
H202 H 0.9295 0.42059 0.9801 0.0
H203 H 0.87788 0.49581 0.96676 0.0
H204 H 0.91928 0.5173 0.95199 0.0
H205 H 0.99584 0.50732 0.97158 0.0
H206 H 0.9575 0.43782 0.93148 0.0
H207 H 0.92663 0.40954 0.9116 0.0
H208 H 0.90993 0.48609 0.8797 0.0
H209 H 0.93814 0.51466 0.90085 0.0
C210 C 0.03627 0.54107 0.91778 0.0
C211 C 0.02685 0.56367 0.90661 0.0
C212 C 0.04588 0.57689 0.89474 0.0
C213 C 0.07474 0.56762 0.89368 0.0
C214 C 0.08442 0.54562 0.90536 0.0
C215 C 0.06532 0.53243 0.9173 0.0
C216 C 0.01492 0.52521 0.92875 0.0
C217 C 0.99252 0.51093 0.91958 0.0
C218 C 0.01673 0.52332 0.94773 0.0
C219 C 0.04119 0.53628 0.95801 0.0
C220 C 0.04938 0.56521 0.95541 0.0
C221 C 0.0748 0.57593 0.96326 0.0
C222 C 0.09221 0.5581 0.97422 0.0
C223 C 0.08271 0.5298 0.97785 0.0
C224 C 0.05759 0.51898 0.96975 0.0
C225 C 0.94824 0.48194 0.95803 0.0
C226 C 0.95107 0.45515 0.96667 0.0
C227 C 0.92699 0.44204 0.97451 0.0
C228 C 0.89987 0.45594 0.97429 0.0
C229 C 0.89792 0.48377 0.96664 0.0
C230 C 0.9217 0.49637 0.95837 0.0
C231 C 0.97233 0.49447 0.94774 0.0
C232 C 0.99519 0.50807 0.95701 0.0
C233 C 0.97142 0.49519 0.92875 0.0
C234 C 0.94983 0.47859 0.91795 0.0
C235 C 0.94607 0.44881 0.92073 0.0
C236 C 0.9289 0.43243 0.90898 0.0
C237 C 0.91588 0.44522 0.89375 0.0
C238 C 0.91902 0.47528 0.89134 0.0
C239 C 0.93554 0.49174 0.90337 0.0
H240 H 0.50684 0.55873 0.21788 0.0
H241 H 0.48176 0.59915 0.23183 0.0
H242 H 0.40022 0.56609 0.2116 0.0
H243 H 0.42579 0.52612 0.19722 0.0
H244 H 0.50068 0.49657 0.22018 0.0
H245 H 0.49087 0.57517 0.1741 0.0
H246 H 0.46429 0.608 0.15393 0.0
H247 H 0.41065 0.5368 0.13622 0.0
H248 H 0.43725 0.50425 0.1563 0.0
H249 H 0.51055 0.41751 0.17391 0.0
H250 H 0.53467 0.38589 0.15219 0.0
H251 H 0.5852 0.4585 0.13386 0.0
H252 H 0.56135 0.48963 0.15561 0.0
H253 H 0.49998 0.49669 0.15353 0.0
H254 H 0.49382 0.44033 0.22161 0.0
H255 H 0.51706 0.40051 0.23756 0.0
H256 H 0.59691 0.41852 0.21007 0.0
H257 H 0.57392 0.4595 0.19498 0.0
C258 C 0.4682 0.53958 0.20645 0.0
C259 C 0.48352 0.56 0.21669 0.0
C260 C 0.46906 0.58306 0.22472 0.0
C261 C 0.43888 0.58603 0.22283 0.0
C262 C 0.42348 0.56482 0.21309 0.0
C263 C 0.43802 0.54184 0.20496 0.0
C264 C 0.48412 0.51726 0.19628 0.0
C265 C 0.50058 0.49648 0.20561 0.0
C266 C 0.48353 0.51686 0.17733 0.0
C267 C 0.46595 0.53737 0.16663 0.0
C268 C 0.47309 0.56682 0.16605 0.0
C269 C 0.45799 0.58547 0.15452 0.0
C270 C 0.43539 0.57493 0.14355 0.0
C271 C 0.42769 0.5456 0.14468 0.0
C272 C 0.44298 0.52696 0.15603 0.0
C273 C 0.53423 0.45586 0.16634 0.0
C274 C 0.5273 0.42636 0.16547 0.0
C275 C 0.54095 0.40841 0.15299 0.0
C276 C 0.5618 0.4197 0.14125 0.0
C277 C 0.56956 0.44898 0.14283 0.0
C278 C 0.55582 0.46687 0.15518 0.0
C279 C 0.51703 0.47611 0.17733 0.0
C280 C 0.50019 0.49657 0.16812 0.0
C281 C 0.51673 0.47549 0.19635 0.0
C282 C 0.53192 0.45262 0.2068 0.0
C283 C 0.51646 0.43601 0.21921 0.0
C284 C 0.52973 0.41301 0.2282 0.0
C285 C 0.55877 0.40594 0.22491 0.0
C286 C 0.57457 0.42336 0.21302 0.0
C287 C 0.56132 0.44659 0.20415 0.0
H288 H 0.49074 0.93374 0.41177 0.0
H289 H 0.45923 0.90615 0.39156 0.0
H290 H 0.38813 0.96285 0.40426 0.0
H291 H 0.41997 0.99043 0.42464 0.0
H292 H 0.49978 0.99489 0.40585 0.0
H293 H 0.46243 0.92829 0.44982 0.0
H294 H 0.4218 0.90595 0.46505 0.0
H295 H 0.40068 0.98836 0.48904 0.0
H296 H 0.44019 0.01091 0.47273 0.0
H297 H 0.52063 0.0654 0.46865 0.0
H298 H 0.56302 0.08767 0.48351 0.0
H299 H 0.61658 0.0182 0.46401 0.0
H300 H 0.5746 0.99644 0.44916 0.0
H301 H 0.49759 0.00465 0.47222 0.0
H302 H 0.53344 0.07159 0.42915 0.0
H303 H 0.5661 0.09723 0.40904 0.0
H304 H 0.58683 0.01633 0.38304 0.0
H305 H 0.55528 0.99084 0.40365 0.0
C306 C 0.45763 0.96405 0.41967 0.0
C307 C 0.46822 0.9399 0.41044 0.0
C308 C 0.45016 0.92406 0.399 0.0
C309 C 0.42122 0.93235 0.39635 0.0
C310 C 0.41038 0.95607 0.40602 0.0
C311 C 0.42845 0.97174 0.41769 0.0
C312 C 0.478 0.98245 0.43001 0.0
C313 C 0.49947 0.99685 0.42038 0.0
C314 C 0.47664 0.98584 0.4489 0.0
C315 C 0.45388 0.97149 0.45967 0.0
C316 C 0.44886 0.94163 0.45821 0.0
C317 C 0.42584 0.92875 0.46721 0.0
C318 C 0.40762 0.94535 0.47818 0.0
C319 C 0.41375 0.97498 0.48039 0.0
C320 C 0.43656 0.9879 0.4712 0.0
C321 C 0.5446 0.02933 0.45785 0.0
C322 C 0.54152 0.05498 0.46773 0.0
C323 C 0.56567 0.06772 0.47608 0.0
C324 C 0.59298 0.05455 0.47495 0.0
C325 C 0.59575 0.02863 0.46527 0.0
C326 C 0.57183 0.01623 0.45675 0.0
C327 C 0.51993 0.01628 0.448 0.0
C328 C 0.49769 0.0029 0.45768 0.0
C329 C 0.52032 0.01391 0.42909 0.0
C330 C 0.54199 0.02924 0.41798 0.0
C331 C 0.54559 0.05931 0.41941 0.0
C332 C 0.56403 0.074 0.40775 0.0
C333 C 0.57909 0.0589 0.39437 0.0
C334 C 0.57599 0.02867 0.39334 0.0
C335 C 0.55768 0.01404 0.40501 0.0
H336 H 0.00711 0.0529 0.72187 0.0
H337 H 0.98254 0.09417 0.73512 0.0
H338 H 0.90082 0.06223 0.71446 0.0
H339 H 0.92592 0.02129 0.7008 0.0
H340 H 0.0008 0.99102 0.72425 0.0
H341 H 0.99046 0.06968 0.67791 0.0
H342 H 0.96323 0.10202 0.65778 0.0
H343 H 0.91091 0.02983 0.64007 0.0
H344 H 0.93817 0.99777 0.66015 0.0
H345 H 0.01531 0.91289 0.67814 0.0
H346 H 0.04168 0.88236 0.65692 0.0
H347 H 0.0896 0.95712 0.63919 0.0
H348 H 0.06359 0.98719 0.66056 0.0
H349 H 0.00178 0.99176 0.65757 0.0
H350 H 0.99585 0.92425 0.71717 0.0
H351 H 0.02205 0.88506 0.73188 0.0
H352 H 0.1027 0.92959 0.72218 0.0
H353 H 0.07608 0.96786 0.70649 0.0
C354 C 0.96837 0.03415 0.7103 0.0
C355 C 0.98383 0.05453 0.72049 0.0
C356 C 0.96966 0.07812 0.7281 0.0
C357 C 0.93961 0.0817 0.72584 0.0
C358 C 0.92401 0.06048 0.71623 0.0
C359 C 0.93827 0.03695 0.70852 0.0
C360 C 0.98427 0.01165 0.70025 0.0
C361 C 0.00096 0.99116 0.70968 0.0
C362 C 0.98408 0.01129 0.68127 0.0
C363 C 0.96625 0.03142 0.67046 0.0
C364 C 0.97285 0.061 0.66986 0.0
C365 C 0.95737 0.07936 0.65835 0.0
C366 C 0.93494 0.06841 0.6474 0.0
C367 C 0.92781 0.03894 0.64852 0.0
C368 C 0.94347 0.02058 0.65986 0.0
C369 C 0.03757 0.95226 0.67092 0.0
C370 C 0.03205 0.92247 0.67001 0.0
C371 C 0.04698 0.90513 0.65779 0.0
C372 C 0.06766 0.91733 0.6463 0.0
C373 C 0.07412 0.94692 0.64797 0.0
C374 C 0.05913 0.9642 0.6601 0.0
C375 C 0.01887 0.97168 0.68152 0.0
C376 C 0.00155 0.99155 0.67216 0.0
C377 C 0.01796 0.97091 0.70047 0.0
C378 C 0.03408 0.94881 0.71077 0.0
C379 C 0.01916 0.9256 0.71838 0.0
C380 C 0.03427 0.90329 0.72693 0.0
C381 C 0.06466 0.90399 0.72834 0.0
C382 C 0.07942 0.92792 0.72112 0.0
C383 C 0.06426 0.94999 0.71228 0.0
Mn384 Mn 0.33893 0.6728 0.0039 0.0
Mn385 Mn 0.35339 0.60233 0.0117 0.0
C386 C 0.34918 0.65703 0.03273 0.0
C387 C 0.35468 0.71923 0.99698 0.0
C388 C 0.29284 0.62526 0.00512 0.0
O389 O 0.34771 0.65754 0.97882 0.0
O390 O 0.3585 0.61129 0.98583 0.0
C391 C 0.41611 0.60391 0.00439 0.0
N392 N 0.394 0.59785 0.01571 0.0
C393 C 0.42706 0.58118 0.03864 0.0
C394 C 0.45019 0.58708 0.02718 0.0
C395 C 0.44469 0.59857 0.01001 0.0
C396 C 0.39906 0.58699 0.03231 0.0
H397 H 0.41195 0.61281 0.9912 0.0
C398 C 0.35542 0.63197 0.97452 0.0
O399 O 0.32789 0.71169 0.99446 0.0
O400 O 0.37236 0.69956 0.00283 0.0
N401 N 0.34935 0.59039 0.03617 0.0
C402 C 0.32467 0.58654 0.0457 0.0
C403 C 0.3264 0.57536 0.06323 0.0
C404 C 0.35342 0.56797 0.07068 0.0
C405 C 0.37847 0.57169 0.0605 0.0
C406 C 0.37538 0.58272 0.04307 0.0
H407 H 0.30383 0.59203 0.04 0.0
O408 O 0.33524 0.681 0.03019 0.0
O409 O 0.35677 0.64311 0.01837 0.0
O410 O 0.29976 0.65187 0.00345 0.0
O411 O 0.31124 0.6052 0.00814 0.0
C412 C 0.40642 0.56527 0.06706 0.0
C413 C 0.4307 0.57013 0.05616 0.0
H414 H 0.47226 0.58304 0.03147 0.0
H415 H 0.46243 0.6033 0.00112 0.0
H416 H 0.30697 0.57248 0.07098 0.0
H417 H 0.3547 0.55958 0.08425 0.0
H418 H 0.4095 0.55695 0.08055 0.0
H419 H 0.4521 0.56546 0.06144 0.0
Mn420 Mn 0.32614 0.83156 0.25666 0.0
Mn421 Mn 0.39757 0.84005 0.26461 0.0
C422 C 0.34305 0.84065 0.28548 0.0
C423 C 0.28152 0.8521 0.24945 0.0
C424 C 0.36951 0.78158 0.25829 0.0
O425 O 0.34181 0.83902 0.23164 0.0
O426 O 0.38887 0.84594 0.23859 0.0
C427 C 0.4015 0.90262 0.2567 0.0
N428 N 0.40551 0.88018 0.2683 0.0
C429 C 0.42444 0.91201 0.29116 0.0
C430 C 0.42069 0.93543 0.27941 0.0
C431 C 0.40911 0.93072 0.26213 0.0
C432 C 0.41653 0.88449 0.28498 0.0
H433 H 0.3925 0.89911 0.24343 0.0
C434 C 0.36779 0.84478 0.22727 0.0
O435 O 0.28607 0.82462 0.24712 0.0
O436 O 0.30298 0.86744 0.2554 0.0
N437 N 0.40899 0.83524 0.28924 0.0
C438 C 0.41009 0.81054 0.29919 0.0
C439 C 0.42076 0.8116 0.31692 0.0
C440 C 0.4303 0.83799 0.32421 0.0
C441 C 0.4292 0.86308 0.31366 0.0
C442 C 0.41862 0.86065 0.29602 0.0
H443 H 0.40265 0.79024 0.29369 0.0
O444 O 0.31801 0.82864 0.28299 0.0
O445 O 0.35736 0.84678 0.27106 0.0
O446 O 0.34358 0.79066 0.25629 0.0
O447 O 0.39106 0.79819 0.26145 0.0
C448 C 0.43772 0.89049 0.32007 0.0
C449 C 0.43527 0.91495 0.30884 0.0
H450 H 0.42642 0.95715 0.28357 0.0
H451 H 0.40602 0.94871 0.25302 0.0
H452 H 0.42148 0.79215 0.32498 0.0
H453 H 0.4382 0.83878 0.33796 0.0
H454 H 0.44579 0.89307 0.3337 0.0
H455 H 0.44151 0.93597 0.314 0.0
Mn456 Mn 0.1736 0.83588 0.49777 0.0
Mn457 Mn 0.10237 0.84465 0.48936 0.0
C458 C 0.15728 0.84792 0.46922 0.0
C459 C 0.21826 0.85601 0.50562 0.0
C460 C 0.1306 0.78586 0.49358 0.0
O461 O 0.15732 0.84105 0.52291 0.0
O462 O 0.11027 0.84755 0.51564 0.0
C463 C 0.0973 0.90605 0.5001 0.0
N464 N 0.09403 0.885 0.48744 0.0
C465 C 0.07541 0.91919 0.46587 0.0
C466 C 0.0784 0.9412 0.47873 0.0
C467 C 0.08945 0.9346 0.4959 0.0
C468 C 0.08345 0.89112 0.47087 0.0
H469 H 0.10589 0.9011 0.51329 0.0
C470 C 0.13104 0.84571 0.52715 0.0
O471 O 0.2137 0.82839 0.50717 0.0
O472 O 0.19664 0.87171 0.50035 0.0
N473 N 0.09189 0.84264 0.46442 0.0
C474 C 0.0919 0.81927 0.45327 0.0
C475 C 0.08218 0.82236 0.43543 0.0
C476 C 0.07246 0.84939 0.42927 0.0
C477 C 0.07246 0.87309 0.44103 0.0
C478 C 0.08215 0.86864 0.45871 0.0
H479 H 0.09952 0.79849 0.4579 0.0
O480 O 0.18218 0.83551 0.4714 0.0
O481 O 0.14267 0.85243 0.48374 0.0
O482 O 0.15637 0.79481 0.4965 0.0
O483 O 0.10918 0.8027 0.49067 0.0
C484 C 0.06379 0.90107 0.4358 0.0
C485 C 0.0653 0.92411 0.4482 0.0
H486 H 0.07253 0.96328 0.47551 0.0
H487 H 0.09196 0.9515 0.50586 0.0
H488 H 0.08233 0.80398 0.42643 0.0
H489 H 0.06529 0.85177 0.41544 0.0
H490 H 0.05636 0.90519 0.42219 0.0
H491 H 0.05898 0.94561 0.44395 0.0
Mn492 Mn 0.17047 0.66881 0.74734 0.0
Mn493 Mn 0.1575 0.59805 0.73953 0.0
C494 C 0.15774 0.65305 0.71882 0.0
C495 C 0.15422 0.71483 0.75489 0.0
C496 C 0.21777 0.62283 0.74422 0.0
O497 O 0.16419 0.65298 0.77259 0.0
O498 O 0.15429 0.60648 0.76562 0.0
C499 C 0.0956 0.5968 0.74911 0.0
N500 N 0.11682 0.59201 0.73693 0.0
C501 C 0.08238 0.57449 0.71503 0.0
C502 C 0.06017 0.57908 0.72738 0.0
C503 C 0.06681 0.59034 0.74448 0.0
C504 C 0.11067 0.58126 0.72043 0.0
H505 H 0.10061 0.60553 0.76224 0.0
C506 C 0.1575 0.62713 0.77698 0.0
O507 O 0.18133 0.70793 0.75653 0.0
O508 O 0.13654 0.69472 0.74963 0.0
N509 N 0.1597 0.58697 0.71479 0.0
C510 C 0.18343 0.58512 0.70418 0.0
C511 C 0.18042 0.57481 0.6865 0.0
C512 C 0.15311 0.56632 0.67997 0.0
C513 C 0.12905 0.56814 0.69121 0.0
C514 C 0.13341 0.57838 0.70875 0.0
H515 H 0.20448 0.59159 0.70913 0.0
O516 O 0.1715 0.67725 0.72094 0.0
O517 O 0.15209 0.6388 0.73339 0.0
O518 O 0.21018 0.64911 0.74642 0.0
O519 O 0.19978 0.60226 0.74161 0.0
C520 C 0.10084 0.56068 0.68561 0.0
C521 C 0.07751 0.56395 0.69749 0.0
H522 H 0.03792 0.57424 0.72384 0.0
H523 H 0.04977 0.59406 0.75405 0.0
H524 H 0.19908 0.57349 0.6779 0.0
H525 H 0.15082 0.55865 0.66628 0.0
H526 H 0.09678 0.55285 0.67209 0.0
H527 H 0.05586 0.55857 0.69292 0.0
Mn528 Mn 0.83809 0.16992 0.50884 0.0
Mn529 Mn 0.84842 0.09861 0.51591 0.0
C530 C 0.84672 0.15274 0.53758 0.0
C531 C 0.85774 0.21516 0.50254 0.0
C532 C 0.78932 0.1252 0.50905 0.0
O533 O 0.84662 0.15485 0.48373 0.0
O534 O 0.85527 0.10802 0.49024 0.0
C535 C 0.91141 0.09664 0.50952 0.0
N536 N 0.88854 0.09167 0.52046 0.0
C537 C 0.91971 0.07271 0.54371 0.0
C538 C 0.94358 0.07745 0.53264 0.0
C539 C 0.93941 0.08954 0.51549 0.0
C540 C 0.89233 0.08021 0.53703 0.0
H541 H 0.9083 0.10601 0.49635 0.0
C542 C 0.85363 0.1292 0.47916 0.0
O543 O 0.83047 0.20994 0.49966 0.0
O544 O 0.87339 0.19398 0.5085 0.0
N545 N 0.84275 0.08639 0.5402 0.0
C546 C 0.81758 0.08406 0.54943 0.0
C547 C 0.81803 0.07263 0.56691 0.0
C548 C 0.84429 0.06351 0.57466 0.0
C549 C 0.86986 0.06579 0.56483 0.0
C550 C 0.86804 0.07714 0.54741 0.0
H551 H 0.79733 0.09102 0.54354 0.0
O552 O 0.83429 0.17758 0.53523 0.0
O553 O 0.85368 0.13886 0.52309 0.0
O554 O 0.7976 0.15149 0.50772 0.0
O555 O 0.80663 0.10411 0.51186 0.0
C556 C 0.89714 0.05766 0.57173 0.0
C557 C 0.92206 0.06122 0.5612 0.0
H558 H 0.96522 0.07208 0.53722 0.0
H559 H 0.95774 0.09339 0.50691 0.0
H560 H 0.7982 0.07094 0.57441 0.0
H561 H 0.84459 0.05494 0.58821 0.0
H562 H 0.89925 0.04903 0.58521 0.0
H563 H 0.94296 0.05525 0.56675 0.0
Mn564 Mn 0.83239 0.33148 0.75522 0.0
Mn565 Mn 0.90375 0.33906 0.7636 0.0
C566 C 0.84907 0.34048 0.78413 0.0
C567 C 0.78805 0.35265 0.74792 0.0
C568 C 0.87506 0.28091 0.75719 0.0
O569 O 0.84852 0.33872 0.73028 0.0
O570 O 0.89557 0.34495 0.73754 0.0
C571 C 0.90841 0.40157 0.75564 0.0
N572 N 0.91194 0.37915 0.7673 0.0
C573 C 0.93017 0.41097 0.79038 0.0
C574 C 0.92691 0.43438 0.77857 0.0
C575 C 0.91593 0.42966 0.76114 0.0
C576 C 0.92235 0.38347 0.78414 0.0
H577 H 0.89985 0.39807 0.74226 0.0
C578 C 0.87467 0.34408 0.72607 0.0
O579 O 0.7923 0.32513 0.74553 0.0
O580 O 0.80971 0.36768 0.75389 0.0
N581 N 0.91462 0.33424 0.78832 0.0
C582 C 0.91556 0.30951 0.79824 0.0
C583 C 0.92593 0.31051 0.81604 0.0
C584 C 0.93529 0.3369 0.82342 0.0
C585 C 0.93426 0.36204 0.81293 0.0
C586 C 0.92405 0.35964 0.7952 0.0
H587 H 0.90829 0.28921 0.79267 0.0
O588 O 0.82392 0.32876 0.78155 0.0
O589 O 0.86358 0.34631 0.76976 0.0
O590 O 0.84929 0.29035 0.75499 0.0
O591 O 0.89679 0.29725 0.76045 0.0
C592 C 0.94264 0.38944 0.81942 0.0
C593 C 0.94049 0.41391 0.80818 0.0
H594 H 0.93258 0.45609 0.78278 0.0
H595 H 0.91321 0.44764 0.75198 0.0
H596 H 0.9266 0.29102 0.82406 0.0
H597 H 0.94309 0.33762 0.83719 0.0
H598 H 0.95045 0.39199 0.83311 0.0
H599 H 0.94666 0.43491 0.81339 0.0
Mn600 Mn 0.67259 0.33038 0.99553 0.0
Mn601 Mn 0.6012 0.33196 0.98617 0.0
C602 C 0.65617 0.33549 0.96621 0.0
C603 C 0.71513 0.35563 0.00204 0.0
C604 C 0.63376 0.27667 0.99456 0.0
O605 O 0.65534 0.33876 0.02001 0.0
O606 O 0.6081 0.33967 0.01223 0.0
C607 C 0.5919 0.39433 0.99293 0.0
N608 N 0.59043 0.3712 0.98162 0.0
C609 C 0.57161 0.40079 0.95761 0.0
C610 C 0.57274 0.42487 0.96905 0.0
C611 C 0.58297 0.42162 0.98678 0.0
C612 C 0.5807 0.37411 0.96452 0.0
H613 H 0.59992 0.39198 0.00653 0.0
C614 C 0.62867 0.34173 0.02387 0.0
O615 O 0.71296 0.32821 0.00566 0.0
O616 O 0.69238 0.36818 0.99551 0.0
N617 N 0.59153 0.32525 0.96142 0.0
C618 C 0.59261 0.30008 0.95194 0.0
C619 C 0.5832 0.29964 0.93393 0.0
C620 C 0.57278 0.32508 0.92586 0.0
C621 C 0.57171 0.3507 0.93591 0.0
C622 C 0.581 0.34972 0.95388 0.0
H623 H 0.60084 0.28055 0.95801 0.0
O624 O 0.68194 0.32571 0.96943 0.0
O625 O 0.64089 0.34158 0.98023 0.0
O626 O 0.65856 0.28826 0.99721 0.0
O627 O 0.61108 0.29093 0.99017 0.0
C628 C 0.56217 0.37726 0.92873 0.0
C629 C 0.5622 0.4023 0.93956 0.0
H630 H 0.566 0.44599 0.96433 0.0
H631 H 0.58405 0.44014 0.99566 0.0
H632 H 0.58418 0.2798 0.92625 0.0
H633 H 0.56587 0.32475 0.91191 0.0
H634 H 0.55506 0.37872 0.91485 0.0
H635 H 0.55511 0.42265 0.93384 0.0
Mn636 Mn 0.66849 0.17164 0.24992 0.0
Mn637 Mn 0.66347 0.09946 0.24391 0.0
C638 C 0.65783 0.15259 0.22188 0.0
C639 C 0.64716 0.21623 0.25586 0.0
C640 C 0.72056 0.13083 0.24779 0.0
O641 O 0.66317 0.1571 0.27552 0.0
O642 O 0.66019 0.1092 0.26985 0.0
C643 C 0.60239 0.09229 0.25448 0.0
N644 N 0.62357 0.08904 0.24208 0.0
C645 C 0.59036 0.06698 0.22106 0.0
C646 C 0.56824 0.06994 0.23365 0.0
C647 C 0.57427 0.0827 0.25042 0.0
C648 C 0.61799 0.07684 0.22589 0.0
H649 H 0.6069 0.10218 0.26736 0.0
C650 C 0.66028 0.13089 0.2806 0.0
O651 O 0.6748 0.21238 0.25804 0.0
O652 O 0.63199 0.19392 0.25109 0.0
N653 N 0.66597 0.08715 0.21941 0.0
C654 C 0.68934 0.08731 0.20843 0.0
C655 C 0.68677 0.0759 0.19099 0.0
C656 C 0.66025 0.06435 0.18505 0.0
C657 C 0.63657 0.06422 0.19664 0.0
C658 C 0.6405 0.07567 0.21393 0.0
H659 H 0.70973 0.09628 0.21289 0.0
O660 O 0.66919 0.17813 0.22328 0.0
O661 O 0.65361 0.13892 0.23684 0.0
O662 O 0.71007 0.15611 0.24994 0.0
O663 O 0.70509 0.10831 0.24521 0.0
C664 C 0.60907 0.0537 0.19161 0.0
C665 C 0.58597 0.05514 0.20379 0.0
H666 H 0.54648 0.0627 0.23054 0.0
H667 H 0.55727 0.08518 0.26017 0.0
H668 H 0.70513 0.07614 0.18211 0.0
H669 H 0.65826 0.05586 0.17153 0.0
H670 H 0.60534 0.04488 0.17829 0.0
H671 H 0.56483 0.04739 0.19966 0.0
H672 H 0.14806 0.97871 0.25721 0.0
H673 H 0.22821 0.82595 0.25041 0.0
H674 H 0.10918 0.89847 0.2739 0.0
H675 H 0.26951 0.90883 0.24396 0.0
H676 H 0.18129 0.85058 0.25249 0.0
H677 H 0.18929 0.9518 0.24578 0.0
C678 C 0.14813 0.95537 0.25835 0.0
C679 C 0.12541 0.94085 0.26681 0.0
C680 C 0.2006 0.86328 0.25032 0.0
C681 C 0.17263 0.90981 0.25375 0.0
C682 C 0.22731 0.84923 0.24901 0.0
C683 C 0.25274 0.86545 0.24722 0.0
C684 C 0.19947 0.89364 0.24965 0.0
C685 C 0.25044 0.89555 0.24556 0.0
C686 C 0.17164 0.93999 0.25178 0.0
C687 C 0.1263 0.91052 0.26752 0.0
N688 N 0.22435 0.90866 0.24696 0.0
N689 N 0.14975 0.89599 0.26131 0.0
H690 H 0.11187 0.6108 0.53269 0.0
H691 H 0.08479 0.75752 0.47851 0.0
H692 H 0.03388 0.63165 0.50324 0.0
H693 H 0.16138 0.74276 0.51084 0.0
H694 H 0.0701 0.70784 0.48354 0.0
H695 H 0.13423 0.65522 0.5212 0.0
C696 C 0.09966 0.62448 0.52357 0.0
C697 C 0.07089 0.61778 0.51906 0.0
C698 C 0.09027 0.71526 0.48943 0.0
C699 C 0.09615 0.66846 0.50597 0.0
C700 C 0.09873 0.74372 0.48654 0.0
C701 C 0.12421 0.75451 0.49446 0.0
C702 C 0.10715 0.6973 0.50053 0.0
C703 C 0.14151 0.73539 0.50454 0.0
C704 C 0.11235 0.64986 0.51709 0.0
C705 C 0.05595 0.63626 0.50728 0.0
N706 N 0.13246 0.70777 0.50752 0.0
N707 N 0.06867 0.66078 0.50126 0.0
H708 H 0.37246 0.52313 0.75903 0.0
H709 H 0.26344 0.65689 0.75542 0.0
H710 H 0.39643 0.60906 0.77608 0.0
H711 H 0.24305 0.57106 0.7362 0.0
H712 H 0.31352 0.64152 0.76048 0.0
H713 H 0.32632 0.54188 0.74802 0.0
C714 C 0.36802 0.54603 0.76034 0.0
C715 C 0.38812 0.56453 0.76863 0.0
C716 C 0.2981 0.62618 0.755 0.0
C717 C 0.33522 0.58624 0.75614 0.0
C718 C 0.2695 0.63494 0.75208 0.0
C719 C 0.24882 0.61516 0.74559 0.0
C720 C 0.30605 0.59744 0.75142 0.0
C721 C 0.25803 0.58702 0.74146 0.0
C722 C 0.3417 0.55677 0.75402 0.0
C723 C 0.3815 0.59409 0.76974 0.0
N724 N 0.28583 0.57899 0.74457 0.0
N725 N 0.35542 0.604 0.76377 0.0
H726 H 0.38055 0.88942 0.03401 0.0
H727 H 0.40914 0.73895 0.99077 0.0
H728 H 0.4529 0.87665 0.9986 0.0
H729 H 0.32224 0.76821 0.00055 0.0
H730 H 0.42631 0.78878 0.9939 0.0
H731 H 0.3589 0.84511 0.02244 0.0
C732 C 0.39175 0.87774 0.02358 0.0
C733 C 0.41889 0.88693 0.01745 0.0
C734 C 0.40341 0.78438 0.99501 0.0
C735 C 0.39436 0.83544 0.00457 0.0
C736 C 0.39362 0.75598 0.99325 0.0
C737 C 0.36427 0.74952 0.99547 0.0
C738 C 0.38382 0.80629 0.99953 0.0
C739 C 0.34504 0.77234 0.99868 0.0
C740 C 0.37933 0.85228 0.01704 0.0
C741 C 0.43239 0.87019 0.00416 0.0
N742 N 0.35523 0.79969 0.001 0.0
N743 N 0.42022 0.84504 0.99839 0.0
H744 H 0.14198 0.52646 0.97767 0.0
H745 H 0.24522 0.66001 0.99904 0.0
H746 H 0.10872 0.61281 0.98536 0.0
H747 H 0.2703 0.57065 0.00573 0.0
H748 H 0.19543 0.64417 0.99318 0.0
H749 H 0.18947 0.54314 0.98712 0.0
C750 C 0.14445 0.54886 0.98161 0.0
C751 C 0.12103 0.56815 0.9808 0.0
C752 C 0.21187 0.62813 0.99607 0.0
C753 C 0.17604 0.58767 0.9912 0.0
C754 C 0.24031 0.63713 0.99939 0.0
C755 C 0.26215 0.61666 0.00276 0.0
C756 C 0.20532 0.59847 0.99595 0.0
C757 C 0.25438 0.5873 0.0031 0.0
C758 C 0.17176 0.55844 0.98689 0.0
C759 C 0.12611 0.59718 0.98555 0.0
N760 N 0.22674 0.57914 0.9996 0.0
N761 N 0.1531 0.6061 0.99046 0.0
H762 H 0.39355 0.61663 0.20795 0.0
H763 H 0.41498 0.75106 0.27218 0.0
H764 H 0.45018 0.61492 0.25446 0.0
H765 H 0.33856 0.74117 0.23897 0.0
H766 H 0.42816 0.7012 0.26569 0.0
H767 H 0.37265 0.66174 0.21888 0.0
C768 C 0.40132 0.6254 0.2206 0.0
C769 C 0.42396 0.61195 0.23019 0.0
C770 C 0.40831 0.70976 0.25999 0.0
C771 C 0.40045 0.66406 0.24253 0.0
C772 C 0.40077 0.7383 0.26366 0.0
C773 C 0.37566 0.75038 0.25605 0.0
C774 C 0.39096 0.69323 0.2483 0.0
C775 C 0.35808 0.73271 0.24515 0.0
C776 C 0.38942 0.65128 0.22678 0.0
C777 C 0.43331 0.62477 0.24636 0.0
N778 N 0.36629 0.70512 0.24137 0.0
N779 N 0.42177 0.65022 0.25189 0.0
H780 H 0.40051 0.89033 0.49201 0.0
H781 H 0.2314 0.91316 0.50791 0.0
H782 H 0.35442 0.97026 0.48282 0.0
H783 H 0.27122 0.82886 0.50686 0.0
H784 H 0.27883 0.9353 0.5049 0.0
H785 H 0.35566 0.86844 0.50268 0.0
C786 C 0.38109 0.90336 0.49228 0.0
C787 C 0.38138 0.93224 0.48635 0.0
C788 C 0.27732 0.91196 0.50552 0.0
C789 C 0.3301 0.90734 0.49888 0.0
C790 C 0.25022 0.89928 0.50733 0.0
C791 C 0.24731 0.86909 0.50742 0.0
C792 C 0.30183 0.89438 0.50366 0.0
C793 C 0.2725 0.85222 0.50678 0.0
C794 C 0.35554 0.89085 0.49849 0.0
C795 C 0.35557 0.94811 0.48743 0.0
N796 N 0.29874 0.8651 0.50468 0.0
N797 N 0.33106 0.93543 0.49346 0.0
H798 H 0.04835 0.86858 0.75631 0.0
H799 H 0.18543 0.76439 0.7503 0.0
H800 H 0.11792 0.88226 0.71894 0.0
H801 H 0.09989 0.7336 0.76255 0.0
H802 H 0.16594 0.81354 0.74723 0.0
H803 H 0.07229 0.82444 0.76662 0.0
C804 C 0.06865 0.8625 0.75028 0.0
C805 C 0.08075 0.87913 0.73643 0.0
C806 C 0.15161 0.79604 0.75091 0.0
C807 C 0.10869 0.82907 0.74875 0.0
C808 C 0.16271 0.7681 0.7528 0.0
C809 C 0.14415 0.74496 0.75656 0.0
C810 C 0.12191 0.80082 0.75314 0.0
C811 C 0.11485 0.75087 0.75951 0.0
C812 C 0.08237 0.83741 0.75632 0.0
C813 C 0.1077 0.87047 0.72969 0.0
N814 N 0.10459 0.77824 0.75768 0.0
N815 N 0.12067 0.84598 0.73585 0.0
H816 H 0.65365 0.47762 0.7603 0.0
H817 H 0.73467 0.3265 0.74678 0.0
H818 H 0.61271 0.39499 0.76866 0.0
H819 H 0.77614 0.40997 0.74501 0.0
H820 H 0.68767 0.35078 0.74915 0.0
H821 H 0.69643 0.45279 0.74924 0.0
C822 C 0.65362 0.45422 0.75971 0.0
C823 C 0.62972 0.43836 0.76566 0.0
C824 C 0.70705 0.36374 0.74796 0.0
C825 C 0.67872 0.40967 0.75297 0.0
C826 C 0.73383 0.34989 0.7465 0.0
C827 C 0.75933 0.36627 0.7459 0.0
C828 C 0.70589 0.3941 0.74875 0.0
C829 C 0.75704 0.3965 0.74566 0.0
C830 C 0.67802 0.44003 0.75333 0.0
C831 C 0.63064 0.40808 0.76421 0.0
N832 N 0.73087 0.4094 0.74724 0.0
N833 N 0.65489 0.39469 0.75821 0.0
H834 H 0.56563 0.10279 0.99854 0.0
H835 H 0.66274 0.24247 0.01882 0.0
H836 H 0.59628 0.12497 0.05167 0.0
H837 H 0.59616 0.23975 0.97781 0.0
H838 H 0.65092 0.19234 0.02686 0.0
H839 H 0.58957 0.1462 0.98674 0.0
C840 C 0.57798 0.11649 0.0076 0.0
C841 C 0.57896 0.1106 0.02606 0.0
C842 C 0.63932 0.20267 0.01589 0.0
C843 C 0.60631 0.15978 0.01277 0.0
C844 C 0.64613 0.23114 0.01124 0.0
C845 C 0.63025 0.24533 0.99771 0.0
C846 C 0.61694 0.18823 0.00668 0.0
C847 C 0.60879 0.22972 0.98841 0.0
C848 C 0.59145 0.14121 0.00092 0.0
C849 C 0.59498 0.12902 0.03736 0.0
N850 N 0.60271 0.20204 0.99309 0.0
N851 N 0.60798 0.1529 0.03055 0.0
H852 H 0.89038 0.11959 0.29393 0.0
H853 H 0.75269 0.08699 0.23373 0.0
H854 H 0.89194 0.06071 0.24887 0.0
H855 H 0.76041 0.16493 0.26535 0.0
H856 H 0.80384 0.07729 0.23902 0.0
H857 H 0.84336 0.13724 0.2836 0.0
C858 C 0.88114 0.11067 0.2817 0.0
C859 C 0.89515 0.08835 0.27237 0.0
C860 C 0.79447 0.09672 0.24462 0.0
C861 C 0.8409 0.1081 0.26073 0.0
C862 C 0.76522 0.10224 0.24165 0.0
C863 C 0.75219 0.12673 0.24921 0.0
C864 C 0.81079 0.11549 0.25553 0.0
C865 C 0.76958 0.14581 0.25926 0.0
C866 C 0.85418 0.12071 0.27586 0.0
C867 C 0.88173 0.07742 0.25676 0.0
N868 N 0.79793 0.13956 0.26237 0.0
N869 N 0.85524 0.08715 0.25157 0.0
H870 H 0.88755 0.39932 0.5117 0.0
H871 H 0.91473 0.22926 0.50265 0.0
H872 H 0.96866 0.35655 0.52308 0.0
H873 H 0.82981 0.26745 0.49894 0.0
H874 H 0.93577 0.27736 0.50475 0.0
H875 H 0.86699 0.3528 0.50236 0.0
C876 C 0.90111 0.38026 0.51217 0.0
C877 C 0.92991 0.38197 0.51832 0.0
C878 C 0.91254 0.27534 0.50331 0.0
C879 C 0.90656 0.32876 0.50739 0.0
C880 C 0.90049 0.24783 0.50206 0.0
C881 C 0.87043 0.24434 0.50084 0.0
C882 C 0.89444 0.29968 0.50348 0.0
C883 C 0.8531 0.26921 0.49994 0.0
C884 C 0.88937 0.35375 0.50673 0.0
C885 C 0.94652 0.35656 0.51825 0.0
N886 N 0.86534 0.29589 0.50151 0.0
N887 N 0.93457 0.33109 0.513 0.0
H888 H 0.63271 0.02781 0.49637 0.0
H889 H 0.74508 0.1593 0.49558 0.0
H890 H 0.61233 0.1106 0.47288 0.0
H891 H 0.76251 0.07465 0.51763 0.0
H892 H 0.69478 0.14455 0.49001 0.0
H893 H 0.67852 0.0473 0.50734 0.0
C894 C 0.63788 0.05022 0.49365 0.0
C895 C 0.61892 0.06754 0.48356 0.0
C896 C 0.70963 0.12937 0.49621 0.0
C897 C 0.67156 0.09009 0.49592 0.0
C898 C 0.73833 0.13778 0.49942 0.0
C899 C 0.75822 0.1181 0.5069 0.0
C900 C 0.70083 0.10116 0.50059 0.0
C901 C 0.74818 0.09051 0.51162 0.0
C902 C 0.66403 0.06139 0.49991 0.0
C903 C 0.62642 0.09656 0.48063 0.0
N904 N 0.72035 0.08288 0.5083 0.0
N905 N 0.65238 0.10688 0.48659 0.0
H906 H 0.89555 0.11283 0.70991 0.0
H907 H 0.92011 0.25002 0.77132 0.0
H908 H 0.95075 0.11172 0.75709 0.0
H909 H 0.84334 0.24043 0.73838 0.0
H910 H 0.93199 0.19954 0.76578 0.0
H911 H 0.87588 0.1592 0.71968 0.0
C912 C 0.90324 0.122 0.72247 0.0
C913 C 0.92515 0.10833 0.73257 0.0
C914 C 0.91235 0.20833 0.75993 0.0
C915 C 0.90311 0.16186 0.74357 0.0
C916 C 0.90556 0.23723 0.76305 0.0
C917 C 0.8807 0.24955 0.75526 0.0
C918 C 0.89451 0.19164 0.74862 0.0
C919 C 0.86268 0.2318 0.74469 0.0
C920 C 0.89206 0.1486 0.72798 0.0
C921 C 0.93445 0.12168 0.74859 0.0
N922 N 0.87016 0.20382 0.74145 0.0
N923 N 0.92365 0.1478 0.75346 0.0
H924 H 0.89468 0.41604 0.00203 0.0
H925 H 0.72336 0.41279 0.99582 0.0
H926 H 0.8441 0.4613 0.96174 0.0
H927 H 0.76998 0.33506 0.00993 0.0
H928 H 0.76908 0.43764 0.99158 0.0
H929 H 0.85044 0.39163 0.01187 0.0
C930 C 0.87449 0.42097 0.99523 0.0
C931 C 0.87338 0.44117 0.98107 0.0
C932 C 0.76931 0.41524 0.9958 0.0
C933 C 0.82276 0.41397 0.99276 0.0
C934 C 0.74322 0.401 0.99832 0.0
C935 C 0.74281 0.37162 0.00297 0.0
C936 C 0.79534 0.40017 0.99808 0.0
C937 C 0.76935 0.35767 0.00621 0.0
C938 C 0.84928 0.40711 0.00097 0.0
C939 C 0.84629 0.44676 0.97305 0.0
N940 N 0.7947 0.37204 0.00355 0.0
N941 N 0.82219 0.43344 0.97908 0.0
H942 H 0.61449 0.39784 0.2376 0.0
H943 H 0.58977 0.22914 0.25534 0.0
H944 H 0.53306 0.35342 0.23051 0.0
H945 H 0.67394 0.26925 0.25731 0.0
H946 H 0.56786 0.27653 0.25103 0.0
H947 H 0.63594 0.35281 0.24879 0.0
C948 C 0.60108 0.37872 0.23844 0.0
C949 C 0.57189 0.37952 0.23301 0.0
C950 C 0.59111 0.27509 0.25258 0.0
C951 C 0.59625 0.32802 0.24603 0.0
C952 C 0.60364 0.248 0.25512 0.0
C953 C 0.63376 0.24521 0.2565 0.0
C954 C 0.6088 0.29966 0.25126 0.0
C955 C 0.65063 0.27044 0.25625 0.0
C956 C 0.61331 0.35307 0.24494 0.0
C957 C 0.5555 0.35412 0.23473 0.0
N958 N 0.63794 0.29662 0.25342 0.0
N959 N 0.56793 0.32948 0.24097 0.0
H960 H 0.11819 0.90336 0.36021 0.0
H961 H 0.14679 0.90494 0.46652 0.0
H962 H 0.10057 0.97571 0.39514 0.0
H963 H 0.15597 0.828 0.43446 0.0
H964 H 0.1352 0.9324 0.43944 0.0
H965 H 0.13645 0.87626 0.38627 0.0
C966 C 0.11829 0.91363 0.3733 0.0
C967 C 0.10791 0.94198 0.37541 0.0
C968 C 0.1397 0.90951 0.43822 0.0
C969 C 0.12898 0.91118 0.40519 0.0
C970 C 0.14614 0.89385 0.45368 0.0
C971 C 0.15112 0.86408 0.45266 0.0
C972 C 0.13841 0.89532 0.42154 0.0
C973 C 0.1514 0.85085 0.43573 0.0
C974 C 0.12881 0.89817 0.38814 0.0
C975 C 0.10885 0.95421 0.39269 0.0
N976 N 0.14466 0.86651 0.42076 0.0
N977 N 0.11908 0.93873 0.40685 0.0
H978 H 0.03112 0.5926 0.64354 0.0
H979 H 0.18013 0.64993 0.68495 0.0
H980 H 0.10592 0.60902 0.61086 0.0
H981 H 0.10052 0.6447 0.7142 0.0
H982 H 0.15356 0.63744 0.65716 0.0
H983 H 0.05613 0.61392 0.6691 0.0
C984 C 0.05263 0.60117 0.6416 0.0
C985 C 0.0663 0.59906 0.6249 0.0
C986 C 0.14189 0.63919 0.66964 0.0
C987 C 0.09557 0.62298 0.6545 0.0
C988 C 0.15704 0.64621 0.68543 0.0
C989 C 0.14252 0.64704 0.70183 0.0
C990 C 0.11206 0.63351 0.67039 0.0
C991 C 0.11256 0.64306 0.70185 0.0
C992 C 0.06704 0.6132 0.65631 0.0
C993 C 0.09461 0.60985 0.62349 0.0
N994 N 0.09836 0.63613 0.68641 0.0
N995 N 0.10839 0.62117 0.63814 0.0
H996 H 0.44323 0.61465 0.87431 0.0
H997 H 0.34491 0.58128 0.95741 0.0
H998 H 0.3822 0.54405 0.87513 0.0
H999 H 0.37907 0.66679 0.94853 0.0
H1000 H 0.35844 0.5678 0.927 0.0
H1001 H 0.41979 0.63536 0.90067 0.0
C1002 C 0.42456 0.60378 0.87977 0.0
C1003 C 0.41499 0.57726 0.87262 0.0
C1004 C 0.36271 0.58964 0.93156 0.0
C1005 C 0.38852 0.60059 0.90303 0.0
C1006 C 0.35512 0.5973 0.94896 0.0
C1007 C 0.36111 0.62511 0.95551 0.0
C1008 C 0.37702 0.6097 0.92067 0.0
C1009 C 0.3741 0.64511 0.94395 0.0
C1010 C 0.41128 0.61558 0.89489 0.0
C1011 C 0.39085 0.5641 0.88044 0.0
N1012 N 0.3821 0.63687 0.92713 0.0
N1013 N 0.37875 0.57566 0.89535 0.0
H1014 H 0.45655 0.88627 0.12959 0.0
H1015 H 0.32983 0.85958 0.20004 0.0
H1016 H 0.36988 0.91872 0.12173 0.0
H1017 H 0.42044 0.84483 0.21104 0.0
H1018 H 0.342 0.87366 0.16925 0.0
H1019 H 0.44115 0.8625 0.15705 0.0
C1020 C 0.4341 0.88792 0.13342 0.0
C1021 C 0.41453 0.90469 0.12334 0.0
C1022 C 0.35914 0.86712 0.17841 0.0
C1023 C 0.39688 0.87798 0.15514 0.0
C1024 C 0.35222 0.85901 0.19596 0.0
C1025 C 0.37417 0.85127 0.20822 0.0
C1026 C 0.38816 0.86719 0.17306 0.0
C1027 C 0.4028 0.85095 0.20216 0.0
C1028 C 0.42539 0.87457 0.14924 0.0
C1029 C 0.38581 0.90637 0.12922 0.0
N1030 N 0.40894 0.85887 0.18507 0.0
N1031 N 0.37788 0.89338 0.14481 0.0
H1032 H 0.0801 0.62366 0.88169 0.0
H1033 H 0.16153 0.57456 0.79318 0.0
H1034 H 0.11183 0.53726 0.87241 0.0
H1035 H 0.14071 0.66372 0.80418 0.0
H1036 H 0.14713 0.56176 0.82348 0.0
H1037 H 0.10557 0.64003 0.85487 0.0
C1038 C 0.09268 0.6082 0.87413 0.0
C1039 C 0.09358 0.57896 0.87923 0.0
C1040 C 0.14594 0.5842 0.8194 0.0
C1041 C 0.12273 0.59755 0.84853 0.0
C1042 C 0.15411 0.59153 0.80204 0.0
C1043 C 0.15202 0.62022 0.79606 0.0
C1044 C 0.13514 0.6056 0.83089 0.0
C1045 C 0.1426 0.64132 0.80824 0.0
C1046 C 0.10729 0.61759 0.85886 0.0
C1047 C 0.11059 0.56001 0.8691 0.0
N1048 N 0.1341 0.63353 0.82502 0.0
N1049 N 0.12417 0.56956 0.85414 0.0
H1050 H 0.37765 0.5802 0.13556 0.0
H1051 H 0.40575 0.65157 0.04126 0.0
H1052 H 0.46156 0.61142 0.11996 0.0
H1053 H 0.3209 0.64965 0.06442 0.0
H1054 H 0.42668 0.63813 0.0704 0.0
H1055 H 0.35599 0.6061 0.11007 0.0
C1056 C 0.39143 0.59283 0.1269 0.0
C1057 C 0.42144 0.59361 0.12981 0.0
C1058 C 0.4035 0.64092 0.06922 0.0
C1059 C 0.39691 0.62306 0.10065 0.0
C1060 C 0.3916 0.64829 0.05258 0.0
C1061 C 0.36161 0.65051 0.05047 0.0
C1062 C 0.38517 0.63544 0.08375 0.0
C1063 C 0.34412 0.64725 0.06556 0.0
C1064 C 0.37907 0.60772 0.11243 0.0
C1065 C 0.43832 0.61042 0.11827 0.0
N1066 N 0.35611 0.63918 0.08155 0.0
N1067 N 0.42587 0.62414 0.10404 0.0
H1068 H 0.41535 0.8742 0.38994 0.0
H1069 H 0.35236 0.89723 0.29203 0.0
H1070 H 0.38769 0.9576 0.37037 0.0
H1071 H 0.34789 0.81449 0.31835 0.0
H1072 H 0.36579 0.91971 0.32068 0.0
H1073 H 0.39154 0.85138 0.36397 0.0
C1074 C 0.40392 0.88765 0.3803 0.0
C1075 C 0.40352 0.91783 0.38227 0.0
C1076 C 0.36166 0.89667 0.32028 0.0
C1077 C 0.37649 0.89196 0.35258 0.0
C1078 C 0.35429 0.88385 0.30393 0.0
C1079 C 0.35013 0.85394 0.30288 0.0
C1080 C 0.3651 0.87934 0.33564 0.0
C1081 C 0.35174 0.83757 0.31867 0.0
C1082 C 0.39025 0.87462 0.36556 0.0
C1083 C 0.38831 0.93425 0.36946 0.0
N1084 N 0.35974 0.85041 0.33442 0.0
N1085 N 0.37575 0.92114 0.35502 0.0
H1086 H 0.12353 0.9175 0.63391 0.0
H1087 H 0.07853 0.83885 0.5428 0.0
H1088 H 0.03987 0.87903 0.6241 0.0
H1089 H 0.16666 0.86303 0.55505 0.0
H1090 H 0.06516 0.85082 0.57344 0.0
H1091 H 0.14105 0.89518 0.60622 0.0
C1092 C 0.10895 0.90408 0.62605 0.0
C1093 C 0.0801 0.90033 0.63128 0.0
C1094 C 0.0875 0.85328 0.56954 0.0
C1095 C 0.09996 0.87486 0.59956 0.0
C1096 C 0.09515 0.84653 0.55199 0.0
C1097 C 0.12372 0.85022 0.54628 0.0
C1098 C 0.10844 0.86425 0.58152 0.0
C1099 C 0.14437 0.85991 0.55887 0.0
C1100 C 0.11899 0.89128 0.61028 0.0
C1101 C 0.0623 0.8824 0.62071 0.0
N1102 N 0.13624 0.86698 0.57586 0.0
N1103 N 0.07241 0.87067 0.60527 0.0
H1104 H 0.63754 0.45547 0.87887 0.0
H1105 H 0.65279 0.30912 0.93321 0.0
H1106 H 0.581 0.38373 0.86605 0.0
H1107 H 0.64654 0.3918 0.9596 0.0
H1108 H 0.64094 0.33287 0.90428 0.0
H1109 H 0.65621 0.42829 0.90459 0.0
C1110 C 0.62912 0.43401 0.8813 0.0
C1111 C 0.60708 0.42227 0.87037 0.0
C1112 C 0.64237 0.34566 0.91646 0.0
C1113 C 0.62944 0.39072 0.89938 0.0
C1114 C 0.64902 0.33222 0.93283 0.0
C1115 C 0.64963 0.34855 0.94869 0.0
C1116 C 0.63777 0.37565 0.91605 0.0
C1117 C 0.64541 0.37847 0.94764 0.0
C1118 C 0.64001 0.41849 0.89591 0.0
C1119 C 0.59801 0.39378 0.87394 0.0
N1120 N 0.63969 0.39113 0.93156 0.0
N1121 N 0.60914 0.379 0.88821 0.0
H1122 H 0.60537 0.10077 0.11421 0.0
H1123 H 0.60144 0.13937 0.21901 0.0
H1124 H 0.53474 0.08081 0.14959 0.0
H1125 H 0.67822 0.1493 0.18741 0.0
H1126 H 0.575 0.12363 0.19226 0.0
H1127 H 0.63129 0.12296 0.13962 0.0
C1128 C 0.59527 0.10109 0.12726 0.0
C1129 C 0.5677 0.08901 0.1297 0.0
C1130 C 0.59762 0.1292 0.19106 0.0
C1131 C 0.59707 0.11465 0.15869 0.0
C1132 C 0.6127 0.13805 0.20635 0.0
C1133 C 0.64218 0.14443 0.2054 0.0
C1134 C 0.61213 0.12685 0.17465 0.0
C1135 C 0.65561 0.14372 0.18863 0.0
C1136 C 0.61002 0.11389 0.14172 0.0
C1137 C 0.55561 0.09033 0.1469 0.0
N1138 N 0.64055 0.13458 0.17386 0.0
N1139 N 0.57036 0.10285 0.16067 0.0
H1140 H 0.93458 0.13495 0.37514 0.0
H1141 H 0.85445 0.07701 0.46214 0.0
H1142 H 0.90453 0.04727 0.38159 0.0
H1143 H 0.8703 0.16778 0.45305 0.0
H1144 H 0.87083 0.06658 0.43188 0.0
H1145 H 0.90938 0.1484 0.40271 0.0
C1146 C 0.92246 0.1186 0.38224 0.0
C1147 C 0.92181 0.08989 0.37607 0.0
C1148 C 0.87053 0.08884 0.43639 0.0
C1149 C 0.89304 0.1051 0.40762 0.0
C1150 C 0.86125 0.09482 0.45374 0.0
C1151 C 0.86122 0.12331 0.46023 0.0
C1152 C 0.88029 0.11143 0.42542 0.0
C1153 C 0.86999 0.14549 0.44861 0.0
C1154 C 0.908 0.12632 0.39794 0.0
C1155 C 0.90546 0.0697 0.3857 0.0
N1156 N 0.87951 0.13905 0.43182 0.0
N1157 N 0.89203 0.07763 0.40106 0.0
H1158 H 0.96619 0.38863 0.62991 0.0
H1159 H 0.83741 0.35916 0.69851 0.0
H1160 H 0.87906 0.41911 0.62096 0.0
H1161 H 0.92771 0.344 0.71034 0.0
H1162 H 0.85044 0.37374 0.66797 0.0
H1163 H 0.95028 0.36404 0.657 0.0
C1164 C 0.94357 0.3897 0.63343 0.0
C1165 C 0.92398 0.40617 0.62317 0.0
C1166 C 0.86732 0.36699 0.67724 0.0
C1167 C 0.90572 0.37848 0.65451 0.0
C1168 C 0.85991 0.35859 0.69466 0.0
C1169 C 0.88152 0.35062 0.70709 0.0
C1170 C 0.8965 0.36717 0.67221 0.0
C1171 C 0.91032 0.3503 0.70132 0.0
C1172 C 0.93455 0.37586 0.64903 0.0
C1173 C 0.895 0.40705 0.62862 0.0
N1174 N 0.91694 0.35856 0.68436 0.0
N1175 N 0.88678 0.39361 0.644 0.0
H1176 H 0.56686 0.11079 0.37793 0.0
H1177 H 0.67604 0.08276 0.29919 0.0
H1178 H 0.63058 0.04263 0.37934 0.0
H1179 H 0.63226 0.16441 0.30542 0.0
H1180 H 0.66129 0.06905 0.32935 0.0
H1181 H 0.59198 0.13253 0.35259 0.0
C1182 C 0.58643 0.10065 0.37317 0.0
C1183 C 0.59634 0.07453 0.38067 0.0
C1184 C 0.65522 0.09016 0.32428 0.0
C1185 C 0.62485 0.09908 0.35138 0.0
C1186 C 0.66359 0.09797 0.30703 0.0
C1187 C 0.65515 0.12466 0.29976 0.0
C1188 C 0.63771 0.1089 0.33425 0.0
C1189 C 0.63922 0.14363 0.31055 0.0
C1190 C 0.6007 0.11305 0.35863 0.0
C1191 C 0.62167 0.06233 0.37373 0.0
N1192 N 0.63055 0.13517 0.32717 0.0
N1193 N 0.63479 0.07447 0.35934 0.0
H1194 H 0.87706 0.07269 0.63948 0.0
H1195 H 0.90317 0.14503 0.54538 0.0
H1196 H 0.96038 0.10543 0.62385 0.0
H1197 H 0.81906 0.14557 0.56959 0.0
H1198 H 0.92454 0.13043 0.57416 0.0
H1199 H 0.85483 0.09866 0.61416 0.0
C1200 C 0.89059 0.08565 0.63085 0.0
C1201 C 0.9206 0.08688 0.63371 0.0
C1202 C 0.90144 0.134 0.57329 0.0
C1203 C 0.89544 0.11636 0.60476 0.0
C1204 C 0.88927 0.14205 0.55686 0.0
C1205 C 0.85933 0.1454 0.55514 0.0
C1206 C 0.88343 0.12898 0.58802 0.0
C1207 C 0.84221 0.14238 0.57042 0.0
C1208 C 0.8779 0.10056 0.61649 0.0
C1209 C 0.93714 0.10408 0.6222 0.0
N1210 N 0.85444 0.13366 0.58622 0.0
N1211 N 0.9244 0.11781 0.60808 0.0
H1212 H 0.92774 0.38887 0.88384 0.0
H1213 H 0.85628 0.39755 0.78969 0.0
H1214 H 0.87051 0.46008 0.87109 0.0
H1215 H 0.8552 0.31585 0.81744 0.0
H1216 H 0.86773 0.42192 0.81815 0.0
H1217 H 0.9068 0.36177 0.85881 0.0
C1218 C 0.91049 0.39878 0.8761 0.0
C1219 C 0.90119 0.42718 0.87969 0.0
C1220 C 0.86477 0.39869 0.81802 0.0
C1221 C 0.87815 0.39636 0.85048 0.0
C1222 C 0.85854 0.38481 0.80184 0.0
C1223 C 0.85565 0.3547 0.80131 0.0
C1224 C 0.86854 0.38224 0.83368 0.0
C1225 C 0.85792 0.33909 0.81739 0.0
C1226 C 0.89872 0.38322 0.8617 0.0
C1227 C 0.87915 0.43873 0.86867 0.0
N1228 N 0.86492 0.35301 0.83297 0.0
N1229 N 0.8688 0.42351 0.85437 0.0
H1230 H 0.5323 0.38234 0.11922 0.0
H1231 H 0.66405 0.35984 0.05168 0.0
H1232 H 0.61749 0.41751 0.12875 0.0
H1233 H 0.57507 0.3395 0.03895 0.0
H1234 H 0.64934 0.37421 0.08194 0.0
H1235 H 0.54992 0.35896 0.09205 0.0
C1236 C 0.55487 0.3847 0.1158 0.0
C1237 C 0.57339 0.4021 0.12624 0.0
C1238 C 0.63312 0.36641 0.07253 0.0
C1239 C 0.5936 0.3758 0.09488 0.0
C1240 C 0.64149 0.35815 0.05526 0.0
C1241 C 0.62074 0.34868 0.04265 0.0
C1242 C 0.60383 0.36499 0.07726 0.0
C1243 C 0.59182 0.34694 0.0481 0.0
C1244 C 0.56485 0.37157 0.10016 0.0
C1245 C 0.60235 0.40466 0.12095 0.0
N1246 N 0.58425 0.35509 0.06494 0.0
N1247 N 0.61152 0.39184 0.10557 0.0
loop_
_geom_bond_atom_site_label_1
_geom_bond_atom_site_label_2
_geom_bond_distance
_geom_bond_site_symmetry_2
_ccdc_geom_bond_type
H0 C19 0.949 . S
H1 C20 0.950 . S
H2 C22 0.950 . S
H3 C23 0.950 . S
H4 C25 0.950 . S
H5 C28 0.950 . S
H6 C29 0.950 . S
H7 C31 0.951 . S
H8 C32 0.949 1_565 S
H9 C34 0.949 . S
H10 C35 0.950 . S
H11 C37 0.950 . S
H12 C38 0.950 . S
H13 C40 0.950 1_655 S
H14 C43 0.950 . S
H15 C44 0.950 . S
H16 C46 0.951 . S
H17 C47 0.949 1_545 S
C18 C19 1.376 . S
C18 C23 1.386 . S
C18 C24 1.483 . S
C19 H0 0.949 . S
C19 C18 1.376 . S
C19 C20 1.397 . S
C20 H1 0.950 . S
C20 C19 1.397 . S
C20 C21 1.391 . S
C21 C20 1.391 . S
C21 C22 1.405 . S
C22 H2 0.950 . S
C22 C21 1.405 . S
C22 C23 1.367 . S
C23 H3 0.950 . S
C23 C18 1.386 . S
C23 C22 1.367 . S
C24 C18 1.483 . S
C24 C25 1.382 1_655 S
C24 C26 1.403 . S
C25 H4 0.950 . S
C25 C24 1.382 1_455 S
C25 C41 1.411 1_545 S
C26 C24 1.403 . S
C26 C27 1.489 . S
C26 C40 1.410 1_645 S
C27 C26 1.489 . S
C27 C28 1.383 . S
C27 C32 1.382 . S
C28 H5 0.950 . S
C28 C27 1.383 . S
C28 C29 1.395 . S
C29 H6 0.950 . S
C29 C28 1.395 . S
C29 C30 1.288 . S
C30 C29 1.288 . S
C30 C31 1.392 . S
C31 H7 0.951 . S
C31 C30 1.392 . S
C31 C32 1.392 . S
C32 H8 0.949 1_545 S
C32 C27 1.382 . S
C32 C31 1.392 . S
C33 C34 1.376 . S
C33 C38 1.386 . S
C33 C39 1.483 . S
C34 H9 0.949 . S
C34 C33 1.376 . S
C34 C35 1.397 . S
C35 H10 0.950 . S
C35 C34 1.397 . S
C35 C36 1.391 . S
C36 C35 1.391 . S
C36 C37 1.405 . S
C37 H11 0.950 . S
C37 C36 1.405 . S
C37 C38 1.367 . S
C38 H12 0.950 . S
C38 C33 1.386 . S
C38 C37 1.367 . S
C39 C33 1.483 . S
C39 C40 1.382 . S
C39 C41 1.403 . S
C40 H13 0.950 1_455 S
C40 C26 1.410 1_465 S
C40 C39 1.382 . S
C41 C25 1.411 1_565 S
C41 C39 1.403 . S
C41 C42 1.489 . S
C42 C41 1.489 . S
C42 C43 1.383 . S
C42 C47 1.382 . S
C43 H14 0.950 . S
C43 C42 1.383 . S
C43 C44 1.395 . S
C44 H15 0.950 . S
C44 C43 1.395 . S
C44 C45 1.288 . S
C45 C44 1.288 . S
C45 C46 1.392 . S
C46 H16 0.951 . S
C46 C45 1.392 . S
C46 C47 1.392 . S
C47 H17 0.949 1_565 S
C47 C42 1.382 . S
C47 C46 1.392 . S
H48 C67 0.949 1_455 S
H49 C68 0.950 . S
H50 C70 0.950 . S
H51 C71 0.950 . S
H52 C73 0.950 . S
H53 C76 0.950 . S
H54 C77 0.950 . S
H55 C79 0.951 . S
H56 C80 0.949 . S
H57 C82 0.949 1_655 S
H58 C83 0.950 . S
H59 C85 0.950 . S
H60 C86 0.950 . S
H61 C88 0.950 . S
H62 C91 0.950 . S
H63 C92 0.950 . S
H64 C94 0.951 . S
H65 C95 0.949 . S
C66 C67 1.376 . S
C66 C71 1.386 . S
C66 C72 1.483 . S
C67 H48 0.949 1_655 S
C67 C66 1.376 . S
C67 C68 1.397 . S
C68 H49 0.950 . S
C68 C67 1.397 . S
C68 C69 1.391 . S
C69 C68 1.391 . S
C69 C70 1.405 . S
C70 H50 0.950 . S
C70 C69 1.405 . S
C70 C71 1.367 . S
C71 H51 0.950 . S
C71 C66 1.386 . S
C71 C70 1.367 . S
C72 C66 1.483 . S
C72 C73 1.382 1_655 S
C72 C74 1.403 . S
C73 H52 0.950 . S
C73 C72 1.382 1_455 S
C73 C89 1.411 . S
C74 C72 1.403 . S
C74 C75 1.489 . S
C74 C88 1.411 . S
C75 C74 1.489 . S
C75 C76 1.383 . S
C75 C80 1.382 . S
C76 H53 0.950 . S
C76 C75 1.383 . S
C76 C77 1.395 . S
C77 H54 0.950 . S
C77 C76 1.395 . S
C77 C78 1.288 . S
C78 C77 1.288 . S
C78 C79 1.392 . S
C79 H55 0.951 . S
C79 C78 1.392 . S
C79 C80 1.392 . S
C80 H56 0.949 . S
C80 C75 1.382 . S
C80 C79 1.392 . S
C81 C82 1.376 . S
C81 C86 1.386 . S
C81 C87 1.483 . S
C82 H57 0.949 1_455 S
C82 C81 1.376 . S
C82 C83 1.397 . S
C83 H58 0.950 . S
C83 C82 1.397 . S
C83 C84 1.391 . S
C84 C83 1.391 . S
C84 C85 1.405 . S
C85 H59 0.950 . S
C85 C84 1.405 . S
C85 C86 1.367 . S
C86 H60 0.950 . S
C86 C81 1.386 . S
C86 C85 1.367 . S
C87 C81 1.483 . S
C87 C88 1.382 1_455 S
C87 C89 1.403 . S
C88 H61 0.950 . S
C88 C74 1.411 . S
C88 C87 1.382 1_655 S
C89 C73 1.411 . S
C89 C87 1.403 . S
C89 C90 1.489 . S
C90 C89 1.489 . S
C90 C91 1.383 . S
C90 C95 1.382 . S
C91 H62 0.950 . S
C91 C90 1.383 . S
C91 C92 1.395 . S
C92 H63 0.950 . S
C92 C91 1.395 . S
C92 C93 1.288 . S
C93 C92 1.288 . S
C93 C94 1.392 . S
C94 H64 0.951 . S
C94 C93 1.392 . S
C94 C95 1.392 . S
C95 H65 0.949 . S
C95 C90 1.382 . S
C95 C94 1.392 . S
H96 C115 0.949 . S
H97 C116 0.950 . S
H98 C118 0.950 . S
H99 C119 0.950 . S
H100 C121 0.950 . S
H101 C124 0.950 . S
H102 C125 0.950 . S
H103 C127 0.951 . S
H104 C128 0.949 . S
H105 C130 0.949 . S
H106 C131 0.950 . S
H107 C133 0.950 . S
H108 C134 0.950 . S
H109 C136 0.950 . S
H110 C139 0.950 . S
H111 C140 0.950 . S
H112 C142 0.951 . S
H113 C143 0.949 . S
C114 C115 1.376 . S
C114 C119 1.386 . S
C114 C120 1.483 . S
C115 H96 0.949 . S
C115 C114 1.376 . S
C115 C116 1.397 . S
C116 H97 0.950 . S
C116 C115 1.397 . S
C116 C117 1.391 . S
C117 C116 1.391 . S
C117 C118 1.405 . S
C118 H98 0.950 . S
C118 C117 1.405 . S
C118 C119 1.367 . S
C119 H99 0.950 . S
C119 C114 1.386 . S
C119 C118 1.367 . S
C120 C114 1.483 . S
C120 C121 1.382 . S
C120 C122 1.403 . S
C121 H100 0.950 . S
C121 C120 1.382 . S
C121 C137 1.411 . S
C122 C120 1.403 . S
C122 C123 1.489 . S
C122 C136 1.411 . S
C123 C122 1.489 . S
C123 C124 1.383 . S
C123 C128 1.382 . S
C124 H101 0.950 . S
C124 C123 1.383 . S
C124 C125 1.395 . S
C125 H102 0.950 . S
C125 C124 1.395 . S
C125 C126 1.288 . S
C126 C125 1.288 . S
C126 C127 1.392 . S
C127 H103 0.951 . S
C127 C126 1.392 . S
C127 C128 1.392 . S
C128 H104 0.949 . S
C128 C123 1.382 . S
C128 C127 1.392 . S
C129 C130 1.376 . S
C129 C134 1.386 . S
C129 C135 1.483 . S
C130 H105 0.949 . S
C130 C129 1.376 . S
C130 C131 1.397 . S
C131 H106 0.950 . S
C131 C130 1.397 . S
C131 C132 1.391 . S
C132 C131 1.391 . S
C132 C133 1.405 . S
C133 H107 0.950 . S
C133 C132 1.405 . S
C133 C134 1.367 . S
C134 H108 0.950 . S
C134 C129 1.386 . S
C134 C133 1.367 . S
C135 C129 1.483 . S
C135 C136 1.382 . S
C135 C137 1.403 . S
C136 H109 0.950 . S
C136 C122 1.411 . S
C136 C135 1.382 . S
C137 C121 1.411 . S
C137 C135 1.403 . S
C137 C138 1.489 . S
C138 C137 1.489 . S
C138 C139 1.383 . S
C138 C143 1.382 . S
C139 H110 0.950 . S
C139 C138 1.383 . S
C139 C140 1.395 . S
C140 H111 0.950 . S
C140 C139 1.395 . S
C140 C141 1.288 . S
C141 C140 1.288 . S
C141 C142 1.392 . S
C142 H112 0.951 . S
C142 C141 1.392 . S
C142 C143 1.392 . S
C143 H113 0.949 . S
C143 C138 1.382 . S
C143 C142 1.392 . S
H144 C163 0.949 . S
H145 C164 0.950 . S
H146 C166 0.950 . S
H147 C167 0.950 . S
H148 C169 0.950 1_565 S
H149 C172 0.950 . S
H150 C173 0.950 . S
H151 C175 0.951 . S
H152 C176 0.949 . S
H153 C178 0.949 . S
H154 C179 0.950 . S
H155 C181 0.950 . S
H156 C182 0.950 . S
H157 C184 0.950 . S
H158 C187 0.950 . S
H159 C188 0.950 . S
H160 C190 0.951 . S
H161 C191 0.949 . S
C162 C163 1.376 . S
C162 C167 1.386 . S
C162 C168 1.483 . S
C163 H144 0.949 . S
C163 C162 1.376 . S
C163 C164 1.397 . S
C164 H145 0.950 . S
C164 C163 1.397 . S
C164 C165 1.391 . S
C165 C164 1.391 . S
C165 C166 1.405 . S
C166 H146 0.950 . S
C166 C165 1.405 . S
C166 C167 1.367 . S
C167 H147 0.950 . S
C167 C162 1.386 . S
C167 C166 1.367 . S
C168 C162 1.483 . S
C168 C169 1.382 1_565 S
C168 C170 1.403 . S
C169 H148 0.950 1_545 S
C169 C168 1.382 1_545 S
C169 C185 1.411 . S
C170 C168 1.403 . S
C170 C171 1.489 . S
C170 C184 1.411 1_565 S
C171 C170 1.489 . S
C171 C172 1.383 . S
C171 C176 1.382 . S
C172 H149 0.950 . S
C172 C171 1.383 . S
C172 C173 1.395 . S
C173 H150 0.950 . S
C173 C172 1.395 . S
C173 C174 1.288 . S
C174 C173 1.288 . S
C174 C175 1.392 . S
C175 H151 0.951 . S
C175 C174 1.392 . S
C175 C176 1.392 . S
C176 H152 0.949 . S
C176 C171 1.382 . S
C176 C175 1.392 . S
C177 C178 1.376 . S
C177 C182 1.386 . S
C177 C183 1.483 . S
C178 H153 0.949 . S
C178 C177 1.376 . S
C178 C179 1.397 . S
C179 H154 0.950 . S
C179 C178 1.397 . S
C179 C180 1.391 . S
C180 C179 1.391 . S
C180 C181 1.405 . S
C181 H155 0.950 . S
C181 C180 1.405 . S
C181 C182 1.367 . S
C182 H156 0.950 . S
C182 C177 1.386 . S
C182 C181 1.367 . S
C183 C177 1.483 . S
C183 C184 1.382 . S
C183 C185 1.403 . S
C184 H157 0.950 . S
C184 C170 1.411 1_545 S
C184 C183 1.382 . S
C185 C169 1.411 . S
C185 C183 1.403 . S
C185 C186 1.489 . S
C186 C185 1.489 . S
C186 C187 1.383 . S
C186 C191 1.382 . S
C187 H158 0.950 . S
C187 C186 1.383 . S
C187 C188 1.395 . S
C188 H159 0.950 . S
C188 C187 1.395 . S
C188 C189 1.288 . S
C189 C188 1.288 . S
C189 C190 1.392 . S
C190 H160 0.951 . S
C190 C189 1.392 . S
C190 C191 1.392 . S
C191 H161 0.949 . S
C191 C186 1.382 . S
C191 C190 1.392 . S
H192 C211 0.949 . S
H193 C212 0.950 . S
H194 C214 0.950 . S
H195 C215 0.950 . S
H196 C217 0.952 . S
H197 C220 0.950 . S
H198 C221 0.950 . S
H199 C223 0.951 . S
H200 C224 0.949 . S
H201 C226 0.949 . S
H202 C227 0.950 . S
H203 C229 0.950 . S
H204 C230 0.950 . S
H205 C232 0.950 . S
H206 C235 0.950 . S
H207 C236 0.950 . S
H208 C238 0.951 . S
H209 C239 0.949 . S
C210 C211 1.376 . S
C210 C215 1.386 . S
C210 C216 1.483 . S
C211 H192 0.949 . S
C211 C210 1.376 . S
C211 C212 1.397 . S
C212 H193 0.950 . S
C212 C211 1.397 . S
C212 C213 1.391 . S
C213 C212 1.391 . S
C213 C214 1.405 . S
C214 H194 0.950 . S
C214 C213 1.405 . S
C214 C215 1.367 . S
C215 H195 0.950 . S
C215 C210 1.386 . S
C215 C214 1.367 . S
C216 C210 1.483 . S
C216 C217 1.365 1_455 S
C216 C218 1.403 . S
C217 H196 0.952 . S
C217 C216 1.365 1_655 S
C217 C233 1.426 . S
C218 C216 1.403 . S
C218 C219 1.489 . S
C218 C232 1.411 . S
C219 C218 1.489 . S
C219 C220 1.383 . S
C219 C224 1.382 . S
C220 H197 0.950 . S
C220 C219 1.383 . S
C220 C221 1.395 . S
C221 H198 0.950 . S
C221 C220 1.395 . S
C221 C222 1.288 . S
C222 C221 1.288 . S
C222 C223 1.392 . S
C223 H199 0.951 . S
C223 C222 1.392 . S
C223 C224 1.392 . S
C224 H200 0.949 . S
C224 C219 1.382 . S
C224 C223 1.392 . S
C225 C226 1.376 . S
C225 C230 1.386 . S
C225 C231 1.483 . S
C226 H201 0.949 . S
C226 C225 1.376 . S
C226 C227 1.397 . S
C227 H202 0.950 . S
C227 C226 1.397 . S
C227 C228 1.391 . S
C228 C227 1.391 . S
C228 C229 1.405 . S
C229 H203 0.950 . S
C229 C228 1.405 . S
C229 C230 1.367 . S
C230 H204 0.950 . S
C230 C225 1.386 . S
C230 C229 1.367 . S
C231 C225 1.483 . S
C231 C232 1.382 1_655 S
C231 C233 1.403 . S
C232 H205 0.950 . S
C232 C218 1.411 . S
C232 C231 1.382 1_455 S
C233 C217 1.426 . S
C233 C231 1.403 . S
C233 C234 1.489 . S
C234 C233 1.489 . S
C234 C235 1.383 . S
C234 C239 1.382 . S
C235 H206 0.950 . S
C235 C234 1.383 . S
C235 C236 1.395 . S
C236 H207 0.950 . S
C236 C235 1.395 . S
C236 C237 1.288 . S
C237 C236 1.288 . S
C237 C238 1.392 . S
C238 H208 0.951 . S
C238 C237 1.392 . S
C238 C239 1.392 . S
C239 H209 0.949 . S
C239 C234 1.382 . S
C239 C238 1.392 . S
H240 C259 0.949 . S
H241 C260 0.950 . S
H242 C262 0.950 . S
H243 C263 0.950 . S
H244 C265 0.950 . S
H245 C268 0.950 . S
H246 C269 0.950 . S
H247 C271 0.951 . S
H248 C272 0.949 . S
H249 C274 0.949 . S
H250 C275 0.950 . S
H251 C277 0.950 . S
H252 C278 0.950 . S
H253 C280 0.950 . S
H254 C283 0.950 . S
H255 C284 0.950 . S
H256 C286 0.951 . S
H257 C287 0.949 . S
C258 C259 1.376 . S
C258 C263 1.386 . S
C258 C264 1.483 . S
C259 H240 0.949 . S
C259 C258 1.376 . S
C259 C260 1.397 . S
C260 H241 0.950 . S
C260 C259 1.397 . S
C260 C261 1.391 . S
C261 C260 1.391 . S
C261 C262 1.405 . S
C262 H242 0.950 . S
C262 C261 1.405 . S
C262 C263 1.367 . S
C263 H243 0.950 . S
C263 C258 1.386 . S
C263 C262 1.367 . S
C264 C258 1.483 . S
C264 C265 1.382 . S
C264 C266 1.403 . S
C265 H244 0.950 . S
C265 C264 1.382 . S
C265 C281 1.411 . S
C266 C264 1.403 . S
C266 C267 1.489 . S
C266 C280 1.411 . S
C267 C266 1.489 . S
C267 C268 1.383 . S
C267 C272 1.382 . S
C268 H245 0.950 . S
C268 C267 1.383 . S
C268 C269 1.395 . S
C269 H246 0.950 . S
C269 C268 1.395 . S
C269 C270 1.288 . S
C270 C269 1.288 . S
C270 C271 1.392 . S
C271 H247 0.951 . S
C271 C270 1.392 . S
C271 C272 1.392 . S
C272 H248 0.949 . S
C272 C267 1.382 . S
C272 C271 1.392 . S
C273 C274 1.376 . S
C273 C278 1.386 . S
C273 C279 1.483 . S
C274 H249 0.949 . S
C274 C273 1.376 . S
C274 C275 1.397 . S
C275 H250 0.950 . S
C275 C274 1.397 . S
C275 C276 1.391 . S
C276 C275 1.391 . S
C276 C277 1.405 . S
C277 H251 0.950 . S
C277 C276 1.405 . S
C277 C278 1.367 . S
C278 H252 0.950 . S
C278 C273 1.386 . S
C278 C277 1.367 . S
C279 C273 1.483 . S
C279 C280 1.382 . S
C279 C281 1.403 . S
C280 H253 0.950 . S
C280 C266 1.411 . S
C280 C279 1.382 . S
C281 C265 1.411 . S
C281 C279 1.403 . S
C281 C282 1.489 . S
C282 C281 1.489 . S
C282 C283 1.383 . S
C282 C287 1.382 . S
C283 H254 0.950 . S
C283 C282 1.383 . S
C283 C284 1.395 . S
C284 H255 0.950 . S
C284 C283 1.395 . S
C284 C285 1.288 . S
C285 C284 1.288 . S
C285 C286 1.392 . S
C286 H256 0.951 . S
C286 C285 1.392 . S
C286 C287 1.392 . S
C287 H257 0.949 . S
C287 C282 1.382 . S
C287 C286 1.392 . S
H288 C307 0.949 . S
H289 C308 0.950 . S
H290 C310 0.950 . S
H291 C311 0.950 . S
H292 C313 0.950 . S
H293 C316 0.950 . S
H294 C317 0.950 . S
H295 C319 0.951 . S
H296 C320 0.949 1_545 S
H297 C322 0.949 . S
H298 C323 0.950 . S
H299 C325 0.950 . S
H300 C326 0.950 . S
H301 C328 0.950 . S
H302 C331 0.950 . S
H303 C332 0.950 . S
H304 C334 0.951 . S
H305 C335 0.949 1_565 S
C306 C307 1.376 . S
C306 C311 1.386 . S
C306 C312 1.483 . S
C307 H288 0.949 . S
C307 C306 1.376 . S
C307 C308 1.397 . S
C308 H289 0.950 . S
C308 C307 1.397 . S
C308 C309 1.391 . S
C309 C308 1.391 . S
C309 C310 1.405 . S
C310 H290 0.950 . S
C310 C309 1.405 . S
C310 C311 1.367 . S
C311 H291 0.950 . S
C311 C306 1.386 . S
C311 C310 1.367 . S
C312 C306 1.483 . S
C312 C313 1.382 . S
C312 C314 1.403 . S
C313 H292 0.950 . S
C313 C312 1.382 . S
C313 C329 1.411 1_565 S
C314 C312 1.403 . S
C314 C315 1.489 . S
C314 C328 1.411 1_565 S
C315 C314 1.489 . S
C315 C316 1.383 . S
C315 C320 1.382 . S
C316 H293 0.950 . S
C316 C315 1.383 . S
C316 C317 1.395 . S
C317 H294 0.950 . S
C317 C316 1.395 . S
C317 C318 1.288 . S
C318 C317 1.288 . S
C318 C319 1.392 . S
C319 H295 0.951 . S
C319 C318 1.392 . S
C319 C320 1.392 . S
C320 H296 0.949 1_565 S
C320 C315 1.382 . S
C320 C319 1.392 . S
C321 C322 1.376 . S
C321 C326 1.386 . S
C321 C327 1.483 . S
C322 H297 0.949 . S
C322 C321 1.376 . S
C322 C323 1.397 . S
C323 H298 0.950 . S
C323 C322 1.397 . S
C323 C324 1.391 . S
C324 C323 1.391 . S
C324 C325 1.405 . S
C325 H299 0.950 . S
C325 C324 1.405 . S
C325 C326 1.367 . S
C326 H300 0.950 . S
C326 C321 1.386 . S
C326 C325 1.367 . S
C327 C321 1.483 . S
C327 C328 1.382 . S
C327 C329 1.403 . S
C328 H301 0.950 . S
C328 C314 1.411 1_545 S
C328 C327 1.382 . S
C329 C313 1.411 1_545 S
C329 C327 1.403 . S
C329 C330 1.489 . S
C330 C329 1.489 . S
C330 C331 1.383 . S
C330 C335 1.382 . S
C331 H302 0.950 . S
C331 C330 1.383 . S
C331 C332 1.395 . S
C332 H303 0.950 . S
C332 C331 1.395 . S
C332 C333 1.288 . S
C333 C332 1.288 . S
C333 C334 1.392 . S
C334 H304 0.951 . S
C334 C333 1.392 . S
C334 C335 1.392 . S
C335 H305 0.949 1_545 S
C335 C330 1.382 . S
C335 C334 1.392 . S
H336 C355 0.949 1_455 S
H337 C356 0.950 . S
H338 C358 0.950 . S
H339 C359 0.950 . S
H340 C361 0.950 . S
H341 C364 0.950 . S
H342 C365 0.950 . S
H343 C367 0.951 . S
H344 C368 0.949 . S
H345 C370 0.975 . S
H346 C371 0.950 . S
H347 C373 0.950 . S
H348 C374 0.950 . S
H349 C376 0.948 1_665 S
H350 C379 0.950 . S
H351 C380 0.950 . S
H352 C382 0.951 . S
H353 C383 0.949 . S
C354 C355 1.376 . S
C354 C359 1.386 . S
C354 C360 1.483 . S
C355 H336 0.949 1_655 S
C355 C354 1.376 . S
C355 C356 1.397 . S
C356 H337 0.950 . S
C356 C355 1.397 . S
C356 C357 1.391 . S
C357 C356 1.391 . S
C357 C358 1.405 . S
C358 H338 0.950 . S
C358 C357 1.405 . S
C358 C359 1.367 . S
C359 H339 0.950 . S
C359 C354 1.386 . S
C359 C358 1.367 . S
C360 C354 1.483 . S
C360 C361 1.382 1_655 S
C360 C362 1.403 . S
C361 H340 0.950 . S
C361 C360 1.382 1_455 S
C361 C377 1.411 1_545 S
C362 C360 1.403 . S
C362 C363 1.489 . S
C362 C376 1.396 1_655 S
C363 C362 1.489 . S
C363 C364 1.383 . S
C363 C368 1.382 . S
C364 H341 0.950 . S
C364 C363 1.383 . S
C364 C365 1.395 . S
C365 H342 0.950 . S
C365 C364 1.395 . S
C365 C366 1.288 . S
C366 C365 1.288 . S
C366 C367 1.392 . S
C367 H343 0.951 . S
C367 C366 1.392 . S
C367 C368 1.392 . S
C368 H344 0.949 . S
C368 C363 1.382 . S
C368 C367 1.392 . S
C369 C370 1.376 . S
C369 C374 1.386 . S
C369 C375 1.483 . S
C370 H345 0.975 . S
C370 C369 1.376 . S
C370 C371 1.397 . S
C371 H346 0.950 . S
C371 C370 1.397 . S
C371 C372 1.391 . S
C372 C371 1.391 . S
C372 C373 1.405 . S
C373 H347 0.950 . S
C373 C372 1.405 . S
C373 C374 1.367 . S
C374 H348 0.950 . S
C374 C369 1.386 . S
C374 C373 1.367 . S
C375 C369 1.483 . S
C375 C376 1.400 1_565 S
C375 C377 1.403 . S
C376 H349 0.948 1_445 S
C376 C362 1.396 1_455 S
C376 C375 1.400 1_545 S
C377 C361 1.411 1_565 S
C377 C375 1.403 . S
C377 C378 1.489 . S
C378 C377 1.489 . S
C378 C379 1.383 . S
C378 C383 1.382 . S
C379 H350 0.950 . S
C379 C378 1.383 . S
C379 C380 1.395 . S
C380 H351 0.950 . S
C380 C379 1.395 . S
C380 C381 1.288 . S
C381 C380 1.288 . S
C381 C382 1.392 . S
C382 H352 0.951 . S
C382 C381 1.392 . S
C382 C383 1.392 . S
C383 H353 0.949 . S
C383 C378 1.382 . S
C383 C382 1.392 . S
Mn384 O389 2.095 1_554 S
Mn384 O399 2.162 . S
Mn384 O400 2.297 . S
Mn384 O408 2.385 . S
Mn384 O409 2.209 . S
Mn384 O410 2.094 1_554 S
Mn385 O390 2.121 . S
Mn385 N392 2.257 1_556 S
Mn385 N401 2.282 1_556 S
Mn385 O409 2.215 1_556 S
Mn385 O411 2.117 . S
C386 O408 1.234 . S
C386 O409 1.283 . S
C387 O399 1.281 . S
C387 O400 1.236 . S
C388 O410 1.240 . S
C388 O411 1.264 . S
O389 Mn384 2.095 1_556 S
O389 C398 1.250 . S
O390 Mn385 2.121 . S
O390 C398 1.258 . S
C391 N392 1.326 1_556 S
C391 C395 1.460 1_556 S
C391 H397 0.929 . S
N392 Mn385 2.257 1_554 S
N392 C391 1.326 1_554 S
N392 C396 1.362 . S
C393 C394 1.258 . S
C393 C396 1.431 . S
C393 C413 1.449 . S
C394 C393 1.258 . S
C394 C395 1.477 . S
C394 H414 0.931 . S
C395 C391 1.460 1_554 S
C395 C394 1.477 . S
C395 H415 0.930 1_554 S
C396 N392 1.362 . S
C396 C393 1.431 . S
C396 C406 1.476 . S
H397 C391 0.929 . S
C398 O389 1.250 . S
C398 O390 1.258 . S
O399 Mn384 2.162 . S
O399 C387 1.281 . S
O400 Mn384 2.297 . S
O400 C387 1.236 . S
N401 Mn385 2.282 1_554 S
N401 C402 1.328 . S
N401 C406 1.318 . S
C402 N401 1.328 . S
C402 C403 1.457 . S
C402 H407 0.929 . S
C403 C402 1.457 . S
C403 C404 1.291 . S
C403 H416 0.931 . S
C404 C403 1.291 . S
C404 C405 1.373 . S
C404 H417 0.929 . S
C405 C404 1.373 . S
C405 C406 1.396 . S
C405 C412 1.403 . S
C406 C396 1.476 . S
C406 N401 1.318 . S
C406 C405 1.396 . S
H407 C402 0.929 . S
O408 Mn384 2.385 . S
O408 C386 1.234 . S
O409 Mn384 2.209 . S
O409 Mn385 2.215 1_554 S
O409 C386 1.283 . S
O410 Mn384 2.094 1_556 S
O410 C388 1.240 . S
O411 Mn385 2.117 . S
O411 C388 1.264 . S
C412 C405 1.403 . S
C412 C413 1.399 . S
C412 H418 0.929 . S
C413 C393 1.449 . S
C413 C412 1.399 . S
C413 H419 0.930 . S
H414 C394 0.931 . S
H415 C395 0.930 1_556 S
H416 C403 0.931 . S
H417 C404 0.929 . S
H418 C412 0.929 . S
H419 C413 0.930 . S
Mn420 O425 2.095 . S
Mn420 O435 2.162 . S
Mn420 O436 2.297 . S
Mn420 O444 2.385 . S
Mn420 O445 2.209 . S
Mn420 O446 2.094 . S
Mn421 O426 2.121 . S
Mn421 N428 2.257 . S
Mn421 N437 2.282 . S
Mn421 O445 2.215 . S
Mn421 O447 2.117 . S
C422 O444 1.234 . S
C422 O445 1.283 . S
C423 O435 1.281 . S
C423 O436 1.236 . S
C424 O446 1.240 . S
C424 O447 1.264 . S
O425 Mn420 2.095 . S
O425 C434 1.250 . S
O426 Mn421 2.121 . S
O426 C434 1.258 . S
C427 N428 1.326 . S
C427 C431 1.460 . S
C427 H433 0.929 . S
N428 Mn421 2.257 . S
N428 C427 1.326 . S
N428 C432 1.362 . S
C429 C430 1.258 . S
C429 C432 1.431 . S
C429 C449 1.449 . S
C430 C429 1.258 . S
C430 C431 1.477 . S
C430 H450 0.931 . S
C431 C427 1.460 . S
C431 C430 1.477 . S
C431 H451 0.930 . S
C432 N428 1.362 . S
C432 C429 1.431 . S
C432 C442 1.476 . S
H433 C427 0.929 . S
C434 O425 1.250 . S
C434 O426 1.258 . S
O435 Mn420 2.162 . S
O435 C423 1.281 . S
O436 Mn420 2.297 . S
O436 C423 1.236 . S
N437 Mn421 2.282 . S
N437 C438 1.328 . S
N437 C442 1.318 . S
C438 N437 1.328 . S
C438 C439 1.457 . S
C438 H443 0.929 . S
C439 C438 1.457 . S
C439 C440 1.291 . S
C439 H452 0.931 . S
C440 C439 1.291 . S
C440 C441 1.373 . S
C440 H453 0.929 . S
C441 C440 1.373 . S
C441 C442 1.396 . S
C441 C448 1.403 . S
C442 C432 1.476 . S
C442 N437 1.318 . S
C442 C441 1.396 . S
H443 C438 0.929 . S
O444 Mn420 2.385 . S
O444 C422 1.234 . S
O445 Mn420 2.209 . S
O445 Mn421 2.215 . S
O445 C422 1.283 . S
O446 Mn420 2.094 . S
O446 C424 1.240 . S
O447 Mn421 2.117 . S
O447 C424 1.264 . S
C448 C441 1.403 . S
C448 C449 1.399 . S
C448 H454 0.929 . S
C449 C429 1.449 . S
C449 C448 1.399 . S
C449 H455 0.930 . S
H450 C430 0.931 . S
H451 C431 0.930 . S
H452 C439 0.931 . S
H453 C440 0.929 . S
H454 C448 0.929 . S
H455 C449 0.930 . S
Mn456 O461 2.095 . S
Mn456 O471 2.162 . S
Mn456 O472 2.297 . S
Mn456 O480 2.385 . S
Mn456 O481 2.209 . S
Mn456 O482 2.094 . S
Mn457 O462 2.121 . S
Mn457 N464 2.257 . S
Mn457 N473 2.282 . S
Mn457 O481 2.215 . S
Mn457 O483 2.117 . S
C458 O480 1.234 . S
C458 O481 1.283 . S
C459 O471 1.281 . S
C459 O472 1.236 . S
C460 O482 1.240 . S
C460 O483 1.264 . S
O461 Mn456 2.095 . S
O461 C470 1.250 . S
O462 Mn457 2.121 . S
O462 C470 1.258 . S
C463 N464 1.326 . S
C463 C467 1.460 . S
C463 H469 0.929 . S
N464 Mn457 2.257 . S
N464 C463 1.326 . S
N464 C468 1.362 . S
C465 C466 1.258 . S
C465 C468 1.431 . S
C465 C485 1.449 . S
C466 C465 1.258 . S
C466 C467 1.477 . S
C466 H486 0.931 . S
C467 C463 1.460 . S
C467 C466 1.477 . S
C467 H487 0.930 . S
C468 N464 1.362 . S
C468 C465 1.431 . S
C468 C478 1.476 . S
H469 C463 0.929 . S
C470 O461 1.250 . S
C470 O462 1.258 . S
O471 Mn456 2.162 . S
O471 C459 1.281 . S
O472 Mn456 2.297 . S
O472 C459 1.236 . S
N473 Mn457 2.282 . S
N473 C474 1.328 . S
N473 C478 1.318 . S
C474 N473 1.328 . S
C474 C475 1.457 . S
C474 H479 0.929 . S
C475 C474 1.457 . S
C475 C476 1.291 . S
C475 H488 0.931 . S
C476 C475 1.291 . S
C476 C477 1.373 . S
C476 H489 0.929 . S
C477 C476 1.373 . S
C477 C478 1.396 . S
C477 C484 1.403 . S
C478 C468 1.476 . S
C478 N473 1.318 . S
C478 C477 1.396 . S
H479 C474 0.929 . S
O480 Mn456 2.385 . S
O480 C458 1.234 . S
O481 Mn456 2.209 . S
O481 Mn457 2.215 . S
O481 C458 1.283 . S
O482 Mn456 2.094 . S
O482 C460 1.240 . S
O483 Mn457 2.117 . S
O483 C460 1.264 . S
C484 C477 1.403 . S
C484 C485 1.399 . S
C484 H490 0.929 . S
C485 C465 1.449 . S
C485 C484 1.399 . S
C485 H491 0.930 . S
H486 C466 0.931 . S
H487 C467 0.930 . S
H488 C475 0.931 . S
H489 C476 0.929 . S
H490 C484 0.929 . S
H491 C485 0.930 . S
Mn492 O497 2.095 . S
Mn492 O507 2.162 . S
Mn492 O508 2.297 . S
Mn492 O516 2.385 . S
Mn492 O517 2.209 . S
Mn492 O518 2.094 . S
Mn493 O498 2.121 . S
Mn493 N500 2.257 . S
Mn493 N509 2.282 . S
Mn493 O517 2.215 . S
Mn493 O519 2.117 . S
C494 O516 1.234 . S
C494 O517 1.283 . S
C495 O507 1.281 . S
C495 O508 1.236 . S
C496 O518 1.240 . S
C496 O519 1.264 . S
O497 Mn492 2.095 . S
O497 C506 1.250 . S
O498 Mn493 2.121 . S
O498 C506 1.258 . S
C499 N500 1.326 . S
C499 C503 1.460 . S
C499 H505 0.929 . S
N500 Mn493 2.257 . S
N500 C499 1.326 . S
N500 C504 1.362 . S
C501 C502 1.258 . S
C501 C504 1.431 . S
C501 C521 1.449 . S
C502 C501 1.258 . S
C502 C503 1.477 . S
C502 H522 0.931 . S
C503 C499 1.460 . S
C503 C502 1.477 . S
C503 H523 0.930 . S
C504 N500 1.362 . S
C504 C501 1.431 . S
C504 C514 1.476 . S
H505 C499 0.929 . S
C506 O497 1.250 . S
C506 O498 1.258 . S
O507 Mn492 2.162 . S
O507 C495 1.281 . S
O508 Mn492 2.297 . S
O508 C495 1.236 . S
N509 Mn493 2.282 . S
N509 C510 1.328 . S
N509 C514 1.318 . S
C510 N509 1.328 . S
C510 C511 1.457 . S
C510 H515 0.929 . S
C511 C510 1.457 . S
C511 C512 1.291 . S
C511 H524 0.931 . S
C512 C511 1.291 . S
C512 C513 1.373 . S
C512 H525 0.929 . S
C513 C512 1.373 . S
C513 C514 1.396 . S
C513 C520 1.403 . S
C514 C504 1.476 . S
C514 N509 1.318 . S
C514 C513 1.396 . S
H515 C510 0.929 . S
O516 Mn492 2.385 . S
O516 C494 1.234 . S
O517 Mn492 2.209 . S
O517 Mn493 2.215 . S
O517 C494 1.283 . S
O518 Mn492 2.094 . S
O518 C496 1.240 . S
O519 Mn493 2.117 . S
O519 C496 1.264 . S
C520 C513 1.403 . S
C520 C521 1.399 . S
C520 H526 0.929 . S
C521 C501 1.449 . S
C521 C520 1.399 . S
C521 H527 0.930 . S
H522 C502 0.931 . S
H523 C503 0.930 . S
H524 C511 0.931 . S
H525 C512 0.929 . S
H526 C520 0.929 . S
H527 C521 0.930 . S
Mn528 O533 2.095 . S
Mn528 O543 2.162 . S
Mn528 O544 2.297 . S
Mn528 O552 2.385 . S
Mn528 O553 2.209 . S
Mn528 O554 2.094 . S
Mn529 O534 2.121 . S
Mn529 N536 2.257 . S
Mn529 N545 2.282 . S
Mn529 O553 2.215 . S
Mn529 O555 2.117 . S
C530 O552 1.234 . S
C530 O553 1.283 . S
C531 O543 1.281 . S
C531 O544 1.236 . S
C532 O554 1.240 . S
C532 O555 1.264 . S
O533 Mn528 2.095 . S
O533 C542 1.250 . S
O534 Mn529 2.121 . S
O534 C542 1.258 . S
C535 N536 1.326 . S
C535 C539 1.460 . S
C535 H541 0.929 . S
N536 Mn529 2.257 . S
N536 C535 1.326 . S
N536 C540 1.362 . S
C537 C538 1.258 . S
C537 C540 1.431 . S
C537 C557 1.449 . S
C538 C537 1.258 . S
C538 C539 1.477 . S
C538 H558 0.931 . S
C539 C535 1.460 . S
C539 C538 1.477 . S
C539 H559 0.930 . S
C540 N536 1.362 . S
C540 C537 1.431 . S
C540 C550 1.476 . S
H541 C535 0.929 . S
C542 O533 1.250 . S
C542 O534 1.258 . S
O543 Mn528 2.162 . S
O543 C531 1.281 . S
O544 Mn528 2.297 . S
O544 C531 1.236 . S
N545 Mn529 2.282 . S
N545 C546 1.328 . S
N545 C550 1.318 . S
C546 N545 1.328 . S
C546 C547 1.457 . S
C546 H551 0.929 . S
C547 C546 1.457 . S
C547 C548 1.291 . S
C547 H560 0.931 . S
C548 C547 1.291 . S
C548 C549 1.373 . S
C548 H561 0.929 . S
C549 C548 1.373 . S
C549 C550 1.396 . S
C549 C556 1.403 . S
C550 C540 1.476 . S
C550 N545 1.318 . S
C550 C549 1.396 . S
H551 C546 0.929 . S
O552 Mn528 2.385 . S
O552 C530 1.234 . S
O553 Mn528 2.209 . S
O553 Mn529 2.215 . S
O553 C530 1.283 . S
O554 Mn528 2.094 . S
O554 C532 1.240 . S
O555 Mn529 2.117 . S
O555 C532 1.264 . S
C556 C549 1.403 . S
C556 C557 1.399 . S
C556 H562 0.929 . S
C557 C537 1.449 . S
C557 C556 1.399 . S
C557 H563 0.930 . S
H558 C538 0.931 . S
H559 C539 0.930 . S
H560 C547 0.931 . S
H561 C548 0.929 . S
H562 C556 0.929 . S
H563 C557 0.930 . S
Mn564 O569 2.095 . S
Mn564 O579 2.162 . S
Mn564 O580 2.297 . S
Mn564 O588 2.385 . S
Mn564 O589 2.209 . S
Mn564 O590 2.094 . S
Mn565 O570 2.121 . S
Mn565 N572 2.257 . S
Mn565 N581 2.282 . S
Mn565 O589 2.215 . S
Mn565 O591 2.117 . S
C566 O588 1.234 . S
C566 O589 1.283 . S
C567 O579 1.281 . S
C567 O580 1.236 . S
C568 O590 1.240 . S
C568 O591 1.264 . S
O569 Mn564 2.095 . S
O569 C578 1.250 . S
O570 Mn565 2.121 . S
O570 C578 1.258 . S
C571 N572 1.326 . S
C571 C575 1.460 . S
C571 H577 0.929 . S
N572 Mn565 2.257 . S
N572 C571 1.326 . S
N572 C576 1.362 . S
C573 C574 1.258 . S
C573 C576 1.431 . S
C573 C593 1.449 . S
C574 C573 1.258 . S
C574 C575 1.477 . S
C574 H594 0.931 . S
C575 C571 1.460 . S
C575 C574 1.477 . S
C575 H595 0.930 . S
C576 N572 1.362 . S
C576 C573 1.431 . S
C576 C586 1.476 . S
H577 C571 0.929 . S
C578 O569 1.250 . S
C578 O570 1.258 . S
O579 Mn564 2.162 . S
O579 C567 1.281 . S
O580 Mn564 2.297 . S
O580 C567 1.236 . S
N581 Mn565 2.282 . S
N581 C582 1.328 . S
N581 C586 1.318 . S
C582 N581 1.328 . S
C582 C583 1.457 . S
C582 H587 0.929 . S
C583 C582 1.457 . S
C583 C584 1.291 . S
C583 H596 0.931 . S
C584 C583 1.291 . S
C584 C585 1.373 . S
C584 H597 0.929 . S
C585 C584 1.373 . S
C585 C586 1.396 . S
C585 C592 1.403 . S
C586 C576 1.476 . S
C586 N581 1.318 . S
C586 C585 1.396 . S
H587 C582 0.929 . S
O588 Mn564 2.385 . S
O588 C566 1.234 . S
O589 Mn564 2.209 . S
O589 Mn565 2.215 . S
O589 C566 1.283 . S
O590 Mn564 2.094 . S
O590 C568 1.240 . S
O591 Mn565 2.117 . S
O591 C568 1.264 . S
C592 C585 1.403 . S
C592 C593 1.399 . S
C592 H598 0.929 . S
C593 C573 1.449 . S
C593 C592 1.399 . S
C593 H599 0.930 . S
H594 C574 0.931 . S
H595 C575 0.930 . S
H596 C583 0.931 . S
H597 C584 0.929 . S
H598 C592 0.929 . S
H599 C593 0.930 . S
Mn600 O605 2.095 . S
Mn600 O615 2.162 . S
Mn600 O616 2.297 1_554 S
Mn600 O624 2.385 1_554 S
Mn600 O625 2.209 1_554 S
Mn600 O626 2.094 . S
Mn601 O606 2.121 . S
Mn601 N608 2.257 1_554 S
Mn601 N617 2.282 1_554 S
Mn601 O625 2.215 1_554 S
Mn601 O627 2.117 . S
C602 O624 1.234 . S
C602 O625 1.283 . S
C603 O615 1.279 1_556 S
C603 O616 1.236 . S
C604 O626 1.240 . S
C604 O627 1.264 . S
O605 Mn600 2.095 . S
O605 C614 1.250 . S
O606 Mn601 2.121 . S
O606 C614 1.258 . S
C607 N608 1.326 1_554 S
C607 C611 1.475 . S
C607 H613 0.929 . S
N608 Mn601 2.257 1_556 S
N608 C607 1.326 1_556 S
N608 C612 1.362 . S
C609 C610 1.258 . S
C609 C612 1.431 . S
C609 C629 1.449 . S
C610 C609 1.258 . S
C610 C611 1.437 1_556 S
C610 H630 0.931 . S
C611 C607 1.475 . S
C611 C610 1.437 1_554 S
C611 H631 0.956 . S
C612 N608 1.362 . S
C612 C609 1.431 . S
C612 C622 1.476 . S
H613 C607 0.929 . S
C614 O605 1.250 . S
C614 O606 1.258 . S
O615 Mn600 2.162 . S
O615 C603 1.279 1_554 S
O616 Mn600 2.297 1_556 S
O616 C603 1.236 . S
N617 Mn601 2.282 1_556 S
N617 C618 1.328 . S
N617 C622 1.318 . S
C618 N617 1.328 . S
C618 C619 1.457 . S
C618 H623 0.929 . S
C619 C618 1.457 . S
C619 C620 1.291 . S
C619 H632 0.931 . S
C620 C619 1.291 . S
C620 C621 1.373 . S
C620 H633 0.929 . S
C621 C620 1.373 . S
C621 C622 1.396 . S
C621 C628 1.403 . S
C622 C612 1.476 . S
C622 N617 1.318 . S
C622 C621 1.396 . S
H623 C618 0.929 . S
O624 Mn600 2.385 1_556 S
O624 C602 1.234 . S
O625 Mn600 2.209 1_556 S
O625 Mn601 2.215 1_556 S
O625 C602 1.283 . S
O626 Mn600 2.094 . S
O626 C604 1.240 . S
O627 Mn601 2.117 . S
O627 C604 1.264 . S
C628 C621 1.403 . S
C628 C629 1.399 . S
C628 H634 0.929 . S
C629 C609 1.449 . S
C629 C628 1.399 . S
C629 H635 0.930 . S
H630 C610 0.931 . S
H631 C611 0.956 . S
H632 C619 0.931 . S
H633 C620 0.929 . S
H634 C628 0.929 . S
H635 C629 0.930 . S
Mn636 O641 2.095 . S
Mn636 O651 2.162 . S
Mn636 O652 2.297 . S
Mn636 O660 2.385 . S
Mn636 O661 2.209 . S
Mn636 O662 2.094 . S
Mn637 O642 2.121 . S
Mn637 N644 2.257 . S
Mn637 N653 2.282 . S
Mn637 O661 2.215 . S
Mn637 O663 2.117 . S
C638 O660 1.234 . S
C638 O661 1.283 . S
C639 O651 1.281 . S
C639 O652 1.236 . S
C640 O662 1.240 . S
C640 O663 1.264 . S
O641 Mn636 2.095 . S
O641 C650 1.250 . S
O642 Mn637 2.121 . S
O642 C650 1.258 . S
C643 N644 1.326 . S
C643 C647 1.460 . S
C643 H649 0.929 . S
N644 Mn637 2.257 . S
N644 C643 1.326 . S
N644 C648 1.362 . S
C645 C646 1.258 . S
C645 C648 1.431 . S
C645 C665 1.449 . S
C646 C645 1.258 . S
C646 C647 1.477 . S
C646 H666 0.931 . S
C647 C643 1.460 . S
C647 C646 1.477 . S
C647 H667 0.930 . S
C648 N644 1.362 . S
C648 C645 1.431 . S
C648 C658 1.476 . S
H649 C643 0.929 . S
C650 O641 1.250 . S
C650 O642 1.258 . S
O651 Mn636 2.162 . S
O651 C639 1.281 . S
O652 Mn636 2.297 . S
O652 C639 1.236 . S
N653 Mn637 2.282 . S
N653 C654 1.328 . S
N653 C658 1.318 . S
C654 N653 1.328 . S
C654 C655 1.457 . S
C654 H659 0.929 . S
C655 C654 1.457 . S
C655 C656 1.291 . S
C655 H668 0.931 . S
C656 C655 1.291 . S
C656 C657 1.373 . S
C656 H669 0.929 . S
C657 C656 1.373 . S
C657 C658 1.396 . S
C657 C664 1.403 . S
C658 C648 1.476 . S
C658 N653 1.318 . S
C658 C657 1.396 . S
H659 C654 0.929 . S
O660 Mn636 2.385 . S
O660 C638 1.234 . S
O661 Mn636 2.209 . S
O661 Mn637 2.215 . S
O661 C638 1.283 . S
O662 Mn636 2.094 . S
O662 C640 1.240 . S
O663 Mn637 2.117 . S
O663 C640 1.264 . S
C664 C657 1.403 . S
C664 C665 1.399 . S
C664 H670 0.929 . S
C665 C645 1.449 . S
C665 C664 1.399 . S
C665 H671 0.930 . S
H666 C646 0.931 . S
H667 C647 0.930 . S
H668 C655 0.931 . S
H669 C656 0.929 . S
H670 C664 0.929 . S
H671 C665 0.930 . S
H672 C678 0.930 . S
H673 C682 0.930 . S
H674 C687 0.929 . S
H675 C685 0.929 . S
H676 C680 0.929 . S
H677 C686 0.929 . S
C678 H672 0.930 . S
C678 C679 1.367 . S
C678 C686 1.378 . S
C679 C678 1.367 . S
C679 C687 1.433 . S
C680 H676 0.929 . S
C680 C682 1.378 . S
C680 C684 1.350 . S
C681 C684 1.463 . S
C681 C686 1.350 . S
C681 N689 1.427 . S
C682 H673 0.930 . S
C682 C680 1.378 . S
C682 C683 1.367 . S
C683 C682 1.367 . S
C683 C685 1.433 . S
C684 C680 1.350 . S
C684 C681 1.463 . S
C684 N688 1.427 . S
C685 H675 0.929 . S
C685 C683 1.433 . S
C685 N688 1.384 . S
C686 H677 0.929 . S
C686 C678 1.378 . S
C686 C681 1.350 . S
C687 H674 0.929 . S
C687 C679 1.433 . S
C687 N689 1.384 . S
N688 C684 1.427 . S
N688 C685 1.384 . S
N689 C681 1.427 . S
N689 C687 1.384 . S
H690 C696 0.930 . S
H691 C700 0.930 . S
H692 C705 0.929 . S
H693 C703 0.929 . S
H694 C698 0.929 . S
H695 C704 0.929 . S
C696 H690 0.930 . S
C696 C697 1.367 . S
C696 C704 1.378 . S
C697 C696 1.367 . S
C697 C705 1.433 . S
C698 H694 0.929 . S
C698 C700 1.378 . S
C698 C702 1.350 . S
C699 C702 1.463 . S
C699 C704 1.350 . S
C699 N707 1.427 . S
C700 H691 0.930 . S
C700 C698 1.378 . S
C700 C701 1.367 . S
C701 C700 1.367 . S
C701 C703 1.433 . S
C702 C698 1.350 . S
C702 C699 1.463 . S
C702 N706 1.427 . S
C703 H693 0.929 . S
C703 C701 1.433 . S
C703 N706 1.384 . S
C704 H695 0.929 . S
C704 C696 1.378 . S
C704 C699 1.350 . S
C705 H692 0.929 . S
C705 C697 1.433 . S
C705 N707 1.384 . S
N706 C702 1.427 . S
N706 C703 1.384 . S
N707 C699 1.427 . S
N707 C705 1.384 . S
H708 C714 0.930 . S
H709 C718 0.930 . S
H710 C723 0.929 . S
H711 C721 0.929 . S
H712 C716 0.929 . S
H713 C722 0.929 . S
C714 H708 0.930 . S
C714 C715 1.367 . S
C714 C722 1.378 . S
C715 C714 1.367 . S
C715 C723 1.433 . S
C716 H712 0.929 . S
C716 C718 1.378 . S
C716 C720 1.350 . S
C717 C720 1.463 . S
C717 C722 1.350 . S
C717 N725 1.427 . S
C718 H709 0.930 . S
C718 C716 1.378 . S
C718 C719 1.367 . S
C719 C718 1.367 . S
C719 C721 1.433 . S
C720 C716 1.350 . S
C720 C717 1.463 . S
C720 N724 1.427 . S
C721 H711 0.929 . S
C721 C719 1.433 . S
C721 N724 1.384 . S
C722 H713 0.929 . S
C722 C714 1.378 . S
C722 C717 1.350 . S
C723 H710 0.929 . S
C723 C715 1.433 . S
C723 N725 1.384 . S
N724 C720 1.427 . S
N724 C721 1.384 . S
N725 C717 1.427 . S
N725 C723 1.384 . S
H726 C732 0.930 . S
H727 C736 0.930 1_556 S
H728 C741 0.929 . S
H729 C739 0.929 . S
H730 C734 0.917 1_556 S
H731 C740 0.929 . S
C732 H726 0.930 . S
C732 C733 1.367 . S
C732 C740 1.378 . S
C733 C732 1.367 . S
C733 C741 1.433 . S
C734 H730 0.917 1_554 S
C734 C736 1.378 . S
C734 C738 1.350 . S
C735 C738 1.463 . S
C735 C740 1.350 . S
C735 N743 1.427 . S
C736 H727 0.930 1_554 S
C736 C734 1.378 . S
C736 C737 1.367 . S
C737 C736 1.367 . S
C737 C739 1.433 . S
C738 C734 1.350 . S
C738 C735 1.463 . S
C738 N742 1.427 . S
C739 H729 0.929 . S
C739 C737 1.433 . S
C739 N742 1.384 . S
C740 H731 0.929 . S
C740 C732 1.378 . S
C740 C735 1.350 . S
C741 H728 0.929 . S
C741 C733 1.433 . S
C741 N743 1.384 . S
N742 C738 1.427 . S
N742 C739 1.384 . S
N743 C735 1.427 . S
N743 C741 1.384 . S
H744 C750 0.930 . S
H745 C754 0.930 . S
H746 C759 0.929 . S
H747 C757 0.929 1_554 S
H748 C752 0.929 . S
H749 C758 0.929 . S
C750 H744 0.930 . S
C750 C751 1.367 . S
C750 C758 1.378 . S
C751 C750 1.367 . S
C751 C759 1.433 . S
C752 H748 0.929 . S
C752 C754 1.378 . S
C752 C756 1.350 . S
C753 C756 1.463 . S
C753 C758 1.350 . S
C753 N761 1.427 . S
C754 H745 0.930 . S
C754 C752 1.378 . S
C754 C755 1.367 . S
C755 C754 1.367 . S
C755 C757 1.433 . S
C756 C752 1.350 . S
C756 C753 1.463 . S
C756 N760 1.427 . S
C757 H747 0.929 1_556 S
C757 C755 1.433 . S
C757 N760 1.384 . S
C758 H749 0.929 . S
C758 C750 1.378 . S
C758 C753 1.350 . S
C759 H746 0.929 . S
C759 C751 1.433 . S
C759 N761 1.384 . S
N760 C756 1.427 . S
N760 C757 1.384 . S
N761 C753 1.427 . S
N761 C759 1.384 . S
H762 C768 0.930 . S
H763 C772 0.930 . S
H764 C777 0.929 . S
H765 C775 0.929 . S
H766 C770 0.929 . S
H767 C776 0.929 . S
C768 H762 0.930 . S
C768 C769 1.367 . S
C768 C776 1.378 . S
C769 C768 1.367 . S
C769 C777 1.433 . S
C770 H766 0.929 . S
C770 C772 1.378 . S
C770 C774 1.350 . S
C771 C774 1.463 . S
C771 C776 1.350 . S
C771 N779 1.427 . S
C772 H763 0.930 . S
C772 C770 1.378 . S
C772 C773 1.367 . S
C773 C772 1.367 . S
C773 C775 1.433 . S
C774 C770 1.350 . S
C774 C771 1.463 . S
C774 N778 1.427 . S
C775 H765 0.929 . S
C775 C773 1.433 . S
C775 N778 1.384 . S
C776 H767 0.929 . S
C776 C768 1.378 . S
C776 C771 1.350 . S
C777 H764 0.929 . S
C777 C769 1.433 . S
C777 N779 1.384 . S
N778 C774 1.427 . S
N778 C775 1.384 . S
N779 C771 1.427 . S
N779 C777 1.384 . S
H780 C786 0.930 . S
H781 C790 0.930 . S
H782 C795 0.929 . S
H783 C793 0.929 . S
H784 C788 0.929 . S
H785 C794 0.929 . S
C786 H780 0.930 . S
C786 C787 1.367 . S
C786 C794 1.378 . S
C787 C786 1.367 . S
C787 C795 1.433 . S
C788 H784 0.929 . S
C788 C790 1.378 . S
C788 C792 1.350 . S
C789 C792 1.463 . S
C789 C794 1.350 . S
C789 N797 1.427 . S
C790 H781 0.930 . S
C790 C788 1.378 . S
C790 C791 1.367 . S
C791 C790 1.367 . S
C791 C793 1.433 . S
C792 C788 1.350 . S
C792 C789 1.463 . S
C792 N796 1.427 . S
C793 H783 0.929 . S
C793 C791 1.433 . S
C793 N796 1.384 . S
C794 H785 0.929 . S
C794 C786 1.378 . S
C794 C789 1.350 . S
C795 H782 0.929 . S
C795 C787 1.433 . S
C795 N797 1.384 . S
N796 C792 1.427 . S
N796 C793 1.384 . S
N797 C789 1.427 . S
N797 C795 1.384 . S
H798 C804 0.930 . S
H799 C808 0.930 . S
H800 C813 0.929 . S
H801 C811 0.929 . S
H802 C806 0.929 . S
H803 C812 0.929 . S
C804 H798 0.930 . S
C804 C805 1.367 . S
C804 C812 1.378 . S
C805 C804 1.367 . S
C805 C813 1.433 . S
C806 H802 0.929 . S
C806 C808 1.378 . S
C806 C810 1.350 . S
C807 C810 1.463 . S
C807 C812 1.350 . S
C807 N815 1.427 . S
C808 H799 0.930 . S
C808 C806 1.378 . S
C808 C809 1.367 . S
C809 C808 1.367 . S
C809 C811 1.433 . S
C810 C806 1.350 . S
C810 C807 1.463 . S
C810 N814 1.427 . S
C811 H801 0.929 . S
C811 C809 1.433 . S
C811 N814 1.384 . S
C812 H803 0.929 . S
C812 C804 1.378 . S
C812 C807 1.350 . S
C813 H800 0.929 . S
C813 C805 1.433 . S
C813 N815 1.384 . S
N814 C810 1.427 . S
N814 C811 1.384 . S
N815 C807 1.427 . S
N815 C813 1.384 . S
H816 C822 0.930 . S
H817 C826 0.930 . S
H818 C831 0.929 . S
H819 C829 0.929 . S
H820 C824 0.929 . S
H821 C830 0.929 . S
C822 H816 0.930 . S
C822 C823 1.367 . S
C822 C830 1.378 . S
C823 C822 1.367 . S
C823 C831 1.433 . S
C824 H820 0.929 . S
C824 C826 1.378 . S
C824 C828 1.350 . S
C825 C828 1.463 . S
C825 C830 1.350 . S
C825 N833 1.427 . S
C826 H817 0.930 . S
C826 C824 1.378 . S
C826 C827 1.367 . S
C827 C826 1.367 . S
C827 C829 1.433 . S
C828 C824 1.350 . S
C828 C825 1.463 . S
C828 N832 1.427 . S
C829 H819 0.929 . S
C829 C827 1.433 . S
C829 N832 1.384 . S
C830 H821 0.929 . S
C830 C822 1.378 . S
C830 C825 1.350 . S
C831 H818 0.929 . S
C831 C823 1.433 . S
C831 N833 1.384 . S
N832 C828 1.427 . S
N832 C829 1.384 . S
N833 C825 1.427 . S
N833 C831 1.384 . S
H834 C840 0.930 . S
H835 C844 0.930 . S
H836 C849 0.929 . S
H837 C847 0.929 . S
H838 C842 0.929 . S
H839 C848 0.929 1_556 S
C840 H834 0.930 . S
C840 C841 1.367 . S
C840 C848 1.378 . S
C841 C840 1.367 . S
C841 C849 1.433 . S
C842 H838 0.929 . S
C842 C844 1.378 . S
C842 C846 1.350 . S
C843 C846 1.463 . S
C843 C848 1.350 . S
C843 N851 1.427 . S
C844 H835 0.930 . S
C844 C842 1.378 . S
C844 C845 1.367 . S
C845 C844 1.367 . S
C845 C847 1.433 1_554 S
C846 C842 1.350 . S
C846 C843 1.463 . S
C846 N850 1.484 . S
C847 H837 0.929 . S
C847 C845 1.433 1_556 S
C847 N850 1.373 1_556 S
C848 H839 0.929 1_554 S
C848 C840 1.378 . S
C848 C843 1.350 . S
C849 H836 0.929 . S
C849 C841 1.433 . S
C849 N851 1.384 . S
N850 C846 1.484 . S
N850 C847 1.373 1_554 S
N851 C843 1.427 . S
N851 C849 1.384 . S
H852 C858 0.930 . S
H853 C862 0.930 . S
H854 C867 0.929 . S
H855 C865 0.929 . S
H856 C860 0.929 . S
H857 C866 0.929 . S
C858 H852 0.930 . S
C858 C859 1.367 . S
C858 C866 1.378 . S
C859 C858 1.367 . S
C859 C867 1.433 . S
C860 H856 0.929 . S
C860 C862 1.378 . S
C860 C864 1.350 . S
C861 C864 1.463 . S
C861 C866 1.350 . S
C861 N869 1.427 . S
C862 H853 0.930 . S
C862 C860 1.378 . S
C862 C863 1.367 . S
C863 C862 1.367 . S
C863 C865 1.433 . S
C864 C860 1.350 . S
C864 C861 1.463 . S
C864 N868 1.427 . S
C865 H855 0.929 . S
C865 C863 1.433 . S
C865 N868 1.384 . S
C866 H857 0.929 . S
C866 C858 1.378 . S
C866 C861 1.350 . S
C867 H854 0.929 . S
C867 C859 1.433 . S
C867 N869 1.384 . S
N868 C864 1.427 . S
N868 C865 1.384 . S
N869 C861 1.427 . S
N869 C867 1.384 . S
H870 C876 0.930 . S
H871 C880 0.930 . S
H872 C885 0.929 . S
H873 C883 0.929 . S
H874 C878 0.929 . S
H875 C884 0.929 . S
C876 H870 0.930 . S
C876 C877 1.367 . S
C876 C884 1.378 . S
C877 C876 1.367 . S
C877 C885 1.433 . S
C878 H874 0.929 . S
C878 C880 1.378 . S
C878 C882 1.350 . S
C879 C882 1.463 . S
C879 C884 1.350 . S
C879 N887 1.427 . S
C880 H871 0.930 . S
C880 C878 1.378 . S
C880 C881 1.367 . S
C881 C880 1.367 . S
C881 C883 1.433 . S
C882 C878 1.350 . S
C882 C879 1.463 . S
C882 N886 1.427 . S
C883 H873 0.929 . S
C883 C881 1.433 . S
C883 N886 1.384 . S
C884 H875 0.929 . S
C884 C876 1.378 . S
C884 C879 1.350 . S
C885 H872 0.929 . S
C885 C877 1.433 . S
C885 N887 1.384 . S
N886 C882 1.427 . S
N886 C883 1.384 . S
N887 C879 1.427 . S
N887 C885 1.384 . S
H888 C894 0.930 . S
H889 C898 0.930 . S
H890 C903 0.929 . S
H891 C901 0.929 . S
H892 C896 0.929 . S
H893 C902 0.929 . S
C894 H888 0.930 . S
C894 C895 1.367 . S
C894 C902 1.378 . S
C895 C894 1.367 . S
C895 C903 1.433 . S
C896 H892 0.929 . S
C896 C898 1.378 . S
C896 C900 1.350 . S
C897 C900 1.463 . S
C897 C902 1.350 . S
C897 N905 1.427 . S
C898 H889 0.930 . S
C898 C896 1.378 . S
C898 C899 1.367 . S
C899 C898 1.367 . S
C899 C901 1.433 . S
C900 C896 1.350 . S
C900 C897 1.463 . S
C900 N904 1.427 . S
C901 H891 0.929 . S
C901 C899 1.433 . S
C901 N904 1.384 . S
C902 H893 0.929 . S
C902 C894 1.378 . S
C902 C897 1.350 . S
C903 H890 0.929 . S
C903 C895 1.433 . S
C903 N905 1.384 . S
N904 C900 1.427 . S
N904 C901 1.384 . S
N905 C897 1.427 . S
N905 C903 1.384 . S
H906 C912 0.930 . S
H907 C916 0.930 . S
H908 C921 0.929 . S
H909 C919 0.929 . S
H910 C914 0.929 . S
H911 C920 0.929 . S
C912 H906 0.930 . S
C912 C913 1.367 . S
C912 C920 1.378 . S
C913 C912 1.367 . S
C913 C921 1.433 . S
C914 H910 0.929 . S
C914 C916 1.378 . S
C914 C918 1.350 . S
C915 C918 1.463 . S
C915 C920 1.350 . S
C915 N923 1.427 . S
C916 H907 0.930 . S
C916 C914 1.378 . S
C916 C917 1.367 . S
C917 C916 1.367 . S
C917 C919 1.433 . S
C918 C914 1.350 . S
C918 C915 1.463 . S
C918 N922 1.427 . S
C919 H909 0.929 . S
C919 C917 1.433 . S
C919 N922 1.384 . S
C920 H911 0.929 . S
C920 C912 1.378 . S
C920 C915 1.350 . S
C921 H908 0.929 . S
C921 C913 1.433 . S
C921 N923 1.384 . S
N922 C918 1.427 . S
N922 C919 1.384 . S
N923 C915 1.427 . S
N923 C921 1.384 . S
H924 C930 0.930 1_554 S
H925 C934 0.930 . S
H926 C939 0.929 . S
H927 C937 0.929 . S
H928 C932 0.929 . S
H929 C938 0.929 1_554 S
C930 H924 0.930 1_556 S
C930 C931 1.367 . S
C930 C938 1.378 . S
C931 C930 1.367 . S
C931 C939 1.433 . S
C932 H928 0.929 . S
C932 C934 1.378 . S
C932 C936 1.350 . S
C933 C936 1.463 . S
C933 C938 1.350 . S
C933 N941 1.427 . S
C934 H925 0.930 . S
C934 C932 1.378 . S
C934 C935 1.367 . S
C935 C934 1.367 . S
C935 C937 1.433 1_556 S
C936 C932 1.350 . S
C936 C933 1.463 . S
C936 N940 1.427 1_556 S
C937 H927 0.929 . S
C937 C935 1.433 1_554 S
C937 N940 1.384 . S
C938 H929 0.929 1_556 S
C938 C930 1.378 . S
C938 C933 1.350 . S
C939 H926 0.929 . S
C939 C931 1.433 . S
C939 N941 1.384 . S
N940 C936 1.427 1_554 S
N940 C937 1.384 . S
N941 C933 1.427 . S
N941 C939 1.384 . S
H942 C948 0.930 . S
H943 C952 0.930 . S
H944 C957 0.929 . S
H945 C955 0.929 . S
H946 C950 0.929 . S
H947 C956 0.929 . S
C948 H942 0.930 . S
C948 C949 1.367 . S
C948 C956 1.378 . S
C949 C948 1.367 . S
C949 C957 1.433 . S
C950 H946 0.929 . S
C950 C952 1.378 . S
C950 C954 1.350 . S
C951 C954 1.463 . S
C951 C956 1.350 . S
C951 N959 1.427 . S
C952 H943 0.930 . S
C952 C950 1.378 . S
C952 C953 1.367 . S
C953 C952 1.367 . S
C953 C955 1.433 . S
C954 C950 1.350 . S
C954 C951 1.463 . S
C954 N958 1.427 . S
C955 H945 0.929 . S
C955 C953 1.433 . S
C955 N958 1.384 . S
C956 H947 0.929 . S
C956 C948 1.378 . S
C956 C951 1.350 . S
C957 H944 0.929 . S
C957 C949 1.433 . S
C957 N959 1.384 . S
N958 C954 1.427 . S
N958 C955 1.384 . S
N959 C951 1.427 . S
N959 C957 1.384 . S
H960 C966 0.930 . S
H961 C970 0.930 . S
H962 C975 0.929 . S
H963 C973 0.929 . S
H964 C968 0.929 . S
H965 C974 0.929 . S
C966 H960 0.930 . S
C966 C967 1.367 . S
C966 C974 1.378 . S
C967 C966 1.367 . S
C967 C975 1.433 . S
C968 H964 0.929 . S
C968 C970 1.378 . S
C968 C972 1.350 . S
C969 C972 1.463 . S
C969 C974 1.350 . S
C969 N977 1.427 . S
C970 H961 0.930 . S
C970 C968 1.378 . S
C970 C971 1.367 . S
C971 C970 1.367 . S
C971 C973 1.433 . S
C972 C968 1.350 . S
C972 C969 1.463 . S
C972 N976 1.427 . S
C973 H963 0.929 . S
C973 C971 1.433 . S
C973 N976 1.384 . S
C974 H965 0.929 . S
C974 C966 1.378 . S
C974 C969 1.350 . S
C975 H962 0.929 . S
C975 C967 1.433 . S
C975 N977 1.384 . S
N976 C972 1.427 . S
N976 C973 1.384 . S
N977 C969 1.427 . S
N977 C975 1.384 . S
H978 C984 0.930 . S
H979 C988 0.930 . S
H980 C993 0.929 . S
H981 C991 0.929 . S
H982 C986 0.929 . S
H983 C992 0.929 . S
C984 H978 0.930 . S
C984 C985 1.367 . S
C984 C992 1.378 . S
C985 C984 1.367 . S
C985 C993 1.433 . S
C986 H982 0.929 . S
C986 C988 1.378 . S
C986 C990 1.350 . S
C987 C990 1.463 . S
C987 C992 1.350 . S
C987 N995 1.427 . S
C988 H979 0.930 . S
C988 C986 1.378 . S
C988 C989 1.367 . S
C989 C988 1.367 . S
C989 C991 1.433 . S
C990 C986 1.350 . S
C990 C987 1.463 . S
C990 N994 1.427 . S
C991 H981 0.929 . S
C991 C989 1.433 . S
C991 N994 1.384 . S
C992 H983 0.929 . S
C992 C984 1.378 . S
C992 C987 1.350 . S
C993 H980 0.929 . S
C993 C985 1.433 . S
C993 N995 1.384 . S
N994 C990 1.427 . S
N994 C991 1.384 . S
N995 C987 1.427 . S
N995 C993 1.384 . S
H996 C1002 0.930 . S
H997 C1006 0.930 . S
H998 C1011 0.929 . S
H999 C1009 0.929 . S
H1000 C1004 0.929 . S
H1001 C1010 0.929 . S
C1002 H996 0.930 . S
C1002 C1003 1.367 . S
C1002 C1010 1.378 . S
C1003 C1002 1.367 . S
C1003 C1011 1.433 . S
C1004 H1000 0.929 . S
C1004 C1006 1.378 . S
C1004 C1008 1.350 . S
C1005 C1008 1.463 . S
C1005 C1010 1.350 . S
C1005 N1013 1.427 . S
C1006 H997 0.930 . S
C1006 C1004 1.378 . S
C1006 C1007 1.367 . S
C1007 C1006 1.367 . S
C1007 C1009 1.433 . S
C1008 C1004 1.350 . S
C1008 C1005 1.463 . S
C1008 N1012 1.427 . S
C1009 H999 0.929 . S
C1009 C1007 1.433 . S
C1009 N1012 1.384 . S
C1010 H1001 0.929 . S
C1010 C1002 1.378 . S
C1010 C1005 1.350 . S
C1011 H998 0.929 . S
C1011 C1003 1.433 . S
C1011 N1013 1.384 . S
N1012 C1008 1.427 . S
N1012 C1009 1.384 . S
N1013 C1005 1.427 . S
N1013 C1011 1.384 . S
H1014 C1020 0.930 . S
H1015 C1024 0.930 . S
H1016 C1029 0.929 . S
H1017 C1027 0.929 . S
H1018 C1022 0.929 . S
H1019 C1028 0.929 . S
C1020 H1014 0.930 . S
C1020 C1021 1.367 . S
C1020 C1028 1.378 . S
C1021 C1020 1.367 . S
C1021 C1029 1.433 . S
C1022 H1018 0.929 . S
C1022 C1024 1.378 . S
C1022 C1026 1.350 . S
C1023 C1026 1.463 . S
C1023 C1028 1.350 . S
C1023 N1031 1.427 . S
C1024 H1015 0.930 . S
C1024 C1022 1.378 . S
C1024 C1025 1.367 . S
C1025 C1024 1.367 . S
C1025 C1027 1.433 . S
C1026 C1022 1.350 . S
C1026 C1023 1.463 . S
C1026 N1030 1.427 . S
C1027 H1017 0.929 . S
C1027 C1025 1.433 . S
C1027 N1030 1.384 . S
C1028 H1019 0.929 . S
C1028 C1020 1.378 . S
C1028 C1023 1.350 . S
C1029 H1016 0.929 . S
C1029 C1021 1.433 . S
C1029 N1031 1.384 . S
N1030 C1026 1.427 . S
N1030 C1027 1.384 . S
N1031 C1023 1.427 . S
N1031 C1029 1.384 . S
H1032 C1038 0.930 . S
H1033 C1042 0.930 . S
H1034 C1047 0.929 . S
H1035 C1045 0.929 . S
H1036 C1040 0.929 . S
H1037 C1046 0.929 . S
C1038 H1032 0.930 . S
C1038 C1039 1.367 . S
C1038 C1046 1.378 . S
C1039 C1038 1.367 . S
C1039 C1047 1.433 . S
C1040 H1036 0.929 . S
C1040 C1042 1.378 . S
C1040 C1044 1.350 . S
C1041 C1044 1.463 . S
C1041 C1046 1.350 . S
C1041 N1049 1.427 . S
C1042 H1033 0.930 . S
C1042 C1040 1.378 . S
C1042 C1043 1.367 . S
C1043 C1042 1.367 . S
C1043 C1045 1.433 . S
C1044 C1040 1.350 . S
C1044 C1041 1.463 . S
C1044 N1048 1.427 . S
C1045 H1035 0.929 . S
C1045 C1043 1.433 . S
C1045 N1048 1.384 . S
C1046 H1037 0.929 . S
C1046 C1038 1.378 . S
C1046 C1041 1.350 . S
C1047 H1034 0.929 . S
C1047 C1039 1.433 . S
C1047 N1049 1.384 . S
N1048 C1044 1.427 . S
N1048 C1045 1.384 . S
N1049 C1041 1.427 . S
N1049 C1047 1.384 . S
H1050 C1056 0.930 . S
H1051 C1060 0.930 . S
H1052 C1065 0.929 . S
H1053 C1063 0.929 . S
H1054 C1058 0.929 . S
H1055 C1064 0.929 . S
C1056 H1050 0.930 . S
C1056 C1057 1.367 . S
C1056 C1064 1.378 . S
C1057 C1056 1.367 . S
C1057 C1065 1.433 . S
C1058 H1054 0.929 . S
C1058 C1060 1.378 . S
C1058 C1062 1.350 . S
C1059 C1062 1.463 . S
C1059 C1064 1.350 . S
C1059 N1067 1.427 . S
C1060 H1051 0.930 . S
C1060 C1058 1.378 . S
C1060 C1061 1.367 . S
C1061 C1060 1.367 . S
C1061 C1063 1.433 . S
C1062 C1058 1.350 . S
C1062 C1059 1.463 . S
C1062 N1066 1.427 . S
C1063 H1053 0.929 . S
C1063 C1061 1.433 . S
C1063 N1066 1.384 . S
C1064 H1055 0.929 . S
C1064 C1056 1.378 . S
C1064 C1059 1.350 . S
C1065 H1052 0.929 . S
C1065 C1057 1.433 . S
C1065 N1067 1.384 . S
N1066 C1062 1.427 . S
N1066 C1063 1.384 . S
N1067 C1059 1.427 . S
N1067 C1065 1.384 . S
H1068 C1074 0.930 . S
H1069 C1078 0.930 . S
H1070 C1083 0.929 . S
H1071 C1081 0.929 . S
H1072 C1076 0.929 . S
H1073 C1082 0.929 . S
C1074 H1068 0.930 . S
C1074 C1075 1.367 . S
C1074 C1082 1.378 . S
C1075 C1074 1.367 . S
C1075 C1083 1.433 . S
C1076 H1072 0.929 . S
C1076 C1078 1.378 . S
C1076 C1080 1.350 . S
C1077 C1080 1.463 . S
C1077 C1082 1.350 . S
C1077 N1085 1.427 . S
C1078 H1069 0.930 . S
C1078 C1076 1.378 . S
C1078 C1079 1.367 . S
C1079 C1078 1.367 . S
C1079 C1081 1.433 . S
C1080 C1076 1.350 . S
C1080 C1077 1.463 . S
C1080 N1084 1.427 . S
C1081 H1071 0.929 . S
C1081 C1079 1.433 . S
C1081 N1084 1.384 . S
C1082 H1073 0.929 . S
C1082 C1074 1.378 . S
C1082 C1077 1.350 . S
C1083 H1070 0.929 . S
C1083 C1075 1.433 . S
C1083 N1085 1.384 . S
N1084 C1080 1.427 . S
N1084 C1081 1.384 . S
N1085 C1077 1.427 . S
N1085 C1083 1.384 . S
H1086 C1092 0.930 . S
H1087 C1096 0.930 . S
H1088 C1101 0.929 . S
H1089 C1099 0.929 . S
H1090 C1094 0.929 . S
H1091 C1100 0.929 . S
C1092 H1086 0.930 . S
C1092 C1093 1.367 . S
C1092 C1100 1.378 . S
C1093 C1092 1.367 . S
C1093 C1101 1.433 . S
C1094 H1090 0.929 . S
C1094 C1096 1.378 . S
C1094 C1098 1.350 . S
C1095 C1098 1.463 . S
C1095 C1100 1.350 . S
C1095 N1103 1.427 . S
C1096 H1087 0.930 . S
C1096 C1094 1.378 . S
C1096 C1097 1.367 . S
C1097 C1096 1.367 . S
C1097 C1099 1.433 . S
C1098 C1094 1.350 . S
C1098 C1095 1.463 . S
C1098 N1102 1.427 . S
C1099 H1089 0.929 . S
C1099 C1097 1.433 . S
C1099 N1102 1.384 . S
C1100 H1091 0.929 . S
C1100 C1092 1.378 . S
C1100 C1095 1.350 . S
C1101 H1088 0.929 . S
C1101 C1093 1.433 . S
C1101 N1103 1.384 . S
N1102 C1098 1.427 . S
N1102 C1099 1.384 . S
N1103 C1095 1.427 . S
N1103 C1101 1.384 . S
H1104 C1110 0.930 . S
H1105 C1114 0.930 . S
H1106 C1119 0.929 . S
H1107 C1117 0.929 . S
H1108 C1112 0.929 . S
H1109 C1118 0.929 . S
C1110 H1104 0.930 . S
C1110 C1111 1.367 . S
C1110 C1118 1.378 . S
C1111 C1110 1.367 . S
C1111 C1119 1.433 . S
C1112 H1108 0.929 . S
C1112 C1114 1.378 . S
C1112 C1116 1.350 . S
C1113 C1116 1.463 . S
C1113 C1118 1.350 . S
C1113 N1121 1.427 . S
C1114 H1105 0.930 . S
C1114 C1112 1.378 . S
C1114 C1115 1.367 . S
C1115 C1114 1.367 . S
C1115 C1117 1.433 . S
C1116 C1112 1.350 . S
C1116 C1113 1.463 . S
C1116 N1120 1.427 . S
C1117 H1107 0.929 . S
C1117 C1115 1.433 . S
C1117 N1120 1.384 . S
C1118 H1109 0.929 . S
C1118 C1110 1.378 . S
C1118 C1113 1.350 . S
C1119 H1106 0.929 . S
C1119 C1111 1.433 . S
C1119 N1121 1.384 . S
N1120 C1116 1.427 . S
N1120 C1117 1.384 . S
N1121 C1113 1.427 . S
N1121 C1119 1.384 . S
H1122 C1128 0.930 . S
H1123 C1132 0.930 . S
H1124 C1137 0.929 . S
H1125 C1135 0.929 . S
H1126 C1130 0.929 . S
H1127 C1136 0.929 . S
C1128 H1122 0.930 . S
C1128 C1129 1.367 . S
C1128 C1136 1.378 . S
C1129 C1128 1.367 . S
C1129 C1137 1.433 . S
C1130 H1126 0.929 . S
C1130 C1132 1.378 . S
C1130 C1134 1.350 . S
C1131 C1134 1.463 . S
C1131 C1136 1.350 . S
C1131 N1139 1.427 . S
C1132 H1123 0.930 . S
C1132 C1130 1.378 . S
C1132 C1133 1.367 . S
C1133 C1132 1.367 . S
C1133 C1135 1.433 . S
C1134 C1130 1.350 . S
C1134 C1131 1.463 . S
C1134 N1138 1.427 . S
C1135 H1125 0.929 . S
C1135 C1133 1.433 . S
C1135 N1138 1.384 . S
C1136 H1127 0.929 . S
C1136 C1128 1.378 . S
C1136 C1131 1.350 . S
C1137 H1124 0.929 . S
C1137 C1129 1.433 . S
C1137 N1139 1.384 . S
N1138 C1134 1.427 . S
N1138 C1135 1.384 . S
N1139 C1131 1.427 . S
N1139 C1137 1.384 . S
H1140 C1146 0.930 . S
H1141 C1150 0.930 . S
H1142 C1155 0.929 . S
H1143 C1153 0.929 . S
H1144 C1148 0.929 . S
H1145 C1154 0.929 . S
C1146 H1140 0.930 . S
C1146 C1147 1.367 . S
C1146 C1154 1.378 . S
C1147 C1146 1.367 . S
C1147 C1155 1.433 . S
C1148 H1144 0.929 . S
C1148 C1150 1.378 . S
C1148 C1152 1.350 . S
C1149 C1152 1.463 . S
C1149 C1154 1.350 . S
C1149 N1157 1.427 . S
C1150 H1141 0.930 . S
C1150 C1148 1.378 . S
C1150 C1151 1.367 . S
C1151 C1150 1.367 . S
C1151 C1153 1.433 . S
C1152 C1148 1.350 . S
C1152 C1149 1.463 . S
C1152 N1156 1.427 . S
C1153 H1143 0.929 . S
C1153 C1151 1.433 . S
C1153 N1156 1.384 . S
C1154 H1145 0.929 . S
C1154 C1146 1.378 . S
C1154 C1149 1.350 . S
C1155 H1142 0.929 . S
C1155 C1147 1.433 . S
C1155 N1157 1.384 . S
N1156 C1152 1.427 . S
N1156 C1153 1.384 . S
N1157 C1149 1.427 . S
N1157 C1155 1.384 . S
H1158 C1164 0.930 . S
H1159 C1168 0.930 . S
H1160 C1173 0.929 . S
H1161 C1171 0.929 . S
H1162 C1166 0.929 . S
H1163 C1172 0.929 . S
C1164 H1158 0.930 . S
C1164 C1165 1.367 . S
C1164 C1172 1.378 . S
C1165 C1164 1.367 . S
C1165 C1173 1.433 . S
C1166 H1162 0.929 . S
C1166 C1168 1.378 . S
C1166 C1170 1.350 . S
C1167 C1170 1.463 . S
C1167 C1172 1.350 . S
C1167 N1175 1.427 . S
C1168 H1159 0.930 . S
C1168 C1166 1.378 . S
C1168 C1169 1.367 . S
C1169 C1168 1.367 . S
C1169 C1171 1.433 . S
C1170 C1166 1.350 . S
C1170 C1167 1.463 . S
C1170 N1174 1.427 . S
C1171 H1161 0.929 . S
C1171 C1169 1.433 . S
C1171 N1174 1.384 . S
C1172 H1163 0.929 . S
C1172 C1164 1.378 . S
C1172 C1167 1.350 . S
C1173 H1160 0.929 . S
C1173 C1165 1.433 . S
C1173 N1175 1.384 . S
N1174 C1170 1.427 . S
N1174 C1171 1.384 . S
N1175 C1167 1.427 . S
N1175 C1173 1.384 . S
H1176 C1182 0.930 . S
H1177 C1186 0.930 . S
H1178 C1191 0.929 . S
H1179 C1189 0.929 . S
H1180 C1184 0.929 . S
H1181 C1190 0.929 . S
C1182 H1176 0.930 . S
C1182 C1183 1.367 . S
C1182 C1190 1.378 . S
C1183 C1182 1.367 . S
C1183 C1191 1.433 . S
C1184 H1180 0.929 . S
C1184 C1186 1.378 . S
C1184 C1188 1.350 . S
C1185 C1188 1.463 . S
C1185 C1190 1.350 . S
C1185 N1193 1.427 . S
C1186 H1177 0.930 . S
C1186 C1184 1.378 . S
C1186 C1187 1.367 . S
C1187 C1186 1.367 . S
C1187 C1189 1.433 . S
C1188 C1184 1.350 . S
C1188 C1185 1.463 . S
C1188 N1192 1.427 . S
C1189 H1179 0.929 . S
C1189 C1187 1.433 . S
C1189 N1192 1.384 . S
C1190 H1181 0.929 . S
C1190 C1182 1.378 . S
C1190 C1185 1.350 . S
C1191 H1178 0.929 . S
C1191 C1183 1.433 . S
C1191 N1193 1.384 . S
N1192 C1188 1.427 . S
N1192 C1189 1.384 . S
N1193 C1185 1.427 . S
N1193 C1191 1.384 . S
H1194 C1200 0.930 . S
H1195 C1204 0.930 . S
H1196 C1209 0.929 . S
H1197 C1207 0.929 . S
H1198 C1202 0.929 . S
H1199 C1208 0.929 . S
C1200 H1194 0.930 . S
C1200 C1201 1.367 . S
C1200 C1208 1.378 . S
C1201 C1200 1.367 . S
C1201 C1209 1.433 . S
C1202 H1198 0.929 . S
C1202 C1204 1.378 . S
C1202 C1206 1.350 . S
C1203 C1206 1.463 . S
C1203 C1208 1.350 . S
C1203 N1211 1.427 . S
C1204 H1195 0.930 . S
C1204 C1202 1.378 . S
C1204 C1205 1.367 . S
C1205 C1204 1.367 . S
C1205 C1207 1.433 . S
C1206 C1202 1.350 . S
C1206 C1203 1.463 . S
C1206 N1210 1.427 . S
C1207 H1197 0.929 . S
C1207 C1205 1.433 . S
C1207 N1210 1.384 . S
C1208 H1199 0.929 . S
C1208 C1200 1.378 . S
C1208 C1203 1.350 . S
C1209 H1196 0.929 . S
C1209 C1201 1.433 . S
C1209 N1211 1.384 . S
N1210 C1206 1.427 . S
N1210 C1207 1.384 . S
N1211 C1203 1.427 . S
N1211 C1209 1.384 . S
H1212 C1218 0.930 . S
H1213 C1222 0.930 . S
H1214 C1227 0.929 . S
H1215 C1225 0.929 . S
H1216 C1220 0.929 . S
H1217 C1226 0.929 . S
C1218 H1212 0.930 . S
C1218 C1219 1.367 . S
C1218 C1226 1.378 . S
C1219 C1218 1.367 . S
C1219 C1227 1.433 . S
C1220 H1216 0.929 . S
C1220 C1222 1.378 . S
C1220 C1224 1.350 . S
C1221 C1224 1.463 . S
C1221 C1226 1.350 . S
C1221 N1229 1.427 . S
C1222 H1213 0.930 . S
C1222 C1220 1.378 . S
C1222 C1223 1.367 . S
C1223 C1222 1.367 . S
C1223 C1225 1.433 . S
C1224 C1220 1.350 . S
C1224 C1221 1.463 . S
C1224 N1228 1.427 . S
C1225 H1215 0.929 . S
C1225 C1223 1.433 . S
C1225 N1228 1.384 . S
C1226 H1217 0.929 . S
C1226 C1218 1.378 . S
C1226 C1221 1.350 . S
C1227 H1214 0.929 . S
C1227 C1219 1.433 . S
C1227 N1229 1.384 . S
N1228 C1224 1.427 . S
N1228 C1225 1.384 . S
N1229 C1221 1.427 . S
N1229 C1227 1.384 . S
H1230 C1236 0.930 . S
H1231 C1240 0.930 . S
H1232 C1245 0.929 . S
H1233 C1243 0.929 . S
H1234 C1238 0.929 . S
H1235 C1244 0.929 . S
C1236 H1230 0.930 . S
C1236 C1237 1.367 . S
C1236 C1244 1.378 . S
C1237 C1236 1.367 . S
C1237 C1245 1.433 . S
C1238 H1234 0.929 . S
C1238 C1240 1.378 . S
C1238 C1242 1.350 . S
C1239 C1242 1.463 . S
C1239 C1244 1.350 . S
C1239 N1247 1.427 . S
C1240 H1231 0.930 . S
C1240 C1238 1.378 . S
C1240 C1241 1.367 . S
C1241 C1240 1.367 . S
C1241 C1243 1.433 . S
C1242 C1238 1.350 . S
C1242 C1239 1.463 . S
C1242 N1246 1.427 . S
C1243 H1233 0.929 . S
C1243 C1241 1.433 . S
C1243 N1246 1.384 . S
C1244 H1235 0.929 . S
C1244 C1236 1.378 . S
C1244 C1239 1.350 . S
C1245 H1232 0.929 . S
C1245 C1237 1.433 . S
C1245 N1247 1.384 . S
N1246 C1242 1.427 . S
N1246 C1243 1.384 . S
N1247 C1239 1.427 . S
N1247 C1245 1.384 . S
C683 C423 1.351 . S
C679 C36 1.324 . S
C701 C460 1.322 . S
C697 C93 1.329 . S
C719 C496 1.351 . S
C715 C126 1.340 . S
C733 C165 1.322 . S
C737 C387 1.363 . S
C751 C222 1.338 . S
C755 C388 1.353 . S
C769 C261 1.314 . S
C773 C424 1.321 . S
C791 C459 1.345 . S
C787 C318 1.325 . S
C809 C495 1.369 . S
C805 C381 1.344 . S
C823 C132 1.318 . S
C827 C567 1.351 . S
C845 C604 1.328 . S
C841 C189 1.340 . S
C859 C30 1.334 . S
C863 C640 1.341 . S
C881 C531 1.363 . S
C877 C69 1.328 . S
C895 C324 1.334 . S
C899 C532 1.352 . S
C913 C357 1.310 . S
C917 C568 1.323 . S
C935 C603 1.348 . S
C931 C228 1.323 . S
C949 C285 1.352 . S
C953 C639 1.367 . S
C971 C458 1.712 . S
C967 C45 1.703 . S
C989 C494 1.697 . S
C985 C84 1.691 . S
C1003 C117 1.639 . S
C1007 C398 1.526 . S
C1021 C174 1.637 . S
C1025 C434 1.544 . S
C1039 C213 1.642 . S
C1043 C506 1.513 . S
C1061 C386 1.696 . S
C1057 C270 1.658 . S
C1079 C422 1.713 . S
C1075 C309 1.701 . S
C1097 C470 1.526 . S
C1093 C372 1.666 . S
C1115 C602 1.715 . S
C1111 C141 1.702 . S
C1133 C638 1.697 . S
C1129 C180 1.696 . S
C1147 C21 1.641 . S
C1151 C542 1.512 . S
C1169 C578 1.545 . S
C1165 C78 1.633 . S
C1187 C650 1.510 . S
C1183 C333 1.645 . S
C1201 C366 1.656 . S
C1205 C530 1.695 . S
C1223 C566 1.708 . S
C1219 C237 1.700 . S
C1241 C614 1.546 . S
C1237 C276 1.666 . S
