# Generated by pormake.
# Topology ssa, (4,4)-cn, num edge types: 1
# Building blocks:
#     Node 0, Type 0, BuildingBlock: NAWXER_clean_sbu_0, # of connection points: 4
#     Node 1, Type 0, BuildingBlock: NAWXER_clean_sbu_0, # of connection points: 4
#     Node 2, Type 0, BuildingBlock: NAWXER_clean_sbu_0, # of connection points: 4
#     Node 3, Type 0, BuildingBlock: NAWXER_clean_sbu_0, # of connection points: 4
#     Node 4, Type 0, BuildingBlock: NAWXER_clean_sbu_0, # of connection points: 4
#     Node 5, Type 0, BuildingBlock: NAWXER_clean_sbu_0, # of connection points: 4
#     Node 6, Type 1, BuildingBlock: AZAVOO_clean_linker_0, # of connection points: 4
#     Node 7, Type 1, BuildingBlock: AZAVOO_clean_linker_0, # of connection points: 4
#     Node 8, Type 1, BuildingBlock: AZAVOO_clean_linker_0, # of connection points: 4
#     Node 9, Type 1, BuildingBlock: AZAVOO_clean_linker_0, # of connection points: 4
#     Node 10, Type 1, BuildingBlock: AZAVOO_clean_linker_0, # of connection points: 4
#     Node 11, Type 1, BuildingBlock: AZAVOO_clean_linker_0, # of connection points: 4
#     Edge 12, Type (0, 1), BuildingBlock: TEMPAE_clean_linker_10, # of connection points: 2
#     Edge 13, Type (0, 1), BuildingBlock: TEMPAE_clean_linker_10, # of connection points: 2
#     Edge 14, Type (0, 1), BuildingBlock: TEMPAE_clean_linker_10, # of connection points: 2
#     Edge 15, Type (0, 1), BuildingBlock: TEMPAE_clean_linker_10, # of connection points: 2
#     Edge 16, Type (0, 1), BuildingBlock: TEMPAE_clean_linker_10, # of connection points: 2
#     Edge 17, Type (0, 1), BuildingBlock: TEMPAE_clean_linker_10, # of connection points: 2
#     Edge 18, Type (0, 1), BuildingBlock: TEMPAE_clean_linker_10, # of connection points: 2
#     Edge 19, Type (0, 1), BuildingBlock: TEMPAE_clean_linker_10, # of connection points: 2
#     Edge 20, Type (0, 1), BuildingBlock: TEMPAE_clean_linker_10, # of connection points: 2
#     Edge 21, Type (0, 1), BuildingBlock: TEMPAE_clean_linker_10, # of connection points: 2
#     Edge 22, Type (0, 1), BuildingBlock: TEMPAE_clean_linker_10, # of connection points: 2
#     Edge 23, Type (0, 1), BuildingBlock: TEMPAE_clean_linker_10, # of connection points: 2
#     Edge 24, Type (0, 1), BuildingBlock: TEMPAE_clean_linker_10, # of connection points: 2
#     Edge 25, Type (0, 1), BuildingBlock: TEMPAE_clean_linker_10, # of connection points: 2
#     Edge 26, Type (0, 1), BuildingBlock: TEMPAE_clean_linker_10, # of connection points: 2
#     Edge 27, Type (0, 1), BuildingBlock: TEMPAE_clean_linker_10, # of connection points: 2
#     Edge 28, Type (0, 1), BuildingBlock: TEMPAE_clean_linker_10, # of connection points: 2
#     Edge 29, Type (0, 1), BuildingBlock: TEMPAE_clean_linker_10, # of connection points: 2
#     Edge 30, Type (0, 1), BuildingBlock: TEMPAE_clean_linker_10, # of connection points: 2
#     Edge 31, Type (0, 1), BuildingBlock: TEMPAE_clean_linker_10, # of connection points: 2
#     Edge 32, Type (0, 1), BuildingBlock: TEMPAE_clean_linker_10, # of connection points: 2
#     Edge 33, Type (0, 1), BuildingBlock: TEMPAE_clean_linker_10, # of connection points: 2
#     Edge 34, Type (0, 1), BuildingBlock: TEMPAE_clean_linker_10, # of connection points: 2
#     Edge 35, Type (0, 1), BuildingBlock: TEMPAE_clean_linker_10, # of connection points: 2
# Relax obj value: 0.084
# Max RMSD: 0.234
# Mean RMSD: 0.129
data_MOF--net-ssa--node1-NAWXER_clean_sbu_0--node2-AZAVOO_clean_linker_0--edge1-TEMPAE_clean_linker_10
_symmetry_space_group_name_H-M    P1
_symmetry_Int_Tables_number       1
_symmetry_cell_setting            triclinic
loop_
_symmetry_equiv_pos_as_xyz
'x, y, z'
_cell_length_a     49.151625
_cell_length_b     49.548287
_cell_length_c     46.474233
_cell_angle_alpha  89.792013
_cell_angle_beta   92.850055
_cell_angle_gamma 120.19097
loop_
_atom_site_label
_atom_site_type_symbol
_atom_site_fract_x
_atom_site_fract_y
_atom_site_fract_z
_atom_type_partial_charge
C0 C 0.1978 0.59598 0.04369 0.0
C1 C 0.1529 0.5073 0.97603 0.0
O2 O 0.17456 0.57135 0.0533 0.0
Zn3 Zn 0.14218 0.52474 0.03946 0.0
O4 O 0.20649 0.59548 0.0185 0.0
Zn5 Zn 0.17547 0.55204 0.00896 0.0
O6 O 0.13179 0.55233 0.00548 0.0
O7 O 0.10199 0.52246 0.03944 0.0
O8 O 0.175 0.53484 0.97148 0.0
O9 O 0.13934 0.50097 -1e-05 0.0
O10 O 0.15061 0.50158 0.06764 0.0
O11 O 0.18893 0.52544 0.0376 0.0
C12 C 0.10581 0.54007 0.01829 0.0
C13 C 0.17709 0.50745 0.05899 0.0
C14 C 0.54647 0.02699 0.60572 0.0
C15 C 0.58923 0.97412 0.55267 0.0
O16 O 0.54336 0.00026 0.60964 0.0
Zn17 Zn 0.56833 0.00079 0.57893 0.0
O18 O 0.56307 0.04374 0.5853 0.0
Zn19 Zn 0.5896 0.0394 0.55206 0.0
O20 O 0.5685 0.04263 0.51768 0.0
O21 O 0.54071 0.99832 0.54011 0.0
O22 O 0.59661 0.00073 0.54196 0.0
O23 O 0.57302 0.96498 0.57478 0.0
O24 O 0.61579 0.03581 0.59253 0.0
O25 O 0.63179 0.07301 0.5606 0.0
C26 C 0.54372 0.01609 0.51884 0.0
C27 C 0.63735 0.06201 0.58338 0.0
C28 C 0.56386 0.48444 0.03766 0.0
C29 C 0.61459 0.57069 0.10795 0.0
O30 O 0.56194 0.50909 0.03805 0.0
Zn31 Zn 0.58908 0.52784 0.07221 0.0
O32 O 0.58068 0.48053 0.05742 0.0
Zn33 Zn 0.61016 0.50504 0.09508 0.0
O34 O 0.58861 0.47703 0.12596 0.0
O35 O 0.56136 0.49658 0.10462 0.0
O36 O 0.62124 0.54918 0.11318 0.0
O37 O 0.59672 0.56785 0.08606 0.0
O38 O 0.63383 0.53757 0.05773 0.0
O39 O 0.65065 0.5116 0.08469 0.0
C40 C 0.56372 0.47886 0.12352 0.0
C41 C 0.6547 0.52988 0.06399 0.0
C42 C 0.10205 0.53075 0.51572 0.0
C43 C 0.0655 0.4411 0.57768 0.0
O44 O 0.11802 0.52544 0.53485 0.0
Zn45 Zn 0.08462 0.48532 0.54616 0.0
O46 O 0.07302 0.51034 0.51 0.0
Zn47 Zn 0.03947 0.46487 0.52401 0.0
O48 O 0.00683 0.4718 0.53735 0.0
O49 O 0.05136 0.49587 0.56416 0.0
O50 O 0.04413 0.4386 0.55905 0.0
O51 O 0.09313 0.46474 0.5776 0.0
O52 O 0.07824 0.45534 0.51061 0.0
O53 O 0.03078 0.43828 0.49008 0.0
C54 C 0.02273 0.48924 0.55901 0.0
C55 C 0.057 0.43896 0.49098 0.0
C56 C 0.62427 0.05481 0.12198 0.0
C57 C 0.57795 0.10354 0.06141 0.0
O58 O 0.62703 0.0815 0.12579 0.0
Zn59 Zn 0.60095 0.0793 0.09235 0.0
O60 O 0.60741 0.03754 0.10027 0.0
Zn61 Zn 0.57928 0.03956 0.06424 0.0
O62 O 0.6001 0.03605 0.03192 0.0
O63 O 0.62893 0.07969 0.05772 0.0
O64 O 0.571 0.0765 0.05176 0.0
O65 O 0.59458 0.11427 0.08482 0.0
O66 O 0.55513 0.0431 0.10373 0.0
O67 O 0.53797 0.00523 0.0709 0.0
C68 C 0.62572 0.06174 0.03637 0.0
C69 C 0.53374 0.01613 0.09385 0.0
C70 C 0.61844 0.5407 0.60274 0.0
C71 C 0.5345 0.4829 0.52922 0.0
O72 O 0.59479 0.5446 0.6052 0.0
Zn73 Zn 0.55106 0.53161 0.58223 0.0
O74 O 0.61904 0.52516 0.58135 0.0
Zn75 Zn 0.57758 0.51299 0.56448 0.0
O76 O 0.58351 0.5543 0.54466 0.0
O77 O 0.5565 0.5709 0.56807 0.0
O78 O 0.56064 0.48347 0.53241 0.0
O79 O 0.52864 0.4996 0.54608 0.0
O80 O 0.52174 0.50997 0.61186 0.0
O81 O 0.54718 0.48646 0.59804 0.0
C82 C 0.57446 0.57416 0.548 0.0
C83 C 0.52738 0.48762 0.61425 0.0
H84 H 0.24671 0.38788 0.48581 0.0
H85 H 0.10325 0.33634 0.17336 0.0
H86 H 0.32304 0.42503 0.35076 0.0
H87 H 0.36909 0.43641 0.38205 0.0
H88 H 0.36033 0.34869 0.35586 0.0
H89 H 0.31371 0.33726 0.32443 0.0
H90 H 0.26033 0.41416 0.36296 0.0
H91 H 0.25516 0.41161 0.41511 0.0
H92 H 0.24859 0.32122 0.41434 0.0
H93 H 0.25339 0.32391 0.36209 0.0
H94 H 0.22247 0.41622 0.30426 0.0
H95 H 0.18198 0.42115 0.32751 0.0
H96 H 0.15041 0.3316 0.36677 0.0
H97 H 0.18927 0.32557 0.34089 0.0
H98 H 0.239 0.4201 0.25057 0.0
H99 H 0.19969 0.41763 0.21468 0.0
H100 H 0.14321 0.318 0.22616 0.0
H101 H 0.18312 0.32074 0.26168 0.0
H102 H 0.30461 0.43334 0.24675 0.0
H103 H 0.30006 0.45088 0.19904 0.0
H104 H 0.23828 0.35486 0.17026 0.0
H105 H 0.2417 0.33779 0.2191 0.0
H106 H 0.34969 0.42958 0.29561 0.0
H107 H 0.39904 0.44208 0.27483 0.0
H108 H 0.35046 0.3557 0.22447 0.0
H109 H 0.30182 0.34213 0.24763 0.0
O110 O 0.24865 0.38837 0.46517 0.0
O111 O 0.24563 0.34207 0.46365 0.0
O112 O 0.14836 0.38946 0.18353 0.0
O113 O 0.11893 0.33802 0.18783 0.0
C114 C 0.288 0.37473 0.31566 0.0
C115 C 0.25998 0.3706 0.32702 0.0
C116 C 0.23573 0.36948 0.30838 0.0
C117 C 0.2393 0.37162 0.27835 0.0
C118 C 0.26744 0.376 0.26706 0.0
C119 C 0.29184 0.37761 0.28563 0.0
C120 C 0.31495 0.38024 0.33553 0.0
C121 C 0.33084 0.40811 0.35196 0.0
C122 C 0.35733 0.41473 0.36952 0.0
C123 C 0.36844 0.39357 0.37106 0.0
C124 C 0.35221 0.36535 0.35498 0.0
C125 C 0.32569 0.35882 0.33712 0.0
C126 C 0.25691 0.36907 0.35873 0.0
C127 C 0.25754 0.39374 0.37407 0.0
C128 C 0.2547 0.39226 0.40387 0.0
C129 C 0.25139 0.36618 0.4189 0.0
C130 C 0.25103 0.34162 0.40343 0.0
C131 C 0.25379 0.34309 0.37361 0.0
C132 C 0.20873 0.37039 0.32056 0.0
C133 C 0.20607 0.3971 0.31699 0.0
C134 C 0.18324 0.40016 0.33085 0.0
C135 C 0.16316 0.37706 0.34954 0.0
C136 C 0.16517 0.34977 0.35237 0.0
C137 C 0.18757 0.34636 0.33778 0.0
C138 C 0.21401 0.37054 0.25855 0.0
C139 C 0.21811 0.39777 0.24533 0.0
C140 C 0.19559 0.3963 0.22487 0.0
C141 C 0.16835 0.36757 0.21746 0.0
C142 C 0.16397 0.34047 0.2313 0.0
C143 C 0.18662 0.34197 0.25169 0.0
C144 C 0.27308 0.38441 0.23643 0.0
C145 C 0.29109 0.41602 0.22985 0.0
C146 C 0.28844 0.42598 0.20234 0.0
C147 C 0.2681 0.40437 0.18074 0.0
C148 C 0.25334 0.37225 0.18656 0.0
C149 C 0.25558 0.36235 0.21433 0.0
C150 C 0.32219 0.38464 0.2736 0.0
C151 C 0.34991 0.4129 0.28078 0.0
C152 C 0.37806 0.42027 0.26839 0.0
C153 C 0.37892 0.40006 0.2477 0.0
C154 C 0.35103 0.37165 0.24067 0.0
C155 C 0.32304 0.36394 0.25366 0.0
C156 C 0.24838 0.36469 0.45057 0.0
C157 C 0.14468 0.36581 0.19527 0.0
H158 H 0.91692 0.27201 0.00056 0.0
H159 H 0.72529 0.02648 0.76083 0.0
H160 H 0.92572 0.28896 0.83521 0.0
H161 H 0.97074 0.3388 0.85185 0.0
H162 H 0.02831 0.29551 0.8596 0.0
H163 H 0.98329 0.2461 0.84097 0.0
H164 H 0.87554 0.24169 0.87887 0.0
H165 H 0.88658 0.25749 0.92991 0.0
H166 H 0.95423 0.22594 0.93606 0.0
H167 H 0.94272 0.21 0.88504 0.0
H168 H 0.81732 0.18821 0.83795 0.0
H169 H 0.77573 0.16288 0.87142 0.0
H170 H 0.83121 0.13061 0.91946 0.0
H171 H 0.87171 0.15396 0.88405 0.0
H172 H 0.81604 0.18087 0.77961 0.0
H173 H 0.76719 0.13575 0.76024 0.0
H174 H 0.79829 0.07427 0.79555 0.0
H175 H 0.84743 0.11972 0.81428 0.0
H176 H 0.87316 0.23555 0.75361 0.0
H177 H 0.84127 0.21895 0.70858 0.0
H178 H 0.84452 0.13341 0.70884 0.0
H179 H 0.8785 0.15132 0.75309 0.0
H180 H 0.92069 0.28042 0.77967 0.0
H181 H 0.95566 0.31679 0.74512 0.0
H182 H 0.99703 0.2586 0.7341 0.0
H183 H 0.96083 0.22159 0.76836 0.0
O184 O 0.91285 0.26552 0.98044 0.0
O185 O 0.94746 0.24906 0.98243 0.0
O186 O 0.7298 0.07743 0.75021 0.0
O187 O 0.74428 0.04473 0.76853 0.0
C188 C 0.92349 0.23405 0.82721 0.0
C189 C 0.90163 0.2152 0.84739 0.0
C190 C 0.87263 0.18898 0.83781 0.0
C191 C 0.8661 0.18108 0.80809 0.0
C192 C 0.88804 0.20013 0.78784 0.0
C193 C 0.91667 0.22666 0.79748 0.0
C194 C 0.95137 0.26409 0.83695 0.0
C195 C 0.9482 0.29043 0.8402 0.0
C196 C 0.97391 0.31879 0.84994 0.0
C197 C 0.00317 0.32118 0.8574 0.0
C198 C 0.00631 0.29467 0.85372 0.0
C199 C 0.9806 0.26636 0.84337 0.0
C200 C 0.90821 0.22456 0.87839 0.0
C201 C 0.89261 0.23809 0.89135 0.0
C202 C 0.89902 0.24714 0.92047 0.0
C203 C 0.92127 0.24294 0.93708 0.0
C204 C 0.93694 0.22947 0.9239 0.0
C205 C 0.93045 0.22037 0.89479 0.0
C206 C 0.84735 0.17257 0.85828 0.0
C207 C 0.82018 0.17504 0.8553 0.0
C208 C 0.79666 0.16099 0.87484 0.0
C209 C 0.80017 0.14495 0.89845 0.0
C210 C 0.82748 0.14243 0.90138 0.0
C211 C 0.85079 0.15596 0.88132 0.0
C212 C 0.83546 0.15357 0.79802 0.0
C213 C 0.81231 0.15765 0.78305 0.0
C214 C 0.78438 0.13183 0.77209 0.0
C215 C 0.77889 0.10138 0.77623 0.0
C216 C 0.80182 0.09739 0.79187 0.0
C217 C 0.82986 0.12327 0.80268 0.0
C218 C 0.87828 0.19471 0.75667 0.0
C219 C 0.86876 0.21417 0.74309 0.0
C220 C 0.84993 0.20431 0.71761 0.0
C221 C 0.83966 0.1745 0.70564 0.0
C222 C 0.85205 0.15651 0.71753 0.0
C223 C 0.87147 0.1667 0.74282 0.0
C224 C 0.93826 0.24844 0.77643 0.0
C225 C 0.93737 0.27558 0.76986 0.0
C226 C 0.95762 0.29648 0.75029 0.0
C227 C 0.97947 0.29083 0.73707 0.0
C228 C 0.98037 0.26354 0.74379 0.0
C229 C 0.95982 0.24245 0.76334 0.0
C230 C 0.92807 0.25264 0.968 0.0
C231 C 0.74947 0.07389 0.76419 0.0
H232 H 0.68879 0.81864 0.13335 0.0
H233 H 0.72465 0.01196 0.42383 0.0
H234 H 0.63283 0.76981 0.28989 0.0
H235 H 0.6233 0.7263 0.25846 0.0
H236 H 0.72269 0.7568 0.26539 0.0
H237 H 0.73197 0.80047 0.2972 0.0
H238 H 0.65001 0.8152 0.25089 0.0
H239 H 0.6568 0.81184 0.19947 0.0
H240 H 0.75798 0.86609 0.2154 0.0
H241 H 0.7508 0.869 0.26685 0.0
H242 H 0.64866 0.86398 0.27445 0.0
H243 H 0.6441 0.90368 0.24701 0.0
H244 H 0.74143 0.97082 0.27082 0.0
H245 H 0.74592 0.93039 0.2982 0.0
H246 H 0.64869 0.88512 0.33768 0.0
H247 H 0.64912 0.92822 0.36372 0.0
H248 H 0.74645 0.963 0.39228 0.0
H249 H 0.74567 0.91983 0.36603 0.0
H250 H 0.63043 0.82515 0.37008 0.0
H251 H 0.61566 0.83647 0.4156 0.0
H252 H 0.71234 0.87731 0.4494 0.0
H253 H 0.72704 0.86718 0.40272 0.0
H254 H 0.62788 0.76502 0.34049 0.0
H255 H 0.60986 0.72281 0.3745 0.0
H256 H 0.7018 0.77006 0.41958 0.0
H257 H 0.72034 0.81041 0.38345 0.0
O258 O 0.68664 0.82045 0.15373 0.0
O259 O 0.73848 0.84877 0.16299 0.0
O260 O 0.67423 0.97671 0.39697 0.0
O261 O 0.72412 0.99526 0.41261 0.0
C262 C 0.68894 0.81694 0.31086 0.0
C263 C 0.69593 0.84319 0.29386 0.0
C264 C 0.69852 0.87026 0.30652 0.0
C265 C 0.69594 0.8718 0.33643 0.0
C266 C 0.68901 0.84565 0.3534 0.0
C267 C 0.68528 0.81809 0.3407 0.0
C268 C 0.68294 0.78775 0.29644 0.0
C269 C 0.65235 0.76637 0.2856 0.0
C270 C 0.647 0.74167 0.26745 0.0
C271 C 0.67225 0.73812 0.25951 0.0
C272 C 0.70283 0.75909 0.27107 0.0
C273 C 0.70812 0.78376 0.28944 0.0
C274 C 0.69993 0.84213 0.26253 0.0
C275 C 0.67361 0.82627 0.24321 0.0
C276 C 0.67756 0.82444 0.21386 0.0
C277 C 0.70795 0.83861 0.20333 0.0
C278 C 0.73426 0.85486 0.2228 0.0
C279 C 0.73025 0.85662 0.25216 0.0
C280 C 0.69769 0.89426 0.288 0.0
C281 C 0.66916 0.88711 0.27339 0.0
C282 C 0.66649 0.90991 0.25806 0.0
C283 C 0.6923 0.94043 0.25712 0.0
C284 C 0.7212 0.94745 0.27121 0.0
C285 C 0.72382 0.92449 0.28676 0.0
C286 C 0.69722 0.89958 0.34985 0.0
C287 C 0.67019 0.90236 0.34923 0.0
C288 C 0.67047 0.92688 0.36425 0.0
C289 C 0.69781 0.949 0.38019 0.0
C290 C 0.72501 0.94638 0.38027 0.0
C291 C 0.7247 0.92185 0.36521 0.0
C292 C 0.67975 0.84554 0.3832 0.0
C293 C 0.6482 0.83571 0.38763 0.0
C294 C 0.63983 0.84209 0.41383 0.0
C295 C 0.66287 0.85812 0.43625 0.0
C296 C 0.69411 0.86549 0.43244 0.0
C297 C 0.70255 0.85947 0.40596 0.0
C298 C 0.67573 0.79033 0.35886 0.0
C299 C 0.64455 0.76546 0.35685 0.0
C300 C 0.63404 0.74175 0.37695 0.0
C301 C 0.65416 0.74299 0.40023 0.0
C302 C 0.68564 0.76779 0.40181 0.0
C303 C 0.69634 0.79102 0.38119 0.0
C304 C 0.71207 0.83634 0.17217 0.0
C305 C 0.6979 0.97447 0.397 0.0
H306 H 0.80804 0.59416 0.63908 0.0
H307 H 0.02116 0.52414 0.87126 0.0
H308 H 0.85124 0.62746 0.78712 0.0
H309 H 0.80866 0.627 0.7579 0.0
H310 H 0.74384 0.53508 0.78854 0.0
H311 H 0.78745 0.53481 0.81568 0.0
H312 H 0.88784 0.61583 0.74417 0.0
H313 H 0.86249 0.61463 0.69707 0.0
H314 H 0.78534 0.5225 0.71406 0.0
H315 H 0.81112 0.52388 0.76086 0.0
H316 H 0.94276 0.6084 0.76203 0.0
H317 H 0.96388 0.59614 0.72039 0.0
H318 H 0.8896 0.49962 0.72272 0.0
H319 H 0.86905 0.51207 0.76445 0.0
H320 H 0.96425 0.61401 0.82283 0.0
H321 H 0.00937 0.60854 0.8391 0.0
H322 H 0.94735 0.50889 0.84557 0.0
H323 H 0.90254 0.51472 0.82903 0.0
H324 H 0.93365 0.61873 0.87516 0.0
H325 H 0.96401 0.61303 0.91559 0.0
H326 H 0.89695 0.514 0.9158 0.0
H327 H 0.86733 0.51985 0.87482 0.0
H328 H 0.86042 0.62256 0.86698 0.0
H329 H 0.82868 0.61865 0.90779 0.0
H330 H 0.78598 0.51816 0.90407 0.0
H331 H 0.8171 0.52233 0.86319 0.0
O332 O 0.81835 0.5937 0.65722 0.0
O333 O 0.78042 0.5455 0.6662 0.0
O334 O 0.03526 0.57785 0.85825 0.0
O335 O 0.00404 0.52676 0.8634 0.0
C336 C 0.84968 0.57622 0.8093 0.0
C337 C 0.86464 0.57215 0.78575 0.0
C338 C 0.89099 0.56833 0.79069 0.0
C339 C 0.90256 0.56877 0.81909 0.0
C340 C 0.88676 0.5714 0.84262 0.0
C341 C 0.8599 0.57445 0.83777 0.0
C342 C 0.82255 0.58099 0.80313 0.0
C343 C 0.82757 0.60775 0.78842 0.0
C344 C 0.80307 0.60738 0.77162 0.0
C345 C 0.7729 0.58052 0.77003 0.0
C346 C 0.76705 0.55567 0.78838 0.0
C347 C 0.7918 0.55573 0.80454 0.0
C348 C 0.85126 0.56998 0.75588 0.0
C349 C 0.86574 0.59523 0.73743 0.0
C350 C 0.85109 0.59455 0.71065 0.0
C351 C 0.82177 0.56855 0.70189 0.0
C352 C 0.80786 0.5429 0.72015 0.0
C353 C 0.82256 0.54359 0.74685 0.0
C354 C 0.90455 0.56106 0.76621 0.0
C355 C 0.93126 0.58462 0.75357 0.0
C356 C 0.94307 0.57762 0.72971 0.0
C357 C 0.92837 0.54691 0.71828 0.0
C358 C 0.90165 0.5234 0.73122 0.0
C359 C 0.88984 0.53045 0.75496 0.0
C360 C 0.93027 0.56474 0.82464 0.0
C361 C 0.96062 0.59096 0.8272 0.0
C362 C 0.98628 0.58779 0.8367 0.0
C363 C 0.98192 0.55828 0.84385 0.0
C364 C 0.95153 0.53193 0.84033 0.0
C365 C 0.92593 0.53515 0.83071 0.0
C366 C 0.89833 0.56972 0.87218 0.0
C367 C 0.92483 0.59607 0.88477 0.0
C368 C 0.94216 0.59274 0.90782 0.0
C369 C 0.93307 0.56297 0.91855 0.0
C370 C 0.90471 0.53713 0.90767 0.0
C371 C 0.88752 0.54048 0.88456 0.0
C372 C 0.84097 0.57272 0.86223 0.0
C373 C 0.84412 0.59978 0.87504 0.0
C374 C 0.82617 0.59749 0.89839 0.0
C375 C 0.80476 0.56807 0.9091 0.0
C376 C 0.8019 0.54111 0.89612 0.0
C377 C 0.8198 0.54344 0.8729 0.0
C378 C 0.80555 0.56841 0.67404 0.0
C379 C 0.00876 0.555 0.8555 0.0
H380 H 0.27317 0.88302 0.4825 0.0
H381 H 0.14074 0.60471 0.27337 0.0
H382 H 0.3029 0.89227 0.33512 0.0
H383 H 0.34774 0.93605 0.36159 0.0
H384 H 0.4036 0.8923 0.34921 0.0
H385 H 0.35923 0.8495 0.32249 0.0
H386 H 0.23898 0.83275 0.36417 0.0
H387 H 0.24498 0.85383 0.41312 0.0
H388 H 0.33158 0.85188 0.42756 0.0
H389 H 0.32497 0.83028 0.37882 0.0
H390 H 0.19059 0.75672 0.33506 0.0
H391 H 0.16051 0.71537 0.36921 0.0
H392 H 0.24746 0.72874 0.40966 0.0
H393 H 0.27731 0.76845 0.37466 0.0
H394 H 0.19884 0.75854 0.26556 0.0
H395 H 0.15798 0.70521 0.25141 0.0
H396 H 0.20753 0.66922 0.30344 0.0
H397 H 0.24841 0.72265 0.31708 0.0
H398 H 0.25498 0.81337 0.22947 0.0
H399 H 0.25262 0.79246 0.18096 0.0
H400 H 0.28276 0.73078 0.21758 0.0
H401 H 0.28582 0.7523 0.26552 0.0
H402 H 0.3044 0.88081 0.26506 0.0
H403 H 0.34281 0.91326 0.23016 0.0
H404 H 0.37788 0.84884 0.2296 0.0
H405 H 0.34036 0.81739 0.26522 0.0
O406 O 0.27105 0.87431 0.46336 0.0
O407 O 0.31578 0.87347 0.46943 0.0
O408 O 0.13231 0.64573 0.25174 0.0
O409 O 0.15663 0.62603 0.2785 0.0
C410 C 0.29952 0.83801 0.31715 0.0
C411 C 0.27841 0.81861 0.33771 0.0
C412 C 0.25465 0.7878 0.32983 0.0
C413 C 0.25112 0.77689 0.30101 0.0
C414 C 0.27189 0.79652 0.28039 0.0
C415 C 0.29622 0.82697 0.28852 0.0
C416 C 0.32787 0.86776 0.32696 0.0
C417 C 0.32521 0.89282 0.33737 0.0
C418 C 0.35073 0.9176 0.35269 0.0
C419 C 0.37919 0.91756 0.35781 0.0
C420 C 0.3823 0.89345 0.34539 0.0
C421 C 0.3569 0.86886 0.33007 0.0
C422 C 0.28169 0.83031 0.36785 0.0
C423 C 0.25913 0.83676 0.37801 0.0
C424 C 0.26267 0.84886 0.40594 0.0
C425 C 0.28885 0.85471 0.4242 0.0
C426 C 0.3112 0.84779 0.41403 0.0
C427 C 0.30755 0.83555 0.38616 0.0
C428 C 0.23618 0.76578 0.35246 0.0
C429 C 0.20312 0.7509 0.35145 0.0
C430 C 0.18604 0.72746 0.37088 0.0
C431 C 0.2019 0.71932 0.39199 0.0
C432 C 0.2349 0.73504 0.39372 0.0
C433 C 0.25189 0.7578 0.37388 0.0
C434 C 0.22642 0.74443 0.29251 0.0
C435 C 0.20082 0.73909 0.27383 0.0
C436 C 0.17752 0.70862 0.26582 0.0
C437 C 0.17944 0.68294 0.27637 0.0
C438 C 0.20527 0.68844 0.29498 0.0
C439 C 0.22861 0.71893 0.30288 0.0
C440 C 0.2702 0.78404 0.25096 0.0
C441 C 0.26118 0.79544 0.22686 0.0
C442 C 0.25985 0.7835 0.19926 0.0
C443 C 0.2677 0.76012 0.19543 0.0
C444 C 0.27714 0.74918 0.2197 0.0
C445 C 0.27845 0.76109 0.24715 0.0
C446 C 0.31948 0.84668 0.26745 0.0
C447 C 0.32049 0.87385 0.25741 0.0
C448 C 0.34223 0.89217 0.23734 0.0
C449 C 0.36332 0.88356 0.22705 0.0
C450 C 0.36222 0.85631 0.23731 0.0
C451 C 0.34062 0.83815 0.25744 0.0
C452 C 0.29281 0.86803 0.4537 0.0
C453 C 0.15466 0.65051 0.26806 0.0
H454 H 0.44862 0.24702 0.62157 0.0
H455 H 0.45865 0.05545 0.89701 0.0
H456 H 0.50424 0.29829 0.79529 0.0
H457 H 0.50672 0.34268 0.77037 0.0
H458 H 0.40601 0.28947 0.75114 0.0
H459 H 0.40395 0.24469 0.77593 0.0
H460 H 0.49134 0.25788 0.74286 0.0
H461 H 0.48214 0.2609 0.69106 0.0
H462 H 0.38798 0.18152 0.69532 0.0
H463 H 0.39739 0.17902 0.74724 0.0
H464 H 0.50374 0.20768 0.75864 0.0
H465 H 0.51346 0.17352 0.72841 0.0
H466 H 0.42302 0.0952 0.74779 0.0
H467 H 0.4134 0.1298 0.77835 0.0
H468 H 0.51006 0.18119 0.81535 0.0
H469 H 0.51772 0.14012 0.83667 0.0
H470 H 0.42716 0.1011 0.8743 0.0
H471 H 0.41962 0.14208 0.8525 0.0
H472 H 0.52358 0.23006 0.85716 0.0
H473 H 0.54195 0.22147 0.90389 0.0
H474 H 0.45053 0.19203 0.93677 0.0
H475 H 0.43197 0.19959 0.889 0.0
H476 H 0.51758 0.28354 0.85286 0.0
H477 H 0.52884 0.32774 0.88428 0.0
H478 H 0.42996 0.29959 0.87909 0.0
H479 H 0.41881 0.25474 0.84808 0.0
O480 O 0.45169 0.24548 0.64211 0.0
O481 O 0.40354 0.20452 0.64541 0.0
O482 O 0.50194 0.09201 0.86735 0.0
O483 O 0.4559 0.07151 0.88774 0.0
C484 C 0.45377 0.24043 0.7994 0.0
C485 C 0.45048 0.21668 0.78029 0.0
C486 C 0.45428 0.19197 0.79089 0.0
C487 C 0.46023 0.19034 0.82066 0.0
C488 C 0.46437 0.21447 0.83965 0.0
C489 C 0.46099 0.23943 0.82908 0.0
C490 C 0.4539 0.26837 0.78759 0.0
C491 C 0.48259 0.29648 0.78635 0.0
C492 C 0.48391 0.32188 0.77213 0.0
C493 C 0.45652 0.31973 0.7588 0.0
C494 C 0.42755 0.29182 0.76098 0.0
C495 C 0.42628 0.26631 0.77524 0.0
C496 C 0.44487 0.2185 0.74883 0.0
C497 C 0.46864 0.24136 0.73261 0.0
C498 C 0.46337 0.24294 0.703 0.0
C499 C 0.43428 0.22151 0.68905 0.0
C500 C 0.41061 0.19844 0.7054 0.0
C501 C 0.41591 0.19694 0.73503 0.0
C502 C 0.45782 0.17119 0.7705 0.0
C503 C 0.48581 0.18325 0.75604 0.0
C504 C 0.49144 0.1637 0.73905 0.0
C505 C 0.4691 0.13175 0.73607 0.0
C506 C 0.44055 0.11979 0.74979 0.0
C507 C 0.43503 0.13942 0.76713 0.0
C508 C 0.46408 0.16432 0.83205 0.0
C509 C 0.49167 0.16344 0.82778 0.0
C510 C 0.49609 0.14008 0.84017 0.0
C511 C 0.47304 0.11731 0.85721 0.0
C512 C 0.44535 0.11823 0.86128 0.0
C513 C 0.44093 0.14154 0.84879 0.0
C514 C 0.47644 0.21526 0.86971 0.0
C515 C 0.50774 0.22241 0.87465 0.0
C516 C 0.51824 0.21767 0.90153 0.0
C517 C 0.49772 0.20594 0.92423 0.0
C518 C 0.46683 0.20068 0.91967 0.0
C519 C 0.45624 0.20525 0.89254 0.0
C520 C 0.46735 0.26575 0.8486 0.0
C521 C 0.49833 0.28674 0.85876 0.0
C522 C 0.50474 0.3122 0.87635 0.0
C523 C 0.48029 0.31725 0.88398 0.0
C524 C 0.44922 0.29616 0.8737 0.0
C525 C 0.44283 0.27063 0.85603 0.0
C526 C 0.42879 0.22322 0.65757 0.0
C527 C 0.47793 0.09289 0.87099 0.0
C528 C 0.20684 0.47914 0.05673 0.0
C529 C 0.19377 0.49297 0.07316 0.0
C530 C 0.22066 0.46313 0.07008 0.0
C531 C 0.22234 0.46205 0.10053 0.0
C532 C 0.21014 0.47706 0.11717 0.0
C533 C 0.19542 0.49182 0.10322 0.0
C534 C 0.2323 0.4464 0.05165 0.0
C535 C 0.21226 0.47719 0.14973 0.0
C536 C 0.22653 0.39998 0.14446 0.0
C537 C 0.25828 0.4157 0.15471 0.0
C538 C 0.21513 0.41373 0.12454 0.0
C539 C 0.23567 0.44435 0.11539 0.0
C540 C 0.26813 0.45944 0.12391 0.0
C541 C 0.27916 0.44463 0.14302 0.0
C542 C 0.18055 0.39641 0.11504 0.0
C543 C 0.29072 0.49233 0.11502 0.0
H544 H 0.20511 0.4798 0.03341 0.0
H545 H 0.18539 0.50272 0.11581 0.0
H546 H 0.25697 0.45336 0.05836 0.0
H547 H 0.21775 0.42085 0.05464 0.0
H548 H 0.23109 0.45117 0.02839 0.0
H549 H 0.20394 0.49206 0.15938 0.0
H550 H 0.19778 0.45307 0.15744 0.0
H551 H 0.23697 0.48583 0.15777 0.0
H552 H 0.20991 0.37782 0.15337 0.0
H553 H 0.30388 0.45663 0.15011 0.0
H554 H 0.17749 0.39775 0.09136 0.0
H555 H 0.1685 0.40743 0.12527 0.0
H556 H 0.16872 0.37145 0.12099 0.0
H557 H 0.2876 0.49503 0.09161 0.0
H558 H 0.3157 0.49913 0.12023 0.0
H559 H 0.2857 0.50881 0.12652 0.0
C560 C 0.67504 0.06572 0.62341 0.0
C561 C 0.66859 0.07886 0.59909 0.0
C562 C 0.70434 0.08144 0.63878 0.0
C563 C 0.72774 0.11105 0.62965 0.0
C564 C 0.72165 0.12421 0.60482 0.0
C565 C 0.69212 0.10793 0.58981 0.0
C566 C 0.70997 0.06668 0.66521 0.0
C567 C 0.74603 0.15582 0.59457 0.0
C568 C 0.7863 0.16388 0.68845 0.0
C569 C 0.81246 0.1604 0.68422 0.0
C570 C 0.759 0.14865 0.6703 0.0
C571 C 0.75761 0.12918 0.64743 0.0
C572 C 0.78407 0.12594 0.64264 0.0
C573 C 0.81124 0.14158 0.66117 0.0
C574 C 0.73122 0.15258 0.67625 0.0
C575 C 0.78334 0.10529 0.61846 0.0
H576 H 0.65709 0.04317 0.63064 0.0
H577 H 0.68739 0.11819 0.57096 0.0
H578 H 0.73178 0.06549 0.66348 0.0
H579 H 0.71344 0.08127 0.68463 0.0
H580 H 0.69003 0.04275 0.66846 0.0
H581 H 0.73838 0.16188 0.57385 0.0
H582 H 0.7507 0.17405 0.61101 0.0
H583 H 0.76861 0.15642 0.59181 0.0
H584 H 0.78669 0.17766 0.70669 0.0
H585 H 0.8314 0.13882 0.65784 0.0
H586 H 0.71113 0.12988 0.68243 0.0
H587 H 0.72336 0.16004 0.65654 0.0
H588 H 0.73681 0.17001 0.69385 0.0
H589 H 0.7653 0.08066 0.62217 0.0
H590 H 0.80647 0.10671 0.61657 0.0
H591 H 0.77651 0.11191 0.59766 0.0
C592 C 0.64738 0.60097 0.15161 0.0
C593 C 0.62646 0.5976 0.12836 0.0
C594 C 0.65697 0.62472 0.1726 0.0
C595 C 0.64531 0.6456 0.17034 0.0
C596 C 0.62498 0.64299 0.14647 0.0
C597 C 0.61582 0.61902 0.12571 0.0
C598 C 0.67881 0.62687 0.19766 0.0
C599 C 0.61211 0.6649 0.14337 0.0
C600 C 0.64052 0.68368 0.23903 0.0
C601 C 0.66669 0.71384 0.23774 0.0
C602 C 0.63345 0.6612 0.21731 0.0
C603 C 0.65306 0.66909 0.19374 0.0
C604 C 0.67986 0.69931 0.19257 0.0
C605 C 0.68637 0.72136 0.21461 0.0
C606 C 0.60475 0.62914 0.21939 0.0
C607 C 0.7013 0.70851 0.16778 0.0
H608 H 0.65589 0.58464 0.15377 0.0
H609 H 0.59968 0.6166 0.10782 0.0
H610 H 0.69956 0.65081 0.19974 0.0
H611 H 0.66641 0.62213 0.21799 0.0
H612 H 0.68725 0.61002 0.19533 0.0
H613 H 0.59804 0.6609 0.12275 0.0
H614 H 0.5969 0.66172 0.16143 0.0
H615 H 0.63167 0.68951 0.14454 0.0
H616 H 0.62544 0.67772 0.25702 0.0
H617 H 0.70634 0.7448 0.2133 0.0
H618 H 0.61174 0.61106 0.2191 0.0
H619 H 0.58815 0.62436 0.20047 0.0
H620 H 0.59214 0.62667 0.23929 0.0
H621 H 0.71032 0.69215 0.16561 0.0
H622 H 0.7217 0.73265 0.17053 0.0
H623 H 0.68787 0.70692 0.14733 0.0
C624 C 0.02678 0.521 0.60229 0.0
C625 C 0.00821 0.50057 0.57941 0.0
C626 C 0.01329 0.52986 0.62348 0.0
C627 C 0.98038 0.51803 0.62181 0.0
C628 C 0.96161 0.49833 0.59823 0.0
C629 C 0.97576 0.48983 0.57726 0.0
C630 C 0.03414 0.551 0.64823 0.0
C631 C 0.92643 0.48537 0.5957 0.0
C632 C 0.94366 0.51238 0.69308 0.0
C633 C 0.94095 0.53923 0.69314 0.0
C634 C 0.95584 0.50491 0.66971 0.0
C635 C 0.96554 0.52475 0.64578 0.0
C636 C 0.96249 0.55169 0.64551 0.0
C637 C 0.95029 0.55866 0.66925 0.0
C638 C 0.95895 0.4761 0.67092 0.0
C639 C 0.97248 0.57332 0.62032 0.0
H640 H 0.05192 0.52962 0.60407 0.0
H641 H 0.96125 0.47408 0.55964 0.0
H642 H 0.03073 0.57137 0.65044 0.0
H643 H 0.02755 0.53817 0.66868 0.0
H644 H 0.05953 0.55968 0.64545 0.0
H645 H 0.91557 0.4724 0.57497 0.0
H646 H 0.91524 0.46929 0.61363 0.0
H647 H 0.92108 0.50451 0.59757 0.0
H648 H 0.93682 0.49749 0.71163 0.0
H649 H 0.94785 0.57922 0.66905 0.0
H650 H 0.98416 0.48291 0.67054 0.0
H651 H 0.94653 0.46074 0.65173 0.0
H652 H 0.94919 0.46248 0.69058 0.0
H653 H 0.99816 0.5837 0.61793 0.0
H654 H 0.96729 0.59254 0.6229 0.0
H655 H 0.96027 0.56003 0.60006 0.0
C656 C 0.4996 0.01063 0.13407 0.0
C657 C 0.50541 0.99725 0.1103 0.0
C658 C 0.47472 0.99247 0.15171 0.0
C659 C 0.4553 0.96011 0.14553 0.0
C660 C 0.46026 0.94666 0.12095 0.0
C661 C 0.48522 0.96544 0.10355 0.0
C662 C 0.46999 0.00771 0.17759 0.0
C663 C 0.44005 0.9122 0.11375 0.0
C664 C 0.4177 0.9088 0.20907 0.0
C665 C 0.3867 0.90307 0.20595 0.0
C666 C 0.4401 0.92701 0.18933 0.0
C667 C 0.43137 0.94002 0.16599 0.0
C668 C 0.40014 0.93439 0.16268 0.0
C669 C 0.37814 0.9159 0.18269 0.0
C670 C 0.47321 0.93253 0.1936 0.0
C671 C 0.39005 0.94798 0.13809 0.0
H672 H 0.51493 0.03526 0.13932 0.0
H673 H 0.48955 0.95493 0.08522 0.0
H674 H 0.4451 0.00206 0.17767 0.0
H675 H 0.47509 0.99845 0.19763 0.0
H676 H 0.48549 0.03351 0.17808 0.0
H677 H 0.44537 0.90584 0.09271 0.0
H678 H 0.444 0.8986 0.1308 0.0
H679 H 0.41471 0.90506 0.11313 0.0
H680 H 0.42462 0.89937 0.22723 0.0
H681 H 0.35411 0.91123 0.17996 0.0
H682 H 0.49018 0.95787 0.19685 0.0
H683 H 0.47967 0.92469 0.17407 0.0
H684 H 0.47594 0.92004 0.21242 0.0
H685 H 0.40461 0.97384 0.13907 0.0
H686 H 0.36482 0.94121 0.13847 0.0
H687 H 0.39395 0.94003 0.11721 0.0
C688 C 0.5236 0.44268 0.6416 0.0
C689 C 0.51248 0.46343 0.6362 0.0
C690 C 0.51084 0.42002 0.66266 0.0
C691 C 0.48604 0.41772 0.67866 0.0
C692 C 0.47434 0.43828 0.67317 0.0
C693 C 0.48785 0.46109 0.65206 0.0
C694 C 0.52424 0.39874 0.66798 0.0
C695 C 0.44767 0.43621 0.68962 0.0
C696 C 0.44302 0.33896 0.71337 0.0
C697 C 0.4591 0.34556 0.74055 0.0
C698 C 0.44959 0.36281 0.69375 0.0
C699 C 0.47307 0.39389 0.70134 0.0
C700 C 0.48764 0.40101 0.72948 0.0
C701 C 0.48031 0.37678 0.7488 0.0
C702 C 0.43322 0.35429 0.66408 0.0
C703 C 0.51288 0.43382 0.73843 0.0
H704 H 0.54273 0.44436 0.6296 0.0
H705 H 0.47909 0.47699 0.64795 0.0
H706 H 0.53341 0.40138 0.69072 0.0
H707 H 0.50543 0.37402 0.66438 0.0
H708 H 0.54364 0.40371 0.65373 0.0
H709 H 0.44067 0.45331 0.68223 0.0
H710 H 0.42684 0.41234 0.68714 0.0
H711 H 0.4547 0.4405 0.71295 0.0
H712 H 0.42673 0.31494 0.70667 0.0
H713 H 0.4923 0.38215 0.77 0.0
H714 H 0.44971 0.35483 0.64833 0.0
H715 H 0.42609 0.37142 0.6572 0.0
H716 H 0.412 0.33056 0.66322 0.0
H717 H 0.53461 0.44013 0.72716 0.0
H718 H 0.51873 0.43623 0.76202 0.0
H719 H 0.50539 0.45082 0.73217 0.0
C720 C 0.60114 0.95378 0.50929 0.0
C721 C 0.59985 0.95446 0.53926 0.0
C722 C 0.61173 0.9357 0.49602 0.0
C723 C 0.62229 0.91878 0.51329 0.0
C724 C 0.62128 0.9196 0.54364 0.0
C725 C 0.60952 0.93708 0.55628 0.0
C726 C 0.61169 0.9348 0.46351 0.0
C727 C 0.63346 0.90281 0.56271 0.0
C728 C 0.6247 0.85449 0.47209 0.0
C729 C 0.65491 0.87084 0.46136 0.0
C730 C 0.61419 0.86926 0.49051 0.0
C731 C 0.63481 0.90078 0.4992 0.0
C732 C 0.66637 0.91633 0.49096 0.0
C733 C 0.67592 0.90134 0.4718 0.0
C734 C 0.58022 0.85201 0.49849 0.0
C735 C 0.68938 0.94967 0.50048 0.0
H736 H 0.59344 0.96713 0.49619 0.0
H737 H 0.60881 0.93797 0.57953 0.0
H738 H 0.63622 0.94536 0.45667 0.0
H739 H 0.59865 0.91025 0.45529 0.0
H740 H 0.60076 0.9476 0.45325 0.0
H741 H 0.63025 0.90513 0.58589 0.0
H742 H 0.62128 0.87764 0.55658 0.0
H743 H 0.65895 0.91244 0.55971 0.0
H744 H 0.60857 0.83064 0.46478 0.0
H745 H 0.69923 0.91443 0.46357 0.0
H746 H 0.56717 0.86186 0.4866 0.0
H747 H 0.57844 0.85501 0.52182 0.0
H748 H 0.56846 0.82664 0.49309 0.0
H749 H 0.68403 0.96567 0.48788 0.0
H750 H 0.71413 0.95612 0.4971 0.0
H751 H 0.68728 0.95345 0.52359 0.0
C752 C 0.68703 0.56251 0.02425 0.0
C753 C 0.68171 0.54032 0.04539 0.0
C754 C 0.7096 0.56972 0.0038 0.0
C755 C 0.72725 0.5543 0.00439 0.0
C756 C 0.72321 0.53312 0.02658 0.0
C757 C 0.70051 0.52641 0.04688 0.0
C758 C 0.71333 0.59262 0.98063 0.0
C759 C 0.74166 0.51626 0.02794 0.0
C760 C 0.75312 0.54193 0.93248 0.0
C761 C 0.78506 0.56516 0.93348 0.0
C762 C 0.73422 0.53809 0.9555 0.0
C763 C 0.74751 0.55804 0.98019 0.0
C764 C 0.77968 0.5817 0.98133 0.0
C765 C 0.79809 0.58502 0.95791 0.0
C766 C 0.69995 0.5127 0.95333 0.0
C767 C 0.79462 0.60342 0.00728 0.0
H768 H 0.67283 0.57361 0.02308 0.0
H769 H 0.69659 0.50928 0.06316 0.0
H770 H 0.73858 0.61026 0.9788 0.0
H771 H 0.70443 0.58004 0.95951 0.0
H772 H 0.70022 0.60492 0.98488 0.0
H773 H 0.73821 0.50309 0.04812 0.0
H774 H 0.73404 0.49958 0.00935 0.0
H775 H 0.76718 0.53306 0.02639 0.0
H776 H 0.74277 0.52685 0.91347 0.0
H777 H 0.82284 0.60281 0.95893 0.0
H778 H 0.6847 0.52316 0.95483 0.0
H779 H 0.69482 0.49661 0.97156 0.0
H780 H 0.6934 0.49885 0.93283 0.0
H781 H 0.78202 0.61633 0.01092 0.0
H782 H 0.81993 0.6206 0.00481 0.0
H783 H 0.79252 0.58973 0.02683 0.0
C784 C 0.14866 0.57547 0.49447 0.0
C785 C 0.11653 0.56007 0.49973 0.0
C786 C 0.16203 0.60213 0.47749 0.0
C787 C 0.14294 0.61406 0.46626 0.0
C788 C 0.11074 0.59922 0.47244 0.0
C789 C 0.09782 0.57212 0.48878 0.0
C790 C 0.19631 0.61695 0.47082 0.0
C791 C 0.08987 0.61173 0.46152 0.0
C792 C 0.18608 0.69755 0.44067 0.0
C793 C 0.18435 0.69279 0.41083 0.0
C794 C 0.17181 0.67211 0.459 0.0
C795 C 0.15639 0.64134 0.44711 0.0
C796 C 0.15443 0.63655 0.41686 0.0
C797 C 0.16818 0.66244 0.39903 0.0
C798 C 0.17364 0.67812 0.49106 0.0
C799 C 0.13874 0.60411 0.40342 0.0
H800 H 0.16309 0.56604 0.50279 0.0
H801 H 0.073 0.56038 0.49309 0.0
H802 H 0.19831 0.61622 0.44718 0.0
H803 H 0.20926 0.64187 0.47789 0.0
H804 H 0.20798 0.60501 0.48145 0.0
H805 H 0.06594 0.59875 0.46996 0.0
H806 H 0.10069 0.63678 0.46782 0.0
H807 H 0.08748 0.61013 0.43764 0.0
H808 H 0.19879 0.72119 0.44961 0.0
H809 H 0.16736 0.65899 0.37589 0.0
H810 H 0.18773 0.66904 0.50229 0.0
H811 H 0.1497 0.66554 0.49944 0.0
H812 H 0.18456 0.70338 0.49661 0.0
H813 H 0.15083 0.59163 0.41179 0.0
H814 H 0.13917 0.60447 0.37954 0.0
H815 H 0.11387 0.59049 0.40939 0.0
C816 C 0.56293 0.11828 0.01471 0.0
C817 C 0.56686 0.12192 0.04476 0.0
C818 C 0.55166 0.13466 0.9982 0.0
C819 C 0.54324 0.15456 0.01217 0.0
C820 C 0.54707 0.1583 0.04258 0.0
C821 C 0.55931 0.14223 0.05854 0.0
C822 C 0.54866 0.13056 0.96577 0.0
C823 C 0.53751 0.17862 0.05822 0.0
C824 C 0.53926 0.21301 0.96207 0.0
C825 C 0.5078 0.19615 0.95114 0.0
C826 C 0.5508 0.20063 0.98336 0.0
C827 C 0.5302 0.171 0.99454 0.0
C828 C 0.4978 0.15522 0.9856 0.0
C829 C 0.48704 0.16781 0.96379 0.0
C830 C 0.58557 0.2181 0.99209 0.0
C831 C 0.47491 0.12389 0.99747 0.0
H832 H 0.56902 0.10277 0.00401 0.0
H833 H 0.56209 0.14482 0.08183 0.0
H834 H 0.52358 0.11995 0.95806 0.0
H835 H 0.56183 0.15362 0.95559 0.0
H836 H 0.55773 0.11545 0.95824 0.0
H837 H 0.54269 0.17966 0.08186 0.0
H838 H 0.54992 0.2027 0.04999 0.0
H839 H 0.51187 0.16939 0.0541 0.0
H840 H 0.55531 0.2353 0.95296 0.0
H841 H 0.46275 0.1544 0.95549 0.0
H842 H 0.59685 0.20571 0.98296 0.0
H843 H 0.58941 0.21884 0.01585 0.0
H844 H 0.59758 0.24241 0.98426 0.0
H845 H 0.47883 0.10563 0.98813 0.0
H846 H 0.45001 0.11738 0.99223 0.0
H847 H 0.4787 0.12395 0.02121 0.0
C848 C 0.4814 0.46185 0.50451 0.0
C849 C 0.51104 0.46411 0.50575 0.0
C850 C 0.45955 0.44651 0.4814 0.0
C851 C 0.46744 0.43299 0.45887 0.0
C852 C 0.49676 0.43397 0.46048 0.0
C853 C 0.51831 0.44958 0.48396 0.0
C854 C 0.42846 0.44591 0.48058 0.0
C855 C 0.50584 0.41962 0.43692 0.0
C856 C 0.3958 0.37999 0.41041 0.0
C857 C 0.39661 0.40123 0.39001 0.0
C858 C 0.42019 0.38922 0.43186 0.0
C859 C 0.44577 0.42035 0.43276 0.0
C860 C 0.44787 0.44101 0.41072 0.0
C861 C 0.42323 0.43117 0.38961 0.0
C862 C 0.41729 0.36645 0.45482 0.0
C863 C 0.47485 0.47432 0.41074 0.0
H864 H 0.47542 0.4727 0.52138 0.0
H865 H 0.54113 0.45113 0.48483 0.0
H866 H 0.4271 0.45948 0.46207 0.0
H867 H 0.40859 0.42159 0.47745 0.0
H868 H 0.42525 0.45593 0.5006 0.0
H869 H 0.52754 0.41881 0.44312 0.0
H870 H 0.48641 0.39557 0.43141 0.0
H871 H 0.51005 0.43352 0.41717 0.0
H872 H 0.37523 0.3568 0.41071 0.0
H873 H 0.42411 0.44741 0.37346 0.0
H874 H 0.41013 0.37251 0.47496 0.0
H875 H 0.44027 0.36781 0.45974 0.0
H876 H 0.39943 0.34203 0.44831 0.0
H877 H 0.47278 0.48779 0.42868 0.0
H878 H 0.47507 0.48601 0.39024 0.0
H879 H 0.49775 0.47517 0.41428 0.0
C880 C 0.13144 0.45187 0.96213 0.0
C881 C 0.14109 0.48241 0.95377 0.0
C882 C 0.11382 0.42653 0.94296 0.0
C883 C 0.10498 0.43193 0.91504 0.0
C884 C 0.11677 0.46296 0.90576 0.0
C885 C 0.13505 0.488 0.92528 0.0
C886 C 0.10235 0.39388 0.95353 0.0
C887 C 0.10766 0.46965 0.87626 0.0
C888 C 0.061 0.36109 0.86438 0.0
C889 C 0.02958 0.35072 0.87047 0.0
C890 C 0.08598 0.38811 0.87801 0.0
C891 C 0.07928 0.40526 0.8979 0.0
C892 C 0.04762 0.39549 0.9034 0.0
C893 C 0.02326 0.36822 0.88991 0.0
C894 C 0.11948 0.39771 0.87186 0.0
C895 C 0.03941 0.41323 0.92435 0.0
H896 H 0.13645 0.44768 0.98416 0.0
H897 H 0.14243 0.51169 0.91894 0.0
H898 H 0.07693 0.38267 0.95768 0.0
H899 H 0.10492 0.37936 0.93697 0.0
H900 H 0.11534 0.39387 0.97378 0.0
H901 H 0.12306 0.49442 0.87051 0.0
H902 H 0.10877 0.45436 0.85955 0.0
H903 H 0.08297 0.46471 0.8759 0.0
H904 H 0.06612 0.34799 0.8491 0.0
H905 H 0.99921 0.36016 0.89531 0.0
H906 H 0.13155 0.3949 0.89148 0.0
H907 H 0.13274 0.42272 0.86628 0.0
H908 H 0.12065 0.38356 0.854 0.0
H909 H 0.04796 0.41165 0.94649 0.0
H910 H 0.01361 0.40403 0.92434 0.0
H911 H 0.05121 0.43832 0.91898 0.0
C912 C 0.08457 0.56469 0.98387 0.0
C913 C 0.08011 0.54541 0.00747 0.0
C914 C 0.05985 0.56822 0.97187 0.0
C915 C 0.02993 0.5521 0.98376 0.0
C916 C 0.02549 0.53341 0.00814 0.0
C917 C 0.05066 0.53029 0.01974 0.0
C918 C 0.06548 0.58835 0.94583 0.0
C919 C 0.99387 0.51586 0.02133 0.0
C920 C 0.97246 0.57915 0.9607 0.0
C921 C 0.95531 0.5583 0.93768 0.0
C922 C 0.99617 0.5768 0.97666 0.0
C923 C 0.00286 0.55312 0.96927 0.0
C924 C 0.98498 0.53146 0.9466 0.0
C925 C 0.96149 0.53436 0.93105 0.0
C926 C 0.01484 0.60033 0.00068 0.0
C927 C 0.9915 0.50597 0.93796 0.0
H928 H 0.10726 0.57658 0.97431 0.0
H929 H 0.04703 0.51541 0.03801 0.0
H930 H 0.05096 0.57362 0.92693 0.0
H931 H 0.05816 0.60581 0.94967 0.0
H932 H 0.0906 0.60087 0.94034 0.0
H933 H 0.99492 0.50429 0.04154 0.0
H934 H 0.98504 0.53194 0.02608 0.0
H935 H 0.97646 0.49775 0.00577 0.0
H936 H 0.9677 0.59764 0.96589 0.0
H937 H 0.94884 0.51862 0.91284 0.0
H938 H 0.03964 0.61511 0.99479 0.0
H939 H 0.01518 0.58824 0.02071 0.0
H940 H 0.00511 0.61574 0.00519 0.0
H941 H 0.01556 0.51651 0.92995 0.0
H942 H 0.97437 0.49007 0.92082 0.0
H943 H 0.99063 0.49194 0.95691 0.0
C944 C 0.49866 0.97309 0.49017 0.0
C945 C 0.51902 0.00515 0.49526 0.0
C946 C 0.47618 0.96213 0.46694 0.0
C947 C 0.47354 0.9838 0.44877 0.0
C948 C 0.49346 0.01624 0.45425 0.0
C949 C 0.51628 0.02655 0.47727 0.0
C950 C 0.45571 0.92732 0.4615 0.0
C951 C 0.49076 0.03997 0.43575 0.0
C952 C 0.43601 0.95075 0.37463 0.0
C953 C 0.40411 0.93996 0.37885 0.0
C954 C 0.4592 0.96648 0.39682 0.0
C955 C 0.45035 0.97217 0.42365 0.0
C956 C 0.41861 0.96363 0.42726 0.0
C957 C 0.39581 0.94734 0.40492 0.0
C958 C 0.49277 0.97499 0.39219 0.0
C959 C 0.40836 0.96986 0.45536 0.0
H960 H 0.50087 0.95648 0.5039 0.0
H961 H 0.53187 0.05138 0.48129 0.0
H962 H 0.43047 0.92029 0.46217 0.0
H963 H 0.45929 0.92105 0.43967 0.0
H964 H 0.46092 0.91362 0.47754 0.0
H965 H 0.50699 0.06431 0.44373 0.0
H966 H 0.49615 0.03777 0.41328 0.0
H967 H 0.46623 0.03552 0.43513 0.0
H968 H 0.44271 0.94569 0.35436 0.0
H969 H 0.37122 0.93883 0.40859 0.0
H970 H 0.49904 0.96029 0.40586 0.0
H971 H 0.50932 -0.00032 0.39876 0.0
H972 H 0.49629 0.9715 0.36937 0.0
H973 H 0.40884 0.95389 0.47191 0.0
H974 H 0.38411 0.96621 0.45323 0.0
H975 H 0.42479 0.99412 0.46332 0.0
C976 C 0.52758 0.46277 0.99325 0.0
C977 C 0.54777 0.46051 0.01432 0.0
C978 C 0.51319 0.44041 0.97065 0.0
C979 C 0.5194 0.41549 0.96907 0.0
C980 C 0.53942 0.41294 0.99047 0.0
C981 C 0.55324 0.43537 0.01283 0.0
C982 C 0.49173 0.44365 0.94829 0.0
C983 C 0.54678 0.38679 0.98947 0.0
C984 C 0.46881 0.33972 0.92676 0.0
C985 C 0.48742 0.34396 0.90337 0.0
C986 C 0.47779 0.3637 0.94744 0.0
C987 C 0.50608 0.39245 0.94465 0.0
C988 C 0.52386 0.39751 0.92011 0.0
C989 C 0.51426 0.37321 0.89973 0.0
C990 C 0.45812 0.35752 0.97322 0.0
C991 C 0.55413 0.42787 0.91631 0.0
H992 H 0.52316 0.48206 0.99432 0.0
H993 H 0.56881 0.4334 0.02897 0.0
H994 H 0.50191 0.44738 0.92687 0.0
H995 H 0.46848 0.42182 0.94655 0.0
H996 H 0.48806 0.46344 0.95339 0.0
H997 H 0.56237 0.38785 0.00812 0.0
H998 H 0.52466 0.36385 0.98925 0.0
H999 H 0.55854 0.38791 0.96936 0.0
H1000 H 0.44809 0.31713 0.92973 0.0
H1001 H 0.52833 0.37678 0.88134 0.0
H1002 H 0.45462 0.37751 0.97767 0.0
H1003 H 0.47062 0.35477 0.99254 0.0
H1004 H 0.43468 0.33599 0.97012 0.0
H1005 H 0.55064 0.44804 0.91975 0.0
H1006 H 0.56317 0.42938 0.89458 0.0
H1007 H 0.57239 0.42998 0.93266 0.0
C1008 C 0.05368 0.41998 0.44036 0.0
C1009 C 0.06418 0.42212 0.46929 0.0
C1010 C 0.06525 0.40896 0.419 0.0
C1011 C 0.08723 0.39934 0.42701 0.0
C1012 C 0.09585 0.39917 0.4565 0.0
C1013 C 0.08451 0.41092 0.47722 0.0
C1014 C 0.05579 0.40984 0.38778 0.0
C1015 C 0.11869 0.38852 0.46607 0.0
C1016 C 0.1125 0.35814 0.37473 0.0
C1017 C 0.14213 0.38269 0.36757 0.0
C1018 C 0.09374 0.36324 0.39338 0.0
C1019 C 0.10468 0.39366 0.40479 0.0
C1020 C 0.13398 0.41868 0.39684 0.0
C1021 C 0.15245 0.41283 0.37871 0.0
C1022 C 0.06278 0.33594 0.40166 0.0
C1023 C 0.14648 0.45156 0.40836 0.0
H1024 H 0.03803 0.42876 0.43422 0.0
H1025 H 0.09234 0.41222 0.49968 0.0
H1026 H 0.07588 0.42931 0.37725 0.0
H1027 H 0.04998 0.38792 0.37617 0.0
H1028 H 0.03522 0.41341 0.38537 0.0
H1029 H 0.11957 0.38582 0.48979 0.0
H1030 H 0.11212 0.36591 0.45537 0.0
H1031 H 0.1427 0.40589 0.45974 0.0
H1032 H 0.10405 0.33485 0.36601 0.0
H1033 H 0.17554 0.43191 0.37403 0.0
H1034 H 0.04357 0.3414 0.39833 0.0
H1035 H 0.06433 0.33139 0.42491 0.0
H1036 H 0.05636 0.31431 0.38911 0.0
H1037 H 0.12841 0.45856 0.40491 0.0
H1038 H 0.16821 0.46882 0.39798 0.0
H1039 H 0.15196 0.45259 0.43192 0.0
C1040 C 0.68298 0.09113 0.02745 0.0
C1041 C 0.6518 0.07121 0.01709 0.0
C1042 C 0.70802 0.10132 0.0092 0.0
C1043 C 0.70156 0.09203 0.97973 0.0
C1044 C 0.67014 0.0715 0.96925 0.0
C1045 C 0.64563 0.06098 0.98819 0.0
C1046 C 0.7413 0.12257 0.0213 0.0
C1047 C 0.66228 0.06165 0.93782 0.0
C1048 C 0.75975 0.14728 0.92749 0.0
C1049 C 0.77558 0.13154 0.92004 0.0
C1050 C 0.73547 0.13449 0.94665 0.0
C1051 C 0.72737 0.10565 0.95945 0.0
C1052 C 0.74378 0.09001 0.9528 0.0
C1053 C 0.76748 0.10297 0.93292 0.0
C1054 C 0.71828 0.15174 0.95296 0.0
C1055 C 0.7362 0.05953 0.96657 0.0
H1056 H 0.68782 0.09874 0.04991 0.0
H1057 H 0.6215 0.04565 0.98015 0.0
H1058 H 0.75676 0.11337 0.01536 0.0
H1059 H 0.75087 0.14604 0.01193 0.0
H1060 H 0.74256 0.12517 0.04514 0.0
H1061 H 0.63684 0.04452 0.93339 0.0
H1062 H 0.66867 0.08247 0.92454 0.0
H1063 H 0.67623 0.05118 0.93076 0.0
H1064 H 0.76634 0.16977 0.91835 0.0
H1065 H 0.77929 0.09044 0.92715 0.0
H1066 H 0.72133 0.15806 0.97624 0.0
H1067 H 0.69264 0.13644 0.94776 0.0
H1068 H 0.7268 0.17343 0.94046 0.0
H1069 H 0.73799 0.06229 0.99039 0.0
H1070 H 0.7522 0.05112 0.9602 0.0
H1071 H 0.71159 0.04136 0.96031 0.0
C1072 C 0.5938 0.63017 0.53671 0.0
C1073 C 0.58403 0.59964 0.52742 0.0
C1074 C 0.6053 0.65472 0.51713 0.0
C1075 C 0.6059 0.64821 0.48756 0.0
C1076 C 0.59485 0.61712 0.47803 0.0
C1077 C 0.58458 0.59332 0.49817 0.0
C1078 C 0.61774 0.6877 0.5282 0.0
C1079 C 0.59408 0.60899 0.44659 0.0
C1080 C 0.61074 0.70604 0.4313 0.0
C1081 C 0.64204 0.71922 0.42324 0.0
C1082 C 0.59873 0.68313 0.45234 0.0
C1083 C 0.61873 0.67382 0.46648 0.0
C1084 C 0.65057 0.68769 0.45926 0.0
C1085 C 0.66169 0.7098 0.43745 0.0
C1086 C 0.56443 0.66835 0.45895 0.0
C1087 C 0.67282 0.67881 0.47427 0.0
H1088 H 0.59357 0.63498 0.55941 0.0
H1089 H 0.57672 0.56958 0.491 0.0
H1090 H 0.64307 0.70221 0.52384 0.0
H1091 H 0.60519 0.69827 0.51671 0.0
H1092 H 0.61515 0.68877 0.55171 0.0
H1093 H 0.58275 0.58341 0.44252 0.0
H1094 H 0.58104 0.61794 0.43333 0.0
H1095 H 0.61842 0.62034 0.43916 0.0
H1096 H 0.59546 0.71362 0.4212 0.0
H1097 H 0.68573 0.71932 0.43128 0.0
H1098 H 0.56227 0.6715 0.48217 0.0
H1099 H 0.55225 0.64284 0.45425 0.0
H1100 H 0.55205 0.67837 0.44619 0.0
H1101 H 0.67213 0.68056 0.49799 0.0
H1102 H 0.69753 0.69386 0.46813 0.0
H1103 H 0.66531 0.6542 0.46873 0.0
C1104 C 0.53531 0.06877 0.62031 0.0
C1105 C 0.53147 0.03905 0.62469 0.0
C1106 C 0.52236 0.08116 0.63868 0.0
C1107 C 0.50513 0.06343 0.66203 0.0
C1108 C 0.50046 0.03311 0.6662 0.0
C1109 C 0.51371 0.02127 0.64747 0.0
C1110 C 0.52786 0.11362 0.63354 0.0
C1111 C 0.4822 0.01356 0.69088 0.0
C1112 C 0.50536 0.11257 0.7242 0.0
C1113 C 0.47636 0.11121 0.71909 0.0
C1114 C 0.51436 0.09592 0.70653 0.0
C1115 C 0.49392 0.07766 0.68305 0.0
C1116 C 0.46399 0.07512 0.67853 0.0
C1117 C 0.45547 0.09188 0.69676 0.0
C1118 C 0.54631 0.09895 0.71228 0.0
C1119 C 0.44164 0.05592 0.65366 0.0
H1120 H 0.54886 0.08263 0.6027 0.0
H1121 H 0.51051 0.99822 0.65094 0.0
H1122 H 0.50506 0.11322 0.63205 0.0
H1123 H 0.54217 0.12936 0.65199 0.0
H1124 H 0.54029 0.12364 0.61351 0.0
H1125 H 0.47881 0.98965 0.68996 0.0
H1126 H 0.49492 0.025 0.71165 0.0
H1127 H 0.45874 0.0117 0.69077 0.0
H1128 H 0.52129 0.12721 0.74178 0.0
H1129 H 0.43308 0.09094 0.69281 0.0
H1130 H 0.56159 0.11133 0.69433 0.0
H1131 H 0.54399 0.07552 0.71332 0.0
H1132 H 0.55826 0.11204 0.73272 0.0
H1133 H 0.45178 0.06686 0.63305 0.0
H1134 H 0.41819 0.05396 0.65473 0.0
H1135 H 0.43843 0.0321 0.65328 0.0
C1136 C 0.50654 0.45101 0.13183 0.0
C1137 C 0.53749 0.46152 0.14253 0.0
C1138 C 0.48136 0.43785 0.15004 0.0
C1139 C 0.4874 0.43595 0.17986 0.0
C1140 C 0.51849 0.44544 0.19063 0.0
C1141 C 0.54321 0.45781 0.17169 0.0
C1142 C 0.44848 0.42729 0.13753 0.0
C1143 C 0.52595 0.44432 0.22235 0.0
C1144 C 0.42822 0.44075 0.22556 0.0
C1145 C 0.40827 0.40937 0.23239 0.0
C1146 C 0.45495 0.44982 0.2098 0.0
C1147 C 0.4616 0.42691 0.19984 0.0
C1148 C 0.44205 0.3953 0.20704 0.0
C1149 C 0.41583 0.38696 0.22349 0.0
C1150 C 0.47545 0.48388 0.20291 0.0
C1151 C 0.44812 0.37014 0.19643 0.0
H1152 H 0.50209 0.45361 0.10919 0.0
H1153 H 0.5672 0.46614 0.17998 0.0
H1154 H 0.43168 0.40352 0.14482 0.0
H1155 H 0.44055 0.44323 0.14527 0.0
H1156 H 0.44729 0.42707 0.11359 0.0
H1157 H 0.55048 0.44929 0.22681 0.0
H1158 H 0.5229 0.4619 0.23427 0.0
H1159 H 0.50944 0.42112 0.23093 0.0
H1160 H 0.42247 0.45829 0.2317 0.0
H1161 H 0.40105 0.36275 0.22906 0.0
H1162 H 0.47305 0.48708 0.17947 0.0
H1163 H 0.50061 0.49173 0.20837 0.0
H1164 H 0.46902 0.49913 0.21475 0.0
H1165 H 0.44476 0.368 0.17258 0.0
H1166 H 0.4321 0.34704 0.20557 0.0
H1167 H 0.47284 0.37644 0.20204 0.0
C1168 C 0.02519 0.39763 0.60552 0.0
C1169 C 0.05702 0.41746 0.6002 0.0
C1170 C 0.01632 0.3766 0.62808 0.0
C1171 C 0.03983 0.37487 0.64548 0.0
C1172 C 0.07199 0.39396 0.6396 0.0
C1173 C 0.08027 0.41535 0.61716 0.0
C1174 C 0.98177 0.35699 0.63391 0.0
C1175 C 0.0976 0.39221 0.65734 0.0
C1176 C 0.01257 0.34514 0.71957 0.0
C1177 C 5e-05 0.3129 0.71546 0.0
C1178 C 0.0274 0.36594 0.69746 0.0
C1179 C 0.03039 0.3543 0.67076 0.0
C1180 C 0.02026 0.32218 0.66731 0.0
C1181 C 0.00495 0.30177 0.68964 0.0
C1182 C 0.03768 0.40001 0.70198 0.0
C1183 C 0.02366 0.30901 0.63936 0.0
H1184 H 0.00709 0.39924 0.59261 0.0
H1185 H 0.1049 0.43049 0.613 0.0
H1186 H 0.97442 0.33185 0.63335 0.0
H1187 H 0.97773 0.36271 0.65578 0.0
H1188 H 0.96643 0.36077 0.61802 0.0
H1189 H 0.12109 0.40639 0.6483 0.0
H1190 H 0.09885 0.40075 0.67967 0.0
H1191 H 0.09211 0.36762 0.65864 0.0
H1192 H 0.00967 0.35402 0.73977 0.0
H1193 H 0.99534 0.27691 0.68623 0.0
H1194 H 0.02211 0.40573 0.68842 0.0
H1195 H 0.06208 0.41511 0.69524 0.0
H1196 H 0.03663 0.40583 0.72481 0.0
H1197 H 0.00614 0.30813 0.62282 0.0
H1198 H 0.01976 0.28502 0.64178 0.0
H1199 H 0.04742 0.3242 0.63122 0.0
C1200 C 0.65829 0.06099 0.16656 0.0
C1201 C 0.63948 0.04289 0.1426 0.0
C1202 C 0.67131 0.04884 0.18679 0.0
C1203 C 0.66514 0.01788 0.183 0.0
C1204 C 0.6469 -0.00012 0.15845 0.0
C1205 C 0.63441 0.01262 0.13857 0.0
C1206 C 0.6909 0.06878 0.21259 0.0
C1207 C 0.63963 0.9667 0.15365 0.0
C1208 C 0.71004 0.98322 0.22127 0.0
C1209 C 0.68844 0.96446 0.24138 0.0
C1210 C 0.70386 0.00258 0.20326 0.0
C1211 C 0.67546 0.00305 0.20552 0.0
C1212 C 0.65472 0.98579 0.22717 0.0
C1213 C 0.6615 0.96676 0.24486 0.0
C1214 C 0.72667 0.02087 0.18059 0.0
C1215 C 0.62424 0.9857 0.2304 0.0
H1216 H 0.66249 0.08446 0.16975 0.0
H1217 H 0.62004 0.99845 0.12008 0.0
H1218 H 0.67819 0.05883 0.23247 0.0
H1219 H 0.71351 0.06884 0.21498 0.0
H1220 H 0.69606 0.09327 0.21098 0.0
H1221 H 0.62633 0.95638 0.13277 0.0
H1222 H 0.66178 0.96586 0.15411 0.0
H1223 H 0.62546 0.95191 0.17126 0.0
H1224 H 0.7309 0.9815 0.21856 0.0
H1225 H 0.6451 0.95275 0.26084 0.0
H1226 H 0.7308 0.04503 0.17982 0.0
H1227 H 0.71648 0.00964 0.15911 0.0
H1228 H 0.74968 0.02195 0.18454 0.0
H1229 H 0.62854 0.00992 0.23106 0.0
H1230 H 0.61247 0.9738 0.2502 0.0
H1231 H 0.60786 0.97345 0.21148 0.0
C1232 C 0.63424 0.55185 0.65479 0.0
C1233 C 0.64276 0.55118 0.62657 0.0
C1234 C 0.65574 0.55853 0.67834 0.0
C1235 C 0.68683 0.56569 0.67347 0.0
C1236 C 0.69605 0.56661 0.64489 0.0
C1237 C 0.67365 0.55869 0.62174 0.0
C1238 C 0.64467 0.55631 0.70847 0.0
C1239 C 0.72919 0.57484 0.63874 0.0
C1240 C 0.74712 0.60232 0.73657 0.0
C1241 C 0.74936 0.57667 0.74656 0.0
C1242 C 0.7274 0.5993 0.71238 0.0
C1243 C 0.70877 0.56977 0.69841 0.0
C1244 C 0.7104 0.5437 0.70868 0.0
C1245 C 0.731 0.54757 0.73228 0.0
C1246 C 0.7269 0.62779 0.70146 0.0
C1247 C 0.69055 0.51167 0.69463 0.0
H1248 H 0.61022 0.54568 0.65861 0.0
H1249 H 0.68027 0.55828 0.59991 0.0
H1250 H 0.64594 0.53721 0.71986 0.0
H1251 H 0.66026 0.57826 0.72096 0.0
H1252 H 0.62006 0.55162 0.70851 0.0
H1253 H 0.73445 0.58155 0.61599 0.0
H1254 H 0.74681 0.59429 0.6531 0.0
H1255 H 0.73202 0.55429 0.64275 0.0
H1256 H 0.76103 0.62487 0.74745 0.0
H1257 H 0.73321 0.52778 0.73903 0.0
H1258 H 0.70285 0.62433 0.70232 0.0
H1259 H 0.73309 0.63132 0.67857 0.0
H1260 H 0.74362 0.6493 0.71415 0.0
H1261 H 0.6653 0.50494 0.69358 0.0
H1262 H 0.69316 0.49347 0.70639 0.0
H1263 H 0.69741 0.51203 0.6722 0.0
C1264 C 0.20949 0.62159 0.09204 0.0
C1265 C 0.21365 0.62444 0.06234 0.0
C1266 C 0.22204 0.6479 0.11035 0.0
C1267 C 0.23909 0.67801 0.09871 0.0
C1268 C 0.24417 0.68118 0.06884 0.0
C1269 C 0.23145 0.65423 0.05093 0.0
C1270 C 0.21641 0.64339 0.14216 0.0
C1271 C 0.26213 0.71294 0.05573 0.0
C1272 C 0.23652 0.73599 0.14912 0.0
C1273 C 0.26393 0.74526 0.16671 0.0
C1274 C 0.22957 0.71639 0.12485 0.0
C1275 C 0.25045 0.70572 0.11822 0.0
C1276 C 0.27953 0.7174 0.1343 0.0
C1277 C 0.28595 0.7371 0.15836 0.0
C1278 C 0.19846 0.70475 0.10804 0.0
C1279 C 0.30255 0.70681 0.12781 0.0
H1280 H 0.19607 0.59861 0.10106 0.0
H1281 H 0.23464 0.65653 0.02796 0.0
H1282 H 0.2392 0.65526 0.15501 0.0
H1283 H 0.2024 0.65406 0.14861 0.0
H1284 H 0.20361 0.61835 0.14784 0.0
H1285 H 0.26676 0.7114 0.03281 0.0
H1286 H 0.24838 0.72504 0.05691 0.0
H1287 H 0.28494 0.72759 0.06801 0.0
H1288 H 0.21938 0.74218 0.15542 0.0
H1289 H 0.30755 0.74485 0.17151 0.0
H1290 H 0.18186 0.68037 0.11404 0.0
H1291 H 0.20146 0.70464 0.08455 0.0
H1292 H 0.18766 0.71922 0.11253 0.0
H1293 H 0.29352 0.68271 0.13554 0.0
H1294 H 0.32617 0.72216 0.1386 0.0
H1295 H 0.3051 0.70631 0.10427 0.0
loop_
_geom_bond_atom_site_label_1
_geom_bond_atom_site_label_2
_geom_bond_distance
_geom_bond_site_symmetry_2
_ccdc_geom_bond_type
C0 O2 1.247 . S
C0 O4 1.258 . S
C1 O8 1.247 . S
C1 O9 1.258 . S
O2 C0 1.247 . S
O2 Zn3 2.028 . S
Zn3 O2 2.028 . S
Zn3 O7 2.035 1_554 S
Zn3 O9 2.035 1_554 S
Zn3 O10 2.028 . S
O4 C0 1.258 . S
O4 Zn5 2.035 1_554 S
Zn5 O4 2.035 1_556 S
Zn5 O6 2.028 . S
Zn5 O8 2.028 . S
Zn5 O11 2.035 1_556 S
O6 Zn5 2.028 . S
O6 C12 1.247 . S
O7 Zn3 2.035 1_556 S
O7 C12 1.258 . S
O8 C1 1.247 . S
O8 Zn5 2.028 . S
O9 C1 1.258 . S
O9 Zn3 2.035 1_556 S
O10 Zn3 2.028 . S
O10 C13 1.247 . S
O11 Zn5 2.035 1_554 S
O11 C13 1.258 . S
C12 O6 1.247 . S
C12 O7 1.258 . S
C13 O10 1.247 . S
C13 O11 1.258 . S
C14 O16 1.247 1_545 S
C14 O18 1.258 . S
C15 O22 1.247 1_565 S
C15 O23 1.258 . S
O16 C14 1.247 1_565 S
O16 Zn17 2.028 . S
Zn17 O16 2.028 . S
Zn17 O21 2.035 . S
Zn17 O23 2.035 . S
Zn17 O24 2.033 . S
O18 C14 1.258 . S
O18 Zn19 2.035 . S
Zn19 O18 2.035 . S
Zn19 O20 2.028 . S
Zn19 O22 2.028 . S
Zn19 O25 2.035 . S
O20 Zn19 2.028 . S
O20 C26 1.247 1_545 S
O21 Zn17 2.035 . S
O21 C26 1.258 . S
O22 C15 1.247 1_545 S
O22 Zn19 2.028 . S
O23 C15 1.258 . S
O23 Zn17 2.035 . S
O24 Zn17 2.033 . S
O24 C27 1.221 1_565 S
O25 Zn19 2.035 . S
O25 C27 1.258 . S
C26 O20 1.247 1_565 S
C26 O21 1.258 . S
C27 O24 1.221 1_545 S
C27 O25 1.258 . S
C28 O30 1.247 . S
C28 O32 1.258 . S
C29 O36 1.247 . S
C29 O37 1.258 . S
O30 C28 1.247 . S
O30 Zn31 2.028 . S
Zn31 O30 2.028 . S
Zn31 O35 2.035 . S
Zn31 O37 2.035 . S
Zn31 O38 2.028 . S
O32 C28 1.258 . S
O32 Zn33 2.035 . S
Zn33 O32 2.035 . S
Zn33 O34 2.028 . S
Zn33 O36 2.028 . S
Zn33 O39 2.035 . S
O34 Zn33 2.028 . S
O34 C40 1.247 . S
O35 Zn31 2.035 . S
O35 C40 1.258 . S
O36 C29 1.247 . S
O36 Zn33 2.028 . S
O37 C29 1.258 . S
O37 Zn31 2.035 . S
O38 Zn31 2.028 . S
O38 C41 1.247 . S
O39 Zn33 2.035 . S
O39 C41 1.258 . S
C40 O34 1.247 . S
C40 O35 1.258 . S
C41 O38 1.247 . S
C41 O39 1.258 . S
C42 O44 1.247 . S
C42 O46 1.258 . S
C43 O50 1.247 . S
C43 O51 1.258 1_655 S
O44 C42 1.247 . S
O44 Zn45 2.028 . S
Zn45 O44 2.028 . S
Zn45 O49 2.035 . S
Zn45 O51 2.035 . S
Zn45 O52 2.028 . S
O46 C42 1.258 . S
O46 Zn47 2.035 1_455 S
Zn47 O46 2.035 1_655 S
Zn47 O48 2.028 . S
Zn47 O50 2.028 . S
Zn47 O53 2.035 1_655 S
O48 Zn47 2.028 . S
O48 C54 1.247 . S
O49 Zn45 2.035 . S
O49 C54 1.258 1_455 S
O50 C43 1.247 . S
O50 Zn47 2.028 . S
O51 C43 1.258 1_455 S
O51 Zn45 2.035 . S
O52 Zn45 2.028 . S
O52 C55 1.247 . S
O53 Zn47 2.035 1_455 S
O53 C55 1.258 . S
C54 O48 1.247 . S
C54 O49 1.258 1_655 S
C55 O52 1.247 . S
C55 O53 1.258 . S
C56 O58 1.247 . S
C56 O60 1.258 . S
C57 O64 1.247 . S
C57 O65 1.258 . S
O58 C56 1.247 . S
O58 Zn59 2.028 . S
Zn59 O58 2.028 . S
Zn59 O63 2.035 . S
Zn59 O65 2.035 . S
Zn59 O66 2.028 . S
O60 C56 1.258 . S
O60 Zn61 2.035 . S
Zn61 O60 2.035 . S
Zn61 O62 2.028 . S
Zn61 O64 2.028 . S
Zn61 O67 2.035 . S
O62 Zn61 2.028 . S
O62 C68 1.247 . S
O63 Zn59 2.035 . S
O63 C68 1.258 . S
O64 C57 1.247 . S
O64 Zn61 2.028 . S
O65 C57 1.258 . S
O65 Zn59 2.035 . S
O66 Zn59 2.028 . S
O66 C69 1.247 . S
O67 Zn61 2.035 . S
O67 C69 1.258 . S
C68 O62 1.247 . S
C68 O63 1.258 . S
C69 O66 1.247 . S
C69 O67 1.258 . S
C70 O72 1.247 . S
C70 O74 1.258 . S
C71 O78 1.247 . S
C71 O79 1.258 . S
O72 C70 1.247 . S
O72 Zn73 2.028 . S
Zn73 O72 2.028 . S
Zn73 O77 2.035 . S
Zn73 O79 2.035 . S
Zn73 O80 2.028 . S
O74 C70 1.258 . S
O74 Zn75 2.035 . S
Zn75 O74 2.035 . S
Zn75 O76 2.028 . S
Zn75 O78 2.028 . S
Zn75 O81 2.035 . S
O76 Zn75 2.028 . S
O76 C82 1.247 . S
O77 Zn73 2.035 . S
O77 C82 1.258 . S
O78 C71 1.247 . S
O78 Zn75 2.028 . S
O79 C71 1.258 . S
O79 Zn73 2.035 . S
O80 Zn73 2.028 . S
O80 C83 1.247 . S
O81 Zn75 2.035 . S
O81 C83 1.258 . S
C82 O76 1.247 . S
C82 O77 1.258 . S
C83 O80 1.247 . S
C83 O81 1.258 . S
H84 O110 0.856 . S
H85 O113 0.854 . S
H86 C121 0.930 . S
H87 C122 0.930 . S
H88 C124 0.930 . S
H89 C125 0.930 . S
H90 C127 0.931 . S
H91 C128 0.930 . S
H92 C130 0.930 . S
H93 C131 0.929 . S
H94 C133 0.930 . S
H95 C134 0.931 . S
H96 C136 0.930 . S
H97 C137 0.929 . S
H98 C139 0.931 . S
H99 C140 0.930 . S
H100 C142 0.930 . S
H101 C143 0.932 . S
H102 C145 0.930 . S
H103 C146 0.929 . S
H104 C148 0.931 . S
H105 C149 0.930 . S
H106 C151 0.929 . S
H107 C152 0.931 . S
H108 C154 0.930 . S
H109 C155 0.929 . S
O110 H84 0.856 . S
O110 C156 1.300 . S
O111 C156 1.209 . S
O112 C157 1.199 . S
O113 H85 0.854 . S
O113 C157 1.297 . S
C114 C115 1.404 . S
C114 C119 1.397 . S
C114 C120 1.492 . S
C115 C114 1.404 . S
C115 C116 1.396 . S
C115 C126 1.492 . S
C116 C115 1.396 . S
C116 C117 1.397 . S
C116 C132 1.509 . S
C117 C116 1.397 . S
C117 C118 1.412 . S
C117 C138 1.485 . S
C118 C117 1.412 . S
C118 C119 1.388 . S
C118 C144 1.490 . S
C119 C114 1.397 . S
C119 C118 1.388 . S
C119 C150 1.519 . S
C120 C114 1.492 . S
C120 C121 1.363 . S
C120 C125 1.390 . S
C121 H86 0.930 . S
C121 C120 1.363 . S
C121 C122 1.372 . S
C122 H87 0.930 . S
C122 C121 1.372 . S
C122 C123 1.383 . S
C123 C122 1.383 . S
C123 C124 1.395 . S
C124 H88 0.930 . S
C124 C123 1.395 . S
C124 C125 1.362 . S
C125 H89 0.930 . S
C125 C120 1.390 . S
C125 C124 1.362 . S
C126 C115 1.492 . S
C126 C127 1.377 . S
C126 C131 1.397 . S
C127 H90 0.931 . S
C127 C126 1.377 . S
C127 C128 1.376 . S
C128 H91 0.930 . S
C128 C127 1.376 . S
C128 C129 1.376 . S
C129 C128 1.376 . S
C129 C130 1.378 . S
C129 C156 1.486 . S
C130 H92 0.930 . S
C130 C129 1.378 . S
C130 C131 1.376 . S
C131 H93 0.929 . S
C131 C126 1.397 . S
C131 C130 1.376 . S
C132 C116 1.509 . S
C132 C133 1.391 . S
C132 C137 1.386 . S
C133 H94 0.930 . S
C133 C132 1.391 . S
C133 C134 1.375 . S
C134 H95 0.931 . S
C134 C133 1.375 . S
C134 C135 1.375 . S
C135 C134 1.375 . S
C135 C136 1.361 . S
C136 H96 0.930 . S
C136 C135 1.361 . S
C136 C137 1.399 . S
C137 H97 0.929 . S
C137 C132 1.386 . S
C137 C136 1.399 . S
C138 C117 1.485 . S
C138 C139 1.394 . S
C138 C143 1.360 . S
C139 H98 0.931 . S
C139 C138 1.394 . S
C139 C140 1.372 . S
C140 H99 0.930 . S
C140 C139 1.372 . S
C140 C141 1.397 . S
C141 C140 1.397 . S
C141 C142 1.390 . S
C141 C157 1.476 . S
C142 H100 0.930 . S
C142 C141 1.390 . S
C142 C143 1.366 . S
C143 H101 0.932 . S
C143 C138 1.360 . S
C143 C142 1.366 . S
C144 C118 1.490 . S
C144 C145 1.380 . S
C144 C149 1.386 . S
C145 H102 0.930 . S
C145 C144 1.380 . S
C145 C146 1.381 . S
C146 H103 0.929 . S
C146 C145 1.381 . S
C146 C147 1.371 . S
C147 C146 1.371 . S
C147 C148 1.380 . S
C148 H104 0.931 . S
C148 C147 1.380 . S
C148 C149 1.387 . S
C149 H105 0.930 . S
C149 C144 1.386 . S
C149 C148 1.387 . S
C150 C119 1.519 . S
C150 C151 1.377 . S
C150 C155 1.361 . S
C151 H106 0.929 . S
C151 C150 1.377 . S
C151 C152 1.386 . S
C152 H107 0.931 . S
C152 C151 1.386 . S
C152 C153 1.363 . S
C153 C152 1.363 . S
C153 C154 1.385 . S
C154 H108 0.930 . S
C154 C153 1.385 . S
C154 C155 1.396 . S
C155 H109 0.929 . S
C155 C150 1.361 . S
C155 C154 1.396 . S
C156 O110 1.300 . S
C156 O111 1.209 . S
C156 C129 1.486 . S
C157 O112 1.199 . S
C157 O113 1.297 . S
C157 C141 1.476 . S
H158 O184 0.856 1_554 S
H159 O187 0.854 1_565 S
H160 C195 0.930 . S
H161 C196 0.930 . S
H162 C198 0.930 1_455 S
H163 C199 0.930 . S
H164 C201 0.931 . S
H165 C202 0.930 . S
H166 C204 0.930 . S
H167 C205 0.929 . S
H168 C207 0.930 . S
H169 C208 0.931 . S
H170 C210 0.930 . S
H171 C211 0.929 . S
H172 C213 0.931 . S
H173 C214 0.930 . S
H174 C216 0.930 . S
H175 C217 0.932 . S
H176 C219 0.930 . S
H177 C220 0.929 . S
H178 C222 0.931 . S
H179 C223 0.930 . S
H180 C225 0.929 . S
H181 C226 0.931 . S
H182 C228 0.930 . S
H183 C229 0.929 . S
O184 H158 0.856 1_556 S
O184 C230 1.300 . S
O185 C230 1.209 . S
O186 C231 1.199 . S
O187 H159 0.854 1_545 S
O187 C231 1.297 . S
C188 C189 1.404 . S
C188 C193 1.397 . S
C188 C194 1.492 . S
C189 C188 1.404 . S
C189 C190 1.396 . S
C189 C200 1.492 . S
C190 C189 1.396 . S
C190 C191 1.397 . S
C190 C206 1.509 . S
C191 C190 1.397 . S
C191 C192 1.412 . S
C191 C212 1.485 . S
C192 C191 1.412 . S
C192 C193 1.388 . S
C192 C218 1.490 . S
C193 C188 1.397 . S
C193 C192 1.388 . S
C193 C224 1.519 . S
C194 C188 1.492 . S
C194 C195 1.363 . S
C194 C199 1.390 . S
C195 H160 0.930 . S
C195 C194 1.363 . S
C195 C196 1.372 . S
C196 H161 0.930 . S
C196 C195 1.372 . S
C196 C197 1.383 . S
C197 C196 1.383 . S
C197 C198 1.395 . S
C198 H162 0.930 1_655 S
C198 C197 1.395 . S
C198 C199 1.362 . S
C199 H163 0.930 . S
C199 C194 1.390 . S
C199 C198 1.362 . S
C200 C189 1.492 . S
C200 C201 1.377 . S
C200 C205 1.397 . S
C201 H164 0.931 . S
C201 C200 1.377 . S
C201 C202 1.376 . S
C202 H165 0.930 . S
C202 C201 1.376 . S
C202 C203 1.376 . S
C203 C202 1.376 . S
C203 C204 1.378 . S
C203 C230 1.486 . S
C204 H166 0.930 . S
C204 C203 1.378 . S
C204 C205 1.376 . S
C205 H167 0.929 . S
C205 C200 1.397 . S
C205 C204 1.376 . S
C206 C190 1.509 . S
C206 C207 1.391 . S
C206 C211 1.386 . S
C207 H168 0.930 . S
C207 C206 1.391 . S
C207 C208 1.375 . S
C208 H169 0.931 . S
C208 C207 1.375 . S
C208 C209 1.375 . S
C209 C208 1.375 . S
C209 C210 1.361 . S
C210 H170 0.930 . S
C210 C209 1.361 . S
C210 C211 1.399 . S
C211 H171 0.929 . S
C211 C206 1.386 . S
C211 C210 1.399 . S
C212 C191 1.485 . S
C212 C213 1.394 . S
C212 C217 1.360 . S
C213 H172 0.931 . S
C213 C212 1.394 . S
C213 C214 1.372 . S
C214 H173 0.930 . S
C214 C213 1.372 . S
C214 C215 1.397 . S
C215 C214 1.397 . S
C215 C216 1.390 . S
C215 C231 1.476 . S
C216 H174 0.930 . S
C216 C215 1.390 . S
C216 C217 1.366 . S
C217 H175 0.932 . S
C217 C212 1.360 . S
C217 C216 1.366 . S
C218 C192 1.490 . S
C218 C219 1.380 . S
C218 C223 1.386 . S
C219 H176 0.930 . S
C219 C218 1.380 . S
C219 C220 1.381 . S
C220 H177 0.929 . S
C220 C219 1.381 . S
C220 C221 1.371 . S
C221 C220 1.371 . S
C221 C222 1.380 . S
C222 H178 0.931 . S
C222 C221 1.380 . S
C222 C223 1.387 . S
C223 H179 0.930 . S
C223 C218 1.386 . S
C223 C222 1.387 . S
C224 C193 1.519 . S
C224 C225 1.377 . S
C224 C229 1.361 . S
C225 H180 0.929 . S
C225 C224 1.377 . S
C225 C226 1.386 . S
C226 H181 0.931 . S
C226 C225 1.386 . S
C226 C227 1.363 . S
C227 C226 1.363 . S
C227 C228 1.385 . S
C228 H182 0.930 . S
C228 C227 1.385 . S
C228 C229 1.396 . S
C229 H183 0.929 . S
C229 C224 1.361 . S
C229 C228 1.396 . S
C230 O184 1.300 . S
C230 O185 1.209 . S
C230 C203 1.486 . S
C231 O186 1.199 . S
C231 O187 1.297 . S
C231 C215 1.476 . S
H232 O258 0.856 . S
H233 O261 0.854 . S
H234 C269 0.930 . S
H235 C270 0.930 . S
H236 C272 0.930 . S
H237 C273 0.930 . S
H238 C275 0.931 . S
H239 C276 0.930 . S
H240 C278 0.930 . S
H241 C279 0.929 . S
H242 C281 0.930 . S
H243 C282 0.931 . S
H244 C284 0.930 . S
H245 C285 0.929 . S
H246 C287 0.931 . S
H247 C288 0.930 . S
H248 C290 0.930 . S
H249 C291 0.932 . S
H250 C293 0.930 . S
H251 C294 0.929 . S
H252 C296 0.931 . S
H253 C297 0.930 . S
H254 C299 0.929 . S
H255 C300 0.931 . S
H256 C302 0.930 . S
H257 C303 0.929 . S
O258 H232 0.856 . S
O258 C304 1.300 . S
O259 C304 1.209 . S
O260 C305 1.199 . S
O261 H233 0.854 . S
O261 C305 1.297 1_545 S
C262 C263 1.404 . S
C262 C267 1.397 . S
C262 C268 1.492 . S
C263 C262 1.404 . S
C263 C264 1.396 . S
C263 C274 1.492 . S
C264 C263 1.396 . S
C264 C265 1.397 . S
C264 C280 1.509 . S
C265 C264 1.397 . S
C265 C266 1.412 . S
C265 C286 1.485 . S
C266 C265 1.412 . S
C266 C267 1.388 . S
C266 C292 1.490 . S
C267 C262 1.397 . S
C267 C266 1.388 . S
C267 C298 1.519 . S
C268 C262 1.492 . S
C268 C269 1.363 . S
C268 C273 1.390 . S
C269 H234 0.930 . S
C269 C268 1.363 . S
C269 C270 1.372 . S
C270 H235 0.930 . S
C270 C269 1.372 . S
C270 C271 1.383 . S
C271 C270 1.383 . S
C271 C272 1.395 . S
C272 H236 0.930 . S
C272 C271 1.395 . S
C272 C273 1.362 . S
C273 H237 0.930 . S
C273 C268 1.390 . S
C273 C272 1.362 . S
C274 C263 1.492 . S
C274 C275 1.377 . S
C274 C279 1.397 . S
C275 H238 0.931 . S
C275 C274 1.377 . S
C275 C276 1.376 . S
C276 H239 0.930 . S
C276 C275 1.376 . S
C276 C277 1.376 . S
C277 C276 1.376 . S
C277 C278 1.378 . S
C277 C304 1.486 . S
C278 H240 0.930 . S
C278 C277 1.378 . S
C278 C279 1.376 . S
C279 H241 0.929 . S
C279 C274 1.397 . S
C279 C278 1.376 . S
C280 C264 1.509 . S
C280 C281 1.391 . S
C280 C285 1.386 . S
C281 H242 0.930 . S
C281 C280 1.391 . S
C281 C282 1.375 . S
C282 H243 0.931 . S
C282 C281 1.375 . S
C282 C283 1.375 . S
C283 C282 1.375 . S
C283 C284 1.361 . S
C284 H244 0.930 . S
C284 C283 1.361 . S
C284 C285 1.399 . S
C285 H245 0.929 . S
C285 C280 1.386 . S
C285 C284 1.399 . S
C286 C265 1.485 . S
C286 C287 1.394 . S
C286 C291 1.360 . S
C287 H246 0.931 . S
C287 C286 1.394 . S
C287 C288 1.372 . S
C288 H247 0.930 . S
C288 C287 1.372 . S
C288 C289 1.397 . S
C289 C288 1.397 . S
C289 C290 1.390 . S
C289 C305 1.476 . S
C290 H248 0.930 . S
C290 C289 1.390 . S
C290 C291 1.366 . S
C291 H249 0.932 . S
C291 C286 1.360 . S
C291 C290 1.366 . S
C292 C266 1.490 . S
C292 C293 1.380 . S
C292 C297 1.386 . S
C293 H250 0.930 . S
C293 C292 1.380 . S
C293 C294 1.381 . S
C294 H251 0.929 . S
C294 C293 1.381 . S
C294 C295 1.371 . S
C295 C294 1.371 . S
C295 C296 1.380 . S
C296 H252 0.931 . S
C296 C295 1.380 . S
C296 C297 1.387 . S
C297 H253 0.930 . S
C297 C292 1.386 . S
C297 C296 1.387 . S
C298 C267 1.519 . S
C298 C299 1.377 . S
C298 C303 1.361 . S
C299 H254 0.929 . S
C299 C298 1.377 . S
C299 C300 1.386 . S
C300 H255 0.931 . S
C300 C299 1.386 . S
C300 C301 1.363 . S
C301 C300 1.363 . S
C301 C302 1.385 . S
C302 H256 0.930 . S
C302 C301 1.385 . S
C302 C303 1.396 . S
C303 H257 0.929 . S
C303 C298 1.361 . S
C303 C302 1.396 . S
C304 O258 1.300 . S
C304 O259 1.209 . S
C304 C277 1.486 . S
C305 O260 1.199 . S
C305 O261 1.297 1_565 S
C305 C289 1.476 . S
H306 O332 0.856 . S
H307 O335 0.854 . S
H308 C343 0.930 . S
H309 C344 0.930 . S
H310 C346 0.930 . S
H311 C347 0.930 . S
H312 C349 0.931 . S
H313 C350 0.930 . S
H314 C352 0.930 . S
H315 C353 0.929 . S
H316 C355 0.930 . S
H317 C356 0.931 . S
H318 C358 0.930 . S
H319 C359 0.929 . S
H320 C361 0.945 1_455 S
H321 C362 0.930 . S
H322 C364 0.930 . S
H323 C365 0.932 . S
H324 C367 0.930 . S
H325 C368 0.929 . S
H326 C370 0.931 . S
H327 C371 0.930 . S
H328 C373 0.929 . S
H329 C374 0.931 . S
H330 C376 0.930 . S
H331 C377 0.929 . S
O332 H306 0.856 . S
O332 C378 1.300 . S
O333 C378 1.209 . S
O334 C379 1.199 . S
O335 H307 0.854 . S
O335 C379 1.297 . S
C336 C337 1.404 . S
C336 C341 1.397 . S
C336 C342 1.492 . S
C337 C336 1.404 . S
C337 C338 1.396 . S
C337 C348 1.492 . S
C338 C337 1.396 . S
C338 C339 1.397 . S
C338 C354 1.509 . S
C339 C338 1.397 . S
C339 C340 1.412 . S
C339 C360 1.485 . S
C340 C339 1.412 . S
C340 C341 1.388 . S
C340 C366 1.490 . S
C341 C336 1.397 . S
C341 C340 1.388 . S
C341 C372 1.519 . S
C342 C336 1.492 . S
C342 C343 1.363 . S
C342 C347 1.390 . S
C343 H308 0.930 . S
C343 C342 1.363 . S
C343 C344 1.372 . S
C344 H309 0.930 . S
C344 C343 1.372 . S
C344 C345 1.383 . S
C345 C344 1.383 . S
C345 C346 1.395 . S
C346 H310 0.930 . S
C346 C345 1.395 . S
C346 C347 1.362 . S
C347 H311 0.930 . S
C347 C342 1.390 . S
C347 C346 1.362 . S
C348 C337 1.492 . S
C348 C349 1.377 . S
C348 C353 1.397 . S
C349 H312 0.931 . S
C349 C348 1.377 . S
C349 C350 1.376 . S
C350 H313 0.930 . S
C350 C349 1.376 . S
C350 C351 1.376 . S
C351 C350 1.376 . S
C351 C352 1.378 . S
C351 C378 1.486 . S
C352 H314 0.930 . S
C352 C351 1.378 . S
C352 C353 1.376 . S
C353 H315 0.929 . S
C353 C348 1.397 . S
C353 C352 1.376 . S
C354 C338 1.509 . S
C354 C355 1.391 . S
C354 C359 1.386 . S
C355 H316 0.930 . S
C355 C354 1.391 . S
C355 C356 1.375 . S
C356 H317 0.931 . S
C356 C355 1.375 . S
C356 C357 1.375 . S
C357 C356 1.375 . S
C357 C358 1.361 . S
C358 H318 0.930 . S
C358 C357 1.361 . S
C358 C359 1.399 . S
C359 H319 0.929 . S
C359 C354 1.386 . S
C359 C358 1.399 . S
C360 C339 1.485 . S
C360 C361 1.411 . S
C360 C365 1.360 . S
C361 H320 0.945 1_655 S
C361 C360 1.411 . S
C361 C362 1.340 1_655 S
C362 H321 0.930 . S
C362 C361 1.340 1_455 S
C362 C363 1.397 . S
C363 C362 1.397 . S
C363 C364 1.390 1_455 S
C363 C379 1.476 . S
C364 H322 0.930 . S
C364 C363 1.390 1_655 S
C364 C365 1.366 . S
C365 H323 0.932 . S
C365 C360 1.360 . S
C365 C364 1.366 . S
C366 C340 1.490 . S
C366 C367 1.380 . S
C366 C371 1.386 . S
C367 H324 0.930 . S
C367 C366 1.380 . S
C367 C368 1.381 . S
C368 H325 0.929 . S
C368 C367 1.381 . S
C368 C369 1.371 . S
C369 C368 1.371 . S
C369 C370 1.380 . S
C370 H326 0.931 . S
C370 C369 1.380 . S
C370 C371 1.387 . S
C371 H327 0.930 . S
C371 C366 1.386 . S
C371 C370 1.387 . S
C372 C341 1.519 . S
C372 C373 1.377 . S
C372 C377 1.361 . S
C373 H328 0.929 . S
C373 C372 1.377 . S
C373 C374 1.386 . S
C374 H329 0.931 . S
C374 C373 1.386 . S
C374 C375 1.363 . S
C375 C374 1.363 . S
C375 C376 1.385 . S
C376 H330 0.930 . S
C376 C375 1.385 . S
C376 C377 1.396 . S
C377 H331 0.929 . S
C377 C372 1.361 . S
C377 C376 1.396 . S
C378 O332 1.300 . S
C378 O333 1.209 . S
C378 C351 1.486 . S
C379 O334 1.199 . S
C379 O335 1.297 . S
C379 C363 1.476 . S
H380 O406 0.856 . S
H381 O409 0.854 . S
H382 C417 0.930 . S
H383 C418 0.930 . S
H384 C420 0.930 . S
H385 C421 0.930 . S
H386 C423 0.931 . S
H387 C424 0.930 . S
H388 C426 0.930 . S
H389 C427 0.929 . S
H390 C429 0.930 . S
H391 C430 0.931 . S
H392 C432 0.930 . S
H393 C433 0.929 . S
H394 C435 0.931 . S
H395 C436 0.930 . S
H396 C438 0.930 . S
H397 C439 0.932 . S
H398 C441 0.930 . S
H399 C442 0.929 . S
H400 C444 0.931 . S
H401 C445 0.930 . S
H402 C447 0.929 . S
H403 C448 0.931 . S
H404 C450 0.930 . S
H405 C451 0.929 . S
O406 H380 0.856 . S
O406 C452 1.300 . S
O407 C452 1.209 . S
O408 C453 1.199 . S
O409 H381 0.854 . S
O409 C453 1.297 . S
C410 C411 1.404 . S
C410 C415 1.397 . S
C410 C416 1.492 . S
C411 C410 1.404 . S
C411 C412 1.396 . S
C411 C422 1.492 . S
C412 C411 1.396 . S
C412 C413 1.397 . S
C412 C428 1.509 . S
C413 C412 1.397 . S
C413 C414 1.412 . S
C413 C434 1.485 . S
C414 C413 1.412 . S
C414 C415 1.388 . S
C414 C440 1.490 . S
C415 C410 1.397 . S
C415 C414 1.388 . S
C415 C446 1.519 . S
C416 C410 1.492 . S
C416 C417 1.363 . S
C416 C421 1.390 . S
C417 H382 0.930 . S
C417 C416 1.363 . S
C417 C418 1.372 . S
C418 H383 0.930 . S
C418 C417 1.372 . S
C418 C419 1.383 . S
C419 C418 1.383 . S
C419 C420 1.395 . S
C420 H384 0.930 . S
C420 C419 1.395 . S
C420 C421 1.362 . S
C421 H385 0.930 . S
C421 C416 1.390 . S
C421 C420 1.362 . S
C422 C411 1.492 . S
C422 C423 1.377 . S
C422 C427 1.397 . S
C423 H386 0.931 . S
C423 C422 1.377 . S
C423 C424 1.376 . S
C424 H387 0.930 . S
C424 C423 1.376 . S
C424 C425 1.376 . S
C425 C424 1.376 . S
C425 C426 1.378 . S
C425 C452 1.486 . S
C426 H388 0.930 . S
C426 C425 1.378 . S
C426 C427 1.376 . S
C427 H389 0.929 . S
C427 C422 1.397 . S
C427 C426 1.376 . S
C428 C412 1.509 . S
C428 C429 1.391 . S
C428 C433 1.386 . S
C429 H390 0.930 . S
C429 C428 1.391 . S
C429 C430 1.375 . S
C430 H391 0.931 . S
C430 C429 1.375 . S
C430 C431 1.375 . S
C431 C430 1.375 . S
C431 C432 1.361 . S
C432 H392 0.930 . S
C432 C431 1.361 . S
C432 C433 1.399 . S
C433 H393 0.929 . S
C433 C428 1.386 . S
C433 C432 1.399 . S
C434 C413 1.485 . S
C434 C435 1.394 . S
C434 C439 1.360 . S
C435 H394 0.931 . S
C435 C434 1.394 . S
C435 C436 1.372 . S
C436 H395 0.930 . S
C436 C435 1.372 . S
C436 C437 1.397 . S
C437 C436 1.397 . S
C437 C438 1.390 . S
C437 C453 1.476 . S
C438 H396 0.930 . S
C438 C437 1.390 . S
C438 C439 1.366 . S
C439 H397 0.932 . S
C439 C434 1.360 . S
C439 C438 1.366 . S
C440 C414 1.490 . S
C440 C441 1.380 . S
C440 C445 1.386 . S
C441 H398 0.930 . S
C441 C440 1.380 . S
C441 C442 1.381 . S
C442 H399 0.929 . S
C442 C441 1.381 . S
C442 C443 1.371 . S
C443 C442 1.371 . S
C443 C444 1.380 . S
C444 H400 0.931 . S
C444 C443 1.380 . S
C444 C445 1.387 . S
C445 H401 0.930 . S
C445 C440 1.386 . S
C445 C444 1.387 . S
C446 C415 1.519 . S
C446 C447 1.377 . S
C446 C451 1.361 . S
C447 H402 0.929 . S
C447 C446 1.377 . S
C447 C448 1.386 . S
C448 H403 0.931 . S
C448 C447 1.386 . S
C448 C449 1.363 . S
C449 C448 1.363 . S
C449 C450 1.385 . S
C450 H404 0.930 . S
C450 C449 1.385 . S
C450 C451 1.396 . S
C451 H405 0.929 . S
C451 C446 1.361 . S
C451 C450 1.396 . S
C452 O406 1.300 . S
C452 O407 1.209 . S
C452 C425 1.486 . S
C453 O408 1.199 . S
C453 O409 1.297 . S
C453 C437 1.476 . S
H454 O480 0.856 . S
H455 O483 0.848 1_565 S
H456 C491 0.930 . S
H457 C492 0.930 . S
H458 C494 0.930 . S
H459 C495 0.930 . S
H460 C497 0.931 . S
H461 C498 0.930 . S
H462 C500 0.930 . S
H463 C501 0.929 . S
H464 C503 0.930 . S
H465 C504 0.931 . S
H466 C506 0.930 . S
H467 C507 0.929 . S
H468 C509 0.931 . S
H469 C510 0.930 . S
H470 C512 0.930 . S
H471 C513 0.932 . S
H472 C515 0.930 . S
H473 C516 0.929 . S
H474 C518 0.931 . S
H475 C519 0.930 . S
H476 C521 0.929 . S
H477 C522 0.931 . S
H478 C524 0.930 . S
H479 C525 0.929 . S
O480 H454 0.856 . S
O480 C526 1.300 . S
O481 C526 1.209 . S
O482 C527 1.199 . S
O483 H455 0.848 1_545 S
O483 C527 1.297 . S
C484 C485 1.404 . S
C484 C489 1.397 . S
C484 C490 1.492 . S
C485 C484 1.404 . S
C485 C486 1.396 . S
C485 C496 1.492 . S
C486 C485 1.396 . S
C486 C487 1.397 . S
C486 C502 1.509 . S
C487 C486 1.397 . S
C487 C488 1.412 . S
C487 C508 1.485 . S
C488 C487 1.412 . S
C488 C489 1.388 . S
C488 C514 1.490 . S
C489 C484 1.397 . S
C489 C488 1.388 . S
C489 C520 1.519 . S
C490 C484 1.492 . S
C490 C491 1.363 . S
C490 C495 1.390 . S
C491 H456 0.930 . S
C491 C490 1.363 . S
C491 C492 1.372 . S
C492 H457 0.930 . S
C492 C491 1.372 . S
C492 C493 1.383 . S
C493 C492 1.383 . S
C493 C494 1.395 . S
C494 H458 0.930 . S
C494 C493 1.395 . S
C494 C495 1.362 . S
C495 H459 0.930 . S
C495 C490 1.390 . S
C495 C494 1.362 . S
C496 C485 1.492 . S
C496 C497 1.377 . S
C496 C501 1.397 . S
C497 H460 0.931 . S
C497 C496 1.377 . S
C497 C498 1.376 . S
C498 H461 0.930 . S
C498 C497 1.376 . S
C498 C499 1.376 . S
C499 C498 1.376 . S
C499 C500 1.378 . S
C499 C526 1.486 . S
C500 H462 0.930 . S
C500 C499 1.378 . S
C500 C501 1.376 . S
C501 H463 0.929 . S
C501 C496 1.397 . S
C501 C500 1.376 . S
C502 C486 1.509 . S
C502 C503 1.391 . S
C502 C507 1.386 . S
C503 H464 0.930 . S
C503 C502 1.391 . S
C503 C504 1.375 . S
C504 H465 0.931 . S
C504 C503 1.375 . S
C504 C505 1.375 . S
C505 C504 1.375 . S
C505 C506 1.361 . S
C506 H466 0.930 . S
C506 C505 1.361 . S
C506 C507 1.399 . S
C507 H467 0.929 . S
C507 C502 1.386 . S
C507 C506 1.399 . S
C508 C487 1.485 . S
C508 C509 1.394 . S
C508 C513 1.360 . S
C509 H468 0.931 . S
C509 C508 1.394 . S
C509 C510 1.372 . S
C510 H469 0.930 . S
C510 C509 1.372 . S
C510 C511 1.397 . S
C511 C510 1.397 . S
C511 C512 1.390 . S
C511 C527 1.476 . S
C512 H470 0.930 . S
C512 C511 1.390 . S
C512 C513 1.366 . S
C513 H471 0.932 . S
C513 C508 1.360 . S
C513 C512 1.366 . S
C514 C488 1.490 . S
C514 C515 1.380 . S
C514 C519 1.386 . S
C515 H472 0.930 . S
C515 C514 1.380 . S
C515 C516 1.381 . S
C516 H473 0.929 . S
C516 C515 1.381 . S
C516 C517 1.371 . S
C517 C516 1.371 . S
C517 C518 1.380 . S
C518 H474 0.931 . S
C518 C517 1.380 . S
C518 C519 1.387 . S
C519 H475 0.930 . S
C519 C514 1.386 . S
C519 C518 1.387 . S
C520 C489 1.519 . S
C520 C521 1.377 . S
C520 C525 1.361 . S
C521 H476 0.929 . S
C521 C520 1.377 . S
C521 C522 1.386 . S
C522 H477 0.931 . S
C522 C521 1.386 . S
C522 C523 1.363 . S
C523 C522 1.363 . S
C523 C524 1.385 . S
C524 H478 0.930 . S
C524 C523 1.385 . S
C524 C525 1.396 . S
C525 H479 0.929 . S
C525 C520 1.361 . S
C525 C524 1.396 . S
C526 O480 1.300 . S
C526 O481 1.209 . S
C526 C499 1.486 . S
C527 O482 1.199 . S
C527 O483 1.297 . S
C527 C511 1.476 . S
C528 C529 1.391 . S
C528 C530 1.394 . S
C528 H544 0.931 . S
C529 C528 1.391 . S
C529 C533 1.376 . S
C530 C528 1.394 . S
C530 C531 1.369 . S
C530 C534 1.531 . S
C531 C530 1.369 . S
C531 C532 1.410 . S
C531 C539 1.503 . S
C532 C531 1.410 . S
C532 C533 1.392 . S
C532 C535 1.511 . S
C533 C529 1.376 . S
C533 C532 1.392 . S
C533 H545 0.929 . S
C534 C530 1.531 . S
C534 H546 0.960 . S
C534 H547 0.962 . S
C534 H548 0.960 . S
C535 C532 1.511 . S
C535 H549 0.961 . S
C535 H550 0.961 . S
C535 H551 0.961 . S
C536 C537 1.370 . S
C536 C538 1.363 . S
C536 H552 0.931 . S
C537 C536 1.370 . S
C537 C541 1.408 . S
C538 C536 1.363 . S
C538 C539 1.370 . S
C538 C542 1.524 . S
C539 C531 1.503 . S
C539 C538 1.370 . S
C539 C540 1.403 . S
C540 C539 1.403 . S
C540 C541 1.404 . S
C540 C543 1.539 . S
C541 C537 1.408 . S
C541 C540 1.404 . S
C541 H553 0.930 . S
C542 C538 1.524 . S
C542 H554 0.956 . S
C542 H555 0.961 . S
C542 H556 0.961 . S
C543 C540 1.539 . S
C543 H557 0.958 . S
C543 H558 0.961 . S
C543 H559 0.960 . S
H544 C528 0.931 . S
H545 C533 0.929 . S
H546 C534 0.960 . S
H547 C534 0.962 . S
H548 C534 0.960 . S
H549 C535 0.961 . S
H550 C535 0.961 . S
H551 C535 0.961 . S
H552 C536 0.931 . S
H553 C541 0.930 . S
H554 C542 0.956 . S
H555 C542 0.961 . S
H556 C542 0.961 . S
H557 C543 0.958 . S
H558 C543 0.961 . S
H559 C543 0.960 . S
C560 C561 1.391 . S
C560 C562 1.394 . S
C560 H576 0.931 . S
C561 C560 1.391 . S
C561 C565 1.376 . S
C562 C560 1.394 . S
C562 C563 1.369 . S
C562 C566 1.531 . S
C563 C562 1.369 . S
C563 C564 1.410 . S
C563 C571 1.503 . S
C564 C563 1.410 . S
C564 C565 1.392 . S
C564 C567 1.511 . S
C565 C561 1.376 . S
C565 C564 1.392 . S
C565 H577 0.929 . S
C566 C562 1.531 . S
C566 H578 0.960 . S
C566 H579 0.962 . S
C566 H580 0.960 . S
C567 C564 1.511 . S
C567 H581 0.961 . S
C567 H582 0.961 . S
C567 H583 0.961 . S
C568 C569 1.370 . S
C568 C570 1.363 . S
C568 H584 0.931 . S
C569 C568 1.370 . S
C569 C573 1.408 . S
C570 C568 1.363 . S
C570 C571 1.370 . S
C570 C574 1.524 . S
C571 C563 1.503 . S
C571 C570 1.370 . S
C571 C572 1.403 . S
C572 C571 1.403 . S
C572 C573 1.404 . S
C572 C575 1.539 . S
C573 C569 1.408 . S
C573 C572 1.404 . S
C573 H585 0.930 . S
C574 C570 1.524 . S
C574 H586 0.956 . S
C574 H587 0.961 . S
C574 H588 0.961 . S
C575 C572 1.539 . S
C575 H589 0.958 . S
C575 H590 0.961 . S
C575 H591 0.960 . S
H576 C560 0.931 . S
H577 C565 0.929 . S
H578 C566 0.960 . S
H579 C566 0.962 . S
H580 C566 0.960 . S
H581 C567 0.961 . S
H582 C567 0.961 . S
H583 C567 0.961 . S
H584 C568 0.931 . S
H585 C573 0.930 . S
H586 C574 0.956 . S
H587 C574 0.961 . S
H588 C574 0.961 . S
H589 C575 0.958 . S
H590 C575 0.961 . S
H591 C575 0.960 . S
C592 C593 1.391 . S
C592 C594 1.394 . S
C592 H608 0.931 . S
C593 C592 1.391 . S
C593 C597 1.376 . S
C594 C592 1.394 . S
C594 C595 1.369 . S
C594 C598 1.531 . S
C595 C594 1.369 . S
C595 C596 1.410 . S
C595 C603 1.503 . S
C596 C595 1.410 . S
C596 C597 1.392 . S
C596 C599 1.511 . S
C597 C593 1.376 . S
C597 C596 1.392 . S
C597 H609 0.929 . S
C598 C594 1.531 . S
C598 H610 0.960 . S
C598 H611 0.962 . S
C598 H612 0.960 . S
C599 C596 1.511 . S
C599 H613 0.961 . S
C599 H614 0.961 . S
C599 H615 0.961 . S
C600 C601 1.370 . S
C600 C602 1.363 . S
C600 H616 0.931 . S
C601 C600 1.370 . S
C601 C605 1.408 . S
C602 C600 1.363 . S
C602 C603 1.370 . S
C602 C606 1.524 . S
C603 C595 1.503 . S
C603 C602 1.370 . S
C603 C604 1.403 . S
C604 C603 1.403 . S
C604 C605 1.404 . S
C604 C607 1.539 . S
C605 C601 1.408 . S
C605 C604 1.404 . S
C605 H617 0.930 . S
C606 C602 1.524 . S
C606 H618 0.956 . S
C606 H619 0.961 . S
C606 H620 0.961 . S
C607 C604 1.539 . S
C607 H621 0.958 . S
C607 H622 0.961 . S
C607 H623 0.960 . S
H608 C592 0.931 . S
H609 C597 0.929 . S
H610 C598 0.960 . S
H611 C598 0.962 . S
H612 C598 0.960 . S
H613 C599 0.961 . S
H614 C599 0.961 . S
H615 C599 0.961 . S
H616 C600 0.931 . S
H617 C605 0.930 . S
H618 C606 0.956 . S
H619 C606 0.961 . S
H620 C606 0.961 . S
H621 C607 0.958 . S
H622 C607 0.961 . S
H623 C607 0.960 . S
C624 C625 1.400 . S
C624 C626 1.403 . S
C624 H640 0.913 1_655 S
C625 C624 1.400 . S
C625 C629 1.376 . S
C626 C624 1.403 . S
C626 C627 1.369 . S
C626 C630 1.531 1_655 S
C627 C626 1.369 . S
C627 C628 1.410 . S
C627 C635 1.503 . S
C628 C627 1.410 . S
C628 C629 1.392 . S
C628 C631 1.511 . S
C629 C625 1.376 . S
C629 C628 1.392 . S
C629 H641 0.929 . S
C630 C626 1.531 1_455 S
C630 H642 0.960 . S
C630 H643 0.962 . S
C630 H644 0.960 . S
C631 C628 1.511 . S
C631 H645 0.961 . S
C631 H646 0.961 . S
C631 H647 0.961 . S
C632 C633 1.370 . S
C632 C634 1.363 . S
C632 H648 0.931 . S
C633 C632 1.370 . S
C633 C637 1.408 . S
C634 C632 1.363 . S
C634 C635 1.370 . S
C634 C638 1.524 . S
C635 C627 1.503 . S
C635 C634 1.370 . S
C635 C636 1.403 . S
C636 C635 1.403 . S
C636 C637 1.404 . S
C636 C639 1.539 . S
C637 C633 1.408 . S
C637 C636 1.404 . S
C637 H649 0.930 . S
C638 C634 1.524 . S
C638 H650 0.956 1_655 S
C638 H651 0.961 . S
C638 H652 0.961 . S
C639 C636 1.539 . S
C639 H653 0.958 . S
C639 H654 0.961 . S
C639 H655 0.960 . S
H640 C624 0.913 1_455 S
H641 C629 0.929 . S
H642 C630 0.960 . S
H643 C630 0.962 . S
H644 C630 0.960 . S
H645 C631 0.961 . S
H646 C631 0.961 . S
H647 C631 0.961 . S
H648 C632 0.931 . S
H649 C637 0.930 . S
H650 C638 0.956 1_455 S
H651 C638 0.961 . S
H652 C638 0.961 . S
H653 C639 0.958 . S
H654 C639 0.961 . S
H655 C639 0.960 . S
C656 C657 1.391 . S
C656 C658 1.394 . S
C656 H672 0.931 . S
C657 C656 1.391 . S
C657 C661 1.376 1_545 S
C658 C656 1.394 . S
C658 C659 1.369 1_545 S
C658 C662 1.531 . S
C659 C658 1.369 1_565 S
C659 C660 1.410 . S
C659 C667 1.503 . S
C660 C659 1.410 . S
C660 C661 1.392 . S
C660 C663 1.511 . S
C661 C657 1.376 1_565 S
C661 C660 1.392 . S
C661 H673 0.929 . S
C662 C658 1.531 . S
C662 H674 0.960 . S
C662 H675 0.962 . S
C662 H676 0.960 . S
C663 C660 1.511 . S
C663 H677 0.961 . S
C663 H678 0.961 . S
C663 H679 0.961 . S
C664 C665 1.370 . S
C664 C666 1.363 . S
C664 H680 0.931 . S
C665 C664 1.370 . S
C665 C669 1.408 . S
C666 C664 1.363 . S
C666 C667 1.370 . S
C666 C670 1.524 . S
C667 C659 1.503 . S
C667 C666 1.370 . S
C667 C668 1.403 . S
C668 C667 1.403 . S
C668 C669 1.404 . S
C668 C671 1.539 . S
C669 C665 1.408 . S
C669 C668 1.404 . S
C669 H681 0.930 . S
C670 C666 1.524 . S
C670 H682 0.956 . S
C670 H683 0.961 . S
C670 H684 0.961 . S
C671 C668 1.539 . S
C671 H685 0.958 . S
C671 H686 0.961 . S
C671 H687 0.960 . S
H672 C656 0.931 . S
H673 C661 0.929 . S
H674 C662 0.960 . S
H675 C662 0.962 . S
H676 C662 0.960 . S
H677 C663 0.961 . S
H678 C663 0.961 . S
H679 C663 0.961 . S
H680 C664 0.931 . S
H681 C669 0.930 . S
H682 C670 0.956 . S
H683 C670 0.961 . S
H684 C670 0.961 . S
H685 C671 0.958 . S
H686 C671 0.961 . S
H687 C671 0.960 . S
C688 C689 1.391 . S
C688 C690 1.394 . S
C688 H704 0.931 . S
C689 C688 1.391 . S
C689 C693 1.376 . S
C690 C688 1.394 . S
C690 C691 1.369 . S
C690 C694 1.531 . S
C691 C690 1.369 . S
C691 C692 1.410 . S
C691 C699 1.503 . S
C692 C691 1.410 . S
C692 C693 1.392 . S
C692 C695 1.511 . S
C693 C689 1.376 . S
C693 C692 1.392 . S
C693 H705 0.929 . S
C694 C690 1.531 . S
C694 H706 0.960 . S
C694 H707 0.962 . S
C694 H708 0.960 . S
C695 C692 1.511 . S
C695 H709 0.961 . S
C695 H710 0.961 . S
C695 H711 0.961 . S
C696 C697 1.370 . S
C696 C698 1.363 . S
C696 H712 0.931 . S
C697 C696 1.370 . S
C697 C701 1.408 . S
C698 C696 1.363 . S
C698 C699 1.370 . S
C698 C702 1.524 . S
C699 C691 1.503 . S
C699 C698 1.370 . S
C699 C700 1.403 . S
C700 C699 1.403 . S
C700 C701 1.404 . S
C700 C703 1.539 . S
C701 C697 1.408 . S
C701 C700 1.404 . S
C701 H713 0.930 . S
C702 C698 1.524 . S
C702 H714 0.956 . S
C702 H715 0.961 . S
C702 H716 0.961 . S
C703 C700 1.539 . S
C703 H717 0.958 . S
C703 H718 0.961 . S
C703 H719 0.960 . S
H704 C688 0.931 . S
H705 C693 0.929 . S
H706 C694 0.960 . S
H707 C694 0.962 . S
H708 C694 0.960 . S
H709 C695 0.961 . S
H710 C695 0.961 . S
H711 C695 0.961 . S
H712 C696 0.931 . S
H713 C701 0.930 . S
H714 C702 0.956 . S
H715 C702 0.961 . S
H716 C702 0.961 . S
H717 C703 0.958 . S
H718 C703 0.961 . S
H719 C703 0.960 . S
C720 C721 1.391 . S
C720 C722 1.394 . S
C720 H736 0.931 . S
C721 C720 1.391 . S
C721 C725 1.376 . S
C722 C720 1.394 . S
C722 C723 1.369 . S
C722 C726 1.531 . S
C723 C722 1.369 . S
C723 C724 1.410 . S
C723 C731 1.503 . S
C724 C723 1.410 . S
C724 C725 1.392 . S
C724 C727 1.511 . S
C725 C721 1.376 . S
C725 C724 1.392 . S
C725 H737 0.929 . S
C726 C722 1.531 . S
C726 H738 0.960 . S
C726 H739 0.962 . S
C726 H740 0.960 . S
C727 C724 1.511 . S
C727 H741 0.961 . S
C727 H742 0.961 . S
C727 H743 0.961 . S
C728 C729 1.370 . S
C728 C730 1.363 . S
C728 H744 0.931 . S
C729 C728 1.370 . S
C729 C733 1.408 . S
C730 C728 1.363 . S
C730 C731 1.370 . S
C730 C734 1.524 . S
C731 C723 1.503 . S
C731 C730 1.370 . S
C731 C732 1.403 . S
C732 C731 1.403 . S
C732 C733 1.404 . S
C732 C735 1.539 . S
C733 C729 1.408 . S
C733 C732 1.404 . S
C733 H745 0.930 . S
C734 C730 1.524 . S
C734 H746 0.956 . S
C734 H747 0.961 . S
C734 H748 0.961 . S
C735 C732 1.539 . S
C735 H749 0.958 . S
C735 H750 0.961 . S
C735 H751 0.960 . S
H736 C720 0.931 . S
H737 C725 0.929 . S
H738 C726 0.960 . S
H739 C726 0.962 . S
H740 C726 0.960 . S
H741 C727 0.961 . S
H742 C727 0.961 . S
H743 C727 0.961 . S
H744 C728 0.931 . S
H745 C733 0.930 . S
H746 C734 0.956 . S
H747 C734 0.961 . S
H748 C734 0.961 . S
H749 C735 0.958 . S
H750 C735 0.961 . S
H751 C735 0.960 . S
C752 C753 1.391 . S
C752 C754 1.394 1_554 S
C752 H768 0.931 . S
C753 C752 1.391 . S
C753 C757 1.376 . S
C754 C752 1.394 1_556 S
C754 C755 1.369 . S
C754 C758 1.531 . S
C755 C754 1.369 . S
C755 C756 1.410 1_556 S
C755 C763 1.503 . S
C756 C755 1.410 1_554 S
C756 C757 1.392 . S
C756 C759 1.511 . S
C757 C753 1.376 . S
C757 C756 1.392 . S
C757 H769 0.929 . S
C758 C754 1.531 . S
C758 H770 0.960 . S
C758 H771 0.962 . S
C758 H772 0.960 . S
C759 C756 1.511 . S
C759 H773 0.961 . S
C759 H774 0.961 1_554 S
C759 H775 0.961 . S
C760 C761 1.370 . S
C760 C762 1.363 . S
C760 H776 0.931 . S
C761 C760 1.370 . S
C761 C765 1.408 . S
C762 C760 1.363 . S
C762 C763 1.370 . S
C762 C766 1.524 . S
C763 C755 1.503 . S
C763 C762 1.370 . S
C763 C764 1.403 . S
C764 C763 1.403 . S
C764 C765 1.404 . S
C764 C767 1.539 1_556 S
C765 C761 1.408 . S
C765 C764 1.404 . S
C765 H777 0.930 . S
C766 C762 1.524 . S
C766 H778 0.956 . S
C766 H779 0.961 . S
C766 H780 0.961 . S
C767 C764 1.539 1_554 S
C767 H781 0.958 . S
C767 H782 0.961 . S
C767 H783 0.960 . S
H768 C752 0.931 . S
H769 C757 0.929 . S
H770 C758 0.960 . S
H771 C758 0.962 . S
H772 C758 0.960 . S
H773 C759 0.961 . S
H774 C759 0.961 1_556 S
H775 C759 0.961 . S
H776 C760 0.931 . S
H777 C765 0.930 . S
H778 C766 0.956 . S
H779 C766 0.961 . S
H780 C766 0.961 . S
H781 C767 0.958 . S
H782 C767 0.961 . S
H783 C767 0.960 . S
C784 C785 1.391 . S
C784 C786 1.394 . S
C784 H800 0.931 . S
C785 C784 1.391 . S
C785 C789 1.376 . S
C786 C784 1.394 . S
C786 C787 1.369 . S
C786 C790 1.531 . S
C787 C786 1.369 . S
C787 C788 1.410 . S
C787 C795 1.503 . S
C788 C787 1.410 . S
C788 C789 1.392 . S
C788 C791 1.511 . S
C789 C785 1.376 . S
C789 C788 1.392 . S
C789 H801 0.929 . S
C790 C786 1.531 . S
C790 H802 0.960 . S
C790 H803 0.962 . S
C790 H804 0.960 . S
C791 C788 1.511 . S
C791 H805 0.961 . S
C791 H806 0.961 . S
C791 H807 0.961 . S
C792 C793 1.370 . S
C792 C794 1.363 . S
C792 H808 0.931 . S
C793 C792 1.370 . S
C793 C797 1.408 . S
C794 C792 1.363 . S
C794 C795 1.370 . S
C794 C798 1.524 . S
C795 C787 1.503 . S
C795 C794 1.370 . S
C795 C796 1.403 . S
C796 C795 1.403 . S
C796 C797 1.404 . S
C796 C799 1.539 . S
C797 C793 1.408 . S
C797 C796 1.404 . S
C797 H809 0.930 . S
C798 C794 1.524 . S
C798 H810 0.956 . S
C798 H811 0.961 . S
C798 H812 0.961 . S
C799 C796 1.539 . S
C799 H813 0.958 . S
C799 H814 0.961 . S
C799 H815 0.960 . S
H800 C784 0.931 . S
H801 C789 0.929 . S
H802 C790 0.960 . S
H803 C790 0.962 . S
H804 C790 0.960 . S
H805 C791 0.961 . S
H806 C791 0.961 . S
H807 C791 0.961 . S
H808 C792 0.931 . S
H809 C797 0.930 . S
H810 C798 0.956 . S
H811 C798 0.961 . S
H812 C798 0.961 . S
H813 C799 0.958 . S
H814 C799 0.961 . S
H815 C799 0.960 . S
C816 C817 1.391 . S
C816 C818 1.394 1_554 S
C816 H832 0.931 . S
C817 C816 1.391 . S
C817 C821 1.376 . S
C818 C816 1.394 1_556 S
C818 C819 1.367 1_556 S
C818 C822 1.531 . S
C819 C818 1.367 1_554 S
C819 C820 1.416 . S
C819 C827 1.499 1_554 S
C820 C819 1.416 . S
C820 C821 1.392 . S
C820 C823 1.511 . S
C821 C817 1.376 . S
C821 C820 1.392 . S
C821 H833 0.929 . S
C822 C818 1.531 . S
C822 H834 0.960 . S
C822 H835 0.962 . S
C822 H836 0.960 . S
C823 C820 1.511 . S
C823 H837 0.961 . S
C823 H838 0.961 . S
C823 H839 0.961 . S
C824 C825 1.370 . S
C824 C826 1.363 . S
C824 H840 0.931 . S
C825 C824 1.370 . S
C825 C829 1.408 . S
C826 C824 1.363 . S
C826 C827 1.370 . S
C826 C830 1.524 . S
C827 C819 1.499 1_556 S
C827 C826 1.370 . S
C827 C828 1.403 . S
C828 C827 1.403 . S
C828 C829 1.404 . S
C828 C831 1.539 . S
C829 C825 1.408 . S
C829 C828 1.404 . S
C829 H841 0.930 . S
C830 C826 1.524 . S
C830 H842 0.956 . S
C830 H843 0.961 1_556 S
C830 H844 0.961 . S
C831 C828 1.539 . S
C831 H845 0.958 . S
C831 H846 0.961 . S
C831 H847 0.960 . S
H832 C816 0.931 . S
H833 C821 0.929 . S
H834 C822 0.960 . S
H835 C822 0.962 . S
H836 C822 0.960 . S
H837 C823 0.961 . S
H838 C823 0.961 . S
H839 C823 0.961 . S
H840 C824 0.931 . S
H841 C829 0.930 . S
H842 C830 0.956 . S
H843 C830 0.961 1_554 S
H844 C830 0.961 . S
H845 C831 0.958 . S
H846 C831 0.961 . S
H847 C831 0.960 . S
C848 C849 1.391 . S
C848 C850 1.394 . S
C848 H864 0.931 . S
C849 C848 1.391 . S
C849 C853 1.376 . S
C850 C848 1.394 . S
C850 C851 1.369 . S
C850 C854 1.531 . S
C851 C850 1.369 . S
C851 C852 1.410 . S
C851 C859 1.503 . S
C852 C851 1.410 . S
C852 C853 1.392 . S
C852 C855 1.511 . S
C853 C849 1.376 . S
C853 C852 1.392 . S
C853 H865 0.929 . S
C854 C850 1.531 . S
C854 H866 0.960 . S
C854 H867 0.962 . S
C854 H868 0.960 . S
C855 C852 1.511 . S
C855 H869 0.961 . S
C855 H870 0.961 . S
C855 H871 0.961 . S
C856 C857 1.370 . S
C856 C858 1.363 . S
C856 H872 0.931 . S
C857 C856 1.370 . S
C857 C861 1.408 . S
C858 C856 1.363 . S
C858 C859 1.370 . S
C858 C862 1.524 . S
C859 C851 1.503 . S
C859 C858 1.370 . S
C859 C860 1.403 . S
C860 C859 1.403 . S
C860 C861 1.404 . S
C860 C863 1.539 . S
C861 C857 1.408 . S
C861 C860 1.404 . S
C861 H873 0.930 . S
C862 C858 1.524 . S
C862 H874 0.956 . S
C862 H875 0.961 . S
C862 H876 0.961 . S
C863 C860 1.539 . S
C863 H877 0.958 . S
C863 H878 0.961 . S
C863 H879 0.960 . S
H864 C848 0.931 . S
H865 C853 0.929 . S
H866 C854 0.960 . S
H867 C854 0.962 . S
H868 C854 0.960 . S
H869 C855 0.961 . S
H870 C855 0.961 . S
H871 C855 0.961 . S
H872 C856 0.931 . S
H873 C861 0.930 . S
H874 C862 0.956 . S
H875 C862 0.961 . S
H876 C862 0.961 . S
H877 C863 0.958 . S
H878 C863 0.961 . S
H879 C863 0.960 . S
C880 C881 1.391 . S
C880 C882 1.394 . S
C880 H896 0.931 . S
C881 C880 1.391 . S
C881 C885 1.376 . S
C882 C880 1.394 . S
C882 C883 1.369 . S
C882 C886 1.531 . S
C883 C882 1.369 . S
C883 C884 1.410 . S
C883 C891 1.503 . S
C884 C883 1.410 . S
C884 C885 1.392 . S
C884 C887 1.511 . S
C885 C881 1.376 . S
C885 C884 1.392 . S
C885 H897 0.929 . S
C886 C882 1.531 . S
C886 H898 0.960 . S
C886 H899 0.962 . S
C886 H900 0.960 . S
C887 C884 1.511 . S
C887 H901 0.961 . S
C887 H902 0.961 . S
C887 H903 0.961 . S
C888 C889 1.370 . S
C888 C890 1.363 . S
C888 H904 0.931 . S
C889 C888 1.370 . S
C889 C893 1.408 . S
C890 C888 1.363 . S
C890 C891 1.370 . S
C890 C894 1.524 . S
C891 C883 1.503 . S
C891 C890 1.370 . S
C891 C892 1.403 . S
C892 C891 1.403 . S
C892 C893 1.404 . S
C892 C895 1.539 . S
C893 C889 1.408 . S
C893 C892 1.404 . S
C893 H905 0.930 1_455 S
C894 C890 1.524 . S
C894 H906 0.956 . S
C894 H907 0.961 . S
C894 H908 0.961 . S
C895 C892 1.539 . S
C895 H909 0.958 . S
C895 H910 0.961 1_455 S
C895 H911 0.960 . S
H896 C880 0.931 . S
H897 C885 0.929 . S
H898 C886 0.960 . S
H899 C886 0.962 . S
H900 C886 0.960 . S
H901 C887 0.961 . S
H902 C887 0.961 . S
H903 C887 0.961 . S
H904 C888 0.931 . S
H905 C893 0.930 1_655 S
H906 C894 0.956 . S
H907 C894 0.961 . S
H908 C894 0.961 . S
H909 C895 0.958 . S
H910 C895 0.961 1_655 S
H911 C895 0.960 . S
C912 C913 1.391 . S
C912 C914 1.394 . S
C912 H928 0.931 . S
C913 C912 1.391 . S
C913 C917 1.376 . S
C914 C912 1.394 . S
C914 C915 1.369 . S
C914 C918 1.531 . S
C915 C914 1.369 . S
C915 C916 1.410 . S
C915 C923 1.503 . S
C916 C915 1.410 . S
C916 C917 1.392 . S
C916 C919 1.511 . S
C917 C913 1.376 . S
C917 C916 1.392 . S
C917 H929 0.929 . S
C918 C914 1.531 . S
C918 H930 0.960 . S
C918 H931 0.962 . S
C918 H932 0.960 . S
C919 C916 1.511 . S
C919 H933 0.961 1_556 S
C919 H934 0.961 . S
C919 H935 0.961 . S
C920 C921 1.370 . S
C920 C922 1.363 . S
C920 H936 0.931 . S
C921 C920 1.370 . S
C921 C925 1.408 1_455 S
C922 C920 1.363 . S
C922 C923 1.370 . S
C922 C926 1.524 . S
C923 C915 1.503 . S
C923 C922 1.370 . S
C923 C924 1.403 . S
C924 C923 1.403 . S
C924 C925 1.404 1_455 S
C924 C927 1.539 . S
C925 C921 1.408 1_655 S
C925 C924 1.404 1_655 S
C925 H937 0.930 . S
C926 C922 1.524 . S
C926 H938 0.956 . S
C926 H939 0.961 . S
C926 H940 0.961 . S
C927 C924 1.539 . S
C927 H941 0.958 . S
C927 H942 0.961 1_455 S
C927 H943 0.960 . S
H928 C912 0.931 . S
H929 C917 0.929 . S
H930 C918 0.960 . S
H931 C918 0.962 . S
H932 C918 0.960 . S
H933 C919 0.961 1_554 S
H934 C919 0.961 . S
H935 C919 0.961 . S
H936 C920 0.931 . S
H937 C925 0.930 . S
H938 C926 0.956 . S
H939 C926 0.961 . S
H940 C926 0.961 . S
H941 C927 0.958 . S
H942 C927 0.961 1_655 S
H943 C927 0.960 . S
C944 C945 1.391 . S
C944 C946 1.394 . S
C944 H960 0.931 . S
C945 C944 1.391 . S
C945 C949 1.376 . S
C946 C944 1.394 . S
C946 C947 1.369 . S
C946 C950 1.531 . S
C947 C946 1.369 . S
C947 C948 1.410 . S
C947 C955 1.503 . S
C948 C947 1.410 . S
C948 C949 1.392 . S
C948 C951 1.511 . S
C949 C945 1.376 . S
C949 C948 1.392 . S
C949 H961 0.929 . S
C950 C946 1.531 . S
C950 H962 0.960 . S
C950 H963 0.962 . S
C950 H964 0.960 . S
C951 C948 1.511 . S
C951 H965 0.961 1_565 S
C951 H966 0.961 . S
C951 H967 0.961 . S
C952 C953 1.370 . S
C952 C954 1.363 . S
C952 H968 0.931 . S
C953 C952 1.370 . S
C953 C957 1.408 . S
C954 C952 1.363 . S
C954 C955 1.370 . S
C954 C958 1.524 . S
C955 C947 1.503 . S
C955 C954 1.370 . S
C955 C956 1.403 . S
C956 C955 1.403 . S
C956 C957 1.404 . S
C956 C959 1.539 . S
C957 C953 1.408 . S
C957 C956 1.404 . S
C957 H969 0.930 . S
C958 C954 1.524 . S
C958 H970 0.956 . S
C958 H971 0.961 . S
C958 H972 0.961 . S
C959 C956 1.539 . S
C959 H973 0.958 . S
C959 H974 0.961 . S
C959 H975 0.960 . S
H960 C944 0.931 . S
H961 C949 0.929 . S
H962 C950 0.960 . S
H963 C950 0.962 . S
H964 C950 0.960 . S
H965 C951 0.961 1_545 S
H966 C951 0.961 . S
H967 C951 0.961 . S
H968 C952 0.931 . S
H969 C957 0.930 . S
H970 C958 0.956 . S
H971 C958 0.961 . S
H972 C958 0.961 . S
H973 C959 0.958 . S
H974 C959 0.961 . S
H975 C959 0.960 . S
C976 C977 1.391 . S
C976 C978 1.394 . S
C976 H992 0.931 . S
C977 C976 1.391 . S
C977 C981 1.376 . S
C978 C976 1.394 . S
C978 C979 1.369 1_554 S
C978 C982 1.531 . S
C979 C978 1.369 1_556 S
C979 C980 1.410 . S
C979 C987 1.503 . S
C980 C979 1.410 . S
C980 C981 1.392 1_556 S
C980 C983 1.511 . S
C981 C977 1.376 . S
C981 C980 1.392 1_554 S
C981 H993 0.929 . S
C982 C978 1.531 . S
C982 H994 0.960 1_554 S
C982 H995 0.962 . S
C982 H996 0.960 . S
C983 C980 1.511 . S
C983 H997 0.961 . S
C983 H998 0.961 . S
C983 H999 0.961 . S
C984 C985 1.370 . S
C984 C986 1.363 . S
C984 H1000 0.931 . S
C985 C984 1.370 . S
C985 C989 1.408 . S
C986 C984 1.363 . S
C986 C987 1.370 . S
C986 C990 1.524 . S
C987 C979 1.503 . S
C987 C986 1.370 . S
C987 C988 1.403 . S
C988 C987 1.403 . S
C988 C989 1.404 . S
C988 C991 1.539 . S
C989 C985 1.408 . S
C989 C988 1.404 . S
C989 H1001 0.930 . S
C990 C986 1.524 . S
C990 H1002 0.956 1_556 S
C990 H1003 0.961 . S
C990 H1004 0.961 . S
C991 C988 1.539 . S
C991 H1005 0.958 . S
C991 H1006 0.961 . S
C991 H1007 0.960 . S
H992 C976 0.931 . S
H993 C981 0.929 . S
H994 C982 0.960 1_556 S
H995 C982 0.962 . S
H996 C982 0.960 . S
H997 C983 0.961 . S
H998 C983 0.961 . S
H999 C983 0.961 . S
H1000 C984 0.931 . S
H1001 C989 0.930 . S
H1002 C990 0.956 1_554 S
H1003 C990 0.961 . S
H1004 C990 0.961 . S
H1005 C991 0.958 . S
H1006 C991 0.961 . S
H1007 C991 0.960 . S
C1008 C1009 1.391 . S
C1008 C1010 1.394 . S
C1008 H1024 0.931 . S
C1009 C1008 1.391 . S
C1009 C1013 1.376 . S
C1010 C1008 1.394 . S
C1010 C1011 1.369 . S
C1010 C1014 1.531 . S
C1011 C1010 1.369 . S
C1011 C1012 1.410 . S
C1011 C1019 1.503 . S
C1012 C1011 1.410 . S
C1012 C1013 1.392 . S
C1012 C1015 1.511 . S
C1013 C1009 1.376 . S
C1013 C1012 1.392 . S
C1013 H1025 0.929 . S
C1014 C1010 1.531 . S
C1014 H1026 0.960 . S
C1014 H1027 0.962 . S
C1014 H1028 0.960 . S
C1015 C1012 1.511 . S
C1015 H1029 0.961 . S
C1015 H1030 0.961 . S
C1015 H1031 0.961 . S
C1016 C1017 1.370 . S
C1016 C1018 1.363 . S
C1016 H1032 0.931 . S
C1017 C1016 1.370 . S
C1017 C1021 1.408 . S
C1018 C1016 1.363 . S
C1018 C1019 1.370 . S
C1018 C1022 1.524 . S
C1019 C1011 1.503 . S
C1019 C1018 1.370 . S
C1019 C1020 1.403 . S
C1020 C1019 1.403 . S
C1020 C1021 1.404 . S
C1020 C1023 1.539 . S
C1021 C1017 1.408 . S
C1021 C1020 1.404 . S
C1021 H1033 0.930 . S
C1022 C1018 1.524 . S
C1022 H1034 0.956 . S
C1022 H1035 0.961 . S
C1022 H1036 0.961 . S
C1023 C1020 1.539 . S
C1023 H1037 0.958 . S
C1023 H1038 0.961 . S
C1023 H1039 0.960 . S
H1024 C1008 0.931 . S
H1025 C1013 0.929 . S
H1026 C1014 0.960 . S
H1027 C1014 0.962 . S
H1028 C1014 0.960 . S
H1029 C1015 0.961 . S
H1030 C1015 0.961 . S
H1031 C1015 0.961 . S
H1032 C1016 0.931 . S
H1033 C1021 0.930 . S
H1034 C1022 0.956 . S
H1035 C1022 0.961 . S
H1036 C1022 0.961 . S
H1037 C1023 0.958 . S
H1038 C1023 0.961 . S
H1039 C1023 0.960 . S
C1040 C1041 1.391 . S
C1040 C1042 1.394 . S
C1040 H1056 0.931 . S
C1041 C1040 1.391 . S
C1041 C1045 1.376 . S
C1042 C1040 1.394 . S
C1042 C1043 1.369 . S
C1042 C1046 1.531 . S
C1043 C1042 1.369 . S
C1043 C1044 1.410 1_554 S
C1043 C1051 1.503 1_554 S
C1044 C1043 1.410 1_556 S
C1044 C1045 1.392 1_556 S
C1044 C1047 1.511 . S
C1045 C1041 1.376 . S
C1045 C1044 1.392 1_554 S
C1045 H1057 0.929 . S
C1046 C1042 1.531 . S
C1046 H1058 0.960 . S
C1046 H1059 0.962 . S
C1046 H1060 0.960 . S
C1047 C1044 1.511 . S
C1047 H1061 0.961 . S
C1047 H1062 0.961 . S
C1047 H1063 0.961 . S
C1048 C1049 1.370 . S
C1048 C1050 1.363 . S
C1048 H1064 0.931 . S
C1049 C1048 1.370 . S
C1049 C1053 1.408 . S
C1050 C1048 1.363 . S
C1050 C1051 1.370 . S
C1050 C1054 1.524 . S
C1051 C1043 1.503 1_556 S
C1051 C1050 1.370 . S
C1051 C1052 1.403 . S
C1052 C1051 1.403 . S
C1052 C1053 1.404 . S
C1052 C1055 1.539 . S
C1053 C1049 1.408 . S
C1053 C1052 1.404 . S
C1053 H1065 0.930 . S
C1054 C1050 1.524 . S
C1054 H1066 0.956 1_556 S
C1054 H1067 0.961 . S
C1054 H1068 0.961 . S
C1055 C1052 1.539 . S
C1055 H1069 0.958 1_556 S
C1055 H1070 0.961 . S
C1055 H1071 0.960 . S
H1056 C1040 0.931 . S
H1057 C1045 0.929 . S
H1058 C1046 0.960 . S
H1059 C1046 0.962 . S
H1060 C1046 0.960 . S
H1061 C1047 0.961 . S
H1062 C1047 0.961 . S
H1063 C1047 0.961 . S
H1064 C1048 0.931 . S
H1065 C1053 0.930 . S
H1066 C1054 0.956 1_554 S
H1067 C1054 0.961 . S
H1068 C1054 0.961 . S
H1069 C1055 0.958 1_554 S
H1070 C1055 0.961 . S
H1071 C1055 0.960 . S
C1072 C1073 1.391 . S
C1072 C1074 1.394 . S
C1072 H1088 0.931 . S
C1073 C1072 1.391 . S
C1073 C1077 1.376 . S
C1074 C1072 1.394 . S
C1074 C1075 1.369 . S
C1074 C1078 1.531 . S
C1075 C1074 1.369 . S
C1075 C1076 1.410 . S
C1075 C1083 1.503 . S
C1076 C1075 1.410 . S
C1076 C1077 1.392 . S
C1076 C1079 1.511 . S
C1077 C1073 1.376 . S
C1077 C1076 1.392 . S
C1077 H1089 0.929 . S
C1078 C1074 1.531 . S
C1078 H1090 0.960 . S
C1078 H1091 0.962 . S
C1078 H1092 0.960 . S
C1079 C1076 1.511 . S
C1079 H1093 0.961 . S
C1079 H1094 0.961 . S
C1079 H1095 0.961 . S
C1080 C1081 1.370 . S
C1080 C1082 1.363 . S
C1080 H1096 0.931 . S
C1081 C1080 1.370 . S
C1081 C1085 1.408 . S
C1082 C1080 1.363 . S
C1082 C1083 1.370 . S
C1082 C1086 1.524 . S
C1083 C1075 1.503 . S
C1083 C1082 1.370 . S
C1083 C1084 1.403 . S
C1084 C1083 1.403 . S
C1084 C1085 1.404 . S
C1084 C1087 1.539 . S
C1085 C1081 1.408 . S
C1085 C1084 1.404 . S
C1085 H1097 0.930 . S
C1086 C1082 1.524 . S
C1086 H1098 0.956 . S
C1086 H1099 0.961 . S
C1086 H1100 0.961 . S
C1087 C1084 1.539 . S
C1087 H1101 0.958 . S
C1087 H1102 0.961 . S
C1087 H1103 0.960 . S
H1088 C1072 0.931 . S
H1089 C1077 0.929 . S
H1090 C1078 0.960 . S
H1091 C1078 0.962 . S
H1092 C1078 0.960 . S
H1093 C1079 0.961 . S
H1094 C1079 0.961 . S
H1095 C1079 0.961 . S
H1096 C1080 0.931 . S
H1097 C1085 0.930 . S
H1098 C1086 0.956 . S
H1099 C1086 0.961 . S
H1100 C1086 0.961 . S
H1101 C1087 0.958 . S
H1102 C1087 0.961 . S
H1103 C1087 0.960 . S
C1104 C1105 1.391 . S
C1104 C1106 1.394 . S
C1104 H1120 0.931 . S
C1105 C1104 1.391 . S
C1105 C1109 1.376 . S
C1106 C1104 1.394 . S
C1106 C1107 1.369 . S
C1106 C1110 1.531 . S
C1107 C1106 1.369 . S
C1107 C1108 1.410 . S
C1107 C1115 1.503 . S
C1108 C1107 1.410 . S
C1108 C1109 1.392 . S
C1108 C1111 1.511 . S
C1109 C1105 1.376 . S
C1109 C1108 1.392 . S
C1109 H1121 0.929 . S
C1110 C1106 1.531 . S
C1110 H1122 0.960 . S
C1110 H1123 0.962 . S
C1110 H1124 0.960 . S
C1111 C1108 1.511 . S
C1111 H1125 0.961 1_545 S
C1111 H1126 0.961 . S
C1111 H1127 0.961 . S
C1112 C1113 1.370 . S
C1112 C1114 1.363 . S
C1112 H1128 0.931 . S
C1113 C1112 1.370 . S
C1113 C1117 1.408 . S
C1114 C1112 1.363 . S
C1114 C1115 1.370 . S
C1114 C1118 1.524 . S
C1115 C1107 1.503 . S
C1115 C1114 1.370 . S
C1115 C1116 1.403 . S
C1116 C1115 1.403 . S
C1116 C1117 1.404 . S
C1116 C1119 1.539 . S
C1117 C1113 1.408 . S
C1117 C1116 1.404 . S
C1117 H1129 0.930 . S
C1118 C1114 1.524 . S
C1118 H1130 0.956 . S
C1118 H1131 0.961 . S
C1118 H1132 0.961 . S
C1119 C1116 1.539 . S
C1119 H1133 0.958 . S
C1119 H1134 0.961 . S
C1119 H1135 0.960 . S
H1120 C1104 0.931 . S
H1121 C1109 0.929 . S
H1122 C1110 0.960 . S
H1123 C1110 0.962 . S
H1124 C1110 0.960 . S
H1125 C1111 0.961 1_565 S
H1126 C1111 0.961 . S
H1127 C1111 0.961 . S
H1128 C1112 0.931 . S
H1129 C1117 0.930 . S
H1130 C1118 0.956 . S
H1131 C1118 0.961 . S
H1132 C1118 0.961 . S
H1133 C1119 0.958 . S
H1134 C1119 0.961 . S
H1135 C1119 0.960 . S
C1136 C1137 1.391 . S
C1136 C1138 1.394 . S
C1136 H1152 0.931 . S
C1137 C1136 1.391 . S
C1137 C1141 1.376 . S
C1138 C1136 1.394 . S
C1138 C1139 1.369 . S
C1138 C1142 1.531 . S
C1139 C1138 1.369 . S
C1139 C1140 1.410 . S
C1139 C1147 1.503 . S
C1140 C1139 1.410 . S
C1140 C1141 1.392 . S
C1140 C1143 1.511 . S
C1141 C1137 1.376 . S
C1141 C1140 1.392 . S
C1141 H1153 0.929 . S
C1142 C1138 1.531 . S
C1142 H1154 0.960 . S
C1142 H1155 0.962 . S
C1142 H1156 0.960 . S
C1143 C1140 1.511 . S
C1143 H1157 0.961 . S
C1143 H1158 0.961 . S
C1143 H1159 0.961 . S
C1144 C1145 1.370 . S
C1144 C1146 1.363 . S
C1144 H1160 0.931 . S
C1145 C1144 1.370 . S
C1145 C1149 1.408 . S
C1146 C1144 1.363 . S
C1146 C1147 1.370 . S
C1146 C1150 1.524 . S
C1147 C1139 1.503 . S
C1147 C1146 1.370 . S
C1147 C1148 1.403 . S
C1148 C1147 1.403 . S
C1148 C1149 1.404 . S
C1148 C1151 1.539 . S
C1149 C1145 1.408 . S
C1149 C1148 1.404 . S
C1149 H1161 0.930 . S
C1150 C1146 1.524 . S
C1150 H1162 0.956 . S
C1150 H1163 0.961 . S
C1150 H1164 0.961 . S
C1151 C1148 1.539 . S
C1151 H1165 0.958 . S
C1151 H1166 0.961 . S
C1151 H1167 0.960 . S
H1152 C1136 0.931 . S
H1153 C1141 0.929 . S
H1154 C1142 0.960 . S
H1155 C1142 0.962 . S
H1156 C1142 0.960 . S
H1157 C1143 0.961 . S
H1158 C1143 0.961 . S
H1159 C1143 0.961 . S
H1160 C1144 0.931 . S
H1161 C1149 0.930 . S
H1162 C1150 0.956 . S
H1163 C1150 0.961 . S
H1164 C1150 0.961 . S
H1165 C1151 0.958 . S
H1166 C1151 0.961 . S
H1167 C1151 0.960 . S
C1168 C1169 1.391 . S
C1168 C1170 1.394 . S
C1168 H1184 0.931 . S
C1169 C1168 1.391 . S
C1169 C1173 1.372 . S
C1170 C1168 1.394 . S
C1170 C1171 1.369 . S
C1170 C1174 1.531 . S
C1171 C1170 1.369 . S
C1171 C1172 1.427 . S
C1171 C1179 1.503 . S
C1172 C1171 1.427 . S
C1172 C1173 1.402 . S
C1172 C1175 1.486 1_655 S
C1173 C1169 1.372 . S
C1173 C1172 1.402 . S
C1173 H1185 0.931 1_655 S
C1174 C1170 1.531 . S
C1174 H1186 0.960 . S
C1174 H1187 0.962 . S
C1174 H1188 0.960 . S
C1175 C1172 1.486 1_455 S
C1175 H1189 0.961 . S
C1175 H1190 0.961 . S
C1175 H1191 0.961 . S
C1176 C1177 1.370 . S
C1176 C1178 1.363 . S
C1176 H1192 0.931 . S
C1177 C1176 1.370 . S
C1177 C1181 1.408 . S
C1178 C1176 1.363 . S
C1178 C1179 1.370 . S
C1178 C1182 1.524 . S
C1179 C1171 1.503 . S
C1179 C1178 1.370 . S
C1179 C1180 1.403 . S
C1180 C1179 1.403 . S
C1180 C1181 1.404 . S
C1180 C1183 1.539 . S
C1181 C1177 1.408 . S
C1181 C1180 1.404 . S
C1181 H1193 0.930 . S
C1182 C1178 1.524 . S
C1182 H1194 0.956 . S
C1182 H1195 0.954 1_655 S
C1182 H1196 0.961 . S
C1183 C1180 1.539 . S
C1183 H1197 0.958 . S
C1183 H1198 0.961 . S
C1183 H1199 0.960 . S
H1184 C1168 0.931 . S
H1185 C1173 0.931 1_455 S
H1186 C1174 0.960 . S
H1187 C1174 0.962 . S
H1188 C1174 0.960 . S
H1189 C1175 0.961 . S
H1190 C1175 0.961 . S
H1191 C1175 0.961 . S
H1192 C1176 0.931 . S
H1193 C1181 0.930 . S
H1194 C1182 0.956 . S
H1195 C1182 0.954 1_455 S
H1196 C1182 0.961 . S
H1197 C1183 0.958 . S
H1198 C1183 0.961 . S
H1199 C1183 0.960 . S
C1200 C1201 1.391 . S
C1200 C1202 1.394 . S
C1200 H1216 0.931 . S
C1201 C1200 1.391 . S
C1201 C1205 1.376 1_545 S
C1202 C1200 1.394 . S
C1202 C1203 1.369 1_545 S
C1202 C1206 1.531 . S
C1203 C1202 1.369 1_565 S
C1203 C1204 1.410 . S
C1203 C1211 1.503 . S
C1204 C1203 1.410 . S
C1204 C1205 1.392 . S
C1204 C1207 1.511 . S
C1205 C1201 1.376 1_565 S
C1205 C1204 1.392 . S
C1205 H1217 0.929 . S
C1206 C1202 1.531 . S
C1206 H1218 0.960 . S
C1206 H1219 0.962 . S
C1206 H1220 0.960 . S
C1207 C1204 1.511 . S
C1207 H1221 0.961 . S
C1207 H1222 0.961 . S
C1207 H1223 0.961 . S
C1208 C1209 1.370 . S
C1208 C1210 1.363 . S
C1208 H1224 0.931 . S
C1209 C1208 1.370 . S
C1209 C1213 1.408 . S
C1210 C1208 1.363 . S
C1210 C1211 1.370 . S
C1210 C1214 1.524 . S
C1211 C1203 1.503 . S
C1211 C1210 1.370 . S
C1211 C1212 1.403 . S
C1212 C1211 1.403 . S
C1212 C1213 1.404 . S
C1212 C1215 1.539 . S
C1213 C1209 1.408 . S
C1213 C1212 1.404 . S
C1213 H1225 0.930 . S
C1214 C1210 1.524 . S
C1214 H1226 0.956 . S
C1214 H1227 0.961 . S
C1214 H1228 0.961 . S
C1215 C1212 1.539 . S
C1215 H1229 0.958 1_565 S
C1215 H1230 0.961 . S
C1215 H1231 0.960 . S
H1216 C1200 0.931 . S
H1217 C1205 0.929 . S
H1218 C1206 0.960 . S
H1219 C1206 0.962 . S
H1220 C1206 0.960 . S
H1221 C1207 0.961 . S
H1222 C1207 0.961 . S
H1223 C1207 0.961 . S
H1224 C1208 0.931 . S
H1225 C1213 0.930 . S
H1226 C1214 0.956 . S
H1227 C1214 0.961 . S
H1228 C1214 0.961 . S
H1229 C1215 0.958 1_545 S
H1230 C1215 0.961 . S
H1231 C1215 0.960 . S
C1232 C1233 1.391 . S
C1232 C1234 1.394 . S
C1232 H1248 0.931 . S
C1233 C1232 1.391 . S
C1233 C1237 1.376 . S
C1234 C1232 1.394 . S
C1234 C1235 1.369 . S
C1234 C1238 1.531 . S
C1235 C1234 1.369 . S
C1235 C1236 1.410 . S
C1235 C1243 1.503 . S
C1236 C1235 1.410 . S
C1236 C1237 1.392 . S
C1236 C1239 1.511 . S
C1237 C1233 1.376 . S
C1237 C1236 1.392 . S
C1237 H1249 0.929 . S
C1238 C1234 1.531 . S
C1238 H1250 0.960 . S
C1238 H1251 0.962 . S
C1238 H1252 0.960 . S
C1239 C1236 1.511 . S
C1239 H1253 0.961 . S
C1239 H1254 0.961 . S
C1239 H1255 0.961 . S
C1240 C1241 1.370 . S
C1240 C1242 1.363 . S
C1240 H1256 0.931 . S
C1241 C1240 1.370 . S
C1241 C1245 1.408 . S
C1242 C1240 1.363 . S
C1242 C1243 1.370 . S
C1242 C1246 1.524 . S
C1243 C1235 1.503 . S
C1243 C1242 1.370 . S
C1243 C1244 1.403 . S
C1244 C1243 1.403 . S
C1244 C1245 1.404 . S
C1244 C1247 1.539 . S
C1245 C1241 1.408 . S
C1245 C1244 1.404 . S
C1245 H1257 0.930 . S
C1246 C1242 1.524 . S
C1246 H1258 0.956 . S
C1246 H1259 0.961 . S
C1246 H1260 0.961 . S
C1247 C1244 1.539 . S
C1247 H1261 0.958 . S
C1247 H1262 0.961 . S
C1247 H1263 0.960 . S
H1248 C1232 0.931 . S
H1249 C1237 0.929 . S
H1250 C1238 0.960 . S
H1251 C1238 0.962 . S
H1252 C1238 0.960 . S
H1253 C1239 0.961 . S
H1254 C1239 0.961 . S
H1255 C1239 0.961 . S
H1256 C1240 0.931 . S
H1257 C1245 0.930 . S
H1258 C1246 0.956 . S
H1259 C1246 0.961 . S
H1260 C1246 0.961 . S
H1261 C1247 0.958 . S
H1262 C1247 0.961 . S
H1263 C1247 0.960 . S
C1264 C1265 1.391 . S
C1264 C1266 1.394 . S
C1264 H1280 0.931 . S
C1265 C1264 1.391 . S
C1265 C1269 1.376 . S
C1266 C1264 1.394 . S
C1266 C1267 1.369 . S
C1266 C1270 1.531 . S
C1267 C1266 1.369 . S
C1267 C1268 1.410 . S
C1267 C1275 1.503 . S
C1268 C1267 1.410 . S
C1268 C1269 1.392 . S
C1268 C1271 1.511 . S
C1269 C1265 1.376 . S
C1269 C1268 1.392 . S
C1269 H1281 0.929 . S
C1270 C1266 1.531 . S
C1270 H1282 0.960 . S
C1270 H1283 0.962 . S
C1270 H1284 0.960 . S
C1271 C1268 1.511 . S
C1271 H1285 0.961 . S
C1271 H1286 0.961 . S
C1271 H1287 0.961 . S
C1272 C1273 1.370 . S
C1272 C1274 1.363 . S
C1272 H1288 0.931 . S
C1273 C1272 1.370 . S
C1273 C1277 1.408 . S
C1274 C1272 1.363 . S
C1274 C1275 1.370 . S
C1274 C1278 1.524 . S
C1275 C1267 1.503 . S
C1275 C1274 1.370 . S
C1275 C1276 1.403 . S
C1276 C1275 1.403 . S
C1276 C1277 1.404 . S
C1276 C1279 1.539 . S
C1277 C1273 1.408 . S
C1277 C1276 1.404 . S
C1277 H1289 0.930 . S
C1278 C1274 1.524 . S
C1278 H1290 0.956 . S
C1278 H1291 0.961 . S
C1278 H1292 0.961 . S
C1279 C1276 1.539 . S
C1279 H1293 0.958 . S
C1279 H1294 0.961 . S
C1279 H1295 0.960 . S
H1280 C1264 0.931 . S
H1281 C1269 0.929 . S
H1282 C1270 0.960 . S
H1283 C1270 0.962 . S
H1284 C1270 0.960 . S
H1285 C1271 0.961 . S
H1286 C1271 0.961 . S
H1287 C1271 0.961 . S
H1288 C1272 0.931 . S
H1289 C1277 0.930 . S
H1290 C1278 0.956 . S
H1291 C1278 0.961 . S
H1292 C1278 0.961 . S
H1293 C1279 0.958 . S
H1294 C1279 0.961 . S
H1295 C1279 0.960 . S
C529 C13 2.201 . S
C537 C147 2.134 . S
C561 C27 1.385 . S
C569 C221 1.368 . S
C601 C271 1.770 . S
C593 C29 1.837 . S
C633 C357 1.330 . S
C625 C54 1.330 . S
C665 C449 1.885 . S
C657 C69 1.873 . S
C697 C493 1.844 . S
C689 C83 1.893 . S
C721 C15 1.306 . S
C729 C295 1.224 . S
C753 C41 2.481 . S
C761 C375 2.459 . S
C793 C431 1.412 . S
C785 C42 1.423 . S
C825 C517 1.485 . S
C817 C57 1.512 . S
C849 C71 2.155 . S
C857 C123 2.068 . S
C889 C197 1.861 1_455 S
C881 C1 1.884 . S
C921 C369 1.918 1_455 S
C913 C12 2.122 . S
C945 C26 2.213 . S
C953 C419 2.029 . S
C985 C523 2.297 . S
C977 C28 2.399 . S
C1009 C55 1.481 . S
C1017 C135 1.433 . S
C1041 C68 2.000 . S
C1049 C209 1.926 . S
C1073 C82 2.405 . S
C1081 C301 2.321 . S
C1105 C14 1.988 . S
C1113 C505 1.898 . S
C1145 C153 2.159 . S
C1137 C40 2.186 . S
C1169 C43 2.397 . S
C1177 C227 2.281 . S
C1201 C56 1.832 . S
C1209 C283 1.680 . S
C1233 C70 1.703 . S
C1241 C345 1.523 . S
C1265 C0 2.180 . S
C1273 C443 1.996 . S
