# Generated by pormake.
# Topology zzz, (3,6)-cn, num edge types: 1
# Building blocks:
#     Node 0, Type 0, BuildingBlock: QEWDON_clean_linker_0, # of connection points: 3
#     Node 1, Type 0, BuildingBlock: QEWDON_clean_linker_0, # of connection points: 3
#     Node 2, Type 0, BuildingBlock: QEWDON_clean_linker_0, # of connection points: 3
#     Node 3, Type 0, BuildingBlock: QEWDON_clean_linker_0, # of connection points: 3
#     Node 4, Type 0, BuildingBlock: QEWDON_clean_linker_0, # of connection points: 3
#     Node 5, Type 0, BuildingBlock: QEWDON_clean_linker_0, # of connection points: 3
#     Node 6, Type 0, BuildingBlock: QEWDON_clean_linker_0, # of connection points: 3
#     Node 7, Type 0, BuildingBlock: QEWDON_clean_linker_0, # of connection points: 3
#     Node 8, Type 1, BuildingBlock: JUFBIX_clean_sbu_0, # of connection points: 6
#     Node 9, Type 1, BuildingBlock: JUFBIX_clean_sbu_0, # of connection points: 6
#     Node 10, Type 1, BuildingBlock: JUFBIX_clean_sbu_0, # of connection points: 6
#     Node 11, Type 1, BuildingBlock: JUFBIX_clean_sbu_0, # of connection points: 6
#     Edge 12, Type (0, 1), BuildingBlock: XIVTED_clean_linker_0, # of connection points: 2
#     Edge 13, Type (0, 1), BuildingBlock: XIVTED_clean_linker_0, # of connection points: 2
#     Edge 14, Type (0, 1), BuildingBlock: XIVTED_clean_linker_0, # of connection points: 2
#     Edge 15, Type (0, 1), BuildingBlock: XIVTED_clean_linker_0, # of connection points: 2
#     Edge 16, Type (0, 1), BuildingBlock: XIVTED_clean_linker_0, # of connection points: 2
#     Edge 17, Type (0, 1), BuildingBlock: XIVTED_clean_linker_0, # of connection points: 2
#     Edge 18, Type (0, 1), BuildingBlock: XIVTED_clean_linker_0, # of connection points: 2
#     Edge 19, Type (0, 1), BuildingBlock: XIVTED_clean_linker_0, # of connection points: 2
#     Edge 20, Type (0, 1), BuildingBlock: XIVTED_clean_linker_0, # of connection points: 2
#     Edge 21, Type (0, 1), BuildingBlock: XIVTED_clean_linker_0, # of connection points: 2
#     Edge 22, Type (0, 1), BuildingBlock: XIVTED_clean_linker_0, # of connection points: 2
#     Edge 23, Type (0, 1), BuildingBlock: XIVTED_clean_linker_0, # of connection points: 2
#     Edge 24, Type (0, 1), BuildingBlock: XIVTED_clean_linker_0, # of connection points: 2
#     Edge 25, Type (0, 1), BuildingBlock: XIVTED_clean_linker_0, # of connection points: 2
#     Edge 26, Type (0, 1), BuildingBlock: XIVTED_clean_linker_0, # of connection points: 2
#     Edge 27, Type (0, 1), BuildingBlock: XIVTED_clean_linker_0, # of connection points: 2
#     Edge 28, Type (0, 1), BuildingBlock: XIVTED_clean_linker_0, # of connection points: 2
#     Edge 29, Type (0, 1), BuildingBlock: XIVTED_clean_linker_0, # of connection points: 2
#     Edge 30, Type (0, 1), BuildingBlock: XIVTED_clean_linker_0, # of connection points: 2
#     Edge 31, Type (0, 1), BuildingBlock: XIVTED_clean_linker_0, # of connection points: 2
#     Edge 32, Type (0, 1), BuildingBlock: XIVTED_clean_linker_0, # of connection points: 2
#     Edge 33, Type (0, 1), BuildingBlock: XIVTED_clean_linker_0, # of connection points: 2
#     Edge 34, Type (0, 1), BuildingBlock: XIVTED_clean_linker_0, # of connection points: 2
#     Edge 35, Type (0, 1), BuildingBlock: XIVTED_clean_linker_0, # of connection points: 2
# Relax obj value: 0.079
# Max RMSD: 0.174
# Mean RMSD: 0.077
data_MOF--net-zzz--node1-JUFBIX_clean_sbu_0--node2-QEWDON_clean_linker_0--edge1-XIVTED_clean_linker_0
_symmetry_space_group_name_H-M    P1
_symmetry_Int_Tables_number       1
_symmetry_cell_setting            triclinic
loop_
_symmetry_equiv_pos_as_xyz
'x, y, z'
_cell_length_a     55.074003
_cell_length_b     54.967155
_cell_length_c     17.619393
_cell_angle_alpha  81.202323
_cell_angle_beta   89.74119
_cell_angle_gamma 90.765794
loop_
_atom_site_label
_atom_site_type_symbol
_atom_site_fract_x
_atom_site_fract_y
_atom_site_fract_z
_atom_type_partial_charge
H0 H 0.8048 0.5341 0.13181 0.0
C1 C 0.81365 0.5301 0.187 0.0
C2 C 0.83626 0.5185 0.1911 0.0
C3 C 0.80308 0.53733 0.25316 0.0
H4 H 0.86665 0.50686 0.26286 0.0
C5 C 0.84855 0.5145 0.26096 0.0
C6 C 0.83913 0.52256 0.32631 0.0
C7 C 0.81625 0.53359 0.32277 0.0
C8 C 0.77899 0.54979 0.24888 0.0
H9 H 0.80893 0.53923 0.37439 0.0
C10 C 0.76064 0.54384 0.19852 0.0
C11 C 0.73796 0.55569 0.1947 0.0
C12 C 0.77424 0.56799 0.29499 0.0
H13 H 0.78797 0.5738 0.33241 0.0
C14 C 0.75174 0.57931 0.29288 0.0
H15 H 0.76404 0.53011 0.16202 0.0
C16 C 0.7337 0.57316 0.24374 0.0
H17 H 0.71633 0.58211 0.24461 0.0
H18 H 0.74828 0.59305 0.3294 0.0
H19 H 0.99002 0.79 0.13813 0.0
C20 C 0.99343 0.7968 0.19171 0.0
C21 C 0.99895 0.82184 0.18999 0.0
C22 C 0.99095 0.78101 0.26277 0.0
H23 H 1.00679 0.85048 0.25695 0.0
C24 C 1.00267 0.83102 0.25864 0.0
C25 C 1.00013 0.81597 0.32946 0.0
C26 C 0.99424 0.79096 0.33181 0.0
C27 C 0.98376 0.75459 0.265 0.0
H28 H 0.99242 0.77941 0.38718 0.0
C29 C 0.99198 0.74087 0.20843 0.0
C30 C 0.98492 0.71599 0.21086 0.0
C31 C 0.96819 0.74296 0.32349 0.0
H32 H 0.9609 0.75296 0.36662 0.0
C33 C 0.96131 0.71834 0.32633 0.0
H34 H 1.00422 0.74931 0.16341 0.0
C35 C 0.9696 0.70492 0.27066 0.0
H36 H 0.96359 0.68595 0.27358 0.0
H37 H 0.94926 0.70968 0.37153 0.0
H38 H 0.74951 1.00708 0.0303 0.0
C39 C 0.74169 1.00989 0.08479 0.0
C40 C 0.71876 0.02082 0.08642 0.0
C41 C 0.75392 1.00154 0.15401 0.0
H42 H 0.69023 0.03084 0.15899 0.0
C43 C 0.70842 0.02359 0.15726 0.0
C44 C 0.71987 0.01492 0.22644 0.0
C45 C 0.74263 1.00389 0.22481 0.0
C46 C 0.77757 0.98869 0.15351 0.0
H47 H 0.7514 0.99702 0.27863 0.0
C48 C 0.79686 0.99817 0.10384 0.0
C49 C 0.81957 0.98643 0.10867 0.0
C50 C 0.7811 0.96687 0.20521 0.0
H51 H 0.76654 0.95885 0.24286 0.0
C52 C 0.80338 0.95506 0.20894 0.0
H53 H 0.79455 0.01503 0.06394 0.0
C54 C 0.82255 0.96485 0.1616 0.0
H55 H 0.83978 0.95545 0.166 0.0
H56 H 0.80585 0.93831 0.24912 0.0
H57 H 0.53116 0.73416 0.03702 0.0
C58 C 0.52737 0.72456 0.09436 0.0
C59 C 0.51657 0.70097 0.10365 0.0
C60 C 0.53464 0.73503 0.15903 0.0
H61 H 0.50515 0.66958 0.18465 0.0
C62 C 0.51254 0.6882 0.17766 0.0
C63 C 0.52039 0.69778 0.24249 0.0
C64 C 0.53151 0.72122 0.23316 0.0
C65 C 0.54797 0.75907 0.14862 0.0
H66 H 0.53795 0.72852 0.2833 0.0
C67 C 0.53934 0.77984 0.0992 0.0
C68 C 0.55301 0.80203 0.08734 0.0
C69 C 0.57018 0.76096 0.18645 0.0
H70 H 0.57739 0.74529 0.22396 0.0
C71 C 0.58369 0.78286 0.17472 0.0
H72 H 0.5222 0.77872 0.06984 0.0
C73 C 0.57527 0.80321 0.12531 0.0
H74 H 0.58604 0.82006 0.11743 0.0
H75 H 0.60083 0.78404 0.20382 0.0
H76 H 0.22792 0.53396 0.37773 0.0
C77 C 0.2183 0.52769 0.33064 0.0
C78 C 0.19411 0.51968 0.34155 0.0
C79 C 0.22977 0.5281 0.25859 0.0
H80 H 0.16219 0.50711 0.28895 0.0
C81 C 0.18122 0.51231 0.28074 0.0
C82 C 0.19179 0.51349 0.20812 0.0
C83 C 0.21613 0.52123 0.19714 0.0
C84 C 0.25561 0.53641 0.24694 0.0
H85 H 0.2243 0.52181 0.14085 0.0
C86 C 0.27292 0.53048 0.30554 0.0
C87 C 0.29733 0.5383 0.29438 0.0
C88 C 0.26317 0.55044 0.17704 0.0
H89 H 0.25035 0.55588 0.13138 0.0
C90 C 0.28734 0.55807 0.16555 0.0
H91 H 0.26758 0.51934 0.35928 0.0
C92 C 0.30433 0.55205 0.22358 0.0
H93 H 0.32287 0.5586 0.21355 0.0
H94 H 0.29288 0.56891 0.11159 0.0
H95 H 1.00484 0.24979 0.3769 0.0
C96 C 0.01221 0.24131 0.33036 0.0
C97 C 0.01236 0.21557 0.33765 0.0
C98 C 0.02055 0.2559 0.26186 0.0
H99 H 0.0215 0.18435 0.28355 0.0
C100 C 0.02128 0.20431 0.2776 0.0
C101 C 0.02973 0.21823 0.20971 0.0
C102 C 0.0294 0.24401 0.20151 0.0
C103 C 0.01909 0.28334 0.25215 0.0
H104 H 0.03615 0.2546 0.14857 0.0
C105 C 0.02258 0.29628 0.31484 0.0
C106 C 0.02059 0.32213 0.30537 0.0
C107 C 0.01356 0.2968 0.1799 0.0
H108 H 1.01007 0.28761 0.13086 0.0
C109 C 1.01183 0.32236 0.17014 0.0
H110 H 0.02724 0.28638 0.37069 0.0
C111 C 0.01528 0.33496 0.23219 0.0
H112 H 0.01327 0.35477 0.22313 0.0
H113 H 1.00746 0.33245 0.1143 0.0
H114 H 0.29131 1.01245 0.51496 0.0
C115 C 0.29873 0.0172 0.45744 0.0
C116 C 0.32193 0.02833 0.44668 0.0
C117 C 0.28594 1.01055 0.39438 0.0
H118 H 0.35002 0.04094 0.36381 0.0
C119 C 0.33166 0.03357 0.37219 0.0
C120 C 0.31965 0.0264 0.30945 0.0
C121 C 0.29678 0.01485 0.32061 0.0
C122 C 0.26289 0.99608 0.40638 0.0
H123 H 0.28778 1.00856 0.27242 0.0
C124 C 0.24249 1.00468 0.44289 0.0
C125 C 0.22047 0.991 0.44918 0.0
C126 C 0.26127 0.97337 0.37928 0.0
H127 H 0.27675 0.96623 0.35199 0.0
C128 C 0.2398 0.95954 0.38742 0.0
H129 H 0.24347 0.02229 0.46331 0.0
C130 C 0.21953 0.9683 0.42164 0.0
H131 H 0.203 0.95723 0.42671 0.0
H132 H 0.23881 0.94203 0.36655 0.0
H133 H 0.52692 0.30146 0.49917 0.0
C134 C 0.52082 0.31138 0.44487 0.0
C135 C 0.51131 0.33509 0.4423 0.0
C136 C 0.52364 0.30117 0.37658 0.0
H137 H 0.4986 0.36737 0.36998 0.0
C138 C 0.50463 0.34856 0.37183 0.0
C139 C 0.50818 0.33934 0.30316 0.0
C140 C 0.51726 0.31547 0.30581 0.0
C141 C 0.53563 0.27689 0.37744 0.0
H142 H 0.51985 0.30834 0.25236 0.0
C143 C 0.53084 0.25653 0.43565 0.0
C144 C 0.54295 0.23401 0.43521 0.0
C145 C 0.55264 0.27425 0.31949 0.0
H146 H 0.55735 0.28954 0.27529 0.0
C147 C 0.56421 0.25198 0.31816 0.0
H148 H 0.51795 0.25824 0.48111 0.0
C149 C 0.55939 0.23204 0.37514 0.0
H150 H 0.56857 0.21491 0.37193 0.0
H151 H 0.57711 0.25021 0.27285 0.0
Co152 Co 0.02688 0.02666 0.80729 0.0
C153 C 0.9766 0.01764 0.82021 0.0
Co154 Co 1.01097 1.00983 0.71223 0.0
C155 C 0.03261 0.06499 0.90021 0.0
C156 C 0.05804 0.0362 0.93156 0.0
N157 N 0.03916 0.04265 0.88477 0.0
N158 N 0.04684 0.07303 0.9538 0.0
C159 C 0.06278 0.05477 0.97408 0.0
H160 H 0.01826 0.0756 0.87 0.0
H161 H 0.06822 0.01944 0.93285 0.0
C162 C 0.06124 0.01864 0.69908 0.0
N163 N 0.9995 0.99403 0.63249 0.0
C164 C 0.99431 0.96977 0.63471 0.0
C165 C 1.00086 1.00313 0.55694 0.0
N166 N 0.99318 0.96335 0.56394 0.0
C167 C 0.99714 0.98432 0.51484 0.0
C168 C 1.01052 0.06024 0.68329 0.0
O169 O 0.05885 0.02593 0.76382 0.0
O170 O 0.04249 1.0114 0.66657 0.0
O171 O 1.0036 0.04121 0.65611 0.0
O172 O 0.02169 0.05766 0.74667 0.0
O173 O 0.9795 1.00838 0.75878 0.0
H174 H 1.00649 0.02172 0.53378 0.0
H175 H 0.9938 0.95651 0.68685 0.0
O176 O 0.99487 0.02707 0.84977 0.0
O177 O 0.03169 0.99538 0.86767 0.0
O178 O 0.01834 0.97889 0.7699 0.0
C179 C 0.02662 0.97635 0.8376 0.0
H180 H 0.07712 0.05486 0.01579 0.0
H181 H 0.99908 0.98559 0.45317 0.0
Co182 Co 0.5122 0.0219 0.8258 0.0
C183 C 0.52086 0.97178 0.81612 0.0
Co184 Co 0.52789 0.01462 0.71563 0.0
C185 C 0.4751 0.03279 0.93195 0.0
C186 C 0.50604 0.01564 0.98943 0.0
N187 N 0.49796 0.0255 0.91943 0.0
N188 N 0.46841 0.02717 0.00638 0.0
C189 C 0.48788 0.01652 0.04284 0.0
H190 H 0.46279 0.04 0.88655 0.0
H191 H 0.52327 1.00655 1e-05 0.0
C192 C 0.52006 0.06466 0.72501 0.0
N193 N 0.54211 1.01104 0.62166 0.0
C194 C 0.56532 1.00507 0.60773 0.0
C195 C 0.533 0.01944 0.55171 0.0
N196 N 0.57116 1.01011 0.53248 0.0
C197 C 0.5508 0.01896 0.49699 0.0
C198 C 0.4777 0.01462 0.71617 0.0
O199 O 0.51085 0.05684 0.79088 0.0
O200 O 0.52846 0.04926 0.68502 0.0
O201 O 0.49605 1.01285 0.67343 0.0
O202 O 0.48092 0.01775 0.78515 0.0
O203 O 0.52761 0.97992 0.74761 0.0
H204 H 0.51521 0.02732 0.54148 0.0
H205 H 0.57839 0.99923 0.65223 0.0
O206 O 0.51372 0.98696 0.85911 0.0
O207 O 0.54408 0.02614 0.86578 0.0
O208 O 0.55906 0.01669 0.75878 0.0
C209 C 0.5624 0.0224 0.82499 0.0
H210 H 0.48843 1.00861 0.10298 0.0
H211 H 0.54933 0.02602 0.43639 0.0
Co212 Co 0.53483 0.51812 0.77588 0.0
C213 C 0.51114 0.48611 0.89186 0.0
Co214 Co 0.49475 0.51831 0.76718 0.0
C215 C 0.58152 0.52292 0.84683 0.0
C216 C 0.58509 0.51159 0.73649 0.0
N217 N 0.56845 0.51778 0.78636 0.0
N218 N 0.60558 0.52007 0.83685 0.0
C219 C 0.60791 0.51285 0.76756 0.0
H220 H 0.57351 0.52825 0.89795 0.0
H221 H 0.58092 0.50642 0.68112 0.0
C222 C 0.51846 0.55041 0.65131 0.0
N223 N 0.46124 0.51853 0.75691 0.0
C224 C 0.44843 0.51901 0.69154 0.0
C225 C 0.44439 0.5183 0.81267 0.0
N226 N 0.42418 0.51915 0.704 0.0
C227 C 0.42163 0.51868 0.78044 0.0
C228 C 0.51269 0.55412 0.84657 0.0
O229 O 0.53765 0.54171 0.6845 0.0
O230 O 0.4979 0.54195 0.67679 0.0
O231 O 0.49322 0.54459 0.82524 0.0
O232 O 0.53295 0.54477 0.83298 0.0
O233 O 0.49205 0.49467 0.85791 0.0
H234 H 0.4484 0.5179 0.87289 0.0
H235 H 0.45687 0.51966 0.6357 0.0
O236 O 0.53175 0.49462 0.86699 0.0
O237 O 0.53609 0.49141 0.71845 0.0
O238 O 0.49642 0.49207 0.70935 0.0
C239 C 0.51648 0.48227 0.6965 0.0
H240 H 0.62492 0.50912 0.7408 0.0
H241 H 0.40458 0.51841 0.8113 0.0
Co242 Co 0.01587 0.53677 0.76627 0.0
C243 C 0.04732 0.51139 0.87475 0.0
Co244 Co 0.01494 0.49621 0.7737 0.0
C245 C 0.0149 0.58085 0.8343 0.0
C246 C 0.01747 0.58945 0.71198 0.0
N247 N 0.0162 0.57038 0.76991 0.0
N248 N 0.01528 0.60571 0.81935 0.0
C249 C 0.01686 0.61119 0.74215 0.0
H250 H 0.01325 0.57027 0.89118 0.0
H251 H 0.01869 0.58765 0.6518 0.0
C252 C 0.98359 0.52136 0.66483 0.0
N253 N 0.01476 0.46261 0.77008 0.0
C254 C 0.01733 0.4522 0.70596 0.0
C255 C 0.0125 0.4435 0.82763 0.0
N256 N 0.01689 0.42735 0.72078 0.0
C257 C 0.01373 0.42178 0.79747 0.0
C258 C 0.98024 0.51203 0.8647 0.0
O259 O 0.99211 0.54075 0.68683 0.0
O260 O 0.99193 0.50056 0.69358 0.0
O261 O 0.98881 0.49246 0.84555 0.0
O262 O 0.99022 0.53263 0.83898 0.0
O263 O 0.0381 0.49212 0.85408 0.0
H264 H 1.01028 0.44524 0.88759 0.0
H265 H 0.01924 0.46277 0.64913 0.0
O266 O 0.0395 0.53236 0.84529 0.0
O267 O 0.04164 0.54059 0.69303 0.0
O268 O 0.04089 0.50036 0.70221 0.0
C269 C 0.05047 0.521 0.67489 0.0
H270 H 0.01772 0.62954 0.7096 0.0
H271 H 0.0128 0.40338 0.8297 0.0
H272 H 0.17557 0.99385 0.38542 0.0
H273 H 0.10655 0.02748 0.75685 0.0
H274 H 0.2139 1.00857 0.58662 0.0
H275 H 0.07118 1.00834 0.55556 0.0
H276 H 0.1461 0.02437 0.69391 0.0
H277 H 0.13746 1.00341 0.44412 0.0
C278 C 0.17594 0.99928 0.44199 0.0
C279 C 0.19792 1.00015 0.48152 0.0
C280 C 0.12965 0.02099 0.66353 0.0
C281 C 0.15407 1.01101 0.54998 0.0
C282 C 0.10706 0.02278 0.69938 0.0
C283 C 0.08545 0.01804 0.66169 0.0
C284 C 0.13061 0.01453 0.58937 0.0
C285 C 0.08727 1.01202 0.58725 0.0
C286 C 0.15414 1.00473 0.47563 0.0
C287 C 0.19735 1.00768 0.55421 0.0
N288 N 0.10935 1.0104 0.55388 0.0
N289 N 0.17572 1.01257 0.58656 0.0
H290 H 0.57738 0.20411 0.50846 0.0
H291 H 0.48958 0.10289 0.74568 0.0
H292 H 0.49981 0.21395 0.50061 0.0
H293 H 0.55634 0.08695 0.63546 0.0
H294 H 0.49425 0.14657 0.68638 0.0
H295 H 0.57126 0.1644 0.58935 0.0
C296 C 0.55901 0.19801 0.52431 0.0
C297 C 0.53905 0.21218 0.49603 0.0
C298 C 0.50786 0.13341 0.67587 0.0
C299 C 0.53195 0.16659 0.58988 0.0
C300 C 0.50528 0.10862 0.70982 0.0
C301 C 0.52256 0.0913 0.69511 0.0
C302 C 0.52819 0.14086 0.62905 0.0
C303 C 0.54249 0.09961 0.64792 0.0
C304 C 0.55555 0.17532 0.57059 0.0
C305 C 0.51571 0.20357 0.52065 0.0
N306 N 0.54481 0.12371 0.61711 0.0
N307 N 0.51273 0.18114 0.56562 0.0
H308 H 0.34411 0.52275 0.28281 0.0
H309 H 0.3775 0.53396 0.7175 0.0
H310 H 0.29202 0.54128 0.44765 0.0
H311 H 0.42693 0.50668 0.56021 0.0
H312 H 0.34592 0.53635 0.62027 0.0
H313 H 0.37462 0.51653 0.38399 0.0
C314 C 0.33908 0.52548 0.34038 0.0
C315 C 0.3155 0.53269 0.35665 0.0
C316 C 0.36366 0.52976 0.60714 0.0
C317 C 0.35039 0.52558 0.47303 0.0
C318 C 0.38176 0.52828 0.66292 0.0
C319 C 0.40511 0.52018 0.64741 0.0
C320 C 0.36888 0.52321 0.53491 0.0
C321 C 0.40943 0.51343 0.57476 0.0
C322 C 0.35649 0.52183 0.39823 0.0
C323 C 0.30992 0.53558 0.4326 0.0
N324 N 0.39155 0.51518 0.5213 0.0
N325 N 0.32727 0.53219 0.48779 0.0
H326 H 0.0449 0.36574 0.30891 0.0
H327 H 0.99944 0.3803 0.73223 0.0
H328 H 1.00237 0.31008 0.45223 0.0
H329 H 0.04029 0.43589 0.58302 0.0
H330 H 1.00272 0.35293 0.63529 0.0
H331 H 0.04581 0.39023 0.41324 0.0
C332 C 0.03579 0.35863 0.36249 0.0
C333 C 0.02333 0.33591 0.37144 0.0
C334 C 1.01102 0.37111 0.62394 0.0
C335 C 0.02433 0.36394 0.49176 0.0
C336 C 1.00924 0.38671 0.67944 0.0
C337 C 0.01939 0.41058 0.66564 0.0
C338 C 0.02312 0.37936 0.55416 0.0
C339 C 0.03173 0.4179 0.59575 0.0
C340 C 0.03637 0.37261 0.42222 0.0
C341 C 0.01227 0.32744 0.44282 0.0
N342 N 0.03318 0.40242 0.54276 0.0
N343 N 0.01286 0.34154 0.50001 0.0
H344 H 0.82399 0.99426 0.9514 0.0
H345 H 0.96555 0.03039 0.96045 0.0
H346 H 0.86349 1.00041 0.15824 0.0
H347 H 0.9325 1.00285 0.76818 0.0
H348 H 0.92629 0.02674 0.0265 0.0
H349 H 0.86156 1.00482 0.87629 0.0
C350 C 0.84046 0.99833 0.98066 0.0
C351 C 0.84074 0.99648 0.06094 0.0
C352 C 0.92758 0.02159 0.9697 0.0
C353 C 0.8836 1.00839 0.97609 0.0
C354 C 0.95002 0.02371 0.9318 0.0
C355 C 0.95245 0.01674 0.85874 0.0
C356 C 0.90723 1.0126 0.93435 0.0
C357 C 0.93155 1.00828 0.82463 0.0
C358 C 0.8619 1.00413 0.93803 0.0
C359 C 0.86258 1.00161 0.0964 0.0
N360 N 0.90985 1.0064 0.86274 0.0
N361 N 0.8831 1.00727 0.05386 0.0
H362 H 0.5107 0.82706 0.09786 0.0
H363 H 0.54625 0.93621 0.75734 0.0
H364 H 0.57643 0.82818 0.96378 0.0
H365 H 0.49947 0.94664 0.94648 0.0
H366 H 0.5514 0.89316 0.81555 0.0
H367 H 0.50019 0.86745 0.02536 0.0
C368 C 0.52263 0.8356 0.05208 0.0
C369 C 0.54445 0.82436 0.03668 0.0
C370 C 0.53986 0.90485 0.84394 0.0
C371 C 0.53265 0.87037 0.9539 0.0
C372 C 0.53683 0.9294 0.81061 0.0
C373 C 0.52251 0.94515 0.84727 0.0
C374 C 0.52823 0.89579 0.91391 0.0
C375 C 0.51081 0.93524 0.91644 0.0
C376 C 0.51675 0.85868 0.01125 0.0
C377 C 0.55946 0.8363 0.97746 0.0
N378 N 0.51392 0.91123 0.9475 0.0
N379 N 0.55331 0.85863 0.93831 0.0
H380 H 0.70525 0.58766 0.11715 0.0
H381 H 0.64725 0.49452 0.8635 0.0
H382 H 0.72674 0.51149 0.14446 0.0
H383 H 0.6078 0.55551 0.92776 0.0
H384 H 0.68009 0.50269 0.95064 0.0
H385 H 0.67288 0.57843 0.03194 0.0
C386 C 0.70314 0.56892 0.10601 0.0
C387 C 0.71876 0.55028 0.13952 0.0
C388 C 0.66419 0.51421 0.94573 0.0
C389 C 0.68191 0.53986 0.03917 0.0
C390 C 0.64556 0.50965 0.89584 0.0
C391 C 0.62481 0.52436 0.88862 0.0
C392 C 0.66226 0.53394 0.98732 0.0
C393 C 0.6234 0.54362 0.93225 0.0
C394 C 0.68467 0.56375 0.05678 0.0
C395 C 0.71543 0.52658 0.11986 0.0
N396 N 0.64196 0.54799 0.97921 0.0
N397 N 0.69742 0.52207 0.07086 0.0
H398 H 0.98609 0.7299 0.05418 0.0
H399 H 0.02661 0.59683 0.97123 0.0
H400 H 1.00179 0.66884 0.23083 0.0
H401 H 1.00046 0.65347 0.7947 0.0
H402 H 0.02171 0.62465 0.06506 0.0
H403 H 0.99584 0.70406 0.95652 0.0
C404 C 0.99189 0.71117 0.0724 0.0
C405 C 0.99295 0.70146 0.15081 0.0
C406 C 0.01708 0.63104 0.00575 0.0
C407 C 1.00396 0.67176 0.03951 0.0
C408 C 0.01974 0.61506 0.95198 0.0
C409 C 0.01367 0.62259 0.87465 0.0
C410 C 1.00833 0.65489 0.98248 0.0
C411 C 1.00547 0.64679 0.85336 0.0
C412 C 0.99728 0.69638 0.01667 0.0
C413 C 1.00037 0.67699 0.17109 0.0
N414 N 1.00294 0.66201 0.90698 0.0
N415 N 1.0055 0.66301 0.11594 0.0
H416 H 0.03154 0.21042 0.48151 0.0
H417 H 0.98226 0.07326 0.55647 0.0
H418 H 0.97482 0.18291 0.34862 0.0
H419 H 0.02751 0.10413 0.71826 0.0
H420 H 0.97601 0.11468 0.48735 0.0
H421 H 0.02617 0.17396 0.57973 0.0
C422 C 0.01729 0.19716 0.47473 0.0
C423 C 1.00368 0.19942 0.40719 0.0
C424 C 0.98711 0.11244 0.53845 0.0
C425 C 0.99803 0.15746 0.51684 0.0
C426 C 0.99082 0.08876 0.57757 0.0
C427 C 1.00571 0.0852 0.64248 0.0
C428 C 0.99865 0.1327 0.5638 0.0
C429 C 0.01609 0.106 0.6679 0.0
C430 C 0.0144 0.17622 0.53017 0.0
C431 C 0.98569 0.18164 0.4001 0.0
N432 N 0.01262 0.12883 0.62793 0.0
N433 N 0.98372 0.16114 0.45348 0.0
H434 H 0.35165 0.06709 0.46586 0.0
H435 H 0.43557 0.9985 0.79111 0.0
H436 H 0.33133 0.99361 0.57194 0.0
H437 H 0.46341 0.03398 0.57212 0.0
H438 H 0.39394 1.00391 0.74103 0.0
H439 H 0.38908 0.06396 0.5409 0.0
C440 C 0.35465 0.05064 0.50699 0.0
C441 C 0.33861 0.03037 0.51148 0.0
C442 C 0.40925 1.01042 0.70431 0.0
C443 C 0.38118 0.02684 0.59738 0.0
C444 C 0.43289 1.00727 0.73243 0.0
C445 C 0.45287 0.01555 0.68513 0.0
C446 C 0.40571 0.02275 0.62963 0.0
C447 C 0.44851 0.02701 0.60993 0.0
C448 C 0.37607 0.04881 0.54904 0.0
C449 C 0.34323 1.00962 0.56646 0.0
N450 N 0.42535 0.03055 0.58474 0.0
N451 N 0.36436 1.0082 0.60668 0.0
H452 H 0.47266 0.35236 0.51278 0.0
H453 H 0.55551 0.45384 0.67092 0.0
H454 H 0.55077 0.35005 0.51584 0.0
H455 H 0.4774 0.4567 0.65307 0.0
H456 H 0.55436 0.41336 0.6289 0.0
H457 H 0.47408 0.3867 0.58597 0.0
C458 C 0.49007 0.35851 0.53176 0.0
C459 C 0.51161 0.34836 0.50897 0.0
C460 C 0.53749 0.42286 0.63433 0.0
C461 C 0.51355 0.38838 0.58914 0.0
C462 C 0.53815 0.44607 0.65763 0.0
C463 C 0.51654 0.45883 0.66485 0.0
C464 C 0.51506 0.41231 0.61836 0.0
C465 C 0.49455 0.44769 0.64776 0.0
C466 C 0.49094 0.37837 0.57237 0.0
C467 C 0.53377 0.35726 0.53332 0.0
N468 N 0.4944 0.42514 0.62531 0.0
N469 N 0.53422 0.3771 0.57097 0.0
H470 H 0.17968 0.56045 0.39874 0.0
H471 H 0.07421 0.48179 0.63451 0.0
H472 H 0.17622 0.48122 0.44117 0.0
H473 H 0.07911 0.56099 0.61543 0.0
H474 H 0.1133 0.48175 0.57074 0.0
H475 H 0.14594 0.56163 0.48969 0.0
C476 C 0.17243 0.54334 0.42978 0.0
C477 C 0.18066 0.5207 0.41327 0.0
C478 C 0.10594 0.49919 0.58045 0.0
C479 C 0.14172 0.52181 0.51426 0.0
C480 C 0.08343 0.49926 0.61639 0.0
C481 C 0.07323 0.52147 0.62993 0.0
C482 C 0.11844 0.52151 0.557 0.0
C483 C 0.08621 0.54347 0.60554 0.0
C484 C 0.15298 0.54399 0.48069 0.0
C485 C 0.17039 0.499 0.45309 0.0
N486 N 0.10815 0.54295 0.56988 0.0
N487 N 0.15122 0.50009 0.50095 0.0
H488 H 0.96909 0.86015 0.15341 0.0
H489 H 0.03158 0.93202 0.78681 0.0
H490 H 0.03105 0.82512 0.06884 0.0
H491 H 0.02038 0.96454 0.99196 0.0
H492 H 0.02406 0.89099 0.86224 0.0
H493 H 0.97776 0.89704 0.06036 0.0
C494 C 0.98402 0.85998 0.11318 0.0
C495 C 0.99948 0.83976 0.11861 0.0
C496 C 0.02364 0.90717 0.8904 0.0
C497 C 1.00956 0.88177 0.01337 0.0
C498 C 0.02797 0.93047 0.84788 0.0
C499 C 0.02667 0.95162 0.88355 0.0
C500 C 0.0172 0.90533 0.96802 0.0
C501 C 0.02176 0.94871 0.96248 0.0
C502 C 0.9891 0.88105 0.06107 0.0
C503 C 0.01871 0.8404 0.06579 0.0
N504 N 0.01674 0.926 0.00183 0.0
N505 N 0.02344 0.86133 0.01533 0.0
H506 H 0.70707 0.99028 0.98276 0.0
H507 H 0.57863 0.04876 0.93516 0.0
H508 H 0.69334 0.06257 0.03837 0.0
H509 H 0.60325 1.00145 0.7772 0.0
H510 H 0.62058 0.05248 0.97844 0.0
H511 H 0.67015 0.99323 0.90469 0.0
C512 C 0.69685 1.00717 0.97599 0.0
C513 C 0.70306 0.02608 0.01784 0.0
C514 C 0.61679 0.04147 0.93379 0.0
C515 C 0.66042 0.02908 0.93198 0.0
C516 C 0.59285 0.03915 0.90974 0.0
C517 C 0.58747 0.02472 0.85283 0.0
C518 C 0.63536 0.02882 0.90193 0.0
C519 C 0.60663 1.01279 0.82124 0.0
C520 C 0.67561 1.00871 0.93233 0.0
C521 C 0.68896 0.04745 0.00776 0.0
N522 N 0.6297 0.01484 0.84693 0.0
N523 N 0.66793 0.0481 0.96767 0.0
H524 H 0.55096 0.69089 0.00223 0.0
H525 H 0.47274 0.57823 0.88872 0.0
H526 H 0.47556 0.67776 0.06337 0.0
H527 H 0.55097 0.5837 0.87437 0.0
H528 H 0.47195 0.61841 0.93222 0.0
H529 H 0.54924 0.65662 0.92834 0.0
C530 C 0.53379 0.6814 -0.00253 0.0
C531 C 0.51338 0.68705 0.03888 0.0
C532 C 0.48928 0.6108 0.91947 0.0
C533 C 0.51146 0.6474 0.95707 0.0
C534 C 0.48976 0.58779 0.89516 0.0
C535 C 0.51197 0.57744 0.87867 0.0
C536 C 0.51114 0.62366 0.92679 0.0
C537 C 0.53343 0.59082 0.88725 0.0
C538 C 0.53291 0.66158 0.95648 0.0
C539 C 0.49168 0.67389 0.03212 0.0
N540 N 0.53247 0.61322 0.91069 0.0
N541 N 0.49136 0.65443 0.993 0.0
H542 H 0.8565 0.47562 0.1637 0.0
H543 H 0.9538 0.55142 0.89074 0.0
H544 H 0.84801 0.55174 0.06544 0.0
H545 H 0.95356 0.47193 0.93445 0.0
H546 H 0.9143 0.55112 0.95267 0.0
H547 H 0.88989 0.47247 0.07363 0.0
C548 C 0.86114 0.4914 0.1211 0.0
C549 C 0.84965 0.514 0.12192 0.0
C550 C 0.92277 0.5337 0.94855 0.0
C551 C 0.88824 0.51084 0.02108 0.0
C552 C 0.94553 0.53384 0.91393 0.0
C553 C 0.95716 0.51164 0.90801 0.0
C554 C 0.91155 0.51121 0.9786 0.0
C555 C 0.94534 0.48947 0.93837 0.0
C556 C 0.88032 0.48968 0.07029 0.0
C557 C 0.85637 0.53398 0.06632 0.0
N558 N 0.92321 0.48982 0.97296 0.0
N559 N 0.87559 0.53208 0.01914 0.0
H560 H 0.072 0.19406 0.19998 0.0
H561 H 1.00929 0.10529 0.94122 0.0
H562 H 1.00376 0.20956 0.08586 0.0
H563 H 0.08267 0.09573 0.02506 0.0
H564 H 1.0084 0.14517 0.9848 0.0
H565 H 0.07844 0.16064 0.12502 0.0
C566 C 0.05887 0.191 0.15669 0.0
C567 C 0.03752 0.20471 0.14792 0.0
C568 C 0.02478 0.13443 0.99314 0.0
C569 C 0.04406 0.16583 0.06485 0.0
C570 C 0.02534 0.11154 0.96812 0.0
C571 C 0.04607 0.0968 0.97955 0.0
C572 C 0.045 0.14273 0.03067 0.0
C573 C 0.06611 0.10605 0.01599 0.0
C574 C 0.06235 0.17173 0.11466 0.0
C575 C 0.02064 0.19962 0.09305 0.0
N576 N 0.065 0.12829 0.04062 0.0
N577 N 0.02407 0.18031 0.05441 0.0
H578 H 0.33395 0.98735 0.24376 0.0
H579 H 0.43571 0.06381 0.978 0.0
H580 H 0.33931 0.06646 0.21749 0.0
H581 H 0.44567 0.99086 0.1022 0.0
H582 H 0.39443 0.06387 0.03308 0.0
H583 H 0.36828 0.98728 0.15462 0.0
C584 C 0.3417 1.00476 0.2166 0.0
C585 C 0.33381 0.02695 0.23759 0.0
C586 C 0.40566 0.04783 0.04767 0.0
C587 C 0.37329 0.02699 0.13737 0.0
C588 C 0.4291 0.04781 0.01652 0.0
C589 C 0.44414 0.02748 0.03684 0.0
C590 C 0.39709 0.02708 0.0977 0.0
C591 C 0.4348 1.00708 0.08648 0.0
C592 C 0.36149 1.00469 0.16676 0.0
C593 C 0.34485 0.049 0.20223 0.0
N594 N 0.41188 1.00737 0.11509 0.0
N595 N 0.36424 0.04848 0.15438 0.0
H596 H 0.5419 0.34975 0.1884 0.0
H597 H 0.47056 0.46564 0.96893 0.0
H598 H 0.47007 0.36915 0.25432 0.0
H599 H 0.54804 0.45655 0.95234 0.0
H600 H 0.46814 0.42743 0.06097 0.0
H601 H 0.54196 0.38498 0.08473 0.0
C602 C 0.52586 0.36102 0.17961 0.0
C603 C 0.50595 0.35655 0.22994 0.0
C604 C 0.48566 0.43387 0.0373 0.0
C605 C 0.50611 0.3972 0.11282 0.0
C606 C 0.48708 0.45574 0.98508 0.0
C607 C 0.50956 0.46445 0.95325 0.0
C608 C 0.50682 0.42041 0.05707 0.0
C609 C 0.53034 0.45071 0.97588 0.0
C610 C 0.52605 0.38133 0.12121 0.0
C611 C 0.48581 0.37202 0.21681 0.0
N612 N 0.52845 0.42935 0.02603 0.0
N613 N 0.48646 0.39175 0.15988 0.0
H614 H 0.18363 0.5451 0.07633 0.0
H615 H 0.06756 0.47027 0.95806 0.0
H616 H 0.16263 0.47362 0.19663 0.0
H617 H 0.07733 0.54903 0.90099 0.0
H618 H 0.10595 0.46837 0.02893 0.0
H619 H 0.14926 0.54328 0.98939 0.0
C620 C 0.17223 0.52869 0.08276 0.0
C621 C 0.17586 0.50951 0.1436 0.0
C622 C 0.09959 0.48603 0.00089 0.0
C623 C 0.13627 0.50753 0.04608 0.0
C624 C 0.07765 0.48715 0.9609 0.0
C625 C 0.06909 0.50986 0.9241 0.0
C626 C 0.11322 0.50771 0.00293 0.0
C627 C 0.08305 0.53114 0.92905 0.0
C628 C 0.15243 0.5278 0.03401 0.0
C629 C 0.16033 0.4888 0.15036 0.0
N630 N 0.10444 0.52952 0.96734 0.0
N631 N 0.14105 0.48844 0.10265 0.0
H632 H 0.04021 0.83695 0.38173 0.0
H633 H 0.96464 0.92384 0.61818 0.0
H634 H 0.96381 0.82459 0.42748 0.0
H635 H 0.02602 0.94686 0.47119 0.0
H636 H 0.96802 0.88191 0.58468 0.0
H637 H 0.03981 0.87065 0.45768 0.0
C638 C 0.0236 0.84065 0.41086 0.0
C639 C 1.00202 0.82805 0.39861 0.0
C640 C 0.98079 0.89617 0.56038 0.0
C641 C 1.0012 0.86705 0.48303 0.0
C642 C 0.97882 0.91996 0.57918 0.0
C643 C 0.99479 0.93876 0.54605 0.0
C644 C 0.99932 0.89119 0.51008 0.0
C645 C 0.01306 0.93296 0.4965 0.0
C646 C 0.02327 0.8601 0.45309 0.0
C647 C 0.98083 0.8338 0.43629 0.0
N648 N 0.01486 0.90971 0.48018 0.0
N649 N 0.98081 0.85327 0.47583 0.0
H650 H 0.70664 0.97571 0.33463 0.0
H651 H 0.58994 0.04651 0.42802 0.0
H652 H 0.69964 0.05434 0.27726 0.0
H653 H 0.60739 0.9771 0.56429 0.0
H654 H 0.63068 0.04887 0.37246 0.0
H655 H 0.67227 0.97496 0.42455 0.0
C656 C 0.6985 0.99291 0.34334 0.0
C657 C 0.70582 0.01511 0.29827 0.0
C658 C 0.62576 0.03314 0.41485 0.0
C659 C 0.66616 0.01429 0.39826 0.0
C660 C 0.60239 0.03167 0.4458 0.0
C661 C 0.59524 1.01141 0.49985 0.0
C662 C 0.64211 0.01399 0.4369 0.0
C663 C 0.61227 0.99294 0.52236 0.0
C664 C 0.67873 0.99245 0.39393 0.0
C665 C 0.69442 0.03684 0.31069 0.0
N666 N 0.63487 0.99447 0.48991 0.0
N667 N 0.67486 0.03583 0.35823 0.0
H668 H 0.48053 0.67495 0.31391 0.0
H669 H 0.55858 0.57803 0.59576 0.0
H670 H 0.55808 0.68156 0.33664 0.0
H671 H 0.48083 0.57325 0.56988 0.0
H672 H 0.55903 0.6167 0.50547 0.0
H673 H 0.48021 0.63959 0.41647 0.0
C674 C 0.49741 0.66931 0.34221 0.0
C675 C 0.51933 0.68124 0.31727 0.0
C676 C 0.54189 0.60714 0.51949 0.0
C677 C 0.51933 0.64017 0.43294 0.0
C678 C 0.54165 0.58493 0.57051 0.0
C679 C 0.51964 0.57225 0.59029 0.0
C680 C 0.51999 0.61676 0.48801 0.0
C681 C 0.49825 0.58227 0.5563 0.0
C682 C 0.4973 0.64894 0.40013 0.0
C683 C 0.54077 0.67302 0.35498 0.0
N684 N 0.49897 0.60387 0.5071 0.0
N685 N 0.5403 0.65278 0.41033 0.0
H686 H 0.85338 0.56087 0.39892 0.0
H687 H 0.96331 0.48339 0.60346 0.0
H688 H 0.86256 0.48296 0.40279 0.0
H689 H 0.95456 0.56083 0.61256 0.0
H690 H 0.9255 0.48322 0.5331 0.0
H691 H 0.8882 0.56121 0.48543 0.0
C692 C 0.86226 0.54372 0.42002 0.0
C693 C 0.85516 0.52185 0.39385 0.0
C694 C 0.93179 0.50031 0.55021 0.0
C695 C 0.89531 0.5222 0.49039 0.0
C696 C 0.95354 0.50047 0.59003 0.0
C697 C 0.96221 0.52219 0.61386 0.0
C698 C 0.91843 0.52204 0.53364 0.0
C699 C 0.94864 0.54371 0.59484 0.0
C700 C 0.88232 0.54397 0.46843 0.0
C701 C 0.86753 0.5002 0.42161 0.0
N702 N 0.92738 0.54309 0.55587 0.0
N703 N 0.88712 0.50098 0.46761 0.0
loop_
_geom_bond_atom_site_label_1
_geom_bond_atom_site_label_2
_geom_bond_distance
_geom_bond_site_symmetry_2
_ccdc_geom_bond_type
H0 C1 0.949 . S
C1 H0 0.949 . S
C1 C2 1.395 . S
C1 C3 1.391 . S
C2 C1 1.395 . S
C2 C5 1.390 . S
C3 C1 1.391 . S
C3 C7 1.387 . S
C3 C8 1.491 . S
H4 C5 0.950 . S
C5 C2 1.390 . S
C5 H4 0.950 . S
C5 C6 1.378 . S
C6 C5 1.378 . S
C6 C7 1.409 . S
C7 C3 1.387 . S
C7 C6 1.409 . S
C7 H9 0.951 . S
C8 C3 1.491 . S
C8 C10 1.382 . S
C8 C12 1.404 . S
H9 C7 0.951 . S
C10 C8 1.382 . S
C10 C11 1.390 . S
C10 H15 0.949 . S
C11 C10 1.390 . S
C11 C16 1.399 . S
C12 C8 1.404 . S
C12 H13 0.950 . S
C12 C14 1.375 . S
H13 C12 0.950 . S
C14 C12 1.375 . S
C14 C16 1.382 . S
C14 H18 0.950 . S
H15 C10 0.949 . S
C16 C11 1.399 . S
C16 C14 1.382 . S
C16 H17 0.952 . S
H17 C16 0.952 . S
H18 C14 0.950 . S
H19 C20 0.949 . S
C20 H19 0.949 . S
C20 C21 1.395 . S
C20 C22 1.391 . S
C21 C20 1.395 . S
C21 C24 1.390 . S
C22 C20 1.391 . S
C22 C26 1.387 . S
C22 C27 1.491 . S
H23 C24 0.950 . S
C24 C21 1.390 . S
C24 H23 0.950 . S
C24 C25 1.378 . S
C25 C24 1.378 . S
C25 C26 1.409 . S
C26 C22 1.387 . S
C26 C25 1.409 . S
C26 H28 0.951 . S
C27 C22 1.491 . S
C27 C29 1.382 . S
C27 C31 1.404 . S
H28 C26 0.951 . S
C29 C27 1.382 . S
C29 C30 1.390 . S
C29 H34 0.949 . S
C30 C29 1.390 . S
C30 C35 1.399 . S
C31 C27 1.404 . S
C31 H32 0.950 . S
C31 C33 1.375 . S
H32 C31 0.950 . S
C33 C31 1.375 . S
C33 C35 1.382 . S
C33 H37 0.950 . S
H34 C29 0.949 . S
C35 C30 1.399 . S
C35 C33 1.382 . S
C35 H36 0.952 . S
H36 C35 0.952 . S
H37 C33 0.950 . S
H38 C39 0.949 . S
C39 H38 0.949 . S
C39 C40 1.399 . S
C39 C41 1.391 1_556 S
C40 C39 1.399 . S
C40 C43 1.382 1_566 S
C41 C39 1.391 1_554 S
C41 C45 1.387 . S
C41 C46 1.491 . S
H42 C43 0.950 . S
C43 C40 1.382 1_544 S
C43 H42 0.950 . S
C43 C44 1.380 1_545 S
C44 C43 1.380 1_565 S
C44 C45 1.417 . S
C45 C41 1.387 . S
C45 C44 1.417 . S
C45 H47 0.951 . S
C46 C41 1.491 . S
C46 C48 1.382 . S
C46 C50 1.404 . S
H47 C45 0.951 . S
C48 C46 1.382 . S
C48 C49 1.390 1_554 S
C48 H53 0.949 1_564 S
C49 C48 1.390 1_556 S
C49 C54 1.399 1_556 S
C50 C46 1.404 . S
C50 H51 0.950 . S
C50 C52 1.375 . S
H51 C50 0.950 . S
C52 C50 1.375 . S
C52 C54 1.382 . S
C52 H56 0.950 . S
H53 C48 0.949 1_546 S
C54 C49 1.399 1_554 S
C54 C52 1.382 . S
C54 H55 0.952 . S
H55 C54 0.952 . S
H56 C52 0.950 . S
H57 C58 0.949 . S
C58 H57 0.949 . S
C58 C59 1.395 . S
C58 C60 1.391 . S
C59 C58 1.395 . S
C59 C62 1.390 . S
C60 C58 1.391 . S
C60 C64 1.387 . S
C60 C65 1.491 . S
H61 C62 0.950 . S
C62 C59 1.390 . S
C62 H61 0.950 . S
C62 C63 1.378 . S
C63 C62 1.378 . S
C63 C64 1.409 . S
C64 C60 1.387 . S
C64 C63 1.409 . S
C64 H66 0.951 . S
C65 C60 1.491 . S
C65 C67 1.382 . S
C65 C69 1.404 . S
H66 C64 0.951 . S
C67 C65 1.382 . S
C67 C68 1.390 . S
C67 H72 0.949 . S
C68 C67 1.390 . S
C68 C73 1.399 . S
C69 C65 1.404 . S
C69 H70 0.950 . S
C69 C71 1.375 . S
H70 C69 0.950 . S
C71 C69 1.375 . S
C71 C73 1.382 . S
C71 H75 0.950 . S
H72 C67 0.949 . S
C73 C68 1.399 . S
C73 C71 1.382 . S
C73 H74 0.952 . S
H74 C73 0.952 . S
H75 C71 0.950 . S
H76 C77 0.949 . S
C77 H76 0.949 . S
C77 C78 1.395 . S
C77 C79 1.391 . S
C78 C77 1.395 . S
C78 C81 1.390 . S
C79 C77 1.391 . S
C79 C83 1.387 . S
C79 C84 1.491 . S
H80 C81 0.950 . S
C81 C78 1.390 . S
C81 H80 0.950 . S
C81 C82 1.378 . S
C82 C81 1.378 . S
C82 C83 1.409 . S
C83 C79 1.387 . S
C83 C82 1.409 . S
C83 H85 0.951 . S
C84 C79 1.491 . S
C84 C86 1.382 . S
C84 C88 1.404 . S
H85 C83 0.951 . S
C86 C84 1.382 . S
C86 C87 1.390 . S
C86 H91 0.949 . S
C87 C86 1.390 . S
C87 C92 1.399 . S
C88 C84 1.404 . S
C88 H89 0.950 . S
C88 C90 1.375 . S
H89 C88 0.950 . S
C90 C88 1.375 . S
C90 C92 1.382 . S
C90 H94 0.950 . S
H91 C86 0.949 . S
C92 C87 1.399 . S
C92 C90 1.382 . S
C92 H93 0.952 . S
H93 C92 0.952 . S
H94 C90 0.950 . S
H95 C96 0.949 . S
C96 H95 0.949 . S
C96 C97 1.395 . S
C96 C98 1.391 . S
C97 C96 1.395 . S
C97 C100 1.390 . S
C98 C96 1.391 . S
C98 C102 1.387 . S
C98 C103 1.491 . S
H99 C100 0.950 . S
C100 C97 1.390 . S
C100 H99 0.950 . S
C100 C101 1.378 . S
C101 C100 1.378 . S
C101 C102 1.409 . S
C102 C98 1.387 . S
C102 C101 1.409 . S
C102 H104 0.951 . S
C103 C98 1.491 . S
C103 C105 1.382 . S
C103 C107 1.404 . S
H104 C102 0.951 . S
C105 C103 1.382 . S
C105 C106 1.390 . S
C105 H110 0.949 . S
C106 C105 1.390 . S
C106 C111 1.399 . S
C107 C103 1.404 . S
C107 H108 0.950 . S
C107 C109 1.375 . S
H108 C107 0.950 . S
C109 C107 1.375 . S
C109 C111 1.382 . S
C109 H113 0.950 . S
H110 C105 0.949 . S
C111 C106 1.399 . S
C111 C109 1.382 . S
C111 H112 0.952 . S
H112 C111 0.952 . S
H113 C109 0.950 . S
H114 C115 0.949 . S
C115 H114 0.949 . S
C115 C116 1.395 . S
C115 C117 1.391 . S
C116 C115 1.395 . S
C116 C119 1.390 . S
C117 C115 1.391 . S
C117 C121 1.387 . S
C117 C122 1.490 1_545 S
H118 C119 0.950 . S
C119 C116 1.390 . S
C119 H118 0.950 . S
C119 C120 1.378 . S
C120 C119 1.378 . S
C120 C121 1.409 . S
C121 C117 1.387 . S
C121 C120 1.409 . S
C121 H123 0.951 . S
C122 C117 1.490 1_565 S
C122 C124 1.377 1_565 S
C122 C126 1.410 . S
H123 C121 0.951 . S
C124 C122 1.377 1_545 S
C124 C125 1.390 . S
C124 H129 0.949 . S
C125 C124 1.390 . S
C125 C130 1.399 1_545 S
C126 C122 1.410 . S
C126 H127 0.950 . S
C126 C128 1.375 . S
H127 C126 0.950 . S
C128 C126 1.375 . S
C128 C130 1.382 . S
C128 H132 0.950 . S
H129 C124 0.949 . S
C130 C125 1.399 1_565 S
C130 C128 1.382 . S
C130 H131 0.952 . S
H131 C130 0.952 . S
H132 C128 0.950 . S
H133 C134 0.949 . S
C134 H133 0.949 . S
C134 C135 1.395 . S
C134 C136 1.391 . S
C135 C134 1.395 . S
C135 C138 1.390 . S
C136 C134 1.391 . S
C136 C140 1.387 . S
C136 C141 1.491 . S
H137 C138 0.950 . S
C138 C135 1.390 . S
C138 H137 0.950 . S
C138 C139 1.378 . S
C139 C138 1.378 . S
C139 C140 1.409 . S
C140 C136 1.387 . S
C140 C139 1.409 . S
C140 H142 0.951 . S
C141 C136 1.491 . S
C141 C143 1.382 . S
C141 C145 1.404 . S
H142 C140 0.951 . S
C143 C141 1.382 . S
C143 C144 1.390 . S
C143 H148 0.949 . S
C144 C143 1.390 . S
C144 C149 1.399 . S
C145 C141 1.404 . S
C145 H146 0.950 . S
C145 C147 1.375 . S
H146 C145 0.950 . S
C147 C145 1.375 . S
C147 C149 1.382 . S
C147 H151 0.950 . S
H148 C143 0.949 . S
C149 C144 1.399 . S
C149 C147 1.382 . S
C149 H150 0.952 . S
H150 C149 0.952 . S
H151 C147 0.950 . S
Co152 N157 2.057 . S
Co152 O169 2.021 . S
Co152 O172 2.062 . S
Co152 O176 2.117 1_455 S
Co152 O177 2.020 1_545 S
C153 O173 1.259 1_545 S
C153 O176 1.258 . S
Co154 N163 2.057 1_655 S
Co154 O170 2.117 1_655 S
Co154 O171 2.020 1_665 S
Co154 O173 2.021 . S
Co154 O178 2.062 . S
C155 N157 1.316 . S
C155 N158 1.347 1_556 S
C155 H160 0.931 . S
C156 N157 1.375 1_655 S
C156 C159 1.350 1_556 S
C156 H161 0.930 . S
N157 Co152 2.057 . S
N157 C155 1.316 . S
N157 C156 1.375 1_455 S
N158 C155 1.347 1_554 S
N158 C159 1.373 1_455 S
C159 C156 1.350 1_554 S
C159 N158 1.373 1_655 S
C159 H180 0.931 . S
H160 C155 0.931 . S
H161 C156 0.930 . S
C162 O169 1.259 . S
C162 O170 1.258 1_545 S
N163 Co154 2.057 1_455 S
N163 C164 1.316 1_455 S
N163 C165 1.375 . S
C164 N163 1.316 1_655 S
C164 N166 1.347 . S
C164 H175 0.931 . S
C165 N163 1.375 . S
C165 C167 1.350 . S
C165 H174 0.930 . S
N166 C164 1.347 . S
N166 C167 1.373 1_655 S
C167 C165 1.350 . S
C167 N166 1.373 1_455 S
C167 H181 0.931 . S
C168 O171 1.256 . S
C168 O172 1.255 . S
O169 Co152 2.021 . S
O169 C162 1.259 . S
O170 Co154 2.117 1_455 S
O170 C162 1.258 1_565 S
O171 Co154 2.020 1_445 S
O171 C168 1.256 . S
O172 Co152 2.062 . S
O172 C168 1.255 . S
O173 C153 1.259 1_565 S
O173 Co154 2.021 . S
H174 C165 0.930 . S
H175 C164 0.931 . S
O176 Co152 2.117 1_655 S
O176 C153 1.258 . S
O177 Co152 2.020 1_565 S
O177 C179 1.256 . S
O178 Co154 2.062 . S
O178 C179 1.255 1_655 S
C179 O177 1.256 . S
C179 O178 1.255 1_455 S
H180 C159 0.931 . S
H181 C167 0.931 . S
Co182 N187 2.057 . S
Co182 O199 2.021 . S
Co182 O202 2.062 . S
Co182 O206 2.117 1_545 S
Co182 O207 2.020 . S
C183 O203 1.259 . S
C183 O206 1.258 . S
Co184 N193 2.058 . S
Co184 O200 2.160 . S
Co184 O201 2.018 . S
Co184 O203 1.979 1_545 S
Co184 O208 2.069 . S
C185 N187 1.316 . S
C185 N188 1.347 1_556 S
C185 H190 0.931 . S
C186 N187 1.375 1_565 S
C186 C189 1.350 1_556 S
C186 H191 0.930 . S
N187 Co182 2.057 . S
N187 C185 1.316 . S
N187 C186 1.375 1_545 S
N188 C185 1.347 1_554 S
N188 C189 1.373 1_545 S
C189 C186 1.350 1_554 S
C189 N188 1.373 1_565 S
C189 H210 0.931 . S
H190 C185 0.931 . S
H191 C186 0.930 . S
C192 O199 1.259 . S
C192 O200 1.258 . S
N193 Co184 2.058 . S
N193 C194 1.316 1_545 S
N193 C195 1.375 . S
C194 N193 1.316 1_565 S
C194 N196 1.334 1_565 S
C194 H205 0.931 . S
C195 N193 1.375 . S
C195 C197 1.350 . S
C195 H204 0.930 . S
N196 C194 1.334 1_545 S
N196 C197 1.415 . S
C197 C195 1.350 . S
C197 N196 1.415 . S
C197 H211 0.931 . S
C198 O201 1.257 . S
C198 O202 1.255 . S
O199 Co182 2.021 . S
O199 C192 1.259 . S
O200 Co184 2.160 . S
O200 C192 1.258 . S
O201 Co184 2.018 . S
O201 C198 1.257 . S
O202 Co182 2.062 . S
O202 C198 1.255 . S
O203 C183 1.259 . S
O203 Co184 1.979 1_565 S
H204 C195 0.930 . S
H205 C194 0.931 . S
O206 Co182 2.117 1_565 S
O206 C183 1.258 . S
O207 Co182 2.020 . S
O207 C209 1.256 . S
O208 Co184 2.069 . S
O208 C209 1.255 . S
C209 O207 1.256 . S
C209 O208 1.255 . S
H210 C189 0.931 . S
H211 C197 0.931 . S
Co212 N217 2.057 . S
Co212 O229 2.021 . S
Co212 O232 2.062 . S
Co212 O236 2.117 . S
Co212 O237 2.020 . S
C213 O233 1.259 . S
C213 O236 1.258 . S
Co214 N223 2.057 . S
Co214 O230 2.117 . S
Co214 O231 2.020 . S
Co214 O233 2.021 . S
Co214 O238 2.062 . S
C215 N217 1.316 . S
C215 N218 1.347 . S
C215 H220 0.931 . S
C216 N217 1.375 . S
C216 C219 1.350 . S
C216 H221 0.930 . S
N217 Co212 2.057 . S
N217 C215 1.316 . S
N217 C216 1.375 . S
N218 C215 1.347 . S
N218 C219 1.373 . S
C219 C216 1.350 . S
C219 N218 1.373 . S
C219 H240 0.931 . S
H220 C215 0.931 . S
H221 C216 0.930 . S
C222 O229 1.259 . S
C222 O230 1.258 . S
N223 Co214 2.057 . S
N223 C224 1.316 . S
N223 C225 1.375 . S
C224 N223 1.316 . S
C224 N226 1.347 . S
C224 H235 0.931 . S
C225 N223 1.375 . S
C225 C227 1.350 . S
C225 H234 0.930 . S
N226 C224 1.347 . S
N226 C227 1.373 . S
C227 C225 1.350 . S
C227 N226 1.373 . S
C227 H241 0.931 . S
C228 O231 1.256 . S
C228 O232 1.255 . S
O229 Co212 2.021 . S
O229 C222 1.259 . S
O230 Co214 2.117 . S
O230 C222 1.258 . S
O231 Co214 2.020 . S
O231 C228 1.256 . S
O232 Co212 2.062 . S
O232 C228 1.255 . S
O233 C213 1.259 . S
O233 Co214 2.021 . S
H234 C225 0.930 . S
H235 C224 0.931 . S
O236 Co212 2.117 . S
O236 C213 1.258 . S
O237 Co212 2.020 . S
O237 C239 1.256 . S
O238 Co214 2.062 . S
O238 C239 1.255 . S
C239 O237 1.256 . S
C239 O238 1.255 . S
H240 C219 0.931 . S
H241 C227 0.931 . S
Co242 N247 2.057 . S
Co242 O259 2.021 1_455 S
Co242 O262 2.062 1_455 S
Co242 O266 2.117 . S
Co242 O267 2.020 . S
C243 O263 1.259 . S
C243 O266 1.258 . S
Co244 N253 2.059 . S
Co244 O260 2.117 1_455 S
Co244 O261 2.020 1_455 S
Co244 O263 2.021 . S
Co244 O268 2.062 . S
C245 N247 1.316 1_655 S
C245 N248 1.347 1_655 S
C245 H250 0.931 . S
C246 N247 1.375 . S
C246 C249 1.350 . S
C246 H251 0.930 . S
N247 Co242 2.057 . S
N247 C245 1.316 1_455 S
N247 C246 1.375 . S
N248 C245 1.347 1_455 S
N248 C249 1.373 . S
C249 C246 1.350 . S
C249 N248 1.373 . S
C249 H270 0.931 . S
H250 C245 0.931 . S
H251 C246 0.930 . S
C252 O259 1.259 . S
C252 O260 1.258 . S
N253 Co244 2.059 . S
N253 C254 1.328 . S
N253 C255 1.363 1_455 S
C254 N253 1.328 . S
C254 N256 1.347 . S
C254 H265 0.931 . S
C255 N253 1.363 1_655 S
C255 C257 1.350 . S
C255 H264 0.930 . S
N256 C254 1.347 . S
N256 C257 1.373 1_455 S
C257 C255 1.350 . S
C257 N256 1.373 1_655 S
C257 H271 0.931 . S
C258 O261 1.256 . S
C258 O262 1.255 . S
O259 Co242 2.021 1_655 S
O259 C252 1.259 . S
O260 Co244 2.117 1_655 S
O260 C252 1.258 . S
O261 Co244 2.020 1_655 S
O261 C258 1.256 . S
O262 Co242 2.062 1_655 S
O262 C258 1.255 . S
O263 C243 1.259 . S
O263 Co244 2.021 . S
H264 C255 0.930 . S
H265 C254 0.931 . S
O266 Co242 2.117 . S
O266 C243 1.258 . S
O267 Co242 2.020 . S
O267 C269 1.256 . S
O268 Co244 2.062 . S
O268 C269 1.255 . S
C269 O267 1.256 . S
C269 O268 1.255 . S
H270 C249 0.931 . S
H271 C257 0.931 . S
H272 C278 0.930 . S
H273 C282 0.930 . S
H274 C287 0.929 . S
H275 C285 0.929 . S
H276 C280 0.929 . S
H277 C286 0.929 . S
C278 H272 0.930 . S
C278 C279 1.367 . S
C278 C286 1.378 . S
C279 C278 1.367 . S
C279 C287 1.433 . S
C280 H276 0.929 . S
C280 C282 1.378 . S
C280 C284 1.350 . S
C281 C284 1.463 . S
C281 C286 1.350 . S
C281 N289 1.427 . S
C282 H273 0.930 . S
C282 C280 1.378 . S
C282 C283 1.367 . S
C283 C282 1.367 . S
C283 C285 1.433 . S
C284 C280 1.350 . S
C284 C281 1.463 . S
C284 N288 1.427 . S
C285 H275 0.929 . S
C285 C283 1.433 . S
C285 N288 1.384 . S
C286 H277 0.929 . S
C286 C278 1.378 . S
C286 C281 1.350 . S
C287 H274 0.929 . S
C287 C279 1.433 . S
C287 N289 1.384 . S
N288 C284 1.427 . S
N288 C285 1.384 . S
N289 C281 1.427 . S
N289 C287 1.384 . S
H290 C296 0.930 . S
H291 C300 0.930 . S
H292 C305 0.929 . S
H293 C303 0.929 . S
H294 C298 0.929 . S
H295 C304 0.929 . S
C296 H290 0.930 . S
C296 C297 1.367 . S
C296 C304 1.378 . S
C297 C296 1.367 . S
C297 C305 1.433 . S
C298 H294 0.929 . S
C298 C300 1.378 . S
C298 C302 1.350 . S
C299 C302 1.463 . S
C299 C304 1.350 . S
C299 N307 1.427 . S
C300 H291 0.930 . S
C300 C298 1.378 . S
C300 C301 1.367 . S
C301 C300 1.367 . S
C301 C303 1.433 . S
C302 C298 1.350 . S
C302 C299 1.463 . S
C302 N306 1.427 . S
C303 H293 0.929 . S
C303 C301 1.433 . S
C303 N306 1.384 . S
C304 H295 0.929 . S
C304 C296 1.378 . S
C304 C299 1.350 . S
C305 H292 0.929 . S
C305 C297 1.433 . S
C305 N307 1.384 . S
N306 C302 1.427 . S
N306 C303 1.384 . S
N307 C299 1.427 . S
N307 C305 1.384 . S
H308 C314 0.930 . S
H309 C318 0.930 . S
H310 C323 0.929 . S
H311 C321 0.929 . S
H312 C316 0.929 . S
H313 C322 0.929 . S
C314 H308 0.930 . S
C314 C315 1.367 . S
C314 C322 1.378 . S
C315 C314 1.367 . S
C315 C323 1.433 . S
C316 H312 0.929 . S
C316 C318 1.378 . S
C316 C320 1.350 . S
C317 C320 1.463 . S
C317 C322 1.350 . S
C317 N325 1.427 . S
C318 H309 0.930 . S
C318 C316 1.378 . S
C318 C319 1.367 . S
C319 C318 1.367 . S
C319 C321 1.433 . S
C320 C316 1.350 . S
C320 C317 1.463 . S
C320 N324 1.427 . S
C321 H311 0.929 . S
C321 C319 1.433 . S
C321 N324 1.384 . S
C322 H313 0.929 . S
C322 C314 1.378 . S
C322 C317 1.350 . S
C323 H310 0.929 . S
C323 C315 1.433 . S
C323 N325 1.384 . S
N324 C320 1.427 . S
N324 C321 1.384 . S
N325 C317 1.427 . S
N325 C323 1.384 . S
H326 C332 0.930 . S
H327 C336 0.930 . S
H328 C341 0.929 . S
H329 C339 0.929 . S
H330 C334 0.929 . S
H331 C340 0.929 . S
C332 H326 0.930 . S
C332 C333 1.367 . S
C332 C340 1.378 . S
C333 C332 1.367 . S
C333 C341 1.433 . S
C334 H330 0.929 . S
C334 C336 1.378 . S
C334 C338 1.350 . S
C335 C338 1.463 . S
C335 C340 1.350 . S
C335 N343 1.427 . S
C336 H327 0.930 . S
C336 C334 1.378 . S
C336 C337 1.367 . S
C337 C336 1.367 . S
C337 C339 1.433 . S
C338 C334 1.350 . S
C338 C335 1.463 . S
C338 N342 1.427 . S
C339 H329 0.929 . S
C339 C337 1.433 . S
C339 N342 1.384 . S
C340 H331 0.929 . S
C340 C332 1.378 . S
C340 C335 1.350 . S
C341 H328 0.929 . S
C341 C333 1.433 . S
C341 N343 1.384 . S
N342 C338 1.427 . S
N342 C339 1.384 . S
N343 C335 1.427 . S
N343 C341 1.384 . S
H344 C350 0.930 . S
H345 C354 0.930 . S
H346 C359 0.929 1_554 S
H347 C357 0.929 . S
H348 C352 0.929 . S
H349 C358 0.929 . S
C350 H344 0.930 . S
C350 C351 1.389 . S
C350 C358 1.378 . S
C351 C350 1.389 . S
C351 C359 1.412 1_545 S
C352 H348 0.929 . S
C352 C354 1.378 . S
C352 C356 1.350 1_565 S
C353 C356 1.463 . S
C353 C358 1.350 . S
C353 N361 1.427 1_545 S
C354 H345 0.930 . S
C354 C352 1.378 . S
C354 C355 1.367 1_565 S
C355 C354 1.367 1_545 S
C355 C357 1.433 . S
C356 C352 1.350 1_545 S
C356 C353 1.463 . S
C356 N360 1.427 . S
C357 H347 0.929 . S
C357 C355 1.433 . S
C357 N360 1.384 . S
C358 H349 0.929 . S
C358 C350 1.378 . S
C358 C353 1.350 . S
C359 H346 0.929 1_556 S
C359 C351 1.412 1_565 S
C359 N361 1.384 . S
N360 C356 1.427 . S
N360 C357 1.384 . S
N361 C353 1.427 1_565 S
N361 C359 1.384 . S
H362 C368 0.930 . S
H363 C372 0.930 . S
H364 C377 0.929 . S
H365 C375 0.929 . S
H366 C370 0.929 . S
H367 C376 0.929 1_554 S
C368 H362 0.930 . S
C368 C369 1.367 1_554 S
C368 C376 1.378 1_554 S
C369 C368 1.367 1_556 S
C369 C377 1.433 . S
C370 H366 0.929 . S
C370 C372 1.378 . S
C370 C374 1.350 . S
C371 C374 1.463 . S
C371 C376 1.350 . S
C371 N379 1.427 . S
C372 H363 0.930 . S
C372 C370 1.378 . S
C372 C373 1.367 . S
C373 C372 1.367 . S
C373 C375 1.433 . S
C374 C370 1.350 . S
C374 C371 1.463 . S
C374 N378 1.427 . S
C375 H365 0.929 . S
C375 C373 1.433 . S
C375 N378 1.384 . S
C376 H367 0.929 1_556 S
C376 C368 1.378 1_556 S
C376 C371 1.350 . S
C377 H364 0.929 . S
C377 C369 1.433 . S
C377 N379 1.384 . S
N378 C374 1.427 . S
N378 C375 1.384 . S
N379 C371 1.427 . S
N379 C377 1.384 . S
H380 C386 0.930 . S
H381 C390 0.930 . S
H382 C395 0.929 . S
H383 C393 0.929 . S
H384 C388 0.929 . S
H385 C394 0.929 1_556 S
C386 H380 0.930 . S
C386 C387 1.367 . S
C386 C394 1.378 . S
C387 C386 1.367 . S
C387 C395 1.433 . S
C388 H384 0.929 . S
C388 C390 1.378 . S
C388 C392 1.350 . S
C389 C392 1.463 . S
C389 C394 1.350 1_556 S
C389 N397 1.427 1_556 S
C390 H381 0.930 . S
C390 C388 1.378 . S
C390 C391 1.367 . S
C391 C390 1.367 . S
C391 C393 1.433 . S
C392 C388 1.350 . S
C392 C389 1.463 . S
C392 N396 1.427 . S
C393 H383 0.929 . S
C393 C391 1.433 . S
C393 N396 1.384 . S
C394 H385 0.929 1_554 S
C394 C386 1.378 . S
C394 C389 1.350 1_554 S
C395 H382 0.929 . S
C395 C387 1.433 . S
C395 N397 1.384 . S
N396 C392 1.427 . S
N396 C393 1.384 . S
N397 C389 1.427 1_554 S
N397 C395 1.384 . S
H398 C404 0.930 . S
H399 C408 0.930 . S
H400 C413 0.929 . S
H401 C411 0.928 . S
H402 C406 0.925 1_554 S
H403 C412 0.929 . S
C404 H398 0.930 . S
C404 C405 1.367 1_556 S
C404 C412 1.378 . S
C405 C404 1.367 1_554 S
C405 C413 1.433 . S
C406 H402 0.925 1_556 S
C406 C408 1.378 . S
C406 C410 1.350 . S
C407 C410 1.463 . S
C407 C412 1.350 . S
C407 N415 1.427 1_556 S
C408 H399 0.930 . S
C408 C406 1.378 . S
C408 C409 1.367 . S
C409 C408 1.367 . S
C409 C411 1.433 . S
C410 C406 1.350 . S
C410 C407 1.463 . S
C410 N414 1.427 . S
C411 H401 0.928 . S
C411 C409 1.433 . S
C411 N414 1.384 . S
C412 H403 0.929 . S
C412 C404 1.378 . S
C412 C407 1.350 . S
C413 H400 0.929 . S
C413 C405 1.433 . S
C413 N415 1.384 . S
N414 C410 1.427 . S
N414 C411 1.384 . S
N415 C407 1.427 1_554 S
N415 C413 1.384 . S
H416 C422 0.930 . S
H417 C426 0.926 1_655 S
H418 C431 0.929 . S
H419 C429 0.929 . S
H420 C424 0.929 . S
H421 C430 0.929 . S
C422 H416 0.930 . S
C422 C423 1.367 . S
C422 C430 1.378 . S
C423 C422 1.367 . S
C423 C431 1.433 . S
C424 H420 0.929 . S
C424 C426 1.378 . S
C424 C428 1.350 . S
C425 C428 1.463 . S
C425 C430 1.350 . S
C425 N433 1.427 . S
C426 H417 0.926 1_455 S
C426 C424 1.378 . S
C426 C427 1.367 . S
C427 C426 1.367 . S
C427 C429 1.433 . S
C428 C424 1.350 . S
C428 C425 1.463 . S
C428 N432 1.427 . S
C429 H419 0.929 . S
C429 C427 1.433 . S
C429 N432 1.384 . S
C430 H421 0.929 . S
C430 C422 1.378 . S
C430 C425 1.350 . S
C431 H418 0.929 . S
C431 C423 1.433 . S
C431 N433 1.384 . S
N432 C428 1.427 . S
N432 C429 1.384 . S
N433 C425 1.427 . S
N433 C431 1.384 . S
H434 C440 0.930 . S
H435 C444 0.930 . S
H436 C449 0.929 . S
H437 C447 0.929 . S
H438 C442 0.929 . S
H439 C448 0.929 . S
C440 H434 0.930 . S
C440 C441 1.367 . S
C440 C448 1.378 . S
C441 C440 1.367 . S
C441 C449 1.433 1_545 S
C442 H438 0.929 . S
C442 C444 1.378 . S
C442 C446 1.350 1_565 S
C443 C446 1.463 . S
C443 C448 1.350 . S
C443 N451 1.427 1_545 S
C444 H435 0.930 . S
C444 C442 1.378 . S
C444 C445 1.367 1_565 S
C445 C444 1.367 1_545 S
C445 C447 1.433 . S
C446 C442 1.350 1_545 S
C446 C443 1.463 . S
C446 N450 1.427 . S
C447 H437 0.929 . S
C447 C445 1.433 . S
C447 N450 1.384 . S
C448 H439 0.929 . S
C448 C440 1.378 . S
C448 C443 1.350 . S
C449 H436 0.929 . S
C449 C441 1.433 1_565 S
C449 N451 1.384 . S
N450 C446 1.427 . S
N450 C447 1.384 . S
N451 C443 1.427 1_565 S
N451 C449 1.384 . S
H452 C458 0.930 . S
H453 C462 0.930 . S
H454 C467 0.929 . S
H455 C465 0.929 . S
H456 C460 0.929 . S
H457 C466 0.929 . S
C458 H452 0.930 . S
C458 C459 1.367 . S
C458 C466 1.378 . S
C459 C458 1.367 . S
C459 C467 1.433 . S
C460 H456 0.929 . S
C460 C462 1.378 . S
C460 C464 1.350 . S
C461 C464 1.463 . S
C461 C466 1.350 . S
C461 N469 1.427 . S
C462 H453 0.930 . S
C462 C460 1.378 . S
C462 C463 1.367 . S
C463 C462 1.367 . S
C463 C465 1.433 . S
C464 C460 1.350 . S
C464 C461 1.463 . S
C464 N468 1.427 . S
C465 H455 0.929 . S
C465 C463 1.433 . S
C465 N468 1.384 . S
C466 H457 0.929 . S
C466 C458 1.378 . S
C466 C461 1.350 . S
C467 H454 0.929 . S
C467 C459 1.433 . S
C467 N469 1.384 . S
N468 C464 1.427 . S
N468 C465 1.384 . S
N469 C461 1.427 . S
N469 C467 1.384 . S
H470 C476 0.930 . S
H471 C480 0.930 . S
H472 C485 0.929 . S
H473 C483 0.929 . S
H474 C478 0.929 . S
H475 C484 0.929 . S
C476 H470 0.930 . S
C476 C477 1.367 . S
C476 C484 1.378 . S
C477 C476 1.367 . S
C477 C485 1.433 . S
C478 H474 0.929 . S
C478 C480 1.378 . S
C478 C482 1.350 . S
C479 C482 1.463 . S
C479 C484 1.350 . S
C479 N487 1.427 . S
C480 H471 0.930 . S
C480 C478 1.378 . S
C480 C481 1.367 . S
C481 C480 1.367 . S
C481 C483 1.433 . S
C482 C478 1.350 . S
C482 C479 1.463 . S
C482 N486 1.427 . S
C483 H473 0.929 . S
C483 C481 1.433 . S
C483 N486 1.384 . S
C484 H475 0.929 . S
C484 C476 1.378 . S
C484 C479 1.350 . S
C485 H472 0.929 . S
C485 C477 1.433 . S
C485 N487 1.384 . S
N486 C482 1.427 . S
N486 C483 1.384 . S
N487 C479 1.427 . S
N487 C485 1.384 . S
H488 C494 0.930 . S
H489 C498 0.930 . S
H490 C503 0.929 . S
H491 C501 0.929 . S
H492 C496 0.929 . S
H493 C502 0.929 . S
C494 H488 0.930 . S
C494 C495 1.367 1_556 S
C494 C502 1.378 . S
C495 C494 1.367 1_554 S
C495 C503 1.433 . S
C496 H492 0.929 . S
C496 C498 1.378 . S
C496 C500 1.350 1_455 S
C497 C500 1.463 . S
C497 C502 1.350 . S
C497 N505 1.427 1_556 S
C498 H489 0.930 . S
C498 C496 1.378 . S
C498 C499 1.367 . S
C499 C498 1.367 . S
C499 C501 1.433 1_455 S
C500 C496 1.350 1_655 S
C500 C497 1.463 . S
C500 N504 1.427 . S
C501 H491 0.929 . S
C501 C499 1.433 1_655 S
C501 N504 1.384 . S
C502 H493 0.929 . S
C502 C494 1.378 . S
C502 C497 1.350 . S
C503 H490 0.929 . S
C503 C495 1.433 . S
C503 N505 1.384 . S
N504 C500 1.427 . S
N504 C501 1.384 . S
N505 C497 1.427 1_554 S
N505 C503 1.384 . S
H506 C512 0.930 . S
H507 C516 0.930 . S
H508 C521 0.929 . S
H509 C519 0.929 . S
H510 C514 0.929 . S
H511 C520 0.929 . S
C512 H506 0.930 . S
C512 C513 1.376 . S
C512 C520 1.378 . S
C513 C512 1.376 . S
C513 C521 1.424 1_566 S
C514 H510 0.929 . S
C514 C516 1.378 . S
C514 C518 1.350 . S
C515 C518 1.463 . S
C515 C520 1.350 1_545 S
C515 N523 1.427 . S
C516 H507 0.930 . S
C516 C514 1.378 . S
C516 C517 1.367 . S
C517 C516 1.367 . S
C517 C519 1.433 1_545 S
C518 C514 1.350 . S
C518 C515 1.463 . S
C518 N522 1.427 1_545 S
C519 H509 0.929 . S
C519 C517 1.433 1_565 S
C519 N522 1.384 . S
C520 H511 0.929 . S
C520 C512 1.378 . S
C520 C515 1.350 1_565 S
C521 H508 0.929 . S
C521 C513 1.424 1_544 S
C521 N523 1.384 1_554 S
N522 C518 1.427 1_565 S
N522 C519 1.384 . S
N523 C515 1.427 . S
N523 C521 1.384 1_556 S
H524 C530 0.930 . S
H525 C534 0.930 . S
H526 C539 0.929 . S
H527 C537 0.929 . S
H528 C532 0.929 . S
H529 C538 0.929 . S
C530 H524 0.930 . S
C530 C531 1.367 . S
C530 C538 1.378 . S
C531 C530 1.367 . S
C531 C539 1.433 1_554 S
C532 H528 0.929 . S
C532 C534 1.378 . S
C532 C536 1.350 . S
C533 C536 1.463 . S
C533 C538 1.350 1_556 S
C533 N541 1.427 . S
C534 H525 0.930 . S
C534 C532 1.378 . S
C534 C535 1.367 . S
C535 C534 1.367 . S
C535 C537 1.433 . S
C536 C532 1.350 . S
C536 C533 1.463 . S
C536 N540 1.427 . S
C537 H527 0.929 . S
C537 C535 1.433 . S
C537 N540 1.384 . S
C538 H529 0.929 . S
C538 C530 1.378 . S
C538 C533 1.350 1_554 S
C539 H526 0.929 . S
C539 C531 1.433 1_556 S
C539 N541 1.384 . S
N540 C536 1.427 . S
N540 C537 1.384 . S
N541 C533 1.427 . S
N541 C539 1.384 . S
H542 C548 0.930 . S
H543 C552 0.930 . S
H544 C557 0.929 . S
H545 C555 0.929 . S
H546 C550 0.929 . S
H547 C556 0.929 . S
C548 H542 0.930 . S
C548 C549 1.367 . S
C548 C556 1.378 . S
C549 C548 1.367 . S
C549 C557 1.433 . S
C550 H546 0.929 . S
C550 C552 1.378 . S
C550 C554 1.350 . S
C551 C554 1.463 1_554 S
C551 C556 1.350 . S
C551 N559 1.427 . S
C552 H543 0.930 . S
C552 C550 1.378 . S
C552 C553 1.367 . S
C553 C552 1.367 . S
C553 C555 1.433 . S
C554 C550 1.350 . S
C554 C551 1.463 1_556 S
C554 N558 1.427 . S
C555 H545 0.929 . S
C555 C553 1.433 . S
C555 N558 1.384 . S
C556 H547 0.929 . S
C556 C548 1.378 . S
C556 C551 1.350 . S
C557 H544 0.929 . S
C557 C549 1.433 . S
C557 N559 1.384 . S
N558 C554 1.427 . S
N558 C555 1.384 . S
N559 C551 1.427 . S
N559 C557 1.384 . S
H560 C566 0.930 . S
H561 C570 0.930 . S
H562 C575 0.929 . S
H563 C573 0.929 . S
H564 C568 0.929 . S
H565 C574 0.929 . S
C566 H560 0.930 . S
C566 C567 1.367 . S
C566 C574 1.378 . S
C567 C566 1.367 . S
C567 C575 1.433 . S
C568 H564 0.929 . S
C568 C570 1.378 . S
C568 C572 1.350 . S
C569 C572 1.463 . S
C569 C574 1.350 . S
C569 N577 1.427 . S
C570 H561 0.930 . S
C570 C568 1.378 . S
C570 C571 1.367 . S
C571 C570 1.367 . S
C571 C573 1.433 . S
C572 C568 1.350 . S
C572 C569 1.463 . S
C572 N576 1.427 . S
C573 H563 0.929 . S
C573 C571 1.433 . S
C573 N576 1.384 . S
C574 H565 0.929 . S
C574 C566 1.378 . S
C574 C569 1.350 . S
C575 H562 0.929 . S
C575 C567 1.433 . S
C575 N577 1.384 . S
N576 C572 1.427 . S
N576 C573 1.384 . S
N577 C569 1.427 . S
N577 C575 1.384 . S
H578 C584 0.930 . S
H579 C588 0.930 . S
H580 C593 0.929 . S
H581 C591 0.929 . S
H582 C586 0.929 . S
H583 C592 0.929 . S
C584 H578 0.930 . S
C584 C585 1.367 . S
C584 C592 1.378 . S
C585 C584 1.367 . S
C585 C593 1.433 . S
C586 H582 0.929 . S
C586 C588 1.378 . S
C586 C590 1.350 . S
C587 C590 1.463 . S
C587 C592 1.350 . S
C587 N595 1.427 . S
C588 H579 0.930 . S
C588 C586 1.378 . S
C588 C589 1.367 . S
C589 C588 1.367 . S
C589 C591 1.433 . S
C590 C586 1.350 . S
C590 C587 1.463 . S
C590 N594 1.427 . S
C591 H581 0.929 . S
C591 C589 1.433 . S
C591 N594 1.384 . S
C592 H583 0.929 . S
C592 C584 1.378 . S
C592 C587 1.350 . S
C593 H580 0.929 . S
C593 C585 1.433 . S
C593 N595 1.384 . S
N594 C590 1.427 . S
N594 C591 1.384 . S
N595 C587 1.427 . S
N595 C593 1.384 . S
H596 C602 0.930 . S
H597 C606 0.930 . S
H598 C611 0.929 . S
H599 C609 0.929 . S
H600 C604 0.929 . S
H601 C610 0.929 . S
C602 H596 0.930 . S
C602 C603 1.367 . S
C602 C610 1.378 . S
C603 C602 1.367 . S
C603 C611 1.433 . S
C604 H600 0.929 . S
C604 C606 1.378 . S
C604 C608 1.350 . S
C605 C608 1.463 . S
C605 C610 1.350 . S
C605 N613 1.427 . S
C606 H597 0.930 . S
C606 C604 1.378 . S
C606 C607 1.367 1_554 S
C607 C606 1.367 1_556 S
C607 C609 1.433 . S
C608 C604 1.350 . S
C608 C605 1.463 . S
C608 N612 1.427 . S
C609 H599 0.929 . S
C609 C607 1.433 . S
C609 N612 1.384 1_556 S
C610 H601 0.929 . S
C610 C602 1.378 . S
C610 C605 1.350 . S
C611 H598 0.929 . S
C611 C603 1.433 . S
C611 N613 1.384 . S
N612 C608 1.427 . S
N612 C609 1.384 1_554 S
N613 C605 1.427 . S
N613 C611 1.384 . S
H614 C620 0.930 . S
H615 C624 0.930 . S
H616 C629 0.929 . S
H617 C627 0.929 . S
H618 C622 0.929 . S
H619 C628 0.929 . S
C620 H614 0.930 . S
C620 C621 1.367 . S
C620 C628 1.378 . S
C621 C620 1.367 . S
C621 C629 1.433 . S
C622 H618 0.929 . S
C622 C624 1.378 . S
C622 C626 1.350 1_556 S
C623 C626 1.463 . S
C623 C628 1.350 . S
C623 N631 1.427 . S
C624 H615 0.930 . S
C624 C622 1.378 . S
C624 C625 1.367 . S
C625 C624 1.367 . S
C625 C627 1.433 1_556 S
C626 C622 1.350 1_554 S
C626 C623 1.463 . S
C626 N630 1.427 . S
C627 H617 0.929 . S
C627 C625 1.433 1_554 S
C627 N630 1.384 . S
C628 H619 0.929 . S
C628 C620 1.378 . S
C628 C623 1.350 . S
C629 H616 0.929 . S
C629 C621 1.433 . S
C629 N631 1.384 . S
N630 C626 1.427 . S
N630 C627 1.384 . S
N631 C623 1.427 . S
N631 C629 1.384 . S
H632 C638 0.930 1_455 S
H633 C642 0.930 . S
H634 C647 0.929 . S
H635 C645 0.929 . S
H636 C640 0.929 . S
H637 C646 0.929 1_455 S
C638 H632 0.930 1_655 S
C638 C639 1.367 . S
C638 C646 1.378 . S
C639 C638 1.367 . S
C639 C647 1.433 . S
C640 H636 0.929 . S
C640 C642 1.378 . S
C640 C644 1.350 . S
C641 C644 1.463 . S
C641 C646 1.350 . S
C641 N649 1.427 . S
C642 H633 0.930 . S
C642 C640 1.378 . S
C642 C643 1.367 . S
C643 C642 1.367 . S
C643 C645 1.433 1_655 S
C644 C640 1.350 . S
C644 C641 1.463 . S
C644 N648 1.427 . S
C645 H635 0.929 . S
C645 C643 1.433 1_455 S
C645 N648 1.384 1_455 S
C646 H637 0.929 1_655 S
C646 C638 1.378 . S
C646 C641 1.350 . S
C647 H634 0.929 . S
C647 C639 1.433 . S
C647 N649 1.384 . S
N648 C644 1.427 . S
N648 C645 1.384 1_655 S
N649 C641 1.427 . S
N649 C647 1.384 . S
H650 C656 0.930 . S
H651 C660 0.930 . S
H652 C665 0.933 . S
H653 C663 0.929 . S
H654 C658 0.929 . S
H655 C664 0.929 . S
C656 H650 0.930 . S
C656 C657 1.362 . S
C656 C664 1.378 . S
C657 C656 1.362 . S
C657 C665 1.433 . S
C658 H654 0.929 . S
C658 C660 1.378 . S
C658 C662 1.350 . S
C659 C662 1.463 . S
C659 C664 1.350 . S
C659 N667 1.427 . S
C660 H651 0.930 . S
C660 C658 1.378 . S
C660 C661 1.367 . S
C661 C660 1.367 . S
C661 C663 1.433 . S
C662 C658 1.350 . S
C662 C659 1.463 . S
C662 N666 1.427 . S
C663 H653 0.929 . S
C663 C661 1.433 . S
C663 N666 1.384 . S
C664 H655 0.929 . S
C664 C656 1.378 . S
C664 C659 1.350 . S
C665 H652 0.933 . S
C665 C657 1.433 . S
C665 N667 1.381 . S
N666 C662 1.427 . S
N666 C663 1.384 . S
N667 C659 1.427 . S
N667 C665 1.381 . S
H668 C674 0.930 . S
H669 C678 0.930 . S
H670 C683 0.929 . S
H671 C681 0.929 . S
H672 C676 0.929 . S
H673 C682 0.929 . S
C674 H668 0.930 . S
C674 C675 1.367 . S
C674 C682 1.378 . S
C675 C674 1.367 . S
C675 C683 1.433 . S
C676 H672 0.929 . S
C676 C678 1.378 . S
C676 C680 1.350 . S
C677 C680 1.463 . S
C677 C682 1.350 . S
C677 N685 1.427 . S
C678 H669 0.930 . S
C678 C676 1.378 . S
C678 C679 1.367 . S
C679 C678 1.367 . S
C679 C681 1.433 . S
C680 C676 1.350 . S
C680 C677 1.463 . S
C680 N684 1.427 . S
C681 H671 0.929 . S
C681 C679 1.433 . S
C681 N684 1.384 . S
C682 H673 0.929 . S
C682 C674 1.378 . S
C682 C677 1.350 . S
C683 H670 0.929 . S
C683 C675 1.433 . S
C683 N685 1.384 . S
N684 C680 1.427 . S
N684 C681 1.384 . S
N685 C677 1.427 . S
N685 C683 1.384 . S
H686 C692 0.930 . S
H687 C696 0.930 . S
H688 C701 0.929 . S
H689 C699 0.929 . S
H690 C694 0.929 . S
H691 C700 0.929 . S
C692 H686 0.930 . S
C692 C693 1.367 . S
C692 C700 1.378 . S
C693 C692 1.367 . S
C693 C701 1.433 . S
C694 H690 0.929 . S
C694 C696 1.378 . S
C694 C698 1.350 . S
C695 C698 1.463 . S
C695 C700 1.350 . S
C695 N703 1.427 . S
C696 H687 0.930 . S
C696 C694 1.378 . S
C696 C697 1.367 . S
C697 C696 1.367 . S
C697 C699 1.433 . S
C698 C694 1.350 . S
C698 C695 1.463 . S
C698 N702 1.427 . S
C699 H689 0.929 . S
C699 C697 1.433 . S
C699 N702 1.384 . S
C700 H691 0.929 . S
C700 C692 1.378 . S
C700 C695 1.350 . S
C701 H688 0.929 . S
C701 C693 1.433 . S
C701 N703 1.384 . S
N702 C698 1.427 . S
N702 C699 1.384 . S
N703 C695 1.427 . S
N703 C701 1.384 . S
C279 C125 1.597 . S
C283 C162 1.724 . S
C301 C192 1.833 . S
C297 C144 1.683 . S
C319 N226 1.386 . S
C315 C87 1.373 . S
C337 N256 1.381 . S
C333 C106 1.319 . S
C355 C153 1.723 . S
C351 C49 1.628 1_545 S
C369 C68 1.737 1_556 S
C373 C183 1.834 . S
C387 C11 1.394 . S
C391 N218 1.390 . S
C405 C30 1.404 . S
C409 N248 1.369 1_655 S
C427 C168 0.494 . S
C423 C97 0.587 . S
C445 C198 0.912 . S
C441 C116 0.876 . S
C463 C239 1.180 . S
C459 C135 1.147 . S
C477 C78 0.712 . S
C481 C269 0.706 . S
C495 C21 0.579 . S
C499 C179 0.499 . S
C517 C209 0.916 . S
C513 C40 0.897 . S
C535 C228 1.175 . S
C531 C59 1.130 . S
C549 C2 0.715 . S
C553 C258 0.706 . S
C567 C101 1.464 . S
C571 N158 1.465 . S
C585 C120 1.449 . S
C589 N188 1.446 . S
C607 C213 1.650 . S
C603 C139 1.629 . S
C625 C243 1.624 . S
C621 C82 1.592 . S
C639 C25 1.469 . S
C643 N166 1.475 . S
C661 N196 1.432 1_565 S
C657 C44 1.460 . S
C679 C222 1.650 . S
C675 C63 1.632 . S
C693 C6 1.600 . S
C697 C252 1.626 . S
