# Generated by pormake.
# Topology nom, (4,4)-cn, num edge types: 1
# Building blocks:
#     Node 0, Type 0, BuildingBlock: NAWXER_clean_linker_0, # of connection points: 4
#     Node 1, Type 0, BuildingBlock: NAWXER_clean_linker_0, # of connection points: 4
#     Node 2, Type 0, BuildingBlock: NAWXER_clean_linker_0, # of connection points: 4
#     Node 3, Type 0, BuildingBlock: NAWXER_clean_linker_0, # of connection points: 4
#     Node 4, Type 0, BuildingBlock: NAWXER_clean_linker_0, # of connection points: 4
#     Node 5, Type 0, BuildingBlock: NAWXER_clean_linker_0, # of connection points: 4
#     Node 6, Type 1, BuildingBlock: NAHDIM_clean_sbu_0, # of connection points: 4
#     Node 7, Type 1, BuildingBlock: NAHDIM_clean_sbu_0, # of connection points: 4
#     Node 8, Type 1, BuildingBlock: NAHDIM_clean_sbu_0, # of connection points: 4
#     Node 9, Type 1, BuildingBlock: NAHDIM_clean_sbu_0, # of connection points: 4
#     Node 10, Type 1, BuildingBlock: NAHDIM_clean_sbu_0, # of connection points: 4
#     Node 11, Type 1, BuildingBlock: NAHDIM_clean_sbu_0, # of connection points: 4
#     Edge 12, Type (0, 1), BuildingBlock: AJUNOK_clean_linker_0, # of connection points: 2
#     Edge 13, Type (0, 1), BuildingBlock: AJUNOK_clean_linker_0, # of connection points: 2
#     Edge 14, Type (0, 1), BuildingBlock: AJUNOK_clean_linker_0, # of connection points: 2
#     Edge 15, Type (0, 1), BuildingBlock: AJUNOK_clean_linker_0, # of connection points: 2
#     Edge 16, Type (0, 1), BuildingBlock: AJUNOK_clean_linker_0, # of connection points: 2
#     Edge 17, Type (0, 1), BuildingBlock: AJUNOK_clean_linker_0, # of connection points: 2
#     Edge 18, Type (0, 1), BuildingBlock: AJUNOK_clean_linker_0, # of connection points: 2
#     Edge 19, Type (0, 1), BuildingBlock: AJUNOK_clean_linker_0, # of connection points: 2
#     Edge 20, Type (0, 1), BuildingBlock: AJUNOK_clean_linker_0, # of connection points: 2
#     Edge 21, Type (0, 1), BuildingBlock: AJUNOK_clean_linker_0, # of connection points: 2
#     Edge 22, Type (0, 1), BuildingBlock: AJUNOK_clean_linker_0, # of connection points: 2
#     Edge 23, Type (0, 1), BuildingBlock: AJUNOK_clean_linker_0, # of connection points: 2
#     Edge 24, Type (0, 1), BuildingBlock: AJUNOK_clean_linker_0, # of connection points: 2
#     Edge 25, Type (0, 1), BuildingBlock: AJUNOK_clean_linker_0, # of connection points: 2
#     Edge 26, Type (0, 1), BuildingBlock: AJUNOK_clean_linker_0, # of connection points: 2
#     Edge 27, Type (0, 1), BuildingBlock: AJUNOK_clean_linker_0, # of connection points: 2
#     Edge 28, Type (0, 1), BuildingBlock: AJUNOK_clean_linker_0, # of connection points: 2
#     Edge 29, Type (0, 1), BuildingBlock: AJUNOK_clean_linker_0, # of connection points: 2
#     Edge 30, Type (0, 1), BuildingBlock: AJUNOK_clean_linker_0, # of connection points: 2
#     Edge 31, Type (0, 1), BuildingBlock: AJUNOK_clean_linker_0, # of connection points: 2
#     Edge 32, Type (0, 1), BuildingBlock: AJUNOK_clean_linker_0, # of connection points: 2
#     Edge 33, Type (0, 1), BuildingBlock: AJUNOK_clean_linker_0, # of connection points: 2
#     Edge 34, Type (0, 1), BuildingBlock: AJUNOK_clean_linker_0, # of connection points: 2
#     Edge 35, Type (0, 1), BuildingBlock: AJUNOK_clean_linker_0, # of connection points: 2
# Relax obj value: 0.024
# Max RMSD: 0.118
# Mean RMSD: 0.110
data_MOF--net-nom--node1-NAHDIM_clean_sbu_0--node2-NAWXER_clean_linker_0--edge1-AJUNOK_clean_linker_0
_symmetry_space_group_name_H-M    P1
_symmetry_Int_Tables_number       1
_symmetry_cell_setting            triclinic
loop_
_symmetry_equiv_pos_as_xyz
'x, y, z'
_cell_length_a     40.446022
_cell_length_b     41.78859
_cell_length_c     45.135205
_cell_angle_alpha  89.776131
_cell_angle_beta   90.790753
_cell_angle_gamma 121.08197
loop_
_atom_site_label
_atom_site_type_symbol
_atom_site_fract_x
_atom_site_fract_y
_atom_site_fract_z
_atom_type_partial_charge
C0 C 0.85977 0.4976 0.32678 0.0
C1 C 0.84329 0.47304 0.35071 0.0
C2 C 0.89653 0.50793 0.31712 0.0
C3 C 0.91725 0.49309 0.3306 0.0
C4 C 0.86376 0.45788 0.36409 0.0
C5 C 0.90054 0.46801 0.35422 0.0
C6 C 0.95784 0.5072 0.32244 0.0
C7 C 0.89417 0.44949 0.23797 0.0
C8 C 0.8986 0.47422 0.21499 0.0
C9 C 0.91665 0.4628 0.26384 0.0
C10 C 0.94441 0.50092 0.26695 0.0
C11 C 0.92606 0.51247 0.21849 0.0
C12 C 0.94904 0.5256 0.24407 0.0
C13 C 0.97065 0.51477 0.29297 0.0
C14 C 0.14498 0.5934 0.30289 0.0
C15 C 0.15262 0.62121 0.28176 0.0
C16 C 0.1072 0.56897 0.31233 0.0
C17 C 0.07671 0.57288 0.30156 0.0
C18 C 0.12186 0.62436 0.27064 0.0
C19 C 0.08449 0.60065 0.28051 0.0
C20 C 0.03607 0.54755 0.31016 0.0
C21 C 0.10038 0.59258 0.39803 0.0
C22 C 0.09461 0.56412 0.41781 0.0
C23 C 0.07768 0.58405 0.37225 0.0
C24 C 0.04933 0.54685 0.36567 0.0
C25 C 0.06603 0.52703 0.41127 0.0
C26 C 0.04359 0.51851 0.38548 0.0
C27 C 0.02332 0.53704 0.33959 0.0
H28 H 0.84439 0.50919 0.31568 0.0
H29 H 0.90914 0.52853 0.29971 0.0
H30 H 0.8517 0.4389 0.38262 0.0
H31 H 0.91618 0.45667 0.36531 0.0
H32 H 0.87416 0.41973 0.23565 0.0
H33 H 0.91326 0.44316 0.28101 0.0
H34 H 0.92997 0.53229 0.20134 0.0
H35 H 0.97044 0.55511 0.24602 0.0
H36 H 0.16815 0.59062 0.31227 0.0
H37 H 0.10193 0.54705 0.32782 0.0
H38 H 0.12659 0.64506 0.25405 0.0
H39 H 0.06149 0.60406 0.27156 0.0
H40 H 0.12166 0.6215 0.40293 0.0
H41 H 0.08179 0.60653 0.35779 0.0
H42 H 0.06097 0.50463 0.42621 0.0
H43 H 0.02154 0.48969 0.38102 0.0
N44 N 0.98466 0.5177 0.34455 0.0
N45 N 0.0091 0.5353 0.28807 0.0
C46 C 0.39021 0.87214 0.49751 0.0
C47 C 0.40121 0.85605 0.51993 0.0
C48 C 0.41461 0.90937 0.48961 0.0
C49 C 0.45101 0.93096 0.5034 0.0
C50 C 0.43704 0.87782 0.53443 0.0
C51 C 0.46174 0.91509 0.52626 0.0
C52 C 0.47662 0.97065 0.49522 0.0
C53 C 0.46677 0.90404 0.41492 0.0
C54 C 0.44629 0.90797 0.39124 0.0
C55 C 0.47897 0.92864 0.43901 0.0
C56 C 0.47076 0.95747 0.43982 0.0
C57 C 0.43939 0.93764 0.39156 0.0
C58 C 0.45166 0.96227 0.41559 0.0
C59 C 0.48252 0.98308 0.46556 0.0
C60 C 0.57961 0.15097 0.47481 0.0
C61 C 0.5555 0.16016 0.45888 0.0
C62 C 0.56654 0.11383 0.48233 0.0
C63 C 0.52918 0.08545 0.474 0.0
C64 C 0.51864 0.13145 0.44978 0.0
C65 C 0.50571 0.09444 0.45715 0.0
C66 C 0.51376 0.04617 0.48241 0.0
C67 C 0.53329 0.11159 0.56698 0.0
C68 C 0.5548 0.1057 0.58877 0.0
C69 C 0.5187 0.08836 0.54205 0.0
C70 C 0.52627 0.05943 0.53798 0.0
C71 C 0.56113 0.0759 0.58511 0.0
C72 C 0.54717 0.05316 0.55995 0.0
C73 C 0.51084 0.03394 0.51205 0.0
H74 H 0.36248 0.85598 0.48633 0.0
H75 H 0.4048 0.92132 0.47285 0.0
H76 H 0.44613 0.86585 0.55171 0.0
H77 H 0.48937 0.93138 0.53755 0.0
H78 H 0.47264 0.88151 0.41505 0.0
H79 H 0.49465 0.92502 0.45708 0.0
H80 H 0.42433 0.94168 0.37325 0.0
H81 H 0.4455 0.98461 0.41553 0.0
H82 H 0.60854 0.17247 0.48145 0.0
H83 H 0.58539 0.10729 0.49477 0.0
H84 H 0.49945 0.13771 0.43754 0.0
H85 H 0.47688 0.07284 0.45033 0.0
H86 H 0.52758 0.13408 0.56927 0.0
H87 H 0.50118 0.09285 0.5262 0.0
H88 H 0.57626 0.06964 0.60196 0.0
H89 H 0.55263 0.03049 0.55769 0.0
N90 N 0.49194 0.99655 0.51728 0.0
N91 N 0.49991 0.02029 0.46034 0.0
C92 C 0.574 0.47924 0.57477 0.0
C93 C 0.54931 0.45832 0.55121 0.0
C94 C 0.55918 0.4865 0.59995 0.0
C95 C 0.51947 0.47308 0.60185 0.0
C96 C 0.50957 0.44445 0.55329 0.0
C97 C 0.49482 0.45214 0.57827 0.0
C98 C 0.50404 0.48315 0.62733 0.0
C99 C 0.52915 0.399 0.66522 0.0
C100 C 0.55774 0.41197 0.68751 0.0
C101 C 0.51576 0.42174 0.65463 0.0
C102 C 0.53084 0.45799 0.66603 0.0
C103 C 0.57291 0.44822 0.69894 0.0
C104 C 0.55935 0.47096 0.68841 0.0
C105 C 0.51364 0.48041 0.65702 0.0
C106 C 0.4195 0.52284 0.72948 0.0
C107 C 0.44802 0.54859 0.74918 0.0
C108 C 0.42983 0.51067 0.70441 0.0
C109 C 0.46888 0.5245 0.6984 0.0
C110 C 0.48706 0.56259 0.74301 0.0
C111 C 0.49737 0.5504 0.71794 0.0
C112 C 0.48038 0.51047 0.67297 0.0
C113 C 0.42047 0.56793 0.63525 0.0
C114 C 0.38753 0.54366 0.61821 0.0
C115 C 0.44709 0.55752 0.64345 0.0
C116 C 0.44088 0.5225 0.63499 0.0
C117 C 0.38174 0.50892 0.60946 0.0
C118 C 0.4083 0.49856 0.61761 0.0
C119 C 0.46808 0.51032 0.64349 0.0
H120 H 0.60473 0.49002 0.57364 0.0
H121 H 0.57887 0.50335 0.61762 0.0
H122 H 0.49007 0.42832 0.53529 0.0
H123 H 0.46416 0.44178 0.57919 0.0
H124 H 0.51699 0.37114 0.6561 0.0
H125 H 0.49274 0.41046 0.63815 0.0
H126 H 0.59459 0.45862 0.71646 0.0
H127 H 0.57083 0.49853 0.69794 0.0
H128 H 0.3892 0.51195 0.73358 0.0
H129 H 0.40731 0.49003 0.69 0.0
H130 H 0.50954 0.58229 0.75794 0.0
H131 H 0.52765 0.56111 0.71384 0.0
H132 H 0.42539 0.59474 0.64252 0.0
H133 H 0.47242 0.57675 0.65637 0.0
H134 H 0.35674 0.48985 0.59614 0.0
H135 H 0.4031 0.47153 0.61066 0.0
N136 N 0.48088 0.49716 0.62176 0.0
N137 N 0.50226 0.49503 0.67865 0.0
C138 C 0.85962 0.36618 0.80034 0.0
C139 C 0.8435 0.37875 0.77891 0.0
C140 C 0.89753 0.38944 0.81027 0.0
C141 C 0.92003 0.42588 0.79914 0.0
C142 C 0.86623 0.41485 0.7672 0.0
C143 C 0.90428 0.4382 0.77719 0.0
C144 C 0.9607 0.44992 0.80895 0.0
C145 C 0.89661 0.44397 0.89201 0.0
C146 C 0.90187 0.4252 0.91584 0.0
C147 C 0.91817 0.45141 0.86625 0.0
C148 C 0.94527 0.44013 0.86391 0.0
C149 C 0.92773 0.41245 0.91282 0.0
C150 C 0.94959 0.42029 0.88725 0.0
C151 C 0.97232 0.45278 0.83892 0.0
C152 C 0.14425 0.55701 0.83853 0.0
C153 C 0.15496 0.53601 0.85627 0.0
C154 C 0.1063 0.54115 0.828 0.0
C155 C 0.07872 0.50394 0.83479 0.0
C156 C 0.12711 0.49911 0.86354 0.0
C157 C 0.08931 0.48326 0.85294 0.0
C158 C 0.0382 0.48655 0.82467 0.0
C159 C 0.11163 0.51567 0.74405 0.0
C160 C 0.10912 0.54167 0.72578 0.0
C161 C 0.08448 0.49686 0.76616 0.0
C162 C 0.05461 0.50407 0.7706 0.0
C163 C 0.07835 0.54775 0.72951 0.0
C164 C 0.05129 0.52904 0.7517 0.0
C165 C 0.02676 0.48594 0.79485 0.0
H166 H 0.84308 0.33809 0.80908 0.0
H167 H 0.90947 0.3786 0.82625 0.0
H168 H 0.85445 0.42506 0.75053 0.0
H169 H 0.92131 0.46596 0.76794 0.0
H170 H 0.87693 0.45416 0.89373 0.0
H171 H 0.91489 0.4674 0.84874 0.0
H172 H 0.93153 0.39691 0.93043 0.0
H173 H 0.97035 0.41134 0.88587 0.0
H174 H 0.16509 0.5858 0.83315 0.0
H175 H 0.09845 0.55802 0.81484 0.0
H176 H 0.13471 0.48239 0.87716 0.0
H177 H 0.06833 0.45464 0.85872 0.0
H178 H 0.13444 0.50969 0.74108 0.0
H179 H 0.08693 0.47684 0.77987 0.0
H180 H 0.07565 0.56749 0.71561 0.0
H181 H 0.02824 0.53472 0.75456 0.0
N182 N 0.98835 0.46733 0.78806 0.0
N183 N 0.01054 0.4703 0.84551 0.0
C184 C 0.46258 0.86722 0.98178 0.0
C185 C 0.43606 0.84992 0.95839 0.0
C186 C 0.47338 0.90318 0.99081 0.0
C187 C 0.45701 0.92224 0.97722 0.0
C188 C 0.41998 0.86894 0.9444 0.0
C189 C 0.43045 0.90492 0.95374 0.0
C190 C 0.47105 0.96157 0.98534 0.0
C191 C 0.41504 0.89921 0.06919 0.0
C192 C 0.44153 0.90451 0.09184 0.0
C193 C 0.42747 0.92145 0.04378 0.0
C194 C 0.46645 0.94959 0.04094 0.0
C195 C 0.48047 0.93247 0.08894 0.0
C196 C 0.49275 0.95512 0.06383 0.0
C197 C 0.47971 0.97458 0.01493 0.0
C198 C 0.56258 0.14263 0.00361 0.0
C199 C 0.59677 0.15122 0.01884 0.0
C200 C 0.53479 0.10548 0.99698 0.0
C201 C 0.5411 0.07666 0.00535 0.0
C202 C 0.60251 0.12225 0.02771 0.0
C203 C 0.57479 0.08527 0.02119 0.0
C204 C 0.51349 0.0373 0.99769 0.0
C205 C 0.56154 0.10078 0.91323 0.0
C206 C 0.53276 0.10115 0.89568 0.0
C207 C 0.55158 0.07534 0.93646 0.0
C208 C 0.51262 0.05014 0.94281 0.0
C209 C 0.49378 0.07526 0.90164 0.0
C210 C 0.48383 0.04979 0.9249 0.0
C211 C 0.50168 0.02452 0.96834 0.0
H212 H 0.47581 0.85327 0.99255 0.0
H213 H 0.49551 0.91643 0.00784 0.0
H214 H 0.39936 0.85597 0.92631 0.0
H215 H 0.41803 0.91932 0.94251 0.0
H216 H 0.38484 0.87781 0.07115 0.0
H217 H 0.40658 0.91713 0.0266 0.0
H218 H 0.50125 0.93709 0.10631 0.0
H219 H 0.52289 0.9768 0.06217 0.0
H220 H 0.55773 0.16464 0.99639 0.0
H221 H 0.50867 0.09932 0.98512 0.0
H222 H 0.62854 0.12825 0.03964 0.0
H223 H 0.58007 0.06337 0.02796 0.0
H224 H 0.59181 0.12015 0.90893 0.0
H225 H 0.57428 0.07559 0.94965 0.0
H226 H 0.47098 0.07523 0.88875 0.0
H227 H 0.45361 0.03047 0.92941 0.0
N228 N 0.48133 0.98705 0.96317 0.0
N229 N 0.50153 0.01189 0.01987 0.0
C230 C 0.48809 0.62473 0.16039 0.0
C231 C 0.45833 0.61302 0.1809 0.0
C232 C 0.5012 0.60106 0.15241 0.0
C233 C 0.48422 0.56489 0.1643 0.0
C234 C 0.4423 0.57749 0.19375 0.0
C235 C 0.45519 0.55355 0.1855 0.0
C236 C 0.49853 0.54003 0.15594 0.0
C237 C 0.44588 0.55236 0.07104 0.0
C238 C 0.47275 0.57228 0.04872 0.0
C239 C 0.45717 0.54146 0.09673 0.0
C240 C 0.49547 0.55011 0.10046 0.0
C241 C 0.51112 0.58117 0.05272 0.0
C242 C 0.52227 0.56994 0.07821 0.0
C243 C 0.50721 0.53633 0.12639 0.0
C244 C 0.56929 0.43321 0.13399 0.0
C245 C 0.6034 0.45459 0.11792 0.0
C246 C 0.54725 0.44859 0.14235 0.0
C247 C 0.55929 0.48566 0.13499 0.0
C248 C 0.61522 0.49162 0.11056 0.0
C249 C 0.59316 0.50688 0.1188 0.0
C250 C 0.53661 0.50267 0.14319 0.0
C251 C 0.58201 0.48054 0.22708 0.0
C252 C 0.55251 0.45446 0.24544 0.0
C253 C 0.57353 0.4972 0.20364 0.0
C254 C 0.5353 0.4877 0.19787 0.0
C255 C 0.51436 0.44549 0.23994 0.0
C256 C 0.50589 0.46219 0.21648 0.0
C257 C 0.52576 0.50418 0.17252 0.0
H258 H 0.50148 0.65239 0.15077 0.0
H259 H 0.52494 0.61126 0.13713 0.0
H260 H 0.41946 0.56809 0.20979 0.0
H261 H 0.44223 0.52608 0.1954 0.0
H262 H 0.4159 0.54425 0.06829 0.0
H263 H 0.43574 0.52535 0.11327 0.0
H264 H 0.53253 0.59667 0.03601 0.0
H265 H 0.55191 0.57675 0.08056 0.0
H266 H 0.55954 0.40453 0.13982 0.0
H267 H 0.52078 0.43152 0.15435 0.0
H268 H 0.64183 0.50899 0.0988 0.0
H269 H 0.60288 0.53556 0.11292 0.0
H270 H 0.61172 0.48828 0.23102 0.0
H271 H 0.59685 0.51748 0.19 0.0
H272 H 0.49097 0.4251 0.25345 0.0
H273 H 0.47623 0.45458 0.21245 0.0
N274 N 0.50735 0.52308 0.17786 0.0
N275 N 0.52661 0.51847 0.12127 0.0
C276 C 0.60081 0.31336 0.43072 0.0
O277 O 0.62554 0.34129 0.44764 0.0
O278 O 0.66603 0.3981 0.3959 0.0
Zn279 Zn 0.60922 0.3755 0.40218 0.0
O280 O 0.5985 0.39398 0.43977 0.0
C281 C 0.59614 0.38887 0.34123 0.0
O282 O 0.62158 0.37909 0.33582 0.0
O283 O 0.58772 0.32055 0.40746 0.0
C284 C 0.60437 0.42661 0.44355 0.0
O285 O 0.61921 0.45102 0.42199 0.0
C286 C 0.6886 0.43106 0.38671 0.0
O287 O 0.67497 0.4531 0.38158 0.0
O288 O 0.58552 0.38787 0.36775 0.0
C289 C 0.29748 0.69882 0.54552 0.0
O290 O 0.29522 0.67418 0.52631 0.0
O291 O 0.28128 0.61343 0.57613 0.0
Zn292 Zn 0.24415 0.63135 0.57086 0.0
O293 O 0.21443 0.61262 0.53224 0.0
C294 C 0.22064 0.61693 0.63193 0.0
O295 O 0.25803 0.63286 0.63653 0.0
O296 O 0.27655 0.6872 0.5684 0.0
C297 C 0.17831 0.59967 0.53042 0.0
O298 O 0.15923 0.59631 0.55469 0.0
C299 C 0.27196 0.58188 0.58705 0.0
O300 O 0.23575 0.55863 0.59395 0.0
O301 O 0.2081 0.61427 0.60553 0.0
C302 C 0.60633 0.30901 0.72442 0.0
O303 O 0.6393 0.31429 0.71497 0.0
O304 O 0.65756 0.26934 0.75349 0.0
Zn305 Zn 0.60081 0.24131 0.74266 0.0
O306 O 0.58961 0.21283 0.70435 0.0
C307 C 0.58379 0.21282 0.80213 0.0
O308 O 0.61194 0.24697 0.80829 0.0
O309 O 0.5835 0.27869 0.73774 0.0
C310 C 0.60477 0.19382 0.69748 0.0
O311 O 0.6295 0.19253 0.71588 0.0
C312 C 0.68592 0.28122 0.73607 0.0
O313 O 0.67931 0.27457 0.70751 0.0
O314 O 0.57264 0.20432 0.77533 0.0
C315 C 0.40156 0.7017 0.92499 0.0
O316 O 0.37898 0.67363 0.94228 0.0
O317 O 0.34034 0.61665 0.88495 0.0
Zn318 Zn 0.3962 0.64091 0.89599 0.0
O319 O 0.40435 0.6202 0.93411 0.0
C320 C 0.40452 0.59621 0.85523 0.0
O321 O 0.37581 0.57207 0.87168 0.0
O322 O 0.41511 0.69525 0.90204 0.0
C323 C 0.43275 0.61537 0.93721 0.0
O324 O 0.45592 0.62244 0.91482 0.0
C325 C 0.31162 0.59749 0.90148 0.0
O326 O 0.31748 0.5921 0.92928 0.0
O327 O 0.42083 0.63074 0.86173 0.0
C328 C 0.70138 0.39568 0.08895 0.0
O329 O 0.70329 0.37239 0.10756 0.0
O330 O 0.71431 0.32597 0.05816 0.0
Zn331 Zn 0.75281 0.3807 0.06194 0.0
O332 O 0.7842 0.39215 0.09952 0.0
C333 C 0.81796 0.39918 0.02547 0.0
O334 O 0.82924 0.38922 0.04938 0.0
O335 O 0.72174 0.40511 0.06576 0.0
C336 C 0.8128 0.42499 0.10358 0.0
O337 O 0.82268 0.44982 0.08238 0.0
C338 C 0.71924 0.30419 0.04183 0.0
O339 O 0.75216 0.31715 0.02812 0.0
O340 O 0.78611 0.39835 0.02565 0.0
C341 C 0.40502 0.71323 0.21238 0.0
O342 O 0.3799 0.71583 0.19536 0.0
O343 O 0.33479 0.72393 0.24849 0.0
Zn344 Zn 0.39099 0.76193 0.24257 0.0
O345 O 0.40028 0.79203 0.20528 0.0
C346 C 0.39011 0.80417 0.29164 0.0
O347 O 0.35489 0.79046 0.28122 0.0
O348 O 0.41609 0.73184 0.23643 0.0
C349 C 0.39661 0.82018 0.2015 0.0
O350 O 0.38428 0.83179 0.22336 0.0
C351 C 0.30661 0.7271 0.23993 0.0
O352 O 0.31316 0.75727 0.22572 0.0
O353 O 0.41241 0.79592 0.27853 0.0
C354 C 0.205 0.68566 0.26798 0.0
C355 C 0.19236 0.64748 0.27127 0.0
C356 C 0.24164 0.71102 0.25707 0.0
C357 C 0.26734 0.69934 0.24954 0.0
H358 H 0.18652 0.69616 0.27412 0.0
H359 H 0.25022 0.74016 0.25522 0.0
S360 S 0.24811 0.6025 0.25244 0.0
N361 N 0.20804 0.59905 0.26452 0.0
N362 N 0.27769 0.64722 0.24523 0.0
C363 C 0.25531 0.6614 0.25269 0.0
C364 C 0.21768 0.63537 0.26331 0.0
C365 C 0.56277 0.20953 0.42336 0.0
C366 C 0.56812 0.19957 0.45207 0.0
C367 C 0.57311 0.24631 0.41667 0.0
C368 C 0.58937 0.27454 0.43842 0.0
H369 H 0.55064 0.18875 0.40586 0.0
H370 H 0.56868 0.25269 0.39421 0.0
S371 S 0.60691 0.26231 0.51754 0.0
N372 N 0.58882 0.22037 0.50277 0.0
N373 N 0.60896 0.28962 0.49021 0.0
C374 C 0.59466 0.26487 0.4673 0.0
C375 C 0.58391 0.22738 0.47411 0.0
C376 C 0.3194 0.52915 0.61513 0.0
C377 C 0.35879 0.55407 0.60977 0.0
C378 C 0.29157 0.53822 0.6074 0.0
C379 C 0.30201 0.57253 0.59386 0.0
H380 H 0.31007 0.50257 0.62576 0.0
H381 H 0.26167 0.51821 0.61233 0.0
S382 S 0.40151 0.64666 0.57364 0.0
N383 N 0.40689 0.61375 0.58914 0.0
N384 N 0.35482 0.63114 0.57462 0.0
C385 C 0.34141 0.59752 0.588 0.0
C386 C 0.36972 0.58825 0.596 0.0
C387 C 0.79468 0.34753 0.73806 0.0
C388 C 0.80316 0.3539 0.76852 0.0
C389 C 0.7568 0.32349 0.7278 0.0
C390 C 0.72595 0.30514 0.74764 0.0
H391 H 0.81756 0.36094 0.72203 0.0
H392 H 0.75174 0.31958 0.70411 0.0
S393 S 0.7332 0.31343 0.82978 0.0
N394 N 0.77791 0.34075 0.81845 0.0
N395 N 0.70678 0.29537 0.79942 0.0
C396 C 0.73419 0.31141 0.77825 0.0
C397 C 0.77276 0.33581 0.78862 0.0
C398 C 0.41203 0.78311 0.9695 0.0
C399 C 0.4259 0.81215 0.94871 0.0
C400 C 0.40416 0.74753 0.96147 0.0
C401 C 0.41042 0.7398 0.93244 0.0
H402 H 0.40728 0.78798 0.99219 0.0
H403 H 0.39354 0.72607 0.97833 0.0
S404 S 0.4467 0.80672 0.8698 0.0
N405 N 0.4456 0.83125 0.89797 0.0
N406 N 0.43112 0.7643 0.88274 0.0
C407 C 0.42429 0.7687 0.91139 0.0
C408 C 0.43187 0.80488 0.91955 0.0
C409 C 0.63736 0.42068 0.13101 0.0
C410 C 0.62731 0.43874 0.10956 0.0
C411 C 0.66124 0.4068 0.12403 0.0
C412 C 0.67606 0.41055 0.09535 0.0
H413 H 0.62729 0.41786 0.15353 0.0
H414 H 0.66851 0.39346 0.14143 0.0
S415 S 0.65578 0.45317 0.03063 0.0
N416 N 0.63197 0.45778 0.05808 0.0
N417 N 0.67741 0.43218 0.04497 0.0
C418 C 0.66573 0.42808 0.07355 0.0
C419 C 0.64122 0.44205 0.08065 0.0
C420 C 0.36268 0.7891 0.50501 0.0
C421 C 0.37539 0.81625 0.52747 0.0
C422 C 0.33761 0.75125 0.5112 0.0
C423 C 0.32385 0.73917 0.54003 0.0
H424 H 0.37239 0.79719 0.48247 0.0
H425 H 0.32869 0.73139 0.49312 0.0
S426 S 0.34838 0.79964 0.60658 0.0
N427 N 0.37255 0.82892 0.57954 0.0
N428 N 0.32499 0.75763 0.59131 0.0
C429 C 0.33627 0.76615 0.56271 0.0
C430 C 0.36222 0.80473 0.55641 0.0
C431 C 0.54411 0.35088 0.70842 0.0
C432 C 0.57112 0.38723 0.69892 0.0
C433 C 0.55583 0.32614 0.71769 0.0
C434 C 0.59497 0.33672 0.71739 0.0
H435 H 0.51361 0.34139 0.70846 0.0
H436 H 0.53392 0.29821 0.72428 0.0
S437 S 0.67714 0.42948 0.69543 0.0
N438 N 0.63865 0.43304 0.69054 0.0
N439 N 0.66093 0.38677 0.70791 0.0
C440 C 0.62236 0.37338 0.70857 0.0
C441 C 0.61038 0.39859 0.69938 0.0
C442 C 0.20242 0.55024 0.89757 0.0
C443 C 0.1951 0.55234 0.8673 0.0
C444 C 0.24015 0.56485 0.90843 0.0
C445 C 0.27194 0.58197 0.88939 0.0
H446 H 0.17877 0.53744 0.91302 0.0
H447 H 0.24434 0.56279 0.93196 0.0
S448 S 0.26757 0.59236 0.80777 0.0
N449 N 0.22215 0.57133 0.81822 0.0
N450 N 0.29316 0.59897 0.83838 0.0
C451 C 0.26484 0.58389 0.85892 0.0
C452 C 0.22641 0.56907 0.84795 0.0
C453 C 0.66521 0.2033 0.01612 0.0
C454 C 0.62717 0.19035 0.02492 0.0
C455 C 0.69479 0.24007 0.02187 0.0
C456 C 0.68747 0.26517 0.03689 0.0
H457 H 0.6721 0.18491 0.00443 0.0
H458 H 0.72359 0.24879 0.01446 0.0
S459 S 0.59247 0.24424 0.06525 0.0
N460 N 0.58356 0.20479 0.04975 0.0
N461 N 0.63902 0.27409 0.06073 0.0
C462 C 0.64943 0.25236 0.04603 0.0
C463 C 0.61929 0.21493 0.03994 0.0
C464 C 0.44512 0.64892 0.21823 0.0
C465 C 0.4441 0.63806 0.18865 0.0
C466 C 0.43305 0.67382 0.22572 0.0
C467 C 0.41898 0.68813 0.20393 0.0
H468 H 0.45581 0.63849 0.2356 0.0
H469 H 0.43429 0.68149 0.24879 0.0
S470 S 0.41027 0.66767 0.12322 0.0
N471 N 0.42796 0.64307 0.13751 0.0
N472 N 0.40494 0.68957 0.15144 0.0
C473 C 0.41765 0.6772 0.17426 0.0
C474 C 0.43033 0.65224 0.16665 0.0
C475 C 0.77627 0.42574 0.3662 0.0
C476 C 0.80477 0.46332 0.36159 0.0
C477 C 0.73906 0.41572 0.37494 0.0
C478 C 0.72887 0.4429 0.37928 0.0
H479 H 0.78247 0.4038 0.36231 0.0
H480 H 0.71788 0.3863 0.37759 0.0
S481 S 0.79435 0.54553 0.37326 0.0
N482 N 0.82141 0.52809 0.36444 0.0
N483 N 0.75121 0.50923 0.38032 0.0
C484 C 0.75745 0.48068 0.37558 0.0
C485 C 0.79544 0.49089 0.36687 0.0
C486 C 0.0973 0.56014 0.47294 0.0
C487 C 0.11691 0.57304 0.44601 0.0
C488 C 0.11746 0.56866 0.50002 0.0
C489 C 0.15806 0.59005 0.50123 0.0
H490 H 0.06604 0.54381 0.47311 0.0
H491 H 0.10098 0.55837 0.52016 0.0
S492 S 0.22297 0.62941 0.43664 0.0
N493 N 0.17904 0.60747 0.42195 0.0
N494 N 0.2172 0.62348 0.47281 0.0
C495 C 0.17807 0.60267 0.47434 0.0
C496 C 0.15743 0.59424 0.44676 0.0
C497 C 0.5445 0.13841 0.63086 0.0
C498 C 0.56899 0.12946 0.61588 0.0
C499 C 0.55656 0.15964 0.657 0.0
C500 C 0.59339 0.17234 0.66942 0.0
H501 H 0.51545 0.12833 0.62267 0.0
H502 H 0.53649 0.16544 0.66788 0.0
S503 S 0.66987 0.15956 0.63761 0.0
N504 N 0.633 0.13753 0.61429 0.0
N505 N 0.6551 0.17633 0.66401 0.0
C506 C 0.61842 0.16414 0.65453 0.0
C507 C 0.60637 0.14297 0.62764 0.0
C508 C 0.45393 0.59824 0.78357 0.0
C509 C 0.4371 0.56015 0.77655 0.0
C510 C 0.44363 0.60969 0.80923 0.0
C511 C 0.41622 0.58343 0.8289 0.0
H512 H 0.4748 0.61938 0.76887 0.0
H513 H 0.45696 0.63936 0.81345 0.0
S514 S 0.3662 0.48008 0.82155 0.0
N515 N 0.39355 0.49616 0.79197 0.0
N516 N 0.37391 0.51734 0.84009 0.0
C517 C 0.39983 0.54515 0.82236 0.0
C518 C 0.4103 0.5336 0.79622 0.0
C519 C 0.84147 0.40683 0.94376 0.0
C520 C 0.88124 0.41985 0.94407 0.0
C521 C 0.82136 0.40105 0.9702 0.0
C522 C 0.84024 0.40781 0.9979 0.0
H523 H 0.8256 0.4004 0.92295 0.0
H524 H 0.79061 0.39031 0.9689 0.0
S525 S 0.94485 0.44594 0.01077 0.0
N526 N 0.93937 0.44242 0.97439 0.0
N527 N 0.90135 0.43054 0.02404 0.0
C528 C 0.88013 0.42165 0.99852 0.0
C529 C 0.90068 0.42791 0.97163 0.0
C530 C 0.40377 0.88405 0.13854 0.0
C531 C 0.42872 0.8813 0.11879 0.0
C532 C 0.39341 0.86409 0.16524 0.0
C533 C 0.40716 0.84024 0.17282 0.0
H534 H 0.39291 0.90239 0.1336 0.0
H535 H 0.37451 0.8674 0.18003 0.0
S536 S 0.4722 0.82254 0.1275 0.0
N537 N 0.46631 0.85273 0.1079 0.0
N538 N 0.44647 0.81454 0.15768 0.0
C539 C 0.43151 0.83671 0.15274 0.0
C540 C 0.44242 0.85746 0.12583 0.0
C541 C 0.58479 0.421 0.26485 0.0
C542 C 0.56175 0.43654 0.27007 0.0
C543 C 0.59496 0.40493 0.28784 0.0
C544 C 0.58262 0.40384 0.31706 0.0
H545 H 0.59507 0.42125 0.24275 0.0
H546 H 0.61303 0.39365 0.28263 0.0
S547 S 0.52211 0.44141 0.34241 0.0
N548 N 0.52716 0.4503 0.30655 0.0
N549 N 0.54585 0.41987 0.3498 0.0
C550 C 0.55915 0.41898 0.3225 0.0
C551 C 0.54882 0.43535 0.29903 0.0
C552 C 0.45622 0.87271 0.35101 0.0
C553 C 0.43139 0.88073 0.36647 0.0
C554 C 0.44263 0.8477 0.32698 0.0
C555 C 0.40367 0.82965 0.31769 0.0
H556 H 0.48649 0.88637 0.3572 0.0
H557 H 0.46296 0.84281 0.31547 0.0
S558 S 0.32642 0.83899 0.35285 0.0
N559 N 0.36583 0.86722 0.37219 0.0
N560 N 0.34006 0.82033 0.32718 0.0
C561 C 0.37841 0.83688 0.33356 0.0
C562 C 0.39233 0.86239 0.3579 0.0
C563 C 0.55101 0.41425 0.5151 0.0
C564 C 0.56485 0.45114 0.52427 0.0
C565 C 0.56457 0.40669 0.48926 0.0
C566 C 0.59198 0.43579 0.47136 0.0
H567 H 0.52958 0.39106 0.52805 0.0
H568 H 0.55289 0.37775 0.48303 0.0
S569 S 0.63716 0.53738 0.48601 0.0
N570 N 0.6075 0.51711 0.51392 0.0
N571 N 0.63276 0.50307 0.46501 0.0
C572 C 0.6061 0.47288 0.48041 0.0
C573 C 0.59263 0.48052 0.50698 0.0
C574 C 0.12615 0.56271 0.67331 0.0
C575 C 0.13819 0.56208 0.70255 0.0
C576 C 0.15303 0.581 0.65081 0.0
C577 C 0.19307 0.59958 0.65667 0.0
H578 H 0.09567 0.54834 0.66765 0.0
H579 H 0.14218 0.58012 0.62857 0.0
S580 S 0.23931 0.60834 0.73032 0.0
N581 N 0.19255 0.58315 0.73667 0.0
N582 N 0.24324 0.61746 0.69449 0.0
C583 C 0.20545 0.59984 0.68606 0.0
C584 C 0.17799 0.58108 0.70895 0.0
C585 C 0.5707 0.16699 0.8774 0.0
C586 C 0.54367 0.12911 0.87163 0.0
C587 C 0.5826 0.19386 0.85497 0.0
C588 C 0.56808 0.18398 0.82577 0.0
H589 H 0.58286 0.17596 0.89947 0.0
H590 H 0.60384 0.22255 0.8606 0.0
S591 S 0.4964 0.08823 0.79921 0.0
N592 N 0.50256 0.0829 0.83473 0.0
N593 N 0.52454 0.1333 0.79253 0.0
C594 C 0.54046 0.14617 0.81982 0.0
C595 C 0.52835 0.1188 0.84274 0.0
C596 C 0.473 0.57625 0.9934 0.0
C597 C 0.4608 0.58252 0.02068 0.0
C598 C 0.46334 0.58657 0.96659 0.0
C599 C 0.44074 0.60322 0.96591 0.0
H600 H 0.49017 0.56319 0.99271 0.0
H601 H 0.47367 0.58136 0.94621 0.0
S602 S 0.40241 0.62678 0.03121 0.0
N603 N 0.42577 0.60743 0.04543 0.0
N604 N 0.40673 0.62598 0.99493 0.0
C605 C 0.42789 0.60927 0.99298 0.0
C606 C 0.4381 0.5991 0.02037 0.0
C607 C 0.89436 0.47413 0.15957 0.0
C608 C 0.87591 0.46029 0.18689 0.0
C609 C 0.87373 0.46235 0.13272 0.0
C610 C 0.83404 0.43574 0.13211 0.0
H611 H 0.92508 0.4942 0.15888 0.0
H612 H 0.88907 0.47398 0.11227 0.0
S613 S 0.77153 0.39199 0.19718 0.0
N614 N 0.81503 0.41971 0.21153 0.0
N615 N 0.77663 0.39645 0.16089 0.0
C616 C 0.81518 0.42133 0.1591 0.0
C617 C 0.83603 0.43384 0.18653 0.0
loop_
_geom_bond_atom_site_label_1
_geom_bond_atom_site_label_2
_geom_bond_distance
_geom_bond_site_symmetry_2
_ccdc_geom_bond_type
C0 C1 1.384 . S
C0 C2 1.384 . S
C0 H28 0.931 . S
C1 C0 1.384 . S
C1 C4 1.382 . S
C2 C0 1.384 . S
C2 C3 1.381 . S
C2 H29 0.930 . S
C3 C2 1.381 . S
C3 C5 1.381 . S
C3 C6 1.487 . S
C4 C1 1.382 . S
C4 C5 1.387 . S
C4 H30 0.930 . S
C5 C3 1.381 . S
C5 C4 1.387 . S
C5 H31 0.931 . S
C6 C3 1.487 . S
C6 C13 1.399 . S
C6 N44 1.343 . S
C7 C8 1.384 . S
C7 C9 1.384 . S
C7 H32 0.931 . S
C8 C7 1.384 . S
C8 C11 1.382 . S
C9 C7 1.384 . S
C9 C10 1.381 . S
C9 H33 0.930 . S
C10 C9 1.381 . S
C10 C12 1.381 . S
C10 C13 1.487 . S
C11 C8 1.382 . S
C11 C12 1.387 . S
C11 H34 0.930 . S
C12 C10 1.381 . S
C12 C11 1.387 . S
C12 H35 0.931 . S
C13 C6 1.399 . S
C13 C10 1.487 . S
C13 N45 1.343 1_655 S
C14 C15 1.384 . S
C14 C16 1.384 . S
C14 H36 0.931 . S
C15 C14 1.384 . S
C15 C18 1.382 . S
C16 C14 1.384 . S
C16 C17 1.381 . S
C16 H37 0.930 . S
C17 C16 1.381 . S
C17 C19 1.381 . S
C17 C20 1.487 . S
C18 C15 1.382 . S
C18 C19 1.387 . S
C18 H38 0.930 . S
C19 C17 1.381 . S
C19 C18 1.387 . S
C19 H39 0.931 . S
C20 C17 1.487 . S
C20 C27 1.399 . S
C20 N45 1.343 . S
C21 C22 1.384 . S
C21 C23 1.384 . S
C21 H40 0.931 . S
C22 C21 1.384 . S
C22 C25 1.382 . S
C23 C21 1.384 . S
C23 C24 1.381 . S
C23 H41 0.930 . S
C24 C23 1.381 . S
C24 C26 1.381 . S
C24 C27 1.487 . S
C25 C22 1.382 . S
C25 C26 1.387 . S
C25 H42 0.930 . S
C26 C24 1.381 . S
C26 C25 1.387 . S
C26 H43 0.931 . S
C27 C20 1.399 . S
C27 C24 1.487 . S
C27 N44 1.343 1_455 S
H28 C0 0.931 . S
H29 C2 0.930 . S
H30 C4 0.930 . S
H31 C5 0.931 . S
H32 C7 0.931 . S
H33 C9 0.930 . S
H34 C11 0.930 . S
H35 C12 0.931 . S
H36 C14 0.931 . S
H37 C16 0.930 . S
H38 C18 0.930 . S
H39 C19 0.931 . S
H40 C21 0.931 . S
H41 C23 0.930 . S
H42 C25 0.930 . S
H43 C26 0.931 . S
N44 C6 1.343 . S
N44 C27 1.343 1_655 S
N45 C13 1.343 1_455 S
N45 C20 1.343 . S
C46 C47 1.384 . S
C46 C48 1.384 . S
C46 H74 0.931 . S
C47 C46 1.384 . S
C47 C50 1.382 . S
C48 C46 1.384 . S
C48 C49 1.381 . S
C48 H75 0.930 . S
C49 C48 1.381 . S
C49 C51 1.381 . S
C49 C52 1.487 . S
C50 C47 1.382 . S
C50 C51 1.387 . S
C50 H76 0.930 . S
C51 C49 1.381 . S
C51 C50 1.387 . S
C51 H77 0.931 . S
C52 C49 1.487 . S
C52 C59 1.399 . S
C52 N90 1.338 1_565 S
C53 C54 1.384 . S
C53 C55 1.384 . S
C53 H78 0.931 . S
C54 C53 1.384 . S
C54 C57 1.382 . S
C55 C53 1.384 . S
C55 C56 1.381 . S
C55 H79 0.930 . S
C56 C55 1.381 . S
C56 C58 1.381 . S
C56 C59 1.487 . S
C57 C54 1.382 . S
C57 C58 1.387 . S
C57 H80 0.930 . S
C58 C56 1.381 . S
C58 C57 1.387 . S
C58 H81 0.931 . S
C59 C52 1.399 . S
C59 C56 1.487 . S
C59 N91 1.343 1_565 S
C60 C61 1.384 . S
C60 C62 1.384 . S
C60 H82 0.931 . S
C61 C60 1.384 . S
C61 C64 1.382 . S
C62 C60 1.384 . S
C62 C63 1.381 . S
C62 H83 0.930 . S
C63 C62 1.381 . S
C63 C65 1.381 . S
C63 C66 1.487 . S
C64 C61 1.382 . S
C64 C65 1.387 . S
C64 H84 0.930 . S
C65 C63 1.381 . S
C65 C64 1.387 . S
C65 H85 0.931 . S
C66 C63 1.487 . S
C66 C73 1.399 . S
C66 N91 1.343 . S
C67 C68 1.384 . S
C67 C69 1.384 . S
C67 H86 0.931 . S
C68 C67 1.384 . S
C68 C71 1.382 . S
C69 C67 1.384 . S
C69 C70 1.381 . S
C69 H87 0.930 . S
C70 C69 1.381 . S
C70 C72 1.381 . S
C70 C73 1.487 . S
C71 C68 1.382 . S
C71 C72 1.387 . S
C71 H88 0.930 . S
C72 C70 1.381 . S
C72 C71 1.387 . S
C72 H89 0.931 . S
C73 C66 1.399 . S
C73 C70 1.487 . S
C73 N90 1.351 . S
H74 C46 0.931 . S
H75 C48 0.930 . S
H76 C50 0.930 . S
H77 C51 0.931 . S
H78 C53 0.931 . S
H79 C55 0.930 . S
H80 C57 0.930 . S
H81 C58 0.931 . S
H82 C60 0.931 . S
H83 C62 0.930 . S
H84 C64 0.930 . S
H85 C65 0.931 . S
H86 C67 0.931 . S
H87 C69 0.930 . S
H88 C71 0.930 . S
H89 C72 0.931 . S
N90 C52 1.338 1_545 S
N90 C73 1.351 . S
N91 C59 1.343 1_545 S
N91 C66 1.343 . S
C92 C93 1.384 . S
C92 C94 1.384 . S
C92 H120 0.931 . S
C93 C92 1.384 . S
C93 C96 1.382 . S
C94 C92 1.384 . S
C94 C95 1.381 . S
C94 H121 0.930 . S
C95 C94 1.381 . S
C95 C97 1.381 . S
C95 C98 1.487 . S
C96 C93 1.382 . S
C96 C97 1.387 . S
C96 H122 0.930 . S
C97 C95 1.381 . S
C97 C96 1.387 . S
C97 H123 0.931 . S
C98 C95 1.487 . S
C98 C105 1.399 . S
C98 N136 1.343 . S
C99 C100 1.384 . S
C99 C101 1.384 . S
C99 H124 0.931 . S
C100 C99 1.384 . S
C100 C103 1.382 . S
C101 C99 1.384 . S
C101 C102 1.381 . S
C101 H125 0.930 . S
C102 C101 1.381 . S
C102 C104 1.381 . S
C102 C105 1.487 . S
C103 C100 1.382 . S
C103 C104 1.387 . S
C103 H126 0.930 . S
C104 C102 1.381 . S
C104 C103 1.387 . S
C104 H127 0.931 . S
C105 C98 1.399 . S
C105 C102 1.487 . S
C105 N137 1.343 . S
C106 C107 1.384 . S
C106 C108 1.384 . S
C106 H128 0.931 . S
C107 C106 1.384 . S
C107 C110 1.382 . S
C108 C106 1.384 . S
C108 C109 1.381 . S
C108 H129 0.930 . S
C109 C108 1.381 . S
C109 C111 1.381 . S
C109 C112 1.487 . S
C110 C107 1.382 . S
C110 C111 1.387 . S
C110 H130 0.930 . S
C111 C109 1.381 . S
C111 C110 1.387 . S
C111 H131 0.931 . S
C112 C109 1.487 . S
C112 C119 1.399 . S
C112 N137 1.343 . S
C113 C114 1.384 . S
C113 C115 1.384 . S
C113 H132 0.931 . S
C114 C113 1.384 . S
C114 C117 1.382 . S
C115 C113 1.384 . S
C115 C116 1.381 . S
C115 H133 0.930 . S
C116 C115 1.381 . S
C116 C118 1.381 . S
C116 C119 1.487 . S
C117 C114 1.382 . S
C117 C118 1.387 . S
C117 H134 0.930 . S
C118 C116 1.381 . S
C118 C117 1.387 . S
C118 H135 0.931 . S
C119 C112 1.399 . S
C119 C116 1.487 . S
C119 N136 1.343 . S
H120 C92 0.931 . S
H121 C94 0.930 . S
H122 C96 0.930 . S
H123 C97 0.931 . S
H124 C99 0.931 . S
H125 C101 0.930 . S
H126 C103 0.930 . S
H127 C104 0.931 . S
H128 C106 0.931 . S
H129 C108 0.930 . S
H130 C110 0.930 . S
H131 C111 0.931 . S
H132 C113 0.931 . S
H133 C115 0.930 . S
H134 C117 0.930 . S
H135 C118 0.931 . S
N136 C98 1.343 . S
N136 C119 1.343 . S
N137 C105 1.343 . S
N137 C112 1.343 . S
C138 C139 1.384 . S
C138 C140 1.384 . S
C138 H166 0.931 . S
C139 C138 1.384 . S
C139 C142 1.382 . S
C140 C138 1.384 . S
C140 C141 1.381 . S
C140 H167 0.930 . S
C141 C140 1.381 . S
C141 C143 1.381 . S
C141 C144 1.487 . S
C142 C139 1.382 . S
C142 C143 1.387 . S
C142 H168 0.930 . S
C143 C141 1.381 . S
C143 C142 1.387 . S
C143 H169 0.931 . S
C144 C141 1.487 . S
C144 C151 1.399 . S
C144 N182 1.343 . S
C145 C146 1.384 . S
C145 C147 1.384 . S
C145 H170 0.931 . S
C146 C145 1.384 . S
C146 C149 1.382 . S
C147 C145 1.384 . S
C147 C148 1.381 . S
C147 H171 0.930 . S
C148 C147 1.381 . S
C148 C150 1.381 . S
C148 C151 1.487 . S
C149 C146 1.382 . S
C149 C150 1.387 . S
C149 H172 0.930 . S
C150 C148 1.381 . S
C150 C149 1.387 . S
C150 H173 0.931 . S
C151 C144 1.399 . S
C151 C148 1.487 . S
C151 N183 1.343 1_655 S
C152 C153 1.384 . S
C152 C154 1.384 . S
C152 H174 0.931 . S
C153 C152 1.384 . S
C153 C156 1.382 . S
C154 C152 1.384 . S
C154 C155 1.381 . S
C154 H175 0.930 . S
C155 C154 1.381 . S
C155 C157 1.381 . S
C155 C158 1.487 . S
C156 C153 1.382 . S
C156 C157 1.387 . S
C156 H176 0.930 . S
C157 C155 1.381 . S
C157 C156 1.387 . S
C157 H177 0.931 . S
C158 C155 1.487 . S
C158 C165 1.399 . S
C158 N183 1.343 . S
C159 C160 1.384 . S
C159 C161 1.384 . S
C159 H178 0.931 . S
C160 C159 1.384 . S
C160 C163 1.382 . S
C161 C159 1.384 . S
C161 C162 1.381 . S
C161 H179 0.930 . S
C162 C161 1.381 . S
C162 C164 1.381 . S
C162 C165 1.487 . S
C163 C160 1.382 . S
C163 C164 1.387 . S
C163 H180 0.930 . S
C164 C162 1.381 . S
C164 C163 1.387 . S
C164 H181 0.931 . S
C165 C158 1.399 . S
C165 C162 1.487 . S
C165 N182 1.343 1_455 S
H166 C138 0.931 . S
H167 C140 0.930 . S
H168 C142 0.930 . S
H169 C143 0.931 . S
H170 C145 0.931 . S
H171 C147 0.930 . S
H172 C149 0.930 . S
H173 C150 0.931 . S
H174 C152 0.931 . S
H175 C154 0.930 . S
H176 C156 0.930 . S
H177 C157 0.931 . S
H178 C159 0.931 . S
H179 C161 0.930 . S
H180 C163 0.930 . S
H181 C164 0.931 . S
N182 C144 1.343 . S
N182 C165 1.343 1_655 S
N183 C151 1.343 1_455 S
N183 C158 1.343 . S
C184 C185 1.384 . S
C184 C186 1.384 . S
C184 H212 0.931 . S
C185 C184 1.384 . S
C185 C188 1.382 . S
C186 C184 1.384 . S
C186 C187 1.381 . S
C186 H213 0.930 1_556 S
C187 C186 1.381 . S
C187 C189 1.381 . S
C187 C190 1.487 . S
C188 C185 1.382 . S
C188 C189 1.387 . S
C188 H214 0.930 . S
C189 C187 1.381 . S
C189 C188 1.387 . S
C189 H215 0.931 . S
C190 C187 1.487 . S
C190 C197 1.399 1_556 S
C190 N228 1.343 . S
C191 C192 1.384 . S
C191 C193 1.384 . S
C191 H216 0.931 . S
C192 C191 1.384 . S
C192 C195 1.382 . S
C193 C191 1.384 . S
C193 C194 1.381 . S
C193 H217 0.930 . S
C194 C193 1.381 . S
C194 C196 1.381 . S
C194 C197 1.487 . S
C195 C192 1.382 . S
C195 C196 1.387 . S
C195 H218 0.930 . S
C196 C194 1.381 . S
C196 C195 1.387 . S
C196 H219 0.931 . S
C197 C190 1.399 1_554 S
C197 C194 1.487 . S
C197 N229 1.343 1_565 S
C198 C199 1.384 . S
C198 C200 1.384 1_554 S
C198 H220 0.935 . S
C199 C198 1.384 . S
C199 C202 1.382 . S
C200 C198 1.384 1_556 S
C200 C201 1.381 1_556 S
C200 H221 0.930 . S
C201 C200 1.381 1_554 S
C201 C203 1.381 . S
C201 C204 1.487 1_554 S
C202 C199 1.382 . S
C202 C203 1.387 . S
C202 H222 0.930 . S
C203 C201 1.381 . S
C203 C202 1.387 . S
C203 H223 0.931 . S
C204 C201 1.487 1_556 S
C204 C211 1.399 . S
C204 N229 1.343 1_556 S
C205 C206 1.384 . S
C205 C207 1.384 . S
C205 H224 0.931 . S
C206 C205 1.384 . S
C206 C209 1.382 . S
C207 C205 1.384 . S
C207 C208 1.381 . S
C207 H225 0.930 . S
C208 C207 1.381 . S
C208 C210 1.381 . S
C208 C211 1.487 . S
C209 C206 1.382 . S
C209 C210 1.387 . S
C209 H226 0.930 . S
C210 C208 1.381 . S
C210 C209 1.387 . S
C210 H227 0.931 . S
C211 C204 1.399 . S
C211 C208 1.487 . S
C211 N228 1.343 1_545 S
H212 C184 0.931 . S
H213 C186 0.930 1_554 S
H214 C188 0.930 . S
H215 C189 0.931 . S
H216 C191 0.931 . S
H217 C193 0.930 . S
H218 C195 0.930 . S
H219 C196 0.931 . S
H220 C198 0.935 . S
H221 C200 0.930 . S
H222 C202 0.930 . S
H223 C203 0.931 . S
H224 C205 0.931 . S
H225 C207 0.930 . S
H226 C209 0.930 . S
H227 C210 0.931 . S
N228 C190 1.343 . S
N228 C211 1.343 1_565 S
N229 C197 1.343 1_545 S
N229 C204 1.343 1_554 S
C230 C231 1.384 . S
C230 C232 1.384 . S
C230 H258 0.931 . S
C231 C230 1.384 . S
C231 C234 1.382 . S
C232 C230 1.384 . S
C232 C233 1.381 . S
C232 H259 0.930 . S
C233 C232 1.381 . S
C233 C235 1.381 . S
C233 C236 1.487 . S
C234 C231 1.382 . S
C234 C235 1.387 . S
C234 H260 0.930 . S
C235 C233 1.381 . S
C235 C234 1.387 . S
C235 H261 0.931 . S
C236 C233 1.487 . S
C236 C243 1.399 . S
C236 N274 1.343 . S
C237 C238 1.384 . S
C237 C239 1.384 . S
C237 H262 0.931 . S
C238 C237 1.384 . S
C238 C241 1.382 . S
C239 C237 1.384 . S
C239 C240 1.381 . S
C239 H263 0.930 . S
C240 C239 1.381 . S
C240 C242 1.381 . S
C240 C243 1.487 . S
C241 C238 1.382 . S
C241 C242 1.387 . S
C241 H264 0.930 . S
C242 C240 1.381 . S
C242 C241 1.387 . S
C242 H265 0.931 . S
C243 C236 1.399 . S
C243 C240 1.487 . S
C243 N275 1.343 . S
C244 C245 1.384 . S
C244 C246 1.384 . S
C244 H266 0.931 . S
C245 C244 1.384 . S
C245 C248 1.382 . S
C246 C244 1.384 . S
C246 C247 1.381 . S
C246 H267 0.930 . S
C247 C246 1.381 . S
C247 C249 1.381 . S
C247 C250 1.487 . S
C248 C245 1.382 . S
C248 C249 1.387 . S
C248 H268 0.930 . S
C249 C247 1.381 . S
C249 C248 1.387 . S
C249 H269 0.931 . S
C250 C247 1.487 . S
C250 C257 1.399 . S
C250 N275 1.343 . S
C251 C252 1.384 . S
C251 C253 1.384 . S
C251 H270 0.931 . S
C252 C251 1.384 . S
C252 C255 1.382 . S
C253 C251 1.384 . S
C253 C254 1.381 . S
C253 H271 0.930 . S
C254 C253 1.381 . S
C254 C256 1.381 . S
C254 C257 1.487 . S
C255 C252 1.382 . S
C255 C256 1.387 . S
C255 H272 0.930 . S
C256 C254 1.381 . S
C256 C255 1.387 . S
C256 H273 0.931 . S
C257 C250 1.399 . S
C257 C254 1.487 . S
C257 N274 1.343 . S
H258 C230 0.931 . S
H259 C232 0.930 . S
H260 C234 0.930 . S
H261 C235 0.931 . S
H262 C237 0.931 . S
H263 C239 0.930 . S
H264 C241 0.930 . S
H265 C242 0.931 . S
H266 C244 0.931 . S
H267 C246 0.930 . S
H268 C248 0.930 . S
H269 C249 0.931 . S
H270 C251 0.931 . S
H271 C253 0.930 . S
H272 C255 0.930 . S
H273 C256 0.931 . S
N274 C236 1.343 . S
N274 C257 1.343 . S
N275 C243 1.343 . S
N275 C250 1.343 . S
C276 O277 1.160 . S
C276 O283 1.185 . S
O277 C276 1.160 . S
O278 Zn279 1.899 . S
O278 C286 1.284 . S
Zn279 O278 1.899 . S
Zn279 O280 2.032 . S
Zn279 O283 2.086 . S
Zn279 O288 1.977 . S
O280 Zn279 2.032 . S
O280 C284 1.278 . S
C281 O282 1.203 . S
C281 O288 1.267 . S
O282 C281 1.203 . S
O283 C276 1.185 . S
O283 Zn279 2.086 . S
C284 O280 1.278 . S
C284 O285 1.211 . S
O285 C284 1.211 . S
C286 O278 1.284 . S
C286 O287 1.273 . S
O287 C286 1.273 . S
O288 Zn279 1.977 . S
O288 C281 1.267 . S
C289 O290 1.160 . S
C289 O296 1.185 . S
O290 C289 1.160 . S
O291 Zn292 1.899 . S
O291 C299 1.284 . S
Zn292 O291 1.899 . S
Zn292 O293 2.032 . S
Zn292 O296 2.086 . S
Zn292 O301 1.977 . S
O293 Zn292 2.032 . S
O293 C297 1.278 . S
C294 O295 1.203 . S
C294 O301 1.267 . S
O295 C294 1.203 . S
O296 C289 1.185 . S
O296 Zn292 2.086 . S
C297 O293 1.278 . S
C297 O298 1.211 . S
O298 C297 1.211 . S
C299 O291 1.284 . S
C299 O300 1.273 . S
O300 C299 1.273 . S
O301 Zn292 1.977 . S
O301 C294 1.267 . S
C302 O303 1.160 . S
C302 O309 1.185 . S
O303 C302 1.160 . S
O304 Zn305 1.899 . S
O304 C312 1.284 . S
Zn305 O304 1.899 . S
Zn305 O306 2.032 . S
Zn305 O309 2.086 . S
Zn305 O314 1.977 . S
O306 Zn305 2.032 . S
O306 C310 1.278 . S
C307 O308 1.203 . S
C307 O314 1.267 . S
O308 C307 1.203 . S
O309 C302 1.185 . S
O309 Zn305 2.086 . S
C310 O306 1.278 . S
C310 O311 1.211 . S
O311 C310 1.211 . S
C312 O304 1.284 . S
C312 O313 1.273 . S
O313 C312 1.273 . S
O314 Zn305 1.977 . S
O314 C307 1.267 . S
C315 O316 1.160 . S
C315 O322 1.185 . S
O316 C315 1.160 . S
O317 Zn318 1.899 . S
O317 C325 1.284 . S
Zn318 O317 1.899 . S
Zn318 O319 2.032 . S
Zn318 O322 2.086 . S
Zn318 O327 1.977 . S
O319 Zn318 2.032 . S
O319 C323 1.278 . S
C320 O321 1.203 . S
C320 O327 1.267 . S
O321 C320 1.203 . S
O322 C315 1.185 . S
O322 Zn318 2.086 . S
C323 O319 1.278 . S
C323 O324 1.211 . S
O324 C323 1.211 . S
C325 O317 1.284 . S
C325 O326 1.273 . S
O326 C325 1.273 . S
O327 Zn318 1.977 . S
O327 C320 1.267 . S
C328 O329 1.160 . S
C328 O335 1.185 . S
O329 C328 1.160 . S
O330 Zn331 1.899 . S
O330 C338 1.284 . S
Zn331 O330 1.899 . S
Zn331 O332 2.032 . S
Zn331 O335 2.086 . S
Zn331 O340 1.977 . S
O332 Zn331 2.032 . S
O332 C336 1.278 . S
C333 O334 1.203 . S
C333 O340 1.267 . S
O334 C333 1.203 . S
O335 C328 1.185 . S
O335 Zn331 2.086 . S
C336 O332 1.278 . S
C336 O337 1.211 . S
O337 C336 1.211 . S
C338 O330 1.284 . S
C338 O339 1.273 . S
O339 C338 1.273 . S
O340 Zn331 1.977 . S
O340 C333 1.267 . S
C341 O342 1.160 . S
C341 O348 1.185 . S
O342 C341 1.160 . S
O343 Zn344 1.899 . S
O343 C351 1.284 . S
Zn344 O343 1.899 . S
Zn344 O345 2.032 . S
Zn344 O348 2.086 . S
Zn344 O353 1.977 . S
O345 Zn344 2.032 . S
O345 C349 1.278 . S
C346 O347 1.203 . S
C346 O353 1.267 . S
O347 C346 1.203 . S
O348 C341 1.185 . S
O348 Zn344 2.086 . S
C349 O345 1.278 . S
C349 O350 1.211 . S
O350 C349 1.211 . S
C351 O343 1.284 . S
C351 O352 1.273 . S
O352 C351 1.273 . S
O353 Zn344 1.977 . S
O353 C346 1.267 . S
C354 C355 1.369 . S
C354 C356 1.419 . S
C354 H358 0.930 . S
C355 C354 1.369 . S
C355 C364 1.429 . S
C356 C354 1.419 . S
C356 C357 1.363 . S
C356 H359 0.929 . S
C357 C356 1.363 . S
C357 C363 1.428 . S
H358 C354 0.930 . S
H359 C356 0.929 . S
S360 N361 1.613 . S
S360 N362 1.610 . S
N361 S360 1.613 . S
N361 C364 1.350 . S
N362 S360 1.610 . S
N362 C363 1.351 . S
C363 C357 1.428 . S
C363 N362 1.351 . S
C363 C364 1.434 . S
C364 C355 1.429 . S
C364 N361 1.350 . S
C364 C363 1.434 . S
C365 C366 1.369 . S
C365 C367 1.419 . S
C365 H369 0.930 . S
C366 C365 1.369 . S
C366 C375 1.429 . S
C367 C365 1.419 . S
C367 C368 1.363 . S
C367 H370 0.929 . S
C368 C367 1.363 . S
C368 C374 1.428 . S
H369 C365 0.930 . S
H370 C367 0.929 . S
S371 N372 1.613 . S
S371 N373 1.610 . S
N372 S371 1.613 . S
N372 C375 1.350 . S
N373 S371 1.610 . S
N373 C374 1.351 . S
C374 C368 1.428 . S
C374 N373 1.351 . S
C374 C375 1.434 . S
C375 C366 1.429 . S
C375 N372 1.350 . S
C375 C374 1.434 . S
C376 C377 1.369 . S
C376 C378 1.419 . S
C376 H380 0.930 . S
C377 C376 1.369 . S
C377 C386 1.429 . S
C378 C376 1.419 . S
C378 C379 1.363 . S
C378 H381 0.929 . S
C379 C378 1.363 . S
C379 C385 1.428 . S
H380 C376 0.930 . S
H381 C378 0.929 . S
S382 N383 1.613 . S
S382 N384 1.610 . S
N383 S382 1.613 . S
N383 C386 1.350 . S
N384 S382 1.610 . S
N384 C385 1.351 . S
C385 C379 1.428 . S
C385 N384 1.351 . S
C385 C386 1.434 . S
C386 C377 1.429 . S
C386 N383 1.350 . S
C386 C385 1.434 . S
C387 C388 1.369 . S
C387 C389 1.419 . S
C387 H391 0.930 . S
C388 C387 1.369 . S
C388 C397 1.429 . S
C389 C387 1.419 . S
C389 C390 1.363 . S
C389 H392 0.929 . S
C390 C389 1.363 . S
C390 C396 1.428 . S
H391 C387 0.930 . S
H392 C389 0.929 . S
S393 N394 1.613 . S
S393 N395 1.610 . S
N394 S393 1.613 . S
N394 C397 1.350 . S
N395 S393 1.610 . S
N395 C396 1.351 . S
C396 C390 1.428 . S
C396 N395 1.351 . S
C396 C397 1.434 . S
C397 C388 1.429 . S
C397 N394 1.350 . S
C397 C396 1.434 . S
C398 C399 1.369 . S
C398 C400 1.419 . S
C398 H402 0.930 . S
C399 C398 1.369 . S
C399 C408 1.429 . S
C400 C398 1.419 . S
C400 C401 1.363 . S
C400 H403 0.929 . S
C401 C400 1.363 . S
C401 C407 1.428 . S
H402 C398 0.930 . S
H403 C400 0.929 . S
S404 N405 1.613 . S
S404 N406 1.610 . S
N405 S404 1.613 . S
N405 C408 1.350 . S
N406 S404 1.610 . S
N406 C407 1.351 . S
C407 C401 1.428 . S
C407 N406 1.351 . S
C407 C408 1.434 . S
C408 C399 1.429 . S
C408 N405 1.350 . S
C408 C407 1.434 . S
C409 C410 1.369 . S
C409 C411 1.419 . S
C409 H413 0.930 . S
C410 C409 1.369 . S
C410 C419 1.429 . S
C411 C409 1.419 . S
C411 C412 1.363 . S
C411 H414 0.929 . S
C412 C411 1.363 . S
C412 C418 1.428 . S
H413 C409 0.930 . S
H414 C411 0.929 . S
S415 N416 1.613 . S
S415 N417 1.610 . S
N416 S415 1.613 . S
N416 C419 1.350 . S
N417 S415 1.610 . S
N417 C418 1.351 . S
C418 C412 1.428 . S
C418 N417 1.351 . S
C418 C419 1.434 . S
C419 C410 1.429 . S
C419 N416 1.350 . S
C419 C418 1.434 . S
C420 C421 1.369 . S
C420 C422 1.419 . S
C420 H424 0.930 . S
C421 C420 1.369 . S
C421 C430 1.429 . S
C422 C420 1.419 . S
C422 C423 1.363 . S
C422 H425 0.929 . S
C423 C422 1.363 . S
C423 C429 1.428 . S
H424 C420 0.930 . S
H425 C422 0.929 . S
S426 N427 1.613 . S
S426 N428 1.610 . S
N427 S426 1.613 . S
N427 C430 1.350 . S
N428 S426 1.610 . S
N428 C429 1.351 . S
C429 C423 1.428 . S
C429 N428 1.351 . S
C429 C430 1.434 . S
C430 C421 1.429 . S
C430 N427 1.350 . S
C430 C429 1.434 . S
C431 C432 1.369 . S
C431 C433 1.419 . S
C431 H435 0.930 . S
C432 C431 1.369 . S
C432 C441 1.429 . S
C433 C431 1.419 . S
C433 C434 1.363 . S
C433 H436 0.929 . S
C434 C433 1.363 . S
C434 C440 1.428 . S
H435 C431 0.930 . S
H436 C433 0.929 . S
S437 N438 1.613 . S
S437 N439 1.610 . S
N438 S437 1.613 . S
N438 C441 1.350 . S
N439 S437 1.610 . S
N439 C440 1.351 . S
C440 C434 1.428 . S
C440 N439 1.351 . S
C440 C441 1.434 . S
C441 C432 1.429 . S
C441 N438 1.350 . S
C441 C440 1.434 . S
C442 C443 1.369 . S
C442 C444 1.419 . S
C442 H446 0.930 . S
C443 C442 1.369 . S
C443 C452 1.429 . S
C444 C442 1.419 . S
C444 C445 1.363 . S
C444 H447 0.929 . S
C445 C444 1.363 . S
C445 C451 1.428 . S
H446 C442 0.930 . S
H447 C444 0.929 . S
S448 N449 1.613 . S
S448 N450 1.610 . S
N449 S448 1.613 . S
N449 C452 1.350 . S
N450 S448 1.610 . S
N450 C451 1.351 . S
C451 C445 1.428 . S
C451 N450 1.351 . S
C451 C452 1.434 . S
C452 C443 1.429 . S
C452 N449 1.350 . S
C452 C451 1.434 . S
C453 C454 1.369 . S
C453 C455 1.419 . S
C453 H457 0.930 . S
C454 C453 1.369 . S
C454 C463 1.429 . S
C455 C453 1.419 . S
C455 C456 1.363 . S
C455 H458 0.929 . S
C456 C455 1.363 . S
C456 C462 1.428 . S
H457 C453 0.930 . S
H458 C455 0.929 . S
S459 N460 1.613 . S
S459 N461 1.610 . S
N460 S459 1.613 . S
N460 C463 1.350 . S
N461 S459 1.610 . S
N461 C462 1.351 . S
C462 C456 1.428 . S
C462 N461 1.351 . S
C462 C463 1.434 . S
C463 C454 1.429 . S
C463 N460 1.350 . S
C463 C462 1.434 . S
C464 C465 1.369 . S
C464 C466 1.419 . S
C464 H468 0.930 . S
C465 C464 1.369 . S
C465 C474 1.429 . S
C466 C464 1.419 . S
C466 C467 1.363 . S
C466 H469 0.929 . S
C467 C466 1.363 . S
C467 C473 1.428 . S
H468 C464 0.930 . S
H469 C466 0.929 . S
S470 N471 1.613 . S
S470 N472 1.610 . S
N471 S470 1.613 . S
N471 C474 1.350 . S
N472 S470 1.610 . S
N472 C473 1.351 . S
C473 C467 1.428 . S
C473 N472 1.351 . S
C473 C474 1.434 . S
C474 C465 1.429 . S
C474 N471 1.350 . S
C474 C473 1.434 . S
C475 C476 1.369 . S
C475 C477 1.419 . S
C475 H479 0.930 . S
C476 C475 1.369 . S
C476 C485 1.429 . S
C477 C475 1.419 . S
C477 C478 1.363 . S
C477 H480 0.929 . S
C478 C477 1.363 . S
C478 C484 1.428 . S
H479 C475 0.930 . S
H480 C477 0.929 . S
S481 N482 1.613 . S
S481 N483 1.610 . S
N482 S481 1.613 . S
N482 C485 1.350 . S
N483 S481 1.610 . S
N483 C484 1.351 . S
C484 C478 1.428 . S
C484 N483 1.351 . S
C484 C485 1.434 . S
C485 C476 1.429 . S
C485 N482 1.350 . S
C485 C484 1.434 . S
C486 C487 1.369 . S
C486 C488 1.419 . S
C486 H490 0.930 . S
C487 C486 1.369 . S
C487 C496 1.429 . S
C488 C486 1.419 . S
C488 C489 1.363 . S
C488 H491 0.929 . S
C489 C488 1.363 . S
C489 C495 1.428 . S
H490 C486 0.930 . S
H491 C488 0.929 . S
S492 N493 1.613 . S
S492 N494 1.610 . S
N493 S492 1.613 . S
N493 C496 1.350 . S
N494 S492 1.610 . S
N494 C495 1.351 . S
C495 C489 1.428 . S
C495 N494 1.351 . S
C495 C496 1.434 . S
C496 C487 1.429 . S
C496 N493 1.350 . S
C496 C495 1.434 . S
C497 C498 1.369 . S
C497 C499 1.419 . S
C497 H501 0.930 . S
C498 C497 1.369 . S
C498 C507 1.429 . S
C499 C497 1.419 . S
C499 C500 1.363 . S
C499 H502 0.929 . S
C500 C499 1.363 . S
C500 C506 1.428 . S
H501 C497 0.930 . S
H502 C499 0.929 . S
S503 N504 1.613 . S
S503 N505 1.610 . S
N504 S503 1.613 . S
N504 C507 1.350 . S
N505 S503 1.610 . S
N505 C506 1.351 . S
C506 C500 1.428 . S
C506 N505 1.351 . S
C506 C507 1.434 . S
C507 C498 1.429 . S
C507 N504 1.350 . S
C507 C506 1.434 . S
C508 C509 1.369 . S
C508 C510 1.419 . S
C508 H512 0.930 . S
C509 C508 1.369 . S
C509 C518 1.429 . S
C510 C508 1.419 . S
C510 C511 1.363 . S
C510 H513 0.929 . S
C511 C510 1.363 . S
C511 C517 1.428 . S
H512 C508 0.930 . S
H513 C510 0.929 . S
S514 N515 1.613 . S
S514 N516 1.610 . S
N515 S514 1.613 . S
N515 C518 1.350 . S
N516 S514 1.610 . S
N516 C517 1.351 . S
C517 C511 1.428 . S
C517 N516 1.351 . S
C517 C518 1.434 . S
C518 C509 1.429 . S
C518 N515 1.350 . S
C518 C517 1.434 . S
C519 C520 1.369 . S
C519 C521 1.419 . S
C519 H523 0.930 . S
C520 C519 1.369 . S
C520 C529 1.429 . S
C521 C519 1.419 . S
C521 C522 1.363 . S
C521 H524 0.929 . S
C522 C521 1.363 . S
C522 C528 1.428 1_556 S
H523 C519 0.930 . S
H524 C521 0.929 . S
S525 N526 1.613 1_554 S
S525 N527 1.610 . S
N526 S525 1.613 1_556 S
N526 C529 1.350 . S
N527 S525 1.610 . S
N527 C528 1.355 . S
C528 C522 1.428 1_554 S
C528 N527 1.355 . S
C528 C529 1.430 1_554 S
C529 C520 1.429 . S
C529 N526 1.350 . S
C529 C528 1.430 1_556 S
C530 C531 1.369 . S
C530 C532 1.419 . S
C530 H534 0.930 . S
C531 C530 1.369 . S
C531 C540 1.429 . S
C532 C530 1.419 . S
C532 C533 1.363 . S
C532 H535 0.929 . S
C533 C532 1.363 . S
C533 C539 1.428 . S
H534 C530 0.930 . S
H535 C532 0.929 . S
S536 N537 1.613 . S
S536 N538 1.610 . S
N537 S536 1.613 . S
N537 C540 1.350 . S
N538 S536 1.610 . S
N538 C539 1.351 . S
C539 C533 1.428 . S
C539 N538 1.351 . S
C539 C540 1.434 . S
C540 C531 1.429 . S
C540 N537 1.350 . S
C540 C539 1.434 . S
C541 C542 1.369 . S
C541 C543 1.419 . S
C541 H545 0.930 . S
C542 C541 1.369 . S
C542 C551 1.429 . S
C543 C541 1.419 . S
C543 C544 1.363 . S
C543 H546 0.929 . S
C544 C543 1.363 . S
C544 C550 1.428 . S
H545 C541 0.930 . S
H546 C543 0.929 . S
S547 N548 1.613 . S
S547 N549 1.610 . S
N548 S547 1.613 . S
N548 C551 1.350 . S
N549 S547 1.610 . S
N549 C550 1.351 . S
C550 C544 1.428 . S
C550 N549 1.351 . S
C550 C551 1.434 . S
C551 C542 1.429 . S
C551 N548 1.350 . S
C551 C550 1.434 . S
C552 C553 1.369 . S
C552 C554 1.419 . S
C552 H556 0.930 . S
C553 C552 1.369 . S
C553 C562 1.429 . S
C554 C552 1.419 . S
C554 C555 1.363 . S
C554 H557 0.929 . S
C555 C554 1.363 . S
C555 C561 1.428 . S
H556 C552 0.930 . S
H557 C554 0.929 . S
S558 N559 1.613 . S
S558 N560 1.610 . S
N559 S558 1.613 . S
N559 C562 1.350 . S
N560 S558 1.610 . S
N560 C561 1.351 . S
C561 C555 1.428 . S
C561 N560 1.351 . S
C561 C562 1.434 . S
C562 C553 1.429 . S
C562 N559 1.350 . S
C562 C561 1.434 . S
C563 C564 1.369 . S
C563 C565 1.419 . S
C563 H567 0.930 . S
C564 C563 1.369 . S
C564 C573 1.429 . S
C565 C563 1.419 . S
C565 C566 1.363 . S
C565 H568 0.929 . S
C566 C565 1.363 . S
C566 C572 1.428 . S
H567 C563 0.930 . S
H568 C565 0.929 . S
S569 N570 1.613 . S
S569 N571 1.610 . S
N570 S569 1.613 . S
N570 C573 1.350 . S
N571 S569 1.610 . S
N571 C572 1.351 . S
C572 C566 1.428 . S
C572 N571 1.351 . S
C572 C573 1.434 . S
C573 C564 1.429 . S
C573 N570 1.350 . S
C573 C572 1.434 . S
C574 C575 1.369 . S
C574 C576 1.419 . S
C574 H578 0.930 . S
C575 C574 1.369 . S
C575 C584 1.429 . S
C576 C574 1.419 . S
C576 C577 1.363 . S
C576 H579 0.929 . S
C577 C576 1.363 . S
C577 C583 1.428 . S
H578 C574 0.930 . S
H579 C576 0.929 . S
S580 N581 1.613 . S
S580 N582 1.610 . S
N581 S580 1.613 . S
N581 C584 1.350 . S
N582 S580 1.610 . S
N582 C583 1.351 . S
C583 C577 1.428 . S
C583 N582 1.351 . S
C583 C584 1.434 . S
C584 C575 1.429 . S
C584 N581 1.350 . S
C584 C583 1.434 . S
C585 C586 1.369 . S
C585 C587 1.419 . S
C585 H589 0.930 . S
C586 C585 1.369 . S
C586 C595 1.429 . S
C587 C585 1.419 . S
C587 C588 1.363 . S
C587 H590 0.929 . S
C588 C587 1.363 . S
C588 C594 1.428 . S
H589 C585 0.930 . S
H590 C587 0.929 . S
S591 N592 1.613 . S
S591 N593 1.610 . S
N592 S591 1.613 . S
N592 C595 1.350 . S
N593 S591 1.610 . S
N593 C594 1.351 . S
C594 C588 1.428 . S
C594 N593 1.351 . S
C594 C595 1.434 . S
C595 C586 1.429 . S
C595 N592 1.350 . S
C595 C594 1.434 . S
C596 C597 1.369 1_556 S
C596 C598 1.419 . S
C596 H600 0.930 . S
C597 C596 1.369 1_554 S
C597 C606 1.429 . S
C598 C596 1.419 . S
C598 C599 1.363 . S
C598 H601 0.929 . S
C599 C598 1.363 . S
C599 C605 1.438 . S
H600 C596 0.930 . S
H601 C598 0.929 . S
S602 N603 1.613 . S
S602 N604 1.610 . S
N603 S602 1.613 . S
N603 C606 1.350 . S
N604 S602 1.610 . S
N604 C605 1.348 1_554 S
C605 C599 1.438 . S
C605 N604 1.348 1_556 S
C605 C606 1.426 1_556 S
C606 C597 1.429 . S
C606 N603 1.350 . S
C606 C605 1.426 1_554 S
C607 C608 1.369 . S
C607 C609 1.419 . S
C607 H611 0.930 . S
C608 C607 1.369 . S
C608 C617 1.429 . S
C609 C607 1.419 . S
C609 C610 1.363 . S
C609 H612 0.929 . S
C610 C609 1.363 . S
C610 C616 1.428 . S
H611 C607 0.930 . S
H612 C609 0.929 . S
S613 N614 1.613 . S
S613 N615 1.610 . S
N614 S613 1.613 . S
N614 C617 1.350 . S
N615 S613 1.610 . S
N615 C616 1.351 . S
C616 C610 1.428 . S
C616 N615 1.351 . S
C616 C617 1.434 . S
C617 C608 1.429 . S
C617 N614 1.350 . S
C617 C616 1.434 . S
C357 C351 1.663 . S
C355 C15 1.619 . S
C366 C61 1.587 . S
C368 C276 1.515 . S
C377 C114 1.638 . S
C379 C299 1.693 . S
C388 C139 1.486 . S
C390 C312 1.504 . S
C401 C315 1.558 . S
C399 C185 1.650 . S
C410 C245 1.525 . S
C412 C328 1.463 . S
C421 C47 1.544 . S
C423 C289 1.462 . S
C432 C100 1.651 . S
C434 C302 1.556 . S
C443 C153 1.473 . S
C445 C325 1.504 . S
C456 C338 1.694 . S
C454 C199 1.637 . S
C467 C341 1.515 . S
C465 C231 1.608 . S
C478 C286 1.666 . S
C476 C1 1.632 . S
C487 C22 1.483 . S
C489 C297 1.457 . S
C498 C68 1.455 . S
C500 C310 1.424 . S
C511 C320 1.437 . S
C509 C107 1.489 . S
C520 C146 1.484 . S
C522 C333 1.418 1_556 S
C533 C349 1.459 . S
C531 C192 1.500 . S
C544 C281 1.407 . S
C542 C252 1.455 . S
C555 C346 1.407 . S
C553 C54 1.455 . S
C564 C93 1.500 . S
C566 C284 1.461 . S
C577 C294 1.421 . S
C575 C160 1.472 . S
C586 C206 1.489 . S
C588 C307 1.440 . S
C597 C238 1.457 . S
C599 C323 1.429 . S
C608 C8 1.490 . S
C610 C336 1.458 . S
