# Generated by pormake.
# Topology tsx, (6,3)-cn, num edge types: 1
# Building blocks:
#     Node 0, Type 0, BuildingBlock: CIFDUS_clean_sbu_1, # of connection points: 6
#     Node 1, Type 0, BuildingBlock: CIFDUS_clean_sbu_1, # of connection points: 6
#     Node 2, Type 1, BuildingBlock: INOVEN_clean_linker_0, # of connection points: 3
#     Node 3, Type 1, BuildingBlock: INOVEN_clean_linker_0, # of connection points: 3
#     Node 4, Type 1, BuildingBlock: INOVEN_clean_linker_0, # of connection points: 3
#     Node 5, Type 1, BuildingBlock: INOVEN_clean_linker_0, # of connection points: 3
#     Edge 6, Type (0, 1), BuildingBlock: CIFDUS_clean_linker_0, # of connection points: 2
#     Edge 7, Type (0, 1), BuildingBlock: CIFDUS_clean_linker_0, # of connection points: 2
#     Edge 8, Type (0, 1), BuildingBlock: CIFDUS_clean_linker_0, # of connection points: 2
#     Edge 9, Type (0, 1), BuildingBlock: CIFDUS_clean_linker_0, # of connection points: 2
#     Edge 10, Type (0, 1), BuildingBlock: CIFDUS_clean_linker_0, # of connection points: 2
#     Edge 11, Type (0, 1), BuildingBlock: CIFDUS_clean_linker_0, # of connection points: 2
#     Edge 12, Type (0, 1), BuildingBlock: CIFDUS_clean_linker_0, # of connection points: 2
#     Edge 13, Type (0, 1), BuildingBlock: CIFDUS_clean_linker_0, # of connection points: 2
#     Edge 14, Type (0, 1), BuildingBlock: CIFDUS_clean_linker_0, # of connection points: 2
#     Edge 15, Type (0, 1), BuildingBlock: CIFDUS_clean_linker_0, # of connection points: 2
#     Edge 16, Type (0, 1), BuildingBlock: CIFDUS_clean_linker_0, # of connection points: 2
#     Edge 17, Type (0, 1), BuildingBlock: CIFDUS_clean_linker_0, # of connection points: 2
# Relax obj value: 0.088
# Max RMSD: 0.135
# Mean RMSD: 0.102
data_MOF--net-tsx--node1-CIFDUS_clean_sbu_1--node2-INOVEN_clean_linker_0--edge1-CIFDUS_clean_linker_0
_symmetry_space_group_name_H-M    P1
_symmetry_Int_Tables_number       1
_symmetry_cell_setting            triclinic
loop_
_symmetry_equiv_pos_as_xyz
'x, y, z'
_cell_length_a     15.681767
_cell_length_b     19.92542
_cell_length_c     30.610098
_cell_angle_alpha  96.911955
_cell_angle_beta   103.62064
_cell_angle_gamma 91.169916
loop_
_atom_site_label
_atom_site_type_symbol
_atom_site_fract_x
_atom_site_fract_y
_atom_site_fract_z
_atom_type_partial_charge
O0 O 0.03067 0.11437 -0.0097 0.0
Mn1 Mn 0.09554 0.02409 -0.00713 0.0
O2 O 0.9035 0.08869 0.93694 0.0
Mn3 Mn 0.92642 0.00208 0.91494 0.0
O4 O 0.1573 0.93279 -0.00738 0.0
O5 O 0.20935 0.0762 0.02311 0.0
Mn6 Mn 0.27033 0.03213 0.06607 0.0
O7 O 0.07055 0.01675 0.05615 0.0
O8 O 0.29298 0.94986 0.03763 0.0
O9 O 0.12312 0.0333 0.92984 0.0
O10 O 1.00114 -0.00364 0.87625 0.0
O11 O 0.33774 0.10905 0.06643 0.0
O12 O 0.20142 0.02796 0.10725 0.0
C13 C 0.9199 0.92364 0.95638 0.0
C14 C 0.95524 0.12964 0.96757 0.0
C15 C 0.2341 0.91262 0.00864 0.0
C16 C 0.27267 0.12197 0.03428 0.0
C17 C 0.11791 0.02006 0.09684 0.0
C18 C 0.08176 0.01654 0.88826 0.0
O19 O 0.98264 0.96966 0.96382 0.0
O20 O 0.85911 0.92754 0.9201 0.0
O21 O 0.48777 0.61067 0.48609 0.0
Mn22 Mn 0.56263 0.52232 0.48494 0.0
O23 O 0.35082 0.57852 0.44609 0.0
Mn24 Mn 0.38456 0.50077 0.41732 0.0
O25 O 0.63817 0.43461 0.48423 0.0
O26 O 0.67314 0.5834 0.51017 0.0
Mn27 Mn 0.73697 0.54655 0.55616 0.0
O28 O 0.54582 0.51261 0.54964 0.0
O29 O 0.76712 0.46217 0.53452 0.0
O30 O 0.57796 0.53323 0.41999 0.0
O31 O 0.44359 0.51313 0.37325 0.0
O32 O 0.80158 0.62209 0.55292 0.0
O33 O 0.67283 0.54833 0.59938 0.0
C34 C 0.39066 0.41214 0.44978 0.0
C35 C 0.40556 0.62208 0.47231 0.0
C36 C 0.71614 0.41995 0.50481 0.0
C37 C 0.73608 0.63021 0.51956 0.0
C38 C 0.59239 0.52854 0.59017 0.0
C39 C 0.52532 0.52856 0.38052 0.0
O40 O 0.45299 0.45973 0.45956 0.0
O41 O 0.32502 0.42111 0.41664 0.0
H42 H 0.10155 0.98668 0.46937 0.0
H43 H 0.17297 0.89893 0.34854 0.0
H44 H 0.95653 0.02879 0.33806 0.0
N45 N 0.97153 0.06105 0.42718 0.0
N46 N 0.90488 0.08413 0.40363 0.0
C47 C 0.08984 0.97952 0.43286 0.0
C48 C 0.14433 0.93754 0.41195 0.0
C49 C 1.02198 0.0135 0.40638 0.0
C50 C 1.00842 0.00342 0.35882 0.0
C51 C 0.06259 0.96259 0.33766 0.0
C52 C 0.13001 0.92993 0.36454 0.0
H53 H 0.98532 0.00958 0.5088 0.0
H54 H 0.97834 0.92837 0.63144 0.0
H55 H 0.18633 0.07213 0.63107 0.0
N56 N 0.1298 0.08774 0.54165 0.0
N57 N 0.19848 0.124 0.55832 0.0
C58 C 1.0137 0.00675 0.54431 0.0
C59 C 0.97259 0.96458 0.56754 0.0
C60 C 0.09072 0.04594 0.56688 0.0
C61 C 0.12701 0.04239 0.61332 0.0
C62 C 0.08711 -0.00081 0.63659 0.0
C63 C 1.00985 0.96125 0.61347 0.0
H64 H 0.65137 0.48494 0.96436 0.0
H65 H 0.66042 0.37789 0.83577 0.0
H66 H 0.48714 0.54209 0.84275 0.0
N67 N 0.53168 0.57002 0.93328 0.0
N68 N 0.46074 0.59563 0.91808 0.0
C69 C 0.62811 0.4778 0.92786 0.0
C70 C 0.65904 0.4252 0.90245 0.0
C71 C 0.56493 0.51903 0.90654 0.0
C72 C 0.53625 0.50986 0.85911 0.0
C73 C 0.57257 0.46089 0.83278 0.0
C74 C 0.633 0.41745 0.855 0.0
H75 H 0.5499 0.49233 0.00399 0.0
H76 H 0.45321 0.46343 0.12059 0.0
H77 H 0.65047 0.62072 0.13015 0.0
N78 N 0.66229 0.59446 0.04243 0.0
N79 N 0.71363 0.6432 0.06226 0.0
C80 C 0.55082 0.5067 0.03918 0.0
C81 C 0.49545 0.47083 0.05905 0.0
C82 C 0.60756 0.5602 0.06439 0.0
C83 C 0.60746 0.57927 0.11015 0.0
C84 C 0.55037 0.54508 0.12991 0.0
C85 C 0.49461 0.49119 0.10439 0.0
H86 H 0.38938 0.16728 -0.00731 0.0
H87 H 0.16139 0.22309 0.04131 0.0
H88 H 0.20454 0.34321 0.04635 0.0
H89 H 0.3259 0.4287 0.0543 0.0
H90 H 0.55809 0.36955 0.00992 0.0
H91 H 0.49434 0.25495 0.98489 0.0
C92 C 0.34703 0.20603 0.00215 0.0
C93 C 0.27262 0.18705 0.01658 0.0
C94 C 0.37462 0.27439 0.00692 0.0
C95 C 0.21835 0.23697 0.02941 0.0
C96 C 0.24406 0.30555 0.03315 0.0
C97 C 0.36144 0.39097 0.03819 0.0
C98 C 0.44719 0.40722 0.03465 0.0
C99 C 0.32507 0.32446 0.02483 0.0
C100 C 0.49202 0.35838 0.01295 0.0
C101 C 0.45585 0.29261 -0.00106 0.0
H102 H 0.3836 0.8494 0.03891 0.0
H103 H 0.13713 0.8246 0.93787 0.0
H104 H 0.18495 0.72022 0.90254 0.0
H105 H 0.30252 0.64153 0.8966 0.0
H106 H 0.54959 0.67062 -0.00408 0.0
H107 H 0.49594 0.76764 0.03598 0.0
C108 C 0.33983 0.82099 0.0094 0.0
C109 C 0.25747 0.84526 -0.00927 0.0
C110 C 0.3681 0.7619 -0.0111 0.0
C111 C 0.20118 0.80724 0.95281 0.0
C112 C 0.22854 0.7477 0.93246 0.0
C113 C 0.34362 0.66901 0.92734 0.0
C114 C 0.42898 0.649 0.94365 0.0
C115 C 0.31267 0.72551 0.94961 0.0
C116 C 0.48294 0.68447 0.9833 0.0
C117 C 0.4525 0.74025 0.00596 0.0
H118 H 0.86609 0.79418 0.92879 0.0
H119 H 0.94545 0.93891 0.04877 0.0
H120 H 0.89953 0.8587 0.09406 0.0
H121 H 0.81471 0.75359 0.09672 0.0
H122 H 0.72394 0.61391 0.9746 0.0
H123 H 0.79453 0.68546 0.93278 0.0
C124 C 0.87547 0.80729 0.96512 0.0
C125 C 0.91188 0.8716 0.98575 0.0
C126 C 0.84427 0.76216 -0.00976 0.0
C127 C 0.9223 0.88868 0.03258 0.0
C128 C 0.89369 0.84323 0.05824 0.0
C129 C 0.81214 0.73861 0.06116 0.0
C130 C 0.76373 0.67928 0.03876 0.0
C131 C 0.85174 0.78077 0.03709 0.0
C132 C 0.76018 0.65973 -0.00741 0.0
C133 C 0.80058 0.70065 0.96864 0.0
H134 H 0.79999 0.16427 0.98143 0.0
H135 H 0.04348 0.24716 0.96373 0.0
H136 H 0.97369 0.3528 0.94575 0.0
H137 H 0.83562 0.4118 0.92139 0.0
H138 H 0.59188 0.32353 0.93529 0.0
H139 H 0.66863 0.22933 0.96832 0.0
C140 C 0.83828 0.20659 0.97522 0.0
C141 C 0.92608 0.19864 0.9737 0.0
C142 C 0.79681 0.26517 0.963 0.0
C143 C 0.97586 0.25303 0.96561 0.0
C144 C 0.93552 0.31276 0.95452 0.0
C145 C 0.80029 0.37215 0.93233 0.0
C146 C 0.70882 0.37321 0.92577 0.0
C147 C 0.84492 0.31786 0.95081 0.0
C148 C 0.66255 0.32268 0.94014 0.0
C149 C 0.70628 0.26914 0.95894 0.0
H150 H 0.67151 0.74903 0.54249 0.0
H151 H 0.81532 0.64904 0.45227 0.0
H152 H 0.89514 0.75554 0.45189 0.0
H153 H 0.95219 0.867 0.49495 0.0
H154 H 0.81616 0.96252 0.59084 0.0
H155 H 0.7048 0.86934 0.57112 0.0
C156 C 0.71631 0.7517 0.52052 0.0
C157 C 0.73753 0.69151 0.49742 0.0
C158 C 0.76605 0.81224 0.52305 0.0
C159 C 0.79707 0.69501 0.46983 0.0
C160 C 0.84426 0.75572 0.4705 0.0
C161 C 0.8961 0.86854 0.51004 0.0
C162 C 0.8929 0.92082 0.54479 0.0
C163 C 0.83385 0.81333 0.49967 0.0
C164 C 0.82027 0.92228 0.56436 0.0
C165 C 0.7568 0.86885 0.55322 0.0
H166 H 0.66208 0.32406 0.42934 0.0
H167 H 0.85254 0.36322 0.55785 0.0
H168 H 0.92504 0.26044 0.54021 0.0
H169 H 0.94289 0.16286 0.48588 0.0
H170 H 0.75571 0.12382 0.35693 0.0
H171 H 0.6738 0.22148 0.37711 0.0
C172 C 0.71862 0.30961 0.4537 0.0
C173 C 0.75187 0.35232 0.49462 0.0
C174 C 0.76141 0.25004 0.44319 0.0
C175 C 0.82564 0.3323 0.52571 0.0
C176 C 0.86753 0.27317 0.51576 0.0
C177 C 0.88338 0.17515 0.46262 0.0
C178 C 0.85479 0.13614 0.41992 0.0
C179 C 0.8373 0.23221 0.47424 0.0
C180 C 0.7782 0.15317 0.39002 0.0
C181 C 0.73166 0.20915 0.40147 0.0
H182 H 0.29102 0.29826 0.41852 0.0
H183 H 0.47637 0.39467 0.53778 0.0
H184 H 0.43596 0.30952 0.58206 0.0
H185 H 0.33355 0.21473 0.58801 0.0
H186 H 0.14507 0.12496 0.46748 0.0
H187 H 0.20038 0.20034 0.42263 0.0
C188 C 0.32379 0.30031 0.45411 0.0
C189 C 0.38562 0.35364 0.47501 0.0
C190 C 0.29826 0.25267 0.47925 0.0
C191 C 0.42833 0.35463 0.5209 0.0
C192 C 0.40451 0.30613 0.54627 0.0
C193 C 0.30554 0.21163 0.55186 0.0
C194 C 0.23469 0.16489 0.53134 0.0
C195 C 0.33723 0.25624 0.52608 0.0
C196 C 0.19891 0.16075 0.48434 0.0
C197 C 0.23069 0.20385 0.45857 0.0
H198 H 0.45613 0.74659 0.45553 0.0
H199 H 0.26883 0.6443 0.51058 0.0
H200 H 0.1757 0.74115 0.50463 0.0
H201 H 0.1334 0.8444 0.46922 0.0
H202 H 0.31692 0.94395 0.4103 0.0
H203 H 0.42541 0.86048 0.43282 0.0
C204 C 0.39693 0.74695 0.46807 0.0
C205 C 0.36969 0.6885 0.48373 0.0
C206 C 0.34162 0.8021 0.46282 0.0
C207 C 0.29153 0.68897 0.49878 0.0
C208 C 0.23766 0.74412 0.49489 0.0
C209 C 0.19832 0.84914 0.46288 0.0
C210 C 0.21673 0.89995 0.43778 0.0
C211 C 0.25977 0.79955 0.47482 0.0
C212 C 0.30099 0.90503 0.42937 0.0
C213 C 0.36295 0.85699 0.442 0.0
H214 H 0.10016 0.90922 0.13638 0.0
H215 H 0.04833 0.121 0.14211 0.0
H216 H 1.01649 0.12031 0.21671 0.0
H217 H 1.02692 0.06357 0.28433 0.0
H218 H 0.07822 0.85097 0.27871 0.0
H219 H 0.0873 0.84776 0.19998 0.0
C220 C 0.07909 0.95445 0.15355 0.0
C221 C 0.07584 0.01496 0.13425 0.0
C222 C 0.06293 0.95383 0.19668 0.0
C223 C 0.04991 0.07381 0.15651 0.0
C224 C 0.03271 0.07349 0.19923 0.0
C225 C 0.0375 0.01596 0.26564 0.0
C226 C 0.05352 0.9579 0.28783 0.0
C227 C 0.04239 0.0144 0.22034 0.0
C228 C 0.06804 0.8969 0.26292 0.0
C229 C 0.07273 0.89487 0.21779 0.0
H230 H 0.12199 0.91869 0.82942 0.0
H231 H 0.12919 0.13499 0.86321 0.0
H232 H 0.14778 0.15036 0.78762 0.0
H233 H 0.13032 0.10068 0.70755 0.0
H234 H 0.12095 0.88365 0.67472 0.0
H235 H 0.13697 0.86984 0.75428 0.0
C236 C 0.13148 0.96907 0.82071 0.0
C237 C 0.12457 0.02563 0.85143 0.0
C238 C 0.14007 0.97723 0.77703 0.0
C239 C 0.13557 0.09085 0.84001 0.0
C240 C 0.145 0.09953 0.79663 0.0
C241 C 0.13499 0.0506 0.71818 0.0
C242 C 0.12247 0.9932 0.68532 0.0
C243 C 0.14276 0.04298 0.7641 0.0
C244 C 0.12876 0.92849 0.69942 0.0
C245 C 0.13768 0.92054 0.74486 0.0
H246 H 0.55691 0.41525 0.62398 0.0
H247 H 0.54982 0.63257 0.64364 0.0
H248 H 0.53156 0.62971 0.7205 0.0
H249 H 0.54597 0.56778 0.78503 0.0
H250 H 0.55467 0.34983 0.76741 0.0
H251 H 0.54544 0.35048 0.68663 0.0
C252 C 0.54765 0.46144 0.64466 0.0
C253 C 0.55371 0.52399 0.62866 0.0
C254 C 0.54051 0.45943 0.68935 0.0
C255 C 0.54413 0.58401 0.65559 0.0
C256 C 0.53477 0.58237 0.69955 0.0
C257 C 0.54272 0.51995 0.76355 0.0
C258 C 0.5524 0.45895 0.78266 0.0
C259 C 0.53705 0.52066 0.71736 0.0
C260 C 0.54981 0.3978 0.75396 0.0
C261 C 0.54383 0.39803 0.70766 0.0
H262 H 0.44121 0.59396 0.31324 0.0
H263 H 0.68095 0.49407 0.35933 0.0
H264 H 0.71727 0.49913 0.28585 0.0
H265 H 0.66829 0.51751 0.20494 0.0
H266 H 0.42431 0.61253 0.15987 0.0
H267 H 0.40202 0.62482 0.23679 0.0
C268 C 0.50211 0.57418 0.30738 0.0
C269 C 0.55767 0.54258 0.34098 0.0
C270 C 0.5212 0.57624 0.26524 0.0
C271 C 0.63719 0.51836 0.33366 0.0
C272 C 0.65748 0.52087 0.29164 0.0
C273 C 0.61169 0.54244 0.21257 0.0
C274 C 0.54781 0.56429 0.1774 0.0
C275 C 0.59833 0.54757 0.25665 0.0
C276 C 0.474 0.59577 0.18685 0.0
C277 C 0.46118 0.60241 0.23061 0.0
loop_
_geom_bond_atom_site_label_1
_geom_bond_atom_site_label_2
_geom_bond_distance
_geom_bond_site_symmetry_2
_ccdc_geom_bond_type
O0 Mn1 2.163 1_655 S
O0 C14 1.244 . S
Mn1 O0 2.163 1_455 S
Mn1 O4 2.160 1_545 S
Mn1 O5 2.221 1_556 S
Mn1 O7 2.161 1_546 S
Mn1 O9 2.160 . S
Mn1 O19 2.221 1_445 S
O2 Mn3 2.087 1_545 S
O2 C14 1.256 . S
Mn3 O2 2.087 1_565 S
Mn3 O10 2.089 1_565 S
Mn3 O19 2.290 . S
Mn3 O20 2.251 . S
O4 Mn1 2.160 1_565 S
O4 C15 1.239 1_556 S
O5 Mn1 2.221 1_554 S
O5 Mn6 2.290 . S
O5 C16 1.278 . S
Mn6 O5 2.290 . S
Mn6 O8 2.089 1_545 S
Mn6 O11 2.251 . S
Mn6 O12 2.087 . S
O7 Mn1 2.161 1_564 S
O7 C17 1.244 1_565 S
O8 Mn6 2.089 1_565 S
O8 C15 1.256 . S
O9 Mn1 2.160 . S
O9 C18 1.239 . S
O10 Mn3 2.089 1_545 S
O10 C18 1.256 1_655 S
O11 Mn6 2.251 . S
O11 C16 1.241 . S
O12 Mn6 2.087 . S
O12 C17 1.256 . S
C13 O19 1.278 . S
C13 O20 1.241 . S
C14 O0 1.244 . S
C14 O2 1.256 . S
C15 O4 1.239 1_554 S
C15 O8 1.256 . S
C16 O5 1.278 . S
C16 O11 1.241 . S
C17 O7 1.244 1_545 S
C17 O12 1.256 . S
C18 O9 1.239 . S
C18 O10 1.256 1_455 S
O19 Mn1 2.221 1_665 S
O19 Mn3 2.290 . S
O19 C13 1.278 . S
O20 Mn3 2.251 . S
O20 C13 1.241 . S
O21 Mn22 2.163 . S
O21 C35 1.244 . S
Mn22 O21 2.163 . S
Mn22 O25 2.160 . S
Mn22 O26 2.221 . S
Mn22 O28 2.163 . S
Mn22 O30 2.160 . S
Mn22 O40 2.221 . S
O23 Mn24 2.087 . S
O23 C35 1.256 . S
Mn24 O23 2.087 . S
Mn24 O31 2.089 . S
Mn24 O40 2.290 . S
Mn24 O41 2.251 . S
O25 Mn22 2.160 . S
O25 C36 1.239 . S
O26 Mn22 2.221 . S
O26 Mn27 2.290 . S
O26 C37 1.278 . S
Mn27 O26 2.290 . S
Mn27 O29 2.089 . S
Mn27 O32 2.251 . S
Mn27 O33 2.087 . S
O28 Mn22 2.163 . S
O28 C38 1.244 . S
O29 Mn27 2.089 . S
O29 C36 1.256 . S
O30 Mn22 2.160 . S
O30 C39 1.239 . S
O31 Mn24 2.089 . S
O31 C39 1.256 . S
O32 Mn27 2.251 . S
O32 C37 1.241 . S
O33 Mn27 2.087 . S
O33 C38 1.256 . S
C34 O40 1.278 . S
C34 O41 1.241 . S
C35 O21 1.244 . S
C35 O23 1.256 . S
C36 O25 1.239 . S
C36 O29 1.256 . S
C37 O26 1.278 . S
C37 O32 1.241 . S
C38 O28 1.244 . S
C38 O33 1.256 . S
C39 O30 1.239 . S
C39 O31 1.256 . S
O40 Mn22 2.221 . S
O40 Mn24 2.290 . S
O40 C34 1.278 . S
O41 Mn24 2.251 . S
O41 C34 1.241 . S
H42 C47 0.929 . S
H43 C52 0.931 . S
H44 C50 0.930 . S
N45 N46 1.234 . S
N45 C49 1.453 1_655 S
N46 N45 1.234 . S
C47 H42 0.929 . S
C47 C48 1.373 . S
C47 C49 1.368 1_565 S
C48 C47 1.373 . S
C48 C52 1.397 . S
C49 N45 1.453 1_455 S
C49 C47 1.368 1_545 S
C49 C50 1.373 . S
C50 H44 0.930 . S
C50 C49 1.373 . S
C50 C51 1.371 1_545 S
C51 C50 1.371 1_565 S
C51 C52 1.383 . S
C52 H43 0.931 . S
C52 C48 1.397 . S
C52 C51 1.383 . S
H53 C58 0.929 . S
H54 C63 0.931 . S
H55 C61 0.930 . S
N56 N57 1.234 . S
N56 C60 1.453 . S
N57 N56 1.234 . S
C58 H53 0.929 . S
C58 C59 1.373 1_545 S
C58 C60 1.368 1_655 S
C59 C58 1.373 1_565 S
C59 C63 1.397 . S
C60 N56 1.453 . S
C60 C58 1.368 1_455 S
C60 C61 1.373 . S
C61 H55 0.930 . S
C61 C60 1.373 . S
C61 C62 1.371 1_455 S
C62 C61 1.371 1_655 S
C62 C63 1.383 1_545 S
C63 H54 0.931 . S
C63 C59 1.397 . S
C63 C62 1.383 1_565 S
H64 C69 0.911 1_554 S
H65 C74 0.931 . S
H66 C72 0.930 . S
N67 N68 1.234 . S
N67 C71 1.453 . S
N68 N67 1.234 . S
C69 H64 0.911 1_556 S
C69 C70 1.373 . S
C69 C71 1.368 . S
C70 C69 1.373 . S
C70 C74 1.397 . S
C71 N67 1.453 . S
C71 C69 1.368 . S
C71 C72 1.373 . S
C72 H66 0.930 . S
C72 C71 1.373 . S
C72 C73 1.371 . S
C73 C72 1.371 . S
C73 C74 1.383 . S
C74 H65 0.931 . S
C74 C70 1.397 . S
C74 C73 1.383 . S
H75 C80 0.929 1_556 S
H76 C85 0.931 . S
H77 C83 0.930 . S
N78 N79 1.234 . S
N78 C82 1.453 . S
N79 N78 1.234 . S
C80 H75 0.929 1_554 S
C80 C81 1.373 . S
C80 C82 1.368 . S
C81 C80 1.373 . S
C81 C85 1.397 . S
C82 N78 1.453 . S
C82 C80 1.368 . S
C82 C83 1.373 . S
C83 H77 0.930 . S
C83 C82 1.373 . S
C83 C84 1.371 . S
C84 C83 1.371 . S
C84 C85 1.383 . S
C85 H76 0.931 . S
C85 C81 1.397 . S
C85 C84 1.383 . S
H86 C92 0.930 . S
H87 C95 0.930 . S
H88 C96 0.930 . S
H89 C97 0.930 1_556 S
H90 C100 0.930 . S
H91 C101 0.930 . S
C92 H86 0.930 . S
C92 C93 1.355 . S
C92 C94 1.415 . S
C93 C92 1.355 . S
C93 C95 1.419 1_554 S
C94 C92 1.415 . S
C94 C99 1.425 . S
C94 C101 1.409 . S
C95 H87 0.930 . S
C95 C93 1.419 1_556 S
C95 C96 1.362 . S
C96 H88 0.930 . S
C96 C95 1.362 . S
C96 C99 1.409 1_556 S
C97 H89 0.930 1_554 S
C97 C98 1.355 . S
C97 C99 1.415 . S
C98 C97 1.355 . S
C98 C100 1.419 . S
C99 C94 1.425 . S
C99 C96 1.409 1_554 S
C99 C97 1.415 . S
C100 H90 0.930 . S
C100 C98 1.419 . S
C100 C101 1.362 . S
C101 H91 0.930 . S
C101 C94 1.409 . S
C101 C100 1.362 . S
H102 C108 0.930 . S
H103 C111 0.930 . S
H104 C112 0.930 . S
H105 C113 0.930 . S
H106 C116 0.930 . S
H107 C117 0.930 . S
C108 H102 0.930 . S
C108 C109 1.355 . S
C108 C110 1.415 . S
C109 C108 1.355 . S
C109 C111 1.419 1_554 S
C110 C108 1.415 . S
C110 C115 1.425 1_554 S
C110 C117 1.409 . S
C111 H103 0.930 . S
C111 C109 1.419 1_556 S
C111 C112 1.362 . S
C112 H104 0.930 . S
C112 C111 1.362 . S
C112 C115 1.409 . S
C113 H105 0.930 . S
C113 C114 1.355 . S
C113 C115 1.415 . S
C114 C113 1.355 . S
C114 C116 1.419 1_556 S
C115 C110 1.425 1_556 S
C115 C112 1.409 . S
C115 C113 1.415 . S
C116 H106 0.930 . S
C116 C114 1.419 1_554 S
C116 C117 1.362 . S
C117 H107 0.930 . S
C117 C110 1.409 . S
C117 C116 1.362 . S
H118 C124 0.930 . S
H119 C127 0.930 . S
H120 C128 0.930 . S
H121 C129 0.930 . S
H122 C132 0.930 . S
H123 C133 0.930 . S
C124 H118 0.930 . S
C124 C125 1.355 1_556 S
C124 C126 1.415 . S
C125 C124 1.355 1_554 S
C125 C127 1.419 . S
C126 C124 1.415 . S
C126 C131 1.425 1_556 S
C126 C133 1.409 . S
C127 H119 0.930 . S
C127 C125 1.419 . S
C127 C128 1.362 . S
C128 H120 0.930 . S
C128 C127 1.362 . S
C128 C131 1.409 . S
C129 H121 0.930 . S
C129 C130 1.355 . S
C129 C131 1.415 . S
C130 C129 1.355 . S
C130 C132 1.419 1_554 S
C131 C126 1.425 1_554 S
C131 C128 1.409 . S
C131 C129 1.415 . S
C132 H122 0.930 . S
C132 C130 1.419 1_556 S
C132 C133 1.362 . S
C133 H123 0.930 . S
C133 C126 1.409 . S
C133 C132 1.362 . S
H134 C140 0.930 . S
H135 C143 0.930 . S
H136 C144 0.930 . S
H137 C145 0.930 1_554 S
H138 C148 0.930 . S
H139 C149 0.930 . S
C140 H134 0.930 . S
C140 C141 1.355 . S
C140 C142 1.415 . S
C141 C140 1.355 . S
C141 C143 1.419 1_556 S
C142 C140 1.415 . S
C142 C147 1.425 . S
C142 C149 1.409 . S
C143 H135 0.930 . S
C143 C141 1.419 1_554 S
C143 C144 1.362 . S
C144 H136 0.930 . S
C144 C143 1.362 . S
C144 C147 1.409 1_554 S
C145 H137 0.930 1_556 S
C145 C146 1.355 . S
C145 C147 1.415 . S
C146 C145 1.355 . S
C146 C148 1.419 . S
C147 C142 1.425 . S
C147 C144 1.409 1_556 S
C147 C145 1.415 . S
C148 H138 0.930 . S
C148 C146 1.419 . S
C148 C149 1.362 . S
C149 H139 0.930 . S
C149 C142 1.409 . S
C149 C148 1.362 . S
H150 C156 0.930 . S
H151 C159 0.930 . S
H152 C160 0.930 . S
H153 C161 0.930 . S
H154 C164 0.930 . S
H155 C165 0.930 . S
C156 H150 0.930 . S
C156 C157 1.355 . S
C156 C158 1.415 . S
C157 C156 1.355 . S
C157 C159 1.419 . S
C158 C156 1.415 . S
C158 C163 1.425 . S
C158 C165 1.409 . S
C159 H151 0.930 . S
C159 C157 1.419 . S
C159 C160 1.362 . S
C160 H152 0.930 . S
C160 C159 1.362 . S
C160 C163 1.409 . S
C161 H153 0.930 . S
C161 C162 1.355 . S
C161 C163 1.415 . S
C162 C161 1.355 . S
C162 C164 1.419 . S
C163 C158 1.425 . S
C163 C160 1.409 . S
C163 C161 1.415 . S
C164 H154 0.930 . S
C164 C162 1.419 . S
C164 C165 1.362 . S
C165 H155 0.930 . S
C165 C158 1.409 . S
C165 C164 1.362 . S
H166 C172 0.930 . S
H167 C175 0.930 . S
H168 C176 0.930 . S
H169 C177 0.930 . S
H170 C180 0.930 . S
H171 C181 0.930 . S
C172 H166 0.930 . S
C172 C173 1.355 . S
C172 C174 1.415 . S
C173 C172 1.355 . S
C173 C175 1.419 . S
C174 C172 1.415 . S
C174 C179 1.425 . S
C174 C181 1.409 . S
C175 H167 0.930 . S
C175 C173 1.419 . S
C175 C176 1.362 . S
C176 H168 0.930 . S
C176 C175 1.362 . S
C176 C179 1.409 . S
C177 H169 0.930 . S
C177 C178 1.355 . S
C177 C179 1.415 . S
C178 C177 1.355 . S
C178 C180 1.419 . S
C179 C174 1.425 . S
C179 C176 1.409 . S
C179 C177 1.415 . S
C180 H170 0.930 . S
C180 C178 1.419 . S
C180 C181 1.362 . S
C181 H171 0.930 . S
C181 C174 1.409 . S
C181 C180 1.362 . S
H182 C188 0.930 . S
H183 C191 0.930 . S
H184 C192 0.930 . S
H185 C193 0.930 . S
H186 C196 0.930 . S
H187 C197 0.930 . S
C188 H182 0.930 . S
C188 C189 1.355 . S
C188 C190 1.415 . S
C189 C188 1.355 . S
C189 C191 1.419 . S
C190 C188 1.415 . S
C190 C195 1.425 . S
C190 C197 1.409 . S
C191 H183 0.930 . S
C191 C189 1.419 . S
C191 C192 1.362 . S
C192 H184 0.930 . S
C192 C191 1.362 . S
C192 C195 1.409 . S
C193 H185 0.930 . S
C193 C194 1.355 . S
C193 C195 1.415 . S
C194 C193 1.355 . S
C194 C196 1.419 . S
C195 C190 1.425 . S
C195 C192 1.409 . S
C195 C193 1.415 . S
C196 H186 0.930 . S
C196 C194 1.419 . S
C196 C197 1.362 . S
C197 H187 0.930 . S
C197 C190 1.409 . S
C197 C196 1.362 . S
H198 C204 0.930 . S
H199 C207 0.930 . S
H200 C208 0.930 . S
H201 C209 0.930 . S
H202 C212 0.930 . S
H203 C213 0.930 . S
C204 H198 0.930 . S
C204 C205 1.355 . S
C204 C206 1.415 . S
C205 C204 1.355 . S
C205 C207 1.419 . S
C206 C204 1.415 . S
C206 C211 1.425 . S
C206 C213 1.409 . S
C207 H199 0.930 . S
C207 C205 1.419 . S
C207 C208 1.362 . S
C208 H200 0.930 . S
C208 C207 1.362 . S
C208 C211 1.409 . S
C209 H201 0.930 . S
C209 C210 1.355 . S
C209 C211 1.415 . S
C210 C209 1.355 . S
C210 C212 1.419 . S
C211 C206 1.425 . S
C211 C208 1.409 . S
C211 C209 1.415 . S
C212 H202 0.930 . S
C212 C210 1.419 . S
C212 C213 1.362 . S
C213 H203 0.930 . S
C213 C206 1.409 . S
C213 C212 1.362 . S
H214 C220 0.930 . S
H215 C223 0.930 . S
H216 C224 0.930 . S
H217 C225 0.930 . S
H218 C228 0.930 . S
H219 C229 0.930 . S
C220 H214 0.930 . S
C220 C221 1.355 1_565 S
C220 C222 1.415 . S
C221 C220 1.355 1_545 S
C221 C223 1.419 . S
C222 C220 1.415 . S
C222 C227 1.425 1_565 S
C222 C229 1.409 . S
C223 H215 0.930 . S
C223 C221 1.419 . S
C223 C224 1.362 . S
C224 H216 0.930 . S
C224 C223 1.362 . S
C224 C227 1.409 . S
C225 H217 0.930 . S
C225 C226 1.355 1_545 S
C225 C227 1.415 . S
C226 C225 1.355 1_565 S
C226 C228 1.419 . S
C227 C222 1.425 1_545 S
C227 C224 1.409 . S
C227 C225 1.415 . S
C228 H218 0.930 . S
C228 C226 1.419 . S
C228 C229 1.362 . S
C229 H219 0.930 . S
C229 C222 1.409 . S
C229 C228 1.362 . S
H230 C236 0.930 1_565 S
H231 C239 0.930 . S
H232 C240 0.930 . S
H233 C241 0.930 . S
H234 C244 0.930 . S
H235 C245 0.930 . S
C236 H230 0.930 1_545 S
C236 C237 1.355 . S
C236 C238 1.415 . S
C237 C236 1.355 . S
C237 C239 1.419 1_455 S
C238 C236 1.415 . S
C238 C243 1.425 1_455 S
C238 C245 1.409 1_545 S
C239 H231 0.930 . S
C239 C237 1.419 1_655 S
C239 C240 1.362 . S
C240 H232 0.930 . S
C240 C239 1.362 . S
C240 C243 1.409 . S
C241 H233 0.930 . S
C241 C242 1.354 1_655 S
C241 C243 1.415 . S
C242 C241 1.354 1_455 S
C242 C244 1.420 1_545 S
C243 C238 1.425 1_655 S
C243 C240 1.409 . S
C243 C241 1.415 . S
C244 H234 0.930 . S
C244 C242 1.420 1_565 S
C244 C245 1.362 . S
C245 H235 0.930 . S
C245 C238 1.409 1_565 S
C245 C244 1.362 . S
H246 C252 0.930 . S
H247 C255 0.930 . S
H248 C256 0.930 . S
H249 C257 0.930 . S
H250 C260 0.930 . S
H251 C261 0.930 . S
C252 H246 0.930 . S
C252 C253 1.355 . S
C252 C254 1.415 . S
C253 C252 1.355 . S
C253 C255 1.419 . S
C254 C252 1.415 . S
C254 C259 1.425 . S
C254 C261 1.409 . S
C255 H247 0.930 . S
C255 C253 1.419 . S
C255 C256 1.362 . S
C256 H248 0.930 . S
C256 C255 1.362 . S
C256 C259 1.409 . S
C257 H249 0.930 . S
C257 C258 1.355 . S
C257 C259 1.415 . S
C258 C257 1.355 . S
C258 C260 1.419 . S
C259 C254 1.425 . S
C259 C256 1.409 . S
C259 C257 1.415 . S
C260 H250 0.930 . S
C260 C258 1.419 . S
C260 C261 1.362 . S
C261 H251 0.930 . S
C261 C254 1.409 . S
C261 C260 1.362 . S
H262 C268 0.930 . S
H263 C271 0.930 . S
H264 C272 0.930 . S
H265 C273 0.930 . S
H266 C276 0.930 . S
H267 C277 0.930 . S
C268 H262 0.930 . S
C268 C269 1.355 . S
C268 C270 1.415 . S
C269 C268 1.355 . S
C269 C271 1.419 . S
C270 C268 1.415 . S
C270 C275 1.425 . S
C270 C277 1.409 . S
C271 H263 0.930 . S
C271 C269 1.419 . S
C271 C272 1.362 . S
C272 H264 0.930 . S
C272 C271 1.362 . S
C272 C275 1.409 . S
C273 H265 0.930 . S
C273 C274 1.355 . S
C273 C275 1.415 . S
C274 C273 1.355 . S
C274 C276 1.419 . S
C275 C270 1.425 . S
C275 C272 1.409 . S
C275 C273 1.415 . S
C276 H266 0.930 . S
C276 C274 1.419 . S
C276 C277 1.362 . S
C277 H267 0.930 . S
C277 C270 1.409 . S
C277 C276 1.362 . S
C98 C81 1.430 . S
C93 C16 1.381 . S
C109 C15 1.420 . S
C114 N68 1.434 . S
C125 C13 1.272 1_554 S
C130 N79 1.450 . S
C141 C14 1.456 . S
C146 C70 1.446 . S
C157 C37 1.311 . S
C162 C59 1.457 . S
C173 C36 1.436 . S
C178 N46 1.379 . S
C194 N57 1.461 . S
C189 C34 1.316 . S
C210 C48 1.438 . S
C205 C35 1.422 . S
C221 C17 1.567 . S
C226 C51 1.595 . S
C237 C18 1.385 . S
C242 C62 1.397 1_455 S
C258 C73 1.599 . S
C253 C38 1.536 . S
C269 C39 1.358 . S
C274 C84 1.428 . S
