# Generated by pormake.
# Topology ctn, (3,4)-cn, num edge types: 1
# Building blocks:
#     Node 0, Type 0, BuildingBlock: BETDAH_clean_linker_0, # of connection points: 3
#     Node 1, Type 0, BuildingBlock: BETDAH_clean_linker_0, # of connection points: 3
#     Node 2, Type 0, BuildingBlock: BETDAH_clean_linker_0, # of connection points: 3
#     Node 3, Type 0, BuildingBlock: BETDAH_clean_linker_0, # of connection points: 3
#     Node 4, Type 0, BuildingBlock: BETDAH_clean_linker_0, # of connection points: 3
#     Node 5, Type 0, BuildingBlock: BETDAH_clean_linker_0, # of connection points: 3
#     Node 6, Type 0, BuildingBlock: BETDAH_clean_linker_0, # of connection points: 3
#     Node 7, Type 0, BuildingBlock: BETDAH_clean_linker_0, # of connection points: 3
#     Node 8, Type 0, BuildingBlock: BETDAH_clean_linker_0, # of connection points: 3
#     Node 9, Type 0, BuildingBlock: BETDAH_clean_linker_0, # of connection points: 3
#     Node 10, Type 0, BuildingBlock: BETDAH_clean_linker_0, # of connection points: 3
#     Node 11, Type 0, BuildingBlock: BETDAH_clean_linker_0, # of connection points: 3
#     Node 12, Type 0, BuildingBlock: BETDAH_clean_linker_0, # of connection points: 3
#     Node 13, Type 0, BuildingBlock: BETDAH_clean_linker_0, # of connection points: 3
#     Node 14, Type 0, BuildingBlock: BETDAH_clean_linker_0, # of connection points: 3
#     Node 15, Type 0, BuildingBlock: BETDAH_clean_linker_0, # of connection points: 3
#     Node 16, Type 1, BuildingBlock: KUFVIS_clean_sbu_0, # of connection points: 4
#     Node 17, Type 1, BuildingBlock: KUFVIS_clean_sbu_0, # of connection points: 4
#     Node 18, Type 1, BuildingBlock: KUFVIS_clean_sbu_0, # of connection points: 4
#     Node 19, Type 1, BuildingBlock: KUFVIS_clean_sbu_0, # of connection points: 4
#     Node 20, Type 1, BuildingBlock: KUFVIS_clean_sbu_0, # of connection points: 4
#     Node 21, Type 1, BuildingBlock: KUFVIS_clean_sbu_0, # of connection points: 4
#     Node 22, Type 1, BuildingBlock: KUFVIS_clean_sbu_0, # of connection points: 4
#     Node 23, Type 1, BuildingBlock: KUFVIS_clean_sbu_0, # of connection points: 4
#     Node 24, Type 1, BuildingBlock: KUFVIS_clean_sbu_0, # of connection points: 4
#     Node 25, Type 1, BuildingBlock: KUFVIS_clean_sbu_0, # of connection points: 4
#     Node 26, Type 1, BuildingBlock: KUFVIS_clean_sbu_0, # of connection points: 4
#     Node 27, Type 1, BuildingBlock: KUFVIS_clean_sbu_0, # of connection points: 4
#     Edge 28, Type (0, 1), BuildingBlock: EZIPEK_clean_linker_0, # of connection points: 2
#     Edge 29, Type (0, 1), BuildingBlock: EZIPEK_clean_linker_0, # of connection points: 2
#     Edge 30, Type (0, 1), BuildingBlock: EZIPEK_clean_linker_0, # of connection points: 2
#     Edge 31, Type (0, 1), BuildingBlock: EZIPEK_clean_linker_0, # of connection points: 2
#     Edge 32, Type (0, 1), BuildingBlock: EZIPEK_clean_linker_0, # of connection points: 2
#     Edge 33, Type (0, 1), BuildingBlock: EZIPEK_clean_linker_0, # of connection points: 2
#     Edge 34, Type (0, 1), BuildingBlock: EZIPEK_clean_linker_0, # of connection points: 2
#     Edge 35, Type (0, 1), BuildingBlock: EZIPEK_clean_linker_0, # of connection points: 2
#     Edge 36, Type (0, 1), BuildingBlock: EZIPEK_clean_linker_0, # of connection points: 2
#     Edge 37, Type (0, 1), BuildingBlock: EZIPEK_clean_linker_0, # of connection points: 2
#     Edge 38, Type (0, 1), BuildingBlock: EZIPEK_clean_linker_0, # of connection points: 2
#     Edge 39, Type (0, 1), BuildingBlock: EZIPEK_clean_linker_0, # of connection points: 2
#     Edge 40, Type (0, 1), BuildingBlock: EZIPEK_clean_linker_0, # of connection points: 2
#     Edge 41, Type (0, 1), BuildingBlock: EZIPEK_clean_linker_0, # of connection points: 2
#     Edge 42, Type (0, 1), BuildingBlock: EZIPEK_clean_linker_0, # of connection points: 2
#     Edge 43, Type (0, 1), BuildingBlock: EZIPEK_clean_linker_0, # of connection points: 2
#     Edge 44, Type (0, 1), BuildingBlock: EZIPEK_clean_linker_0, # of connection points: 2
#     Edge 45, Type (0, 1), BuildingBlock: EZIPEK_clean_linker_0, # of connection points: 2
#     Edge 46, Type (0, 1), BuildingBlock: EZIPEK_clean_linker_0, # of connection points: 2
#     Edge 47, Type (0, 1), BuildingBlock: EZIPEK_clean_linker_0, # of connection points: 2
#     Edge 48, Type (0, 1), BuildingBlock: EZIPEK_clean_linker_0, # of connection points: 2
#     Edge 49, Type (0, 1), BuildingBlock: EZIPEK_clean_linker_0, # of connection points: 2
#     Edge 50, Type (0, 1), BuildingBlock: EZIPEK_clean_linker_0, # of connection points: 2
#     Edge 51, Type (0, 1), BuildingBlock: EZIPEK_clean_linker_0, # of connection points: 2
#     Edge 52, Type (0, 1), BuildingBlock: EZIPEK_clean_linker_0, # of connection points: 2
#     Edge 53, Type (0, 1), BuildingBlock: EZIPEK_clean_linker_0, # of connection points: 2
#     Edge 54, Type (0, 1), BuildingBlock: EZIPEK_clean_linker_0, # of connection points: 2
#     Edge 55, Type (0, 1), BuildingBlock: EZIPEK_clean_linker_0, # of connection points: 2
#     Edge 56, Type (0, 1), BuildingBlock: EZIPEK_clean_linker_0, # of connection points: 2
#     Edge 57, Type (0, 1), BuildingBlock: EZIPEK_clean_linker_0, # of connection points: 2
#     Edge 58, Type (0, 1), BuildingBlock: EZIPEK_clean_linker_0, # of connection points: 2
#     Edge 59, Type (0, 1), BuildingBlock: EZIPEK_clean_linker_0, # of connection points: 2
#     Edge 60, Type (0, 1), BuildingBlock: EZIPEK_clean_linker_0, # of connection points: 2
#     Edge 61, Type (0, 1), BuildingBlock: EZIPEK_clean_linker_0, # of connection points: 2
#     Edge 62, Type (0, 1), BuildingBlock: EZIPEK_clean_linker_0, # of connection points: 2
#     Edge 63, Type (0, 1), BuildingBlock: EZIPEK_clean_linker_0, # of connection points: 2
#     Edge 64, Type (0, 1), BuildingBlock: EZIPEK_clean_linker_0, # of connection points: 2
#     Edge 65, Type (0, 1), BuildingBlock: EZIPEK_clean_linker_0, # of connection points: 2
#     Edge 66, Type (0, 1), BuildingBlock: EZIPEK_clean_linker_0, # of connection points: 2
#     Edge 67, Type (0, 1), BuildingBlock: EZIPEK_clean_linker_0, # of connection points: 2
#     Edge 68, Type (0, 1), BuildingBlock: EZIPEK_clean_linker_0, # of connection points: 2
#     Edge 69, Type (0, 1), BuildingBlock: EZIPEK_clean_linker_0, # of connection points: 2
#     Edge 70, Type (0, 1), BuildingBlock: EZIPEK_clean_linker_0, # of connection points: 2
#     Edge 71, Type (0, 1), BuildingBlock: EZIPEK_clean_linker_0, # of connection points: 2
#     Edge 72, Type (0, 1), BuildingBlock: EZIPEK_clean_linker_0, # of connection points: 2
#     Edge 73, Type (0, 1), BuildingBlock: EZIPEK_clean_linker_0, # of connection points: 2
#     Edge 74, Type (0, 1), BuildingBlock: EZIPEK_clean_linker_0, # of connection points: 2
#     Edge 75, Type (0, 1), BuildingBlock: EZIPEK_clean_linker_0, # of connection points: 2
# Relax obj value: 0.062
# Max RMSD: 0.155
# Mean RMSD: 0.104
data_MOF--net-ctn--node1-KUFVIS_clean_sbu_0--node2-BETDAH_clean_linker_0--edge1-EZIPEK_clean_linker_0
_symmetry_space_group_name_H-M    P1
_symmetry_Int_Tables_number       1
_symmetry_cell_setting            triclinic
loop_
_symmetry_equiv_pos_as_xyz
'x, y, z'
_cell_length_a     38.548554
_cell_length_b     38.2128
_cell_length_c     39.170464
_cell_angle_alpha  100.53191
_cell_angle_beta   90.741231
_cell_angle_gamma 97.154545
loop_
_atom_site_label
_atom_site_type_symbol
_atom_site_fract_x
_atom_site_fract_y
_atom_site_fract_z
_atom_type_partial_charge
H0 H 0.09291 0.98598 0.10636 0.0
H1 H 0.0925 0.03722 0.01672 0.0
H2 H 0.01213 0.05014 0.09121 0.0
C3 C 0.0819 1.00375 0.09179 0.0
C4 C 0.05146 0.01849 0.10318 0.0
C5 C 0.09711 0.0105 0.06062 0.0
C6 C 0.08186 0.03295 0.04131 0.0
C7 C 0.05124 0.04755 0.05267 0.0
C8 C 0.03645 0.04003 0.08333 0.0
N9 N 0.03105 0.06443 0.03143 0.0
C10 C 0.04296 0.09225 0.0143 0.0
H11 H 0.34941 0.66766 0.26382 0.0
H12 H 0.41408 0.74155 0.21411 0.0
H13 H 0.30817 0.70487 0.17578 0.0
C14 C 0.35268 0.68373 0.24369 0.0
C15 C 0.32488 0.6831 0.21979 0.0
C16 C 0.38437 0.70556 0.24252 0.0
C17 C 0.38915 0.72545 0.21581 0.0
C18 C 0.36183 0.72587 0.19197 0.0
C19 C 0.32925 0.70523 0.19442 0.0
N20 N 0.36967 0.74403 0.16383 0.0
C21 C 0.34948 0.76694 0.15097 0.0
H22 H 0.05341 0.43011 0.07088 0.0
H23 H 0.03665 0.54077 0.08261 0.0
H24 H 0.0192 0.47262 0.98295 0.0
C25 C 0.04542 0.45184 0.05962 0.0
C26 C 0.03556 0.44609 0.02394 0.0
C27 C 0.04754 0.48633 0.0804 0.0
C28 C 0.03543 0.51424 0.0667 0.0
C29 C 0.02324 0.50853 0.03207 0.0
C30 C 0.02552 0.47541 0.01042 0.0
N31 N 0.01278 0.53748 0.01811 0.0
C32 C 0.97779 0.54092 0.01168 0.0
H33 H 0.79072 0.84151 0.15184 0.0
H34 H 0.72858 0.75037 0.17772 0.0
H35 H 0.7474 0.84593 0.25378 0.0
C36 C 0.77383 0.83074 0.17025 0.0
C37 C 0.76787 0.85191 0.20289 0.0
C38 C 0.75932 0.79466 0.16097 0.0
C39 C 0.73967 0.77833 0.18473 0.0
C40 C 0.73445 0.79766 0.21765 0.0
C41 C 0.74924 0.83375 0.22701 0.0
N42 N 0.71584 0.77941 0.24157 0.0
C43 C 0.69254 0.79459 0.26491 0.0
H44 H 0.09648 0.03582 0.43229 0.0
H45 H 0.0935 0.98922 0.52463 0.0
H46 H 1.0029 0.97298 0.45535 0.0
C47 C 0.08239 0.0204 0.44934 0.0
C48 C 0.04795 1.00496 0.44008 0.0
C49 C 0.09906 0.01567 0.48003 0.0
C50 C 0.08106 0.9932 0.50093 0.0
C51 C 0.04608 0.97789 0.492 0.0
C52 C 0.02988 0.98434 0.4619 0.0
N53 N 0.02486 0.95893 0.51388 0.0
C54 C 0.03526 0.93601 0.53483 0.0
H55 H 0.2979 0.70389 0.88819 0.0
H56 H 0.2143 0.73949 0.83506 0.0
H57 H 0.26356 0.6496 0.78512 0.0
C58 C 0.28024 0.70074 0.86576 0.0
C59 C 0.28415 0.67441 0.83643 0.0
C60 C 0.25504 0.72452 0.86538 0.0
C61 C 0.23299 0.72075 0.8357 0.0
C62 C 0.23519 0.69294 0.80717 0.0
C63 C 0.26102 0.67021 0.80763 0.0
N64 N 0.21229 0.68698 0.77739 0.0
C65 C 0.18707 0.70842 0.77115 0.0
H66 H 0.94255 0.5713 0.54721 0.0
H67 H 0.04293 0.58584 0.50081 0.0
H68 H 0.98261 0.48191 0.48364 0.0
C69 C 0.96258 0.56036 0.53091 0.0
C70 C 0.95701 0.52413 0.51358 0.0
C71 C 0.99435 0.58242 0.52802 0.0
C72 C 0.01901 0.56895 0.50438 0.0
C73 C 0.0144 0.53268 0.48808 0.0
C74 C 0.98475 0.51025 0.4948 0.0
N75 N 0.04051 0.51703 0.46743 0.0
C76 C 0.05619 0.53052 0.43982 0.0
H77 H 0.90111 0.76451 0.83049 0.0
H78 H 0.85571 0.85635 0.80887 0.0
H79 H 0.81248 0.7989 0.88641 0.0
C80 C 0.88165 0.78283 0.83543 0.0
C81 C 0.85667 0.77826 0.86065 0.0
C82 C 0.88133 0.81081 0.81632 0.0
C83 C 0.8559 0.83462 0.82314 0.0
C84 C 0.8309 0.83006 0.84842 0.0
C85 C 0.83175 0.80216 0.86692 0.0
N86 N 0.80466 0.85293 0.85695 0.0
C87 C 0.79443 0.87793 0.83841 0.0
H88 H 0.39579 0.27489 0.34578 0.0
H89 H 0.35869 0.36892 0.31906 0.0
H90 H 0.30764 0.31696 0.39676 0.0
C91 C 0.37764 0.29466 0.34932 0.0
C92 C 0.35125 0.29253 0.37369 0.0
C93 C 0.38021 0.32186 0.32904 0.0
C94 C 0.35658 0.34769 0.33414 0.0
C95 C 0.33031 0.34574 0.35864 0.0
C96 C 0.32801 0.31828 0.37801 0.0
N97 N 0.30588 0.37089 0.3656 0.0
C98 C 0.29838 0.39595 0.34579 0.0
H99 H 0.53975 0.93437 0.58105 0.0
H100 H 0.52563 0.04564 0.59209 0.0
H101 H 0.50357 0.97598 0.49348 0.0
C102 C 0.53159 0.95612 0.56989 0.0
C103 C 0.52103 0.95017 0.53449 0.0
C104 C 0.53475 0.99072 0.59028 0.0
C105 C 0.52322 0.01886 0.5765 0.0
C106 C 0.51005 0.01294 0.54214 0.0
C107 C 0.51076 0.97928 0.52082 0.0
N108 N 0.50056 0.0422 0.528 0.0
C109 C 0.466 0.04603 0.52018 0.0
H110 H 0.27957 0.35147 0.6489 0.0
H111 H 0.22291 0.27229 0.69918 0.0
H112 H 0.28972 0.35934 0.7601 0.0
C113 C 0.27322 0.34155 0.67251 0.0
C114 C 0.2872 0.36091 0.70502 0.0
C115 C 0.25305 0.30772 0.67008 0.0
C116 C 0.23991 0.29738 0.70063 0.0
C117 C 0.25253 0.31698 0.73312 0.0
C118 C 0.27819 0.34645 0.73484 0.0
N119 N 0.24215 0.30593 0.76443 0.0
C120 C 0.20733 0.29848 0.77246 0.0
H121 H 0.85563 0.14275 0.73716 0.0
H122 H 0.87674 0.25859 0.75796 0.0
H123 H 0.78236 0.20668 0.70394 0.0
C124 C 0.84894 0.16902 0.73523 0.0
C125 C 0.81537 0.17158 0.72213 0.0
C126 C 0.87105 0.20027 0.75065 0.0
C127 C 0.86129 0.23365 0.7459 0.0
C128 C 0.83182 0.23547 0.72523 0.0
C129 C 0.80783 0.20452 0.71481 0.0
N130 N 0.82396 0.26947 0.72015 0.0
C131 C 0.82366 0.27952 0.68767 0.0
H132 H 0.60453 0.50265 0.61764 0.0
H133 H 0.61239 0.52911 0.51573 0.0
H134 H 0.53265 0.56765 0.58257 0.0
C135 C 0.59621 0.51735 0.59847 0.0
C136 C 0.56722 0.53644 0.60464 0.0
C137 C 0.61322 0.51545 0.56676 0.0
C138 C 0.60089 0.53255 0.54105 0.0
C139 C 0.57223 0.5519 0.54677 0.0
C140 C 0.55597 0.55442 0.57887 0.0
N141 N 0.55465 0.55989 0.51764 0.0
C142 C 0.55455 0.59397 0.5097 0.0
H143 H 0.6006 0.54218 0.94034 0.0
H144 H 0.59544 0.49905 0.03452 0.0
H145 H 0.50367 0.48834 0.96746 0.0
C146 C 0.5856 0.52888 0.95837 0.0
C147 C 0.55027 0.51629 0.95026 0.0
C148 C 0.60225 0.52352 0.98874 0.0
C149 C 0.58306 0.50341 0.01094 0.0
C150 C 0.54721 0.49074 1.00323 0.0
C151 C 0.53121 0.4977 0.97314 0.0
N152 N 0.52516 0.4745 0.02648 0.0
C153 C 0.53308 0.44945 0.04631 0.0
H154 H 0.79285 0.19704 0.38219 0.0
H155 H 0.71777 0.24485 0.32931 0.0
H156 H 0.76873 0.15939 0.27314 0.0
C157 C 0.77804 0.19814 0.35878 0.0
C158 C 0.78371 0.17521 0.32755 0.0
C159 C 0.75442 0.22367 0.35947 0.0
C160 C 0.73552 0.22503 0.32889 0.0
C161 C 0.74039 0.20155 0.29778 0.0
C162 C 0.76467 0.17712 0.29732 0.0
N163 N 0.72216 0.2021 0.26616 0.0
C164 C 0.69477 0.22184 0.2625 0.0
H165 H 0.42909 0.09501 0.02111 0.0
H166 H 0.54042 0.08803 0.02203 0.0
H167 H 0.46841 0.99846 0.97389 0.0
C168 C 0.45136 0.08066 0.01504 0.0
C169 C 0.44495 0.04395 1.00033 0.0
C170 C 0.48576 0.09728 0.0254 0.0
C171 C 0.51361 0.07756 0.01394 0.0
C172 C 0.50729 0.04383 0.99196 0.0
C173 C 0.47301 0.02634 0.98676 0.0
N174 N 0.53562 0.02535 0.97941 0.0
C175 C 0.55079 0.02881 0.94785 0.0
Mn176 Mn 0.27012 0.88821 0.02816 0.0
Mn177 Mn 0.25977 0.91221 0.94987 0.0
C178 C 0.24899 0.84536 0.9793 0.0
C179 C 0.29958 0.86398 0.06967 0.0
C180 C 0.21422 0.93356 0.01141 0.0
O181 O 0.30405 0.93548 0.03201 0.0
O182 O 0.29889 0.94472 0.97663 0.0
C183 C 0.32646 0.89854 0.9164 0.0
N184 N 0.29097 0.89127 0.91687 0.0
C185 C 0.28896 0.8508 0.86182 0.0
C186 C 0.32544 0.85812 0.86063 0.0
C187 C 0.34427 0.88191 0.88814 0.0
C188 C 0.27262 0.8683 0.89057 0.0
H189 H 0.34109 0.91704 0.93732 0.0
C190 C 0.31378 0.95195 0.00706 0.0
O191 O 0.27559 0.8845 0.07834 0.0
O192 O 0.30897 0.86037 0.03769 0.0
N193 N 0.2233 0.8809 0.92181 0.0
C194 C 0.18816 0.87732 0.92642 0.0
C195 C 0.16573 0.8534 0.9018 0.0
C196 C 0.17959 0.83376 0.87243 0.0
C197 C 0.21575 0.83846 0.86782 0.0
C198 C 0.23684 0.86253 0.89334 0.0
H199 H 0.17728 0.89262 0.94867 0.0
O200 O 0.24092 0.84044 0.01031 0.0
O201 O 0.26659 0.87616 0.97804 0.0
O202 O 0.2273 0.91549 0.03139 0.0
O203 O 0.22536 0.93539 0.98113 0.0
C204 C 0.23168 0.82028 0.83883 0.0
C205 C 0.26825 0.82653 0.83578 0.0
H206 H 0.33929 0.84525 0.83893 0.0
H207 H 0.37245 0.8875 0.88752 0.0
H208 H 0.13781 0.85015 0.90543 0.0
H209 H 0.16221 0.81533 0.85349 0.0
H210 H 0.21604 0.80153 0.81868 0.0
H211 H 0.28021 0.81236 0.81339 0.0
Mn212 Mn 0.18372 0.52684 0.26465 0.0
Mn213 Mn 0.14556 0.60199 0.26435 0.0
C214 C 0.21274 0.57438 0.24203 0.0
C215 C 0.21881 0.49195 0.29004 0.0
C216 C 0.12492 0.53243 0.21286 0.0
O217 O 0.14667 0.52409 0.3013 0.0
O218 O 0.12422 0.57586 0.3005 0.0
C219 C 0.1686 0.64288 0.33442 0.0
N220 N 0.16744 0.64035 0.29927 0.0
C221 C 0.19789 0.70011 0.30421 0.0
C222 C 0.19944 0.7033 0.34045 0.0
C223 C 0.18485 0.6745 0.35559 0.0
C224 C 0.18164 0.66782 0.28442 0.0
H225 H 0.15714 0.62103 0.34628 0.0
C226 C 0.12645 0.54733 0.31295 0.0
O227 O 0.19487 0.47759 0.26635 0.0
O228 O 0.22183 0.52659 0.29986 0.0
N229 N 0.16449 0.63023 0.23165 0.0
C230 C 0.16182 0.62252 0.19626 0.0
C231 C 0.17652 0.648 0.17711 0.0
C232 C 0.19328 0.68135 0.1945 0.0
C233 C 0.19505 0.68898 0.23092 0.0
C234 C 0.18016 0.66243 0.24863 0.0
H235 H 0.14889 0.597 0.18267 0.0
O236 O 0.22028 0.54191 0.23244 0.0
O237 O 0.18778 0.57787 0.26399 0.0
O238 O 0.1462 0.51443 0.22505 0.0
O239 O 0.12172 0.56487 0.22633 0.0
C240 C 0.21113 0.72185 0.25032 0.0
C241 C 0.21235 0.7275 0.28695 0.0
H242 H 0.21195 0.72765 0.35687 0.0
H243 H 0.18599 0.67673 0.38354 0.0
H244 H 0.17493 0.64193 0.149 0.0
H245 H 0.20462 0.70091 0.17964 0.0
H246 H 0.22285 0.74287 0.23734 0.0
H247 H 0.22509 0.75274 0.30159 0.0
Mn248 Mn 0.80029 0.63049 1.00024 0.0
Mn249 Mn 0.73446 0.66174 0.96211 0.0
C250 C 0.7429 0.602 1.0012 0.0
C251 C 0.84778 0.59723 0.99804 0.0
C252 C 0.77143 0.69975 0.03052 0.0
O253 O 0.82519 0.66399 0.96992 0.0
O254 O 0.77881 0.67457 0.93934 0.0
C255 C 0.73186 0.61654 0.89196 0.0
N256 N 0.71562 0.62874 0.92161 0.0
C257 C 0.65958 0.59985 0.89689 0.0
C258 C 0.6757 0.58685 0.86608 0.0
C259 C 0.71207 0.59495 0.86374 0.0
C260 C 0.68087 0.62009 0.92456 0.0
H261 H 0.75962 0.62346 0.88986 0.0
C262 C 0.81176 0.67728 0.94588 0.0
O263 O 0.8457 0.62499 0.02203 0.0
O264 O 0.82217 0.58839 0.97486 0.0
N265 N 0.68963 0.65199 0.98121 0.0
C266 C 0.67804 0.66707 0.01255 0.0
C267 C 0.64226 0.66151 0.01919 0.0
C268 C 0.61859 0.64158 0.99315 0.0
C269 C 0.63096 0.62723 0.96076 0.0
C270 C 0.66702 0.6328 0.95598 0.0
H271 H 0.6959 0.6834 0.0323 0.0
O272 O 0.7671 0.5971 0.02259 0.0
O273 O 0.75339 0.62231 0.97905 0.0
O274 O 0.78822 0.67399 0.0344 0.0
O275 O 0.75136 0.69792 1.00394 0.0
C276 C 0.60883 0.6085 0.93272 0.0
C277 C 0.62317 0.59423 0.90099 0.0
H278 H 0.66039 0.57083 0.84401 0.0
H279 H 0.72471 0.5851 0.84003 0.0
H280 H 0.63289 0.67302 0.04414 0.0
H281 H 0.59094 0.63777 0.99819 0.0
H282 H 0.58077 0.60421 0.93549 0.0
H283 H 0.60593 0.57912 0.87989 0.0
Mn284 Mn 0.91034 0.02337 0.26992 0.0
Mn285 Mn 0.93247 0.93952 0.26177 0.0
C286 C 0.87241 0.97429 0.24078 0.0
C287 C 0.8808 0.06975 0.29856 0.0
C288 C 0.96331 0.99312 0.21785 0.0
O289 O 0.94947 0.02986 0.3074 0.0
O290 O 0.96077 0.97249 0.30007 0.0
C291 C 0.90652 0.92556 0.32951 0.0
N292 N 0.9059 0.91636 0.29418 0.0
C293 C 0.86091 0.86685 0.29482 0.0
C294 C 0.86122 0.87569 0.33117 0.0
C295 C 0.88409 0.90523 0.34858 0.0
C296 C 0.88373 0.88823 0.27718 0.0
H297 H 0.92383 0.94837 0.34311 0.0
C298 C 0.96557 1.00522 0.31597 0.0
O299 O 0.90562 0.07586 0.27745 0.0
O300 O 0.87563 0.03769 0.30549 0.0
N301 N 0.90638 0.9043 0.2266 0.0
C302 C 0.91089 0.89782 0.19171 0.0
C303 C 0.89013 0.86907 0.17046 0.0
C304 C 0.86585 0.84641 0.18546 0.0
C305 C 0.86292 0.85242 0.22163 0.0
C306 C 0.8842 0.88165 0.24143 0.0
H307 H 0.93086 0.9138 0.18035 0.0
O308 O 0.87055 1.00633 0.23502 0.0
O309 O 0.89704 0.97195 0.26292 0.0
O310 O 0.94652 0.01871 0.23151 0.0
O311 O 0.95995 0.9622 0.22677 0.0
C312 C 0.84002 0.83034 0.23888 0.0
C313 C 0.83875 0.83776 0.2754 0.0
H314 H 0.84395 0.86006 0.34596 0.0
H315 H 0.88438 0.91235 0.37663 0.0
H316 H 0.89326 0.86402 0.14265 0.0
H317 H 0.85016 0.82408 0.16899 0.0
H318 H 0.82314 0.80765 0.22439 0.0
H319 H 0.82077 0.82077 0.28829 0.0
Mn320 Mn 0.29015 0.13793 0.50606 0.0
Mn321 Mn 0.22194 0.16872 0.47042 0.0
C322 C 0.23343 0.10682 0.50463 0.0
C323 C 0.33812 0.10532 0.50388 0.0
C324 C 0.25362 0.2015 0.54206 0.0
O325 O 0.31479 0.1728 0.47741 0.0
O326 O 0.26732 0.18998 0.45405 0.0
C327 C 0.22977 0.13412 0.39732 0.0
N328 N 0.20977 0.13974 0.42569 0.0
C329 C 0.15906 0.10591 0.39354 0.0
C330 C 0.17919 0.09962 0.36402 0.0
C331 C 0.21479 0.11358 0.366 0.0
C332 C 0.17576 0.12557 0.42433 0.0
H333 H 0.25684 0.14546 0.39855 0.0
C334 C 0.30049 0.1906 0.45778 0.0
O335 O 0.33541 0.13256 0.52829 0.0
O336 O 0.3131 0.09692 0.48008 0.0
N337 N 0.17616 0.151 0.48306 0.0
C338 C 0.15997 0.16076 0.51344 0.0
C339 C 0.1241 0.1496 0.51562 0.0
C340 C 0.10495 0.12943 0.4863 0.0
C341 C 0.12187 0.12074 0.45501 0.0
C342 C 0.15782 0.13201 0.45456 0.0
H343 H 0.17426 0.17708 0.53586 0.0
O344 O 0.25738 0.1027 0.52663 0.0
O345 O 0.24338 0.12882 0.48383 0.0
O346 O 0.277 0.18053 0.5411 0.0
O347 O 0.23152 0.19951 0.51699 0.0
C348 C 0.10423 0.10226 0.42398 0.0
C349 C 0.12294 0.09415 0.39345 0.0
H350 H 0.16754 0.08437 0.33964 0.0
H351 H 0.2305 0.10898 0.34331 0.0
H352 H 0.11115 0.15686 0.53976 0.0
H353 H 0.07721 0.12115 0.48798 0.0
H354 H 0.07633 0.09366 0.42343 0.0
H355 H 0.10918 0.07927 0.36993 0.0
Mn356 Mn 0.42323 0.53904 0.77282 0.0
Mn357 Mn 0.45417 0.45887 0.76157 0.0
C358 C 0.39079 0.48785 0.73861 0.0
C359 C 0.39147 0.58209 0.80597 0.0
C360 C 0.4822 0.51927 0.72398 0.0
O361 O 0.46124 0.54639 0.81204 0.0
O362 O 0.4744 0.48986 0.80496 0.0
C363 C 0.419 0.43448 0.82144 0.0
N364 N 0.42578 0.42863 0.78696 0.0
C365 C 0.389 0.37181 0.77713 0.0
C366 C 0.38183 0.37707 0.81257 0.0
C367 C 0.39674 0.40865 0.83478 0.0
C368 C 0.41068 0.39891 0.76521 0.0
H369 H 0.43032 0.45876 0.83859 0.0
C370 C 0.47676 0.522 0.82193 0.0
O371 O 0.41502 0.59061 0.78449 0.0
O372 O 0.38644 0.54836 0.80777 0.0
N373 N 0.43713 0.42469 0.72104 0.0
C374 C 0.44844 0.42284 0.688 0.0
C375 C 0.43875 0.39154 0.66317 0.0
C376 C 0.41795 0.36222 0.67263 0.0
C377 C 0.40661 0.36465 0.70673 0.0
C378 C 0.41776 0.39624 0.73053 0.0
H379 H 0.46539 0.44474 0.68074 0.0
O380 O 0.38504 0.51993 0.73568 0.0
O381 O 0.41519 0.48699 0.7614 0.0
O382 O 0.46065 0.54087 0.73603 0.0
O383 O 0.48344 0.48889 0.73319 0.0
C384 C 0.38503 0.3368 0.71814 0.0
C385 C 0.3757 0.34067 0.75321 0.0
H386 H 0.36495 0.35704 0.82301 0.0
H387 H 0.39119 0.41302 0.86214 0.0
H388 H 0.44758 0.38988 0.63688 0.0
H389 H 0.41048 0.33813 0.65338 0.0
H390 H 0.37539 0.31236 0.70014 0.0
H391 H 0.35882 0.31925 0.76162 0.0
Mn392 Mn 0.77305 0.37432 0.5318 0.0
Mn393 Mn 0.7621 0.40548 0.45709 0.0
C394 C 0.74916 0.33545 0.4815 0.0
C395 C 0.80155 0.348 0.57226 0.0
C396 C 0.72278 0.42733 0.52247 0.0
O397 O 0.80998 0.41908 0.53637 0.0
O398 O 0.80662 0.43099 0.48148 0.0
C399 C 0.81893 0.39271 0.40854 0.0
N400 N 0.78583 0.38295 0.41799 0.0
C401 C 0.77276 0.34417 0.36226 0.0
C402 C 0.80786 0.35084 0.35383 0.0
C403 C 0.83094 0.37578 0.37686 0.0
C404 C 0.76263 0.36137 0.39467 0.0
H405 H 0.83514 0.41497 0.42399 0.0
C406 C 0.82186 0.43505 0.51182 0.0
O407 O 0.77856 0.36944 0.58122 0.0
O408 O 0.81007 0.34326 0.53989 0.0
N409 N 0.72013 0.37968 0.43309 0.0
C410 C 0.68628 0.38046 0.44254 0.0
C411 C 0.65917 0.35954 0.42091 0.0
C412 C 0.66698 0.33845 0.38943 0.0
C413 C 0.70186 0.33864 0.3798 0.0
C414 C 0.72789 0.35947 0.40278 0.0
H415 H 0.67983 0.39708 0.46624 0.0
O416 O 0.74127 0.3287 0.51206 0.0
O417 O 0.76799 0.36593 0.48169 0.0
O418 O 0.73246 0.40423 0.5387 0.0
O419 O 0.73484 0.43198 0.49335 0.0
C420 C 0.71172 0.31953 0.34796 0.0
C421 C 0.74715 0.32243 0.33911 0.0
H422 H 0.81696 0.33828 0.32908 0.0
H423 H 0.85751 0.38299 0.36962 0.0
H424 H 0.63227 0.3599 0.4284 0.0
H425 H 0.64597 0.3226 0.37264 0.0
H426 H 0.69216 0.3032 0.32973 0.0
H427 H 0.75431 0.30844 0.31411 0.0
Mn428 Mn 0.67606 0.01285 0.76792 0.0
Mn429 Mn 0.64479 0.09253 0.77315 0.0
C430 C 0.70702 0.05894 0.7448 0.0
C431 C 0.7098 0.97445 0.78984 0.0
C432 C 0.61684 0.02615 0.7204 0.0
O433 O 0.64091 0.01185 0.80655 0.0
O434 O 0.62256 0.06608 0.8087 0.0
C435 C 0.67404 0.12768 0.84315 0.0
N436 N 0.67105 0.12739 0.8084 0.0
C437 C 0.7069 0.18463 0.81466 0.0
C438 C 0.71029 0.18553 0.8505 0.0
C439 C 0.69391 0.15685 0.86476 0.0
C440 C 0.68708 0.15466 0.79435 0.0
H441 H 0.66131 0.10589 0.85433 0.0
C442 C 0.62284 0.03651 0.81982 0.0
O443 O 0.68408 0.96207 0.76747 0.0
O444 O 0.71512 1.00893 0.80049 0.0
N445 N 0.66457 0.1213 0.74123 0.0
C446 C 0.65932 0.1161 0.70608 0.0
C447 C 0.67502 0.14181 0.68769 0.0
C448 C 0.69545 0.17288 0.70563 0.0
C449 C 0.69977 0.1781 0.74187 0.0
C450 C 0.68363 0.15146 0.75881 0.0
H451 H 0.64356 0.09236 0.69208 0.0
O452 O 0.71166 0.02575 0.73383 0.0
O453 O 0.68401 0.06403 0.76864 0.0
O454 O 0.6363 1.00515 0.73069 0.0
O455 O 0.61717 0.05893 0.73506 0.0
C456 C 0.7195 0.20868 0.76184 0.0
C457 C 0.72292 0.21202 0.79823 0.0
H458 H 0.72559 0.20799 0.86726 0.0
H459 H 0.69649 0.15729 0.89239 0.0
H460 H 0.67141 0.13766 0.65973 0.0
H461 H 0.70761 0.19259 0.69134 0.0
H462 H 0.73233 0.22968 0.74946 0.0
H463 H 0.73847 0.23547 0.81327 0.0
Mn464 Mn 0.04035 0.24424 0.8795 0.0
Mn465 Mn 0.96366 0.24408 0.92014 0.0
C466 C 0.98871 0.2142 0.84971 0.0
C467 C 0.08434 0.26774 0.84648 0.0
C468 C 0.02244 0.20347 0.93763 0.0
O469 O 0.04919 0.28756 0.92012 0.0
O470 O 0.9934 0.29091 0.9368 0.0
C471 C 0.92973 0.30088 0.89543 0.0
N472 N 0.92978 0.2658 0.89757 0.0
C473 C 0.87222 0.25062 0.87007 0.0
C474 C 0.87247 0.28635 0.86614 0.0
C475 C 0.90136 0.31164 0.879 0.0
C476 C 0.90191 0.24128 0.88555 0.0
H477 H 0.95066 0.32051 0.90705 0.0
C478 C 0.02588 0.30396 0.93724 0.0
O479 O 0.09044 0.24703 0.8679 0.0
O480 O 0.05288 0.27631 0.84499 0.0
N481 N 0.93293 0.20012 0.9055 0.0
C482 C 0.93552 0.16718 0.91338 0.0
C483 C 0.90753 0.13953 0.90493 0.0
C484 C 0.87669 0.14616 0.88931 0.0
C485 C 0.87423 0.18034 0.88201 0.0
C486 C 0.9032 0.20676 0.89058 0.0
H487 H 0.95846 0.16197 0.92657 0.0
O488 O 0.0191 0.20555 0.84006 0.0
O489 O 0.98968 0.23917 0.87708 0.0
O490 O 0.04068 0.20834 0.91183 0.0
O491 O 0.99544 0.21917 0.9455 0.0
C492 C 0.84398 0.18926 0.86686 0.0
C493 C 0.84319 0.22421 0.86032 0.0
H494 H 0.85026 0.29484 0.85414 0.0
H495 H 0.9014 0.33953 0.87704 0.0
H496 H 0.90955 0.11331 0.91095 0.0
H497 H 0.85501 0.12485 0.8831 0.0
H498 H 0.82126 0.16933 0.86 0.0
H499 H 0.81982 0.23072 0.84853 0.0
Mn500 Mn 0.53943 0.75687 0.38766 0.0
Mn501 Mn 0.46028 0.74351 0.4229 0.0
C502 C 0.49148 0.72616 0.35314 0.0
C503 C 0.58198 0.78701 0.35766 0.0
C504 C 0.52264 0.70724 0.43947 0.0
O505 O 0.54253 0.79667 0.43089 0.0
O506 O 0.48589 0.79059 0.447 0.0
C507 C 0.41856 0.80081 0.41271 0.0
N508 N 0.42508 0.76622 0.4037 0.0
C509 C 0.3719 0.75071 0.36831 0.0
C510 C 0.36652 0.78689 0.37473 0.0
C511 C 0.38971 0.812 0.39749 0.0
C512 C 0.4015 0.74137 0.38384 0.0
H513 H 0.43413 0.81913 0.43278 0.0
C514 C 0.51707 0.80781 0.44882 0.0
O515 O 0.58993 0.76593 0.3781 0.0
O516 O 0.54966 0.79327 0.35693 0.0
N517 N 0.43469 0.69932 0.39891 0.0
C518 C 0.44134 0.66501 0.39842 0.0
C519 C 0.41909 0.63623 0.37887 0.0
C520 C 0.39005 0.64292 0.36021 0.0
C521 C 0.38337 0.67834 0.36149 0.0
C522 C 0.40666 0.70598 0.38118 0.0
H523 H 0.46345 0.65952 0.41276 0.0
O524 O 0.52309 0.72037 0.34493 0.0
O525 O 0.48905 0.74768 0.38247 0.0
O526 O 0.54239 0.71808 0.41682 0.0
O527 O 0.49267 0.71733 0.44544 0.0
C528 C 0.35427 0.68728 0.34438 0.0
C529 C 0.34844 0.72345 0.348 0.0
H530 H 0.344 0.79544 0.36335 0.0
H531 H 0.38478 0.83965 0.40414 0.0
H532 H 0.42433 0.60895 0.37818 0.0
H533 H 0.3729 0.62064 0.34522 0.0
H534 H 0.33583 0.6665 0.32895 0.0
H535 H 0.32553 0.73009 0.33562 0.0
Mn536 Mn 0.0298 0.78122 0.65277 0.0
Mn537 Mn 0.99568 0.71076 0.68857 0.0
C538 C 0.02581 0.72204 0.62101 0.0
C539 C 0.02707 0.82751 0.62104 0.0
C540 C 0.06858 0.75 0.70678 0.0
O541 O 1.00206 0.80521 0.69341 0.0
O542 O 0.97815 0.75523 0.71189 0.0
C543 C 0.92132 0.7077 0.66681 0.0
N544 N 0.95069 0.69143 0.66778 0.0
C545 C 0.91934 0.63393 0.64265 0.0
C546 C 0.88871 0.65004 0.64124 0.0
C547 C 0.88982 0.68719 0.65302 0.0
C548 C 0.95026 0.65605 0.65517 0.0
H549 H 0.92193 0.736 0.67673 0.0
C550 C 0.98186 0.78914 0.71307 0.0
O551 O 0.05213 0.82836 0.64357 0.0
O552 O 1.00237 0.80048 0.61784 0.0
N553 N 0.01 0.66552 0.66907 0.0
C554 C 0.04147 0.65383 0.67362 0.0
C555 C 0.04463 0.61719 0.66413 0.0
C556 C 0.01516 0.59276 0.65122 0.0
C557 C 0.98294 0.60534 0.64753 0.0
C558 C 0.98153 0.64222 0.65647 0.0
H559 H 0.06402 0.67218 0.68475 0.0
O560 O 0.048 0.74748 0.61302 0.0
O561 O 1.0069 0.73184 0.64735 0.0
O562 O 0.06737 0.77247 0.68665 0.0
O563 O 0.0425 0.72736 0.7109 0.0
C564 C 0.95181 0.58243 0.63709 0.0
C565 C 0.92017 0.59666 0.63355 0.0
H566 H 0.86417 0.63409 0.63155 0.0
H567 H 0.8663 0.69983 0.65216 0.0
H568 H 0.06957 0.60773 0.66739 0.0
H569 H 0.01749 0.56439 0.64457 0.0
H570 H 0.95202 0.55382 0.6331 0.0
H571 H 0.89644 0.57864 0.62505 0.0
Mn572 Mn 0.52354 0.29091 0.16029 0.0
Mn573 Mn 0.4949 0.21754 0.19511 0.0
C574 C 0.51779 0.2331 0.12574 0.0
C575 C 0.51906 0.33892 0.13086 0.0
C576 C 0.56809 0.25716 0.20802 0.0
O577 O 0.49825 0.31276 0.20353 0.0
O578 O 0.48008 0.26168 0.22323 0.0
C579 C 0.4179 0.21415 0.18831 0.0
N580 N 0.44749 0.1983 0.18208 0.0
C581 C 0.41403 0.13982 0.16625 0.0
C582 C 0.38317 0.15558 0.17221 0.0
C583 C 0.38511 0.19296 0.18293 0.0
C584 C 0.44586 0.16247 0.17098 0.0
H585 H 0.41934 0.24259 0.19785 0.0
C586 C 0.48161 0.29564 0.22485 0.0
O587 O 0.54499 0.33876 0.15203 0.0
O588 O 0.49408 0.31217 0.12826 0.0
N589 N 0.50653 0.17283 0.17048 0.0
C590 C 0.53862 0.16245 0.16341 0.0
C591 C 0.54118 0.12631 0.14953 0.0
C592 C 0.51087 0.10109 0.14427 0.0
C593 C 0.47819 0.11242 0.15216 0.0
C594 C 0.47716 0.14901 0.16452 0.0
H595 H 0.56204 0.18161 0.1684 0.0
O596 O 0.53923 0.25942 0.11826 0.0
O597 O 0.50048 0.24094 0.15392 0.0
O598 O 0.56408 0.28135 0.19048 0.0
O599 O 0.54379 0.23255 0.21147 0.0
C600 C 0.44657 0.08892 0.14822 0.0
C601 C 0.41451 0.10259 0.15544 0.0
H602 H 0.35787 0.13926 0.16859 0.0
H603 H 0.36143 0.20532 0.18776 0.0
H604 H 0.5665 0.11779 0.14354 0.0
H605 H 0.513 0.07314 0.13414 0.0
H606 H 0.44654 0.06039 0.13907 0.0
H607 H 0.39033 0.08435 0.15175 0.0
C608 C 0.22161 0.75873 0.91314 0.0
C609 C 0.2532 0.75495 0.89516 0.0
C610 C 0.28277 0.80659 0.9361 0.0
C611 C 0.25011 0.81386 0.9506 0.0
N612 N 0.18767 0.79795 0.95118 0.0
N613 N 0.3122 0.77992 0.88569 0.0
C614 C 0.21929 0.79013 0.93868 0.0
C615 C 0.28334 0.78014 0.90564 0.0
N616 N 0.19438 0.73157 0.907 0.0
N617 N 0.31356 0.82399 0.9519 0.0
H618 H 0.31278 0.76325 0.86154 0.0
H619 H 0.33428 0.79896 0.89107 0.0
H620 H 0.31506 0.84328 0.97444 0.0
H621 H 0.33792 0.81661 0.94466 0.0
H622 H 0.172 0.73118 0.9216 0.0
H623 H 0.19554 0.70765 0.88955 0.0
H624 H 0.16386 0.78402 0.94064 0.0
H625 H 0.18505 0.82036 0.97018 0.0
C626 C 0.11087 0.54064 0.40792 0.0
C627 C 0.07389 0.53805 0.40867 0.0
C628 C 0.07086 0.5396 0.34619 0.0
C629 C 0.108 0.5438 0.34573 0.0
N630 N 0.16336 0.55693 0.37799 0.0
N631 N 0.01874 0.54101 0.38059 0.0
C632 C 0.12803 0.54667 0.37713 0.0
C633 C 0.0539 0.53945 0.3784 0.0
N634 N 0.12967 0.53649 0.43644 0.0
N635 N 0.05181 0.53433 0.31563 0.0
H636 H 1.00562 0.54056 0.40368 0.0
H637 H 1.00308 0.54566 0.36045 0.0
H638 H 0.06348 0.53417 0.29179 0.0
H639 H 0.0248 0.52737 0.31347 0.0
H640 H 0.15616 0.53349 0.43611 0.0
H641 H 0.11826 0.53361 0.45995 0.0
H642 H 0.17879 0.56337 0.40083 0.0
H643 H 0.177 0.56219 0.35628 0.0
C644 C 0.86279 0.75857 0.91791 0.0
C645 C 0.85573 0.749 0.88151 0.0
C646 C 0.83472 0.68744 0.88859 0.0
C647 C 0.8345 0.69922 0.92503 0.0
N648 N 0.84829 0.74643 0.97504 0.0
N649 N 0.83433 0.70397 0.83171 0.0
C650 C 0.84927 0.73472 0.94 0.0
C651 C 0.84217 0.71309 0.86656 0.0
N652 N 0.88219 0.7907 0.93124 0.0
N653 N 0.82779 0.65161 0.87523 0.0
H654 H 0.83964 0.7218 0.81468 0.0
H655 H 0.82057 0.67942 0.81999 0.0
H656 H 0.82328 0.63253 0.8912 0.0
H657 H 0.83016 0.64071 0.84911 0.0
H658 H 0.89087 0.79811 0.95715 0.0
H659 H 0.8925 0.80845 0.91549 0.0
H660 H 0.85452 0.7732 0.987 0.0
H661 H 0.83929 0.72964 0.99211 0.0
C662 C 1.00084 0.02996 0.41037 0.0
C663 C 0.03022 0.01078 0.40776 0.0
C664 C 0.02308 1.00028 0.34421 0.0
C665 C 0.99 0.01316 0.34715 0.0
N666 N 0.94528 0.03638 0.38451 0.0
N667 N 0.06774 0.97454 0.37181 0.0
C668 C 0.97846 0.02752 0.38058 0.0
C669 C 0.04125 0.99547 0.37453 0.0
N670 N 0.99447 0.05079 0.44132 0.0
N671 N 0.03721 0.99273 0.31231 0.0
H672 H 0.08136 0.96968 0.39326 0.0
H673 H 0.07421 0.95944 0.34839 0.0
H674 H 0.0246 0.99598 0.28961 0.0
H675 H 0.06271 0.98676 0.30882 0.0
H676 H 0.97543 0.06811 0.44396 0.0
H677 H 0.01063 0.05352 0.46348 0.0
H678 H 0.9344 0.04289 0.4087 0.0
H679 H 0.92736 0.03426 0.3639 0.0
C680 C 0.23865 0.28776 0.6052 0.0
C681 C 0.25147 0.28059 0.637 0.0
C682 C 0.25885 0.2199 0.60746 0.0
C683 C 0.25161 0.22877 0.5746 0.0
N684 N 0.24322 0.27608 0.54275 0.0
N685 N 0.28509 0.24305 0.66442 0.0
C686 C 0.24371 0.26408 0.5735 0.0
C687 C 0.26488 0.2476 0.63703 0.0
N688 N 0.22124 0.31673 0.60514 0.0
N689 N 0.25882 0.18504 0.61113 0.0
H690 H 0.29307 0.26355 0.68549 0.0
H691 H 0.29761 0.22029 0.66392 0.0
H692 H 0.25197 0.16333 0.59096 0.0
H693 H 0.26127 0.17769 0.63533 0.0
H694 H 0.20876 0.32131 0.5829 0.0
H695 H 0.2163 0.33399 0.62793 0.0
H696 H 0.24051 0.30258 0.54132 0.0
H697 H 0.24985 0.26114 0.51931 0.0
C698 C 0.51041 0.51748 0.63139 0.0
C699 C 0.54579 0.53359 0.63598 0.0
C700 C 0.54006 0.54095 0.69949 0.0
C701 C 0.50395 0.52764 0.69445 0.0
N702 N 0.45316 0.5148 0.65559 0.0
N703 N 0.59269 0.56654 0.67472 0.0
C704 C 0.48865 0.51952 0.66039 0.0
C705 C 0.56027 0.54695 0.6702 0.0
N706 N 0.49783 0.49862 0.59967 0.0
N707 N 0.55492 0.54811 0.73224 0.0
H708 H 0.60777 0.57207 0.65397 0.0
H709 H 0.60338 0.57987 0.69884 0.0
H710 H 0.54017 0.5467 0.75418 0.0
H711 H 0.58179 0.55384 0.73745 0.0
H712 H 0.47318 0.48351 0.59595 0.0
H713 H 0.51329 0.49463 0.578 0.0
H714 H 0.44065 0.51159 0.63125 0.0
H715 H 0.43655 0.51892 0.67626 0.0
C716 C 0.81107 0.27389 0.62407 0.0
C717 C 0.82368 0.29528 0.65632 0.0
C718 C 0.83254 0.34851 0.62885 0.0
C719 C 0.81489 0.32833 0.59819 0.0
N720 N 0.78597 0.27188 0.56645 0.0
N721 N 0.84644 0.35296 0.69027 0.0
C722 C 0.80433 0.29084 0.59547 0.0
C723 C 0.83481 0.33256 0.65885 0.0
N724 N 0.80565 0.23737 0.62081 0.0
N725 N 0.84757 0.38288 0.62891 0.0
H726 H 0.84984 0.34203 0.71244 0.0
H727 H 0.85094 0.38087 0.69498 0.0
H728 H 0.84666 0.3949 0.60708 0.0
H729 H 0.86357 0.39828 0.64918 0.0
H730 H 0.79977 0.21987 0.59722 0.0
H731 H 0.80993 0.22438 0.64143 0.0
H732 H 0.77371 0.24571 0.56456 0.0
H733 H 0.78121 0.28296 0.5447 0.0
C734 C 0.592 1.00067 0.62384 0.0
C735 C 0.55502 0.99846 0.62406 0.0
C736 C 0.55803 0.01395 0.6878 0.0
C737 C 0.5949 0.01322 0.68769 0.0
N738 N 0.64583 0.99854 0.65499 0.0
N739 N 0.50206 0.99774 0.65583 0.0
C740 C 0.61146 1.00405 0.65557 0.0
C741 C 0.53778 1.00357 0.65597 0.0
N742 N 0.60882 1.00149 0.5934 0.0
N743 N 0.54237 0.02494 0.71827 0.0
H744 H 0.48659 0.99068 0.63296 0.0
H745 H 0.48785 0.99721 0.67819 0.0
H746 H 0.55589 0.0308 0.74219 0.0
H747 H 0.51652 0.03022 0.71969 0.0
H748 H 0.63584 1.0074 0.59217 0.0
H749 H 0.5957 0.99998 0.56962 0.0
H750 H 0.65774 0.98761 0.6325 0.0
H751 H 0.66194 1.00171 0.67709 0.0
C752 C 0.93244 0.22578 0.77332 0.0
C753 C 0.90319 0.19923 0.77314 0.0
C754 C 0.93647 0.1757 0.81636 0.0
C755 C 0.95938 0.20827 0.8233 0.0
N756 N 0.97477 0.26775 0.81016 0.0
N757 N 0.87678 0.15056 0.80082 0.0
C758 C 0.95602 0.23444 0.80243 0.0
C759 C 0.90512 0.17404 0.79598 0.0
N760 N 0.93888 0.24157 0.74508 0.0
N761 N 0.94391 0.14697 0.82997 0.0
H762 H 0.85145 0.15357 0.79378 0.0
H763 H 0.87749 0.13152 0.81663 0.0
H764 H 0.96636 0.14788 0.84544 0.0
H765 H 0.9295 0.12161 0.82325 0.0
H766 H 0.96138 0.2594 0.74355 0.0
H767 H 0.92414 0.23326 0.72182 0.0
H768 H 0.97088 0.28806 0.79652 0.0
H769 H 0.99092 0.27631 0.83231 0.0
C770 C 0.49451 0.89947 0.48648 0.0
C771 C 0.52191 0.91399 0.51159 0.0
C772 C 0.54756 0.85739 0.49604 0.0
C773 C 0.52185 0.84522 0.46895 0.0
N774 N 0.48363 0.86457 0.42893 0.0
N775 N 0.58165 0.91008 0.52959 0.0
C776 C 0.49919 0.86926 0.46115 0.0
C777 C 0.55066 0.89393 0.51347 0.0
N778 N 0.46323 0.91279 0.48752 0.0
N779 N 0.56876 0.83444 0.50541 0.0
H780 H 0.58648 0.93759 0.53903 0.0
H781 H 0.60386 0.89702 0.52933 0.0
H782 H 0.56716 0.80763 0.49312 0.0
H783 H 0.58581 0.84149 0.52716 0.0
H784 H 0.44239 0.90108 0.47023 0.0
H785 H 0.45673 0.93214 0.50799 0.0
H786 H 0.46874 0.88324 0.42173 0.0
H787 H 0.48842 0.84384 0.40888 0.0
C788 C 0.15542 0.25627 0.78127 0.0
C789 C 0.17249 0.29187 0.78557 0.0
C790 C 0.12818 0.31326 0.82588 0.0
C791 C 0.11158 0.27746 0.82228 0.0
N792 N 0.10332 0.21675 0.79014 0.0
N793 N 0.1715 0.35529 0.80463 0.0
C794 C 0.12335 0.24952 0.79789 0.0
C795 C 0.15756 0.32076 0.80544 0.0
N796 N 0.17049 0.22881 0.76227 0.0
N797 N 0.11702 0.33964 0.85008 0.0
H798 H 0.19309 0.36144 0.78997 0.0
H799 H 0.16011 0.37769 0.81596 0.0
H800 H 0.0952 0.33513 0.86492 0.0
H801 H 0.13036 0.36546 0.85689 0.0
H802 H 0.16173 0.20179 0.76159 0.0
H803 H 0.19312 0.23306 0.74844 0.0
H804 H 0.10863 0.19618 0.77032 0.0
H805 H 0.0794 0.21119 0.80145 0.0
C806 C 0.55396 0.6207 0.45676 0.0
C807 C 0.55079 0.62475 0.49324 0.0
C808 C 0.53532 0.68556 0.49515 0.0
C809 C 0.53382 0.67951 0.45817 0.0
N810 N 0.53595 0.63831 0.40366 0.0
N811 N 0.5362 0.65965 0.54743 0.0
C812 C 0.54191 0.64638 0.4389 0.0
C813 C 0.54092 0.65686 0.51258 0.0
N814 N 0.56871 0.59229 0.43907 0.0
N815 N 0.53263 0.71907 0.51358 0.0
H816 H 0.5414 0.63969 0.56103 0.0
H817 H 0.52519 0.68061 0.56239 0.0
H818 H 0.52935 0.74081 0.5017 0.0
H819 H 0.53683 0.72615 0.5404 0.0
H820 H 0.57513 0.58995 0.41307 0.0
H821 H 0.57768 0.57281 0.45122 0.0
H822 H 0.53756 0.61301 0.38888 0.0
H823 H 0.52598 0.65557 0.38942 0.0
C824 C 0.89758 0.80714 0.75328 0.0
C825 C 0.90788 0.81474 0.78916 0.0
C826 C 0.96974 0.81832 0.77362 0.0
C827 C 0.95921 0.80908 0.73801 0.0
N828 N 0.91505 0.80673 0.69377 0.0
N829 N 0.95341 0.83746 0.83323 0.0
C830 C 0.92368 0.80787 0.7279 0.0
C831 C 0.94396 0.82366 0.79924 0.0
N832 N 0.86318 0.79667 0.74329 0.0
N833 N 1.00434 0.82051 0.7828 0.0
H834 H 0.93507 0.84207 0.85237 0.0
H835 H 0.97902 0.84722 0.84195 0.0
H836 H 0.02364 0.8191 0.76433 0.0
H837 H 0.0137 0.8226 0.80824 0.0
H838 H 0.85466 0.78692 0.71759 0.0
H839 H 0.84325 0.79498 0.76085 0.0
H840 H 0.88997 0.8088 0.6848 0.0
H841 H 0.93401 0.80715 0.67499 0.0
C842 C 0.03103 0.87179 0.54061 0.0
C843 C 0.03661 0.90865 0.55634 0.0
C844 C 0.03184 0.89228 0.61409 0.0
C845 C 0.02849 0.85529 0.59854 0.0
N846 N 0.03196 0.81005 0.54726 0.0
N847 N 0.04818 0.95425 0.60768 0.0
C848 C 0.02989 0.84506 0.56183 0.0
C849 C 0.0389 0.91895 0.59301 0.0
N850 N 0.02609 0.86225 0.50534 0.0
N851 N 0.02664 0.90192 0.64883 0.0
H852 H 0.05326 0.97432 0.59289 0.0
H853 H 0.0538 0.96323 0.63413 0.0
H854 H 0.02049 0.88321 0.66487 0.0
H855 H 0.02519 0.92821 0.66118 0.0
H856 H 0.0175 0.83614 0.49263 0.0
H857 H 0.02845 0.8809 0.48881 0.0
H858 H 0.03705 0.80162 0.52121 0.0
H859 H 0.03168 0.78965 0.56168 0.0
C860 C 0.16111 0.72874 0.7214 0.0
C861 C 0.16034 0.7262 0.75704 0.0
C862 C 0.10285 0.74779 0.76142 0.0
C863 C 0.10236 0.74787 0.72505 0.0
N864 N 0.13418 0.74566 0.67176 0.0
N865 N 0.13419 0.73792 0.81263 0.0
C866 C 0.13259 0.74096 0.70554 0.0
C867 C 0.13239 0.73743 0.77764 0.0
N868 N 0.18842 0.7174 0.70217 0.0
N869 N 0.07467 0.75726 0.78017 0.0
H870 H 0.15493 0.72934 0.82477 0.0
H871 H 0.11624 0.74802 0.83013 0.0
H872 H 0.05413 0.76771 0.76965 0.0
H873 H 0.07116 0.75488 0.80594 0.0
H874 H 0.18851 0.71308 0.67517 0.0
H875 H 0.21079 0.71045 0.71314 0.0
H876 H 0.15701 0.74598 0.6579 0.0
H877 H 0.11349 0.75158 0.65755 0.0
C878 C 0.97963 0.64515 0.55222 0.0
C879 C 1.00269 0.61874 0.55125 0.0
C880 C 0.0433 0.66227 0.59202 0.0
C881 C 0.01798 0.68651 0.59692 0.0
N882 N 0.96026 0.69977 0.58316 0.0
N883 N 0.05316 0.60014 0.57688 0.0
C884 C 0.98549 0.67741 0.57767 0.0
C885 C 0.03378 0.62682 0.57281 0.0
N886 N 0.95333 0.6405 0.52744 0.0
N887 N 0.07634 0.67274 0.60621 0.0
H888 H 0.04566 0.57323 0.56596 0.0
H889 H 0.07448 0.60392 0.59435 0.0
H890 H 0.08376 0.69761 0.62212 0.0
H891 H 0.09691 0.65764 0.60026 0.0
H892 H 0.93783 0.66032 0.52461 0.0
H893 H 0.94937 0.61829 0.50727 0.0
H894 H 0.93457 0.69222 0.57353 0.0
H895 H 0.96422 0.72503 0.59909 0.0
C896 C 0.80017 0.9091 0.18657 0.0
C897 C 0.78526 0.89079 0.21231 0.0
C898 C 0.82034 0.93439 0.257 0.0
C899 C 0.84175 0.94612 0.23082 0.0
N900 N 0.84829 0.94869 0.16998 0.0
N901 N 0.76169 0.91033 0.26795 0.0
C902 C 0.83024 0.93508 0.19537 0.0
C903 C 0.78964 0.90973 0.24699 0.0
N904 N 0.78276 0.90509 0.15526 0.0
N905 N 0.82826 0.94747 0.2914 0.0
H906 H 0.73649 0.89992 0.258 0.0
H907 H 0.76235 0.92617 0.29268 0.0
H908 H 0.84839 0.96802 0.30042 0.0
H909 H 0.81554 0.93635 0.31101 0.0
H910 H 0.79022 0.92017 0.13634 0.0
H911 H 0.75829 0.88961 0.15025 0.0
H912 H 0.84399 0.93797 0.14362 0.0
H913 H 0.8686 0.96972 0.17538 0.0
C914 C 0.84584 0.15948 0.32725 0.0
C915 C 0.80916 0.14846 0.32574 0.0
C916 C 0.81933 0.08602 0.30638 0.0
C917 C 0.85621 0.09653 0.31022 0.0
N918 N 0.90393 0.14237 0.3326 0.0
N919 N 0.76185 0.10049 0.32336 0.0
C920 C 0.86929 0.13304 0.32322 0.0
C921 C 0.79627 0.11144 0.31857 0.0
N922 N 0.85836 0.19505 0.33089 0.0
N923 N 0.80594 0.05272 0.28867 0.0
H924 H 0.74426 0.11844 0.33244 0.0
H925 H 0.75177 0.07362 0.32183 0.0
H926 H 0.82123 0.03374 0.27674 0.0
H927 H 0.77939 0.04536 0.28224 0.0
H928 H 0.88459 0.20434 0.32831 0.0
H929 H 0.84211 0.21514 0.3336 0.0
H930 H 0.91433 0.16799 0.34527 0.0
H931 H 0.92159 0.12359 0.331 0.0
C932 C 0.40893 0.99573 0.02554 0.0
C933 C 0.4104 0.02267 1.00472 0.0
C934 C 0.34656 0.01013 0.99608 0.0
C935 C 0.34621 0.97877 0.01108 0.0
N936 N 0.38062 0.93778 0.03252 0.0
N937 N 0.38043 0.0526 0.96644 0.0
C938 C 0.37828 0.97058 0.0241 0.0
C939 C 0.37909 0.02925 0.98909 0.0
N940 N 0.43653 0.99443 0.04732 0.0
N941 N 0.31578 0.02202 0.98897 0.0
H942 H 0.40381 0.06647 0.96016 0.0
H943 H 0.3588 0.05565 0.95154 0.0
H944 H 0.31452 0.04642 0.98102 0.0
H945 H 0.29157 0.00935 0.99458 0.0
H946 H 0.4353 0.97722 0.06521 0.0
H947 H 0.45897 0.01318 0.05035 0.0
H948 H 0.40437 0.92973 0.03889 0.0
H949 H 0.35995 0.91706 0.02924 0.0
C950 C 0.2785 0.42015 0.29485 0.0
C951 C 0.28291 0.42317 0.33124 0.0
C952 C 0.24539 0.47119 0.3409 0.0
C953 C 0.24222 0.46952 0.30446 0.0
N954 N 0.26266 0.4484 0.24727 0.0
N955 N 0.27764 0.45671 0.38893 0.0
C956 C 0.26078 0.44569 0.28153 0.0
C957 C 0.26875 0.4505 0.35424 0.0
N958 N 0.2905 0.39243 0.27303 0.0
N959 N 0.22446 0.49065 0.3627 0.0
H960 H 0.29454 0.44195 0.39962 0.0
H961 H 0.27099 0.47859 0.40647 0.0
H962 H 0.20599 0.50497 0.35393 0.0
H963 H 0.22289 0.48976 0.38906 0.0
H964 H 0.28454 0.38626 0.24643 0.0
H965 H 0.30465 0.37411 0.28195 0.0
H966 H 0.27849 0.43416 0.23001 0.0
H967 H 0.25114 0.46756 0.23678 0.0
C968 C 0.16205 0.03049 0.46537 0.0
C969 C 0.13509 0.03551 0.48951 0.0
C970 C 0.17511 0.08313 0.52652 0.0
C971 C 0.1996 0.08216 0.49963 0.0
N972 N 0.21586 0.05505 0.44239 0.0
N973 N 0.11456 0.07055 0.54125 0.0
C974 C 0.19285 0.05592 0.4687 0.0
C975 C 0.14138 0.06254 0.5199 0.0
N976 N 0.1587 1.00044 0.43993 0.0
N977 N 0.18365 0.10442 0.55821 0.0
H978 H 0.0891 0.05751 0.53678 0.0
H979 H 0.11666 0.09248 0.56165 0.0
H980 H 0.20687 0.12185 0.5633 0.0
H981 H 0.16867 0.1031 0.58 0.0
H982 H 0.17866 0.99327 0.42347 0.0
H983 H 0.13715 0.98061 0.43767 0.0
H984 H 0.20998 0.04008 0.41753 0.0
H985 H 0.24011 0.07087 0.44457 0.0
C986 C 0.77601 0.14101 0.76082 0.0
C987 C 0.78617 0.1435 0.72656 0.0
C988 C 0.74158 0.09268 0.70351 0.0
C989 C 0.73382 0.08834 0.73808 0.0
N990 N 0.75179 0.10229 0.79904 0.0
N991 N 0.78146 0.12001 0.66521 0.0
C992 C 0.75336 0.11074 0.76658 0.0
C993 C 0.76972 0.11883 0.69779 0.0
N994 N 0.7872 0.1682 0.78798 0.0
N995 N 0.72136 0.07261 0.67628 0.0
H996 H 0.80138 0.13941 0.66036 0.0
H997 H 0.7732 0.10057 0.64344 0.0
H998 H 0.70039 0.05377 0.6797 0.0
H999 H 0.72324 0.07677 0.65081 0.0
H1000 H 0.77817 0.16907 0.81302 0.0
H1001 H 0.8027 0.19174 0.78501 0.0
H1002 H 0.76839 0.11573 0.81978 0.0
H1003 H 0.73679 0.07957 0.80459 0.0
C1004 C 0.42311 0.0651 0.48142 0.0
C1005 C 0.4311 0.05511 0.51349 0.0
C1006 C 0.37378 0.06905 0.53459 0.0
C1007 C 0.36812 0.08424 0.50478 0.0
N1008 N 0.38828 0.09886 0.45043 0.0
N1009 N 0.41504 0.04828 0.57133 0.0
C1010 C 0.39277 0.08235 0.47804 0.0
C1011 C 0.40657 0.05699 0.54019 0.0
N1012 N 0.44454 0.05795 0.45418 0.0
N1013 N 0.34731 0.06525 0.55706 0.0
H1014 H 0.4381 0.03784 0.57578 0.0
H1015 H 0.40027 0.05326 0.59335 0.0
H1016 H 0.32274 0.07302 0.55328 0.0
H1017 H 0.3484 0.05137 0.57749 0.0
H1018 H 0.43854 0.06128 0.42907 0.0
H1019 H 0.46702 0.04564 0.45604 0.0
H1020 H 0.40723 0.10211 0.43218 0.0
H1021 H 0.36647 0.11163 0.44696 0.0
C1022 C 0.63315 0.45481 0.54722 0.0
C1023 C 0.64176 0.4924 0.5587 0.0
C1024 C 0.70385 0.48717 0.54808 0.0
C1025 C 0.69536 0.4494 0.53737 0.0
N1026 N 0.65304 0.39631 0.53249 0.0
N1027 N 0.68525 0.5438 0.57581 0.0
C1028 C 0.66037 0.43292 0.53896 0.0
C1029 C 0.67716 0.50841 0.56081 0.0
N1030 N 0.59878 0.44023 0.54258 0.0
N1031 N 0.73746 0.50274 0.54581 0.0
H1032 H 0.6663 0.56003 0.58514 0.0
H1033 H 0.71067 0.55651 0.58147 0.0
H1034 H 0.75815 0.48793 0.53911 0.0
H1035 H 0.74477 0.53032 0.54901 0.0
H1036 H 0.59052 0.41395 0.53019 0.0
H1037 H 0.57808 0.45512 0.54884 0.0
H1038 H 0.62907 0.38265 0.53734 0.0
H1039 H 0.67159 0.37919 0.52444 0.0
C1040 C 0.72062 0.25397 0.40927 0.0
C1041 C 0.75231 0.25154 0.39127 0.0
C1042 C 0.78233 0.29928 0.43586 0.0
C1043 C 0.74981 0.30542 0.45127 0.0
N1044 N 0.68727 0.29011 0.45113 0.0
N1045 N 0.81117 0.27786 0.38329 0.0
C1046 C 0.71871 0.283 0.43767 0.0
C1047 C 0.78257 0.27581 0.40347 0.0
N1048 N 0.69275 0.22796 0.39993 0.0
N1049 N 0.81333 0.31491 0.45247 0.0
H1050 H 0.81154 0.26325 0.35812 0.0
H1051 H 0.8329 0.29725 0.3897 0.0
H1052 H 0.81512 0.33156 0.4767 0.0
H1053 H 0.83754 0.30813 0.44397 0.0
H1054 H 0.6701 0.22623 0.41404 0.0
H1055 H 0.69343 0.2062 0.37965 0.0
H1056 H 0.66329 0.2774 0.4399 0.0
H1057 H 0.68504 0.31083 0.47206 0.0
C1058 C 0.60518 0.02816 0.91421 0.0
C1059 C 0.56875 0.03042 0.91536 0.0
C1060 C 0.56692 0.03176 0.85284 0.0
C1061 C 0.60388 0.03273 0.85232 0.0
N1062 N 0.65899 0.03885 0.88425 0.0
N1063 N 0.51534 0.03895 0.88726 0.0
C1064 C 0.62325 0.03265 0.88346 0.0
C1065 C 0.54972 0.0336 0.88509 0.0
N1066 N 0.62255 0.02116 0.94238 0.0
N1067 N 0.54813 0.02766 0.82228 0.0
H1068 H 0.50182 0.03962 0.91024 0.0
H1069 H 0.50095 0.04537 0.86712 0.0
H1070 H 0.55999 0.02533 0.79839 0.0
H1071 H 0.52092 0.02325 0.82023 0.0
H1072 H 0.64812 0.01497 0.94175 0.0
H1073 H 0.61051 0.01874 0.96569 0.0
H1074 H 0.67441 0.04315 0.90701 0.0
H1075 H 0.67333 0.04292 0.86261 0.0
C1076 C 0.33614 0.22741 0.38043 0.0
C1077 C 0.34711 0.26396 0.39557 0.0
C1078 C 0.33416 0.2504 0.45351 0.0
C1079 C 0.32286 0.21415 0.4382 0.0
N1080 N 0.32465 0.16594 0.38967 0.0
N1081 N 0.36667 0.30732 0.44703 0.0
C1082 C 0.32778 0.20194 0.40245 0.0
C1083 C 0.3495 0.27443 0.43238 0.0
N1084 N 0.33132 0.21732 0.34522 0.0
N1085 N 0.32895 0.26221 0.48791 0.0
H1086 H 0.37877 0.32507 0.43216 0.0
H1087 H 0.37189 0.31546 0.47364 0.0
H1088 H 0.31905 0.24501 0.50433 0.0
H1089 H 0.33263 0.28921 0.49966 0.0
H1090 H 0.31961 0.19192 0.33321 0.0
H1091 H 0.33637 0.23504 0.32807 0.0
H1092 H 0.33079 0.15521 0.36441 0.0
H1093 H 0.31943 0.14694 0.40562 0.0
C1094 C 0.54637 0.5083 0.88467 0.0
C1095 C 0.53341 0.52234 0.91743 0.0
C1096 C 0.48462 0.54189 0.88764 0.0
C1097 C 0.49867 0.52934 0.85492 0.0
N1098 N 0.54876 0.51108 0.82355 0.0
N1099 N 0.49616 0.56182 0.94964 0.0
C1100 C 0.53159 0.51618 0.85398 0.0
C1101 C 0.50441 0.54215 0.91878 0.0
N1102 N 0.57126 0.48552 0.88243 0.0
N1103 N 0.45161 0.55146 0.8894 0.0
H1104 H 0.51056 0.56335 0.97272 0.0
H1105 H 0.4774 0.57944 0.95157 0.0
H1106 H 0.43593 0.55154 0.86759 0.0
H1107 H 0.43873 0.55666 0.91266 0.0
H1108 H 0.57901 0.47179 0.85887 0.0
H1109 H 0.58153 0.47728 0.90395 0.0
H1110 H 0.57433 0.50486 0.822 0.0
H1111 H 0.53873 0.5169 0.80069 0.0
C1112 C 0.79401 0.75466 0.12042 0.0
C1113 C 0.76479 0.77386 0.12589 0.0
C1114 C 0.7472 0.75521 0.06406 0.0
C1115 C 0.77332 0.73162 0.05997 0.0
N1116 N 0.83183 0.7257 0.07848 0.0
N1117 N 0.71228 0.79152 0.10381 0.0
C1118 C 0.79985 0.73624 0.08652 0.0
C1119 C 0.74114 0.7741 0.09788 0.0
N1120 N 0.81538 0.75264 0.1479 0.0
N1121 N 0.73077 0.7626 0.03558 0.0
H1122 H 0.70756 0.80666 0.12789 0.0
H1123 H 0.69169 0.78876 0.08565 0.0
H1124 H 0.73914 0.75513 0.01045 0.0
H1125 H 0.71306 0.78122 0.03692 0.0
H1126 H 0.83466 0.73564 0.14618 0.0
H1127 H 0.81192 0.76571 0.17314 0.0
H1128 H 0.85327 0.73111 0.09593 0.0
H1129 H 0.83831 0.7162 0.05298 0.0
C1130 C 0.04143 0.02798 0.16786 0.0
C1131 C 0.03224 1.00873 0.13371 0.0
C1132 C 0.97699 0.9824 0.15432 0.0
C1133 C 0.98712 0.99914 0.189 0.0
N1134 N 0.03026 0.03591 0.22962 0.0
N1135 N 0.99493 0.962 0.09579 0.0
C1136 C 0.01982 0.02134 0.19602 0.0
C1137 C 1.00123 0.98404 0.12749 0.0
N1138 N 0.07005 0.05358 0.17307 0.0
N1139 N 0.94327 0.96712 0.14651 0.0
H1140 H 0.01213 0.96248 0.07548 0.0
H1141 H 0.97448 0.94098 0.0908 0.0
H1142 H 0.92446 0.9674 0.16528 0.0
H1143 H 0.93319 0.95775 0.12123 0.0
H1144 H 0.07611 0.07152 0.19636 0.0
H1145 H 0.08689 0.05822 0.15328 0.0
H1146 H 0.05531 0.04887 0.23704 0.0
H1147 H 0.01426 0.03337 0.2505 0.0
C1148 C 0.36076 0.81809 0.11952 0.0
C1149 C 0.33646 0.79375 0.13348 0.0
C1150 C 0.2879 0.8159 0.10633 0.0
C1151 C 0.31209 0.84152 0.09367 0.0
N1152 N 0.37068 0.8719 0.09431 0.0
N1153 N 0.27715 0.77452 0.14651 0.0
C1154 C 0.34832 0.84398 0.10202 0.0
C1155 C 0.30008 0.79433 0.12895 0.0
N1156 N 0.39581 0.81597 0.12226 0.0
N1157 N 0.25358 0.81051 0.0951 0.0
H1158 H 0.28533 0.75833 0.163 0.0
H1159 H 0.25048 0.7766 0.14724 0.0
H1160 H 0.24345 0.82496 0.07806 0.0
H1161 H 0.23569 0.78952 0.10022 0.0
H1162 H 0.41453 0.82982 0.10903 0.0
H1163 H 0.40617 0.79852 0.13604 0.0
H1164 H 0.39686 0.87745 0.10269 0.0
H1165 H 0.36219 0.89168 0.08232 0.0
C1166 C 0.10399 0.49971 0.11587 0.0
C1167 C 0.06687 0.49466 0.11482 0.0
C1168 C 0.06739 0.51273 0.17844 0.0
C1169 C 0.10463 0.51609 0.17967 0.0
N1170 N 0.15798 0.50544 0.14958 0.0
N1171 N 0.01293 0.49074 0.14482 0.0
C1172 C 0.12275 0.50702 0.14845 0.0
C1173 C 0.04847 0.49951 0.14609 0.0
N1174 N 0.1215 0.49959 0.08568 0.0
N1175 N 0.0501 0.52248 0.2082 0.0
H1176 H 0.99847 0.48133 0.12153 0.0
H1177 H 0.99804 0.4901 0.16672 0.0
H1178 H 0.0628 0.52974 0.23255 0.0
H1179 H 0.02353 0.525 0.2087 0.0
H1180 H 0.14825 0.50773 0.08496 0.0
H1181 H 0.109 0.49456 0.0612 0.0
H1182 H 0.17152 0.49459 0.12819 0.0
H1183 H 0.17354 0.51203 0.17225 0.0
C1184 C 0.41928 0.74386 0.29327 0.0
C1185 C 0.41154 0.71 0.27104 0.0
C1186 C 0.4536 0.68541 0.305 0.0
C1187 C 0.4635 0.72018 0.32521 0.0
N1188 N 0.46227 0.78438 0.33102 0.0
N1189 N 0.42503 0.64974 0.25206 0.0
C1190 C 0.44825 0.74997 0.3172 0.0
C1191 C 0.42967 0.681 0.27592 0.0
N1192 N 0.39824 0.77001 0.2924 0.0
N1193 N 0.46643 0.65648 0.31405 0.0
H1194 H 0.40809 0.64577 0.23033 0.0
H1195 H 0.44007 0.62893 0.2521 0.0
H1196 H 0.48416 0.65874 0.33492 0.0
H1197 H 0.4573 0.63002 0.30285 0.0
H1198 H 0.40085 0.79408 0.31025 0.0
H1199 H 0.3758 0.76628 0.27632 0.0
H1200 H 0.45434 0.80677 0.32298 0.0
H1201 H 0.48428 0.79089 0.34762 0.0
C1202 C 0.06354 0.38828 1.00296 0.0
C1203 C 0.03612 0.40994 1.0005 0.0
C1204 C 0.01486 0.36771 0.94783 0.0
C1205 C 0.03503 0.34182 0.95596 0.0
N1206 N 0.07853 0.32742 0.99413 0.0
N1207 N 0.97886 0.41108 0.97407 0.0
C1208 C 0.05951 0.35199 0.98442 0.0
C1209 C 0.0098 0.39718 0.97382 0.0
N1210 N 0.09421 0.4026 0.02072 0.0
N1211 N 1.00166 0.36506 0.91495 0.0
H1212 H 0.97151 0.42925 0.99511 0.0
H1213 H 0.95891 0.40068 0.95534 0.0
H1214 H 1.0071 0.34474 0.89476 0.0
H1215 H 0.98835 0.3849 0.90771 0.0
H1216 H 0.11549 0.38827 0.02108 0.0
H1217 H 0.10001 0.42988 0.03097 0.0
H1218 H 0.09435 0.333 0.01676 0.0
H1219 H 0.07647 0.30093 0.98086 0.0
C1220 C 0.62964 0.796 0.27424 0.0
C1221 C 0.66437 0.80332 0.28803 0.0
C1222 C 0.64248 0.81414 0.34696 0.0
C1223 C 0.60835 0.79926 0.33345 0.0
N1224 N 0.56972 0.77368 0.28325 0.0
N1225 N 0.70492 0.82138 0.33704 0.0
C1226 C 0.6017 0.79037 0.29678 0.0
C1227 C 0.67112 0.81354 0.3243 0.0
N1228 N 0.62349 0.79388 0.23943 0.0
N1229 N 0.64723 0.82905 0.38142 0.0
H1230 H 0.72618 0.82278 0.32087 0.0
H1231 H 0.71195 0.82499 0.36331 0.0
H1232 H 0.62646 0.83053 0.39825 0.0
H1233 H 0.67084 0.84287 0.39257 0.0
H1234 H 0.59854 0.79204 0.22817 0.0
H1235 H 0.64365 0.79775 0.22241 0.0
H1236 H 0.56505 0.76255 0.25703 0.0
H1237 H 0.54828 0.76824 0.29814 0.0
C1238 C 0.04329 0.11415 0.95866 0.0
C1239 C 0.04488 0.12196 0.99537 0.0
C1240 C 0.03815 0.18493 0.99414 0.0
C1241 C 0.03142 0.17583 0.95763 0.0
N1242 N 0.02251 0.12993 0.90566 0.0
N1243 N 0.04231 0.16399 0.04886 0.0
C1244 C 0.03305 0.14001 0.93991 0.0
C1245 C 0.04214 0.15723 0.01336 0.0
N1246 N 0.05148 0.08183 0.94169 0.0
N1247 N 0.04183 0.22015 0.01024 0.0
H1248 H 0.04692 0.14481 0.06366 0.0
H1249 H 0.03613 0.18784 0.06353 0.0
H1250 H 0.03959 0.24106 0.9969 0.0
H1251 H 0.05011 0.22894 0.03614 0.0
H1252 H 0.05423 0.07578 0.91492 0.0
H1253 H 0.05891 0.06238 0.95486 0.0
H1254 H 0.01942 0.1034 0.89252 0.0
H1255 H 0.01342 0.14734 0.89105 0.0
C1256 C 0.39729 0.31526 0.26607 0.0
C1257 C 0.40741 0.32258 0.30199 0.0
C1258 C 0.46913 0.32182 0.28655 0.0
C1259 C 0.45878 0.31407 0.25085 0.0
N1260 N 0.41504 0.31442 0.20669 0.0
N1261 N 0.45337 0.34191 0.34619 0.0
C1262 C 0.42351 0.3148 0.24074 0.0
C1263 C 0.44356 0.32878 0.31216 0.0
N1264 N 0.36277 0.30617 0.25596 0.0
N1265 N 0.50334 0.32161 0.29586 0.0
H1266 H 0.43532 0.3478 0.36535 0.0
H1267 H 0.47926 0.3499 0.35495 0.0
H1268 H 0.52276 0.31942 0.27754 0.0
H1269 H 0.51221 0.32246 0.32125 0.0
H1270 H 0.35421 0.29656 0.23024 0.0
H1271 H 0.34269 0.30508 0.27344 0.0
H1272 H 0.39036 0.31822 0.19804 0.0
H1273 H 0.43371 0.31372 0.18761 0.0
C1274 C 0.52336 0.38472 0.05116 0.0
C1275 C 0.53177 0.42127 0.06733 0.0
C1276 C 0.526 0.40401 0.12474 0.0
C1277 C 0.52034 0.36713 0.10871 0.0
N1278 N 0.5202 0.32219 0.05653 0.0
N1279 N 0.54622 0.46556 0.11922 0.0
C1280 C 0.5206 0.3574 0.07184 0.0
C1281 C 0.53468 0.43083 0.10407 0.0
N1282 N 0.51738 0.37606 0.01596 0.0
N1283 N 0.52165 0.41349 0.15965 0.0
H1284 H 0.55248 0.48577 0.10482 0.0
H1285 H 0.55242 0.47374 0.14566 0.0
H1286 H 0.51438 0.39469 0.17536 0.0
H1287 H 0.52195 0.4399 0.17249 0.0
H1288 H 0.50688 0.35057 1.00306 0.0
H1289 H 0.52073 0.39502 0.99978 0.0
H1290 H 0.52452 0.31386 0.03028 0.0
H1291 H 0.51854 0.30129 0.07041 0.0
C1292 C 0.63544 0.24033 0.27277 0.0
C1293 C 0.66529 0.23843 0.25219 0.0
C1294 C 0.63313 0.25366 0.20375 0.0
C1295 C 0.603 0.25587 0.22431 0.0
N1296 N 0.57855 0.26087 0.2811 0.0
N1297 N 0.69599 0.25324 0.20261 0.0
C1298 C 0.6052 0.25228 0.25977 0.0
C1299 C 0.66526 0.24862 0.21925 0.0
N1300 N 0.6355 0.22948 0.30414 0.0
N1301 N 0.63068 0.25353 0.16888 0.0
H1302 H 0.71993 0.24955 0.21328 0.0
H1303 H 0.69824 0.2641 0.18009 0.0
H1304 H 0.60778 0.2564 0.15592 0.0
H1305 H 0.65071 0.24747 0.15207 0.0
H1306 H 0.61325 0.22631 0.31863 0.0
H1307 H 0.65751 0.22149 0.31474 0.0
H1308 H 0.5799 0.26212 0.30787 0.0
H1309 H 0.55633 0.27016 0.27245 0.0
C1310 C 0.52462 0.15675 0.04884 0.0
C1311 C 0.49269 0.13371 0.04972 0.0
C1312 C 0.4741 0.18222 0.09324 0.0
C1313 C 0.50912 0.199 0.09952 0.0
N1314 N 0.56973 0.19655 0.08467 0.0
N1315 N 0.43978 0.1243 0.08199 0.0
C1316 C 0.53509 0.18455 0.07781 0.0
C1317 C 0.46794 0.14642 0.07439 0.0
N1318 N 0.54369 0.15437 0.01961 0.0
N1319 N 0.44668 0.20027 0.10418 0.0
H1320 H 0.43901 0.09648 0.07732 0.0
H1321 H 0.4198 0.13357 0.09729 0.0
H1322 H 0.44988 0.22737 0.11566 0.0
H1323 H 0.42073 0.18945 0.09781 0.0
H1324 H 0.56599 0.17231 0.01766 0.0
H1325 H 0.53445 0.13803 0.99614 0.0
H1326 H 0.58923 0.18478 0.07024 0.0
H1327 H 0.57891 0.21501 0.10687 0.0
C1328 C 0.30794 0.42276 0.73917 0.0
C1329 C 0.31113 0.39606 0.70936 0.0
C1330 C 0.36004 0.4369 0.69309 0.0
C1331 C 0.36288 0.45689 0.72752 0.0
N1332 N 0.33951 0.4656 0.78515 0.0
N1333 N 0.34461 0.37772 0.65847 0.0
C1334 C 0.33691 0.44879 0.75118 0.0
C1335 C 0.33801 0.40331 0.68592 0.0
N1336 N 0.27671 0.4245 0.75505 0.0
N1337 N 0.37881 0.44937 0.66763 0.0
H1338 H 0.33585 0.35058 0.6569 0.0
H1339 H 0.36297 0.38235 0.64002 0.0
H1340 H 0.39514 0.4736 0.67257 0.0
H1341 H 0.37551 0.43753 0.64144 0.0
H1342 H 0.27274 0.4452 0.77542 0.0
H1343 H 0.25389 0.40802 0.74491 0.0
H1344 H 0.32235 0.45792 0.80361 0.0
H1345 H 0.36045 0.48458 0.7955 0.0
C1346 C 0.30935 0.6181 0.84362 0.0
C1347 C 0.31399 0.6527 0.83469 0.0
C1348 C 0.37494 0.64533 0.82053 0.0
C1349 C 0.36846 0.60871 0.82379 0.0
N1350 N 0.33698 0.56822 0.85666 0.0
N1351 N 0.3508 0.6993 0.81344 0.0
C1352 C 0.33775 0.59718 0.84064 0.0
C1353 C 0.34685 0.66651 0.82324 0.0
N1354 N 0.27745 0.60478 0.85396 0.0
N1355 N 0.40852 0.66064 0.81785 0.0
H1356 H 0.33115 0.71593 0.81554 0.0
H1357 H 0.3726 0.70887 0.80083 0.0
H1358 H 0.42997 0.64711 0.82063 0.0
H1359 H 0.41548 0.68792 0.81815 0.0
H1360 H 0.27094 0.57813 0.85651 0.0
H1361 H 0.25658 0.61986 0.85782 0.0
H1362 H 0.31629 0.55978 0.87129 0.0
H1363 H 0.35921 0.55611 0.86011 0.0
C1364 C 0.90884 0.47505 0.48507 0.0
C1365 C 0.92259 0.50044 0.51482 0.0
C1366 C 0.86906 0.48299 0.54491 0.0
C1367 C 0.85782 0.45553 0.51607 0.0
N1368 N 0.87997 0.41564 0.4683 0.0
N1369 N 0.92076 0.51426 0.57734 0.0
C1370 C 0.88147 0.44839 0.48913 0.0
C1371 C 0.90405 0.50071 0.54614 0.0
N1372 N 0.92094 0.47606 0.45268 0.0
N1373 N 0.84699 0.49244 0.57093 0.0
H1374 H 0.94764 0.52243 0.57921 0.0
H1375 H 0.90897 0.51185 0.60075 0.0
H1376 H 0.82117 0.48041 0.57072 0.0
H1377 H 0.85387 0.51428 0.5911 0.0
H1378 H 0.91094 0.45694 0.4311 0.0
H1379 H 0.93753 0.49779 0.44697 0.0
H1380 H 0.86243 0.39347 0.47177 0.0
H1381 H 0.86243 0.39347 0.47177 0.0
C1382 C 0.76963 0.90156 0.78931 0.0
C1383 C 0.77662 0.90456 0.82537 0.0
C1384 C 0.7383 0.9516 0.83815 0.0
C1385 C 0.73291 0.95037 0.80201 0.0
N1386 N 0.74961 0.92966 0.74324 0.0
N1387 N 0.77398 0.93727 0.88384 0.0
C1388 C 0.75026 0.92682 0.77752 0.0
C1389 C 0.76306 0.93124 0.84967 0.0
N1390 N 0.78091 0.87422 0.76637 0.0
N1391 N 0.71828 0.97055 0.86147 0.0
H1392 H 0.79196 0.92273 0.89325 0.0
H1393 H 0.76781 0.9588 0.90213 0.0
H1394 H 0.6988 0.98451 0.85401 0.0
H1395 H 0.71844 0.96946 0.88784 0.0
H1396 H 0.77321 0.86803 0.74015 0.0
H1397 H 0.79628 0.8562 0.77408 0.0
H1398 H 0.76459 0.91576 0.72479 0.0
H1399 H 0.73669 0.94847 0.7337 0.0
C1400 C 0.66483 0.53015 0.97067 0.0
C1401 C 0.63984 0.53982 0.99589 0.0
C1402 C 0.6846 0.58657 0.02765 0.0
C1403 C 0.70734 0.58074 0.99944 0.0
N1404 N 0.71855 0.54735 0.94302 0.0
N1405 N 0.62484 0.58066 0.04655 0.0
C1406 C 0.69724 0.55266 0.97061 0.0
C1407 C 0.64955 0.56865 0.02421 0.0
N1408 N 0.65787 0.4986 0.94737 0.0
N1409 N 0.69619 0.60977 0.05758 0.0
H1410 H 0.5988 0.56906 0.04466 0.0
H1411 H 0.62939 0.60407 0.06523 0.0
H1412 H 0.72068 0.62525 0.06034 0.0
H1413 H 0.68234 0.61203 0.08036 0.0
H1414 H 0.67608 0.48814 0.9303 0.0
H1415 H 0.63496 0.48095 0.9476 0.0
H1416 H 0.71057 0.53072 0.91938 0.0
H1417 H 0.74354 0.56129 0.94278 0.0
C1418 C 0.27859 0.63041 0.19537 0.0
C1419 C 0.29157 0.6591 0.22277 0.0
C1420 C 0.25352 0.63177 0.26304 0.0
C1421 C 0.23761 0.60534 0.23506 0.0
N1422 N 0.23073 0.58418 0.17316 0.0
N1423 N 0.28367 0.69197 0.28014 0.0
C1424 C 0.24874 0.60626 0.20073 0.0
C1425 C 0.27622 0.66142 0.25569 0.0
N1426 N 0.296 0.62445 0.16512 0.0
N1427 N 0.24908 0.62763 0.29671 0.0
H1428 H 0.29867 0.71493 0.27486 0.0
H1429 H 0.27206 0.69571 0.30417 0.0
H1430 H 0.23457 0.60534 0.3037 0.0
H1431 H 0.26296 0.64455 0.31765 0.0
H1432 H 0.28972 0.60164 0.14596 0.0
H1433 H 0.31879 0.64029 0.16045 0.0
H1434 H 0.23553 0.58615 0.14742 0.0
H1435 H 0.2085 0.56667 0.17615 0.0
C1436 C 0.93288 0.558 0.97369 0.0
C1437 C 0.94237 0.54919 0.0059 0.0
C1438 C 0.88538 0.56249 0.0285 0.0
C1439 C 0.87818 0.57657 0.99836 0.0
N1440 N 0.89607 0.59008 0.94291 0.0
N1441 N 0.92866 0.54375 0.06463 0.0
C1442 C 0.90193 0.57445 0.97082 0.0
C1443 C 0.91876 0.55134 0.03341 0.0
N1444 N 0.95345 0.55051 0.9458 0.0
N1445 N 0.85984 0.55892 0.05198 0.0
H1446 H 0.95221 0.53402 0.06865 0.0
H1447 H 0.91455 0.54897 0.08708 0.0
H1448 H 0.83491 0.56605 0.04871 0.0
H1449 H 0.86208 0.54581 0.07282 0.0
H1450 H 0.94634 0.55292 0.92069 0.0
H1451 H 0.97635 0.53879 0.94725 0.0
H1452 H 0.91434 0.59322 0.92401 0.0
H1453 H 0.87381 0.60228 0.93977 0.0
C1454 C 0.12113 0.95415 0.03203 0.0
C1455 C 0.12722 0.99131 0.04692 0.0
C1456 C 0.19021 0.9911 0.03674 0.0
C1457 C 0.18434 0.95345 0.024 0.0
N1458 N 0.14518 0.89799 0.01486 0.0
N1459 N 0.16774 0.04447 0.06745 0.0
C1460 C 0.15005 0.93465 0.02324 0.0
C1461 C 0.16185 0.00966 0.0502 0.0
N1462 N 0.08754 0.93771 0.0252 0.0
N1463 N 0.22307 1.00908 0.03609 0.0
H1464 H 0.14764 0.05891 0.07722 0.0
H1465 H 0.19253 0.05842 0.07423 0.0
H1466 H 0.24476 0.99599 0.029 0.0
H1467 H 0.22868 0.03693 0.04091 0.0
H1468 H 0.08117 0.91184 0.01094 0.0
H1469 H 0.06573 0.95102 0.03116 0.0
H1470 H 0.12161 0.88239 0.0176 0.0
H1471 H 0.16549 0.8828 0.00772 0.0
loop_
_geom_bond_atom_site_label_1
_geom_bond_atom_site_label_2
_geom_bond_distance
_geom_bond_site_symmetry_2
_ccdc_geom_bond_type
H0 C3 0.929 . S
H1 C6 0.929 . S
H2 C8 0.930 . S
C3 H0 0.929 . S
C3 C4 1.398 . S
C3 C5 1.396 . S
C4 C3 1.398 . S
C4 C8 1.407 . S
C5 C3 1.396 . S
C5 C6 1.394 . S
C6 H1 0.929 . S
C6 C5 1.394 . S
C6 C7 1.382 . S
C7 C6 1.382 . S
C7 C8 1.392 . S
C7 N9 1.420 . S
C8 H2 0.930 . S
C8 C4 1.407 . S
C8 C7 1.392 . S
N9 C7 1.420 . S
N9 C10 1.244 . S
C10 N9 1.244 . S
H11 C14 0.929 . S
H12 C17 0.929 . S
H13 C19 0.930 . S
C14 H11 0.929 . S
C14 C15 1.398 . S
C14 C16 1.396 . S
C15 C14 1.398 . S
C15 C19 1.407 . S
C16 C14 1.396 . S
C16 C17 1.394 . S
C17 H12 0.929 . S
C17 C16 1.394 . S
C17 C18 1.382 . S
C18 C17 1.382 . S
C18 C19 1.392 . S
C18 N20 1.420 . S
C19 H13 0.930 . S
C19 C15 1.407 . S
C19 C18 1.392 . S
N20 C18 1.420 . S
N20 C21 1.244 . S
C21 N20 1.244 . S
H22 C25 0.929 . S
H23 C28 0.929 . S
H24 C30 0.930 1_556 S
C25 H22 0.929 . S
C25 C26 1.398 . S
C25 C27 1.396 . S
C26 C25 1.398 . S
C26 C30 1.407 1_455 S
C27 C25 1.396 . S
C27 C28 1.394 . S
C28 H23 0.929 . S
C28 C27 1.394 . S
C28 C29 1.382 1_455 S
C29 C28 1.382 1_655 S
C29 C30 1.392 . S
C29 N31 1.420 . S
C30 H24 0.930 1_554 S
C30 C26 1.407 1_655 S
C30 C29 1.392 . S
N31 C29 1.420 . S
N31 C32 1.244 . S
C32 N31 1.244 . S
H33 C36 0.929 . S
H34 C39 0.929 . S
H35 C41 0.930 . S
C36 H33 0.929 . S
C36 C37 1.398 . S
C36 C38 1.396 . S
C37 C36 1.398 . S
C37 C41 1.407 . S
C38 C36 1.396 . S
C38 C39 1.394 . S
C39 H34 0.929 . S
C39 C38 1.394 . S
C39 C40 1.382 . S
C40 C39 1.382 . S
C40 C41 1.392 . S
C40 N42 1.420 . S
C41 H35 0.930 . S
C41 C37 1.407 . S
C41 C40 1.392 . S
N42 C40 1.420 . S
N42 C43 1.244 . S
C43 N42 1.244 . S
H44 C47 0.929 . S
H45 C50 0.929 . S
H46 C52 0.930 . S
C47 H44 0.929 . S
C47 C48 1.398 1_545 S
C47 C49 1.396 . S
C48 C47 1.398 1_565 S
C48 C52 1.407 . S
C49 C47 1.396 . S
C49 C50 1.394 1_545 S
C50 H45 0.929 . S
C50 C49 1.394 1_565 S
C50 C51 1.382 . S
C51 C50 1.382 . S
C51 C52 1.392 . S
C51 N53 1.420 . S
C52 H46 0.930 . S
C52 C48 1.407 . S
C52 C51 1.392 . S
N53 C51 1.420 . S
N53 C54 1.244 . S
C54 N53 1.244 . S
H55 C58 0.929 . S
H56 C61 0.929 . S
H57 C63 0.930 . S
C58 H55 0.929 . S
C58 C59 1.398 . S
C58 C60 1.396 . S
C59 C58 1.398 . S
C59 C63 1.407 . S
C60 C58 1.396 . S
C60 C61 1.394 . S
C61 H56 0.929 . S
C61 C60 1.394 . S
C61 C62 1.382 . S
C62 C61 1.382 . S
C62 C63 1.392 . S
C62 N64 1.420 . S
C63 H57 0.930 . S
C63 C59 1.407 . S
C63 C62 1.392 . S
N64 C62 1.420 . S
N64 C65 1.244 . S
C65 N64 1.244 . S
H66 C69 0.929 . S
H67 C72 0.929 . S
H68 C74 0.930 . S
C69 H66 0.929 . S
C69 C70 1.398 . S
C69 C71 1.396 . S
C70 C69 1.398 . S
C70 C74 1.407 . S
C71 C69 1.396 . S
C71 C72 1.394 1_655 S
C72 H67 0.929 . S
C72 C71 1.394 1_455 S
C72 C73 1.382 . S
C73 C72 1.382 . S
C73 C74 1.392 1_455 S
C73 N75 1.420 . S
C74 H68 0.930 . S
C74 C70 1.407 . S
C74 C73 1.392 1_655 S
N75 C73 1.420 . S
N75 C76 1.244 . S
C76 N75 1.244 . S
H77 C80 0.929 . S
H78 C83 0.929 . S
H79 C85 0.930 . S
C80 H77 0.929 . S
C80 C81 1.398 . S
C80 C82 1.396 . S
C81 C80 1.398 . S
C81 C85 1.407 . S
C82 C80 1.396 . S
C82 C83 1.394 . S
C83 H78 0.929 . S
C83 C82 1.394 . S
C83 C84 1.382 . S
C84 C83 1.382 . S
C84 C85 1.392 . S
C84 N86 1.420 . S
C85 H79 0.930 . S
C85 C81 1.407 . S
C85 C84 1.392 . S
N86 C84 1.420 . S
N86 C87 1.244 . S
C87 N86 1.244 . S
H88 C91 0.929 . S
H89 C94 0.929 . S
H90 C96 0.930 . S
C91 H88 0.929 . S
C91 C92 1.398 . S
C91 C93 1.396 . S
C92 C91 1.398 . S
C92 C96 1.407 . S
C93 C91 1.396 . S
C93 C94 1.394 . S
C94 H89 0.929 . S
C94 C93 1.394 . S
C94 C95 1.382 . S
C95 C94 1.382 . S
C95 C96 1.392 . S
C95 N97 1.420 . S
C96 H90 0.930 . S
C96 C92 1.407 . S
C96 C95 1.392 . S
N97 C95 1.420 . S
N97 C98 1.244 . S
C98 N97 1.244 . S
H99 C102 0.929 . S
H100 C105 0.929 . S
H101 C107 0.930 . S
C102 H99 0.929 . S
C102 C103 1.398 . S
C102 C104 1.396 . S
C103 C102 1.398 . S
C103 C107 1.407 . S
C104 C102 1.396 . S
C104 C105 1.394 1_565 S
C105 H100 0.929 . S
C105 C104 1.394 1_545 S
C105 C106 1.382 1_545 S
C106 C105 1.382 1_565 S
C106 C107 1.392 . S
C106 N108 1.420 1_565 S
C107 H101 0.930 . S
C107 C103 1.407 . S
C107 C106 1.392 . S
N108 C106 1.420 1_545 S
N108 C109 1.244 . S
C109 N108 1.244 . S
H110 C113 0.929 . S
H111 C116 0.929 . S
H112 C118 0.930 . S
C113 H110 0.929 . S
C113 C114 1.398 . S
C113 C115 1.396 . S
C114 C113 1.398 . S
C114 C118 1.407 . S
C115 C113 1.396 . S
C115 C116 1.394 . S
C116 H111 0.929 . S
C116 C115 1.394 . S
C116 C117 1.382 . S
C117 C116 1.382 . S
C117 C118 1.392 . S
C117 N119 1.420 . S
C118 H112 0.930 . S
C118 C114 1.407 . S
C118 C117 1.392 . S
N119 C117 1.420 . S
N119 C120 1.244 . S
C120 N119 1.244 . S
H121 C124 0.929 . S
H122 C127 0.929 . S
H123 C129 0.930 . S
C124 H121 0.929 . S
C124 C125 1.398 . S
C124 C126 1.396 . S
C125 C124 1.398 . S
C125 C129 1.407 . S
C126 C124 1.396 . S
C126 C127 1.394 . S
C127 H122 0.929 . S
C127 C126 1.394 . S
C127 C128 1.382 . S
C128 C127 1.382 . S
C128 C129 1.392 . S
C128 N130 1.420 . S
C129 H123 0.930 . S
C129 C125 1.407 . S
C129 C128 1.392 . S
N130 C128 1.420 . S
N130 C131 1.244 . S
C131 N130 1.244 . S
H132 C135 0.929 . S
H133 C138 0.929 . S
H134 C140 0.930 . S
C135 H132 0.929 . S
C135 C136 1.398 . S
C135 C137 1.396 . S
C136 C135 1.398 . S
C136 C140 1.407 . S
C137 C135 1.396 . S
C137 C138 1.394 . S
C138 H133 0.929 . S
C138 C137 1.394 . S
C138 C139 1.382 . S
C139 C138 1.382 . S
C139 C140 1.392 . S
C139 N141 1.420 . S
C140 H134 0.930 . S
C140 C136 1.407 . S
C140 C139 1.392 . S
N141 C139 1.420 . S
N141 C142 1.244 . S
C142 N141 1.244 . S
H143 C146 0.929 . S
H144 C149 0.929 . S
H145 C151 0.930 . S
C146 H143 0.929 . S
C146 C147 1.398 . S
C146 C148 1.396 . S
C147 C146 1.398 . S
C147 C151 1.407 . S
C148 C146 1.396 . S
C148 C149 1.394 1_556 S
C149 H144 0.929 . S
C149 C148 1.394 1_554 S
C149 C150 1.382 . S
C150 C149 1.382 . S
C150 C151 1.392 1_554 S
C150 N152 1.420 . S
C151 H145 0.930 . S
C151 C147 1.407 . S
C151 C150 1.392 1_556 S
N152 C150 1.420 . S
N152 C153 1.244 . S
C153 N152 1.244 . S
H154 C157 0.929 . S
H155 C160 0.929 . S
H156 C162 0.930 . S
C157 H154 0.929 . S
C157 C158 1.398 . S
C157 C159 1.396 . S
C158 C157 1.398 . S
C158 C162 1.407 . S
C159 C157 1.396 . S
C159 C160 1.394 . S
C160 H155 0.929 . S
C160 C159 1.394 . S
C160 C161 1.382 . S
C161 C160 1.382 . S
C161 C162 1.392 . S
C161 N163 1.420 . S
C162 H156 0.930 . S
C162 C158 1.407 . S
C162 C161 1.392 . S
N163 C161 1.420 . S
N163 C164 1.244 . S
C164 N163 1.244 . S
H165 C168 0.929 . S
H166 C171 0.929 . S
H167 C173 0.930 1_565 S
C168 H165 0.929 . S
C168 C169 1.398 1_554 S
C168 C170 1.396 . S
C169 C168 1.398 1_556 S
C169 C173 1.407 . S
C170 C168 1.396 . S
C170 C171 1.394 1_554 S
C171 H166 0.929 . S
C171 C170 1.394 1_556 S
C171 C172 1.382 . S
C172 C171 1.382 . S
C172 C173 1.392 . S
C172 N174 1.420 . S
C173 H167 0.930 1_545 S
C173 C169 1.407 . S
C173 C172 1.392 . S
N174 C172 1.420 . S
N174 C175 1.244 . S
C175 N174 1.244 . S
Mn176 O181 2.095 . S
Mn176 O191 2.162 . S
Mn176 O192 2.297 . S
Mn176 O200 2.385 . S
Mn176 O201 2.177 1_554 S
Mn176 O202 2.094 . S
Mn177 O182 2.113 1_556 S
Mn177 N184 2.257 . S
Mn177 N193 2.282 . S
Mn177 O201 2.233 . S
Mn177 O203 2.117 1_556 S
C178 O200 1.202 1_556 S
C178 O201 1.284 . S
C179 O191 1.281 . S
C179 O192 1.236 . S
C180 O202 1.240 . S
C180 O203 1.264 . S
O181 Mn176 2.095 . S
O181 C190 1.250 . S
O182 Mn177 2.113 1_554 S
O182 C190 1.282 . S
C183 N184 1.326 . S
C183 C187 1.460 . S
C183 H189 0.929 . S
N184 Mn177 2.257 . S
N184 C183 1.326 . S
N184 C188 1.362 . S
C185 C186 1.258 . S
C185 C188 1.431 . S
C185 C205 1.449 . S
C186 C185 1.258 . S
C186 C187 1.477 . S
C186 H206 0.931 . S
C187 C183 1.460 . S
C187 C186 1.477 . S
C187 H207 0.930 . S
C188 N184 1.362 . S
C188 C185 1.431 . S
C188 C198 1.476 . S
H189 C183 0.929 . S
C190 O181 1.250 . S
C190 O182 1.282 . S
O191 Mn176 2.162 . S
O191 C179 1.281 . S
O192 Mn176 2.297 . S
O192 C179 1.236 . S
N193 Mn177 2.282 . S
N193 C194 1.328 . S
N193 C198 1.318 . S
C194 N193 1.328 . S
C194 C195 1.457 . S
C194 H199 0.929 . S
C195 C194 1.457 . S
C195 C196 1.291 . S
C195 H208 0.931 . S
C196 C195 1.291 . S
C196 C197 1.373 . S
C196 H209 0.929 . S
C197 C196 1.373 . S
C197 C198 1.396 . S
C197 C204 1.403 . S
C198 C188 1.476 . S
C198 N193 1.318 . S
C198 C197 1.396 . S
H199 C194 0.929 . S
O200 Mn176 2.385 . S
O200 C178 1.202 1_554 S
O201 Mn176 2.177 1_556 S
O201 Mn177 2.233 . S
O201 C178 1.284 . S
O202 Mn176 2.094 . S
O202 C180 1.240 . S
O203 Mn177 2.117 1_554 S
O203 C180 1.264 . S
C204 C197 1.403 . S
C204 C205 1.399 . S
C204 H210 0.929 . S
C205 C185 1.449 . S
C205 C204 1.399 . S
C205 H211 0.930 . S
H206 C186 0.931 . S
H207 C187 0.930 . S
H208 C195 0.931 . S
H209 C196 0.929 . S
H210 C204 0.929 . S
H211 C205 0.930 . S
Mn212 O217 2.095 . S
Mn212 O227 2.162 . S
Mn212 O228 2.297 . S
Mn212 O236 2.385 . S
Mn212 O237 2.209 . S
Mn212 O238 2.094 . S
Mn213 O218 2.121 . S
Mn213 N220 2.257 . S
Mn213 N229 2.282 . S
Mn213 O237 2.215 . S
Mn213 O239 2.117 . S
C214 O236 1.234 . S
C214 O237 1.283 . S
C215 O227 1.281 . S
C215 O228 1.236 . S
C216 O238 1.240 . S
C216 O239 1.264 . S
O217 Mn212 2.095 . S
O217 C226 1.250 . S
O218 Mn213 2.121 . S
O218 C226 1.258 . S
C219 N220 1.326 . S
C219 C223 1.460 . S
C219 H225 0.929 . S
N220 Mn213 2.257 . S
N220 C219 1.326 . S
N220 C224 1.362 . S
C221 C222 1.258 . S
C221 C224 1.431 . S
C221 C241 1.449 . S
C222 C221 1.258 . S
C222 C223 1.477 . S
C222 H242 0.931 . S
C223 C219 1.460 . S
C223 C222 1.477 . S
C223 H243 0.930 . S
C224 N220 1.362 . S
C224 C221 1.431 . S
C224 C234 1.476 . S
H225 C219 0.929 . S
C226 O217 1.250 . S
C226 O218 1.258 . S
O227 Mn212 2.162 . S
O227 C215 1.281 . S
O228 Mn212 2.297 . S
O228 C215 1.236 . S
N229 Mn213 2.282 . S
N229 C230 1.328 . S
N229 C234 1.318 . S
C230 N229 1.328 . S
C230 C231 1.457 . S
C230 H235 0.929 . S
C231 C230 1.457 . S
C231 C232 1.291 . S
C231 H244 0.931 . S
C232 C231 1.291 . S
C232 C233 1.373 . S
C232 H245 0.929 . S
C233 C232 1.373 . S
C233 C234 1.396 . S
C233 C240 1.403 . S
C234 C224 1.476 . S
C234 N229 1.318 . S
C234 C233 1.396 . S
H235 C230 0.929 . S
O236 Mn212 2.385 . S
O236 C214 1.234 . S
O237 Mn212 2.209 . S
O237 Mn213 2.215 . S
O237 C214 1.283 . S
O238 Mn212 2.094 . S
O238 C216 1.240 . S
O239 Mn213 2.117 . S
O239 C216 1.264 . S
C240 C233 1.403 . S
C240 C241 1.399 . S
C240 H246 0.929 . S
C241 C221 1.449 . S
C241 C240 1.399 . S
C241 H247 0.930 . S
H242 C222 0.931 . S
H243 C223 0.930 . S
H244 C231 0.931 . S
H245 C232 0.929 . S
H246 C240 0.929 . S
H247 C241 0.930 . S
Mn248 O253 2.095 1_554 S
Mn248 O263 2.162 . S
Mn248 O264 2.297 1_554 S
Mn248 O272 2.385 . S
Mn248 O273 2.209 1_554 S
Mn248 O274 2.094 . S
Mn249 O254 2.121 . S
Mn249 N256 2.257 . S
Mn249 N265 2.267 1_556 S
Mn249 O273 2.215 . S
Mn249 O275 2.117 1_556 S
C250 O272 1.218 1_556 S
C250 O273 1.297 . S
C251 O263 1.294 . S
C251 O264 1.221 1_554 S
C252 O274 1.240 . S
C252 O275 1.264 . S
O253 Mn248 2.095 1_556 S
O253 C262 1.250 . S
O254 Mn249 2.121 . S
O254 C262 1.258 . S
C255 N256 1.326 . S
C255 C259 1.460 . S
C255 H261 0.929 . S
N256 Mn249 2.257 . S
N256 C255 1.326 . S
N256 C260 1.362 . S
C257 C258 1.258 . S
C257 C260 1.431 . S
C257 C277 1.449 . S
C258 C257 1.258 . S
C258 C259 1.477 . S
C258 H278 0.931 . S
C259 C255 1.460 . S
C259 C258 1.477 . S
C259 H279 0.930 . S
C260 N256 1.362 . S
C260 C257 1.431 . S
C260 C270 1.476 . S
H261 C255 0.929 . S
C262 O253 1.250 . S
C262 O254 1.258 . S
O263 Mn248 2.162 . S
O263 C251 1.294 . S
O264 Mn248 2.297 1_556 S
O264 C251 1.221 1_556 S
N265 Mn249 2.267 1_554 S
N265 C266 1.358 . S
N265 C270 1.301 1_554 S
C266 N265 1.358 . S
C266 C267 1.457 . S
C266 H271 0.929 . S
C267 C266 1.457 . S
C267 C268 1.291 . S
C267 H280 0.931 . S
C268 C267 1.291 . S
C268 C269 1.373 1_554 S
C268 H281 0.929 . S
C269 C268 1.373 1_556 S
C269 C270 1.396 . S
C269 C276 1.403 . S
C270 C260 1.476 . S
C270 N265 1.301 1_556 S
C270 C269 1.396 . S
H271 C266 0.929 . S
O272 Mn248 2.385 . S
O272 C250 1.218 1_554 S
O273 Mn248 2.209 1_556 S
O273 Mn249 2.215 . S
O273 C250 1.297 . S
O274 Mn248 2.094 . S
O274 C252 1.240 . S
O275 Mn249 2.117 1_554 S
O275 C252 1.264 . S
C276 C269 1.403 . S
C276 C277 1.399 . S
C276 H282 0.929 . S
C277 C257 1.449 . S
C277 C276 1.399 . S
C277 H283 0.930 . S
H278 C258 0.931 . S
H279 C259 0.930 . S
H280 C267 0.931 . S
H281 C268 0.929 . S
H282 C276 0.929 . S
H283 C277 0.930 . S
Mn284 O289 2.095 . S
Mn284 O299 2.162 . S
Mn284 O300 2.297 . S
Mn284 O308 2.385 . S
Mn284 O309 2.209 1_545 S
Mn284 O310 2.094 . S
Mn285 O290 2.121 . S
Mn285 N292 2.257 . S
Mn285 N301 2.282 . S
Mn285 O309 2.215 . S
Mn285 O311 2.117 . S
C286 O308 1.234 1_565 S
C286 O309 1.283 . S
C287 O299 1.281 . S
C287 O300 1.236 . S
C288 O310 1.240 . S
C288 O311 1.264 1_545 S
O289 Mn284 2.095 . S
O289 C298 1.250 . S
O290 Mn285 2.121 . S
O290 C298 1.258 1_565 S
C291 N292 1.326 . S
C291 C295 1.460 . S
C291 H297 0.929 . S
N292 Mn285 2.257 . S
N292 C291 1.326 . S
N292 C296 1.362 . S
C293 C294 1.258 . S
C293 C296 1.431 . S
C293 C313 1.449 . S
C294 C293 1.258 . S
C294 C295 1.477 . S
C294 H314 0.931 . S
C295 C291 1.460 . S
C295 C294 1.477 . S
C295 H315 0.930 . S
C296 N292 1.362 . S
C296 C293 1.431 . S
C296 C306 1.476 . S
H297 C291 0.929 . S
C298 O289 1.250 . S
C298 O290 1.258 1_545 S
O299 Mn284 2.162 . S
O299 C287 1.281 . S
O300 Mn284 2.297 . S
O300 C287 1.236 . S
N301 Mn285 2.282 . S
N301 C302 1.328 . S
N301 C306 1.318 . S
C302 N301 1.328 . S
C302 C303 1.457 . S
C302 H307 0.929 . S
C303 C302 1.457 . S
C303 C304 1.291 . S
C303 H316 0.931 . S
C304 C303 1.291 . S
C304 C305 1.373 . S
C304 H317 0.929 . S
C305 C304 1.373 . S
C305 C306 1.396 . S
C305 C312 1.403 . S
C306 C296 1.476 . S
C306 N301 1.318 . S
C306 C305 1.396 . S
H307 C302 0.929 . S
O308 Mn284 2.385 . S
O308 C286 1.234 1_545 S
O309 Mn284 2.209 1_565 S
O309 Mn285 2.215 . S
O309 C286 1.283 . S
O310 Mn284 2.094 . S
O310 C288 1.240 . S
O311 Mn285 2.117 . S
O311 C288 1.264 1_565 S
C312 C305 1.403 . S
C312 C313 1.399 . S
C312 H318 0.929 . S
C313 C293 1.449 . S
C313 C312 1.399 . S
C313 H319 0.930 . S
H314 C294 0.931 . S
H315 C295 0.930 . S
H316 C303 0.931 . S
H317 C304 0.929 . S
H318 C312 0.929 . S
H319 C313 0.930 . S
Mn320 O325 2.095 . S
Mn320 O335 2.162 . S
Mn320 O336 2.297 . S
Mn320 O344 2.385 . S
Mn320 O345 2.209 . S
Mn320 O346 2.094 . S
Mn321 O326 2.121 . S
Mn321 N328 2.257 . S
Mn321 N337 2.282 . S
Mn321 O345 2.215 . S
Mn321 O347 2.117 . S
C322 O344 1.234 . S
C322 O345 1.283 . S
C323 O335 1.281 . S
C323 O336 1.236 . S
C324 O346 1.240 . S
C324 O347 1.264 . S
O325 Mn320 2.095 . S
O325 C334 1.250 . S
O326 Mn321 2.121 . S
O326 C334 1.258 . S
C327 N328 1.326 . S
C327 C331 1.460 . S
C327 H333 0.929 . S
N328 Mn321 2.257 . S
N328 C327 1.326 . S
N328 C332 1.362 . S
C329 C330 1.258 . S
C329 C332 1.431 . S
C329 C349 1.449 . S
C330 C329 1.258 . S
C330 C331 1.477 . S
C330 H350 0.931 . S
C331 C327 1.460 . S
C331 C330 1.477 . S
C331 H351 0.930 . S
C332 N328 1.362 . S
C332 C329 1.431 . S
C332 C342 1.476 . S
H333 C327 0.929 . S
C334 O325 1.250 . S
C334 O326 1.258 . S
O335 Mn320 2.162 . S
O335 C323 1.281 . S
O336 Mn320 2.297 . S
O336 C323 1.236 . S
N337 Mn321 2.282 . S
N337 C338 1.328 . S
N337 C342 1.318 . S
C338 N337 1.328 . S
C338 C339 1.457 . S
C338 H343 0.929 . S
C339 C338 1.457 . S
C339 C340 1.291 . S
C339 H352 0.931 . S
C340 C339 1.291 . S
C340 C341 1.373 . S
C340 H353 0.929 . S
C341 C340 1.373 . S
C341 C342 1.396 . S
C341 C348 1.403 . S
C342 C332 1.476 . S
C342 N337 1.318 . S
C342 C341 1.396 . S
H343 C338 0.929 . S
O344 Mn320 2.385 . S
O344 C322 1.234 . S
O345 Mn320 2.209 . S
O345 Mn321 2.215 . S
O345 C322 1.283 . S
O346 Mn320 2.094 . S
O346 C324 1.240 . S
O347 Mn321 2.117 . S
O347 C324 1.264 . S
C348 C341 1.403 . S
C348 C349 1.399 . S
C348 H354 0.929 . S
C349 C329 1.449 . S
C349 C348 1.399 . S
C349 H355 0.930 . S
H350 C330 0.931 . S
H351 C331 0.930 . S
H352 C339 0.931 . S
H353 C340 0.929 . S
H354 C348 0.929 . S
H355 C349 0.930 . S
Mn356 O361 2.095 . S
Mn356 O371 2.162 . S
Mn356 O372 2.297 . S
Mn356 O380 2.385 . S
Mn356 O381 2.209 . S
Mn356 O382 2.094 . S
Mn357 O362 2.121 . S
Mn357 N364 2.257 . S
Mn357 N373 2.282 . S
Mn357 O381 2.215 . S
Mn357 O383 2.117 . S
C358 O380 1.234 . S
C358 O381 1.283 . S
C359 O371 1.281 . S
C359 O372 1.236 . S
C360 O382 1.240 . S
C360 O383 1.264 . S
O361 Mn356 2.095 . S
O361 C370 1.250 . S
O362 Mn357 2.121 . S
O362 C370 1.258 . S
C363 N364 1.326 . S
C363 C367 1.460 . S
C363 H369 0.929 . S
N364 Mn357 2.257 . S
N364 C363 1.326 . S
N364 C368 1.362 . S
C365 C366 1.258 . S
C365 C368 1.431 . S
C365 C385 1.449 . S
C366 C365 1.258 . S
C366 C367 1.477 . S
C366 H386 0.931 . S
C367 C363 1.460 . S
C367 C366 1.477 . S
C367 H387 0.930 . S
C368 N364 1.362 . S
C368 C365 1.431 . S
C368 C378 1.476 . S
H369 C363 0.929 . S
C370 O361 1.250 . S
C370 O362 1.258 . S
O371 Mn356 2.162 . S
O371 C359 1.281 . S
O372 Mn356 2.297 . S
O372 C359 1.236 . S
N373 Mn357 2.282 . S
N373 C374 1.328 . S
N373 C378 1.318 . S
C374 N373 1.328 . S
C374 C375 1.457 . S
C374 H379 0.929 . S
C375 C374 1.457 . S
C375 C376 1.291 . S
C375 H388 0.931 . S
C376 C375 1.291 . S
C376 C377 1.373 . S
C376 H389 0.929 . S
C377 C376 1.373 . S
C377 C378 1.396 . S
C377 C384 1.403 . S
C378 C368 1.476 . S
C378 N373 1.318 . S
C378 C377 1.396 . S
H379 C374 0.929 . S
O380 Mn356 2.385 . S
O380 C358 1.234 . S
O381 Mn356 2.209 . S
O381 Mn357 2.215 . S
O381 C358 1.283 . S
O382 Mn356 2.094 . S
O382 C360 1.240 . S
O383 Mn357 2.117 . S
O383 C360 1.264 . S
C384 C377 1.403 . S
C384 C385 1.399 . S
C384 H390 0.929 . S
C385 C365 1.449 . S
C385 C384 1.399 . S
C385 H391 0.930 . S
H386 C366 0.931 . S
H387 C367 0.930 . S
H388 C375 0.931 . S
H389 C376 0.929 . S
H390 C384 0.929 . S
H391 C385 0.930 . S
Mn392 O397 2.095 . S
Mn392 O407 2.162 . S
Mn392 O408 2.297 . S
Mn392 O416 2.385 . S
Mn392 O417 2.209 . S
Mn392 O418 2.094 . S
Mn393 O398 2.121 . S
Mn393 N400 2.257 . S
Mn393 N409 2.282 . S
Mn393 O417 2.215 . S
Mn393 O419 2.117 . S
C394 O416 1.234 . S
C394 O417 1.283 . S
C395 O407 1.281 . S
C395 O408 1.236 . S
C396 O418 1.240 . S
C396 O419 1.264 . S
O397 Mn392 2.095 . S
O397 C406 1.250 . S
O398 Mn393 2.121 . S
O398 C406 1.258 . S
C399 N400 1.326 . S
C399 C403 1.460 . S
C399 H405 0.929 . S
N400 Mn393 2.257 . S
N400 C399 1.326 . S
N400 C404 1.362 . S
C401 C402 1.258 . S
C401 C404 1.431 . S
C401 C421 1.449 . S
C402 C401 1.258 . S
C402 C403 1.477 . S
C402 H422 0.931 . S
C403 C399 1.460 . S
C403 C402 1.477 . S
C403 H423 0.930 . S
C404 N400 1.362 . S
C404 C401 1.431 . S
C404 C414 1.476 . S
H405 C399 0.929 . S
C406 O397 1.250 . S
C406 O398 1.258 . S
O407 Mn392 2.162 . S
O407 C395 1.281 . S
O408 Mn392 2.297 . S
O408 C395 1.236 . S
N409 Mn393 2.282 . S
N409 C410 1.328 . S
N409 C414 1.318 . S
C410 N409 1.328 . S
C410 C411 1.457 . S
C410 H415 0.929 . S
C411 C410 1.457 . S
C411 C412 1.291 . S
C411 H424 0.931 . S
C412 C411 1.291 . S
C412 C413 1.373 . S
C412 H425 0.929 . S
C413 C412 1.373 . S
C413 C414 1.396 . S
C413 C420 1.403 . S
C414 C404 1.476 . S
C414 N409 1.318 . S
C414 C413 1.396 . S
H415 C410 0.929 . S
O416 Mn392 2.385 . S
O416 C394 1.234 . S
O417 Mn392 2.209 . S
O417 Mn393 2.215 . S
O417 C394 1.283 . S
O418 Mn392 2.094 . S
O418 C396 1.240 . S
O419 Mn393 2.117 . S
O419 C396 1.264 . S
C420 C413 1.403 . S
C420 C421 1.399 . S
C420 H426 0.929 . S
C421 C401 1.449 . S
C421 C420 1.399 . S
C421 H427 0.930 . S
H422 C402 0.931 . S
H423 C403 0.930 . S
H424 C411 0.931 . S
H425 C412 0.929 . S
H426 C420 0.929 . S
H427 C421 0.930 . S
Mn428 O433 2.095 . S
Mn428 O443 2.162 . S
Mn428 O444 2.297 . S
Mn428 O452 2.385 1_565 S
Mn428 O453 2.209 1_565 S
Mn428 O454 2.094 . S
Mn429 O434 2.121 . S
Mn429 N436 2.257 . S
Mn429 N445 2.282 . S
Mn429 O453 2.215 . S
Mn429 O455 2.117 . S
C430 O452 1.234 . S
C430 O453 1.283 . S
C431 O443 1.281 . S
C431 O444 1.236 . S
C432 O454 1.240 . S
C432 O455 1.264 1_565 S
O433 Mn428 2.095 . S
O433 C442 1.250 1_565 S
O434 Mn429 2.121 . S
O434 C442 1.258 . S
C435 N436 1.326 . S
C435 C439 1.460 . S
C435 H441 0.929 . S
N436 Mn429 2.257 . S
N436 C435 1.326 . S
N436 C440 1.362 . S
C437 C438 1.258 . S
C437 C440 1.431 . S
C437 C457 1.449 . S
C438 C437 1.258 . S
C438 C439 1.477 . S
C438 H458 0.931 . S
C439 C435 1.460 . S
C439 C438 1.477 . S
C439 H459 0.930 . S
C440 N436 1.362 . S
C440 C437 1.431 . S
C440 C450 1.476 . S
H441 C435 0.929 . S
C442 O433 1.250 1_545 S
C442 O434 1.258 . S
O443 Mn428 2.162 . S
O443 C431 1.281 . S
O444 Mn428 2.297 . S
O444 C431 1.236 . S
N445 Mn429 2.282 . S
N445 C446 1.328 . S
N445 C450 1.318 . S
C446 N445 1.328 . S
C446 C447 1.457 . S
C446 H451 0.929 . S
C447 C446 1.457 . S
C447 C448 1.291 . S
C447 H460 0.931 . S
C448 C447 1.291 . S
C448 C449 1.373 . S
C448 H461 0.929 . S
C449 C448 1.373 . S
C449 C450 1.396 . S
C449 C456 1.403 . S
C450 C440 1.476 . S
C450 N445 1.318 . S
C450 C449 1.396 . S
H451 C446 0.929 . S
O452 Mn428 2.385 1_545 S
O452 C430 1.234 . S
O453 Mn428 2.209 1_545 S
O453 Mn429 2.215 . S
O453 C430 1.283 . S
O454 Mn428 2.094 . S
O454 C432 1.240 . S
O455 Mn429 2.117 . S
O455 C432 1.264 1_545 S
C456 C449 1.403 . S
C456 C457 1.399 . S
C456 H462 0.929 . S
C457 C437 1.449 . S
C457 C456 1.399 . S
C457 H463 0.930 . S
H458 C438 0.931 . S
H459 C439 0.930 . S
H460 C447 0.931 . S
H461 C448 0.929 . S
H462 C456 0.929 . S
H463 C457 0.930 . S
Mn464 O469 2.095 . S
Mn464 O479 2.162 . S
Mn464 O480 2.297 . S
Mn464 O488 2.385 . S
Mn464 O489 2.209 1_455 S
Mn464 O490 2.094 . S
Mn465 O470 2.121 . S
Mn465 N472 2.257 . S
Mn465 N481 2.282 . S
Mn465 O489 2.215 . S
Mn465 O491 2.117 . S
C466 O488 1.234 1_655 S
C466 O489 1.283 . S
C467 O479 1.281 . S
C467 O480 1.236 . S
C468 O490 1.240 . S
C468 O491 1.264 1_455 S
O469 Mn464 2.095 . S
O469 C478 1.250 . S
O470 Mn465 2.121 . S
O470 C478 1.258 1_655 S
C471 N472 1.326 . S
C471 C475 1.460 . S
C471 H477 0.929 . S
N472 Mn465 2.257 . S
N472 C471 1.326 . S
N472 C476 1.362 . S
C473 C474 1.258 . S
C473 C476 1.431 . S
C473 C493 1.449 . S
C474 C473 1.258 . S
C474 C475 1.477 . S
C474 H494 0.931 . S
C475 C471 1.460 . S
C475 C474 1.477 . S
C475 H495 0.930 . S
C476 N472 1.362 . S
C476 C473 1.431 . S
C476 C486 1.476 . S
H477 C471 0.929 . S
C478 O469 1.250 . S
C478 O470 1.258 1_455 S
O479 Mn464 2.162 . S
O479 C467 1.281 . S
O480 Mn464 2.297 . S
O480 C467 1.236 . S
N481 Mn465 2.282 . S
N481 C482 1.328 . S
N481 C486 1.318 . S
C482 N481 1.328 . S
C482 C483 1.457 . S
C482 H487 0.929 . S
C483 C482 1.457 . S
C483 C484 1.291 . S
C483 H496 0.931 . S
C484 C483 1.291 . S
C484 C485 1.373 . S
C484 H497 0.929 . S
C485 C484 1.373 . S
C485 C486 1.396 . S
C485 C492 1.403 . S
C486 C476 1.476 . S
C486 N481 1.318 . S
C486 C485 1.396 . S
H487 C482 0.929 . S
O488 Mn464 2.385 . S
O488 C466 1.234 1_455 S
O489 Mn464 2.209 1_655 S
O489 Mn465 2.215 . S
O489 C466 1.283 . S
O490 Mn464 2.094 . S
O490 C468 1.240 . S
O491 Mn465 2.117 . S
O491 C468 1.264 1_655 S
C492 C485 1.403 . S
C492 C493 1.399 . S
C492 H498 0.929 . S
C493 C473 1.449 . S
C493 C492 1.399 . S
C493 H499 0.930 . S
H494 C474 0.931 . S
H495 C475 0.930 . S
H496 C483 0.931 . S
H497 C484 0.929 . S
H498 C492 0.929 . S
H499 C493 0.930 . S
Mn500 O505 2.095 . S
Mn500 O515 2.162 . S
Mn500 O516 2.297 . S
Mn500 O524 2.385 . S
Mn500 O525 2.209 . S
Mn500 O526 2.094 . S
Mn501 O506 2.121 . S
Mn501 N508 2.257 . S
Mn501 N517 2.282 . S
Mn501 O525 2.215 . S
Mn501 O527 2.117 . S
C502 O524 1.234 . S
C502 O525 1.283 . S
C503 O515 1.281 . S
C503 O516 1.236 . S
C504 O526 1.240 . S
C504 O527 1.264 . S
O505 Mn500 2.095 . S
O505 C514 1.250 . S
O506 Mn501 2.121 . S
O506 C514 1.258 . S
C507 N508 1.326 . S
C507 C511 1.460 . S
C507 H513 0.929 . S
N508 Mn501 2.257 . S
N508 C507 1.326 . S
N508 C512 1.362 . S
C509 C510 1.258 . S
C509 C512 1.431 . S
C509 C529 1.449 . S
C510 C509 1.258 . S
C510 C511 1.477 . S
C510 H530 0.931 . S
C511 C507 1.460 . S
C511 C510 1.477 . S
C511 H531 0.930 . S
C512 N508 1.362 . S
C512 C509 1.431 . S
C512 C522 1.476 . S
H513 C507 0.929 . S
C514 O505 1.250 . S
C514 O506 1.258 . S
O515 Mn500 2.162 . S
O515 C503 1.281 . S
O516 Mn500 2.297 . S
O516 C503 1.236 . S
N517 Mn501 2.282 . S
N517 C518 1.328 . S
N517 C522 1.318 . S
C518 N517 1.328 . S
C518 C519 1.457 . S
C518 H523 0.929 . S
C519 C518 1.457 . S
C519 C520 1.291 . S
C519 H532 0.931 . S
C520 C519 1.291 . S
C520 C521 1.373 . S
C520 H533 0.929 . S
C521 C520 1.373 . S
C521 C522 1.396 . S
C521 C528 1.403 . S
C522 C512 1.476 . S
C522 N517 1.318 . S
C522 C521 1.396 . S
H523 C518 0.929 . S
O524 Mn500 2.385 . S
O524 C502 1.234 . S
O525 Mn500 2.209 . S
O525 Mn501 2.215 . S
O525 C502 1.283 . S
O526 Mn500 2.094 . S
O526 C504 1.240 . S
O527 Mn501 2.117 . S
O527 C504 1.264 . S
C528 C521 1.403 . S
C528 C529 1.399 . S
C528 H534 0.929 . S
C529 C509 1.449 . S
C529 C528 1.399 . S
C529 H535 0.930 . S
H530 C510 0.931 . S
H531 C511 0.930 . S
H532 C519 0.931 . S
H533 C520 0.929 . S
H534 C528 0.929 . S
H535 C529 0.930 . S
Mn536 O541 2.095 1_455 S
Mn536 O551 2.162 . S
Mn536 O552 2.297 1_455 S
Mn536 O560 2.385 . S
Mn536 O561 2.209 1_455 S
Mn536 O562 2.094 . S
Mn537 O542 2.121 . S
Mn537 N544 2.257 . S
Mn537 N553 2.282 1_655 S
Mn537 O561 2.215 . S
Mn537 O563 2.117 1_655 S
C538 O560 1.234 . S
C538 O561 1.283 1_455 S
C539 O551 1.281 . S
C539 O552 1.236 1_455 S
C540 O562 1.240 . S
C540 O563 1.264 . S
O541 Mn536 2.095 1_655 S
O541 C550 1.250 . S
O542 Mn537 2.121 . S
O542 C550 1.258 . S
C543 N544 1.326 . S
C543 C547 1.460 . S
C543 H549 0.929 . S
N544 Mn537 2.257 . S
N544 C543 1.326 . S
N544 C548 1.362 . S
C545 C546 1.258 . S
C545 C548 1.431 . S
C545 C565 1.449 . S
C546 C545 1.258 . S
C546 C547 1.477 . S
C546 H566 0.931 . S
C547 C543 1.460 . S
C547 C546 1.477 . S
C547 H567 0.930 . S
C548 N544 1.362 . S
C548 C545 1.431 . S
C548 C558 1.476 . S
H549 C543 0.929 . S
C550 O541 1.250 . S
C550 O542 1.258 . S
O551 Mn536 2.162 . S
O551 C539 1.281 . S
O552 Mn536 2.297 1_655 S
O552 C539 1.236 1_655 S
N553 Mn537 2.282 1_455 S
N553 C554 1.328 . S
N553 C558 1.318 1_455 S
C554 N553 1.328 . S
C554 C555 1.457 . S
C554 H559 0.929 . S
C555 C554 1.457 . S
C555 C556 1.291 . S
C555 H568 0.931 . S
C556 C555 1.291 . S
C556 C557 1.373 1_455 S
C556 H569 0.929 . S
C557 C556 1.373 1_655 S
C557 C558 1.396 . S
C557 C564 1.403 . S
C558 C548 1.476 . S
C558 N553 1.318 1_655 S
C558 C557 1.396 . S
H559 C554 0.929 . S
O560 Mn536 2.385 . S
O560 C538 1.234 . S
O561 Mn536 2.209 1_655 S
O561 Mn537 2.215 . S
O561 C538 1.283 1_655 S
O562 Mn536 2.094 . S
O562 C540 1.240 . S
O563 Mn537 2.117 1_455 S
O563 C540 1.264 . S
C564 C557 1.403 . S
C564 C565 1.399 . S
C564 H570 0.929 . S
C565 C545 1.449 . S
C565 C564 1.399 . S
C565 H571 0.930 . S
H566 C546 0.931 . S
H567 C547 0.930 . S
H568 C555 0.931 . S
H569 C556 0.929 . S
H570 C564 0.929 . S
H571 C565 0.930 . S
Mn572 O577 2.095 . S
Mn572 O587 2.162 . S
Mn572 O588 2.297 . S
Mn572 O596 2.385 . S
Mn572 O597 2.209 . S
Mn572 O598 2.094 . S
Mn573 O578 2.121 . S
Mn573 N580 2.257 . S
Mn573 N589 2.282 . S
Mn573 O597 2.215 . S
Mn573 O599 2.117 . S
C574 O596 1.234 . S
C574 O597 1.283 . S
C575 O587 1.281 . S
C575 O588 1.236 . S
C576 O598 1.240 . S
C576 O599 1.264 . S
O577 Mn572 2.095 . S
O577 C586 1.250 . S
O578 Mn573 2.121 . S
O578 C586 1.258 . S
C579 N580 1.326 . S
C579 C583 1.460 . S
C579 H585 0.929 . S
N580 Mn573 2.257 . S
N580 C579 1.326 . S
N580 C584 1.362 . S
C581 C582 1.258 . S
C581 C584 1.431 . S
C581 C601 1.449 . S
C582 C581 1.258 . S
C582 C583 1.477 . S
C582 H602 0.931 . S
C583 C579 1.460 . S
C583 C582 1.477 . S
C583 H603 0.930 . S
C584 N580 1.362 . S
C584 C581 1.431 . S
C584 C594 1.476 . S
H585 C579 0.929 . S
C586 O577 1.250 . S
C586 O578 1.258 . S
O587 Mn572 2.162 . S
O587 C575 1.281 . S
O588 Mn572 2.297 . S
O588 C575 1.236 . S
N589 Mn573 2.282 . S
N589 C590 1.328 . S
N589 C594 1.318 . S
C590 N589 1.328 . S
C590 C591 1.457 . S
C590 H595 0.929 . S
C591 C590 1.457 . S
C591 C592 1.291 . S
C591 H604 0.931 . S
C592 C591 1.291 . S
C592 C593 1.373 . S
C592 H605 0.929 . S
C593 C592 1.373 . S
C593 C594 1.396 . S
C593 C600 1.403 . S
C594 C584 1.476 . S
C594 N589 1.318 . S
C594 C593 1.396 . S
H595 C590 0.929 . S
O596 Mn572 2.385 . S
O596 C574 1.234 . S
O597 Mn572 2.209 . S
O597 Mn573 2.215 . S
O597 C574 1.283 . S
O598 Mn572 2.094 . S
O598 C576 1.240 . S
O599 Mn573 2.117 . S
O599 C576 1.264 . S
C600 C593 1.403 . S
C600 C601 1.399 . S
C600 H606 0.929 . S
C601 C581 1.449 . S
C601 C600 1.399 . S
C601 H607 0.930 . S
H602 C582 0.931 . S
H603 C583 0.930 . S
H604 C591 0.931 . S
H605 C592 0.929 . S
H606 C600 0.929 . S
H607 C601 0.930 . S
C608 C609 1.363 . S
C608 C614 1.379 . S
C608 N616 1.356 . S
C609 C608 1.363 . S
C609 C615 1.363 . S
C610 C611 1.363 . S
C610 C615 1.379 . S
C610 N617 1.356 . S
C611 C610 1.363 . S
C611 C614 1.363 . S
N612 C614 1.356 1_554 S
N612 H624 0.984 . S
N612 H625 0.985 . S
N613 C615 1.356 . S
N613 H618 0.984 . S
N613 H619 0.985 . S
C614 C608 1.379 . S
C614 C611 1.363 . S
C614 N612 1.356 1_556 S
C615 C609 1.363 . S
C615 C610 1.379 . S
C615 N613 1.356 . S
N616 C608 1.356 . S
N616 H622 0.984 . S
N616 H623 0.984 . S
N617 C610 1.356 . S
N617 H620 0.984 . S
N617 H621 0.985 . S
H618 N613 0.984 . S
H619 N613 0.985 . S
H620 N617 0.984 . S
H621 N617 0.985 . S
H622 N616 0.984 . S
H623 N616 0.984 . S
H624 N612 0.984 . S
H625 N612 0.985 . S
C626 C627 1.363 . S
C626 C632 1.379 . S
C626 N634 1.356 . S
C627 C626 1.363 . S
C627 C633 1.363 . S
C628 C629 1.363 . S
C628 C633 1.379 . S
C628 N635 1.356 . S
C629 C628 1.363 . S
C629 C632 1.363 . S
N630 C632 1.356 . S
N630 H642 0.984 . S
N630 H643 0.985 . S
N631 C633 1.356 . S
N631 H636 0.984 . S
N631 H637 0.985 . S
C632 C626 1.379 . S
C632 C629 1.363 . S
C632 N630 1.356 . S
C633 C627 1.363 . S
C633 C628 1.379 . S
C633 N631 1.356 . S
N634 C626 1.356 . S
N634 H640 0.984 . S
N634 H641 0.984 . S
N635 C628 1.356 . S
N635 H638 0.984 . S
N635 H639 0.985 . S
H636 N631 0.984 . S
H637 N631 0.985 . S
H638 N635 0.984 . S
H639 N635 0.985 . S
H640 N634 0.984 . S
H641 N634 0.984 . S
H642 N630 0.984 . S
H643 N630 0.985 . S
C644 C645 1.363 . S
C644 C650 1.379 . S
C644 N652 1.356 . S
C645 C644 1.363 . S
C645 C651 1.363 . S
C646 C647 1.363 . S
C646 C651 1.379 . S
C646 N653 1.356 . S
C647 C646 1.363 . S
C647 C650 1.363 . S
N648 C650 1.356 . S
N648 H660 0.984 . S
N648 H661 0.985 . S
N649 C651 1.356 . S
N649 H654 0.984 . S
N649 H655 0.985 . S
C650 C644 1.379 . S
C650 C647 1.363 . S
C650 N648 1.356 . S
C651 C645 1.363 . S
C651 C646 1.379 . S
C651 N649 1.356 . S
N652 C644 1.356 . S
N652 H658 0.984 . S
N652 H659 0.984 . S
N653 C646 1.356 . S
N653 H656 0.984 . S
N653 H657 0.985 . S
H654 N649 0.984 . S
H655 N649 0.985 . S
H656 N653 0.984 . S
H657 N653 0.985 . S
H658 N652 0.984 . S
H659 N652 0.984 . S
H660 N648 0.984 . S
H661 N648 0.985 . S
C662 C663 1.363 1_655 S
C662 C668 1.379 . S
C662 N670 1.356 . S
C663 C662 1.363 1_455 S
C663 C669 1.363 1_545 S
C664 C665 1.363 1_455 S
C664 C669 1.379 1_545 S
C664 N671 1.359 1_545 S
C665 C664 1.363 1_655 S
C665 C668 1.363 . S
N666 C668 1.356 . S
N666 H678 0.984 . S
N666 H679 0.985 . S
N667 C669 1.356 . S
N667 H672 0.984 . S
N667 H673 0.985 . S
C668 C662 1.379 . S
C668 C665 1.363 . S
C668 N666 1.356 . S
C669 C663 1.363 1_565 S
C669 C664 1.379 1_565 S
C669 N667 1.356 . S
N670 C662 1.356 . S
N670 H676 0.984 . S
N670 H677 0.984 1_655 S
N671 C664 1.359 1_565 S
N671 H674 0.965 1_565 S
N671 H675 1.002 . S
H672 N667 0.984 . S
H673 N667 0.985 . S
H674 N671 0.965 1_545 S
H675 N671 1.002 . S
H676 N670 0.984 . S
H677 N670 0.984 1_455 S
H678 N666 0.984 . S
H679 N666 0.985 . S
C680 C681 1.363 . S
C680 C686 1.379 . S
C680 N688 1.356 . S
C681 C680 1.363 . S
C681 C687 1.363 . S
C682 C683 1.363 . S
C682 C687 1.379 . S
C682 N689 1.356 . S
C683 C682 1.363 . S
C683 C686 1.363 . S
N684 C686 1.356 . S
N684 H696 0.984 . S
N684 H697 0.985 . S
N685 C687 1.356 . S
N685 H690 0.984 . S
N685 H691 0.985 . S
C686 C680 1.379 . S
C686 C683 1.363 . S
C686 N684 1.356 . S
C687 C681 1.363 . S
C687 C682 1.379 . S
C687 N685 1.356 . S
N688 C680 1.356 . S
N688 H694 0.984 . S
N688 H695 0.984 . S
N689 C682 1.356 . S
N689 H692 0.984 . S
N689 H693 0.985 . S
H690 N685 0.984 . S
H691 N685 0.985 . S
H692 N689 0.984 . S
H693 N689 0.985 . S
H694 N688 0.984 . S
H695 N688 0.984 . S
H696 N684 0.984 . S
H697 N684 0.985 . S
C698 C699 1.363 . S
C698 C704 1.379 . S
C698 N706 1.356 . S
C699 C698 1.363 . S
C699 C705 1.363 . S
C700 C701 1.363 . S
C700 C705 1.379 . S
C700 N707 1.356 . S
C701 C700 1.363 . S
C701 C704 1.363 . S
N702 C704 1.356 . S
N702 H714 0.984 . S
N702 H715 0.985 . S
N703 C705 1.356 . S
N703 H708 0.984 . S
N703 H709 0.985 . S
C704 C698 1.379 . S
C704 C701 1.363 . S
C704 N702 1.356 . S
C705 C699 1.363 . S
C705 C700 1.379 . S
C705 N703 1.356 . S
N706 C698 1.356 . S
N706 H712 0.984 . S
N706 H713 0.984 . S
N707 C700 1.356 . S
N707 H710 0.984 . S
N707 H711 0.985 . S
H708 N703 0.984 . S
H709 N703 0.985 . S
H710 N707 0.984 . S
H711 N707 0.985 . S
H712 N706 0.984 . S
H713 N706 0.984 . S
H714 N702 0.984 . S
H715 N702 0.985 . S
C716 C717 1.363 . S
C716 C722 1.379 . S
C716 N724 1.356 . S
C717 C716 1.363 . S
C717 C723 1.363 . S
C718 C719 1.363 . S
C718 C723 1.379 . S
C718 N725 1.356 . S
C719 C718 1.363 . S
C719 C722 1.363 . S
N720 C722 1.356 . S
N720 H732 0.984 . S
N720 H733 0.985 . S
N721 C723 1.356 . S
N721 H726 0.984 . S
N721 H727 0.985 . S
C722 C716 1.379 . S
C722 C719 1.363 . S
C722 N720 1.356 . S
C723 C717 1.363 . S
C723 C718 1.379 . S
C723 N721 1.356 . S
N724 C716 1.356 . S
N724 H730 0.984 . S
N724 H731 0.984 . S
N725 C718 1.356 . S
N725 H728 0.984 . S
N725 H729 0.985 . S
H726 N721 0.984 . S
H727 N721 0.985 . S
H728 N725 0.984 . S
H729 N725 0.985 . S
H730 N724 0.984 . S
H731 N724 0.984 . S
H732 N720 0.984 . S
H733 N720 0.985 . S
C734 C735 1.363 1_545 S
C734 C740 1.379 . S
C734 N742 1.356 . S
C735 C734 1.363 1_565 S
C735 C741 1.363 . S
C736 C737 1.363 . S
C736 C741 1.379 . S
C736 N743 1.356 . S
C737 C736 1.363 . S
C737 C740 1.363 1_565 S
N738 C740 1.356 . S
N738 H750 0.984 . S
N738 H751 0.985 . S
N739 C741 1.356 . S
N739 H744 0.984 . S
N739 H745 0.985 . S
C740 C734 1.379 . S
C740 C737 1.363 1_545 S
C740 N738 1.356 . S
C741 C735 1.363 . S
C741 C736 1.379 . S
C741 N739 1.356 . S
N742 C734 1.356 . S
N742 H748 0.984 . S
N742 H749 0.984 . S
N743 C736 1.356 . S
N743 H746 0.984 . S
N743 H747 0.985 . S
H744 N739 0.984 . S
H745 N739 0.985 . S
H746 N743 0.984 . S
H747 N743 0.985 . S
H748 N742 0.984 . S
H749 N742 0.984 . S
H750 N738 0.984 . S
H751 N738 0.985 . S
C752 C753 1.363 . S
C752 C758 1.379 . S
C752 N760 1.356 . S
C753 C752 1.363 . S
C753 C759 1.363 . S
C754 C755 1.363 . S
C754 C759 1.379 . S
C754 N761 1.356 . S
C755 C754 1.363 . S
C755 C758 1.363 . S
N756 C758 1.356 . S
N756 H768 0.984 . S
N756 H769 0.985 . S
N757 C759 1.356 . S
N757 H762 0.984 . S
N757 H763 0.985 . S
C758 C752 1.379 . S
C758 C755 1.363 . S
C758 N756 1.356 . S
C759 C753 1.363 . S
C759 C754 1.379 . S
C759 N757 1.356 . S
N760 C752 1.356 . S
N760 H766 0.984 . S
N760 H767 0.984 . S
N761 C754 1.356 . S
N761 H764 0.984 . S
N761 H765 0.985 . S
H762 N757 0.984 . S
H763 N757 0.985 . S
H764 N761 0.984 . S
H765 N761 0.985 . S
H766 N760 0.984 . S
H767 N760 0.984 . S
H768 N756 0.984 . S
H769 N756 0.985 . S
C770 C771 1.363 . S
C770 C776 1.379 . S
C770 N778 1.356 . S
C771 C770 1.363 . S
C771 C777 1.363 . S
C772 C773 1.363 . S
C772 C777 1.379 . S
C772 N779 1.356 . S
C773 C772 1.363 . S
C773 C776 1.363 . S
N774 C776 1.356 . S
N774 H786 0.984 . S
N774 H787 0.985 . S
N775 C777 1.356 . S
N775 H780 0.984 . S
N775 H781 0.985 . S
C776 C770 1.379 . S
C776 C773 1.363 . S
C776 N774 1.356 . S
C777 C771 1.363 . S
C777 C772 1.379 . S
C777 N775 1.356 . S
N778 C770 1.356 . S
N778 H784 0.984 . S
N778 H785 0.984 . S
N779 C772 1.356 . S
N779 H782 0.984 . S
N779 H783 0.985 . S
H780 N775 0.984 . S
H781 N775 0.985 . S
H782 N779 0.984 . S
H783 N779 0.985 . S
H784 N778 0.984 . S
H785 N778 0.984 . S
H786 N774 0.984 . S
H787 N774 0.985 . S
C788 C789 1.363 . S
C788 C794 1.379 . S
C788 N796 1.356 . S
C789 C788 1.363 . S
C789 C795 1.363 . S
C790 C791 1.363 . S
C790 C795 1.379 . S
C790 N797 1.356 . S
C791 C790 1.363 . S
C791 C794 1.363 . S
N792 C794 1.356 . S
N792 H804 0.984 . S
N792 H805 0.985 . S
N793 C795 1.356 . S
N793 H798 0.984 . S
N793 H799 0.985 . S
C794 C788 1.379 . S
C794 C791 1.363 . S
C794 N792 1.356 . S
C795 C789 1.363 . S
C795 C790 1.379 . S
C795 N793 1.356 . S
N796 C788 1.356 . S
N796 H802 0.984 . S
N796 H803 0.984 . S
N797 C790 1.356 . S
N797 H800 0.984 . S
N797 H801 0.985 . S
H798 N793 0.984 . S
H799 N793 0.985 . S
H800 N797 0.984 . S
H801 N797 0.985 . S
H802 N796 0.984 . S
H803 N796 0.984 . S
H804 N792 0.984 . S
H805 N792 0.985 . S
C806 C807 1.363 . S
C806 C812 1.379 . S
C806 N814 1.356 . S
C807 C806 1.363 . S
C807 C813 1.363 . S
C808 C809 1.363 . S
C808 C813 1.379 . S
C808 N815 1.356 . S
C809 C808 1.363 . S
C809 C812 1.363 . S
N810 C812 1.356 . S
N810 H822 0.984 . S
N810 H823 0.985 . S
N811 C813 1.356 . S
N811 H816 0.984 . S
N811 H817 0.985 . S
C812 C806 1.379 . S
C812 C809 1.363 . S
C812 N810 1.356 . S
C813 C807 1.363 . S
C813 C808 1.379 . S
C813 N811 1.356 . S
N814 C806 1.356 . S
N814 H820 0.984 . S
N814 H821 0.984 . S
N815 C808 1.356 . S
N815 H818 0.984 . S
N815 H819 0.985 . S
H816 N811 0.984 . S
H817 N811 0.985 . S
H818 N815 0.984 . S
H819 N815 0.985 . S
H820 N814 0.984 . S
H821 N814 0.984 . S
H822 N810 0.984 . S
H823 N810 0.985 . S
C824 C825 1.363 . S
C824 C830 1.379 . S
C824 N832 1.356 . S
C825 C824 1.363 . S
C825 C831 1.363 . S
C826 C827 1.363 . S
C826 C831 1.379 . S
C826 N833 1.356 . S
C827 C826 1.363 . S
C827 C830 1.363 . S
N828 C830 1.356 . S
N828 H840 0.984 . S
N828 H841 0.985 . S
N829 C831 1.356 . S
N829 H834 0.984 . S
N829 H835 0.985 . S
C830 C824 1.379 . S
C830 C827 1.363 . S
C830 N828 1.356 . S
C831 C825 1.363 . S
C831 C826 1.379 . S
C831 N829 1.356 . S
N832 C824 1.356 . S
N832 H838 0.984 . S
N832 H839 0.984 . S
N833 C826 1.356 . S
N833 H836 0.984 . S
N833 H837 0.985 . S
H834 N829 0.984 . S
H835 N829 0.985 . S
H836 N833 0.984 . S
H837 N833 0.985 . S
H838 N832 0.984 . S
H839 N832 0.984 . S
H840 N828 0.984 . S
H841 N828 0.985 . S
C842 C843 1.363 . S
C842 C848 1.379 . S
C842 N850 1.356 . S
C843 C842 1.363 . S
C843 C849 1.363 . S
C844 C845 1.363 . S
C844 C849 1.379 . S
C844 N851 1.356 . S
C845 C844 1.363 . S
C845 C848 1.363 . S
N846 C848 1.356 1_655 S
N846 H858 0.984 . S
N846 H859 0.985 . S
N847 C849 1.356 . S
N847 H852 0.984 . S
N847 H853 0.985 . S
C848 C842 1.379 . S
C848 C845 1.363 . S
C848 N846 1.356 1_455 S
C849 C843 1.363 . S
C849 C844 1.379 . S
C849 N847 1.356 . S
N850 C842 1.356 . S
N850 H856 0.984 1_455 S
N850 H857 0.984 . S
N851 C844 1.356 . S
N851 H854 0.984 . S
N851 H855 0.985 . S
H852 N847 0.984 . S
H853 N847 0.985 . S
H854 N851 0.984 . S
H855 N851 0.985 . S
H856 N850 0.984 1_655 S
H857 N850 0.984 . S
H858 N846 0.984 . S
H859 N846 0.985 . S
C860 C861 1.363 . S
C860 C866 1.379 . S
C860 N868 1.356 . S
C861 C860 1.363 . S
C861 C867 1.363 . S
C862 C863 1.363 . S
C862 C867 1.379 . S
C862 N869 1.356 . S
C863 C862 1.363 . S
C863 C866 1.363 . S
N864 C866 1.356 . S
N864 H876 0.984 . S
N864 H877 0.985 . S
N865 C867 1.356 . S
N865 H870 0.984 . S
N865 H871 0.985 . S
C866 C860 1.379 . S
C866 C863 1.363 . S
C866 N864 1.356 . S
C867 C861 1.363 . S
C867 C862 1.379 . S
C867 N865 1.356 . S
N868 C860 1.356 . S
N868 H874 0.984 . S
N868 H875 0.984 . S
N869 C862 1.356 . S
N869 H872 0.984 . S
N869 H873 0.985 . S
H870 N865 0.984 . S
H871 N865 0.985 . S
H872 N869 0.984 . S
H873 N869 0.985 . S
H874 N868 0.984 . S
H875 N868 0.984 . S
H876 N864 0.984 . S
H877 N864 0.985 . S
C878 C879 1.349 1_655 S
C878 C884 1.379 . S
C878 N886 1.356 . S
C879 C878 1.349 1_455 S
C879 C885 1.376 . S
C880 C881 1.363 . S
C880 C885 1.379 . S
C880 N887 1.356 . S
C881 C880 1.363 . S
C881 C884 1.363 1_455 S
N882 C884 1.356 . S
N882 H894 0.984 . S
N882 H895 0.985 . S
N883 C885 1.356 . S
N883 H888 0.984 . S
N883 H889 0.985 . S
C884 C878 1.379 . S
C884 C881 1.363 1_655 S
C884 N882 1.356 . S
C885 C879 1.376 . S
C885 C880 1.379 . S
C885 N883 1.356 . S
N886 C878 1.356 . S
N886 H892 0.984 . S
N886 H893 0.984 . S
N887 C880 1.356 . S
N887 H890 0.984 . S
N887 H891 0.985 . S
H888 N883 0.984 . S
H889 N883 0.985 . S
H890 N887 0.984 . S
H891 N887 0.985 . S
H892 N886 0.984 . S
H893 N886 0.984 . S
H894 N882 0.984 . S
H895 N882 0.985 . S
C896 C897 1.363 . S
C896 C902 1.379 . S
C896 N904 1.356 . S
C897 C896 1.363 . S
C897 C903 1.363 . S
C898 C899 1.363 . S
C898 C903 1.379 . S
C898 N905 1.356 . S
C899 C898 1.363 . S
C899 C902 1.363 . S
N900 C902 1.356 . S
N900 H912 0.984 . S
N900 H913 0.985 . S
N901 C903 1.356 . S
N901 H906 0.984 . S
N901 H907 0.985 . S
C902 C896 1.379 . S
C902 C899 1.363 . S
C902 N900 1.356 . S
C903 C897 1.363 . S
C903 C898 1.379 . S
C903 N901 1.356 . S
N904 C896 1.356 . S
N904 H910 0.984 . S
N904 H911 0.984 . S
N905 C898 1.356 . S
N905 H908 0.984 . S
N905 H909 0.985 . S
H906 N901 0.984 . S
H907 N901 0.985 . S
H908 N905 0.984 . S
H909 N905 0.985 . S
H910 N904 0.984 . S
H911 N904 0.984 . S
H912 N900 0.984 . S
H913 N900 0.985 . S
C914 C915 1.363 . S
C914 C920 1.379 . S
C914 N922 1.356 . S
C915 C914 1.363 . S
C915 C921 1.363 . S
C916 C917 1.363 . S
C916 C921 1.379 . S
C916 N923 1.356 . S
C917 C916 1.363 . S
C917 C920 1.363 . S
N918 C920 1.356 . S
N918 H930 0.984 . S
N918 H931 0.985 . S
N919 C921 1.356 . S
N919 H924 0.984 . S
N919 H925 0.985 . S
C920 C914 1.379 . S
C920 C917 1.363 . S
C920 N918 1.356 . S
C921 C915 1.363 . S
C921 C916 1.379 . S
C921 N919 1.356 . S
N922 C914 1.356 . S
N922 H928 0.984 . S
N922 H929 0.984 . S
N923 C916 1.356 . S
N923 H926 0.984 . S
N923 H927 0.985 . S
H924 N919 0.984 . S
H925 N919 0.985 . S
H926 N923 0.984 . S
H927 N923 0.985 . S
H928 N922 0.984 . S
H929 N922 0.984 . S
H930 N918 0.984 . S
H931 N918 0.985 . S
C932 C933 1.363 . S
C932 C938 1.379 . S
C932 N940 1.356 1_565 S
C933 C932 1.363 . S
C933 C939 1.363 1_554 S
C934 C935 1.363 1_556 S
C934 C939 1.379 . S
C934 N941 1.356 . S
C935 C934 1.363 1_554 S
C935 C938 1.363 . S
N936 C938 1.356 . S
N936 H948 0.984 . S
N936 H949 0.985 . S
N937 C939 1.356 . S
N937 H942 0.985 . S
N937 H943 0.985 . S
C938 C932 1.379 . S
C938 C935 1.363 . S
C938 N936 1.356 . S
C939 C933 1.363 1_556 S
C939 C934 1.379 . S
C939 N937 1.356 . S
N940 C932 1.356 1_545 S
N940 H946 0.984 . S
N940 H947 0.984 . S
N941 C934 1.356 . S
N941 H944 1.002 . S
N941 H945 0.985 . S
H942 N937 0.985 . S
H943 N937 0.985 . S
H944 N941 1.002 . S
H945 N941 0.985 . S
H946 N940 0.984 . S
H947 N940 0.984 . S
H948 N936 0.984 . S
H949 N936 0.985 . S
C950 C951 1.363 . S
C950 C956 1.379 . S
C950 N958 1.356 . S
C951 C950 1.363 . S
C951 C957 1.363 . S
C952 C953 1.363 . S
C952 C957 1.379 . S
C952 N959 1.356 . S
C953 C952 1.363 . S
C953 C956 1.363 . S
N954 C956 1.356 . S
N954 H966 0.984 . S
N954 H967 0.985 . S
N955 C957 1.356 . S
N955 H960 0.984 . S
N955 H961 0.985 . S
C956 C950 1.379 . S
C956 C953 1.363 . S
C956 N954 1.356 . S
C957 C951 1.363 . S
C957 C952 1.379 . S
C957 N955 1.356 . S
N958 C950 1.356 . S
N958 H964 0.984 . S
N958 H965 0.984 . S
N959 C952 1.356 . S
N959 H962 0.984 . S
N959 H963 0.985 . S
H960 N955 0.984 . S
H961 N955 0.985 . S
H962 N959 0.984 . S
H963 N959 0.985 . S
H964 N958 0.984 . S
H965 N958 0.984 . S
H966 N954 0.984 . S
H967 N954 0.985 . S
C968 C969 1.363 . S
C968 C974 1.379 . S
C968 N976 1.356 . S
C969 C968 1.363 . S
C969 C975 1.363 . S
C970 C971 1.363 . S
C970 C975 1.379 . S
C970 N977 1.356 . S
C971 C970 1.363 . S
C971 C974 1.363 . S
N972 C974 1.356 . S
N972 H984 0.984 . S
N972 H985 0.985 . S
N973 C975 1.356 . S
N973 H978 0.984 . S
N973 H979 0.985 . S
C974 C968 1.379 . S
C974 C971 1.363 . S
C974 N972 1.356 . S
C975 C969 1.363 . S
C975 C970 1.379 . S
C975 N973 1.356 . S
N976 C968 1.356 . S
N976 H982 0.984 1_545 S
N976 H983 0.984 1_545 S
N977 C970 1.356 . S
N977 H980 0.984 . S
N977 H981 0.985 . S
H978 N973 0.984 . S
H979 N973 0.985 . S
H980 N977 0.984 . S
H981 N977 0.985 . S
H982 N976 0.984 1_565 S
H983 N976 0.984 1_565 S
H984 N972 0.984 . S
H985 N972 0.985 . S
C986 C987 1.363 . S
C986 C992 1.379 . S
C986 N994 1.356 . S
C987 C986 1.363 . S
C987 C993 1.363 . S
C988 C989 1.363 . S
C988 C993 1.379 . S
C988 N995 1.356 . S
C989 C988 1.363 . S
C989 C992 1.363 . S
N990 C992 1.356 . S
N990 H1002 0.984 . S
N990 H1003 0.985 . S
N991 C993 1.356 . S
N991 H996 0.984 . S
N991 H997 0.985 . S
C992 C986 1.379 . S
C992 C989 1.363 . S
C992 N990 1.356 . S
C993 C987 1.363 . S
C993 C988 1.379 . S
C993 N991 1.356 . S
N994 C986 1.356 . S
N994 H1000 0.984 . S
N994 H1001 0.984 . S
N995 C988 1.356 . S
N995 H998 0.984 . S
N995 H999 0.985 . S
H996 N991 0.984 . S
H997 N991 0.985 . S
H998 N995 0.984 . S
H999 N995 0.985 . S
H1000 N994 0.984 . S
H1001 N994 0.984 . S
H1002 N990 0.984 . S
H1003 N990 0.985 . S
C1004 C1005 1.363 . S
C1004 C1010 1.379 . S
C1004 N1012 1.356 . S
C1005 C1004 1.363 . S
C1005 C1011 1.363 . S
C1006 C1007 1.363 . S
C1006 C1011 1.379 . S
C1006 N1013 1.356 . S
C1007 C1006 1.363 . S
C1007 C1010 1.363 . S
N1008 C1010 1.356 . S
N1008 H1020 0.984 . S
N1008 H1021 0.985 . S
N1009 C1011 1.356 . S
N1009 H1014 0.984 . S
N1009 H1015 0.985 . S
C1010 C1004 1.379 . S
C1010 C1007 1.363 . S
C1010 N1008 1.356 . S
C1011 C1005 1.363 . S
C1011 C1006 1.379 . S
C1011 N1009 1.356 . S
N1012 C1004 1.356 . S
N1012 H1018 0.984 . S
N1012 H1019 0.984 . S
N1013 C1006 1.356 . S
N1013 H1016 0.984 . S
N1013 H1017 0.985 . S
H1014 N1009 0.984 . S
H1015 N1009 0.985 . S
H1016 N1013 0.984 . S
H1017 N1013 0.985 . S
H1018 N1012 0.984 . S
H1019 N1012 0.984 . S
H1020 N1008 0.984 . S
H1021 N1008 0.985 . S
C1022 C1023 1.363 . S
C1022 C1028 1.379 . S
C1022 N1030 1.356 . S
C1023 C1022 1.363 . S
C1023 C1029 1.363 . S
C1024 C1025 1.363 . S
C1024 C1029 1.379 . S
C1024 N1031 1.356 . S
C1025 C1024 1.363 . S
C1025 C1028 1.363 . S
N1026 C1028 1.356 . S
N1026 H1038 0.984 . S
N1026 H1039 0.985 . S
N1027 C1029 1.356 . S
N1027 H1032 0.984 . S
N1027 H1033 0.985 . S
C1028 C1022 1.379 . S
C1028 C1025 1.363 . S
C1028 N1026 1.356 . S
C1029 C1023 1.363 . S
C1029 C1024 1.379 . S
C1029 N1027 1.356 . S
N1030 C1022 1.356 . S
N1030 H1036 0.984 . S
N1030 H1037 0.984 . S
N1031 C1024 1.356 . S
N1031 H1034 0.984 . S
N1031 H1035 0.985 . S
H1032 N1027 0.984 . S
H1033 N1027 0.985 . S
H1034 N1031 0.984 . S
H1035 N1031 0.985 . S
H1036 N1030 0.984 . S
H1037 N1030 0.984 . S
H1038 N1026 0.984 . S
H1039 N1026 0.985 . S
C1040 C1041 1.363 . S
C1040 C1046 1.379 . S
C1040 N1048 1.356 . S
C1041 C1040 1.363 . S
C1041 C1047 1.363 . S
C1042 C1043 1.363 . S
C1042 C1047 1.379 . S
C1042 N1049 1.356 . S
C1043 C1042 1.363 . S
C1043 C1046 1.363 . S
N1044 C1046 1.356 . S
N1044 H1056 0.984 . S
N1044 H1057 0.985 . S
N1045 C1047 1.356 . S
N1045 H1050 0.984 . S
N1045 H1051 0.985 . S
C1046 C1040 1.379 . S
C1046 C1043 1.363 . S
C1046 N1044 1.356 . S
C1047 C1041 1.363 . S
C1047 C1042 1.379 . S
C1047 N1045 1.356 . S
N1048 C1040 1.356 . S
N1048 H1054 0.984 . S
N1048 H1055 0.984 . S
N1049 C1042 1.356 . S
N1049 H1052 0.984 . S
N1049 H1053 0.985 . S
H1050 N1045 0.984 . S
H1051 N1045 0.985 . S
H1052 N1049 0.984 . S
H1053 N1049 0.985 . S
H1054 N1048 0.984 . S
H1055 N1048 0.984 . S
H1056 N1044 0.984 . S
H1057 N1044 0.985 . S
C1058 C1059 1.350 1_565 S
C1058 C1064 1.380 . S
C1058 N1066 1.366 . S
C1059 C1058 1.350 1_545 S
C1059 C1065 1.363 . S
C1060 C1061 1.363 . S
C1060 C1065 1.379 . S
C1060 N1067 1.356 . S
C1061 C1060 1.363 . S
C1061 C1064 1.363 1_545 S
N1062 C1064 1.356 . S
N1062 H1074 0.984 . S
N1062 H1075 0.985 . S
N1063 C1065 1.356 . S
N1063 H1068 0.984 . S
N1063 H1069 0.985 . S
C1064 C1058 1.380 . S
C1064 C1061 1.363 1_565 S
C1064 N1062 1.356 . S
C1065 C1059 1.363 . S
C1065 C1060 1.379 . S
C1065 N1063 1.356 . S
N1066 C1058 1.366 . S
N1066 H1072 0.984 . S
N1066 H1073 0.984 . S
N1067 C1060 1.356 . S
N1067 H1070 0.984 . S
N1067 H1071 0.985 . S
H1068 N1063 0.984 . S
H1069 N1063 0.985 . S
H1070 N1067 0.984 . S
H1071 N1067 0.985 . S
H1072 N1066 0.984 . S
H1073 N1066 0.984 . S
H1074 N1062 0.984 . S
H1075 N1062 0.985 . S
C1076 C1077 1.363 . S
C1076 C1082 1.379 . S
C1076 N1084 1.356 . S
C1077 C1076 1.363 . S
C1077 C1083 1.363 . S
C1078 C1079 1.363 . S
C1078 C1083 1.379 . S
C1078 N1085 1.356 . S
C1079 C1078 1.363 . S
C1079 C1082 1.363 . S
N1080 C1082 1.356 . S
N1080 H1092 0.984 . S
N1080 H1093 0.985 . S
N1081 C1083 1.356 . S
N1081 H1086 0.984 . S
N1081 H1087 0.985 . S
C1082 C1076 1.379 . S
C1082 C1079 1.363 . S
C1082 N1080 1.356 . S
C1083 C1077 1.363 . S
C1083 C1078 1.379 . S
C1083 N1081 1.356 . S
N1084 C1076 1.356 . S
N1084 H1090 0.984 . S
N1084 H1091 0.984 . S
N1085 C1078 1.356 . S
N1085 H1088 0.984 . S
N1085 H1089 0.985 . S
H1086 N1081 0.984 . S
H1087 N1081 0.985 . S
H1088 N1085 0.984 . S
H1089 N1085 0.985 . S
H1090 N1084 0.984 . S
H1091 N1084 0.984 . S
H1092 N1080 0.984 . S
H1093 N1080 0.985 . S
C1094 C1095 1.363 . S
C1094 C1100 1.379 . S
C1094 N1102 1.356 . S
C1095 C1094 1.363 . S
C1095 C1101 1.363 . S
C1096 C1097 1.363 . S
C1096 C1101 1.379 . S
C1096 N1103 1.356 . S
C1097 C1096 1.363 . S
C1097 C1100 1.363 . S
N1098 C1100 1.356 . S
N1098 H1110 0.984 . S
N1098 H1111 0.985 . S
N1099 C1101 1.356 . S
N1099 H1104 0.984 . S
N1099 H1105 0.985 . S
C1100 C1094 1.379 . S
C1100 C1097 1.363 . S
C1100 N1098 1.356 . S
C1101 C1095 1.363 . S
C1101 C1096 1.379 . S
C1101 N1099 1.356 . S
N1102 C1094 1.356 . S
N1102 H1108 0.984 . S
N1102 H1109 0.984 . S
N1103 C1096 1.356 . S
N1103 H1106 0.984 . S
N1103 H1107 0.985 . S
H1104 N1099 0.984 . S
H1105 N1099 0.985 . S
H1106 N1103 0.984 . S
H1107 N1103 0.985 . S
H1108 N1102 0.984 . S
H1109 N1102 0.984 . S
H1110 N1098 0.984 . S
H1111 N1098 0.985 . S
C1112 C1113 1.363 . S
C1112 C1118 1.379 . S
C1112 N1120 1.356 . S
C1113 C1112 1.363 . S
C1113 C1119 1.363 . S
C1114 C1115 1.363 . S
C1114 C1119 1.379 . S
C1114 N1121 1.356 . S
C1115 C1114 1.363 . S
C1115 C1118 1.363 . S
N1116 C1118 1.356 . S
N1116 H1128 0.984 . S
N1116 H1129 0.985 . S
N1117 C1119 1.356 . S
N1117 H1122 0.984 . S
N1117 H1123 0.985 . S
C1118 C1112 1.379 . S
C1118 C1115 1.363 . S
C1118 N1116 1.356 . S
C1119 C1113 1.363 . S
C1119 C1114 1.379 . S
C1119 N1117 1.356 . S
N1120 C1112 1.356 . S
N1120 H1126 0.984 . S
N1120 H1127 0.984 . S
N1121 C1114 1.356 . S
N1121 H1124 0.984 . S
N1121 H1125 0.985 . S
H1122 N1117 0.984 . S
H1123 N1117 0.985 . S
H1124 N1121 0.984 . S
H1125 N1121 0.985 . S
H1126 N1120 0.984 . S
H1127 N1120 0.984 . S
H1128 N1116 0.984 . S
H1129 N1116 0.985 . S
C1130 C1131 1.363 . S
C1130 C1136 1.379 . S
C1130 N1138 1.356 . S
C1131 C1130 1.363 . S
C1131 C1137 1.343 1_455 S
C1132 C1133 1.363 . S
C1132 C1137 1.392 . S
C1132 N1139 1.356 1_545 S
C1133 C1132 1.363 . S
C1133 C1136 1.363 1_655 S
N1134 C1136 1.356 . S
N1134 H1146 0.984 . S
N1134 H1147 0.985 . S
N1135 C1137 1.357 1_565 S
N1135 H1140 0.984 1_655 S
N1135 H1141 0.985 . S
C1136 C1130 1.379 . S
C1136 C1133 1.363 1_455 S
C1136 N1134 1.356 . S
C1137 C1131 1.343 1_655 S
C1137 C1132 1.392 . S
C1137 N1135 1.357 1_545 S
N1138 C1130 1.356 . S
N1138 H1144 0.984 . S
N1138 H1145 0.984 . S
N1139 C1132 1.356 1_565 S
N1139 H1142 0.984 . S
N1139 H1143 0.985 . S
H1140 N1135 0.984 1_455 S
H1141 N1135 0.985 . S
H1142 N1139 0.984 . S
H1143 N1139 0.985 . S
H1144 N1138 0.984 . S
H1145 N1138 0.984 . S
H1146 N1134 0.984 . S
H1147 N1134 0.985 . S
C1148 C1149 1.363 . S
C1148 C1154 1.379 . S
C1148 N1156 1.356 . S
C1149 C1148 1.363 . S
C1149 C1155 1.363 . S
C1150 C1151 1.363 . S
C1150 C1155 1.379 . S
C1150 N1157 1.356 . S
C1151 C1150 1.363 . S
C1151 C1154 1.363 . S
N1152 C1154 1.356 . S
N1152 H1164 0.984 . S
N1152 H1165 0.985 . S
N1153 C1155 1.356 . S
N1153 H1158 0.984 . S
N1153 H1159 0.985 . S
C1154 C1148 1.379 . S
C1154 C1151 1.363 . S
C1154 N1152 1.356 . S
C1155 C1149 1.363 . S
C1155 C1150 1.379 . S
C1155 N1153 1.356 . S
N1156 C1148 1.356 . S
N1156 H1162 0.984 . S
N1156 H1163 0.984 . S
N1157 C1150 1.356 . S
N1157 H1160 0.984 . S
N1157 H1161 0.985 . S
H1158 N1153 0.984 . S
H1159 N1153 0.985 . S
H1160 N1157 0.984 . S
H1161 N1157 0.985 . S
H1162 N1156 0.984 . S
H1163 N1156 0.984 . S
H1164 N1152 0.984 . S
H1165 N1152 0.985 . S
C1166 C1167 1.363 . S
C1166 C1172 1.379 . S
C1166 N1174 1.356 . S
C1167 C1166 1.363 . S
C1167 C1173 1.363 . S
C1168 C1169 1.363 . S
C1168 C1173 1.379 . S
C1168 N1175 1.356 . S
C1169 C1168 1.363 . S
C1169 C1172 1.363 . S
N1170 C1172 1.356 . S
N1170 H1182 0.984 . S
N1170 H1183 0.985 . S
N1171 C1173 1.356 . S
N1171 H1176 0.984 . S
N1171 H1177 0.985 . S
C1172 C1166 1.379 . S
C1172 C1169 1.363 . S
C1172 N1170 1.356 . S
C1173 C1167 1.363 . S
C1173 C1168 1.379 . S
C1173 N1171 1.356 . S
N1174 C1166 1.356 . S
N1174 H1180 0.984 . S
N1174 H1181 0.984 . S
N1175 C1168 1.356 . S
N1175 H1178 0.984 . S
N1175 H1179 0.985 . S
H1176 N1171 0.984 . S
H1177 N1171 0.985 . S
H1178 N1175 0.984 . S
H1179 N1175 0.985 . S
H1180 N1174 0.984 . S
H1181 N1174 0.984 . S
H1182 N1170 0.984 . S
H1183 N1170 0.985 . S
C1184 C1185 1.363 . S
C1184 C1190 1.379 . S
C1184 N1192 1.356 . S
C1185 C1184 1.363 . S
C1185 C1191 1.363 . S
C1186 C1187 1.363 . S
C1186 C1191 1.379 . S
C1186 N1193 1.356 . S
C1187 C1186 1.363 . S
C1187 C1190 1.363 . S
N1188 C1190 1.356 . S
N1188 H1200 0.984 . S
N1188 H1201 0.985 . S
N1189 C1191 1.356 . S
N1189 H1194 0.984 . S
N1189 H1195 0.985 . S
C1190 C1184 1.379 . S
C1190 C1187 1.363 . S
C1190 N1188 1.356 . S
C1191 C1185 1.363 . S
C1191 C1186 1.379 . S
C1191 N1189 1.356 . S
N1192 C1184 1.356 . S
N1192 H1198 0.984 . S
N1192 H1199 0.984 . S
N1193 C1186 1.356 . S
N1193 H1196 0.984 . S
N1193 H1197 0.985 . S
H1194 N1189 0.984 . S
H1195 N1189 0.985 . S
H1196 N1193 0.984 . S
H1197 N1193 0.985 . S
H1198 N1192 0.984 . S
H1199 N1192 0.984 . S
H1200 N1188 0.984 . S
H1201 N1188 0.985 . S
C1202 C1203 1.363 . S
C1202 C1208 1.379 . S
C1202 N1210 1.356 1_556 S
C1203 C1202 1.363 . S
C1203 C1209 1.363 1_455 S
C1204 C1205 1.363 1_655 S
C1204 C1209 1.379 . S
C1204 N1211 1.356 . S
C1205 C1204 1.363 1_455 S
C1205 C1208 1.363 . S
N1206 C1208 1.356 . S
N1206 H1218 0.984 1_556 S
N1206 H1219 0.985 . S
N1207 C1209 1.356 . S
N1207 H1212 0.984 . S
N1207 H1213 0.985 . S
C1208 C1202 1.379 . S
C1208 C1205 1.363 . S
C1208 N1206 1.356 . S
C1209 C1203 1.363 1_655 S
C1209 C1204 1.379 . S
C1209 N1207 1.356 . S
N1210 C1202 1.356 1_554 S
N1210 H1216 0.984 . S
N1210 H1217 0.984 . S
N1211 C1204 1.356 . S
N1211 H1214 0.984 . S
N1211 H1215 0.985 . S
H1212 N1207 0.984 . S
H1213 N1207 0.985 . S
H1214 N1211 0.984 . S
H1215 N1211 0.985 . S
H1216 N1210 0.984 . S
H1217 N1210 0.984 . S
H1218 N1206 0.984 1_554 S
H1219 N1206 0.985 . S
C1220 C1221 1.363 . S
C1220 C1226 1.379 . S
C1220 N1228 1.356 . S
C1221 C1220 1.363 . S
C1221 C1227 1.363 . S
C1222 C1223 1.363 . S
C1222 C1227 1.379 . S
C1222 N1229 1.356 . S
C1223 C1222 1.363 . S
C1223 C1226 1.363 . S
N1224 C1226 1.356 . S
N1224 H1236 0.984 . S
N1224 H1237 0.985 . S
N1225 C1227 1.356 . S
N1225 H1230 0.984 . S
N1225 H1231 0.985 . S
C1226 C1220 1.379 . S
C1226 C1223 1.363 . S
C1226 N1224 1.356 . S
C1227 C1221 1.363 . S
C1227 C1222 1.379 . S
C1227 N1225 1.356 . S
N1228 C1220 1.356 . S
N1228 H1234 0.984 . S
N1228 H1235 0.984 . S
N1229 C1222 1.356 . S
N1229 H1232 0.984 . S
N1229 H1233 0.985 . S
H1230 N1225 0.984 . S
H1231 N1225 0.985 . S
H1232 N1229 0.984 . S
H1233 N1229 0.985 . S
H1234 N1228 0.984 . S
H1235 N1228 0.984 . S
H1236 N1224 0.984 . S
H1237 N1224 0.985 . S
C1238 C1239 1.363 . S
C1238 C1244 1.379 . S
C1238 N1246 1.356 . S
C1239 C1238 1.363 . S
C1239 C1245 1.363 . S
C1240 C1241 1.363 . S
C1240 C1245 1.379 . S
C1240 N1247 1.356 . S
C1241 C1240 1.363 . S
C1241 C1244 1.363 . S
N1242 C1244 1.356 . S
N1242 H1254 0.984 . S
N1242 H1255 0.985 . S
N1243 C1245 1.356 1_554 S
N1243 H1248 0.984 . S
N1243 H1249 0.985 . S
C1244 C1238 1.379 . S
C1244 C1241 1.363 . S
C1244 N1242 1.356 . S
C1245 C1239 1.363 . S
C1245 C1240 1.379 . S
C1245 N1243 1.356 1_556 S
N1246 C1238 1.356 . S
N1246 H1252 0.984 . S
N1246 H1253 0.984 . S
N1247 C1240 1.356 . S
N1247 H1250 0.985 1_455 S
N1247 H1251 0.985 1_456 S
H1248 N1243 0.984 . S
H1249 N1243 0.985 . S
H1250 N1247 0.985 1_655 S
H1251 N1247 0.985 1_654 S
H1252 N1246 0.984 . S
H1253 N1246 0.984 . S
H1254 N1242 0.984 . S
H1255 N1242 0.985 . S
C1256 C1257 1.363 . S
C1256 C1262 1.379 . S
C1256 N1264 1.356 . S
C1257 C1256 1.363 . S
C1257 C1263 1.363 . S
C1258 C1259 1.363 . S
C1258 C1263 1.379 . S
C1258 N1265 1.356 . S
C1259 C1258 1.363 . S
C1259 C1262 1.363 . S
N1260 C1262 1.356 . S
N1260 H1272 0.984 . S
N1260 H1273 0.985 . S
N1261 C1263 1.356 . S
N1261 H1266 0.984 . S
N1261 H1267 0.985 . S
C1262 C1256 1.379 . S
C1262 C1259 1.363 . S
C1262 N1260 1.356 . S
C1263 C1257 1.363 . S
C1263 C1258 1.379 . S
C1263 N1261 1.356 . S
N1264 C1256 1.356 . S
N1264 H1270 0.984 . S
N1264 H1271 0.984 . S
N1265 C1258 1.356 . S
N1265 H1268 0.984 . S
N1265 H1269 0.985 . S
H1266 N1261 0.984 . S
H1267 N1261 0.985 . S
H1268 N1265 0.984 . S
H1269 N1265 0.985 . S
H1270 N1264 0.984 . S
H1271 N1264 0.984 . S
H1272 N1260 0.984 . S
H1273 N1260 0.985 . S
C1274 C1275 1.363 . S
C1274 C1280 1.379 . S
C1274 N1282 1.356 . S
C1275 C1274 1.363 . S
C1275 C1281 1.363 . S
C1276 C1277 1.363 . S
C1276 C1281 1.379 . S
C1276 N1283 1.356 . S
C1277 C1276 1.363 . S
C1277 C1280 1.363 . S
N1278 C1280 1.356 . S
N1278 H1290 0.984 . S
N1278 H1291 0.985 . S
N1279 C1281 1.356 . S
N1279 H1284 0.984 . S
N1279 H1285 0.985 . S
C1280 C1274 1.379 . S
C1280 C1277 1.363 . S
C1280 N1278 1.356 . S
C1281 C1275 1.363 . S
C1281 C1276 1.379 . S
C1281 N1279 1.356 . S
N1282 C1274 1.356 . S
N1282 H1288 0.984 1_554 S
N1282 H1289 0.984 . S
N1283 C1276 1.356 . S
N1283 H1286 0.984 . S
N1283 H1287 0.985 . S
H1284 N1279 0.984 . S
H1285 N1279 0.985 . S
H1286 N1283 0.984 . S
H1287 N1283 0.985 . S
H1288 N1282 0.984 1_556 S
H1289 N1282 0.984 . S
H1290 N1278 0.984 . S
H1291 N1278 0.985 . S
C1292 C1293 1.363 . S
C1292 C1298 1.379 . S
C1292 N1300 1.356 . S
C1293 C1292 1.363 . S
C1293 C1299 1.363 . S
C1294 C1295 1.363 . S
C1294 C1299 1.379 . S
C1294 N1301 1.356 . S
C1295 C1294 1.363 . S
C1295 C1298 1.363 . S
N1296 C1298 1.356 . S
N1296 H1308 0.984 . S
N1296 H1309 0.985 . S
N1297 C1299 1.356 . S
N1297 H1302 0.984 . S
N1297 H1303 0.985 . S
C1298 C1292 1.379 . S
C1298 C1295 1.363 . S
C1298 N1296 1.356 . S
C1299 C1293 1.363 . S
C1299 C1294 1.379 . S
C1299 N1297 1.356 . S
N1300 C1292 1.356 . S
N1300 H1306 0.984 . S
N1300 H1307 0.984 . S
N1301 C1294 1.356 . S
N1301 H1304 0.984 . S
N1301 H1305 0.985 . S
H1302 N1297 0.984 . S
H1303 N1297 0.985 . S
H1304 N1301 0.984 . S
H1305 N1301 0.985 . S
H1306 N1300 0.984 . S
H1307 N1300 0.984 . S
H1308 N1296 0.984 . S
H1309 N1296 0.985 . S
C1310 C1311 1.363 . S
C1310 C1316 1.379 . S
C1310 N1318 1.356 . S
C1311 C1310 1.363 . S
C1311 C1317 1.363 . S
C1312 C1313 1.363 . S
C1312 C1317 1.379 . S
C1312 N1319 1.356 . S
C1313 C1312 1.363 . S
C1313 C1316 1.363 . S
N1314 C1316 1.356 . S
N1314 H1326 0.984 . S
N1314 H1327 0.985 . S
N1315 C1317 1.356 . S
N1315 H1320 0.984 . S
N1315 H1321 0.985 . S
C1316 C1310 1.379 . S
C1316 C1313 1.363 . S
C1316 N1314 1.356 . S
C1317 C1311 1.363 . S
C1317 C1312 1.379 . S
C1317 N1315 1.356 . S
N1318 C1310 1.356 . S
N1318 H1324 0.984 . S
N1318 H1325 0.984 1_554 S
N1319 C1312 1.356 . S
N1319 H1322 0.984 . S
N1319 H1323 0.985 . S
H1320 N1315 0.984 . S
H1321 N1315 0.985 . S
H1322 N1319 0.984 . S
H1323 N1319 0.985 . S
H1324 N1318 0.984 . S
H1325 N1318 0.984 1_556 S
H1326 N1314 0.984 . S
H1327 N1314 0.985 . S
C1328 C1329 1.363 . S
C1328 C1334 1.379 . S
C1328 N1336 1.356 . S
C1329 C1328 1.363 . S
C1329 C1335 1.363 . S
C1330 C1331 1.363 . S
C1330 C1335 1.379 . S
C1330 N1337 1.356 . S
C1331 C1330 1.363 . S
C1331 C1334 1.363 . S
N1332 C1334 1.356 . S
N1332 H1344 0.984 . S
N1332 H1345 0.985 . S
N1333 C1335 1.356 . S
N1333 H1338 0.984 . S
N1333 H1339 0.985 . S
C1334 C1328 1.379 . S
C1334 C1331 1.363 . S
C1334 N1332 1.356 . S
C1335 C1329 1.363 . S
C1335 C1330 1.379 . S
C1335 N1333 1.356 . S
N1336 C1328 1.356 . S
N1336 H1342 0.984 . S
N1336 H1343 0.984 . S
N1337 C1330 1.356 . S
N1337 H1340 0.984 . S
N1337 H1341 0.985 . S
H1338 N1333 0.984 . S
H1339 N1333 0.985 . S
H1340 N1337 0.984 . S
H1341 N1337 0.985 . S
H1342 N1336 0.984 . S
H1343 N1336 0.984 . S
H1344 N1332 0.984 . S
H1345 N1332 0.985 . S
C1346 C1347 1.363 . S
C1346 C1352 1.379 . S
C1346 N1354 1.356 . S
C1347 C1346 1.363 . S
C1347 C1353 1.363 . S
C1348 C1349 1.363 . S
C1348 C1353 1.379 . S
C1348 N1355 1.356 . S
C1349 C1348 1.363 . S
C1349 C1352 1.363 . S
N1350 C1352 1.356 . S
N1350 H1362 0.984 . S
N1350 H1363 0.985 . S
N1351 C1353 1.356 . S
N1351 H1356 0.984 . S
N1351 H1357 0.985 . S
C1352 C1346 1.379 . S
C1352 C1349 1.363 . S
C1352 N1350 1.356 . S
C1353 C1347 1.363 . S
C1353 C1348 1.379 . S
C1353 N1351 1.356 . S
N1354 C1346 1.356 . S
N1354 H1360 0.984 . S
N1354 H1361 0.984 . S
N1355 C1348 1.356 . S
N1355 H1358 0.984 . S
N1355 H1359 0.985 . S
H1356 N1351 0.984 . S
H1357 N1351 0.985 . S
H1358 N1355 0.984 . S
H1359 N1355 0.985 . S
H1360 N1354 0.984 . S
H1361 N1354 0.984 . S
H1362 N1350 0.984 . S
H1363 N1350 0.985 . S
C1364 C1365 1.363 . S
C1364 C1370 1.379 . S
C1364 N1372 1.356 . S
C1365 C1364 1.363 . S
C1365 C1371 1.363 . S
C1366 C1367 1.363 . S
C1366 C1371 1.379 . S
C1366 N1373 1.356 . S
C1367 C1366 1.363 . S
C1367 C1370 1.363 . S
N1368 C1370 1.356 . S
N1368 H1380 0.984 . S
N1368 H1381 0.985 . S
N1369 C1371 1.356 . S
N1369 H1374 0.984 . S
N1369 H1375 0.985 . S
C1370 C1364 1.379 . S
C1370 C1367 1.363 . S
C1370 N1368 1.356 . S
C1371 C1365 1.363 . S
C1371 C1366 1.379 . S
C1371 N1369 1.356 . S
N1372 C1364 1.356 . S
N1372 H1378 0.984 . S
N1372 H1379 0.984 . S
N1373 C1366 1.356 . S
N1373 H1376 0.984 . S
N1373 H1377 0.985 . S
H1374 N1369 0.984 . S
H1375 N1369 0.985 . S
H1376 N1373 0.984 . S
H1377 N1373 0.985 . S
H1378 N1372 0.984 . S
H1379 N1372 0.984 . S
H1380 N1368 0.984 . S
H1381 N1368 0.985 . S
C1382 C1383 1.363 . S
C1382 C1388 1.379 . S
C1382 N1390 1.356 . S
C1383 C1382 1.363 . S
C1383 C1389 1.363 . S
C1384 C1385 1.363 . S
C1384 C1389 1.379 . S
C1384 N1391 1.356 . S
C1385 C1384 1.363 . S
C1385 C1388 1.363 . S
N1386 C1388 1.356 . S
N1386 H1398 0.984 . S
N1386 H1399 0.985 . S
N1387 C1389 1.356 . S
N1387 H1392 0.984 . S
N1387 H1393 0.985 . S
C1388 C1382 1.379 . S
C1388 C1385 1.363 . S
C1388 N1386 1.356 . S
C1389 C1383 1.363 . S
C1389 C1384 1.379 . S
C1389 N1387 1.356 . S
N1390 C1382 1.356 . S
N1390 H1396 0.984 . S
N1390 H1397 0.984 . S
N1391 C1384 1.356 . S
N1391 H1394 0.984 . S
N1391 H1395 0.985 . S
H1392 N1387 0.984 . S
H1393 N1387 0.985 . S
H1394 N1391 0.984 . S
H1395 N1391 0.985 . S
H1396 N1390 0.984 . S
H1397 N1390 0.984 . S
H1398 N1386 0.984 . S
H1399 N1386 0.985 . S
C1400 C1401 1.363 . S
C1400 C1406 1.379 . S
C1400 N1408 1.356 . S
C1401 C1400 1.363 . S
C1401 C1407 1.363 1_556 S
C1402 C1403 1.363 1_554 S
C1402 C1407 1.379 . S
C1402 N1409 1.356 . S
C1403 C1402 1.363 1_556 S
C1403 C1406 1.363 . S
N1404 C1406 1.356 . S
N1404 H1416 0.984 . S
N1404 H1417 0.985 . S
N1405 C1407 1.356 . S
N1405 H1410 0.984 . S
N1405 H1411 0.985 . S
C1406 C1400 1.379 . S
C1406 C1403 1.363 . S
C1406 N1404 1.356 . S
C1407 C1401 1.363 1_554 S
C1407 C1402 1.379 . S
C1407 N1405 1.356 . S
N1408 C1400 1.356 . S
N1408 H1414 0.984 . S
N1408 H1415 0.984 . S
N1409 C1402 1.356 . S
N1409 H1412 0.984 . S
N1409 H1413 0.985 . S
H1410 N1405 0.984 . S
H1411 N1405 0.985 . S
H1412 N1409 0.984 . S
H1413 N1409 0.985 . S
H1414 N1408 0.984 . S
H1415 N1408 0.984 . S
H1416 N1404 0.984 . S
H1417 N1404 0.985 . S
C1418 C1419 1.363 . S
C1418 C1424 1.379 . S
C1418 N1426 1.356 . S
C1419 C1418 1.363 . S
C1419 C1425 1.363 . S
C1420 C1421 1.363 . S
C1420 C1425 1.379 . S
C1420 N1427 1.356 . S
C1421 C1420 1.363 . S
C1421 C1424 1.363 . S
N1422 C1424 1.356 . S
N1422 H1434 0.984 . S
N1422 H1435 0.985 . S
N1423 C1425 1.356 . S
N1423 H1428 0.984 . S
N1423 H1429 0.985 . S
C1424 C1418 1.379 . S
C1424 C1421 1.363 . S
C1424 N1422 1.356 . S
C1425 C1419 1.363 . S
C1425 C1420 1.379 . S
C1425 N1423 1.356 . S
N1426 C1418 1.356 . S
N1426 H1432 0.984 . S
N1426 H1433 0.984 . S
N1427 C1420 1.356 . S
N1427 H1430 0.984 . S
N1427 H1431 0.985 . S
H1428 N1423 0.984 . S
H1429 N1423 0.985 . S
H1430 N1427 0.984 . S
H1431 N1427 0.985 . S
H1432 N1426 0.984 . S
H1433 N1426 0.984 . S
H1434 N1422 0.984 . S
H1435 N1422 0.985 . S
C1436 C1437 1.363 1_556 S
C1436 C1442 1.379 . S
C1436 N1444 1.356 . S
C1437 C1436 1.363 1_554 S
C1437 C1443 1.363 . S
C1438 C1439 1.363 . S
C1438 C1443 1.379 . S
C1438 N1445 1.356 . S
C1439 C1438 1.363 . S
C1439 C1442 1.363 1_554 S
N1440 C1442 1.356 . S
N1440 H1452 0.984 . S
N1440 H1453 0.985 . S
N1441 C1443 1.356 . S
N1441 H1446 0.984 . S
N1441 H1447 0.985 . S
C1442 C1436 1.379 . S
C1442 C1439 1.363 1_556 S
C1442 N1440 1.356 . S
C1443 C1437 1.363 . S
C1443 C1438 1.379 . S
C1443 N1441 1.356 . S
N1444 C1436 1.356 . S
N1444 H1450 0.984 . S
N1444 H1451 0.984 . S
N1445 C1438 1.356 . S
N1445 H1448 0.984 . S
N1445 H1449 0.985 . S
H1446 N1441 0.984 . S
H1447 N1441 0.985 . S
H1448 N1445 0.984 . S
H1449 N1445 0.985 . S
H1450 N1444 0.984 . S
H1451 N1444 0.984 . S
H1452 N1440 0.984 . S
H1453 N1440 0.985 . S
C1454 C1455 1.363 . S
C1454 C1460 1.379 . S
C1454 N1462 1.356 . S
C1455 C1454 1.363 . S
C1455 C1461 1.363 1_565 S
C1456 C1457 1.363 . S
C1456 C1461 1.379 1_565 S
C1456 N1463 1.356 . S
C1457 C1456 1.363 . S
C1457 C1460 1.363 . S
N1458 C1460 1.356 . S
N1458 H1470 0.984 1_554 S
N1458 H1471 0.985 . S
N1459 C1461 1.356 . S
N1459 H1464 0.984 . S
N1459 H1465 0.985 . S
C1460 C1454 1.379 . S
C1460 C1457 1.363 . S
C1460 N1458 1.356 . S
C1461 C1455 1.363 1_545 S
C1461 C1456 1.379 1_545 S
C1461 N1459 1.356 . S
N1462 C1454 1.356 . S
N1462 H1468 0.984 1_554 S
N1462 H1469 0.984 . S
N1463 C1456 1.356 . S
N1463 H1466 0.984 . S
N1463 H1467 0.985 1_565 S
H1464 N1459 0.984 . S
H1465 N1459 0.985 . S
H1466 N1463 0.984 . S
H1467 N1463 0.985 1_545 S
H1468 N1462 0.984 1_556 S
H1469 N1462 0.984 . S
H1470 N1458 0.984 1_556 S
H1471 N1458 0.985 . S
C611 C178 1.574 . S
C609 C60 1.551 . S
C629 C226 1.432 . S
C627 C76 1.466 . S
C645 C81 1.568 . S
C647 C262 1.507 . S
C665 C298 1.580 . S
C663 C48 1.653 1_545 S
C683 C324 1.469 . S
C681 C115 1.459 . S
C701 C360 1.651 . S
C699 C136 1.670 . S
C717 C131 1.452 . S
C719 C395 1.468 . S
C737 C432 1.539 . S
C735 C104 1.540 . S
C753 C126 1.489 . S
C755 C466 1.493 . S
C773 C514 1.483 . S
C771 C103 1.515 . S
C789 C120 1.403 . S
C791 C467 1.418 . S
C809 C504 1.559 . S
C807 C142 1.558 . S
C825 C82 1.456 . S
C827 C550 1.385 . S
C843 C54 1.762 . S
C845 C539 1.758 . S
C861 C65 1.464 . S
C863 C540 1.468 . S
C879 C71 1.404 1_455 S
C881 C538 1.406 . S
C897 C37 1.512 . S
C899 C286 1.510 . S
C915 C158 1.819 . S
C917 C287 1.831 . S
C935 C190 1.463 . S
C933 C169 1.547 1_564 S
C953 C215 1.288 . S
C951 C98 1.283 . S
C969 C49 1.743 . S
C971 C322 1.739 . S
C989 C430 1.459 . S
C987 C125 1.469 . S
C1007 C323 1.459 . S
C1005 C109 1.474 . S
C1025 C396 1.771 . S
C1023 C137 1.782 . S
C1043 C394 1.552 . S
C1041 C159 1.551 . S
C1059 C175 1.466 . S
C1061 C442 1.432 . S
C1077 C92 1.568 . S
C1079 C334 1.507 . S
C1097 C370 1.580 . S
C1095 C147 1.653 . S
C1113 C38 1.459 . S
C1115 C252 1.469 . S
C1133 C288 1.651 . S
C1131 C4 1.670 . S
C1151 C179 1.468 . S
C1149 C21 1.452 . S
C1169 C216 1.539 . S
C1167 C27 1.540 . S
C1185 C16 1.489 . S
C1187 C502 1.493 . S
C1203 C26 1.515 1_556 S
C1205 C478 1.483 . S
C1221 C43 1.403 . S
C1223 C503 1.418 . S
C1239 C10 1.558 1_556 S
C1241 C468 1.559 . S
C1259 C586 1.385 . S
C1257 C93 1.456 . S
C1277 C575 1.757 . S
C1275 C153 1.761 . S
C1295 C576 1.468 . S
C1293 C164 1.464 . S
C1311 C170 1.406 . S
C1313 C574 1.406 . S
C1329 C114 1.512 . S
C1331 C358 1.510 . S
C1349 C359 1.831 . S
C1347 C59 1.820 . S
C1367 C406 1.463 . S
C1365 C70 1.547 . S
C1385 C431 1.288 . S
C1383 C87 1.283 . S
C1401 C148 1.743 . S
C1403 C250 1.739 . S
C1421 C214 1.459 . S
C1419 C15 1.469 . S
C1437 C32 1.474 . S
C1439 C251 1.463 . S
C1457 C180 1.771 . S
C1455 C5 1.782 1_565 S
