# Generated by pormake.
# Topology anh, (6,3)-cn, num edge types: 1
# Building blocks:
#     Node 0, Type 0, BuildingBlock: VOLQOD_clean_sbu_1, # of connection points: 6
#     Node 1, Type 0, BuildingBlock: VOLQOD_clean_sbu_1, # of connection points: 6
#     Node 2, Type 0, BuildingBlock: VOLQOD_clean_sbu_1, # of connection points: 6
#     Node 3, Type 1, BuildingBlock: KAKCAD_clean_linker_0, # of connection points: 3
#     Node 4, Type 1, BuildingBlock: KAKCAD_clean_linker_0, # of connection points: 3
#     Node 5, Type 1, BuildingBlock: KAKCAD_clean_linker_0, # of connection points: 3
#     Node 6, Type 1, BuildingBlock: KAKCAD_clean_linker_0, # of connection points: 3
#     Node 7, Type 1, BuildingBlock: KAKCAD_clean_linker_0, # of connection points: 3
#     Node 8, Type 1, BuildingBlock: KAKCAD_clean_linker_0, # of connection points: 3
#     Edge 9, Type (0, 1), BuildingBlock: KIFKEQ_clean_linker_1, # of connection points: 2
#     Edge 10, Type (0, 1), BuildingBlock: KIFKEQ_clean_linker_1, # of connection points: 2
#     Edge 11, Type (0, 1), BuildingBlock: KIFKEQ_clean_linker_1, # of connection points: 2
#     Edge 12, Type (0, 1), BuildingBlock: KIFKEQ_clean_linker_1, # of connection points: 2
#     Edge 13, Type (0, 1), BuildingBlock: KIFKEQ_clean_linker_1, # of connection points: 2
#     Edge 14, Type (0, 1), BuildingBlock: KIFKEQ_clean_linker_1, # of connection points: 2
#     Edge 15, Type (0, 1), BuildingBlock: KIFKEQ_clean_linker_1, # of connection points: 2
#     Edge 16, Type (0, 1), BuildingBlock: KIFKEQ_clean_linker_1, # of connection points: 2
#     Edge 17, Type (0, 1), BuildingBlock: KIFKEQ_clean_linker_1, # of connection points: 2
#     Edge 18, Type (0, 1), BuildingBlock: KIFKEQ_clean_linker_1, # of connection points: 2
#     Edge 19, Type (0, 1), BuildingBlock: KIFKEQ_clean_linker_1, # of connection points: 2
#     Edge 20, Type (0, 1), BuildingBlock: KIFKEQ_clean_linker_1, # of connection points: 2
#     Edge 21, Type (0, 1), BuildingBlock: KIFKEQ_clean_linker_1, # of connection points: 2
#     Edge 22, Type (0, 1), BuildingBlock: KIFKEQ_clean_linker_1, # of connection points: 2
#     Edge 23, Type (0, 1), BuildingBlock: KIFKEQ_clean_linker_1, # of connection points: 2
#     Edge 24, Type (0, 1), BuildingBlock: KIFKEQ_clean_linker_1, # of connection points: 2
#     Edge 25, Type (0, 1), BuildingBlock: KIFKEQ_clean_linker_1, # of connection points: 2
#     Edge 26, Type (0, 1), BuildingBlock: KIFKEQ_clean_linker_1, # of connection points: 2
# Relax obj value: 0.167
# Max RMSD: 0.230
# Mean RMSD: 0.114
data_MOF--net-anh--node1-VOLQOD_clean_sbu_1--node2-KAKCAD_clean_linker_0--edge1-KIFKEQ_clean_linker_1
_symmetry_space_group_name_H-M    P1
_symmetry_Int_Tables_number       1
_symmetry_cell_setting            triclinic
loop_
_symmetry_equiv_pos_as_xyz
'x, y, z'
_cell_length_a     35.595321
_cell_length_b     35.417998
_cell_length_c     75.908395
_cell_angle_alpha  90.125482
_cell_angle_beta   89.840336
_cell_angle_gamma 120.27126
loop_
_atom_site_label
_atom_site_type_symbol
_atom_site_fract_x
_atom_site_fract_y
_atom_site_fract_z
_atom_type_partial_charge
O0 O 0.98031 0.53518 0.20399 0.0
Zn1 Zn 0.98393 0.55198 0.17843 0.0
O2 O -0.00543 0.51235 0.16376 0.0
Zn3 Zn 0.94774 0.4813 0.14707 0.0
Zn4 Zn -0.00134 0.46923 0.17845 0.0
Zn5 Zn 0.048 0.54609 0.15054 0.0
O6 O 0.96776 0.49327 0.1219 0.0
O7 O 0.03826 0.54092 0.12432 0.0
O8 O 0.92714 0.54873 0.17197 0.0
O9 O 0.90399 0.49949 0.15046 0.0
O10 O 0.91505 0.41674 0.15136 0.0
O11 O 0.94739 0.40867 0.17476 0.0
O12 O 0.05338 0.46772 0.17342 0.0
O13 O 0.03368 0.61472 0.17649 0.0
O14 O 0.08966 0.5257 0.15606 0.0
O15 O 0.07704 0.60911 0.15691 0.0
C16 C -0.01132 0.50892 0.21219 0.0
C17 C 0.00468 0.51828 0.11489 0.0
C18 C 0.91742 0.39271 0.16321 0.0
C19 C 0.89881 0.5253 0.16049 0.0
C20 C 0.08729 0.49395 0.16478 0.0
C21 C 0.0684 0.63198 0.16728 0.0
O22 O -0.0016 0.48352 0.20404 0.0
O23 O 0.46195 0.01291 0.45865 0.0
Zn24 Zn 0.44434 0.01054 0.48396 0.0
O25 O 0.48288 0.00166 0.49956 0.0
Zn26 Zn 0.50867 0.04866 0.51668 0.0
Zn27 Zn 0.52885 0.00066 0.48569 0.0
Zn28 Zn 0.44971 0.94712 0.51235 0.0
O29 O 0.49999 0.02684 0.54152 0.0
O30 O 0.45395 0.95578 0.53865 0.0
O31 O 0.44425 0.06602 0.48981 0.0
O32 O 0.48206 0.08637 0.51475 0.0
O33 O 0.57256 0.08725 0.51225 0.0
O34 O 0.5871 0.05335 0.491 0.0
O35 O 0.53139 0.94594 0.49027 0.0
O36 O 0.38278 0.96044 0.48593 0.0
O37 O 0.47289 0.90755 0.50697 0.0
O38 O 0.38693 0.91625 0.50551 0.0
C39 C 0.49142 0.0086 0.45098 0.0
C40 C 0.47631 0.98922 0.54828 0.0
C41 C 0.59934 0.08509 0.50173 0.0
C42 C 0.45899 0.09104 0.50316 0.0
C43 C 0.50557 0.91116 0.49861 0.0
C44 C 0.36494 0.92532 0.49493 0.0
O45 O 0.51863 0.00288 0.45972 0.0
O46 O 0.47092 0.4818 0.78866 0.0
Zn47 Zn 0.45474 0.46608 0.81425 0.0
O48 O 0.50433 0.50517 0.82944 0.0
Zn49 Zn 0.48791 0.53552 0.84619 0.0
Zn50 Zn 0.55292 0.54908 0.81532 0.0
Zn51 Zn 0.52257 0.47077 0.84283 0.0
O52 O 0.49262 0.52142 0.87136 0.0
O53 O 0.51582 0.47421 0.86895 0.0
O54 O 0.40155 0.47136 0.81977 0.0
O55 O 0.42692 0.51919 0.84181 0.0
O56 O 0.52165 0.60026 0.84294 0.0
O57 O 0.56334 0.60995 0.81971 0.0
O58 O 0.60836 0.54848 0.82021 0.0
O59 O 0.4396 0.40282 0.81674 0.0
O60 O 0.58495 0.49158 0.8382 0.0
O61 O 0.4888 0.40808 0.836 0.0
C62 C 0.50574 0.50993 0.78095 0.0
C63 C 0.50387 0.49604 0.87837 0.0
C64 C 0.54908 0.62517 0.83151 0.0
C65 C 0.39657 0.49479 0.83127 0.0
C66 C 0.61524 0.52249 0.82938 0.0
C67 C 0.4569 0.38534 0.82581 0.0
O68 O 0.5393 0.53672 0.78964 0.0
C69 C 0.52146 0.05173 0.30899 0.0
C70 C 0.50092 0.01184 0.31815 0.0
C71 C 0.52054 0.05236 0.2906 0.0
C72 C 0.49924 0.01309 0.28098 0.0
C73 C 0.47936 0.9732 0.29017 0.0
C74 C 0.48009 0.97259 0.30855 0.0
C75 C 0.49711 0.01368 0.26146 0.0
C76 C 0.53342 0.04348 0.25155 0.0
C77 C 0.53149 0.04391 0.23309 0.0
C78 C 0.49275 0.01451 0.22447 0.0
C79 C 0.45619 0.9847 0.2342 0.0
C80 C 0.4586 0.98439 0.25264 0.0
C81 C 0.41546 0.95335 0.22519 0.0
C82 C 0.39621 0.9678 0.2128 0.0
C83 C 0.39531 0.90866 0.22918 0.0
C84 C 0.35676 0.8788 0.22082 0.0
C85 C 0.33732 0.89315 0.2085 0.0
C86 C 0.57015 0.07513 0.22286 0.0
C87 C 0.59201 0.11974 0.22717 0.0
C88 C 0.58583 0.06053 0.20898 0.0
C89 C 0.62322 0.09009 0.19971 0.0
C90 C 0.6449 0.13475 0.20398 0.0
C91 C 0.62887 0.14933 0.21773 0.0
C92 C 0.35714 0.93792 0.20463 0.0
H93 H 0.53732 0.0825 0.31606 0.0
H94 H 0.53568 0.08365 0.28393 0.0
H95 H 0.4634 0.94236 0.28315 0.0
H96 H 0.46456 0.94135 0.31526 0.0
H97 H 0.56363 0.06569 0.25816 0.0
H98 H 0.43002 0.96184 0.26012 0.0
H99 H 0.49109 0.01474 0.21021 0.0
H100 H 0.41111 0.00221 0.20963 0.0
H101 H 0.40965 0.89678 0.23865 0.0
H102 H 0.34189 0.84444 0.22409 0.0
H103 H 0.5804 0.13174 0.23778 0.0
H104 H 0.56959 0.02618 0.20552 0.0
H105 H 0.34274 0.94963 0.19512 0.0
H106 H 0.64528 0.18358 0.22135 0.0
H107 H 0.63498 0.07817 0.18913 0.0
C108 C 0.51293 0.54457 0.63842 0.0
C109 C 0.52894 0.5224 0.64841 0.0
C110 C 0.51758 0.54713 0.62014 0.0
C111 C 0.53861 0.52782 0.61141 0.0
C112 C 0.55463 0.50562 0.62142 0.0
C113 C 0.54975 0.50285 0.63973 0.0
C114 C 0.54276 0.53003 0.59191 0.0
C115 C 0.55154 0.56826 0.58287 0.0
C116 C 0.55226 0.56946 0.5644 0.0
C117 C 0.54441 0.5323 0.55489 0.0
C118 C 0.53562 0.49404 0.56369 0.0
C119 C 0.53537 0.49312 0.58216 0.0
C120 C 0.5233 0.45404 0.55353 0.0
C121 C 0.48749 0.43723 0.54209 0.0
C122 C 0.54663 0.43213 0.55543 0.0
C123 C 0.53432 0.39384 0.54595 0.0
C124 C 0.498 0.37656 0.53477 0.0
C125 C 0.55651 0.60771 0.55493 0.0
C126 C 0.52849 0.62346 0.55915 0.0
C127 C 0.58572 0.62627 0.54076 0.0
C128 C 0.5863 0.65969 0.53077 0.0
C129 C 0.55704 0.67407 0.53465 0.0
C130 C 0.52854 0.65616 0.549 0.0
C131 C 0.47462 0.39843 0.5329 0.0
H132 H 0.49617 0.55937 0.64473 0.0
H133 H 0.50396 0.56361 0.61281 0.0
H134 H 0.57137 0.49078 0.61512 0.0
H135 H 0.56286 0.486 0.64712 0.0
H136 H 0.55746 0.59709 0.59017 0.0
H137 H 0.52709 0.46289 0.58886 0.0
H138 H 0.54358 0.53261 0.54061 0.0
H139 H 0.46896 0.45365 0.54056 0.0
H140 H 0.57433 0.44469 0.5642 0.0
H141 H 0.55245 0.37707 0.5477 0.0
H142 H 0.50537 0.60928 0.56988 0.0
H143 H 0.60757 0.61449 0.5373 0.0
H144 H 0.44643 0.38545 0.52438 0.0
H145 H 0.5059 0.66715 0.5522 0.0
H146 H 0.60852 0.67332 0.51973 0.0
C147 C 0.06323 0.5666 0.97325 0.0
C148 C 0.02347 0.54342 0.98233 0.0
C149 C 0.06411 0.56827 0.95484 0.0
C150 C 0.02525 0.54691 0.94515 0.0
C151 C 0.98555 0.52368 0.95423 0.0
C152 C 0.98467 0.52191 0.9726 0.0
C153 C 0.0259 0.5484 0.92563 0.0
C154 C 0.05615 0.54206 0.91605 0.0
C155 C 0.05503 0.54094 0.89757 0.0
C156 C 0.02453 0.5476 0.88864 0.0
C157 C -0.0054 0.55446 0.89799 0.0
C158 C -0.00485 0.55456 0.91646 0.0
C159 C 0.96094 0.55841 0.88833 0.0
C160 C 0.97245 0.58892 0.87461 0.0
C161 C 0.91692 0.52933 0.89196 0.0
C162 C 0.88482 0.52971 0.88164 0.0
C163 C 0.89627 0.55963 0.86774 0.0
C164 C 0.08486 0.53173 0.88743 0.0
C165 C 0.1299 0.55757 0.8898 0.0
C166 C 0.06837 0.49791 0.87488 0.0
C167 C 0.09664 0.49018 0.86476 0.0
C168 C 0.14173 0.51676 0.86683 0.0
C169 C 0.15815 0.55037 0.87947 0.0
C170 C 0.94021 0.58986 0.86448 0.0
H171 H 0.09365 0.58397 0.98036 0.0
H172 H 0.09515 0.58678 0.9482 0.0
H173 H 0.95512 0.50621 0.94712 0.0
H174 H 0.95357 0.50307 0.97916 0.0
H175 H 0.07938 0.5362 0.92293 0.0
H176 H 0.97175 0.55971 0.92365 0.0
H177 H 0.02356 0.5466 0.87435 0.0
H178 H 0.00633 0.61163 0.87164 0.0
H179 H 0.90741 0.50533 0.90238 0.0
H180 H 0.85097 0.50639 0.88442 0.0
H181 H 0.14321 0.58388 0.89937 0.0
H182 H 0.03361 0.47746 0.87294 0.0
H183 H 0.94952 0.61322 0.85383 0.0
H184 H 0.1929 0.57092 0.88141 0.0
H185 H 0.08338 0.46404 0.85512 0.0
C186 C 0.93873 0.49367 0.35386 0.0
C187 C 0.97504 0.49748 0.34475 0.0
C188 C 0.93776 0.49363 0.37226 0.0
C189 C 0.97337 0.49827 0.38187 0.0
C190 C 0.00946 0.50172 0.37295 0.0
C191 C 0.0101 0.5008 0.35458 0.0
C192 C 0.9738 0.50136 0.40121 0.0
C193 C 0.94361 0.46604 0.41138 0.0
C194 C 0.94492 0.46881 0.42985 0.0
C195 C 0.97593 0.50772 0.43804 0.0
C196 C 0.00568 0.54365 0.42792 0.0
C197 C 0.00471 0.53995 0.40949 0.0
C198 C 0.0374 0.58527 0.43649 0.0
C199 C 0.02454 0.60253 0.45042 0.0
C200 C 0.08056 0.60861 0.43045 0.0
C201 C 0.11009 0.64867 0.43799 0.0
C202 C 0.09715 0.66628 0.45174 0.0
C203 C 0.91395 0.43103 0.44058 0.0
C204 C 0.86941 0.40898 0.4366 0.0
C205 C 0.92873 0.41663 0.45478 0.0
C206 C 0.89944 0.38047 0.46474 0.0
C207 C 0.85485 0.35858 0.46079 0.0
C208 C 0.84011 0.37323 0.44667 0.0
C209 C 0.05418 0.64266 0.458 0.0
H210 H 0.91143 0.49181 0.34682 0.0
H211 H 0.90977 0.49128 0.37899 0.0
H212 H 0.03713 0.50504 0.38022 0.0
H213 H 0.03814 0.50268 0.34812 0.0
H214 H 0.91995 0.43605 0.40492 0.0
H215 H 0.02726 0.56751 0.40149 0.0
H216 H 0.97678 0.51005 0.45229 0.0
H217 H -0.00868 0.58548 0.4552 0.0
H218 H 0.09161 0.59577 0.41996 0.0
H219 H 0.14328 0.66565 0.43317 0.0
H220 H 0.85721 0.41963 0.42578 0.0
H221 H 0.96302 0.43295 0.45801 0.0
H222 H 0.04329 0.65559 0.46852 0.0
H223 H 0.80592 0.35658 0.44324 0.0
H224 H 0.91154 0.36982 0.47559 0.0
C225 C 0.43304 0.97001 0.68969 0.0
C226 C 0.46551 0.96597 0.68079 0.0
C227 C 0.43272 0.97171 0.70807 0.0
C228 C 0.46482 0.96934 0.71792 0.0
C229 C 0.49678 0.96442 0.70904 0.0
C230 C 0.49713 0.96278 0.69066 0.0
C231 C 0.46586 0.97346 0.73738 0.0
C232 C 0.47475 0.94648 0.74798 0.0
C233 C 0.47762 0.95162 0.76636 0.0
C234 C 0.47083 0.98358 0.77421 0.0
C235 C 0.4616 0.01054 0.76378 0.0
C236 C 0.45932 0.00543 0.74541 0.0
C237 C 0.45577 0.04515 0.77191 0.0
C238 C 0.42558 0.03532 0.7856 0.0
C239 C 0.4803 0.08834 0.76584 0.0
C240 C 0.4751 0.12128 0.77343 0.0
C241 C 0.44481 0.11154 0.78706 0.0
C242 C 0.48878 0.92407 0.77719 0.0
C243 C 0.4653 0.87848 0.77525 0.0
C244 C 0.52411 0.94323 0.78889 0.0
C245 C 0.53644 0.91715 0.79818 0.0
C246 C 0.51306 0.87152 0.79613 0.0
C247 C 0.47714 0.85242 0.78473 0.0
C248 C 0.41981 0.06826 0.79301 0.0
H249 H 0.40846 0.97296 0.68246 0.0
H250 H 0.40742 0.97507 0.71456 0.0
H251 H 0.52218 0.9629 0.71626 0.0
H252 H 0.5223 0.95919 0.68418 0.0
H253 H 0.47996 0.92174 0.74192 0.0
H254 H 0.45298 0.02684 0.73735 0.0
H255 H 0.47319 0.98778 0.7884 0.0
H256 H 0.40616 0.00214 0.7904 0.0
H257 H 0.50391 0.09668 0.75535 0.0
H258 H 0.49458 0.15443 0.76858 0.0
H259 H 0.43791 0.86304 0.76631 0.0
H260 H 0.54286 0.97841 0.79047 0.0
H261 H 0.39643 0.06012 0.80357 0.0
H262 H 0.45885 0.81733 0.7828 0.0
H263 H 0.56419 0.93256 0.80693 0.0
C264 C 0.50222 0.44255 0.02024 0.0
C265 C 0.4869 0.4659 0.01061 0.0
C266 C 0.49805 0.43964 0.03858 0.0
C267 C 0.47808 0.45964 0.04757 0.0
C268 C 0.46216 0.48234 0.03787 0.0
C269 C 0.46655 0.48546 0.0196 0.0
C270 C 0.47522 0.45869 0.06705 0.0
C271 C 0.51158 0.46785 0.07732 0.0
C272 C 0.51045 0.47209 0.09566 0.0
C273 C 0.47267 0.46666 0.10376 0.0
C274 C 0.43559 0.45626 0.09376 0.0
C275 C 0.43706 0.4519 0.0754 0.0
C276 C 0.3966 0.45298 0.10239 0.0
C277 C 0.38384 0.43493 0.11935 0.0
C278 C 0.37339 0.47035 0.09412 0.0
C279 C 0.33925 0.47104 0.10281 0.0
C280 C 0.32799 0.45517 0.12012 0.0
C281 C 0.54891 0.48276 0.10644 0.0
C282 C 0.56824 0.45682 0.10524 0.0
C283 C 0.56577 0.51812 0.11828 0.0
C284 C 0.60164 0.52742 0.12877 0.0
C285 C 0.62039 0.5009 0.12778 0.0
C286 C 0.60351 0.46563 0.11591 0.0
C287 C 0.35005 0.43626 0.12817 0.0
H288 H 0.51821 0.42733 0.01362 0.0
H289 H 0.51043 0.42179 0.04574 0.0
H290 H 0.44711 0.49857 0.04444 0.0
H291 H 0.45396 0.50321 0.0125 0.0
H292 H 0.54141 0.47365 0.07103 0.0
H293 H 0.40858 0.44358 0.06752 0.0
H294 H 0.47254 0.47116 0.11788 0.0
H295 H 0.40047 0.42049 0.12596 0.0
H296 H 0.38248 0.48492 0.08115 0.0
H297 H 0.32221 0.48484 0.09604 0.0
H298 H 0.5556 0.42932 0.09624 0.0
H299 H 0.55136 0.53865 0.11931 0.0
H300 H 0.34226 0.4238 0.1415 0.0
H301 H 0.61794 0.44513 0.11477 0.0
H302 H 0.61436 0.55488 0.13778 0.0
H303 H 0.17262 0.555 0.16646 0.0
H304 H 0.0846 0.41635 0.16069 0.0
H305 H 0.23402 0.54497 0.15994 0.0
H306 H 0.14555 0.40628 0.15288 0.0
H307 H 0.26597 0.39785 0.14334 0.0
H308 H 0.21106 0.40712 0.1589 0.0
H309 H 0.25901 0.53253 0.13355 0.0
H310 H 0.31544 0.52485 0.11931 0.0
C311 C 0.16664 0.5223 0.16392 0.0
C312 C 0.12416 0.48649 0.16383 0.0
C313 C 0.20165 0.51651 0.16004 0.0
C314 C 0.19467 0.47499 0.15538 0.0
C315 C 0.15225 0.43869 0.15647 0.0
C316 C 0.11727 0.44439 0.16085 0.0
C317 C 0.26521 0.42774 0.1414 0.0
C318 C 0.29479 0.46039 0.12991 0.0
C319 C 0.23347 0.43286 0.15018 0.0
C320 C 0.23052 0.47058 0.14753 0.0
C321 C 0.26065 0.5034 0.13625 0.0
C322 C 0.29258 0.49857 0.12772 0.0
H323 H 0.63544 0.16098 0.5208 0.0
H324 H 0.66471 0.09477 0.47975 0.0
H325 H 0.70373 0.22797 0.51477 0.0
H326 H 0.73267 0.16196 0.47365 0.0
H327 H 0.77775 0.34267 0.47464 0.0
H328 H 0.72204 0.27566 0.48853 0.0
H329 H 0.80559 0.22029 0.48412 0.0
H330 H 0.86133 0.28753 0.46994 0.0
C331 C 0.65676 0.16041 0.51073 0.0
C332 C 0.6442 0.12272 0.50052 0.0
C333 C 0.69581 0.19885 0.50726 0.0
C334 C 0.72314 0.20033 0.49357 0.0
C335 C 0.71233 0.16176 0.48433 0.0
C336 C 0.67321 0.1233 0.48776 0.0
C337 C 0.78434 0.31634 0.47682 0.0
C338 C 0.82355 0.32 0.47108 0.0
C339 C 0.7527 0.27817 0.48494 0.0
C340 C 0.75951 0.24275 0.48741 0.0
C341 C 0.79947 0.24704 0.48231 0.0
C342 C 0.83136 0.2855 0.47429 0.0
H343 H 0.59304 0.68495 0.80539 0.0
H344 H 0.5265 0.66895 0.85497 0.0
H345 H 0.5926 0.75261 0.80017 0.0
H346 H 0.52647 0.73671 0.84975 0.0
H347 H 0.46207 0.79858 0.81535 0.0
H348 H 0.4815 0.74693 0.82729 0.0
H349 H 0.61387 0.82928 0.80944 0.0
H350 H 0.59411 0.8811 0.79735 0.0
C351 C 0.57951 0.69648 0.81543 0.0
C352 C 0.55893 0.67101 0.83041 0.0
C353 C 0.5794 0.73537 0.81245 0.0
C354 C 0.55876 0.74944 0.82441 0.0
C355 C 0.54188 0.72615 0.84016 0.0
C356 C 0.54203 0.68739 0.84315 0.0
C357 C 0.49544 0.80591 0.81422 0.0
C358 C 0.52652 0.84355 0.80536 0.0
C359 C 0.50672 0.77661 0.82119 0.0
C360 C 0.54926 0.78413 0.81932 0.0
C361 C 0.58084 0.82267 0.81103 0.0
C362 C 0.56961 0.85234 0.80421 0.0
H363 H 0.8792 0.58671 0.17286 0.0
H364 H 0.82458 0.46313 0.14532 0.0
H365 H 0.80939 0.58477 0.16982 0.0
H366 H 0.75622 0.46138 0.1424 0.0
H367 H 0.62872 0.44455 0.14922 0.0
H368 H 0.69596 0.45431 0.1619 0.0
H369 H 0.76519 0.58732 0.14288 0.0
H370 H 0.69741 0.57767 0.13045 0.0
C371 C 0.85238 0.55917 0.16629 0.0
C372 C 0.85744 0.52524 0.15923 0.0
C373 C 0.81263 0.55809 0.16457 0.0
C374 C 0.77737 0.52263 0.15611 0.0
C375 C 0.78253 0.48867 0.14932 0.0
C376 C 0.82199 0.49 0.15081 0.0
C377 C 0.65812 0.47618 0.14818 0.0
C378 C 0.65835 0.51012 0.13862 0.0
C379 C 0.69647 0.4818 0.15543 0.0
C380 C 0.73578 0.5213 0.15306 0.0
C381 C 0.73526 0.55663 0.14493 0.0
C382 C 0.69663 0.55107 0.13777 0.0
H383 H 0.31764 0.84472 0.51004 0.0
H384 H 0.30763 0.93132 0.47272 0.0
H385 H 0.24633 0.78614 0.50126 0.0
H386 H 0.23553 0.87271 0.46425 0.0
H387 H 0.15556 0.74031 0.4345 0.0
H388 H 0.21418 0.80706 0.44724 0.0
H389 H 0.16831 0.75613 0.49951 0.0
H390 H 0.11042 0.68837 0.48666 0.0
C391 C 0.29984 0.8516 0.50024 0.0
C392 C 0.31873 0.89248 0.49183 0.0
C393 C 0.2587 0.81802 0.49531 0.0
C394 C 0.23548 0.82464 0.4819 0.0
C395 C 0.25302 0.86643 0.4744 0.0
C396 C 0.29426 0.90003 0.4793 0.0
C397 C 0.15787 0.74348 0.44871 0.0
C398 C 0.12891 0.70889 0.45959 0.0
C399 C 0.19107 0.78199 0.45603 0.0
C400 C 0.19601 0.78682 0.4744 0.0
C401 C 0.16559 0.75314 0.4853 0.0
C402 C 0.13229 0.71452 0.47796 0.0
H403 H 0.47983 0.33634 0.84574 0.0
H404 H 0.40364 0.32887 0.80018 0.0
H405 H 0.47007 0.26504 0.83853 0.0
H406 H 0.39399 0.25708 0.79302 0.0
H407 H 0.37056 0.11528 0.79186 0.0
H408 H 0.36493 0.17697 0.80367 0.0
H409 H 0.5038 0.24871 0.8122 0.0
H410 H 0.50932 0.18762 0.80039 0.0
C411 C 0.46033 0.31919 0.83435 0.0
C412 C 0.44324 0.3387 0.82332 0.0
C413 C 0.45481 0.27835 0.83025 0.0
C414 C 0.43193 0.25601 0.81508 0.0
C415 C 0.41175 0.2737 0.80481 0.0
C416 C 0.41739 0.31481 0.8089 0.0
C417 C 0.39965 0.14416 0.79647 0.0
C418 C 0.44039 0.14699 0.79521 0.0
C419 C 0.39647 0.17936 0.80312 0.0
C420 C 0.43389 0.21739 0.80891 0.0
C421 C 0.47436 0.21955 0.80803 0.0
C422 C 0.4776 0.18482 0.80117 0.0
H423 H 0.5786 0.90981 0.48768 0.0
H424 H 0.45177 0.82948 0.51125 0.0
H425 H 0.59403 0.85032 0.49154 0.0
H426 H 0.46741 0.77116 0.51537 0.0
H427 H 0.48948 0.66154 0.51447 0.0
H428 H 0.47902 0.7177 0.50062 0.0
H429 H 0.60786 0.81652 0.51722 0.0
H430 H 0.61862 0.75966 0.53046 0.0
C431 C 0.55389 0.87939 0.49349 0.0
C432 C 0.51411 0.87449 0.4993 0.0
C433 C 0.56279 0.84547 0.49575 0.0
C434 C 0.53192 0.80603 0.50371 0.0
C435 C 0.49164 0.80077 0.5089 0.0
C436 C 0.48283 0.8345 0.5067 0.0
C437 C 0.51585 0.6952 0.51469 0.0
C438 C 0.5546 0.70672 0.52359 0.0
C439 C 0.50989 0.72731 0.50687 0.0
C440 C 0.54229 0.7716 0.50815 0.0
C441 C 0.58239 0.78268 0.51594 0.0
C442 C 0.58855 0.75032 0.52358 0.0
H443 H 0.63755 0.46599 0.84322 0.0
H444 H 0.69256 0.59245 0.81811 0.0
H445 H 0.70965 0.47758 0.84798 0.0
H446 H 0.76568 0.60374 0.8226 0.0
H447 H 0.87772 0.62447 0.8624 0.0
H448 H 0.81217 0.61683 0.84858 0.0
H449 H 0.77306 0.484 0.83388 0.0
H450 H 0.83758 0.49137 0.84832 0.0
C451 C 0.66508 0.4961 0.83847 0.0
C452 C 0.65932 0.52851 0.83045 0.0
C453 C 0.70654 0.50255 0.84103 0.0
C454 C 0.74342 0.54152 0.83559 0.0
C455 C 0.7378 0.57348 0.82701 0.0
C456 C 0.69601 0.56694 0.82438 0.0
C457 C 0.85542 0.59409 0.85585 0.0
C458 C 0.86188 0.55822 0.85661 0.0
C459 C 0.81811 0.58974 0.84786 0.0
C460 C 0.78712 0.54955 0.84041 0.0
C461 C 0.79585 0.51502 0.83987 0.0
C462 C 0.8327 0.51919 0.84806 0.0
H463 H 0.13886 0.68169 0.14652 0.0
H464 H 0.07492 0.68684 0.19422 0.0
H465 H 0.20248 0.75139 0.15406 0.0
H466 H 0.13909 0.75681 0.20177 0.0
H467 H 0.26116 0.89409 0.20588 0.0
H468 H 0.1922 0.8369 0.19322 0.0
H469 H 0.25397 0.76297 0.17881 0.0
H470 H 0.32222 0.81967 0.19139 0.0
C471 C 0.138 0.69808 0.15845 0.0
C472 C 0.10217 0.67828 0.16997 0.0
C473 C 0.1745 0.73798 0.16275 0.0
C474 C 0.17597 0.759 0.17864 0.0
C475 C 0.13876 0.74127 0.18942 0.0
C476 C 0.10207 0.70116 0.18511 0.0
C477 C 0.25989 0.86581 0.19976 0.0
C478 C 0.29673 0.86099 0.19964 0.0
C479 C 0.22055 0.83314 0.19262 0.0
C480 C 0.21786 0.79568 0.18498 0.0
C481 C 0.25522 0.79176 0.18439 0.0
C482 C 0.29416 0.82396 0.19172 0.0
H483 H 0.44204 0.12045 0.53331 0.0
H484 H 0.46047 0.14518 0.47737 0.0
H485 H 0.44149 0.18854 0.5375 0.0
H486 H 0.46135 0.21442 0.48169 0.0
H487 H 0.5447 0.35535 0.51267 0.0
H488 H 0.52394 0.28239 0.50157 0.0
H489 H 0.3984 0.22988 0.52662 0.0
H490 H 0.41882 0.30312 0.53739 0.0
C491 C 0.44511 0.14014 0.52189 0.0
C492 C 0.45146 0.12794 0.50505 0.0
C493 C 0.44453 0.17883 0.52426 0.0
C494 C 0.45133 0.20639 0.50989 0.0
C495 C 0.45584 0.19338 0.49291 0.0
C496 C 0.45525 0.15394 0.49046 0.0
C497 C 0.51232 0.32832 0.51539 0.0
C498 C 0.48335 0.33443 0.5259 0.0
C499 C 0.50035 0.28685 0.50895 0.0
C500 C 0.4596 0.25088 0.51324 0.0
C501 C 0.42987 0.25734 0.52308 0.0
C502 C 0.44152 0.29901 0.52922 0.0
H503 H 0.3148 0.43424 0.81916 0.0
H504 H 0.38663 0.55885 0.84573 0.0
H505 H 0.24749 0.43693 0.82301 0.0
H506 H 0.32063 0.56122 0.84963 0.0
H507 H 0.2082 0.57645 0.8468 0.0
H508 H 0.26595 0.56858 0.83308 0.0
H509 H 0.202 0.4334 0.84946 0.0
H510 H 0.14341 0.44113 0.86274 0.0
C511 C 0.31627 0.46224 0.82563 0.0
C512 C 0.35585 0.49609 0.83229 0.0
C513 C 0.2779 0.46374 0.82786 0.0
C514 C 0.27893 0.49948 0.83647 0.0
C515 C 0.3188 0.53365 0.84263 0.0
C516 C 0.35665 0.53198 0.84058 0.0
C517 C 0.20614 0.54487 0.84711 0.0
C518 C 0.17207 0.50961 0.85606 0.0
C519 C 0.23903 0.5403 0.83927 0.0
C520 C 0.23883 0.50061 0.84051 0.0
C521 C 0.20288 0.4643 0.84824 0.0
C522 C 0.16957 0.46876 0.85592 0.0
H523 H 0.8442 0.35037 0.14298 0.0
H524 H 0.90822 0.33177 0.18769 0.0
H525 H 0.77836 0.28161 0.14969 0.0
H526 H 0.84209 0.26299 0.19435 0.0
H527 H 0.71783 0.12983 0.19746 0.0
H528 H 0.78609 0.18619 0.18408 0.0
H529 H 0.72889 0.26712 0.17574 0.0
H530 H 0.66113 0.21108 0.18904 0.0
C531 C 0.84464 0.33123 0.15401 0.0
C532 C 0.88129 0.34702 0.165 0.0
C533 C 0.80682 0.2919 0.15786 0.0
C534 C 0.80497 0.26738 0.17268 0.0
C535 C 0.84267 0.28121 0.1828 0.0
C536 C 0.88049 0.32074 0.17903 0.0
C537 C 0.71981 0.15941 0.19246 0.0
C538 C 0.68449 0.16639 0.19433 0.0
C539 C 0.75879 0.19163 0.18491 0.0
C540 C 0.76269 0.23091 0.17885 0.0
C541 C 0.72666 0.23694 0.18009 0.0
C542 C 0.68804 0.20511 0.18783 0.0
H543 H 0.93923 0.47949 0.0907 0.0
H544 H 0.07844 0.5649 0.09504 0.0
H545 H 0.94495 0.48627 0.05876 0.0
H546 H 0.08391 0.572 0.06304 0.0
H547 H 0.07826 0.53286 0.00441 0.0
H548 H 0.07464 0.52721 0.03649 0.0
H549 H 0.96214 0.54328 0.03646 0.0
H550 H 0.96593 0.54934 0.00446 0.0
C551 C 0.97106 0.49971 0.08486 0.0
C552 C 0.00837 0.52171 0.09546 0.0
C553 C 0.97427 0.5038 0.06656 0.0
C554 C 0.01485 0.52983 0.05841 0.0
C555 C 0.05224 0.55142 0.06895 0.0
C556 C 0.04904 0.5475 0.08729 0.0
C557 C 0.05308 0.53572 0.01127 0.0
C558 C 0.02226 0.54135 0.00187 0.0
C559 C 0.05099 0.53242 0.02963 0.0
C560 C 0.01795 0.53454 0.03897 0.0
C561 C -0.0125 0.54073 0.0296 0.0
C562 C -0.01033 0.54418 0.01127 0.0
H563 H 0.43366 0.01073 0.42792 0.0
H564 H 0.55426 0.0091 0.42989 0.0
H565 H 0.43681 0.01179 0.39587 0.0
H566 H 0.55705 0.0098 0.39776 0.0
H567 H 0.56843 0.06017 0.34063 0.0
H568 H 0.5667 0.05999 0.37284 0.0
H569 H 0.43045 0.96123 0.37182 0.0
H570 H 0.43195 0.96207 0.33969 0.0
C571 C 0.46086 0.01061 0.42154 0.0
C572 C 0.49369 0.00978 0.4315 0.0
C573 C 0.46249 0.01096 0.40317 0.0
C574 C 0.4971 0.01074 0.39433 0.0
C575 C 0.53017 0.01034 0.40424 0.0
C576 C 0.52841 0.0097 0.42264 0.0
C577 C 0.5381 0.03861 0.34732 0.0
C578 C 0.50032 0.01115 0.33767 0.0
C579 C 0.53721 0.03822 0.36572 0.0
C580 C 0.49843 0.01065 0.37482 0.0
C581 C 0.4607 0.98313 0.36516 0.0
C582 C 0.46167 0.98329 0.34678 0.0
H583 H 0.44617 0.45147 0.75752 0.0
H584 H 0.5699 0.57197 0.76024 0.0
H585 H 0.45054 0.45411 0.72537 0.0
H586 H 0.5742 0.57425 0.72824 0.0
H587 H 0.50338 0.45113 0.66959 0.0
H588 H 0.49653 0.44777 0.70169 0.0
H589 H 0.53603 0.58478 0.70304 0.0
H590 H 0.54369 0.58836 0.67104 0.0
C591 C 0.47422 0.47852 0.75129 0.0
C592 C 0.50768 0.51151 0.76147 0.0
C593 C 0.47681 0.47986 0.7329 0.0
C594 C 0.51269 0.5144 0.72433 0.0
C595 C 0.54593 0.54749 0.73449 0.0
C596 C 0.54354 0.546 0.75284 0.0
C597 C 0.5108 0.48054 0.67678 0.0
C598 C 0.52418 0.52003 0.66784 0.0
C599 C 0.50645 0.47851 0.69511 0.0
C600 C 0.51577 0.51602 0.70485 0.0
C601 C 0.52898 0.55544 0.69589 0.0
C602 C 0.53302 0.5574 0.67757 0.0
H603 H 0.42899 0.91459 0.56769 0.0
H604 H 0.52028 0.05311 0.57281 0.0
H605 H 0.42691 0.90716 0.59968 0.0
H606 H 0.51755 0.04567 0.60469 0.0
H607 H 0.53721 0.00977 0.65982 0.0
H608 H 0.54011 0.01328 0.62775 0.0
H609 H 0.40055 0.92899 0.62556 0.0
H610 H 0.39782 0.92421 0.65766 0.0
C611 C 0.44854 0.94345 0.57561 0.0
C612 C 0.47483 0.98445 0.56767 0.0
C613 C 0.44716 0.9392 0.59394 0.0
C614 C 0.47213 0.97581 0.60469 0.0
C615 C 0.49843 0.01673 0.59675 0.0
C616 C 0.49976 0.02102 0.57846 0.0
C617 C 0.50722 0.99144 0.65249 0.0
C618 C 0.46728 0.96672 0.66127 0.0
C619 C 0.50883 -0.00613 0.63413 0.0
C620 C 0.47053 0.97161 0.62414 0.0
C621 C 0.43065 0.94624 0.6329 0.0
C622 C 0.42903 0.94387 0.65127 0.0
H623 H 0.53031 0.44919 0.89821 0.0
H624 H 0.47481 0.53292 0.90246 0.0
H625 H 0.52859 0.44237 0.93019 0.0
H626 H 0.47217 0.52521 0.93432 0.0
H627 H 0.51478 0.5399 0.99119 0.0
H628 H 0.52066 0.54737 0.95927 0.0
H629 H 0.47691 0.40969 0.95434 0.0
H630 H 0.47157 0.40243 0.98639 0.0
C631 C 0.51761 0.46601 0.90594 0.0
C632 C 0.50279 0.49169 0.89777 0.0
C633 C 0.51642 0.4619 0.92427 0.0
C634 C 0.50035 0.48333 0.9348 0.0
C635 C 0.48543 0.50887 0.92661 0.0
C636 C 0.48671 0.51308 0.90832 0.0
C637 C 0.50633 0.51123 0.98327 0.0
C638 C 0.49239 0.47051 0.99125 0.0
C639 C 0.50962 0.51547 0.965 0.0
C640 C 0.49888 0.47904 0.95426 0.0
C641 C 0.48584 0.43847 0.96225 0.0
C642 C 0.48272 0.43427 0.98059 0.0
H643 H 0.03213 0.48408 0.23449 0.0
H644 H 0.94079 0.53057 0.23365 0.0
H645 H 0.02878 0.48162 0.26671 0.0
H646 H 0.93676 0.52696 0.26588 0.0
H647 H 0.90769 0.45392 0.3213 0.0
H648 H 0.91089 0.45806 0.28919 0.0
H649 H 0.04948 0.54617 0.29148 0.0
H650 H 0.04644 0.54461 0.32355 0.0
C651 C 0.01123 0.49358 0.24118 0.0
C652 C -0.01324 0.50758 0.2316 0.0
C653 C 0.00947 0.49229 0.25956 0.0
C654 C 0.98246 0.50402 0.26862 0.0
C655 C 0.95765 0.5176 0.25909 0.0
C656 C 0.96016 0.51986 0.24072 0.0
C657 C 0.9388 0.47483 0.31505 0.0
C658 C 0.97681 0.4989 0.32514 0.0
C659 C 0.94056 0.4769 0.29667 0.0
C660 C 0.98042 0.50231 0.28801 0.0
C661 C 0.01845 0.52603 0.29795 0.0
C662 C 0.01663 0.52476 0.31631 0.0
loop_
_geom_bond_atom_site_label_1
_geom_bond_atom_site_label_2
_geom_bond_distance
_geom_bond_site_symmetry_2
_ccdc_geom_bond_type
O0 Zn1 1.953 1_655 S
O0 C16 1.225 1_655 S
Zn1 O0 1.953 1_455 S
Zn1 O2 1.949 . S
Zn1 O8 1.919 1_455 S
Zn1 O13 1.924 . S
O2 Zn1 1.949 . S
O2 Zn3 1.923 1_455 S
O2 Zn4 1.950 . S
O2 Zn5 1.945 . S
Zn3 O2 1.923 1_655 S
Zn3 O6 1.933 . S
Zn3 O9 1.941 . S
Zn3 O10 1.965 . S
Zn4 O2 1.950 . S
Zn4 O11 1.938 1_455 S
Zn4 O12 1.906 . S
Zn4 O22 1.953 . S
Zn5 O2 1.945 . S
Zn5 O7 1.932 . S
Zn5 O14 1.977 . S
Zn5 O15 1.910 . S
O6 Zn3 1.933 . S
O6 C17 1.226 1_655 S
O7 Zn5 1.932 . S
O7 C17 1.307 . S
O8 Zn1 1.919 1_655 S
O8 C19 1.253 . S
O9 Zn3 1.941 . S
O9 C19 1.283 . S
O10 Zn3 1.965 . S
O10 C18 1.303 . S
O11 Zn4 1.938 1_655 S
O11 C18 1.247 . S
O12 Zn4 1.906 . S
O12 C20 1.304 . S
O13 Zn1 1.924 . S
O13 C21 1.311 . S
O14 Zn5 1.977 . S
O14 C20 1.272 . S
O15 Zn5 1.910 . S
O15 C21 1.231 . S
C16 O0 1.225 1_455 S
C16 O22 1.298 . S
C17 O6 1.226 1_455 S
C17 O7 1.307 . S
C18 O10 1.303 . S
C18 O11 1.247 . S
C19 O8 1.253 . S
C19 O9 1.283 . S
C20 O12 1.304 . S
C20 O14 1.272 . S
C21 O13 1.311 . S
C21 O15 1.231 . S
O22 Zn4 1.953 . S
O22 C16 1.298 . S
O23 Zn24 1.953 . S
O23 C39 1.225 . S
Zn24 O23 1.953 . S
Zn24 O25 1.949 . S
Zn24 O31 1.919 . S
Zn24 O36 1.924 1_545 S
O25 Zn24 1.949 . S
O25 Zn26 1.923 . S
O25 Zn27 1.950 . S
O25 Zn28 1.945 1_545 S
Zn26 O25 1.923 . S
Zn26 O29 1.933 . S
Zn26 O32 1.941 . S
Zn26 O33 1.965 . S
Zn27 O25 1.950 . S
Zn27 O34 1.938 . S
Zn27 O35 1.906 1_545 S
Zn27 O45 1.953 1_545 S
Zn28 O25 1.945 1_565 S
Zn28 O30 1.932 . S
Zn28 O37 1.977 . S
Zn28 O38 1.910 . S
O29 Zn26 1.933 . S
O29 C40 1.226 . S
O30 Zn28 1.932 . S
O30 C40 1.307 1_565 S
O31 Zn24 1.919 . S
O31 C42 1.253 . S
O32 Zn26 1.941 . S
O32 C42 1.283 . S
O33 Zn26 1.965 . S
O33 C41 1.303 . S
O34 Zn27 1.938 . S
O34 C41 1.247 . S
O35 Zn27 1.906 1_565 S
O35 C43 1.304 . S
O36 Zn24 1.924 1_565 S
O36 C44 1.311 . S
O37 Zn28 1.977 . S
O37 C43 1.272 . S
O38 Zn28 1.910 . S
O38 C44 1.231 . S
C39 O23 1.225 . S
C39 O45 1.298 1_545 S
C40 O29 1.226 . S
C40 O30 1.307 1_545 S
C41 O33 1.303 . S
C41 O34 1.247 . S
C42 O31 1.253 . S
C42 O32 1.283 . S
C43 O35 1.304 . S
C43 O37 1.272 . S
C44 O36 1.311 . S
C44 O38 1.231 . S
O45 Zn27 1.953 1_565 S
O45 C39 1.298 1_565 S
O46 Zn47 1.953 . S
O46 C62 1.225 . S
Zn47 O46 1.953 . S
Zn47 O48 1.949 . S
Zn47 O54 1.919 . S
Zn47 O59 1.924 . S
O48 Zn47 1.949 . S
O48 Zn49 1.923 . S
O48 Zn50 1.950 . S
O48 Zn51 1.945 . S
Zn49 O48 1.923 . S
Zn49 O52 1.933 . S
Zn49 O55 1.941 . S
Zn49 O56 1.965 . S
Zn50 O48 1.950 . S
Zn50 O57 1.938 . S
Zn50 O58 1.906 . S
Zn50 O68 1.953 . S
Zn51 O48 1.945 . S
Zn51 O53 1.932 . S
Zn51 O60 1.977 . S
Zn51 O61 1.910 . S
O52 Zn49 1.933 . S
O52 C63 1.226 . S
O53 Zn51 1.932 . S
O53 C63 1.307 . S
O54 Zn47 1.919 . S
O54 C65 1.253 . S
O55 Zn49 1.941 . S
O55 C65 1.283 . S
O56 Zn49 1.965 . S
O56 C64 1.303 . S
O57 Zn50 1.938 . S
O57 C64 1.247 . S
O58 Zn50 1.906 . S
O58 C66 1.304 . S
O59 Zn47 1.924 . S
O59 C67 1.311 . S
O60 Zn51 1.977 . S
O60 C66 1.272 . S
O61 Zn51 1.910 . S
O61 C67 1.231 . S
C62 O46 1.225 . S
C62 O68 1.298 . S
C63 O52 1.226 . S
C63 O53 1.307 . S
C64 O56 1.303 . S
C64 O57 1.247 . S
C65 O54 1.253 . S
C65 O55 1.283 . S
C66 O58 1.304 . S
C66 O60 1.272 . S
C67 O59 1.311 . S
C67 O61 1.231 . S
O68 Zn50 1.953 . S
O68 C62 1.298 . S
C69 C70 1.386 . S
C69 C71 1.397 . S
C69 H93 0.931 . S
C70 C69 1.386 . S
C70 C74 1.397 1_545 S
C71 C69 1.397 . S
C71 C72 1.384 . S
C71 H94 0.930 . S
C72 C71 1.384 . S
C72 C73 1.377 1_545 S
C72 C75 1.481 . S
C73 C72 1.377 1_565 S
C73 C74 1.389 . S
C73 H95 0.929 . S
C74 C70 1.397 1_565 S
C74 C73 1.389 . S
C74 H96 0.931 . S
C75 C72 1.481 . S
C75 C76 1.387 . S
C75 C80 1.390 1_545 S
C76 C75 1.387 . S
C76 C77 1.401 . S
C76 H97 0.930 . S
C77 C76 1.401 . S
C77 C78 1.376 . S
C77 C86 1.511 . S
C78 C77 1.376 . S
C78 C79 1.392 1_545 S
C78 H99 0.931 . S
C79 C78 1.392 1_565 S
C79 C80 1.361 . S
C79 C81 1.500 . S
C80 C75 1.390 1_565 S
C80 C79 1.361 . S
C80 H98 0.931 . S
C81 C79 1.500 . S
C81 C82 1.371 . S
C81 C83 1.365 . S
C82 C81 1.371 . S
C82 C92 1.386 . S
C82 H100 0.931 . S
C83 C81 1.365 . S
C83 C84 1.409 . S
C83 H101 0.929 . S
C84 C83 1.409 . S
C84 C85 1.380 . S
C84 H102 0.930 . S
C85 C84 1.380 . S
C85 C92 1.357 . S
C86 C77 1.511 . S
C86 C87 1.341 . S
C86 C88 1.371 . S
C87 C86 1.341 . S
C87 C91 1.394 . S
C87 H103 0.930 . S
C88 C86 1.371 . S
C88 C89 1.392 . S
C88 H104 0.931 . S
C89 C88 1.392 . S
C89 C90 1.331 . S
C89 H107 0.932 . S
C90 C89 1.331 . S
C90 C91 1.336 . S
C91 C87 1.394 . S
C91 C90 1.336 . S
C91 H106 0.929 . S
C92 C82 1.386 . S
C92 C85 1.357 . S
C92 H105 0.928 . S
H93 C69 0.931 . S
H94 C71 0.930 . S
H95 C73 0.929 . S
H96 C74 0.931 . S
H97 C76 0.930 . S
H98 C80 0.931 . S
H99 C78 0.931 . S
H100 C82 0.931 . S
H101 C83 0.929 . S
H102 C84 0.930 . S
H103 C87 0.930 . S
H104 C88 0.931 . S
H105 C92 0.928 . S
H106 C91 0.929 . S
H107 C89 0.932 . S
C108 C109 1.386 . S
C108 C110 1.397 . S
C108 H132 0.931 . S
C109 C108 1.386 . S
C109 C113 1.397 . S
C110 C108 1.397 . S
C110 C111 1.384 . S
C110 H133 0.930 . S
C111 C110 1.384 . S
C111 C112 1.377 . S
C111 C114 1.481 . S
C112 C111 1.377 . S
C112 C113 1.389 . S
C112 H134 0.929 . S
C113 C109 1.397 . S
C113 C112 1.389 . S
C113 H135 0.931 . S
C114 C111 1.481 . S
C114 C115 1.387 . S
C114 C119 1.390 . S
C115 C114 1.387 . S
C115 C116 1.401 . S
C115 H136 0.930 . S
C116 C115 1.401 . S
C116 C117 1.376 . S
C116 C125 1.511 . S
C117 C116 1.376 . S
C117 C118 1.392 . S
C117 H138 0.931 . S
C118 C117 1.392 . S
C118 C119 1.361 . S
C118 C120 1.500 . S
C119 C114 1.390 . S
C119 C118 1.361 . S
C119 H137 0.931 . S
C120 C118 1.500 . S
C120 C121 1.371 . S
C120 C122 1.365 . S
C121 C120 1.371 . S
C121 C131 1.386 . S
C121 H139 0.931 . S
C122 C120 1.365 . S
C122 C123 1.409 . S
C122 H140 0.929 . S
C123 C122 1.409 . S
C123 C124 1.380 . S
C123 H141 0.930 . S
C124 C123 1.380 . S
C124 C131 1.357 . S
C125 C116 1.511 . S
C125 C126 1.341 . S
C125 C127 1.371 . S
C126 C125 1.341 . S
C126 C130 1.394 . S
C126 H142 0.930 . S
C127 C125 1.371 . S
C127 C128 1.392 . S
C127 H143 0.931 . S
C128 C127 1.392 . S
C128 C129 1.331 . S
C128 H146 0.932 . S
C129 C128 1.331 . S
C129 C130 1.336 . S
C130 C126 1.394 . S
C130 C129 1.336 . S
C130 H145 0.929 . S
C131 C121 1.386 . S
C131 C124 1.357 . S
C131 H144 0.928 . S
H132 C108 0.931 . S
H133 C110 0.930 . S
H134 C112 0.929 . S
H135 C113 0.931 . S
H136 C115 0.930 . S
H137 C119 0.931 . S
H138 C117 0.931 . S
H139 C121 0.931 . S
H140 C122 0.929 . S
H141 C123 0.930 . S
H142 C126 0.930 . S
H143 C127 0.931 . S
H144 C131 0.928 . S
H145 C130 0.929 . S
H146 C128 0.932 . S
C147 C148 1.386 . S
C147 C149 1.397 . S
C147 H171 0.931 . S
C148 C147 1.386 . S
C148 C152 1.397 1_455 S
C149 C147 1.397 . S
C149 C150 1.384 . S
C149 H172 0.930 . S
C150 C149 1.384 . S
C150 C151 1.377 1_455 S
C150 C153 1.481 . S
C151 C150 1.377 1_655 S
C151 C152 1.389 . S
C151 H173 0.929 . S
C152 C148 1.397 1_655 S
C152 C151 1.389 . S
C152 H174 0.931 . S
C153 C150 1.481 . S
C153 C154 1.387 . S
C153 C158 1.390 1_455 S
C154 C153 1.387 . S
C154 C155 1.401 . S
C154 H175 0.930 . S
C155 C154 1.401 . S
C155 C156 1.376 . S
C155 C164 1.511 . S
C156 C155 1.376 . S
C156 C157 1.392 1_455 S
C156 H177 0.931 . S
C157 C156 1.392 1_655 S
C157 C158 1.361 . S
C157 C159 1.500 . S
C158 C153 1.390 1_655 S
C158 C157 1.361 . S
C158 H176 0.931 . S
C159 C157 1.500 . S
C159 C160 1.371 . S
C159 C161 1.365 . S
C160 C159 1.371 . S
C160 C170 1.386 . S
C160 H178 0.931 . S
C161 C159 1.365 . S
C161 C162 1.409 . S
C161 H179 0.929 . S
C162 C161 1.409 . S
C162 C163 1.380 . S
C162 H180 0.930 . S
C163 C162 1.380 . S
C163 C170 1.357 . S
C164 C155 1.511 . S
C164 C165 1.341 . S
C164 C166 1.371 . S
C165 C164 1.341 . S
C165 C169 1.394 . S
C165 H181 0.930 . S
C166 C164 1.371 . S
C166 C167 1.392 . S
C166 H182 0.931 . S
C167 C166 1.392 . S
C167 C168 1.331 . S
C167 H185 0.932 . S
C168 C167 1.331 . S
C168 C169 1.336 . S
C169 C165 1.394 . S
C169 C168 1.336 . S
C169 H184 0.929 . S
C170 C160 1.386 . S
C170 C163 1.357 . S
C170 H183 0.928 . S
H171 C147 0.931 . S
H172 C149 0.930 . S
H173 C151 0.929 . S
H174 C152 0.931 . S
H175 C154 0.930 . S
H176 C158 0.931 . S
H177 C156 0.931 . S
H178 C160 0.931 . S
H179 C161 0.929 . S
H180 C162 0.930 . S
H181 C165 0.930 . S
H182 C166 0.931 . S
H183 C170 0.928 . S
H184 C169 0.929 . S
H185 C167 0.932 . S
C186 C187 1.386 1_655 S
C186 C188 1.397 . S
C186 H210 0.931 . S
C187 C186 1.386 1_455 S
C187 C191 1.397 . S
C188 C186 1.397 . S
C188 C189 1.384 1_655 S
C188 H211 0.930 . S
C189 C188 1.384 1_455 S
C189 C190 1.377 . S
C189 C192 1.481 . S
C190 C189 1.377 . S
C190 C191 1.389 . S
C190 H212 0.929 . S
C191 C187 1.397 . S
C191 C190 1.389 . S
C191 H213 0.931 . S
C192 C189 1.481 . S
C192 C193 1.387 1_455 S
C192 C197 1.390 . S
C193 C192 1.387 1_655 S
C193 C194 1.401 . S
C193 H214 0.930 . S
C194 C193 1.401 . S
C194 C195 1.376 1_655 S
C194 C203 1.511 . S
C195 C194 1.376 1_455 S
C195 C196 1.392 . S
C195 H216 0.931 . S
C196 C195 1.392 . S
C196 C197 1.361 . S
C196 C198 1.500 . S
C197 C192 1.390 . S
C197 C196 1.361 . S
C197 H215 0.931 . S
C198 C196 1.500 . S
C198 C199 1.371 . S
C198 C200 1.365 . S
C199 C198 1.371 . S
C199 C209 1.386 . S
C199 H217 0.931 . S
C200 C198 1.365 . S
C200 C201 1.409 . S
C200 H218 0.929 . S
C201 C200 1.409 . S
C201 C202 1.380 . S
C201 H219 0.930 . S
C202 C201 1.380 . S
C202 C209 1.357 . S
C203 C194 1.511 . S
C203 C204 1.341 . S
C203 C205 1.371 . S
C204 C203 1.341 . S
C204 C208 1.394 . S
C204 H220 0.930 . S
C205 C203 1.371 . S
C205 C206 1.392 . S
C205 H221 0.931 . S
C206 C205 1.392 . S
C206 C207 1.331 . S
C206 H224 0.932 . S
C207 C206 1.331 . S
C207 C208 1.336 . S
C208 C204 1.394 . S
C208 C207 1.336 . S
C208 H223 0.929 . S
C209 C199 1.386 . S
C209 C202 1.357 . S
C209 H222 0.928 . S
H210 C186 0.931 . S
H211 C188 0.930 . S
H212 C190 0.929 . S
H213 C191 0.931 . S
H214 C193 0.930 . S
H215 C197 0.931 . S
H216 C195 0.931 . S
H217 C199 0.931 . S
H218 C200 0.929 . S
H219 C201 0.930 . S
H220 C204 0.930 . S
H221 C205 0.931 . S
H222 C209 0.928 . S
H223 C208 0.929 . S
H224 C206 0.932 . S
C225 C226 1.386 1_565 S
C225 C227 1.397 . S
C225 H249 0.931 . S
C226 C225 1.386 1_545 S
C226 C230 1.397 . S
C227 C225 1.397 . S
C227 C228 1.384 1_565 S
C227 H250 0.930 . S
C228 C227 1.384 1_545 S
C228 C229 1.377 . S
C228 C231 1.481 . S
C229 C228 1.377 . S
C229 C230 1.389 . S
C229 H251 0.929 . S
C230 C226 1.397 . S
C230 C229 1.389 . S
C230 H252 0.931 . S
C231 C228 1.481 . S
C231 C232 1.387 1_545 S
C231 C236 1.390 . S
C232 C231 1.387 1_565 S
C232 C233 1.401 . S
C232 H253 0.930 . S
C233 C232 1.401 . S
C233 C234 1.376 1_565 S
C233 C242 1.511 . S
C234 C233 1.376 1_545 S
C234 C235 1.392 . S
C234 H255 0.931 . S
C235 C234 1.392 . S
C235 C236 1.361 . S
C235 C237 1.500 . S
C236 C231 1.390 . S
C236 C235 1.361 . S
C236 H254 0.931 . S
C237 C235 1.500 . S
C237 C238 1.371 . S
C237 C239 1.365 . S
C238 C237 1.371 . S
C238 C248 1.386 . S
C238 H256 0.931 . S
C239 C237 1.365 . S
C239 C240 1.409 . S
C239 H257 0.929 . S
C240 C239 1.409 . S
C240 C241 1.380 . S
C240 H258 0.930 . S
C241 C240 1.380 . S
C241 C248 1.357 . S
C242 C233 1.511 . S
C242 C243 1.341 . S
C242 C244 1.371 . S
C243 C242 1.341 . S
C243 C247 1.394 . S
C243 H259 0.930 . S
C244 C242 1.371 . S
C244 C245 1.392 . S
C244 H260 0.931 . S
C245 C244 1.392 . S
C245 C246 1.331 . S
C245 H263 0.932 . S
C246 C245 1.331 . S
C246 C247 1.336 . S
C247 C243 1.394 . S
C247 C246 1.336 . S
C247 H262 0.929 . S
C248 C238 1.386 . S
C248 C241 1.357 . S
C248 H261 0.928 . S
H249 C225 0.931 . S
H250 C227 0.930 . S
H251 C229 0.929 . S
H252 C230 0.931 . S
H253 C232 0.930 . S
H254 C236 0.931 . S
H255 C234 0.931 . S
H256 C238 0.931 . S
H257 C239 0.929 . S
H258 C240 0.930 . S
H259 C243 0.930 . S
H260 C244 0.931 . S
H261 C248 0.928 . S
H262 C247 0.929 . S
H263 C245 0.932 . S
C264 C265 1.386 . S
C264 C266 1.397 . S
C264 H288 0.931 . S
C265 C264 1.386 . S
C265 C269 1.397 . S
C266 C264 1.397 . S
C266 C267 1.384 . S
C266 H289 0.930 . S
C267 C266 1.384 . S
C267 C268 1.377 . S
C267 C270 1.481 . S
C268 C267 1.377 . S
C268 C269 1.389 . S
C268 H290 0.929 . S
C269 C265 1.397 . S
C269 C268 1.389 . S
C269 H291 0.931 . S
C270 C267 1.481 . S
C270 C271 1.387 . S
C270 C275 1.390 . S
C271 C270 1.387 . S
C271 C272 1.401 . S
C271 H292 0.930 . S
C272 C271 1.401 . S
C272 C273 1.376 . S
C272 C281 1.511 . S
C273 C272 1.376 . S
C273 C274 1.392 . S
C273 H294 0.931 . S
C274 C273 1.392 . S
C274 C275 1.361 . S
C274 C276 1.500 . S
C275 C270 1.390 . S
C275 C274 1.361 . S
C275 H293 0.931 . S
C276 C274 1.500 . S
C276 C277 1.371 . S
C276 C278 1.365 . S
C277 C276 1.371 . S
C277 C287 1.386 . S
C277 H295 0.931 . S
C278 C276 1.365 . S
C278 C279 1.409 . S
C278 H296 0.929 . S
C279 C278 1.409 . S
C279 C280 1.380 . S
C279 H297 0.930 . S
C280 C279 1.380 . S
C280 C287 1.357 . S
C281 C272 1.511 . S
C281 C282 1.341 . S
C281 C283 1.371 . S
C282 C281 1.341 . S
C282 C286 1.394 . S
C282 H298 0.930 . S
C283 C281 1.371 . S
C283 C284 1.392 . S
C283 H299 0.931 . S
C284 C283 1.392 . S
C284 C285 1.331 . S
C284 H302 0.932 . S
C285 C284 1.331 . S
C285 C286 1.336 . S
C286 C282 1.394 . S
C286 C285 1.336 . S
C286 H301 0.929 . S
C287 C277 1.386 . S
C287 C280 1.357 . S
C287 H300 0.928 . S
H288 C264 0.931 . S
H289 C266 0.930 . S
H290 C268 0.929 . S
H291 C269 0.931 . S
H292 C271 0.930 . S
H293 C275 0.931 . S
H294 C273 0.931 . S
H295 C277 0.931 . S
H296 C278 0.929 . S
H297 C279 0.930 . S
H298 C282 0.930 . S
H299 C283 0.931 . S
H300 C287 0.928 . S
H301 C286 0.929 . S
H302 C284 0.932 . S
H303 C311 0.950 . S
H304 C316 0.950 . S
H305 C313 0.950 . S
H306 C315 0.950 . S
H307 C317 0.950 . S
H308 C319 0.950 . S
H309 C321 0.950 . S
H310 C322 0.950 . S
C311 H303 0.950 . S
C311 C312 1.386 . S
C311 C313 1.391 . S
C312 C311 1.386 . S
C312 C316 1.393 . S
C313 H305 0.950 . S
C313 C311 1.391 . S
C313 C314 1.400 . S
C314 C313 1.400 . S
C314 C315 1.398 . S
C314 C320 1.491 . S
C315 H306 0.950 . S
C315 C314 1.398 . S
C315 C316 1.391 . S
C316 H304 0.950 . S
C316 C312 1.393 . S
C316 C315 1.391 . S
C317 H307 0.950 . S
C317 C318 1.386 . S
C317 C319 1.391 . S
C318 C317 1.386 . S
C318 C322 1.393 . S
C319 H308 0.950 . S
C319 C317 1.391 . S
C319 C320 1.400 . S
C320 C314 1.491 . S
C320 C319 1.400 . S
C320 C321 1.398 . S
C321 H309 0.950 . S
C321 C320 1.398 . S
C321 C322 1.391 . S
C322 H310 0.950 . S
C322 C318 1.393 . S
C322 C321 1.391 . S
H323 C331 0.950 . S
H324 C336 0.950 . S
H325 C333 0.950 . S
H326 C335 0.950 . S
H327 C337 0.950 . S
H328 C339 0.950 . S
H329 C341 0.950 . S
H330 C342 0.950 . S
C331 H323 0.950 . S
C331 C332 1.386 . S
C331 C333 1.391 . S
C332 C331 1.386 . S
C332 C336 1.393 . S
C333 H325 0.950 . S
C333 C331 1.391 . S
C333 C334 1.400 . S
C334 C333 1.400 . S
C334 C335 1.398 . S
C334 C340 1.491 . S
C335 H326 0.950 . S
C335 C334 1.398 . S
C335 C336 1.391 . S
C336 H324 0.950 . S
C336 C332 1.393 . S
C336 C335 1.391 . S
C337 H327 0.950 . S
C337 C338 1.386 . S
C337 C339 1.391 . S
C338 C337 1.386 . S
C338 C342 1.393 . S
C339 H328 0.950 . S
C339 C337 1.391 . S
C339 C340 1.400 . S
C340 C334 1.491 . S
C340 C339 1.400 . S
C340 C341 1.398 . S
C341 H329 0.950 . S
C341 C340 1.398 . S
C341 C342 1.391 . S
C342 H330 0.950 . S
C342 C338 1.393 . S
C342 C341 1.391 . S
H343 C351 0.950 . S
H344 C356 0.950 . S
H345 C353 0.950 . S
H346 C355 0.950 . S
H347 C357 0.950 . S
H348 C359 0.950 . S
H349 C361 0.950 . S
H350 C362 0.950 . S
C351 H343 0.950 . S
C351 C352 1.386 . S
C351 C353 1.391 . S
C352 C351 1.386 . S
C352 C356 1.393 . S
C353 H345 0.950 . S
C353 C351 1.391 . S
C353 C354 1.400 . S
C354 C353 1.400 . S
C354 C355 1.398 . S
C354 C360 1.491 . S
C355 H346 0.950 . S
C355 C354 1.398 . S
C355 C356 1.391 . S
C356 H344 0.950 . S
C356 C352 1.393 . S
C356 C355 1.391 . S
C357 H347 0.950 . S
C357 C358 1.386 . S
C357 C359 1.391 . S
C358 C357 1.386 . S
C358 C362 1.393 . S
C359 H348 0.950 . S
C359 C357 1.391 . S
C359 C360 1.400 . S
C360 C354 1.491 . S
C360 C359 1.400 . S
C360 C361 1.398 . S
C361 H349 0.950 . S
C361 C360 1.398 . S
C361 C362 1.391 . S
C362 H350 0.950 . S
C362 C358 1.393 . S
C362 C361 1.391 . S
H363 C371 0.950 . S
H364 C376 0.950 . S
H365 C373 0.950 . S
H366 C375 0.950 . S
H367 C377 0.950 . S
H368 C379 0.950 . S
H369 C381 0.950 . S
H370 C382 0.950 . S
C371 H363 0.950 . S
C371 C372 1.386 . S
C371 C373 1.391 . S
C372 C371 1.386 . S
C372 C376 1.393 . S
C373 H365 0.950 . S
C373 C371 1.391 . S
C373 C374 1.400 . S
C374 C373 1.400 . S
C374 C375 1.398 . S
C374 C380 1.491 . S
C375 H366 0.950 . S
C375 C374 1.398 . S
C375 C376 1.391 . S
C376 H364 0.950 . S
C376 C372 1.393 . S
C376 C375 1.391 . S
C377 H367 0.950 . S
C377 C378 1.386 . S
C377 C379 1.391 . S
C378 C377 1.386 . S
C378 C382 1.393 . S
C379 H368 0.950 . S
C379 C377 1.391 . S
C379 C380 1.400 . S
C380 C374 1.491 . S
C380 C379 1.400 . S
C380 C381 1.398 . S
C381 H369 0.950 . S
C381 C380 1.398 . S
C381 C382 1.391 . S
C382 H370 0.950 . S
C382 C378 1.393 . S
C382 C381 1.391 . S
H383 C391 0.950 . S
H384 C396 0.950 . S
H385 C393 0.950 . S
H386 C395 0.950 . S
H387 C397 0.950 . S
H388 C399 0.950 . S
H389 C401 0.950 . S
H390 C402 0.950 . S
C391 H383 0.950 . S
C391 C392 1.386 . S
C391 C393 1.391 . S
C392 C391 1.386 . S
C392 C396 1.393 . S
C393 H385 0.950 . S
C393 C391 1.391 . S
C393 C394 1.400 . S
C394 C393 1.400 . S
C394 C395 1.398 . S
C394 C400 1.491 . S
C395 H386 0.950 . S
C395 C394 1.398 . S
C395 C396 1.391 . S
C396 H384 0.950 . S
C396 C392 1.393 . S
C396 C395 1.391 . S
C397 H387 0.950 . S
C397 C398 1.386 . S
C397 C399 1.391 . S
C398 C397 1.386 . S
C398 C402 1.393 . S
C399 H388 0.950 . S
C399 C397 1.391 . S
C399 C400 1.400 . S
C400 C394 1.491 . S
C400 C399 1.400 . S
C400 C401 1.398 . S
C401 H389 0.950 . S
C401 C400 1.398 . S
C401 C402 1.391 . S
C402 H390 0.950 . S
C402 C398 1.393 . S
C402 C401 1.391 . S
H403 C411 0.950 . S
H404 C416 0.950 . S
H405 C413 0.950 . S
H406 C415 0.950 . S
H407 C417 0.950 . S
H408 C419 0.950 . S
H409 C421 0.950 . S
H410 C422 0.950 . S
C411 H403 0.950 . S
C411 C412 1.386 . S
C411 C413 1.391 . S
C412 C411 1.386 . S
C412 C416 1.393 . S
C413 H405 0.950 . S
C413 C411 1.391 . S
C413 C414 1.400 . S
C414 C413 1.400 . S
C414 C415 1.398 . S
C414 C420 1.491 . S
C415 H406 0.950 . S
C415 C414 1.398 . S
C415 C416 1.391 . S
C416 H404 0.950 . S
C416 C412 1.393 . S
C416 C415 1.391 . S
C417 H407 0.950 . S
C417 C418 1.386 . S
C417 C419 1.391 . S
C418 C417 1.386 . S
C418 C422 1.393 . S
C419 H408 0.950 . S
C419 C417 1.391 . S
C419 C420 1.400 . S
C420 C414 1.491 . S
C420 C419 1.400 . S
C420 C421 1.398 . S
C421 H409 0.950 . S
C421 C420 1.398 . S
C421 C422 1.391 . S
C422 H410 0.950 . S
C422 C418 1.393 . S
C422 C421 1.391 . S
H423 C431 0.950 . S
H424 C436 0.950 . S
H425 C433 0.950 . S
H426 C435 0.950 . S
H427 C437 0.950 . S
H428 C439 0.950 . S
H429 C441 0.950 . S
H430 C442 0.950 . S
C431 H423 0.950 . S
C431 C432 1.386 . S
C431 C433 1.391 . S
C432 C431 1.386 . S
C432 C436 1.393 . S
C433 H425 0.950 . S
C433 C431 1.391 . S
C433 C434 1.400 . S
C434 C433 1.400 . S
C434 C435 1.398 . S
C434 C440 1.491 . S
C435 H426 0.950 . S
C435 C434 1.398 . S
C435 C436 1.391 . S
C436 H424 0.950 . S
C436 C432 1.393 . S
C436 C435 1.391 . S
C437 H427 0.950 . S
C437 C438 1.386 . S
C437 C439 1.391 . S
C438 C437 1.386 . S
C438 C442 1.393 . S
C439 H428 0.950 . S
C439 C437 1.391 . S
C439 C440 1.400 . S
C440 C434 1.491 . S
C440 C439 1.400 . S
C440 C441 1.398 . S
C441 H429 0.950 . S
C441 C440 1.398 . S
C441 C442 1.391 . S
C442 H430 0.950 . S
C442 C438 1.393 . S
C442 C441 1.391 . S
H443 C451 0.950 . S
H444 C456 0.950 . S
H445 C453 0.950 . S
H446 C455 0.950 . S
H447 C457 0.950 . S
H448 C459 0.950 . S
H449 C461 0.950 . S
H450 C462 0.950 . S
C451 H443 0.950 . S
C451 C452 1.386 . S
C451 C453 1.391 . S
C452 C451 1.386 . S
C452 C456 1.393 . S
C453 H445 0.950 . S
C453 C451 1.391 . S
C453 C454 1.400 . S
C454 C453 1.400 . S
C454 C455 1.398 . S
C454 C460 1.491 . S
C455 H446 0.950 . S
C455 C454 1.398 . S
C455 C456 1.391 . S
C456 H444 0.950 . S
C456 C452 1.393 . S
C456 C455 1.391 . S
C457 H447 0.950 . S
C457 C458 1.386 . S
C457 C459 1.391 . S
C458 C457 1.386 . S
C458 C462 1.393 . S
C459 H448 0.950 . S
C459 C457 1.391 . S
C459 C460 1.400 . S
C460 C454 1.491 . S
C460 C459 1.400 . S
C460 C461 1.398 . S
C461 H449 0.950 . S
C461 C460 1.398 . S
C461 C462 1.391 . S
C462 H450 0.950 . S
C462 C458 1.393 . S
C462 C461 1.391 . S
H463 C471 0.950 . S
H464 C476 0.950 . S
H465 C473 0.950 . S
H466 C475 0.950 . S
H467 C477 0.950 . S
H468 C479 0.950 . S
H469 C481 0.950 . S
H470 C482 0.950 . S
C471 H463 0.950 . S
C471 C472 1.386 . S
C471 C473 1.391 . S
C472 C471 1.386 . S
C472 C476 1.393 . S
C473 H465 0.950 . S
C473 C471 1.391 . S
C473 C474 1.400 . S
C474 C473 1.400 . S
C474 C475 1.398 . S
C474 C480 1.491 . S
C475 H466 0.950 . S
C475 C474 1.398 . S
C475 C476 1.391 . S
C476 H464 0.950 . S
C476 C472 1.393 . S
C476 C475 1.391 . S
C477 H467 0.950 . S
C477 C478 1.386 . S
C477 C479 1.391 . S
C478 C477 1.386 . S
C478 C482 1.393 . S
C479 H468 0.950 . S
C479 C477 1.391 . S
C479 C480 1.400 . S
C480 C474 1.491 . S
C480 C479 1.400 . S
C480 C481 1.398 . S
C481 H469 0.950 . S
C481 C480 1.398 . S
C481 C482 1.391 . S
C482 H470 0.950 . S
C482 C478 1.393 . S
C482 C481 1.391 . S
H483 C491 0.950 . S
H484 C496 0.950 . S
H485 C493 0.950 . S
H486 C495 0.950 . S
H487 C497 0.950 . S
H488 C499 0.950 . S
H489 C501 0.950 . S
H490 C502 0.950 . S
C491 H483 0.950 . S
C491 C492 1.386 . S
C491 C493 1.391 . S
C492 C491 1.386 . S
C492 C496 1.393 . S
C493 H485 0.950 . S
C493 C491 1.391 . S
C493 C494 1.400 . S
C494 C493 1.400 . S
C494 C495 1.398 . S
C494 C500 1.491 . S
C495 H486 0.950 . S
C495 C494 1.398 . S
C495 C496 1.391 . S
C496 H484 0.950 . S
C496 C492 1.393 . S
C496 C495 1.391 . S
C497 H487 0.950 . S
C497 C498 1.386 . S
C497 C499 1.391 . S
C498 C497 1.386 . S
C498 C502 1.393 . S
C499 H488 0.950 . S
C499 C497 1.391 . S
C499 C500 1.400 . S
C500 C494 1.491 . S
C500 C499 1.400 . S
C500 C501 1.398 . S
C501 H489 0.950 . S
C501 C500 1.398 . S
C501 C502 1.391 . S
C502 H490 0.950 . S
C502 C498 1.393 . S
C502 C501 1.391 . S
H503 C511 0.950 . S
H504 C516 0.950 . S
H505 C513 0.950 . S
H506 C515 0.950 . S
H507 C517 0.950 . S
H508 C519 0.950 . S
H509 C521 0.950 . S
H510 C522 0.950 . S
C511 H503 0.950 . S
C511 C512 1.386 . S
C511 C513 1.391 . S
C512 C511 1.386 . S
C512 C516 1.393 . S
C513 H505 0.950 . S
C513 C511 1.391 . S
C513 C514 1.400 . S
C514 C513 1.400 . S
C514 C515 1.398 . S
C514 C520 1.491 . S
C515 H506 0.950 . S
C515 C514 1.398 . S
C515 C516 1.391 . S
C516 H504 0.950 . S
C516 C512 1.393 . S
C516 C515 1.391 . S
C517 H507 0.950 . S
C517 C518 1.386 . S
C517 C519 1.391 . S
C518 C517 1.386 . S
C518 C522 1.393 . S
C519 H508 0.950 . S
C519 C517 1.391 . S
C519 C520 1.400 . S
C520 C514 1.491 . S
C520 C519 1.400 . S
C520 C521 1.398 . S
C521 H509 0.950 . S
C521 C520 1.398 . S
C521 C522 1.391 . S
C522 H510 0.950 . S
C522 C518 1.393 . S
C522 C521 1.391 . S
H523 C531 0.950 . S
H524 C536 0.950 . S
H525 C533 0.950 . S
H526 C535 0.950 . S
H527 C537 0.950 . S
H528 C539 0.950 . S
H529 C541 0.950 . S
H530 C542 0.950 . S
C531 H523 0.950 . S
C531 C532 1.386 . S
C531 C533 1.391 . S
C532 C531 1.386 . S
C532 C536 1.393 . S
C533 H525 0.950 . S
C533 C531 1.391 . S
C533 C534 1.400 . S
C534 C533 1.400 . S
C534 C535 1.398 . S
C534 C540 1.491 . S
C535 H526 0.950 . S
C535 C534 1.398 . S
C535 C536 1.391 . S
C536 H524 0.950 . S
C536 C532 1.393 . S
C536 C535 1.391 . S
C537 H527 0.950 . S
C537 C538 1.386 . S
C537 C539 1.391 . S
C538 C537 1.386 . S
C538 C542 1.393 . S
C539 H528 0.950 . S
C539 C537 1.391 . S
C539 C540 1.400 . S
C540 C534 1.491 . S
C540 C539 1.400 . S
C540 C541 1.398 . S
C541 H529 0.950 . S
C541 C540 1.398 . S
C541 C542 1.391 . S
C542 H530 0.950 . S
C542 C538 1.393 . S
C542 C541 1.391 . S
H543 C551 0.950 . S
H544 C556 0.950 . S
H545 C553 0.950 . S
H546 C555 0.950 . S
H547 C557 0.950 . S
H548 C559 0.950 . S
H549 C561 0.950 . S
H550 C562 0.950 . S
C551 H543 0.950 . S
C551 C552 1.386 1_655 S
C551 C553 1.391 . S
C552 C551 1.386 1_455 S
C552 C556 1.393 . S
C553 H545 0.950 . S
C553 C551 1.391 . S
C553 C554 1.400 1_655 S
C554 C553 1.400 1_455 S
C554 C555 1.398 . S
C554 C560 1.491 . S
C555 H546 0.950 . S
C555 C554 1.398 . S
C555 C556 1.391 . S
C556 H544 0.950 . S
C556 C552 1.393 . S
C556 C555 1.391 . S
C557 H547 0.950 . S
C557 C558 1.386 . S
C557 C559 1.391 . S
C558 C557 1.386 . S
C558 C562 1.393 1_455 S
C559 H548 0.950 . S
C559 C557 1.391 . S
C559 C560 1.400 . S
C560 C554 1.491 . S
C560 C559 1.400 . S
C560 C561 1.398 1_455 S
C561 H549 0.950 . S
C561 C560 1.398 1_655 S
C561 C562 1.391 . S
C562 H550 0.950 . S
C562 C558 1.393 1_655 S
C562 C561 1.391 . S
H563 C571 0.949 1_565 S
H564 C576 0.950 . S
H565 C573 0.950 . S
H566 C575 0.950 . S
H567 C577 0.950 . S
H568 C579 0.950 . S
H569 C581 0.950 . S
H570 C582 0.950 . S
C571 H563 0.949 1_545 S
C571 C572 1.386 . S
C571 C573 1.391 1_545 S
C572 C571 1.386 . S
C572 C576 1.393 . S
C573 H565 0.950 . S
C573 C571 1.391 1_565 S
C573 C574 1.400 1_565 S
C574 C573 1.400 1_545 S
C574 C575 1.398 . S
C574 C580 1.491 . S
C575 H566 0.950 . S
C575 C574 1.398 . S
C575 C576 1.391 . S
C576 H564 0.950 . S
C576 C572 1.393 . S
C576 C575 1.391 . S
C577 H567 0.950 . S
C577 C578 1.386 . S
C577 C579 1.391 . S
C578 C577 1.386 . S
C578 C582 1.393 1_545 S
C579 H568 0.950 . S
C579 C577 1.391 . S
C579 C580 1.400 . S
C580 C574 1.491 . S
C580 C579 1.400 . S
C580 C581 1.398 1_545 S
C581 H569 0.950 . S
C581 C580 1.398 1_565 S
C581 C582 1.391 . S
C582 H570 0.950 . S
C582 C578 1.393 1_565 S
C582 C581 1.391 . S
H583 C591 0.950 . S
H584 C596 0.950 . S
H585 C593 0.950 . S
H586 C595 0.950 . S
H587 C597 0.950 . S
H588 C599 0.950 . S
H589 C601 0.950 . S
H590 C602 0.950 . S
C591 H583 0.950 . S
C591 C592 1.386 . S
C591 C593 1.391 . S
C592 C591 1.386 . S
C592 C596 1.393 . S
C593 H585 0.950 . S
C593 C591 1.391 . S
C593 C594 1.400 . S
C594 C593 1.400 . S
C594 C595 1.398 . S
C594 C600 1.491 . S
C595 H586 0.950 . S
C595 C594 1.398 . S
C595 C596 1.391 . S
C596 H584 0.950 . S
C596 C592 1.393 . S
C596 C595 1.391 . S
C597 H587 0.950 . S
C597 C598 1.386 . S
C597 C599 1.391 . S
C598 C597 1.386 . S
C598 C602 1.393 . S
C599 H588 0.950 . S
C599 C597 1.391 . S
C599 C600 1.400 . S
C600 C594 1.491 . S
C600 C599 1.400 . S
C600 C601 1.398 . S
C601 H589 0.950 . S
C601 C600 1.398 . S
C601 C602 1.391 . S
C602 H590 0.950 . S
C602 C598 1.393 . S
C602 C601 1.391 . S
H603 C611 0.950 . S
H604 C616 0.950 . S
H605 C613 0.950 . S
H606 C615 0.950 . S
H607 C617 0.950 . S
H608 C619 0.950 . S
H609 C621 0.950 . S
H610 C622 0.950 . S
C611 H603 0.950 . S
C611 C612 1.386 1_565 S
C611 C613 1.391 . S
C612 C611 1.386 1_545 S
C612 C616 1.393 . S
C613 H605 0.950 . S
C613 C611 1.391 . S
C613 C614 1.400 1_565 S
C614 C613 1.400 1_545 S
C614 C615 1.398 . S
C614 C620 1.491 . S
C615 H606 0.950 . S
C615 C614 1.398 . S
C615 C616 1.391 . S
C616 H604 0.950 . S
C616 C612 1.393 . S
C616 C615 1.391 . S
C617 H607 0.950 . S
C617 C618 1.386 . S
C617 C619 1.391 . S
C618 C617 1.386 . S
C618 C622 1.393 1_545 S
C619 H608 0.950 . S
C619 C617 1.391 . S
C619 C620 1.400 . S
C620 C614 1.491 . S
C620 C619 1.400 . S
C620 C621 1.398 1_545 S
C621 H609 0.950 . S
C621 C620 1.398 1_565 S
C621 C622 1.391 . S
C622 H610 0.950 . S
C622 C618 1.393 1_565 S
C622 C621 1.391 . S
H623 C631 0.950 . S
H624 C636 0.950 . S
H625 C633 0.950 . S
H626 C635 0.950 . S
H627 C637 0.950 . S
H628 C639 0.950 . S
H629 C641 0.950 . S
H630 C642 0.950 . S
C631 H623 0.950 . S
C631 C632 1.386 . S
C631 C633 1.391 . S
C632 C631 1.386 . S
C632 C636 1.393 . S
C633 H625 0.950 . S
C633 C631 1.391 . S
C633 C634 1.400 . S
C634 C633 1.400 . S
C634 C635 1.398 . S
C634 C640 1.491 . S
C635 H626 0.950 . S
C635 C634 1.398 . S
C635 C636 1.391 . S
C636 H624 0.950 . S
C636 C632 1.393 . S
C636 C635 1.391 . S
C637 H627 0.950 . S
C637 C638 1.386 . S
C637 C639 1.391 . S
C638 C637 1.386 . S
C638 C642 1.393 . S
C639 H628 0.950 . S
C639 C637 1.391 . S
C639 C640 1.400 . S
C640 C634 1.491 . S
C640 C639 1.400 . S
C640 C641 1.398 . S
C641 H629 0.950 . S
C641 C640 1.398 . S
C641 C642 1.391 . S
C642 H630 0.950 . S
C642 C638 1.393 . S
C642 C641 1.391 . S
H643 C651 0.950 . S
H644 C656 0.950 . S
H645 C653 0.950 . S
H646 C655 0.950 . S
H647 C657 0.950 . S
H648 C659 0.950 . S
H649 C661 0.950 . S
H650 C662 0.950 . S
C651 H643 0.950 . S
C651 C652 1.386 . S
C651 C653 1.391 . S
C652 C651 1.386 . S
C652 C656 1.393 1_455 S
C653 H645 0.950 . S
C653 C651 1.391 . S
C653 C654 1.400 . S
C654 C653 1.400 . S
C654 C655 1.398 1_455 S
C654 C660 1.491 . S
C655 H646 0.950 . S
C655 C654 1.398 1_655 S
C655 C656 1.391 . S
C656 H644 0.950 . S
C656 C652 1.393 1_655 S
C656 C655 1.391 . S
C657 H647 0.950 . S
C657 C658 1.386 1_655 S
C657 C659 1.391 . S
C658 C657 1.386 1_455 S
C658 C662 1.393 . S
C659 H648 0.950 . S
C659 C657 1.391 . S
C659 C660 1.400 1_655 S
C660 C654 1.491 . S
C660 C659 1.400 1_455 S
C660 C661 1.398 . S
C661 H649 0.950 . S
C661 C660 1.398 . S
C661 C662 1.391 . S
C662 H650 0.950 . S
C662 C658 1.393 . S
C662 C661 1.391 . S
C312 C20 1.172 . S
C318 C280 1.194 . S
C332 C41 1.237 . S
C338 C207 1.233 . S
C352 C64 1.258 . S
C358 C246 1.252 . S
C372 C19 1.211 . S
C378 C285 1.252 . S
C398 C202 1.211 . S
C392 C44 1.213 . S
C418 C241 1.206 . S
C412 C67 1.210 . S
C432 C43 1.167 . S
C438 C129 1.203 . S
C452 C66 1.168 . S
C458 C163 1.194 . S
C472 C21 1.221 . S
C478 C85 1.217 . S
C498 C124 1.241 . S
C492 C42 1.199 . S
C518 C168 1.253 . S
C512 C65 1.212 . S
C532 C18 1.235 . S
C538 C90 1.226 . S
C558 C148 1.459 1_554 S
C552 C17 1.461 . S
C572 C39 1.455 . S
C578 C70 1.457 . S
C592 C62 1.475 . S
C598 C109 1.472 . S
C618 C226 1.441 . S
C612 C40 1.440 . S
C638 C265 1.462 1_556 S
C632 C63 1.459 . S
C652 C16 1.454 . S
C658 C187 1.456 . S
