# Generated by pormake.
# Topology the, (3,8)-cn, num edge types: 1
# Building blocks:
#     Node 0, Type 0, BuildingBlock: CUQRIR_clean_linker_1, # of connection points: 3
#     Node 1, Type 0, BuildingBlock: CUQRIR_clean_linker_1, # of connection points: 3
#     Node 2, Type 0, BuildingBlock: CUQRIR_clean_linker_1, # of connection points: 3
#     Node 3, Type 0, BuildingBlock: CUQRIR_clean_linker_1, # of connection points: 3
#     Node 4, Type 0, BuildingBlock: CUQRIR_clean_linker_1, # of connection points: 3
#     Node 5, Type 0, BuildingBlock: CUQRIR_clean_linker_1, # of connection points: 3
#     Node 6, Type 0, BuildingBlock: CUQRIR_clean_linker_1, # of connection points: 3
#     Node 7, Type 0, BuildingBlock: CUQRIR_clean_linker_1, # of connection points: 3
#     Node 8, Type 1, BuildingBlock: GIZVER_clean_sbu_0, # of connection points: 8
#     Node 9, Type 1, BuildingBlock: GIZVER_clean_sbu_0, # of connection points: 8
#     Node 10, Type 1, BuildingBlock: GIZVER_clean_sbu_0, # of connection points: 8
#     Edge 11, Type (0, 1), BuildingBlock: UVAHIK_clean_linker_0, # of connection points: 2
#     Edge 12, Type (0, 1), BuildingBlock: UVAHIK_clean_linker_0, # of connection points: 2
#     Edge 13, Type (0, 1), BuildingBlock: UVAHIK_clean_linker_0, # of connection points: 2
#     Edge 14, Type (0, 1), BuildingBlock: UVAHIK_clean_linker_0, # of connection points: 2
#     Edge 15, Type (0, 1), BuildingBlock: UVAHIK_clean_linker_0, # of connection points: 2
#     Edge 16, Type (0, 1), BuildingBlock: UVAHIK_clean_linker_0, # of connection points: 2
#     Edge 17, Type (0, 1), BuildingBlock: UVAHIK_clean_linker_0, # of connection points: 2
#     Edge 18, Type (0, 1), BuildingBlock: UVAHIK_clean_linker_0, # of connection points: 2
#     Edge 19, Type (0, 1), BuildingBlock: UVAHIK_clean_linker_0, # of connection points: 2
#     Edge 20, Type (0, 1), BuildingBlock: UVAHIK_clean_linker_0, # of connection points: 2
#     Edge 21, Type (0, 1), BuildingBlock: UVAHIK_clean_linker_0, # of connection points: 2
#     Edge 22, Type (0, 1), BuildingBlock: UVAHIK_clean_linker_0, # of connection points: 2
#     Edge 23, Type (0, 1), BuildingBlock: UVAHIK_clean_linker_0, # of connection points: 2
#     Edge 24, Type (0, 1), BuildingBlock: UVAHIK_clean_linker_0, # of connection points: 2
#     Edge 25, Type (0, 1), BuildingBlock: UVAHIK_clean_linker_0, # of connection points: 2
#     Edge 26, Type (0, 1), BuildingBlock: UVAHIK_clean_linker_0, # of connection points: 2
#     Edge 27, Type (0, 1), BuildingBlock: UVAHIK_clean_linker_0, # of connection points: 2
#     Edge 28, Type (0, 1), BuildingBlock: UVAHIK_clean_linker_0, # of connection points: 2
#     Edge 29, Type (0, 1), BuildingBlock: UVAHIK_clean_linker_0, # of connection points: 2
#     Edge 30, Type (0, 1), BuildingBlock: UVAHIK_clean_linker_0, # of connection points: 2
#     Edge 31, Type (0, 1), BuildingBlock: UVAHIK_clean_linker_0, # of connection points: 2
#     Edge 32, Type (0, 1), BuildingBlock: UVAHIK_clean_linker_0, # of connection points: 2
#     Edge 33, Type (0, 1), BuildingBlock: UVAHIK_clean_linker_0, # of connection points: 2
#     Edge 34, Type (0, 1), BuildingBlock: UVAHIK_clean_linker_0, # of connection points: 2
# Relax obj value: 0.076
# Max RMSD: 0.228
# Mean RMSD: 0.156
data_MOF--net-the--node1-GIZVER_clean_sbu_0--node2-CUQRIR_clean_linker_1--edge1-UVAHIK_clean_linker_0
_symmetry_space_group_name_H-M    P1
_symmetry_Int_Tables_number       1
_symmetry_cell_setting            triclinic
loop_
_symmetry_equiv_pos_as_xyz
'x, y, z'
_cell_length_a     49.77253
_cell_length_b     47.051066
_cell_length_c     42.382504
_cell_angle_alpha  84.71172
_cell_angle_beta   96.250751
_cell_angle_gamma 105.02956
loop_
_atom_site_label
_atom_site_type_symbol
_atom_site_fract_x
_atom_site_fract_y
_atom_site_fract_z
_atom_type_partial_charge
C0 C 0.36193 0.31905 0.4214 0.0
N1 N 0.38131 0.32151 0.40063 0.0
N2 N 0.35277 0.34388 0.41949 0.0
C3 C 0.35275 0.29284 0.44442 0.0
C4 C 0.36741 0.36159 0.39685 0.0
N5 N 0.38508 0.34812 0.3857 0.0
C6 C 0.3623 0.39065 0.38327 0.0
H7 H 0.33604 0.27594 0.4322 0.0
H8 H 0.34449 0.29918 0.46528 0.0
H9 H 0.3704 0.28286 0.4527 0.0
H10 H 0.37613 0.40855 0.39713 0.0
H11 H 0.34032 0.39114 0.38485 0.0
H12 H 0.36702 0.39507 0.35804 0.0
C13 C 0.72896 0.2979 0.26086 0.0
N14 N 0.74648 0.29201 0.28591 0.0
N15 N 0.73886 0.32541 0.24755 0.0
C16 C 0.70085 0.27799 0.25117 0.0
C17 C 0.76297 0.33613 0.26556 0.0
N18 N 0.76763 0.31582 0.28885 0.0
C19 C 0.78111 0.36699 0.26163 0.0
H20 H 0.70238 0.2674 0.22934 0.0
H21 H 0.68506 0.29101 0.24553 0.0
H22 H 0.69359 0.26046 0.26992 0.0
H23 H 0.77689 0.38036 0.27988 0.0
H24 H 0.77683 0.37738 0.23767 0.0
H25 H 0.80349 0.36693 0.26538 0.0
C26 C 0.77221 0.72582 0.36297 0.0
N27 N 0.77342 0.70428 0.34433 0.0
N28 N 0.7493 0.73603 0.35378 0.0
C29 C 0.79162 0.73462 0.3922 0.0
C30 C 0.73655 0.71985 0.32906 0.0
N31 N 0.75098 0.70035 0.3235 0.0
C32 C 0.71056 0.72401 0.3095 0.0
H33 H 0.79889 0.71554 0.40394 0.0
H34 H 0.78135 0.74357 0.40955 0.0
H35 H 0.81014 0.75194 0.38509 0.0
H36 H 0.71085 0.71922 0.28441 0.0
H37 H 0.70851 0.74686 0.31024 0.0
H38 H 0.69204 0.70856 0.31929 0.0
C39 C 0.34312 0.6666 0.31507 0.0
N40 N 0.3682 0.68605 0.31154 0.0
N41 N 0.32643 0.67861 0.32991 0.0
C42 C 0.33427 0.63624 0.30278 0.0
C43 C 0.34211 0.70618 0.33517 0.0
N44 N 0.36743 0.71094 0.32364 0.0
C45 C 0.33375 0.72747 0.35421 0.0
H46 H 0.31118 0.62866 0.29895 0.0
H47 H 0.3418 0.62056 0.32054 0.0
H48 H 0.34339 0.63597 0.2801 0.0
H49 H 0.3515 0.73796 0.37099 0.0
H50 H 0.31562 0.71648 0.36779 0.0
H51 H 0.3281 0.74516 0.33773 0.0
C52 C 0.35196 0.6948 0.7448 0.0
N53 N 0.37716 0.71423 0.75048 0.0
N54 N 0.33793 0.70367 0.71808 0.0
C55 C 0.34242 0.66547 0.76299 0.0
C56 C 0.35549 0.72896 0.70754 0.0
N57 N 0.37931 0.73533 0.72705 0.0
C58 C 0.34941 0.74753 0.67812 0.0
H59 H 0.32769 0.64924 0.74786 0.0
H60 H 0.33154 0.66851 0.78345 0.0
H61 H 0.36045 0.65643 0.77226 0.0
H62 H 0.32658 0.74423 0.67224 0.0
H63 H 0.35843 0.7411 0.65787 0.0
H64 H 0.35917 0.77125 0.68133 0.0
C65 C 0.36338 0.29139 0.6753 0.0
N66 N 0.36124 0.31344 0.69267 0.0
N67 N 0.38837 0.28486 0.68262 0.0
C68 C 0.34229 0.27832 0.6489 0.0
C69 C 0.40147 0.30388 0.70489 0.0
N70 N 0.38517 0.32154 0.71078 0.0
C71 C 0.42941 0.30371 0.72243 0.0
H72 H 0.32659 0.25937 0.65903 0.0
H73 H 0.35238 0.27029 0.63063 0.0
H74 H 0.33129 0.29474 0.63726 0.0
H75 H 0.44605 0.31969 0.70993 0.0
H76 H 0.43345 0.28154 0.72316 0.0
H77 H 0.43046 0.31026 0.74711 0.0
C78 C 0.73085 0.31579 0.72188 0.0
N79 N 0.74977 0.30787 0.70616 0.0
N80 N 0.74362 0.33784 0.74099 0.0
C81 C 0.7001 0.30108 0.71966 0.0
C82 C 0.77103 0.34294 0.73635 0.0
N83 N 0.77481 0.32448 0.71546 0.0
C84 C 0.79372 0.36782 0.74981 0.0
H85 H 0.68959 0.31175 0.69925 0.0
H86 H 0.69078 0.30325 0.74165 0.0
H87 H 0.69631 0.27737 0.71551 0.0
H88 H 0.78511 0.38605 0.75555 0.0
H89 H 0.80984 0.37663 0.73285 0.0
H90 H 0.80393 0.35936 0.77197 0.0
C91 C 0.73158 0.67684 0.64104 0.0
N92 N 0.7474 0.65728 0.64856 0.0
N93 N 0.74227 0.69672 0.61756 0.0
C94 C 0.70754 0.67851 0.65892 0.0
C95 C 0.76536 0.68889 0.61139 0.0
N96 N 0.76863 0.66511 0.63047 0.0
C97 C 0.78387 0.70357 0.58568 0.0
H98 H 0.68808 0.66378 0.64841 0.0
H99 H 0.70483 0.70127 0.65741 0.0
H100 H 0.71074 0.67113 0.68436 0.0
H101 H 0.80188 0.72022 0.59623 0.0
H102 H 0.7724 0.71486 0.56674 0.0
H103 H 0.79206 0.6872 0.57499 0.0
Co104 Co 0.10987 0.46424 0.54367 0.0
Co105 Co 0.08051 0.44838 0.48943 0.0
Co106 Co 0.05109 0.48809 0.52235 0.0
O107 O 0.07053 0.45544 0.52879 0.0
H108 H 0.05958 0.43763 0.53899 0.0
O109 O 0.03233 0.52113 0.51624 0.0
Co110 Co 0.99357 0.51455 0.50188 0.0
Co111 Co 0.02327 0.52836 0.55569 0.0
H112 H 0.04372 0.53887 0.50639 0.0
O113 O 0.09017 0.41374 0.48337 0.0
O114 O 0.11846 0.4554 0.50185 0.0
O115 O 0.07764 0.47678 0.45408 0.0
O116 O 0.07391 0.50972 0.48652 0.0
O117 O 0.02212 0.4643 0.49164 0.0
O118 O 0.95829 0.51171 0.48708 0.0
O119 O 0.99434 0.55214 0.48706 0.0
O120 O 0.98789 0.47407 0.51413 0.0
O121 O 0.02821 0.46646 0.55803 0.0
O122 O 0.02619 0.49981 0.59078 0.0
O123 O 0.98526 0.52264 0.54441 0.0
O124 O 0.01529 0.56341 0.56299 0.0
C125 C 0.13729 0.44144 0.56686 0.0
C126 C 0.10521 0.51925 0.54801 0.0
C127 C 0.08075 0.50336 0.4603 0.0
C128 C 0.11501 0.42895 0.49273 0.0
C129 C 0.96798 0.5397 0.47966 0.0
C130 C 0.99622 0.45849 0.49618 0.0
C131 C 0.02218 0.47312 0.5845 0.0
C132 C 0.98988 0.54868 0.55515 0.0
O133 O 0.14522 0.46937 0.55839 0.0
O134 O 0.11121 0.42725 0.56021 0.0
O135 O 0.07949 0.51195 0.55313 0.0
O136 O 0.11419 0.50426 0.53008 0.0
Co137 Co 0.59402 0.95503 0.50075 0.0
Co138 Co 0.61142 0.98466 0.55249 0.0
Co139 Co 0.56671 0.01236 0.50963 0.0
O140 O 0.59962 0.99522 0.51048 0.0
H141 H 0.61498 0.00836 0.50021 0.0
O142 O 0.53394 0.02986 0.50848 0.0
Co143 Co 0.53925 0.06985 0.51952 0.0
Co144 Co 0.52355 0.04249 0.46673 0.0
H145 H 0.51822 0.01641 0.51782 0.0
O146 O 0.64588 0.9746 0.56412 0.0
O147 O 0.60557 0.94517 0.54528 0.0
O148 O 0.58643 0.98503 0.58405 0.0
O149 O 0.55077 0.98676 0.54788 0.0
O150 O 0.59023 0.04298 0.53815 0.0
O151 O 0.54113 0.10564 0.53097 0.0
O152 O 0.50431 0.066 0.53126 0.0
O153 O 0.57671 0.07919 0.50993 0.0
O154 O 0.58317 0.03799 0.47198 0.0
O155 O 0.54935 0.04429 0.43531 0.0
O156 O 0.52783 0.08153 0.47521 0.0
O157 O 0.48888 0.05081 0.45448 0.0
C158 C 0.61759 0.93057 0.48435 0.0
C159 C 0.54051 0.9541 0.48839 0.0
C160 C 0.56037 0.98057 0.57629 0.0
C161 C 0.63132 0.94861 0.5567 0.0
C162 C 0.51545 0.0936 0.5371 0.0
C163 C 0.59401 0.07047 0.53028 0.0
C164 C 0.57501 0.04659 0.44394 0.0
C165 C 0.50236 0.07709 0.46222 0.0
O166 O 0.59192 0.91878 0.49069 0.0
O167 O 0.62875 0.95838 0.48907 0.0
O168 O 0.54333 0.98154 0.48072 0.0
O169 O 0.55695 0.94658 0.51062 0.0
Co170 Co 0.53236 0.54447 0.0779 0.0
Co171 Co 0.5111 0.49382 0.05444 0.0
Co172 Co 0.55869 0.5317 0.01103 0.0
O173 O 0.5262 0.53101 0.03554 0.0
H174 H 0.51188 0.53832 0.02259 0.0
O175 O 0.59136 0.53171 0.98765 0.0
Co176 Co 0.58643 0.51547 0.94723 0.0
Co177 Co 0.60766 0.56766 0.96782 0.0
H178 H 0.60562 0.52517 1.00153 0.0
O179 O 0.47543 0.48212 0.06825 0.0
O180 O 0.51525 0.50437 0.09623 0.0
O181 O 0.53207 0.46478 0.054 0.0
O182 O 0.5695 0.49759 0.03731 0.0
O183 O 0.53249 0.50384 0.98123 0.0
O184 O 0.58486 0.49907 0.91063 0.0
O185 O 0.61811 0.50305 0.95166 0.0
O186 O 0.55189 0.52562 0.93794 0.0
O187 O 0.54822 0.56618 0.98418 0.0
O188 O 0.58593 0.59594 0.96376 0.0
O189 O 0.60612 0.55404 0.92784 0.0
O190 O 0.64458 0.57701 0.95728 0.0
C191 C 0.51133 0.56381 0.10551 0.0
C192 C 0.58792 0.55247 0.07022 0.0
C193 C 0.55789 0.47226 0.04995 0.0
C194 C 0.48902 0.49015 0.09523 0.0
C195 C 0.60833 0.49406 0.92346 0.0
C196 C 0.53113 0.50897 0.95102 0.0
C197 C 0.56034 0.5901 0.96887 0.0
C198 C 0.63297 0.56534 0.93098 0.0
O199 O 0.53538 0.55885 0.1159 0.0
O200 O 0.49979 0.55523 0.07762 0.0
O201 O 0.58514 0.55945 0.04049 0.0
O202 O 0.56764 0.53573 0.08393 0.0
C203 C 0.33235 0.37415 0.4497 0.0
C204 C 0.32962 0.34842 0.43408 0.0
C205 C 0.30915 0.37962 0.46151 0.0
C206 C 0.23272 0.3603 0.44712 0.0
H207 H 0.23604 0.39992 0.52429 0.0
C208 C 0.13558 0.38725 0.48479 0.0
C209 C 0.13934 0.41652 0.49244 0.0
C210 C 0.15861 0.37602 0.48269 0.0
C211 C 0.23487 0.38889 0.50266 0.0
H212 H 0.3011 0.30793 0.41906 0.0
H213 H 0.26069 0.31685 0.44053 0.0
H214 H 0.27715 0.38536 0.51143 0.0
H215 H 0.17021 0.45662 0.50513 0.0
H216 H 0.21039 0.437 0.50135 0.0
H217 H 0.19076 0.36424 0.43795 0.0
C218 C 0.28054 0.33308 0.44329 0.0
C219 C 0.25837 0.38061 0.49527 0.0
C220 C 0.30366 0.32777 0.43133 0.0
C221 C 0.16659 0.43398 0.49912 0.0
C222 C 0.18963 0.42269 0.49717 0.0
C223 C 0.20929 0.36847 0.45453 0.0
C224 C 0.28287 0.35936 0.45792 0.0
C225 C 0.25761 0.36649 0.46723 0.0
C226 C 0.18587 0.3938 0.48825 0.0
C227 C 0.21019 0.38312 0.48216 0.0
H228 H 0.3523 0.39024 0.45209 0.0
H229 H 0.3116 0.4002 0.47237 0.0
H230 H 0.23156 0.35002 0.42501 0.0
H231 H 0.11485 0.37312 0.47987 0.0
H232 H 0.1551 0.35352 0.47621 0.0
C233 C 0.74175 0.23926 0.29953 0.0
C234 C 0.74037 0.26684 0.30823 0.0
C235 C 0.72822 0.21337 0.31629 0.0
C236 C 0.66641 0.18797 0.3604 0.0
H237 H 0.69039 0.11563 0.37901 0.0
C238 C 0.58817 0.08034 0.39559 0.0
C239 C 0.5963 0.06499 0.42354 0.0
C240 C 0.60784 0.10238 0.38008 0.0
C241 C 0.68345 0.13571 0.37395 0.0
H242 H 0.72467 0.28939 0.34139 0.0
H243 H 0.70189 0.24443 0.3716 0.0
H244 H 0.72309 0.16035 0.3586 0.0
H245 H 0.63197 0.05923 0.45551 0.0
H246 H 0.66616 0.09765 0.42836 0.0
H247 H 0.62696 0.16371 0.37576 0.0
C248 C 0.71328 0.2426 0.35181 0.0
C249 C 0.70212 0.16124 0.3622 0.0
C250 C 0.72676 0.26837 0.33502 0.0
C251 C 0.6249 0.07067 0.43413 0.0
C252 C 0.64457 0.09268 0.41853 0.0
C253 C 0.64778 0.16253 0.37187 0.0
C254 C 0.71285 0.21478 0.34182 0.0
C255 C 0.69381 0.1877 0.35545 0.0
C256 C 0.63609 0.10951 0.39204 0.0
C257 C 0.65601 0.13607 0.37874 0.0
H258 H 0.75157 0.23775 0.27839 0.0
H259 H 0.7281 0.19231 0.30782 0.0
H260 H 0.65915 0.20782 0.35492 0.0
H261 H 0.56641 0.07647 0.38659 0.0
H262 H 0.60075 0.11459 0.35931 0.0
C263 C 0.78378 0.65579 0.3568 0.0
C264 C 0.79304 0.6862 0.3494 0.0
C265 C 0.80298 0.63914 0.36746 0.0
C266 C 0.87872 0.64051 0.37544 0.0
H267 H 0.85833 0.586 0.44836 0.0
C268 C 0.95822 0.58702 0.45418 0.0
C269 C 0.94865 0.55699 0.46378 0.0
C270 C 0.9396 0.60281 0.43889 0.0
C271 C 0.86428 0.60088 0.4278 0.0
H272 H 0.82931 0.72289 0.34556 0.0
H273 H 0.86303 0.69407 0.36441 0.0
H274 H 0.82505 0.61222 0.42203 0.0
H275 H 0.91192 0.5201 0.46498 0.0
H276 H 0.87978 0.54742 0.43837 0.0
H277 H 0.91815 0.62928 0.38158 0.0
C278 C 0.84105 0.68285 0.36183 0.0
C279 C 0.84511 0.61586 0.41259 0.0
C280 C 0.82182 0.69942 0.35115 0.0
C281 C 0.92009 0.5432 0.45794 0.0
C282 C 0.90155 0.55894 0.44282 0.0
C283 C 0.89795 0.62551 0.39072 0.0
C284 C 0.83184 0.65265 0.37099 0.0
C285 C 0.85204 0.63586 0.38618 0.0
C286 C 0.91101 0.58893 0.43308 0.0
C287 C 0.89093 0.60546 0.41707 0.0
H288 H 0.76165 0.64525 0.3559 0.0
H289 H 0.79517 0.61584 0.37377 0.0
H290 H 0.88469 0.65556 0.35502 0.0
H291 H 0.98007 0.59832 0.4584 0.0
H292 H 0.94753 0.62598 0.432 0.0
C293 C 0.41269 0.73234 0.35261 0.0
C294 C 0.39074 0.73583 0.33015 0.0
C295 C 0.43097 0.75696 0.36622 0.0
C296 C 0.4555 0.83881 0.3606 0.0
H297 H 0.46185 0.82882 0.45266 0.0
C298 C 0.5058 0.93698 0.44116 0.0
C299 C 0.52197 0.93059 0.46896 0.0
C300 C 0.48982 0.91413 0.42257 0.0
C301 C 0.46077 0.83204 0.42698 0.0
H302 H 0.37163 0.76752 0.30267 0.0
H303 H 0.40395 0.8108 0.32578 0.0
H304 H 0.43723 0.78745 0.42177 0.0
H305 H 0.53369 0.89492 0.49892 0.0
H306 H 0.50702 0.85595 0.46657 0.0
H307 H 0.47944 0.88343 0.3659 0.0
C308 C 0.40711 0.78913 0.33303 0.0
C309 C 0.44658 0.80818 0.40922 0.0
C310 C 0.38868 0.76445 0.31969 0.0
C311 C 0.52153 0.90089 0.47776 0.0
C312 C 0.5059 0.8783 0.45921 0.0
C313 C 0.47007 0.86272 0.37843 0.0
C314 C 0.42775 0.7856 0.35743 0.0
C315 C 0.44386 0.81114 0.37582 0.0
C316 C 0.48971 0.88441 0.43136 0.0
C317 C 0.47308 0.85962 0.41194 0.0
H318 H 0.41436 0.71044 0.36132 0.0
H319 H 0.44689 0.7535 0.38466 0.0
H320 H 0.45372 0.84183 0.33489 0.0
H321 H 0.50567 0.95957 0.43363 0.0
H322 H 0.47742 0.91975 0.40147 0.0
C323 C 0.31197 0.68012 0.67062 0.0
C324 C 0.3123 0.68775 0.70187 0.0
C325 C 0.28717 0.66493 0.65455 0.0
C326 C 0.21721 0.61708 0.66753 0.0
H327 H 0.20313 0.63566 0.57715 0.0
C328 C 0.11916 0.55368 0.59228 0.0
C329 C 0.12532 0.54342 0.56448 0.0
C330 C 0.13955 0.57446 0.60933 0.0
C331 C 0.20677 0.63022 0.60238 0.0
H332 H 0.28744 0.6855 0.74115 0.0
H333 H 0.24361 0.65894 0.71302 0.0
H334 H 0.2435 0.66574 0.60698 0.0
H335 H 0.15716 0.54787 0.53194 0.0
H336 H 0.19245 0.58411 0.5614 0.0
H337 H 0.18057 0.58127 0.66268 0.0
C338 C 0.26255 0.66451 0.70093 0.0
C339 C 0.22996 0.64737 0.61947 0.0
C340 C 0.28749 0.67972 0.71702 0.0
C341 C 0.15181 0.55521 0.55338 0.0
C342 C 0.17199 0.57614 0.57015 0.0
C343 C 0.19389 0.59999 0.65043 0.0
C344 C 0.26209 0.65705 0.66942 0.0
C345 C 0.23586 0.64059 0.6521 0.0
C346 C 0.16628 0.58566 0.59858 0.0
C347 C 0.18881 0.60598 0.61752 0.0
H348 H 0.33105 0.68569 0.65879 0.0
H349 H 0.28777 0.65894 0.63062 0.0
H350 H 0.22123 0.61109 0.69256 0.0
H351 H 0.09893 0.54497 0.60141 0.0
H352 H 0.13452 0.58157 0.63106 0.0
C353 C 0.38477 0.23466 0.66649 0.0
C354 C 0.39953 0.26437 0.66802 0.0
C355 C 0.39574 0.21485 0.65231 0.0
C356 C 0.46275 0.20528 0.63024 0.0
H357 H 0.41609 0.14732 0.57487 0.0
C358 C 0.51113 0.14221 0.55219 0.0
C359 C 0.49944 0.11177 0.55015 0.0
C360 C 0.49744 0.15954 0.56617 0.0
C361 C 0.42933 0.16315 0.59057 0.0
H362 H 0.43677 0.29693 0.6553 0.0
H363 H 0.45611 0.26258 0.63062 0.0
H364 H 0.39515 0.17996 0.60038 0.0
H365 H 0.46352 0.07589 0.56022 0.0
H366 H 0.43951 0.10632 0.58503 0.0
H367 H 0.49691 0.1887 0.6205 0.0
C368 C 0.4363 0.25429 0.64081 0.0
C369 C 0.41734 0.18187 0.6052 0.0
C370 C 0.42529 0.274 0.6549 0.0
C371 C 0.47314 0.09925 0.56153 0.0
C372 C 0.45936 0.1167 0.57565 0.0
C373 C 0.47469 0.18664 0.61568 0.0
C374 C 0.42177 0.22439 0.63946 0.0
C375 C 0.434 0.20343 0.62491 0.0
C376 C 0.47163 0.14699 0.57864 0.0
C377 C 0.45825 0.1656 0.5953 0.0
H378 H 0.36489 0.22677 0.67659 0.0
H379 H 0.38409 0.19197 0.65194 0.0
H380 H 0.47613 0.22111 0.64584 0.0
H381 H 0.53114 0.15277 0.54324 0.0
H382 H 0.50719 0.1829 0.5673 0.0
C383 C 0.80326 0.33664 0.66988 0.0
C384 C 0.80044 0.32635 0.70172 0.0
C385 C 0.82967 0.34516 0.65832 0.0
C386 C 0.88769 0.35643 0.63602 0.0
H387 H 0.94492 0.40055 0.69512 0.0
C388 C 0.99462 0.42081 0.5949 0.0
C389 C 1.00405 0.44987 0.60446 0.0
C390 C 0.9729 0.40053 0.60943 0.0
C391 C 0.92921 0.38833 0.67827 0.0
H392 H 0.82214 0.31483 0.74598 0.0
H393 H 0.86833 0.32853 0.72572 0.0
H394 H 0.90009 0.37399 0.71344 0.0
H395 H 0.99919 0.47961 0.63842 0.0
H396 H 0.96136 0.44458 0.66336 0.0
H397 H 0.91627 0.37239 0.60037 0.0
C398 C 0.85042 0.33091 0.70974 0.0
C399 C 0.90353 0.37268 0.6889 0.0
C400 C 0.82404 0.3227 0.72129 0.0
C401 C 0.99254 0.45746 0.63038 0.0
C402 C 0.97079 0.43724 0.64482 0.0
C403 C 0.91334 0.37227 0.62533 0.0
C404 C 0.85375 0.34334 0.67843 0.0
C405 C 0.88218 0.35696 0.66779 0.0
C406 C 0.96007 0.40879 0.63388 0.0
C407 C 0.93424 0.38895 0.64617 0.0
H408 H 0.78527 0.33999 0.65463 0.0
H409 H 0.8313 0.35489 0.63422 0.0
H410 H 0.87195 0.34427 0.61915 0.0
H411 H 1.00303 0.41409 0.5751 0.0
H412 H 0.96559 0.37863 0.60083 0.0
C413 C 0.75041 0.75032 0.60577 0.0
C414 C 0.7326 0.72189 0.60441 0.0
C415 C 0.74022 0.77501 0.59587 0.0
C416 C 0.67493 0.79725 0.58992 0.0
H417 H 0.71499 0.86738 0.54307 0.0
C418 C 0.62661 0.8947 0.5555 0.0
C419 C 0.64382 0.92313 0.55981 0.0
C420 C 0.638 0.87046 0.55748 0.0
C421 C 0.70372 0.84802 0.55642 0.0
H422 H 0.6909 0.69648 0.59044 0.0
H423 H 0.67281 0.73964 0.5731 0.0
H424 H 0.73408 0.82395 0.55162 0.0
H425 H 0.68656 0.94848 0.56944 0.0
H426 H 0.70651 0.90574 0.57395 0.0
H427 H 0.64496 0.82121 0.59552 0.0
C428 C 0.69455 0.74295 0.58209 0.0
C429 C 0.71458 0.82319 0.5612 0.0
C430 C 0.70479 0.71833 0.59189 0.0
C431 C 0.67277 0.92681 0.56618 0.0
C432 C 0.6842 0.90241 0.56838 0.0
C433 C 0.66419 0.822 0.58531 0.0
C434 C 0.71201 0.77155 0.58462 0.0
C435 C 0.70025 0.79758 0.57803 0.0
C436 C 0.66686 0.87394 0.5643 0.0
C437 C 0.67844 0.84768 0.56856 0.0
H438 H 0.77187 0.75341 0.61567 0.0
H439 H 0.75406 0.79677 0.5984 0.0
H440 H 0.66372 0.77806 0.60358 0.0
H441 H 0.60421 0.89107 0.55047 0.0
H442 H 0.62413 0.84891 0.55366 0.0
C443 C 0.37991 0.27165 0.38695 0.0
C444 C 0.39545 0.29943 0.39609 0.0
C445 C 0.39225 0.248 0.38939 0.0
C446 C 0.45977 0.2269 0.40371 0.0
H447 H 0.41407 0.15575 0.4434 0.0
C448 C 0.50518 0.13112 0.46054 0.0
C449 C 0.48966 0.10233 0.45439 0.0
C450 C 0.49378 0.15517 0.45179 0.0
C451 C 0.42699 0.1753 0.43197 0.0
H452 H 0.43611 0.32521 0.41302 0.0
H453 H 0.45803 0.28378 0.41769 0.0
H454 H 0.39464 0.19797 0.42836 0.0
H455 H 0.44982 0.07621 0.43467 0.0
H456 H 0.42999 0.11826 0.41924 0.0
H457 H 0.49229 0.20421 0.40794 0.0
C458 C 0.43638 0.28016 0.4083 0.0
C459 C 0.41584 0.1995 0.42322 0.0
C460 C 0.42398 0.30388 0.40562 0.0
C461 C 0.46233 0.09809 0.43976 0.0
C462 C 0.45092 0.12217 0.43102 0.0
C463 C 0.47096 0.20266 0.41256 0.0
C464 C 0.42036 0.25171 0.40131 0.0
C465 C 0.43209 0.22562 0.40902 0.0
C466 C 0.46662 0.151 0.43669 0.0
C467 C 0.4547 0.17663 0.42689 0.0
H468 H 0.35785 0.26802 0.37943 0.0
H469 H 0.37949 0.22656 0.38307 0.0
H470 H 0.47276 0.24658 0.39259 0.0
H471 H 0.52628 0.13519 0.47186 0.0
H472 H 0.50622 0.17705 0.45698 0.0
C473 C 0.78583 0.32874 0.34331 0.0
C474 C 0.79002 0.32035 0.31377 0.0
C475 C 0.80853 0.33833 0.3656 0.0
C476 C 0.88503 0.3447 0.38472 0.0
H477 H 0.88099 0.41287 0.42708 0.0
C478 C 0.98022 0.42509 0.4508 0.0
C479 C 0.97489 0.4358 0.47877 0.0
C480 C 0.95841 0.407 0.43233 0.0
C481 C 0.88238 0.39362 0.41579 0.0
H482 H 0.82064 0.31479 0.28414 0.0
H483 H 0.8607 0.3321 0.32275 0.0
H484 H 0.84134 0.38829 0.39255 0.0
H485 H 0.94301 0.43402 0.51055 0.0
H486 H 0.90544 0.40256 0.47874 0.0
H487 H 0.92666 0.3509 0.40764 0.0
C488 C 0.83992 0.33062 0.32927 0.0
C489 C 0.85952 0.37939 0.39603 0.0
C490 C 0.8171 0.32074 0.30713 0.0
C491 C 0.94779 0.4266 0.48885 0.0
C492 C 0.92618 0.40862 0.47055 0.0
C493 C 0.90808 0.35915 0.40447 0.0
C494 C 0.836 0.3403 0.3585 0.0
C495 C 0.8604 0.35464 0.3803 0.0
C496 C 0.93097 0.39935 0.44158 0.0
C497 C 0.90691 0.38368 0.42037 0.0
H498 H 0.76517 0.32926 0.3485 0.0
H499 H 0.8046 0.34509 0.38804 0.0
H500 H 0.88642 0.32563 0.37315 0.0
H501 H 1.00088 0.43177 0.44243 0.0
H502 H 0.96275 0.40019 0.4101 0.0
C503 C 0.75477 0.78509 0.37388 0.0
C504 C 0.73866 0.75628 0.36929 0.0
C505 C 0.74372 0.80501 0.38774 0.0
C506 C 0.67587 0.81811 0.39999 0.0
H507 H 0.7177 0.87085 0.46341 0.0
C508 C 0.62138 0.88172 0.46961 0.0
C509 C 0.63393 0.91178 0.47327 0.0
C510 C 0.63596 0.86374 0.45829 0.0
C511 C 0.7059 0.85647 0.44545 0.0
H512 H 0.69919 0.72509 0.37673 0.0
H513 H 0.67973 0.75967 0.40082 0.0
H514 H 0.74004 0.83749 0.44094 0.0
H515 H 0.67216 0.94624 0.46914 0.0
H516 H 0.6977 0.91467 0.44884 0.0
H517 H 0.64179 0.83685 0.4043 0.0
C518 C 0.70065 0.76722 0.39324 0.0
C519 C 0.71866 0.83738 0.43261 0.0
C520 C 0.71171 0.74741 0.3795 0.0
C521 C 0.66181 0.92324 0.46626 0.0
C522 C 0.67649 0.90513 0.45486 0.0
C523 C 0.66319 0.83711 0.41272 0.0
C524 C 0.71634 0.79639 0.39713 0.0
C525 C 0.70362 0.81771 0.41003 0.0
C526 C 0.6635 0.87529 0.45021 0.0
C527 C 0.67788 0.85624 0.4359 0.0
H528 H 0.77563 0.79226 0.36612 0.0
H529 H 0.75629 0.82735 0.39028 0.0
H530 H 0.66389 0.80376 0.3821 0.0
H531 H 0.60009 0.87196 0.47526 0.0
H532 H 0.62556 0.8407 0.4557 0.0
C533 C 0.27577 0.67336 0.33015 0.0
C534 C 0.29981 0.66391 0.34134 0.0
C535 C 0.24985 0.65863 0.34106 0.0
C536 C 0.19643 0.60977 0.35471 0.0
H537 H 0.19247 0.59088 0.44539 0.0
C538 C 0.1075 0.52093 0.41213 0.0
C539 C 0.09898 0.52701 0.44084 0.0
C540 C 0.1293 0.54102 0.39748 0.0
C541 C 0.19312 0.59624 0.42003 0.0
H542 H 0.31608 0.63222 0.37259 0.0
H543 H 0.27091 0.60663 0.39221 0.0
H544 H 0.23644 0.61906 0.4254 0.0
H545 H 0.10566 0.56005 0.47543 0.0
H546 H 0.14362 0.59483 0.44991 0.0
H547 H 0.15319 0.58623 0.34936 0.0
C548 C 0.27194 0.62529 0.37498 0.0
C549 C 0.21838 0.61214 0.40857 0.0
C550 C 0.29769 0.63974 0.36373 0.0
C551 C 0.11157 0.55453 0.45335 0.0
C552 C 0.13354 0.57442 0.43889 0.0
C553 C 0.1712 0.59345 0.36616 0.0
C554 C 0.2477 0.63452 0.36374 0.0
C555 C 0.2204 0.6189 0.37579 0.0
C556 C 0.14323 0.56749 0.41136 0.0
C557 C 0.16931 0.58641 0.39896 0.0
H558 H 0.27713 0.69197 0.31283 0.0
H559 H 0.23156 0.66631 0.33211 0.0
H560 H 0.19742 0.61453 0.32931 0.0
H561 H 0.0983 0.5 0.40181 0.0
H562 H 0.13633 0.53501 0.37631 0.0
C563 C 0.40811 0.78527 0.73705 0.0
C564 C 0.40321 0.75928 0.72125 0.0
C565 C 0.42669 0.81111 0.72577 0.0
C566 C 0.45395 0.8442 0.64982 0.0
H567 H 0.50397 0.90378 0.70065 0.0
C568 C 0.51205 0.95353 0.58984 0.0
C569 C 0.54086 0.96241 0.59888 0.0
C570 C 0.49446 0.93185 0.60829 0.0
C571 C 0.4901 0.88732 0.68614 0.0
H572 H 0.41447 0.73899 0.68276 0.0
H573 H 0.44768 0.78358 0.66357 0.0
H574 H 0.47733 0.85817 0.72685 0.0
H575 H 0.57331 0.95692 0.63583 0.0
H576 H 0.54276 0.91898 0.66761 0.0
H577 H 0.46703 0.87262 0.60913 0.0
C578 C 0.43692 0.78447 0.68419 0.0
C579 C 0.47473 0.86128 0.70117 0.0
C580 C 0.4183 0.75887 0.69534 0.0
C581 C 0.55126 0.95059 0.628 0.0
C582 C 0.53368 0.92884 0.64637 0.0
C583 C 0.4692 0.8701 0.63487 0.0
C584 C 0.44052 0.81121 0.69845 0.0
C585 C 0.45674 0.83925 0.68311 0.0
C586 C 0.50525 0.91845 0.63617 0.0
C587 C 0.48762 0.89196 0.65275 0.0
H588 H 0.39619 0.78598 0.75673 0.0
H589 H 0.42891 0.83133 0.73723 0.0
H590 H 0.43987 0.828 0.63518 0.0
H591 H 0.50323 0.96231 0.56775 0.0
H592 H 0.47252 0.92486 0.60011 0.0
C593 C 0.31098 0.31003 0.69203 0.0
C594 C 0.33833 0.32732 0.68935 0.0
C595 C 0.28809 0.3219 0.68283 0.0
C596 C 0.26678 0.39188 0.66335 0.0
H597 H 0.20739 0.34429 0.60918 0.0
C598 C 0.18677 0.44247 0.58595 0.0
C599 C 0.15861 0.42647 0.58255 0.0
C600 C 0.20736 0.42942 0.60092 0.0
C601 C 0.22353 0.3577 0.62466 0.0
H602 H 0.36343 0.3708 0.67643 0.0
H603 H 0.32345 0.39199 0.6607 0.0
H604 H 0.24586 0.32408 0.63337 0.0
H605 H 0.13021 0.38375 0.59176 0.0
H606 H 0.16638 0.36082 0.61852 0.0
H607 H 0.24463 0.42557 0.65454 0.0
C608 C 0.31959 0.36921 0.66997 0.0
C609 C 0.24563 0.34613 0.63855 0.0
C610 C 0.34251 0.35721 0.67907 0.0
C611 C 0.15165 0.39674 0.59414 0.0
C612 C 0.17242 0.3836 0.60933 0.0
C613 C 0.24465 0.4034 0.6496 0.0
C614 C 0.29207 0.35145 0.67088 0.0
C615 C 0.26772 0.3632 0.65777 0.0
C616 C 0.20053 0.39994 0.61319 0.0
C617 C 0.22292 0.38665 0.62967 0.0
H618 H 0.30738 0.28693 0.70003 0.0
H619 H 0.26725 0.30776 0.68443 0.0
H620 H 0.28318 0.40547 0.6784 0.0
H621 H 0.1931 0.46529 0.57693 0.0
H622 H 0.2288 0.4425 0.60262 0.0
C623 C 0.72649 0.28677 0.65638 0.0
C624 C 0.7439 0.28489 0.68438 0.0
C625 C 0.7169 0.2626 0.63766 0.0
C626 C 0.69879 0.18234 0.6453 0.0
H627 H 0.69039 0.18971 0.55313 0.0
C628 C 0.63529 0.08509 0.57104 0.0
C629 C 0.6172 0.09288 0.5458 0.0
C630 C 0.65577 0.10697 0.58669 0.0
C631 C 0.69242 0.18725 0.57887 0.0
H632 H 0.76576 0.2571 0.71456 0.0
H633 H 0.74875 0.21428 0.68192 0.0
H634 H 0.71763 0.2315 0.58243 0.0
H635 H 0.60704 0.12984 0.51679 0.0
H636 H 0.64196 0.16749 0.5441 0.0
H637 H 0.67248 0.1386 0.64188 0.0
C638 C 0.7426 0.23448 0.67435 0.0
C639 C 0.70815 0.21119 0.59563 0.0
C640 C 0.75251 0.2589 0.69283 0.0
C641 C 0.62055 0.12291 0.53611 0.0
C642 C 0.64086 0.14463 0.55166 0.0
C643 C 0.68282 0.15842 0.62853 0.0
C644 C 0.72425 0.23591 0.64686 0.0
C645 C 0.71097 0.20926 0.62904 0.0
C646 C 0.65862 0.13708 0.57736 0.0
C647 C 0.6788 0.16084 0.59509 0.0
H648 H 0.71953 0.30665 0.64972 0.0
H649 H 0.70259 0.26434 0.61684 0.0
H650 H 0.70037 0.18023 0.67106 0.0
H651 H 0.63332 0.06217 0.57907 0.0
H652 H 0.66925 0.10032 0.6062 0.0
C653 C 0.81835 0.666 0.63464 0.0
C654 C 0.79036 0.65024 0.63007 0.0
C655 C 0.83958 0.65352 0.62841 0.0
C656 C 0.856 0.58388 0.61304 0.0
H657 H 0.91284 0.63687 0.56483 0.0
C658 C 0.93852 0.54363 0.55553 0.0
C659 C 0.96619 0.56059 0.56064 0.0
C660 C 0.91632 0.55406 0.56313 0.0
C661 C 0.89725 0.62186 0.57847 0.0
H662 H 0.76225 0.60885 0.61735 0.0
H663 H 0.79943 0.58668 0.60611 0.0
H664 H 0.87593 0.65512 0.58261 0.0
H665 H 0.99217 0.60221 0.57669 0.0
H666 H 0.95351 0.6203 0.58997 0.0
H667 H 0.87743 0.55057 0.60867 0.0
C668 C 0.80509 0.60861 0.61471 0.0
C669 C 0.87616 0.63233 0.5888 0.0
C670 C 0.78384 0.62115 0.62113 0.0
C671 C 0.97112 0.58855 0.57253 0.0
C672 C 0.94895 0.599 0.58001 0.0
C673 C 0.87713 0.57337 0.60262 0.0
C674 C 0.83314 0.62506 0.61729 0.0
C675 C 0.85544 0.61356 0.60646 0.0
C676 C 0.92135 0.58171 0.57581 0.0
C677 C 0.89809 0.59233 0.58545 0.0
H678 H 0.82361 0.68842 0.64183 0.0
H679 H 0.86101 0.66648 0.63142 0.0
H680 H 0.84043 0.56892 0.62674 0.0
H681 H 0.934 0.52206 0.54622 0.0
H682 H 0.89522 0.54045 0.5592 0.0
C683 C 0.42203 0.38483 0.35973 0.0
C684 C 0.40094 0.35854 0.35875 0.0
C685 C 0.43362 0.3984 0.33188 0.0
C686 C 0.43685 0.38754 0.24625 0.0
H687 H 0.44935 0.47268 0.23779 0.0
C688 C 0.45295 0.45417 0.12562 0.0
C689 C 0.47648 0.47836 0.12536 0.0
C690 C 0.4437 0.44009 0.1544 0.0
C691 C 0.44611 0.44894 0.2399 0.0
H692 H 0.37588 0.32507 0.3288 0.0
H693 H 0.39561 0.34881 0.27974 0.0
H694 H 0.43523 0.44581 0.2877 0.0
H695 H 0.50778 0.50776 0.15511 0.0
H696 H 0.49123 0.48351 0.20535 0.0
H697 H 0.44705 0.39081 0.198 0.0
C698 C 0.4038 0.35884 0.30193 0.0
C699 C 0.43822 0.43348 0.26858 0.0
C700 C 0.39249 0.34515 0.32992 0.0
C701 C 0.48964 0.48913 0.15449 0.0
C702 C 0.48015 0.47528 0.18327 0.0
C703 C 0.44443 0.40298 0.21745 0.0
C704 C 0.42397 0.38611 0.30241 0.0
C705 C 0.43348 0.40256 0.27218 0.0
C706 C 0.45753 0.45016 0.18351 0.0
C707 C 0.44911 0.43383 0.21397 0.0
H708 H 0.42862 0.39543 0.38189 0.0
H709 H 0.44956 0.41897 0.33335 0.0
H710 H 0.43381 0.36383 0.24822 0.0
H711 H 0.44235 0.44528 0.10361 0.0
H712 H 0.42596 0.42102 0.15391 0.0
C713 C 0.39215 0.704 0.80684 0.0
C714 C 0.39868 0.7108 0.77519 0.0
C715 C 0.41129 0.69552 0.83006 0.0
C716 C 0.47421 0.66552 0.83618 0.0
H717 H 0.47425 0.67446 0.92627 0.0
C718 C 0.55485 0.63151 0.92918 0.0
C719 C 0.54334 0.60974 0.95247 0.0
C720 C 0.53815 0.64707 0.91 0.0
C721 C 0.47435 0.67182 0.90117 0.0
H722 H 0.43088 0.7156 0.74331 0.0
H723 H 0.46518 0.70319 0.78404 0.0
H724 H 0.44493 0.69776 0.8877 0.0
H725 H 0.50539 0.58865 0.97499 0.0
H726 H 0.47628 0.61666 0.94176 0.0
H727 H 0.50428 0.64031 0.84981 0.0
C728 C 0.44484 0.70306 0.79093 0.0
C729 C 0.45747 0.68501 0.87899 0.0
C730 C 0.42541 0.71089 0.76758 0.0
C731 C 0.51495 0.6052 0.9573 0.0
C732 C 0.49829 0.62123 0.93834 0.0
C733 C 0.49144 0.65292 0.85827 0.0
C734 C 0.43773 0.69422 0.8223 0.0
C735 C 0.45697 0.68186 0.84612 0.0
C736 C 0.50962 0.64169 0.91395 0.0
C737 C 0.49155 0.65576 0.89094 0.0
H738 H 0.37169 0.704 0.81327 0.0
H739 H 0.40472 0.6887 0.8537 0.0
H740 H 0.47399 0.66172 0.81135 0.0
H741 H 0.57659 0.63571 0.92468 0.0
H742 H 0.5474 0.66289 0.8915 0.0
C743 C 0.3767 0.34526 0.75736 0.0
C744 C 0.39284 0.34503 0.73227 0.0
C745 C 0.38664 0.36552 0.78096 0.0
C746 C 0.4433 0.43369 0.80025 0.0
H747 H 0.43021 0.40563 0.88744 0.0
C748 C 0.49838 0.50627 0.90187 0.0
C749 C 0.50769 0.4923 0.93008 0.0
C750 C 0.47955 0.48999 0.87919 0.0
C751 C 0.43437 0.41383 0.86329 0.0
H752 H 0.43099 0.36668 0.71096 0.0
H753 H 0.44889 0.40107 0.75215 0.0
H754 H 0.40713 0.37485 0.84439 0.0
H755 H 0.50409 0.45041 0.95713 0.0
H756 H 0.47235 0.42158 0.91699 0.0
H757 H 0.47204 0.47154 0.81887 0.0
C758 C 0.4284 0.38623 0.75386 0.0
C759 C 0.42065 0.39628 0.8384 0.0
C760 C 0.41832 0.36628 0.73028 0.0
C761 C 0.49697 0.46179 0.93573 0.0
C762 C 0.47867 0.44529 0.9126 0.0
C763 C 0.45735 0.45094 0.82505 0.0
C764 C 0.413 0.38589 0.77996 0.0
C765 C 0.42526 0.40573 0.80647 0.0
C766 C 0.47018 0.45904 0.88354 0.0
C767 C 0.45341 0.44123 0.85708 0.0
H768 H 0.35697 0.32902 0.75937 0.0
H769 H 0.37386 0.36484 0.80025 0.0
H770 H 0.44704 0.44223 0.77608 0.0
H771 H 0.50619 0.52984 0.89703 0.0
H772 H 0.47291 0.50177 0.85786 0.0
C773 C 0.74025 0.35724 0.79219 0.0
C774 C 0.73089 0.35371 0.76001 0.0
C775 C 0.7284 0.37332 0.81045 0.0
C776 C 0.68691 0.4292 0.80283 0.0
H777 H 0.67213 0.40168 0.88985 0.0
C778 C 0.6159 0.47442 0.87315 0.0
C779 C 0.6242 0.47945 0.90536 0.0
C780 C 0.63057 0.4605 0.85587 0.0
C781 C 0.67646 0.40987 0.86572 0.0
H782 H 0.70206 0.36414 0.72152 0.0
H783 H 0.6807 0.39161 0.75343 0.0
H784 H 0.69411 0.3742 0.85887 0.0
H785 H 0.65473 0.47417 0.94456 0.0
H786 H 0.68027 0.44955 0.91437 0.0
H787 H 0.66887 0.46463 0.80958 0.0
C788 C 0.69747 0.3824 0.7646 0.0
C789 C 0.68907 0.39412 0.84794 0.0
C790 C 0.7094 0.36638 0.74639 0.0
C791 C 0.64771 0.47047 0.91983 0.0
C792 C 0.66227 0.45628 0.90258 0.0
C793 C 0.67422 0.44487 0.82057 0.0
C794 C 0.70689 0.38619 0.79686 0.0
C795 C 0.69425 0.40344 0.81617 0.0
C796 C 0.6538 0.45106 0.87042 0.0
C797 C 0.66864 0.43526 0.85214 0.0
H798 H 0.75679 0.34755 0.80312 0.0
H799 H 0.73639 0.37603 0.83509 0.0
H800 H 0.6911 0.43738 0.77867 0.0
H801 H 0.59801 0.48123 0.86117 0.0
H802 H 0.62333 0.45657 0.83123 0.0
C803 C 0.71883 0.61453 0.67761 0.0
C804 C 0.74436 0.63553 0.67495 0.0
C805 C 0.71279 0.59865 0.70657 0.0
C806 C 0.73043 0.61131 0.7907 0.0
H807 H 0.6776 0.53525 0.80219 0.0
C808 C 0.6792 0.57654 0.90794 0.0
C809 C 0.65001 0.56581 0.90428 0.0
C810 C 0.69508 0.57867 0.88216 0.0
C811 C 0.69239 0.55652 0.79936 0.0
H812 H 0.78463 0.65469 0.69908 0.0
H813 H 0.77453 0.62639 0.7498 0.0
H814 H 0.69908 0.54923 0.75196 0.0
H815 H 0.61475 0.54767 0.87095 0.0
H816 H 0.64233 0.55172 0.82602 0.0
H817 H 0.72292 0.61927 0.83734 0.0
C818 C 0.75888 0.62253 0.72974 0.0
C819 C 0.70474 0.5645 0.77063 0.0
C820 C 0.76485 0.63846 0.70071 0.0
C821 C 0.63718 0.55614 0.8746 0.0
C822 C 0.65306 0.55822 0.84886 0.0
C823 C 0.71812 0.60335 0.81934 0.0
C824 C 0.73227 0.6035 0.73342 0.0
C825 C 0.72328 0.59238 0.76562 0.0
C826 C 0.68213 0.57013 0.85213 0.0
C827 C 0.69832 0.57625 0.82368 0.0
H828 H 0.70282 0.61205 0.65787 0.0
H829 H 0.69204 0.58437 0.70847 0.0
H830 H 0.74421 0.63314 0.78759 0.0
H831 H 0.6898 0.58382 0.93058 0.0
H832 H 0.71749 0.58754 0.88561 0.0
C833 C 0.75891 0.67946 0.27495 0.0
C834 C 0.74261 0.6786 0.30016 0.0
C835 C 0.7481 0.66201 0.2491 0.0
C836 C 0.68833 0.5998 0.22223 0.0
H837 H 0.70005 0.63891 0.13847 0.0
C838 C 0.6243 0.54578 0.11321 0.0
C839 C 0.61403 0.56442 0.08993 0.0
C840 C 0.64577 0.55739 0.1361 0.0
C841 C 0.69639 0.62767 0.16165 0.0
H842 H 0.70334 0.65792 0.3195 0.0
H843 H 0.68416 0.62793 0.27467 0.0
H844 H 0.72629 0.66234 0.18517 0.0
H845 H 0.61874 0.60963 0.07134 0.0
H846 H 0.65535 0.63031 0.11219 0.0
H847 H 0.65704 0.56627 0.19937 0.0
C848 C 0.70532 0.64158 0.27449 0.0
C849 C 0.71184 0.64094 0.1885 0.0
C850 C 0.71616 0.65887 0.30017 0.0
C851 C 0.62655 0.5948 0.08891 0.0
C852 C 0.64761 0.60658 0.11238 0.0
C853 C 0.67266 0.58678 0.19554 0.0
C854 C 0.72083 0.64339 0.24817 0.0
C855 C 0.70752 0.6275 0.21925 0.0
C856 C 0.65693 0.58809 0.13695 0.0
C857 C 0.67602 0.60073 0.16484 0.0
H858 H 0.77936 0.69467 0.27455 0.0
H859 H 0.76083 0.66367 0.22952 0.0
H860 H 0.68476 0.58844 0.24538 0.0
H861 H 0.61508 0.52219 0.11426 0.0
H862 H 0.65292 0.54224 0.1538 0.0
C863 C 0.40024 0.65562 0.30443 0.0
C864 C 0.39051 0.68092 0.29556 0.0
C865 C 0.41574 0.64563 0.28423 0.0
C866 C 0.4581 0.66444 0.21597 0.0
H867 H 0.42622 0.58251 0.19786 0.0
C868 C 0.51353 0.5961 0.14997 0.0
C869 C 0.49754 0.57898 0.12572 0.0
C870 C 0.50101 0.61041 0.16946 0.0
C871 C 0.43527 0.60544 0.20252 0.0
H872 H 0.39128 0.71707 0.26008 0.0
H873 H 0.41944 0.70021 0.22492 0.0
H874 H 0.40559 0.60496 0.23572 0.0
H875 H 0.45573 0.56338 0.10308 0.0
H876 H 0.43362 0.58785 0.13787 0.0
H877 H 0.48814 0.66466 0.18313 0.0
C878 C 0.41465 0.68784 0.24733 0.0
C879 C 0.42363 0.61823 0.22443 0.0
C880 C 0.39877 0.69764 0.26747 0.0
C881 C 0.46863 0.57647 0.12146 0.0
C882 C 0.45598 0.59038 0.14144 0.0
C883 C 0.47008 0.65146 0.19445 0.0
C884 C 0.42226 0.66103 0.25491 0.0
C885 C 0.43495 0.64783 0.2315 0.0
C886 C 0.47207 0.60757 0.16562 0.0
C887 C 0.45879 0.6218 0.1875 0.0
H888 H 0.39429 0.64256 0.32613 0.0
H889 H 0.42176 0.62522 0.29102 0.0
H890 H 0.46723 0.68728 0.22091 0.0
H891 H 0.53587 0.59859 0.15385 0.0
H892 H 0.51392 0.62324 0.18804 0.0
C893 C 0.71489 0.33079 0.19417 0.0
C894 C 0.72384 0.34125 0.22445 0.0
C895 C 0.69774 0.34434 0.17287 0.0
C896 C 0.67253 0.38725 0.12746 0.0
H897 H 0.61077 0.40593 0.16238 0.0
C898 C 0.60473 0.46088 0.06039 0.0
C899 C 0.57595 0.45298 0.0643 0.0
C900 C 0.62252 0.44515 0.07741 0.0
C901 C 0.62774 0.40059 0.15218 0.0
H902 H 0.7223 0.37388 0.25643 0.0
H903 H 0.69253 0.39794 0.21918 0.0
H904 H 0.64313 0.3837 0.1972 0.0
H905 H 0.5432 0.42135 0.08811 0.0
H906 H 0.57428 0.3939 0.11766 0.0
H907 H 0.65704 0.40422 0.08237 0.0
C908 C 0.69863 0.37924 0.21183 0.0
C909 C 0.6465 0.38821 0.17222 0.0
C910 C 0.71588 0.36578 0.23298 0.0
C911 C 0.56523 0.42813 0.08453 0.0
C912 C 0.58306 0.41251 0.10167 0.0
C913 C 0.65386 0.39988 0.10741 0.0
C914 C 0.68904 0.36841 0.18169 0.0
C915 C 0.66917 0.3815 0.16013 0.0
C916 C 0.61198 0.42125 0.09883 0.0
C917 C 0.63127 0.40671 0.11959 0.0
H918 H 0.72074 0.31175 0.18734 0.0
H919 H 0.69054 0.33535 0.14994 0.0
H920 H 0.68987 0.38243 0.11748 0.0
H921 H 0.61374 0.47987 0.045 0.0
H922 H 0.64471 0.45253 0.07482 0.0
loop_
_geom_bond_atom_site_label_1
_geom_bond_atom_site_label_2
_geom_bond_distance
_geom_bond_site_symmetry_2
_ccdc_geom_bond_type
C0 N1 1.317 . S
C0 N2 1.348 . S
C0 C3 1.485 . S
N1 C0 1.317 . S
N1 N5 1.370 . S
N2 C0 1.348 . S
N2 C4 1.346 . S
C3 C0 1.485 . S
C3 H7 0.960 . S
C3 H8 0.961 . S
C3 H9 0.960 . S
C4 N2 1.346 . S
C4 N5 1.307 . S
C4 C6 1.486 . S
N5 N1 1.370 . S
N5 C4 1.307 . S
C6 C4 1.486 . S
C6 H10 0.960 . S
C6 H11 0.960 . S
C6 H12 0.959 . S
H7 C3 0.960 . S
H8 C3 0.961 . S
H9 C3 0.960 . S
H10 C6 0.960 . S
H11 C6 0.960 . S
H12 C6 0.959 . S
C13 N14 1.317 . S
C13 N15 1.348 . S
C13 C16 1.485 . S
N14 C13 1.317 . S
N14 N18 1.370 . S
N15 C13 1.348 . S
N15 C17 1.346 . S
C16 C13 1.485 . S
C16 H20 0.960 . S
C16 H21 0.961 . S
C16 H22 0.960 . S
C17 N15 1.346 . S
C17 N18 1.307 . S
C17 C19 1.486 . S
N18 N14 1.370 . S
N18 C17 1.307 . S
C19 C17 1.486 . S
C19 H23 0.960 . S
C19 H24 0.960 . S
C19 H25 0.959 . S
H20 C16 0.960 . S
H21 C16 0.961 . S
H22 C16 0.960 . S
H23 C19 0.960 . S
H24 C19 0.960 . S
H25 C19 0.959 . S
C26 N27 1.317 . S
C26 N28 1.348 . S
C26 C29 1.485 . S
N27 C26 1.317 . S
N27 N31 1.370 . S
N28 C26 1.348 . S
N28 C30 1.346 . S
C29 C26 1.485 . S
C29 H33 0.960 . S
C29 H34 0.961 . S
C29 H35 0.960 . S
C30 N28 1.346 . S
C30 N31 1.307 . S
C30 C32 1.486 . S
N31 N27 1.370 . S
N31 C30 1.307 . S
C32 C30 1.486 . S
C32 H36 0.960 . S
C32 H37 0.960 . S
C32 H38 0.959 . S
H33 C29 0.960 . S
H34 C29 0.961 . S
H35 C29 0.960 . S
H36 C32 0.960 . S
H37 C32 0.960 . S
H38 C32 0.959 . S
C39 N40 1.317 . S
C39 N41 1.348 . S
C39 C42 1.485 . S
N40 C39 1.317 . S
N40 N44 1.370 . S
N41 C39 1.348 . S
N41 C43 1.346 . S
C42 C39 1.485 . S
C42 H46 0.960 . S
C42 H47 0.961 . S
C42 H48 0.960 . S
C43 N41 1.346 . S
C43 N44 1.307 . S
C43 C45 1.486 . S
N44 N40 1.370 . S
N44 C43 1.307 . S
C45 C43 1.486 . S
C45 H49 0.960 . S
C45 H50 0.960 . S
C45 H51 0.959 . S
H46 C42 0.960 . S
H47 C42 0.961 . S
H48 C42 0.960 . S
H49 C45 0.960 . S
H50 C45 0.960 . S
H51 C45 0.959 . S
C52 N53 1.317 . S
C52 N54 1.348 . S
C52 C55 1.485 . S
N53 C52 1.317 . S
N53 N57 1.370 . S
N54 C52 1.348 . S
N54 C56 1.346 . S
C55 C52 1.485 . S
C55 H59 0.960 . S
C55 H60 0.961 . S
C55 H61 0.960 . S
C56 N54 1.346 . S
C56 N57 1.307 . S
C56 C58 1.486 . S
N57 N53 1.370 . S
N57 C56 1.307 . S
C58 C56 1.486 . S
C58 H62 0.960 . S
C58 H63 0.960 . S
C58 H64 0.959 . S
H59 C55 0.960 . S
H60 C55 0.961 . S
H61 C55 0.960 . S
H62 C58 0.960 . S
H63 C58 0.960 . S
H64 C58 0.959 . S
C65 N66 1.317 . S
C65 N67 1.348 . S
C65 C68 1.485 . S
N66 C65 1.317 . S
N66 N70 1.370 . S
N67 C65 1.348 . S
N67 C69 1.346 . S
C68 C65 1.485 . S
C68 H72 0.960 . S
C68 H73 0.961 . S
C68 H74 0.960 . S
C69 N67 1.346 . S
C69 N70 1.307 . S
C69 C71 1.486 . S
N70 N66 1.370 . S
N70 C69 1.307 . S
C71 C69 1.486 . S
C71 H75 0.960 . S
C71 H76 0.960 . S
C71 H77 0.959 . S
H72 C68 0.960 . S
H73 C68 0.961 . S
H74 C68 0.960 . S
H75 C71 0.960 . S
H76 C71 0.960 . S
H77 C71 0.959 . S
C78 N79 1.317 . S
C78 N80 1.348 . S
C78 C81 1.485 . S
N79 C78 1.317 . S
N79 N83 1.370 . S
N80 C78 1.348 . S
N80 C82 1.346 . S
C81 C78 1.485 . S
C81 H85 0.960 . S
C81 H86 0.961 . S
C81 H87 0.960 . S
C82 N80 1.346 . S
C82 N83 1.307 . S
C82 C84 1.486 . S
N83 N79 1.370 . S
N83 C82 1.307 . S
C84 C82 1.486 . S
C84 H88 0.960 . S
C84 H89 0.960 . S
C84 H90 0.959 . S
H85 C81 0.960 . S
H86 C81 0.961 . S
H87 C81 0.960 . S
H88 C84 0.960 . S
H89 C84 0.960 . S
H90 C84 0.959 . S
C91 N92 1.317 . S
C91 N93 1.348 . S
C91 C94 1.485 . S
N92 C91 1.317 . S
N92 N96 1.370 . S
N93 C91 1.348 . S
N93 C95 1.346 . S
C94 C91 1.485 . S
C94 H98 0.960 . S
C94 H99 0.961 . S
C94 H100 0.960 . S
C95 N93 1.346 . S
C95 N96 1.307 . S
C95 C97 1.486 . S
N96 N92 1.370 . S
N96 C95 1.307 . S
C97 C95 1.486 . S
C97 H101 0.960 . S
C97 H102 0.960 . S
C97 H103 0.959 . S
H98 C94 0.960 . S
H99 C94 0.961 . S
H100 C94 0.960 . S
H101 C97 0.960 . S
H102 C97 0.960 . S
H103 C97 0.959 . S
Co104 O107 2.042 . S
Co104 O114 2.264 . S
Co104 O133 2.286 . S
Co104 O134 2.069 . S
Co104 O136 2.015 . S
Co105 O107 2.122 . S
Co105 O113 2.073 . S
Co105 O114 2.327 . S
Co105 O115 1.976 . S
Co106 O107 2.087 . S
Co106 O109 2.087 . S
Co106 O116 2.111 . S
Co106 O117 2.143 . S
Co106 O121 2.111 . S
Co106 O135 2.143 . S
O107 Co104 2.042 . S
O107 Co105 2.122 . S
O107 Co106 2.087 . S
O107 H108 0.980 . S
H108 O107 0.980 . S
O109 Co106 2.087 . S
O109 Co110 2.042 1_455 S
O109 Co111 2.122 1_455 S
O109 H112 0.980 . S
Co110 O109 2.042 1_655 S
Co110 O118 2.286 . S
Co110 O119 2.069 . S
Co110 O120 2.015 . S
Co110 O123 2.264 . S
Co111 O109 2.122 1_655 S
Co111 O122 1.976 . S
Co111 O123 2.327 . S
Co111 O124 2.073 . S
H112 O109 0.980 . S
O113 Co105 2.073 . S
O113 C128 1.245 . S
O114 Co104 2.264 . S
O114 Co105 2.327 . S
O114 C128 1.257 . S
O115 Co105 1.976 . S
O115 C127 1.251 . S
O116 Co106 2.111 . S
O116 C127 1.274 . S
O117 Co106 2.143 . S
O117 C130 1.246 1_455 S
O118 Co110 2.286 . S
O118 C129 1.259 . S
O119 Co110 2.069 . S
O119 C129 1.289 . S
O120 Co110 2.015 . S
O120 C130 1.257 . S
O121 Co106 2.111 . S
O121 C131 1.274 1_455 S
O122 Co111 1.976 . S
O122 C131 1.251 . S
O123 Co110 2.264 . S
O123 Co111 2.327 . S
O123 C132 1.257 . S
O124 Co111 2.073 . S
O124 C132 1.245 . S
C125 O133 1.259 . S
C125 O134 1.289 . S
C126 O135 1.246 . S
C126 O136 1.257 . S
C127 O115 1.251 . S
C127 O116 1.274 . S
C128 O113 1.245 . S
C128 O114 1.257 . S
C129 O118 1.259 . S
C129 O119 1.289 . S
C130 O117 1.246 1_655 S
C130 O120 1.257 . S
C131 O121 1.274 1_655 S
C131 O122 1.251 . S
C132 O123 1.257 . S
C132 O124 1.245 . S
O133 Co104 2.286 . S
O133 C125 1.259 . S
O134 Co104 2.069 . S
O134 C125 1.289 . S
O135 Co106 2.143 . S
O135 C126 1.246 . S
O136 Co104 2.015 . S
O136 C126 1.257 . S
Co137 O140 2.042 . S
Co137 O147 2.264 . S
Co137 O166 2.286 . S
Co137 O167 2.069 . S
Co137 O169 2.015 . S
Co138 O140 2.122 . S
Co138 O146 2.073 . S
Co138 O147 2.327 . S
Co138 O148 1.976 . S
Co139 O140 2.087 1_545 S
Co139 O142 2.087 . S
Co139 O149 2.111 1_545 S
Co139 O150 2.143 . S
Co139 O154 2.111 . S
Co139 O168 2.143 1_545 S
O140 Co137 2.042 . S
O140 Co138 2.122 . S
O140 Co139 2.087 1_565 S
O140 H141 0.980 1_565 S
H141 O140 0.980 1_545 S
O142 Co139 2.087 . S
O142 Co143 2.042 . S
O142 Co144 2.122 . S
O142 H145 0.980 . S
Co143 O142 2.042 . S
Co143 O151 2.286 . S
Co143 O152 2.069 . S
Co143 O153 2.015 . S
Co143 O156 2.264 . S
Co144 O142 2.122 . S
Co144 O155 1.976 . S
Co144 O156 2.327 . S
Co144 O157 2.073 . S
H145 O142 0.980 . S
O146 Co138 2.073 . S
O146 C161 1.245 . S
O147 Co137 2.264 . S
O147 Co138 2.327 . S
O147 C161 1.257 . S
O148 Co138 1.976 . S
O148 C160 1.251 . S
O149 Co139 2.111 1_565 S
O149 C160 1.274 . S
O150 Co139 2.143 . S
O150 C163 1.246 . S
O151 Co143 2.286 . S
O151 C162 1.259 . S
O152 Co143 2.069 . S
O152 C162 1.289 . S
O153 Co143 2.015 . S
O153 C163 1.257 . S
O154 Co139 2.111 . S
O154 C164 1.274 . S
O155 Co144 1.976 . S
O155 C164 1.251 . S
O156 Co143 2.264 . S
O156 Co144 2.327 . S
O156 C165 1.257 . S
O157 Co144 2.073 . S
O157 C165 1.245 . S
C158 O166 1.259 . S
C158 O167 1.289 . S
C159 O168 1.246 . S
C159 O169 1.257 . S
C160 O148 1.251 . S
C160 O149 1.274 . S
C161 O146 1.245 . S
C161 O147 1.257 . S
C162 O151 1.259 . S
C162 O152 1.289 . S
C163 O150 1.246 . S
C163 O153 1.257 . S
C164 O154 1.274 . S
C164 O155 1.251 . S
C165 O156 1.257 . S
C165 O157 1.245 . S
O166 Co137 2.286 . S
O166 C158 1.259 . S
O167 Co137 2.069 . S
O167 C158 1.289 . S
O168 Co139 2.143 1_565 S
O168 C159 1.246 . S
O169 Co137 2.015 . S
O169 C159 1.257 . S
Co170 O173 2.042 . S
Co170 O180 2.264 . S
Co170 O199 2.286 . S
Co170 O200 2.069 . S
Co170 O202 2.015 . S
Co171 O173 2.122 . S
Co171 O179 2.073 . S
Co171 O180 2.327 . S
Co171 O181 1.976 . S
Co172 O173 2.087 . S
Co172 O175 2.087 1_554 S
Co172 O182 2.111 . S
Co172 O183 2.143 1_554 S
Co172 O187 2.111 1_554 S
Co172 O201 2.143 . S
O173 Co170 2.042 . S
O173 Co171 2.122 . S
O173 Co172 2.087 . S
O173 H174 0.980 . S
H174 O173 0.980 . S
O175 Co172 2.087 1_556 S
O175 Co176 2.042 . S
O175 Co177 2.122 . S
O175 H178 0.980 . S
Co176 O175 2.042 . S
Co176 O184 2.286 . S
Co176 O185 2.069 . S
Co176 O186 2.015 . S
Co176 O189 2.264 . S
Co177 O175 2.122 . S
Co177 O188 1.976 . S
Co177 O189 2.327 . S
Co177 O190 2.073 . S
H178 O175 0.980 . S
O179 Co171 2.073 . S
O179 C194 1.245 . S
O180 Co170 2.264 . S
O180 Co171 2.327 . S
O180 C194 1.257 . S
O181 Co171 1.976 . S
O181 C193 1.251 . S
O182 Co172 2.111 . S
O182 C193 1.274 . S
O183 Co172 2.143 1_556 S
O183 C196 1.246 . S
O184 Co176 2.286 . S
O184 C195 1.259 . S
O185 Co176 2.069 . S
O185 C195 1.289 . S
O186 Co176 2.015 . S
O186 C196 1.257 . S
O187 Co172 2.111 1_556 S
O187 C197 1.274 . S
O188 Co177 1.976 . S
O188 C197 1.251 . S
O189 Co176 2.264 . S
O189 Co177 2.327 . S
O189 C198 1.257 . S
O190 Co177 2.073 . S
O190 C198 1.245 . S
C191 O199 1.259 . S
C191 O200 1.289 . S
C192 O201 1.246 . S
C192 O202 1.257 . S
C193 O181 1.251 . S
C193 O182 1.274 . S
C194 O179 1.245 . S
C194 O180 1.257 . S
C195 O184 1.259 . S
C195 O185 1.289 . S
C196 O183 1.246 . S
C196 O186 1.257 . S
C197 O187 1.274 . S
C197 O188 1.251 . S
C198 O189 1.257 . S
C198 O190 1.245 . S
O199 Co170 2.286 . S
O199 C191 1.259 . S
O200 Co170 2.069 . S
O200 C191 1.289 . S
O201 Co172 2.143 . S
O201 C192 1.246 . S
O202 Co170 2.015 . S
O202 C192 1.257 . S
C203 C204 1.349 . S
C203 C205 1.327 . S
C203 H228 0.950 . S
C204 C203 1.349 . S
C204 C220 1.349 . S
C205 C203 1.327 . S
C205 C224 1.429 . S
C205 H229 0.950 . S
C206 C223 1.574 . S
C206 C225 1.368 . S
C206 H230 0.949 . S
H207 C211 0.949 . S
C208 C209 1.349 . S
C208 C210 1.327 . S
C208 H231 0.950 . S
C209 C208 1.349 . S
C209 C221 1.349 . S
C210 C208 1.327 . S
C210 C226 1.429 . S
C210 H232 0.950 . S
C211 H207 0.949 . S
C211 C219 1.574 . S
C211 C227 1.368 . S
H212 C220 0.950 . S
H213 C218 0.950 . S
H214 C219 0.949 . S
H215 C221 0.950 . S
H216 C222 0.950 . S
H217 C223 0.949 . S
C218 H213 0.950 . S
C218 C220 1.327 . S
C218 C224 1.429 . S
C219 C211 1.574 . S
C219 H214 0.949 . S
C219 C225 1.368 . S
C220 C204 1.349 . S
C220 H212 0.950 . S
C220 C218 1.327 . S
C221 C209 1.349 . S
C221 H215 0.950 . S
C221 C222 1.327 . S
C222 H216 0.950 . S
C222 C221 1.327 . S
C222 C226 1.429 . S
C223 C206 1.574 . S
C223 H217 0.949 . S
C223 C227 1.368 . S
C224 C205 1.429 . S
C224 C218 1.429 . S
C224 C225 1.523 . S
C225 C206 1.368 . S
C225 C219 1.368 . S
C225 C224 1.523 . S
C226 C210 1.429 . S
C226 C222 1.429 . S
C226 C227 1.523 . S
C227 C211 1.368 . S
C227 C223 1.368 . S
C227 C226 1.523 . S
H228 C203 0.950 . S
H229 C205 0.950 . S
H230 C206 0.949 . S
H231 C208 0.950 . S
H232 C210 0.950 . S
C233 C234 1.349 . S
C233 C235 1.327 . S
C233 H258 0.950 . S
C234 C233 1.349 . S
C234 C250 1.349 . S
C235 C233 1.327 . S
C235 C254 1.429 . S
C235 H259 0.950 . S
C236 C253 1.574 . S
C236 C255 1.368 . S
C236 H260 0.949 . S
H237 C241 0.949 . S
C238 C239 1.349 . S
C238 C240 1.327 . S
C238 H261 0.950 . S
C239 C238 1.349 . S
C239 C251 1.349 . S
C240 C238 1.327 . S
C240 C256 1.429 . S
C240 H262 0.950 . S
C241 H237 0.949 . S
C241 C249 1.574 . S
C241 C257 1.368 . S
H242 C250 0.950 . S
H243 C248 0.950 . S
H244 C249 0.949 . S
H245 C251 0.950 . S
H246 C252 0.950 . S
H247 C253 0.949 . S
C248 H243 0.950 . S
C248 C250 1.327 . S
C248 C254 1.429 . S
C249 C241 1.574 . S
C249 H244 0.949 . S
C249 C255 1.368 . S
C250 C234 1.349 . S
C250 H242 0.950 . S
C250 C248 1.327 . S
C251 C239 1.349 . S
C251 H245 0.950 . S
C251 C252 1.327 . S
C252 H246 0.950 . S
C252 C251 1.327 . S
C252 C256 1.429 . S
C253 C236 1.574 . S
C253 H247 0.949 . S
C253 C257 1.368 . S
C254 C235 1.429 . S
C254 C248 1.429 . S
C254 C255 1.523 . S
C255 C236 1.368 . S
C255 C249 1.368 . S
C255 C254 1.523 . S
C256 C240 1.429 . S
C256 C252 1.429 . S
C256 C257 1.523 . S
C257 C241 1.368 . S
C257 C253 1.368 . S
C257 C256 1.523 . S
H258 C233 0.950 . S
H259 C235 0.950 . S
H260 C236 0.949 . S
H261 C238 0.950 . S
H262 C240 0.950 . S
C263 C264 1.349 . S
C263 C265 1.327 . S
C263 H288 0.950 . S
C264 C263 1.349 . S
C264 C280 1.349 . S
C265 C263 1.327 . S
C265 C284 1.429 . S
C265 H289 0.950 . S
C266 C283 1.574 . S
C266 C285 1.368 . S
C266 H290 0.949 . S
H267 C271 0.949 . S
C268 C269 1.349 . S
C268 C270 1.327 . S
C268 H291 0.950 . S
C269 C268 1.349 . S
C269 C281 1.349 . S
C270 C268 1.327 . S
C270 C286 1.429 . S
C270 H292 0.950 . S
C271 H267 0.949 . S
C271 C279 1.574 . S
C271 C287 1.368 . S
H272 C280 0.950 . S
H273 C278 0.950 . S
H274 C279 0.949 . S
H275 C281 0.950 . S
H276 C282 0.950 . S
H277 C283 0.949 . S
C278 H273 0.950 . S
C278 C280 1.327 . S
C278 C284 1.429 . S
C279 C271 1.574 . S
C279 H274 0.949 . S
C279 C285 1.368 . S
C280 C264 1.349 . S
C280 H272 0.950 . S
C280 C278 1.327 . S
C281 C269 1.349 . S
C281 H275 0.950 . S
C281 C282 1.327 . S
C282 H276 0.950 . S
C282 C281 1.327 . S
C282 C286 1.429 . S
C283 C266 1.574 . S
C283 H277 0.949 . S
C283 C287 1.368 . S
C284 C265 1.429 . S
C284 C278 1.429 . S
C284 C285 1.523 . S
C285 C266 1.368 . S
C285 C279 1.368 . S
C285 C284 1.523 . S
C286 C270 1.429 . S
C286 C282 1.429 . S
C286 C287 1.523 . S
C287 C271 1.368 . S
C287 C283 1.368 . S
C287 C286 1.523 . S
H288 C263 0.950 . S
H289 C265 0.950 . S
H290 C266 0.949 . S
H291 C268 0.950 . S
H292 C270 0.950 . S
C293 C294 1.349 . S
C293 C295 1.327 . S
C293 H318 0.950 . S
C294 C293 1.349 . S
C294 C310 1.349 . S
C295 C293 1.327 . S
C295 C314 1.429 . S
C295 H319 0.950 . S
C296 C313 1.574 . S
C296 C315 1.368 . S
C296 H320 0.949 . S
H297 C301 0.949 . S
C298 C299 1.349 . S
C298 C300 1.327 . S
C298 H321 0.950 . S
C299 C298 1.349 . S
C299 C311 1.349 . S
C300 C298 1.327 . S
C300 C316 1.429 . S
C300 H322 0.950 . S
C301 H297 0.949 . S
C301 C309 1.574 . S
C301 C317 1.368 . S
H302 C310 0.950 . S
H303 C308 0.950 . S
H304 C309 0.949 . S
H305 C311 0.950 . S
H306 C312 0.950 . S
H307 C313 0.949 . S
C308 H303 0.950 . S
C308 C310 1.327 . S
C308 C314 1.429 . S
C309 C301 1.574 . S
C309 H304 0.949 . S
C309 C315 1.368 . S
C310 C294 1.349 . S
C310 H302 0.950 . S
C310 C308 1.327 . S
C311 C299 1.349 . S
C311 H305 0.950 . S
C311 C312 1.327 . S
C312 H306 0.950 . S
C312 C311 1.327 . S
C312 C316 1.429 . S
C313 C296 1.574 . S
C313 H307 0.949 . S
C313 C317 1.368 . S
C314 C295 1.429 . S
C314 C308 1.429 . S
C314 C315 1.523 . S
C315 C296 1.368 . S
C315 C309 1.368 . S
C315 C314 1.523 . S
C316 C300 1.429 . S
C316 C312 1.429 . S
C316 C317 1.523 . S
C317 C301 1.368 . S
C317 C313 1.368 . S
C317 C316 1.523 . S
H318 C293 0.950 . S
H319 C295 0.950 . S
H320 C296 0.949 . S
H321 C298 0.950 . S
H322 C300 0.950 . S
C323 C324 1.349 . S
C323 C325 1.327 . S
C323 H348 0.950 . S
C324 C323 1.349 . S
C324 C340 1.349 . S
C325 C323 1.327 . S
C325 C344 1.429 . S
C325 H349 0.950 . S
C326 C343 1.574 . S
C326 C345 1.368 . S
C326 H350 0.949 . S
H327 C331 0.949 . S
C328 C329 1.349 . S
C328 C330 1.327 . S
C328 H351 0.950 . S
C329 C328 1.349 . S
C329 C341 1.349 . S
C330 C328 1.327 . S
C330 C346 1.429 . S
C330 H352 0.950 . S
C331 H327 0.949 . S
C331 C339 1.574 . S
C331 C347 1.368 . S
H332 C340 0.950 . S
H333 C338 0.950 . S
H334 C339 0.949 . S
H335 C341 0.950 . S
H336 C342 0.950 . S
H337 C343 0.949 . S
C338 H333 0.950 . S
C338 C340 1.327 . S
C338 C344 1.429 . S
C339 C331 1.574 . S
C339 H334 0.949 . S
C339 C345 1.368 . S
C340 C324 1.349 . S
C340 H332 0.950 . S
C340 C338 1.327 . S
C341 C329 1.349 . S
C341 H335 0.950 . S
C341 C342 1.327 . S
C342 H336 0.950 . S
C342 C341 1.327 . S
C342 C346 1.429 . S
C343 C326 1.574 . S
C343 H337 0.949 . S
C343 C347 1.368 . S
C344 C325 1.429 . S
C344 C338 1.429 . S
C344 C345 1.523 . S
C345 C326 1.368 . S
C345 C339 1.368 . S
C345 C344 1.523 . S
C346 C330 1.429 . S
C346 C342 1.429 . S
C346 C347 1.523 . S
C347 C331 1.368 . S
C347 C343 1.368 . S
C347 C346 1.523 . S
H348 C323 0.950 . S
H349 C325 0.950 . S
H350 C326 0.949 . S
H351 C328 0.950 . S
H352 C330 0.950 . S
C353 C354 1.349 . S
C353 C355 1.327 . S
C353 H378 0.950 . S
C354 C353 1.349 . S
C354 C370 1.349 . S
C355 C353 1.327 . S
C355 C374 1.429 . S
C355 H379 0.950 . S
C356 C373 1.574 . S
C356 C375 1.368 . S
C356 H380 0.949 . S
H357 C361 0.949 . S
C358 C359 1.349 . S
C358 C360 1.327 . S
C358 H381 0.950 . S
C359 C358 1.349 . S
C359 C371 1.349 . S
C360 C358 1.327 . S
C360 C376 1.429 . S
C360 H382 0.950 . S
C361 H357 0.949 . S
C361 C369 1.574 . S
C361 C377 1.368 . S
H362 C370 0.950 . S
H363 C368 0.950 . S
H364 C369 0.949 . S
H365 C371 0.950 . S
H366 C372 0.950 . S
H367 C373 0.949 . S
C368 H363 0.950 . S
C368 C370 1.327 . S
C368 C374 1.429 . S
C369 C361 1.574 . S
C369 H364 0.949 . S
C369 C375 1.368 . S
C370 C354 1.349 . S
C370 H362 0.950 . S
C370 C368 1.327 . S
C371 C359 1.349 . S
C371 H365 0.950 . S
C371 C372 1.327 . S
C372 H366 0.950 . S
C372 C371 1.327 . S
C372 C376 1.429 . S
C373 C356 1.574 . S
C373 H367 0.949 . S
C373 C377 1.368 . S
C374 C355 1.429 . S
C374 C368 1.429 . S
C374 C375 1.523 . S
C375 C356 1.368 . S
C375 C369 1.368 . S
C375 C374 1.523 . S
C376 C360 1.429 . S
C376 C372 1.429 . S
C376 C377 1.523 . S
C377 C361 1.368 . S
C377 C373 1.368 . S
C377 C376 1.523 . S
H378 C353 0.950 . S
H379 C355 0.950 . S
H380 C356 0.949 . S
H381 C358 0.950 . S
H382 C360 0.950 . S
C383 C384 1.349 . S
C383 C385 1.327 . S
C383 H408 0.950 . S
C384 C383 1.349 . S
C384 C400 1.349 . S
C385 C383 1.327 . S
C385 C404 1.429 . S
C385 H409 0.950 . S
C386 C403 1.574 . S
C386 C405 1.368 . S
C386 H410 0.949 . S
H387 C391 0.949 . S
C388 C389 1.349 . S
C388 C390 1.327 . S
C388 H411 0.950 . S
C389 C388 1.349 . S
C389 C401 1.349 . S
C390 C388 1.327 . S
C390 C406 1.429 . S
C390 H412 0.950 . S
C391 H387 0.949 . S
C391 C399 1.574 . S
C391 C407 1.368 . S
H392 C400 0.950 . S
H393 C398 0.950 . S
H394 C399 0.949 . S
H395 C401 0.950 . S
H396 C402 0.950 . S
H397 C403 0.949 . S
C398 H393 0.950 . S
C398 C400 1.327 . S
C398 C404 1.429 . S
C399 C391 1.574 . S
C399 H394 0.949 . S
C399 C405 1.368 . S
C400 C384 1.349 . S
C400 H392 0.950 . S
C400 C398 1.327 . S
C401 C389 1.349 . S
C401 H395 0.950 . S
C401 C402 1.327 . S
C402 H396 0.950 . S
C402 C401 1.327 . S
C402 C406 1.429 . S
C403 C386 1.574 . S
C403 H397 0.949 . S
C403 C407 1.368 . S
C404 C385 1.429 . S
C404 C398 1.429 . S
C404 C405 1.523 . S
C405 C386 1.368 . S
C405 C399 1.368 . S
C405 C404 1.523 . S
C406 C390 1.429 . S
C406 C402 1.429 . S
C406 C407 1.523 . S
C407 C391 1.368 . S
C407 C403 1.368 . S
C407 C406 1.523 . S
H408 C383 0.950 . S
H409 C385 0.950 . S
H410 C386 0.949 . S
H411 C388 0.950 . S
H412 C390 0.950 . S
C413 C414 1.349 . S
C413 C415 1.327 . S
C413 H438 0.950 . S
C414 C413 1.349 . S
C414 C430 1.349 . S
C415 C413 1.327 . S
C415 C434 1.429 . S
C415 H439 0.950 . S
C416 C433 1.574 . S
C416 C435 1.368 . S
C416 H440 0.949 . S
H417 C421 0.949 . S
C418 C419 1.349 . S
C418 C420 1.327 . S
C418 H441 0.950 . S
C419 C418 1.349 . S
C419 C431 1.349 . S
C420 C418 1.327 . S
C420 C436 1.429 . S
C420 H442 0.950 . S
C421 H417 0.949 . S
C421 C429 1.574 . S
C421 C437 1.368 . S
H422 C430 0.950 . S
H423 C428 0.950 . S
H424 C429 0.949 . S
H425 C431 0.950 . S
H426 C432 0.950 . S
H427 C433 0.949 . S
C428 H423 0.950 . S
C428 C430 1.327 . S
C428 C434 1.429 . S
C429 C421 1.574 . S
C429 H424 0.949 . S
C429 C435 1.368 . S
C430 C414 1.349 . S
C430 H422 0.950 . S
C430 C428 1.327 . S
C431 C419 1.349 . S
C431 H425 0.950 . S
C431 C432 1.327 . S
C432 H426 0.950 . S
C432 C431 1.327 . S
C432 C436 1.429 . S
C433 C416 1.574 . S
C433 H427 0.949 . S
C433 C437 1.368 . S
C434 C415 1.429 . S
C434 C428 1.429 . S
C434 C435 1.523 . S
C435 C416 1.368 . S
C435 C429 1.368 . S
C435 C434 1.523 . S
C436 C420 1.429 . S
C436 C432 1.429 . S
C436 C437 1.523 . S
C437 C421 1.368 . S
C437 C433 1.368 . S
C437 C436 1.523 . S
H438 C413 0.950 . S
H439 C415 0.950 . S
H440 C416 0.949 . S
H441 C418 0.950 . S
H442 C420 0.950 . S
C443 C444 1.349 . S
C443 C445 1.327 . S
C443 H468 0.950 . S
C444 C443 1.349 . S
C444 C460 1.349 . S
C445 C443 1.327 . S
C445 C464 1.429 . S
C445 H469 0.950 . S
C446 C463 1.574 . S
C446 C465 1.368 . S
C446 H470 0.949 . S
H447 C451 0.949 . S
C448 C449 1.349 . S
C448 C450 1.327 . S
C448 H471 0.950 . S
C449 C448 1.349 . S
C449 C461 1.349 . S
C450 C448 1.327 . S
C450 C466 1.429 . S
C450 H472 0.950 . S
C451 H447 0.949 . S
C451 C459 1.574 . S
C451 C467 1.368 . S
H452 C460 0.950 . S
H453 C458 0.950 . S
H454 C459 0.949 . S
H455 C461 0.950 . S
H456 C462 0.950 . S
H457 C463 0.949 . S
C458 H453 0.950 . S
C458 C460 1.327 . S
C458 C464 1.429 . S
C459 C451 1.574 . S
C459 H454 0.949 . S
C459 C465 1.368 . S
C460 C444 1.349 . S
C460 H452 0.950 . S
C460 C458 1.327 . S
C461 C449 1.349 . S
C461 H455 0.950 . S
C461 C462 1.327 . S
C462 H456 0.950 . S
C462 C461 1.327 . S
C462 C466 1.429 . S
C463 C446 1.574 . S
C463 H457 0.949 . S
C463 C467 1.368 . S
C464 C445 1.429 . S
C464 C458 1.429 . S
C464 C465 1.523 . S
C465 C446 1.368 . S
C465 C459 1.368 . S
C465 C464 1.523 . S
C466 C450 1.429 . S
C466 C462 1.429 . S
C466 C467 1.523 . S
C467 C451 1.368 . S
C467 C463 1.368 . S
C467 C466 1.523 . S
H468 C443 0.950 . S
H469 C445 0.950 . S
H470 C446 0.949 . S
H471 C448 0.950 . S
H472 C450 0.950 . S
C473 C474 1.349 . S
C473 C475 1.327 . S
C473 H498 0.950 . S
C474 C473 1.349 . S
C474 C490 1.349 . S
C475 C473 1.327 . S
C475 C494 1.429 . S
C475 H499 0.950 . S
C476 C493 1.574 . S
C476 C495 1.368 . S
C476 H500 0.949 . S
H477 C481 0.949 . S
C478 C479 1.349 . S
C478 C480 1.327 . S
C478 H501 0.950 . S
C479 C478 1.349 . S
C479 C491 1.349 . S
C480 C478 1.327 . S
C480 C496 1.429 . S
C480 H502 0.950 . S
C481 H477 0.949 . S
C481 C489 1.574 . S
C481 C497 1.368 . S
H482 C490 0.950 . S
H483 C488 0.950 . S
H484 C489 0.949 . S
H485 C491 0.950 . S
H486 C492 0.950 . S
H487 C493 0.949 . S
C488 H483 0.950 . S
C488 C490 1.327 . S
C488 C494 1.429 . S
C489 C481 1.574 . S
C489 H484 0.949 . S
C489 C495 1.368 . S
C490 C474 1.349 . S
C490 H482 0.950 . S
C490 C488 1.327 . S
C491 C479 1.349 . S
C491 H485 0.950 . S
C491 C492 1.327 . S
C492 H486 0.950 . S
C492 C491 1.327 . S
C492 C496 1.429 . S
C493 C476 1.574 . S
C493 H487 0.949 . S
C493 C497 1.368 . S
C494 C475 1.429 . S
C494 C488 1.429 . S
C494 C495 1.523 . S
C495 C476 1.368 . S
C495 C489 1.368 . S
C495 C494 1.523 . S
C496 C480 1.429 . S
C496 C492 1.429 . S
C496 C497 1.523 . S
C497 C481 1.368 . S
C497 C493 1.368 . S
C497 C496 1.523 . S
H498 C473 0.950 . S
H499 C475 0.950 . S
H500 C476 0.949 . S
H501 C478 0.950 . S
H502 C480 0.950 . S
C503 C504 1.349 . S
C503 C505 1.327 . S
C503 H528 0.950 . S
C504 C503 1.349 . S
C504 C520 1.349 . S
C505 C503 1.327 . S
C505 C524 1.429 . S
C505 H529 0.950 . S
C506 C523 1.574 . S
C506 C525 1.368 . S
C506 H530 0.949 . S
H507 C511 0.949 . S
C508 C509 1.349 . S
C508 C510 1.327 . S
C508 H531 0.950 . S
C509 C508 1.349 . S
C509 C521 1.349 . S
C510 C508 1.327 . S
C510 C526 1.429 . S
C510 H532 0.950 . S
C511 H507 0.949 . S
C511 C519 1.574 . S
C511 C527 1.368 . S
H512 C520 0.950 . S
H513 C518 0.950 . S
H514 C519 0.949 . S
H515 C521 0.950 . S
H516 C522 0.950 . S
H517 C523 0.949 . S
C518 H513 0.950 . S
C518 C520 1.327 . S
C518 C524 1.429 . S
C519 C511 1.574 . S
C519 H514 0.949 . S
C519 C525 1.368 . S
C520 C504 1.349 . S
C520 H512 0.950 . S
C520 C518 1.327 . S
C521 C509 1.349 . S
C521 H515 0.950 . S
C521 C522 1.327 . S
C522 H516 0.950 . S
C522 C521 1.327 . S
C522 C526 1.429 . S
C523 C506 1.574 . S
C523 H517 0.949 . S
C523 C527 1.368 . S
C524 C505 1.429 . S
C524 C518 1.429 . S
C524 C525 1.523 . S
C525 C506 1.368 . S
C525 C519 1.368 . S
C525 C524 1.523 . S
C526 C510 1.429 . S
C526 C522 1.429 . S
C526 C527 1.523 . S
C527 C511 1.368 . S
C527 C523 1.368 . S
C527 C526 1.523 . S
H528 C503 0.950 . S
H529 C505 0.950 . S
H530 C506 0.949 . S
H531 C508 0.950 . S
H532 C510 0.950 . S
C533 C534 1.349 . S
C533 C535 1.327 . S
C533 H558 0.950 . S
C534 C533 1.349 . S
C534 C550 1.349 . S
C535 C533 1.327 . S
C535 C554 1.429 . S
C535 H559 0.950 . S
C536 C553 1.574 . S
C536 C555 1.368 . S
C536 H560 0.949 . S
H537 C541 0.949 . S
C538 C539 1.349 . S
C538 C540 1.327 . S
C538 H561 0.950 . S
C539 C538 1.349 . S
C539 C551 1.349 . S
C540 C538 1.327 . S
C540 C556 1.429 . S
C540 H562 0.950 . S
C541 H537 0.949 . S
C541 C549 1.574 . S
C541 C557 1.368 . S
H542 C550 0.950 . S
H543 C548 0.950 . S
H544 C549 0.949 . S
H545 C551 0.950 . S
H546 C552 0.950 . S
H547 C553 0.949 . S
C548 H543 0.950 . S
C548 C550 1.327 . S
C548 C554 1.429 . S
C549 C541 1.574 . S
C549 H544 0.949 . S
C549 C555 1.368 . S
C550 C534 1.349 . S
C550 H542 0.950 . S
C550 C548 1.327 . S
C551 C539 1.349 . S
C551 H545 0.950 . S
C551 C552 1.327 . S
C552 H546 0.950 . S
C552 C551 1.327 . S
C552 C556 1.429 . S
C553 C536 1.574 . S
C553 H547 0.949 . S
C553 C557 1.368 . S
C554 C535 1.429 . S
C554 C548 1.429 . S
C554 C555 1.523 . S
C555 C536 1.368 . S
C555 C549 1.368 . S
C555 C554 1.523 . S
C556 C540 1.429 . S
C556 C552 1.429 . S
C556 C557 1.523 . S
C557 C541 1.368 . S
C557 C553 1.368 . S
C557 C556 1.523 . S
H558 C533 0.950 . S
H559 C535 0.950 . S
H560 C536 0.949 . S
H561 C538 0.950 . S
H562 C540 0.950 . S
C563 C564 1.349 . S
C563 C565 1.327 . S
C563 H588 0.950 . S
C564 C563 1.349 . S
C564 C580 1.349 . S
C565 C563 1.327 . S
C565 C584 1.429 . S
C565 H589 0.950 . S
C566 C583 1.574 . S
C566 C585 1.368 . S
C566 H590 0.949 . S
H567 C571 0.949 . S
C568 C569 1.349 . S
C568 C570 1.327 . S
C568 H591 0.950 . S
C569 C568 1.349 . S
C569 C581 1.349 . S
C570 C568 1.327 . S
C570 C586 1.429 . S
C570 H592 0.950 . S
C571 H567 0.949 . S
C571 C579 1.574 . S
C571 C587 1.368 . S
H572 C580 0.950 . S
H573 C578 0.950 . S
H574 C579 0.949 . S
H575 C581 0.950 . S
H576 C582 0.950 . S
H577 C583 0.949 . S
C578 H573 0.950 . S
C578 C580 1.327 . S
C578 C584 1.429 . S
C579 C571 1.574 . S
C579 H574 0.949 . S
C579 C585 1.368 . S
C580 C564 1.349 . S
C580 H572 0.950 . S
C580 C578 1.327 . S
C581 C569 1.349 . S
C581 H575 0.950 . S
C581 C582 1.327 . S
C582 H576 0.950 . S
C582 C581 1.327 . S
C582 C586 1.429 . S
C583 C566 1.574 . S
C583 H577 0.949 . S
C583 C587 1.368 . S
C584 C565 1.429 . S
C584 C578 1.429 . S
C584 C585 1.523 . S
C585 C566 1.368 . S
C585 C579 1.368 . S
C585 C584 1.523 . S
C586 C570 1.429 . S
C586 C582 1.429 . S
C586 C587 1.523 . S
C587 C571 1.368 . S
C587 C583 1.368 . S
C587 C586 1.523 . S
H588 C563 0.950 . S
H589 C565 0.950 . S
H590 C566 0.949 . S
H591 C568 0.950 . S
H592 C570 0.950 . S
C593 C594 1.349 . S
C593 C595 1.327 . S
C593 H618 0.950 . S
C594 C593 1.349 . S
C594 C610 1.349 . S
C595 C593 1.327 . S
C595 C614 1.429 . S
C595 H619 0.950 . S
C596 C613 1.574 . S
C596 C615 1.368 . S
C596 H620 0.949 . S
H597 C601 0.949 . S
C598 C599 1.349 . S
C598 C600 1.327 . S
C598 H621 0.950 . S
C599 C598 1.349 . S
C599 C611 1.349 . S
C600 C598 1.327 . S
C600 C616 1.429 . S
C600 H622 0.950 . S
C601 H597 0.949 . S
C601 C609 1.574 . S
C601 C617 1.368 . S
H602 C610 0.950 . S
H603 C608 0.950 . S
H604 C609 0.949 . S
H605 C611 0.950 . S
H606 C612 0.950 . S
H607 C613 0.949 . S
C608 H603 0.950 . S
C608 C610 1.327 . S
C608 C614 1.429 . S
C609 C601 1.574 . S
C609 H604 0.949 . S
C609 C615 1.368 . S
C610 C594 1.349 . S
C610 H602 0.950 . S
C610 C608 1.327 . S
C611 C599 1.349 . S
C611 H605 0.950 . S
C611 C612 1.327 . S
C612 H606 0.950 . S
C612 C611 1.327 . S
C612 C616 1.429 . S
C613 C596 1.574 . S
C613 H607 0.949 . S
C613 C617 1.368 . S
C614 C595 1.429 . S
C614 C608 1.429 . S
C614 C615 1.523 . S
C615 C596 1.368 . S
C615 C609 1.368 . S
C615 C614 1.523 . S
C616 C600 1.429 . S
C616 C612 1.429 . S
C616 C617 1.523 . S
C617 C601 1.368 . S
C617 C613 1.368 . S
C617 C616 1.523 . S
H618 C593 0.950 . S
H619 C595 0.950 . S
H620 C596 0.949 . S
H621 C598 0.950 . S
H622 C600 0.950 . S
C623 C624 1.349 . S
C623 C625 1.327 . S
C623 H648 0.950 . S
C624 C623 1.349 . S
C624 C640 1.349 . S
C625 C623 1.327 . S
C625 C644 1.429 . S
C625 H649 0.950 . S
C626 C643 1.574 . S
C626 C645 1.368 . S
C626 H650 0.949 . S
H627 C631 0.949 . S
C628 C629 1.349 . S
C628 C630 1.327 . S
C628 H651 0.950 . S
C629 C628 1.349 . S
C629 C641 1.349 . S
C630 C628 1.327 . S
C630 C646 1.429 . S
C630 H652 0.950 . S
C631 H627 0.949 . S
C631 C639 1.574 . S
C631 C647 1.368 . S
H632 C640 0.950 . S
H633 C638 0.950 . S
H634 C639 0.949 . S
H635 C641 0.950 . S
H636 C642 0.950 . S
H637 C643 0.949 . S
C638 H633 0.950 . S
C638 C640 1.327 . S
C638 C644 1.429 . S
C639 C631 1.574 . S
C639 H634 0.949 . S
C639 C645 1.368 . S
C640 C624 1.349 . S
C640 H632 0.950 . S
C640 C638 1.327 . S
C641 C629 1.349 . S
C641 H635 0.950 . S
C641 C642 1.327 . S
C642 H636 0.950 . S
C642 C641 1.327 . S
C642 C646 1.429 . S
C643 C626 1.574 . S
C643 H637 0.949 . S
C643 C647 1.368 . S
C644 C625 1.429 . S
C644 C638 1.429 . S
C644 C645 1.523 . S
C645 C626 1.368 . S
C645 C639 1.368 . S
C645 C644 1.523 . S
C646 C630 1.429 . S
C646 C642 1.429 . S
C646 C647 1.523 . S
C647 C631 1.368 . S
C647 C643 1.368 . S
C647 C646 1.523 . S
H648 C623 0.950 . S
H649 C625 0.950 . S
H650 C626 0.949 . S
H651 C628 0.950 . S
H652 C630 0.950 . S
C653 C654 1.349 . S
C653 C655 1.327 . S
C653 H678 0.950 . S
C654 C653 1.349 . S
C654 C670 1.349 . S
C655 C653 1.327 . S
C655 C674 1.429 . S
C655 H679 0.950 . S
C656 C673 1.574 . S
C656 C675 1.368 . S
C656 H680 0.949 . S
H657 C661 0.949 . S
C658 C659 1.349 . S
C658 C660 1.327 . S
C658 H681 0.950 . S
C659 C658 1.349 . S
C659 C671 1.349 . S
C660 C658 1.327 . S
C660 C676 1.429 . S
C660 H682 0.950 . S
C661 H657 0.949 . S
C661 C669 1.574 . S
C661 C677 1.368 . S
H662 C670 0.950 . S
H663 C668 0.950 . S
H664 C669 0.949 . S
H665 C671 0.950 . S
H666 C672 0.950 . S
H667 C673 0.949 . S
C668 H663 0.950 . S
C668 C670 1.327 . S
C668 C674 1.429 . S
C669 C661 1.574 . S
C669 H664 0.949 . S
C669 C675 1.368 . S
C670 C654 1.349 . S
C670 H662 0.950 . S
C670 C668 1.327 . S
C671 C659 1.349 . S
C671 H665 0.950 . S
C671 C672 1.327 . S
C672 H666 0.950 . S
C672 C671 1.327 . S
C672 C676 1.429 . S
C673 C656 1.574 . S
C673 H667 0.949 . S
C673 C677 1.368 . S
C674 C655 1.429 . S
C674 C668 1.429 . S
C674 C675 1.523 . S
C675 C656 1.368 . S
C675 C669 1.368 . S
C675 C674 1.523 . S
C676 C660 1.429 . S
C676 C672 1.429 . S
C676 C677 1.523 . S
C677 C661 1.368 . S
C677 C673 1.368 . S
C677 C676 1.523 . S
H678 C653 0.950 . S
H679 C655 0.950 . S
H680 C656 0.949 . S
H681 C658 0.950 . S
H682 C660 0.950 . S
C683 C684 1.349 . S
C683 C685 1.327 . S
C683 H708 0.950 . S
C684 C683 1.349 . S
C684 C700 1.349 . S
C685 C683 1.327 . S
C685 C704 1.429 . S
C685 H709 0.950 . S
C686 C703 1.574 . S
C686 C705 1.368 . S
C686 H710 0.949 . S
H687 C691 0.949 . S
C688 C689 1.349 . S
C688 C690 1.327 . S
C688 H711 0.950 . S
C689 C688 1.349 . S
C689 C701 1.349 . S
C690 C688 1.327 . S
C690 C706 1.429 . S
C690 H712 0.950 . S
C691 H687 0.949 . S
C691 C699 1.574 . S
C691 C707 1.368 . S
H692 C700 0.950 . S
H693 C698 0.950 . S
H694 C699 0.949 . S
H695 C701 0.950 . S
H696 C702 0.950 . S
H697 C703 0.949 . S
C698 H693 0.950 . S
C698 C700 1.327 . S
C698 C704 1.429 . S
C699 C691 1.574 . S
C699 H694 0.949 . S
C699 C705 1.368 . S
C700 C684 1.349 . S
C700 H692 0.950 . S
C700 C698 1.327 . S
C701 C689 1.349 . S
C701 H695 0.950 . S
C701 C702 1.327 . S
C702 H696 0.950 . S
C702 C701 1.327 . S
C702 C706 1.429 . S
C703 C686 1.574 . S
C703 H697 0.949 . S
C703 C707 1.368 . S
C704 C685 1.429 . S
C704 C698 1.429 . S
C704 C705 1.523 . S
C705 C686 1.368 . S
C705 C699 1.368 . S
C705 C704 1.523 . S
C706 C690 1.429 . S
C706 C702 1.429 . S
C706 C707 1.523 . S
C707 C691 1.368 . S
C707 C703 1.368 . S
C707 C706 1.523 . S
H708 C683 0.950 . S
H709 C685 0.950 . S
H710 C686 0.949 . S
H711 C688 0.950 . S
H712 C690 0.950 . S
C713 C714 1.349 . S
C713 C715 1.327 . S
C713 H738 0.950 . S
C714 C713 1.349 . S
C714 C730 1.349 . S
C715 C713 1.327 . S
C715 C734 1.429 . S
C715 H739 0.950 . S
C716 C733 1.574 . S
C716 C735 1.368 . S
C716 H740 0.949 . S
H717 C721 0.949 . S
C718 C719 1.349 . S
C718 C720 1.327 . S
C718 H741 0.950 . S
C719 C718 1.349 . S
C719 C731 1.349 . S
C720 C718 1.327 . S
C720 C736 1.429 . S
C720 H742 0.950 . S
C721 H717 0.949 . S
C721 C729 1.574 . S
C721 C737 1.368 . S
H722 C730 0.950 . S
H723 C728 0.950 . S
H724 C729 0.949 . S
H725 C731 0.950 . S
H726 C732 0.950 . S
H727 C733 0.949 . S
C728 H723 0.950 . S
C728 C730 1.327 . S
C728 C734 1.429 . S
C729 C721 1.574 . S
C729 H724 0.949 . S
C729 C735 1.368 . S
C730 C714 1.349 . S
C730 H722 0.950 . S
C730 C728 1.327 . S
C731 C719 1.349 . S
C731 H725 0.950 . S
C731 C732 1.327 . S
C732 H726 0.950 . S
C732 C731 1.327 . S
C732 C736 1.429 . S
C733 C716 1.574 . S
C733 H727 0.949 . S
C733 C737 1.368 . S
C734 C715 1.429 . S
C734 C728 1.429 . S
C734 C735 1.523 . S
C735 C716 1.368 . S
C735 C729 1.368 . S
C735 C734 1.523 . S
C736 C720 1.429 . S
C736 C732 1.429 . S
C736 C737 1.523 . S
C737 C721 1.368 . S
C737 C733 1.368 . S
C737 C736 1.523 . S
H738 C713 0.950 . S
H739 C715 0.950 . S
H740 C716 0.949 . S
H741 C718 0.950 . S
H742 C720 0.950 . S
C743 C744 1.349 . S
C743 C745 1.327 . S
C743 H768 0.950 . S
C744 C743 1.349 . S
C744 C760 1.349 . S
C745 C743 1.327 . S
C745 C764 1.429 . S
C745 H769 0.950 . S
C746 C763 1.574 . S
C746 C765 1.368 . S
C746 H770 0.949 . S
H747 C751 0.949 . S
C748 C749 1.349 . S
C748 C750 1.327 . S
C748 H771 0.950 . S
C749 C748 1.349 . S
C749 C761 1.349 . S
C750 C748 1.327 . S
C750 C766 1.429 . S
C750 H772 0.950 . S
C751 H747 0.949 . S
C751 C759 1.574 . S
C751 C767 1.368 . S
H752 C760 0.950 . S
H753 C758 0.950 . S
H754 C759 0.949 . S
H755 C761 0.950 . S
H756 C762 0.950 . S
H757 C763 0.949 . S
C758 H753 0.950 . S
C758 C760 1.327 . S
C758 C764 1.429 . S
C759 C751 1.574 . S
C759 H754 0.949 . S
C759 C765 1.368 . S
C760 C744 1.349 . S
C760 H752 0.950 . S
C760 C758 1.327 . S
C761 C749 1.349 . S
C761 H755 0.950 . S
C761 C762 1.327 . S
C762 H756 0.950 . S
C762 C761 1.327 . S
C762 C766 1.429 . S
C763 C746 1.574 . S
C763 H757 0.949 . S
C763 C767 1.368 . S
C764 C745 1.429 . S
C764 C758 1.429 . S
C764 C765 1.523 . S
C765 C746 1.368 . S
C765 C759 1.368 . S
C765 C764 1.523 . S
C766 C750 1.429 . S
C766 C762 1.429 . S
C766 C767 1.523 . S
C767 C751 1.368 . S
C767 C763 1.368 . S
C767 C766 1.523 . S
H768 C743 0.950 . S
H769 C745 0.950 . S
H770 C746 0.949 . S
H771 C748 0.950 . S
H772 C750 0.950 . S
C773 C774 1.349 . S
C773 C775 1.327 . S
C773 H798 0.950 . S
C774 C773 1.349 . S
C774 C790 1.349 . S
C775 C773 1.327 . S
C775 C794 1.429 . S
C775 H799 0.950 . S
C776 C793 1.574 . S
C776 C795 1.368 . S
C776 H800 0.949 . S
H777 C781 0.949 . S
C778 C779 1.349 . S
C778 C780 1.327 . S
C778 H801 0.950 . S
C779 C778 1.349 . S
C779 C791 1.349 . S
C780 C778 1.327 . S
C780 C796 1.429 . S
C780 H802 0.950 . S
C781 H777 0.949 . S
C781 C789 1.574 . S
C781 C797 1.368 . S
H782 C790 0.950 . S
H783 C788 0.950 . S
H784 C789 0.949 . S
H785 C791 0.950 . S
H786 C792 0.950 . S
H787 C793 0.949 . S
C788 H783 0.950 . S
C788 C790 1.327 . S
C788 C794 1.429 . S
C789 C781 1.574 . S
C789 H784 0.949 . S
C789 C795 1.368 . S
C790 C774 1.349 . S
C790 H782 0.950 . S
C790 C788 1.327 . S
C791 C779 1.349 . S
C791 H785 0.950 . S
C791 C792 1.327 . S
C792 H786 0.950 . S
C792 C791 1.327 . S
C792 C796 1.429 . S
C793 C776 1.574 . S
C793 H787 0.949 . S
C793 C797 1.368 . S
C794 C775 1.429 . S
C794 C788 1.429 . S
C794 C795 1.523 . S
C795 C776 1.368 . S
C795 C789 1.368 . S
C795 C794 1.523 . S
C796 C780 1.429 . S
C796 C792 1.429 . S
C796 C797 1.523 . S
C797 C781 1.368 . S
C797 C793 1.368 . S
C797 C796 1.523 . S
H798 C773 0.950 . S
H799 C775 0.950 . S
H800 C776 0.949 . S
H801 C778 0.950 . S
H802 C780 0.950 . S
C803 C804 1.349 . S
C803 C805 1.327 . S
C803 H828 0.950 . S
C804 C803 1.349 . S
C804 C820 1.349 . S
C805 C803 1.327 . S
C805 C824 1.429 . S
C805 H829 0.950 . S
C806 C823 1.574 . S
C806 C825 1.368 . S
C806 H830 0.949 . S
H807 C811 0.949 . S
C808 C809 1.349 . S
C808 C810 1.327 . S
C808 H831 0.950 . S
C809 C808 1.349 . S
C809 C821 1.349 . S
C810 C808 1.327 . S
C810 C826 1.429 . S
C810 H832 0.950 . S
C811 H807 0.949 . S
C811 C819 1.574 . S
C811 C827 1.368 . S
H812 C820 0.950 . S
H813 C818 0.950 . S
H814 C819 0.949 . S
H815 C821 0.950 . S
H816 C822 0.950 . S
H817 C823 0.949 . S
C818 H813 0.950 . S
C818 C820 1.327 . S
C818 C824 1.429 . S
C819 C811 1.574 . S
C819 H814 0.949 . S
C819 C825 1.368 . S
C820 C804 1.349 . S
C820 H812 0.950 . S
C820 C818 1.327 . S
C821 C809 1.349 . S
C821 H815 0.950 . S
C821 C822 1.327 . S
C822 H816 0.950 . S
C822 C821 1.327 . S
C822 C826 1.429 . S
C823 C806 1.574 . S
C823 H817 0.949 . S
C823 C827 1.368 . S
C824 C805 1.429 . S
C824 C818 1.429 . S
C824 C825 1.523 . S
C825 C806 1.368 . S
C825 C819 1.368 . S
C825 C824 1.523 . S
C826 C810 1.429 . S
C826 C822 1.429 . S
C826 C827 1.523 . S
C827 C811 1.368 . S
C827 C823 1.368 . S
C827 C826 1.523 . S
H828 C803 0.950 . S
H829 C805 0.950 . S
H830 C806 0.949 . S
H831 C808 0.950 . S
H832 C810 0.950 . S
C833 C834 1.349 . S
C833 C835 1.327 . S
C833 H858 0.950 . S
C834 C833 1.349 . S
C834 C850 1.349 . S
C835 C833 1.327 . S
C835 C854 1.429 . S
C835 H859 0.950 . S
C836 C853 1.574 . S
C836 C855 1.368 . S
C836 H860 0.949 . S
H837 C841 0.949 . S
C838 C839 1.349 . S
C838 C840 1.327 . S
C838 H861 0.950 . S
C839 C838 1.349 . S
C839 C851 1.349 . S
C840 C838 1.327 . S
C840 C856 1.429 . S
C840 H862 0.950 . S
C841 H837 0.949 . S
C841 C849 1.574 . S
C841 C857 1.368 . S
H842 C850 0.950 . S
H843 C848 0.950 . S
H844 C849 0.949 . S
H845 C851 0.950 . S
H846 C852 0.950 . S
H847 C853 0.949 . S
C848 H843 0.950 . S
C848 C850 1.327 . S
C848 C854 1.429 . S
C849 C841 1.574 . S
C849 H844 0.949 . S
C849 C855 1.368 . S
C850 C834 1.349 . S
C850 H842 0.950 . S
C850 C848 1.327 . S
C851 C839 1.349 . S
C851 H845 0.950 . S
C851 C852 1.327 . S
C852 H846 0.950 . S
C852 C851 1.327 . S
C852 C856 1.429 . S
C853 C836 1.574 . S
C853 H847 0.949 . S
C853 C857 1.368 . S
C854 C835 1.429 . S
C854 C848 1.429 . S
C854 C855 1.523 . S
C855 C836 1.368 . S
C855 C849 1.368 . S
C855 C854 1.523 . S
C856 C840 1.429 . S
C856 C852 1.429 . S
C856 C857 1.523 . S
C857 C841 1.368 . S
C857 C853 1.368 . S
C857 C856 1.523 . S
H858 C833 0.950 . S
H859 C835 0.950 . S
H860 C836 0.949 . S
H861 C838 0.950 . S
H862 C840 0.950 . S
C863 C864 1.349 . S
C863 C865 1.327 . S
C863 H888 0.950 . S
C864 C863 1.349 . S
C864 C880 1.349 . S
C865 C863 1.327 . S
C865 C884 1.429 . S
C865 H889 0.950 . S
C866 C883 1.574 . S
C866 C885 1.368 . S
C866 H890 0.949 . S
H867 C871 0.949 . S
C868 C869 1.349 . S
C868 C870 1.327 . S
C868 H891 0.950 . S
C869 C868 1.349 . S
C869 C881 1.349 . S
C870 C868 1.327 . S
C870 C886 1.429 . S
C870 H892 0.950 . S
C871 H867 0.949 . S
C871 C879 1.574 . S
C871 C887 1.368 . S
H872 C880 0.950 . S
H873 C878 0.950 . S
H874 C879 0.949 . S
H875 C881 0.950 . S
H876 C882 0.950 . S
H877 C883 0.949 . S
C878 H873 0.950 . S
C878 C880 1.327 . S
C878 C884 1.429 . S
C879 C871 1.574 . S
C879 H874 0.949 . S
C879 C885 1.368 . S
C880 C864 1.349 . S
C880 H872 0.950 . S
C880 C878 1.327 . S
C881 C869 1.349 . S
C881 H875 0.950 . S
C881 C882 1.327 . S
C882 H876 0.950 . S
C882 C881 1.327 . S
C882 C886 1.429 . S
C883 C866 1.574 . S
C883 H877 0.949 . S
C883 C887 1.368 . S
C884 C865 1.429 . S
C884 C878 1.429 . S
C884 C885 1.523 . S
C885 C866 1.368 . S
C885 C879 1.368 . S
C885 C884 1.523 . S
C886 C870 1.429 . S
C886 C882 1.429 . S
C886 C887 1.523 . S
C887 C871 1.368 . S
C887 C883 1.368 . S
C887 C886 1.523 . S
H888 C863 0.950 . S
H889 C865 0.950 . S
H890 C866 0.949 . S
H891 C868 0.950 . S
H892 C870 0.950 . S
C893 C894 1.349 . S
C893 C895 1.327 . S
C893 H918 0.950 . S
C894 C893 1.349 . S
C894 C910 1.349 . S
C895 C893 1.327 . S
C895 C914 1.429 . S
C895 H919 0.950 . S
C896 C913 1.574 . S
C896 C915 1.368 . S
C896 H920 0.949 . S
H897 C901 0.949 . S
C898 C899 1.349 . S
C898 C900 1.327 . S
C898 H921 0.950 . S
C899 C898 1.349 . S
C899 C911 1.349 . S
C900 C898 1.327 . S
C900 C916 1.429 . S
C900 H922 0.950 . S
C901 H897 0.949 . S
C901 C909 1.574 . S
C901 C917 1.368 . S
H902 C910 0.950 . S
H903 C908 0.950 . S
H904 C909 0.949 . S
H905 C911 0.950 . S
H906 C912 0.950 . S
H907 C913 0.949 . S
C908 H903 0.950 . S
C908 C910 1.327 . S
C908 C914 1.429 . S
C909 C901 1.574 . S
C909 H904 0.949 . S
C909 C915 1.368 . S
C910 C894 1.349 . S
C910 H902 0.950 . S
C910 C908 1.327 . S
C911 C899 1.349 . S
C911 H905 0.950 . S
C911 C912 1.327 . S
C912 H906 0.950 . S
C912 C911 1.327 . S
C912 C916 1.429 . S
C913 C896 1.574 . S
C913 H907 0.949 . S
C913 C917 1.368 . S
C914 C895 1.429 . S
C914 C908 1.429 . S
C914 C915 1.523 . S
C915 C896 1.368 . S
C915 C909 1.368 . S
C915 C914 1.523 . S
C916 C900 1.429 . S
C916 C912 1.429 . S
C916 C917 1.523 . S
C917 C901 1.368 . S
C917 C913 1.368 . S
C917 C916 1.523 . S
H918 C893 0.950 . S
H919 C895 0.950 . S
H920 C896 0.949 . S
H921 C898 0.950 . S
H922 C900 0.950 . S
C209 C128 1.165 . S
C204 N2 1.246 . S
C239 C164 1.133 . S
C234 N14 1.189 . S
C269 C129 1.615 . S
C264 N27 1.614 . S
C299 C159 1.792 . S
C294 N44 1.834 . S
C329 C126 1.026 . S
C324 N54 1.062 . S
C354 N67 1.634 . S
C359 C162 1.639 . S
C384 N83 0.714 . S
C389 C131 0.727 . S
C419 C161 1.125 . S
C414 N93 1.158 . S
C449 C165 1.731 . S
C444 N1 1.777 . S
C479 C130 0.976 . S
C474 N18 1.014 . S
C509 C158 1.288 . S
C504 N28 1.297 . S
C539 C127 1.156 . S
C534 N41 1.259 . S
C569 C160 1.819 . S
C564 N57 1.912 . S
C594 N66 1.600 . S
C599 C125 1.583 . S
C624 N79 1.499 . S
C629 C163 1.442 . S
C659 C132 1.405 . S
C654 N96 1.451 . S
C689 C194 1.980 . S
C684 N5 2.070 . S
C714 N53 1.916 . S
C719 C197 1.808 . S
C749 C196 1.991 . S
C744 N70 2.038 . S
C774 N80 1.704 . S
C779 C195 1.674 . S
C809 C198 1.832 . S
C804 N92 1.897 . S
C834 N31 1.708 . S
C839 C192 1.664 . S
C869 C191 2.328 . S
C864 N40 2.298 . S
C894 N15 1.119 . S
C899 C193 1.042 . S
