# Generated by pormake.
# Topology tsx, (6,3)-cn, num edge types: 1
# Building blocks:
#     Node 0, Type 0, BuildingBlock: MIDCAF_clean_sbu_0, # of connection points: 6
#     Node 1, Type 0, BuildingBlock: MIDCAF_clean_sbu_0, # of connection points: 6
#     Node 2, Type 1, BuildingBlock: VETTIZ_charged_linker_0, # of connection points: 3
#     Node 3, Type 1, BuildingBlock: VETTIZ_charged_linker_0, # of connection points: 3
#     Node 4, Type 1, BuildingBlock: VETTIZ_charged_linker_0, # of connection points: 3
#     Node 5, Type 1, BuildingBlock: VETTIZ_charged_linker_0, # of connection points: 3
#     Edge 6, Type (0, 1), BuildingBlock: TEMPAE_clean_linker_10, # of connection points: 2
#     Edge 7, Type (0, 1), BuildingBlock: TEMPAE_clean_linker_10, # of connection points: 2
#     Edge 8, Type (0, 1), BuildingBlock: TEMPAE_clean_linker_10, # of connection points: 2
#     Edge 9, Type (0, 1), BuildingBlock: TEMPAE_clean_linker_10, # of connection points: 2
#     Edge 10, Type (0, 1), BuildingBlock: TEMPAE_clean_linker_10, # of connection points: 2
#     Edge 11, Type (0, 1), BuildingBlock: TEMPAE_clean_linker_10, # of connection points: 2
#     Edge 12, Type (0, 1), BuildingBlock: TEMPAE_clean_linker_10, # of connection points: 2
#     Edge 13, Type (0, 1), BuildingBlock: TEMPAE_clean_linker_10, # of connection points: 2
#     Edge 14, Type (0, 1), BuildingBlock: TEMPAE_clean_linker_10, # of connection points: 2
#     Edge 15, Type (0, 1), BuildingBlock: TEMPAE_clean_linker_10, # of connection points: 2
#     Edge 16, Type (0, 1), BuildingBlock: TEMPAE_clean_linker_10, # of connection points: 2
#     Edge 17, Type (0, 1), BuildingBlock: TEMPAE_clean_linker_10, # of connection points: 2
# Relax obj value: 0.121
# Max RMSD: 0.183
# Mean RMSD: 0.115
data_MOF--net-tsx--node1-MIDCAF_clean_sbu_0--node2-VETTIZ_charged_linker_0--edge1-TEMPAE_clean_linker_10
_symmetry_space_group_name_H-M    P1
_symmetry_Int_Tables_number       1
_symmetry_cell_setting            triclinic
loop_
_symmetry_equiv_pos_as_xyz
'x, y, z'
_cell_length_a     23.76757
_cell_length_b     24.554298
_cell_length_c     47.232394
_cell_angle_alpha  90.287615
_cell_angle_beta   95.017179
_cell_angle_gamma 90.014197
loop_
_atom_site_label
_atom_site_type_symbol
_atom_site_fract_x
_atom_site_fract_y
_atom_site_fract_z
_atom_type_partial_charge
Zn0 Zn 0.94768 0.07654 0.97705 0.0
Zn1 Zn 0.11597 0.09413 0.05278 0.0
Zn2 Zn 0.03143 0.0852 0.01431 0.0
C3 C 0.09393 0.19909 0.03415 0.0
C4 C 0.15329 0.02595 0.01151 0.0
O5 O 0.96178 0.04069 0.03364 0.0
O6 O 0.89567 0.03379 0.99786 0.0
C7 C 0.96377 0.18724 0.98326 0.0
O8 O 0.05563 0.17363 0.0181 0.0
O9 O 0.12592 0.17327 0.05207 0.0
O10 O 0.1709 0.04792 0.03482 0.0
O11 O 0.10286 0.03598 0.00031 0.0
O12 O 0.93115 0.15352 0.96995 0.0
O13 O 1.00474 0.16991 0.00068 0.0
O14 O 0.0597 0.03648 0.97807 0.0
O15 O 0.98326 0.03558 0.94783 0.0
C16 C 0.03394 0.02198 0.95404 0.0
O17 O 1.00551 0.0506 0.05491 0.0
O18 O 0.08101 0.06347 0.08518 0.0
C19 C 0.9132 0.02282 0.02313 0.0
C20 C 0.03118 0.04638 0.08003 0.0
Zn21 Zn 0.52628 0.42014 0.5383 0.0
Zn22 Zn 0.39612 0.45904 0.46802 0.0
Zn23 Zn 0.47631 0.454 0.50098 0.0
C24 C 0.49045 0.43333 0.43738 0.0
C25 C 0.41893 0.5663 0.4915 0.0
O26 O 0.4719 0.51324 0.53628 0.0
O27 O 0.46835 0.44388 0.56527 0.0
C28 C 0.55806 0.35838 0.49918 0.0
O29 O 0.51669 0.43807 0.46218 0.0
O30 O 0.43729 0.43839 0.43443 0.0
O31 O 0.38552 0.53868 0.47472 0.0
O32 O 0.4602 0.54227 0.50598 0.0
O33 O 0.53496 0.34622 0.52149 0.0
O34 O 0.54757 0.40532 0.48784 0.0
O35 O 0.52046 0.52784 0.51858 0.0
O36 O 0.59142 0.47438 0.53205 0.0
C37 C 0.57405 0.5216 0.52502 0.0
O38 O 0.42048 0.3939 0.51642 0.0
O39 O 0.34758 0.4034 0.48503 0.0
C40 C 0.46066 0.49419 0.56055 0.0
C41 C 0.37087 0.37959 0.50665 0.0
C42 C 0.1949 0.94262 0.4701 0.0
C43 C 0.23925 0.91234 0.45981 0.0
C44 C 0.24309 0.909 0.43024 0.0
C45 C 0.15678 0.96076 0.42155 0.0
C46 C 0.15468 0.96726 0.45057 0.0
C47 C 0.1047 1.00129 0.45742 0.0
H48 H 0.86649 0.13632 0.4079 0.0
C49 C 0.10652 0.98696 0.40691 0.0
C50 C 0.07607 0.0117 0.4278 0.0
H51 H 0.93195 0.11966 0.49571 0.0
H52 H 0.01188 0.06815 0.48099 0.0
H53 H 0.98312 0.15717 0.38135 0.0
H54 H 0.87925 0.01828 0.39339 0.0
H55 H 0.91158 1.00253 0.36247 0.0
H56 H 0.86629 0.06154 0.36311 0.0
H57 H 0.91674 0.14427 0.36132 0.0
H58 H 0.98218 0.11867 0.34986 0.0
C59 C 0.12734 0.05442 0.47204 0.0
C60 C 0.0673 0.967 0.47577 0.0
C61 C 0.06057 0.96205 0.29962 0.0
C62 C 0.01449 0.97958 0.28101 0.0
C63 C 0.972 0.01133 0.29193 0.0
C64 C 0.97488 0.02538 0.32066 0.0
C65 C 0.02055 0.00733 0.33907 0.0
C66 C 0.06247 0.97614 0.32862 0.0
C67 C 0.10757 0.96094 0.35179 0.0
C68 C 0.085 0.98766 0.37777 0.0
C69 C 0.03427 0.01472 0.36993 0.0
C70 C 0.16429 0.98648 0.3447 0.0
C71 C 0.10859 0.89809 0.35403 0.0
C72 C 0.89756 0.12137 0.42415 0.0
C73 C 0.89231 0.13163 0.45301 0.0
C74 C 0.93495 0.11245 0.47326 0.0
C75 C 0.98115 0.08235 0.46468 0.0
C76 C 0.98455 0.07123 0.43558 0.0
C77 C 0.94289 0.09088 0.41606 0.0
C78 C 0.95059 0.07379 0.38625 0.0
C79 C 1.00475 0.04156 0.39068 0.0
C80 C 0.02504 0.04007 0.41953 0.0
C81 C 0.95821 0.12592 0.36853 0.0
C82 C 0.89937 0.03746 0.3755 0.0
H83 H 0.20686 0.92769 0.38891 0.0
H84 H 0.19113 0.94616 0.49272 0.0
H85 H 0.0644 0.92417 0.46798 0.0
H86 H 0.02335 0.98172 0.47493 0.0
H87 H 0.08512 0.9664 0.4983 0.0
H88 H 0.16392 0.07045 0.46146 0.0
H89 H 0.14177 0.04721 0.49472 0.0
H90 H 0.09589 0.08753 0.47077 0.0
H91 H 0.09415 0.93795 0.29182 0.0
H92 H 0.93696 0.02669 0.27803 0.0
H93 H 0.94138 0.05025 0.32727 0.0
H94 H 0.15729 0.02404 0.33178 0.0
H95 H 0.18889 0.95769 0.33242 0.0
H96 H 0.19064 0.99996 0.36393 0.0
H97 H 0.06487 0.88176 0.35375 0.0
H98 H 0.13094 0.88323 0.37392 0.0
H99 H 0.12852 0.87962 0.33586 0.0
H100 H 0.27648 0.88552 0.42179 0.0
C101 C 0.2022 0.9329 0.41112 0.0
C102 C 0.14464 0.02161 0.5793 0.0
C103 C 0.1875 0.05638 0.59142 0.0
C104 C 0.20964 0.04786 0.61965 0.0
C105 C 0.14172 0.97623 0.62475 0.0
C106 C 0.12215 0.9818 0.59647 0.0
C107 C 0.07418 0.94286 0.58817 0.0
H108 H 0.86891 0.78072 0.63196 0.0
C109 C 0.10593 0.93625 0.63786 0.0
C110 C 0.06616 0.91614 0.61667 0.0
H111 H 0.90616 0.81204 0.54517 0.0
H112 H 0.98673 0.86533 0.56253 0.0
H113 H 0.99316 0.7458 0.64951 0.0
H114 H 0.90765 0.89776 0.66171 0.0
H115 H 0.94422 0.87751 0.6941 0.0
H116 H 0.88926 0.83468 0.6777 0.0
H117 H 0.94775 0.75468 0.67758 0.0
H118 H 0.02174 0.77269 0.68214 0.0
C119 C 0.09406 0.9014 0.5663 0.0
C120 C 0.02197 0.97645 0.57693 0.0
C121 C 0.12716 0.91763 0.74507 0.0
C122 C 0.09603 0.88985 0.76429 0.0
C123 C 0.05223 0.85454 0.75391 0.0
C124 C 0.038 0.84885 0.72453 0.0
C125 C 0.06796 0.8789 0.70545 0.0
C126 C 0.11268 0.91135 0.71589 0.0
C127 C 0.13927 0.94105 0.69281 0.0
C128 C 0.10317 0.92127 0.66668 0.0
C129 C 0.06101 0.88546 0.67416 0.0
C130 C 0.2013 0.92139 0.69277 0.0
C131 C 0.13224 0.00312 0.69809 0.0
C132 C 0.89404 0.7982 0.61632 0.0
C133 C 0.87895 0.79218 0.58685 0.0
C134 C 0.91421 0.81701 0.56792 0.0
C135 C 0.96185 0.8476 0.57799 0.0
C136 C 0.97565 0.85297 0.60735 0.0
C137 C 0.94296 0.82702 0.62593 0.0
C138 C 0.96792 0.83134 0.65627 0.0
C139 C 0.02014 0.86545 0.65287 0.0
C140 C 0.02357 0.87946 0.6242 0.0
C141 C 0.98322 0.77328 0.6672 0.0
C142 C 0.92516 0.86165 0.67358 0.0
H143 H 0.20522 0.00468 0.6578 0.0
H144 H 0.12752 0.02691 0.55747 0.0
H145 H 0.01417 0.01 0.59201 0.0
H146 H 0.98287 0.95216 0.57434 0.0
H147 H 0.02848 0.9949 0.55603 0.0
H148 H 0.14079 0.89657 0.56851 0.0
H149 H 0.08168 0.91452 0.54416 0.0
H150 H 0.07736 0.85998 0.56941 0.0
H151 H 0.16046 0.94561 0.75266 0.0
H152 H 0.02731 0.83346 0.76858 0.0
H153 H 1.00309 0.82274 0.71785 0.0
H154 H 0.20572 0.87821 0.69966 0.0
H155 H 0.23009 0.94621 0.70746 0.0
H156 H 0.21668 0.92179 0.67133 0.0
H157 H 0.09251 0.01182 0.70811 0.0
H158 H 0.12835 0.02728 0.67838 0.0
H159 H 0.1678 0.01946 0.71247 0.0
H160 H 0.24359 0.07326 0.62914 0.0
C161 C 0.18728 0.00792 0.63627 0.0
C162 C 0.71831 0.55121 0.94311 0.0
C163 C 0.76134 0.52322 0.93032 0.0
C164 C 0.76125 0.52383 0.90047 0.0
C165 C 0.67414 0.57549 0.89648 0.0
C166 C 0.6755 0.57749 0.92581 0.0
C167 C 0.62671 0.60982 0.93561 0.0
H168 H 0.38106 0.74455 0.89953 0.0
C169 C 0.62203 0.60275 0.8845 0.0
C170 C 0.59394 0.6232 0.90736 0.0
H171 H 0.47081 0.73594 0.98297 0.0
H172 H 0.5412 0.67688 0.96439 0.0
H173 H 0.48528 0.77012 0.86859 0.0
H174 H 0.39716 0.62131 0.88157 0.0
H175 H 0.42058 0.61482 0.84753 0.0
H176 H 0.37257 0.66921 0.85478 0.0
H177 H 0.41852 0.75336 0.84989 0.0
H178 H 0.48436 0.73443 0.83636 0.0
C179 C 0.65074 0.66162 0.95112 0.0
C180 C 0.5924 0.57292 0.9542 0.0
C181 C 0.56823 0.60154 0.77729 0.0
C182 C 0.51904 0.61845 0.76068 0.0
C183 C 0.47437 0.64124 0.77456 0.0
C184 C 0.4787 0.64807 0.80401 0.0
C185 C 0.528 0.63153 0.8202 0.0
C186 C 0.57145 0.60796 0.80696 0.0
C187 C 0.61891 0.58973 0.82814 0.0
C188 C 0.59707 0.60772 0.8561 0.0
C189 C 0.54413 0.63251 0.85106 0.0
C190 C 0.67314 0.62092 0.82205 0.0
C191 C 0.62363 0.52694 0.82587 0.0
C192 C 0.41589 0.73023 0.91391 0.0
C193 C 0.42083 0.74574 0.9426 0.0
C194 C 0.4661 0.72475 0.96068 0.0
C195 C 0.50723 0.69105 0.9498 0.0
C196 C 0.50313 0.67861 0.92054 0.0
C197 C 0.45751 0.69791 0.90334 0.0
C198 C 0.46049 0.68384 0.87268 0.0
C199 C 0.51632 0.6541 0.87391 0.0
C200 C 0.54105 0.65012 0.90195 0.0
C201 C 0.46187 0.73789 0.85576 0.0
C202 C 0.41005 0.64564 0.8634 0.0
H203 H 0.71992 0.54771 0.86096 0.0
H204 H 0.7177 0.55201 0.96601 0.0
H205 H 0.58473 0.53249 0.94384 0.0
H206 H 0.5504 0.58973 0.95745 0.0
H207 H 0.61553 0.56619 0.97536 0.0
H208 H 0.68944 0.67614 0.94181 0.0
H209 H 0.66219 0.65363 0.97403 0.0
H210 H 0.62126 0.6964 0.94898 0.0
H211 H 0.60345 0.58366 0.76753 0.0
H212 H 0.43519 0.65292 0.76274 0.0
H213 H 0.44309 0.66584 0.81299 0.0
H214 H 0.663 0.66348 0.81543 0.0
H215 H 0.69436 0.60103 0.80468 0.0
H216 H 0.7036 0.62494 0.84098 0.0
H217 H 0.58112 0.50804 0.82173 0.0
H218 H 0.64188 0.50783 0.84566 0.0
H219 H 0.64897 0.51493 0.80817 0.0
H220 H 0.79354 0.50225 0.89008 0.0
C221 C 0.71802 0.54968 0.88354 0.0
C222 C 0.64918 0.69885 0.0924 0.0
C223 C 0.69701 0.72129 0.10809 0.0
C224 C 0.71627 0.69798 0.1343 0.0
C225 C 0.64151 0.6309 0.12904 0.0
C226 C 0.62237 0.65326 0.10319 0.0
C227 C 0.57191 0.62258 0.08938 0.0
H228 H 0.38786 0.41086 0.09652 0.0
C229 C 0.60545 0.58392 0.1344 0.0
C230 C 0.56476 0.578 0.11115 0.0
H231 H 0.38764 0.531 0.03008 0.0
H232 H 0.4698 0.57491 0.05486 0.0
H233 H 0.52148 0.39173 0.10545 0.0
H234 H 0.40761 0.49558 0.14679 0.0
H235 H 0.45572 0.46935 0.17351 0.0
H236 H 0.41037 0.42334 0.15223 0.0
H237 H 0.47286 0.36592 0.12914 0.0
H238 H 0.54226 0.38981 0.14208 0.0
C239 C 0.5877 0.59903 0.06071 0.0
C240 C 0.52089 0.66185 0.08663 0.0
C241 C 0.63195 0.49085 0.23009 0.0
C242 C 0.6032 0.44815 0.24219 0.0
C243 C 0.56419 0.41684 0.22483 0.0
C244 C 0.55095 0.43054 0.19621 0.0
C245 C 0.577 0.47605 0.18492 0.0
C246 C 0.61836 0.50394 0.20152 0.0
C247 C 0.6423 0.55053 0.18598 0.0
C248 C 0.60621 0.54801 0.15784 0.0
C249 C 0.5678 0.50471 0.15739 0.0
C250 C 0.70534 0.5378 0.18247 0.0
C251 C 0.63207 0.60373 0.20265 0.0
C252 C 0.40587 0.44626 0.08708 0.0
C253 C 0.38186 0.46705 0.06114 0.0
C254 C 0.40556 0.51418 0.05002 0.0
C255 C 0.45323 0.53945 0.06441 0.0
C256 C 0.47683 0.51777 0.09038 0.0
C257 C 0.45263 0.47205 0.10125 0.0
C258 C 0.48071 0.45556 0.12959 0.0
C259 C 0.52673 0.49815 0.13393 0.0
C260 C 0.52471 0.53468 0.11093 0.0
C261 C 0.50543 0.3976 0.1267 0.0
C262 C 0.43662 0.46071 0.15182 0.0
H263 H 0.70573 0.63773 0.16496 0.0
H264 H 0.63376 0.71573 0.07205 0.0
H265 H 0.52066 0.68834 0.1058 0.0
H266 H 0.47995 0.64041 0.08511 0.0
H267 H 0.52254 0.68872 0.06786 0.0
H268 H 0.63088 0.58121 0.06307 0.0
H269 H 0.58718 0.63132 0.04429 0.0
H270 H 0.5595 0.5657 0.05266 0.0
H271 H 0.66237 0.51527 0.24302 0.0
H272 H 0.54136 0.38389 0.23384 0.0
H273 H 0.51933 0.40649 0.18432 0.0
H274 H 0.7141 0.4933 0.1835 0.0
H275 H 0.73362 0.5577 0.19942 0.0
H276 H 0.71809 0.5502 0.16144 0.0
H277 H 0.5897 0.6031 0.21098 0.0
H278 H 0.6321 0.64067 0.18945 0.0
H279 H 0.66409 0.60875 0.22106 0.0
H280 H 0.75253 0.71487 0.14686 0.0
C281 C 0.68892 0.6531 0.1448 0.0
C282 C 0.12168 0.2764 0.00434 0.0
C283 C 0.10685 0.25728 0.03057 0.0
C284 C 0.15708 0.32225 0.00308 0.0
C285 C 0.17782 0.34879 0.02863 0.0
C286 C 0.15561 0.33432 0.05442 0.0
C287 C 0.1205 0.28859 0.05506 0.0
C288 C 0.17747 0.33801 0.97492 0.0
C289 C 0.17504 0.3622 0.08213 0.0
C290 C 0.3327 0.38207 0.04383 0.0
C291 C 0.33192 0.43888 0.04656 0.0
C292 C 0.2833 0.35271 0.03577 0.0
C293 C 0.23146 0.38083 0.03008 0.0
C294 C 0.23131 0.43858 0.03025 0.0
C295 C 0.28166 0.46704 0.03863 0.0
C296 C 0.28605 0.29121 0.03558 0.0
C297 C 0.17756 0.47038 0.02359 0.0
H298 H 0.11095 0.25232 0.98532 0.0
H299 H 0.10848 0.27399 0.07532 0.0
H300 H 0.18374 0.3827 0.97369 0.0
H301 H 0.21867 0.31806 0.97252 0.0
H302 H 0.14725 0.32474 0.95693 0.0
H303 H 0.14781 0.35179 0.09928 0.0
H304 H 0.21892 0.34938 0.08893 0.0
H305 H 0.17515 0.40704 0.07952 0.0
H306 H 0.37175 0.36027 0.04943 0.0
H307 H 0.28085 0.51104 0.0406 0.0
H308 H 0.26569 0.27477 0.0153 0.0
H309 H 0.26271 0.27488 0.05305 0.0
H310 H 0.33014 0.27586 0.0384 0.0
H311 H 0.14842 0.44912 0.00753 0.0
H312 H 0.18658 0.51174 0.01569 0.0
H313 H 0.15563 0.47514 0.04324 0.0
C314 C 0.16821 0.94193 0.98272 0.0
C315 C 0.19057 0.98655 -0.00147 0.0
C316 C 0.20378 0.90188 0.97262 0.0
C317 C 0.26295 0.90584 0.9793 0.0
C318 C 0.28569 0.95107 0.99508 0.0
C319 C 0.24926 0.99088 0.00441 0.0
C320 C 0.17788 0.85476 0.95545 0.0
C321 C 0.34855 0.95715 0.0024 0.0
C322 C 0.35708 0.78044 0.97858 0.0
C323 C 0.38055 0.78644 0.95257 0.0
C324 C 0.31767 0.81838 0.98733 0.0
C325 C 0.30162 0.86327 0.96965 0.0
C326 C 0.32515 0.86937 0.9434 0.0
C327 C 0.36453 0.83122 0.9353 0.0
C328 C 0.2934 0.81066 0.01551 0.0
C329 C 0.30884 0.91636 0.92388 0.0
H330 H 0.12285 0.93736 0.979 0.0
H331 H 0.26677 0.02521 0.01675 0.0
H332 H 0.19985 0.84839 0.93592 0.0
H333 H 0.18287 0.8169 0.96814 0.0
H334 H 0.13221 0.86117 0.94919 0.0
H335 H 0.35941 0.99488 0.01477 0.0
H336 H 0.36496 0.92165 0.01501 0.0
H337 H 0.37068 0.95793 0.98267 0.0
H338 H 0.36892 0.74574 0.99189 0.0
H339 H 0.38323 0.83679 0.91539 0.0
H340 H 0.24663 0.80892 0.01231 0.0
H341 H 0.30466 0.84595 0.02964 0.0
H342 H 0.309 0.77288 0.0264 0.0
H343 H 0.26247 0.91642 0.91863 0.0
H344 H 0.32972 0.91439 0.90375 0.0
H345 H 0.32019 0.95552 0.93472 0.0
C346 C 0.85502 0.93936 0.02245 0.0
C347 C 0.88097 0.98245 0.03823 0.0
C348 C 0.8248 0.89905 0.03542 0.0
C349 C 0.81971 0.90206 0.06498 0.0
C350 C 0.84539 0.94577 0.08111 0.0
C351 C 0.87585 0.98563 0.06747 0.0
C352 C 0.79916 0.85268 0.01747 0.0
C353 C 0.84051 0.95046 0.11265 0.0
C354 C 0.69936 0.81546 0.08789 0.0
C355 C 0.72806 0.76829 0.09744 0.0
C356 C 0.72903 0.86071 0.07873 0.0
C357 C 0.7886 0.8582 0.07866 0.0
C358 C 0.81776 0.81084 0.08862 0.0
C359 C 0.78715 0.76658 0.09796 0.0
C360 C 0.69657 0.91077 0.06858 0.0
C361 C 0.8811 0.8061 0.08842 0.0
H362 H 0.85929 0.93653 -0.00019 0.0
H363 H 0.89452 0.01973 0.07947 0.0
H364 H 0.81676 0.81331 0.02557 0.0
H365 H 0.75285 0.85126 0.01888 0.0
H366 H 0.80723 0.85638 0.99474 0.0
H367 H 0.86436 0.98589 0.12225 0.0
H368 H 0.79545 0.95467 0.11673 0.0
H369 H 0.85658 0.91288 0.12345 0.0
H370 H 0.65378 0.81715 0.08789 0.0
H371 H 0.80943 0.73001 0.10522 0.0
H372 H 0.69934 0.91587 0.04542 0.0
H373 H 0.71537 0.94764 0.0793 0.0
H374 H 0.65129 0.90838 0.07261 0.0
H375 H 0.89267 0.80621 0.06616 0.0
H376 H 0.89778 0.76824 0.09885 0.0
H377 H 0.90231 0.84156 0.09939 0.0
C378 C 0.9637 0.28531 -0.00017 0.0
C379 C 0.95178 0.24594 0.97853 0.0
C380 C 0.94262 0.33886 0.99643 0.0
C381 C 0.90804 0.35261 0.97145 0.0
C382 C 0.899 0.31369 0.94931 0.0
C383 C 0.92129 0.26128 0.95306 0.0
C384 C 0.95494 0.37943 0.02023 0.0
C385 C 0.86285 0.32621 0.92216 0.0
C386 C 0.78447 0.44964 0.96584 0.0
C387 C 0.80315 0.48866 0.94723 0.0
C388 C 0.8205 0.40779 0.97656 0.0
C389 C 0.87666 0.40526 0.96868 0.0
C390 C 0.89747 0.44819 0.95262 0.0
C391 C 0.86028 0.48907 0.94179 0.0
C392 C 0.79659 0.36319 0.99383 0.0
C393 C 0.9576 0.4483 0.94471 0.0
H394 H 0.98677 0.27372 0.01966 0.0
H395 H 0.91263 0.23131 0.9363 0.0
H396 H 0.95915 0.42131 0.01194 0.0
H397 H 0.91954 0.37938 0.03405 0.0
H398 H 0.99425 0.36874 0.03353 0.0
H399 H 0.86149 0.29188 0.90671 0.0
H400 H 0.819 0.33528 0.92709 0.0
H401 H 0.87916 0.36273 0.91184 0.0
H402 H 0.74041 0.44913 0.97015 0.0
H403 H 0.8752 0.51981 0.92783 0.0
H404 H 0.82637 0.35304 0.01244 0.0
H405 H 0.79049 0.32586 0.98055 0.0
H406 H 0.75529 0.37473 0.00144 0.0
H407 H 0.98706 0.4349 0.96286 0.0
H408 H 0.97061 0.48929 0.93784 0.0
H409 H 0.96161 0.4193 0.92691 0.0
C410 C 0.59552 0.62023 0.53581 0.0
C411 C 0.6137 0.56819 0.52838 0.0
C412 C 0.63485 0.66153 0.54397 0.0
C413 C 0.69336 0.65144 0.54278 0.0
C414 C 0.71123 0.60056 0.53254 0.0
C415 C 0.67137 0.55923 0.52612 0.0
C416 C 0.61402 0.71449 0.55559 0.0
C417 C 0.77281 0.58882 0.52953 0.0
C418 C 0.80091 0.76708 0.54872 0.0
C419 C 0.8284 0.7586 0.57601 0.0
C420 C 0.75643 0.73317 0.53764 0.0
C421 C 0.73657 0.69139 0.55472 0.0
C422 C 0.76155 0.68449 0.58277 0.0
C423 C 0.80793 0.71681 0.59269 0.0
C424 C 0.73256 0.7405 0.50721 0.0
C425 C 0.74038 0.64168 0.60214 0.0
H426 H 0.55088 0.62778 0.53686 0.0
H427 H 0.68552 0.51942 0.51969 0.0
H428 H 0.63045 0.71901 0.57821 0.0
H429 H 0.63013 0.74949 0.54397 0.0
H430 H 0.56717 0.71663 0.5542 0.0
H431 H 0.77868 0.5508 0.51728 0.0
H432 H 0.79253 0.62307 0.51875 0.0
H433 H 0.7957 0.58441 0.55088 0.0
H434 H 0.81431 0.79981 0.53562 0.0
H435 H 0.82869 0.70786 0.61343 0.0
H436 H 0.68592 0.74393 0.50591 0.0
H437 H 0.74269 0.70411 0.49458 0.0
H438 H 0.74991 0.77707 0.49729 0.0
H439 H 0.69364 0.64336 0.60174 0.0
H440 H 0.75863 0.64672 0.62446 0.0
H441 H 0.75179 0.6006 0.59463 0.0
C442 C 0.63853 0.33915 0.46956 0.0
C443 C 0.60239 0.32187 0.48962 0.0
C444 C 0.68516 0.30749 0.46331 0.0
C445 C 0.6963 0.25777 0.47783 0.0
C446 C 0.65925 0.23951 0.49763 0.0
C447 C 0.61258 0.27152 0.5031 0.0
C448 C 0.72308 0.32771 0.44158 0.0
C449 C 0.66976 0.18686 0.51364 0.0
C450 C 0.78878 0.15177 0.44632 0.0
C451 C 0.84169 0.16155 0.4612 0.0
C452 C 0.74145 0.18319 0.45129 0.0
C453 C 0.7465 0.22453 0.47227 0.0
C454 C 0.79911 0.23337 0.4882 0.0
C455 C 0.84625 0.20194 0.48236 0.0
C456 C 0.68623 0.17263 0.43375 0.0
C457 C 0.80573 0.27652 0.51112 0.0
H458 H 0.63155 0.3782 0.45944 0.0
H459 H 0.58496 0.2577 0.51868 0.0
H460 H 0.76653 0.33385 0.4517 0.0
H461 H 0.72555 0.29683 0.4245 0.0
H462 H 0.70794 0.36664 0.4318 0.0
H463 H 0.6366 0.17821 0.52818 0.0
H464 H 0.67145 0.15232 0.49851 0.0
H465 H 0.71128 0.1887 0.52633 0.0
H466 H 0.78441 0.1197 0.43043 0.0
H467 H 0.88692 0.20999 0.49383 0.0
H468 H 0.67182 0.21028 0.42241 0.0
H469 H 0.65312 0.16126 0.44779 0.0
H470 H 0.68971 0.13961 0.41783 0.0
H471 H 0.79642 0.3172 0.50174 0.0
H472 H 0.84897 0.27721 0.52216 0.0
H473 H 0.77498 0.26938 0.52709 0.0
C474 C 0.3716 0.29606 0.53697 0.0
C475 C 0.3417 0.33305 0.51884 0.0
C476 C 0.34495 0.24964 0.54684 0.0
C477 C 0.28689 0.24043 0.53868 0.0
C478 C 0.25644 0.27784 0.52057 0.0
C479 C 0.28424 0.32352 0.51078 0.0
C480 C 0.37888 0.21047 0.56604 0.0
C481 C 0.1943 0.26996 0.5118 0.0
C482 C 0.22809 0.09823 0.54926 0.0
C483 C 0.20755 0.10395 0.576 0.0
C484 C 0.25323 0.14263 0.53644 0.0
C485 C 0.25721 0.19368 0.5507 0.0
C486 C 0.234 0.20001 0.57709 0.0
C487 C 0.2096 0.15508 0.5894 0.0
C488 C 0.27729 0.13441 0.50821 0.0
C489 C 0.23623 0.25392 0.59272 0.0
H490 H 0.41611 0.30283 0.54303 0.0
H491 H 0.2608 0.35192 0.49676 0.0
H492 H 0.36152 0.20916 0.58708 0.0
H493 H 0.37562 0.16872 0.55694 0.0
H494 H 0.4242 0.222 0.56925 0.0
H495 H 0.17716 0.30186 0.49684 0.0
H496 H 0.18698 0.22953 0.50155 0.0
H497 H 0.17015 0.27085 0.53087 0.0
H498 H 0.2265 0.05866 0.53893 0.0
H499 H 0.19281 0.15966 0.60991 0.0
H500 H 0.32384 0.13954 0.51094 0.0
H501 H 0.26045 0.16558 0.4928 0.0
H502 H 0.26747 0.09337 0.49905 0.0
H503 H 0.28084 0.26541 0.59874 0.0
H504 H 0.21355 0.25267 0.6123 0.0
H505 H 0.21735 0.28646 0.57871 0.0
C506 C 0.37774 0.65071 0.47043 0.0
C507 C 0.4079 0.62553 0.49361 0.0
C508 C 0.35865 0.70428 0.47202 0.0
C509 C 0.37046 0.73447 0.49748 0.0
C510 C 0.4038 0.71054 0.52058 0.0
C511 C 0.42198 0.65596 0.51844 0.0
C512 C 0.32386 0.72772 0.44658 0.0
C513 C 0.41839 0.74139 0.54791 0.0
C514 C 0.33589 0.87767 0.47568 0.0
C515 C 0.27774 0.8783 0.47884 0.0
C516 C 0.36991 0.83415 0.48612 0.0
C517 C 0.34472 0.78973 0.49926 0.0
C518 C 0.28794 0.79418 0.50604 0.0
C519 C 0.25505 0.83864 0.49578 0.0
C520 C 0.43093 0.83244 0.47971 0.0
C521 C 0.25959 0.74844 0.52056 0.0
H522 H 0.36757 0.62778 0.45096 0.0
H523 H 0.44509 0.63664 0.53647 0.0
H524 H 0.28131 0.73921 0.45255 0.0
H525 H 0.34425 0.76507 0.4392 0.0
H526 H 0.31852 0.69859 0.42847 0.0
H527 H 0.4563 0.72402 0.56006 0.0
H528 H 0.42604 0.78513 0.54387 0.0
H529 H 0.38255 0.73861 0.56139 0.0
H530 H 0.35385 0.90897 0.46308 0.0
H531 H 0.21021 0.83918 0.49848 0.0
H532 H 0.43459 0.80832 0.46002 0.0
H533 H 0.45752 0.81255 0.49718 0.0
H534 H 0.4476 0.87397 0.47636 0.0
H535 H 0.24905 0.71521 0.50497 0.0
H536 H 0.21993 0.76212 0.52922 0.0
H537 H 0.28821 0.73143 0.53811 0.0
C538 C 0.00941 0.96844 0.11034 0.0
C539 C 1.00371 0.02387 0.10396 0.0
C540 C 1.00254 0.94951 0.13788 0.0
C541 C 0.99072 0.98731 0.15933 0.0
C542 C 0.97928 0.04237 0.152 0.0
C543 C 0.98622 0.06 0.12436 0.0
C544 C 0.01356 0.89027 0.14452 0.0
C545 C 0.9655 0.08396 0.17402 0.0
C546 C 0.95966 0.95572 0.23486 0.0
C547 C 0.01149 0.96909 0.2499 0.0
C548 C 0.95299 0.95734 0.20504 0.0
C549 C 0.99932 0.97252 0.18995 0.0
C550 C 0.05294 0.9814 0.20495 0.0
C551 C 0.05837 0.97955 0.23477 0.0
C552 C 0.89566 0.94605 0.18982 0.0
C553 C 0.10367 0.99714 0.18966 0.0
H554 H 0.02363 0.94072 0.09451 0.0
H555 H 0.98252 0.10298 0.11934 0.0
H556 H 0.05767 0.8855 0.15398 0.0
H557 H 0.98514 0.87504 0.16014 0.0
H558 H 0.00801 0.8646 0.12504 0.0
H559 H 0.95108 0.12317 0.16424 0.0
H560 H 0.93214 0.0684 0.18688 0.0
H561 H 1.00369 0.09193 0.18871 0.0
H562 H 0.92356 0.9464 0.24651 0.0
H563 H 0.09845 0.99 0.24625 0.0
H564 H 0.89921 0.91414 0.17339 0.0
H565 H 0.8792 0.98332 0.17881 0.0
H566 H 0.86458 0.93243 0.20456 0.0
H567 H 0.1088 0.96869 0.17176 0.0
H568 H 0.1433 0.99721 0.204 0.0
H569 H 0.0973 0.03854 0.18061 0.0
C570 C 0.11447 0.00302 0.92454 0.0
C571 C 0.06134 0.98916 0.93299 0.0
C572 C 0.13333 0.98052 0.89957 0.0
C573 C 0.09774 0.94412 0.88285 0.0
C574 C 0.04673 0.9261 0.89307 0.0
C575 C 0.02927 0.94887 0.91802 0.0
C576 C 0.18865 0.99986 0.88986 0.0
C577 C 0.00731 0.88741 0.87609 0.0
C578 C 0.08173 0.95512 0.80287 0.0
C579 C 0.10284 0.90494 0.79462 0.0
C580 C 0.08291 0.96964 0.8316 0.0
C581 C 0.10682 0.93335 0.85257 0.0
C582 C 0.13148 0.88393 0.84419 0.0
C583 C 0.12844 0.86981 0.81516 0.0
C584 C 0.05547 0.02245 0.83949 0.0
C585 C 0.15961 0.84561 0.86593 0.0
H586 H 0.13936 0.03412 0.93621 0.0
H587 H 0.98842 0.93772 0.92485 0.0
H588 H 0.20896 0.96783 0.8776 0.0
H589 H 0.18088 0.03569 0.87585 0.0
H590 H 0.21826 0.01254 0.90822 0.0
H591 H 0.97269 0.87281 0.88848 0.0
H592 H 0.98815 0.90845 0.85684 0.0
H593 H 0.03068 0.85158 0.86889 0.0
H594 H 0.06224 0.98216 0.78677 0.0
H595 H 0.14546 0.83131 0.80852 0.0
H596 H 0.08538 0.04716 0.85357 0.0
H597 H 0.01826 0.01366 0.85139 0.0
H598 H 0.04126 0.04716 0.82056 0.0
H599 H 0.19182 0.86793 0.87994 0.0
H600 H 0.18026 0.81078 0.8559 0.0
H601 H 0.12803 0.82945 0.87969 0.0
C602 C 0.42026 0.51643 0.60587 0.0
C603 C 0.45663 0.53007 0.58528 0.0
C604 C 0.42736 0.53951 0.63318 0.0
C605 C 0.47316 0.57549 0.64018 0.0
C606 C 0.50754 0.59221 0.61881 0.0
C607 C 0.49839 0.56956 0.59149 0.0
C608 C 0.38861 0.52202 0.65513 0.0
C609 C 0.55754 0.62952 0.62536 0.0
C610 C 0.48103 0.64771 0.71169 0.0
C611 C 0.51236 0.61041 0.72924 0.0
C612 C 0.46851 0.63746 0.68256 0.0
C613 C 0.48926 0.58958 0.67045 0.0
C614 C 0.5236 0.55332 0.68762 0.0
C615 C 0.53412 0.56379 0.71683 0.0
C616 C 0.4313 0.67675 0.66501 0.0
C617 C 0.5478 0.50244 0.6753 0.0
H618 H 0.38828 0.48542 0.60108 0.0
H619 H 0.52758 0.57866 0.5759 0.0
H620 H 0.41145 0.49379 0.67038 0.0
H621 H 0.37526 0.55771 0.66739 0.0
H622 H 0.35034 0.50089 0.64532 0.0
H623 H 0.57397 0.64547 0.60571 0.0
H624 H 0.54639 0.66439 0.63878 0.0
H625 H 0.59196 0.60663 0.63743 0.0
H626 H 0.46527 0.68468 0.7208 0.0
H627 H 0.55781 0.53433 0.73004 0.0
H628 H 0.3912 0.6562 0.65733 0.0
H629 H 0.45203 0.68957 0.64598 0.0
H630 H 0.42111 0.71364 0.67727 0.0
H631 H 0.5131 0.47394 0.66822 0.0
H632 H 0.57767 0.48111 0.69091 0.0
H633 H 0.57026 0.51269 0.65639 0.0
C634 C 0.48933 0.40703 0.38656 0.0
C635 C 0.5205 0.42385 0.41166 0.0
C636 C 0.51339 0.40609 0.36061 0.0
C637 C 0.57073 0.42097 0.35974 0.0
C638 C 0.60375 0.43416 0.3853 0.0
C639 C 0.57795 0.43625 0.411 0.0
C640 C 0.47609 0.39298 0.33384 0.0
C641 C 0.66558 0.44802 0.38525 0.0
C642 C 0.61657 0.39177 0.28646 0.0
C643 C 0.60643 0.44236 0.27341 0.0
C644 C 0.61101 0.38528 0.31565 0.0
C645 C 0.59263 0.42986 0.33161 0.0
C646 C 0.58547 0.48167 0.31875 0.0
C647 C 0.59317 0.48736 0.28988 0.0
C648 C 0.62133 0.33002 0.32891 0.0
C649 C 0.56459 0.53008 0.33471 0.0
H650 H 0.445 0.39686 0.38691 0.0
H651 H 0.60203 0.45011 0.43022 0.0
H652 H 0.47266 0.42926 0.31987 0.0
H653 H 0.49484 0.35969 0.32183 0.0
H654 H 0.43285 0.38054 0.33836 0.0
H655 H 0.68838 0.4131 0.37658 0.0
H656 H 0.6713 0.48332 0.37123 0.0
H657 H 0.68528 0.4578 0.40688 0.0
H658 H 0.6273 0.35709 0.27369 0.0
H659 H 0.5849 0.52639 0.27969 0.0
H660 H 0.58035 0.30929 0.33074 0.0
H661 H 0.64286 0.33395 0.35064 0.0
H662 H 0.64729 0.3038 0.31592 0.0
H663 H 0.52034 0.52273 0.33952 0.0
H664 H 0.56584 0.56838 0.32235 0.0
H665 H 0.59028 0.53581 0.35525 0.0
loop_
_geom_bond_atom_site_label_1
_geom_bond_atom_site_label_2
_geom_bond_distance
_geom_bond_site_symmetry_2
_ccdc_geom_bond_type
Zn0 O6 1.912 1_546 S
Zn0 O12 1.898 . S
Zn0 O15 1.905 1_545 S
Zn1 O9 1.905 . S
Zn1 O10 1.898 1_545 S
Zn1 O18 1.920 1_545 S
Zn2 O5 2.080 1_445 S
Zn2 O8 2.114 . S
Zn2 O11 2.120 1_545 S
Zn2 O13 2.120 1_455 S
Zn2 O14 2.114 1_554 S
Zn2 O17 2.080 . S
C3 O8 1.166 . S
C3 O9 1.182 . S
C4 O10 1.167 . S
C4 O11 1.299 . S
O5 Zn2 2.080 1_665 S
O5 C19 1.305 . S
O6 Zn0 1.912 1_564 S
O6 C19 1.240 . S
C7 O12 1.183 . S
C7 O13 1.285 1_556 S
O8 Zn2 2.114 . S
O8 C3 1.166 . S
O9 Zn1 1.905 . S
O9 C3 1.182 . S
O10 Zn1 1.898 1_565 S
O10 C4 1.167 . S
O11 Zn2 2.120 1_565 S
O11 C4 1.299 . S
O12 Zn0 1.898 . S
O12 C7 1.183 . S
O13 Zn2 2.120 1_655 S
O13 C7 1.285 1_554 S
O14 Zn2 2.114 1_556 S
O14 C16 1.166 1_545 S
O15 Zn0 1.905 1_565 S
O15 C16 1.182 1_655 S
C16 O14 1.166 1_565 S
C16 O15 1.182 1_455 S
O17 Zn2 2.080 . S
O17 C20 1.305 1_545 S
O18 Zn1 1.920 1_565 S
O18 C20 1.234 . S
C19 O5 1.305 . S
C19 O6 1.240 . S
C20 O17 1.305 1_565 S
C20 O18 1.234 . S
Zn21 O27 1.920 . S
Zn21 O33 1.898 . S
Zn21 O36 1.905 . S
Zn22 O30 1.905 . S
Zn22 O31 1.898 . S
Zn22 O39 1.920 . S
Zn23 O26 2.080 . S
Zn23 O29 2.114 . S
Zn23 O32 2.120 . S
Zn23 O34 2.120 . S
Zn23 O35 2.114 . S
Zn23 O38 2.080 . S
C24 O29 1.166 . S
C24 O30 1.182 . S
C25 O31 1.167 . S
C25 O32 1.299 . S
O26 Zn23 2.080 . S
O26 C40 1.305 . S
O27 Zn21 1.920 . S
O27 C40 1.234 . S
C28 O33 1.167 . S
C28 O34 1.299 . S
O29 Zn23 2.114 . S
O29 C24 1.166 . S
O30 Zn22 1.905 . S
O30 C24 1.182 . S
O31 Zn22 1.898 . S
O31 C25 1.167 . S
O32 Zn23 2.120 . S
O32 C25 1.299 . S
O33 Zn21 1.898 . S
O33 C28 1.167 . S
O34 Zn23 2.120 . S
O34 C28 1.299 . S
O35 Zn23 2.114 . S
O35 C37 1.166 . S
O36 Zn21 1.905 . S
O36 C37 1.182 . S
C37 O35 1.166 . S
C37 O36 1.182 . S
O38 Zn23 2.080 . S
O38 C41 1.305 . S
O39 Zn22 1.920 . S
O39 C41 1.234 . S
C40 O26 1.305 . S
C40 O27 1.234 . S
C41 O38 1.305 . S
C41 O39 1.234 . S
C42 C43 1.391 . S
C42 C46 1.391 . S
C42 H84 0.948 . S
C43 C42 1.391 . S
C43 C44 1.391 . S
C44 C43 1.391 . S
C44 H100 0.947 . S
C44 C101 1.392 . S
C45 C46 1.391 . S
C45 C49 1.397 . S
C45 C101 1.419 . S
C46 C42 1.391 . S
C46 C45 1.391 . S
C46 C47 1.399 . S
C47 C46 1.399 . S
C47 C50 1.396 1_565 S
C47 C59 1.453 1_565 S
C47 C60 1.684 . S
H48 C72 0.948 . S
C49 C45 1.397 . S
C49 C50 1.394 1_565 S
C49 C68 1.723 1_565 S
C50 C47 1.396 1_545 S
C50 C49 1.394 1_545 S
C50 C80 1.723 . S
H51 C74 0.947 . S
H52 C75 0.956 . S
H53 C81 0.982 1_455 S
H54 C82 0.979 . S
H55 C82 0.980 . S
H56 C82 0.983 . S
H57 C81 0.979 . S
H58 C81 0.977 1_455 S
C59 C47 1.453 1_545 S
C59 H88 0.982 . S
C59 H89 0.979 . S
C59 H90 0.977 . S
C60 C47 1.684 . S
C60 H85 0.979 . S
C60 H86 0.980 1_565 S
C60 H87 0.983 . S
C61 C62 1.391 . S
C61 C66 1.391 . S
C61 H91 0.948 1_545 S
C62 C61 1.391 . S
C62 C63 1.391 . S
C63 C62 1.391 . S
C63 C64 1.392 . S
C63 H92 0.944 1_455 S
C64 C63 1.392 . S
C64 C65 1.419 . S
C64 H93 0.948 1_455 S
C65 C64 1.419 . S
C65 C66 1.391 . S
C65 C69 1.397 . S
C66 C61 1.391 . S
C66 C65 1.391 . S
C66 C67 1.399 1_545 S
C67 C66 1.399 1_565 S
C67 C68 1.396 1_565 S
C67 C70 1.453 . S
C67 C71 1.684 . S
C68 C49 1.723 1_545 S
C68 C67 1.396 1_545 S
C68 C69 1.394 . S
C69 C65 1.397 . S
C69 C68 1.394 . S
C69 C79 1.723 . S
C70 C67 1.453 . S
C70 H94 0.982 1_565 S
C70 H95 0.979 . S
C70 H96 0.977 . S
C71 C67 1.684 . S
C71 H97 0.979 . S
C71 H98 0.980 . S
C71 H99 0.983 . S
C72 H48 0.948 . S
C72 C73 1.391 . S
C72 C77 1.391 . S
C73 C72 1.391 . S
C73 C74 1.391 . S
C74 H51 0.947 . S
C74 C73 1.391 . S
C74 C75 1.381 1_655 S
C75 H52 0.956 . S
C75 C74 1.381 1_455 S
C75 C76 1.421 . S
C76 C75 1.421 . S
C76 C77 1.391 1_455 S
C76 C80 1.397 . S
C77 C72 1.391 . S
C77 C76 1.391 1_655 S
C77 C78 1.399 . S
C78 C77 1.399 . S
C78 C79 1.396 1_655 S
C78 C81 1.453 . S
C78 C82 1.684 . S
C79 C69 1.723 . S
C79 C78 1.396 1_455 S
C79 C80 1.394 . S
C80 C50 1.723 . S
C80 C76 1.397 . S
C80 C79 1.394 . S
C81 H53 0.982 1_655 S
C81 H57 0.979 . S
C81 H58 0.977 1_655 S
C81 C78 1.453 . S
C82 H54 0.979 . S
C82 H55 0.980 . S
C82 H56 0.983 . S
C82 C78 1.684 . S
H83 C101 0.948 . S
H84 C42 0.948 . S
H85 C60 0.979 . S
H86 C60 0.980 1_545 S
H87 C60 0.983 . S
H88 C59 0.982 . S
H89 C59 0.979 . S
H90 C59 0.977 . S
H91 C61 0.948 1_565 S
H92 C63 0.944 1_655 S
H93 C64 0.948 1_655 S
H94 C70 0.982 1_545 S
H95 C70 0.979 . S
H96 C70 0.977 . S
H97 C71 0.979 . S
H98 C71 0.980 . S
H99 C71 0.983 . S
H100 C44 0.947 . S
C101 C44 1.392 . S
C101 C45 1.419 . S
C101 H83 0.948 . S
C102 C103 1.391 . S
C102 C106 1.391 . S
C102 H144 0.948 . S
C103 C102 1.391 . S
C103 C104 1.391 . S
C104 C103 1.391 . S
C104 H160 0.947 . S
C104 C161 1.392 . S
C105 C106 1.391 . S
C105 C109 1.397 . S
C105 C161 1.419 . S
C106 C102 1.391 . S
C106 C105 1.391 . S
C106 C107 1.399 . S
C107 C106 1.399 . S
C107 C110 1.396 . S
C107 C119 1.453 . S
C107 C120 1.684 1_455 S
H108 C132 0.948 . S
C109 C105 1.397 . S
C109 C110 1.394 . S
C109 C128 1.723 . S
C110 C107 1.396 . S
C110 C109 1.394 . S
C110 C140 1.723 1_445 S
H111 C134 0.947 . S
H112 C135 0.948 . S
H113 C141 0.982 . S
H114 C142 0.979 . S
H115 C142 0.980 . S
H116 C142 0.983 . S
H117 C141 0.979 . S
H118 C141 0.977 . S
C119 C107 1.453 . S
C119 H148 0.982 . S
C119 H149 0.979 . S
C119 H150 0.977 1_545 S
C120 C107 1.684 1_655 S
C120 H145 0.979 . S
C120 H146 0.980 . S
C120 H147 0.983 1_655 S
C121 C122 1.391 1_455 S
C121 C126 1.391 . S
C121 H151 0.948 . S
C122 C121 1.391 1_655 S
C122 C123 1.391 1_545 S
C123 C122 1.391 1_565 S
C123 C124 1.392 . S
C123 H152 0.947 . S
C124 C123 1.392 . S
C124 C125 1.419 1_565 S
C124 H153 0.948 . S
C125 C124 1.419 1_545 S
C125 C126 1.391 1_655 S
C125 C129 1.397 . S
C126 C121 1.391 . S
C126 C125 1.391 1_455 S
C126 C127 1.399 . S
C127 C126 1.399 . S
C127 C128 1.396 . S
C127 C130 1.453 . S
C127 C131 1.684 . S
C128 C109 1.723 . S
C128 C127 1.396 . S
C128 C129 1.394 1_455 S
C129 C125 1.397 . S
C129 C128 1.394 1_655 S
C129 C139 1.723 1_545 S
C130 C127 1.453 . S
C130 H154 0.982 . S
C130 H155 0.979 . S
C130 H156 0.977 . S
C131 C127 1.684 . S
C131 H157 0.979 . S
C131 H158 0.980 . S
C131 H159 0.983 . S
C132 H108 0.948 . S
C132 C133 1.391 . S
C132 C137 1.391 . S
C133 C132 1.391 . S
C133 C134 1.391 . S
C134 H111 0.947 . S
C134 C133 1.391 . S
C134 C135 1.392 . S
C135 H112 0.948 . S
C135 C134 1.392 . S
C135 C136 1.419 . S
C136 C135 1.419 . S
C136 C137 1.391 . S
C136 C140 1.397 . S
C137 C132 1.391 . S
C137 C136 1.391 . S
C137 C138 1.399 . S
C138 C137 1.399 . S
C138 C139 1.396 . S
C138 C141 1.453 . S
C138 C142 1.684 . S
C139 C129 1.723 1_565 S
C139 C138 1.396 . S
C139 C140 1.394 . S
C140 C110 1.723 1_665 S
C140 C136 1.397 . S
C140 C139 1.394 . S
C141 H113 0.982 . S
C141 H117 0.979 . S
C141 H118 0.977 . S
C141 C138 1.453 . S
C142 H114 0.979 . S
C142 H115 0.980 . S
C142 H116 0.983 . S
C142 C138 1.684 . S
H143 C161 0.948 . S
H144 C102 0.948 . S
H145 C120 0.979 . S
H146 C120 0.980 . S
H147 C120 0.983 1_455 S
H148 C119 0.982 . S
H149 C119 0.979 . S
H150 C119 0.977 1_565 S
H151 C121 0.948 . S
H152 C123 0.947 . S
H153 C124 0.948 . S
H154 C130 0.982 . S
H155 C130 0.979 . S
H156 C130 0.977 . S
H157 C131 0.979 . S
H158 C131 0.980 . S
H159 C131 0.983 . S
H160 C104 0.947 . S
C161 C104 1.392 . S
C161 C105 1.419 . S
C161 H143 0.948 . S
C162 C163 1.391 . S
C162 C166 1.391 . S
C162 H204 0.948 . S
C163 C162 1.391 . S
C163 C164 1.391 . S
C164 C163 1.391 . S
C164 H220 0.947 . S
C164 C221 1.392 . S
C165 C166 1.391 . S
C165 C169 1.397 . S
C165 C221 1.419 . S
C166 C162 1.391 . S
C166 C165 1.391 . S
C166 C167 1.399 . S
C167 C166 1.399 . S
C167 C170 1.396 . S
C167 C179 1.453 . S
C167 C180 1.684 . S
H168 C192 0.948 . S
C169 C165 1.397 . S
C169 C170 1.394 . S
C169 C188 1.723 . S
C170 C167 1.396 . S
C170 C169 1.394 . S
C170 C200 1.723 . S
H171 C194 0.947 1_554 S
H172 C195 0.948 . S
H173 C201 0.982 . S
H174 C202 0.979 . S
H175 C202 0.980 . S
H176 C202 0.983 . S
H177 C201 0.979 . S
H178 C201 0.977 . S
C179 C167 1.453 . S
C179 H208 0.982 . S
C179 H209 0.997 . S
C179 H210 0.977 . S
C180 C167 1.684 . S
C180 H205 0.979 . S
C180 H206 0.980 . S
C180 H207 0.983 1_556 S
C181 C182 1.391 . S
C181 C186 1.391 . S
C181 H211 0.948 . S
C182 C181 1.391 . S
C182 C183 1.391 . S
C183 C182 1.391 . S
C183 C184 1.392 . S
C183 H212 0.947 . S
C184 C183 1.392 . S
C184 C185 1.419 . S
C184 H213 0.948 . S
C185 C184 1.419 . S
C185 C186 1.391 . S
C185 C189 1.397 . S
C186 C181 1.391 . S
C186 C185 1.391 . S
C186 C187 1.399 . S
C187 C186 1.399 . S
C187 C188 1.396 . S
C187 C190 1.453 . S
C187 C191 1.684 . S
C188 C169 1.723 . S
C188 C187 1.396 . S
C188 C189 1.394 . S
C189 C185 1.397 . S
C189 C188 1.394 . S
C189 C199 1.723 . S
C190 C187 1.453 . S
C190 H214 0.982 . S
C190 H215 0.979 . S
C190 H216 0.977 . S
C191 C187 1.684 . S
C191 H217 0.979 . S
C191 H218 0.980 . S
C191 H219 0.983 . S
C192 H168 0.948 . S
C192 C193 1.391 . S
C192 C197 1.391 . S
C193 C192 1.391 . S
C193 C194 1.391 . S
C194 H171 0.947 1_556 S
C194 C193 1.391 . S
C194 C195 1.392 . S
C195 H172 0.948 . S
C195 C194 1.392 . S
C195 C196 1.419 . S
C196 C195 1.419 . S
C196 C197 1.391 . S
C196 C200 1.397 . S
C197 C192 1.391 . S
C197 C196 1.391 . S
C197 C198 1.399 . S
C198 C197 1.399 . S
C198 C199 1.396 . S
C198 C201 1.453 . S
C198 C202 1.684 . S
C199 C189 1.723 . S
C199 C198 1.396 . S
C199 C200 1.394 . S
C200 C170 1.723 . S
C200 C196 1.397 . S
C200 C199 1.394 . S
C201 H173 0.982 . S
C201 H177 0.979 . S
C201 H178 0.977 . S
C201 C198 1.453 . S
C202 H174 0.979 . S
C202 H175 0.980 . S
C202 H176 0.983 . S
C202 C198 1.684 . S
H203 C221 0.948 . S
H204 C162 0.948 . S
H205 C180 0.979 . S
H206 C180 0.980 . S
H207 C180 0.983 1_554 S
H208 C179 0.982 . S
H209 C179 0.997 . S
H210 C179 0.977 . S
H211 C181 0.948 . S
H212 C183 0.947 . S
H213 C184 0.948 . S
H214 C190 0.982 . S
H215 C190 0.979 . S
H216 C190 0.977 . S
H217 C191 0.979 . S
H218 C191 0.980 . S
H219 C191 0.983 . S
H220 C164 0.947 . S
C221 C164 1.392 . S
C221 C165 1.419 . S
C221 H203 0.948 . S
C222 C223 1.391 . S
C222 C226 1.391 . S
C222 H264 0.948 . S
C223 C222 1.391 . S
C223 C224 1.391 . S
C224 C223 1.391 . S
C224 H280 0.947 . S
C224 C281 1.392 . S
C225 C226 1.391 . S
C225 C229 1.397 . S
C225 C281 1.419 . S
C226 C222 1.391 . S
C226 C225 1.391 . S
C226 C227 1.399 . S
C227 C226 1.399 . S
C227 C230 1.396 . S
C227 C239 1.453 . S
C227 C240 1.684 . S
H228 C252 0.948 . S
C229 C225 1.397 . S
C229 C230 1.394 . S
C229 C248 1.723 . S
C230 C227 1.396 . S
C230 C229 1.394 . S
C230 C260 1.723 . S
H231 C254 0.947 . S
H232 C255 0.948 . S
H233 C261 0.982 . S
H234 C262 0.979 . S
H235 C262 0.980 . S
H236 C262 0.983 . S
H237 C261 0.979 . S
H238 C261 0.977 . S
C239 C227 1.453 . S
C239 H268 0.982 . S
C239 H269 0.979 . S
C239 H270 0.977 . S
C240 C227 1.684 . S
C240 H265 0.979 . S
C240 H266 0.980 . S
C240 H267 0.983 . S
C241 C242 1.391 . S
C241 C246 1.391 . S
C241 H271 0.948 . S
C242 C241 1.391 . S
C242 C243 1.391 . S
C243 C242 1.391 . S
C243 C244 1.392 . S
C243 H272 0.947 . S
C244 C243 1.392 . S
C244 C245 1.419 . S
C244 H273 0.948 . S
C245 C244 1.419 . S
C245 C246 1.391 . S
C245 C249 1.397 . S
C246 C241 1.391 . S
C246 C245 1.391 . S
C246 C247 1.399 . S
C247 C246 1.399 . S
C247 C248 1.396 . S
C247 C250 1.453 . S
C247 C251 1.684 . S
C248 C229 1.723 . S
C248 C247 1.396 . S
C248 C249 1.394 . S
C249 C245 1.397 . S
C249 C248 1.394 . S
C249 C259 1.723 . S
C250 C247 1.453 . S
C250 H274 0.982 . S
C250 H275 0.979 . S
C250 H276 0.977 . S
C251 C247 1.684 . S
C251 H277 0.979 . S
C251 H278 0.980 . S
C251 H279 0.983 . S
C252 H228 0.948 . S
C252 C253 1.391 . S
C252 C257 1.391 . S
C253 C252 1.391 . S
C253 C254 1.391 . S
C254 H231 0.947 . S
C254 C253 1.391 . S
C254 C255 1.392 . S
C255 H232 0.948 . S
C255 C254 1.392 . S
C255 C256 1.419 . S
C256 C255 1.419 . S
C256 C257 1.391 . S
C256 C260 1.397 . S
C257 C252 1.391 . S
C257 C256 1.391 . S
C257 C258 1.399 . S
C258 C257 1.399 . S
C258 C259 1.396 . S
C258 C261 1.453 . S
C258 C262 1.684 . S
C259 C249 1.723 . S
C259 C258 1.396 . S
C259 C260 1.394 . S
C260 C230 1.723 . S
C260 C256 1.397 . S
C260 C259 1.394 . S
C261 H233 0.982 . S
C261 H237 0.979 . S
C261 H238 0.977 . S
C261 C258 1.453 . S
C262 H234 0.979 . S
C262 H235 0.980 . S
C262 H236 0.983 . S
C262 C258 1.684 . S
H263 C281 0.948 . S
H264 C222 0.948 . S
H265 C240 0.979 . S
H266 C240 0.980 . S
H267 C240 0.983 . S
H268 C239 0.982 . S
H269 C239 0.979 . S
H270 C239 0.977 . S
H271 C241 0.948 . S
H272 C243 0.947 . S
H273 C244 0.948 . S
H274 C250 0.982 . S
H275 C250 0.979 . S
H276 C250 0.977 . S
H277 C251 0.979 . S
H278 C251 0.980 . S
H279 C251 0.983 . S
H280 C224 0.947 . S
C281 C224 1.392 . S
C281 C225 1.419 . S
C281 H263 0.948 . S
C282 C283 1.391 . S
C282 C284 1.394 . S
C282 H298 0.931 . S
C283 C282 1.391 . S
C283 C287 1.376 . S
C284 C282 1.394 . S
C284 C285 1.369 . S
C284 C288 1.531 . S
C285 C284 1.369 . S
C285 C286 1.410 . S
C285 C293 1.503 . S
C286 C285 1.410 . S
C286 C287 1.392 . S
C286 C289 1.511 . S
C287 C283 1.376 . S
C287 C286 1.392 . S
C287 H299 0.929 . S
C288 C284 1.531 . S
C288 H300 0.960 . S
C288 H301 0.962 . S
C288 H302 0.960 . S
C289 C286 1.511 . S
C289 H303 0.961 . S
C289 H304 0.961 . S
C289 H305 0.961 . S
C290 C291 1.370 . S
C290 C292 1.363 . S
C290 H306 0.931 . S
C291 C290 1.370 . S
C291 C295 1.408 . S
C292 C290 1.363 . S
C292 C293 1.370 . S
C292 C296 1.524 . S
C293 C285 1.503 . S
C293 C292 1.370 . S
C293 C294 1.403 . S
C294 C293 1.403 . S
C294 C295 1.404 . S
C294 C297 1.539 1_554 S
C295 C291 1.408 . S
C295 C294 1.404 . S
C295 H307 0.930 . S
C296 C292 1.524 . S
C296 H308 0.956 . S
C296 H309 0.961 . S
C296 H310 0.961 . S
C297 C294 1.539 1_556 S
C297 H311 0.958 . S
C297 H312 0.961 . S
C297 H313 0.960 . S
H298 C282 0.931 . S
H299 C287 0.929 . S
H300 C288 0.960 . S
H301 C288 0.962 . S
H302 C288 0.960 . S
H303 C289 0.961 . S
H304 C289 0.961 . S
H305 C289 0.961 . S
H306 C290 0.931 . S
H307 C295 0.930 . S
H308 C296 0.956 . S
H309 C296 0.961 . S
H310 C296 0.961 . S
H311 C297 0.958 . S
H312 C297 0.961 . S
H313 C297 0.960 . S
C314 C315 1.391 . S
C314 C316 1.394 . S
C314 H330 0.931 . S
C315 C314 1.391 . S
C315 C319 1.376 1_556 S
C316 C314 1.394 . S
C316 C317 1.369 . S
C316 C320 1.531 . S
C317 C316 1.369 . S
C317 C318 1.410 1_556 S
C317 C325 1.503 . S
C318 C317 1.410 1_554 S
C318 C319 1.392 . S
C318 C321 1.511 . S
C319 C315 1.376 1_554 S
C319 C318 1.392 . S
C319 H331 0.929 . S
C320 C316 1.531 . S
C320 H332 0.960 . S
C320 H333 0.962 . S
C320 H334 0.960 . S
C321 C318 1.511 . S
C321 H335 0.961 . S
C321 H336 0.961 . S
C321 H337 0.961 . S
C322 C323 1.370 . S
C322 C324 1.363 . S
C322 H338 0.931 1_556 S
C323 C322 1.370 . S
C323 C327 1.408 . S
C324 C322 1.363 . S
C324 C325 1.370 . S
C324 C328 1.524 1_556 S
C325 C317 1.503 . S
C325 C324 1.370 . S
C325 C326 1.403 . S
C326 C325 1.403 . S
C326 C327 1.404 . S
C326 C329 1.539 . S
C327 C323 1.408 . S
C327 C326 1.404 . S
C327 H339 0.930 . S
C328 C324 1.524 1_554 S
C328 H340 0.956 . S
C328 H341 0.961 . S
C328 H342 0.961 . S
C329 C326 1.539 . S
C329 H343 0.958 . S
C329 H344 0.961 . S
C329 H345 0.960 . S
H330 C314 0.931 . S
H331 C319 0.929 . S
H332 C320 0.960 . S
H333 C320 0.962 . S
H334 C320 0.960 . S
H335 C321 0.961 . S
H336 C321 0.961 . S
H337 C321 0.961 . S
H338 C322 0.931 1_554 S
H339 C327 0.930 . S
H340 C328 0.956 . S
H341 C328 0.961 . S
H342 C328 0.961 . S
H343 C329 0.958 . S
H344 C329 0.961 . S
H345 C329 0.960 . S
C346 C347 1.391 . S
C346 C348 1.394 . S
C346 H362 0.931 1_554 S
C347 C346 1.391 . S
C347 C351 1.376 . S
C348 C346 1.394 . S
C348 C349 1.369 . S
C348 C352 1.531 1_554 S
C349 C348 1.369 . S
C349 C350 1.410 . S
C349 C357 1.503 . S
C350 C349 1.410 . S
C350 C351 1.392 . S
C350 C353 1.511 . S
C351 C347 1.376 . S
C351 C350 1.392 . S
C351 H363 0.929 . S
C352 C348 1.531 1_556 S
C352 H364 0.961 1_556 S
C352 H365 0.961 . S
C352 H366 0.960 . S
C353 C350 1.511 . S
C353 H367 0.961 . S
C353 H368 0.961 . S
C353 H369 0.961 . S
C354 C355 1.370 . S
C354 C356 1.363 . S
C354 H370 0.931 . S
C355 C354 1.370 . S
C355 C359 1.408 . S
C356 C354 1.363 . S
C356 C357 1.370 . S
C356 C360 1.524 . S
C357 C349 1.503 . S
C357 C356 1.370 . S
C357 C358 1.403 . S
C358 C357 1.403 . S
C358 C359 1.404 . S
C358 C361 1.539 . S
C359 C355 1.408 . S
C359 C358 1.404 . S
C359 H371 0.930 . S
C360 C356 1.524 . S
C360 H372 0.956 . S
C360 H373 0.961 . S
C360 H374 0.961 . S
C361 C358 1.539 . S
C361 H375 0.958 . S
C361 H376 0.961 . S
C361 H377 0.960 . S
H362 C346 0.931 1_556 S
H363 C351 0.929 . S
H364 C352 0.961 1_554 S
H365 C352 0.961 . S
H366 C352 0.960 . S
H367 C353 0.961 . S
H368 C353 0.961 . S
H369 C353 0.961 . S
H370 C354 0.931 . S
H371 C359 0.930 . S
H372 C360 0.956 . S
H373 C360 0.961 . S
H374 C360 0.961 . S
H375 C361 0.958 . S
H376 C361 0.961 . S
H377 C361 0.960 . S
C378 C379 1.395 . S
C378 C380 1.401 . S
C378 H394 0.931 . S
C379 C378 1.395 . S
C379 C383 1.368 1_554 S
C380 C378 1.401 . S
C380 C381 1.354 1_554 S
C380 C384 1.539 . S
C381 C380 1.354 1_556 S
C381 C382 1.410 . S
C381 C389 1.503 . S
C382 C381 1.410 . S
C382 C383 1.392 . S
C382 C385 1.511 . S
C383 C379 1.368 1_556 S
C383 C382 1.392 . S
C383 H395 0.929 . S
C384 C380 1.539 . S
C384 H396 0.960 1_554 S
C384 H397 0.962 . S
C384 H398 0.960 . S
C385 C382 1.511 . S
C385 H399 0.961 . S
C385 H400 0.961 . S
C385 H401 0.961 . S
C386 C387 1.370 . S
C386 C388 1.363 1_556 S
C386 H402 0.931 1_556 S
C387 C386 1.370 . S
C387 C391 1.408 . S
C388 C386 1.363 1_554 S
C388 C389 1.370 1_554 S
C388 C392 1.524 . S
C389 C381 1.503 . S
C389 C388 1.370 1_556 S
C389 C390 1.403 . S
C390 C389 1.403 . S
C390 C391 1.404 . S
C390 C393 1.539 . S
C391 C387 1.408 . S
C391 C390 1.404 . S
C391 H403 0.930 . S
C392 C388 1.524 . S
C392 H404 0.956 . S
C392 H405 0.961 . S
C392 H406 0.961 . S
C393 C390 1.539 . S
C393 H407 0.958 . S
C393 H408 0.961 . S
C393 H409 0.960 . S
H394 C378 0.931 . S
H395 C383 0.929 . S
H396 C384 0.960 1_556 S
H397 C384 0.962 . S
H398 C384 0.960 . S
H399 C385 0.961 . S
H400 C385 0.961 . S
H401 C385 0.961 . S
H402 C386 0.931 1_554 S
H403 C391 0.930 . S
H404 C392 0.956 . S
H405 C392 0.961 . S
H406 C392 0.961 . S
H407 C393 0.958 . S
H408 C393 0.961 . S
H409 C393 0.960 . S
C410 C411 1.391 . S
C410 C412 1.394 . S
C410 H426 0.931 . S
C411 C410 1.391 . S
C411 C415 1.376 . S
C412 C410 1.394 . S
C412 C413 1.369 . S
C412 C416 1.531 . S
C413 C412 1.369 . S
C413 C414 1.410 . S
C413 C421 1.503 . S
C414 C413 1.410 . S
C414 C415 1.392 . S
C414 C417 1.511 . S
C415 C411 1.376 . S
C415 C414 1.392 . S
C415 H427 0.929 . S
C416 C412 1.531 . S
C416 H428 0.960 . S
C416 H429 0.962 . S
C416 H430 0.960 . S
C417 C414 1.511 . S
C417 H431 0.961 . S
C417 H432 0.961 . S
C417 H433 0.961 . S
C418 C419 1.370 . S
C418 C420 1.363 . S
C418 H434 0.931 . S
C419 C418 1.370 . S
C419 C423 1.408 . S
C420 C418 1.363 . S
C420 C421 1.370 . S
C420 C424 1.524 . S
C421 C413 1.503 . S
C421 C420 1.370 . S
C421 C422 1.403 . S
C422 C421 1.403 . S
C422 C423 1.404 . S
C422 C425 1.539 . S
C423 C419 1.408 . S
C423 C422 1.404 . S
C423 H435 0.930 . S
C424 C420 1.524 . S
C424 H436 0.956 . S
C424 H437 0.961 . S
C424 H438 0.961 . S
C425 C422 1.539 . S
C425 H439 0.958 . S
C425 H440 0.961 . S
C425 H441 0.960 . S
H426 C410 0.931 . S
H427 C415 0.929 . S
H428 C416 0.960 . S
H429 C416 0.962 . S
H430 C416 0.960 . S
H431 C417 0.961 . S
H432 C417 0.961 . S
H433 C417 0.961 . S
H434 C418 0.931 . S
H435 C423 0.930 . S
H436 C424 0.956 . S
H437 C424 0.961 . S
H438 C424 0.961 . S
H439 C425 0.958 . S
H440 C425 0.961 . S
H441 C425 0.960 . S
C442 C443 1.391 . S
C442 C444 1.394 . S
C442 H458 0.931 . S
C443 C442 1.391 . S
C443 C447 1.376 . S
C444 C442 1.394 . S
C444 C445 1.369 . S
C444 C448 1.531 . S
C445 C444 1.369 . S
C445 C446 1.410 . S
C445 C453 1.503 . S
C446 C445 1.410 . S
C446 C447 1.392 . S
C446 C449 1.511 . S
C447 C443 1.376 . S
C447 C446 1.392 . S
C447 H459 0.929 . S
C448 C444 1.531 . S
C448 H460 0.960 . S
C448 H461 0.962 . S
C448 H462 0.960 . S
C449 C446 1.511 . S
C449 H463 0.961 . S
C449 H464 0.961 . S
C449 H465 0.961 . S
C450 C451 1.370 . S
C450 C452 1.363 . S
C450 H466 0.931 . S
C451 C450 1.370 . S
C451 C455 1.408 . S
C452 C450 1.363 . S
C452 C453 1.370 . S
C452 C456 1.524 . S
C453 C445 1.503 . S
C453 C452 1.370 . S
C453 C454 1.403 . S
C454 C453 1.403 . S
C454 C455 1.404 . S
C454 C457 1.539 . S
C455 C451 1.408 . S
C455 C454 1.404 . S
C455 H467 0.930 . S
C456 C452 1.524 . S
C456 H468 0.956 . S
C456 H469 0.961 . S
C456 H470 0.961 . S
C457 C454 1.539 . S
C457 H471 0.958 . S
C457 H472 0.961 . S
C457 H473 0.960 . S
H458 C442 0.931 . S
H459 C447 0.929 . S
H460 C448 0.960 . S
H461 C448 0.962 . S
H462 C448 0.960 . S
H463 C449 0.961 . S
H464 C449 0.961 . S
H465 C449 0.961 . S
H466 C450 0.931 . S
H467 C455 0.930 . S
H468 C456 0.956 . S
H469 C456 0.961 . S
H470 C456 0.961 . S
H471 C457 0.958 . S
H472 C457 0.961 . S
H473 C457 0.960 . S
C474 C475 1.391 . S
C474 C476 1.394 . S
C474 H490 0.931 . S
C475 C474 1.391 . S
C475 C479 1.376 . S
C476 C474 1.394 . S
C476 C477 1.369 . S
C476 C480 1.531 . S
C477 C476 1.369 . S
C477 C478 1.410 . S
C477 C485 1.503 . S
C478 C477 1.410 . S
C478 C479 1.392 . S
C478 C481 1.511 . S
C479 C475 1.376 . S
C479 C478 1.392 . S
C479 H491 0.929 . S
C480 C476 1.531 . S
C480 H492 0.960 . S
C480 H493 0.962 . S
C480 H494 0.960 . S
C481 C478 1.511 . S
C481 H495 0.961 . S
C481 H496 0.961 . S
C481 H497 0.961 . S
C482 C483 1.370 . S
C482 C484 1.363 . S
C482 H498 0.931 . S
C483 C482 1.370 . S
C483 C487 1.408 . S
C484 C482 1.363 . S
C484 C485 1.370 . S
C484 C488 1.524 . S
C485 C477 1.503 . S
C485 C484 1.370 . S
C485 C486 1.403 . S
C486 C485 1.403 . S
C486 C487 1.404 . S
C486 C489 1.539 . S
C487 C483 1.408 . S
C487 C486 1.404 . S
C487 H499 0.930 . S
C488 C484 1.524 . S
C488 H500 0.956 . S
C488 H501 0.961 . S
C488 H502 0.961 . S
C489 C486 1.539 . S
C489 H503 0.958 . S
C489 H504 0.961 . S
C489 H505 0.960 . S
H490 C474 0.931 . S
H491 C479 0.929 . S
H492 C480 0.960 . S
H493 C480 0.962 . S
H494 C480 0.960 . S
H495 C481 0.961 . S
H496 C481 0.961 . S
H497 C481 0.961 . S
H498 C482 0.931 . S
H499 C487 0.930 . S
H500 C488 0.956 . S
H501 C488 0.961 . S
H502 C488 0.961 . S
H503 C489 0.958 . S
H504 C489 0.961 . S
H505 C489 0.960 . S
C506 C507 1.391 . S
C506 C508 1.394 . S
C506 H522 0.931 . S
C507 C506 1.391 . S
C507 C511 1.376 . S
C508 C506 1.394 . S
C508 C509 1.369 . S
C508 C512 1.531 . S
C509 C508 1.369 . S
C509 C510 1.410 . S
C509 C517 1.503 . S
C510 C509 1.410 . S
C510 C511 1.392 . S
C510 C513 1.511 . S
C511 C507 1.376 . S
C511 C510 1.392 . S
C511 H523 0.929 . S
C512 C508 1.531 . S
C512 H524 0.960 . S
C512 H525 0.962 . S
C512 H526 0.960 . S
C513 C510 1.511 . S
C513 H527 0.961 . S
C513 H528 0.961 . S
C513 H529 0.961 . S
C514 C515 1.370 . S
C514 C516 1.363 . S
C514 H530 0.931 . S
C515 C514 1.370 . S
C515 C519 1.408 . S
C516 C514 1.363 . S
C516 C517 1.370 . S
C516 C520 1.524 . S
C517 C509 1.503 . S
C517 C516 1.370 . S
C517 C518 1.403 . S
C518 C517 1.403 . S
C518 C519 1.404 . S
C518 C521 1.539 . S
C519 C515 1.408 . S
C519 C518 1.404 . S
C519 H531 0.930 . S
C520 C516 1.524 . S
C520 H532 0.956 . S
C520 H533 0.961 . S
C520 H534 0.961 . S
C521 C518 1.539 . S
C521 H535 0.958 . S
C521 H536 0.961 . S
C521 H537 0.960 . S
H522 C506 0.931 . S
H523 C511 0.929 . S
H524 C512 0.960 . S
H525 C512 0.962 . S
H526 C512 0.960 . S
H527 C513 0.961 . S
H528 C513 0.961 . S
H529 C513 0.961 . S
H530 C514 0.931 . S
H531 C519 0.930 . S
H532 C520 0.956 . S
H533 C520 0.961 . S
H534 C520 0.961 . S
H535 C521 0.958 . S
H536 C521 0.961 . S
H537 C521 0.960 . S
C538 C539 1.391 . S
C538 C540 1.394 . S
C538 H554 0.931 1_455 S
C539 C538 1.391 . S
C539 C543 1.376 1_565 S
C540 C538 1.394 . S
C540 C541 1.369 . S
C540 C544 1.531 1_455 S
C541 C540 1.369 . S
C541 C542 1.410 1_565 S
C541 C549 1.503 1_565 S
C542 C541 1.410 1_545 S
C542 C543 1.392 . S
C542 C545 1.511 . S
C543 C539 1.376 1_545 S
C543 C542 1.392 . S
C543 H555 0.929 . S
C544 C540 1.531 1_655 S
C544 H556 0.960 1_655 S
C544 H557 0.962 . S
C544 H558 0.960 . S
C545 C542 1.511 . S
C545 H559 0.961 . S
C545 H560 0.961 . S
C545 H561 0.961 . S
C546 C547 1.370 . S
C546 C548 1.363 . S
C546 H562 0.931 . S
C547 C546 1.370 . S
C547 C551 1.408 1_545 S
C548 C546 1.363 . S
C548 C549 1.370 . S
C548 C552 1.524 1_455 S
C549 C541 1.503 1_545 S
C549 C548 1.370 . S
C549 C550 1.403 1_545 S
C550 C549 1.403 1_565 S
C550 C551 1.404 . S
C550 C553 1.539 . S
C551 C547 1.408 1_565 S
C551 C550 1.404 . S
C551 H563 0.930 . S
C552 C548 1.524 1_655 S
C552 H564 0.956 . S
C552 H565 0.961 1_655 S
C552 H566 0.961 . S
C553 C550 1.539 . S
C553 H567 0.958 . S
C553 H568 0.961 . S
C553 H569 0.960 . S
H554 C538 0.931 1_655 S
H555 C543 0.929 . S
H556 C544 0.960 1_455 S
H557 C544 0.962 . S
H558 C544 0.960 . S
H559 C545 0.961 . S
H560 C545 0.961 . S
H561 C545 0.961 . S
H562 C546 0.931 . S
H563 C551 0.930 . S
H564 C552 0.956 . S
H565 C552 0.961 1_455 S
H566 C552 0.961 . S
H567 C553 0.958 . S
H568 C553 0.961 . S
H569 C553 0.960 . S
C570 C571 1.391 . S
C570 C572 1.394 . S
C570 H586 0.931 . S
C571 C570 1.391 . S
C571 C575 1.376 1_465 S
C572 C570 1.394 . S
C572 C573 1.369 . S
C572 C576 1.531 . S
C573 C572 1.369 . S
C573 C574 1.410 1_465 S
C573 C581 1.503 1_565 S
C574 C573 1.410 1_645 S
C574 C575 1.392 . S
C574 C577 1.511 . S
C575 C571 1.376 1_645 S
C575 C574 1.392 . S
C575 H587 0.929 . S
C576 C572 1.531 . S
C576 H588 0.960 . S
C576 H589 0.962 . S
C576 H590 0.960 . S
C577 C574 1.511 . S
C577 H591 0.961 . S
C577 H592 0.961 . S
C577 H593 0.961 . S
C578 C579 1.370 . S
C578 C580 1.363 . S
C578 H594 0.931 . S
C579 C578 1.370 . S
C579 C583 1.408 1_445 S
C580 C578 1.363 . S
C580 C581 1.370 . S
C580 C584 1.524 . S
C581 C573 1.503 1_545 S
C581 C580 1.370 . S
C581 C582 1.403 1_445 S
C582 C581 1.403 1_665 S
C582 C583 1.404 . S
C582 C585 1.539 . S
C583 C579 1.408 1_665 S
C583 C582 1.404 . S
C583 H595 0.930 . S
C584 C580 1.524 . S
C584 H596 0.956 . S
C584 H597 0.961 . S
C584 H598 0.961 . S
C585 C582 1.539 . S
C585 H599 0.958 . S
C585 H600 0.961 . S
C585 H601 0.960 . S
H586 C570 0.931 . S
H587 C575 0.929 . S
H588 C576 0.960 . S
H589 C576 0.962 . S
H590 C576 0.960 . S
H591 C577 0.961 . S
H592 C577 0.961 . S
H593 C577 0.961 . S
H594 C578 0.931 . S
H595 C583 0.930 . S
H596 C584 0.956 . S
H597 C584 0.961 . S
H598 C584 0.961 . S
H599 C585 0.958 . S
H600 C585 0.961 . S
H601 C585 0.960 . S
C602 C603 1.391 . S
C602 C604 1.394 . S
C602 H618 0.931 . S
C603 C602 1.391 . S
C603 C607 1.376 . S
C604 C602 1.394 . S
C604 C605 1.369 . S
C604 C608 1.531 . S
C605 C604 1.369 . S
C605 C606 1.410 . S
C605 C613 1.503 . S
C606 C605 1.410 . S
C606 C607 1.392 . S
C606 C609 1.511 . S
C607 C603 1.376 . S
C607 C606 1.392 . S
C607 H619 0.929 . S
C608 C604 1.531 . S
C608 H620 0.960 . S
C608 H621 0.962 . S
C608 H622 0.960 . S
C609 C606 1.511 . S
C609 H623 0.961 . S
C609 H624 0.961 . S
C609 H625 0.961 . S
C610 C611 1.370 . S
C610 C612 1.363 . S
C610 H626 0.931 . S
C611 C610 1.370 . S
C611 C615 1.408 . S
C612 C610 1.363 . S
C612 C613 1.370 . S
C612 C616 1.524 . S
C613 C605 1.503 . S
C613 C612 1.370 . S
C613 C614 1.403 . S
C614 C613 1.403 . S
C614 C615 1.404 . S
C614 C617 1.539 . S
C615 C611 1.408 . S
C615 C614 1.404 . S
C615 H627 0.930 . S
C616 C612 1.524 . S
C616 H628 0.956 . S
C616 H629 0.961 . S
C616 H630 0.961 . S
C617 C614 1.539 . S
C617 H631 0.958 . S
C617 H632 0.961 . S
C617 H633 0.960 . S
H618 C602 0.931 . S
H619 C607 0.929 . S
H620 C608 0.960 . S
H621 C608 0.962 . S
H622 C608 0.960 . S
H623 C609 0.961 . S
H624 C609 0.961 . S
H625 C609 0.961 . S
H626 C610 0.931 . S
H627 C615 0.930 . S
H628 C616 0.956 . S
H629 C616 0.961 . S
H630 C616 0.961 . S
H631 C617 0.958 . S
H632 C617 0.961 . S
H633 C617 0.960 . S
C634 C635 1.391 . S
C634 C636 1.394 . S
C634 H650 0.931 . S
C635 C634 1.391 . S
C635 C639 1.376 . S
C636 C634 1.394 . S
C636 C637 1.369 . S
C636 C640 1.531 . S
C637 C636 1.369 . S
C637 C638 1.410 . S
C637 C645 1.503 . S
C638 C637 1.410 . S
C638 C639 1.392 . S
C638 C641 1.511 . S
C639 C635 1.376 . S
C639 C638 1.392 . S
C639 H651 0.929 . S
C640 C636 1.531 . S
C640 H652 0.960 . S
C640 H653 0.962 . S
C640 H654 0.960 . S
C641 C638 1.511 . S
C641 H655 0.961 . S
C641 H656 0.961 . S
C641 H657 0.961 . S
C642 C643 1.370 . S
C642 C644 1.363 . S
C642 H658 0.931 . S
C643 C642 1.370 . S
C643 C647 1.408 . S
C644 C642 1.363 . S
C644 C645 1.370 . S
C644 C648 1.524 . S
C645 C637 1.503 . S
C645 C644 1.370 . S
C645 C646 1.403 . S
C646 C645 1.403 . S
C646 C647 1.404 . S
C646 C649 1.539 . S
C647 C643 1.408 . S
C647 C646 1.404 . S
C647 H659 0.930 . S
C648 C644 1.524 . S
C648 H660 0.956 . S
C648 H661 0.961 . S
C648 H662 0.961 . S
C649 C646 1.539 . S
C649 H663 0.958 . S
C649 H664 0.961 . S
C649 H665 0.960 . S
H650 C634 0.931 . S
H651 C639 0.929 . S
H652 C640 0.960 . S
H653 C640 0.962 . S
H654 C640 0.960 . S
H655 C641 0.961 . S
H656 C641 0.961 . S
H657 C641 0.961 . S
H658 C642 0.931 . S
H659 C647 0.930 . S
H660 C648 0.956 . S
H661 C648 0.961 . S
H662 C648 0.961 . S
H663 C649 0.958 . S
H664 C649 0.961 . S
H665 C649 0.960 . S
C291 C253 1.245 . S
C283 C3 1.168 . S
C315 C4 1.510 1_556 S
C323 C193 1.620 . S
C347 C19 1.560 . S
C355 C223 1.559 . S
C379 C7 1.114 1_554 S
C387 C163 1.164 . S
C411 C37 1.059 . S
C419 C133 1.248 . S
C443 C28 1.454 . S
C451 C73 1.617 . S
C483 C103 1.551 . S
C475 C41 1.552 . S
C515 C43 1.196 . S
C507 C25 1.123 . S
C539 C20 1.273 . S
C547 C62 1.439 . S
C571 C16 1.330 . S
C579 C122 1.471 1_455 S
C611 C182 1.438 . S
C603 C40 1.276 . S
C635 C24 1.349 . S
C643 C242 1.490 . S
