# Generated by pormake.
# Topology nom, (4,4)-cn, num edge types: 1
# Building blocks:
#     Node 0, Type 0, BuildingBlock: KUFVIS_clean_linker_0, # of connection points: 4
#     Node 1, Type 0, BuildingBlock: KUFVIS_clean_linker_0, # of connection points: 4
#     Node 2, Type 0, BuildingBlock: KUFVIS_clean_linker_0, # of connection points: 4
#     Node 3, Type 0, BuildingBlock: KUFVIS_clean_linker_0, # of connection points: 4
#     Node 4, Type 0, BuildingBlock: KUFVIS_clean_linker_0, # of connection points: 4
#     Node 5, Type 0, BuildingBlock: KUFVIS_clean_linker_0, # of connection points: 4
#     Node 6, Type 1, BuildingBlock: UXUYUI_clean_sbu_0, # of connection points: 4
#     Node 7, Type 1, BuildingBlock: UXUYUI_clean_sbu_0, # of connection points: 4
#     Node 8, Type 1, BuildingBlock: UXUYUI_clean_sbu_0, # of connection points: 4
#     Node 9, Type 1, BuildingBlock: UXUYUI_clean_sbu_0, # of connection points: 4
#     Node 10, Type 1, BuildingBlock: UXUYUI_clean_sbu_0, # of connection points: 4
#     Node 11, Type 1, BuildingBlock: UXUYUI_clean_sbu_0, # of connection points: 4
#     Edge 12, Type (0, 1), None
#     Edge 13, Type (0, 1), None
#     Edge 14, Type (0, 1), None
#     Edge 15, Type (0, 1), None
#     Edge 16, Type (0, 1), None
#     Edge 17, Type (0, 1), None
#     Edge 18, Type (0, 1), None
#     Edge 19, Type (0, 1), None
#     Edge 20, Type (0, 1), None
#     Edge 21, Type (0, 1), None
#     Edge 22, Type (0, 1), None
#     Edge 23, Type (0, 1), None
#     Edge 24, Type (0, 1), None
#     Edge 25, Type (0, 1), None
#     Edge 26, Type (0, 1), None
#     Edge 27, Type (0, 1), None
#     Edge 28, Type (0, 1), None
#     Edge 29, Type (0, 1), None
#     Edge 30, Type (0, 1), None
#     Edge 31, Type (0, 1), None
#     Edge 32, Type (0, 1), None
#     Edge 33, Type (0, 1), None
#     Edge 34, Type (0, 1), None
#     Edge 35, Type (0, 1), None
# Relax obj value: 0.035
# Max RMSD: 0.147
# Mean RMSD: 0.094
data_MOF--net-nom--node1-UXUYUI_clean_sbu_0--node2-KUFVIS_clean_linker_0--edge1-none
_symmetry_space_group_name_H-M    P1
_symmetry_Int_Tables_number       1
_symmetry_cell_setting            triclinic
loop_
_symmetry_equiv_pos_as_xyz
'x, y, z'
_cell_length_a     30.492089
_cell_length_b     30.501428
_cell_length_c     33.237146
_cell_angle_alpha  89.996597
_cell_angle_beta   90.000639
_cell_angle_gamma 120.00954
loop_
_atom_site_label
_atom_site_type_symbol
_atom_site_fract_x
_atom_site_fract_y
_atom_site_fract_z
_atom_type_partial_charge
H0 H 0.23155 0.63759 0.34493 0.0
H1 H 0.11574 0.60741 0.25853 0.0
H2 H 0.07586 0.54259 0.37815 0.0
H3 H 1.00636 0.55273 0.364 0.0
H4 H 0.89055 0.46711 0.27761 0.0
H5 H 0.04623 0.52777 0.24439 0.0
C6 C 0.19165 0.6182 0.33705 0.0
C7 C 0.15533 0.58938 0.36601 0.0
C8 C 0.17769 0.62438 0.29845 0.0
C9 C 0.12617 0.60157 0.28837 0.0
C10 C 0.0885 0.57125 0.31685 0.0
C11 C 0.10377 0.56591 0.35587 0.0
C12 C 1.03359 0.5438 0.30568 0.0
C13 C 0.99592 0.53645 0.33416 0.0
C14 C 0.9444 0.50776 0.32409 0.0
C15 C 0.93044 0.48761 0.28549 0.0
C16 C 0.96676 0.4951 0.25653 0.0
C17 C 1.01832 0.52318 0.26667 0.0
H18 H 0.63938 0.21602 0.51155 0.0
H19 H 0.55381 0.10021 0.42516 0.0
H20 H 0.57881 0.06039 0.54477 0.0
H21 H 0.49917 0.99087 0.53063 0.0
H22 H 0.46908 0.87511 0.44425 0.0
H23 H 0.56401 0.03077 0.41102 0.0
C24 C 0.6189 0.17613 0.50367 0.0
C25 C 0.61143 0.13984 0.53263 0.0
C26 C 0.59875 0.16216 0.46507 0.0
C27 C 0.57009 0.11066 0.45499 0.0
C28 C 0.56276 0.07301 0.48348 0.0
C29 C 0.58337 0.08828 0.5225 0.0
C30 C 0.53534 1.01811 0.47231 0.0
C31 C 0.50503 0.98044 0.50079 0.0
C32 C 0.48223 0.92894 0.49072 0.0
C33 C 0.48845 0.915 0.45212 0.0
C34 C 0.51725 0.95131 0.42316 0.0
C35 C 0.5407 1.00286 0.4333 0.0
H36 H 0.63938 0.45343 0.61099 0.0
H37 H 0.5538 0.48365 0.69739 0.0
H38 H 0.5788 0.54848 0.57777 0.0
H39 H 0.49916 0.53836 0.59192 0.0
H40 H 0.46907 0.62403 0.6783 0.0
H41 H 0.564 0.5633 0.71153 0.0
C42 C 0.61889 0.47283 0.61887 0.0
C43 C 0.61143 0.50166 0.58991 0.0
C44 C 0.59875 0.46665 0.65747 0.0
C45 C 0.57008 0.48949 0.66755 0.0
C46 C 0.56275 0.51981 0.63907 0.0
C47 C 0.58337 0.52515 0.60005 0.0
C48 C 0.53533 0.54728 0.65023 0.0
C49 C 0.50502 0.55465 0.62175 0.0
C50 C 0.48223 0.58336 0.63182 0.0
C51 C 0.48844 0.60351 0.67042 0.0
C52 C 0.51724 0.596 0.69939 0.0
C53 C 0.54069 0.5679 0.68925 0.0
H54 H 0.23153 0.624 0.77761 0.0
H55 H 0.11573 0.53837 0.86401 0.0
H56 H 0.07584 0.56332 0.74439 0.0
H57 H 1.00634 0.48368 0.75854 0.0
H58 H 0.89053 0.45349 0.84493 0.0
H59 H 0.04622 0.54849 0.87815 0.0
C60 C 0.19164 0.60349 0.78549 0.0
C61 C 0.15532 0.596 0.75653 0.0
C62 C 0.17768 0.58335 0.82409 0.0
C63 C 0.12616 0.55465 0.83417 0.0
C64 C 0.08849 0.54729 0.80569 0.0
C65 C 0.10375 0.56791 0.76667 0.0
C66 C 1.03358 0.51984 0.81686 0.0
C67 C 0.99591 0.48952 0.78838 0.0
C68 C 0.94439 0.4667 0.79845 0.0
C69 C 0.93043 0.47288 0.83705 0.0
C70 C 0.96674 0.50169 0.86602 0.0
C71 C 1.01831 0.52517 0.85588 0.0
H72 H 0.4827 0.87508 0.01156 0.0
H73 H 0.56828 0.99088 0.92516 0.0
H74 H 0.54329 0.0307 0.04478 0.0
H75 H 0.62292 0.10023 0.03063 0.0
H76 H 0.65301 0.21598 0.94424 0.0
H77 H 0.55809 0.06033 0.91102 0.0
C78 C 0.50319 0.91496 0.00368 0.0
C79 C 0.51066 0.95125 0.03264 0.0
C80 C 0.52334 0.92893 0.96507 0.0
C81 C 0.55201 0.98044 0.955 0.0
C82 C 0.55933 1.01809 0.98348 0.0
C83 C 0.53872 1.00281 0.0225 0.0
C84 C 0.58676 0.07298 0.97231 0.0
C85 C 0.61706 0.11065 0.00079 0.0
C86 C 0.63985 0.16215 -0.00928 0.0
C87 C 0.63364 0.1761 0.95212 0.0
C88 C 0.60484 0.13979 0.92315 0.0
C89 C 0.5814 0.08824 0.93329 0.0
H90 H 0.48272 0.63769 0.11098 0.0
H91 H 0.56829 0.60745 0.19738 0.0
H92 H 0.54328 0.54263 0.07776 0.0
H93 H 0.62292 0.55273 0.09191 0.0
H94 H 0.65299 0.46705 0.1783 0.0
H95 H 0.5581 0.52781 0.21153 0.0
C96 C 0.5032 0.61828 0.11886 0.0
C97 C 0.51066 0.58945 0.0899 0.0
C98 C 0.52335 0.62446 0.15747 0.0
C99 C 0.55202 0.60162 0.16754 0.0
C100 C 0.55934 0.57129 0.13906 0.0
C101 C 0.53872 0.56596 0.10004 0.0
C102 C 0.58676 0.54381 0.15023 0.0
C103 C 0.61706 0.53644 0.12174 0.0
C104 C 0.63984 0.50773 0.13181 0.0
C105 C 0.63363 0.48757 0.17042 0.0
C106 C 0.60484 0.49509 0.19938 0.0
C107 C 0.5814 0.5232 0.18925 0.0
Li108 Li 0.67197 0.45135 0.43019 0.0
Li109 Li 0.65722 0.36989 0.40108 0.0
Li110 Li 0.73666 0.44931 0.38822 0.0
Li111 Li 0.65521 0.4346 0.35911 0.0
C112 C 0.74766 0.42104 0.46508 0.0
N113 N 0.8265 0.43369 0.51395 0.0
C114 C 0.74503 0.37957 0.48526 0.0
C115 C 0.79002 0.4691 0.47038 0.0
C116 C 0.78532 0.38671 0.50973 0.0
C117 C 0.82959 0.47468 0.49503 0.0
C118 C 0.57239 0.36942 0.43219 0.0
C119 C 0.48516 0.32634 0.45377 0.0
N120 N 0.49933 0.31605 0.48974 0.0
C121 C 0.58609 0.35843 0.46944 0.0
C122 C 0.52153 0.35331 0.42431 0.0
C123 C 0.5486 0.33141 0.4981 0.0
C124 C 0.61392 0.48 0.47868 0.0
N125 N 0.65895 0.48097 0.4758 0.0
C126 C 0.67941 0.50943 0.54359 0.0
C127 C 0.69246 0.49743 0.50675 0.0
C128 C 0.63107 0.50369 0.54876 0.0
C129 C 0.59897 0.4911 0.51527 0.0
H130 H 0.58818 0.46737 0.45339 0.0
H131 H 0.72818 0.49859 0.50365 0.0
C132 C 0.66966 0.28654 0.41281 0.0
N133 N 0.63281 0.29902 0.40988 0.0
C134 C 0.65807 0.23874 0.42658 0.0
C135 C 0.56986 0.21539 0.42988 0.0
C136 C 0.5832 0.26384 0.41598 0.0
C137 C 0.60796 0.2034 0.43697 0.0
H138 H 0.70865 0.31497 0.40711 0.0
H139 H 0.55424 0.27402 0.41231 0.0
C140 C 0.73719 0.53413 0.3571 0.0
N141 N 0.79061 0.60713 0.29953 0.0
C142 C 0.74817 0.5204 0.31985 0.0
C143 C 0.75335 0.58498 0.36496 0.0
C144 C 0.77521 0.55786 0.29118 0.0
C145 C 0.78034 0.62132 0.33549 0.0
C146 C 0.68554 0.35909 0.32406 0.0
C147 C 0.72703 0.36199 0.30368 0.0
C148 C 0.63753 0.31665 0.31877 0.0
C149 C 0.71996 0.32189 0.27902 0.0
C150 C 0.63202 0.27727 0.29393 0.0
N151 N 0.67303 0.28063 0.27482 0.0
C152 C 0.81997 0.43681 0.37631 0.0
C153 C 0.84275 0.52328 0.37334 0.0
C154 C 0.86776 0.4484 0.36251 0.0
N155 N 0.80753 0.47368 0.37937 0.0
C156 C 0.8912 0.53661 0.3594 0.0
C157 C 0.90314 0.4985 0.35219 0.0
H158 H 0.7915 0.39783 0.38196 0.0
H159 H 0.83261 0.55225 0.37709 0.0
C160 C 0.62661 0.49267 0.31059 0.0
N161 N 0.62557 0.44763 0.3135 0.0
C162 C 0.6155 0.50761 0.274 0.0
C163 C 0.597 0.42713 0.24573 0.0
C164 C 0.60902 0.41409 0.28257 0.0
C165 C 0.60282 0.47548 0.24054 0.0
H166 H 0.63931 0.51843 0.33587 0.0
H167 H 0.60778 0.37834 0.28569 0.0
O168 O 0.70894 0.41448 0.44031 0.0
O169 O 0.60826 0.39622 0.40354 0.0
O170 O 0.71038 0.49829 0.38576 0.0
O171 O 0.69205 0.39761 0.34903 0.0
H172 H 0.71204 0.34232 0.4824 0.0
H173 H 0.79241 0.50174 0.45541 0.0
H174 H 0.78379 0.35493 0.5255 0.0
H175 H 0.86275 0.5116 0.49913 0.0
H176 H 0.44566 0.31362 0.44804 0.0
H177 H 0.62511 0.3705 0.47632 0.0
H178 H 0.51031 0.3616 0.3957 0.0
H179 H 0.55868 0.32266 0.527 0.0
H180 H 0.70554 0.51979 0.56861 0.0
H181 H 0.56134 0.48608 0.51809 0.0
H182 H 0.68848 0.23091 0.43225 0.0
H183 H 0.53094 0.18925 0.43817 0.0
H184 H 0.73606 0.48139 0.31298 0.0
H185 H 0.74507 0.59623 0.39357 0.0
H186 H 0.78394 0.54777 0.26228 0.0
H187 H 0.79309 0.66082 0.34121 0.0
H188 H 0.76424 0.39505 0.30654 0.0
H189 H 0.60487 0.31406 0.33389 0.0
H190 H 0.75175 0.32363 0.2631 0.0
H191 H 0.59514 0.24406 0.28983 0.0
H192 H 0.87555 0.41798 0.35675 0.0
H193 H 0.91738 0.57553 0.35117 0.0
H194 H 0.62058 0.54525 0.27117 0.0
H195 H 0.58657 0.40097 0.22073 0.0
Li196 Li 0.26623 0.65655 0.59681 0.0
Li197 Li 0.33297 0.64184 0.56773 0.0
Li198 Li 0.33297 0.7212 0.55482 0.0
Li199 Li 0.26623 0.63974 0.52573 0.0
C200 C 0.37222 0.73233 0.63167 0.0
N201 N 0.43835 0.81129 0.68045 0.0
C202 C 0.41113 0.72983 0.65185 0.0
C203 C 0.3664 0.77461 0.63693 0.0
C204 C 0.44427 0.77019 0.67627 0.0
C205 C 0.40037 0.81425 0.66154 0.0
C206 C 0.24861 0.55702 0.59886 0.0
C207 C 0.20446 0.46983 0.62048 0.0
N208 N 0.22893 0.48403 0.65645 0.0
C209 C 0.27331 0.57075 0.63611 0.0
C210 C 0.21386 0.50617 0.59101 0.0
C211 C 0.26283 0.53329 0.66479 0.0
C212 C 0.17949 0.59851 0.6453 0.0
N213 N 0.22354 0.64353 0.64241 0.0
C214 C 0.21552 0.66397 0.71021 0.0
C215 C 0.24059 0.67703 0.67336 0.0
C216 C 0.17293 0.61564 0.71538 0.0
C217 C 0.15343 0.58355 0.68189 0.0
H218 H 0.16639 0.57277 0.62001 0.0
H219 H 0.27515 0.71275 0.67027 0.0
C220 C 0.42879 0.65429 0.57957 0.0
N221 N 0.37945 0.61745 0.57658 0.0
C222 C 0.46499 0.64269 0.59336 0.0
C223 C 0.40012 0.5545 0.59658 0.0
C224 C 0.36502 0.56786 0.58266 0.0
C225 C 0.45022 0.5926 0.60373 0.0
H226 H 0.43936 0.69327 0.57387 0.0
H227 H 0.32588 0.5389 0.57895 0.0
C228 C 0.24861 0.72165 0.52368 0.0
N229 N 0.22893 0.77496 0.46609 0.0
C230 C 0.27331 0.73263 0.48643 0.0
C231 C 0.21386 0.73776 0.53153 0.0
C232 C 0.26284 0.75961 0.45775 0.0
C233 C 0.20446 0.76469 0.50206 0.0
C234 C 0.37222 0.66997 0.49087 0.0
C235 C 0.41112 0.71139 0.47068 0.0
C236 C 0.36642 0.62187 0.48561 0.0
C237 C 0.44425 0.70417 0.44624 0.0
C238 C 0.40038 0.61621 0.46099 0.0
N239 N 0.43835 0.65716 0.44207 0.0
C240 C 0.42879 0.80457 0.54298 0.0
C241 C 0.36502 0.82723 0.53988 0.0
C242 C 0.46499 0.85236 0.52919 0.0
N243 N 0.37944 0.79207 0.54596 0.0
C244 C 0.40012 0.87568 0.52596 0.0
C245 C 0.45022 0.88769 0.51882 0.0
H246 H 0.43935 0.77615 0.54867 0.0
H247 H 0.32587 0.81705 0.54359 0.0
C248 C 0.1795 0.61106 0.47724 0.0
N249 N 0.22355 0.61008 0.48013 0.0
C250 C 0.15344 0.59995 0.44065 0.0
C251 C 0.21553 0.5816 0.41234 0.0
C252 C 0.2406 0.59362 0.44918 0.0
C253 C 0.17294 0.58735 0.40716 0.0
H254 H 0.1664 0.6237 0.50253 0.0
H255 H 0.27515 0.59246 0.45228 0.0
O256 O 0.34009 0.69355 0.60693 0.0
O257 O 0.25768 0.59286 0.5702 0.0
O258 O 0.25768 0.69489 0.55234 0.0
O259 O 0.34009 0.67661 0.51561 0.0
H260 H 0.41548 0.69689 0.64903 0.0
H261 H 0.33608 0.7769 0.62195 0.0
H262 H 0.47457 0.76876 0.69204 0.0
H263 H 0.39652 0.84735 0.6656 0.0
H264 H 0.17767 0.43034 0.61477 0.0
H265 H 0.30026 0.60976 0.64298 0.0
H266 H 0.19435 0.49493 0.56239 0.0
H267 H 0.28166 0.54339 0.6937 0.0
H268 H 0.23128 0.6901 0.73522 0.0
H269 H 0.12083 0.54592 0.68471 0.0
H270 H 0.50323 0.6731 0.59907 0.0
H271 H 0.38734 0.51559 0.60485 0.0
H272 H 0.30026 0.72056 0.47956 0.0
H273 H 0.19434 0.72948 0.56015 0.0
H274 H 0.28167 0.76834 0.42884 0.0
H275 H 0.17767 0.7774 0.50777 0.0
H276 H 0.41546 0.74866 0.4735 0.0
H277 H 0.33611 0.58927 0.50059 0.0
H278 H 0.47455 0.73591 0.43047 0.0
H279 H 0.39655 0.57927 0.45692 0.0
H280 H 0.50323 0.8602 0.52348 0.0
H281 H 0.38734 0.90182 0.51769 0.0
H282 H 0.12084 0.60498 0.43782 0.0
H283 H 0.2313 0.57123 0.38733 0.0
Li284 Li 0.73664 0.31741 0.73434 0.0
Li285 Li 0.65518 0.25065 0.76344 0.0
Li286 Li 0.67196 0.25069 0.69235 0.0
Li287 Li 0.65721 0.31738 0.72147 0.0
C288 C 0.73715 0.2331 0.76544 0.0
N289 N 0.79055 0.21348 0.823 0.0
C290 C 0.74813 0.25779 0.80269 0.0
C291 C 0.7533 0.1984 0.75757 0.0
C292 C 0.77516 0.24734 0.83136 0.0
C293 C 0.78028 0.18903 0.78703 0.0
C294 C 0.68547 0.35655 0.79842 0.0
C295 C 0.63185 0.38479 0.82846 0.0
N296 N 0.67284 0.42257 0.84748 0.0
C297 C 0.72694 0.39526 0.81871 0.0
C298 C 0.63742 0.35088 0.80371 0.0
C299 C 0.71981 0.42834 0.84328 0.0
C300 C 0.81997 0.41321 0.7462 0.0
N301 N 0.80751 0.3639 0.74318 0.0
C302 C 0.89117 0.38463 0.76317 0.0
C303 C 0.84273 0.34952 0.74924 0.0
C304 C 0.90313 0.4347 0.77035 0.0
C305 C 0.86776 0.44942 0.76 0.0
H306 H 0.79151 0.42374 0.74053 0.0
H307 H 0.83257 0.3104 0.74551 0.0
C308 C 0.62656 0.16398 0.81194 0.0
N309 N 0.62554 0.20798 0.80904 0.0
C310 C 0.61546 0.13792 0.84853 0.0
C311 C 0.597 0.19992 0.87682 0.0
C312 C 0.60901 0.22498 0.83998 0.0
C313 C 0.6028 0.15738 0.882 0.0
H314 H 0.63924 0.1509 0.78665 0.0
H315 H 0.60779 0.2595 0.83687 0.0
C316 C 0.74763 0.35666 0.65745 0.0
N317 N 0.82642 0.4228 0.60853 0.0
C318 C 0.74496 0.39546 0.63724 0.0
C319 C 0.79 0.35098 0.65216 0.0
C320 C 0.78523 0.42859 0.61274 0.0
C321 C 0.82954 0.38494 0.62747 0.0
C322 C 0.57238 0.23304 0.69035 0.0
C323 C 0.58609 0.25775 0.6531 0.0
C324 C 0.52151 0.1983 0.69821 0.0
C325 C 0.54861 0.24728 0.62443 0.0
C326 C 0.48516 0.18891 0.66875 0.0
N327 N 0.49934 0.21338 0.63279 0.0
C328 C 0.61391 0.164 0.64385 0.0
C329 C 0.69246 0.2251 0.61579 0.0
C330 C 0.59897 0.13795 0.60726 0.0
N331 N 0.65894 0.20804 0.64674 0.0
C332 C 0.67941 0.20004 0.57895 0.0
C333 C 0.63107 0.15745 0.57378 0.0
H334 H 0.58816 0.15088 0.66915 0.0
H335 H 0.72818 0.25966 0.61889 0.0
C336 C 0.66966 0.41318 0.70971 0.0
N337 N 0.6328 0.36384 0.71267 0.0
C338 C 0.65807 0.44938 0.69595 0.0
C339 C 0.56985 0.38453 0.69268 0.0
C340 C 0.5832 0.34943 0.70658 0.0
C341 C 0.60796 0.43463 0.68556 0.0
H342 H 0.70865 0.42372 0.7154 0.0
H343 H 0.55423 0.31029 0.71025 0.0
O344 O 0.71035 0.24214 0.73679 0.0
O345 O 0.69203 0.32449 0.77355 0.0
O346 O 0.70893 0.32453 0.68226 0.0
O347 O 0.60824 0.2421 0.719 0.0
H348 H 0.73603 0.2847 0.80958 0.0
H349 H 0.74503 0.17889 0.72896 0.0
H350 H 0.78389 0.26616 0.86026 0.0
H351 H 0.79303 0.16227 0.78131 0.0
H352 H 0.59494 0.38106 0.83255 0.0
H353 H 0.76418 0.39949 0.81586 0.0
H354 H 0.60477 0.32072 0.78866 0.0
H355 H 0.75159 0.45848 0.85913 0.0
H356 H 0.91735 0.37189 0.77143 0.0
H357 H 0.87556 0.48764 0.76573 0.0
H358 H 0.62053 0.10535 0.85136 0.0
H359 H 0.58659 0.21565 0.90183 0.0
H360 H 0.71196 0.3997 0.64009 0.0
H361 H 0.79241 0.32075 0.66716 0.0
H362 H 0.78367 0.4588 0.59694 0.0
H363 H 0.86271 0.3812 0.62338 0.0
H364 H 0.62512 0.28469 0.64622 0.0
H365 H 0.51028 0.17878 0.72683 0.0
H366 H 0.5587 0.26612 0.59553 0.0
H367 H 0.44565 0.16213 0.67447 0.0
H368 H 0.56134 0.10534 0.60444 0.0
H369 H 0.70555 0.21582 0.55394 0.0
H370 H 0.68848 0.48762 0.69026 0.0
H371 H 0.53094 0.37177 0.68439 0.0
Li372 Li 0.45012 0.63977 0.93018 0.0
Li373 Li 0.46486 0.72121 0.90106 0.0
Li374 Li 0.38544 0.64182 0.8882 0.0
Li375 Li 0.4669 0.65653 0.85909 0.0
C376 C 0.37441 0.67005 0.96506 0.0
N377 N 0.29556 0.65735 0.01392 0.0
C378 C 0.37703 0.7115 -0.01475 0.0
C379 C 0.33206 0.62198 0.97035 0.0
C380 C 0.33673 0.70434 0.00972 0.0
C381 C 0.29249 0.61638 -0.005 0.0
C382 C 0.54969 0.72169 0.93219 0.0
C383 C 0.63692 0.76477 0.95378 0.0
N384 N 0.62273 0.77506 -0.01026 0.0
C385 C 0.53598 0.73268 0.96943 0.0
C386 C 0.60056 0.73781 0.92432 0.0
C387 C 0.57346 0.75969 -0.0019 0.0
C388 C 0.50816 0.61111 0.97868 0.0
N389 N 0.46314 0.61014 0.97579 0.0
C390 C 0.44269 0.58169 0.04359 0.0
C391 C 0.42963 0.59369 0.00675 0.0
C392 C 0.49102 0.58742 0.04876 0.0
C393 C 0.52311 0.60001 0.01527 0.0
H394 H 0.5339 0.62374 0.95337 0.0
H395 H 0.39391 0.59254 0.00365 0.0
C396 C 0.45242 0.80456 0.91282 0.0
N397 N 0.48928 0.79208 0.90987 0.0
C398 C 0.46401 0.85236 0.92659 0.0
C399 C 0.55223 0.87571 0.92987 0.0
C400 C 0.53888 0.82726 0.91597 0.0
C401 C 0.51412 0.8877 0.93698 0.0
H402 H 0.41343 0.77613 0.90712 0.0
H403 H 0.56785 0.81709 0.91229 0.0
C404 C 0.38493 0.557 0.85709 0.0
N405 N 0.33153 0.48399 0.79953 0.0
C406 C 0.37395 0.57072 0.81984 0.0
C407 C 0.36878 0.50614 0.86495 0.0
C408 C 0.34693 0.53325 0.79117 0.0
C409 C 0.34181 0.4698 0.83549 0.0
C410 C 0.43662 0.73214 0.82411 0.0
C411 C 0.39516 0.7294 0.80382 0.0
C412 C 0.48468 0.77452 0.81883 0.0
C413 C 0.4023 0.7696 0.77925 0.0
C414 C 0.49026 0.814 0.79407 0.0
N415 N 0.44928 0.8108 0.77505 0.0
C416 C 0.30211 0.65429 0.87632 0.0
C417 C 0.27935 0.56784 0.8733 0.0
C418 C 0.25431 0.6427 0.86253 0.0
N419 N 0.31456 0.61743 0.87935 0.0
C420 C 0.2309 0.55449 0.85937 0.0
C421 C 0.21894 0.5926 0.85219 0.0
H422 H 0.33056 0.69327 0.88198 0.0
H423 H 0.28951 0.53887 0.87704 0.0
C424 C 0.49552 0.59847 0.8106 0.0
N425 N 0.49655 0.6435 0.81349 0.0
C426 C 0.50663 0.58352 0.77401 0.0
C427 C 0.52508 0.66398 0.74571 0.0
C428 C 0.51307 0.67703 0.78255 0.0
C429 C 0.51928 0.61563 0.74054 0.0
H430 H 0.48284 0.57271 0.83589 0.0
H431 H 0.51428 0.71276 0.78566 0.0
O432 O 0.41314 0.67663 0.94028 0.0
O433 O 0.51383 0.6949 0.90354 0.0
O434 O 0.41173 0.59284 0.88574 0.0
O435 O 0.43005 0.69352 0.84899 0.0
H436 H 0.41002 0.74875 0.9824 0.0
H437 H 0.32969 0.58935 0.95537 0.0
H438 H 0.33825 0.7361 0.02549 0.0
H439 H 0.25933 0.57945 -0.0009 0.0
H440 H 0.67642 0.7775 0.94806 0.0
H441 H 0.49696 0.7206 0.97631 0.0
H442 H 0.61179 0.72953 0.89571 0.0
H443 H 0.56338 0.76843 0.027 0.0
H444 H 0.41655 0.57133 0.06861 0.0
H445 H 0.56074 0.60503 0.01808 0.0
H446 H 0.4336 0.86018 0.93228 0.0
H447 H 0.59114 0.90186 0.93816 0.0
H448 H 0.38605 0.60973 0.81296 0.0
H449 H 0.37706 0.49491 0.89357 0.0
H450 H 0.33819 0.54334 0.76227 0.0
H451 H 0.32906 0.4303 0.84121 0.0
H452 H 0.35791 0.69639 0.80666 0.0
H453 H 0.51732 0.77699 0.83389 0.0
H454 H 0.37053 0.76798 0.76339 0.0
H455 H 0.52717 0.84717 0.78998 0.0
H456 H 0.24651 0.67311 0.85678 0.0
H457 H 0.20473 0.51558 0.85113 0.0
H458 H 0.50156 0.54588 0.77119 0.0
H459 H 0.5355 0.69012 0.72071 0.0
Li460 Li 0.78909 0.44922 0.06774 0.0
Li461 Li 0.85585 0.43451 0.09683 0.0
Li462 Li 0.85584 0.45133 0.02574 0.0
Li463 Li 0.7891 0.36989 0.05484 0.0
C464 C 0.87348 0.53405 0.09886 0.0
N465 N 0.89319 0.60705 0.15644 0.0
C466 C 0.84879 0.52033 0.13612 0.0
C467 C 0.90823 0.5849 0.091 0.0
C468 C 0.85928 0.5578 0.1648 0.0
C469 C 0.91765 0.62124 0.12047 0.0
C470 C 0.74981 0.35865 0.13162 0.0
C471 C 0.72171 0.27669 0.1614 0.0
N472 N 0.68361 0.27951 0.18023 0.0
C473 C 0.71077 0.36101 0.15172 0.0
C474 C 0.75572 0.31642 0.13688 0.0
C475 C 0.6776 0.32056 0.17605 0.0
C476 C 0.69327 0.4368 0.07954 0.0
N477 N 0.74263 0.47363 0.07659 0.0
C478 C 0.72197 0.53657 0.09661 0.0
C479 C 0.75706 0.52322 0.08269 0.0
C480 C 0.67185 0.49848 0.10372 0.0
C481 C 0.65707 0.44839 0.09332 0.0
H482 H 0.6827 0.39782 0.07382 0.0
H483 H 0.79621 0.55217 0.079 0.0
C484 C 0.94259 0.49255 0.1453 0.0
N485 N 0.89854 0.44754 0.14242 0.0
C486 C 0.96865 0.50752 0.18189 0.0
C487 C 0.90655 0.42711 0.21023 0.0
C488 C 0.88148 0.41405 0.17338 0.0
C489 C 0.94915 0.47544 0.21538 0.0
H490 H 0.9557 0.51828 0.11999 0.0
H491 H 0.84691 0.37834 0.1703 0.0
C492 C 0.74986 0.42113 -0.00912 0.0
N493 N 0.68376 0.43398 0.94208 0.0
C494 C 0.71096 0.37973 0.97068 0.0
C495 C 0.75568 0.46923 -0.01437 0.0
C496 C 0.67784 0.38696 0.94624 0.0
C497 C 0.72173 0.47491 0.961 0.0
C498 C 0.87346 0.36942 0.02369 0.0
C499 C 0.84875 0.35845 -0.01356 0.0
C500 C 0.9082 0.35331 0.03153 0.0
C501 C 0.85922 0.33147 0.95775 0.0
C502 C 0.91759 0.32638 0.00206 0.0
N503 N 0.89312 0.31611 0.96609 0.0
C504 C 0.94257 0.48002 0.97724 0.0
C505 C 0.88147 0.49745 0.94918 0.0
C506 C 0.96862 0.49112 0.94065 0.0
N507 N 0.89852 0.48099 0.98013 0.0
C508 C 0.90654 0.50947 0.91233 0.0
C509 C 0.94913 0.50372 0.90717 0.0
H510 H 0.95567 0.46738 0.00253 0.0
H511 H 0.84691 0.49861 0.95228 0.0
C512 C 0.69328 0.28652 0.04297 0.0
N513 N 0.74263 0.29902 0.04597 0.0
C514 C 0.65709 0.23873 0.02917 0.0
C515 C 0.72196 0.21541 0.02597 0.0
C516 C 0.75705 0.26385 0.0399 0.0
C517 C 0.67186 0.2034 0.01881 0.0
H518 H 0.68272 0.31494 0.04866 0.0
H519 H 0.79619 0.27403 0.04362 0.0
O520 O 0.86439 0.4982 0.07021 0.0
O521 O 0.78199 0.39752 0.10697 0.0
O522 O 0.78198 0.41447 0.01563 0.0
O523 O 0.86439 0.39618 0.05235 0.0
H524 H 0.82184 0.48132 0.143 0.0
H525 H 0.92774 0.59613 0.06238 0.0
H526 H 0.84047 0.54771 0.1937 0.0
H527 H 0.94444 0.66073 0.11475 0.0
H528 H 0.72562 0.24362 0.16546 0.0
H529 H 0.70636 0.3939 0.1489 0.0
H530 H 0.78613 0.31424 0.12196 0.0
H531 H 0.6472 0.32188 0.19175 0.0
H532 H 0.73474 0.57548 0.1049 0.0
H533 H 0.61882 0.418 0.09901 0.0
H534 H 1.00126 0.54514 0.1847 0.0
H535 H 0.89077 0.40099 0.23525 0.0
H536 H 0.70662 0.34245 0.9735 0.0
H537 H 0.78599 0.50183 0.00061 0.0
H538 H 0.64755 0.35523 0.93047 0.0
H539 H 0.72557 0.51186 0.95694 0.0
H540 H 0.8218 0.37052 0.97957 0.0
H541 H 0.92772 0.36158 0.06015 0.0
H542 H 0.84039 0.32274 0.92885 0.0
H543 H 0.94438 0.31366 0.00776 0.0
H544 H 1.00123 0.4861 0.93783 0.0
H545 H 0.89077 0.51983 0.88733 0.0
H546 H 0.61885 0.2309 0.02345 0.0
H547 H 0.73473 0.18927 0.01771 0.0
Li548 Li 0.46693 0.84043 0.26346 0.0
Li549 Li 0.38546 0.77368 0.23436 0.0
Li550 Li 0.46489 0.77371 0.22149 0.0
Li551 Li 0.45015 0.84041 0.19237 0.0
C552 C 0.43665 0.73453 0.29843 0.0
N553 N 0.44931 0.66851 0.34747 0.0
C554 C 0.39519 0.69579 0.31871 0.0
C555 C 0.48471 0.74022 0.30372 0.0
C556 C 0.40233 0.66272 0.34327 0.0
C557 C 0.4903 0.70632 0.32846 0.0
C558 C 0.38495 0.85799 0.26546 0.0
C559 C 0.34183 0.90207 0.28705 0.0
N560 N 0.33155 0.87761 0.32301 0.0
C561 C 0.37397 0.8333 0.30271 0.0
C562 C 0.36881 0.8927 0.25759 0.0
C563 C 0.34694 0.84374 0.33138 0.0
C564 C 0.49555 0.92712 0.31194 0.0
N565 N 0.49657 0.88311 0.30905 0.0
C566 C 0.52509 0.89117 0.37684 0.0
C567 C 0.51308 0.8661 0.34 0.0
C568 C 0.51929 0.93372 0.38201 0.0
C569 C 0.50665 0.95317 0.34853 0.0
H570 H 0.48287 0.94019 0.28665 0.0
H571 H 0.51429 0.83158 0.3369 0.0
C572 C 0.30212 0.67787 0.24622 0.0
N573 N 0.31458 0.72719 0.2432 0.0
C574 C 0.25432 0.64167 0.26001 0.0
C575 C 0.23092 0.70647 0.26317 0.0
C576 C 0.27938 0.74157 0.24925 0.0
C577 C 0.21895 0.6564 0.27035 0.0
H578 H 0.33058 0.66735 0.24055 0.0
H579 H 0.28953 0.7807 0.24552 0.0
C580 C 0.54972 0.85805 0.19036 0.0
N581 N 0.62275 0.87771 0.1328 0.0
C582 C 0.536 0.83335 0.15312 0.0
C583 C 0.60059 0.89279 0.19822 0.0
C584 C 0.57348 0.84381 0.12445 0.0
C585 C 0.63694 0.90218 0.16876 0.0
C586 C 0.37449 0.73444 0.15746 0.0
C587 C 0.37719 0.69568 0.13723 0.0
C588 C 0.33211 0.74011 0.15217 0.0
C589 C 0.33694 0.66255 0.11271 0.0
C590 C 0.29259 0.70615 0.12747 0.0
N591 N 0.29574 0.66832 0.10851 0.0
C592 C 0.45244 0.67792 0.20972 0.0
C593 C 0.5389 0.74167 0.20659 0.0
C594 C 0.46403 0.64172 0.19594 0.0
N595 N 0.4893 0.72725 0.21268 0.0
C596 C 0.55225 0.70657 0.19268 0.0
C597 C 0.51413 0.65647 0.18556 0.0
H598 H 0.41345 0.66737 0.21541 0.0
H599 H 0.56787 0.7808 0.21028 0.0
C600 C 0.50819 0.92709 0.14386 0.0
N601 N 0.46316 0.88305 0.14676 0.0
C602 C 0.52313 0.95314 0.10727 0.0
C603 C 0.44269 0.89105 0.07896 0.0
C604 C 0.42964 0.86599 0.11581 0.0
C605 C 0.49103 0.93364 0.07379 0.0
H606 H 0.53394 0.9402 0.16916 0.0
H607 H 0.39392 0.83144 0.11892 0.0
O608 O 0.43007 0.76659 0.27357 0.0
O609 O 0.41176 0.84895 0.23681 0.0
O610 O 0.51387 0.84899 0.21902 0.0
O611 O 0.41317 0.76656 0.18228 0.0
H612 H 0.35794 0.69154 0.31586 0.0
H613 H 0.51735 0.77041 0.28867 0.0
H614 H 0.37056 0.63255 0.35911 0.0
H615 H 0.52722 0.71007 0.33255 0.0
H616 H 0.32909 0.92882 0.28132 0.0
H617 H 0.38607 0.80638 0.3096 0.0
H618 H 0.37709 0.91221 0.22897 0.0
H619 H 0.33821 0.82492 0.36028 0.0
H620 H 0.5355 0.87543 0.40185 0.0
H621 H 0.50158 0.98575 0.35135 0.0
H622 H 0.24652 0.60345 0.26574 0.0
H623 H 0.20475 0.71921 0.27142 0.0
H624 H 0.49698 0.8064 0.14624 0.0
H625 H 0.61182 0.91231 0.22683 0.0
H626 H 0.56339 0.82498 0.09555 0.0
H627 H 0.67645 0.92896 0.17448 0.0
H628 H 0.4102 0.69145 0.14008 0.0
H629 H 0.32968 0.77032 0.16718 0.0
H630 H 0.33852 0.63236 0.09691 0.0
H631 H 0.25941 0.70988 0.12337 0.0
H632 H 0.43361 0.60349 0.19025 0.0
H633 H 0.59116 0.71933 0.1844 0.0
H634 H 0.56076 0.98575 0.10445 0.0
H635 H 0.41654 0.87528 0.05396 0.0
loop_
_geom_bond_atom_site_label_1
_geom_bond_atom_site_label_2
_geom_bond_distance
_geom_bond_site_symmetry_2
_ccdc_geom_bond_type
H0 C6 0.930 . S
H1 C9 0.931 . S
H2 C11 0.931 . S
H3 C13 0.930 . S
H4 C15 0.930 . S
H5 C17 0.931 1_455 S
C6 H0 0.930 . S
C6 C7 1.380 . S
C6 C8 1.394 . S
C7 C6 1.380 . S
C7 C11 1.382 . S
C8 C6 1.394 . S
C8 C9 1.400 . S
C9 H1 0.931 . S
C9 C8 1.400 . S
C9 C10 1.375 . S
C10 C9 1.375 . S
C10 C11 1.415 . S
C10 C12 1.501 1_455 S
C11 H2 0.931 . S
C11 C7 1.382 . S
C11 C10 1.415 . S
C12 C10 1.501 1_655 S
C12 C13 1.384 . S
C12 C17 1.408 . S
C13 H3 0.930 . S
C13 C12 1.384 . S
C13 C14 1.389 . S
C14 C13 1.389 . S
C14 C15 1.405 . S
C15 H4 0.930 . S
C15 C14 1.405 . S
C15 C16 1.364 . S
C16 C15 1.364 . S
C16 C17 1.400 . S
C17 H5 0.931 1_655 S
C17 C12 1.408 . S
C17 C16 1.400 . S
H18 C24 0.930 . S
H19 C27 0.931 . S
H20 C29 0.931 . S
H21 C31 0.930 . S
H22 C33 0.930 . S
H23 C35 0.931 1_545 S
C24 H18 0.930 . S
C24 C25 1.380 . S
C24 C26 1.394 . S
C25 C24 1.380 . S
C25 C29 1.382 . S
C26 C24 1.394 . S
C26 C27 1.400 . S
C27 H19 0.931 . S
C27 C26 1.400 . S
C27 C28 1.375 . S
C28 C27 1.375 . S
C28 C29 1.415 . S
C28 C30 1.501 1_545 S
C29 H20 0.931 . S
C29 C25 1.382 . S
C29 C28 1.415 . S
C30 C28 1.501 1_565 S
C30 C31 1.384 . S
C30 C35 1.408 . S
C31 H21 0.930 . S
C31 C30 1.384 . S
C31 C32 1.389 . S
C32 C31 1.389 . S
C32 C33 1.405 . S
C33 H22 0.930 . S
C33 C32 1.405 . S
C33 C34 1.364 . S
C34 C33 1.364 . S
C34 C35 1.400 . S
C35 H23 0.931 1_565 S
C35 C30 1.408 . S
C35 C34 1.400 . S
H36 C42 0.930 . S
H37 C45 0.931 . S
H38 C47 0.931 . S
H39 C49 0.930 . S
H40 C51 0.930 . S
H41 C53 0.931 . S
C42 H36 0.930 . S
C42 C43 1.380 . S
C42 C44 1.394 . S
C43 C42 1.380 . S
C43 C47 1.382 . S
C44 C42 1.394 . S
C44 C45 1.400 . S
C45 H37 0.931 . S
C45 C44 1.400 . S
C45 C46 1.375 . S
C46 C45 1.375 . S
C46 C47 1.415 . S
C46 C48 1.501 . S
C47 H38 0.931 . S
C47 C43 1.382 . S
C47 C46 1.415 . S
C48 C46 1.501 . S
C48 C49 1.384 . S
C48 C53 1.408 . S
C49 H39 0.930 . S
C49 C48 1.384 . S
C49 C50 1.389 . S
C50 C49 1.389 . S
C50 C51 1.405 . S
C51 H40 0.930 . S
C51 C50 1.405 . S
C51 C52 1.364 . S
C52 C51 1.364 . S
C52 C53 1.400 . S
C53 H41 0.931 . S
C53 C48 1.408 . S
C53 C52 1.400 . S
H54 C60 0.930 . S
H55 C63 0.931 . S
H56 C65 0.931 . S
H57 C67 0.930 . S
H58 C69 0.930 . S
H59 C71 0.931 1_455 S
C60 H54 0.930 . S
C60 C61 1.380 . S
C60 C62 1.394 . S
C61 C60 1.380 . S
C61 C65 1.382 . S
C62 C60 1.394 . S
C62 C63 1.400 . S
C63 H55 0.931 . S
C63 C62 1.400 . S
C63 C64 1.375 . S
C64 C63 1.375 . S
C64 C65 1.415 . S
C64 C66 1.501 1_455 S
C65 H56 0.931 . S
C65 C61 1.382 . S
C65 C64 1.415 . S
C66 C64 1.501 1_655 S
C66 C67 1.384 . S
C66 C71 1.408 . S
C67 H57 0.930 . S
C67 C66 1.384 . S
C67 C68 1.389 . S
C68 C67 1.389 . S
C68 C69 1.405 . S
C69 H58 0.930 . S
C69 C68 1.405 . S
C69 C70 1.364 . S
C70 C69 1.364 . S
C70 C71 1.400 . S
C71 H59 0.931 1_655 S
C71 C66 1.408 . S
C71 C70 1.400 . S
H72 C78 0.930 . S
H73 C81 0.931 . S
H74 C83 0.917 1_545 S
H75 C85 0.930 . S
H76 C87 0.930 . S
H77 C89 0.931 . S
C78 H72 0.930 . S
C78 C79 1.380 . S
C78 C80 1.394 1_554 S
C79 C78 1.380 . S
C79 C83 1.382 . S
C80 C78 1.394 1_556 S
C80 C81 1.400 . S
C81 H73 0.931 . S
C81 C80 1.400 . S
C81 C82 1.378 . S
C82 C81 1.378 . S
C82 C83 1.410 1_556 S
C82 C84 1.502 1_565 S
C83 H74 0.917 1_565 S
C83 C79 1.382 . S
C83 C82 1.410 1_554 S
C84 C82 1.502 1_545 S
C84 C85 1.384 1_556 S
C84 C89 1.408 . S
C85 H75 0.930 . S
C85 C84 1.384 1_554 S
C85 C86 1.389 . S
C86 C85 1.389 . S
C86 C87 1.405 1_554 S
C87 H76 0.930 . S
C87 C86 1.405 1_556 S
C87 C88 1.364 . S
C88 C87 1.364 . S
C88 C89 1.400 . S
C89 H77 0.931 . S
C89 C84 1.408 . S
C89 C88 1.400 . S
H90 C96 0.930 . S
H91 C99 0.931 . S
H92 C101 0.931 . S
H93 C103 0.930 . S
H94 C105 0.930 . S
H95 C107 0.931 . S
C96 H90 0.930 . S
C96 C97 1.380 . S
C96 C98 1.394 . S
C97 C96 1.380 . S
C97 C101 1.382 . S
C98 C96 1.394 . S
C98 C99 1.400 . S
C99 H91 0.931 . S
C99 C98 1.400 . S
C99 C100 1.375 . S
C100 C99 1.375 . S
C100 C101 1.415 . S
C100 C102 1.501 . S
C101 H92 0.931 . S
C101 C97 1.382 . S
C101 C100 1.415 . S
C102 C100 1.501 . S
C102 C103 1.384 . S
C102 C107 1.408 . S
C103 H93 0.930 . S
C103 C102 1.384 . S
C103 C104 1.389 . S
C104 C103 1.389 . S
C104 C105 1.405 . S
C105 H94 0.930 . S
C105 C104 1.405 . S
C105 C106 1.364 . S
C106 C105 1.364 . S
C106 C107 1.400 . S
C107 H95 0.931 . S
C107 C102 1.408 . S
C107 C106 1.400 . S
Li108 N125 1.990 . S
Li108 O168 1.956 . S
Li108 O169 1.970 . S
Li108 O170 1.961 . S
Li109 N133 1.990 . S
Li109 O168 1.970 . S
Li109 O169 1.956 . S
Li109 O171 1.961 . S
Li110 N155 1.990 . S
Li110 O168 1.961 . S
Li110 O170 1.956 . S
Li110 O171 1.970 . S
Li111 N161 1.990 . S
Li111 O169 1.961 . S
Li111 O170 1.970 . S
Li111 O171 1.956 . S
C112 C114 1.348 . S
C112 C115 1.356 . S
C112 O168 1.325 . S
N113 C116 1.314 . S
N113 C117 1.279 . S
C114 C112 1.348 . S
C114 C116 1.353 . S
C114 H172 0.929 . S
C115 C112 1.356 . S
C115 C117 1.358 . S
C115 H173 0.930 . S
C116 N113 1.314 . S
C116 C114 1.353 . S
C116 H174 0.930 . S
C117 N113 1.279 . S
C117 C115 1.358 . S
C117 H175 0.930 . S
C118 C121 1.348 . S
C118 C122 1.356 . S
C118 O169 1.325 . S
C119 N120 1.279 . S
C119 C122 1.358 . S
C119 H176 0.930 . S
N120 C119 1.279 . S
N120 C123 1.314 . S
C121 C118 1.348 . S
C121 C123 1.353 . S
C121 H177 0.929 . S
C122 C118 1.356 . S
C122 C119 1.358 . S
C122 H178 0.930 . S
C123 N120 1.314 . S
C123 C121 1.353 . S
C123 H179 0.930 . S
C124 N125 1.314 . S
C124 C129 1.353 . S
C124 H130 0.930 . S
N125 Li108 1.990 . S
N125 C124 1.314 . S
N125 C127 1.279 . S
C126 C127 1.358 . S
C126 C128 1.356 . S
C126 H180 0.930 . S
C127 N125 1.279 . S
C127 C126 1.358 . S
C127 H131 0.930 . S
C128 C126 1.356 . S
C128 C129 1.348 . S
C129 C124 1.353 . S
C129 C128 1.348 . S
C129 H181 0.929 . S
H130 C124 0.930 . S
H131 C127 0.930 . S
C132 N133 1.314 . S
C132 C134 1.353 . S
C132 H138 0.930 . S
N133 Li109 1.990 . S
N133 C132 1.314 . S
N133 C136 1.279 . S
C134 C132 1.353 . S
C134 C137 1.348 . S
C134 H182 0.929 . S
C135 C136 1.358 . S
C135 C137 1.356 . S
C135 H183 0.930 . S
C136 N133 1.279 . S
C136 C135 1.358 . S
C136 H139 0.930 . S
C137 C134 1.348 . S
C137 C135 1.356 . S
H138 C132 0.930 . S
H139 C136 0.930 . S
C140 C142 1.348 . S
C140 C143 1.356 . S
C140 O170 1.325 . S
N141 C144 1.314 . S
N141 C145 1.279 . S
C142 C140 1.348 . S
C142 C144 1.353 . S
C142 H184 0.929 . S
C143 C140 1.356 . S
C143 C145 1.358 . S
C143 H185 0.930 . S
C144 N141 1.314 . S
C144 C142 1.353 . S
C144 H186 0.930 . S
C145 N141 1.279 . S
C145 C143 1.358 . S
C145 H187 0.930 . S
C146 C147 1.348 . S
C146 C148 1.356 . S
C146 O171 1.325 . S
C147 C146 1.348 . S
C147 C149 1.353 . S
C147 H188 0.929 . S
C148 C146 1.356 . S
C148 C150 1.358 . S
C148 H189 0.930 . S
C149 C147 1.353 . S
C149 N151 1.314 . S
C149 H190 0.930 . S
C150 C148 1.358 . S
C150 N151 1.279 . S
C150 H191 0.930 . S
N151 C149 1.314 . S
N151 C150 1.279 . S
C152 C154 1.353 . S
C152 N155 1.314 . S
C152 H158 0.930 . S
C153 N155 1.279 . S
C153 C156 1.358 . S
C153 H159 0.930 . S
C154 C152 1.353 . S
C154 C157 1.348 . S
C154 H192 0.929 . S
N155 Li110 1.990 . S
N155 C152 1.314 . S
N155 C153 1.279 . S
C156 C153 1.358 . S
C156 C157 1.356 . S
C156 H193 0.930 . S
C157 C154 1.348 . S
C157 C156 1.356 . S
H158 C152 0.930 . S
H159 C153 0.930 . S
C160 N161 1.314 . S
C160 C162 1.353 . S
C160 H166 0.930 . S
N161 Li111 1.990 . S
N161 C160 1.314 . S
N161 C164 1.279 . S
C162 C160 1.353 . S
C162 C165 1.348 . S
C162 H194 0.929 . S
C163 C164 1.358 . S
C163 C165 1.356 . S
C163 H195 0.930 . S
C164 N161 1.279 . S
C164 C163 1.358 . S
C164 H167 0.930 . S
C165 C162 1.348 . S
C165 C163 1.356 . S
H166 C160 0.930 . S
H167 C164 0.930 . S
O168 Li108 1.956 . S
O168 Li109 1.970 . S
O168 Li110 1.961 . S
O168 C112 1.325 . S
O169 Li108 1.970 . S
O169 Li109 1.956 . S
O169 Li111 1.961 . S
O169 C118 1.325 . S
O170 Li108 1.961 . S
O170 Li110 1.956 . S
O170 Li111 1.970 . S
O170 C140 1.325 . S
O171 Li109 1.961 . S
O171 Li110 1.970 . S
O171 Li111 1.956 . S
O171 C146 1.325 . S
H172 C114 0.929 . S
H173 C115 0.930 . S
H174 C116 0.930 . S
H175 C117 0.930 . S
H176 C119 0.930 . S
H177 C121 0.929 . S
H178 C122 0.930 . S
H179 C123 0.930 . S
H180 C126 0.930 . S
H181 C129 0.929 . S
H182 C134 0.929 . S
H183 C135 0.930 . S
H184 C142 0.929 . S
H185 C143 0.930 . S
H186 C144 0.930 . S
H187 C145 0.930 . S
H188 C147 0.929 . S
H189 C148 0.930 . S
H190 C149 0.930 . S
H191 C150 0.930 . S
H192 C154 0.929 . S
H193 C156 0.930 . S
H194 C162 0.929 . S
H195 C163 0.930 . S
Li196 N213 1.990 . S
Li196 O256 1.956 . S
Li196 O257 1.970 . S
Li196 O258 1.961 . S
Li197 N221 1.990 . S
Li197 O256 1.970 . S
Li197 O257 1.956 . S
Li197 O259 1.961 . S
Li198 N243 1.990 . S
Li198 O256 1.961 . S
Li198 O258 1.956 . S
Li198 O259 1.970 . S
Li199 N249 1.990 . S
Li199 O257 1.961 . S
Li199 O258 1.970 . S
Li199 O259 1.956 . S
C200 C202 1.348 . S
C200 C203 1.356 . S
C200 O256 1.325 . S
N201 C204 1.314 . S
N201 C205 1.279 . S
C202 C200 1.348 . S
C202 C204 1.353 . S
C202 H260 0.929 . S
C203 C200 1.356 . S
C203 C205 1.358 . S
C203 H261 0.930 . S
C204 N201 1.314 . S
C204 C202 1.353 . S
C204 H262 0.930 . S
C205 N201 1.279 . S
C205 C203 1.358 . S
C205 H263 0.930 . S
C206 C209 1.348 . S
C206 C210 1.356 . S
C206 O257 1.325 . S
C207 N208 1.279 . S
C207 C210 1.358 . S
C207 H264 0.930 . S
N208 C207 1.279 . S
N208 C211 1.314 . S
C209 C206 1.348 . S
C209 C211 1.353 . S
C209 H265 0.929 . S
C210 C206 1.356 . S
C210 C207 1.358 . S
C210 H266 0.930 . S
C211 N208 1.314 . S
C211 C209 1.353 . S
C211 H267 0.930 . S
C212 N213 1.314 . S
C212 C217 1.353 . S
C212 H218 0.930 . S
N213 Li196 1.990 . S
N213 C212 1.314 . S
N213 C215 1.279 . S
C214 C215 1.358 . S
C214 C216 1.356 . S
C214 H268 0.930 . S
C215 N213 1.279 . S
C215 C214 1.358 . S
C215 H219 0.930 . S
C216 C214 1.356 . S
C216 C217 1.348 . S
C217 C212 1.353 . S
C217 C216 1.348 . S
C217 H269 0.929 . S
H218 C212 0.930 . S
H219 C215 0.930 . S
C220 N221 1.314 . S
C220 C222 1.353 . S
C220 H226 0.930 . S
N221 Li197 1.990 . S
N221 C220 1.314 . S
N221 C224 1.279 . S
C222 C220 1.353 . S
C222 C225 1.348 . S
C222 H270 0.929 . S
C223 C224 1.358 . S
C223 C225 1.356 . S
C223 H271 0.930 . S
C224 N221 1.279 . S
C224 C223 1.358 . S
C224 H227 0.930 . S
C225 C222 1.348 . S
C225 C223 1.356 . S
H226 C220 0.930 . S
H227 C224 0.930 . S
C228 C230 1.348 . S
C228 C231 1.356 . S
C228 O258 1.325 . S
N229 C232 1.314 . S
N229 C233 1.279 . S
C230 C228 1.348 . S
C230 C232 1.353 . S
C230 H272 0.929 . S
C231 C228 1.356 . S
C231 C233 1.358 . S
C231 H273 0.930 . S
C232 N229 1.314 . S
C232 C230 1.353 . S
C232 H274 0.930 . S
C233 N229 1.279 . S
C233 C231 1.358 . S
C233 H275 0.930 . S
C234 C235 1.348 . S
C234 C236 1.356 . S
C234 O259 1.325 . S
C235 C234 1.348 . S
C235 C237 1.353 . S
C235 H276 0.929 . S
C236 C234 1.356 . S
C236 C238 1.358 . S
C236 H277 0.930 . S
C237 C235 1.353 . S
C237 N239 1.314 . S
C237 H278 0.930 . S
C238 C236 1.358 . S
C238 N239 1.279 . S
C238 H279 0.930 . S
N239 C237 1.314 . S
N239 C238 1.279 . S
C240 C242 1.353 . S
C240 N243 1.314 . S
C240 H246 0.930 . S
C241 N243 1.279 . S
C241 C244 1.358 . S
C241 H247 0.930 . S
C242 C240 1.353 . S
C242 C245 1.348 . S
C242 H280 0.929 . S
N243 Li198 1.990 . S
N243 C240 1.314 . S
N243 C241 1.279 . S
C244 C241 1.358 . S
C244 C245 1.356 . S
C244 H281 0.930 . S
C245 C242 1.348 . S
C245 C244 1.356 . S
H246 C240 0.930 . S
H247 C241 0.930 . S
C248 N249 1.314 . S
C248 C250 1.353 . S
C248 H254 0.930 . S
N249 Li199 1.990 . S
N249 C248 1.314 . S
N249 C252 1.279 . S
C250 C248 1.353 . S
C250 C253 1.348 . S
C250 H282 0.929 . S
C251 C252 1.358 . S
C251 C253 1.356 . S
C251 H283 0.930 . S
C252 N249 1.279 . S
C252 C251 1.358 . S
C252 H255 0.930 . S
C253 C250 1.348 . S
C253 C251 1.356 . S
H254 C248 0.930 . S
H255 C252 0.930 . S
O256 Li196 1.956 . S
O256 Li197 1.970 . S
O256 Li198 1.961 . S
O256 C200 1.325 . S
O257 Li196 1.970 . S
O257 Li197 1.956 . S
O257 Li199 1.961 . S
O257 C206 1.325 . S
O258 Li196 1.961 . S
O258 Li198 1.956 . S
O258 Li199 1.970 . S
O258 C228 1.325 . S
O259 Li197 1.961 . S
O259 Li198 1.970 . S
O259 Li199 1.956 . S
O259 C234 1.325 . S
H260 C202 0.929 . S
H261 C203 0.930 . S
H262 C204 0.930 . S
H263 C205 0.930 . S
H264 C207 0.930 . S
H265 C209 0.929 . S
H266 C210 0.930 . S
H267 C211 0.930 . S
H268 C214 0.930 . S
H269 C217 0.929 . S
H270 C222 0.929 . S
H271 C223 0.930 . S
H272 C230 0.929 . S
H273 C231 0.930 . S
H274 C232 0.930 . S
H275 C233 0.930 . S
H276 C235 0.929 . S
H277 C236 0.930 . S
H278 C237 0.930 . S
H279 C238 0.930 . S
H280 C242 0.929 . S
H281 C244 0.930 . S
H282 C250 0.929 . S
H283 C251 0.930 . S
Li284 N301 1.990 . S
Li284 O344 1.956 . S
Li284 O345 1.970 . S
Li284 O346 1.961 . S
Li285 N309 1.990 . S
Li285 O344 1.970 . S
Li285 O345 1.956 . S
Li285 O347 1.961 . S
Li286 N331 1.990 . S
Li286 O344 1.961 . S
Li286 O346 1.956 . S
Li286 O347 1.970 . S
Li287 N337 1.990 . S
Li287 O345 1.961 . S
Li287 O346 1.970 . S
Li287 O347 1.956 . S
C288 C290 1.348 . S
C288 C291 1.356 . S
C288 O344 1.325 . S
N289 C292 1.314 . S
N289 C293 1.279 . S
C290 C288 1.348 . S
C290 C292 1.353 . S
C290 H348 0.929 . S
C291 C288 1.356 . S
C291 C293 1.358 . S
C291 H349 0.930 . S
C292 N289 1.314 . S
C292 C290 1.353 . S
C292 H350 0.930 . S
C293 N289 1.279 . S
C293 C291 1.358 . S
C293 H351 0.930 . S
C294 C297 1.348 . S
C294 C298 1.356 . S
C294 O345 1.325 . S
C295 N296 1.279 . S
C295 C298 1.358 . S
C295 H352 0.930 . S
N296 C295 1.279 . S
N296 C299 1.314 . S
C297 C294 1.348 . S
C297 C299 1.353 . S
C297 H353 0.929 . S
C298 C294 1.356 . S
C298 C295 1.358 . S
C298 H354 0.930 . S
C299 N296 1.314 . S
C299 C297 1.353 . S
C299 H355 0.930 . S
C300 N301 1.314 . S
C300 C305 1.353 . S
C300 H306 0.930 . S
N301 Li284 1.990 . S
N301 C300 1.314 . S
N301 C303 1.279 . S
C302 C303 1.358 . S
C302 C304 1.356 . S
C302 H356 0.930 . S
C303 N301 1.279 . S
C303 C302 1.358 . S
C303 H307 0.930 . S
C304 C302 1.356 . S
C304 C305 1.348 . S
C305 C300 1.353 . S
C305 C304 1.348 . S
C305 H357 0.929 . S
H306 C300 0.930 . S
H307 C303 0.930 . S
C308 N309 1.314 . S
C308 C310 1.353 . S
C308 H314 0.930 . S
N309 Li285 1.990 . S
N309 C308 1.314 . S
N309 C312 1.279 . S
C310 C308 1.353 . S
C310 C313 1.348 . S
C310 H358 0.929 . S
C311 C312 1.358 . S
C311 C313 1.356 . S
C311 H359 0.930 . S
C312 N309 1.279 . S
C312 C311 1.358 . S
C312 H315 0.930 . S
C313 C310 1.348 . S
C313 C311 1.356 . S
H314 C308 0.930 . S
H315 C312 0.930 . S
C316 C318 1.348 . S
C316 C319 1.356 . S
C316 O346 1.325 . S
N317 C320 1.314 . S
N317 C321 1.279 . S
C318 C316 1.348 . S
C318 C320 1.353 . S
C318 H360 0.929 . S
C319 C316 1.356 . S
C319 C321 1.358 . S
C319 H361 0.930 . S
C320 N317 1.314 . S
C320 C318 1.353 . S
C320 H362 0.930 . S
C321 N317 1.279 . S
C321 C319 1.358 . S
C321 H363 0.930 . S
C322 C323 1.348 . S
C322 C324 1.356 . S
C322 O347 1.325 . S
C323 C322 1.348 . S
C323 C325 1.353 . S
C323 H364 0.929 . S
C324 C322 1.356 . S
C324 C326 1.358 . S
C324 H365 0.930 . S
C325 C323 1.353 . S
C325 N327 1.314 . S
C325 H366 0.930 . S
C326 C324 1.358 . S
C326 N327 1.279 . S
C326 H367 0.930 . S
N327 C325 1.314 . S
N327 C326 1.279 . S
C328 C330 1.353 . S
C328 N331 1.314 . S
C328 H334 0.930 . S
C329 N331 1.279 . S
C329 C332 1.358 . S
C329 H335 0.930 . S
C330 C328 1.353 . S
C330 C333 1.348 . S
C330 H368 0.929 . S
N331 Li286 1.990 . S
N331 C328 1.314 . S
N331 C329 1.279 . S
C332 C329 1.358 . S
C332 C333 1.356 . S
C332 H369 0.930 . S
C333 C330 1.348 . S
C333 C332 1.356 . S
H334 C328 0.930 . S
H335 C329 0.930 . S
C336 N337 1.314 . S
C336 C338 1.353 . S
C336 H342 0.930 . S
N337 Li287 1.990 . S
N337 C336 1.314 . S
N337 C340 1.279 . S
C338 C336 1.353 . S
C338 C341 1.348 . S
C338 H370 0.929 . S
C339 C340 1.358 . S
C339 C341 1.356 . S
C339 H371 0.930 . S
C340 N337 1.279 . S
C340 C339 1.358 . S
C340 H343 0.930 . S
C341 C338 1.348 . S
C341 C339 1.356 . S
H342 C336 0.930 . S
H343 C340 0.930 . S
O344 Li284 1.956 . S
O344 Li285 1.970 . S
O344 Li286 1.961 . S
O344 C288 1.325 . S
O345 Li284 1.970 . S
O345 Li285 1.956 . S
O345 Li287 1.961 . S
O345 C294 1.325 . S
O346 Li284 1.961 . S
O346 Li286 1.956 . S
O346 Li287 1.970 . S
O346 C316 1.325 . S
O347 Li285 1.961 . S
O347 Li286 1.970 . S
O347 Li287 1.956 . S
O347 C322 1.325 . S
H348 C290 0.929 . S
H349 C291 0.930 . S
H350 C292 0.930 . S
H351 C293 0.930 . S
H352 C295 0.930 . S
H353 C297 0.929 . S
H354 C298 0.930 . S
H355 C299 0.930 . S
H356 C302 0.930 . S
H357 C305 0.929 . S
H358 C310 0.929 . S
H359 C311 0.930 . S
H360 C318 0.929 . S
H361 C319 0.930 . S
H362 C320 0.930 . S
H363 C321 0.930 . S
H364 C323 0.929 . S
H365 C324 0.930 . S
H366 C325 0.930 . S
H367 C326 0.930 . S
H368 C330 0.929 . S
H369 C332 0.930 . S
H370 C338 0.929 . S
H371 C339 0.930 . S
Li372 N389 1.990 1_556 S
Li372 O432 1.956 . S
Li372 O433 1.970 . S
Li372 O434 1.961 . S
Li373 N397 1.990 . S
Li373 O432 1.970 . S
Li373 O433 1.956 . S
Li373 O435 1.961 . S
Li374 N419 1.990 . S
Li374 O432 1.961 . S
Li374 O434 1.956 . S
Li374 O435 1.970 . S
Li375 N425 1.990 . S
Li375 O433 1.961 . S
Li375 O434 1.970 . S
Li375 O435 1.956 . S
C376 C378 1.348 1_556 S
C376 C379 1.356 1_556 S
C376 O432 1.325 . S
N377 C380 1.314 . S
N377 C381 1.279 . S
C378 C376 1.348 1_554 S
C378 C380 1.353 . S
C378 H436 0.930 . S
C379 C376 1.356 1_554 S
C379 C381 1.358 . S
C379 H437 0.930 1_554 S
C380 N377 1.314 . S
C380 C378 1.353 . S
C380 H438 0.930 . S
C381 N377 1.279 . S
C381 C379 1.358 . S
C381 H439 0.930 . S
C382 C385 1.348 . S
C382 C386 1.356 . S
C382 O433 1.325 . S
C383 N384 1.279 . S
C383 C386 1.358 . S
C383 H440 0.930 . S
N384 C383 1.279 . S
N384 C387 1.314 . S
C385 C382 1.348 . S
C385 C387 1.353 . S
C385 H441 0.929 . S
C386 C382 1.356 . S
C386 C383 1.358 . S
C386 H442 0.930 . S
C387 N384 1.314 . S
C387 C385 1.353 . S
C387 H443 0.930 . S
C388 N389 1.314 . S
C388 C393 1.351 . S
C388 H394 0.932 1_554 S
N389 Li372 1.990 1_554 S
N389 C388 1.314 . S
N389 C391 1.279 . S
C390 C391 1.358 . S
C390 C392 1.356 . S
C390 H444 0.930 . S
C391 N389 1.279 . S
C391 C390 1.358 . S
C391 H395 0.930 . S
C392 C390 1.356 . S
C392 C393 1.348 . S
C393 C388 1.351 . S
C393 C392 1.348 . S
C393 H445 0.929 . S
H394 C388 0.932 1_556 S
H395 C391 0.930 . S
C396 N397 1.314 . S
C396 C398 1.353 . S
C396 H402 0.930 . S
N397 Li373 1.990 . S
N397 C396 1.314 . S
N397 C400 1.279 . S
C398 C396 1.353 . S
C398 C401 1.348 . S
C398 H446 0.929 . S
C399 C400 1.358 . S
C399 C401 1.356 . S
C399 H447 0.930 . S
C400 N397 1.279 . S
C400 C399 1.358 . S
C400 H403 0.930 . S
C401 C398 1.348 . S
C401 C399 1.356 . S
H402 C396 0.930 . S
H403 C400 0.930 . S
C404 C406 1.348 . S
C404 C407 1.356 . S
C404 O434 1.325 . S
N405 C408 1.314 . S
N405 C409 1.279 . S
C406 C404 1.348 . S
C406 C408 1.353 . S
C406 H448 0.929 . S
C407 C404 1.356 . S
C407 C409 1.358 . S
C407 H449 0.930 . S
C408 N405 1.314 . S
C408 C406 1.353 . S
C408 H450 0.930 . S
C409 N405 1.279 . S
C409 C407 1.358 . S
C409 H451 0.930 . S
C410 C411 1.348 . S
C410 C412 1.356 . S
C410 O435 1.325 . S
C411 C410 1.348 . S
C411 C413 1.353 . S
C411 H452 0.929 . S
C412 C410 1.356 . S
C412 C414 1.358 . S
C412 H453 0.930 . S
C413 C411 1.353 . S
C413 N415 1.314 . S
C413 H454 0.930 . S
C414 C412 1.358 . S
C414 N415 1.279 . S
C414 H455 0.930 . S
N415 C413 1.314 . S
N415 C414 1.279 . S
C416 C418 1.353 . S
C416 N419 1.314 . S
C416 H422 0.930 . S
C417 N419 1.279 . S
C417 C420 1.358 . S
C417 H423 0.930 . S
C418 C416 1.353 . S
C418 C421 1.348 . S
C418 H456 0.929 . S
N419 Li374 1.990 . S
N419 C416 1.314 . S
N419 C417 1.279 . S
C420 C417 1.358 . S
C420 C421 1.356 . S
C420 H457 0.930 . S
C421 C418 1.348 . S
C421 C420 1.356 . S
H422 C416 0.930 . S
H423 C417 0.930 . S
C424 N425 1.314 . S
C424 C426 1.353 . S
C424 H430 0.930 . S
N425 Li375 1.990 . S
N425 C424 1.314 . S
N425 C428 1.279 . S
C426 C424 1.353 . S
C426 C429 1.348 . S
C426 H458 0.929 . S
C427 C428 1.358 . S
C427 C429 1.356 . S
C427 H459 0.930 . S
C428 N425 1.279 . S
C428 C427 1.358 . S
C428 H431 0.930 . S
C429 C426 1.348 . S
C429 C427 1.356 . S
H430 C424 0.930 . S
H431 C428 0.930 . S
O432 Li372 1.956 . S
O432 Li373 1.970 . S
O432 Li374 1.961 . S
O432 C376 1.325 . S
O433 Li372 1.970 . S
O433 Li373 1.956 . S
O433 Li375 1.961 . S
O433 C382 1.325 . S
O434 Li372 1.961 . S
O434 Li374 1.956 . S
O434 Li375 1.970 . S
O434 C404 1.325 . S
O435 Li373 1.961 . S
O435 Li374 1.970 . S
O435 Li375 1.956 . S
O435 C410 1.325 . S
H436 C378 0.930 . S
H437 C379 0.930 1_556 S
H438 C380 0.930 . S
H439 C381 0.930 . S
H440 C383 0.930 . S
H441 C385 0.929 . S
H442 C386 0.930 . S
H443 C387 0.930 . S
H444 C390 0.930 . S
H445 C393 0.929 . S
H446 C398 0.929 . S
H447 C399 0.930 . S
H448 C406 0.929 . S
H449 C407 0.930 . S
H450 C408 0.930 . S
H451 C409 0.930 . S
H452 C411 0.929 . S
H453 C412 0.930 . S
H454 C413 0.930 . S
H455 C414 0.930 . S
H456 C418 0.929 . S
H457 C420 0.930 . S
H458 C426 0.929 . S
H459 C427 0.930 . S
Li460 N477 1.990 . S
Li460 O520 1.956 . S
Li460 O521 1.970 . S
Li460 O522 1.961 . S
Li461 N485 1.990 . S
Li461 O520 1.970 . S
Li461 O521 1.956 . S
Li461 O523 1.961 . S
Li462 N507 1.990 1_554 S
Li462 O520 1.961 . S
Li462 O522 1.956 . S
Li462 O523 1.970 . S
Li463 N513 1.990 . S
Li463 O521 1.961 . S
Li463 O522 1.970 . S
Li463 O523 1.956 . S
C464 C466 1.348 . S
C464 C467 1.356 . S
C464 O520 1.325 . S
N465 C468 1.314 . S
N465 C469 1.279 . S
C466 C464 1.348 . S
C466 C468 1.353 . S
C466 H524 0.929 . S
C467 C464 1.356 . S
C467 C469 1.358 . S
C467 H525 0.930 . S
C468 N465 1.314 . S
C468 C466 1.353 . S
C468 H526 0.930 . S
C469 N465 1.279 . S
C469 C467 1.358 . S
C469 H527 0.930 . S
C470 C473 1.348 . S
C470 C474 1.356 . S
C470 O521 1.325 . S
C471 N472 1.279 . S
C471 C474 1.358 . S
C471 H528 0.930 . S
N472 C471 1.279 . S
N472 C475 1.314 . S
C473 C470 1.348 . S
C473 C475 1.353 . S
C473 H529 0.929 . S
C474 C470 1.356 . S
C474 C471 1.358 . S
C474 H530 0.930 . S
C475 N472 1.314 . S
C475 C473 1.353 . S
C475 H531 0.930 . S
C476 N477 1.314 . S
C476 C481 1.353 . S
C476 H482 0.930 . S
N477 Li460 1.990 . S
N477 C476 1.314 . S
N477 C479 1.279 . S
C478 C479 1.358 . S
C478 C480 1.356 . S
C478 H532 0.930 . S
C479 N477 1.279 . S
C479 C478 1.358 . S
C479 H483 0.930 . S
C480 C478 1.356 . S
C480 C481 1.348 . S
C481 C476 1.353 . S
C481 C480 1.348 . S
C481 H533 0.929 . S
H482 C476 0.930 . S
H483 C479 0.930 . S
C484 N485 1.314 . S
C484 C486 1.353 . S
C484 H490 0.930 . S
N485 Li461 1.990 . S
N485 C484 1.314 . S
N485 C488 1.279 . S
C486 C484 1.353 . S
C486 C489 1.348 . S
C486 H534 0.929 . S
C487 C488 1.358 . S
C487 C489 1.356 . S
C487 H535 0.930 . S
C488 N485 1.279 . S
C488 C487 1.358 . S
C488 H491 0.930 . S
C489 C486 1.348 . S
C489 C487 1.356 . S
H490 C484 0.930 . S
H491 C488 0.930 . S
C492 C494 1.348 1_554 S
C492 C495 1.356 1_554 S
C492 O522 1.325 . S
N493 C496 1.314 . S
N493 C497 1.279 . S
C494 C492 1.348 1_556 S
C494 C496 1.353 . S
C494 H536 0.929 . S
C495 C492 1.356 1_556 S
C495 C497 1.358 . S
C495 H537 0.930 . S
C496 N493 1.314 . S
C496 C494 1.353 . S
C496 H538 0.930 . S
C497 N493 1.279 . S
C497 C495 1.358 . S
C497 H539 0.930 . S
C498 C499 1.348 . S
C498 C500 1.356 . S
C498 O523 1.325 . S
C499 C498 1.348 . S
C499 C501 1.353 . S
C499 H540 0.929 . S
C500 C498 1.356 . S
C500 C502 1.358 . S
C500 H541 0.930 . S
C501 C499 1.353 . S
C501 N503 1.314 . S
C501 H542 0.930 1_554 S
C502 C500 1.358 . S
C502 N503 1.279 . S
C502 H543 0.930 . S
N503 C501 1.314 . S
N503 C502 1.279 . S
C504 C506 1.353 . S
C504 N507 1.314 . S
C504 H510 0.930 1_556 S
C505 N507 1.279 . S
C505 C508 1.358 . S
C505 H511 0.930 . S
C506 C504 1.353 . S
C506 C509 1.348 . S
C506 H544 0.929 . S
N507 Li462 1.990 1_556 S
N507 C504 1.314 . S
N507 C505 1.279 . S
C508 C505 1.358 . S
C508 C509 1.356 . S
C508 H545 0.930 . S
C509 C506 1.348 . S
C509 C508 1.356 . S
H510 C504 0.930 1_554 S
H511 C505 0.930 . S
C512 N513 1.314 . S
C512 C514 1.353 . S
C512 H518 0.930 . S
N513 Li463 1.990 . S
N513 C512 1.314 . S
N513 C516 1.279 . S
C514 C512 1.353 . S
C514 C517 1.348 . S
C514 H546 0.929 . S
C515 C516 1.358 . S
C515 C517 1.356 . S
C515 H547 0.930 . S
C516 N513 1.279 . S
C516 C515 1.358 . S
C516 H519 0.930 . S
C517 C514 1.348 . S
C517 C515 1.356 . S
H518 C512 0.930 . S
H519 C516 0.930 . S
O520 Li460 1.956 . S
O520 Li461 1.970 . S
O520 Li462 1.961 . S
O520 C464 1.325 . S
O521 Li460 1.970 . S
O521 Li461 1.956 . S
O521 Li463 1.961 . S
O521 C470 1.325 . S
O522 Li460 1.961 . S
O522 Li462 1.956 . S
O522 Li463 1.970 . S
O522 C492 1.325 . S
O523 Li461 1.961 . S
O523 Li462 1.970 . S
O523 Li463 1.956 . S
O523 C498 1.325 . S
H524 C466 0.929 . S
H525 C467 0.930 . S
H526 C468 0.930 . S
H527 C469 0.930 . S
H528 C471 0.930 . S
H529 C473 0.929 . S
H530 C474 0.930 . S
H531 C475 0.930 . S
H532 C478 0.930 . S
H533 C481 0.929 . S
H534 C486 0.929 . S
H535 C487 0.930 . S
H536 C494 0.929 . S
H537 C495 0.930 . S
H538 C496 0.930 . S
H539 C497 0.930 . S
H540 C499 0.929 . S
H541 C500 0.930 . S
H542 C501 0.930 1_556 S
H543 C502 0.930 . S
H544 C506 0.929 . S
H545 C508 0.930 . S
H546 C514 0.929 . S
H547 C515 0.930 . S
Li548 N565 1.990 . S
Li548 O608 1.956 . S
Li548 O609 1.970 . S
Li548 O610 1.961 . S
Li549 N573 1.990 . S
Li549 O608 1.970 . S
Li549 O609 1.956 . S
Li549 O611 1.961 . S
Li550 N595 1.990 . S
Li550 O608 1.961 . S
Li550 O610 1.956 . S
Li550 O611 1.970 . S
Li551 N601 1.990 . S
Li551 O609 1.961 . S
Li551 O610 1.970 . S
Li551 O611 1.956 . S
C552 C554 1.348 . S
C552 C555 1.356 . S
C552 O608 1.325 . S
N553 C556 1.314 . S
N553 C557 1.279 . S
C554 C552 1.348 . S
C554 C556 1.353 . S
C554 H612 0.929 . S
C555 C552 1.356 . S
C555 C557 1.358 . S
C555 H613 0.930 . S
C556 N553 1.314 . S
C556 C554 1.353 . S
C556 H614 0.930 . S
C557 N553 1.279 . S
C557 C555 1.358 . S
C557 H615 0.930 . S
C558 C561 1.348 . S
C558 C562 1.356 . S
C558 O609 1.325 . S
C559 N560 1.279 . S
C559 C562 1.358 . S
C559 H616 0.930 . S
N560 C559 1.279 . S
N560 C563 1.314 . S
C561 C558 1.348 . S
C561 C563 1.353 . S
C561 H617 0.929 . S
C562 C558 1.356 . S
C562 C559 1.358 . S
C562 H618 0.930 . S
C563 N560 1.314 . S
C563 C561 1.353 . S
C563 H619 0.930 . S
C564 N565 1.314 . S
C564 C569 1.353 . S
C564 H570 0.930 . S
N565 Li548 1.990 . S
N565 C564 1.314 . S
N565 C567 1.279 . S
C566 C567 1.358 . S
C566 C568 1.356 . S
C566 H620 0.930 . S
C567 N565 1.279 . S
C567 C566 1.358 . S
C567 H571 0.930 . S
C568 C566 1.356 . S
C568 C569 1.348 . S
C569 C564 1.353 . S
C569 C568 1.348 . S
C569 H621 0.929 . S
H570 C564 0.930 . S
H571 C567 0.930 . S
C572 N573 1.314 . S
C572 C574 1.353 . S
C572 H578 0.930 . S
N573 Li549 1.990 . S
N573 C572 1.314 . S
N573 C576 1.279 . S
C574 C572 1.353 . S
C574 C577 1.348 . S
C574 H622 0.929 . S
C575 C576 1.358 . S
C575 C577 1.356 . S
C575 H623 0.930 . S
C576 N573 1.279 . S
C576 C575 1.358 . S
C576 H579 0.930 . S
C577 C574 1.348 . S
C577 C575 1.356 . S
H578 C572 0.930 . S
H579 C576 0.930 . S
C580 C582 1.348 . S
C580 C583 1.356 . S
C580 O610 1.325 . S
N581 C584 1.314 . S
N581 C585 1.279 . S
C582 C580 1.348 . S
C582 C584 1.353 . S
C582 H624 0.929 . S
C583 C580 1.356 . S
C583 C585 1.358 . S
C583 H625 0.930 . S
C584 N581 1.314 . S
C584 C582 1.353 . S
C584 H626 0.930 . S
C585 N581 1.279 . S
C585 C583 1.358 . S
C585 H627 0.930 . S
C586 C587 1.348 . S
C586 C588 1.356 . S
C586 O611 1.325 . S
C587 C586 1.348 . S
C587 C589 1.353 . S
C587 H628 0.929 . S
C588 C586 1.356 . S
C588 C590 1.358 . S
C588 H629 0.930 . S
C589 C587 1.353 . S
C589 N591 1.314 . S
C589 H630 0.930 . S
C590 C588 1.358 . S
C590 N591 1.279 . S
C590 H631 0.930 . S
N591 C589 1.314 . S
N591 C590 1.279 . S
C592 C594 1.353 . S
C592 N595 1.314 . S
C592 H598 0.930 . S
C593 N595 1.279 . S
C593 C596 1.358 . S
C593 H599 0.930 . S
C594 C592 1.353 . S
C594 C597 1.348 . S
C594 H632 0.929 . S
N595 Li550 1.990 . S
N595 C592 1.314 . S
N595 C593 1.279 . S
C596 C593 1.358 . S
C596 C597 1.356 . S
C596 H633 0.930 . S
C597 C594 1.348 . S
C597 C596 1.356 . S
H598 C592 0.930 . S
H599 C593 0.930 . S
C600 N601 1.314 . S
C600 C602 1.353 . S
C600 H606 0.930 . S
N601 Li551 1.990 . S
N601 C600 1.314 . S
N601 C604 1.279 . S
C602 C600 1.353 . S
C602 C605 1.348 . S
C602 H634 0.929 . S
C603 C604 1.358 . S
C603 C605 1.356 . S
C603 H635 0.930 . S
C604 N601 1.279 . S
C604 C603 1.358 . S
C604 H607 0.930 . S
C605 C602 1.348 . S
C605 C603 1.356 . S
H606 C600 0.930 . S
H607 C604 0.930 . S
O608 Li548 1.956 . S
O608 Li549 1.970 . S
O608 Li550 1.961 . S
O608 C552 1.325 . S
O609 Li548 1.970 . S
O609 Li549 1.956 . S
O609 Li551 1.961 . S
O609 C558 1.325 . S
O610 Li548 1.961 . S
O610 Li550 1.956 . S
O610 Li551 1.970 . S
O610 C580 1.325 . S
O611 Li549 1.961 . S
O611 Li550 1.970 . S
O611 Li551 1.956 . S
O611 C586 1.325 . S
H612 C554 0.929 . S
H613 C555 0.930 . S
H614 C556 0.930 . S
H615 C557 0.930 . S
H616 C559 0.930 . S
H617 C561 0.929 . S
H618 C562 0.930 . S
H619 C563 0.930 . S
H620 C566 0.930 . S
H621 C569 0.929 . S
H622 C574 0.929 . S
H623 C575 0.930 . S
H624 C582 0.929 . S
H625 C583 0.930 . S
H626 C584 0.930 . S
H627 C585 0.930 . S
H628 C587 0.929 . S
H629 C588 0.930 . S
H630 C589 0.930 . S
H631 C590 0.930 . S
H632 C594 0.929 . S
H633 C596 0.930 . S
H634 C602 0.929 . S
H635 C603 0.930 . S
C577 C8 2.098 . S
C26 C137 2.097 . S
C50 C225 2.093 . S
C68 C304 2.089 . S
C401 C80 2.099 . S
C104 C480 2.084 . S
C32 C245 2.093 . S
C44 C341 2.096 . S
C62 C421 2.099 . S
C517 C86 2.085 . S
C597 C98 2.099 . S
C157 C14 2.089 . S
C7 C253 1.603 . S
C25 C333 1.600 . S
C429 C52 1.610 . S
C70 C509 1.618 . S
C605 C79 1.595 . S
C165 C106 1.608 . S
C568 C34 1.609 . S
C43 C128 1.600 . S
C216 C61 1.602 . S
C88 C313 1.608 . S
C97 C392 1.595 . S
C16 C489 1.618 . S
