# Generated by pormake.
# Topology wbl, (4,4)-cn, num edge types: 1
# Building blocks:
#     Node 0, Type 0, BuildingBlock: MIFKUJ_clean_linker_1, # of connection points: 4
#     Node 1, Type 0, BuildingBlock: MIFKUJ_clean_linker_1, # of connection points: 4
#     Node 2, Type 0, BuildingBlock: MIFKUJ_clean_linker_1, # of connection points: 4
#     Node 3, Type 0, BuildingBlock: MIFKUJ_clean_linker_1, # of connection points: 4
#     Node 4, Type 0, BuildingBlock: MIFKUJ_clean_linker_1, # of connection points: 4
#     Node 5, Type 0, BuildingBlock: MIFKUJ_clean_linker_1, # of connection points: 4
#     Node 6, Type 0, BuildingBlock: MIFKUJ_clean_linker_1, # of connection points: 4
#     Node 7, Type 0, BuildingBlock: MIFKUJ_clean_linker_1, # of connection points: 4
#     Node 8, Type 1, BuildingBlock: KUFVIS_clean_sbu_0, # of connection points: 4
#     Node 9, Type 1, BuildingBlock: KUFVIS_clean_sbu_0, # of connection points: 4
#     Node 10, Type 1, BuildingBlock: KUFVIS_clean_sbu_0, # of connection points: 4
#     Node 11, Type 1, BuildingBlock: KUFVIS_clean_sbu_0, # of connection points: 4
#     Node 12, Type 1, BuildingBlock: KUFVIS_clean_sbu_0, # of connection points: 4
#     Node 13, Type 1, BuildingBlock: KUFVIS_clean_sbu_0, # of connection points: 4
#     Node 14, Type 1, BuildingBlock: KUFVIS_clean_sbu_0, # of connection points: 4
#     Node 15, Type 1, BuildingBlock: KUFVIS_clean_sbu_0, # of connection points: 4
#     Edge 16, Type (0, 1), BuildingBlock: EZIPEK_clean_linker_0, # of connection points: 2
#     Edge 17, Type (0, 1), BuildingBlock: EZIPEK_clean_linker_0, # of connection points: 2
#     Edge 18, Type (0, 1), BuildingBlock: EZIPEK_clean_linker_0, # of connection points: 2
#     Edge 19, Type (0, 1), BuildingBlock: EZIPEK_clean_linker_0, # of connection points: 2
#     Edge 20, Type (0, 1), BuildingBlock: EZIPEK_clean_linker_0, # of connection points: 2
#     Edge 21, Type (0, 1), BuildingBlock: EZIPEK_clean_linker_0, # of connection points: 2
#     Edge 22, Type (0, 1), BuildingBlock: EZIPEK_clean_linker_0, # of connection points: 2
#     Edge 23, Type (0, 1), BuildingBlock: EZIPEK_clean_linker_0, # of connection points: 2
#     Edge 24, Type (0, 1), BuildingBlock: EZIPEK_clean_linker_0, # of connection points: 2
#     Edge 25, Type (0, 1), BuildingBlock: EZIPEK_clean_linker_0, # of connection points: 2
#     Edge 26, Type (0, 1), BuildingBlock: EZIPEK_clean_linker_0, # of connection points: 2
#     Edge 27, Type (0, 1), BuildingBlock: EZIPEK_clean_linker_0, # of connection points: 2
#     Edge 28, Type (0, 1), BuildingBlock: EZIPEK_clean_linker_0, # of connection points: 2
#     Edge 29, Type (0, 1), BuildingBlock: EZIPEK_clean_linker_0, # of connection points: 2
#     Edge 30, Type (0, 1), BuildingBlock: EZIPEK_clean_linker_0, # of connection points: 2
#     Edge 31, Type (0, 1), BuildingBlock: EZIPEK_clean_linker_0, # of connection points: 2
#     Edge 32, Type (0, 1), BuildingBlock: EZIPEK_clean_linker_0, # of connection points: 2
#     Edge 33, Type (0, 1), BuildingBlock: EZIPEK_clean_linker_0, # of connection points: 2
#     Edge 34, Type (0, 1), BuildingBlock: EZIPEK_clean_linker_0, # of connection points: 2
#     Edge 35, Type (0, 1), BuildingBlock: EZIPEK_clean_linker_0, # of connection points: 2
#     Edge 36, Type (0, 1), BuildingBlock: EZIPEK_clean_linker_0, # of connection points: 2
#     Edge 37, Type (0, 1), BuildingBlock: EZIPEK_clean_linker_0, # of connection points: 2
#     Edge 38, Type (0, 1), BuildingBlock: EZIPEK_clean_linker_0, # of connection points: 2
#     Edge 39, Type (0, 1), BuildingBlock: EZIPEK_clean_linker_0, # of connection points: 2
#     Edge 40, Type (0, 1), BuildingBlock: EZIPEK_clean_linker_0, # of connection points: 2
#     Edge 41, Type (0, 1), BuildingBlock: EZIPEK_clean_linker_0, # of connection points: 2
#     Edge 42, Type (0, 1), BuildingBlock: EZIPEK_clean_linker_0, # of connection points: 2
#     Edge 43, Type (0, 1), BuildingBlock: EZIPEK_clean_linker_0, # of connection points: 2
#     Edge 44, Type (0, 1), BuildingBlock: EZIPEK_clean_linker_0, # of connection points: 2
#     Edge 45, Type (0, 1), BuildingBlock: EZIPEK_clean_linker_0, # of connection points: 2
#     Edge 46, Type (0, 1), BuildingBlock: EZIPEK_clean_linker_0, # of connection points: 2
#     Edge 47, Type (0, 1), BuildingBlock: EZIPEK_clean_linker_0, # of connection points: 2
# Relax obj value: 0.147
# Max RMSD: 0.143
# Mean RMSD: 0.132
data_MOF--net-wbl--node1-KUFVIS_clean_sbu_0--node2-MIFKUJ_clean_linker_1--edge1-EZIPEK_clean_linker_0
_symmetry_space_group_name_H-M    P1
_symmetry_Int_Tables_number       1
_symmetry_cell_setting            triclinic
loop_
_symmetry_equiv_pos_as_xyz
'x, y, z'
_cell_length_a     35.941147
_cell_length_b     35.918934
_cell_length_c     57.720275
_cell_angle_alpha  90.04499
_cell_angle_beta   90.55981
_cell_angle_gamma 90.038974
loop_
_atom_site_label
_atom_site_type_symbol
_atom_site_fract_x
_atom_site_fract_y
_atom_site_fract_z
_atom_type_partial_charge
H0 H 0.9971 0.07183 0.37192 0.0
H1 H 0.95839 0.10459 0.39966 0.0
H2 H 0.86052 0.0768 0.35942 0.0
H3 H 0.89897 0.04044 0.33275 0.0
H4 H 0.99441 1.00056 0.36635 0.0
H5 H 0.96841 0.10591 0.30912 0.0
H6 H 0.91487 0.13925 0.29212 0.0
H7 H 0.87007 0.03511 0.26713 0.0
H8 H 0.9238 0.00202 0.28359 0.0
H9 H 0.0282 0.94155 0.27478 0.0
H10 H 0.08066 0.90929 0.2564 0.0
H11 H 0.15691 0.9633 0.30374 0.0
H12 H 0.10486 0.99618 0.32177 0.0
H13 H 0.00712 0.01174 0.28137 0.0
H14 H 0.0548 0.9125 0.32806 0.0
H15 H 0.09346 0.87433 0.35382 0.0
H16 H 0.08565 0.95881 0.40674 0.0
H17 H 0.05433 0.99965 0.37986 0.0
C18 C 0.95118 0.05344 0.35011 0.0
C19 C 0.96731 0.07274 0.3689 0.0
C20 C 0.94523 0.09176 0.38469 0.0
C21 C 0.90647 0.09294 0.38177 0.0
C22 C 0.8904 0.07611 0.36205 0.0
C23 C 0.91244 0.05562 0.34669 0.0
C24 C 0.97538 0.02875 0.33592 0.0
C25 C 0.9985 0.00385 0.34788 0.0
C26 C 0.97741 0.0303 0.3115 0.0
C27 C 0.94981 0.05153 0.29771 0.0
C28 C 0.94758 0.09047 0.29941 0.0
C29 C 0.9171 0.10941 0.28979 0.0
C30 C 0.88835 0.08948 0.27871 0.0
C31 C 0.89189 0.05088 0.27573 0.0
C32 C 0.92255 0.03207 0.28503 0.0
C33 C 0.06253 0.97081 0.29992 0.0
C34 C 0.05625 0.94694 0.28095 0.0
C35 C 0.08606 0.92851 0.2705 0.0
C36 C 0.12247 0.93381 0.27888 0.0
C37 C 0.12894 0.95881 0.29715 0.0
C38 C 0.09926 0.97741 0.30746 0.0
C39 C 0.03082 0.98766 0.3125 0.0
C40 C 0.00496 0.0096 0.30005 0.0
C41 C 0.02674 0.98364 0.33684 0.0
C42 C 0.05117 0.95948 0.35172 0.0
C43 C 0.06263 0.92361 0.34483 0.0
C44 C 0.08389 0.9012 0.35983 0.0
C45 C 0.09108 0.91272 0.38276 0.0
C46 C 0.07972 0.94851 0.38947 0.0
C47 C 0.06131 0.97189 0.37402 0.0
H48 H 0.99291 0.43443 0.52855 0.0
H49 H 0.96256 0.37929 0.51195 0.0
H50 H 0.86089 0.40797 0.54667 0.0
H51 H 0.89084 0.46399 0.56278 0.0
H52 H 0.98431 0.50979 0.52998 0.0
H53 H 0.95916 0.40441 0.58438 0.0
H54 H 0.9244 0.36562 0.61178 0.0
H55 H 0.89268 0.46426 0.64941 0.0
H56 H 0.92355 0.50296 0.62065 0.0
H57 H 0.01328 0.60438 0.59345 0.0
H58 H 0.0531 0.63871 0.62113 0.0
H59 H 0.11691 0.53909 0.63367 0.0
H60 H 0.07688 0.50468 0.60658 0.0
H61 H 0.99566 0.50258 0.61553 0.0
H62 H 0.97885 0.59007 0.53747 0.0
H63 H 0.00973 0.64618 0.52281 0.0
H64 H 0.11662 0.59961 0.54094 0.0
H65 H 0.08577 0.54327 0.55557 0.0
C66 C 0.94438 0.45298 0.5473 0.0
C67 C 0.96371 0.42967 0.53198 0.0
C68 C 0.94645 0.39823 0.52247 0.0
C69 C 0.90961 0.38961 0.52816 0.0
C70 C 0.88932 0.41434 0.54203 0.0
C71 C 0.90648 0.4461 0.55133 0.0
C72 C 0.96541 0.48149 0.56076 0.0
C73 C 0.98654 0.5082 0.5487 0.0
C74 C 0.96731 0.48078 0.58536 0.0
C75 C 0.94355 0.45668 0.60015 0.0
C76 C 0.94319 0.41774 0.59782 0.0
C77 C 0.92368 0.39562 0.61361 0.0
C78 C 0.90634 0.41199 0.63288 0.0
C79 C 0.90582 0.45093 0.63477 0.0
C80 C 0.92376 0.473 0.61843 0.0
C81 C 0.04194 0.55194 0.59827 0.0
C82 C 0.03625 0.59016 0.6019 0.0
C83 C 0.05896 0.6097 0.61758 0.0
C84 C 0.08734 0.59108 0.62985 0.0
C85 C 0.09464 0.55363 0.62483 0.0
C86 C 0.07189 0.53409 0.60935 0.0
C87 C 0.01494 0.52942 0.58473 0.0
C88 C 0.99287 0.5041 0.59681 0.0
C89 C 0.01076 0.53265 0.5605 0.0
C90 C 0.03001 0.56263 0.5477 0.0
C91 C 0.00897 0.59144 0.5377 0.0
C92 C 0.02651 0.62345 0.52945 0.0
C93 C 0.06533 0.62692 0.53092 0.0
C94 C 0.08662 0.59726 0.53964 0.0
C95 C 0.06905 0.56525 0.54797 0.0
H96 H 0.4697 0.58849 0.82952 0.0
H97 H 0.43888 0.63133 0.85645 0.0
H98 H 0.40229 0.538 0.89722 0.0
H99 H 0.4324 0.49507 0.87023 0.0
H100 H 0.5019 0.48836 0.86408 0.0
H101 H 0.47865 0.56835 0.77649 0.0
H102 H 0.4251 0.60051 0.75835 0.0
H103 H 0.35004 0.52915 0.79567 0.0
H104 H 0.40301 0.49743 0.81378 0.0
H105 H 0.53479 0.39408 0.80316 0.0
H106 H 0.58856 0.36044 0.78742 0.0
H107 H 0.64038 0.46499 0.77024 0.0
H108 H 0.58642 0.4986 0.78558 0.0
H109 H 0.50253 0.4931 0.77816 0.0
H110 H 0.50349 0.40761 0.85806 0.0
H111 H 0.53921 0.37355 0.88744 0.0
H112 H 0.63779 0.43493 0.86929 0.0
H113 H 0.60197 0.46911 0.83959 0.0
C114 C 0.45347 0.53845 0.84783 0.0
C115 C 0.45417 0.57711 0.84386 0.0
C116 C 0.43678 0.60159 0.85924 0.0
C117 C 0.41858 0.58772 0.87882 0.0
C118 C 0.41627 0.54913 0.88219 0.0
C119 C 0.43356 0.5247 0.86684 0.0
C120 C 0.47676 0.51289 0.83373 0.0
C121 C 0.50149 0.48905 0.84527 0.0
C122 C 0.47594 0.51301 0.80923 0.0
C123 C 0.44468 0.53081 0.79661 0.0
C124 C 0.45066 0.55941 0.78048 0.0
C125 C 0.42027 0.57767 0.77019 0.0
C126 C 0.38379 0.567 0.7757 0.0
C127 C 0.37801 0.53762 0.7912 0.0
C128 C 0.40817 0.51968 0.80155 0.0
C129 C 0.55679 0.4488 0.79559 0.0
C130 C 0.55724 0.40969 0.79539 0.0
C131 C 0.58774 0.39054 0.78635 0.0
C132 C 0.61832 0.41032 0.77769 0.0
C133 C 0.6169 0.44933 0.7767 0.0
C134 C 0.5862 0.46844 0.78545 0.0
C135 C 0.52814 0.46932 0.80872 0.0
C136 C 0.5026 0.49237 0.79694 0.0
C137 C 0.5264 0.46658 0.83309 0.0
C138 C 0.55008 0.44099 0.84681 0.0
C139 C 0.53302 0.41307 0.85997 0.0
C140 C 0.5533 0.39374 0.87677 0.0
C141 C 0.5908 0.40235 0.88085 0.0
C142 C 0.60875 0.42812 0.86642 0.0
C143 C 0.58839 0.44752 0.84951 0.0
H144 H 0.50496 0.90057 0.06056 0.0
H145 H 0.46984 0.84944 0.04271 0.0
H146 H 0.39654 0.92855 0.0096 0.0
H147 H 0.43212 0.98019 0.02739 0.0
H148 H 0.5083 0.00359 0.0283 0.0
H149 H 0.50786 0.92592 0.11876 0.0
H150 H 0.46458 0.89594 0.14552 0.0
H151 H 0.37165 0.93705 0.10534 0.0
H152 H 0.4148 0.96782 0.07875 0.0
H153 H 0.52822 0.09851 0.09224 0.0
H154 H 0.56286 0.13513 0.12141 0.0
H155 H 0.63165 0.03976 0.13648 0.0
H156 H 0.59676 0.00305 0.10784 0.0
H157 H 0.51513 0.99629 0.11409 0.0
H158 H 0.49914 0.08116 0.03354 0.0
H159 H 0.52733 0.13895 0.01936 0.0
H160 H 0.63475 0.1024 0.04415 0.0
H161 H 0.60676 0.04413 0.058 0.0
C162 C 0.47095 0.94411 0.04539 0.0
C163 C 0.48172 0.90702 0.04915 0.0
C164 C 0.46182 0.8779 0.03897 0.0
C165 C 0.43074 0.88536 0.0249 0.0
C166 C 0.42065 0.92243 0.02033 0.0
C167 C 0.44089 0.95175 0.03041 0.0
C168 C 0.48977 0.97409 0.05868 0.0
C169 C 0.50968 0.00208 0.04705 0.0
C170 C 0.49044 0.97305 0.08317 0.0
C171 C 0.46469 0.94919 0.09671 0.0
C172 C 0.47822 0.92797 0.11541 0.0
C173 C 0.45359 0.91078 0.13062 0.0
C174 C 0.41505 0.91452 0.1274 0.0
C175 C 0.40135 0.93383 0.10801 0.0
C176 C 0.42602 0.95117 0.0928 0.0
C177 C 0.55981 0.04805 0.09811 0.0
C178 C 0.55123 0.08577 0.10154 0.0
C179 C 0.57095 0.10659 0.11809 0.0
C180 C 0.59923 0.08976 0.13141 0.0
C181 C 0.60944 0.0529 0.12674 0.0
C182 C 0.58965 0.03207 0.11038 0.0
C183 C 0.5355 0.02389 0.08376 0.0
C184 C 0.51417 0.99724 0.0953 0.0
C185 C 0.53227 0.02746 0.05942 0.0
C186 C 0.55074 0.05853 0.04707 0.0
C187 C 0.52893 0.085 0.03532 0.0
C188 C 0.54494 0.11797 0.0273 0.0
C189 C 0.58301 0.12485 0.03083 0.0
C190 C 0.60534 0.09745 0.04126 0.0
C191 C 0.58933 0.06437 0.04921 0.0
H192 H 0.01076 0.56901 0.88481 0.0
H193 H 0.0506 0.60006 0.85692 0.0
H194 H 0.14769 0.56696 0.89636 0.0
H195 H 0.10751 0.53142 0.92275 0.0
H196 H 0.01107 0.49624 0.89133 0.0
H197 H 0.04833 0.60334 0.94162 0.0
H198 H 0.10643 0.63173 0.95591 0.0
H199 H 0.1321 0.53139 0.99371 0.0
H200 H 0.07499 0.50238 0.9787 0.0
H201 H 0.97563 0.44402 0.98365 0.0
H202 H 0.9226 0.41246 0.00188 0.0
H203 H 0.84747 0.46699 0.95418 0.0
H204 H 0.90012 0.49915 0.93628 0.0
H205 H 0.9984 0.51416 0.97588 0.0
H206 H 0.94639 0.41353 0.93165 0.0
H207 H 0.9067 0.37519 0.9066 0.0
H208 H 0.92049 0.45472 0.8513 0.0
H209 H 0.95178 0.49661 0.87751 0.0
C210 C 0.05613 0.54818 0.90612 0.0
C211 C 0.04064 0.56826 0.88752 0.0
C212 C 0.06337 0.5863 0.87167 0.0
C213 C 0.10221 0.58576 0.87441 0.0
C214 C 0.1178 0.56761 0.89382 0.0
C215 C 0.09496 0.54778 0.90905 0.0
C216 C 0.03096 0.52582 0.92099 0.0
C217 C 0.00693 0.50103 0.90968 0.0
C218 C 0.02898 0.52949 0.94536 0.0
C219 C 0.05779 0.5504 0.95864 0.0
C220 C 0.06602 0.58773 0.95339 0.0
C221 C 0.09905 0.60397 0.96156 0.0
C222 C 0.12358 0.58344 0.97565 0.0
C223 C 0.11345 0.54757 0.98284 0.0
C224 C 0.08082 0.53111 0.97433 0.0
C225 C 0.94188 0.47346 0.95835 0.0
C226 C 0.94769 0.44981 0.97744 0.0
C227 C 0.91756 0.43175 0.98779 0.0
C228 C 0.88132 0.43724 0.97918 0.0
C229 C 0.87531 0.46235 0.96094 0.0
C230 C 0.90531 0.48058 0.95073 0.0
C231 C 0.97394 0.48874 0.94537 0.0
C232 C 1.00055 0.51067 0.95728 0.0
C233 C 0.97788 0.4828 0.92116 0.0
C234 C 0.95261 0.45856 0.9068 0.0
C235 C 0.93947 0.42373 0.91453 0.0
C236 C 0.91771 0.40107 0.89991 0.0
C237 C 0.91201 0.41089 0.87654 0.0
C238 C 0.92507 0.44565 0.86899 0.0
C239 C 0.94359 0.4696 0.88405 0.0
H240 H 0.497 0.57191 0.22549 0.0
H241 H 0.4698 0.63009 0.23972 0.0
H242 H 0.36479 0.60112 0.20779 0.0
H243 H 0.39142 0.54206 0.19435 0.0
H244 H 0.48687 0.49645 0.22708 0.0
H245 H 0.47107 0.5953 0.16517 0.0
H246 H 0.43878 0.63339 0.13572 0.0
H247 H 0.37325 0.53803 0.11546 0.0
H248 H 0.40541 0.5001 0.14453 0.0
H249 H 0.49229 0.4233 0.1355 0.0
H250 H 0.53653 0.39514 0.10863 0.0
H251 H 0.628 0.43448 0.15085 0.0
H252 H 0.5838 0.4633 0.17769 0.0
H253 H 0.48605 0.49383 0.14114 0.0
H254 H 0.49853 0.3941 0.19031 0.0
H255 H 0.53409 0.34362 0.20832 0.0
H256 H 0.59264 0.42312 0.25118 0.0
H257 H 0.55745 0.47424 0.23272 0.0
C258 C 0.4465 0.55292 0.20845 0.0
C259 C 0.46778 0.57736 0.22221 0.0
C260 C 0.45234 0.61059 0.23027 0.0
C261 C 0.41545 0.61989 0.22461 0.0
C262 C 0.39333 0.59435 0.21228 0.0
C263 C 0.40862 0.56084 0.20452 0.0
C264 C 0.46529 0.52218 0.19591 0.0
C265 C 0.48678 0.4959 0.2083 0.0
C266 C 0.46382 0.51997 0.17144 0.0
C267 C 0.44073 0.54488 0.15684 0.0
C268 C 0.44918 0.58289 0.15469 0.0
C269 C 0.43084 0.60453 0.13795 0.0
C270 C 0.40429 0.58815 0.12305 0.0
C271 C 0.39417 0.55088 0.12639 0.0
C272 C 0.41242 0.52934 0.14301 0.0
C273 C 0.53466 0.44557 0.15859 0.0
C274 C 0.52181 0.4253 0.13928 0.0
C275 C 0.54698 0.40917 0.12399 0.0
C276 C 0.58539 0.41303 0.12775 0.0
C277 C 0.59841 0.43124 0.14776 0.0
C278 C 0.57317 0.44749 0.16308 0.0
C279 C 0.50832 0.46872 0.17213 0.0
C280 C 0.48568 0.49376 0.15995 0.0
C281 C 0.50735 0.46837 0.19663 0.0
C282 C 0.52584 0.43804 0.20985 0.0
C283 C 0.51884 0.40081 0.20367 0.0
C284 C 0.5389 0.37199 0.21401 0.0
C285 C 0.56597 0.37979 0.23093 0.0
C286 C 0.57172 0.41673 0.23814 0.0
C287 C 0.55169 0.44576 0.22764 0.0
H288 H 0.50494 0.90705 0.39378 0.0
H289 H 0.46821 0.87249 0.36502 0.0
H290 H 0.37025 0.9339 0.38428 0.0
H291 H 0.407 0.9683 0.4135 0.0
H292 H 0.50696 0.98781 0.38855 0.0
H293 H 0.47369 0.89206 0.44605 0.0
H294 H 0.42067 0.85724 0.46167 0.0
H295 H 0.37264 0.95977 0.48615 0.0
H296 H 0.42557 0.99467 0.47049 0.0
H297 H 0.52838 0.0674 0.47603 0.0
H298 H 0.58071 0.10122 0.49443 0.0
H299 H 0.65833 0.03146 0.45799 0.0
H300 H 0.60652 0.99802 0.43964 0.0
H301 H 0.50667 0.99138 0.47448 0.0
H302 H 0.54345 0.0873 0.42352 0.0
H303 H 0.5779 0.12845 0.3973 0.0
H304 H 0.60819 0.03364 0.35573 0.0
H305 H 0.57538 0.99234 0.38229 0.0
C306 C 0.45869 0.94039 0.40556 0.0
C307 C 0.47537 0.91248 0.3922 0.0
C308 C 0.45453 0.89288 0.37577 0.0
C309 C 0.41687 0.90132 0.3722 0.0
C310 C 0.39941 0.92723 0.38676 0.0
C311 C 0.4203 0.9468 0.40336 0.0
C312 C 0.48263 0.96561 0.41941 0.0
C313 C 0.50746 0.98829 0.40735 0.0
C314 C 0.4812 0.96768 0.44383 0.0
C315 C 0.4533 0.94598 0.45691 0.0
C316 C 0.45216 0.90696 0.45522 0.0
C317 C 0.42209 0.8871 0.46419 0.0
C318 C 0.39281 0.90603 0.47497 0.0
C319 C 0.39509 0.94475 0.47797 0.0
C320 C 0.42524 0.96459 0.46906 0.0
C321 C 0.56368 0.03049 0.45636 0.0
C322 C 0.55667 0.05915 0.47229 0.0
C323 C 0.58637 0.0784 0.4827 0.0
C324 C 0.62321 0.06866 0.47751 0.0
C325 C 0.63006 0.03924 0.46219 0.0
C326 C 0.60056 0.02028 0.45173 0.0
C327 C 0.53304 0.01194 0.44352 0.0
C328 C 0.50654 0.99091 0.4557 0.0
C329 C 0.53241 0.01188 0.419 0.0
C330 C 0.55667 0.03658 0.40491 0.0
C331 C 0.55832 0.07518 0.40914 0.0
C332 C 0.5777 0.09873 0.39412 0.0
C333 C 0.59501 0.08408 0.37442 0.0
C334 C 0.59468 0.04548 0.37073 0.0
C335 C 0.57582 0.02196 0.38585 0.0
H336 H 0.01938 0.07714 0.72019 0.0
H337 H 0.98994 0.13287 0.73651 0.0
H338 H 0.88199 0.09065 0.7165 0.0
H339 H 0.91137 0.03475 0.70023 0.0
H340 H 0.01118 0.99688 0.72582 0.0
H341 H 0.98477 0.09517 0.66451 0.0
H342 H 0.94654 0.13162 0.63709 0.0
H343 H 0.88199 0.03359 0.62109 0.0
H344 H 0.92032 0.99714 0.648 0.0
H345 H 0.00923 0.9254 0.6332 0.0
H346 H 0.05165 0.89604 0.6057 0.0
H347 H 0.14573 0.93335 0.64637 0.0
H348 H 0.10339 0.96352 0.67379 0.0
H349 H 0.00138 0.99429 0.64003 0.0
H350 H 0.01932 0.89514 0.68781 0.0
H351 H 0.05376 0.84385 0.70572 0.0
H352 H 0.11509 0.92195 0.74808 0.0
H353 H 0.08097 0.97391 0.72973 0.0
C354 C 0.96757 0.05199 0.70887 0.0
C355 C 0.98932 0.07943 0.71982 0.0
C356 C 0.97261 0.11122 0.72901 0.0
C357 C 0.93391 0.11586 0.72749 0.0
C358 C 0.91191 0.08749 0.71774 0.0
C359 C 0.92864 0.05571 0.70849 0.0
C360 C 0.98604 0.02206 0.69558 0.0
C361 C 0.00932 0.99638 0.70706 0.0
C362 C 0.98174 0.01969 0.67127 0.0
C363 C 0.95555 0.04343 0.65801 0.0
C364 C 0.96191 0.08176 0.65541 0.0
C365 C 0.94013 0.1025 0.63987 0.0
C366 C 0.91205 0.08494 0.6267 0.0
C367 C 0.90402 0.04734 0.63068 0.0
C368 C 0.92581 0.02664 0.64605 0.0
C369 C 0.05302 0.94686 0.65556 0.0
C370 C 0.03893 0.92693 0.63643 0.0
C371 C 0.06308 0.91007 0.6208 0.0
C372 C 0.1017 0.91282 0.62399 0.0
C373 C 0.11596 0.93098 0.64369 0.0
C374 C 0.09176 0.948 0.65934 0.0
C375 C 0.02764 0.9697 0.67004 0.0
C376 C 0.00314 0.99422 0.65881 0.0
C377 C 0.029 0.96917 0.69456 0.0
C378 C 0.04809 0.93845 0.70709 0.0
C379 C 0.04015 0.90141 0.70094 0.0
C380 C 0.05954 0.87212 0.71124 0.0
C381 C 0.08689 0.87926 0.7281 0.0
C382 C 0.09393 0.91608 0.73509 0.0
C383 C 0.07453 0.94558 0.72465 0.0
Mn384 Mn 0.33638 0.68609 0.00411 0.0
Mn385 Mn 0.35138 0.59316 0.00373 0.0
C386 C 0.34574 0.65417 0.03875 0.0
C387 C 0.35869 0.74686 0.00335 0.0
C388 C 0.27549 0.62808 0.9957 0.0
O389 O 0.35064 0.67619 0.97047 0.0
O390 O 0.36414 0.61484 0.97306 0.0
C391 C 0.43332 0.59207 0.99882 0.0
N392 N 0.40236 0.58274 0.01092 0.0
C393 C 0.43869 0.54729 0.03831 0.0
C394 C 0.47098 0.55667 0.02619 0.0
C395 C 0.46829 0.57931 0.00641 0.0
C396 C 0.4047 0.56135 0.03013 0.0
H397 H 0.43128 0.60885 0.98341 0.0
C398 C 0.36207 0.64556 0.96181 0.0
O399 O 0.32461 0.7393 0.99735 0.0
O400 O 0.3802 0.71915 0.00864 0.0
N401 N 0.34053 0.56879 0.03235 0.0
C402 C 0.30671 0.56199 0.04194 0.0
C403 C 0.30452 0.53979 0.06188 0.0
C404 C 0.33699 0.52421 0.07148 0.0
C405 C 0.37145 0.53125 0.06117 0.0
C406 C 0.37193 0.55379 0.0414 0.0
H407 H 0.28155 0.57334 0.03443 0.0
O408 O 0.32898 0.68614 0.03854 0.0
O409 O 0.35614 0.64178 0.01868 0.0
O410 O 0.28534 0.66195 0.99844 0.0
O411 O 0.29803 0.60067 0.99683 0.0
C412 C 0.40528 0.5164 0.06955 0.0
C413 C 0.43889 0.52453 0.05819 0.0
H414 H 0.49796 0.54661 0.03189 0.0
H415 H 0.49306 0.58659 0.99691 0.0
H416 H 0.27781 0.5344 0.06971 0.0
H417 H 0.33505 0.50665 0.08666 0.0
H418 H 0.4058 0.49868 0.08472 0.0
H419 H 0.46474 0.51318 0.0649 0.0
Mn420 Mn 0.3178 0.83479 0.2533 0.0
Mn421 Mn 0.41104 0.84723 0.25234 0.0
C422 C 0.35105 0.84289 0.2877 0.0
C423 C 0.25787 0.85955 0.25322 0.0
C424 C 0.37387 0.7723 0.24458 0.0
O425 O 0.32691 0.84909 0.21958 0.0
O426 O 0.38874 0.86056 0.22171 0.0
C427 C 0.41412 0.92916 0.24694 0.0
N428 N 0.42287 0.89799 0.25923 0.0
C429 C 0.45907 0.93364 0.28664 0.0
C430 C 0.45029 0.96614 0.27433 0.0
C431 C 0.42758 0.96389 0.25443 0.0
C432 C 0.44442 0.89989 0.27851 0.0
H433 H 0.39728 0.92747 0.23146 0.0
C434 C 0.35759 0.85952 0.21068 0.0
O435 O 0.26375 0.8252 0.24721 0.0
O436 O 0.28671 0.87983 0.25803 0.0
N437 N 0.43581 0.83581 0.28096 0.0
C438 C 0.44183 0.80186 0.29083 0.0
C439 C 0.46374 0.7993 0.31104 0.0
C440 C 0.4798 0.83152 0.32064 0.0
C441 C 0.47372 0.86608 0.30998 0.0
C442 C 0.45139 0.86695 0.28997 0.0
H443 H 0.42994 0.77692 0.28337 0.0
O444 O 0.31866 0.82697 0.2877 0.0
O445 O 0.36311 0.85306 0.26753 0.0
O446 O 0.34033 0.783 0.24746 0.0
O447 O 0.40194 0.79408 0.24568 0.0
C448 C 0.48919 0.89965 0.31829 0.0
C449 C 0.48178 0.93341 0.30668 0.0
H450 H 0.46083 0.99295 0.27997 0.0
H451 H 0.42075 0.98882 0.24477 0.0
H452 H 0.46841 0.77251 0.31912 0.0
H453 H 0.49693 0.82935 0.33612 0.0
H454 H 0.50685 0.89985 0.3336 0.0
H455 H 0.49359 0.95907 0.31335 0.0
Mn456 Mn 0.18646 0.82622 0.49659 0.0
Mn457 Mn 0.09612 0.85174 0.49935 0.0
C458 C 0.15216 0.83668 0.46266 0.0
C459 C 0.24906 0.84337 0.49521 0.0
C460 C 0.1229 0.77278 0.50801 0.0
O461 O 0.18159 0.84311 0.53022 0.0
O462 O 0.12213 0.86339 0.52907 0.0
C463 C 0.10772 0.93329 0.50181 0.0
N464 N 0.09229 0.90316 0.49111 0.0
C465 C 0.06152 0.9421 0.46296 0.0
C466 C 0.07715 0.97355 0.47367 0.0
C467 C 0.1005 0.9691 0.49313 0.0
C468 C 0.07041 0.90709 0.47209 0.0
H469 H 0.12529 0.92998 0.51688 0.0
C470 C 0.15329 0.85819 0.53955 0.0
O471 O 0.2394 0.81022 0.50184 0.0
O472 O 0.22269 0.86653 0.49021 0.0
N473 N 0.06728 0.84239 0.47192 0.0
C474 C 0.05274 0.8094 0.46443 0.0
C475 C 0.02727 0.8091 0.44584 0.0
C476 C 0.01658 0.84274 0.43534 0.0
C477 C 0.03156 0.87638 0.44348 0.0
C478 C 0.05658 0.87496 0.46221 0.0
H479 H 0.06021 0.78349 0.47271 0.0
O480 O 0.18219 0.81675 0.46231 0.0
O481 O 0.14307 0.84935 0.48287 0.0
O482 O 0.15739 0.77855 0.50411 0.0
O483 O 0.09797 0.79815 0.50711 0.0
C484 C 0.02205 0.91131 0.43406 0.0
C485 C 0.03714 0.94414 0.44374 0.0
H486 H 0.07129 1.00124 0.46718 0.0
H487 H 0.11265 0.99322 0.50153 0.0
H488 H 0.01575 0.78303 0.43969 0.0
H489 H 0.99689 0.8424 0.42101 0.0
H490 H 0.00305 0.91324 0.41943 0.0
H491 H 0.02962 0.97084 0.43635 0.0
Mn492 Mn 0.17821 0.6794 0.74602 0.0
Mn493 Mn 0.16446 0.58628 0.74393 0.0
C494 C 0.16269 0.65033 0.71111 0.0
C495 C 0.15641 0.74002 0.75013 0.0
C496 C 0.24083 0.62227 0.7483 0.0
O497 O 0.17101 0.66585 0.78024 0.0
O498 O 0.15792 0.6048 0.77586 0.0
C499 C 0.08422 0.58546 0.75501 0.0
N500 N 0.11244 0.57643 0.74046 0.0
C501 C 0.07045 0.54373 0.71491 0.0
C502 C 0.04096 0.55251 0.72966 0.0
C503 C 0.04785 0.57369 0.74972 0.0
C504 C 0.10598 0.55682 0.72086 0.0
H505 H 0.08944 0.60144 0.77056 0.0
C506 C 0.16164 0.63404 0.78834 0.0
O507 O 0.19121 0.73202 0.75359 0.0
O508 O 0.13386 0.71259 0.7459 0.0
N509 N 0.16923 0.56423 0.7139 0.0
C510 C 0.20085 0.55696 0.70194 0.0
C511 C 0.19879 0.53636 0.68129 0.0
C512 C 0.16438 0.52233 0.67356 0.0
C513 C 0.13233 0.52903 0.68657 0.0
C514 C 0.13608 0.55016 0.70686 0.0
H515 H 0.22748 0.5663 0.7083 0.0
O516 O 0.17893 0.68257 0.71124 0.0
O517 O 0.15639 0.63607 0.73134 0.0
O518 O 0.22989 0.65592 0.74707 0.0
O519 O 0.219 0.59413 0.74729 0.0
C520 C 0.09695 0.51496 0.68046 0.0
C521 C 0.06599 0.52253 0.69452 0.0
H522 H 0.01292 0.54322 0.72573 0.0
H523 H 0.02523 0.58068 0.76117 0.0
H524 H 0.22377 0.53079 0.67156 0.0
H525 H 0.16303 0.50594 0.65782 0.0
H526 H 0.09321 0.49821 0.665 0.0
H527 H 0.03888 0.51186 0.68952 0.0
Mn528 Mn 0.82813 0.18122 0.51132 0.0
Mn529 Mn 0.84001 0.08788 0.51101 0.0
C530 C 0.84103 0.14933 0.54563 0.0
C531 C 0.85248 0.24139 0.50971 0.0
C532 C 0.7645 0.1255 0.50637 0.0
O533 O 0.83679 0.17018 0.4769 0.0
O534 O 0.84815 0.10862 0.47976 0.0
C535 C 0.92066 0.08643 0.50111 0.0
N536 N 0.89171 0.07695 0.51499 0.0
C537 C 0.93218 0.04225 0.5404 0.0
C538 C 0.9624 0.05148 0.52634 0.0
C539 C 0.95664 0.07387 0.50669 0.0
C540 C 0.89708 0.0561 0.53419 0.0
H541 H 0.91631 0.10338 0.48588 0.0
C542 C 0.84571 0.13879 0.46805 0.0
O543 O 0.81754 0.23504 0.50534 0.0
O544 O 0.87357 0.21273 0.51344 0.0
N545 N 0.83365 0.06388 0.5403 0.0
C546 C 0.80146 0.05647 0.55164 0.0
C547 C 0.80239 0.03473 0.57183 0.0
C548 C 0.83628 0.0198 0.57976 0.0
C549 C 0.86894 0.02676 0.56739 0.0
C550 C 0.86631 0.04899 0.54753 0.0
H551 H 0.77524 0.06663 0.54514 0.0
O552 O 0.82522 0.18172 0.54607 0.0
O553 O 0.84825 0.13646 0.52517 0.0
O554 O 0.77592 0.15895 0.50845 0.0
O555 O 0.78581 0.09697 0.50713 0.0
C556 C 0.90389 0.01198 0.57376 0.0
C557 C 0.93552 0.0199 0.56036 0.0
H558 H 0.99015 0.04163 0.53049 0.0
H559 H 0.97983 0.08122 0.49578 0.0
H560 H 0.77696 0.02902 0.58107 0.0
H561 H 0.83677 0.00259 0.59515 0.0
H562 H 0.90678 0.99442 0.58892 0.0
H563 H 0.96229 0.00866 0.56556 0.0
Mn564 Mn 0.82344 0.32139 0.76164 0.0
Mn565 Mn 0.91582 0.33815 0.76277 0.0
C566 C 0.85442 0.33152 0.79695 0.0
C567 C 0.76264 0.34473 0.76015 0.0
C568 C 0.88192 0.26141 0.75432 0.0
O569 O 0.83467 0.33393 0.72765 0.0
O570 O 0.89472 0.35086 0.73207 0.0
C571 C 0.91139 0.4202 0.75889 0.0
N572 N 0.92337 0.38938 0.77049 0.0
C573 C 0.95363 0.42686 0.79964 0.0
C574 C 0.94178 0.45902 0.78796 0.0
C575 C 0.92038 0.45565 0.76757 0.0
C576 C 0.94308 0.39231 0.79045 0.0
H577 H 0.89501 0.41772 0.74318 0.0
C578 C 0.86523 0.34687 0.71973 0.0
O579 O 0.76963 0.3103 0.75482 0.0
O580 O 0.79091 0.36583 0.76474 0.0
N581 N 0.94065 0.32757 0.79149 0.0
C582 C 0.95234 0.29391 0.7996 0.0
C583 C 0.97563 0.29231 0.81924 0.0
C584 C 0.9875 0.32537 0.83 0.0
C585 C 0.97596 0.35976 0.82101 0.0
C586 C 0.95292 0.35958 0.8013 0.0
H587 H 0.94474 0.26852 0.79082 0.0
O588 O 0.82252 0.31481 0.79629 0.0
O589 O 0.86714 0.3413 0.77693 0.0
O590 O 0.84798 0.27049 0.75736 0.0
O591 O 0.90925 0.28436 0.75534 0.0
C592 C 0.9871 0.39418 0.83052 0.0
C593 C 0.97576 0.42772 0.81992 0.0
H594 H 0.949 0.4864 0.79447 0.0
H595 H 0.91103 0.48033 0.75848 0.0
H596 H 0.98482 0.26566 0.82589 0.0
H597 H 0.0056 0.32404 0.84509 0.0
H598 H 0.00453 0.39518 0.84593 0.0
H599 H 0.98449 0.45403 0.82739 0.0
Mn600 Mn 0.6852 0.33775 0.00158 0.0
Mn601 Mn 0.59206 0.35096 0.00124 0.0
C602 C 0.65326 0.34565 0.96673 0.0
C603 C 0.74524 0.36229 0.00251 0.0
C604 C 0.62817 0.27577 0.00961 0.0
O605 O 0.6751 0.35227 0.0351 0.0
O606 O 0.61342 0.36401 0.03222 0.0
C607 C 0.58982 0.43293 0.00663 0.0
N608 N 0.58112 0.40184 0.99421 0.0
C609 C 0.54651 0.43786 0.96625 0.0
C610 C 0.55528 0.47029 0.9787 0.0
C611 C 0.57715 0.46781 0.99894 0.0
C612 C 0.56035 0.40395 0.97461 0.0
H613 H 0.60604 0.43106 0.02236 0.0
C614 C 0.6442 0.36273 0.04365 0.0
O615 O 0.73899 0.32798 0.00847 0.0
O616 O 0.7167 0.3826 0.99719 0.0
N617 N 0.56811 0.33976 0.9723 0.0
C618 C 0.56182 0.30584 0.96243 0.0
C619 C 0.54052 0.30346 0.94196 0.0
C620 C 0.52534 0.33585 0.9321 0.0
C621 C 0.53169 0.3704 0.94276 0.0
C622 C 0.55332 0.37107 0.96306 0.0
H623 H 0.57301 0.28076 0.97007 0.0
O624 O 0.68554 0.32954 0.96722 0.0
O625 O 0.64056 0.35619 0.98668 0.0
O626 O 0.66195 0.28621 0.00733 0.0
O627 O 0.60034 0.29773 0.00794 0.0
C628 C 0.51712 0.40415 0.93417 0.0
C629 C 0.5246 0.43786 0.94587 0.0
H630 H 0.54534 0.49721 0.97289 0.0
H631 H 0.58395 0.49268 0.0087 0.0
H632 H 0.53562 0.27668 0.93388 0.0
H633 H 0.50863 0.33381 0.91644 0.0
H634 H 0.50012 0.40453 0.91858 0.0
H635 H 0.51345 0.46365 0.93901 0.0
Mn636 Mn 0.67299 0.18671 0.24933 0.0
Mn637 Mn 0.66812 0.09267 0.2484 0.0
C638 C 0.66307 0.15536 0.21452 0.0
C639 C 0.64521 0.24499 0.2521 0.0
C640 C 0.7406 0.13572 0.25406 0.0
O641 O 0.66351 0.17368 0.28333 0.0
O642 O 0.65721 0.11132 0.27991 0.0
C643 C 0.5875 0.08446 0.25723 0.0
N644 N 0.61751 0.07788 0.24358 0.0
C645 C 0.58052 0.04141 0.21704 0.0
C646 C 0.54927 0.0476 0.23088 0.0
C647 C 0.55274 0.06943 0.25098 0.0
C648 C 0.6143 0.05759 0.22396 0.0
H649 H 0.59005 0.10098 0.2728 0.0
C650 C 0.65639 0.14149 0.29168 0.0
O651 O 0.68036 0.24048 0.25659 0.0
O652 O 0.62577 0.2155 0.24735 0.0
N653 N 0.67716 0.07048 0.21881 0.0
C654 C 0.71014 0.06612 0.20773 0.0
C655 C 0.71137 0.04551 0.18708 0.0
C656 C 0.6789 0.02852 0.17842 0.0
C657 C 0.6455 0.03222 0.19055 0.0
C658 C 0.64591 0.05352 0.21089 0.0
H659 H 0.73537 0.07781 0.21478 0.0
O660 O 0.67638 0.18894 0.21467 0.0
O661 O 0.65645 0.14111 0.23473 0.0
O662 O 0.72665 0.16819 0.25224 0.0
O663 O 0.72144 0.10569 0.25309 0.0
C664 C 0.61195 0.01513 0.18347 0.0
C665 C 0.57944 0.01989 0.19663 0.0
H666 H 0.52247 0.03584 0.22619 0.0
H667 H 0.52874 0.07444 0.26172 0.0
H668 H 0.73741 0.04227 0.17804 0.0
H669 H 0.68009 0.01224 0.16265 0.0
H670 H 0.61082 0.99818 0.16796 0.0
H671 H 0.55376 0.00689 0.19089 0.0
C672 C 0.16327 0.87736 0.28028 0.0
C673 C 0.15395 0.9117 0.26961 0.0
C674 C 0.20804 0.90616 0.24418 0.0
C675 C 0.21995 0.87452 0.25693 0.0
N676 N 0.21121 0.83192 0.28881 0.0
N677 N 0.16741 0.96013 0.2421 0.0
C678 C 0.19791 0.86022 0.27521 0.0
C679 C 0.17618 0.92635 0.25159 0.0
N680 N 0.139 0.86121 0.29538 0.0
N681 N 0.22691 0.91637 0.22473 0.0
H682 H 0.1435 0.97488 0.24649 0.0
H683 H 0.18471 0.97454 0.23086 0.0
H684 H 0.25011 0.90185 0.21881 0.0
H685 H 0.21792 0.93704 0.21336 0.0
H686 H 0.14215 0.83428 0.30175 0.0
H687 H 0.11393 0.87353 0.30013 0.0
H688 H 0.19872 0.82351 0.30414 0.0
H689 H 0.23639 0.81847 0.28586 0.0
C690 C 0.09682 0.66998 0.50286 0.0
C691 C 0.08309 0.66313 0.5254 0.0
C692 C 0.09532 0.72793 0.53648 0.0
C693 C 0.11068 0.73458 0.51425 0.0
N694 N 0.12999 0.71131 0.47698 0.0
N695 N 0.07549 0.68271 0.56501 0.0
C696 C 0.11287 0.70529 0.49769 0.0
C697 C 0.08425 0.69128 0.54262 0.0
N698 N 0.09324 0.64309 0.48619 0.0
N699 N 0.09049 0.7568 0.55162 0.0
H700 H 0.06658 0.65635 0.57012 0.0
H701 H 0.07996 0.70067 0.57893 0.0
H702 H 0.09956 0.78381 0.54838 0.0
H703 H 0.07526 0.75469 0.56681 0.0
H704 H 0.09857 0.64747 0.46871 0.0
H705 H 0.08265 0.61662 0.4896 0.0
H706 H 0.13635 0.69025 0.46528 0.0
H707 H 0.13995 0.73725 0.47188 0.0
C708 C 0.33751 0.58168 0.74396 0.0
C709 C 0.35105 0.58784 0.7668 0.0
C710 C 0.29456 0.62241 0.77641 0.0
C711 C 0.28061 0.61538 0.7537 0.0
N712 N 0.29364 0.60058 0.71401 0.0
N713 N 0.34786 0.6222 0.80258 0.0
C714 C 0.30363 0.59876 0.73685 0.0
C715 C 0.33128 0.611 0.7823 0.0
N716 N 0.35609 0.55831 0.72941 0.0
N717 N 0.27223 0.63852 0.79263 0.0
H718 H 0.37483 0.61434 0.80731 0.0
H719 H 0.33642 0.64187 0.81368 0.0
H720 H 0.24573 0.64868 0.78884 0.0
H721 H 0.27899 0.63988 0.81018 0.0
H722 H 0.34528 0.54947 0.71352 0.0
H723 H 0.38132 0.54579 0.73388 0.0
H724 H 0.31065 0.59161 0.70061 0.0
H725 H 0.27 0.61498 0.70843 0.0
C726 C 0.41604 0.83514 0.99599 0.0
C727 C 0.40724 0.85379 0.01688 0.0
C728 C 0.35987 0.80673 0.02553 0.0
C729 C 0.37206 0.78561 0.00622 0.0
N730 N 0.41143 0.77855 0.97299 0.0
N731 N 0.37228 0.85761 0.05223 0.0
C732 C 0.39989 0.79965 0.99129 0.0
C733 C 0.37914 0.83994 0.03168 0.0
N734 N 0.4397 0.85159 0.98067 0.0
N735 N 0.33016 0.79478 0.03818 0.0
H736 H 0.38469 0.88282 0.05692 0.0
H737 H 0.35595 0.84647 0.0653 0.0
H738 H 0.31645 0.76968 0.03506 0.0
H739 H 0.31727 0.81083 0.05079 0.0
H740 H 0.4449 0.84132 0.96416 0.0
H741 H 0.45215 0.87737 0.98383 0.0
H742 H 0.43448 0.78489 0.96296 0.0
H743 H 0.39871 0.75347 0.96834 0.0
C744 C 0.16939 0.62115 0.99925 0.0
C745 C 0.16198 0.59721 0.98022 0.0
C746 C 0.22782 0.59896 0.96947 0.0
C747 C 0.23601 0.61956 0.9899 0.0
N748 N 0.2154 0.64659 0.02588 0.0
N749 N 0.18429 0.55996 0.94842 0.0
C750 C 0.20696 0.63003 0.00516 0.0
C751 C 0.19125 0.58526 0.96564 0.0
N752 N 0.14046 0.63548 0.0116 0.0
N753 N 0.25479 0.59349 0.95325 0.0
H754 H 0.15774 0.55029 0.94437 0.0
H755 H 0.20506 0.54645 0.9392 0.0
H756 H 0.28213 0.6025 0.95544 0.0
H757 H 0.24949 0.58292 0.93675 0.0
H758 H 0.1436 0.65632 0.02401 0.0
H759 H 0.11276 0.62848 0.00822 0.0
H760 H 0.19607 0.65092 0.03892 0.0
H761 H 0.24243 0.65354 0.03089 0.0
C762 C 0.3803 0.66614 0.24884 0.0
C763 C 0.4018 0.6583 0.22896 0.0
C764 C 0.39964 0.72413 0.21765 0.0
C765 C 0.38126 0.73266 0.23871 0.0
N766 N 0.35735 0.7127 0.2756 0.0
N767 N 0.43365 0.67916 0.19474 0.0
C768 C 0.37205 0.70385 0.25455 0.0
C769 C 0.4118 0.68712 0.2134 0.0
N770 N 0.36761 0.63744 0.26217 0.0
N771 N 0.40446 0.75131 0.20137 0.0
H772 H 0.4411 0.65214 0.19007 0.0
H773 H 0.44618 0.69932 0.18449 0.0
H774 H 0.39688 0.77895 0.204 0.0
H775 H 0.41339 0.74626 0.18457 0.0
H776 H 0.34839 0.64074 0.27538 0.0
H777 H 0.37426 0.60967 0.25892 0.0
H778 H 0.35417 0.69368 0.28903 0.0
H779 H 0.35065 0.73981 0.28037 0.0
C780 C 0.33241 0.87752 0.46213 0.0
C781 C 0.35767 0.88618 0.48042 0.0
C782 C 0.31277 0.86334 0.50894 0.0
C783 C 0.28817 0.85366 0.49055 0.0
N784 N 0.27778 0.84306 0.44978 0.0
N785 N 0.3753 0.88174 0.52068 0.0
C786 C 0.29907 0.85811 0.46717 0.0
C787 C 0.3489 0.87729 0.5037 0.0
N788 N 0.33943 0.88936 0.44007 0.0
N789 N 0.30102 0.8606 0.53132 0.0
H790 H 0.40182 0.89219 0.51735 0.0
H791 H 0.37206 0.87251 0.53763 0.0
H792 H 0.27516 0.84954 0.53567 0.0
H793 H 0.31586 0.87112 0.54545 0.0
H794 H 0.32005 0.88777 0.42658 0.0
H795 H 0.36354 0.90364 0.4355 0.0
H796 H 0.28606 0.84202 0.43255 0.0
H797 H 0.25342 0.82818 0.45289 0.0
C798 C 0.14072 0.83605 0.72403 0.0
C799 C 0.10955 0.84776 0.73697 0.0
C800 C 0.11639 0.79352 0.76244 0.0
C801 C 0.14369 0.77902 0.74735 0.0
N802 N 0.17998 0.78478 0.71246 0.0
N803 N 0.06655 0.83814 0.76813 0.0
C804 C 0.15587 0.80008 0.72799 0.0
C805 C 0.09726 0.82681 0.75626 0.0
N806 N 0.1556 0.85929 0.7078 0.0
N807 N 0.10944 0.77577 0.78286 0.0
H808 H 0.0529 0.86317 0.76462 0.0
H809 H 0.05345 0.82198 0.7806 0.0
H810 H 0.12389 0.75194 0.78795 0.0
H811 H 0.09217 0.78639 0.79564 0.0
H812 H 0.18067 0.85409 0.6995 0.0
H813 H 0.14462 0.88551 0.70406 0.0
H814 H 0.18604 0.79679 0.69652 0.0
H815 H 0.19202 0.75862 0.71454 0.0
C816 C 0.66367 0.38076 0.75005 0.0
C817 C 0.65397 0.39083 0.77301 0.0
C818 C 0.71461 0.36921 0.78743 0.0
C819 C 0.72427 0.35839 0.76451 0.0
N820 N 0.70728 0.34972 0.72441 0.0
N821 N 0.66726 0.39021 0.81406 0.0
C822 C 0.69843 0.36271 0.74594 0.0
C823 C 0.6786 0.3837 0.79183 0.0
N824 N 0.63997 0.38943 0.73217 0.0
N825 N 0.7402 0.3663 0.80504 0.0
H826 H 0.642 0.40274 0.81811 0.0
H827 H 0.68162 0.38107 0.82872 0.0
H828 H 0.76546 0.35254 0.80337 0.0
H829 H 0.73732 0.37894 0.82115 0.0
H830 H 0.64655 0.38657 0.71476 0.0
H831 H 0.61391 0.40142 0.73476 0.0
H832 H 0.68865 0.34858 0.71053 0.0
H833 H 0.73306 0.33802 0.72063 0.0
C834 C 0.61589 0.17011 0.00464 0.0
C835 C 0.59831 0.16247 0.02604 0.0
C836 C 0.60243 0.22832 0.03694 0.0
C837 C 0.62011 0.23634 0.01561 0.0
N838 N 0.6477 0.21479 0.98009 0.0
N839 N 0.57771 0.18452 0.06361 0.0
C840 C 0.62829 0.20711 0.99978 0.0
C841 C 0.59272 0.19133 0.04242 0.0
N842 N 0.61919 0.14225 0.98862 0.0
N843 N 0.59492 0.25609 0.05242 0.0
H844 H 0.57008 0.1582 0.06958 0.0
H845 H 0.57008 0.1582 0.06958 0.0
H846 H 0.6015 0.28393 0.04957 0.0
H847 H 0.58191 0.25117 0.06822 0.0
H848 H 0.62794 0.14627 0.97169 0.0
H849 H 0.61123 0.11484 0.99192 0.0
H850 H 0.65803 0.19457 0.96897 0.0
H851 H 0.6554 0.24164 0.97533 0.0
C852 C 0.8278 0.11991 0.28925 0.0
C853 C 0.85294 0.10808 0.27188 0.0
C854 C 0.80626 0.12202 0.24178 0.0
C855 C 0.78095 0.13241 0.25932 0.0
N856 N 0.77214 0.1547 0.29822 0.0
N857 N 0.86977 0.10559 0.23164 0.0
C858 C 0.79324 0.13578 0.28257 0.0
C859 C 0.84328 0.11159 0.24807 0.0
N860 N 0.83581 0.11387 0.31214 0.0
N861 N 0.79476 0.12238 0.21918 0.0
H862 H 0.89715 0.09847 0.23587 0.0
H863 H 0.86567 0.11021 0.21401 0.0
H864 H 0.76923 0.13366 0.21415 0.0
H865 H 0.80984 0.1111 0.20557 0.0
H866 H 0.81656 0.11778 0.3253 0.0
H867 H 0.8606 0.10197 0.31792 0.0
H868 H 0.78137 0.16118 0.31491 0.0
H869 H 0.74688 0.16719 0.29378 0.0
C870 C 0.87631 0.34439 0.50157 0.0
C871 C 0.89463 0.35191 0.52296 0.0
C872 C 0.88197 0.28844 0.53612 0.0
C873 C 0.86666 0.27966 0.51398 0.0
N874 N 0.85345 0.29753 0.47453 0.0
N875 N 0.92098 0.32949 0.55895 0.0
C876 C 0.86479 0.30722 0.49638 0.0
C877 C 0.89927 0.32343 0.53972 0.0
N878 N 0.8695 0.37286 0.48643 0.0
N879 N 0.87829 0.26414 0.5542 0.0
H880 H 0.93366 0.35493 0.56257 0.0
H881 H 0.92913 0.30841 0.5703 0.0
H882 H 0.86509 0.23848 0.5527 0.0
H883 H 0.88494 0.27094 0.57129 0.0
H884 H 0.85292 0.37014 0.47164 0.0
H885 H 0.87841 0.40008 0.48954 0.0
H886 H 0.855 0.3153 0.46033 0.0
H887 H 0.84516 0.27057 0.47015 0.0
C888 C 0.67485 0.1141 0.47162 0.0
C889 C 0.6552 0.09027 0.4868 0.0
C890 C 0.70159 0.1019 0.51727 0.0
C891 C 0.7247 0.11917 0.50074 0.0
N892 N 0.73345 0.14364 0.46222 0.0
N893 N 0.64972 0.06035 0.52402 0.0
C894 C 0.71113 0.12643 0.478 0.0
C895 C 0.66822 0.08424 0.50976 0.0
N896 N 0.6586 0.12498 0.4512 0.0
N897 N 0.7111 0.10349 0.54019 0.0
H898 H 0.62484 0.04734 0.51925 0.0
H899 H 0.66027 0.05158 0.53997 0.0
H900 H 0.73451 0.11805 0.54602 0.0
H901 H 0.69397 0.09409 0.55341 0.0
H902 H 0.66988 0.14497 0.44026 0.0
H903 H 0.63199 0.1164 0.44613 0.0
H904 H 0.72714 0.14537 0.44462 0.0
H905 H 0.7595 0.15456 0.46647 0.0
C906 C 0.91243 0.15991 0.7585 0.0
C907 C 0.91687 0.15171 0.73462 0.0
C908 C 0.88946 0.21197 0.72426 0.0
C909 C 0.89015 0.22231 0.74795 0.0
N910 N 0.90021 0.20652 0.78801 0.0
N911 N 0.91326 0.17096 0.69458 0.0
C912 C 0.90091 0.19628 0.76522 0.0
C913 C 0.90609 0.1779 0.71742 0.0
N914 N 0.9184 0.1326 0.7746 0.0
N915 N 0.87204 0.23433 0.70837 0.0
H916 H 0.92532 0.14632 0.68875 0.0
H917 H 0.91002 0.19079 0.68156 0.0
H918 H 0.85899 0.25919 0.71289 0.0
H919 H 0.86736 0.22662 0.69119 0.0
H920 H 0.91253 0.13545 0.79212 0.0
H921 H 0.92684 0.10575 0.77016 0.0
H922 H 0.9118 0.19088 0.80141 0.0
H923 H 0.88897 0.23176 0.79345 0.0
C924 C 0.8408 0.3806 0.97696 0.0
C925 C 0.84965 0.41486 0.98796 0.0
C926 C 0.79473 0.40877 0.01262 0.0
C927 C 0.78334 0.37726 0.99952 0.0
N928 N 0.79335 0.33495 0.96762 0.0
N929 N 0.83518 0.46283 0.01559 0.0
C930 C 0.80606 0.36323 0.98149 0.0
C931 C 0.8268 0.42917 0.00577 0.0
N932 N 0.86561 0.36478 0.96207 0.0
N933 N 0.77512 0.41867 0.03185 0.0
H934 H 0.85923 0.47772 0.01162 0.0
H935 H 0.8175 0.47703 0.02671 0.0
H936 H 0.75174 0.40399 0.03735 0.0
H937 H 0.78362 0.43925 0.04345 0.0
H938 H 0.86276 0.33793 0.95548 0.0
H939 H 0.89078 0.37729 0.9577 0.0
H940 H 0.80637 0.32674 0.95242 0.0
H941 H 0.76818 0.32127 0.97024 0.0
C942 C 0.57827 0.32616 0.25795 0.0
C943 C 0.5901 0.34907 0.2394 0.0
C944 C 0.64026 0.30534 0.23054 0.0
C945 C 0.62879 0.28254 0.24929 0.0
N946 N 0.59227 0.27429 0.28362 0.0
N947 N 0.63638 0.36511 0.21116 0.0
C948 C 0.59939 0.29394 0.26388 0.0
C949 C 0.62259 0.34022 0.22682 0.0
N950 N 0.54623 0.33467 0.26936 0.0
N951 N 0.66627 0.2926 0.21531 0.0
H952 H 0.62352 0.39045 0.20741 0.0
H953 H 0.66217 0.3622 0.2033 0.0
H954 H 0.68003 0.26725 0.2172 0.0
H955 H 0.67227 0.30572 0.19971 0.0
H956 H 0.53358 0.31697 0.28119 0.0
H957 H 0.53109 0.35892 0.26608 0.0
H958 H 0.57346 0.28278 0.29615 0.0
H959 H 0.60767 0.25089 0.28847 0.0
C960 C 0.09996 0.85199 0.40558 0.0
C961 C 0.1113 0.889 0.40014 0.0
C962 C 0.14904 0.8911 0.43556 0.0
C963 C 0.13845 0.85401 0.44086 0.0
N964 N 0.11428 0.79543 0.42692 0.0
N965 N 0.1592 0.93546 0.40487 0.0
C966 C 0.11774 0.83304 0.42437 0.0
C967 C 0.13994 0.90585 0.41353 0.0
N968 N 0.07068 0.83575 0.39417 0.0
N969 N 0.16745 0.91267 0.45144 0.0
H970 H 0.15455 0.94559 0.38814 0.0
H971 H 0.18247 0.94685 0.41315 0.0
H972 H 0.17546 0.90328 0.46775 0.0
H973 H 0.17186 0.94109 0.44903 0.0
H974 H 0.06024 0.80962 0.39843 0.0
H975 H 0.05398 0.84969 0.38221 0.0
H976 H 0.10256 0.77828 0.41424 0.0
H977 H 0.12574 0.78111 0.44097 0.0
C978 C 0.14511 0.61711 0.64899 0.0
C979 C 0.10649 0.60904 0.64992 0.0
C980 C 0.10421 0.6338 0.68943 0.0
C981 C 0.14363 0.63676 0.68977 0.0
N982 N 0.20226 0.63033 0.67027 0.0
N983 N 0.0501 0.60442 0.67223 0.0
C984 C 0.16428 0.6285 0.66956 0.0
C985 C 0.0862 0.61611 0.67043 0.0
N986 N 0.16316 0.61475 0.62831 0.0
N987 N 0.08373 0.64898 0.70691 0.0
H988 H 0.03595 0.59019 0.6591 0.0
H989 H 0.03519 0.60551 0.68759 0.0
H990 H 0.09554 0.66297 0.72097 0.0
H991 H 0.05484 0.6511 0.70632 0.0
H992 H 0.1904 0.62366 0.62587 0.0
H993 H 0.14978 0.60674 0.61297 0.0
H994 H 0.21922 0.62064 0.65706 0.0
H995 H 0.21711 0.6389 0.68494 0.0
C996 C 0.36622 0.62158 0.89824 0.0
C997 C 0.40474 0.61313 0.89716 0.0
C998 C 0.41504 0.6437 0.93464 0.0
C999 C 0.37617 0.64483 0.93778 0.0
N1000 N 0.31443 0.64311 0.92176 0.0
N1001 N 0.46664 0.61711 0.91363 0.0
C1002 C 0.3516 0.63678 0.91912 0.0
C1003 C 0.42956 0.62525 0.91493 0.0
N1004 N 0.34396 0.61461 0.87939 0.0
N1005 N 0.43782 0.66056 0.95057 0.0
H1006 H 0.47852 0.60442 0.89923 0.0
H1007 H 0.48537 0.62109 0.92728 0.0
H1008 H 0.42729 0.67461 0.96493 0.0
H1009 H 0.4664 0.66361 0.94852 0.0
H1010 H 0.31584 0.62121 0.87836 0.0
H1011 H 0.35437 0.60381 0.86396 0.0
H1012 H 0.29398 0.63519 0.90989 0.0
H1013 H 0.30407 0.65684 0.93628 0.0
C1014 C 0.37893 0.92658 0.16358 0.0
C1015 C 0.38964 0.90144 0.14584 0.0
C1016 C 0.36434 0.84905 0.16796 0.0
C1017 C 0.35793 0.87376 0.18661 0.0
N1018 N 0.34478 0.93585 0.19926 0.0
N1019 N 0.38552 0.84086 0.12824 0.0
C1020 C 0.36043 0.9126 0.18336 0.0
C1021 C 0.3797 0.86323 0.14702 0.0
N1022 N 0.38853 0.96335 0.1622 0.0
N1023 N 0.35614 0.81221 0.17063 0.0
H1024 H 0.39634 0.85101 0.11275 0.0
H1025 H 0.37818 0.8129 0.12735 0.0
H1026 H 0.34235 0.80235 0.18524 0.0
H1027 H 0.36236 0.79155 0.15866 0.0
H1028 H 0.38561 0.98208 0.17584 0.0
H1029 H 0.4014 0.97491 0.14778 0.0
H1030 H 0.34273 0.96455 0.19713 0.0
H1031 H 0.3307 0.92571 0.21369 0.0
C1032 C 0.11874 0.63953 0.84861 0.0
C1033 C 0.12564 0.60235 0.85583 0.0
C1034 C 0.16947 0.59585 0.82397 0.0
C1035 C 0.15502 0.62865 0.81355 0.0
N1036 N 0.11215 0.6805 0.81566 0.0
N1037 N 0.15447 0.54279 0.84753 0.0
C1038 C 0.12917 0.65075 0.82595 0.0
C1039 C 0.15076 0.57997 0.84305 0.0
N1040 N 0.1017 0.66384 0.86328 0.0
N1041 N 0.20048 0.57928 0.8152 0.0
H1042 H 0.13943 0.52877 0.86013 0.0
H1043 H 0.16965 0.52495 0.83696 0.0
H1044 H 0.21485 0.59028 0.80117 0.0
H1045 H 0.21389 0.55709 0.82338 0.0
H1046 H 0.09859 0.69207 0.85956 0.0
H1047 H 0.09438 0.65642 0.88012 0.0
H1048 H 0.09026 0.6949 0.82326 0.0
H1049 H 0.11742 0.68876 0.79875 0.0
C1050 C 0.35127 0.6172 0.10077 0.0
C1051 C 0.38967 0.60836 0.10242 0.0
C1052 C 0.39971 0.6355 0.06407 0.0
C1053 C 0.3606 0.6389 0.0609 0.0
N1054 N 0.29858 0.63184 0.07584 0.0
N1055 N 0.44989 0.60424 0.08429 0.0
C1056 C 0.3362 0.62979 0.07925 0.0
C1057 C 0.41382 0.61637 0.08375 0.0
N1058 N 0.32948 0.61435 0.11997 0.0
N1059 N 0.42354 0.65162 0.0487 0.0
H1060 H 0.46129 0.58896 0.09795 0.0
H1061 H 0.46764 0.60613 0.07019 0.0
H1062 H 0.41461 0.6668 0.03433 0.0
H1063 H 0.45217 0.65328 0.05147 0.0
H1064 H 0.30213 0.62378 0.12062 0.0
H1065 H 0.33984 0.60557 0.13601 0.0
H1066 H 0.27923 0.62161 0.08753 0.0
H1067 H 0.28662 0.64092 0.06034 0.0
C1068 C 0.39015 0.91065 0.33237 0.0
C1069 C 0.39747 0.8865 0.35131 0.0
C1070 C 0.37561 0.83316 0.32833 0.0
C1071 C 0.36697 0.85763 0.30971 0.0
N1072 N 0.35552 0.92077 0.29689 0.0
N1073 N 0.39107 0.82636 0.36919 0.0
C1074 C 0.37107 0.89672 0.31258 0.0
C1075 C 0.38835 0.84815 0.34984 0.0
N1076 N 0.40275 0.9466 0.33282 0.0
N1077 N 0.37288 0.79554 0.32518 0.0
H1078 H 0.40016 0.83665 0.38519 0.0
H1079 H 0.38141 0.79908 0.36998 0.0
H1080 H 0.36366 0.78366 0.30969 0.0
H1081 H 0.38265 0.77605 0.33709 0.0
H1082 H 0.4015 0.96427 0.31854 0.0
H1083 H 0.41777 0.95792 0.34667 0.0
H1084 H 0.3543 0.94944 0.29946 0.0
H1085 H 0.3404 0.9121 0.28239 0.0
C1086 C 0.13882 0.9243 0.58807 0.0
C1087 C 0.12663 0.8992 0.60543 0.0
C1088 C 0.14739 0.84616 0.58211 0.0
C1089 C 0.15544 0.87119 0.56388 0.0
N1090 N 0.1731 0.93266 0.55236 0.0
N1091 N 0.12773 0.83787 0.62209 0.0
C1092 C 0.15599 0.90992 0.56792 0.0
C1093 C 0.13402 0.86052 0.60351 0.0
N1094 N 0.13183 0.96155 0.59017 0.0
N1095 N 0.15142 0.80882 0.57848 0.0
H1096 H 0.11814 0.84811 0.63787 0.0
H1097 H 0.13412 0.80966 0.62255 0.0
H1098 H 0.16318 0.79825 0.56338 0.0
H1099 H 0.14292 0.78835 0.59001 0.0
H1100 H 0.13594 0.98062 0.57686 0.0
H1101 H 0.11997 0.97329 0.60488 0.0
H1102 H 0.17725 0.96105 0.55498 0.0
H1103 H 0.18633 0.92205 0.53773 0.0
C1104 C 0.61624 0.41253 0.92096 0.0
C1105 C 0.60941 0.38796 0.90213 0.0
C1106 C 0.62992 0.33505 0.92591 0.0
C1107 C 0.63813 0.35994 0.94441 0.0
N1108 N 0.64964 0.42331 0.95684 0.0
N1109 N 0.61597 0.32731 0.8849 0.0
C1110 C 0.63448 0.39898 0.94114 0.0
C1111 C 0.61814 0.34958 0.90408 0.0
N1112 N 0.6039 0.44854 0.92004 0.0
N1113 N 0.63212 0.2975 0.92947 0.0
H1114 H 0.60763 0.33725 0.86868 0.0
H1115 H 0.6254 0.29992 0.88451 0.0
H1116 H 0.64053 0.28593 0.94521 0.0
H1117 H 0.62262 0.27778 0.91758 0.0
H1118 H 0.60481 0.46656 0.93418 0.0
H1119 H 0.58938 0.45959 0.90593 0.0
H1120 H 0.65122 0.45191 0.95404 0.0
H1121 H 0.6641 0.4149 0.97164 0.0
C1122 C 0.59298 0.11396 0.17193 0.0
C1123 C 0.6153 0.10891 0.15204 0.0
C1124 C 0.66959 0.13357 0.17318 0.0
C1125 C 0.64686 0.13975 0.19281 0.0
N1126 N 0.58488 0.14619 0.20827 0.0
N1127 N 0.67273 0.11972 0.13201 0.0
C1128 C 0.60793 0.13306 0.19142 0.0
C1129 C 0.65306 0.12043 0.15216 0.0
N1130 N 0.55792 0.09916 0.17265 0.0
N1131 N 0.70712 0.13922 0.17484 0.0
H1132 H 0.66131 0.1104 0.11636 0.0
H1133 H 0.69918 0.13111 0.13027 0.0
H1134 H 0.71995 0.14968 0.18974 0.0
H1135 H 0.72588 0.13108 0.16219 0.0
H1136 H 0.54185 0.09868 0.18755 0.0
H1137 H 0.54601 0.08408 0.15904 0.0
H1138 H 0.55598 0.14556 0.2069 0.0
H1139 H 0.59428 0.16119 0.22262 0.0
C1140 C 0.85731 0.08703 0.41267 0.0
C1141 C 0.88335 0.10935 0.40058 0.0
C1142 C 0.87918 0.15712 0.43097 0.0
C1143 C 0.85273 0.1348 0.44275 0.0
N1144 N 0.80638 0.08638 0.43962 0.0
N1145 N 0.909 0.17049 0.39435 0.0
C1146 C 0.83811 0.10264 0.43162 0.0
C1147 C 0.89076 0.14617 0.40842 0.0
N1148 N 0.85313 0.05005 0.40766 0.0
N1149 N 0.89529 0.18709 0.44164 0.0
H1150 H 0.91711 0.16333 0.37761 0.0
H1151 H 0.91246 0.19859 0.39835 0.0
H1152 H 0.8881 0.19625 0.4581 0.0
H1153 H 0.91784 0.20137 0.43472 0.0
H1154 H 0.83715 0.03219 0.41774 0.0
H1155 H 0.86854 0.03611 0.3952 0.0
H1156 H 0.79288 0.06474 0.4309 0.0
H1157 H 0.79161 0.09721 0.45354 0.0
C1158 C 0.85505 0.39384 0.66035 0.0
C1159 C 0.89211 0.38899 0.65248 0.0
C1160 C 0.90279 0.34445 0.68381 0.0
C1161 C 0.86945 0.356 0.69468 0.0
N1162 N 0.81425 0.39451 0.69352 0.0
N1163 N 0.95378 0.3642 0.66011 0.0
C1164 C 0.84522 0.38102 0.68288 0.0
C1165 C 0.9166 0.36507 0.66488 0.0
N1166 N 0.8293 0.4106 0.64629 0.0
N1167 N 0.92177 0.31409 0.69186 0.0
H1168 H 0.96627 0.38095 0.64769 0.0
H1169 H 0.97301 0.34988 0.67038 0.0
H1170 H 0.91246 0.29814 0.70572 0.0
H1171 H 0.94439 0.30265 0.68321 0.0
H1172 H 0.80113 0.41205 0.65029 0.0
H1173 H 0.83558 0.41956 0.62958 0.0
H1174 H 0.79816 0.41601 0.68662 0.0
H1175 H 0.80606 0.38634 0.71 0.0
C1176 C 0.58967 0.12855 0.34074 0.0
C1177 C 0.61235 0.10854 0.35673 0.0
C1178 C 0.66659 0.11796 0.33214 0.0
C1179 C 0.64397 0.13765 0.31598 0.0
N1180 N 0.58648 0.16957 0.30739 0.0
N1181 N 0.67353 0.09385 0.37122 0.0
C1182 C 0.60645 0.14602 0.32133 0.0
C1183 C 0.65131 0.10672 0.35363 0.0
N1184 N 0.55185 0.12849 0.34308 0.0
N1185 N 0.70201 0.10811 0.32637 0.0
H1186 H 0.66283 0.08561 0.38717 0.0
H1187 H 0.70248 0.09481 0.37083 0.0
H1188 H 0.71402 0.11587 0.31076 0.0
H1189 H 0.71846 0.09018 0.33626 0.0
H1190 H 0.53355 0.13844 0.33044 0.0
H1191 H 0.53835 0.11612 0.357 0.0
H1192 H 0.56028 0.17971 0.31163 0.0
H1193 H 0.59737 0.18158 0.2925 0.0
C1194 C 0.85555 0.11282 0.60725 0.0
C1195 C 0.89407 0.10423 0.60676 0.0
C1196 C 0.89838 0.13083 0.56783 0.0
C1197 C 0.85902 0.13432 0.56693 0.0
N1198 N 0.7995 0.12788 0.58539 0.0
N1199 N 0.95131 0.09985 0.58527 0.0
C1200 C 0.83741 0.12543 0.58664 0.0
C1201 C 0.91532 0.11197 0.58674 0.0
N1202 N 0.83665 0.10978 0.6276 0.0
N1203 N 0.91984 0.14665 0.55106 0.0
H1204 H 0.96471 0.08484 0.59834 0.0
H1205 H 0.96685 0.10144 0.57018 0.0
H1206 H 0.90887 0.16152 0.53712 0.0
H1207 H 0.94873 0.14837 0.55219 0.0
H1208 H 0.80946 0.11898 0.62979 0.0
H1209 H 0.84928 0.10087 0.64297 0.0
H1210 H 0.78186 0.11778 0.59813 0.0
H1211 H 0.7854 0.13748 0.57071 0.0
C1212 C 0.86528 0.40356 0.84458 0.0
C1213 C 0.8918 0.38652 0.85944 0.0
C1214 C 0.88433 0.32903 0.83671 0.0
C1215 C 0.86683 0.34976 0.81878 0.0
N1216 N 0.84293 0.40915 0.80537 0.0
N1217 N 0.92859 0.33161 0.8685 0.0
C1218 C 0.8579 0.38773 0.82261 0.0
C1219 C 0.90145 0.34851 0.85556 0.0
N1220 N 0.84658 0.43457 0.85168 0.0
N1221 N 0.88531 0.29111 0.83552 0.0
H1222 H 0.94531 0.34564 0.88043 0.0
H1223 H 0.93749 0.30445 0.86558 0.0
H1224 H 0.87357 0.27637 0.82171 0.0
H1225 H 0.89477 0.27442 0.8491 0.0
H1226 H 0.82478 0.44634 0.84215 0.0
H1227 H 0.85 0.44564 0.8683 0.0
H1228 H 0.83964 0.43788 0.80696 0.0
H1229 H 0.83713 0.39918 0.78884 0.0
C1230 C 0.62156 0.36324 0.10732 0.0
C1231 C 0.61131 0.40126 0.10926 0.0
C1232 C 0.64025 0.41454 0.07193 0.0
C1233 C 0.6431 0.37589 0.06794 0.0
N1234 N 0.64541 0.31357 0.08272 0.0
N1235 N 0.61194 0.46397 0.09419 0.0
C1236 C 0.63698 0.35022 0.08612 0.0
C1237 C 0.62176 0.42736 0.09202 0.0
N1238 N 0.61589 0.33991 0.12566 0.0
N1239 N 0.65565 0.43871 0.05649 0.0
H1240 H 0.59918 0.47467 0.10891 0.0
H1241 H 0.61463 0.48341 0.08094 0.0
H1242 H 0.66988 0.42942 0.04189 0.0
H1243 H 0.65742 0.46733 0.05916 0.0
H1244 H 0.62338 0.31197 0.12599 0.0
H1245 H 0.60501 0.34922 0.14133 0.0
H1246 H 0.6395 0.29233 0.09434 0.0
H1247 H 0.65895 0.30441 0.06786 0.0
loop_
_geom_bond_atom_site_label_1
_geom_bond_atom_site_label_2
_geom_bond_distance
_geom_bond_site_symmetry_2
_ccdc_geom_bond_type
H0 C19 0.949 . S
H1 C20 0.950 . S
H2 C22 0.950 . S
H3 C23 0.950 . S
H4 C25 0.950 . S
H5 C28 0.950 . S
H6 C29 0.950 . S
H7 C31 0.951 . S
H8 C32 0.949 1_565 S
H9 C34 0.949 . S
H10 C35 0.950 . S
H11 C37 0.950 . S
H12 C38 0.950 . S
H13 C40 0.951 . S
H14 C43 0.950 . S
H15 C44 0.950 . S
H16 C46 0.951 . S
H17 C47 0.949 1_545 S
C18 C19 1.376 . S
C18 C23 1.386 . S
C18 C24 1.483 . S
C19 H0 0.949 . S
C19 C18 1.376 . S
C19 C20 1.397 . S
C20 H1 0.950 . S
C20 C19 1.397 . S
C20 C21 1.391 . S
C21 C20 1.391 . S
C21 C22 1.405 . S
C22 H2 0.950 . S
C22 C21 1.405 . S
C22 C23 1.367 . S
C23 H3 0.950 . S
C23 C18 1.386 . S
C23 C22 1.367 . S
C24 C18 1.483 . S
C24 C25 1.382 1_655 S
C24 C26 1.403 . S
C25 H4 0.950 . S
C25 C24 1.382 1_455 S
C25 C41 1.411 1_545 S
C26 C24 1.403 . S
C26 C27 1.489 . S
C26 C40 1.422 1_545 S
C27 C26 1.489 . S
C27 C28 1.383 . S
C27 C32 1.382 . S
C28 H5 0.950 . S
C28 C27 1.383 . S
C28 C29 1.395 . S
C29 H6 0.950 . S
C29 C28 1.395 . S
C29 C30 1.288 . S
C30 C29 1.288 . S
C30 C31 1.392 . S
C31 H7 0.951 . S
C31 C30 1.392 . S
C31 C32 1.392 . S
C32 H8 0.949 1_545 S
C32 C27 1.382 . S
C32 C31 1.392 . S
C33 C34 1.376 . S
C33 C38 1.386 . S
C33 C39 1.483 . S
C34 H9 0.949 . S
C34 C33 1.376 . S
C34 C35 1.397 . S
C35 H10 0.950 . S
C35 C34 1.397 . S
C35 C36 1.391 . S
C36 C35 1.391 . S
C36 C37 1.405 . S
C37 H11 0.950 . S
C37 C36 1.405 . S
C37 C38 1.367 . S
C38 H12 0.950 . S
C38 C33 1.386 . S
C38 C37 1.367 . S
C39 C33 1.483 . S
C39 C40 1.370 1_455 S
C39 C41 1.403 . S
C40 H13 0.951 . S
C40 C26 1.422 1_565 S
C40 C39 1.370 1_655 S
C41 C25 1.411 1_565 S
C41 C39 1.403 . S
C41 C42 1.489 . S
C42 C41 1.489 . S
C42 C43 1.383 . S
C42 C47 1.382 . S
C43 H14 0.950 . S
C43 C42 1.383 . S
C43 C44 1.395 . S
C44 H15 0.950 . S
C44 C43 1.395 . S
C44 C45 1.288 . S
C45 C44 1.288 . S
C45 C46 1.392 . S
C46 H16 0.951 . S
C46 C45 1.392 . S
C46 C47 1.392 . S
C47 H17 0.949 1_565 S
C47 C42 1.382 . S
C47 C46 1.392 . S
H48 C67 0.949 1_455 S
H49 C68 0.950 . S
H50 C70 0.950 . S
H51 C71 0.950 . S
H52 C73 0.950 . S
H53 C76 0.950 . S
H54 C77 0.950 . S
H55 C79 0.951 . S
H56 C80 0.949 . S
H57 C82 0.949 1_655 S
H58 C83 0.950 . S
H59 C85 0.950 . S
H60 C86 0.950 . S
H61 C88 0.950 . S
H62 C91 0.950 . S
H63 C92 0.950 . S
H64 C94 0.951 . S
H65 C95 0.949 . S
C66 C67 1.376 . S
C66 C71 1.386 . S
C66 C72 1.483 . S
C67 H48 0.949 1_655 S
C67 C66 1.376 . S
C67 C68 1.397 . S
C68 H49 0.950 . S
C68 C67 1.397 . S
C68 C69 1.391 . S
C69 C68 1.391 . S
C69 C70 1.405 . S
C70 H50 0.950 . S
C70 C69 1.405 . S
C70 C71 1.367 . S
C71 H51 0.950 . S
C71 C66 1.386 . S
C71 C70 1.367 . S
C72 C66 1.483 . S
C72 C73 1.382 1_655 S
C72 C74 1.403 . S
C73 H52 0.950 . S
C73 C72 1.382 1_455 S
C73 C89 1.411 . S
C74 C72 1.403 . S
C74 C75 1.489 . S
C74 C88 1.411 . S
C75 C74 1.489 . S
C75 C76 1.383 . S
C75 C80 1.382 . S
C76 H53 0.950 . S
C76 C75 1.383 . S
C76 C77 1.395 . S
C77 H54 0.950 . S
C77 C76 1.395 . S
C77 C78 1.288 . S
C78 C77 1.288 . S
C78 C79 1.392 . S
C79 H55 0.951 . S
C79 C78 1.392 . S
C79 C80 1.392 . S
C80 H56 0.949 . S
C80 C75 1.382 . S
C80 C79 1.392 . S
C81 C82 1.376 . S
C81 C86 1.386 . S
C81 C87 1.483 . S
C82 H57 0.949 1_455 S
C82 C81 1.376 . S
C82 C83 1.397 . S
C83 H58 0.950 . S
C83 C82 1.397 . S
C83 C84 1.391 . S
C84 C83 1.391 . S
C84 C85 1.405 . S
C85 H59 0.950 . S
C85 C84 1.405 . S
C85 C86 1.367 . S
C86 H60 0.950 . S
C86 C81 1.386 . S
C86 C85 1.367 . S
C87 C81 1.483 . S
C87 C88 1.382 1_455 S
C87 C89 1.403 . S
C88 H61 0.950 . S
C88 C74 1.411 . S
C88 C87 1.382 1_655 S
C89 C73 1.411 . S
C89 C87 1.403 . S
C89 C90 1.489 . S
C90 C89 1.489 . S
C90 C91 1.383 . S
C90 C95 1.382 . S
C91 H62 0.950 . S
C91 C90 1.383 . S
C91 C92 1.395 . S
C92 H63 0.950 . S
C92 C91 1.395 . S
C92 C93 1.288 . S
C93 C92 1.288 . S
C93 C94 1.392 . S
C94 H64 0.951 . S
C94 C93 1.392 . S
C94 C95 1.392 . S
C95 H65 0.949 . S
C95 C90 1.382 . S
C95 C94 1.392 . S
H96 C115 0.949 . S
H97 C116 0.950 . S
H98 C118 0.950 . S
H99 C119 0.950 . S
H100 C121 0.950 . S
H101 C124 0.950 . S
H102 C125 0.950 . S
H103 C127 0.951 . S
H104 C128 0.949 . S
H105 C130 0.949 . S
H106 C131 0.950 . S
H107 C133 0.950 . S
H108 C134 0.950 . S
H109 C136 0.950 . S
H110 C139 0.950 . S
H111 C140 0.950 . S
H112 C142 0.951 . S
H113 C143 0.949 . S
C114 C115 1.376 . S
C114 C119 1.386 . S
C114 C120 1.483 . S
C115 H96 0.949 . S
C115 C114 1.376 . S
C115 C116 1.397 . S
C116 H97 0.950 . S
C116 C115 1.397 . S
C116 C117 1.391 . S
C117 C116 1.391 . S
C117 C118 1.405 . S
C118 H98 0.950 . S
C118 C117 1.405 . S
C118 C119 1.367 . S
C119 H99 0.950 . S
C119 C114 1.386 . S
C119 C118 1.367 . S
C120 C114 1.483 . S
C120 C121 1.382 . S
C120 C122 1.403 . S
C121 H100 0.950 . S
C121 C120 1.382 . S
C121 C137 1.411 . S
C122 C120 1.403 . S
C122 C123 1.489 . S
C122 C136 1.411 . S
C123 C122 1.489 . S
C123 C124 1.383 . S
C123 C128 1.382 . S
C124 H101 0.950 . S
C124 C123 1.383 . S
C124 C125 1.395 . S
C125 H102 0.950 . S
C125 C124 1.395 . S
C125 C126 1.288 . S
C126 C125 1.288 . S
C126 C127 1.392 . S
C127 H103 0.951 . S
C127 C126 1.392 . S
C127 C128 1.392 . S
C128 H104 0.949 . S
C128 C123 1.382 . S
C128 C127 1.392 . S
C129 C130 1.376 . S
C129 C134 1.386 . S
C129 C135 1.483 . S
C130 H105 0.949 . S
C130 C129 1.376 . S
C130 C131 1.397 . S
C131 H106 0.950 . S
C131 C130 1.397 . S
C131 C132 1.391 . S
C132 C131 1.391 . S
C132 C133 1.405 . S
C133 H107 0.950 . S
C133 C132 1.405 . S
C133 C134 1.367 . S
C134 H108 0.950 . S
C134 C129 1.386 . S
C134 C133 1.367 . S
C135 C129 1.483 . S
C135 C136 1.382 . S
C135 C137 1.403 . S
C136 H109 0.950 . S
C136 C122 1.411 . S
C136 C135 1.382 . S
C137 C121 1.411 . S
C137 C135 1.403 . S
C137 C138 1.489 . S
C138 C137 1.489 . S
C138 C139 1.383 . S
C138 C143 1.382 . S
C139 H110 0.950 . S
C139 C138 1.383 . S
C139 C140 1.395 . S
C140 H111 0.950 . S
C140 C139 1.395 . S
C140 C141 1.288 . S
C141 C140 1.288 . S
C141 C142 1.392 . S
C142 H112 0.951 . S
C142 C141 1.392 . S
C142 C143 1.392 . S
C143 H113 0.949 . S
C143 C138 1.382 . S
C143 C142 1.392 . S
H144 C163 0.949 . S
H145 C164 0.950 . S
H146 C166 0.950 . S
H147 C167 0.950 . S
H148 C169 0.950 1_565 S
H149 C172 0.950 . S
H150 C173 0.950 . S
H151 C175 0.951 . S
H152 C176 0.949 . S
H153 C178 0.949 . S
H154 C179 0.950 . S
H155 C181 0.950 . S
H156 C182 0.950 . S
H157 C184 0.950 . S
H158 C187 0.950 . S
H159 C188 0.950 . S
H160 C190 0.951 . S
H161 C191 0.949 . S
C162 C163 1.376 . S
C162 C167 1.386 . S
C162 C168 1.483 . S
C163 H144 0.949 . S
C163 C162 1.376 . S
C163 C164 1.397 . S
C164 H145 0.950 . S
C164 C163 1.397 . S
C164 C165 1.391 . S
C165 C164 1.391 . S
C165 C166 1.405 . S
C166 H146 0.950 . S
C166 C165 1.405 . S
C166 C167 1.367 . S
C167 H147 0.950 . S
C167 C162 1.386 . S
C167 C166 1.367 . S
C168 C162 1.483 . S
C168 C169 1.382 1_565 S
C168 C170 1.403 . S
C169 H148 0.950 1_545 S
C169 C168 1.382 1_545 S
C169 C185 1.411 . S
C170 C168 1.403 . S
C170 C171 1.489 . S
C170 C184 1.411 1_565 S
C171 C170 1.489 . S
C171 C172 1.383 . S
C171 C176 1.382 . S
C172 H149 0.950 . S
C172 C171 1.383 . S
C172 C173 1.395 . S
C173 H150 0.950 . S
C173 C172 1.395 . S
C173 C174 1.288 . S
C174 C173 1.288 . S
C174 C175 1.392 . S
C175 H151 0.951 . S
C175 C174 1.392 . S
C175 C176 1.392 . S
C176 H152 0.949 . S
C176 C171 1.382 . S
C176 C175 1.392 . S
C177 C178 1.376 . S
C177 C182 1.386 . S
C177 C183 1.483 . S
C178 H153 0.949 . S
C178 C177 1.376 . S
C178 C179 1.397 . S
C179 H154 0.950 . S
C179 C178 1.397 . S
C179 C180 1.391 . S
C180 C179 1.391 . S
C180 C181 1.405 . S
C181 H155 0.950 . S
C181 C180 1.405 . S
C181 C182 1.367 . S
C182 H156 0.950 . S
C182 C177 1.386 . S
C182 C181 1.367 . S
C183 C177 1.483 . S
C183 C184 1.382 . S
C183 C185 1.403 . S
C184 H157 0.950 . S
C184 C170 1.411 1_545 S
C184 C183 1.382 . S
C185 C169 1.411 . S
C185 C183 1.403 . S
C185 C186 1.489 . S
C186 C185 1.489 . S
C186 C187 1.383 . S
C186 C191 1.382 . S
C187 H158 0.950 . S
C187 C186 1.383 . S
C187 C188 1.395 . S
C188 H159 0.950 . S
C188 C187 1.395 . S
C188 C189 1.288 . S
C189 C188 1.288 . S
C189 C190 1.392 . S
C190 H160 0.951 . S
C190 C189 1.392 . S
C190 C191 1.392 . S
C191 H161 0.949 . S
C191 C186 1.382 . S
C191 C190 1.392 . S
H192 C211 0.949 . S
H193 C212 0.950 . S
H194 C214 0.950 . S
H195 C215 0.950 . S
H196 C217 0.950 . S
H197 C220 0.950 . S
H198 C221 0.950 . S
H199 C223 0.951 . S
H200 C224 0.949 . S
H201 C226 0.949 . S
H202 C227 0.950 . S
H203 C229 0.950 . S
H204 C230 0.950 . S
H205 C232 0.950 . S
H206 C235 0.950 . S
H207 C236 0.950 . S
H208 C238 0.951 . S
H209 C239 0.949 . S
C210 C211 1.376 . S
C210 C215 1.386 . S
C210 C216 1.483 . S
C211 H192 0.949 . S
C211 C210 1.376 . S
C211 C212 1.397 . S
C212 H193 0.950 . S
C212 C211 1.397 . S
C212 C213 1.391 . S
C213 C212 1.391 . S
C213 C214 1.405 . S
C214 H194 0.950 . S
C214 C213 1.405 . S
C214 C215 1.367 . S
C215 H195 0.950 . S
C215 C210 1.386 . S
C215 C214 1.367 . S
C216 C210 1.483 . S
C216 C217 1.382 1_455 S
C216 C218 1.403 . S
C217 H196 0.950 . S
C217 C216 1.382 1_655 S
C217 C233 1.411 . S
C218 C216 1.403 . S
C218 C219 1.489 . S
C218 C232 1.411 . S
C219 C218 1.489 . S
C219 C220 1.383 . S
C219 C224 1.382 . S
C220 H197 0.950 . S
C220 C219 1.383 . S
C220 C221 1.395 . S
C221 H198 0.950 . S
C221 C220 1.395 . S
C221 C222 1.288 . S
C222 C221 1.288 . S
C222 C223 1.392 . S
C223 H199 0.951 . S
C223 C222 1.392 . S
C223 C224 1.392 . S
C224 H200 0.949 . S
C224 C219 1.382 . S
C224 C223 1.392 . S
C225 C226 1.376 . S
C225 C230 1.386 . S
C225 C231 1.483 . S
C226 H201 0.949 . S
C226 C225 1.376 . S
C226 C227 1.397 . S
C227 H202 0.950 . S
C227 C226 1.397 . S
C227 C228 1.391 . S
C228 C227 1.391 . S
C228 C229 1.405 . S
C229 H203 0.950 . S
C229 C228 1.405 . S
C229 C230 1.367 . S
C230 H204 0.950 . S
C230 C225 1.386 . S
C230 C229 1.367 . S
C231 C225 1.483 . S
C231 C232 1.382 1_655 S
C231 C233 1.403 . S
C232 H205 0.950 . S
C232 C218 1.411 . S
C232 C231 1.382 1_455 S
C233 C217 1.411 . S
C233 C231 1.403 . S
C233 C234 1.489 . S
C234 C233 1.489 . S
C234 C235 1.383 . S
C234 C239 1.382 . S
C235 H206 0.950 . S
C235 C234 1.383 . S
C235 C236 1.395 . S
C236 H207 0.950 . S
C236 C235 1.395 . S
C236 C237 1.288 . S
C237 C236 1.288 . S
C237 C238 1.392 . S
C238 H208 0.951 . S
C238 C237 1.392 . S
C238 C239 1.392 . S
C239 H209 0.949 . S
C239 C234 1.382 . S
C239 C238 1.392 . S
H240 C259 0.949 . S
H241 C260 0.950 . S
H242 C262 0.950 . S
H243 C263 0.950 . S
H244 C265 0.950 . S
H245 C268 0.950 . S
H246 C269 0.950 . S
H247 C271 0.951 . S
H248 C272 0.949 . S
H249 C274 0.949 . S
H250 C275 0.950 . S
H251 C277 0.950 . S
H252 C278 0.950 . S
H253 C280 0.950 . S
H254 C283 0.950 . S
H255 C284 0.950 . S
H256 C286 0.951 . S
H257 C287 0.949 . S
C258 C259 1.376 . S
C258 C263 1.386 . S
C258 C264 1.483 . S
C259 H240 0.949 . S
C259 C258 1.376 . S
C259 C260 1.397 . S
C260 H241 0.950 . S
C260 C259 1.397 . S
C260 C261 1.391 . S
C261 C260 1.391 . S
C261 C262 1.405 . S
C262 H242 0.950 . S
C262 C261 1.405 . S
C262 C263 1.367 . S
C263 H243 0.950 . S
C263 C258 1.386 . S
C263 C262 1.367 . S
C264 C258 1.483 . S
C264 C265 1.382 . S
C264 C266 1.403 . S
C265 H244 0.950 . S
C265 C264 1.382 . S
C265 C281 1.411 . S
C266 C264 1.403 . S
C266 C267 1.489 . S
C266 C280 1.411 . S
C267 C266 1.489 . S
C267 C268 1.383 . S
C267 C272 1.382 . S
C268 H245 0.950 . S
C268 C267 1.383 . S
C268 C269 1.395 . S
C269 H246 0.950 . S
C269 C268 1.395 . S
C269 C270 1.288 . S
C270 C269 1.288 . S
C270 C271 1.392 . S
C271 H247 0.951 . S
C271 C270 1.392 . S
C271 C272 1.392 . S
C272 H248 0.949 . S
C272 C267 1.382 . S
C272 C271 1.392 . S
C273 C274 1.376 . S
C273 C278 1.386 . S
C273 C279 1.483 . S
C274 H249 0.949 . S
C274 C273 1.376 . S
C274 C275 1.397 . S
C275 H250 0.950 . S
C275 C274 1.397 . S
C275 C276 1.391 . S
C276 C275 1.391 . S
C276 C277 1.405 . S
C277 H251 0.950 . S
C277 C276 1.405 . S
C277 C278 1.367 . S
C278 H252 0.950 . S
C278 C273 1.386 . S
C278 C277 1.367 . S
C279 C273 1.483 . S
C279 C280 1.382 . S
C279 C281 1.403 . S
C280 H253 0.950 . S
C280 C266 1.411 . S
C280 C279 1.382 . S
C281 C265 1.411 . S
C281 C279 1.403 . S
C281 C282 1.489 . S
C282 C281 1.489 . S
C282 C283 1.383 . S
C282 C287 1.382 . S
C283 H254 0.950 . S
C283 C282 1.383 . S
C283 C284 1.395 . S
C284 H255 0.950 . S
C284 C283 1.395 . S
C284 C285 1.288 . S
C285 C284 1.288 . S
C285 C286 1.392 . S
C286 H256 0.951 . S
C286 C285 1.392 . S
C286 C287 1.392 . S
C287 H257 0.949 . S
C287 C282 1.382 . S
C287 C286 1.392 . S
H288 C307 0.949 . S
H289 C308 0.950 . S
H290 C310 0.950 . S
H291 C311 0.950 . S
H292 C313 0.950 . S
H293 C316 0.950 . S
H294 C317 0.950 . S
H295 C319 0.951 . S
H296 C320 0.949 1_545 S
H297 C322 0.949 . S
H298 C323 0.950 . S
H299 C325 0.950 . S
H300 C326 0.950 . S
H301 C328 0.950 . S
H302 C331 0.950 . S
H303 C332 0.950 . S
H304 C334 0.951 . S
H305 C335 0.949 1_565 S
C306 C307 1.376 . S
C306 C311 1.386 . S
C306 C312 1.483 . S
C307 H288 0.949 . S
C307 C306 1.376 . S
C307 C308 1.397 . S
C308 H289 0.950 . S
C308 C307 1.397 . S
C308 C309 1.391 . S
C309 C308 1.391 . S
C309 C310 1.405 . S
C310 H290 0.950 . S
C310 C309 1.405 . S
C310 C311 1.367 . S
C311 H291 0.950 . S
C311 C306 1.386 . S
C311 C310 1.367 . S
C312 C306 1.483 . S
C312 C313 1.382 . S
C312 C314 1.403 . S
C313 H292 0.950 . S
C313 C312 1.382 . S
C313 C329 1.411 1_565 S
C314 C312 1.403 . S
C314 C315 1.489 . S
C314 C328 1.411 1_565 S
C315 C314 1.489 . S
C315 C316 1.383 . S
C315 C320 1.382 . S
C316 H293 0.950 . S
C316 C315 1.383 . S
C316 C317 1.395 . S
C317 H294 0.950 . S
C317 C316 1.395 . S
C317 C318 1.288 . S
C318 C317 1.288 . S
C318 C319 1.392 . S
C319 H295 0.951 . S
C319 C318 1.392 . S
C319 C320 1.392 . S
C320 H296 0.949 1_565 S
C320 C315 1.382 . S
C320 C319 1.392 . S
C321 C322 1.376 . S
C321 C326 1.386 . S
C321 C327 1.483 . S
C322 H297 0.949 . S
C322 C321 1.376 . S
C322 C323 1.397 . S
C323 H298 0.950 . S
C323 C322 1.397 . S
C323 C324 1.391 . S
C324 C323 1.391 . S
C324 C325 1.405 . S
C325 H299 0.950 . S
C325 C324 1.405 . S
C325 C326 1.367 . S
C326 H300 0.950 . S
C326 C321 1.386 . S
C326 C325 1.367 . S
C327 C321 1.483 . S
C327 C328 1.382 . S
C327 C329 1.403 . S
C328 H301 0.950 . S
C328 C314 1.411 1_545 S
C328 C327 1.382 . S
C329 C313 1.411 1_545 S
C329 C327 1.403 . S
C329 C330 1.489 . S
C330 C329 1.489 . S
C330 C331 1.383 . S
C330 C335 1.382 . S
C331 H302 0.950 . S
C331 C330 1.383 . S
C331 C332 1.395 . S
C332 H303 0.950 . S
C332 C331 1.395 . S
C332 C333 1.288 . S
C333 C332 1.288 . S
C333 C334 1.392 . S
C334 H304 0.951 . S
C334 C333 1.392 . S
C334 C335 1.392 . S
C335 H305 0.949 1_545 S
C335 C330 1.382 . S
C335 C334 1.392 . S
H336 C355 0.949 1_455 S
H337 C356 0.950 . S
H338 C358 0.950 . S
H339 C359 0.950 . S
H340 C361 0.950 . S
H341 C364 0.950 . S
H342 C365 0.950 . S
H343 C367 0.951 . S
H344 C368 0.949 . S
H345 C370 0.938 1_655 S
H346 C371 0.950 . S
H347 C373 0.950 . S
H348 C374 0.950 . S
H349 C376 0.947 1_565 S
H350 C379 0.950 . S
H351 C380 0.950 . S
H352 C382 0.951 . S
H353 C383 0.949 . S
C354 C355 1.376 . S
C354 C359 1.386 . S
C354 C360 1.483 . S
C355 H336 0.949 1_655 S
C355 C354 1.376 . S
C355 C356 1.397 . S
C356 H337 0.950 . S
C356 C355 1.397 . S
C356 C357 1.391 . S
C357 C356 1.391 . S
C357 C358 1.405 . S
C358 H338 0.950 . S
C358 C357 1.405 . S
C358 C359 1.367 . S
C359 H339 0.950 . S
C359 C354 1.386 . S
C359 C358 1.367 . S
C360 C354 1.483 . S
C360 C361 1.382 1_655 S
C360 C362 1.403 . S
C361 H340 0.950 . S
C361 C360 1.382 1_455 S
C361 C377 1.411 1_545 S
C362 C360 1.403 . S
C362 C363 1.489 . S
C362 C376 1.434 . S
C363 C362 1.489 . S
C363 C364 1.383 . S
C363 C368 1.382 . S
C364 H341 0.950 . S
C364 C363 1.383 . S
C364 C365 1.395 . S
C365 H342 0.950 . S
C365 C364 1.395 . S
C365 C366 1.288 . S
C366 C365 1.288 . S
C366 C367 1.392 . S
C367 H343 0.951 . S
C367 C366 1.392 . S
C367 C368 1.392 . S
C368 H344 0.949 . S
C368 C363 1.382 . S
C368 C367 1.392 . S
C369 C370 1.376 . S
C369 C374 1.386 . S
C369 C375 1.483 . S
C370 H345 0.938 1_455 S
C370 C369 1.376 . S
C370 C371 1.397 . S
C371 H346 0.950 . S
C371 C370 1.397 . S
C371 C372 1.391 . S
C372 C371 1.391 . S
C372 C373 1.405 . S
C373 H347 0.950 . S
C373 C372 1.405 . S
C373 C374 1.367 . S
C374 H348 0.950 . S
C374 C369 1.386 . S
C374 C373 1.367 . S
C375 C369 1.483 . S
C375 C376 1.363 1_465 S
C375 C377 1.403 . S
C376 H349 0.947 1_545 S
C376 C362 1.434 . S
C376 C375 1.363 1_645 S
C377 C361 1.411 1_565 S
C377 C375 1.403 . S
C377 C378 1.489 . S
C378 C377 1.489 . S
C378 C379 1.383 . S
C378 C383 1.382 . S
C379 H350 0.950 . S
C379 C378 1.383 . S
C379 C380 1.395 . S
C380 H351 0.950 . S
C380 C379 1.395 . S
C380 C381 1.288 . S
C381 C380 1.288 . S
C381 C382 1.392 . S
C382 H352 0.951 . S
C382 C381 1.392 . S
C382 C383 1.392 . S
C383 H353 0.949 . S
C383 C378 1.382 . S
C383 C382 1.392 . S
Mn384 O389 2.095 1_554 S
Mn384 O399 2.162 . S
Mn384 O400 2.297 . S
Mn384 O408 2.385 . S
Mn384 O409 2.209 . S
Mn384 O410 2.094 1_554 S
Mn385 O390 2.121 . S
Mn385 N392 2.257 1_556 S
Mn385 N401 2.282 1_556 S
Mn385 O409 2.215 1_556 S
Mn385 O411 2.117 . S
C386 O408 1.234 . S
C386 O409 1.283 . S
C387 O399 1.281 . S
C387 O400 1.236 . S
C388 O410 1.240 . S
C388 O411 1.264 . S
O389 Mn384 2.095 1_556 S
O389 C398 1.250 . S
O390 Mn385 2.121 . S
O390 C398 1.258 . S
C391 N392 1.326 1_556 S
C391 C395 1.460 1_556 S
C391 H397 0.929 . S
N392 Mn385 2.257 1_554 S
N392 C391 1.326 1_554 S
N392 C396 1.362 . S
C393 C394 1.258 . S
C393 C396 1.431 . S
C393 C413 1.449 . S
C394 C393 1.258 . S
C394 C395 1.477 . S
C394 H414 0.931 . S
C395 C391 1.460 1_554 S
C395 C394 1.477 . S
C395 H415 0.930 1_554 S
C396 N392 1.362 . S
C396 C393 1.431 . S
C396 C406 1.476 . S
H397 C391 0.929 . S
C398 O389 1.250 . S
C398 O390 1.258 . S
O399 Mn384 2.162 . S
O399 C387 1.281 . S
O400 Mn384 2.297 . S
O400 C387 1.236 . S
N401 Mn385 2.282 1_554 S
N401 C402 1.328 . S
N401 C406 1.318 . S
C402 N401 1.328 . S
C402 C403 1.457 . S
C402 H407 0.929 . S
C403 C402 1.457 . S
C403 C404 1.291 . S
C403 H416 0.931 . S
C404 C403 1.291 . S
C404 C405 1.373 . S
C404 H417 0.929 . S
C405 C404 1.373 . S
C405 C406 1.396 . S
C405 C412 1.403 . S
C406 C396 1.476 . S
C406 N401 1.318 . S
C406 C405 1.396 . S
H407 C402 0.929 . S
O408 Mn384 2.385 . S
O408 C386 1.234 . S
O409 Mn384 2.209 . S
O409 Mn385 2.215 1_554 S
O409 C386 1.283 . S
O410 Mn384 2.094 1_556 S
O410 C388 1.240 . S
O411 Mn385 2.117 . S
O411 C388 1.264 . S
C412 C405 1.403 . S
C412 C413 1.399 . S
C412 H418 0.929 . S
C413 C393 1.449 . S
C413 C412 1.399 . S
C413 H419 0.930 . S
H414 C394 0.931 . S
H415 C395 0.930 1_556 S
H416 C403 0.931 . S
H417 C404 0.929 . S
H418 C412 0.929 . S
H419 C413 0.930 . S
Mn420 O425 2.095 . S
Mn420 O435 2.162 . S
Mn420 O436 2.297 . S
Mn420 O444 2.385 . S
Mn420 O445 2.209 . S
Mn420 O446 2.094 . S
Mn421 O426 2.121 . S
Mn421 N428 2.257 . S
Mn421 N437 2.282 . S
Mn421 O445 2.215 . S
Mn421 O447 2.117 . S
C422 O444 1.234 . S
C422 O445 1.283 . S
C423 O435 1.281 . S
C423 O436 1.236 . S
C424 O446 1.240 . S
C424 O447 1.264 . S
O425 Mn420 2.095 . S
O425 C434 1.250 . S
O426 Mn421 2.121 . S
O426 C434 1.258 . S
C427 N428 1.326 . S
C427 C431 1.460 . S
C427 H433 0.929 . S
N428 Mn421 2.257 . S
N428 C427 1.326 . S
N428 C432 1.362 . S
C429 C430 1.258 . S
C429 C432 1.431 . S
C429 C449 1.449 . S
C430 C429 1.258 . S
C430 C431 1.477 . S
C430 H450 0.931 . S
C431 C427 1.460 . S
C431 C430 1.477 . S
C431 H451 0.930 . S
C432 N428 1.362 . S
C432 C429 1.431 . S
C432 C442 1.476 . S
H433 C427 0.929 . S
C434 O425 1.250 . S
C434 O426 1.258 . S
O435 Mn420 2.162 . S
O435 C423 1.281 . S
O436 Mn420 2.297 . S
O436 C423 1.236 . S
N437 Mn421 2.282 . S
N437 C438 1.328 . S
N437 C442 1.318 . S
C438 N437 1.328 . S
C438 C439 1.457 . S
C438 H443 0.929 . S
C439 C438 1.457 . S
C439 C440 1.291 . S
C439 H452 0.931 . S
C440 C439 1.291 . S
C440 C441 1.373 . S
C440 H453 0.929 . S
C441 C440 1.373 . S
C441 C442 1.396 . S
C441 C448 1.403 . S
C442 C432 1.476 . S
C442 N437 1.318 . S
C442 C441 1.396 . S
H443 C438 0.929 . S
O444 Mn420 2.385 . S
O444 C422 1.234 . S
O445 Mn420 2.209 . S
O445 Mn421 2.215 . S
O445 C422 1.283 . S
O446 Mn420 2.094 . S
O446 C424 1.240 . S
O447 Mn421 2.117 . S
O447 C424 1.264 . S
C448 C441 1.403 . S
C448 C449 1.399 . S
C448 H454 0.929 . S
C449 C429 1.449 . S
C449 C448 1.399 . S
C449 H455 0.930 . S
H450 C430 0.931 . S
H451 C431 0.930 . S
H452 C439 0.931 . S
H453 C440 0.929 . S
H454 C448 0.929 . S
H455 C449 0.930 . S
Mn456 O461 2.095 . S
Mn456 O471 2.162 . S
Mn456 O472 2.297 . S
Mn456 O480 2.385 . S
Mn456 O481 2.209 . S
Mn456 O482 2.094 . S
Mn457 O462 2.121 . S
Mn457 N464 2.257 . S
Mn457 N473 2.282 . S
Mn457 O481 2.215 . S
Mn457 O483 2.117 . S
C458 O480 1.234 . S
C458 O481 1.283 . S
C459 O471 1.281 . S
C459 O472 1.236 . S
C460 O482 1.240 . S
C460 O483 1.264 . S
O461 Mn456 2.095 . S
O461 C470 1.250 . S
O462 Mn457 2.121 . S
O462 C470 1.258 . S
C463 N464 1.326 . S
C463 C467 1.460 . S
C463 H469 0.929 . S
N464 Mn457 2.257 . S
N464 C463 1.326 . S
N464 C468 1.362 . S
C465 C466 1.258 . S
C465 C468 1.431 . S
C465 C485 1.465 . S
C466 C465 1.258 . S
C466 C467 1.477 . S
C466 H486 0.931 1_455 S
C467 C463 1.460 . S
C467 C466 1.477 . S
C467 H487 0.930 . S
C468 N464 1.362 . S
C468 C465 1.431 . S
C468 C478 1.476 . S
H469 C463 0.929 . S
C470 O461 1.250 . S
C470 O462 1.258 . S
O471 Mn456 2.162 . S
O471 C459 1.281 . S
O472 Mn456 2.297 . S
O472 C459 1.236 . S
N473 Mn457 2.282 . S
N473 C474 1.328 . S
N473 C478 1.318 . S
C474 N473 1.328 . S
C474 C475 1.457 . S
C474 H479 0.929 . S
C475 C474 1.457 . S
C475 C476 1.291 . S
C475 H488 0.931 . S
C476 C475 1.291 . S
C476 C477 1.373 . S
C476 H489 0.929 . S
C477 C476 1.373 . S
C477 C478 1.396 . S
C477 C484 1.403 . S
C478 C468 1.476 . S
C478 N473 1.318 . S
C478 C477 1.396 . S
H479 C474 0.929 . S
O480 Mn456 2.385 . S
O480 C458 1.234 . S
O481 Mn456 2.209 . S
O481 Mn457 2.215 . S
O481 C458 1.283 . S
O482 Mn456 2.094 . S
O482 C460 1.240 . S
O483 Mn457 2.117 . S
O483 C460 1.264 . S
C484 C477 1.403 . S
C484 C485 1.405 . S
C484 H490 0.929 1_455 S
C485 C465 1.465 . S
C485 C484 1.405 . S
C485 H491 0.909 1_455 S
H486 C466 0.931 1_655 S
H487 C467 0.930 . S
H488 C475 0.931 . S
H489 C476 0.929 . S
H490 C484 0.929 1_655 S
H491 C485 0.909 1_655 S
Mn492 O497 2.095 . S
Mn492 O507 2.162 . S
Mn492 O508 2.297 . S
Mn492 O516 2.385 . S
Mn492 O517 2.209 . S
Mn492 O518 2.094 . S
Mn493 O498 2.121 . S
Mn493 N500 2.257 . S
Mn493 N509 2.282 . S
Mn493 O517 2.215 . S
Mn493 O519 2.117 . S
C494 O516 1.234 . S
C494 O517 1.283 . S
C495 O507 1.281 . S
C495 O508 1.236 . S
C496 O518 1.240 . S
C496 O519 1.264 . S
O497 Mn492 2.095 . S
O497 C506 1.250 . S
O498 Mn493 2.121 . S
O498 C506 1.258 . S
C499 N500 1.326 . S
C499 C503 1.460 . S
C499 H505 0.929 . S
N500 Mn493 2.257 . S
N500 C499 1.326 . S
N500 C504 1.362 . S
C501 C502 1.258 . S
C501 C504 1.431 . S
C501 C521 1.449 . S
C502 C501 1.258 . S
C502 C503 1.477 . S
C502 H522 0.931 . S
C503 C499 1.460 . S
C503 C502 1.477 . S
C503 H523 0.930 . S
C504 N500 1.362 . S
C504 C501 1.431 . S
C504 C514 1.476 . S
H505 C499 0.929 . S
C506 O497 1.250 . S
C506 O498 1.258 . S
O507 Mn492 2.162 . S
O507 C495 1.281 . S
O508 Mn492 2.297 . S
O508 C495 1.236 . S
N509 Mn493 2.282 . S
N509 C510 1.328 . S
N509 C514 1.318 . S
C510 N509 1.328 . S
C510 C511 1.457 . S
C510 H515 0.929 . S
C511 C510 1.457 . S
C511 C512 1.291 . S
C511 H524 0.931 . S
C512 C511 1.291 . S
C512 C513 1.373 . S
C512 H525 0.929 . S
C513 C512 1.373 . S
C513 C514 1.396 . S
C513 C520 1.403 . S
C514 C504 1.476 . S
C514 N509 1.318 . S
C514 C513 1.396 . S
H515 C510 0.929 . S
O516 Mn492 2.385 . S
O516 C494 1.234 . S
O517 Mn492 2.209 . S
O517 Mn493 2.215 . S
O517 C494 1.283 . S
O518 Mn492 2.094 . S
O518 C496 1.240 . S
O519 Mn493 2.117 . S
O519 C496 1.264 . S
C520 C513 1.403 . S
C520 C521 1.399 . S
C520 H526 0.929 . S
C521 C501 1.449 . S
C521 C520 1.399 . S
C521 H527 0.930 . S
H522 C502 0.931 . S
H523 C503 0.930 . S
H524 C511 0.931 . S
H525 C512 0.929 . S
H526 C520 0.929 . S
H527 C521 0.930 . S
Mn528 O533 2.095 . S
Mn528 O543 2.162 . S
Mn528 O544 2.297 . S
Mn528 O552 2.385 . S
Mn528 O553 2.209 . S
Mn528 O554 2.094 . S
Mn529 O534 2.121 . S
Mn529 N536 2.257 . S
Mn529 N545 2.282 . S
Mn529 O553 2.215 . S
Mn529 O555 2.117 . S
C530 O552 1.234 . S
C530 O553 1.283 . S
C531 O543 1.281 . S
C531 O544 1.236 . S
C532 O554 1.240 . S
C532 O555 1.264 . S
O533 Mn528 2.095 . S
O533 C542 1.250 . S
O534 Mn529 2.121 . S
O534 C542 1.258 . S
C535 N536 1.326 . S
C535 C539 1.460 . S
C535 H541 0.929 . S
N536 Mn529 2.257 . S
N536 C535 1.326 . S
N536 C540 1.362 . S
C537 C538 1.258 . S
C537 C540 1.431 . S
C537 C557 1.449 . S
C538 C537 1.258 . S
C538 C539 1.477 . S
C538 H558 0.917 1_545 S
C539 C535 1.460 . S
C539 C538 1.477 . S
C539 H559 0.930 . S
C540 N536 1.362 . S
C540 C537 1.431 . S
C540 C550 1.476 . S
H541 C535 0.929 . S
C542 O533 1.250 . S
C542 O534 1.258 . S
O543 Mn528 2.162 . S
O543 C531 1.281 . S
O544 Mn528 2.297 . S
O544 C531 1.236 . S
N545 Mn529 2.282 . S
N545 C546 1.328 . S
N545 C550 1.318 . S
C546 N545 1.328 . S
C546 C547 1.457 . S
C546 H551 0.929 . S
C547 C546 1.457 . S
C547 C548 1.291 . S
C547 H560 0.931 . S
C548 C547 1.291 . S
C548 C549 1.373 . S
C548 H561 0.929 . S
C549 C548 1.373 . S
C549 C550 1.396 . S
C549 C556 1.403 . S
C550 C540 1.476 . S
C550 N545 1.318 . S
C550 C549 1.396 . S
H551 C546 0.929 . S
O552 Mn528 2.385 . S
O552 C530 1.234 . S
O553 Mn528 2.209 . S
O553 Mn529 2.215 . S
O553 C530 1.283 . S
O554 Mn528 2.094 . S
O554 C532 1.240 . S
O555 Mn529 2.117 . S
O555 C532 1.264 . S
C556 C549 1.403 . S
C556 C557 1.399 . S
C556 H562 0.929 1_545 S
C557 C537 1.449 . S
C557 C556 1.399 . S
C557 H563 0.930 1_545 S
H558 C538 0.917 1_565 S
H559 C539 0.930 . S
H560 C547 0.931 . S
H561 C548 0.929 . S
H562 C556 0.929 1_565 S
H563 C557 0.930 1_565 S
Mn564 O569 2.095 . S
Mn564 O579 2.162 . S
Mn564 O580 2.297 . S
Mn564 O588 2.385 . S
Mn564 O589 2.209 . S
Mn564 O590 2.094 . S
Mn565 O570 2.121 . S
Mn565 N572 2.257 . S
Mn565 N581 2.282 . S
Mn565 O589 2.215 . S
Mn565 O591 2.117 . S
C566 O588 1.234 . S
C566 O589 1.283 . S
C567 O579 1.281 . S
C567 O580 1.236 . S
C568 O590 1.240 . S
C568 O591 1.264 . S
O569 Mn564 2.095 . S
O569 C578 1.250 . S
O570 Mn565 2.121 . S
O570 C578 1.258 . S
C571 N572 1.326 . S
C571 C575 1.460 . S
C571 H577 0.929 . S
N572 Mn565 2.257 . S
N572 C571 1.326 . S
N572 C576 1.362 . S
C573 C574 1.258 . S
C573 C576 1.431 . S
C573 C593 1.449 1_655 S
C574 C573 1.258 . S
C574 C575 1.477 . S
C574 H594 0.931 1_655 S
C575 C571 1.460 . S
C575 C574 1.477 . S
C575 H595 0.930 . S
C576 N572 1.362 . S
C576 C573 1.431 . S
C576 C586 1.476 . S
H577 C571 0.929 . S
C578 O569 1.250 . S
C578 O570 1.258 . S
O579 Mn564 2.162 . S
O579 C567 1.281 . S
O580 Mn564 2.297 . S
O580 C567 1.236 . S
N581 Mn565 2.282 . S
N581 C582 1.328 . S
N581 C586 1.318 . S
C582 N581 1.328 . S
C582 C583 1.457 . S
C582 H587 0.929 . S
C583 C582 1.457 . S
C583 C584 1.291 . S
C583 H596 0.931 . S
C584 C583 1.291 . S
C584 C585 1.373 . S
C584 H597 0.929 . S
C585 C584 1.373 . S
C585 C586 1.396 . S
C585 C592 1.403 . S
C586 C576 1.476 . S
C586 N581 1.318 . S
C586 C585 1.396 . S
H587 C582 0.929 . S
O588 Mn564 2.385 . S
O588 C566 1.234 . S
O589 Mn564 2.209 . S
O589 Mn565 2.215 . S
O589 C566 1.283 . S
O590 Mn564 2.094 . S
O590 C568 1.240 . S
O591 Mn565 2.117 . S
O591 C568 1.264 . S
C592 C585 1.403 . S
C592 C593 1.399 1_655 S
C592 H598 0.929 1_655 S
C593 C573 1.449 1_455 S
C593 C592 1.399 1_455 S
C593 H599 0.930 . S
H594 C574 0.931 1_455 S
H595 C575 0.930 . S
H596 C583 0.931 . S
H597 C584 0.929 . S
H598 C592 0.929 1_455 S
H599 C593 0.930 . S
Mn600 O605 2.095 . S
Mn600 O615 2.161 1_554 S
Mn600 O616 2.297 1_554 S
Mn600 O624 2.385 1_554 S
Mn600 O625 2.209 1_554 S
Mn600 O626 2.094 . S
Mn601 O606 2.121 . S
Mn601 N608 2.257 1_554 S
Mn601 N617 2.282 1_554 S
Mn601 O625 2.215 1_554 S
Mn601 O627 2.117 . S
C602 O624 1.234 . S
C602 O625 1.283 . S
C603 O615 1.281 . S
C603 O616 1.236 . S
C604 O626 1.240 . S
C604 O627 1.264 . S
O605 Mn600 2.095 . S
O605 C614 1.250 . S
O606 Mn601 2.121 . S
O606 C614 1.258 . S
C607 N608 1.326 1_554 S
C607 C611 1.466 . S
C607 H613 0.929 . S
N608 Mn601 2.257 1_556 S
N608 C607 1.326 1_556 S
N608 C612 1.362 . S
C609 C610 1.258 . S
C609 C612 1.431 . S
C609 C629 1.449 . S
C610 C609 1.258 . S
C610 C611 1.461 1_556 S
C610 H630 0.931 . S
C611 C607 1.466 . S
C611 C610 1.461 1_554 S
C611 H631 0.940 . S
C612 N608 1.362 . S
C612 C609 1.431 . S
C612 C622 1.476 . S
H613 C607 0.929 . S
C614 O605 1.250 . S
C614 O606 1.258 . S
O615 Mn600 2.161 1_556 S
O615 C603 1.281 . S
O616 Mn600 2.297 1_556 S
O616 C603 1.236 . S
N617 Mn601 2.282 1_556 S
N617 C618 1.328 . S
N617 C622 1.318 . S
C618 N617 1.328 . S
C618 C619 1.457 . S
C618 H623 0.929 . S
C619 C618 1.457 . S
C619 C620 1.291 . S
C619 H632 0.931 . S
C620 C619 1.291 . S
C620 C621 1.373 . S
C620 H633 0.929 . S
C621 C620 1.373 . S
C621 C622 1.396 . S
C621 C628 1.403 . S
C622 C612 1.476 . S
C622 N617 1.318 . S
C622 C621 1.396 . S
H623 C618 0.929 . S
O624 Mn600 2.385 1_556 S
O624 C602 1.234 . S
O625 Mn600 2.209 1_556 S
O625 Mn601 2.215 1_556 S
O625 C602 1.283 . S
O626 Mn600 2.094 . S
O626 C604 1.240 . S
O627 Mn601 2.117 . S
O627 C604 1.264 . S
C628 C621 1.403 . S
C628 C629 1.399 . S
C628 H634 0.929 . S
C629 C609 1.449 . S
C629 C628 1.399 . S
C629 H635 0.930 . S
H630 C610 0.931 . S
H631 C611 0.940 . S
H632 C619 0.931 . S
H633 C620 0.929 . S
H634 C628 0.929 . S
H635 C629 0.930 . S
Mn636 O641 2.095 . S
Mn636 O651 2.162 . S
Mn636 O652 2.297 . S
Mn636 O660 2.385 . S
Mn636 O661 2.209 . S
Mn636 O662 2.094 . S
Mn637 O642 2.121 . S
Mn637 N644 2.257 . S
Mn637 N653 2.282 . S
Mn637 O661 2.215 . S
Mn637 O663 2.117 . S
C638 O660 1.234 . S
C638 O661 1.283 . S
C639 O651 1.281 . S
C639 O652 1.236 . S
C640 O662 1.240 . S
C640 O663 1.264 . S
O641 Mn636 2.095 . S
O641 C650 1.250 . S
O642 Mn637 2.121 . S
O642 C650 1.258 . S
C643 N644 1.326 . S
C643 C647 1.460 . S
C643 H649 0.929 . S
N644 Mn637 2.257 . S
N644 C643 1.326 . S
N644 C648 1.362 . S
C645 C646 1.258 . S
C645 C648 1.431 . S
C645 C665 1.449 . S
C646 C645 1.258 . S
C646 C647 1.477 . S
C646 H666 0.931 1_545 S
C647 C643 1.460 . S
C647 C646 1.477 . S
C647 H667 0.930 . S
C648 N644 1.362 . S
C648 C645 1.431 . S
C648 C658 1.476 . S
H649 C643 0.929 . S
C650 O641 1.250 . S
C650 O642 1.258 . S
O651 Mn636 2.162 . S
O651 C639 1.281 . S
O652 Mn636 2.297 . S
O652 C639 1.236 . S
N653 Mn637 2.282 . S
N653 C654 1.328 . S
N653 C658 1.318 . S
C654 N653 1.328 . S
C654 C655 1.457 . S
C654 H659 0.929 . S
C655 C654 1.457 . S
C655 C656 1.291 . S
C655 H668 0.931 . S
C656 C655 1.291 . S
C656 C657 1.373 . S
C656 H669 0.929 . S
C657 C656 1.373 . S
C657 C658 1.396 . S
C657 C664 1.403 . S
C658 C648 1.476 . S
C658 N653 1.318 . S
C658 C657 1.396 . S
H659 C654 0.929 . S
O660 Mn636 2.385 . S
O660 C638 1.234 . S
O661 Mn636 2.209 . S
O661 Mn637 2.215 . S
O661 C638 1.283 . S
O662 Mn636 2.094 . S
O662 C640 1.240 . S
O663 Mn637 2.117 . S
O663 C640 1.264 . S
C664 C657 1.403 . S
C664 C665 1.399 . S
C664 H670 0.929 1_545 S
C665 C645 1.449 . S
C665 C664 1.399 . S
C665 H671 0.930 1_545 S
H666 C646 0.931 1_565 S
H667 C647 0.930 . S
H668 C655 0.931 . S
H669 C656 0.929 . S
H670 C664 0.929 1_565 S
H671 C665 0.930 1_565 S
C672 C673 1.363 . S
C672 C678 1.379 . S
C672 N680 1.356 . S
C673 C672 1.363 . S
C673 C679 1.363 . S
C674 C675 1.363 . S
C674 C679 1.379 . S
C674 N681 1.356 . S
C675 C674 1.363 . S
C675 C678 1.363 . S
N676 C678 1.356 . S
N676 H688 0.984 . S
N676 H689 0.985 . S
N677 C679 1.356 . S
N677 H682 0.984 . S
N677 H683 0.985 . S
C678 C672 1.379 . S
C678 C675 1.363 . S
C678 N676 1.356 . S
C679 C673 1.363 . S
C679 C674 1.379 . S
C679 N677 1.356 . S
N680 C672 1.356 . S
N680 H686 0.984 . S
N680 H687 0.984 . S
N681 C674 1.356 . S
N681 H684 0.984 . S
N681 H685 0.985 . S
H682 N677 0.984 . S
H683 N677 0.985 . S
H684 N681 0.984 . S
H685 N681 0.985 . S
H686 N680 0.984 . S
H687 N680 0.984 . S
H688 N676 0.984 . S
H689 N676 0.985 . S
C690 C691 1.363 . S
C690 C696 1.379 . S
C690 N698 1.356 . S
C691 C690 1.363 . S
C691 C697 1.363 . S
C692 C693 1.363 . S
C692 C697 1.379 . S
C692 N699 1.356 . S
C693 C692 1.363 . S
C693 C696 1.363 . S
N694 C696 1.356 . S
N694 H706 0.984 . S
N694 H707 0.985 . S
N695 C697 1.356 . S
N695 H700 0.984 . S
N695 H701 0.985 . S
C696 C690 1.379 . S
C696 C693 1.363 . S
C696 N694 1.356 . S
C697 C691 1.363 . S
C697 C692 1.379 . S
C697 N695 1.356 . S
N698 C690 1.356 . S
N698 H704 0.984 . S
N698 H705 0.984 . S
N699 C692 1.356 . S
N699 H702 0.984 . S
N699 H703 0.985 . S
H700 N695 0.984 . S
H701 N695 0.985 . S
H702 N699 0.984 . S
H703 N699 0.985 . S
H704 N698 0.984 . S
H705 N698 0.984 . S
H706 N694 0.984 . S
H707 N694 0.985 . S
C708 C709 1.363 . S
C708 C714 1.379 . S
C708 N716 1.356 . S
C709 C708 1.363 . S
C709 C715 1.363 . S
C710 C711 1.363 . S
C710 C715 1.379 . S
C710 N717 1.356 . S
C711 C710 1.363 . S
C711 C714 1.363 . S
N712 C714 1.356 . S
N712 H724 0.984 . S
N712 H725 0.985 . S
N713 C715 1.356 . S
N713 H718 0.984 . S
N713 H719 0.985 . S
C714 C708 1.379 . S
C714 C711 1.363 . S
C714 N712 1.356 . S
C715 C709 1.363 . S
C715 C710 1.379 . S
C715 N713 1.356 . S
N716 C708 1.356 . S
N716 H722 0.984 . S
N716 H723 0.984 . S
N717 C710 1.356 . S
N717 H720 0.984 . S
N717 H721 0.985 . S
H718 N713 0.984 . S
H719 N713 0.985 . S
H720 N717 0.984 . S
H721 N717 0.985 . S
H722 N716 0.984 . S
H723 N716 0.984 . S
H724 N712 0.984 . S
H725 N712 0.985 . S
C726 C727 1.363 1_556 S
C726 C732 1.379 . S
C726 N734 1.356 . S
C727 C726 1.363 1_554 S
C727 C733 1.363 . S
C728 C729 1.363 . S
C728 C733 1.379 . S
C728 N735 1.356 . S
C729 C728 1.363 . S
C729 C732 1.363 1_554 S
N730 C732 1.356 . S
N730 H742 0.984 . S
N730 H743 0.985 . S
N731 C733 1.356 . S
N731 H736 0.984 . S
N731 H737 0.985 . S
C732 C726 1.379 . S
C732 C729 1.363 1_556 S
C732 N730 1.356 . S
C733 C727 1.363 . S
C733 C728 1.379 . S
C733 N731 1.356 . S
N734 C726 1.356 . S
N734 H740 0.984 . S
N734 H741 0.984 . S
N735 C728 1.356 . S
N735 H738 0.984 . S
N735 H739 0.985 . S
H736 N731 0.984 . S
H737 N731 0.985 . S
H738 N735 0.984 . S
H739 N735 0.985 . S
H740 N734 0.984 . S
H741 N734 0.984 . S
H742 N730 0.984 . S
H743 N730 0.985 . S
C744 C745 1.363 1_554 S
C744 C750 1.379 . S
C744 N752 1.356 . S
C745 C744 1.363 1_556 S
C745 C751 1.363 . S
C746 C747 1.363 . S
C746 C751 1.379 . S
C746 N753 1.356 . S
C747 C746 1.363 . S
C747 C750 1.363 1_556 S
N748 C750 1.356 . S
N748 H760 0.984 . S
N748 H761 0.985 . S
N749 C751 1.356 . S
N749 H754 0.984 . S
N749 H755 0.985 . S
C750 C744 1.379 . S
C750 C747 1.363 1_554 S
C750 N748 1.356 . S
C751 C745 1.363 . S
C751 C746 1.379 . S
C751 N749 1.356 . S
N752 C744 1.356 . S
N752 H758 0.984 . S
N752 H759 0.984 . S
N753 C746 1.356 . S
N753 H756 0.984 . S
N753 H757 0.985 . S
H754 N749 0.984 . S
H755 N749 0.985 . S
H756 N753 0.984 . S
H757 N753 0.985 . S
H758 N752 0.984 . S
H759 N752 0.984 . S
H760 N748 0.984 . S
H761 N748 0.985 . S
C762 C763 1.363 . S
C762 C768 1.379 . S
C762 N770 1.356 . S
C763 C762 1.363 . S
C763 C769 1.363 . S
C764 C765 1.363 . S
C764 C769 1.379 . S
C764 N771 1.356 . S
C765 C764 1.363 . S
C765 C768 1.363 . S
N766 C768 1.356 . S
N766 H778 0.984 . S
N766 H779 0.985 . S
N767 C769 1.356 . S
N767 H772 0.984 . S
N767 H773 0.985 . S
C768 C762 1.379 . S
C768 C765 1.363 . S
C768 N766 1.356 . S
C769 C763 1.363 . S
C769 C764 1.379 . S
C769 N767 1.356 . S
N770 C762 1.356 . S
N770 H776 0.984 . S
N770 H777 0.984 . S
N771 C764 1.356 . S
N771 H774 0.984 . S
N771 H775 0.985 . S
H772 N767 0.984 . S
H773 N767 0.985 . S
H774 N771 0.984 . S
H775 N771 0.985 . S
H776 N770 0.984 . S
H777 N770 0.984 . S
H778 N766 0.984 . S
H779 N766 0.985 . S
C780 C781 1.363 . S
C780 C786 1.379 . S
C780 N788 1.356 . S
C781 C780 1.363 . S
C781 C787 1.363 . S
C782 C783 1.363 . S
C782 C787 1.379 . S
C782 N789 1.356 . S
C783 C782 1.363 . S
C783 C786 1.363 . S
N784 C786 1.356 . S
N784 H796 0.984 . S
N784 H797 0.985 . S
N785 C787 1.356 . S
N785 H790 0.984 . S
N785 H791 0.985 . S
C786 C780 1.379 . S
C786 C783 1.363 . S
C786 N784 1.356 . S
C787 C781 1.363 . S
C787 C782 1.379 . S
C787 N785 1.356 . S
N788 C780 1.356 . S
N788 H794 0.984 . S
N788 H795 0.984 . S
N789 C782 1.356 . S
N789 H792 0.984 . S
N789 H793 0.985 . S
H790 N785 0.984 . S
H791 N785 0.985 . S
H792 N789 0.984 . S
H793 N789 0.985 . S
H794 N788 0.984 . S
H795 N788 0.984 . S
H796 N784 0.984 . S
H797 N784 0.985 . S
C798 C799 1.363 . S
C798 C804 1.379 . S
C798 N806 1.356 . S
C799 C798 1.363 . S
C799 C805 1.363 . S
C800 C801 1.363 . S
C800 C805 1.379 . S
C800 N807 1.356 . S
C801 C800 1.363 . S
C801 C804 1.363 . S
N802 C804 1.356 . S
N802 H814 0.984 . S
N802 H815 0.985 . S
N803 C805 1.356 . S
N803 H808 0.984 . S
N803 H809 0.985 . S
C804 C798 1.379 . S
C804 C801 1.363 . S
C804 N802 1.356 . S
C805 C799 1.363 . S
C805 C800 1.379 . S
C805 N803 1.356 . S
N806 C798 1.356 . S
N806 H812 0.984 . S
N806 H813 0.984 . S
N807 C800 1.356 . S
N807 H810 0.984 . S
N807 H811 0.985 . S
H808 N803 0.984 . S
H809 N803 0.985 . S
H810 N807 0.984 . S
H811 N807 0.985 . S
H812 N806 0.984 . S
H813 N806 0.984 . S
H814 N802 0.984 . S
H815 N802 0.985 . S
C816 C817 1.363 . S
C816 C822 1.379 . S
C816 N824 1.356 . S
C817 C816 1.363 . S
C817 C823 1.363 . S
C818 C819 1.363 . S
C818 C823 1.379 . S
C818 N825 1.356 . S
C819 C818 1.363 . S
C819 C822 1.363 . S
N820 C822 1.356 . S
N820 H832 0.984 . S
N820 H833 0.985 . S
N821 C823 1.356 . S
N821 H826 0.984 . S
N821 H827 0.985 . S
C822 C816 1.379 . S
C822 C819 1.363 . S
C822 N820 1.356 . S
C823 C817 1.363 . S
C823 C818 1.379 . S
C823 N821 1.356 . S
N824 C816 1.356 . S
N824 H830 0.984 . S
N824 H831 0.984 . S
N825 C818 1.356 . S
N825 H828 0.984 . S
N825 H829 0.985 . S
H826 N821 0.984 . S
H827 N821 0.985 . S
H828 N825 0.984 . S
H829 N825 0.985 . S
H830 N824 0.984 . S
H831 N824 0.984 . S
H832 N820 0.984 . S
H833 N820 0.985 . S
C834 C835 1.391 . S
C834 C840 1.377 1_554 S
C834 N842 1.337 1_554 S
C835 C834 1.391 . S
C835 C841 1.363 . S
C836 C837 1.363 . S
C836 C841 1.379 . S
C836 N843 1.356 . S
C837 C836 1.363 . S
C837 C840 1.355 1_554 S
N838 C840 1.364 . S
N838 H850 0.984 . S
N838 H851 0.985 . S
N839 C841 1.356 . S
N839 H844 0.984 . S
N839 H845 0.985 . S
C840 C834 1.377 1_556 S
C840 C837 1.355 1_556 S
C840 N838 1.364 . S
C841 C835 1.363 . S
C841 C836 1.379 . S
C841 N839 1.356 . S
N842 C834 1.337 1_556 S
N842 H848 0.984 . S
N842 H849 0.984 . S
N843 C836 1.356 . S
N843 H846 0.984 . S
N843 H847 0.985 . S
H844 N839 0.984 . S
H845 N839 0.985 . S
H846 N843 0.984 . S
H847 N843 0.985 . S
H848 N842 0.984 . S
H849 N842 0.984 . S
H850 N838 0.984 . S
H851 N838 0.985 . S
C852 C853 1.363 . S
C852 C858 1.379 . S
C852 N860 1.356 . S
C853 C852 1.363 . S
C853 C859 1.363 . S
C854 C855 1.363 . S
C854 C859 1.379 . S
C854 N861 1.356 . S
C855 C854 1.363 . S
C855 C858 1.363 . S
N856 C858 1.356 . S
N856 H868 0.984 . S
N856 H869 0.985 . S
N857 C859 1.356 . S
N857 H862 0.984 . S
N857 H863 0.985 . S
C858 C852 1.379 . S
C858 C855 1.363 . S
C858 N856 1.356 . S
C859 C853 1.363 . S
C859 C854 1.379 . S
C859 N857 1.356 . S
N860 C852 1.356 . S
N860 H866 0.984 . S
N860 H867 0.984 . S
N861 C854 1.356 . S
N861 H864 0.984 . S
N861 H865 0.985 . S
H862 N857 0.984 . S
H863 N857 0.985 . S
H864 N861 0.984 . S
H865 N861 0.985 . S
H866 N860 0.984 . S
H867 N860 0.984 . S
H868 N856 0.984 . S
H869 N856 0.985 . S
C870 C871 1.363 . S
C870 C876 1.379 . S
C870 N878 1.356 . S
C871 C870 1.363 . S
C871 C877 1.363 . S
C872 C873 1.363 . S
C872 C877 1.379 . S
C872 N879 1.356 . S
C873 C872 1.363 . S
C873 C876 1.363 . S
N874 C876 1.356 . S
N874 H886 0.984 . S
N874 H887 0.985 . S
N875 C877 1.356 . S
N875 H880 0.984 . S
N875 H881 0.985 . S
C876 C870 1.379 . S
C876 C873 1.363 . S
C876 N874 1.356 . S
C877 C871 1.363 . S
C877 C872 1.379 . S
C877 N875 1.356 . S
N878 C870 1.356 . S
N878 H884 0.984 . S
N878 H885 0.984 . S
N879 C872 1.356 . S
N879 H882 0.984 . S
N879 H883 0.985 . S
H880 N875 0.984 . S
H881 N875 0.985 . S
H882 N879 0.984 . S
H883 N879 0.985 . S
H884 N878 0.984 . S
H885 N878 0.984 . S
H886 N874 0.984 . S
H887 N874 0.985 . S
C888 C889 1.363 . S
C888 C894 1.379 . S
C888 N896 1.356 . S
C889 C888 1.363 . S
C889 C895 1.363 . S
C890 C891 1.363 . S
C890 C895 1.379 . S
C890 N897 1.356 . S
C891 C890 1.363 . S
C891 C894 1.363 . S
N892 C894 1.356 . S
N892 H904 0.984 . S
N892 H905 0.985 . S
N893 C895 1.356 . S
N893 H898 0.984 . S
N893 H899 0.985 . S
C894 C888 1.379 . S
C894 C891 1.363 . S
C894 N892 1.356 . S
C895 C889 1.363 . S
C895 C890 1.379 . S
C895 N893 1.356 . S
N896 C888 1.356 . S
N896 H902 0.984 . S
N896 H903 0.984 . S
N897 C890 1.356 . S
N897 H900 0.984 . S
N897 H901 0.985 . S
H898 N893 0.984 . S
H899 N893 0.985 . S
H900 N897 0.984 . S
H901 N897 0.985 . S
H902 N896 0.984 . S
H903 N896 0.984 . S
H904 N892 0.984 . S
H905 N892 0.985 . S
C906 C907 1.363 . S
C906 C912 1.379 . S
C906 N914 1.356 . S
C907 C906 1.363 . S
C907 C913 1.363 . S
C908 C909 1.363 . S
C908 C913 1.379 . S
C908 N915 1.356 . S
C909 C908 1.363 . S
C909 C912 1.363 . S
N910 C912 1.356 . S
N910 H922 0.984 . S
N910 H923 0.985 . S
N911 C913 1.356 . S
N911 H916 0.984 . S
N911 H917 0.985 . S
C912 C906 1.379 . S
C912 C909 1.363 . S
C912 N910 1.356 . S
C913 C907 1.363 . S
C913 C908 1.379 . S
C913 N911 1.356 . S
N914 C906 1.356 . S
N914 H920 0.984 . S
N914 H921 0.984 . S
N915 C908 1.356 . S
N915 H918 0.984 . S
N915 H919 0.985 . S
H916 N911 0.984 . S
H917 N911 0.985 . S
H918 N915 0.984 . S
H919 N915 0.985 . S
H920 N914 0.984 . S
H921 N914 0.984 . S
H922 N910 0.984 . S
H923 N910 0.985 . S
C924 C925 1.363 . S
C924 C930 1.379 . S
C924 N932 1.356 . S
C925 C924 1.363 . S
C925 C931 1.363 1_556 S
C926 C927 1.363 1_554 S
C926 C931 1.379 . S
C926 N933 1.356 . S
C927 C926 1.363 1_556 S
C927 C930 1.363 . S
N928 C930 1.356 . S
N928 H940 0.984 . S
N928 H941 0.985 . S
N929 C931 1.356 . S
N929 H934 0.984 . S
N929 H935 0.985 . S
C930 C924 1.379 . S
C930 C927 1.363 . S
C930 N928 1.356 . S
C931 C925 1.363 1_554 S
C931 C926 1.379 . S
C931 N929 1.356 . S
N932 C924 1.356 . S
N932 H938 0.984 . S
N932 H939 0.984 . S
N933 C926 1.356 . S
N933 H936 0.984 . S
N933 H937 0.985 . S
H934 N929 0.984 . S
H935 N929 0.985 . S
H936 N933 0.984 . S
H937 N933 0.985 . S
H938 N932 0.984 . S
H939 N932 0.984 . S
H940 N928 0.984 . S
H941 N928 0.985 . S
C942 C943 1.363 . S
C942 C948 1.379 . S
C942 N950 1.356 . S
C943 C942 1.363 . S
C943 C949 1.363 . S
C944 C945 1.363 . S
C944 C949 1.379 . S
C944 N951 1.356 . S
C945 C944 1.363 . S
C945 C948 1.363 . S
N946 C948 1.356 . S
N946 H958 0.984 . S
N946 H959 0.985 . S
N947 C949 1.356 . S
N947 H952 0.984 . S
N947 H953 0.985 . S
C948 C942 1.379 . S
C948 C945 1.363 . S
C948 N946 1.356 . S
C949 C943 1.363 . S
C949 C944 1.379 . S
C949 N947 1.356 . S
N950 C942 1.356 . S
N950 H956 0.984 . S
N950 H957 0.984 . S
N951 C944 1.356 . S
N951 H954 0.984 . S
N951 H955 0.985 . S
H952 N947 0.984 . S
H953 N947 0.985 . S
H954 N951 0.984 . S
H955 N951 0.985 . S
H956 N950 0.984 . S
H957 N950 0.984 . S
H958 N946 0.984 . S
H959 N946 0.985 . S
C960 C961 1.363 . S
C960 C966 1.379 . S
C960 N968 1.356 . S
C961 C960 1.363 . S
C961 C967 1.363 . S
C962 C963 1.363 . S
C962 C967 1.379 . S
C962 N969 1.356 . S
C963 C962 1.363 . S
C963 C966 1.363 . S
N964 C966 1.356 . S
N964 H976 0.984 . S
N964 H977 0.985 . S
N965 C967 1.356 . S
N965 H970 0.984 . S
N965 H971 0.985 . S
C966 C960 1.379 . S
C966 C963 1.363 . S
C966 N964 1.356 . S
C967 C961 1.363 . S
C967 C962 1.379 . S
C967 N965 1.356 . S
N968 C960 1.356 . S
N968 H974 0.984 . S
N968 H975 0.984 . S
N969 C962 1.356 . S
N969 H972 0.984 . S
N969 H973 0.985 . S
H970 N965 0.984 . S
H971 N965 0.985 . S
H972 N969 0.984 . S
H973 N969 0.985 . S
H974 N968 0.984 . S
H975 N968 0.984 . S
H976 N964 0.984 . S
H977 N964 0.985 . S
C978 C979 1.363 . S
C978 C984 1.379 . S
C978 N986 1.356 . S
C979 C978 1.363 . S
C979 C985 1.363 . S
C980 C981 1.363 . S
C980 C985 1.379 . S
C980 N987 1.356 . S
C981 C980 1.363 . S
C981 C984 1.363 . S
N982 C984 1.356 . S
N982 H994 0.984 . S
N982 H995 0.985 . S
N983 C985 1.356 . S
N983 H988 0.984 . S
N983 H989 0.985 . S
C984 C978 1.379 . S
C984 C981 1.363 . S
C984 N982 1.356 . S
C985 C979 1.363 . S
C985 C980 1.379 . S
C985 N983 1.356 . S
N986 C978 1.356 . S
N986 H992 0.984 . S
N986 H993 0.984 . S
N987 C980 1.356 . S
N987 H990 0.984 . S
N987 H991 0.985 . S
H988 N983 0.984 . S
H989 N983 0.985 . S
H990 N987 0.984 . S
H991 N987 0.985 . S
H992 N986 0.984 . S
H993 N986 0.984 . S
H994 N982 0.984 . S
H995 N982 0.985 . S
C996 C997 1.363 . S
C996 C1002 1.379 . S
C996 N1004 1.356 . S
C997 C996 1.363 . S
C997 C1003 1.363 . S
C998 C999 1.363 . S
C998 C1003 1.379 . S
C998 N1005 1.356 . S
C999 C998 1.363 . S
C999 C1002 1.363 . S
N1000 C1002 1.356 . S
N1000 H1012 0.984 . S
N1000 H1013 0.985 . S
N1001 C1003 1.356 . S
N1001 H1006 0.984 . S
N1001 H1007 0.985 . S
C1002 C996 1.379 . S
C1002 C999 1.363 . S
C1002 N1000 1.356 . S
C1003 C997 1.363 . S
C1003 C998 1.379 . S
C1003 N1001 1.356 . S
N1004 C996 1.356 . S
N1004 H1010 0.984 . S
N1004 H1011 0.984 . S
N1005 C998 1.356 . S
N1005 H1008 0.984 . S
N1005 H1009 0.985 . S
H1006 N1001 0.984 . S
H1007 N1001 0.985 . S
H1008 N1005 0.984 . S
H1009 N1005 0.985 . S
H1010 N1004 0.984 . S
H1011 N1004 0.984 . S
H1012 N1000 0.984 . S
H1013 N1000 0.985 . S
C1014 C1015 1.363 . S
C1014 C1020 1.379 . S
C1014 N1022 1.356 . S
C1015 C1014 1.363 . S
C1015 C1021 1.363 . S
C1016 C1017 1.363 . S
C1016 C1021 1.379 . S
C1016 N1023 1.356 . S
C1017 C1016 1.363 . S
C1017 C1020 1.363 . S
N1018 C1020 1.356 . S
N1018 H1030 0.984 . S
N1018 H1031 0.985 . S
N1019 C1021 1.356 . S
N1019 H1024 0.984 . S
N1019 H1025 0.985 . S
C1020 C1014 1.379 . S
C1020 C1017 1.363 . S
C1020 N1018 1.356 . S
C1021 C1015 1.363 . S
C1021 C1016 1.379 . S
C1021 N1019 1.356 . S
N1022 C1014 1.356 . S
N1022 H1028 0.984 . S
N1022 H1029 0.984 . S
N1023 C1016 1.356 . S
N1023 H1026 0.984 . S
N1023 H1027 0.985 . S
H1024 N1019 0.984 . S
H1025 N1019 0.985 . S
H1026 N1023 0.984 . S
H1027 N1023 0.985 . S
H1028 N1022 0.984 . S
H1029 N1022 0.984 . S
H1030 N1018 0.984 . S
H1031 N1018 0.985 . S
C1032 C1033 1.363 . S
C1032 C1038 1.379 . S
C1032 N1040 1.356 . S
C1033 C1032 1.363 . S
C1033 C1039 1.363 . S
C1034 C1035 1.363 . S
C1034 C1039 1.379 . S
C1034 N1041 1.356 . S
C1035 C1034 1.363 . S
C1035 C1038 1.363 . S
N1036 C1038 1.356 . S
N1036 H1048 0.984 . S
N1036 H1049 0.985 . S
N1037 C1039 1.356 . S
N1037 H1042 0.984 . S
N1037 H1043 0.985 . S
C1038 C1032 1.379 . S
C1038 C1035 1.363 . S
C1038 N1036 1.356 . S
C1039 C1033 1.363 . S
C1039 C1034 1.379 . S
C1039 N1037 1.356 . S
N1040 C1032 1.356 . S
N1040 H1046 0.984 . S
N1040 H1047 0.984 . S
N1041 C1034 1.356 . S
N1041 H1044 0.984 . S
N1041 H1045 0.985 . S
H1042 N1037 0.984 . S
H1043 N1037 0.985 . S
H1044 N1041 0.984 . S
H1045 N1041 0.985 . S
H1046 N1040 0.984 . S
H1047 N1040 0.984 . S
H1048 N1036 0.984 . S
H1049 N1036 0.985 . S
C1050 C1051 1.363 . S
C1050 C1056 1.379 . S
C1050 N1058 1.356 . S
C1051 C1050 1.363 . S
C1051 C1057 1.363 . S
C1052 C1053 1.363 . S
C1052 C1057 1.379 . S
C1052 N1059 1.356 . S
C1053 C1052 1.363 . S
C1053 C1056 1.363 . S
N1054 C1056 1.356 . S
N1054 H1066 0.984 . S
N1054 H1067 0.985 . S
N1055 C1057 1.356 . S
N1055 H1060 0.984 . S
N1055 H1061 0.985 . S
C1056 C1050 1.379 . S
C1056 C1053 1.363 . S
C1056 N1054 1.356 . S
C1057 C1051 1.363 . S
C1057 C1052 1.379 . S
C1057 N1055 1.356 . S
N1058 C1050 1.356 . S
N1058 H1064 0.984 . S
N1058 H1065 0.984 . S
N1059 C1052 1.356 . S
N1059 H1062 0.984 . S
N1059 H1063 0.985 . S
H1060 N1055 0.984 . S
H1061 N1055 0.985 . S
H1062 N1059 0.984 . S
H1063 N1059 0.985 . S
H1064 N1058 0.984 . S
H1065 N1058 0.984 . S
H1066 N1054 0.984 . S
H1067 N1054 0.985 . S
C1068 C1069 1.363 . S
C1068 C1074 1.379 . S
C1068 N1076 1.356 . S
C1069 C1068 1.363 . S
C1069 C1075 1.363 . S
C1070 C1071 1.363 . S
C1070 C1075 1.379 . S
C1070 N1077 1.356 . S
C1071 C1070 1.363 . S
C1071 C1074 1.363 . S
N1072 C1074 1.356 . S
N1072 H1084 0.984 . S
N1072 H1085 0.985 . S
N1073 C1075 1.356 . S
N1073 H1078 0.984 . S
N1073 H1079 0.985 . S
C1074 C1068 1.379 . S
C1074 C1071 1.363 . S
C1074 N1072 1.356 . S
C1075 C1069 1.363 . S
C1075 C1070 1.379 . S
C1075 N1073 1.356 . S
N1076 C1068 1.356 . S
N1076 H1082 0.984 . S
N1076 H1083 0.984 . S
N1077 C1070 1.356 . S
N1077 H1080 0.984 . S
N1077 H1081 0.985 . S
H1078 N1073 0.984 . S
H1079 N1073 0.985 . S
H1080 N1077 0.984 . S
H1081 N1077 0.985 . S
H1082 N1076 0.984 . S
H1083 N1076 0.984 . S
H1084 N1072 0.984 . S
H1085 N1072 0.985 . S
C1086 C1087 1.363 . S
C1086 C1092 1.379 . S
C1086 N1094 1.356 . S
C1087 C1086 1.363 . S
C1087 C1093 1.363 . S
C1088 C1089 1.363 . S
C1088 C1093 1.379 . S
C1088 N1095 1.356 . S
C1089 C1088 1.363 . S
C1089 C1092 1.363 . S
N1090 C1092 1.356 . S
N1090 H1102 0.984 . S
N1090 H1103 0.985 . S
N1091 C1093 1.356 . S
N1091 H1096 0.984 . S
N1091 H1097 0.985 . S
C1092 C1086 1.379 . S
C1092 C1089 1.363 . S
C1092 N1090 1.356 . S
C1093 C1087 1.363 . S
C1093 C1088 1.379 . S
C1093 N1091 1.356 . S
N1094 C1086 1.356 . S
N1094 H1100 0.984 . S
N1094 H1101 0.984 . S
N1095 C1088 1.356 . S
N1095 H1098 0.984 . S
N1095 H1099 0.985 . S
H1096 N1091 0.984 . S
H1097 N1091 0.985 . S
H1098 N1095 0.984 . S
H1099 N1095 0.985 . S
H1100 N1094 0.984 . S
H1101 N1094 0.984 . S
H1102 N1090 0.984 . S
H1103 N1090 0.985 . S
C1104 C1105 1.363 . S
C1104 C1110 1.379 . S
C1104 N1112 1.356 . S
C1105 C1104 1.363 . S
C1105 C1111 1.363 . S
C1106 C1107 1.363 . S
C1106 C1111 1.379 . S
C1106 N1113 1.356 . S
C1107 C1106 1.363 . S
C1107 C1110 1.363 . S
N1108 C1110 1.356 . S
N1108 H1120 0.984 . S
N1108 H1121 0.985 . S
N1109 C1111 1.356 . S
N1109 H1114 0.984 . S
N1109 H1115 0.985 . S
C1110 C1104 1.379 . S
C1110 C1107 1.363 . S
C1110 N1108 1.356 . S
C1111 C1105 1.363 . S
C1111 C1106 1.379 . S
C1111 N1109 1.356 . S
N1112 C1104 1.356 . S
N1112 H1118 0.984 . S
N1112 H1119 0.984 . S
N1113 C1106 1.356 . S
N1113 H1116 0.984 . S
N1113 H1117 0.985 . S
H1114 N1109 0.984 . S
H1115 N1109 0.985 . S
H1116 N1113 0.984 . S
H1117 N1113 0.985 . S
H1118 N1112 0.984 . S
H1119 N1112 0.984 . S
H1120 N1108 0.984 . S
H1121 N1108 0.985 . S
C1122 C1123 1.363 . S
C1122 C1128 1.379 . S
C1122 N1130 1.356 . S
C1123 C1122 1.363 . S
C1123 C1129 1.363 . S
C1124 C1125 1.363 . S
C1124 C1129 1.379 . S
C1124 N1131 1.356 . S
C1125 C1124 1.363 . S
C1125 C1128 1.363 . S
N1126 C1128 1.356 . S
N1126 H1138 0.984 . S
N1126 H1139 0.985 . S
N1127 C1129 1.356 . S
N1127 H1132 0.984 . S
N1127 H1133 0.985 . S
C1128 C1122 1.379 . S
C1128 C1125 1.363 . S
C1128 N1126 1.356 . S
C1129 C1123 1.363 . S
C1129 C1124 1.379 . S
C1129 N1127 1.356 . S
N1130 C1122 1.356 . S
N1130 H1136 0.984 . S
N1130 H1137 0.984 . S
N1131 C1124 1.356 . S
N1131 H1134 0.984 . S
N1131 H1135 0.985 . S
H1132 N1127 0.984 . S
H1133 N1127 0.985 . S
H1134 N1131 0.984 . S
H1135 N1131 0.985 . S
H1136 N1130 0.984 . S
H1137 N1130 0.984 . S
H1138 N1126 0.984 . S
H1139 N1126 0.985 . S
C1140 C1141 1.363 . S
C1140 C1146 1.379 . S
C1140 N1148 1.356 . S
C1141 C1140 1.363 . S
C1141 C1147 1.363 . S
C1142 C1143 1.363 . S
C1142 C1147 1.379 . S
C1142 N1149 1.356 . S
C1143 C1142 1.363 . S
C1143 C1146 1.363 . S
N1144 C1146 1.356 . S
N1144 H1156 0.984 . S
N1144 H1157 0.985 . S
N1145 C1147 1.356 . S
N1145 H1150 0.984 . S
N1145 H1151 0.985 . S
C1146 C1140 1.379 . S
C1146 C1143 1.363 . S
C1146 N1144 1.356 . S
C1147 C1141 1.363 . S
C1147 C1142 1.379 . S
C1147 N1145 1.356 . S
N1148 C1140 1.356 . S
N1148 H1154 0.984 . S
N1148 H1155 0.984 . S
N1149 C1142 1.356 . S
N1149 H1152 0.984 . S
N1149 H1153 0.985 . S
H1150 N1145 0.984 . S
H1151 N1145 0.985 . S
H1152 N1149 0.984 . S
H1153 N1149 0.985 . S
H1154 N1148 0.984 . S
H1155 N1148 0.984 . S
H1156 N1144 0.984 . S
H1157 N1144 0.985 . S
C1158 C1159 1.363 . S
C1158 C1164 1.379 . S
C1158 N1166 1.356 . S
C1159 C1158 1.363 . S
C1159 C1165 1.363 . S
C1160 C1161 1.363 . S
C1160 C1165 1.379 . S
C1160 N1167 1.356 . S
C1161 C1160 1.363 . S
C1161 C1164 1.363 . S
N1162 C1164 1.356 . S
N1162 H1174 0.984 . S
N1162 H1175 0.985 . S
N1163 C1165 1.356 . S
N1163 H1168 0.984 . S
N1163 H1169 0.985 . S
C1164 C1158 1.379 . S
C1164 C1161 1.363 . S
C1164 N1162 1.356 . S
C1165 C1159 1.363 . S
C1165 C1160 1.379 . S
C1165 N1163 1.356 . S
N1166 C1158 1.356 . S
N1166 H1172 0.984 . S
N1166 H1173 0.984 . S
N1167 C1160 1.356 . S
N1167 H1170 0.984 . S
N1167 H1171 0.985 . S
H1168 N1163 0.984 . S
H1169 N1163 0.985 . S
H1170 N1167 0.984 . S
H1171 N1167 0.985 . S
H1172 N1166 0.984 . S
H1173 N1166 0.984 . S
H1174 N1162 0.984 . S
H1175 N1162 0.985 . S
C1176 C1177 1.363 . S
C1176 C1182 1.379 . S
C1176 N1184 1.356 . S
C1177 C1176 1.363 . S
C1177 C1183 1.363 . S
C1178 C1179 1.363 . S
C1178 C1183 1.379 . S
C1178 N1185 1.356 . S
C1179 C1178 1.363 . S
C1179 C1182 1.363 . S
N1180 C1182 1.356 . S
N1180 H1192 0.984 . S
N1180 H1193 0.985 . S
N1181 C1183 1.356 . S
N1181 H1186 0.984 . S
N1181 H1187 0.985 . S
C1182 C1176 1.379 . S
C1182 C1179 1.363 . S
C1182 N1180 1.356 . S
C1183 C1177 1.363 . S
C1183 C1178 1.379 . S
C1183 N1181 1.356 . S
N1184 C1176 1.356 . S
N1184 H1190 0.984 . S
N1184 H1191 0.984 . S
N1185 C1178 1.356 . S
N1185 H1188 0.984 . S
N1185 H1189 0.985 . S
H1186 N1181 0.984 . S
H1187 N1181 0.985 . S
H1188 N1185 0.984 . S
H1189 N1185 0.985 . S
H1190 N1184 0.984 . S
H1191 N1184 0.984 . S
H1192 N1180 0.984 . S
H1193 N1180 0.985 . S
C1194 C1195 1.363 . S
C1194 C1200 1.379 . S
C1194 N1202 1.356 . S
C1195 C1194 1.363 . S
C1195 C1201 1.363 . S
C1196 C1197 1.363 . S
C1196 C1201 1.379 . S
C1196 N1203 1.356 . S
C1197 C1196 1.363 . S
C1197 C1200 1.363 . S
N1198 C1200 1.356 . S
N1198 H1210 0.984 . S
N1198 H1211 0.985 . S
N1199 C1201 1.356 . S
N1199 H1204 0.984 . S
N1199 H1205 0.985 . S
C1200 C1194 1.379 . S
C1200 C1197 1.363 . S
C1200 N1198 1.356 . S
C1201 C1195 1.363 . S
C1201 C1196 1.379 . S
C1201 N1199 1.356 . S
N1202 C1194 1.356 . S
N1202 H1208 0.984 . S
N1202 H1209 0.984 . S
N1203 C1196 1.356 . S
N1203 H1206 0.984 . S
N1203 H1207 0.985 . S
H1204 N1199 0.984 . S
H1205 N1199 0.985 . S
H1206 N1203 0.984 . S
H1207 N1203 0.985 . S
H1208 N1202 0.984 . S
H1209 N1202 0.984 . S
H1210 N1198 0.984 . S
H1211 N1198 0.985 . S
C1212 C1213 1.363 . S
C1212 C1218 1.379 . S
C1212 N1220 1.356 . S
C1213 C1212 1.363 . S
C1213 C1219 1.363 . S
C1214 C1215 1.363 . S
C1214 C1219 1.379 . S
C1214 N1221 1.356 . S
C1215 C1214 1.363 . S
C1215 C1218 1.363 . S
N1216 C1218 1.356 . S
N1216 H1228 0.984 . S
N1216 H1229 0.985 . S
N1217 C1219 1.356 . S
N1217 H1222 0.984 . S
N1217 H1223 0.985 . S
C1218 C1212 1.379 . S
C1218 C1215 1.363 . S
C1218 N1216 1.356 . S
C1219 C1213 1.363 . S
C1219 C1214 1.379 . S
C1219 N1217 1.356 . S
N1220 C1212 1.356 . S
N1220 H1226 0.984 . S
N1220 H1227 0.984 . S
N1221 C1214 1.356 . S
N1221 H1224 0.984 . S
N1221 H1225 0.985 . S
H1222 N1217 0.984 . S
H1223 N1217 0.985 . S
H1224 N1221 0.984 . S
H1225 N1221 0.985 . S
H1226 N1220 0.984 . S
H1227 N1220 0.984 . S
H1228 N1216 0.984 . S
H1229 N1216 0.985 . S
C1230 C1231 1.363 . S
C1230 C1236 1.379 . S
C1230 N1238 1.356 . S
C1231 C1230 1.363 . S
C1231 C1237 1.363 . S
C1232 C1233 1.363 . S
C1232 C1237 1.379 . S
C1232 N1239 1.356 . S
C1233 C1232 1.363 . S
C1233 C1236 1.363 . S
N1234 C1236 1.356 . S
N1234 H1246 0.984 . S
N1234 H1247 0.985 . S
N1235 C1237 1.356 . S
N1235 H1240 0.984 . S
N1235 H1241 0.985 . S
C1236 C1230 1.379 . S
C1236 C1233 1.363 . S
C1236 N1234 1.356 . S
C1237 C1231 1.363 . S
C1237 C1232 1.379 . S
C1237 N1235 1.356 . S
N1238 C1230 1.356 . S
N1238 H1244 0.984 . S
N1238 H1245 0.984 . S
N1239 C1232 1.356 . S
N1239 H1242 0.984 . S
N1239 H1243 0.985 . S
H1240 N1235 0.984 . S
H1241 N1235 0.985 . S
H1242 N1239 0.984 . S
H1243 N1239 0.985 . S
H1244 N1238 0.984 . S
H1245 N1238 0.984 . S
H1246 N1234 0.984 . S
H1247 N1234 0.985 . S
C675 C423 1.459 . S
C673 C36 1.405 . S
C693 C460 1.434 . S
C691 C93 1.427 . S
C711 C496 1.456 . S
C709 C126 1.432 . S
C727 C165 1.413 . S
C729 C387 1.479 . S
C745 C222 1.433 . S
C747 C388 1.456 . S
C763 C261 1.405 . S
C765 C424 1.433 . S
C783 C459 1.458 . S
C781 C318 1.416 . S
C801 C495 1.480 . S
C799 C381 1.442 . S
C817 C132 1.405 . S
C819 C567 1.458 . S
C837 C604 1.434 . S
C835 C189 1.428 . S
C853 C30 1.432 . S
C855 C640 1.455 . S
C873 C531 1.479 . S
C871 C69 1.414 . S
C889 C324 1.421 . S
C891 C532 1.456 . S
C907 C357 1.405 . S
C909 C568 1.433 . S
C927 C603 1.458 . S
C925 C228 1.404 . S
C943 C285 1.442 . S
C945 C639 1.480 . S
C963 C458 1.731 . S
C961 C45 1.721 . S
C981 C494 1.723 . S
C979 C84 1.718 . S
C997 C117 1.664 . S
C999 C398 1.531 . S
C1015 C174 1.644 . S
C1017 C434 1.543 . S
C1033 C213 1.665 . S
C1035 C506 1.533 . S
C1053 C386 1.724 . S
C1051 C270 1.670 . S
C1071 C422 1.734 . S
C1069 C309 1.714 . S
C1089 C470 1.544 . S
C1087 C372 1.691 . S
C1107 C602 1.733 . S
C1105 C141 1.723 . S
C1125 C638 1.724 . S
C1123 C180 1.719 . S
C1141 C21 1.666 . S
C1143 C542 1.533 . S
C1161 C578 1.543 . S
C1159 C78 1.644 . S
C1179 C650 1.530 . S
C1177 C333 1.675 . S
C1195 C366 1.668 . S
C1197 C530 1.722 . S
C1215 C566 1.732 . S
C1213 C237 1.722 . S
C1233 C614 1.542 . S
C1231 C276 1.689 . S
