# Generated by pormake.
# Topology scu, (8,4)-cn, num edge types: 1
# Building blocks:
#     Node 0, Type 0, BuildingBlock: GIZVER_clean_sbu_0, # of connection points: 8
#     Node 1, Type 1, BuildingBlock: IZENUY_clean_linker_0, # of connection points: 4
#     Node 2, Type 1, BuildingBlock: IZENUY_clean_linker_0, # of connection points: 4
#     Edge 3, Type (0, 1), BuildingBlock: UVAHIK_clean_linker_0, # of connection points: 2
#     Edge 4, Type (0, 1), BuildingBlock: UVAHIK_clean_linker_0, # of connection points: 2
#     Edge 5, Type (0, 1), BuildingBlock: UVAHIK_clean_linker_0, # of connection points: 2
#     Edge 6, Type (0, 1), BuildingBlock: UVAHIK_clean_linker_0, # of connection points: 2
#     Edge 7, Type (0, 1), BuildingBlock: UVAHIK_clean_linker_0, # of connection points: 2
#     Edge 8, Type (0, 1), BuildingBlock: UVAHIK_clean_linker_0, # of connection points: 2
#     Edge 9, Type (0, 1), BuildingBlock: UVAHIK_clean_linker_0, # of connection points: 2
#     Edge 10, Type (0, 1), BuildingBlock: UVAHIK_clean_linker_0, # of connection points: 2
# Relax obj value: 0.123
# Max RMSD: 0.248
# Mean RMSD: 0.212
data_MOF--net-scu--node1-GIZVER_clean_sbu_0--node2-IZENUY_clean_linker_0--edge1-UVAHIK_clean_linker_0
_symmetry_space_group_name_H-M    P1
_symmetry_Int_Tables_number       1
_symmetry_cell_setting            triclinic
loop_
_symmetry_equiv_pos_as_xyz
'x, y, z'
_cell_length_a     33.764648
_cell_length_b     34.225009
_cell_length_c     27.557813
_cell_angle_alpha  98.793286
_cell_angle_beta   82.504508
_cell_angle_gamma 110.09435
loop_
_atom_site_label
_atom_site_type_symbol
_atom_site_fract_x
_atom_site_fract_y
_atom_site_fract_z
_atom_type_partial_charge
Co0 Co 0.04045 0.97978 0.09733 0.0
Co1 Co 0.10446 0.03856 0.06267 0.0
Co2 Co 1.02653 1.0278 1.00378 0.0
O3 O 0.05824 0.99987 0.03426 0.0
H4 H 0.06755 0.98021 0.01062 0.0
O5 O 0.99476 0.05612 0.97358 0.0
Co6 Co 1.01437 0.07998 0.91266 0.0
Co7 Co 0.95081 1.01863 0.94081 0.0
H8 H 0.98397 0.0743 0.99792 0.0
O9 O 0.1502 1.02344 0.06964 0.0
O10 O 0.09334 1.0205 0.12433 0.0
O11 O 0.10803 0.09634 0.07182 0.0
O12 O 0.04284 0.08182 0.05023 0.0
O13 O 0.07762 0.04978 0.95842 0.0
O14 O 0.03077 0.10536 0.85886 0.0
O15 O 0.99051 0.12134 0.92537 0.0
O16 O 0.04433 0.04133 0.89127 0.0
O17 O 1.01045 0.97371 0.95718 0.0
O18 O 0.9486 0.96167 0.92762 0.0
O19 O 0.96179 0.04159 0.88212 0.0
O20 O 0.90406 1.03209 0.93707 0.0
C21 C 0.04722 0.93333 0.13159 0.0
C22 C 0.97652 1.01364 0.09604 0.0
C23 C 0.07573 0.10685 0.07036 0.0
C24 C 0.13106 1.01735 0.11328 0.0
C25 C 1.00945 0.12893 0.88158 0.0
C26 C 0.07718 0.04415 0.9117 0.0
C27 C 0.97941 0.95005 0.93284 0.0
C28 C 0.92328 0.04257 0.89458 0.0
O29 O 1.02609 0.95738 0.15363 0.0
O30 O 0.06477 0.93903 0.08691 0.0
O31 O 0.97552 1.00563 0.04941 0.0
O32 O 1.01008 1.01851 0.11632 0.0
H33 H 0.03195 0.4696 0.43543 0.0
H34 H 1.01306 0.47208 0.59334 0.0
H35 H 1.00671 0.35682 0.50211 0.0
H36 H 0.03569 0.59092 0.57167 0.0
H37 H 0.05084 0.58749 0.41349 0.0
H38 H 0.05941 0.7032 0.50461 0.0
N39 N 1.0295 0.51973 0.52139 0.0
N40 N 0.0363 0.54029 0.48563 0.0
C41 C 1.02564 0.45357 0.468 0.0
C42 C 1.01924 0.41033 0.46283 0.0
C43 C 1.02343 0.47603 0.51513 0.0
C44 C 1.01487 0.45487 0.55715 0.0
C45 C 1.00788 0.41161 0.55259 0.0
C46 C 1.01043 0.38984 0.50543 0.0
C47 C 0.04134 0.60673 0.539 0.0
C48 C 0.04795 0.65 0.54404 0.0
C49 C 0.04245 0.584 0.49184 0.0
C50 C 0.04998 0.6049 0.44971 0.0
C51 C 0.05704 0.64816 0.4542 0.0
C52 C 0.05569 0.67018 0.50134 0.0
H53 H 0.58556 0.03624 0.43381 0.0
H54 H 0.60109 0.06569 0.58948 0.0
H55 H 0.70332 0.04841 0.4872 0.0
H56 H 0.47877 0.05171 0.58123 0.0
H57 H 0.46937 0.03619 0.42434 0.0
H58 H 0.36306 0.04343 0.52534 0.0
N59 N 0.54558 0.05008 0.52407 0.0
N60 N 0.52129 0.04337 0.491 0.0
C61 C 0.60474 0.0423 0.46448 0.0
C62 C 0.64633 0.04161 0.45543 0.0
C63 C 0.58801 0.05025 0.51323 0.0
C64 C 0.6138 0.05871 0.55226 0.0
C65 C 0.65588 0.05894 0.54328 0.0
C66 C 0.67136 0.0495 0.49476 0.0
C67 C 0.46062 0.04797 0.55017 0.0
C68 C 0.41904 0.04894 0.55866 0.0
C69 C 0.47885 0.04318 0.50141 0.0
C70 C 0.45497 0.03904 0.46164 0.0
C71 C 0.41334 0.03997 0.4699 0.0
C72 C 0.39564 0.04409 0.51849 0.0
C73 C 0.04056 0.16171 0.09432 0.0
C74 C 0.0738 0.14685 0.09858 0.0
C75 C 0.03579 0.19646 0.12549 0.0
C76 C 0.08987 0.28371 0.21964 0.0
H77 H 0.97465 0.27439 0.26955 0.0
C78 C 0.05436 0.40309 0.37679 0.0
C79 C 1.02249 0.3862 0.41342 0.0
C80 C 0.0596 0.3787 0.33227 0.0
C81 C 1.00708 0.27745 0.25628 0.0
H82 H 0.12894 0.15789 0.13802 0.0
H83 H 0.11998 0.21725 0.19302 0.0
H84 H 0.98747 0.22334 0.20365 0.0
H85 H 0.96963 0.33105 0.43052 0.0
H86 H 0.97979 0.28827 0.35451 0.0
H87 H 0.1095 0.33616 0.27461 0.0
C88 C 0.09803 0.20292 0.16496 0.0
C89 C 1.01447 0.24845 0.21773 0.0
C90 C 0.10308 0.16856 0.13343 0.0
C91 C 0.99504 0.3449 0.40361 0.0
C92 C 1.00049 0.32048 0.35945 0.0
C93 C 0.08248 0.31242 0.25865 0.0
C94 C 0.06384 0.21691 0.16213 0.0
C95 C 0.056 0.25063 0.19945 0.0
C96 C 0.03322 0.33676 0.32338 0.0
C97 C 0.04099 0.30918 0.27823 0.0
H98 H 1.0176 0.14594 0.06763 0.0
H99 H 1.00962 0.20679 0.12136 0.0
H100 H 0.12228 0.28703 0.206 0.0
H101 H 0.0762 0.4347 0.3831 0.0
H102 H 0.08473 0.39261 0.30512 0.0
C103 C 0.94101 0.03537 0.17624 0.0
C104 C 0.93856 1.01827 0.12656 0.0
C105 C 0.90491 0.03902 0.20509 0.0
C106 C 0.78981 0.9924 0.2164 0.0
H107 H 0.79427 0.09292 0.30545 0.0
C108 C 0.67853 0.06579 0.37413 0.0
C109 C 0.66539 1.034 0.40517 0.0
C110 C 0.70619 0.06333 0.33217 0.0
C111 C 0.79229 0.06486 0.28025 0.0
H112 H 0.89628 0.99187 0.06814 0.0
H113 H 0.83321 0.99774 0.11887 0.0
H114 H 0.85574 0.09136 0.24861 0.0
H115 H 0.66851 0.9739 0.416 0.0
H116 H 0.71598 0.96894 0.34209 0.0
H117 H 0.72679 0.96546 0.24923 0.0
C118 C 0.86309 1.00834 0.13534 0.0
C119 C 0.82764 0.06382 0.24815 0.0
C120 C 0.89927 1.00516 0.10631 0.0
C121 C 0.67787 0.99844 0.39205 0.0
C122 C 0.70503 0.9957 0.34984 0.0
C123 C 0.7546 0.99326 0.24895 0.0
C124 C 0.86553 1.02523 0.18504 0.0
C125 C 0.82698 1.02739 0.21641 0.0
C126 C 0.72073 1.02883 0.32051 0.0
C127 C 0.7557 1.02932 0.28167 0.0
H128 H 0.97079 0.04589 0.19291 0.0
H129 H 0.90763 0.05182 0.24344 0.0
H130 H 0.78849 0.96382 0.19249 0.0
H131 H 0.6697 0.09374 0.3841 0.0
H132 H 0.71761 0.08916 0.31 0.0
C133 C 0.03542 0.8983 0.20785 0.0
C134 C 0.05238 0.90127 0.15864 0.0
C135 C 0.04048 0.86909 0.23454 0.0
C136 C 0.06124 0.76945 0.22372 0.0
H137 H 0.08796 0.80717 0.35924 0.0
C138 C 0.03697 0.6579 0.37313 0.0
C139 C 0.065 0.67119 0.41042 0.0
C140 C 0.04066 0.6837 0.33663 0.0
C141 C 0.08107 0.79606 0.32131 0.0
H142 H 0.08779 0.8754 0.09877 0.0
H143 H 0.09652 0.82384 0.14577 0.0
H144 H 0.08499 0.857 0.30707 0.0
H145 H 0.12084 0.72007 0.43651 0.0
H146 H 0.12791 0.76452 0.37255 0.0
H147 H 0.05712 0.70825 0.23841 0.0
C148 C 0.07915 0.84428 0.16341 0.0
C149 C 0.07887 0.82464 0.29152 0.0
C150 C 0.07428 0.87388 0.13659 0.0
C151 C 0.09842 0.70934 0.4086 0.0
C152 C 0.1023 0.73488 0.3721 0.0
C153 C 0.0633 0.74065 0.25373 0.0
C154 C 0.06258 0.84187 0.21287 0.0
C155 C 0.06831 0.81164 0.24262 0.0
C156 C 0.07261 0.72314 0.33667 0.0
C157 C 0.07289 0.75358 0.30308 0.0
H158 H 1.01827 0.91873 0.22613 0.0
H159 H 1.02672 0.86764 0.27227 0.0
H160 H 0.05286 0.75844 0.18624 0.0
H161 H 1.01079 0.62873 0.37382 0.0
H162 H 1.01712 0.67372 0.31008 0.0
C163 C 0.18652 0.99265 0.13687 0.0
C164 C 0.15404 1.01005 0.15111 0.0
C165 C 0.21253 0.99108 0.17147 0.0
C166 C 0.25954 0.05218 0.27891 0.0
H167 H 0.28743 0.95608 0.30204 0.0
C168 C 0.36186 0.06282 0.4337 0.0
C169 C 0.38787 0.03776 0.42876 0.0
C170 C 0.33426 0.05818 0.39824 0.0
C171 C 0.28063 0.9834 0.29536 0.0
H172 H 0.12173 0.03734 0.21293 0.0
H173 H 0.16827 0.0358 0.27336 0.0
H174 H 0.2343 0.94711 0.24501 0.0
H175 H 0.40675 0.98953 0.38114 0.0
H176 H 0.3598 0.98277 0.31753 0.0
H177 H 0.30674 0.08904 0.32696 0.0
C178 C 0.17322 1.02312 0.23544 0.0
C179 C 0.24988 0.97809 0.26314 0.0
C180 C 0.14659 1.02386 0.201 0.0
C181 C 0.38714 1.00932 0.38603 0.0
C182 C 0.35975 1.00504 0.34995 0.0
C183 C 0.29078 0.05767 0.31023 0.0
C184 C 0.20697 1.0076 0.22068 0.0
C185 C 0.23874 1.01238 0.25525 0.0
C186 C 0.33246 1.02901 0.35602 0.0
C187 C 0.30137 1.02329 0.31955 0.0
H188 H 0.19264 0.9814 0.09867 0.0
H189 H 0.23839 0.97903 0.15927 0.0
H190 H 0.25214 0.07926 0.27246 0.0
H191 H 0.3622 0.08568 0.46565 0.0
H192 H 0.31349 0.07684 0.40486 0.0
C193 C 1.01581 0.89601 0.90808 0.0
C194 C 0.98218 0.91051 0.9041 0.0
C195 C 1.0217 0.86238 0.87548 0.0
C196 C 1.00758 0.81985 0.74909 0.0
H197 H 1.02429 0.71988 0.77958 0.0
C198 C 0.07304 0.71601 0.60192 0.0
C199 C 0.04551 0.67457 0.59326 0.0
C200 C 0.06688 0.74165 0.64466 0.0
C201 C 1.01969 0.74772 0.77076 0.0
H202 H 0.92709 0.8993 0.8643 0.0
H203 H 0.93803 0.84151 0.80725 0.0
H204 H 1.00821 0.76998 0.84689 0.0
H205 H 0.99171 0.6268 0.62477 0.0
H206 H 0.98176 0.67165 0.70046 0.0
H207 H 1.01984 0.79847 0.67337 0.0
C208 C 0.95968 0.85613 0.83562 0.0
C209 C 1.01067 0.7763 0.80908 0.0
C210 C 0.95342 0.88921 0.86848 0.0
C211 C 1.01359 0.65847 0.63028 0.0
C212 C 1.00778 0.68411 0.67354 0.0
C213 C 1.0174 0.7919 0.71109 0.0
C214 C 0.99442 0.84309 0.83801 0.0
C215 C 1.00423 0.81245 0.79842 0.0
C216 C 0.03355 0.7263 0.68024 0.0
C217 C 1.02348 0.75555 0.72147 0.0
H218 H 0.03849 0.91159 0.93513 0.0
H219 H 0.04882 0.85293 0.87791 0.0
H220 H 1.00309 0.84765 0.73994 0.0
H221 H 0.09866 0.72913 0.57486 0.0
H222 H 0.08752 0.77394 0.64933 0.0
C223 C 0.12487 0.05612 0.83405 0.0
C224 C 0.11605 0.04262 0.88112 0.0
C225 C 0.16331 0.05795 0.80689 0.0
C226 C 0.24444 1.01275 0.77846 0.0
H227 H 0.31998 0.12228 0.74897 0.0
C228 C 0.39359 1.02852 0.644 0.0
C229 C 0.39886 0.05587 0.60877 0.0
C230 C 0.36605 1.02968 0.68659 0.0
C231 C 0.29923 0.09139 0.75654 0.0
H232 H 0.13967 1.0189 0.9359 0.0
H233 H 0.20639 1.02064 0.88719 0.0
H234 H 0.25492 0.11631 0.80209 0.0
H235 H 0.38254 0.10791 0.59191 0.0
H236 H 0.33434 0.10952 0.66468 0.0
H237 H 0.28683 0.98731 0.73036 0.0
C238 C 0.18379 1.03052 0.87206 0.0
C239 C 0.26214 0.08811 0.78715 0.0
C240 C 0.14577 1.02962 0.89978 0.0
C241 C 0.37884 0.08635 0.6185 0.0
C242 C 0.35136 0.08741 0.66059 0.0
C243 C 0.28117 1.0159 0.74693 0.0
C244 C 0.19308 0.04537 0.82582 0.0
C245 C 0.2341 0.04875 0.79748 0.0
C246 C 0.34341 0.05821 0.69449 0.0
C247 C 0.30852 0.05524 0.73451 0.0
H248 H 0.10266 0.06652 0.81889 0.0
H249 H 0.16991 0.06934 0.77111 0.0
H250 H 0.2231 0.98207 0.7861 0.0
H251 H 0.40865 1.00467 0.6372 0.0
H252 H 0.36133 1.00722 0.71233 0.0
C253 C 0.98067 0.18733 0.87617 0.0
C254 C 1.0052 0.16201 0.85547 0.0
C255 C 0.97578 0.21682 0.8491 0.0
C256 C 0.98006 0.23683 0.72071 0.0
H257 H 0.99843 0.35315 0.77181 0.0
C258 C 0.96533 0.34998 0.59705 0.0
C259 C 0.99848 0.38841 0.59646 0.0
C260 C 0.9598 0.32484 0.6345 0.0
C261 C 0.99317 0.32074 0.75706 0.0
H262 H 0.04434 0.14854 0.79037 0.0
H263 H 0.0357 0.1992 0.74397 0.0
H264 H 1.00135 0.30385 0.82623 0.0
H265 H 0.05044 0.43174 0.63609 0.0
H266 H 0.0413 0.38742 0.70139 0.0
H267 H 0.9734 0.25334 0.6514 0.0
C268 C 1.01993 0.19622 0.78073 0.0
C269 C 0.99444 0.29248 0.78834 0.0
C270 C 1.02505 0.16725 0.80763 0.0
C271 C 1.02454 0.40231 0.63573 0.0
C272 C 1.0192 0.37692 0.67316 0.0
C273 C 0.97862 0.26483 0.68968 0.0
C274 C 0.99491 0.22105 0.80077 0.0
C275 C 0.98878 0.25041 0.77012 0.0
C276 C 0.98753 0.33727 0.67215 0.0
C277 C 0.98575 0.30731 0.70712 0.0
H278 H 0.96488 0.184 0.91286 0.0
H279 H 0.95625 0.23555 0.86544 0.0
H280 H 0.97514 0.20452 0.70568 0.0
H281 H 0.94431 0.33879 0.56768 0.0
H282 H 0.93442 0.29502 0.63315 0.0
C283 C 0.85639 0.04733 0.87099 0.0
C284 C 0.89973 0.05329 0.85973 0.0
C285 C 0.83302 0.05568 0.83821 0.0
C286 C 0.8341 0.06675 0.70666 0.0
H287 H 0.73679 0.10169 0.75485 0.0
C288 C 0.72738 0.09192 0.57599 0.0
C289 C 0.68417 0.06852 0.58378 0.0
C290 C 0.75538 0.09671 0.61118 0.0
C291 C 0.76386 0.09193 0.74096 0.0
H292 H 0.95275 0.0737 0.80535 0.0
H293 H 0.91221 0.08995 0.74863 0.0
H294 H 0.78479 0.09999 0.81285 0.0
H295 H 0.63626 1.03384 0.63615 0.0
H296 H 0.68525 0.04327 0.69842 0.0
H297 H 0.81315 0.05918 0.63466 0.0
C298 C 0.89605 0.07775 0.78248 0.0
C299 C 0.79133 0.09075 0.77411 0.0
C300 C 0.91942 0.06873 0.81514 0.0
C301 C 0.66923 0.05221 0.62904 0.0
C302 C 0.69727 0.05749 0.66462 0.0
C303 C 0.80699 0.06858 0.67348 0.0
C304 C 0.85238 0.07087 0.79341 0.0
C305 C 0.82625 0.07715 0.75755 0.0
C306 C 0.74076 0.07887 0.65541 0.0
C307 C 0.77118 0.08038 0.69042 0.0
H308 H 0.84 0.03525 0.90484 0.0
H309 H 0.79938 0.049 0.8476 0.0
H310 H 0.86019 0.05555 0.69248 0.0
H311 H 0.73981 0.10592 0.54212 0.0
H312 H 0.78864 0.11392 0.60355 0.0
loop_
_geom_bond_atom_site_label_1
_geom_bond_atom_site_label_2
_geom_bond_distance
_geom_bond_site_symmetry_2
_ccdc_geom_bond_type
Co0 O3 2.042 . S
Co0 O10 2.263 . S
Co0 O29 2.286 1_455 S
Co0 O30 2.069 . S
Co0 O32 2.015 1_455 S
Co1 O3 2.122 1_545 S
Co1 O9 2.073 . S
Co1 O10 2.328 1_545 S
Co1 O11 1.976 . S
Co2 O3 2.094 1_545 S
Co2 O5 2.080 1_454 S
Co2 O12 2.133 . S
Co2 O13 2.157 1_554 S
Co2 O17 2.089 1_444 S
Co2 O31 2.130 1_445 S
O3 Co0 2.042 . S
O3 Co1 2.122 1_565 S
O3 Co2 2.094 1_565 S
O3 H4 0.980 . S
H4 O3 0.980 . S
O5 Co2 2.080 1_656 S
O5 Co6 2.042 . S
O5 Co7 2.122 1_545 S
O5 H8 0.980 . S
Co6 O5 2.042 . S
Co6 O14 2.286 1_655 S
Co6 O15 2.069 . S
Co6 O16 2.015 1_655 S
Co6 O19 2.264 . S
Co7 O5 2.122 1_565 S
Co7 O18 1.976 . S
Co7 O19 2.327 1_565 S
Co7 O20 2.073 . S
H8 O5 0.980 . S
O9 Co1 2.073 . S
O9 C24 1.245 1_545 S
O10 Co0 2.263 . S
O10 Co1 2.328 1_565 S
O10 C24 1.257 . S
O11 Co1 1.976 . S
O11 C23 1.251 . S
O12 Co2 2.133 . S
O12 C23 1.274 . S
O13 Co2 2.157 1_556 S
O13 C26 1.246 . S
O14 Co6 2.286 1_455 S
O14 C25 1.259 1_455 S
O15 Co6 2.069 . S
O15 C25 1.289 . S
O16 Co6 2.015 1_455 S
O16 C26 1.257 . S
O17 Co2 2.089 1_666 S
O17 C27 1.274 . S
O18 Co7 1.976 . S
O18 C27 1.251 . S
O19 Co6 2.264 . S
O19 Co7 2.327 1_545 S
O19 C28 1.257 . S
O20 Co7 2.073 . S
O20 C28 1.245 1_565 S
C21 O29 1.259 1_455 S
C21 O30 1.289 . S
C22 O31 1.246 . S
C22 O32 1.257 . S
C23 O11 1.251 . S
C23 O12 1.274 . S
C24 O9 1.245 1_565 S
C24 O10 1.257 . S
C25 O14 1.259 1_655 S
C25 O15 1.289 . S
C26 O13 1.246 . S
C26 O16 1.257 . S
C27 O17 1.274 . S
C27 O18 1.251 . S
C28 O19 1.257 . S
C28 O20 1.245 1_545 S
O29 Co0 2.286 1_655 S
O29 C21 1.259 1_655 S
O30 Co0 2.069 . S
O30 C21 1.289 . S
O31 Co2 2.130 1_665 S
O31 C22 1.246 . S
O32 Co0 2.015 1_655 S
O32 C22 1.257 . S
H33 C41 0.940 . S
H34 C44 0.940 . S
H35 C46 0.940 . S
H36 C47 0.940 . S
H37 C50 0.940 . S
H38 C52 0.940 . S
N39 N40 1.190 . S
N39 C43 1.477 . S
N40 N39 1.190 . S
N40 C49 1.477 . S
C41 H33 0.940 . S
C41 C42 1.395 1_455 S
C41 C43 1.322 . S
C42 C41 1.395 1_655 S
C42 C46 1.364 . S
C43 N39 1.477 . S
C43 C41 1.322 . S
C43 C44 1.447 . S
C44 H34 0.940 . S
C44 C43 1.447 . S
C44 C45 1.373 . S
C45 C44 1.373 . S
C45 C46 1.417 1_455 S
C46 H35 0.940 . S
C46 C42 1.364 . S
C46 C45 1.417 1_655 S
C47 H36 0.940 . S
C47 C48 1.378 1_455 S
C47 C49 1.322 . S
C48 C47 1.378 1_655 S
C48 C52 1.377 . S
C49 N40 1.477 . S
C49 C47 1.322 . S
C49 C50 1.447 . S
C50 H37 0.940 . S
C50 C49 1.447 . S
C50 C51 1.373 . S
C51 C50 1.373 . S
C51 C52 1.417 1_455 S
C52 H38 0.940 . S
C52 C48 1.377 . S
C52 C51 1.417 1_655 S
H53 C61 0.940 . S
H54 C64 0.940 . S
H55 C66 0.940 . S
H56 C67 0.940 . S
H57 C70 0.940 . S
H58 C72 0.940 . S
N59 N60 1.190 . S
N59 C63 1.477 . S
N60 N59 1.190 . S
N60 C69 1.477 . S
C61 H53 0.940 . S
C61 C62 1.380 1_545 S
C61 C63 1.322 . S
C62 C61 1.380 1_565 S
C62 C66 1.378 . S
C63 N59 1.477 . S
C63 C61 1.322 . S
C63 C64 1.447 . S
C64 H54 0.940 . S
C64 C63 1.447 . S
C64 C65 1.373 . S
C65 C64 1.373 . S
C65 C66 1.417 1_545 S
C66 H55 0.940 . S
C66 C62 1.378 . S
C66 C65 1.417 1_565 S
C67 H56 0.940 . S
C67 C68 1.394 1_545 S
C67 C69 1.322 . S
C68 C67 1.394 1_565 S
C68 C72 1.363 . S
C69 N60 1.477 . S
C69 C67 1.322 . S
C69 C70 1.447 . S
C70 H57 0.940 . S
C70 C69 1.447 . S
C70 C71 1.373 . S
C71 C70 1.373 . S
C71 C72 1.417 1_545 S
C72 H58 0.940 . S
C72 C68 1.363 . S
C72 C71 1.417 1_565 S
C73 C74 1.359 . S
C73 C75 1.327 . S
C73 H98 0.950 . S
C74 C73 1.359 . S
C74 C90 1.342 1_655 S
C75 C73 1.327 . S
C75 C94 1.429 . S
C75 H99 0.950 . S
C76 C93 1.574 . S
C76 C95 1.368 1_455 S
C76 H100 0.949 . S
H77 C81 0.949 . S
C78 C79 1.349 1_455 S
C78 C80 1.327 . S
C78 H101 0.950 . S
C79 C78 1.349 1_655 S
C79 C91 1.349 . S
C80 C78 1.327 . S
C80 C96 1.429 1_455 S
C80 H102 0.950 . S
C81 H77 0.949 . S
C81 C89 1.574 . S
C81 C97 1.368 . S
H82 C90 0.950 . S
H83 C88 0.950 . S
H84 C89 0.949 . S
H85 C91 0.950 . S
H86 C92 0.950 . S
H87 C93 0.949 . S
C88 H83 0.950 . S
C88 C90 1.327 . S
C88 C94 1.429 1_455 S
C89 C81 1.574 . S
C89 H84 0.949 . S
C89 C95 1.368 . S
C90 C74 1.342 1_455 S
C90 H82 0.950 . S
C90 C88 1.327 . S
C91 C79 1.349 . S
C91 H85 0.950 . S
C91 C92 1.327 . S
C92 H86 0.950 . S
C92 C91 1.327 . S
C92 C96 1.429 . S
C93 C76 1.574 . S
C93 H87 0.949 . S
C93 C97 1.368 1_455 S
C94 C75 1.429 . S
C94 C88 1.429 1_655 S
C94 C95 1.523 . S
C95 C76 1.368 1_655 S
C95 C89 1.368 . S
C95 C94 1.523 . S
C96 C80 1.429 1_655 S
C96 C92 1.429 . S
C96 C97 1.523 . S
C97 C81 1.368 . S
C97 C93 1.368 1_655 S
C97 C96 1.523 . S
H98 C73 0.950 . S
H99 C75 0.950 . S
H100 C76 0.949 . S
H101 C78 0.950 . S
H102 C80 0.950 . S
C103 C104 1.349 . S
C103 C105 1.327 . S
C103 H128 0.950 . S
C104 C103 1.349 . S
C104 C120 1.349 1_565 S
C105 C103 1.327 . S
C105 C124 1.429 . S
C105 H129 0.950 . S
C106 C123 1.574 . S
C106 C125 1.368 1_545 S
C106 H130 0.949 . S
H107 C111 0.949 . S
C108 C109 1.349 1_545 S
C108 C110 1.327 . S
C108 H131 0.950 . S
C109 C108 1.349 1_565 S
C109 C121 1.349 . S
C110 C108 1.327 . S
C110 C126 1.429 1_545 S
C110 H132 0.950 . S
C111 H107 0.949 . S
C111 C119 1.574 . S
C111 C127 1.368 . S
H112 C120 0.950 . S
H113 C118 0.950 . S
H114 C119 0.949 . S
H115 C121 0.950 . S
H116 C122 0.950 . S
H117 C123 0.949 . S
C118 H113 0.950 . S
C118 C120 1.327 . S
C118 C124 1.429 1_545 S
C119 C111 1.574 . S
C119 H114 0.949 . S
C119 C125 1.368 . S
C120 C104 1.349 1_545 S
C120 H112 0.950 . S
C120 C118 1.327 . S
C121 C109 1.349 . S
C121 H115 0.950 . S
C121 C122 1.327 . S
C122 H116 0.950 . S
C122 C121 1.327 . S
C122 C126 1.429 . S
C123 C106 1.574 . S
C123 H117 0.949 . S
C123 C127 1.368 1_545 S
C124 C105 1.429 . S
C124 C118 1.429 1_565 S
C124 C125 1.523 . S
C125 C106 1.368 1_565 S
C125 C119 1.368 . S
C125 C124 1.523 . S
C126 C110 1.429 1_565 S
C126 C122 1.429 . S
C126 C127 1.523 . S
C127 C111 1.368 . S
C127 C123 1.368 1_565 S
C127 C126 1.523 . S
H128 C103 0.950 . S
H129 C105 0.950 . S
H130 C106 0.949 . S
H131 C108 0.950 . S
H132 C110 0.950 . S
C133 C134 1.349 . S
C133 C135 1.327 . S
C133 H158 0.950 . S
C134 C133 1.349 . S
C134 C150 1.349 . S
C135 C133 1.327 . S
C135 C154 1.429 . S
C135 H159 0.950 . S
C136 C153 1.574 . S
C136 C155 1.368 . S
C136 H160 0.949 . S
H137 C141 0.949 . S
C138 C139 1.349 . S
C138 C140 1.327 . S
C138 H161 0.950 . S
C139 C138 1.349 . S
C139 C151 1.349 . S
C140 C138 1.327 . S
C140 C156 1.429 . S
C140 H162 0.950 . S
C141 H137 0.949 . S
C141 C149 1.574 . S
C141 C157 1.368 . S
H142 C150 0.950 . S
H143 C148 0.950 . S
H144 C149 0.949 . S
H145 C151 0.950 . S
H146 C152 0.950 . S
H147 C153 0.949 . S
C148 H143 0.950 . S
C148 C150 1.327 . S
C148 C154 1.429 . S
C149 C141 1.574 . S
C149 H144 0.949 . S
C149 C155 1.368 . S
C150 C134 1.349 . S
C150 H142 0.950 . S
C150 C148 1.327 . S
C151 C139 1.349 . S
C151 H145 0.950 . S
C151 C152 1.327 . S
C152 H146 0.950 . S
C152 C151 1.327 . S
C152 C156 1.429 . S
C153 C136 1.574 . S
C153 H147 0.949 . S
C153 C157 1.368 . S
C154 C135 1.429 . S
C154 C148 1.429 . S
C154 C155 1.523 . S
C155 C136 1.368 . S
C155 C149 1.368 . S
C155 C154 1.523 . S
C156 C140 1.429 . S
C156 C152 1.429 . S
C156 C157 1.523 . S
C157 C141 1.368 . S
C157 C153 1.368 . S
C157 C156 1.523 . S
H158 C133 0.950 . S
H159 C135 0.950 . S
H160 C136 0.949 . S
H161 C138 0.950 . S
H162 C140 0.950 . S
C163 C164 1.349 . S
C163 C165 1.327 . S
C163 H188 0.950 . S
C164 C163 1.349 . S
C164 C180 1.349 1_565 S
C165 C163 1.327 . S
C165 C184 1.429 . S
C165 H189 0.950 . S
C166 C183 1.574 . S
C166 C185 1.368 1_545 S
C166 H190 0.949 . S
H167 C171 0.949 . S
C168 C169 1.349 . S
C168 C170 1.327 . S
C168 H191 0.950 . S
C169 C168 1.349 . S
C169 C181 1.349 1_545 S
C170 C168 1.327 . S
C170 C186 1.429 1_545 S
C170 H192 0.950 . S
C171 H167 0.949 . S
C171 C179 1.574 . S
C171 C187 1.368 . S
H172 C180 0.950 . S
H173 C178 0.950 . S
H174 C179 0.949 . S
H175 C181 0.950 . S
H176 C182 0.950 . S
H177 C183 0.949 . S
C178 H173 0.950 . S
C178 C180 1.327 . S
C178 C184 1.429 1_545 S
C179 C171 1.574 . S
C179 H174 0.949 . S
C179 C185 1.368 . S
C180 C164 1.349 1_545 S
C180 H172 0.950 . S
C180 C178 1.327 . S
C181 C169 1.349 1_565 S
C181 H175 0.950 . S
C181 C182 1.327 . S
C182 H176 0.950 . S
C182 C181 1.327 . S
C182 C186 1.429 . S
C183 C166 1.574 . S
C183 H177 0.949 . S
C183 C187 1.368 1_545 S
C184 C165 1.429 . S
C184 C178 1.429 1_565 S
C184 C185 1.523 . S
C185 C166 1.368 1_565 S
C185 C179 1.368 . S
C185 C184 1.523 . S
C186 C170 1.429 1_565 S
C186 C182 1.429 . S
C186 C187 1.523 . S
C187 C171 1.368 . S
C187 C183 1.368 1_565 S
C187 C186 1.523 . S
H188 C163 0.950 . S
H189 C165 0.950 . S
H190 C166 0.949 . S
H191 C168 0.950 . S
H192 C170 0.950 . S
C193 C194 1.349 1_655 S
C193 C195 1.327 . S
C193 H218 0.950 . S
C194 C193 1.349 1_455 S
C194 C210 1.349 . S
C195 C193 1.327 . S
C195 C214 1.425 1_655 S
C195 H219 0.950 . S
C196 C213 1.574 . S
C196 C215 1.362 1_455 S
C196 H220 0.949 . S
H197 C201 0.949 . S
C198 C199 1.349 1_455 S
C198 C200 1.327 . S
C198 H221 0.950 . S
C199 C198 1.349 1_655 S
C199 C211 1.349 . S
C200 C198 1.327 . S
C200 C216 1.429 1_455 S
C200 H222 0.950 . S
C201 H197 0.949 . S
C201 C209 1.574 . S
C201 C217 1.368 . S
H202 C210 0.950 . S
H203 C208 0.950 . S
H204 C209 0.949 . S
H205 C211 0.950 . S
H206 C212 0.950 . S
H207 C213 0.949 . S
C208 H203 0.950 . S
C208 C210 1.327 . S
C208 C214 1.431 . S
C209 C201 1.574 . S
C209 H204 0.949 . S
C209 C215 1.373 . S
C210 C194 1.349 . S
C210 H202 0.950 . S
C210 C208 1.327 . S
C211 C199 1.349 . S
C211 H205 0.950 . S
C211 C212 1.327 . S
C212 H206 0.950 . S
C212 C211 1.327 . S
C212 C216 1.429 . S
C213 C196 1.574 . S
C213 H207 0.949 . S
C213 C217 1.368 1_455 S
C214 C195 1.425 1_455 S
C214 C208 1.431 . S
C214 C215 1.526 1_455 S
C215 C196 1.362 1_655 S
C215 C209 1.373 . S
C215 C214 1.526 1_655 S
C216 C200 1.429 1_655 S
C216 C212 1.429 . S
C216 C217 1.523 . S
C217 C201 1.368 . S
C217 C213 1.368 1_655 S
C217 C216 1.523 . S
H218 C193 0.950 . S
H219 C195 0.950 . S
H220 C196 0.949 . S
H221 C198 0.950 . S
H222 C200 0.950 . S
C223 C224 1.349 . S
C223 C225 1.327 . S
C223 H248 0.950 . S
C224 C223 1.349 . S
C224 C240 1.349 1_545 S
C225 C223 1.327 . S
C225 C244 1.429 . S
C225 H249 0.950 . S
C226 C243 1.574 . S
C226 C245 1.344 1_565 S
C226 H250 0.949 . S
H227 C231 0.949 . S
C228 C229 1.349 . S
C228 C230 1.327 . S
C228 H251 0.950 . S
C229 C228 1.349 . S
C229 C241 1.349 1_565 S
C230 C228 1.327 . S
C230 C246 1.429 . S
C230 H252 0.950 . S
C231 H227 0.949 . S
C231 C239 1.574 . S
C231 C247 1.355 1_545 S
H232 C240 0.950 . S
H233 C238 0.950 . S
H234 C239 0.949 . S
H235 C241 0.950 . S
H236 C242 0.950 . S
H237 C243 0.949 . S
C238 H233 0.950 . S
C238 C240 1.327 . S
C238 C244 1.429 1_565 S
C239 C231 1.574 . S
C239 H234 0.949 . S
C239 C245 1.389 . S
C240 C224 1.349 1_565 S
C240 H232 0.950 . S
C240 C238 1.327 . S
C241 C229 1.349 1_545 S
C241 H235 0.950 . S
C241 C242 1.327 . S
C242 H236 0.950 . S
C242 C241 1.327 . S
C242 C246 1.429 1_545 S
C243 C226 1.574 . S
C243 H237 0.949 . S
C243 C247 1.380 . S
C244 C225 1.429 . S
C244 C238 1.429 1_545 S
C244 C245 1.528 . S
C245 C226 1.344 1_545 S
C245 C239 1.389 . S
C245 C244 1.528 . S
C246 C230 1.429 . S
C246 C242 1.429 1_565 S
C246 C247 1.526 . S
C247 C231 1.355 1_565 S
C247 C243 1.380 . S
C247 C246 1.526 . S
H248 C223 0.950 . S
H249 C225 0.950 . S
H250 C226 0.949 . S
H251 C228 0.950 . S
H252 C230 0.950 . S
C253 C254 1.349 1_455 S
C253 C255 1.327 . S
C253 H278 0.950 . S
C254 C253 1.349 1_655 S
C254 C270 1.349 . S
C255 C253 1.327 . S
C255 C274 1.429 1_455 S
C255 H279 0.950 . S
C256 C273 1.574 . S
C256 C275 1.368 . S
C256 H280 0.949 . S
H257 C261 0.949 . S
C258 C259 1.349 1_655 S
C258 C260 1.327 . S
C258 H281 0.950 . S
C259 C258 1.349 1_455 S
C259 C271 1.349 . S
C260 C258 1.327 . S
C260 C276 1.428 . S
C260 H282 0.950 . S
C261 H257 0.949 . S
C261 C269 1.574 . S
C261 C277 1.368 1_455 S
H262 C270 0.950 . S
H263 C268 0.950 . S
H264 C269 0.949 . S
H265 C271 0.950 . S
H266 C272 0.950 . S
H267 C273 0.949 . S
C268 H263 0.950 . S
C268 C270 1.327 . S
C268 C274 1.429 . S
C269 C261 1.574 . S
C269 H264 0.949 . S
C269 C275 1.368 1_455 S
C270 C254 1.349 . S
C270 H262 0.950 . S
C270 C268 1.327 . S
C271 C259 1.349 . S
C271 H265 0.950 . S
C271 C272 1.327 . S
C272 H266 0.950 . S
C272 C271 1.327 . S
C272 C276 1.429 1_455 S
C273 C256 1.574 . S
C273 H267 0.949 . S
C273 C277 1.368 . S
C274 C255 1.429 1_655 S
C274 C268 1.429 . S
C274 C275 1.523 . S
C275 C256 1.368 . S
C275 C269 1.368 1_655 S
C275 C274 1.523 . S
C276 C260 1.428 . S
C276 C272 1.429 1_655 S
C276 C277 1.523 . S
C277 C261 1.368 1_655 S
C277 C273 1.368 . S
C277 C276 1.523 . S
H278 C253 0.950 . S
H279 C255 0.950 . S
H280 C256 0.949 . S
H281 C258 0.950 . S
H282 C260 0.950 . S
C283 C284 1.349 1_565 S
C283 C285 1.327 . S
C283 H308 0.950 . S
C284 C283 1.349 1_545 S
C284 C300 1.349 . S
C285 C283 1.327 . S
C285 C304 1.429 1_565 S
C285 H309 0.950 . S
C286 C303 1.574 . S
C286 C305 1.368 . S
C286 H310 0.949 . S
H287 C291 0.949 . S
C288 C289 1.349 . S
C288 C290 1.327 . S
C288 H311 0.950 . S
C289 C288 1.349 . S
C289 C301 1.349 1_545 S
C290 C288 1.327 . S
C290 C306 1.429 . S
C290 H312 0.950 . S
C291 H287 0.949 . S
C291 C299 1.574 . S
C291 C307 1.368 1_565 S
H292 C300 0.950 . S
H293 C298 0.950 . S
H294 C299 0.949 . S
H295 C301 0.950 . S
H296 C302 0.950 . S
H297 C303 0.949 . S
C298 H293 0.950 . S
C298 C300 1.327 . S
C298 C304 1.429 . S
C299 C291 1.574 . S
C299 H294 0.949 . S
C299 C305 1.368 1_565 S
C300 C284 1.349 . S
C300 H292 0.950 . S
C300 C298 1.327 . S
C301 C289 1.349 1_565 S
C301 H295 0.950 . S
C301 C302 1.327 . S
C302 H296 0.950 . S
C302 C301 1.327 . S
C302 C306 1.429 1_565 S
C303 C286 1.574 . S
C303 H297 0.949 . S
C303 C307 1.368 . S
C304 C285 1.429 1_545 S
C304 C298 1.429 . S
C304 C305 1.523 . S
C305 C286 1.368 . S
C305 C299 1.368 1_545 S
C305 C304 1.523 . S
C306 C290 1.429 . S
C306 C302 1.429 1_545 S
C306 C307 1.523 . S
C307 C291 1.368 1_545 S
C307 C303 1.368 . S
C307 C306 1.523 . S
H308 C283 0.950 . S
H309 C285 0.950 . S
H310 C286 0.949 . S
H311 C288 0.950 . S
H312 C290 0.950 . S
C74 C23 1.502 1_655 S
C79 C42 1.554 . S
C104 C22 1.657 . S
C109 C62 1.660 . S
C134 C21 2.063 . S
C139 C51 2.049 . S
C164 C24 1.724 . S
C169 C71 1.789 . S
C194 C27 1.505 1_455 S
C199 C48 1.561 . S
C224 C26 1.661 . S
C229 C68 1.657 . S
C259 C45 2.053 . S
C254 C25 2.065 . S
C284 C28 1.723 . S
C289 C65 1.782 . S
